# Generated by pormake.
# Topology uns, (4)-cn, num edge types: 1
# Building blocks:
#     Node 0, Type 0, BuildingBlock: MUDLON_clean_sbu_0, # of connection points: 4
#     Node 1, Type 0, BuildingBlock: MUDLON_clean_sbu_0, # of connection points: 4
#     Node 2, Type 0, BuildingBlock: MUDLON_clean_sbu_0, # of connection points: 4
#     Node 3, Type 0, BuildingBlock: MUDLON_clean_sbu_0, # of connection points: 4
#     Node 4, Type 0, BuildingBlock: MUDLON_clean_sbu_0, # of connection points: 4
#     Node 5, Type 0, BuildingBlock: MUDLON_clean_sbu_0, # of connection points: 4
#     Node 6, Type 0, BuildingBlock: MUDLON_clean_sbu_0, # of connection points: 4
#     Node 7, Type 0, BuildingBlock: MUDLON_clean_sbu_0, # of connection points: 4
#     Node 8, Type 0, BuildingBlock: MUDLON_clean_sbu_0, # of connection points: 4
#     Node 9, Type 0, BuildingBlock: MUDLON_clean_sbu_0, # of connection points: 4
#     Node 10, Type 0, BuildingBlock: MUDLON_clean_sbu_0, # of connection points: 4
#     Node 11, Type 0, BuildingBlock: MUDLON_clean_sbu_0, # of connection points: 4
#     Node 12, Type 0, BuildingBlock: MUDLON_clean_sbu_0, # of connection points: 4
#     Node 13, Type 0, BuildingBlock: MUDLON_clean_sbu_0, # of connection points: 4
#     Node 14, Type 0, BuildingBlock: MUDLON_clean_sbu_0, # of connection points: 4
#     Node 15, Type 0, BuildingBlock: MUDLON_clean_sbu_0, # of connection points: 4
#     Node 16, Type 0, BuildingBlock: MUDLON_clean_sbu_0, # of connection points: 4
#     Node 17, Type 0, BuildingBlock: MUDLON_clean_sbu_0, # of connection points: 4
#     Node 18, Type 0, BuildingBlock: MUDLON_clean_sbu_0, # of connection points: 4
#     Node 19, Type 0, BuildingBlock: MUDLON_clean_sbu_0, # of connection points: 4
#     Node 20, Type 0, BuildingBlock: MUDLON_clean_sbu_0, # of connection points: 4
#     Node 21, Type 0, BuildingBlock: MUDLON_clean_sbu_0, # of connection points: 4
#     Node 22, Type 0, BuildingBlock: MUDLON_clean_sbu_0, # of connection points: 4
#     Node 23, Type 0, BuildingBlock: MUDLON_clean_sbu_0, # of connection points: 4
#     Node 24, Type 0, BuildingBlock: MUDLON_clean_sbu_0, # of connection points: 4
#     Node 25, Type 0, BuildingBlock: MUDLON_clean_sbu_0, # of connection points: 4
#     Node 26, Type 0, BuildingBlock: MUDLON_clean_sbu_0, # of connection points: 4
#     Node 27, Type 0, BuildingBlock: MUDLON_clean_sbu_0, # of connection points: 4
#     Node 28, Type 0, BuildingBlock: MUDLON_clean_sbu_0, # of connection points: 4
#     Node 29, Type 0, BuildingBlock: MUDLON_clean_sbu_0, # of connection points: 4
#     Node 30, Type 0, BuildingBlock: MUDLON_clean_sbu_0, # of connection points: 4
#     Node 31, Type 0, BuildingBlock: MUDLON_clean_sbu_0, # of connection points: 4
#     Node 32, Type 0, BuildingBlock: MUDLON_clean_sbu_0, # of connection points: 4
#     Node 33, Type 0, BuildingBlock: MUDLON_clean_sbu_0, # of connection points: 4
#     Node 34, Type 0, BuildingBlock: MUDLON_clean_sbu_0, # of connection points: 4
#     Node 35, Type 0, BuildingBlock: MUDLON_clean_sbu_0, # of connection points: 4
#     Edge 36, Type (0, 0), BuildingBlock: TEMPAE_clean_linker_10, # of connection points: 2
#     Edge 37, Type (0, 0), BuildingBlock: TEMPAE_clean_linker_10, # of connection points: 2
#     Edge 38, Type (0, 0), BuildingBlock: TEMPAE_clean_linker_10, # of connection points: 2
#     Edge 39, Type (0, 0), BuildingBlock: TEMPAE_clean_linker_10, # of connection points: 2
#     Edge 40, Type (0, 0), BuildingBlock: TEMPAE_clean_linker_10, # of connection points: 2
#     Edge 41, Type (0, 0), BuildingBlock: TEMPAE_clean_linker_10, # of connection points: 2
#     Edge 42, Type (0, 0), BuildingBlock: TEMPAE_clean_linker_10, # of connection points: 2
#     Edge 43, Type (0, 0), BuildingBlock: TEMPAE_clean_linker_10, # of connection points: 2
#     Edge 44, Type (0, 0), BuildingBlock: TEMPAE_clean_linker_10, # of connection points: 2
#     Edge 45, Type (0, 0), BuildingBlock: TEMPAE_clean_linker_10, # of connection points: 2
#     Edge 46, Type (0, 0), BuildingBlock: TEMPAE_clean_linker_10, # of connection points: 2
#     Edge 47, Type (0, 0), BuildingBlock: TEMPAE_clean_linker_10, # of connection points: 2
#     Edge 48, Type (0, 0), BuildingBlock: TEMPAE_clean_linker_10, # of connection points: 2
#     Edge 49, Type (0, 0), BuildingBlock: TEMPAE_clean_linker_10, # of connection points: 2
#     Edge 50, Type (0, 0), BuildingBlock: TEMPAE_clean_linker_10, # of connection points: 2
#     Edge 51, Type (0, 0), BuildingBlock: TEMPAE_clean_linker_10, # of connection points: 2
#     Edge 52, Type (0, 0), BuildingBlock: TEMPAE_clean_linker_10, # of connection points: 2
#     Edge 53, Type (0, 0), BuildingBlock: TEMPAE_clean_linker_10, # of connection points: 2
#     Edge 54, Type (0, 0), BuildingBlock: TEMPAE_clean_linker_10, # of connection points: 2
#     Edge 55, Type (0, 0), BuildingBlock: TEMPAE_clean_linker_10, # of connection points: 2
#     Edge 56, Type (0, 0), BuildingBlock: TEMPAE_clean_linker_10, # of connection points: 2
#     Edge 57, Type (0, 0), BuildingBlock: TEMPAE_clean_linker_10, # of connection points: 2
#     Edge 58, Type (0, 0), BuildingBlock: TEMPAE_clean_linker_10, # of connection points: 2
#     Edge 59, Type (0, 0), BuildingBlock: TEMPAE_clean_linker_10, # of connection points: 2
#     Edge 60, Type (0, 0), BuildingBlock: TEMPAE_clean_linker_10, # of connection points: 2
#     Edge 61, Type (0, 0), BuildingBlock: TEMPAE_clean_linker_10, # of connection points: 2
#     Edge 62, Type (0, 0), BuildingBlock: TEMPAE_clean_linker_10, # of connection points: 2
#     Edge 63, Type (0, 0), BuildingBlock: TEMPAE_clean_linker_10, # of connection points: 2
#     Edge 64, Type (0, 0), BuildingBlock: TEMPAE_clean_linker_10, # of connection points: 2
#     Edge 65, Type (0, 0), BuildingBlock: TEMPAE_clean_linker_10, # of connection points: 2
#     Edge 66, Type (0, 0), BuildingBlock: TEMPAE_clean_linker_10, # of connection points: 2
#     Edge 67, Type (0, 0), BuildingBlock: TEMPAE_clean_linker_10, # of connection points: 2
#     Edge 68, Type (0, 0), BuildingBlock: TEMPAE_clean_linker_10, # of connection points: 2
#     Edge 69, Type (0, 0), BuildingBlock: TEMPAE_clean_linker_10, # of connection points: 2
#     Edge 70, Type (0, 0), BuildingBlock: TEMPAE_clean_linker_10, # of connection points: 2
#     Edge 71, Type (0, 0), BuildingBlock: TEMPAE_clean_linker_10, # of connection points: 2
#     Edge 72, Type (0, 0), BuildingBlock: TEMPAE_clean_linker_10, # of connection points: 2
#     Edge 73, Type (0, 0), BuildingBlock: TEMPAE_clean_linker_10, # of connection points: 2
#     Edge 74, Type (0, 0), BuildingBlock: TEMPAE_clean_linker_10, # of connection points: 2
#     Edge 75, Type (0, 0), BuildingBlock: TEMPAE_clean_linker_10, # of connection points: 2
#     Edge 76, Type (0, 0), BuildingBlock: TEMPAE_clean_linker_10, # of connection points: 2
#     Edge 77, Type (0, 0), BuildingBlock: TEMPAE_clean_linker_10, # of connection points: 2
#     Edge 78, Type (0, 0), BuildingBlock: TEMPAE_clean_linker_10, # of connection points: 2
#     Edge 79, Type (0, 0), BuildingBlock: TEMPAE_clean_linker_10, # of connection points: 2
#     Edge 80, Type (0, 0), BuildingBlock: TEMPAE_clean_linker_10, # of connection points: 2
#     Edge 81, Type (0, 0), BuildingBlock: TEMPAE_clean_linker_10, # of connection points: 2
#     Edge 82, Type (0, 0), BuildingBlock: TEMPAE_clean_linker_10, # of connection points: 2
#     Edge 83, Type (0, 0), BuildingBlock: TEMPAE_clean_linker_10, # of connection points: 2
#     Edge 84, Type (0, 0), BuildingBlock: TEMPAE_clean_linker_10, # of connection points: 2
#     Edge 85, Type (0, 0), BuildingBlock: TEMPAE_clean_linker_10, # of connection points: 2
#     Edge 86, Type (0, 0), BuildingBlock: TEMPAE_clean_linker_10, # of connection points: 2
#     Edge 87, Type (0, 0), BuildingBlock: TEMPAE_clean_linker_10, # of connection points: 2
#     Edge 88, Type (0, 0), BuildingBlock: TEMPAE_clean_linker_10, # of connection points: 2
#     Edge 89, Type (0, 0), BuildingBlock: TEMPAE_clean_linker_10, # of connection points: 2
#     Edge 90, Type (0, 0), BuildingBlock: TEMPAE_clean_linker_10, # of connection points: 2
#     Edge 91, Type (0, 0), BuildingBlock: TEMPAE_clean_linker_10, # of connection points: 2
#     Edge 92, Type (0, 0), BuildingBlock: TEMPAE_clean_linker_10, # of connection points: 2
#     Edge 93, Type (0, 0), BuildingBlock: TEMPAE_clean_linker_10, # of connection points: 2
#     Edge 94, Type (0, 0), BuildingBlock: TEMPAE_clean_linker_10, # of connection points: 2
#     Edge 95, Type (0, 0), BuildingBlock: TEMPAE_clean_linker_10, # of connection points: 2
#     Edge 96, Type (0, 0), BuildingBlock: TEMPAE_clean_linker_10, # of connection points: 2
#     Edge 97, Type (0, 0), BuildingBlock: TEMPAE_clean_linker_10, # of connection points: 2
#     Edge 98, Type (0, 0), BuildingBlock: TEMPAE_clean_linker_10, # of connection points: 2
#     Edge 99, Type (0, 0), BuildingBlock: TEMPAE_clean_linker_10, # of connection points: 2
#     Edge 100, Type (0, 0), BuildingBlock: TEMPAE_clean_linker_10, # of connection points: 2
#     Edge 101, Type (0, 0), BuildingBlock: TEMPAE_clean_linker_10, # of connection points: 2
#     Edge 102, Type (0, 0), BuildingBlock: TEMPAE_clean_linker_10, # of connection points: 2
#     Edge 103, Type (0, 0), BuildingBlock: TEMPAE_clean_linker_10, # of connection points: 2
#     Edge 104, Type (0, 0), BuildingBlock: TEMPAE_clean_linker_10, # of connection points: 2
#     Edge 105, Type (0, 0), BuildingBlock: TEMPAE_clean_linker_10, # of connection points: 2
#     Edge 106, Type (0, 0), BuildingBlock: TEMPAE_clean_linker_10, # of connection points: 2
#     Edge 107, Type (0, 0), BuildingBlock: TEMPAE_clean_linker_10, # of connection points: 2
# Relax obj value: 0.027
# Max RMSD: 0.173
# Mean RMSD: 0.173
data_MOF--net-uns--node1-MUDLON_clean_sbu_0--edge1-TEMPAE_clean_linker_10
_symmetry_space_group_name_H-M    P1
_symmetry_Int_Tables_number       1
_symmetry_cell_setting            triclinic
loop_
_symmetry_equiv_pos_as_xyz
'x, y, z'
_cell_length_a     59.731651
_cell_length_b     59.85247
_cell_length_c     58.540773
_cell_angle_alpha  89.899878
_cell_angle_beta   90.008715
_cell_angle_gamma 119.92793
loop_
_atom_site_label
_atom_site_type_symbol
_atom_site_fract_x
_atom_site_fract_y
_atom_site_fract_z
_atom_type_partial_charge
Mg0 Mg 0.2688 0.19109 0.06325 0.0
C1 C 0.30462 0.24232 0.08121 0.0
O2 O 0.29014 0.22916 0.09863 0.0
C3 C 0.24673 0.14185 0.03853 0.0
O4 O 0.22889 0.13895 0.0533 0.0
C5 C 0.29968 0.18242 0.09635 0.0
O6 O 0.31368 0.19148 0.07772 0.0
O7 O 0.27644 0.17794 0.0959 0.0
O8 O 0.3009 0.231 0.06198 0.0
O9 O 0.23338 0.19358 0.058 0.0
C10 C 0.23196 0.21356 0.06313 0.0
O11 O 0.25098 0.23219 0.07456 0.0
O12 O 0.26755 0.16358 0.03776 0.0
Mg13 Mg 0.82099 0.08648 0.05792 0.0
C14 C 0.80586 0.03839 0.03335 0.0
O15 O 0.80081 0.05247 0.0193 0.0
C16 C 0.85278 0.12129 0.09873 0.0
O17 O 0.87238 0.13105 0.08447 0.0
C18 C 0.86106 0.13621 0.03241 0.0
O19 O 0.85369 0.14792 0.04701 0.0
O20 O 0.84989 0.11169 0.03267 0.0
O21 O 0.81565 0.04788 0.05274 0.0
O22 O 0.78174 0.08001 0.05463 0.0
C23 C 0.77387 0.09084 0.06869 0.0
O24 O 0.79096 0.10969 0.08143 0.0
O25 O 0.8315 0.10193 0.0926 0.0
Mg26 Mg 0.93427 0.7425 0.06362 0.0
C27 C 0.99338 0.7795 0.06537 0.0
O28 O 0.99295 0.76054 0.07703 0.0
C29 C 0.89256 0.7125 0.09538 0.0
O30 O 0.88712 0.69918 0.07634 0.0
C31 C 0.91026 0.76659 0.03688 0.0
O32 O 0.92648 0.78468 0.05076 0.0
O33 O 0.9091 0.74473 0.03745 0.0
O34 O 0.97204 0.77786 0.05952 0.0
O35 O 0.94241 0.71054 0.06245 0.0
C36 C 0.9481 0.70542 0.08205 0.0
O37 O 0.94761 0.7187 0.09969 0.0
O38 O 0.91257 0.7349 0.09569 0.0
Mg39 Mg 0.19458 0.27214 0.45325 0.0
C40 C 0.21362 0.241 0.4757 0.0
O41 O 0.22232 0.26215 0.48788 0.0
C42 C 0.19202 0.30376 0.41667 0.0
O43 O 0.20259 0.31916 0.43422 0.0
C44 C 0.15616 0.25523 0.49339 0.0
O45 O 0.1646 0.23901 0.49686 0.0
O46 O 0.16616 0.27182 0.47738 0.0
O47 O 0.19926 0.23824 0.45855 0.0
O48 O 0.23456 0.30346 0.45536 0.0
C49 C 0.24748 0.30015 0.43975 0.0
O50 O 0.2354 0.27985 0.42649 0.0
O51 O 0.18454 0.27986 0.41917 0.0
Mg52 Mg 0.74646 0.92733 0.44714 0.0
C53 C 0.77842 0.97643 0.47051 0.0
O54 O 0.75828 0.96305 0.48377 0.0
C55 C 0.74163 0.89008 0.40789 0.0
O56 O 0.75081 0.88039 0.42291 0.0
C57 C 0.73446 0.87798 0.47443 0.0
O58 O 0.7151 0.86652 0.46006 0.0
O59 O 0.74889 0.90236 0.47342 0.0
O60 O 0.77997 0.96601 0.45204 0.0
O61 O 0.71434 0.93483 0.44886 0.0
C62 C 0.71698 0.95045 0.43288 0.0
O63 O 0.73703 0.95854 0.41923 0.0
O64 O 0.74048 0.91013 0.41304 0.0
Mg65 Mg 0.086 0.81882 0.44645 0.0
C66 C 0.06577 0.7678 0.42959 0.0
O67 O 0.05863 0.7804 0.41573 0.0
C68 C 0.10852 0.86527 0.47585 0.0
O69 O 0.08963 0.86612 0.46514 0.0
C70 C 0.12878 0.84047 0.41277 0.0
O71 O 0.14072 0.84337 0.43232 0.0
O72 O 0.10451 0.832 0.41301 0.0
O73 O 0.07953 0.77971 0.44686 0.0
O74 O 0.04702 0.81303 0.45203 0.0
C75 C 0.03702 0.80111 0.47065 0.0
O76 O 0.05084 0.79462 0.48361 0.0
O77 O 0.11179 0.84611 0.47217 0.0
Mg78 Mg 0.74554 0.81931 0.94145 0.0
C79 C 0.77763 0.80284 0.96591 0.0
O80 O 0.75749 0.79653 0.97906 0.0
C81 C 0.7256 0.84096 0.90615 0.0
O82 O 0.71983 0.84849 0.92523 0.0
C83 C 0.77092 0.86809 0.96779 0.0
O84 O 0.79002 0.86842 0.95637 0.0
O85 O 0.7484 0.84855 0.96565 0.0
O86 O 0.77914 0.81422 0.94706 0.0
O87 O 0.71305 0.78033 0.94492 0.0
C88 C 0.7164 0.76538 0.93168 0.0
O89 O 0.73746 0.77521 0.91914 0.0
O90 O 0.73872 0.8295 0.90723 0.0
Mg91 Mg 0.19977 0.92499 0.94799 0.0
C92 C 0.25138 0.93556 0.93258 0.0
O93 O 0.24001 0.93606 0.91356 0.0
C94 C 0.16011 0.90707 0.98706 0.0
O95 O 0.16786 0.93181 0.9878 0.0
C96 C 0.18946 0.88488 0.91463 0.0
O97 O 0.19691 0.8784 0.93341 0.0
O98 O 0.18706 0.9049 0.91507 0.0
O99 O 0.23898 0.93092 0.95135 0.0
O100 O 0.20518 0.964 0.95174 0.0
C101 C 0.22011 0.97642 0.9683 0.0
O102 O 0.23016 0.965 0.98028 0.0
O103 O 0.17099 0.89913 0.9731 0.0
Mg104 Mg 0.08763 0.2779 0.94668 0.0
C105 C 0.02865 0.24547 0.94736 0.0
O106 O 0.031 0.26522 0.93555 0.0
C107 C 0.12716 0.29209 0.90926 0.0
O108 O 0.14129 0.2949 0.92739 0.0
C109 C 0.10647 0.25653 0.98512 0.0
O110 O 0.08144 0.24185 0.98807 0.0
O111 O 0.11463 0.27419 0.96994 0.0
O112 O 0.04896 0.24477 0.95272 0.0
O113 O 0.08236 0.31129 0.95139 0.0
C114 C 0.09351 0.33062 0.93801 0.0
O115 O 0.11145 0.33214 0.92408 0.0
O116 O 0.10294 0.28298 0.9118 0.0
Mg117 Mg 0.8138 0.73275 0.56212 0.0
C118 C 0.78824 0.7662 0.56124 0.0
O119 O 0.77073 0.74695 0.57344 0.0
C120 C 0.83931 0.71885 0.59962 0.0
O121 O 0.85039 0.71563 0.58153 0.0
C122 C 0.86448 0.75918 0.5384 0.0
O123 O 0.8645 0.77719 0.55121 0.0
O124 O 0.84447 0.73678 0.53872 0.0
O125 O 0.80883 0.76614 0.55569 0.0
O126 O 0.77489 0.69963 0.55777 0.0
C127 C 0.76644 0.68076 0.57171 0.0
O128 O 0.78272 0.67941 0.58594 0.0
O129 O 0.82434 0.72811 0.597 0.0
Mg130 Mg 0.27561 0.08255 0.56743 0.0
C131 C 0.33023 0.09189 0.57181 0.0
O132 O 0.3317 0.10919 0.58641 0.0
C133 C 0.27796 0.12283 0.531 0.0
O134 O 0.30155 0.12787 0.52632 0.0
C135 C 0.29098 0.12195 0.60469 0.0
O136 O 0.29255 0.1357 0.58662 0.0
O137 O 0.28239 0.09787 0.60227 0.0
O138 O 0.31016 0.08022 0.55934 0.0
O139 O 0.2442 0.04277 0.56321 0.0
C140 C 0.24361 0.03412 0.54321 0.0
O141 O 0.26107 0.04947 0.52837 0.0
O142 O 0.26489 0.10595 0.54608 0.0
Mg143 Mg 0.92983 0.19773 0.56238 0.0
C144 C 0.98838 0.22106 0.56609 0.0
O145 O 0.9867 0.24066 0.57414 0.0
C146 C 0.91485 0.19313 0.61418 0.0
O147 O 0.93978 0.20626 0.61827 0.0
C148 C 0.90848 0.14868 0.53669 0.0
O149 O 0.92534 0.14802 0.55069 0.0
O150 O 0.90603 0.16866 0.53679 0.0
O151 O 0.96766 0.20006 0.5618 0.0
O152 O 0.93856 0.23742 0.5567 0.0
C153 C 0.92667 0.24635 0.56818 0.0
O154 O 0.9063 0.23032 0.58013 0.0
O155 O 0.90693 0.18614 0.59385 0.0
Mg156 Mg 0.94545 0.52432 0.39205 0.0
C157 C 0.97432 0.57628 0.40642 0.0
O158 O 0.95588 0.5632 0.42135 0.0
C159 C 0.94658 0.48017 0.36724 0.0
O160 O 0.95871 0.48039 0.38604 0.0
C161 C 0.95 0.50911 0.44352 0.0
O162 O 0.92902 0.50991 0.44876 0.0
O163 O 0.95796 0.51285 0.42296 0.0
O164 O 0.97614 0.56427 0.38922 0.0
O165 O 0.91141 0.52928 0.39053 0.0
C166 C 0.90994 0.5371 0.37058 0.0
O167 O 0.92697 0.53919 0.35526 0.0
O168 O 0.94045 0.49753 0.36442 0.0
Mg169 Mg 0.48984 0.42149 0.39541 0.0
C170 C 0.47376 0.37295 0.37239 0.0
O171 O 0.46734 0.38662 0.35915 0.0
C172 C 0.49932 0.46145 0.42797 0.0
O173 O 0.49043 0.46644 0.40926 0.0
C174 C 0.5355 0.44226 0.36514 0.0
O175 O 0.53561 0.42298 0.37579 0.0
O176 O 0.51698 0.44652 0.36914 0.0
O177 O 0.48513 0.38294 0.39119 0.0
O178 O 0.44991 0.41322 0.39476 0.0
C179 C 0.43886 0.40115 0.41304 0.0
O180 O 0.45257 0.39642 0.4278 0.0
O181 O 0.50305 0.44224 0.42784 0.0
Mg182 Mg 0.59791 0.07535 0.39559 0.0
C183 C 0.64999 0.10464 0.37625 0.0
O184 O 0.63841 0.08281 0.36492 0.0
C185 C 0.55897 0.04492 0.42943 0.0
O186 O 0.55367 0.03049 0.4111 0.0
C187 C 0.57763 0.10149 0.36585 0.0
O188 O 0.5973 0.12063 0.37631 0.0
O189 O 0.57303 0.07862 0.36975 0.0
O190 O 0.63724 0.10845 0.39173 0.0
O191 O 0.60482 0.04278 0.39446 0.0
C192 C 0.6177 0.04365 0.41214 0.0
O193 O 0.62363 0.06233 0.42688 0.0
O194 O 0.57779 0.06803 0.42848 0.0
Mg195 Mg 0.8608 0.60513 0.77982 0.0
C196 C 0.88645 0.57518 0.7938 0.0
O197 O 0.90287 0.5987 0.80053 0.0
C198 C 0.85095 0.63483 0.74615 0.0
O199 O 0.85995 0.64929 0.76447 0.0
C200 C 0.82493 0.58724 0.82155 0.0
O201 O 0.83437 0.5717 0.8239 0.0
O202 O 0.83366 0.60406 0.80566 0.0
O203 O 0.86571 0.57105 0.78383 0.0
O204 O 0.90019 0.63797 0.78004 0.0
C205 C 0.91171 0.63855 0.76152 0.0
O206 O 0.89872 0.62087 0.74604 0.0
O207 O 0.84719 0.6119 0.74706 0.0
Mg208 Mg 0.41016 0.25802 0.78269 0.0
C209 C 0.44521 0.30518 0.8064 0.0
O210 O 0.42647 0.29096 0.82072 0.0
C211 C 0.37802 0.22011 0.74897 0.0
O212 O 0.36377 0.21552 0.76738 0.0
C213 C 0.43443 0.23278 0.80709 0.0
O214 O 0.45171 0.24812 0.79212 0.0
O215 O 0.41298 0.23252 0.80802 0.0
O216 O 0.44476 0.29598 0.78667 0.0
O217 O 0.37927 0.26727 0.78535 0.0
C218 C 0.38199 0.28273 0.7692 0.0
O219 O 0.4015 0.28983 0.75507 0.0
O220 O 0.40149 0.23822 0.74972 0.0
Mg221 Mg 0.75606 0.15711 0.77743 0.0
C222 C 0.74126 0.10582 0.7603 0.0
O223 O 0.73969 0.11854 0.74264 0.0
C224 C 0.78117 0.2055 0.80364 0.0
O225 O 0.76384 0.20712 0.791 0.0
C226 C 0.79691 0.18775 0.74059 0.0
O227 O 0.80915 0.20324 0.75771 0.0
O228 O 0.77389 0.16933 0.74354 0.0
O229 O 0.74919 0.11763 0.77927 0.0
O230 O 0.71814 0.15376 0.78414 0.0
C231 C 0.69663 0.13414 0.7787 0.0
O232 O 0.69667 0.1161 0.76601 0.0
O233 O 0.78272 0.18506 0.80231 0.0
Mg234 Mg 0.41169 0.15579 0.27553 0.0
C235 C 0.44603 0.14239 0.29999 0.0
O236 O 0.42769 0.13865 0.31451 0.0
C237 C 0.39036 0.17694 0.24074 0.0
O238 O 0.38349 0.18326 0.2599 0.0
C239 C 0.43712 0.20415 0.30222 0.0
O240 O 0.45579 0.20496 0.28972 0.0
O241 O 0.41466 0.1844 0.30059 0.0
O242 O 0.44547 0.15091 0.28015 0.0
O243 O 0.37983 0.11629 0.27804 0.0
C244 C 0.38077 0.10392 0.26072 0.0
O245 O 0.39919 0.11644 0.24563 0.0
O246 O 0.4047 0.1668 0.2417 0.0
Mg247 Mg 0.86204 0.2606 0.27218 0.0
C248 C 0.9171 0.28609 0.26812 0.0
O249 O 0.90882 0.29787 0.25447 0.0
C250 C 0.82787 0.22804 0.3142 0.0
O251 O 0.84954 0.23616 0.32555 0.0
C252 C 0.85836 0.2226 0.2393 0.0
O253 O 0.86338 0.21575 0.25913 0.0
O254 O 0.85562 0.2424 0.23861 0.0
O255 O 0.90061 0.26724 0.28013 0.0
O256 O 0.86752 0.29965 0.27416 0.0
C257 C 0.86216 0.30629 0.29313 0.0
O258 O 0.85055 0.28862 0.30897 0.0
O259 O 0.82869 0.23483 0.29345 0.0
Mg260 Mg 0.75733 0.60502 0.27721 0.0
C261 C 0.70835 0.57293 0.30081 0.0
O262 O 0.72368 0.58979 0.316 0.0
C263 C 0.79676 0.6195 0.23908 0.0
O264 O 0.81096 0.61993 0.25638 0.0
C265 C 0.80074 0.60964 0.31091 0.0
O266 O 0.81098 0.63473 0.30891 0.0
O267 O 0.77989 0.59485 0.30033 0.0
O268 O 0.71732 0.57383 0.28086 0.0
O269 O 0.75405 0.63915 0.28405 0.0
C270 C 0.76557 0.65868 0.27095 0.0
O271 O 0.78402 0.66043 0.25756 0.0
O272 O 0.77289 0.61169 0.2424 0.0
Mg273 Mg 0.49158 0.07088 0.90062 0.0
C274 C 0.47026 0.10057 0.87894 0.0
O275 O 0.46133 0.07925 0.86699 0.0
C276 C 0.51604 0.05406 0.93651 0.0
O277 O 0.52527 0.04972 0.91772 0.0
C278 C 0.53191 0.0934 0.86225 0.0
O279 O 0.52341 0.10982 0.86134 0.0
O280 O 0.52143 0.07459 0.87628 0.0
O281 O 0.48507 0.10367 0.89581 0.0
O282 O 0.45272 0.03807 0.89591 0.0
C283 C 0.44276 0.01877 0.90938 0.0
O284 O 0.45755 0.016 0.92439 0.0
O285 O 0.50236 0.06489 0.93495 0.0
Mg286 Mg 0.94724 0.42224 0.89742 0.0
C287 C 1.00056 0.42879 0.90518 0.0
O288 O 1.00179 0.44585 0.91995 0.0
C289 C 0.93356 0.44624 0.85584 0.0
O290 O 0.9298 0.42559 0.84476 0.0
C291 C 0.96091 0.45983 0.93609 0.0
O292 O 0.96323 0.47448 0.91849 0.0
O293 O 0.95229 0.43585 0.9328 0.0
O294 O 0.98138 0.41834 0.89158 0.0
O295 O 0.91469 0.38334 0.89122 0.0
C296 C 0.91767 0.37201 0.87404 0.0
O297 O 0.9393 0.38419 0.86236 0.0
O298 O 0.94171 0.44963 0.87637 0.0
Mg299 Mg 0.59944 0.52284 0.90171 0.0
C300 C 0.65885 0.54755 0.90155 0.0
O301 O 0.65773 0.5659 0.91284 0.0
C302 C 0.55681 0.50045 0.93604 0.0
O303 O 0.54409 0.4967 0.9168 0.0
C304 C 0.57768 0.47566 0.87329 0.0
O305 O 0.59677 0.47554 0.88433 0.0
O306 O 0.57381 0.49454 0.87646 0.0
O307 O 0.63788 0.52716 0.89639 0.0
O308 O 0.60517 0.56191 0.89957 0.0
C309 C 0.61037 0.57338 0.91881 0.0
O310 O 0.61035 0.56057 0.93705 0.0
O311 O 0.58113 0.50934 0.9352 0.0
Mg312 Mg 0.60619 0.8617 0.72997 0.0
C313 C 0.64253 0.91291 0.74752 0.0
O314 O 0.62827 0.90001 0.76513 0.0
C315 C 0.58244 0.81427 0.70228 0.0
O316 O 0.56333 0.81282 0.71455 0.0
C317 C 0.63688 0.85223 0.76269 0.0
O318 O 0.65089 0.86142 0.74409 0.0
O319 O 0.61378 0.84819 0.76242 0.0
O320 O 0.63845 0.90138 0.72837 0.0
O321 O 0.57096 0.86451 0.72496 0.0
C322 C 0.56952 0.88446 0.7301 0.0
O323 O 0.5885 0.90313 0.74154 0.0
O324 O 0.60464 0.83434 0.70427 0.0
Mg325 Mg 0.15741 0.75112 0.73109 0.0
C326 C 0.14308 0.70409 0.70501 0.0
O327 O 0.13793 0.7186 0.69162 0.0
C328 C 0.18066 0.79133 0.7679 0.0
O329 O 0.18994 0.80567 0.74951 0.0
C330 C 0.20787 0.77871 0.7076 0.0
O331 O 0.21025 0.76291 0.72171 0.0
O332 O 0.18634 0.77829 0.70701 0.0
O333 O 0.15289 0.71295 0.72456 0.0
O334 O 0.11808 0.74408 0.72839 0.0
C335 C 0.10393 0.72665 0.7427 0.0
O336 O 0.11472 0.71658 0.75553 0.0
O337 O 0.16769 0.76691 0.7657 0.0
Mg338 Mg 0.26208 0.40681 0.72891 0.0
C339 C 0.31411 0.43705 0.70905 0.0
O340 O 0.30331 0.41474 0.69846 0.0
C341 C 0.22375 0.37655 0.76317 0.0
O342 O 0.21852 0.36201 0.74492 0.0
C343 C 0.24204 0.42332 0.68746 0.0
O344 O 0.2668 0.43944 0.68448 0.0
O345 O 0.23493 0.4068 0.70357 0.0
O346 O 0.3008 0.44079 0.72403 0.0
O347 O 0.27019 0.375 0.7286 0.0
C348 C 0.28348 0.37663 0.74621 0.0
O349 O 0.28937 0.39566 0.76054 0.0
O350 O 0.24243 0.39973 0.76207 0.0
Mg351 Mg 0.53638 0.94033 0.11825 0.0
C352 C 0.53955 0.89742 0.14154 0.0
O353 O 0.53138 0.90653 0.15796 0.0
C354 C 0.53117 0.97189 0.08289 0.0
O355 O 0.53978 0.98656 0.10112 0.0
C356 C 0.4847 0.91341 0.14068 0.0
O357 O 0.48375 0.89625 0.12614 0.0
O358 O 0.50545 0.93516 0.14181 0.0
O359 O 0.54241 0.90705 0.12158 0.0
O360 O 0.57443 0.97457 0.12299 0.0
C361 C 0.59446 0.97242 0.12543 0.0
O362 O 0.59157 0.94949 0.12918 0.0
O363 O 0.52634 0.94863 0.08443 0.0
Mg364 Mg 0.07843 0.58991 0.11689 0.0
C365 C 0.11022 0.6396 0.13926 0.0
O366 O 0.08896 0.62733 0.15144 0.0
C367 C 0.04725 0.55276 0.0825 0.0
O368 O 0.033 0.54731 0.10102 0.0
C369 C 0.09786 0.5698 0.1558 0.0
O370 O 0.11573 0.59425 0.15647 0.0
O371 O 0.07917 0.56264 0.14178 0.0
O372 O 0.11265 0.6282 0.12183 0.0
O373 O 0.04693 0.59842 0.11881 0.0
C374 C 0.05105 0.61628 0.10466 0.0
O375 O 0.07223 0.62622 0.09228 0.0
O376 O 0.07056 0.57122 0.08342 0.0
Mg377 Mg 0.42269 0.48721 0.115 0.0
C378 C 0.40508 0.4351 0.09786 0.0
O379 O 0.40495 0.4484 0.08003 0.0
C380 C 0.46703 0.53562 0.13494 0.0
O381 O 0.4713 0.53993 0.11294 0.0
C382 C 0.46107 0.49274 0.08126 0.0
O383 O 0.46509 0.48238 0.09949 0.0
O384 O 0.44359 0.49906 0.08222 0.0
O385 O 0.41287 0.44666 0.11697 0.0
O386 O 0.3853 0.48597 0.11964 0.0
C387 C 0.36367 0.46711 0.11326 0.0
O388 O 0.36352 0.44906 0.10047 0.0
O389 O 0.44827 0.51401 0.14148 0.0
Mg390 Mg 0.07675 0.48368 0.61056 0.0
C391 C 0.11102 0.45896 0.61097 0.0
O392 O 0.09059 0.44003 0.60113 0.0
C393 C 0.06228 0.5094 0.57317 0.0
O394 O 0.06334 0.52366 0.59062 0.0
C395 C 0.10331 0.53343 0.63586 0.0
O396 O 0.12205 0.53334 0.62417 0.0
O397 O 0.08064 0.51398 0.63416 0.0
O398 O 0.11118 0.4799 0.61527 0.0
O399 O 0.0443 0.44478 0.61621 0.0
C400 C 0.02424 0.43658 0.60374 0.0
O401 O 0.02166 0.45309 0.59079 0.0
O402 O 0.06943 0.49277 0.57597 0.0
Mg403 Mg 0.53006 0.59615 0.61049 0.0
C404 C 0.57553 0.58724 0.60547 0.0
O405 O 0.55946 0.56968 0.59116 0.0
C406 C 0.49384 0.56302 0.6514 0.0
O407 O 0.51499 0.57006 0.66325 0.0
C408 C 0.50665 0.55828 0.57195 0.0
O409 O 0.4933 0.54404 0.58941 0.0
O410 O 0.52254 0.58213 0.5752 0.0
O411 O 0.56722 0.59884 0.61813 0.0
O412 O 0.53774 0.63563 0.6156 0.0
C413 C 0.54768 0.64498 0.63499 0.0
O414 O 0.55185 0.63041 0.64919 0.0
O415 O 0.49561 0.57062 0.6308 0.0
Mg416 Mg 0.4239 0.94697 0.61317 0.0
C417 C 0.3731 0.91701 0.63573 0.0
O418 O 0.38497 0.93864 0.64733 0.0
C419 C 0.46347 0.96068 0.57588 0.0
O420 O 0.47772 0.96402 0.59405 0.0
C421 C 0.44289 0.92491 0.65099 0.0
O422 O 0.41799 0.90858 0.65251 0.0
O423 O 0.45081 0.9436 0.63687 0.0
O424 O 0.38491 0.91411 0.61886 0.0
O425 O 0.41873 0.98057 0.61704 0.0
C426 C 0.42889 0.99923 0.60287 0.0
O427 O 0.44603 1.00023 0.58825 0.0
O428 O 0.43923 0.95139 0.57842 0.0
Mg429 Mg 0.15959 0.40621 0.23425 0.0
C430 C 0.1357 0.4415 0.2344 0.0
O431 O 0.11759 0.42248 0.24635 0.0
C432 C 0.18172 0.38584 0.2686 0.0
O433 O 0.18422 0.37582 0.24947 0.0
C434 C 0.19725 0.42573 0.19401 0.0
O435 O 0.18821 0.44168 0.19249 0.0
O436 O 0.1876 0.40776 0.20889 0.0
O437 O 0.15582 0.44054 0.22879 0.0
O438 O 0.11992 0.3734 0.23314 0.0
C439 C 0.10892 0.36703 0.25264 0.0
O440 O 0.1224 0.37933 0.27074 0.0
O441 O 0.17363 0.4019 0.26764 0.0
Mg442 Mg 0.61768 0.75028 0.23156 0.0
C443 C 0.64954 0.72494 0.21981 0.0
O444 O 0.62667 0.70553 0.21464 0.0
C445 C 0.61633 0.79674 0.21023 0.0
O446 O 0.63072 0.80852 0.22806 0.0
C447 C 0.6522 0.78774 0.26568 0.0
O448 O 0.66635 0.79255 0.24719 0.0
O449 O 0.62854 0.77 0.26481 0.0
O450 O 0.65166 0.74665 0.22456 0.0
O451 O 0.58531 0.71032 0.23109 0.0
C452 C 0.5664 0.70386 0.2175 0.0
O453 O 0.56481 0.72206 0.2063 0.0
O454 O 0.60927 0.77309 0.20696 0.0
Mg455 Mg 0.26544 0.85804 0.23361 0.0
C456 C 0.31372 0.87299 0.21015 0.0
O457 O 0.29975 0.87874 0.19661 0.0
C458 C 0.22978 0.85584 0.26886 0.0
O459 O 0.22616 0.86717 0.25115 0.0
C460 C 0.24262 0.80927 0.20776 0.0
O461 O 0.26036 0.80872 0.22064 0.0
O462 O 0.23991 0.82907 0.20881 0.0
O463 O 0.30396 0.86232 0.22928 0.0
O464 O 0.27406 0.89778 0.22957 0.0
C465 C 0.28987 0.91138 0.24517 0.0
O466 O 0.29776 0.89994 0.25964 0.0
O467 O 0.24606 0.84802 0.26704 0.0
C468 C 0.33932 0.19475 0.11932 0.0
C469 C 0.31225 0.18062 0.11765 0.0
C470 C 0.35215 0.19414 0.13918 0.0
C471 C 0.33768 0.17858 0.15783 0.0
C472 C 0.31034 0.16398 0.15622 0.0
C473 C 0.2979 0.16541 0.13623 0.0
C474 C 0.38123 0.21049 0.14029 0.0
C475 C 0.29426 0.14681 0.1756 0.0
C476 C 0.37473 0.16143 0.20094 0.0
C477 C 0.37849 0.17842 0.21891 0.0
C478 C 0.361 0.16087 0.18118 0.0
C479 C 0.35132 0.17812 0.17911 0.0
C480 C 0.35561 0.19571 0.19701 0.0
C481 C 0.36885 0.19543 0.21677 0.0
C482 C 0.35654 0.14156 0.16266 0.0
C483 C 0.34627 0.2149 0.19528 0.0
H484 H 0.35061 0.2068 0.10516 0.0
H485 H 0.27702 0.15441 0.13504 0.0
H486 H 0.38689 0.22407 0.15486 0.0
H487 H 0.38989 0.19811 0.14325 0.0
H488 H 0.38961 0.2218 0.12439 0.0
H489 H 0.27334 0.13596 0.17139 0.0
H490 H 0.3007 0.13283 0.17989 0.0
H491 H 0.29699 0.15855 0.19109 0.0
H492 H 0.38178 0.14796 0.20262 0.0
H493 H 0.37168 0.2086 0.2306 0.0
H494 H 0.36568 0.15176 0.14651 0.0
H495 H 0.33554 0.12937 0.15934 0.0
H496 H 0.36449 0.12885 0.16721 0.0
H497 H 0.35476 0.22725 0.17995 0.0
H498 H 0.35143 0.2275 0.21056 0.0
H499 H 0.32498 0.20463 0.19319 0.0
C500 C 0.83153 0.12766 0.13315 0.0
C501 C 0.85399 0.13513 0.1202 0.0
C502 C 0.83173 0.14199 0.15222 0.0
C503 C 0.85499 0.16426 0.15873 0.0
C504 C 0.87782 0.17167 0.14599 0.0
C505 C 0.87703 0.15708 0.12687 0.0
C506 C 0.80696 0.1334 0.16531 0.0
C507 C 0.90308 0.19513 0.15248 0.0
C508 C 0.85169 0.21426 0.1969 0.0
C509 C 0.85698 0.20774 0.21847 0.0
C510 C 0.8509 0.20026 0.17728 0.0
C511 C 0.85561 0.17933 0.17928 0.0
C512 C 0.86091 0.17269 0.20101 0.0
C513 C 0.86148 0.18689 0.22026 0.0
C514 C 0.84507 0.20786 0.15441 0.0
C515 C 0.8661 0.15059 0.20394 0.0
H516 H 0.81356 0.11085 0.12811 0.0
H517 H 0.89447 0.16309 0.11698 0.0
H518 H 0.80939 0.12914 0.18329 0.0
H519 H 0.80223 0.14913 0.16561 0.0
H520 H 0.79038 0.11596 0.15778 0.0
H521 H 0.9191 0.19833 0.14084 0.0
H522 H 0.90097 0.21252 0.15216 0.0
H523 H 0.90843 0.19299 0.17017 0.0
H524 H 0.8482 0.23032 0.19532 0.0
H525 H 0.86564 0.18165 0.2368 0.0
H526 H 0.82772 0.19129 0.1468 0.0
H527 H 0.86139 0.21309 0.14248 0.0
H528 H 0.84164 0.22443 0.15572 0.0
H529 H 0.84928 0.13241 0.19786 0.0
H530 H 0.86999 0.14793 0.22201 0.0
H531 H 0.88297 0.15401 0.19342 0.0
C532 C 0.83403 0.63595 0.21187 0.0
C533 C 0.80941 0.632 0.21717 0.0
C534 C 0.84727 0.64962 0.19216 0.0
C535 C 0.83585 0.66005 0.17756 0.0
C536 C 0.81099 0.65614 0.18284 0.0
C537 C 0.79797 0.64196 0.20244 0.0
C538 C 0.87349 0.65287 0.18695 0.0
C539 C 0.79827 0.66721 0.16791 0.0
C540 C 0.88117 0.71359 0.13677 0.0
C541 C 0.87723 0.69995 0.11632 0.0
C542 C 0.86737 0.70103 0.15674 0.0
C543 C 0.84955 0.67414 0.15632 0.0
C544 C 0.84537 0.6604 0.13566 0.0
C545 C 0.85906 0.67346 0.11596 0.0
C546 C 0.87209 0.71644 0.17836 0.0
C547 C 0.82686 0.6317 0.13445 0.0
H548 H 0.84301 0.62837 0.22318 0.0
H549 H 0.77912 0.63935 0.20659 0.0
H550 H 0.87318 0.64449 0.16998 0.0
H551 H 0.88818 0.67366 0.18616 0.0
H552 H 0.87964 0.64347 0.19995 0.0
H553 H 0.77928 0.66322 0.17478 0.0
H554 H 0.81101 0.68838 0.1663 0.0
H555 H 0.79533 0.65899 0.15047 0.0
H556 H 0.89511 0.73403 0.13722 0.0
H557 H 0.85588 0.66262 0.10032 0.0
H558 H 0.88049 0.70951 0.19158 0.0
H559 H 0.85353 0.71364 0.1852 0.0
H560 H 0.88541 0.73738 0.17559 0.0
H561 H 0.83323 0.62149 0.14632 0.0
H562 H 0.82548 0.6239 0.11698 0.0
H563 H 0.80729 0.62726 0.13996 0.0
C564 C 0.17237 0.30023 0.37774 0.0
C565 C 0.19054 0.31501 0.39448 0.0
C566 C 0.17056 0.31165 0.35724 0.0
C567 C 0.18771 0.33828 0.35321 0.0
C568 C 0.20643 0.35306 0.36988 0.0
C569 C 0.20743 0.34133 0.39032 0.0
C570 C 0.15008 0.29532 0.34003 0.0
C571 C 0.22551 0.38132 0.36612 0.0
C572 C 0.19942 0.36316 0.29194 0.0
C573 C 0.1847 0.37549 0.29075 0.0
C574 C 0.20065 0.35109 0.31215 0.0
C575 C 0.18636 0.35082 0.33155 0.0
C576 C 0.17151 0.36331 0.33047 0.0
C577 C 0.17108 0.37574 0.31017 0.0
C578 C 0.21725 0.33862 0.31271 0.0
C579 C 0.15574 0.3632 0.35067 0.0
H580 H 0.15921 0.27993 0.3809 0.0
H581 H 0.22173 0.35286 0.40306 0.0
H582 H 0.13736 0.30358 0.3368 0.0
H583 H 0.15922 0.29539 0.32352 0.0
H584 H 0.13797 0.27505 0.34584 0.0
H585 H 0.23934 0.38992 0.38051 0.0
H586 H 0.23661 0.3839 0.35018 0.0
H587 H 0.21507 0.39217 0.36399 0.0
H588 H 0.20999 0.36289 0.27699 0.0
H589 H 0.15938 0.3849 0.30928 0.0
H590 H 0.20515 0.31775 0.31651 0.0
H591 H 0.23179 0.34722 0.32656 0.0
H592 H 0.22751 0.34088 0.2963 0.0
H593 H 0.14204 0.34305 0.35589 0.0
H594 H 0.1446 0.37308 0.34687 0.0
H595 H 0.16858 0.37287 0.36544 0.0
C596 C 0.69044 0.82223 0.28635 0.0
C597 C 0.66432 0.80281 0.28679 0.0
C598 C 0.7029 0.83653 0.30592 0.0
C599 C 0.68902 0.83143 0.32665 0.0
C600 C 0.66259 0.812 0.32728 0.0
C601 C 0.65053 0.7979 0.30734 0.0
C602 C 0.73106 0.85704 0.30442 0.0
C603 C 0.64711 0.80602 0.34906 0.0
C604 C 0.72864 0.85249 0.38152 0.0
C605 C 0.72934 0.87577 0.38649 0.0
C606 C 0.71535 0.83775 0.36229 0.0
C607 C 0.70239 0.84642 0.34761 0.0
C608 C 0.70317 0.86998 0.35242 0.0
C609 C 0.71663 0.88437 0.37173 0.0
C610 C 0.71518 0.81284 0.3577 0.0
C611 C 0.68972 0.88 0.33717 0.0
H612 H 0.70136 0.82627 0.27061 0.0
H613 H 0.63039 0.78296 0.30788 0.0
H614 H 0.73354 0.876 0.30947 0.0
H615 H 0.74259 0.85252 0.31649 0.0
H616 H 0.73907 0.8588 0.28696 0.0
H617 H 0.62671 0.7906 0.3467 0.0
H618 H 0.65598 0.79984 0.36249 0.0
H619 H 0.64738 0.82362 0.35538 0.0
H620 H 0.73825 0.84558 0.39281 0.0
H621 H 0.71689 0.90223 0.37543 0.0
H622 H 0.7241 0.81385 0.34083 0.0
H623 H 0.69499 0.7966 0.357 0.0
H624 H 0.7258 0.80853 0.37095 0.0
H625 H 0.69784 0.88318 0.31965 0.0
H626 H 0.69169 0.89838 0.3435 0.0
H627 H 0.66887 0.86551 0.33592 0.0
C628 C 0.1702 0.85897 0.3909 0.0
C629 C 0.14314 0.844 0.3911 0.0
C630 C 0.18455 0.86082 0.37125 0.0
C631 C 0.17161 0.84696 0.35135 0.0
C632 C 0.14426 0.8319 0.3514 0.0
C633 C 0.13033 0.83079 0.3712 0.0
C634 C 0.21359 0.8776 0.37181 0.0
C635 C 0.12973 0.81661 0.33064 0.0
C636 C 0.20549 0.86997 0.29401 0.0
C637 C 0.21557 0.85349 0.29039 0.0
C638 C 0.19138 0.86814 0.31377 0.0
C639 C 0.18669 0.849 0.33028 0.0
C640 C 0.19676 0.83222 0.32677 0.0
C641 C 0.21134 0.83485 0.30696 0.0
C642 C 0.18159 0.88683 0.31702 0.0
C643 C 0.19189 0.81133 0.34382 0.0
H644 H 0.18025 0.86925 0.40621 0.0
H645 H 0.10946 0.81892 0.37132 0.0
H646 H 0.22278 0.86577 0.3684 0.0
H647 H 0.22004 0.89244 0.35817 0.0
H648 H 0.22069 0.88744 0.3885 0.0
H649 H 0.10854 0.80535 0.33358 0.0
H650 H 0.13356 0.82977 0.31594 0.0
H651 H 0.1366 0.80313 0.32578 0.0
H652 H 0.20886 0.88462 0.2814 0.0
H653 H 0.21894 0.82198 0.30421 0.0
H654 H 0.18922 0.89761 0.33321 0.0
H655 H 0.16022 0.87616 0.31834 0.0
H656 H 0.1873 0.90091 0.30276 0.0
H657 H 0.20005 0.82002 0.36067 0.0
H658 H 0.20051 0.79949 0.33838 0.0
H659 H 0.17079 0.79848 0.34619 0.0
C660 C 0.63458 0.83432 0.80227 0.0
C661 C 0.6492 0.84943 0.78374 0.0
C662 C 0.64675 0.83197 0.82205 0.0
C663 C 0.67412 0.8455 0.8235 0.0
C664 C 0.68887 0.86089 0.80488 0.0
C665 C 0.67628 0.86245 0.78523 0.0
C666 C 0.63034 0.81502 0.8414 0.0
C667 C 0.71803 0.87612 0.80584 0.0
C668 C 0.70558 0.86103 0.88229 0.0
C669 C 0.71407 0.84307 0.88435 0.0
C670 C 0.69263 0.86203 0.86262 0.0
C671 C 0.6875 0.84428 0.84467 0.0
C672 C 0.69605 0.82611 0.84661 0.0
C673 C 0.70947 0.8259 0.86632 0.0
C674 C 0.68448 0.88216 0.86103 0.0
C675 C 0.69069 0.80664 0.82801 0.0
H676 H 0.61368 0.82415 0.80121 0.0
H677 H 0.68779 0.87439 0.77111 0.0
H678 H 0.63602 0.80043 0.84555 0.0
H679 H 0.6336 0.82681 0.85696 0.0
H680 H 0.60941 0.8049 0.83726 0.0
H681 H 0.72668 0.88725 0.78991 0.0
H682 H 0.72435 0.88976 0.82041 0.0
H683 H 0.72583 0.86297 0.80873 0.0
H684 H 0.70907 0.87437 0.89615 0.0
H685 H 0.71565 0.81174 0.86792 0.0
H686 H 0.66321 0.87269 0.85903 0.0
H687 H 0.6933 0.89442 0.84572 0.0
H688 H 0.6902 0.89475 0.87635 0.0
H689 H 0.66959 0.79513 0.82481 0.0
H690 H 0.69791 0.79329 0.8324 0.0
H691 H 0.69994 0.81669 0.81183 0.0
C692 C 0.1984 0.85497 0.89185 0.0
C693 C 0.18704 0.8706 0.89316 0.0
C694 C 0.19731 0.84171 0.87176 0.0
C695 C 0.1841 0.84364 0.85246 0.0
C696 C 0.17225 0.85909 0.85372 0.0
C697 C 0.1741 0.87263 0.87398 0.0
C698 C 0.21071 0.82597 0.87107 0.0
C699 C 0.15764 0.86133 0.83363 0.0
C700 C 0.20186 0.82952 0.79385 0.0
C701 C 0.18248 0.80387 0.79023 0.0
C702 C 0.20269 0.84259 0.81404 0.0
C703 C 0.18333 0.82994 0.83088 0.0
C704 C 0.16374 0.804 0.82736 0.0
C705 C 0.16372 0.79118 0.8072 0.0
C706 C 0.2243 0.86998 0.81733 0.0
C707 C 0.14255 0.78992 0.84472 0.0
H708 H 0.20869 0.85345 0.90648 0.0
H709 H 0.16525 0.8846 0.87487 0.0
H710 H 0.19661 0.8056 0.86698 0.0
H711 H 0.22554 0.83332 0.85738 0.0
H712 H 0.22024 0.82651 0.88753 0.0
H713 H 0.1486 0.8732 0.83762 0.0
H714 H 0.1709 0.87014 0.81891 0.0
H715 H 0.14231 0.84187 0.82824 0.0
H716 H 0.21642 0.83944 0.78081 0.0
H717 H 0.14848 0.77149 0.80439 0.0
H718 H 0.23501 0.87144 0.83327 0.0
H719 H 0.21624 0.88304 0.81919 0.0
H720 H 0.23817 0.87689 0.80283 0.0
H721 H 0.15097 0.78888 0.8613 0.0
H722 H 0.12839 0.77002 0.83921 0.0
H723 H 0.13213 0.80067 0.84769 0.0
C724 C 0.12799 0.31011 0.87023 0.0
C725 C 0.14011 0.30313 0.88706 0.0
C726 C 0.14121 0.323 0.85018 0.0
C727 C 0.16702 0.32868 0.8467 0.0
C728 C 0.17914 0.32123 0.86345 0.0
C729 C 0.16563 0.30875 0.88346 0.0
C730 C 0.12766 0.33081 0.83285 0.0
C731 C 0.20641 0.32641 0.86026 0.0
C732 C 0.19276 0.33812 0.78595 0.0
C733 C 0.20898 0.36498 0.78458 0.0
C734 C 0.17896 0.32619 0.80594 0.0
C735 C 0.18104 0.34144 0.82513 0.0
C736 C 0.19707 0.36863 0.82383 0.0
C737 C 0.21102 0.38008 0.80362 0.0
C738 C 0.16247 0.29716 0.80662 0.0
C739 C 0.19956 0.38558 0.84384 0.0
H740 H 0.10841 0.30617 0.87299 0.0
H741 H 0.17515 0.30344 0.89637 0.0
H742 H 0.13895 0.35193 0.82993 0.0
H743 H 0.12639 0.32134 0.81625 0.0
H744 H 0.10784 0.32561 0.83836 0.0
H745 H 0.21305 0.31933 0.87486 0.0
H746 H 0.20768 0.31694 0.84442 0.0
H747 H 0.21983 0.34741 0.85824 0.0
H748 H 0.1911 0.32618 0.77143 0.0
H749 H 0.22342 0.40082 0.80271 0.0
H750 H 0.14219 0.29148 0.81074 0.0
H751 H 0.16944 0.28928 0.82031 0.0
H752 H 0.16274 0.28808 0.79017 0.0
H753 H 0.18018 0.38193 0.84914 0.0
H754 H 0.21188 0.4064 0.83982 0.0
H755 H 0.20804 0.38083 0.85864 0.0
C756 C 0.86116 0.70251 0.62573 0.0
C757 C 0.8412 0.70799 0.62192 0.0
C758 C 0.86213 0.69014 0.64583 0.0
C759 C 0.8424 0.68261 0.66245 0.0
C760 C 0.82221 0.68815 0.65874 0.0
C761 C 0.82197 0.70097 0.63863 0.0
C762 C 0.8843 0.68512 0.64928 0.0
C763 C 0.80068 0.68023 0.6759 0.0
C764 C 0.83491 0.63127 0.70562 0.0
C765 C 0.84769 0.64636 0.72474 0.0
C766 C 0.83252 0.6427 0.68535 0.0
C767 C 0.84354 0.66987 0.68408 0.0
C768 C 0.85641 0.68511 0.70335 0.0
C769 C 0.85814 0.6732 0.72341 0.0
C770 C 0.81835 0.62575 0.66526 0.0
C771 C 0.86882 0.71413 0.70268 0.0
H772 H 0.87608 0.70785 0.61291 0.0
H773 H 0.80628 0.70479 0.63569 0.0
H774 H 0.89482 0.69457 0.6652 0.0
H775 H 0.87683 0.66414 0.65125 0.0
H776 H 0.8982 0.69234 0.63481 0.0
H777 H 0.78604 0.68534 0.67024 0.0
H778 H 0.79092 0.65911 0.67882 0.0
H779 H 0.80869 0.68971 0.69254 0.0
H780 H 0.82674 0.61055 0.7065 0.0
H781 H 0.86822 0.68513 0.73799 0.0
H782 H 0.83176 0.63055 0.6506 0.0
H783 H 0.80263 0.62933 0.65975 0.0
H784 H 0.80987 0.60493 0.66929 0.0
H785 H 0.8838 0.7221 0.68913 0.0
H786 H 0.87796 0.72322 0.7192 0.0
H787 H 0.85419 0.71972 0.69838 0.0
C788 C 0.38084 0.20677 0.70866 0.0
C789 C 0.36601 0.20509 0.72785 0.0
C790 C 0.36904 0.19261 0.68869 0.0
C791 C 0.34178 0.17669 0.68782 0.0
C792 C 0.3268 0.17493 0.70717 0.0
C793 C 0.33907 0.18898 0.7269 0.0
C794 C 0.3857 0.19479 0.66848 0.0
C795 C 0.2977 0.1585 0.70692 0.0
C796 C 0.30819 0.16068 0.63 0.0
C797 C 0.30256 0.13518 0.6266 0.0
C798 C 0.32099 0.17438 0.64977 0.0
C799 C 0.32869 0.16246 0.66651 0.0
C800 C 0.32299 0.13668 0.66324 0.0
C801 C 0.30983 0.12329 0.6434 0.0
C802 C 0.32626 0.20165 0.65274 0.0
C803 C 0.33102 0.12334 0.68059 0.0
H804 H 0.40164 0.21909 0.70925 0.0
H805 H 0.32736 0.18758 0.74156 0.0
H806 H 0.38193 0.17537 0.66337 0.0
H807 H 0.38073 0.20307 0.65367 0.0
H808 H 0.40663 0.20711 0.67218 0.0
H809 H 0.28886 0.15897 0.72348 0.0
H810 H 0.28961 0.16531 0.69329 0.0
H811 H 0.29192 0.13821 0.70297 0.0
H812 H 0.30265 0.17003 0.61711 0.0
H813 H 0.30585 0.10372 0.6408 0.0
H814 H 0.34733 0.21504 0.6545 0.0
H815 H 0.31695 0.2031 0.66864 0.0
H816 H 0.31901 0.20814 0.63816 0.0
H817 H 0.35223 0.13462 0.68323 0.0
H818 H 0.3257 0.10348 0.67528 0.0
H819 H 0.32177 0.1223 0.69728 0.0
C820 C 0.87303 0.18964 0.62623 0.0
C821 C 0.89607 0.1902 0.63221 0.0
C822 C 0.85604 0.18934 0.643 0.0
C823 C 0.8617 0.18865 0.66639 0.0
C824 C 0.88453 0.18834 0.67253 0.0
C825 C 0.90167 0.1896 0.65538 0.0
C826 C 0.8324 0.19051 0.63568 0.0
C827 C 0.89091 0.1868 0.69723 0.0
C828 C 0.8327 0.21165 0.71242 0.0
C829 C 0.81163 0.1884 0.71995 0.0
C830 C 0.84862 0.21209 0.69449 0.0
C831 C 0.84395 0.18862 0.68443 0.0
C832 C 0.82253 0.1651 0.69186 0.0
C833 C 0.80641 0.16533 0.70926 0.0
C834 C 0.87067 0.23766 0.68656 0.0
C835 C 0.81724 0.1396 0.68208 0.0
H836 H 0.86868 0.1904 0.60837 0.0
H837 H 0.9194 0.18998 0.6601 0.0
H838 H 0.81468 0.17347 0.64223 0.0
H839 H 0.833 0.20786 0.6431 0.0
H840 H 0.83088 0.19123 0.61681 0.0
H841 H 0.90846 0.18502 0.69909 0.0
H842 H 0.89409 0.20431 0.70645 0.0
H843 H 0.87445 0.16999 0.70563 0.0
H844 H 0.83683 0.22951 0.72067 0.0
H845 H 0.79042 0.14724 0.71528 0.0
H846 H 0.86974 0.23956 0.66777 0.0
H847 H 0.88934 0.23871 0.69045 0.0
H848 H 0.87048 0.25424 0.69488 0.0
H849 H 0.81471 0.13941 0.66331 0.0
H850 H 0.79972 0.12305 0.6896 0.0
H851 H 0.83402 0.13685 0.68531 0.0
C852 C 0.95673 0.49905 0.48391 0.0
C853 C 0.96626 0.50689 0.46169 0.0
C854 C 0.97262 0.4984 0.50139 0.0
C855 C 0.99882 0.50624 0.49668 0.0
C856 C 1.00843 0.51386 0.47422 0.0
C857 C 0.99202 0.51387 0.457 0.0
C858 C 0.96147 0.48971 0.52501 0.0
C859 C 0.03629 0.52275 0.46849 0.0
C860 C 0.04528 0.53073 0.54714 0.0
C861 C 0.04846 0.50953 0.55209 0.0
C862 C 0.02969 0.5301 0.52887 0.0
C863 C 0.01646 0.50752 0.51542 0.0
C864 C 0.01995 0.4862 0.52008 0.0
C865 C 0.0361 0.48756 0.5382 0.0
C866 C 0.02699 0.55347 0.52423 0.0
C867 C 1.00595 0.46163 0.50641 0.0
H868 H 0.93687 0.49353 0.48769 0.0
H869 H 0.99969 0.52012 0.43995 0.0
H870 H 0.9649 0.47406 0.531 0.0
H871 H 0.9713 0.50595 0.53719 0.0
H872 H 0.94039 0.48265 0.52557 0.0
H873 H 0.04059 0.52737 0.45006 0.0
H874 H 0.04914 0.54021 0.47858 0.0
H875 H 0.04109 0.50767 0.47318 0.0
H876 H 0.05476 0.54777 0.55778 0.0
H877 H 0.03818 0.47096 0.54206 0.0
H878 H 1.00665 0.54856 0.52688 0.0
H879 H 0.03197 0.55965 0.50617 0.0
H880 H 0.03956 0.56996 0.53548 0.0
H881 H 0.98478 0.45334 0.5083 0.0
H882 H 1.01106 0.44696 0.5119 0.0
H883 H 1.01055 0.46576 0.48799 0.0
C884 C 0.51382 0.47381 0.46881 0.0
C885 C 0.50258 0.47688 0.44888 0.0
C886 C 0.51583 0.48793 0.48872 0.0
C887 C 0.50605 0.50521 0.48878 0.0
C888 C 0.49495 0.50852 0.46863 0.0
C889 C 0.49351 0.49449 0.44898 0.0
C890 C 0.5281 0.48411 0.5098 0.0
C891 C 0.48396 0.52643 0.46797 0.0
C892 C 0.48541 0.52079 0.54527 0.0
C893 C 0.50589 0.54565 0.54992 0.0
C894 C 0.48528 0.50746 0.5255 0.0
C895 C 0.50633 0.51907 0.51007 0.0
C896 C 0.52705 0.54421 0.51461 0.0
C897 C 0.52649 0.55728 0.53438 0.0
C898 C 0.46256 0.48091 0.52113 0.0
C899 C 0.54995 0.55716 0.49871 0.0
H900 H 0.52094 0.46033 0.46889 0.0
H901 H 0.48469 0.497 0.43373 0.0
H902 H 0.54388 0.50297 0.51595 0.0
H903 H 0.51358 0.47573 0.52369 0.0
H904 H 0.5361 0.47116 0.50663 0.0
H905 H 0.47649 0.52728 0.4508 0.0
H906 H 0.46795 0.51992 0.48049 0.0
H907 H 0.49897 0.5462 0.47293 0.0
H908 H 0.46943 0.51166 0.55719 0.0
H909 H 0.54256 0.57633 0.538 0.0
H910 H 0.46923 0.46665 0.51996 0.0
H911 H 0.45346 0.48068 0.50454 0.0
H912 H 0.44767 0.47463 0.53475 0.0
H913 H 0.55902 0.54499 0.4968 0.0
H914 H 0.56479 0.57649 0.50492 0.0
H915 H 0.54352 0.55935 0.48149 0.0
C916 C 0.54627 0.04833 0.46989 0.0
C917 C 0.54428 0.03327 0.45084 0.0
C918 C 0.53247 0.03682 0.49013 0.0
C919 C 0.51669 0.00961 0.49147 0.0
C920 C 0.51467 0.99439 0.47228 0.0
C921 C 0.52828 1.00638 0.45223 0.0
C922 C 0.53487 0.05373 0.51014 0.0
C923 C 0.49844 0.96534 0.47301 0.0
C924 C 0.50181 0.97729 0.54994 0.0
C925 C 0.47625 0.9715 0.5536 0.0
C926 C 0.51515 0.98965 0.52984 0.0
C927 C 0.50281 0.99683 0.51306 0.0
C928 C 0.47695 0.99094 0.5166 0.0
C929 C 0.46391 0.97816 0.53672 0.0
C930 C 0.54249 0.99505 0.52657 0.0
C931 C 0.46318 0.99848 0.49926 0.0
H932 H 0.55851 0.06909 0.46895 0.0
H933 H 0.52669 0.99448 0.4377 0.0
H934 H 0.51544 0.04989 0.51551 0.0
H935 H 0.54351 0.04914 0.52491 0.0
H936 H 0.547 0.07457 0.50609 0.0
H937 H 0.49877 0.95628 0.45656 0.0
H938 H 0.50558 0.95762 0.48669 0.0
H939 H 0.47812 0.95945 0.47718 0.0
H940 H 0.5115 0.97223 0.56289 0.0
H941 H 0.44429 0.97408 0.53954 0.0
H942 H 0.55577 0.01608 0.52455 0.0
H943 H 0.54381 0.98563 0.51072 0.0
H944 H 0.54926 0.98806 0.54114 0.0
H945 H 0.47427 0.0196 0.49629 0.0
H946 H 0.44331 0.99308 0.50479 0.0
H947 H 0.46198 0.989 0.48268 0.0
C948 C 0.50169 0.03861 0.97669 0.0
C949 C 0.51882 0.04328 0.95854 0.0
C950 C 0.50277 0.02618 0.99677 0.0
C951 C 0.52169 0.0186 0.99891 0.0
C952 C 0.53932 0.02371 0.98079 0.0
C953 C 0.53754 0.03578 0.96081 0.0
C954 C 0.48347 0.02091 0.0156 0.0
C955 C 0.56012 0.01645 0.98252 0.0
C956 C 0.54127 0.01017 0.05872 0.0
C957 C 0.52853 0.98323 0.06114 0.0
C958 C 0.53925 0.02182 0.0386 0.0
C959 C 0.52375 1.00623 0.02043 0.0
C960 C 0.51069 0.97899 0.02274 0.0
C961 C 0.51342 0.96779 0.04301 0.0
C962 C 0.55392 0.05088 0.03676 0.0
C963 C 0.49373 0.96172 1.00385 0.0
H964 H 0.48696 0.04405 0.97498 0.0
H965 H 0.55087 0.03932 0.94687 0.0
H966 H 0.47255 0.99995 0.01944 0.0
H967 H 0.49371 0.0309 0.03146 0.0
H968 H 0.46953 0.02736 0.01106 0.0
H969 H 0.57241 0.02187 0.96697 0.0
H970 H 0.57265 0.02612 0.99747 0.0
H971 H 0.55124 0.99537 0.98523 0.0
H972 H 0.5532 0.02231 0.07253 0.0
H973 H 0.50345 0.947 0.04478 0.0
H974 H 0.54028 0.05809 0.03381 0.0
H975 H 0.56723 0.05695 0.0219 0.0
H976 H 0.56537 0.06024 0.05235 0.0
H977 H 0.47846 0.96649 0.99972 0.0
H978 H 0.48439 0.94097 0.00848 0.0
H979 H 0.50535 0.965 0.98813 0.0
C980 C 0.97954 0.45962 0.97454 0.0
C981 C 0.97206 0.47204 0.95843 0.0
C982 C 0.99262 0.47226 0.99465 0.0
C983 C 0.99802 0.49778 0.99894 0.0
C984 C 0.99003 0.51018 0.98294 0.0
C985 C 0.97734 0.49724 0.96286 0.0
C986 C 1.00098 0.45844 0.01118 0.0
C987 C 0.99494 0.53717 0.98702 0.0
C988 C 1.00842 0.52193 0.06016 0.0
C989 C 0.03532 0.53836 0.06109 0.0
C990 C 0.99617 0.50851 0.04016 0.0
C991 C 1.01112 0.51124 0.02052 0.0
C992 C 0.03835 0.52746 0.02139 0.0
C993 C 0.05012 0.54098 0.04162 0.0
C994 C 0.9671 0.49175 0.03995 0.0
C995 C 0.05498 0.53065 1.00086 0.0
H996 H 0.97585 0.44028 0.97112 0.0
H997 H 0.97164 0.50699 0.95051 0.0
H998 H 0.0222 0.46979 0.01372 0.0
H999 H 0.99183 0.45666 0.02808 0.0
H1000 H 0.99581 0.43886 1.00515 0.0
H1001 H 0.98739 0.54405 0.97296 0.0
H1002 H 0.98569 0.53783 1.00324 0.0
H1003 H 0.01598 0.55071 0.98876 0.0
H1004 H 0.99671 0.5198 0.07503 0.0
H1005 H 0.07089 0.55355 0.04221 0.0
H1006 H 0.96157 0.47171 0.03523 0.0
H1007 H 0.95875 0.49892 0.02687 0.0
H1008 H 0.95829 0.49139 0.05676 0.0
H1009 H 0.0514 0.51153 0.99498 0.0
H1010 H 0.0759 0.543 1.00457 0.0
H1011 H 0.04981 0.53941 0.98657 0.0
C1012 C 0.55698 0.51315 0.97692 0.0
C1013 C 0.54341 0.49806 0.95803 0.0
C1014 C 0.54391 0.51327 0.99689 0.0
C1015 C 0.51668 0.49747 0.99822 0.0
C1016 C 0.503 0.48169 0.97941 0.0
C1017 C 0.51648 0.48241 0.95948 0.0
C1018 C 0.55919 0.53065 0.01643 0.0
C1019 C 0.47409 0.46405 0.98029 0.0
C1020 C 0.48621 0.47865 0.05723 0.0
C1021 C 0.47519 0.49445 0.05985 0.0
C1022 C 0.49958 0.47938 0.03728 0.0
C1023 C 0.50256 0.49674 0.01955 0.0
C1024 C 0.49169 0.51296 0.02212 0.0
C1025 C 0.47785 0.51141 0.04215 0.0
C1026 C 0.51026 0.46131 0.0351 0.0
C1027 C 0.49482 0.53204 1.00376 0.0
H1028 H 0.57775 0.52558 0.9758 0.0
H1029 H 0.50588 0.47071 0.94494 0.0
H1030 H 0.55182 0.54392 0.02054 0.0
H1031 H 0.55671 0.51897 0.03195 0.0
H1032 H 0.58014 0.54229 0.01248 0.0
H1033 H 0.46639 0.45262 0.96439 0.0
H1034 H 0.46891 0.45057 0.99494 0.0
H1035 H 0.46438 0.47552 0.983 0.0
H1036 H 0.48402 0.46526 0.07071 0.0
H1037 H 0.46947 0.52372 0.0441 0.0
H1038 H 0.53151 0.47251 0.03272 0.0
H1039 H 0.50199 0.44895 0.0198 0.0
H1040 H 0.50596 0.44869 0.05032 0.0
H1041 H 0.51564 0.54511 1.00015 0.0
H1042 H 0.48599 0.54386 0.00864 0.0
H1043 H 0.48575 0.52171 0.98768 0.0
C1044 C 0.21584 0.0161 0.96275 0.0
C1045 C 0.22523 1.00249 0.9753 0.0
C1046 C 0.22004 0.0403 0.97024 0.0
C1047 C 0.23366 0.05099 0.99088 0.0
C1048 C 0.24359 0.03754 1.00329 0.0
C1049 C 0.23939 0.01365 0.99532 0.0
C1050 C 0.20941 0.05417 0.95636 0.0
C1051 C 0.25795 0.04795 0.0255 0.0
C1052 C 0.26145 0.12131 0.00879 0.0
C1053 C 0.24278 0.11943 0.02445 0.0
C1054 C 0.25819 0.09946 0.99679 0.0
C1055 C 0.23588 0.0751 1.0007 0.0
C1056 C 0.21664 0.07333 0.01591 0.0
C1057 C 0.22026 0.09543 0.02746 0.0
C1058 C 0.27902 0.10225 0.98051 0.0
C1059 C 0.19267 0.04781 0.02083 0.0
H1060 H 0.20502 0.00774 0.94721 0.0
H1061 H 0.24682 1.00344 1.0052 0.0
H1062 H 0.19383 0.05487 0.96607 0.0
H1063 H 0.22474 0.07438 0.95313 0.0
H1064 H 0.20144 0.04459 0.93971 0.0
H1065 H 0.26543 0.0357 0.0326 0.0
H1066 H 0.27444 0.06773 0.02298 0.0
H1067 H 0.24491 0.04914 0.03833 0.0
H1068 H 0.27884 0.13975 0.00622 0.0
H1069 H 0.2056 0.09366 0.0394 0.0
H1070 H 0.27042 0.09292 0.96395 0.0
H1071 H 0.28898 0.09236 0.98767 0.0
H1072 H 0.29364 0.12277 0.97734 0.0
H1073 H 0.1828 0.03839 1.00467 0.0
H1074 H 0.17876 0.04994 0.03192 0.0
H1075 H 0.19815 0.03471 0.02946 0.0
C1076 C 1.00138 0.21079 0.97565 0.0
C1077 C 1.00306 0.22636 0.95702 0.0
C1078 C 0.9777 0.19506 0.98678 0.0
C1079 C 0.95498 0.19452 0.97892 0.0
C1080 C 0.95635 0.20929 0.95948 0.0
C1081 C 0.98036 0.22516 0.9489 0.0
C1082 C 0.9772 0.17985 0.00757 0.0
C1083 C 0.93258 0.20893 0.95025 0.0
C1084 C 0.89024 0.13951 0.99997 0.0
C1085 C 0.88411 0.15141 0.01764 0.0
C1086 C 0.91291 0.15338 0.9869 0.0
C1087 C 0.93015 0.17971 0.99182 0.0
C1088 C 0.92391 0.19187 0.00947 0.0
C1089 C 0.90093 0.17766 0.022 0.0
C1090 C 0.91857 0.13978 0.96801 0.0
C1091 C 0.94183 0.2198 0.01548 0.0
H1092 H 0.01879 0.21165 0.98215 0.0
H1093 H 0.98141 0.237 0.93446 0.0
H1094 H 0.97164 0.18699 0.02281 0.0
H1095 H 0.96249 0.15922 1.00546 0.0
H1096 H 0.99622 0.18137 0.01088 0.0
H1097 H 0.93643 0.21969 0.93389 0.0
H1098 H 0.9169 0.18879 0.94749 0.0
H1099 H 0.92543 0.21771 0.96287 0.0
H1100 H 0.87736 0.11926 0.9964 0.0
H1101 H 0.89652 0.18703 0.03569 0.0
H1102 H 0.93655 0.13941 0.97192 0.0
H1103 H 0.92182 0.15044 0.95169 0.0
H1104 H 0.90264 0.11965 0.96557 0.0
H1105 H 0.96091 0.22258 0.02071 0.0
H1106 H 0.93414 0.22647 0.02956 0.0
H1107 H 0.94507 0.23219 1.00031 0.0
C1108 C 0.89458 0.79593 0.02303 0.0
C1109 C 0.89265 0.77156 0.02243 0.0
C1110 C 0.87688 0.8008 0.01143 0.0
C1111 C 0.85666 0.78088 0.99868 0.0
C1112 C 0.85525 0.75655 0.99708 0.0
C1113 C 0.8732 0.75214 0.00904 0.0
C1114 C 0.87911 0.82697 0.01377 0.0
C1115 C 0.83415 0.73487 0.9835 0.0
C1116 C 0.79547 0.7853 0.995 0.0
C1117 C 0.79768 0.79654 0.97343 0.0
C1118 C 0.81412 0.7795 1.00304 0.0
C1119 C 0.83567 0.7849 0.98918 0.0
C1120 C 0.83781 0.79571 0.96714 0.0
C1121 C 0.81884 0.8015 0.95955 0.0
C1122 C 0.81107 0.7682 0.0267 0.0
C1123 C 0.86038 0.80158 0.95178 0.0
H1124 H 0.90959 0.81119 0.03316 0.0
H1125 H 0.87159 0.73329 0.00835 0.0
H1126 H 0.87889 0.83493 0.99671 0.0
H1127 H 0.86226 0.82507 0.02344 0.0
H1128 H 0.89702 0.84097 0.02282 0.0
H1129 H 0.83743 0.71824 0.9817 0.0
H1130 H 0.81529 0.72811 0.9921 0.0
H1131 H 0.83275 0.74172 0.96622 0.0
H1132 H 0.77921 0.78128 0.0059 0.0
H1133 H 0.82066 0.81002 0.94281 0.0
H1134 H 0.82735 0.78177 0.03767 0.0
H1135 H 0.81168 0.74999 0.02592 0.0
H1136 H 0.79268 0.76416 0.03496 0.0
H1137 H 0.8785 0.81688 0.95957 0.0
H1138 H 0.85828 0.8081 0.93455 0.0
H1139 H 0.86242 0.78423 0.94992 0.0
C1140 C 0.01532 0.20802 0.54283 0.0
C1141 C 0.01389 0.22488 0.55864 0.0
C1142 C 0.0391 0.21325 0.53334 0.0
C1143 C 0.06215 0.23566 0.54008 0.0
C1144 C 0.06096 0.25216 0.55676 0.0
C1145 C 0.03686 0.2467 0.56567 0.0
C1146 C 0.03942 0.19526 0.51546 0.0
C1147 C 0.08508 0.27594 0.56479 0.0
C1148 C 0.12531 0.23715 0.52637 0.0
C1149 C 0.13342 0.25221 0.50642 0.0
C1150 C 0.10261 0.23224 0.53788 0.0
C1151 C 0.08732 0.24225 0.52904 0.0
C1152 C 0.09566 0.2579 0.50916 0.0
C1153 C 0.11869 0.26286 0.49821 0.0
C1154 C 0.09474 0.21591 0.55925 0.0
C1155 C 0.07983 0.26874 0.49901 0.0
H1156 H 0.9977 0.19121 0.53715 0.0
H1157 H 0.03599 0.2598 0.57793 0.0
H1158 H 0.04668 0.20578 0.49906 0.0
H1159 H 0.05276 0.18832 0.52063 0.0
H1160 H 0.01996 0.1783 0.51253 0.0
H1161 H 0.08114 0.28573 0.57904 0.0
H1162 H 0.09966 0.27081 0.57051 0.0
H1163 H 0.09374 0.28978 0.55043 0.0
H1164 H 0.13661 0.22893 0.53293 0.0
H1165 H 0.12468 0.27439 0.48275 0.0
H1166 H 0.07634 0.19773 0.55623 0.0
H1167 H 0.09131 0.22616 0.57339 0.0
H1168 H 0.10957 0.21101 0.56476 0.0
H1169 H 0.06055 0.25273 0.49394 0.0
H1170 H 0.08921 0.28099 0.48378 0.0
H1171 H 0.07663 0.28041 0.51191 0.0
C1172 C 0.76133 0.78769 0.55956 0.0
C1173 C 0.78233 0.78563 0.55139 0.0
C1174 C 0.75375 0.80394 0.54886 0.0
C1175 C 0.76719 0.8182 0.52922 0.0
C1176 C 0.78888 0.81679 0.52129 0.0
C1177 C 0.7963 0.80072 0.53257 0.0
C1178 C 0.73087 0.80525 0.55816 0.0
C1179 C 0.80361 0.83143 0.5003 0.0
C1180 C 0.73103 0.83595 0.4858 0.0
C1181 C 0.74143 0.86244 0.48967 0.0
C1182 C 0.73908 0.82136 0.49867 0.0
C1183 C 0.75771 0.83338 0.51616 0.0
C1184 C 0.7677 0.85995 0.52065 0.0
C1185 C 0.75962 0.87419 0.50724 0.0
C1186 C 0.72813 0.79317 0.4931 0.0
C1187 C 0.78721 0.87342 0.5394 0.0
H1188 H 0.75048 0.77623 0.57416 0.0
H1189 H 0.81247 0.79921 0.52603 0.0
H1190 H 0.73596 0.82563 0.56064 0.0
H1191 H 0.71474 0.79662 0.54571 0.0
H1192 H 0.72396 0.79486 0.57468 0.0
H1193 H 0.8207 0.82922 0.49692 0.0
H1194 H 0.7907 0.82441 0.48518 0.0
H1195 H 0.81019 0.85224 0.50219 0.0
H1196 H 0.7171 0.82669 0.47219 0.0
H1197 H 0.76772 0.89463 0.51043 0.0
H1198 H 0.71894 0.7812 0.50848 0.0
H1199 H 0.74395 0.78964 0.48783 0.0
H1200 H 0.71358 0.78662 0.47918 0.0
H1201 H 0.77976 0.86302 0.55582 0.0
H1202 H 0.79193 0.89373 0.54165 0.0
H1203 H 0.80529 0.87325 0.53543 0.0
C1204 C 0.20543 0.99008 0.55162 0.0
C1205 C 0.22369 0.00767 0.53613 0.0
C1206 C 0.18634 0.96529 0.54448 0.0
C1207 C 0.18538 0.95802 0.5213 0.0
C1208 C 0.20401 0.97559 0.50573 0.0
C1209 C 0.22289 1.00005 0.51333 0.0
C1210 C 0.16695 0.94704 0.56163 0.0
C1211 C 0.20365 0.96881 0.48083 0.0
C1212 C 0.14895 0.88874 0.49966 0.0
C1213 C 0.12687 0.88758 0.49003 0.0
C1214 C 0.16757 0.91107 0.51104 0.0
C1215 C 0.16412 0.93279 0.51271 0.0
C1216 C 0.14131 0.93126 0.50391 0.0
C1217 C 0.12301 0.90872 0.49279 0.0
C1218 C 0.19148 0.91181 0.52038 0.0
C1219 C 0.13683 0.95393 0.50518 0.0
H1220 H 0.20595 0.99572 0.56928 0.0
H1221 H 0.23688 0.01339 0.50118 0.0
H1222 H 0.14733 0.94318 0.55699 0.0
H1223 H 0.16652 0.92829 0.56136 0.0
H1224 H 0.17135 0.95486 0.57927 0.0
H1225 H 0.22001 0.9843 0.47109 0.0
H1226 H 0.20452 0.95079 0.4792 0.0
H1227 H 0.18531 0.96528 0.47285 0.0
H1228 H 0.15208 0.87249 0.49774 0.0
H1229 H 0.10596 0.90804 0.48559 0.0
H1230 H 0.19521 0.91927 0.53813 0.0
H1231 H 0.20846 0.92515 0.50993 0.0
H1232 H 0.18987 0.8925 0.52024 0.0
H1233 H 0.13943 0.96123 0.52294 0.0
H1234 H 0.11721 0.94895 0.49926 0.0
H1235 H 0.15127 0.96989 0.49438 0.0
C1236 C 0.75535 0.8924 0.99214 0.0
C1237 C 0.77562 0.89112 0.98125 0.0
C1238 C 0.75963 0.91513 1.00313 0.0
C1239 C 0.78471 0.93715 1.00312 0.0
C1240 C 0.80539 0.9356 0.99294 0.0
C1241 C 0.80061 0.91266 0.98223 0.0
C1242 C 0.73711 0.9159 0.01397 0.0
C1243 C 0.8324 0.95858 0.99239 0.0
C1244 C 0.79171 1.00383 1.00384 0.0
C1245 C 0.80008 0.01217 0.02624 0.0
C1246 C 0.78625 0.97937 0.99634 0.0
C1247 C 0.78901 0.96254 0.01161 0.0
C1248 C 0.79706 0.9706 0.03438 0.0
C1249 C 0.80261 0.99538 0.04141 0.0
C1250 C 0.77796 0.97174 0.97186 0.0
C1251 C 0.80005 0.95315 0.05121 0.0
H1252 H 0.73601 0.87586 0.99159 0.0
H1253 H 0.81649 0.91192 0.97402 0.0
H1254 H 0.74214 0.92384 0.03152 0.0
H1255 H 0.73252 0.92886 1.00396 0.0
H1256 H 0.71954 0.89652 0.01477 0.0
H1257 H 0.8467 0.95367 0.9854 0.0
H1258 H 0.83268 0.97401 0.98164 0.0
H1259 H 0.83857 0.96656 0.00981 0.0
H1260 H 0.78966 0.01658 0.99193 0.0
H1261 H 0.80892 1.00157 0.05878 0.0
H1262 H 0.75912 0.95354 0.97132 0.0
H1263 H 0.79226 0.96816 0.96292 0.0
H1264 H 0.7761 0.98678 0.96231 0.0
H1265 H 0.78186 0.93434 0.05226 0.0
H1266 H 0.80513 0.96168 0.06859 0.0
H1267 H 0.81539 0.94922 0.04529 0.0
C1268 C 0.12797 0.89752 0.01849 0.0
C1269 C 0.13721 0.88859 1.00069 0.0
C1270 C 0.10521 0.88073 0.03042 0.0
C1271 C 0.09103 0.85438 0.02421 0.0
C1272 C 0.10047 0.84516 0.00649 0.0
C1273 C 0.12352 0.86231 0.99508 0.0
C1274 C 0.09613 0.8913 0.04945 0.0
C1275 C 0.08585 0.81728 0.99917 0.0
C1276 C 0.04186 0.80405 0.065 0.0
C1277 C 0.01839 0.80057 0.05637 0.0
C1278 C 0.06564 0.82196 0.05512 0.0
C1279 C 0.06605 0.83655 0.03589 0.0
C1280 C 0.04247 0.83357 0.02742 0.0
C1281 C 0.01897 0.81579 0.03786 0.0
C1282 C 0.09031 0.82485 0.06498 0.0
C1283 C 0.04197 0.84856 0.00685 0.0
H1284 H 0.13845 0.91776 0.02304 0.0
H1285 H 0.13038 0.85524 0.98127 0.0
H1286 H 0.07721 0.88935 0.0449 0.0
H1287 H 0.09326 0.88005 0.06534 0.0
H1288 H 0.11002 0.91193 0.05299 0.0
H1289 H 0.0959 0.81305 0.98533 0.0
H1290 H 0.08317 0.80453 0.01393 0.0
H1291 H 0.06633 0.81235 0.99305 0.0
H1292 H 0.04165 0.79246 0.07934 0.0
H1293 H 1.00098 0.81315 0.03095 0.0
H1294 H 0.104 0.8454 0.06889 0.0
H1295 H 0.09978 0.81857 0.05224 0.0
H1296 H 0.08685 0.81332 0.08081 0.0
H1297 H 0.05442 0.86954 0.00984 0.0
H1298 H 0.02215 0.84454 1.00271 0.0
H1299 H 0.04988 0.84357 0.99178 0.0
C1300 C 0.15061 0.26186 0.99136 0.0
C1301 C 0.12464 0.25088 0.99797 0.0
C1302 C 0.16738 0.25515 1.00242 0.0
C1303 C 0.1581 0.23722 0.02075 0.0
C1304 C 0.13204 0.22646 0.02777 0.0
C1305 C 0.11564 0.2333 0.01626 0.0
C1306 C 0.19497 0.26699 0.99429 0.0
C1307 C 0.12142 0.20757 0.04739 0.0
C1308 C 0.19536 0.20259 0.03574 0.0
C1309 C 0.2111 0.21769 0.05377 0.0
C1310 C 0.17782 0.20851 0.02502 0.0
C1311 C 0.17572 0.22988 0.03264 0.0
C1312 C 0.19089 0.2446 0.05136 0.0
C1313 C 0.20843 0.23842 0.06159 0.0
C1314 C 0.16209 0.19237 1.00506 0.0
C1315 C 0.18905 0.26728 0.06028 0.0
H1316 H 0.15774 0.27532 0.97718 0.0
H1317 H 0.09565 0.22472 0.02157 0.0
H1318 H 0.20841 0.2776 0.00848 0.0
H1319 H 0.199 0.2516 0.98884 0.0
H1320 H 0.19919 0.28051 0.97978 0.0
H1321 H 0.10087 0.20132 0.05107 0.0
H1322 H 0.12298 0.19028 0.04346 0.0
H1323 H 0.13295 0.21641 0.06304 0.0
H1324 H 0.19736 0.18665 0.02946 0.0
H1325 H 0.22041 0.25019 0.07555 0.0
H1326 H 0.16719 0.20454 0.98948 0.0
H1327 H 0.14122 0.18469 0.00832 0.0
H1328 H 0.16533 0.17595 1.00165 0.0
H1329 H 0.1953 0.28233 0.04685 0.0
H1330 H 0.20118 0.27597 0.07569 0.0
H1331 H 0.16871 0.26122 0.06461 0.0
C1332 C 0.88953 0.74608 0.5121 0.0
C1333 C 0.88811 0.76501 0.52512 0.0
C1334 C 0.91258 0.75144 0.50084 0.0
C1335 C 0.9348 0.77626 0.50275 0.0
C1336 C 0.93317 0.79562 0.51526 0.0
C1337 C 0.90994 0.7898 0.52619 0.0
C1338 C 0.91342 0.73031 0.48753 0.0
C1339 C 0.95633 0.82228 0.51794 0.0
C1340 C 1.00165 0.78331 0.49978 0.0
C1341 C 1.01052 0.79441 0.47814 0.0
C1342 C 0.97696 0.77689 0.50769 0.0
C1343 C 0.96039 0.78147 0.49361 0.0
C1344 C 0.96898 0.79228 0.47156 0.0
C1345 C 0.99398 0.79873 0.46411 0.0
C1346 C 0.96883 0.76566 0.53138 0.0
C1347 C 0.95186 0.79732 0.45597 0.0
H1348 H 0.87279 0.72692 0.51106 0.0
H1349 H 0.90914 0.80468 0.53607 0.0
H1350 H 0.92156 0.73732 0.47025 0.0
H1351 H 0.92628 0.72462 0.49631 0.0
H1352 H 0.89399 0.71295 0.48574 0.0
H1353 H 0.95146 0.83566 0.52687 0.0
H1354 H 0.97155 0.8211 0.52784 0.0
H1355 H 0.96463 0.83056 0.50098 0.0
H1356 H 0.01417 0.77984 0.51083 0.0
H1357 H 1.00056 0.80715 0.44732 0.0
H1358 H 0.95051 0.74696 0.53057 0.0
H1359 H 0.96521 0.7788 0.54212 0.0
H1360 H 0.98365 0.76254 0.53993 0.0
H1361 H 0.93297 0.77943 0.45375 0.0
H1362 H 0.9607 0.80438 0.43888 0.0
H1363 H 0.94794 0.81191 0.46376 0.0
C1364 C 0.21542 0.20028 0.46818 0.0
C1365 C 0.22125 0.2216 0.48206 0.0
C1366 C 0.2237 0.18269 0.47417 0.0
C1367 C 0.23805 0.18647 0.49453 0.0
C1368 C 0.24374 0.20784 0.50864 0.0
C1369 C 0.23534 0.22505 0.50224 0.0
C1370 C 0.21725 0.16017 0.45867 0.0
C1371 C 0.25883 0.21262 0.53056 0.0
C1372 C 0.2418 0.13227 0.52518 0.0
C1373 C 0.26696 0.13767 0.51988 0.0
C1374 C 0.23171 0.14722 0.51619 0.0
C1375 C 0.24708 0.16819 0.50148 0.0
C1376 C 0.27212 0.17315 0.49535 0.0
C1377 C 0.28175 0.15787 0.50461 0.0
C1378 C 0.20494 0.14121 0.52321 0.0
C1379 C 0.28917 0.19529 0.47973 0.0
H1380 H 0.20463 0.19748 0.45253 0.0
H1381 H 0.23995 0.24137 0.51319 0.0
H1382 H 0.2353 0.16102 0.45271 0.0
H1383 H 0.20606 0.14181 0.46821 0.0
H1384 H 0.20588 0.15982 0.44352 0.0
H1385 H 0.26163 0.2301 0.53965 0.0
H1386 H 0.24864 0.19581 0.54216 0.0
H1387 H 0.27809 0.21492 0.52685 0.0
H1388 H 0.23008 0.11664 0.53683 0.0
H1389 H 0.30114 0.16217 0.50028 0.0
H1390 H 0.19331 0.13984 0.50795 0.0
H1391 H 0.2063 0.15707 0.53399 0.0
H1392 H 0.19456 0.1229 0.53301 0.0
H1393 H 0.27855 0.1946 0.46396 0.0
H1394 H 0.30707 0.19514 0.47488 0.0
H1395 H 0.29471 0.21382 0.48838 0.0
C1396 C 0.81886 0.01915 0.4629 0.0
C1397 C 0.79837 1.00298 0.47741 0.0
C1398 C 0.83755 0.04424 0.4698 0.0
C1399 C 0.83583 0.05327 0.49176 0.0
C1400 C 0.81504 0.03706 0.50631 0.0
C1401 C 0.79663 0.01229 0.49896 0.0
C1402 C 0.8593 0.06099 0.45372 0.0
C1403 C 0.81249 0.04569 0.52994 0.0
C1404 C 0.89478 0.10385 0.52368 0.0
C1405 C 0.89145 0.12547 0.52276 0.0
C1406 C 0.87755 0.08068 0.51273 0.0
C1407 C 0.85637 0.07894 0.50036 0.0
C1408 C 0.85357 0.10104 0.49838 0.0
C1409 C 0.87109 0.12404 0.50965 0.0
C1410 C 0.8813 0.05766 0.51543 0.0
C1411 C 0.83141 0.10009 0.48518 0.0
H1412 H 0.8203 0.01223 0.44618 0.0
H1413 H 0.78093 1.00005 0.51036 0.0
H1414 H 0.86022 0.07982 0.45129 0.0
H1415 H 0.878 0.065 0.4612 0.0
H1416 H 0.85709 0.05182 0.43676 0.0
H1417 H 0.79478 0.03108 0.53891 0.0
H1418 H 0.82953 0.04951 0.54041 0.0
H1419 H 0.81201 0.06395 0.52889 0.0
H1420 H 0.91052 0.10471 0.53359 0.0
H1421 H 0.86839 0.14062 0.50872 0.0
H1422 H 0.88077 0.04905 0.49853 0.0
H1423 H 0.86528 0.04265 0.5258 0.0
H1424 H 0.89987 0.06272 0.52392 0.0
H1425 H 0.8298 0.0914 0.4681 0.0
H1426 H 0.83361 0.11952 0.48294 0.0
H1427 H 0.81303 0.08769 0.49438 0.0
C1428 C 0.91845 0.45374 0.33456 0.0
C1429 C 0.9368 0.45777 0.35144 0.0
C1430 C 0.90639 0.43075 0.32181 0.0
C1431 C 0.91287 0.41133 0.32599 0.0
C1432 C 0.93242 0.41594 0.34209 0.0
C1433 C 0.94408 0.43901 0.35461 0.0
C1434 C 0.88575 0.42668 0.30476 0.0
C1435 C 0.94013 0.3959 0.34697 0.0
C1436 C 0.86371 0.34029 0.31882 0.0
C1437 C 0.87256 0.33386 0.29908 0.0
C1438 C 0.8759 0.36569 0.32706 0.0
C1439 C 0.89764 0.38526 0.31537 0.0
C1440 C 0.90586 0.37919 0.29475 0.0
C1441 C 0.89317 0.35356 0.2868 0.0
C1442 C 0.86627 0.37127 0.34898 0.0
C1443 C 0.9289 0.39946 0.28175 0.0
H1444 H 0.91269 0.4681 0.33192 0.0
H1445 H 0.95837 0.44197 0.36746 0.0
H1446 H 0.88897 0.41949 0.28834 0.0
H1447 H 0.8666 0.41183 0.31133 0.0
H1448 H 0.88515 0.44466 0.30146 0.0
H1449 H 0.95716 0.40329 0.35845 0.0
H1450 H 0.92376 0.37883 0.35517 0.0
H1451 H 0.94466 0.3893 0.33083 0.0
H1452 H 0.84769 0.32525 0.32834 0.0
H1453 H 0.90023 0.34877 0.27158 0.0
H1454 H 0.86315 0.38791 0.34663 0.0
H1455 H 0.88103 0.37652 0.36255 0.0
H1456 H 0.84792 0.35446 0.35497 0.0
H1457 H 0.92741 0.41706 0.27943 0.0
H1458 H 0.9309 0.39249 0.26471 0.0
H1459 H 0.94676 0.40504 0.29167 0.0
C1460 C 0.56101 0.48323 0.34238 0.0
C1461 C 0.55813 0.45999 0.35088 0.0
C1462 C 0.58397 0.50132 0.33134 0.0
C1463 C 0.60454 0.4961 0.32883 0.0
C1464 C 0.60115 0.4721 0.33632 0.0
C1465 C 0.57804 0.45439 0.34715 0.0
C1466 C 0.5867 0.52655 0.32338 0.0
C1467 C 0.62252 0.46569 0.3341 0.0
C1468 C 0.66344 0.53701 0.29118 0.0
C1469 C 0.68145 0.55352 0.30734 0.0
C1470 C 0.63804 0.51867 0.29772 0.0
C1471 C 0.63059 0.51665 0.32097 0.0
C1472 C 0.64865 0.53345 0.33724 0.0
C1473 C 0.6737 0.55166 0.33024 0.0
C1474 C 0.61928 0.50125 0.27983 0.0
C1475 C 0.6417 0.53186 0.36225 0.0
H1476 H 0.54573 0.48771 0.34506 0.0
H1477 H 0.57599 0.43641 0.35343 0.0
H1478 H 0.60058 0.54236 0.33457 0.0
H1479 H 0.59453 0.53104 0.30574 0.0
H1480 H 0.56799 0.52633 0.32379 0.0
H1481 H 0.61602 0.44536 0.33879 0.0
H1482 H 0.63004 0.46911 0.31636 0.0
H1483 H 0.63881 0.47849 0.34543 0.0
H1484 H 0.66918 0.5384 0.27344 0.0
H1485 H 0.68739 0.56428 0.34291 0.0
H1486 H 0.60131 0.50238 0.28043 0.0
H1487 H 0.61382 0.48095 0.28341 0.0
H1488 H 0.62749 0.5063 0.26232 0.0
H1489 H 0.62449 0.53414 0.36439 0.0
H1490 H 0.65773 0.54681 0.37264 0.0
H1491 H 0.63665 0.51261 0.36911 0.0
C1492 C 0.56554 0.13233 0.34863 0.0
C1493 C 0.55998 0.10679 0.3518 0.0
C1494 C 0.54799 0.13798 0.33775 0.0
C1495 C 0.52419 0.11763 0.32964 0.0
C1496 C 0.51899 0.09185 0.3317 0.0
C1497 C 0.5369 0.08672 0.3428 0.0
C1498 C 0.55437 0.16574 0.33606 0.0
C1499 C 0.49396 0.0696 0.32311 0.0
C1500 C 0.46775 0.13017 0.32997 0.0
C1501 C 0.46629 0.1362 0.30703 0.0
C1502 C 0.48624 0.12383 0.33737 0.0
C1503 C 0.50378 0.12327 0.32144 0.0
C1504 C 0.50236 0.12912 0.29818 0.0
C1505 C 0.4837 0.13565 0.29125 0.0
C1506 C 0.48717 0.11803 0.36237 0.0
C1507 C 0.52059 0.12857 0.28066 0.0
H1508 H 0.58337 0.14806 0.35533 0.0
H1509 H 0.53243 0.06694 0.34505 0.0
H1510 H 0.55149 0.17038 0.31833 0.0
H1511 H 0.54112 0.16879 0.34723 0.0
H1512 H 0.57456 0.17943 0.34127 0.0
H1513 H 0.49411 0.05111 0.32348 0.0
H1514 H 0.47775 0.06749 0.3339 0.0
H1515 H 0.49011 0.07333 0.30538 0.0
H1516 H 0.45447 0.13056 0.34236 0.0
H1517 H 0.48263 0.14012 0.27347 0.0
H1518 H 0.50626 0.13206 0.36962 0.0
H1519 H 0.48484 0.09855 0.36438 0.0
H1520 H 0.4719 0.1189 0.37251 0.0
H1521 H 0.54079 0.14305 0.28505 0.0
H1522 H 0.51641 0.13264 0.26313 0.0
H1523 H 0.51928 0.10941 0.28074 0.0
C1524 C 0.70728 0.57339 0.89979 0.0
C1525 C 0.68406 0.5521 0.89241 0.0
C1526 C 0.73108 0.57947 0.88979 0.0
C1527 C 0.73174 0.5641 0.87171 0.0
C1528 C 0.70844 0.54223 0.86453 0.0
C1529 C 0.68495 0.53641 0.87505 0.0
C1530 C 0.75546 0.60269 0.89822 0.0
C1531 C 0.70821 0.52544 0.84522 0.0
C1532 C 0.78733 0.59409 0.82895 0.0
C1533 C 0.80235 0.58312 0.83553 0.0
C1534 C 0.7645 0.58828 0.84071 0.0
C1535 C 0.7566 0.57136 0.85975 0.0
C1536 C 0.77213 0.56091 0.86694 0.0
C1537 C 0.79467 0.56675 0.85467 0.0
C1538 C 0.74844 0.59969 0.83235 0.0
C1539 C 0.76467 0.54315 0.88735 0.0
H1540 H 0.70685 0.5856 0.91324 0.0
H1541 H 0.66715 0.52 0.86912 0.0
H1542 H 0.77007 0.59714 0.90278 0.0
H1543 H 0.76389 0.61734 0.88443 0.0
H1544 H 0.75194 0.61168 0.91336 0.0
H1545 H 0.68865 0.50872 0.8421 0.0
H1546 H 0.71512 0.537 0.82929 0.0
H1547 H 0.72161 0.51812 0.84901 0.0
H1548 H 0.79298 0.60664 0.81414 0.0
H1549 H 0.80616 0.55825 0.85996 0.0
H1550 H 0.74556 0.61051 0.84631 0.0
H1551 H 0.72905 0.58401 0.82714 0.0
H1552 H 0.75747 0.6129 0.81759 0.0
H1553 H 0.76171 0.55248 0.90251 0.0
H1554 H 0.77953 0.53778 0.89152 0.0
H1555 H 0.74612 0.52527 0.88396 0.0
C1556 C 0.46253 0.21438 0.81758 0.0
C1557 C 0.43976 0.21528 0.82127 0.0
C1558 C 0.46747 0.19686 0.82938 0.0
C1559 C 0.44933 0.17983 0.84554 0.0
C1560 C 0.42678 0.18132 0.8501 0.0
C1561 C 0.42218 0.19893 0.83782 0.0
C1562 C 0.49161 0.19581 0.82374 0.0
C1563 C 0.40712 0.16373 0.8674 0.0
C1564 C 0.44848 0.11631 0.85226 0.0
C1565 C 0.46383 0.12058 0.87175 0.0
C1566 C 0.44299 0.13509 0.84409 0.0
C1567 C 0.45287 0.15887 0.85572 0.0
C1568 C 0.46768 0.16308 0.87585 0.0
C1569 C 0.47309 0.14392 0.88359 0.0
C1570 C 0.42732 0.12978 0.82246 0.0
C1571 C 0.47834 0.18806 0.88887 0.0
H1572 H 0.47635 0.22695 0.80492 0.0
H1573 H 0.40463 0.19958 0.84092 0.0
H1574 H 0.50248 0.19727 0.83955 0.0
H1575 H 0.48622 0.17702 0.81568 0.0
H1576 H 0.50459 0.21147 0.81188 0.0
H1577 H 0.39222 0.16923 0.87089 0.0
H1578 H 0.39733 0.14362 0.861 0.0
H1579 H 0.41677 0.16404 0.88369 0.0
H1580 H 0.44108 0.09835 0.84298 0.0
H1581 H 0.48482 0.14737 0.89872 0.0
H1582 H 0.43937 0.14355 0.80893 0.0
H1583 H 0.41059 0.13266 0.82545 0.0
H1584 H 0.42001 0.10987 0.81605 0.0
H1585 H 0.49313 0.20407 0.87836 0.0
H1586 H 0.48732 0.18743 0.9053 0.0
H1587 H 0.46277 0.19257 0.89242 0.0
C1588 C 0.87523 0.33081 0.8798 0.0
C1589 C 0.89718 0.34607 0.86642 0.0
C1590 C 0.85576 0.30648 0.87209 0.0
C1591 C 0.85814 0.29738 0.85038 0.0
C1592 C 0.88042 0.31259 0.83699 0.0
C1593 C 0.89965 0.33657 0.84521 0.0
C1594 C 0.83245 0.29069 0.88699 0.0
C1595 C 0.88366 0.30389 0.81362 0.0
C1596 C 0.81845 0.22728 0.83121 0.0
C1597 C 0.79962 0.2281 0.81747 0.0
C1598 C 0.83693 0.24937 0.84299 0.0
C1599 C 0.83674 0.27288 0.84075 0.0
C1600 C 0.81728 0.27355 0.82746 0.0
C1601 C 0.79896 0.2512 0.81613 0.0
C1602 C 0.85715 0.24778 0.85722 0.0
C1603 C 0.81646 0.29819 0.82436 0.0
H1604 H 0.87322 0.33789 0.89626 0.0
H1605 H 0.91648 0.34815 0.83468 0.0
H1606 H 0.81492 0.28876 0.8786 0.0
H1607 H 0.82941 0.27095 0.88924 0.0
H1608 H 0.8344 0.29949 0.90409 0.0
H1609 H 0.90251 0.31758 0.80567 0.0
H1610 H 0.88213 0.28468 0.81478 0.0
H1611 H 0.86797 0.30192 0.80217 0.0
H1612 H 0.81905 0.20952 0.83248 0.0
H1613 H 0.78448 0.25211 0.80565 0.0
H1614 H 0.85836 0.25612 0.8744 0.0
H1615 H 0.87635 0.25925 0.84902 0.0
H1616 H 0.85305 0.22762 0.85925 0.0
H1617 H 0.81647 0.30665 0.8412 0.0
H1618 H 0.79918 0.29515 0.81465 0.0
H1619 H 0.83399 0.31253 0.81505 0.0
C1620 C 0.46708 0.24871 0.31654 0.0
C1621 C 0.44227 0.22684 0.31645 0.0
C1622 C 0.47218 0.27132 0.32806 0.0
C1623 C 0.45204 0.27221 0.34002 0.0
C1624 C 0.42723 0.24984 0.34093 0.0
C1625 C 0.42259 0.22745 0.32906 0.0
C1626 C 0.49886 0.29471 0.32643 0.0
C1627 C 0.4053 0.24989 0.35367 0.0
C1628 C 0.47189 0.33028 0.37915 0.0
C1629 C 0.4678 0.34679 0.3649 0.0
C1630 C 0.46618 0.3056 0.37161 0.0
C1631 C 0.45639 0.29736 0.34925 0.0
C1632 C 0.45203 0.31389 0.33494 0.0
C1633 C 0.45767 0.33823 0.34294 0.0
C1634 C 0.47089 0.28845 0.38744 0.0
C1635 C 0.44188 0.30612 0.31091 0.0
H1636 H 0.48252 0.2485 0.307 0.0
H1637 H 0.40341 0.21064 0.32923 0.0
H1638 H 0.49799 0.31 0.3164 0.0
H1639 H 0.50618 0.30264 0.34368 0.0
H1640 H 0.51291 0.29028 0.3181 0.0
H1641 H 0.38816 0.23027 0.35507 0.0
H1642 H 0.41157 0.25784 0.37109 0.0
H1643 H 0.39946 0.2625 0.34465 0.0
H1644 H 0.47956 0.33664 0.39617 0.0
H1645 H 0.4544 0.35074 0.33172 0.0
H1646 H 0.48611 0.28507 0.38021 0.0
H1647 H 0.45309 0.26938 0.38907 0.0
H1648 H 0.47703 0.29696 0.40474 0.0
H1649 H 0.45568 0.30296 0.30066 0.0
H1650 H 0.43886 0.3209 0.30217 0.0
H1651 H 0.42327 0.28767 0.31116 0.0
C1652 C 0.68841 0.14986 0.3769 0.0
C1653 C 0.67719 0.12391 0.37041 0.0
C1654 C 0.71356 0.16816 0.36965 0.0
C1655 C 0.72785 0.16025 0.3558 0.0
C1656 C 0.71689 0.13392 0.34995 0.0
C1657 C 0.69177 0.11619 0.35722 0.0
C1658 C 0.72452 0.19606 0.37618 0.0
C1659 C 0.73142 0.1245 0.33543 0.0
C1660 C 0.77944 0.20609 0.31423 0.0
C1661 C 0.80241 0.21162 0.32549 0.0
C1662 C 0.75517 0.19028 0.32432 0.0
C1663 C 0.75364 0.17945 0.34619 0.0
C1664 C 0.77673 0.18534 0.35788 0.0
C1665 C 0.80082 0.20141 0.34743 0.0
C1666 C 0.7311 0.18463 0.31126 0.0
C1667 C 0.77597 0.17406 0.38113 0.0
H1668 H 0.67729 0.156 0.38707 0.0
H1669 H 0.68343 0.09615 0.3523 0.0
H1670 H 0.74381 0.20358 0.38415 0.0
H1671 H 0.72718 0.20776 0.36063 0.0
H1672 H 0.71177 0.19887 0.38824 0.0
H1673 H 0.7208 0.10319 0.33354 0.0
H1674 H 0.73479 0.13329 0.31818 0.0
H1675 H 0.75061 0.13051 0.34305 0.0
H1676 H 0.78037 0.21402 0.29737 0.0
H1677 H 0.81839 0.20559 0.35633 0.0
H1678 H 0.7184 0.18891 0.32199 0.0
H1679 H 0.72004 0.16384 0.30688 0.0
H1680 H 0.73557 0.196 0.2952 0.0
H1681 H 0.76382 0.17795 0.39297 0.0
H1682 H 0.79554 0.18194 0.38868 0.0
H1683 H 0.76705 0.15281 0.37976 0.0
C1684 C 0.87609 0.54911 0.38088 0.0
C1685 C 0.89101 0.54543 0.3644 0.0
C1686 C 0.85981 0.55898 0.37471 0.0
C1687 C 0.85843 0.56527 0.35155 0.0
C1688 C 0.87303 0.56101 0.33487 0.0
C1689 C 0.88902 0.55119 0.34147 0.0
C1690 C 0.84448 0.56314 0.39299 0.0
C1691 C 0.87214 0.56727 0.30997 0.0
C1692 C 0.80314 0.57159 0.32619 0.0
C1693 C 0.81437 0.59843 0.3238 0.0
C1694 C 0.81668 0.56056 0.33643 0.0
C1695 C 0.84219 0.57668 0.34443 0.0
C1696 C 0.85319 0.60382 0.34302 0.0
C1697 C 0.83917 0.61435 0.33277 0.0
C1698 C 0.80412 0.53157 0.33764 0.0
C1699 C 0.88032 0.62176 0.35128 0.0
H1700 H 0.87754 0.54481 0.39863 0.0
H1701 H 0.90029 0.54831 0.32851 0.0
H1702 H 0.85091 0.58398 0.39428 0.0
H1703 H 0.82369 0.55303 0.3884 0.0
H1704 H 0.84667 0.55617 0.40999 0.0
H1705 H 0.88434 0.56243 0.29906 0.0
H1706 H 0.85199 0.55651 0.3036 0.0
H1707 H 0.87889 0.58812 0.30799 0.0
H1708 H 0.78391 0.55905 0.31952 0.0
H1709 H 0.84803 0.63509 0.33115 0.0
H1710 H 0.80621 0.5254 0.35501 0.0
H1711 H 0.8139 0.52494 0.32557 0.0
H1712 H 0.78326 0.52181 0.33323 0.0
H1713 H 0.88293 0.61646 0.36885 0.0
H1714 H 0.8851 0.64223 0.35121 0.0
H1715 H 0.89431 0.61991 0.3401 0.0
C1716 C 0.56348 0.1164 0.83058 0.0
C1717 C 0.55479 0.09821 0.84838 0.0
C1718 C 0.58602 0.12256 0.8182 0.0
C1719 C 0.60054 0.11052 0.82389 0.0
C1720 C 0.59171 0.09189 0.84165 0.0
C1721 C 0.56888 0.08584 0.85357 0.0
C1722 C 0.59446 0.1422 0.79918 0.0
C1723 C 0.6067 0.07874 0.8484 0.0
C1724 C 0.64822 0.10969 0.78104 0.0
C1725 C 0.67196 0.12978 0.78898 0.0
C1726 C 0.62484 0.10356 0.79193 0.0
C1727 C 0.62512 0.11763 0.81146 0.0
C1728 C 0.64895 0.13828 0.8193 0.0
C1729 C 0.67203 0.14421 0.80789 0.0
C1730 C 0.59987 0.08171 0.78274 0.0
C1731 C 0.65016 0.15367 0.84013 0.0
H1732 H 0.5527 0.126 0.82635 0.0
H1733 H 0.56244 0.07188 0.86737 0.0
H1734 H 0.61358 0.15904 0.80328 0.0
H1735 H 0.59668 0.13378 0.78305 0.0
H1736 H 0.58051 0.14908 0.79627 0.0
H1737 H 0.59718 0.06456 0.86243 0.0
H1738 H 0.60892 0.06861 0.83347 0.0
H1739 H 0.6264 0.09335 0.85401 0.0
H1740 H 0.64791 0.09845 0.76642 0.0
H1741 H 0.69024 0.15965 0.81428 0.0
H1742 H 0.58599 0.08852 0.77926 0.0
H1743 H 0.59089 0.06614 0.7957 0.0
H1744 H 0.60278 0.07347 0.76678 0.0
H1745 H 0.63759 0.16225 0.83774 0.0
H1746 H 0.6701 0.16939 0.84383 0.0
H1747 H 0.64277 0.14076 0.85524 0.0
C1748 C 0.92213 0.4812 0.85881 0.0
C1749 C 0.92639 0.46441 0.84518 0.0
C1750 C 0.91427 0.49773 0.84916 0.0
C1751 C 0.91107 0.49795 0.82518 0.0
C1752 C 0.91549 0.48115 0.81129 0.0
C1753 C 0.92284 0.46443 0.82146 0.0
C1754 C 0.90946 0.51504 0.86466 0.0
C1755 C 0.91287 0.48115 0.78565 0.0
C1756 C 0.87251 0.52887 0.80308 0.0
C1757 C 0.89222 0.55427 0.79905 0.0
C1758 C 0.87832 0.51007 0.81107 0.0
C1759 C 0.90443 0.51675 0.81469 0.0
C1760 C 0.92437 0.54207 0.80951 0.0
C1761 C 0.91801 0.5605 0.80199 0.0
C1762 C 0.85647 0.4834 0.81662 0.0
C1763 C 0.95247 0.54999 0.81263 0.0
H1764 H 0.92454 0.48116 0.87716 0.0
H1765 H 0.9261 0.45155 0.81078 0.0
H1766 H 0.92337 0.53553 0.86068 0.0
H1767 H 0.88977 0.51198 0.86173 0.0
H1768 H 0.91141 0.51157 0.88301 0.0
H1769 H 0.91649 0.46661 0.77727 0.0
H1770 H 0.89321 0.47715 0.78098 0.0
H1771 H 0.92675 0.50048 0.77873 0.0
H1772 H 0.85255 0.52399 0.801 0.0
H1773 H 0.93338 0.58005 0.79872 0.0
H1774 H 0.85616 0.47991 0.83528 0.0
H1775 H 0.85944 0.46862 0.80794 0.0
H1776 H 0.83738 0.48073 0.81149 0.0
H1777 H 0.95661 0.54951 0.83105 0.0
H1778 H 0.96566 0.5697 0.806 0.0
H1779 H 0.95685 0.53624 0.80377 0.0
C1780 C 0.5375 0.45075 0.84942 0.0
C1781 C 0.55999 0.45297 0.85915 0.0
C1782 C 0.51956 0.42804 0.83806 0.0
C1783 C 0.52416 0.40702 0.8365 0.0
C1784 C 0.54741 0.40966 0.84536 0.0
C1785 C 0.565 0.43255 0.85648 0.0
C1786 C 0.49512 0.42609 0.82868 0.0
C1787 C 0.55311 0.38778 0.84421 0.0
C1788 C 0.46668 0.33894 0.83635 0.0
C1789 C 0.4657 0.33136 0.81352 0.0
C1790 C 0.48533 0.36354 0.84384 0.0
C1791 C 0.50355 0.38131 0.82813 0.0
C1792 C 0.50261 0.37394 0.80497 0.0
C1793 C 0.48375 0.34899 0.79794 0.0
C1794 C 0.48572 0.37038 0.86873 0.0
C1795 C 0.52159 0.39239 0.78768 0.0
H1796 H 0.53349 0.46644 0.85126 0.0
H1797 H 0.58239 0.43406 0.86374 0.0
H1798 H 0.49164 0.41853 0.81097 0.0
H1799 H 0.4784 0.41234 0.83919 0.0
H1800 H 0.49583 0.445 0.82871 0.0
H1801 H 0.57303 0.39369 0.84995 0.0
H1802 H 0.53927 0.37167 0.85522 0.0
H1803 H 0.55059 0.38029 0.82652 0.0
H1804 H 0.45289 0.32553 0.84859 0.0
H1805 H 0.48304 0.34338 0.78024 0.0
H1806 H 0.48388 0.38786 0.87033 0.0
H1807 H 0.50444 0.37487 0.87652 0.0
H1808 H 0.46991 0.35455 0.87868 0.0
H1809 H 0.52083 0.41054 0.78741 0.0
H1810 H 0.51771 0.38415 0.77018 0.0
H1811 H 0.54153 0.3975 0.79259 0.0
C1812 C 0.55184 0.6884 0.62696 0.0
C1813 C 0.55424 0.67145 0.64204 0.0
C1814 C 0.55767 0.71324 0.63407 0.0
C1815 C 0.56584 0.7212 0.65684 0.0
C1816 C 0.56866 0.70429 0.67196 0.0
C1817 C 0.56294 0.67978 0.66438 0.0
C1818 C 0.55463 0.73078 0.61737 0.0
C1819 C 0.57708 0.71181 0.69643 0.0
C1820 C 0.59862 0.79106 0.67714 0.0
C1821 C 0.57814 0.79178 0.6882 0.0
C1822 C 0.5947 0.76863 0.66578 0.0
C1823 C 0.56978 0.74638 0.66558 0.0
C1824 C 0.54888 0.74743 0.67587 0.0
C1825 C 0.5533 0.77005 0.68695 0.0
C1826 C 0.61745 0.76839 0.65482 0.0
C1827 C 0.52201 0.72421 0.6762 0.0
H1828 H 0.5453 0.68223 0.60964 0.0
H1829 H 0.56493 0.66693 0.67622 0.0
H1830 H 0.53892 0.73421 0.62317 0.0
H1831 H 0.57262 0.74979 0.6167 0.0
H1832 H 0.55001 0.72255 0.59987 0.0
H1833 H 0.57929 0.69686 0.70577 0.0
H1834 H 0.59576 0.73018 0.69698 0.0
H1835 H 0.56265 0.71502 0.70558 0.0
H1836 H 0.61786 0.80774 0.6779 0.0
H1837 H 0.53725 0.77038 0.69525 0.0
H1838 H 0.61249 0.7605 0.63725 0.0
H1839 H 0.62239 0.75564 0.66475 0.0
H1840 H 0.63477 0.78795 0.65405 0.0
H1841 H 0.51598 0.71646 0.65869 0.0
H1842 H 0.5075 0.72874 0.68331 0.0
H1843 H 0.52192 0.70873 0.68673 0.0
C1844 C 0.25463 0.79914 0.69717 0.0
C1845 C 0.23054 0.79745 0.69389 0.0
C1846 C 0.27681 0.81765 0.68565 0.0
C1847 C 0.27498 0.8349 0.67021 0.0
C1848 C 0.25057 0.83273 0.66615 0.0
C1849 C 0.22865 0.81413 0.67813 0.0
C1850 C 0.30243 0.81938 0.69072 0.0
C1851 C 0.24774 0.85056 0.64964 0.0
C1852 C 0.33637 0.89965 0.66346 0.0
C1853 C 0.3472 0.89626 0.64339 0.0
C1854 C 0.31263 0.88012 0.67195 0.0
C1855 C 0.29904 0.85651 0.66002 0.0
C1856 C 0.30942 0.85315 0.63936 0.0
C1857 C 0.33345 0.87302 0.63134 0.0
C1858 C 0.30248 0.88451 0.69414 0.0
C1859 C 0.2954 0.82836 0.62602 0.0
H1860 H 0.25638 0.78635 0.70925 0.0
H1861 H 0.21013 0.8129 0.67535 0.0
H1862 H 0.31183 0.81861 0.67463 0.0
H1863 H 0.31555 0.83811 0.699 0.0
H1864 H 0.30037 0.80363 0.70215 0.0
H1865 H 0.22719 0.84482 0.64668 0.0
H1866 H 0.25794 0.87051 0.65643 0.0
H1867 H 0.25679 0.85085 0.63301 0.0
H1868 H 0.34672 0.91751 0.67294 0.0
H1869 H 0.34156 0.87024 0.61577 0.0
H1870 H 0.30145 0.87057 0.7072 0.0
H1871 H 0.28262 0.88116 0.69175 0.0
H1872 H 0.31484 0.90434 0.70084 0.0
H1873 H 0.29472 0.81234 0.63614 0.0
H1874 H 0.30489 0.82952 0.6094 0.0
H1875 H 0.27515 0.82346 0.62281 0.0
C1876 C 0.19702 0.41553 0.68148 0.0
C1877 C 0.22268 0.4265 0.67394 0.0
C1878 C 0.17924 0.42063 0.67017 0.0
C1879 C 0.18713 0.43678 0.6506 0.0
C1880 C 0.21275 0.44714 0.64243 0.0
C1881 C 0.23024 0.44206 0.65428 0.0
C1882 C 0.15221 0.40937 0.6796 0.0
C1883 C 0.22185 0.46404 0.62142 0.0
C1884 C 0.13357 0.43304 0.61244 0.0
C1885 C 0.13205 0.45465 0.61953 0.0
C1886 C 0.15184 0.42738 0.62191 0.0
C1887 C 0.16881 0.44347 0.63919 0.0
C1888 C 0.16773 0.46561 0.64608 0.0
C1889 C 0.14954 0.47103 0.63606 0.0
C1890 C 0.15265 0.40388 0.61373 0.0
C1891 C 0.18526 0.48316 0.66459 0.0
H1892 H 0.191 0.40361 0.6967 0.0
H1893 H 0.24998 0.45055 0.64825 0.0
H1894 H 0.14864 0.42516 0.68477 0.0
H1895 H 0.13783 0.398 0.66625 0.0
H1896 H 0.14889 0.39672 0.69463 0.0
H1897 H 0.24182 0.46924 0.61642 0.0
H1898 H 0.20872 0.4541 0.60686 0.0
H1899 H 0.22136 0.48206 0.6246 0.0
H1900 H 0.12022 0.4203 0.59962 0.0
H1901 H 0.14847 0.48769 0.64177 0.0
H1902 H 0.14723 0.38978 0.62791 0.0
H1903 H 0.17255 0.40931 0.60838 0.0
H1904 H 0.13933 0.39428 0.59918 0.0
H1905 H 0.18156 0.47219 0.68078 0.0
H1906 H 0.18243 0.4999 0.66767 0.0
H1907 H 0.20576 0.49046 0.65994 0.0
C1908 C 0.35628 0.87429 0.21663 0.0
C1909 C 0.34011 0.8793 0.20274 0.0
C1910 C 0.38113 0.88026 0.2091 0.0
C1911 C 0.38994 0.89139 0.18719 0.0
C1912 C 0.37378 0.89674 0.17331 0.0
C1913 C 0.34923 0.89069 0.18123 0.0
C1914 C 0.39781 0.87434 0.22444 0.0
C1915 C 0.38222 0.90846 0.14979 0.0
C1916 C 0.46063 0.9261 0.16845 0.0
C1917 C 0.46145 0.90741 0.15459 0.0
C1918 C 0.43785 0.92079 0.18016 0.0
C1919 C 0.41535 0.89623 0.17794 0.0
C1920 C 0.41645 0.87702 0.16473 0.0
C1921 C 0.4394 0.88282 0.15327 0.0
C1922 C 0.43755 0.9418 0.19414 0.0
C1923 C 0.393 0.8506 0.1618 0.0
H1924 H 0.3495 0.86562 0.2333 0.0
H1925 H 0.33703 0.89475 0.17032 0.0
H1926 H 0.40129 0.85962 0.2163 0.0
H1927 H 0.41692 0.89188 0.22689 0.0
H1928 H 0.38882 0.86705 0.24145 0.0
H1929 H 0.36774 0.91224 0.14144 0.0
H1930 H 0.4008 0.92687 0.15088 0.0
H1931 H 0.38545 0.89528 0.13873 0.0
H1932 H 0.47756 0.94511 0.1697 0.0
H1933 H 0.4398 0.86811 0.1428 0.0
H1934 H 0.42918 0.93438 0.21128 0.0
H1935 H 0.42513 0.94824 0.18564 0.0
H1936 H 0.45719 0.95876 0.19626 0.0
H1937 H 0.38455 0.84214 0.17867 0.0
H1938 H 0.3976 0.83713 0.15265 0.0
H1939 H 0.37801 0.85225 0.15196 0.0
C1940 C 0.11067 0.46497 0.23348 0.0
C1941 C 0.13106 0.462 0.22509 0.0
C1942 C 0.10456 0.48269 0.22355 0.0
C1943 C 0.11891 0.49758 0.2045 0.0
C1944 C 0.13977 0.49496 0.19617 0.0
C1945 C 0.14571 0.47739 0.20666 0.0
C1946 C 0.08251 0.48521 0.23324 0.0
C1947 C 0.15542 0.51027 0.17578 0.0
C1948 C 0.08841 0.52456 0.16361 0.0
C1949 C 0.10123 0.55075 0.16955 0.0
C1950 C 0.09371 0.50699 0.17503 0.0
C1951 C 0.11197 0.51569 0.19307 0.0
C1952 C 0.12423 0.54192 0.19969 0.0
C1953 C 0.11887 0.55912 0.18776 0.0
C1954 C 0.08039 0.47925 0.16727 0.0
C1955 C 0.14344 0.55194 0.21908 0.0
H1956 H 0.09927 0.45323 0.24774 0.0
H1957 H 0.16137 0.47513 0.19993 0.0
H1958 H 0.08925 0.50562 0.23766 0.0
H1959 H 0.06709 0.47938 0.22023 0.0
H1960 H 0.07404 0.47316 0.24875 0.0
H1961 H 0.17112 0.50615 0.17148 0.0
H1962 H 0.14263 0.50574 0.16069 0.0
H1963 H 0.16414 0.53121 0.17915 0.0
H1964 H 0.07488 0.51794 0.14949 0.0
H1965 H 0.12879 0.57929 0.19256 0.0
H1966 H 0.07024 0.46621 0.18184 0.0
H1967 H 0.09497 0.4744 0.16097 0.0
H1968 H 0.06618 0.47536 0.15343 0.0
H1969 H 0.13475 0.54021 0.23468 0.0
H1970 H 0.15004 0.57244 0.22307 0.0
H1971 H 0.16055 0.5502 0.21461 0.0
C1972 C 0.55528 0.65732 0.21687 0.0
C1973 C 0.54902 0.67636 0.21116 0.0
C1974 C 0.54133 0.63228 0.20766 0.0
C1975 C 0.52055 0.62606 0.19247 0.0
C1976 C 0.51317 0.64473 0.18784 0.0
C1977 C 0.52749 0.66959 0.19716 0.0
C1978 C 0.54985 0.613 0.21311 0.0
C1979 C 0.49102 0.63896 0.17194 0.0
C1980 C 0.50529 0.57854 0.14388 0.0
C1981 C 0.48225 0.557 0.15125 0.0
C1982 C 0.51849 0.60056 0.15761 0.0
C1983 C 0.5084 0.60132 0.17931 0.0
C1984 C 0.48577 0.57921 0.18733 0.0
C1985 C 0.473 0.55726 0.17324 0.0
C1986 C 0.54269 0.6235 0.14839 0.0
C1987 C 0.47437 0.57918 0.21034 0.0
H1988 H 0.57186 0.66229 0.22765 0.0
H1989 H 0.52233 0.68405 0.19277 0.0
H1990 H 0.53297 0.594 0.21751 0.0
H1991 H 0.55916 0.61019 0.19784 0.0
H1992 H 0.56384 0.61945 0.22748 0.0
H1993 H 0.48603 0.65453 0.17193 0.0
H1994 H 0.49627 0.63666 0.15426 0.0
H1995 H 0.47362 0.62059 0.17684 0.0
H1996 H 0.51276 0.57847 0.12702 0.0
H1997 H 0.45518 0.54075 0.17907 0.0
H1998 H 0.55863 0.62998 0.16096 0.0
H1999 H 0.53913 0.6398 0.14554 0.0
H2000 H 0.54909 0.61916 0.13201 0.0
H2001 H 0.48951 0.58623 0.22374 0.0
H2002 H 0.45856 0.55969 0.21522 0.0
H2003 H 0.46652 0.59251 0.20992 0.0
C2004 C 0.13899 0.66045 0.71173 0.0
C2005 C 0.13697 0.67799 0.69713 0.0
C2006 C 0.13278 0.63568 0.70403 0.0
C2007 C 0.12455 0.62835 0.68116 0.0
C2008 C 0.1224 0.64598 0.66645 0.0
C2009 C 0.12853 0.67042 0.6746 0.0
C2010 C 0.13519 0.61741 0.72029 0.0
C2011 C 0.11396 0.63918 0.64189 0.0
C2012 C 0.13398 0.57776 0.65035 0.0
C2013 C 0.10871 0.55666 0.64941 0.0
C2014 C 0.13952 0.60075 0.66144 0.0
C2015 C 0.11935 0.60286 0.67202 0.0
C2016 C 0.09395 0.58132 0.67193 0.0
C2017 C 0.08891 0.5585 0.66059 0.0
C2018 C 0.16686 0.62319 0.66097 0.0
C2019 C 0.07191 0.58269 0.68313 0.0
H2020 H 0.14534 0.66603 0.72919 0.0
H2021 H 0.12688 0.68375 0.66311 0.0
H2022 H 0.11661 0.59896 0.72124 0.0
H2023 H 0.14996 0.61288 0.71388 0.0
H2024 H 0.14073 0.62552 0.73777 0.0
H2025 H 0.11268 0.65481 0.6328 0.0
H2026 H 0.12783 0.63525 0.63262 0.0
H2027 H 0.0948 0.62137 0.64114 0.0
H2028 H 0.14952 0.5766 0.64191 0.0
H2029 H 0.06935 0.54232 0.66007 0.0
H2030 H 0.17333 0.63067 0.67848 0.0
H2031 H 0.1676 0.63913 0.65067 0.0
H2032 H 0.18067 0.61788 0.65353 0.0
H2033 H 0.07714 0.59003 0.70085 0.0
H2034 H 0.05391 0.56363 0.68359 0.0
H2035 H 0.06798 0.59642 0.67361 0.0
C2036 C 0.35579 0.44991 0.68909 0.0
C2037 C 0.34112 0.45687 0.70305 0.0
C2038 C 0.38095 0.46802 0.68221 0.0
C2039 C 0.39194 0.49399 0.68928 0.0
C2040 C 0.37747 0.50117 0.70369 0.0
C2041 C 0.35225 0.4825 0.71048 0.0
C2042 C 0.39562 0.45937 0.667 0.0
C2043 C 0.38845 0.52867 0.71153 0.0
C2044 C 0.46527 0.5347 0.68321 0.0
C2045 C 0.46787 0.5464 0.66181 0.0
C2046 C 0.44073 0.51827 0.69274 0.0
C2047 C 0.41818 0.51355 0.68072 0.0
C2048 C 0.42073 0.52592 0.65944 0.0
C2049 C 0.44545 0.54204 0.65023 0.0
C2050 C 0.43891 0.50532 0.71535 0.0
C2051 C 0.39728 0.52159 0.64606 0.0
H2052 H 0.34755 0.43015 0.68336 0.0
H2053 H 0.34111 0.48808 0.72125 0.0
H2054 H 0.39976 0.46954 0.65033 0.0
H2055 H 0.41446 0.46442 0.67487 0.0
H2056 H 0.38476 0.43827 0.66378 0.0
H2057 H 0.37527 0.53098 0.72344 0.0
H2058 H 0.40726 0.53535 0.72018 0.0
H2059 H 0.39212 0.54141 0.69653 0.0
H2060 H 0.48241 0.53794 0.69235 0.0
H2061 H 0.44716 0.55111 0.63378 0.0
H2062 H 0.42974 0.48418 0.71283 0.0
H2063 H 0.42652 0.50865 0.72736 0.0
H2064 H 0.45815 0.51235 0.72334 0.0
H2065 H 0.38617 0.50118 0.64049 0.0
H2066 H 0.40251 0.53413 0.63069 0.0
H2067 H 0.38433 0.52532 0.65699 0.0
C2068 C 0.54545 0.90882 0.7287 0.0
C2069 C 0.54865 0.8885 0.72063 0.0
C2070 C 0.5278 0.91482 0.71842 0.0
C2071 C 0.51315 0.90041 0.69935 0.0
C2072 C 0.51586 0.8795 0.69143 0.0
C2073 C 0.53342 0.87369 0.70225 0.0
C2074 C 0.52523 0.93696 0.7277 0.0
C2075 C 0.50077 0.86373 0.67107 0.0
C2076 C 0.45239 0.9021 0.68222 0.0
C2077 C 0.46134 0.92004 0.66421 0.0
C2078 C 0.46907 0.89583 0.69399 0.0
C2079 C 0.49536 0.9075 0.68746 0.0
C2080 C 0.5046 0.92584 0.66946 0.0
C2081 C 0.48755 0.93202 0.65817 0.0
C2082 C 0.45846 0.87652 0.7133 0.0
C2083 C 0.53243 0.93859 0.66181 0.0
H2084 H 0.55705 0.92035 0.74293 0.0
H2085 H 0.53586 0.85808 0.69576 0.0
H2086 H 0.53147 0.95232 0.71458 0.0
H2087 H 0.50471 0.93038 0.73176 0.0
H2088 H 0.53698 0.94541 0.74334 0.0
H2089 H 0.50462 0.84777 0.66731 0.0
H2090 H 0.47976 0.85543 0.67408 0.0
H2091 H 0.50584 0.87632 0.65577 0.0
H2092 H 0.43221 0.89278 0.6871 0.0
H2093 H 0.49464 0.94576 0.6442 0.0
H2094 H 0.46973 0.88515 0.72911 0.0
H2095 H 0.46043 0.85951 0.7091 0.0
H2096 H 0.43779 0.86984 0.71681 0.0
H2097 H 0.54542 0.94897 0.67632 0.0
H2098 H 0.53664 0.95248 0.64761 0.0
H2099 H 0.53709 0.92371 0.65608 0.0
C2100 C 0.23445 0.4184 0.18561 0.0
C2101 C 0.22026 0.43063 0.18024 0.0
C2102 C 0.25755 0.42476 0.17401 0.0
C2103 C 0.26662 0.44361 0.15644 0.0
C2104 C 0.25202 0.45551 0.15055 0.0
C2105 C 0.22915 0.44898 0.16256 0.0
C2106 C 0.27255 0.41166 0.18091 0.0
C2107 C 0.26074 0.47543 0.13175 0.0
C2108 C 0.33852 0.4774 0.14175 0.0
C2109 C 0.33884 0.46319 0.12283 0.0
C2110 C 0.31516 0.47148 0.15266 0.0
C2111 C 0.29147 0.45101 0.14435 0.0
C2112 C 0.29162 0.43723 0.12476 0.0
C2113 C 0.31523 0.4434 0.11434 0.0
C2114 C 0.31591 0.48662 0.17352 0.0
C2115 C 0.26684 0.41552 0.11512 0.0
H2116 H 0.22788 0.40432 0.19931 0.0
H2117 H 0.21834 0.45851 0.1582 0.0
H2118 H 0.27518 0.40183 0.16596 0.0
H2119 H 0.29208 0.42627 0.18689 0.0
H2120 H 0.2628 0.39723 0.19472 0.0
H2121 H 0.24677 0.48224 0.12869 0.0
H2122 H 0.27973 0.49228 0.13621 0.0
H2123 H 0.26337 0.46731 0.11561 0.0
H2124 H 0.35661 0.49261 0.14856 0.0
H2125 H 0.3152 0.43231 0.0997 0.0
H2126 H 0.30845 0.47357 0.18853 0.0
H2127 H 0.3032 0.49501 0.17104 0.0
H2128 H 0.33574 0.50246 0.17743 0.0
H2129 H 0.25767 0.3997 0.12783 0.0
H2130 H 0.27008 0.4076 0.0991 0.0
H2131 H 0.25298 0.42232 0.11158 0.0
C2132 C 0.54036 0.86508 0.16804 0.0
C2133 C 0.54824 0.87874 0.14735 0.0
C2134 C 0.55086 0.85 0.17567 0.0
C2135 C 0.56998 0.84863 0.16243 0.0
C2136 C 0.5772 0.86141 0.141 0.0
C2137 C 0.56615 0.87624 0.13366 0.0
C2138 C 0.54232 0.83649 0.19848 0.0
C2139 C 0.59752 0.8605 0.12637 0.0
C2140 C 0.6164 0.83694 0.19811 0.0
C2141 C 0.60634 0.81029 0.19568 0.0
C2142 C 0.60551 0.8498 0.18649 0.0
C2143 C 0.58383 0.8357 0.17213 0.0
C2144 C 0.57422 0.80898 0.16883 0.0
C2145 C 0.58563 0.7966 0.18058 0.0
C2146 C 0.61658 0.87833 0.19039 0.0
C2147 C 0.55114 0.79322 0.15373 0.0
H2148 H 0.52637 0.86671 0.17865 0.0
H2149 H 0.57245 0.88681 0.1177 0.0
H2150 H 0.53671 0.81589 0.19677 0.0
H2151 H 0.5586 0.84538 0.21077 0.0
H2152 H 0.52575 0.83764 0.20575 0.0
H2153 H 0.59888 0.86893 0.10915 0.0
H2154 H 0.61661 0.87145 0.13485 0.0
H2155 H 0.59332 0.84035 0.1244 0.0
H2156 H 0.63251 0.84776 0.20957 0.0
H2157 H 0.57768 0.77601 0.17857 0.0
H2158 H 0.6023 0.88165 0.19967 0.0
H2159 H 0.62055 0.88865 0.17381 0.0
H2160 H 0.63474 0.88691 0.20048 0.0
H2161 H 0.53363 0.79185 0.16168 0.0
H2162 H 0.54771 0.77339 0.151 0.0
H2163 H 0.55376 0.80273 0.13688 0.0
C2164 C 0.22771 0.76419 0.19481 0.0
C2165 C 0.22519 0.78629 0.19381 0.0
C2166 C 0.21025 0.74135 0.18355 0.0
C2167 C 0.18975 0.74048 0.17072 0.0
C2168 C 0.18777 0.76306 0.1687 0.0
C2169 C 0.20543 0.78567 0.18036 0.0
C2170 C 0.21302 0.71775 0.18639 0.0
C2171 C 0.16637 0.76303 0.15498 0.0
C2172 C 0.15187 0.68144 0.13257 0.0
C2173 C 0.13067 0.6657 0.14656 0.0
C2174 C 0.17095 0.7062 0.13984 0.0
C2175 C 0.16892 0.71523 0.16171 0.0
C2176 C 0.14748 0.69942 0.17578 0.0
C2177 C 0.12865 0.67504 0.16801 0.0
C2178 C 0.19338 0.72259 0.12425 0.0
C2179 C 0.14464 0.70803 0.19932 0.0
H2180 H 0.24295 0.7644 0.20502 0.0
H2181 H 0.20341 0.80265 0.17933 0.0
H2182 H 0.19642 0.70291 0.19635 0.0
H2183 H 0.21274 0.70925 0.1695 0.0
H2184 H 0.23114 0.72212 0.19536 0.0
H2185 H 0.16926 0.78274 0.15279 0.0
H2186 H 0.16505 0.75452 0.13786 0.0
H2187 H 0.14761 0.75092 0.16371 0.0
H2188 H 0.1535 0.67448 0.11593 0.0
H2189 H 0.11241 0.66308 0.17902 0.0
H2190 H 0.21165 0.72594 0.13221 0.0
H2191 H 0.19502 0.74173 0.12175 0.0
H2192 H 0.19139 0.71349 0.10729 0.0
H2193 H 0.16124 0.71126 0.21015 0.0
H2194 H 0.12652 0.69368 0.20794 0.0
H2195 H 0.14478 0.7266 0.19822 0.0
C2196 C 0.34419 0.28396 0.07009 0.0
C2197 C 0.32228 0.27036 0.08387 0.0
C2198 C 0.3606 0.3107 0.07292 0.0
C2199 C 0.35439 0.32412 0.0894 0.0
C2200 C 0.33234 0.31034 0.10341 0.0
C2201 C 0.31681 0.28365 0.10067 0.0
C2202 C 0.38431 0.32466 0.05807 0.0
C2203 C 0.32448 0.32391 0.12066 0.0
C2204 C 0.40056 0.39257 0.10967 0.0
C2205 C 0.39324 0.40683 0.09567 0.0
C2206 C 0.38903 0.36565 0.10708 0.0
C2207 C 0.36921 0.35279 0.09063 0.0
C2208 C 0.36188 0.36723 0.07648 0.0
C2209 C 0.37421 0.39404 0.07898 0.0
C2210 C 0.39778 0.35094 0.12208 0.0
C2211 C 0.3403 0.35431 0.05925 0.0
H2212 H 0.3486 0.27368 0.05725 0.0
H2213 H 0.29978 0.27327 0.11129 0.0
H2214 H 0.38188 0.33766 0.04607 0.0
H2215 H 0.40151 0.33686 0.06874 0.0
H2216 H 0.38803 0.31115 0.04799 0.0
H2217 H 0.30721 0.31025 0.1307 0.0
H2218 H 0.34056 0.33525 0.13267 0.0
H2219 H 0.32008 0.33765 0.11174 0.0
H2220 H 0.41545 0.40247 0.12243 0.0
H2221 H 0.36832 0.40495 0.0682 0.0
H2222 H 0.40228 0.33832 0.11149 0.0
H2223 H 0.38201 0.33829 0.13395 0.0
H2224 H 0.41511 0.36397 0.13232 0.0
H2225 H 0.34447 0.34258 0.0472 0.0
H2226 H 0.33731 0.3684 0.04926 0.0
H2227 H 0.32199 0.34101 0.06817 0.0
C2228 C 0.6231 0.01487 0.10616 0.0
C2229 C 0.62043 0.99416 0.11953 0.0
C2230 C 0.64729 0.03327 0.09728 0.0
C2231 C 0.66936 0.03108 0.10211 0.0
C2232 C 0.66694 0.01096 0.11654 0.0
C2233 C 0.64253 0.9927 0.12494 0.0
C2234 C 0.64901 0.05434 0.0819 0.0
C2235 C 0.69002 0.00812 0.12244 0.0
C2236 C 0.72758 0.0567 0.06262 0.0
C2237 C 0.74599 0.0784 0.07465 0.0
C2238 C 0.70209 0.04197 0.07069 0.0
C2239 C 0.69485 0.04895 0.09137 0.0
C2240 C 0.71289 0.07169 0.10282 0.0
C2241 C 0.73817 0.0862 0.09427 0.0
C2242 C 0.68333 0.01807 0.05775 0.0
C2243 C 0.70603 0.07982 0.12492 0.0
H2244 H 0.6061 0.01605 0.10172 0.0
H2245 H 0.64065 0.97682 0.13531 0.0
H2246 H 0.6646 0.07344 0.08774 0.0
H2247 H 0.65399 0.05144 0.06431 0.0
H2248 H 0.63058 0.05464 0.08128 0.0
H2249 H 0.6852 0.99243 0.13501 0.0
H2250 H 0.69761 1.00387 0.10674 0.0
H2251 H 0.70573 0.02642 0.12958 0.0
H2252 H 0.73335 0.05057 0.0474 0.0
H2253 H 0.75217 0.10294 0.10372 0.0
H2254 H 0.66473 0.01768 0.05524 0.0
H2255 H 0.67923 1.0007 0.0678 0.0
H2256 H 0.69099 0.01684 0.04078 0.0
H2257 H 0.6874 0.07957 0.12324 0.0
H2258 H 0.72114 0.09941 0.13032 0.0
H2259 H 0.70361 0.06596 0.13862 0.0
C2260 C 0.96059 0.67371 0.06684 0.0
C2261 C 0.95808 0.68733 0.0852 0.0
C2262 C 0.97262 0.65877 0.0698 0.0
C2263 C 0.98267 0.6578 0.09151 0.0
C2264 C 0.97909 0.67055 0.11026 0.0
C2265 C 0.9667 0.68493 0.10691 0.0
C2266 C 0.97561 0.64499 0.04949 0.0
C2267 C 0.98981 0.67041 0.13361 0.0
C2268 C 1.00656 0.61103 0.10606 0.0
C2269 C 0.03311 0.6264 0.10187 0.0
C2270 C 0.98962 0.62061 0.10201 0.0
C2271 C 0.99965 0.6463 0.09418 0.0
C2272 C 0.0265 0.66188 0.09018 0.0
C2273 C 0.04279 0.65165 0.09383 0.0
C2274 C 0.96106 0.6033 0.10604 0.0
C2275 C 0.03816 0.68957 0.08241 0.0
H2276 H 0.9538 0.67526 0.05007 0.0
H2277 H 0.96472 0.69518 0.12131 0.0
H2278 H 0.99613 0.65494 0.04403 0.0
H2279 H 0.97017 0.62492 0.05413 0.0
H2280 H 0.96363 0.64452 0.03478 0.0
H2281 H 0.98354 0.67947 0.1468 0.0
H2282 H 0.98368 0.65042 0.13904 0.0
H2283 H 1.01124 0.68112 0.1329 0.0
H2284 H 0.99899 0.59139 0.112 0.0
H2285 H 0.06333 0.66366 0.09067 0.0
H2286 H 0.95014 0.60236 0.09039 0.0
H2287 H 0.95444 0.61135 0.11982 0.0
H2288 H 0.95616 0.58342 0.11092 0.0
H2289 H 0.02928 0.69052 0.06607 0.0
H2290 H 0.05941 0.69903 0.07998 0.0
H2291 H 0.03409 0.70075 0.09521 0.0
C2292 C 0.28796 0.34304 0.44531 0.0
C2293 C 0.27542 0.31809 0.43614 0.0
C2294 C 0.31447 0.35989 0.44129 0.0
C2295 C 0.32872 0.35135 0.42817 0.0
C2296 C 0.31602 0.32624 0.41879 0.0
C2297 C 0.28959 0.31004 0.42277 0.0
C2298 C 0.32732 0.38667 0.45129 0.0
C2299 C 0.33051 0.31612 0.40507 0.0
C2300 C 0.3951 0.39449 0.40207 0.0
C2301 C 0.41101 0.39108 0.41763 0.0
C2302 C 0.36832 0.38297 0.40594 0.0
C2303 C 0.35727 0.36752 0.42567 0.0
C2304 C 0.37344 0.365 0.44185 0.0
C2305 C 0.40004 0.37688 0.43769 0.0
C2306 C 0.3517 0.38641 0.38846 0.0
C2307 C 0.36252 0.34848 0.46297 0.0
H2308 H 0.27705 0.34944 0.45545 0.0
H2309 H 0.28009 0.29077 0.41565 0.0
H2310 H 0.3417 0.38866 0.4643 0.0
H2311 H 0.33791 0.4012 0.43778 0.0
H2312 H 0.3132 0.39112 0.45945 0.0
H2313 H 0.31759 0.29642 0.39834 0.0
H2314 H 0.34056 0.32915 0.39046 0.0
H2315 H 0.34548 0.31559 0.4159 0.0
H2316 H 0.40344 0.40562 0.38664 0.0
H2317 H 0.41213 0.37428 0.44997 0.0
H2318 H 0.33812 0.39133 0.39696 0.0
H2319 H 0.33993 0.36804 0.37914 0.0
H2320 H 0.36344 0.40171 0.37582 0.0
H2321 H 0.34979 0.35387 0.47236 0.0
H2322 H 0.37787 0.35021 0.47477 0.0
H2323 H 0.35055 0.32796 0.45792 0.0
C2324 C 0.62187 1.00523 0.40082 0.0
C2325 C 0.62758 0.02558 0.41588 0.0
C2326 C 0.63301 0.98948 0.40382 0.0
C2327 C 0.65048 0.99449 0.4221 0.0
C2328 C 0.65548 0.01438 0.43779 0.0
C2329 C 0.64388 0.02951 0.43457 0.0
C2330 C 0.62688 0.96816 0.38695 0.0
C2331 C 0.67423 0.02069 0.45733 0.0
C2332 C 0.67492 0.94936 0.44078 0.0
C2333 C 0.6989 0.96043 0.42966 0.0
C2334 C 0.65824 0.95942 0.43766 0.0
C2335 C 0.666 0.98128 0.42344 0.0
C2336 C 0.69001 0.9922 0.41194 0.0
C2337 C 0.70601 0.98156 0.41507 0.0
C2338 C 0.63259 0.94703 0.44992 0.0
C2339 C 0.69931 0.0158 0.39696 0.0
H2340 H 0.60913 1.00191 0.38646 0.0
H2341 H 0.64834 0.04507 0.44643 0.0
H2342 H 0.64404 0.97345 0.37609 0.0
H2343 H 0.62223 0.95007 0.39605 0.0
H2344 H 0.61041 0.96445 0.37568 0.0
H2345 H 0.67458 0.0355 0.46895 0.0
H2346 H 0.66919 1.00311 0.46744 0.0
H2347 H 0.694 0.02798 0.45045 0.0
H2348 H 0.6692 0.93289 0.45192 0.0
H2349 H 0.72451 0.99031 0.4064 0.0
H2350 H 0.61682 0.94315 0.43775 0.0
H2351 H 0.6327 0.96039 0.46309 0.0
H2352 H 0.62823 0.92867 0.45839 0.0
H2353 H 0.68478 0.01238 0.3836 0.0
H2354 H 0.71799 0.02128 0.38847 0.0
H2355 H 0.7018 0.03234 0.4074 0.0
C2356 C 0.06536 0.72633 0.43823 0.0
C2357 C 0.0566 0.74017 0.42526 0.0
C2358 C 0.05543 0.69979 0.43455 0.0
C2359 C 0.03605 0.68682 0.41779 0.0
C2360 C 0.02778 0.70092 0.40422 0.0
C2361 C 0.03825 0.72736 0.40802 0.0
C2362 C 0.06501 0.68544 0.44909 0.0
C2363 C 1.00685 0.68784 0.38644 0.0
C2364 C 0.01372 0.61874 0.39654 0.0
C2365 C 0.99139 0.60439 0.40972 0.0
C2366 C 0.02932 0.64554 0.39971 0.0
C2367 C 0.02209 0.65819 0.41611 0.0
C2368 C 0.99983 0.64365 0.42969 0.0
C2369 C 0.98492 0.617 0.42643 0.0
C2370 C 0.05315 0.66041 0.38517 0.0
C2371 C 0.99112 0.65637 0.44709 0.0
H2372 H 0.07971 0.73614 0.45142 0.0
H2373 H 0.03138 0.73785 0.39783 0.0
H2374 H 0.04956 0.67248 0.46109 0.0
H2375 H 0.06978 0.6732 0.43825 0.0
H2376 H 0.08235 0.69873 0.45919 0.0
H2377 H 1.00385 0.70182 0.37629 0.0
H2378 H 1.0117 0.67645 0.37458 0.0
H2379 H 0.98836 0.67422 0.39493 0.0
H2380 H 0.01895 0.60908 0.38375 0.0
H2381 H 0.96771 0.60612 0.43671 0.0
H2382 H 0.07004 0.67286 0.39607 0.0
H2383 H 0.05033 0.67323 0.37327 0.0
H2384 H 0.05765 0.64748 0.37499 0.0
H2385 H 1.00697 0.66794 0.45924 0.0
H2386 H 0.974 0.64215 0.45696 0.0
H2387 H 0.98612 0.66976 0.43832 0.0
C2388 C 0.62178 0.61646 0.90172 0.0
C2389 C 0.62007 0.60145 0.92077 0.0
C2390 C 0.63401 0.64351 0.90335 0.0
C2391 C 0.64514 0.65572 0.92439 0.0
C2392 C 0.64223 0.64054 0.9439 0.0
C2393 C 0.62954 0.61366 0.94189 0.0
C2394 C 0.63621 0.65905 0.8823 0.0
C2395 C 0.65414 0.6527 0.96657 0.0
C2396 C 0.70634 0.72082 0.92268 0.0
C2397 C 0.6977 0.73746 0.93019 0.0
C2398 C 0.68932 0.69431 0.92048 0.0
C2399 C 0.66279 0.68413 0.92545 0.0
C2400 C 0.6538 0.70085 0.93272 0.0
C2401 C 0.67147 0.72737 0.93529 0.0
C2402 C 0.6999 0.67713 0.91324 0.0
C2403 C 0.62557 0.69073 0.93774 0.0
H2404 H 0.6143 0.60719 0.8854 0.0
H2405 H 0.62817 0.60228 0.95681 0.0
H2406 H 0.6316 0.6744 0.88643 0.0
H2407 H 0.65636 0.66863 0.87585 0.0
H2408 H 0.62316 0.64682 0.86843 0.0
H2409 H 0.64809 0.63824 0.98055 0.0
H2410 H 0.67551 0.66272 0.96513 0.0
H2411 H 0.64881 0.66735 0.97136 0.0
H2412 H 0.72664 0.72851 0.91882 0.0
H2413 H 0.6647 0.74024 0.94086 0.0
H2414 H 0.69004 0.66647 0.8975 0.0
H2415 H 0.69608 0.66263 0.92675 0.0
H2416 H 0.72103 0.68815 0.90993 0.0
H2417 H 0.6137 0.67988 0.9228 0.0
H2418 H 0.62144 0.70642 0.94189 0.0
H2419 H 0.61938 0.6771 0.95234 0.0
C2420 C 0.29631 0.95803 0.94837 0.0
C2421 C 0.27875 0.94229 0.93167 0.0
C2422 C 0.32305 0.96836 0.94523 0.0
C2423 C 0.33226 0.96222 0.92522 0.0
C2424 C 0.31438 0.94486 0.90913 0.0
C2425 C 0.28788 0.93542 0.91239 0.0
C2426 C 0.34148 0.98712 0.96261 0.0
C2427 C 0.32326 0.93721 0.8879 0.0
C2428 C 0.39839 0.01184 0.90264 0.0
C2429 C 0.41425 1.00272 0.91131 0.0
C2430 C 0.37174 0.99881 0.90705 0.0
C2431 C 0.36047 0.97573 0.92004 0.0
C2432 C 0.37619 0.96583 0.92804 0.0
C2433 C 0.40294 0.97959 0.9238 0.0
C2434 C 0.35575 0.01021 0.8984 0.0
C2435 C 0.36481 0.94094 0.9414 0.0
H2436 H 0.28927 0.96355 0.96316 0.0
H2437 H 0.27426 0.92309 0.89953 0.0
H2438 H 0.35573 0.98142 0.96799 0.0
H2439 H 0.35245 1.00658 0.95479 0.0
H2440 H 0.3313 0.98839 0.97801 0.0
H2441 H 0.30696 0.92109 0.87868 0.0
H2442 H 0.33279 0.95396 0.87614 0.0
H2443 H 0.33769 0.93138 0.89232 0.0
H2444 H 0.40696 0.02981 0.89316 0.0
H2445 H 0.41507 0.97241 0.93054 0.0
H2446 H 0.34637 0.01416 0.91298 0.0
H2447 H 0.34015 0.99626 0.88708 0.0
H2448 H 0.36749 0.02843 0.88876 0.0
H2449 H 0.35675 0.94311 0.95777 0.0
H2450 H 0.37934 0.93502 0.94519 0.0
H2451 H 0.34864 0.92526 0.93172 0.0
C2452 C 0.06079 0.34421 0.94643 0.0
C2453 C 0.0833 0.34858 0.93504 0.0
C2454 C 0.04902 0.35896 0.94136 0.0
C2455 C 0.06003 0.37861 0.92454 0.0
C2456 C 0.08327 0.38376 0.91363 0.0
C2457 C 0.09461 0.36872 0.919 0.0
C2458 C 0.02431 0.35292 0.95348 0.0
C2459 C 0.09571 0.4046 0.8957 0.0
C2460 C 0.01384 0.39618 0.89544 0.0
C2461 C 0.01819 0.4181 0.90772 0.0
C2462 C 0.02783 0.38356 0.90031 0.0
C2463 C 0.04669 0.3931 0.91785 0.0
C2464 C 0.05198 0.41588 0.92959 0.0
C2465 C 0.0377 0.42809 0.92439 0.0
C2466 C 0.0217 0.35942 0.88728 0.0
C2467 C 0.07202 0.42679 0.94829 0.0
H2468 H 0.05183 0.32869 0.95879 0.0
H2469 H 0.11201 0.3723 0.9101 0.0
H2470 H 0.02633 0.37058 0.96157 0.0
H2471 H 1.00831 0.34612 0.94093 0.0
H2472 H 0.01886 0.33787 0.96684 0.0
H2473 H 0.11456 0.40724 0.8898 0.0
H2474 H 0.08269 0.39963 0.88073 0.0
H2475 H 0.09879 0.42321 0.90249 0.0
H2476 H 0.99882 0.38826 0.88256 0.0
H2477 H 0.04129 0.44503 0.93398 0.0
H2478 H 0.01361 0.34269 0.89912 0.0
H2479 H 0.0396 0.36121 0.87982 0.0
H2480 H 1.00758 0.35532 0.87331 0.0
H2481 H 0.06584 0.41304 0.96281 0.0
H2482 H 0.07511 0.44559 0.95468 0.0
H2483 H 0.09072 0.42943 0.94204 0.0
C2484 C 0.72026 0.66767 0.56314 0.0
C2485 C 0.7382 0.66335 0.57495 0.0
C2486 C 0.69377 0.65357 0.56841 0.0
C2487 C 0.68493 0.63464 0.5859 0.0
C2488 C 0.7028 0.62951 0.59727 0.0
C2489 C 0.72917 0.64388 0.59166 0.0
C2490 C 0.67533 0.65955 0.55578 0.0
C2491 C 0.6942 0.60942 0.61592 0.0
C2492 C 0.6217 0.61952 0.61471 0.0
C2493 C 0.60375 0.59722 0.60307 0.0
C2494 C 0.64826 0.63147 0.60975 0.0
C2495 C 0.65714 0.62088 0.59277 0.0
C2496 C 0.63927 0.59773 0.58173 0.0
C2497 C 0.61285 0.58618 0.58703 0.0
C2498 C 0.66669 0.65603 0.62204 0.0
C2499 C 0.64792 0.5857 0.56364 0.0
H2500 H 0.727 0.68269 0.55026 0.0
H2501 H 0.74281 0.64033 0.60091 0.0
H2502 H 0.6594 0.64169 0.5482 0.0
H2503 H 0.66649 0.66716 0.56789 0.0
H2504 H 0.68504 0.67395 0.54194 0.0
H2505 H 0.71022 0.60667 0.62218 0.0
H2506 H 0.68645 0.61526 0.63054 0.0
H2507 H 0.67838 0.59066 0.60967 0.0
H2508 H 0.61493 0.62824 0.62711 0.0
H2509 H 0.59921 0.56894 0.57794 0.0
H2510 H 0.67545 0.67224 0.60965 0.0
H2511 H 0.68267 0.65423 0.62978 0.0
H2512 H 0.65699 0.66097 0.63569 0.0
H2513 H 0.65554 0.59878 0.54866 0.0
H2514 H 0.63194 0.56676 0.55782 0.0
H2515 H 0.66383 0.583 0.57023 0.0
C2516 C 0.36951 0.09371 0.58906 0.0
C2517 C 0.3488 0.08224 0.57361 0.0
C2518 C 0.38477 0.08246 0.59389 0.0
C2519 C 0.37924 0.05915 0.58302 0.0
C2520 C 0.35918 0.04815 0.56659 0.0
C2521 C 0.34424 0.05984 0.56205 0.0
C2522 C 0.40609 0.09494 0.61137 0.0
C2523 C 0.35276 0.02339 0.5545 0.0
C2524 C 0.42812 0.03594 0.58292 0.0
C2525 C 0.41818 0.01679 0.59993 0.0
C2526 C 0.41607 0.05035 0.57764 0.0
C2527 C 0.39351 0.04555 0.58962 0.0
C2528 C 0.38398 0.02698 0.60742 0.0
C2529 C 0.39643 0.01286 0.61238 0.0
C2530 C 0.42697 0.07009 0.55867 0.0
C2531 C 0.36005 0.02135 0.6207 0.0
H2532 H 0.37328 0.11105 0.59807 0.0
H2533 H 0.32831 0.05079 0.55011 0.0
H2534 H 0.40115 0.08227 0.6266 0.0
H2535 H 0.42444 0.09741 0.60434 0.0
H2536 H 0.40929 0.11405 0.61693 0.0
H2537 H 0.33768 0.01817 0.54121 0.0
H2538 H 0.37031 0.0251 0.54634 0.0
H2539 H 0.34575 0.00742 0.5671 0.0
H2540 H 0.44493 0.03919 0.5732 0.0
H2541 H 0.38857 0.99811 0.62551 0.0
H2542 H 0.43001 0.08894 0.56475 0.0
H2543 H 0.41299 0.06392 0.54434 0.0
H2544 H 0.4456 0.07278 0.55206 0.0
H2545 H 0.3623 0.03939 0.62814 0.0
H2546 H 0.35582 1.00724 0.63471 0.0
H2547 H 0.34318 0.01351 0.60904 0.0
C2548 C 1.01063 0.39037 0.61234 0.0
C2549 C 1.00668 0.40846 0.60041 0.0
C2550 C 0.99624 0.36395 0.60712 0.0
C2551 C 0.97756 0.3554 0.58945 0.0
C2552 C 0.97291 0.37346 0.57786 0.0
C2553 C 0.98742 0.39971 0.58353 0.0
C2554 C 1.00159 0.34526 0.62005 0.0
C2555 C 0.95321 0.36518 0.5589 0.0
C2556 C 0.96135 0.29207 0.56064 0.0
C2557 C 0.93821 0.27459 0.57156 0.0
C2558 C 0.97405 0.3185 0.56593 0.0
C2559 C 0.96345 0.32769 0.58265 0.0
C2560 C 0.93973 0.31027 0.59323 0.0
C2561 C 0.92736 0.284 0.5875 0.0
C2562 C 0.99918 0.3365 0.55408 0.0
C2563 C 0.92781 0.31925 0.61116 0.0
H2564 H 0.02545 0.3969 0.62538 0.0
H2565 H 0.98422 0.41349 0.57414 0.0
H2566 H 0.98341 0.3295 0.62741 0.0
H2567 H 1.0093 0.33628 0.60819 0.0
H2568 H 0.01574 0.35475 0.63409 0.0
H2569 H 0.95108 0.38142 0.55225 0.0
H2570 H 0.95903 0.35703 0.54459 0.0
H2571 H 0.9341 0.34977 0.56504 0.0
H2572 H 0.96992 0.28503 0.54833 0.0
H2573 H 0.90954 0.2707 0.59612 0.0
H2574 H 0.01506 0.34496 0.56678 0.0
H2575 H 0.99802 0.35268 0.54602 0.0
H2576 H 1.00422 0.32657 0.54073 0.0
H2577 H 0.94092 0.32697 0.62609 0.0
H2578 H 0.90876 0.30348 0.61711 0.0
H2579 H 0.92527 0.33514 0.60432 0.0
C2580 C 0.95137 0.65515 0.73761 0.0
C2581 C 0.93965 0.65668 0.75789 0.0
C2582 C 0.97817 0.66962 0.73456 0.0
C2583 C 0.99378 0.68637 0.7521 0.0
C2584 C 0.982 0.68928 0.77204 0.0
C2585 C 0.95502 0.67426 0.77478 0.0
C2586 C 0.98988 0.66566 0.71314 0.0
C2587 C 0.99798 0.70727 0.79096 0.0
C2588 C 0.06041 0.69381 0.75664 0.0
C2589 C 0.0759 0.71714 0.74513 0.0
C2590 C 0.03383 0.68398 0.75939 0.0
C2591 C 0.02236 0.69798 0.75072 0.0
C2592 C 0.03792 0.72185 0.73947 0.0
C2593 C 0.06454 0.73107 0.7366 0.0
C2594 C 0.01793 0.65821 0.77111 0.0
C2595 C 0.02639 0.73746 0.7303 0.0
H2596 H 0.93968 0.64182 0.72433 0.0
H2597 H 0.94612 0.67573 0.79041 0.0
H2598 H 1.00365 0.68446 0.70528 0.0
H2599 H 1.00088 0.65582 0.71756 0.0
H2600 H 0.975 0.65381 0.70026 0.0
H2601 H 0.98587 0.71025 0.80363 0.0
H2602 H 1.00866 0.69914 0.79997 0.0
H2603 H 0.01251 0.72626 0.78387 0.0
H2604 H 0.06899 0.68286 0.76322 0.0
H2605 H 0.07647 0.74923 0.72788 0.0
H2606 H 1.0033 0.64425 0.75907 0.0
H2607 H 1.00736 0.66017 0.78583 0.0
H2608 H 0.02994 0.65006 0.77735 0.0
H2609 H 0.01256 0.7267 0.71639 0.0
H2610 H 0.04134 0.75647 0.72352 0.0
H2611 H 0.01539 0.74065 0.74394 0.0
C2612 C 0.30999 0.36326 0.76913 0.0
C2613 C 0.29361 0.35883 0.75039 0.0
C2614 C 0.32163 0.34823 0.77281 0.0
C2615 C 0.31663 0.32799 0.75754 0.0
C2616 C 0.29916 0.32257 0.73918 0.0
C2617 C 0.28795 0.33817 0.73572 0.0
C2618 C 0.34036 0.35495 0.79243 0.0
C2619 C 0.29309 0.30091 0.72271 0.0
C2620 C 0.3718 0.31435 0.7513 0.0
C2621 C 0.3644 0.29329 0.76606 0.0
C2622 C 0.35607 0.32526 0.74796 0.0
C2623 C 0.33205 0.31472 0.75941 0.0
C2624 C 0.32408 0.29303 0.77391 0.0
C2625 C 0.34048 0.28267 0.77723 0.0
C2626 C 0.36559 0.34865 0.73267 0.0
C2627 C 0.29845 0.28107 0.78617 0.0
H2628 H 0.31442 0.37906 0.78068 0.0
H2629 H 0.27516 0.33449 0.72132 0.0
H2630 H 0.3353 0.33759 0.80288 0.0
H2631 H 0.36013 0.36209 0.78563 0.0
H2632 H 0.3407 0.37002 0.80371 0.0
H2633 H 0.27677 0.29708 0.7112 0.0
H2634 H 0.31034 0.30591 0.71208 0.0
H2635 H 0.28825 0.28296 0.73216 0.0
H2636 H 0.39027 0.32275 0.74261 0.0
H2637 H 0.33454 0.26626 0.78848 0.0
H2638 H 0.36808 0.36538 0.74283 0.0
H2639 H 0.35116 0.34509 0.71917 0.0
H2640 H 0.3843 0.35391 0.72436 0.0
H2641 H 0.29855 0.29488 0.79885 0.0
H2642 H 0.29406 0.263 0.79521 0.0
H2643 H 0.28268 0.27679 0.77386 0.0
C2644 C 0.65527 0.9546 0.76652 0.0
C2645 C 0.66033 0.94095 0.74979 0.0
C2646 C 0.67077 0.98136 0.76867 0.0
C2647 C 0.69239 0.99484 0.75413 0.0
C2648 C 0.69829 0.98104 0.7378 0.0
C2649 C 0.68189 0.95424 0.73555 0.0
C2650 C 0.66324 0.99533 0.78579 0.0
C2651 C 0.72157 0.99469 0.72242 0.0
C2652 C 0.71091 0.0641 0.74208 0.0
C2653 C 0.73023 0.07762 0.75838 0.0
C2654 C 0.69894 0.03726 0.7402 0.0
C2655 C 0.70695 0.02353 0.75456 0.0
C2656 C 0.72715 0.03714 0.77052 0.0
C2657 C 0.7383 0.06407 0.77252 0.0
C2658 C 0.67693 0.02353 0.72349 0.0
C2659 C 0.73664 0.02319 0.78568 0.0
H2660 H 0.63852 0.94445 0.7775 0.0
H2661 H 0.68599 0.94368 0.72277 0.0
H2662 H 0.67965 1.00721 0.79732 0.0
H2663 H 0.65834 0.00861 0.77669 0.0
H2664 H 0.64637 0.98189 0.79635 0.0
H2665 H 0.72528 0.98094 0.71269 0.0
H2666 H 0.71859 1.00703 0.71007 0.0
H2667 H 0.73899 0.00748 0.73262 0.0
H2668 H 0.70443 0.07444 0.73121 0.0
H2669 H 0.75338 0.07452 0.78499 0.0
H2670 H 0.65893 0.0104 0.73289 0.0
H2671 H 0.68097 0.01152 0.71166 0.0
H2672 H 0.67346 0.03712 0.71321 0.0
H2673 H 0.72139 0.011 0.79815 0.0
H2674 H 0.75432 0.03674 0.79527 0.0
H2675 H 0.74085 0.0102 0.77533 0.0
C2676 C 0.28794 0.9516 0.23629 0.0
C2677 C 0.29983 0.93944 0.24735 0.0
C2678 C 0.2977 0.9783 0.23871 0.0
C2679 C 0.32006 0.99311 0.25216 0.0
C2680 C 0.33188 0.9808 0.26353 0.0
C2681 C 0.32153 0.95418 0.26111 0.0
C2682 C 0.28437 0.99072 0.22662 0.0
C2683 C 0.35602 0.99588 0.27769 0.0
C2684 C 0.3667 0.06328 0.23907 0.0
C2685 C 0.36303 0.07585 0.25771 0.0
C2686 C 0.35195 0.0365 0.23651 0.0
C2687 C 0.33274 0.02176 0.25287 0.0
C2688 C 0.32796 0.03437 0.27112 0.0
C2689 C 0.3433 0.06132 0.27343 0.0
C2690 C 0.35798 0.02388 0.21696 0.0
C2691 C 0.30735 0.0193 0.28869 0.0
H2692 H 0.27101 0.94026 0.22583 0.0
H2693 H 0.33089 0.94498 0.26971 0.0
H2694 H 0.28041 1.00252 0.2388 0.0
H2695 H 0.29719 1.0039 0.2131 0.0
H2696 H 0.26589 0.97627 0.21862 0.0
H2697 H 0.36226 0.98325 0.28613 0.0
H2698 H 0.37202 0.00987 0.26665 0.0
H2699 H 0.35277 1.00708 0.29104 0.0
H2700 H 0.38176 0.07429 0.22669 0.0
H2701 H 0.34019 0.07089 0.28776 0.0
H2702 H 0.34011 0.01079 0.20745 0.0
H2703 H 0.366 0.01201 0.22378 0.0
H2704 H 0.37218 0.0382 0.20479 0.0
H2705 H 0.28902 1.00536 0.28021 0.0
H2706 H 0.30366 0.03206 0.29993 0.0
H2707 H 0.31344 0.00804 0.29952 0.0
C2708 C 0.95408 0.27738 0.27096 0.0
C2709 C 0.94501 0.29478 0.26836 0.0
C2710 C 0.98054 0.28562 0.26827 0.0
C2711 C 0.99821 0.31191 0.26337 0.0
C2712 C 0.98909 0.32959 0.26146 0.0
C2713 C 0.96264 0.32075 0.26374 0.0
C2714 C 0.9895 0.26616 0.27009 0.0
C2715 C 1.00726 0.35789 0.25685 0.0
C2716 C 0.06957 0.34454 0.27709 0.0
C2717 C 0.08071 0.3491 0.25522 0.0
C2718 C 0.04271 0.33106 0.2801 0.0
C2719 C 0.02642 0.3215 0.26079 0.0
C2720 C 0.03749 0.32438 0.23878 0.0
C2721 C 0.06455 0.3383 0.23622 0.0
C2722 C 0.03182 0.32876 0.30384 0.0
C2723 C 0.02076 0.31402 0.2178 0.0
H2724 H 0.9404 0.25722 0.27421 0.0
H2725 H 0.95567 0.33427 0.2618 0.0
H2726 H 0.99827 0.26525 0.25366 0.0
H2727 H 1.00467 0.27217 0.28337 0.0
H2728 H 0.97345 0.24656 0.27435 0.0
H2729 H 0.99711 0.36919 0.25644 0.0
H2730 H 0.02241 0.3661 0.27023 0.0
H2731 H 0.01714 0.36036 0.24023 0.0
H2732 H 0.08183 0.35253 0.29197 0.0
H2733 H 0.07296 0.34154 0.21929 0.0
H2734 H 0.01632 0.3087 0.30728 0.0
H2735 H 0.02309 0.3413 0.30521 0.0
H2736 H 0.04687 0.33458 0.31726 0.0
H2737 H 1.00495 0.29396 0.22076 0.0
H2738 H 0.03202 0.31434 0.20258 0.0
H2739 H 1.01168 0.32589 0.21403 0.0
C2740 C 0.76201 0.69162 0.24722 0.0
C2741 C 0.75375 0.67496 0.26618 0.0
C2742 C 0.74782 0.70307 0.23943 0.0
C2743 C 0.72494 0.69799 0.251 0.0
C2744 C 0.71754 0.68271 0.2711 0.0
C2745 C 0.73197 0.67132 0.27841 0.0
C2746 C 0.75641 0.71921 0.21795 0.0
C2747 C 0.6935 0.67714 0.28415 0.0
C2748 C 0.69178 0.73707 0.2388 0.0
C2749 C 0.67106 0.72003 0.22493 0.0
C2750 C 0.70991 0.73052 0.24698 0.0
C2751 C 0.70743 0.70648 0.24095 0.0
C2752 C 0.68734 0.68982 0.22601 0.0
C2753 C 0.66936 0.69673 0.21829 0.0
C2754 C 0.73096 0.74877 0.26292 0.0
C2755 C 0.68423 0.66419 0.21885 0.0
H2756 H 0.77882 0.69465 0.23763 0.0
H2757 H 0.72549 0.6586 0.29313 0.0
H2758 H 0.74268 0.70861 0.20392 0.0
H2759 H 0.7563 0.73752 0.22047 0.0
H2760 H 0.77606 0.72379 0.21248 0.0
H2761 H 0.69191 0.6673 0.30068 0.0
H2762 H 0.6933 0.69527 0.28755 0.0
H2763 H 0.67618 0.66462 0.27373 0.0
H2764 H 0.69318 0.75505 0.24417 0.0
H2765 H 0.65348 0.68349 0.20754 0.0
H2766 H 0.75008 0.75229 0.25695 0.0
H2767 H 0.7277 0.73995 0.28017 0.0
H2768 H 0.73159 0.76757 0.26443 0.0
H2769 H 0.70258 0.66693 0.21154 0.0
H2770 H 0.66865 0.65423 0.20601 0.0
H2771 H 0.6796 0.65146 0.234 0.0
loop_
_geom_bond_atom_site_label_1
_geom_bond_atom_site_label_2
_geom_bond_distance
_geom_bond_site_symmetry_2
_ccdc_geom_bond_type
Mg0 O7 2.141 . S
Mg0 O8 2.048 . S
Mg0 O9 2.048 . S
Mg0 O12 2.141 . S
C1 O2 1.313 . S
C1 O8 1.195 . S
O2 C1 1.313 . S
C3 O4 1.245 . S
C3 O12 1.289 . S
O4 C3 1.245 . S
C5 O6 1.245 . S
C5 O7 1.289 . S
O6 C5 1.245 . S
O7 Mg0 2.141 . S
O7 C5 1.289 . S
O8 Mg0 2.048 . S
O8 C1 1.195 . S
O9 Mg0 2.048 . S
O9 C10 1.195 . S
C10 O9 1.195 . S
C10 O11 1.313 . S
O11 C10 1.313 . S
O12 Mg0 2.141 . S
O12 C3 1.289 . S
Mg13 O20 2.141 . S
Mg13 O21 2.048 . S
Mg13 O22 2.048 . S
Mg13 O25 2.141 . S
C14 O15 1.313 . S
C14 O21 1.195 . S
O15 C14 1.313 . S
C16 O17 1.245 . S
C16 O25 1.289 . S
O17 C16 1.245 . S
C18 O19 1.245 . S
C18 O20 1.289 . S
O19 C18 1.245 . S
O20 Mg13 2.141 . S
O20 C18 1.289 . S
O21 Mg13 2.048 . S
O21 C14 1.195 . S
O22 Mg13 2.048 . S
O22 C23 1.195 . S
C23 O22 1.195 . S
C23 O24 1.313 . S
O24 C23 1.313 . S
O25 Mg13 2.141 . S
O25 C16 1.289 . S
Mg26 O33 2.141 . S
Mg26 O34 2.048 . S
Mg26 O35 2.048 . S
Mg26 O38 2.141 . S
C27 O28 1.313 . S
C27 O34 1.195 . S
O28 C27 1.313 . S
C29 O30 1.245 . S
C29 O38 1.289 . S
O30 C29 1.245 . S
C31 O32 1.245 . S
C31 O33 1.289 . S
O32 C31 1.245 . S
O33 Mg26 2.141 . S
O33 C31 1.289 . S
O34 Mg26 2.048 . S
O34 C27 1.195 . S
O35 Mg26 2.048 . S
O35 C36 1.195 . S
C36 O35 1.195 . S
C36 O37 1.313 . S
O37 C36 1.313 . S
O38 Mg26 2.141 . S
O38 C29 1.289 . S
Mg39 O46 2.141 . S
Mg39 O47 2.048 . S
Mg39 O48 2.048 . S
Mg39 O51 2.141 . S
C40 O41 1.313 . S
C40 O47 1.195 . S
O41 C40 1.313 . S
C42 O43 1.245 . S
C42 O51 1.289 . S
O43 C42 1.245 . S
C44 O45 1.245 . S
C44 O46 1.289 . S
O45 C44 1.245 . S
O46 Mg39 2.141 . S
O46 C44 1.289 . S
O47 Mg39 2.048 . S
O47 C40 1.195 . S
O48 Mg39 2.048 . S
O48 C49 1.195 . S
C49 O48 1.195 . S
C49 O50 1.313 . S
O50 C49 1.313 . S
O51 Mg39 2.141 . S
O51 C42 1.289 . S
Mg52 O59 2.141 . S
Mg52 O60 2.048 . S
Mg52 O61 2.048 . S
Mg52 O64 2.141 . S
C53 O54 1.313 . S
C53 O60 1.195 . S
O54 C53 1.313 . S
C55 O56 1.245 . S
C55 O64 1.289 . S
O56 C55 1.245 . S
C57 O58 1.245 . S
C57 O59 1.289 . S
O58 C57 1.245 . S
O59 Mg52 2.141 . S
O59 C57 1.289 . S
O60 Mg52 2.048 . S
O60 C53 1.195 . S
O61 Mg52 2.048 . S
O61 C62 1.195 . S
C62 O61 1.195 . S
C62 O63 1.313 . S
O63 C62 1.313 . S
O64 Mg52 2.141 . S
O64 C55 1.289 . S
Mg65 O72 2.141 . S
Mg65 O73 2.048 . S
Mg65 O74 2.048 . S
Mg65 O77 2.141 . S
C66 O67 1.313 . S
C66 O73 1.195 . S
O67 C66 1.313 . S
C68 O69 1.245 . S
C68 O77 1.289 . S
O69 C68 1.245 . S
C70 O71 1.245 . S
C70 O72 1.289 . S
O71 C70 1.245 . S
O72 Mg65 2.141 . S
O72 C70 1.289 . S
O73 Mg65 2.048 . S
O73 C66 1.195 . S
O74 Mg65 2.048 . S
O74 C75 1.195 . S
C75 O74 1.195 . S
C75 O76 1.313 . S
O76 C75 1.313 . S
O77 Mg65 2.141 . S
O77 C68 1.289 . S
Mg78 O85 2.141 . S
Mg78 O86 2.048 . S
Mg78 O87 2.048 . S
Mg78 O90 2.141 . S
C79 O80 1.313 . S
C79 O86 1.195 . S
O80 C79 1.313 . S
C81 O82 1.245 . S
C81 O90 1.289 . S
O82 C81 1.245 . S
C83 O84 1.245 . S
C83 O85 1.289 . S
O84 C83 1.245 . S
O85 Mg78 2.141 . S
O85 C83 1.289 . S
O86 Mg78 2.048 . S
O86 C79 1.195 . S
O87 Mg78 2.048 . S
O87 C88 1.195 . S
C88 O87 1.195 . S
C88 O89 1.313 . S
O89 C88 1.313 . S
O90 Mg78 2.141 . S
O90 C81 1.289 . S
Mg91 O98 2.141 . S
Mg91 O99 2.048 . S
Mg91 O100 2.048 . S
Mg91 O103 2.141 . S
C92 O93 1.313 . S
C92 O99 1.195 . S
O93 C92 1.313 . S
C94 O95 1.245 . S
C94 O103 1.289 . S
O95 C94 1.245 . S
C96 O97 1.245 . S
C96 O98 1.289 . S
O97 C96 1.245 . S
O98 Mg91 2.141 . S
O98 C96 1.289 . S
O99 Mg91 2.048 . S
O99 C92 1.195 . S
O100 Mg91 2.048 . S
O100 C101 1.195 . S
C101 O100 1.195 . S
C101 O102 1.313 . S
O102 C101 1.313 . S
O103 Mg91 2.141 . S
O103 C94 1.289 . S
Mg104 O111 2.141 . S
Mg104 O112 2.048 . S
Mg104 O113 2.048 . S
Mg104 O116 2.141 . S
C105 O106 1.313 . S
C105 O112 1.195 . S
O106 C105 1.313 . S
C107 O108 1.245 . S
C107 O116 1.289 . S
O108 C107 1.245 . S
C109 O110 1.245 . S
C109 O111 1.289 . S
O110 C109 1.245 . S
O111 Mg104 2.141 . S
O111 C109 1.289 . S
O112 Mg104 2.048 . S
O112 C105 1.195 . S
O113 Mg104 2.048 . S
O113 C114 1.195 . S
C114 O113 1.195 . S
C114 O115 1.313 . S
O115 C114 1.313 . S
O116 Mg104 2.141 . S
O116 C107 1.289 . S
Mg117 O124 2.141 . S
Mg117 O125 2.048 . S
Mg117 O126 2.048 . S
Mg117 O129 2.141 . S
C118 O119 1.313 . S
C118 O125 1.195 . S
O119 C118 1.313 . S
C120 O121 1.245 . S
C120 O129 1.289 . S
O121 C120 1.245 . S
C122 O123 1.245 . S
C122 O124 1.289 . S
O123 C122 1.245 . S
O124 Mg117 2.141 . S
O124 C122 1.289 . S
O125 Mg117 2.048 . S
O125 C118 1.195 . S
O126 Mg117 2.048 . S
O126 C127 1.195 . S
C127 O126 1.195 . S
C127 O128 1.313 . S
O128 C127 1.313 . S
O129 Mg117 2.141 . S
O129 C120 1.289 . S
Mg130 O137 2.141 . S
Mg130 O138 2.048 . S
Mg130 O139 2.048 . S
Mg130 O142 2.141 . S
C131 O132 1.313 . S
C131 O138 1.195 . S
O132 C131 1.313 . S
C133 O134 1.245 . S
C133 O142 1.289 . S
O134 C133 1.245 . S
C135 O136 1.245 . S
C135 O137 1.289 . S
O136 C135 1.245 . S
O137 Mg130 2.141 . S
O137 C135 1.289 . S
O138 Mg130 2.048 . S
O138 C131 1.195 . S
O139 Mg130 2.048 . S
O139 C140 1.195 . S
C140 O139 1.195 . S
C140 O141 1.313 . S
O141 C140 1.313 . S
O142 Mg130 2.141 . S
O142 C133 1.289 . S
Mg143 O150 2.141 . S
Mg143 O151 2.048 . S
Mg143 O152 2.048 . S
Mg143 O155 2.141 . S
C144 O145 1.313 . S
C144 O151 1.195 . S
O145 C144 1.313 . S
C146 O147 1.245 . S
C146 O155 1.289 . S
O147 C146 1.245 . S
C148 O149 1.245 . S
C148 O150 1.289 . S
O149 C148 1.245 . S
O150 Mg143 2.141 . S
O150 C148 1.289 . S
O151 Mg143 2.048 . S
O151 C144 1.195 . S
O152 Mg143 2.048 . S
O152 C153 1.195 . S
C153 O152 1.195 . S
C153 O154 1.313 . S
O154 C153 1.313 . S
O155 Mg143 2.141 . S
O155 C146 1.289 . S
Mg156 O163 2.141 . S
Mg156 O164 2.048 . S
Mg156 O165 2.048 . S
Mg156 O168 2.141 . S
C157 O158 1.313 . S
C157 O164 1.195 . S
O158 C157 1.313 . S
C159 O160 1.245 . S
C159 O168 1.289 . S
O160 C159 1.245 . S
C161 O162 1.245 . S
C161 O163 1.289 . S
O162 C161 1.245 . S
O163 Mg156 2.141 . S
O163 C161 1.289 . S
O164 Mg156 2.048 . S
O164 C157 1.195 . S
O165 Mg156 2.048 . S
O165 C166 1.195 . S
C166 O165 1.195 . S
C166 O167 1.313 . S
O167 C166 1.313 . S
O168 Mg156 2.141 . S
O168 C159 1.289 . S
Mg169 O176 2.141 . S
Mg169 O177 2.048 . S
Mg169 O178 2.048 . S
Mg169 O181 2.141 . S
C170 O171 1.313 . S
C170 O177 1.195 . S
O171 C170 1.313 . S
C172 O173 1.245 . S
C172 O181 1.289 . S
O173 C172 1.245 . S
C174 O175 1.245 . S
C174 O176 1.289 . S
O175 C174 1.245 . S
O176 Mg169 2.141 . S
O176 C174 1.289 . S
O177 Mg169 2.048 . S
O177 C170 1.195 . S
O178 Mg169 2.048 . S
O178 C179 1.195 . S
C179 O178 1.195 . S
C179 O180 1.313 . S
O180 C179 1.313 . S
O181 Mg169 2.141 . S
O181 C172 1.289 . S
Mg182 O189 2.141 . S
Mg182 O190 2.048 . S
Mg182 O191 2.048 . S
Mg182 O194 2.141 . S
C183 O184 1.313 . S
C183 O190 1.195 . S
O184 C183 1.313 . S
C185 O186 1.245 . S
C185 O194 1.289 . S
O186 C185 1.245 . S
C187 O188 1.245 . S
C187 O189 1.289 . S
O188 C187 1.245 . S
O189 Mg182 2.141 . S
O189 C187 1.289 . S
O190 Mg182 2.048 . S
O190 C183 1.195 . S
O191 Mg182 2.048 . S
O191 C192 1.195 . S
C192 O191 1.195 . S
C192 O193 1.313 . S
O193 C192 1.313 . S
O194 Mg182 2.141 . S
O194 C185 1.289 . S
Mg195 O202 2.141 . S
Mg195 O203 2.048 . S
Mg195 O204 2.048 . S
Mg195 O207 2.141 . S
C196 O197 1.313 . S
C196 O203 1.195 . S
O197 C196 1.313 . S
C198 O199 1.245 . S
C198 O207 1.289 . S
O199 C198 1.245 . S
C200 O201 1.245 . S
C200 O202 1.289 . S
O201 C200 1.245 . S
O202 Mg195 2.141 . S
O202 C200 1.289 . S
O203 Mg195 2.048 . S
O203 C196 1.195 . S
O204 Mg195 2.048 . S
O204 C205 1.195 . S
C205 O204 1.195 . S
C205 O206 1.313 . S
O206 C205 1.313 . S
O207 Mg195 2.141 . S
O207 C198 1.289 . S
Mg208 O215 2.141 . S
Mg208 O216 2.048 . S
Mg208 O217 2.048 . S
Mg208 O220 2.141 . S
C209 O210 1.313 . S
C209 O216 1.195 . S
O210 C209 1.313 . S
C211 O212 1.245 . S
C211 O220 1.289 . S
O212 C211 1.245 . S
C213 O214 1.245 . S
C213 O215 1.289 . S
O214 C213 1.245 . S
O215 Mg208 2.141 . S
O215 C213 1.289 . S
O216 Mg208 2.048 . S
O216 C209 1.195 . S
O217 Mg208 2.048 . S
O217 C218 1.195 . S
C218 O217 1.195 . S
C218 O219 1.313 . S
O219 C218 1.313 . S
O220 Mg208 2.141 . S
O220 C211 1.289 . S
Mg221 O228 2.141 . S
Mg221 O229 2.048 . S
Mg221 O230 2.048 . S
Mg221 O233 2.141 . S
C222 O223 1.313 . S
C222 O229 1.195 . S
O223 C222 1.313 . S
C224 O225 1.245 . S
C224 O233 1.289 . S
O225 C224 1.245 . S
C226 O227 1.245 . S
C226 O228 1.289 . S
O227 C226 1.245 . S
O228 Mg221 2.141 . S
O228 C226 1.289 . S
O229 Mg221 2.048 . S
O229 C222 1.195 . S
O230 Mg221 2.048 . S
O230 C231 1.195 . S
C231 O230 1.195 . S
C231 O232 1.313 . S
O232 C231 1.313 . S
O233 Mg221 2.141 . S
O233 C224 1.289 . S
Mg234 O241 2.141 . S
Mg234 O242 2.048 . S
Mg234 O243 2.048 . S
Mg234 O246 2.141 . S
C235 O236 1.313 . S
C235 O242 1.195 . S
O236 C235 1.313 . S
C237 O238 1.245 . S
C237 O246 1.289 . S
O238 C237 1.245 . S
C239 O240 1.245 . S
C239 O241 1.289 . S
O240 C239 1.245 . S
O241 Mg234 2.141 . S
O241 C239 1.289 . S
O242 Mg234 2.048 . S
O242 C235 1.195 . S
O243 Mg234 2.048 . S
O243 C244 1.195 . S
C244 O243 1.195 . S
C244 O245 1.313 . S
O245 C244 1.313 . S
O246 Mg234 2.141 . S
O246 C237 1.289 . S
Mg247 O254 2.141 . S
Mg247 O255 2.048 . S
Mg247 O256 2.048 . S
Mg247 O259 2.141 . S
C248 O249 1.313 . S
C248 O255 1.195 . S
O249 C248 1.313 . S
C250 O251 1.245 . S
C250 O259 1.289 . S
O251 C250 1.245 . S
C252 O253 1.245 . S
C252 O254 1.289 . S
O253 C252 1.245 . S
O254 Mg247 2.141 . S
O254 C252 1.289 . S
O255 Mg247 2.048 . S
O255 C248 1.195 . S
O256 Mg247 2.048 . S
O256 C257 1.195 . S
C257 O256 1.195 . S
C257 O258 1.313 . S
O258 C257 1.313 . S
O259 Mg247 2.141 . S
O259 C250 1.289 . S
Mg260 O267 2.141 . S
Mg260 O268 2.048 . S
Mg260 O269 2.048 . S
Mg260 O272 2.141 . S
C261 O262 1.313 . S
C261 O268 1.195 . S
O262 C261 1.313 . S
C263 O264 1.245 . S
C263 O272 1.289 . S
O264 C263 1.245 . S
C265 O266 1.245 . S
C265 O267 1.289 . S
O266 C265 1.245 . S
O267 Mg260 2.141 . S
O267 C265 1.289 . S
O268 Mg260 2.048 . S
O268 C261 1.195 . S
O269 Mg260 2.048 . S
O269 C270 1.195 . S
C270 O269 1.195 . S
C270 O271 1.313 . S
O271 C270 1.313 . S
O272 Mg260 2.141 . S
O272 C263 1.289 . S
Mg273 O280 2.141 . S
Mg273 O281 2.048 . S
Mg273 O282 2.048 . S
Mg273 O285 2.141 . S
C274 O275 1.313 . S
C274 O281 1.195 . S
O275 C274 1.313 . S
C276 O277 1.245 . S
C276 O285 1.289 . S
O277 C276 1.245 . S
C278 O279 1.245 . S
C278 O280 1.289 . S
O279 C278 1.245 . S
O280 Mg273 2.141 . S
O280 C278 1.289 . S
O281 Mg273 2.048 . S
O281 C274 1.195 . S
O282 Mg273 2.048 . S
O282 C283 1.195 . S
C283 O282 1.195 . S
C283 O284 1.313 . S
O284 C283 1.313 . S
O285 Mg273 2.141 . S
O285 C276 1.289 . S
Mg286 O293 2.141 . S
Mg286 O294 2.048 . S
Mg286 O295 2.048 . S
Mg286 O298 2.141 . S
C287 O288 1.313 . S
C287 O294 1.195 . S
O288 C287 1.313 . S
C289 O290 1.245 . S
C289 O298 1.289 . S
O290 C289 1.245 . S
C291 O292 1.245 . S
C291 O293 1.289 . S
O292 C291 1.245 . S
O293 Mg286 2.141 . S
O293 C291 1.289 . S
O294 Mg286 2.048 . S
O294 C287 1.195 . S
O295 Mg286 2.048 . S
O295 C296 1.195 . S
C296 O295 1.195 . S
C296 O297 1.313 . S
O297 C296 1.313 . S
O298 Mg286 2.141 . S
O298 C289 1.289 . S
Mg299 O306 2.141 . S
Mg299 O307 2.048 . S
Mg299 O308 2.048 . S
Mg299 O311 2.141 . S
C300 O301 1.313 . S
C300 O307 1.195 . S
O301 C300 1.313 . S
C302 O303 1.245 . S
C302 O311 1.289 . S
O303 C302 1.245 . S
C304 O305 1.245 . S
C304 O306 1.289 . S
O305 C304 1.245 . S
O306 Mg299 2.141 . S
O306 C304 1.289 . S
O307 Mg299 2.048 . S
O307 C300 1.195 . S
O308 Mg299 2.048 . S
O308 C309 1.195 . S
C309 O308 1.195 . S
C309 O310 1.313 . S
O310 C309 1.313 . S
O311 Mg299 2.141 . S
O311 C302 1.289 . S
Mg312 O319 2.141 . S
Mg312 O320 2.048 . S
Mg312 O321 2.048 . S
Mg312 O324 2.141 . S
C313 O314 1.313 . S
C313 O320 1.195 . S
O314 C313 1.313 . S
C315 O316 1.245 . S
C315 O324 1.289 . S
O316 C315 1.245 . S
C317 O318 1.245 . S
C317 O319 1.289 . S
O318 C317 1.245 . S
O319 Mg312 2.141 . S
O319 C317 1.289 . S
O320 Mg312 2.048 . S
O320 C313 1.195 . S
O321 Mg312 2.048 . S
O321 C322 1.195 . S
C322 O321 1.195 . S
C322 O323 1.313 . S
O323 C322 1.313 . S
O324 Mg312 2.141 . S
O324 C315 1.289 . S
Mg325 O332 2.141 . S
Mg325 O333 2.048 . S
Mg325 O334 2.048 . S
Mg325 O337 2.141 . S
C326 O327 1.313 . S
C326 O333 1.195 . S
O327 C326 1.313 . S
C328 O329 1.245 . S
C328 O337 1.289 . S
O329 C328 1.245 . S
C330 O331 1.245 . S
C330 O332 1.289 . S
O331 C330 1.245 . S
O332 Mg325 2.141 . S
O332 C330 1.289 . S
O333 Mg325 2.048 . S
O333 C326 1.195 . S
O334 Mg325 2.048 . S
O334 C335 1.195 . S
C335 O334 1.195 . S
C335 O336 1.313 . S
O336 C335 1.313 . S
O337 Mg325 2.141 . S
O337 C328 1.289 . S
Mg338 O345 2.141 . S
Mg338 O346 2.048 . S
Mg338 O347 2.048 . S
Mg338 O350 2.141 . S
C339 O340 1.313 . S
C339 O346 1.195 . S
O340 C339 1.313 . S
C341 O342 1.245 . S
C341 O350 1.289 . S
O342 C341 1.245 . S
C343 O344 1.245 . S
C343 O345 1.289 . S
O344 C343 1.245 . S
O345 Mg338 2.141 . S
O345 C343 1.289 . S
O346 Mg338 2.048 . S
O346 C339 1.195 . S
O347 Mg338 2.048 . S
O347 C348 1.195 . S
C348 O347 1.195 . S
C348 O349 1.313 . S
O349 C348 1.313 . S
O350 Mg338 2.141 . S
O350 C341 1.289 . S
Mg351 O358 2.141 . S
Mg351 O359 2.048 . S
Mg351 O360 2.048 . S
Mg351 O363 2.141 . S
C352 O353 1.313 . S
C352 O359 1.195 . S
O353 C352 1.313 . S
C354 O355 1.245 . S
C354 O363 1.289 . S
O355 C354 1.245 . S
C356 O357 1.245 . S
C356 O358 1.289 . S
O357 C356 1.245 . S
O358 Mg351 2.141 . S
O358 C356 1.289 . S
O359 Mg351 2.048 . S
O359 C352 1.195 . S
O360 Mg351 2.048 . S
O360 C361 1.195 . S
C361 O360 1.195 . S
C361 O362 1.313 . S
O362 C361 1.313 . S
O363 Mg351 2.141 . S
O363 C354 1.289 . S
Mg364 O371 2.141 . S
Mg364 O372 2.048 . S
Mg364 O373 2.048 . S
Mg364 O376 2.141 . S
C365 O366 1.313 . S
C365 O372 1.195 . S
O366 C365 1.313 . S
C367 O368 1.245 . S
C367 O376 1.289 . S
O368 C367 1.245 . S
C369 O370 1.245 . S
C369 O371 1.289 . S
O370 C369 1.245 . S
O371 Mg364 2.141 . S
O371 C369 1.289 . S
O372 Mg364 2.048 . S
O372 C365 1.195 . S
O373 Mg364 2.048 . S
O373 C374 1.195 . S
C374 O373 1.195 . S
C374 O375 1.313 . S
O375 C374 1.313 . S
O376 Mg364 2.141 . S
O376 C367 1.289 . S
Mg377 O384 2.141 . S
Mg377 O385 2.048 . S
Mg377 O386 2.048 . S
Mg377 O389 2.141 . S
C378 O379 1.313 . S
C378 O385 1.195 . S
O379 C378 1.313 . S
C380 O381 1.245 . S
C380 O389 1.289 . S
O381 C380 1.245 . S
C382 O383 1.245 . S
C382 O384 1.289 . S
O383 C382 1.245 . S
O384 Mg377 2.141 . S
O384 C382 1.289 . S
O385 Mg377 2.048 . S
O385 C378 1.195 . S
O386 Mg377 2.048 . S
O386 C387 1.195 . S
C387 O386 1.195 . S
C387 O388 1.313 . S
O388 C387 1.313 . S
O389 Mg377 2.141 . S
O389 C380 1.289 . S
Mg390 O397 2.141 . S
Mg390 O398 2.048 . S
Mg390 O399 2.048 . S
Mg390 O402 2.141 . S
C391 O392 1.313 . S
C391 O398 1.195 . S
O392 C391 1.313 . S
C393 O394 1.245 . S
C393 O402 1.289 . S
O394 C393 1.245 . S
C395 O396 1.245 . S
C395 O397 1.289 . S
O396 C395 1.245 . S
O397 Mg390 2.141 . S
O397 C395 1.289 . S
O398 Mg390 2.048 . S
O398 C391 1.195 . S
O399 Mg390 2.048 . S
O399 C400 1.195 . S
C400 O399 1.195 . S
C400 O401 1.313 . S
O401 C400 1.313 . S
O402 Mg390 2.141 . S
O402 C393 1.289 . S
Mg403 O410 2.141 . S
Mg403 O411 2.048 . S
Mg403 O412 2.048 . S
Mg403 O415 2.141 . S
C404 O405 1.313 . S
C404 O411 1.195 . S
O405 C404 1.313 . S
C406 O407 1.245 . S
C406 O415 1.289 . S
O407 C406 1.245 . S
C408 O409 1.245 . S
C408 O410 1.289 . S
O409 C408 1.245 . S
O410 Mg403 2.141 . S
O410 C408 1.289 . S
O411 Mg403 2.048 . S
O411 C404 1.195 . S
O412 Mg403 2.048 . S
O412 C413 1.195 . S
C413 O412 1.195 . S
C413 O414 1.313 . S
O414 C413 1.313 . S
O415 Mg403 2.141 . S
O415 C406 1.289 . S
Mg416 O423 2.141 . S
Mg416 O424 2.048 . S
Mg416 O425 2.048 . S
Mg416 O428 2.141 . S
C417 O418 1.313 . S
C417 O424 1.195 . S
O418 C417 1.313 . S
C419 O420 1.245 . S
C419 O428 1.289 . S
O420 C419 1.245 . S
C421 O422 1.245 . S
C421 O423 1.289 . S
O422 C421 1.245 . S
O423 Mg416 2.141 . S
O423 C421 1.289 . S
O424 Mg416 2.048 . S
O424 C417 1.195 . S
O425 Mg416 2.048 . S
O425 C426 1.195 . S
C426 O425 1.195 . S
C426 O427 1.313 . S
O427 C426 1.313 . S
O428 Mg416 2.141 . S
O428 C419 1.289 . S
Mg429 O436 2.141 . S
Mg429 O437 2.048 . S
Mg429 O438 2.048 . S
Mg429 O441 2.141 . S
C430 O431 1.313 . S
C430 O437 1.195 . S
O431 C430 1.313 . S
C432 O433 1.245 . S
C432 O441 1.289 . S
O433 C432 1.245 . S
C434 O435 1.245 . S
C434 O436 1.289 . S
O435 C434 1.245 . S
O436 Mg429 2.141 . S
O436 C434 1.289 . S
O437 Mg429 2.048 . S
O437 C430 1.195 . S
O438 Mg429 2.048 . S
O438 C439 1.195 . S
C439 O438 1.195 . S
C439 O440 1.313 . S
O440 C439 1.313 . S
O441 Mg429 2.141 . S
O441 C432 1.289 . S
Mg442 O449 2.141 . S
Mg442 O450 2.048 . S
Mg442 O451 2.048 . S
Mg442 O454 2.141 . S
C443 O444 1.313 . S
C443 O450 1.195 . S
O444 C443 1.313 . S
C445 O446 1.245 . S
C445 O454 1.289 . S
O446 C445 1.245 . S
C447 O448 1.245 . S
C447 O449 1.289 . S
O448 C447 1.245 . S
O449 Mg442 2.141 . S
O449 C447 1.289 . S
O450 Mg442 2.048 . S
O450 C443 1.195 . S
O451 Mg442 2.048 . S
O451 C452 1.195 . S
C452 O451 1.195 . S
C452 O453 1.313 . S
O453 C452 1.313 . S
O454 Mg442 2.141 . S
O454 C445 1.289 . S
Mg455 O462 2.141 . S
Mg455 O463 2.048 . S
Mg455 O464 2.048 . S
Mg455 O467 2.141 . S
C456 O457 1.313 . S
C456 O463 1.195 . S
O457 C456 1.313 . S
C458 O459 1.245 . S
C458 O467 1.289 . S
O459 C458 1.245 . S
C460 O461 1.245 . S
C460 O462 1.289 . S
O461 C460 1.245 . S
O462 Mg455 2.141 . S
O462 C460 1.289 . S
O463 Mg455 2.048 . S
O463 C456 1.195 . S
O464 Mg455 2.048 . S
O464 C465 1.195 . S
C465 O464 1.195 . S
C465 O466 1.313 . S
O466 C465 1.313 . S
O467 Mg455 2.141 . S
O467 C458 1.289 . S
C468 C469 1.391 . S
C468 C470 1.394 . S
C468 H484 0.931 . S
C469 C468 1.391 . S
C469 C473 1.376 . S
C470 C468 1.394 . S
C470 C471 1.369 . S
C470 C474 1.531 . S
C471 C470 1.369 . S
C471 C472 1.410 . S
C471 C479 1.503 . S
C472 C471 1.410 . S
C472 C473 1.392 . S
C472 C475 1.511 . S
C473 C469 1.376 . S
C473 C472 1.392 . S
C473 H485 0.929 . S
C474 C470 1.531 . S
C474 H486 0.960 . S
C474 H487 0.962 . S
C474 H488 0.960 . S
C475 C472 1.511 . S
C475 H489 0.961 . S
C475 H490 0.961 . S
C475 H491 0.961 . S
C476 C477 1.370 . S
C476 C478 1.363 . S
C476 H492 0.931 . S
C477 C476 1.370 . S
C477 C481 1.408 . S
C478 C476 1.363 . S
C478 C479 1.370 . S
C478 C482 1.524 . S
C479 C471 1.503 . S
C479 C478 1.370 . S
C479 C480 1.403 . S
C480 C479 1.403 . S
C480 C481 1.404 . S
C480 C483 1.539 . S
C481 C477 1.408 . S
C481 C480 1.404 . S
C481 H493 0.930 . S
C482 C478 1.524 . S
C482 H494 0.956 . S
C482 H495 0.961 . S
C482 H496 0.961 . S
C483 C480 1.539 . S
C483 H497 0.958 . S
C483 H498 0.961 . S
C483 H499 0.960 . S
H484 C468 0.931 . S
H485 C473 0.929 . S
H486 C474 0.960 . S
H487 C474 0.962 . S
H488 C474 0.960 . S
H489 C475 0.961 . S
H490 C475 0.961 . S
H491 C475 0.961 . S
H492 C476 0.931 . S
H493 C481 0.930 . S
H494 C482 0.956 . S
H495 C482 0.961 . S
H496 C482 0.961 . S
H497 C483 0.958 . S
H498 C483 0.961 . S
H499 C483 0.960 . S
C500 C501 1.391 . S
C500 C502 1.394 . S
C500 H516 0.931 . S
C501 C500 1.391 . S
C501 C505 1.376 . S
C502 C500 1.394 . S
C502 C503 1.369 . S
C502 C506 1.531 . S
C503 C502 1.369 . S
C503 C504 1.410 . S
C503 C511 1.503 . S
C504 C503 1.410 . S
C504 C505 1.392 . S
C504 C507 1.511 . S
C505 C501 1.376 . S
C505 C504 1.392 . S
C505 H517 0.929 . S
C506 C502 1.531 . S
C506 H518 0.960 . S
C506 H519 0.962 . S
C506 H520 0.960 . S
C507 C504 1.511 . S
C507 H521 0.961 . S
C507 H522 0.961 . S
C507 H523 0.961 . S
C508 C509 1.370 . S
C508 C510 1.363 . S
C508 H524 0.931 . S
C509 C508 1.370 . S
C509 C513 1.408 . S
C510 C508 1.363 . S
C510 C511 1.370 . S
C510 C514 1.524 . S
C511 C503 1.503 . S
C511 C510 1.370 . S
C511 C512 1.403 . S
C512 C511 1.403 . S
C512 C513 1.404 . S
C512 C515 1.539 . S
C513 C509 1.408 . S
C513 C512 1.404 . S
C513 H525 0.930 . S
C514 C510 1.524 . S
C514 H526 0.956 . S
C514 H527 0.961 . S
C514 H528 0.961 . S
C515 C512 1.539 . S
C515 H529 0.958 . S
C515 H530 0.961 . S
C515 H531 0.960 . S
H516 C500 0.931 . S
H517 C505 0.929 . S
H518 C506 0.960 . S
H519 C506 0.962 . S
H520 C506 0.960 . S
H521 C507 0.961 . S
H522 C507 0.961 . S
H523 C507 0.961 . S
H524 C508 0.931 . S
H525 C513 0.930 . S
H526 C514 0.956 . S
H527 C514 0.961 . S
H528 C514 0.961 . S
H529 C515 0.958 . S
H530 C515 0.961 . S
H531 C515 0.960 . S
C532 C533 1.391 . S
C532 C534 1.394 . S
C532 H548 0.931 . S
C533 C532 1.391 . S
C533 C537 1.376 . S
C534 C532 1.394 . S
C534 C535 1.369 . S
C534 C538 1.531 . S
C535 C534 1.369 . S
C535 C536 1.410 . S
C535 C543 1.503 . S
C536 C535 1.410 . S
C536 C537 1.392 . S
C536 C539 1.511 . S
C537 C533 1.376 . S
C537 C536 1.392 . S
C537 H549 0.929 . S
C538 C534 1.531 . S
C538 H550 0.960 . S
C538 H551 0.962 . S
C538 H552 0.960 . S
C539 C536 1.511 . S
C539 H553 0.961 . S
C539 H554 0.961 . S
C539 H555 0.961 . S
C540 C541 1.370 . S
C540 C542 1.363 . S
C540 H556 0.931 . S
C541 C540 1.370 . S
C541 C545 1.408 . S
C542 C540 1.363 . S
C542 C543 1.370 . S
C542 C546 1.524 . S
C543 C535 1.503 . S
C543 C542 1.370 . S
C543 C544 1.403 . S
C544 C543 1.403 . S
C544 C545 1.404 . S
C544 C547 1.539 . S
C545 C541 1.408 . S
C545 C544 1.404 . S
C545 H557 0.930 . S
C546 C542 1.524 . S
C546 H558 0.956 . S
C546 H559 0.961 . S
C546 H560 0.961 . S
C547 C544 1.539 . S
C547 H561 0.958 . S
C547 H562 0.961 . S
C547 H563 0.960 . S
H548 C532 0.931 . S
H549 C537 0.929 . S
H550 C538 0.960 . S
H551 C538 0.962 . S
H552 C538 0.960 . S
H553 C539 0.961 . S
H554 C539 0.961 . S
H555 C539 0.961 . S
H556 C540 0.931 . S
H557 C545 0.930 . S
H558 C546 0.956 . S
H559 C546 0.961 . S
H560 C546 0.961 . S
H561 C547 0.958 . S
H562 C547 0.961 . S
H563 C547 0.960 . S
C564 C565 1.391 . S
C564 C566 1.394 . S
C564 H580 0.931 . S
C565 C564 1.391 . S
C565 C569 1.376 . S
C566 C564 1.394 . S
C566 C567 1.369 . S
C566 C570 1.531 . S
C567 C566 1.369 . S
C567 C568 1.410 . S
C567 C575 1.503 . S
C568 C567 1.410 . S
C568 C569 1.392 . S
C568 C571 1.511 . S
C569 C565 1.376 . S
C569 C568 1.392 . S
C569 H581 0.929 . S
C570 C566 1.531 . S
C570 H582 0.960 . S
C570 H583 0.962 . S
C570 H584 0.960 . S
C571 C568 1.511 . S
C571 H585 0.961 . S
C571 H586 0.961 . S
C571 H587 0.961 . S
C572 C573 1.370 . S
C572 C574 1.363 . S
C572 H588 0.931 . S
C573 C572 1.370 . S
C573 C577 1.408 . S
C574 C572 1.363 . S
C574 C575 1.370 . S
C574 C578 1.524 . S
C575 C567 1.503 . S
C575 C574 1.370 . S
C575 C576 1.403 . S
C576 C575 1.403 . S
C576 C577 1.404 . S
C576 C579 1.539 . S
C577 C573 1.408 . S
C577 C576 1.404 . S
C577 H589 0.930 . S
C578 C574 1.524 . S
C578 H590 0.956 . S
C578 H591 0.961 . S
C578 H592 0.961 . S
C579 C576 1.539 . S
C579 H593 0.958 . S
C579 H594 0.961 . S
C579 H595 0.960 . S
H580 C564 0.931 . S
H581 C569 0.929 . S
H582 C570 0.960 . S
H583 C570 0.962 . S
H584 C570 0.960 . S
H585 C571 0.961 . S
H586 C571 0.961 . S
H587 C571 0.961 . S
H588 C572 0.931 . S
H589 C577 0.930 . S
H590 C578 0.956 . S
H591 C578 0.961 . S
H592 C578 0.961 . S
H593 C579 0.958 . S
H594 C579 0.961 . S
H595 C579 0.960 . S
C596 C597 1.391 . S
C596 C598 1.394 . S
C596 H612 0.931 . S
C597 C596 1.391 . S
C597 C601 1.376 . S
C598 C596 1.394 . S
C598 C599 1.369 . S
C598 C602 1.531 . S
C599 C598 1.369 . S
C599 C600 1.410 . S
C599 C607 1.503 . S
C600 C599 1.410 . S
C600 C601 1.392 . S
C600 C603 1.511 . S
C601 C597 1.376 . S
C601 C600 1.392 . S
C601 H613 0.929 . S
C602 C598 1.531 . S
C602 H614 0.960 . S
C602 H615 0.962 . S
C602 H616 0.960 . S
C603 C600 1.511 . S
C603 H617 0.961 . S
C603 H618 0.961 . S
C603 H619 0.961 . S
C604 C605 1.370 . S
C604 C606 1.363 . S
C604 H620 0.931 . S
C605 C604 1.370 . S
C605 C609 1.408 . S
C606 C604 1.363 . S
C606 C607 1.370 . S
C606 C610 1.524 . S
C607 C599 1.503 . S
C607 C606 1.370 . S
C607 C608 1.403 . S
C608 C607 1.403 . S
C608 C609 1.404 . S
C608 C611 1.539 . S
C609 C605 1.408 . S
C609 C608 1.404 . S
C609 H621 0.930 . S
C610 C606 1.524 . S
C610 H622 0.956 . S
C610 H623 0.961 . S
C610 H624 0.961 . S
C611 C608 1.539 . S
C611 H625 0.958 . S
C611 H626 0.961 . S
C611 H627 0.960 . S
H612 C596 0.931 . S
H613 C601 0.929 . S
H614 C602 0.960 . S
H615 C602 0.962 . S
H616 C602 0.960 . S
H617 C603 0.961 . S
H618 C603 0.961 . S
H619 C603 0.961 . S
H620 C604 0.931 . S
H621 C609 0.930 . S
H622 C610 0.956 . S
H623 C610 0.961 . S
H624 C610 0.961 . S
H625 C611 0.958 . S
H626 C611 0.961 . S
H627 C611 0.960 . S
C628 C629 1.391 . S
C628 C630 1.394 . S
C628 H644 0.931 . S
C629 C628 1.391 . S
C629 C633 1.376 . S
C630 C628 1.394 . S
C630 C631 1.369 . S
C630 C634 1.531 . S
C631 C630 1.369 . S
C631 C632 1.410 . S
C631 C639 1.503 . S
C632 C631 1.410 . S
C632 C633 1.392 . S
C632 C635 1.511 . S
C633 C629 1.376 . S
C633 C632 1.392 . S
C633 H645 0.929 . S
C634 C630 1.531 . S
C634 H646 0.960 . S
C634 H647 0.962 . S
C634 H648 0.960 . S
C635 C632 1.511 . S
C635 H649 0.961 . S
C635 H650 0.961 . S
C635 H651 0.961 . S
C636 C637 1.370 . S
C636 C638 1.363 . S
C636 H652 0.931 . S
C637 C636 1.370 . S
C637 C641 1.408 . S
C638 C636 1.363 . S
C638 C639 1.370 . S
C638 C642 1.524 . S
C639 C631 1.503 . S
C639 C638 1.370 . S
C639 C640 1.403 . S
C640 C639 1.403 . S
C640 C641 1.404 . S
C640 C643 1.539 . S
C641 C637 1.408 . S
C641 C640 1.404 . S
C641 H653 0.930 . S
C642 C638 1.524 . S
C642 H654 0.956 . S
C642 H655 0.961 . S
C642 H656 0.961 . S
C643 C640 1.539 . S
C643 H657 0.958 . S
C643 H658 0.961 . S
C643 H659 0.960 . S
H644 C628 0.931 . S
H645 C633 0.929 . S
H646 C634 0.960 . S
H647 C634 0.962 . S
H648 C634 0.960 . S
H649 C635 0.961 . S
H650 C635 0.961 . S
H651 C635 0.961 . S
H652 C636 0.931 . S
H653 C641 0.930 . S
H654 C642 0.956 . S
H655 C642 0.961 . S
H656 C642 0.961 . S
H657 C643 0.958 . S
H658 C643 0.961 . S
H659 C643 0.960 . S
C660 C661 1.391 . S
C660 C662 1.394 . S
C660 H676 0.931 . S
C661 C660 1.391 . S
C661 C665 1.376 . S
C662 C660 1.394 . S
C662 C663 1.369 . S
C662 C666 1.531 . S
C663 C662 1.369 . S
C663 C664 1.410 . S
C663 C671 1.503 . S
C664 C663 1.410 . S
C664 C665 1.392 . S
C664 C667 1.511 . S
C665 C661 1.376 . S
C665 C664 1.392 . S
C665 H677 0.929 . S
C666 C662 1.531 . S
C666 H678 0.960 . S
C666 H679 0.962 . S
C666 H680 0.960 . S
C667 C664 1.511 . S
C667 H681 0.961 . S
C667 H682 0.961 . S
C667 H683 0.961 . S
C668 C669 1.370 . S
C668 C670 1.363 . S
C668 H684 0.931 . S
C669 C668 1.370 . S
C669 C673 1.408 . S
C670 C668 1.363 . S
C670 C671 1.370 . S
C670 C674 1.524 . S
C671 C663 1.503 . S
C671 C670 1.370 . S
C671 C672 1.403 . S
C672 C671 1.403 . S
C672 C673 1.404 . S
C672 C675 1.539 . S
C673 C669 1.408 . S
C673 C672 1.404 . S
C673 H685 0.930 . S
C674 C670 1.524 . S
C674 H686 0.956 . S
C674 H687 0.961 . S
C674 H688 0.961 . S
C675 C672 1.539 . S
C675 H689 0.958 . S
C675 H690 0.961 . S
C675 H691 0.960 . S
H676 C660 0.931 . S
H677 C665 0.929 . S
H678 C666 0.960 . S
H679 C666 0.962 . S
H680 C666 0.960 . S
H681 C667 0.961 . S
H682 C667 0.961 . S
H683 C667 0.961 . S
H684 C668 0.931 . S
H685 C673 0.930 . S
H686 C674 0.956 . S
H687 C674 0.961 . S
H688 C674 0.961 . S
H689 C675 0.958 . S
H690 C675 0.961 . S
H691 C675 0.960 . S
C692 C693 1.391 . S
C692 C694 1.394 . S
C692 H708 0.931 . S
C693 C692 1.391 . S
C693 C697 1.376 . S
C694 C692 1.394 . S
C694 C695 1.369 . S
C694 C698 1.531 . S
C695 C694 1.369 . S
C695 C696 1.410 . S
C695 C703 1.503 . S
C696 C695 1.410 . S
C696 C697 1.392 . S
C696 C699 1.511 . S
C697 C693 1.376 . S
C697 C696 1.392 . S
C697 H709 0.929 . S
C698 C694 1.531 . S
C698 H710 0.960 . S
C698 H711 0.962 . S
C698 H712 0.960 . S
C699 C696 1.511 . S
C699 H713 0.961 . S
C699 H714 0.961 . S
C699 H715 0.961 . S
C700 C701 1.370 . S
C700 C702 1.363 . S
C700 H716 0.931 . S
C701 C700 1.370 . S
C701 C705 1.408 . S
C702 C700 1.363 . S
C702 C703 1.370 . S
C702 C706 1.524 . S
C703 C695 1.503 . S
C703 C702 1.370 . S
C703 C704 1.403 . S
C704 C703 1.403 . S
C704 C705 1.404 . S
C704 C707 1.539 . S
C705 C701 1.408 . S
C705 C704 1.404 . S
C705 H717 0.930 . S
C706 C702 1.524 . S
C706 H718 0.956 . S
C706 H719 0.961 . S
C706 H720 0.961 . S
C707 C704 1.539 . S
C707 H721 0.958 . S
C707 H722 0.961 . S
C707 H723 0.960 . S
H708 C692 0.931 . S
H709 C697 0.929 . S
H710 C698 0.960 . S
H711 C698 0.962 . S
H712 C698 0.960 . S
H713 C699 0.961 . S
H714 C699 0.961 . S
H715 C699 0.961 . S
H716 C700 0.931 . S
H717 C705 0.930 . S
H718 C706 0.956 . S
H719 C706 0.961 . S
H720 C706 0.961 . S
H721 C707 0.958 . S
H722 C707 0.961 . S
H723 C707 0.960 . S
C724 C725 1.391 . S
C724 C726 1.394 . S
C724 H740 0.931 . S
C725 C724 1.391 . S
C725 C729 1.376 . S
C726 C724 1.394 . S
C726 C727 1.369 . S
C726 C730 1.531 . S
C727 C726 1.369 . S
C727 C728 1.410 . S
C727 C735 1.503 . S
C728 C727 1.410 . S
C728 C729 1.392 . S
C728 C731 1.511 . S
C729 C725 1.376 . S
C729 C728 1.392 . S
C729 H741 0.929 . S
C730 C726 1.531 . S
C730 H742 0.960 . S
C730 H743 0.962 . S
C730 H744 0.960 . S
C731 C728 1.511 . S
C731 H745 0.961 . S
C731 H746 0.961 . S
C731 H747 0.961 . S
C732 C733 1.370 . S
C732 C734 1.363 . S
C732 H748 0.931 . S
C733 C732 1.370 . S
C733 C737 1.408 . S
C734 C732 1.363 . S
C734 C735 1.370 . S
C734 C738 1.524 . S
C735 C727 1.503 . S
C735 C734 1.370 . S
C735 C736 1.403 . S
C736 C735 1.403 . S
C736 C737 1.404 . S
C736 C739 1.539 . S
C737 C733 1.408 . S
C737 C736 1.404 . S
C737 H749 0.930 . S
C738 C734 1.524 . S
C738 H750 0.956 . S
C738 H751 0.961 . S
C738 H752 0.961 . S
C739 C736 1.539 . S
C739 H753 0.958 . S
C739 H754 0.961 . S
C739 H755 0.960 . S
H740 C724 0.931 . S
H741 C729 0.929 . S
H742 C730 0.960 . S
H743 C730 0.962 . S
H744 C730 0.960 . S
H745 C731 0.961 . S
H746 C731 0.961 . S
H747 C731 0.961 . S
H748 C732 0.931 . S
H749 C737 0.930 . S
H750 C738 0.956 . S
H751 C738 0.961 . S
H752 C738 0.961 . S
H753 C739 0.958 . S
H754 C739 0.961 . S
H755 C739 0.960 . S
C756 C757 1.391 . S
C756 C758 1.394 . S
C756 H772 0.931 . S
C757 C756 1.391 . S
C757 C761 1.376 . S
C758 C756 1.394 . S
C758 C759 1.369 . S
C758 C762 1.531 . S
C759 C758 1.369 . S
C759 C760 1.410 . S
C759 C767 1.503 . S
C760 C759 1.410 . S
C760 C761 1.392 . S
C760 C763 1.511 . S
C761 C757 1.376 . S
C761 C760 1.392 . S
C761 H773 0.929 . S
C762 C758 1.531 . S
C762 H774 0.960 . S
C762 H775 0.962 . S
C762 H776 0.960 . S
C763 C760 1.511 . S
C763 H777 0.961 . S
C763 H778 0.961 . S
C763 H779 0.961 . S
C764 C765 1.370 . S
C764 C766 1.363 . S
C764 H780 0.931 . S
C765 C764 1.370 . S
C765 C769 1.408 . S
C766 C764 1.363 . S
C766 C767 1.370 . S
C766 C770 1.524 . S
C767 C759 1.503 . S
C767 C766 1.370 . S
C767 C768 1.403 . S
C768 C767 1.403 . S
C768 C769 1.404 . S
C768 C771 1.539 . S
C769 C765 1.408 . S
C769 C768 1.404 . S
C769 H781 0.930 . S
C770 C766 1.524 . S
C770 H782 0.956 . S
C770 H783 0.961 . S
C770 H784 0.961 . S
C771 C768 1.539 . S
C771 H785 0.958 . S
C771 H786 0.961 . S
C771 H787 0.960 . S
H772 C756 0.931 . S
H773 C761 0.929 . S
H774 C762 0.960 . S
H775 C762 0.962 . S
H776 C762 0.960 . S
H777 C763 0.961 . S
H778 C763 0.961 . S
H779 C763 0.961 . S
H780 C764 0.931 . S
H781 C769 0.930 . S
H782 C770 0.956 . S
H783 C770 0.961 . S
H784 C770 0.961 . S
H785 C771 0.958 . S
H786 C771 0.961 . S
H787 C771 0.960 . S
C788 C789 1.391 . S
C788 C790 1.394 . S
C788 H804 0.931 . S
C789 C788 1.391 . S
C789 C793 1.376 . S
C790 C788 1.394 . S
C790 C791 1.369 . S
C790 C794 1.531 . S
C791 C790 1.369 . S
C791 C792 1.410 . S
C791 C799 1.503 . S
C792 C791 1.410 . S
C792 C793 1.392 . S
C792 C795 1.511 . S
C793 C789 1.376 . S
C793 C792 1.392 . S
C793 H805 0.929 . S
C794 C790 1.531 . S
C794 H806 0.960 . S
C794 H807 0.962 . S
C794 H808 0.960 . S
C795 C792 1.511 . S
C795 H809 0.961 . S
C795 H810 0.961 . S
C795 H811 0.961 . S
C796 C797 1.370 . S
C796 C798 1.363 . S
C796 H812 0.931 . S
C797 C796 1.370 . S
C797 C801 1.408 . S
C798 C796 1.363 . S
C798 C799 1.370 . S
C798 C802 1.524 . S
C799 C791 1.503 . S
C799 C798 1.370 . S
C799 C800 1.403 . S
C800 C799 1.403 . S
C800 C801 1.404 . S
C800 C803 1.539 . S
C801 C797 1.408 . S
C801 C800 1.404 . S
C801 H813 0.930 . S
C802 C798 1.524 . S
C802 H814 0.956 . S
C802 H815 0.961 . S
C802 H816 0.961 . S
C803 C800 1.539 . S
C803 H817 0.958 . S
C803 H818 0.961 . S
C803 H819 0.960 . S
H804 C788 0.931 . S
H805 C793 0.929 . S
H806 C794 0.960 . S
H807 C794 0.962 . S
H808 C794 0.960 . S
H809 C795 0.961 . S
H810 C795 0.961 . S
H811 C795 0.961 . S
H812 C796 0.931 . S
H813 C801 0.930 . S
H814 C802 0.956 . S
H815 C802 0.961 . S
H816 C802 0.961 . S
H817 C803 0.958 . S
H818 C803 0.961 . S
H819 C803 0.960 . S
C820 C821 1.391 . S
C820 C822 1.394 . S
C820 H836 0.931 . S
C821 C820 1.391 . S
C821 C825 1.376 . S
C822 C820 1.394 . S
C822 C823 1.369 . S
C822 C826 1.531 . S
C823 C822 1.369 . S
C823 C824 1.410 . S
C823 C831 1.503 . S
C824 C823 1.410 . S
C824 C825 1.392 . S
C824 C827 1.511 . S
C825 C821 1.376 . S
C825 C824 1.392 . S
C825 H837 0.929 . S
C826 C822 1.531 . S
C826 H838 0.960 . S
C826 H839 0.962 . S
C826 H840 0.960 . S
C827 C824 1.511 . S
C827 H841 0.961 . S
C827 H842 0.961 . S
C827 H843 0.961 . S
C828 C829 1.370 . S
C828 C830 1.363 . S
C828 H844 0.931 . S
C829 C828 1.370 . S
C829 C833 1.408 . S
C830 C828 1.363 . S
C830 C831 1.370 . S
C830 C834 1.524 . S
C831 C823 1.503 . S
C831 C830 1.370 . S
C831 C832 1.403 . S
C832 C831 1.403 . S
C832 C833 1.404 . S
C832 C835 1.539 . S
C833 C829 1.408 . S
C833 C832 1.404 . S
C833 H845 0.930 . S
C834 C830 1.524 . S
C834 H846 0.956 . S
C834 H847 0.961 . S
C834 H848 0.961 . S
C835 C832 1.539 . S
C835 H849 0.958 . S
C835 H850 0.961 . S
C835 H851 0.960 . S
H836 C820 0.931 . S
H837 C825 0.929 . S
H838 C826 0.960 . S
H839 C826 0.962 . S
H840 C826 0.960 . S
H841 C827 0.961 . S
H842 C827 0.961 . S
H843 C827 0.961 . S
H844 C828 0.931 . S
H845 C833 0.930 . S
H846 C834 0.956 . S
H847 C834 0.961 . S
H848 C834 0.961 . S
H849 C835 0.958 . S
H850 C835 0.961 . S
H851 C835 0.960 . S
C852 C853 1.391 . S
C852 C854 1.394 . S
C852 H868 0.931 . S
C853 C852 1.391 . S
C853 C857 1.376 . S
C854 C852 1.394 . S
C854 C855 1.369 . S
C854 C858 1.531 . S
C855 C854 1.369 . S
C855 C856 1.428 . S
C855 C863 1.503 1_655 S
C856 C855 1.428 . S
C856 C857 1.428 . S
C856 C859 1.460 1_655 S
C857 C853 1.376 . S
C857 C856 1.428 . S
C857 H869 0.929 . S
C858 C854 1.531 . S
C858 H870 0.960 . S
C858 H871 0.962 . S
C858 H872 0.960 . S
C859 C856 1.460 1_455 S
C859 H873 0.961 . S
C859 H874 0.961 . S
C859 H875 0.961 . S
C860 C861 1.370 . S
C860 C862 1.363 . S
C860 H876 0.931 . S
C861 C860 1.370 . S
C861 C865 1.408 . S
C862 C860 1.363 . S
C862 C863 1.370 . S
C862 C866 1.524 . S
C863 C855 1.503 1_455 S
C863 C862 1.370 . S
C863 C864 1.387 . S
C864 C863 1.387 . S
C864 C865 1.436 . S
C864 C867 1.528 1_455 S
C865 C861 1.408 . S
C865 C864 1.436 . S
C865 H877 0.930 . S
C866 C862 1.524 . S
C866 H878 0.956 . S
C866 H879 0.961 . S
C866 H880 0.961 . S
C867 C864 1.528 1_655 S
C867 H881 0.958 . S
C867 H882 0.961 . S
C867 H883 0.960 . S
H868 C852 0.931 . S
H869 C857 0.929 . S
H870 C858 0.960 . S
H871 C858 0.962 . S
H872 C858 0.960 . S
H873 C859 0.961 . S
H874 C859 0.961 . S
H875 C859 0.961 . S
H876 C860 0.931 . S
H877 C865 0.930 . S
H878 C866 0.956 . S
H879 C866 0.961 . S
H880 C866 0.961 . S
H881 C867 0.958 . S
H882 C867 0.961 . S
H883 C867 0.960 . S
C884 C885 1.391 . S
C884 C886 1.394 . S
C884 H900 0.931 . S
C885 C884 1.391 . S
C885 C889 1.376 . S
C886 C884 1.394 . S
C886 C887 1.369 . S
C886 C890 1.531 . S
C887 C886 1.369 . S
C887 C888 1.410 . S
C887 C895 1.503 . S
C888 C887 1.410 . S
C888 C889 1.392 . S
C888 C891 1.511 . S
C889 C885 1.376 . S
C889 C888 1.392 . S
C889 H901 0.929 . S
C890 C886 1.531 . S
C890 H902 0.960 . S
C890 H903 0.962 . S
C890 H904 0.960 . S
C891 C888 1.511 . S
C891 H905 0.961 . S
C891 H906 0.961 . S
C891 H907 0.961 . S
C892 C893 1.370 . S
C892 C894 1.363 . S
C892 H908 0.931 . S
C893 C892 1.370 . S
C893 C897 1.408 . S
C894 C892 1.363 . S
C894 C895 1.370 . S
C894 C898 1.524 . S
C895 C887 1.503 . S
C895 C894 1.370 . S
C895 C896 1.403 . S
C896 C895 1.403 . S
C896 C897 1.404 . S
C896 C899 1.539 . S
C897 C893 1.408 . S
C897 C896 1.404 . S
C897 H909 0.930 . S
C898 C894 1.524 . S
C898 H910 0.956 . S
C898 H911 0.961 . S
C898 H912 0.961 . S
C899 C896 1.539 . S
C899 H913 0.958 . S
C899 H914 0.961 . S
C899 H915 0.960 . S
H900 C884 0.931 . S
H901 C889 0.929 . S
H902 C890 0.960 . S
H903 C890 0.962 . S
H904 C890 0.960 . S
H905 C891 0.961 . S
H906 C891 0.961 . S
H907 C891 0.961 . S
H908 C892 0.931 . S
H909 C897 0.930 . S
H910 C898 0.956 . S
H911 C898 0.961 . S
H912 C898 0.961 . S
H913 C899 0.958 . S
H914 C899 0.961 . S
H915 C899 0.960 . S
C916 C917 1.391 . S
C916 C918 1.394 . S
C916 H932 0.931 . S
C917 C916 1.391 . S
C917 C921 1.376 . S
C918 C916 1.394 . S
C918 C919 1.369 . S
C918 C922 1.531 . S
C919 C918 1.369 . S
C919 C920 1.410 . S
C919 C927 1.503 1_545 S
C920 C919 1.410 . S
C920 C921 1.392 . S
C920 C923 1.511 . S
C921 C917 1.376 . S
C921 C920 1.392 . S
C921 H933 0.929 . S
C922 C918 1.531 . S
C922 H934 0.960 . S
C922 H935 0.962 1_545 S
C922 H936 0.960 . S
C923 C920 1.511 . S
C923 H937 0.961 . S
C923 H938 0.961 1_545 S
C923 H939 0.961 . S
C924 C925 1.370 . S
C924 C926 1.363 . S
C924 H940 0.931 . S
C925 C924 1.370 . S
C925 C929 1.408 . S
C926 C924 1.363 . S
C926 C927 1.370 . S
C926 C930 1.524 . S
C927 C919 1.503 1_565 S
C927 C926 1.370 . S
C927 C928 1.403 1_565 S
C928 C927 1.403 1_545 S
C928 C929 1.404 1_545 S
C928 C931 1.539 . S
C929 C925 1.408 . S
C929 C928 1.404 1_565 S
C929 H941 0.910 1_565 S
C930 C926 1.524 . S
C930 H942 0.956 . S
C930 H943 0.961 . S
C930 H944 0.961 . S
C931 C928 1.539 . S
C931 H945 0.958 . S
C931 H946 0.961 . S
C931 H947 0.960 . S
H932 C916 0.931 . S
H933 C921 0.929 . S
H934 C922 0.960 . S
H935 C922 0.962 1_565 S
H936 C922 0.960 . S
H937 C923 0.961 . S
H938 C923 0.961 1_565 S
H939 C923 0.961 . S
H940 C924 0.931 . S
H941 C929 0.910 1_545 S
H942 C930 0.956 . S
H943 C930 0.961 . S
H944 C930 0.961 . S
H945 C931 0.958 . S
H946 C931 0.961 . S
H947 C931 0.960 . S
C948 C949 1.391 . S
C948 C950 1.394 . S
C948 H964 0.931 . S
C949 C948 1.391 . S
C949 C953 1.376 . S
C950 C948 1.394 . S
C950 C951 1.369 . S
C950 C954 1.531 1_556 S
C951 C950 1.369 . S
C951 C952 1.410 . S
C951 C959 1.503 1_546 S
C952 C951 1.410 . S
C952 C953 1.392 . S
C952 C955 1.511 1_545 S
C953 C949 1.376 . S
C953 C952 1.392 . S
C953 H965 0.929 . S
C954 C950 1.531 1_554 S
C954 H966 0.960 1_545 S
C954 H967 0.962 . S
C954 H968 0.960 . S
C955 C952 1.511 1_565 S
C955 H969 0.961 1_565 S
C955 H970 0.961 . S
C955 H971 0.961 . S
C956 C957 1.370 . S
C956 C958 1.363 1_565 S
C956 H972 0.923 1_565 S
C957 C956 1.370 . S
C957 C961 1.408 . S
C958 C956 1.363 1_545 S
C958 C959 1.370 1_545 S
C958 C962 1.524 . S
C959 C951 1.503 1_564 S
C959 C958 1.370 1_565 S
C959 C960 1.403 . S
C960 C959 1.403 . S
C960 C961 1.404 . S
C960 C963 1.539 1_554 S
C961 C957 1.408 . S
C961 C960 1.404 . S
C961 H973 0.930 . S
C962 C958 1.524 . S
C962 H974 0.956 . S
C962 H975 0.961 . S
C962 H976 0.961 . S
C963 C960 1.539 1_556 S
C963 H977 0.958 . S
C963 H978 0.961 . S
C963 H979 0.960 . S
H964 C948 0.931 . S
H965 C953 0.929 . S
H966 C954 0.960 1_565 S
H967 C954 0.962 . S
H968 C954 0.960 . S
H969 C955 0.961 1_545 S
H970 C955 0.961 . S
H971 C955 0.961 . S
H972 C956 0.923 1_545 S
H973 C961 0.930 . S
H974 C962 0.956 . S
H975 C962 0.961 . S
H976 C962 0.961 . S
H977 C963 0.958 . S
H978 C963 0.961 . S
H979 C963 0.960 . S
C980 C981 1.391 . S
C980 C982 1.394 . S
C980 H996 0.931 . S
C981 C980 1.391 . S
C981 C985 1.376 . S
C982 C980 1.394 . S
C982 C983 1.369 . S
C982 C986 1.531 1_556 S
C983 C982 1.369 . S
C983 C984 1.410 1_655 S
C983 C991 1.503 1_656 S
C984 C983 1.410 1_455 S
C984 C985 1.392 1_455 S
C984 C987 1.511 . S
C985 C981 1.376 . S
C985 C984 1.392 1_655 S
C985 H997 0.929 . S
C986 C982 1.531 1_554 S
C986 H998 0.960 . S
C986 H999 0.962 . S
C986 H1000 0.960 . S
C987 C984 1.511 . S
C987 H1001 0.961 . S
C987 H1002 0.961 . S
C987 H1003 0.961 . S
C988 C989 1.370 . S
C988 C990 1.363 . S
C988 H1004 0.931 . S
C989 C988 1.370 . S
C989 C993 1.408 . S
C990 C988 1.363 . S
C990 C991 1.370 . S
C990 C994 1.537 1_455 S
C991 C983 1.503 1_454 S
C991 C990 1.370 . S
C991 C992 1.403 . S
C992 C991 1.403 . S
C992 C993 1.404 . S
C992 C995 1.539 . S
C993 C989 1.408 . S
C993 C992 1.404 . S
C993 H1005 0.930 . S
C994 C990 1.537 1_655 S
C994 H1006 0.960 . S
C994 H1007 0.938 1_554 S
C994 H1008 0.967 . S
C995 C992 1.539 . S
C995 H1009 0.958 . S
C995 H1010 0.961 . S
C995 H1011 0.960 . S
H996 C980 0.931 . S
H997 C985 0.929 . S
H998 C986 0.960 . S
H999 C986 0.962 . S
H1000 C986 0.960 . S
H1001 C987 0.961 . S
H1002 C987 0.961 . S
H1003 C987 0.961 . S
H1004 C988 0.931 . S
H1005 C993 0.930 . S
H1006 C994 0.960 . S
H1007 C994 0.938 1_556 S
H1008 C994 0.967 . S
H1009 C995 0.958 . S
H1010 C995 0.961 . S
H1011 C995 0.960 . S
C1012 C1013 1.391 . S
C1012 C1014 1.394 . S
C1012 H1028 0.931 . S
C1013 C1012 1.391 . S
C1013 C1017 1.376 . S
C1014 C1012 1.394 . S
C1014 C1015 1.369 . S
C1014 C1018 1.531 . S
C1015 C1014 1.369 . S
C1015 C1016 1.410 . S
C1015 C1023 1.503 1_556 S
C1016 C1015 1.410 . S
C1016 C1017 1.392 . S
C1016 C1019 1.511 1_556 S
C1017 C1013 1.376 . S
C1017 C1016 1.392 . S
C1017 H1029 0.929 . S
C1018 C1014 1.531 . S
C1018 H1030 0.960 . S
C1018 H1031 0.962 . S
C1018 H1032 0.960 . S
C1019 C1016 1.511 1_554 S
C1019 H1033 0.961 . S
C1019 H1034 0.961 . S
C1019 H1035 0.961 . S
C1020 C1021 1.370 . S
C1020 C1022 1.363 . S
C1020 H1036 0.931 . S
C1021 C1020 1.370 . S
C1021 C1025 1.408 . S
C1022 C1020 1.363 . S
C1022 C1023 1.370 . S
C1022 C1026 1.524 . S
C1023 C1015 1.503 1_554 S
C1023 C1022 1.370 . S
C1023 C1024 1.403 . S
C1024 C1023 1.403 . S
C1024 C1025 1.404 . S
C1024 C1027 1.553 . S
C1025 C1021 1.408 . S
C1025 C1024 1.404 . S
C1025 H1037 0.930 . S
C1026 C1022 1.524 . S
C1026 H1038 0.956 . S
C1026 H1039 0.961 . S
C1026 H1040 0.961 . S
C1027 C1024 1.553 . S
C1027 H1041 0.938 1_554 S
C1027 H1042 0.978 . S
C1027 H1043 0.950 1_554 S
H1028 C1012 0.931 . S
H1029 C1017 0.929 . S
H1030 C1018 0.960 . S
H1031 C1018 0.962 . S
H1032 C1018 0.960 . S
H1033 C1019 0.961 . S
H1034 C1019 0.961 . S
H1035 C1019 0.961 . S
H1036 C1020 0.931 . S
H1037 C1025 0.930 . S
H1038 C1026 0.956 . S
H1039 C1026 0.961 . S
H1040 C1026 0.961 . S
H1041 C1027 0.938 1_556 S
H1042 C1027 0.978 . S
H1043 C1027 0.950 1_556 S
C1044 C1045 1.391 1_545 S
C1044 C1046 1.394 . S
C1044 H1060 0.931 1_545 S
C1045 C1044 1.391 1_565 S
C1045 C1049 1.376 1_565 S
C1046 C1044 1.394 . S
C1046 C1047 1.369 1_556 S
C1046 C1050 1.531 . S
C1047 C1046 1.369 1_554 S
C1047 C1048 1.410 . S
C1047 C1055 1.503 . S
C1048 C1047 1.410 . S
C1048 C1049 1.392 1_554 S
C1048 C1051 1.511 . S
C1049 C1045 1.376 1_545 S
C1049 C1048 1.392 1_556 S
C1049 H1061 0.929 . S
C1050 C1046 1.531 . S
C1050 H1062 0.960 1_556 S
C1050 H1063 0.962 . S
C1050 H1064 0.960 . S
C1051 C1048 1.511 . S
C1051 H1065 0.961 . S
C1051 H1066 0.961 . S
C1051 H1067 0.961 . S
C1052 C1053 1.370 . S
C1052 C1054 1.363 . S
C1052 H1068 0.931 . S
C1053 C1052 1.370 . S
C1053 C1057 1.408 . S
C1054 C1052 1.363 . S
C1054 C1055 1.370 . S
C1054 C1058 1.524 1_554 S
C1055 C1047 1.503 . S
C1055 C1054 1.370 . S
C1055 C1056 1.403 . S
C1056 C1055 1.403 . S
C1056 C1057 1.404 . S
C1056 C1059 1.539 . S
C1057 C1053 1.408 . S
C1057 C1056 1.404 . S
C1057 H1069 0.930 . S
C1058 C1054 1.524 1_556 S
C1058 H1070 0.956 . S
C1058 H1071 0.961 . S
C1058 H1072 0.961 . S
C1059 C1056 1.539 . S
C1059 H1073 0.958 . S
C1059 H1074 0.961 . S
C1059 H1075 0.960 . S
H1060 C1044 0.931 1_565 S
H1061 C1049 0.929 . S
H1062 C1050 0.960 1_554 S
H1063 C1050 0.962 . S
H1064 C1050 0.960 . S
H1065 C1051 0.961 . S
H1066 C1051 0.961 . S
H1067 C1051 0.961 . S
H1068 C1052 0.931 . S
H1069 C1057 0.930 . S
H1070 C1058 0.956 . S
H1071 C1058 0.961 . S
H1072 C1058 0.961 . S
H1073 C1059 0.958 . S
H1074 C1059 0.961 . S
H1075 C1059 0.960 . S
C1076 C1077 1.389 1_455 S
C1076 C1078 1.394 1_456 S
C1076 H1092 0.931 1_556 S
C1077 C1076 1.389 1_655 S
C1077 C1081 1.394 . S
C1078 C1076 1.394 1_654 S
C1078 C1079 1.369 . S
C1078 C1082 1.531 . S
C1079 C1078 1.369 . S
C1079 C1080 1.410 1_554 S
C1079 C1087 1.503 . S
C1080 C1079 1.410 1_556 S
C1080 C1081 1.392 . S
C1080 C1083 1.511 . S
C1081 C1077 1.394 . S
C1081 C1080 1.392 . S
C1081 H1093 0.929 . S
C1082 C1078 1.531 . S
C1082 H1094 0.960 . S
C1082 H1095 0.962 . S
C1082 H1096 0.960 . S
C1083 C1080 1.511 . S
C1083 H1097 0.961 . S
C1083 H1098 0.961 . S
C1083 H1099 0.961 . S
C1084 C1085 1.370 . S
C1084 C1086 1.363 . S
C1084 H1100 0.931 . S
C1085 C1084 1.370 . S
C1085 C1089 1.408 . S
C1086 C1084 1.363 . S
C1086 C1087 1.370 . S
C1086 C1090 1.524 . S
C1087 C1079 1.503 . S
C1087 C1086 1.370 . S
C1087 C1088 1.403 . S
C1088 C1087 1.403 . S
C1088 C1089 1.404 . S
C1088 C1091 1.539 . S
C1089 C1085 1.408 . S
C1089 C1088 1.404 . S
C1089 H1101 0.930 . S
C1090 C1086 1.524 . S
C1090 H1102 0.956 . S
C1090 H1103 0.961 1_554 S
C1090 H1104 0.961 . S
C1091 C1088 1.539 . S
C1091 H1105 0.958 . S
C1091 H1106 0.961 . S
C1091 H1107 0.960 . S
H1092 C1076 0.931 1_554 S
H1093 C1081 0.929 . S
H1094 C1082 0.960 . S
H1095 C1082 0.962 . S
H1096 C1082 0.960 . S
H1097 C1083 0.961 . S
H1098 C1083 0.961 . S
H1099 C1083 0.961 . S
H1100 C1084 0.931 . S
H1101 C1089 0.930 . S
H1102 C1090 0.956 . S
H1103 C1090 0.961 1_556 S
H1104 C1090 0.961 . S
H1105 C1091 0.958 . S
H1106 C1091 0.961 . S
H1107 C1091 0.960 . S
C1108 C1109 1.391 . S
C1108 C1110 1.394 . S
C1108 H1124 0.931 . S
C1109 C1108 1.391 . S
C1109 C1113 1.376 . S
C1110 C1108 1.394 . S
C1110 C1111 1.369 . S
C1110 C1114 1.531 . S
C1111 C1110 1.369 . S
C1111 C1112 1.410 . S
C1111 C1119 1.503 . S
C1112 C1111 1.410 . S
C1112 C1113 1.392 . S
C1112 C1115 1.511 . S
C1113 C1109 1.376 . S
C1113 C1112 1.392 . S
C1113 H1125 0.929 . S
C1114 C1110 1.531 . S
C1114 H1126 0.960 . S
C1114 H1127 0.962 . S
C1114 H1128 0.960 . S
C1115 C1112 1.511 . S
C1115 H1129 0.961 . S
C1115 H1130 0.961 . S
C1115 H1131 0.961 . S
C1116 C1117 1.370 . S
C1116 C1118 1.363 . S
C1116 H1132 0.931 . S
C1117 C1116 1.370 . S
C1117 C1121 1.439 . S
C1118 C1116 1.363 . S
C1118 C1119 1.370 1_556 S
C1118 C1122 1.524 . S
C1119 C1111 1.503 . S
C1119 C1118 1.370 1_554 S
C1119 C1120 1.403 . S
C1120 C1119 1.403 . S
C1120 C1121 1.385 1_554 S
C1120 C1123 1.539 . S
C1121 C1117 1.439 . S
C1121 C1120 1.385 1_556 S
C1121 H1133 0.918 1_556 S
C1122 C1118 1.524 . S
C1122 H1134 0.956 . S
C1122 H1135 0.961 . S
C1122 H1136 0.961 . S
C1123 C1120 1.539 . S
C1123 H1137 0.958 . S
C1123 H1138 0.961 . S
C1123 H1139 0.960 . S
H1124 C1108 0.931 . S
H1125 C1113 0.929 . S
H1126 C1114 0.960 . S
H1127 C1114 0.962 . S
H1128 C1114 0.960 . S
H1129 C1115 0.961 . S
H1130 C1115 0.961 . S
H1131 C1115 0.961 . S
H1132 C1116 0.931 . S
H1133 C1121 0.918 1_554 S
H1134 C1122 0.956 . S
H1135 C1122 0.961 . S
H1136 C1122 0.961 . S
H1137 C1123 0.958 . S
H1138 C1123 0.961 . S
H1139 C1123 0.960 . S
C1140 C1141 1.391 . S
C1140 C1142 1.394 1_655 S
C1140 H1156 0.931 . S
C1141 C1140 1.391 . S
C1141 C1145 1.375 1_655 S
C1142 C1140 1.394 1_455 S
C1142 C1143 1.369 . S
C1142 C1146 1.531 . S
C1143 C1142 1.369 . S
C1143 C1144 1.410 . S
C1143 C1151 1.503 . S
C1144 C1143 1.410 . S
C1144 C1145 1.392 . S
C1144 C1147 1.511 . S
C1145 C1141 1.375 1_455 S
C1145 C1144 1.392 . S
C1145 H1157 0.929 . S
C1146 C1142 1.531 . S
C1146 H1158 0.960 . S
C1146 H1159 0.962 . S
C1146 H1160 0.960 1_455 S
C1147 C1144 1.511 . S
C1147 H1161 0.961 . S
C1147 H1162 0.961 . S
C1147 H1163 0.961 . S
C1148 C1149 1.370 . S
C1148 C1150 1.363 . S
C1148 H1164 0.931 . S
C1149 C1148 1.370 . S
C1149 C1153 1.408 . S
C1150 C1148 1.363 . S
C1150 C1151 1.370 . S
C1150 C1154 1.524 . S
C1151 C1143 1.503 . S
C1151 C1150 1.370 . S
C1151 C1152 1.403 . S
C1152 C1151 1.403 . S
C1152 C1153 1.404 . S
C1152 C1155 1.539 . S
C1153 C1149 1.408 . S
C1153 C1152 1.404 . S
C1153 H1165 0.930 . S
C1154 C1150 1.524 . S
C1154 H1166 0.956 . S
C1154 H1167 0.961 . S
C1154 H1168 0.961 . S
C1155 C1152 1.539 . S
C1155 H1169 0.958 . S
C1155 H1170 0.961 . S
C1155 H1171 0.960 . S
H1156 C1140 0.931 . S
H1157 C1145 0.929 . S
H1158 C1146 0.960 . S
H1159 C1146 0.962 . S
H1160 C1146 0.960 1_655 S
H1161 C1147 0.961 . S
H1162 C1147 0.961 . S
H1163 C1147 0.961 . S
H1164 C1148 0.931 . S
H1165 C1153 0.930 . S
H1166 C1154 0.956 . S
H1167 C1154 0.961 . S
H1168 C1154 0.961 . S
H1169 C1155 0.958 . S
H1170 C1155 0.961 . S
H1171 C1155 0.960 . S
C1172 C1173 1.391 . S
C1172 C1174 1.394 . S
C1172 H1188 0.931 . S
C1173 C1172 1.391 . S
C1173 C1177 1.376 . S
C1174 C1172 1.394 . S
C1174 C1175 1.369 . S
C1174 C1178 1.531 . S
C1175 C1174 1.369 . S
C1175 C1176 1.410 . S
C1175 C1183 1.503 . S
C1176 C1175 1.410 . S
C1176 C1177 1.392 . S
C1176 C1179 1.511 . S
C1177 C1173 1.376 . S
C1177 C1176 1.392 . S
C1177 H1189 0.929 . S
C1178 C1174 1.531 . S
C1178 H1190 0.960 . S
C1178 H1191 0.962 . S
C1178 H1192 0.960 . S
C1179 C1176 1.511 . S
C1179 H1193 0.961 . S
C1179 H1194 0.961 . S
C1179 H1195 0.961 . S
C1180 C1181 1.370 . S
C1180 C1182 1.363 . S
C1180 H1196 0.931 . S
C1181 C1180 1.370 . S
C1181 C1185 1.408 . S
C1182 C1180 1.363 . S
C1182 C1183 1.370 . S
C1182 C1186 1.524 . S
C1183 C1175 1.503 . S
C1183 C1182 1.370 . S
C1183 C1184 1.403 . S
C1184 C1183 1.403 . S
C1184 C1185 1.404 . S
C1184 C1187 1.539 . S
C1185 C1181 1.408 . S
C1185 C1184 1.404 . S
C1185 H1197 0.930 . S
C1186 C1182 1.524 . S
C1186 H1198 0.956 . S
C1186 H1199 0.961 . S
C1186 H1200 0.961 . S
C1187 C1184 1.539 . S
C1187 H1201 0.958 . S
C1187 H1202 0.961 . S
C1187 H1203 0.960 . S
H1188 C1172 0.931 . S
H1189 C1177 0.929 . S
H1190 C1178 0.960 . S
H1191 C1178 0.962 . S
H1192 C1178 0.960 . S
H1193 C1179 0.961 . S
H1194 C1179 0.961 . S
H1195 C1179 0.961 . S
H1196 C1180 0.931 . S
H1197 C1185 0.930 . S
H1198 C1186 0.956 . S
H1199 C1186 0.961 . S
H1200 C1186 0.961 . S
H1201 C1187 0.958 . S
H1202 C1187 0.961 . S
H1203 C1187 0.960 . S
C1204 C1205 1.391 1_565 S
C1204 C1206 1.394 . S
C1204 H1220 0.931 . S
C1205 C1204 1.391 1_545 S
C1205 C1209 1.376 . S
C1206 C1204 1.394 . S
C1206 C1207 1.369 . S
C1206 C1210 1.531 . S
C1207 C1206 1.369 . S
C1207 C1208 1.410 . S
C1207 C1215 1.503 . S
C1208 C1207 1.410 . S
C1208 C1209 1.392 1_565 S
C1208 C1211 1.511 . S
C1209 C1205 1.376 . S
C1209 C1208 1.392 1_545 S
C1209 H1221 0.929 . S
C1210 C1206 1.531 . S
C1210 H1222 0.960 . S
C1210 H1223 0.962 . S
C1210 H1224 0.960 . S
C1211 C1208 1.511 . S
C1211 H1225 0.961 . S
C1211 H1226 0.961 . S
C1211 H1227 0.961 . S
C1212 C1213 1.370 . S
C1212 C1214 1.363 . S
C1212 H1228 0.931 . S
C1213 C1212 1.370 . S
C1213 C1217 1.408 . S
C1214 C1212 1.363 . S
C1214 C1215 1.370 . S
C1214 C1218 1.524 . S
C1215 C1207 1.503 . S
C1215 C1214 1.370 . S
C1215 C1216 1.403 . S
C1216 C1215 1.403 . S
C1216 C1217 1.404 . S
C1216 C1219 1.539 . S
C1217 C1213 1.408 . S
C1217 C1216 1.404 . S
C1217 H1229 0.930 . S
C1218 C1214 1.524 . S
C1218 H1230 0.956 . S
C1218 H1231 0.961 . S
C1218 H1232 0.961 . S
C1219 C1216 1.539 . S
C1219 H1233 0.958 . S
C1219 H1234 0.961 . S
C1219 H1235 0.960 . S
H1220 C1204 0.931 . S
H1221 C1209 0.929 . S
H1222 C1210 0.960 . S
H1223 C1210 0.962 . S
H1224 C1210 0.960 . S
H1225 C1211 0.961 . S
H1226 C1211 0.961 . S
H1227 C1211 0.961 . S
H1228 C1212 0.931 . S
H1229 C1217 0.930 . S
H1230 C1218 0.956 . S
H1231 C1218 0.961 . S
H1232 C1218 0.961 . S
H1233 C1219 0.958 . S
H1234 C1219 0.961 . S
H1235 C1219 0.960 . S
C1236 C1237 1.391 . S
C1236 C1238 1.394 . S
C1236 H1252 0.931 . S
C1237 C1236 1.391 . S
C1237 C1241 1.376 . S
C1238 C1236 1.394 . S
C1238 C1239 1.369 . S
C1238 C1242 1.555 . S
C1239 C1238 1.369 . S
C1239 C1240 1.410 . S
C1239 C1247 1.503 1_556 S
C1240 C1239 1.410 . S
C1240 C1241 1.392 . S
C1240 C1243 1.511 . S
C1241 C1237 1.376 . S
C1241 C1240 1.392 . S
C1241 H1253 0.929 . S
C1242 C1238 1.555 . S
C1242 H1254 0.918 1_556 S
C1242 H1255 0.990 . S
C1242 H1256 0.953 1_556 S
C1243 C1240 1.511 . S
C1243 H1257 0.961 . S
C1243 H1258 0.961 . S
C1243 H1259 0.961 . S
C1244 C1245 1.370 . S
C1244 C1246 1.363 1_554 S
C1244 H1260 0.931 1_564 S
C1245 C1244 1.370 . S
C1245 C1249 1.420 . S
C1246 C1244 1.363 1_556 S
C1246 C1247 1.370 1_556 S
C1246 C1250 1.524 . S
C1247 C1239 1.503 1_554 S
C1247 C1246 1.370 1_554 S
C1247 C1248 1.403 . S
C1248 C1247 1.403 . S
C1248 C1249 1.404 . S
C1248 C1251 1.539 . S
C1249 C1245 1.420 . S
C1249 C1248 1.404 . S
C1249 H1261 0.930 . S
C1250 C1246 1.524 . S
C1250 H1262 0.956 . S
C1250 H1263 0.961 . S
C1250 H1264 0.961 . S
C1251 C1248 1.539 . S
C1251 H1265 0.958 . S
C1251 H1266 0.961 . S
C1251 H1267 0.960 . S
H1252 C1236 0.931 . S
H1253 C1241 0.929 . S
H1254 C1242 0.918 1_554 S
H1255 C1242 0.990 . S
H1256 C1242 0.953 1_554 S
H1257 C1243 0.961 . S
H1258 C1243 0.961 . S
H1259 C1243 0.961 . S
H1260 C1244 0.931 1_546 S
H1261 C1249 0.930 . S
H1262 C1250 0.956 . S
H1263 C1250 0.961 . S
H1264 C1250 0.961 . S
H1265 C1251 0.958 . S
H1266 C1251 0.961 . S
H1267 C1251 0.960 . S
C1268 C1269 1.391 . S
C1268 C1270 1.394 . S
C1268 H1284 0.931 . S
C1269 C1268 1.391 . S
C1269 C1273 1.376 . S
C1270 C1268 1.394 . S
C1270 C1271 1.369 . S
C1270 C1274 1.531 1_556 S
C1271 C1270 1.369 . S
C1271 C1272 1.410 . S
C1271 C1279 1.502 1_556 S
C1272 C1271 1.410 . S
C1272 C1273 1.392 . S
C1272 C1275 1.511 . S
C1273 C1269 1.376 . S
C1273 C1272 1.392 . S
C1273 H1285 0.929 . S
C1274 C1270 1.531 1_554 S
C1274 H1286 0.960 . S
C1274 H1287 0.962 . S
C1274 H1288 0.960 . S
C1275 C1272 1.511 . S
C1275 H1289 0.961 . S
C1275 H1290 0.961 . S
C1275 H1291 0.961 . S
C1276 C1277 1.362 1_455 S
C1276 C1278 1.363 . S
C1276 H1292 0.931 . S
C1277 C1276 1.362 1_655 S
C1277 C1281 1.412 1_655 S
C1278 C1276 1.363 . S
C1278 C1279 1.371 . S
C1278 C1282 1.524 1_554 S
C1279 C1271 1.502 1_554 S
C1279 C1278 1.371 . S
C1279 C1280 1.404 . S
C1280 C1279 1.404 . S
C1280 C1281 1.404 . S
C1280 C1283 1.539 . S
C1281 C1277 1.412 1_455 S
C1281 C1280 1.404 . S
C1281 H1293 0.930 1_455 S
C1282 C1278 1.524 1_556 S
C1282 H1294 0.956 . S
C1282 H1295 0.961 . S
C1282 H1296 0.961 . S
C1283 C1280 1.539 . S
C1283 H1297 0.958 . S
C1283 H1298 0.961 . S
C1283 H1299 0.960 1_554 S
H1284 C1268 0.931 . S
H1285 C1273 0.929 . S
H1286 C1274 0.960 . S
H1287 C1274 0.962 . S
H1288 C1274 0.960 . S
H1289 C1275 0.961 . S
H1290 C1275 0.961 . S
H1291 C1275 0.961 . S
H1292 C1276 0.931 . S
H1293 C1281 0.930 1_655 S
H1294 C1282 0.956 . S
H1295 C1282 0.961 . S
H1296 C1282 0.961 . S
H1297 C1283 0.958 . S
H1298 C1283 0.961 . S
H1299 C1283 0.960 1_556 S
C1300 C1301 1.391 . S
C1300 C1302 1.394 . S
C1300 H1316 0.931 . S
C1301 C1300 1.391 . S
C1301 C1305 1.376 . S
C1302 C1300 1.394 . S
C1302 C1303 1.369 . S
C1302 C1306 1.531 . S
C1303 C1302 1.369 . S
C1303 C1304 1.410 . S
C1303 C1311 1.503 1_556 S
C1304 C1303 1.410 . S
C1304 C1305 1.392 . S
C1304 C1307 1.511 . S
C1305 C1301 1.376 . S
C1305 C1304 1.392 . S
C1305 H1317 0.929 . S
C1306 C1302 1.531 . S
C1306 H1318 0.960 . S
C1306 H1319 0.962 . S
C1306 H1320 0.960 . S
C1307 C1304 1.511 . S
C1307 H1321 0.961 . S
C1307 H1322 0.967 . S
C1307 H1323 0.961 1_556 S
C1308 C1309 1.370 . S
C1308 C1310 1.363 1_554 S
C1308 H1324 0.931 1_554 S
C1309 C1308 1.370 . S
C1309 C1313 1.408 . S
C1310 C1308 1.363 1_556 S
C1310 C1311 1.370 1_556 S
C1310 C1314 1.524 . S
C1311 C1303 1.503 1_554 S
C1311 C1310 1.370 1_554 S
C1311 C1312 1.403 . S
C1312 C1311 1.403 . S
C1312 C1313 1.404 . S
C1312 C1315 1.539 . S
C1313 C1309 1.408 . S
C1313 C1312 1.404 . S
C1313 H1325 0.930 . S
C1314 C1310 1.524 . S
C1314 H1326 0.956 . S
C1314 H1327 0.961 . S
C1314 H1328 0.961 . S
C1315 C1312 1.539 . S
C1315 H1329 0.958 . S
C1315 H1330 0.961 . S
C1315 H1331 0.960 . S
H1316 C1300 0.931 . S
H1317 C1305 0.929 . S
H1318 C1306 0.960 . S
H1319 C1306 0.962 . S
H1320 C1306 0.960 . S
H1321 C1307 0.961 . S
H1322 C1307 0.967 . S
H1323 C1307 0.961 1_554 S
H1324 C1308 0.931 1_556 S
H1325 C1313 0.930 . S
H1326 C1314 0.956 . S
H1327 C1314 0.961 . S
H1328 C1314 0.961 . S
H1329 C1315 0.958 . S
H1330 C1315 0.961 . S
H1331 C1315 0.960 . S
C1332 C1333 1.391 . S
C1332 C1334 1.394 . S
C1332 H1348 0.931 . S
C1333 C1332 1.391 . S
C1333 C1337 1.376 . S
C1334 C1332 1.394 . S
C1334 C1335 1.369 . S
C1334 C1338 1.531 . S
C1335 C1334 1.369 . S
C1335 C1336 1.410 . S
C1335 C1343 1.503 . S
C1336 C1335 1.410 . S
C1336 C1337 1.392 . S
C1336 C1339 1.511 . S
C1337 C1333 1.376 . S
C1337 C1336 1.392 . S
C1337 H1349 0.929 . S
C1338 C1334 1.531 . S
C1338 H1350 0.960 . S
C1338 H1351 0.962 . S
C1338 H1352 0.960 . S
C1339 C1336 1.511 . S
C1339 H1353 0.961 . S
C1339 H1354 0.961 . S
C1339 H1355 0.961 . S
C1340 C1341 1.359 1_655 S
C1340 C1342 1.363 . S
C1340 H1356 0.931 . S
C1341 C1340 1.359 1_455 S
C1341 C1345 1.400 . S
C1342 C1340 1.363 . S
C1342 C1343 1.370 . S
C1342 C1346 1.524 . S
C1343 C1335 1.503 . S
C1343 C1342 1.370 . S
C1343 C1344 1.403 . S
C1344 C1343 1.403 . S
C1344 C1345 1.404 1_655 S
C1344 C1347 1.539 . S
C1345 C1341 1.400 . S
C1345 C1344 1.404 1_455 S
C1345 H1357 0.930 . S
C1346 C1342 1.524 . S
C1346 H1358 0.956 . S
C1346 H1359 0.961 . S
C1346 H1360 0.961 . S
C1347 C1344 1.539 . S
C1347 H1361 0.958 . S
C1347 H1362 0.961 1_655 S
C1347 H1363 0.960 . S
H1348 C1332 0.931 . S
H1349 C1337 0.929 . S
H1350 C1338 0.960 . S
H1351 C1338 0.962 . S
H1352 C1338 0.960 . S
H1353 C1339 0.961 . S
H1354 C1339 0.961 . S
H1355 C1339 0.961 . S
H1356 C1340 0.931 . S
H1357 C1345 0.930 . S
H1358 C1346 0.956 . S
H1359 C1346 0.961 . S
H1360 C1346 0.961 . S
H1361 C1347 0.958 . S
H1362 C1347 0.961 1_455 S
H1363 C1347 0.960 . S
C1364 C1365 1.391 . S
C1364 C1366 1.394 . S
C1364 H1380 0.931 . S
C1365 C1364 1.391 . S
C1365 C1369 1.376 . S
C1366 C1364 1.394 . S
C1366 C1367 1.369 . S
C1366 C1370 1.531 . S
C1367 C1366 1.369 . S
C1367 C1368 1.410 . S
C1367 C1375 1.503 . S
C1368 C1367 1.410 . S
C1368 C1369 1.392 . S
C1368 C1371 1.511 . S
C1369 C1365 1.376 . S
C1369 C1368 1.392 . S
C1369 H1381 0.929 . S
C1370 C1366 1.531 . S
C1370 H1382 0.960 . S
C1370 H1383 0.962 . S
C1370 H1384 0.960 . S
C1371 C1368 1.511 . S
C1371 H1385 0.961 . S
C1371 H1386 0.961 . S
C1371 H1387 0.961 . S
C1372 C1373 1.370 . S
C1372 C1374 1.363 . S
C1372 H1388 0.931 . S
C1373 C1372 1.370 . S
C1373 C1377 1.408 . S
C1374 C1372 1.363 . S
C1374 C1375 1.370 . S
C1374 C1378 1.524 . S
C1375 C1367 1.503 . S
C1375 C1374 1.370 . S
C1375 C1376 1.403 . S
C1376 C1375 1.403 . S
C1376 C1377 1.404 . S
C1376 C1379 1.539 . S
C1377 C1373 1.408 . S
C1377 C1376 1.404 . S
C1377 H1389 0.930 . S
C1378 C1374 1.524 . S
C1378 H1390 0.956 . S
C1378 H1391 0.961 . S
C1378 H1392 0.961 . S
C1379 C1376 1.539 . S
C1379 H1393 0.958 . S
C1379 H1394 0.961 . S
C1379 H1395 0.960 . S
H1380 C1364 0.931 . S
H1381 C1369 0.929 . S
H1382 C1370 0.960 . S
H1383 C1370 0.962 . S
H1384 C1370 0.960 . S
H1385 C1371 0.961 . S
H1386 C1371 0.961 . S
H1387 C1371 0.961 . S
H1388 C1372 0.931 . S
H1389 C1377 0.930 . S
H1390 C1378 0.956 . S
H1391 C1378 0.961 . S
H1392 C1378 0.961 . S
H1393 C1379 0.958 . S
H1394 C1379 0.961 . S
H1395 C1379 0.960 . S
C1396 C1397 1.391 . S
C1396 C1398 1.394 . S
C1396 H1412 0.931 1_545 S
C1397 C1396 1.391 . S
C1397 C1401 1.376 . S
C1398 C1396 1.394 . S
C1398 C1399 1.369 . S
C1398 C1402 1.531 . S
C1399 C1398 1.369 . S
C1399 C1400 1.410 . S
C1399 C1407 1.503 . S
C1400 C1399 1.410 . S
C1400 C1401 1.392 . S
C1400 C1403 1.511 . S
C1401 C1397 1.376 . S
C1401 C1400 1.392 . S
C1401 H1413 0.929 . S
C1402 C1398 1.531 . S
C1402 H1414 0.960 . S
C1402 H1415 0.962 . S
C1402 H1416 0.960 . S
C1403 C1400 1.511 . S
C1403 H1417 0.961 . S
C1403 H1418 0.961 . S
C1403 H1419 0.961 . S
C1404 C1405 1.370 . S
C1404 C1406 1.363 . S
C1404 H1420 0.931 . S
C1405 C1404 1.370 . S
C1405 C1409 1.408 . S
C1406 C1404 1.363 . S
C1406 C1407 1.370 . S
C1406 C1410 1.524 . S
C1407 C1399 1.503 . S
C1407 C1406 1.370 . S
C1407 C1408 1.403 . S
C1408 C1407 1.403 . S
C1408 C1409 1.404 . S
C1408 C1411 1.539 . S
C1409 C1405 1.408 . S
C1409 C1408 1.404 . S
C1409 H1421 0.930 . S
C1410 C1406 1.524 . S
C1410 H1422 0.956 . S
C1410 H1423 0.961 . S
C1410 H1424 0.961 . S
C1411 C1408 1.539 . S
C1411 H1425 0.958 . S
C1411 H1426 0.961 . S
C1411 H1427 0.960 . S
H1412 C1396 0.931 1_565 S
H1413 C1401 0.929 . S
H1414 C1402 0.960 . S
H1415 C1402 0.962 . S
H1416 C1402 0.960 . S
H1417 C1403 0.961 . S
H1418 C1403 0.961 . S
H1419 C1403 0.961 . S
H1420 C1404 0.931 . S
H1421 C1409 0.930 . S
H1422 C1410 0.956 . S
H1423 C1410 0.961 . S
H1424 C1410 0.961 . S
H1425 C1411 0.958 . S
H1426 C1411 0.961 . S
H1427 C1411 0.960 . S
C1428 C1429 1.391 . S
C1428 C1430 1.394 . S
C1428 H1444 0.931 . S
C1429 C1428 1.391 . S
C1429 C1433 1.376 . S
C1430 C1428 1.394 . S
C1430 C1431 1.369 . S
C1430 C1434 1.531 . S
C1431 C1430 1.369 . S
C1431 C1432 1.410 . S
C1431 C1439 1.503 . S
C1432 C1431 1.410 . S
C1432 C1433 1.392 . S
C1432 C1435 1.511 . S
C1433 C1429 1.376 . S
C1433 C1432 1.392 . S
C1433 H1445 0.929 . S
C1434 C1430 1.531 . S
C1434 H1446 0.960 . S
C1434 H1447 0.962 . S
C1434 H1448 0.960 . S
C1435 C1432 1.511 . S
C1435 H1449 0.961 . S
C1435 H1450 0.961 . S
C1435 H1451 0.961 . S
C1436 C1437 1.370 . S
C1436 C1438 1.363 . S
C1436 H1452 0.931 . S
C1437 C1436 1.370 . S
C1437 C1441 1.408 . S
C1438 C1436 1.363 . S
C1438 C1439 1.370 . S
C1438 C1442 1.524 . S
C1439 C1431 1.503 . S
C1439 C1438 1.370 . S
C1439 C1440 1.403 . S
C1440 C1439 1.403 . S
C1440 C1441 1.404 . S
C1440 C1443 1.539 . S
C1441 C1437 1.408 . S
C1441 C1440 1.404 . S
C1441 H1453 0.930 . S
C1442 C1438 1.524 . S
C1442 H1454 0.956 . S
C1442 H1455 0.961 . S
C1442 H1456 0.961 . S
C1443 C1440 1.539 . S
C1443 H1457 0.958 . S
C1443 H1458 0.961 . S
C1443 H1459 0.960 . S
H1444 C1428 0.931 . S
H1445 C1433 0.929 . S
H1446 C1434 0.960 . S
H1447 C1434 0.962 . S
H1448 C1434 0.960 . S
H1449 C1435 0.961 . S
H1450 C1435 0.961 . S
H1451 C1435 0.961 . S
H1452 C1436 0.931 . S
H1453 C1441 0.930 . S
H1454 C1442 0.956 . S
H1455 C1442 0.961 . S
H1456 C1442 0.961 . S
H1457 C1443 0.958 . S
H1458 C1443 0.961 . S
H1459 C1443 0.960 . S
C1460 C1461 1.391 . S
C1460 C1462 1.394 . S
C1460 H1476 0.931 . S
C1461 C1460 1.391 . S
C1461 C1465 1.376 . S
C1462 C1460 1.394 . S
C1462 C1463 1.369 . S
C1462 C1466 1.531 . S
C1463 C1462 1.369 . S
C1463 C1464 1.410 . S
C1463 C1471 1.503 . S
C1464 C1463 1.410 . S
C1464 C1465 1.392 . S
C1464 C1467 1.511 . S
C1465 C1461 1.376 . S
C1465 C1464 1.392 . S
C1465 H1477 0.929 . S
C1466 C1462 1.531 . S
C1466 H1478 0.960 . S
C1466 H1479 0.962 . S
C1466 H1480 0.960 . S
C1467 C1464 1.511 . S
C1467 H1481 0.961 . S
C1467 H1482 0.961 . S
C1467 H1483 0.961 . S
C1468 C1469 1.370 . S
C1468 C1470 1.363 . S
C1468 H1484 0.931 . S
C1469 C1468 1.370 . S
C1469 C1473 1.408 . S
C1470 C1468 1.363 . S
C1470 C1471 1.370 . S
C1470 C1474 1.524 . S
C1471 C1463 1.503 . S
C1471 C1470 1.370 . S
C1471 C1472 1.403 . S
C1472 C1471 1.403 . S
C1472 C1473 1.404 . S
C1472 C1475 1.539 . S
C1473 C1469 1.408 . S
C1473 C1472 1.404 . S
C1473 H1485 0.930 . S
C1474 C1470 1.524 . S
C1474 H1486 0.956 . S
C1474 H1487 0.961 . S
C1474 H1488 0.961 . S
C1475 C1472 1.539 . S
C1475 H1489 0.958 . S
C1475 H1490 0.961 . S
C1475 H1491 0.960 . S
H1476 C1460 0.931 . S
H1477 C1465 0.929 . S
H1478 C1466 0.960 . S
H1479 C1466 0.962 . S
H1480 C1466 0.960 . S
H1481 C1467 0.961 . S
H1482 C1467 0.961 . S
H1483 C1467 0.961 . S
H1484 C1468 0.931 . S
H1485 C1473 0.930 . S
H1486 C1474 0.956 . S
H1487 C1474 0.961 . S
H1488 C1474 0.961 . S
H1489 C1475 0.958 . S
H1490 C1475 0.961 . S
H1491 C1475 0.960 . S
C1492 C1493 1.391 . S
C1492 C1494 1.394 . S
C1492 H1508 0.931 . S
C1493 C1492 1.391 . S
C1493 C1497 1.376 . S
C1494 C1492 1.394 . S
C1494 C1495 1.369 . S
C1494 C1498 1.531 . S
C1495 C1494 1.369 . S
C1495 C1496 1.410 . S
C1495 C1503 1.503 . S
C1496 C1495 1.410 . S
C1496 C1497 1.392 . S
C1496 C1499 1.511 . S
C1497 C1493 1.376 . S
C1497 C1496 1.392 . S
C1497 H1509 0.929 . S
C1498 C1494 1.531 . S
C1498 H1510 0.960 . S
C1498 H1511 0.962 . S
C1498 H1512 0.960 . S
C1499 C1496 1.511 . S
C1499 H1513 0.961 . S
C1499 H1514 0.961 . S
C1499 H1515 0.961 . S
C1500 C1501 1.370 . S
C1500 C1502 1.363 . S
C1500 H1516 0.931 . S
C1501 C1500 1.370 . S
C1501 C1505 1.408 . S
C1502 C1500 1.363 . S
C1502 C1503 1.370 . S
C1502 C1506 1.524 . S
C1503 C1495 1.503 . S
C1503 C1502 1.370 . S
C1503 C1504 1.403 . S
C1504 C1503 1.403 . S
C1504 C1505 1.404 . S
C1504 C1507 1.539 . S
C1505 C1501 1.408 . S
C1505 C1504 1.404 . S
C1505 H1517 0.930 . S
C1506 C1502 1.524 . S
C1506 H1518 0.956 . S
C1506 H1519 0.961 . S
C1506 H1520 0.961 . S
C1507 C1504 1.539 . S
C1507 H1521 0.958 . S
C1507 H1522 0.961 . S
C1507 H1523 0.960 . S
H1508 C1492 0.931 . S
H1509 C1497 0.929 . S
H1510 C1498 0.960 . S
H1511 C1498 0.962 . S
H1512 C1498 0.960 . S
H1513 C1499 0.961 . S
H1514 C1499 0.961 . S
H1515 C1499 0.961 . S
H1516 C1500 0.931 . S
H1517 C1505 0.930 . S
H1518 C1506 0.956 . S
H1519 C1506 0.961 . S
H1520 C1506 0.961 . S
H1521 C1507 0.958 . S
H1522 C1507 0.961 . S
H1523 C1507 0.960 . S
C1524 C1525 1.391 . S
C1524 C1526 1.394 . S
C1524 H1540 0.931 . S
C1525 C1524 1.391 . S
C1525 C1529 1.376 . S
C1526 C1524 1.394 . S
C1526 C1527 1.369 . S
C1526 C1530 1.531 . S
C1527 C1526 1.369 . S
C1527 C1528 1.410 . S
C1527 C1535 1.503 . S
C1528 C1527 1.410 . S
C1528 C1529 1.392 . S
C1528 C1531 1.511 . S
C1529 C1525 1.376 . S
C1529 C1528 1.392 . S
C1529 H1541 0.929 . S
C1530 C1526 1.531 . S
C1530 H1542 0.960 . S
C1530 H1543 0.962 . S
C1530 H1544 0.960 . S
C1531 C1528 1.511 . S
C1531 H1545 0.961 . S
C1531 H1546 0.961 . S
C1531 H1547 0.961 . S
C1532 C1533 1.370 . S
C1532 C1534 1.363 . S
C1532 H1548 0.931 . S
C1533 C1532 1.370 . S
C1533 C1537 1.408 . S
C1534 C1532 1.363 . S
C1534 C1535 1.370 . S
C1534 C1538 1.524 . S
C1535 C1527 1.503 . S
C1535 C1534 1.370 . S
C1535 C1536 1.403 . S
C1536 C1535 1.403 . S
C1536 C1537 1.404 . S
C1536 C1539 1.539 . S
C1537 C1533 1.408 . S
C1537 C1536 1.404 . S
C1537 H1549 0.930 . S
C1538 C1534 1.524 . S
C1538 H1550 0.956 . S
C1538 H1551 0.961 . S
C1538 H1552 0.961 . S
C1539 C1536 1.539 . S
C1539 H1553 0.958 . S
C1539 H1554 0.961 . S
C1539 H1555 0.960 . S
H1540 C1524 0.931 . S
H1541 C1529 0.929 . S
H1542 C1530 0.960 . S
H1543 C1530 0.962 . S
H1544 C1530 0.960 . S
H1545 C1531 0.961 . S
H1546 C1531 0.961 . S
H1547 C1531 0.961 . S
H1548 C1532 0.931 . S
H1549 C1537 0.930 . S
H1550 C1538 0.956 . S
H1551 C1538 0.961 . S
H1552 C1538 0.961 . S
H1553 C1539 0.958 . S
H1554 C1539 0.961 . S
H1555 C1539 0.960 . S
C1556 C1557 1.391 . S
C1556 C1558 1.394 . S
C1556 H1572 0.931 . S
C1557 C1556 1.391 . S
C1557 C1561 1.376 . S
C1558 C1556 1.394 . S
C1558 C1559 1.369 . S
C1558 C1562 1.531 . S
C1559 C1558 1.369 . S
C1559 C1560 1.410 . S
C1559 C1567 1.503 . S
C1560 C1559 1.410 . S
C1560 C1561 1.392 . S
C1560 C1563 1.511 . S
C1561 C1557 1.376 . S
C1561 C1560 1.392 . S
C1561 H1573 0.929 . S
C1562 C1558 1.531 . S
C1562 H1574 0.960 . S
C1562 H1575 0.962 . S
C1562 H1576 0.960 . S
C1563 C1560 1.511 . S
C1563 H1577 0.961 . S
C1563 H1578 0.961 . S
C1563 H1579 0.961 . S
C1564 C1565 1.370 . S
C1564 C1566 1.363 . S
C1564 H1580 0.931 . S
C1565 C1564 1.370 . S
C1565 C1569 1.408 . S
C1566 C1564 1.363 . S
C1566 C1567 1.370 . S
C1566 C1570 1.524 . S
C1567 C1559 1.503 . S
C1567 C1566 1.370 . S
C1567 C1568 1.403 . S
C1568 C1567 1.403 . S
C1568 C1569 1.404 . S
C1568 C1571 1.539 . S
C1569 C1565 1.408 . S
C1569 C1568 1.404 . S
C1569 H1581 0.930 . S
C1570 C1566 1.524 . S
C1570 H1582 0.956 . S
C1570 H1583 0.961 . S
C1570 H1584 0.961 . S
C1571 C1568 1.539 . S
C1571 H1585 0.958 . S
C1571 H1586 0.961 . S
C1571 H1587 0.960 . S
H1572 C1556 0.931 . S
H1573 C1561 0.929 . S
H1574 C1562 0.960 . S
H1575 C1562 0.962 . S
H1576 C1562 0.960 . S
H1577 C1563 0.961 . S
H1578 C1563 0.961 . S
H1579 C1563 0.961 . S
H1580 C1564 0.931 . S
H1581 C1569 0.930 . S
H1582 C1570 0.956 . S
H1583 C1570 0.961 . S
H1584 C1570 0.961 . S
H1585 C1571 0.958 . S
H1586 C1571 0.961 . S
H1587 C1571 0.960 . S
C1588 C1589 1.391 . S
C1588 C1590 1.394 . S
C1588 H1604 0.931 . S
C1589 C1588 1.391 . S
C1589 C1593 1.376 . S
C1590 C1588 1.394 . S
C1590 C1591 1.369 . S
C1590 C1594 1.531 . S
C1591 C1590 1.369 . S
C1591 C1592 1.410 . S
C1591 C1599 1.503 . S
C1592 C1591 1.410 . S
C1592 C1593 1.392 . S
C1592 C1595 1.511 . S
C1593 C1589 1.376 . S
C1593 C1592 1.392 . S
C1593 H1605 0.929 . S
C1594 C1590 1.531 . S
C1594 H1606 0.960 . S
C1594 H1607 0.962 . S
C1594 H1608 0.960 . S
C1595 C1592 1.511 . S
C1595 H1609 0.961 . S
C1595 H1610 0.961 . S
C1595 H1611 0.961 . S
C1596 C1597 1.370 . S
C1596 C1598 1.363 . S
C1596 H1612 0.931 . S
C1597 C1596 1.370 . S
C1597 C1601 1.408 . S
C1598 C1596 1.363 . S
C1598 C1599 1.370 . S
C1598 C1602 1.524 . S
C1599 C1591 1.503 . S
C1599 C1598 1.370 . S
C1599 C1600 1.403 . S
C1600 C1599 1.403 . S
C1600 C1601 1.404 . S
C1600 C1603 1.539 . S
C1601 C1597 1.408 . S
C1601 C1600 1.404 . S
C1601 H1613 0.930 . S
C1602 C1598 1.524 . S
C1602 H1614 0.956 . S
C1602 H1615 0.961 . S
C1602 H1616 0.961 . S
C1603 C1600 1.539 . S
C1603 H1617 0.958 . S
C1603 H1618 0.961 . S
C1603 H1619 0.960 . S
H1604 C1588 0.931 . S
H1605 C1593 0.929 . S
H1606 C1594 0.960 . S
H1607 C1594 0.962 . S
H1608 C1594 0.960 . S
H1609 C1595 0.961 . S
H1610 C1595 0.961 . S
H1611 C1595 0.961 . S
H1612 C1596 0.931 . S
H1613 C1601 0.930 . S
H1614 C1602 0.956 . S
H1615 C1602 0.961 . S
H1616 C1602 0.961 . S
H1617 C1603 0.958 . S
H1618 C1603 0.961 . S
H1619 C1603 0.960 . S
C1620 C1621 1.391 . S
C1620 C1622 1.394 . S
C1620 H1636 0.931 . S
C1621 C1620 1.391 . S
C1621 C1625 1.376 . S
C1622 C1620 1.394 . S
C1622 C1623 1.369 . S
C1622 C1626 1.531 . S
C1623 C1622 1.369 . S
C1623 C1624 1.410 . S
C1623 C1631 1.503 . S
C1624 C1623 1.410 . S
C1624 C1625 1.392 . S
C1624 C1627 1.511 . S
C1625 C1621 1.376 . S
C1625 C1624 1.392 . S
C1625 H1637 0.929 . S
C1626 C1622 1.531 . S
C1626 H1638 0.960 . S
C1626 H1639 0.962 . S
C1626 H1640 0.960 . S
C1627 C1624 1.511 . S
C1627 H1641 0.961 . S
C1627 H1642 0.961 . S
C1627 H1643 0.961 . S
C1628 C1629 1.370 . S
C1628 C1630 1.363 . S
C1628 H1644 0.931 . S
C1629 C1628 1.370 . S
C1629 C1633 1.408 . S
C1630 C1628 1.363 . S
C1630 C1631 1.370 . S
C1630 C1634 1.524 . S
C1631 C1623 1.503 . S
C1631 C1630 1.370 . S
C1631 C1632 1.403 . S
C1632 C1631 1.403 . S
C1632 C1633 1.404 . S
C1632 C1635 1.539 . S
C1633 C1629 1.408 . S
C1633 C1632 1.404 . S
C1633 H1645 0.930 . S
C1634 C1630 1.524 . S
C1634 H1646 0.956 . S
C1634 H1647 0.961 . S
C1634 H1648 0.961 . S
C1635 C1632 1.539 . S
C1635 H1649 0.958 . S
C1635 H1650 0.961 . S
C1635 H1651 0.960 . S
H1636 C1620 0.931 . S
H1637 C1625 0.929 . S
H1638 C1626 0.960 . S
H1639 C1626 0.962 . S
H1640 C1626 0.960 . S
H1641 C1627 0.961 . S
H1642 C1627 0.961 . S
H1643 C1627 0.961 . S
H1644 C1628 0.931 . S
H1645 C1633 0.930 . S
H1646 C1634 0.956 . S
H1647 C1634 0.961 . S
H1648 C1634 0.961 . S
H1649 C1635 0.958 . S
H1650 C1635 0.961 . S
H1651 C1635 0.960 . S
C1652 C1653 1.391 . S
C1652 C1654 1.394 . S
C1652 H1668 0.931 . S
C1653 C1652 1.391 . S
C1653 C1657 1.376 . S
C1654 C1652 1.394 . S
C1654 C1655 1.369 . S
C1654 C1658 1.531 . S
C1655 C1654 1.369 . S
C1655 C1656 1.410 . S
C1655 C1663 1.503 . S
C1656 C1655 1.410 . S
C1656 C1657 1.392 . S
C1656 C1659 1.511 . S
C1657 C1653 1.376 . S
C1657 C1656 1.392 . S
C1657 H1669 0.929 . S
C1658 C1654 1.531 . S
C1658 H1670 0.960 . S
C1658 H1671 0.962 . S
C1658 H1672 0.960 . S
C1659 C1656 1.511 . S
C1659 H1673 0.961 . S
C1659 H1674 0.961 . S
C1659 H1675 0.961 . S
C1660 C1661 1.370 . S
C1660 C1662 1.363 . S
C1660 H1676 0.931 . S
C1661 C1660 1.370 . S
C1661 C1665 1.408 . S
C1662 C1660 1.363 . S
C1662 C1663 1.370 . S
C1662 C1666 1.524 . S
C1663 C1655 1.503 . S
C1663 C1662 1.370 . S
C1663 C1664 1.403 . S
C1664 C1663 1.403 . S
C1664 C1665 1.404 . S
C1664 C1667 1.539 . S
C1665 C1661 1.408 . S
C1665 C1664 1.404 . S
C1665 H1677 0.930 . S
C1666 C1662 1.524 . S
C1666 H1678 0.956 . S
C1666 H1679 0.961 . S
C1666 H1680 0.961 . S
C1667 C1664 1.539 . S
C1667 H1681 0.958 . S
C1667 H1682 0.961 . S
C1667 H1683 0.960 . S
H1668 C1652 0.931 . S
H1669 C1657 0.929 . S
H1670 C1658 0.960 . S
H1671 C1658 0.962 . S
H1672 C1658 0.960 . S
H1673 C1659 0.961 . S
H1674 C1659 0.961 . S
H1675 C1659 0.961 . S
H1676 C1660 0.931 . S
H1677 C1665 0.930 . S
H1678 C1666 0.956 . S
H1679 C1666 0.961 . S
H1680 C1666 0.961 . S
H1681 C1667 0.958 . S
H1682 C1667 0.961 . S
H1683 C1667 0.960 . S
C1684 C1685 1.391 . S
C1684 C1686 1.394 . S
C1684 H1700 0.931 . S
C1685 C1684 1.391 . S
C1685 C1689 1.376 . S
C1686 C1684 1.394 . S
C1686 C1687 1.369 . S
C1686 C1690 1.531 . S
C1687 C1686 1.369 . S
C1687 C1688 1.410 . S
C1687 C1695 1.503 . S
C1688 C1687 1.410 . S
C1688 C1689 1.392 . S
C1688 C1691 1.511 . S
C1689 C1685 1.376 . S
C1689 C1688 1.392 . S
C1689 H1701 0.929 . S
C1690 C1686 1.531 . S
C1690 H1702 0.960 . S
C1690 H1703 0.962 . S
C1690 H1704 0.960 . S
C1691 C1688 1.511 . S
C1691 H1705 0.961 . S
C1691 H1706 0.961 . S
C1691 H1707 0.961 . S
C1692 C1693 1.370 . S
C1692 C1694 1.363 . S
C1692 H1708 0.931 . S
C1693 C1692 1.370 . S
C1693 C1697 1.408 . S
C1694 C1692 1.363 . S
C1694 C1695 1.370 . S
C1694 C1698 1.524 . S
C1695 C1687 1.503 . S
C1695 C1694 1.370 . S
C1695 C1696 1.403 . S
C1696 C1695 1.403 . S
C1696 C1697 1.404 . S
C1696 C1699 1.539 . S
C1697 C1693 1.408 . S
C1697 C1696 1.404 . S
C1697 H1709 0.930 . S
C1698 C1694 1.524 . S
C1698 H1710 0.956 . S
C1698 H1711 0.961 . S
C1698 H1712 0.961 . S
C1699 C1696 1.539 . S
C1699 H1713 0.958 . S
C1699 H1714 0.961 . S
C1699 H1715 0.960 . S
H1700 C1684 0.931 . S
H1701 C1689 0.929 . S
H1702 C1690 0.960 . S
H1703 C1690 0.962 . S
H1704 C1690 0.960 . S
H1705 C1691 0.961 . S
H1706 C1691 0.961 . S
H1707 C1691 0.961 . S
H1708 C1692 0.931 . S
H1709 C1697 0.930 . S
H1710 C1698 0.956 . S
H1711 C1698 0.961 . S
H1712 C1698 0.961 . S
H1713 C1699 0.958 . S
H1714 C1699 0.961 . S
H1715 C1699 0.960 . S
C1716 C1717 1.391 . S
C1716 C1718 1.394 . S
C1716 H1732 0.931 . S
C1717 C1716 1.391 . S
C1717 C1721 1.376 . S
C1718 C1716 1.394 . S
C1718 C1719 1.369 . S
C1718 C1722 1.531 . S
C1719 C1718 1.369 . S
C1719 C1720 1.410 . S
C1719 C1727 1.503 . S
C1720 C1719 1.410 . S
C1720 C1721 1.392 . S
C1720 C1723 1.511 . S
C1721 C1717 1.376 . S
C1721 C1720 1.392 . S
C1721 H1733 0.929 . S
C1722 C1718 1.531 . S
C1722 H1734 0.960 . S
C1722 H1735 0.962 . S
C1722 H1736 0.960 . S
C1723 C1720 1.511 . S
C1723 H1737 0.961 . S
C1723 H1738 0.961 . S
C1723 H1739 0.961 . S
C1724 C1725 1.370 . S
C1724 C1726 1.363 . S
C1724 H1740 0.931 . S
C1725 C1724 1.370 . S
C1725 C1729 1.408 . S
C1726 C1724 1.363 . S
C1726 C1727 1.370 . S
C1726 C1730 1.524 . S
C1727 C1719 1.503 . S
C1727 C1726 1.370 . S
C1727 C1728 1.403 . S
C1728 C1727 1.403 . S
C1728 C1729 1.404 . S
C1728 C1731 1.539 . S
C1729 C1725 1.408 . S
C1729 C1728 1.404 . S
C1729 H1741 0.930 . S
C1730 C1726 1.524 . S
C1730 H1742 0.956 . S
C1730 H1743 0.961 . S
C1730 H1744 0.961 . S
C1731 C1728 1.539 . S
C1731 H1745 0.958 . S
C1731 H1746 0.961 . S
C1731 H1747 0.960 . S
H1732 C1716 0.931 . S
H1733 C1721 0.929 . S
H1734 C1722 0.960 . S
H1735 C1722 0.962 . S
H1736 C1722 0.960 . S
H1737 C1723 0.961 . S
H1738 C1723 0.961 . S
H1739 C1723 0.961 . S
H1740 C1724 0.931 . S
H1741 C1729 0.930 . S
H1742 C1730 0.956 . S
H1743 C1730 0.961 . S
H1744 C1730 0.961 . S
H1745 C1731 0.958 . S
H1746 C1731 0.961 . S
H1747 C1731 0.960 . S
C1748 C1749 1.391 . S
C1748 C1750 1.394 . S
C1748 H1764 0.931 . S
C1749 C1748 1.391 . S
C1749 C1753 1.376 . S
C1750 C1748 1.394 . S
C1750 C1751 1.369 . S
C1750 C1754 1.531 . S
C1751 C1750 1.369 . S
C1751 C1752 1.410 . S
C1751 C1759 1.503 . S
C1752 C1751 1.410 . S
C1752 C1753 1.392 . S
C1752 C1755 1.511 . S
C1753 C1749 1.376 . S
C1753 C1752 1.392 . S
C1753 H1765 0.929 . S
C1754 C1750 1.531 . S
C1754 H1766 0.960 . S
C1754 H1767 0.962 . S
C1754 H1768 0.960 . S
C1755 C1752 1.511 . S
C1755 H1769 0.961 . S
C1755 H1770 0.961 . S
C1755 H1771 0.961 . S
C1756 C1757 1.370 . S
C1756 C1758 1.363 . S
C1756 H1772 0.931 . S
C1757 C1756 1.370 . S
C1757 C1761 1.408 . S
C1758 C1756 1.363 . S
C1758 C1759 1.370 . S
C1758 C1762 1.524 . S
C1759 C1751 1.503 . S
C1759 C1758 1.370 . S
C1759 C1760 1.403 . S
C1760 C1759 1.403 . S
C1760 C1761 1.404 . S
C1760 C1763 1.539 . S
C1761 C1757 1.408 . S
C1761 C1760 1.404 . S
C1761 H1773 0.930 . S
C1762 C1758 1.524 . S
C1762 H1774 0.956 . S
C1762 H1775 0.961 . S
C1762 H1776 0.961 . S
C1763 C1760 1.539 . S
C1763 H1777 0.958 . S
C1763 H1778 0.961 . S
C1763 H1779 0.960 . S
H1764 C1748 0.931 . S
H1765 C1753 0.929 . S
H1766 C1754 0.960 . S
H1767 C1754 0.962 . S
H1768 C1754 0.960 . S
H1769 C1755 0.961 . S
H1770 C1755 0.961 . S
H1771 C1755 0.961 . S
H1772 C1756 0.931 . S
H1773 C1761 0.930 . S
H1774 C1762 0.956 . S
H1775 C1762 0.961 . S
H1776 C1762 0.961 . S
H1777 C1763 0.958 . S
H1778 C1763 0.961 . S
H1779 C1763 0.960 . S
C1780 C1781 1.391 . S
C1780 C1782 1.394 . S
C1780 H1796 0.931 . S
C1781 C1780 1.391 . S
C1781 C1785 1.376 . S
C1782 C1780 1.394 . S
C1782 C1783 1.369 . S
C1782 C1786 1.531 . S
C1783 C1782 1.369 . S
C1783 C1784 1.410 . S
C1783 C1791 1.503 . S
C1784 C1783 1.410 . S
C1784 C1785 1.392 . S
C1784 C1787 1.511 . S
C1785 C1781 1.376 . S
C1785 C1784 1.392 . S
C1785 H1797 0.929 . S
C1786 C1782 1.531 . S
C1786 H1798 0.960 . S
C1786 H1799 0.962 . S
C1786 H1800 0.960 . S
C1787 C1784 1.511 . S
C1787 H1801 0.961 . S
C1787 H1802 0.961 . S
C1787 H1803 0.961 . S
C1788 C1789 1.370 . S
C1788 C1790 1.363 . S
C1788 H1804 0.931 . S
C1789 C1788 1.370 . S
C1789 C1793 1.408 . S
C1790 C1788 1.363 . S
C1790 C1791 1.370 . S
C1790 C1794 1.524 . S
C1791 C1783 1.503 . S
C1791 C1790 1.370 . S
C1791 C1792 1.403 . S
C1792 C1791 1.403 . S
C1792 C1793 1.404 . S
C1792 C1795 1.539 . S
C1793 C1789 1.408 . S
C1793 C1792 1.404 . S
C1793 H1805 0.930 . S
C1794 C1790 1.524 . S
C1794 H1806 0.956 . S
C1794 H1807 0.961 . S
C1794 H1808 0.961 . S
C1795 C1792 1.539 . S
C1795 H1809 0.958 . S
C1795 H1810 0.961 . S
C1795 H1811 0.960 . S
H1796 C1780 0.931 . S
H1797 C1785 0.929 . S
H1798 C1786 0.960 . S
H1799 C1786 0.962 . S
H1800 C1786 0.960 . S
H1801 C1787 0.961 . S
H1802 C1787 0.961 . S
H1803 C1787 0.961 . S
H1804 C1788 0.931 . S
H1805 C1793 0.930 . S
H1806 C1794 0.956 . S
H1807 C1794 0.961 . S
H1808 C1794 0.961 . S
H1809 C1795 0.958 . S
H1810 C1795 0.961 . S
H1811 C1795 0.960 . S
C1812 C1813 1.391 . S
C1812 C1814 1.394 . S
C1812 H1828 0.931 . S
C1813 C1812 1.391 . S
C1813 C1817 1.376 . S
C1814 C1812 1.394 . S
C1814 C1815 1.369 . S
C1814 C1818 1.531 . S
C1815 C1814 1.369 . S
C1815 C1816 1.410 . S
C1815 C1823 1.503 . S
C1816 C1815 1.410 . S
C1816 C1817 1.392 . S
C1816 C1819 1.511 . S
C1817 C1813 1.376 . S
C1817 C1816 1.392 . S
C1817 H1829 0.929 . S
C1818 C1814 1.531 . S
C1818 H1830 0.960 . S
C1818 H1831 0.962 . S
C1818 H1832 0.960 . S
C1819 C1816 1.511 . S
C1819 H1833 0.961 . S
C1819 H1834 0.961 . S
C1819 H1835 0.961 . S
C1820 C1821 1.370 . S
C1820 C1822 1.363 . S
C1820 H1836 0.931 . S
C1821 C1820 1.370 . S
C1821 C1825 1.408 . S
C1822 C1820 1.363 . S
C1822 C1823 1.370 . S
C1822 C1826 1.524 . S
C1823 C1815 1.503 . S
C1823 C1822 1.370 . S
C1823 C1824 1.403 . S
C1824 C1823 1.403 . S
C1824 C1825 1.404 . S
C1824 C1827 1.539 . S
C1825 C1821 1.408 . S
C1825 C1824 1.404 . S
C1825 H1837 0.930 . S
C1826 C1822 1.524 . S
C1826 H1838 0.956 . S
C1826 H1839 0.961 . S
C1826 H1840 0.961 . S
C1827 C1824 1.539 . S
C1827 H1841 0.958 . S
C1827 H1842 0.961 . S
C1827 H1843 0.960 . S
H1828 C1812 0.931 . S
H1829 C1817 0.929 . S
H1830 C1818 0.960 . S
H1831 C1818 0.962 . S
H1832 C1818 0.960 . S
H1833 C1819 0.961 . S
H1834 C1819 0.961 . S
H1835 C1819 0.961 . S
H1836 C1820 0.931 . S
H1837 C1825 0.930 . S
H1838 C1826 0.956 . S
H1839 C1826 0.961 . S
H1840 C1826 0.961 . S
H1841 C1827 0.958 . S
H1842 C1827 0.961 . S
H1843 C1827 0.960 . S
C1844 C1845 1.391 . S
C1844 C1846 1.394 . S
C1844 H1860 0.931 . S
C1845 C1844 1.391 . S
C1845 C1849 1.376 . S
C1846 C1844 1.394 . S
C1846 C1847 1.369 . S
C1846 C1850 1.531 . S
C1847 C1846 1.369 . S
C1847 C1848 1.410 . S
C1847 C1855 1.503 . S
C1848 C1847 1.410 . S
C1848 C1849 1.392 . S
C1848 C1851 1.511 . S
C1849 C1845 1.376 . S
C1849 C1848 1.392 . S
C1849 H1861 0.929 . S
C1850 C1846 1.531 . S
C1850 H1862 0.960 . S
C1850 H1863 0.962 . S
C1850 H1864 0.960 . S
C1851 C1848 1.511 . S
C1851 H1865 0.961 . S
C1851 H1866 0.961 . S
C1851 H1867 0.961 . S
C1852 C1853 1.370 . S
C1852 C1854 1.363 . S
C1852 H1868 0.931 . S
C1853 C1852 1.370 . S
C1853 C1857 1.408 . S
C1854 C1852 1.363 . S
C1854 C1855 1.370 . S
C1854 C1858 1.524 . S
C1855 C1847 1.503 . S
C1855 C1854 1.370 . S
C1855 C1856 1.403 . S
C1856 C1855 1.403 . S
C1856 C1857 1.404 . S
C1856 C1859 1.539 . S
C1857 C1853 1.408 . S
C1857 C1856 1.404 . S
C1857 H1869 0.930 . S
C1858 C1854 1.524 . S
C1858 H1870 0.956 . S
C1858 H1871 0.961 . S
C1858 H1872 0.961 . S
C1859 C1856 1.539 . S
C1859 H1873 0.958 . S
C1859 H1874 0.961 . S
C1859 H1875 0.960 . S
H1860 C1844 0.931 . S
H1861 C1849 0.929 . S
H1862 C1850 0.960 . S
H1863 C1850 0.962 . S
H1864 C1850 0.960 . S
H1865 C1851 0.961 . S
H1866 C1851 0.961 . S
H1867 C1851 0.961 . S
H1868 C1852 0.931 . S
H1869 C1857 0.930 . S
H1870 C1858 0.956 . S
H1871 C1858 0.961 . S
H1872 C1858 0.961 . S
H1873 C1859 0.958 . S
H1874 C1859 0.961 . S
H1875 C1859 0.960 . S
C1876 C1877 1.391 . S
C1876 C1878 1.394 . S
C1876 H1892 0.931 . S
C1877 C1876 1.391 . S
C1877 C1881 1.376 . S
C1878 C1876 1.394 . S
C1878 C1879 1.369 . S
C1878 C1882 1.531 . S
C1879 C1878 1.369 . S
C1879 C1880 1.410 . S
C1879 C1887 1.503 . S
C1880 C1879 1.410 . S
C1880 C1881 1.392 . S
C1880 C1883 1.511 . S
C1881 C1877 1.376 . S
C1881 C1880 1.392 . S
C1881 H1893 0.929 . S
C1882 C1878 1.531 . S
C1882 H1894 0.960 . S
C1882 H1895 0.962 . S
C1882 H1896 0.960 . S
C1883 C1880 1.511 . S
C1883 H1897 0.961 . S
C1883 H1898 0.961 . S
C1883 H1899 0.961 . S
C1884 C1885 1.370 . S
C1884 C1886 1.363 . S
C1884 H1900 0.931 . S
C1885 C1884 1.370 . S
C1885 C1889 1.408 . S
C1886 C1884 1.363 . S
C1886 C1887 1.370 . S
C1886 C1890 1.524 . S
C1887 C1879 1.503 . S
C1887 C1886 1.370 . S
C1887 C1888 1.403 . S
C1888 C1887 1.403 . S
C1888 C1889 1.404 . S
C1888 C1891 1.539 . S
C1889 C1885 1.408 . S
C1889 C1888 1.404 . S
C1889 H1901 0.930 . S
C1890 C1886 1.524 . S
C1890 H1902 0.956 . S
C1890 H1903 0.961 . S
C1890 H1904 0.961 . S
C1891 C1888 1.539 . S
C1891 H1905 0.958 . S
C1891 H1906 0.961 . S
C1891 H1907 0.960 . S
H1892 C1876 0.931 . S
H1893 C1881 0.929 . S
H1894 C1882 0.960 . S
H1895 C1882 0.962 . S
H1896 C1882 0.960 . S
H1897 C1883 0.961 . S
H1898 C1883 0.961 . S
H1899 C1883 0.961 . S
H1900 C1884 0.931 . S
H1901 C1889 0.930 . S
H1902 C1890 0.956 . S
H1903 C1890 0.961 . S
H1904 C1890 0.961 . S
H1905 C1891 0.958 . S
H1906 C1891 0.961 . S
H1907 C1891 0.960 . S
C1908 C1909 1.391 . S
C1908 C1910 1.394 . S
C1908 H1924 0.931 . S
C1909 C1908 1.391 . S
C1909 C1913 1.376 . S
C1910 C1908 1.394 . S
C1910 C1911 1.369 . S
C1910 C1914 1.531 . S
C1911 C1910 1.369 . S
C1911 C1912 1.410 . S
C1911 C1919 1.503 . S
C1912 C1911 1.410 . S
C1912 C1913 1.392 . S
C1912 C1915 1.511 . S
C1913 C1909 1.376 . S
C1913 C1912 1.392 . S
C1913 H1925 0.929 . S
C1914 C1910 1.531 . S
C1914 H1926 0.960 . S
C1914 H1927 0.962 . S
C1914 H1928 0.960 . S
C1915 C1912 1.511 . S
C1915 H1929 0.961 . S
C1915 H1930 0.961 . S
C1915 H1931 0.961 . S
C1916 C1917 1.370 . S
C1916 C1918 1.363 . S
C1916 H1932 0.931 . S
C1917 C1916 1.370 . S
C1917 C1921 1.408 . S
C1918 C1916 1.363 . S
C1918 C1919 1.370 . S
C1918 C1922 1.524 . S
C1919 C1911 1.503 . S
C1919 C1918 1.370 . S
C1919 C1920 1.403 . S
C1920 C1919 1.403 . S
C1920 C1921 1.404 . S
C1920 C1923 1.539 . S
C1921 C1917 1.408 . S
C1921 C1920 1.404 . S
C1921 H1933 0.930 . S
C1922 C1918 1.524 . S
C1922 H1934 0.956 . S
C1922 H1935 0.961 . S
C1922 H1936 0.961 . S
C1923 C1920 1.539 . S
C1923 H1937 0.958 . S
C1923 H1938 0.961 . S
C1923 H1939 0.960 . S
H1924 C1908 0.931 . S
H1925 C1913 0.929 . S
H1926 C1914 0.960 . S
H1927 C1914 0.962 . S
H1928 C1914 0.960 . S
H1929 C1915 0.961 . S
H1930 C1915 0.961 . S
H1931 C1915 0.961 . S
H1932 C1916 0.931 . S
H1933 C1921 0.930 . S
H1934 C1922 0.956 . S
H1935 C1922 0.961 . S
H1936 C1922 0.961 . S
H1937 C1923 0.958 . S
H1938 C1923 0.961 . S
H1939 C1923 0.960 . S
C1940 C1941 1.391 . S
C1940 C1942 1.394 . S
C1940 H1956 0.931 . S
C1941 C1940 1.391 . S
C1941 C1945 1.376 . S
C1942 C1940 1.394 . S
C1942 C1943 1.369 . S
C1942 C1946 1.531 . S
C1943 C1942 1.369 . S
C1943 C1944 1.410 . S
C1943 C1951 1.503 . S
C1944 C1943 1.410 . S
C1944 C1945 1.392 . S
C1944 C1947 1.511 . S
C1945 C1941 1.376 . S
C1945 C1944 1.392 . S
C1945 H1957 0.929 . S
C1946 C1942 1.531 . S
C1946 H1958 0.960 . S
C1946 H1959 0.962 . S
C1946 H1960 0.960 . S
C1947 C1944 1.511 . S
C1947 H1961 0.961 . S
C1947 H1962 0.961 . S
C1947 H1963 0.961 . S
C1948 C1949 1.370 . S
C1948 C1950 1.363 . S
C1948 H1964 0.931 . S
C1949 C1948 1.370 . S
C1949 C1953 1.408 . S
C1950 C1948 1.363 . S
C1950 C1951 1.370 . S
C1950 C1954 1.524 . S
C1951 C1943 1.503 . S
C1951 C1950 1.370 . S
C1951 C1952 1.403 . S
C1952 C1951 1.403 . S
C1952 C1953 1.404 . S
C1952 C1955 1.539 . S
C1953 C1949 1.408 . S
C1953 C1952 1.404 . S
C1953 H1965 0.930 . S
C1954 C1950 1.524 . S
C1954 H1966 0.956 . S
C1954 H1967 0.961 . S
C1954 H1968 0.961 . S
C1955 C1952 1.539 . S
C1955 H1969 0.958 . S
C1955 H1970 0.961 . S
C1955 H1971 0.960 . S
H1956 C1940 0.931 . S
H1957 C1945 0.929 . S
H1958 C1946 0.960 . S
H1959 C1946 0.962 . S
H1960 C1946 0.960 . S
H1961 C1947 0.961 . S
H1962 C1947 0.961 . S
H1963 C1947 0.961 . S
H1964 C1948 0.931 . S
H1965 C1953 0.930 . S
H1966 C1954 0.956 . S
H1967 C1954 0.961 . S
H1968 C1954 0.961 . S
H1969 C1955 0.958 . S
H1970 C1955 0.961 . S
H1971 C1955 0.960 . S
C1972 C1973 1.391 . S
C1972 C1974 1.394 . S
C1972 H1988 0.931 . S
C1973 C1972 1.391 . S
C1973 C1977 1.376 . S
C1974 C1972 1.394 . S
C1974 C1975 1.369 . S
C1974 C1978 1.531 . S
C1975 C1974 1.369 . S
C1975 C1976 1.410 . S
C1975 C1983 1.503 . S
C1976 C1975 1.410 . S
C1976 C1977 1.392 . S
C1976 C1979 1.511 . S
C1977 C1973 1.376 . S
C1977 C1976 1.392 . S
C1977 H1989 0.929 . S
C1978 C1974 1.531 . S
C1978 H1990 0.960 . S
C1978 H1991 0.962 . S
C1978 H1992 0.960 . S
C1979 C1976 1.511 . S
C1979 H1993 0.961 . S
C1979 H1994 0.961 . S
C1979 H1995 0.961 . S
C1980 C1981 1.370 . S
C1980 C1982 1.363 . S
C1980 H1996 0.931 . S
C1981 C1980 1.370 . S
C1981 C1985 1.408 . S
C1982 C1980 1.363 . S
C1982 C1983 1.370 . S
C1982 C1986 1.524 . S
C1983 C1975 1.503 . S
C1983 C1982 1.370 . S
C1983 C1984 1.403 . S
C1984 C1983 1.403 . S
C1984 C1985 1.404 . S
C1984 C1987 1.539 . S
C1985 C1981 1.408 . S
C1985 C1984 1.404 . S
C1985 H1997 0.930 . S
C1986 C1982 1.524 . S
C1986 H1998 0.956 . S
C1986 H1999 0.961 . S
C1986 H2000 0.961 . S
C1987 C1984 1.539 . S
C1987 H2001 0.958 . S
C1987 H2002 0.961 . S
C1987 H2003 0.960 . S
H1988 C1972 0.931 . S
H1989 C1977 0.929 . S
H1990 C1978 0.960 . S
H1991 C1978 0.962 . S
H1992 C1978 0.960 . S
H1993 C1979 0.961 . S
H1994 C1979 0.961 . S
H1995 C1979 0.961 . S
H1996 C1980 0.931 . S
H1997 C1985 0.930 . S
H1998 C1986 0.956 . S
H1999 C1986 0.961 . S
H2000 C1986 0.961 . S
H2001 C1987 0.958 . S
H2002 C1987 0.961 . S
H2003 C1987 0.960 . S
C2004 C2005 1.391 . S
C2004 C2006 1.394 . S
C2004 H2020 0.931 . S
C2005 C2004 1.391 . S
C2005 C2009 1.376 . S
C2006 C2004 1.394 . S
C2006 C2007 1.369 . S
C2006 C2010 1.531 . S
C2007 C2006 1.369 . S
C2007 C2008 1.410 . S
C2007 C2015 1.503 . S
C2008 C2007 1.410 . S
C2008 C2009 1.392 . S
C2008 C2011 1.511 . S
C2009 C2005 1.376 . S
C2009 C2008 1.392 . S
C2009 H2021 0.929 . S
C2010 C2006 1.531 . S
C2010 H2022 0.960 . S
C2010 H2023 0.962 . S
C2010 H2024 0.960 . S
C2011 C2008 1.511 . S
C2011 H2025 0.961 . S
C2011 H2026 0.961 . S
C2011 H2027 0.961 . S
C2012 C2013 1.370 . S
C2012 C2014 1.363 . S
C2012 H2028 0.931 . S
C2013 C2012 1.370 . S
C2013 C2017 1.408 . S
C2014 C2012 1.363 . S
C2014 C2015 1.370 . S
C2014 C2018 1.524 . S
C2015 C2007 1.503 . S
C2015 C2014 1.370 . S
C2015 C2016 1.403 . S
C2016 C2015 1.403 . S
C2016 C2017 1.404 . S
C2016 C2019 1.539 . S
C2017 C2013 1.408 . S
C2017 C2016 1.404 . S
C2017 H2029 0.930 . S
C2018 C2014 1.524 . S
C2018 H2030 0.956 . S
C2018 H2031 0.961 . S
C2018 H2032 0.961 . S
C2019 C2016 1.539 . S
C2019 H2033 0.958 . S
C2019 H2034 0.961 . S
C2019 H2035 0.960 . S
H2020 C2004 0.931 . S
H2021 C2009 0.929 . S
H2022 C2010 0.960 . S
H2023 C2010 0.962 . S
H2024 C2010 0.960 . S
H2025 C2011 0.961 . S
H2026 C2011 0.961 . S
H2027 C2011 0.961 . S
H2028 C2012 0.931 . S
H2029 C2017 0.930 . S
H2030 C2018 0.956 . S
H2031 C2018 0.961 . S
H2032 C2018 0.961 . S
H2033 C2019 0.958 . S
H2034 C2019 0.961 . S
H2035 C2019 0.960 . S
C2036 C2037 1.391 . S
C2036 C2038 1.394 . S
C2036 H2052 0.931 . S
C2037 C2036 1.391 . S
C2037 C2041 1.376 . S
C2038 C2036 1.394 . S
C2038 C2039 1.369 . S
C2038 C2042 1.531 . S
C2039 C2038 1.369 . S
C2039 C2040 1.410 . S
C2039 C2047 1.503 . S
C2040 C2039 1.410 . S
C2040 C2041 1.392 . S
C2040 C2043 1.511 . S
C2041 C2037 1.376 . S
C2041 C2040 1.392 . S
C2041 H2053 0.929 . S
C2042 C2038 1.531 . S
C2042 H2054 0.960 . S
C2042 H2055 0.962 . S
C2042 H2056 0.960 . S
C2043 C2040 1.511 . S
C2043 H2057 0.961 . S
C2043 H2058 0.961 . S
C2043 H2059 0.961 . S
C2044 C2045 1.370 . S
C2044 C2046 1.363 . S
C2044 H2060 0.931 . S
C2045 C2044 1.370 . S
C2045 C2049 1.408 . S
C2046 C2044 1.363 . S
C2046 C2047 1.370 . S
C2046 C2050 1.524 . S
C2047 C2039 1.503 . S
C2047 C2046 1.370 . S
C2047 C2048 1.403 . S
C2048 C2047 1.403 . S
C2048 C2049 1.404 . S
C2048 C2051 1.539 . S
C2049 C2045 1.408 . S
C2049 C2048 1.404 . S
C2049 H2061 0.930 . S
C2050 C2046 1.524 . S
C2050 H2062 0.956 . S
C2050 H2063 0.961 . S
C2050 H2064 0.961 . S
C2051 C2048 1.539 . S
C2051 H2065 0.958 . S
C2051 H2066 0.961 . S
C2051 H2067 0.960 . S
H2052 C2036 0.931 . S
H2053 C2041 0.929 . S
H2054 C2042 0.960 . S
H2055 C2042 0.962 . S
H2056 C2042 0.960 . S
H2057 C2043 0.961 . S
H2058 C2043 0.961 . S
H2059 C2043 0.961 . S
H2060 C2044 0.931 . S
H2061 C2049 0.930 . S
H2062 C2050 0.956 . S
H2063 C2050 0.961 . S
H2064 C2050 0.961 . S
H2065 C2051 0.958 . S
H2066 C2051 0.961 . S
H2067 C2051 0.960 . S
C2068 C2069 1.391 . S
C2068 C2070 1.394 . S
C2068 H2084 0.931 . S
C2069 C2068 1.391 . S
C2069 C2073 1.376 . S
C2070 C2068 1.394 . S
C2070 C2071 1.369 . S
C2070 C2074 1.531 . S
C2071 C2070 1.369 . S
C2071 C2072 1.410 . S
C2071 C2079 1.503 . S
C2072 C2071 1.410 . S
C2072 C2073 1.392 . S
C2072 C2075 1.511 . S
C2073 C2069 1.376 . S
C2073 C2072 1.392 . S
C2073 H2085 0.929 . S
C2074 C2070 1.531 . S
C2074 H2086 0.960 . S
C2074 H2087 0.962 . S
C2074 H2088 0.960 . S
C2075 C2072 1.511 . S
C2075 H2089 0.961 . S
C2075 H2090 0.961 . S
C2075 H2091 0.961 . S
C2076 C2077 1.370 . S
C2076 C2078 1.363 . S
C2076 H2092 0.931 . S
C2077 C2076 1.370 . S
C2077 C2081 1.408 . S
C2078 C2076 1.363 . S
C2078 C2079 1.370 . S
C2078 C2082 1.524 . S
C2079 C2071 1.503 . S
C2079 C2078 1.370 . S
C2079 C2080 1.403 . S
C2080 C2079 1.403 . S
C2080 C2081 1.404 . S
C2080 C2083 1.539 . S
C2081 C2077 1.408 . S
C2081 C2080 1.404 . S
C2081 H2093 0.930 . S
C2082 C2078 1.524 . S
C2082 H2094 0.956 . S
C2082 H2095 0.961 . S
C2082 H2096 0.961 . S
C2083 C2080 1.539 . S
C2083 H2097 0.958 . S
C2083 H2098 0.961 . S
C2083 H2099 0.960 . S
H2084 C2068 0.931 . S
H2085 C2073 0.929 . S
H2086 C2074 0.960 . S
H2087 C2074 0.962 . S
H2088 C2074 0.960 . S
H2089 C2075 0.961 . S
H2090 C2075 0.961 . S
H2091 C2075 0.961 . S
H2092 C2076 0.931 . S
H2093 C2081 0.930 . S
H2094 C2082 0.956 . S
H2095 C2082 0.961 . S
H2096 C2082 0.961 . S
H2097 C2083 0.958 . S
H2098 C2083 0.961 . S
H2099 C2083 0.960 . S
C2100 C2101 1.391 . S
C2100 C2102 1.394 . S
C2100 H2116 0.931 . S
C2101 C2100 1.391 . S
C2101 C2105 1.376 . S
C2102 C2100 1.394 . S
C2102 C2103 1.369 . S
C2102 C2106 1.531 . S
C2103 C2102 1.369 . S
C2103 C2104 1.410 . S
C2103 C2111 1.503 . S
C2104 C2103 1.410 . S
C2104 C2105 1.392 . S
C2104 C2107 1.511 . S
C2105 C2101 1.376 . S
C2105 C2104 1.392 . S
C2105 H2117 0.929 . S
C2106 C2102 1.531 . S
C2106 H2118 0.960 . S
C2106 H2119 0.962 . S
C2106 H2120 0.960 . S
C2107 C2104 1.511 . S
C2107 H2121 0.961 . S
C2107 H2122 0.961 . S
C2107 H2123 0.961 . S
C2108 C2109 1.370 . S
C2108 C2110 1.363 . S
C2108 H2124 0.931 . S
C2109 C2108 1.370 . S
C2109 C2113 1.408 . S
C2110 C2108 1.363 . S
C2110 C2111 1.370 . S
C2110 C2114 1.524 . S
C2111 C2103 1.503 . S
C2111 C2110 1.370 . S
C2111 C2112 1.403 . S
C2112 C2111 1.403 . S
C2112 C2113 1.404 . S
C2112 C2115 1.539 . S
C2113 C2109 1.408 . S
C2113 C2112 1.404 . S
C2113 H2125 0.930 . S
C2114 C2110 1.524 . S
C2114 H2126 0.956 . S
C2114 H2127 0.961 . S
C2114 H2128 0.961 . S
C2115 C2112 1.539 . S
C2115 H2129 0.958 . S
C2115 H2130 0.961 . S
C2115 H2131 0.960 . S
H2116 C2100 0.931 . S
H2117 C2105 0.929 . S
H2118 C2106 0.960 . S
H2119 C2106 0.962 . S
H2120 C2106 0.960 . S
H2121 C2107 0.961 . S
H2122 C2107 0.961 . S
H2123 C2107 0.961 . S
H2124 C2108 0.931 . S
H2125 C2113 0.930 . S
H2126 C2114 0.956 . S
H2127 C2114 0.961 . S
H2128 C2114 0.961 . S
H2129 C2115 0.958 . S
H2130 C2115 0.961 . S
H2131 C2115 0.960 . S
C2132 C2133 1.391 . S
C2132 C2134 1.394 . S
C2132 H2148 0.931 . S
C2133 C2132 1.391 . S
C2133 C2137 1.376 . S
C2134 C2132 1.394 . S
C2134 C2135 1.369 . S
C2134 C2138 1.531 . S
C2135 C2134 1.369 . S
C2135 C2136 1.410 . S
C2135 C2143 1.503 . S
C2136 C2135 1.410 . S
C2136 C2137 1.392 . S
C2136 C2139 1.511 . S
C2137 C2133 1.376 . S
C2137 C2136 1.392 . S
C2137 H2149 0.929 . S
C2138 C2134 1.531 . S
C2138 H2150 0.960 . S
C2138 H2151 0.962 . S
C2138 H2152 0.960 . S
C2139 C2136 1.511 . S
C2139 H2153 0.961 . S
C2139 H2154 0.961 . S
C2139 H2155 0.961 . S
C2140 C2141 1.370 . S
C2140 C2142 1.363 . S
C2140 H2156 0.931 . S
C2141 C2140 1.370 . S
C2141 C2145 1.408 . S
C2142 C2140 1.363 . S
C2142 C2143 1.370 . S
C2142 C2146 1.524 . S
C2143 C2135 1.503 . S
C2143 C2142 1.370 . S
C2143 C2144 1.403 . S
C2144 C2143 1.403 . S
C2144 C2145 1.404 . S
C2144 C2147 1.539 . S
C2145 C2141 1.408 . S
C2145 C2144 1.404 . S
C2145 H2157 0.930 . S
C2146 C2142 1.524 . S
C2146 H2158 0.956 . S
C2146 H2159 0.961 . S
C2146 H2160 0.961 . S
C2147 C2144 1.539 . S
C2147 H2161 0.958 . S
C2147 H2162 0.961 . S
C2147 H2163 0.960 . S
H2148 C2132 0.931 . S
H2149 C2137 0.929 . S
H2150 C2138 0.960 . S
H2151 C2138 0.962 . S
H2152 C2138 0.960 . S
H2153 C2139 0.961 . S
H2154 C2139 0.961 . S
H2155 C2139 0.961 . S
H2156 C2140 0.931 . S
H2157 C2145 0.930 . S
H2158 C2146 0.956 . S
H2159 C2146 0.961 . S
H2160 C2146 0.961 . S
H2161 C2147 0.958 . S
H2162 C2147 0.961 . S
H2163 C2147 0.960 . S
C2164 C2165 1.391 . S
C2164 C2166 1.394 . S
C2164 H2180 0.931 . S
C2165 C2164 1.391 . S
C2165 C2169 1.376 . S
C2166 C2164 1.394 . S
C2166 C2167 1.369 . S
C2166 C2170 1.531 . S
C2167 C2166 1.369 . S
C2167 C2168 1.410 . S
C2167 C2175 1.503 . S
C2168 C2167 1.410 . S
C2168 C2169 1.392 . S
C2168 C2171 1.511 . S
C2169 C2165 1.376 . S
C2169 C2168 1.392 . S
C2169 H2181 0.929 . S
C2170 C2166 1.531 . S
C2170 H2182 0.960 . S
C2170 H2183 0.962 . S
C2170 H2184 0.960 . S
C2171 C2168 1.511 . S
C2171 H2185 0.961 . S
C2171 H2186 0.961 . S
C2171 H2187 0.961 . S
C2172 C2173 1.370 . S
C2172 C2174 1.363 . S
C2172 H2188 0.931 . S
C2173 C2172 1.370 . S
C2173 C2177 1.408 . S
C2174 C2172 1.363 . S
C2174 C2175 1.370 . S
C2174 C2178 1.524 . S
C2175 C2167 1.503 . S
C2175 C2174 1.370 . S
C2175 C2176 1.403 . S
C2176 C2175 1.403 . S
C2176 C2177 1.404 . S
C2176 C2179 1.539 . S
C2177 C2173 1.408 . S
C2177 C2176 1.404 . S
C2177 H2189 0.930 . S
C2178 C2174 1.524 . S
C2178 H2190 0.956 . S
C2178 H2191 0.961 . S
C2178 H2192 0.961 . S
C2179 C2176 1.539 . S
C2179 H2193 0.958 . S
C2179 H2194 0.961 . S
C2179 H2195 0.960 . S
H2180 C2164 0.931 . S
H2181 C2169 0.929 . S
H2182 C2170 0.960 . S
H2183 C2170 0.962 . S
H2184 C2170 0.960 . S
H2185 C2171 0.961 . S
H2186 C2171 0.961 . S
H2187 C2171 0.961 . S
H2188 C2172 0.931 . S
H2189 C2177 0.930 . S
H2190 C2178 0.956 . S
H2191 C2178 0.961 . S
H2192 C2178 0.961 . S
H2193 C2179 0.958 . S
H2194 C2179 0.961 . S
H2195 C2179 0.960 . S
C2196 C2197 1.391 . S
C2196 C2198 1.394 . S
C2196 H2212 0.931 . S
C2197 C2196 1.391 . S
C2197 C2201 1.376 . S
C2198 C2196 1.394 . S
C2198 C2199 1.369 . S
C2198 C2202 1.531 . S
C2199 C2198 1.369 . S
C2199 C2200 1.410 . S
C2199 C2207 1.503 . S
C2200 C2199 1.410 . S
C2200 C2201 1.392 . S
C2200 C2203 1.511 . S
C2201 C2197 1.376 . S
C2201 C2200 1.392 . S
C2201 H2213 0.929 . S
C2202 C2198 1.531 . S
C2202 H2214 0.960 . S
C2202 H2215 0.962 . S
C2202 H2216 0.960 . S
C2203 C2200 1.511 . S
C2203 H2217 0.961 . S
C2203 H2218 0.961 . S
C2203 H2219 0.961 . S
C2204 C2205 1.370 . S
C2204 C2206 1.363 . S
C2204 H2220 0.931 . S
C2205 C2204 1.370 . S
C2205 C2209 1.408 . S
C2206 C2204 1.363 . S
C2206 C2207 1.370 . S
C2206 C2210 1.524 . S
C2207 C2199 1.503 . S
C2207 C2206 1.370 . S
C2207 C2208 1.403 . S
C2208 C2207 1.403 . S
C2208 C2209 1.404 . S
C2208 C2211 1.539 . S
C2209 C2205 1.408 . S
C2209 C2208 1.404 . S
C2209 H2221 0.930 . S
C2210 C2206 1.524 . S
C2210 H2222 0.956 . S
C2210 H2223 0.961 . S
C2210 H2224 0.961 . S
C2211 C2208 1.539 . S
C2211 H2225 0.958 . S
C2211 H2226 0.961 . S
C2211 H2227 0.960 . S
H2212 C2196 0.931 . S
H2213 C2201 0.929 . S
H2214 C2202 0.960 . S
H2215 C2202 0.962 . S
H2216 C2202 0.960 . S
H2217 C2203 0.961 . S
H2218 C2203 0.961 . S
H2219 C2203 0.961 . S
H2220 C2204 0.931 . S
H2221 C2209 0.930 . S
H2222 C2210 0.956 . S
H2223 C2210 0.961 . S
H2224 C2210 0.961 . S
H2225 C2211 0.958 . S
H2226 C2211 0.961 . S
H2227 C2211 0.960 . S
C2228 C2229 1.391 . S
C2228 C2230 1.394 . S
C2228 H2244 0.931 . S
C2229 C2228 1.391 . S
C2229 C2233 1.376 . S
C2230 C2228 1.394 . S
C2230 C2231 1.369 . S
C2230 C2234 1.531 . S
C2231 C2230 1.369 . S
C2231 C2232 1.410 . S
C2231 C2239 1.503 . S
C2232 C2231 1.410 . S
C2232 C2233 1.392 . S
C2232 C2235 1.511 1_565 S
C2233 C2229 1.376 . S
C2233 C2232 1.392 . S
C2233 H2245 0.929 . S
C2234 C2230 1.531 . S
C2234 H2246 0.960 . S
C2234 H2247 0.962 . S
C2234 H2248 0.960 . S
C2235 C2232 1.511 1_545 S
C2235 H2249 0.961 . S
C2235 H2250 0.961 . S
C2235 H2251 0.961 . S
C2236 C2237 1.370 1_565 S
C2236 C2238 1.363 . S
C2236 H2252 0.931 . S
C2237 C2236 1.370 1_545 S
C2237 C2241 1.408 . S
C2238 C2236 1.363 . S
C2238 C2239 1.370 . S
C2238 C2242 1.524 . S
C2239 C2231 1.503 . S
C2239 C2238 1.370 . S
C2239 C2240 1.403 1_565 S
C2240 C2239 1.403 1_545 S
C2240 C2241 1.404 . S
C2240 C2243 1.539 . S
C2241 C2237 1.408 . S
C2241 C2240 1.404 . S
C2241 H2253 0.930 . S
C2242 C2238 1.524 . S
C2242 H2254 0.956 . S
C2242 H2255 0.961 . S
C2242 H2256 0.961 . S
C2243 C2240 1.539 . S
C2243 H2257 0.958 . S
C2243 H2258 0.961 . S
C2243 H2259 0.960 . S
H2244 C2228 0.931 . S
H2245 C2233 0.929 . S
H2246 C2234 0.960 . S
H2247 C2234 0.962 . S
H2248 C2234 0.960 . S
H2249 C2235 0.961 . S
H2250 C2235 0.961 . S
H2251 C2235 0.961 . S
H2252 C2236 0.931 . S
H2253 C2241 0.930 . S
H2254 C2242 0.956 . S
H2255 C2242 0.961 . S
H2256 C2242 0.961 . S
H2257 C2243 0.958 . S
H2258 C2243 0.961 . S
H2259 C2243 0.960 . S
C2260 C2261 1.391 1_455 S
C2260 C2262 1.394 . S
C2260 H2276 0.931 . S
C2261 C2260 1.391 1_655 S
C2261 C2265 1.376 . S
C2262 C2260 1.394 . S
C2262 C2263 1.369 . S
C2262 C2266 1.531 . S
C2263 C2262 1.369 . S
C2263 C2264 1.410 1_455 S
C2263 C2271 1.503 . S
C2264 C2263 1.410 1_655 S
C2264 C2265 1.392 . S
C2264 C2267 1.511 . S
C2265 C2261 1.376 . S
C2265 C2264 1.392 . S
C2265 H2277 0.929 . S
C2266 C2262 1.531 . S
C2266 H2278 0.960 . S
C2266 H2279 0.962 . S
C2266 H2280 0.960 . S
C2267 C2264 1.511 . S
C2267 H2281 0.961 . S
C2267 H2282 0.961 . S
C2267 H2283 0.961 . S
C2268 C2269 1.370 . S
C2268 C2270 1.363 . S
C2268 H2284 0.931 . S
C2269 C2268 1.370 . S
C2269 C2273 1.408 . S
C2270 C2268 1.363 . S
C2270 C2271 1.370 . S
C2270 C2274 1.524 . S
C2271 C2263 1.503 . S
C2271 C2270 1.370 . S
C2271 C2272 1.403 . S
C2272 C2271 1.403 . S
C2272 C2273 1.404 . S
C2272 C2275 1.539 1_455 S
C2273 C2269 1.408 . S
C2273 C2272 1.404 . S
C2273 H2285 0.930 . S
C2274 C2270 1.524 . S
C2274 H2286 0.956 . S
C2274 H2287 0.961 . S
C2274 H2288 0.961 . S
C2275 C2272 1.539 1_655 S
C2275 H2289 0.963 . S
C2275 H2290 0.961 . S
C2275 H2291 0.960 . S
H2276 C2260 0.931 . S
H2277 C2265 0.929 . S
H2278 C2266 0.960 . S
H2279 C2266 0.962 . S
H2280 C2266 0.960 . S
H2281 C2267 0.961 . S
H2282 C2267 0.961 . S
H2283 C2267 0.961 . S
H2284 C2268 0.931 . S
H2285 C2273 0.930 . S
H2286 C2274 0.956 . S
H2287 C2274 0.961 . S
H2288 C2274 0.961 . S
H2289 C2275 0.963 . S
H2290 C2275 0.961 . S
H2291 C2275 0.960 . S
C2292 C2293 1.391 . S
C2292 C2294 1.394 . S
C2292 H2308 0.931 . S
C2293 C2292 1.391 . S
C2293 C2297 1.376 . S
C2294 C2292 1.394 . S
C2294 C2295 1.369 . S
C2294 C2298 1.531 . S
C2295 C2294 1.369 . S
C2295 C2296 1.410 . S
C2295 C2303 1.503 . S
C2296 C2295 1.410 . S
C2296 C2297 1.392 . S
C2296 C2299 1.511 . S
C2297 C2293 1.376 . S
C2297 C2296 1.392 . S
C2297 H2309 0.929 . S
C2298 C2294 1.531 . S
C2298 H2310 0.960 . S
C2298 H2311 0.962 . S
C2298 H2312 0.960 . S
C2299 C2296 1.511 . S
C2299 H2313 0.961 . S
C2299 H2314 0.961 . S
C2299 H2315 0.961 . S
C2300 C2301 1.370 . S
C2300 C2302 1.363 . S
C2300 H2316 0.931 . S
C2301 C2300 1.370 . S
C2301 C2305 1.408 . S
C2302 C2300 1.363 . S
C2302 C2303 1.370 . S
C2302 C2306 1.524 . S
C2303 C2295 1.503 . S
C2303 C2302 1.370 . S
C2303 C2304 1.403 . S
C2304 C2303 1.403 . S
C2304 C2305 1.404 . S
C2304 C2307 1.539 . S
C2305 C2301 1.408 . S
C2305 C2304 1.404 . S
C2305 H2317 0.930 . S
C2306 C2302 1.524 . S
C2306 H2318 0.956 . S
C2306 H2319 0.961 . S
C2306 H2320 0.961 . S
C2307 C2304 1.539 . S
C2307 H2321 0.958 . S
C2307 H2322 0.961 . S
C2307 H2323 0.960 . S
H2308 C2292 0.931 . S
H2309 C2297 0.929 . S
H2310 C2298 0.960 . S
H2311 C2298 0.962 . S
H2312 C2298 0.960 . S
H2313 C2299 0.961 . S
H2314 C2299 0.961 . S
H2315 C2299 0.961 . S
H2316 C2300 0.931 . S
H2317 C2305 0.930 . S
H2318 C2306 0.956 . S
H2319 C2306 0.961 . S
H2320 C2306 0.961 . S
H2321 C2307 0.958 . S
H2322 C2307 0.961 . S
H2323 C2307 0.960 . S
C2324 C2325 1.391 . S
C2324 C2326 1.394 . S
C2324 H2340 0.931 . S
C2325 C2324 1.391 . S
C2325 C2329 1.376 . S
C2326 C2324 1.394 . S
C2326 C2327 1.369 . S
C2326 C2330 1.531 . S
C2327 C2326 1.369 . S
C2327 C2328 1.410 . S
C2327 C2335 1.503 . S
C2328 C2327 1.410 . S
C2328 C2329 1.392 . S
C2328 C2331 1.511 1_545 S
C2329 C2325 1.376 . S
C2329 C2328 1.392 . S
C2329 H2341 0.929 . S
C2330 C2326 1.531 . S
C2330 H2342 0.960 . S
C2330 H2343 0.962 . S
C2330 H2344 0.960 . S
C2331 C2328 1.511 1_565 S
C2331 H2345 0.961 . S
C2331 H2346 0.961 . S
C2331 H2347 0.961 . S
C2332 C2333 1.370 . S
C2332 C2334 1.363 1_565 S
C2332 H2348 0.931 . S
C2333 C2332 1.370 . S
C2333 C2337 1.408 . S
C2334 C2332 1.363 1_545 S
C2334 C2335 1.370 . S
C2334 C2338 1.524 . S
C2335 C2327 1.503 . S
C2335 C2334 1.370 . S
C2335 C2336 1.403 1_545 S
C2336 C2335 1.403 1_565 S
C2336 C2337 1.404 . S
C2336 C2339 1.539 . S
C2337 C2333 1.408 . S
C2337 C2336 1.404 . S
C2337 H2349 0.930 . S
C2338 C2334 1.524 . S
C2338 H2350 0.956 . S
C2338 H2351 0.961 . S
C2338 H2352 0.961 . S
C2339 C2336 1.539 . S
C2339 H2353 0.958 1_565 S
C2339 H2354 0.961 . S
C2339 H2355 0.964 . S
H2340 C2324 0.931 . S
H2341 C2329 0.929 . S
H2342 C2330 0.960 . S
H2343 C2330 0.962 . S
H2344 C2330 0.960 . S
H2345 C2331 0.961 . S
H2346 C2331 0.961 . S
H2347 C2331 0.961 . S
H2348 C2332 0.931 . S
H2349 C2337 0.930 . S
H2350 C2338 0.956 . S
H2351 C2338 0.961 . S
H2352 C2338 0.961 . S
H2353 C2339 0.958 1_545 S
H2354 C2339 0.961 . S
H2355 C2339 0.964 . S
C2356 C2357 1.391 . S
C2356 C2358 1.394 1_455 S
C2356 H2372 0.931 . S
C2357 C2356 1.391 . S
C2357 C2361 1.376 1_455 S
C2358 C2356 1.394 1_655 S
C2358 C2359 1.369 . S
C2358 C2362 1.531 . S
C2359 C2358 1.369 . S
C2359 C2360 1.410 . S
C2359 C2367 1.503 . S
C2360 C2359 1.410 . S
C2360 C2361 1.392 . S
C2360 C2363 1.511 . S
C2361 C2357 1.376 1_655 S
C2361 C2360 1.392 . S
C2361 H2373 0.929 . S
C2362 C2358 1.531 . S
C2362 H2374 0.960 . S
C2362 H2375 0.962 1_655 S
C2362 H2376 0.960 1_655 S
C2363 C2360 1.511 . S
C2363 H2377 0.961 . S
C2363 H2378 0.961 . S
C2363 H2379 0.961 . S
C2364 C2365 1.370 . S
C2364 C2366 1.363 . S
C2364 H2380 0.931 . S
C2365 C2364 1.370 . S
C2365 C2369 1.408 . S
C2366 C2364 1.363 . S
C2366 C2367 1.370 . S
C2366 C2370 1.524 1_655 S
C2367 C2359 1.503 . S
C2367 C2366 1.370 . S
C2367 C2368 1.403 . S
C2368 C2367 1.403 . S
C2368 C2369 1.404 . S
C2368 C2371 1.539 . S
C2369 C2365 1.408 . S
C2369 C2368 1.404 . S
C2369 H2381 0.930 . S
C2370 C2366 1.524 1_455 S
C2370 H2382 0.956 . S
C2370 H2383 0.961 . S
C2370 H2384 0.961 . S
C2371 C2368 1.539 . S
C2371 H2385 0.958 . S
C2371 H2386 0.961 . S
C2371 H2387 0.960 . S
H2372 C2356 0.931 . S
H2373 C2361 0.929 . S
H2374 C2362 0.960 . S
H2375 C2362 0.962 1_455 S
H2376 C2362 0.960 1_455 S
H2377 C2363 0.961 . S
H2378 C2363 0.961 . S
H2379 C2363 0.961 . S
H2380 C2364 0.931 . S
H2381 C2369 0.930 . S
H2382 C2370 0.956 . S
H2383 C2370 0.961 . S
H2384 C2370 0.961 . S
H2385 C2371 0.958 . S
H2386 C2371 0.961 . S
H2387 C2371 0.960 . S
C2388 C2389 1.391 . S
C2388 C2390 1.394 . S
C2388 H2404 0.931 . S
C2389 C2388 1.391 . S
C2389 C2393 1.376 . S
C2390 C2388 1.394 . S
C2390 C2391 1.369 . S
C2390 C2394 1.531 . S
C2391 C2390 1.369 . S
C2391 C2392 1.410 . S
C2391 C2399 1.503 . S
C2392 C2391 1.410 . S
C2392 C2393 1.392 . S
C2392 C2395 1.511 . S
C2393 C2389 1.376 . S
C2393 C2392 1.392 . S
C2393 H2405 0.929 . S
C2394 C2390 1.531 . S
C2394 H2406 0.960 . S
C2394 H2407 0.962 . S
C2394 H2408 0.960 . S
C2395 C2392 1.511 . S
C2395 H2409 0.961 . S
C2395 H2410 0.961 . S
C2395 H2411 0.961 . S
C2396 C2397 1.370 . S
C2396 C2398 1.363 . S
C2396 H2412 0.931 . S
C2397 C2396 1.370 . S
C2397 C2401 1.408 . S
C2398 C2396 1.363 . S
C2398 C2399 1.370 . S
C2398 C2402 1.524 . S
C2399 C2391 1.503 . S
C2399 C2398 1.370 . S
C2399 C2400 1.403 . S
C2400 C2399 1.403 . S
C2400 C2401 1.404 . S
C2400 C2403 1.539 . S
C2401 C2397 1.408 . S
C2401 C2400 1.404 . S
C2401 H2413 0.930 . S
C2402 C2398 1.524 . S
C2402 H2414 0.956 . S
C2402 H2415 0.961 . S
C2402 H2416 0.961 . S
C2403 C2400 1.539 . S
C2403 H2417 0.958 . S
C2403 H2418 0.961 . S
C2403 H2419 0.960 . S
H2404 C2388 0.931 . S
H2405 C2393 0.929 . S
H2406 C2394 0.960 . S
H2407 C2394 0.962 . S
H2408 C2394 0.960 . S
H2409 C2395 0.961 . S
H2410 C2395 0.961 . S
H2411 C2395 0.961 . S
H2412 C2396 0.931 . S
H2413 C2401 0.930 . S
H2414 C2402 0.956 . S
H2415 C2402 0.961 . S
H2416 C2402 0.961 . S
H2417 C2403 0.958 . S
H2418 C2403 0.961 . S
H2419 C2403 0.960 . S
C2420 C2421 1.391 1_545 S
C2420 C2422 1.394 . S
C2420 H2436 0.931 . S
C2421 C2420 1.391 1_565 S
C2421 C2425 1.376 . S
C2422 C2420 1.394 . S
C2422 C2423 1.369 . S
C2422 C2426 1.531 . S
C2423 C2422 1.369 . S
C2423 C2424 1.410 1_545 S
C2423 C2431 1.503 . S
C2424 C2423 1.410 1_565 S
C2424 C2425 1.392 . S
C2424 C2427 1.511 . S
C2425 C2421 1.376 . S
C2425 C2424 1.392 . S
C2425 H2437 0.929 . S
C2426 C2422 1.531 . S
C2426 H2438 0.960 . S
C2426 H2439 0.962 . S
C2426 H2440 0.960 . S
C2427 C2424 1.511 . S
C2427 H2441 0.961 . S
C2427 H2442 0.961 . S
C2427 H2443 0.961 . S
C2428 C2429 1.370 . S
C2428 C2430 1.363 . S
C2428 H2444 0.931 . S
C2429 C2428 1.370 . S
C2429 C2433 1.408 . S
C2430 C2428 1.363 . S
C2430 C2431 1.370 . S
C2430 C2434 1.524 . S
C2431 C2423 1.503 . S
C2431 C2430 1.370 . S
C2431 C2432 1.403 . S
C2432 C2431 1.403 . S
C2432 C2433 1.404 . S
C2432 C2435 1.539 . S
C2433 C2429 1.408 . S
C2433 C2432 1.404 . S
C2433 H2445 0.930 . S
C2434 C2430 1.524 . S
C2434 H2446 0.956 . S
C2434 H2447 0.993 . S
C2434 H2448 0.961 . S
C2435 C2432 1.539 . S
C2435 H2449 0.958 . S
C2435 H2450 0.961 . S
C2435 H2451 0.960 . S
H2436 C2420 0.931 . S
H2437 C2425 0.929 . S
H2438 C2426 0.960 . S
H2439 C2426 0.962 . S
H2440 C2426 0.960 . S
H2441 C2427 0.961 . S
H2442 C2427 0.961 . S
H2443 C2427 0.961 . S
H2444 C2428 0.931 . S
H2445 C2433 0.930 . S
H2446 C2434 0.956 . S
H2447 C2434 0.993 . S
H2448 C2434 0.961 . S
H2449 C2435 0.958 . S
H2450 C2435 0.961 . S
H2451 C2435 0.960 . S
C2452 C2453 1.391 . S
C2452 C2454 1.394 . S
C2452 H2468 0.931 . S
C2453 C2452 1.391 . S
C2453 C2457 1.376 . S
C2454 C2452 1.394 . S
C2454 C2455 1.369 1_455 S
C2454 C2458 1.531 . S
C2455 C2454 1.369 1_655 S
C2455 C2456 1.410 . S
C2455 C2463 1.503 . S
C2456 C2455 1.410 . S
C2456 C2457 1.392 1_655 S
C2456 C2459 1.511 . S
C2457 C2453 1.376 . S
C2457 C2456 1.392 1_455 S
C2457 H2469 0.929 . S
C2458 C2454 1.531 . S
C2458 H2470 0.960 . S
C2458 H2471 0.962 1_455 S
C2458 H2472 0.960 . S
C2459 C2456 1.511 . S
C2459 H2473 0.961 . S
C2459 H2474 0.961 . S
C2459 H2475 0.961 . S
C2460 C2461 1.370 . S
C2460 C2462 1.363 . S
C2460 H2476 0.931 . S
C2461 C2460 1.370 . S
C2461 C2465 1.408 . S
C2462 C2460 1.363 . S
C2462 C2463 1.370 . S
C2462 C2466 1.524 . S
C2463 C2455 1.503 . S
C2463 C2462 1.370 . S
C2463 C2464 1.403 . S
C2464 C2463 1.403 . S
C2464 C2465 1.404 . S
C2464 C2467 1.539 1_655 S
C2465 C2461 1.408 . S
C2465 C2464 1.404 . S
C2465 H2477 0.930 . S
C2466 C2462 1.524 . S
C2466 H2478 0.956 . S
C2466 H2479 0.961 . S
C2466 H2480 0.961 . S
C2467 C2464 1.539 1_455 S
C2467 H2481 0.958 . S
C2467 H2482 0.961 . S
C2467 H2483 0.960 . S
H2468 C2452 0.931 . S
H2469 C2457 0.929 . S
H2470 C2458 0.960 . S
H2471 C2458 0.962 1_655 S
H2472 C2458 0.960 . S
H2473 C2459 0.961 . S
H2474 C2459 0.961 . S
H2475 C2459 0.961 . S
H2476 C2460 0.931 . S
H2477 C2465 0.930 . S
H2478 C2466 0.956 . S
H2479 C2466 0.961 . S
H2480 C2466 0.961 . S
H2481 C2467 0.958 . S
H2482 C2467 0.961 . S
H2483 C2467 0.960 . S
C2484 C2485 1.391 . S
C2484 C2486 1.394 . S
C2484 H2500 0.931 . S
C2485 C2484 1.391 . S
C2485 C2489 1.376 . S
C2486 C2484 1.394 . S
C2486 C2487 1.369 . S
C2486 C2490 1.531 . S
C2487 C2486 1.369 . S
C2487 C2488 1.410 . S
C2487 C2495 1.503 . S
C2488 C2487 1.410 . S
C2488 C2489 1.392 . S
C2488 C2491 1.511 . S
C2489 C2485 1.376 . S
C2489 C2488 1.392 . S
C2489 H2501 0.929 . S
C2490 C2486 1.531 . S
C2490 H2502 0.960 . S
C2490 H2503 0.962 . S
C2490 H2504 0.960 . S
C2491 C2488 1.511 . S
C2491 H2505 0.961 . S
C2491 H2506 0.961 . S
C2491 H2507 0.961 . S
C2492 C2493 1.370 . S
C2492 C2494 1.363 . S
C2492 H2508 0.931 . S
C2493 C2492 1.370 . S
C2493 C2497 1.408 . S
C2494 C2492 1.363 . S
C2494 C2495 1.370 . S
C2494 C2498 1.524 . S
C2495 C2487 1.503 . S
C2495 C2494 1.370 . S
C2495 C2496 1.403 . S
C2496 C2495 1.403 . S
C2496 C2497 1.404 . S
C2496 C2499 1.539 . S
C2497 C2493 1.408 . S
C2497 C2496 1.404 . S
C2497 H2509 0.930 . S
C2498 C2494 1.524 . S
C2498 H2510 0.956 . S
C2498 H2511 0.961 . S
C2498 H2512 0.961 . S
C2499 C2496 1.539 . S
C2499 H2513 0.958 . S
C2499 H2514 0.961 . S
C2499 H2515 0.960 . S
H2500 C2484 0.931 . S
H2501 C2489 0.929 . S
H2502 C2490 0.960 . S
H2503 C2490 0.962 . S
H2504 C2490 0.960 . S
H2505 C2491 0.961 . S
H2506 C2491 0.961 . S
H2507 C2491 0.961 . S
H2508 C2492 0.931 . S
H2509 C2497 0.930 . S
H2510 C2498 0.956 . S
H2511 C2498 0.961 . S
H2512 C2498 0.961 . S
H2513 C2499 0.958 . S
H2514 C2499 0.961 . S
H2515 C2499 0.960 . S
C2516 C2517 1.391 . S
C2516 C2518 1.394 . S
C2516 H2532 0.931 . S
C2517 C2516 1.391 . S
C2517 C2521 1.376 1_545 S
C2518 C2516 1.394 . S
C2518 C2519 1.369 1_545 S
C2518 C2522 1.531 . S
C2519 C2518 1.369 1_565 S
C2519 C2520 1.410 . S
C2519 C2527 1.503 . S
C2520 C2519 1.410 . S
C2520 C2521 1.392 . S
C2520 C2523 1.511 . S
C2521 C2517 1.376 1_565 S
C2521 C2520 1.392 . S
C2521 H2533 0.929 . S
C2522 C2518 1.531 . S
C2522 H2534 0.960 . S
C2522 H2535 0.962 . S
C2522 H2536 0.960 . S
C2523 C2520 1.511 . S
C2523 H2537 0.961 . S
C2523 H2538 0.961 . S
C2523 H2539 0.961 . S
C2524 C2525 1.370 . S
C2524 C2526 1.363 . S
C2524 H2540 0.931 . S
C2525 C2524 1.370 . S
C2525 C2529 1.408 . S
C2526 C2524 1.363 . S
C2526 C2527 1.370 . S
C2526 C2530 1.524 . S
C2527 C2519 1.503 . S
C2527 C2526 1.370 . S
C2527 C2528 1.403 . S
C2528 C2527 1.403 . S
C2528 C2529 1.404 . S
C2528 C2531 1.539 1_565 S
C2529 C2525 1.408 . S
C2529 C2528 1.404 . S
C2529 H2541 0.930 . S
C2530 C2526 1.524 . S
C2530 H2542 0.956 . S
C2530 H2543 0.961 . S
C2530 H2544 0.961 . S
C2531 C2528 1.539 1_545 S
C2531 H2545 0.958 . S
C2531 H2546 0.941 1_545 S
C2531 H2547 0.960 . S
H2532 C2516 0.931 . S
H2533 C2521 0.929 . S
H2534 C2522 0.960 . S
H2535 C2522 0.962 . S
H2536 C2522 0.960 . S
H2537 C2523 0.961 . S
H2538 C2523 0.961 . S
H2539 C2523 0.961 . S
H2540 C2524 0.931 . S
H2541 C2529 0.930 . S
H2542 C2530 0.956 . S
H2543 C2530 0.961 . S
H2544 C2530 0.961 . S
H2545 C2531 0.958 . S
H2546 C2531 0.941 1_565 S
H2547 C2531 0.960 . S
C2548 C2549 1.391 . S
C2548 C2550 1.394 . S
C2548 H2564 0.931 . S
C2549 C2548 1.391 . S
C2549 C2553 1.376 . S
C2550 C2548 1.394 . S
C2550 C2551 1.369 . S
C2550 C2554 1.531 . S
C2551 C2550 1.369 . S
C2551 C2552 1.410 . S
C2551 C2559 1.503 . S
C2552 C2551 1.410 . S
C2552 C2553 1.392 . S
C2552 C2555 1.511 1_455 S
C2553 C2549 1.376 . S
C2553 C2552 1.392 . S
C2553 H2565 0.929 . S
C2554 C2550 1.531 . S
C2554 H2566 0.960 . S
C2554 H2567 0.962 . S
C2554 H2568 0.960 . S
C2555 C2552 1.511 1_655 S
C2555 H2569 0.961 . S
C2555 H2570 0.961 . S
C2555 H2571 0.961 . S
C2556 C2557 1.348 1_455 S
C2556 C2558 1.362 . S
C2556 H2572 0.957 . S
C2557 C2556 1.348 1_655 S
C2557 C2561 1.408 . S
C2558 C2556 1.362 . S
C2558 C2559 1.370 . S
C2558 C2562 1.524 . S
C2559 C2551 1.503 . S
C2559 C2558 1.370 . S
C2559 C2560 1.403 1_455 S
C2560 C2559 1.403 1_655 S
C2560 C2561 1.404 . S
C2560 C2563 1.539 . S
C2561 C2557 1.408 . S
C2561 C2560 1.404 . S
C2561 H2573 0.930 . S
C2562 C2558 1.524 . S
C2562 H2574 0.956 . S
C2562 H2575 0.961 . S
C2562 H2576 0.961 . S
C2563 C2560 1.539 . S
C2563 H2577 0.958 . S
C2563 H2578 0.961 . S
C2563 H2579 0.960 . S
H2564 C2548 0.931 . S
H2565 C2553 0.929 . S
H2566 C2554 0.960 . S
H2567 C2554 0.962 . S
H2568 C2554 0.960 . S
H2569 C2555 0.961 . S
H2570 C2555 0.961 . S
H2571 C2555 0.961 . S
H2572 C2556 0.957 . S
H2573 C2561 0.930 . S
H2574 C2562 0.956 . S
H2575 C2562 0.961 . S
H2576 C2562 0.961 . S
H2577 C2563 0.958 . S
H2578 C2563 0.961 . S
H2579 C2563 0.960 . S
C2580 C2581 1.391 . S
C2580 C2582 1.394 . S
C2580 H2596 0.931 . S
C2581 C2580 1.391 . S
C2581 C2585 1.376 . S
C2582 C2580 1.394 . S
C2582 C2583 1.369 . S
C2582 C2586 1.531 . S
C2583 C2582 1.369 . S
C2583 C2584 1.410 . S
C2583 C2591 1.503 1_655 S
C2584 C2583 1.410 . S
C2584 C2585 1.392 . S
C2584 C2587 1.511 . S
C2585 C2581 1.376 . S
C2585 C2584 1.392 . S
C2585 H2597 0.929 . S
C2586 C2582 1.531 . S
C2586 H2598 0.967 . S
C2586 H2599 0.962 . S
C2586 H2600 0.960 . S
C2587 C2584 1.511 . S
C2587 H2601 0.961 . S
C2587 H2602 0.961 1_655 S
C2587 H2603 0.961 . S
C2588 C2589 1.370 . S
C2588 C2590 1.363 . S
C2588 H2604 0.931 . S
C2589 C2588 1.370 . S
C2589 C2593 1.408 . S
C2590 C2588 1.363 . S
C2590 C2591 1.370 . S
C2590 C2594 1.524 . S
C2591 C2583 1.503 1_455 S
C2591 C2590 1.370 . S
C2591 C2592 1.403 . S
C2592 C2591 1.403 . S
C2592 C2593 1.404 . S
C2592 C2595 1.539 . S
C2593 C2589 1.408 . S
C2593 C2592 1.404 . S
C2593 H2605 0.930 . S
C2594 C2590 1.524 . S
C2594 H2606 0.956 . S
C2594 H2607 0.961 . S
C2594 H2608 0.961 . S
C2595 C2592 1.539 . S
C2595 H2609 0.958 . S
C2595 H2610 0.961 . S
C2595 H2611 0.960 1_455 S
H2596 C2580 0.931 . S
H2597 C2585 0.929 . S
H2598 C2586 0.967 . S
H2599 C2586 0.962 . S
H2600 C2586 0.960 . S
H2601 C2587 0.961 . S
H2602 C2587 0.961 1_455 S
H2603 C2587 0.961 . S
H2604 C2588 0.931 . S
H2605 C2593 0.930 . S
H2606 C2594 0.956 . S
H2607 C2594 0.961 . S
H2608 C2594 0.961 . S
H2609 C2595 0.958 . S
H2610 C2595 0.961 . S
H2611 C2595 0.960 1_655 S
C2612 C2613 1.391 . S
C2612 C2614 1.394 . S
C2612 H2628 0.931 . S
C2613 C2612 1.391 . S
C2613 C2617 1.376 . S
C2614 C2612 1.394 . S
C2614 C2615 1.369 . S
C2614 C2618 1.531 . S
C2615 C2614 1.369 . S
C2615 C2616 1.410 . S
C2615 C2623 1.503 . S
C2616 C2615 1.410 . S
C2616 C2617 1.392 . S
C2616 C2619 1.511 . S
C2617 C2613 1.376 . S
C2617 C2616 1.392 . S
C2617 H2629 0.929 . S
C2618 C2614 1.531 . S
C2618 H2630 0.960 . S
C2618 H2631 0.962 . S
C2618 H2632 0.960 . S
C2619 C2616 1.511 . S
C2619 H2633 0.961 . S
C2619 H2634 0.961 . S
C2619 H2635 0.961 . S
C2620 C2621 1.370 . S
C2620 C2622 1.363 . S
C2620 H2636 0.931 . S
C2621 C2620 1.370 . S
C2621 C2625 1.408 . S
C2622 C2620 1.363 . S
C2622 C2623 1.370 . S
C2622 C2626 1.524 . S
C2623 C2615 1.503 . S
C2623 C2622 1.370 . S
C2623 C2624 1.403 . S
C2624 C2623 1.403 . S
C2624 C2625 1.404 . S
C2624 C2627 1.539 . S
C2625 C2621 1.408 . S
C2625 C2624 1.404 . S
C2625 H2637 0.930 . S
C2626 C2622 1.524 . S
C2626 H2638 0.956 . S
C2626 H2639 0.961 . S
C2626 H2640 0.961 . S
C2627 C2624 1.539 . S
C2627 H2641 0.958 . S
C2627 H2642 0.961 . S
C2627 H2643 0.960 . S
H2628 C2612 0.931 . S
H2629 C2617 0.929 . S
H2630 C2618 0.960 . S
H2631 C2618 0.962 . S
H2632 C2618 0.960 . S
H2633 C2619 0.961 . S
H2634 C2619 0.961 . S
H2635 C2619 0.961 . S
H2636 C2620 0.931 . S
H2637 C2625 0.930 . S
H2638 C2626 0.956 . S
H2639 C2626 0.961 . S
H2640 C2626 0.961 . S
H2641 C2627 0.958 . S
H2642 C2627 0.961 . S
H2643 C2627 0.960 . S
C2644 C2645 1.391 . S
C2644 C2646 1.394 . S
C2644 H2660 0.931 . S
C2645 C2644 1.391 . S
C2645 C2649 1.376 . S
C2646 C2644 1.394 . S
C2646 C2647 1.369 . S
C2646 C2650 1.531 . S
C2647 C2646 1.369 . S
C2647 C2648 1.410 . S
C2647 C2655 1.503 1_565 S
C2648 C2647 1.410 . S
C2648 C2649 1.392 . S
C2648 C2651 1.511 . S
C2649 C2645 1.376 . S
C2649 C2648 1.392 . S
C2649 H2661 0.929 . S
C2650 C2646 1.531 . S
C2650 H2662 0.960 1_565 S
C2650 H2663 0.962 . S
C2650 H2664 0.960 . S
C2651 C2648 1.511 . S
C2651 H2665 0.961 . S
C2651 H2666 0.961 1_565 S
C2651 H2667 0.961 . S
C2652 C2653 1.370 . S
C2652 C2654 1.363 . S
C2652 H2668 0.931 . S
C2653 C2652 1.370 . S
C2653 C2657 1.408 . S
C2654 C2652 1.363 . S
C2654 C2655 1.370 . S
C2654 C2658 1.524 . S
C2655 C2647 1.503 1_545 S
C2655 C2654 1.370 . S
C2655 C2656 1.403 . S
C2656 C2655 1.403 . S
C2656 C2657 1.404 . S
C2656 C2659 1.539 . S
C2657 C2653 1.408 . S
C2657 C2656 1.404 . S
C2657 H2669 0.930 . S
C2658 C2654 1.524 . S
C2658 H2670 0.956 1_545 S
C2658 H2671 0.961 1_545 S
C2658 H2672 0.961 . S
C2659 C2656 1.539 . S
C2659 H2673 0.958 . S
C2659 H2674 0.961 . S
C2659 H2675 0.960 . S
H2660 C2644 0.931 . S
H2661 C2649 0.929 . S
H2662 C2650 0.960 1_545 S
H2663 C2650 0.962 . S
H2664 C2650 0.960 . S
H2665 C2651 0.961 . S
H2666 C2651 0.961 1_545 S
H2667 C2651 0.961 . S
H2668 C2652 0.931 . S
H2669 C2657 0.930 . S
H2670 C2658 0.956 1_565 S
H2671 C2658 0.961 1_565 S
H2672 C2658 0.961 . S
H2673 C2659 0.958 . S
H2674 C2659 0.961 . S
H2675 C2659 0.960 . S
C2676 C2677 1.391 . S
C2676 C2678 1.394 . S
C2676 H2692 0.931 . S
C2677 C2676 1.391 . S
C2677 C2681 1.376 . S
C2678 C2676 1.394 . S
C2678 C2679 1.369 . S
C2678 C2682 1.531 . S
C2679 C2678 1.369 . S
C2679 C2680 1.410 . S
C2679 C2687 1.503 1_565 S
C2680 C2679 1.410 . S
C2680 C2681 1.392 . S
C2680 C2683 1.511 . S
C2681 C2677 1.376 . S
C2681 C2680 1.392 . S
C2681 H2693 0.929 . S
C2682 C2678 1.531 . S
C2682 H2694 0.960 . S
C2682 H2695 0.962 . S
C2682 H2696 0.960 . S
C2683 C2680 1.511 . S
C2683 H2697 0.961 . S
C2683 H2698 0.961 1_565 S
C2683 H2699 0.961 . S
C2684 C2685 1.370 . S
C2684 C2686 1.363 . S
C2684 H2700 0.931 . S
C2685 C2684 1.370 . S
C2685 C2689 1.408 . S
C2686 C2684 1.363 . S
C2686 C2687 1.370 . S
C2686 C2690 1.524 . S
C2687 C2679 1.503 1_545 S
C2687 C2686 1.370 . S
C2687 C2688 1.403 . S
C2688 C2687 1.403 . S
C2688 C2689 1.404 . S
C2688 C2691 1.539 . S
C2689 C2685 1.408 . S
C2689 C2688 1.404 . S
C2689 H2701 0.930 . S
C2690 C2686 1.524 . S
C2690 H2702 0.956 . S
C2690 H2703 0.961 . S
C2690 H2704 0.961 . S
C2691 C2688 1.539 . S
C2691 H2705 0.958 . S
C2691 H2706 0.961 . S
C2691 H2707 0.938 1_545 S
H2692 C2676 0.931 . S
H2693 C2681 0.929 . S
H2694 C2682 0.960 . S
H2695 C2682 0.962 . S
H2696 C2682 0.960 . S
H2697 C2683 0.961 . S
H2698 C2683 0.961 1_545 S
H2699 C2683 0.961 . S
H2700 C2684 0.931 . S
H2701 C2689 0.930 . S
H2702 C2690 0.956 . S
H2703 C2690 0.961 . S
H2704 C2690 0.961 . S
H2705 C2691 0.958 . S
H2706 C2691 0.961 . S
H2707 C2691 0.938 1_565 S
C2708 C2709 1.391 . S
C2708 C2710 1.394 . S
C2708 H2724 0.931 . S
C2709 C2708 1.391 . S
C2709 C2713 1.376 . S
C2710 C2708 1.394 . S
C2710 C2711 1.369 . S
C2710 C2714 1.531 . S
C2711 C2710 1.369 . S
C2711 C2712 1.410 . S
C2711 C2719 1.503 1_655 S
C2712 C2711 1.410 . S
C2712 C2713 1.392 . S
C2712 C2715 1.511 . S
C2713 C2709 1.376 . S
C2713 C2712 1.392 . S
C2713 H2725 0.929 . S
C2714 C2710 1.531 . S
C2714 H2726 0.960 1_655 S
C2714 H2727 0.962 . S
C2714 H2728 0.960 . S
C2715 C2712 1.511 . S
C2715 H2729 0.961 . S
C2715 H2730 0.961 1_655 S
C2715 H2731 0.961 . S
C2716 C2717 1.370 . S
C2716 C2718 1.363 . S
C2716 H2732 0.931 . S
C2717 C2716 1.370 . S
C2717 C2721 1.408 . S
C2718 C2716 1.363 . S
C2718 C2719 1.370 . S
C2718 C2722 1.524 . S
C2719 C2711 1.503 1_455 S
C2719 C2718 1.370 . S
C2719 C2720 1.403 . S
C2720 C2719 1.403 . S
C2720 C2721 1.404 . S
C2720 C2723 1.539 . S
C2721 C2717 1.408 . S
C2721 C2720 1.404 . S
C2721 H2733 0.930 . S
C2722 C2718 1.524 . S
C2722 H2734 0.956 1_455 S
C2722 H2735 0.961 1_455 S
C2722 H2736 0.961 . S
C2723 C2720 1.539 . S
C2723 H2737 0.958 . S
C2723 H2738 0.961 . S
C2723 H2739 0.960 . S
H2724 C2708 0.931 . S
H2725 C2713 0.929 . S
H2726 C2714 0.960 1_455 S
H2727 C2714 0.962 . S
H2728 C2714 0.960 . S
H2729 C2715 0.961 . S
H2730 C2715 0.961 1_455 S
H2731 C2715 0.961 . S
H2732 C2716 0.931 . S
H2733 C2721 0.930 . S
H2734 C2722 0.956 1_655 S
H2735 C2722 0.961 1_655 S
H2736 C2722 0.961 . S
H2737 C2723 0.958 . S
H2738 C2723 0.961 . S
H2739 C2723 0.960 . S
C2740 C2741 1.391 . S
C2740 C2742 1.394 . S
C2740 H2756 0.931 . S
C2741 C2740 1.391 . S
C2741 C2745 1.376 . S
C2742 C2740 1.394 . S
C2742 C2743 1.369 . S
C2742 C2746 1.531 . S
C2743 C2742 1.369 . S
C2743 C2744 1.410 . S
C2743 C2751 1.503 . S
C2744 C2743 1.410 . S
C2744 C2745 1.392 . S
C2744 C2747 1.511 . S
C2745 C2741 1.376 . S
C2745 C2744 1.392 . S
C2745 H2757 0.929 . S
C2746 C2742 1.531 . S
C2746 H2758 0.960 . S
C2746 H2759 0.962 . S
C2746 H2760 0.960 . S
C2747 C2744 1.511 . S
C2747 H2761 0.961 . S
C2747 H2762 0.961 . S
C2747 H2763 0.961 . S
C2748 C2749 1.370 . S
C2748 C2750 1.363 . S
C2748 H2764 0.931 . S
C2749 C2748 1.370 . S
C2749 C2753 1.408 . S
C2750 C2748 1.363 . S
C2750 C2751 1.370 . S
C2750 C2754 1.524 . S
C2751 C2743 1.503 . S
C2751 C2750 1.370 . S
C2751 C2752 1.403 . S
C2752 C2751 1.403 . S
C2752 C2753 1.404 . S
C2752 C2755 1.539 . S
C2753 C2749 1.408 . S
C2753 C2752 1.404 . S
C2753 H2765 0.930 . S
C2754 C2750 1.524 . S
C2754 H2766 0.956 . S
C2754 H2767 0.961 . S
C2754 H2768 0.961 . S
C2755 C2752 1.539 . S
C2755 H2769 0.958 . S
C2755 H2770 0.961 . S
C2755 H2771 0.960 . S
H2756 C2740 0.931 . S
H2757 C2745 0.929 . S
H2758 C2746 0.960 . S
H2759 C2746 0.962 . S
H2760 C2746 0.960 . S
H2761 C2747 0.961 . S
H2762 C2747 0.961 . S
H2763 C2747 0.961 . S
H2764 C2748 0.931 . S
H2765 C2753 0.930 . S
H2766 C2754 0.956 . S
H2767 C2754 0.961 . S
H2768 C2754 0.961 . S
H2769 C2755 0.958 . S
H2770 C2755 0.961 . S
H2771 C2755 0.960 . S
C469 C5 1.689 . S
C477 C237 1.666 . S
C501 C16 1.705 . S
C509 C252 1.703 . S
C533 C263 1.660 . S
C541 C29 1.705 . S
C565 C42 1.704 . S
C573 C432 1.678 . S
C597 C447 1.700 . S
C605 C55 1.705 . S
C629 C70 1.650 . S
C637 C458 1.682 . S
C661 C317 1.661 . S
C669 C81 1.679 . S
C693 C96 1.697 . S
C701 C328 1.706 . S
C725 C107 1.690 . S
C733 C341 1.706 . S
C757 C120 1.667 . S
C765 C198 1.706 . S
C789 C211 1.697 . S
C797 C135 1.706 . S
C821 C146 1.651 . S
C829 C226 1.683 . S
C853 C161 1.667 . S
C861 C393 1.674 . S
C885 C172 1.700 . S
C893 C408 1.705 . S
C917 C185 1.705 . S
C925 C419 1.681 . S
C949 C276 1.688 . S
C957 C354 1.707 . S
C981 C291 1.698 . S
C989 C367 1.706 . S
C1013 C302 1.670 . S
C1021 C382 1.676 . S
C1045 C101 1.585 . S
C1053 C3 1.593 . S
C1077 C105 1.562 1_655 S
C1085 C18 1.521 . S
C1109 C31 1.549 . S
C1117 C79 1.584 . S
C1141 C144 1.583 . S
C1149 C44 1.526 . S
C1173 C118 1.578 . S
C1181 C57 1.544 . S
C1205 C140 1.592 . S
C1213 C68 1.594 . S
C1237 C83 1.587 . S
C1245 C14 1.579 1_565 S
C1269 C94 1.546 . S
C1277 C27 1.597 . S
C1301 C109 1.585 . S
C1309 C10 1.571 . S
C1333 C122 1.593 . S
C1341 C75 1.598 . S
C1365 C40 1.577 . S
C1373 C133 1.522 . S
C1397 C53 1.586 1_545 S
C1405 C148 1.590 . S
C1429 C159 1.583 . S
C1437 C257 1.587 . S
C1461 C174 1.525 . S
C1469 C261 1.572 . S
C1493 C187 1.505 . S
C1501 C235 1.580 . S
C1525 C300 1.560 . S
C1533 C200 1.521 . S
C1557 C213 1.542 . S
C1565 C274 1.584 . S
C1589 C296 1.593 . S
C1597 C224 1.594 . S
C1621 C239 1.584 . S
C1629 C170 1.586 . S
C1653 C183 1.581 . S
C1661 C250 1.519 . S
C1685 C166 1.589 . S
C1693 C265 1.593 . S
C1717 C278 1.592 . S
C1725 C231 1.583 . S
C1749 C289 1.512 . S
C1757 C196 1.586 . S
C1781 C304 1.590 . S
C1789 C209 1.592 . S
C1813 C413 1.593 . S
C1821 C315 1.594 . S
C1845 C330 1.555 . S
C1853 C417 1.583 . S
C1877 C343 1.558 . S
C1885 C391 1.582 . S
C1909 C456 1.561 . S
C1917 C356 1.521 . S
C1941 C430 1.559 . S
C1949 C369 1.528 . S
C1973 C452 1.590 . S
C1981 C380 1.592 . S
C2005 C326 1.582 . S
C2013 C395 1.590 . S
C2037 C339 1.592 . S
C2045 C406 1.542 . S
C2069 C322 1.582 . S
C2077 C421 1.591 . S
C2101 C434 1.586 . S
C2109 C387 1.571 . S
C2133 C352 1.591 . S
C2141 C445 1.543 . S
C2165 C460 1.583 . S
C2173 C365 1.586 . S
C2197 C1 1.718 . S
C2205 C378 1.744 . S
C2229 C361 1.689 . S
C2237 C23 1.669 . S
C2261 C36 1.689 . S
C2269 C374 1.669 . S
C2293 C49 1.687 . S
C2301 C179 1.670 . S
C2325 C192 1.703 . S
C2333 C62 1.666 . S
C2357 C66 1.726 . S
C2365 C157 1.739 . S
C2389 C309 1.750 . S
C2397 C88 1.732 . S
C2421 C92 1.646 . S
C2429 C283 1.746 . S
C2453 C114 1.741 . S
C2461 C287 1.671 . S
C2485 C127 1.732 . S
C2493 C404 1.678 . S
C2517 C131 1.690 . S
C2525 C426 1.734 . S
C2549 C400 1.722 . S
C2557 C153 1.745 . S
C2581 C205 1.648 . S
C2589 C335 1.692 . S
C2613 C348 1.653 . S
C2621 C218 1.691 . S
C2645 C313 1.752 . S
C2653 C222 1.733 . S
C2677 C465 1.732 . S
C2685 C244 1.742 . S
C2709 C248 1.706 . S
C2717 C439 1.732 . S
C2741 C270 1.750 . S
C2749 C443 1.669 . S
