# Generated by pormake.
# Topology sod, (4)-cn, num edge types: 1
# Building blocks:
#     Node 0, Type 0, BuildingBlock: GALJAG_clean_sbu_0, # of connection points: 4
#     Node 1, Type 0, BuildingBlock: GALJAG_clean_sbu_0, # of connection points: 4
#     Node 2, Type 0, BuildingBlock: GALJAG_clean_sbu_0, # of connection points: 4
#     Node 3, Type 0, BuildingBlock: GALJAG_clean_sbu_0, # of connection points: 4
#     Node 4, Type 0, BuildingBlock: GALJAG_clean_sbu_0, # of connection points: 4
#     Node 5, Type 0, BuildingBlock: GALJAG_clean_sbu_0, # of connection points: 4
#     Node 6, Type 0, BuildingBlock: GALJAG_clean_sbu_0, # of connection points: 4
#     Node 7, Type 0, BuildingBlock: GALJAG_clean_sbu_0, # of connection points: 4
#     Node 8, Type 0, BuildingBlock: GALJAG_clean_sbu_0, # of connection points: 4
#     Node 9, Type 0, BuildingBlock: GALJAG_clean_sbu_0, # of connection points: 4
#     Node 10, Type 0, BuildingBlock: GALJAG_clean_sbu_0, # of connection points: 4
#     Node 11, Type 0, BuildingBlock: GALJAG_clean_sbu_0, # of connection points: 4
#     Edge 12, Type (0, 0), BuildingBlock: KIFKEQ_clean_linker_1, # of connection points: 2
#     Edge 13, Type (0, 0), BuildingBlock: KIFKEQ_clean_linker_1, # of connection points: 2
#     Edge 14, Type (0, 0), BuildingBlock: KIFKEQ_clean_linker_1, # of connection points: 2
#     Edge 15, Type (0, 0), BuildingBlock: KIFKEQ_clean_linker_1, # of connection points: 2
#     Edge 16, Type (0, 0), BuildingBlock: KIFKEQ_clean_linker_1, # of connection points: 2
#     Edge 17, Type (0, 0), BuildingBlock: KIFKEQ_clean_linker_1, # of connection points: 2
#     Edge 18, Type (0, 0), BuildingBlock: KIFKEQ_clean_linker_1, # of connection points: 2
#     Edge 19, Type (0, 0), BuildingBlock: KIFKEQ_clean_linker_1, # of connection points: 2
#     Edge 20, Type (0, 0), BuildingBlock: KIFKEQ_clean_linker_1, # of connection points: 2
#     Edge 21, Type (0, 0), BuildingBlock: KIFKEQ_clean_linker_1, # of connection points: 2
#     Edge 22, Type (0, 0), BuildingBlock: KIFKEQ_clean_linker_1, # of connection points: 2
#     Edge 23, Type (0, 0), BuildingBlock: KIFKEQ_clean_linker_1, # of connection points: 2
#     Edge 24, Type (0, 0), BuildingBlock: KIFKEQ_clean_linker_1, # of connection points: 2
#     Edge 25, Type (0, 0), BuildingBlock: KIFKEQ_clean_linker_1, # of connection points: 2
#     Edge 26, Type (0, 0), BuildingBlock: KIFKEQ_clean_linker_1, # of connection points: 2
#     Edge 27, Type (0, 0), BuildingBlock: KIFKEQ_clean_linker_1, # of connection points: 2
#     Edge 28, Type (0, 0), BuildingBlock: KIFKEQ_clean_linker_1, # of connection points: 2
#     Edge 29, Type (0, 0), BuildingBlock: KIFKEQ_clean_linker_1, # of connection points: 2
#     Edge 30, Type (0, 0), BuildingBlock: KIFKEQ_clean_linker_1, # of connection points: 2
#     Edge 31, Type (0, 0), BuildingBlock: KIFKEQ_clean_linker_1, # of connection points: 2
#     Edge 32, Type (0, 0), BuildingBlock: KIFKEQ_clean_linker_1, # of connection points: 2
#     Edge 33, Type (0, 0), BuildingBlock: KIFKEQ_clean_linker_1, # of connection points: 2
#     Edge 34, Type (0, 0), BuildingBlock: KIFKEQ_clean_linker_1, # of connection points: 2
#     Edge 35, Type (0, 0), BuildingBlock: KIFKEQ_clean_linker_1, # of connection points: 2
# Relax obj value: 0.078
# Max RMSD: 0.153
# Mean RMSD: 0.153
data_MOF--net-sod--node1-GALJAG_clean_sbu_0--edge1-KIFKEQ_clean_linker_1
_symmetry_space_group_name_H-M    P1
_symmetry_Int_Tables_number       1
_symmetry_cell_setting            triclinic
loop_
_symmetry_equiv_pos_as_xyz
'x, y, z'
_cell_length_a     43.724038
_cell_length_b     43.715069
_cell_length_c     43.668328
_cell_angle_alpha  89.99935
_cell_angle_beta   89.989553
_cell_angle_gamma 89.965301
loop_
_atom_site_label
_atom_site_type_symbol
_atom_site_fract_x
_atom_site_fract_y
_atom_site_fract_z
_atom_type_partial_charge
In0 In 0.00543 0.25055 0.50205 0.0
O1 O 0.97114 0.21993 0.52674 0.0
O2 O 0.96964 0.22083 0.47815 0.0
C3 C 0.00406 0.29084 0.54905 0.0
C4 C 0.05222 0.20998 0.50137 0.0
C5 C 0.00617 0.29091 0.4551 0.0
O6 O 0.98021 0.27931 0.53767 0.0
O7 O 0.02866 0.28205 0.53677 0.0
O8 O 0.0302 0.28103 0.46763 0.0
O9 O 0.98169 0.28045 0.46622 0.0
C10 C 0.95861 0.21019 0.50263 0.0
O11 O 0.03959 0.21972 0.47733 0.0
O12 O 0.04136 0.22077 0.52586 0.0
In13 In 0.75188 0.00348 0.50165 0.0
O14 O 0.71224 0.98203 0.52812 0.0
O15 O 0.7313 0.02295 0.54581 0.0
C16 C 0.79057 0.95522 0.49973 0.0
C17 C 0.71433 0.00673 0.45258 0.0
C18 C 0.79212 0.05038 0.5043 0.0
O19 O 0.77239 0.95974 0.5217 0.0
O20 O 0.7889 0.97476 0.47855 0.0
O21 O 0.77325 0.04726 0.48269 0.0
O22 O 0.7904 0.03012 0.5248 0.0
C23 C 0.71154 0.00216 0.54875 0.0
O24 O 0.71793 0.02866 0.471 0.0
O25 O 0.72983 0.98317 0.45877 0.0
In26 In 1.00069 0.75167 0.50269 0.0
O27 O 0.02686 0.71827 0.53308 0.0
O28 O 0.9795 0.72435 0.54198 0.0
C29 C 0.04795 0.79155 0.50315 0.0
C30 C 0.99734 0.71154 0.45573 0.0
C31 C 0.9538 0.79207 0.50238 0.0
O32 O 0.03695 0.78009 0.52723 0.0
O33 O 0.03515 0.7829 0.47876 0.0
O34 O 0.9645 0.78033 0.47829 0.0
O35 O 0.96665 0.78337 0.52673 0.0
C36 C 0.00409 0.71109 0.54927 0.0
O37 O 0.97449 0.71866 0.47186 0.0
O38 O 0.02192 0.72463 0.46329 0.0
In39 In 0.25408 0.99835 0.5009 0.0
O40 O 0.23303 0.95433 0.48219 0.0
O41 O 0.21683 0.97067 0.52495 0.0
C42 C 0.29338 0.99681 0.45286 0.0
C43 C 0.21493 0.0462 0.49878 0.0
C44 C 0.29233 0.00107 0.54937 0.0
O45 O 0.29524 0.97884 0.4753 0.0
O46 O 0.27166 0.01569 0.4545 0.0
O47 O 0.28642 0.02403 0.53285 0.0
O48 O 0.27868 0.97683 0.54165 0.0
C49 C 0.21487 0.95061 0.5043 0.0
O50 O 0.23472 0.04321 0.5196 0.0
O51 O 0.21519 0.02531 0.47885 0.0
In52 In 0.50317 0.00251 0.25078 0.0
O53 O 0.55343 0.99375 0.26385 0.0
O54 O 0.52615 0.01948 0.29446 0.0
C55 C 0.49658 0.9525 0.2153 0.0
C56 C 0.45274 0.99725 0.28614 0.0
C57 C 0.50854 0.05 0.21116 0.0
O58 O 0.51759 0.95487 0.23503 0.0
O59 O 0.4785 0.97502 0.21407 0.0
O60 O 0.49797 0.05316 0.2378 0.0
O61 O 0.517 0.02323 0.20482 0.0
C62 C 0.55189 0.00787 0.28896 0.0
O63 O 0.45723 0.01977 0.26865 0.0
O64 O 0.47333 0.97704 0.28528 0.0
In65 In 0.99909 0.50161 0.25321 0.0
O66 O 0.94978 0.49183 0.23837 0.0
O67 O 0.97649 0.5209 0.21022 0.0
C68 C 0.00579 0.45257 0.29043 0.0
C69 C 0.04862 0.49537 0.21669 0.0
C70 C 0.99221 0.55056 0.29063 0.0
O71 O 0.9862 0.45354 0.26927 0.0
O72 O 0.02247 0.47601 0.29235 0.0
O73 O 0.01072 0.5503 0.26851 0.0
O74 O 0.97666 0.52647 0.29344 0.0
C75 C 0.95125 0.50762 0.21426 0.0
O76 O 0.047 0.51526 0.23756 0.0
O77 O 0.02558 0.4781 0.21474 0.0
In78 In 0.50229 0.00587 0.75344 0.0
O79 O 0.53992 0.02847 0.7253 0.0
O80 O 0.53513 0.98023 0.72175 0.0
C81 C 0.50523 0.05326 0.79321 0.0
C82 C 0.45503 0.00632 0.71328 0.0
C83 C 0.50118 0.95917 0.79407 0.0
O84 O 0.52838 0.03784 0.78558 0.0
O85 O 0.48065 0.04496 0.78061 0.0
O86 O 0.52413 0.9648 0.77747 0.0
O87 O 0.47881 0.97695 0.79003 0.0
C88 C 0.5493 0.00394 0.71331 0.0
O89 O 0.46072 0.98382 0.7304 0.0
O90 O 0.47296 0.02862 0.71654 0.0
In91 In 0.00482 0.50099 0.75192 0.0
O92 O 0.04696 0.48118 0.77528 0.0
O93 O 0.03506 0.52714 0.78577 0.0
C94 C 1.0008 0.4515 0.71484 0.0
C95 C 0.95603 0.49691 0.79001 0.0
C96 C 0.01117 0.54947 0.71372 0.0
O97 O 0.02433 0.45767 0.73029 0.0
O98 O 0.97891 0.46994 0.71852 0.0
O99 O 0.99432 0.55011 0.73711 0.0
O100 O 0.02541 0.52469 0.71 0.0
C101 C 0.05305 0.505 0.79038 0.0
O102 O 0.95428 0.50856 0.76368 0.0
O103 O 0.98204 0.4865 0.79674 0.0
In104 In 0.25141 0.50098 0.00577 0.0
O105 O 0.21852 0.47604 0.03769 0.0
O106 O 0.22507 0.52348 0.04528 0.0
C107 C 0.29229 0.45461 0.00273 0.0
C108 C 0.21194 0.50223 0.95799 0.0
C109 C 0.29137 0.54807 0.00843 0.0
O110 O 0.27549 0.45918 0.02574 0.0
O111 O 0.28835 0.47327 0.98104 0.0
O112 O 0.27489 0.54274 0.98536 0.0
O113 O 0.2875 0.52982 0.03051 0.0
C114 C 0.21177 0.49921 0.05344 0.0
O115 O 0.21953 0.52585 0.97266 0.0
O116 O 0.22427 0.47787 0.96733 0.0
In117 In 0.50725 0.25584 0.0041 0.0
O118 O 0.52591 0.2346 0.04799 0.0
O119 O 0.48462 0.21642 0.03 0.0
C120 C 0.5554 0.29472 0.00584 0.0
C121 C 0.5102 0.21652 0.9565 0.0
C122 C 0.45899 0.29472 0.00317 0.0
O123 O 0.5381 0.29011 0.02842 0.0
O124 O 0.54853 0.27968 0.98219 0.0
O125 O 0.47526 0.28942 0.97997 0.0
O126 O 0.46685 0.28028 0.02689 0.0
C127 C 0.50477 0.21519 0.05065 0.0
O128 O 0.48807 0.23462 0.96051 0.0
O129 O 0.5311 0.21842 0.97636 0.0
In130 In 0.75402 0.50765 0.99927 0.0
O131 O 0.74048 0.45807 0.98915 0.0
O132 O 0.7135 0.48287 0.02092 0.0
C133 C 0.79098 0.51243 0.94991 0.0
C134 C 0.71733 0.55699 0.9919 0.0
C135 C 0.79152 0.50273 0.04835 0.0
O136 O 0.768 0.49499 0.95045 0.0
O137 O 0.79471 0.52814 0.97385 0.0
O138 O 0.76707 0.51803 0.04901 0.0
O139 O 0.79663 0.4894 0.02327 0.0
C140 C 0.71758 0.45815 0.00667 0.0
O141 O 0.73906 0.55644 0.01087 0.0
O142 O 0.71467 0.53304 0.97606 0.0
In143 In 0.50067 0.75271 0.00203 0.0
O144 O 0.46672 0.72237 0.02773 0.0
O145 O 0.46646 0.72042 0.97919 0.0
C146 C 0.4984 0.79156 0.05013 0.0
C147 C 0.54911 0.71429 0.99844 0.0
C148 C 0.50032 0.79474 0.95649 0.0
O149 O 0.47483 0.78327 0.03567 0.0
O150 O 0.52309 0.78023 0.04036 0.0
O151 O 0.52408 0.78784 0.9713 0.0
O152 O 0.47662 0.7804 0.96457 0.0
C153 C 0.45516 0.7108 0.00396 0.0
O154 O 0.53552 0.72448 0.97512 0.0
O155 O 0.53831 0.72346 0.0236 0.0
H156 H 0.95744 0.31653 0.42557 0.0
H157 H 0.05621 0.31554 0.42709 0.0
H158 H 0.95843 0.35431 0.38445 0.0
H159 H 0.05724 0.35286 0.38556 0.0
H160 H 0.0449 0.44667 0.33873 0.0
H161 H 0.04545 0.40653 0.37749 0.0
H162 H 0.97164 0.36041 0.33065 0.0
H163 H 0.97073 0.40093 0.29219 0.0
C164 C 0.97936 0.32424 0.41697 0.0
C165 C 0.00674 0.31316 0.42962 0.0
C166 C 0.97994 0.34574 0.39327 0.0
C167 C 0.00793 0.35662 0.3817 0.0
C168 C 0.03531 0.34525 0.3942 0.0
C169 C 0.03472 0.32377 0.4179 0.0
C170 C 0.02896 0.42783 0.33659 0.0
C171 C 0.00772 0.42698 0.31247 0.0
C172 C 0.02935 0.40474 0.35872 0.0
C173 C 0.0085 0.3803 0.35725 0.0
C174 C 0.9877 0.37915 0.33271 0.0
C175 C 0.98732 0.40224 0.31055 0.0
H176 H 0.69977 0.96116 0.41236 0.0
H177 H 0.68045 0.05565 0.43384 0.0
H178 H 0.66203 0.96277 0.37122 0.0
H179 H 0.64328 0.05754 0.39227 0.0
H180 H 0.55235 0.0364 0.3443 0.0
H181 H 0.59316 0.03704 0.38214 0.0
H182 H 0.6505 0.98429 0.32119 0.0
H183 H 0.60918 0.98311 0.28345 0.0
C184 C 0.68769 0.98237 0.40806 0.0
C185 C 0.69291 0.00821 0.42644 0.0
C186 C 0.6662 0.98336 0.38436 0.0
C187 C 0.64951 0.01025 0.37851 0.0
C188 C 0.65536 0.03632 0.39647 0.0
C189 C 0.67678 0.03529 0.42019 0.0
C190 C 0.57373 0.02509 0.33888 0.0
C191 C 0.57755 0.00964 0.31093 0.0
C192 C 0.59722 0.02561 0.36051 0.0
C193 C 0.62515 0.01074 0.35472 0.0
C194 C 0.62915 0.99567 0.32652 0.0
C195 C 0.60557 0.99515 0.30483 0.0
H196 H 0.02309 0.60479 0.28891 0.0
H197 H 0.9577 0.55372 0.34255 0.0
H198 H 0.02297 0.64527 0.3274 0.0
H199 H 0.95813 0.59373 0.3814 0.0
H200 H 0.9465 0.68283 0.43371 0.0
H201 H 0.94355 0.64581 0.39201 0.0
H202 H 0.04128 0.65281 0.37894 0.0
H203 H 0.04404 0.69039 0.42009 0.0
C204 C 0.00859 0.60229 0.30887 0.0
C205 C 0.99045 0.57608 0.31275 0.0
C206 C 0.00868 0.62537 0.33103 0.0
C207 C 0.99069 0.62268 0.35761 0.0
C208 C 0.97199 0.59674 0.36107 0.0
C209 C 0.97184 0.57372 0.33886 0.0
C210 C 0.96731 0.67652 0.42183 0.0
C211 C 0.99551 0.68945 0.43019 0.0
C212 C 0.96566 0.6552 0.39803 0.0
C213 C 0.99218 0.64628 0.38212 0.0
C214 C 0.02034 0.65948 0.39037 0.0
C215 C 0.02197 0.68086 0.41411 0.0
H216 H 0.34713 0.96561 0.44975 0.0
H217 H 0.28866 0.02585 0.39766 0.0
H218 H 0.38388 0.96497 0.40795 0.0
H219 H 0.32479 0.02421 0.35507 0.0
H220 H 0.41306 0.04297 0.30113 0.0
H221 H 0.37346 0.04213 0.34032 0.0
H222 H 0.39338 0.94686 0.35816 0.0
H223 H 0.43392 0.94827 0.31989 0.0
C224 C 0.342 0.97845 0.42916 0.0
C225 C 0.3151 0.99587 0.42699 0.0
C226 C 0.36296 0.9779 0.40504 0.0
C227 C 0.35735 0.99445 0.37796 0.0
C228 C 0.33015 0.01156 0.3757 0.0
C229 C 0.30934 0.0124 0.40003 0.0
C230 C 0.40877 0.0218 0.31328 0.0
C231 C 0.42669 0.99574 0.30761 0.0
C232 C 0.38593 0.02124 0.33568 0.0
C233 C 0.38025 0.99448 0.35267 0.0
C234 C 0.39751 0.96808 0.34607 0.0
C235 C 0.4206 0.96878 0.32395 0.0
H236 H 0.04336 0.5516 0.66028 0.0
H237 H 0.98166 0.60444 0.71661 0.0
H238 H 0.04235 0.59167 0.62146 0.0
H239 H 0.98113 0.64488 0.67807 0.0
H240 H 0.95787 0.69065 0.58598 0.0
H241 H 0.96099 0.65275 0.62687 0.0
H242 H 0.05815 0.64372 0.61105 0.0
H243 H 0.05485 0.68112 0.56973 0.0
C244 C 0.02989 0.57197 0.66453 0.0
C245 C 0.01252 0.57486 0.69143 0.0
C246 C 0.02941 0.59501 0.64234 0.0
C247 C 0.01156 0.62145 0.64659 0.0
C248 C 0.99475 0.6246 0.67387 0.0
C249 C 0.99522 0.60154 0.69605 0.0
C250 C 0.97989 0.68061 0.5913 0.0
C251 C 0.00609 0.68876 0.57459 0.0
C252 C 0.98174 0.65904 0.61487 0.0
C253 C 0.00984 0.64519 0.62225 0.0
C254 C 0.03609 0.65364 0.60569 0.0
C255 C 0.03423 0.67518 0.58212 0.0
H256 H 0.40726 0.96636 0.7094 0.0
H257 H 0.44616 0.04616 0.66617 0.0
H258 H 0.36619 0.96591 0.67164 0.0
H259 H 0.40609 0.04498 0.6275 0.0
H260 H 0.31661 0.0517 0.57656 0.0
H261 H 0.35409 0.0536 0.61782 0.0
H262 H 0.35637 0.9547 0.62006 0.0
H263 H 0.31783 0.95302 0.57987 0.0
C264 C 0.40708 0.98372 0.69169 0.0
C265 C 0.42987 0.0063 0.69071 0.0
C266 C 0.38365 0.98337 0.66988 0.0
C267 C 0.38274 0.00535 0.64632 0.0
C268 C 0.40561 0.028 0.64554 0.0
C269 C 0.42876 0.02859 0.6676 0.0
C270 C 0.32501 0.03041 0.58607 0.0
C271 C 0.31433 0.00222 0.57501 0.0
C272 C 0.34669 0.03145 0.60958 0.0
C273 C 0.35852 0.0043 0.62229 0.0
C274 C 0.3475 0.97611 0.61129 0.0
C275 C 0.32552 0.9751 0.58807 0.0
H276 H 0.0515 0.32384 0.57251 0.0
H277 H 0.95461 0.30799 0.58311 0.0
H278 H 0.04985 0.3615 0.61361 0.0
H279 H 0.95305 0.3449 0.62497 0.0
H280 H 0.95589 0.43831 0.67344 0.0
H281 H 0.95641 0.39865 0.63417 0.0
H282 H 0.04388 0.36682 0.6676 0.0
H283 H 0.04373 0.40712 0.70616 0.0
C284 C 0.0299 0.32822 0.58384 0.0
C285 C 0.00318 0.31305 0.57455 0.0
C286 C 0.02896 0.34967 0.60757 0.0
C287 C 1.00131 0.35625 0.62272 0.0
C288 C 0.97464 0.34077 0.61355 0.0
C289 C 0.97555 0.31948 0.58967 0.0
C290 C 0.9751 0.42268 0.6725 0.0
C291 C 0.99982 0.42589 0.69277 0.0
C292 C 0.97536 0.39984 0.65008 0.0
C293 C 1.00028 0.37959 0.64756 0.0
C294 C 0.02459 0.38236 0.66847 0.0
C295 C 0.02441 0.4053 0.69074 0.0
H296 H 0.57658 0.95377 0.68789 0.0
H297 H 0.57853 0.05253 0.68738 0.0
H298 H 0.61717 0.95273 0.64955 0.0
H299 H 0.61835 0.05161 0.64837 0.0
H300 H 0.70864 0.04013 0.59834 0.0
H301 H 0.67088 0.03977 0.63949 0.0
H302 H 0.62515 0.96334 0.59654 0.0
H303 H 0.66348 0.96314 0.55605 0.0
C304 C 0.58565 0.97525 0.67952 0.0
C305 C 0.57437 0.00322 0.69061 0.0
C306 C 0.60879 0.97468 0.6574 0.0
C307 C 0.62103 0.00209 0.64574 0.0
C308 C 0.60984 0.03005 0.65712 0.0
C309 C 0.58686 0.0306 0.67936 0.0
C310 C 0.69058 0.02318 0.59782 0.0
C311 C 0.689 0.00168 0.57398 0.0
C312 C 0.66882 0.02308 0.6213 0.0
C313 C 0.64486 0.00157 0.62136 0.0
C314 C 0.6435 0.97993 0.59754 0.0
C315 C 0.66537 0.97993 0.57419 0.0
H316 H 0.42866 0.31899 0.05204 0.0
H317 H 0.43145 0.32002 0.95324 0.0
H318 H 0.38795 0.35704 0.05139 0.0
H319 H 0.38972 0.35697 0.95234 0.0
H320 H 0.33918 0.44779 0.96211 0.0
H321 H 0.37882 0.40861 0.96213 0.0
H322 H 0.33615 0.36573 0.04051 0.0
H323 H 0.29746 0.40584 0.04123 0.0
C324 C 0.42026 0.32709 0.03016 0.0
C325 C 0.43328 0.31665 0.00271 0.0
C326 C 0.39675 0.34878 0.02973 0.0
C327 C 0.38542 0.36022 1.00179 0.0
C328 C 0.39818 0.34922 0.97431 0.0
C329 C 0.42197 0.32785 0.97478 0.0
C330 C 0.33829 0.42991 0.97926 0.0
C331 C 0.31533 0.42991 1.00173 0.0
C332 C 0.3609 0.40729 0.9792 0.0
C333 C 0.36084 0.38389 1.00137 0.0
C334 C 0.33738 0.38365 0.02345 0.0
C335 C 0.31503 0.40652 0.02376 0.0
H336 H 0.29907 0.59324 0.96619 0.0
H337 H 0.33514 0.55919 0.0517 0.0
H338 H 0.33761 0.63344 0.96579 0.0
H339 H 0.37446 0.59879 0.05087 0.0
H340 H 0.43098 0.67864 0.95626 0.0
H341 H 0.3911 0.63978 0.95808 0.0
H342 H 0.38315 0.65253 0.05593 0.0
H343 H 0.42381 0.69069 0.05414 0.0
C344 C 0.31531 0.59434 0.98489 0.0
C345 C 0.31412 0.57306 0.00896 0.0
C346 C 0.33756 0.61725 0.98457 0.0
C347 C 0.35934 0.6193 0.00819 0.0
C348 C 0.35786 0.59818 0.03248 0.0
C349 C 0.33542 0.57537 0.03291 0.0
C350 C 0.42069 0.67313 0.97814 0.0
C351 C 0.43053 0.68768 0.00505 0.0
C352 C 0.39766 0.65099 0.97919 0.0
C353 C 0.38378 0.64302 0.00715 0.0
C354 C 0.3936 0.65775 0.03406 0.0
C355 C 0.41677 0.67977 0.03303 0.0
H356 H 0.59254 0.31266 0.95883 0.0
H357 H 0.57642 0.32595 0.0555 0.0
H358 H 0.63335 0.35071 0.96041 0.0
H359 H 0.61772 0.3633 0.05734 0.0
H360 H 0.66474 0.45541 0.03954 0.0
H361 H 0.62704 0.41449 0.04001 0.0
H362 H 0.68418 0.36107 0.97943 0.0
H363 H 0.7216 0.40254 0.97835 0.0
C364 C 0.59795 0.32349 0.98047 0.0
C365 C 0.58118 0.31651 0.00698 0.0
C366 C 0.62146 0.34515 0.98144 0.0
C367 C 0.62876 0.36016 0.009 0.0
C368 C 0.61237 0.35256 0.03564 0.0
C369 C 0.5888 0.33105 0.03462 0.0
C370 C 0.66937 0.43483 0.02652 0.0
C371 C 0.69607 0.4322 0.00885 0.0
C372 C 0.64782 0.41127 0.0269 0.0
C373 C 0.65253 0.38447 0.00971 0.0
C374 C 0.67963 0.38158 0.99257 0.0
C375 C 0.70117 0.40523 0.99212 0.0
H376 H 0.71671 0.60943 0.02587 0.0
H377 H 0.66766 0.56189 0.95443 0.0
H378 H 0.67758 0.6493 0.02621 0.0
H379 H 0.62829 0.60141 0.95513 0.0
H380 H 0.57548 0.6909 0.94683 0.0
H381 H 0.61818 0.65503 0.94356 0.0
H382 H 0.6243 0.6535 0.04231 0.0
H383 H 0.58199 0.68974 0.04552 0.0
C384 C 0.69769 0.60763 0.01008 0.0
C385 C 0.6952 0.58251 0.99018 0.0
C386 C 0.67517 0.63035 0.01042 0.0
C387 C 0.6497 0.62844 0.99085 0.0
C388 C 0.64775 0.60375 0.97029 0.0
C389 C 0.67025 0.58103 0.96998 0.0
C390 C 0.58605 0.68298 0.96782 0.0
C391 C 0.57536 0.69306 0.99644 0.0
C392 C 0.61042 0.66234 0.96595 0.0
C393 C 0.62465 0.65139 0.99267 0.0
C394 C 0.61414 0.6618 0.02128 0.0
C395 C 0.58975 0.6824 0.02314 0.0
H396 H 0.5482 0.8296 0.93703 0.0
H397 H 0.45239 0.81235 0.9204 0.0
H398 H 0.54811 0.86871 0.89727 0.0
H399 H 0.45242 0.85097 0.88002 0.0
H400 H 0.45606 0.94584 0.83507 0.0
H401 H 0.45579 0.90564 0.87375 0.0
H402 H 0.54459 0.87523 0.84264 0.0
H403 H 0.54515 0.91602 0.80449 0.0
C404 C 0.52716 0.83404 0.92472 0.0
C405 C 0.50029 0.81796 0.93187 0.0
C406 C 0.52714 0.85633 0.90177 0.0
C407 C 0.50026 0.863 0.88538 0.0
C408 C 0.47342 0.84671 0.89245 0.0
C409 C 0.47343 0.82446 0.91546 0.0
C410 C 0.47548 0.93051 0.83646 0.0
C411 C 0.50066 0.93413 0.81681 0.0
C412 C 0.47526 0.90734 0.85852 0.0
C413 C 0.50018 0.88717 0.86136 0.0
C414 C 0.52522 0.89063 0.84141 0.0
C415 C 0.52548 0.91388 0.81942 0.0
H416 H 0.18365 0.45397 0.93038 0.0
H417 H 0.19084 0.55241 0.92753 0.0
H418 H 0.14617 0.45547 0.88914 0.0
H419 H 0.15442 0.55399 0.88532 0.0
H420 H 0.06312 0.5482 0.83435 0.0
H421 H 0.10214 0.54774 0.87419 0.0
H422 H 0.13938 0.46415 0.83647 0.0
H423 H 0.09946 0.46403 0.79758 0.0
C424 C 0.17745 0.47591 0.92066 0.0
C425 C 0.19007 0.50307 0.93222 0.0
C426 C 0.15611 0.4768 0.89684 0.0
C427 C 0.14719 0.50487 0.88374 0.0
C428 C 0.16026 0.532 0.89512 0.0
C429 C 0.18131 0.53111 0.91921 0.0
C430 C 0.07979 0.52986 0.83452 0.0
C431 C 0.07819 0.5061 0.81296 0.0
C432 C 0.1023 0.52963 0.85727 0.0
C433 C 0.12396 0.50581 0.85874 0.0
C434 C 0.12276 0.48252 0.83653 0.0
C435 C 0.10002 0.48256 0.81404 0.0
H436 H 0.45748 0.0838 0.81921 0.0
H437 H 0.55613 0.0795 0.81807 0.0
H438 H 0.45955 0.12386 0.85787 0.0
H439 H 0.55837 0.12047 0.85593 0.0
H440 H 0.54969 0.16875 0.94877 0.0
H441 H 0.54889 0.13006 0.90857 0.0
H442 H 0.47207 0.17583 0.86622 0.0
H443 H 0.47221 0.21372 0.90713 0.0
C444 C 0.47963 0.09169 0.827 0.0
C445 C 0.50663 0.07848 0.81569 0.0
C446 C 0.48085 0.11482 0.84904 0.0
C447 C 0.50914 0.12551 0.86008 0.0
C448 C 0.53617 0.11251 0.84836 0.0
C449 C 0.53492 0.08916 0.82651 0.0
C450 C 0.53274 0.17057 0.93078 0.0
C451 C 0.51093 0.19415 0.93115 0.0
C452 C 0.53236 0.14849 0.9076 0.0
C453 C 0.51033 0.14968 0.88412 0.0
C454 C 0.48898 0.17379 0.88421 0.0
C455 C 0.48918 0.19566 0.90755 0.0
H456 H 0.95833 0.48449 0.85101 0.0
H457 H 0.89615 0.51133 0.77898 0.0
H458 H 0.91718 0.48942 0.88847 0.0
H459 H 0.8548 0.51598 0.8166 0.0
H460 H 0.78534 0.48522 0.89381 0.0
H461 H 0.82444 0.4812 0.85382 0.0
H462 H 0.88627 0.53473 0.90916 0.0
H463 H 0.84726 0.539 0.94894 0.0
C464 C 0.93579 0.49116 0.84315 0.0
C465 C 0.93044 0.49757 0.81209 0.0
C466 C 0.91232 0.49419 0.86462 0.0
C467 C 0.88291 0.50332 0.85544 0.0
C468 C 0.87727 0.50885 0.82425 0.0
C469 C 0.90091 0.50623 0.80278 0.0
C470 C 0.80717 0.49642 0.89723 0.0
C471 C 0.8133 0.51237 0.9245 0.0
C472 C 0.82948 0.49415 0.87436 0.0
C473 C 0.85843 0.50741 0.87857 0.0
C474 C 0.86426 0.52396 0.90552 0.0
C475 C 0.84186 0.52658 0.92817 0.0
H476 H 0.50122 0.11127 0.22142 0.0
H477 H 0.51696 0.04508 0.14966 0.0
H478 H 0.50003 0.15227 0.18312 0.0
H479 H 0.51528 0.08592 0.11151 0.0
H480 H 0.47112 0.1628 0.05314 0.0
H481 H 0.47252 0.12324 0.09276 0.0
H482 H 0.5387 0.17607 0.14351 0.0
H483 H 0.53772 0.21547 0.10366 0.0
C484 C 0.50452 0.10553 0.19752 0.0
C485 C 0.50921 0.07504 0.18849 0.0
C486 C 0.50389 0.12894 0.17567 0.0
C487 C 0.50738 0.12215 0.14442 0.0
C488 C 0.51224 0.09169 0.13545 0.0
C489 C 0.51339 0.06839 0.15729 0.0
C490 C 0.48584 0.16602 0.07283 0.0
C491 C 0.50436 0.19213 0.07533 0.0
C492 C 0.48675 0.14335 0.09537 0.0
C493 C 0.50579 0.14664 0.12107 0.0
C494 C 0.52374 0.1731 0.12397 0.0
C495 C 0.52324 0.19553 0.10115 0.0
H496 H 0.95397 0.53018 0.15626 0.0
H497 H 0.89248 0.48713 0.22058 0.0
H498 H 0.91423 0.52853 0.11703 0.0
H499 H 0.85252 0.48579 0.18124 0.0
H500 H 0.78255 0.52231 0.10717 0.0
H501 H 0.82032 0.52408 0.14863 0.0
H502 H 0.88788 0.48428 0.08852 0.0
H503 H 0.85023 0.48217 0.04731 0.0
C504 C 0.93186 0.52064 0.1621 0.0
C505 C 0.92633 0.50871 0.19145 0.0
C506 C 0.90921 0.51953 0.1396 0.0
C507 C 0.88042 0.50684 0.14608 0.0
C508 C 0.87451 0.49577 0.1757 0.0
C509 C 0.89737 0.49648 0.19814 0.0
C510 C 0.80541 0.51373 0.10295 0.0
C511 C 0.81348 0.50213 0.07404 0.0
C512 C 0.82694 0.51468 0.12665 0.0
C513 C 0.85703 0.50453 0.12165 0.0
C514 C 0.86493 0.49257 0.09286 0.0
C515 C 0.84333 0.49119 0.06936 0.0
H516 H 0.54644 0.81629 0.08131 0.0
H517 H 0.44774 0.81567 0.0776 0.0
H518 H 0.54467 0.85349 0.12283 0.0
H519 H 0.44587 0.85223 0.11978 0.0
H520 H 0.45688 0.94545 0.1677 0.0
H521 H 0.45665 0.90517 0.12919 0.0
H522 H 0.53145 0.86026 0.17579 0.0
H523 H 0.53219 0.90114 0.21385 0.0
C524 C 0.52435 0.8239 0.08959 0.0
C525 C 0.49723 0.81318 0.07612 0.0
C526 C 0.52331 0.84507 0.11356 0.0
C527 C 0.49512 0.85589 0.12471 0.0
C528 C 0.46798 0.84473 0.11149 0.0
C529 C 0.46903 0.82367 0.08742 0.0
C530 C 0.47309 0.92683 0.16987 0.0
C531 C 0.49463 0.92651 0.19372 0.0
C532 C 0.47287 0.90362 0.14786 0.0
C533 C 0.49412 0.87949 0.14927 0.0
C534 C 0.5151 0.87876 0.1737 0.0
C535 C 0.51538 0.90205 0.19565 0.0
H536 H 0.18944 0.54682 0.08731 0.0
H537 H 0.18409 0.4487 0.07725 0.0
H538 H 0.15125 0.54475 0.12801 0.0
H539 H 0.14664 0.44644 0.11851 0.0
H540 H 0.05389 0.45907 0.16617 0.0
H541 H 0.09438 0.4596 0.12785 0.0
H542 H 0.1425 0.52859 0.17984 0.0
H543 H 0.10144 0.52864 0.21771 0.0
C544 C 0.1803 0.52478 0.09401 0.0
C545 C 0.18964 0.49795 0.07901 0.0
C546 C 0.15856 0.52355 0.11748 0.0
C547 C 0.14578 0.49541 0.12656 0.0
C548 C 0.15559 0.46854 0.11182 0.0
C549 C 0.1772 0.46981 0.08827 0.0
C550 C 0.07324 0.47416 0.16953 0.0
C551 C 0.07446 0.49386 0.1949 0.0
C552 C 0.09655 0.47438 0.14763 0.0
C553 C 0.12171 0.49421 0.15067 0.0
C554 C 0.12323 0.51339 0.17649 0.0
C555 C 0.09983 0.51326 0.19833 0.0
H556 H 0.83453 0.94377 0.45697 0.0
H557 H 0.79719 0.90955 0.54188 0.0
H558 H 0.87314 0.90356 0.45768 0.0
H559 H 0.83532 0.86876 0.54223 0.0
H560 H 0.92993 0.82362 0.55077 0.0
H561 H 0.88956 0.86215 0.54974 0.0
H562 H 0.87988 0.84928 0.45208 0.0
H563 H 0.92081 0.81139 0.45306 0.0
C564 C 0.83439 0.92744 0.47562 0.0
C565 C 0.81289 0.92983 0.49939 0.0
C566 C 0.85642 0.90428 0.47596 0.0
C567 C 0.85738 0.88291 0.50003 0.0
C568 C 0.83553 0.88509 0.52358 0.0
C569 C 0.81354 0.90833 0.52328 0.0
C570 C 0.9191 0.82899 0.52912 0.0
C571 C 0.92859 0.81459 0.50198 0.0
C572 C 0.89583 0.85093 0.52854 0.0
C573 C 0.88147 0.85886 0.50081 0.0
C574 C 0.89075 0.84408 0.47375 0.0
C575 C 0.91409 0.82224 0.47433 0.0
H576 H 0.9313 0.18237 0.45382 0.0
H577 H 0.92865 0.18763 0.55253 0.0
H578 H 0.8904 0.14448 0.45472 0.0
H579 H 0.88714 0.15044 0.55348 0.0
H580 H 0.83863 0.05795 0.54519 0.0
H581 H 0.87826 0.09712 0.54482 0.0
H582 H 0.83686 0.13822 0.46488 0.0
H583 H 0.79777 0.09842 0.46478 0.0
C584 C 0.92179 0.17559 0.47569 0.0
C585 C 0.93323 0.18788 0.5031 0.0
C586 C 0.89821 0.15402 0.47622 0.0
C587 C 0.88543 0.14436 0.50418 0.0
C588 C 0.89673 0.15698 0.53157 0.0
C589 C 0.92041 0.17843 0.53103 0.0
C590 C 0.83794 0.07544 0.52762 0.0
C591 C 0.81515 0.07509 0.50497 0.0
C592 C 0.86057 0.09801 0.52749 0.0
C593 C 0.86082 0.12085 0.50479 0.0
C594 C 0.83767 0.12071 0.48241 0.0
C595 C 0.81514 0.09804 0.48246 0.0
H596 H 0.07295 0.82191 0.45463 0.0
H597 H 0.08073 0.8109 0.55261 0.0
H598 H 0.11428 0.85934 0.45553 0.0
H599 H 0.12261 0.84771 0.55347 0.0
H600 H 0.17053 0.94103 0.54716 0.0
H601 H 0.13097 0.90177 0.547 0.0
H602 H 0.16863 0.86422 0.46354 0.0
H603 H 0.2077 0.90404 0.46333 0.0
C604 C 0.08367 0.82733 0.47632 0.0
C605 C 0.07356 0.81357 0.50355 0.0
C606 C 0.10749 0.84863 0.47683 0.0
C607 C 0.12179 0.85655 0.50458 0.0
C608 C 0.11183 0.84248 0.53177 0.0
C609 C 0.08794 0.82126 0.53126 0.0
C610 C 0.17044 0.92428 0.52888 0.0
C611 C 0.19214 0.92564 0.50521 0.0
C612 C 0.14787 0.90167 0.52886 0.0
C613 C 0.14655 0.87986 0.50521 0.0
C614 C 0.16867 0.88094 0.48184 0.0
C615 C 0.19119 0.90362 0.48182 0.0
H616 H 0.08094 0.18621 0.45131 0.0
H617 H 0.08019 0.18265 0.55014 0.0
H618 H 0.12168 0.14813 0.45018 0.0
H619 H 0.12036 0.14391 0.54906 0.0
H620 H 0.2117 0.09516 0.5375 0.0
H621 H 0.17369 0.13607 0.53766 0.0
H622 H 0.12897 0.09459 0.45978 0.0
H623 H 0.16744 0.05427 0.45916 0.0
C624 C 0.08946 0.17723 0.4728 0.0
C625 C 0.07735 0.18736 0.50081 0.0
C626 C 0.11269 0.15527 0.47216 0.0
C627 C 0.12426 0.14284 0.49952 0.0
C628 C 0.1123 0.15327 0.52756 0.0
C629 C 0.08914 0.17533 0.5282 0.0
C630 C 0.19383 0.09492 0.52033 0.0
C631 C 0.19254 0.07153 0.49832 0.0
C632 C 0.17193 0.11825 0.52053 0.0
C633 C 0.14819 0.11862 0.49879 0.0
C634 C 0.14716 0.09531 0.47659 0.0
C635 C 0.16912 0.07208 0.47633 0.0
loop_
_geom_bond_atom_site_label_1
_geom_bond_atom_site_label_2
_geom_bond_distance
_geom_bond_site_symmetry_2
_ccdc_geom_bond_type
In0 O1 2.294 1_455 S
In0 O2 2.326 1_455 S
In0 O6 2.266 1_455 S
In0 O7 2.326 . S
In0 O8 2.266 . S
In0 O9 2.326 1_455 S
In0 O11 2.294 . S
In0 O12 2.326 . S
O1 In0 2.294 1_655 S
O1 C10 1.240 . S
O2 In0 2.326 1_655 S
O2 C10 1.252 . S
C3 O6 1.252 1_455 S
C3 O7 1.260 . S
C4 O11 1.240 . S
C4 O12 1.252 . S
C5 O8 1.252 1_655 S
C5 O9 1.260 . S
O6 In0 2.266 1_655 S
O6 C3 1.252 1_655 S
O7 In0 2.326 . S
O7 C3 1.260 . S
O8 In0 2.266 . S
O8 C5 1.252 1_455 S
O9 In0 2.326 1_655 S
O9 C5 1.260 . S
C10 O1 1.240 . S
C10 O2 1.252 . S
O11 In0 2.294 . S
O11 C4 1.240 . S
O12 In0 2.326 . S
O12 C4 1.252 . S
In13 O14 2.294 1_545 S
In13 O15 2.326 . S
In13 O19 2.266 1_545 S
In13 O20 2.326 1_545 S
In13 O21 2.266 . S
In13 O22 2.326 . S
In13 O24 2.294 . S
In13 O25 2.326 1_545 S
O14 In13 2.294 1_565 S
O14 C23 1.240 1_565 S
O15 In13 2.326 . S
O15 C23 1.252 . S
C16 O19 1.252 . S
C16 O20 1.260 . S
C17 O24 1.240 1_565 S
C17 O25 1.252 . S
C18 O21 1.252 . S
C18 O22 1.260 . S
O19 In13 2.266 1_565 S
O19 C16 1.252 . S
O20 In13 2.326 1_565 S
O20 C16 1.260 . S
O21 In13 2.266 . S
O21 C18 1.252 . S
O22 In13 2.326 . S
O22 C18 1.260 . S
C23 O14 1.240 1_545 S
C23 O15 1.252 . S
O24 In13 2.294 . S
O24 C17 1.240 1_545 S
O25 In13 2.326 1_565 S
O25 C17 1.252 . S
In26 O27 2.294 . S
In26 O28 2.326 1_455 S
In26 O32 2.266 . S
In26 O33 2.326 . S
In26 O34 2.266 1_455 S
In26 O35 2.326 1_455 S
In26 O37 2.294 1_455 S
In26 O38 2.326 . S
O27 In26 2.294 . S
O27 C36 1.240 1_455 S
O28 In26 2.326 1_655 S
O28 C36 1.252 . S
C29 O32 1.252 . S
C29 O33 1.260 . S
C30 O37 1.240 1_455 S
C30 O38 1.252 . S
C31 O34 1.252 . S
C31 O35 1.260 . S
O32 In26 2.266 . S
O32 C29 1.252 . S
O33 In26 2.326 . S
O33 C29 1.260 . S
O34 In26 2.266 1_655 S
O34 C31 1.252 . S
O35 In26 2.326 1_655 S
O35 C31 1.260 . S
C36 O27 1.240 1_655 S
C36 O28 1.252 . S
O37 In26 2.294 1_655 S
O37 C30 1.240 1_655 S
O38 In26 2.326 . S
O38 C30 1.252 . S
In39 O40 2.294 1_545 S
In39 O41 2.326 1_545 S
In39 O45 2.266 1_545 S
In39 O46 2.326 . S
In39 O47 2.266 . S
In39 O48 2.326 1_545 S
In39 O50 2.294 . S
In39 O51 2.326 . S
O40 In39 2.294 1_565 S
O40 C49 1.240 . S
O41 In39 2.326 1_565 S
O41 C49 1.252 . S
C42 O45 1.252 1_545 S
C42 O46 1.260 . S
C43 O50 1.240 . S
C43 O51 1.252 . S
C44 O47 1.252 1_565 S
C44 O48 1.260 . S
O45 In39 2.266 1_565 S
O45 C42 1.252 1_565 S
O46 In39 2.326 . S
O46 C42 1.260 . S
O47 In39 2.266 . S
O47 C44 1.252 1_545 S
O48 In39 2.326 1_565 S
O48 C44 1.260 . S
C49 O40 1.240 . S
C49 O41 1.252 . S
O50 In39 2.294 . S
O50 C43 1.240 . S
O51 In39 2.326 . S
O51 C43 1.252 . S
In52 O53 2.294 1_545 S
In52 O54 2.326 . S
In52 O58 2.266 1_545 S
In52 O59 2.326 1_545 S
In52 O60 2.266 . S
In52 O61 2.326 . S
In52 O63 2.294 . S
In52 O64 2.326 1_545 S
O53 In52 2.294 1_565 S
O53 C62 1.240 1_565 S
O54 In52 2.326 . S
O54 C62 1.252 . S
C55 O58 1.252 . S
C55 O59 1.260 . S
C56 O63 1.240 1_565 S
C56 O64 1.252 . S
C57 O60 1.252 . S
C57 O61 1.260 . S
O58 In52 2.266 1_565 S
O58 C55 1.252 . S
O59 In52 2.326 1_565 S
O59 C55 1.260 . S
O60 In52 2.266 . S
O60 C57 1.252 . S
O61 In52 2.326 . S
O61 C57 1.260 . S
C62 O53 1.240 1_545 S
C62 O54 1.252 . S
O63 In52 2.294 . S
O63 C56 1.240 1_545 S
O64 In52 2.326 1_565 S
O64 C56 1.252 . S
In65 O66 2.294 1_455 S
In65 O67 2.326 1_455 S
In65 O71 2.266 1_455 S
In65 O72 2.326 . S
In65 O73 2.266 . S
In65 O74 2.326 1_455 S
In65 O76 2.294 . S
In65 O77 2.326 . S
O66 In65 2.294 1_655 S
O66 C75 1.240 . S
O67 In65 2.326 1_655 S
O67 C75 1.252 . S
C68 O71 1.252 1_455 S
C68 O72 1.260 . S
C69 O76 1.240 . S
C69 O77 1.252 . S
C70 O73 1.252 1_655 S
C70 O74 1.260 . S
O71 In65 2.266 1_655 S
O71 C68 1.252 1_655 S
O72 In65 2.326 . S
O72 C68 1.260 . S
O73 In65 2.266 . S
O73 C70 1.252 1_455 S
O74 In65 2.326 1_655 S
O74 C70 1.260 . S
C75 O66 1.240 . S
C75 O67 1.252 . S
O76 In65 2.294 . S
O76 C69 1.240 . S
O77 In65 2.326 . S
O77 C69 1.252 . S
In78 O79 2.294 . S
In78 O80 2.326 1_545 S
In78 O84 2.266 . S
In78 O85 2.326 . S
In78 O86 2.266 1_545 S
In78 O87 2.326 1_545 S
In78 O89 2.294 1_545 S
In78 O90 2.326 . S
O79 In78 2.294 . S
O79 C88 1.240 1_545 S
O80 In78 2.326 1_565 S
O80 C88 1.252 . S
C81 O84 1.252 . S
C81 O85 1.260 . S
C82 O89 1.240 1_545 S
C82 O90 1.252 . S
C83 O86 1.252 . S
C83 O87 1.260 . S
O84 In78 2.266 . S
O84 C81 1.252 . S
O85 In78 2.326 . S
O85 C81 1.260 . S
O86 In78 2.266 1_565 S
O86 C83 1.252 . S
O87 In78 2.326 1_565 S
O87 C83 1.260 . S
C88 O79 1.240 1_565 S
C88 O80 1.252 . S
O89 In78 2.294 1_565 S
O89 C82 1.240 1_565 S
O90 In78 2.326 . S
O90 C82 1.252 . S
In91 O92 2.294 . S
In91 O93 2.326 . S
In91 O97 2.266 . S
In91 O98 2.326 1_455 S
In91 O99 2.266 1_455 S
In91 O100 2.326 . S
In91 O102 2.294 1_455 S
In91 O103 2.326 1_455 S
O92 In91 2.294 . S
O92 C101 1.240 . S
O93 In91 2.326 . S
O93 C101 1.252 . S
C94 O97 1.252 1_655 S
C94 O98 1.260 . S
C95 O102 1.240 . S
C95 O103 1.252 . S
C96 O99 1.252 1_455 S
C96 O100 1.260 . S
O97 In91 2.266 . S
O97 C94 1.252 1_455 S
O98 In91 2.326 1_655 S
O98 C94 1.260 . S
O99 In91 2.266 1_655 S
O99 C96 1.252 1_655 S
O100 In91 2.326 . S
O100 C96 1.260 . S
C101 O92 1.240 . S
C101 O93 1.252 . S
O102 In91 2.294 1_655 S
O102 C95 1.240 . S
O103 In91 2.326 1_655 S
O103 C95 1.252 . S
In104 O105 2.299 . S
In104 O106 2.329 . S
In104 O110 2.268 . S
In104 O111 2.322 1_554 S
In104 O112 2.264 1_554 S
In104 O113 2.329 . S
In104 O115 2.289 1_554 S
In104 O116 2.324 1_554 S
O105 In104 2.299 . S
O105 C114 1.240 . S
O106 In104 2.329 . S
O106 C114 1.252 . S
C107 O110 1.252 1_556 S
C107 O111 1.260 . S
C108 O115 1.240 . S
C108 O116 1.252 . S
C109 O112 1.252 1_554 S
C109 O113 1.260 . S
O110 In104 2.268 . S
O110 C107 1.252 1_554 S
O111 In104 2.322 1_556 S
O111 C107 1.260 . S
O112 In104 2.264 1_556 S
O112 C109 1.252 1_556 S
O113 In104 2.329 . S
O113 C109 1.260 . S
C114 O105 1.240 . S
C114 O106 1.252 . S
O115 In104 2.289 1_556 S
O115 C108 1.240 . S
O116 In104 2.324 1_556 S
O116 C108 1.252 . S
In117 O118 2.301 . S
In117 O119 2.330 . S
In117 O123 2.269 . S
In117 O124 2.321 1_554 S
In117 O125 2.264 1_554 S
In117 O126 2.331 . S
In117 O128 2.287 1_554 S
In117 O129 2.323 1_554 S
O118 In117 2.301 . S
O118 C127 1.240 . S
O119 In117 2.330 . S
O119 C127 1.252 . S
C120 O123 1.252 1_556 S
C120 O124 1.260 . S
C121 O128 1.240 . S
C121 O129 1.252 . S
C122 O125 1.252 1_554 S
C122 O126 1.260 . S
O123 In117 2.269 . S
O123 C120 1.252 1_554 S
O124 In117 2.321 1_556 S
O124 C120 1.260 . S
O125 In117 2.264 1_556 S
O125 C122 1.252 1_556 S
O126 In117 2.331 . S
O126 C122 1.260 . S
C127 O118 1.240 . S
C127 O119 1.252 . S
O128 In117 2.287 1_556 S
O128 C121 1.240 . S
O129 In117 2.323 1_556 S
O129 C121 1.252 . S
In130 O131 2.291 1_554 S
In130 O132 2.331 . S
In130 O136 2.259 1_554 S
In130 O137 2.322 1_554 S
In130 O138 2.273 . S
In130 O139 2.329 . S
In130 O141 2.296 . S
In130 O142 2.322 1_554 S
O131 In130 2.291 1_556 S
O131 C140 1.240 1_556 S
O132 In130 2.331 . S
O132 C140 1.252 . S
C133 O136 1.252 . S
C133 O137 1.260 . S
C134 O141 1.240 1_556 S
C134 O142 1.252 . S
C135 O138 1.252 . S
C135 O139 1.260 . S
O136 In130 2.259 1_556 S
O136 C133 1.252 . S
O137 In130 2.322 1_556 S
O137 C133 1.260 . S
O138 In130 2.273 . S
O138 C135 1.252 . S
O139 In130 2.329 . S
O139 C135 1.260 . S
C140 O131 1.240 1_554 S
C140 O132 1.252 . S
O141 In130 2.296 . S
O141 C134 1.240 1_554 S
O142 In130 2.322 1_556 S
O142 C134 1.252 . S
In143 O144 2.296 . S
In143 O145 2.323 1_554 S
In143 O149 2.271 . S
In143 O150 2.328 . S
In143 O151 2.261 1_554 S
In143 O152 2.323 1_554 S
In143 O154 2.292 1_554 S
In143 O155 2.330 . S
O144 In143 2.296 . S
O144 C153 1.240 1_554 S
O145 In143 2.323 1_556 S
O145 C153 1.252 . S
C146 O149 1.252 . S
C146 O150 1.260 . S
C147 O154 1.240 1_554 S
C147 O155 1.252 . S
C148 O151 1.252 . S
C148 O152 1.260 . S
O149 In143 2.271 . S
O149 C146 1.252 . S
O150 In143 2.328 . S
O150 C146 1.260 . S
O151 In143 2.261 1_556 S
O151 C148 1.252 . S
O152 In143 2.323 1_556 S
O152 C148 1.260 . S
C153 O144 1.240 1_556 S
C153 O145 1.252 . S
O154 In143 2.292 1_556 S
O154 C147 1.240 1_556 S
O155 In143 2.330 . S
O155 C147 1.252 . S
H156 C164 0.950 . S
H157 C169 0.950 . S
H158 C166 0.950 . S
H159 C168 0.950 . S
H160 C170 0.950 . S
H161 C172 0.950 . S
H162 C174 0.950 . S
H163 C175 0.950 . S
C164 H156 0.950 . S
C164 C165 1.386 . S
C164 C166 1.391 . S
C165 C164 1.386 . S
C165 C169 1.393 1_655 S
C166 H158 0.950 . S
C166 C164 1.391 . S
C166 C167 1.400 . S
C167 C166 1.400 . S
C167 C168 1.399 1_655 S
C167 C173 1.491 1_655 S
C168 H159 0.950 . S
C168 C167 1.399 1_455 S
C168 C169 1.391 . S
C169 H157 0.950 . S
C169 C165 1.393 1_455 S
C169 C168 1.391 . S
C170 H160 0.950 . S
C170 C171 1.386 . S
C170 C172 1.391 . S
C171 C170 1.386 . S
C171 C175 1.393 1_455 S
C172 H161 0.950 . S
C172 C170 1.391 . S
C172 C173 1.400 . S
C173 C167 1.491 1_455 S
C173 C172 1.400 . S
C173 C174 1.398 1_455 S
C174 H162 0.950 . S
C174 C173 1.398 1_655 S
C174 C175 1.391 . S
C175 H163 0.950 . S
C175 C171 1.393 1_655 S
C175 C174 1.391 . S
H176 C184 0.950 . S
H177 C189 0.950 . S
H178 C186 0.950 . S
H179 C188 0.950 . S
H180 C190 0.950 . S
H181 C192 0.950 . S
H182 C194 0.950 . S
H183 C195 0.950 . S
C184 H176 0.950 . S
C184 C185 1.386 . S
C184 C186 1.391 . S
C185 C184 1.386 . S
C185 C189 1.393 1_565 S
C186 H178 0.950 . S
C186 C184 1.391 . S
C186 C187 1.417 . S
C187 C186 1.417 . S
C187 C188 1.384 1_565 S
C187 C193 1.488 1_565 S
C188 H179 0.950 . S
C188 C187 1.384 1_545 S
C188 C189 1.391 . S
C189 H177 0.950 . S
C189 C185 1.393 1_545 S
C189 C188 1.391 . S
C190 H180 0.950 . S
C190 C191 1.386 . S
C190 C192 1.391 . S
C191 C190 1.386 . S
C191 C195 1.393 1_545 S
C192 H181 0.950 . S
C192 C190 1.391 . S
C192 C193 1.400 . S
C193 C187 1.488 1_545 S
C193 C192 1.400 . S
C193 C194 1.398 1_545 S
C194 H182 0.950 . S
C194 C193 1.398 1_565 S
C194 C195 1.391 . S
C195 H183 0.950 . S
C195 C191 1.393 1_565 S
C195 C194 1.391 . S
H196 C204 0.950 . S
H197 C209 0.950 . S
H198 C206 0.950 . S
H199 C208 0.950 . S
H200 C210 0.950 . S
H201 C212 0.950 . S
H202 C214 0.950 . S
H203 C215 0.950 . S
C204 H196 0.950 . S
C204 C205 1.386 1_455 S
C204 C206 1.391 . S
C205 C204 1.386 1_655 S
C205 C209 1.393 . S
C206 H198 0.950 . S
C206 C204 1.391 . S
C206 C207 1.400 1_455 S
C207 C206 1.400 1_655 S
C207 C208 1.398 . S
C207 C213 1.491 1_655 S
C208 H199 0.950 . S
C208 C207 1.398 . S
C208 C209 1.391 . S
C209 H197 0.950 . S
C209 C205 1.393 . S
C209 C208 1.391 . S
C210 H200 0.950 . S
C210 C211 1.386 1_655 S
C210 C212 1.391 . S
C211 C210 1.386 1_455 S
C211 C215 1.393 . S
C212 H201 0.950 . S
C212 C210 1.391 . S
C212 C213 1.400 1_655 S
C213 C207 1.491 1_455 S
C213 C212 1.400 1_455 S
C213 C214 1.398 . S
C214 H202 0.950 . S
C214 C213 1.398 . S
C214 C215 1.391 . S
C215 H203 0.950 . S
C215 C211 1.393 . S
C215 C214 1.391 . S
H216 C224 0.950 . S
H217 C229 0.950 . S
H218 C226 0.950 . S
H219 C228 0.950 . S
H220 C230 0.950 . S
H221 C232 0.950 . S
H222 C234 0.950 . S
H223 C235 0.950 . S
C224 H216 0.950 . S
C224 C225 1.386 1_565 S
C224 C226 1.391 . S
C225 C224 1.386 1_545 S
C225 C229 1.393 . S
C226 H218 0.950 . S
C226 C224 1.391 . S
C226 C227 1.400 1_565 S
C227 C226 1.400 1_545 S
C227 C228 1.398 . S
C227 C233 1.490 . S
C228 H219 0.950 . S
C228 C227 1.398 . S
C228 C229 1.391 . S
C229 H217 0.950 . S
C229 C225 1.393 . S
C229 C228 1.391 . S
C230 H220 0.950 . S
C230 C231 1.386 1_545 S
C230 C232 1.391 . S
C231 C230 1.386 1_565 S
C231 C235 1.393 . S
C232 H221 0.950 . S
C232 C230 1.391 . S
C232 C233 1.399 . S
C233 C227 1.490 . S
C233 C232 1.399 . S
C233 C234 1.399 1_545 S
C234 H222 0.950 . S
C234 C233 1.399 1_565 S
C234 C235 1.391 . S
C235 H223 0.950 . S
C235 C231 1.393 . S
C235 C234 1.391 . S
H236 C244 0.950 . S
H237 C249 0.950 . S
H238 C246 0.950 . S
H239 C248 0.950 . S
H240 C250 0.950 . S
H241 C252 0.950 . S
H242 C254 0.950 . S
H243 C255 0.950 . S
C244 H236 0.950 . S
C244 C245 1.386 . S
C244 C246 1.391 . S
C245 C244 1.386 . S
C245 C249 1.393 1_455 S
C246 H238 0.950 . S
C246 C244 1.391 . S
C246 C247 1.400 . S
C247 C246 1.400 . S
C247 C248 1.398 1_455 S
C247 C253 1.489 1_455 S
C248 H239 0.950 . S
C248 C247 1.398 1_655 S
C248 C249 1.391 . S
C249 H237 0.950 . S
C249 C245 1.393 1_655 S
C249 C248 1.391 . S
C250 H240 0.950 . S
C250 C251 1.386 . S
C250 C252 1.391 . S
C251 C250 1.386 . S
C251 C255 1.393 1_655 S
C252 H241 0.950 . S
C252 C250 1.391 . S
C252 C253 1.418 . S
C253 C247 1.489 1_655 S
C253 C252 1.418 . S
C253 C254 1.383 1_655 S
C254 H242 0.950 . S
C254 C253 1.383 1_455 S
C254 C255 1.391 . S
C255 H243 0.950 . S
C255 C251 1.393 1_455 S
C255 C254 1.391 . S
H256 C264 0.950 . S
H257 C269 0.950 . S
H258 C266 0.950 . S
H259 C268 0.950 . S
H260 C270 0.950 . S
H261 C272 0.950 . S
H262 C274 0.950 . S
H263 C275 0.950 . S
C264 H256 0.950 . S
C264 C265 1.386 1_565 S
C264 C266 1.391 . S
C265 C264 1.386 1_545 S
C265 C269 1.393 . S
C266 H258 0.950 . S
C266 C264 1.391 . S
C266 C267 1.400 1_565 S
C267 C266 1.400 1_545 S
C267 C268 1.398 . S
C267 C273 1.488 1_545 S
C268 H259 0.950 . S
C268 C267 1.398 . S
C268 C269 1.391 . S
C269 H257 0.950 . S
C269 C265 1.393 . S
C269 C268 1.391 . S
C270 H260 0.950 . S
C270 C271 1.386 1_545 S
C270 C272 1.391 . S
C271 C270 1.386 1_565 S
C271 C275 1.393 . S
C272 H261 0.950 . S
C272 C270 1.391 . S
C272 C273 1.386 1_545 S
C273 C267 1.488 1_565 S
C273 C272 1.386 1_565 S
C273 C274 1.415 . S
C274 H262 0.950 . S
C274 C273 1.415 . S
C274 C275 1.391 . S
C275 H263 0.950 . S
C275 C271 1.393 . S
C275 C274 1.391 . S
H276 C284 0.950 . S
H277 C289 0.950 . S
H278 C286 0.950 . S
H279 C288 0.950 . S
H280 C290 0.950 . S
H281 C292 0.950 . S
H282 C294 0.950 . S
H283 C295 0.950 . S
C284 H276 0.950 . S
C284 C285 1.386 . S
C284 C286 1.391 . S
C285 C284 1.386 . S
C285 C289 1.393 1_455 S
C286 H278 0.950 . S
C286 C284 1.391 . S
C286 C287 1.400 . S
C287 C286 1.400 . S
C287 C288 1.398 1_455 S
C287 C293 1.491 1_455 S
C288 H279 0.950 . S
C288 C287 1.398 1_655 S
C288 C289 1.391 . S
C289 H277 0.950 . S
C289 C285 1.393 1_655 S
C289 C288 1.391 . S
C290 H280 0.950 . S
C290 C291 1.386 . S
C290 C292 1.391 . S
C291 C290 1.386 . S
C291 C295 1.393 1_655 S
C292 H281 0.950 . S
C292 C290 1.391 . S
C292 C293 1.401 . S
C293 C287 1.491 1_655 S
C293 C292 1.401 . S
C293 C294 1.398 1_655 S
C294 H282 0.950 . S
C294 C293 1.398 1_455 S
C294 C295 1.391 . S
C295 H283 0.950 . S
C295 C291 1.393 1_455 S
C295 C294 1.391 . S
H296 C304 0.950 . S
H297 C309 0.950 . S
H298 C306 0.950 . S
H299 C308 0.950 . S
H300 C310 0.950 . S
H301 C312 0.950 . S
H302 C314 0.950 . S
H303 C315 0.950 . S
C304 H296 0.950 . S
C304 C305 1.386 . S
C304 C306 1.391 . S
C305 C304 1.386 . S
C305 C309 1.393 1_565 S
C306 H298 0.950 . S
C306 C304 1.391 . S
C306 C307 1.399 1_565 S
C307 C306 1.399 1_545 S
C307 C308 1.399 . S
C307 C313 1.491 . S
C308 H299 0.950 . S
C308 C307 1.399 . S
C308 C309 1.391 . S
C309 H297 0.950 . S
C309 C305 1.393 1_545 S
C309 C308 1.391 . S
C310 H300 0.950 . S
C310 C311 1.386 . S
C310 C312 1.391 . S
C311 C310 1.386 . S
C311 C315 1.393 1_545 S
C312 H301 0.950 . S
C312 C310 1.391 . S
C312 C313 1.400 . S
C313 C307 1.491 . S
C313 C312 1.400 . S
C313 C314 1.398 1_545 S
C314 H302 0.950 . S
C314 C313 1.398 1_565 S
C314 C315 1.391 . S
C315 H303 0.950 . S
C315 C311 1.393 1_565 S
C315 C314 1.391 . S
H316 C324 0.950 . S
H317 C329 0.950 . S
H318 C326 0.950 . S
H319 C328 0.950 . S
H320 C330 0.950 . S
H321 C332 0.950 . S
H322 C334 0.950 . S
H323 C335 0.950 . S
C324 H316 0.950 . S
C324 C325 1.386 . S
C324 C326 1.391 . S
C325 C324 1.386 . S
C325 C329 1.393 1_554 S
C326 H318 0.950 . S
C326 C324 1.391 . S
C326 C327 1.400 . S
C327 C326 1.400 . S
C327 C328 1.398 1_554 S
C327 C333 1.491 1_554 S
C328 H319 0.950 . S
C328 C327 1.398 1_556 S
C328 C329 1.391 . S
C329 H317 0.950 . S
C329 C325 1.393 1_556 S
C329 C328 1.391 . S
C330 H320 0.950 . S
C330 C331 1.386 . S
C330 C332 1.391 . S
C331 C330 1.386 . S
C331 C335 1.393 1_556 S
C332 H321 0.950 . S
C332 C330 1.391 . S
C332 C333 1.400 . S
C333 C327 1.491 1_556 S
C333 C332 1.400 . S
C333 C334 1.398 1_556 S
C334 H322 0.950 . S
C334 C333 1.398 1_554 S
C334 C335 1.391 . S
C335 H323 0.950 . S
C335 C331 1.393 1_554 S
C335 C334 1.391 . S
H336 C344 0.950 . S
H337 C349 0.950 . S
H338 C346 0.950 . S
H339 C348 0.950 1_556 S
H340 C350 0.950 . S
H341 C352 0.950 . S
H342 C354 0.950 1_554 S
H343 C355 0.950 . S
C344 H336 0.950 . S
C344 C345 1.386 . S
C344 C346 1.391 . S
C345 C344 1.386 . S
C345 C349 1.393 . S
C346 H338 0.950 . S
C346 C344 1.391 . S
C346 C347 1.400 . S
C347 C346 1.400 . S
C347 C348 1.398 . S
C347 C353 1.491 1_554 S
C348 H339 0.950 1_554 S
C348 C347 1.398 . S
C348 C349 1.391 . S
C349 H337 0.950 . S
C349 C345 1.393 . S
C349 C348 1.391 . S
C350 H340 0.950 . S
C350 C351 1.386 . S
C350 C352 1.391 . S
C351 C350 1.386 . S
C351 C355 1.393 . S
C352 H341 0.950 . S
C352 C350 1.391 . S
C352 C353 1.400 . S
C353 C347 1.491 1_556 S
C353 C352 1.400 . S
C353 C354 1.398 . S
C354 H342 0.950 1_556 S
C354 C353 1.398 . S
C354 C355 1.391 . S
C355 H343 0.950 . S
C355 C351 1.393 . S
C355 C354 1.391 . S
H356 C364 0.950 . S
H357 C369 0.950 . S
H358 C366 0.950 . S
H359 C368 0.950 . S
H360 C370 0.950 . S
H361 C372 0.950 . S
H362 C374 0.950 . S
H363 C375 0.950 . S
C364 H356 0.950 . S
C364 C365 1.386 . S
C364 C366 1.391 . S
C365 C364 1.386 . S
C365 C369 1.393 1_556 S
C366 H358 0.950 . S
C366 C364 1.391 . S
C366 C367 1.400 . S
C367 C366 1.400 . S
C367 C368 1.398 1_556 S
C367 C373 1.491 1_556 S
C368 H359 0.950 . S
C368 C367 1.398 1_554 S
C368 C369 1.391 . S
C369 H357 0.950 . S
C369 C365 1.393 1_554 S
C369 C368 1.391 . S
C370 H360 0.950 . S
C370 C371 1.386 . S
C370 C372 1.391 . S
C371 C370 1.386 . S
C371 C375 1.393 1_554 S
C372 H361 0.950 . S
C372 C370 1.391 . S
C372 C373 1.400 . S
C373 C367 1.491 1_554 S
C373 C372 1.400 . S
C373 C374 1.398 1_554 S
C374 H362 0.950 . S
C374 C373 1.398 1_556 S
C374 C375 1.391 . S
C375 H363 0.950 . S
C375 C371 1.393 1_556 S
C375 C374 1.391 . S
H376 C384 0.950 . S
H377 C389 0.950 . S
H378 C386 0.950 . S
H379 C388 0.950 . S
H380 C390 0.950 . S
H381 C392 0.950 . S
H382 C394 0.950 . S
H383 C395 0.950 . S
C384 H376 0.950 . S
C384 C385 1.386 1_554 S
C384 C386 1.391 . S
C385 C384 1.386 1_556 S
C385 C389 1.393 . S
C386 H378 0.950 . S
C386 C384 1.391 . S
C386 C387 1.400 1_554 S
C387 C386 1.400 1_556 S
C387 C388 1.398 . S
C387 C393 1.491 1_556 S
C388 H379 0.950 . S
C388 C387 1.398 . S
C388 C389 1.391 . S
C389 H377 0.950 . S
C389 C385 1.393 . S
C389 C388 1.391 . S
C390 H380 0.950 . S
C390 C391 1.386 1_556 S
C390 C392 1.391 . S
C391 C390 1.386 1_554 S
C391 C395 1.393 . S
C392 H381 0.950 . S
C392 C390 1.391 . S
C392 C393 1.400 1_556 S
C393 C387 1.491 1_554 S
C393 C392 1.400 1_554 S
C393 C394 1.398 . S
C394 H382 0.950 . S
C394 C393 1.398 . S
C394 C395 1.391 . S
C395 H383 0.950 . S
C395 C391 1.393 . S
C395 C394 1.391 . S
H396 C404 0.950 . S
H397 C409 0.950 . S
H398 C406 0.950 . S
H399 C408 0.950 . S
H400 C410 0.950 . S
H401 C412 0.950 . S
H402 C414 0.950 . S
H403 C415 0.950 . S
C404 H396 0.950 . S
C404 C405 1.386 . S
C404 C406 1.391 . S
C405 C404 1.386 . S
C405 C409 1.393 . S
C406 H398 0.950 . S
C406 C404 1.391 . S
C406 C407 1.400 . S
C407 C406 1.400 . S
C407 C408 1.398 . S
C407 C413 1.491 . S
C408 H399 0.950 . S
C408 C407 1.398 . S
C408 C409 1.391 . S
C409 H397 0.950 . S
C409 C405 1.393 . S
C409 C408 1.391 . S
C410 H400 0.950 . S
C410 C411 1.386 . S
C410 C412 1.391 . S
C411 C410 1.386 . S
C411 C415 1.393 . S
C412 H401 0.950 . S
C412 C410 1.391 . S
C412 C413 1.400 . S
C413 C407 1.491 . S
C413 C412 1.400 . S
C413 C414 1.398 . S
C414 H402 0.950 . S
C414 C413 1.398 . S
C414 C415 1.391 . S
C415 H403 0.950 . S
C415 C411 1.393 . S
C415 C414 1.391 . S
H416 C424 0.950 . S
H417 C429 0.950 . S
H418 C426 0.950 . S
H419 C428 0.950 . S
H420 C430 0.950 . S
H421 C432 0.950 . S
H422 C434 0.950 . S
H423 C435 0.950 . S
C424 H416 0.950 . S
C424 C425 1.386 . S
C424 C426 1.391 . S
C425 C424 1.386 . S
C425 C429 1.393 . S
C426 H418 0.950 . S
C426 C424 1.391 . S
C426 C427 1.400 . S
C427 C426 1.400 . S
C427 C428 1.398 . S
C427 C433 1.491 . S
C428 H419 0.950 . S
C428 C427 1.398 . S
C428 C429 1.391 . S
C429 H417 0.950 . S
C429 C425 1.393 . S
C429 C428 1.391 . S
C430 H420 0.950 . S
C430 C431 1.386 . S
C430 C432 1.391 . S
C431 C430 1.386 . S
C431 C435 1.393 . S
C432 H421 0.950 . S
C432 C430 1.391 . S
C432 C433 1.400 . S
C433 C427 1.491 . S
C433 C432 1.400 . S
C433 C434 1.398 . S
C434 H422 0.950 . S
C434 C433 1.398 . S
C434 C435 1.391 . S
C435 H423 0.950 . S
C435 C431 1.393 . S
C435 C434 1.391 . S
H436 C444 0.950 . S
H437 C449 0.950 . S
H438 C446 0.950 . S
H439 C448 0.950 . S
H440 C450 0.950 . S
H441 C452 0.950 . S
H442 C454 0.950 . S
H443 C455 0.950 . S
C444 H436 0.950 . S
C444 C445 1.386 . S
C444 C446 1.391 . S
C445 C444 1.386 . S
C445 C449 1.393 . S
C446 H438 0.950 . S
C446 C444 1.391 . S
C446 C447 1.400 . S
C447 C446 1.400 . S
C447 C448 1.398 . S
C447 C453 1.491 . S
C448 H439 0.950 . S
C448 C447 1.398 . S
C448 C449 1.391 . S
C449 H437 0.950 . S
C449 C445 1.393 . S
C449 C448 1.391 . S
C450 H440 0.950 . S
C450 C451 1.386 . S
C450 C452 1.391 . S
C451 C450 1.386 . S
C451 C455 1.393 . S
C452 H441 0.950 . S
C452 C450 1.391 . S
C452 C453 1.400 . S
C453 C447 1.491 . S
C453 C452 1.400 . S
C453 C454 1.398 . S
C454 H442 0.950 . S
C454 C453 1.398 . S
C454 C455 1.391 . S
C455 H443 0.950 . S
C455 C451 1.393 . S
C455 C454 1.391 . S
H456 C464 0.950 . S
H457 C469 0.950 . S
H458 C466 0.950 . S
H459 C468 0.950 . S
H460 C470 0.950 . S
H461 C472 0.950 . S
H462 C474 0.950 . S
H463 C475 0.950 . S
C464 H456 0.950 . S
C464 C465 1.386 . S
C464 C466 1.391 . S
C465 C464 1.386 . S
C465 C469 1.393 . S
C466 H458 0.950 . S
C466 C464 1.391 . S
C466 C467 1.400 . S
C467 C466 1.400 . S
C467 C468 1.398 . S
C467 C473 1.491 . S
C468 H459 0.950 . S
C468 C467 1.398 . S
C468 C469 1.391 . S
C469 H457 0.950 . S
C469 C465 1.393 . S
C469 C468 1.391 . S
C470 H460 0.950 . S
C470 C471 1.386 . S
C470 C472 1.391 . S
C471 C470 1.386 . S
C471 C475 1.393 . S
C472 H461 0.950 . S
C472 C470 1.391 . S
C472 C473 1.400 . S
C473 C467 1.491 . S
C473 C472 1.400 . S
C473 C474 1.398 . S
C474 H462 0.950 . S
C474 C473 1.398 . S
C474 C475 1.391 . S
C475 H463 0.950 . S
C475 C471 1.393 . S
C475 C474 1.391 . S
H476 C484 0.950 . S
H477 C489 0.950 . S
H478 C486 0.950 . S
H479 C488 0.950 . S
H480 C490 0.950 . S
H481 C492 0.950 . S
H482 C494 0.950 . S
H483 C495 0.950 . S
C484 H476 0.950 . S
C484 C485 1.386 . S
C484 C486 1.391 . S
C485 C484 1.386 . S
C485 C489 1.393 . S
C486 H478 0.950 . S
C486 C484 1.391 . S
C486 C487 1.400 . S
C487 C486 1.400 . S
C487 C488 1.398 . S
C487 C493 1.491 . S
C488 H479 0.950 . S
C488 C487 1.398 . S
C488 C489 1.391 . S
C489 H477 0.950 . S
C489 C485 1.393 . S
C489 C488 1.391 . S
C490 H480 0.950 . S
C490 C491 1.386 . S
C490 C492 1.391 . S
C491 C490 1.386 . S
C491 C495 1.393 . S
C492 H481 0.950 . S
C492 C490 1.391 . S
C492 C493 1.400 . S
C493 C487 1.491 . S
C493 C492 1.400 . S
C493 C494 1.398 . S
C494 H482 0.950 . S
C494 C493 1.398 . S
C494 C495 1.391 . S
C495 H483 0.950 . S
C495 C491 1.393 . S
C495 C494 1.391 . S
H496 C504 0.950 . S
H497 C509 0.950 . S
H498 C506 0.950 . S
H499 C508 0.950 . S
H500 C510 0.950 . S
H501 C512 0.950 . S
H502 C514 0.950 . S
H503 C515 0.950 . S
C504 H496 0.950 . S
C504 C505 1.386 . S
C504 C506 1.391 . S
C505 C504 1.386 . S
C505 C509 1.393 . S
C506 H498 0.950 . S
C506 C504 1.391 . S
C506 C507 1.400 . S
C507 C506 1.400 . S
C507 C508 1.398 . S
C507 C513 1.491 . S
C508 H499 0.950 . S
C508 C507 1.398 . S
C508 C509 1.391 . S
C509 H497 0.950 . S
C509 C505 1.393 . S
C509 C508 1.391 . S
C510 H500 0.950 . S
C510 C511 1.386 . S
C510 C512 1.391 . S
C511 C510 1.386 . S
C511 C515 1.393 . S
C512 H501 0.950 . S
C512 C510 1.391 . S
C512 C513 1.400 . S
C513 C507 1.491 . S
C513 C512 1.400 . S
C513 C514 1.398 . S
C514 H502 0.950 . S
C514 C513 1.398 . S
C514 C515 1.391 . S
C515 H503 0.950 . S
C515 C511 1.393 . S
C515 C514 1.391 . S
H516 C524 0.950 . S
H517 C529 0.950 . S
H518 C526 0.950 . S
H519 C528 0.950 . S
H520 C530 0.950 . S
H521 C532 0.950 . S
H522 C534 0.950 . S
H523 C535 0.950 . S
C524 H516 0.950 . S
C524 C525 1.386 . S
C524 C526 1.391 . S
C525 C524 1.386 . S
C525 C529 1.393 . S
C526 H518 0.950 . S
C526 C524 1.391 . S
C526 C527 1.400 . S
C527 C526 1.400 . S
C527 C528 1.398 . S
C527 C533 1.491 . S
C528 H519 0.950 . S
C528 C527 1.398 . S
C528 C529 1.391 . S
C529 H517 0.950 . S
C529 C525 1.393 . S
C529 C528 1.391 . S
C530 H520 0.950 . S
C530 C531 1.386 . S
C530 C532 1.391 . S
C531 C530 1.386 . S
C531 C535 1.393 . S
C532 H521 0.950 . S
C532 C530 1.391 . S
C532 C533 1.400 . S
C533 C527 1.491 . S
C533 C532 1.400 . S
C533 C534 1.398 . S
C534 H522 0.950 . S
C534 C533 1.398 . S
C534 C535 1.391 . S
C535 H523 0.950 . S
C535 C531 1.393 . S
C535 C534 1.391 . S
H536 C544 0.950 . S
H537 C549 0.950 . S
H538 C546 0.950 . S
H539 C548 0.950 . S
H540 C550 0.950 . S
H541 C552 0.950 . S
H542 C554 0.950 . S
H543 C555 0.950 . S
C544 H536 0.950 . S
C544 C545 1.386 . S
C544 C546 1.391 . S
C545 C544 1.386 . S
C545 C549 1.393 . S
C546 H538 0.950 . S
C546 C544 1.391 . S
C546 C547 1.400 . S
C547 C546 1.400 . S
C547 C548 1.398 . S
C547 C553 1.491 . S
C548 H539 0.950 . S
C548 C547 1.398 . S
C548 C549 1.391 . S
C549 H537 0.950 . S
C549 C545 1.393 . S
C549 C548 1.391 . S
C550 H540 0.950 . S
C550 C551 1.386 . S
C550 C552 1.391 . S
C551 C550 1.386 . S
C551 C555 1.393 . S
C552 H541 0.950 . S
C552 C550 1.391 . S
C552 C553 1.400 . S
C553 C547 1.491 . S
C553 C552 1.400 . S
C553 C554 1.398 . S
C554 H542 0.950 . S
C554 C553 1.398 . S
C554 C555 1.391 . S
C555 H543 0.950 . S
C555 C551 1.393 . S
C555 C554 1.391 . S
H556 C564 0.950 . S
H557 C569 0.950 . S
H558 C566 0.950 . S
H559 C568 0.950 . S
H560 C570 0.950 . S
H561 C572 0.950 . S
H562 C574 0.950 . S
H563 C575 0.950 . S
C564 H556 0.950 . S
C564 C565 1.386 . S
C564 C566 1.391 . S
C565 C564 1.386 . S
C565 C569 1.393 . S
C566 H558 0.950 . S
C566 C564 1.391 . S
C566 C567 1.400 . S
C567 C566 1.400 . S
C567 C568 1.398 . S
C567 C573 1.491 . S
C568 H559 0.950 . S
C568 C567 1.398 . S
C568 C569 1.391 . S
C569 H557 0.950 . S
C569 C565 1.393 . S
C569 C568 1.391 . S
C570 H560 0.950 . S
C570 C571 1.386 . S
C570 C572 1.391 . S
C571 C570 1.386 . S
C571 C575 1.393 . S
C572 H561 0.950 . S
C572 C570 1.391 . S
C572 C573 1.400 . S
C573 C567 1.491 . S
C573 C572 1.400 . S
C573 C574 1.398 . S
C574 H562 0.950 . S
C574 C573 1.398 . S
C574 C575 1.391 . S
C575 H563 0.950 . S
C575 C571 1.393 . S
C575 C574 1.391 . S
H576 C584 0.950 . S
H577 C589 0.950 . S
H578 C586 0.950 . S
H579 C588 0.950 . S
H580 C590 0.950 . S
H581 C592 0.950 . S
H582 C594 0.950 . S
H583 C595 0.950 . S
C584 H576 0.950 . S
C584 C585 1.386 . S
C584 C586 1.391 . S
C585 C584 1.386 . S
C585 C589 1.393 . S
C586 H578 0.950 . S
C586 C584 1.391 . S
C586 C587 1.400 . S
C587 C586 1.400 . S
C587 C588 1.398 . S
C587 C593 1.491 . S
C588 H579 0.950 . S
C588 C587 1.398 . S
C588 C589 1.391 . S
C589 H577 0.950 . S
C589 C585 1.393 . S
C589 C588 1.391 . S
C590 H580 0.950 . S
C590 C591 1.386 . S
C590 C592 1.391 . S
C591 C590 1.386 . S
C591 C595 1.393 . S
C592 H581 0.950 . S
C592 C590 1.391 . S
C592 C593 1.400 . S
C593 C587 1.491 . S
C593 C592 1.400 . S
C593 C594 1.398 . S
C594 H582 0.950 . S
C594 C593 1.398 . S
C594 C595 1.391 . S
C595 H583 0.950 . S
C595 C591 1.393 . S
C595 C594 1.391 . S
H596 C604 0.950 . S
H597 C609 0.950 . S
H598 C606 0.950 . S
H599 C608 0.950 . S
H600 C610 0.950 . S
H601 C612 0.950 . S
H602 C614 0.950 . S
H603 C615 0.950 . S
C604 H596 0.950 . S
C604 C605 1.386 . S
C604 C606 1.391 . S
C605 C604 1.386 . S
C605 C609 1.393 . S
C606 H598 0.950 . S
C606 C604 1.391 . S
C606 C607 1.400 . S
C607 C606 1.400 . S
C607 C608 1.398 . S
C607 C613 1.491 . S
C608 H599 0.950 . S
C608 C607 1.398 . S
C608 C609 1.391 . S
C609 H597 0.950 . S
C609 C605 1.393 . S
C609 C608 1.391 . S
C610 H600 0.950 . S
C610 C611 1.386 . S
C610 C612 1.391 . S
C611 C610 1.386 . S
C611 C615 1.393 . S
C612 H601 0.950 . S
C612 C610 1.391 . S
C612 C613 1.400 . S
C613 C607 1.491 . S
C613 C612 1.400 . S
C613 C614 1.398 . S
C614 H602 0.950 . S
C614 C613 1.398 . S
C614 C615 1.391 . S
C615 H603 0.950 . S
C615 C611 1.393 . S
C615 C614 1.391 . S
H616 C624 0.950 . S
H617 C629 0.950 . S
H618 C626 0.950 . S
H619 C628 0.950 . S
H620 C630 0.950 . S
H621 C632 0.950 . S
H622 C634 0.950 . S
H623 C635 0.950 . S
C624 H616 0.950 . S
C624 C625 1.386 . S
C624 C626 1.391 . S
C625 C624 1.386 . S
C625 C629 1.393 . S
C626 H618 0.950 . S
C626 C624 1.391 . S
C626 C627 1.400 . S
C627 C626 1.400 . S
C627 C628 1.398 . S
C627 C633 1.491 . S
C628 H619 0.950 . S
C628 C627 1.398 . S
C628 C629 1.391 . S
C629 H617 0.950 . S
C629 C625 1.393 . S
C629 C628 1.391 . S
C630 H620 0.950 . S
C630 C631 1.386 . S
C630 C632 1.391 . S
C631 C630 1.386 . S
C631 C635 1.393 . S
C632 H621 0.950 . S
C632 C630 1.391 . S
C632 C633 1.400 . S
C633 C627 1.491 . S
C633 C632 1.400 . S
C633 C634 1.398 . S
C634 H622 0.950 . S
C634 C633 1.398 . S
C634 C635 1.391 . S
C635 H623 0.950 . S
C635 C631 1.393 . S
C635 C634 1.391 . S
C165 C5 1.586 . S
C171 C68 1.586 . S
C185 C17 1.574 . S
C191 C62 1.576 . S
C205 C70 1.585 . S
C211 C30 1.581 . S
C225 C42 1.585 . S
C231 C56 1.580 . S
C245 C96 1.579 . S
C251 C36 1.575 . S
C265 C82 1.588 . S
C271 C44 1.591 . S
C285 C3 1.586 . S
C291 C94 1.586 . S
C305 C88 1.568 . S
C311 C23 1.569 . S
C325 C122 1.599 . S
C331 C107 1.599 . S
C345 C109 1.590 . S
C351 C153 1.587 . S
C365 C120 1.586 . S
C371 C140 1.583 . S
C385 C134 1.574 . S
C391 C147 1.573 . S
C405 C148 1.597 . S
C411 C83 1.597 . S
C425 C108 1.577 . S
C431 C101 1.578 . S
C445 C81 1.580 . S
C451 C121 1.577 . S
C465 C95 1.580 . S
C471 C133 1.585 . S
C485 C57 1.585 . S
C491 C127 1.582 . S
C505 C75 1.579 . S
C511 C135 1.584 . S
C525 C146 1.595 . S
C531 C55 1.595 . S
C545 C114 1.575 . S
C551 C69 1.576 . S
C565 C16 1.600 . S
C571 C31 1.600 . S
C585 C10 1.580 . S
C591 C18 1.585 . S
C605 C29 1.588 . S
C611 C49 1.585 . S
C625 C4 1.565 . S
C631 C43 1.564 . S
