# Generated by pormake.
# Topology uoi, (4)-cn, num edge types: 1
# Building blocks:
#     Node 0, Type 0, BuildingBlock: AZAVOO_clean_sbu_0, # of connection points: 4
#     Node 1, Type 0, BuildingBlock: AZAVOO_clean_sbu_0, # of connection points: 4
#     Node 2, Type 0, BuildingBlock: AZAVOO_clean_sbu_0, # of connection points: 4
#     Node 3, Type 0, BuildingBlock: AZAVOO_clean_sbu_0, # of connection points: 4
#     Node 4, Type 0, BuildingBlock: AZAVOO_clean_sbu_0, # of connection points: 4
#     Node 5, Type 0, BuildingBlock: AZAVOO_clean_sbu_0, # of connection points: 4
#     Node 6, Type 0, BuildingBlock: AZAVOO_clean_sbu_0, # of connection points: 4
#     Node 7, Type 0, BuildingBlock: AZAVOO_clean_sbu_0, # of connection points: 4
#     Node 8, Type 0, BuildingBlock: AZAVOO_clean_sbu_0, # of connection points: 4
#     Node 9, Type 0, BuildingBlock: AZAVOO_clean_sbu_0, # of connection points: 4
#     Node 10, Type 0, BuildingBlock: AZAVOO_clean_sbu_0, # of connection points: 4
#     Node 11, Type 0, BuildingBlock: AZAVOO_clean_sbu_0, # of connection points: 4
#     Node 12, Type 0, BuildingBlock: AZAVOO_clean_sbu_0, # of connection points: 4
#     Node 13, Type 0, BuildingBlock: AZAVOO_clean_sbu_0, # of connection points: 4
#     Node 14, Type 0, BuildingBlock: AZAVOO_clean_sbu_0, # of connection points: 4
#     Node 15, Type 0, BuildingBlock: AZAVOO_clean_sbu_0, # of connection points: 4
#     Node 16, Type 0, BuildingBlock: AZAVOO_clean_sbu_0, # of connection points: 4
#     Node 17, Type 0, BuildingBlock: AZAVOO_clean_sbu_0, # of connection points: 4
#     Node 18, Type 0, BuildingBlock: AZAVOO_clean_sbu_0, # of connection points: 4
#     Node 19, Type 0, BuildingBlock: AZAVOO_clean_sbu_0, # of connection points: 4
#     Node 20, Type 0, BuildingBlock: AZAVOO_clean_sbu_0, # of connection points: 4
#     Node 21, Type 0, BuildingBlock: AZAVOO_clean_sbu_0, # of connection points: 4
#     Node 22, Type 0, BuildingBlock: AZAVOO_clean_sbu_0, # of connection points: 4
#     Node 23, Type 0, BuildingBlock: AZAVOO_clean_sbu_0, # of connection points: 4
#     Node 24, Type 0, BuildingBlock: AZAVOO_clean_sbu_0, # of connection points: 4
#     Node 25, Type 0, BuildingBlock: AZAVOO_clean_sbu_0, # of connection points: 4
#     Node 26, Type 0, BuildingBlock: AZAVOO_clean_sbu_0, # of connection points: 4
#     Node 27, Type 0, BuildingBlock: AZAVOO_clean_sbu_0, # of connection points: 4
#     Node 28, Type 0, BuildingBlock: AZAVOO_clean_sbu_0, # of connection points: 4
#     Node 29, Type 0, BuildingBlock: AZAVOO_clean_sbu_0, # of connection points: 4
#     Node 30, Type 0, BuildingBlock: AZAVOO_clean_sbu_0, # of connection points: 4
#     Node 31, Type 0, BuildingBlock: AZAVOO_clean_sbu_0, # of connection points: 4
#     Edge 32, Type (0, 0), BuildingBlock: UVAHIK_clean_linker_0, # of connection points: 2
#     Edge 33, Type (0, 0), BuildingBlock: UVAHIK_clean_linker_0, # of connection points: 2
#     Edge 34, Type (0, 0), BuildingBlock: UVAHIK_clean_linker_0, # of connection points: 2
#     Edge 35, Type (0, 0), BuildingBlock: UVAHIK_clean_linker_0, # of connection points: 2
#     Edge 36, Type (0, 0), BuildingBlock: UVAHIK_clean_linker_0, # of connection points: 2
#     Edge 37, Type (0, 0), BuildingBlock: UVAHIK_clean_linker_0, # of connection points: 2
#     Edge 38, Type (0, 0), BuildingBlock: UVAHIK_clean_linker_0, # of connection points: 2
#     Edge 39, Type (0, 0), BuildingBlock: UVAHIK_clean_linker_0, # of connection points: 2
#     Edge 40, Type (0, 0), BuildingBlock: UVAHIK_clean_linker_0, # of connection points: 2
#     Edge 41, Type (0, 0), BuildingBlock: UVAHIK_clean_linker_0, # of connection points: 2
#     Edge 42, Type (0, 0), BuildingBlock: UVAHIK_clean_linker_0, # of connection points: 2
#     Edge 43, Type (0, 0), BuildingBlock: UVAHIK_clean_linker_0, # of connection points: 2
#     Edge 44, Type (0, 0), BuildingBlock: UVAHIK_clean_linker_0, # of connection points: 2
#     Edge 45, Type (0, 0), BuildingBlock: UVAHIK_clean_linker_0, # of connection points: 2
#     Edge 46, Type (0, 0), BuildingBlock: UVAHIK_clean_linker_0, # of connection points: 2
#     Edge 47, Type (0, 0), BuildingBlock: UVAHIK_clean_linker_0, # of connection points: 2
#     Edge 48, Type (0, 0), BuildingBlock: UVAHIK_clean_linker_0, # of connection points: 2
#     Edge 49, Type (0, 0), BuildingBlock: UVAHIK_clean_linker_0, # of connection points: 2
#     Edge 50, Type (0, 0), BuildingBlock: UVAHIK_clean_linker_0, # of connection points: 2
#     Edge 51, Type (0, 0), BuildingBlock: UVAHIK_clean_linker_0, # of connection points: 2
#     Edge 52, Type (0, 0), BuildingBlock: UVAHIK_clean_linker_0, # of connection points: 2
#     Edge 53, Type (0, 0), BuildingBlock: UVAHIK_clean_linker_0, # of connection points: 2
#     Edge 54, Type (0, 0), BuildingBlock: UVAHIK_clean_linker_0, # of connection points: 2
#     Edge 55, Type (0, 0), BuildingBlock: UVAHIK_clean_linker_0, # of connection points: 2
#     Edge 56, Type (0, 0), BuildingBlock: UVAHIK_clean_linker_0, # of connection points: 2
#     Edge 57, Type (0, 0), BuildingBlock: UVAHIK_clean_linker_0, # of connection points: 2
#     Edge 58, Type (0, 0), BuildingBlock: UVAHIK_clean_linker_0, # of connection points: 2
#     Edge 59, Type (0, 0), BuildingBlock: UVAHIK_clean_linker_0, # of connection points: 2
#     Edge 60, Type (0, 0), BuildingBlock: UVAHIK_clean_linker_0, # of connection points: 2
#     Edge 61, Type (0, 0), BuildingBlock: UVAHIK_clean_linker_0, # of connection points: 2
#     Edge 62, Type (0, 0), BuildingBlock: UVAHIK_clean_linker_0, # of connection points: 2
#     Edge 63, Type (0, 0), BuildingBlock: UVAHIK_clean_linker_0, # of connection points: 2
#     Edge 64, Type (0, 0), BuildingBlock: UVAHIK_clean_linker_0, # of connection points: 2
#     Edge 65, Type (0, 0), BuildingBlock: UVAHIK_clean_linker_0, # of connection points: 2
#     Edge 66, Type (0, 0), BuildingBlock: UVAHIK_clean_linker_0, # of connection points: 2
#     Edge 67, Type (0, 0), BuildingBlock: UVAHIK_clean_linker_0, # of connection points: 2
#     Edge 68, Type (0, 0), BuildingBlock: UVAHIK_clean_linker_0, # of connection points: 2
#     Edge 69, Type (0, 0), BuildingBlock: UVAHIK_clean_linker_0, # of connection points: 2
#     Edge 70, Type (0, 0), BuildingBlock: UVAHIK_clean_linker_0, # of connection points: 2
#     Edge 71, Type (0, 0), BuildingBlock: UVAHIK_clean_linker_0, # of connection points: 2
#     Edge 72, Type (0, 0), BuildingBlock: UVAHIK_clean_linker_0, # of connection points: 2
#     Edge 73, Type (0, 0), BuildingBlock: UVAHIK_clean_linker_0, # of connection points: 2
#     Edge 74, Type (0, 0), BuildingBlock: UVAHIK_clean_linker_0, # of connection points: 2
#     Edge 75, Type (0, 0), BuildingBlock: UVAHIK_clean_linker_0, # of connection points: 2
#     Edge 76, Type (0, 0), BuildingBlock: UVAHIK_clean_linker_0, # of connection points: 2
#     Edge 77, Type (0, 0), BuildingBlock: UVAHIK_clean_linker_0, # of connection points: 2
#     Edge 78, Type (0, 0), BuildingBlock: UVAHIK_clean_linker_0, # of connection points: 2
#     Edge 79, Type (0, 0), BuildingBlock: UVAHIK_clean_linker_0, # of connection points: 2
#     Edge 80, Type (0, 0), BuildingBlock: UVAHIK_clean_linker_0, # of connection points: 2
#     Edge 81, Type (0, 0), BuildingBlock: UVAHIK_clean_linker_0, # of connection points: 2
#     Edge 82, Type (0, 0), BuildingBlock: UVAHIK_clean_linker_0, # of connection points: 2
#     Edge 83, Type (0, 0), BuildingBlock: UVAHIK_clean_linker_0, # of connection points: 2
#     Edge 84, Type (0, 0), BuildingBlock: UVAHIK_clean_linker_0, # of connection points: 2
#     Edge 85, Type (0, 0), BuildingBlock: UVAHIK_clean_linker_0, # of connection points: 2
#     Edge 86, Type (0, 0), BuildingBlock: UVAHIK_clean_linker_0, # of connection points: 2
#     Edge 87, Type (0, 0), BuildingBlock: UVAHIK_clean_linker_0, # of connection points: 2
#     Edge 88, Type (0, 0), BuildingBlock: UVAHIK_clean_linker_0, # of connection points: 2
#     Edge 89, Type (0, 0), BuildingBlock: UVAHIK_clean_linker_0, # of connection points: 2
#     Edge 90, Type (0, 0), BuildingBlock: UVAHIK_clean_linker_0, # of connection points: 2
#     Edge 91, Type (0, 0), BuildingBlock: UVAHIK_clean_linker_0, # of connection points: 2
#     Edge 92, Type (0, 0), BuildingBlock: UVAHIK_clean_linker_0, # of connection points: 2
#     Edge 93, Type (0, 0), BuildingBlock: UVAHIK_clean_linker_0, # of connection points: 2
#     Edge 94, Type (0, 0), BuildingBlock: UVAHIK_clean_linker_0, # of connection points: 2
#     Edge 95, Type (0, 0), BuildingBlock: UVAHIK_clean_linker_0, # of connection points: 2
# Relax obj value: 0.358
# Max RMSD: 0.233
# Mean RMSD: 0.231
data_MOF--net-uoi--node1-AZAVOO_clean_sbu_0--edge1-UVAHIK_clean_linker_0
_symmetry_space_group_name_H-M    P1
_symmetry_Int_Tables_number       1
_symmetry_cell_setting            triclinic
loop_
_symmetry_equiv_pos_as_xyz
'x, y, z'
_cell_length_a     106.78183
_cell_length_b     106.70689
_cell_length_c     22.935971
_cell_angle_alpha  90.052749
_cell_angle_beta   89.988596
_cell_angle_gamma 90.006452
loop_
_atom_site_label
_atom_site_type_symbol
_atom_site_fract_x
_atom_site_fract_y
_atom_site_fract_z
_atom_type_partial_charge
Mg0 Mg 0.21183 0.1726 0.08581 0.0
O1 O 0.20506 0.18947 0.13776 0.0
O2 O 0.19003 0.19968 0.09013 0.0
Mg3 Mg 0.18621 0.18813 0.00764 0.0
C4 C 0.19741 0.19857 0.13359 0.0
C5 C 0.23001 0.17408 0.19079 0.0
O6 O 0.23288 0.18429 0.16174 0.0
O7 O 0.19451 0.1611 0.11038 0.0
O8 O 0.17953 0.17118 0.06103 0.0
O9 O 0.22476 0.18573 0.03839 0.0
O10 O 0.20566 0.18103 0.00863 0.0
C11 C 0.18309 0.16237 0.09487 0.0
C12 C 0.21561 0.1877 0.00253 0.0
O13 O 0.22201 0.16657 0.16914 0.0
Mg14 Mg 0.07557 0.95089 0.36668 0.0
O15 O 0.05913 0.944 0.42106 0.0
O16 O 0.04866 0.92903 0.37415 0.0
Mg17 Mg 0.05962 0.92536 0.2897 0.0
C18 C 0.05001 0.93634 0.41777 0.0
C19 C 0.08213 0.97253 0.45756 0.0
O20 O 0.07891 0.97993 0.41437 0.0
O21 O 0.08739 0.9336 0.38775 0.0
O22 O 0.07715 0.91864 0.3388 0.0
O23 O 0.06199 0.96381 0.32193 0.0
O24 O 0.06674 0.94482 0.29052 0.0
C25 C 0.0862 0.92222 0.37121 0.0
C26 C 0.05998 0.95473 0.28558 0.0
O27 O 0.08221 0.96074 0.4496 0.0
Mg28 Mg 0.28335 0.82503 0.5837 0.0
O29 O 0.29015 0.809 0.64148 0.0
O30 O 0.30562 0.79863 0.59752 0.0
Mg31 Mg 0.3096 0.80905 0.51218 0.0
C32 C 0.29805 0.80005 0.64009 0.0
C33 C 0.26431 0.82524 0.68613 0.0
O34 O 0.26147 0.8146 0.66046 0.0
O35 O 0.30034 0.83726 0.6063 0.0
O36 O 0.31566 0.82686 0.5607 0.0
O37 O 0.2709 0.81096 0.539 0.0
O38 O 0.29003 0.81571 0.50989 0.0
C39 C 0.31183 0.83604 0.5917 0.0
C40 C 0.28028 0.80873 0.50472 0.0
O41 O 0.27264 0.83221 0.66337 0.0
Mg42 Mg 0.42486 0.04637 0.8485 0.0
O43 O 0.44057 0.05239 0.90969 0.0
O44 O 0.45102 0.06851 0.87179 0.0
Mg45 Mg 0.44093 0.07371 0.78688 0.0
C46 C 0.44947 0.06032 0.91171 0.0
C47 C 0.42373 0.0247 0.93919 0.0
O48 O 0.43333 0.02122 0.90728 0.0
O49 O 0.4124 0.0629 0.87509 0.0
O50 O 0.42277 0.07892 0.83477 0.0
O51 O 0.43914 0.03475 0.80056 0.0
O52 O 0.43432 0.05423 0.77741 0.0
C53 C 0.4135 0.07458 0.86364 0.0
C54 C 0.44132 0.0446 0.76923 0.0
O55 O 0.41763 0.03444 0.92442 0.0
Mg56 Mg 0.21406 0.82228 0.39552 0.0
O57 O 0.20797 0.80499 0.3446 0.0
O58 O 0.19341 0.79432 0.39323 0.0
Mg59 Mg 0.18917 0.80587 0.47531 0.0
C60 C 0.20069 0.79559 0.34953 0.0
C61 C 0.22118 0.83707 0.27768 0.0
O62 O 0.21193 0.84456 0.29221 0.0
O63 O 0.19615 0.83292 0.37132 0.0
O64 O 0.18164 0.8224 0.42175 0.0
O65 O 0.22748 0.80974 0.44343 0.0
O66 O 0.20825 0.81391 0.47324 0.0
C67 C 0.18481 0.83126 0.38739 0.0
C68 C 0.21841 0.80761 0.47962 0.0
O69 O 0.22428 0.82821 0.31187 0.0
Mg70 Mg 0.42291 0.95484 0.61767 0.0
O71 O 0.43811 0.94758 0.55619 0.0
O72 O 0.4472 0.93064 0.59424 0.0
Mg73 Mg 0.43735 0.9267 0.68104 0.0
C74 C 0.44629 0.93889 0.55424 0.0
C75 C 0.42412 0.97438 0.51933 0.0
O76 O 0.43505 0.97553 0.54505 0.0
O77 O 0.40936 0.93893 0.59315 0.0
O78 O 0.41883 0.9226 0.63512 0.0
O79 O 0.43773 0.96626 0.66309 0.0
O80 O 0.43279 0.94686 0.68764 0.0
C81 C 0.4098 0.92728 0.60597 0.0
C82 C 0.44017 0.95633 0.69336 0.0
O83 O 0.41611 0.96688 0.5411 0.0
Mg84 Mg 0.28735 0.176 0.89256 0.0
O85 O 0.29238 0.19311 0.83772 0.0
O86 O 0.30784 0.20384 0.87958 0.0
Mg87 Mg 0.31345 0.19283 0.96109 0.0
C88 C 0.29978 0.20246 0.83902 0.0
C89 C 0.26776 0.17623 0.79244 0.0
O90 O 0.26481 0.18653 0.82073 0.0
O91 O 0.30477 0.16513 0.86288 0.0
O92 O 0.31994 0.17583 0.90798 0.0
O93 O 0.27459 0.18844 0.94564 0.0
O94 O 0.29438 0.18482 0.96721 0.0
C95 C 0.3163 0.16678 0.87569 0.0
C96 C 0.28421 0.19081 0.97821 0.0
O97 O 0.27627 0.16918 0.81318 0.0
Mg98 Mg 0.07357 0.04247 0.13416 0.0
O99 O 0.05797 0.04987 0.07585 0.0
O100 O 0.04761 0.06525 0.12049 0.0
Mg101 Mg 0.05775 0.06859 0.20725 0.0
C102 C 0.04913 0.05788 0.07721 0.0
C103 C 0.07869 0.02091 0.04141 0.0
O104 O 0.07259 0.01403 0.07949 0.0
O105 O 0.08617 0.05935 0.11534 0.0
O106 O 0.07589 0.07468 0.16149 0.0
O107 O 0.05907 0.03001 0.17545 0.0
O108 O 0.06402 0.04885 0.20794 0.0
C109 C 0.08514 0.07079 0.13108 0.0
C110 C 0.05684 0.0392 0.21089 0.0
O111 O 0.08093 0.03234 0.05321 0.0
Mg112 Mg 0.79168 0.82092 0.90124 0.0
O113 O 0.79945 0.80412 0.85266 0.0
O114 O 0.81372 0.79384 0.90463 0.0
Mg115 Mg 0.81629 0.80574 0.98731 0.0
C116 C 0.80699 0.795 0.85899 0.0
C117 C 0.7739 0.83315 0.79948 0.0
O118 O 0.76786 0.83934 0.84024 0.0
O119 O 0.80913 0.83264 0.88202 0.0
O120 O 0.82355 0.82267 0.9354 0.0
O121 O 0.77833 0.80753 0.94409 0.0
O122 O 0.79677 0.81268 0.98067 0.0
C123 C 0.82035 0.83146 0.90064 0.0
C124 C 0.78694 0.80574 0.98303 0.0
O125 O 0.78302 0.8261 0.81336 0.0
Mg126 Mg 0.92452 0.04297 0.63574 0.0
O127 O 0.94006 0.04952 0.57453 0.0
O128 O 0.95046 0.06543 0.6148 0.0
Mg129 Mg 0.9406 0.06987 0.70121 0.0
C130 C 0.9489 0.05754 0.57355 0.0
C131 C 0.92351 0.02292 0.5373 0.0
O132 O 0.93418 0.02006 0.56251 0.0
O133 O 0.91193 0.05962 0.61311 0.0
O134 O 0.92228 0.0754 0.65553 0.0
O135 O 0.93897 0.03095 0.68006 0.0
O136 O 0.93424 0.05024 0.70722 0.0
C137 C 0.91296 0.07121 0.6265 0.0
C138 C 0.94131 0.04056 0.71282 0.0
O139 O 0.91686 0.03166 0.55884 0.0
Mg140 Mg 0.71061 0.1739 0.42486 0.0
O141 O 0.70485 0.19152 0.3758 0.0
O142 O 0.69021 0.20199 0.42498 0.0
Mg143 Mg 0.68565 0.19005 0.50558 0.0
C144 C 0.6976 0.20093 0.38152 0.0
C145 C 0.71855 0.15958 0.30666 0.0
O146 O 0.70921 0.15202 0.31896 0.0
O147 O 0.69269 0.16358 0.39693 0.0
O148 O 0.67837 0.17378 0.44988 0.0
O149 O 0.72391 0.18603 0.47602 0.0
O150 O 0.70455 0.18178 0.50342 0.0
C151 C 0.68139 0.16514 0.41389 0.0
C152 C 0.71473 0.18793 0.51181 0.0
O153 O 0.7213 0.16837 0.34192 0.0
Mg154 Mg 0.57197 0.95486 0.11817 0.0
O155 O 0.55693 0.94739 0.05599 0.0
O156 O 0.54759 0.93085 0.09655 0.0
Mg157 Mg 0.55666 0.9277 0.1858 0.0
C158 C 0.5487 0.93872 0.05502 0.0
C159 C 0.57729 0.9772 0.03078 0.0
O160 O 0.57072 0.98352 0.06929 0.0
O161 O 0.58526 0.93844 0.09908 0.0
O162 O 0.57537 0.92268 0.14361 0.0
O163 O 0.5571 0.96701 0.15911 0.0
O164 O 0.56161 0.9478 0.1883 0.0
C165 C 0.58461 0.92696 0.1145 0.0
C166 C 0.55438 0.95743 0.19131 0.0
O167 O 0.57981 0.96575 0.04056 0.0
Mg168 Mg 0.78596 0.17238 0.62224 0.0
O169 O 0.79204 0.18892 0.67889 0.0
O170 O 0.80695 0.19983 0.63374 0.0
Mg171 Mg 0.81146 0.18926 0.5493 0.0
C172 C 0.79948 0.19824 0.67655 0.0
C173 C 0.76702 0.17201 0.72451 0.0
O174 O 0.76413 0.18256 0.69826 0.0
O175 O 0.80347 0.16093 0.64534 0.0
O176 O 0.81825 0.17187 0.59863 0.0
O177 O 0.77294 0.18574 0.57646 0.0
O178 O 0.79224 0.18168 0.54763 0.0
C179 C 0.81487 0.16261 0.63023 0.0
C180 C 0.78221 0.1882 0.54192 0.0
O181 O 0.77547 0.16508 0.70232 0.0
Mg182 Mg 0.57314 0.04428 0.34857 0.0
O183 O 0.5571 0.05263 0.40085 0.0
O184 O 0.54666 0.06676 0.34856 0.0
Mg185 Mg 0.55723 0.06828 0.26141 0.0
C186 C 0.54812 0.06038 0.39513 0.0
C187 C 0.58074 0.02431 0.44557 0.0
O188 O 0.5784 0.01619 0.40388 0.0
O189 O 0.5853 0.06182 0.36164 0.0
O190 O 0.57517 0.07546 0.30481 0.0
O191 O 0.55897 0.03078 0.31128 0.0
O192 O 0.56401 0.04886 0.27096 0.0
C193 C 0.58428 0.07267 0.33848 0.0
C194 C 0.55692 0.03915 0.27153 0.0
O195 O 0.57991 0.03596 0.43473 0.0
Mg196 Mg 0.70837 0.82322 0.11305 0.0
O197 O 0.70332 0.80682 0.17242 0.0
O198 O 0.68711 0.79633 0.1358 0.0
Mg199 Mg 0.68104 0.80678 0.05333 0.0
C200 C 0.69558 0.79775 0.17444 0.0
C201 C 0.72901 0.82338 0.20913 0.0
O202 O 0.7315 0.81273 0.18274 0.0
O203 O 0.6917 0.83501 0.14409 0.0
O204 O 0.67576 0.82451 0.10392 0.0
O205 O 0.72004 0.80985 0.05879 0.0
O206 O 0.7002 0.81416 0.04172 0.0
C207 C 0.68001 0.83371 0.13363 0.0
C208 C 0.70999 0.80775 0.02873 0.0
O209 O 0.72045 0.83039 0.18852 0.0
Mg210 Mg 0.92751 0.95352 0.86577 0.0
O211 O 0.94414 0.94606 0.91702 0.0
O212 O 0.95419 0.93117 0.86764 0.0
Mg213 Mg 0.94248 0.92795 0.785 0.0
C214 C 0.95315 0.93831 0.91202 0.0
C215 C 0.91475 0.97243 0.96027 0.0
O216 O 0.90889 0.97775 0.91644 0.0
O217 O 0.91548 0.93641 0.88784 0.0
O218 O 0.92535 0.92142 0.83737 0.0
O219 O 0.94117 0.96625 0.82048 0.0
O220 O 0.93572 0.94754 0.7879 0.0
C221 C 0.91654 0.92502 0.87118 0.0
C222 C 0.94279 0.95723 0.78336 0.0
O223 O 0.922 0.9632 0.95079 0.0
Mg224 Mg 0.70711 0.67649 0.61364 0.0
O225 O 0.69867 0.69427 0.65216 0.0
O226 O 0.6881 0.70473 0.58385 0.0
Mg227 Mg 0.68752 0.69182 0.5037 0.0
C228 C 0.69251 0.70383 0.63541 0.0
C229 C 0.72211 0.66538 0.72251 0.0
O230 O 0.72981 0.66113 0.68243 0.0
O231 O 0.68843 0.66601 0.62049 0.0
O232 O 0.67737 0.67594 0.55196 0.0
O233 O 0.72265 0.68883 0.58045 0.0
O234 O 0.70576 0.68397 0.52968 0.0
C235 C 0.67836 0.66748 0.59108 0.0
C236 C 0.71577 0.69056 0.53466 0.0
O237 O 0.71237 0.67135 0.70704 0.0
Mg238 Mg 0.56989 0.45098 0.86239 0.0
O239 O 0.55356 0.44605 0.92246 0.0
O240 O 0.5432 0.42963 0.88657 0.0
Mg241 Mg 0.55356 0.42341 0.80422 0.0
C242 C 0.54456 0.43821 0.92482 0.0
C243 C 0.57101 0.47257 0.95531 0.0
O244 O 0.56064 0.47568 0.92806 0.0
O245 O 0.58164 0.43436 0.89408 0.0
O246 O 0.57121 0.41818 0.85551 0.0
O247 O 0.5565 0.46265 0.80901 0.0
O248 O 0.56057 0.44273 0.79173 0.0
C249 C 0.58036 0.42261 0.88491 0.0
C250 C 0.55413 0.45256 0.77953 0.0
O251 O 0.57731 0.46326 0.93681 0.0
Mg252 Mg 0.7851 0.32171 0.12266 0.0
O253 O 0.79142 0.3053 0.17913 0.0
O254 O 0.80629 0.29442 0.1334 0.0
Mg255 Mg 0.81034 0.30482 0.048 0.0
C256 C 0.79895 0.29605 0.17668 0.0
C257 C 0.76631 0.32299 0.22682 0.0
O258 O 0.76252 0.31264 0.2013 0.0
O259 O 0.80267 0.33314 0.14408 0.0
O260 O 0.81737 0.32228 0.0964 0.0
O261 O 0.77189 0.30828 0.07819 0.0
O262 O 0.79109 0.31233 0.04786 0.0
C263 C 0.81403 0.33154 0.1282 0.0
C264 C 0.78102 0.30583 0.04281 0.0
O265 O 0.7751 0.32928 0.20354 0.0
Mg266 Mg 0.92519 0.54328 0.38684 0.0
O267 O 0.94053 0.55183 0.44288 0.0
O268 O 0.94981 0.56786 0.39828 0.0
Mg269 Mg 0.9388 0.57062 0.31333 0.0
C270 C 0.94886 0.56036 0.44135 0.0
C271 C 0.91008 0.52964 0.49392 0.0
O272 O 0.89951 0.53365 0.47136 0.0
O273 O 0.91144 0.55909 0.40953 0.0
O274 O 0.92063 0.57498 0.36247 0.0
O275 O 0.94024 0.53212 0.34264 0.0
O276 O 0.93368 0.55058 0.31168 0.0
C277 C 0.91179 0.5706 0.39399 0.0
C278 C 0.94153 0.54149 0.30736 0.0
O279 O 0.92038 0.53196 0.46828 0.0
Mg280 Mg 0.70698 0.32148 0.92018 0.0
O281 O 0.70033 0.30394 0.87343 0.0
O282 O 0.68655 0.29328 0.92666 0.0
Mg283 Mg 0.68326 0.30544 0.00809 0.0
C284 C 0.69328 0.29446 0.88101 0.0
C285 C 0.7252 0.33305 0.81993 0.0
O286 O 0.73216 0.33757 0.86223 0.0
O287 O 0.68889 0.33205 0.89976 0.0
O288 O 0.67503 0.32176 0.95497 0.0
O289 O 0.72107 0.3092 0.96521 0.0
O290 O 0.7023 0.31353 0.00048 0.0
C291 C 0.67777 0.33049 0.91905 0.0
C292 C 0.71255 0.30727 0.00442 0.0
O293 O 0.7153 0.32698 0.83216 0.0
Mg294 Mg 0.92489 0.44986 0.14762 0.0
O295 O 0.94021 0.44408 0.08355 0.0
O296 O 0.95036 0.42718 0.11558 0.0
Mg297 Mg 0.94101 0.42184 0.20217 0.0
C298 C 0.94877 0.43585 0.07804 0.0
C299 C 0.92483 0.47039 0.05315 0.0
O300 O 0.93605 0.47147 0.07613 0.0
O301 O 0.912 0.43368 0.12051 0.0
O302 O 0.92235 0.41729 0.15744 0.0
O303 O 0.93949 0.46108 0.19493 0.0
O304 O 0.93483 0.44141 0.21561 0.0
C305 C 0.91296 0.42194 0.13059 0.0
C306 C 0.9419 0.45099 0.2242 0.0
O307 O 0.91723 0.46254 0.07526 0.0
Mg308 Mg 0.78597 0.67288 0.41007 0.0
O309 O 0.79249 0.68924 0.35341 0.0
O310 O 0.80836 0.69913 0.39652 0.0
Mg311 Mg 0.81288 0.6881 0.47967 0.0
C312 C 0.80049 0.6981 0.35492 0.0
C313 C 0.76521 0.67272 0.31426 0.0
O314 O 0.76175 0.68256 0.34468 0.0
O315 O 0.80261 0.66062 0.38303 0.0
O316 O 0.81836 0.67056 0.42777 0.0
O317 O 0.77408 0.68671 0.45942 0.0
O318 O 0.79336 0.68146 0.48416 0.0
C319 C 0.8142 0.66162 0.39611 0.0
C320 C 0.78373 0.68843 0.49266 0.0
O321 O 0.77455 0.66633 0.33149 0.0
Mg322 Mg 0.5707 0.54547 0.62386 0.0
O323 O 0.55383 0.5529 0.57497 0.0
O324 O 0.5433 0.56691 0.62762 0.0
Mg325 Mg 0.55487 0.56954 0.71127 0.0
C326 C 0.54459 0.56029 0.58165 0.0
C327 C 0.58132 0.52601 0.52806 0.0
O328 O 0.58433 0.51901 0.57301 0.0
O329 O 0.58203 0.56333 0.60507 0.0
O330 O 0.57182 0.57709 0.6611 0.0
O331 O 0.55749 0.53181 0.66673 0.0
O332 O 0.56233 0.55032 0.70329 0.0
C333 C 0.58068 0.57439 0.6258 0.0
C334 C 0.55559 0.54037 0.70581 0.0
O335 O 0.57641 0.5367 0.53661 0.0
Mg336 Mg 0.28379 0.32415 0.39612 0.0
O337 O 0.29081 0.30627 0.35176 0.0
O338 O 0.30366 0.296 0.41176 0.0
Mg339 Mg 0.30714 0.309 0.4895 0.0
C340 C 0.29751 0.29676 0.3642 0.0
C341 C 0.26745 0.32193 0.28529 0.0
O342 O 0.26404 0.31196 0.31484 0.0
O343 O 0.30192 0.3346 0.37501 0.0
O344 O 0.31559 0.32452 0.43206 0.0
O345 O 0.2696 0.31206 0.44157 0.0
O346 O 0.28817 0.31677 0.47791 0.0
C347 C 0.31301 0.33296 0.39445 0.0
C348 C 0.27803 0.31033 0.48136 0.0
O349 O 0.27526 0.32948 0.30814 0.0
Mg350 Mg 0.42245 0.5442 0.12887 0.0
O351 O 0.43897 0.55032 0.07231 0.0
O352 O 0.44941 0.56572 0.11632 0.0
Mg353 Mg 0.43857 0.57035 0.20004 0.0
C354 C 0.4481 0.558 0.07424 0.0
C355 C 0.41719 0.52177 0.04182 0.0
O356 O 0.42259 0.51522 0.08321 0.0
O357 O 0.41074 0.56132 0.10381 0.0
O358 O 0.42109 0.57666 0.14966 0.0
O359 O 0.43595 0.53166 0.17655 0.0
O360 O 0.43131 0.55101 0.20329 0.0
C361 C 0.41201 0.57284 0.11798 0.0
C362 C 0.43798 0.54112 0.21068 0.0
O363 O 0.41544 0.53344 0.04939 0.0
Mg364 Mg 0.21501 0.67358 0.89646 0.0
O365 O 0.209 0.6908 0.84477 0.0
O366 O 0.19439 0.70152 0.89285 0.0
Mg367 Mg 0.19001 0.69005 0.97493 0.0
C368 C 0.20173 0.70021 0.84937 0.0
C369 C 0.23327 0.6743 0.79156 0.0
O370 O 0.23658 0.68442 0.82043 0.0
O371 O 0.19724 0.66279 0.87152 0.0
O372 O 0.18269 0.67345 0.92121 0.0
O373 O 0.22836 0.68619 0.9449 0.0
O374 O 0.20907 0.68202 0.97374 0.0
C375 C 0.18588 0.66452 0.88716 0.0
C376 C 0.21922 0.68831 0.98071 0.0
O377 O 0.22496 0.66716 0.81334 0.0
Mg378 Mg 0.07377 0.45273 0.6444 0.0
O379 O 0.05814 0.44416 0.58991 0.0
O380 O 0.04788 0.4296 0.64046 0.0
Mg381 Mg 0.0585 0.42765 0.72696 0.0
C382 C 0.0493 0.43621 0.5946 0.0
C383 C 0.07992 0.4737 0.55135 0.0
O384 O 0.07602 0.48105 0.59361 0.0
O385 O 0.0865 0.43578 0.62964 0.0
O386 O 0.07641 0.42102 0.68042 0.0
O387 O 0.0591 0.46549 0.68096 0.0
O388 O 0.06453 0.44741 0.72097 0.0
C389 C 0.08553 0.42454 0.64821 0.0
C390 C 0.05713 0.45692 0.71985 0.0
O391 O 0.08055 0.46196 0.56019 0.0
Mg392 Mg 0.28635 0.67568 0.08396 0.0
O393 O 0.29257 0.69196 0.14149 0.0
O394 O 0.30782 0.70281 0.09865 0.0
Mg395 Mg 0.31227 0.69239 0.01364 0.0
C396 C 0.30018 0.70115 0.14073 0.0
C397 C 0.26748 0.67556 0.18627 0.0
O398 O 0.26446 0.68596 0.15908 0.0
O399 O 0.30363 0.66405 0.10757 0.0
O400 O 0.3188 0.67482 0.06277 0.0
O401 O 0.27357 0.68926 0.03843 0.0
O402 O 0.2929 0.68511 0.01013 0.0
C403 C 0.31513 0.66557 0.0937 0.0
C404 C 0.28293 0.69175 0.00446 0.0
O405 O 0.27581 0.6685 0.16402 0.0
Mg406 Mg 0.07291 0.5484 0.88786 0.0
O407 O 0.05744 0.55607 0.94617 0.0
O408 O 0.0472 0.57151 0.90158 0.0
Mg409 Mg 0.0574 0.5747 0.81481 0.0
C410 C 0.04867 0.56416 0.94489 0.0
C411 C 0.07906 0.5262 0.97504 0.0
O412 O 0.07472 0.51937 0.93185 0.0
O413 O 0.0858 0.56506 0.90644 0.0
O414 O 0.07573 0.58046 0.85984 0.0
O415 O 0.05825 0.53616 0.84647 0.0
O416 O 0.06351 0.55493 0.81404 0.0
C417 C 0.08495 0.57648 0.89013 0.0
C418 C 0.05623 0.54536 0.81089 0.0
O419 O 0.07995 0.538 0.96856 0.0
Mg420 Mg 0.21068 0.32159 0.58404 0.0
O421 O 0.20494 0.30453 0.63788 0.0
O422 O 0.18967 0.29407 0.59295 0.0
Mg423 Mg 0.1847 0.30547 0.51148 0.0
C424 C 0.19744 0.29526 0.63487 0.0
C425 C 0.23034 0.32119 0.68345 0.0
O426 O 0.23351 0.31115 0.65364 0.0
O427 O 0.19338 0.33274 0.61219 0.0
O428 O 0.17816 0.32234 0.56585 0.0
O429 O 0.22345 0.30877 0.53405 0.0
O430 O 0.20396 0.313 0.50847 0.0
C431 C 0.18186 0.33125 0.59889 0.0
C432 C 0.21398 0.30656 0.50028 0.0
O433 O 0.22156 0.3281 0.66429 0.0
Mg434 Mg 0.42145 0.45342 0.3611 0.0
O435 O 0.43855 0.44529 0.4079 0.0
O436 O 0.44856 0.4322 0.3479 0.0
Mg437 Mg 0.43618 0.42994 0.2671 0.0
C438 C 0.44777 0.43813 0.3961 0.0
C439 C 0.41428 0.47309 0.45925 0.0
O440 O 0.41577 0.48113 0.41648 0.0
O441 O 0.40991 0.43575 0.37693 0.0
O442 O 0.41962 0.42188 0.31944 0.0
O443 O 0.43461 0.46734 0.32108 0.0
O444 O 0.42943 0.44928 0.28036 0.0
C445 C 0.41101 0.42472 0.35582 0.0
C446 C 0.43637 0.45913 0.28024 0.0
O447 O 0.41558 0.46145 0.44905 0.0
C448 C 0.2531 0.18174 0.71127 0.0
C449 C 0.26251 0.1739 0.73354 0.0
C450 C 0.24913 0.18058 0.65346 0.0
C451 C 0.24988 0.15979 0.52317 0.0
H452 H 0.24515 0.19114 0.44072 0.0
C453 C 0.22993 0.16294 0.28744 0.0
C454 C 0.23486 0.17228 0.25081 0.0
C455 C 0.23356 0.16224 0.34606 0.0
C456 C 0.24655 0.18228 0.46283 0.0
H457 H 0.27481 0.15832 0.71299 0.0
H458 H 0.26798 0.15639 0.61183 0.0
H459 H 0.25055 0.19145 0.54354 0.0
H460 H 0.24792 0.18783 0.24643 0.0
H461 H 0.25439 0.18646 0.34787 0.0
H462 H 0.24616 0.15066 0.44164 0.0
C463 C 0.26357 0.16337 0.63926 0.0
C464 C 0.24946 0.18246 0.52217 0.0
C465 C 0.26751 0.16451 0.69727 0.0
C466 C 0.24385 0.18057 0.27348 0.0
C467 C 0.2475 0.17985 0.33186 0.0
C468 C 0.24696 0.15962 0.46359 0.0
C469 C 0.25451 0.17158 0.61628 0.0
C470 C 0.25116 0.17123 0.55321 0.0
C471 C 0.2422 0.17085 0.36927 0.0
C472 C 0.24531 0.17088 0.43263 0.0
H473 H 0.24897 0.18901 0.73808 0.0
H474 H 0.24194 0.18688 0.63765 0.0
H475 H 0.25104 0.15096 0.54577 0.0
H476 H 0.22295 0.15642 0.27141 0.0
H477 H 0.22923 0.15524 0.37367 0.0
C478 C 0.08551 0.99068 0.5256 0.0
C479 C 0.08437 0.9777 0.5167 0.0
C480 C 0.08667 0.99556 0.58202 0.0
C481 C 0.093 0.98644 0.73679 0.0
H482 H 0.07495 0.01712 0.77067 0.0
C483 C 0.0802 0.00305 0.97037 0.0
C484 C 0.08167 0.01587 0.98275 0.0
C485 C 0.08202 0.99851 0.91372 0.0
C486 C 0.08016 0.00862 0.76176 0.0
H487 H 0.08373 0.95966 0.56017 0.0
H488 H 0.08537 0.96815 0.65816 0.0
H489 H 0.07537 0.00908 0.67136 0.0
H490 H 0.0865 0.03393 0.94544 0.0
H491 H 0.08954 0.026 0.84667 0.0
H492 H 0.09737 0.98583 0.82803 0.0
C493 C 0.08569 0.97459 0.62175 0.0
C494 C 0.08046 0.00402 0.7047 0.0
C495 C 0.08467 0.9697 0.56538 0.0
C496 C 0.08529 0.02399 0.93749 0.0
C497 C 0.08696 0.01948 0.88079 0.0
C498 C 0.09258 0.99098 0.79403 0.0
C499 C 0.08656 0.9876 0.63097 0.0
C500 C 0.08682 0.99282 0.69139 0.0
C501 C 0.0852 0.00671 0.86813 0.0
C502 C 0.08611 0.00209 0.80715 0.0
H503 H 0.08539 0.99709 0.48903 0.0
H504 H 0.08757 0.00561 0.5872 0.0
H505 H 0.09819 0.97792 0.72819 0.0
H506 H 0.07743 0.99654 0.00422 0.0
H507 H 0.08052 0.98863 0.90519 0.0
C508 C 0.23625 0.82933 0.20193 0.0
C509 C 0.22685 0.83783 0.21872 0.0
C510 C 0.24062 0.82906 0.1445 0.0
C511 C 0.24143 0.84683 0.00538 0.0
H512 H 0.24589 0.81375 0.93848 0.0
C513 C 0.2637 0.83821 0.77763 0.0
C514 C 0.2589 0.82828 0.74398 0.0
C515 C 0.25944 0.8402 0.83464 0.0
C516 C 0.24457 0.82307 0.95619 0.0
H517 H 0.21504 0.85304 0.18862 0.0
H518 H 0.22259 0.85248 0.08828 0.0
H519 H 0.23958 0.8158 0.0398 0.0
H520 H 0.24545 0.81305 0.74293 0.0
H521 H 0.23789 0.81667 0.84162 0.0
H522 H 0.24618 0.85406 0.92105 0.0
C523 C 0.22666 0.84609 0.11967 0.0
C524 C 0.24113 0.82425 0.01467 0.0
C525 C 0.22229 0.84638 0.17722 0.0
C526 C 0.24943 0.82071 0.76778 0.0
C527 C 0.24515 0.82274 0.82459 0.0
C528 C 0.24488 0.84565 0.9467 0.0
C529 C 0.23569 0.83725 0.10233 0.0
C530 C 0.23954 0.83614 0.04011 0.0
C531 C 0.25028 0.83234 0.8592 0.0
C532 C 0.24647 0.83374 0.92136 0.0
H533 H 0.24005 0.82266 0.23279 0.0
H534 H 0.24777 0.8223 0.13296 0.0
H535 H 0.24035 0.85613 0.02367 0.0
H536 H 0.27103 0.8442 0.76066 0.0
H537 H 0.26367 0.84763 0.86016 0.0
C538 C 0.42754 0.00722 0.00962 0.0
C539 C 0.42116 0.01831 0.99532 0.0
C540 C 0.42635 0.00193 0.06505 0.0
C541 C 0.40772 0.00254 0.20219 0.0
H542 H 0.43902 0.9914 0.27026 0.0
C543 C 0.41151 0.97746 0.42758 0.0
C544 C 0.42195 0.98051 0.46219 0.0
C545 C 0.41039 0.98224 0.37088 0.0
C546 C 0.4302 0.99456 0.25216 0.0
H547 H 0.40808 0.03226 0.02741 0.0
H548 H 0.40615 0.02312 0.12456 0.0
H549 H 0.43872 -0.00104 0.17049 0.0
H550 H 0.43906 0.99147 0.46535 0.0
H551 H 0.437 -0.00011 0.36745 0.0
H552 H 0.3993 0.99838 0.28494 0.0
C553 C 0.41197 0.01843 0.09265 0.0
C554 C 0.42999 -0.00128 0.19452 0.0
C555 C 0.41312 0.0237 0.03697 0.0
C556 C 0.43095 0.98883 0.43979 0.0
C557 C 0.42982 0.9936 0.3834 0.0
C558 C 0.40793 0.99834 0.26009 0.0
C559 C 0.41882 0.00764 0.10779 0.0
C560 C 0.41877 0.00281 0.16874 0.0
C561 C 0.41968 0.99015 0.34771 0.0
C562 C 0.41921 0.9944 0.28589 0.0
H563 H 0.43371 0.00275 0.97841 0.0
H564 H 0.43154 0.99347 0.07475 0.0
H565 H 0.39889 0.00554 0.18357 0.0
H566 H 0.40443 0.97106 0.44349 0.0
H567 H 0.40249 0.97936 0.34447 0.0
C568 C 0.74481 0.81887 0.28696 0.0
C569 C 0.73491 0.82628 0.2661 0.0
C570 C 0.74952 0.82065 0.34321 0.0
C571 C 0.74981 0.84263 0.46962 0.0
H572 H 0.75766 0.81233 0.55537 0.0
C573 C 0.75985 0.84136 0.71976 0.0
C574 C 0.76982 0.83365 0.73762 0.0
C575 C 0.75578 0.84125 0.6616 0.0
C576 C 0.75563 0.8209 0.53189 0.0
H577 H 0.72245 0.84167 0.28751 0.0
H578 H 0.73052 0.84463 0.38606 0.0
H579 H 0.75048 0.81082 0.45508 0.0
H580 H 0.7835 0.82 0.7078 0.0
H581 H 0.77642 0.81985 0.60719 0.0
H582 H 0.75481 0.85265 0.54743 0.0
C583 C 0.73477 0.83754 0.35867 0.0
C584 C 0.75155 0.82004 0.4742 0.0
C585 C 0.73011 0.83582 0.30214 0.0
C586 C 0.77576 0.82603 0.69584 0.0
C587 C 0.77166 0.82588 0.63808 0.0
C588 C 0.75384 0.84348 0.52767 0.0
C589 C 0.74438 0.82981 0.38034 0.0
C590 C 0.74868 0.83088 0.44204 0.0
C591 C 0.76154 0.83337 0.62033 0.0
C592 C 0.75689 0.83262 0.55927 0.0
H593 H 0.74879 0.81151 0.26021 0.0
H594 H 0.75712 0.81472 0.35781 0.0
H595 H 0.74779 0.85118 0.44611 0.0
H596 H 0.75509 0.84735 0.75078 0.0
H597 H 0.74792 0.84709 0.64929 0.0
C598 C 0.92667 0.0064 0.46121 0.0
C599 C 0.91995 0.01684 0.4816 0.0
C600 C 0.92404 0.00121 0.40663 0.0
C601 C 0.91149 0.00948 0.2633 0.0
H602 H 0.91159 0.97353 0.2387 0.0
C603 C 0.90539 0.98737 0.03349 0.0
C604 C 0.91338 0.97726 0.02062 0.0
C605 C 0.90449 0.992 0.09057 0.0
C606 C 0.91162 0.9836 0.2447 0.0
H607 H 0.905 0.02987 0.46104 0.0
H608 H 0.90045 0.02081 0.36533 0.0
H609 H 0.91305 0.98185 0.33747 0.0
H610 H 0.92666 0.9641 0.0579 0.0
H611 H 0.92524 0.97225 0.15634 0.0
H612 H 0.91046 0.01125 0.17042 0.0
C613 C 0.90778 0.01668 0.3917 0.0
C614 C 0.91243 0.98836 0.30135 0.0
C615 C 0.91034 0.02181 0.44665 0.0
C616 C 0.92035 0.97185 0.06612 0.0
C617 C 0.91947 0.97648 0.12288 0.0
C618 C 0.91076 0.00472 0.20651 0.0
C619 C 0.91469 0.00639 0.3709 0.0
C620 C 0.9126 0.00135 0.31124 0.0
C621 C 0.91155 0.98662 0.13595 0.0
C622 C 0.91106 0.99171 0.19643 0.0
H623 H 0.93414 0.00234 0.48699 0.0
H624 H 0.92962 0.99336 0.39161 0.0
H625 H 0.91171 0.01954 0.26947 0.0
H626 H 0.89988 0.99173 0.9995 0.0
H627 H 0.89821 -0.00025 0.09918 0.0
C628 C 0.76593 0.15894 0.8156 0.0
C629 C 0.76142 0.16899 0.78196 0.0
C630 C 0.76137 0.1569 0.87207 0.0
C631 C 0.74604 0.17392 0.99287 0.0
H632 H 0.74029 0.14076 0.0565 0.0
C633 C 0.73469 0.16717 0.23557 0.0
C634 C 0.72487 0.15888 0.24916 0.0
C635 C 0.73979 0.16746 0.17948 0.0
C636 C 0.7418 0.15009 0.03928 0.0
H637 H 0.74821 0.18443 0.78041 0.0
H638 H 0.74015 0.18074 0.87808 0.0
H639 H 0.74718 0.14302 0.95538 0.0
H640 H 0.71308 0.14406 0.21484 0.0
H641 H 0.72189 0.14468 0.11676 0.0
H642 H 0.7404 0.18104 0.07589 0.0
C643 C 0.7474 0.1746 0.86148 0.0
C644 C 0.74586 0.15137 0.9815 0.0
C645 C 0.75196 0.17666 0.80524 0.0
C646 C 0.72062 0.15056 0.20589 0.0
C647 C 0.72572 0.15088 0.14966 0.0
C648 C 0.742 0.17264 0.05044 0.0
C649 C 0.7522 0.16484 0.89605 0.0
C650 C 0.74796 0.16332 0.95752 0.0
C651 C 0.73519 0.15952 0.13546 0.0
C652 C 0.73981 0.16072 0.07444 0.0
H653 H 0.77324 0.15287 0.79901 0.0
H654 H 0.76534 0.14934 0.89761 0.0
H655 H 0.74775 0.18326 0.97619 0.0
H656 H 0.73826 0.17365 0.26791 0.0
H657 H 0.74725 0.17406 0.17041 0.0
C658 C 0.5785 0.99571 0.96357 0.0
C659 C 0.58038 0.98286 0.97351 0.0
C660 C 0.58029 0.0008 0.90798 0.0
C661 C 0.59368 0.99391 0.76064 0.0
H662 H 0.56939 0.01867 0.71072 0.0
C663 C 0.58473 0.00724 0.51867 0.0
C664 C 0.583 0.02002 0.50616 0.0
C665 C 0.58585 0.00314 0.57643 0.0
C666 C 0.57634 0.01187 0.7242 0.0
H667 H 0.5859 0.96532 0.93302 0.0
H668 H 0.58868 0.97409 0.8361 0.0
H669 H 0.56875 0.01084 0.81021 0.0
H670 H 0.5814 0.03855 0.54461 0.0
H671 H 0.58325 0.03137 0.6451 0.0
H672 H 0.60095 0.99471 0.6735 0.0
C673 C 0.58609 0.98034 0.87131 0.0
C674 C 0.57602 0.0074 0.78141 0.0
C675 C 0.58443 0.97528 0.92699 0.0
C676 C 0.58272 0.02864 0.5526 0.0
C677 C 0.5837 0.02453 0.61026 0.0
C678 C 0.59392 0.9983 0.70315 0.0
C679 C 0.58386 0.99314 0.86079 0.0
C680 C 0.58465 0.99831 0.80045 0.0
C681 C 0.58512 0.01173 0.62286 0.0
C682 C 0.58522 0.0073 0.68429 0.0
H683 H 0.57547 0.00182 0.99854 0.0
H684 H 0.57874 0.01074 0.90194 0.0
H685 H 0.60061 0.98707 0.77386 0.0
H686 H 0.58501 0.00036 0.48394 0.0
H687 H 0.58686 0.99321 0.58482 0.0
C688 C 0.73582 0.65751 0.80375 0.0
C689 C 0.72519 0.66421 0.78532 0.0
C690 C 0.73914 0.65721 0.86279 0.0
C691 C 0.73575 0.67566 0.99684 0.0
H692 H 0.74749 0.64564 0.07471 0.0
C693 C 0.74831 0.67643 0.24057 0.0
C694 C 0.75917 0.66996 0.25752 0.0
C695 C 0.74324 0.67472 0.18496 0.0
C696 C 0.74434 0.65414 0.05348 0.0
H697 H 0.70953 0.67554 0.81487 0.0
H698 H 0.71536 0.67501 0.91746 0.0
H699 H 0.7405 0.64448 0.97338 0.0
H700 H 0.77302 0.65633 0.22984 0.0
H701 H 0.76435 0.65354 0.13246 0.0
H702 H 0.73985 0.68543 0.07585 0.0
C703 C 0.72117 0.67008 0.88625 0.0
C704 C 0.74032 0.65345 0.99545 0.0
C705 C 0.7178 0.67032 0.82742 0.0
C706 C 0.76462 0.66143 0.21823 0.0
C707 C 0.7596 0.6598 0.1624 0.0
C708 C 0.73984 0.67637 0.05457 0.0
C709 C 0.73197 0.66367 0.90453 0.0
C710 C 0.73599 0.66422 0.96651 0.0
C711 C 0.74896 0.66658 0.14468 0.0
C712 C 0.74421 0.66563 0.08371 0.0
H713 H 0.7417 0.65269 0.77249 0.0
H714 H 0.74756 0.65225 0.8755 0.0
H715 H 0.73267 0.68417 0.97545 0.0
H716 H 0.74382 0.68299 0.26995 0.0
H717 H 0.73488 0.6799 0.17336 0.0
C718 C 0.58891 0.50984 0.4563 0.0
C719 C 0.58259 0.52114 0.46767 0.0
C720 C 0.58944 0.50497 0.39959 0.0
C721 C 0.5839 0.51347 0.24337 0.0
H722 H 0.58012 0.47757 0.22405 0.0
C723 C 0.56842 0.49008 0.02734 0.0
C724 C 0.57452 0.47898 0.01037 0.0
C725 C 0.57095 0.49559 0.08145 0.0
C726 C 0.58134 0.4876 0.22871 0.0
H727 H 0.57195 0.53622 0.42804 0.0
H728 H 0.57257 0.52762 0.33009 0.0
H729 H 0.58164 0.48642 0.32176 0.0
H730 H 0.58826 0.46511 0.03662 0.0
H731 H 0.59256 0.47468 0.1314 0.0
H732 H 0.58312 0.51462 0.15011 0.0
C733 C 0.57741 0.52262 0.36442 0.0
C734 C 0.58226 0.49269 0.2848 0.0
C735 C 0.57698 0.52754 0.42089 0.0
C736 C 0.58341 0.47367 0.04827 0.0
C737 C 0.58582 0.4791 0.10271 0.0
C738 C 0.58285 0.50838 0.18732 0.0
C739 C 0.58356 0.51122 0.35293 0.0
C740 C 0.58342 0.50572 0.293 0.0
C741 C 0.57952 0.49005 0.12014 0.0
C742 C 0.58144 0.4954 0.17939 0.0
H743 H 0.59339 0.50471 0.49126 0.0
H744 H 0.59445 0.49629 0.3924 0.0
H745 H 0.58505 0.52351 0.24771 0.0
H746 H 0.56153 0.49441 0.99921 0.0
H747 H 0.56587 0.50397 0.0938 0.0
C748 C 0.76726 0.33568 0.31901 0.0
C749 C 0.76125 0.32656 0.28467 0.0
C750 C 0.7631 0.33823 0.37566 0.0
C751 C 0.73594 0.33497 0.47412 0.0
H752 H 0.76074 0.33484 0.59761 0.0
C753 C 0.72227 0.32807 0.71419 0.0
C754 C 0.72906 0.33429 0.75804 0.0
C755 C 0.72605 0.3287 0.65602 0.0
C756 C 0.7537 0.33514 0.56369 0.0
H757 H 0.7459 0.31326 0.28232 0.0
H758 H 0.73857 0.31779 0.38078 0.0
H759 H 0.76746 0.33333 0.49619 0.0
H760 H 0.74506 0.34628 0.77475 0.0
H761 H 0.75156 0.34758 0.6727 0.0
H762 H 0.72216 0.33675 0.54127 0.0
C763 C 0.74651 0.32298 0.36392 0.0
C764 C 0.75756 0.33425 0.50552 0.0
C765 C 0.75075 0.32034 0.30757 0.0
C766 C 0.73964 0.34134 0.74209 0.0
C767 C 0.7434 0.34202 0.68361 0.0
C768 C 0.73208 0.33596 0.53218 0.0
C769 C 0.75274 0.33182 0.39891 0.0
C770 C 0.74871 0.33392 0.46018 0.0
C771 C 0.73669 0.33565 0.63985 0.0
C772 C 0.74089 0.33581 0.57785 0.0
H773 H 0.7754 0.34064 0.30272 0.0
H774 H 0.76802 0.34517 0.40143 0.0
H775 H 0.72891 0.33494 0.44006 0.0
H776 H 0.71411 0.32248 0.7248 0.0
H777 H 0.72077 0.32346 0.62389 0.0
C778 C 0.90978 0.47641 0.97334 0.0
C779 C 0.92178 0.47712 0.99842 0.0
C780 C 0.90737 0.48198 0.91912 0.0
C781 C 0.92362 0.49091 0.78505 0.0
H782 H 0.89521 0.51251 0.75384 0.0
C783 C 0.92183 0.5211 0.57928 0.0
C784 C 0.91033 0.52304 0.55083 0.0
C785 C 0.9223 0.51511 0.63322 0.0
C786 C 0.90308 0.50633 0.76151 0.0
H787 H 0.94056 0.48451 0.9868 0.0
H788 H 0.93637 0.49407 0.89259 0.0
H789 H 0.89757 0.50291 0.8502 0.0
H790 H 0.89028 0.52017 0.55706 0.0
H791 H 0.89113 0.50937 0.65117 0.0
H792 H 0.92914 0.49409 0.69686 0.0
C793 C 0.92884 0.48918 0.91461 0.0
C794 C 0.90444 0.50088 0.81676 0.0
C795 C 0.93121 0.48375 0.96884 0.0
C796 C 0.89928 0.51882 0.57783 0.0
C797 C 0.89977 0.51269 0.63191 0.0
C798 C 0.92221 0.49622 0.72989 0.0
C799 C 0.91696 0.4882 0.88875 0.0
C800 C 0.91487 0.49332 0.82935 0.0
C801 C 0.91132 0.51073 0.66018 0.0
C802 C 0.91208 0.50423 0.71765 0.0
H803 H 0.90231 0.47138 0.99505 0.0
H804 H 0.89813 0.48108 0.90011 0.0
H805 H 0.93161 0.4849 0.79312 0.0
H806 H 0.93052 0.52436 0.56026 0.0
H807 H 0.93133 0.51407 0.65415 0.0
C808 C 0.24556 0.31577 0.76243 0.0
C809 C 0.23578 0.3234 0.74198 0.0
C810 C 0.24976 0.3168 0.81991 0.0
C811 C 0.24881 0.33687 0.95249 0.0
H812 H 0.25433 0.30523 0.03144 0.0
C813 C 0.26823 0.33308 0.1888 0.0
C814 C 0.26318 0.3236 0.22433 0.0
C815 C 0.26494 0.33387 0.12981 0.0
C816 C 0.25273 0.31416 0.01025 0.0
H817 H 0.22309 0.33847 0.76528 0.0
H818 H 0.23031 0.34015 0.86588 0.0
H819 H 0.24895 0.30531 0.92856 0.0
H820 H 0.25033 0.30785 0.22623 0.0
H821 H 0.24448 0.30936 0.12404 0.0
H822 H 0.25228 0.34566 0.03502 0.0
C823 C 0.23483 0.33345 0.83729 0.0
C824 C 0.24983 0.31421 0.95092 0.0
C825 C 0.23065 0.33245 0.77963 0.0
C826 C 0.25448 0.31521 0.20006 0.0
C827 C 0.25118 0.31602 0.14129 0.0
C828 C 0.25172 0.33681 0.01203 0.0
C829 C 0.24424 0.32544 0.85848 0.0
C830 C 0.24779 0.32556 0.92126 0.0
C831 C 0.25653 0.32521 0.10515 0.0
C832 C 0.25363 0.32543 0.04169 0.0
H833 H 0.2498 0.30877 0.73445 0.0
H834 H 0.25722 0.31067 0.83441 0.0
H835 H 0.24739 0.34577 0.93088 0.0
H836 H 0.27497 0.33968 0.20612 0.0
H837 H 0.26929 0.34102 0.10314 0.0
C838 C 0.41045 0.4903 0.53182 0.0
C839 C 0.41217 0.4775 0.51975 0.0
C840 C 0.40932 0.4945 0.5894 0.0
C841 C 0.41842 0.48588 0.73808 0.0
H842 H 0.39458 0.5114 0.78472 0.0
C843 C 0.4157 0.503 0.97617 0.0
C844 C 0.41433 0.51597 0.98461 0.0
C845 C 0.414 0.49772 0.92089 0.0
C846 C 0.40137 0.50434 0.77233 0.0
H847 H 0.41373 0.45903 0.55876 0.0
H848 H 0.41181 0.46639 0.65897 0.0
H849 H 0.39432 0.50342 0.6849 0.0
H850 H 0.40981 0.53353 0.94178 0.0
H851 H 0.40714 0.52439 0.8455 0.0
H852 H 0.42575 0.48701 0.8246 0.0
C853 C 0.41142 0.47318 0.62393 0.0
C854 C 0.4012 0.49977 0.71515 0.0
C855 C 0.41245 0.46897 0.56644 0.0
C856 C 0.4109 0.52349 0.9369 0.0
C857 C 0.40929 0.51822 0.88161 0.0
C858 C 0.41866 0.49052 0.79506 0.0
C859 C 0.41 0.486 0.6361 0.0
C860 C 0.40977 0.49054 0.69734 0.0
C861 C 0.41098 0.50529 0.87267 0.0
C862 C 0.4102 0.49987 0.81288 0.0
H863 H 0.41018 0.49712 0.49688 0.0
H864 H 0.40833 0.50446 0.59743 0.0
H865 H 0.42527 0.4789 0.72544 0.0
H866 H 0.41826 0.49694 0.01208 0.0
H867 H 0.41515 0.48769 0.91589 0.0
C868 C 0.2678 0.66372 0.28099 0.0
C869 C 0.26259 0.67315 0.2457 0.0
C870 C 0.26427 0.66259 0.33956 0.0
C871 C 0.25133 0.68184 0.45879 0.0
H872 H 0.24805 0.65015 0.53996 0.0
C873 C 0.24708 0.68026 0.70794 0.0
C874 C 0.23793 0.67226 0.73142 0.0
C875 C 0.25051 0.67935 0.64931 0.0
C876 C 0.24887 0.65907 0.51783 0.0
H877 H 0.24906 0.6883 0.24344 0.0
H878 H 0.24276 0.68618 0.34489 0.0
H879 H 0.25223 0.65031 0.43509 0.0
H880 H 0.22556 0.65667 0.71212 0.0
H881 H 0.23145 0.65518 0.60948 0.0
H882 H 0.24775 0.69064 0.5408 0.0
C883 C 0.2498 0.67985 0.32784 0.0
C884 C 0.25137 0.65917 0.45785 0.0
C885 C 0.25335 0.68101 0.26949 0.0
C886 C 0.23265 0.66298 0.69543 0.0
C887 C 0.23606 0.66209 0.6366 0.0
C888 C 0.24884 0.68175 0.51853 0.0
C889 C 0.25544 0.67084 0.36403 0.0
C890 C 0.2526 0.67056 0.4276 0.0
C891 C 0.24484 0.67045 0.61255 0.0
C892 C 0.24762 0.67038 0.54891 0.0
H893 H 0.27497 0.65752 0.26406 0.0
H894 H 0.26886 0.65559 0.36624 0.0
H895 H 0.2524 0.6908 0.43719 0.0
H896 H 0.25142 0.68745 0.73449 0.0
H897 H 0.2575 0.68577 0.63256 0.0
C898 C 0.08396 0.47078 0.44444 0.0
C899 C 0.08233 0.47885 0.49236 0.0
C900 C 0.08513 0.47559 0.38802 0.0
C901 C 0.09262 0.50414 0.30422 0.0
H902 H 0.07164 0.48906 0.18534 0.0
C903 C 0.08338 0.528 0.0822 0.0
C904 C 0.08163 0.52044 0.03263 0.0
C905 C 0.08472 0.52262 0.13741 0.0
C906 C 0.07775 0.49326 0.21756 0.0
H907 H 0.08109 0.49835 0.51864 0.0
H908 H 0.08325 0.50673 0.4201 0.0
H909 H 0.07192 0.48024 0.28314 0.0
H910 H 0.08042 0.50125 0.00199 0.0
H911 H 0.08312 0.49184 0.09797 0.0
H912 H 0.0985 0.51714 0.2387 0.0
C913 C 0.08361 0.49668 0.42629 0.0
C914 C 0.07787 0.48821 0.27377 0.0
C915 C 0.08232 0.49187 0.48272 0.0
C916 C 0.08166 0.50735 0.03931 0.0
C917 C 0.08312 0.50196 0.09449 0.0
C918 C 0.09259 0.50913 0.2478 0.0
C919 C 0.08483 0.48859 0.37821 0.0
C920 C 0.08522 0.49365 0.31787 0.0
C921 C 0.08446 0.50952 0.14445 0.0
C922 C 0.08506 0.50383 0.2038 0.0
H923 H 0.08401 0.46071 0.45025 0.0
H924 H 0.0862 0.46912 0.35192 0.0
H925 H 0.09849 0.50845 0.33713 0.0
H926 H 0.08333 0.53813 0.0787 0.0
H927 H 0.08554 0.52877 0.17477 0.0
C928 C 0.10784 0.07543 0.11212 0.0
C929 C 0.09549 0.0797 0.11963 0.0
C930 C 0.11783 0.08394 0.11105 0.0
C931 C 0.12544 0.11641 0.15827 0.0
H932 H 0.15501 0.11195 0.06244 0.0
C933 C 0.16092 0.15572 0.1105 0.0
C934 C 0.17374 0.15275 0.11128 0.0
C935 C 0.15191 0.14636 0.11753 0.0
C936 C 0.14688 0.11321 0.09004 0.0
H937 H 0.08386 0.09626 0.12779 0.0
H938 H 0.10112 0.11106 0.12358 0.0
H939 H 0.1381 0.09656 0.05758 0.0
H940 H 0.18718 0.13769 0.1218 0.0
H941 H 0.17134 0.12125 0.13336 0.0
H942 H 0.13407 0.13327 0.18922 0.0
C943 C 0.10321 0.10115 0.12086 0.0
C944 C 0.13717 0.1044 0.08725 0.0
C945 C 0.09328 0.09266 0.12265 0.0
C946 C 0.17737 0.14027 0.12137 0.0
C947 C 0.16832 0.13086 0.12744 0.0
C948 C 0.13507 0.12526 0.16055 0.0
C949 C 0.11566 0.0969 0.11686 0.0
C950 C 0.12625 0.10598 0.1208 0.0
C951 C 0.1555 0.1338 0.12467 0.0
C952 C 0.14582 0.12382 0.12604 0.0
H953 H 0.10986 0.06549 0.11005 0.0
H954 H 0.12728 0.08031 0.10814 0.0
H955 H 0.11735 0.11778 0.18603 0.0
H956 H 0.15783 0.16525 0.10288 0.0
H957 H 0.1421 0.1489 0.11487 0.0
C958 C 0.17842 0.85322 0.36224 0.0
C959 C 0.17515 0.84063 0.37196 0.0
C960 C 0.16912 0.86245 0.35857 0.0
C961 C 0.1355 0.86762 0.33302 0.0
H962 H 0.13911 0.89566 0.43943 0.0
C963 C 0.09399 0.9002 0.37876 0.0
C964 C 0.09636 0.91312 0.3829 0.0
C965 C 0.10383 0.89159 0.37932 0.0
C966 C 0.13801 0.88801 0.40885 0.0
H967 H 0.1596 0.82773 0.38164 0.0
H968 H 0.14342 0.84375 0.37371 0.0
H969 H 0.15611 0.88052 0.4293 0.0
H970 H 0.11091 0.92711 0.39338 0.0
H971 H 0.12814 0.91213 0.393 0.0
H972 H 0.11753 0.8751 0.31166 0.0
C973 C 0.15314 0.84652 0.36962 0.0
C974 C 0.14776 0.87934 0.40305 0.0
C975 C 0.16241 0.83735 0.37427 0.0
C976 C 0.10876 0.91721 0.39057 0.0
C977 C 0.11866 0.90859 0.39029 0.0
C978 C 0.12581 0.87635 0.33825 0.0
C979 C 0.1564 0.8592 0.36339 0.0
C980 C 0.14654 0.86898 0.36559 0.0
C981 C 0.11633 0.89569 0.38307 0.0
C982 C 0.12685 0.88657 0.37688 0.0
H983 H 0.18815 0.85605 0.36062 0.0
H984 H 0.17187 0.87215 0.35321 0.0
H985 H 0.13436 0.85979 0.3034 0.0
H986 H 0.08452 0.89675 0.37338 0.0
H987 H 0.10163 0.88172 0.37556 0.0
C988 C 0.38674 0.92368 0.59092 0.0
C989 C 0.39904 0.91898 0.59317 0.0
C990 C 0.37649 0.91546 0.5913 0.0
C991 C 0.36898 0.8833 0.63958 0.0
H992 H 0.33832 0.88743 0.55122 0.0
C993 C 0.33383 0.84341 0.60442 0.0
C994 C 0.32095 0.84607 0.6056 0.0
C995 C 0.34263 0.85302 0.60877 0.0
C996 C 0.34676 0.88628 0.57687 0.0
H997 H 0.41023 0.90203 0.5924 0.0
H998 H 0.39249 0.88779 0.5913 0.0
H999 H 0.35514 0.90291 0.54155 0.0
H1000 H 0.30719 0.8609 0.61421 0.0
H1001 H 0.32267 0.8778 0.6216 0.0
H1002 H 0.36077 0.86659 0.67402 0.0
C1003 C 0.39069 0.89778 0.5914 0.0
C1004 C 0.3564 0.89511 0.57119 0.0
C1005 C 0.40088 0.90595 0.59146 0.0
C1006 C 0.31705 0.85855 0.61351 0.0
C1007 C 0.3259 0.86823 0.61714 0.0
C1008 C 0.3594 0.87449 0.64508 0.0
C1009 C 0.37838 0.90241 0.59364 0.0
C1010 C 0.36773 0.89357 0.60159 0.0
C1011 C 0.33878 0.86557 0.61392 0.0
C1012 C 0.34828 0.87574 0.613 0.0
H1013 H 0.38504 0.93368 0.59251 0.0
H1014 H 0.36712 0.91933 0.59285 0.0
H1015 H 0.37743 0.88201 0.66499 0.0
H1016 H 0.33714 0.8339 0.59843 0.0
H1017 H 0.35248 0.85066 0.60567 0.0
C1018 C 0.33848 0.16009 0.8616 0.0
C1019 C 0.32568 0.15708 0.86059 0.0
C1020 C 0.34754 0.15068 0.86041 0.0
C1021 C 0.36357 0.12975 0.90603 0.0
H1022 H 0.36189 0.09917 0.81503 0.0
C1023 C 0.40534 0.09629 0.87812 0.0
C1024 C 0.40313 0.0833 0.87744 0.0
C1025 C 0.39539 0.10474 0.88106 0.0
C1026 C 0.36238 0.10759 0.84136 0.0
H1027 H 0.31235 0.14182 0.85376 0.0
H1028 H 0.3282 0.12531 0.85234 0.0
H1029 H 0.34563 0.11511 0.80355 0.0
H1030 H 0.38872 0.06901 0.88172 0.0
H1031 H 0.37126 0.08386 0.8868 0.0
H1032 H 0.38041 0.12235 0.94307 0.0
C1033 C 0.33124 0.13498 0.85364 0.0
C1034 C 0.35308 0.11674 0.83465 0.0
C1035 C 0.32214 0.14445 0.85428 0.0
C1036 C 0.39074 0.07895 0.88249 0.0
C1037 C 0.38074 0.08745 0.88474 0.0
C1038 C 0.37286 0.12066 0.9125 0.0
C1039 C 0.34403 0.13798 0.85885 0.0
C1040 C 0.35367 0.12801 0.86633 0.0
C1041 C 0.38297 0.10043 0.8829 0.0
C1042 C 0.37246 0.10954 0.87978 0.0
H1043 H 0.34151 0.16974 0.86578 0.0
H1044 H 0.35731 0.15335 0.8626 0.0
H1045 H 0.36415 0.13815 0.93242 0.0
H1046 H 0.41477 0.09995 0.87435 0.0
H1047 H 0.39743 0.11468 0.87921 0.0
C1048 C 0.89412 0.91975 0.89252 0.0
C1049 C 0.90659 0.91586 0.88513 0.0
C1050 C 0.88441 0.91092 0.89439 0.0
C1051 C 0.878 0.8781 0.84873 0.0
H1052 H 0.84769 0.88218 0.93981 0.0
C1053 C 0.84261 0.83834 0.89118 0.0
C1054 C 0.82979 0.84117 0.88685 0.0
C1055 C 0.8516 0.84778 0.8863 0.0
C1056 C 0.85605 0.88101 0.91361 0.0
H1057 H 0.91878 0.89969 0.87851 0.0
H1058 H 0.90202 0.88433 0.88454 0.0
H1059 H 0.86427 0.8979 0.94653 0.0
H1060 H 0.81635 0.85608 0.87246 0.0
H1061 H 0.83214 0.87268 0.86472 0.0
H1062 H 0.8699 0.86101 0.81731 0.0
C1063 C 0.8996 0.89417 0.88634 0.0
C1064 C 0.86556 0.89001 0.91744 0.0
C1065 C 0.90924 0.90298 0.88357 0.0
C1066 C 0.82617 0.8536 0.8756 0.0
C1067 C 0.83518 0.86311 0.87171 0.0
C1068 C 0.86857 0.86905 0.84549 0.0
C1069 C 0.88701 0.89802 0.88967 0.0
C1070 C 0.87672 0.88861 0.88545 0.0
C1071 C 0.84797 0.8603 0.87785 0.0
C1072 C 0.85754 0.87037 0.87817 0.0
H1073 H 0.89177 0.92963 0.89339 0.0
H1074 H 0.87485 0.91426 0.89676 0.0
H1075 H 0.88628 0.87684 0.82209 0.0
H1076 H 0.8457 0.82885 0.8998 0.0
H1077 H 0.86139 0.84536 0.89148 0.0
C1078 C 0.82094 0.14018 0.64737 0.0
C1079 C 0.82437 0.15285 0.64241 0.0
C1080 C 0.8301 0.13077 0.64606 0.0
C1081 C 0.86241 0.12604 0.59166 0.0
H1082 H 0.86113 0.09506 0.67958 0.0
C1083 C 0.90456 0.09293 0.61601 0.0
C1084 C 0.90248 0.07993 0.61457 0.0
C1085 C 0.89452 0.1013 0.61428 0.0
C1086 C 0.8615 0.1036 0.65412 0.0
H1087 H 0.84009 0.16566 0.63735 0.0
H1088 H 0.85601 0.14938 0.63724 0.0
H1089 H 0.8447 0.11078 0.69298 0.0
H1090 H 0.88823 0.06552 0.60799 0.0
H1091 H 0.87062 0.08021 0.60519 0.0
H1092 H 0.87932 0.11899 0.55371 0.0
C1093 C 0.84627 0.14661 0.63982 0.0
C1094 C 0.85211 0.11261 0.6619 0.0
C1095 C 0.83714 0.15597 0.64052 0.0
C1096 C 0.89014 0.07548 0.60885 0.0
C1097 C 0.88006 0.08388 0.60787 0.0
C1098 C 0.8718 0.11708 0.58418 0.0
C1099 C 0.84286 0.13389 0.64025 0.0
C1100 C 0.85256 0.12403 0.63136 0.0
C1101 C 0.88215 0.09687 0.61163 0.0
C1102 C 0.87154 0.10583 0.6158 0.0
H1103 H 0.81116 0.13748 0.64851 0.0
H1104 H 0.82713 0.12107 0.6465 0.0
H1105 H 0.86288 0.13455 0.5661 0.0
H1106 H 0.91395 0.09666 0.62035 0.0
H1107 H 0.89644 0.11124 0.61761 0.0
C1108 C 0.60409 0.08038 0.38674 0.0
C1109 C 0.59433 0.08213 0.34642 0.0
C1110 C 0.61376 0.08924 0.39143 0.0
C1111 C 0.6212 0.12232 0.35371 0.0
H1112 H 0.65547 0.11214 0.38298 0.0
C1113 C 0.65914 0.1579 0.41559 0.0
C1114 C 0.67152 0.15609 0.39632 0.0
C1115 C 0.64999 0.14884 0.40559 0.0
C1116 C 0.64597 0.11512 0.37398 0.0
H1117 H 0.58724 0.09448 0.27875 0.0
H1118 H 0.60406 0.10955 0.2859 0.0
H1119 H 0.6391 0.09625 0.37463 0.0
H1120 H 0.68382 0.14343 0.34943 0.0
H1121 H 0.66767 0.12767 0.33059 0.0
H1122 H 0.62804 0.14111 0.35123 0.0
C1123 C 0.60416 0.10159 0.31517 0.0
C1124 C 0.63655 0.10602 0.37016 0.0
C1125 C 0.59449 0.09287 0.31092 0.0
C1126 C 0.67439 0.14514 0.36487 0.0
C1127 C 0.66516 0.13605 0.35461 0.0
C1128 C 0.6306 0.13137 0.357 0.0
C1129 C 0.6139 0.09995 0.3556 0.0
C1130 C 0.62402 0.10952 0.3602 0.0
C1131 C 0.65288 0.13774 0.37553 0.0
C1132 C 0.64309 0.12792 0.3678 0.0
H1133 H 0.60427 0.07221 0.41466 0.0
H1134 H 0.62103 0.08774 0.42355 0.0
H1135 H 0.61166 0.12542 0.34678 0.0
H1136 H 0.65653 0.16619 0.44005 0.0
H1137 H 0.64071 0.15042 0.4232 0.0
C1138 C 0.59324 0.90538 0.10456 0.0
C1139 C 0.59526 0.91839 0.10383 0.0
C1140 C 0.60331 0.89707 0.10421 0.0
C1141 C 0.63606 0.89481 0.14884 0.0
H1142 H 0.63453 0.86334 0.0646 0.0
C1143 C 0.65826 0.84155 0.14796 0.0
C1144 C 0.67118 0.84399 0.14728 0.0
C1145 C 0.64964 0.85136 0.14581 0.0
C1146 C 0.63504 0.87202 0.08894 0.0
H1147 H 0.60944 0.93289 0.09986 0.0
H1148 H 0.62718 0.91827 0.0993 0.0
H1149 H 0.61868 0.87926 0.04713 0.0
H1150 H 0.6852 0.8587 0.14851 0.0
H1151 H 0.67008 0.87591 0.14464 0.0
H1152 H 0.65239 0.88742 0.19119 0.0
C1153 C 0.61774 0.91456 0.10042 0.0
C1154 C 0.62599 0.88118 0.07864 0.0
C1155 C 0.6076 0.92291 0.1001 0.0
C1156 C 0.6753 0.85651 0.14932 0.0
C1157 C 0.66664 0.86637 0.14684 0.0
C1158 C 0.64516 0.88561 0.1592 0.0
C1159 C 0.61568 0.90155 0.10352 0.0
C1160 C 0.62623 0.89257 0.10928 0.0
C1161 C 0.65374 0.86385 0.14254 0.0
C1162 C 0.64457 0.874 0.13026 0.0
H1163 H 0.58384 0.90159 0.10735 0.0
H1164 H 0.60139 0.88713 0.10714 0.0
H1165 H 0.63643 0.90346 0.1735 0.0
H1166 H 0.65478 0.83201 0.14709 0.0
H1167 H 0.63975 0.84912 0.14437 0.0
C1168 C 0.58849 0.59636 0.63642 0.0
C1169 C 0.59015 0.58423 0.61356 0.0
C1170 C 0.59787 0.60538 0.63136 0.0
C1171 C 0.63197 0.60869 0.60868 0.0
H1172 H 0.62325 0.64371 0.58959 0.0
C1173 C 0.66849 0.64847 0.63768 0.0
C1174 C 0.66783 0.65849 0.59804 0.0
C1175 C 0.65893 0.63947 0.63982 0.0
C1176 C 0.6259 0.63397 0.59446 0.0
H1177 H 0.60292 0.57227 0.56541 0.0
H1178 H 0.61927 0.58819 0.55534 0.0
H1179 H 0.60692 0.62791 0.58627 0.0
H1180 H 0.65643 0.66696 0.5302 0.0
H1181 H 0.64007 0.6513 0.53321 0.0
H1182 H 0.65103 0.61479 0.61511 0.0
C1183 C 0.61074 0.59059 0.57832 0.0
C1184 C 0.61649 0.6249 0.5932 0.0
C1185 C 0.60132 0.5815 0.58355 0.0
C1186 C 0.65728 0.65943 0.56154 0.0
C1187 C 0.64781 0.65043 0.56345 0.0
C1188 C 0.64142 0.61779 0.60956 0.0
C1189 C 0.60919 0.6026 0.60289 0.0
C1190 C 0.61937 0.61214 0.60071 0.0
C1191 C 0.64853 0.64028 0.60225 0.0
C1192 C 0.6385 0.63056 0.60261 0.0
H1193 H 0.58004 0.59885 0.65988 0.0
H1194 H 0.59638 0.61443 0.65156 0.0
H1195 H 0.63453 0.59897 0.61532 0.0
H1196 H 0.67647 0.64745 0.66648 0.0
H1197 H 0.6597 0.63188 0.67089 0.0
C1198 C 0.60301 0.41785 0.90319 0.0
C1199 C 0.59048 0.41384 0.9015 0.0
C1200 C 0.61275 0.40908 0.90637 0.0
C1201 C 0.6186 0.37555 0.87283 0.0
H1202 H 0.65029 0.38137 0.95071 0.0
C1203 C 0.65526 0.33685 0.91387 0.0
C1204 C 0.66795 0.33983 0.9052 0.0
C1205 C 0.64604 0.34608 0.9093 0.0
C1206 C 0.64153 0.3797 0.92818 0.0
H1207 H 0.57828 0.39765 0.90678 0.0
H1208 H 0.59517 0.38245 0.91496 0.0
H1209 H 0.6337 0.39707 0.95748 0.0
H1210 H 0.68087 0.35478 0.88306 0.0
H1211 H 0.6647 0.37097 0.87556 0.0
H1212 H 0.62635 0.35804 0.84479 0.0
C1213 C 0.59756 0.39228 0.91134 0.0
C1214 C 0.63201 0.38868 0.93209 0.0
C1215 C 0.58786 0.40101 0.90734 0.0
C1216 C 0.67117 0.35217 0.88969 0.0
C1217 C 0.66194 0.36146 0.88596 0.0
C1218 C 0.62805 0.36653 0.86946 0.0
C1219 C 0.61014 0.39615 0.90862 0.0
C1220 C 0.62038 0.38668 0.90482 0.0
C1221 C 0.64932 0.35854 0.89667 0.0
C1222 C 0.63959 0.36847 0.89732 0.0
H1223 H 0.60533 0.42767 0.8983 0.0
H1224 H 0.62231 0.41242 0.904 0.0
H1225 H 0.60992 0.3738 0.84984 0.0
H1226 H 0.65246 0.32744 0.92581 0.0
H1227 H 0.6364 0.34357 0.91803 0.0
C1228 C 0.83633 0.33827 0.13744 0.0
C1229 C 0.82354 0.34125 0.14114 0.0
C1230 C 0.8454 0.34765 0.14046 0.0
C1231 C 0.84993 0.38084 0.10841 0.0
H1232 H 0.8813 0.37602 0.19036 0.0
C1233 C 0.90422 0.40048 0.11635 0.0
C1234 C 0.90227 0.41349 0.11848 0.0
C1235 C 0.8941 0.39222 0.11712 0.0
C1236 C 0.87265 0.37745 0.16656 0.0
H1237 H 0.81025 0.35641 0.1531 0.0
H1238 H 0.8262 0.37289 0.15816 0.0
H1239 H 0.86454 0.36077 0.20185 0.0
H1240 H 0.88811 0.42806 0.11952 0.0
H1241 H 0.87037 0.41358 0.12147 0.0
H1242 H 0.85817 0.39743 0.0722 0.0
C1243 C 0.82915 0.36325 0.15271 0.0
C1244 C 0.86302 0.36874 0.17351 0.0
C1245 C 0.82004 0.35381 0.15041 0.0
C1246 C 0.88992 0.41808 0.11755 0.0
C1247 C 0.87975 0.40977 0.11882 0.0
C1248 C 0.85961 0.38956 0.10121 0.0
C1249 C 0.84192 0.36027 0.14673 0.0
C1250 C 0.85162 0.37023 0.14388 0.0
C1251 C 0.88175 0.39674 0.12066 0.0
C1252 C 0.87118 0.38784 0.12946 0.0
H1253 H 0.83934 0.32869 0.13039 0.0
H1254 H 0.85515 0.34506 0.13531 0.0
H1255 H 0.84128 0.38217 0.08453 0.0
H1256 H 0.91361 0.39664 0.11634 0.0
H1257 H 0.89597 0.38224 0.11662 0.0
C1258 C 0.81897 0.63901 0.37564 0.0
C1259 C 0.82305 0.6515 0.38051 0.0
C1260 C 0.8277 0.62921 0.37228 0.0
C1261 C 0.86098 0.62227 0.34172 0.0
H1262 H 0.8572 0.59556 0.45507 0.0
C1263 C 0.88879 0.57421 0.41016 0.0
C1264 C 0.90103 0.57897 0.40565 0.0
C1265 C 0.87846 0.58233 0.40781 0.0
C1266 C 0.85832 0.60286 0.42271 0.0
H1267 H 0.83937 0.66358 0.38197 0.0
H1268 H 0.8545 0.64661 0.37499 0.0
H1269 H 0.84034 0.61085 0.44187 0.0
H1270 H 0.91209 0.59598 0.40056 0.0
H1271 H 0.89422 0.61006 0.39821 0.0
H1272 H 0.87894 0.61445 0.3228 0.0
C1273 C 0.84462 0.64432 0.37416 0.0
C1274 C 0.84865 0.61158 0.41499 0.0
C1275 C 0.83595 0.65405 0.37833 0.0
C1276 C 0.90277 0.59201 0.40333 0.0
C1277 C 0.89252 0.60008 0.40139 0.0
C1278 C 0.87059 0.61356 0.34929 0.0
C1279 C 0.84062 0.63178 0.37267 0.0
C1280 C 0.85002 0.62154 0.37532 0.0
C1281 C 0.88024 0.59532 0.4012 0.0
C1282 C 0.86952 0.60394 0.39089 0.0
H1283 H 0.80909 0.63675 0.37766 0.0
H1284 H 0.82436 0.61964 0.37065 0.0
H1285 H 0.86222 0.62971 0.31015 0.0
H1286 H 0.88716 0.5642 0.41169 0.0
H1287 H 0.86912 0.57838 0.40801 0.0
C1288 C 0.40392 0.4024 0.36109 0.0
C1289 C 0.40128 0.41522 0.36835 0.0
C1290 C 0.39438 0.39348 0.36533 0.0
C1291 C 0.36117 0.38964 0.33964 0.0
H1292 H 0.36402 0.35973 0.43437 0.0
C1293 C 0.33564 0.33828 0.38216 0.0
C1294 C 0.32303 0.34193 0.37884 0.0
C1295 C 0.34521 0.34713 0.37681 0.0
C1296 C 0.36314 0.36788 0.40666 0.0
H1297 H 0.38662 0.4287 0.38702 0.0
H1298 H 0.36988 0.41307 0.39327 0.0
H1299 H 0.38067 0.37531 0.4364 0.0
H1300 H 0.31053 0.35765 0.36536 0.0
H1301 H 0.32716 0.3732 0.35816 0.0
H1302 H 0.34389 0.38211 0.3081 0.0
C1303 C 0.37937 0.40998 0.38469 0.0
C1304 C 0.37266 0.37687 0.40839 0.0
C1305 C 0.38896 0.41889 0.38162 0.0
C1306 C 0.32018 0.35455 0.36756 0.0
C1307 C 0.32975 0.36347 0.36338 0.0
C1308 C 0.35174 0.38055 0.33705 0.0
C1309 C 0.38197 0.39722 0.3758 0.0
C1310 C 0.37174 0.38784 0.37508 0.0
C1311 C 0.3424 0.35992 0.36934 0.0
C1312 C 0.35258 0.36953 0.37061 0.0
H1313 H 0.41332 0.39928 0.35084 0.0
H1314 H 0.39662 0.3837 0.35819 0.0
H1315 H 0.36034 0.39796 0.31292 0.0
H1316 H 0.33812 0.32859 0.3903 0.0
H1317 H 0.35481 0.34394 0.37973 0.0
C1318 C 0.40437 0.59483 0.10703 0.0
C1319 C 0.40193 0.5819 0.1044 0.0
C1320 C 0.39459 0.60348 0.10521 0.0
C1321 C 0.37265 0.61882 0.14566 0.0
H1322 H 0.34276 0.61522 0.05124 0.0
C1323 C 0.33726 0.65868 0.1079 0.0
C1324 C 0.32443 0.65576 0.1081 0.0
C1325 C 0.34624 0.64922 0.11264 0.0
C1326 C 0.35099 0.61624 0.07845 0.0
H1327 H 0.38732 0.56794 0.09479 0.0
H1328 H 0.37016 0.58306 0.09262 0.0
H1329 H 0.35953 0.59972 0.04318 0.0
H1330 H 0.31093 0.64065 0.11542 0.0
H1331 H 0.3267 0.62406 0.12321 0.0
H1332 H 0.36424 0.6355 0.17976 0.0
C1333 C 0.37967 0.58653 0.09541 0.0
C1334 C 0.36061 0.60737 0.07378 0.0
C1335 C 0.38951 0.57785 0.09657 0.0
C1336 C 0.32075 0.6432 0.11546 0.0
C1337 C 0.32976 0.6337 0.11934 0.0
C1338 C 0.36311 0.62771 0.14992 0.0
C1339 C 0.38207 0.59944 0.10149 0.0
C1340 C 0.37164 0.60864 0.10684 0.0
C1341 C 0.34259 0.63661 0.11699 0.0
C1342 C 0.35223 0.62659 0.11599 0.0
H1343 H 0.41385 0.59826 0.11243 0.0
H1344 H 0.39683 0.61336 0.10812 0.0
H1345 H 0.38084 0.61993 0.17306 0.0
H1346 H 0.3404 0.66826 0.10238 0.0
H1347 H 0.35605 0.65175 0.11037 0.0
C1348 C 0.16349 0.65863 0.8728 0.0
C1349 C 0.17619 0.65518 0.87185 0.0
C1350 C 0.15412 0.64954 0.86906 0.0
C1351 C 0.14835 0.61704 0.9077 0.0
H1352 H 0.11786 0.62142 0.81841 0.0
C1353 C 0.09379 0.59812 0.89447 0.0
C1354 C 0.09562 0.58513 0.89932 0.0
C1355 C 0.10401 0.60627 0.89219 0.0
C1356 C 0.12623 0.62013 0.84432 0.0
H1357 H 0.18904 0.63955 0.86368 0.0
H1358 H 0.17258 0.62359 0.85769 0.0
H1359 H 0.13507 0.63615 0.80602 0.0
H1360 H 0.1096 0.57054 0.90844 0.0
H1361 H 0.12749 0.58475 0.90346 0.0
H1362 H 0.1394 0.60124 0.94736 0.0
C1363 C 0.16993 0.63336 0.86134 0.0
C1364 C 0.13613 0.62853 0.83677 0.0
C1365 C 0.17933 0.64249 0.86417 0.0
C1366 C 0.10788 0.58051 0.90507 0.0
C1367 C 0.11814 0.58867 0.9021 0.0
C1368 C 0.13839 0.60869 0.91568 0.0
C1369 C 0.15724 0.63678 0.86505 0.0
C1370 C 0.14724 0.62716 0.86882 0.0
C1371 C 0.11633 0.60162 0.89391 0.0
C1372 C 0.12714 0.61023 0.88464 0.0
H1373 H 0.16078 0.66834 0.87861 0.0
H1374 H 0.14443 0.65247 0.87231 0.0
H1375 H 0.15676 0.61586 0.93355 0.0
H1376 H 0.08445 0.60199 0.89058 0.0
H1377 H 0.10222 0.61621 0.88775 0.0
C1378 C 0.17609 0.35341 0.62381 0.0
C1379 C 0.17254 0.34084 0.61598 0.0
C1380 C 0.16699 0.36281 0.62889 0.0
C1381 C 0.1336 0.36833 0.59125 0.0
H1382 H 0.13762 0.39844 0.6841 0.0
C1383 C 0.09321 0.40247 0.64087 0.0
C1384 C 0.09562 0.41538 0.63613 0.0
C1385 C 0.1029 0.39377 0.63547 0.0
C1386 C 0.13646 0.39013 0.65748 0.0
H1387 H 0.15673 0.32813 0.61197 0.0
H1388 H 0.14093 0.34435 0.62344 0.0
H1389 H 0.15387 0.3823 0.68616 0.0
H1390 H 0.11009 0.42927 0.62104 0.0
H1391 H 0.12712 0.41397 0.61233 0.0
H1392 H 0.11605 0.37603 0.56388 0.0
C1393 C 0.15069 0.3471 0.62319 0.0
C1394 C 0.14575 0.38088 0.65863 0.0
C1395 C 0.15975 0.33776 0.61725 0.0
C1396 C 0.10793 0.41939 0.62456 0.0
C1397 C 0.11768 0.41065 0.62009 0.0
C1398 C 0.12428 0.3775 0.59066 0.0
C1399 C 0.15416 0.35979 0.62697 0.0
C1400 C 0.14439 0.36979 0.62588 0.0
C1401 C 0.11526 0.39777 0.626 0.0
C1402 C 0.12556 0.38845 0.62402 0.0
H1403 H 0.18588 0.35608 0.62259 0.0
H1404 H 0.17004 0.37247 0.6315 0.0
H1405 H 0.13236 0.36012 0.5641 0.0
H1406 H 0.08384 0.39909 0.64969 0.0
H1407 H 0.10077 0.3839 0.64056 0.0
C1408 C 0.20647 0.19893 0.91739 0.0
C1409 C 0.21561 0.19836 0.96135 0.0
C1410 C 0.20547 0.20944 0.88164 0.0
C1411 C 0.2123 0.24313 0.8786 0.0
H1412 H 0.20427 0.23972 0.71446 0.0
C1413 C 0.20818 0.28547 0.72094 0.0
C1414 C 0.19878 0.28496 0.67791 0.0
C1415 C 0.2105 0.27516 0.75696 0.0
C1416 C 0.20636 0.24084 0.76038 0.0
H1417 H 0.23115 0.20824 0.00121 0.0
H1418 H 0.22944 0.22671 0.93821 0.0
H1419 H 0.20874 0.22109 0.77211 0.0
H1420 H 0.18411 0.27334 0.64103 0.0
H1421 H 0.18802 0.25547 0.70448 0.0
H1422 H 0.2098 0.26289 0.86687 0.0
C1423 C 0.22297 0.21901 0.93194 0.0
C1424 C 0.20898 0.23016 0.79337 0.0
C1425 C 0.22402 0.20841 0.96765 0.0
C1426 C 0.19145 0.27406 0.67343 0.0
C1427 C 0.19377 0.26376 0.70948 0.0
C1428 C 0.20967 0.25383 0.84554 0.0
C1429 C 0.21358 0.21969 0.88895 0.0
C1430 C 0.21184 0.23115 0.85301 0.0
C1431 C 0.20348 0.26409 0.7509 0.0
C1432 C 0.20652 0.25279 0.78617 0.0
H1433 H 0.1999 0.19131 0.91117 0.0
H1434 H 0.19806 0.20969 0.84942 0.0
H1435 H 0.21432 0.2442 0.92461 0.0
H1436 H 0.21404 0.2937 0.72568 0.0
H1437 H 0.21809 0.27572 0.78814 0.0
C1438 C 0.96258 0.94716 0.00326 0.0
C1439 C 0.96336 0.9388 0.95586 0.0
C1440 C 0.97281 0.949 0.04023 0.0
C1441 C 0.00722 0.946 0.04141 0.0
H1442 H 0.00366 0.95144 0.20782 0.0
C1443 C 0.0491 0.946 0.1987 0.0
C1444 C 0.04931 0.95473 0.24457 0.0
C1445 C 0.03863 0.94492 0.16273 0.0
C1446 C 0.00477 0.95012 0.16127 0.0
H1447 H 0.97537 0.92535 0.91215 0.0
H1448 H 0.99314 0.92837 0.97745 0.0
H1449 H 0.98517 0.94683 0.14891 0.0
H1450 H 0.03883 0.96942 0.2879 0.0
H1451 H 0.02039 0.96754 0.22458 0.0
H1452 H 0.02683 0.94914 0.05388 0.0
C1453 C 0.98468 0.93372 0.98514 0.0
C1454 C 0.99419 0.94744 0.12752 0.0
C1455 C 0.97444 0.93189 0.94803 0.0
C1456 C 0.03894 0.96264 0.25275 0.0
C1457 C 0.02836 0.96148 0.21688 0.0
C1458 C 0.01779 0.94864 0.07514 0.0
C1459 C 0.98408 0.9425 0.03091 0.0
C1460 C 0.9953 0.94526 0.06721 0.0
C1461 C 0.02807 0.95251 0.17183 0.0
C1462 C 0.01671 0.95063 0.13552 0.0
H1463 H 0.9542 0.95265 0.01078 0.0
H1464 H 0.97203 0.95589 0.07474 0.0
H1465 H 0.0084 0.94468 0.99491 0.0
H1466 H 0.05697 0.9398 0.19112 0.0
H1467 H 0.03868 0.93784 0.12887 0.0
C1468 C 0.28973 0.70985 0.23004 0.0
C1469 C 0.29909 0.71082 0.18701 0.0
C1470 C 0.28763 0.71965 0.26933 0.0
C1471 C 0.30183 0.74839 0.33071 0.0
H1472 H 0.26739 0.75893 0.35341 0.0
C1473 C 0.29026 0.79662 0.42451 0.0
C1474 C 0.28081 0.79751 0.46696 0.0
C1475 C 0.29197 0.78558 0.393 0.0
C1476 C 0.27704 0.75601 0.34817 0.0
H1477 H 0.31391 0.7227 0.15332 0.0
H1478 H 0.31026 0.73975 0.22187 0.0
H1479 H 0.27189 0.74017 0.29596 0.0
H1480 H 0.26537 0.78769 0.5079 0.0
H1481 H 0.26839 0.76825 0.45245 0.0
H1482 H 0.30701 0.76426 0.38226 0.0
C1483 C 0.30456 0.73138 0.22532 0.0
C1484 C 0.27963 0.74525 0.31532 0.0
C1485 C 0.30664 0.72161 0.18585 0.0
C1486 C 0.27273 0.78727 0.47542 0.0
C1487 C 0.27446 0.77615 0.44373 0.0
C1488 C 0.29925 0.75911 0.36352 0.0
C1489 C 0.29489 0.73061 0.26679 0.0
C1490 C 0.29207 0.74144 0.30546 0.0
C1491 C 0.2843 0.77512 0.4031 0.0
C1492 C 0.28684 0.76318 0.37176 0.0
H1493 H 0.28375 0.70166 0.23246 0.0
H1494 H 0.28023 0.71869 0.30133 0.0
H1495 H 0.3115 0.74558 0.32488 0.0
H1496 H 0.29651 0.80441 0.4162 0.0
H1497 H 0.2994 0.78523 0.3609 0.0
C1498 C 0.52748 0.06799 0.4346 0.0
C1499 C 0.53835 0.06068 0.44115 0.0
C1500 C 0.51753 0.0668 0.47398 0.0
C1501 C 0.50351 0.04369 0.5722 0.0
H1502 H 0.48451 0.07184 0.63197 0.0
C1503 C 0.46268 0.03753 0.73683 0.0
C1504 C 0.45237 0.04559 0.73068 0.0
C1505 C 0.4735 0.03937 0.70328 0.0
C1506 C 0.48961 0.06385 0.61508 0.0
H1507 H 0.54749 0.04688 0.49632 0.0
H1508 H 0.53017 0.04486 0.56448 0.0
H1509 H 0.5029 0.07562 0.57147 0.0
H1510 H 0.44508 0.06153 0.68293 0.0
H1511 H 0.46366 0.06449 0.62352 0.0
H1512 H 0.49009 0.03188 0.61441 0.0
C1513 C 0.52929 0.05137 0.5285 0.0
C1514 C 0.50018 0.06605 0.5806 0.0
C1515 C 0.53925 0.05261 0.48953 0.0
C1516 C 0.45293 0.05525 0.68918 0.0
C1517 C 0.46365 0.05701 0.6554 0.0
C1518 C 0.49287 0.04148 0.60624 0.0
C1519 C 0.51821 0.05824 0.52044 0.0
C1520 C 0.50722 0.05599 0.55864 0.0
C1521 C 0.47416 0.04924 0.66259 0.0
C1522 C 0.48573 0.05153 0.62785 0.0
H1523 H 0.52645 0.07429 0.39791 0.0
H1524 H 0.50908 0.0722 0.46659 0.0
H1525 H 0.50865 0.03573 0.5552 0.0
H1526 H 0.46254 0.03006 0.76875 0.0
H1527 H 0.48144 0.03325 0.71035 0.0
C1528 C 0.21184 0.70974 0.76111 0.0
C1529 C 0.2028 0.71042 0.80572 0.0
C1530 C 0.21381 0.71987 0.72362 0.0
C1531 C 0.19926 0.74897 0.66907 0.0
H1532 H 0.23348 0.75925 0.63811 0.0
C1533 C 0.22679 0.78678 0.51312 0.0
C1534 C 0.21864 0.79699 0.52093 0.0
C1535 C 0.22553 0.77602 0.54773 0.0
C1536 C 0.22388 0.75641 0.64578 0.0
H1537 H 0.18849 0.72221 0.84453 0.0
H1538 H 0.19191 0.73985 0.77904 0.0
H1539 H 0.22947 0.74051 0.69649 0.0
H1540 H 0.20345 0.80432 0.57364 0.0
H1541 H 0.20144 0.78579 0.6343 0.0
H1542 H 0.19363 0.76481 0.61861 0.0
C1543 C 0.19744 0.73144 0.77297 0.0
C1544 C 0.22158 0.74568 0.67917 0.0
C1545 C 0.1955 0.72133 0.81065 0.0
C1546 C 0.20973 0.79652 0.56592 0.0
C1547 C 0.20852 0.78585 0.60046 0.0
C1548 C 0.20155 0.75966 0.63569 0.0
C1549 C 0.20674 0.7309 0.72958 0.0
C1550 C 0.20923 0.74192 0.69171 0.0
C1551 C 0.21615 0.77533 0.59078 0.0
C1552 C 0.21388 0.76362 0.62428 0.0
H1553 H 0.21763 0.70148 0.75583 0.0
H1554 H 0.22091 0.71908 0.6901 0.0
H1555 H 0.18965 0.7462 0.67699 0.0
H1556 H 0.23373 0.78687 0.4787 0.0
H1557 H 0.23156 0.76806 0.53919 0.0
C1558 C 0.45621 0.96471 0.7634 0.0
C1559 C 0.45202 0.95516 0.72608 0.0
C1560 C 0.46722 0.96312 0.79601 0.0
C1561 C 0.48835 0.93767 0.84781 0.0
H1562 H 0.5108 0.96504 0.88516 0.0
C1563 C 0.52778 0.93224 0.01645 0.0
C1564 C 0.53894 0.93903 0.0091 0.0
C1565 C 0.51768 0.93406 0.97885 0.0
C1566 C 0.50473 0.95725 0.87441 0.0
H1567 H 0.45666 0.93702 0.68986 0.0
H1568 H 0.47576 0.93437 0.74429 0.0
H1569 H 0.49235 0.96899 0.82528 0.0
H1570 H 0.54844 0.95263 0.9544 0.0
H1571 H 0.53095 0.95545 0.88732 0.0
H1572 H 0.50087 0.92582 0.89476 0.0
C1573 C 0.47034 0.94281 0.75127 0.0
C1574 C 0.49402 0.95957 0.84085 0.0
C1575 C 0.4593 0.94432 0.71982 0.0
C1576 C 0.53996 0.94726 0.96143 0.0
C1577 C 0.52987 0.94899 0.92335 0.0
C1578 C 0.49909 0.93533 0.8806 0.0
C1579 C 0.47433 0.95203 0.79087 0.0
C1580 C 0.48569 0.94979 0.82712 0.0
C1581 C 0.5185 0.94261 0.93234 0.0
C1582 C 0.50739 0.94508 0.89474 0.0
H1583 H 0.45079 0.97322 0.7686 0.0
H1584 H 0.46997 0.97042 0.82619 0.0
H1585 H 0.48207 0.92992 0.83917 0.0
H1586 H 0.52659 0.92592 0.05297 0.0
H1587 H 0.50904 0.92911 0.98782 0.0
C1588 C 0.29493 0.20293 0.05658 0.0
C1589 C 0.2842 0.20095 0.0224 0.0
C1590 C 0.29561 0.21296 0.09532 0.0
C1591 C 0.28067 0.24357 0.13072 0.0
H1592 H 0.30231 0.2407 0.26561 0.0
C1593 C 0.29452 0.28718 0.26551 0.0
C1594 C 0.29683 0.28573 0.32538 0.0
C1595 C 0.29268 0.27669 0.22989 0.0
C1596 C 0.29604 0.24171 0.22887 0.0
H1597 H 0.26542 0.20763 0.00456 0.0
H1598 H 0.26631 0.22487 0.07486 0.0
H1599 H 0.29841 0.22251 0.20592 0.0
H1600 H 0.29874 0.27223 0.39526 0.0
H1601 H 0.29492 0.25403 0.33435 0.0
H1602 H 0.27766 0.2626 0.15604 0.0
C1603 C 0.27446 0.21893 0.06982 0.0
C1604 C 0.29398 0.23124 0.19363 0.0
C1605 C 0.27388 0.20897 0.02988 0.0
C1606 C 0.29726 0.27361 0.34898 0.0
C1607 C 0.29508 0.26315 0.31376 0.0
C1608 C 0.28247 0.25399 0.1669 0.0
C1609 C 0.28541 0.22115 0.10263 0.0
C1610 C 0.28651 0.23206 0.14323 0.0
C1611 C 0.29273 0.2645 0.2536 0.0
C1612 C 0.29037 0.25328 0.21602 0.0
H1613 H 0.30297 0.19682 0.0531 0.0
H1614 H 0.30431 0.21439 0.11854 0.0
H1615 H 0.27492 0.24466 0.0922 0.0
H1616 H 0.29412 0.29643 0.24623 0.0
H1617 H 0.29122 0.27819 0.18373 0.0
C1618 C 0.03526 0.03162 0.23787 0.0
C1619 C 0.04546 0.03968 0.24767 0.0
C1620 C 0.02406 0.03322 0.26906 0.0
C1621 C 0.00384 0.03534 0.36462 0.0
H1622 H 0.99295 0.06966 0.38845 0.0
C1623 C 0.95762 0.04718 0.48397 0.0
C1624 C 0.95842 0.05666 0.52654 0.0
C1625 C 0.9674 0.04526 0.44436 0.0
C1626 C 0.99589 0.06003 0.38251 0.0
H1627 H 0.05219 0.05521 0.30015 0.0
H1628 H 0.03285 0.05791 0.35434 0.0
H1629 H 0.01176 0.06547 0.33159 0.0
H1630 H 0.96997 0.07188 0.55905 0.0
H1631 H 0.98698 0.0685 0.49023 0.0
H1632 H 0.98806 0.02993 0.41645 0.0
C1633 C 0.03331 0.05058 0.3217 0.0
C1634 C 0.00668 0.05762 0.34995 0.0
C1635 C 0.04443 0.04898 0.29078 0.0
C1636 C 0.969 0.06451 0.52687 0.0
C1637 C 0.97876 0.06259 0.4872 0.0
C1638 C 0.99303 0.03776 0.39734 0.0
C1639 C 0.0229 0.04291 0.31044 0.0
C1640 C 0.01091 0.04527 0.34148 0.0
C1641 C 0.97818 0.05279 0.44619 0.0
C1642 C 0.98905 0.05015 0.40744 0.0
H1643 H 0.03577 0.02438 0.20486 0.0
H1644 H 0.0162 0.02715 0.25945 0.0
H1645 H 0.0069 0.02573 0.35917 0.0
H1646 H 0.94961 0.04097 0.48222 0.0
H1647 H 0.96657 0.03776 0.41273 0.0
C1648 C 0.77865 0.78461 0.01304 0.0
C1649 C 0.7867 0.79482 0.02281 0.0
C1650 C 0.7797 0.77371 0.04688 0.0
C1651 C 0.80289 0.7568 0.13661 0.0
H1652 H 0.7743 0.73852 0.19651 0.0
C1653 C 0.80765 0.71863 0.31303 0.0
C1654 C 0.79979 0.70808 0.30994 0.0
C1655 C 0.8061 0.72863 0.27432 0.0
C1656 C 0.78239 0.74341 0.17937 0.0
H1657 H 0.80161 0.80191 0.07799 0.0
H1658 H 0.80336 0.78307 0.13685 0.0
H1659 H 0.77097 0.75725 0.1373 0.0
H1660 H 0.78439 0.69963 0.26211 0.0
H1661 H 0.78184 0.717 0.19423 0.0
H1662 H 0.81432 0.74305 0.17865 0.0
C1663 C 0.79645 0.7833 0.10226 0.0
C1664 C 0.78046 0.75415 0.14554 0.0
C1665 C 0.7954 0.79413 0.06865 0.0
C1666 C 0.7906 0.70762 0.26596 0.0
C1667 C 0.78906 0.71762 0.22727 0.0
C1668 C 0.80481 0.74607 0.17025 0.0
C1669 C 0.78882 0.77286 0.09101 0.0
C1670 C 0.79071 0.76107 0.12448 0.0
C1671 C 0.79668 0.72833 0.23148 0.0
C1672 C 0.79459 0.73932 0.19268 0.0
H1673 H 0.77187 0.78485 0.97795 0.0
H1674 H 0.77368 0.76582 0.03713 0.0
H1675 H 0.81099 0.76176 0.11997 0.0
H1676 H 0.81479 0.71935 0.34639 0.0
H1677 H 0.81206 0.73678 0.27925 0.0
C1678 C 0.04033 0.04844 0.98582 0.0
C1679 C 0.03955 0.05749 0.03038 0.0
C1680 C 0.03048 0.04681 0.94644 0.0
C1681 C 0.0019 0.06172 0.88776 0.0
H1682 H 0.99082 0.02749 0.86289 0.0
C1683 C 0.95364 0.05097 0.79122 0.0
C1684 C 0.95263 0.04133 0.74975 0.0
C1685 C 0.96466 0.05265 0.82278 0.0
C1686 C 0.99389 0.03709 0.86867 0.0
H1687 H 0.02801 0.07233 0.06646 0.0
H1688 H 0.01086 0.0695 0.9976 0.0
H1689 H 0.00964 0.03153 0.92029 0.0
H1690 H 0.96227 0.02562 0.71002 0.0
H1691 H 0.98169 0.0286 0.76521 0.0
H1692 H 0.98614 0.06731 0.83655 0.0
C1693 C 0.01912 0.06368 0.99315 0.0
C1694 C 0.00468 0.0394 0.90154 0.0
C1695 C 0.02894 0.06528 0.03275 0.0
C1696 C 0.96277 0.03311 0.74185 0.0
C1697 C 0.97388 0.03483 0.77344 0.0
C1698 C 0.99115 0.05941 0.85479 0.0
C1699 C 0.01965 0.05423 0.9504 0.0
C1700 C 0.00871 0.05176 0.91208 0.0
C1701 C 0.97501 0.04476 0.81358 0.0
C1702 C 0.9869 0.04708 0.8456 0.0
H1703 H 0.04837 0.04229 0.9824 0.0
H1704 H 0.03126 0.03959 0.91338 0.0
H1705 H 0.00487 0.07132 0.8943 0.0
H1706 H 0.94592 0.05734 0.79899 0.0
H1707 H 0.96508 0.06018 0.85442 0.0
C1708 C 0.70223 0.28502 0.79011 0.0
C1709 C 0.69424 0.28397 0.83868 0.0
C1710 C 0.70465 0.27468 0.7545 0.0
C1711 C 0.70411 0.24007 0.75788 0.0
H1712 H 0.709 0.24322 0.59097 0.0
C1713 C 0.70626 0.19789 0.60151 0.0
C1714 C 0.71483 0.19819 0.55505 0.0
C1715 C 0.70483 0.20821 0.6382 0.0
C1716 C 0.70785 0.24224 0.63767 0.0
H1717 H 0.68202 0.27131 0.88594 0.0
H1718 H 0.68599 0.25332 0.82282 0.0
H1719 H 0.70314 0.2616 0.64814 0.0
H1720 H 0.72898 0.20937 0.51174 0.0
H1721 H 0.72645 0.22758 0.57616 0.0
H1722 H 0.70859 0.22064 0.74705 0.0
C1723 C 0.69064 0.2621 0.81322 0.0
C1724 C 0.70445 0.25275 0.67046 0.0
C1725 C 0.68825 0.27246 0.84908 0.0
C1726 C 0.72234 0.20887 0.5474 0.0
C1727 C 0.72081 0.21931 0.58387 0.0
C1728 C 0.70744 0.22954 0.72504 0.0
C1729 C 0.69909 0.26302 0.76624 0.0
C1730 C 0.70248 0.2518 0.73098 0.0
C1731 C 0.71188 0.21915 0.62902 0.0
C1732 C 0.70929 0.2305 0.66454 0.0
H1733 H 0.70702 0.29373 0.7806 0.0
H1734 H 0.71127 0.27574 0.71909 0.0
H1735 H 0.70296 0.23902 0.80454 0.0
H1736 H 0.70036 0.18977 0.60852 0.0
H1737 H 0.69781 0.20782 0.67224 0.0
C1738 C 0.45514 0.94812 0.46244 0.0
C1739 C 0.45616 0.93959 0.50894 0.0
C1740 C 0.46524 0.95014 0.4248 0.0
C1741 C 0.49589 0.9367 0.37964 0.0
H1742 H 0.5026 0.97062 0.32753 0.0
C1743 C 0.53478 0.9461 0.21562 0.0
C1744 C 0.5424 0.95667 0.22306 0.0
C1745 C 0.52382 0.94468 0.24759 0.0
C1746 C 0.50092 0.96112 0.34218 0.0
H1747 H 0.46853 0.92629 0.55139 0.0
H1748 H 0.48612 0.92996 0.48685 0.0
H1749 H 0.48434 0.96643 0.38856 0.0
H1750 H 0.54431 0.97439 0.26808 0.0
H1751 H 0.52519 0.97174 0.32656 0.0
H1752 H 0.51269 0.93143 0.33593 0.0
C1753 C 0.47747 0.93494 0.47849 0.0
C1754 C 0.49034 0.95867 0.37643 0.0
C1755 C 0.46735 0.93283 0.51569 0.0
C1756 C 0.5386 0.9661 0.26186 0.0
C1757 C 0.52764 0.96459 0.29503 0.0
C1758 C 0.50649 0.93916 0.34612 0.0
C1759 C 0.47663 0.94375 0.43306 0.0
C1760 C 0.48769 0.94641 0.39549 0.0
C1761 C 0.52026 0.9537 0.28899 0.0
C1762 C 0.50911 0.95137 0.32644 0.0
H1763 H 0.44664 0.95349 0.45593 0.0
H1764 H 0.46416 0.95681 0.38958 0.0
H1765 H 0.49411 0.92712 0.39283 0.0
H1766 H 0.5372 0.93889 0.18479 0.0
H1767 H 0.51816 0.93642 0.23998 0.0
C1768 C 0.78891 0.28702 0.26625 0.0
C1769 C 0.79812 0.28626 0.22244 0.0
C1770 C 0.78707 0.27711 0.30514 0.0
C1771 C 0.80192 0.2485 0.36409 0.0
H1772 H 0.76774 0.23744 0.38971 0.0
C1773 C 0.79154 0.20023 0.45994 0.0
C1774 C 0.7823 0.19928 0.5033 0.0
C1775 C 0.79291 0.21121 0.42771 0.0
C1776 C 0.77731 0.24051 0.38363 0.0
H1777 H 0.81294 0.27463 0.18687 0.0
H1778 H 0.80974 0.25738 0.25473 0.0
H1779 H 0.77172 0.25629 0.33218 0.0
H1780 H 0.76686 0.20891 0.54521 0.0
H1781 H 0.76926 0.22825 0.48858 0.0
H1782 H 0.80755 0.23271 0.41496 0.0
C1783 C 0.80396 0.26567 0.25909 0.0
C1784 C 0.77961 0.25131 0.35073 0.0
C1785 C 0.80577 0.27556 0.22003 0.0
C1786 C 0.77405 0.20937 0.51197 0.0
C1787 C 0.77544 0.22043 0.47961 0.0
C1788 C 0.79963 0.23774 0.39695 0.0
C1789 C 0.79444 0.26624 0.30142 0.0
C1790 C 0.79195 0.25532 0.33989 0.0
C1791 C 0.78509 0.22156 0.43807 0.0
C1792 C 0.78732 0.23349 0.40628 0.0
H1793 H 0.78284 0.29513 0.26958 0.0
H1794 H 0.77978 0.27791 0.3378 0.0
H1795 H 0.81151 0.25147 0.35748 0.0
H1796 H 0.79792 0.19255 0.45155 0.0
H1797 H 0.8002 0.21162 0.39495 0.0
C1798 C 0.45767 0.04982 0.00192 0.0
C1799 C 0.45901 0.05903 0.9584 0.0
C1800 C 0.46735 0.04748 0.04151 0.0
C1801 C 0.49701 0.06074 0.09976 0.0
H1802 H 0.50547 0.02597 0.12994 0.0
C1803 C 0.54511 0.04707 0.18591 0.0
C1804 C 0.54563 0.03899 0.23419 0.0
C1805 C 0.53397 0.04876 0.15538 0.0
C1806 C 0.50312 0.03571 0.12246 0.0
H1807 H 0.47146 0.07328 0.92395 0.0
H1808 H 0.48833 0.06914 0.9924 0.0
H1809 H 0.48675 0.03101 0.0731 0.0
H1810 H 0.53505 0.02576 0.28624 0.0
H1811 H 0.51542 0.02863 0.23183 0.0
H1812 H 0.51354 0.06543 0.14765 0.0
C1813 C 0.47975 0.0638 0.99645 0.0
C1814 C 0.49239 0.03862 0.09007 0.0
C1815 C 0.47007 0.06616 0.95695 0.0
C1816 C 0.53492 0.03203 0.24914 0.0
C1817 C 0.5237 0.0337 0.21818 0.0
C1818 C 0.50774 0.05783 0.13171 0.0
C1819 C 0.4786 0.05429 0.0386 0.0
C1820 C 0.48933 0.05118 0.07744 0.0
C1821 C 0.52305 0.04239 0.17212 0.0
C1822 C 0.51105 0.04529 0.14243 0.0
H1823 H 0.44926 0.04416 0.00455 0.0
H1824 H 0.46606 0.04024 0.07401 0.0
H1825 H 0.4948 0.0705 0.09207 0.0
H1826 H 0.55325 0.05241 0.17266 0.0
H1827 H 0.53384 0.05527 0.11915 0.0
C1828 C 0.69807 0.79639 0.95169 0.0
C1829 C 0.70911 0.79765 0.98452 0.0
C1830 C 0.69661 0.78659 0.9122 0.0
C1831 C 0.69699 0.76874 0.81136 0.0
H1832 H 0.7108 0.73611 0.84738 0.0
C1833 C 0.69271 0.72699 0.65154 0.0
C1834 C 0.6922 0.71482 0.67463 0.0
C1835 C 0.69474 0.73729 0.68807 0.0
C1836 C 0.70669 0.74511 0.83695 0.0
H1837 H 0.72754 0.78983 0.99962 0.0
H1838 H 0.72521 0.77285 0.9285 0.0
H1839 H 0.71482 0.75361 0.91248 0.0
H1840 H 0.69275 0.70393 0.75425 0.0
H1841 H 0.69553 0.72192 0.81839 0.0
H1842 H 0.68825 0.76014 0.73783 0.0
C1843 C 0.71748 0.77927 0.93488 0.0
C1844 C 0.70923 0.75524 0.87385 0.0
C1845 C 0.71888 0.78906 0.9753 0.0
C1846 C 0.69313 0.71322 0.73524 0.0
C1847 C 0.69491 0.72354 0.7719 0.0
C1848 C 0.69427 0.75858 0.77508 0.0
C1849 C 0.70625 0.77785 0.90315 0.0
C1850 C 0.70432 0.76719 0.86187 0.0
C1851 C 0.69609 0.7357 0.74874 0.0
C1852 C 0.69902 0.74658 0.78745 0.0
H1853 H 0.69041 0.80294 0.95669 0.0
H1854 H 0.68773 0.78575 0.88969 0.0
H1855 H 0.69324 0.77783 0.79977 0.0
H1856 H 0.69225 0.7285 0.60487 0.0
H1857 H 0.69576 0.74644 0.66824 0.0
C1858 C 0.04114 0.94562 0.50938 0.0
C1859 C 0.04002 0.93712 0.46264 0.0
C1860 C 0.03109 0.94772 0.54719 0.0
C1861 C 0.0008 0.93473 0.59673 0.0
H1862 H 0.99294 0.96939 0.63277 0.0
C1863 C 0.96443 0.96402 0.75361 0.0
C1864 C 0.95363 0.95683 0.74332 0.0
C1865 C 0.97524 0.96209 0.72005 0.0
C1866 C 0.99509 0.95966 0.62371 0.0
H1867 H 0.02758 0.92379 0.42077 0.0
H1868 H 0.01008 0.92746 0.48682 0.0
H1869 H 0.01159 0.96445 0.57555 0.0
H1870 H 0.9454 0.94261 0.68762 0.0
H1871 H 0.96405 0.93945 0.62876 0.0
H1872 H 0.98431 0.92991 0.64456 0.0
C1873 C 0.01876 0.93246 0.49427 0.0
C1874 C 0.00578 0.95682 0.59098 0.0
C1875 C 0.0288 0.93037 0.45631 0.0
C1876 C 0.95364 0.94818 0.69714 0.0
C1877 C 0.96436 0.9463 0.66364 0.0
C1878 C 0.99014 0.93756 0.62945 0.0
C1879 C 0.0197 0.94135 0.5394 0.0
C1880 C 0.00869 0.94432 0.57667 0.0
C1881 C 0.9754 0.95298 0.6756 0.0
C1882 C 0.98706 0.95007 0.64275 0.0
H1883 H 0.04965 0.95095 0.51588 0.0
H1884 H 0.0322 0.95446 0.58216 0.0
H1885 H 0.00289 0.925 0.58733 0.0
H1886 H 0.96471 0.97071 0.78911 0.0
H1887 H 0.98361 0.96739 0.73042 0.0
C1888 C 0.69074 0.7766 0.21622 0.0
C1889 C 0.69733 0.78798 0.21968 0.0
C1890 C 0.69338 0.76683 0.25477 0.0
C1891 C 0.71834 0.75498 0.35277 0.0
H1892 H 0.69203 0.73219 0.40094 0.0
C1893 C 0.72325 0.71254 0.51549 0.0
C1894 C 0.7174 0.7015 0.49592 0.0
C1895 C 0.72211 0.72367 0.48335 0.0
C1896 C 0.69948 0.73847 0.38768 0.0
H1897 H 0.71156 0.79814 0.26811 0.0
H1898 H 0.71591 0.78119 0.33634 0.0
H1899 H 0.68666 0.75094 0.34608 0.0
H1900 H 0.70678 0.69316 0.42527 0.0
H1901 H 0.70479 0.71248 0.36974 0.0
H1902 H 0.73111 0.74239 0.39549 0.0
C1903 C 0.70891 0.77972 0.30288 0.0
C1904 C 0.69642 0.74919 0.35603 0.0
C1905 C 0.70632 0.78948 0.26401 0.0
C1906 C 0.71125 0.70156 0.44181 0.0
C1907 C 0.71005 0.71262 0.41013 0.0
C1908 C 0.72139 0.74427 0.3852 0.0
C1909 C 0.7026 0.76819 0.29822 0.0
C1910 C 0.70582 0.75745 0.33693 0.0
C1911 C 0.71506 0.72387 0.43156 0.0
C1912 C 0.712 0.73578 0.40169 0.0
H1913 H 0.68383 0.77505 0.18243 0.0
H1914 H 0.68846 0.75804 0.24911 0.0
H1915 H 0.72585 0.76106 0.33843 0.0
H1916 H 0.72799 0.71277 0.55721 0.0
H1917 H 0.72609 0.73224 0.50062 0.0
C1918 C 0.47079 0.43694 0.41399 0.0
C1919 C 0.4586 0.43812 0.43624 0.0
C1920 C 0.48117 0.4387 0.45014 0.0
C1921 C 0.4902 0.45203 0.59545 0.0
H1922 H 0.5213 0.43489 0.56118 0.0
C1923 C 0.53554 0.46196 0.72764 0.0
C1924 C 0.54362 0.45178 0.7374 0.0
C1925 C 0.52538 0.46079 0.68918 0.0
C1926 C 0.51267 0.43965 0.5722 0.0
H1927 H 0.44769 0.4416 0.5142 0.0
H1928 H 0.46576 0.44383 0.57829 0.0
H1929 H 0.5031 0.4308 0.50184 0.0
H1930 H 0.54757 0.43256 0.71249 0.0
H1931 H 0.52966 0.43025 0.64972 0.0
H1932 H 0.49962 0.46023 0.66839 0.0
C1933 C 0.46739 0.44209 0.53242 0.0
C1934 C 0.50221 0.43747 0.53715 0.0
C1935 C 0.457 0.44064 0.49588 0.0
C1936 C 0.54143 0.44053 0.70722 0.0
C1937 C 0.53121 0.43928 0.66998 0.0
C1938 C 0.50062 0.45399 0.63142 0.0
C1939 C 0.47966 0.44139 0.5099 0.0
C1940 C 0.4908 0.44363 0.54809 0.0
C1941 C 0.52301 0.44937 0.66017 0.0
C1942 C 0.51201 0.44779 0.62049 0.0
H1943 H 0.47233 0.43526 0.36795 0.0
H1944 H 0.49038 0.43833 0.43048 0.0
H1945 H 0.48171 0.45719 0.60483 0.0
H1946 H 0.53702 0.4708 0.74983 0.0
H1947 H 0.51945 0.46887 0.68209 0.0
C1948 C 0.77253 0.28489 0.01094 0.0
C1949 C 0.78084 0.29495 0.00282 0.0
C1950 C 0.77349 0.27412 0.97604 0.0
C1951 C 0.78684 0.26268 0.83657 0.0
H1952 H 0.78728 0.23016 0.91179 0.0
C1953 C 0.80538 0.2193 0.71691 0.0
C1954 C 0.79825 0.20826 0.72112 0.0
C1955 C 0.80293 0.22948 0.75359 0.0
C1956 C 0.78705 0.23916 0.89005 0.0
H1957 H 0.79628 0.30186 0.95046 0.0
H1958 H 0.79793 0.28326 0.89015 0.0
H1959 H 0.78249 0.2489 0.96908 0.0
H1960 H 0.78335 0.19909 0.76952 0.0
H1961 H 0.7791 0.21686 0.83322 0.0
H1962 H 0.7915 0.25305 0.75777 0.0
C1963 C 0.79067 0.28359 0.9231 0.0
C1964 C 0.78426 0.24989 0.92282 0.0
C1965 C 0.78978 0.29424 0.95802 0.0
C1966 C 0.78903 0.20744 0.76491 0.0
C1967 C 0.7866 0.21763 0.80161 0.0
C1968 C 0.78963 0.252 0.80393 0.0
C1969 C 0.78266 0.27334 0.93205 0.0
C1970 C 0.78432 0.26179 0.89657 0.0
C1971 C 0.79331 0.22887 0.79538 0.0
C1972 C 0.78997 0.24013 0.8304 0.0
H1973 H 0.76557 0.28517 0.04527 0.0
H1974 H 0.76712 0.26639 0.98364 0.0
H1975 H 0.78674 0.27169 0.81482 0.0
H1976 H 0.81259 0.22026 0.684 0.0
H1977 H 0.80847 0.23791 0.74854 0.0
C1978 C 0.96356 0.53577 0.27937 0.0
C1979 C 0.95269 0.54289 0.26976 0.0
C1980 C 0.97448 0.5382 0.24746 0.0
C1981 C 0.98955 0.56343 0.1613 0.0
H1982 H 0.01082 0.53671 0.10391 0.0
C1983 C 0.02795 0.57079 0.98677 0.0
C1984 C 0.03905 0.56376 0.99154 0.0
C1985 C 0.01806 0.56887 0.02577 0.0
C1986 C 0.00508 0.54429 0.12038 0.0
H1987 H 0.94455 0.55769 0.21724 0.0
H1988 H 0.96343 0.56176 0.16119 0.0
H1989 H 0.99216 0.53157 0.16031 0.0
H1990 H 0.04869 0.54975 0.04351 0.0
H1991 H 0.03151 0.54653 0.11159 0.0
H1992 H 0.00238 0.57613 0.12061 0.0
C1993 C 0.96368 0.55455 0.19436 0.0
C1994 C 0.99437 0.54134 0.15267 0.0
C1995 C 0.95282 0.55215 0.22625 0.0
C1996 C 0.04026 0.55527 0.03813 0.0
C1997 C 0.03037 0.55334 0.07699 0.0
C1998 C 0.00024 0.56637 0.12892 0.0
C1999 C 0.97472 0.54778 0.20525 0.0
C2000 C 0.9864 0.55087 0.17299 0.0
C2001 C 0.01905 0.55988 0.07038 0.0
C2002 C 0.00807 0.55684 0.10768 0.0
H2003 H 0.96376 0.52861 0.31281 0.0
H2004 H 0.98284 0.53285 0.25711 0.0
H2005 H 0.98376 0.57101 0.17733 0.0
H2006 H 0.02667 0.57739 0.95143 0.0
H2007 H 0.00944 0.57402 0.01929 0.0
C2008 C 0.70527 0.29682 0.09521 0.0
C2009 C 0.71344 0.29696 0.04721 0.0
C2010 C 0.70479 0.28651 0.13238 0.0
C2011 C 0.71041 0.2527 0.13402 0.0
H2012 H 0.70568 0.25652 0.30076 0.0
C2013 C 0.70727 0.21053 0.29241 0.0
C2014 C 0.69875 0.21138 0.33914 0.0
C2015 C 0.70942 0.2208 0.256 0.0
C2016 C 0.70684 0.2553 0.25419 0.0
H2017 H 0.72786 0.28656 0.00161 0.0
H2018 H 0.72705 0.2684 0.06706 0.0
H2019 H 0.70988 0.27491 0.24093 0.0
H2020 H 0.68549 0.22362 0.38265 0.0
H2021 H 0.68909 0.24146 0.31846 0.0
H2022 H 0.70719 0.23309 0.14718 0.0
C2023 C 0.72094 0.2763 0.07548 0.0
C2024 C 0.70931 0.26583 0.21995 0.0
C2025 C 0.72149 0.28672 0.03836 0.0
C2026 C 0.69213 0.22263 0.34727 0.0
C2027 C 0.69429 0.23291 0.31077 0.0
C2028 C 0.70791 0.24214 0.16829 0.0
C2029 C 0.71244 0.27602 0.12241 0.0
C2030 C 0.71098 0.26468 0.15938 0.0
C2031 C 0.70311 0.23218 0.2653 0.0
C2032 C 0.70596 0.24334 0.22872 0.0
H2033 H 0.69898 0.3046 0.10333 0.0
H2034 H 0.69805 0.28657 0.1677 0.0
H2035 H 0.71147 0.25152 0.08737 0.0
H2036 H 0.71255 0.20202 0.28474 0.0
H2037 H 0.71634 0.21993 0.2217 0.0
C2038 C 0.96315 0.4583 0.25654 0.0
C2039 C 0.95315 0.44982 0.26132 0.0
C2040 C 0.97408 0.45654 0.28931 0.0
C2041 C 0.99124 0.43201 0.37264 0.0
H2042 H 0.00892 0.46041 0.4384 0.0
C2043 C 0.02905 0.42807 0.55323 0.0
C2044 C 0.0396 0.4359 0.54831 0.0
C2045 C 0.01911 0.42913 0.51378 0.0
C2046 C 0.00416 0.45239 0.41972 0.0
H2047 H 0.94654 0.43314 0.30561 0.0
H2048 H 0.96533 0.43027 0.36369 0.0
H2049 H 0.99023 0.46393 0.3797 0.0
H2050 H 0.04818 0.45056 0.49603 0.0
H2051 H 0.03086 0.45236 0.4277 0.0
H2052 H 0.00504 0.42048 0.41416 0.0
C2053 C 0.96499 0.43806 0.33347 0.0
C2054 C 0.99346 0.45441 0.38597 0.0
C2055 C 0.95415 0.43975 0.30044 0.0
C2056 C 0.0402 0.4444 0.50148 0.0
C2057 C 0.03024 0.44551 0.46244 0.0
C2058 C 0.00188 0.42999 0.40684 0.0
C2059 C 0.97516 0.44632 0.32787 0.0
C2060 C 0.98681 0.44424 0.36226 0.0
C2061 C 0.01948 0.43809 0.4689 0.0
C2062 C 0.00843 0.44016 0.43088 0.0
H2063 H 0.96267 0.46611 0.22647 0.0
H2064 H 0.98177 0.46303 0.28345 0.0
H2065 H 0.98652 0.42395 0.35412 0.0
H2066 H 0.02827 0.42142 0.58871 0.0
H2067 H 0.01091 0.4233 0.51992 0.0
C2068 C 0.79376 0.69875 0.57782 0.0
C2069 C 0.78465 0.69905 0.53369 0.0
C2070 C 0.79583 0.70918 0.61314 0.0
C2071 C 0.79328 0.74324 0.61289 0.0
H2072 H 0.79881 0.73997 0.77929 0.0
C2073 C 0.79865 0.78581 0.76641 0.0
C2074 C 0.80656 0.78476 0.81526 0.0
C2075 C 0.79654 0.77556 0.72993 0.0
C2076 C 0.79751 0.74102 0.73274 0.0
H2077 H 0.77029 0.71039 0.49281 0.0
H2078 H 0.77397 0.72879 0.55484 0.0
H2079 H 0.79291 0.72162 0.72225 0.0
H2080 H 0.81907 0.77226 0.86173 0.0
H2081 H 0.81563 0.75442 0.79703 0.0
H2082 H 0.79806 0.76259 0.62307 0.0
C2083 C 0.77952 0.72043 0.56176 0.0
C2084 C 0.79402 0.73052 0.70016 0.0
C2085 C 0.77735 0.70989 0.52668 0.0
C2086 C 0.81288 0.77339 0.82472 0.0
C2087 C 0.8108 0.76312 0.78797 0.0
C2088 C 0.79685 0.75374 0.64541 0.0
C2089 C 0.7889 0.72021 0.6049 0.0
C2090 C 0.79189 0.73151 0.6399 0.0
C2091 C 0.80234 0.76399 0.74104 0.0
C2092 C 0.79902 0.75276 0.70576 0.0
H2093 H 0.79951 0.6905 0.58436 0.0
H2094 H 0.80318 0.70874 0.64563 0.0
H2095 H 0.7919 0.74423 0.56634 0.0
H2096 H 0.79364 0.79443 0.75753 0.0
H2097 H 0.7899 0.77657 0.69455 0.0
C2098 C 0.53415 0.53263 0.73434 0.0
C2099 C 0.54473 0.54006 0.74591 0.0
C2100 C 0.52326 0.53399 0.76802 0.0
C2101 C 0.5075 0.55765 0.85974 0.0
H2102 H 0.48714 0.53002 0.91473 0.0
C2103 C 0.46912 0.5641 0.03401 0.0
C2104 C 0.4581 0.55696 0.02945 0.0
C2105 C 0.47912 0.56208 0.99575 0.0
C2106 C 0.49262 0.53786 0.89896 0.0
H2107 H 0.5525 0.55407 0.80412 0.0
H2108 H 0.5337 0.55632 0.86279 0.0
H2109 H 0.50583 0.52576 0.85639 0.0
H2110 H 0.44884 0.54236 0.97937 0.0
H2111 H 0.4662 0.539 0.91227 0.0
H2112 H 0.4944 0.56977 0.90216 0.0
C2113 C 0.53363 0.5497 0.82697 0.0
C2114 C 0.50335 0.5354 0.86564 0.0
C2115 C 0.54444 0.54835 0.79352 0.0
C2116 C 0.45719 0.54803 0.98439 0.0
C2117 C 0.46719 0.54601 0.94614 0.0
C2118 C 0.4968 0.56011 0.89283 0.0
C2119 C 0.52279 0.54281 0.81371 0.0
C2120 C 0.51101 0.54527 0.84643 0.0
C2121 C 0.47836 0.55288 0.95188 0.0
C2122 C 0.48931 0.55025 0.91355 0.0
H2123 H 0.53409 0.5262 0.69779 0.0
H2124 H 0.51505 0.52853 0.75678 0.0
H2125 H 0.51305 0.56549 0.84446 0.0
H2126 H 0.4702 0.57101 0.06826 0.0
H2127 H 0.48762 0.56745 0.00188 0.0
C2128 C 0.28879 0.21157 0.752 0.0
C2129 C 0.29804 0.21259 0.7955 0.0
C2130 C 0.28617 0.22165 0.71508 0.0
C2131 C 0.29902 0.25189 0.66256 0.0
H2132 H 0.26422 0.26012 0.63242 0.0
C2133 C 0.28554 0.29958 0.57071 0.0
C2134 C 0.27747 0.29969 0.5224 0.0
C2135 C 0.28705 0.28875 0.60382 0.0
C2136 C 0.27397 0.25786 0.64004 0.0
H2137 H 0.31201 0.22498 0.83298 0.0
H2138 H 0.3074 0.24254 0.76906 0.0
H2139 H 0.2694 0.24125 0.68793 0.0
H2140 H 0.26399 0.28879 0.47312 0.0
H2141 H 0.26659 0.26973 0.53166 0.0
H2142 H 0.3036 0.26856 0.61558 0.0
C2143 C 0.30224 0.23389 0.76302 0.0
C2144 C 0.27696 0.24704 0.67164 0.0
C2145 C 0.30487 0.22381 0.79988 0.0
C2146 C 0.27026 0.28898 0.51024 0.0
C2147 C 0.27177 0.27807 0.5436 0.0
C2148 C 0.29604 0.26269 0.63133 0.0
C2149 C 0.29275 0.233 0.72069 0.0
C2150 C 0.28953 0.24402 0.6839 0.0
C2151 C 0.28052 0.27775 0.58947 0.0
C2152 C 0.28349 0.26591 0.62044 0.0
H2153 H 0.28335 0.20305 0.74718 0.0
H2154 H 0.27894 0.22058 0.68235 0.0
H2155 H 0.3088 0.24971 0.67006 0.0
H2156 H 0.29109 0.30775 0.58166 0.0
H2157 H 0.29361 0.28889 0.63984 0.0
C2158 C 0.53557 0.55201 0.48856 0.0
C2159 C 0.53445 0.55991 0.5375 0.0
C2160 C 0.52545 0.55016 0.45102 0.0
C2161 C 0.49518 0.56315 0.40438 0.0
H2162 H 0.4873 0.52864 0.3652 0.0
C2163 C 0.44856 0.55042 0.29684 0.0
C2164 C 0.44865 0.54157 0.2515 0.0
C2165 C 0.45909 0.5522 0.33165 0.0
C2166 C 0.48946 0.53833 0.37505 0.0
H2167 H 0.52194 0.57252 0.58354 0.0
H2168 H 0.50429 0.56936 0.51745 0.0
H2169 H 0.50583 0.53332 0.42367 0.0
H2170 H 0.4597 0.52732 0.20816 0.0
H2171 H 0.47833 0.53056 0.26869 0.0
H2172 H 0.47893 0.56822 0.35553 0.0
C2173 C 0.51303 0.56458 0.50842 0.0
C2174 C 0.50006 0.54102 0.40859 0.0
C2175 C 0.52314 0.56639 0.5463 0.0
C2176 C 0.45936 0.53416 0.24305 0.0
C2177 C 0.47001 0.53603 0.27772 0.0
C2178 C 0.48464 0.56048 0.37057 0.0
C2179 C 0.514 0.55622 0.46119 0.0
C2180 C 0.50298 0.55345 0.42393 0.0
C2181 C 0.47007 0.54528 0.32163 0.0
C2182 C 0.48156 0.54803 0.356 0.0
H2183 H 0.54415 0.54691 0.48007 0.0
H2184 H 0.52655 0.54384 0.41438 0.0
H2185 H 0.49729 0.57283 0.4148 0.0
H2186 H 0.44037 0.55617 0.30482 0.0
H2187 H 0.45867 0.55914 0.36608 0.0
C2188 C 0.19479 0.77423 0.31236 0.0
C2189 C 0.20176 0.78533 0.30612 0.0
C2190 C 0.19686 0.76406 0.27508 0.0
C2191 C 0.22111 0.75028 0.18045 0.0
H2192 H 0.19362 0.73015 0.12217 0.0
C2193 C 0.22718 0.70928 0.01442 0.0
C2194 C 0.21934 0.69886 0.02242 0.0
C2195 C 0.22571 0.71999 0.04931 0.0
C2196 C 0.20143 0.73558 0.13865 0.0
H2197 H 0.21607 0.79455 0.25416 0.0
H2198 H 0.21957 0.77685 0.18917 0.0
H2199 H 0.18921 0.74873 0.18033 0.0
H2200 H 0.20448 0.69107 0.07567 0.0
H2201 H 0.20212 0.70948 0.13695 0.0
H2202 H 0.23333 0.73704 0.13906 0.0
C2203 C 0.21265 0.77596 0.22344 0.0
C2204 C 0.19888 0.74625 0.17189 0.0
C2205 C 0.21055 0.78614 0.2605 0.0
C2206 C 0.21053 0.69904 0.06788 0.0
C2207 C 0.20911 0.70964 0.10276 0.0
C2208 C 0.22367 0.73957 0.14726 0.0
C2209 C 0.20596 0.76474 0.23083 0.0
C2210 C 0.20869 0.75367 0.19356 0.0
C2211 C 0.2164 0.72038 0.09284 0.0
C2212 C 0.21385 0.73202 0.1265 0.0
H2213 H 0.18798 0.77325 0.34704 0.0
H2214 H 0.19162 0.75551 0.28216 0.0
H2215 H 0.22889 0.75574 0.19709 0.0
H2216 H 0.23403 0.7094 0.97956 0.0
H2217 H 0.23148 0.72812 0.04057 0.0
C2218 C 0.03402 0.45985 0.73065 0.0
C2219 C 0.04562 0.45668 0.75519 0.0
C2220 C 0.02292 0.45766 0.76155 0.0
C2221 C 0.01101 0.43924 0.88918 0.0
H2222 H 0.98132 0.45943 0.86593 0.0
C2223 C 0.96549 0.42737 0.01184 0.0
C2224 C 0.95808 0.43744 0.03077 0.0
C2225 C 0.97523 0.42931 0.97194 0.0
C2226 C 0.98955 0.45376 0.8737 0.0
H2227 H 0.05488 0.44935 0.83174 0.0
H2228 H 0.03574 0.44643 0.88745 0.0
H2229 H 0.00036 0.46458 0.81365 0.0
H2230 H 0.95492 0.45742 0.02182 0.0
H2231 H 0.97214 0.46094 0.95537 0.0
H2232 H 0.00057 0.42899 0.95232 0.0
C2233 C 0.03499 0.44999 0.84343 0.0
C2234 C 0.00048 0.4566 0.84273 0.0
C2235 C 0.04602 0.45185 0.81193 0.0
C2236 C 0.96038 0.44942 0.00774 0.0
C2237 C 0.97028 0.45143 0.9691 0.0
C2238 C 0.0002 0.43659 0.92115 0.0
C2239 C 0.02323 0.45251 0.81817 0.0
C2240 C 0.01142 0.44944 0.85031 0.0
C2241 C 0.97801 0.44144 0.95124 0.0
C2242 C 0.9893 0.44384 0.91422 0.0
H2243 H 0.03349 0.46339 0.68645 0.0
H2244 H 0.01411 0.45959 0.74003 0.0
H2245 H 0.01907 0.43322 0.8953 0.0
H2246 H 0.96388 0.418 0.02846 0.0
H2247 H 0.98067 0.42129 0.95814 0.0
C2248 C 0.27452 0.71278 0.97387 0.0
C2249 C 0.28313 0.70294 0.96646 0.0
C2250 C 0.2758 0.72389 0.9418 0.0
C2251 C 0.29988 0.74199 0.86188 0.0
H2252 H 0.27166 0.75945 0.79352 0.0
C2253 C 0.3055 0.77991 0.68488 0.0
C2254 C 0.29741 0.79031 0.68615 0.0
C2255 C 0.3039 0.77001 0.72402 0.0
C2256 C 0.27963 0.75478 0.81308 0.0
H2257 H 0.29933 0.69672 0.91723 0.0
H2258 H 0.30145 0.71589 0.86119 0.0
H2259 H 0.26807 0.74051 0.85089 0.0
H2260 H 0.28157 0.79861 0.73144 0.0
H2261 H 0.27886 0.78136 0.79979 0.0
H2262 H 0.31146 0.75612 0.8235 0.0
C2263 C 0.29394 0.71524 0.89279 0.0
C2264 C 0.27756 0.74393 0.8459 0.0
C2265 C 0.29267 0.70421 0.92473 0.0
C2266 C 0.28797 0.79075 0.72898 0.0
C2267 C 0.28634 0.78081 0.76795 0.0
C2268 C 0.30195 0.75281 0.82907 0.0
C2269 C 0.2857 0.72532 0.90176 0.0
C2270 C 0.28769 0.73729 0.8699 0.0
C2271 C 0.29415 0.77024 0.76529 0.0
C2272 C 0.29187 0.75925 0.80363 0.0
H2273 H 0.26708 0.71207 0.00578 0.0
H2274 H 0.2693 0.73149 0.94973 0.0
H2275 H 0.30787 0.73727 0.8809 0.0
H2276 H 0.31285 0.77923 0.6525 0.0
H2277 H 0.31002 0.76195 0.72049 0.0
C2278 C 0.96922 0.56806 0.48312 0.0
C2279 C 0.9585 0.56049 0.48793 0.0
C2280 C 0.97908 0.56681 0.52285 0.0
C2281 C 0.99305 0.54345 0.62109 0.0
H2282 H 0.01244 0.57167 0.67749 0.0
C2283 C 0.03457 0.53819 0.78343 0.0
C2284 C 0.04499 0.54592 0.77333 0.0
C2285 C 0.02356 0.5398 0.75101 0.0
C2286 C 0.00719 0.56367 0.66167 0.0
H2287 H 0.94946 0.54616 0.54048 0.0
H2288 H 0.96658 0.54411 0.60974 0.0
H2289 H 0.99382 0.5754 0.61853 0.0
H2290 H 0.05229 0.56095 0.71951 0.0
H2291 H 0.0333 0.5636 0.66267 0.0
H2292 H 0.00653 0.53172 0.66346 0.0
C2293 C 0.96747 0.55083 0.57462 0.0
C2294 C 0.99651 0.56582 0.62798 0.0
C2295 C 0.95761 0.55208 0.53505 0.0
C2296 C 0.04435 0.55496 0.72894 0.0
C2297 C 0.03343 0.55654 0.69657 0.0
C2298 C 0.00376 0.54129 0.65469 0.0
C2299 C 0.97843 0.55796 0.56822 0.0
C2300 C 0.98938 0.55574 0.60684 0.0
C2301 C 0.02281 0.54916 0.70785 0.0
C2302 C 0.01104 0.55138 0.67478 0.0
H2303 H 0.97024 0.5746 0.44737 0.0
H2304 H 0.98744 0.5724 0.51652 0.0
H2305 H 0.98785 0.53547 0.6048 0.0
H2306 H 0.03478 0.53118 0.81754 0.0
H2307 H 0.01553 0.53398 0.7609 0.0
C2308 C 0.2221 0.28573 0.46586 0.0
C2309 C 0.21373 0.2958 0.45978 0.0
C2310 C 0.22065 0.27491 0.43182 0.0
C2311 C 0.19629 0.25806 0.34766 0.0
H2312 H 0.22427 0.23951 0.2833 0.0
C2313 C 0.19052 0.21945 0.17294 0.0
C2314 C 0.19812 0.20874 0.17759 0.0
C2315 C 0.19224 0.22962 0.21062 0.0
C2316 C 0.21637 0.24451 0.30161 0.0
H2317 H 0.19782 0.30279 0.41093 0.0
H2318 H 0.19547 0.28415 0.35104 0.0
H2319 H 0.2282 0.25837 0.34087 0.0
H2320 H 0.21321 0.20018 0.22723 0.0
H2321 H 0.21612 0.21788 0.2928 0.0
H2322 H 0.18446 0.24431 0.30782 0.0
C2323 C 0.2029 0.28437 0.38318 0.0
C2324 C 0.21862 0.25532 0.33458 0.0
C2325 C 0.2043 0.2951 0.41725 0.0
C2326 C 0.20719 0.20828 0.22211 0.0
C2327 C 0.20895 0.21847 0.25952 0.0
C2328 C 0.19404 0.24731 0.31457 0.0
C2329 C 0.21084 0.27402 0.39097 0.0
C2330 C 0.2086 0.26229 0.35751 0.0
C2331 C 0.20163 0.22932 0.25361 0.0
C2332 C 0.20404 0.24046 0.29082 0.0
H2333 H 0.22944 0.28599 0.49843 0.0
H2334 H 0.22692 0.26708 0.43901 0.0
H2335 H 0.18835 0.26304 0.36581 0.0
H2336 H 0.18347 0.22014 0.13917 0.0
H2337 H 0.1865 0.23789 0.20474 0.0
C2338 C 0.44801 0.45142 0.19346 0.0
C2339 C 0.44745 0.45954 0.24164 0.0
C2340 C 0.45911 0.44993 0.16236 0.0
C2341 C 0.48964 0.46346 0.1278 0.0
H2342 H 0.49894 0.42871 0.10281 0.0
C2343 C 0.53575 0.44958 0.01161 0.0
C2344 C 0.53477 0.43992 0.96998 0.0
C2345 C 0.52588 0.45207 0.05003 0.0
C2346 C 0.49645 0.43847 0.10894 0.0
H2347 H 0.45787 0.47309 0.29274 0.0
H2348 H 0.47739 0.4706 0.23731 0.0
H2349 H 0.47996 0.43367 0.15688 0.0
H2350 H 0.52272 0.42511 0.93739 0.0
H2351 H 0.50553 0.42954 0.00355 0.0
H2352 H 0.50597 0.46826 0.07835 0.0
C2353 C 0.46919 0.46533 0.22419 0.0
C2354 C 0.48559 0.4413 0.14 0.0
C2355 C 0.45803 0.46678 0.25572 0.0
C2356 C 0.52385 0.43257 0.96898 0.0
C2357 C 0.51398 0.43509 0.0072 0.0
C2358 C 0.5005 0.46062 0.09619 0.0
C2359 C 0.46991 0.45658 0.17841 0.0
C2360 C 0.48195 0.45381 0.14887 0.0
C2361 C 0.5148 0.44497 0.04769 0.0
C2362 C 0.50392 0.44807 0.08555 0.0
H2363 H 0.43996 0.44587 0.18089 0.0
H2364 H 0.45932 0.44335 0.12639 0.0
H2365 H 0.48703 0.47318 0.13395 0.0
H2366 H 0.54404 0.45541 0.01378 0.0
H2367 H 0.5269 0.45962 0.08125 0.0
loop_
_geom_bond_atom_site_label_1
_geom_bond_atom_site_label_2
_geom_bond_distance
_geom_bond_site_symmetry_2
_ccdc_geom_bond_type
Mg0 O1 2.028 . S
Mg0 O7 1.986 . S
Mg0 O9 2.114 . S
Mg0 O10 2.251 . S
Mg0 O13 2.010 . S
O1 Mg0 2.028 . S
O1 C4 1.250 . S
O2 Mg3 2.028 . S
O2 C4 1.248 . S
Mg3 O2 2.028 . S
Mg3 O8 2.032 . S
Mg3 O10 2.079 . S
C4 O1 1.250 . S
C4 O2 1.248 . S
C5 O6 1.264 . S
C5 O13 1.249 . S
O6 C5 1.264 . S
O7 Mg0 1.986 . S
O7 C11 1.246 . S
O8 Mg3 2.032 . S
O8 C11 1.259 . S
O9 Mg0 2.114 . S
O9 C12 1.252 . S
O10 Mg0 2.251 . S
O10 Mg3 2.079 . S
O10 C12 1.273 . S
C11 O7 1.246 . S
C11 O8 1.259 . S
C12 O9 1.252 . S
C12 O10 1.273 . S
O13 Mg0 2.010 . S
O13 C5 1.249 . S
Mg14 O15 2.028 . S
Mg14 O21 1.986 . S
Mg14 O23 2.114 . S
Mg14 O24 2.251 . S
Mg14 O27 2.010 . S
O15 Mg14 2.028 . S
O15 C18 1.250 . S
O16 Mg17 2.028 . S
O16 C18 1.248 . S
Mg17 O16 2.028 . S
Mg17 O22 2.032 . S
Mg17 O24 2.079 . S
C18 O15 1.250 . S
C18 O16 1.248 . S
C19 O20 1.264 . S
C19 O27 1.249 . S
O20 C19 1.264 . S
O21 Mg14 1.986 . S
O21 C25 1.246 . S
O22 Mg17 2.032 . S
O22 C25 1.259 . S
O23 Mg14 2.114 . S
O23 C26 1.252 . S
O24 Mg14 2.251 . S
O24 Mg17 2.079 . S
O24 C26 1.273 . S
C25 O21 1.246 . S
C25 O22 1.259 . S
C26 O23 1.252 . S
C26 O24 1.273 . S
O27 Mg14 2.010 . S
O27 C19 1.249 . S
Mg28 O29 2.028 . S
Mg28 O35 1.986 . S
Mg28 O37 2.114 . S
Mg28 O38 2.251 . S
Mg28 O41 2.010 . S
O29 Mg28 2.028 . S
O29 C32 1.250 . S
O30 Mg31 2.028 . S
O30 C32 1.248 . S
Mg31 O30 2.028 . S
Mg31 O36 2.032 . S
Mg31 O38 2.079 . S
C32 O29 1.250 . S
C32 O30 1.248 . S
C33 O34 1.264 . S
C33 O41 1.249 . S
O34 C33 1.264 . S
O35 Mg28 1.986 . S
O35 C39 1.246 . S
O36 Mg31 2.032 . S
O36 C39 1.259 . S
O37 Mg28 2.114 . S
O37 C40 1.252 . S
O38 Mg28 2.251 . S
O38 Mg31 2.079 . S
O38 C40 1.273 . S
C39 O35 1.246 . S
C39 O36 1.259 . S
C40 O37 1.252 . S
C40 O38 1.273 . S
O41 Mg28 2.010 . S
O41 C33 1.249 . S
Mg42 O43 2.028 1_556 S
Mg42 O49 1.986 . S
Mg42 O51 2.114 . S
Mg42 O52 2.251 . S
Mg42 O55 2.010 1_556 S
O43 Mg42 2.028 1_554 S
O43 C46 1.250 . S
O44 Mg45 2.028 1_554 S
O44 C46 1.248 . S
Mg45 O44 2.028 1_556 S
Mg45 O50 2.032 . S
Mg45 O52 2.079 . S
C46 O43 1.250 . S
C46 O44 1.248 . S
C47 O48 1.271 . S
C47 O55 1.249 . S
O48 C47 1.271 . S
O49 Mg42 1.986 . S
O49 C53 1.246 . S
O50 Mg45 2.032 . S
O50 C53 1.259 . S
O51 Mg42 2.114 . S
O51 C54 1.252 . S
O52 Mg42 2.251 . S
O52 Mg45 2.079 . S
O52 C54 1.273 . S
C53 O49 1.246 . S
C53 O50 1.259 . S
C54 O51 1.252 . S
C54 O52 1.273 . S
O55 Mg42 2.010 1_554 S
O55 C47 1.249 . S
Mg56 O57 2.028 . S
Mg56 O63 1.986 . S
Mg56 O65 2.114 . S
Mg56 O66 2.251 . S
Mg56 O69 2.010 . S
O57 Mg56 2.028 . S
O57 C60 1.250 . S
O58 Mg59 2.028 . S
O58 C60 1.248 . S
Mg59 O58 2.028 . S
Mg59 O64 2.032 . S
Mg59 O66 2.079 . S
C60 O57 1.250 . S
C60 O58 1.248 . S
C61 O62 1.264 . S
C61 O69 1.249 . S
O62 C61 1.264 . S
O63 Mg56 1.986 . S
O63 C67 1.246 . S
O64 Mg59 2.032 . S
O64 C67 1.259 . S
O65 Mg56 2.114 . S
O65 C68 1.252 . S
O66 Mg56 2.251 . S
O66 Mg59 2.079 . S
O66 C68 1.273 . S
C67 O63 1.246 . S
C67 O64 1.259 . S
C68 O65 1.252 . S
C68 O66 1.273 . S
O69 Mg56 2.010 . S
O69 C61 1.249 . S
Mg70 O71 2.028 . S
Mg70 O77 1.986 . S
Mg70 O79 2.114 . S
Mg70 O80 2.251 . S
Mg70 O83 2.010 . S
O71 Mg70 2.028 . S
O71 C74 1.250 . S
O72 Mg73 2.028 . S
O72 C74 1.248 . S
Mg73 O72 2.028 . S
Mg73 O78 2.032 . S
Mg73 O80 2.079 . S
C74 O71 1.250 . S
C74 O72 1.248 . S
C75 O76 1.264 . S
C75 O83 1.249 . S
O76 C75 1.264 . S
O77 Mg70 1.986 . S
O77 C81 1.246 . S
O78 Mg73 2.032 . S
O78 C81 1.259 . S
O79 Mg70 2.114 . S
O79 C82 1.252 . S
O80 Mg70 2.251 . S
O80 Mg73 2.079 . S
O80 C82 1.273 . S
C81 O77 1.246 . S
C81 O78 1.259 . S
C82 O79 1.252 . S
C82 O80 1.273 . S
O83 Mg70 2.010 . S
O83 C75 1.249 . S
Mg84 O85 2.028 . S
Mg84 O91 1.986 . S
Mg84 O93 2.114 . S
Mg84 O94 2.251 . S
Mg84 O97 2.010 . S
O85 Mg84 2.028 . S
O85 C88 1.250 . S
O86 Mg87 2.028 . S
O86 C88 1.248 . S
Mg87 O86 2.028 . S
Mg87 O92 2.032 . S
Mg87 O94 2.079 . S
C88 O85 1.250 . S
C88 O86 1.248 . S
C89 O90 1.264 . S
C89 O97 1.249 . S
O90 C89 1.264 . S
O91 Mg84 1.986 . S
O91 C95 1.246 . S
O92 Mg87 2.032 . S
O92 C95 1.259 . S
O93 Mg84 2.114 . S
O93 C96 1.252 . S
O94 Mg84 2.251 . S
O94 Mg87 2.079 . S
O94 C96 1.273 . S
C95 O91 1.246 . S
C95 O92 1.259 . S
C96 O93 1.252 . S
C96 O94 1.273 . S
O97 Mg84 2.010 . S
O97 C89 1.249 . S
Mg98 O99 2.028 1_554 S
Mg98 O105 1.986 . S
Mg98 O107 2.114 . S
Mg98 O108 2.251 . S
Mg98 O111 2.010 1_554 S
O99 Mg98 2.028 1_556 S
O99 C102 1.250 . S
O100 Mg101 2.028 1_556 S
O100 C102 1.248 . S
Mg101 O100 2.028 1_554 S
Mg101 O106 2.032 . S
Mg101 O108 2.079 . S
C102 O99 1.250 . S
C102 O100 1.248 . S
C103 O104 1.271 . S
C103 O111 1.249 . S
O104 C103 1.271 . S
O105 Mg98 1.986 . S
O105 C109 1.246 . S
O106 Mg101 2.032 . S
O106 C109 1.259 . S
O107 Mg98 2.114 . S
O107 C110 1.252 . S
O108 Mg98 2.251 . S
O108 Mg101 2.079 . S
O108 C110 1.273 . S
C109 O105 1.246 . S
C109 O106 1.259 . S
C110 O107 1.252 . S
C110 O108 1.273 . S
O111 Mg98 2.010 1_556 S
O111 C103 1.249 . S
Mg112 O113 2.028 . S
Mg112 O119 1.986 . S
Mg112 O121 2.114 . S
Mg112 O122 2.251 . S
Mg112 O125 2.010 . S
O113 Mg112 2.028 . S
O113 C116 1.250 . S
O114 Mg115 2.028 . S
O114 C116 1.248 . S
Mg115 O114 2.028 . S
Mg115 O120 2.032 . S
Mg115 O122 2.079 . S
C116 O113 1.250 . S
C116 O114 1.248 . S
C117 O118 1.264 . S
C117 O125 1.249 . S
O118 C117 1.264 . S
O119 Mg112 1.986 . S
O119 C123 1.246 . S
O120 Mg115 2.032 . S
O120 C123 1.259 . S
O121 Mg112 2.114 . S
O121 C124 1.252 . S
O122 Mg112 2.251 . S
O122 Mg115 2.079 . S
O122 C124 1.273 . S
C123 O119 1.246 . S
C123 O120 1.259 . S
C124 O121 1.252 . S
C124 O122 1.273 . S
O125 Mg112 2.010 . S
O125 C117 1.249 . S
Mg126 O127 2.028 . S
Mg126 O133 1.986 . S
Mg126 O135 2.114 . S
Mg126 O136 2.251 . S
Mg126 O139 2.010 . S
O127 Mg126 2.028 . S
O127 C130 1.250 . S
O128 Mg129 2.028 . S
O128 C130 1.248 . S
Mg129 O128 2.028 . S
Mg129 O134 2.032 . S
Mg129 O136 2.079 . S
C130 O127 1.250 . S
C130 O128 1.248 . S
C131 O132 1.264 . S
C131 O139 1.249 . S
O132 C131 1.264 . S
O133 Mg126 1.986 . S
O133 C137 1.246 . S
O134 Mg129 2.032 . S
O134 C137 1.259 . S
O135 Mg126 2.114 . S
O135 C138 1.252 . S
O136 Mg126 2.251 . S
O136 Mg129 2.079 . S
O136 C138 1.273 . S
C137 O133 1.246 . S
C137 O134 1.259 . S
C138 O135 1.252 . S
C138 O136 1.273 . S
O139 Mg126 2.010 . S
O139 C131 1.249 . S
Mg140 O141 2.028 . S
Mg140 O147 1.986 . S
Mg140 O149 2.114 . S
Mg140 O150 2.251 . S
Mg140 O153 2.010 . S
O141 Mg140 2.028 . S
O141 C144 1.250 . S
O142 Mg143 2.028 . S
O142 C144 1.248 . S
Mg143 O142 2.028 . S
Mg143 O148 2.032 . S
Mg143 O150 2.079 . S
C144 O141 1.250 . S
C144 O142 1.248 . S
C145 O146 1.264 . S
C145 O153 1.249 . S
O146 C145 1.264 . S
O147 Mg140 1.986 . S
O147 C151 1.246 . S
O148 Mg143 2.032 . S
O148 C151 1.259 . S
O149 Mg140 2.114 . S
O149 C152 1.252 . S
O150 Mg140 2.251 . S
O150 Mg143 2.079 . S
O150 C152 1.273 . S
C151 O147 1.246 . S
C151 O148 1.259 . S
C152 O149 1.252 . S
C152 O150 1.273 . S
O153 Mg140 2.010 . S
O153 C145 1.249 . S
Mg154 O155 2.028 1_554 S
Mg154 O161 1.986 . S
Mg154 O163 2.114 . S
Mg154 O164 2.251 . S
Mg154 O167 2.010 1_554 S
O155 Mg154 2.028 1_556 S
O155 C158 1.250 . S
O156 Mg157 2.028 1_556 S
O156 C158 1.248 . S
Mg157 O156 2.028 1_554 S
Mg157 O162 2.032 . S
Mg157 O164 2.079 . S
C158 O155 1.250 . S
C158 O156 1.248 . S
C159 O160 1.271 . S
C159 O167 1.249 . S
O160 C159 1.271 . S
O161 Mg154 1.986 . S
O161 C165 1.246 . S
O162 Mg157 2.032 . S
O162 C165 1.259 . S
O163 Mg154 2.114 . S
O163 C166 1.252 . S
O164 Mg154 2.251 . S
O164 Mg157 2.079 . S
O164 C166 1.273 . S
C165 O161 1.246 . S
C165 O162 1.259 . S
C166 O163 1.252 . S
C166 O164 1.273 . S
O167 Mg154 2.010 1_556 S
O167 C159 1.249 . S
Mg168 O169 2.028 . S
Mg168 O175 1.986 . S
Mg168 O177 2.114 . S
Mg168 O178 2.251 . S
Mg168 O181 2.010 . S
O169 Mg168 2.028 . S
O169 C172 1.250 . S
O170 Mg171 2.028 . S
O170 C172 1.248 . S
Mg171 O170 2.028 . S
Mg171 O176 2.032 . S
Mg171 O178 2.079 . S
C172 O169 1.250 . S
C172 O170 1.248 . S
C173 O174 1.264 . S
C173 O181 1.249 . S
O174 C173 1.264 . S
O175 Mg168 1.986 . S
O175 C179 1.246 . S
O176 Mg171 2.032 . S
O176 C179 1.259 . S
O177 Mg168 2.114 . S
O177 C180 1.252 . S
O178 Mg168 2.251 . S
O178 Mg171 2.079 . S
O178 C180 1.273 . S
C179 O175 1.246 . S
C179 O176 1.259 . S
C180 O177 1.252 . S
C180 O178 1.273 . S
O181 Mg168 2.010 . S
O181 C173 1.249 . S
Mg182 O183 2.028 . S
Mg182 O189 1.986 . S
Mg182 O191 2.114 . S
Mg182 O192 2.251 . S
Mg182 O195 2.010 . S
O183 Mg182 2.028 . S
O183 C186 1.250 . S
O184 Mg185 2.028 . S
O184 C186 1.248 . S
Mg185 O184 2.028 . S
Mg185 O190 2.032 . S
Mg185 O192 2.079 . S
C186 O183 1.250 . S
C186 O184 1.248 . S
C187 O188 1.264 . S
C187 O195 1.249 . S
O188 C187 1.264 . S
O189 Mg182 1.986 . S
O189 C193 1.246 . S
O190 Mg185 2.032 . S
O190 C193 1.259 . S
O191 Mg182 2.114 . S
O191 C194 1.252 . S
O192 Mg182 2.251 . S
O192 Mg185 2.079 . S
O192 C194 1.273 . S
C193 O189 1.246 . S
C193 O190 1.259 . S
C194 O191 1.252 . S
C194 O192 1.273 . S
O195 Mg182 2.010 . S
O195 C187 1.249 . S
Mg196 O197 2.028 . S
Mg196 O203 1.986 . S
Mg196 O205 2.114 . S
Mg196 O206 2.251 . S
Mg196 O209 2.010 . S
O197 Mg196 2.028 . S
O197 C200 1.250 . S
O198 Mg199 2.028 . S
O198 C200 1.248 . S
Mg199 O198 2.028 . S
Mg199 O204 2.032 . S
Mg199 O206 2.079 . S
C200 O197 1.250 . S
C200 O198 1.248 . S
C201 O202 1.264 . S
C201 O209 1.249 . S
O202 C201 1.264 . S
O203 Mg196 1.986 . S
O203 C207 1.246 . S
O204 Mg199 2.032 . S
O204 C207 1.259 . S
O205 Mg196 2.114 . S
O205 C208 1.252 . S
O206 Mg196 2.251 . S
O206 Mg199 2.079 . S
O206 C208 1.273 . S
C207 O203 1.246 . S
C207 O204 1.259 . S
C208 O205 1.252 . S
C208 O206 1.273 . S
O209 Mg196 2.010 . S
O209 C201 1.249 . S
Mg210 O211 2.028 1_556 S
Mg210 O217 1.986 . S
Mg210 O219 2.114 . S
Mg210 O220 2.251 . S
Mg210 O223 2.010 1_556 S
O211 Mg210 2.028 1_554 S
O211 C214 1.250 . S
O212 Mg213 2.028 1_554 S
O212 C214 1.248 . S
Mg213 O212 2.028 1_556 S
Mg213 O218 2.032 . S
Mg213 O220 2.079 . S
C214 O211 1.250 . S
C214 O212 1.248 . S
C215 O216 1.271 . S
C215 O223 1.249 . S
O216 C215 1.271 . S
O217 Mg210 1.986 . S
O217 C221 1.246 . S
O218 Mg213 2.032 . S
O218 C221 1.259 . S
O219 Mg210 2.114 . S
O219 C222 1.252 . S
O220 Mg210 2.251 . S
O220 Mg213 2.079 . S
O220 C222 1.273 . S
C221 O217 1.246 . S
C221 O218 1.259 . S
C222 O219 1.252 . S
C222 O220 1.273 . S
O223 Mg210 2.010 1_554 S
O223 C215 1.249 . S
Mg224 O225 2.028 . S
Mg224 O231 1.986 . S
Mg224 O233 2.114 . S
Mg224 O234 2.251 . S
Mg224 O237 2.010 . S
O225 Mg224 2.028 . S
O225 C228 1.250 . S
O226 Mg227 2.028 . S
O226 C228 1.248 . S
Mg227 O226 2.028 . S
Mg227 O232 2.032 . S
Mg227 O234 2.079 . S
C228 O225 1.250 . S
C228 O226 1.248 . S
C229 O230 1.264 . S
C229 O237 1.249 . S
O230 C229 1.264 . S
O231 Mg224 1.986 . S
O231 C235 1.246 . S
O232 Mg227 2.032 . S
O232 C235 1.259 . S
O233 Mg224 2.114 . S
O233 C236 1.252 . S
O234 Mg224 2.251 . S
O234 Mg227 2.079 . S
O234 C236 1.273 . S
C235 O231 1.246 . S
C235 O232 1.259 . S
C236 O233 1.252 . S
C236 O234 1.273 . S
O237 Mg224 2.010 . S
O237 C229 1.249 . S
Mg238 O239 2.028 1_556 S
Mg238 O245 1.986 . S
Mg238 O247 2.114 . S
Mg238 O248 2.251 . S
Mg238 O251 2.010 1_556 S
O239 Mg238 2.028 1_554 S
O239 C242 1.250 . S
O240 Mg241 2.028 1_554 S
O240 C242 1.248 . S
Mg241 O240 2.028 1_556 S
Mg241 O246 2.032 . S
Mg241 O248 2.079 . S
C242 O239 1.250 . S
C242 O240 1.248 . S
C243 O244 1.271 . S
C243 O251 1.249 . S
O244 C243 1.271 . S
O245 Mg238 1.986 . S
O245 C249 1.246 . S
O246 Mg241 2.032 . S
O246 C249 1.259 . S
O247 Mg238 2.114 . S
O247 C250 1.252 . S
O248 Mg238 2.251 . S
O248 Mg241 2.079 . S
O248 C250 1.273 . S
C249 O245 1.246 . S
C249 O246 1.259 . S
C250 O247 1.252 . S
C250 O248 1.273 . S
O251 Mg238 2.010 1_554 S
O251 C243 1.249 . S
Mg252 O253 2.028 . S
Mg252 O259 1.986 . S
Mg252 O261 2.114 . S
Mg252 O262 2.251 . S
Mg252 O265 2.010 . S
O253 Mg252 2.028 . S
O253 C256 1.250 . S
O254 Mg255 2.028 . S
O254 C256 1.248 . S
Mg255 O254 2.028 . S
Mg255 O260 2.032 . S
Mg255 O262 2.079 . S
C256 O253 1.250 . S
C256 O254 1.248 . S
C257 O258 1.264 . S
C257 O265 1.249 . S
O258 C257 1.264 . S
O259 Mg252 1.986 . S
O259 C263 1.246 . S
O260 Mg255 2.032 . S
O260 C263 1.259 . S
O261 Mg252 2.114 . S
O261 C264 1.252 . S
O262 Mg252 2.251 . S
O262 Mg255 2.079 . S
O262 C264 1.273 . S
C263 O259 1.246 . S
C263 O260 1.259 . S
C264 O261 1.252 . S
C264 O262 1.273 . S
O265 Mg252 2.010 . S
O265 C257 1.249 . S
Mg266 O267 2.028 . S
Mg266 O273 1.986 . S
Mg266 O275 2.114 . S
Mg266 O276 2.251 . S
Mg266 O279 2.010 . S
O267 Mg266 2.028 . S
O267 C270 1.250 . S
O268 Mg269 2.028 . S
O268 C270 1.248 . S
Mg269 O268 2.028 . S
Mg269 O274 2.032 . S
Mg269 O276 2.079 . S
C270 O267 1.250 . S
C270 O268 1.248 . S
C271 O272 1.264 . S
C271 O279 1.249 . S
O272 C271 1.264 . S
O273 Mg266 1.986 . S
O273 C277 1.246 . S
O274 Mg269 2.032 . S
O274 C277 1.259 . S
O275 Mg266 2.114 . S
O275 C278 1.252 . S
O276 Mg266 2.251 . S
O276 Mg269 2.079 . S
O276 C278 1.273 . S
C277 O273 1.246 . S
C277 O274 1.259 . S
C278 O275 1.252 . S
C278 O276 1.273 . S
O279 Mg266 2.010 . S
O279 C271 1.249 . S
Mg280 O281 2.028 . S
Mg280 O287 1.986 . S
Mg280 O289 2.114 . S
Mg280 O290 2.251 . S
Mg280 O293 2.010 . S
O281 Mg280 2.028 . S
O281 C284 1.250 . S
O282 Mg283 2.028 . S
O282 C284 1.248 . S
Mg283 O282 2.028 . S
Mg283 O288 2.032 . S
Mg283 O290 2.079 . S
C284 O281 1.250 . S
C284 O282 1.248 . S
C285 O286 1.264 . S
C285 O293 1.249 . S
O286 C285 1.264 . S
O287 Mg280 1.986 . S
O287 C291 1.246 . S
O288 Mg283 2.032 . S
O288 C291 1.259 . S
O289 Mg280 2.114 . S
O289 C292 1.252 . S
O290 Mg280 2.251 . S
O290 Mg283 2.079 . S
O290 C292 1.273 . S
C291 O287 1.246 . S
C291 O288 1.259 . S
C292 O289 1.252 . S
C292 O290 1.273 . S
O293 Mg280 2.010 . S
O293 C285 1.249 . S
Mg294 O295 2.028 1_554 S
Mg294 O301 1.986 . S
Mg294 O303 2.114 . S
Mg294 O304 2.251 . S
Mg294 O307 2.010 1_554 S
O295 Mg294 2.028 1_556 S
O295 C298 1.250 . S
O296 Mg297 2.028 1_556 S
O296 C298 1.248 . S
Mg297 O296 2.028 1_554 S
Mg297 O302 2.032 . S
Mg297 O304 2.079 . S
C298 O295 1.250 . S
C298 O296 1.248 . S
C299 O300 1.271 . S
C299 O307 1.249 . S
O300 C299 1.271 . S
O301 Mg294 1.986 . S
O301 C305 1.246 . S
O302 Mg297 2.032 . S
O302 C305 1.259 . S
O303 Mg294 2.114 . S
O303 C306 1.252 . S
O304 Mg294 2.251 . S
O304 Mg297 2.079 . S
O304 C306 1.273 . S
C305 O301 1.246 . S
C305 O302 1.259 . S
C306 O303 1.252 . S
C306 O304 1.273 . S
O307 Mg294 2.010 1_556 S
O307 C299 1.249 . S
Mg308 O309 2.028 . S
Mg308 O315 1.986 . S
Mg308 O317 2.114 . S
Mg308 O318 2.251 . S
Mg308 O321 2.010 . S
O309 Mg308 2.028 . S
O309 C312 1.250 . S
O310 Mg311 2.028 . S
O310 C312 1.248 . S
Mg311 O310 2.028 . S
Mg311 O316 2.032 . S
Mg311 O318 2.079 . S
C312 O309 1.250 . S
C312 O310 1.248 . S
C313 O314 1.264 . S
C313 O321 1.249 . S
O314 C313 1.264 . S
O315 Mg308 1.986 . S
O315 C319 1.246 . S
O316 Mg311 2.032 . S
O316 C319 1.259 . S
O317 Mg308 2.114 . S
O317 C320 1.252 . S
O318 Mg308 2.251 . S
O318 Mg311 2.079 . S
O318 C320 1.273 . S
C319 O315 1.246 . S
C319 O316 1.259 . S
C320 O317 1.252 . S
C320 O318 1.273 . S
O321 Mg308 2.010 . S
O321 C313 1.249 . S
Mg322 O323 2.028 . S
Mg322 O329 1.986 . S
Mg322 O331 2.114 . S
Mg322 O332 2.251 . S
Mg322 O335 2.010 . S
O323 Mg322 2.028 . S
O323 C326 1.250 . S
O324 Mg325 2.028 . S
O324 C326 1.248 . S
Mg325 O324 2.028 . S
Mg325 O330 2.032 . S
Mg325 O332 2.079 . S
C326 O323 1.250 . S
C326 O324 1.248 . S
C327 O328 1.264 . S
C327 O335 1.249 . S
O328 C327 1.264 . S
O329 Mg322 1.986 . S
O329 C333 1.246 . S
O330 Mg325 2.032 . S
O330 C333 1.259 . S
O331 Mg322 2.114 . S
O331 C334 1.252 . S
O332 Mg322 2.251 . S
O332 Mg325 2.079 . S
O332 C334 1.273 . S
C333 O329 1.246 . S
C333 O330 1.259 . S
C334 O331 1.252 . S
C334 O332 1.273 . S
O335 Mg322 2.010 . S
O335 C327 1.249 . S
Mg336 O337 2.028 . S
Mg336 O343 1.986 . S
Mg336 O345 2.114 . S
Mg336 O346 2.251 . S
Mg336 O349 2.010 . S
O337 Mg336 2.028 . S
O337 C340 1.250 . S
O338 Mg339 2.028 . S
O338 C340 1.248 . S
Mg339 O338 2.028 . S
Mg339 O344 2.032 . S
Mg339 O346 2.079 . S
C340 O337 1.250 . S
C340 O338 1.248 . S
C341 O342 1.264 . S
C341 O349 1.249 . S
O342 C341 1.264 . S
O343 Mg336 1.986 . S
O343 C347 1.246 . S
O344 Mg339 2.032 . S
O344 C347 1.259 . S
O345 Mg336 2.114 . S
O345 C348 1.252 . S
O346 Mg336 2.251 . S
O346 Mg339 2.079 . S
O346 C348 1.273 . S
C347 O343 1.246 . S
C347 O344 1.259 . S
C348 O345 1.252 . S
C348 O346 1.273 . S
O349 Mg336 2.010 . S
O349 C341 1.249 . S
Mg350 O351 2.028 1_554 S
Mg350 O357 1.986 . S
Mg350 O359 2.114 . S
Mg350 O360 2.251 . S
Mg350 O363 2.010 1_554 S
O351 Mg350 2.028 1_556 S
O351 C354 1.250 . S
O352 Mg353 2.028 1_556 S
O352 C354 1.248 . S
Mg353 O352 2.028 1_554 S
Mg353 O358 2.032 . S
Mg353 O360 2.079 . S
C354 O351 1.250 . S
C354 O352 1.248 . S
C355 O356 1.271 . S
C355 O363 1.249 . S
O356 C355 1.271 . S
O357 Mg350 1.986 . S
O357 C361 1.246 . S
O358 Mg353 2.032 . S
O358 C361 1.259 . S
O359 Mg350 2.114 . S
O359 C362 1.252 . S
O360 Mg350 2.251 . S
O360 Mg353 2.079 . S
O360 C362 1.273 . S
C361 O357 1.246 . S
C361 O358 1.259 . S
C362 O359 1.252 . S
C362 O360 1.273 . S
O363 Mg350 2.010 1_556 S
O363 C355 1.249 . S
Mg364 O365 2.028 . S
Mg364 O371 1.986 . S
Mg364 O373 2.114 . S
Mg364 O374 2.251 . S
Mg364 O377 2.010 . S
O365 Mg364 2.028 . S
O365 C368 1.250 . S
O366 Mg367 2.028 . S
O366 C368 1.248 . S
Mg367 O366 2.028 . S
Mg367 O372 2.032 . S
Mg367 O374 2.079 . S
C368 O365 1.250 . S
C368 O366 1.248 . S
C369 O370 1.264 . S
C369 O377 1.249 . S
O370 C369 1.264 . S
O371 Mg364 1.986 . S
O371 C375 1.246 . S
O372 Mg367 2.032 . S
O372 C375 1.259 . S
O373 Mg364 2.114 . S
O373 C376 1.252 . S
O374 Mg364 2.251 . S
O374 Mg367 2.079 . S
O374 C376 1.273 . S
C375 O371 1.246 . S
C375 O372 1.259 . S
C376 O373 1.252 . S
C376 O374 1.273 . S
O377 Mg364 2.010 . S
O377 C369 1.249 . S
Mg378 O379 2.028 . S
Mg378 O385 1.986 . S
Mg378 O387 2.114 . S
Mg378 O388 2.251 . S
Mg378 O391 2.010 . S
O379 Mg378 2.028 . S
O379 C382 1.250 . S
O380 Mg381 2.028 . S
O380 C382 1.248 . S
Mg381 O380 2.028 . S
Mg381 O386 2.032 . S
Mg381 O388 2.079 . S
C382 O379 1.250 . S
C382 O380 1.248 . S
C383 O384 1.264 . S
C383 O391 1.249 . S
O384 C383 1.264 . S
O385 Mg378 1.986 . S
O385 C389 1.246 . S
O386 Mg381 2.032 . S
O386 C389 1.259 . S
O387 Mg378 2.114 . S
O387 C390 1.252 . S
O388 Mg378 2.251 . S
O388 Mg381 2.079 . S
O388 C390 1.273 . S
C389 O385 1.246 . S
C389 O386 1.259 . S
C390 O387 1.252 . S
C390 O388 1.273 . S
O391 Mg378 2.010 . S
O391 C383 1.249 . S
Mg392 O393 2.028 . S
Mg392 O399 1.986 . S
Mg392 O401 2.114 . S
Mg392 O402 2.251 . S
Mg392 O405 2.010 . S
O393 Mg392 2.028 . S
O393 C396 1.250 . S
O394 Mg395 2.028 . S
O394 C396 1.248 . S
Mg395 O394 2.028 . S
Mg395 O400 2.032 . S
Mg395 O402 2.079 . S
C396 O393 1.250 . S
C396 O394 1.248 . S
C397 O398 1.264 . S
C397 O405 1.249 . S
O398 C397 1.264 . S
O399 Mg392 1.986 . S
O399 C403 1.246 . S
O400 Mg395 2.032 . S
O400 C403 1.259 . S
O401 Mg392 2.114 . S
O401 C404 1.252 . S
O402 Mg392 2.251 . S
O402 Mg395 2.079 . S
O402 C404 1.273 . S
C403 O399 1.246 . S
C403 O400 1.259 . S
C404 O401 1.252 . S
C404 O402 1.273 . S
O405 Mg392 2.010 . S
O405 C397 1.249 . S
Mg406 O407 2.028 1_556 S
Mg406 O413 1.986 . S
Mg406 O415 2.114 . S
Mg406 O416 2.251 . S
Mg406 O419 2.010 1_556 S
O407 Mg406 2.028 1_554 S
O407 C410 1.250 . S
O408 Mg409 2.028 1_554 S
O408 C410 1.248 . S
Mg409 O408 2.028 1_556 S
Mg409 O414 2.032 . S
Mg409 O416 2.079 . S
C410 O407 1.250 . S
C410 O408 1.248 . S
C411 O412 1.271 . S
C411 O419 1.249 . S
O412 C411 1.271 . S
O413 Mg406 1.986 . S
O413 C417 1.246 . S
O414 Mg409 2.032 . S
O414 C417 1.259 . S
O415 Mg406 2.114 . S
O415 C418 1.252 . S
O416 Mg406 2.251 . S
O416 Mg409 2.079 . S
O416 C418 1.273 . S
C417 O413 1.246 . S
C417 O414 1.259 . S
C418 O415 1.252 . S
C418 O416 1.273 . S
O419 Mg406 2.010 1_554 S
O419 C411 1.249 . S
Mg420 O421 2.028 . S
Mg420 O427 1.986 . S
Mg420 O429 2.114 . S
Mg420 O430 2.251 . S
Mg420 O433 2.010 . S
O421 Mg420 2.028 . S
O421 C424 1.250 . S
O422 Mg423 2.028 . S
O422 C424 1.248 . S
Mg423 O422 2.028 . S
Mg423 O428 2.032 . S
Mg423 O430 2.079 . S
C424 O421 1.250 . S
C424 O422 1.248 . S
C425 O426 1.264 . S
C425 O433 1.249 . S
O426 C425 1.264 . S
O427 Mg420 1.986 . S
O427 C431 1.246 . S
O428 Mg423 2.032 . S
O428 C431 1.259 . S
O429 Mg420 2.114 . S
O429 C432 1.252 . S
O430 Mg420 2.251 . S
O430 Mg423 2.079 . S
O430 C432 1.273 . S
C431 O427 1.246 . S
C431 O428 1.259 . S
C432 O429 1.252 . S
C432 O430 1.273 . S
O433 Mg420 2.010 . S
O433 C425 1.249 . S
Mg434 O435 2.028 . S
Mg434 O441 1.986 . S
Mg434 O443 2.114 . S
Mg434 O444 2.251 . S
Mg434 O447 2.010 . S
O435 Mg434 2.028 . S
O435 C438 1.250 . S
O436 Mg437 2.028 . S
O436 C438 1.248 . S
Mg437 O436 2.028 . S
Mg437 O442 2.032 . S
Mg437 O444 2.079 . S
C438 O435 1.250 . S
C438 O436 1.248 . S
C439 O440 1.264 . S
C439 O447 1.249 . S
O440 C439 1.264 . S
O441 Mg434 1.986 . S
O441 C445 1.246 . S
O442 Mg437 2.032 . S
O442 C445 1.259 . S
O443 Mg434 2.114 . S
O443 C446 1.252 . S
O444 Mg434 2.251 . S
O444 Mg437 2.079 . S
O444 C446 1.273 . S
C445 O441 1.246 . S
C445 O442 1.259 . S
C446 O443 1.252 . S
C446 O444 1.273 . S
O447 Mg434 2.010 . S
O447 C439 1.249 . S
C448 C449 1.349 . S
C448 C450 1.327 . S
C448 H473 0.950 . S
C449 C448 1.349 . S
C449 C465 1.349 . S
C450 C448 1.327 . S
C450 C469 1.429 . S
C450 H474 0.950 . S
C451 C468 1.574 . S
C451 C470 1.368 . S
C451 H475 0.949 . S
H452 C456 0.949 . S
C453 C454 1.349 . S
C453 C455 1.327 . S
C453 H476 0.950 . S
C454 C453 1.349 . S
C454 C466 1.349 . S
C455 C453 1.327 . S
C455 C471 1.429 . S
C455 H477 0.950 . S
C456 H452 0.949 . S
C456 C464 1.574 . S
C456 C472 1.368 . S
H457 C465 0.950 . S
H458 C463 0.950 . S
H459 C464 0.949 . S
H460 C466 0.950 . S
H461 C467 0.950 . S
H462 C468 0.949 . S
C463 H458 0.950 . S
C463 C465 1.327 . S
C463 C469 1.429 . S
C464 C456 1.574 . S
C464 H459 0.949 . S
C464 C470 1.368 . S
C465 C449 1.349 . S
C465 H457 0.950 . S
C465 C463 1.327 . S
C466 C454 1.349 . S
C466 H460 0.950 . S
C466 C467 1.327 . S
C467 H461 0.950 . S
C467 C466 1.327 . S
C467 C471 1.429 . S
C468 C451 1.574 . S
C468 H462 0.949 . S
C468 C472 1.368 . S
C469 C450 1.429 . S
C469 C463 1.429 . S
C469 C470 1.523 . S
C470 C451 1.368 . S
C470 C464 1.368 . S
C470 C469 1.523 . S
C471 C455 1.429 . S
C471 C467 1.429 . S
C471 C472 1.523 . S
C472 C456 1.368 . S
C472 C468 1.368 . S
C472 C471 1.523 . S
H473 C448 0.950 . S
H474 C450 0.950 . S
H475 C451 0.949 . S
H476 C453 0.950 . S
H477 C455 0.950 . S
C478 C479 1.349 . S
C478 C480 1.327 . S
C478 H503 0.950 . S
C479 C478 1.349 . S
C479 C495 1.349 . S
C480 C478 1.327 . S
C480 C499 1.429 . S
C480 H504 0.950 . S
C481 C498 1.574 . S
C481 C500 1.368 . S
C481 H505 0.949 . S
H482 C486 0.949 . S
C483 C484 1.349 . S
C483 C485 1.327 . S
C483 H506 0.950 . S
C484 C483 1.349 . S
C484 C496 1.349 . S
C485 C483 1.327 . S
C485 C501 1.429 . S
C485 H507 0.950 . S
C486 H482 0.949 . S
C486 C494 1.574 . S
C486 C502 1.368 . S
H487 C495 0.950 . S
H488 C493 0.950 . S
H489 C494 0.949 . S
H490 C496 0.950 . S
H491 C497 0.950 . S
H492 C498 0.949 . S
C493 H488 0.950 . S
C493 C495 1.327 . S
C493 C499 1.429 . S
C494 C486 1.574 . S
C494 H489 0.949 . S
C494 C500 1.368 1_545 S
C495 C479 1.349 . S
C495 H487 0.950 . S
C495 C493 1.327 . S
C496 C484 1.349 . S
C496 H490 0.950 . S
C496 C497 1.327 . S
C497 H491 0.950 . S
C497 C496 1.327 . S
C497 C501 1.429 . S
C498 C481 1.574 . S
C498 H492 0.949 . S
C498 C502 1.368 1_565 S
C499 C480 1.429 . S
C499 C493 1.429 . S
C499 C500 1.523 . S
C500 C481 1.368 . S
C500 C494 1.368 1_565 S
C500 C499 1.523 . S
C501 C485 1.429 . S
C501 C497 1.429 . S
C501 C502 1.523 . S
C502 C486 1.368 . S
C502 C498 1.368 1_545 S
C502 C501 1.523 . S
H503 C478 0.950 . S
H504 C480 0.950 . S
H505 C481 0.949 . S
H506 C483 0.950 . S
H507 C485 0.950 . S
C508 C509 1.349 . S
C508 C510 1.327 . S
C508 H533 0.950 . S
C509 C508 1.349 . S
C509 C525 1.349 . S
C510 C508 1.327 . S
C510 C529 1.429 . S
C510 H534 0.950 . S
C511 C528 1.564 1_554 S
C511 C530 1.368 . S
C511 H535 0.949 . S
H512 C516 0.949 . S
C513 C514 1.349 . S
C513 C515 1.327 . S
C513 H536 0.950 . S
C514 C513 1.349 . S
C514 C526 1.349 . S
C515 C513 1.327 . S
C515 C531 1.429 . S
C515 H537 0.950 . S
C516 H512 0.949 . S
C516 C524 1.564 1_556 S
C516 C532 1.368 . S
H517 C525 0.950 . S
H518 C523 0.950 . S
H519 C524 0.950 . S
H520 C526 0.950 . S
H521 C527 0.950 . S
H522 C528 0.950 . S
C523 H518 0.950 . S
C523 C525 1.327 . S
C523 C529 1.429 . S
C524 C516 1.564 1_554 S
C524 H519 0.950 . S
C524 C530 1.377 . S
C525 C509 1.349 . S
C525 H517 0.950 . S
C525 C523 1.327 . S
C526 C514 1.349 . S
C526 H520 0.950 . S
C526 C527 1.327 . S
C527 H521 0.950 . S
C527 C526 1.327 . S
C527 C531 1.429 . S
C528 C511 1.564 1_556 S
C528 H522 0.950 . S
C528 C532 1.378 . S
C529 C510 1.429 . S
C529 C523 1.429 . S
C529 C530 1.523 . S
C530 C511 1.368 . S
C530 C524 1.377 . S
C530 C529 1.523 . S
C531 C515 1.429 . S
C531 C527 1.429 . S
C531 C532 1.523 . S
C532 C516 1.368 . S
C532 C528 1.378 . S
C532 C531 1.523 . S
H533 C508 0.950 . S
H534 C510 0.950 . S
H535 C511 0.949 . S
H536 C513 0.950 . S
H537 C515 0.950 . S
C538 C539 1.349 . S
C538 C540 1.327 . S
C538 H563 0.950 . S
C539 C538 1.349 . S
C539 C555 1.349 . S
C540 C538 1.327 . S
C540 C559 1.429 . S
C540 H564 0.950 . S
C541 C558 1.520 1_545 S
C541 C560 1.368 . S
C541 H565 0.949 . S
H542 C546 0.949 . S
C543 C544 1.349 . S
C543 C545 1.327 . S
C543 H566 0.950 . S
C544 C543 1.349 . S
C544 C556 1.349 . S
C545 C543 1.327 . S
C545 C561 1.429 . S
C545 H567 0.950 . S
C546 H542 0.949 . S
C546 C554 1.574 1_565 S
C546 C562 1.368 . S
H547 C555 0.950 . S
H548 C553 0.950 . S
H549 C554 0.949 . S
H550 C556 0.950 . S
H551 C557 0.950 . S
H552 C558 0.959 . S
C553 H548 0.950 . S
C553 C555 1.327 . S
C553 C559 1.429 . S
C554 C546 1.574 1_545 S
C554 H549 0.949 . S
C554 C560 1.368 . S
C555 C539 1.349 . S
C555 H547 0.950 . S
C555 C553 1.327 . S
C556 C544 1.349 . S
C556 H550 0.950 . S
C556 C557 1.327 . S
C557 H551 0.950 . S
C557 C556 1.327 . S
C557 C561 1.429 . S
C558 C541 1.520 1_565 S
C558 H552 0.959 . S
C558 C562 1.417 . S
C559 C540 1.429 . S
C559 C553 1.429 . S
C559 C560 1.523 . S
C560 C541 1.368 . S
C560 C554 1.368 . S
C560 C559 1.523 . S
C561 C545 1.429 . S
C561 C557 1.429 . S
C561 C562 1.523 . S
C562 C546 1.368 . S
C562 C558 1.417 . S
C562 C561 1.523 . S
H563 C538 0.950 . S
H564 C540 0.950 . S
H565 C541 0.949 . S
H566 C543 0.950 . S
H567 C545 0.950 . S
C568 C569 1.349 . S
C568 C570 1.327 . S
C568 H593 0.950 . S
C569 C568 1.349 . S
C569 C585 1.349 . S
C570 C568 1.327 . S
C570 C589 1.429 . S
C570 H594 0.950 . S
C571 C588 1.574 . S
C571 C590 1.368 . S
C571 H595 0.949 . S
H572 C576 0.949 . S
C573 C574 1.349 . S
C573 C575 1.327 . S
C573 H596 0.950 . S
C574 C573 1.349 . S
C574 C586 1.349 . S
C575 C573 1.327 . S
C575 C591 1.429 . S
C575 H597 0.950 . S
C576 H572 0.949 . S
C576 C584 1.574 . S
C576 C592 1.368 . S
H577 C585 0.950 . S
H578 C583 0.950 . S
H579 C584 0.949 . S
H580 C586 0.950 . S
H581 C587 0.950 . S
H582 C588 0.949 . S
C583 H578 0.950 . S
C583 C585 1.327 . S
C583 C589 1.429 . S
C584 C576 1.574 . S
C584 H579 0.949 . S
C584 C590 1.368 . S
C585 C569 1.349 . S
C585 H577 0.950 . S
C585 C583 1.327 . S
C586 C574 1.349 . S
C586 H580 0.950 . S
C586 C587 1.327 . S
C587 H581 0.950 . S
C587 C586 1.327 . S
C587 C591 1.429 . S
C588 C571 1.574 . S
C588 H582 0.949 . S
C588 C592 1.368 . S
C589 C570 1.429 . S
C589 C583 1.429 . S
C589 C590 1.523 . S
C590 C571 1.368 . S
C590 C584 1.368 . S
C590 C589 1.523 . S
C591 C575 1.429 . S
C591 C587 1.429 . S
C591 C592 1.523 . S
C592 C576 1.368 . S
C592 C588 1.368 . S
C592 C591 1.523 . S
H593 C568 0.950 . S
H594 C570 0.950 . S
H595 C571 0.949 . S
H596 C573 0.950 . S
H597 C575 0.950 . S
C598 C599 1.349 . S
C598 C600 1.327 . S
C598 H623 0.950 . S
C599 C598 1.349 . S
C599 C615 1.349 . S
C600 C598 1.327 . S
C600 C619 1.429 . S
C600 H624 0.950 . S
C601 C618 1.574 . S
C601 C620 1.368 . S
C601 H625 0.949 . S
H602 C606 0.949 . S
C603 C604 1.349 . S
C603 C605 1.327 . S
C603 H626 0.950 . S
C604 C603 1.349 . S
C604 C616 1.349 . S
C605 C603 1.327 . S
C605 C621 1.429 . S
C605 H627 0.950 . S
C606 H602 0.949 . S
C606 C614 1.574 . S
C606 C622 1.368 . S
H607 C615 0.950 . S
H608 C613 0.950 . S
H609 C614 0.949 . S
H610 C616 0.950 . S
H611 C617 0.950 . S
H612 C618 0.949 . S
C613 H608 0.950 . S
C613 C615 1.327 . S
C613 C619 1.429 . S
C614 C606 1.574 . S
C614 H609 0.949 . S
C614 C620 1.368 1_565 S
C615 C599 1.349 . S
C615 H607 0.950 . S
C615 C613 1.327 . S
C616 C604 1.349 . S
C616 H610 0.950 . S
C616 C617 1.327 . S
C617 H611 0.950 . S
C617 C616 1.327 . S
C617 C621 1.429 . S
C618 C601 1.574 . S
C618 H612 0.949 . S
C618 C622 1.368 1_545 S
C619 C600 1.429 . S
C619 C613 1.429 . S
C619 C620 1.523 . S
C620 C601 1.368 . S
C620 C614 1.368 1_545 S
C620 C619 1.523 . S
C621 C605 1.429 . S
C621 C617 1.429 . S
C621 C622 1.523 . S
C622 C606 1.368 . S
C622 C618 1.368 1_565 S
C622 C621 1.523 . S
H623 C598 0.950 . S
H624 C600 0.950 . S
H625 C601 0.949 . S
H626 C603 0.950 . S
H627 C605 0.950 . S
C628 C629 1.349 . S
C628 C630 1.327 . S
C628 H653 0.950 . S
C629 C628 1.349 . S
C629 C645 1.349 . S
C630 C628 1.327 . S
C630 C649 1.429 . S
C630 H654 0.950 . S
C631 C648 1.574 1_556 S
C631 C650 1.368 . S
C631 H655 0.949 . S
H632 C636 0.949 . S
C633 C634 1.349 . S
C633 C635 1.327 . S
C633 H656 0.950 . S
C634 C633 1.349 . S
C634 C646 1.349 . S
C635 C633 1.327 . S
C635 C651 1.429 . S
C635 H657 0.950 . S
C636 H632 0.949 . S
C636 C644 1.574 1_554 S
C636 C652 1.368 . S
H637 C645 0.950 . S
H638 C643 0.950 . S
H639 C644 0.949 . S
H640 C646 0.950 . S
H641 C647 0.950 . S
H642 C648 0.949 . S
C643 H638 0.950 . S
C643 C645 1.327 . S
C643 C649 1.429 . S
C644 C636 1.574 1_556 S
C644 H639 0.949 . S
C644 C650 1.368 . S
C645 C629 1.349 . S
C645 H637 0.950 . S
C645 C643 1.327 . S
C646 C634 1.349 . S
C646 H640 0.950 . S
C646 C647 1.327 . S
C647 H641 0.950 . S
C647 C646 1.327 . S
C647 C651 1.429 . S
C648 C631 1.574 1_554 S
C648 H642 0.949 . S
C648 C652 1.368 . S
C649 C630 1.429 . S
C649 C643 1.429 . S
C649 C650 1.523 . S
C650 C631 1.368 . S
C650 C644 1.368 . S
C650 C649 1.523 . S
C651 C635 1.429 . S
C651 C647 1.429 . S
C651 C652 1.523 . S
C652 C636 1.368 . S
C652 C648 1.368 . S
C652 C651 1.523 . S
H653 C628 0.950 . S
H654 C630 0.950 . S
H655 C631 0.949 . S
H656 C633 0.950 . S
H657 C635 0.950 . S
C658 C659 1.349 . S
C658 C660 1.327 . S
C658 H683 0.950 . S
C659 C658 1.349 . S
C659 C675 1.349 . S
C660 C658 1.327 . S
C660 C679 1.429 . S
C660 H684 0.950 . S
C661 C678 1.574 . S
C661 C680 1.368 . S
C661 H685 0.949 . S
H662 C666 0.949 . S
C663 C664 1.349 . S
C663 C665 1.327 . S
C663 H686 0.950 . S
C664 C663 1.349 . S
C664 C676 1.349 . S
C665 C663 1.327 . S
C665 C681 1.429 . S
C665 H687 0.950 . S
C666 H662 0.949 . S
C666 C674 1.574 . S
C666 C682 1.368 . S
H667 C675 0.950 . S
H668 C673 0.950 . S
H669 C674 0.949 . S
H670 C676 0.950 . S
H671 C677 0.950 . S
H672 C678 0.949 . S
C673 H668 0.950 . S
C673 C675 1.327 . S
C673 C679 1.429 . S
C674 C666 1.574 . S
C674 H669 0.949 . S
C674 C680 1.368 1_545 S
C675 C659 1.349 . S
C675 H667 0.950 . S
C675 C673 1.327 . S
C676 C664 1.349 . S
C676 H670 0.950 . S
C676 C677 1.327 . S
C677 H671 0.950 . S
C677 C676 1.327 . S
C677 C681 1.429 . S
C678 C661 1.574 . S
C678 H672 0.949 . S
C678 C682 1.368 1_565 S
C679 C660 1.429 . S
C679 C673 1.429 . S
C679 C680 1.523 . S
C680 C661 1.368 . S
C680 C674 1.368 1_565 S
C680 C679 1.523 . S
C681 C665 1.429 . S
C681 C677 1.429 . S
C681 C682 1.523 . S
C682 C666 1.368 . S
C682 C678 1.368 1_545 S
C682 C681 1.523 . S
H683 C658 0.950 . S
H684 C660 0.950 . S
H685 C661 0.949 . S
H686 C663 0.950 . S
H687 C665 0.950 . S
C688 C689 1.349 . S
C688 C690 1.327 . S
C688 H713 0.950 . S
C689 C688 1.349 . S
C689 C705 1.349 . S
C690 C688 1.327 . S
C690 C709 1.429 . S
C690 H714 0.950 . S
C691 C708 1.574 1_556 S
C691 C710 1.368 . S
C691 H715 0.949 . S
H692 C696 0.949 . S
C693 C694 1.349 . S
C693 C695 1.327 . S
C693 H716 0.950 . S
C694 C693 1.349 . S
C694 C706 1.349 . S
C695 C693 1.327 . S
C695 C711 1.429 . S
C695 H717 0.950 . S
C696 H692 0.949 . S
C696 C704 1.574 1_554 S
C696 C712 1.368 . S
H697 C705 0.950 . S
H698 C703 0.950 . S
H699 C704 0.949 . S
H700 C706 0.950 . S
H701 C707 0.950 . S
H702 C708 0.949 . S
C703 H698 0.950 . S
C703 C705 1.327 . S
C703 C709 1.429 . S
C704 C696 1.574 1_556 S
C704 H699 0.949 . S
C704 C710 1.368 . S
C705 C689 1.349 . S
C705 H697 0.950 . S
C705 C703 1.327 . S
C706 C694 1.349 . S
C706 H700 0.950 . S
C706 C707 1.327 . S
C707 H701 0.950 . S
C707 C706 1.327 . S
C707 C711 1.429 . S
C708 C691 1.574 1_554 S
C708 H702 0.949 . S
C708 C712 1.368 . S
C709 C690 1.429 . S
C709 C703 1.429 . S
C709 C710 1.523 . S
C710 C691 1.368 . S
C710 C704 1.368 . S
C710 C709 1.523 . S
C711 C695 1.429 . S
C711 C707 1.429 . S
C711 C712 1.523 . S
C712 C696 1.368 . S
C712 C708 1.368 . S
C712 C711 1.523 . S
H713 C688 0.950 . S
H714 C690 0.950 . S
H715 C691 0.949 . S
H716 C693 0.950 . S
H717 C695 0.950 . S
C718 C719 1.349 . S
C718 C720 1.327 . S
C718 H743 0.950 . S
C719 C718 1.349 . S
C719 C735 1.349 . S
C720 C718 1.327 . S
C720 C739 1.429 . S
C720 H744 0.950 . S
C721 C738 1.574 . S
C721 C740 1.368 . S
C721 H745 0.949 . S
H722 C726 0.949 . S
C723 C724 1.349 . S
C723 C725 1.327 . S
C723 H746 0.950 . S
C724 C723 1.349 . S
C724 C736 1.349 . S
C725 C723 1.327 . S
C725 C741 1.429 . S
C725 H747 0.950 . S
C726 H722 0.949 . S
C726 C734 1.574 . S
C726 C742 1.368 . S
H727 C735 0.950 . S
H728 C733 0.950 . S
H729 C734 0.949 . S
H730 C736 0.950 . S
H731 C737 0.950 . S
H732 C738 0.949 . S
C733 H728 0.950 . S
C733 C735 1.327 . S
C733 C739 1.429 . S
C734 C726 1.574 . S
C734 H729 0.949 . S
C734 C740 1.368 . S
C735 C719 1.349 . S
C735 H727 0.950 . S
C735 C733 1.327 . S
C736 C724 1.349 . S
C736 H730 0.950 . S
C736 C737 1.327 . S
C737 H731 0.950 . S
C737 C736 1.327 . S
C737 C741 1.429 . S
C738 C721 1.574 . S
C738 H732 0.949 . S
C738 C742 1.368 . S
C739 C720 1.429 . S
C739 C733 1.429 . S
C739 C740 1.523 . S
C740 C721 1.368 . S
C740 C734 1.368 . S
C740 C739 1.523 . S
C741 C725 1.429 . S
C741 C737 1.429 . S
C741 C742 1.523 . S
C742 C726 1.368 . S
C742 C738 1.368 . S
C742 C741 1.523 . S
H743 C718 0.950 . S
H744 C720 0.950 . S
H745 C721 0.949 . S
H746 C723 0.950 . S
H747 C725 0.950 . S
C748 C749 1.349 . S
C748 C750 1.327 . S
C748 H773 0.950 . S
C749 C748 1.349 . S
C749 C765 1.349 . S
C750 C748 1.327 . S
C750 C769 1.429 . S
C750 H774 0.950 . S
C751 C768 1.574 . S
C751 C770 1.368 . S
C751 H775 0.949 . S
H752 C756 0.949 . S
C753 C754 1.349 . S
C753 C755 1.327 . S
C753 H776 0.950 . S
C754 C753 1.349 . S
C754 C766 1.349 . S
C755 C753 1.327 . S
C755 C771 1.429 . S
C755 H777 0.950 . S
C756 H752 0.949 . S
C756 C764 1.574 . S
C756 C772 1.368 . S
H757 C765 0.950 . S
H758 C763 0.950 . S
H759 C764 0.949 . S
H760 C766 0.950 . S
H761 C767 0.950 . S
H762 C768 0.949 . S
C763 H758 0.950 . S
C763 C765 1.327 . S
C763 C769 1.429 . S
C764 C756 1.574 . S
C764 H759 0.949 . S
C764 C770 1.368 . S
C765 C749 1.349 . S
C765 H757 0.950 . S
C765 C763 1.327 . S
C766 C754 1.349 . S
C766 H760 0.950 . S
C766 C767 1.327 . S
C767 H761 0.950 . S
C767 C766 1.327 . S
C767 C771 1.429 . S
C768 C751 1.574 . S
C768 H762 0.949 . S
C768 C772 1.368 . S
C769 C750 1.429 . S
C769 C763 1.429 . S
C769 C770 1.523 . S
C770 C751 1.368 . S
C770 C764 1.368 . S
C770 C769 1.523 . S
C771 C755 1.429 . S
C771 C767 1.429 . S
C771 C772 1.523 . S
C772 C756 1.368 . S
C772 C768 1.368 . S
C772 C771 1.523 . S
H773 C748 0.950 . S
H774 C750 0.950 . S
H775 C751 0.949 . S
H776 C753 0.950 . S
H777 C755 0.950 . S
C778 C779 1.349 . S
C778 C780 1.327 . S
C778 H803 0.950 . S
C779 C778 1.349 . S
C779 C795 1.349 . S
C780 C778 1.327 . S
C780 C799 1.429 . S
C780 H804 0.950 . S
C781 C798 1.574 . S
C781 C800 1.368 . S
C781 H805 0.949 . S
H782 C786 0.949 . S
C783 C784 1.349 . S
C783 C785 1.327 . S
C783 H806 0.950 . S
C784 C783 1.349 . S
C784 C796 1.349 . S
C785 C783 1.327 . S
C785 C801 1.429 . S
C785 H807 0.950 . S
C786 H782 0.949 . S
C786 C794 1.574 . S
C786 C802 1.368 . S
H787 C795 0.950 . S
H788 C793 0.950 . S
H789 C794 0.949 . S
H790 C796 0.950 . S
H791 C797 0.950 . S
H792 C798 0.949 . S
C793 H788 0.950 . S
C793 C795 1.327 . S
C793 C799 1.429 . S
C794 C786 1.574 . S
C794 H789 0.949 . S
C794 C800 1.368 . S
C795 C779 1.349 . S
C795 H787 0.950 . S
C795 C793 1.327 . S
C796 C784 1.349 . S
C796 H790 0.950 . S
C796 C797 1.327 . S
C797 H791 0.950 . S
C797 C796 1.327 . S
C797 C801 1.429 . S
C798 C781 1.574 . S
C798 H792 0.949 . S
C798 C802 1.368 . S
C799 C780 1.429 . S
C799 C793 1.429 . S
C799 C800 1.523 . S
C800 C781 1.368 . S
C800 C794 1.368 . S
C800 C799 1.523 . S
C801 C785 1.429 . S
C801 C797 1.429 . S
C801 C802 1.523 . S
C802 C786 1.368 . S
C802 C798 1.368 . S
C802 C801 1.523 . S
H803 C778 0.950 . S
H804 C780 0.950 . S
H805 C781 0.949 . S
H806 C783 0.950 . S
H807 C785 0.950 . S
C808 C809 1.349 . S
C808 C810 1.327 . S
C808 H833 0.950 . S
C809 C808 1.349 . S
C809 C825 1.349 . S
C810 C808 1.327 . S
C810 C829 1.429 . S
C810 H834 0.950 . S
C811 C828 1.574 1_556 S
C811 C830 1.368 . S
C811 H835 0.949 . S
H812 C816 0.949 . S
C813 C814 1.349 . S
C813 C815 1.327 . S
C813 H836 0.950 . S
C814 C813 1.349 . S
C814 C826 1.349 . S
C815 C813 1.327 . S
C815 C831 1.429 . S
C815 H837 0.950 . S
C816 H812 0.949 . S
C816 C824 1.574 1_554 S
C816 C832 1.368 . S
H817 C825 0.950 . S
H818 C823 0.950 . S
H819 C824 0.949 . S
H820 C826 0.950 . S
H821 C827 0.950 . S
H822 C828 0.949 . S
C823 H818 0.950 . S
C823 C825 1.327 . S
C823 C829 1.429 . S
C824 C816 1.574 1_556 S
C824 H819 0.949 . S
C824 C830 1.368 . S
C825 C809 1.349 . S
C825 H817 0.950 . S
C825 C823 1.327 . S
C826 C814 1.349 . S
C826 H820 0.950 . S
C826 C827 1.327 . S
C827 H821 0.950 . S
C827 C826 1.327 . S
C827 C831 1.429 . S
C828 C811 1.574 1_554 S
C828 H822 0.949 . S
C828 C832 1.368 . S
C829 C810 1.429 . S
C829 C823 1.429 . S
C829 C830 1.523 . S
C830 C811 1.368 . S
C830 C824 1.368 . S
C830 C829 1.523 . S
C831 C815 1.429 . S
C831 C827 1.429 . S
C831 C832 1.523 . S
C832 C816 1.368 . S
C832 C828 1.368 . S
C832 C831 1.523 . S
H833 C808 0.950 . S
H834 C810 0.950 . S
H835 C811 0.949 . S
H836 C813 0.950 . S
H837 C815 0.950 . S
C838 C839 1.349 . S
C838 C840 1.327 . S
C838 H863 0.950 . S
C839 C838 1.349 . S
C839 C855 1.349 . S
C840 C838 1.327 . S
C840 C859 1.429 . S
C840 H864 0.950 . S
C841 C858 1.574 . S
C841 C860 1.368 . S
C841 H865 0.949 . S
H842 C846 0.949 . S
C843 C844 1.349 . S
C843 C845 1.327 . S
C843 H866 0.950 . S
C844 C843 1.349 . S
C844 C856 1.349 . S
C845 C843 1.327 . S
C845 C861 1.429 . S
C845 H867 0.950 . S
C846 H842 0.949 . S
C846 C854 1.574 . S
C846 C862 1.368 . S
H847 C855 0.950 . S
H848 C853 0.950 . S
H849 C854 0.949 . S
H850 C856 0.950 . S
H851 C857 0.950 . S
H852 C858 0.949 . S
C853 H848 0.950 . S
C853 C855 1.327 . S
C853 C859 1.429 . S
C854 C846 1.574 . S
C854 H849 0.949 . S
C854 C860 1.368 . S
C855 C839 1.349 . S
C855 H847 0.950 . S
C855 C853 1.327 . S
C856 C844 1.349 . S
C856 H850 0.950 . S
C856 C857 1.327 . S
C857 H851 0.950 . S
C857 C856 1.327 . S
C857 C861 1.429 . S
C858 C841 1.574 . S
C858 H852 0.949 . S
C858 C862 1.368 . S
C859 C840 1.429 . S
C859 C853 1.429 . S
C859 C860 1.523 . S
C860 C841 1.368 . S
C860 C854 1.368 . S
C860 C859 1.523 . S
C861 C845 1.429 . S
C861 C857 1.429 . S
C861 C862 1.523 . S
C862 C846 1.368 . S
C862 C858 1.368 . S
C862 C861 1.523 . S
H863 C838 0.950 . S
H864 C840 0.950 . S
H865 C841 0.949 . S
H866 C843 0.950 . S
H867 C845 0.950 . S
C868 C869 1.349 . S
C868 C870 1.327 . S
C868 H893 0.950 . S
C869 C868 1.349 . S
C869 C885 1.349 . S
C870 C868 1.327 . S
C870 C889 1.429 . S
C870 H894 0.950 . S
C871 C888 1.574 . S
C871 C890 1.368 . S
C871 H895 0.949 . S
H872 C876 0.949 . S
C873 C874 1.349 . S
C873 C875 1.327 . S
C873 H896 0.950 . S
C874 C873 1.349 . S
C874 C886 1.349 . S
C875 C873 1.327 . S
C875 C891 1.429 . S
C875 H897 0.950 . S
C876 H872 0.949 . S
C876 C884 1.574 . S
C876 C892 1.368 . S
H877 C885 0.950 . S
H878 C883 0.950 . S
H879 C884 0.949 . S
H880 C886 0.950 . S
H881 C887 0.950 . S
H882 C888 0.949 . S
C883 H878 0.950 . S
C883 C885 1.327 . S
C883 C889 1.429 . S
C884 C876 1.574 . S
C884 H879 0.949 . S
C884 C890 1.368 . S
C885 C869 1.349 . S
C885 H877 0.950 . S
C885 C883 1.327 . S
C886 C874 1.349 . S
C886 H880 0.950 . S
C886 C887 1.327 . S
C887 H881 0.950 . S
C887 C886 1.327 . S
C887 C891 1.429 . S
C888 C871 1.574 . S
C888 H882 0.949 . S
C888 C892 1.368 . S
C889 C870 1.429 . S
C889 C883 1.429 . S
C889 C890 1.523 . S
C890 C871 1.368 . S
C890 C884 1.368 . S
C890 C889 1.523 . S
C891 C875 1.429 . S
C891 C887 1.429 . S
C891 C892 1.523 . S
C892 C876 1.368 . S
C892 C888 1.368 . S
C892 C891 1.523 . S
H893 C868 0.950 . S
H894 C870 0.950 . S
H895 C871 0.949 . S
H896 C873 0.950 . S
H897 C875 0.950 . S
C898 C899 1.349 . S
C898 C900 1.327 . S
C898 H923 0.950 . S
C899 C898 1.349 . S
C899 C915 1.349 . S
C900 C898 1.327 . S
C900 C919 1.429 . S
C900 H924 0.950 . S
C901 C918 1.574 . S
C901 C920 1.368 . S
C901 H925 0.949 . S
H902 C906 0.949 . S
C903 C904 1.349 . S
C903 C905 1.327 . S
C903 H926 0.950 . S
C904 C903 1.349 . S
C904 C916 1.349 . S
C905 C903 1.327 . S
C905 C921 1.429 . S
C905 H927 0.950 . S
C906 H902 0.949 . S
C906 C914 1.574 . S
C906 C922 1.368 . S
H907 C915 0.950 . S
H908 C913 0.950 . S
H909 C914 0.949 . S
H910 C916 0.950 . S
H911 C917 0.950 . S
H912 C918 0.949 . S
C913 H908 0.950 . S
C913 C915 1.327 . S
C913 C919 1.429 . S
C914 C906 1.574 . S
C914 H909 0.949 . S
C914 C920 1.368 . S
C915 C899 1.349 . S
C915 H907 0.950 . S
C915 C913 1.327 . S
C916 C904 1.349 . S
C916 H910 0.950 . S
C916 C917 1.327 . S
C917 H911 0.950 . S
C917 C916 1.327 . S
C917 C921 1.429 . S
C918 C901 1.574 . S
C918 H912 0.949 . S
C918 C922 1.368 . S
C919 C900 1.429 . S
C919 C913 1.429 . S
C919 C920 1.523 . S
C920 C901 1.368 . S
C920 C914 1.368 . S
C920 C919 1.523 . S
C921 C905 1.429 . S
C921 C917 1.429 . S
C921 C922 1.523 . S
C922 C906 1.368 . S
C922 C918 1.368 . S
C922 C921 1.523 . S
H923 C898 0.950 . S
H924 C900 0.950 . S
H925 C901 0.949 . S
H926 C903 0.950 . S
H927 C905 0.950 . S
C928 C929 1.349 . S
C928 C930 1.327 . S
C928 H953 0.950 . S
C929 C928 1.349 . S
C929 C945 1.349 . S
C930 C928 1.327 . S
C930 C949 1.429 . S
C930 H954 0.950 . S
C931 C948 1.574 . S
C931 C950 1.368 . S
C931 H955 0.949 . S
H932 C936 0.949 . S
C933 C934 1.349 . S
C933 C935 1.327 . S
C933 H956 0.950 . S
C934 C933 1.349 . S
C934 C946 1.349 . S
C935 C933 1.327 . S
C935 C951 1.429 . S
C935 H957 0.950 . S
C936 H932 0.949 . S
C936 C944 1.574 . S
C936 C952 1.368 . S
H937 C945 0.958 . S
H938 C943 0.950 . S
H939 C944 0.949 . S
H940 C946 0.950 . S
H941 C947 0.950 . S
H942 C948 0.949 . S
C943 H938 0.950 . S
C943 C945 1.327 . S
C943 C949 1.429 . S
C944 C936 1.574 . S
C944 H939 0.949 . S
C944 C950 1.368 . S
C945 C929 1.349 . S
C945 H937 0.958 . S
C945 C943 1.327 . S
C946 C934 1.349 . S
C946 H940 0.950 . S
C946 C947 1.327 . S
C947 H941 0.950 . S
C947 C946 1.327 . S
C947 C951 1.429 . S
C948 C931 1.574 . S
C948 H942 0.949 . S
C948 C952 1.368 . S
C949 C930 1.429 . S
C949 C943 1.429 . S
C949 C950 1.523 . S
C950 C931 1.368 . S
C950 C944 1.368 . S
C950 C949 1.523 . S
C951 C935 1.429 . S
C951 C947 1.429 . S
C951 C952 1.523 . S
C952 C936 1.368 . S
C952 C948 1.368 . S
C952 C951 1.523 . S
H953 C928 0.950 . S
H954 C930 0.950 . S
H955 C931 0.949 . S
H956 C933 0.950 . S
H957 C935 0.950 . S
C958 C959 1.349 . S
C958 C960 1.327 . S
C958 H983 0.950 . S
C959 C958 1.349 . S
C959 C975 1.349 . S
C960 C958 1.327 . S
C960 C979 1.429 . S
C960 H984 0.950 . S
C961 C978 1.574 . S
C961 C980 1.368 . S
C961 H985 0.949 . S
H962 C966 0.949 . S
C963 C964 1.349 . S
C963 C965 1.327 . S
C963 H986 0.950 . S
C964 C963 1.349 . S
C964 C976 1.349 . S
C965 C963 1.327 . S
C965 C981 1.429 . S
C965 H987 0.950 . S
C966 H962 0.949 . S
C966 C974 1.574 . S
C966 C982 1.368 . S
H967 C975 0.950 . S
H968 C973 0.950 . S
H969 C974 0.949 . S
H970 C976 0.950 . S
H971 C977 0.950 . S
H972 C978 0.949 . S
C973 H968 0.950 . S
C973 C975 1.327 . S
C973 C979 1.429 . S
C974 C966 1.574 . S
C974 H969 0.949 . S
C974 C980 1.368 . S
C975 C959 1.349 . S
C975 H967 0.950 . S
C975 C973 1.327 . S
C976 C964 1.349 . S
C976 H970 0.950 . S
C976 C977 1.327 . S
C977 H971 0.950 . S
C977 C976 1.327 . S
C977 C981 1.429 . S
C978 C961 1.574 . S
C978 H972 0.949 . S
C978 C982 1.368 . S
C979 C960 1.429 . S
C979 C973 1.429 . S
C979 C980 1.523 . S
C980 C961 1.368 . S
C980 C974 1.368 . S
C980 C979 1.523 . S
C981 C965 1.429 . S
C981 C977 1.429 . S
C981 C982 1.523 . S
C982 C966 1.368 . S
C982 C978 1.368 . S
C982 C981 1.523 . S
H983 C958 0.950 . S
H984 C960 0.950 . S
H985 C961 0.949 . S
H986 C963 0.950 . S
H987 C965 0.950 . S
C988 C989 1.349 . S
C988 C990 1.327 . S
C988 H1013 0.950 . S
C989 C988 1.349 . S
C989 C1005 1.349 . S
C990 C988 1.327 . S
C990 C1009 1.429 . S
C990 H1014 0.950 . S
C991 C1008 1.574 . S
C991 C1010 1.368 . S
C991 H1015 0.949 . S
H992 C996 0.949 . S
C993 C994 1.349 . S
C993 C995 1.327 . S
C993 H1016 0.950 . S
C994 C993 1.349 . S
C994 C1006 1.349 . S
C995 C993 1.327 . S
C995 C1011 1.429 . S
C995 H1017 0.950 . S
C996 H992 0.949 . S
C996 C1004 1.574 . S
C996 C1012 1.368 . S
H997 C1005 0.950 . S
H998 C1003 0.950 . S
H999 C1004 0.949 . S
H1000 C1006 0.950 . S
H1001 C1007 0.950 . S
H1002 C1008 0.949 . S
C1003 H998 0.950 . S
C1003 C1005 1.327 . S
C1003 C1009 1.429 . S
C1004 C996 1.574 . S
C1004 H999 0.949 . S
C1004 C1010 1.368 . S
C1005 C989 1.349 . S
C1005 H997 0.950 . S
C1005 C1003 1.327 . S
C1006 C994 1.349 . S
C1006 H1000 0.950 . S
C1006 C1007 1.327 . S
C1007 H1001 0.950 . S
C1007 C1006 1.327 . S
C1007 C1011 1.429 . S
C1008 C991 1.574 . S
C1008 H1002 0.949 . S
C1008 C1012 1.368 . S
C1009 C990 1.429 . S
C1009 C1003 1.429 . S
C1009 C1010 1.523 . S
C1010 C991 1.368 . S
C1010 C1004 1.368 . S
C1010 C1009 1.523 . S
C1011 C995 1.429 . S
C1011 C1007 1.429 . S
C1011 C1012 1.523 . S
C1012 C996 1.368 . S
C1012 C1008 1.368 . S
C1012 C1011 1.523 . S
H1013 C988 0.950 . S
H1014 C990 0.950 . S
H1015 C991 0.949 . S
H1016 C993 0.950 . S
H1017 C995 0.950 . S
C1018 C1019 1.349 . S
C1018 C1020 1.327 . S
C1018 H1043 0.950 . S
C1019 C1018 1.349 . S
C1019 C1035 1.349 . S
C1020 C1018 1.327 . S
C1020 C1039 1.429 . S
C1020 H1044 0.950 . S
C1021 C1038 1.574 . S
C1021 C1040 1.368 . S
C1021 H1045 0.949 . S
H1022 C1026 0.949 . S
C1023 C1024 1.349 1_554 S
C1023 C1025 1.327 1_554 S
C1023 H1046 0.950 . S
C1024 C1023 1.349 1_556 S
C1024 C1036 1.349 . S
C1025 C1023 1.327 1_556 S
C1025 C1041 1.429 . S
C1025 H1047 0.950 1_556 S
C1026 H1022 0.949 . S
C1026 C1034 1.574 . S
C1026 C1042 1.368 . S
H1027 C1035 0.950 . S
H1028 C1033 0.950 . S
H1029 C1034 0.949 . S
H1030 C1036 0.950 . S
H1031 C1037 0.950 . S
H1032 C1038 0.949 . S
C1033 H1028 0.950 . S
C1033 C1035 1.327 . S
C1033 C1039 1.429 . S
C1034 C1026 1.574 . S
C1034 H1029 0.949 . S
C1034 C1040 1.368 . S
C1035 C1019 1.349 . S
C1035 H1027 0.950 . S
C1035 C1033 1.327 . S
C1036 C1024 1.349 . S
C1036 H1030 0.950 . S
C1036 C1037 1.327 . S
C1037 H1031 0.950 . S
C1037 C1036 1.327 . S
C1037 C1041 1.429 . S
C1038 C1021 1.574 . S
C1038 H1032 0.949 . S
C1038 C1042 1.368 . S
C1039 C1020 1.429 . S
C1039 C1033 1.429 . S
C1039 C1040 1.523 . S
C1040 C1021 1.368 . S
C1040 C1034 1.368 . S
C1040 C1039 1.523 . S
C1041 C1025 1.429 . S
C1041 C1037 1.429 . S
C1041 C1042 1.523 . S
C1042 C1026 1.368 . S
C1042 C1038 1.368 . S
C1042 C1041 1.523 . S
H1043 C1018 0.950 . S
H1044 C1020 0.950 . S
H1045 C1021 0.949 . S
H1046 C1023 0.950 . S
H1047 C1025 0.950 1_554 S
C1048 C1049 1.349 . S
C1048 C1050 1.327 . S
C1048 H1073 0.950 . S
C1049 C1048 1.349 . S
C1049 C1065 1.349 . S
C1050 C1048 1.327 . S
C1050 C1069 1.429 . S
C1050 H1074 0.950 . S
C1051 C1068 1.574 . S
C1051 C1070 1.368 . S
C1051 H1075 0.949 . S
H1052 C1056 0.949 . S
C1053 C1054 1.349 . S
C1053 C1055 1.327 . S
C1053 H1076 0.950 . S
C1054 C1053 1.349 . S
C1054 C1066 1.349 . S
C1055 C1053 1.327 . S
C1055 C1071 1.429 . S
C1055 H1077 0.950 . S
C1056 H1052 0.949 . S
C1056 C1064 1.574 . S
C1056 C1072 1.368 . S
H1057 C1065 0.950 . S
H1058 C1063 0.950 . S
H1059 C1064 0.949 . S
H1060 C1066 0.950 . S
H1061 C1067 0.950 . S
H1062 C1068 0.949 . S
C1063 H1058 0.950 . S
C1063 C1065 1.327 . S
C1063 C1069 1.429 . S
C1064 C1056 1.574 . S
C1064 H1059 0.949 . S
C1064 C1070 1.368 . S
C1065 C1049 1.349 . S
C1065 H1057 0.950 . S
C1065 C1063 1.327 . S
C1066 C1054 1.349 . S
C1066 H1060 0.950 . S
C1066 C1067 1.327 . S
C1067 H1061 0.950 . S
C1067 C1066 1.327 . S
C1067 C1071 1.429 . S
C1068 C1051 1.574 . S
C1068 H1062 0.949 . S
C1068 C1072 1.368 . S
C1069 C1050 1.429 . S
C1069 C1063 1.429 . S
C1069 C1070 1.523 . S
C1070 C1051 1.368 . S
C1070 C1064 1.368 . S
C1070 C1069 1.523 . S
C1071 C1055 1.429 . S
C1071 C1067 1.429 . S
C1071 C1072 1.523 . S
C1072 C1056 1.368 . S
C1072 C1068 1.368 . S
C1072 C1071 1.523 . S
H1073 C1048 0.950 . S
H1074 C1050 0.950 . S
H1075 C1051 0.949 . S
H1076 C1053 0.950 . S
H1077 C1055 0.950 . S
C1078 C1079 1.349 . S
C1078 C1080 1.327 . S
C1078 H1103 0.950 . S
C1079 C1078 1.349 . S
C1079 C1095 1.349 . S
C1080 C1078 1.327 . S
C1080 C1099 1.429 . S
C1080 H1104 0.950 . S
C1081 C1098 1.574 . S
C1081 C1100 1.368 . S
C1081 H1105 0.949 . S
H1082 C1086 0.949 . S
C1083 C1084 1.349 . S
C1083 C1085 1.327 . S
C1083 H1106 0.950 . S
C1084 C1083 1.349 . S
C1084 C1096 1.349 . S
C1085 C1083 1.327 . S
C1085 C1101 1.429 . S
C1085 H1107 0.950 . S
C1086 H1082 0.949 . S
C1086 C1094 1.574 . S
C1086 C1102 1.368 . S
H1087 C1095 0.950 . S
H1088 C1093 0.950 . S
H1089 C1094 0.949 . S
H1090 C1096 0.950 . S
H1091 C1097 0.950 . S
H1092 C1098 0.949 . S
C1093 H1088 0.950 . S
C1093 C1095 1.327 . S
C1093 C1099 1.429 . S
C1094 C1086 1.574 . S
C1094 H1089 0.949 . S
C1094 C1100 1.368 . S
C1095 C1079 1.349 . S
C1095 H1087 0.950 . S
C1095 C1093 1.327 . S
C1096 C1084 1.349 . S
C1096 H1090 0.950 . S
C1096 C1097 1.327 . S
C1097 H1091 0.950 . S
C1097 C1096 1.327 . S
C1097 C1101 1.429 . S
C1098 C1081 1.574 . S
C1098 H1092 0.949 . S
C1098 C1102 1.368 . S
C1099 C1080 1.429 . S
C1099 C1093 1.429 . S
C1099 C1100 1.523 . S
C1100 C1081 1.368 . S
C1100 C1094 1.368 . S
C1100 C1099 1.523 . S
C1101 C1085 1.429 . S
C1101 C1097 1.429 . S
C1101 C1102 1.523 . S
C1102 C1086 1.368 . S
C1102 C1098 1.368 . S
C1102 C1101 1.523 . S
H1103 C1078 0.950 . S
H1104 C1080 0.950 . S
H1105 C1081 0.949 . S
H1106 C1083 0.950 . S
H1107 C1085 0.950 . S
C1108 C1109 1.349 . S
C1108 C1110 1.327 . S
C1108 H1133 0.950 . S
C1109 C1108 1.349 . S
C1109 C1125 1.349 . S
C1110 C1108 1.327 . S
C1110 C1129 1.429 . S
C1110 H1134 0.950 . S
C1111 C1128 1.574 . S
C1111 C1130 1.368 . S
C1111 H1135 0.949 . S
H1112 C1116 0.949 . S
C1113 C1114 1.349 . S
C1113 C1115 1.327 . S
C1113 H1136 0.950 . S
C1114 C1113 1.349 . S
C1114 C1126 1.349 . S
C1115 C1113 1.327 . S
C1115 C1131 1.429 . S
C1115 H1137 0.950 . S
C1116 H1112 0.949 . S
C1116 C1124 1.574 . S
C1116 C1132 1.368 . S
H1117 C1125 0.950 . S
H1118 C1123 0.950 . S
H1119 C1124 0.949 . S
H1120 C1126 0.950 . S
H1121 C1127 0.950 . S
H1122 C1128 0.949 . S
C1123 H1118 0.950 . S
C1123 C1125 1.327 . S
C1123 C1129 1.429 . S
C1124 C1116 1.574 . S
C1124 H1119 0.949 . S
C1124 C1130 1.368 . S
C1125 C1109 1.349 . S
C1125 H1117 0.950 . S
C1125 C1123 1.327 . S
C1126 C1114 1.349 . S
C1126 H1120 0.950 . S
C1126 C1127 1.327 . S
C1127 H1121 0.950 . S
C1127 C1126 1.327 . S
C1127 C1131 1.429 . S
C1128 C1111 1.574 . S
C1128 H1122 0.949 . S
C1128 C1132 1.368 . S
C1129 C1110 1.429 . S
C1129 C1123 1.429 . S
C1129 C1130 1.523 . S
C1130 C1111 1.368 . S
C1130 C1124 1.368 . S
C1130 C1129 1.523 . S
C1131 C1115 1.429 . S
C1131 C1127 1.429 . S
C1131 C1132 1.523 . S
C1132 C1116 1.368 . S
C1132 C1128 1.368 . S
C1132 C1131 1.523 . S
H1133 C1108 0.950 . S
H1134 C1110 0.950 . S
H1135 C1111 0.949 . S
H1136 C1113 0.950 . S
H1137 C1115 0.950 . S
C1138 C1139 1.349 1_556 S
C1138 C1140 1.327 1_556 S
C1138 H1163 0.950 . S
C1139 C1138 1.349 1_554 S
C1139 C1155 1.349 . S
C1140 C1138 1.327 1_554 S
C1140 C1159 1.429 . S
C1140 H1164 0.950 1_554 S
C1141 C1158 1.574 . S
C1141 C1160 1.368 . S
C1141 H1165 0.949 . S
H1142 C1146 0.949 . S
C1143 C1144 1.349 . S
C1143 C1145 1.327 . S
C1143 H1166 0.950 . S
C1144 C1143 1.349 . S
C1144 C1156 1.349 . S
C1145 C1143 1.327 . S
C1145 C1161 1.429 . S
C1145 H1167 0.950 . S
C1146 H1142 0.949 . S
C1146 C1154 1.574 . S
C1146 C1162 1.368 . S
H1147 C1155 0.950 . S
H1148 C1153 0.950 . S
H1149 C1154 0.949 . S
H1150 C1156 0.950 . S
H1151 C1157 0.950 . S
H1152 C1158 0.949 . S
C1153 H1148 0.950 . S
C1153 C1155 1.327 . S
C1153 C1159 1.429 . S
C1154 C1146 1.574 . S
C1154 H1149 0.949 . S
C1154 C1160 1.368 . S
C1155 C1139 1.349 . S
C1155 H1147 0.950 . S
C1155 C1153 1.327 . S
C1156 C1144 1.349 . S
C1156 H1150 0.950 . S
C1156 C1157 1.327 . S
C1157 H1151 0.950 . S
C1157 C1156 1.327 . S
C1157 C1161 1.429 . S
C1158 C1141 1.574 . S
C1158 H1152 0.949 . S
C1158 C1162 1.368 . S
C1159 C1140 1.429 . S
C1159 C1153 1.429 . S
C1159 C1160 1.523 . S
C1160 C1141 1.368 . S
C1160 C1154 1.368 . S
C1160 C1159 1.523 . S
C1161 C1145 1.429 . S
C1161 C1157 1.429 . S
C1161 C1162 1.523 . S
C1162 C1146 1.368 . S
C1162 C1158 1.368 . S
C1162 C1161 1.523 . S
H1163 C1138 0.950 . S
H1164 C1140 0.950 1_556 S
H1165 C1141 0.949 . S
H1166 C1143 0.950 . S
H1167 C1145 0.950 . S
C1168 C1169 1.349 . S
C1168 C1170 1.327 . S
C1168 H1193 0.950 . S
C1169 C1168 1.349 . S
C1169 C1185 1.349 . S
C1170 C1168 1.327 . S
C1170 C1189 1.429 . S
C1170 H1194 0.950 . S
C1171 C1188 1.574 . S
C1171 C1190 1.368 . S
C1171 H1195 0.949 . S
H1172 C1176 0.949 . S
C1173 C1174 1.349 . S
C1173 C1175 1.327 . S
C1173 H1196 0.950 . S
C1174 C1173 1.349 . S
C1174 C1186 1.349 . S
C1175 C1173 1.327 . S
C1175 C1191 1.429 . S
C1175 H1197 0.950 . S
C1176 H1172 0.949 . S
C1176 C1184 1.574 . S
C1176 C1192 1.368 . S
H1177 C1185 0.950 . S
H1178 C1183 0.950 . S
H1179 C1184 0.949 . S
H1180 C1186 0.950 . S
H1181 C1187 0.950 . S
H1182 C1188 0.949 . S
C1183 H1178 0.950 . S
C1183 C1185 1.327 . S
C1183 C1189 1.429 . S
C1184 C1176 1.574 . S
C1184 H1179 0.949 . S
C1184 C1190 1.368 . S
C1185 C1169 1.349 . S
C1185 H1177 0.950 . S
C1185 C1183 1.327 . S
C1186 C1174 1.349 . S
C1186 H1180 0.950 . S
C1186 C1187 1.327 . S
C1187 H1181 0.950 . S
C1187 C1186 1.327 . S
C1187 C1191 1.429 . S
C1188 C1171 1.574 . S
C1188 H1182 0.949 . S
C1188 C1192 1.368 . S
C1189 C1170 1.429 . S
C1189 C1183 1.429 . S
C1189 C1190 1.523 . S
C1190 C1171 1.368 . S
C1190 C1184 1.368 . S
C1190 C1189 1.523 . S
C1191 C1175 1.429 . S
C1191 C1187 1.429 . S
C1191 C1192 1.523 . S
C1192 C1176 1.368 . S
C1192 C1188 1.368 . S
C1192 C1191 1.523 . S
H1193 C1168 0.950 . S
H1194 C1170 0.950 . S
H1195 C1171 0.949 . S
H1196 C1173 0.950 . S
H1197 C1175 0.950 . S
C1198 C1199 1.349 . S
C1198 C1200 1.327 . S
C1198 H1223 0.950 . S
C1199 C1198 1.349 . S
C1199 C1215 1.349 . S
C1200 C1198 1.327 . S
C1200 C1219 1.429 . S
C1200 H1224 0.950 . S
C1201 C1218 1.574 . S
C1201 C1220 1.368 . S
C1201 H1225 0.949 . S
H1202 C1206 0.949 . S
C1203 C1204 1.349 . S
C1203 C1205 1.327 . S
C1203 H1226 0.950 . S
C1204 C1203 1.349 . S
C1204 C1216 1.349 . S
C1205 C1203 1.327 . S
C1205 C1221 1.429 . S
C1205 H1227 0.950 . S
C1206 H1202 0.949 . S
C1206 C1214 1.574 . S
C1206 C1222 1.368 . S
H1207 C1215 0.950 1_554 S
H1208 C1213 0.950 . S
H1209 C1214 0.949 . S
H1210 C1216 0.950 . S
H1211 C1217 0.950 . S
H1212 C1218 0.949 . S
C1213 H1208 0.950 . S
C1213 C1215 1.327 . S
C1213 C1219 1.429 . S
C1214 C1206 1.574 . S
C1214 H1209 0.949 . S
C1214 C1220 1.368 . S
C1215 C1199 1.349 . S
C1215 H1207 0.950 1_556 S
C1215 C1213 1.327 . S
C1216 C1204 1.349 . S
C1216 H1210 0.950 . S
C1216 C1217 1.327 . S
C1217 H1211 0.950 . S
C1217 C1216 1.327 . S
C1217 C1221 1.429 . S
C1218 C1201 1.574 . S
C1218 H1212 0.949 . S
C1218 C1222 1.368 . S
C1219 C1200 1.429 . S
C1219 C1213 1.429 . S
C1219 C1220 1.523 . S
C1220 C1201 1.368 . S
C1220 C1214 1.368 . S
C1220 C1219 1.523 . S
C1221 C1205 1.429 . S
C1221 C1217 1.429 . S
C1221 C1222 1.523 . S
C1222 C1206 1.368 . S
C1222 C1218 1.368 . S
C1222 C1221 1.523 . S
H1223 C1198 0.950 . S
H1224 C1200 0.950 . S
H1225 C1201 0.949 . S
H1226 C1203 0.950 . S
H1227 C1205 0.950 . S
C1228 C1229 1.349 . S
C1228 C1230 1.327 . S
C1228 H1253 0.950 . S
C1229 C1228 1.349 . S
C1229 C1245 1.349 . S
C1230 C1228 1.327 . S
C1230 C1249 1.429 . S
C1230 H1254 0.950 . S
C1231 C1248 1.574 . S
C1231 C1250 1.368 . S
C1231 H1255 0.949 . S
H1232 C1236 0.949 . S
C1233 C1234 1.349 1_556 S
C1233 C1235 1.327 1_556 S
C1233 H1256 0.950 . S
C1234 C1233 1.349 1_554 S
C1234 C1246 1.349 . S
C1235 C1233 1.327 1_554 S
C1235 C1251 1.429 . S
C1235 H1257 0.950 1_554 S
C1236 H1232 0.949 . S
C1236 C1244 1.574 . S
C1236 C1252 1.368 . S
H1237 C1245 0.950 . S
H1238 C1243 0.950 . S
H1239 C1244 0.949 . S
H1240 C1246 0.950 . S
H1241 C1247 0.950 . S
H1242 C1248 0.949 . S
C1243 H1238 0.950 . S
C1243 C1245 1.327 . S
C1243 C1249 1.429 . S
C1244 C1236 1.574 . S
C1244 H1239 0.949 . S
C1244 C1250 1.368 . S
C1245 C1229 1.349 . S
C1245 H1237 0.950 . S
C1245 C1243 1.327 . S
C1246 C1234 1.349 . S
C1246 H1240 0.950 . S
C1246 C1247 1.327 . S
C1247 H1241 0.950 . S
C1247 C1246 1.327 . S
C1247 C1251 1.429 . S
C1248 C1231 1.574 . S
C1248 H1242 0.949 . S
C1248 C1252 1.368 . S
C1249 C1230 1.429 . S
C1249 C1243 1.429 . S
C1249 C1250 1.523 . S
C1250 C1231 1.368 . S
C1250 C1244 1.368 . S
C1250 C1249 1.523 . S
C1251 C1235 1.429 . S
C1251 C1247 1.429 . S
C1251 C1252 1.523 . S
C1252 C1236 1.368 . S
C1252 C1248 1.368 . S
C1252 C1251 1.523 . S
H1253 C1228 0.950 . S
H1254 C1230 0.950 . S
H1255 C1231 0.949 . S
H1256 C1233 0.950 . S
H1257 C1235 0.950 1_556 S
C1258 C1259 1.349 . S
C1258 C1260 1.327 . S
C1258 H1283 0.950 . S
C1259 C1258 1.349 . S
C1259 C1275 1.349 . S
C1260 C1258 1.327 . S
C1260 C1279 1.429 . S
C1260 H1284 0.950 . S
C1261 C1278 1.574 . S
C1261 C1280 1.368 . S
C1261 H1285 0.949 . S
H1262 C1266 0.949 . S
C1263 C1264 1.349 . S
C1263 C1265 1.327 . S
C1263 H1286 0.950 . S
C1264 C1263 1.349 . S
C1264 C1276 1.349 . S
C1265 C1263 1.327 . S
C1265 C1281 1.429 . S
C1265 H1287 0.950 . S
C1266 H1262 0.949 . S
C1266 C1274 1.574 . S
C1266 C1282 1.368 . S
H1267 C1275 0.950 . S
H1268 C1273 0.950 . S
H1269 C1274 0.949 . S
H1270 C1276 0.950 . S
H1271 C1277 0.950 . S
H1272 C1278 0.949 . S
C1273 H1268 0.950 . S
C1273 C1275 1.327 . S
C1273 C1279 1.429 . S
C1274 C1266 1.574 . S
C1274 H1269 0.949 . S
C1274 C1280 1.368 . S
C1275 C1259 1.349 . S
C1275 H1267 0.950 . S
C1275 C1273 1.327 . S
C1276 C1264 1.349 . S
C1276 H1270 0.950 . S
C1276 C1277 1.327 . S
C1277 H1271 0.950 . S
C1277 C1276 1.327 . S
C1277 C1281 1.429 . S
C1278 C1261 1.574 . S
C1278 H1272 0.949 . S
C1278 C1282 1.368 . S
C1279 C1260 1.429 . S
C1279 C1273 1.429 . S
C1279 C1280 1.523 . S
C1280 C1261 1.368 . S
C1280 C1274 1.368 . S
C1280 C1279 1.523 . S
C1281 C1265 1.429 . S
C1281 C1277 1.429 . S
C1281 C1282 1.523 . S
C1282 C1266 1.368 . S
C1282 C1278 1.368 . S
C1282 C1281 1.523 . S
H1283 C1258 0.950 . S
H1284 C1260 0.950 . S
H1285 C1261 0.949 . S
H1286 C1263 0.950 . S
H1287 C1265 0.950 . S
C1288 C1289 1.349 . S
C1288 C1290 1.327 . S
C1288 H1313 0.950 . S
C1289 C1288 1.349 . S
C1289 C1305 1.349 . S
C1290 C1288 1.327 . S
C1290 C1309 1.429 . S
C1290 H1314 0.950 . S
C1291 C1308 1.574 . S
C1291 C1310 1.368 . S
C1291 H1315 0.949 . S
H1292 C1296 0.949 . S
C1293 C1294 1.349 . S
C1293 C1295 1.327 . S
C1293 H1316 0.950 . S
C1294 C1293 1.349 . S
C1294 C1306 1.349 . S
C1295 C1293 1.327 . S
C1295 C1311 1.429 . S
C1295 H1317 0.950 . S
C1296 H1292 0.949 . S
C1296 C1304 1.574 . S
C1296 C1312 1.368 . S
H1297 C1305 0.950 . S
H1298 C1303 0.950 . S
H1299 C1304 0.949 . S
H1300 C1306 0.950 . S
H1301 C1307 0.950 . S
H1302 C1308 0.949 . S
C1303 H1298 0.950 . S
C1303 C1305 1.327 . S
C1303 C1309 1.429 . S
C1304 C1296 1.574 . S
C1304 H1299 0.949 . S
C1304 C1310 1.368 . S
C1305 C1289 1.349 . S
C1305 H1297 0.950 . S
C1305 C1303 1.327 . S
C1306 C1294 1.349 . S
C1306 H1300 0.950 . S
C1306 C1307 1.327 . S
C1307 H1301 0.950 . S
C1307 C1306 1.327 . S
C1307 C1311 1.429 . S
C1308 C1291 1.574 . S
C1308 H1302 0.949 . S
C1308 C1312 1.368 . S
C1309 C1290 1.429 . S
C1309 C1303 1.429 . S
C1309 C1310 1.523 . S
C1310 C1291 1.368 . S
C1310 C1304 1.368 . S
C1310 C1309 1.523 . S
C1311 C1295 1.429 . S
C1311 C1307 1.429 . S
C1311 C1312 1.523 . S
C1312 C1296 1.368 . S
C1312 C1308 1.368 . S
C1312 C1311 1.523 . S
H1313 C1288 0.950 . S
H1314 C1290 0.950 . S
H1315 C1291 0.949 . S
H1316 C1293 0.950 . S
H1317 C1295 0.950 . S
C1318 C1319 1.349 1_556 S
C1318 C1320 1.327 1_556 S
C1318 H1343 0.950 . S
C1319 C1318 1.349 1_554 S
C1319 C1335 1.349 . S
C1320 C1318 1.327 1_554 S
C1320 C1339 1.429 . S
C1320 H1344 0.950 1_554 S
C1321 C1338 1.574 . S
C1321 C1340 1.368 . S
C1321 H1345 0.949 . S
H1322 C1326 0.949 . S
C1323 C1324 1.349 . S
C1323 C1325 1.327 . S
C1323 H1346 0.950 . S
C1324 C1323 1.349 . S
C1324 C1336 1.349 . S
C1325 C1323 1.327 . S
C1325 C1341 1.429 . S
C1325 H1347 0.950 . S
C1326 H1322 0.949 . S
C1326 C1334 1.574 . S
C1326 C1342 1.368 . S
H1327 C1335 0.950 . S
H1328 C1333 0.950 . S
H1329 C1334 0.949 . S
H1330 C1336 0.950 . S
H1331 C1337 0.950 . S
H1332 C1338 0.949 . S
C1333 H1328 0.950 . S
C1333 C1335 1.327 . S
C1333 C1339 1.429 . S
C1334 C1326 1.574 . S
C1334 H1329 0.949 . S
C1334 C1340 1.368 . S
C1335 C1319 1.349 . S
C1335 H1327 0.950 . S
C1335 C1333 1.327 . S
C1336 C1324 1.349 . S
C1336 H1330 0.950 . S
C1336 C1337 1.327 . S
C1337 H1331 0.950 . S
C1337 C1336 1.327 . S
C1337 C1341 1.429 . S
C1338 C1321 1.574 . S
C1338 H1332 0.949 . S
C1338 C1342 1.368 . S
C1339 C1320 1.429 . S
C1339 C1333 1.429 . S
C1339 C1340 1.523 . S
C1340 C1321 1.368 . S
C1340 C1334 1.368 . S
C1340 C1339 1.523 . S
C1341 C1325 1.429 . S
C1341 C1337 1.429 . S
C1341 C1342 1.523 . S
C1342 C1326 1.368 . S
C1342 C1338 1.368 . S
C1342 C1341 1.523 . S
H1343 C1318 0.950 . S
H1344 C1320 0.950 1_556 S
H1345 C1321 0.949 . S
H1346 C1323 0.950 . S
H1347 C1325 0.950 . S
C1348 C1349 1.349 . S
C1348 C1350 1.327 . S
C1348 H1373 0.950 . S
C1349 C1348 1.349 . S
C1349 C1365 1.349 . S
C1350 C1348 1.327 . S
C1350 C1369 1.429 . S
C1350 H1374 0.950 . S
C1351 C1368 1.574 . S
C1351 C1370 1.368 . S
C1351 H1375 0.949 . S
H1352 C1356 0.949 . S
C1353 C1354 1.349 1_554 S
C1353 C1355 1.327 1_554 S
C1353 H1376 0.950 . S
C1354 C1353 1.349 1_556 S
C1354 C1366 1.349 . S
C1355 C1353 1.327 1_556 S
C1355 C1371 1.429 . S
C1355 H1377 0.950 1_556 S
C1356 H1352 0.949 . S
C1356 C1364 1.574 . S
C1356 C1372 1.368 . S
H1357 C1365 0.950 . S
H1358 C1363 0.950 . S
H1359 C1364 0.949 . S
H1360 C1366 0.950 . S
H1361 C1367 0.950 . S
H1362 C1368 0.949 . S
C1363 H1358 0.950 . S
C1363 C1365 1.327 . S
C1363 C1369 1.429 . S
C1364 C1356 1.574 . S
C1364 H1359 0.949 . S
C1364 C1370 1.368 . S
C1365 C1349 1.349 . S
C1365 H1357 0.950 . S
C1365 C1363 1.327 . S
C1366 C1354 1.349 . S
C1366 H1360 0.950 . S
C1366 C1367 1.327 . S
C1367 H1361 0.950 . S
C1367 C1366 1.327 . S
C1367 C1371 1.429 . S
C1368 C1351 1.574 . S
C1368 H1362 0.949 . S
C1368 C1372 1.368 . S
C1369 C1350 1.429 . S
C1369 C1363 1.429 . S
C1369 C1370 1.523 . S
C1370 C1351 1.368 . S
C1370 C1364 1.368 . S
C1370 C1369 1.523 . S
C1371 C1355 1.429 . S
C1371 C1367 1.429 . S
C1371 C1372 1.523 . S
C1372 C1356 1.368 . S
C1372 C1368 1.368 . S
C1372 C1371 1.523 . S
H1373 C1348 0.950 . S
H1374 C1350 0.950 . S
H1375 C1351 0.949 . S
H1376 C1353 0.950 . S
H1377 C1355 0.950 1_554 S
C1378 C1379 1.349 . S
C1378 C1380 1.327 . S
C1378 H1403 0.950 . S
C1379 C1378 1.349 . S
C1379 C1395 1.349 . S
C1380 C1378 1.327 . S
C1380 C1399 1.429 . S
C1380 H1404 0.950 . S
C1381 C1398 1.574 . S
C1381 C1400 1.368 . S
C1381 H1405 0.949 . S
H1382 C1386 0.949 . S
C1383 C1384 1.349 . S
C1383 C1385 1.327 . S
C1383 H1406 0.950 . S
C1384 C1383 1.349 . S
C1384 C1396 1.349 . S
C1385 C1383 1.327 . S
C1385 C1401 1.429 . S
C1385 H1407 0.950 . S
C1386 H1382 0.949 . S
C1386 C1394 1.574 . S
C1386 C1402 1.368 . S
H1387 C1395 0.950 . S
H1388 C1393 0.950 . S
H1389 C1394 0.949 . S
H1390 C1396 0.950 . S
H1391 C1397 0.950 . S
H1392 C1398 0.949 . S
C1393 H1388 0.950 . S
C1393 C1395 1.327 . S
C1393 C1399 1.429 . S
C1394 C1386 1.574 . S
C1394 H1389 0.949 . S
C1394 C1400 1.368 . S
C1395 C1379 1.349 . S
C1395 H1387 0.950 . S
C1395 C1393 1.327 . S
C1396 C1384 1.349 . S
C1396 H1390 0.950 . S
C1396 C1397 1.327 . S
C1397 H1391 0.950 . S
C1397 C1396 1.327 . S
C1397 C1401 1.429 . S
C1398 C1381 1.574 . S
C1398 H1392 0.949 . S
C1398 C1402 1.368 . S
C1399 C1380 1.429 . S
C1399 C1393 1.429 . S
C1399 C1400 1.523 . S
C1400 C1381 1.368 . S
C1400 C1394 1.368 . S
C1400 C1399 1.523 . S
C1401 C1385 1.429 . S
C1401 C1397 1.429 . S
C1401 C1402 1.523 . S
C1402 C1386 1.368 . S
C1402 C1398 1.368 . S
C1402 C1401 1.523 . S
H1403 C1378 0.950 . S
H1404 C1380 0.950 . S
H1405 C1381 0.949 . S
H1406 C1383 0.950 . S
H1407 C1385 0.950 . S
C1408 C1409 1.349 . S
C1408 C1410 1.327 . S
C1408 H1433 0.950 . S
C1409 C1408 1.349 . S
C1409 C1425 1.349 . S
C1410 C1408 1.327 . S
C1410 C1429 1.429 . S
C1410 H1434 0.950 . S
C1411 C1428 1.574 1_554 S
C1411 C1430 1.368 . S
C1411 H1435 0.949 . S
H1412 C1416 0.949 . S
C1413 C1414 1.349 . S
C1413 C1415 1.327 . S
C1413 H1436 0.950 . S
C1414 C1413 1.349 . S
C1414 C1426 1.349 . S
C1415 C1413 1.327 . S
C1415 C1431 1.429 . S
C1415 H1437 0.950 . S
C1416 H1412 0.949 . S
C1416 C1424 1.574 . S
C1416 C1432 1.368 . S
H1417 C1425 0.950 . S
H1418 C1423 0.950 . S
H1419 C1424 0.949 . S
H1420 C1426 0.950 . S
H1421 C1427 0.950 . S
H1422 C1428 0.949 . S
C1423 H1418 0.950 . S
C1423 C1425 1.327 . S
C1423 C1429 1.429 . S
C1424 C1416 1.574 . S
C1424 H1419 0.949 . S
C1424 C1430 1.368 1_556 S
C1425 C1409 1.349 . S
C1425 H1417 0.950 . S
C1425 C1423 1.327 . S
C1426 C1414 1.349 . S
C1426 H1420 0.950 . S
C1426 C1427 1.327 . S
C1427 H1421 0.950 . S
C1427 C1426 1.327 . S
C1427 C1431 1.429 . S
C1428 C1411 1.574 1_556 S
C1428 H1422 0.949 . S
C1428 C1432 1.368 . S
C1429 C1410 1.429 . S
C1429 C1423 1.429 . S
C1429 C1430 1.523 . S
C1430 C1411 1.368 . S
C1430 C1424 1.368 1_554 S
C1430 C1429 1.523 . S
C1431 C1415 1.429 . S
C1431 C1427 1.429 . S
C1431 C1432 1.523 . S
C1432 C1416 1.368 . S
C1432 C1428 1.368 . S
C1432 C1431 1.523 . S
H1433 C1408 0.950 . S
H1434 C1410 0.950 . S
H1435 C1411 0.949 . S
H1436 C1413 0.950 . S
H1437 C1415 0.950 . S
C1438 C1439 1.349 . S
C1438 C1440 1.327 . S
C1438 H1463 0.950 . S
C1439 C1438 1.349 . S
C1439 C1455 1.349 . S
C1440 C1438 1.327 . S
C1440 C1459 1.429 . S
C1440 H1464 0.950 . S
C1441 C1458 1.574 1_655 S
C1441 C1460 1.368 . S
C1441 H1465 0.949 . S
H1442 C1446 0.959 . S
C1443 C1444 1.349 . S
C1443 C1445 1.327 . S
C1443 H1466 0.950 . S
C1444 C1443 1.349 . S
C1444 C1456 1.349 . S
C1445 C1443 1.327 . S
C1445 C1461 1.429 . S
C1445 H1467 0.950 . S
C1446 H1442 0.959 . S
C1446 C1454 1.522 1_455 S
C1446 C1462 1.412 . S
H1447 C1455 0.950 . S
H1448 C1453 0.950 . S
H1449 C1454 0.949 . S
H1450 C1456 0.950 . S
H1451 C1457 0.950 . S
H1452 C1458 0.949 . S
C1453 H1448 0.950 . S
C1453 C1455 1.327 . S
C1453 C1459 1.429 . S
C1454 C1446 1.522 1_655 S
C1454 H1449 0.949 . S
C1454 C1460 1.368 . S
C1455 C1439 1.349 . S
C1455 H1447 0.950 . S
C1455 C1453 1.327 . S
C1456 C1444 1.349 . S
C1456 H1450 0.950 . S
C1456 C1457 1.327 . S
C1457 H1451 0.950 . S
C1457 C1456 1.327 . S
C1457 C1461 1.429 . S
C1458 C1441 1.574 1_455 S
C1458 H1452 0.949 . S
C1458 C1462 1.368 . S
C1459 C1440 1.429 . S
C1459 C1453 1.429 . S
C1459 C1460 1.523 . S
C1460 C1441 1.368 . S
C1460 C1454 1.368 . S
C1460 C1459 1.523 . S
C1461 C1445 1.429 . S
C1461 C1457 1.429 . S
C1461 C1462 1.523 . S
C1462 C1446 1.412 . S
C1462 C1458 1.368 . S
C1462 C1461 1.523 . S
H1463 C1438 0.950 . S
H1464 C1440 0.950 . S
H1465 C1441 0.949 . S
H1466 C1443 0.950 . S
H1467 C1445 0.950 . S
C1468 C1469 1.349 . S
C1468 C1470 1.327 . S
C1468 H1493 0.950 . S
C1469 C1468 1.349 . S
C1469 C1485 1.349 . S
C1470 C1468 1.327 . S
C1470 C1489 1.429 . S
C1470 H1494 0.950 . S
C1471 C1488 1.574 . S
C1471 C1490 1.368 . S
C1471 H1495 0.949 . S
H1472 C1476 0.949 . S
C1473 C1474 1.349 . S
C1473 C1475 1.327 . S
C1473 H1496 0.950 . S
C1474 C1473 1.349 . S
C1474 C1486 1.349 . S
C1475 C1473 1.327 . S
C1475 C1491 1.429 . S
C1475 H1497 0.950 . S
C1476 H1472 0.949 . S
C1476 C1484 1.574 . S
C1476 C1492 1.368 . S
H1477 C1485 0.950 . S
H1478 C1483 0.950 . S
H1479 C1484 0.949 . S
H1480 C1486 0.950 . S
H1481 C1487 0.950 . S
H1482 C1488 0.949 . S
C1483 H1478 0.950 . S
C1483 C1485 1.327 . S
C1483 C1489 1.429 . S
C1484 C1476 1.574 . S
C1484 H1479 0.949 . S
C1484 C1490 1.368 . S
C1485 C1469 1.349 . S
C1485 H1477 0.950 . S
C1485 C1483 1.327 . S
C1486 C1474 1.349 . S
C1486 H1480 0.950 . S
C1486 C1487 1.327 . S
C1487 H1481 0.950 . S
C1487 C1486 1.327 . S
C1487 C1491 1.429 . S
C1488 C1471 1.574 . S
C1488 H1482 0.949 . S
C1488 C1492 1.368 . S
C1489 C1470 1.429 . S
C1489 C1483 1.429 . S
C1489 C1490 1.523 . S
C1490 C1471 1.368 . S
C1490 C1484 1.368 . S
C1490 C1489 1.523 . S
C1491 C1475 1.429 . S
C1491 C1487 1.429 . S
C1491 C1492 1.523 . S
C1492 C1476 1.368 . S
C1492 C1488 1.368 . S
C1492 C1491 1.523 . S
H1493 C1468 0.950 . S
H1494 C1470 0.950 . S
H1495 C1471 0.949 . S
H1496 C1473 0.950 . S
H1497 C1475 0.950 . S
C1498 C1499 1.349 . S
C1498 C1500 1.327 . S
C1498 H1523 0.950 . S
C1499 C1498 1.349 . S
C1499 C1515 1.349 . S
C1500 C1498 1.327 . S
C1500 C1519 1.429 . S
C1500 H1524 0.950 . S
C1501 C1518 1.574 . S
C1501 C1520 1.368 . S
C1501 H1525 0.949 . S
H1502 C1506 0.949 . S
C1503 C1504 1.349 . S
C1503 C1505 1.327 . S
C1503 H1526 0.950 . S
C1504 C1503 1.349 . S
C1504 C1516 1.349 . S
C1505 C1503 1.327 . S
C1505 C1521 1.429 . S
C1505 H1527 0.950 . S
C1506 H1502 0.949 . S
C1506 C1514 1.574 . S
C1506 C1522 1.368 . S
H1507 C1515 0.950 . S
H1508 C1513 0.950 . S
H1509 C1514 0.949 . S
H1510 C1516 0.950 . S
H1511 C1517 0.950 . S
H1512 C1518 0.949 . S
C1513 H1508 0.950 . S
C1513 C1515 1.327 . S
C1513 C1519 1.429 . S
C1514 C1506 1.574 . S
C1514 H1509 0.949 . S
C1514 C1520 1.368 . S
C1515 C1499 1.349 . S
C1515 H1507 0.950 . S
C1515 C1513 1.327 . S
C1516 C1504 1.349 . S
C1516 H1510 0.950 . S
C1516 C1517 1.327 . S
C1517 H1511 0.950 . S
C1517 C1516 1.327 . S
C1517 C1521 1.429 . S
C1518 C1501 1.574 . S
C1518 H1512 0.949 . S
C1518 C1522 1.368 . S
C1519 C1500 1.429 . S
C1519 C1513 1.429 . S
C1519 C1520 1.523 . S
C1520 C1501 1.368 . S
C1520 C1514 1.368 . S
C1520 C1519 1.523 . S
C1521 C1505 1.429 . S
C1521 C1517 1.429 . S
C1521 C1522 1.523 . S
C1522 C1506 1.368 . S
C1522 C1518 1.368 . S
C1522 C1521 1.523 . S
H1523 C1498 0.950 . S
H1524 C1500 0.950 . S
H1525 C1501 0.949 . S
H1526 C1503 0.950 . S
H1527 C1505 0.950 . S
C1528 C1529 1.349 . S
C1528 C1530 1.327 . S
C1528 H1553 0.950 . S
C1529 C1528 1.349 . S
C1529 C1545 1.349 . S
C1530 C1528 1.327 . S
C1530 C1549 1.429 . S
C1530 H1554 0.950 . S
C1531 C1548 1.574 . S
C1531 C1550 1.368 . S
C1531 H1555 0.949 . S
H1532 C1536 0.949 . S
C1533 C1534 1.349 . S
C1533 C1535 1.327 . S
C1533 H1556 0.950 . S
C1534 C1533 1.349 . S
C1534 C1546 1.349 . S
C1535 C1533 1.327 . S
C1535 C1551 1.429 . S
C1535 H1557 0.950 . S
C1536 H1532 0.949 . S
C1536 C1544 1.574 . S
C1536 C1552 1.368 . S
H1537 C1545 0.950 . S
H1538 C1543 0.950 . S
H1539 C1544 0.949 . S
H1540 C1546 0.950 . S
H1541 C1547 0.950 . S
H1542 C1548 0.949 . S
C1543 H1538 0.950 . S
C1543 C1545 1.327 . S
C1543 C1549 1.429 . S
C1544 C1536 1.574 . S
C1544 H1539 0.949 . S
C1544 C1550 1.368 . S
C1545 C1529 1.349 . S
C1545 H1537 0.950 . S
C1545 C1543 1.327 . S
C1546 C1534 1.349 . S
C1546 H1540 0.950 . S
C1546 C1547 1.327 . S
C1547 H1541 0.950 . S
C1547 C1546 1.327 . S
C1547 C1551 1.429 . S
C1548 C1531 1.574 . S
C1548 H1542 0.949 . S
C1548 C1552 1.368 . S
C1549 C1530 1.429 . S
C1549 C1543 1.429 . S
C1549 C1550 1.523 . S
C1550 C1531 1.368 . S
C1550 C1544 1.368 . S
C1550 C1549 1.523 . S
C1551 C1535 1.429 . S
C1551 C1547 1.429 . S
C1551 C1552 1.523 . S
C1552 C1536 1.368 . S
C1552 C1548 1.368 . S
C1552 C1551 1.523 . S
H1553 C1528 0.950 . S
H1554 C1530 0.950 . S
H1555 C1531 0.949 . S
H1556 C1533 0.950 . S
H1557 C1535 0.950 . S
C1558 C1559 1.349 . S
C1558 C1560 1.327 . S
C1558 H1583 0.950 . S
C1559 C1558 1.349 . S
C1559 C1575 1.349 . S
C1560 C1558 1.327 . S
C1560 C1579 1.429 . S
C1560 H1584 0.950 . S
C1561 C1578 1.574 . S
C1561 C1580 1.368 . S
C1561 H1585 0.949 . S
H1562 C1566 0.949 . S
C1563 C1564 1.349 . S
C1563 C1565 1.327 . S
C1563 H1586 0.950 . S
C1564 C1563 1.349 . S
C1564 C1576 1.349 . S
C1565 C1563 1.327 . S
C1565 C1581 1.429 . S
C1565 H1587 0.950 . S
C1566 H1562 0.949 . S
C1566 C1574 1.574 . S
C1566 C1582 1.368 . S
H1567 C1575 0.950 . S
H1568 C1573 0.950 . S
H1569 C1574 0.949 . S
H1570 C1576 0.950 . S
H1571 C1577 0.950 . S
H1572 C1578 0.949 . S
C1573 H1568 0.950 . S
C1573 C1575 1.327 . S
C1573 C1579 1.429 . S
C1574 C1566 1.574 . S
C1574 H1569 0.949 . S
C1574 C1580 1.368 . S
C1575 C1559 1.349 . S
C1575 H1567 0.950 . S
C1575 C1573 1.327 . S
C1576 C1564 1.349 . S
C1576 H1570 0.950 . S
C1576 C1577 1.327 . S
C1577 H1571 0.950 . S
C1577 C1576 1.327 . S
C1577 C1581 1.429 . S
C1578 C1561 1.574 . S
C1578 H1572 0.949 . S
C1578 C1582 1.368 . S
C1579 C1560 1.429 . S
C1579 C1573 1.429 . S
C1579 C1580 1.523 . S
C1580 C1561 1.368 . S
C1580 C1574 1.368 . S
C1580 C1579 1.523 . S
C1581 C1565 1.429 . S
C1581 C1577 1.429 . S
C1581 C1582 1.523 . S
C1582 C1566 1.368 . S
C1582 C1578 1.368 . S
C1582 C1581 1.523 . S
H1583 C1558 0.950 . S
H1584 C1560 0.950 . S
H1585 C1561 0.949 . S
H1586 C1563 0.950 . S
H1587 C1565 0.950 . S
C1588 C1589 1.349 . S
C1588 C1590 1.327 . S
C1588 H1613 0.950 . S
C1589 C1588 1.349 . S
C1589 C1605 1.349 . S
C1590 C1588 1.327 . S
C1590 C1609 1.429 . S
C1590 H1614 0.950 . S
C1591 C1608 1.574 . S
C1591 C1610 1.368 1_554 S
C1591 H1615 0.949 . S
H1592 C1596 0.949 . S
C1593 C1594 1.349 . S
C1593 C1595 1.327 . S
C1593 H1616 0.950 . S
C1594 C1593 1.349 . S
C1594 C1606 1.349 . S
C1595 C1593 1.327 . S
C1595 C1611 1.429 . S
C1595 H1617 0.950 . S
C1596 H1592 0.949 . S
C1596 C1604 1.574 1_554 S
C1596 C1612 1.368 . S
H1597 C1605 0.950 . S
H1598 C1603 0.950 . S
H1599 C1604 0.949 . S
H1600 C1606 0.950 . S
H1601 C1607 0.950 . S
H1602 C1608 0.949 . S
C1603 H1598 0.950 . S
C1603 C1605 1.327 . S
C1603 C1609 1.429 . S
C1604 C1596 1.574 1_556 S
C1604 H1599 0.949 . S
C1604 C1610 1.368 . S
C1605 C1589 1.349 . S
C1605 H1597 0.950 . S
C1605 C1603 1.327 . S
C1606 C1594 1.349 . S
C1606 H1600 0.950 . S
C1606 C1607 1.327 . S
C1607 H1601 0.950 . S
C1607 C1606 1.327 . S
C1607 C1611 1.429 . S
C1608 C1591 1.574 . S
C1608 H1602 0.949 . S
C1608 C1612 1.368 . S
C1609 C1590 1.429 . S
C1609 C1603 1.429 . S
C1609 C1610 1.523 . S
C1610 C1591 1.368 1_556 S
C1610 C1604 1.368 . S
C1610 C1609 1.523 . S
C1611 C1595 1.429 . S
C1611 C1607 1.429 . S
C1611 C1612 1.523 . S
C1612 C1596 1.368 . S
C1612 C1608 1.368 . S
C1612 C1611 1.523 . S
H1613 C1588 0.950 . S
H1614 C1590 0.950 . S
H1615 C1591 0.949 . S
H1616 C1593 0.950 . S
H1617 C1595 0.950 . S
C1618 C1619 1.349 . S
C1618 C1620 1.327 . S
C1618 H1643 0.950 . S
C1619 C1618 1.349 . S
C1619 C1635 1.349 . S
C1620 C1618 1.327 . S
C1620 C1639 1.429 . S
C1620 H1644 0.950 . S
C1621 C1638 1.574 1_455 S
C1621 C1640 1.368 . S
C1621 H1645 0.949 . S
H1622 C1626 0.949 . S
C1623 C1624 1.349 . S
C1623 C1625 1.327 . S
C1623 H1646 0.950 . S
C1624 C1623 1.349 . S
C1624 C1636 1.349 . S
C1625 C1623 1.327 . S
C1625 C1641 1.429 . S
C1625 H1647 0.950 . S
C1626 H1622 0.949 . S
C1626 C1634 1.513 1_655 S
C1626 C1642 1.368 . S
H1627 C1635 0.950 . S
H1628 C1633 0.950 . S
H1629 C1634 0.962 . S
H1630 C1636 0.950 . S
H1631 C1637 0.950 . S
H1632 C1638 0.949 . S
C1633 H1628 0.950 . S
C1633 C1635 1.327 . S
C1633 C1639 1.429 . S
C1634 C1626 1.513 1_455 S
C1634 H1629 0.962 . S
C1634 C1640 1.419 . S
C1635 C1619 1.349 . S
C1635 H1627 0.950 . S
C1635 C1633 1.327 . S
C1636 C1624 1.349 . S
C1636 H1630 0.950 . S
C1636 C1637 1.327 . S
C1637 H1631 0.950 . S
C1637 C1636 1.327 . S
C1637 C1641 1.429 . S
C1638 C1621 1.574 1_655 S
C1638 H1632 0.949 . S
C1638 C1642 1.368 . S
C1639 C1620 1.429 . S
C1639 C1633 1.429 . S
C1639 C1640 1.523 . S
C1640 C1621 1.368 . S
C1640 C1634 1.419 . S
C1640 C1639 1.523 . S
C1641 C1625 1.429 . S
C1641 C1637 1.429 . S
C1641 C1642 1.523 . S
C1642 C1626 1.368 . S
C1642 C1638 1.368 . S
C1642 C1641 1.523 . S
H1643 C1618 0.950 . S
H1644 C1620 0.950 . S
H1645 C1621 0.949 . S
H1646 C1623 0.950 . S
H1647 C1625 0.950 . S
C1648 C1649 1.349 . S
C1648 C1650 1.327 . S
C1648 H1673 0.950 . S
C1649 C1648 1.349 . S
C1649 C1665 1.349 . S
C1650 C1648 1.327 . S
C1650 C1669 1.429 . S
C1650 H1674 0.937 1_556 S
C1651 C1668 1.574 1_556 S
C1651 C1670 1.368 . S
C1651 H1675 0.949 . S
H1652 C1656 0.949 . S
C1653 C1654 1.349 . S
C1653 C1655 1.327 . S
C1653 H1676 0.950 . S
C1654 C1653 1.349 . S
C1654 C1666 1.349 . S
C1655 C1653 1.327 . S
C1655 C1671 1.429 . S
C1655 H1677 0.950 . S
C1656 H1652 0.949 . S
C1656 C1664 1.574 . S
C1656 C1672 1.368 . S
H1657 C1665 0.950 . S
H1658 C1663 0.950 . S
H1659 C1664 0.949 . S
H1660 C1666 0.950 . S
H1661 C1667 0.950 . S
H1662 C1668 0.949 1_556 S
C1663 H1658 0.950 . S
C1663 C1665 1.327 . S
C1663 C1669 1.429 . S
C1664 C1656 1.574 . S
C1664 H1659 0.949 . S
C1664 C1670 1.368 1_554 S
C1665 C1649 1.349 . S
C1665 H1657 0.950 . S
C1665 C1663 1.327 . S
C1666 C1654 1.349 . S
C1666 H1660 0.950 . S
C1666 C1667 1.327 . S
C1667 H1661 0.950 . S
C1667 C1666 1.327 . S
C1667 C1671 1.429 . S
C1668 C1651 1.574 1_554 S
C1668 H1662 0.949 1_554 S
C1668 C1672 1.368 . S
C1669 C1650 1.429 . S
C1669 C1663 1.429 . S
C1669 C1670 1.523 . S
C1670 C1651 1.368 . S
C1670 C1664 1.368 1_556 S
C1670 C1669 1.523 . S
C1671 C1655 1.429 . S
C1671 C1667 1.429 . S
C1671 C1672 1.523 . S
C1672 C1656 1.368 . S
C1672 C1668 1.368 . S
C1672 C1671 1.523 . S
H1673 C1648 0.950 . S
H1674 C1650 0.937 1_554 S
H1675 C1651 0.949 . S
H1676 C1653 0.950 . S
H1677 C1655 0.950 . S
C1678 C1679 1.349 . S
C1678 C1680 1.327 . S
C1678 H1703 0.950 . S
C1679 C1678 1.349 . S
C1679 C1695 1.349 . S
C1680 C1678 1.327 . S
C1680 C1699 1.429 . S
C1680 H1704 0.950 . S
C1681 C1698 1.574 1_455 S
C1681 C1700 1.368 . S
C1681 H1705 0.949 . S
H1682 C1686 0.949 . S
C1683 C1684 1.349 . S
C1683 C1685 1.327 . S
C1683 H1706 0.950 . S
C1684 C1683 1.349 . S
C1684 C1696 1.349 . S
C1685 C1683 1.327 . S
C1685 C1701 1.429 . S
C1685 H1707 0.950 . S
C1686 H1682 0.949 . S
C1686 C1694 1.574 1_655 S
C1686 C1702 1.368 . S
H1687 C1695 0.950 . S
H1688 C1693 0.950 . S
H1689 C1694 0.949 . S
H1690 C1696 0.950 . S
H1691 C1697 0.950 . S
H1692 C1698 0.949 . S
C1693 H1688 0.950 . S
C1693 C1695 1.327 . S
C1693 C1699 1.429 . S
C1694 C1686 1.574 1_455 S
C1694 H1689 0.949 . S
C1694 C1700 1.368 . S
C1695 C1679 1.349 . S
C1695 H1687 0.950 . S
C1695 C1693 1.327 . S
C1696 C1684 1.349 . S
C1696 H1690 0.950 . S
C1696 C1697 1.327 . S
C1697 H1691 0.950 . S
C1697 C1696 1.327 . S
C1697 C1701 1.429 . S
C1698 C1681 1.574 1_655 S
C1698 H1692 0.949 . S
C1698 C1702 1.368 . S
C1699 C1680 1.429 . S
C1699 C1693 1.429 . S
C1699 C1700 1.523 . S
C1700 C1681 1.368 . S
C1700 C1694 1.368 . S
C1700 C1699 1.523 . S
C1701 C1685 1.429 . S
C1701 C1697 1.429 . S
C1701 C1702 1.523 . S
C1702 C1686 1.368 . S
C1702 C1698 1.368 . S
C1702 C1701 1.523 . S
H1703 C1678 0.950 . S
H1704 C1680 0.950 . S
H1705 C1681 0.949 . S
H1706 C1683 0.950 . S
H1707 C1685 0.950 . S
C1708 C1709 1.349 . S
C1708 C1710 1.327 . S
C1708 H1733 0.950 . S
C1709 C1708 1.349 . S
C1709 C1725 1.349 . S
C1710 C1708 1.327 . S
C1710 C1729 1.429 . S
C1710 H1734 0.950 . S
C1711 C1728 1.574 . S
C1711 C1730 1.368 . S
C1711 H1735 0.949 . S
H1712 C1716 0.949 . S
C1713 C1714 1.349 . S
C1713 C1715 1.327 . S
C1713 H1736 0.950 . S
C1714 C1713 1.349 . S
C1714 C1726 1.349 . S
C1715 C1713 1.327 . S
C1715 C1731 1.429 . S
C1715 H1737 0.950 . S
C1716 H1712 0.949 . S
C1716 C1724 1.574 . S
C1716 C1732 1.368 . S
H1717 C1725 0.950 . S
H1718 C1723 0.950 . S
H1719 C1724 0.949 . S
H1720 C1726 0.950 . S
H1721 C1727 0.950 . S
H1722 C1728 0.949 . S
C1723 H1718 0.950 . S
C1723 C1725 1.327 . S
C1723 C1729 1.429 . S
C1724 C1716 1.574 . S
C1724 H1719 0.949 . S
C1724 C1730 1.368 . S
C1725 C1709 1.349 . S
C1725 H1717 0.950 . S
C1725 C1723 1.327 . S
C1726 C1714 1.349 . S
C1726 H1720 0.950 . S
C1726 C1727 1.327 . S
C1727 H1721 0.950 . S
C1727 C1726 1.327 . S
C1727 C1731 1.429 . S
C1728 C1711 1.574 . S
C1728 H1722 0.949 . S
C1728 C1732 1.368 . S
C1729 C1710 1.429 . S
C1729 C1723 1.429 . S
C1729 C1730 1.523 . S
C1730 C1711 1.368 . S
C1730 C1724 1.368 . S
C1730 C1729 1.523 . S
C1731 C1715 1.429 . S
C1731 C1727 1.429 . S
C1731 C1732 1.523 . S
C1732 C1716 1.368 . S
C1732 C1728 1.368 . S
C1732 C1731 1.523 . S
H1733 C1708 0.950 . S
H1734 C1710 0.950 . S
H1735 C1711 0.949 . S
H1736 C1713 0.950 . S
H1737 C1715 0.950 . S
C1738 C1739 1.349 . S
C1738 C1740 1.327 . S
C1738 H1763 0.950 . S
C1739 C1738 1.349 . S
C1739 C1755 1.349 . S
C1740 C1738 1.327 . S
C1740 C1759 1.429 . S
C1740 H1764 0.950 . S
C1741 C1758 1.574 . S
C1741 C1760 1.368 . S
C1741 H1765 0.949 . S
H1742 C1746 0.949 . S
C1743 C1744 1.349 . S
C1743 C1745 1.327 . S
C1743 H1766 0.950 . S
C1744 C1743 1.349 . S
C1744 C1756 1.349 . S
C1745 C1743 1.327 . S
C1745 C1761 1.429 . S
C1745 H1767 0.950 . S
C1746 H1742 0.949 . S
C1746 C1754 1.574 . S
C1746 C1762 1.368 . S
H1747 C1755 0.950 . S
H1748 C1753 0.950 . S
H1749 C1754 0.949 . S
H1750 C1756 0.950 . S
H1751 C1757 0.950 . S
H1752 C1758 0.949 . S
C1753 H1748 0.950 . S
C1753 C1755 1.327 . S
C1753 C1759 1.429 . S
C1754 C1746 1.574 . S
C1754 H1749 0.949 . S
C1754 C1760 1.368 . S
C1755 C1739 1.349 . S
C1755 H1747 0.950 . S
C1755 C1753 1.327 . S
C1756 C1744 1.349 . S
C1756 H1750 0.950 . S
C1756 C1757 1.327 . S
C1757 H1751 0.950 . S
C1757 C1756 1.327 . S
C1757 C1761 1.429 . S
C1758 C1741 1.574 . S
C1758 H1752 0.949 . S
C1758 C1762 1.368 . S
C1759 C1740 1.429 . S
C1759 C1753 1.429 . S
C1759 C1760 1.523 . S
C1760 C1741 1.368 . S
C1760 C1754 1.368 . S
C1760 C1759 1.523 . S
C1761 C1745 1.429 . S
C1761 C1757 1.429 . S
C1761 C1762 1.523 . S
C1762 C1746 1.368 . S
C1762 C1758 1.368 . S
C1762 C1761 1.523 . S
H1763 C1738 0.950 . S
H1764 C1740 0.950 . S
H1765 C1741 0.949 . S
H1766 C1743 0.950 . S
H1767 C1745 0.950 . S
C1768 C1769 1.349 . S
C1768 C1770 1.327 . S
C1768 H1793 0.950 . S
C1769 C1768 1.349 . S
C1769 C1785 1.349 . S
C1770 C1768 1.327 . S
C1770 C1789 1.429 . S
C1770 H1794 0.950 . S
C1771 C1788 1.574 . S
C1771 C1790 1.368 . S
C1771 H1795 0.949 . S
H1772 C1776 0.949 . S
C1773 C1774 1.349 . S
C1773 C1775 1.327 . S
C1773 H1796 0.950 . S
C1774 C1773 1.349 . S
C1774 C1786 1.349 . S
C1775 C1773 1.327 . S
C1775 C1791 1.429 . S
C1775 H1797 0.950 . S
C1776 H1772 0.949 . S
C1776 C1784 1.574 . S
C1776 C1792 1.368 . S
H1777 C1785 0.950 . S
H1778 C1783 0.950 . S
H1779 C1784 0.949 . S
H1780 C1786 0.950 . S
H1781 C1787 0.950 . S
H1782 C1788 0.949 . S
C1783 H1778 0.950 . S
C1783 C1785 1.327 . S
C1783 C1789 1.429 . S
C1784 C1776 1.574 . S
C1784 H1779 0.949 . S
C1784 C1790 1.368 . S
C1785 C1769 1.349 . S
C1785 H1777 0.950 . S
C1785 C1783 1.327 . S
C1786 C1774 1.349 . S
C1786 H1780 0.950 . S
C1786 C1787 1.327 . S
C1787 H1781 0.950 . S
C1787 C1786 1.327 . S
C1787 C1791 1.429 . S
C1788 C1771 1.574 . S
C1788 H1782 0.949 . S
C1788 C1792 1.368 . S
C1789 C1770 1.429 . S
C1789 C1783 1.429 . S
C1789 C1790 1.523 . S
C1790 C1771 1.368 . S
C1790 C1784 1.368 . S
C1790 C1789 1.523 . S
C1791 C1775 1.429 . S
C1791 C1787 1.429 . S
C1791 C1792 1.523 . S
C1792 C1776 1.368 . S
C1792 C1788 1.368 . S
C1792 C1791 1.523 . S
H1793 C1768 0.950 . S
H1794 C1770 0.950 . S
H1795 C1771 0.949 . S
H1796 C1773 0.950 . S
H1797 C1775 0.950 . S
C1798 C1799 1.349 . S
C1798 C1800 1.327 . S
C1798 H1823 0.950 . S
C1799 C1798 1.349 . S
C1799 C1815 1.349 . S
C1800 C1798 1.327 . S
C1800 C1819 1.429 . S
C1800 H1824 0.950 . S
C1801 C1818 1.574 . S
C1801 C1820 1.368 . S
C1801 H1825 0.949 . S
H1802 C1806 0.949 . S
C1803 C1804 1.349 . S
C1803 C1805 1.327 . S
C1803 H1826 0.950 . S
C1804 C1803 1.349 . S
C1804 C1816 1.349 . S
C1805 C1803 1.327 . S
C1805 C1821 1.429 . S
C1805 H1827 0.950 . S
C1806 H1802 0.949 . S
C1806 C1814 1.574 . S
C1806 C1822 1.368 . S
H1807 C1815 0.950 . S
H1808 C1813 0.950 . S
H1809 C1814 0.949 . S
H1810 C1816 0.950 . S
H1811 C1817 0.950 . S
H1812 C1818 0.949 . S
C1813 H1808 0.950 . S
C1813 C1815 1.327 . S
C1813 C1819 1.429 . S
C1814 C1806 1.574 . S
C1814 H1809 0.949 . S
C1814 C1820 1.368 . S
C1815 C1799 1.349 . S
C1815 H1807 0.950 . S
C1815 C1813 1.327 . S
C1816 C1804 1.349 . S
C1816 H1810 0.950 . S
C1816 C1817 1.327 . S
C1817 H1811 0.950 . S
C1817 C1816 1.327 . S
C1817 C1821 1.429 . S
C1818 C1801 1.574 . S
C1818 H1812 0.949 . S
C1818 C1822 1.368 . S
C1819 C1800 1.429 . S
C1819 C1813 1.429 . S
C1819 C1820 1.523 . S
C1820 C1801 1.368 . S
C1820 C1814 1.368 . S
C1820 C1819 1.523 . S
C1821 C1805 1.429 . S
C1821 C1817 1.429 . S
C1821 C1822 1.523 . S
C1822 C1806 1.368 . S
C1822 C1818 1.368 . S
C1822 C1821 1.523 . S
H1823 C1798 0.950 . S
H1824 C1800 0.950 . S
H1825 C1801 0.949 . S
H1826 C1803 0.950 . S
H1827 C1805 0.950 . S
C1828 C1829 1.349 . S
C1828 C1830 1.327 . S
C1828 H1853 0.950 . S
C1829 C1828 1.349 . S
C1829 C1845 1.349 . S
C1830 C1828 1.327 . S
C1830 C1849 1.429 . S
C1830 H1854 0.950 . S
C1831 C1848 1.574 . S
C1831 C1850 1.368 1_556 S
C1831 H1855 0.949 . S
H1832 C1836 0.949 1_554 S
C1833 C1834 1.349 . S
C1833 C1835 1.327 . S
C1833 H1856 0.950 . S
C1834 C1833 1.349 . S
C1834 C1846 1.349 . S
C1835 C1833 1.327 . S
C1835 C1851 1.429 . S
C1835 H1857 0.950 . S
C1836 H1832 0.949 1_556 S
C1836 C1844 1.574 1_556 S
C1836 C1852 1.368 . S
H1837 C1845 0.950 . S
H1838 C1843 0.950 1_556 S
H1839 C1844 0.949 . S
H1840 C1846 0.950 . S
H1841 C1847 0.950 . S
H1842 C1848 0.949 . S
C1843 H1838 0.950 1_554 S
C1843 C1845 1.327 . S
C1843 C1849 1.429 . S
C1844 C1836 1.574 1_554 S
C1844 H1839 0.949 . S
C1844 C1850 1.368 . S
C1845 C1829 1.349 . S
C1845 H1837 0.950 . S
C1845 C1843 1.327 . S
C1846 C1834 1.349 . S
C1846 H1840 0.950 . S
C1846 C1847 1.327 . S
C1847 H1841 0.950 . S
C1847 C1846 1.327 . S
C1847 C1851 1.429 . S
C1848 C1831 1.574 . S
C1848 H1842 0.949 . S
C1848 C1852 1.368 . S
C1849 C1830 1.429 . S
C1849 C1843 1.429 . S
C1849 C1850 1.523 . S
C1850 C1831 1.368 1_554 S
C1850 C1844 1.368 . S
C1850 C1849 1.523 . S
C1851 C1835 1.429 . S
C1851 C1847 1.429 . S
C1851 C1852 1.523 . S
C1852 C1836 1.368 . S
C1852 C1848 1.368 . S
C1852 C1851 1.523 . S
H1853 C1828 0.950 . S
H1854 C1830 0.950 . S
H1855 C1831 0.949 . S
H1856 C1833 0.950 . S
H1857 C1835 0.950 . S
C1858 C1859 1.349 . S
C1858 C1860 1.327 . S
C1858 H1883 0.950 . S
C1859 C1858 1.349 . S
C1859 C1875 1.349 . S
C1860 C1858 1.327 . S
C1860 C1879 1.429 . S
C1860 H1884 0.950 . S
C1861 C1878 1.574 1_455 S
C1861 C1880 1.368 . S
C1861 H1885 0.949 . S
H1862 C1866 0.949 . S
C1863 C1864 1.349 . S
C1863 C1865 1.327 . S
C1863 H1886 0.950 . S
C1864 C1863 1.349 . S
C1864 C1876 1.349 . S
C1865 C1863 1.327 . S
C1865 C1881 1.429 . S
C1865 H1887 0.950 . S
C1866 H1862 0.949 . S
C1866 C1874 1.574 1_655 S
C1866 C1882 1.368 . S
H1867 C1875 0.950 . S
H1868 C1873 0.950 . S
H1869 C1874 0.949 . S
H1870 C1876 0.950 . S
H1871 C1877 0.950 . S
H1872 C1878 0.949 . S
C1873 H1868 0.950 . S
C1873 C1875 1.327 . S
C1873 C1879 1.429 . S
C1874 C1866 1.574 1_455 S
C1874 H1869 0.949 . S
C1874 C1880 1.368 . S
C1875 C1859 1.349 . S
C1875 H1867 0.950 . S
C1875 C1873 1.327 . S
C1876 C1864 1.349 . S
C1876 H1870 0.950 . S
C1876 C1877 1.327 . S
C1877 H1871 0.950 . S
C1877 C1876 1.327 . S
C1877 C1881 1.429 . S
C1878 C1861 1.574 1_655 S
C1878 H1872 0.949 . S
C1878 C1882 1.368 . S
C1879 C1860 1.429 . S
C1879 C1873 1.429 . S
C1879 C1880 1.523 . S
C1880 C1861 1.368 . S
C1880 C1874 1.368 . S
C1880 C1879 1.523 . S
C1881 C1865 1.429 . S
C1881 C1877 1.429 . S
C1881 C1882 1.523 . S
C1882 C1866 1.368 . S
C1882 C1878 1.368 . S
C1882 C1881 1.523 . S
H1883 C1858 0.950 . S
H1884 C1860 0.950 . S
H1885 C1861 0.949 . S
H1886 C1863 0.950 . S
H1887 C1865 0.950 . S
C1888 C1889 1.349 . S
C1888 C1890 1.327 . S
C1888 H1913 0.950 . S
C1889 C1888 1.349 . S
C1889 C1905 1.349 . S
C1890 C1888 1.327 . S
C1890 C1909 1.429 . S
C1890 H1914 0.950 . S
C1891 C1908 1.574 . S
C1891 C1910 1.368 . S
C1891 H1915 0.949 . S
H1892 C1896 0.949 . S
C1893 C1894 1.349 . S
C1893 C1895 1.327 . S
C1893 H1916 0.950 . S
C1894 C1893 1.349 . S
C1894 C1906 1.349 . S
C1895 C1893 1.327 . S
C1895 C1911 1.429 . S
C1895 H1917 0.950 . S
C1896 H1892 0.949 . S
C1896 C1904 1.574 . S
C1896 C1912 1.368 . S
H1897 C1905 0.950 . S
H1898 C1903 0.950 . S
H1899 C1904 0.949 . S
H1900 C1906 0.950 . S
H1901 C1907 0.950 . S
H1902 C1908 0.949 . S
C1903 H1898 0.950 . S
C1903 C1905 1.327 . S
C1903 C1909 1.429 . S
C1904 C1896 1.574 . S
C1904 H1899 0.949 . S
C1904 C1910 1.368 . S
C1905 C1889 1.349 . S
C1905 H1897 0.950 . S
C1905 C1903 1.327 . S
C1906 C1894 1.349 . S
C1906 H1900 0.950 . S
C1906 C1907 1.327 . S
C1907 H1901 0.950 . S
C1907 C1906 1.327 . S
C1907 C1911 1.429 . S
C1908 C1891 1.574 . S
C1908 H1902 0.949 . S
C1908 C1912 1.368 . S
C1909 C1890 1.429 . S
C1909 C1903 1.429 . S
C1909 C1910 1.523 . S
C1910 C1891 1.368 . S
C1910 C1904 1.368 . S
C1910 C1909 1.523 . S
C1911 C1895 1.429 . S
C1911 C1907 1.429 . S
C1911 C1912 1.523 . S
C1912 C1896 1.368 . S
C1912 C1908 1.368 . S
C1912 C1911 1.523 . S
H1913 C1888 0.950 . S
H1914 C1890 0.950 . S
H1915 C1891 0.949 . S
H1916 C1893 0.950 . S
H1917 C1895 0.950 . S
C1918 C1919 1.349 . S
C1918 C1920 1.327 . S
C1918 H1943 0.950 . S
C1919 C1918 1.349 . S
C1919 C1935 1.349 . S
C1920 C1918 1.327 . S
C1920 C1939 1.429 . S
C1920 H1944 0.950 . S
C1921 C1938 1.574 . S
C1921 C1940 1.368 . S
C1921 H1945 0.949 . S
H1922 C1926 0.949 . S
C1923 C1924 1.349 . S
C1923 C1925 1.327 . S
C1923 H1946 0.950 . S
C1924 C1923 1.349 . S
C1924 C1936 1.349 . S
C1925 C1923 1.327 . S
C1925 C1941 1.429 . S
C1925 H1947 0.950 . S
C1926 H1922 0.949 . S
C1926 C1934 1.574 . S
C1926 C1942 1.368 . S
H1927 C1935 0.950 . S
H1928 C1933 0.950 . S
H1929 C1934 0.949 . S
H1930 C1936 0.950 . S
H1931 C1937 0.950 . S
H1932 C1938 0.949 . S
C1933 H1928 0.950 . S
C1933 C1935 1.327 . S
C1933 C1939 1.429 . S
C1934 C1926 1.574 . S
C1934 H1929 0.949 . S
C1934 C1940 1.368 . S
C1935 C1919 1.349 . S
C1935 H1927 0.950 . S
C1935 C1933 1.327 . S
C1936 C1924 1.349 . S
C1936 H1930 0.950 . S
C1936 C1937 1.327 . S
C1937 H1931 0.950 . S
C1937 C1936 1.327 . S
C1937 C1941 1.429 . S
C1938 C1921 1.574 . S
C1938 H1932 0.949 . S
C1938 C1942 1.368 . S
C1939 C1920 1.429 . S
C1939 C1933 1.429 . S
C1939 C1940 1.523 . S
C1940 C1921 1.368 . S
C1940 C1934 1.368 . S
C1940 C1939 1.523 . S
C1941 C1925 1.429 . S
C1941 C1937 1.429 . S
C1941 C1942 1.523 . S
C1942 C1926 1.368 . S
C1942 C1938 1.368 . S
C1942 C1941 1.523 . S
H1943 C1918 0.950 . S
H1944 C1920 0.950 . S
H1945 C1921 0.949 . S
H1946 C1923 0.950 . S
H1947 C1925 0.950 . S
C1948 C1949 1.349 . S
C1948 C1950 1.327 . S
C1948 H1973 0.950 . S
C1949 C1948 1.349 . S
C1949 C1965 1.349 . S
C1950 C1948 1.327 . S
C1950 C1969 1.429 . S
C1950 H1974 0.950 . S
C1951 C1968 1.574 . S
C1951 C1970 1.368 1_556 S
C1951 H1975 0.949 . S
H1952 C1956 0.949 1_554 S
C1953 C1954 1.349 . S
C1953 C1955 1.327 . S
C1953 H1976 0.950 . S
C1954 C1953 1.349 . S
C1954 C1966 1.349 . S
C1955 C1953 1.327 . S
C1955 C1971 1.429 . S
C1955 H1977 0.950 . S
C1956 H1952 0.949 1_556 S
C1956 C1964 1.574 1_556 S
C1956 C1972 1.368 . S
H1957 C1965 0.950 . S
H1958 C1963 0.950 1_556 S
H1959 C1964 0.949 . S
H1960 C1966 0.950 . S
H1961 C1967 0.950 . S
H1962 C1968 0.949 . S
C1963 H1958 0.950 1_554 S
C1963 C1965 1.327 . S
C1963 C1969 1.429 . S
C1964 C1956 1.574 1_554 S
C1964 H1959 0.949 . S
C1964 C1970 1.368 . S
C1965 C1949 1.349 . S
C1965 H1957 0.950 . S
C1965 C1963 1.327 . S
C1966 C1954 1.349 . S
C1966 H1960 0.950 . S
C1966 C1967 1.327 . S
C1967 H1961 0.950 . S
C1967 C1966 1.327 . S
C1967 C1971 1.429 . S
C1968 C1951 1.574 . S
C1968 H1962 0.949 . S
C1968 C1972 1.368 . S
C1969 C1950 1.429 . S
C1969 C1963 1.429 . S
C1969 C1970 1.523 . S
C1970 C1951 1.368 1_554 S
C1970 C1964 1.368 . S
C1970 C1969 1.523 . S
C1971 C1955 1.429 . S
C1971 C1967 1.429 . S
C1971 C1972 1.523 . S
C1972 C1956 1.368 . S
C1972 C1968 1.368 . S
C1972 C1971 1.523 . S
H1973 C1948 0.950 . S
H1974 C1950 0.950 . S
H1975 C1951 0.949 . S
H1976 C1953 0.950 . S
H1977 C1955 0.950 . S
C1978 C1979 1.349 . S
C1978 C1980 1.327 . S
C1978 H2003 0.950 . S
C1979 C1978 1.349 . S
C1979 C1995 1.349 . S
C1980 C1978 1.327 . S
C1980 C1999 1.429 . S
C1980 H2004 0.950 . S
C1981 C1998 1.574 1_655 S
C1981 C2000 1.368 . S
C1981 H2005 0.949 . S
H1982 C1986 0.949 . S
C1983 C1984 1.349 . S
C1983 C1985 1.327 . S
C1983 H2006 0.950 . S
C1984 C1983 1.349 . S
C1984 C1996 1.349 . S
C1985 C1983 1.327 . S
C1985 C2001 1.429 . S
C1985 H2007 0.950 . S
C1986 H1982 0.949 . S
C1986 C1994 1.574 1_455 S
C1986 C2002 1.368 . S
H1987 C1995 0.950 . S
H1988 C1993 0.950 . S
H1989 C1994 0.949 . S
H1990 C1996 0.950 . S
H1991 C1997 0.950 . S
H1992 C1998 0.949 . S
C1993 H1988 0.950 . S
C1993 C1995 1.327 . S
C1993 C1999 1.429 . S
C1994 C1986 1.574 1_655 S
C1994 H1989 0.949 . S
C1994 C2000 1.368 . S
C1995 C1979 1.349 . S
C1995 H1987 0.950 . S
C1995 C1993 1.327 . S
C1996 C1984 1.349 . S
C1996 H1990 0.950 . S
C1996 C1997 1.327 . S
C1997 H1991 0.950 . S
C1997 C1996 1.327 . S
C1997 C2001 1.429 . S
C1998 C1981 1.574 1_455 S
C1998 H1992 0.949 . S
C1998 C2002 1.368 . S
C1999 C1980 1.429 . S
C1999 C1993 1.429 . S
C1999 C2000 1.523 . S
C2000 C1981 1.368 . S
C2000 C1994 1.368 . S
C2000 C1999 1.523 . S
C2001 C1985 1.429 . S
C2001 C1997 1.429 . S
C2001 C2002 1.523 . S
C2002 C1986 1.368 . S
C2002 C1998 1.368 . S
C2002 C2001 1.523 . S
H2003 C1978 0.950 . S
H2004 C1980 0.950 . S
H2005 C1981 0.949 . S
H2006 C1983 0.950 . S
H2007 C1985 0.950 . S
C2008 C2009 1.349 . S
C2008 C2010 1.327 . S
C2008 H2033 0.950 . S
C2009 C2008 1.349 . S
C2009 C2025 1.349 . S
C2010 C2008 1.327 . S
C2010 C2029 1.429 . S
C2010 H2034 0.950 . S
C2011 C2028 1.574 1_556 S
C2011 C2030 1.368 . S
C2011 H2035 0.949 . S
H2012 C2016 0.949 . S
C2013 C2014 1.349 . S
C2013 C2015 1.327 . S
C2013 H2036 0.950 . S
C2014 C2013 1.349 . S
C2014 C2026 1.349 . S
C2015 C2013 1.327 . S
C2015 C2031 1.429 . S
C2015 H2037 0.950 . S
C2016 H2012 0.949 . S
C2016 C2024 1.574 . S
C2016 C2032 1.368 . S
H2017 C2025 0.950 . S
H2018 C2023 0.950 . S
H2019 C2024 0.949 . S
H2020 C2026 0.950 . S
H2021 C2027 0.950 . S
H2022 C2028 0.949 . S
C2023 H2018 0.950 . S
C2023 C2025 1.327 . S
C2023 C2029 1.429 . S
C2024 C2016 1.574 . S
C2024 H2019 0.949 . S
C2024 C2030 1.368 1_554 S
C2025 C2009 1.349 . S
C2025 H2017 0.950 . S
C2025 C2023 1.327 . S
C2026 C2014 1.349 . S
C2026 H2020 0.950 . S
C2026 C2027 1.327 . S
C2027 H2021 0.950 . S
C2027 C2026 1.327 . S
C2027 C2031 1.429 . S
C2028 C2011 1.574 1_554 S
C2028 H2022 0.949 . S
C2028 C2032 1.368 . S
C2029 C2010 1.429 . S
C2029 C2023 1.429 . S
C2029 C2030 1.523 . S
C2030 C2011 1.368 . S
C2030 C2024 1.368 1_556 S
C2030 C2029 1.523 . S
C2031 C2015 1.429 . S
C2031 C2027 1.429 . S
C2031 C2032 1.523 . S
C2032 C2016 1.368 . S
C2032 C2028 1.368 . S
C2032 C2031 1.523 . S
H2033 C2008 0.950 . S
H2034 C2010 0.950 . S
H2035 C2011 0.949 . S
H2036 C2013 0.950 . S
H2037 C2015 0.950 . S
C2038 C2039 1.349 . S
C2038 C2040 1.327 . S
C2038 H2063 0.950 . S
C2039 C2038 1.349 . S
C2039 C2055 1.349 . S
C2040 C2038 1.327 . S
C2040 C2059 1.429 . S
C2040 H2064 0.950 . S
C2041 C2058 1.574 1_655 S
C2041 C2060 1.368 . S
C2041 H2065 0.949 . S
H2042 C2046 0.949 . S
C2043 C2044 1.349 . S
C2043 C2045 1.327 . S
C2043 H2066 0.950 . S
C2044 C2043 1.349 . S
C2044 C2056 1.349 . S
C2045 C2043 1.327 . S
C2045 C2061 1.429 . S
C2045 H2067 0.950 . S
C2046 H2042 0.949 . S
C2046 C2054 1.574 1_455 S
C2046 C2062 1.368 . S
H2047 C2055 0.950 . S
H2048 C2053 0.950 . S
H2049 C2054 0.949 . S
H2050 C2056 0.950 . S
H2051 C2057 0.950 . S
H2052 C2058 0.949 . S
C2053 H2048 0.950 . S
C2053 C2055 1.327 . S
C2053 C2059 1.429 . S
C2054 C2046 1.574 1_655 S
C2054 H2049 0.949 . S
C2054 C2060 1.368 . S
C2055 C2039 1.349 . S
C2055 H2047 0.950 . S
C2055 C2053 1.327 . S
C2056 C2044 1.349 . S
C2056 H2050 0.950 . S
C2056 C2057 1.327 . S
C2057 H2051 0.950 . S
C2057 C2056 1.327 . S
C2057 C2061 1.429 . S
C2058 C2041 1.574 1_455 S
C2058 H2052 0.949 . S
C2058 C2062 1.368 . S
C2059 C2040 1.429 . S
C2059 C2053 1.429 . S
C2059 C2060 1.523 . S
C2060 C2041 1.368 . S
C2060 C2054 1.368 . S
C2060 C2059 1.523 . S
C2061 C2045 1.429 . S
C2061 C2057 1.429 . S
C2061 C2062 1.523 . S
C2062 C2046 1.368 . S
C2062 C2058 1.368 . S
C2062 C2061 1.523 . S
H2063 C2038 0.950 . S
H2064 C2040 0.950 . S
H2065 C2041 0.949 . S
H2066 C2043 0.950 . S
H2067 C2045 0.950 . S
C2068 C2069 1.349 . S
C2068 C2070 1.327 . S
C2068 H2093 0.950 . S
C2069 C2068 1.349 . S
C2069 C2085 1.349 . S
C2070 C2068 1.327 . S
C2070 C2089 1.429 . S
C2070 H2094 0.950 . S
C2071 C2088 1.574 . S
C2071 C2090 1.368 . S
C2071 H2095 0.949 . S
H2072 C2076 0.949 . S
C2073 C2074 1.349 . S
C2073 C2075 1.327 . S
C2073 H2096 0.950 . S
C2074 C2073 1.349 . S
C2074 C2086 1.349 . S
C2075 C2073 1.327 . S
C2075 C2091 1.429 . S
C2075 H2097 0.950 . S
C2076 H2072 0.949 . S
C2076 C2084 1.574 . S
C2076 C2092 1.368 . S
H2077 C2085 0.950 . S
H2078 C2083 0.950 . S
H2079 C2084 0.949 . S
H2080 C2086 0.950 . S
H2081 C2087 0.950 . S
H2082 C2088 0.949 . S
C2083 H2078 0.950 . S
C2083 C2085 1.327 . S
C2083 C2089 1.429 . S
C2084 C2076 1.574 . S
C2084 H2079 0.949 . S
C2084 C2090 1.368 . S
C2085 C2069 1.349 . S
C2085 H2077 0.950 . S
C2085 C2083 1.327 . S
C2086 C2074 1.349 . S
C2086 H2080 0.950 . S
C2086 C2087 1.327 . S
C2087 H2081 0.950 . S
C2087 C2086 1.327 . S
C2087 C2091 1.429 . S
C2088 C2071 1.574 . S
C2088 H2082 0.949 . S
C2088 C2092 1.368 . S
C2089 C2070 1.429 . S
C2089 C2083 1.429 . S
C2089 C2090 1.523 . S
C2090 C2071 1.368 . S
C2090 C2084 1.368 . S
C2090 C2089 1.523 . S
C2091 C2075 1.429 . S
C2091 C2087 1.429 . S
C2091 C2092 1.523 . S
C2092 C2076 1.368 . S
C2092 C2088 1.368 . S
C2092 C2091 1.523 . S
H2093 C2068 0.950 . S
H2094 C2070 0.950 . S
H2095 C2071 0.949 . S
H2096 C2073 0.950 . S
H2097 C2075 0.950 . S
C2098 C2099 1.349 . S
C2098 C2100 1.327 . S
C2098 H2123 0.950 . S
C2099 C2098 1.349 . S
C2099 C2115 1.349 . S
C2100 C2098 1.327 . S
C2100 C2119 1.429 . S
C2100 H2124 0.950 . S
C2101 C2118 1.574 . S
C2101 C2120 1.368 . S
C2101 H2125 0.949 . S
H2102 C2106 0.949 . S
C2103 C2104 1.349 . S
C2103 C2105 1.327 . S
C2103 H2126 0.950 . S
C2104 C2103 1.349 . S
C2104 C2116 1.349 . S
C2105 C2103 1.327 . S
C2105 C2121 1.429 . S
C2105 H2127 0.950 . S
C2106 H2102 0.949 . S
C2106 C2114 1.574 . S
C2106 C2122 1.368 . S
H2107 C2115 0.950 . S
H2108 C2113 0.950 . S
H2109 C2114 0.949 . S
H2110 C2116 0.950 . S
H2111 C2117 0.950 . S
H2112 C2118 0.949 . S
C2113 H2108 0.950 . S
C2113 C2115 1.327 . S
C2113 C2119 1.429 . S
C2114 C2106 1.574 . S
C2114 H2109 0.949 . S
C2114 C2120 1.368 . S
C2115 C2099 1.349 . S
C2115 H2107 0.950 . S
C2115 C2113 1.327 . S
C2116 C2104 1.349 . S
C2116 H2110 0.950 . S
C2116 C2117 1.327 . S
C2117 H2111 0.950 . S
C2117 C2116 1.327 . S
C2117 C2121 1.429 . S
C2118 C2101 1.574 . S
C2118 H2112 0.949 . S
C2118 C2122 1.368 . S
C2119 C2100 1.429 . S
C2119 C2113 1.429 . S
C2119 C2120 1.523 . S
C2120 C2101 1.368 . S
C2120 C2114 1.368 . S
C2120 C2119 1.523 . S
C2121 C2105 1.429 . S
C2121 C2117 1.429 . S
C2121 C2122 1.523 . S
C2122 C2106 1.368 . S
C2122 C2118 1.368 . S
C2122 C2121 1.523 . S
H2123 C2098 0.950 . S
H2124 C2100 0.950 . S
H2125 C2101 0.949 . S
H2126 C2103 0.950 . S
H2127 C2105 0.950 . S
C2128 C2129 1.349 . S
C2128 C2130 1.327 . S
C2128 H2153 0.950 . S
C2129 C2128 1.349 . S
C2129 C2145 1.349 . S
C2130 C2128 1.327 . S
C2130 C2149 1.429 . S
C2130 H2154 0.950 . S
C2131 C2148 1.574 . S
C2131 C2150 1.368 . S
C2131 H2155 0.949 . S
H2132 C2136 0.949 . S
C2133 C2134 1.349 . S
C2133 C2135 1.327 . S
C2133 H2156 0.950 . S
C2134 C2133 1.349 . S
C2134 C2146 1.349 . S
C2135 C2133 1.327 . S
C2135 C2151 1.429 . S
C2135 H2157 0.950 . S
C2136 H2132 0.949 . S
C2136 C2144 1.574 . S
C2136 C2152 1.368 . S
H2137 C2145 0.950 . S
H2138 C2143 0.950 . S
H2139 C2144 0.949 . S
H2140 C2146 0.950 . S
H2141 C2147 0.950 . S
H2142 C2148 0.949 . S
C2143 H2138 0.950 . S
C2143 C2145 1.327 . S
C2143 C2149 1.429 . S
C2144 C2136 1.574 . S
C2144 H2139 0.949 . S
C2144 C2150 1.368 . S
C2145 C2129 1.349 . S
C2145 H2137 0.950 . S
C2145 C2143 1.327 . S
C2146 C2134 1.349 . S
C2146 H2140 0.950 . S
C2146 C2147 1.327 . S
C2147 H2141 0.950 . S
C2147 C2146 1.327 . S
C2147 C2151 1.429 . S
C2148 C2131 1.574 . S
C2148 H2142 0.949 . S
C2148 C2152 1.368 . S
C2149 C2130 1.429 . S
C2149 C2143 1.429 . S
C2149 C2150 1.523 . S
C2150 C2131 1.368 . S
C2150 C2144 1.368 . S
C2150 C2149 1.523 . S
C2151 C2135 1.429 . S
C2151 C2147 1.429 . S
C2151 C2152 1.523 . S
C2152 C2136 1.368 . S
C2152 C2148 1.368 . S
C2152 C2151 1.523 . S
H2153 C2128 0.950 . S
H2154 C2130 0.950 . S
H2155 C2131 0.949 . S
H2156 C2133 0.950 . S
H2157 C2135 0.950 . S
C2158 C2159 1.349 . S
C2158 C2160 1.327 . S
C2158 H2183 0.950 . S
C2159 C2158 1.349 . S
C2159 C2175 1.349 . S
C2160 C2158 1.327 . S
C2160 C2179 1.429 . S
C2160 H2184 0.950 . S
C2161 C2178 1.574 . S
C2161 C2180 1.368 . S
C2161 H2185 0.949 . S
H2162 C2166 0.949 . S
C2163 C2164 1.349 . S
C2163 C2165 1.327 . S
C2163 H2186 0.950 . S
C2164 C2163 1.349 . S
C2164 C2176 1.349 . S
C2165 C2163 1.327 . S
C2165 C2181 1.429 . S
C2165 H2187 0.950 . S
C2166 H2162 0.949 . S
C2166 C2174 1.574 . S
C2166 C2182 1.368 . S
H2167 C2175 0.950 . S
H2168 C2173 0.950 . S
H2169 C2174 0.949 . S
H2170 C2176 0.950 . S
H2171 C2177 0.950 . S
H2172 C2178 0.949 . S
C2173 H2168 0.950 . S
C2173 C2175 1.327 . S
C2173 C2179 1.429 . S
C2174 C2166 1.574 . S
C2174 H2169 0.949 . S
C2174 C2180 1.368 . S
C2175 C2159 1.349 . S
C2175 H2167 0.950 . S
C2175 C2173 1.327 . S
C2176 C2164 1.349 . S
C2176 H2170 0.950 . S
C2176 C2177 1.327 . S
C2177 H2171 0.950 . S
C2177 C2176 1.327 . S
C2177 C2181 1.429 . S
C2178 C2161 1.574 . S
C2178 H2172 0.949 . S
C2178 C2182 1.368 . S
C2179 C2160 1.429 . S
C2179 C2173 1.429 . S
C2179 C2180 1.523 . S
C2180 C2161 1.368 . S
C2180 C2174 1.368 . S
C2180 C2179 1.523 . S
C2181 C2165 1.429 . S
C2181 C2177 1.429 . S
C2181 C2182 1.523 . S
C2182 C2166 1.368 . S
C2182 C2178 1.368 . S
C2182 C2181 1.523 . S
H2183 C2158 0.950 . S
H2184 C2160 0.950 . S
H2185 C2161 0.949 . S
H2186 C2163 0.950 . S
H2187 C2165 0.950 . S
C2188 C2189 1.349 . S
C2188 C2190 1.327 . S
C2188 H2213 0.950 . S
C2189 C2188 1.349 . S
C2189 C2205 1.349 . S
C2190 C2188 1.327 . S
C2190 C2209 1.429 . S
C2190 H2214 0.950 . S
C2191 C2208 1.574 1_554 S
C2191 C2210 1.368 . S
C2191 H2215 0.949 . S
H2192 C2196 0.949 . S
C2193 C2194 1.349 . S
C2193 C2195 1.327 . S
C2193 H2216 0.950 . S
C2194 C2193 1.349 . S
C2194 C2206 1.349 . S
C2195 C2193 1.327 . S
C2195 C2211 1.429 . S
C2195 H2217 0.950 . S
C2196 H2192 0.949 . S
C2196 C2204 1.574 . S
C2196 C2212 1.368 1_554 S
H2197 C2205 0.950 . S
H2198 C2203 0.950 . S
H2199 C2204 0.949 . S
H2200 C2206 0.950 . S
H2201 C2207 0.950 . S
H2202 C2208 0.949 . S
C2203 H2198 0.950 . S
C2203 C2205 1.327 . S
C2203 C2209 1.429 . S
C2204 C2196 1.574 . S
C2204 H2199 0.949 . S
C2204 C2210 1.368 . S
C2205 C2189 1.349 . S
C2205 H2197 0.950 . S
C2205 C2203 1.327 . S
C2206 C2194 1.349 . S
C2206 H2200 0.950 . S
C2206 C2207 1.327 . S
C2207 H2201 0.950 . S
C2207 C2206 1.327 . S
C2207 C2211 1.429 . S
C2208 C2191 1.574 1_556 S
C2208 H2202 0.949 . S
C2208 C2212 1.368 . S
C2209 C2190 1.429 . S
C2209 C2203 1.429 . S
C2209 C2210 1.523 . S
C2210 C2191 1.368 . S
C2210 C2204 1.368 . S
C2210 C2209 1.523 . S
C2211 C2195 1.429 . S
C2211 C2207 1.429 . S
C2211 C2212 1.523 . S
C2212 C2196 1.368 1_556 S
C2212 C2208 1.368 . S
C2212 C2211 1.523 . S
H2213 C2188 0.950 . S
H2214 C2190 0.950 . S
H2215 C2191 0.949 . S
H2216 C2193 0.950 . S
H2217 C2195 0.950 . S
C2218 C2219 1.349 . S
C2218 C2220 1.327 . S
C2218 H2243 0.950 . S
C2219 C2218 1.349 . S
C2219 C2235 1.349 . S
C2220 C2218 1.327 . S
C2220 C2239 1.429 . S
C2220 H2244 0.950 . S
C2221 C2238 1.574 1_455 S
C2221 C2240 1.368 . S
C2221 H2245 0.949 . S
H2222 C2226 0.949 . S
C2223 C2224 1.349 . S
C2223 C2225 1.327 . S
C2223 H2246 0.950 . S
C2224 C2223 1.349 . S
C2224 C2236 1.349 . S
C2225 C2223 1.327 . S
C2225 C2241 1.429 . S
C2225 H2247 0.950 . S
C2226 H2222 0.949 . S
C2226 C2234 1.577 1_655 S
C2226 C2242 1.368 . S
H2227 C2235 0.950 . S
H2228 C2233 0.950 . S
H2229 C2234 0.946 . S
H2230 C2236 0.950 . S
H2231 C2237 0.950 . S
H2232 C2238 0.949 . S
C2233 H2228 0.950 . S
C2233 C2235 1.327 . S
C2233 C2239 1.429 . S
C2234 C2226 1.577 1_455 S
C2234 H2229 0.946 . S
C2234 C2240 1.365 . S
C2235 C2219 1.349 . S
C2235 H2227 0.950 . S
C2235 C2233 1.327 . S
C2236 C2224 1.349 . S
C2236 H2230 0.950 . S
C2236 C2237 1.327 . S
C2237 H2231 0.950 . S
C2237 C2236 1.327 . S
C2237 C2241 1.429 . S
C2238 C2221 1.574 1_655 S
C2238 H2232 0.949 . S
C2238 C2242 1.368 . S
C2239 C2220 1.429 . S
C2239 C2233 1.429 . S
C2239 C2240 1.523 . S
C2240 C2221 1.368 . S
C2240 C2234 1.365 . S
C2240 C2239 1.523 . S
C2241 C2225 1.429 . S
C2241 C2237 1.429 . S
C2241 C2242 1.523 . S
C2242 C2226 1.368 . S
C2242 C2238 1.368 . S
C2242 C2241 1.523 . S
H2243 C2218 0.950 . S
H2244 C2220 0.950 . S
H2245 C2221 0.949 . S
H2246 C2223 0.950 . S
H2247 C2225 0.950 . S
C2248 C2249 1.349 . S
C2248 C2250 1.327 . S
C2248 H2273 0.950 . S
C2249 C2248 1.349 . S
C2249 C2265 1.349 . S
C2250 C2248 1.327 . S
C2250 C2269 1.429 . S
C2250 H2274 0.950 1_554 S
C2251 C2268 1.574 1_554 S
C2251 C2270 1.368 . S
C2251 H2275 0.949 . S
H2252 C2256 0.949 . S
C2253 C2254 1.349 . S
C2253 C2255 1.327 . S
C2253 H2276 0.950 . S
C2254 C2253 1.349 . S
C2254 C2266 1.349 . S
C2255 C2253 1.327 . S
C2255 C2271 1.429 . S
C2255 H2277 0.950 . S
C2256 H2252 0.949 . S
C2256 C2264 1.574 . S
C2256 C2272 1.368 . S
H2257 C2265 0.950 . S
H2258 C2263 0.950 . S
H2259 C2264 0.949 . S
H2260 C2266 0.950 . S
H2261 C2267 0.950 . S
H2262 C2268 0.949 1_554 S
C2263 H2258 0.950 . S
C2263 C2265 1.327 . S
C2263 C2269 1.429 . S
C2264 C2256 1.574 . S
C2264 H2259 0.949 . S
C2264 C2270 1.368 1_556 S
C2265 C2249 1.349 . S
C2265 H2257 0.950 . S
C2265 C2263 1.327 . S
C2266 C2254 1.349 . S
C2266 H2260 0.950 . S
C2266 C2267 1.327 . S
C2267 H2261 0.950 . S
C2267 C2266 1.327 . S
C2267 C2271 1.429 . S
C2268 C2251 1.574 1_556 S
C2268 H2262 0.949 1_556 S
C2268 C2272 1.368 . S
C2269 C2250 1.429 . S
C2269 C2263 1.429 . S
C2269 C2270 1.523 . S
C2270 C2251 1.368 . S
C2270 C2264 1.368 1_554 S
C2270 C2269 1.523 . S
C2271 C2255 1.429 . S
C2271 C2267 1.429 . S
C2271 C2272 1.523 . S
C2272 C2256 1.368 . S
C2272 C2268 1.368 . S
C2272 C2271 1.523 . S
H2273 C2248 0.950 . S
H2274 C2250 0.950 1_556 S
H2275 C2251 0.949 . S
H2276 C2253 0.950 . S
H2277 C2255 0.950 . S
C2278 C2279 1.349 . S
C2278 C2280 1.327 . S
C2278 H2303 0.950 . S
C2279 C2278 1.349 . S
C2279 C2295 1.349 . S
C2280 C2278 1.327 . S
C2280 C2299 1.429 . S
C2280 H2304 0.950 . S
C2281 C2298 1.574 1_655 S
C2281 C2300 1.368 . S
C2281 H2305 0.949 . S
H2282 C2286 0.949 . S
C2283 C2284 1.349 . S
C2283 C2285 1.327 . S
C2283 H2306 0.950 . S
C2284 C2283 1.349 . S
C2284 C2296 1.349 . S
C2285 C2283 1.327 . S
C2285 C2301 1.429 . S
C2285 H2307 0.950 . S
C2286 H2282 0.949 . S
C2286 C2294 1.574 1_455 S
C2286 C2302 1.368 . S
H2287 C2295 0.950 . S
H2288 C2293 0.950 . S
H2289 C2294 0.949 . S
H2290 C2296 0.950 . S
H2291 C2297 0.950 . S
H2292 C2298 0.949 . S
C2293 H2288 0.950 . S
C2293 C2295 1.327 . S
C2293 C2299 1.429 . S
C2294 C2286 1.574 1_655 S
C2294 H2289 0.949 . S
C2294 C2300 1.368 . S
C2295 C2279 1.349 . S
C2295 H2287 0.950 . S
C2295 C2293 1.327 . S
C2296 C2284 1.349 . S
C2296 H2290 0.950 . S
C2296 C2297 1.327 . S
C2297 H2291 0.950 . S
C2297 C2296 1.327 . S
C2297 C2301 1.429 . S
C2298 C2281 1.574 1_455 S
C2298 H2292 0.949 . S
C2298 C2302 1.368 . S
C2299 C2280 1.429 . S
C2299 C2293 1.429 . S
C2299 C2300 1.523 . S
C2300 C2281 1.368 . S
C2300 C2294 1.368 . S
C2300 C2299 1.523 . S
C2301 C2285 1.429 . S
C2301 C2297 1.429 . S
C2301 C2302 1.523 . S
C2302 C2286 1.368 . S
C2302 C2298 1.368 . S
C2302 C2301 1.523 . S
H2303 C2278 0.950 . S
H2304 C2280 0.950 . S
H2305 C2281 0.949 . S
H2306 C2283 0.950 . S
H2307 C2285 0.950 . S
C2308 C2309 1.349 . S
C2308 C2310 1.327 . S
C2308 H2333 0.950 . S
C2309 C2308 1.349 . S
C2309 C2325 1.349 . S
C2310 C2308 1.327 . S
C2310 C2329 1.429 . S
C2310 H2334 0.950 . S
C2311 C2328 1.574 . S
C2311 C2330 1.368 . S
C2311 H2335 0.949 . S
H2312 C2316 0.949 . S
C2313 C2314 1.349 . S
C2313 C2315 1.327 . S
C2313 H2336 0.950 . S
C2314 C2313 1.349 . S
C2314 C2326 1.349 . S
C2315 C2313 1.327 . S
C2315 C2331 1.429 . S
C2315 H2337 0.950 . S
C2316 H2312 0.949 . S
C2316 C2324 1.574 . S
C2316 C2332 1.368 . S
H2317 C2325 0.950 . S
H2318 C2323 0.950 . S
H2319 C2324 0.949 . S
H2320 C2326 0.950 . S
H2321 C2327 0.950 . S
H2322 C2328 0.949 . S
C2323 H2318 0.950 . S
C2323 C2325 1.327 . S
C2323 C2329 1.429 . S
C2324 C2316 1.574 . S
C2324 H2319 0.949 . S
C2324 C2330 1.368 . S
C2325 C2309 1.349 . S
C2325 H2317 0.950 . S
C2325 C2323 1.327 . S
C2326 C2314 1.349 . S
C2326 H2320 0.950 . S
C2326 C2327 1.327 . S
C2327 H2321 0.950 . S
C2327 C2326 1.327 . S
C2327 C2331 1.429 . S
C2328 C2311 1.574 . S
C2328 H2322 0.949 . S
C2328 C2332 1.368 . S
C2329 C2310 1.429 . S
C2329 C2323 1.429 . S
C2329 C2330 1.523 . S
C2330 C2311 1.368 . S
C2330 C2324 1.368 . S
C2330 C2329 1.523 . S
C2331 C2315 1.429 . S
C2331 C2327 1.429 . S
C2331 C2332 1.523 . S
C2332 C2316 1.368 . S
C2332 C2328 1.368 . S
C2332 C2331 1.523 . S
H2333 C2308 0.950 . S
H2334 C2310 0.950 . S
H2335 C2311 0.949 . S
H2336 C2313 0.950 . S
H2337 C2315 0.950 . S
C2338 C2339 1.349 . S
C2338 C2340 1.327 . S
C2338 H2363 0.950 . S
C2339 C2338 1.349 . S
C2339 C2355 1.349 . S
C2340 C2338 1.327 . S
C2340 C2359 1.429 . S
C2340 H2364 0.950 . S
C2341 C2358 1.574 . S
C2341 C2360 1.368 . S
C2341 H2365 0.949 . S
H2342 C2346 0.949 . S
C2343 C2344 1.349 . S
C2343 C2345 1.327 . S
C2343 H2366 0.950 . S
C2344 C2343 1.349 . S
C2344 C2356 1.349 . S
C2345 C2343 1.327 . S
C2345 C2361 1.429 . S
C2345 H2367 0.950 . S
C2346 H2342 0.949 . S
C2346 C2354 1.574 . S
C2346 C2362 1.368 . S
H2347 C2355 0.950 . S
H2348 C2353 0.950 . S
H2349 C2354 0.949 . S
H2350 C2356 0.950 . S
H2351 C2357 0.950 . S
H2352 C2358 0.949 . S
C2353 H2348 0.950 . S
C2353 C2355 1.327 . S
C2353 C2359 1.429 . S
C2354 C2346 1.574 . S
C2354 H2349 0.949 . S
C2354 C2360 1.368 . S
C2355 C2339 1.349 . S
C2355 H2347 0.950 . S
C2355 C2353 1.327 . S
C2356 C2344 1.349 . S
C2356 H2350 0.950 . S
C2356 C2357 1.327 . S
C2357 H2351 0.950 . S
C2357 C2356 1.327 . S
C2357 C2361 1.429 . S
C2358 C2341 1.574 . S
C2358 H2352 0.949 . S
C2358 C2362 1.368 . S
C2359 C2340 1.429 . S
C2359 C2353 1.429 . S
C2359 C2360 1.523 . S
C2360 C2341 1.368 . S
C2360 C2354 1.368 . S
C2360 C2359 1.523 . S
C2361 C2345 1.429 . S
C2361 C2357 1.429 . S
C2361 C2362 1.523 . S
C2362 C2346 1.368 . S
C2362 C2358 1.368 . S
C2362 C2361 1.523 . S
H2363 C2338 0.950 . S
H2364 C2340 0.950 . S
H2365 C2341 0.949 . S
H2366 C2343 0.950 . S
H2367 C2345 0.950 . S
C449 C89 1.348 . S
C454 C5 1.348 . S
C479 C19 1.340 . S
C484 C103 1.338 . S
C509 C61 1.348 . S
C514 C33 1.348 . S
C539 C47 1.340 . S
C544 C75 1.338 . S
C569 C201 1.348 . S
C574 C117 1.348 . S
C599 C131 1.340 . S
C604 C215 1.338 . S
C629 C173 1.348 . S
C634 C145 1.348 . S
C659 C159 1.340 . S
C664 C187 1.338 . S
C689 C229 1.348 . S
C694 C313 1.348 . S
C719 C327 1.340 . S
C724 C243 1.338 . S
C749 C257 1.348 . S
C754 C285 1.348 . S
C779 C299 1.340 . S
C784 C271 1.338 . S
C809 C425 1.348 . S
C814 C341 1.348 . S
C839 C439 1.340 . S
C844 C355 1.338 . S
C869 C397 1.348 . S
C874 C369 1.348 . S
C899 C383 1.340 . S
C904 C411 1.338 . S
C929 C109 0.938 . S
C934 C11 0.938 . S
C959 C67 0.938 . S
C964 C25 0.938 . S
C989 C81 0.939 . S
C994 C39 0.939 . S
C1019 C95 0.938 . S
C1024 C53 0.939 . S
C1049 C221 0.938 . S
C1054 C123 0.937 . S
C1079 C179 0.938 . S
C1084 C137 0.939 . S
C1109 C193 0.939 . S
C1114 C151 0.939 . S
C1139 C165 0.938 . S
C1144 C207 0.938 . S
C1169 C333 0.938 . S
C1174 C235 0.938 . S
C1199 C249 0.938 . S
C1204 C291 0.938 . S
C1229 C263 0.938 . S
C1234 C305 0.939 . S
C1259 C319 0.938 . S
C1264 C277 0.938 . S
C1289 C445 0.938 . S
C1294 C347 0.938 . S
C1319 C361 0.939 . S
C1324 C403 0.938 . S
C1349 C375 0.938 . S
C1354 C417 0.939 . S
C1379 C431 0.938 . S
C1384 C389 0.938 . S
C1409 C12 0.663 . S
C1414 C424 0.667 . S
C1439 C214 0.650 . S
C1444 C26 0.642 . S
C1469 C396 0.665 . S
C1474 C40 0.662 . S
C1499 C186 0.661 . S
C1504 C54 0.658 . S
C1529 C368 0.667 . S
C1534 C68 0.663 . S
C1559 C82 0.643 . S
C1564 C158 0.647 . S
C1589 C96 0.662 . S
C1594 C340 0.666 . S
C1619 C110 0.656 . S
C1624 C130 0.663 . S
C1649 C124 0.663 . S
C1654 C312 0.667 . S
C1679 C102 0.649 . S
C1684 C138 0.642 . S
C1709 C284 0.666 . S
C1714 C152 0.662 . S
C1739 C74 0.660 . S
C1744 C166 0.658 . S
C1769 C256 0.667 . S
C1774 C180 0.663 . S
C1799 C46 0.649 . S
C1804 C194 0.642 . S
C1829 C208 0.662 . S
C1834 C228 0.666 . S
C1859 C18 0.661 . S
C1864 C222 0.659 . S
C1889 C200 0.666 . S
C1894 C236 0.662 . S
C1919 C438 0.661 . S
C1924 C250 0.658 . S
C1949 C264 0.663 . S
C1954 C172 0.666 . S
C1979 C278 0.644 . S
C1984 C410 0.647 . S
C2009 C292 0.662 . S
C2014 C144 0.666 . S
C2039 C306 0.656 . S
C2044 C382 0.662 . S
C2069 C320 0.663 . S
C2074 C116 0.666 . S
C2099 C334 0.644 . S
C2104 C354 0.647 . S
C2129 C88 0.666 . S
C2134 C348 0.663 . S
C2159 C326 0.660 . S
C2164 C362 0.658 . S
C2189 C60 0.667 . S
C2194 C376 0.663 . S
C2219 C390 0.644 . S
C2224 C298 0.647 . S
C2249 C404 0.662 . S
C2254 C32 0.666 . S
C2279 C270 0.660 . S
C2284 C418 0.658 . S
C2309 C432 0.662 . S
C2314 C4 0.666 . S
C2339 C446 0.644 . S
C2344 C242 0.647 . S
