# Generated by pormake.
# Topology unp, (4)-cn, num edge types: 1
# Building blocks:
#     Node 0, Type 0, BuildingBlock: CEKHIL_clean_sbu_0, # of connection points: 4
#     Node 1, Type 0, BuildingBlock: CEKHIL_clean_sbu_0, # of connection points: 4
#     Node 2, Type 0, BuildingBlock: CEKHIL_clean_sbu_0, # of connection points: 4
#     Node 3, Type 0, BuildingBlock: CEKHIL_clean_sbu_0, # of connection points: 4
#     Node 4, Type 0, BuildingBlock: CEKHIL_clean_sbu_0, # of connection points: 4
#     Node 5, Type 0, BuildingBlock: CEKHIL_clean_sbu_0, # of connection points: 4
#     Node 6, Type 0, BuildingBlock: CEKHIL_clean_sbu_0, # of connection points: 4
#     Node 7, Type 0, BuildingBlock: CEKHIL_clean_sbu_0, # of connection points: 4
#     Node 8, Type 0, BuildingBlock: CEKHIL_clean_sbu_0, # of connection points: 4
#     Node 9, Type 0, BuildingBlock: CEKHIL_clean_sbu_0, # of connection points: 4
#     Node 10, Type 0, BuildingBlock: CEKHIL_clean_sbu_0, # of connection points: 4
#     Node 11, Type 0, BuildingBlock: CEKHIL_clean_sbu_0, # of connection points: 4
#     Node 12, Type 0, BuildingBlock: CEKHIL_clean_sbu_0, # of connection points: 4
#     Node 13, Type 0, BuildingBlock: CEKHIL_clean_sbu_0, # of connection points: 4
#     Node 14, Type 0, BuildingBlock: CEKHIL_clean_sbu_0, # of connection points: 4
#     Node 15, Type 0, BuildingBlock: CEKHIL_clean_sbu_0, # of connection points: 4
#     Node 16, Type 0, BuildingBlock: CEKHIL_clean_sbu_0, # of connection points: 4
#     Node 17, Type 0, BuildingBlock: CEKHIL_clean_sbu_0, # of connection points: 4
#     Edge 18, Type (0, 0), BuildingBlock: MIFKUJ_clean_linker_0, # of connection points: 2
#     Edge 19, Type (0, 0), BuildingBlock: MIFKUJ_clean_linker_0, # of connection points: 2
#     Edge 20, Type (0, 0), BuildingBlock: MIFKUJ_clean_linker_0, # of connection points: 2
#     Edge 21, Type (0, 0), BuildingBlock: MIFKUJ_clean_linker_0, # of connection points: 2
#     Edge 22, Type (0, 0), BuildingBlock: MIFKUJ_clean_linker_0, # of connection points: 2
#     Edge 23, Type (0, 0), BuildingBlock: MIFKUJ_clean_linker_0, # of connection points: 2
#     Edge 24, Type (0, 0), BuildingBlock: MIFKUJ_clean_linker_0, # of connection points: 2
#     Edge 25, Type (0, 0), BuildingBlock: MIFKUJ_clean_linker_0, # of connection points: 2
#     Edge 26, Type (0, 0), BuildingBlock: MIFKUJ_clean_linker_0, # of connection points: 2
#     Edge 27, Type (0, 0), BuildingBlock: MIFKUJ_clean_linker_0, # of connection points: 2
#     Edge 28, Type (0, 0), BuildingBlock: MIFKUJ_clean_linker_0, # of connection points: 2
#     Edge 29, Type (0, 0), BuildingBlock: MIFKUJ_clean_linker_0, # of connection points: 2
#     Edge 30, Type (0, 0), BuildingBlock: MIFKUJ_clean_linker_0, # of connection points: 2
#     Edge 31, Type (0, 0), BuildingBlock: MIFKUJ_clean_linker_0, # of connection points: 2
#     Edge 32, Type (0, 0), BuildingBlock: MIFKUJ_clean_linker_0, # of connection points: 2
#     Edge 33, Type (0, 0), BuildingBlock: MIFKUJ_clean_linker_0, # of connection points: 2
#     Edge 34, Type (0, 0), BuildingBlock: MIFKUJ_clean_linker_0, # of connection points: 2
#     Edge 35, Type (0, 0), BuildingBlock: MIFKUJ_clean_linker_0, # of connection points: 2
#     Edge 36, Type (0, 0), BuildingBlock: MIFKUJ_clean_linker_0, # of connection points: 2
#     Edge 37, Type (0, 0), BuildingBlock: MIFKUJ_clean_linker_0, # of connection points: 2
#     Edge 38, Type (0, 0), BuildingBlock: MIFKUJ_clean_linker_0, # of connection points: 2
#     Edge 39, Type (0, 0), BuildingBlock: MIFKUJ_clean_linker_0, # of connection points: 2
#     Edge 40, Type (0, 0), BuildingBlock: MIFKUJ_clean_linker_0, # of connection points: 2
#     Edge 41, Type (0, 0), BuildingBlock: MIFKUJ_clean_linker_0, # of connection points: 2
#     Edge 42, Type (0, 0), BuildingBlock: MIFKUJ_clean_linker_0, # of connection points: 2
#     Edge 43, Type (0, 0), BuildingBlock: MIFKUJ_clean_linker_0, # of connection points: 2
#     Edge 44, Type (0, 0), BuildingBlock: MIFKUJ_clean_linker_0, # of connection points: 2
#     Edge 45, Type (0, 0), BuildingBlock: MIFKUJ_clean_linker_0, # of connection points: 2
#     Edge 46, Type (0, 0), BuildingBlock: MIFKUJ_clean_linker_0, # of connection points: 2
#     Edge 47, Type (0, 0), BuildingBlock: MIFKUJ_clean_linker_0, # of connection points: 2
#     Edge 48, Type (0, 0), BuildingBlock: MIFKUJ_clean_linker_0, # of connection points: 2
#     Edge 49, Type (0, 0), BuildingBlock: MIFKUJ_clean_linker_0, # of connection points: 2
#     Edge 50, Type (0, 0), BuildingBlock: MIFKUJ_clean_linker_0, # of connection points: 2
#     Edge 51, Type (0, 0), BuildingBlock: MIFKUJ_clean_linker_0, # of connection points: 2
#     Edge 52, Type (0, 0), BuildingBlock: MIFKUJ_clean_linker_0, # of connection points: 2
#     Edge 53, Type (0, 0), BuildingBlock: MIFKUJ_clean_linker_0, # of connection points: 2
# Relax obj value: 0.425
# Max RMSD: 0.185
# Mean RMSD: 0.185
data_MOF--net-unp--node1-CEKHIL_clean_sbu_0--edge1-MIFKUJ_clean_linker_0
_symmetry_space_group_name_H-M    P1
_symmetry_Int_Tables_number       1
_symmetry_cell_setting            triclinic
loop_
_symmetry_equiv_pos_as_xyz
'x, y, z'
_cell_length_a     62.646076
_cell_length_b     62.641338
_cell_length_c     69.984883
_cell_angle_alpha  89.978874
_cell_angle_beta   90.019852
_cell_angle_gamma 120.03785
loop_
_atom_site_label
_atom_site_type_symbol
_atom_site_fract_x
_atom_site_fract_y
_atom_site_fract_z
_atom_type_partial_charge
Co0 Co 0.17616 0.14975 0.13894 0.0
O1 O 0.21049 0.16155 0.14236 0.0
O2 O 0.19189 0.18286 0.14925 0.0
C3 C 0.16297 0.11208 0.15148 0.0
O4 O 0.14066 0.14261 0.13837 0.0
Co5 Co 0.14553 0.1049 0.11212 0.0
O6 O 0.1172 0.10692 0.12257 0.0
C7 C 0.18237 0.15272 0.09607 0.0
C8 C 0.21209 0.18177 0.14866 0.0
C9 C 0.11965 0.12496 0.13264 0.0
O10 O 0.18294 0.16337 0.11196 0.0
O11 O 0.17063 0.12927 0.09401 0.0
O12 O 0.16851 0.13066 0.16275 0.0
O13 O 0.16779 0.11748 0.13366 0.0
Co14 Co 0.83557 0.02821 0.14118 0.0
O15 O 0.8183 0.04605 0.14445 0.0
O16 O 0.8021 0.00578 0.14892 0.0
C17 C 0.87067 0.05515 0.15642 0.0
O18 O 0.84729 0.00337 0.14052 0.0
Co19 Co 0.88469 0.04964 0.11856 0.0
O20 O 0.88727 0.02331 0.13244 0.0
C21 C 0.83768 0.03185 0.09787 0.0
C22 C 0.79922 0.02493 0.14885 0.0
C23 C 0.86835 0.00466 0.13943 0.0
O24 O 0.82542 0.02228 0.11335 0.0
O25 O 0.86123 0.04505 0.09745 0.0
O26 O 0.85169 0.03921 0.16625 0.0
O27 O 0.86694 0.05568 0.1384 0.0
Co28 Co 0.96143 0.81344 0.13053 0.0
O29 O 0.94255 0.77821 0.12935 0.0
O30 O 0.9797 0.79967 0.14243 0.0
C31 C 0.93092 0.81999 0.14025 0.0
O32 O 0.98586 0.84989 0.13508 0.0
Co33 Co 0.94824 0.84511 0.10402 0.0
O34 O 0.97123 0.87228 0.12099 0.0
C35 C 0.96914 0.81616 0.08797 0.0
C36 C 0.96094 0.77832 0.13799 0.0
C37 C 0.98637 0.87045 0.1321 0.0
O38 O 0.97614 0.81372 0.10473 0.0
O39 O 0.95567 0.82586 0.08505 0.0
O40 O 0.9425 0.81407 0.15271 0.0
O41 O 0.93629 0.81889 0.12265 0.0
Co42 Co 0.15703 0.17304 0.86993 0.0
O43 O 0.17065 0.20799 0.8707 0.0
O44 O 0.18855 0.18909 0.85695 0.0
C45 C 0.1185 0.16337 0.8617 0.0
O46 O 0.14759 0.13705 0.86551 0.0
Co47 Co 0.11548 0.13958 0.89844 0.0
O48 O 0.11265 0.1128 0.88181 0.0
C49 C 0.16617 0.17004 0.9123 0.0
C50 C 0.18939 0.20966 0.86148 0.0
C51 C 0.12912 0.1157 0.86974 0.0
O52 O 0.1741 0.17513 0.89501 0.0
O53 O 0.14335 0.15758 0.91675 0.0
O54 O 0.13546 0.17029 0.84864 0.0
O55 O 0.12601 0.16502 0.8791 0.0
Co56 Co 0.81548 0.96867 0.86676 0.0
O57 O 0.78029 0.94803 0.86585 0.0
O58 O 0.80078 0.98827 0.86006 0.0
C59 C 0.82536 0.94376 0.85046 0.0
O60 O 0.85125 0.99596 0.86527 0.0
Co61 Co 0.84899 0.95242 0.88719 0.0
O62 O 0.87461 0.97878 0.87089 0.0
C63 C 0.81939 0.96777 0.91009 0.0
C64 C 0.77975 0.96795 0.86157 0.0
C65 C 0.87187 0.99626 0.86439 0.0
O66 O 0.81324 0.97491 0.89484 0.0
O67 O 0.83218 0.95699 0.90984 0.0
O68 O 0.81922 0.95795 0.84126 0.0
O69 O 0.82281 0.9433 0.86875 0.0
Co70 Co 0.03057 0.84737 0.8601 0.0
O71 O 0.04537 0.82712 0.86136 0.0
O72 O 0.00622 0.81372 0.85386 0.0
C73 C 0.06092 0.87863 0.84354 0.0
O74 O 0.00909 0.86311 0.8567 0.0
Co75 Co 0.05552 0.89921 0.87893 0.0
O76 O 0.03278 0.90383 0.86192 0.0
C77 C 0.03146 0.85454 0.90302 0.0
C78 C 0.02384 0.80885 0.85681 0.0
C79 C 0.01316 0.88538 0.85556 0.0
O80 O 0.02234 0.84092 0.88811 0.0
O81 O 0.04613 0.87788 0.90229 0.0
O82 O 0.04423 0.85923 0.83457 0.0
O83 O 0.05992 0.87735 0.86193 0.0
Co84 Co 0.84956 0.48176 0.48303 0.0
O85 O 0.88337 0.50227 0.49002 0.0
O86 O 0.85622 0.51507 0.48692 0.0
C87 C 0.84141 0.4499 0.50235 0.0
O88 O 0.81299 0.46573 0.4774 0.0
Co89 Co 0.83155 0.43117 0.46345 0.0
O90 O 0.79825 0.42601 0.46939 0.0
C91 C 0.8598 0.4767 0.44113 0.0
C92 C 0.8786 0.52018 0.49075 0.0
C93 C 0.79503 0.44388 0.47403 0.0
O94 O 0.85832 0.48926 0.4551 0.0
O95 O 0.85213 0.45358 0.44228 0.0
O96 O 0.84097 0.46902 0.50912 0.0
O97 O 0.84926 0.45193 0.48504 0.0
Co98 Co 0.50269 0.34632 0.4675 0.0
O99 O 0.49205 0.37003 0.46925 0.0
O100 O 0.47113 0.33165 0.48017 0.0
C101 C 0.54194 0.37133 0.47667 0.0
O102 O 0.50842 0.31718 0.46928 0.0
Co103 Co 0.54345 0.35356 0.43851 0.0
O104 O 0.54226 0.32536 0.45237 0.0
C105 C 0.49417 0.34074 0.42479 0.0
C106 C 0.47238 0.3528 0.47752 0.0
C107 C 0.52502 0.31206 0.46403 0.0
O108 O 0.48565 0.3354 0.4419 0.0
O109 O 0.51701 0.35024 0.42063 0.0
O110 O 0.52466 0.36095 0.48947 0.0
O111 O 0.53456 0.36823 0.45916 0.0
Co112 Co 0.64161 0.15403 0.4652 0.0
O113 O 0.62532 0.11886 0.46302 0.0
O114 O 0.66293 0.14249 0.47479 0.0
C115 C 0.60975 0.15658 0.47752 0.0
O116 O 0.66394 0.19056 0.47038 0.0
Co117 Co 0.62333 0.18427 0.44209 0.0
O118 O 0.64585 0.21141 0.45945 0.0
C119 C 0.6475 0.16048 0.42247 0.0
C120 C 0.64517 0.12056 0.47035 0.0
C121 C 0.66261 0.21034 0.46904 0.0
O122 O 0.65529 0.15718 0.43859 0.0
O123 O 0.63248 0.16865 0.421 0.0
O124 O 0.62337 0.15167 0.48866 0.0
O125 O 0.61427 0.15709 0.45951 0.0
Co126 Co 0.82495 0.50909 0.20855 0.0
O127 O 0.84292 0.54388 0.21307 0.0
O128 O 0.85885 0.52229 0.20069 0.0
C129 C 0.79218 0.50839 0.19477 0.0
O130 O 0.81193 0.47322 0.20107 0.0
Co131 Co 0.77394 0.47528 0.2271 0.0
O132 O 0.77127 0.45167 0.20704 0.0
C133 C 0.81936 0.4952 0.25048 0.0
C134 C 0.86193 0.54351 0.20611 0.0
C135 C 0.79059 0.45377 0.1992 0.0
O136 O 0.8328 0.50341 0.23538 0.0
O137 O 0.79579 0.48489 0.25021 0.0
O138 O 0.81164 0.51386 0.18463 0.0
O139 O 0.79386 0.50532 0.21282 0.0
Co140 Co 0.49641 0.31941 0.19826 0.0
O141 O 0.46337 0.2939 0.19272 0.0
O142 O 0.47857 0.3337 0.18659 0.0
C143 C 0.51611 0.30016 0.18712 0.0
O144 O 0.52965 0.35064 0.20084 0.0
Co145 Co 0.52784 0.31002 0.22792 0.0
O146 O 0.55433 0.343 0.21953 0.0
C147 C 0.48579 0.31441 0.24069 0.0
C148 C 0.45995 0.31132 0.18603 0.0
C149 C 0.55064 0.35711 0.20857 0.0
O150 O 0.48554 0.32394 0.22446 0.0
O151 O 0.49932 0.30489 0.24409 0.0
O152 O 0.50866 0.31105 0.17526 0.0
O153 O 0.50883 0.29878 0.20455 0.0
Co154 Co 0.70557 0.18226 0.19016 0.0
O155 O 0.71872 0.16077 0.18708 0.0
O156 O 0.67892 0.14902 0.18565 0.0
C157 C 0.73234 0.21323 0.17126 0.0
O158 O 0.68546 0.19946 0.19186 0.0
Co159 Co 0.73734 0.23326 0.20943 0.0
O160 O 0.71071 0.23907 0.2 0.0
C161 C 0.71734 0.18837 0.23255 0.0
C162 C 0.69607 0.1431 0.1851 0.0
C163 C 0.68994 0.22171 0.19416 0.0
O164 O 0.70303 0.17599 0.21864 0.0
O165 O 0.73428 0.21096 0.23106 0.0
O166 O 0.71356 0.19401 0.16374 0.0
O167 O 0.73577 0.21149 0.18922 0.0
Co168 Co 0.51053 0.82467 0.79785 0.0
O169 O 0.54526 0.83783 0.80114 0.0
O170 O 0.52463 0.85639 0.81018 0.0
C171 C 0.49808 0.78594 0.80783 0.0
O172 O 0.47488 0.81656 0.79766 0.0
Co173 Co 0.48093 0.78228 0.7688 0.0
O174 O 0.45197 0.78175 0.78091 0.0
C175 C 0.51707 0.83183 0.75536 0.0
C176 C 0.54558 0.85691 0.80875 0.0
C177 C 0.45396 0.79895 0.79185 0.0
O178 O 0.51698 0.84083 0.77186 0.0
O179 O 0.50615 0.80869 0.75188 0.0
O180 O 0.50312 0.80323 0.82032 0.0
O181 O 0.50321 0.79325 0.79037 0.0
Co182 Co 0.1754 0.693 0.7918 0.0
O183 O 0.15861 0.71143 0.79253 0.0
O184 O 0.14247 0.67238 0.80175 0.0
C185 C 0.21133 0.72217 0.80443 0.0
O186 O 0.1876 0.66845 0.79363 0.0
Co187 Co 0.22196 0.71121 0.76624 0.0
O188 O 0.22355 0.68307 0.77777 0.0
C189 C 0.17344 0.69484 0.74936 0.0
C190 C 0.1398 0.69146 0.79902 0.0
C191 C 0.20654 0.66702 0.78841 0.0
O192 O 0.16322 0.68292 0.76477 0.0
O193 O 0.19664 0.70968 0.74786 0.0
O194 O 0.19303 0.70815 0.81566 0.0
O195 O 0.20636 0.71964 0.78644 0.0
Co196 Co 0.30017 0.47883 0.80902 0.0
O197 O 0.28259 0.4451 0.81701 0.0
O198 O 0.32326 0.46937 0.81848 0.0
C199 C 0.27516 0.49051 0.82276 0.0
O200 O 0.32441 0.51482 0.80337 0.0
Co201 Co 0.27543 0.49958 0.78207 0.0
O202 O 0.30355 0.53183 0.79045 0.0
C203 C 0.29124 0.46601 0.76689 0.0
C204 C 0.30393 0.44788 0.82152 0.0
C205 C 0.32288 0.5337 0.79817 0.0
O206 O 0.30351 0.46856 0.7823 0.0
O207 O 0.27678 0.47474 0.76479 0.0
O208 O 0.29192 0.48935 0.83295 0.0
O209 O 0.27247 0.48208 0.8056 0.0
Co210 Co 0.48618 0.85446 0.52632 0.0
O211 O 0.50129 0.88931 0.52282 0.0
O212 O 0.51936 0.86728 0.51684 0.0
C213 C 0.44967 0.84399 0.51282 0.0
O214 O 0.47584 0.81814 0.52734 0.0
Co215 Co 0.44019 0.8274 0.55254 0.0
O216 O 0.44006 0.79726 0.54349 0.0
C217 C 0.48867 0.86001 0.56939 0.0
C218 C 0.52079 0.88873 0.51732 0.0
C219 C 0.45746 0.79798 0.53354 0.0
O220 O 0.49887 0.85997 0.55345 0.0
O221 O 0.46534 0.85044 0.57136 0.0
O222 O 0.46833 0.84813 0.50212 0.0
O223 O 0.45449 0.84897 0.53072 0.0
Co224 Co 0.14688 0.64103 0.52091 0.0
O225 O 0.11179 0.62033 0.51932 0.0
O226 O 0.13296 0.65864 0.50828 0.0
C227 C 0.15694 0.61264 0.51185 0.0
O228 O 0.18285 0.66761 0.51917 0.0
Co229 Co 0.17814 0.62926 0.54915 0.0
O230 O 0.20612 0.65419 0.53359 0.0
C231 C 0.14438 0.6456 0.56347 0.0
C232 C 0.11172 0.63892 0.51112 0.0
C233 C 0.20371 0.66937 0.52295 0.0
O234 O 0.14295 0.65322 0.54668 0.0
O235 O 0.15533 0.63338 0.56688 0.0
O236 O 0.15189 0.62439 0.49889 0.0
O237 O 0.15349 0.61684 0.52923 0.0
Co238 Co 0.35811 0.51167 0.53946 0.0
O239 O 0.37857 0.49712 0.53722 0.0
O240 O 0.33941 0.47942 0.52811 0.0
C241 C 0.38575 0.5492 0.52831 0.0
O242 O 0.33167 0.52131 0.53814 0.0
Co243 Co 0.3718 0.55592 0.56651 0.0
O244 O 0.34391 0.55693 0.55385 0.0
C245 C 0.35571 0.50673 0.58245 0.0
C246 C 0.3595 0.47829 0.52965 0.0
C247 C 0.32887 0.53954 0.54299 0.0
O248 O 0.34764 0.49706 0.5659 0.0
O249 O 0.36821 0.53005 0.58521 0.0
O250 O 0.37281 0.53135 0.51642 0.0
O251 O 0.38321 0.54317 0.54613 0.0
H252 H 0.44311 0.34352 0.17959 0.0
H253 H 0.40133 0.3331 0.16965 0.0
H254 H 0.38065 0.25635 0.16618 0.0
H255 H 0.42193 0.26651 0.17617 0.0
H256 H 0.36381 0.27218 0.13529 0.0
H257 H 0.36785 0.27697 0.20555 0.0
H258 H 0.3842 0.29938 0.2359 0.0
H259 H 0.36332 0.35235 0.21912 0.0
H260 H 0.34706 0.33034 0.18858 0.0
H261 H 0.25217 0.17935 0.15916 0.0
H262 H 0.29411 0.21336 0.16296 0.0
H263 H 0.26936 0.26554 0.15343 0.0
H264 H 0.22669 0.23113 0.14976 0.0
H265 H 0.30921 0.27675 0.18454 0.0
H266 H 0.29279 0.26015 0.11761 0.0
H267 H 0.27347 0.23172 0.09047 0.0
H268 H 0.31692 0.19775 0.10236 0.0
H269 H 0.3362 0.22565 0.12975 0.0
C270 C 0.42967 0.32449 0.17648 0.0
C271 C 0.43566 0.30577 0.17872 0.0
C272 C 0.40589 0.3186 0.17084 0.0
C273 C 0.38801 0.29399 0.16719 0.0
C274 C 0.39428 0.27548 0.16883 0.0
C275 C 0.41782 0.28129 0.17464 0.0
C276 C 0.36217 0.28666 0.1628 0.0
C277 C 0.3519 0.27361 0.14584 0.0
C278 C 0.3468 0.28906 0.17642 0.0
C279 C 0.35657 0.30224 0.19472 0.0
C280 C 0.36695 0.29351 0.20828 0.0
C281 C 0.37615 0.30611 0.22552 0.0
C282 C 0.37489 0.32733 0.2294 0.0
C283 C 0.36435 0.33595 0.21607 0.0
C284 C 0.35513 0.32343 0.1988 0.0
C285 C 0.2555 0.19804 0.15816 0.0
C286 C 0.23631 0.20266 0.15392 0.0
C287 C 0.27945 0.21743 0.16037 0.0
C288 C 0.28475 0.24183 0.15816 0.0
C289 C 0.26549 0.24675 0.15512 0.0
C290 C 0.24125 0.22716 0.15304 0.0
C291 C 0.31086 0.26139 0.15745 0.0
C292 C 0.32121 0.27659 0.17344 0.0
C293 C 0.32636 0.26085 0.14299 0.0
C294 C 0.31596 0.24504 0.12576 0.0
C295 C 0.29824 0.24663 0.11443 0.0
C296 C 0.28725 0.23057 0.09903 0.0
C297 C 0.29391 0.21289 0.09475 0.0
C298 C 0.31178 0.21145 0.1057 0.0
C299 C 0.3228 0.22744 0.12114 0.0
H300 H 0.28518 0.20028 0.08297 0.0
H301 H 0.38201 0.33705 0.24275 0.0
H302 H 0.79095 0.06201 0.1584 0.0
H303 H 0.75144 0.0596 0.16409 0.0
H304 H 0.71345 0.98123 0.15369 0.0
H305 H 0.75337 0.98337 0.14842 0.0
H306 H 0.70481 0.03028 0.13332 0.0
H307 H 0.68867 0.97255 0.18404 0.0
H308 H 0.70077 0.95407 0.20997 0.0
H309 H 0.73514 0.02309 0.24003 0.0
H310 H 0.72359 0.04208 0.21413 0.0
H311 H 0.65494 0.10347 0.16948 0.0
H312 H 0.64876 0.06184 0.16404 0.0
H313 H 0.71852 0.0839 0.19144 0.0
H314 H 0.72475 0.12488 0.19666 0.0
H315 H 0.68254 0.03525 0.20047 0.0
H316 H 0.71824 0.09127 0.1418 0.0
H317 H 0.71197 0.11463 0.11608 0.0
H318 H 0.6424 0.05096 0.10213 0.0
H319 H 0.64831 0.02734 0.12785 0.0
C320 C 0.77425 0.04422 0.15743 0.0
C321 C 0.77521 0.02289 0.153 0.0
C322 C 0.75171 0.04286 0.16066 0.0
C323 C 0.72965 0.02024 0.15931 0.0
C324 C 0.73035 -0.00121 0.15491 0.0
C325 C 0.75311 7e-05 0.15194 0.0
C326 C 0.70642 0.02029 0.16251 0.0
C327 C 0.69866 0.0301 0.14785 0.0
C328 C 0.69838 0.01995 0.18139 0.0
C329 C 0.70531 0.00872 0.19711 0.0
C330 C 0.69897 0.98382 0.19612 0.0
C331 C 0.7057 0.97325 0.21082 0.0
C332 C 0.71873 0.9874 0.22664 0.0
C333 C 0.72503 0.01214 0.22778 0.0
C334 C 0.71835 0.02281 0.21311 0.0
C335 C 0.66866 0.09915 0.17457 0.0
C336 C 0.6905 0.11741 0.1832 0.0
C337 C 0.66506 0.07542 0.17155 0.0
C338 C 0.68311 0.06976 0.17746 0.0
C339 C 0.70419 0.08772 0.18699 0.0
C340 C 0.70791 0.11128 0.18973 0.0
C341 C 0.68286 0.047 0.1715 0.0
C342 C 0.68642 0.03323 0.18568 0.0
C343 C 0.68708 0.04369 0.15218 0.0
C344 C 0.68365 0.05767 0.13667 0.0
C345 C 0.70165 0.08233 0.1332 0.0
C346 C 0.69814 0.09559 0.11867 0.0
C347 C 0.67679 0.08429 0.10749 0.0
C348 C 0.65892 0.05969 0.11081 0.0
C349 C 0.66232 0.04636 0.12535 0.0
H350 H 0.6741 0.09459 0.09625 0.0
H351 H 0.72393 0.97918 0.23801 0.0
H352 H 0.8797 0.58549 0.22672 0.0
H353 H 0.90943 0.62679 0.21556 0.0
H354 H 0.92482 0.59572 0.16609 0.0
H355 H 0.8954 0.55411 0.17749 0.0
H356 H 0.96574 0.64637 0.17917 0.0
H357 H 0.8797 0.6006 0.15938 0.0
H358 H 0.83537 0.57407 0.16627 0.0
H359 H 0.83763 0.62946 0.20372 0.0
H360 H 0.88213 0.65609 0.19735 0.0
H361 H 0.9331 0.73426 0.12066 0.0
H362 H 0.92704 0.69432 0.13058 0.0
H363 H 0.97983 0.72935 0.17611 0.0
H364 H 0.98659 0.7697 0.16573 0.0
H365 H 0.90706 0.67509 0.16293 0.0
H366 H 0.0012 0.69003 0.1905 0.0
H367 H 0.04534 0.71456 0.18228 0.0
H368 H 0.02666 0.71949 0.12404 0.0
H369 H 0.98244 0.6947 0.13183 0.0
C370 C 0.89023 0.58742 0.21391 0.0
C371 C 0.88496 0.56679 0.20271 0.0
C372 C 0.90734 0.611 0.20763 0.0
C373 C 0.91891 0.61421 0.18987 0.0
C374 C 0.91607 0.59353 0.17987 0.0
C375 C 0.89916 0.5698 0.18633 0.0
C376 C 0.92795 0.6379 0.1798 0.0
C377 C 0.95307 0.65281 0.17557 0.0
C378 C 0.91117 0.6458 0.17469 0.0
C379 C 0.88425 0.63021 0.17803 0.0
C380 C 0.87076 0.60705 0.16917 0.0
C381 C 0.84562 0.59199 0.17298 0.0
C382 C 0.8337 0.60005 0.18545 0.0
C383 C 0.84689 0.62322 0.19408 0.0
C384 C 0.87207 0.6383 0.19037 0.0
C385 C 0.94374 0.73351 0.13258 0.0
C386 C 0.96002 0.75495 0.14264 0.0
C387 C 0.94033 0.7107 0.1382 0.0
C388 C 0.95286 0.70881 0.15415 0.0
C389 C 0.97017 0.73038 0.16363 0.0
C390 C 0.9739 0.75339 0.15778 0.0
C391 C 0.94514 0.68414 0.16225 0.0
C392 C 0.92 0.66888 0.16629 0.0
C393 C 0.96192 0.67591 0.16668 0.0
C394 C 0.98849 0.69071 0.16182 0.0
C395 C 0.00651 0.69628 0.17592 0.0
C396 C 0.03155 0.71024 0.17134 0.0
C397 C 0.0388 0.71865 0.15266 0.0
C398 C 0.02102 0.71305 0.13852 0.0
C399 C 0.99597 0.69909 0.14302 0.0
H400 H 0.05819 0.72945 0.14914 0.0
H401 H 0.81424 0.58836 0.1884 0.0
H402 H 0.33955 0.43564 0.8148 0.0
H403 H 0.3375 0.39653 0.8236 0.0
H404 H 0.27002 0.37462 0.85449 0.0
H405 H 0.27167 0.41296 0.84538 0.0
H406 H 0.3028 0.36076 0.87262 0.0
H407 H 0.26442 0.35911 0.80941 0.0
H408 H 0.26897 0.37512 0.77653 0.0
H409 H 0.32654 0.35841 0.76582 0.0
H410 H 0.32244 0.34253 0.79876 0.0
H411 H 0.19511 0.2541 0.87087 0.0
H412 H 0.23063 0.29458 0.86543 0.0
H413 H 0.26845 0.26167 0.83739 0.0
H414 H 0.2324 0.22043 0.84281 0.0
H415 H 0.27094 0.3029 0.81772 0.0
H416 H 0.29092 0.28618 0.87869 0.0
H417 H 0.28257 0.26972 0.91153 0.0
H418 H 0.25933 0.32119 0.92723 0.0
H419 H 0.26712 0.33771 0.89444 0.0
C420 C 0.32469 0.42265 0.82387 0.0
C421 C 0.30564 0.42703 0.82933 0.0
C422 C 0.32356 0.40044 0.82888 0.0
C423 C 0.30364 0.3828 0.83971 0.0
C424 C 0.28565 0.3881 0.84626 0.0
C425 C 0.28649 0.40989 0.84094 0.0
C426 C 0.29884 0.35734 0.84207 0.0
C427 C 0.29638 0.34804 0.86066 0.0
C428 C 0.29124 0.34095 0.82637 0.0
C429 C 0.29326 0.34984 0.8065 0.0
C430 C 0.27806 0.35891 0.80003 0.0
C431 C 0.28057 0.36797 0.78141 0.0
C432 C 0.29806 0.36782 0.76911 0.0
C433 C 0.31302 0.35854 0.77538 0.0
C434 C 0.31062 0.34951 0.79401 0.0
C435 C 0.21091 0.2553 0.86355 0.0
C436 C 0.21098 0.23404 0.85732 0.0
C437 C 0.2313 0.2785 0.86056 0.0
C438 C 0.25235 0.28106 0.85138 0.0
C439 C 0.25244 0.25998 0.84471 0.0
C440 C 0.23188 0.23653 0.84778 0.0
C441 C 0.27345 0.30621 0.8484 0.0
C442 C 0.27883 0.31546 0.8297 0.0
C443 C 0.28378 0.32256 0.86405 0.0
C444 C 0.27973 0.31327 0.88405 0.0
C445 C 0.28401 0.29399 0.88913 0.0
C446 C 0.27934 0.28462 0.90774 0.0
C447 C 0.27045 0.29442 0.92146 0.0
C448 C 0.26628 0.31367 0.9166 0.0
C449 C 0.2709 0.32309 0.89801 0.0
H450 H 0.26678 0.28709 0.93585 0.0
H451 H 0.29997 0.37487 0.75471 0.0
H452 H 0.77235 0.00465 0.84763 0.0
H453 H 0.73263 0.00244 0.84182 0.0
H454 H 0.69466 0.92806 0.86374 0.0
H455 H 0.73392 0.93013 0.86955 0.0
H456 H 0.69773 0.97185 0.81773 0.0
H457 H 0.64373 0.91467 0.88575 0.0
H458 H 0.65097 0.91626 0.92045 0.0
H459 H 0.70583 0.99291 0.91626 0.0
H460 H 0.69866 0.99195 0.88157 0.0
H461 H 0.59168 0.86556 0.8014 0.0
H462 H 0.63064 0.90059 0.81139 0.0
H463 H 0.59191 0.93246 0.83959 0.0
H464 H 0.55237 0.89707 0.82947 0.0
H465 H 0.62694 0.93178 0.86245 0.0
H466 H 0.62616 0.96344 0.80254 0.0
H467 H 0.61899 0.96377 0.76794 0.0
H468 H 0.67368 0.9433 0.75646 0.0
H469 H 0.68093 0.94242 0.79098 0.0
C470 C 0.75549 0.98796 0.8514 0.0
C471 C 0.75617 0.96746 0.85889 0.0
C472 C 0.73288 0.98678 0.84814 0.0
C473 C 0.71073 0.96526 0.85264 0.0
C474 C 0.71152 0.94508 0.86058 0.0
C475 C 0.73399 0.94616 0.86368 0.0
C476 C 0.68656 0.96214 0.84702 0.0
C477 C 0.68226 0.96359 0.82753 0.0
C478 C 0.66656 0.95253 0.85999 0.0
C479 C 0.67062 0.95322 0.88098 0.0
C480 C 0.65716 0.93195 0.89222 0.0
C481 C 0.66131 0.93272 0.9119 0.0
C482 C 0.67885 0.95467 0.92055 0.0
C483 C 0.69227 0.97591 0.90954 0.0
C484 C 0.68819 0.97525 0.88985 0.0
C485 C 0.59135 0.88003 0.80963 0.0
C486 C 0.56899 0.87853 0.81473 0.0
C487 C 0.61367 0.90021 0.81516 0.0
C488 C 0.61415 0.91933 0.82592 0.0
C489 C 0.59187 0.91799 0.83109 0.0
C490 C 0.56938 0.89779 0.82536 0.0
C491 C 0.63817 0.93923 0.833 0.0
C492 C 0.64244 0.94102 0.85275 0.0
C493 C 0.65816 0.9523 0.82032 0.0
C494 C 0.65413 0.95293 0.79943 0.0
C495 C 0.6366 0.9589 0.79266 0.0
C496 C 0.63252 0.95918 0.77304 0.0
C497 C 0.64589 0.95358 0.76001 0.0
C498 C 0.66338 0.9477 0.76657 0.0
C499 C 0.66754 0.94737 0.78617 0.0
H500 H 0.64269 0.95379 0.74483 0.0
H501 H 0.68205 0.95521 0.93579 0.0
H502 H 0.10901 0.67249 0.82977 0.0
H503 H 0.07493 0.67969 0.83769 0.0
H504 H 0.08349 0.71506 0.78299 0.0
H505 H 0.11825 0.70914 0.77566 0.0
H506 H 0.08883 0.74499 0.80942 0.0
H507 H 0.02889 0.66123 0.79682 0.0
H508 H 0.00924 0.61598 0.79886 0.0
H509 H -0.00114 0.61899 0.85923 0.0
H510 H 0.01878 0.6643 0.85762 0.0
H511 H 0.99375 0.77319 0.83142 0.0
H512 H -0.00172 0.73811 0.82132 0.0
H513 H 0.05076 0.75387 0.86663 0.0
H514 H 0.04679 0.78906 0.87644 0.0
H515 H 0.0077 0.69443 0.84104 0.0
H516 H 0.1009 0.7792 0.8407 0.0
H517 H 0.11961 0.82451 0.83989 0.0
H518 H 0.06176 0.81743 0.80283 0.0
H519 H 0.043 0.77213 0.80319 0.0
C520 C 0.10309 0.68124 0.81933 0.0
C521 C 0.11633 0.69071 0.80231 0.0
C522 C 0.08352 0.68517 0.82376 0.0
C523 C 0.07669 0.69802 0.81095 0.0
C524 C 0.08855 0.7053 0.79316 0.0
C525 C 0.10842 0.702 0.789 0.0
C526 C 0.06084 0.70804 0.8173 0.0
C527 C 0.07084 0.73365 0.81587 0.0
C528 C 0.03749 0.69349 0.82605 0.0
C529 C 0.0255 0.66622 0.82711 0.0
C530 C 0.02261 0.65228 0.81056 0.0
C531 C 0.01138 0.6266 0.81163 0.0
C532 C 0.00285 0.61462 0.82916 0.0
C533 C 0.00549 0.62829 0.84566 0.0
C534 C 0.01671 0.65398 0.84467 0.0
C535 C 0.0054 0.76844 0.8397 0.0
C536 C 0.02044 0.78405 0.85435 0.0
C537 C 0.00776 0.74827 0.83405 0.0
C538 C 0.02496 0.7436 0.84319 0.0
C539 C 0.03733 0.75718 0.85948 0.0
C540 C 0.0353 0.77746 0.86489 0.0
C541 C 0.03585 0.7309 0.83282 0.0
C542 C 0.02528 0.70522 0.83388 0.0
C543 C 0.05857 0.74514 0.82334 0.0
C544 C 0.07052 0.77237 0.82207 0.0
C545 C 0.09235 0.78737 0.83224 0.0
C546 C 0.10292 0.81302 0.83189 0.0
C547 C 0.09185 0.82384 0.82135 0.0
C548 C 0.0703 0.80903 0.81101 0.0
C549 C 0.0597 0.78338 0.81127 0.0
H550 H 0.09998 0.84369 0.82118 0.0
H551 H 0.99416 0.59474 0.82996 0.0
H552 H 0.88733 0.56307 0.47367 0.0
H553 H 0.92607 0.60292 0.4755 0.0
H554 H 0.95294 0.57282 0.51855 0.0
H555 H 0.9149 0.53334 0.51646 0.0
H556 H 0.96924 0.62313 0.52421 0.0
H557 H 0.96106 0.56413 0.47212 0.0
H558 H 0.94027 0.54152 0.44267 0.0
H559 H 0.95561 0.60943 0.41586 0.0
H560 H 0.97621 0.63235 0.44528 0.0
H561 H 0.06607 0.60455 0.52286 0.0
H562 H 0.02734 0.6037 0.51727 0.0
H563 H 0.06511 0.6703 0.48382 0.0
H564 H 0.10455 0.67159 0.48968 0.0
H565 H 0.01814 0.62537 0.46771 0.0
H566 H 0.04636 0.6813 0.51974 0.0
H567 H 0.06704 0.69811 0.55058 0.0
H568 H 0.01345 0.63213 0.57908 0.0
H569 H 0.9928 0.61471 0.54844 0.0
C570 C 0.90126 0.56541 0.48397 0.0
C571 C 0.89846 0.5453 0.49484 0.0
C572 C 0.92328 0.58808 0.48499 0.0
C573 C 0.94234 0.59075 0.49712 0.0
C574 C 0.93841 0.57123 0.5092 0.0
C575 C 0.91678 0.54862 0.50792 0.0
C576 C 0.96787 0.61141 0.49515 0.0
C577 C 0.98004 0.62437 0.51172 0.0
C578 C 0.98179 0.61351 0.47862 0.0
C579 C 0.96995 0.59988 0.46086 0.0
C580 C 0.95993 0.57419 0.45993 0.0
C581 C 0.94817 0.56133 0.44327 0.0
C582 C 0.94658 0.57402 0.42741 0.0
C583 C 0.95681 0.59962 0.42817 0.0
C584 C 0.96851 0.61255 0.44482 0.0
C585 C 0.06626 0.61902 0.51426 0.0
C586 C 0.08833 0.63811 0.50667 0.0
C587 C 0.04413 0.6186 0.51119 0.0
C588 C 0.04353 0.63712 0.50036 0.0
C589 C 0.06537 0.656 0.49235 0.0
C590 C 0.08776 0.65665 0.49567 0.0
C591 C 0.01946 0.63547 0.49728 0.0
C592 C 0.00758 0.62595 0.47978 0.0
C593 C 0.0058 0.6362 0.51309 0.0
C594 C 0.01794 0.64674 0.53173 0.0
C595 C 0.03903 0.67033 0.53257 0.0
C596 C 0.05079 0.67996 0.55004 0.0
C597 C 0.04158 0.66621 0.5668 0.0
C598 C 0.02058 0.64281 0.56612 0.0
C599 C 0.0088 0.63306 0.54869 0.0
H600 H 0.05072 0.67369 0.5803 0.0
H601 H 0.93745 0.56403 0.41454 0.0
H602 H 0.32155 0.43152 0.52215 0.0
H603 H 0.32518 0.39617 0.51085 0.0
H604 H 0.40434 0.44215 0.50989 0.0
H605 H 0.401 0.47703 0.52148 0.0
H606 H 0.37192 0.40745 0.47366 0.0
H607 H 0.39511 0.41422 0.5447 0.0
H608 H 0.38143 0.41238 0.57806 0.0
H609 H 0.31606 0.34311 0.56662 0.0
H610 H 0.32933 0.34475 0.53314 0.0
H611 H 0.47255 0.39604 0.47595 0.0
H612 H 0.43853 0.4032 0.48211 0.0
H613 H 0.39154 0.32641 0.49635 0.0
H614 H 0.42603 0.31903 0.49034 0.0
H615 H 0.38673 0.3579 0.52167 0.0
H616 H 0.37948 0.34466 0.45556 0.0
H617 H 0.39356 0.3467 0.42238 0.0
H618 H 0.42436 0.42525 0.42221 0.0
H619 H 0.41089 0.42379 0.45549 0.0
C620 C 0.33968 0.43398 0.51948 0.0
C621 C 0.36103 0.45693 0.52272 0.0
C622 C 0.34168 0.41387 0.51305 0.0
C623 C 0.365 0.41678 0.50952 0.0
C624 C 0.3862 0.43971 0.51252 0.0
C625 C 0.38426 0.45955 0.51922 0.0
C626 C 0.36825 0.39626 0.50307 0.0
C627 C 0.37462 0.39605 0.48394 0.0
C628 C 0.37076 0.38081 0.51642 0.0
C629 C 0.3631 0.37967 0.53651 0.0
C630 C 0.3778 0.39867 0.54933 0.0
C631 C 0.37012 0.39766 0.56823 0.0
C632 C 0.34787 0.37765 0.57445 0.0
C633 C 0.33327 0.3586 0.56178 0.0
C634 C 0.34085 0.35956 0.54285 0.0
C635 C 0.45504 0.38061 0.48041 0.0
C636 C 0.45191 0.35695 0.48255 0.0
C637 C 0.43553 0.38469 0.48379 0.0
C638 C 0.41235 0.36518 0.48918 0.0
C639 C 0.40923 0.3416 0.49194 0.0
C640 C 0.42892 0.33747 0.48857 0.0
C641 C 0.39209 0.37039 0.49239 0.0
C642 C 0.38266 0.36788 0.51095 0.0
C643 C 0.38633 0.38298 0.47832 0.0
C644 C 0.39405 0.38407 0.45807 0.0
C645 C 0.3893 0.36239 0.44848 0.0
C646 C 0.3972 0.36344 0.42964 0.0
C647 C 0.40982 0.38608 0.42019 0.0
C648 C 0.41452 0.40771 0.42954 0.0
C649 C 0.40668 0.40677 0.44839 0.0
H650 H 0.41597 0.38686 0.40562 0.0
H651 H 0.34195 0.3769 0.58909 0.0
H652 H 0.67667 0.11508 0.49439 0.0
H653 H 0.67479 0.07617 0.50314 0.0
H654 H 0.6156 0.03737 0.46272 0.0
H655 H 0.61739 0.07576 0.45406 0.0
H656 H 0.63531 0.03995 0.5198 0.0
H657 H 0.61206 0.98803 0.4459 0.0
H658 H 0.62919 0.99667 0.41332 0.0
H659 H 0.69956 0.05164 0.43515 0.0
H660 H 0.68302 0.04312 0.46794 0.0
H661 H 0.52666 0.93449 0.51526 0.0
H662 H 0.56438 0.97321 0.50965 0.0
H663 H 0.60496 0.93464 0.50388 0.0
H664 H 0.5667 0.8952 0.50938 0.0
H665 H 0.6166 0.97054 0.47591 0.0
H666 H 0.61555 0.96788 0.54326 0.0
H667 H 0.59652 0.95937 0.57526 0.0
H668 H 0.57553 0.01421 0.56644 0.0
H669 H 0.59401 0.02277 0.53431 0.0
C670 C 0.66371 0.09828 0.48708 0.0
C671 C 0.64692 0.09829 0.47376 0.0
C672 C 0.66273 0.07614 0.49203 0.0
C673 C 0.64528 0.05391 0.48343 0.0
C674 C 0.62961 0.05431 0.46927 0.0
C675 C 0.63039 0.07625 0.46451 0.0
C676 C 0.63979 0.02975 0.49133 0.0
C677 C 0.63184 0.02481 0.51037 0.0
C678 C 0.6361 0.01012 0.4792 0.0
C679 C 0.64627 0.01485 0.45947 0.0
C680 C 0.63127 0.00176 0.44383 0.0
C681 C 0.64087 0.00671 0.42529 0.0
C682 C 0.66545 0.02468 0.42216 0.0
C683 C 0.68051 0.03774 0.43758 0.0
C684 C 0.67102 0.03287 0.45615 0.0
C685 C 0.54354 0.9341 0.51282 0.0
C686 C 0.54374 0.91181 0.51286 0.0
C687 C 0.56515 0.9563 0.50975 0.0
C688 C 0.58755 0.95682 0.50686 0.0
C689 C 0.58787 0.93458 0.50636 0.0
C690 C 0.56605 0.91215 0.50943 0.0
C691 C 0.61004 0.98092 0.50365 0.0
C692 C 0.6212 0.98575 0.48559 0.0
C693 C 0.6168 0.00053 0.51671 0.0
C694 C 0.60633 0.99605 0.53635 0.0
C695 C 0.60688 0.97813 0.54813 0.0
C696 C 0.59614 0.97327 0.5663 0.0
C697 C 0.58485 0.98626 0.57287 0.0
C698 C 0.58436 0.00421 0.56135 0.0
C699 C 0.59503 0.00913 0.54317 0.0
H700 H 0.5764 0.9824 0.58686 0.0
H701 H 0.67282 0.02851 0.40779 0.0
H702 H 0.08267 0.11899 0.10946 0.0
H703 H 0.04217 0.11201 0.11888 0.0
H704 H 0.06414 0.12098 0.17818 0.0
H705 H 0.10538 0.12945 0.16852 0.0
H706 H 0.01098 0.07496 0.13703 0.0
H707 H 0.02395 0.13321 0.20464 0.0
H708 H 0.0542 0.17337 0.21852 0.0
H709 H 0.08079 0.202 0.16238 0.0
H710 H 0.05051 0.16214 0.14817 0.0
H711 H 0.89174 0.03292 0.17635 0.0
H712 H 0.93612 0.04716 0.17724 0.0
H713 H 0.95161 0.11612 0.1517 0.0
H714 H 0.90742 0.10152 0.15 0.0
H715 H 0.98622 0.12184 0.1798 0.0
H716 H 0.94793 0.07631 0.12329 0.0
H717 H 0.92314 0.0435 0.10013 0.0
H718 H 0.95039 0.99835 0.12357 0.0
H719 H 0.97503 0.03075 0.14714 0.0
C720 C 0.07902 0.12014 0.12445 0.0
C721 C 0.097 0.12483 0.13828 0.0
C722 C 0.05586 0.11602 0.12986 0.0
C723 C 0.04995 0.11578 0.14927 0.0
C724 C 0.0683 0.12142 0.16312 0.0
C725 C 0.09181 0.12622 0.15762 0.0
C726 C 0.02394 0.1072 0.1547 0.0
C727 C 0.00561 0.08514 0.14655 0.0
C728 C 0.0169 0.12054 0.16701 0.0
C729 C 0.03519 0.14458 0.17538 0.0
C730 C 0.03624 0.14809 0.19527 0.0
C731 C 0.05339 0.1708 0.20319 0.0
C732 C 0.06948 0.19019 0.19134 0.0
C733 C 0.06841 0.18693 0.17154 0.0
C734 C 0.05129 0.16427 0.16355 0.0
C735 C 0.90472 0.05147 0.17165 0.0
C736 C 0.89628 0.06626 0.16324 0.0
C737 C 0.93001 0.05946 0.17194 0.0
C738 C 0.94711 0.08261 0.16437 0.0
C739 C 0.93874 0.09822 0.15763 0.0
C740 C 0.91353 0.08997 0.1568 0.0
C741 C 0.97338 0.08986 0.16176 0.0
C742 C 0.99169 0.11146 0.17062 0.0
C743 C 0.98051 0.07667 0.1494 0.0
C744 C 0.96283 0.05574 0.13734 0.0
C745 C 0.94809 0.05912 0.12391 0.0
C746 C 0.93432 0.04071 0.11052 0.0
C747 C 0.93513 0.01883 0.11041 0.0
C748 C 0.94974 0.01529 0.12368 0.0
C749 C 0.96348 0.0336 0.13714 0.0
H750 H 0.92444 0.00461 0.10004 0.0
H751 H 0.08273 0.20776 0.1975 0.0
H752 H 0.91056 0.00402 0.14677 0.0
H753 H 0.91508 0.96836 0.15353 0.0
H754 H 0.83594 0.92294 0.15821 0.0
H755 H 0.83144 0.95819 0.14922 0.0
H756 H 0.90761 0.93752 0.1785 0.0
H757 H 0.81621 0.86561 0.14238 0.0
H758 H 0.78755 0.86345 0.11721 0.0
H759 H 0.84598 0.92809 0.09053 0.0
H760 H 0.87502 0.93041 0.11537 0.0
H761 H 0.91993 0.83016 0.17613 0.0
H762 H 0.90168 0.85599 0.18352 0.0
H763 H 0.89535 0.86589 0.12308 0.0
H764 H 0.91113 0.83878 0.11587 0.0
H765 H 0.85946 0.86413 0.13756 0.0
H766 H 0.94638 0.90832 0.15497 0.0
H767 H 0.98307 0.91547 0.1733 0.0
H768 H 0.94724 0.91505 0.22566 0.0
H769 H 0.9102 0.90758 0.20769 0.0
C770 C 0.89417 0.98626 0.14863 0.0
C771 C 0.87072 0.9836 0.14625 0.0
C772 C 0.89672 0.96596 0.15304 0.0
C773 C 0.8758 0.94266 0.15584 0.0
C774 C 0.85235 0.9405 0.15542 0.0
C775 C 0.8498 0.9607 0.15037 0.0
C776 C 0.87866 0.92054 0.15748 0.0
C777 C 0.897 0.92141 0.16959 0.0
C778 C 0.86503 0.89953 0.1458 0.0
C779 C 0.84764 0.89838 0.1309 0.0
C780 C 0.8229 0.87935 0.13114 0.0
C781 C 0.80662 0.87809 0.11693 0.0
C782 C 0.81492 0.89568 0.10234 0.0
C783 C 0.83955 0.91454 0.10189 0.0
C784 C 0.85592 0.91584 0.11603 0.0
C785 C 0.91407 0.83747 0.16452 0.0
C786 C 0.91731 0.83274 0.14542 0.0
C787 C 0.90389 0.85243 0.16873 0.0
C788 C 0.89755 0.8634 0.15388 0.0
C789 C 0.89992 0.8577 0.13489 0.0
C790 C 0.90927 0.8423 0.13074 0.0
C791 C 0.88966 0.88185 0.15747 0.0
C792 C 0.86991 0.88006 0.14667 0.0
C793 C 0.90327 0.90281 0.16925 0.0
C794 C 0.92541 0.90704 0.18003 0.0
C795 C 0.94627 0.90956 0.17041 0.0
C796 C 0.96713 0.91371 0.18071 0.0
C797 C 0.96746 0.91564 0.20061 0.0
C798 C 0.94693 0.91347 0.21025 0.0
C799 C 0.926 0.90927 0.20003 0.0
H800 H 0.98365 0.91889 0.20855 0.0
H801 H 0.8023 0.89461 0.09133 0.0
H802 H 0.15163 0.07208 0.12993 0.0
H803 H 0.12542 0.02911 0.13823 0.0
H804 H 0.11803 0.04971 0.19567 0.0
H805 H 0.14403 0.09347 0.18711 0.0
H806 H 0.12516 0.997 0.1619 0.0
H807 H 0.05963 0.00891 0.21 0.0
H808 H 0.04781 0.03987 0.21856 0.0
H809 H 0.06392 0.06874 0.16142 0.0
H810 H 0.07573 0.0379 0.15256 0.0
H811 H 0.02005 0.87504 0.15947 0.0
H812 H 0.05187 0.91319 0.17448 0.0
H813 H 0.0273 0.955 0.14141 0.0
H814 H 0.99547 0.91737 0.12677 0.0
H815 H 0.03853 0.97322 0.17631 0.0
H816 H 0.07568 0.94695 0.12691 0.0
H817 H 0.08756 0.91861 0.11223 0.0
H818 H 0.12762 0.9216 0.16292 0.0
H819 H 0.1157 0.94977 0.17797 0.0
C820 C 0.14468 0.06758 0.14441 0.0
C821 C 0.14956 0.08616 0.15779 0.0
C822 C 0.12985 0.0429 0.14921 0.0
C823 C 0.1196 0.03611 0.16754 0.0
C824 C 0.12556 0.05455 0.18137 0.0
C825 C 0.1404 0.07949 0.17649 0.0
C826 C 0.10072 0.00995 0.17089 0.0
C827 C 0.1063 0.99168 0.16556 0.0
C828 C 0.07612 0.00297 0.17563 0.0
C829 C 0.06877 0.02132 0.18072 0.0
C830 C 0.06059 0.02186 0.19929 0.0
C831 C 0.05393 0.03939 0.20419 0.0
C832 C 0.05521 0.05633 0.19057 0.0
C833 C 0.06305 0.0557 0.17199 0.0
C834 C 0.06973 0.03821 0.16702 0.0
C835 C 0.02137 0.89237 0.1555 0.0
C836 C 0.00536 0.89313 0.14174 0.0
C837 C 0.03949 0.91412 0.16414 0.0
C838 C 0.042 0.93696 0.15904 0.0
C839 C 0.02561 0.9376 0.14571 0.0
C840 C 0.00752 0.916 0.13718 0.0
C841 C 0.06278 0.96062 0.16602 0.0
C842 C 0.05755 0.97829 0.17356 0.0
C843 C 0.08761 0.96726 0.16256 0.0
C844 C 0.09446 0.95008 0.15367 0.0
C845 C 0.08681 0.94135 0.13498 0.0
C846 C 0.09359 0.92537 0.12659 0.0
C847 C 0.10824 0.91821 0.13667 0.0
C848 C 0.11619 0.92708 0.15516 0.0
C849 C 0.10941 0.94303 0.16364 0.0
H850 H 0.11351 0.90587 0.13014 0.0
H851 H 0.05007 0.0699 0.19439 0.0
H852 H 0.05037 0.89501 0.81051 0.0
H853 H 0.06797 0.93835 0.80115 0.0
H854 H 0.12054 0.95995 0.8473 0.0
H855 H 0.10336 0.91702 0.85636 0.0
H856 H 0.06306 0.96787 0.82381 0.0
H857 H 0.16827 0.01473 0.84311 0.0
H858 H 0.20303 0.00795 0.83634 0.0
H859 H 0.16629 0.96694 0.78592 0.0
H860 H 0.13145 0.97376 0.79219 0.0
H861 H 0.10173 0.06842 0.88208 0.0
H862 H 0.09398 0.03093 0.86595 0.0
H863 H 0.14127 0.07388 0.81948 0.0
H864 H 0.14966 0.112 0.83594 0.0
H865 H 0.14913 0.03726 0.82821 0.0
H866 H 0.07779 0.04222 0.81434 0.0
H867 H 0.04175 0.04734 0.81986 0.0
H868 H 0.00962 0.98384 0.85641 0.0
H869 H 0.04558 0.97847 0.85144 0.0
C870 C 0.06642 0.90898 0.81804 0.0
C871 C 0.07545 0.90281 0.83423 0.0
C872 C 0.07639 0.93373 0.81275 0.0
C873 C 0.09563 0.95249 0.82348 0.0
C874 C 0.10606 0.94594 0.83852 0.0
C875 C 0.09608 0.92134 0.84382 0.0
C876 C 0.10142 0.97849 0.82196 0.0
C877 C 0.08188 0.98312 0.8244 0.0
C878 C 0.12595 0.99848 0.82219 0.0
C879 C 0.14718 0.99478 0.81814 0.0
C880 C 0.16767 0.00448 0.83046 0.0
C881 C 0.18738 0.00056 0.82675 0.0
C882 C 0.18686 0.98702 0.81072 0.0
C883 C 0.16665 0.9774 0.79835 0.0
C884 C 0.1469 0.98125 0.802 0.0
C885 C 0.11054 0.07003 0.86842 0.0
C886 C 0.12617 0.09325 0.86022 0.0
C887 C 0.10592 0.0485 0.85912 0.0
C888 C 0.11642 0.04952 0.84121 0.0
C889 C 0.1327 0.07266 0.83318 0.0
C890 C 0.13755 0.0944 0.84262 0.0
C891 C 0.11077 0.02617 0.83153 0.0
C892 C 0.13032 0.02214 0.82699 0.0
C893 C 0.08616 0.00665 0.82924 0.0
C894 C 0.06455 0.01003 0.83255 0.0
C895 C 0.06318 0.02947 0.8237 0.0
C896 C 0.04275 0.03242 0.82674 0.0
C897 C 0.02349 0.01603 0.83854 0.0
C898 C 0.02458 0.99658 0.84731 0.0
C899 C 0.04499 0.99355 0.84437 0.0
H900 H 0.00771 0.01839 0.84084 0.0
H901 H 0.20212 0.98399 0.80788 0.0
H902 H 0.08033 0.13217 0.88404 0.0
H903 H 0.03681 0.11144 0.87673 0.0
H904 H 0.0526 0.14891 0.82229 0.0
H905 H 0.097 0.16851 0.82913 0.0
H906 H 0.00654 0.12585 0.87232 0.0
H907 H 0.00185 0.11227 0.79178 0.0
H908 H 0.02716 0.11217 0.76479 0.0
H909 H 0.06482 0.08746 0.80212 0.0
H910 H 0.03931 0.08686 0.82924 0.0
H911 H 0.88076 0.0437 0.86139 0.0
H912 H 0.91938 0.08002 0.85137 0.0
H913 H 0.94992 0.03339 0.83824 0.0
H914 H 0.9111 0.99718 0.8473 0.0
H915 H 0.97033 0.07158 0.81589 0.0
H916 H 0.95386 0.05805 0.88429 0.0
H917 H 0.92991 0.05335 0.91355 0.0
H918 H 0.93807 0.12488 0.90441 0.0
H919 H 0.96185 0.12983 0.87495 0.0
C920 C 0.07468 0.13597 0.87046 0.0
C921 C 0.09207 0.1518 0.8571 0.0
C922 C 0.04966 0.12423 0.86632 0.0
C923 C 0.04125 0.12854 0.84894 0.0
C924 C 0.05858 0.14495 0.83568 0.0
C925 C 0.08389 0.15619 0.83961 0.0
C926 C 0.01429 0.11501 0.84513 0.0
C927 C -0.00134 0.11429 0.8598 0.0
C928 C 0.00379 0.10013 0.82871 0.0
C929 C 0.01895 0.0999 0.81255 0.0
C930 C 0.01548 0.10674 0.79419 0.0
C931 C 0.02981 0.10675 0.77888 0.0
C932 C 0.04762 0.09986 0.78176 0.0
C933 C 0.05102 0.0928 0.79993 0.0
C934 C 0.03661 0.09259 0.81527 0.0
C935 C 0.89558 0.04122 0.85599 0.0
C936 C 0.89348 0.01782 0.85596 0.0
C937 C 0.9176 0.06195 0.85025 0.0
C938 C 0.93783 0.05951 0.84465 0.0
C939 C 0.93474 0.03583 0.84279 0.0
C940 C 0.91274 0.01518 0.84834 0.0
C941 C 0.96311 0.08114 0.84377 0.0
C942 C 0.97824 0.08372 0.8281 0.0
C943 C 0.97346 0.09703 0.85966 0.0
C944 C 0.95928 0.09416 0.87734 0.0
C945 C 0.9504 0.0727 0.88849 0.0
C946 C 0.93688 0.06999 0.9051 0.0
C947 C 0.93239 0.08877 0.9108 0.0
C948 C 0.94149 0.11032 0.89994 0.0
C949 C 0.95498 0.11309 0.88329 0.0
H950 H 0.92192 0.08665 0.92366 0.0
H951 H 0.05875 0.09996 0.7699 0.0
H952 H 0.96334 0.85367 0.85431 0.0
H953 H 0.93154 0.86336 0.845 0.0
H954 H 0.98792 0.93678 0.82877 0.0
H955 H 0.01968 0.92747 0.83882 0.0
H956 H 0.9581 0.94003 0.85106 0.0
H957 H 0.94609 0.89139 0.79557 0.0
H958 H 0.93919 0.85514 0.77685 0.0
H959 H 0.87001 0.81064 0.80533 0.0
H960 H 0.87664 0.84651 0.82444 0.0
H961 H 0.86334 0.96799 0.82523 0.0
H962 H 0.89653 0.9587 0.81915 0.0
H963 H 0.85699 0.89144 0.85159 0.0
H964 H 0.82449 0.90119 0.8584 0.0
H965 H 0.8802 0.88823 0.81584 0.0
H966 H 0.89587 0.93493 0.87428 0.0
H967 H 0.90584 0.96927 0.8964 0.0
H968 H 0.97036 0.01663 0.86352 0.0
H969 H 0.96047 0.98269 0.84094 0.0
C970 C 0.96891 0.87172 0.84844 0.0
C971 C 0.99395 0.88991 0.84754 0.0
C972 C 0.95071 0.8772 0.84295 0.0
C973 C 0.95725 0.90078 0.83601 0.0
C974 C 0.98235 0.91848 0.83411 0.0
C975 C 0.0005 0.91317 0.83992 0.0
C976 C 0.93816 0.908 0.83321 0.0
C977 C 0.94141 0.92908 0.84283 0.0
C978 C 0.916 0.89333 0.82297 0.0
C979 C 0.91196 0.87165 0.81154 0.0
C980 C 0.9295 0.87383 0.79796 0.0
C981 C 0.92561 0.85335 0.78725 0.0
C982 C 0.9042 0.83059 0.78992 0.0
C983 C 0.8866 0.82828 0.80328 0.0
C984 C 0.89039 0.84869 0.81403 0.0
C985 C 0.8614 0.95084 0.8305 0.0
C986 C 0.84133 0.93516 0.84216 0.0
C987 C 0.88046 0.94571 0.82721 0.0
C988 C 0.87924 0.9245 0.83508 0.0
C989 C 0.85825 0.9079 0.84543 0.0
C990 C 0.83965 0.91339 0.8492 0.0
C991 C 0.90033 0.92014 0.83372 0.0
C992 C 0.89732 0.89955 0.82347 0.0
C993 C 0.92281 0.93527 0.84338 0.0
C994 C 0.92705 0.95639 0.85562 0.0
C995 C 0.91179 0.95283 0.87144 0.0
C996 C 0.91759 0.97217 0.88419 0.0
C997 C 0.93865 0.99515 0.88133 0.0
C998 C 0.954 -0.00115 0.8657 0.0
C999 C 0.94823 0.97961 0.85286 0.0
H1000 H 0.94308 0.01009 0.89121 0.0
H1001 H 0.90123 0.81476 0.78161 0.0
H1002 H 0.77993 0.47014 0.49559 0.0
H1003 H 0.73766 0.46052 0.50179 0.0
H1004 H 0.71053 0.3977 0.46412 0.0
H1005 H 0.75268 0.40659 0.45855 0.0
H1006 H 0.70286 0.45884 0.48158 0.0
H1007 H 0.65692 0.35185 0.47778 0.0
H1008 H 0.66861 0.32044 0.48454 0.0
H1009 H 0.72208 0.36873 0.5255 0.0
H1010 H 0.71051 0.40022 0.51918 0.0
H1011 H 0.58011 0.39938 0.45312 0.0
H1012 H 0.62384 0.41549 0.45894 0.0
H1013 H 0.60769 0.38576 0.51612 0.0
H1014 H 0.56346 0.36933 0.5103 0.0
H1015 H 0.63785 0.37349 0.49766 0.0
H1016 H 0.63753 0.44701 0.51067 0.0
H1017 H 0.6277 0.48021 0.50636 0.0
H1018 H 0.66798 0.50112 0.45356 0.0
H1019 H 0.67776 0.4678 0.45739 0.0
C1020 C 0.76495 0.45432 0.48857 0.0
C1021 C 0.7696 0.43905 0.47663 0.0
C1022 C 0.74079 0.44884 0.49215 0.0
C1023 C 0.72086 0.42812 0.48373 0.0
C1024 C 0.72555 0.41338 0.47124 0.0
C1025 C 0.74966 0.41857 0.46794 0.0
C1026 C 0.69514 0.42196 0.48782 0.0
C1027 C 0.68868 0.44023 0.48522 0.0
C1028 C 0.67677 0.3979 0.49332 0.0
C1029 C 0.6829 0.37845 0.49793 0.0
C1030 C 0.67097 0.35563 0.4884 0.0
C1031 C 0.67761 0.3378 0.49215 0.0
C1032 C 0.69603 0.34248 0.50551 0.0
C1033 C 0.70778 0.365 0.5152 0.0
C1034 C 0.7012 0.38287 0.51153 0.0
C1035 C 0.58584 0.39652 0.46703 0.0
C1036 C 0.56841 0.38308 0.48125 0.0
C1037 C 0.61087 0.40587 0.47038 0.0
C1038 C 0.61904 0.40202 0.48802 0.0
C1039 C 0.60173 0.38901 0.50244 0.0
C1040 C 0.57655 0.37975 0.49913 0.0
C1041 C 0.64549 0.41012 0.49054 0.0
C1042 C 0.65211 0.39221 0.49438 0.0
C1043 C 0.6641 0.43469 0.48674 0.0
C1044 C 0.65827 0.45478 0.48429 0.0
C1045 C 0.64414 0.45856 0.49806 0.0
C1046 C 0.6386 0.47742 0.49572 0.0
C1047 C 0.64719 0.49274 0.47969 0.0
C1048 C 0.66135 0.48924 0.46598 0.0
C1049 C 0.66693 0.47038 0.46824 0.0
H1050 H 0.64289 0.50734 0.4779 0.0
H1051 H 0.70122 0.3287 0.50834 0.0
H1052 H 0.53927 0.28239 0.44686 0.0
H1053 H 0.54308 0.24898 0.46145 0.0
H1054 H 0.51575 0.26019 0.51482 0.0
H1055 H 0.51106 0.29331 0.50006 0.0
H1056 H 0.56968 0.26217 0.50891 0.0
H1057 H 0.48162 0.21275 0.50789 0.0
H1058 H 0.44042 0.19683 0.4936 0.0
H1059 H 0.46058 0.16581 0.44706 0.0
H1060 H 0.50204 0.18189 0.46092 0.0
H1061 H 0.6013 0.16477 0.51477 0.0
H1062 H 0.57711 0.1837 0.5254 0.0
H1063 H 0.5587 0.18861 0.46676 0.0
H1064 H 0.58152 0.1689 0.45626 0.0
H1065 H 0.51901 0.17377 0.49181 0.0
H1066 H 0.60834 0.25816 0.48706 0.0
H1067 H 0.65186 0.27876 0.49713 0.0
H1068 H 0.63048 0.24257 0.5516 0.0
H1069 H 0.58664 0.22246 0.54205 0.0
C1070 C 0.53367 0.27747 0.4616 0.0
C1071 C 0.52484 0.29035 0.47234 0.0
C1072 C 0.5358 0.2584 0.46989 0.0
C1073 C 0.52958 0.25217 0.48913 0.0
C1074 C 0.5204 0.26468 0.49989 0.0
C1075 C 0.51769 0.28346 0.49144 0.0
C1076 C 0.53486 0.23388 0.49786 0.0
C1077 C 0.55822 0.24261 0.50596 0.0
C1078 C 0.51994 0.20854 0.49379 0.0
C1079 C 0.49497 0.1986 0.48543 0.0
C1080 C 0.47733 0.20269 0.49454 0.0
C1081 C 0.45391 0.1936 0.48653 0.0
C1082 C 0.44789 0.18033 0.46943 0.0
C1083 C 0.46526 0.17608 0.46032 0.0
C1084 C 0.48871 0.18513 0.46827 0.0
C1085 C 0.59176 0.16961 0.50424 0.0
C1086 C 0.59351 0.1656 0.48467 0.0
C1087 C 0.5782 0.18066 0.5103 0.0
C1088 C 0.56654 0.18805 0.49683 0.0
C1089 C 0.56755 0.18309 0.47742 0.0
C1090 C 0.58075 0.17191 0.47142 0.0
C1091 C 0.55431 0.20225 0.50208 0.0
C1092 C 0.52978 0.19292 0.49617 0.0
C1093 C 0.56822 0.22711 0.50803 0.0
C1094 C 0.59439 0.23843 0.51371 0.0
C1095 C 0.61298 0.25452 0.50114 0.0
C1096 C 0.63767 0.26619 0.50679 0.0
C1097 C 0.64402 0.26175 0.5249 0.0
C1098 C 0.62558 0.24584 0.53751 0.0
C1099 C 0.6008 0.23437 0.53202 0.0
H1100 H 0.66319 0.27076 0.52919 0.0
H1101 H 0.42975 0.17332 0.46324 0.0
H1102 H 0.79582 0.42918 0.51836 0.0
H1103 H 0.76759 0.38494 0.52209 0.0
H1104 H 0.82688 0.37096 0.50912 0.0
H1105 H 0.85465 0.41508 0.50424 0.0
H1106 H 0.7932 0.34806 0.48546 0.0
H1107 H 0.79398 0.35512 0.55203 0.0
H1108 H 0.79189 0.37043 0.58395 0.0
H1109 H 0.71551 0.34724 0.57518 0.0
H1110 H 0.71712 0.33204 0.54313 0.0
H1111 H 0.70583 0.21843 0.48532 0.0
H1112 H 0.73816 0.2567 0.49965 0.0
H1113 H 0.69476 0.29137 0.48928 0.0
H1114 H 0.66243 0.25341 0.47465 0.0
H1115 H 0.72269 0.2995 0.52898 0.0
H1116 H 0.73043 0.30463 0.45841 0.0
H1117 H 0.73388 0.28777 0.42745 0.0
H1118 H 0.79742 0.28553 0.44779 0.0
H1119 H 0.79408 0.30207 0.47898 0.0
C1120 C 0.803 0.41669 0.51712 0.0
C1121 C 0.8273 0.42534 0.51099 0.0
C1122 C 0.78685 0.39136 0.51926 0.0
C1123 C 0.79501 0.37449 0.51577 0.0
C1124 C 0.82007 0.38355 0.51172 0.0
C1125 C 0.83598 0.40874 0.50906 0.0
C1126 C 0.7769 0.34794 0.51273 0.0
C1127 C 0.77823 0.33742 0.49535 0.0
C1128 C 0.75703 0.33388 0.52541 0.0
C1129 C 0.75586 0.34293 0.54484 0.0
C1130 C 0.7768 0.35359 0.55673 0.0
C1131 C 0.77567 0.36216 0.57493 0.0
C1132 C 0.75363 0.35997 0.58154 0.0
C1133 C 0.73262 0.34905 0.57001 0.0
C1134 C 0.73364 0.34043 0.5518 0.0
C1135 C 0.70297 0.23407 0.48629 0.0
C1136 C 0.68157 0.23291 0.47875 0.0
C1137 C 0.72139 0.25583 0.49459 0.0
C1138 C 0.71853 0.27659 0.49573 0.0
C1139 C 0.69693 0.27529 0.48884 0.0
C1140 C 0.67866 0.25368 0.48031 0.0
C1141 C 0.73923 0.30056 0.50186 0.0
C1142 C 0.73819 0.31039 0.5196 0.0
C1143 C 0.75971 0.31396 0.48982 0.0
C1144 C 0.76182 0.30425 0.47105 0.0
C1145 C 0.74498 0.30031 0.45632 0.0
C1146 C 0.74695 0.29087 0.43873 0.0
C1147 C 0.76581 0.2855 0.43568 0.0
C1148 C 0.78279 0.28964 0.45019 0.0
C1149 C 0.78087 0.29905 0.46782 0.0
H1150 H 0.76731 0.27819 0.42205 0.0
H1151 H 0.7528 0.36661 0.59564 0.0
H1152 H 0.78031 0.24883 0.17193 0.0
H1153 H 0.79609 0.29295 0.16756 0.0
H1154 H 0.72379 0.27757 0.14967 0.0
H1155 H 0.7086 0.23334 0.15252 0.0
H1156 H 0.75571 0.31855 0.13404 0.0
H1157 H 0.74208 0.29002 0.19954 0.0
H1158 H 0.74615 0.26937 0.22827 0.0
H1159 H 0.82493 0.31499 0.2258 0.0
H1160 H 0.82124 0.33613 0.19725 0.0
H1161 H 0.74894 0.41476 0.1844 0.0
H1162 H 0.74474 0.37704 0.17052 0.0
H1163 H 0.82301 0.40619 0.17657 0.0
H1164 H 0.82747 0.44413 0.19034 0.0
H1165 H 0.79289 0.36098 0.19522 0.0
H1166 H 0.8006 0.39662 0.13314 0.0
H1167 H 0.79062 0.41736 0.10762 0.0
H1168 H 0.71601 0.35714 0.10619 0.0
H1169 H 0.72544 0.33617 0.13189 0.0
C1170 C 0.76817 0.25489 0.16618 0.0
C1171 C 0.7433 0.23784 0.16259 0.0
C1172 C 0.77705 0.28009 0.16397 0.0
C1173 C 0.76089 0.28867 0.15905 0.0
C1174 C 0.73661 0.27149 0.15363 0.0
C1175 C 0.72794 0.24617 0.15517 0.0
C1176 C 0.76836 0.31503 0.16189 0.0
C1177 C 0.7638 0.32782 0.14742 0.0
C1178 C 0.779 0.32729 0.17932 0.0
C1179 C 0.7814 0.31432 0.19616 0.0
C1180 C 0.76025 0.29545 0.20506 0.0
C1181 C 0.76249 0.28375 0.22133 0.0
C1182 C 0.78579 0.29069 0.22873 0.0
C1183 C 0.8069 0.30954 0.22 0.0
C1184 C 0.80475 0.32147 0.20383 0.0
C1185 C 0.76534 0.41332 0.18251 0.0
C1186 C 0.78851 0.4323 0.18871 0.0
C1187 C 0.76293 0.39185 0.1744 0.0
C1188 C 0.78359 0.38891 0.17245 0.0
C1189 C 0.80689 0.40822 0.17786 0.0
C1190 C 0.80938 0.42985 0.18575 0.0
C1191 C 0.78026 0.36448 0.16743 0.0
C1192 C 0.78539 0.35195 0.18163 0.0
C1193 C 0.76942 0.35237 0.15005 0.0
C1194 C 0.76371 0.36489 0.13454 0.0
C1195 C 0.78201 0.38788 0.12749 0.0
C1196 C 0.77647 0.39966 0.11297 0.0
C1197 C 0.75269 0.38859 0.10531 0.0
C1198 C 0.73442 0.36569 0.11214 0.0
C1199 C 0.73987 0.35383 0.12666 0.0
H1200 H 0.74843 0.39774 0.09407 0.0
H1201 H 0.78747 0.28157 0.2413 0.0
H1202 H 0.77302 0.48552 0.16061 0.0
H1203 H 0.72959 0.46659 0.15075 0.0
H1204 H 0.71432 0.49733 0.20057 0.0
H1205 H 0.75721 0.51576 0.21047 0.0
H1206 H 0.6944 0.43175 0.17346 0.0
H1207 H 0.66689 0.50569 0.1939 0.0
H1208 H 0.68276 0.55001 0.18859 0.0
H1209 H 0.72186 0.54818 0.13882 0.0
H1210 H 0.70592 0.50375 0.14362 0.0
H1211 H 0.59324 0.3836 0.22849 0.0
H1212 H 0.63212 0.41688 0.21618 0.0
H1213 H 0.59631 0.4172 0.16365 0.0
H1214 H 0.55698 0.38392 0.176 0.0
H1215 H 0.63837 0.46625 0.17741 0.0
H1216 H 0.61718 0.38342 0.1619 0.0
H1217 H 0.59937 0.33991 0.17145 0.0
H1218 H 0.65873 0.35998 0.21111 0.0
H1219 H 0.67622 0.40376 0.20255 0.0
C1220 C 0.76048 0.4889 0.16901 0.0
C1221 C 0.76824 0.50194 0.18631 0.0
C1222 C 0.73575 0.47808 0.16341 0.0
C1223 C 0.71877 0.48073 0.17484 0.0
C1224 C 0.72712 0.4954 0.19132 0.0
C1225 C 0.75159 0.50577 0.19706 0.0
C1226 C 0.69186 0.4648 0.17203 0.0
C1227 C 0.6821 0.43925 0.17373 0.0
C1228 C 0.67579 0.47458 0.17223 0.0
C1229 C 0.68518 0.5013 0.16915 0.0
C1230 C 0.67868 0.51465 0.18172 0.0
C1231 C 0.68775 0.53983 0.17882 0.0
C1232 C 0.70332 0.55191 0.16339 0.0
C1233 C 0.70983 0.53882 0.1508 0.0
C1234 C 0.70082 0.51363 0.15362 0.0
C1235 C 0.59343 0.3912 0.21454 0.0
C1236 C 0.57221 0.38086 0.20306 0.0
C1237 C 0.61562 0.41028 0.20757 0.0
C1238 C 0.61704 0.41907 0.18891 0.0
C1239 C 0.59547 0.41056 0.17808 0.0
C1240 C 0.57308 0.39152 0.18515 0.0
C1241 C 0.64156 0.43378 0.18003 0.0
C1242 C 0.65065 0.45881 0.17622 0.0
C1243 C 0.65709 0.42356 0.1778 0.0
C1244 C 0.64794 0.39699 0.18166 0.0
C1245 C 0.62637 0.37861 0.17276 0.0
C1246 C 0.61618 0.35391 0.17814 0.0
C1247 C 0.62782 0.34723 0.192 0.0
C1248 C 0.6497 0.36521 0.20044 0.0
C1249 C 0.65971 0.39 0.19537 0.0
H1250 H 0.62004 0.3281 0.19605 0.0
H1251 H 0.71033 0.57141 0.16118 0.0
H1252 H 0.5526 0.30168 0.20896 0.0
H1253 H 0.58081 0.28699 0.20089 0.0
H1254 H 0.54626 0.26339 0.1457 0.0
H1255 H 0.51896 0.27998 0.15322 0.0
H1256 H 0.55643 0.23162 0.18596 0.0
H1257 H 0.58363 0.2846 0.12984 0.0
H1258 H 0.59852 0.32349 0.11218 0.0
H1259 H 0.6626 0.3584 0.14811 0.0
H1260 H 0.64746 0.32 0.16658 0.0
H1261 H 0.64492 0.19151 0.17762 0.0
H1262 H 0.61364 0.20206 0.16851 0.0
H1263 H 0.65982 0.27586 0.19001 0.0
H1264 H 0.69134 0.26572 0.19874 0.0
H1265 H 0.63976 0.27717 0.15705 0.0
H1266 H 0.61103 0.23047 0.21609 0.0
H1267 H 0.59797 0.19394 0.23657 0.0
H1268 H 0.54009 0.14969 0.19698 0.0
H1269 H 0.55304 0.18595 0.17614 0.0
C1270 C 0.55138 0.29399 0.19491 0.0
C1271 C 0.53374 0.29216 0.18165 0.0
C1272 C 0.56763 0.28572 0.19027 0.0
C1273 C 0.56624 0.27491 0.17245 0.0
C1274 C 0.54843 0.27272 0.15918 0.0
C1275 C 0.53267 0.28189 0.16358 0.0
C1276 C 0.58149 0.2633 0.16935 0.0
C1277 C 0.57439 0.24117 0.17912 0.0
C1278 C 0.60511 0.27617 0.16081 0.0
C1279 C 0.61383 0.29958 0.15011 0.0
C1280 C 0.60041 0.30076 0.13445 0.0
C1281 C 0.60904 0.3227 0.12416 0.0
C1282 C 0.63138 0.34349 0.12913 0.0
C1283 C 0.64523 0.34232 0.14431 0.0
C1284 C 0.63655 0.32049 0.15476 0.0
C1285 C 0.64841 0.20998 0.18046 0.0
C1286 C 0.67056 0.22769 0.18911 0.0
C1287 C 0.63051 0.21598 0.17521 0.0
C1288 C 0.63432 0.2397 0.17869 0.0
C1289 C 0.65652 0.25746 0.18711 0.0
C1290 C 0.67446 0.25156 0.19224 0.0
C1291 C 0.61502 0.24608 0.1743 0.0
C1292 C 0.62147 0.26719 0.16329 0.0
C1293 C 0.59094 0.23258 0.18197 0.0
C1294 C 0.58321 0.21081 0.19445 0.0
C1295 C 0.59566 0.2129 0.21168 0.0
C1296 C 0.58825 0.19226 0.22336 0.0
C1297 C 0.56827 0.16948 0.21804 0.0
C1298 C 0.55561 0.16733 0.20105 0.0
C1299 C 0.56297 0.18791 0.1893 0.0
H1300 H 0.56255 0.15353 0.22711 0.0
H1301 H 0.63805 0.36044 0.12113 0.0
H1302 H 0.23048 0.72377 0.84017 0.0
H1303 H 0.27425 0.74668 0.84937 0.0
H1304 H 0.29314 0.77775 0.79264 0.0
H1305 H 0.25 0.75563 0.78367 0.0
H1306 H 0.30921 0.74041 0.83575 0.0
H1307 H 0.34262 0.83061 0.78972 0.0
H1308 H 0.32935 0.86098 0.78372 0.0
H1309 H 0.28856 0.84066 0.83629 0.0
H1310 H 0.30188 0.81043 0.8428 0.0
H1311 H 0.40696 0.76849 0.77951 0.0
H1312 H 0.3691 0.76494 0.79203 0.0
H1313 H 0.41085 0.82347 0.83219 0.0
H1314 H 0.44927 0.8275 0.81955 0.0
H1315 H 0.36906 0.82457 0.81271 0.0
H1316 H 0.37991 0.77126 0.85715 0.0
H1317 H 0.39562 0.74291 0.86408 0.0
H1318 H 0.35044 0.69479 0.81919 0.0
H1319 H 0.33435 0.72272 0.81227 0.0
C1320 C 0.24401 0.73598 0.82987 0.0
C1321 C 0.23689 0.73785 0.81118 0.0
C1322 C 0.26896 0.74903 0.83512 0.0
C1323 C 0.28701 0.76428 0.82181 0.0
C1324 C 0.27963 0.76672 0.80339 0.0
C1325 C 0.25489 0.75377 0.79817 0.0
C1326 C 0.31374 0.77511 0.82582 0.0
C1327 C 0.32224 0.75911 0.83134 0.0
C1328 C 0.33106 0.79971 0.82053 0.0
C1329 C 0.32329 0.81819 0.81675 0.0
C1330 C 0.33103 0.83276 0.80011 0.0
C1331 C 0.32343 0.84992 0.79659 0.0
C1332 C 0.30812 0.85274 0.80961 0.0
C1333 C 0.30039 0.83843 0.82619 0.0
C1334 C 0.30793 0.82125 0.8298 0.0
C1335 C 0.40825 0.78077 0.79092 0.0
C1336 C 0.43118 0.79813 0.79862 0.0
C1337 C 0.38657 0.77869 0.79807 0.0
C1338 C 0.38725 0.7937 0.8132 0.0
C1339 C 0.41003 0.81168 0.82055 0.0
C1340 C 0.4319 0.81389 0.81331 0.0
C1341 C 0.36371 0.78934 0.82146 0.0
C1342 C 0.35594 0.80644 0.81815 0.0
C1343 C 0.34717 0.76622 0.82949 0.0
C1344 C 0.3555 0.74863 0.8345 0.0
C1345 C 0.37308 0.75439 0.84899 0.0
C1346 C 0.38208 0.73843 0.85291 0.0
C1347 C 0.37379 0.71683 0.84226 0.0
C1348 C 0.35648 0.71117 0.82771 0.0
C1349 C 0.34726 0.72693 0.82389 0.0
H1350 H 0.38092 0.70459 0.84518 0.0
H1351 H 0.30225 0.86602 0.80684 0.0
H1352 H 0.29339 0.5296 0.84757 0.0
H1353 H 0.27902 0.55943 0.85084 0.0
H1354 H 0.21862 0.5157 0.81252 0.0
H1355 H 0.23278 0.48609 0.80933 0.0
H1356 H 0.27811 0.58646 0.82222 0.0
H1357 H 0.17067 0.52315 0.81989 0.0
H1358 H 0.13896 0.48425 0.83447 0.0
H1359 H 0.18775 0.49448 0.88109 0.0
H1360 H 0.21963 0.53362 0.86697 0.0
H1361 H 0.22772 0.64404 0.77012 0.0
H1362 H 0.23611 0.61275 0.78302 0.0
H1363 H 0.20159 0.6133 0.83624 0.0
H1364 H 0.19196 0.64375 0.82294 0.0
H1365 H 0.19177 0.56839 0.82904 0.0
H1366 H 0.26427 0.6467 0.82945 0.0
H1367 H 0.29439 0.68611 0.81483 0.0
H1368 H 0.31772 0.64813 0.77658 0.0
H1369 H 0.2868 0.60828 0.79036 0.0
C1370 C 0.27657 0.52599 0.84042 0.0
C1371 C 0.26411 0.50557 0.82823 0.0
C1372 C 0.26847 0.54309 0.84219 0.0
C1373 C 0.24762 0.5397 0.83205 0.0
C1374 C 0.23445 0.51851 0.82078 0.0
C1375 C 0.24263 0.50164 0.81888 0.0
C1376 C 0.2413 0.55955 0.8309 0.0
C1377 C 0.25932 0.58266 0.82401 0.0
C1378 C 0.21688 0.55473 0.83359 0.0
C1379 C 0.19761 0.53132 0.8423 0.0
C1380 C 0.17459 0.51722 0.83332 0.0
C1381 C 0.15659 0.49508 0.84149 0.0
C1382 C 0.16135 0.48688 0.85868 0.0
C1383 C 0.18411 0.50082 0.86775 0.0
C1384 C 0.20216 0.52296 0.85965 0.0
C1385 C 0.22167 0.63726 0.78449 0.0
C1386 C 0.20942 0.64646 0.79561 0.0
C1387 C 0.22656 0.61947 0.79189 0.0
C1388 C 0.22015 0.61121 0.81082 0.0
C1389 C 0.20689 0.61954 0.82167 0.0
C1390 C 0.20142 0.63693 0.81407 0.0
C1391 C 0.2283 0.59473 0.81937 0.0
C1392 C 0.21066 0.57238 0.82768 0.0
C1393 C 0.25322 0.60041 0.81835 0.0
C1394 C 0.27299 0.62443 0.81084 0.0
C1395 C 0.27571 0.64671 0.81785 0.0
C1396 C 0.29288 0.66915 0.80963 0.0
C1397 C 0.30793 0.66965 0.7947 0.0
C1398 C 0.30595 0.6477 0.78806 0.0
C1399 C 0.28853 0.62515 0.79604 0.0
H1400 H 0.32121 0.68704 0.78833 0.0
H1401 H 0.1474 0.46973 0.86497 0.0
H1402 H 0.47689 0.76351 0.84206 0.0
H1403 H 0.45118 0.71893 0.84801 0.0
H1404 H 0.46138 0.7044 0.78943 0.0
H1405 H 0.48728 0.74822 0.78366 0.0
H1406 H 0.40873 0.68622 0.83372 0.0
H1407 H 0.46177 0.65326 0.78328 0.0
H1408 H 0.50489 0.66579 0.77567 0.0
H1409 H 0.52848 0.70365 0.82938 0.0
H1410 H 0.48547 0.69105 0.83747 0.0
H1411 H 0.32804 0.57815 0.78779 0.0
H1412 H 0.36119 0.61913 0.79639 0.0
H1413 H 0.39819 0.58708 0.82689 0.0
H1414 H 0.36526 0.54584 0.818 0.0
H1415 H 0.43069 0.62592 0.80786 0.0
H1416 H 0.36881 0.61054 0.85211 0.0
H1417 H 0.32652 0.59601 0.86358 0.0
H1418 H 0.32346 0.65235 0.83092 0.0
H1419 H 0.36541 0.66657 0.81855 0.0
C1420 C 0.47394 0.75069 0.83061 0.0
C1421 C 0.48416 0.75935 0.81242 0.0
C1422 C 0.45919 0.72528 0.83398 0.0
C1423 C 0.45465 0.70825 0.81925 0.0
C1424 C 0.46508 0.71703 0.80119 0.0
C1425 C 0.47978 0.74221 0.79786 0.0
C1426 C 0.4378 0.68134 0.82194 0.0
C1427 C 0.41365 0.67303 0.82833 0.0
C1428 C 0.4444 0.6639 0.81567 0.0
C1429 C 0.47033 0.67126 0.81095 0.0
C1430 C 0.4761 0.6641 0.79354 0.0
C1431 C 0.50055 0.67126 0.78913 0.0
C1432 C 0.51941 0.68554 0.80202 0.0
C1433 C 0.51386 0.69264 0.81938 0.0
C1434 C 0.48945 0.68552 0.82388 0.0
C1435 C 0.34327 0.57973 0.79622 0.0
C1436 C 0.34391 0.55864 0.80222 0.0
C1437 C 0.36214 0.60321 0.80126 0.0
C1438 C 0.38192 0.60615 0.81263 0.0
C1439 C 0.38303 0.58522 0.81822 0.0
C1440 C 0.36418 0.56167 0.81309 0.0
C1441 C 0.4014 0.63123 0.81839 0.0
C1442 C 0.42599 0.63909 0.81367 0.0
C1443 C 0.39546 0.64803 0.82699 0.0
C1444 C 0.37031 0.63975 0.83448 0.0
C1445 C 0.35907 0.61977 0.84727 0.0
C1446 C 0.33512 0.6115 0.85386 0.0
C1447 C 0.32229 0.62325 0.84794 0.0
C1448 C 0.33339 0.64325 0.83541 0.0
C1449 C 0.35725 0.65143 0.82861 0.0
H1450 H 0.30376 0.61687 0.85307 0.0
H1451 H 0.53833 0.69108 0.79857 0.0
H1452 H 0.44426 0.75876 0.55687 0.0
H1453 H 0.43899 0.71847 0.54825 0.0
H1454 H 0.46028 0.74331 0.49026 0.0
H1455 H 0.46681 0.78417 0.49908 0.0
H1456 H 0.40477 0.6908 0.51136 0.0
H1457 H 0.49212 0.73122 0.48943 0.0
H1458 H 0.53618 0.7615 0.49429 0.0
H1459 H 0.53409 0.72975 0.54914 0.0
H1460 H 0.48989 0.69953 0.54467 0.0
H1461 H 0.38164 0.56981 0.49496 0.0
H1462 H 0.40019 0.61401 0.48801 0.0
H1463 H 0.43905 0.63132 0.54178 0.0
H1464 H 0.42063 0.58745 0.54877 0.0
H1465 H 0.46719 0.66432 0.51435 0.0
H1466 H 0.38602 0.62853 0.54062 0.0
H1467 H 0.34132 0.59994 0.5432 0.0
H1468 H 0.33013 0.62363 0.48841 0.0
H1469 H 0.37498 0.65236 0.48543 0.0
C1470 C 0.44828 0.75574 0.54239 0.0
C1471 C 0.45605 0.77447 0.52864 0.0
C1472 C 0.44535 0.73283 0.5375 0.0
C1473 C 0.44955 0.72811 0.5187 0.0
C1474 C 0.45746 0.74682 0.50493 0.0
C1475 C 0.46109 0.77003 0.50996 0.0
C1476 C 0.44343 0.70284 0.5135 0.0
C1477 C 0.41847 0.68509 0.51138 0.0
C1478 C 0.46124 0.69536 0.51413 0.0
C1479 C 0.48771 0.7134 0.51682 0.0
C1480 C 0.50101 0.73092 0.50261 0.0
C1481 C 0.52601 0.748 0.50527 0.0
C1482 C 0.53791 0.74761 0.52205 0.0
C1483 C 0.52485 0.73007 0.53618 0.0
C1484 C 0.49983 0.71296 0.53358 0.0
C1485 C 0.39459 0.58308 0.50505 0.0
C1486 C 0.39954 0.57529 0.52248 0.0
C1487 C 0.40514 0.60827 0.50109 0.0
C1488 C 0.42087 0.6259 0.51445 0.0
C1489 C 0.42707 0.61804 0.53124 0.0
C1490 C 0.41638 0.59297 0.53528 0.0
C1491 C 0.42843 0.65227 0.51232 0.0
C1492 C 0.45357 0.67013 0.51339 0.0
C1493 C 0.41068 0.6599 0.51128 0.0
C1494 C 0.38386 0.64218 0.51263 0.0
C1495 C 0.37408 0.62737 0.52899 0.0
C1496 C 0.34873 0.61121 0.53055 0.0
C1497 C 0.33295 0.60983 0.51591 0.0
C1498 C 0.34245 0.62464 0.49968 0.0
C1499 C 0.36784 0.64087 0.49804 0.0
H1500 H 0.31336 0.59743 0.51728 0.0
H1501 H 0.55727 0.76083 0.52408 0.0
H1502 H 0.22862 0.71672 0.53512 0.0
H1503 H 0.26847 0.74962 0.52317 0.0
H1504 H 0.26772 0.70064 0.47951 0.0
H1505 H 0.22825 0.66746 0.49192 0.0
H1506 H 0.30849 0.71927 0.50226 0.0
H1507 H 0.26641 0.75091 0.46616 0.0
H1508 H 0.23653 0.76479 0.45998 0.0
H1509 H 0.27305 0.82294 0.50107 0.0
H1510 H 0.30295 0.80919 0.50774 0.0
H1511 H 0.43102 0.81288 0.48219 0.0
H1512 H 0.38724 0.78568 0.47453 0.0
H1513 H 0.367 0.81786 0.52055 0.0
H1514 H 0.4105 0.84467 0.52842 0.0
H1515 H 0.33639 0.80701 0.48816 0.0
H1516 H 0.36831 0.76915 0.5306 0.0
H1517 H 0.39543 0.7536 0.54154 0.0
H1518 H 0.37612 0.70681 0.49221 0.0
H1519 H 0.34883 0.72215 0.48092 0.0
C1520 C 0.23691 0.71323 0.52281 0.0
C1521 C 0.22588 0.68975 0.51451 0.0
C1522 C 0.25947 0.73199 0.51588 0.0
C1523 C 0.27104 0.72749 0.50046 0.0
C1524 C 0.25917 0.70434 0.49151 0.0
C1525 C 0.23675 0.68551 0.49856 0.0
C1526 C 0.29696 0.74559 0.49573 0.0
C1527 C 0.31453 0.73828 0.4985 0.0
C1528 C 0.3048 0.77052 0.49146 0.0
C1529 C 0.28687 0.77892 0.48752 0.0
C1530 C 0.26797 0.76654 0.474 0.0
C1531 C 0.25105 0.77441 0.47038 0.0
C1532 C 0.25288 0.79471 0.48014 0.0
C1533 C 0.27166 0.80721 0.49352 0.0
C1534 C 0.28863 0.79941 0.4972 0.0
C1535 C 0.41721 0.81453 0.49033 0.0
C1536 C 0.42402 0.83071 0.50596 0.0
C1537 C 0.39227 0.799 0.48597 0.0
C1538 C 0.37395 0.79976 0.49702 0.0
C1539 C 0.38087 0.8171 0.51179 0.0
C1540 C 0.40569 0.83228 0.51634 0.0
C1541 C 0.3477 0.78063 0.49499 0.0
C1542 C 0.33019 0.78778 0.49112 0.0
C1543 C 0.33975 0.75553 0.49858 0.0
C1544 C 0.35696 0.74714 0.50474 0.0
C1545 C 0.37017 0.75586 0.52192 0.0
C1546 C 0.38547 0.74703 0.52821 0.0
C1547 C 0.38761 0.72941 0.51749 0.0
C1548 C 0.37451 0.72058 0.50042 0.0
C1549 C 0.35911 0.72931 0.49407 0.0
H1550 H 0.39921 0.72245 0.52256 0.0
H1551 H 0.23975 0.80078 0.47732 0.0
H1552 H 0.30095 0.55582 0.56061 0.0
H1553 H 0.26737 0.56004 0.54659 0.0
H1554 H 0.2768 0.53197 0.49295 0.0
H1555 H 0.30986 0.52679 0.50712 0.0
H1556 H 0.2782 0.58548 0.49858 0.0
H1557 H 0.23076 0.49672 0.50231 0.0
H1558 H 0.21603 0.45677 0.51848 0.0
H1559 H 0.1844 0.47898 0.56324 0.0
H1560 H 0.19929 0.51922 0.54747 0.0
H1561 H 0.18092 0.61164 0.47893 0.0
H1562 H 0.20672 0.59242 0.47533 0.0
H1563 H 0.18903 0.56517 0.53322 0.0
H1564 H 0.16293 0.58314 0.53649 0.0
H1565 H 0.18965 0.53195 0.51385 0.0
H1566 H 0.24567 0.62066 0.51953 0.0
H1567 H 0.2684 0.66486 0.51119 0.0
H1568 H 0.28792 0.64768 0.45685 0.0
H1569 H 0.26551 0.60338 0.465 0.0
C1570 C 0.29561 0.55023 0.54592 0.0
C1571 C 0.30783 0.54088 0.53495 0.0
C1572 C 0.27646 0.55258 0.53796 0.0
C1573 C 0.2696 0.54612 0.51882 0.0
C1574 C 0.28174 0.53678 0.5078 0.0
C1575 C 0.30051 0.53382 0.51591 0.0
C1576 C 0.25077 0.55081 0.51036 0.0
C1577 C 0.25873 0.57359 0.50149 0.0
C1578 C 0.22551 0.53531 0.51434 0.0
C1579 C 0.2163 0.51104 0.52376 0.0
C1580 C 0.22086 0.49317 0.51568 0.0
C1581 C 0.21243 0.47045 0.52476 0.0
C1582 C 0.19932 0.46536 0.54189 0.0
C1583 C 0.19456 0.48295 0.54996 0.0
C1584 C 0.20296 0.5057 0.54095 0.0
C1585 C 0.18221 0.60105 0.49065 0.0
C1586 C 0.16999 0.59894 0.508 0.0
C1587 C 0.19713 0.59031 0.48868 0.0
C1588 C 0.20006 0.57749 0.50407 0.0
C1589 C 0.18705 0.57475 0.52105 0.0
C1590 C 0.17216 0.5852 0.52295 0.0
C1591 C 0.21731 0.56768 0.50339 0.0
C1592 C 0.209 0.54371 0.5104 0.0
C1593 C 0.24251 0.58259 0.49846 0.0
C1594 C 0.25352 0.60873 0.4927 0.0
C1595 C 0.2544 0.62629 0.50566 0.0
C1596 C 0.26739 0.65136 0.50103 0.0
C1597 C 0.27949 0.65906 0.48345 0.0
C1598 C 0.27846 0.64168 0.47042 0.0
C1599 C 0.26566 0.61661 0.47504 0.0
H1600 H 0.28989 0.67848 0.47999 0.0
H1601 H 0.19282 0.44776 0.5489 0.0
H1602 H 0.19873 0.1385 0.06556 0.0
H1603 H 0.21339 0.15949 0.03529 0.0
H1604 H 0.20955 0.22197 0.05703 0.0
H1605 H 0.19433 0.20053 0.08778 0.0
H1606 H 0.18555 0.2074 0.02472 0.0
H1607 H 0.2667 0.23148 0.04007 0.0
H1608 H 0.30241 0.23025 0.05354 0.0
H1609 H 0.28785 0.16949 0.01688 0.0
H1610 H 0.25215 0.17045 0.00304 0.0
H1611 H 0.19458 0.21788 0.92292 0.0
H1612 H 0.21466 0.23254 0.9542 0.0
H1613 H 0.19644 0.15838 0.96874 0.0
H1614 H 0.1757 0.14368 0.93792 0.0
H1615 H 0.24559 0.1999 0.98309 0.0
H1616 H 0.15512 0.17113 0.97899 0.0
H1617 H 0.12127 0.17548 0.9651 0.0
H1618 H 0.15824 0.25183 0.98137 0.0
H1619 H 0.19245 0.24794 0.99514 0.0
C1620 C 0.20138 0.15689 0.0641 0.0
C1621 C 0.19499 0.16769 0.07898 0.0
C1622 C 0.21016 0.1691 0.04679 0.0
C1623 C 0.21292 0.19251 0.04385 0.0
C1624 C 0.20775 0.20399 0.05901 0.0
C1625 C 0.19906 0.19174 0.07654 0.0
C1626 C 0.21728 0.2025 0.02407 0.0
C1627 C 0.19937 0.20679 0.01577 0.0
C1628 C 0.23539 0.20203 0.01223 0.0
C1629 C 0.25671 0.20105 0.02052 0.0
C1630 C 0.27104 0.21777 0.03493 0.0
C1631 C 0.29132 0.21716 0.0426 0.0
C1632 C 0.29734 0.19973 0.03614 0.0
C1633 C 0.28318 0.18299 0.02187 0.0
C1634 C 0.263 0.18367 0.01401 0.0
C1635 C 0.19575 0.20498 0.93258 0.0
C1636 C 0.18383 0.17973 0.92815 0.0
C1637 C 0.20715 0.21334 0.95038 0.0
C1638 C 0.20703 0.19652 0.96371 0.0
C1639 C 0.19694 0.17166 0.95855 0.0
C1640 C 0.18509 0.16325 0.94101 0.0
C1641 C 0.21311 0.20328 0.98403 0.0
C1642 C 0.23278 0.20192 0.99228 0.0
C1643 C 0.19708 0.20716 0.99587 0.0
C1644 C 0.17638 0.20932 0.98788 0.0
C1645 C 0.15606 0.18886 0.97949 0.0
C1646 C 0.13682 0.19124 0.97166 0.0
C1647 C 0.13763 0.21394 0.97231 0.0
C1648 C 0.15766 0.23428 0.98084 0.0
C1649 C 0.17697 0.232 0.98866 0.0
H1650 H 0.12272 0.21575 0.96623 0.0
H1651 H 0.31299 0.19922 0.04217 0.0
H1652 H 0.78468 0.98128 0.91822 0.0
H1653 H 0.77281 0.98869 0.94991 0.0
H1654 H 0.82552 0.97248 0.97602 0.0
H1655 H 0.8369 0.96452 0.94487 0.0
H1656 H 0.78498 0.95204 0.99613 0.0
H1657 H 0.8376 0.03328 0.96637 0.0
H1658 H 0.84678 0.06477 0.94158 0.0
H1659 H 0.779 0.06331 0.95431 0.0
H1660 H 0.76936 0.03163 0.97906 0.0
H1661 H 0.85652 0.05428 0.06381 0.0
H1662 H 0.83834 0.04131 0.03245 0.0
H1663 H 0.77071 0.98478 0.05784 0.0
H1664 H 0.7893 0.99728 0.0897 0.0
H1665 H 0.8014 0.03615 0.01178 0.0
H1666 H 0.74859 0.93438 0.02871 0.0
H1667 H 0.74519 0.90483 0.05356 0.0
H1668 H 0.82221 0.95021 0.06645 0.0
H1669 H 0.82606 0.9799 0.04155 0.0
C1670 C 0.79365 0.97924 0.93076 0.0
C1671 C 0.8118 0.97237 0.92899 0.0
C1672 C 0.78681 0.98343 0.94884 0.0
C1673 C 0.79827 0.98114 0.96537 0.0
C1674 C 0.81617 0.97408 0.96354 0.0
C1675 C 0.82279 0.96967 0.94563 0.0
C1676 C 0.79312 0.98729 0.98469 0.0
C1677 C 0.78806 0.97029 0.99952 0.0
C1678 C 0.7968 0.01092 0.98916 0.0
C1679 C 0.80262 0.02993 0.97435 0.0
C1680 C 0.82461 0.03959 0.96378 0.0
C1681 C 0.8299 0.05748 0.94976 0.0
C1682 C 0.81344 0.06597 0.94633 0.0
C1683 C 0.7917 0.05666 0.95695 0.0
C1684 C 0.78631 0.03876 0.97097 0.0
C1685 C 0.83765 0.03924 0.06288 0.0
C1686 C 0.8246 0.02641 0.0793 0.0
C1687 C 0.82714 0.03201 0.04484 0.0
C1688 C 0.80326 0.01183 0.0427 0.0
C1689 C 0.78932 0.00019 0.05913 0.0
C1690 C 0.79995 0.00738 0.07733 0.0
C1691 C 0.79501 0.00148 0.02324 0.0
C1692 C 0.79722 0.01755 0.00837 0.0
C1693 C 0.78945 0.97721 0.0187 0.0
C1694 C 0.7875 0.95944 0.0335 0.0
C1695 C 0.76477 0.938 0.03685 0.0
C1696 C 0.76278 0.92125 0.05092 0.0
C1697 C 0.78345 0.92571 0.06163 0.0
C1698 C 0.80621 0.94684 0.0582 0.0
C1699 C 0.8083 0.96363 0.04411 0.0
H1700 H 0.78181 0.91276 0.07255 0.0
H1701 H 0.81757 0.07982 0.93547 0.0
H1702 H 0.02831 0.87464 0.93644 0.0
H1703 H 0.02244 0.85709 0.96834 0.0
H1704 H 0.01705 0.79089 0.94475 0.0
H1705 H 0.02181 0.8081 0.91245 0.0
H1706 H 0.98601 0.77843 0.9722 0.0
H1707 H 0.07044 0.83387 0.96868 0.0
H1708 H 0.10885 0.87221 0.9608 0.0
H1709 H 0.08981 0.91247 0.00027 0.0
H1710 H 0.0511 0.87448 0.00818 0.0
H1711 H 0.0109 0.81254 0.08321 0.0
H1712 H 0.02626 0.80538 0.05291 0.0
H1713 H 0.96068 0.79514 0.02434 0.0
H1714 H 0.94535 0.80177 0.05416 0.0
H1715 H 0.03883 0.83422 0.02379 0.0
H1716 H 0.94515 0.76194 0.98667 0.0
H1717 H 0.90937 0.72151 0.99465 0.0
H1718 H 0.95212 0.70998 0.03704 0.0
H1719 H 0.98832 0.75015 0.02914 0.0
C1720 C 0.02574 0.85629 0.93803 0.0
C1721 C 0.02568 0.8428 0.92203 0.0
C1722 C 0.02264 0.84634 0.95629 0.0
C1723 C 0.0202 0.823 0.95904 0.0
C1724 C 0.01924 0.80906 0.943 0.0
C1725 C 0.02185 0.81885 0.92459 0.0
C1726 C 0.01808 0.81339 0.97876 0.0
C1727 C 0.99771 0.79043 0.98349 0.0
C1728 C 0.0343 0.8283 0.99342 0.0
C1729 C 0.05783 0.85124 0.98904 0.0
C1730 C 0.0744 0.8509 0.97566 0.0
C1731 C 0.09623 0.87259 0.97117 0.0
C1732 C 0.10177 0.89475 0.98004 0.0
C1733 C 0.08552 0.89527 0.99344 0.0
C1734 C 0.06365 0.87364 0.99797 0.0
C1735 C -0.00044 0.80808 0.07051 0.0
C1736 C 0.97714 0.8081 0.07094 0.0
C1737 C 0.00832 0.80399 0.05324 0.0
C1738 C 0.99454 0.79948 0.03634 0.0
C1739 C 0.97147 0.79801 0.03717 0.0
C1740 C 0.96286 0.8022 0.05424 0.0
C1741 C 0.00536 0.80044 0.01727 0.0
C1742 C 0.02755 0.82175 0.01255 0.0
C1743 C 0.99133 0.78355 0.00267 0.0
C1744 C 0.96954 0.75916 0.00727 0.0
C1745 C 0.94705 0.75072 0.99756 0.0
C1746 C 0.92664 0.72784 0.00212 0.0
C1747 C 0.92847 0.71319 0.01634 0.0
C1748 C 0.95072 0.72136 0.02604 0.0
C1749 C 0.97118 0.74421 0.02154 0.0
H1750 H 0.91264 0.6955 0.01986 0.0
H1751 H 0.11867 0.91153 0.97653 0.0
H1752 H 0.79855 0.47013 0.28332 0.0
H1753 H 0.81666 0.47826 0.3151 0.0
H1754 H 0.88535 0.53652 0.29253 0.0
H1755 H 0.86738 0.5281 0.26031 0.0
H1756 H 0.89358 0.51081 0.31952 0.0
H1757 H 0.84812 0.55193 0.31589 0.0
H1758 H 0.81291 0.55764 0.30814 0.0
H1759 H 0.76736 0.50033 0.34769 0.0
H1760 H 0.80218 0.494 0.35548 0.0
H1761 H 0.87068 0.5233 0.43022 0.0
H1762 H 0.87731 0.53952 0.3976 0.0
H1763 H 0.87448 0.47332 0.37677 0.0
H1764 H 0.86833 0.45727 0.40908 0.0
H1765 H 0.84426 0.51996 0.37098 0.0
H1766 H 0.9035 0.48128 0.33573 0.0
H1767 H 0.94097 0.47953 0.34347 0.0
H1768 H 0.96426 0.54046 0.38211 0.0
H1769 H 0.92718 0.5429 0.37437 0.0
C1770 C 0.81756 0.48459 0.28503 0.0
C1771 C 0.83143 0.49864 0.26931 0.0
C1772 C 0.82787 0.48929 0.30324 0.0
C1773 C 0.85214 0.50843 0.30627 0.0
C1774 C 0.8665 0.52182 0.29053 0.0
C1775 C 0.85622 0.51695 0.27214 0.0
C1776 C 0.86192 0.51434 0.32605 0.0
C1777 C 0.88301 0.51306 0.3308 0.0
C1778 C 0.8488 0.51854 0.34064 0.0
C1779 C 0.8278 0.52247 0.33624 0.0
C1780 C 0.83057 0.54047 0.32288 0.0
C1781 C 0.81067 0.54382 0.31848 0.0
C1782 C 0.78791 0.52935 0.32741 0.0
C1783 C 0.78501 0.51154 0.3408 0.0
C1784 C 0.80485 0.5081 0.34524 0.0
C1785 C 0.8721 0.51247 0.41875 0.0
C1786 C 0.86849 0.48875 0.42225 0.0
C1787 C 0.87589 0.52178 0.40011 0.0
C1788 C 0.87639 0.50767 0.3847 0.0
C1789 C 0.87455 0.48478 0.38839 0.0
C1790 C 0.87076 0.47548 0.40694 0.0
C1791 C 0.87492 0.51461 0.36465 0.0
C1792 C 0.85534 0.51838 0.35977 0.0
C1793 C 0.88987 0.51342 0.35 0.0
C1794 C 0.91243 0.51221 0.35449 0.0
C1795 C 0.91669 0.49445 0.34576 0.0
C1796 C 0.93786 0.4933 0.35018 0.0
C1797 C 0.95497 0.50985 0.36329 0.0
C1798 C 0.95097 0.52761 0.37198 0.0
C1799 C 0.92985 0.52886 0.3676 0.0
H1800 H 0.97133 0.50891 0.3667 0.0
H1801 H 0.77252 0.53196 0.32397 0.0
H1802 H 0.46459 0.28148 0.26944 0.0
H1803 H 0.44922 0.28781 0.29959 0.0
H1804 H 0.4603 0.35768 0.27923 0.0
H1805 H 0.47562 0.35123 0.24869 0.0
H1806 H 0.48604 0.36213 0.31146 0.0
H1807 H 0.4034 0.31506 0.29315 0.0
H1808 H 0.36623 0.28094 0.27843 0.0
H1809 H 0.36838 0.22997 0.31832 0.0
H1810 H 0.40585 0.26366 0.33307 0.0
H1811 H 0.47982 0.37167 0.41047 0.0
H1812 H 0.46176 0.36871 0.37875 0.0
H1813 H 0.4543 0.29692 0.37105 0.0
H1814 H 0.47222 0.29992 0.40274 0.0
H1815 H 0.41718 0.30158 0.35189 0.0
H1816 H 0.50714 0.34623 0.3598 0.0
H1817 H 0.54594 0.3792 0.37365 0.0
H1818 H 0.53006 0.4339 0.35195 0.0
H1819 H 0.49095 0.40116 0.33822 0.0
C1820 C 0.46308 0.29787 0.27116 0.0
C1821 C 0.47157 0.31601 0.25686 0.0
C1822 C 0.45405 0.30137 0.28835 0.0
C1823 C 0.45351 0.32318 0.29166 0.0
C1824 C 0.46042 0.34064 0.2769 0.0
C1825 C 0.46913 0.33694 0.25949 0.0
C1826 C 0.45027 0.32925 0.31153 0.0
C1827 C 0.4705 0.34942 0.32018 0.0
C1828 C 0.43018 0.31247 0.32296 0.0
C1829 C 0.40753 0.29198 0.31423 0.0
C1830 C 0.39606 0.29656 0.29873 0.0
C1831 C 0.37491 0.27728 0.29037 0.0
C1832 C 0.36494 0.2533 0.29745 0.0
C1833 C 0.3761 0.24856 0.31288 0.0
C1834 C 0.39729 0.26777 0.32127 0.0
C1835 C 0.47331 0.35488 0.40226 0.0
C1836 C 0.47721 0.33595 0.40886 0.0
C1837 C 0.46306 0.3532 0.38419 0.0
C1838 C 0.45694 0.3327 0.37249 0.0
C1839 C 0.45876 0.31282 0.37989 0.0
C1840 C 0.46903 0.31453 0.39793 0.0
C1841 C 0.45338 0.33374 0.35165 0.0
C1842 C 0.43205 0.31489 0.34296 0.0
C1843 C 0.47251 0.35164 0.34008 0.0
C1844 C 0.49601 0.37129 0.34825 0.0
C1845 C 0.51185 0.36529 0.35813 0.0
C1846 C 0.53389 0.38392 0.36593 0.0
C1847 C 0.54042 0.40863 0.36374 0.0
C1848 C 0.52494 0.41475 0.35369 0.0
C1849 C 0.50283 0.39617 0.34591 0.0
H1850 H 0.55751 0.42303 0.36978 0.0
H1851 H 0.34856 0.2384 0.29096 0.0
H1852 H 0.6225 0.14349 0.38917 0.0
H1853 H 0.63868 0.13953 0.35843 0.0
H1854 H 0.70944 0.16291 0.3844 0.0
H1855 H 0.69309 0.16627 0.4155 0.0
H1856 H 0.70794 0.19196 0.35218 0.0
H1857 H 0.68369 0.10915 0.36859 0.0
H1858 H 0.65568 0.06714 0.38049 0.0
H1859 H 0.60496 0.0551 0.33492 0.0
H1860 H 0.63248 0.09719 0.32289 0.0
H1861 H 0.75151 0.19711 0.25998 0.0
H1862 H 0.74379 0.18384 0.29333 0.0
H1863 H 0.66566 0.14186 0.28183 0.0
H1864 H 0.67347 0.15412 0.24819 0.0
H1865 H 0.67681 0.11967 0.30893 0.0
H1866 H 0.69409 0.2027 0.29715 0.0
H1867 H 0.71862 0.24536 0.28526 0.0
H1868 H 0.77829 0.2577 0.32244 0.0
H1869 H 0.7542 0.21495 0.33435 0.0
C1870 C 0.64138 0.14735 0.3884 0.0
C1871 C 0.65664 0.15539 0.40462 0.0
C1872 C 0.65052 0.1449 0.37089 0.0
C1873 C 0.67518 0.15081 0.36923 0.0
C1874 C 0.69029 0.15807 0.38551 0.0
C1875 C 0.68096 0.16 0.4032 0.0
C1876 C 0.68563 0.1525 0.35 0.0
C1877 C 0.70174 0.1761 0.34285 0.0
C1878 C 0.67674 0.13183 0.33777 0.0
C1879 C 0.66012 0.10643 0.3449 0.0
C1880 C 0.66647 0.09763 0.36119 0.0
C1881 C 0.6507 0.07378 0.36794 0.0
C1882 C 0.62854 0.05847 0.35849 0.0
C1883 C 0.62213 0.06698 0.34223 0.0
C1884 C 0.63784 0.09083 0.33542 0.0
C1885 C 0.73274 0.18459 0.2645 0.0
C1886 C 0.71303 0.17695 0.25163 0.0
C1887 C 0.72835 0.17705 0.28355 0.0
C1888 C 0.70409 0.16244 0.29021 0.0
C1889 C 0.68453 0.15325 0.27705 0.0
C1890 C 0.68898 0.16032 0.25785 0.0
C1891 C 0.69889 0.15923 0.31103 0.0
C1892 C 0.6836 0.13545 0.3184 0.0
C1893 C 0.70806 0.17981 0.32347 0.0
C1894 C 0.72248 0.20557 0.31646 0.0
C1895 C 0.7125 0.21447 0.30269 0.0
C1896 C 0.72632 0.23866 0.29596 0.0
C1897 C 0.75003 0.25421 0.30304 0.0
C1898 C 0.75994 0.24561 0.31693 0.0
C1899 C 0.74622 0.22141 0.32368 0.0
H1900 H 0.7607 0.27293 0.29781 0.0
H1901 H 0.61635 0.04001 0.36374 0.0
H1902 H 0.47985 0.88011 0.60071 0.0
H1903 H 0.50085 0.88879 0.63153 0.0
H1904 H 0.55263 0.86932 0.60839 0.0
H1905 H 0.53194 0.86106 0.57727 0.0
H1906 H 0.52403 0.84019 0.6393 0.0
H1907 H 0.57748 0.92466 0.62571 0.0
H1908 H 0.58973 0.96637 0.61412 0.0
H1909 H 0.5421 0.97203 0.6554 0.0
H1910 H 0.52963 0.93031 0.66732 0.0
H1911 H 0.55329 0.8343 0.73296 0.0
H1912 H 0.56449 0.85271 0.70109 0.0
H1913 H 0.51626 0.88277 0.70842 0.0
H1914 H 0.50611 0.86541 0.74077 0.0
H1915 H 0.55361 0.91111 0.68383 0.0
H1916 H 0.49369 0.82431 0.69193 0.0
H1917 H 0.47956 0.78205 0.70338 0.0
H1918 H 0.53673 0.77996 0.67102 0.0
H1919 H 0.55141 0.82239 0.65961 0.0
C1920 C 0.49611 0.87831 0.60204 0.0
C1921 C 0.50409 0.8696 0.5867 0.0
C1922 C 0.50823 0.8835 0.61961 0.0
C1923 C 0.52832 0.87976 0.6222 0.0
C1924 C 0.53726 0.8725 0.60659 0.0
C1925 C 0.52541 0.86775 0.58886 0.0
C1926 C 0.53657 0.87895 0.64185 0.0
C1927 C 0.53129 0.85589 0.64891 0.0
C1928 C 0.54527 0.89926 0.65444 0.0
C1929 C 0.55251 0.92429 0.64732 0.0
C1930 C 0.56947 0.93472 0.63223 0.0
C1931 C 0.5765 0.95839 0.62562 0.0
C1932 C 0.56659 0.9718 0.63393 0.0
C1933 C 0.54975 0.96161 0.64896 0.0
C1934 C 0.54277 0.93799 0.65571 0.0
C1935 C 0.54596 0.84575 0.72802 0.0
C1936 C 0.52877 0.84839 0.73909 0.0
C1937 C 0.55228 0.85618 0.70983 0.0
C1938 C 0.54066 0.8685 0.70219 0.0
C1939 C 0.52537 0.87325 0.71401 0.0
C1940 C 0.51954 0.86332 0.73245 0.0
C1941 C 0.54073 0.87225 0.68126 0.0
C1942 C 0.54721 0.89566 0.67406 0.0
C1943 C 0.53279 0.85216 0.66844 0.0
C1944 C 0.52382 0.82658 0.67512 0.0
C1945 C 0.50333 0.81487 0.68736 0.0
C1946 C 0.49522 0.7909 0.69383 0.0
C1947 C 0.50729 0.77835 0.68797 0.0
C1948 C 0.52744 0.78973 0.67558 0.0
C1949 C 0.53567 0.81373 0.66911 0.0
H1950 H 0.50099 0.7598 0.693 0.0
H1951 H 0.57202 0.99011 0.62876 0.0
H1952 H 0.12139 0.61651 0.59383 0.0
H1953 H 0.11281 0.62911 0.62442 0.0
H1954 H 0.13642 0.70162 0.60168 0.0
H1955 H 0.14484 0.68883 0.57069 0.0
H1956 H 0.16379 0.70189 0.63199 0.0
H1957 H 0.07898 0.66945 0.62 0.0
H1958 H 0.03713 0.63958 0.60893 0.0
H1959 H 0.0329 0.58674 0.65005 0.0
H1960 H 0.07484 0.61622 0.66132 0.0
H1961 H 0.17286 0.73045 0.72812 0.0
H1962 H 0.15469 0.72591 0.6964 0.0
H1963 H 0.12356 0.64702 0.69992 0.0
H1964 H 0.14064 0.65153 0.73222 0.0
H1965 H 0.09494 0.65797 0.67792 0.0
H1966 H 0.18216 0.68463 0.6823 0.0
H1967 H 0.22495 0.71222 0.69292 0.0
H1968 H 0.22523 0.7733 0.66478 0.0
H1969 H 0.18229 0.74607 0.65421 0.0
C1970 C 0.12403 0.63491 0.59517 0.0
C1971 C 0.13408 0.65183 0.58005 0.0
C1972 C 0.11887 0.64203 0.61261 0.0
C1973 C 0.1239 0.66629 0.61533 0.0
C1974 C 0.13225 0.68275 0.5998 0.0
C1975 C 0.13705 0.67546 0.58215 0.0
C1976 C 0.1252 0.67524 0.63512 0.0
C1977 C 0.14848 0.69292 0.64191 0.0
C1978 C 0.10542 0.66298 0.64814 0.0
C1979 C 0.08014 0.64508 0.64147 0.0
C1980 C 0.06921 0.65141 0.62661 0.0
C1981 C 0.04544 0.63454 0.62031 0.0
C1982 C 0.03238 0.61125 0.62874 0.0
C1983 C 0.04304 0.6048 0.64354 0.0
C1984 C 0.06679 0.62162 0.64994 0.0
C1985 C 0.16148 0.71211 0.7223 0.0
C1986 C 0.15834 0.69133 0.73233 0.0
C1987 C 0.15113 0.70952 0.70422 0.0
C1988 C 0.13836 0.6862 0.69558 0.0
C1989 C 0.13344 0.66521 0.70628 0.0
C1990 C 0.14325 0.66776 0.72466 0.0
C1991 C 0.13366 0.68404 0.67469 0.0
C1992 C 0.10992 0.66757 0.66783 0.0
C1993 C 0.1531 0.6971 0.6615 0.0
C1994 C 0.17897 0.71342 0.66768 0.0
C1995 C 0.19132 0.70397 0.67848 0.0
C1996 C 0.21559 0.71954 0.68448 0.0
C1997 C 0.22777 0.74452 0.67958 0.0
C1998 C 0.21574 0.75396 0.66861 0.0
C1999 C 0.19145 0.73848 0.6626 0.0
H2000 H 0.24656 0.75654 0.68424 0.0
H2001 H 0.01398 0.59821 0.62382 0.0
H2002 H 0.31559 0.4606 0.58777 0.0
H2003 H 0.302 0.43787 0.61806 0.0
H2004 H 0.36803 0.4939 0.64557 0.0
H2005 H 0.38154 0.51669 0.6156 0.0
H2006 H 0.35124 0.4448 0.65976 0.0
H2007 H 0.32077 0.50194 0.64521 0.0
H2008 H 0.29836 0.51629 0.62477 0.0
H2009 H 0.23321 0.4449 0.62834 0.0
H2010 H 0.2554 0.43007 0.64861 0.0
H2011 H 0.33558 0.47597 0.75267 0.0
H2012 H 0.34355 0.46729 0.72032 0.0
H2013 H 0.26517 0.42232 0.71049 0.0
H2014 H 0.25731 0.43264 0.74243 0.0
H2015 H 0.28164 0.45303 0.68474 0.0
H2016 H 0.30883 0.39974 0.70752 0.0
H2017 H 0.33091 0.38486 0.72778 0.0
H2018 H 0.40031 0.4452 0.70922 0.0
H2019 H 0.37871 0.4606 0.68897 0.0
C2020 C 0.32746 0.46771 0.60017 0.0
C2021 C 0.34938 0.49064 0.59944 0.0
C2022 C 0.31973 0.45469 0.61742 0.0
C2023 C 0.33397 0.46432 0.63405 0.0
C2024 C 0.35682 0.48611 0.6329 0.0
C2025 C 0.36438 0.49925 0.6158 0.0
C2026 C 0.32361 0.45446 0.65317 0.0
C2027 C 0.3359 0.44632 0.66533 0.0
C2028 C 0.30317 0.45582 0.66015 0.0
C2029 C 0.28979 0.46483 0.64819 0.0
C2030 C 0.30172 0.48928 0.64152 0.0
C2031 C 0.28906 0.4975 0.62998 0.0
C2032 C 0.26439 0.4815 0.6252 0.0
C2033 C 0.25232 0.45726 0.63201 0.0
C2034 C 0.26493 0.44893 0.64351 0.0
C2035 C 0.32012 0.46358 0.74378 0.0
C2036 C 0.29586 0.45511 0.74988 0.0
C2037 C 0.32466 0.45843 0.72527 0.0
C2038 C 0.30497 0.44404 0.71279 0.0
C2039 C 0.2807 0.43362 0.71969 0.0
C2040 C 0.27619 0.43942 0.73796 0.0
C2041 C 0.30956 0.44371 0.69192 0.0
C2042 C 0.29632 0.4503 0.67932 0.0
C2043 C 0.32893 0.44057 0.68461 0.0
C2044 C 0.3421 0.43138 0.69675 0.0
C2045 C 0.3288 0.40993 0.70783 0.0
C2046 C 0.34123 0.40139 0.71931 0.0
C2047 C 0.36698 0.41411 0.71982 0.0
C2048 C 0.38036 0.43536 0.7088 0.0
C2049 C 0.36803 0.44396 0.69727 0.0
H2050 H 0.37657 0.40747 0.72873 0.0
H2051 H 0.25462 0.48789 0.61627 0.0
loop_
_geom_bond_atom_site_label_1
_geom_bond_atom_site_label_2
_geom_bond_distance
_geom_bond_site_symmetry_2
_ccdc_geom_bond_type
Co0 O1 2.216 . S
Co0 O2 2.091 . S
Co0 O4 2.004 . S
Co0 O10 2.021 . S
Co0 O12 2.137 . S
Co0 O13 2.244 . S
O1 Co0 2.216 . S
O1 C8 1.247 . S
O2 Co0 2.091 . S
O2 C8 1.261 . S
C3 O12 1.247 . S
C3 O13 1.272 . S
O4 Co0 2.004 . S
O4 C9 1.259 . S
Co5 O6 2.061 . S
Co5 O11 2.052 . S
Co5 O13 2.135 . S
O6 Co5 2.061 . S
O6 C9 1.235 . S
C7 O10 1.238 . S
C7 O11 1.241 . S
C8 O1 1.247 . S
C8 O2 1.261 . S
C9 O4 1.259 . S
C9 O6 1.235 . S
O10 Co0 2.021 . S
O10 C7 1.238 . S
O11 Co5 2.052 . S
O11 C7 1.241 . S
O12 Co0 2.137 . S
O12 C3 1.247 . S
O13 Co0 2.244 . S
O13 C3 1.272 . S
O13 Co5 2.135 . S
Co14 O15 2.216 . S
Co14 O16 2.091 . S
Co14 O18 2.004 1_545 S
Co14 O24 2.021 1_545 S
Co14 O26 2.137 . S
Co14 O27 2.244 . S
O15 Co14 2.216 . S
O15 C22 1.247 . S
O16 Co14 2.091 . S
O16 C22 1.261 . S
C17 O26 1.247 . S
C17 O27 1.272 . S
O18 Co14 2.004 1_565 S
O18 C23 1.259 . S
Co19 O20 2.061 1_545 S
Co19 O25 2.052 . S
Co19 O27 2.135 . S
O20 Co19 2.061 1_565 S
O20 C23 1.235 . S
C21 O24 1.238 . S
C21 O25 1.241 1_565 S
C22 O15 1.247 . S
C22 O16 1.261 . S
C23 O18 1.259 . S
C23 O20 1.235 . S
O24 Co14 2.021 1_565 S
O24 C21 1.238 . S
O25 Co19 2.052 . S
O25 C21 1.241 1_545 S
O26 Co14 2.137 . S
O26 C17 1.247 . S
O27 Co14 2.244 . S
O27 C17 1.272 . S
O27 Co19 2.135 . S
Co28 O29 2.216 . S
Co28 O30 2.078 1_655 S
Co28 O32 2.004 1_655 S
Co28 O38 2.021 1_655 S
Co28 O40 2.137 . S
Co28 O41 2.244 . S
O29 Co28 2.216 . S
O29 C36 1.247 . S
O30 Co28 2.078 1_455 S
O30 C36 1.245 1_455 S
C31 O40 1.247 . S
C31 O41 1.272 . S
O32 Co28 2.004 1_455 S
O32 C37 1.259 . S
Co33 O34 2.061 1_655 S
Co33 O39 2.067 . S
Co33 O41 2.135 . S
O34 Co33 2.061 1_455 S
O34 C37 1.235 . S
C35 O38 1.238 . S
C35 O39 1.217 1_455 S
C36 O29 1.247 . S
C36 O30 1.245 1_655 S
C37 O32 1.259 . S
C37 O34 1.235 . S
O38 Co28 2.021 1_455 S
O38 C35 1.238 . S
O39 Co33 2.067 . S
O39 C35 1.217 1_655 S
O40 Co28 2.137 . S
O40 C31 1.247 . S
O41 Co28 2.244 . S
O41 C31 1.272 . S
O41 Co33 2.135 . S
Co42 O43 2.216 . S
Co42 O44 2.091 . S
Co42 O46 2.004 . S
Co42 O52 2.021 . S
Co42 O54 2.137 . S
Co42 O55 2.244 . S
O43 Co42 2.216 . S
O43 C50 1.247 . S
O44 Co42 2.091 . S
O44 C50 1.261 . S
C45 O54 1.247 . S
C45 O55 1.272 . S
O46 Co42 2.004 . S
O46 C51 1.259 . S
Co47 O48 2.061 . S
Co47 O53 2.052 . S
Co47 O55 2.135 . S
O48 Co47 2.061 . S
O48 C51 1.235 . S
C49 O52 1.238 . S
C49 O53 1.241 . S
C50 O43 1.247 . S
C50 O44 1.261 . S
C51 O46 1.259 . S
C51 O48 1.235 . S
O52 Co42 2.021 . S
O52 C49 1.238 . S
O53 Co47 2.052 . S
O53 C49 1.241 . S
O54 Co42 2.137 . S
O54 C45 1.247 . S
O55 Co42 2.244 . S
O55 C45 1.272 . S
O55 Co47 2.135 . S
Co56 O57 2.216 . S
Co56 O58 2.077 1_565 S
Co56 O60 2.004 1_565 S
Co56 O66 2.021 1_565 S
Co56 O68 2.137 . S
Co56 O69 2.244 . S
O57 Co56 2.216 . S
O57 C64 1.247 . S
O58 Co56 2.077 1_545 S
O58 C64 1.244 1_545 S
C59 O68 1.247 . S
C59 O69 1.272 . S
O60 Co56 2.004 1_545 S
O60 C65 1.259 . S
Co61 O62 2.061 1_565 S
Co61 O67 2.066 . S
Co61 O69 2.135 . S
O62 Co61 2.061 1_545 S
O62 C65 1.235 . S
C63 O66 1.238 . S
C63 O67 1.219 1_545 S
C64 O57 1.247 . S
C64 O58 1.244 1_565 S
C65 O60 1.259 . S
C65 O62 1.235 . S
O66 Co56 2.021 1_545 S
O66 C63 1.238 . S
O67 Co61 2.066 . S
O67 C63 1.219 1_565 S
O68 Co56 2.137 . S
O68 C59 1.247 . S
O69 Co56 2.244 . S
O69 C59 1.272 . S
O69 Co61 2.135 . S
Co70 O71 2.216 . S
Co70 O72 2.091 . S
Co70 O74 2.004 1_455 S
Co70 O80 2.021 1_455 S
Co70 O82 2.137 . S
Co70 O83 2.244 . S
O71 Co70 2.216 . S
O71 C78 1.247 . S
O72 Co70 2.091 . S
O72 C78 1.261 . S
C73 O82 1.247 . S
C73 O83 1.272 . S
O74 Co70 2.004 1_655 S
O74 C79 1.259 . S
Co75 O76 2.061 1_455 S
Co75 O81 2.052 . S
Co75 O83 2.135 . S
O76 Co75 2.061 1_655 S
O76 C79 1.235 . S
C77 O80 1.238 . S
C77 O81 1.241 1_655 S
C78 O71 1.247 . S
C78 O72 1.261 . S
C79 O74 1.259 . S
C79 O76 1.235 . S
O80 Co70 2.021 1_655 S
O80 C77 1.238 . S
O81 Co75 2.052 . S
O81 C77 1.241 1_455 S
O82 Co70 2.137 . S
O82 C73 1.247 . S
O83 Co70 2.244 . S
O83 C73 1.272 . S
O83 Co75 2.135 . S
Co84 O85 2.216 . S
Co84 O86 2.091 . S
Co84 O88 2.004 . S
Co84 O94 2.021 . S
Co84 O96 2.137 . S
Co84 O97 2.244 . S
O85 Co84 2.216 . S
O85 C92 1.247 . S
O86 Co84 2.091 . S
O86 C92 1.261 . S
C87 O96 1.247 . S
C87 O97 1.272 . S
O88 Co84 2.004 . S
O88 C93 1.259 . S
Co89 O90 2.061 . S
Co89 O95 2.052 . S
Co89 O97 2.135 . S
O90 Co89 2.061 . S
O90 C93 1.235 . S
C91 O94 1.238 . S
C91 O95 1.241 . S
C92 O85 1.247 . S
C92 O86 1.261 . S
C93 O88 1.259 . S
C93 O90 1.235 . S
O94 Co84 2.021 . S
O94 C91 1.238 . S
O95 Co89 2.052 . S
O95 C91 1.241 . S
O96 Co84 2.137 . S
O96 C87 1.247 . S
O97 Co84 2.244 . S
O97 C87 1.272 . S
O97 Co89 2.135 . S
Co98 O99 2.216 . S
Co98 O100 2.091 . S
Co98 O102 2.004 . S
Co98 O108 2.021 . S
Co98 O110 2.137 . S
Co98 O111 2.244 . S
O99 Co98 2.216 . S
O99 C106 1.247 . S
O100 Co98 2.091 . S
O100 C106 1.261 . S
C101 O110 1.247 . S
C101 O111 1.272 . S
O102 Co98 2.004 . S
O102 C107 1.259 . S
Co103 O104 2.061 . S
Co103 O109 2.052 . S
Co103 O111 2.135 . S
O104 Co103 2.061 . S
O104 C107 1.235 . S
C105 O108 1.238 . S
C105 O109 1.241 . S
C106 O99 1.247 . S
C106 O100 1.261 . S
C107 O102 1.259 . S
C107 O104 1.235 . S
O108 Co98 2.021 . S
O108 C105 1.238 . S
O109 Co103 2.052 . S
O109 C105 1.241 . S
O110 Co98 2.137 . S
O110 C101 1.247 . S
O111 Co98 2.244 . S
O111 C101 1.272 . S
O111 Co103 2.135 . S
Co112 O113 2.216 . S
Co112 O114 2.091 . S
Co112 O116 2.004 . S
Co112 O122 2.021 . S
Co112 O124 2.137 . S
Co112 O125 2.244 . S
O113 Co112 2.216 . S
O113 C120 1.247 . S
O114 Co112 2.091 . S
O114 C120 1.261 . S
C115 O124 1.247 . S
C115 O125 1.272 . S
O116 Co112 2.004 . S
O116 C121 1.259 . S
Co117 O118 2.061 . S
Co117 O123 2.052 . S
Co117 O125 2.135 . S
O118 Co117 2.061 . S
O118 C121 1.235 . S
C119 O122 1.238 . S
C119 O123 1.241 . S
C120 O113 1.247 . S
C120 O114 1.261 . S
C121 O116 1.259 . S
C121 O118 1.235 . S
O122 Co112 2.021 . S
O122 C119 1.238 . S
O123 Co117 2.052 . S
O123 C119 1.241 . S
O124 Co112 2.137 . S
O124 C115 1.247 . S
O125 Co112 2.244 . S
O125 C115 1.272 . S
O125 Co117 2.135 . S
Co126 O127 2.216 . S
Co126 O128 2.091 . S
Co126 O130 2.004 . S
Co126 O136 2.021 . S
Co126 O138 2.137 . S
Co126 O139 2.244 . S
O127 Co126 2.216 . S
O127 C134 1.247 . S
O128 Co126 2.091 . S
O128 C134 1.261 . S
C129 O138 1.247 . S
C129 O139 1.272 . S
O130 Co126 2.004 . S
O130 C135 1.259 . S
Co131 O132 2.061 . S
Co131 O137 2.052 . S
Co131 O139 2.135 . S
O132 Co131 2.061 . S
O132 C135 1.235 . S
C133 O136 1.238 . S
C133 O137 1.241 . S
C134 O127 1.247 . S
C134 O128 1.261 . S
C135 O130 1.259 . S
C135 O132 1.235 . S
O136 Co126 2.021 . S
O136 C133 1.238 . S
O137 Co131 2.052 . S
O137 C133 1.241 . S
O138 Co126 2.137 . S
O138 C129 1.247 . S
O139 Co126 2.244 . S
O139 C129 1.272 . S
O139 Co131 2.135 . S
Co140 O141 2.216 . S
Co140 O142 2.091 . S
Co140 O144 2.004 . S
Co140 O150 2.021 . S
Co140 O152 2.137 . S
Co140 O153 2.244 . S
O141 Co140 2.216 . S
O141 C148 1.247 . S
O142 Co140 2.091 . S
O142 C148 1.261 . S
C143 O152 1.247 . S
C143 O153 1.272 . S
O144 Co140 2.004 . S
O144 C149 1.259 . S
Co145 O146 2.061 . S
Co145 O151 2.052 . S
Co145 O153 2.135 . S
O146 Co145 2.061 . S
O146 C149 1.235 . S
C147 O150 1.238 . S
C147 O151 1.241 . S
C148 O141 1.247 . S
C148 O142 1.261 . S
C149 O144 1.259 . S
C149 O146 1.235 . S
O150 Co140 2.021 . S
O150 C147 1.238 . S
O151 Co145 2.052 . S
O151 C147 1.241 . S
O152 Co140 2.137 . S
O152 C143 1.247 . S
O153 Co140 2.244 . S
O153 C143 1.272 . S
O153 Co145 2.135 . S
Co154 O155 2.216 . S
Co154 O156 2.091 . S
Co154 O158 2.004 . S
Co154 O164 2.021 . S
Co154 O166 2.137 . S
Co154 O167 2.244 . S
O155 Co154 2.216 . S
O155 C162 1.247 . S
O156 Co154 2.091 . S
O156 C162 1.261 . S
C157 O166 1.247 . S
C157 O167 1.272 . S
O158 Co154 2.004 . S
O158 C163 1.259 . S
Co159 O160 2.061 . S
Co159 O165 2.052 . S
Co159 O167 2.135 . S
O160 Co159 2.061 . S
O160 C163 1.235 . S
C161 O164 1.238 . S
C161 O165 1.241 . S
C162 O155 1.247 . S
C162 O156 1.261 . S
C163 O158 1.259 . S
C163 O160 1.235 . S
O164 Co154 2.021 . S
O164 C161 1.238 . S
O165 Co159 2.052 . S
O165 C161 1.241 . S
O166 Co154 2.137 . S
O166 C157 1.247 . S
O167 Co154 2.244 . S
O167 C157 1.272 . S
O167 Co159 2.135 . S
Co168 O169 2.216 . S
Co168 O170 2.091 . S
Co168 O172 2.004 . S
Co168 O178 2.021 . S
Co168 O180 2.137 . S
Co168 O181 2.244 . S
O169 Co168 2.216 . S
O169 C176 1.247 . S
O170 Co168 2.091 . S
O170 C176 1.261 . S
C171 O180 1.247 . S
C171 O181 1.272 . S
O172 Co168 2.004 . S
O172 C177 1.259 . S
Co173 O174 2.061 . S
Co173 O179 2.052 . S
Co173 O181 2.135 . S
O174 Co173 2.061 . S
O174 C177 1.235 . S
C175 O178 1.238 . S
C175 O179 1.241 . S
C176 O169 1.247 . S
C176 O170 1.261 . S
C177 O172 1.259 . S
C177 O174 1.235 . S
O178 Co168 2.021 . S
O178 C175 1.238 . S
O179 Co173 2.052 . S
O179 C175 1.241 . S
O180 Co168 2.137 . S
O180 C171 1.247 . S
O181 Co168 2.244 . S
O181 C171 1.272 . S
O181 Co173 2.135 . S
Co182 O183 2.216 . S
Co182 O184 2.091 . S
Co182 O186 2.004 . S
Co182 O192 2.021 . S
Co182 O194 2.137 . S
Co182 O195 2.244 . S
O183 Co182 2.216 . S
O183 C190 1.247 . S
O184 Co182 2.091 . S
O184 C190 1.261 . S
C185 O194 1.247 . S
C185 O195 1.272 . S
O186 Co182 2.004 . S
O186 C191 1.259 . S
Co187 O188 2.061 . S
Co187 O193 2.052 . S
Co187 O195 2.135 . S
O188 Co187 2.061 . S
O188 C191 1.235 . S
C189 O192 1.238 . S
C189 O193 1.241 . S
C190 O183 1.247 . S
C190 O184 1.261 . S
C191 O186 1.259 . S
C191 O188 1.235 . S
O192 Co182 2.021 . S
O192 C189 1.238 . S
O193 Co187 2.052 . S
O193 C189 1.241 . S
O194 Co182 2.137 . S
O194 C185 1.247 . S
O195 Co182 2.244 . S
O195 C185 1.272 . S
O195 Co187 2.135 . S
Co196 O197 2.216 . S
Co196 O198 2.091 . S
Co196 O200 2.004 . S
Co196 O206 2.021 . S
Co196 O208 2.137 . S
Co196 O209 2.244 . S
O197 Co196 2.216 . S
O197 C204 1.247 . S
O198 Co196 2.091 . S
O198 C204 1.261 . S
C199 O208 1.247 . S
C199 O209 1.272 . S
O200 Co196 2.004 . S
O200 C205 1.259 . S
Co201 O202 2.061 . S
Co201 O207 2.052 . S
Co201 O209 2.135 . S
O202 Co201 2.061 . S
O202 C205 1.235 . S
C203 O206 1.238 . S
C203 O207 1.241 . S
C204 O197 1.247 . S
C204 O198 1.261 . S
C205 O200 1.259 . S
C205 O202 1.235 . S
O206 Co196 2.021 . S
O206 C203 1.238 . S
O207 Co201 2.052 . S
O207 C203 1.241 . S
O208 Co196 2.137 . S
O208 C199 1.247 . S
O209 Co196 2.244 . S
O209 C199 1.272 . S
O209 Co201 2.135 . S
Co210 O211 2.216 . S
Co210 O212 2.091 . S
Co210 O214 2.004 . S
Co210 O220 2.021 . S
Co210 O222 2.137 . S
Co210 O223 2.244 . S
O211 Co210 2.216 . S
O211 C218 1.247 . S
O212 Co210 2.091 . S
O212 C218 1.261 . S
C213 O222 1.247 . S
C213 O223 1.272 . S
O214 Co210 2.004 . S
O214 C219 1.259 . S
Co215 O216 2.061 . S
Co215 O221 2.052 . S
Co215 O223 2.135 . S
O216 Co215 2.061 . S
O216 C219 1.235 . S
C217 O220 1.238 . S
C217 O221 1.241 . S
C218 O211 1.247 . S
C218 O212 1.261 . S
C219 O214 1.259 . S
C219 O216 1.235 . S
O220 Co210 2.021 . S
O220 C217 1.238 . S
O221 Co215 2.052 . S
O221 C217 1.241 . S
O222 Co210 2.137 . S
O222 C213 1.247 . S
O223 Co210 2.244 . S
O223 C213 1.272 . S
O223 Co215 2.135 . S
Co224 O225 2.216 . S
Co224 O226 2.091 . S
Co224 O228 2.004 . S
Co224 O234 2.021 . S
Co224 O236 2.137 . S
Co224 O237 2.244 . S
O225 Co224 2.216 . S
O225 C232 1.247 . S
O226 Co224 2.091 . S
O226 C232 1.261 . S
C227 O236 1.247 . S
C227 O237 1.272 . S
O228 Co224 2.004 . S
O228 C233 1.259 . S
Co229 O230 2.061 . S
Co229 O235 2.052 . S
Co229 O237 2.135 . S
O230 Co229 2.061 . S
O230 C233 1.235 . S
C231 O234 1.238 . S
C231 O235 1.241 . S
C232 O225 1.247 . S
C232 O226 1.261 . S
C233 O228 1.259 . S
C233 O230 1.235 . S
O234 Co224 2.021 . S
O234 C231 1.238 . S
O235 Co229 2.052 . S
O235 C231 1.241 . S
O236 Co224 2.137 . S
O236 C227 1.247 . S
O237 Co224 2.244 . S
O237 C227 1.272 . S
O237 Co229 2.135 . S
Co238 O239 2.216 . S
Co238 O240 2.091 . S
Co238 O242 2.004 . S
Co238 O248 2.021 . S
Co238 O250 2.137 . S
Co238 O251 2.244 . S
O239 Co238 2.216 . S
O239 C246 1.247 . S
O240 Co238 2.091 . S
O240 C246 1.261 . S
C241 O250 1.247 . S
C241 O251 1.272 . S
O242 Co238 2.004 . S
O242 C247 1.259 . S
Co243 O244 2.061 . S
Co243 O249 2.052 . S
Co243 O251 2.135 . S
O244 Co243 2.061 . S
O244 C247 1.235 . S
C245 O248 1.238 . S
C245 O249 1.241 . S
C246 O239 1.247 . S
C246 O240 1.261 . S
C247 O242 1.259 . S
C247 O244 1.235 . S
O248 Co238 2.021 . S
O248 C245 1.238 . S
O249 Co243 2.052 . S
O249 C245 1.241 . S
O250 Co238 2.137 . S
O250 C241 1.247 . S
O251 Co238 2.244 . S
O251 C241 1.272 . S
O251 Co243 2.135 . S
H252 C270 0.951 . S
H253 C272 0.951 . S
H254 C274 0.950 . S
H255 C275 0.950 . S
H256 C277 0.950 . S
H257 C280 0.950 . S
H258 C281 0.950 . S
H259 C283 0.950 . S
H260 C284 0.950 . S
H261 C285 0.951 . S
H262 C287 0.951 . S
H263 C289 0.950 . S
H264 C290 0.950 . S
H265 C292 0.950 . S
H266 C295 0.950 . S
H267 C296 0.950 . S
H268 C298 0.950 . S
H269 C299 0.950 . S
C270 H252 0.951 . S
C270 C271 1.366 . S
C270 C272 1.388 . S
C271 C270 1.366 . S
C271 C275 1.385 . S
C272 H253 0.951 . S
C272 C270 1.388 . S
C272 C273 1.366 . S
C273 C272 1.366 . S
C273 C274 1.414 . S
C273 C276 1.499 . S
C274 H254 0.950 . S
C274 C273 1.414 . S
C274 C275 1.374 . S
C275 H255 0.950 . S
C275 C271 1.385 . S
C275 C274 1.374 . S
C276 C273 1.499 . S
C276 C277 1.373 . S
C276 C278 1.389 . S
C277 H256 0.950 . S
C277 C276 1.373 . S
C277 C293 1.377 . S
C278 C276 1.389 . S
C278 C279 1.524 . S
C278 C292 1.377 . S
C279 C278 1.524 . S
C279 C280 1.397 . S
C279 C284 1.363 . S
C280 H257 0.950 . S
C280 C279 1.397 . S
C280 C281 1.334 . S
C281 H258 0.950 . S
C281 C280 1.334 . S
C281 C282 1.287 . S
C282 C281 1.287 . S
C282 C283 1.524 . S
C282 H301 0.913 . S
C283 H259 0.950 . S
C283 C282 1.524 . S
C283 C284 1.415 . S
C284 H260 0.950 . S
C284 C279 1.363 . S
C284 C283 1.415 . S
C285 H261 0.951 . S
C285 C286 1.366 . S
C285 C287 1.388 . S
C286 C285 1.366 . S
C286 C290 1.385 . S
C287 H262 0.951 . S
C287 C285 1.388 . S
C287 C288 1.366 . S
C288 C287 1.366 . S
C288 C289 1.414 . S
C288 C291 1.499 . S
C289 H263 0.950 . S
C289 C288 1.414 . S
C289 C290 1.374 . S
C290 H264 0.950 . S
C290 C286 1.385 . S
C290 C289 1.374 . S
C291 C288 1.499 . S
C291 C292 1.373 . S
C291 C293 1.389 . S
C292 H265 0.950 . S
C292 C278 1.377 . S
C292 C291 1.373 . S
C293 C277 1.377 . S
C293 C291 1.389 . S
C293 C294 1.524 . S
C294 C293 1.524 . S
C294 C295 1.397 . S
C294 C299 1.363 . S
C295 H266 0.950 . S
C295 C294 1.397 . S
C295 C296 1.334 . S
C296 H267 0.950 . S
C296 C295 1.334 . S
C296 C297 1.287 . S
C297 C296 1.287 . S
C297 C298 1.524 . S
C297 H300 0.999 . S
C298 H268 0.950 . S
C298 C297 1.524 . S
C298 C299 1.415 . S
C299 H269 0.950 . S
C299 C294 1.363 . S
C299 C298 1.415 . S
H300 C297 0.999 . S
H301 C282 0.913 . S
H302 C320 0.951 . S
H303 C322 0.951 . S
H304 C324 0.950 . S
H305 C325 0.950 . S
H306 C327 0.950 . S
H307 C330 0.950 . S
H308 C331 0.947 . S
H309 C333 0.950 . S
H310 C334 0.950 . S
H311 C335 0.951 . S
H312 C337 0.951 . S
H313 C339 0.950 . S
H314 C340 0.950 . S
H315 C342 0.950 . S
H316 C345 0.950 . S
H317 C346 0.950 . S
H318 C348 0.950 . S
H319 C349 0.950 . S
C320 H302 0.951 . S
C320 C321 1.366 . S
C320 C322 1.388 . S
C321 C320 1.366 . S
C321 C325 1.385 . S
C322 H303 0.951 . S
C322 C320 1.388 . S
C322 C323 1.366 . S
C323 C322 1.366 . S
C323 C324 1.414 . S
C323 C326 1.499 . S
C324 H304 0.950 . S
C324 C323 1.414 . S
C324 C325 1.374 . S
C325 H305 0.950 . S
C325 C321 1.385 . S
C325 C324 1.374 . S
C326 C323 1.499 . S
C326 C327 1.373 . S
C326 C328 1.389 . S
C327 H306 0.950 . S
C327 C326 1.373 . S
C327 C343 1.377 . S
C328 C326 1.389 . S
C328 C329 1.524 . S
C328 C342 1.377 . S
C329 C328 1.524 . S
C329 C330 1.397 . S
C329 C334 1.363 . S
C330 H307 0.950 . S
C330 C329 1.397 . S
C330 C331 1.337 1_545 S
C331 H308 0.947 . S
C331 C330 1.337 1_565 S
C331 C332 1.287 1_565 S
C332 C331 1.287 1_545 S
C332 C333 1.524 . S
C332 H351 0.913 1_545 S
C333 H309 0.950 . S
C333 C332 1.524 . S
C333 C334 1.415 . S
C334 H310 0.950 . S
C334 C329 1.363 . S
C334 C333 1.415 . S
C335 H311 0.951 . S
C335 C336 1.366 . S
C335 C337 1.388 . S
C336 C335 1.366 . S
C336 C340 1.385 . S
C337 H312 0.951 . S
C337 C335 1.388 . S
C337 C338 1.366 . S
C338 C337 1.366 . S
C338 C339 1.414 . S
C338 C341 1.499 . S
C339 H313 0.950 . S
C339 C338 1.414 . S
C339 C340 1.374 . S
C340 H314 0.950 . S
C340 C336 1.385 . S
C340 C339 1.374 . S
C341 C338 1.499 . S
C341 C342 1.373 . S
C341 C343 1.389 . S
C342 H315 0.950 . S
C342 C328 1.377 . S
C342 C341 1.373 . S
C343 C327 1.377 . S
C343 C341 1.389 . S
C343 C344 1.524 . S
C344 C343 1.524 . S
C344 C345 1.397 . S
C344 C349 1.363 . S
C345 H316 0.950 . S
C345 C344 1.397 . S
C345 C346 1.334 . S
C346 H317 0.950 . S
C346 C345 1.334 . S
C346 C347 1.287 . S
C347 C346 1.287 . S
C347 C348 1.524 . S
C347 H350 0.999 . S
C348 H318 0.950 . S
C348 C347 1.524 . S
C348 C349 1.415 . S
C349 H319 0.950 . S
C349 C344 1.363 . S
C349 C348 1.415 . S
H350 C347 0.999 . S
H351 C332 0.913 1_565 S
H352 C370 0.951 . S
H353 C372 0.951 . S
H354 C374 0.950 . S
H355 C375 0.950 . S
H356 C377 0.950 . S
H357 C380 0.950 . S
H358 C381 0.950 . S
H359 C383 0.950 . S
H360 C384 0.950 . S
H361 C385 0.951 . S
H362 C387 0.951 . S
H363 C389 0.950 . S
H364 C390 0.950 . S
H365 C392 0.950 . S
H366 C395 0.950 . S
H367 C396 0.950 . S
H368 C398 0.951 . S
H369 C399 0.950 . S
C370 H352 0.951 . S
C370 C371 1.366 . S
C370 C372 1.388 . S
C371 C370 1.366 . S
C371 C375 1.385 . S
C372 H353 0.951 . S
C372 C370 1.388 . S
C372 C373 1.366 . S
C373 C372 1.366 . S
C373 C374 1.414 . S
C373 C376 1.499 . S
C374 H354 0.950 . S
C374 C373 1.414 . S
C374 C375 1.374 . S
C375 H355 0.950 . S
C375 C371 1.385 . S
C375 C374 1.374 . S
C376 C373 1.499 . S
C376 C377 1.373 . S
C376 C378 1.389 . S
C377 H356 0.950 . S
C377 C376 1.373 . S
C377 C393 1.377 . S
C378 C376 1.389 . S
C378 C379 1.524 . S
C378 C392 1.377 . S
C379 C378 1.524 . S
C379 C380 1.397 . S
C379 C384 1.363 . S
C380 H357 0.950 . S
C380 C379 1.397 . S
C380 C381 1.334 . S
C381 H358 0.950 . S
C381 C380 1.334 . S
C381 C382 1.287 . S
C382 C381 1.287 . S
C382 C383 1.524 . S
C382 H401 0.913 . S
C383 H359 0.950 . S
C383 C382 1.524 . S
C383 C384 1.415 . S
C384 H360 0.950 . S
C384 C379 1.363 . S
C384 C383 1.415 . S
C385 H361 0.951 . S
C385 C386 1.366 . S
C385 C387 1.388 . S
C386 C385 1.366 . S
C386 C390 1.385 . S
C387 H362 0.951 . S
C387 C385 1.388 . S
C387 C388 1.366 . S
C388 C387 1.366 . S
C388 C389 1.414 . S
C388 C391 1.499 . S
C389 H363 0.950 . S
C389 C388 1.414 . S
C389 C390 1.374 . S
C390 H364 0.950 . S
C390 C386 1.385 . S
C390 C389 1.374 . S
C391 C388 1.499 . S
C391 C392 1.373 . S
C391 C393 1.389 . S
C392 H365 0.950 . S
C392 C378 1.377 . S
C392 C391 1.373 . S
C393 C377 1.377 . S
C393 C391 1.389 . S
C393 C394 1.524 . S
C394 C393 1.524 . S
C394 C395 1.397 . S
C394 C399 1.363 . S
C395 H366 0.950 . S
C395 C394 1.397 . S
C395 C396 1.334 1_655 S
C396 H367 0.950 . S
C396 C395 1.334 1_455 S
C396 C397 1.287 . S
C397 C396 1.287 . S
C397 C398 1.524 1_455 S
C397 H400 0.999 . S
C398 H368 0.951 . S
C398 C397 1.524 1_655 S
C398 C399 1.415 . S
C399 H369 0.950 . S
C399 C394 1.363 . S
C399 C398 1.415 . S
H400 C397 0.999 . S
H401 C382 0.913 . S
H402 C420 0.951 . S
H403 C422 0.951 . S
H404 C424 0.950 . S
H405 C425 0.950 . S
H406 C427 0.950 . S
H407 C430 0.950 . S
H408 C431 0.950 . S
H409 C433 0.950 . S
H410 C434 0.950 . S
H411 C435 0.951 . S
H412 C437 0.951 . S
H413 C439 0.950 . S
H414 C440 0.950 . S
H415 C442 0.950 . S
H416 C445 0.950 . S
H417 C446 0.950 . S
H418 C448 0.950 . S
H419 C449 0.950 . S
C420 H402 0.951 . S
C420 C421 1.366 . S
C420 C422 1.388 . S
C421 C420 1.366 . S
C421 C425 1.385 . S
C422 H403 0.951 . S
C422 C420 1.388 . S
C422 C423 1.366 . S
C423 C422 1.366 . S
C423 C424 1.414 . S
C423 C426 1.499 . S
C424 H404 0.950 . S
C424 C423 1.414 . S
C424 C425 1.374 . S
C425 H405 0.950 . S
C425 C421 1.385 . S
C425 C424 1.374 . S
C426 C423 1.499 . S
C426 C427 1.373 . S
C426 C428 1.389 . S
C427 H406 0.950 . S
C427 C426 1.373 . S
C427 C443 1.377 . S
C428 C426 1.389 . S
C428 C429 1.524 . S
C428 C442 1.377 . S
C429 C428 1.524 . S
C429 C430 1.397 . S
C429 C434 1.363 . S
C430 H407 0.950 . S
C430 C429 1.397 . S
C430 C431 1.334 . S
C431 H408 0.950 . S
C431 C430 1.334 . S
C431 C432 1.287 . S
C432 C431 1.287 . S
C432 C433 1.524 . S
C432 H451 0.913 . S
C433 H409 0.950 . S
C433 C432 1.524 . S
C433 C434 1.415 . S
C434 H410 0.950 . S
C434 C429 1.363 . S
C434 C433 1.415 . S
C435 H411 0.951 . S
C435 C436 1.366 . S
C435 C437 1.388 . S
C436 C435 1.366 . S
C436 C440 1.385 . S
C437 H412 0.951 . S
C437 C435 1.388 . S
C437 C438 1.366 . S
C438 C437 1.366 . S
C438 C439 1.414 . S
C438 C441 1.499 . S
C439 H413 0.950 . S
C439 C438 1.414 . S
C439 C440 1.374 . S
C440 H414 0.950 . S
C440 C436 1.385 . S
C440 C439 1.374 . S
C441 C438 1.499 . S
C441 C442 1.373 . S
C441 C443 1.389 . S
C442 H415 0.950 . S
C442 C428 1.377 . S
C442 C441 1.373 . S
C443 C427 1.377 . S
C443 C441 1.389 . S
C443 C444 1.524 . S
C444 C443 1.524 . S
C444 C445 1.397 . S
C444 C449 1.363 . S
C445 H416 0.950 . S
C445 C444 1.397 . S
C445 C446 1.334 . S
C446 H417 0.950 . S
C446 C445 1.334 . S
C446 C447 1.287 . S
C447 C446 1.287 . S
C447 C448 1.524 . S
C447 H450 0.999 . S
C448 H418 0.950 . S
C448 C447 1.524 . S
C448 C449 1.415 . S
C449 H419 0.950 . S
C449 C444 1.363 . S
C449 C448 1.415 . S
H450 C447 0.999 . S
H451 C432 0.913 . S
H452 C470 0.951 . S
H453 C472 0.951 . S
H454 C474 0.950 . S
H455 C475 0.950 . S
H456 C477 0.950 . S
H457 C480 0.950 . S
H458 C481 0.950 . S
H459 C483 0.950 . S
H460 C484 0.950 . S
H461 C485 0.951 . S
H462 C487 0.951 . S
H463 C489 0.950 . S
H464 C490 0.950 . S
H465 C492 0.950 . S
H466 C495 0.950 . S
H467 C496 0.950 . S
H468 C498 0.950 . S
H469 C499 0.950 . S
C470 H452 0.951 . S
C470 C471 1.366 . S
C470 C472 1.388 . S
C471 C470 1.366 . S
C471 C475 1.385 . S
C472 H453 0.951 . S
C472 C470 1.388 . S
C472 C473 1.366 . S
C473 C472 1.366 . S
C473 C474 1.414 . S
C473 C476 1.499 . S
C474 H454 0.950 . S
C474 C473 1.414 . S
C474 C475 1.374 . S
C475 H455 0.950 . S
C475 C471 1.385 . S
C475 C474 1.374 . S
C476 C473 1.499 . S
C476 C477 1.373 . S
C476 C478 1.389 . S
C477 H456 0.950 . S
C477 C476 1.373 . S
C477 C493 1.377 . S
C478 C476 1.389 . S
C478 C479 1.524 . S
C478 C492 1.377 . S
C479 C478 1.524 . S
C479 C480 1.397 . S
C479 C484 1.363 . S
C480 H457 0.950 . S
C480 C479 1.397 . S
C480 C481 1.334 . S
C481 H458 0.950 . S
C481 C480 1.334 . S
C481 C482 1.287 . S
C482 C481 1.287 . S
C482 C483 1.524 . S
C482 H501 0.913 . S
C483 H459 0.950 . S
C483 C482 1.524 . S
C483 C484 1.415 . S
C484 H460 0.950 . S
C484 C479 1.363 . S
C484 C483 1.415 . S
C485 H461 0.951 . S
C485 C486 1.366 . S
C485 C487 1.388 . S
C486 C485 1.366 . S
C486 C490 1.385 . S
C487 H462 0.951 . S
C487 C485 1.388 . S
C487 C488 1.366 . S
C488 C487 1.366 . S
C488 C489 1.414 . S
C488 C491 1.499 . S
C489 H463 0.950 . S
C489 C488 1.414 . S
C489 C490 1.374 . S
C490 H464 0.950 . S
C490 C486 1.385 . S
C490 C489 1.374 . S
C491 C488 1.499 . S
C491 C492 1.373 . S
C491 C493 1.389 . S
C492 H465 0.950 . S
C492 C478 1.377 . S
C492 C491 1.373 . S
C493 C477 1.377 . S
C493 C491 1.389 . S
C493 C494 1.524 . S
C494 C493 1.524 . S
C494 C495 1.397 . S
C494 C499 1.363 . S
C495 H466 0.950 . S
C495 C494 1.397 . S
C495 C496 1.334 . S
C496 H467 0.950 . S
C496 C495 1.334 . S
C496 C497 1.287 . S
C497 C496 1.287 . S
C497 C498 1.524 . S
C497 H500 0.999 . S
C498 H468 0.950 . S
C498 C497 1.524 . S
C498 C499 1.415 . S
C499 H469 0.950 . S
C499 C494 1.363 . S
C499 C498 1.415 . S
H500 C497 0.999 . S
H501 C482 0.913 . S
H502 C520 0.951 . S
H503 C522 0.951 . S
H504 C524 0.950 . S
H505 C525 0.950 . S
H506 C527 0.950 . S
H507 C530 0.950 . S
H508 C531 0.950 . S
H509 C533 0.950 . S
H510 C534 0.950 . S
H511 C535 0.951 . S
H512 C537 0.951 . S
H513 C539 0.950 . S
H514 C540 0.950 . S
H515 C542 0.950 . S
H516 C545 0.950 . S
H517 C546 0.950 . S
H518 C548 0.950 . S
H519 C549 0.950 . S
C520 H502 0.951 . S
C520 C521 1.366 . S
C520 C522 1.388 . S
C521 C520 1.366 . S
C521 C525 1.385 . S
C522 H503 0.951 . S
C522 C520 1.388 . S
C522 C523 1.366 . S
C523 C522 1.366 . S
C523 C524 1.414 . S
C523 C526 1.499 . S
C524 H504 0.950 . S
C524 C523 1.414 . S
C524 C525 1.374 . S
C525 H505 0.950 . S
C525 C521 1.385 . S
C525 C524 1.374 . S
C526 C523 1.499 . S
C526 C527 1.373 . S
C526 C528 1.389 . S
C527 H506 0.950 . S
C527 C526 1.373 . S
C527 C543 1.377 . S
C528 C526 1.389 . S
C528 C529 1.524 . S
C528 C542 1.377 . S
C529 C528 1.524 . S
C529 C530 1.397 . S
C529 C534 1.363 . S
C530 H507 0.950 . S
C530 C529 1.397 . S
C530 C531 1.334 . S
C531 H508 0.950 . S
C531 C530 1.334 . S
C531 C532 1.287 . S
C532 C531 1.287 . S
C532 C533 1.524 . S
C532 H551 0.913 . S
C533 H509 0.950 . S
C533 C532 1.524 . S
C533 C534 1.415 . S
C534 H510 0.950 . S
C534 C529 1.363 . S
C534 C533 1.415 . S
C535 H511 0.951 . S
C535 C536 1.366 . S
C535 C537 1.388 . S
C536 C535 1.366 . S
C536 C540 1.385 . S
C537 H512 0.951 . S
C537 C535 1.388 . S
C537 C538 1.366 . S
C538 C537 1.366 . S
C538 C539 1.414 . S
C538 C541 1.499 . S
C539 H513 0.950 . S
C539 C538 1.414 . S
C539 C540 1.374 . S
C540 H514 0.950 . S
C540 C536 1.385 . S
C540 C539 1.374 . S
C541 C538 1.499 . S
C541 C542 1.373 . S
C541 C543 1.389 . S
C542 H515 0.950 . S
C542 C528 1.377 . S
C542 C541 1.373 . S
C543 C527 1.377 . S
C543 C541 1.389 . S
C543 C544 1.524 . S
C544 C543 1.524 . S
C544 C545 1.397 . S
C544 C549 1.363 . S
C545 H516 0.950 . S
C545 C544 1.397 . S
C545 C546 1.334 . S
C546 H517 0.950 . S
C546 C545 1.334 . S
C546 C547 1.287 . S
C547 C546 1.287 . S
C547 C548 1.524 . S
C547 H550 0.999 . S
C548 H518 0.950 . S
C548 C547 1.524 . S
C548 C549 1.415 . S
C549 H519 0.950 . S
C549 C544 1.363 . S
C549 C548 1.415 . S
H550 C547 0.999 . S
H551 C532 0.913 . S
H552 C570 0.951 . S
H553 C572 0.951 . S
H554 C574 0.950 . S
H555 C575 0.950 . S
H556 C577 0.950 . S
H557 C580 0.950 . S
H558 C581 0.950 . S
H559 C583 0.950 . S
H560 C584 0.950 1_455 S
H561 C585 0.951 . S
H562 C587 0.951 . S
H563 C589 0.950 . S
H564 C590 0.950 . S
H565 C592 0.950 . S
H566 C595 0.950 . S
H567 C596 0.950 . S
H568 C598 0.950 . S
H569 C599 0.946 1_655 S
C570 H552 0.951 . S
C570 C571 1.366 . S
C570 C572 1.388 . S
C571 C570 1.366 . S
C571 C575 1.385 . S
C572 H553 0.951 . S
C572 C570 1.388 . S
C572 C573 1.366 . S
C573 C572 1.366 . S
C573 C574 1.414 . S
C573 C576 1.499 . S
C574 H554 0.950 . S
C574 C573 1.414 . S
C574 C575 1.374 . S
C575 H555 0.950 . S
C575 C571 1.385 . S
C575 C574 1.374 . S
C576 C573 1.499 . S
C576 C577 1.373 . S
C576 C578 1.389 . S
C577 H556 0.950 . S
C577 C576 1.373 . S
C577 C593 1.377 1_655 S
C578 C576 1.389 . S
C578 C579 1.524 . S
C578 C592 1.377 1_655 S
C579 C578 1.524 . S
C579 C580 1.397 . S
C579 C584 1.363 . S
C580 H557 0.950 . S
C580 C579 1.397 . S
C580 C581 1.334 . S
C581 H558 0.950 . S
C581 C580 1.334 . S
C581 C582 1.287 . S
C582 C581 1.287 . S
C582 C583 1.524 . S
C582 H601 0.913 . S
C583 H559 0.950 . S
C583 C582 1.524 . S
C583 C584 1.415 . S
C584 H560 0.950 1_655 S
C584 C579 1.363 . S
C584 C583 1.415 . S
C585 H561 0.951 . S
C585 C586 1.366 . S
C585 C587 1.388 . S
C586 C585 1.366 . S
C586 C590 1.385 . S
C587 H562 0.951 . S
C587 C585 1.388 . S
C587 C588 1.366 . S
C588 C587 1.366 . S
C588 C589 1.414 . S
C588 C591 1.499 . S
C589 H563 0.950 . S
C589 C588 1.414 . S
C589 C590 1.374 . S
C590 H564 0.950 . S
C590 C586 1.385 . S
C590 C589 1.374 . S
C591 C588 1.499 . S
C591 C592 1.373 . S
C591 C593 1.389 . S
C592 H565 0.950 . S
C592 C578 1.377 1_455 S
C592 C591 1.373 . S
C593 C577 1.377 1_455 S
C593 C591 1.389 . S
C593 C594 1.524 . S
C594 C593 1.524 . S
C594 C595 1.397 . S
C594 C599 1.363 . S
C595 H566 0.950 . S
C595 C594 1.397 . S
C595 C596 1.334 . S
C596 H567 0.950 . S
C596 C595 1.334 . S
C596 C597 1.287 . S
C597 C596 1.287 . S
C597 C598 1.524 . S
C597 H600 0.999 . S
C598 H568 0.950 . S
C598 C597 1.524 . S
C598 C599 1.415 . S
C599 H569 0.946 1_455 S
C599 C594 1.363 . S
C599 C598 1.415 . S
H600 C597 0.999 . S
H601 C582 0.913 . S
H602 C620 0.951 . S
H603 C622 0.951 . S
H604 C624 0.950 . S
H605 C625 0.950 . S
H606 C627 0.950 . S
H607 C630 0.950 . S
H608 C631 0.950 . S
H609 C633 0.950 . S
H610 C634 0.950 . S
H611 C635 0.951 . S
H612 C637 0.951 . S
H613 C639 0.950 . S
H614 C640 0.950 . S
H615 C642 0.950 . S
H616 C645 0.950 . S
H617 C646 0.950 . S
H618 C648 0.950 . S
H619 C649 0.950 . S
C620 H602 0.951 . S
C620 C621 1.366 . S
C620 C622 1.388 . S
C621 C620 1.366 . S
C621 C625 1.385 . S
C622 H603 0.951 . S
C622 C620 1.388 . S
C622 C623 1.366 . S
C623 C622 1.366 . S
C623 C624 1.414 . S
C623 C626 1.499 . S
C624 H604 0.950 . S
C624 C623 1.414 . S
C624 C625 1.374 . S
C625 H605 0.950 . S
C625 C621 1.385 . S
C625 C624 1.374 . S
C626 C623 1.499 . S
C626 C627 1.373 . S
C626 C628 1.389 . S
C627 H606 0.950 . S
C627 C626 1.373 . S
C627 C643 1.377 . S
C628 C626 1.389 . S
C628 C629 1.524 . S
C628 C642 1.377 . S
C629 C628 1.524 . S
C629 C630 1.397 . S
C629 C634 1.363 . S
C630 H607 0.950 . S
C630 C629 1.397 . S
C630 C631 1.334 . S
C631 H608 0.950 . S
C631 C630 1.334 . S
C631 C632 1.287 . S
C632 C631 1.287 . S
C632 C633 1.524 . S
C632 H651 0.913 . S
C633 H609 0.950 . S
C633 C632 1.524 . S
C633 C634 1.415 . S
C634 H610 0.950 . S
C634 C629 1.363 . S
C634 C633 1.415 . S
C635 H611 0.951 . S
C635 C636 1.366 . S
C635 C637 1.388 . S
C636 C635 1.366 . S
C636 C640 1.385 . S
C637 H612 0.951 . S
C637 C635 1.388 . S
C637 C638 1.366 . S
C638 C637 1.366 . S
C638 C639 1.414 . S
C638 C641 1.499 . S
C639 H613 0.950 . S
C639 C638 1.414 . S
C639 C640 1.374 . S
C640 H614 0.950 . S
C640 C636 1.385 . S
C640 C639 1.374 . S
C641 C638 1.499 . S
C641 C642 1.373 . S
C641 C643 1.389 . S
C642 H615 0.950 . S
C642 C628 1.377 . S
C642 C641 1.373 . S
C643 C627 1.377 . S
C643 C641 1.389 . S
C643 C644 1.524 . S
C644 C643 1.524 . S
C644 C645 1.397 . S
C644 C649 1.363 . S
C645 H616 0.950 . S
C645 C644 1.397 . S
C645 C646 1.334 . S
C646 H617 0.950 . S
C646 C645 1.334 . S
C646 C647 1.287 . S
C647 C646 1.287 . S
C647 C648 1.524 . S
C647 H650 0.999 . S
C648 H618 0.950 . S
C648 C647 1.524 . S
C648 C649 1.415 . S
C649 H619 0.950 . S
C649 C644 1.363 . S
C649 C648 1.415 . S
H650 C647 0.999 . S
H651 C632 0.913 . S
H652 C670 0.951 . S
H653 C672 0.951 . S
H654 C674 0.950 . S
H655 C675 0.950 . S
H656 C677 0.950 . S
H657 C680 0.950 . S
H658 C681 0.950 . S
H659 C683 0.950 . S
H660 C684 0.950 . S
H661 C685 0.951 . S
H662 C687 0.951 . S
H663 C689 0.950 . S
H664 C690 0.950 . S
H665 C692 0.950 . S
H666 C695 0.950 . S
H667 C696 0.950 . S
H668 C698 0.950 . S
H669 C699 0.950 . S
C670 H652 0.951 . S
C670 C671 1.366 . S
C670 C672 1.388 . S
C671 C670 1.366 . S
C671 C675 1.385 . S
C672 H653 0.951 . S
C672 C670 1.388 . S
C672 C673 1.366 . S
C673 C672 1.366 . S
C673 C674 1.414 . S
C673 C676 1.499 . S
C674 H654 0.950 . S
C674 C673 1.414 . S
C674 C675 1.374 . S
C675 H655 0.950 . S
C675 C671 1.385 . S
C675 C674 1.374 . S
C676 C673 1.499 . S
C676 C677 1.373 . S
C676 C678 1.389 . S
C677 H656 0.950 . S
C677 C676 1.373 . S
C677 C693 1.377 1_545 S
C678 C676 1.389 . S
C678 C679 1.524 . S
C678 C692 1.377 1_545 S
C679 C678 1.524 . S
C679 C680 1.397 . S
C679 C684 1.363 . S
C680 H657 0.950 . S
C680 C679 1.397 . S
C680 C681 1.334 . S
C681 H658 0.950 . S
C681 C680 1.334 . S
C681 C682 1.287 . S
C682 C681 1.287 . S
C682 C683 1.524 . S
C682 H701 0.913 . S
C683 H659 0.950 . S
C683 C682 1.524 . S
C683 C684 1.415 . S
C684 H660 0.950 . S
C684 C679 1.363 . S
C684 C683 1.415 . S
C685 H661 0.951 . S
C685 C686 1.366 . S
C685 C687 1.388 . S
C686 C685 1.366 . S
C686 C690 1.385 . S
C687 H662 0.951 . S
C687 C685 1.388 . S
C687 C688 1.366 . S
C688 C687 1.366 . S
C688 C689 1.414 . S
C688 C691 1.499 . S
C689 H663 0.950 . S
C689 C688 1.414 . S
C689 C690 1.374 . S
C690 H664 0.950 . S
C690 C686 1.385 . S
C690 C689 1.374 . S
C691 C688 1.499 . S
C691 C692 1.373 . S
C691 C693 1.389 . S
C692 H665 0.950 . S
C692 C678 1.377 1_565 S
C692 C691 1.373 . S
C693 C677 1.377 1_565 S
C693 C691 1.389 . S
C693 C694 1.524 . S
C694 C693 1.524 . S
C694 C695 1.397 . S
C694 C699 1.363 . S
C695 H666 0.950 . S
C695 C694 1.397 . S
C695 C696 1.334 . S
C696 H667 0.950 . S
C696 C695 1.334 . S
C696 C697 1.287 . S
C697 C696 1.287 . S
C697 C698 1.524 . S
C697 H700 0.999 . S
C698 H668 0.950 . S
C698 C697 1.524 . S
C698 C699 1.415 . S
C699 H669 0.950 . S
C699 C694 1.363 . S
C699 C698 1.415 . S
H700 C697 0.999 . S
H701 C682 0.913 . S
H702 C720 0.951 . S
H703 C722 0.951 . S
H704 C724 0.950 . S
H705 C725 0.950 . S
H706 C727 0.950 . S
H707 C730 0.950 . S
H708 C731 0.950 . S
H709 C733 0.950 . S
H710 C734 0.950 . S
H711 C735 0.951 . S
H712 C737 0.951 . S
H713 C739 0.950 . S
H714 C740 0.950 . S
H715 C742 0.950 . S
H716 C745 0.950 . S
H717 C746 0.950 . S
H718 C748 0.950 . S
H719 C749 0.950 . S
C720 H702 0.951 . S
C720 C721 1.366 . S
C720 C722 1.388 . S
C721 C720 1.366 . S
C721 C725 1.385 . S
C722 H703 0.951 . S
C722 C720 1.388 . S
C722 C723 1.366 . S
C723 C722 1.366 . S
C723 C724 1.414 . S
C723 C726 1.499 . S
C724 H704 0.950 . S
C724 C723 1.414 . S
C724 C725 1.374 . S
C725 H705 0.950 . S
C725 C721 1.385 . S
C725 C724 1.374 . S
C726 C723 1.499 . S
C726 C727 1.373 . S
C726 C728 1.389 . S
C727 H706 0.950 . S
C727 C726 1.373 . S
C727 C743 1.377 1_455 S
C728 C726 1.389 . S
C728 C729 1.524 . S
C728 C742 1.377 1_455 S
C729 C728 1.524 . S
C729 C730 1.397 . S
C729 C734 1.363 . S
C730 H707 0.950 . S
C730 C729 1.397 . S
C730 C731 1.334 . S
C731 H708 0.950 . S
C731 C730 1.334 . S
C731 C732 1.287 . S
C732 C731 1.287 . S
C732 C733 1.524 . S
C732 H751 0.913 . S
C733 H709 0.950 . S
C733 C732 1.524 . S
C733 C734 1.415 . S
C734 H710 0.950 . S
C734 C729 1.363 . S
C734 C733 1.415 . S
C735 H711 0.951 . S
C735 C736 1.366 . S
C735 C737 1.388 . S
C736 C735 1.366 . S
C736 C740 1.385 . S
C737 H712 0.951 . S
C737 C735 1.388 . S
C737 C738 1.366 . S
C738 C737 1.366 . S
C738 C739 1.414 . S
C738 C741 1.499 . S
C739 H713 0.950 . S
C739 C738 1.414 . S
C739 C740 1.374 . S
C740 H714 0.950 . S
C740 C736 1.385 . S
C740 C739 1.374 . S
C741 C738 1.499 . S
C741 C742 1.373 . S
C741 C743 1.389 . S
C742 H715 0.950 . S
C742 C728 1.377 1_655 S
C742 C741 1.373 . S
C743 C727 1.377 1_655 S
C743 C741 1.389 . S
C743 C744 1.524 . S
C744 C743 1.524 . S
C744 C745 1.397 . S
C744 C749 1.363 . S
C745 H716 0.950 . S
C745 C744 1.397 . S
C745 C746 1.334 . S
C746 H717 0.950 . S
C746 C745 1.334 . S
C746 C747 1.287 . S
C747 C746 1.287 . S
C747 C748 1.524 . S
C747 H750 0.999 . S
C748 H718 0.950 . S
C748 C747 1.524 . S
C748 C749 1.415 . S
C749 H719 0.950 . S
C749 C744 1.363 . S
C749 C748 1.415 . S
H750 C747 0.999 . S
H751 C732 0.913 . S
H752 C770 0.951 . S
H753 C772 0.951 . S
H754 C774 0.950 . S
H755 C775 0.950 . S
H756 C777 0.950 . S
H757 C780 0.950 . S
H758 C781 0.950 . S
H759 C783 0.950 . S
H760 C784 0.950 . S
H761 C785 0.951 . S
H762 C787 0.951 . S
H763 C789 0.950 . S
H764 C790 0.950 . S
H765 C792 0.950 . S
H766 C795 0.950 . S
H767 C796 0.950 . S
H768 C798 0.950 . S
H769 C799 0.950 . S
C770 H752 0.951 . S
C770 C771 1.366 . S
C770 C772 1.388 . S
C771 C770 1.366 . S
C771 C775 1.385 . S
C772 H753 0.951 . S
C772 C770 1.388 . S
C772 C773 1.366 . S
C773 C772 1.366 . S
C773 C774 1.414 . S
C773 C776 1.499 . S
C774 H754 0.950 . S
C774 C773 1.414 . S
C774 C775 1.374 . S
C775 H755 0.950 . S
C775 C771 1.385 . S
C775 C774 1.374 . S
C776 C773 1.499 . S
C776 C777 1.373 . S
C776 C778 1.389 . S
C777 H756 0.950 . S
C777 C776 1.373 . S
C777 C793 1.377 . S
C778 C776 1.389 . S
C778 C779 1.524 . S
C778 C792 1.377 . S
C779 C778 1.524 . S
C779 C780 1.397 . S
C779 C784 1.363 . S
C780 H757 0.950 . S
C780 C779 1.397 . S
C780 C781 1.334 . S
C781 H758 0.950 . S
C781 C780 1.334 . S
C781 C782 1.287 . S
C782 C781 1.287 . S
C782 C783 1.524 . S
C782 H801 0.913 . S
C783 H759 0.950 . S
C783 C782 1.524 . S
C783 C784 1.415 . S
C784 H760 0.950 . S
C784 C779 1.363 . S
C784 C783 1.415 . S
C785 H761 0.951 . S
C785 C786 1.366 . S
C785 C787 1.388 . S
C786 C785 1.366 . S
C786 C790 1.385 . S
C787 H762 0.951 . S
C787 C785 1.388 . S
C787 C788 1.366 . S
C788 C787 1.366 . S
C788 C789 1.414 . S
C788 C791 1.499 . S
C789 H763 0.950 . S
C789 C788 1.414 . S
C789 C790 1.374 . S
C790 H764 0.950 . S
C790 C786 1.385 . S
C790 C789 1.374 . S
C791 C788 1.499 . S
C791 C792 1.373 . S
C791 C793 1.389 . S
C792 H765 0.950 . S
C792 C778 1.377 . S
C792 C791 1.373 . S
C793 C777 1.377 . S
C793 C791 1.389 . S
C793 C794 1.524 . S
C794 C793 1.524 . S
C794 C795 1.397 . S
C794 C799 1.363 . S
C795 H766 0.950 . S
C795 C794 1.397 . S
C795 C796 1.334 . S
C796 H767 0.950 . S
C796 C795 1.334 . S
C796 C797 1.287 . S
C797 C796 1.287 . S
C797 C798 1.524 . S
C797 H800 0.999 . S
C798 H768 0.950 . S
C798 C797 1.524 . S
C798 C799 1.415 . S
C799 H769 0.950 . S
C799 C794 1.363 . S
C799 C798 1.415 . S
H800 C797 0.999 . S
H801 C782 0.913 . S
H802 C820 0.951 . S
H803 C822 0.951 . S
H804 C824 0.950 . S
H805 C825 0.950 . S
H806 C827 0.950 . S
H807 C830 0.950 . S
H808 C831 0.950 . S
H809 C833 0.950 . S
H810 C834 0.950 . S
H811 C835 0.951 . S
H812 C837 0.951 . S
H813 C839 0.950 . S
H814 C840 0.950 . S
H815 C842 0.950 . S
H816 C845 0.950 . S
H817 C846 0.950 . S
H818 C848 0.950 . S
H819 C849 0.950 . S
C820 H802 0.951 . S
C820 C821 1.366 . S
C820 C822 1.388 . S
C821 C820 1.366 . S
C821 C825 1.385 . S
C822 H803 0.951 . S
C822 C820 1.388 . S
C822 C823 1.366 . S
C823 C822 1.366 . S
C823 C824 1.414 . S
C823 C826 1.499 . S
C824 H804 0.950 . S
C824 C823 1.414 . S
C824 C825 1.374 . S
C825 H805 0.950 . S
C825 C821 1.385 . S
C825 C824 1.374 . S
C826 C823 1.499 . S
C826 C827 1.373 . S
C826 C828 1.389 . S
C827 H806 0.950 . S
C827 C826 1.373 . S
C827 C843 1.377 1_545 S
C828 C826 1.389 . S
C828 C829 1.524 . S
C828 C842 1.377 1_545 S
C829 C828 1.524 . S
C829 C830 1.397 . S
C829 C834 1.363 . S
C830 H807 0.950 . S
C830 C829 1.397 . S
C830 C831 1.334 . S
C831 H808 0.950 . S
C831 C830 1.334 . S
C831 C832 1.287 . S
C832 C831 1.287 . S
C832 C833 1.524 . S
C832 H851 0.913 . S
C833 H809 0.950 . S
C833 C832 1.524 . S
C833 C834 1.415 . S
C834 H810 0.950 . S
C834 C829 1.363 . S
C834 C833 1.415 . S
C835 H811 0.951 . S
C835 C836 1.366 . S
C835 C837 1.388 . S
C836 C835 1.366 . S
C836 C840 1.385 . S
C837 H812 0.951 . S
C837 C835 1.388 . S
C837 C838 1.366 . S
C838 C837 1.366 . S
C838 C839 1.414 . S
C838 C841 1.499 . S
C839 H813 0.950 . S
C839 C838 1.414 . S
C839 C840 1.374 . S
C840 H814 0.950 . S
C840 C836 1.385 . S
C840 C839 1.374 . S
C841 C838 1.499 . S
C841 C842 1.373 . S
C841 C843 1.389 . S
C842 H815 0.950 . S
C842 C828 1.377 1_565 S
C842 C841 1.373 . S
C843 C827 1.377 1_565 S
C843 C841 1.389 . S
C843 C844 1.524 . S
C844 C843 1.524 . S
C844 C845 1.397 . S
C844 C849 1.363 . S
C845 H816 0.950 . S
C845 C844 1.397 . S
C845 C846 1.334 . S
C846 H817 0.950 . S
C846 C845 1.334 . S
C846 C847 1.287 . S
C847 C846 1.287 . S
C847 C848 1.524 . S
C847 H850 0.999 . S
C848 H818 0.950 . S
C848 C847 1.524 . S
C848 C849 1.415 . S
C849 H819 0.950 . S
C849 C844 1.363 . S
C849 C848 1.415 . S
H850 C847 0.999 . S
H851 C832 0.913 . S
H852 C870 0.951 . S
H853 C872 0.951 . S
H854 C874 0.950 . S
H855 C875 0.950 . S
H856 C877 0.950 . S
H857 C880 0.950 . S
H858 C881 0.950 . S
H859 C883 0.950 . S
H860 C884 0.950 . S
H861 C885 0.951 . S
H862 C887 0.951 . S
H863 C889 0.950 . S
H864 C890 0.950 . S
H865 C892 0.950 . S
H866 C895 0.950 . S
H867 C896 0.950 . S
H868 C898 0.950 . S
H869 C899 0.950 . S
C870 H852 0.951 . S
C870 C871 1.366 . S
C870 C872 1.388 . S
C871 C870 1.366 . S
C871 C875 1.385 . S
C872 H853 0.951 . S
C872 C870 1.388 . S
C872 C873 1.366 . S
C873 C872 1.366 . S
C873 C874 1.414 . S
C873 C876 1.499 . S
C874 H854 0.950 . S
C874 C873 1.414 . S
C874 C875 1.374 . S
C875 H855 0.950 . S
C875 C871 1.385 . S
C875 C874 1.374 . S
C876 C873 1.499 . S
C876 C877 1.373 . S
C876 C878 1.389 . S
C877 H856 0.950 . S
C877 C876 1.373 . S
C877 C893 1.377 1_565 S
C878 C876 1.389 . S
C878 C879 1.524 . S
C878 C892 1.377 1_565 S
C879 C878 1.524 . S
C879 C880 1.397 . S
C879 C884 1.363 . S
C880 H857 0.950 . S
C880 C879 1.397 . S
C880 C881 1.334 . S
C881 H858 0.950 . S
C881 C880 1.334 . S
C881 C882 1.287 . S
C882 C881 1.287 . S
C882 C883 1.524 . S
C882 H901 0.913 . S
C883 H859 0.950 . S
C883 C882 1.524 . S
C883 C884 1.415 . S
C884 H860 0.950 . S
C884 C879 1.363 . S
C884 C883 1.415 . S
C885 H861 0.951 . S
C885 C886 1.366 . S
C885 C887 1.388 . S
C886 C885 1.366 . S
C886 C890 1.385 . S
C887 H862 0.951 . S
C887 C885 1.388 . S
C887 C888 1.366 . S
C888 C887 1.366 . S
C888 C889 1.414 . S
C888 C891 1.499 . S
C889 H863 0.950 . S
C889 C888 1.414 . S
C889 C890 1.374 . S
C890 H864 0.950 . S
C890 C886 1.385 . S
C890 C889 1.374 . S
C891 C888 1.499 . S
C891 C892 1.373 . S
C891 C893 1.389 . S
C892 H865 0.950 . S
C892 C878 1.377 1_545 S
C892 C891 1.373 . S
C893 C877 1.377 1_545 S
C893 C891 1.389 . S
C893 C894 1.524 . S
C894 C893 1.524 . S
C894 C895 1.397 . S
C894 C899 1.363 . S
C895 H866 0.950 . S
C895 C894 1.397 . S
C895 C896 1.334 . S
C896 H867 0.950 . S
C896 C895 1.334 . S
C896 C897 1.287 . S
C897 C896 1.287 . S
C897 C898 1.524 . S
C897 H900 0.999 . S
C898 H868 0.950 . S
C898 C897 1.524 . S
C898 C899 1.415 . S
C899 H869 0.950 . S
C899 C894 1.363 . S
C899 C898 1.415 . S
H900 C897 0.999 . S
H901 C882 0.913 . S
H902 C920 0.951 . S
H903 C922 0.951 . S
H904 C924 0.950 . S
H905 C925 0.950 . S
H906 C927 0.950 . S
H907 C930 0.950 . S
H908 C931 0.950 . S
H909 C933 0.950 . S
H910 C934 0.950 . S
H911 C935 0.951 . S
H912 C937 0.951 . S
H913 C939 0.950 . S
H914 C940 0.950 . S
H915 C942 0.950 . S
H916 C945 0.950 . S
H917 C946 0.950 . S
H918 C948 0.950 . S
H919 C949 0.950 . S
C920 H902 0.951 . S
C920 C921 1.366 . S
C920 C922 1.388 . S
C921 C920 1.366 . S
C921 C925 1.385 . S
C922 H903 0.951 . S
C922 C920 1.388 . S
C922 C923 1.366 . S
C923 C922 1.366 . S
C923 C924 1.414 . S
C923 C926 1.499 . S
C924 H904 0.950 . S
C924 C923 1.414 . S
C924 C925 1.374 . S
C925 H905 0.950 . S
C925 C921 1.385 . S
C925 C924 1.374 . S
C926 C923 1.499 . S
C926 C927 1.373 . S
C926 C928 1.389 . S
C927 H906 0.950 . S
C927 C926 1.373 . S
C927 C943 1.377 1_455 S
C928 C926 1.389 . S
C928 C929 1.524 . S
C928 C942 1.377 1_455 S
C929 C928 1.524 . S
C929 C930 1.397 . S
C929 C934 1.363 . S
C930 H907 0.950 . S
C930 C929 1.397 . S
C930 C931 1.334 . S
C931 H908 0.950 . S
C931 C930 1.334 . S
C931 C932 1.287 . S
C932 C931 1.287 . S
C932 C933 1.524 . S
C932 H951 0.913 . S
C933 H909 0.950 . S
C933 C932 1.524 . S
C933 C934 1.415 . S
C934 H910 0.950 . S
C934 C929 1.363 . S
C934 C933 1.415 . S
C935 H911 0.951 . S
C935 C936 1.366 . S
C935 C937 1.388 . S
C936 C935 1.366 . S
C936 C940 1.385 . S
C937 H912 0.951 . S
C937 C935 1.388 . S
C937 C938 1.366 . S
C938 C937 1.366 . S
C938 C939 1.414 . S
C938 C941 1.499 . S
C939 H913 0.950 . S
C939 C938 1.414 . S
C939 C940 1.374 . S
C940 H914 0.950 . S
C940 C936 1.385 . S
C940 C939 1.374 . S
C941 C938 1.499 . S
C941 C942 1.373 . S
C941 C943 1.389 . S
C942 H915 0.950 . S
C942 C928 1.377 1_655 S
C942 C941 1.373 . S
C943 C927 1.377 1_655 S
C943 C941 1.389 . S
C943 C944 1.524 . S
C944 C943 1.524 . S
C944 C945 1.397 . S
C944 C949 1.363 . S
C945 H916 0.950 . S
C945 C944 1.397 . S
C945 C946 1.334 . S
C946 H917 0.950 . S
C946 C945 1.334 . S
C946 C947 1.287 . S
C947 C946 1.287 . S
C947 C948 1.524 . S
C947 H950 0.999 . S
C948 H918 0.950 . S
C948 C947 1.524 . S
C948 C949 1.415 . S
C949 H919 0.950 . S
C949 C944 1.363 . S
C949 C948 1.415 . S
H950 C947 0.999 . S
H951 C932 0.913 . S
H952 C970 0.951 . S
H953 C972 0.951 . S
H954 C974 0.950 . S
H955 C975 0.950 . S
H956 C977 0.950 . S
H957 C980 0.950 . S
H958 C981 0.950 . S
H959 C983 0.950 . S
H960 C984 0.950 . S
H961 C985 0.951 . S
H962 C987 0.951 . S
H963 C989 0.950 . S
H964 C990 0.950 . S
H965 C992 0.950 . S
H966 C995 0.950 . S
H967 C996 0.950 . S
H968 C998 0.950 . S
H969 C999 0.950 . S
C970 H952 0.951 . S
C970 C971 1.366 . S
C970 C972 1.388 . S
C971 C970 1.366 . S
C971 C975 1.385 . S
C972 H953 0.951 . S
C972 C970 1.388 . S
C972 C973 1.366 . S
C973 C972 1.366 . S
C973 C974 1.414 . S
C973 C976 1.499 . S
C974 H954 0.950 . S
C974 C973 1.414 . S
C974 C975 1.374 . S
C975 H955 0.950 . S
C975 C971 1.385 . S
C975 C974 1.374 . S
C976 C973 1.499 . S
C976 C977 1.373 . S
C976 C978 1.389 . S
C977 H956 0.950 . S
C977 C976 1.373 . S
C977 C993 1.377 . S
C978 C976 1.389 . S
C978 C979 1.524 . S
C978 C992 1.377 . S
C979 C978 1.524 . S
C979 C980 1.397 . S
C979 C984 1.363 . S
C980 H957 0.950 . S
C980 C979 1.397 . S
C980 C981 1.334 . S
C981 H958 0.950 . S
C981 C980 1.334 . S
C981 C982 1.287 . S
C982 C981 1.287 . S
C982 C983 1.524 . S
C982 H1001 0.913 . S
C983 H959 0.950 . S
C983 C982 1.524 . S
C983 C984 1.415 . S
C984 H960 0.950 . S
C984 C979 1.363 . S
C984 C983 1.415 . S
C985 H961 0.951 . S
C985 C986 1.366 . S
C985 C987 1.388 . S
C986 C985 1.366 . S
C986 C990 1.385 . S
C987 H962 0.951 . S
C987 C985 1.388 . S
C987 C988 1.366 . S
C988 C987 1.366 . S
C988 C989 1.414 . S
C988 C991 1.499 . S
C989 H963 0.950 . S
C989 C988 1.414 . S
C989 C990 1.374 . S
C990 H964 0.950 . S
C990 C986 1.385 . S
C990 C989 1.374 . S
C991 C988 1.499 . S
C991 C992 1.373 . S
C991 C993 1.389 . S
C992 H965 0.950 . S
C992 C978 1.377 . S
C992 C991 1.373 . S
C993 C977 1.377 . S
C993 C991 1.389 . S
C993 C994 1.524 . S
C994 C993 1.524 . S
C994 C995 1.397 . S
C994 C999 1.363 . S
C995 H966 0.950 . S
C995 C994 1.397 . S
C995 C996 1.334 . S
C996 H967 0.950 . S
C996 C995 1.334 . S
C996 C997 1.287 . S
C997 C996 1.287 . S
C997 C998 1.524 . S
C997 H1000 0.999 1_565 S
C998 H968 0.950 . S
C998 C997 1.524 . S
C998 C999 1.415 . S
C999 H969 0.950 . S
C999 C994 1.363 . S
C999 C998 1.415 . S
H1000 C997 0.999 1_545 S
H1001 C982 0.913 . S
H1002 C1020 0.951 . S
H1003 C1022 0.951 . S
H1004 C1024 0.950 . S
H1005 C1025 0.950 . S
H1006 C1027 0.950 . S
H1007 C1030 0.950 . S
H1008 C1031 0.950 . S
H1009 C1033 0.950 . S
H1010 C1034 0.950 . S
H1011 C1035 0.951 . S
H1012 C1037 0.951 . S
H1013 C1039 0.950 . S
H1014 C1040 0.950 . S
H1015 C1042 0.950 . S
H1016 C1045 0.950 . S
H1017 C1046 0.950 . S
H1018 C1048 0.950 . S
H1019 C1049 0.950 . S
C1020 H1002 0.951 . S
C1020 C1021 1.366 . S
C1020 C1022 1.388 . S
C1021 C1020 1.366 . S
C1021 C1025 1.385 . S
C1022 H1003 0.951 . S
C1022 C1020 1.388 . S
C1022 C1023 1.366 . S
C1023 C1022 1.366 . S
C1023 C1024 1.414 . S
C1023 C1026 1.499 . S
C1024 H1004 0.950 . S
C1024 C1023 1.414 . S
C1024 C1025 1.374 . S
C1025 H1005 0.950 . S
C1025 C1021 1.385 . S
C1025 C1024 1.374 . S
C1026 C1023 1.499 . S
C1026 C1027 1.373 . S
C1026 C1028 1.389 . S
C1027 H1006 0.950 . S
C1027 C1026 1.373 . S
C1027 C1043 1.377 . S
C1028 C1026 1.389 . S
C1028 C1029 1.524 . S
C1028 C1042 1.377 . S
C1029 C1028 1.524 . S
C1029 C1030 1.397 . S
C1029 C1034 1.363 . S
C1030 H1007 0.950 . S
C1030 C1029 1.397 . S
C1030 C1031 1.334 . S
C1031 H1008 0.950 . S
C1031 C1030 1.334 . S
C1031 C1032 1.287 . S
C1032 C1031 1.287 . S
C1032 C1033 1.524 . S
C1032 H1051 0.913 . S
C1033 H1009 0.950 . S
C1033 C1032 1.524 . S
C1033 C1034 1.415 . S
C1034 H1010 0.950 . S
C1034 C1029 1.363 . S
C1034 C1033 1.415 . S
C1035 H1011 0.951 . S
C1035 C1036 1.366 . S
C1035 C1037 1.388 . S
C1036 C1035 1.366 . S
C1036 C1040 1.385 . S
C1037 H1012 0.951 . S
C1037 C1035 1.388 . S
C1037 C1038 1.366 . S
C1038 C1037 1.366 . S
C1038 C1039 1.414 . S
C1038 C1041 1.499 . S
C1039 H1013 0.950 . S
C1039 C1038 1.414 . S
C1039 C1040 1.374 . S
C1040 H1014 0.950 . S
C1040 C1036 1.385 . S
C1040 C1039 1.374 . S
C1041 C1038 1.499 . S
C1041 C1042 1.373 . S
C1041 C1043 1.389 . S
C1042 H1015 0.950 . S
C1042 C1028 1.377 . S
C1042 C1041 1.373 . S
C1043 C1027 1.377 . S
C1043 C1041 1.389 . S
C1043 C1044 1.524 . S
C1044 C1043 1.524 . S
C1044 C1045 1.397 . S
C1044 C1049 1.363 . S
C1045 H1016 0.950 . S
C1045 C1044 1.397 . S
C1045 C1046 1.334 . S
C1046 H1017 0.950 . S
C1046 C1045 1.334 . S
C1046 C1047 1.287 . S
C1047 C1046 1.287 . S
C1047 C1048 1.524 . S
C1047 H1050 0.999 . S
C1048 H1018 0.950 . S
C1048 C1047 1.524 . S
C1048 C1049 1.415 . S
C1049 H1019 0.950 . S
C1049 C1044 1.363 . S
C1049 C1048 1.415 . S
H1050 C1047 0.999 . S
H1051 C1032 0.913 . S
H1052 C1070 0.951 . S
H1053 C1072 0.951 . S
H1054 C1074 0.950 . S
H1055 C1075 0.950 . S
H1056 C1077 0.950 . S
H1057 C1080 0.950 . S
H1058 C1081 0.950 . S
H1059 C1083 0.950 . S
H1060 C1084 0.950 . S
H1061 C1085 0.951 . S
H1062 C1087 0.951 . S
H1063 C1089 0.950 . S
H1064 C1090 0.950 . S
H1065 C1092 0.950 . S
H1066 C1095 0.950 . S
H1067 C1096 0.950 . S
H1068 C1098 0.950 . S
H1069 C1099 0.950 . S
C1070 H1052 0.951 . S
C1070 C1071 1.366 . S
C1070 C1072 1.388 . S
C1071 C1070 1.366 . S
C1071 C1075 1.385 . S
C1072 H1053 0.951 . S
C1072 C1070 1.388 . S
C1072 C1073 1.366 . S
C1073 C1072 1.366 . S
C1073 C1074 1.414 . S
C1073 C1076 1.499 . S
C1074 H1054 0.950 . S
C1074 C1073 1.414 . S
C1074 C1075 1.374 . S
C1075 H1055 0.950 . S
C1075 C1071 1.385 . S
C1075 C1074 1.374 . S
C1076 C1073 1.499 . S
C1076 C1077 1.373 . S
C1076 C1078 1.389 . S
C1077 H1056 0.950 . S
C1077 C1076 1.373 . S
C1077 C1093 1.377 . S
C1078 C1076 1.389 . S
C1078 C1079 1.524 . S
C1078 C1092 1.377 . S
C1079 C1078 1.524 . S
C1079 C1080 1.397 . S
C1079 C1084 1.363 . S
C1080 H1057 0.950 . S
C1080 C1079 1.397 . S
C1080 C1081 1.334 . S
C1081 H1058 0.950 . S
C1081 C1080 1.334 . S
C1081 C1082 1.287 . S
C1082 C1081 1.287 . S
C1082 C1083 1.524 . S
C1082 H1101 0.913 . S
C1083 H1059 0.950 . S
C1083 C1082 1.524 . S
C1083 C1084 1.415 . S
C1084 H1060 0.950 . S
C1084 C1079 1.363 . S
C1084 C1083 1.415 . S
C1085 H1061 0.951 . S
C1085 C1086 1.366 . S
C1085 C1087 1.388 . S
C1086 C1085 1.366 . S
C1086 C1090 1.385 . S
C1087 H1062 0.951 . S
C1087 C1085 1.388 . S
C1087 C1088 1.366 . S
C1088 C1087 1.366 . S
C1088 C1089 1.414 . S
C1088 C1091 1.499 . S
C1089 H1063 0.950 . S
C1089 C1088 1.414 . S
C1089 C1090 1.374 . S
C1090 H1064 0.950 . S
C1090 C1086 1.385 . S
C1090 C1089 1.374 . S
C1091 C1088 1.499 . S
C1091 C1092 1.373 . S
C1091 C1093 1.389 . S
C1092 H1065 0.950 . S
C1092 C1078 1.377 . S
C1092 C1091 1.373 . S
C1093 C1077 1.377 . S
C1093 C1091 1.389 . S
C1093 C1094 1.524 . S
C1094 C1093 1.524 . S
C1094 C1095 1.397 . S
C1094 C1099 1.363 . S
C1095 H1066 0.950 . S
C1095 C1094 1.397 . S
C1095 C1096 1.334 . S
C1096 H1067 0.950 . S
C1096 C1095 1.334 . S
C1096 C1097 1.287 . S
C1097 C1096 1.287 . S
C1097 C1098 1.524 . S
C1097 H1100 0.999 . S
C1098 H1068 0.950 . S
C1098 C1097 1.524 . S
C1098 C1099 1.415 . S
C1099 H1069 0.950 . S
C1099 C1094 1.363 . S
C1099 C1098 1.415 . S
H1100 C1097 0.999 . S
H1101 C1082 0.913 . S
H1102 C1120 0.951 . S
H1103 C1122 0.951 . S
H1104 C1124 0.950 . S
H1105 C1125 0.950 . S
H1106 C1127 0.950 . S
H1107 C1130 0.950 . S
H1108 C1131 0.950 . S
H1109 C1133 0.950 . S
H1110 C1134 0.950 . S
H1111 C1135 0.951 . S
H1112 C1137 0.951 . S
H1113 C1139 0.950 . S
H1114 C1140 0.950 . S
H1115 C1142 0.950 . S
H1116 C1145 0.950 . S
H1117 C1146 0.950 . S
H1118 C1148 0.950 . S
H1119 C1149 0.950 . S
C1120 H1102 0.951 . S
C1120 C1121 1.366 . S
C1120 C1122 1.388 . S
C1121 C1120 1.366 . S
C1121 C1125 1.385 . S
C1122 H1103 0.951 . S
C1122 C1120 1.388 . S
C1122 C1123 1.366 . S
C1123 C1122 1.366 . S
C1123 C1124 1.414 . S
C1123 C1126 1.499 . S
C1124 H1104 0.950 . S
C1124 C1123 1.414 . S
C1124 C1125 1.374 . S
C1125 H1105 0.950 . S
C1125 C1121 1.385 . S
C1125 C1124 1.374 . S
C1126 C1123 1.499 . S
C1126 C1127 1.373 . S
C1126 C1128 1.389 . S
C1127 H1106 0.950 . S
C1127 C1126 1.373 . S
C1127 C1143 1.377 . S
C1128 C1126 1.389 . S
C1128 C1129 1.524 . S
C1128 C1142 1.377 . S
C1129 C1128 1.524 . S
C1129 C1130 1.397 . S
C1129 C1134 1.363 . S
C1130 H1107 0.950 . S
C1130 C1129 1.397 . S
C1130 C1131 1.334 . S
C1131 H1108 0.950 . S
C1131 C1130 1.334 . S
C1131 C1132 1.287 . S
C1132 C1131 1.287 . S
C1132 C1133 1.524 . S
C1132 H1151 0.913 . S
C1133 H1109 0.950 . S
C1133 C1132 1.524 . S
C1133 C1134 1.415 . S
C1134 H1110 0.950 . S
C1134 C1129 1.363 . S
C1134 C1133 1.415 . S
C1135 H1111 0.951 . S
C1135 C1136 1.366 . S
C1135 C1137 1.388 . S
C1136 C1135 1.366 . S
C1136 C1140 1.385 . S
C1137 H1112 0.951 . S
C1137 C1135 1.388 . S
C1137 C1138 1.366 . S
C1138 C1137 1.366 . S
C1138 C1139 1.414 . S
C1138 C1141 1.499 . S
C1139 H1113 0.950 . S
C1139 C1138 1.414 . S
C1139 C1140 1.374 . S
C1140 H1114 0.950 . S
C1140 C1136 1.385 . S
C1140 C1139 1.374 . S
C1141 C1138 1.499 . S
C1141 C1142 1.373 . S
C1141 C1143 1.389 . S
C1142 H1115 0.950 . S
C1142 C1128 1.377 . S
C1142 C1141 1.373 . S
C1143 C1127 1.377 . S
C1143 C1141 1.389 . S
C1143 C1144 1.524 . S
C1144 C1143 1.524 . S
C1144 C1145 1.397 . S
C1144 C1149 1.363 . S
C1145 H1116 0.950 . S
C1145 C1144 1.397 . S
C1145 C1146 1.334 . S
C1146 H1117 0.950 . S
C1146 C1145 1.334 . S
C1146 C1147 1.287 . S
C1147 C1146 1.287 . S
C1147 C1148 1.524 . S
C1147 H1150 0.999 . S
C1148 H1118 0.950 . S
C1148 C1147 1.524 . S
C1148 C1149 1.415 . S
C1149 H1119 0.950 . S
C1149 C1144 1.363 . S
C1149 C1148 1.415 . S
H1150 C1147 0.999 . S
H1151 C1132 0.913 . S
H1152 C1170 0.951 . S
H1153 C1172 0.951 . S
H1154 C1174 0.950 . S
H1155 C1175 0.950 . S
H1156 C1177 0.950 . S
H1157 C1180 0.950 . S
H1158 C1181 0.950 . S
H1159 C1183 0.950 . S
H1160 C1184 0.950 . S
H1161 C1185 0.951 . S
H1162 C1187 0.951 . S
H1163 C1189 0.950 . S
H1164 C1190 0.950 . S
H1165 C1192 0.950 . S
H1166 C1195 0.950 . S
H1167 C1196 0.950 . S
H1168 C1198 0.950 . S
H1169 C1199 0.950 . S
C1170 H1152 0.951 . S
C1170 C1171 1.366 . S
C1170 C1172 1.388 . S
C1171 C1170 1.366 . S
C1171 C1175 1.385 . S
C1172 H1153 0.951 . S
C1172 C1170 1.388 . S
C1172 C1173 1.366 . S
C1173 C1172 1.366 . S
C1173 C1174 1.414 . S
C1173 C1176 1.499 . S
C1174 H1154 0.950 . S
C1174 C1173 1.414 . S
C1174 C1175 1.374 . S
C1175 H1155 0.950 . S
C1175 C1171 1.385 . S
C1175 C1174 1.374 . S
C1176 C1173 1.499 . S
C1176 C1177 1.373 . S
C1176 C1178 1.389 . S
C1177 H1156 0.950 . S
C1177 C1176 1.373 . S
C1177 C1193 1.377 . S
C1178 C1176 1.389 . S
C1178 C1179 1.524 . S
C1178 C1192 1.377 . S
C1179 C1178 1.524 . S
C1179 C1180 1.397 . S
C1179 C1184 1.363 . S
C1180 H1157 0.950 . S
C1180 C1179 1.397 . S
C1180 C1181 1.334 . S
C1181 H1158 0.950 . S
C1181 C1180 1.334 . S
C1181 C1182 1.287 . S
C1182 C1181 1.287 . S
C1182 C1183 1.524 . S
C1182 H1201 0.913 . S
C1183 H1159 0.950 . S
C1183 C1182 1.524 . S
C1183 C1184 1.415 . S
C1184 H1160 0.950 . S
C1184 C1179 1.363 . S
C1184 C1183 1.415 . S
C1185 H1161 0.951 . S
C1185 C1186 1.366 . S
C1185 C1187 1.388 . S
C1186 C1185 1.366 . S
C1186 C1190 1.385 . S
C1187 H1162 0.951 . S
C1187 C1185 1.388 . S
C1187 C1188 1.366 . S
C1188 C1187 1.366 . S
C1188 C1189 1.414 . S
C1188 C1191 1.499 . S
C1189 H1163 0.950 . S
C1189 C1188 1.414 . S
C1189 C1190 1.374 . S
C1190 H1164 0.950 . S
C1190 C1186 1.385 . S
C1190 C1189 1.374 . S
C1191 C1188 1.499 . S
C1191 C1192 1.373 . S
C1191 C1193 1.389 . S
C1192 H1165 0.950 . S
C1192 C1178 1.377 . S
C1192 C1191 1.373 . S
C1193 C1177 1.377 . S
C1193 C1191 1.389 . S
C1193 C1194 1.524 . S
C1194 C1193 1.524 . S
C1194 C1195 1.397 . S
C1194 C1199 1.363 . S
C1195 H1166 0.950 . S
C1195 C1194 1.397 . S
C1195 C1196 1.334 . S
C1196 H1167 0.950 . S
C1196 C1195 1.334 . S
C1196 C1197 1.287 . S
C1197 C1196 1.287 . S
C1197 C1198 1.524 . S
C1197 H1200 0.999 . S
C1198 H1168 0.950 . S
C1198 C1197 1.524 . S
C1198 C1199 1.415 . S
C1199 H1169 0.950 . S
C1199 C1194 1.363 . S
C1199 C1198 1.415 . S
H1200 C1197 0.999 . S
H1201 C1182 0.913 . S
H1202 C1220 0.951 . S
H1203 C1222 0.951 . S
H1204 C1224 0.950 . S
H1205 C1225 0.950 . S
H1206 C1227 0.950 . S
H1207 C1230 0.950 . S
H1208 C1231 0.950 . S
H1209 C1233 0.950 . S
H1210 C1234 0.950 . S
H1211 C1235 0.951 . S
H1212 C1237 0.951 . S
H1213 C1239 0.950 . S
H1214 C1240 0.950 . S
H1215 C1242 0.950 . S
H1216 C1245 0.950 . S
H1217 C1246 0.950 . S
H1218 C1248 0.950 . S
H1219 C1249 0.950 . S
C1220 H1202 0.951 . S
C1220 C1221 1.366 . S
C1220 C1222 1.388 . S
C1221 C1220 1.366 . S
C1221 C1225 1.385 . S
C1222 H1203 0.951 . S
C1222 C1220 1.388 . S
C1222 C1223 1.366 . S
C1223 C1222 1.366 . S
C1223 C1224 1.414 . S
C1223 C1226 1.499 . S
C1224 H1204 0.950 . S
C1224 C1223 1.414 . S
C1224 C1225 1.374 . S
C1225 H1205 0.950 . S
C1225 C1221 1.385 . S
C1225 C1224 1.374 . S
C1226 C1223 1.499 . S
C1226 C1227 1.373 . S
C1226 C1228 1.389 . S
C1227 H1206 0.950 . S
C1227 C1226 1.373 . S
C1227 C1243 1.377 . S
C1228 C1226 1.389 . S
C1228 C1229 1.524 . S
C1228 C1242 1.377 . S
C1229 C1228 1.524 . S
C1229 C1230 1.397 . S
C1229 C1234 1.363 . S
C1230 H1207 0.950 . S
C1230 C1229 1.397 . S
C1230 C1231 1.334 . S
C1231 H1208 0.950 . S
C1231 C1230 1.334 . S
C1231 C1232 1.287 . S
C1232 C1231 1.287 . S
C1232 C1233 1.524 . S
C1232 H1251 0.913 . S
C1233 H1209 0.950 . S
C1233 C1232 1.524 . S
C1233 C1234 1.415 . S
C1234 H1210 0.950 . S
C1234 C1229 1.363 . S
C1234 C1233 1.415 . S
C1235 H1211 0.951 . S
C1235 C1236 1.366 . S
C1235 C1237 1.388 . S
C1236 C1235 1.366 . S
C1236 C1240 1.385 . S
C1237 H1212 0.951 . S
C1237 C1235 1.388 . S
C1237 C1238 1.366 . S
C1238 C1237 1.366 . S
C1238 C1239 1.414 . S
C1238 C1241 1.499 . S
C1239 H1213 0.950 . S
C1239 C1238 1.414 . S
C1239 C1240 1.374 . S
C1240 H1214 0.950 . S
C1240 C1236 1.385 . S
C1240 C1239 1.374 . S
C1241 C1238 1.499 . S
C1241 C1242 1.373 . S
C1241 C1243 1.389 . S
C1242 H1215 0.950 . S
C1242 C1228 1.377 . S
C1242 C1241 1.373 . S
C1243 C1227 1.377 . S
C1243 C1241 1.389 . S
C1243 C1244 1.524 . S
C1244 C1243 1.524 . S
C1244 C1245 1.397 . S
C1244 C1249 1.363 . S
C1245 H1216 0.950 . S
C1245 C1244 1.397 . S
C1245 C1246 1.334 . S
C1246 H1217 0.950 . S
C1246 C1245 1.334 . S
C1246 C1247 1.287 . S
C1247 C1246 1.287 . S
C1247 C1248 1.524 . S
C1247 H1250 0.999 . S
C1248 H1218 0.950 . S
C1248 C1247 1.524 . S
C1248 C1249 1.415 . S
C1249 H1219 0.950 . S
C1249 C1244 1.363 . S
C1249 C1248 1.415 . S
H1250 C1247 0.999 . S
H1251 C1232 0.913 . S
H1252 C1270 0.951 . S
H1253 C1272 0.951 . S
H1254 C1274 0.950 . S
H1255 C1275 0.950 . S
H1256 C1277 0.950 . S
H1257 C1280 0.950 . S
H1258 C1281 0.950 . S
H1259 C1283 0.950 . S
H1260 C1284 0.950 . S
H1261 C1285 0.951 . S
H1262 C1287 0.951 . S
H1263 C1289 0.950 . S
H1264 C1290 0.950 . S
H1265 C1292 0.950 . S
H1266 C1295 0.950 . S
H1267 C1296 0.950 . S
H1268 C1298 0.950 . S
H1269 C1299 0.950 . S
C1270 H1252 0.951 . S
C1270 C1271 1.366 . S
C1270 C1272 1.388 . S
C1271 C1270 1.366 . S
C1271 C1275 1.385 . S
C1272 H1253 0.951 . S
C1272 C1270 1.388 . S
C1272 C1273 1.366 . S
C1273 C1272 1.366 . S
C1273 C1274 1.414 . S
C1273 C1276 1.499 . S
C1274 H1254 0.950 . S
C1274 C1273 1.414 . S
C1274 C1275 1.374 . S
C1275 H1255 0.950 . S
C1275 C1271 1.385 . S
C1275 C1274 1.374 . S
C1276 C1273 1.499 . S
C1276 C1277 1.373 . S
C1276 C1278 1.389 . S
C1277 H1256 0.950 . S
C1277 C1276 1.373 . S
C1277 C1293 1.377 . S
C1278 C1276 1.389 . S
C1278 C1279 1.524 . S
C1278 C1292 1.377 . S
C1279 C1278 1.524 . S
C1279 C1280 1.397 . S
C1279 C1284 1.363 . S
C1280 H1257 0.950 . S
C1280 C1279 1.397 . S
C1280 C1281 1.334 . S
C1281 H1258 0.950 . S
C1281 C1280 1.334 . S
C1281 C1282 1.287 . S
C1282 C1281 1.287 . S
C1282 C1283 1.524 . S
C1282 H1301 0.913 . S
C1283 H1259 0.950 . S
C1283 C1282 1.524 . S
C1283 C1284 1.415 . S
C1284 H1260 0.950 . S
C1284 C1279 1.363 . S
C1284 C1283 1.415 . S
C1285 H1261 0.951 . S
C1285 C1286 1.366 . S
C1285 C1287 1.388 . S
C1286 C1285 1.366 . S
C1286 C1290 1.385 . S
C1287 H1262 0.951 . S
C1287 C1285 1.388 . S
C1287 C1288 1.366 . S
C1288 C1287 1.366 . S
C1288 C1289 1.414 . S
C1288 C1291 1.499 . S
C1289 H1263 0.950 . S
C1289 C1288 1.414 . S
C1289 C1290 1.374 . S
C1290 H1264 0.950 . S
C1290 C1286 1.385 . S
C1290 C1289 1.374 . S
C1291 C1288 1.499 . S
C1291 C1292 1.373 . S
C1291 C1293 1.389 . S
C1292 H1265 0.950 . S
C1292 C1278 1.377 . S
C1292 C1291 1.373 . S
C1293 C1277 1.377 . S
C1293 C1291 1.389 . S
C1293 C1294 1.524 . S
C1294 C1293 1.524 . S
C1294 C1295 1.397 . S
C1294 C1299 1.363 . S
C1295 H1266 0.950 . S
C1295 C1294 1.397 . S
C1295 C1296 1.334 . S
C1296 H1267 0.950 . S
C1296 C1295 1.334 . S
C1296 C1297 1.287 . S
C1297 C1296 1.287 . S
C1297 C1298 1.524 . S
C1297 H1300 0.999 . S
C1298 H1268 0.950 . S
C1298 C1297 1.524 . S
C1298 C1299 1.415 . S
C1299 H1269 0.950 . S
C1299 C1294 1.363 . S
C1299 C1298 1.415 . S
H1300 C1297 0.999 . S
H1301 C1282 0.913 . S
H1302 C1320 0.951 . S
H1303 C1322 0.951 . S
H1304 C1324 0.950 . S
H1305 C1325 0.950 . S
H1306 C1327 0.950 . S
H1307 C1330 0.950 . S
H1308 C1331 0.950 . S
H1309 C1333 0.950 . S
H1310 C1334 0.950 . S
H1311 C1335 0.951 . S
H1312 C1337 0.951 . S
H1313 C1339 0.950 . S
H1314 C1340 0.950 . S
H1315 C1342 0.950 . S
H1316 C1345 0.950 . S
H1317 C1346 0.950 . S
H1318 C1348 0.950 . S
H1319 C1349 0.950 . S
C1320 H1302 0.951 . S
C1320 C1321 1.366 . S
C1320 C1322 1.388 . S
C1321 C1320 1.366 . S
C1321 C1325 1.385 . S
C1322 H1303 0.951 . S
C1322 C1320 1.388 . S
C1322 C1323 1.366 . S
C1323 C1322 1.366 . S
C1323 C1324 1.414 . S
C1323 C1326 1.499 . S
C1324 H1304 0.950 . S
C1324 C1323 1.414 . S
C1324 C1325 1.374 . S
C1325 H1305 0.950 . S
C1325 C1321 1.385 . S
C1325 C1324 1.374 . S
C1326 C1323 1.499 . S
C1326 C1327 1.373 . S
C1326 C1328 1.389 . S
C1327 H1306 0.950 . S
C1327 C1326 1.373 . S
C1327 C1343 1.377 . S
C1328 C1326 1.389 . S
C1328 C1329 1.524 . S
C1328 C1342 1.377 . S
C1329 C1328 1.524 . S
C1329 C1330 1.397 . S
C1329 C1334 1.363 . S
C1330 H1307 0.950 . S
C1330 C1329 1.397 . S
C1330 C1331 1.334 . S
C1331 H1308 0.950 . S
C1331 C1330 1.334 . S
C1331 C1332 1.287 . S
C1332 C1331 1.287 . S
C1332 C1333 1.524 . S
C1332 H1351 0.913 . S
C1333 H1309 0.950 . S
C1333 C1332 1.524 . S
C1333 C1334 1.415 . S
C1334 H1310 0.950 . S
C1334 C1329 1.363 . S
C1334 C1333 1.415 . S
C1335 H1311 0.951 . S
C1335 C1336 1.366 . S
C1335 C1337 1.388 . S
C1336 C1335 1.366 . S
C1336 C1340 1.385 . S
C1337 H1312 0.951 . S
C1337 C1335 1.388 . S
C1337 C1338 1.366 . S
C1338 C1337 1.366 . S
C1338 C1339 1.414 . S
C1338 C1341 1.499 . S
C1339 H1313 0.950 . S
C1339 C1338 1.414 . S
C1339 C1340 1.374 . S
C1340 H1314 0.950 . S
C1340 C1336 1.385 . S
C1340 C1339 1.374 . S
C1341 C1338 1.499 . S
C1341 C1342 1.373 . S
C1341 C1343 1.389 . S
C1342 H1315 0.950 . S
C1342 C1328 1.377 . S
C1342 C1341 1.373 . S
C1343 C1327 1.377 . S
C1343 C1341 1.389 . S
C1343 C1344 1.524 . S
C1344 C1343 1.524 . S
C1344 C1345 1.397 . S
C1344 C1349 1.363 . S
C1345 H1316 0.950 . S
C1345 C1344 1.397 . S
C1345 C1346 1.334 . S
C1346 H1317 0.950 . S
C1346 C1345 1.334 . S
C1346 C1347 1.287 . S
C1347 C1346 1.287 . S
C1347 C1348 1.524 . S
C1347 H1350 0.999 . S
C1348 H1318 0.950 . S
C1348 C1347 1.524 . S
C1348 C1349 1.415 . S
C1349 H1319 0.950 . S
C1349 C1344 1.363 . S
C1349 C1348 1.415 . S
H1350 C1347 0.999 . S
H1351 C1332 0.913 . S
H1352 C1370 0.951 . S
H1353 C1372 0.951 . S
H1354 C1374 0.950 . S
H1355 C1375 0.950 . S
H1356 C1377 0.950 . S
H1357 C1380 0.950 . S
H1358 C1381 0.950 . S
H1359 C1383 0.950 . S
H1360 C1384 0.950 . S
H1361 C1385 0.951 . S
H1362 C1387 0.951 . S
H1363 C1389 0.950 . S
H1364 C1390 0.950 . S
H1365 C1392 0.950 . S
H1366 C1395 0.950 . S
H1367 C1396 0.950 . S
H1368 C1398 0.950 . S
H1369 C1399 0.950 . S
C1370 H1352 0.951 . S
C1370 C1371 1.366 . S
C1370 C1372 1.388 . S
C1371 C1370 1.366 . S
C1371 C1375 1.385 . S
C1372 H1353 0.951 . S
C1372 C1370 1.388 . S
C1372 C1373 1.366 . S
C1373 C1372 1.366 . S
C1373 C1374 1.414 . S
C1373 C1376 1.499 . S
C1374 H1354 0.950 . S
C1374 C1373 1.414 . S
C1374 C1375 1.374 . S
C1375 H1355 0.950 . S
C1375 C1371 1.385 . S
C1375 C1374 1.374 . S
C1376 C1373 1.499 . S
C1376 C1377 1.373 . S
C1376 C1378 1.389 . S
C1377 H1356 0.950 . S
C1377 C1376 1.373 . S
C1377 C1393 1.377 . S
C1378 C1376 1.389 . S
C1378 C1379 1.524 . S
C1378 C1392 1.377 . S
C1379 C1378 1.524 . S
C1379 C1380 1.397 . S
C1379 C1384 1.363 . S
C1380 H1357 0.950 . S
C1380 C1379 1.397 . S
C1380 C1381 1.334 . S
C1381 H1358 0.950 . S
C1381 C1380 1.334 . S
C1381 C1382 1.287 . S
C1382 C1381 1.287 . S
C1382 C1383 1.524 . S
C1382 H1401 0.913 . S
C1383 H1359 0.950 . S
C1383 C1382 1.524 . S
C1383 C1384 1.415 . S
C1384 H1360 0.950 . S
C1384 C1379 1.363 . S
C1384 C1383 1.415 . S
C1385 H1361 0.951 . S
C1385 C1386 1.366 . S
C1385 C1387 1.388 . S
C1386 C1385 1.366 . S
C1386 C1390 1.385 . S
C1387 H1362 0.951 . S
C1387 C1385 1.388 . S
C1387 C1388 1.366 . S
C1388 C1387 1.366 . S
C1388 C1389 1.414 . S
C1388 C1391 1.499 . S
C1389 H1363 0.950 . S
C1389 C1388 1.414 . S
C1389 C1390 1.374 . S
C1390 H1364 0.950 . S
C1390 C1386 1.385 . S
C1390 C1389 1.374 . S
C1391 C1388 1.499 . S
C1391 C1392 1.373 . S
C1391 C1393 1.389 . S
C1392 H1365 0.950 . S
C1392 C1378 1.377 . S
C1392 C1391 1.373 . S
C1393 C1377 1.377 . S
C1393 C1391 1.389 . S
C1393 C1394 1.524 . S
C1394 C1393 1.524 . S
C1394 C1395 1.397 . S
C1394 C1399 1.363 . S
C1395 H1366 0.950 . S
C1395 C1394 1.397 . S
C1395 C1396 1.334 . S
C1396 H1367 0.950 . S
C1396 C1395 1.334 . S
C1396 C1397 1.287 . S
C1397 C1396 1.287 . S
C1397 C1398 1.524 . S
C1397 H1400 0.999 . S
C1398 H1368 0.950 . S
C1398 C1397 1.524 . S
C1398 C1399 1.415 . S
C1399 H1369 0.950 . S
C1399 C1394 1.363 . S
C1399 C1398 1.415 . S
H1400 C1397 0.999 . S
H1401 C1382 0.913 . S
H1402 C1420 0.951 . S
H1403 C1422 0.951 . S
H1404 C1424 0.950 . S
H1405 C1425 0.950 . S
H1406 C1427 0.950 . S
H1407 C1430 0.950 . S
H1408 C1431 0.950 . S
H1409 C1433 0.950 . S
H1410 C1434 0.950 . S
H1411 C1435 0.951 . S
H1412 C1437 0.951 . S
H1413 C1439 0.950 . S
H1414 C1440 0.950 . S
H1415 C1442 0.950 . S
H1416 C1445 0.950 . S
H1417 C1446 0.950 . S
H1418 C1448 0.950 . S
H1419 C1449 0.950 . S
C1420 H1402 0.951 . S
C1420 C1421 1.366 . S
C1420 C1422 1.388 . S
C1421 C1420 1.366 . S
C1421 C1425 1.385 . S
C1422 H1403 0.951 . S
C1422 C1420 1.388 . S
C1422 C1423 1.366 . S
C1423 C1422 1.366 . S
C1423 C1424 1.414 . S
C1423 C1426 1.499 . S
C1424 H1404 0.950 . S
C1424 C1423 1.414 . S
C1424 C1425 1.374 . S
C1425 H1405 0.950 . S
C1425 C1421 1.385 . S
C1425 C1424 1.374 . S
C1426 C1423 1.499 . S
C1426 C1427 1.373 . S
C1426 C1428 1.389 . S
C1427 H1406 0.950 . S
C1427 C1426 1.373 . S
C1427 C1443 1.377 . S
C1428 C1426 1.389 . S
C1428 C1429 1.524 . S
C1428 C1442 1.377 . S
C1429 C1428 1.524 . S
C1429 C1430 1.397 . S
C1429 C1434 1.363 . S
C1430 H1407 0.950 . S
C1430 C1429 1.397 . S
C1430 C1431 1.334 . S
C1431 H1408 0.950 . S
C1431 C1430 1.334 . S
C1431 C1432 1.287 . S
C1432 C1431 1.287 . S
C1432 C1433 1.524 . S
C1432 H1451 0.913 . S
C1433 H1409 0.950 . S
C1433 C1432 1.524 . S
C1433 C1434 1.415 . S
C1434 H1410 0.950 . S
C1434 C1429 1.363 . S
C1434 C1433 1.415 . S
C1435 H1411 0.951 . S
C1435 C1436 1.366 . S
C1435 C1437 1.388 . S
C1436 C1435 1.366 . S
C1436 C1440 1.385 . S
C1437 H1412 0.951 . S
C1437 C1435 1.388 . S
C1437 C1438 1.366 . S
C1438 C1437 1.366 . S
C1438 C1439 1.414 . S
C1438 C1441 1.499 . S
C1439 H1413 0.950 . S
C1439 C1438 1.414 . S
C1439 C1440 1.374 . S
C1440 H1414 0.950 . S
C1440 C1436 1.385 . S
C1440 C1439 1.374 . S
C1441 C1438 1.499 . S
C1441 C1442 1.373 . S
C1441 C1443 1.389 . S
C1442 H1415 0.950 . S
C1442 C1428 1.377 . S
C1442 C1441 1.373 . S
C1443 C1427 1.377 . S
C1443 C1441 1.389 . S
C1443 C1444 1.524 . S
C1444 C1443 1.524 . S
C1444 C1445 1.397 . S
C1444 C1449 1.363 . S
C1445 H1416 0.950 . S
C1445 C1444 1.397 . S
C1445 C1446 1.334 . S
C1446 H1417 0.950 . S
C1446 C1445 1.334 . S
C1446 C1447 1.287 . S
C1447 C1446 1.287 . S
C1447 C1448 1.524 . S
C1447 H1450 0.999 . S
C1448 H1418 0.950 . S
C1448 C1447 1.524 . S
C1448 C1449 1.415 . S
C1449 H1419 0.950 . S
C1449 C1444 1.363 . S
C1449 C1448 1.415 . S
H1450 C1447 0.999 . S
H1451 C1432 0.913 . S
H1452 C1470 0.951 . S
H1453 C1472 0.951 . S
H1454 C1474 0.950 . S
H1455 C1475 0.950 . S
H1456 C1477 0.950 . S
H1457 C1480 0.950 . S
H1458 C1481 0.950 . S
H1459 C1483 0.950 . S
H1460 C1484 0.950 . S
H1461 C1485 0.951 . S
H1462 C1487 0.951 . S
H1463 C1489 0.950 . S
H1464 C1490 0.950 . S
H1465 C1492 0.950 . S
H1466 C1495 0.950 . S
H1467 C1496 0.950 . S
H1468 C1498 0.950 . S
H1469 C1499 0.950 . S
C1470 H1452 0.951 . S
C1470 C1471 1.366 . S
C1470 C1472 1.388 . S
C1471 C1470 1.366 . S
C1471 C1475 1.385 . S
C1472 H1453 0.951 . S
C1472 C1470 1.388 . S
C1472 C1473 1.366 . S
C1473 C1472 1.366 . S
C1473 C1474 1.414 . S
C1473 C1476 1.499 . S
C1474 H1454 0.950 . S
C1474 C1473 1.414 . S
C1474 C1475 1.374 . S
C1475 H1455 0.950 . S
C1475 C1471 1.385 . S
C1475 C1474 1.374 . S
C1476 C1473 1.499 . S
C1476 C1477 1.373 . S
C1476 C1478 1.389 . S
C1477 H1456 0.950 . S
C1477 C1476 1.373 . S
C1477 C1493 1.377 . S
C1478 C1476 1.389 . S
C1478 C1479 1.524 . S
C1478 C1492 1.377 . S
C1479 C1478 1.524 . S
C1479 C1480 1.397 . S
C1479 C1484 1.363 . S
C1480 H1457 0.950 . S
C1480 C1479 1.397 . S
C1480 C1481 1.334 . S
C1481 H1458 0.950 . S
C1481 C1480 1.334 . S
C1481 C1482 1.287 . S
C1482 C1481 1.287 . S
C1482 C1483 1.524 . S
C1482 H1501 0.913 . S
C1483 H1459 0.950 . S
C1483 C1482 1.524 . S
C1483 C1484 1.415 . S
C1484 H1460 0.950 . S
C1484 C1479 1.363 . S
C1484 C1483 1.415 . S
C1485 H1461 0.951 . S
C1485 C1486 1.366 . S
C1485 C1487 1.388 . S
C1486 C1485 1.366 . S
C1486 C1490 1.385 . S
C1487 H1462 0.951 . S
C1487 C1485 1.388 . S
C1487 C1488 1.366 . S
C1488 C1487 1.366 . S
C1488 C1489 1.414 . S
C1488 C1491 1.499 . S
C1489 H1463 0.950 . S
C1489 C1488 1.414 . S
C1489 C1490 1.374 . S
C1490 H1464 0.950 . S
C1490 C1486 1.385 . S
C1490 C1489 1.374 . S
C1491 C1488 1.499 . S
C1491 C1492 1.373 . S
C1491 C1493 1.389 . S
C1492 H1465 0.950 . S
C1492 C1478 1.377 . S
C1492 C1491 1.373 . S
C1493 C1477 1.377 . S
C1493 C1491 1.389 . S
C1493 C1494 1.524 . S
C1494 C1493 1.524 . S
C1494 C1495 1.397 . S
C1494 C1499 1.363 . S
C1495 H1466 0.950 . S
C1495 C1494 1.397 . S
C1495 C1496 1.334 . S
C1496 H1467 0.950 . S
C1496 C1495 1.334 . S
C1496 C1497 1.287 . S
C1497 C1496 1.287 . S
C1497 C1498 1.524 . S
C1497 H1500 0.999 . S
C1498 H1468 0.950 . S
C1498 C1497 1.524 . S
C1498 C1499 1.415 . S
C1499 H1469 0.950 . S
C1499 C1494 1.363 . S
C1499 C1498 1.415 . S
H1500 C1497 0.999 . S
H1501 C1482 0.913 . S
H1502 C1520 0.951 . S
H1503 C1522 0.951 . S
H1504 C1524 0.950 . S
H1505 C1525 0.950 . S
H1506 C1527 0.950 . S
H1507 C1530 0.950 . S
H1508 C1531 0.950 . S
H1509 C1533 0.950 . S
H1510 C1534 0.950 . S
H1511 C1535 0.951 . S
H1512 C1537 0.951 . S
H1513 C1539 0.950 . S
H1514 C1540 0.950 . S
H1515 C1542 0.950 . S
H1516 C1545 0.950 . S
H1517 C1546 0.950 . S
H1518 C1548 0.950 . S
H1519 C1549 0.950 . S
C1520 H1502 0.951 . S
C1520 C1521 1.366 . S
C1520 C1522 1.388 . S
C1521 C1520 1.366 . S
C1521 C1525 1.385 . S
C1522 H1503 0.951 . S
C1522 C1520 1.388 . S
C1522 C1523 1.366 . S
C1523 C1522 1.366 . S
C1523 C1524 1.414 . S
C1523 C1526 1.499 . S
C1524 H1504 0.950 . S
C1524 C1523 1.414 . S
C1524 C1525 1.374 . S
C1525 H1505 0.950 . S
C1525 C1521 1.385 . S
C1525 C1524 1.374 . S
C1526 C1523 1.499 . S
C1526 C1527 1.373 . S
C1526 C1528 1.389 . S
C1527 H1506 0.950 . S
C1527 C1526 1.373 . S
C1527 C1543 1.377 . S
C1528 C1526 1.389 . S
C1528 C1529 1.524 . S
C1528 C1542 1.377 . S
C1529 C1528 1.524 . S
C1529 C1530 1.397 . S
C1529 C1534 1.363 . S
C1530 H1507 0.950 . S
C1530 C1529 1.397 . S
C1530 C1531 1.334 . S
C1531 H1508 0.950 . S
C1531 C1530 1.334 . S
C1531 C1532 1.287 . S
C1532 C1531 1.287 . S
C1532 C1533 1.524 . S
C1532 H1551 0.913 . S
C1533 H1509 0.950 . S
C1533 C1532 1.524 . S
C1533 C1534 1.415 . S
C1534 H1510 0.950 . S
C1534 C1529 1.363 . S
C1534 C1533 1.415 . S
C1535 H1511 0.951 . S
C1535 C1536 1.366 . S
C1535 C1537 1.388 . S
C1536 C1535 1.366 . S
C1536 C1540 1.385 . S
C1537 H1512 0.951 . S
C1537 C1535 1.388 . S
C1537 C1538 1.366 . S
C1538 C1537 1.366 . S
C1538 C1539 1.414 . S
C1538 C1541 1.499 . S
C1539 H1513 0.950 . S
C1539 C1538 1.414 . S
C1539 C1540 1.374 . S
C1540 H1514 0.950 . S
C1540 C1536 1.385 . S
C1540 C1539 1.374 . S
C1541 C1538 1.499 . S
C1541 C1542 1.373 . S
C1541 C1543 1.389 . S
C1542 H1515 0.950 . S
C1542 C1528 1.377 . S
C1542 C1541 1.373 . S
C1543 C1527 1.377 . S
C1543 C1541 1.389 . S
C1543 C1544 1.524 . S
C1544 C1543 1.524 . S
C1544 C1545 1.397 . S
C1544 C1549 1.363 . S
C1545 H1516 0.950 . S
C1545 C1544 1.397 . S
C1545 C1546 1.334 . S
C1546 H1517 0.950 . S
C1546 C1545 1.334 . S
C1546 C1547 1.287 . S
C1547 C1546 1.287 . S
C1547 C1548 1.524 . S
C1547 H1550 0.999 . S
C1548 H1518 0.950 . S
C1548 C1547 1.524 . S
C1548 C1549 1.415 . S
C1549 H1519 0.950 . S
C1549 C1544 1.363 . S
C1549 C1548 1.415 . S
H1550 C1547 0.999 . S
H1551 C1532 0.913 . S
H1552 C1570 0.951 . S
H1553 C1572 0.951 . S
H1554 C1574 0.950 . S
H1555 C1575 0.950 . S
H1556 C1577 0.950 . S
H1557 C1580 0.950 . S
H1558 C1581 0.950 . S
H1559 C1583 0.950 . S
H1560 C1584 0.950 . S
H1561 C1585 0.951 . S
H1562 C1587 0.951 . S
H1563 C1589 0.950 . S
H1564 C1590 0.950 . S
H1565 C1592 0.950 . S
H1566 C1595 0.950 . S
H1567 C1596 0.950 . S
H1568 C1598 0.950 . S
H1569 C1599 0.950 . S
C1570 H1552 0.951 . S
C1570 C1571 1.366 . S
C1570 C1572 1.388 . S
C1571 C1570 1.366 . S
C1571 C1575 1.385 . S
C1572 H1553 0.951 . S
C1572 C1570 1.388 . S
C1572 C1573 1.366 . S
C1573 C1572 1.366 . S
C1573 C1574 1.414 . S
C1573 C1576 1.499 . S
C1574 H1554 0.950 . S
C1574 C1573 1.414 . S
C1574 C1575 1.374 . S
C1575 H1555 0.950 . S
C1575 C1571 1.385 . S
C1575 C1574 1.374 . S
C1576 C1573 1.499 . S
C1576 C1577 1.373 . S
C1576 C1578 1.389 . S
C1577 H1556 0.950 . S
C1577 C1576 1.373 . S
C1577 C1593 1.377 . S
C1578 C1576 1.389 . S
C1578 C1579 1.524 . S
C1578 C1592 1.377 . S
C1579 C1578 1.524 . S
C1579 C1580 1.397 . S
C1579 C1584 1.363 . S
C1580 H1557 0.950 . S
C1580 C1579 1.397 . S
C1580 C1581 1.334 . S
C1581 H1558 0.950 . S
C1581 C1580 1.334 . S
C1581 C1582 1.287 . S
C1582 C1581 1.287 . S
C1582 C1583 1.524 . S
C1582 H1601 0.913 . S
C1583 H1559 0.950 . S
C1583 C1582 1.524 . S
C1583 C1584 1.415 . S
C1584 H1560 0.950 . S
C1584 C1579 1.363 . S
C1584 C1583 1.415 . S
C1585 H1561 0.951 . S
C1585 C1586 1.366 . S
C1585 C1587 1.388 . S
C1586 C1585 1.366 . S
C1586 C1590 1.385 . S
C1587 H1562 0.951 . S
C1587 C1585 1.388 . S
C1587 C1588 1.366 . S
C1588 C1587 1.366 . S
C1588 C1589 1.414 . S
C1588 C1591 1.499 . S
C1589 H1563 0.950 . S
C1589 C1588 1.414 . S
C1589 C1590 1.374 . S
C1590 H1564 0.950 . S
C1590 C1586 1.385 . S
C1590 C1589 1.374 . S
C1591 C1588 1.499 . S
C1591 C1592 1.373 . S
C1591 C1593 1.389 . S
C1592 H1565 0.950 . S
C1592 C1578 1.377 . S
C1592 C1591 1.373 . S
C1593 C1577 1.377 . S
C1593 C1591 1.389 . S
C1593 C1594 1.524 . S
C1594 C1593 1.524 . S
C1594 C1595 1.397 . S
C1594 C1599 1.363 . S
C1595 H1566 0.950 . S
C1595 C1594 1.397 . S
C1595 C1596 1.334 . S
C1596 H1567 0.950 . S
C1596 C1595 1.334 . S
C1596 C1597 1.287 . S
C1597 C1596 1.287 . S
C1597 C1598 1.524 . S
C1597 H1600 0.999 . S
C1598 H1568 0.950 . S
C1598 C1597 1.524 . S
C1598 C1599 1.415 . S
C1599 H1569 0.950 . S
C1599 C1594 1.363 . S
C1599 C1598 1.415 . S
H1600 C1597 0.999 . S
H1601 C1582 0.913 . S
H1602 C1620 0.951 . S
H1603 C1622 0.951 . S
H1604 C1624 0.950 . S
H1605 C1625 0.950 . S
H1606 C1627 0.950 . S
H1607 C1630 0.950 . S
H1608 C1631 0.950 . S
H1609 C1633 0.950 . S
H1610 C1634 0.950 . S
H1611 C1635 0.951 . S
H1612 C1637 0.951 . S
H1613 C1639 0.950 . S
H1614 C1640 0.950 . S
H1615 C1642 0.950 . S
H1616 C1645 0.950 . S
H1617 C1646 0.950 . S
H1618 C1648 0.950 . S
H1619 C1649 0.950 . S
C1620 H1602 0.951 . S
C1620 C1621 1.366 . S
C1620 C1622 1.388 . S
C1621 C1620 1.366 . S
C1621 C1625 1.385 . S
C1622 H1603 0.951 . S
C1622 C1620 1.388 . S
C1622 C1623 1.366 . S
C1623 C1622 1.366 . S
C1623 C1624 1.414 . S
C1623 C1626 1.499 . S
C1624 H1604 0.950 . S
C1624 C1623 1.414 . S
C1624 C1625 1.374 . S
C1625 H1605 0.950 . S
C1625 C1621 1.385 . S
C1625 C1624 1.374 . S
C1626 C1623 1.499 . S
C1626 C1627 1.373 . S
C1626 C1628 1.389 . S
C1627 H1606 0.950 . S
C1627 C1626 1.373 . S
C1627 C1643 1.377 1_554 S
C1628 C1626 1.389 . S
C1628 C1629 1.524 . S
C1628 C1642 1.377 1_554 S
C1629 C1628 1.524 . S
C1629 C1630 1.397 . S
C1629 C1634 1.363 . S
C1630 H1607 0.950 . S
C1630 C1629 1.397 . S
C1630 C1631 1.334 . S
C1631 H1608 0.950 . S
C1631 C1630 1.334 . S
C1631 C1632 1.287 . S
C1632 C1631 1.287 . S
C1632 C1633 1.524 . S
C1632 H1651 0.913 . S
C1633 H1609 0.950 . S
C1633 C1632 1.524 . S
C1633 C1634 1.415 . S
C1634 H1610 0.950 . S
C1634 C1629 1.363 . S
C1634 C1633 1.415 . S
C1635 H1611 0.951 . S
C1635 C1636 1.366 . S
C1635 C1637 1.388 . S
C1636 C1635 1.366 . S
C1636 C1640 1.385 . S
C1637 H1612 0.951 . S
C1637 C1635 1.388 . S
C1637 C1638 1.366 . S
C1638 C1637 1.366 . S
C1638 C1639 1.414 . S
C1638 C1641 1.499 . S
C1639 H1613 0.950 . S
C1639 C1638 1.414 . S
C1639 C1640 1.374 . S
C1640 H1614 0.950 . S
C1640 C1636 1.385 . S
C1640 C1639 1.374 . S
C1641 C1638 1.499 . S
C1641 C1642 1.373 . S
C1641 C1643 1.389 . S
C1642 H1615 0.950 . S
C1642 C1628 1.377 1_556 S
C1642 C1641 1.373 . S
C1643 C1627 1.377 1_556 S
C1643 C1641 1.389 . S
C1643 C1644 1.524 . S
C1644 C1643 1.524 . S
C1644 C1645 1.397 . S
C1644 C1649 1.363 . S
C1645 H1616 0.950 . S
C1645 C1644 1.397 . S
C1645 C1646 1.334 . S
C1646 H1617 0.950 . S
C1646 C1645 1.334 . S
C1646 C1647 1.287 . S
C1647 C1646 1.287 . S
C1647 C1648 1.524 . S
C1647 H1650 0.999 . S
C1648 H1618 0.950 . S
C1648 C1647 1.524 . S
C1648 C1649 1.415 . S
C1649 H1619 0.950 . S
C1649 C1644 1.363 . S
C1649 C1648 1.415 . S
H1650 C1647 0.999 . S
H1651 C1632 0.913 . S
H1652 C1670 0.956 1_565 S
H1653 C1672 0.947 . S
H1654 C1674 0.950 . S
H1655 C1675 0.950 . S
H1656 C1677 0.950 . S
H1657 C1680 0.950 . S
H1658 C1681 0.950 . S
H1659 C1683 0.950 . S
H1660 C1684 0.950 . S
H1661 C1685 0.951 . S
H1662 C1687 0.951 . S
H1663 C1689 0.950 . S
H1664 C1690 0.950 . S
H1665 C1692 0.950 . S
H1666 C1695 0.950 . S
H1667 C1696 0.950 . S
H1668 C1698 0.950 . S
H1669 C1699 0.950 . S
C1670 H1652 0.956 1_545 S
C1670 C1671 1.362 . S
C1670 C1672 1.387 1_545 S
C1671 C1670 1.362 . S
C1671 C1675 1.385 . S
C1672 H1653 0.947 . S
C1672 C1670 1.387 1_565 S
C1672 C1673 1.371 1_565 S
C1673 C1672 1.371 1_545 S
C1673 C1674 1.414 . S
C1673 C1676 1.499 . S
C1674 H1654 0.950 . S
C1674 C1673 1.414 . S
C1674 C1675 1.374 . S
C1675 H1655 0.950 . S
C1675 C1671 1.385 . S
C1675 C1674 1.374 . S
C1676 C1673 1.499 . S
C1676 C1677 1.373 1_545 S
C1676 C1678 1.389 . S
C1677 H1656 0.950 . S
C1677 C1676 1.373 1_565 S
C1677 C1693 1.377 1_556 S
C1678 C1676 1.389 . S
C1678 C1679 1.524 . S
C1678 C1692 1.377 1_556 S
C1679 C1678 1.524 . S
C1679 C1680 1.397 . S
C1679 C1684 1.363 . S
C1680 H1657 0.950 . S
C1680 C1679 1.397 . S
C1680 C1681 1.334 . S
C1681 H1658 0.950 . S
C1681 C1680 1.334 . S
C1681 C1682 1.287 . S
C1682 C1681 1.287 . S
C1682 C1683 1.524 . S
C1682 H1701 0.913 . S
C1683 H1659 0.950 . S
C1683 C1682 1.524 . S
C1683 C1684 1.415 . S
C1684 H1660 0.950 . S
C1684 C1679 1.363 . S
C1684 C1683 1.415 . S
C1685 H1661 0.951 . S
C1685 C1686 1.366 1_545 S
C1685 C1687 1.388 . S
C1686 C1685 1.366 1_565 S
C1686 C1690 1.385 . S
C1687 H1662 0.951 . S
C1687 C1685 1.388 . S
C1687 C1688 1.366 1_545 S
C1688 C1687 1.366 1_565 S
C1688 C1689 1.414 . S
C1688 C1691 1.499 . S
C1689 H1663 0.950 . S
C1689 C1688 1.414 . S
C1689 C1690 1.374 . S
C1690 H1664 0.950 . S
C1690 C1686 1.385 . S
C1690 C1689 1.374 . S
C1691 C1688 1.499 . S
C1691 C1692 1.373 1_565 S
C1691 C1693 1.389 . S
C1692 H1665 0.950 . S
C1692 C1678 1.377 1_554 S
C1692 C1691 1.373 1_545 S
C1693 C1677 1.377 1_554 S
C1693 C1691 1.389 . S
C1693 C1694 1.524 . S
C1694 C1693 1.524 . S
C1694 C1695 1.397 . S
C1694 C1699 1.363 . S
C1695 H1666 0.950 . S
C1695 C1694 1.397 . S
C1695 C1696 1.334 . S
C1696 H1667 0.950 . S
C1696 C1695 1.334 . S
C1696 C1697 1.287 . S
C1697 C1696 1.287 . S
C1697 C1698 1.524 . S
C1697 H1700 0.999 . S
C1698 H1668 0.950 . S
C1698 C1697 1.524 . S
C1698 C1699 1.415 . S
C1699 H1669 0.950 . S
C1699 C1694 1.363 . S
C1699 C1698 1.415 . S
H1700 C1697 0.999 . S
H1701 C1682 0.913 . S
H1702 C1720 0.951 . S
H1703 C1722 0.951 . S
H1704 C1724 0.950 . S
H1705 C1725 0.950 . S
H1706 C1727 0.950 . S
H1707 C1730 0.950 . S
H1708 C1731 0.950 . S
H1709 C1733 0.950 . S
H1710 C1734 0.950 1_655 S
H1711 C1735 0.951 . S
H1712 C1737 0.951 . S
H1713 C1739 0.950 . S
H1714 C1740 0.950 . S
H1715 C1742 0.950 . S
H1716 C1745 0.950 . S
H1717 C1746 0.950 . S
H1718 C1748 0.950 . S
H1719 C1749 0.950 1_455 S
C1720 H1702 0.951 . S
C1720 C1721 1.366 . S
C1720 C1722 1.388 . S
C1721 C1720 1.366 . S
C1721 C1725 1.385 1_655 S
C1722 H1703 0.951 . S
C1722 C1720 1.388 . S
C1722 C1723 1.366 . S
C1723 C1722 1.366 . S
C1723 C1724 1.414 1_655 S
C1723 C1726 1.499 1_655 S
C1724 H1704 0.950 . S
C1724 C1723 1.414 1_455 S
C1724 C1725 1.374 . S
C1725 H1705 0.950 . S
C1725 C1721 1.385 1_455 S
C1725 C1724 1.374 . S
C1726 C1723 1.499 1_455 S
C1726 C1727 1.373 1_455 S
C1726 C1728 1.389 . S
C1727 H1706 0.950 . S
C1727 C1726 1.373 1_655 S
C1727 C1743 1.377 1_556 S
C1728 C1726 1.389 . S
C1728 C1729 1.524 . S
C1728 C1742 1.377 1_556 S
C1729 C1728 1.524 . S
C1729 C1730 1.397 . S
C1729 C1734 1.363 . S
C1730 H1707 0.950 . S
C1730 C1729 1.397 . S
C1730 C1731 1.334 . S
C1731 H1708 0.950 . S
C1731 C1730 1.334 . S
C1731 C1732 1.287 . S
C1732 C1731 1.287 . S
C1732 C1733 1.524 . S
C1732 H1751 0.913 . S
C1733 H1709 0.950 . S
C1733 C1732 1.524 . S
C1733 C1734 1.415 . S
C1734 H1710 0.950 1_455 S
C1734 C1729 1.363 . S
C1734 C1733 1.415 . S
C1735 H1711 0.951 . S
C1735 C1736 1.366 . S
C1735 C1737 1.388 . S
C1736 C1735 1.366 . S
C1736 C1740 1.385 1_455 S
C1737 H1712 0.951 . S
C1737 C1735 1.388 . S
C1737 C1738 1.366 . S
C1738 C1737 1.366 . S
C1738 C1739 1.414 1_455 S
C1738 C1741 1.499 . S
C1739 H1713 0.950 . S
C1739 C1738 1.414 1_655 S
C1739 C1740 1.374 . S
C1740 H1714 0.950 . S
C1740 C1736 1.385 1_655 S
C1740 C1739 1.374 . S
C1741 C1738 1.499 . S
C1741 C1742 1.373 . S
C1741 C1743 1.389 1_455 S
C1742 H1715 0.950 . S
C1742 C1728 1.377 1_554 S
C1742 C1741 1.373 . S
C1743 C1727 1.377 1_554 S
C1743 C1741 1.389 1_655 S
C1743 C1744 1.524 . S
C1744 C1743 1.524 . S
C1744 C1745 1.397 . S
C1744 C1749 1.363 . S
C1745 H1716 0.950 . S
C1745 C1744 1.397 . S
C1745 C1746 1.334 . S
C1746 H1717 0.950 . S
C1746 C1745 1.334 . S
C1746 C1747 1.287 . S
C1747 C1746 1.287 . S
C1747 C1748 1.524 . S
C1747 H1750 0.999 . S
C1748 H1718 0.950 . S
C1748 C1747 1.524 . S
C1748 C1749 1.415 . S
C1749 H1719 0.950 1_655 S
C1749 C1744 1.363 . S
C1749 C1748 1.415 . S
H1750 C1747 0.999 . S
H1751 C1732 0.913 . S
H1752 C1770 0.951 . S
H1753 C1772 0.951 . S
H1754 C1774 0.950 . S
H1755 C1775 0.950 . S
H1756 C1777 0.950 . S
H1757 C1780 0.950 . S
H1758 C1781 0.950 . S
H1759 C1783 0.950 . S
H1760 C1784 0.950 . S
H1761 C1785 0.951 . S
H1762 C1787 0.951 . S
H1763 C1789 0.950 . S
H1764 C1790 0.950 . S
H1765 C1792 0.950 . S
H1766 C1795 0.950 . S
H1767 C1796 0.950 . S
H1768 C1798 0.950 . S
H1769 C1799 0.950 . S
C1770 H1752 0.951 . S
C1770 C1771 1.366 . S
C1770 C1772 1.388 . S
C1771 C1770 1.366 . S
C1771 C1775 1.385 . S
C1772 H1753 0.951 . S
C1772 C1770 1.388 . S
C1772 C1773 1.366 . S
C1773 C1772 1.366 . S
C1773 C1774 1.414 . S
C1773 C1776 1.499 . S
C1774 H1754 0.950 . S
C1774 C1773 1.414 . S
C1774 C1775 1.374 . S
C1775 H1755 0.950 . S
C1775 C1771 1.385 . S
C1775 C1774 1.374 . S
C1776 C1773 1.499 . S
C1776 C1777 1.373 . S
C1776 C1778 1.389 . S
C1777 H1756 0.950 . S
C1777 C1776 1.373 . S
C1777 C1793 1.377 . S
C1778 C1776 1.389 . S
C1778 C1779 1.524 . S
C1778 C1792 1.377 . S
C1779 C1778 1.524 . S
C1779 C1780 1.397 . S
C1779 C1784 1.363 . S
C1780 H1757 0.950 . S
C1780 C1779 1.397 . S
C1780 C1781 1.334 . S
C1781 H1758 0.950 . S
C1781 C1780 1.334 . S
C1781 C1782 1.287 . S
C1782 C1781 1.287 . S
C1782 C1783 1.524 . S
C1782 H1801 0.913 . S
C1783 H1759 0.950 . S
C1783 C1782 1.524 . S
C1783 C1784 1.415 . S
C1784 H1760 0.950 . S
C1784 C1779 1.363 . S
C1784 C1783 1.415 . S
C1785 H1761 0.951 . S
C1785 C1786 1.366 . S
C1785 C1787 1.388 . S
C1786 C1785 1.366 . S
C1786 C1790 1.385 . S
C1787 H1762 0.951 . S
C1787 C1785 1.388 . S
C1787 C1788 1.366 . S
C1788 C1787 1.366 . S
C1788 C1789 1.414 . S
C1788 C1791 1.499 . S
C1789 H1763 0.950 . S
C1789 C1788 1.414 . S
C1789 C1790 1.374 . S
C1790 H1764 0.950 . S
C1790 C1786 1.385 . S
C1790 C1789 1.374 . S
C1791 C1788 1.499 . S
C1791 C1792 1.373 . S
C1791 C1793 1.389 . S
C1792 H1765 0.950 . S
C1792 C1778 1.377 . S
C1792 C1791 1.373 . S
C1793 C1777 1.377 . S
C1793 C1791 1.389 . S
C1793 C1794 1.524 . S
C1794 C1793 1.524 . S
C1794 C1795 1.397 . S
C1794 C1799 1.363 . S
C1795 H1766 0.950 . S
C1795 C1794 1.397 . S
C1795 C1796 1.334 . S
C1796 H1767 0.950 . S
C1796 C1795 1.334 . S
C1796 C1797 1.287 . S
C1797 C1796 1.287 . S
C1797 C1798 1.524 . S
C1797 H1800 0.999 . S
C1798 H1768 0.950 . S
C1798 C1797 1.524 . S
C1798 C1799 1.415 . S
C1799 H1769 0.950 . S
C1799 C1794 1.363 . S
C1799 C1798 1.415 . S
H1800 C1797 0.999 . S
H1801 C1782 0.913 . S
H1802 C1820 0.951 . S
H1803 C1822 0.951 . S
H1804 C1824 0.950 . S
H1805 C1825 0.950 . S
H1806 C1827 0.950 . S
H1807 C1830 0.950 . S
H1808 C1831 0.950 . S
H1809 C1833 0.950 . S
H1810 C1834 0.950 . S
H1811 C1835 0.951 . S
H1812 C1837 0.951 . S
H1813 C1839 0.950 . S
H1814 C1840 0.950 . S
H1815 C1842 0.950 . S
H1816 C1845 0.950 . S
H1817 C1846 0.950 . S
H1818 C1848 0.950 . S
H1819 C1849 0.950 . S
C1820 H1802 0.951 . S
C1820 C1821 1.366 . S
C1820 C1822 1.388 . S
C1821 C1820 1.366 . S
C1821 C1825 1.385 . S
C1822 H1803 0.951 . S
C1822 C1820 1.388 . S
C1822 C1823 1.366 . S
C1823 C1822 1.366 . S
C1823 C1824 1.414 . S
C1823 C1826 1.499 . S
C1824 H1804 0.950 . S
C1824 C1823 1.414 . S
C1824 C1825 1.374 . S
C1825 H1805 0.950 . S
C1825 C1821 1.385 . S
C1825 C1824 1.374 . S
C1826 C1823 1.499 . S
C1826 C1827 1.373 . S
C1826 C1828 1.389 . S
C1827 H1806 0.950 . S
C1827 C1826 1.373 . S
C1827 C1843 1.377 . S
C1828 C1826 1.389 . S
C1828 C1829 1.524 . S
C1828 C1842 1.377 . S
C1829 C1828 1.524 . S
C1829 C1830 1.397 . S
C1829 C1834 1.363 . S
C1830 H1807 0.950 . S
C1830 C1829 1.397 . S
C1830 C1831 1.334 . S
C1831 H1808 0.950 . S
C1831 C1830 1.334 . S
C1831 C1832 1.287 . S
C1832 C1831 1.287 . S
C1832 C1833 1.524 . S
C1832 H1851 0.913 . S
C1833 H1809 0.950 . S
C1833 C1832 1.524 . S
C1833 C1834 1.415 . S
C1834 H1810 0.950 . S
C1834 C1829 1.363 . S
C1834 C1833 1.415 . S
C1835 H1811 0.951 . S
C1835 C1836 1.366 . S
C1835 C1837 1.388 . S
C1836 C1835 1.366 . S
C1836 C1840 1.385 . S
C1837 H1812 0.951 . S
C1837 C1835 1.388 . S
C1837 C1838 1.366 . S
C1838 C1837 1.366 . S
C1838 C1839 1.414 . S
C1838 C1841 1.499 . S
C1839 H1813 0.950 . S
C1839 C1838 1.414 . S
C1839 C1840 1.374 . S
C1840 H1814 0.950 . S
C1840 C1836 1.385 . S
C1840 C1839 1.374 . S
C1841 C1838 1.499 . S
C1841 C1842 1.373 . S
C1841 C1843 1.389 . S
C1842 H1815 0.950 . S
C1842 C1828 1.377 . S
C1842 C1841 1.373 . S
C1843 C1827 1.377 . S
C1843 C1841 1.389 . S
C1843 C1844 1.524 . S
C1844 C1843 1.524 . S
C1844 C1845 1.397 . S
C1844 C1849 1.363 . S
C1845 H1816 0.950 . S
C1845 C1844 1.397 . S
C1845 C1846 1.334 . S
C1846 H1817 0.950 . S
C1846 C1845 1.334 . S
C1846 C1847 1.287 . S
C1847 C1846 1.287 . S
C1847 C1848 1.524 . S
C1847 H1850 0.999 . S
C1848 H1818 0.950 . S
C1848 C1847 1.524 . S
C1848 C1849 1.415 . S
C1849 H1819 0.950 . S
C1849 C1844 1.363 . S
C1849 C1848 1.415 . S
H1850 C1847 0.999 . S
H1851 C1832 0.913 . S
H1852 C1870 0.951 . S
H1853 C1872 0.951 . S
H1854 C1874 0.950 . S
H1855 C1875 0.950 . S
H1856 C1877 0.950 . S
H1857 C1880 0.950 . S
H1858 C1881 0.950 . S
H1859 C1883 0.950 . S
H1860 C1884 0.950 . S
H1861 C1885 0.951 . S
H1862 C1887 0.951 . S
H1863 C1889 0.950 . S
H1864 C1890 0.950 . S
H1865 C1892 0.950 . S
H1866 C1895 0.950 . S
H1867 C1896 0.950 . S
H1868 C1898 0.950 . S
H1869 C1899 0.950 . S
C1870 H1852 0.951 . S
C1870 C1871 1.366 . S
C1870 C1872 1.388 . S
C1871 C1870 1.366 . S
C1871 C1875 1.385 . S
C1872 H1853 0.951 . S
C1872 C1870 1.388 . S
C1872 C1873 1.366 . S
C1873 C1872 1.366 . S
C1873 C1874 1.414 . S
C1873 C1876 1.499 . S
C1874 H1854 0.950 . S
C1874 C1873 1.414 . S
C1874 C1875 1.374 . S
C1875 H1855 0.950 . S
C1875 C1871 1.385 . S
C1875 C1874 1.374 . S
C1876 C1873 1.499 . S
C1876 C1877 1.373 . S
C1876 C1878 1.389 . S
C1877 H1856 0.950 . S
C1877 C1876 1.373 . S
C1877 C1893 1.377 . S
C1878 C1876 1.389 . S
C1878 C1879 1.524 . S
C1878 C1892 1.377 . S
C1879 C1878 1.524 . S
C1879 C1880 1.397 . S
C1879 C1884 1.363 . S
C1880 H1857 0.950 . S
C1880 C1879 1.397 . S
C1880 C1881 1.334 . S
C1881 H1858 0.950 . S
C1881 C1880 1.334 . S
C1881 C1882 1.287 . S
C1882 C1881 1.287 . S
C1882 C1883 1.524 . S
C1882 H1901 0.913 . S
C1883 H1859 0.950 . S
C1883 C1882 1.524 . S
C1883 C1884 1.415 . S
C1884 H1860 0.950 . S
C1884 C1879 1.363 . S
C1884 C1883 1.415 . S
C1885 H1861 0.951 . S
C1885 C1886 1.366 . S
C1885 C1887 1.388 . S
C1886 C1885 1.366 . S
C1886 C1890 1.385 . S
C1887 H1862 0.951 . S
C1887 C1885 1.388 . S
C1887 C1888 1.366 . S
C1888 C1887 1.366 . S
C1888 C1889 1.414 . S
C1888 C1891 1.499 . S
C1889 H1863 0.950 . S
C1889 C1888 1.414 . S
C1889 C1890 1.374 . S
C1890 H1864 0.950 . S
C1890 C1886 1.385 . S
C1890 C1889 1.374 . S
C1891 C1888 1.499 . S
C1891 C1892 1.373 . S
C1891 C1893 1.389 . S
C1892 H1865 0.950 . S
C1892 C1878 1.377 . S
C1892 C1891 1.373 . S
C1893 C1877 1.377 . S
C1893 C1891 1.389 . S
C1893 C1894 1.524 . S
C1894 C1893 1.524 . S
C1894 C1895 1.397 . S
C1894 C1899 1.363 . S
C1895 H1866 0.950 . S
C1895 C1894 1.397 . S
C1895 C1896 1.334 . S
C1896 H1867 0.950 . S
C1896 C1895 1.334 . S
C1896 C1897 1.287 . S
C1897 C1896 1.287 . S
C1897 C1898 1.524 . S
C1897 H1900 0.999 . S
C1898 H1868 0.950 . S
C1898 C1897 1.524 . S
C1898 C1899 1.415 . S
C1899 H1869 0.950 . S
C1899 C1894 1.363 . S
C1899 C1898 1.415 . S
H1900 C1897 0.999 . S
H1901 C1882 0.913 . S
H1902 C1920 0.951 . S
H1903 C1922 0.951 . S
H1904 C1924 0.950 . S
H1905 C1925 0.950 . S
H1906 C1927 0.950 . S
H1907 C1930 0.950 . S
H1908 C1931 0.950 . S
H1909 C1933 0.950 . S
H1910 C1934 0.950 . S
H1911 C1935 0.951 . S
H1912 C1937 0.951 . S
H1913 C1939 0.950 . S
H1914 C1940 0.950 . S
H1915 C1942 0.950 . S
H1916 C1945 0.950 . S
H1917 C1946 0.950 . S
H1918 C1948 0.950 . S
H1919 C1949 0.950 . S
C1920 H1902 0.951 . S
C1920 C1921 1.366 . S
C1920 C1922 1.388 . S
C1921 C1920 1.366 . S
C1921 C1925 1.385 . S
C1922 H1903 0.951 . S
C1922 C1920 1.388 . S
C1922 C1923 1.366 . S
C1923 C1922 1.366 . S
C1923 C1924 1.414 . S
C1923 C1926 1.499 . S
C1924 H1904 0.950 . S
C1924 C1923 1.414 . S
C1924 C1925 1.374 . S
C1925 H1905 0.950 . S
C1925 C1921 1.385 . S
C1925 C1924 1.374 . S
C1926 C1923 1.499 . S
C1926 C1927 1.373 . S
C1926 C1928 1.389 . S
C1927 H1906 0.950 . S
C1927 C1926 1.373 . S
C1927 C1943 1.377 . S
C1928 C1926 1.389 . S
C1928 C1929 1.524 . S
C1928 C1942 1.377 . S
C1929 C1928 1.524 . S
C1929 C1930 1.397 . S
C1929 C1934 1.363 . S
C1930 H1907 0.950 . S
C1930 C1929 1.397 . S
C1930 C1931 1.334 . S
C1931 H1908 0.950 . S
C1931 C1930 1.334 . S
C1931 C1932 1.287 . S
C1932 C1931 1.287 . S
C1932 C1933 1.524 . S
C1932 H1951 0.913 . S
C1933 H1909 0.950 . S
C1933 C1932 1.524 . S
C1933 C1934 1.415 . S
C1934 H1910 0.950 . S
C1934 C1929 1.363 . S
C1934 C1933 1.415 . S
C1935 H1911 0.951 . S
C1935 C1936 1.366 . S
C1935 C1937 1.388 . S
C1936 C1935 1.366 . S
C1936 C1940 1.385 . S
C1937 H1912 0.951 . S
C1937 C1935 1.388 . S
C1937 C1938 1.366 . S
C1938 C1937 1.366 . S
C1938 C1939 1.414 . S
C1938 C1941 1.499 . S
C1939 H1913 0.950 . S
C1939 C1938 1.414 . S
C1939 C1940 1.374 . S
C1940 H1914 0.950 . S
C1940 C1936 1.385 . S
C1940 C1939 1.374 . S
C1941 C1938 1.499 . S
C1941 C1942 1.373 . S
C1941 C1943 1.389 . S
C1942 H1915 0.950 . S
C1942 C1928 1.377 . S
C1942 C1941 1.373 . S
C1943 C1927 1.377 . S
C1943 C1941 1.389 . S
C1943 C1944 1.524 . S
C1944 C1943 1.524 . S
C1944 C1945 1.397 . S
C1944 C1949 1.363 . S
C1945 H1916 0.950 . S
C1945 C1944 1.397 . S
C1945 C1946 1.334 . S
C1946 H1917 0.950 . S
C1946 C1945 1.334 . S
C1946 C1947 1.287 . S
C1947 C1946 1.287 . S
C1947 C1948 1.524 . S
C1947 H1950 0.999 . S
C1948 H1918 0.950 . S
C1948 C1947 1.524 . S
C1948 C1949 1.415 . S
C1949 H1919 0.950 . S
C1949 C1944 1.363 . S
C1949 C1948 1.415 . S
H1950 C1947 0.999 . S
H1951 C1932 0.913 . S
H1952 C1970 0.951 . S
H1953 C1972 0.951 . S
H1954 C1974 0.950 . S
H1955 C1975 0.950 . S
H1956 C1977 0.950 . S
H1957 C1980 0.950 . S
H1958 C1981 0.950 . S
H1959 C1983 0.950 . S
H1960 C1984 0.950 . S
H1961 C1985 0.951 . S
H1962 C1987 0.951 . S
H1963 C1989 0.950 . S
H1964 C1990 0.950 . S
H1965 C1992 0.950 . S
H1966 C1995 0.950 . S
H1967 C1996 0.950 . S
H1968 C1998 0.950 . S
H1969 C1999 0.950 . S
C1970 H1952 0.951 . S
C1970 C1971 1.366 . S
C1970 C1972 1.388 . S
C1971 C1970 1.366 . S
C1971 C1975 1.385 . S
C1972 H1953 0.951 . S
C1972 C1970 1.388 . S
C1972 C1973 1.366 . S
C1973 C1972 1.366 . S
C1973 C1974 1.414 . S
C1973 C1976 1.499 . S
C1974 H1954 0.950 . S
C1974 C1973 1.414 . S
C1974 C1975 1.374 . S
C1975 H1955 0.950 . S
C1975 C1971 1.385 . S
C1975 C1974 1.374 . S
C1976 C1973 1.499 . S
C1976 C1977 1.373 . S
C1976 C1978 1.389 . S
C1977 H1956 0.950 . S
C1977 C1976 1.373 . S
C1977 C1993 1.377 . S
C1978 C1976 1.389 . S
C1978 C1979 1.524 . S
C1978 C1992 1.377 . S
C1979 C1978 1.524 . S
C1979 C1980 1.397 . S
C1979 C1984 1.363 . S
C1980 H1957 0.950 . S
C1980 C1979 1.397 . S
C1980 C1981 1.334 . S
C1981 H1958 0.950 . S
C1981 C1980 1.334 . S
C1981 C1982 1.287 . S
C1982 C1981 1.287 . S
C1982 C1983 1.524 . S
C1982 H2001 0.913 . S
C1983 H1959 0.950 . S
C1983 C1982 1.524 . S
C1983 C1984 1.415 . S
C1984 H1960 0.950 . S
C1984 C1979 1.363 . S
C1984 C1983 1.415 . S
C1985 H1961 0.951 . S
C1985 C1986 1.366 . S
C1985 C1987 1.388 . S
C1986 C1985 1.366 . S
C1986 C1990 1.385 . S
C1987 H1962 0.951 . S
C1987 C1985 1.388 . S
C1987 C1988 1.366 . S
C1988 C1987 1.366 . S
C1988 C1989 1.414 . S
C1988 C1991 1.499 . S
C1989 H1963 0.950 . S
C1989 C1988 1.414 . S
C1989 C1990 1.374 . S
C1990 H1964 0.950 . S
C1990 C1986 1.385 . S
C1990 C1989 1.374 . S
C1991 C1988 1.499 . S
C1991 C1992 1.373 . S
C1991 C1993 1.389 . S
C1992 H1965 0.950 . S
C1992 C1978 1.377 . S
C1992 C1991 1.373 . S
C1993 C1977 1.377 . S
C1993 C1991 1.389 . S
C1993 C1994 1.524 . S
C1994 C1993 1.524 . S
C1994 C1995 1.397 . S
C1994 C1999 1.363 . S
C1995 H1966 0.950 . S
C1995 C1994 1.397 . S
C1995 C1996 1.334 . S
C1996 H1967 0.950 . S
C1996 C1995 1.334 . S
C1996 C1997 1.287 . S
C1997 C1996 1.287 . S
C1997 C1998 1.524 . S
C1997 H2000 0.999 . S
C1998 H1968 0.950 . S
C1998 C1997 1.524 . S
C1998 C1999 1.415 . S
C1999 H1969 0.950 . S
C1999 C1994 1.363 . S
C1999 C1998 1.415 . S
H2000 C1997 0.999 . S
H2001 C1982 0.913 . S
H2002 C2020 0.951 . S
H2003 C2022 0.951 . S
H2004 C2024 0.950 . S
H2005 C2025 0.950 . S
H2006 C2027 0.950 . S
H2007 C2030 0.950 . S
H2008 C2031 0.950 . S
H2009 C2033 0.950 . S
H2010 C2034 0.950 . S
H2011 C2035 0.951 . S
H2012 C2037 0.951 . S
H2013 C2039 0.950 . S
H2014 C2040 0.950 . S
H2015 C2042 0.950 . S
H2016 C2045 0.950 . S
H2017 C2046 0.950 . S
H2018 C2048 0.950 . S
H2019 C2049 0.950 . S
C2020 H2002 0.951 . S
C2020 C2021 1.366 . S
C2020 C2022 1.388 . S
C2021 C2020 1.366 . S
C2021 C2025 1.385 . S
C2022 H2003 0.951 . S
C2022 C2020 1.388 . S
C2022 C2023 1.366 . S
C2023 C2022 1.366 . S
C2023 C2024 1.414 . S
C2023 C2026 1.499 . S
C2024 H2004 0.950 . S
C2024 C2023 1.414 . S
C2024 C2025 1.374 . S
C2025 H2005 0.950 . S
C2025 C2021 1.385 . S
C2025 C2024 1.374 . S
C2026 C2023 1.499 . S
C2026 C2027 1.373 . S
C2026 C2028 1.389 . S
C2027 H2006 0.950 . S
C2027 C2026 1.373 . S
C2027 C2043 1.377 . S
C2028 C2026 1.389 . S
C2028 C2029 1.524 . S
C2028 C2042 1.377 . S
C2029 C2028 1.524 . S
C2029 C2030 1.397 . S
C2029 C2034 1.363 . S
C2030 H2007 0.950 . S
C2030 C2029 1.397 . S
C2030 C2031 1.334 . S
C2031 H2008 0.950 . S
C2031 C2030 1.334 . S
C2031 C2032 1.287 . S
C2032 C2031 1.287 . S
C2032 C2033 1.524 . S
C2032 H2051 0.913 . S
C2033 H2009 0.950 . S
C2033 C2032 1.524 . S
C2033 C2034 1.415 . S
C2034 H2010 0.950 . S
C2034 C2029 1.363 . S
C2034 C2033 1.415 . S
C2035 H2011 0.951 . S
C2035 C2036 1.366 . S
C2035 C2037 1.388 . S
C2036 C2035 1.366 . S
C2036 C2040 1.385 . S
C2037 H2012 0.951 . S
C2037 C2035 1.388 . S
C2037 C2038 1.366 . S
C2038 C2037 1.366 . S
C2038 C2039 1.414 . S
C2038 C2041 1.499 . S
C2039 H2013 0.950 . S
C2039 C2038 1.414 . S
C2039 C2040 1.374 . S
C2040 H2014 0.950 . S
C2040 C2036 1.385 . S
C2040 C2039 1.374 . S
C2041 C2038 1.499 . S
C2041 C2042 1.373 . S
C2041 C2043 1.389 . S
C2042 H2015 0.950 . S
C2042 C2028 1.377 . S
C2042 C2041 1.373 . S
C2043 C2027 1.377 . S
C2043 C2041 1.389 . S
C2043 C2044 1.524 . S
C2044 C2043 1.524 . S
C2044 C2045 1.397 . S
C2044 C2049 1.363 . S
C2045 H2016 0.950 . S
C2045 C2044 1.397 . S
C2045 C2046 1.334 . S
C2046 H2017 0.950 . S
C2046 C2045 1.334 . S
C2046 C2047 1.287 . S
C2047 C2046 1.287 . S
C2047 C2048 1.524 . S
C2047 H2050 0.999 . S
C2048 H2018 0.950 . S
C2048 C2047 1.524 . S
C2048 C2049 1.415 . S
C2049 H2019 0.950 . S
C2049 C2044 1.363 . S
C2049 C2048 1.415 . S
H2050 C2047 0.999 . S
H2051 C2032 0.913 . S
C271 C148 1.009 . S
C286 C8 1.009 . S
C321 C22 1.008 . S
C336 C162 1.009 . S
C371 C134 1.009 . S
C386 C36 1.009 . S
C421 C204 1.009 . S
C436 C50 1.009 . S
C471 C64 1.009 . S
C486 C176 1.009 . S
C521 C190 1.008 . S
C536 C78 1.009 . S
C571 C92 1.009 . S
C586 C232 1.009 . S
C621 C246 1.009 . S
C636 C106 1.009 . S
C671 C120 1.009 . S
C686 C218 1.009 . S
C721 C9 0.816 . S
C736 C17 0.839 . S
C771 C23 0.817 . S
C786 C31 0.838 . S
C821 C3 0.838 . S
C836 C37 0.818 . S
C871 C73 0.838 . S
C886 C51 0.819 . S
C921 C45 0.838 . S
C936 C65 0.817 . S
C971 C79 0.816 . S
C986 C59 0.839 . S
C1021 C93 0.819 . S
C1036 C101 0.838 . S
C1071 C107 0.816 . S
C1086 C115 0.839 . S
C1121 C87 0.838 . S
C1136 C121 0.817 . S
C1171 C157 0.839 . S
C1186 C135 0.817 . S
C1221 C129 0.838 . S
C1236 C149 0.818 . S
C1271 C143 0.837 . S
C1286 C163 0.817 . S
C1321 C185 0.838 . S
C1336 C177 0.818 . S
C1371 C199 0.837 . S
C1386 C191 0.818 . S
C1421 C171 0.838 . S
C1436 C205 0.818 . S
C1471 C219 0.816 . S
C1486 C241 0.839 . S
C1521 C233 0.816 . S
C1536 C213 0.839 . S
C1571 C247 0.816 . S
C1586 C227 0.838 . S
C1621 C7 1.579 . S
C1636 C49 1.580 . S
C1671 C63 1.579 . S
C1686 C21 1.579 . S
C1721 C77 1.580 . S
C1736 C35 1.579 . S
C1771 C133 1.580 . S
C1786 C91 1.579 . S
C1821 C147 1.578 . S
C1836 C105 1.580 . S
C1871 C119 1.578 . S
C1886 C161 1.580 . S
C1921 C217 1.579 . S
C1936 C175 1.580 . S
C1971 C231 1.579 . S
C1986 C189 1.580 . S
C2021 C245 1.580 . S
C2036 C203 1.578 . S
