# Generated by pormake.
# Topology dei, (4)-cn, num edge types: 1
# Building blocks:
#     Node 0, Type 0, BuildingBlock: CEKHIL_clean_sbu_0, # of connection points: 4
#     Node 1, Type 0, BuildingBlock: CEKHIL_clean_sbu_0, # of connection points: 4
#     Node 2, Type 0, BuildingBlock: CEKHIL_clean_sbu_0, # of connection points: 4
#     Node 3, Type 0, BuildingBlock: CEKHIL_clean_sbu_0, # of connection points: 4
#     Node 4, Type 0, BuildingBlock: CEKHIL_clean_sbu_0, # of connection points: 4
#     Node 5, Type 0, BuildingBlock: CEKHIL_clean_sbu_0, # of connection points: 4
#     Node 6, Type 0, BuildingBlock: CEKHIL_clean_sbu_0, # of connection points: 4
#     Node 7, Type 0, BuildingBlock: CEKHIL_clean_sbu_0, # of connection points: 4
#     Node 8, Type 0, BuildingBlock: CEKHIL_clean_sbu_0, # of connection points: 4
#     Node 9, Type 0, BuildingBlock: CEKHIL_clean_sbu_0, # of connection points: 4
#     Node 10, Type 0, BuildingBlock: CEKHIL_clean_sbu_0, # of connection points: 4
#     Node 11, Type 0, BuildingBlock: CEKHIL_clean_sbu_0, # of connection points: 4
#     Node 12, Type 0, BuildingBlock: CEKHIL_clean_sbu_0, # of connection points: 4
#     Node 13, Type 0, BuildingBlock: CEKHIL_clean_sbu_0, # of connection points: 4
#     Node 14, Type 0, BuildingBlock: CEKHIL_clean_sbu_0, # of connection points: 4
#     Node 15, Type 0, BuildingBlock: CEKHIL_clean_sbu_0, # of connection points: 4
#     Node 16, Type 0, BuildingBlock: CEKHIL_clean_sbu_0, # of connection points: 4
#     Node 17, Type 0, BuildingBlock: CEKHIL_clean_sbu_0, # of connection points: 4
#     Node 18, Type 0, BuildingBlock: CEKHIL_clean_sbu_0, # of connection points: 4
#     Node 19, Type 0, BuildingBlock: CEKHIL_clean_sbu_0, # of connection points: 4
#     Node 20, Type 0, BuildingBlock: CEKHIL_clean_sbu_0, # of connection points: 4
#     Node 21, Type 0, BuildingBlock: CEKHIL_clean_sbu_0, # of connection points: 4
#     Node 22, Type 0, BuildingBlock: CEKHIL_clean_sbu_0, # of connection points: 4
#     Node 23, Type 0, BuildingBlock: CEKHIL_clean_sbu_0, # of connection points: 4
#     Node 24, Type 0, BuildingBlock: CEKHIL_clean_sbu_0, # of connection points: 4
#     Node 25, Type 0, BuildingBlock: CEKHIL_clean_sbu_0, # of connection points: 4
#     Node 26, Type 0, BuildingBlock: CEKHIL_clean_sbu_0, # of connection points: 4
#     Node 27, Type 0, BuildingBlock: CEKHIL_clean_sbu_0, # of connection points: 4
#     Node 28, Type 0, BuildingBlock: CEKHIL_clean_sbu_0, # of connection points: 4
#     Node 29, Type 0, BuildingBlock: CEKHIL_clean_sbu_0, # of connection points: 4
#     Node 30, Type 0, BuildingBlock: CEKHIL_clean_sbu_0, # of connection points: 4
#     Node 31, Type 0, BuildingBlock: CEKHIL_clean_sbu_0, # of connection points: 4
#     Edge 32, Type (0, 0), BuildingBlock: MIFKUJ_clean_linker_0, # of connection points: 2
#     Edge 33, Type (0, 0), BuildingBlock: MIFKUJ_clean_linker_0, # of connection points: 2
#     Edge 34, Type (0, 0), BuildingBlock: MIFKUJ_clean_linker_0, # of connection points: 2
#     Edge 35, Type (0, 0), BuildingBlock: MIFKUJ_clean_linker_0, # of connection points: 2
#     Edge 36, Type (0, 0), BuildingBlock: MIFKUJ_clean_linker_0, # of connection points: 2
#     Edge 37, Type (0, 0), BuildingBlock: MIFKUJ_clean_linker_0, # of connection points: 2
#     Edge 38, Type (0, 0), BuildingBlock: MIFKUJ_clean_linker_0, # of connection points: 2
#     Edge 39, Type (0, 0), BuildingBlock: MIFKUJ_clean_linker_0, # of connection points: 2
#     Edge 40, Type (0, 0), BuildingBlock: MIFKUJ_clean_linker_0, # of connection points: 2
#     Edge 41, Type (0, 0), BuildingBlock: MIFKUJ_clean_linker_0, # of connection points: 2
#     Edge 42, Type (0, 0), BuildingBlock: MIFKUJ_clean_linker_0, # of connection points: 2
#     Edge 43, Type (0, 0), BuildingBlock: MIFKUJ_clean_linker_0, # of connection points: 2
#     Edge 44, Type (0, 0), BuildingBlock: MIFKUJ_clean_linker_0, # of connection points: 2
#     Edge 45, Type (0, 0), BuildingBlock: MIFKUJ_clean_linker_0, # of connection points: 2
#     Edge 46, Type (0, 0), BuildingBlock: MIFKUJ_clean_linker_0, # of connection points: 2
#     Edge 47, Type (0, 0), BuildingBlock: MIFKUJ_clean_linker_0, # of connection points: 2
#     Edge 48, Type (0, 0), BuildingBlock: MIFKUJ_clean_linker_0, # of connection points: 2
#     Edge 49, Type (0, 0), BuildingBlock: MIFKUJ_clean_linker_0, # of connection points: 2
#     Edge 50, Type (0, 0), BuildingBlock: MIFKUJ_clean_linker_0, # of connection points: 2
#     Edge 51, Type (0, 0), BuildingBlock: MIFKUJ_clean_linker_0, # of connection points: 2
#     Edge 52, Type (0, 0), BuildingBlock: MIFKUJ_clean_linker_0, # of connection points: 2
#     Edge 53, Type (0, 0), BuildingBlock: MIFKUJ_clean_linker_0, # of connection points: 2
#     Edge 54, Type (0, 0), BuildingBlock: MIFKUJ_clean_linker_0, # of connection points: 2
#     Edge 55, Type (0, 0), BuildingBlock: MIFKUJ_clean_linker_0, # of connection points: 2
#     Edge 56, Type (0, 0), BuildingBlock: MIFKUJ_clean_linker_0, # of connection points: 2
#     Edge 57, Type (0, 0), BuildingBlock: MIFKUJ_clean_linker_0, # of connection points: 2
#     Edge 58, Type (0, 0), BuildingBlock: MIFKUJ_clean_linker_0, # of connection points: 2
#     Edge 59, Type (0, 0), BuildingBlock: MIFKUJ_clean_linker_0, # of connection points: 2
#     Edge 60, Type (0, 0), BuildingBlock: MIFKUJ_clean_linker_0, # of connection points: 2
#     Edge 61, Type (0, 0), BuildingBlock: MIFKUJ_clean_linker_0, # of connection points: 2
#     Edge 62, Type (0, 0), BuildingBlock: MIFKUJ_clean_linker_0, # of connection points: 2
#     Edge 63, Type (0, 0), BuildingBlock: MIFKUJ_clean_linker_0, # of connection points: 2
#     Edge 64, Type (0, 0), BuildingBlock: MIFKUJ_clean_linker_0, # of connection points: 2
#     Edge 65, Type (0, 0), BuildingBlock: MIFKUJ_clean_linker_0, # of connection points: 2
#     Edge 66, Type (0, 0), BuildingBlock: MIFKUJ_clean_linker_0, # of connection points: 2
#     Edge 67, Type (0, 0), BuildingBlock: MIFKUJ_clean_linker_0, # of connection points: 2
#     Edge 68, Type (0, 0), BuildingBlock: MIFKUJ_clean_linker_0, # of connection points: 2
#     Edge 69, Type (0, 0), BuildingBlock: MIFKUJ_clean_linker_0, # of connection points: 2
#     Edge 70, Type (0, 0), BuildingBlock: MIFKUJ_clean_linker_0, # of connection points: 2
#     Edge 71, Type (0, 0), BuildingBlock: MIFKUJ_clean_linker_0, # of connection points: 2
#     Edge 72, Type (0, 0), BuildingBlock: MIFKUJ_clean_linker_0, # of connection points: 2
#     Edge 73, Type (0, 0), BuildingBlock: MIFKUJ_clean_linker_0, # of connection points: 2
#     Edge 74, Type (0, 0), BuildingBlock: MIFKUJ_clean_linker_0, # of connection points: 2
#     Edge 75, Type (0, 0), BuildingBlock: MIFKUJ_clean_linker_0, # of connection points: 2
#     Edge 76, Type (0, 0), BuildingBlock: MIFKUJ_clean_linker_0, # of connection points: 2
#     Edge 77, Type (0, 0), BuildingBlock: MIFKUJ_clean_linker_0, # of connection points: 2
#     Edge 78, Type (0, 0), BuildingBlock: MIFKUJ_clean_linker_0, # of connection points: 2
#     Edge 79, Type (0, 0), BuildingBlock: MIFKUJ_clean_linker_0, # of connection points: 2
#     Edge 80, Type (0, 0), BuildingBlock: MIFKUJ_clean_linker_0, # of connection points: 2
#     Edge 81, Type (0, 0), BuildingBlock: MIFKUJ_clean_linker_0, # of connection points: 2
#     Edge 82, Type (0, 0), BuildingBlock: MIFKUJ_clean_linker_0, # of connection points: 2
#     Edge 83, Type (0, 0), BuildingBlock: MIFKUJ_clean_linker_0, # of connection points: 2
#     Edge 84, Type (0, 0), BuildingBlock: MIFKUJ_clean_linker_0, # of connection points: 2
#     Edge 85, Type (0, 0), BuildingBlock: MIFKUJ_clean_linker_0, # of connection points: 2
#     Edge 86, Type (0, 0), BuildingBlock: MIFKUJ_clean_linker_0, # of connection points: 2
#     Edge 87, Type (0, 0), BuildingBlock: MIFKUJ_clean_linker_0, # of connection points: 2
#     Edge 88, Type (0, 0), BuildingBlock: MIFKUJ_clean_linker_0, # of connection points: 2
#     Edge 89, Type (0, 0), BuildingBlock: MIFKUJ_clean_linker_0, # of connection points: 2
#     Edge 90, Type (0, 0), BuildingBlock: MIFKUJ_clean_linker_0, # of connection points: 2
#     Edge 91, Type (0, 0), BuildingBlock: MIFKUJ_clean_linker_0, # of connection points: 2
#     Edge 92, Type (0, 0), BuildingBlock: MIFKUJ_clean_linker_0, # of connection points: 2
#     Edge 93, Type (0, 0), BuildingBlock: MIFKUJ_clean_linker_0, # of connection points: 2
#     Edge 94, Type (0, 0), BuildingBlock: MIFKUJ_clean_linker_0, # of connection points: 2
#     Edge 95, Type (0, 0), BuildingBlock: MIFKUJ_clean_linker_0, # of connection points: 2
# Relax obj value: 0.248
# Max RMSD: 0.066
# Mean RMSD: 0.066
data_MOF--net-dei--node1-CEKHIL_clean_sbu_0--edge1-MIFKUJ_clean_linker_0
_symmetry_space_group_name_H-M    P1
_symmetry_Int_Tables_number       1
_symmetry_cell_setting            triclinic
loop_
_symmetry_equiv_pos_as_xyz
'x, y, z'
_cell_length_a     75.180511
_cell_length_b     75.177252
_cell_length_c     97.003963
_cell_angle_alpha  90.000522
_cell_angle_beta   89.999604
_cell_angle_gamma 90.000747
loop_
_atom_site_label
_atom_site_type_symbol
_atom_site_fract_x
_atom_site_fract_y
_atom_site_fract_z
_atom_type_partial_charge
Co0 Co 0.1261 0.62481 0.02549 0.0
O1 O 0.11882 0.6003 0.02544 0.0
O2 O 0.13769 0.61189 0.01047 0.0
C3 C 0.13132 0.62534 0.04841 0.0
O4 O 0.13669 0.65001 0.02281 0.0
Co5 Co 0.10496 0.65257 0.04271 0.0
O6 O 0.12662 0.66704 0.04023 0.0
C7 C 0.09069 0.6397 0.01597 0.0
C8 C 0.12914 0.59795 0.01494 0.0
C9 C 0.1369 0.66452 0.03 0.0
O10 O 0.10499 0.63083 0.01352 0.0
O11 O 0.08793 0.64833 0.02715 0.0
O12 O 0.14346 0.61963 0.03998 0.0
O13 O 0.11634 0.62961 0.04286 0.0
Co14 Co 0.63608 0.8726 0.27915 0.0
O15 O 0.66138 0.86988 0.28072 0.0
O16 O 0.64825 0.88611 0.26469 0.0
C17 C 0.6324 0.87726 0.30198 0.0
O18 O 0.60978 0.87887 0.27512 0.0
Co19 Co 0.61099 0.84661 0.29487 0.0
O20 O 0.59346 0.86574 0.29172 0.0
C21 C 0.62812 0.8353 0.26875 0.0
C22 C 0.66297 0.88038 0.27025 0.0
C23 C 0.59498 0.87667 0.28175 0.0
O24 O 0.63487 0.85087 0.2669 0.0
O25 O 0.61907 0.83094 0.27942 0.0
O26 O 0.6366 0.89044 0.29393 0.0
O27 O 0.63145 0.86192 0.29612 0.0
Co28 Co 0.37617 0.38524 0.53109 0.0
O29 O 0.38124 0.41007 0.53321 0.0
O30 O 0.36617 0.39878 0.51572 0.0
C31 C 0.36753 0.38167 0.55322 0.0
O32 O 0.36834 0.35975 0.52609 0.0
Co33 Co 0.39789 0.35819 0.54874 0.0
O34 O 0.37927 0.34144 0.54249 0.0
C35 C 0.41488 0.37853 0.52625 0.0
C36 C 0.37278 0.41278 0.52179 0.0
C37 C 0.36938 0.34441 0.53208 0.0
O38 O 0.39955 0.3823 0.52113 0.0
O39 O 0.4169 0.37062 0.53784 0.0
O40 O 0.35625 0.38742 0.54409 0.0
O41 O 0.38351 0.37938 0.54882 0.0
Co42 Co 0.87236 0.13088 0.78053 0.0
O43 O 0.84755 0.13658 0.78195 0.0
O44 O 0.85924 0.12138 0.76472 0.0
C45 C 0.87418 0.12201 0.80276 0.0
O46 O 0.89784 0.12208 0.77632 0.0
Co47 Co 0.89953 0.15079 0.7992 0.0
O48 O 0.91498 0.13053 0.79423 0.0
C49 C 0.8843 0.1687 0.77463 0.0
C50 C 0.84507 0.12793 0.7706 0.0
C51 C 0.91253 0.12154 0.78327 0.0
O52 O 0.87689 0.1541 0.77063 0.0
O53 O 0.8927 0.17018 0.78605 0.0
O54 O 0.86872 0.11099 0.79335 0.0
O55 O 0.87742 0.13793 0.79854 0.0
Co56 Co 0.12153 0.38524 0.97253 0.0
O57 O 0.11693 0.41027 0.97086 0.0
O58 O 0.13257 0.39828 0.98777 0.0
C59 C 0.12942 0.38163 0.95023 0.0
O60 O 0.12886 0.35937 0.97709 0.0
Co61 Co 0.09822 0.35933 0.95487 0.0
O62 O 0.1147 0.3412 0.96209 0.0
C63 C 0.08334 0.37591 0.98002 0.0
C64 C 0.12598 0.41252 0.98205 0.0
C65 C 0.12557 0.34379 0.97197 0.0
O66 O 0.09859 0.38253 0.98322 0.0
O67 O 0.08035 0.36742 0.96881 0.0
O68 O 0.14105 0.38709 0.95918 0.0
O69 O 0.11344 0.3799 0.95481 0.0
Co70 Co 0.87111 0.87465 0.21652 0.0
O71 O 0.8458 0.87386 0.21408 0.0
O72 O 0.85903 0.88663 0.23182 0.0
C73 C 0.87644 0.88238 0.19437 0.0
O74 O 0.89753 0.87821 0.22171 0.0
Co75 Co 0.89388 0.84806 0.19919 0.0
O76 O 0.91411 0.86058 0.20785 0.0
C77 C 0.87116 0.83534 0.2218 0.0
C78 C 0.84425 0.88258 0.22549 0.0
C79 C 0.91267 0.8722 0.21736 0.0
O80 O 0.87011 0.85121 0.22667 0.0
O81 O 0.87818 0.83174 0.21011 0.0
O82 O 0.87247 0.89454 0.20339 0.0
O83 O 0.87592 0.86631 0.19888 0.0
Co84 Co 0.37581 0.62278 0.46801 0.0
O85 O 0.38162 0.59802 0.46663 0.0
O86 O 0.36738 0.60995 0.48427 0.0
C87 C 0.36534 0.62452 0.44628 0.0
O88 O 0.36731 0.6483 0.47241 0.0
Co89 Co 0.39468 0.64969 0.44846 0.0
O90 O 0.37511 0.6655 0.45433 0.0
C91 C 0.41424 0.63373 0.47192 0.0
C92 C 0.37391 0.59577 0.47841 0.0
C93 C 0.36663 0.66305 0.46554 0.0
O94 O 0.3997 0.62727 0.47684 0.0
O95 O 0.41507 0.64191 0.46035 0.0
O96 O 0.35506 0.61897 0.45613 0.0
O97 O 0.38158 0.62773 0.44971 0.0
Co98 Co 0.63396 0.12519 0.71767 0.0
O99 O 0.65867 0.13044 0.71476 0.0
O100 O 0.64813 0.11773 0.73358 0.0
C101 C 0.63024 0.11353 0.69643 0.0
O102 O 0.60876 0.1173 0.72367 0.0
Co103 Co 0.60535 0.14283 0.69883 0.0
O104 O 0.59047 0.12318 0.70584 0.0
C105 C 0.6218 0.16338 0.72162 0.0
C106 C 0.66188 0.12342 0.72667 0.0
C107 C 0.59361 0.11584 0.71742 0.0
O108 O 0.63025 0.14956 0.72593 0.0
O109 O 0.61215 0.16349 0.71074 0.0
O110 O 0.63656 0.10373 0.70631 0.0
O111 O 0.62744 0.12996 0.69949 0.0
Co112 Co 0.87843 0.38456 0.97132 0.0
O113 O 0.88368 0.40959 0.97127 0.0
O114 O 0.8661 0.39644 0.98648 0.0
C115 C 0.87307 0.38355 0.94841 0.0
O116 O 0.87 0.35863 0.97417 0.0
Co117 Co 0.90159 0.35859 0.95402 0.0
O118 O 0.88151 0.3421 0.95698 0.0
C119 C 0.91518 0.37303 0.98049 0.0
C120 C 0.87346 0.411 0.98194 0.0
C121 C 0.87105 0.34398 0.9672 0.0
O122 O 0.90009 0.38034 0.98313 0.0
O123 O 0.91856 0.36475 0.96924 0.0
O124 O 0.86053 0.38815 0.9569 0.0
O125 O 0.88837 0.38055 0.95394 0.0
Co126 Co 0.3736 0.12789 0.71946 0.0
O127 O 0.34856 0.13069 0.71626 0.0
O128 O 0.35995 0.11853 0.73501 0.0
C129 C 0.37922 0.11757 0.69808 0.0
O130 O 0.39929 0.12227 0.72563 0.0
Co131 Co 0.40021 0.14987 0.70154 0.0
O132 O 0.41761 0.13265 0.70902 0.0
C133 C 0.37768 0.16741 0.72245 0.0
C134 C 0.34584 0.12311 0.72804 0.0
C135 C 0.41478 0.12355 0.71988 0.0
O136 O 0.37434 0.15231 0.72815 0.0
O137 O 0.38624 0.16896 0.7111 0.0
O138 O 0.37356 0.10672 0.70755 0.0
O139 O 0.38008 0.13403 0.70162 0.0
Co140 Co 0.62804 0.61835 0.46972 0.0
O141 O 0.62547 0.59329 0.46644 0.0
O142 O 0.63706 0.60476 0.48539 0.0
C143 C 0.63895 0.62429 0.44858 0.0
O144 O 0.63334 0.644 0.47604 0.0
Co145 Co 0.60617 0.64474 0.45143 0.0
O146 O 0.62124 0.66287 0.46048 0.0
C147 C 0.58838 0.62241 0.47225 0.0
C148 C 0.63276 0.59063 0.47834 0.0
C149 C 0.63075 0.65977 0.47108 0.0
O150 O 0.60341 0.61906 0.47807 0.0
O151 O 0.58698 0.63068 0.46076 0.0
O152 O 0.64954 0.61849 0.45816 0.0
O153 O 0.62238 0.62492 0.45181 0.0
Co154 Co 0.13633 0.87458 0.21824 0.0
O155 O 0.16155 0.87431 0.21527 0.0
O156 O 0.14873 0.88644 0.23346 0.0
C157 C 0.12972 0.88245 0.19634 0.0
O158 O 0.11002 0.87756 0.22394 0.0
Co159 Co 0.11368 0.8475 0.20117 0.0
O160 O 0.09349 0.85989 0.21005 0.0
C161 C 0.13751 0.8352 0.22317 0.0
C162 C 0.16335 0.88265 0.22683 0.0
C163 C 0.0949 0.87143 0.21962 0.0
O164 O 0.13819 0.85102 0.22817 0.0
O165 O 0.13023 0.83153 0.21159 0.0
O166 O 0.13393 0.89464 0.20529 0.0
O167 O 0.13098 0.86637 0.20072 0.0
Co168 Co 0.88031 0.6226 0.02774 0.0
O169 O 0.88747 0.5981 0.02759 0.0
O170 O 0.86909 0.6099 0.01239 0.0
C171 C 0.87455 0.62272 0.05063 0.0
O172 O 0.86994 0.64794 0.02528 0.0
Co173 Co 0.90163 0.64948 0.04576 0.0
O174 O 0.88036 0.66436 0.04293 0.0
C175 C 0.91615 0.63737 0.01892 0.0
C176 C 0.87748 0.59587 0.01689 0.0
C177 C 0.87005 0.66234 0.03263 0.0
O178 O 0.90179 0.62874 0.01613 0.0
O179 O 0.91882 0.64556 0.03031 0.0
O180 O 0.86253 0.61731 0.04197 0.0
O181 O 0.88966 0.62689 0.04527 0.0
Co182 Co 0.13385 0.12806 0.77758 0.0
O183 O 0.15856 0.13375 0.77988 0.0
O184 O 0.14804 0.11749 0.76277 0.0
C185 C 0.13012 0.1207 0.79995 0.0
O186 O 0.10868 0.11908 0.77257 0.0
Co187 Co 0.10537 0.14944 0.79394 0.0
O188 O 0.09027 0.12882 0.7893 0.0
C189 C 0.12197 0.16511 0.76904 0.0
C190 C 0.16178 0.12442 0.76897 0.0
C191 C 0.09351 0.11905 0.77888 0.0
O192 O 0.13031 0.15052 0.7665 0.0
O193 O 0.11225 0.1675 0.77973 0.0
O194 O 0.13633 0.10909 0.79128 0.0
O195 O 0.12738 0.13638 0.79502 0.0
Co196 Co 0.62347 0.38123 0.53145 0.0
O197 O 0.62292 0.40641 0.53434 0.0
O198 O 0.63495 0.39371 0.51608 0.0
C199 C 0.63202 0.37517 0.55333 0.0
O200 O 0.62662 0.35491 0.52587 0.0
Co201 Co 0.59711 0.35865 0.54917 0.0
O202 O 0.60967 0.33854 0.54036 0.0
C203 C 0.58392 0.38175 0.52699 0.0
C204 C 0.63116 0.40831 0.52275 0.0
C205 C 0.6208 0.33981 0.53049 0.0
O206 O 0.59966 0.38271 0.52184 0.0
O207 O 0.58059 0.37459 0.53868 0.0
O208 O 0.64388 0.37923 0.54409 0.0
O209 O 0.61581 0.37611 0.54918 0.0
Co210 Co 0.37365 0.87548 0.27975 0.0
O211 O 0.34858 0.87224 0.28259 0.0
O212 O 0.36009 0.88553 0.26438 0.0
C213 C 0.37876 0.88477 0.30152 0.0
O214 O 0.39947 0.88155 0.27409 0.0
Co215 Co 0.39994 0.85268 0.29736 0.0
O216 O 0.4174 0.87037 0.29066 0.0
C217 C 0.37848 0.8362 0.27529 0.0
C218 C 0.34592 0.88038 0.27104 0.0
C219 C 0.41484 0.87998 0.28002 0.0
O220 O 0.37485 0.85161 0.27026 0.0
O221 O 0.38677 0.83397 0.2867 0.0
O222 O 0.3732 0.89601 0.2923 0.0
O223 O 0.3798 0.86849 0.29751 0.0
Co224 Co 0.62695 0.11777 0.52823 0.0
O225 O 0.62399 0.09241 0.52795 0.0
O226 O 0.63997 0.10752 0.51274 0.0
C227 C 0.63243 0.11877 0.5511 0.0
O228 O 0.63325 0.14439 0.52589 0.0
Co229 Co 0.60137 0.14092 0.54586 0.0
O230 O 0.62003 0.15908 0.54332 0.0
C231 C 0.58917 0.12617 0.51922 0.0
C232 C 0.63406 0.09225 0.51715 0.0
C233 C 0.63088 0.15857 0.53324 0.0
O234 O 0.60488 0.12033 0.51654 0.0
O235 O 0.58497 0.13388 0.53053 0.0
O236 O 0.64523 0.11536 0.54249 0.0
O237 O 0.61686 0.12047 0.5457 0.0
Co238 Co 0.13384 0.37078 0.78076 0.0
O239 O 0.15872 0.36532 0.78204 0.0
O240 O 0.14702 0.38211 0.76574 0.0
C241 C 0.13132 0.37728 0.80341 0.0
O242 O 0.10825 0.37955 0.77683 0.0
Co243 Co 0.10665 0.3484 0.79762 0.0
O244 O 0.09105 0.369 0.794 0.0
C245 C 0.12196 0.33391 0.7718 0.0
C246 C 0.1612 0.37506 0.77123 0.0
C247 C 0.09345 0.37912 0.78365 0.0
O248 O 0.12994 0.34872 0.76931 0.0
O249 O 0.11293 0.33098 0.78276 0.0
O250 O 0.13686 0.38929 0.79479 0.0
O251 O 0.12852 0.36174 0.79823 0.0
Co252 Co 0.87869 0.88273 0.02765 0.0
O253 O 0.88251 0.90773 0.03022 0.0
O254 O 0.86952 0.89625 0.01189 0.0
C255 C 0.86827 0.87854 0.04925 0.0
O256 O 0.8723 0.85689 0.02215 0.0
Co257 Co 0.89999 0.85659 0.04664 0.0
O258 O 0.88433 0.83864 0.03818 0.0
C259 C 0.91772 0.87398 0.02294 0.0
C260 C 0.87478 0.91041 0.01852 0.0
C261 C 0.87489 0.84127 0.02745 0.0
O262 O 0.9029 0.88058 0.01867 0.0
O263 O 0.91933 0.8653 0.03423 0.0
O264 O 0.85762 0.88403 0.03961 0.0
O265 O 0.88469 0.877 0.04573 0.0
Co266 Co 0.37159 0.62757 0.27984 0.0
O267 O 0.34637 0.62968 0.28236 0.0
O268 O 0.35893 0.61643 0.26451 0.0
C269 C 0.37651 0.61929 0.30191 0.0
O270 O 0.39762 0.62236 0.27447 0.0
Co271 Co 0.39664 0.65194 0.29711 0.0
O272 O 0.41563 0.63664 0.2895 0.0
C273 C 0.37416 0.66684 0.27503 0.0
C274 C 0.34441 0.62108 0.27092 0.0
C275 C 0.41314 0.62592 0.27952 0.0
O276 O 0.3718 0.65121 0.26994 0.0
O277 O 0.382 0.6696 0.28655 0.0
O278 O 0.37193 0.60748 0.29278 0.0
O279 O 0.37702 0.63543 0.29751 0.0
Co280 Co 0.61732 0.88113 0.47256 0.0
O281 O 0.61271 0.90608 0.47054 0.0
O282 O 0.63054 0.89478 0.48634 0.0
C283 C 0.62153 0.87706 0.4497 0.0
O284 O 0.62551 0.85563 0.47725 0.0
Co285 Co 0.5927 0.85374 0.45813 0.0
O286 O 0.61118 0.83637 0.46328 0.0
C287 C 0.58066 0.87203 0.48353 0.0
C288 C 0.62337 0.90884 0.48077 0.0
C289 C 0.6229 0.83983 0.47235 0.0
O290 O 0.59608 0.87915 0.48523 0.0
O291 O 0.57654 0.8625 0.47307 0.0
O292 O 0.63463 0.88219 0.45748 0.0
O293 O 0.60643 0.87521 0.45582 0.0
Co294 Co 0.3716 0.37974 0.71921 0.0
O295 O 0.34655 0.37683 0.71612 0.0
O296 O 0.35808 0.38871 0.73495 0.0
C297 C 0.3769 0.39045 0.69787 0.0
O298 O 0.39727 0.38552 0.72527 0.0
Co299 Co 0.39812 0.35814 0.70099 0.0
O300 O 0.4159 0.37443 0.70913 0.0
C301 C 0.37612 0.3402 0.72198 0.0
C302 C 0.34395 0.38415 0.72801 0.0
C303 C 0.4129 0.38374 0.71985 0.0
O304 O 0.37266 0.35524 0.72771 0.0
O305 O 0.38449 0.33879 0.71053 0.0
O306 O 0.37131 0.40108 0.70751 0.0
O307 O 0.37792 0.37393 0.70124 0.0
Co308 Co 0.87602 0.12131 0.96852 0.0
O309 O 0.87778 0.0961 0.96585 0.0
O310 O 0.86644 0.10858 0.98451 0.0
C311 C 0.86537 0.12639 0.94716 0.0
O312 O 0.8715 0.14753 0.97394 0.0
Co313 Co 0.899 0.14581 0.94963 0.0
O314 O 0.88228 0.16417 0.95644 0.0
C315 C 0.91581 0.12435 0.9714 0.0
C316 C 0.87031 0.09409 0.97774 0.0
C317 C 0.87319 0.16251 0.96746 0.0
O318 O 0.90057 0.12147 0.97699 0.0
O319 O 0.91785 0.13223 0.95982 0.0
O320 O 0.85459 0.12162 0.95696 0.0
O321 O 0.88198 0.12666 0.9504 0.0
Co322 Co 0.13564 0.62931 0.21675 0.0
O323 O 0.16081 0.63117 0.21399 0.0
O324 O 0.14847 0.61807 0.23199 0.0
C325 C 0.12998 0.62094 0.19484 0.0
O326 O 0.10957 0.6245 0.22225 0.0
Co327 Co 0.11093 0.65428 0.19961 0.0
O328 O 0.09252 0.63723 0.20581 0.0
C329 C 0.13337 0.66867 0.2219 0.0
C330 C 0.16293 0.62261 0.22543 0.0
C331 C 0.09442 0.62704 0.21622 0.0
O332 O 0.13584 0.65291 0.22669 0.0
O333 O 0.12535 0.67179 0.21051 0.0
O334 O 0.13485 0.60914 0.20388 0.0
O335 O 0.12997 0.63714 0.19912 0.0
Co336 Co 0.37808 0.88466 0.47052 0.0
O337 O 0.38321 0.9095 0.46825 0.0
O338 O 0.36621 0.8986 0.4848 0.0
C339 C 0.37225 0.8804 0.44792 0.0
O340 O 0.36938 0.8594 0.47543 0.0
Co341 Co 0.4012 0.8565 0.4554 0.0
O342 O 0.38105 0.84062 0.45972 0.0
C343 C 0.4149 0.87412 0.48057 0.0
C344 C 0.37318 0.91249 0.47883 0.0
C345 C 0.37035 0.84399 0.46954 0.0
O346 O 0.39987 0.88194 0.48249 0.0
O347 O 0.41826 0.86432 0.47008 0.0
O348 O 0.35994 0.88637 0.45611 0.0
O349 O 0.38769 0.87817 0.45345 0.0
Co350 Co 0.87287 0.62776 0.21828 0.0
O351 O 0.84765 0.6301 0.21606 0.0
O352 O 0.86042 0.61767 0.23417 0.0
C353 C 0.87741 0.6181 0.19655 0.0
O354 O 0.89906 0.6227 0.22328 0.0
Co355 Co 0.89725 0.65137 0.19973 0.0
O356 O 0.91568 0.63448 0.20616 0.0
C357 C 0.87658 0.66729 0.2224 0.0
C358 C 0.84582 0.62219 0.2278 0.0
C359 C 0.91404 0.62484 0.2169 0.0
O360 O 0.87372 0.65178 0.22753 0.0
O361 O 0.88407 0.66979 0.2107 0.0
O362 O 0.87261 0.60693 0.20607 0.0
O363 O 0.87796 0.63453 0.20027 0.0
Co364 Co 0.12996 0.1215 0.96907 0.0
O365 O 0.12891 0.09602 0.96817 0.0
O366 O 0.143 0.11097 0.98449 0.0
C367 C 0.13618 0.12469 0.94646 0.0
O368 O 0.1344 0.14838 0.97243 0.0
Co369 Co 0.10299 0.14362 0.95167 0.0
O370 O 0.12033 0.16275 0.95521 0.0
C371 C 0.09128 0.12659 0.97753 0.0
C372 C 0.13856 0.09566 0.97918 0.0
C373 C 0.13117 0.16263 0.96531 0.0
O374 O 0.1073 0.12174 0.98034 0.0
O375 O 0.08679 0.13452 0.96639 0.0
O376 O 0.14889 0.12134 0.95516 0.0
O377 O 0.12035 0.12476 0.95154 0.0
Co378 Co 0.63407 0.37782 0.72112 0.0
O379 O 0.65869 0.37187 0.71858 0.0
O380 O 0.64866 0.38869 0.73552 0.0
C381 C 0.63006 0.38459 0.69864 0.0
O382 O 0.60911 0.38702 0.72652 0.0
Co383 Co 0.60471 0.35687 0.70541 0.0
O384 O 0.58969 0.37732 0.7105 0.0
C385 C 0.62207 0.34114 0.73005 0.0
C386 C 0.66223 0.38139 0.72934 0.0
C387 C 0.59357 0.38704 0.72079 0.0
O388 O 0.63074 0.35557 0.73244 0.0
O389 O 0.61193 0.33889 0.71959 0.0
O390 O 0.63632 0.39644 0.7071 0.0
O391 O 0.62714 0.36912 0.70389 0.0
Co392 Co 0.38342 0.12197 0.53025 0.0
O393 O 0.38511 0.0967 0.53256 0.0
O394 O 0.37125 0.10969 0.51517 0.0
C395 C 0.37617 0.12689 0.55254 0.0
O396 O 0.37861 0.14824 0.52519 0.0
Co397 Co 0.40929 0.14601 0.54716 0.0
O398 O 0.39448 0.16543 0.53981 0.0
C399 C 0.42219 0.12753 0.5222 0.0
C400 C 0.37588 0.09502 0.52139 0.0
C401 C 0.3833 0.16359 0.53004 0.0
O402 O 0.40641 0.12194 0.51943 0.0
O403 O 0.42614 0.13629 0.5331 0.0
O404 O 0.36394 0.12257 0.54369 0.0
O405 O 0.39219 0.12696 0.54783 0.0
Co406 Co 0.63574 0.63237 0.28007 0.0
O407 O 0.66064 0.63696 0.28241 0.0
O408 O 0.64948 0.6207 0.26553 0.0
C409 C 0.63155 0.62594 0.30258 0.0
O410 O 0.61024 0.62445 0.27506 0.0
Co411 Co 0.60822 0.65563 0.29574 0.0
O412 O 0.59176 0.6361 0.29099 0.0
C413 C 0.62599 0.6697 0.27076 0.0
C414 C 0.66349 0.62726 0.27163 0.0
C415 C 0.59485 0.62566 0.28096 0.0
O416 O 0.63344 0.65457 0.26854 0.0
O417 O 0.61634 0.67298 0.28134 0.0
O418 O 0.6371 0.61374 0.29411 0.0
O419 O 0.6296 0.64158 0.29733 0.0
Co420 Co 0.12524 0.88457 0.02654 0.0
O421 O 0.11945 0.90934 0.02808 0.0
O422 O 0.13894 0.89873 0.01325 0.0
C423 C 0.12769 0.88148 0.04962 0.0
O424 O 0.13476 0.85919 0.02264 0.0
Co425 Co 0.10116 0.85631 0.0401 0.0
O426 O 0.12241 0.84111 0.03845 0.0
C427 C 0.09025 0.8732 0.01382 0.0
C428 C 0.13082 0.91255 0.01842 0.0
C429 C 0.13383 0.84411 0.02907 0.0
O430 O 0.10516 0.88151 0.01295 0.0
O431 O 0.08596 0.86329 0.02403 0.0
O432 O 0.14124 0.88669 0.04236 0.0
O433 O 0.11319 0.87871 0.04285 0.0
Co434 Co 0.87134 0.37622 0.77857 0.0
O435 O 0.84586 0.37489 0.77908 0.0
O436 O 0.86112 0.38873 0.76278 0.0
C437 C 0.87361 0.38295 0.80122 0.0
O438 O 0.89811 0.38081 0.77545 0.0
Co439 Co 0.89347 0.35032 0.79692 0.0
O440 O 0.91289 0.36731 0.79277 0.0
C441 C 0.87437 0.3372 0.7723 0.0
C442 C 0.84573 0.38427 0.76792 0.0
C443 C 0.91243 0.37788 0.7825 0.0
O444 O 0.87227 0.35319 0.76783 0.0
O445 O 0.88082 0.33353 0.78418 0.0
O446 O 0.87063 0.39551 0.79229 0.0
O447 O 0.87418 0.36711 0.79623 0.0
H448 H 0.1123 0.64098 0.17612 0.0
H449 H 0.11191 0.63718 0.15115 0.0
H450 H 0.14162 0.58836 0.15521 0.0
H451 H 0.14191 0.59205 0.18039 0.0
H452 H 0.15682 0.61327 0.13688 0.0
H453 H 0.10056 0.58545 0.14437 0.0
H454 H 0.0704 0.58258 0.15409 0.0
H455 H 0.05433 0.63032 0.13323 0.0
H456 H 0.08448 0.63364 0.12354 0.0
H457 H 0.15316 0.60365 0.06331 0.0
H458 H 0.15282 0.59914 0.0883 0.0
H459 H 0.11368 0.64085 0.09245 0.0
H460 H 0.11335 0.64469 0.06746 0.0
H461 H 0.10353 0.61429 0.10677 0.0
H462 H 0.15972 0.64491 0.1021 0.0
H463 H 0.19003 0.64972 0.09312 0.0
H464 H 0.20632 0.59905 0.10919 0.0
H465 H 0.17603 0.59385 0.11813 0.0
C466 C 0.11842 0.62923 0.17173 0.0
C467 C 0.12716 0.61682 0.18016 0.0
C468 C 0.11816 0.62706 0.15747 0.0
C469 C 0.12673 0.61249 0.15135 0.0
C470 C 0.13492 0.59968 0.15976 0.0
C471 C 0.13497 0.60174 0.17411 0.0
C472 C 0.12825 0.61164 0.13615 0.0
C473 C 0.14521 0.61309 0.13024 0.0
C474 C 0.11306 0.61188 0.12759 0.0
C475 C 0.09483 0.60984 0.13329 0.0
C476 C 0.09064 0.59541 0.14192 0.0
C477 C 0.07353 0.59369 0.14742 0.0
C478 C 0.06046 0.60628 0.14429 0.0
C479 C 0.06446 0.62058 0.13564 0.0
C480 C 0.08155 0.62237 0.13012 0.0
C481 C 0.14473 0.61204 0.06961 0.0
C482 C 0.1333 0.62453 0.0635 0.0
C483 C 0.14454 0.60946 0.0839 0.0
C484 C 0.13327 0.6197 0.09232 0.0
C485 C 0.12238 0.63267 0.0862 0.0
C486 C 0.12229 0.63496 0.07193 0.0
C487 C 0.13213 0.61652 0.10743 0.0
C488 C 0.1152 0.61424 0.11334 0.0
C489 C 0.14736 0.61578 0.11601 0.0
C490 C 0.16556 0.61891 0.11064 0.0
C491 C 0.16973 0.63474 0.10363 0.0
C492 C 0.18691 0.63754 0.09856 0.0
C493 C 0.20008 0.62467 0.10054 0.0
C494 C 0.1961 0.60899 0.10764 0.0
C495 C 0.17893 0.60611 0.11271 0.0
H496 H 0.21337 0.62687 0.09662 0.0
H497 H 0.04723 0.60493 0.14856 0.0
H498 H 0.65102 0.87219 0.43348 0.0
H499 H 0.65242 0.87365 0.40822 0.0
H500 H 0.59611 0.88502 0.40686 0.0
H501 H 0.59452 0.88229 0.43178 0.0
H502 H 0.60188 0.8646 0.38782 0.0
H503 H 0.63115 0.91778 0.40218 0.0
H504 H 0.65308 0.93613 0.41465 0.0
H505 H 0.6957 0.90973 0.39344 0.0
H506 H 0.67403 0.89106 0.38097 0.0
H507 H 0.63112 0.90786 0.31747 0.0
H508 H 0.62827 0.90998 0.34268 0.0
H509 H 0.62702 0.85269 0.3454 0.0
H510 H 0.62916 0.85054 0.32049 0.0
H511 H 0.6483 0.89934 0.36341 0.0
H512 H 0.60071 0.83855 0.37021 0.0
H513 H 0.57614 0.82416 0.35757 0.0
H514 H 0.56494 0.87322 0.33662 0.0
H515 H 0.58924 0.88797 0.34929 0.0
C516 C 0.63897 0.8748 0.42771 0.0
C517 C 0.62267 0.87701 0.43454 0.0
C518 C 0.63978 0.87585 0.4133 0.0
C519 C 0.62442 0.87978 0.40557 0.0
C520 C 0.60816 0.8819 0.41249 0.0
C521 C 0.60726 0.88033 0.42678 0.0
C522 C 0.62499 0.88133 0.39027 0.0
C523 C 0.61202 0.87227 0.38254 0.0
C524 C 0.6379 0.8917 0.38327 0.0
C525 C 0.65097 0.90292 0.39073 0.0
C526 C 0.64521 0.91581 0.40024 0.0
C527 C 0.65759 0.92628 0.4073 0.0
C528 C 0.67577 0.92407 0.40486 0.0
C529 C 0.68161 0.91141 0.39533 0.0
C530 C 0.66929 0.9009 0.38826 0.0
C531 C 0.63004 0.89577 0.32349 0.0
C532 C 0.63016 0.87906 0.31702 0.0
C533 C 0.62853 0.89699 0.33786 0.0
C534 C 0.62718 0.88149 0.34591 0.0
C535 C 0.62761 0.86484 0.33941 0.0
C536 C 0.62888 0.86363 0.32514 0.0
C537 C 0.62535 0.88245 0.36113 0.0
C538 C 0.63809 0.89186 0.36878 0.0
C539 C 0.61177 0.87305 0.36812 0.0
C540 C 0.59691 0.86432 0.36063 0.0
C541 C 0.59294 0.84629 0.36297 0.0
C542 C 0.57907 0.83807 0.35578 0.0
C543 C 0.56902 0.84776 0.34627 0.0
C544 C 0.57277 0.86571 0.34396 0.0
C545 C 0.5866 0.87401 0.35113 0.0
H546 H 0.5583 0.84136 0.34071 0.0
H547 H 0.68534 0.93218 0.41034 0.0
H548 H 0.35899 0.41703 0.68457 0.0
H549 H 0.35598 0.42035 0.65947 0.0
H550 H 0.39447 0.37852 0.6534 0.0
H551 H 0.39736 0.37505 0.67832 0.0
H552 H 0.39765 0.40612 0.63423 0.0
H553 H 0.35208 0.36813 0.6546 0.0
H554 H 0.32709 0.36227 0.67044 0.0
H555 H 0.29689 0.40412 0.65147 0.0
H556 H 0.32184 0.4104 0.63565 0.0
H557 H 0.38501 0.36293 0.57277 0.0
H558 H 0.38431 0.36811 0.59759 0.0
H559 H 0.3419 0.40615 0.59224 0.0
H560 H 0.34231 0.40069 0.56726 0.0
H561 H 0.33872 0.38669 0.61665 0.0
H562 H 0.38277 0.42147 0.59374 0.0
H563 H 0.4077 0.42673 0.57774 0.0
H564 H 0.44077 0.39153 0.60135 0.0
H565 H 0.41594 0.38581 0.61738 0.0
C566 C 0.36721 0.40898 0.67785 0.0
C567 C 0.37834 0.39572 0.68331 0.0
C568 C 0.36538 0.41079 0.66355 0.0
C569 C 0.37483 0.3995 0.65463 0.0
C570 C 0.38704 0.38732 0.66012 0.0
C571 C 0.38868 0.38535 0.67434 0.0
C572 C 0.37088 0.39888 0.63969 0.0
C573 C 0.38477 0.40193 0.63037 0.0
C574 C 0.35393 0.39379 0.63467 0.0
C575 C 0.33889 0.38989 0.64407 0.0
C576 C 0.34016 0.37618 0.65389 0.0
C577 C 0.326 0.37276 0.66285 0.0
C578 C 0.31043 0.38286 0.662 0.0
C579 C 0.30897 0.39634 0.65214 0.0
C580 C 0.32311 0.39984 0.64318 0.0
C581 C 0.37521 0.37204 0.57691 0.0
C582 C 0.36385 0.38157 0.56812 0.0
C583 C 0.37489 0.37507 0.59107 0.0
C584 C 0.36341 0.3879 0.59667 0.0
C585 C 0.35097 0.39632 0.58808 0.0
C586 C 0.35116 0.39314 0.57384 0.0
C587 C 0.36566 0.39343 0.61122 0.0
C588 C 0.35148 0.39131 0.62045 0.0
C589 C 0.38234 0.39946 0.61617 0.0
C590 C 0.39745 0.40314 0.60672 0.0
C591 C 0.39533 0.41478 0.59549 0.0
C592 C 0.40944 0.41784 0.58641 0.0
C593 C 0.4258 0.40945 0.58852 0.0
C594 C 0.42809 0.39802 0.59973 0.0
C595 C 0.41401 0.39487 0.60883 0.0
H596 H 0.43671 0.41183 0.58147 0.0
H597 H 0.29948 0.38019 0.66894 0.0
H598 H 0.83861 0.10855 0.93415 0.0
H599 H 0.83451 0.10594 0.90909 0.0
H600 H 0.87603 0.14466 0.90263 0.0
H601 H 0.88043 0.14698 0.92753 0.0
H602 H 0.84576 0.14769 0.88426 0.0
H603 H 0.88776 0.10395 0.90293 0.0
H604 H 0.89543 0.07902 0.91835 0.0
H605 H 0.85419 0.04723 0.90015 0.0
H606 H 0.84609 0.07211 0.88476 0.0
H607 H 0.89056 0.14009 0.82325 0.0
H608 H 0.88433 0.13817 0.84785 0.0
H609 H 0.84917 0.0938 0.84062 0.0
H610 H 0.85558 0.09551 0.8158 0.0
H611 H 0.86884 0.09078 0.86535 0.0
H612 H 0.83058 0.13233 0.84358 0.0
H613 H 0.82265 0.1571 0.82811 0.0
H614 H 0.85502 0.19268 0.85198 0.0
H615 H 0.86339 0.16805 0.86747 0.0
C616 C 0.84645 0.11688 0.92736 0.0
C617 C 0.85987 0.12793 0.93268 0.0
C618 C 0.84417 0.1153 0.91309 0.0
C619 C 0.85509 0.125 0.90408 0.0
C620 C 0.86749 0.13708 0.90945 0.0
C621 C 0.87 0.13839 0.92364 0.0
C622 C 0.85515 0.1214 0.88911 0.0
C623 C 0.85072 0.13525 0.88009 0.0
C624 C 0.86114 0.10495 0.88373 0.0
C625 C 0.86618 0.08995 0.89283 0.0
C626 C 0.88023 0.09169 0.9023 0.0
C627 C 0.88467 0.07757 0.91102 0.0
C628 C 0.87526 0.06157 0.91027 0.0
C629 C 0.86144 0.05964 0.90075 0.0
C630 C 0.85692 0.07375 0.89203 0.0
C631 C 0.8818 0.12967 0.82691 0.0
C632 C 0.87338 0.11809 0.81762 0.0
C633 C 0.87819 0.12863 0.84096 0.0
C634 C 0.86593 0.11616 0.84598 0.0
C635 C 0.85855 0.10362 0.8369 0.0
C636 C 0.86227 0.10458 0.82276 0.0
C637 C 0.86004 0.11732 0.86051 0.0
C638 C 0.86339 0.10305 0.86944 0.0
C639 C 0.85286 0.13334 0.86582 0.0
C640 C 0.84769 0.1483 0.85665 0.0
C641 C 0.8361 0.14541 0.84549 0.0
C642 C 0.83152 0.15943 0.83671 0.0
C643 C 0.83835 0.17645 0.83905 0.0
C644 C 0.84974 0.17949 0.85018 0.0
C645 C 0.85439 0.16551 0.85898 0.0
H646 H 0.83479 0.18729 0.83224 0.0
H647 H 0.87872 0.05065 0.91703 0.0
H648 H 0.11078 0.36255 0.9314 0.0
H649 H 0.11492 0.36221 0.90642 0.0
H650 H 0.16067 0.3964 0.91056 0.0
H651 H 0.15678 0.39654 0.93572 0.0
H652 H 0.13366 0.40833 0.89132 0.0
H653 H 0.16904 0.35715 0.90105 0.0
H654 H 0.1759 0.32826 0.91179 0.0
H655 H 0.13176 0.30435 0.89068 0.0
H656 H 0.12446 0.33319 0.87995 0.0
H657 H 0.14904 0.40244 0.81836 0.0
H658 H 0.15165 0.40395 0.8435 0.0
H659 H 0.1148 0.36018 0.84735 0.0
H660 H 0.11281 0.35816 0.82229 0.0
H661 H 0.14186 0.35412 0.86287 0.0
H662 H 0.10417 0.4052 0.85531 0.0
H663 H 0.09583 0.43411 0.84517 0.0
H664 H 0.14255 0.45809 0.86259 0.0
H665 H 0.15128 0.42925 0.87269 0.0
C666 C 0.1219 0.36975 0.92702 0.0
C667 C 0.13346 0.37957 0.93546 0.0
C668 C 0.12425 0.36953 0.91276 0.0
C669 C 0.13808 0.37929 0.90669 0.0
C670 C 0.14993 0.38879 0.9151 0.0
C671 C 0.14776 0.38876 0.92943 0.0
C672 C 0.13932 0.38026 0.8915 0.0
C673 C 0.13582 0.39658 0.88504 0.0
C674 C 0.14172 0.36482 0.88343 0.0
C675 C 0.14613 0.34739 0.88977 0.0
C676 C 0.1607 0.34577 0.89878 0.0
C677 C 0.16469 0.32939 0.90485 0.0
C678 C 0.15425 0.31447 0.90194 0.0
C679 C 0.13983 0.31591 0.89292 0.0
C680 C 0.13578 0.33228 0.88683 0.0
C681 C 0.14128 0.39337 0.82461 0.0
C682 C 0.13073 0.38017 0.81842 0.0
C683 C 0.14277 0.39423 0.83897 0.0
C684 C 0.13339 0.3822 0.84736 0.0
C685 C 0.12229 0.36951 0.84112 0.0
C686 C 0.12106 0.36843 0.8268 0.0
C687 C 0.13566 0.38214 0.86258 0.0
C688 C 0.13988 0.36597 0.86907 0.0
C689 C 0.13372 0.3977 0.87068 0.0
C690 C 0.12848 0.41503 0.86462 0.0
C691 C 0.11273 0.41661 0.85689 0.0
C692 C 0.10793 0.43299 0.85117 0.0
C693 C 0.11869 0.44791 0.8532 0.0
C694 C 0.13425 0.44651 0.861 0.0
C695 C 0.13913 0.43016 0.86673 0.0
H696 H 0.11494 0.46058 0.84876 0.0
H697 H 0.15737 0.3018 0.90665 0.0
H698 H 0.88259 0.8569 0.06851 0.0
H699 H 0.8789 0.85901 0.09346 0.0
H700 H 0.8396 0.90022 0.088 0.0
H701 H 0.84304 0.8979 0.06284 0.0
H702 H 0.869 0.90937 0.10557 0.0
H703 H 0.82538 0.86396 0.10104 0.0
H704 H 0.81295 0.83566 0.09255 0.0
H705 H 0.85435 0.80678 0.11324 0.0
H706 H 0.86722 0.83492 0.12168 0.0
H707 H 0.86172 0.91014 0.18013 0.0
H708 H 0.8567 0.91139 0.15516 0.0
H709 H 0.8872 0.86318 0.15008 0.0
H710 H 0.89179 0.86166 0.17494 0.0
H711 H 0.8561 0.85996 0.13793 0.0
H712 H 0.90227 0.90467 0.13921 0.0
H713 H 0.91639 0.93263 0.14677 0.0
H714 H 0.87167 0.96235 0.13168 0.0
H715 H 0.85718 0.93452 0.12418 0.0
C716 C 0.87281 0.86605 0.07261 0.0
C717 C 0.86308 0.87721 0.06382 0.0
C718 C 0.87071 0.86726 0.08685 0.0
C719 C 0.85901 0.8798 0.09253 0.0
C720 C 0.84867 0.89045 0.08376 0.0
C721 C 0.85053 0.889 0.06944 0.0
C722 C 0.85902 0.88264 0.10761 0.0
C723 C 0.86576 0.89875 0.11273 0.0
C724 C 0.85516 0.86862 0.11682 0.0
C725 C 0.84732 0.8516 0.11194 0.0
C726 C 0.83191 0.85159 0.10372 0.0
C727 C 0.82477 0.83557 0.09892 0.0
C728 C 0.83287 0.81944 0.10234 0.0
C729 C 0.84809 0.81929 0.1106 0.0
C730 C 0.8553 0.83528 0.11541 0.0
C731 C 0.86776 0.90012 0.17361 0.0
C732 C 0.87708 0.88577 0.17942 0.0
C733 C 0.86482 0.9008 0.15936 0.0
C734 C 0.87144 0.88728 0.15076 0.0
C735 C 0.88177 0.87363 0.15652 0.0
C736 C 0.88451 0.87285 0.17072 0.0
C737 C 0.86673 0.88648 0.13591 0.0
C738 C 0.85904 0.87074 0.13085 0.0
C739 C 0.86988 0.90079 0.12676 0.0
C740 C 0.87855 0.91751 0.1313 0.0
C741 C 0.89538 0.91716 0.13762 0.0
C742 C 0.90346 0.93298 0.14187 0.0
C743 C 0.89491 0.94925 0.13975 0.0
C744 C 0.87826 0.94974 0.13334 0.0
C745 C 0.87011 0.93394 0.12909 0.0
H746 H 0.90119 0.96149 0.14304 0.0
H747 H 0.82734 0.80705 0.0986 0.0
H748 H 0.37615 0.64685 0.42611 0.0
H749 H 0.37264 0.64261 0.40125 0.0
H750 H 0.34089 0.59579 0.4086 0.0
H751 H 0.34385 0.60036 0.43361 0.0
H752 H 0.37375 0.5922 0.39086 0.0
H753 H 0.31943 0.62395 0.39448 0.0
H754 H 0.29928 0.64791 0.40203 0.0
H755 H 0.33102 0.68635 0.38043 0.0
H756 H 0.35154 0.66266 0.37292 0.0
H757 H 0.36551 0.58918 0.31552 0.0
H758 H 0.36016 0.58645 0.34043 0.0
H759 H 0.38225 0.63878 0.3467 0.0
H760 H 0.38769 0.64155 0.32204 0.0
H761 H 0.34804 0.6349 0.35737 0.0
H762 H 0.40461 0.60416 0.35719 0.0
H763 H 0.42563 0.58071 0.35011 0.0
H764 H 0.39006 0.54067 0.3655 0.0
H765 H 0.36869 0.56391 0.3725 0.0
C766 C 0.36799 0.63597 0.42241 0.0
C767 C 0.36019 0.62398 0.43169 0.0
C768 C 0.36603 0.63353 0.40825 0.0
C769 C 0.35657 0.61886 0.40316 0.0
C770 C 0.3482 0.6072 0.41239 0.0
C771 C 0.34977 0.60991 0.42662 0.0
C772 C 0.35696 0.61517 0.38822 0.0
C773 C 0.36773 0.6012 0.38347 0.0
C774 C 0.34936 0.62715 0.37871 0.0
C775 C 0.33711 0.64152 0.38322 0.0
C776 C 0.32222 0.63754 0.39144 0.0
C777 C 0.31071 0.65107 0.39569 0.0
C778 C 0.31389 0.66865 0.39173 0.0
C779 C 0.32858 0.67273 0.38349 0.0
C780 C 0.34014 0.65924 0.37922 0.0
C781 C 0.36964 0.59987 0.32228 0.0
C782 C 0.37685 0.61564 0.31685 0.0
C783 C 0.3665 0.59834 0.33647 0.0
C784 C 0.37057 0.61254 0.34533 0.0
C785 C 0.3788 0.62778 0.33999 0.0
C786 C 0.38199 0.62929 0.32591 0.0
C787 C 0.36533 0.61229 0.36002 0.0
C788 C 0.35366 0.62557 0.36471 0.0
C789 C 0.37217 0.59971 0.36946 0.0
C790 C 0.38494 0.58575 0.36518 0.0
C791 C 0.40118 0.59034 0.35892 0.0
C792 C 0.41318 0.57709 0.35496 0.0
C793 C 0.40915 0.5592 0.3573 0.0
C794 C 0.39313 0.55453 0.36365 0.0
C795 C 0.38107 0.56773 0.36762 0.0
H796 H 0.41847 0.54896 0.35424 0.0
H797 H 0.30495 0.6791 0.39503 0.0
H798 H 0.60717 0.12534 0.67712 0.0
H799 H 0.60871 0.12027 0.65229 0.0
H800 H 0.65257 0.08408 0.65824 0.0
H801 H 0.65082 0.08887 0.68329 0.0
H802 H 0.65919 0.11329 0.63972 0.0
H803 H 0.61713 0.06673 0.64614 0.0
H804 H 0.58993 0.0526 0.65517 0.0
H805 H 0.55781 0.09081 0.63366 0.0
H806 H 0.58483 0.10536 0.62467 0.0
H807 H 0.66019 0.10449 0.56562 0.0
H808 H 0.66133 0.09906 0.59053 0.0
H809 H 0.61082 0.12565 0.59537 0.0
H810 H 0.60941 0.13062 0.57055 0.0
H811 H 0.61025 0.09517 0.60844 0.0
H812 H 0.65116 0.14457 0.60543 0.0
H813 H 0.67772 0.16054 0.59711 0.0
H814 H 0.71125 0.11892 0.61272 0.0
H815 H 0.68484 0.10258 0.62098 0.0
C816 C 0.61681 0.11592 0.67317 0.0
C817 C 0.62887 0.10748 0.68206 0.0
C818 C 0.61767 0.11302 0.659 0.0
C819 C 0.63077 0.10182 0.65346 0.0
C820 C 0.64235 0.09273 0.66236 0.0
C821 C 0.64126 0.09537 0.67663 0.0
C822 C 0.63326 0.10126 0.63835 0.0
C823 C 0.64871 0.10891 0.63281 0.0
C824 C 0.61936 0.09595 0.62946 0.0
C825 C 0.60304 0.0872 0.63479 0.0
C826 C 0.60427 0.07221 0.64342 0.0
C827 C 0.58888 0.06411 0.64851 0.0
C828 C 0.57215 0.07081 0.645 0.0
C829 C 0.57078 0.08563 0.63637 0.0
C830 C 0.58613 0.09379 0.63125 0.0
C831 C 0.6495 0.10943 0.57206 0.0
C832 C 0.63469 0.11794 0.56618 0.0
C833 C 0.65015 0.1063 0.58628 0.0
C834 C 0.63612 0.11189 0.59482 0.0
C835 C 0.6217 0.12104 0.58897 0.0
C836 C 0.62096 0.12398 0.5748 0.0
C837 C 0.63596 0.10777 0.60978 0.0
C838 C 0.62092 0.09923 0.61528 0.0
C839 C 0.65015 0.11247 0.61865 0.0
C840 C 0.66602 0.12225 0.61366 0.0
C841 C 0.66418 0.13875 0.60697 0.0
C842 C 0.67921 0.14788 0.60229 0.0
C843 C 0.69616 0.14072 0.60434 0.0
C844 C 0.69811 0.12443 0.61111 0.0
C845 C 0.68312 0.11523 0.6158 0.0
H846 H 0.70778 0.14781 0.60071 0.0
H847 H 0.56026 0.06452 0.64896 0.0
H848 H 0.87013 0.41438 0.81558 0.0
H849 H 0.86804 0.41781 0.84078 0.0
H850 H 0.87547 0.36129 0.84574 0.0
H851 H 0.87774 0.35779 0.8209 0.0
H852 H 0.84647 0.37445 0.86057 0.0
H853 H 0.90886 0.38762 0.85191 0.0
H854 H 0.93335 0.40456 0.84124 0.0
H855 H 0.91413 0.45258 0.86003 0.0
H856 H 0.88936 0.43593 0.87066 0.0
H857 H 0.89747 0.37387 0.92921 0.0
H858 H 0.89541 0.37698 0.90426 0.0
H859 H 0.84213 0.39767 0.90831 0.0
H860 H 0.84406 0.39444 0.93345 0.0
H861 H 0.89097 0.4067 0.88886 0.0
H862 H 0.81926 0.38452 0.87869 0.0
H863 H 0.79587 0.36583 0.88915 0.0
H864 H 0.83577 0.33292 0.90794 0.0
H865 H 0.85937 0.35128 0.89745 0.0
C866 C 0.87151 0.40277 0.82209 0.0
C867 C 0.87407 0.38583 0.81627 0.0
C868 C 0.87024 0.40472 0.83644 0.0
C869 C 0.87141 0.38975 0.84506 0.0
C870 C 0.87432 0.37296 0.83925 0.0
C871 C 0.87574 0.37103 0.82503 0.0
C872 C 0.86972 0.39121 0.86022 0.0
C873 C 0.85605 0.3817 0.86677 0.0
C874 C 0.88224 0.40061 0.86826 0.0
C875 C 0.89715 0.41058 0.86192 0.0
C876 C 0.90977 0.40182 0.85366 0.0
C877 C 0.92372 0.41136 0.84764 0.0
C878 C 0.92526 0.42965 0.84992 0.0
C879 C 0.91289 0.43842 0.85825 0.0
C880 C 0.8989 0.42894 0.86427 0.0
C881 C 0.88524 0.37895 0.92482 0.0
C882 C 0.87091 0.38389 0.93329 0.0
C883 C 0.88414 0.38084 0.91055 0.0
C884 C 0.86868 0.38766 0.90444 0.0
C885 C 0.85418 0.39233 0.91283 0.0
C886 C 0.85527 0.39042 0.92717 0.0
C887 C 0.86794 0.3896 0.88924 0.0
C888 C 0.88111 0.39981 0.88268 0.0
C889 C 0.85507 0.38067 0.88118 0.0
C890 C 0.84104 0.36941 0.88744 0.0
C891 C 0.82302 0.37327 0.88504 0.0
C892 C 0.80973 0.36274 0.89097 0.0
C893 C 0.81433 0.34824 0.89925 0.0
C894 C 0.83223 0.3442 0.90158 0.0
C895 C 0.84556 0.35468 0.89566 0.0
H896 H 0.80403 0.34012 0.90384 0.0
H897 H 0.93607 0.43701 0.84526 0.0
H898 H 0.40338 0.13016 0.67997 0.0
H899 H 0.40108 0.12922 0.65488 0.0
H900 H 0.3555 0.09457 0.65809 0.0
H901 H 0.35829 0.09489 0.68332 0.0
H902 H 0.37436 0.08755 0.63485 0.0
H903 H 0.34936 0.13878 0.65628 0.0
H904 H 0.34894 0.16464 0.67192 0.0
H905 H 0.39174 0.18856 0.64922 0.0
H906 H 0.39263 0.16269 0.63358 0.0
H907 H 0.3477 0.11396 0.56696 0.0
H908 H 0.34537 0.11106 0.59211 0.0
H909 H 0.395 0.1392 0.59681 0.0
H910 H 0.39746 0.14201 0.57181 0.0
H911 H 0.36921 0.14891 0.61629 0.0
H912 H 0.39528 0.09536 0.59632 0.0
H913 H 0.39486 0.06929 0.58089 0.0
H914 H 0.34775 0.04994 0.60095 0.0
H915 H 0.34776 0.07606 0.61637 0.0
C916 C 0.39329 0.12182 0.67529 0.0
C917 C 0.38095 0.11268 0.68349 0.0
C918 C 0.39188 0.12141 0.66098 0.0
C919 C 0.37774 0.11233 0.65466 0.0
C920 C 0.3664 0.10181 0.66278 0.0
C921 C 0.36805 0.10192 0.67716 0.0
C922 C 0.37386 0.11545 0.63987 0.0
C923 C 0.37295 0.10094 0.63082 0.0
C924 C 0.37188 0.13294 0.63462 0.0
C925 C 0.37113 0.14873 0.64381 0.0
C926 C 0.35874 0.14952 0.65466 0.0
C927 C 0.35842 0.16417 0.66353 0.0
C928 C 0.37032 0.17822 0.66157 0.0
C929 C 0.38253 0.17767 0.65072 0.0
C930 C 0.38294 0.16301 0.64184 0.0
C931 C 0.35787 0.11988 0.57339 0.0
C932 C 0.37281 0.12812 0.56747 0.0
C933 C 0.35659 0.11811 0.58772 0.0
C934 C 0.37014 0.12471 0.59627 0.0
C935 C 0.38444 0.13397 0.59038 0.0
C936 C 0.38583 0.13555 0.5761 0.0
C937 C 0.37027 0.12106 0.61125 0.0
C938 C 0.37039 0.13552 0.62036 0.0
C939 C 0.37127 0.10353 0.61654 0.0
C940 C 0.3714 0.08775 0.60738 0.0
C941 C 0.38476 0.08561 0.59737 0.0
C942 C 0.38461 0.07082 0.58864 0.0
C943 C 0.37125 0.05799 0.58991 0.0
C944 C 0.35806 0.05991 0.59995 0.0
C945 C 0.35814 0.0747 0.60869 0.0
H946 H 0.37115 0.04655 0.58314 0.0
H947 H 0.37007 0.18955 0.66846 0.0
H948 H 0.65973 0.60231 0.43326 0.0
H949 H 0.6606 0.60128 0.40803 0.0
H950 H 0.63065 0.65026 0.40628 0.0
H951 H 0.62896 0.65068 0.43142 0.0
H952 H 0.61466 0.62652 0.39199 0.0
H953 H 0.67605 0.64535 0.39516 0.0
H954 H 0.70715 0.64342 0.40313 0.0
H955 H 0.71199 0.59155 0.38498 0.0
H956 H 0.68085 0.59308 0.37704 0.0
H957 H 0.61908 0.64903 0.3218 0.0
H958 H 0.6218 0.64671 0.34676 0.0
H959 H 0.64532 0.59465 0.34249 0.0
H960 H 0.64281 0.59698 0.31733 0.0
H961 H 0.66467 0.61621 0.35965 0.0
H962 H 0.60398 0.59843 0.3552 0.0
H963 H 0.57298 0.60048 0.34706 0.0
H964 H 0.56692 0.65062 0.36772 0.0
H965 H 0.59797 0.64901 0.37583 0.0
C966 C 0.65393 0.61317 0.42744 0.0
C967 C 0.64432 0.6266 0.43417 0.0
C968 C 0.65438 0.61256 0.41302 0.0
C969 C 0.64561 0.62566 0.40521 0.0
C970 C 0.63736 0.63991 0.41206 0.0
C971 C 0.63653 0.64025 0.42641 0.0
C972 C 0.6431 0.62358 0.39011 0.0
C973 C 0.62567 0.62455 0.38492 0.0
C974 C 0.65732 0.62013 0.38092 0.0
C975 C 0.67607 0.61926 0.38562 0.0
C976 C 0.68371 0.63348 0.39295 0.0
C977 C 0.70135 0.63247 0.39745 0.0
C978 C 0.71152 0.61735 0.39459 0.0
C979 C 0.70409 0.60324 0.3872 0.0
C980 C 0.68646 0.60418 0.38269 0.0
C981 C 0.62458 0.63695 0.32616 0.0
C982 C 0.63074 0.62318 0.31762 0.0
C983 C 0.6261 0.63564 0.34044 0.0
C984 C 0.63371 0.62048 0.34648 0.0
C985 C 0.63943 0.60646 0.33801 0.0
C986 C 0.63786 0.60775 0.32367 0.0
C987 C 0.63636 0.61984 0.3616 0.0
C988 C 0.65372 0.61817 0.36678 0.0
C989 C 0.6221 0.6227 0.37083 0.0
C990 C 0.60336 0.62365 0.36605 0.0
C991 C 0.59608 0.60996 0.35793 0.0
C992 C 0.57849 0.61103 0.35333 0.0
C993 C 0.56799 0.62568 0.35685 0.0
C994 C 0.57506 0.63928 0.365 0.0
C995 C 0.59265 0.63828 0.36962 0.0
H996 H 0.55438 0.62649 0.35328 0.0
H997 H 0.72518 0.61659 0.39808 0.0
H998 H 0.1327 0.91416 0.18236 0.0
H999 H 0.13005 0.91859 0.15731 0.0
H1000 H 0.11694 0.86306 0.15236 0.0
H1001 H 0.11909 0.85873 0.17708 0.0
H1002 H 0.14896 0.90463 0.13694 0.0
H1003 H 0.08968 0.85578 0.12705 0.0
H1004 H 0.06125 0.84772 0.13812 0.0
H1005 H 0.05972 0.89841 0.15845 0.0
H1006 H 0.08803 0.90683 0.14747 0.0
H1007 H 0.15401 0.87357 0.06817 0.0
H1008 H 0.15278 0.87727 0.09329 0.0
H1009 H 0.09979 0.89907 0.08967 0.0
H1010 H 0.1005 0.89391 0.06493 0.0
H1011 H 0.09881 0.88014 0.10969 0.0
H1012 H 0.14031 0.92484 0.0967 0.0
H1013 H 0.16692 0.93763 0.08562 0.0
H1014 H 0.2005 0.90429 0.11041 0.0
H1015 H 0.17408 0.89112 0.12151 0.0
C1016 C 0.12888 0.90304 0.17591 0.0
C1017 C 0.12606 0.88612 0.18167 0.0
C1018 C 0.12751 0.90554 0.16162 0.0
C1019 C 0.12317 0.89118 0.15297 0.0
C1020 C 0.11998 0.87442 0.15882 0.0
C1021 C 0.12128 0.87195 0.17299 0.0
C1022 C 0.12276 0.89313 0.13775 0.0
C1023 C 0.13794 0.89949 0.13093 0.0
C1024 C 0.10819 0.88687 0.12992 0.0
C1025 C 0.09106 0.88188 0.13649 0.0
C1026 C 0.08324 0.86523 0.13384 0.0
C1027 C 0.06716 0.86059 0.14013 0.0
C1028 C 0.05872 0.87251 0.14904 0.0
C1029 C 0.06632 0.88914 0.15164 0.0
C1030 C 0.0824 0.89384 0.1454 0.0
C1031 C 0.14211 0.879 0.07285 0.0
C1032 C 0.1273 0.88328 0.06472 0.0
C1033 C 0.14146 0.88135 0.08717 0.0
C1034 C 0.12628 0.88878 0.09347 0.0
C1035 C 0.11161 0.89321 0.08519 0.0
C1036 C 0.11202 0.89026 0.07102 0.0
C1037 C 0.12525 0.8913 0.10869 0.0
C1038 C 0.10978 0.88565 0.11556 0.0
C1039 C 0.13925 0.89898 0.11648 0.0
C1040 C 0.1552 0.9069 0.10987 0.0
C1041 C 0.15337 0.92016 0.09973 0.0
C1042 C 0.16842 0.92748 0.09346 0.0
C1043 C 0.18539 0.92175 0.09729 0.0
C1044 C 0.18735 0.90871 0.10744 0.0
C1045 C 0.17234 0.90132 0.11374 0.0
H1046 H 0.19703 0.92743 0.09242 0.0
H1047 H 0.04627 0.8689 0.1539 0.0
H1048 H 0.89618 0.63698 0.07007 0.0
H1049 H 0.8952 0.63209 0.09489 0.0
H1050 H 0.84728 0.60108 0.09024 0.0
H1051 H 0.84802 0.60623 0.06524 0.0
H1052 H 0.84589 0.62185 0.1131 0.0
H1053 H 0.88613 0.57994 0.09429 0.0
H1054 H 0.91098 0.56906 0.08001 0.0
H1055 H 0.94752 0.60146 0.10295 0.0
H1056 H 0.92285 0.61276 0.11724 0.0
H1057 H 0.8597 0.59195 0.18273 0.0
H1058 H 0.85817 0.58822 0.15757 0.0
H1059 H 0.89731 0.62964 0.15245 0.0
H1060 H 0.89847 0.63378 0.17746 0.0
H1061 H 0.90092 0.59775 0.13439 0.0
H1062 H 0.85848 0.6426 0.15041 0.0
H1063 H 0.83323 0.65248 0.16472 0.0
H1064 H 0.8002 0.61197 0.14685 0.0
H1065 H 0.82538 0.60168 0.13259 0.0
C1066 C 0.8853 0.6293 0.07433 0.0
C1067 C 0.87227 0.62184 0.06572 0.0
C1068 C 0.88481 0.62642 0.08851 0.0
C1069 C 0.87143 0.61582 0.09436 0.0
C1070 C 0.85782 0.60915 0.0859 0.0
C1071 C 0.85823 0.61214 0.07165 0.0
C1072 C 0.87215 0.61147 0.10926 0.0
C1073 C 0.85777 0.61622 0.11771 0.0
C1074 C 0.88766 0.6041 0.1153 0.0
C1075 C 0.9026 0.59729 0.10678 0.0
C1076 C 0.89945 0.58485 0.09623 0.0
C1077 C 0.9135 0.57859 0.08814 0.0
C1078 C 0.93081 0.58459 0.09056 0.0
C1079 C 0.9341 0.59683 0.10109 0.0
C1080 C 0.92009 0.60316 0.1092 0.0
C1081 C 0.8683 0.59991 0.17622 0.0
C1082 C 0.87919 0.61317 0.18195 0.0
C1083 C 0.86734 0.59783 0.1619 0.0
C1084 C 0.87756 0.60874 0.15323 0.0
C1085 C 0.88935 0.6211 0.15901 0.0
C1086 C 0.89 0.62346 0.17326 0.0
C1087 C 0.8749 0.6086 0.13815 0.0
C1088 C 0.88892 0.60301 0.1297 0.0
C1089 C 0.859 0.61496 0.13211 0.0
C1090 C 0.84386 0.62122 0.14059 0.0
C1091 C 0.84589 0.63569 0.14964 0.0
C1092 C 0.83158 0.64139 0.15772 0.0
C1093 C 0.81514 0.63281 0.15674 0.0
C1094 C 0.81295 0.61857 0.14763 0.0
C1095 C 0.82724 0.6128 0.13955 0.0
H1096 H 0.80407 0.63724 0.16299 0.0
H1097 H 0.94168 0.57973 0.08428 0.0
H1098 H 0.1097 0.13796 0.81867 0.0
H1099 H 0.1127 0.13711 0.84372 0.0
H1100 H 0.15298 0.09646 0.84007 0.0
H1101 H 0.14945 0.09678 0.81493 0.0
H1102 H 0.13388 0.09085 0.86247 0.0
H1103 H 0.16451 0.14048 0.84359 0.0
H1104 H 0.16856 0.16738 0.82939 0.0
H1105 H 0.12823 0.19434 0.85275 0.0
H1106 H 0.12374 0.16751 0.86697 0.0
H1107 H 0.1636 0.11108 0.93127 0.0
H1108 H 0.16536 0.10951 0.90599 0.0
H1109 H 0.11683 0.13984 0.90283 0.0
H1110 H 0.11481 0.14114 0.92795 0.0
H1111 H 0.14479 0.14991 0.88378 0.0
H1112 H 0.11315 0.09774 0.90109 0.0
H1113 H 0.11082 0.07065 0.91532 0.0
H1114 H 0.15631 0.04846 0.8948 0.0
H1115 H 0.15906 0.07556 0.88059 0.0
C1116 C 0.1189 0.12857 0.82324 0.0
C1117 C 0.12946 0.11756 0.81491 0.0
C1118 C 0.12072 0.12819 0.83753 0.0
C1119 C 0.1335 0.11715 0.84373 0.0
C1120 C 0.14318 0.10522 0.83549 0.0
C1121 C 0.14111 0.10537 0.82115 0.0
C1122 C 0.13734 0.11889 0.85867 0.0
C1123 C 0.13656 0.10372 0.86708 0.0
C1124 C 0.14095 0.13568 0.86472 0.0
C1125 C 0.14371 0.15193 0.85628 0.0
C1126 C 0.15643 0.15211 0.84565 0.0
C1127 C 0.1588 0.16735 0.8376 0.0
C1128 C 0.14863 0.18255 0.84015 0.0
C1129 C 0.13609 0.18255 0.85078 0.0
C1130 C 0.13364 0.16734 0.85885 0.0
C1131 C 0.15353 0.1177 0.92515 0.0
C1132 C 0.13903 0.12618 0.9315 0.0
C1133 C 0.1545 0.11671 0.91076 0.0
C1134 C 0.14114 0.12445 0.90262 0.0
C1135 C 0.12724 0.13378 0.90897 0.0
C1136 C 0.1261 0.13449 0.92329 0.0
C1137 C 0.14083 0.12199 0.88751 0.0
C1138 C 0.14234 0.13703 0.87909 0.0
C1139 C 0.13821 0.10508 0.88146 0.0
C1140 C 0.13644 0.08875 0.8899 0.0
C1141 C 0.12274 0.08715 0.8997 0.0
C1142 C 0.12133 0.07178 0.90775 0.0
C1143 C 0.13344 0.05787 0.906 0.0
C1144 C 0.14696 0.05926 0.89616 0.0
C1145 C 0.14845 0.07462 0.88811 0.0
H1146 H 0.13233 0.04598 0.91223 0.0
H1147 H 0.15049 0.19434 0.83391 0.0
H1148 H 0.60867 0.36796 0.57383 0.0
H1149 H 0.61364 0.37075 0.59854 0.0
H1150 H 0.66926 0.38111 0.59138 0.0
H1151 H 0.66434 0.37872 0.56635 0.0
H1152 H 0.65384 0.35447 0.61629 0.0
H1153 H 0.65728 0.41428 0.59766 0.0
H1154 H 0.64746 0.43812 0.58194 0.0
H1155 H 0.59515 0.43642 0.59968 0.0
H1156 H 0.60461 0.41234 0.61535 0.0
H1157 H 0.64683 0.41036 0.68349 0.0
H1158 H 0.65151 0.41014 0.65843 0.0
H1159 H 0.61776 0.36395 0.65491 0.0
H1160 H 0.61327 0.36394 0.67981 0.0
H1161 H 0.63007 0.41111 0.63521 0.0
H1162 H 0.63664 0.33438 0.63395 0.0
H1163 H 0.64525 0.31018 0.64977 0.0
H1164 H 0.67894 0.34613 0.67216 0.0
H1165 H 0.67073 0.37048 0.65636 0.0
C1166 C 0.62206 0.37052 0.57746 0.0
C1167 C 0.6361 0.37332 0.56814 0.0
C1168 C 0.62484 0.37211 0.59159 0.0
C1169 C 0.64173 0.37632 0.59668 0.0
C1170 C 0.65611 0.3779 0.58754 0.0
C1171 C 0.65329 0.37649 0.5733 0.0
C1172 C 0.6436 0.38044 0.61147 0.0
C1173 C 0.64896 0.36693 0.62048 0.0
C1174 C 0.63729 0.39676 0.61681 0.0
C1175 C 0.63162 0.41142 0.60759 0.0
C1176 C 0.64365 0.41889 0.59812 0.0
C1177 C 0.63815 0.43246 0.58924 0.0
C1178 C 0.62068 0.43875 0.58979 0.0
C1179 C 0.60868 0.43152 0.59926 0.0
C1180 C 0.61411 0.41793 0.60815 0.0
C1181 C 0.64011 0.40042 0.67731 0.0
C1182 C 0.62986 0.38704 0.68358 0.0
C1183 C 0.64285 0.40026 0.66303 0.0
C1184 C 0.63537 0.38674 0.65491 0.0
C1185 C 0.62402 0.37424 0.66106 0.0
C1186 C 0.62137 0.37432 0.67527 0.0
C1187 C 0.63997 0.38498 0.64013 0.0
C1188 C 0.63555 0.39886 0.63111 0.0
C1189 C 0.64735 0.36904 0.6348 0.0
C1190 C 0.65299 0.35428 0.64399 0.0
C1191 C 0.64601 0.33708 0.64216 0.0
C1192 C 0.65079 0.32335 0.65115 0.0
C1193 C 0.6626 0.32662 0.66198 0.0
C1194 C 0.66976 0.34362 0.66379 0.0
C1195 C 0.66504 0.35739 0.65482 0.0
H1196 H 0.66622 0.31599 0.66896 0.0
H1197 H 0.61645 0.44926 0.5829 0.0
H1198 H 0.40139 0.86999 0.31989 0.0
H1199 H 0.39925 0.87145 0.34498 0.0
H1200 H 0.35648 0.90948 0.34153 0.0
H1201 H 0.35919 0.90864 0.31631 0.0
H1202 H 0.3756 0.91606 0.3641 0.0
H1203 H 0.34766 0.865 0.34461 0.0
H1204 H 0.34555 0.8382 0.33005 0.0
H1205 H 0.38727 0.81342 0.3534 0.0
H1206 H 0.38983 0.84019 0.36797 0.0
H1207 H 0.34575 0.89496 0.43225 0.0
H1208 H 0.34485 0.89694 0.40701 0.0
H1209 H 0.3927 0.86544 0.4045 0.0
H1210 H 0.39373 0.8635 0.42962 0.0
H1211 H 0.36717 0.85623 0.38479 0.0
H1212 H 0.3957 0.90927 0.4032 0.0
H1213 H 0.39658 0.93625 0.41766 0.0
H1214 H 0.35121 0.9572 0.39623 0.0
H1215 H 0.3499 0.93021 0.38178 0.0
C1216 C 0.39191 0.87906 0.32451 0.0
C1217 C 0.38036 0.88911 0.31624 0.0
C1218 C 0.39058 0.87978 0.33883 0.0
C1219 C 0.37728 0.8901 0.3451 0.0
C1220 C 0.36671 0.90128 0.33689 0.0
C1221 C 0.36831 0.90086 0.32251 0.0
C1222 C 0.37355 0.88796 0.36004 0.0
C1223 C 0.37349 0.90301 0.36859 0.0
C1224 C 0.37072 0.87092 0.36592 0.0
C1225 C 0.36902 0.85466 0.35732 0.0
C1226 C 0.35645 0.85387 0.3466 0.0
C1227 C 0.35517 0.83868 0.33834 0.0
C1228 C 0.36629 0.82413 0.34078 0.0
C1229 C 0.37867 0.82471 0.35152 0.0
C1230 C 0.38003 0.83988 0.35979 0.0
C1231 C 0.35586 0.88818 0.42629 0.0
C1232 C 0.36987 0.87917 0.43287 0.0
C1233 C 0.3554 0.88941 0.4119 0.0
C1234 C 0.36885 0.88154 0.40393 0.0
C1235 C 0.38224 0.87167 0.41048 0.0
C1236 C 0.38281 0.87058 0.42482 0.0
C1237 C 0.36969 0.88425 0.38884 0.0
C1238 C 0.36911 0.86928 0.38025 0.0
C1239 C 0.37167 0.90136 0.38294 0.0
C1240 C 0.37258 0.91765 0.39152 0.0
C1241 C 0.38583 0.91958 0.40165 0.0
C1242 C 0.38642 0.93487 0.40983 0.0
C1243 C 0.37393 0.94841 0.4079 0.0
C1244 C 0.36085 0.9467 0.39774 0.0
C1245 C 0.36019 0.93141 0.38955 0.0
H1246 H 0.3744 0.96024 0.41424 0.0
H1247 H 0.36529 0.81239 0.33437 0.0
H1248 H 0.0682 0.66631 0.00902 0.0
H1249 H 0.03838 0.66262 -0.00042 0.0
H1250 H 0.0489 0.60707 0.99221 0.0
H1251 H 0.07908 0.61077 0.00148 0.0
H1252 H 0.01931 0.63019 0.97345 0.0
H1253 H 0.03526 0.6064 0.01915 0.0
H1254 H 0.05247 0.6084 0.04075 0.0
H1255 H 0.0297 0.65969 0.04902 0.0
H1256 H 0.0126 0.65809 0.02732 0.0
H1257 H 0.92846 0.60918 0.00381 0.0
H1258 H 0.95848 0.60674 0.99388 0.0
H1259 H 0.96776 0.66217 0.00271 0.0
H1260 H 0.93809 0.66463 0.01268 0.0
H1261 H 0.98764 0.63255 0.01834 0.0
H1262 H 0.97047 0.65545 0.97322 0.0
H1263 H 0.95401 0.65415 0.95126 0.0
H1264 H 0.97844 0.60399 0.94178 0.0
H1265 H 0.99485 0.60487 0.9638 0.0
C1266 C 0.06446 0.65351 0.00478 0.0
C1267 C 0.07575 0.63875 0.00617 0.0
C1268 C 0.04748 0.65144 -0.00072 0.0
C1269 C 0.04144 0.63455 0.99533 0.0
C1270 C 0.05342 0.62024 0.99509 0.0
C1271 C 0.07061 0.62235 0.00046 0.0
C1272 C 0.02207 0.63129 0.99554 0.0
C1273 C 0.01231 0.6303 0.98322 0.0
C1274 C 0.01304 0.63146 0.00831 0.0
C1275 C 0.02278 0.63218 0.02159 0.0
C1276 C 0.03401 0.61813 0.02555 0.0
C1277 C 0.04374 0.6192 0.0378 0.0
C1278 C 0.04221 0.63418 0.04624 0.0
C1279 C 0.03088 0.6481 0.04247 0.0
C1280 C 0.02116 0.64712 0.0302 0.0
C1281 C 0.93664 0.62099 0.00304 0.0
C1282 C 0.93114 0.63703 0.00915 0.0
C1283 C 0.95375 0.61959 0.99736 0.0
C1284 C 0.96527 0.63428 0.99761 0.0
C1285 C 0.959 0.65073 0.00237 0.0
C1286 C 0.94209 0.65209 0.00811 0.0
C1287 C 0.98467 0.63188 0.99625 0.0
C1288 C 0.99451 0.63186 0.00851 0.0
C1289 C 0.99356 0.63059 0.98344 0.0
C1290 C 0.98368 0.6301 0.97025 0.0
C1291 C 0.97216 0.64403 0.96654 0.0
C1292 C 0.96288 0.64341 0.95405 0.0
C1293 C 0.96512 0.62896 0.94515 0.0
C1294 C 0.97668 0.61515 0.9487 0.0
C1295 C 0.98598 0.61571 0.96117 0.0
H1296 H 0.95793 0.62851 0.93549 0.0
H1297 H 0.04977 0.635 0.05572 0.0
H1298 H 0.6552 0.67545 0.25437 0.0
H1299 H 0.66224 0.70283 0.24162 0.0
H1300 H 0.61102 0.72443 0.25268 0.0
H1301 H 0.604 0.69739 0.26534 0.0
H1302 H 0.62206 0.73499 0.2262 0.0
H1303 H 0.6465 0.73095 0.27448 0.0
H1304 H 0.6662 0.71588 0.29118 0.0
H1305 H 0.71032 0.72183 0.26342 0.0
H1306 H 0.69079 0.73685 0.24654 0.0
H1307 H 0.60466 0.81036 0.26057 0.0
H1308 H 0.61113 0.783 0.24834 0.0
H1309 H 0.66525 0.80033 0.24186 0.0
H1310 H 0.65867 0.82809 0.25433 0.0
H1311 H 0.66462 0.7695 0.25467 0.0
H1312 H 0.63943 0.78842 0.21336 0.0
H1313 H 0.61879 0.80379 0.19762 0.0
H1314 H 0.57608 0.77012 0.2111 0.0
H1315 H 0.59633 0.75472 0.22708 0.0
C1316 C 0.64529 0.68588 0.25373 0.0
C1317 C 0.62916 0.68446 0.26102 0.0
C1318 C 0.64932 0.70147 0.24645 0.0
C1319 C 0.63718 0.71568 0.24627 0.0
C1320 C 0.62054 0.7136 0.25261 0.0
C1321 C 0.61661 0.69821 0.25998 0.0
C1322 C 0.6424 0.73375 0.24174 0.0
C1323 C 0.63159 0.74261 0.23216 0.0
C1324 C 0.65545 0.74347 0.24905 0.0
C1325 C 0.66723 0.73488 0.25927 0.0
C1326 C 0.66041 0.72902 0.27197 0.0
C1327 C 0.67152 0.72048 0.28144 0.0
C1328 C 0.68949 0.71787 0.27835 0.0
C1329 C 0.69639 0.72385 0.26579 0.0
C1330 C 0.68532 0.73238 0.25628 0.0
C1331 C 0.61778 0.80861 0.25615 0.0
C1332 C 0.63121 0.82121 0.25848 0.0
C1333 C 0.62146 0.79301 0.24901 0.0
C1334 C 0.63867 0.78959 0.24403 0.0
C1335 C 0.65184 0.80275 0.2455 0.0
C1336 C 0.64808 0.81858 0.25258 0.0
C1337 C 0.64317 0.7711 0.23993 0.0
C1338 C 0.65584 0.76205 0.24794 0.0
C1339 C 0.63187 0.76125 0.23109 0.0
C1340 C 0.6195 0.77033 0.2214 0.0
C1341 C 0.62563 0.78431 0.21301 0.0
C1342 C 0.61398 0.79304 0.20404 0.0
C1343 C 0.59614 0.78791 0.20335 0.0
C1344 C 0.58992 0.77403 0.21162 0.0
C1345 C 0.6015 0.76525 0.22061 0.0
H1346 H 0.58714 0.7947 0.1964 0.0
H1347 H 0.69806 0.71124 0.28569 0.0
H1348 H 0.4216 0.37959 0.49832 0.0
H1349 H 0.45008 0.38753 0.4872 0.0
H1350 H 0.47251 0.39932 0.5271 0.0
H1351 H 0.44467 0.39106 0.53813 0.0
H1352 H 0.48153 0.42466 0.50526 0.0
H1353 H 0.47834 0.35906 0.51549 0.0
H1354 H 0.4646 0.32973 0.51127 0.0
H1355 H 0.47343 0.33576 0.46777 0.0
H1356 H 0.48707 0.36522 0.47178 0.0
H1357 H 0.55567 0.39893 0.53761 0.0
H1358 H 0.52803 0.40647 0.52608 0.0
H1359 H 0.54945 0.38777 0.48742 0.0
H1360 H 0.5776 0.38027 0.4991 0.0
H1361 H 0.51807 0.37166 0.49405 0.0
H1362 H 0.53566 0.43059 0.48844 0.0
H1363 H 0.55012 0.45918 0.49381 0.0
H1364 H 0.51462 0.46684 0.52795 0.0
H1365 H 0.50012 0.43819 0.52297 0.0
C1366 C 0.43262 0.38409 0.50462 0.0
C1367 C 0.43109 0.3845 0.51907 0.0
C1368 C 0.44877 0.38867 0.49828 0.0
C1369 C 0.4633 0.39414 0.50635 0.0
C1370 C 0.4614 0.39532 0.52069 0.0
C1371 C 0.44555 0.3904 0.52699 0.0
C1372 C 0.48129 0.39672 0.50053 0.0
C1373 C 0.48959 0.41325 0.50247 0.0
C1374 C 0.49158 0.382 0.49627 0.0
C1375 C 0.48351 0.36433 0.4939 0.0
C1376 C 0.47725 0.35414 0.50503 0.0
C1377 C 0.4695 0.33751 0.50268 0.0
C1378 C 0.4681 0.33091 0.48925 0.0
C1379 C 0.47449 0.34091 0.47816 0.0
C1380 C 0.48222 0.35757 0.48046 0.0
C1381 C 0.55467 0.39681 0.52659 0.0
C1382 C 0.56866 0.38891 0.51925 0.0
C1383 C 0.53892 0.4013 0.51995 0.0
C1384 C 0.53671 0.3979 0.50583 0.0
C1385 C 0.55096 0.3907 0.49829 0.0
C1386 C 0.56698 0.38644 0.50494 0.0
C1387 C 0.51856 0.39932 0.49996 0.0
C1388 C 0.51015 0.38351 0.49587 0.0
C1389 C 0.5082 0.41478 0.50217 0.0
C1390 C 0.51671 0.43221 0.50525 0.0
C1391 C 0.53095 0.43833 0.49712 0.0
C1392 C 0.53917 0.45456 0.5001 0.0
C1393 C 0.53327 0.46484 0.51119 0.0
C1394 C 0.51913 0.4589 0.51933 0.0
C1395 C 0.51086 0.44268 0.5164 0.0
H1396 H 0.53966 0.47739 0.5135 0.0
H1397 H 0.4621 0.31803 0.48745 0.0
H1398 H 0.88175 0.33161 0.74491 0.0
H1399 H 0.87877 0.30315 0.73251 0.0
H1400 H 0.85309 0.2803 0.76818 0.0
H1401 H 0.85614 0.30832 0.78039 0.0
H1402 H 0.89562 0.27441 0.74042 0.0
H1403 H 0.82679 0.24796 0.76183 0.0
H1404 H 0.79583 0.25856 0.76272 0.0
H1405 H 0.8063 0.29492 0.72957 0.0
H1406 H 0.83727 0.28434 0.72829 0.0
H1407 H 0.90079 0.20045 0.77869 0.0
H1408 H 0.89643 0.22797 0.76636 0.0
H1409 H 0.86035 0.20184 0.73829 0.0
H1410 H 0.86426 0.17387 0.75105 0.0
H1411 H 0.84622 0.23139 0.74654 0.0
H1412 H 0.90075 0.21936 0.726 0.0
H1413 H 0.93163 0.20871 0.72382 0.0
H1414 H 0.94926 0.24928 0.75181 0.0
H1415 H 0.91849 0.26001 0.75436 0.0
C1416 C 0.87493 0.32062 0.74984 0.0
C1417 C 0.86928 0.322 0.7636 0.0
C1418 C 0.87326 0.3044 0.74278 0.0
C1419 C 0.86555 0.28959 0.74934 0.0
C1420 C 0.85873 0.29155 0.76273 0.0
C1421 C 0.86064 0.30754 0.76979 0.0
C1422 C 0.86747 0.27131 0.74373 0.0
C1423 C 0.88477 0.26499 0.74141 0.0
C1424 C 0.85319 0.25906 0.74425 0.0
C1425 C 0.83443 0.26529 0.74493 0.0
C1426 C 0.82249 0.25807 0.75461 0.0
C1427 C 0.80492 0.26412 0.75522 0.0
C1428 C 0.7991 0.2774 0.74621 0.0
C1429 C 0.81083 0.28465 0.73656 0.0
C1430 C 0.82841 0.27864 0.7359 0.0
C1431 C 0.89207 0.20034 0.7698 0.0
C1432 C 0.8828 0.18487 0.76593 0.0
C1433 C 0.88976 0.21615 0.7626 0.0
C1434 C 0.87837 0.21697 0.75116 0.0
C1435 C 0.86937 0.20149 0.74699 0.0
C1436 C 0.87163 0.18552 0.75429 0.0
C1437 C 0.8746 0.23463 0.74491 0.0
C1438 C 0.85697 0.24077 0.74491 0.0
C1439 C 0.88854 0.24671 0.74192 0.0
C1440 C 0.90724 0.24056 0.7403 0.0
C1441 C 0.91119 0.226 0.73172 0.0
C1442 C 0.92869 0.21994 0.73043 0.0
C1443 C 0.9424 0.22834 0.73765 0.0
C1444 C 0.93864 0.24283 0.74618 0.0
C1445 C 0.92116 0.24895 0.74751 0.0
H1446 H 0.95593 0.2236 0.73666 0.0
H1447 H 0.7855 0.28207 0.7467 0.0
H1448 H 0.92159 0.40075 0.99821 0.0
H1449 H 0.94959 0.40665 0.01047 0.0
H1450 H 0.97 0.35594 0.99688 0.0
H1451 H 0.9423 0.35001 0.9848 0.0
H1452 H 0.9828 0.36486 0.02257 0.0
H1453 H 0.97457 0.39376 0.97633 0.0
H1454 H 0.95841 0.41499 0.96147 0.0
H1455 H 0.96773 0.4567 0.99085 0.0
H1456 H 0.98384 0.43564 0.00591 0.0
H1457 H 0.05708 0.35226 0.98479 0.0
H1458 H 0.02933 0.35728 0.99699 0.0
H1459 H 0.04697 0.40985 0.00854 0.0
H1460 H 0.07518 0.40475 0.99622 0.0
H1461 H 0.01515 0.41041 0.99537 0.0
H1462 H 0.03677 0.38096 0.03438 0.0
H1463 H 0.05327 0.35863 0.04789 0.0
H1464 H 0.01917 0.31738 0.03245 0.0
H1465 H 0.00263 0.33937 0.01867 0.0
C1466 C 0.93187 0.39065 0.99825 0.0
C1467 C 0.92995 0.37505 0.99038 0.0
C1468 C 0.94784 0.39405 0.00523 0.0
C1469 C 0.96195 0.38183 0.00444 0.0
C1470 C 0.95931 0.36556 0.99766 0.0
C1471 C 0.94352 0.36224 0.99064 0.0
C1472 C 0.98036 0.38669 0.00838 0.0
C1473 C 0.98994 0.37501 0.01688 0.0
C1474 C 0.98953 0.40046 0.00142 0.0
C1475 C 0.98024 0.41315 0.99226 0.0
C1476 C 0.97314 0.40746 0.9796 0.0
C1477 C 0.96399 0.41945 0.97116 0.0
C1478 C 0.96201 0.43717 0.97523 0.0
C1479 C 0.96925 0.44296 0.98772 0.0
C1480 C 0.97839 0.43102 0.99621 0.0
C1481 C 0.05525 0.36474 0.9902 0.0
C1482 C 0.06818 0.37816 0.98949 0.0
C1483 C 0.03944 0.36754 0.99732 0.0
C1484 C 0.03612 0.38387 0.00384 0.0
C1485 C 0.04935 0.39708 0.00371 0.0
C1486 C 0.06542 0.39416 0.9967 0.0
C1487 C 0.01778 0.3876 0.0087 0.0
C1488 C 0.00816 0.40091 0.00182 0.0
C1489 C 0.00861 0.37529 0.01715 0.0
C1490 C 0.01838 0.36189 0.02552 0.0
C1491 C 0.0328 0.36712 0.03382 0.0
C1492 C 0.04218 0.35451 0.04153 0.0
C1493 C 0.03725 0.33661 0.04105 0.0
C1494 C 0.02293 0.33127 0.03285 0.0
C1495 C 0.01351 0.34382 0.02512 0.0
H1496 H 0.04454 0.32686 0.04701 0.0
H1497 H 0.95491 0.44643 0.9687 0.0
H1498 H 0.87407 0.8296 0.24967 0.0
H1499 H 0.86796 0.80142 0.26176 0.0
H1500 H 0.84718 0.77921 0.22402 0.0
H1501 H 0.8534 0.80694 0.21204 0.0
H1502 H 0.82914 0.76666 0.2472 0.0
H1503 H 0.89161 0.77633 0.23068 0.0
H1504 H 0.91987 0.79301 0.23173 0.0
H1505 H 0.92258 0.78431 0.27544 0.0
H1506 H 0.89422 0.76772 0.27462 0.0
H1507 H 0.86136 0.69657 0.21161 0.0
H1508 H 0.85342 0.72404 0.22342 0.0
H1509 H 0.87085 0.70174 0.26211 0.0
H1510 H 0.87836 0.67366 0.25025 0.0
H1511 H 0.88702 0.73594 0.25318 0.0
H1512 H 0.83117 0.7123 0.26368 0.0
H1513 H 0.80372 0.69489 0.26036 0.0
H1514 H 0.78827 0.72921 0.22709 0.0
H1515 H 0.81573 0.74667 0.23002 0.0
C1516 C 0.86772 0.81882 0.24413 0.0
C1517 C 0.86441 0.82024 0.22991 0.0
C1518 C 0.86423 0.80278 0.25103 0.0
C1519 C 0.85719 0.78821 0.24376 0.0
C1520 C 0.85251 0.79029 0.22986 0.0
C1521 C 0.85622 0.80608 0.22298 0.0
C1522 C 0.85742 0.76993 0.24944 0.0
C1523 C 0.84169 0.75989 0.24887 0.0
C1524 C 0.87373 0.76122 0.25215 0.0
C1525 C 0.89079 0.77099 0.25262 0.0
C1526 C 0.89823 0.77805 0.24051 0.0
C1527 C 0.91424 0.78748 0.24106 0.0
C1528 C 0.92299 0.78976 0.25365 0.0
C1529 C 0.91577 0.78257 0.2657 0.0
C1530 C 0.89973 0.77317 0.26521 0.0
C1531 C 0.86325 0.6974 0.22266 0.0
C1532 C 0.87057 0.68311 0.23002 0.0
C1533 C 0.85857 0.71302 0.22942 0.0
C1534 C 0.86139 0.71482 0.24365 0.0
C1535 C 0.8684 0.70047 0.25115 0.0
C1536 C 0.87269 0.68454 0.24439 0.0
C1537 C 0.8589 0.7326 0.24984 0.0
C1538 C 0.87424 0.7426 0.25255 0.0
C1539 C 0.84223 0.74122 0.249 0.0
C1540 C 0.82555 0.73086 0.24713 0.0
C1541 C 0.82197 0.71611 0.25561 0.0
C1542 C 0.80639 0.70622 0.2538 0.0
C1543 C 0.79425 0.71096 0.24354 0.0
C1544 C 0.79766 0.72559 0.23506 0.0
C1545 C 0.81322 0.73552 0.23682 0.0
H1546 H 0.7822 0.70328 0.24215 0.0
H1547 H 0.93539 0.79707 0.25406 0.0
H1548 H 0.42113 0.61047 0.49324 0.0
H1549 H 0.45027 0.60386 0.50357 0.0
H1550 H 0.47445 0.64368 0.47761 0.0
H1551 H 0.44578 0.65048 0.4675 0.0
H1552 H 0.47962 0.59122 0.48982 0.0
H1553 H 0.5052 0.66403 0.49143 0.0
H1554 H 0.49368 0.69346 0.49826 0.0
H1555 H 0.45795 0.66872 0.52698 0.0
H1556 H 0.46927 0.63914 0.52033 0.0
H1557 H 0.55874 0.6106 0.4596 0.0
H1558 H 0.52951 0.60597 0.46967 0.0
H1559 H 0.55057 0.61761 0.51006 0.0
H1560 H 0.58027 0.62212 0.49989 0.0
H1561 H 0.52214 0.63861 0.50333 0.0
H1562 H 0.53186 0.57717 0.50597 0.0
H1563 H 0.54273 0.54762 0.4989 0.0
H1564 H 0.50829 0.54862 0.46362 0.0
H1565 H 0.49721 0.5782 0.47043 0.0
C1566 C 0.43263 0.61807 0.48998 0.0
C1567 C 0.43112 0.63099 0.47952 0.0
C1568 C 0.44924 0.61423 0.49585 0.0
C1569 C 0.46448 0.62345 0.4915 0.0
C1570 C 0.46283 0.63667 0.48138 0.0
C1571 C 0.44639 0.64045 0.47551 0.0
C1572 C 0.48254 0.61847 0.49627 0.0
C1573 C 0.4889 0.6014 0.49313 0.0
C1574 C 0.49454 0.63157 0.50107 0.0
C1575 C 0.48816 0.64938 0.50544 0.0
C1576 C 0.49504 0.66488 0.49932 0.0
C1577 C 0.48847 0.68158 0.5031 0.0
C1578 C 0.47512 0.68296 0.51306 0.0
C1579 C 0.46828 0.66764 0.51926 0.0
C1580 C 0.47474 0.6509 0.51546 0.0
C1581 C 0.55726 0.61178 0.47067 0.0
C1582 C 0.57169 0.61686 0.47896 0.0
C1583 C 0.54057 0.60896 0.47645 0.0
C1584 C 0.53787 0.61127 0.49065 0.0
C1585 C 0.55243 0.61559 0.4991 0.0
C1586 C 0.56934 0.61814 0.4933 0.0
C1587 C 0.51935 0.61177 0.49586 0.0
C1588 C 0.51286 0.62807 0.50079 0.0
C1589 C 0.50725 0.59785 0.4929 0.0
C1590 C 0.51366 0.57993 0.48876 0.0
C1591 C 0.52662 0.57112 0.49668 0.0
C1592 C 0.53283 0.55436 0.49272 0.0
C1593 C 0.52623 0.54626 0.48081 0.0
C1594 C 0.51335 0.55489 0.47286 0.0
C1595 C 0.50704 0.57163 0.47681 0.0
H1596 H 0.53109 0.5333 0.47774 0.0
H1597 H 0.47004 0.6959 0.51597 0.0
H1598 H 0.6498 0.17494 0.73755 0.0
H1599 H 0.65447 0.20541 0.74614 0.0
H1600 H 0.60262 0.22034 0.73104 0.0
H1601 H 0.59793 0.19031 0.72245 0.0
H1602 H 0.63063 0.24003 0.71996 0.0
H1603 H 0.60966 0.21821 0.7644 0.0
H1604 H 0.61131 0.19906 0.785 0.0
H1605 H 0.66311 0.21986 0.79439 0.0
H1606 H 0.66185 0.23897 0.77372 0.0
H1607 H 0.59721 0.31779 0.7388 0.0
H1608 H 0.60288 0.28722 0.74594 0.0
H1609 H 0.65915 0.29802 0.74743 0.0
H1610 H 0.6535 0.32892 0.74048 0.0
H1611 H 0.63695 0.26559 0.7669 0.0
H1612 H 0.65846 0.28599 0.7209 0.0
H1613 H 0.65514 0.30593 0.70083 0.0
H1614 H 0.60166 0.28739 0.69485 0.0
H1615 H 0.60464 0.26752 0.715 0.0
C1616 C 0.63926 0.18465 0.73638 0.0
C1617 C 0.62363 0.18038 0.72911 0.0
C1618 C 0.64195 0.202 0.74129 0.0
C1619 C 0.62895 0.2151 0.73907 0.0
C1620 C 0.61287 0.21043 0.73273 0.0
C1621 C 0.61023 0.19328 0.72779 0.0
C1622 C 0.63256 0.23414 0.74166 0.0
C1623 C 0.63226 0.24553 0.73023 0.0
C1624 C 0.63507 0.2413 0.75502 0.0
C1625 C 0.63576 0.22984 0.76742 0.0
C1626 C 0.62148 0.21856 0.77077 0.0
C1627 C 0.62232 0.20775 0.78248 0.0
C1628 C 0.63734 0.2082 0.79097 0.0
C1629 C 0.65151 0.2195 0.78779 0.0
C1630 C 0.65073 0.23033 0.77609 0.0
C1631 C 0.61071 0.3139 0.74133 0.0
C1632 C 0.62495 0.32553 0.73891 0.0
C1633 C 0.61392 0.29648 0.74552 0.0
C1634 C 0.63142 0.29041 0.7471 0.0
C1635 C 0.64555 0.30258 0.74639 0.0
C1636 C 0.6423 0.32018 0.74236 0.0
C1637 C 0.63468 0.27122 0.74521 0.0
C1638 C 0.63609 0.2599 0.75665 0.0
C1639 C 0.63336 0.26393 0.73184 0.0
C1640 C 0.63174 0.27538 0.71946 0.0
C1641 C 0.64599 0.28623 0.71531 0.0
C1642 C 0.64417 0.29751 0.70394 0.0
C1643 C 0.62819 0.29795 0.69658 0.0
C1644 C 0.61403 0.28705 0.70056 0.0
C1645 C 0.61578 0.27576 0.71194 0.0
H1646 H 0.6268 0.30671 0.68779 0.0
H1647 H 0.63797 0.19982 0.80003 0.0
H1648 H 0.36562 0.31039 0.70886 0.0
H1649 H 0.3573 0.28198 0.71889 0.0
H1650 H 0.36432 0.30353 0.75975 0.0
H1651 H 0.37247 0.33254 0.74962 0.0
H1652 H 0.38335 0.27106 0.75416 0.0
H1653 H 0.32437 0.29097 0.75333 0.0
H1654 H 0.29775 0.30646 0.74459 0.0
H1655 H 0.2957 0.27106 0.70991 0.0
H1656 H 0.32248 0.25556 0.71825 0.0
H1657 H 0.37347 0.17528 0.75004 0.0
H1658 H 0.36491 0.20432 0.75989 0.0
H1659 H 0.35785 0.22521 0.71882 0.0
H1660 H 0.36656 0.19676 0.70907 0.0
H1661 H 0.33128 0.23659 0.73766 0.0
H1662 H 0.39735 0.22993 0.73405 0.0
H1663 H 0.42525 0.21515 0.74106 0.0
H1664 H 0.41355 0.2261 0.78356 0.0
H1665 H 0.38549 0.24079 0.77676 0.0
C1666 C 0.36522 0.3092 0.71999 0.0
C1667 C 0.36984 0.3236 0.72847 0.0
C1668 C 0.36029 0.29299 0.72572 0.0
C1669 C 0.35999 0.29071 0.74006 0.0
C1670 C 0.3643 0.30512 0.74865 0.0
C1671 C 0.36894 0.32161 0.74287 0.0
C1672 C 0.357 0.27258 0.74552 0.0
C1673 C 0.37164 0.26358 0.75114 0.0
C1674 C 0.3417 0.26284 0.74161 0.0
C1675 C 0.32545 0.27201 0.73649 0.0
C1676 C 0.3183 0.28651 0.74381 0.0
C1677 C 0.30317 0.2953 0.73892 0.0
C1678 C 0.29501 0.2897 0.72673 0.0
C1679 C 0.30199 0.27533 0.71939 0.0
C1680 C 0.31713 0.2665 0.72421 0.0
C1681 C 0.36982 0.18606 0.74319 0.0
C1682 C 0.37093 0.18391 0.72881 0.0
C1683 C 0.36491 0.20256 0.74881 0.0
C1684 C 0.3607 0.21687 0.74007 0.0
C1685 C 0.3609 0.21432 0.72576 0.0
C1686 C 0.36608 0.1981 0.72019 0.0
C1687 C 0.35812 0.23521 0.74525 0.0
C1688 C 0.34246 0.24418 0.74157 0.0
C1689 C 0.37246 0.24495 0.75089 0.0
C1690 C 0.3893 0.23624 0.75493 0.0
C1691 C 0.40071 0.22908 0.74489 0.0
C1692 C 0.41654 0.22074 0.74882 0.0
C1693 C 0.42114 0.21964 0.76275 0.0
C1694 C 0.40995 0.22692 0.77278 0.0
C1695 C 0.39408 0.23525 0.7689 0.0
H1696 H 0.4334 0.21318 0.76578 0.0
H1697 H 0.28329 0.2965 0.72297 0.0
H1698 H 0.13481 0.67409 0.24995 0.0
H1699 H 0.14389 0.70171 0.26177 0.0
H1700 H 0.15744 0.72501 0.2225 0.0
H1701 H 0.14811 0.69797 0.21079 0.0
H1702 H 0.18197 0.7336 0.2445 0.0
H1703 H 0.11633 0.73106 0.23391 0.0
H1704 H 0.08703 0.71702 0.23766 0.0
H1705 H 0.09298 0.7235 0.28141 0.0
H1706 H 0.1224 0.73744 0.27788 0.0
H1707 H 0.15564 0.80753 0.21265 0.0
H1708 H 0.16377 0.78009 0.22421 0.0
H1709 H 0.1443 0.80104 0.2628 0.0
H1710 H 0.13616 0.82898 0.25107 0.0
H1711 H 0.12877 0.76963 0.25612 0.0
H1712 H 0.18755 0.78758 0.26191 0.0
H1713 H 0.21585 0.80258 0.25651 0.0
H1714 H 0.22377 0.76769 0.22203 0.0
H1715 H 0.19542 0.75263 0.22705 0.0
C1716 C 0.14003 0.68506 0.24394 0.0
C1717 C 0.14055 0.68408 0.22947 0.0
C1718 C 0.14526 0.70073 0.25068 0.0
C1719 C 0.15143 0.71533 0.243 0.0
C1720 C 0.1529 0.71385 0.22864 0.0
C1721 C 0.14737 0.69847 0.22194 0.0
C1722 C 0.15401 0.73313 0.24917 0.0
C1723 C 0.17052 0.74154 0.2474 0.0
C1724 C 0.13923 0.74326 0.25356 0.0
C1725 C 0.12155 0.7351 0.25566 0.0
C1726 C 0.11138 0.72941 0.24432 0.0
C1727 C 0.09478 0.72148 0.24641 0.0
C1728 C 0.08817 0.71932 0.25977 0.0
C1729 C 0.09813 0.72514 0.27107 0.0
C1730 C 0.11477 0.73305 0.26904 0.0
C1731 C 0.1535 0.80648 0.22367 0.0
C1732 C 0.14515 0.82024 0.23097 0.0
C1733 C 0.15834 0.79085 0.23033 0.0
C1734 C 0.15486 0.78855 0.24444 0.0
C1735 C 0.14729 0.80263 0.25195 0.0
C1736 C 0.14266 0.81853 0.24527 0.0
C1737 C 0.15644 0.77038 0.25025 0.0
C1738 C 0.14067 0.76182 0.25424 0.0
C1739 C 0.17197 0.76016 0.24796 0.0
C1740 C 0.18933 0.76886 0.24495 0.0
C1741 C 0.1953 0.78309 0.25317 0.0
C1742 C 0.21137 0.79162 0.25017 0.0
C1743 C 0.22163 0.78605 0.23896 0.0
C1744 C 0.21585 0.77193 0.23075 0.0
C1745 C 0.1998 0.76334 0.2337 0.0
H1746 H 0.23403 0.79272 0.23663 0.0
H1747 H 0.07531 0.71317 0.26136 0.0
H1748 H 0.09798 0.19116 0.76398 0.0
H1749 H 0.10314 0.21922 0.75228 0.0
H1750 H 0.15612 0.2022 0.74133 0.0
H1751 H 0.15094 0.17376 0.75319 0.0
H1752 H 0.15662 0.23281 0.75522 0.0
H1753 H 0.12741 0.21398 0.71532 0.0
H1754 H 0.10506 0.19873 0.70097 0.0
H1755 H 0.06417 0.23277 0.71704 0.0
H1756 H 0.08617 0.24805 0.73166 0.0
H1757 H 0.14978 0.32676 0.75431 0.0
H1758 H 0.15488 0.29885 0.74172 0.0
H1759 H 0.10344 0.27977 0.7548 0.0
H1760 H 0.09833 0.30736 0.76726 0.0
H1761 H 0.11215 0.26756 0.72875 0.0
H1762 H 0.14022 0.27325 0.7752 0.0
H1763 H 0.16155 0.28771 0.79098 0.0
H1764 H 0.204 0.27757 0.76241 0.0
H1765 H 0.18284 0.2632 0.74641 0.0
C1766 C 0.11059 0.19318 0.75879 0.0
C1767 C 0.12413 0.18038 0.75962 0.0
C1768 C 0.11346 0.20918 0.75194 0.0
C1769 C 0.12997 0.2128 0.74578 0.0
C1770 C 0.14323 0.19961 0.74589 0.0
C1771 C 0.14026 0.1834 0.75265 0.0
C1772 C 0.13396 0.23137 0.74163 0.0
C1773 C 0.14736 0.24033 0.74893 0.0
C1774 C 0.12193 0.24124 0.73342 0.0
C1775 C 0.10852 0.23223 0.72458 0.0
C1776 C 0.11364 0.21818 0.71584 0.0
C1777 C 0.10102 0.20953 0.70766 0.0
C1778 C 0.08321 0.2148 0.70808 0.0
C1779 C 0.07799 0.22874 0.71669 0.0
C1780 C 0.09055 0.23745 0.72491 0.0
C1781 C 0.13938 0.31679 0.75413 0.0
C1782 C 0.12379 0.31905 0.76196 0.0
C1783 C 0.14231 0.30088 0.74694 0.0
C1784 C 0.12961 0.28718 0.74744 0.0
C1785 C 0.11341 0.29016 0.75424 0.0
C1786 C 0.11057 0.30588 0.76148 0.0
C1787 C 0.13386 0.26876 0.74315 0.0
C1788 C 0.12205 0.2599 0.7343 0.0
C1789 C 0.14729 0.25891 0.74994 0.0
C1790 C 0.15998 0.26737 0.75958 0.0
C1791 C 0.1541 0.27418 0.77228 0.0
C1792 C 0.16614 0.28235 0.78125 0.0
C1793 C 0.18411 0.28361 0.77768 0.0
C1794 C 0.19007 0.27664 0.76514 0.0
C1795 C 0.17807 0.26849 0.75612 0.0
H1796 H 0.19342 0.28994 0.78463 0.0
H1797 H 0.07346 0.20807 0.70174 0.0
H1798 H 0.37328 0.67313 0.24705 0.0
H1799 H 0.366 0.70163 0.23576 0.0
H1800 H 0.35249 0.72404 0.27536 0.0
H1801 H 0.35984 0.69607 0.28651 0.0
H1802 H 0.33011 0.73614 0.25449 0.0
H1803 H 0.39533 0.72688 0.26345 0.0
H1804 H 0.42319 0.71054 0.25882 0.0
H1805 H 0.4169 0.71985 0.2154 0.0
H1806 H 0.38891 0.73613 0.21982 0.0
H1807 H 0.3671 0.8058 0.28704 0.0
H1808 H 0.35843 0.77825 0.27576 0.0
H1809 H 0.36752 0.8021 0.23594 0.0
H1810 H 0.37588 0.83028 0.24733 0.0
H1811 H 0.38595 0.76758 0.24232 0.0
H1812 H 0.32828 0.79079 0.23872 0.0
H1813 H 0.30178 0.80789 0.24566 0.0
H1814 H 0.29371 0.77279 0.28 0.0
H1815 H 0.32031 0.75563 0.27343 0.0
C1816 C 0.36837 0.68408 0.25322 0.0
C1817 C 0.36738 0.68258 0.26765 0.0
C1818 C 0.3642 0.70029 0.24678 0.0
C1819 C 0.35873 0.71495 0.25473 0.0
C1820 C 0.35656 0.7129 0.269 0.0
C1821 C 0.36095 0.69696 0.27539 0.0
C1822 C 0.3577 0.73321 0.24905 0.0
C1823 C 0.34215 0.74307 0.25146 0.0
C1824 C 0.37322 0.74213 0.24457 0.0
C1825 C 0.39003 0.73252 0.24194 0.0
C1826 C 0.39989 0.72537 0.25293 0.0
C1827 C 0.41568 0.71613 0.25034 0.0
C1828 C 0.42178 0.71412 0.23682 0.0
C1829 C 0.41213 0.72139 0.22586 0.0
C1830 C 0.39631 0.73061 0.2284 0.0
C1831 C 0.3671 0.80529 0.27588 0.0
C1832 C 0.37229 0.8201 0.26805 0.0
C1833 C 0.362 0.78959 0.26944 0.0
C1834 C 0.36218 0.78822 0.25503 0.0
C1835 C 0.36715 0.80301 0.24707 0.0
C1836 C 0.37191 0.81902 0.25357 0.0
C1837 C 0.35875 0.77057 0.24888 0.0
C1838 C 0.37349 0.76077 0.24433 0.0
C1839 C 0.34249 0.76174 0.25149 0.0
C1840 C 0.3263 0.77185 0.25551 0.0
C1841 C 0.3209 0.78674 0.24778 0.0
C1842 C 0.30585 0.79645 0.25166 0.0
C1843 C 0.29605 0.79141 0.26325 0.0
C1844 C 0.30128 0.77664 0.27099 0.0
C1845 C 0.31633 0.76688 0.26717 0.0
H1846 H 0.28441 0.79895 0.26624 0.0
H1847 H 0.43401 0.70696 0.23483 0.0
H1848 H 0.42874 0.09675 0.50789 0.0
H1849 H 0.45652 0.08914 0.49577 0.0
H1850 H 0.47609 0.14232 0.50292 0.0
H1851 H 0.44876 0.14978 0.51507 0.0
H1852 H 0.48745 0.12839 0.47752 0.0
H1853 H 0.48315 0.11109 0.52698 0.0
H1854 H 0.46927 0.09375 0.54572 0.0
H1855 H 0.47869 0.0454 0.52329 0.0
H1856 H 0.49247 0.06254 0.50435 0.0
H1857 H 0.56348 0.14929 0.51162 0.0
H1858 H 0.53567 0.14215 0.5 0.0
H1859 H 0.55365 0.08824 0.4937 0.0
H1860 H 0.58191 0.09556 0.50516 0.0
H1861 H 0.52304 0.09034 0.50888 0.0
H1862 H 0.5408 0.11039 0.46555 0.0
H1863 H 0.55558 0.12919 0.44818 0.0
H1864 H 0.52178 0.17304 0.45903 0.0
H1865 H 0.50696 0.15463 0.47662 0.0
C1866 C 0.43881 0.1069 0.50648 0.0
C1867 C 0.43682 0.12376 0.51254 0.0
C1868 C 0.45461 0.10256 0.49956 0.0
C1869 C 0.46838 0.11516 0.49851 0.0
C1870 C 0.46563 0.13243 0.50354 0.0
C1871 C 0.45008 0.13664 0.51059 0.0
C1872 C 0.4867 0.11006 0.49453 0.0
C1873 C 0.49529 0.11983 0.48415 0.0
C1874 C 0.49676 0.09835 0.50285 0.0
C1875 C 0.4886 0.08807 0.51422 0.0
C1876 C 0.48216 0.09677 0.52603 0.0
C1877 C 0.47433 0.08699 0.53668 0.0
C1878 C 0.47305 0.06849 0.53567 0.0
C1879 C 0.47965 0.05973 0.52403 0.0
C1880 C 0.48745 0.06947 0.51334 0.0
C1881 C 0.56177 0.13611 0.5073 0.0
C1882 C 0.57472 0.12295 0.50931 0.0
C1883 C 0.54592 0.13204 0.50056 0.0
C1884 C 0.5426 0.11467 0.4959 0.0
C1885 C 0.55603 0.10176 0.4971 0.0
C1886 C 0.57213 0.10596 0.50361 0.0
C1887 C 0.52403 0.10969 0.4925 0.0
C1888 C 0.51531 0.09807 0.50157 0.0
C1889 C 0.51393 0.11978 0.483 0.0
C1890 C 0.52271 0.13106 0.47242 0.0
C1891 C 0.53656 0.12407 0.46429 0.0
C1892 C 0.54495 0.13467 0.4544 0.0
C1893 C 0.53961 0.15229 0.45249 0.0
C1894 C 0.52587 0.15936 0.46049 0.0
C1895 C 0.51743 0.14883 0.47041 0.0
H1896 H 0.54613 0.16047 0.44483 0.0
H1897 H 0.46698 0.06093 0.54393 0.0
H1898 H 0.92662 0.90186 0.00579 0.0
H1899 H 0.95625 0.9077 0.99582 0.0
H1900 H 0.97494 0.85754 0.01178 0.0
H1901 H 0.94582 0.8517 0.02169 0.0
H1902 H 0.99308 0.88914 0.02141 0.0
H1903 H 0.9706 0.86031 0.97961 0.0
H1904 H 0.95067 0.85837 0.95947 0.0
H1905 H 0.96919 0.90919 0.94524 0.0
H1906 H 0.98906 0.91153 0.96542 0.0
H1907 H 0.06733 0.84938 0.00274 0.0
H1908 H 0.03788 0.85656 0.99385 0.0
H1909 H 0.05123 0.9123 0.994 0.0
H1910 H 0.08099 0.90514 0.00267 0.0
H1911 H 0.01686 0.88748 0.97367 0.0
H1912 H 0.03598 0.91742 0.01929 0.0
H1913 H 0.05712 0.91623 0.03878 0.0
H1914 H 0.04495 0.86098 0.04492 0.0
H1915 H 0.02384 0.86188 0.02541 0.0
C1916 C 0.93698 0.89194 0.00685 0.0
C1917 C 0.93407 0.87648 0.01472 0.0
C1918 C 0.95384 0.89529 0.00117 0.0
C1919 C 0.96774 0.88311 0.00322 0.0
C1920 C 0.96438 0.86715 0.0102 0.0
C1921 C 0.94775 0.86387 0.01589 0.0
C1922 C 0.98639 0.88747 -0.00016 0.0
C1923 C 0.99817 0.88928 0.01094 0.0
C1924 C 0.99304 0.8877 0.98619 0.0
C1925 C 0.98111 0.88621 0.97411 0.0
C1926 C 0.97027 0.87116 0.97227 0.0
C1927 C 0.95903 0.86996 0.96083 0.0
C1928 C 0.95861 0.88368 0.95111 0.0
C1929 C 0.96949 0.8986 0.95279 0.0
C1930 C 0.98075 0.89986 0.96422 0.0
C1931 C 0.06435 0.86307 0.00012 0.0
C1932 C 0.07623 0.87674 0.00359 0.0
C1933 C 0.04757 0.86716 0.9949 0.0
C1934 C 0.04237 0.88496 0.9934 0.0
C1935 C 0.05509 0.89848 0.99497 0.0
C1936 C 0.07206 0.89436 0.0 0.0
C1937 C 0.02332 0.88901 0.99527 0.0
C1938 C 0.01156 0.88845 0.98404 0.0
C1939 C 0.01649 0.89003 0.00881 0.0
C1940 C 0.02838 0.88974 0.02097 0.0
C1941 C 0.03777 0.90507 0.02487 0.0
C1942 C 0.04977 0.90443 0.03588 0.0
C1943 C 0.05237 0.88854 0.04309 0.0
C1944 C 0.04291 0.87328 0.03935 0.0
C1945 C 0.03091 0.87386 0.02834 0.0
H1946 H 0.06173 0.88805 0.05156 0.0
H1947 H 0.9499 0.88273 0.94225 0.0
H1948 H 0.42122 0.90342 0.49679 0.0
H1949 H 0.44862 0.90985 0.5097 0.0
H1950 H 0.46871 0.85773 0.49944 0.0
H1951 H 0.44165 0.85132 0.48666 0.0
H1952 H 0.47965 0.86873 0.52557 0.0
H1953 H 0.47629 0.89327 0.47721 0.0
H1954 H 0.46189 0.91348 0.46052 0.0
H1955 H 0.46922 0.95733 0.48834 0.0
H1956 H 0.48358 0.93729 0.5052 0.0
H1957 H 0.55491 0.84922 0.49147 0.0
H1958 H 0.52753 0.85642 0.50345 0.0
H1959 H 0.54614 0.91009 0.51004 0.0
H1960 H 0.57389 0.9028 0.49783 0.0
H1961 H 0.51538 0.9102 0.49704 0.0
H1962 H 0.53349 0.88465 0.53841 0.0
H1963 H 0.54825 0.86368 0.55423 0.0
H1964 H 0.51346 0.82184 0.54081 0.0
H1965 H 0.49866 0.84243 0.52475 0.0
C1966 C 0.4313 0.89319 0.49765 0.0
C1967 C 0.42947 0.87698 0.49054 0.0
C1968 C 0.44692 0.89687 0.50502 0.0
C1969 C 0.46076 0.88431 0.50544 0.0
C1970 C 0.45821 0.8676 0.49931 0.0
C1971 C 0.44279 0.86401 0.49188 0.0
C1972 C 0.47898 0.88905 0.50998 0.0
C1973 C 0.48754 0.87801 0.51958 0.0
C1974 C 0.48909 0.90179 0.50266 0.0
C1975 C 0.48086 0.91383 0.49245 0.0
C1976 C 0.47481 0.90723 0.47973 0.0
C1977 C 0.46665 0.91863 0.47027 0.0
C1978 C 0.46462 0.93667 0.47338 0.0
C1979 C 0.4708 0.94335 0.48595 0.0
C1980 C 0.47895 0.93199 0.49546 0.0
C1981 C 0.55343 0.8624 0.49584 0.0
C1982 C 0.56641 0.87549 0.49363 0.0
C1983 C 0.53781 0.86649 0.50285 0.0
C1984 C 0.53476 0.88378 0.50779 0.0
C1985 C 0.54826 0.89662 0.50642 0.0
C1986 C 0.5641 0.89244 0.49949 0.0
C1987 C 0.51635 0.88875 0.5118 0.0
C1988 C 0.50767 0.90164 0.50377 0.0
C1989 C 0.50618 0.87776 0.52066 0.0
C1990 C 0.51489 0.86519 0.53039 0.0
C1991 C 0.52901 0.87097 0.53879 0.0
C1992 C 0.53739 0.85913 0.5478 0.0
C1993 C 0.53177 0.84144 0.54854 0.0
C1994 C 0.51775 0.83556 0.54026 0.0
C1995 C 0.50932 0.84734 0.53123 0.0
H1996 H 0.53829 0.83229 0.55552 0.0
H1997 H 0.45828 0.94548 0.46605 0.0
H1998 H 0.08051 0.09346 0.98476 0.0
H1999 H 0.05019 0.08588 0.99204 0.0
H2000 H 0.0386 0.14152 0.99785 0.0
H2001 H 0.06862 0.14913 0.99018 0.0
H2002 H 0.01759 0.10704 0.01539 0.0
H2003 H 0.02559 0.14166 0.96876 0.0
H2004 H 0.04593 0.14597 0.94902 0.0
H2005 H 0.05182 0.08937 0.94503 0.0
H2006 H 0.03156 0.08482 0.9648 0.0
H2007 H 0.93208 0.13785 0.99418 0.0
H2008 H 0.96232 0.13094 0.00206 0.0
H2009 H 0.96593 0.08929 0.97152 0.0
H2010 H 0.93605 0.09675 0.96336 0.0
H2011 H 0.99185 0.11069 0.96833 0.0
H2012 H 0.96799 0.0807 0.0071 0.0
H2013 H 0.94902 0.07598 0.02749 0.0
H2014 H 0.97405 0.12003 0.04791 0.0
H2015 H 0.99301 0.12521 0.02755 0.0
C2016 C 0.07179 0.10395 0.98837 0.0
C2017 C 0.07674 0.12186 0.98692 0.0
C2018 C 0.05452 0.09961 0.99257 0.0
C2019 C 0.04223 0.11316 0.99552 0.0
C2020 C 0.04799 0.1309 0.99583 0.0
C2021 C 0.06509 0.13524 0.99137 0.0
C2022 C 0.02302 0.10978 0.99374 0.0
C2023 C 0.01181 0.10766 0.00516 0.0
C2024 C 0.01569 0.11031 0.98037 0.0
C2025 C 0.02706 0.11292 0.96811 0.0
C2026 C 0.03113 0.13017 0.96356 0.0
C2027 C 0.04268 0.13265 0.95243 0.0
C2028 C 0.05014 0.11795 0.94576 0.0
C2029 C 0.04601 0.10074 0.95019 0.0
C2030 C 0.03449 0.0982 0.96134 0.0
C2031 C 0.93921 0.1269 0.98949 0.0
C2032 C 0.93193 0.11778 0.97822 0.0
C2033 C 0.95644 0.12287 0.99401 0.0
C2034 C 0.96645 0.10953 0.98741 0.0
C2035 C 0.95853 0.09964 0.97676 0.0
C2036 C 0.94148 0.10385 0.97212 0.0
C2037 C 0.98586 0.10783 0.99002 0.0
C2038 C 0.9973 0.10939 0.97864 0.0
C2039 C 0.99322 0.10644 0.00345 0.0
C2040 C 0.98185 0.10343 0.01574 0.0
C2041 C 0.96936 0.08949 0.01589 0.0
C2042 C 0.95862 0.08671 0.02745 0.0
C2043 C 0.9603 0.09772 0.03898 0.0
C2044 C 0.97276 0.11152 0.03897 0.0
C2045 C 0.98352 0.11437 0.02742 0.0
H2046 H 0.95198 0.09554 0.04792 0.0
H2047 H 0.05913 0.11989 0.93718 0.0
H2048 H 0.1007 0.43773 0.98409 0.0
H2049 H 0.10454 0.4692 0.98936 0.0
H2050 H 0.16051 0.46044 0.99659 0.0
H2051 H 0.15638 0.42845 0.99199 0.0
H2052 H 0.14951 0.48515 0.01346 0.0
H2053 H 0.14438 0.4776 0.96517 0.0
H2054 H 0.13176 0.46679 0.94326 0.0
H2055 H 0.08352 0.49563 0.95113 0.0
H2056 H 0.09575 0.50642 0.97319 0.0
H2057 H 0.15942 0.5815 0.00541 0.0
H2058 H 0.16256 0.54984 -0.0009 0.0
H2059 H 0.1062 0.54237 0.00489 0.0
H2060 H 0.10314 0.57358 0.01161 0.0
H2061 H 0.12273 0.52653 0.9794 0.0
H2062 H 0.12884 0.5307 0.0296 0.0
H2063 H 0.14341 0.54188 0.05066 0.0
H2064 H 0.19321 0.51993 0.03723 0.0
H2065 H 0.17896 0.50885 0.01596 0.0
C2066 C 0.11376 0.44246 0.98707 0.0
C2067 C 0.12825 0.4307 0.9876 0.0
C2068 C 0.11601 0.46051 0.98994 0.0
C2069 C 0.13295 0.46743 0.99289 0.0
C2070 C 0.14733 0.45552 0.99418 0.0
C2071 C 0.14497 0.43724 0.99162 0.0
C2072 C 0.13545 0.48712 0.99414 0.0
C2073 C 0.14394 0.49414 0.00585 0.0
C2074 C 0.12835 0.49906 0.98421 0.0
C2075 C 0.12096 0.49273 0.97088 0.0
C2076 C 0.13104 0.48156 0.96226 0.0
C2077 C 0.12396 0.47545 0.94981 0.0
C2078 C 0.10684 0.4805 0.94581 0.0
C2079 C 0.09678 0.49173 0.95424 0.0
C2080 C 0.10379 0.49787 0.96672 0.0
C2081 C 0.1477 0.57313 0.00507 0.0
C2082 C 0.13102 0.57996 0.00893 0.0
C2083 C 0.14952 0.55506 0.00157 0.0
C2084 C 0.13461 0.54375 0.0016 0.0
C2085 C 0.11786 0.55084 0.00481 0.0
C2086 C 0.11613 0.56867 0.00862 0.0
C2087 C 0.13625 0.52436 0.99884 0.0
C2088 C 0.12855 0.51745 0.98684 0.0
C2089 C 0.1444 0.5126 0.00832 0.0
C2090 C 0.1529 0.51917 0.02112 0.0
C2091 C 0.14293 0.52842 0.03107 0.0
C2092 C 0.15112 0.5347 0.04306 0.0
C2093 C 0.16924 0.53168 0.04526 0.0
C2094 C 0.17919 0.5223 0.03549 0.0
C2095 C 0.17107 0.51602 0.02348 0.0
H2096 H 0.17556 0.53654 0.05455 0.0
H2097 H 0.10137 0.47575 0.93617 0.0
H2098 H 0.81381 0.88408 0.21066 0.0
H2099 H 0.78352 0.8882 0.21893 0.0
H2100 H 0.80313 0.89501 0.26037 0.0
H2101 H 0.83384 0.8909 0.25205 0.0
H2102 H 0.77586 0.87009 0.25834 0.0
H2103 H 0.78579 0.93005 0.24342 0.0
H2104 H 0.79489 0.95352 0.22713 0.0
H2105 H 0.7549 0.93634 0.19847 0.0
H2106 H 0.74571 0.9126 0.21451 0.0
H2107 H 0.69186 0.88557 0.28619 0.0
H2108 H 0.72252 0.89036 0.27899 0.0
H2109 H 0.70595 0.89051 0.2364 0.0
H2110 H 0.6748 0.88657 0.24372 0.0
H2111 H 0.73224 0.9134 0.23968 0.0
H2112 H 0.72379 0.85257 0.25247 0.0
H2113 H 0.71466 0.82766 0.26743 0.0
H2114 H 0.75191 0.84453 0.29833 0.0
H2115 H 0.76109 0.86969 0.28363 0.0
C2116 C 0.81177 0.88668 0.22153 0.0
C2117 C 0.82625 0.88712 0.23072 0.0
C2118 C 0.79439 0.88914 0.22623 0.0
C2119 C 0.791 0.89205 0.24025 0.0
C2120 C 0.80544 0.89286 0.24948 0.0
C2121 C 0.82297 0.89059 0.24473 0.0
C2122 C 0.77226 0.89289 0.24524 0.0
C2123 C 0.76642 0.87982 0.2545 0.0
C2124 C 0.75973 0.9051 0.23977 0.0
C2125 C 0.76515 0.91945 0.23014 0.0
C2126 C 0.77902 0.93119 0.23361 0.0
C2127 C 0.78418 0.94456 0.22442 0.0
C2128 C 0.7755 0.9464 0.21176 0.0
C2129 C 0.76161 0.9349 0.20828 0.0
C2130 C 0.75641 0.9215 0.21742 0.0
C2131 C 0.6947 0.88686 0.27528 0.0
C2132 C 0.68098 0.88552 0.2655 0.0
C2133 C 0.71228 0.88949 0.27117 0.0
C2134 C 0.71673 0.89024 0.25712 0.0
C2135 C 0.70292 0.88982 0.2473 0.0
C2136 C 0.68513 0.88758 0.25147 0.0
C2137 C 0.73584 0.89062 0.25284 0.0
C2138 C 0.74172 0.90381 0.24365 0.0
C2139 C 0.7484 0.87831 0.25817 0.0
C2140 C 0.743 0.86311 0.267 0.0
C2141 C 0.72995 0.85103 0.26249 0.0
C2142 C 0.72477 0.83686 0.27092 0.0
C2143 C 0.73267 0.83454 0.28384 0.0
C2144 C 0.74579 0.84636 0.28833 0.0
C2145 C 0.75099 0.86057 0.27995 0.0
H2146 H 0.72864 0.82356 0.29035 0.0
H2147 H 0.77952 0.95675 0.20467 0.0
H2148 H 0.34785 0.42645 0.50374 0.0
H2149 H 0.34449 0.45775 0.49676 0.0
H2150 H 0.39104 0.47146 0.52055 0.0
H2151 H 0.39397 0.4407 0.52786 0.0
H2152 H 0.36765 0.49516 0.52515 0.0
H2153 H 0.39056 0.46714 0.48391 0.0
H2154 H 0.39043 0.4457 0.46466 0.0
H2155 H 0.34013 0.46614 0.45091 0.0
H2156 H 0.33988 0.48758 0.47019 0.0
H2157 H 0.39334 0.56697 0.4712 0.0
H2158 H 0.39006 0.53642 0.47897 0.0
H2159 H 0.34751 0.55233 0.50616 0.0
H2160 H 0.35111 0.58337 0.49858 0.0
H2161 H 0.36436 0.51402 0.47626 0.0
H2162 H 0.34613 0.52296 0.53354 0.0
H2163 H 0.35082 0.54429 0.55255 0.0
H2164 H 0.39948 0.56186 0.53378 0.0
H2165 H 0.39518 0.5405 0.51477 0.0
C2166 C 0.35738 0.43618 0.50737 0.0
C2167 C 0.37114 0.43113 0.51636 0.0
C2168 C 0.35547 0.45406 0.50339 0.0
C2169 C 0.36752 0.46708 0.50812 0.0
C2170 C 0.38142 0.46184 0.51688 0.0
C2171 C 0.38314 0.44416 0.52099 0.0
C2172 C 0.366 0.48618 0.50407 0.0
C2173 C 0.3668 0.49925 0.51445 0.0
C2174 C 0.36499 0.49168 0.49013 0.0
C2175 C 0.3651 0.47879 0.47857 0.0
C2176 C 0.37941 0.46696 0.47684 0.0
C2177 C 0.37942 0.45483 0.46591 0.0
C2178 C 0.36525 0.45452 0.45659 0.0
C2179 C 0.35107 0.46637 0.45815 0.0
C2180 C 0.35099 0.47851 0.46907 0.0
C2181 C 0.38334 0.56405 0.47892 0.0
C2182 C 0.37247 0.57761 0.48428 0.0
C2183 C 0.38141 0.5465 0.4833 0.0
C2184 C 0.36848 0.54194 0.4931 0.0
C2185 C 0.35769 0.5555 0.49866 0.0
C2186 C 0.35977 0.57323 0.49436 0.0
C2187 C 0.36656 0.52295 0.49732 0.0
C2188 C 0.36495 0.50993 0.48698 0.0
C2189 C 0.36743 0.51748 0.51126 0.0
C2190 C 0.37019 0.53031 0.52265 0.0
C2191 C 0.35783 0.53137 0.53349 0.0
C2192 C 0.36043 0.54346 0.54426 0.0
C2193 C 0.3754 0.55448 0.54434 0.0
C2194 C 0.38785 0.55338 0.53368 0.0
C2195 C 0.38532 0.5413 0.52289 0.0
H2196 H 0.37738 0.56383 0.55268 0.0
H2197 H 0.36528 0.44512 0.44814 0.0
H2198 H 0.83385 0.11947 0.74424 0.0
H2199 H 0.80284 0.11654 0.73623 0.0
H2200 H 0.7841 0.12696 0.77745 0.0
H2201 H 0.81467 0.13019 0.78538 0.0
H2202 H 0.76632 0.09823 0.76435 0.0
H2203 H 0.78331 0.15944 0.75587 0.0
H2204 H 0.80219 0.18294 0.74583 0.0
H2205 H 0.79096 0.16343 0.70515 0.0
H2206 H 0.77221 0.13964 0.71497 0.0
H2207 H 0.67453 0.11949 0.75326 0.0
H2208 H 0.70583 0.11846 0.76056 0.0
H2209 H 0.72241 0.12155 0.71802 0.0
H2210 H 0.69149 0.12344 0.71085 0.0
H2211 H 0.74204 0.14233 0.73133 0.0
H2212 H 0.72438 0.08182 0.73885 0.0
H2213 H 0.70618 0.05737 0.74825 0.0
H2214 H 0.71916 0.07369 0.78946 0.0
H2215 H 0.73726 0.09838 0.7803 0.0
C2216 C 0.82309 0.12103 0.75156 0.0
C2217 C 0.82671 0.12519 0.7654 0.0
C2218 C 0.80541 0.11938 0.74699 0.0
C2219 C 0.79115 0.12156 0.75626 0.0
C2220 C 0.79484 0.12517 0.77013 0.0
C2221 C 0.81237 0.12713 0.77462 0.0
C2222 C 0.7723 0.12086 0.75159 0.0
C2223 C 0.76094 0.10789 0.75717 0.0
C2224 C 0.76538 0.13328 0.74206 0.0
C2225 C 0.77653 0.14765 0.73616 0.0
C2226 C 0.78499 0.16007 0.74479 0.0
C2227 C 0.79565 0.17346 0.73914 0.0
C2228 C 0.79782 0.17464 0.72486 0.0
C2229 C 0.7893 0.16247 0.71621 0.0
C2230 C 0.77865 0.14904 0.72181 0.0
C2231 C 0.6849 0.11986 0.74551 0.0
C2232 C 0.68054 0.12163 0.7315 0.0
C2233 C 0.70281 0.11918 0.74967 0.0
C2234 C 0.71665 0.11977 0.73985 0.0
C2235 C 0.71214 0.12119 0.72585 0.0
C2236 C 0.69438 0.12222 0.72175 0.0
C2237 C 0.73584 0.11953 0.74398 0.0
C2238 C 0.74732 0.13245 0.73838 0.0
C2239 C 0.7429 0.10689 0.75335 0.0
C2240 C 0.73203 0.09206 0.75889 0.0
C2241 C 0.72324 0.08027 0.74992 0.0
C2242 C 0.71296 0.06636 0.7552 0.0
C2243 C 0.71147 0.06401 0.76944 0.0
C2244 C 0.7203 0.07554 0.77843 0.0
C2245 C 0.73059 0.08949 0.7732 0.0
H2246 H 0.70351 0.05323 0.77351 0.0
H2247 H 0.80607 0.18502 0.72051 0.0
H2248 H 0.84963 0.58165 0.00186 0.0
H2249 H 0.84613 0.55034 0.99474 0.0
H2250 H 0.89794 0.5383 0.0114 0.0
H2251 H 0.90142 0.56916 0.01851 0.0
H2252 H 0.89274 0.52227 0.98648 0.0
H2253 H 0.86095 0.52956 0.0297 0.0
H2254 H 0.83806 0.5428 0.04474 0.0
H2255 H 0.79715 0.52521 0.01701 0.0
H2256 H 0.81986 0.51207 0.0017 0.0
H2257 H 0.89807 0.43096 0.99494 0.0
H2258 H 0.89601 0.4626 0.0006 0.0
H2259 H 0.84135 0.46311 0.987 0.0
H2260 H 0.84323 0.43107 0.98202 0.0
H2261 H 0.84506 0.48572 0.00767 0.0
H2262 H 0.87623 0.47638 0.96529 0.0
H2263 H 0.89887 0.46274 0.95022 0.0
H2264 H 0.94041 0.48429 0.97561 0.0
H2265 H 0.918 0.49794 0.9909 0.0
C2266 C 0.86035 0.57234 0.00377 0.0
C2267 C 0.87577 0.57785 0.01078 0.0
C2268 C 0.85829 0.55445 -0.0002 0.0
C2269 C 0.87172 0.5419 0.00266 0.0
C2270 C 0.88739 0.54766 0.00909 0.0
C2271 C 0.88934 0.56535 0.01318 0.0
C2272 C 0.86955 0.52261 -0.00052 0.0
C2273 C 0.88234 0.51429 0.99114 0.0
C2274 C 0.85573 0.51219 0.00527 0.0
C2275 C 0.8421 0.52004 0.01448 0.0
C2276 C 0.84709 0.52865 0.02675 0.0
C2277 C 0.83415 0.53611 0.03534 0.0
C2278 C 0.81616 0.53489 0.03181 0.0
C2279 C 0.81109 0.52617 0.01971 0.0
C2280 C 0.82399 0.51871 0.01108 0.0
C2281 C 0.88546 0.43773 0.99361 0.0
C2282 C 0.87074 0.42862 0.98823 0.0
C2283 C 0.88434 0.45587 0.99665 0.0
C2284 C 0.86868 0.46546 0.99383 0.0
C2285 C 0.85361 0.4561 0.98919 0.0
C2286 C 0.85464 0.43778 0.98642 0.0
C2287 C 0.86853 0.4853 0.99493 0.0
C2288 C 0.85531 0.49372 0.00284 0.0
C2289 C 0.8819 0.49588 0.98865 0.0
C2290 C 0.89543 0.48811 0.97927 0.0
C2291 C 0.89019 0.47818 0.96767 0.0
C2292 C 0.90298 0.47045 0.95909 0.0
C2293 C 0.92107 0.47264 0.96196 0.0
C2294 C 0.9264 0.48263 0.97339 0.0
C2295 C 0.91366 0.4904 0.982 0.0
H2296 H 0.93094 0.46662 0.95532 0.0
H2297 H 0.80616 0.54067 0.03847 0.0
H2298 H 0.1747 0.11603 0.74309 0.0
H2299 H 0.2061 0.11361 0.73621 0.0
H2300 H 0.22213 0.1233 0.77828 0.0
H2301 H 0.19114 0.12656 0.78494 0.0
H2302 H 0.24188 0.14189 0.76324 0.0
H2303 H 0.22415 0.08059 0.76131 0.0
H2304 H 0.206 0.05494 0.75401 0.0
H2305 H 0.21987 0.06476 0.71175 0.0
H2306 H 0.23794 0.09061 0.71878 0.0
H2307 H 0.33364 0.11813 0.7546 0.0
H2308 H 0.30239 0.11573 0.76203 0.0
H2309 H 0.28534 0.11863 0.71965 0.0
H2310 H 0.31622 0.12126 0.71224 0.0
H2311 H 0.26672 0.09276 0.73509 0.0
H2312 H 0.28389 0.15474 0.73781 0.0
H2313 H 0.30268 0.17961 0.74574 0.0
H2314 H 0.29017 0.16708 0.78783 0.0
H2315 H 0.27152 0.14194 0.78014 0.0
C2316 C 0.18498 0.11753 0.75083 0.0
C2317 C 0.18045 0.12158 0.76452 0.0
C2318 C 0.20293 0.11606 0.74693 0.0
C2319 C 0.21664 0.11814 0.75673 0.0
C2320 C 0.21196 0.12177 0.77045 0.0
C2321 C 0.19416 0.12359 0.77427 0.0
C2322 C 0.23588 0.11723 0.75282 0.0
C2323 C 0.24727 0.13094 0.75727 0.0
C2324 C 0.24308 0.10319 0.74482 0.0
C2325 C 0.23225 0.08764 0.74056 0.0
C2326 C 0.22323 0.07736 0.75045 0.0
C2327 C 0.21297 0.06277 0.74636 0.0
C2328 C 0.21174 0.05825 0.73242 0.0
C2329 C 0.22081 0.06829 0.72254 0.0
C2330 C 0.23107 0.0829 0.72658 0.0
C2331 C 0.32321 0.11805 0.7469 0.0
C2332 C 0.32738 0.12001 0.73286 0.0
C2333 C 0.30539 0.11672 0.75114 0.0
C2334 C 0.29152 0.11707 0.74138 0.0
C2335 C 0.29578 0.11829 0.72735 0.0
C2336 C 0.31346 0.1199 0.72315 0.0
C2337 C 0.27251 0.11724 0.74567 0.0
C2338 C 0.26122 0.10352 0.74119 0.0
C2339 C 0.26541 0.13114 0.75379 0.0
C2340 C 0.27648 0.14635 0.75841 0.0
C2341 C 0.28526 0.1572 0.74876 0.0
C2342 C 0.29587 0.17136 0.75321 0.0
C2343 C 0.29766 0.17489 0.76728 0.0
C2344 C 0.2888 0.1643 0.77693 0.0
C2345 C 0.2782 0.15011 0.77254 0.0
H2346 H 0.30587 0.18586 0.77071 0.0
H2347 H 0.20379 0.04696 0.72928 0.0
H2348 H 0.63923 0.41959 0.49629 0.0
H2349 H 0.64232 0.45061 0.48843 0.0
H2350 H 0.63538 0.4689 0.53025 0.0
H2351 H 0.63203 0.43837 0.538 0.0
H2352 H 0.61442 0.48693 0.51403 0.0
H2353 H 0.67616 0.47035 0.51341 0.0
H2354 H 0.70225 0.45238 0.50682 0.0
H2355 H 0.69303 0.4645 0.46415 0.0
H2356 H 0.66673 0.48236 0.47048 0.0
H2357 H 0.63701 0.57857 0.50498 0.0
H2358 H 0.63958 0.54739 0.51252 0.0
H2359 H 0.63834 0.53014 0.47014 0.0
H2360 H 0.63549 0.56098 0.46261 0.0
H2361 H 0.6639 0.5118 0.48624 0.0
H2362 H 0.60202 0.52789 0.48701 0.0
H2363 H 0.57634 0.5464 0.49361 0.0
H2364 H 0.58614 0.5351 0.53634 0.0
H2365 H 0.61215 0.51681 0.52998 0.0
C2366 C 0.63863 0.43025 0.50378 0.0
C2367 C 0.63527 0.42651 0.51774 0.0
C2368 C 0.6404 0.44798 0.49931 0.0
C2369 C 0.63903 0.46217 0.50875 0.0
C2370 C 0.63632 0.45828 0.52272 0.0
C2371 C 0.63445 0.44074 0.52715 0.0
C2372 C 0.63952 0.48115 0.50422 0.0
C2373 C 0.6254 0.49236 0.50812 0.0
C2374 C 0.65359 0.48829 0.49624 0.0
C2375 C 0.66936 0.47752 0.49241 0.0
C2376 C 0.6796 0.46905 0.50261 0.0
C2377 C 0.69445 0.45891 0.49893 0.0
C2378 C 0.69926 0.45725 0.48507 0.0
C2379 C 0.68927 0.46577 0.47488 0.0
C2380 C 0.67439 0.47591 0.47851 0.0
C2381 C 0.63748 0.56812 0.4973 0.0
C2382 C 0.63591 0.57221 0.48322 0.0
C2383 C 0.63892 0.55033 0.5016 0.0
C2384 C 0.63909 0.53643 0.49188 0.0
C2385 C 0.63828 0.54061 0.47782 0.0
C2386 C 0.63654 0.55827 0.47355 0.0
C2387 C 0.63899 0.51747 0.49626 0.0
C2388 C 0.65304 0.50629 0.49225 0.0
C2389 C 0.62489 0.51033 0.50418 0.0
C2390 C 0.60916 0.52117 0.50803 0.0
C2391 C 0.5988 0.52949 0.49782 0.0
C2392 C 0.58417 0.53992 0.50152 0.0
C2393 C 0.57963 0.54196 0.51539 0.0
C2394 C 0.58969 0.53353 0.5256 0.0
C2395 C 0.60439 0.52314 0.52195 0.0
H2396 H 0.56829 0.55004 0.51824 0.0
H2397 H 0.71077 0.44941 0.48224 0.0
H2398 H 0.19315 0.88643 0.21154 0.0
H2399 H 0.22379 0.88864 0.21944 0.0
H2400 H 0.2058 0.88929 0.26166 0.0
H2401 H 0.17471 0.88751 0.25369 0.0
H2402 H 0.23387 0.91104 0.25857 0.0
H2403 H 0.22125 0.85121 0.24717 0.0
H2404 H 0.21041 0.82607 0.23321 0.0
H2405 H 0.2495 0.8375 0.20218 0.0
H2406 H 0.2603 0.86302 0.2158 0.0
H2407 H 0.31585 0.8793 0.28642 0.0
H2408 H 0.28511 0.88258 0.27889 0.0
H2409 H 0.30288 0.89131 0.23718 0.0
H2410 H 0.33405 0.88822 0.24475 0.0
H2411 H 0.275 0.86497 0.24047 0.0
H2412 H 0.28756 0.92545 0.25426 0.0
H2413 H 0.29802 0.94853 0.2704 0.0
H2414 H 0.25856 0.93251 0.29989 0.0
H2415 H 0.24802 0.90916 0.284 0.0
C2416 C 0.19564 0.88727 0.22253 0.0
C2417 C 0.1815 0.88664 0.23201 0.0
C2418 C 0.21322 0.88844 0.22703 0.0
C2419 C 0.21721 0.88866 0.24116 0.0
C2420 C 0.20308 0.889 0.2507 0.0
C2421 C 0.18533 0.88803 0.24615 0.0
C2422 C 0.23616 0.88777 0.24576 0.0
C2423 C 0.24279 0.90085 0.25473 0.0
C2424 C 0.24793 0.87451 0.24072 0.0
C2425 C 0.24148 0.85916 0.23246 0.0
C2426 C 0.22744 0.84848 0.23731 0.0
C2427 C 0.22131 0.83414 0.22947 0.0
C2428 C 0.22926 0.83018 0.21682 0.0
C2429 C 0.24334 0.84058 0.21198 0.0
C2430 C 0.24947 0.85501 0.21975 0.0
C2431 C 0.31331 0.88204 0.27564 0.0
C2432 C 0.32743 0.88348 0.26617 0.0
C2433 C 0.29567 0.88398 0.27137 0.0
C2434 C 0.29166 0.88729 0.2575 0.0
C2435 C 0.3057 0.88881 0.24796 0.0
C2436 C 0.32348 0.88712 0.25229 0.0
C2437 C 0.27273 0.88843 0.25303 0.0
C2438 C 0.26609 0.87526 0.24418 0.0
C2439 C 0.26089 0.9013 0.25847 0.0
C2440 C 0.2671 0.91546 0.26797 0.0
C2441 C 0.2812 0.92676 0.26422 0.0
C2442 C 0.28713 0.93991 0.27332 0.0
C2443 C 0.27899 0.94196 0.28617 0.0
C2444 C 0.26486 0.9309 0.28993 0.0
C2445 C 0.25889 0.91772 0.28088 0.0
H2446 H 0.2836 0.95214 0.2932 0.0
H2447 H 0.22453 0.81903 0.21078 0.0
H2448 H 0.66106 0.0696 0.52303 0.0
H2449 H 0.66268 0.03802 0.51666 0.0
H2450 H 0.61626 0.04441 0.49096 0.0
H2451 H 0.61463 0.07591 0.49746 0.0
H2452 H 0.61199 0.0179 0.50907 0.0
H2453 H 0.65762 0.03586 0.47719 0.0
H2454 H 0.68576 0.05006 0.47016 0.0
H2455 H 0.71479 0.01566 0.4974 0.0
H2456 H 0.68678 1.0014 0.50473 0.0
H2457 H 0.60617 0.9386 0.47249 0.0
H2458 H 0.61151 0.96922 0.47926 0.0
H2459 H 0.65375 0.95223 0.50629 0.0
H2460 H 0.64845 0.92105 0.49944 0.0
H2461 H 0.66226 0.983 0.48992 0.0
H2462 H 0.61677 0.9638 0.5207 0.0
H2463 H 0.58865 0.94924 0.52729 0.0
H2464 H 0.55941 0.98608 0.50219 0.0
H2465 H 0.58739 1.0007 0.49525 0.0
C2466 C 0.65168 0.06435 0.51559 0.0
C2467 C 0.638 0.07518 0.51042 0.0
C2468 C 0.65253 0.04631 0.51202 0.0
C2469 C 0.63961 0.0388 0.5033 0.0
C2470 C 0.6264 0.04988 0.49768 0.0
C2471 C 0.62558 0.0679 0.50124 0.0
C2472 C 0.63872 0.01919 0.50112 0.0
C2473 C 0.62294 0.01034 0.50473 0.0
C2474 C 0.65324 0.00914 0.49601 0.0
C2475 C 0.67008 0.01771 0.49163 0.0
C2476 C 0.66999 0.03144 0.48178 0.0
C2477 C 0.68592 0.03947 0.47772 0.0
C2478 C 0.70205 0.03381 0.48336 0.0
C2479 C 0.70229 0.02006 0.49305 0.0
C2480 C 0.68639 0.01198 0.49716 0.0
C2481 C 0.61662 0.94124 0.4799 0.0
C2482 C 0.62685 0.92732 0.48547 0.0
C2483 C 0.61963 0.95883 0.48377 0.0
C2484 C 0.63292 0.96304 0.49336 0.0
C2485 C 0.64339 0.94925 0.49888 0.0
C2486 C 0.64029 0.93147 0.49503 0.0
C2487 C 0.6354 0.98192 0.49755 0.0
C2488 C 0.65142 0.9906 0.49438 0.0
C2489 C 0.62113 0.99188 0.50311 0.0
C2490 C 0.60421 0.98327 0.50738 0.0
C2491 C 0.60436 0.96873 0.5165 0.0
C2492 C 0.58844 0.96047 0.52031 0.0
C2493 C 0.57226 0.96671 0.51514 0.0
C2494 C 0.57196 0.98125 0.50618 0.0
C2495 C 0.58785 0.98955 0.50232 0.0
H2496 H 0.55995 0.96029 0.5181 0.0
H2497 H 0.71437 0.04004 0.4802 0.0
H2498 H 0.19198 0.36742 0.78451 0.0
H2499 H 0.22238 0.37194 0.77667 0.0
H2500 H 0.20298 0.39393 0.73849 0.0
H2501 H 0.1721 0.38959 0.74641 0.0
H2502 H 0.23078 0.36709 0.7359 0.0
H2503 H 0.21956 0.4216 0.76055 0.0
H2504 H 0.20969 0.43933 0.78052 0.0
H2505 H 0.24925 0.41433 0.8059 0.0
H2506 H 0.2592 0.39626 0.78612 0.0
H2507 H 0.31518 0.39168 0.71243 0.0
H2508 H 0.28414 0.39321 0.71956 0.0
H2509 H 0.29972 0.38337 0.7617 0.0
H2510 H 0.33115 0.38281 0.7546 0.0
H2511 H 0.27309 0.40525 0.76176 0.0
H2512 H 0.28359 0.34978 0.7394 0.0
H2513 H 0.29393 0.32999 0.7208 0.0
H2514 H 0.25609 0.35321 0.69297 0.0
H2515 H 0.2458 0.37348 0.71132 0.0
C2516 C 0.19407 0.37326 0.77443 0.0
C2517 C 0.17956 0.37815 0.76607 0.0
C2518 C 0.21152 0.3759 0.77 0.0
C2519 C 0.21498 0.3834 0.75706 0.0
C2520 C 0.20058 0.38817 0.74855 0.0
C2521 C 0.18297 0.38573 0.75308 0.0
C2522 C 0.23373 0.38582 0.75249 0.0
C2523 C 0.23997 0.37572 0.74135 0.0
C2524 C 0.24587 0.39648 0.76 0.0
C2525 C 0.24003 0.40748 0.77187 0.0
C2526 C 0.22607 0.41979 0.77041 0.0
C2527 C 0.22048 0.42992 0.7817 0.0
C2528 C 0.22882 0.42794 0.79448 0.0
C2529 C 0.2428 0.41585 0.79599 0.0
C2530 C 0.24844 0.40568 0.78474 0.0
C2531 C 0.31201 0.39006 0.72326 0.0
C2532 C 0.32555 0.38698 0.73296 0.0
C2533 C 0.29422 0.39081 0.72731 0.0
C2534 C 0.28942 0.38785 0.74112 0.0
C2535 C 0.30302 0.38556 0.75097 0.0
C2536 C 0.32097 0.38525 0.74693 0.0
C2537 C 0.27024 0.38657 0.74507 0.0
C2538 C 0.26392 0.39676 0.75617 0.0
C2539 C 0.25808 0.37565 0.73772 0.0
C2540 C 0.26403 0.36327 0.72671 0.0
C2541 C 0.27754 0.35075 0.72929 0.0
C2542 C 0.28339 0.33943 0.7188 0.0
C2543 C 0.27566 0.34032 0.70572 0.0
C2544 C 0.26206 0.35254 0.70311 0.0
C2545 C 0.25622 0.36396 0.71355 0.0
H2546 H 0.28021 0.33154 0.69761 0.0
H2547 H 0.22446 0.43578 0.8032 0.0
H2548 H 0.88088 0.94076 0.03284 0.0
H2549 H 0.87682 0.97137 0.02549 0.0
H2550 H 0.85836 0.95331 0.9858 0.0
H2551 H 0.86242 0.92217 0.99318 0.0
H2552 H 0.88355 0.9808 0.9842 0.0
H2553 H 0.82896 0.96985 0.00819 0.0
H2554 H 0.81036 0.95975 0.02761 0.0
H2555 H 0.83506 0.99822 0.05415 0.0
H2556 H 0.854 0.00838 0.03493 0.0
H2557 H 0.86034 0.06611 0.96222 0.0
H2558 H 0.85772 0.03505 0.96906 0.0
H2559 H 0.8699 0.04936 0.01109 0.0
H2560 H 0.87172 0.0809 0.00428 0.0
H2561 H 0.84637 0.02317 0.01086 0.0
H2562 H 0.90225 0.03275 0.98829 0.0
H2563 H 0.92198 0.04302 0.9696 0.0
H2564 H 0.89652 0.00719 0.94133 0.0
H2565 H 0.87647 0.99687 0.95982 0.0
C2566 C 0.8759 0.94317 0.02253 0.0
C2567 C 0.87196 0.92893 0.01359 0.0
C2568 C 0.87349 0.96076 0.01837 0.0
C2569 C 0.86707 0.96469 0.00517 0.0
C2570 C 0.86324 0.95057 0.99609 0.0
C2571 C 0.86554 0.93281 0.00031 0.0
C2572 C 0.86495 0.98363 0.0009 0.0
C2573 C 0.87514 0.98999 0.98984 0.0
C2574 C 0.85446 0.99578 0.00858 0.0
C2575 C 0.84299 0.98979 0.02014 0.0
C2576 C 0.83052 0.97607 0.01819 0.0
C2577 C 0.8199 0.97035 0.02916 0.0
C2578 C 0.82155 0.97832 0.04211 0.0
C2579 C 0.8338 0.99205 0.04411 0.0
C2580 C 0.84446 0.99781 0.03318 0.0
C2581 C 0.86221 0.06269 0.97297 0.0
C2582 C 0.86639 0.07589 0.98271 0.0
C2583 C 0.86083 0.04488 0.97686 0.0
C2584 C 0.86417 0.03969 0.99051 0.0
C2585 C 0.86742 0.05298 0.00045 0.0
C2586 C 0.86843 0.07099 0.99659 0.0
C2587 C 0.86499 0.02039 0.99414 0.0
C2588 C 0.85466 0.01396 0.00512 0.0
C2589 C 0.87553 0.00819 0.9865 0.0
C2590 C 0.88776 0.01415 0.97541 0.0
C2591 C 0.9008 0.02713 0.97807 0.0
C2592 C 0.91204 0.03295 0.96752 0.0
C2593 C 0.91048 0.02579 0.95428 0.0
C2594 C 0.89771 0.01274 0.95159 0.0
C2595 C 0.88641 0.00688 0.96211 0.0
H2596 H 0.91918 0.03033 0.94612 0.0
H2597 H 0.81332 0.97387 0.05059 0.0
H2598 H 0.33345 0.61462 0.24426 0.0
H2599 H 0.30256 0.61145 0.23615 0.0
H2600 H 0.28378 0.61545 0.27804 0.0
H2601 H 0.31432 0.61883 0.28612 0.0
H2602 H 0.26563 0.58937 0.26272 0.0
H2603 H 0.28304 0.65105 0.25939 0.0
H2604 H 0.3022 0.67578 0.25172 0.0
H2605 H 0.29187 0.66233 0.20945 0.0
H2606 H 0.27287 0.63732 0.21688 0.0
H2607 H 0.17439 0.61508 0.25187 0.0
H2608 H 0.20538 0.61169 0.25958 0.0
H2609 H 0.22337 0.6174 0.21756 0.0
H2610 H 0.1928 0.62135 0.20998 0.0
H2611 H 0.24241 0.63757 0.2328 0.0
H2612 H 0.22389 0.57655 0.23581 0.0
H2613 H 0.2051 0.55148 0.24334 0.0
H2614 H 0.2175 0.56295 0.28563 0.0
H2615 H 0.23619 0.58824 0.27835 0.0
C2616 C 0.32273 0.61456 0.25172 0.0
C2617 C 0.32628 0.61711 0.26579 0.0
C2618 C 0.30511 0.6128 0.24709 0.0
C2619 C 0.29086 0.61331 0.25651 0.0
C2620 C 0.29453 0.61498 0.2706 0.0
C2621 C 0.31201 0.61701 0.27518 0.0
C2622 C 0.27206 0.61341 0.25174 0.0
C2623 C 0.26048 0.59993 0.25622 0.0
C2624 C 0.26541 0.62709 0.24317 0.0
C2625 C 0.27671 0.6422 0.23869 0.0
C2626 C 0.28498 0.65327 0.24846 0.0
C2627 C 0.29579 0.66735 0.24416 0.0
C2628 C 0.2983 0.67059 0.23011 0.0
C2629 C 0.28995 0.65978 0.22033 0.0
C2630 C 0.27916 0.64566 0.22458 0.0
C2631 C 0.18498 0.61539 0.24431 0.0
C2632 C 0.18116 0.61859 0.23035 0.0
C2633 C 0.2027 0.61341 0.2487 0.0
C2634 C 0.21682 0.61425 0.23915 0.0
C2635 C 0.21283 0.61685 0.22517 0.0
C2636 C 0.19528 0.61906 0.22084 0.0
C2637 C 0.23582 0.61335 0.24359 0.0
C2638 C 0.24747 0.62683 0.23916 0.0
C2639 C 0.24251 0.5996 0.25214 0.0
C2640 C 0.23129 0.5844 0.25654 0.0
C2641 C 0.2225 0.57381 0.24672 0.0
C2642 C 0.21189 0.55954 0.25094 0.0
C2643 C 0.21007 0.55565 0.26495 0.0
C2644 C 0.2189 0.56599 0.27477 0.0
C2645 C 0.22951 0.58028 0.27061 0.0
H2646 H 0.20185 0.5446 0.2682 0.0
H2647 H 0.30667 0.68149 0.2268 0.0
H2648 H 0.37195 0.08304 0.4947 0.0
H2649 H 0.36824 0.05198 0.48732 0.0
H2650 H 0.36489 0.03559 0.5299 0.0
H2651 H 0.36945 0.06625 0.53719 0.0
H2652 H 0.38632 0.0149 0.51806 0.0
H2653 H 0.32798 0.03587 0.50615 0.0
H2654 H 0.30592 0.05534 0.4949 0.0
H2655 H 0.32647 0.04091 0.45515 0.0
H2656 H 0.3488 0.02152 0.46616 0.0
H2657 H 0.36169 0.92451 0.50418 0.0
H2658 H 0.3586 0.95572 0.51155 0.0
H2659 H 0.37404 0.97327 0.47096 0.0
H2660 H 0.37738 0.94242 0.46365 0.0
H2661 H 0.34513 0.99273 0.48203 0.0
H2662 H 0.40426 0.9731 0.49448 0.0
H2663 H 0.42577 0.95314 0.50585 0.0
H2664 H 0.40247 0.96495 0.54522 0.0
H2665 H 0.38065 0.98479 0.53404 0.0
C2666 C 0.37013 0.07279 0.50242 0.0
C2667 C 0.37105 0.07702 0.5165 0.0
C2668 C 0.36796 0.05503 0.49822 0.0
C2669 C 0.36621 0.0413 0.50805 0.0
C2670 C 0.36637 0.04579 0.52209 0.0
C2671 C 0.3689 0.06337 0.52625 0.0
C2672 C 0.36537 0.02216 0.50392 0.0
C2673 C 0.37704 0.01009 0.51036 0.0
C2674 C 0.35359 0.01574 0.49364 0.0
C2675 C 0.34017 0.02738 0.48699 0.0
C2676 C 0.32788 0.03695 0.49501 0.0
C2677 C 0.31531 0.04796 0.48868 0.0
C2678 C 0.31482 0.0494 0.47432 0.0
C2679 C 0.32687 0.0398 0.46627 0.0
C2680 C 0.33948 0.02879 0.47255 0.0
C2681 C 0.36426 0.93505 0.49683 0.0
C2682 C 0.36991 0.93102 0.48338 0.0
C2683 C 0.36251 0.95284 0.50104 0.0
C2684 C 0.36615 0.96682 0.49179 0.0
C2685 C 0.37112 0.96274 0.47824 0.0
C2686 C 0.37313 0.94507 0.47412 0.0
C2687 C 0.36586 0.9857 0.49633 0.0
C2688 C 0.35416 0.99765 0.48988 0.0
C2689 C 0.37748 0.99204 0.50666 0.0
C2690 C 0.3907 0.98026 0.51341 0.0
C2691 C 0.40363 0.97132 0.50555 0.0
C2692 C 0.4159 0.96005 0.51196 0.0
C2693 C 0.41545 0.95774 0.52625 0.0
C2694 C 0.40278 0.96673 0.53415 0.0
C2695 C 0.39047 0.978 0.52779 0.0
H2696 H 0.42495 0.949 0.53119 0.0
H2697 H 0.30508 0.05792 0.46944 0.0
H2698 H 0.69323 0.63012 0.28711 0.0
H2699 H 0.72404 0.62663 0.28003 0.0
H2700 H 0.70695 0.61393 0.23872 0.0
H2701 H 0.67568 0.6168 0.24599 0.0
H2702 H 0.73419 0.59375 0.24534 0.0
H2703 H 0.72308 0.65596 0.24776 0.0
H2704 H 0.71323 0.68442 0.25784 0.0
H2705 H 0.75186 0.67906 0.29017 0.0
H2706 H 0.76175 0.65042 0.28042 0.0
H2707 H 0.81576 0.61813 0.21288 0.0
H2708 H 0.78522 0.61587 0.22116 0.0
H2709 H 0.80393 0.61716 0.26316 0.0
H2710 H 0.83488 0.61916 0.25485 0.0
H2711 H 0.77631 0.64255 0.25637 0.0
H2712 H 0.7878 0.57984 0.25201 0.0
H2713 H 0.79777 0.55278 0.23991 0.0
H2714 H 0.75825 0.56114 0.20861 0.0
H2715 H 0.7482 0.58841 0.22042 0.0
C2716 C 0.69596 0.62653 0.2765 0.0
C2717 C 0.68201 0.62393 0.26706 0.0
C2718 C 0.71365 0.62462 0.27245 0.0
C2719 C 0.71793 0.62049 0.25874 0.0
C2720 C 0.70401 0.61727 0.24934 0.0
C2721 C 0.68616 0.61892 0.25348 0.0
C2722 C 0.73696 0.61979 0.25437 0.0
C2723 C 0.74332 0.60453 0.24762 0.0
C2724 C 0.74904 0.63374 0.25747 0.0
C2725 C 0.74304 0.65093 0.26342 0.0
C2726 C 0.72937 0.66076 0.25709 0.0
C2727 C 0.72379 0.67694 0.26273 0.0
C2728 C 0.7319 0.68352 0.27465 0.0
C2729 C 0.74559 0.67394 0.28094 0.0
C2730 C 0.75119 0.65773 0.27536 0.0
C2731 C 0.81344 0.61769 0.2239 0.0
C2732 C 0.82772 0.61884 0.23324 0.0
C2733 C 0.79596 0.61634 0.2286 0.0
C2734 C 0.79228 0.61628 0.24276 0.0
C2735 C 0.80651 0.61712 0.25218 0.0
C2736 C 0.82415 0.61817 0.24745 0.0
C2737 C 0.77349 0.61648 0.24753 0.0
C2738 C 0.76716 0.63173 0.25424 0.0
C2739 C 0.7614 0.60272 0.24412 0.0
C2740 C 0.76734 0.58626 0.23705 0.0
C2741 C 0.78133 0.576 0.24249 0.0
C2742 C 0.78697 0.5606 0.23569 0.0
C2743 C 0.77867 0.55526 0.22348 0.0
C2744 C 0.76467 0.56529 0.21807 0.0
C2745 C 0.75898 0.58071 0.22482 0.0
H2746 H 0.78307 0.54334 0.21824 0.0
H2747 H 0.72761 0.69607 0.27898 0.0
H2748 H 0.15267 0.92542 0.99762 0.0
H2749 H 0.15721 0.95678 0.99113 0.0
H2750 H 0.12122 0.97307 0.02338 0.0
H2751 H 0.11637 0.94222 0.02961 0.0
H2752 H 0.11373 0.99095 0.0016 0.0
H2753 H 0.16744 0.97725 0.02601 0.0
H2754 H 0.19504 0.9608 0.03112 0.0
H2755 H 0.21564 0.97409 0.99114 0.0
H2756 H 0.18804 0.99043 0.98571 0.0
H2757 H 0.13332 0.08315 0.00536 0.0
H2758 H 0.13565 0.05189 0.01277 0.0
H2759 H 0.15752 0.03783 0.97316 0.0
H2760 H 0.15463 0.06881 0.96562 0.0
H2761 H 0.17322 0.01918 0.99813 0.0
H2762 H 0.11786 0.03247 0.97427 0.0
H2763 H 0.09083 0.0505 0.97077 0.0
H2764 H 0.0737 0.03865 0.01198 0.0
H2765 H 0.10084 0.02081 0.01581 0.0
C2766 C 0.14575 0.93573 0.00328 0.0
C2767 C 0.13413 0.93125 0.0141 0.0
C2768 C 0.14841 0.95366 -0.00038 0.0
C2769 C 0.13963 0.9674 0.00681 0.0
C2770 C 0.12809 0.96283 0.0176 0.0
C2771 C 0.12538 0.94507 0.02118 0.0
C2772 C 0.14203 0.98658 0.00317 0.0
C2773 C 0.12678 0.99706 0.001 0.0
C2774 C 0.15901 0.99472 0.00219 0.0
C2775 C 0.17559 0.98488 0.00539 0.0
C2776 C 0.17779 0.97653 0.01826 0.0
C2777 C 0.19344 0.96725 0.02122 0.0
C2778 C 0.20706 0.96635 0.01144 0.0
C2779 C 0.20507 0.97477 0.99869 0.0
C2780 C 0.18942 0.98405 0.99567 0.0
C2781 C 0.13916 0.07346 0.99845 0.0
C2782 C 0.14392 0.07833 0.98498 0.0
C2783 C 0.14042 0.05563 0.00264 0.0
C2784 C 0.14676 0.04255 0.99349 0.0
C2785 C 0.15273 0.0477 0.9804 0.0
C2786 C 0.15106 0.06538 0.97611 0.0
C2787 C 0.14496 0.02332 0.9968 0.0
C2788 C 0.16026 0.01292 0.99879 0.0
C2789 C 0.12804 0.01523 0.9978 0.0
C2790 C 0.11146 0.02548 0.99538 0.0
C2791 C 0.10839 0.03382 0.98262 0.0
C2792 C 0.09306 0.04399 0.98057 0.0
C2793 C 0.08059 0.04577 0.99116 0.0
C2794 C 0.08339 0.03729 0.0038 0.0
C2795 C 0.09875 0.02714 0.00591 0.0
H2796 H 0.06873 0.05368 0.98956 0.0
H2797 H 0.21917 0.95917 0.01376 0.0
H2798 H 0.8205 0.40392 0.78036 0.0
H2799 H 0.78956 0.4077 0.77317 0.0
H2800 H 0.80059 0.37878 0.73569 0.0
H2801 H 0.83193 0.37585 0.74264 0.0
H2802 H 0.77656 0.4033 0.73057 0.0
H2803 H 0.78299 0.35835 0.7654 0.0
H2804 H 0.79232 0.34626 0.7879 0.0
H2805 H 0.7593 0.38438 0.80868 0.0
H2806 H 0.74995 0.39686 0.78629 0.0
H2807 H 0.69172 0.36757 0.71726 0.0
H2808 H 0.72272 0.37194 0.72353 0.0
H2809 H 0.7068 0.40536 0.75749 0.0
H2810 H 0.67535 0.40092 0.75126 0.0
H2811 H 0.73274 0.38107 0.76476 0.0
H2812 H 0.72431 0.42387 0.72871 0.0
H2813 H 0.71482 0.43415 0.70572 0.0
H2814 H 0.75142 0.39787 0.68664 0.0
H2815 H 0.76095 0.38718 0.70952 0.0
C2816 C 0.8164 0.39887 0.77038 0.0
C2817 C 0.82854 0.38973 0.76198 0.0
C2818 C 0.79867 0.40084 0.76635 0.0
C2819 C 0.79253 0.39306 0.75407 0.0
C2820 C 0.80494 0.38482 0.74525 0.0
C2821 C 0.82285 0.38321 0.74917 0.0
C2822 C 0.77308 0.39248 0.75094 0.0
C2823 C 0.76702 0.3983 0.73801 0.0
C2824 C 0.76046 0.38625 0.76071 0.0
C2825 C 0.76591 0.37864 0.77418 0.0
C2826 C 0.7778 0.36422 0.77477 0.0
C2827 C 0.78309 0.35729 0.78751 0.0
C2828 C 0.77644 0.36458 0.79972 0.0
C2829 C 0.76445 0.37877 0.79922 0.0
C2830 C 0.75915 0.38577 0.78651 0.0
C2831 C 0.69471 0.37588 0.72608 0.0
C2832 C 0.68099 0.38395 0.73374 0.0
C2833 C 0.71252 0.37845 0.7296 0.0
C2834 C 0.71716 0.38923 0.74083 0.0
C2835 C 0.70353 0.39708 0.74871 0.0
C2836 C 0.68558 0.39454 0.74515 0.0
C2837 C 0.73627 0.39182 0.74439 0.0
C2838 C 0.74226 0.38629 0.75739 0.0
C2839 C 0.74882 0.39808 0.73462 0.0
C2840 C 0.74326 0.40464 0.72084 0.0
C2841 C 0.73026 0.418 0.71961 0.0
C2842 C 0.72488 0.42391 0.7066 0.0
C2843 C 0.73249 0.41665 0.69473 0.0
C2844 C 0.74553 0.40348 0.69585 0.0
C2845 C 0.75095 0.39751 0.70884 0.0
H2846 H 0.72831 0.42123 0.68466 0.0
H2847 H 0.78055 0.35921 0.80956 0.0
H2848 H 0.15249 0.82174 0.04537 0.0
H2849 H 0.16141 0.79136 0.03986 0.0
H2850 H 0.14599 0.79956 0.9975 0.0
H2851 H 0.1371 0.83024 0.00307 0.0
H2852 H 0.12948 0.77101 0.0085 0.0
H2853 H 0.18939 0.78999 0.00547 0.0
H2854 H 0.2168 0.80569 0.01228 0.0
H2855 H 0.21944 0.77486 0.04948 0.0
H2856 H 0.1919 0.75914 0.043 0.0
H2857 H 0.14048 0.67786 0.00381 0.0
H2858 H 0.14833 0.70871 0.99799 0.0
H2859 H 0.16259 0.71836 0.0404 0.0
H2860 H 0.15489 0.68773 0.04616 0.0
H2861 H 0.18332 0.73806 0.02339 0.0
H2862 H 0.12034 0.72529 0.02907 0.0
H2863 H 0.09245 0.7097 0.02328 0.0
H2864 H 0.09543 0.72944 0.9818 0.0
H2865 H 0.12352 0.74493 0.98731 0.0
C2866 C 0.15174 0.81732 0.03475 0.0
C2867 C 0.14433 0.82845 0.02461 0.0
C2868 C 0.1568 0.79989 0.03159 0.0
C2869 C 0.15444 0.79306 0.01824 0.0
C2870 C 0.14803 0.80451 0.00787 0.0
C2871 C 0.14316 0.82212 0.01101 0.0
C2872 C 0.15643 0.77351 0.01579 0.0
C2873 C 0.14147 0.76387 0.01135 0.0
C2874 C 0.1719 0.76403 0.01979 0.0
C2875 C 0.1885 0.77344 0.02376 0.0
C2876 C 0.19574 0.78664 0.01515 0.0
C2877 C 0.21132 0.79553 0.01895 0.0
C2878 C 0.21984 0.79129 0.03132 0.0
C2879 C 0.21282 0.77813 0.0399 0.0
C2880 C 0.19724 0.7692 0.03616 0.0
C2881 C 0.14606 0.68635 0.01173 0.0
C2882 C 0.14707 0.68038 0.02544 0.0
C2883 C 0.15034 0.70406 0.00844 0.0
C2884 C 0.15573 0.71603 0.01881 0.0
C2885 C 0.15843 0.70949 0.0322 0.0
C2886 C 0.15405 0.69192 0.03549 0.0
C2887 C 0.15626 0.73567 0.01641 0.0
C2888 C 0.17159 0.74528 0.02008 0.0
C2889 C 0.14109 0.74517 0.01181 0.0
C2890 C 0.12412 0.73606 0.00854 0.0
C2891 C 0.1151 0.7262 0.01869 0.0
C2892 C 0.09926 0.7174 0.01547 0.0
C2893 C 0.09221 0.71853 0.00217 0.0
C2894 C 0.10094 0.72853 0.99209 0.0
C2895 C 0.11682 0.73732 0.99525 0.0
H2896 H 0.07994 0.71169 -0.00031 0.0
H2897 H 0.23191 0.79819 0.03424 0.0
H2898 H 0.5676 0.88698 0.298 0.0
H2899 H 0.53738 0.89436 0.2909 0.0
H2900 H 0.55349 0.89294 0.24829 0.0
H2901 H 0.58406 0.8853 0.25538 0.0
H2902 H 0.52263 0.92337 0.26801 0.0
H2903 H 0.53441 0.86598 0.24213 0.0
H2904 H 0.54972 0.83692 0.24158 0.0
H2905 H 0.52862 0.82428 0.28154 0.0
H2906 H 0.51335 0.85337 0.28234 0.0
H2907 H 0.42907 0.87575 0.25424 0.0
H2908 H 0.46007 0.88207 0.24768 0.0
H2909 H 0.46844 0.90802 0.2868 0.0
H2910 H 0.43775 0.90161 0.29332 0.0
H2911 H 0.48794 0.86786 0.26141 0.0
H2912 H 0.50158 0.93782 0.28524 0.0
H2913 H 0.48674 0.96698 0.28695 0.0
H2914 H 0.45622 0.95537 0.25064 0.0
H2915 H 0.47105 0.92625 0.24857 0.0
C2916 C 0.56488 0.88867 0.28711 0.0
C2917 C 0.57824 0.88545 0.27725 0.0
C2918 C 0.54757 0.89291 0.28308 0.0
C2919 C 0.54313 0.89403 0.26909 0.0
C2920 C 0.55664 0.89208 0.25916 0.0
C2921 C 0.57413 0.88785 0.26322 0.0
C2922 C 0.524 0.89504 0.26523 0.0
C2923 C 0.51499 0.91133 0.26629 0.0
C2924 C 0.51408 0.87937 0.26291 0.0
C2925 C 0.52287 0.8618 0.26231 0.0
C2926 C 0.53311 0.857 0.2508 0.0
C2927 C 0.54177 0.84054 0.25045 0.0
C2928 C 0.54017 0.82877 0.26153 0.0
C2929 C 0.52986 0.83341 0.27297 0.0
C2930 C 0.5212 0.84986 0.27337 0.0
C2931 C 0.43734 0.88349 0.26114 0.0
C2932 C 0.43096 0.88842 0.2742 0.0
C2933 C 0.45511 0.88693 0.25746 0.0
C2934 C 0.46667 0.8956 0.26671 0.0
C2935 C 0.45983 0.9016 0.27936 0.0
C2936 C 0.44224 0.89796 0.28308 0.0
C2937 C 0.48628 0.89628 0.26419 0.0
C2938 C 0.49542 0.88014 0.26239 0.0
C2939 C 0.49626 0.91219 0.26568 0.0
C2940 C 0.48738 0.92978 0.2668 0.0
C2941 C 0.49178 0.94152 0.27756 0.0
C2942 C 0.48335 0.95804 0.27861 0.0
C2943 C 0.47052 0.96301 0.26893 0.0
C2944 C 0.46612 0.95148 0.25816 0.0
C2945 C 0.47452 0.93495 0.25706 0.0
H2946 H 0.46401 0.97581 0.26976 0.0
H2947 H 0.5469 0.81605 0.26124 0.0
H2948 H 0.34881 0.17498 0.52533 0.0
H2949 H 0.33973 0.20607 0.52084 0.0
H2950 H 0.39484 0.22113 0.51707 0.0
H2951 H 0.40382 0.19051 0.52144 0.0
H2952 H 0.37519 0.2384 0.53866 0.0
H2953 H 0.37264 0.22422 0.4902 0.0
H2954 H 0.36177 0.20801 0.46978 0.0
H2955 H 0.30863 0.22621 0.4778 0.0
H2956 H 0.31915 0.24233 0.49841 0.0
H2957 H 0.37544 0.3286 0.50726 0.0
H2958 H 0.3703 0.29697 0.50233 0.0
H2959 H 0.3392 0.29244 0.5395 0.0
H2960 H 0.34479 0.32379 0.54462 0.0
H2961 H 0.3436 0.26943 0.50071 0.0
H2962 H 0.35739 0.25973 0.55823 0.0
H2963 H 0.36985 0.27637 0.57793 0.0
H2964 H 0.40381 0.30561 0.55047 0.0
H2965 H 0.39175 0.28894 0.53066 0.0
C2966 C 0.35887 0.18484 0.523 0.0
C2967 C 0.37701 0.18039 0.52375 0.0
C2968 C 0.3537 0.20259 0.52052 0.0
C2969 C 0.36665 0.21594 0.51874 0.0
C2970 C 0.38464 0.2111 0.51847 0.0
C2971 C 0.38975 0.19357 0.52092 0.0
C2972 C 0.36206 0.23519 0.51909 0.0
C2973 C 0.36808 0.2451 0.53042 0.0
C2974 C 0.35297 0.24401 0.50829 0.0
C2975 C 0.34664 0.23428 0.49596 0.0
C2976 C 0.3586 0.22459 0.48771 0.0
C2977 C 0.35251 0.21546 0.47608 0.0
C2978 C 0.33451 0.21602 0.47253 0.0
C2979 C 0.32256 0.22575 0.48059 0.0
C2980 C 0.32858 0.2349 0.49224 0.0
C2981 C 0.36672 0.32105 0.51396 0.0
C2982 C 0.36043 0.32861 0.52628 0.0
C2983 C 0.36384 0.30295 0.51117 0.0
C2984 C 0.35461 0.29224 0.52067 0.0
C2985 C 0.34647 0.30038 0.53208 0.0
C2986 C 0.34957 0.31834 0.53496 0.0
C2987 C 0.3567 0.27251 0.52032 0.0
C2988 C 0.35034 0.26259 0.50905 0.0
C2989 C 0.36573 0.26356 0.5311 0.0
C2990 C 0.37353 0.27323 0.54298 0.0
C2991 C 0.36758 0.26964 0.55642 0.0
C2992 C 0.37457 0.27909 0.5676 0.0
C2993 C 0.38757 0.29208 0.56545 0.0
C2994 C 0.39371 0.29558 0.55212 0.0
C2995 C 0.3868 0.28614 0.54092 0.0
H2996 H 0.39292 0.29942 0.57411 0.0
H2997 H 0.32982 0.20895 0.46351 0.0
H2998 H 0.92832 0.12429 0.75789 0.0
H2999 H 0.95948 0.11691 0.75275 0.0
H3000 H 0.96407 0.09099 0.79227 0.0
H3001 H 0.93326 0.09871 0.79748 0.0
H3002 H 0.98767 0.11671 0.78994 0.0
H3003 H 0.96855 0.06815 0.76131 0.0
H3004 H 0.95188 0.05395 0.7424 0.0
H3005 H 0.97826 0.08751 0.71298 0.0
H3006 H 0.99493 0.10209 0.73176 0.0
H3007 H 0.07503 0.0931 0.79168 0.0
H3008 H 0.04369 0.08622 0.78767 0.0
H3009 H 0.04448 0.11815 0.75076 0.0
H3010 H 0.07611 0.12471 0.75464 0.0
H3011 H 0.01843 0.08919 0.75003 0.0
H3012 H 0.0357 0.13889 0.77827 0.0
H3013 H 0.05274 0.15345 0.79683 0.0
H3014 H 0.02903 0.11853 0.82665 0.0
H3015 H 0.01209 0.10353 0.80821 0.0
C3016 C 0.93577 0.11631 0.76518 0.0
C3017 C 0.92836 0.11197 0.77805 0.0
C3018 C 0.95364 0.11218 0.76228 0.0
C3019 C 0.96426 0.1035 0.77218 0.0
C3020 C 0.95627 0.09779 0.7845 0.0
C3021 C 0.93858 0.10206 0.78743 0.0
C3022 C 0.98405 0.10264 0.77078 0.0
C3023 C 0.9943 0.11039 0.7813 0.0
C3024 C 0.99286 0.09508 0.75926 0.0
C3025 C 0.98285 0.08634 0.74796 0.0
C3026 C 0.97068 0.07262 0.75083 0.0
C3027 C 0.96126 0.06447 0.74013 0.0
C3028 C 0.96397 0.06986 0.7265 0.0
C3029 C 0.97615 0.08337 0.72355 0.0
C3030 C 0.98561 0.09157 0.73421 0.0
C3031 C 0.06879 0.09779 0.78229 0.0
C3032 C 0.07803 0.10927 0.77339 0.0
C3033 C 0.05082 0.09399 0.78005 0.0
C3034 C 0.04162 0.10194 0.76905 0.0
C3035 C 0.05129 0.11183 0.7593 0.0
C3036 C 0.06941 0.11549 0.76147 0.0
C3037 C 0.0218 0.10275 0.76939 0.0
C3038 C 0.01165 0.09531 0.75868 0.0
C3039 C 0.01292 0.11072 0.78068 0.0
C3040 C 0.02278 0.11997 0.79184 0.0
C3041 C 0.03422 0.13424 0.78877 0.0
C3042 C 0.04385 0.14257 0.79927 0.0
C3043 C 0.042 0.13689 0.81291 0.0
C3044 C 0.03047 0.1229 0.81608 0.0
C3045 C 0.02085 0.11447 0.80561 0.0
H3046 H 0.04947 0.14335 0.82102 0.0
H3047 H 0.95667 0.06353 0.71823 0.0
H3048 H 0.14736 0.17361 0.98977 0.0
H3049 H 0.15588 0.20426 0.99594 0.0
H3050 H 0.14003 0.22201 0.95543 0.0
H3051 H 0.13266 0.19193 0.94911 0.0
H3052 H 0.16586 0.24061 0.96177 0.0
H3053 H 0.11207 0.22308 0.98686 0.0
H3054 H 0.0953 0.20506 0.00371 0.0
H3055 H 0.13173 0.22044 0.03566 0.0
H3056 H 0.1488 0.23841 0.01895 0.0
H3057 H 0.10625 0.31694 0.98206 0.0
H3058 H 0.1159 0.2866 0.98626 0.0
H3059 H 0.17052 0.30248 0.9801 0.0
H3060 H 0.16057 0.33315 0.97537 0.0
H3061 H 0.13452 0.26701 0.00178 0.0
H3062 H 0.19226 0.26855 0.96332 0.0
H3063 H 0.20341 0.28632 0.94372 0.0
H3064 H 0.15012 0.30286 0.93424 0.0
H3065 H 0.13867 0.28501 0.95366 0.0
C3066 C 0.14612 0.18403 0.98213 0.0
C3067 C 0.13903 0.18024 0.96902 0.0
C3068 C 0.15083 0.20162 0.98569 0.0
C3069 C 0.14831 0.21571 0.97626 0.0
C3070 C 0.1422 0.2116 0.96298 0.0
C3071 C 0.13778 0.19423 0.9594 0.0
C3072 C 0.15057 0.23494 0.98006 0.0
C3073 C 0.15923 0.24631 0.97067 0.0
C3074 C 0.14201 0.24264 0.99164 0.0
C3075 C 0.13181 0.23185 0.00165 0.0
C3076 C 0.11654 0.22251 0.99747 0.0
C3077 C 0.10699 0.21233 0.00699 0.0
C3078 C 0.11249 0.21155 0.02074 0.0
C3079 C 0.12752 0.22101 0.025 0.0
C3080 C 0.13714 0.23119 0.01552 0.0
C3081 C 0.12039 0.31409 0.982 0.0
C3082 C 0.13265 0.32738 0.97838 0.0
C3083 C 0.12593 0.29668 0.98443 0.0
C3084 C 0.14395 0.29199 0.98328 0.0
C3085 C 0.15649 0.30562 0.98084 0.0
C3086 C 0.15087 0.3232 0.9783 0.0
C3087 C 0.14876 0.27264 0.983 0.0
C3088 C 0.14164 0.26128 0.99313 0.0
C3089 C 0.15796 0.26492 0.97172 0.0
C3090 C 0.16469 0.2757 0.96005 0.0
C3091 C 0.18296 0.276 0.95704 0.0
C3092 C 0.18931 0.28606 0.94596 0.0
C3093 C 0.17749 0.29577 0.93778 0.0
C3094 C 0.15927 0.29539 0.94061 0.0
C3095 C 0.15285 0.28531 0.95165 0.0
H3096 H 0.18245 0.30354 0.92921 0.0
H3097 H 0.10507 0.20367 0.0281 0.0
H3098 H 0.93763 0.85061 0.22794 0.0
H3099 H 0.96822 0.85795 0.2339 0.0
H3100 H 0.95747 0.91349 0.22644 0.0
H3101 H 0.92644 0.90601 0.22039 0.0
H3102 H 0.98701 0.90229 0.21265 0.0
H3103 H 0.96785 0.89953 0.25909 0.0
H3104 H 0.95209 0.88752 0.27934 0.0
H3105 H 0.98367 0.83999 0.27748 0.0
H3106 H 0.99946 0.85159 0.2571 0.0
H3107 H 0.08149 0.90535 0.22271 0.0
H3108 H 0.05029 0.91305 0.22787 0.0
H3109 H 0.0387 0.85759 0.23496 0.0
H3110 H 0.06953 0.85002 0.22989 0.0
H3111 H 0.02015 0.87781 0.25259 0.0
H3112 H 0.03267 0.87744 0.20313 0.0
H3113 H 0.04798 0.88821 0.18226 0.0
H3114 H 0.02839 0.94101 0.18973 0.0
H3115 H 0.01314 0.93055 0.21077 0.0
C3116 C 0.94162 0.86447 0.22797 0.0
C3117 C 0.92961 0.87777 0.22387 0.0
C3118 C 0.95915 0.86867 0.2314 0.0
C3119 C 0.96524 0.88631 0.23076 0.0
C3120 C 0.95308 0.8998 0.22711 0.0
C3121 C 0.93533 0.89557 0.2238 0.0
C3122 C 0.98464 0.88999 0.23262 0.0
C3123 C 0.9942 0.89744 0.22159 0.0
C3124 C 0.99417 0.88346 0.24418 0.0
C3125 C 0.98483 0.87644 0.25653 0.0
C3126 C 0.97138 0.88648 0.26295 0.0
C3127 C 0.96244 0.87974 0.27446 0.0
C3128 C 0.96687 0.863 0.27969 0.0
C3129 C 0.98027 0.85297 0.27343 0.0
C3130 C 0.98925 0.85964 0.26191 0.0
C3131 C 0.07237 0.89496 0.22585 0.0
C3132 C 0.07791 0.8771 0.22598 0.0
C3133 C 0.05451 0.89932 0.22865 0.0
C3134 C 0.042 0.88587 0.23165 0.0
C3135 C 0.04797 0.86824 0.23271 0.0
C3136 C 0.06564 0.86391 0.22982 0.0
C3137 C 0.02246 0.88946 0.23241 0.0
C3138 C 0.0129 0.88326 0.2439 0.0
C3139 C 0.01292 0.89705 0.22126 0.0
C3140 C 0.02199 0.90328 0.2086 0.0
C3141 C 0.03174 0.89137 0.20037 0.0
C3142 C 0.04039 0.89741 0.1885 0.0
C3143 C 0.03922 0.91531 0.18469 0.0
C3144 C 0.02933 0.92717 0.19271 0.0
C3145 C 0.02069 0.92119 0.20461 0.0
H3146 H 0.04592 0.91998 0.17551 0.0
H3147 H 0.95992 0.85781 0.28859 0.0
H3148 H 0.37224 0.67964 0.49023 0.0
H3149 H 0.3655 0.71097 0.49515 0.0
H3150 H 0.33478 0.71406 0.45766 0.0
H3151 H 0.34196 0.68306 0.45259 0.0
H3152 H 0.36023 0.73758 0.45729 0.0
H3153 H 0.31616 0.72042 0.49051 0.0
H3154 H 0.30449 0.70473 0.51091 0.0
H3155 H 0.34263 0.73133 0.53661 0.0
H3156 H 0.3547 0.74702 0.51633 0.0
H3157 H 0.34299 0.82706 0.45711 0.0
H3158 H 0.33455 0.796 0.46091 0.0
H3159 H 0.3688 0.79394 0.49653 0.0
H3160 H 0.37678 0.82527 0.49296 0.0
H3161 H 0.34017 0.77014 0.49896 0.0
H3162 H 0.38592 0.78464 0.46617 0.0
H3163 H 0.3985 0.80049 0.44616 0.0
H3164 H 0.35828 0.778 0.42 0.0
H3165 H 0.34527 0.76225 0.43993 0.0
C3166 C 0.36336 0.68681 0.48341 0.0
C3167 C 0.35749 0.67891 0.47109 0.0
C3168 C 0.35957 0.70478 0.48618 0.0
C3169 C 0.3497 0.71502 0.47673 0.0
C3170 C 0.3425 0.70655 0.46508 0.0
C3171 C 0.34645 0.68876 0.46225 0.0
C3172 C 0.34917 0.73487 0.47769 0.0
C3173 C 0.35545 0.74462 0.46633 0.0
C3174 C 0.34367 0.7442 0.48966 0.0
C3175 C 0.33645 0.73477 0.50187 0.0
C3176 C 0.32217 0.72281 0.50049 0.0
C3177 C 0.31546 0.71394 0.51204 0.0
C3178 C 0.32284 0.71699 0.52504 0.0
C3179 C 0.33693 0.72896 0.52653 0.0
C3180 C 0.3437 0.73786 0.51501 0.0
C3181 C 0.34793 0.82025 0.46618 0.0
C3182 C 0.36032 0.82859 0.47485 0.0
C3183 C 0.34326 0.80244 0.46828 0.0
C3184 C 0.35134 0.79248 0.47884 0.0
C3185 C 0.36238 0.8013 0.48833 0.0
C3186 C 0.36686 0.81925 0.48633 0.0
C3187 C 0.35075 0.77264 0.47844 0.0
C3188 C 0.34461 0.76297 0.4899 0.0
C3189 C 0.35653 0.76322 0.4666 0.0
C3190 C 0.36452 0.77242 0.45456 0.0
C3191 C 0.3797 0.78316 0.45617 0.0
C3192 C 0.3869 0.79213 0.44484 0.0
C3193 C 0.37916 0.79029 0.43182 0.0
C3194 C 0.36424 0.77943 0.4301 0.0
C3195 C 0.35694 0.77048 0.4414 0.0
H3196 H 0.38476 0.79724 0.42307 0.0
H3197 H 0.31762 0.71012 0.53397 0.0
H3198 H 0.43701 0.10054 0.70737 0.0
H3199 H 0.46725 0.09298 0.71438 0.0
H3200 H 0.45967 0.12132 0.75259 0.0
H3201 H 0.42908 0.12879 0.74555 0.0
H3202 H 0.48874 0.13305 0.73858 0.0
H3203 H 0.46785 0.07684 0.7534 0.0
H3204 H 0.45106 0.04872 0.75225 0.0
H3205 H 0.48113 0.03282 0.7167 0.0
H3206 H 0.49793 0.06097 0.7175 0.0
H3207 H 0.58161 0.12112 0.7438 0.0
H3208 H 0.55091 0.11618 0.75169 0.0
H3209 H 0.53913 0.08878 0.7137 0.0
H3210 H 0.56959 0.09361 0.70591 0.0
H3211 H 0.51966 0.07497 0.7346 0.0
H3212 H 0.53391 0.13364 0.71643 0.0
H3213 H 0.55043 0.162 0.71632 0.0
H3214 H 0.53218 0.17322 0.75735 0.0
H3215 H 0.51574 0.14477 0.75777 0.0
C3216 C 0.44155 0.10453 0.71751 0.0
C3217 C 0.43063 0.115 0.72601 0.0
C3218 C 0.45888 0.10023 0.72152 0.0
C3219 C 0.46581 0.10648 0.73407 0.0
C3220 C 0.45461 0.11624 0.74291 0.0
C3221 C 0.43708 0.12034 0.73896 0.0
C3222 C 0.48527 0.10469 0.73687 0.0
C3223 C 0.49545 0.12027 0.73816 0.0
C3224 C 0.49415 0.08809 0.73602 0.0
C3225 C 0.48412 0.07108 0.73549 0.0
C3226 C 0.47081 0.06741 0.74528 0.0
C3227 C 0.4613 0.05145 0.7447 0.0
C3228 C 0.46502 0.039 0.7344 0.0
C3229 C 0.47828 0.04247 0.72467 0.0
C3230 C 0.48782 0.05842 0.7252 0.0
C3231 C 0.57268 0.11332 0.73745 0.0
C3232 C 0.57797 0.10773 0.72425 0.0
C3233 C 0.55507 0.11068 0.74189 0.0
C3234 C 0.54255 0.10241 0.73317 0.0
C3235 C 0.54843 0.09523 0.72062 0.0
C3236 C 0.5659 0.09796 0.71617 0.0
C3237 C 0.52303 0.10334 0.73596 0.0
C3238 C 0.51288 0.08765 0.73555 0.0
C3239 C 0.51412 0.11985 0.7375 0.0
C3240 C 0.52381 0.13701 0.7372 0.0
C3241 C 0.53352 0.14211 0.72546 0.0
C3242 C 0.54286 0.15819 0.72534 0.0
C3243 C 0.54241 0.16937 0.73684 0.0
C3244 C 0.53256 0.16452 0.74847 0.0
C3245 C 0.52324 0.14842 0.74866 0.0
H3246 H 0.54965 0.18182 0.73673 0.0
H3247 H 0.45764 0.02665 0.73397 0.0
H3248 H 0.86956 0.33041 0.99338 0.0
H3249 H 0.86317 0.29929 -0.00053 0.0
H3250 H 0.84717 0.28895 0.95755 0.0
H3251 H 0.85372 0.3198 0.95145 0.0
H3252 H 0.82701 0.26952 0.97654 0.0
H3253 H 0.88919 0.28268 0.96658 0.0
H3254 H 0.91743 0.29856 0.97058 0.0
H3255 H 0.91883 0.27915 0.0122 0.0
H3256 H 0.89042 0.26337 0.00849 0.0
H3257 H 0.85369 0.18589 0.95286 0.0
H3258 H 0.84652 0.21649 0.95896 0.0
H3259 H 0.86817 0.20817 -0.00036 0.0
H3260 H 0.87542 0.17718 0.99344 0.0
H3261 H 0.88259 0.23701 0.98774 0.0
H3262 H 0.82368 0.21782 0.99549 0.0
H3263 H 0.79555 0.20193 0.99116 0.0
H3264 H 0.78754 0.23221 0.95415 0.0
H3265 H 0.81576 0.24811 0.95812 0.0
C3266 C 0.86397 0.32167 0.98564 0.0
C3267 C 0.86205 0.32754 0.97195 0.0
C3268 C 0.8605 0.30383 0.98908 0.0
C3269 C 0.8549 0.29168 0.97892 0.0
C3270 C 0.85146 0.29801 0.96557 0.0
C3271 C 0.85516 0.31568 0.9621 0.0
C3272 C 0.85477 0.27208 0.98149 0.0
C3273 C 0.83912 0.26238 0.97904 0.0
C3274 C 0.87045 0.26275 0.98513 0.0
C3275 C 0.8876 0.27205 0.98732 0.0
C3276 C 0.89546 0.28191 0.97661 0.0
C3277 C 0.9115 0.29088 0.97882 0.0
C3278 C 0.91989 0.28991 0.99165 0.0
C3279 C 0.91229 0.27993 0.00228 0.0
C3280 C 0.89622 0.27097 0.00013 0.0
C3281 C 0.85637 0.19039 0.96327 0.0
C3282 C 0.86495 0.1791 0.97272 0.0
C3283 C 0.85224 0.20793 0.96677 0.0
C3284 C 0.85667 0.21474 0.97981 0.0
C3285 C 0.86452 0.20323 0.98954 0.0
C3286 C 0.86849 0.18548 0.98606 0.0
C3287 C 0.85489 0.23429 0.98243 0.0
C3288 C 0.87027 0.24404 0.98571 0.0
C3289 C 0.83893 0.24364 0.97957 0.0
C3290 C 0.82191 0.23412 0.97709 0.0
C3291 C 0.81599 0.22101 0.98637 0.0
C3292 C 0.80002 0.21201 0.98399 0.0
C3293 C 0.78978 0.21604 0.97238 0.0
C3294 C 0.79549 0.22911 0.96314 0.0
C3295 C 0.81146 0.23814 0.96547 0.0
H3296 H 0.77741 0.20906 0.97056 0.0
H3297 H 0.93231 0.29687 0.99335 0.0
H3298 H 0.6099 0.81783 0.4917 0.0
H3299 H 0.61946 0.78736 0.49615 0.0
H3300 H 0.66511 0.7953 0.46988 0.0
H3301 H 0.65506 0.8258 0.46509 0.0
H3302 H 0.64854 0.76742 0.46191 0.0
H3303 H 0.6685 0.78576 0.50608 0.0
H3304 H 0.66718 0.80082 0.52863 0.0
H3305 H 0.62258 0.76848 0.54031 0.0
H3306 H 0.62345 0.75339 0.51776 0.0
H3307 H 0.66279 0.67558 0.46672 0.0
H3308 H 0.67001 0.70673 0.47191 0.0
H3309 H 0.62094 0.7117 0.49463 0.0
H3310 H 0.614 0.68053 0.4897 0.0
H3311 H 0.6462 0.73326 0.50562 0.0
H3312 H 0.62295 0.72014 0.4599 0.0
H3313 H 0.62364 0.70517 0.43727 0.0
H3314 H 0.67464 0.7284 0.42873 0.0
H3315 H 0.67436 0.74331 0.45141 0.0
C3316 C 0.6224 0.8133 0.48738 0.0
C3317 C 0.63198 0.82426 0.47833 0.0
C3318 C 0.62789 0.79582 0.48992 0.0
C3319 C 0.64316 0.7889 0.48348 0.0
C3320 C 0.65334 0.80027 0.47504 0.0
C3321 C 0.64774 0.81777 0.47243 0.0
C3322 C 0.6469 0.76935 0.48405 0.0
C3323 C 0.64856 0.76007 0.47154 0.0
C3324 C 0.64653 0.75952 0.49654 0.0
C3325 C 0.646 0.76849 0.51018 0.0
C3326 C 0.65834 0.78193 0.51342 0.0
C3327 C 0.65768 0.79046 0.52621 0.0
C3328 C 0.64479 0.78562 0.53589 0.0
C3329 C 0.63256 0.77221 0.53281 0.0
C3330 C 0.63315 0.76364 0.52003 0.0
C3331 C 0.65404 0.68311 0.4734 0.0
C3332 C 0.63801 0.67562 0.47803 0.0
C3333 C 0.65804 0.70097 0.47622 0.0
C3334 C 0.64585 0.71172 0.48344 0.0
C3335 C 0.63057 0.70375 0.48906 0.0
C3336 C 0.62664 0.68589 0.48631 0.0
C3337 C 0.64755 0.73153 0.48351 0.0
C3338 C 0.64674 0.74077 0.49608 0.0
C3339 C 0.64868 0.7414 0.47109 0.0
C3340 C 0.64873 0.73266 0.45739 0.0
C3341 C 0.63435 0.72197 0.45322 0.0
C3342 C 0.63467 0.7135 0.44039 0.0
C3343 C 0.6492 0.71579 0.43159 0.0
C3344 C 0.66342 0.72661 0.43557 0.0
C3345 C 0.66319 0.73507 0.44841 0.0
H3346 H 0.64942 0.70922 0.42166 0.0
H3347 H 0.6443 0.79226 0.54579 0.0
H3348 H 0.85791 0.67222 0.0067 0.0
H3349 H 0.84879 0.70233 -0.00027 0.0
H3350 H 0.85209 0.71943 0.04215 0.0
H3351 H 0.85983 0.68956 0.0491 0.0
H3352 H 0.82952 0.73874 0.03172 0.0
H3353 H 0.88889 0.7211 0.01628 0.0
H3354 H 0.91004 0.70289 0.00287 0.0
H3355 H 0.88343 0.71751 0.96537 0.0
H3356 H 0.86201 0.73566 0.9786 0.0
H3357 H 0.89526 0.81354 0.02058 0.0
H3358 H 0.88583 0.78348 0.01537 0.0
H3359 H 0.83118 0.80103 0.01353 0.0
H3360 H 0.84081 0.8315 0.01942 0.0
H3361 H 0.87121 0.76455 0.99758 0.0
H3362 H 0.80456 0.76751 0.0258 0.0
H3363 H 0.78877 0.78564 0.04317 0.0
H3364 H 0.83866 0.80059 0.06136 0.0
H3365 H 0.8547 0.78242 0.04418 0.0
C3366 C 0.85599 0.68227 0.01455 0.0
C3367 C 0.85994 0.67851 0.02843 0.0
C3368 C 0.85103 0.6996 0.01055 0.0
C3369 C 0.85032 0.71351 0.02032 0.0
C3370 C 0.85261 0.7092 0.03429 0.0
C3371 C 0.85719 0.69199 0.03828 0.0
C3372 C 0.84931 0.73279 0.0163 0.0
C3373 C 0.83848 0.74431 0.02409 0.0
C3374 C 0.86092 0.74036 0.00637 0.0
C3375 C 0.87374 0.7295 0.99842 0.0
C3376 C 0.88752 0.72034 0.00518 0.0
C3377 C 0.89955 0.71004 0.99762 0.0
C3378 C 0.89804 0.70899 0.98328 0.0
C3379 C 0.88454 0.71829 0.97647 0.0
C3380 C 0.87245 0.72857 0.984 0.0
C3381 C 0.88124 0.81112 0.01873 0.0
C3382 C 0.86877 0.82485 0.02047 0.0
C3383 C 0.87583 0.79384 0.01569 0.0
C3384 C 0.85771 0.78969 0.01426 0.0
C3385 C 0.84523 0.80373 0.01483 0.0
C3386 C 0.85072 0.8212 0.01801 0.0
C3387 C 0.85241 0.77047 0.01371 0.0
C3388 C 0.86185 0.75896 0.00491 0.0
C3389 C 0.84028 0.76292 0.02326 0.0
C3390 C 0.83079 0.77385 0.0336 0.0
C3391 C 0.81213 0.77469 0.03351 0.0
C3392 C 0.80315 0.78495 0.04332 0.0
C3393 C 0.81271 0.79433 0.05332 0.0
C3394 C 0.83128 0.79339 0.05357 0.0
C3395 C 0.84031 0.78312 0.04381 0.0
H3396 H 0.80574 0.80227 0.06089 0.0
H3397 H 0.90736 0.70102 0.97744 0.0
H3398 H 0.60047 0.31072 0.52679 0.0
H3399 H 0.60989 0.28072 0.52131 0.0
H3400 H 0.66351 0.29937 0.51468 0.0
H3401 H 0.65399 0.32987 0.52056 0.0
H3402 H 0.62326 0.26262 0.50128 0.0
H3403 H 0.6918 0.26593 0.52629 0.0
H3404 H 0.70889 0.28428 0.54275 0.0
H3405 H 0.66055 0.29888 0.56345 0.0
H3406 H 0.64324 0.28047 0.54721 0.0
H3407 H 0.64224 0.17036 0.50764 0.0
H3408 H 0.64931 0.20128 0.50135 0.0
H3409 H 0.64423 0.21674 0.54402 0.0
H3410 H 0.63798 0.18618 0.5503 0.0
H3411 H 0.66764 0.23688 0.53339 0.0
H3412 H 0.60814 0.21757 0.51923 0.0
H3413 H 0.58722 0.19903 0.50587 0.0
H3414 H 0.61154 0.21639 0.46813 0.0
H3415 H 0.63271 0.23489 0.4813 0.0
C3416 C 0.61424 0.30856 0.52395 0.0
C3417 C 0.62652 0.32267 0.52427 0.0
C3418 C 0.61962 0.29133 0.52071 0.0
C3419 C 0.63748 0.28758 0.51773 0.0
C3420 C 0.64967 0.30184 0.51711 0.0
C3421 C 0.64422 0.31929 0.52036 0.0
C3422 C 0.64307 0.26852 0.51668 0.0
C3423 C 0.63325 0.25705 0.50811 0.0
C3424 C 0.656 0.26105 0.52559 0.0
C3425 C 0.66625 0.27206 0.53543 0.0
C3426 C 0.68485 0.27307 0.53437 0.0
C3427 C 0.69457 0.28346 0.54365 0.0
C3428 C 0.6858 0.2928 0.5541 0.0
C3429 C 0.66731 0.2917 0.55532 0.0
C3430 C 0.65755 0.2813 0.54608 0.0
C3431 C 0.64324 0.18028 0.5157 0.0
C3432 C 0.63928 0.17583 0.52945 0.0
C3433 C 0.6471 0.19802 0.51208 0.0
C3434 C 0.6469 0.21157 0.52215 0.0
C3435 C 0.64443 0.20672 0.53599 0.0
C3436 C 0.64073 0.18915 0.53958 0.0
C3437 C 0.64718 0.23094 0.51852 0.0
C3438 C 0.65816 0.24247 0.52615 0.0
C3439 C 0.63483 0.23845 0.50913 0.0
C3440 C 0.62212 0.2274 0.50123 0.0
C3441 C 0.60907 0.21734 0.50808 0.0
C3442 C 0.59717 0.20685 0.50055 0.0
C3443 C 0.59809 0.20648 0.48617 0.0
C3444 C 0.61088 0.21665 0.47928 0.0
C3445 C 0.62283 0.22713 0.48676 0.0
H3446 H 0.58887 0.19836 0.48035 0.0
H3447 H 0.69334 0.30086 0.56127 0.0
H3448 H 0.92645 0.38248 0.75649 0.0
H3449 H 0.95748 0.39024 0.75089 0.0
H3450 H 0.96819 0.39892 0.79405 0.0
H3451 H 0.93755 0.39104 0.79962 0.0
H3452 H 0.98567 0.42347 0.77746 0.0
H3453 H 0.97622 0.35915 0.7799 0.0
H3454 H 0.96223 0.3311 0.77239 0.0
H3455 H 0.9815 0.33949 0.73123 0.0
H3456 H 0.99542 0.36774 0.73848 0.0
H3457 H 0.06972 0.39683 0.79938 0.0
H3458 H 0.03928 0.40443 0.79327 0.0
H3459 H 0.04953 0.38956 0.75105 0.0
H3460 H 0.08029 0.38169 0.75729 0.0
H3461 H 0.0213 0.37254 0.76031 0.0
H3462 H 0.03744 0.43309 0.75972 0.0
H3463 H 0.05172 0.46089 0.76739 0.0
H3464 H 0.02037 0.46038 0.80439 0.0
H3465 H 0.00607 0.43244 0.79705 0.0
C3466 C 0.93533 0.38654 0.7647 0.0
C3467 C 0.92961 0.38611 0.77849 0.0
C3468 C 0.95308 0.39086 0.76151 0.0
C3469 C 0.96525 0.39502 0.77207 0.0
C3470 C 0.95911 0.39579 0.78572 0.0
C3471 C 0.94158 0.39124 0.7889 0.0
C3472 C 0.98472 0.39684 0.76939 0.0
C3473 C 0.9935 0.41239 0.77365 0.0
C3474 C 0.99493 0.38262 0.764 0.0
C3475 C 0.98663 0.36564 0.75967 0.0
C3476 C 0.97734 0.35508 0.76922 0.0
C3477 C 0.96945 0.33914 0.76502 0.0
C3478 C 0.97092 0.33354 0.75133 0.0
C3479 C 0.98033 0.34386 0.74182 0.0
C3480 C 0.98822 0.35984 0.74597 0.0
C3481 C 0.06571 0.39583 0.78867 0.0
C3482 C 0.07743 0.38878 0.7788 0.0
C3483 C 0.04823 0.40021 0.78516 0.0
C3484 C 0.04197 0.39767 0.77166 0.0
C3485 C 0.05401 0.3917 0.76153 0.0
C3486 C 0.07166 0.38741 0.76505 0.0
C3487 C 0.02244 0.399 0.76885 0.0
C3488 C 0.01359 0.38395 0.76366 0.0
C3489 C 0.01219 0.41374 0.77334 0.0
C3490 C 0.02071 0.4306 0.77784 0.0
C3491 C 0.03366 0.43883 0.76954 0.0
C3492 C 0.04175 0.45464 0.77382 0.0
C3493 C 0.03697 0.46239 0.78637 0.0
C3494 C 0.02405 0.45437 0.79466 0.0
C3495 C 0.01592 0.43856 0.79043 0.0
H3496 H 0.04325 0.47462 0.78967 0.0
H3497 H 0.96481 0.32119 0.7481 0.0
H3498 H 0.4291 0.59501 0.28695 0.0
H3499 H 0.46037 0.58725 0.28287 0.0
H3500 H 0.46576 0.63262 0.25598 0.0
H3501 H 0.43445 0.64021 0.25995 0.0
H3502 H 0.48747 0.60435 0.24764 0.0
H3503 H 0.47404 0.63723 0.28944 0.0
H3504 H 0.45851 0.64184 0.31155 0.0
H3505 H 0.48016 0.59292 0.32707 0.0
H3506 H 0.49561 0.58789 0.30495 0.0
H3507 H 0.57588 0.63542 0.25852 0.0
H3508 H 0.54469 0.62815 0.25424 0.0
H3509 H 0.54632 0.58928 0.28698 0.0
H3510 H 0.57732 0.59732 0.29166 0.0
H3511 H 0.52064 0.60974 0.29164 0.0
H3512 H 0.53796 0.57889 0.25092 0.0
H3513 H 0.55331 0.57419 0.22876 0.0
H3514 H 0.52495 0.61819 0.21107 0.0
H3515 H 0.5096 0.62333 0.23318 0.0
C3516 C 0.43676 0.60279 0.27965 0.0
C3517 C 0.42934 0.618 0.27355 0.0
C3518 C 0.45468 0.59847 0.27743 0.0
C3519 C 0.46553 0.6095 0.26926 0.0
C3520 C 0.45769 0.62387 0.26227 0.0
C3521 C 0.43977 0.62816 0.26449 0.0
C3522 C 0.4853 0.60771 0.2696 0.0
C3523 C 0.49479 0.60554 0.25724 0.0
C3524 C 0.49486 0.60893 0.28214 0.0
C3525 C 0.48581 0.61209 0.2955 0.0
C3526 C 0.4754 0.62741 0.29754 0.0
C3527 C 0.46661 0.6301 0.31007 0.0
C3528 C 0.4683 0.61765 0.32069 0.0
C3529 C 0.47883 0.60252 0.31882 0.0
C3530 C 0.48761 0.59975 0.30629 0.0
C3531 C 0.56979 0.62472 0.26434 0.0
C3532 C 0.5791 0.61663 0.27521 0.0
C3533 C 0.55187 0.62058 0.26193 0.0
C3534 C 0.54296 0.60805 0.27023 0.0
C3535 C 0.55276 0.599 0.28042 0.0
C3536 C 0.57057 0.60339 0.28298 0.0
C3537 C 0.52311 0.60629 0.26964 0.0
C3538 C 0.51351 0.60806 0.28201 0.0
C3539 C 0.51354 0.60463 0.25709 0.0
C3540 C 0.52271 0.60156 0.24375 0.0
C3541 C 0.53508 0.58765 0.24234 0.0
C3542 C 0.54377 0.58489 0.22978 0.0
C3543 C 0.54014 0.5959 0.21852 0.0
C3544 C 0.52776 0.60967 0.2198 0.0
C3545 C 0.51904 0.6125 0.23233 0.0
H3546 H 0.54688 0.59375 0.20881 0.0
H3547 H 0.46149 0.61975 0.33039 0.0
H3548 H 0.43271 0.37129 0.74117 0.0
H3549 H 0.46373 0.37922 0.74599 0.0
H3550 H 0.46039 0.42194 0.7164 0.0
H3551 H 0.42953 0.41367 0.71139 0.0
H3552 H 0.48657 0.40063 0.71015 0.0
H3553 H 0.46808 0.42927 0.75189 0.0
H3554 H 0.45265 0.43167 0.77424 0.0
H3555 H 0.48357 0.38825 0.79014 0.0
H3556 H 0.49903 0.38542 0.76782 0.0
H3557 H 0.57681 0.41708 0.7122 0.0
H3558 H 0.54568 0.42447 0.717 0.0
H3559 H 0.54351 0.38235 0.74715 0.0
H3560 H 0.57488 0.37566 0.74285 0.0
H3561 H 0.51993 0.40699 0.75398 0.0
H3562 H 0.53444 0.37493 0.71246 0.0
H3563 H 0.54966 0.37026 0.69023 0.0
H3564 H 0.52537 0.41754 0.67402 0.0
H3565 H 0.5102 0.42263 0.69625 0.0
C3566 C 0.43838 0.38289 0.73621 0.0
C3567 C 0.42865 0.39214 0.72614 0.0
C3568 C 0.45616 0.38739 0.73891 0.0
C3569 C 0.46451 0.40125 0.73159 0.0
C3570 C 0.45432 0.41123 0.72221 0.0
C3571 C 0.43662 0.40665 0.71946 0.0
C3572 C 0.48425 0.40361 0.73216 0.0
C3573 C 0.49377 0.40248 0.71973 0.0
C3574 C 0.49384 0.40533 0.74468 0.0
C3575 C 0.48463 0.40706 0.75814 0.0
C3576 C 0.47151 0.42014 0.76012 0.0
C3577 C 0.46277 0.4216 0.77279 0.0
C3578 C 0.4671 0.4101 0.7836 0.0
C3579 C 0.48022 0.39715 0.78176 0.0
C3580 C 0.48899 0.39563 0.76911 0.0
C3581 C 0.56995 0.41012 0.72041 0.0
C3582 C 0.5783 0.39601 0.72732 0.0
C3583 C 0.55205 0.41414 0.723 0.0
C3584 C 0.542 0.4036 0.73213 0.0
C3585 C 0.55086 0.39065 0.74002 0.0
C3586 C 0.56887 0.3869 0.73764 0.0
C3587 C 0.52211 0.40418 0.73195 0.0
C3588 C 0.51262 0.40558 0.7444 0.0
C3589 C 0.51243 0.40242 0.71947 0.0
C3590 C 0.52135 0.39927 0.70605 0.0
C3591 C 0.53242 0.38438 0.70418 0.0
C3592 C 0.54104 0.38166 0.69158 0.0
C3593 C 0.53852 0.39362 0.68073 0.0
C3594 C 0.52733 0.40831 0.68245 0.0
C3595 C 0.51873 0.41112 0.69504 0.0
H3596 H 0.5452 0.3915 0.67099 0.0
H3597 H 0.46032 0.41124 0.7934 0.0
H3598 H 0.93893 0.6078 0.20192 0.0
H3599 H 0.9694 0.60108 0.20861 0.0
H3600 H 0.95811 0.61811 0.25017 0.0
H3601 H 0.92723 0.6249 0.24338 0.0
H3602 H 0.98707 0.63481 0.23992 0.0
H3603 H 0.96976 0.57471 0.24403 0.0
H3604 H 0.9549 0.54662 0.23777 0.0
H3605 H 0.98654 0.54313 0.20103 0.0
H3606 H 1.00142 0.57133 0.20694 0.0
H3607 H 0.08177 0.62565 0.24284 0.0
H3608 H 0.05108 0.61829 0.24977 0.0
H3609 H 0.03912 0.6031 0.2079 0.0
H3610 H 0.06943 0.61044 0.20105 0.0
H3611 H 0.02186 0.58165 0.22611 0.0
H3612 H 0.03191 0.64546 0.21934 0.0
H3613 H 0.04644 0.674 0.22489 0.0
H3614 H 0.02796 0.67019 0.26668 0.0
H3615 H 0.0135 0.64149 0.26139 0.0
C3616 C 0.94276 0.60957 0.2126 0.0
C3617 C 0.93068 0.61675 0.22215 0.0
C3618 C 0.96022 0.60569 0.21644 0.0
C3619 C 0.96613 0.60896 0.22994 0.0
C3620 C 0.95385 0.61537 0.23972 0.0
C3621 C 0.93618 0.61908 0.23588 0.0
C3622 C 0.98554 0.60758 0.23306 0.0
C3623 C 0.99462 0.62297 0.23733 0.0
C3624 C 0.99553 0.59225 0.22955 0.0
C3625 C 0.98669 0.5752 0.22593 0.0
C3626 C 0.97349 0.56802 0.23457 0.0
C3627 C 0.96506 0.55206 0.23109 0.0
C3628 C 0.96977 0.5431 0.21901 0.0
C3629 C 0.98293 0.55008 0.21039 0.0
C3630 C 0.99139 0.56603 0.21382 0.0
C3631 C 0.07271 0.62015 0.23528 0.0
C3632 C 0.07794 0.6186 0.22142 0.0
C3633 C 0.05515 0.6161 0.2392 0.0
C3634 C 0.04268 0.61033 0.22931 0.0
C3635 C 0.04841 0.6075 0.21573 0.0
C3636 C 0.06577 0.61171 0.21181 0.0
C3637 C 0.02327 0.60905 0.23242 0.0
C3638 C 0.01423 0.59322 0.22922 0.0
C3639 C 0.0133 0.62397 0.23689 0.0
C3640 C 0.02185 0.64125 0.24002 0.0
C3641 C 0.03106 0.65066 0.22973 0.0
C3642 C 0.03926 0.66687 0.23282 0.0
C3643 C 0.03818 0.67387 0.24614 0.0
C3644 C 0.02883 0.66472 0.25638 0.0
C3645 C 0.02063 0.64849 0.25334 0.0
H3646 H 0.04455 0.68642 0.24852 0.0
H3647 H 0.96323 0.53075 0.21633 0.0
loop_
_geom_bond_atom_site_label_1
_geom_bond_atom_site_label_2
_geom_bond_distance
_geom_bond_site_symmetry_2
_ccdc_geom_bond_type
Co0 O1 2.216 . S
Co0 O2 2.091 . S
Co0 O4 2.004 . S
Co0 O10 2.021 . S
Co0 O12 2.137 . S
Co0 O13 2.244 . S
O1 Co0 2.216 . S
O1 C8 1.247 . S
O2 Co0 2.091 . S
O2 C8 1.261 . S
C3 O12 1.247 . S
C3 O13 1.272 . S
O4 Co0 2.004 . S
O4 C9 1.259 . S
Co5 O6 2.061 . S
Co5 O11 2.052 . S
Co5 O13 2.135 . S
O6 Co5 2.061 . S
O6 C9 1.235 . S
C7 O10 1.238 . S
C7 O11 1.241 . S
C8 O1 1.247 . S
C8 O2 1.261 . S
C9 O4 1.259 . S
C9 O6 1.235 . S
O10 Co0 2.021 . S
O10 C7 1.238 . S
O11 Co5 2.052 . S
O11 C7 1.241 . S
O12 Co0 2.137 . S
O12 C3 1.247 . S
O13 Co0 2.244 . S
O13 C3 1.272 . S
O13 Co5 2.135 . S
Co14 O15 2.216 . S
Co14 O16 2.091 . S
Co14 O18 2.004 . S
Co14 O24 2.021 . S
Co14 O26 2.137 . S
Co14 O27 2.244 . S
O15 Co14 2.216 . S
O15 C22 1.247 . S
O16 Co14 2.091 . S
O16 C22 1.261 . S
C17 O26 1.247 . S
C17 O27 1.272 . S
O18 Co14 2.004 . S
O18 C23 1.259 . S
Co19 O20 2.061 . S
Co19 O25 2.052 . S
Co19 O27 2.135 . S
O20 Co19 2.061 . S
O20 C23 1.235 . S
C21 O24 1.238 . S
C21 O25 1.241 . S
C22 O15 1.247 . S
C22 O16 1.261 . S
C23 O18 1.259 . S
C23 O20 1.235 . S
O24 Co14 2.021 . S
O24 C21 1.238 . S
O25 Co19 2.052 . S
O25 C21 1.241 . S
O26 Co14 2.137 . S
O26 C17 1.247 . S
O27 Co14 2.244 . S
O27 C17 1.272 . S
O27 Co19 2.135 . S
Co28 O29 2.216 . S
Co28 O30 2.091 . S
Co28 O32 2.004 . S
Co28 O38 2.021 . S
Co28 O40 2.137 . S
Co28 O41 2.244 . S
O29 Co28 2.216 . S
O29 C36 1.247 . S
O30 Co28 2.091 . S
O30 C36 1.261 . S
C31 O40 1.247 . S
C31 O41 1.272 . S
O32 Co28 2.004 . S
O32 C37 1.259 . S
Co33 O34 2.061 . S
Co33 O39 2.052 . S
Co33 O41 2.135 . S
O34 Co33 2.061 . S
O34 C37 1.235 . S
C35 O38 1.238 . S
C35 O39 1.241 . S
C36 O29 1.247 . S
C36 O30 1.261 . S
C37 O32 1.259 . S
C37 O34 1.235 . S
O38 Co28 2.021 . S
O38 C35 1.238 . S
O39 Co33 2.052 . S
O39 C35 1.241 . S
O40 Co28 2.137 . S
O40 C31 1.247 . S
O41 Co28 2.244 . S
O41 C31 1.272 . S
O41 Co33 2.135 . S
Co42 O43 2.216 . S
Co42 O44 2.091 . S
Co42 O46 2.004 . S
Co42 O52 2.021 . S
Co42 O54 2.137 . S
Co42 O55 2.244 . S
O43 Co42 2.216 . S
O43 C50 1.247 . S
O44 Co42 2.091 . S
O44 C50 1.261 . S
C45 O54 1.247 . S
C45 O55 1.272 . S
O46 Co42 2.004 . S
O46 C51 1.259 . S
Co47 O48 2.061 . S
Co47 O53 2.052 . S
Co47 O55 2.135 . S
O48 Co47 2.061 . S
O48 C51 1.235 . S
C49 O52 1.238 . S
C49 O53 1.241 . S
C50 O43 1.247 . S
C50 O44 1.261 . S
C51 O46 1.259 . S
C51 O48 1.235 . S
O52 Co42 2.021 . S
O52 C49 1.238 . S
O53 Co47 2.052 . S
O53 C49 1.241 . S
O54 Co42 2.137 . S
O54 C45 1.247 . S
O55 Co42 2.244 . S
O55 C45 1.272 . S
O55 Co47 2.135 . S
Co56 O57 2.216 . S
Co56 O58 2.091 . S
Co56 O60 2.004 . S
Co56 O66 2.021 . S
Co56 O68 2.137 . S
Co56 O69 2.244 . S
O57 Co56 2.216 . S
O57 C64 1.247 . S
O58 Co56 2.091 . S
O58 C64 1.261 . S
C59 O68 1.247 . S
C59 O69 1.272 . S
O60 Co56 2.004 . S
O60 C65 1.259 . S
Co61 O62 2.061 . S
Co61 O67 2.052 . S
Co61 O69 2.135 . S
O62 Co61 2.061 . S
O62 C65 1.235 . S
C63 O66 1.238 . S
C63 O67 1.241 . S
C64 O57 1.247 . S
C64 O58 1.261 . S
C65 O60 1.259 . S
C65 O62 1.235 . S
O66 Co56 2.021 . S
O66 C63 1.238 . S
O67 Co61 2.052 . S
O67 C63 1.241 . S
O68 Co56 2.137 . S
O68 C59 1.247 . S
O69 Co56 2.244 . S
O69 C59 1.272 . S
O69 Co61 2.135 . S
Co70 O71 2.216 . S
Co70 O72 2.091 . S
Co70 O74 2.004 . S
Co70 O80 2.021 . S
Co70 O82 2.137 . S
Co70 O83 2.244 . S
O71 Co70 2.216 . S
O71 C78 1.247 . S
O72 Co70 2.091 . S
O72 C78 1.261 . S
C73 O82 1.247 . S
C73 O83 1.272 . S
O74 Co70 2.004 . S
O74 C79 1.259 . S
Co75 O76 2.061 . S
Co75 O81 2.052 . S
Co75 O83 2.135 . S
O76 Co75 2.061 . S
O76 C79 1.235 . S
C77 O80 1.238 . S
C77 O81 1.241 . S
C78 O71 1.247 . S
C78 O72 1.261 . S
C79 O74 1.259 . S
C79 O76 1.235 . S
O80 Co70 2.021 . S
O80 C77 1.238 . S
O81 Co75 2.052 . S
O81 C77 1.241 . S
O82 Co70 2.137 . S
O82 C73 1.247 . S
O83 Co70 2.244 . S
O83 C73 1.272 . S
O83 Co75 2.135 . S
Co84 O85 2.216 . S
Co84 O86 2.091 . S
Co84 O88 2.004 . S
Co84 O94 2.021 . S
Co84 O96 2.137 . S
Co84 O97 2.244 . S
O85 Co84 2.216 . S
O85 C92 1.247 . S
O86 Co84 2.091 . S
O86 C92 1.261 . S
C87 O96 1.247 . S
C87 O97 1.272 . S
O88 Co84 2.004 . S
O88 C93 1.259 . S
Co89 O90 2.061 . S
Co89 O95 2.052 . S
Co89 O97 2.135 . S
O90 Co89 2.061 . S
O90 C93 1.235 . S
C91 O94 1.238 . S
C91 O95 1.241 . S
C92 O85 1.247 . S
C92 O86 1.261 . S
C93 O88 1.259 . S
C93 O90 1.235 . S
O94 Co84 2.021 . S
O94 C91 1.238 . S
O95 Co89 2.052 . S
O95 C91 1.241 . S
O96 Co84 2.137 . S
O96 C87 1.247 . S
O97 Co84 2.244 . S
O97 C87 1.272 . S
O97 Co89 2.135 . S
Co98 O99 2.216 . S
Co98 O100 2.091 . S
Co98 O102 2.004 . S
Co98 O108 2.021 . S
Co98 O110 2.137 . S
Co98 O111 2.244 . S
O99 Co98 2.216 . S
O99 C106 1.247 . S
O100 Co98 2.091 . S
O100 C106 1.261 . S
C101 O110 1.247 . S
C101 O111 1.272 . S
O102 Co98 2.004 . S
O102 C107 1.259 . S
Co103 O104 2.061 . S
Co103 O109 2.052 . S
Co103 O111 2.135 . S
O104 Co103 2.061 . S
O104 C107 1.235 . S
C105 O108 1.238 . S
C105 O109 1.241 . S
C106 O99 1.247 . S
C106 O100 1.261 . S
C107 O102 1.259 . S
C107 O104 1.235 . S
O108 Co98 2.021 . S
O108 C105 1.238 . S
O109 Co103 2.052 . S
O109 C105 1.241 . S
O110 Co98 2.137 . S
O110 C101 1.247 . S
O111 Co98 2.244 . S
O111 C101 1.272 . S
O111 Co103 2.135 . S
Co112 O113 2.216 . S
Co112 O114 2.091 . S
Co112 O116 2.004 . S
Co112 O122 2.021 . S
Co112 O124 2.137 . S
Co112 O125 2.244 . S
O113 Co112 2.216 . S
O113 C120 1.247 . S
O114 Co112 2.091 . S
O114 C120 1.261 . S
C115 O124 1.247 . S
C115 O125 1.272 . S
O116 Co112 2.004 . S
O116 C121 1.259 . S
Co117 O118 2.061 . S
Co117 O123 2.052 . S
Co117 O125 2.135 . S
O118 Co117 2.061 . S
O118 C121 1.235 . S
C119 O122 1.238 . S
C119 O123 1.241 . S
C120 O113 1.247 . S
C120 O114 1.261 . S
C121 O116 1.259 . S
C121 O118 1.235 . S
O122 Co112 2.021 . S
O122 C119 1.238 . S
O123 Co117 2.052 . S
O123 C119 1.241 . S
O124 Co112 2.137 . S
O124 C115 1.247 . S
O125 Co112 2.244 . S
O125 C115 1.272 . S
O125 Co117 2.135 . S
Co126 O127 2.216 . S
Co126 O128 2.091 . S
Co126 O130 2.004 . S
Co126 O136 2.021 . S
Co126 O138 2.137 . S
Co126 O139 2.244 . S
O127 Co126 2.216 . S
O127 C134 1.247 . S
O128 Co126 2.091 . S
O128 C134 1.261 . S
C129 O138 1.247 . S
C129 O139 1.272 . S
O130 Co126 2.004 . S
O130 C135 1.259 . S
Co131 O132 2.061 . S
Co131 O137 2.052 . S
Co131 O139 2.135 . S
O132 Co131 2.061 . S
O132 C135 1.235 . S
C133 O136 1.238 . S
C133 O137 1.241 . S
C134 O127 1.247 . S
C134 O128 1.261 . S
C135 O130 1.259 . S
C135 O132 1.235 . S
O136 Co126 2.021 . S
O136 C133 1.238 . S
O137 Co131 2.052 . S
O137 C133 1.241 . S
O138 Co126 2.137 . S
O138 C129 1.247 . S
O139 Co126 2.244 . S
O139 C129 1.272 . S
O139 Co131 2.135 . S
Co140 O141 2.216 . S
Co140 O142 2.091 . S
Co140 O144 2.004 . S
Co140 O150 2.021 . S
Co140 O152 2.137 . S
Co140 O153 2.244 . S
O141 Co140 2.216 . S
O141 C148 1.247 . S
O142 Co140 2.091 . S
O142 C148 1.261 . S
C143 O152 1.247 . S
C143 O153 1.272 . S
O144 Co140 2.004 . S
O144 C149 1.259 . S
Co145 O146 2.061 . S
Co145 O151 2.052 . S
Co145 O153 2.135 . S
O146 Co145 2.061 . S
O146 C149 1.235 . S
C147 O150 1.238 . S
C147 O151 1.241 . S
C148 O141 1.247 . S
C148 O142 1.261 . S
C149 O144 1.259 . S
C149 O146 1.235 . S
O150 Co140 2.021 . S
O150 C147 1.238 . S
O151 Co145 2.052 . S
O151 C147 1.241 . S
O152 Co140 2.137 . S
O152 C143 1.247 . S
O153 Co140 2.244 . S
O153 C143 1.272 . S
O153 Co145 2.135 . S
Co154 O155 2.216 . S
Co154 O156 2.091 . S
Co154 O158 2.004 . S
Co154 O164 2.021 . S
Co154 O166 2.137 . S
Co154 O167 2.244 . S
O155 Co154 2.216 . S
O155 C162 1.247 . S
O156 Co154 2.091 . S
O156 C162 1.261 . S
C157 O166 1.247 . S
C157 O167 1.272 . S
O158 Co154 2.004 . S
O158 C163 1.259 . S
Co159 O160 2.061 . S
Co159 O165 2.052 . S
Co159 O167 2.135 . S
O160 Co159 2.061 . S
O160 C163 1.235 . S
C161 O164 1.238 . S
C161 O165 1.241 . S
C162 O155 1.247 . S
C162 O156 1.261 . S
C163 O158 1.259 . S
C163 O160 1.235 . S
O164 Co154 2.021 . S
O164 C161 1.238 . S
O165 Co159 2.052 . S
O165 C161 1.241 . S
O166 Co154 2.137 . S
O166 C157 1.247 . S
O167 Co154 2.244 . S
O167 C157 1.272 . S
O167 Co159 2.135 . S
Co168 O169 2.216 . S
Co168 O170 2.091 . S
Co168 O172 2.004 . S
Co168 O178 2.021 . S
Co168 O180 2.137 . S
Co168 O181 2.244 . S
O169 Co168 2.216 . S
O169 C176 1.247 . S
O170 Co168 2.091 . S
O170 C176 1.261 . S
C171 O180 1.247 . S
C171 O181 1.272 . S
O172 Co168 2.004 . S
O172 C177 1.259 . S
Co173 O174 2.061 . S
Co173 O179 2.052 . S
Co173 O181 2.135 . S
O174 Co173 2.061 . S
O174 C177 1.235 . S
C175 O178 1.238 . S
C175 O179 1.241 . S
C176 O169 1.247 . S
C176 O170 1.261 . S
C177 O172 1.259 . S
C177 O174 1.235 . S
O178 Co168 2.021 . S
O178 C175 1.238 . S
O179 Co173 2.052 . S
O179 C175 1.241 . S
O180 Co168 2.137 . S
O180 C171 1.247 . S
O181 Co168 2.244 . S
O181 C171 1.272 . S
O181 Co173 2.135 . S
Co182 O183 2.216 . S
Co182 O184 2.091 . S
Co182 O186 2.004 . S
Co182 O192 2.021 . S
Co182 O194 2.137 . S
Co182 O195 2.244 . S
O183 Co182 2.216 . S
O183 C190 1.247 . S
O184 Co182 2.091 . S
O184 C190 1.261 . S
C185 O194 1.247 . S
C185 O195 1.272 . S
O186 Co182 2.004 . S
O186 C191 1.259 . S
Co187 O188 2.061 . S
Co187 O193 2.052 . S
Co187 O195 2.135 . S
O188 Co187 2.061 . S
O188 C191 1.235 . S
C189 O192 1.238 . S
C189 O193 1.241 . S
C190 O183 1.247 . S
C190 O184 1.261 . S
C191 O186 1.259 . S
C191 O188 1.235 . S
O192 Co182 2.021 . S
O192 C189 1.238 . S
O193 Co187 2.052 . S
O193 C189 1.241 . S
O194 Co182 2.137 . S
O194 C185 1.247 . S
O195 Co182 2.244 . S
O195 C185 1.272 . S
O195 Co187 2.135 . S
Co196 O197 2.216 . S
Co196 O198 2.091 . S
Co196 O200 2.004 . S
Co196 O206 2.021 . S
Co196 O208 2.137 . S
Co196 O209 2.244 . S
O197 Co196 2.216 . S
O197 C204 1.247 . S
O198 Co196 2.091 . S
O198 C204 1.261 . S
C199 O208 1.247 . S
C199 O209 1.272 . S
O200 Co196 2.004 . S
O200 C205 1.259 . S
Co201 O202 2.061 . S
Co201 O207 2.052 . S
Co201 O209 2.135 . S
O202 Co201 2.061 . S
O202 C205 1.235 . S
C203 O206 1.238 . S
C203 O207 1.241 . S
C204 O197 1.247 . S
C204 O198 1.261 . S
C205 O200 1.259 . S
C205 O202 1.235 . S
O206 Co196 2.021 . S
O206 C203 1.238 . S
O207 Co201 2.052 . S
O207 C203 1.241 . S
O208 Co196 2.137 . S
O208 C199 1.247 . S
O209 Co196 2.244 . S
O209 C199 1.272 . S
O209 Co201 2.135 . S
Co210 O211 2.216 . S
Co210 O212 2.091 . S
Co210 O214 2.004 . S
Co210 O220 2.021 . S
Co210 O222 2.137 . S
Co210 O223 2.244 . S
O211 Co210 2.216 . S
O211 C218 1.247 . S
O212 Co210 2.091 . S
O212 C218 1.261 . S
C213 O222 1.247 . S
C213 O223 1.272 . S
O214 Co210 2.004 . S
O214 C219 1.259 . S
Co215 O216 2.061 . S
Co215 O221 2.052 . S
Co215 O223 2.135 . S
O216 Co215 2.061 . S
O216 C219 1.235 . S
C217 O220 1.238 . S
C217 O221 1.241 . S
C218 O211 1.247 . S
C218 O212 1.261 . S
C219 O214 1.259 . S
C219 O216 1.235 . S
O220 Co210 2.021 . S
O220 C217 1.238 . S
O221 Co215 2.052 . S
O221 C217 1.241 . S
O222 Co210 2.137 . S
O222 C213 1.247 . S
O223 Co210 2.244 . S
O223 C213 1.272 . S
O223 Co215 2.135 . S
Co224 O225 2.216 . S
Co224 O226 2.091 . S
Co224 O228 2.004 . S
Co224 O234 2.021 . S
Co224 O236 2.137 . S
Co224 O237 2.244 . S
O225 Co224 2.216 . S
O225 C232 1.247 . S
O226 Co224 2.091 . S
O226 C232 1.261 . S
C227 O236 1.247 . S
C227 O237 1.272 . S
O228 Co224 2.004 . S
O228 C233 1.259 . S
Co229 O230 2.061 . S
Co229 O235 2.052 . S
Co229 O237 2.135 . S
O230 Co229 2.061 . S
O230 C233 1.235 . S
C231 O234 1.238 . S
C231 O235 1.241 . S
C232 O225 1.247 . S
C232 O226 1.261 . S
C233 O228 1.259 . S
C233 O230 1.235 . S
O234 Co224 2.021 . S
O234 C231 1.238 . S
O235 Co229 2.052 . S
O235 C231 1.241 . S
O236 Co224 2.137 . S
O236 C227 1.247 . S
O237 Co224 2.244 . S
O237 C227 1.272 . S
O237 Co229 2.135 . S
Co238 O239 2.216 . S
Co238 O240 2.091 . S
Co238 O242 2.004 . S
Co238 O248 2.021 . S
Co238 O250 2.137 . S
Co238 O251 2.244 . S
O239 Co238 2.216 . S
O239 C246 1.247 . S
O240 Co238 2.091 . S
O240 C246 1.261 . S
C241 O250 1.247 . S
C241 O251 1.272 . S
O242 Co238 2.004 . S
O242 C247 1.259 . S
Co243 O244 2.061 . S
Co243 O249 2.052 . S
Co243 O251 2.135 . S
O244 Co243 2.061 . S
O244 C247 1.235 . S
C245 O248 1.238 . S
C245 O249 1.241 . S
C246 O239 1.247 . S
C246 O240 1.261 . S
C247 O242 1.259 . S
C247 O244 1.235 . S
O248 Co238 2.021 . S
O248 C245 1.238 . S
O249 Co243 2.052 . S
O249 C245 1.241 . S
O250 Co238 2.137 . S
O250 C241 1.247 . S
O251 Co238 2.244 . S
O251 C241 1.272 . S
O251 Co243 2.135 . S
Co252 O253 2.216 . S
Co252 O254 2.091 . S
Co252 O256 2.004 . S
Co252 O262 2.021 . S
Co252 O264 2.137 . S
Co252 O265 2.244 . S
O253 Co252 2.216 . S
O253 C260 1.247 . S
O254 Co252 2.091 . S
O254 C260 1.261 . S
C255 O264 1.247 . S
C255 O265 1.272 . S
O256 Co252 2.004 . S
O256 C261 1.259 . S
Co257 O258 2.061 . S
Co257 O263 2.052 . S
Co257 O265 2.135 . S
O258 Co257 2.061 . S
O258 C261 1.235 . S
C259 O262 1.238 . S
C259 O263 1.241 . S
C260 O253 1.247 . S
C260 O254 1.261 . S
C261 O256 1.259 . S
C261 O258 1.235 . S
O262 Co252 2.021 . S
O262 C259 1.238 . S
O263 Co257 2.052 . S
O263 C259 1.241 . S
O264 Co252 2.137 . S
O264 C255 1.247 . S
O265 Co252 2.244 . S
O265 C255 1.272 . S
O265 Co257 2.135 . S
Co266 O267 2.216 . S
Co266 O268 2.091 . S
Co266 O270 2.004 . S
Co266 O276 2.021 . S
Co266 O278 2.137 . S
Co266 O279 2.244 . S
O267 Co266 2.216 . S
O267 C274 1.247 . S
O268 Co266 2.091 . S
O268 C274 1.261 . S
C269 O278 1.247 . S
C269 O279 1.272 . S
O270 Co266 2.004 . S
O270 C275 1.259 . S
Co271 O272 2.061 . S
Co271 O277 2.052 . S
Co271 O279 2.135 . S
O272 Co271 2.061 . S
O272 C275 1.235 . S
C273 O276 1.238 . S
C273 O277 1.241 . S
C274 O267 1.247 . S
C274 O268 1.261 . S
C275 O270 1.259 . S
C275 O272 1.235 . S
O276 Co266 2.021 . S
O276 C273 1.238 . S
O277 Co271 2.052 . S
O277 C273 1.241 . S
O278 Co266 2.137 . S
O278 C269 1.247 . S
O279 Co266 2.244 . S
O279 C269 1.272 . S
O279 Co271 2.135 . S
Co280 O281 2.216 . S
Co280 O282 2.091 . S
Co280 O284 2.004 . S
Co280 O290 2.021 . S
Co280 O292 2.137 . S
Co280 O293 2.244 . S
O281 Co280 2.216 . S
O281 C288 1.247 . S
O282 Co280 2.091 . S
O282 C288 1.261 . S
C283 O292 1.247 . S
C283 O293 1.272 . S
O284 Co280 2.004 . S
O284 C289 1.259 . S
Co285 O286 2.061 . S
Co285 O291 2.052 . S
Co285 O293 2.135 . S
O286 Co285 2.061 . S
O286 C289 1.235 . S
C287 O290 1.238 . S
C287 O291 1.241 . S
C288 O281 1.247 . S
C288 O282 1.261 . S
C289 O284 1.259 . S
C289 O286 1.235 . S
O290 Co280 2.021 . S
O290 C287 1.238 . S
O291 Co285 2.052 . S
O291 C287 1.241 . S
O292 Co280 2.137 . S
O292 C283 1.247 . S
O293 Co280 2.244 . S
O293 C283 1.272 . S
O293 Co285 2.135 . S
Co294 O295 2.216 . S
Co294 O296 2.091 . S
Co294 O298 2.004 . S
Co294 O304 2.021 . S
Co294 O306 2.137 . S
Co294 O307 2.244 . S
O295 Co294 2.216 . S
O295 C302 1.247 . S
O296 Co294 2.091 . S
O296 C302 1.261 . S
C297 O306 1.247 . S
C297 O307 1.272 . S
O298 Co294 2.004 . S
O298 C303 1.259 . S
Co299 O300 2.061 . S
Co299 O305 2.052 . S
Co299 O307 2.135 . S
O300 Co299 2.061 . S
O300 C303 1.235 . S
C301 O304 1.238 . S
C301 O305 1.241 . S
C302 O295 1.247 . S
C302 O296 1.261 . S
C303 O298 1.259 . S
C303 O300 1.235 . S
O304 Co294 2.021 . S
O304 C301 1.238 . S
O305 Co299 2.052 . S
O305 C301 1.241 . S
O306 Co294 2.137 . S
O306 C297 1.247 . S
O307 Co294 2.244 . S
O307 C297 1.272 . S
O307 Co299 2.135 . S
Co308 O309 2.216 . S
Co308 O310 2.091 . S
Co308 O312 2.004 . S
Co308 O318 2.021 . S
Co308 O320 2.137 . S
Co308 O321 2.244 . S
O309 Co308 2.216 . S
O309 C316 1.247 . S
O310 Co308 2.091 . S
O310 C316 1.261 . S
C311 O320 1.247 . S
C311 O321 1.272 . S
O312 Co308 2.004 . S
O312 C317 1.259 . S
Co313 O314 2.061 . S
Co313 O319 2.052 . S
Co313 O321 2.135 . S
O314 Co313 2.061 . S
O314 C317 1.235 . S
C315 O318 1.238 . S
C315 O319 1.241 . S
C316 O309 1.247 . S
C316 O310 1.261 . S
C317 O312 1.259 . S
C317 O314 1.235 . S
O318 Co308 2.021 . S
O318 C315 1.238 . S
O319 Co313 2.052 . S
O319 C315 1.241 . S
O320 Co308 2.137 . S
O320 C311 1.247 . S
O321 Co308 2.244 . S
O321 C311 1.272 . S
O321 Co313 2.135 . S
Co322 O323 2.216 . S
Co322 O324 2.091 . S
Co322 O326 2.004 . S
Co322 O332 2.021 . S
Co322 O334 2.137 . S
Co322 O335 2.244 . S
O323 Co322 2.216 . S
O323 C330 1.247 . S
O324 Co322 2.091 . S
O324 C330 1.261 . S
C325 O334 1.247 . S
C325 O335 1.272 . S
O326 Co322 2.004 . S
O326 C331 1.259 . S
Co327 O328 2.061 . S
Co327 O333 2.052 . S
Co327 O335 2.135 . S
O328 Co327 2.061 . S
O328 C331 1.235 . S
C329 O332 1.238 . S
C329 O333 1.241 . S
C330 O323 1.247 . S
C330 O324 1.261 . S
C331 O326 1.259 . S
C331 O328 1.235 . S
O332 Co322 2.021 . S
O332 C329 1.238 . S
O333 Co327 2.052 . S
O333 C329 1.241 . S
O334 Co322 2.137 . S
O334 C325 1.247 . S
O335 Co322 2.244 . S
O335 C325 1.272 . S
O335 Co327 2.135 . S
Co336 O337 2.216 . S
Co336 O338 2.091 . S
Co336 O340 2.004 . S
Co336 O346 2.021 . S
Co336 O348 2.137 . S
Co336 O349 2.244 . S
O337 Co336 2.216 . S
O337 C344 1.247 . S
O338 Co336 2.091 . S
O338 C344 1.261 . S
C339 O348 1.247 . S
C339 O349 1.272 . S
O340 Co336 2.004 . S
O340 C345 1.259 . S
Co341 O342 2.061 . S
Co341 O347 2.052 . S
Co341 O349 2.135 . S
O342 Co341 2.061 . S
O342 C345 1.235 . S
C343 O346 1.238 . S
C343 O347 1.241 . S
C344 O337 1.247 . S
C344 O338 1.261 . S
C345 O340 1.259 . S
C345 O342 1.235 . S
O346 Co336 2.021 . S
O346 C343 1.238 . S
O347 Co341 2.052 . S
O347 C343 1.241 . S
O348 Co336 2.137 . S
O348 C339 1.247 . S
O349 Co336 2.244 . S
O349 C339 1.272 . S
O349 Co341 2.135 . S
Co350 O351 2.216 . S
Co350 O352 2.091 . S
Co350 O354 2.004 . S
Co350 O360 2.021 . S
Co350 O362 2.137 . S
Co350 O363 2.244 . S
O351 Co350 2.216 . S
O351 C358 1.247 . S
O352 Co350 2.091 . S
O352 C358 1.261 . S
C353 O362 1.247 . S
C353 O363 1.272 . S
O354 Co350 2.004 . S
O354 C359 1.259 . S
Co355 O356 2.061 . S
Co355 O361 2.052 . S
Co355 O363 2.135 . S
O356 Co355 2.061 . S
O356 C359 1.235 . S
C357 O360 1.238 . S
C357 O361 1.241 . S
C358 O351 1.247 . S
C358 O352 1.261 . S
C359 O354 1.259 . S
C359 O356 1.235 . S
O360 Co350 2.021 . S
O360 C357 1.238 . S
O361 Co355 2.052 . S
O361 C357 1.241 . S
O362 Co350 2.137 . S
O362 C353 1.247 . S
O363 Co350 2.244 . S
O363 C353 1.272 . S
O363 Co355 2.135 . S
Co364 O365 2.216 . S
Co364 O366 2.091 . S
Co364 O368 2.004 . S
Co364 O374 2.021 . S
Co364 O376 2.137 . S
Co364 O377 2.244 . S
O365 Co364 2.216 . S
O365 C372 1.247 . S
O366 Co364 2.091 . S
O366 C372 1.261 . S
C367 O376 1.247 . S
C367 O377 1.272 . S
O368 Co364 2.004 . S
O368 C373 1.259 . S
Co369 O370 2.061 . S
Co369 O375 2.052 . S
Co369 O377 2.135 . S
O370 Co369 2.061 . S
O370 C373 1.235 . S
C371 O374 1.238 . S
C371 O375 1.241 . S
C372 O365 1.247 . S
C372 O366 1.261 . S
C373 O368 1.259 . S
C373 O370 1.235 . S
O374 Co364 2.021 . S
O374 C371 1.238 . S
O375 Co369 2.052 . S
O375 C371 1.241 . S
O376 Co364 2.137 . S
O376 C367 1.247 . S
O377 Co364 2.244 . S
O377 C367 1.272 . S
O377 Co369 2.135 . S
Co378 O379 2.216 . S
Co378 O380 2.091 . S
Co378 O382 2.004 . S
Co378 O388 2.021 . S
Co378 O390 2.137 . S
Co378 O391 2.244 . S
O379 Co378 2.216 . S
O379 C386 1.247 . S
O380 Co378 2.091 . S
O380 C386 1.261 . S
C381 O390 1.247 . S
C381 O391 1.272 . S
O382 Co378 2.004 . S
O382 C387 1.259 . S
Co383 O384 2.061 . S
Co383 O389 2.052 . S
Co383 O391 2.135 . S
O384 Co383 2.061 . S
O384 C387 1.235 . S
C385 O388 1.238 . S
C385 O389 1.241 . S
C386 O379 1.247 . S
C386 O380 1.261 . S
C387 O382 1.259 . S
C387 O384 1.235 . S
O388 Co378 2.021 . S
O388 C385 1.238 . S
O389 Co383 2.052 . S
O389 C385 1.241 . S
O390 Co378 2.137 . S
O390 C381 1.247 . S
O391 Co378 2.244 . S
O391 C381 1.272 . S
O391 Co383 2.135 . S
Co392 O393 2.216 . S
Co392 O394 2.091 . S
Co392 O396 2.004 . S
Co392 O402 2.021 . S
Co392 O404 2.137 . S
Co392 O405 2.244 . S
O393 Co392 2.216 . S
O393 C400 1.247 . S
O394 Co392 2.091 . S
O394 C400 1.261 . S
C395 O404 1.247 . S
C395 O405 1.272 . S
O396 Co392 2.004 . S
O396 C401 1.259 . S
Co397 O398 2.061 . S
Co397 O403 2.052 . S
Co397 O405 2.135 . S
O398 Co397 2.061 . S
O398 C401 1.235 . S
C399 O402 1.238 . S
C399 O403 1.241 . S
C400 O393 1.247 . S
C400 O394 1.261 . S
C401 O396 1.259 . S
C401 O398 1.235 . S
O402 Co392 2.021 . S
O402 C399 1.238 . S
O403 Co397 2.052 . S
O403 C399 1.241 . S
O404 Co392 2.137 . S
O404 C395 1.247 . S
O405 Co392 2.244 . S
O405 C395 1.272 . S
O405 Co397 2.135 . S
Co406 O407 2.216 . S
Co406 O408 2.091 . S
Co406 O410 2.004 . S
Co406 O416 2.021 . S
Co406 O418 2.137 . S
Co406 O419 2.244 . S
O407 Co406 2.216 . S
O407 C414 1.247 . S
O408 Co406 2.091 . S
O408 C414 1.261 . S
C409 O418 1.247 . S
C409 O419 1.272 . S
O410 Co406 2.004 . S
O410 C415 1.259 . S
Co411 O412 2.061 . S
Co411 O417 2.052 . S
Co411 O419 2.135 . S
O412 Co411 2.061 . S
O412 C415 1.235 . S
C413 O416 1.238 . S
C413 O417 1.241 . S
C414 O407 1.247 . S
C414 O408 1.261 . S
C415 O410 1.259 . S
C415 O412 1.235 . S
O416 Co406 2.021 . S
O416 C413 1.238 . S
O417 Co411 2.052 . S
O417 C413 1.241 . S
O418 Co406 2.137 . S
O418 C409 1.247 . S
O419 Co406 2.244 . S
O419 C409 1.272 . S
O419 Co411 2.135 . S
Co420 O421 2.216 . S
Co420 O422 2.091 . S
Co420 O424 2.004 . S
Co420 O430 2.021 . S
Co420 O432 2.137 . S
Co420 O433 2.244 . S
O421 Co420 2.216 . S
O421 C428 1.247 . S
O422 Co420 2.091 . S
O422 C428 1.261 . S
C423 O432 1.247 . S
C423 O433 1.272 . S
O424 Co420 2.004 . S
O424 C429 1.259 . S
Co425 O426 2.061 . S
Co425 O431 2.052 . S
Co425 O433 2.135 . S
O426 Co425 2.061 . S
O426 C429 1.235 . S
C427 O430 1.238 . S
C427 O431 1.241 . S
C428 O421 1.247 . S
C428 O422 1.261 . S
C429 O424 1.259 . S
C429 O426 1.235 . S
O430 Co420 2.021 . S
O430 C427 1.238 . S
O431 Co425 2.052 . S
O431 C427 1.241 . S
O432 Co420 2.137 . S
O432 C423 1.247 . S
O433 Co420 2.244 . S
O433 C423 1.272 . S
O433 Co425 2.135 . S
Co434 O435 2.216 . S
Co434 O436 2.091 . S
Co434 O438 2.004 . S
Co434 O444 2.021 . S
Co434 O446 2.137 . S
Co434 O447 2.244 . S
O435 Co434 2.216 . S
O435 C442 1.247 . S
O436 Co434 2.091 . S
O436 C442 1.261 . S
C437 O446 1.247 . S
C437 O447 1.272 . S
O438 Co434 2.004 . S
O438 C443 1.259 . S
Co439 O440 2.061 . S
Co439 O445 2.052 . S
Co439 O447 2.135 . S
O440 Co439 2.061 . S
O440 C443 1.235 . S
C441 O444 1.238 . S
C441 O445 1.241 . S
C442 O435 1.247 . S
C442 O436 1.261 . S
C443 O438 1.259 . S
C443 O440 1.235 . S
O444 Co434 2.021 . S
O444 C441 1.238 . S
O445 Co439 2.052 . S
O445 C441 1.241 . S
O446 Co434 2.137 . S
O446 C437 1.247 . S
O447 Co434 2.244 . S
O447 C437 1.272 . S
O447 Co439 2.135 . S
H448 C466 0.951 . S
H449 C468 0.951 . S
H450 C470 0.950 . S
H451 C471 0.950 . S
H452 C473 0.950 . S
H453 C476 0.950 . S
H454 C477 0.950 . S
H455 C479 0.950 . S
H456 C480 0.950 . S
H457 C481 0.951 . S
H458 C483 0.951 . S
H459 C485 0.950 . S
H460 C486 0.950 . S
H461 C488 0.950 . S
H462 C491 0.950 . S
H463 C492 0.950 . S
H464 C494 0.950 . S
H465 C495 0.950 . S
C466 H448 0.951 . S
C466 C467 1.366 . S
C466 C468 1.388 . S
C467 C466 1.366 . S
C467 C471 1.385 . S
C468 H449 0.951 . S
C468 C466 1.388 . S
C468 C469 1.366 . S
C469 C468 1.366 . S
C469 C470 1.414 . S
C469 C472 1.499 . S
C470 H450 0.950 . S
C470 C469 1.414 . S
C470 C471 1.374 . S
C471 H451 0.950 . S
C471 C467 1.385 . S
C471 C470 1.374 . S
C472 C469 1.499 . S
C472 C473 1.373 . S
C472 C474 1.389 . S
C473 H452 0.950 . S
C473 C472 1.373 . S
C473 C489 1.377 . S
C474 C472 1.389 . S
C474 C475 1.524 . S
C474 C488 1.377 . S
C475 C474 1.524 . S
C475 C476 1.397 . S
C475 C480 1.363 . S
C476 H453 0.950 . S
C476 C475 1.397 . S
C476 C477 1.334 . S
C477 H454 0.950 . S
C477 C476 1.334 . S
C477 C478 1.287 . S
C478 C477 1.287 . S
C478 C479 1.524 . S
C478 H497 0.913 . S
C479 H455 0.950 . S
C479 C478 1.524 . S
C479 C480 1.415 . S
C480 H456 0.950 . S
C480 C475 1.363 . S
C480 C479 1.415 . S
C481 H457 0.951 . S
C481 C482 1.366 . S
C481 C483 1.388 . S
C482 C481 1.366 . S
C482 C486 1.385 . S
C483 H458 0.951 . S
C483 C481 1.388 . S
C483 C484 1.366 . S
C484 C483 1.366 . S
C484 C485 1.414 . S
C484 C487 1.499 . S
C485 H459 0.950 . S
C485 C484 1.414 . S
C485 C486 1.374 . S
C486 H460 0.950 . S
C486 C482 1.385 . S
C486 C485 1.374 . S
C487 C484 1.499 . S
C487 C488 1.373 . S
C487 C489 1.389 . S
C488 H461 0.950 . S
C488 C474 1.377 . S
C488 C487 1.373 . S
C489 C473 1.377 . S
C489 C487 1.389 . S
C489 C490 1.524 . S
C490 C489 1.524 . S
C490 C491 1.397 . S
C490 C495 1.363 . S
C491 H462 0.950 . S
C491 C490 1.397 . S
C491 C492 1.334 . S
C492 H463 0.950 . S
C492 C491 1.334 . S
C492 C493 1.287 . S
C493 C492 1.287 . S
C493 C494 1.524 . S
C493 H496 0.999 . S
C494 H464 0.950 . S
C494 C493 1.524 . S
C494 C495 1.415 . S
C495 H465 0.950 . S
C495 C490 1.363 . S
C495 C494 1.415 . S
H496 C493 0.999 . S
H497 C478 0.913 . S
H498 C516 0.951 . S
H499 C518 0.951 . S
H500 C520 0.950 . S
H501 C521 0.950 . S
H502 C523 0.950 . S
H503 C526 0.950 . S
H504 C527 0.950 . S
H505 C529 0.950 . S
H506 C530 0.950 . S
H507 C531 0.951 . S
H508 C533 0.951 . S
H509 C535 0.950 . S
H510 C536 0.950 . S
H511 C538 0.950 . S
H512 C541 0.950 . S
H513 C542 0.950 . S
H514 C544 0.950 . S
H515 C545 0.950 . S
C516 H498 0.951 . S
C516 C517 1.366 . S
C516 C518 1.388 . S
C517 C516 1.366 . S
C517 C521 1.385 . S
C518 H499 0.951 . S
C518 C516 1.388 . S
C518 C519 1.366 . S
C519 C518 1.366 . S
C519 C520 1.414 . S
C519 C522 1.499 . S
C520 H500 0.950 . S
C520 C519 1.414 . S
C520 C521 1.374 . S
C521 H501 0.950 . S
C521 C517 1.385 . S
C521 C520 1.374 . S
C522 C519 1.499 . S
C522 C523 1.373 . S
C522 C524 1.389 . S
C523 H502 0.950 . S
C523 C522 1.373 . S
C523 C539 1.377 . S
C524 C522 1.389 . S
C524 C525 1.524 . S
C524 C538 1.377 . S
C525 C524 1.524 . S
C525 C526 1.397 . S
C525 C530 1.363 . S
C526 H503 0.950 . S
C526 C525 1.397 . S
C526 C527 1.334 . S
C527 H504 0.950 . S
C527 C526 1.334 . S
C527 C528 1.287 . S
C528 C527 1.287 . S
C528 C529 1.524 . S
C528 H547 0.913 . S
C529 H505 0.950 . S
C529 C528 1.524 . S
C529 C530 1.415 . S
C530 H506 0.950 . S
C530 C525 1.363 . S
C530 C529 1.415 . S
C531 H507 0.951 . S
C531 C532 1.366 . S
C531 C533 1.388 . S
C532 C531 1.366 . S
C532 C536 1.385 . S
C533 H508 0.951 . S
C533 C531 1.388 . S
C533 C534 1.366 . S
C534 C533 1.366 . S
C534 C535 1.414 . S
C534 C537 1.499 . S
C535 H509 0.950 . S
C535 C534 1.414 . S
C535 C536 1.374 . S
C536 H510 0.950 . S
C536 C532 1.385 . S
C536 C535 1.374 . S
C537 C534 1.499 . S
C537 C538 1.373 . S
C537 C539 1.389 . S
C538 H511 0.950 . S
C538 C524 1.377 . S
C538 C537 1.373 . S
C539 C523 1.377 . S
C539 C537 1.389 . S
C539 C540 1.524 . S
C540 C539 1.524 . S
C540 C541 1.397 . S
C540 C545 1.363 . S
C541 H512 0.950 . S
C541 C540 1.397 . S
C541 C542 1.334 . S
C542 H513 0.950 . S
C542 C541 1.334 . S
C542 C543 1.287 . S
C543 C542 1.287 . S
C543 C544 1.524 . S
C543 H546 0.999 . S
C544 H514 0.950 . S
C544 C543 1.524 . S
C544 C545 1.415 . S
C545 H515 0.950 . S
C545 C540 1.363 . S
C545 C544 1.415 . S
H546 C543 0.999 . S
H547 C528 0.913 . S
H548 C566 0.951 . S
H549 C568 0.951 . S
H550 C570 0.950 . S
H551 C571 0.950 . S
H552 C573 0.950 . S
H553 C576 0.950 . S
H554 C577 0.950 . S
H555 C579 0.950 . S
H556 C580 0.950 . S
H557 C581 0.951 . S
H558 C583 0.951 . S
H559 C585 0.950 . S
H560 C586 0.950 . S
H561 C588 0.950 . S
H562 C591 0.950 . S
H563 C592 0.950 . S
H564 C594 0.950 . S
H565 C595 0.950 . S
C566 H548 0.951 . S
C566 C567 1.366 . S
C566 C568 1.388 . S
C567 C566 1.366 . S
C567 C571 1.385 . S
C568 H549 0.951 . S
C568 C566 1.388 . S
C568 C569 1.366 . S
C569 C568 1.366 . S
C569 C570 1.414 . S
C569 C572 1.499 . S
C570 H550 0.950 . S
C570 C569 1.414 . S
C570 C571 1.374 . S
C571 H551 0.950 . S
C571 C567 1.385 . S
C571 C570 1.374 . S
C572 C569 1.499 . S
C572 C573 1.373 . S
C572 C574 1.389 . S
C573 H552 0.950 . S
C573 C572 1.373 . S
C573 C589 1.377 . S
C574 C572 1.389 . S
C574 C575 1.524 . S
C574 C588 1.377 . S
C575 C574 1.524 . S
C575 C576 1.397 . S
C575 C580 1.363 . S
C576 H553 0.950 . S
C576 C575 1.397 . S
C576 C577 1.334 . S
C577 H554 0.950 . S
C577 C576 1.334 . S
C577 C578 1.287 . S
C578 C577 1.287 . S
C578 C579 1.524 . S
C578 H597 0.913 . S
C579 H555 0.950 . S
C579 C578 1.524 . S
C579 C580 1.415 . S
C580 H556 0.950 . S
C580 C575 1.363 . S
C580 C579 1.415 . S
C581 H557 0.951 . S
C581 C582 1.366 . S
C581 C583 1.388 . S
C582 C581 1.366 . S
C582 C586 1.385 . S
C583 H558 0.951 . S
C583 C581 1.388 . S
C583 C584 1.366 . S
C584 C583 1.366 . S
C584 C585 1.414 . S
C584 C587 1.499 . S
C585 H559 0.950 . S
C585 C584 1.414 . S
C585 C586 1.374 . S
C586 H560 0.950 . S
C586 C582 1.385 . S
C586 C585 1.374 . S
C587 C584 1.499 . S
C587 C588 1.373 . S
C587 C589 1.389 . S
C588 H561 0.950 . S
C588 C574 1.377 . S
C588 C587 1.373 . S
C589 C573 1.377 . S
C589 C587 1.389 . S
C589 C590 1.524 . S
C590 C589 1.524 . S
C590 C591 1.397 . S
C590 C595 1.363 . S
C591 H562 0.950 . S
C591 C590 1.397 . S
C591 C592 1.334 . S
C592 H563 0.950 . S
C592 C591 1.334 . S
C592 C593 1.287 . S
C593 C592 1.287 . S
C593 C594 1.524 . S
C593 H596 0.999 . S
C594 H564 0.950 . S
C594 C593 1.524 . S
C594 C595 1.415 . S
C595 H565 0.950 . S
C595 C590 1.363 . S
C595 C594 1.415 . S
H596 C593 0.999 . S
H597 C578 0.913 . S
H598 C616 0.951 . S
H599 C618 0.951 . S
H600 C620 0.950 . S
H601 C621 0.950 . S
H602 C623 0.950 . S
H603 C626 0.950 . S
H604 C627 0.950 . S
H605 C629 0.950 . S
H606 C630 0.950 . S
H607 C631 0.951 . S
H608 C633 0.951 . S
H609 C635 0.950 . S
H610 C636 0.950 . S
H611 C638 0.950 . S
H612 C641 0.950 . S
H613 C642 0.950 . S
H614 C644 0.950 . S
H615 C645 0.950 . S
C616 H598 0.951 . S
C616 C617 1.366 . S
C616 C618 1.388 . S
C617 C616 1.366 . S
C617 C621 1.385 . S
C618 H599 0.951 . S
C618 C616 1.388 . S
C618 C619 1.366 . S
C619 C618 1.366 . S
C619 C620 1.414 . S
C619 C622 1.499 . S
C620 H600 0.950 . S
C620 C619 1.414 . S
C620 C621 1.374 . S
C621 H601 0.950 . S
C621 C617 1.385 . S
C621 C620 1.374 . S
C622 C619 1.499 . S
C622 C623 1.373 . S
C622 C624 1.389 . S
C623 H602 0.950 . S
C623 C622 1.373 . S
C623 C639 1.377 . S
C624 C622 1.389 . S
C624 C625 1.524 . S
C624 C638 1.377 . S
C625 C624 1.524 . S
C625 C626 1.397 . S
C625 C630 1.363 . S
C626 H603 0.950 . S
C626 C625 1.397 . S
C626 C627 1.334 . S
C627 H604 0.950 . S
C627 C626 1.334 . S
C627 C628 1.287 . S
C628 C627 1.287 . S
C628 C629 1.524 . S
C628 H647 0.913 . S
C629 H605 0.950 . S
C629 C628 1.524 . S
C629 C630 1.415 . S
C630 H606 0.950 . S
C630 C625 1.363 . S
C630 C629 1.415 . S
C631 H607 0.951 . S
C631 C632 1.366 . S
C631 C633 1.388 . S
C632 C631 1.366 . S
C632 C636 1.385 . S
C633 H608 0.951 . S
C633 C631 1.388 . S
C633 C634 1.366 . S
C634 C633 1.366 . S
C634 C635 1.414 . S
C634 C637 1.499 . S
C635 H609 0.950 . S
C635 C634 1.414 . S
C635 C636 1.374 . S
C636 H610 0.950 . S
C636 C632 1.385 . S
C636 C635 1.374 . S
C637 C634 1.499 . S
C637 C638 1.373 . S
C637 C639 1.389 . S
C638 H611 0.950 . S
C638 C624 1.377 . S
C638 C637 1.373 . S
C639 C623 1.377 . S
C639 C637 1.389 . S
C639 C640 1.524 . S
C640 C639 1.524 . S
C640 C641 1.397 . S
C640 C645 1.363 . S
C641 H612 0.950 . S
C641 C640 1.397 . S
C641 C642 1.334 . S
C642 H613 0.950 . S
C642 C641 1.334 . S
C642 C643 1.287 . S
C643 C642 1.287 . S
C643 C644 1.524 . S
C643 H646 0.999 . S
C644 H614 0.950 . S
C644 C643 1.524 . S
C644 C645 1.415 . S
C645 H615 0.950 . S
C645 C640 1.363 . S
C645 C644 1.415 . S
H646 C643 0.999 . S
H647 C628 0.913 . S
H648 C666 0.951 . S
H649 C668 0.951 . S
H650 C670 0.950 . S
H651 C671 0.950 . S
H652 C673 0.950 . S
H653 C676 0.950 . S
H654 C677 0.950 . S
H655 C679 0.950 . S
H656 C680 0.950 . S
H657 C681 0.951 . S
H658 C683 0.951 . S
H659 C685 0.950 . S
H660 C686 0.950 . S
H661 C688 0.950 . S
H662 C691 0.950 . S
H663 C692 0.950 . S
H664 C694 0.950 . S
H665 C695 0.950 . S
C666 H648 0.951 . S
C666 C667 1.366 . S
C666 C668 1.388 . S
C667 C666 1.366 . S
C667 C671 1.385 . S
C668 H649 0.951 . S
C668 C666 1.388 . S
C668 C669 1.366 . S
C669 C668 1.366 . S
C669 C670 1.414 . S
C669 C672 1.499 . S
C670 H650 0.950 . S
C670 C669 1.414 . S
C670 C671 1.374 . S
C671 H651 0.950 . S
C671 C667 1.385 . S
C671 C670 1.374 . S
C672 C669 1.499 . S
C672 C673 1.373 . S
C672 C674 1.389 . S
C673 H652 0.950 . S
C673 C672 1.373 . S
C673 C689 1.377 . S
C674 C672 1.389 . S
C674 C675 1.524 . S
C674 C688 1.377 . S
C675 C674 1.524 . S
C675 C676 1.397 . S
C675 C680 1.363 . S
C676 H653 0.950 . S
C676 C675 1.397 . S
C676 C677 1.334 . S
C677 H654 0.950 . S
C677 C676 1.334 . S
C677 C678 1.287 . S
C678 C677 1.287 . S
C678 C679 1.524 . S
C678 H697 0.913 . S
C679 H655 0.950 . S
C679 C678 1.524 . S
C679 C680 1.415 . S
C680 H656 0.950 . S
C680 C675 1.363 . S
C680 C679 1.415 . S
C681 H657 0.951 . S
C681 C682 1.366 . S
C681 C683 1.388 . S
C682 C681 1.366 . S
C682 C686 1.385 . S
C683 H658 0.951 . S
C683 C681 1.388 . S
C683 C684 1.366 . S
C684 C683 1.366 . S
C684 C685 1.414 . S
C684 C687 1.499 . S
C685 H659 0.950 . S
C685 C684 1.414 . S
C685 C686 1.374 . S
C686 H660 0.950 . S
C686 C682 1.385 . S
C686 C685 1.374 . S
C687 C684 1.499 . S
C687 C688 1.373 . S
C687 C689 1.389 . S
C688 H661 0.950 . S
C688 C674 1.377 . S
C688 C687 1.373 . S
C689 C673 1.377 . S
C689 C687 1.389 . S
C689 C690 1.524 . S
C690 C689 1.524 . S
C690 C691 1.397 . S
C690 C695 1.363 . S
C691 H662 0.950 . S
C691 C690 1.397 . S
C691 C692 1.334 . S
C692 H663 0.950 . S
C692 C691 1.334 . S
C692 C693 1.287 . S
C693 C692 1.287 . S
C693 C694 1.524 . S
C693 H696 0.999 . S
C694 H664 0.950 . S
C694 C693 1.524 . S
C694 C695 1.415 . S
C695 H665 0.950 . S
C695 C690 1.363 . S
C695 C694 1.415 . S
H696 C693 0.999 . S
H697 C678 0.913 . S
H698 C716 0.951 . S
H699 C718 0.951 . S
H700 C720 0.950 . S
H701 C721 0.950 . S
H702 C723 0.950 . S
H703 C726 0.950 . S
H704 C727 0.950 . S
H705 C729 0.950 . S
H706 C730 0.950 . S
H707 C731 0.951 . S
H708 C733 0.951 . S
H709 C735 0.950 . S
H710 C736 0.950 . S
H711 C738 0.950 . S
H712 C741 0.950 . S
H713 C742 0.950 . S
H714 C744 0.950 . S
H715 C745 0.950 . S
C716 H698 0.951 . S
C716 C717 1.366 . S
C716 C718 1.388 . S
C717 C716 1.366 . S
C717 C721 1.385 . S
C718 H699 0.951 . S
C718 C716 1.388 . S
C718 C719 1.366 . S
C719 C718 1.366 . S
C719 C720 1.414 . S
C719 C722 1.499 . S
C720 H700 0.950 . S
C720 C719 1.414 . S
C720 C721 1.374 . S
C721 H701 0.950 . S
C721 C717 1.385 . S
C721 C720 1.374 . S
C722 C719 1.499 . S
C722 C723 1.373 . S
C722 C724 1.389 . S
C723 H702 0.950 . S
C723 C722 1.373 . S
C723 C739 1.377 . S
C724 C722 1.389 . S
C724 C725 1.524 . S
C724 C738 1.377 . S
C725 C724 1.524 . S
C725 C726 1.397 . S
C725 C730 1.363 . S
C726 H703 0.950 . S
C726 C725 1.397 . S
C726 C727 1.334 . S
C727 H704 0.950 . S
C727 C726 1.334 . S
C727 C728 1.287 . S
C728 C727 1.287 . S
C728 C729 1.524 . S
C728 H747 0.913 . S
C729 H705 0.950 . S
C729 C728 1.524 . S
C729 C730 1.415 . S
C730 H706 0.950 . S
C730 C725 1.363 . S
C730 C729 1.415 . S
C731 H707 0.951 . S
C731 C732 1.366 . S
C731 C733 1.388 . S
C732 C731 1.366 . S
C732 C736 1.385 . S
C733 H708 0.951 . S
C733 C731 1.388 . S
C733 C734 1.366 . S
C734 C733 1.366 . S
C734 C735 1.414 . S
C734 C737 1.499 . S
C735 H709 0.950 . S
C735 C734 1.414 . S
C735 C736 1.374 . S
C736 H710 0.950 . S
C736 C732 1.385 . S
C736 C735 1.374 . S
C737 C734 1.499 . S
C737 C738 1.373 . S
C737 C739 1.389 . S
C738 H711 0.950 . S
C738 C724 1.377 . S
C738 C737 1.373 . S
C739 C723 1.377 . S
C739 C737 1.389 . S
C739 C740 1.524 . S
C740 C739 1.524 . S
C740 C741 1.397 . S
C740 C745 1.363 . S
C741 H712 0.950 . S
C741 C740 1.397 . S
C741 C742 1.334 . S
C742 H713 0.950 . S
C742 C741 1.334 . S
C742 C743 1.287 . S
C743 C742 1.287 . S
C743 C744 1.524 . S
C743 H746 0.999 . S
C744 H714 0.950 . S
C744 C743 1.524 . S
C744 C745 1.415 . S
C745 H715 0.950 . S
C745 C740 1.363 . S
C745 C744 1.415 . S
H746 C743 0.999 . S
H747 C728 0.913 . S
H748 C766 0.951 . S
H749 C768 0.951 . S
H750 C770 0.950 . S
H751 C771 0.950 . S
H752 C773 0.950 . S
H753 C776 0.950 . S
H754 C777 0.950 . S
H755 C779 0.950 . S
H756 C780 0.950 . S
H757 C781 0.951 . S
H758 C783 0.951 . S
H759 C785 0.950 . S
H760 C786 0.950 . S
H761 C788 0.950 . S
H762 C791 0.950 . S
H763 C792 0.950 . S
H764 C794 0.950 . S
H765 C795 0.950 . S
C766 H748 0.951 . S
C766 C767 1.366 . S
C766 C768 1.388 . S
C767 C766 1.366 . S
C767 C771 1.385 . S
C768 H749 0.951 . S
C768 C766 1.388 . S
C768 C769 1.366 . S
C769 C768 1.366 . S
C769 C770 1.414 . S
C769 C772 1.499 . S
C770 H750 0.950 . S
C770 C769 1.414 . S
C770 C771 1.374 . S
C771 H751 0.950 . S
C771 C767 1.385 . S
C771 C770 1.374 . S
C772 C769 1.499 . S
C772 C773 1.373 . S
C772 C774 1.389 . S
C773 H752 0.950 . S
C773 C772 1.373 . S
C773 C789 1.377 . S
C774 C772 1.389 . S
C774 C775 1.524 . S
C774 C788 1.377 . S
C775 C774 1.524 . S
C775 C776 1.397 . S
C775 C780 1.363 . S
C776 H753 0.950 . S
C776 C775 1.397 . S
C776 C777 1.334 . S
C777 H754 0.950 . S
C777 C776 1.334 . S
C777 C778 1.287 . S
C778 C777 1.287 . S
C778 C779 1.524 . S
C778 H797 0.913 . S
C779 H755 0.950 . S
C779 C778 1.524 . S
C779 C780 1.415 . S
C780 H756 0.950 . S
C780 C775 1.363 . S
C780 C779 1.415 . S
C781 H757 0.951 . S
C781 C782 1.366 . S
C781 C783 1.388 . S
C782 C781 1.366 . S
C782 C786 1.385 . S
C783 H758 0.951 . S
C783 C781 1.388 . S
C783 C784 1.366 . S
C784 C783 1.366 . S
C784 C785 1.414 . S
C784 C787 1.499 . S
C785 H759 0.950 . S
C785 C784 1.414 . S
C785 C786 1.374 . S
C786 H760 0.950 . S
C786 C782 1.385 . S
C786 C785 1.374 . S
C787 C784 1.499 . S
C787 C788 1.373 . S
C787 C789 1.389 . S
C788 H761 0.950 . S
C788 C774 1.377 . S
C788 C787 1.373 . S
C789 C773 1.377 . S
C789 C787 1.389 . S
C789 C790 1.524 . S
C790 C789 1.524 . S
C790 C791 1.397 . S
C790 C795 1.363 . S
C791 H762 0.950 . S
C791 C790 1.397 . S
C791 C792 1.334 . S
C792 H763 0.950 . S
C792 C791 1.334 . S
C792 C793 1.287 . S
C793 C792 1.287 . S
C793 C794 1.524 . S
C793 H796 0.999 . S
C794 H764 0.950 . S
C794 C793 1.524 . S
C794 C795 1.415 . S
C795 H765 0.950 . S
C795 C790 1.363 . S
C795 C794 1.415 . S
H796 C793 0.999 . S
H797 C778 0.913 . S
H798 C816 0.951 . S
H799 C818 0.951 . S
H800 C820 0.950 . S
H801 C821 0.950 . S
H802 C823 0.950 . S
H803 C826 0.950 . S
H804 C827 0.950 . S
H805 C829 0.950 . S
H806 C830 0.950 . S
H807 C831 0.951 . S
H808 C833 0.951 . S
H809 C835 0.950 . S
H810 C836 0.950 . S
H811 C838 0.950 . S
H812 C841 0.950 . S
H813 C842 0.950 . S
H814 C844 0.950 . S
H815 C845 0.950 . S
C816 H798 0.951 . S
C816 C817 1.366 . S
C816 C818 1.388 . S
C817 C816 1.366 . S
C817 C821 1.385 . S
C818 H799 0.951 . S
C818 C816 1.388 . S
C818 C819 1.366 . S
C819 C818 1.366 . S
C819 C820 1.414 . S
C819 C822 1.499 . S
C820 H800 0.950 . S
C820 C819 1.414 . S
C820 C821 1.374 . S
C821 H801 0.950 . S
C821 C817 1.385 . S
C821 C820 1.374 . S
C822 C819 1.499 . S
C822 C823 1.373 . S
C822 C824 1.389 . S
C823 H802 0.950 . S
C823 C822 1.373 . S
C823 C839 1.377 . S
C824 C822 1.389 . S
C824 C825 1.524 . S
C824 C838 1.377 . S
C825 C824 1.524 . S
C825 C826 1.397 . S
C825 C830 1.363 . S
C826 H803 0.950 . S
C826 C825 1.397 . S
C826 C827 1.334 . S
C827 H804 0.950 . S
C827 C826 1.334 . S
C827 C828 1.287 . S
C828 C827 1.287 . S
C828 C829 1.524 . S
C828 H847 0.913 . S
C829 H805 0.950 . S
C829 C828 1.524 . S
C829 C830 1.415 . S
C830 H806 0.950 . S
C830 C825 1.363 . S
C830 C829 1.415 . S
C831 H807 0.951 . S
C831 C832 1.366 . S
C831 C833 1.388 . S
C832 C831 1.366 . S
C832 C836 1.385 . S
C833 H808 0.951 . S
C833 C831 1.388 . S
C833 C834 1.366 . S
C834 C833 1.366 . S
C834 C835 1.414 . S
C834 C837 1.499 . S
C835 H809 0.950 . S
C835 C834 1.414 . S
C835 C836 1.374 . S
C836 H810 0.950 . S
C836 C832 1.385 . S
C836 C835 1.374 . S
C837 C834 1.499 . S
C837 C838 1.373 . S
C837 C839 1.389 . S
C838 H811 0.950 . S
C838 C824 1.377 . S
C838 C837 1.373 . S
C839 C823 1.377 . S
C839 C837 1.389 . S
C839 C840 1.524 . S
C840 C839 1.524 . S
C840 C841 1.397 . S
C840 C845 1.363 . S
C841 H812 0.950 . S
C841 C840 1.397 . S
C841 C842 1.334 . S
C842 H813 0.950 . S
C842 C841 1.334 . S
C842 C843 1.287 . S
C843 C842 1.287 . S
C843 C844 1.524 . S
C843 H846 0.999 . S
C844 H814 0.950 . S
C844 C843 1.524 . S
C844 C845 1.415 . S
C845 H815 0.950 . S
C845 C840 1.363 . S
C845 C844 1.415 . S
H846 C843 0.999 . S
H847 C828 0.913 . S
H848 C866 0.951 . S
H849 C868 0.951 . S
H850 C870 0.950 . S
H851 C871 0.950 . S
H852 C873 0.950 . S
H853 C876 0.950 . S
H854 C877 0.950 . S
H855 C879 0.950 . S
H856 C880 0.950 . S
H857 C881 0.951 . S
H858 C883 0.951 . S
H859 C885 0.950 . S
H860 C886 0.950 . S
H861 C888 0.950 . S
H862 C891 0.950 . S
H863 C892 0.950 . S
H864 C894 0.950 . S
H865 C895 0.950 . S
C866 H848 0.951 . S
C866 C867 1.366 . S
C866 C868 1.388 . S
C867 C866 1.366 . S
C867 C871 1.385 . S
C868 H849 0.951 . S
C868 C866 1.388 . S
C868 C869 1.366 . S
C869 C868 1.366 . S
C869 C870 1.414 . S
C869 C872 1.499 . S
C870 H850 0.950 . S
C870 C869 1.414 . S
C870 C871 1.374 . S
C871 H851 0.950 . S
C871 C867 1.385 . S
C871 C870 1.374 . S
C872 C869 1.499 . S
C872 C873 1.373 . S
C872 C874 1.389 . S
C873 H852 0.950 . S
C873 C872 1.373 . S
C873 C889 1.377 . S
C874 C872 1.389 . S
C874 C875 1.524 . S
C874 C888 1.377 . S
C875 C874 1.524 . S
C875 C876 1.397 . S
C875 C880 1.363 . S
C876 H853 0.950 . S
C876 C875 1.397 . S
C876 C877 1.334 . S
C877 H854 0.950 . S
C877 C876 1.334 . S
C877 C878 1.287 . S
C878 C877 1.287 . S
C878 C879 1.524 . S
C878 H897 0.913 . S
C879 H855 0.950 . S
C879 C878 1.524 . S
C879 C880 1.415 . S
C880 H856 0.950 . S
C880 C875 1.363 . S
C880 C879 1.415 . S
C881 H857 0.951 . S
C881 C882 1.366 . S
C881 C883 1.388 . S
C882 C881 1.366 . S
C882 C886 1.385 . S
C883 H858 0.951 . S
C883 C881 1.388 . S
C883 C884 1.366 . S
C884 C883 1.366 . S
C884 C885 1.414 . S
C884 C887 1.499 . S
C885 H859 0.950 . S
C885 C884 1.414 . S
C885 C886 1.374 . S
C886 H860 0.950 . S
C886 C882 1.385 . S
C886 C885 1.374 . S
C887 C884 1.499 . S
C887 C888 1.373 . S
C887 C889 1.389 . S
C888 H861 0.950 . S
C888 C874 1.377 . S
C888 C887 1.373 . S
C889 C873 1.377 . S
C889 C887 1.389 . S
C889 C890 1.524 . S
C890 C889 1.524 . S
C890 C891 1.397 . S
C890 C895 1.363 . S
C891 H862 0.950 . S
C891 C890 1.397 . S
C891 C892 1.334 . S
C892 H863 0.950 . S
C892 C891 1.334 . S
C892 C893 1.287 . S
C893 C892 1.287 . S
C893 C894 1.524 . S
C893 H896 0.999 . S
C894 H864 0.950 . S
C894 C893 1.524 . S
C894 C895 1.415 . S
C895 H865 0.950 . S
C895 C890 1.363 . S
C895 C894 1.415 . S
H896 C893 0.999 . S
H897 C878 0.913 . S
H898 C916 0.951 . S
H899 C918 0.951 . S
H900 C920 0.950 . S
H901 C921 0.950 . S
H902 C923 0.950 . S
H903 C926 0.950 . S
H904 C927 0.950 . S
H905 C929 0.950 . S
H906 C930 0.950 . S
H907 C931 0.951 . S
H908 C933 0.951 . S
H909 C935 0.950 . S
H910 C936 0.950 . S
H911 C938 0.950 . S
H912 C941 0.950 . S
H913 C942 0.950 . S
H914 C944 0.950 . S
H915 C945 0.950 . S
C916 H898 0.951 . S
C916 C917 1.366 . S
C916 C918 1.388 . S
C917 C916 1.366 . S
C917 C921 1.385 . S
C918 H899 0.951 . S
C918 C916 1.388 . S
C918 C919 1.366 . S
C919 C918 1.366 . S
C919 C920 1.414 . S
C919 C922 1.499 . S
C920 H900 0.950 . S
C920 C919 1.414 . S
C920 C921 1.374 . S
C921 H901 0.950 . S
C921 C917 1.385 . S
C921 C920 1.374 . S
C922 C919 1.499 . S
C922 C923 1.373 . S
C922 C924 1.389 . S
C923 H902 0.950 . S
C923 C922 1.373 . S
C923 C939 1.377 . S
C924 C922 1.389 . S
C924 C925 1.524 . S
C924 C938 1.377 . S
C925 C924 1.524 . S
C925 C926 1.397 . S
C925 C930 1.363 . S
C926 H903 0.950 . S
C926 C925 1.397 . S
C926 C927 1.334 . S
C927 H904 0.950 . S
C927 C926 1.334 . S
C927 C928 1.287 . S
C928 C927 1.287 . S
C928 C929 1.524 . S
C928 H947 0.913 . S
C929 H905 0.950 . S
C929 C928 1.524 . S
C929 C930 1.415 . S
C930 H906 0.950 . S
C930 C925 1.363 . S
C930 C929 1.415 . S
C931 H907 0.951 . S
C931 C932 1.366 . S
C931 C933 1.388 . S
C932 C931 1.366 . S
C932 C936 1.385 . S
C933 H908 0.951 . S
C933 C931 1.388 . S
C933 C934 1.366 . S
C934 C933 1.366 . S
C934 C935 1.414 . S
C934 C937 1.499 . S
C935 H909 0.950 . S
C935 C934 1.414 . S
C935 C936 1.374 . S
C936 H910 0.950 . S
C936 C932 1.385 . S
C936 C935 1.374 . S
C937 C934 1.499 . S
C937 C938 1.373 . S
C937 C939 1.389 . S
C938 H911 0.950 . S
C938 C924 1.377 . S
C938 C937 1.373 . S
C939 C923 1.377 . S
C939 C937 1.389 . S
C939 C940 1.524 . S
C940 C939 1.524 . S
C940 C941 1.397 . S
C940 C945 1.363 . S
C941 H912 0.950 . S
C941 C940 1.397 . S
C941 C942 1.334 . S
C942 H913 0.950 . S
C942 C941 1.334 . S
C942 C943 1.287 . S
C943 C942 1.287 . S
C943 C944 1.524 . S
C943 H946 0.999 . S
C944 H914 0.950 . S
C944 C943 1.524 . S
C944 C945 1.415 . S
C945 H915 0.950 . S
C945 C940 1.363 . S
C945 C944 1.415 . S
H946 C943 0.999 . S
H947 C928 0.913 . S
H948 C966 0.951 . S
H949 C968 0.951 . S
H950 C970 0.950 . S
H951 C971 0.950 . S
H952 C973 0.950 . S
H953 C976 0.950 . S
H954 C977 0.950 . S
H955 C979 0.950 . S
H956 C980 0.950 . S
H957 C981 0.951 . S
H958 C983 0.951 . S
H959 C985 0.950 . S
H960 C986 0.950 . S
H961 C988 0.950 . S
H962 C991 0.950 . S
H963 C992 0.950 . S
H964 C994 0.950 . S
H965 C995 0.950 . S
C966 H948 0.951 . S
C966 C967 1.366 . S
C966 C968 1.388 . S
C967 C966 1.366 . S
C967 C971 1.385 . S
C968 H949 0.951 . S
C968 C966 1.388 . S
C968 C969 1.366 . S
C969 C968 1.366 . S
C969 C970 1.414 . S
C969 C972 1.499 . S
C970 H950 0.950 . S
C970 C969 1.414 . S
C970 C971 1.374 . S
C971 H951 0.950 . S
C971 C967 1.385 . S
C971 C970 1.374 . S
C972 C969 1.499 . S
C972 C973 1.373 . S
C972 C974 1.389 . S
C973 H952 0.950 . S
C973 C972 1.373 . S
C973 C989 1.377 . S
C974 C972 1.389 . S
C974 C975 1.524 . S
C974 C988 1.377 . S
C975 C974 1.524 . S
C975 C976 1.397 . S
C975 C980 1.363 . S
C976 H953 0.950 . S
C976 C975 1.397 . S
C976 C977 1.334 . S
C977 H954 0.950 . S
C977 C976 1.334 . S
C977 C978 1.287 . S
C978 C977 1.287 . S
C978 C979 1.524 . S
C978 H997 0.913 . S
C979 H955 0.950 . S
C979 C978 1.524 . S
C979 C980 1.415 . S
C980 H956 0.950 . S
C980 C975 1.363 . S
C980 C979 1.415 . S
C981 H957 0.951 . S
C981 C982 1.366 . S
C981 C983 1.388 . S
C982 C981 1.366 . S
C982 C986 1.385 . S
C983 H958 0.951 . S
C983 C981 1.388 . S
C983 C984 1.366 . S
C984 C983 1.366 . S
C984 C985 1.414 . S
C984 C987 1.499 . S
C985 H959 0.950 . S
C985 C984 1.414 . S
C985 C986 1.374 . S
C986 H960 0.950 . S
C986 C982 1.385 . S
C986 C985 1.374 . S
C987 C984 1.499 . S
C987 C988 1.373 . S
C987 C989 1.389 . S
C988 H961 0.950 . S
C988 C974 1.377 . S
C988 C987 1.373 . S
C989 C973 1.377 . S
C989 C987 1.389 . S
C989 C990 1.524 . S
C990 C989 1.524 . S
C990 C991 1.397 . S
C990 C995 1.363 . S
C991 H962 0.950 . S
C991 C990 1.397 . S
C991 C992 1.334 . S
C992 H963 0.950 . S
C992 C991 1.334 . S
C992 C993 1.287 . S
C993 C992 1.287 . S
C993 C994 1.524 . S
C993 H996 0.999 . S
C994 H964 0.950 . S
C994 C993 1.524 . S
C994 C995 1.415 . S
C995 H965 0.950 . S
C995 C990 1.363 . S
C995 C994 1.415 . S
H996 C993 0.999 . S
H997 C978 0.913 . S
H998 C1016 0.951 . S
H999 C1018 0.951 . S
H1000 C1020 0.950 . S
H1001 C1021 0.950 . S
H1002 C1023 0.950 . S
H1003 C1026 0.950 . S
H1004 C1027 0.950 . S
H1005 C1029 0.950 . S
H1006 C1030 0.950 . S
H1007 C1031 0.951 . S
H1008 C1033 0.951 . S
H1009 C1035 0.950 . S
H1010 C1036 0.950 . S
H1011 C1038 0.950 . S
H1012 C1041 0.950 . S
H1013 C1042 0.950 . S
H1014 C1044 0.950 . S
H1015 C1045 0.950 . S
C1016 H998 0.951 . S
C1016 C1017 1.366 . S
C1016 C1018 1.388 . S
C1017 C1016 1.366 . S
C1017 C1021 1.385 . S
C1018 H999 0.951 . S
C1018 C1016 1.388 . S
C1018 C1019 1.366 . S
C1019 C1018 1.366 . S
C1019 C1020 1.414 . S
C1019 C1022 1.499 . S
C1020 H1000 0.950 . S
C1020 C1019 1.414 . S
C1020 C1021 1.374 . S
C1021 H1001 0.950 . S
C1021 C1017 1.385 . S
C1021 C1020 1.374 . S
C1022 C1019 1.499 . S
C1022 C1023 1.373 . S
C1022 C1024 1.389 . S
C1023 H1002 0.950 . S
C1023 C1022 1.373 . S
C1023 C1039 1.377 . S
C1024 C1022 1.389 . S
C1024 C1025 1.524 . S
C1024 C1038 1.377 . S
C1025 C1024 1.524 . S
C1025 C1026 1.397 . S
C1025 C1030 1.363 . S
C1026 H1003 0.950 . S
C1026 C1025 1.397 . S
C1026 C1027 1.334 . S
C1027 H1004 0.950 . S
C1027 C1026 1.334 . S
C1027 C1028 1.287 . S
C1028 C1027 1.287 . S
C1028 C1029 1.524 . S
C1028 H1047 0.913 . S
C1029 H1005 0.950 . S
C1029 C1028 1.524 . S
C1029 C1030 1.415 . S
C1030 H1006 0.950 . S
C1030 C1025 1.363 . S
C1030 C1029 1.415 . S
C1031 H1007 0.951 . S
C1031 C1032 1.366 . S
C1031 C1033 1.388 . S
C1032 C1031 1.366 . S
C1032 C1036 1.385 . S
C1033 H1008 0.951 . S
C1033 C1031 1.388 . S
C1033 C1034 1.366 . S
C1034 C1033 1.366 . S
C1034 C1035 1.414 . S
C1034 C1037 1.499 . S
C1035 H1009 0.950 . S
C1035 C1034 1.414 . S
C1035 C1036 1.374 . S
C1036 H1010 0.950 . S
C1036 C1032 1.385 . S
C1036 C1035 1.374 . S
C1037 C1034 1.499 . S
C1037 C1038 1.373 . S
C1037 C1039 1.389 . S
C1038 H1011 0.950 . S
C1038 C1024 1.377 . S
C1038 C1037 1.373 . S
C1039 C1023 1.377 . S
C1039 C1037 1.389 . S
C1039 C1040 1.524 . S
C1040 C1039 1.524 . S
C1040 C1041 1.397 . S
C1040 C1045 1.363 . S
C1041 H1012 0.950 . S
C1041 C1040 1.397 . S
C1041 C1042 1.334 . S
C1042 H1013 0.950 . S
C1042 C1041 1.334 . S
C1042 C1043 1.287 . S
C1043 C1042 1.287 . S
C1043 C1044 1.524 . S
C1043 H1046 0.999 . S
C1044 H1014 0.950 . S
C1044 C1043 1.524 . S
C1044 C1045 1.415 . S
C1045 H1015 0.950 . S
C1045 C1040 1.363 . S
C1045 C1044 1.415 . S
H1046 C1043 0.999 . S
H1047 C1028 0.913 . S
H1048 C1066 0.951 . S
H1049 C1068 0.951 . S
H1050 C1070 0.950 . S
H1051 C1071 0.950 . S
H1052 C1073 0.950 . S
H1053 C1076 0.950 . S
H1054 C1077 0.950 . S
H1055 C1079 0.950 . S
H1056 C1080 0.950 . S
H1057 C1081 0.951 . S
H1058 C1083 0.951 . S
H1059 C1085 0.950 . S
H1060 C1086 0.950 . S
H1061 C1088 0.950 . S
H1062 C1091 0.950 . S
H1063 C1092 0.950 . S
H1064 C1094 0.950 . S
H1065 C1095 0.950 . S
C1066 H1048 0.951 . S
C1066 C1067 1.366 . S
C1066 C1068 1.388 . S
C1067 C1066 1.366 . S
C1067 C1071 1.385 . S
C1068 H1049 0.951 . S
C1068 C1066 1.388 . S
C1068 C1069 1.366 . S
C1069 C1068 1.366 . S
C1069 C1070 1.414 . S
C1069 C1072 1.499 . S
C1070 H1050 0.950 . S
C1070 C1069 1.414 . S
C1070 C1071 1.374 . S
C1071 H1051 0.950 . S
C1071 C1067 1.385 . S
C1071 C1070 1.374 . S
C1072 C1069 1.499 . S
C1072 C1073 1.373 . S
C1072 C1074 1.389 . S
C1073 H1052 0.950 . S
C1073 C1072 1.373 . S
C1073 C1089 1.377 . S
C1074 C1072 1.389 . S
C1074 C1075 1.524 . S
C1074 C1088 1.377 . S
C1075 C1074 1.524 . S
C1075 C1076 1.397 . S
C1075 C1080 1.363 . S
C1076 H1053 0.950 . S
C1076 C1075 1.397 . S
C1076 C1077 1.334 . S
C1077 H1054 0.950 . S
C1077 C1076 1.334 . S
C1077 C1078 1.287 . S
C1078 C1077 1.287 . S
C1078 C1079 1.524 . S
C1078 H1097 0.913 . S
C1079 H1055 0.950 . S
C1079 C1078 1.524 . S
C1079 C1080 1.415 . S
C1080 H1056 0.950 . S
C1080 C1075 1.363 . S
C1080 C1079 1.415 . S
C1081 H1057 0.951 . S
C1081 C1082 1.366 . S
C1081 C1083 1.388 . S
C1082 C1081 1.366 . S
C1082 C1086 1.385 . S
C1083 H1058 0.951 . S
C1083 C1081 1.388 . S
C1083 C1084 1.366 . S
C1084 C1083 1.366 . S
C1084 C1085 1.414 . S
C1084 C1087 1.499 . S
C1085 H1059 0.950 . S
C1085 C1084 1.414 . S
C1085 C1086 1.374 . S
C1086 H1060 0.950 . S
C1086 C1082 1.385 . S
C1086 C1085 1.374 . S
C1087 C1084 1.499 . S
C1087 C1088 1.373 . S
C1087 C1089 1.389 . S
C1088 H1061 0.950 . S
C1088 C1074 1.377 . S
C1088 C1087 1.373 . S
C1089 C1073 1.377 . S
C1089 C1087 1.389 . S
C1089 C1090 1.524 . S
C1090 C1089 1.524 . S
C1090 C1091 1.397 . S
C1090 C1095 1.363 . S
C1091 H1062 0.950 . S
C1091 C1090 1.397 . S
C1091 C1092 1.334 . S
C1092 H1063 0.950 . S
C1092 C1091 1.334 . S
C1092 C1093 1.287 . S
C1093 C1092 1.287 . S
C1093 C1094 1.524 . S
C1093 H1096 0.999 . S
C1094 H1064 0.950 . S
C1094 C1093 1.524 . S
C1094 C1095 1.415 . S
C1095 H1065 0.950 . S
C1095 C1090 1.363 . S
C1095 C1094 1.415 . S
H1096 C1093 0.999 . S
H1097 C1078 0.913 . S
H1098 C1116 0.951 . S
H1099 C1118 0.951 . S
H1100 C1120 0.950 . S
H1101 C1121 0.950 . S
H1102 C1123 0.950 . S
H1103 C1126 0.950 . S
H1104 C1127 0.950 . S
H1105 C1129 0.950 . S
H1106 C1130 0.950 . S
H1107 C1131 0.951 . S
H1108 C1133 0.951 . S
H1109 C1135 0.950 . S
H1110 C1136 0.950 . S
H1111 C1138 0.950 . S
H1112 C1141 0.950 . S
H1113 C1142 0.950 . S
H1114 C1144 0.950 . S
H1115 C1145 0.950 . S
C1116 H1098 0.951 . S
C1116 C1117 1.366 . S
C1116 C1118 1.388 . S
C1117 C1116 1.366 . S
C1117 C1121 1.385 . S
C1118 H1099 0.951 . S
C1118 C1116 1.388 . S
C1118 C1119 1.366 . S
C1119 C1118 1.366 . S
C1119 C1120 1.414 . S
C1119 C1122 1.499 . S
C1120 H1100 0.950 . S
C1120 C1119 1.414 . S
C1120 C1121 1.374 . S
C1121 H1101 0.950 . S
C1121 C1117 1.385 . S
C1121 C1120 1.374 . S
C1122 C1119 1.499 . S
C1122 C1123 1.373 . S
C1122 C1124 1.389 . S
C1123 H1102 0.950 . S
C1123 C1122 1.373 . S
C1123 C1139 1.377 . S
C1124 C1122 1.389 . S
C1124 C1125 1.524 . S
C1124 C1138 1.377 . S
C1125 C1124 1.524 . S
C1125 C1126 1.397 . S
C1125 C1130 1.363 . S
C1126 H1103 0.950 . S
C1126 C1125 1.397 . S
C1126 C1127 1.334 . S
C1127 H1104 0.950 . S
C1127 C1126 1.334 . S
C1127 C1128 1.287 . S
C1128 C1127 1.287 . S
C1128 C1129 1.524 . S
C1128 H1147 0.913 . S
C1129 H1105 0.950 . S
C1129 C1128 1.524 . S
C1129 C1130 1.415 . S
C1130 H1106 0.950 . S
C1130 C1125 1.363 . S
C1130 C1129 1.415 . S
C1131 H1107 0.951 . S
C1131 C1132 1.366 . S
C1131 C1133 1.388 . S
C1132 C1131 1.366 . S
C1132 C1136 1.385 . S
C1133 H1108 0.951 . S
C1133 C1131 1.388 . S
C1133 C1134 1.366 . S
C1134 C1133 1.366 . S
C1134 C1135 1.414 . S
C1134 C1137 1.499 . S
C1135 H1109 0.950 . S
C1135 C1134 1.414 . S
C1135 C1136 1.374 . S
C1136 H1110 0.950 . S
C1136 C1132 1.385 . S
C1136 C1135 1.374 . S
C1137 C1134 1.499 . S
C1137 C1138 1.373 . S
C1137 C1139 1.389 . S
C1138 H1111 0.950 . S
C1138 C1124 1.377 . S
C1138 C1137 1.373 . S
C1139 C1123 1.377 . S
C1139 C1137 1.389 . S
C1139 C1140 1.524 . S
C1140 C1139 1.524 . S
C1140 C1141 1.397 . S
C1140 C1145 1.363 . S
C1141 H1112 0.950 . S
C1141 C1140 1.397 . S
C1141 C1142 1.334 . S
C1142 H1113 0.950 . S
C1142 C1141 1.334 . S
C1142 C1143 1.287 . S
C1143 C1142 1.287 . S
C1143 C1144 1.524 . S
C1143 H1146 0.999 . S
C1144 H1114 0.950 . S
C1144 C1143 1.524 . S
C1144 C1145 1.415 . S
C1145 H1115 0.950 . S
C1145 C1140 1.363 . S
C1145 C1144 1.415 . S
H1146 C1143 0.999 . S
H1147 C1128 0.913 . S
H1148 C1166 0.951 . S
H1149 C1168 0.951 . S
H1150 C1170 0.950 . S
H1151 C1171 0.950 . S
H1152 C1173 0.950 . S
H1153 C1176 0.950 . S
H1154 C1177 0.950 . S
H1155 C1179 0.950 . S
H1156 C1180 0.950 . S
H1157 C1181 0.951 . S
H1158 C1183 0.951 . S
H1159 C1185 0.950 . S
H1160 C1186 0.950 . S
H1161 C1188 0.950 . S
H1162 C1191 0.950 . S
H1163 C1192 0.950 . S
H1164 C1194 0.950 . S
H1165 C1195 0.950 . S
C1166 H1148 0.951 . S
C1166 C1167 1.366 . S
C1166 C1168 1.388 . S
C1167 C1166 1.366 . S
C1167 C1171 1.385 . S
C1168 H1149 0.951 . S
C1168 C1166 1.388 . S
C1168 C1169 1.366 . S
C1169 C1168 1.366 . S
C1169 C1170 1.414 . S
C1169 C1172 1.499 . S
C1170 H1150 0.950 . S
C1170 C1169 1.414 . S
C1170 C1171 1.374 . S
C1171 H1151 0.950 . S
C1171 C1167 1.385 . S
C1171 C1170 1.374 . S
C1172 C1169 1.499 . S
C1172 C1173 1.373 . S
C1172 C1174 1.389 . S
C1173 H1152 0.950 . S
C1173 C1172 1.373 . S
C1173 C1189 1.377 . S
C1174 C1172 1.389 . S
C1174 C1175 1.524 . S
C1174 C1188 1.377 . S
C1175 C1174 1.524 . S
C1175 C1176 1.397 . S
C1175 C1180 1.363 . S
C1176 H1153 0.950 . S
C1176 C1175 1.397 . S
C1176 C1177 1.334 . S
C1177 H1154 0.950 . S
C1177 C1176 1.334 . S
C1177 C1178 1.287 . S
C1178 C1177 1.287 . S
C1178 C1179 1.524 . S
C1178 H1197 0.913 . S
C1179 H1155 0.950 . S
C1179 C1178 1.524 . S
C1179 C1180 1.415 . S
C1180 H1156 0.950 . S
C1180 C1175 1.363 . S
C1180 C1179 1.415 . S
C1181 H1157 0.951 . S
C1181 C1182 1.366 . S
C1181 C1183 1.388 . S
C1182 C1181 1.366 . S
C1182 C1186 1.385 . S
C1183 H1158 0.951 . S
C1183 C1181 1.388 . S
C1183 C1184 1.366 . S
C1184 C1183 1.366 . S
C1184 C1185 1.414 . S
C1184 C1187 1.499 . S
C1185 H1159 0.950 . S
C1185 C1184 1.414 . S
C1185 C1186 1.374 . S
C1186 H1160 0.950 . S
C1186 C1182 1.385 . S
C1186 C1185 1.374 . S
C1187 C1184 1.499 . S
C1187 C1188 1.373 . S
C1187 C1189 1.389 . S
C1188 H1161 0.950 . S
C1188 C1174 1.377 . S
C1188 C1187 1.373 . S
C1189 C1173 1.377 . S
C1189 C1187 1.389 . S
C1189 C1190 1.524 . S
C1190 C1189 1.524 . S
C1190 C1191 1.397 . S
C1190 C1195 1.363 . S
C1191 H1162 0.950 . S
C1191 C1190 1.397 . S
C1191 C1192 1.334 . S
C1192 H1163 0.950 . S
C1192 C1191 1.334 . S
C1192 C1193 1.287 . S
C1193 C1192 1.287 . S
C1193 C1194 1.524 . S
C1193 H1196 0.999 . S
C1194 H1164 0.950 . S
C1194 C1193 1.524 . S
C1194 C1195 1.415 . S
C1195 H1165 0.950 . S
C1195 C1190 1.363 . S
C1195 C1194 1.415 . S
H1196 C1193 0.999 . S
H1197 C1178 0.913 . S
H1198 C1216 0.951 . S
H1199 C1218 0.951 . S
H1200 C1220 0.950 . S
H1201 C1221 0.950 . S
H1202 C1223 0.950 . S
H1203 C1226 0.950 . S
H1204 C1227 0.950 . S
H1205 C1229 0.950 . S
H1206 C1230 0.950 . S
H1207 C1231 0.951 . S
H1208 C1233 0.951 . S
H1209 C1235 0.950 . S
H1210 C1236 0.950 . S
H1211 C1238 0.950 . S
H1212 C1241 0.950 . S
H1213 C1242 0.950 . S
H1214 C1244 0.950 . S
H1215 C1245 0.950 . S
C1216 H1198 0.951 . S
C1216 C1217 1.366 . S
C1216 C1218 1.388 . S
C1217 C1216 1.366 . S
C1217 C1221 1.385 . S
C1218 H1199 0.951 . S
C1218 C1216 1.388 . S
C1218 C1219 1.366 . S
C1219 C1218 1.366 . S
C1219 C1220 1.414 . S
C1219 C1222 1.499 . S
C1220 H1200 0.950 . S
C1220 C1219 1.414 . S
C1220 C1221 1.374 . S
C1221 H1201 0.950 . S
C1221 C1217 1.385 . S
C1221 C1220 1.374 . S
C1222 C1219 1.499 . S
C1222 C1223 1.373 . S
C1222 C1224 1.389 . S
C1223 H1202 0.950 . S
C1223 C1222 1.373 . S
C1223 C1239 1.377 . S
C1224 C1222 1.389 . S
C1224 C1225 1.524 . S
C1224 C1238 1.377 . S
C1225 C1224 1.524 . S
C1225 C1226 1.397 . S
C1225 C1230 1.363 . S
C1226 H1203 0.950 . S
C1226 C1225 1.397 . S
C1226 C1227 1.334 . S
C1227 H1204 0.950 . S
C1227 C1226 1.334 . S
C1227 C1228 1.287 . S
C1228 C1227 1.287 . S
C1228 C1229 1.524 . S
C1228 H1247 0.913 . S
C1229 H1205 0.950 . S
C1229 C1228 1.524 . S
C1229 C1230 1.415 . S
C1230 H1206 0.950 . S
C1230 C1225 1.363 . S
C1230 C1229 1.415 . S
C1231 H1207 0.951 . S
C1231 C1232 1.366 . S
C1231 C1233 1.388 . S
C1232 C1231 1.366 . S
C1232 C1236 1.385 . S
C1233 H1208 0.951 . S
C1233 C1231 1.388 . S
C1233 C1234 1.366 . S
C1234 C1233 1.366 . S
C1234 C1235 1.414 . S
C1234 C1237 1.499 . S
C1235 H1209 0.950 . S
C1235 C1234 1.414 . S
C1235 C1236 1.374 . S
C1236 H1210 0.950 . S
C1236 C1232 1.385 . S
C1236 C1235 1.374 . S
C1237 C1234 1.499 . S
C1237 C1238 1.373 . S
C1237 C1239 1.389 . S
C1238 H1211 0.950 . S
C1238 C1224 1.377 . S
C1238 C1237 1.373 . S
C1239 C1223 1.377 . S
C1239 C1237 1.389 . S
C1239 C1240 1.524 . S
C1240 C1239 1.524 . S
C1240 C1241 1.397 . S
C1240 C1245 1.363 . S
C1241 H1212 0.950 . S
C1241 C1240 1.397 . S
C1241 C1242 1.334 . S
C1242 H1213 0.950 . S
C1242 C1241 1.334 . S
C1242 C1243 1.287 . S
C1243 C1242 1.287 . S
C1243 C1244 1.524 . S
C1243 H1246 0.999 . S
C1244 H1214 0.950 . S
C1244 C1243 1.524 . S
C1244 C1245 1.415 . S
C1245 H1215 0.950 . S
C1245 C1240 1.363 . S
C1245 C1244 1.415 . S
H1246 C1243 0.999 . S
H1247 C1228 0.913 . S
H1248 C1266 0.951 . S
H1249 C1268 0.951 . S
H1250 C1270 0.950 . S
H1251 C1271 0.950 . S
H1252 C1273 0.950 1_556 S
H1253 C1276 0.950 . S
H1254 C1277 0.950 . S
H1255 C1279 0.950 . S
H1256 C1280 0.950 . S
H1257 C1281 0.951 . S
H1258 C1283 0.951 . S
H1259 C1285 0.950 . S
H1260 C1286 0.950 . S
H1261 C1288 0.950 . S
H1262 C1291 0.950 . S
H1263 C1292 0.950 . S
H1264 C1294 0.950 . S
H1265 C1295 0.950 . S
C1266 H1248 0.951 . S
C1266 C1267 1.366 . S
C1266 C1268 1.388 . S
C1267 C1266 1.366 . S
C1267 C1271 1.385 . S
C1268 H1249 0.951 . S
C1268 C1266 1.388 . S
C1268 C1269 1.366 . S
C1269 C1268 1.366 . S
C1269 C1270 1.414 . S
C1269 C1272 1.499 . S
C1270 H1250 0.950 . S
C1270 C1269 1.414 . S
C1270 C1271 1.374 . S
C1271 H1251 0.950 . S
C1271 C1267 1.385 . S
C1271 C1270 1.374 . S
C1272 C1269 1.499 . S
C1272 C1273 1.373 . S
C1272 C1274 1.389 . S
C1273 H1252 0.950 1_554 S
C1273 C1272 1.373 . S
C1273 C1289 1.377 1_455 S
C1274 C1272 1.389 . S
C1274 C1275 1.524 . S
C1274 C1288 1.377 1_455 S
C1275 C1274 1.524 . S
C1275 C1276 1.397 . S
C1275 C1280 1.363 . S
C1276 H1253 0.950 . S
C1276 C1275 1.397 . S
C1276 C1277 1.334 . S
C1277 H1254 0.950 . S
C1277 C1276 1.334 . S
C1277 C1278 1.287 . S
C1278 C1277 1.287 . S
C1278 C1279 1.524 . S
C1278 H1297 0.913 . S
C1279 H1255 0.950 . S
C1279 C1278 1.524 . S
C1279 C1280 1.415 . S
C1280 H1256 0.950 . S
C1280 C1275 1.363 . S
C1280 C1279 1.415 . S
C1281 H1257 0.951 . S
C1281 C1282 1.366 . S
C1281 C1283 1.388 . S
C1282 C1281 1.366 . S
C1282 C1286 1.385 . S
C1283 H1258 0.951 . S
C1283 C1281 1.388 . S
C1283 C1284 1.366 . S
C1284 C1283 1.366 . S
C1284 C1285 1.414 . S
C1284 C1287 1.499 . S
C1285 H1259 0.950 . S
C1285 C1284 1.414 . S
C1285 C1286 1.374 . S
C1286 H1260 0.950 . S
C1286 C1282 1.385 . S
C1286 C1285 1.374 . S
C1287 C1284 1.499 . S
C1287 C1288 1.373 . S
C1287 C1289 1.389 . S
C1288 H1261 0.950 . S
C1288 C1274 1.377 1_655 S
C1288 C1287 1.373 . S
C1289 C1273 1.377 1_655 S
C1289 C1287 1.389 . S
C1289 C1290 1.524 1_554 S
C1290 C1289 1.524 1_556 S
C1290 C1291 1.397 . S
C1290 C1295 1.363 . S
C1291 H1262 0.950 . S
C1291 C1290 1.397 . S
C1291 C1292 1.334 . S
C1292 H1263 0.950 . S
C1292 C1291 1.334 . S
C1292 C1293 1.287 . S
C1293 C1292 1.287 . S
C1293 C1294 1.524 . S
C1293 H1296 0.999 . S
C1294 H1264 0.950 . S
C1294 C1293 1.524 . S
C1294 C1295 1.415 . S
C1295 H1265 0.950 . S
C1295 C1290 1.363 . S
C1295 C1294 1.415 . S
H1296 C1293 0.999 . S
H1297 C1278 0.913 . S
H1298 C1316 0.951 . S
H1299 C1318 0.951 . S
H1300 C1320 0.950 . S
H1301 C1321 0.950 . S
H1302 C1323 0.950 . S
H1303 C1326 0.950 . S
H1304 C1327 0.950 . S
H1305 C1329 0.950 . S
H1306 C1330 0.950 . S
H1307 C1331 0.951 . S
H1308 C1333 0.951 . S
H1309 C1335 0.950 . S
H1310 C1336 0.950 . S
H1311 C1338 0.950 . S
H1312 C1341 0.950 . S
H1313 C1342 0.950 . S
H1314 C1344 0.950 . S
H1315 C1345 0.950 . S
C1316 H1298 0.951 . S
C1316 C1317 1.366 . S
C1316 C1318 1.388 . S
C1317 C1316 1.366 . S
C1317 C1321 1.385 . S
C1318 H1299 0.951 . S
C1318 C1316 1.388 . S
C1318 C1319 1.366 . S
C1319 C1318 1.366 . S
C1319 C1320 1.414 . S
C1319 C1322 1.499 . S
C1320 H1300 0.950 . S
C1320 C1319 1.414 . S
C1320 C1321 1.374 . S
C1321 H1301 0.950 . S
C1321 C1317 1.385 . S
C1321 C1320 1.374 . S
C1322 C1319 1.499 . S
C1322 C1323 1.373 . S
C1322 C1324 1.389 . S
C1323 H1302 0.950 . S
C1323 C1322 1.373 . S
C1323 C1339 1.377 . S
C1324 C1322 1.389 . S
C1324 C1325 1.524 . S
C1324 C1338 1.377 . S
C1325 C1324 1.524 . S
C1325 C1326 1.397 . S
C1325 C1330 1.363 . S
C1326 H1303 0.950 . S
C1326 C1325 1.397 . S
C1326 C1327 1.334 . S
C1327 H1304 0.950 . S
C1327 C1326 1.334 . S
C1327 C1328 1.287 . S
C1328 C1327 1.287 . S
C1328 C1329 1.524 . S
C1328 H1347 0.913 . S
C1329 H1305 0.950 . S
C1329 C1328 1.524 . S
C1329 C1330 1.415 . S
C1330 H1306 0.950 . S
C1330 C1325 1.363 . S
C1330 C1329 1.415 . S
C1331 H1307 0.951 . S
C1331 C1332 1.366 . S
C1331 C1333 1.388 . S
C1332 C1331 1.366 . S
C1332 C1336 1.385 . S
C1333 H1308 0.951 . S
C1333 C1331 1.388 . S
C1333 C1334 1.366 . S
C1334 C1333 1.366 . S
C1334 C1335 1.414 . S
C1334 C1337 1.499 . S
C1335 H1309 0.950 . S
C1335 C1334 1.414 . S
C1335 C1336 1.374 . S
C1336 H1310 0.950 . S
C1336 C1332 1.385 . S
C1336 C1335 1.374 . S
C1337 C1334 1.499 . S
C1337 C1338 1.373 . S
C1337 C1339 1.389 . S
C1338 H1311 0.950 . S
C1338 C1324 1.377 . S
C1338 C1337 1.373 . S
C1339 C1323 1.377 . S
C1339 C1337 1.389 . S
C1339 C1340 1.524 . S
C1340 C1339 1.524 . S
C1340 C1341 1.397 . S
C1340 C1345 1.363 . S
C1341 H1312 0.950 . S
C1341 C1340 1.397 . S
C1341 C1342 1.334 . S
C1342 H1313 0.950 . S
C1342 C1341 1.334 . S
C1342 C1343 1.287 . S
C1343 C1342 1.287 . S
C1343 C1344 1.524 . S
C1343 H1346 0.999 . S
C1344 H1314 0.950 . S
C1344 C1343 1.524 . S
C1344 C1345 1.415 . S
C1345 H1315 0.950 . S
C1345 C1340 1.363 . S
C1345 C1344 1.415 . S
H1346 C1343 0.999 . S
H1347 C1328 0.913 . S
H1348 C1366 0.951 . S
H1349 C1368 0.951 . S
H1350 C1370 0.950 . S
H1351 C1371 0.950 . S
H1352 C1373 0.950 . S
H1353 C1376 0.950 . S
H1354 C1377 0.950 . S
H1355 C1379 0.950 . S
H1356 C1380 0.950 . S
H1357 C1381 0.951 . S
H1358 C1383 0.951 . S
H1359 C1385 0.950 . S
H1360 C1386 0.950 . S
H1361 C1388 0.950 . S
H1362 C1391 0.950 . S
H1363 C1392 0.950 . S
H1364 C1394 0.950 . S
H1365 C1395 0.950 . S
C1366 H1348 0.951 . S
C1366 C1367 1.366 . S
C1366 C1368 1.388 . S
C1367 C1366 1.366 . S
C1367 C1371 1.385 . S
C1368 H1349 0.951 . S
C1368 C1366 1.388 . S
C1368 C1369 1.366 . S
C1369 C1368 1.366 . S
C1369 C1370 1.414 . S
C1369 C1372 1.499 . S
C1370 H1350 0.950 . S
C1370 C1369 1.414 . S
C1370 C1371 1.374 . S
C1371 H1351 0.950 . S
C1371 C1367 1.385 . S
C1371 C1370 1.374 . S
C1372 C1369 1.499 . S
C1372 C1373 1.373 . S
C1372 C1374 1.389 . S
C1373 H1352 0.950 . S
C1373 C1372 1.373 . S
C1373 C1389 1.377 . S
C1374 C1372 1.389 . S
C1374 C1375 1.524 . S
C1374 C1388 1.377 . S
C1375 C1374 1.524 . S
C1375 C1376 1.397 . S
C1375 C1380 1.363 . S
C1376 H1353 0.950 . S
C1376 C1375 1.397 . S
C1376 C1377 1.334 . S
C1377 H1354 0.950 . S
C1377 C1376 1.334 . S
C1377 C1378 1.287 . S
C1378 C1377 1.287 . S
C1378 C1379 1.524 . S
C1378 H1397 0.913 . S
C1379 H1355 0.950 . S
C1379 C1378 1.524 . S
C1379 C1380 1.415 . S
C1380 H1356 0.950 . S
C1380 C1375 1.363 . S
C1380 C1379 1.415 . S
C1381 H1357 0.951 . S
C1381 C1382 1.366 . S
C1381 C1383 1.388 . S
C1382 C1381 1.366 . S
C1382 C1386 1.385 . S
C1383 H1358 0.951 . S
C1383 C1381 1.388 . S
C1383 C1384 1.366 . S
C1384 C1383 1.366 . S
C1384 C1385 1.414 . S
C1384 C1387 1.499 . S
C1385 H1359 0.950 . S
C1385 C1384 1.414 . S
C1385 C1386 1.374 . S
C1386 H1360 0.950 . S
C1386 C1382 1.385 . S
C1386 C1385 1.374 . S
C1387 C1384 1.499 . S
C1387 C1388 1.373 . S
C1387 C1389 1.389 . S
C1388 H1361 0.950 . S
C1388 C1374 1.377 . S
C1388 C1387 1.373 . S
C1389 C1373 1.377 . S
C1389 C1387 1.389 . S
C1389 C1390 1.524 . S
C1390 C1389 1.524 . S
C1390 C1391 1.397 . S
C1390 C1395 1.363 . S
C1391 H1362 0.950 . S
C1391 C1390 1.397 . S
C1391 C1392 1.334 . S
C1392 H1363 0.950 . S
C1392 C1391 1.334 . S
C1392 C1393 1.287 . S
C1393 C1392 1.287 . S
C1393 C1394 1.524 . S
C1393 H1396 0.999 . S
C1394 H1364 0.950 . S
C1394 C1393 1.524 . S
C1394 C1395 1.415 . S
C1395 H1365 0.950 . S
C1395 C1390 1.363 . S
C1395 C1394 1.415 . S
H1396 C1393 0.999 . S
H1397 C1378 0.913 . S
H1398 C1416 0.951 . S
H1399 C1418 0.951 . S
H1400 C1420 0.950 . S
H1401 C1421 0.950 . S
H1402 C1423 0.950 . S
H1403 C1426 0.950 . S
H1404 C1427 0.950 . S
H1405 C1429 0.950 . S
H1406 C1430 0.950 . S
H1407 C1431 0.951 . S
H1408 C1433 0.951 . S
H1409 C1435 0.950 . S
H1410 C1436 0.950 . S
H1411 C1438 0.950 . S
H1412 C1441 0.950 . S
H1413 C1442 0.950 . S
H1414 C1444 0.950 . S
H1415 C1445 0.950 . S
C1416 H1398 0.951 . S
C1416 C1417 1.366 . S
C1416 C1418 1.388 . S
C1417 C1416 1.366 . S
C1417 C1421 1.385 . S
C1418 H1399 0.951 . S
C1418 C1416 1.388 . S
C1418 C1419 1.366 . S
C1419 C1418 1.366 . S
C1419 C1420 1.414 . S
C1419 C1422 1.499 . S
C1420 H1400 0.950 . S
C1420 C1419 1.414 . S
C1420 C1421 1.374 . S
C1421 H1401 0.950 . S
C1421 C1417 1.385 . S
C1421 C1420 1.374 . S
C1422 C1419 1.499 . S
C1422 C1423 1.373 . S
C1422 C1424 1.389 . S
C1423 H1402 0.950 . S
C1423 C1422 1.373 . S
C1423 C1439 1.377 . S
C1424 C1422 1.389 . S
C1424 C1425 1.524 . S
C1424 C1438 1.377 . S
C1425 C1424 1.524 . S
C1425 C1426 1.397 . S
C1425 C1430 1.363 . S
C1426 H1403 0.950 . S
C1426 C1425 1.397 . S
C1426 C1427 1.334 . S
C1427 H1404 0.950 . S
C1427 C1426 1.334 . S
C1427 C1428 1.287 . S
C1428 C1427 1.287 . S
C1428 C1429 1.524 . S
C1428 H1447 0.913 . S
C1429 H1405 0.950 . S
C1429 C1428 1.524 . S
C1429 C1430 1.415 . S
C1430 H1406 0.950 . S
C1430 C1425 1.363 . S
C1430 C1429 1.415 . S
C1431 H1407 0.951 . S
C1431 C1432 1.366 . S
C1431 C1433 1.388 . S
C1432 C1431 1.366 . S
C1432 C1436 1.385 . S
C1433 H1408 0.951 . S
C1433 C1431 1.388 . S
C1433 C1434 1.366 . S
C1434 C1433 1.366 . S
C1434 C1435 1.414 . S
C1434 C1437 1.499 . S
C1435 H1409 0.950 . S
C1435 C1434 1.414 . S
C1435 C1436 1.374 . S
C1436 H1410 0.950 . S
C1436 C1432 1.385 . S
C1436 C1435 1.374 . S
C1437 C1434 1.499 . S
C1437 C1438 1.373 . S
C1437 C1439 1.389 . S
C1438 H1411 0.950 . S
C1438 C1424 1.377 . S
C1438 C1437 1.373 . S
C1439 C1423 1.377 . S
C1439 C1437 1.389 . S
C1439 C1440 1.524 . S
C1440 C1439 1.524 . S
C1440 C1441 1.397 . S
C1440 C1445 1.363 . S
C1441 H1412 0.950 . S
C1441 C1440 1.397 . S
C1441 C1442 1.334 . S
C1442 H1413 0.950 . S
C1442 C1441 1.334 . S
C1442 C1443 1.287 . S
C1443 C1442 1.287 . S
C1443 C1444 1.524 . S
C1443 H1446 0.999 . S
C1444 H1414 0.950 . S
C1444 C1443 1.524 . S
C1444 C1445 1.415 . S
C1445 H1415 0.950 . S
C1445 C1440 1.363 . S
C1445 C1444 1.415 . S
H1446 C1443 0.999 . S
H1447 C1428 0.913 . S
H1448 C1466 0.951 . S
H1449 C1468 0.951 . S
H1450 C1470 0.950 . S
H1451 C1471 0.950 . S
H1452 C1473 0.950 . S
H1453 C1476 0.950 . S
H1454 C1477 0.950 . S
H1455 C1479 0.950 . S
H1456 C1480 0.950 . S
H1457 C1481 0.951 . S
H1458 C1483 0.951 . S
H1459 C1485 0.950 . S
H1460 C1486 0.950 . S
H1461 C1488 0.950 . S
H1462 C1491 0.950 . S
H1463 C1492 0.950 . S
H1464 C1494 0.950 . S
H1465 C1495 0.950 . S
C1466 H1448 0.951 . S
C1466 C1467 1.366 . S
C1466 C1468 1.388 . S
C1467 C1466 1.366 . S
C1467 C1471 1.385 . S
C1468 H1449 0.951 . S
C1468 C1466 1.388 . S
C1468 C1469 1.366 . S
C1469 C1468 1.366 . S
C1469 C1470 1.414 . S
C1469 C1472 1.499 . S
C1470 H1450 0.950 . S
C1470 C1469 1.414 . S
C1470 C1471 1.374 . S
C1471 H1451 0.950 . S
C1471 C1467 1.385 . S
C1471 C1470 1.374 . S
C1472 C1469 1.499 . S
C1472 C1473 1.373 . S
C1472 C1474 1.389 . S
C1473 H1452 0.950 . S
C1473 C1472 1.373 . S
C1473 C1489 1.377 1_655 S
C1474 C1472 1.389 . S
C1474 C1475 1.524 . S
C1474 C1488 1.377 1_655 S
C1475 C1474 1.524 . S
C1475 C1476 1.397 . S
C1475 C1480 1.363 . S
C1476 H1453 0.950 . S
C1476 C1475 1.397 . S
C1476 C1477 1.334 . S
C1477 H1454 0.950 . S
C1477 C1476 1.334 . S
C1477 C1478 1.287 . S
C1478 C1477 1.287 . S
C1478 C1479 1.524 . S
C1478 H1497 0.913 . S
C1479 H1455 0.950 . S
C1479 C1478 1.524 . S
C1479 C1480 1.415 . S
C1480 H1456 0.950 . S
C1480 C1475 1.363 . S
C1480 C1479 1.415 . S
C1481 H1457 0.951 . S
C1481 C1482 1.366 . S
C1481 C1483 1.388 . S
C1482 C1481 1.366 . S
C1482 C1486 1.385 . S
C1483 H1458 0.951 . S
C1483 C1481 1.388 . S
C1483 C1484 1.366 . S
C1484 C1483 1.366 . S
C1484 C1485 1.414 . S
C1484 C1487 1.499 . S
C1485 H1459 0.950 . S
C1485 C1484 1.414 . S
C1485 C1486 1.374 . S
C1486 H1460 0.950 . S
C1486 C1482 1.385 . S
C1486 C1485 1.374 . S
C1487 C1484 1.499 . S
C1487 C1488 1.373 . S
C1487 C1489 1.389 . S
C1488 H1461 0.950 . S
C1488 C1474 1.377 1_455 S
C1488 C1487 1.373 . S
C1489 C1473 1.377 1_455 S
C1489 C1487 1.389 . S
C1489 C1490 1.524 . S
C1490 C1489 1.524 . S
C1490 C1491 1.397 1_556 S
C1490 C1495 1.363 . S
C1491 H1462 0.950 . S
C1491 C1490 1.397 1_554 S
C1491 C1492 1.334 . S
C1492 H1463 0.950 . S
C1492 C1491 1.334 . S
C1492 C1493 1.287 . S
C1493 C1492 1.287 . S
C1493 C1494 1.524 1_554 S
C1493 H1496 0.999 . S
C1494 H1464 0.950 . S
C1494 C1493 1.524 1_556 S
C1494 C1495 1.415 . S
C1495 H1465 0.950 . S
C1495 C1490 1.363 . S
C1495 C1494 1.415 . S
H1496 C1493 0.999 . S
H1497 C1478 0.913 . S
H1498 C1516 0.951 . S
H1499 C1518 0.951 . S
H1500 C1520 0.950 . S
H1501 C1521 0.950 . S
H1502 C1523 0.950 . S
H1503 C1526 0.950 . S
H1504 C1527 0.950 . S
H1505 C1529 0.950 . S
H1506 C1530 0.950 . S
H1507 C1531 0.951 . S
H1508 C1533 0.951 . S
H1509 C1535 0.950 . S
H1510 C1536 0.950 . S
H1511 C1538 0.950 . S
H1512 C1541 0.950 . S
H1513 C1542 0.950 . S
H1514 C1544 0.950 . S
H1515 C1545 0.950 . S
C1516 H1498 0.951 . S
C1516 C1517 1.366 . S
C1516 C1518 1.388 . S
C1517 C1516 1.366 . S
C1517 C1521 1.385 . S
C1518 H1499 0.951 . S
C1518 C1516 1.388 . S
C1518 C1519 1.366 . S
C1519 C1518 1.366 . S
C1519 C1520 1.414 . S
C1519 C1522 1.499 . S
C1520 H1500 0.950 . S
C1520 C1519 1.414 . S
C1520 C1521 1.374 . S
C1521 H1501 0.950 . S
C1521 C1517 1.385 . S
C1521 C1520 1.374 . S
C1522 C1519 1.499 . S
C1522 C1523 1.373 . S
C1522 C1524 1.389 . S
C1523 H1502 0.950 . S
C1523 C1522 1.373 . S
C1523 C1539 1.377 . S
C1524 C1522 1.389 . S
C1524 C1525 1.524 . S
C1524 C1538 1.377 . S
C1525 C1524 1.524 . S
C1525 C1526 1.397 . S
C1525 C1530 1.363 . S
C1526 H1503 0.950 . S
C1526 C1525 1.397 . S
C1526 C1527 1.334 . S
C1527 H1504 0.950 . S
C1527 C1526 1.334 . S
C1527 C1528 1.287 . S
C1528 C1527 1.287 . S
C1528 C1529 1.524 . S
C1528 H1547 0.913 . S
C1529 H1505 0.950 . S
C1529 C1528 1.524 . S
C1529 C1530 1.415 . S
C1530 H1506 0.950 . S
C1530 C1525 1.363 . S
C1530 C1529 1.415 . S
C1531 H1507 0.951 . S
C1531 C1532 1.366 . S
C1531 C1533 1.388 . S
C1532 C1531 1.366 . S
C1532 C1536 1.385 . S
C1533 H1508 0.951 . S
C1533 C1531 1.388 . S
C1533 C1534 1.366 . S
C1534 C1533 1.366 . S
C1534 C1535 1.414 . S
C1534 C1537 1.499 . S
C1535 H1509 0.950 . S
C1535 C1534 1.414 . S
C1535 C1536 1.374 . S
C1536 H1510 0.950 . S
C1536 C1532 1.385 . S
C1536 C1535 1.374 . S
C1537 C1534 1.499 . S
C1537 C1538 1.373 . S
C1537 C1539 1.389 . S
C1538 H1511 0.950 . S
C1538 C1524 1.377 . S
C1538 C1537 1.373 . S
C1539 C1523 1.377 . S
C1539 C1537 1.389 . S
C1539 C1540 1.524 . S
C1540 C1539 1.524 . S
C1540 C1541 1.397 . S
C1540 C1545 1.363 . S
C1541 H1512 0.950 . S
C1541 C1540 1.397 . S
C1541 C1542 1.334 . S
C1542 H1513 0.950 . S
C1542 C1541 1.334 . S
C1542 C1543 1.287 . S
C1543 C1542 1.287 . S
C1543 C1544 1.524 . S
C1543 H1546 0.999 . S
C1544 H1514 0.950 . S
C1544 C1543 1.524 . S
C1544 C1545 1.415 . S
C1545 H1515 0.950 . S
C1545 C1540 1.363 . S
C1545 C1544 1.415 . S
H1546 C1543 0.999 . S
H1547 C1528 0.913 . S
H1548 C1566 0.951 . S
H1549 C1568 0.951 . S
H1550 C1570 0.950 . S
H1551 C1571 0.950 . S
H1552 C1573 0.950 . S
H1553 C1576 0.950 . S
H1554 C1577 0.950 . S
H1555 C1579 0.950 . S
H1556 C1580 0.950 . S
H1557 C1581 0.951 . S
H1558 C1583 0.951 . S
H1559 C1585 0.950 . S
H1560 C1586 0.950 . S
H1561 C1588 0.950 . S
H1562 C1591 0.950 . S
H1563 C1592 0.950 . S
H1564 C1594 0.950 . S
H1565 C1595 0.950 . S
C1566 H1548 0.951 . S
C1566 C1567 1.366 . S
C1566 C1568 1.388 . S
C1567 C1566 1.366 . S
C1567 C1571 1.385 . S
C1568 H1549 0.951 . S
C1568 C1566 1.388 . S
C1568 C1569 1.366 . S
C1569 C1568 1.366 . S
C1569 C1570 1.414 . S
C1569 C1572 1.499 . S
C1570 H1550 0.950 . S
C1570 C1569 1.414 . S
C1570 C1571 1.374 . S
C1571 H1551 0.950 . S
C1571 C1567 1.385 . S
C1571 C1570 1.374 . S
C1572 C1569 1.499 . S
C1572 C1573 1.373 . S
C1572 C1574 1.389 . S
C1573 H1552 0.950 . S
C1573 C1572 1.373 . S
C1573 C1589 1.377 . S
C1574 C1572 1.389 . S
C1574 C1575 1.524 . S
C1574 C1588 1.377 . S
C1575 C1574 1.524 . S
C1575 C1576 1.397 . S
C1575 C1580 1.363 . S
C1576 H1553 0.950 . S
C1576 C1575 1.397 . S
C1576 C1577 1.334 . S
C1577 H1554 0.950 . S
C1577 C1576 1.334 . S
C1577 C1578 1.287 . S
C1578 C1577 1.287 . S
C1578 C1579 1.524 . S
C1578 H1597 0.913 . S
C1579 H1555 0.950 . S
C1579 C1578 1.524 . S
C1579 C1580 1.415 . S
C1580 H1556 0.950 . S
C1580 C1575 1.363 . S
C1580 C1579 1.415 . S
C1581 H1557 0.951 . S
C1581 C1582 1.366 . S
C1581 C1583 1.388 . S
C1582 C1581 1.366 . S
C1582 C1586 1.385 . S
C1583 H1558 0.951 . S
C1583 C1581 1.388 . S
C1583 C1584 1.366 . S
C1584 C1583 1.366 . S
C1584 C1585 1.414 . S
C1584 C1587 1.499 . S
C1585 H1559 0.950 . S
C1585 C1584 1.414 . S
C1585 C1586 1.374 . S
C1586 H1560 0.950 . S
C1586 C1582 1.385 . S
C1586 C1585 1.374 . S
C1587 C1584 1.499 . S
C1587 C1588 1.373 . S
C1587 C1589 1.389 . S
C1588 H1561 0.950 . S
C1588 C1574 1.377 . S
C1588 C1587 1.373 . S
C1589 C1573 1.377 . S
C1589 C1587 1.389 . S
C1589 C1590 1.524 . S
C1590 C1589 1.524 . S
C1590 C1591 1.397 . S
C1590 C1595 1.363 . S
C1591 H1562 0.950 . S
C1591 C1590 1.397 . S
C1591 C1592 1.334 . S
C1592 H1563 0.950 . S
C1592 C1591 1.334 . S
C1592 C1593 1.287 . S
C1593 C1592 1.287 . S
C1593 C1594 1.524 . S
C1593 H1596 0.999 . S
C1594 H1564 0.950 . S
C1594 C1593 1.524 . S
C1594 C1595 1.415 . S
C1595 H1565 0.950 . S
C1595 C1590 1.363 . S
C1595 C1594 1.415 . S
H1596 C1593 0.999 . S
H1597 C1578 0.913 . S
H1598 C1616 0.951 . S
H1599 C1618 0.951 . S
H1600 C1620 0.950 . S
H1601 C1621 0.950 . S
H1602 C1623 0.950 . S
H1603 C1626 0.950 . S
H1604 C1627 0.950 . S
H1605 C1629 0.950 . S
H1606 C1630 0.950 . S
H1607 C1631 0.951 . S
H1608 C1633 0.951 . S
H1609 C1635 0.950 . S
H1610 C1636 0.950 . S
H1611 C1638 0.950 . S
H1612 C1641 0.950 . S
H1613 C1642 0.950 . S
H1614 C1644 0.950 . S
H1615 C1645 0.950 . S
C1616 H1598 0.951 . S
C1616 C1617 1.366 . S
C1616 C1618 1.388 . S
C1617 C1616 1.366 . S
C1617 C1621 1.385 . S
C1618 H1599 0.951 . S
C1618 C1616 1.388 . S
C1618 C1619 1.366 . S
C1619 C1618 1.366 . S
C1619 C1620 1.414 . S
C1619 C1622 1.499 . S
C1620 H1600 0.950 . S
C1620 C1619 1.414 . S
C1620 C1621 1.374 . S
C1621 H1601 0.950 . S
C1621 C1617 1.385 . S
C1621 C1620 1.374 . S
C1622 C1619 1.499 . S
C1622 C1623 1.373 . S
C1622 C1624 1.389 . S
C1623 H1602 0.950 . S
C1623 C1622 1.373 . S
C1623 C1639 1.377 . S
C1624 C1622 1.389 . S
C1624 C1625 1.524 . S
C1624 C1638 1.377 . S
C1625 C1624 1.524 . S
C1625 C1626 1.397 . S
C1625 C1630 1.363 . S
C1626 H1603 0.950 . S
C1626 C1625 1.397 . S
C1626 C1627 1.334 . S
C1627 H1604 0.950 . S
C1627 C1626 1.334 . S
C1627 C1628 1.287 . S
C1628 C1627 1.287 . S
C1628 C1629 1.524 . S
C1628 H1647 0.913 . S
C1629 H1605 0.950 . S
C1629 C1628 1.524 . S
C1629 C1630 1.415 . S
C1630 H1606 0.950 . S
C1630 C1625 1.363 . S
C1630 C1629 1.415 . S
C1631 H1607 0.951 . S
C1631 C1632 1.366 . S
C1631 C1633 1.388 . S
C1632 C1631 1.366 . S
C1632 C1636 1.385 . S
C1633 H1608 0.951 . S
C1633 C1631 1.388 . S
C1633 C1634 1.366 . S
C1634 C1633 1.366 . S
C1634 C1635 1.414 . S
C1634 C1637 1.499 . S
C1635 H1609 0.950 . S
C1635 C1634 1.414 . S
C1635 C1636 1.374 . S
C1636 H1610 0.950 . S
C1636 C1632 1.385 . S
C1636 C1635 1.374 . S
C1637 C1634 1.499 . S
C1637 C1638 1.373 . S
C1637 C1639 1.389 . S
C1638 H1611 0.950 . S
C1638 C1624 1.377 . S
C1638 C1637 1.373 . S
C1639 C1623 1.377 . S
C1639 C1637 1.389 . S
C1639 C1640 1.524 . S
C1640 C1639 1.524 . S
C1640 C1641 1.397 . S
C1640 C1645 1.363 . S
C1641 H1612 0.950 . S
C1641 C1640 1.397 . S
C1641 C1642 1.334 . S
C1642 H1613 0.950 . S
C1642 C1641 1.334 . S
C1642 C1643 1.287 . S
C1643 C1642 1.287 . S
C1643 C1644 1.524 . S
C1643 H1646 0.999 . S
C1644 H1614 0.950 . S
C1644 C1643 1.524 . S
C1644 C1645 1.415 . S
C1645 H1615 0.950 . S
C1645 C1640 1.363 . S
C1645 C1644 1.415 . S
H1646 C1643 0.999 . S
H1647 C1628 0.913 . S
H1648 C1666 0.951 . S
H1649 C1668 0.951 . S
H1650 C1670 0.950 . S
H1651 C1671 0.950 . S
H1652 C1673 0.950 . S
H1653 C1676 0.950 . S
H1654 C1677 0.950 . S
H1655 C1679 0.950 . S
H1656 C1680 0.950 . S
H1657 C1681 0.951 . S
H1658 C1683 0.951 . S
H1659 C1685 0.950 . S
H1660 C1686 0.950 . S
H1661 C1688 0.950 . S
H1662 C1691 0.950 . S
H1663 C1692 0.950 . S
H1664 C1694 0.950 . S
H1665 C1695 0.950 . S
C1666 H1648 0.951 . S
C1666 C1667 1.366 . S
C1666 C1668 1.388 . S
C1667 C1666 1.366 . S
C1667 C1671 1.385 . S
C1668 H1649 0.951 . S
C1668 C1666 1.388 . S
C1668 C1669 1.366 . S
C1669 C1668 1.366 . S
C1669 C1670 1.414 . S
C1669 C1672 1.499 . S
C1670 H1650 0.950 . S
C1670 C1669 1.414 . S
C1670 C1671 1.374 . S
C1671 H1651 0.950 . S
C1671 C1667 1.385 . S
C1671 C1670 1.374 . S
C1672 C1669 1.499 . S
C1672 C1673 1.373 . S
C1672 C1674 1.389 . S
C1673 H1652 0.950 . S
C1673 C1672 1.373 . S
C1673 C1689 1.377 . S
C1674 C1672 1.389 . S
C1674 C1675 1.524 . S
C1674 C1688 1.377 . S
C1675 C1674 1.524 . S
C1675 C1676 1.397 . S
C1675 C1680 1.363 . S
C1676 H1653 0.950 . S
C1676 C1675 1.397 . S
C1676 C1677 1.334 . S
C1677 H1654 0.950 . S
C1677 C1676 1.334 . S
C1677 C1678 1.287 . S
C1678 C1677 1.287 . S
C1678 C1679 1.524 . S
C1678 H1697 0.913 . S
C1679 H1655 0.950 . S
C1679 C1678 1.524 . S
C1679 C1680 1.415 . S
C1680 H1656 0.950 . S
C1680 C1675 1.363 . S
C1680 C1679 1.415 . S
C1681 H1657 0.951 . S
C1681 C1682 1.366 . S
C1681 C1683 1.388 . S
C1682 C1681 1.366 . S
C1682 C1686 1.385 . S
C1683 H1658 0.951 . S
C1683 C1681 1.388 . S
C1683 C1684 1.366 . S
C1684 C1683 1.366 . S
C1684 C1685 1.414 . S
C1684 C1687 1.499 . S
C1685 H1659 0.950 . S
C1685 C1684 1.414 . S
C1685 C1686 1.374 . S
C1686 H1660 0.950 . S
C1686 C1682 1.385 . S
C1686 C1685 1.374 . S
C1687 C1684 1.499 . S
C1687 C1688 1.373 . S
C1687 C1689 1.389 . S
C1688 H1661 0.950 . S
C1688 C1674 1.377 . S
C1688 C1687 1.373 . S
C1689 C1673 1.377 . S
C1689 C1687 1.389 . S
C1689 C1690 1.524 . S
C1690 C1689 1.524 . S
C1690 C1691 1.397 . S
C1690 C1695 1.363 . S
C1691 H1662 0.950 . S
C1691 C1690 1.397 . S
C1691 C1692 1.334 . S
C1692 H1663 0.950 . S
C1692 C1691 1.334 . S
C1692 C1693 1.287 . S
C1693 C1692 1.287 . S
C1693 C1694 1.524 . S
C1693 H1696 0.999 . S
C1694 H1664 0.950 . S
C1694 C1693 1.524 . S
C1694 C1695 1.415 . S
C1695 H1665 0.950 . S
C1695 C1690 1.363 . S
C1695 C1694 1.415 . S
H1696 C1693 0.999 . S
H1697 C1678 0.913 . S
H1698 C1716 0.951 . S
H1699 C1718 0.951 . S
H1700 C1720 0.950 . S
H1701 C1721 0.950 . S
H1702 C1723 0.950 . S
H1703 C1726 0.950 . S
H1704 C1727 0.950 . S
H1705 C1729 0.950 . S
H1706 C1730 0.950 . S
H1707 C1731 0.951 . S
H1708 C1733 0.951 . S
H1709 C1735 0.950 . S
H1710 C1736 0.950 . S
H1711 C1738 0.950 . S
H1712 C1741 0.950 . S
H1713 C1742 0.950 . S
H1714 C1744 0.950 . S
H1715 C1745 0.950 . S
C1716 H1698 0.951 . S
C1716 C1717 1.366 . S
C1716 C1718 1.388 . S
C1717 C1716 1.366 . S
C1717 C1721 1.385 . S
C1718 H1699 0.951 . S
C1718 C1716 1.388 . S
C1718 C1719 1.366 . S
C1719 C1718 1.366 . S
C1719 C1720 1.414 . S
C1719 C1722 1.499 . S
C1720 H1700 0.950 . S
C1720 C1719 1.414 . S
C1720 C1721 1.374 . S
C1721 H1701 0.950 . S
C1721 C1717 1.385 . S
C1721 C1720 1.374 . S
C1722 C1719 1.499 . S
C1722 C1723 1.373 . S
C1722 C1724 1.389 . S
C1723 H1702 0.950 . S
C1723 C1722 1.373 . S
C1723 C1739 1.377 . S
C1724 C1722 1.389 . S
C1724 C1725 1.524 . S
C1724 C1738 1.377 . S
C1725 C1724 1.524 . S
C1725 C1726 1.397 . S
C1725 C1730 1.363 . S
C1726 H1703 0.950 . S
C1726 C1725 1.397 . S
C1726 C1727 1.334 . S
C1727 H1704 0.950 . S
C1727 C1726 1.334 . S
C1727 C1728 1.287 . S
C1728 C1727 1.287 . S
C1728 C1729 1.524 . S
C1728 H1747 0.913 . S
C1729 H1705 0.950 . S
C1729 C1728 1.524 . S
C1729 C1730 1.415 . S
C1730 H1706 0.950 . S
C1730 C1725 1.363 . S
C1730 C1729 1.415 . S
C1731 H1707 0.951 . S
C1731 C1732 1.366 . S
C1731 C1733 1.388 . S
C1732 C1731 1.366 . S
C1732 C1736 1.385 . S
C1733 H1708 0.951 . S
C1733 C1731 1.388 . S
C1733 C1734 1.366 . S
C1734 C1733 1.366 . S
C1734 C1735 1.414 . S
C1734 C1737 1.499 . S
C1735 H1709 0.950 . S
C1735 C1734 1.414 . S
C1735 C1736 1.374 . S
C1736 H1710 0.950 . S
C1736 C1732 1.385 . S
C1736 C1735 1.374 . S
C1737 C1734 1.499 . S
C1737 C1738 1.373 . S
C1737 C1739 1.389 . S
C1738 H1711 0.950 . S
C1738 C1724 1.377 . S
C1738 C1737 1.373 . S
C1739 C1723 1.377 . S
C1739 C1737 1.389 . S
C1739 C1740 1.524 . S
C1740 C1739 1.524 . S
C1740 C1741 1.397 . S
C1740 C1745 1.363 . S
C1741 H1712 0.950 . S
C1741 C1740 1.397 . S
C1741 C1742 1.334 . S
C1742 H1713 0.950 . S
C1742 C1741 1.334 . S
C1742 C1743 1.287 . S
C1743 C1742 1.287 . S
C1743 C1744 1.524 . S
C1743 H1746 0.999 . S
C1744 H1714 0.950 . S
C1744 C1743 1.524 . S
C1744 C1745 1.415 . S
C1745 H1715 0.950 . S
C1745 C1740 1.363 . S
C1745 C1744 1.415 . S
H1746 C1743 0.999 . S
H1747 C1728 0.913 . S
H1748 C1766 0.951 . S
H1749 C1768 0.951 . S
H1750 C1770 0.950 . S
H1751 C1771 0.950 . S
H1752 C1773 0.950 . S
H1753 C1776 0.950 . S
H1754 C1777 0.950 . S
H1755 C1779 0.950 . S
H1756 C1780 0.950 . S
H1757 C1781 0.951 . S
H1758 C1783 0.951 . S
H1759 C1785 0.950 . S
H1760 C1786 0.950 . S
H1761 C1788 0.950 . S
H1762 C1791 0.950 . S
H1763 C1792 0.950 . S
H1764 C1794 0.950 . S
H1765 C1795 0.950 . S
C1766 H1748 0.951 . S
C1766 C1767 1.366 . S
C1766 C1768 1.388 . S
C1767 C1766 1.366 . S
C1767 C1771 1.385 . S
C1768 H1749 0.951 . S
C1768 C1766 1.388 . S
C1768 C1769 1.366 . S
C1769 C1768 1.366 . S
C1769 C1770 1.414 . S
C1769 C1772 1.499 . S
C1770 H1750 0.950 . S
C1770 C1769 1.414 . S
C1770 C1771 1.374 . S
C1771 H1751 0.950 . S
C1771 C1767 1.385 . S
C1771 C1770 1.374 . S
C1772 C1769 1.499 . S
C1772 C1773 1.373 . S
C1772 C1774 1.389 . S
C1773 H1752 0.950 . S
C1773 C1772 1.373 . S
C1773 C1789 1.377 . S
C1774 C1772 1.389 . S
C1774 C1775 1.524 . S
C1774 C1788 1.377 . S
C1775 C1774 1.524 . S
C1775 C1776 1.397 . S
C1775 C1780 1.363 . S
C1776 H1753 0.950 . S
C1776 C1775 1.397 . S
C1776 C1777 1.334 . S
C1777 H1754 0.950 . S
C1777 C1776 1.334 . S
C1777 C1778 1.287 . S
C1778 C1777 1.287 . S
C1778 C1779 1.524 . S
C1778 H1797 0.913 . S
C1779 H1755 0.950 . S
C1779 C1778 1.524 . S
C1779 C1780 1.415 . S
C1780 H1756 0.950 . S
C1780 C1775 1.363 . S
C1780 C1779 1.415 . S
C1781 H1757 0.951 . S
C1781 C1782 1.366 . S
C1781 C1783 1.388 . S
C1782 C1781 1.366 . S
C1782 C1786 1.385 . S
C1783 H1758 0.951 . S
C1783 C1781 1.388 . S
C1783 C1784 1.366 . S
C1784 C1783 1.366 . S
C1784 C1785 1.414 . S
C1784 C1787 1.499 . S
C1785 H1759 0.950 . S
C1785 C1784 1.414 . S
C1785 C1786 1.374 . S
C1786 H1760 0.950 . S
C1786 C1782 1.385 . S
C1786 C1785 1.374 . S
C1787 C1784 1.499 . S
C1787 C1788 1.373 . S
C1787 C1789 1.389 . S
C1788 H1761 0.950 . S
C1788 C1774 1.377 . S
C1788 C1787 1.373 . S
C1789 C1773 1.377 . S
C1789 C1787 1.389 . S
C1789 C1790 1.524 . S
C1790 C1789 1.524 . S
C1790 C1791 1.397 . S
C1790 C1795 1.363 . S
C1791 H1762 0.950 . S
C1791 C1790 1.397 . S
C1791 C1792 1.334 . S
C1792 H1763 0.950 . S
C1792 C1791 1.334 . S
C1792 C1793 1.287 . S
C1793 C1792 1.287 . S
C1793 C1794 1.524 . S
C1793 H1796 0.999 . S
C1794 H1764 0.950 . S
C1794 C1793 1.524 . S
C1794 C1795 1.415 . S
C1795 H1765 0.950 . S
C1795 C1790 1.363 . S
C1795 C1794 1.415 . S
H1796 C1793 0.999 . S
H1797 C1778 0.913 . S
H1798 C1816 0.951 . S
H1799 C1818 0.951 . S
H1800 C1820 0.950 . S
H1801 C1821 0.950 . S
H1802 C1823 0.950 . S
H1803 C1826 0.950 . S
H1804 C1827 0.950 . S
H1805 C1829 0.950 . S
H1806 C1830 0.950 . S
H1807 C1831 0.951 . S
H1808 C1833 0.951 . S
H1809 C1835 0.950 . S
H1810 C1836 0.950 . S
H1811 C1838 0.950 . S
H1812 C1841 0.950 . S
H1813 C1842 0.950 . S
H1814 C1844 0.950 . S
H1815 C1845 0.950 . S
C1816 H1798 0.951 . S
C1816 C1817 1.366 . S
C1816 C1818 1.388 . S
C1817 C1816 1.366 . S
C1817 C1821 1.385 . S
C1818 H1799 0.951 . S
C1818 C1816 1.388 . S
C1818 C1819 1.366 . S
C1819 C1818 1.366 . S
C1819 C1820 1.414 . S
C1819 C1822 1.499 . S
C1820 H1800 0.950 . S
C1820 C1819 1.414 . S
C1820 C1821 1.374 . S
C1821 H1801 0.950 . S
C1821 C1817 1.385 . S
C1821 C1820 1.374 . S
C1822 C1819 1.499 . S
C1822 C1823 1.373 . S
C1822 C1824 1.389 . S
C1823 H1802 0.950 . S
C1823 C1822 1.373 . S
C1823 C1839 1.377 . S
C1824 C1822 1.389 . S
C1824 C1825 1.524 . S
C1824 C1838 1.377 . S
C1825 C1824 1.524 . S
C1825 C1826 1.397 . S
C1825 C1830 1.363 . S
C1826 H1803 0.950 . S
C1826 C1825 1.397 . S
C1826 C1827 1.334 . S
C1827 H1804 0.950 . S
C1827 C1826 1.334 . S
C1827 C1828 1.287 . S
C1828 C1827 1.287 . S
C1828 C1829 1.524 . S
C1828 H1847 0.913 . S
C1829 H1805 0.950 . S
C1829 C1828 1.524 . S
C1829 C1830 1.415 . S
C1830 H1806 0.950 . S
C1830 C1825 1.363 . S
C1830 C1829 1.415 . S
C1831 H1807 0.951 . S
C1831 C1832 1.366 . S
C1831 C1833 1.388 . S
C1832 C1831 1.366 . S
C1832 C1836 1.385 . S
C1833 H1808 0.951 . S
C1833 C1831 1.388 . S
C1833 C1834 1.366 . S
C1834 C1833 1.366 . S
C1834 C1835 1.414 . S
C1834 C1837 1.499 . S
C1835 H1809 0.950 . S
C1835 C1834 1.414 . S
C1835 C1836 1.374 . S
C1836 H1810 0.950 . S
C1836 C1832 1.385 . S
C1836 C1835 1.374 . S
C1837 C1834 1.499 . S
C1837 C1838 1.373 . S
C1837 C1839 1.389 . S
C1838 H1811 0.950 . S
C1838 C1824 1.377 . S
C1838 C1837 1.373 . S
C1839 C1823 1.377 . S
C1839 C1837 1.389 . S
C1839 C1840 1.524 . S
C1840 C1839 1.524 . S
C1840 C1841 1.397 . S
C1840 C1845 1.363 . S
C1841 H1812 0.950 . S
C1841 C1840 1.397 . S
C1841 C1842 1.334 . S
C1842 H1813 0.950 . S
C1842 C1841 1.334 . S
C1842 C1843 1.287 . S
C1843 C1842 1.287 . S
C1843 C1844 1.524 . S
C1843 H1846 0.999 . S
C1844 H1814 0.950 . S
C1844 C1843 1.524 . S
C1844 C1845 1.415 . S
C1845 H1815 0.950 . S
C1845 C1840 1.363 . S
C1845 C1844 1.415 . S
H1846 C1843 0.999 . S
H1847 C1828 0.913 . S
H1848 C1866 0.951 . S
H1849 C1868 0.951 . S
H1850 C1870 0.950 . S
H1851 C1871 0.950 . S
H1852 C1873 0.950 . S
H1853 C1876 0.950 . S
H1854 C1877 0.950 . S
H1855 C1879 0.950 . S
H1856 C1880 0.950 . S
H1857 C1881 0.951 . S
H1858 C1883 0.951 . S
H1859 C1885 0.950 . S
H1860 C1886 0.950 . S
H1861 C1888 0.950 . S
H1862 C1891 0.950 . S
H1863 C1892 0.950 . S
H1864 C1894 0.950 . S
H1865 C1895 0.950 . S
C1866 H1848 0.951 . S
C1866 C1867 1.366 . S
C1866 C1868 1.388 . S
C1867 C1866 1.366 . S
C1867 C1871 1.385 . S
C1868 H1849 0.951 . S
C1868 C1866 1.388 . S
C1868 C1869 1.366 . S
C1869 C1868 1.366 . S
C1869 C1870 1.414 . S
C1869 C1872 1.499 . S
C1870 H1850 0.950 . S
C1870 C1869 1.414 . S
C1870 C1871 1.374 . S
C1871 H1851 0.950 . S
C1871 C1867 1.385 . S
C1871 C1870 1.374 . S
C1872 C1869 1.499 . S
C1872 C1873 1.373 . S
C1872 C1874 1.389 . S
C1873 H1852 0.950 . S
C1873 C1872 1.373 . S
C1873 C1889 1.377 . S
C1874 C1872 1.389 . S
C1874 C1875 1.524 . S
C1874 C1888 1.377 . S
C1875 C1874 1.524 . S
C1875 C1876 1.397 . S
C1875 C1880 1.363 . S
C1876 H1853 0.950 . S
C1876 C1875 1.397 . S
C1876 C1877 1.334 . S
C1877 H1854 0.950 . S
C1877 C1876 1.334 . S
C1877 C1878 1.287 . S
C1878 C1877 1.287 . S
C1878 C1879 1.524 . S
C1878 H1897 0.913 . S
C1879 H1855 0.950 . S
C1879 C1878 1.524 . S
C1879 C1880 1.415 . S
C1880 H1856 0.950 . S
C1880 C1875 1.363 . S
C1880 C1879 1.415 . S
C1881 H1857 0.951 . S
C1881 C1882 1.366 . S
C1881 C1883 1.388 . S
C1882 C1881 1.366 . S
C1882 C1886 1.385 . S
C1883 H1858 0.951 . S
C1883 C1881 1.388 . S
C1883 C1884 1.366 . S
C1884 C1883 1.366 . S
C1884 C1885 1.414 . S
C1884 C1887 1.499 . S
C1885 H1859 0.950 . S
C1885 C1884 1.414 . S
C1885 C1886 1.374 . S
C1886 H1860 0.950 . S
C1886 C1882 1.385 . S
C1886 C1885 1.374 . S
C1887 C1884 1.499 . S
C1887 C1888 1.373 . S
C1887 C1889 1.389 . S
C1888 H1861 0.950 . S
C1888 C1874 1.377 . S
C1888 C1887 1.373 . S
C1889 C1873 1.377 . S
C1889 C1887 1.389 . S
C1889 C1890 1.524 . S
C1890 C1889 1.524 . S
C1890 C1891 1.397 . S
C1890 C1895 1.363 . S
C1891 H1862 0.950 . S
C1891 C1890 1.397 . S
C1891 C1892 1.334 . S
C1892 H1863 0.950 . S
C1892 C1891 1.334 . S
C1892 C1893 1.287 . S
C1893 C1892 1.287 . S
C1893 C1894 1.524 . S
C1893 H1896 0.999 . S
C1894 H1864 0.950 . S
C1894 C1893 1.524 . S
C1894 C1895 1.415 . S
C1895 H1865 0.950 . S
C1895 C1890 1.363 . S
C1895 C1894 1.415 . S
H1896 C1893 0.999 . S
H1897 C1878 0.913 . S
H1898 C1916 0.951 . S
H1899 C1918 0.951 . S
H1900 C1920 0.950 . S
H1901 C1921 0.950 . S
H1902 C1923 0.950 . S
H1903 C1926 0.950 . S
H1904 C1927 0.950 . S
H1905 C1929 0.950 . S
H1906 C1930 0.950 . S
H1907 C1931 0.951 . S
H1908 C1933 0.951 . S
H1909 C1935 0.950 . S
H1910 C1936 0.950 . S
H1911 C1938 0.950 1_556 S
H1912 C1941 0.950 . S
H1913 C1942 0.950 . S
H1914 C1944 0.950 . S
H1915 C1945 0.950 . S
C1916 H1898 0.951 . S
C1916 C1917 1.366 . S
C1916 C1918 1.388 . S
C1917 C1916 1.366 . S
C1917 C1921 1.385 . S
C1918 H1899 0.951 . S
C1918 C1916 1.388 . S
C1918 C1919 1.366 . S
C1919 C1918 1.366 . S
C1919 C1920 1.414 . S
C1919 C1922 1.499 . S
C1920 H1900 0.950 . S
C1920 C1919 1.414 . S
C1920 C1921 1.374 . S
C1921 H1901 0.950 . S
C1921 C1917 1.385 . S
C1921 C1920 1.374 . S
C1922 C1919 1.499 . S
C1922 C1923 1.373 . S
C1922 C1924 1.389 . S
C1923 H1902 0.950 . S
C1923 C1922 1.373 . S
C1923 C1939 1.377 1_655 S
C1924 C1922 1.389 . S
C1924 C1925 1.524 1_554 S
C1924 C1938 1.377 1_655 S
C1925 C1924 1.524 1_556 S
C1925 C1926 1.397 . S
C1925 C1930 1.363 . S
C1926 H1903 0.950 . S
C1926 C1925 1.397 . S
C1926 C1927 1.334 . S
C1927 H1904 0.950 . S
C1927 C1926 1.334 . S
C1927 C1928 1.287 . S
C1928 C1927 1.287 . S
C1928 C1929 1.524 . S
C1928 H1947 0.913 . S
C1929 H1905 0.950 . S
C1929 C1928 1.524 . S
C1929 C1930 1.415 . S
C1930 H1906 0.950 . S
C1930 C1925 1.363 . S
C1930 C1929 1.415 . S
C1931 H1907 0.951 . S
C1931 C1932 1.366 . S
C1931 C1933 1.388 . S
C1932 C1931 1.366 . S
C1932 C1936 1.385 . S
C1933 H1908 0.951 . S
C1933 C1931 1.388 . S
C1933 C1934 1.366 . S
C1934 C1933 1.366 . S
C1934 C1935 1.414 . S
C1934 C1937 1.499 . S
C1935 H1909 0.950 . S
C1935 C1934 1.414 . S
C1935 C1936 1.374 . S
C1936 H1910 0.950 . S
C1936 C1932 1.385 . S
C1936 C1935 1.374 . S
C1937 C1934 1.499 . S
C1937 C1938 1.373 . S
C1937 C1939 1.389 . S
C1938 H1911 0.950 1_554 S
C1938 C1924 1.377 1_455 S
C1938 C1937 1.373 . S
C1939 C1923 1.377 1_455 S
C1939 C1937 1.389 . S
C1939 C1940 1.524 . S
C1940 C1939 1.524 . S
C1940 C1941 1.397 . S
C1940 C1945 1.363 . S
C1941 H1912 0.950 . S
C1941 C1940 1.397 . S
C1941 C1942 1.334 . S
C1942 H1913 0.950 . S
C1942 C1941 1.334 . S
C1942 C1943 1.287 . S
C1943 C1942 1.287 . S
C1943 C1944 1.524 . S
C1943 H1946 0.999 . S
C1944 H1914 0.950 . S
C1944 C1943 1.524 . S
C1944 C1945 1.415 . S
C1945 H1915 0.950 . S
C1945 C1940 1.363 . S
C1945 C1944 1.415 . S
H1946 C1943 0.999 . S
H1947 C1928 0.913 . S
H1948 C1966 0.951 . S
H1949 C1968 0.951 . S
H1950 C1970 0.950 . S
H1951 C1971 0.950 . S
H1952 C1973 0.950 . S
H1953 C1976 0.950 . S
H1954 C1977 0.950 . S
H1955 C1979 0.950 . S
H1956 C1980 0.950 . S
H1957 C1981 0.951 . S
H1958 C1983 0.951 . S
H1959 C1985 0.950 . S
H1960 C1986 0.950 . S
H1961 C1988 0.950 . S
H1962 C1991 0.950 . S
H1963 C1992 0.950 . S
H1964 C1994 0.950 . S
H1965 C1995 0.950 . S
C1966 H1948 0.951 . S
C1966 C1967 1.366 . S
C1966 C1968 1.388 . S
C1967 C1966 1.366 . S
C1967 C1971 1.385 . S
C1968 H1949 0.951 . S
C1968 C1966 1.388 . S
C1968 C1969 1.366 . S
C1969 C1968 1.366 . S
C1969 C1970 1.414 . S
C1969 C1972 1.499 . S
C1970 H1950 0.950 . S
C1970 C1969 1.414 . S
C1970 C1971 1.374 . S
C1971 H1951 0.950 . S
C1971 C1967 1.385 . S
C1971 C1970 1.374 . S
C1972 C1969 1.499 . S
C1972 C1973 1.373 . S
C1972 C1974 1.389 . S
C1973 H1952 0.950 . S
C1973 C1972 1.373 . S
C1973 C1989 1.377 . S
C1974 C1972 1.389 . S
C1974 C1975 1.524 . S
C1974 C1988 1.377 . S
C1975 C1974 1.524 . S
C1975 C1976 1.397 . S
C1975 C1980 1.363 . S
C1976 H1953 0.950 . S
C1976 C1975 1.397 . S
C1976 C1977 1.334 . S
C1977 H1954 0.950 . S
C1977 C1976 1.334 . S
C1977 C1978 1.287 . S
C1978 C1977 1.287 . S
C1978 C1979 1.524 . S
C1978 H1997 0.913 . S
C1979 H1955 0.950 . S
C1979 C1978 1.524 . S
C1979 C1980 1.415 . S
C1980 H1956 0.950 . S
C1980 C1975 1.363 . S
C1980 C1979 1.415 . S
C1981 H1957 0.951 . S
C1981 C1982 1.366 . S
C1981 C1983 1.388 . S
C1982 C1981 1.366 . S
C1982 C1986 1.385 . S
C1983 H1958 0.951 . S
C1983 C1981 1.388 . S
C1983 C1984 1.366 . S
C1984 C1983 1.366 . S
C1984 C1985 1.414 . S
C1984 C1987 1.499 . S
C1985 H1959 0.950 . S
C1985 C1984 1.414 . S
C1985 C1986 1.374 . S
C1986 H1960 0.950 . S
C1986 C1982 1.385 . S
C1986 C1985 1.374 . S
C1987 C1984 1.499 . S
C1987 C1988 1.373 . S
C1987 C1989 1.389 . S
C1988 H1961 0.950 . S
C1988 C1974 1.377 . S
C1988 C1987 1.373 . S
C1989 C1973 1.377 . S
C1989 C1987 1.389 . S
C1989 C1990 1.524 . S
C1990 C1989 1.524 . S
C1990 C1991 1.397 . S
C1990 C1995 1.363 . S
C1991 H1962 0.950 . S
C1991 C1990 1.397 . S
C1991 C1992 1.334 . S
C1992 H1963 0.950 . S
C1992 C1991 1.334 . S
C1992 C1993 1.287 . S
C1993 C1992 1.287 . S
C1993 C1994 1.524 . S
C1993 H1996 0.999 . S
C1994 H1964 0.950 . S
C1994 C1993 1.524 . S
C1994 C1995 1.415 . S
C1995 H1965 0.950 . S
C1995 C1990 1.363 . S
C1995 C1994 1.415 . S
H1996 C1993 0.999 . S
H1997 C1978 0.913 . S
H1998 C2016 0.951 . S
H1999 C2018 0.951 . S
H2000 C2020 0.950 1_554 S
H2001 C2021 0.950 1_554 S
H2002 C2023 0.950 1_554 S
H2003 C2026 0.950 . S
H2004 C2027 0.950 . S
H2005 C2029 0.950 . S
H2006 C2030 0.950 . S
H2007 C2031 0.951 1_554 S
H2008 C2033 0.951 1_554 S
H2009 C2035 0.950 . S
H2010 C2036 0.950 . S
H2011 C2038 0.950 . S
H2012 C2041 0.933 1_556 S
H2013 C2042 0.950 . S
H2014 C2044 0.950 . S
H2015 C2045 0.950 . S
C2016 H1998 0.951 . S
C2016 C2017 1.366 . S
C2016 C2018 1.388 . S
C2017 C2016 1.366 . S
C2017 C2021 1.385 . S
C2018 H1999 0.951 . S
C2018 C2016 1.388 . S
C2018 C2019 1.366 . S
C2019 C2018 1.366 . S
C2019 C2020 1.414 . S
C2019 C2022 1.499 . S
C2020 H2000 0.950 1_556 S
C2020 C2019 1.414 . S
C2020 C2021 1.374 . S
C2021 H2001 0.950 1_556 S
C2021 C2017 1.385 . S
C2021 C2020 1.374 . S
C2022 C2019 1.499 . S
C2022 C2023 1.373 . S
C2022 C2024 1.389 . S
C2023 H2002 0.950 1_556 S
C2023 C2022 1.373 . S
C2023 C2039 1.377 1_455 S
C2024 C2022 1.389 . S
C2024 C2025 1.524 . S
C2024 C2038 1.377 1_455 S
C2025 C2024 1.524 . S
C2025 C2026 1.397 . S
C2025 C2030 1.363 . S
C2026 H2003 0.950 . S
C2026 C2025 1.397 . S
C2026 C2027 1.334 . S
C2027 H2004 0.950 . S
C2027 C2026 1.334 . S
C2027 C2028 1.287 . S
C2028 C2027 1.287 . S
C2028 C2029 1.524 . S
C2028 H2047 0.913 . S
C2029 H2005 0.950 . S
C2029 C2028 1.524 . S
C2029 C2030 1.415 . S
C2030 H2006 0.950 . S
C2030 C2025 1.363 . S
C2030 C2029 1.415 . S
C2031 H2007 0.951 1_556 S
C2031 C2032 1.366 . S
C2031 C2033 1.388 . S
C2032 C2031 1.366 . S
C2032 C2036 1.385 . S
C2033 H2008 0.951 1_556 S
C2033 C2031 1.388 . S
C2033 C2034 1.366 . S
C2034 C2033 1.366 . S
C2034 C2035 1.414 . S
C2034 C2037 1.499 . S
C2035 H2009 0.950 . S
C2035 C2034 1.414 . S
C2035 C2036 1.374 . S
C2036 H2010 0.950 . S
C2036 C2032 1.385 . S
C2036 C2035 1.374 . S
C2037 C2034 1.499 . S
C2037 C2038 1.373 . S
C2037 C2039 1.389 . S
C2038 H2011 0.950 . S
C2038 C2024 1.377 1_655 S
C2038 C2037 1.373 . S
C2039 C2023 1.377 1_655 S
C2039 C2037 1.389 . S
C2039 C2040 1.524 1_556 S
C2040 C2039 1.524 1_554 S
C2040 C2041 1.397 . S
C2040 C2045 1.363 . S
C2041 H2012 0.933 1_554 S
C2041 C2040 1.397 . S
C2041 C2042 1.334 . S
C2042 H2013 0.950 . S
C2042 C2041 1.334 . S
C2042 C2043 1.287 . S
C2043 C2042 1.287 . S
C2043 C2044 1.524 . S
C2043 H2046 0.999 . S
C2044 H2014 0.950 . S
C2044 C2043 1.524 . S
C2044 C2045 1.415 . S
C2045 H2015 0.950 . S
C2045 C2040 1.363 . S
C2045 C2044 1.415 . S
H2046 C2043 0.999 . S
H2047 C2028 0.913 . S
H2048 C2066 0.951 . S
H2049 C2068 0.951 . S
H2050 C2070 0.950 . S
H2051 C2071 0.950 . S
H2052 C2073 0.950 . S
H2053 C2076 0.950 . S
H2054 C2077 0.950 . S
H2055 C2079 0.950 . S
H2056 C2080 0.950 . S
H2057 C2081 0.951 . S
H2058 C2083 0.951 . S
H2059 C2085 0.950 . S
H2060 C2086 0.950 . S
H2061 C2088 0.950 . S
H2062 C2091 0.950 . S
H2063 C2092 0.950 . S
H2064 C2094 0.950 . S
H2065 C2095 0.950 . S
C2066 H2048 0.951 . S
C2066 C2067 1.366 . S
C2066 C2068 1.388 . S
C2067 C2066 1.366 . S
C2067 C2071 1.385 . S
C2068 H2049 0.951 . S
C2068 C2066 1.388 . S
C2068 C2069 1.366 . S
C2069 C2068 1.366 . S
C2069 C2070 1.414 . S
C2069 C2072 1.499 . S
C2070 H2050 0.950 . S
C2070 C2069 1.414 . S
C2070 C2071 1.374 . S
C2071 H2051 0.950 . S
C2071 C2067 1.385 . S
C2071 C2070 1.374 . S
C2072 C2069 1.499 . S
C2072 C2073 1.373 1_556 S
C2072 C2074 1.389 . S
C2073 H2052 0.950 . S
C2073 C2072 1.373 1_554 S
C2073 C2089 1.377 . S
C2074 C2072 1.389 . S
C2074 C2075 1.524 . S
C2074 C2088 1.377 . S
C2075 C2074 1.524 . S
C2075 C2076 1.397 . S
C2075 C2080 1.363 . S
C2076 H2053 0.950 . S
C2076 C2075 1.397 . S
C2076 C2077 1.334 . S
C2077 H2054 0.950 . S
C2077 C2076 1.334 . S
C2077 C2078 1.287 . S
C2078 C2077 1.287 . S
C2078 C2079 1.524 . S
C2078 H2097 0.913 . S
C2079 H2055 0.950 . S
C2079 C2078 1.524 . S
C2079 C2080 1.415 . S
C2080 H2056 0.950 . S
C2080 C2075 1.363 . S
C2080 C2079 1.415 . S
C2081 H2057 0.951 . S
C2081 C2082 1.366 . S
C2081 C2083 1.388 . S
C2082 C2081 1.366 . S
C2082 C2086 1.385 . S
C2083 H2058 0.951 . S
C2083 C2081 1.388 . S
C2083 C2084 1.366 . S
C2084 C2083 1.366 . S
C2084 C2085 1.414 . S
C2084 C2087 1.499 . S
C2085 H2059 0.950 . S
C2085 C2084 1.414 . S
C2085 C2086 1.374 . S
C2086 H2060 0.950 . S
C2086 C2082 1.385 . S
C2086 C2085 1.374 . S
C2087 C2084 1.499 . S
C2087 C2088 1.373 1_554 S
C2087 C2089 1.389 . S
C2088 H2061 0.950 . S
C2088 C2074 1.377 . S
C2088 C2087 1.373 1_556 S
C2089 C2073 1.377 . S
C2089 C2087 1.389 . S
C2089 C2090 1.524 . S
C2090 C2089 1.524 . S
C2090 C2091 1.397 . S
C2090 C2095 1.363 . S
C2091 H2062 0.950 . S
C2091 C2090 1.397 . S
C2091 C2092 1.334 . S
C2092 H2063 0.950 . S
C2092 C2091 1.334 . S
C2092 C2093 1.287 . S
C2093 C2092 1.287 . S
C2093 C2094 1.524 . S
C2093 H2096 0.999 . S
C2094 H2064 0.950 . S
C2094 C2093 1.524 . S
C2094 C2095 1.415 . S
C2095 H2065 0.950 . S
C2095 C2090 1.363 . S
C2095 C2094 1.415 . S
H2096 C2093 0.999 . S
H2097 C2078 0.913 . S
H2098 C2116 0.951 . S
H2099 C2118 0.951 . S
H2100 C2120 0.950 . S
H2101 C2121 0.950 . S
H2102 C2123 0.950 . S
H2103 C2126 0.950 . S
H2104 C2127 0.950 . S
H2105 C2129 0.950 . S
H2106 C2130 0.950 . S
H2107 C2131 0.951 . S
H2108 C2133 0.951 . S
H2109 C2135 0.950 . S
H2110 C2136 0.950 . S
H2111 C2138 0.950 . S
H2112 C2141 0.950 . S
H2113 C2142 0.950 . S
H2114 C2144 0.950 . S
H2115 C2145 0.950 . S
C2116 H2098 0.951 . S
C2116 C2117 1.366 . S
C2116 C2118 1.388 . S
C2117 C2116 1.366 . S
C2117 C2121 1.385 . S
C2118 H2099 0.951 . S
C2118 C2116 1.388 . S
C2118 C2119 1.366 . S
C2119 C2118 1.366 . S
C2119 C2120 1.414 . S
C2119 C2122 1.499 . S
C2120 H2100 0.950 . S
C2120 C2119 1.414 . S
C2120 C2121 1.374 . S
C2121 H2101 0.950 . S
C2121 C2117 1.385 . S
C2121 C2120 1.374 . S
C2122 C2119 1.499 . S
C2122 C2123 1.373 . S
C2122 C2124 1.389 . S
C2123 H2102 0.950 . S
C2123 C2122 1.373 . S
C2123 C2139 1.377 . S
C2124 C2122 1.389 . S
C2124 C2125 1.524 . S
C2124 C2138 1.377 . S
C2125 C2124 1.524 . S
C2125 C2126 1.397 . S
C2125 C2130 1.363 . S
C2126 H2103 0.950 . S
C2126 C2125 1.397 . S
C2126 C2127 1.334 . S
C2127 H2104 0.950 . S
C2127 C2126 1.334 . S
C2127 C2128 1.287 . S
C2128 C2127 1.287 . S
C2128 C2129 1.524 . S
C2128 H2147 0.913 . S
C2129 H2105 0.950 . S
C2129 C2128 1.524 . S
C2129 C2130 1.415 . S
C2130 H2106 0.950 . S
C2130 C2125 1.363 . S
C2130 C2129 1.415 . S
C2131 H2107 0.951 . S
C2131 C2132 1.366 . S
C2131 C2133 1.388 . S
C2132 C2131 1.366 . S
C2132 C2136 1.385 . S
C2133 H2108 0.951 . S
C2133 C2131 1.388 . S
C2133 C2134 1.366 . S
C2134 C2133 1.366 . S
C2134 C2135 1.414 . S
C2134 C2137 1.499 . S
C2135 H2109 0.950 . S
C2135 C2134 1.414 . S
C2135 C2136 1.374 . S
C2136 H2110 0.950 . S
C2136 C2132 1.385 . S
C2136 C2135 1.374 . S
C2137 C2134 1.499 . S
C2137 C2138 1.373 . S
C2137 C2139 1.389 . S
C2138 H2111 0.950 . S
C2138 C2124 1.377 . S
C2138 C2137 1.373 . S
C2139 C2123 1.377 . S
C2139 C2137 1.389 . S
C2139 C2140 1.524 . S
C2140 C2139 1.524 . S
C2140 C2141 1.397 . S
C2140 C2145 1.363 . S
C2141 H2112 0.950 . S
C2141 C2140 1.397 . S
C2141 C2142 1.334 . S
C2142 H2113 0.950 . S
C2142 C2141 1.334 . S
C2142 C2143 1.287 . S
C2143 C2142 1.287 . S
C2143 C2144 1.524 . S
C2143 H2146 0.999 . S
C2144 H2114 0.950 . S
C2144 C2143 1.524 . S
C2144 C2145 1.415 . S
C2145 H2115 0.950 . S
C2145 C2140 1.363 . S
C2145 C2144 1.415 . S
H2146 C2143 0.999 . S
H2147 C2128 0.913 . S
H2148 C2166 0.951 . S
H2149 C2168 0.951 . S
H2150 C2170 0.950 . S
H2151 C2171 0.950 . S
H2152 C2173 0.950 . S
H2153 C2176 0.950 . S
H2154 C2177 0.950 . S
H2155 C2179 0.950 . S
H2156 C2180 0.950 . S
H2157 C2181 0.951 . S
H2158 C2183 0.951 . S
H2159 C2185 0.950 . S
H2160 C2186 0.950 . S
H2161 C2188 0.950 . S
H2162 C2191 0.950 . S
H2163 C2192 0.950 . S
H2164 C2194 0.950 . S
H2165 C2195 0.950 . S
C2166 H2148 0.951 . S
C2166 C2167 1.366 . S
C2166 C2168 1.388 . S
C2167 C2166 1.366 . S
C2167 C2171 1.385 . S
C2168 H2149 0.951 . S
C2168 C2166 1.388 . S
C2168 C2169 1.366 . S
C2169 C2168 1.366 . S
C2169 C2170 1.414 . S
C2169 C2172 1.499 . S
C2170 H2150 0.950 . S
C2170 C2169 1.414 . S
C2170 C2171 1.374 . S
C2171 H2151 0.950 . S
C2171 C2167 1.385 . S
C2171 C2170 1.374 . S
C2172 C2169 1.499 . S
C2172 C2173 1.373 . S
C2172 C2174 1.389 . S
C2173 H2152 0.950 . S
C2173 C2172 1.373 . S
C2173 C2189 1.377 . S
C2174 C2172 1.389 . S
C2174 C2175 1.524 . S
C2174 C2188 1.377 . S
C2175 C2174 1.524 . S
C2175 C2176 1.397 . S
C2175 C2180 1.363 . S
C2176 H2153 0.950 . S
C2176 C2175 1.397 . S
C2176 C2177 1.334 . S
C2177 H2154 0.950 . S
C2177 C2176 1.334 . S
C2177 C2178 1.287 . S
C2178 C2177 1.287 . S
C2178 C2179 1.524 . S
C2178 H2197 0.913 . S
C2179 H2155 0.950 . S
C2179 C2178 1.524 . S
C2179 C2180 1.415 . S
C2180 H2156 0.950 . S
C2180 C2175 1.363 . S
C2180 C2179 1.415 . S
C2181 H2157 0.951 . S
C2181 C2182 1.366 . S
C2181 C2183 1.388 . S
C2182 C2181 1.366 . S
C2182 C2186 1.385 . S
C2183 H2158 0.951 . S
C2183 C2181 1.388 . S
C2183 C2184 1.366 . S
C2184 C2183 1.366 . S
C2184 C2185 1.414 . S
C2184 C2187 1.499 . S
C2185 H2159 0.950 . S
C2185 C2184 1.414 . S
C2185 C2186 1.374 . S
C2186 H2160 0.950 . S
C2186 C2182 1.385 . S
C2186 C2185 1.374 . S
C2187 C2184 1.499 . S
C2187 C2188 1.373 . S
C2187 C2189 1.389 . S
C2188 H2161 0.950 . S
C2188 C2174 1.377 . S
C2188 C2187 1.373 . S
C2189 C2173 1.377 . S
C2189 C2187 1.389 . S
C2189 C2190 1.524 . S
C2190 C2189 1.524 . S
C2190 C2191 1.397 . S
C2190 C2195 1.363 . S
C2191 H2162 0.950 . S
C2191 C2190 1.397 . S
C2191 C2192 1.334 . S
C2192 H2163 0.950 . S
C2192 C2191 1.334 . S
C2192 C2193 1.287 . S
C2193 C2192 1.287 . S
C2193 C2194 1.524 . S
C2193 H2196 0.999 . S
C2194 H2164 0.950 . S
C2194 C2193 1.524 . S
C2194 C2195 1.415 . S
C2195 H2165 0.950 . S
C2195 C2190 1.363 . S
C2195 C2194 1.415 . S
H2196 C2193 0.999 . S
H2197 C2178 0.913 . S
H2198 C2216 0.951 . S
H2199 C2218 0.951 . S
H2200 C2220 0.950 . S
H2201 C2221 0.950 . S
H2202 C2223 0.950 . S
H2203 C2226 0.950 . S
H2204 C2227 0.950 . S
H2205 C2229 0.950 . S
H2206 C2230 0.950 . S
H2207 C2231 0.951 . S
H2208 C2233 0.951 . S
H2209 C2235 0.950 . S
H2210 C2236 0.950 . S
H2211 C2238 0.950 . S
H2212 C2241 0.950 . S
H2213 C2242 0.950 . S
H2214 C2244 0.950 . S
H2215 C2245 0.950 . S
C2216 H2198 0.951 . S
C2216 C2217 1.366 . S
C2216 C2218 1.388 . S
C2217 C2216 1.366 . S
C2217 C2221 1.385 . S
C2218 H2199 0.951 . S
C2218 C2216 1.388 . S
C2218 C2219 1.366 . S
C2219 C2218 1.366 . S
C2219 C2220 1.414 . S
C2219 C2222 1.499 . S
C2220 H2200 0.950 . S
C2220 C2219 1.414 . S
C2220 C2221 1.374 . S
C2221 H2201 0.950 . S
C2221 C2217 1.385 . S
C2221 C2220 1.374 . S
C2222 C2219 1.499 . S
C2222 C2223 1.373 . S
C2222 C2224 1.389 . S
C2223 H2202 0.950 . S
C2223 C2222 1.373 . S
C2223 C2239 1.377 . S
C2224 C2222 1.389 . S
C2224 C2225 1.524 . S
C2224 C2238 1.377 . S
C2225 C2224 1.524 . S
C2225 C2226 1.397 . S
C2225 C2230 1.363 . S
C2226 H2203 0.950 . S
C2226 C2225 1.397 . S
C2226 C2227 1.334 . S
C2227 H2204 0.950 . S
C2227 C2226 1.334 . S
C2227 C2228 1.287 . S
C2228 C2227 1.287 . S
C2228 C2229 1.524 . S
C2228 H2247 0.913 . S
C2229 H2205 0.950 . S
C2229 C2228 1.524 . S
C2229 C2230 1.415 . S
C2230 H2206 0.950 . S
C2230 C2225 1.363 . S
C2230 C2229 1.415 . S
C2231 H2207 0.951 . S
C2231 C2232 1.366 . S
C2231 C2233 1.388 . S
C2232 C2231 1.366 . S
C2232 C2236 1.385 . S
C2233 H2208 0.951 . S
C2233 C2231 1.388 . S
C2233 C2234 1.366 . S
C2234 C2233 1.366 . S
C2234 C2235 1.414 . S
C2234 C2237 1.499 . S
C2235 H2209 0.950 . S
C2235 C2234 1.414 . S
C2235 C2236 1.374 . S
C2236 H2210 0.950 . S
C2236 C2232 1.385 . S
C2236 C2235 1.374 . S
C2237 C2234 1.499 . S
C2237 C2238 1.373 . S
C2237 C2239 1.389 . S
C2238 H2211 0.950 . S
C2238 C2224 1.377 . S
C2238 C2237 1.373 . S
C2239 C2223 1.377 . S
C2239 C2237 1.389 . S
C2239 C2240 1.524 . S
C2240 C2239 1.524 . S
C2240 C2241 1.397 . S
C2240 C2245 1.363 . S
C2241 H2212 0.950 . S
C2241 C2240 1.397 . S
C2241 C2242 1.334 . S
C2242 H2213 0.950 . S
C2242 C2241 1.334 . S
C2242 C2243 1.287 . S
C2243 C2242 1.287 . S
C2243 C2244 1.524 . S
C2243 H2246 0.999 . S
C2244 H2214 0.950 . S
C2244 C2243 1.524 . S
C2244 C2245 1.415 . S
C2245 H2215 0.950 . S
C2245 C2240 1.363 . S
C2245 C2244 1.415 . S
H2246 C2243 0.999 . S
H2247 C2228 0.913 . S
H2248 C2266 0.951 . S
H2249 C2268 0.948 1_556 S
H2250 C2270 0.950 . S
H2251 C2271 0.950 . S
H2252 C2273 0.950 . S
H2253 C2276 0.950 . S
H2254 C2277 0.950 . S
H2255 C2279 0.950 . S
H2256 C2280 0.950 . S
H2257 C2281 0.951 . S
H2258 C2283 0.948 1_554 S
H2259 C2285 0.950 . S
H2260 C2286 0.950 . S
H2261 C2288 0.950 . S
H2262 C2291 0.950 . S
H2263 C2292 0.950 . S
H2264 C2294 0.950 . S
H2265 C2295 0.950 . S
C2266 H2248 0.951 . S
C2266 C2267 1.366 . S
C2266 C2268 1.388 . S
C2267 C2266 1.366 . S
C2267 C2271 1.385 . S
C2268 H2249 0.948 1_554 S
C2268 C2266 1.388 . S
C2268 C2269 1.366 . S
C2269 C2268 1.366 . S
C2269 C2270 1.414 . S
C2269 C2272 1.499 . S
C2270 H2250 0.950 . S
C2270 C2269 1.414 . S
C2270 C2271 1.374 . S
C2271 H2251 0.950 . S
C2271 C2267 1.385 . S
C2271 C2270 1.374 . S
C2272 C2269 1.499 . S
C2272 C2273 1.373 1_554 S
C2272 C2274 1.389 . S
C2273 H2252 0.950 . S
C2273 C2272 1.373 1_556 S
C2273 C2289 1.377 . S
C2274 C2272 1.389 . S
C2274 C2275 1.524 . S
C2274 C2288 1.377 . S
C2275 C2274 1.524 . S
C2275 C2276 1.397 . S
C2275 C2280 1.363 . S
C2276 H2253 0.950 . S
C2276 C2275 1.397 . S
C2276 C2277 1.334 . S
C2277 H2254 0.950 . S
C2277 C2276 1.334 . S
C2277 C2278 1.287 . S
C2278 C2277 1.287 . S
C2278 C2279 1.524 . S
C2278 H2297 0.913 . S
C2279 H2255 0.950 . S
C2279 C2278 1.524 . S
C2279 C2280 1.415 . S
C2280 H2256 0.950 . S
C2280 C2275 1.363 . S
C2280 C2279 1.415 . S
C2281 H2257 0.951 . S
C2281 C2282 1.366 . S
C2281 C2283 1.388 . S
C2282 C2281 1.366 . S
C2282 C2286 1.385 . S
C2283 H2258 0.948 1_556 S
C2283 C2281 1.388 . S
C2283 C2284 1.366 . S
C2284 C2283 1.366 . S
C2284 C2285 1.414 . S
C2284 C2287 1.499 . S
C2285 H2259 0.950 . S
C2285 C2284 1.414 . S
C2285 C2286 1.374 . S
C2286 H2260 0.950 . S
C2286 C2282 1.385 . S
C2286 C2285 1.374 . S
C2287 C2284 1.499 . S
C2287 C2288 1.373 1_556 S
C2287 C2289 1.389 . S
C2288 H2261 0.950 . S
C2288 C2274 1.377 . S
C2288 C2287 1.373 1_554 S
C2289 C2273 1.377 . S
C2289 C2287 1.389 . S
C2289 C2290 1.524 . S
C2290 C2289 1.524 . S
C2290 C2291 1.397 . S
C2290 C2295 1.363 . S
C2291 H2262 0.950 . S
C2291 C2290 1.397 . S
C2291 C2292 1.334 . S
C2292 H2263 0.950 . S
C2292 C2291 1.334 . S
C2292 C2293 1.287 . S
C2293 C2292 1.287 . S
C2293 C2294 1.524 . S
C2293 H2296 0.999 . S
C2294 H2264 0.950 . S
C2294 C2293 1.524 . S
C2294 C2295 1.415 . S
C2295 H2265 0.950 . S
C2295 C2290 1.363 . S
C2295 C2294 1.415 . S
H2296 C2293 0.999 . S
H2297 C2278 0.913 . S
H2298 C2316 0.951 . S
H2299 C2318 0.951 . S
H2300 C2320 0.950 . S
H2301 C2321 0.950 . S
H2302 C2323 0.950 . S
H2303 C2326 0.950 . S
H2304 C2327 0.950 . S
H2305 C2329 0.950 . S
H2306 C2330 0.950 . S
H2307 C2331 0.951 . S
H2308 C2333 0.951 . S
H2309 C2335 0.950 . S
H2310 C2336 0.950 . S
H2311 C2338 0.950 . S
H2312 C2341 0.950 . S
H2313 C2342 0.950 . S
H2314 C2344 0.950 . S
H2315 C2345 0.950 . S
C2316 H2298 0.951 . S
C2316 C2317 1.366 . S
C2316 C2318 1.388 . S
C2317 C2316 1.366 . S
C2317 C2321 1.385 . S
C2318 H2299 0.951 . S
C2318 C2316 1.388 . S
C2318 C2319 1.366 . S
C2319 C2318 1.366 . S
C2319 C2320 1.414 . S
C2319 C2322 1.499 . S
C2320 H2300 0.950 . S
C2320 C2319 1.414 . S
C2320 C2321 1.374 . S
C2321 H2301 0.950 . S
C2321 C2317 1.385 . S
C2321 C2320 1.374 . S
C2322 C2319 1.499 . S
C2322 C2323 1.373 . S
C2322 C2324 1.389 . S
C2323 H2302 0.950 . S
C2323 C2322 1.373 . S
C2323 C2339 1.377 . S
C2324 C2322 1.389 . S
C2324 C2325 1.524 . S
C2324 C2338 1.377 . S
C2325 C2324 1.524 . S
C2325 C2326 1.397 . S
C2325 C2330 1.363 . S
C2326 H2303 0.950 . S
C2326 C2325 1.397 . S
C2326 C2327 1.334 . S
C2327 H2304 0.950 . S
C2327 C2326 1.334 . S
C2327 C2328 1.287 . S
C2328 C2327 1.287 . S
C2328 C2329 1.524 . S
C2328 H2347 0.913 . S
C2329 H2305 0.950 . S
C2329 C2328 1.524 . S
C2329 C2330 1.415 . S
C2330 H2306 0.950 . S
C2330 C2325 1.363 . S
C2330 C2329 1.415 . S
C2331 H2307 0.951 . S
C2331 C2332 1.366 . S
C2331 C2333 1.388 . S
C2332 C2331 1.366 . S
C2332 C2336 1.385 . S
C2333 H2308 0.951 . S
C2333 C2331 1.388 . S
C2333 C2334 1.366 . S
C2334 C2333 1.366 . S
C2334 C2335 1.414 . S
C2334 C2337 1.499 . S
C2335 H2309 0.950 . S
C2335 C2334 1.414 . S
C2335 C2336 1.374 . S
C2336 H2310 0.950 . S
C2336 C2332 1.385 . S
C2336 C2335 1.374 . S
C2337 C2334 1.499 . S
C2337 C2338 1.373 . S
C2337 C2339 1.389 . S
C2338 H2311 0.950 . S
C2338 C2324 1.377 . S
C2338 C2337 1.373 . S
C2339 C2323 1.377 . S
C2339 C2337 1.389 . S
C2339 C2340 1.524 . S
C2340 C2339 1.524 . S
C2340 C2341 1.397 . S
C2340 C2345 1.363 . S
C2341 H2312 0.950 . S
C2341 C2340 1.397 . S
C2341 C2342 1.334 . S
C2342 H2313 0.950 . S
C2342 C2341 1.334 . S
C2342 C2343 1.287 . S
C2343 C2342 1.287 . S
C2343 C2344 1.524 . S
C2343 H2346 0.999 . S
C2344 H2314 0.950 . S
C2344 C2343 1.524 . S
C2344 C2345 1.415 . S
C2345 H2315 0.950 . S
C2345 C2340 1.363 . S
C2345 C2344 1.415 . S
H2346 C2343 0.999 . S
H2347 C2328 0.913 . S
H2348 C2366 0.951 . S
H2349 C2368 0.951 . S
H2350 C2370 0.950 . S
H2351 C2371 0.950 . S
H2352 C2373 0.950 . S
H2353 C2376 0.950 . S
H2354 C2377 0.950 . S
H2355 C2379 0.950 . S
H2356 C2380 0.950 . S
H2357 C2381 0.951 . S
H2358 C2383 0.951 . S
H2359 C2385 0.950 . S
H2360 C2386 0.950 . S
H2361 C2388 0.950 . S
H2362 C2391 0.950 . S
H2363 C2392 0.950 . S
H2364 C2394 0.950 . S
H2365 C2395 0.950 . S
C2366 H2348 0.951 . S
C2366 C2367 1.366 . S
C2366 C2368 1.388 . S
C2367 C2366 1.366 . S
C2367 C2371 1.385 . S
C2368 H2349 0.951 . S
C2368 C2366 1.388 . S
C2368 C2369 1.366 . S
C2369 C2368 1.366 . S
C2369 C2370 1.414 . S
C2369 C2372 1.499 . S
C2370 H2350 0.950 . S
C2370 C2369 1.414 . S
C2370 C2371 1.374 . S
C2371 H2351 0.950 . S
C2371 C2367 1.385 . S
C2371 C2370 1.374 . S
C2372 C2369 1.499 . S
C2372 C2373 1.373 . S
C2372 C2374 1.389 . S
C2373 H2352 0.950 . S
C2373 C2372 1.373 . S
C2373 C2389 1.377 . S
C2374 C2372 1.389 . S
C2374 C2375 1.524 . S
C2374 C2388 1.377 . S
C2375 C2374 1.524 . S
C2375 C2376 1.397 . S
C2375 C2380 1.363 . S
C2376 H2353 0.950 . S
C2376 C2375 1.397 . S
C2376 C2377 1.334 . S
C2377 H2354 0.950 . S
C2377 C2376 1.334 . S
C2377 C2378 1.287 . S
C2378 C2377 1.287 . S
C2378 C2379 1.524 . S
C2378 H2397 0.913 . S
C2379 H2355 0.950 . S
C2379 C2378 1.524 . S
C2379 C2380 1.415 . S
C2380 H2356 0.950 . S
C2380 C2375 1.363 . S
C2380 C2379 1.415 . S
C2381 H2357 0.951 . S
C2381 C2382 1.366 . S
C2381 C2383 1.388 . S
C2382 C2381 1.366 . S
C2382 C2386 1.385 . S
C2383 H2358 0.951 . S
C2383 C2381 1.388 . S
C2383 C2384 1.366 . S
C2384 C2383 1.366 . S
C2384 C2385 1.414 . S
C2384 C2387 1.499 . S
C2385 H2359 0.950 . S
C2385 C2384 1.414 . S
C2385 C2386 1.374 . S
C2386 H2360 0.950 . S
C2386 C2382 1.385 . S
C2386 C2385 1.374 . S
C2387 C2384 1.499 . S
C2387 C2388 1.373 . S
C2387 C2389 1.389 . S
C2388 H2361 0.950 . S
C2388 C2374 1.377 . S
C2388 C2387 1.373 . S
C2389 C2373 1.377 . S
C2389 C2387 1.389 . S
C2389 C2390 1.524 . S
C2390 C2389 1.524 . S
C2390 C2391 1.397 . S
C2390 C2395 1.363 . S
C2391 H2362 0.950 . S
C2391 C2390 1.397 . S
C2391 C2392 1.334 . S
C2392 H2363 0.950 . S
C2392 C2391 1.334 . S
C2392 C2393 1.287 . S
C2393 C2392 1.287 . S
C2393 C2394 1.524 . S
C2393 H2396 0.999 . S
C2394 H2364 0.950 . S
C2394 C2393 1.524 . S
C2394 C2395 1.415 . S
C2395 H2365 0.950 . S
C2395 C2390 1.363 . S
C2395 C2394 1.415 . S
H2396 C2393 0.999 . S
H2397 C2378 0.913 . S
H2398 C2416 0.951 . S
H2399 C2418 0.951 . S
H2400 C2420 0.950 . S
H2401 C2421 0.950 . S
H2402 C2423 0.950 . S
H2403 C2426 0.950 . S
H2404 C2427 0.950 . S
H2405 C2429 0.950 . S
H2406 C2430 0.950 . S
H2407 C2431 0.951 . S
H2408 C2433 0.951 . S
H2409 C2435 0.950 . S
H2410 C2436 0.950 . S
H2411 C2438 0.950 . S
H2412 C2441 0.950 . S
H2413 C2442 0.950 . S
H2414 C2444 0.950 . S
H2415 C2445 0.950 . S
C2416 H2398 0.951 . S
C2416 C2417 1.366 . S
C2416 C2418 1.388 . S
C2417 C2416 1.366 . S
C2417 C2421 1.385 . S
C2418 H2399 0.951 . S
C2418 C2416 1.388 . S
C2418 C2419 1.366 . S
C2419 C2418 1.366 . S
C2419 C2420 1.414 . S
C2419 C2422 1.499 . S
C2420 H2400 0.950 . S
C2420 C2419 1.414 . S
C2420 C2421 1.374 . S
C2421 H2401 0.950 . S
C2421 C2417 1.385 . S
C2421 C2420 1.374 . S
C2422 C2419 1.499 . S
C2422 C2423 1.373 . S
C2422 C2424 1.389 . S
C2423 H2402 0.950 . S
C2423 C2422 1.373 . S
C2423 C2439 1.377 . S
C2424 C2422 1.389 . S
C2424 C2425 1.524 . S
C2424 C2438 1.377 . S
C2425 C2424 1.524 . S
C2425 C2426 1.397 . S
C2425 C2430 1.363 . S
C2426 H2403 0.950 . S
C2426 C2425 1.397 . S
C2426 C2427 1.334 . S
C2427 H2404 0.950 . S
C2427 C2426 1.334 . S
C2427 C2428 1.287 . S
C2428 C2427 1.287 . S
C2428 C2429 1.524 . S
C2428 H2447 0.913 . S
C2429 H2405 0.950 . S
C2429 C2428 1.524 . S
C2429 C2430 1.415 . S
C2430 H2406 0.950 . S
C2430 C2425 1.363 . S
C2430 C2429 1.415 . S
C2431 H2407 0.951 . S
C2431 C2432 1.366 . S
C2431 C2433 1.388 . S
C2432 C2431 1.366 . S
C2432 C2436 1.385 . S
C2433 H2408 0.951 . S
C2433 C2431 1.388 . S
C2433 C2434 1.366 . S
C2434 C2433 1.366 . S
C2434 C2435 1.414 . S
C2434 C2437 1.499 . S
C2435 H2409 0.950 . S
C2435 C2434 1.414 . S
C2435 C2436 1.374 . S
C2436 H2410 0.950 . S
C2436 C2432 1.385 . S
C2436 C2435 1.374 . S
C2437 C2434 1.499 . S
C2437 C2438 1.373 . S
C2437 C2439 1.389 . S
C2438 H2411 0.950 . S
C2438 C2424 1.377 . S
C2438 C2437 1.373 . S
C2439 C2423 1.377 . S
C2439 C2437 1.389 . S
C2439 C2440 1.524 . S
C2440 C2439 1.524 . S
C2440 C2441 1.397 . S
C2440 C2445 1.363 . S
C2441 H2412 0.950 . S
C2441 C2440 1.397 . S
C2441 C2442 1.334 . S
C2442 H2413 0.950 . S
C2442 C2441 1.334 . S
C2442 C2443 1.287 . S
C2443 C2442 1.287 . S
C2443 C2444 1.524 . S
C2443 H2446 0.999 . S
C2444 H2414 0.950 . S
C2444 C2443 1.524 . S
C2444 C2445 1.415 . S
C2445 H2415 0.950 . S
C2445 C2440 1.363 . S
C2445 C2444 1.415 . S
H2446 C2443 0.999 . S
H2447 C2428 0.913 . S
H2448 C2466 0.951 . S
H2449 C2468 0.951 . S
H2450 C2470 0.950 . S
H2451 C2471 0.950 . S
H2452 C2473 0.950 . S
H2453 C2476 0.950 . S
H2454 C2477 0.950 . S
H2455 C2479 0.950 . S
H2456 C2480 0.950 . S
H2457 C2481 0.951 . S
H2458 C2483 0.951 . S
H2459 C2485 0.950 . S
H2460 C2486 0.950 . S
H2461 C2488 0.950 . S
H2462 C2491 0.950 . S
H2463 C2492 0.950 . S
H2464 C2494 0.950 . S
H2465 C2495 0.950 . S
C2466 H2448 0.951 . S
C2466 C2467 1.366 . S
C2466 C2468 1.388 . S
C2467 C2466 1.366 . S
C2467 C2471 1.385 . S
C2468 H2449 0.951 . S
C2468 C2466 1.388 . S
C2468 C2469 1.366 . S
C2469 C2468 1.366 . S
C2469 C2470 1.414 . S
C2469 C2472 1.499 . S
C2470 H2450 0.950 . S
C2470 C2469 1.414 . S
C2470 C2471 1.374 . S
C2471 H2451 0.950 . S
C2471 C2467 1.385 . S
C2471 C2470 1.374 . S
C2472 C2469 1.499 . S
C2472 C2473 1.373 . S
C2472 C2474 1.389 . S
C2473 H2452 0.950 . S
C2473 C2472 1.373 . S
C2473 C2489 1.377 1_545 S
C2474 C2472 1.389 . S
C2474 C2475 1.524 . S
C2474 C2488 1.377 1_545 S
C2475 C2474 1.524 . S
C2475 C2476 1.397 . S
C2475 C2480 1.363 . S
C2476 H2453 0.950 . S
C2476 C2475 1.397 . S
C2476 C2477 1.334 . S
C2477 H2454 0.950 . S
C2477 C2476 1.334 . S
C2477 C2478 1.287 . S
C2478 C2477 1.287 . S
C2478 C2479 1.524 . S
C2478 H2497 0.913 . S
C2479 H2455 0.950 . S
C2479 C2478 1.524 . S
C2479 C2480 1.415 . S
C2480 H2456 0.950 . S
C2480 C2475 1.363 . S
C2480 C2479 1.415 . S
C2481 H2457 0.951 . S
C2481 C2482 1.366 . S
C2481 C2483 1.388 . S
C2482 C2481 1.366 . S
C2482 C2486 1.385 . S
C2483 H2458 0.951 . S
C2483 C2481 1.388 . S
C2483 C2484 1.366 . S
C2484 C2483 1.366 . S
C2484 C2485 1.414 . S
C2484 C2487 1.499 . S
C2485 H2459 0.950 . S
C2485 C2484 1.414 . S
C2485 C2486 1.374 . S
C2486 H2460 0.950 . S
C2486 C2482 1.385 . S
C2486 C2485 1.374 . S
C2487 C2484 1.499 . S
C2487 C2488 1.373 . S
C2487 C2489 1.389 . S
C2488 H2461 0.950 . S
C2488 C2474 1.377 1_565 S
C2488 C2487 1.373 . S
C2489 C2473 1.377 1_565 S
C2489 C2487 1.389 . S
C2489 C2490 1.524 . S
C2490 C2489 1.524 . S
C2490 C2491 1.397 . S
C2490 C2495 1.363 . S
C2491 H2462 0.950 . S
C2491 C2490 1.397 . S
C2491 C2492 1.334 . S
C2492 H2463 0.950 . S
C2492 C2491 1.334 . S
C2492 C2493 1.287 . S
C2493 C2492 1.287 . S
C2493 C2494 1.524 . S
C2493 H2496 0.999 . S
C2494 H2464 0.950 . S
C2494 C2493 1.524 . S
C2494 C2495 1.415 . S
C2495 H2465 0.950 . S
C2495 C2490 1.363 . S
C2495 C2494 1.415 . S
H2496 C2493 0.999 . S
H2497 C2478 0.913 . S
H2498 C2516 0.951 . S
H2499 C2518 0.951 . S
H2500 C2520 0.950 . S
H2501 C2521 0.950 . S
H2502 C2523 0.950 . S
H2503 C2526 0.950 . S
H2504 C2527 0.950 . S
H2505 C2529 0.950 . S
H2506 C2530 0.950 . S
H2507 C2531 0.951 . S
H2508 C2533 0.951 . S
H2509 C2535 0.950 . S
H2510 C2536 0.950 . S
H2511 C2538 0.950 . S
H2512 C2541 0.950 . S
H2513 C2542 0.950 . S
H2514 C2544 0.950 . S
H2515 C2545 0.950 . S
C2516 H2498 0.951 . S
C2516 C2517 1.366 . S
C2516 C2518 1.388 . S
C2517 C2516 1.366 . S
C2517 C2521 1.385 . S
C2518 H2499 0.951 . S
C2518 C2516 1.388 . S
C2518 C2519 1.366 . S
C2519 C2518 1.366 . S
C2519 C2520 1.414 . S
C2519 C2522 1.499 . S
C2520 H2500 0.950 . S
C2520 C2519 1.414 . S
C2520 C2521 1.374 . S
C2521 H2501 0.950 . S
C2521 C2517 1.385 . S
C2521 C2520 1.374 . S
C2522 C2519 1.499 . S
C2522 C2523 1.373 . S
C2522 C2524 1.389 . S
C2523 H2502 0.950 . S
C2523 C2522 1.373 . S
C2523 C2539 1.377 . S
C2524 C2522 1.389 . S
C2524 C2525 1.524 . S
C2524 C2538 1.377 . S
C2525 C2524 1.524 . S
C2525 C2526 1.397 . S
C2525 C2530 1.363 . S
C2526 H2503 0.950 . S
C2526 C2525 1.397 . S
C2526 C2527 1.334 . S
C2527 H2504 0.950 . S
C2527 C2526 1.334 . S
C2527 C2528 1.287 . S
C2528 C2527 1.287 . S
C2528 C2529 1.524 . S
C2528 H2547 0.913 . S
C2529 H2505 0.950 . S
C2529 C2528 1.524 . S
C2529 C2530 1.415 . S
C2530 H2506 0.950 . S
C2530 C2525 1.363 . S
C2530 C2529 1.415 . S
C2531 H2507 0.951 . S
C2531 C2532 1.366 . S
C2531 C2533 1.388 . S
C2532 C2531 1.366 . S
C2532 C2536 1.385 . S
C2533 H2508 0.951 . S
C2533 C2531 1.388 . S
C2533 C2534 1.366 . S
C2534 C2533 1.366 . S
C2534 C2535 1.414 . S
C2534 C2537 1.499 . S
C2535 H2509 0.950 . S
C2535 C2534 1.414 . S
C2535 C2536 1.374 . S
C2536 H2510 0.950 . S
C2536 C2532 1.385 . S
C2536 C2535 1.374 . S
C2537 C2534 1.499 . S
C2537 C2538 1.373 . S
C2537 C2539 1.389 . S
C2538 H2511 0.950 . S
C2538 C2524 1.377 . S
C2538 C2537 1.373 . S
C2539 C2523 1.377 . S
C2539 C2537 1.389 . S
C2539 C2540 1.524 . S
C2540 C2539 1.524 . S
C2540 C2541 1.397 . S
C2540 C2545 1.363 . S
C2541 H2512 0.950 . S
C2541 C2540 1.397 . S
C2541 C2542 1.334 . S
C2542 H2513 0.950 . S
C2542 C2541 1.334 . S
C2542 C2543 1.287 . S
C2543 C2542 1.287 . S
C2543 C2544 1.524 . S
C2543 H2546 0.999 . S
C2544 H2514 0.950 . S
C2544 C2543 1.524 . S
C2544 C2545 1.415 . S
C2545 H2515 0.950 . S
C2545 C2540 1.363 . S
C2545 C2544 1.415 . S
H2546 C2543 0.999 . S
H2547 C2528 0.913 . S
H2548 C2566 0.951 . S
H2549 C2568 0.951 . S
H2550 C2570 0.950 . S
H2551 C2571 0.950 . S
H2552 C2573 0.950 . S
H2553 C2576 0.950 . S
H2554 C2577 0.950 . S
H2555 C2579 0.950 . S
H2556 C2580 0.950 1_545 S
H2557 C2581 0.951 . S
H2558 C2583 0.951 . S
H2559 C2585 0.950 . S
H2560 C2586 0.950 . S
H2561 C2588 0.950 . S
H2562 C2591 0.950 . S
H2563 C2592 0.950 . S
H2564 C2594 0.950 . S
H2565 C2595 0.950 1_565 S
C2566 H2548 0.951 . S
C2566 C2567 1.366 . S
C2566 C2568 1.388 . S
C2567 C2566 1.366 . S
C2567 C2571 1.385 1_554 S
C2568 H2549 0.951 . S
C2568 C2566 1.388 . S
C2568 C2569 1.366 . S
C2569 C2568 1.366 . S
C2569 C2570 1.414 1_554 S
C2569 C2572 1.499 . S
C2570 H2550 0.950 . S
C2570 C2569 1.414 1_556 S
C2570 C2571 1.374 . S
C2571 H2551 0.950 . S
C2571 C2567 1.385 1_556 S
C2571 C2570 1.374 . S
C2572 C2569 1.499 . S
C2572 C2573 1.373 1_554 S
C2572 C2574 1.389 . S
C2573 H2552 0.950 . S
C2573 C2572 1.373 1_556 S
C2573 C2589 1.377 1_565 S
C2574 C2572 1.389 . S
C2574 C2575 1.524 . S
C2574 C2588 1.377 1_565 S
C2575 C2574 1.524 . S
C2575 C2576 1.397 . S
C2575 C2580 1.363 . S
C2576 H2553 0.950 . S
C2576 C2575 1.397 . S
C2576 C2577 1.334 . S
C2577 H2554 0.950 . S
C2577 C2576 1.334 . S
C2577 C2578 1.287 . S
C2578 C2577 1.287 . S
C2578 C2579 1.524 . S
C2578 H2597 0.913 . S
C2579 H2555 0.950 . S
C2579 C2578 1.524 . S
C2579 C2580 1.415 . S
C2580 H2556 0.950 1_565 S
C2580 C2575 1.363 . S
C2580 C2579 1.415 . S
C2581 H2557 0.951 . S
C2581 C2582 1.366 . S
C2581 C2583 1.388 . S
C2582 C2581 1.366 . S
C2582 C2586 1.385 1_556 S
C2583 H2558 0.951 . S
C2583 C2581 1.388 . S
C2583 C2584 1.366 . S
C2584 C2583 1.366 . S
C2584 C2585 1.414 1_556 S
C2584 C2587 1.499 . S
C2585 H2559 0.950 . S
C2585 C2584 1.414 1_554 S
C2585 C2586 1.374 . S
C2586 H2560 0.950 . S
C2586 C2582 1.385 1_554 S
C2586 C2585 1.374 . S
C2587 C2584 1.499 . S
C2587 C2588 1.373 1_556 S
C2587 C2589 1.389 . S
C2588 H2561 0.950 . S
C2588 C2574 1.377 1_545 S
C2588 C2587 1.373 1_554 S
C2589 C2573 1.377 1_545 S
C2589 C2587 1.389 . S
C2589 C2590 1.524 . S
C2590 C2589 1.524 . S
C2590 C2591 1.397 . S
C2590 C2595 1.363 . S
C2591 H2562 0.950 . S
C2591 C2590 1.397 . S
C2591 C2592 1.334 . S
C2592 H2563 0.950 . S
C2592 C2591 1.334 . S
C2592 C2593 1.287 . S
C2593 C2592 1.287 . S
C2593 C2594 1.524 . S
C2593 H2596 0.999 . S
C2594 H2564 0.950 . S
C2594 C2593 1.524 . S
C2594 C2595 1.415 . S
C2595 H2565 0.950 1_545 S
C2595 C2590 1.363 . S
C2595 C2594 1.415 . S
H2596 C2593 0.999 . S
H2597 C2578 0.913 . S
H2598 C2616 0.951 . S
H2599 C2618 0.951 . S
H2600 C2620 0.950 . S
H2601 C2621 0.950 . S
H2602 C2623 0.950 . S
H2603 C2626 0.950 . S
H2604 C2627 0.950 . S
H2605 C2629 0.950 . S
H2606 C2630 0.950 . S
H2607 C2631 0.951 . S
H2608 C2633 0.951 . S
H2609 C2635 0.950 . S
H2610 C2636 0.950 . S
H2611 C2638 0.950 . S
H2612 C2641 0.950 . S
H2613 C2642 0.950 . S
H2614 C2644 0.950 . S
H2615 C2645 0.950 . S
C2616 H2598 0.951 . S
C2616 C2617 1.366 . S
C2616 C2618 1.388 . S
C2617 C2616 1.366 . S
C2617 C2621 1.385 . S
C2618 H2599 0.951 . S
C2618 C2616 1.388 . S
C2618 C2619 1.366 . S
C2619 C2618 1.366 . S
C2619 C2620 1.414 . S
C2619 C2622 1.499 . S
C2620 H2600 0.950 . S
C2620 C2619 1.414 . S
C2620 C2621 1.374 . S
C2621 H2601 0.950 . S
C2621 C2617 1.385 . S
C2621 C2620 1.374 . S
C2622 C2619 1.499 . S
C2622 C2623 1.373 . S
C2622 C2624 1.389 . S
C2623 H2602 0.950 . S
C2623 C2622 1.373 . S
C2623 C2639 1.377 . S
C2624 C2622 1.389 . S
C2624 C2625 1.524 . S
C2624 C2638 1.377 . S
C2625 C2624 1.524 . S
C2625 C2626 1.397 . S
C2625 C2630 1.363 . S
C2626 H2603 0.950 . S
C2626 C2625 1.397 . S
C2626 C2627 1.334 . S
C2627 H2604 0.950 . S
C2627 C2626 1.334 . S
C2627 C2628 1.287 . S
C2628 C2627 1.287 . S
C2628 C2629 1.524 . S
C2628 H2647 0.913 . S
C2629 H2605 0.950 . S
C2629 C2628 1.524 . S
C2629 C2630 1.415 . S
C2630 H2606 0.950 . S
C2630 C2625 1.363 . S
C2630 C2629 1.415 . S
C2631 H2607 0.951 . S
C2631 C2632 1.366 . S
C2631 C2633 1.388 . S
C2632 C2631 1.366 . S
C2632 C2636 1.385 . S
C2633 H2608 0.951 . S
C2633 C2631 1.388 . S
C2633 C2634 1.366 . S
C2634 C2633 1.366 . S
C2634 C2635 1.414 . S
C2634 C2637 1.499 . S
C2635 H2609 0.950 . S
C2635 C2634 1.414 . S
C2635 C2636 1.374 . S
C2636 H2610 0.950 . S
C2636 C2632 1.385 . S
C2636 C2635 1.374 . S
C2637 C2634 1.499 . S
C2637 C2638 1.373 . S
C2637 C2639 1.389 . S
C2638 H2611 0.950 . S
C2638 C2624 1.377 . S
C2638 C2637 1.373 . S
C2639 C2623 1.377 . S
C2639 C2637 1.389 . S
C2639 C2640 1.524 . S
C2640 C2639 1.524 . S
C2640 C2641 1.397 . S
C2640 C2645 1.363 . S
C2641 H2612 0.950 . S
C2641 C2640 1.397 . S
C2641 C2642 1.334 . S
C2642 H2613 0.950 . S
C2642 C2641 1.334 . S
C2642 C2643 1.287 . S
C2643 C2642 1.287 . S
C2643 C2644 1.524 . S
C2643 H2646 0.999 . S
C2644 H2614 0.950 . S
C2644 C2643 1.524 . S
C2644 C2645 1.415 . S
C2645 H2615 0.950 . S
C2645 C2640 1.363 . S
C2645 C2644 1.415 . S
H2646 C2643 0.999 . S
H2647 C2628 0.913 . S
H2648 C2666 0.951 . S
H2649 C2668 0.951 . S
H2650 C2670 0.950 . S
H2651 C2671 0.950 . S
H2652 C2673 0.950 . S
H2653 C2676 0.950 . S
H2654 C2677 0.950 . S
H2655 C2679 0.950 . S
H2656 C2680 0.950 . S
H2657 C2681 0.951 . S
H2658 C2683 0.951 . S
H2659 C2685 0.950 . S
H2660 C2686 0.950 . S
H2661 C2688 0.950 . S
H2662 C2691 0.950 . S
H2663 C2692 0.950 . S
H2664 C2694 0.950 . S
H2665 C2695 0.950 . S
C2666 H2648 0.951 . S
C2666 C2667 1.366 . S
C2666 C2668 1.388 . S
C2667 C2666 1.366 . S
C2667 C2671 1.385 . S
C2668 H2649 0.951 . S
C2668 C2666 1.388 . S
C2668 C2669 1.366 . S
C2669 C2668 1.366 . S
C2669 C2670 1.414 . S
C2669 C2672 1.499 . S
C2670 H2650 0.950 . S
C2670 C2669 1.414 . S
C2670 C2671 1.374 . S
C2671 H2651 0.950 . S
C2671 C2667 1.385 . S
C2671 C2670 1.374 . S
C2672 C2669 1.499 . S
C2672 C2673 1.373 . S
C2672 C2674 1.389 . S
C2673 H2652 0.950 . S
C2673 C2672 1.373 . S
C2673 C2689 1.377 1_545 S
C2674 C2672 1.389 . S
C2674 C2675 1.524 . S
C2674 C2688 1.377 1_545 S
C2675 C2674 1.524 . S
C2675 C2676 1.397 . S
C2675 C2680 1.363 . S
C2676 H2653 0.950 . S
C2676 C2675 1.397 . S
C2676 C2677 1.334 . S
C2677 H2654 0.950 . S
C2677 C2676 1.334 . S
C2677 C2678 1.287 . S
C2678 C2677 1.287 . S
C2678 C2679 1.524 . S
C2678 H2697 0.913 . S
C2679 H2655 0.950 . S
C2679 C2678 1.524 . S
C2679 C2680 1.415 . S
C2680 H2656 0.950 . S
C2680 C2675 1.363 . S
C2680 C2679 1.415 . S
C2681 H2657 0.951 . S
C2681 C2682 1.366 . S
C2681 C2683 1.388 . S
C2682 C2681 1.366 . S
C2682 C2686 1.385 . S
C2683 H2658 0.951 . S
C2683 C2681 1.388 . S
C2683 C2684 1.366 . S
C2684 C2683 1.366 . S
C2684 C2685 1.414 . S
C2684 C2687 1.499 . S
C2685 H2659 0.950 . S
C2685 C2684 1.414 . S
C2685 C2686 1.374 . S
C2686 H2660 0.950 . S
C2686 C2682 1.385 . S
C2686 C2685 1.374 . S
C2687 C2684 1.499 . S
C2687 C2688 1.373 . S
C2687 C2689 1.389 . S
C2688 H2661 0.950 . S
C2688 C2674 1.377 1_565 S
C2688 C2687 1.373 . S
C2689 C2673 1.377 1_565 S
C2689 C2687 1.389 . S
C2689 C2690 1.524 . S
C2690 C2689 1.524 . S
C2690 C2691 1.397 . S
C2690 C2695 1.363 . S
C2691 H2662 0.950 . S
C2691 C2690 1.397 . S
C2691 C2692 1.334 . S
C2692 H2663 0.950 . S
C2692 C2691 1.334 . S
C2692 C2693 1.287 . S
C2693 C2692 1.287 . S
C2693 C2694 1.524 . S
C2693 H2696 0.999 . S
C2694 H2664 0.950 . S
C2694 C2693 1.524 . S
C2694 C2695 1.415 . S
C2695 H2665 0.950 . S
C2695 C2690 1.363 . S
C2695 C2694 1.415 . S
H2696 C2693 0.999 . S
H2697 C2678 0.913 . S
H2698 C2716 0.951 . S
H2699 C2718 0.951 . S
H2700 C2720 0.950 . S
H2701 C2721 0.950 . S
H2702 C2723 0.950 . S
H2703 C2726 0.950 . S
H2704 C2727 0.950 . S
H2705 C2729 0.950 . S
H2706 C2730 0.950 . S
H2707 C2731 0.951 . S
H2708 C2733 0.951 . S
H2709 C2735 0.950 . S
H2710 C2736 0.950 . S
H2711 C2738 0.950 . S
H2712 C2741 0.950 . S
H2713 C2742 0.950 . S
H2714 C2744 0.950 . S
H2715 C2745 0.950 . S
C2716 H2698 0.951 . S
C2716 C2717 1.366 . S
C2716 C2718 1.388 . S
C2717 C2716 1.366 . S
C2717 C2721 1.385 . S
C2718 H2699 0.951 . S
C2718 C2716 1.388 . S
C2718 C2719 1.366 . S
C2719 C2718 1.366 . S
C2719 C2720 1.414 . S
C2719 C2722 1.499 . S
C2720 H2700 0.950 . S
C2720 C2719 1.414 . S
C2720 C2721 1.374 . S
C2721 H2701 0.950 . S
C2721 C2717 1.385 . S
C2721 C2720 1.374 . S
C2722 C2719 1.499 . S
C2722 C2723 1.373 . S
C2722 C2724 1.389 . S
C2723 H2702 0.950 . S
C2723 C2722 1.373 . S
C2723 C2739 1.377 . S
C2724 C2722 1.389 . S
C2724 C2725 1.524 . S
C2724 C2738 1.377 . S
C2725 C2724 1.524 . S
C2725 C2726 1.397 . S
C2725 C2730 1.363 . S
C2726 H2703 0.950 . S
C2726 C2725 1.397 . S
C2726 C2727 1.334 . S
C2727 H2704 0.950 . S
C2727 C2726 1.334 . S
C2727 C2728 1.287 . S
C2728 C2727 1.287 . S
C2728 C2729 1.524 . S
C2728 H2747 0.913 . S
C2729 H2705 0.950 . S
C2729 C2728 1.524 . S
C2729 C2730 1.415 . S
C2730 H2706 0.950 . S
C2730 C2725 1.363 . S
C2730 C2729 1.415 . S
C2731 H2707 0.951 . S
C2731 C2732 1.366 . S
C2731 C2733 1.388 . S
C2732 C2731 1.366 . S
C2732 C2736 1.385 . S
C2733 H2708 0.951 . S
C2733 C2731 1.388 . S
C2733 C2734 1.366 . S
C2734 C2733 1.366 . S
C2734 C2735 1.414 . S
C2734 C2737 1.499 . S
C2735 H2709 0.950 . S
C2735 C2734 1.414 . S
C2735 C2736 1.374 . S
C2736 H2710 0.950 . S
C2736 C2732 1.385 . S
C2736 C2735 1.374 . S
C2737 C2734 1.499 . S
C2737 C2738 1.373 . S
C2737 C2739 1.389 . S
C2738 H2711 0.950 . S
C2738 C2724 1.377 . S
C2738 C2737 1.373 . S
C2739 C2723 1.377 . S
C2739 C2737 1.389 . S
C2739 C2740 1.524 . S
C2740 C2739 1.524 . S
C2740 C2741 1.397 . S
C2740 C2745 1.363 . S
C2741 H2712 0.950 . S
C2741 C2740 1.397 . S
C2741 C2742 1.334 . S
C2742 H2713 0.950 . S
C2742 C2741 1.334 . S
C2742 C2743 1.287 . S
C2743 C2742 1.287 . S
C2743 C2744 1.524 . S
C2743 H2746 0.999 . S
C2744 H2714 0.950 . S
C2744 C2743 1.524 . S
C2744 C2745 1.415 . S
C2745 H2715 0.950 . S
C2745 C2740 1.363 . S
C2745 C2744 1.415 . S
H2746 C2743 0.999 . S
H2747 C2728 0.913 . S
H2748 C2766 0.951 . S
H2749 C2768 0.951 1_556 S
H2750 C2770 0.950 . S
H2751 C2771 0.950 . S
H2752 C2773 0.950 . S
H2753 C2776 0.950 . S
H2754 C2777 0.950 . S
H2755 C2779 0.950 . S
H2756 C2780 0.950 . S
H2757 C2781 0.951 . S
H2758 C2783 0.951 1_554 S
H2759 C2785 0.950 . S
H2760 C2786 0.950 . S
H2761 C2788 0.950 . S
H2762 C2791 0.950 . S
H2763 C2792 0.950 . S
H2764 C2794 0.950 . S
H2765 C2795 0.950 . S
C2766 H2748 0.951 . S
C2766 C2767 1.366 . S
C2766 C2768 1.388 . S
C2767 C2766 1.366 . S
C2767 C2771 1.385 . S
C2768 H2749 0.951 1_554 S
C2768 C2766 1.388 . S
C2768 C2769 1.366 . S
C2769 C2768 1.366 . S
C2769 C2770 1.414 . S
C2769 C2772 1.499 . S
C2770 H2750 0.950 . S
C2770 C2769 1.414 . S
C2770 C2771 1.374 . S
C2771 H2751 0.950 . S
C2771 C2767 1.385 . S
C2771 C2770 1.374 . S
C2772 C2769 1.499 . S
C2772 C2773 1.373 1_554 S
C2772 C2774 1.389 . S
C2773 H2752 0.950 . S
C2773 C2772 1.373 1_556 S
C2773 C2789 1.377 1_565 S
C2774 C2772 1.389 . S
C2774 C2775 1.524 . S
C2774 C2788 1.377 1_565 S
C2775 C2774 1.524 . S
C2775 C2776 1.397 . S
C2775 C2780 1.363 . S
C2776 H2753 0.950 . S
C2776 C2775 1.397 . S
C2776 C2777 1.334 . S
C2777 H2754 0.950 . S
C2777 C2776 1.334 . S
C2777 C2778 1.287 . S
C2778 C2777 1.287 . S
C2778 C2779 1.524 . S
C2778 H2797 0.913 . S
C2779 H2755 0.950 . S
C2779 C2778 1.524 . S
C2779 C2780 1.415 . S
C2780 H2756 0.950 . S
C2780 C2775 1.363 . S
C2780 C2779 1.415 . S
C2781 H2757 0.951 . S
C2781 C2782 1.366 . S
C2781 C2783 1.388 . S
C2782 C2781 1.366 . S
C2782 C2786 1.385 . S
C2783 H2758 0.951 1_556 S
C2783 C2781 1.388 . S
C2783 C2784 1.366 . S
C2784 C2783 1.366 . S
C2784 C2785 1.414 . S
C2784 C2787 1.499 . S
C2785 H2759 0.950 . S
C2785 C2784 1.414 . S
C2785 C2786 1.374 . S
C2786 H2760 0.950 . S
C2786 C2782 1.385 . S
C2786 C2785 1.374 . S
C2787 C2784 1.499 . S
C2787 C2788 1.373 1_556 S
C2787 C2789 1.389 . S
C2788 H2761 0.950 . S
C2788 C2774 1.377 1_545 S
C2788 C2787 1.373 1_554 S
C2789 C2773 1.377 1_545 S
C2789 C2787 1.389 . S
C2789 C2790 1.524 . S
C2790 C2789 1.524 . S
C2790 C2791 1.397 . S
C2790 C2795 1.363 . S
C2791 H2762 0.950 . S
C2791 C2790 1.397 . S
C2791 C2792 1.334 . S
C2792 H2763 0.950 . S
C2792 C2791 1.334 . S
C2792 C2793 1.287 . S
C2793 C2792 1.287 . S
C2793 C2794 1.524 . S
C2793 H2796 0.999 . S
C2794 H2764 0.950 . S
C2794 C2793 1.524 . S
C2794 C2795 1.415 . S
C2795 H2765 0.950 . S
C2795 C2790 1.363 . S
C2795 C2794 1.415 . S
H2796 C2793 0.999 . S
H2797 C2778 0.913 . S
H2798 C2816 0.951 . S
H2799 C2818 0.951 . S
H2800 C2820 0.950 . S
H2801 C2821 0.950 . S
H2802 C2823 0.950 . S
H2803 C2826 0.950 . S
H2804 C2827 0.950 . S
H2805 C2829 0.950 . S
H2806 C2830 0.950 . S
H2807 C2831 0.951 . S
H2808 C2833 0.951 . S
H2809 C2835 0.950 . S
H2810 C2836 0.950 . S
H2811 C2838 0.950 . S
H2812 C2841 0.950 . S
H2813 C2842 0.950 . S
H2814 C2844 0.950 . S
H2815 C2845 0.950 . S
C2816 H2798 0.951 . S
C2816 C2817 1.366 . S
C2816 C2818 1.388 . S
C2817 C2816 1.366 . S
C2817 C2821 1.385 . S
C2818 H2799 0.951 . S
C2818 C2816 1.388 . S
C2818 C2819 1.366 . S
C2819 C2818 1.366 . S
C2819 C2820 1.414 . S
C2819 C2822 1.499 . S
C2820 H2800 0.950 . S
C2820 C2819 1.414 . S
C2820 C2821 1.374 . S
C2821 H2801 0.950 . S
C2821 C2817 1.385 . S
C2821 C2820 1.374 . S
C2822 C2819 1.499 . S
C2822 C2823 1.373 . S
C2822 C2824 1.389 . S
C2823 H2802 0.950 . S
C2823 C2822 1.373 . S
C2823 C2839 1.377 . S
C2824 C2822 1.389 . S
C2824 C2825 1.524 . S
C2824 C2838 1.377 . S
C2825 C2824 1.524 . S
C2825 C2826 1.397 . S
C2825 C2830 1.363 . S
C2826 H2803 0.950 . S
C2826 C2825 1.397 . S
C2826 C2827 1.334 . S
C2827 H2804 0.950 . S
C2827 C2826 1.334 . S
C2827 C2828 1.287 . S
C2828 C2827 1.287 . S
C2828 C2829 1.524 . S
C2828 H2847 0.913 . S
C2829 H2805 0.950 . S
C2829 C2828 1.524 . S
C2829 C2830 1.415 . S
C2830 H2806 0.950 . S
C2830 C2825 1.363 . S
C2830 C2829 1.415 . S
C2831 H2807 0.951 . S
C2831 C2832 1.366 . S
C2831 C2833 1.388 . S
C2832 C2831 1.366 . S
C2832 C2836 1.385 . S
C2833 H2808 0.951 . S
C2833 C2831 1.388 . S
C2833 C2834 1.366 . S
C2834 C2833 1.366 . S
C2834 C2835 1.414 . S
C2834 C2837 1.499 . S
C2835 H2809 0.950 . S
C2835 C2834 1.414 . S
C2835 C2836 1.374 . S
C2836 H2810 0.950 . S
C2836 C2832 1.385 . S
C2836 C2835 1.374 . S
C2837 C2834 1.499 . S
C2837 C2838 1.373 . S
C2837 C2839 1.389 . S
C2838 H2811 0.950 . S
C2838 C2824 1.377 . S
C2838 C2837 1.373 . S
C2839 C2823 1.377 . S
C2839 C2837 1.389 . S
C2839 C2840 1.524 . S
C2840 C2839 1.524 . S
C2840 C2841 1.397 . S
C2840 C2845 1.363 . S
C2841 H2812 0.950 . S
C2841 C2840 1.397 . S
C2841 C2842 1.334 . S
C2842 H2813 0.950 . S
C2842 C2841 1.334 . S
C2842 C2843 1.287 . S
C2843 C2842 1.287 . S
C2843 C2844 1.524 . S
C2843 H2846 0.999 . S
C2844 H2814 0.950 . S
C2844 C2843 1.524 . S
C2844 C2845 1.415 . S
C2845 H2815 0.950 . S
C2845 C2840 1.363 . S
C2845 C2844 1.415 . S
H2846 C2843 0.999 . S
H2847 C2828 0.913 . S
H2848 C2866 0.951 . S
H2849 C2868 0.951 . S
H2850 C2870 0.885 1_556 S
H2851 C2871 0.904 1_556 S
H2852 C2873 0.950 . S
H2853 C2876 0.950 . S
H2854 C2877 0.950 . S
H2855 C2879 0.950 . S
H2856 C2880 0.950 . S
H2857 C2881 0.922 1_556 S
H2858 C2883 0.941 1_556 S
H2859 C2885 0.950 . S
H2860 C2886 0.950 . S
H2861 C2888 0.950 . S
H2862 C2891 0.950 . S
H2863 C2892 0.950 . S
H2864 C2894 0.941 1_556 S
H2865 C2895 0.950 1_556 S
C2866 H2848 0.951 . S
C2866 C2867 1.366 . S
C2866 C2868 1.388 . S
C2867 C2866 1.366 . S
C2867 C2871 1.385 . S
C2868 H2849 0.951 . S
C2868 C2866 1.388 . S
C2868 C2869 1.366 . S
C2869 C2868 1.366 . S
C2869 C2870 1.414 . S
C2869 C2872 1.499 . S
C2870 H2850 0.885 1_554 S
C2870 C2869 1.414 . S
C2870 C2871 1.374 . S
C2871 H2851 0.904 1_554 S
C2871 C2867 1.385 . S
C2871 C2870 1.374 . S
C2872 C2869 1.499 . S
C2872 C2873 1.373 . S
C2872 C2874 1.389 . S
C2873 H2852 0.950 . S
C2873 C2872 1.373 . S
C2873 C2889 1.377 . S
C2874 C2872 1.389 . S
C2874 C2875 1.524 . S
C2874 C2888 1.377 . S
C2875 C2874 1.524 . S
C2875 C2876 1.397 . S
C2875 C2880 1.363 . S
C2876 H2853 0.950 . S
C2876 C2875 1.397 . S
C2876 C2877 1.334 . S
C2877 H2854 0.950 . S
C2877 C2876 1.334 . S
C2877 C2878 1.287 . S
C2878 C2877 1.287 . S
C2878 C2879 1.524 . S
C2878 H2897 0.913 . S
C2879 H2855 0.950 . S
C2879 C2878 1.524 . S
C2879 C2880 1.415 . S
C2880 H2856 0.950 . S
C2880 C2875 1.363 . S
C2880 C2879 1.415 . S
C2881 H2857 0.922 1_554 S
C2881 C2882 1.366 . S
C2881 C2883 1.388 . S
C2882 C2881 1.366 . S
C2882 C2886 1.385 . S
C2883 H2858 0.941 1_554 S
C2883 C2881 1.388 . S
C2883 C2884 1.366 . S
C2884 C2883 1.366 . S
C2884 C2885 1.414 . S
C2884 C2887 1.499 . S
C2885 H2859 0.950 . S
C2885 C2884 1.414 . S
C2885 C2886 1.374 . S
C2886 H2860 0.950 . S
C2886 C2882 1.385 . S
C2886 C2885 1.374 . S
C2887 C2884 1.499 . S
C2887 C2888 1.373 . S
C2887 C2889 1.389 . S
C2888 H2861 0.950 . S
C2888 C2874 1.377 . S
C2888 C2887 1.373 . S
C2889 C2873 1.377 . S
C2889 C2887 1.389 . S
C2889 C2890 1.524 . S
C2890 C2889 1.524 . S
C2890 C2891 1.397 . S
C2890 C2895 1.363 . S
C2891 H2862 0.950 . S
C2891 C2890 1.397 . S
C2891 C2892 1.334 . S
C2892 H2863 0.950 . S
C2892 C2891 1.334 . S
C2892 C2893 1.287 . S
C2893 C2892 1.287 . S
C2893 C2894 1.533 . S
C2893 H2896 0.999 . S
C2894 H2864 0.941 1_554 S
C2894 C2893 1.533 . S
C2894 C2895 1.416 . S
C2895 H2865 0.950 1_554 S
C2895 C2890 1.363 . S
C2895 C2894 1.416 . S
H2896 C2893 0.999 . S
H2897 C2878 0.913 . S
H2898 C2916 0.951 . S
H2899 C2918 0.951 . S
H2900 C2920 0.950 . S
H2901 C2921 0.950 . S
H2902 C2923 0.950 . S
H2903 C2926 0.950 . S
H2904 C2927 0.950 . S
H2905 C2929 0.950 . S
H2906 C2930 0.950 . S
H2907 C2931 0.951 . S
H2908 C2933 0.951 . S
H2909 C2935 0.950 . S
H2910 C2936 0.950 . S
H2911 C2938 0.950 . S
H2912 C2941 0.950 . S
H2913 C2942 0.950 . S
H2914 C2944 0.950 . S
H2915 C2945 0.950 . S
C2916 H2898 0.951 . S
C2916 C2917 1.366 . S
C2916 C2918 1.388 . S
C2917 C2916 1.366 . S
C2917 C2921 1.385 . S
C2918 H2899 0.951 . S
C2918 C2916 1.388 . S
C2918 C2919 1.366 . S
C2919 C2918 1.366 . S
C2919 C2920 1.414 . S
C2919 C2922 1.499 . S
C2920 H2900 0.950 . S
C2920 C2919 1.414 . S
C2920 C2921 1.374 . S
C2921 H2901 0.950 . S
C2921 C2917 1.385 . S
C2921 C2920 1.374 . S
C2922 C2919 1.499 . S
C2922 C2923 1.373 . S
C2922 C2924 1.389 . S
C2923 H2902 0.950 . S
C2923 C2922 1.373 . S
C2923 C2939 1.377 . S
C2924 C2922 1.389 . S
C2924 C2925 1.524 . S
C2924 C2938 1.377 . S
C2925 C2924 1.524 . S
C2925 C2926 1.397 . S
C2925 C2930 1.363 . S
C2926 H2903 0.950 . S
C2926 C2925 1.397 . S
C2926 C2927 1.334 . S
C2927 H2904 0.950 . S
C2927 C2926 1.334 . S
C2927 C2928 1.287 . S
C2928 C2927 1.287 . S
C2928 C2929 1.524 . S
C2928 H2947 0.913 . S
C2929 H2905 0.950 . S
C2929 C2928 1.524 . S
C2929 C2930 1.415 . S
C2930 H2906 0.950 . S
C2930 C2925 1.363 . S
C2930 C2929 1.415 . S
C2931 H2907 0.951 . S
C2931 C2932 1.366 . S
C2931 C2933 1.388 . S
C2932 C2931 1.366 . S
C2932 C2936 1.385 . S
C2933 H2908 0.951 . S
C2933 C2931 1.388 . S
C2933 C2934 1.366 . S
C2934 C2933 1.366 . S
C2934 C2935 1.414 . S
C2934 C2937 1.499 . S
C2935 H2909 0.950 . S
C2935 C2934 1.414 . S
C2935 C2936 1.374 . S
C2936 H2910 0.950 . S
C2936 C2932 1.385 . S
C2936 C2935 1.374 . S
C2937 C2934 1.499 . S
C2937 C2938 1.373 . S
C2937 C2939 1.389 . S
C2938 H2911 0.950 . S
C2938 C2924 1.377 . S
C2938 C2937 1.373 . S
C2939 C2923 1.377 . S
C2939 C2937 1.389 . S
C2939 C2940 1.524 . S
C2940 C2939 1.524 . S
C2940 C2941 1.397 . S
C2940 C2945 1.363 . S
C2941 H2912 0.950 . S
C2941 C2940 1.397 . S
C2941 C2942 1.334 . S
C2942 H2913 0.950 . S
C2942 C2941 1.334 . S
C2942 C2943 1.287 . S
C2943 C2942 1.287 . S
C2943 C2944 1.524 . S
C2943 H2946 0.999 . S
C2944 H2914 0.950 . S
C2944 C2943 1.524 . S
C2944 C2945 1.415 . S
C2945 H2915 0.950 . S
C2945 C2940 1.363 . S
C2945 C2944 1.415 . S
H2946 C2943 0.999 . S
H2947 C2928 0.913 . S
H2948 C2966 0.951 . S
H2949 C2968 0.951 . S
H2950 C2970 0.950 . S
H2951 C2971 0.950 . S
H2952 C2973 0.950 . S
H2953 C2976 0.950 . S
H2954 C2977 0.950 . S
H2955 C2979 0.950 . S
H2956 C2980 0.950 . S
H2957 C2981 0.951 . S
H2958 C2983 0.951 . S
H2959 C2985 0.950 . S
H2960 C2986 0.950 . S
H2961 C2988 0.950 . S
H2962 C2991 0.950 . S
H2963 C2992 0.950 . S
H2964 C2994 0.950 . S
H2965 C2995 0.950 . S
C2966 H2948 0.951 . S
C2966 C2967 1.366 . S
C2966 C2968 1.388 . S
C2967 C2966 1.366 . S
C2967 C2971 1.385 . S
C2968 H2949 0.951 . S
C2968 C2966 1.388 . S
C2968 C2969 1.366 . S
C2969 C2968 1.366 . S
C2969 C2970 1.414 . S
C2969 C2972 1.499 . S
C2970 H2950 0.950 . S
C2970 C2969 1.414 . S
C2970 C2971 1.374 . S
C2971 H2951 0.950 . S
C2971 C2967 1.385 . S
C2971 C2970 1.374 . S
C2972 C2969 1.499 . S
C2972 C2973 1.373 . S
C2972 C2974 1.389 . S
C2973 H2952 0.950 . S
C2973 C2972 1.373 . S
C2973 C2989 1.377 . S
C2974 C2972 1.389 . S
C2974 C2975 1.524 . S
C2974 C2988 1.377 . S
C2975 C2974 1.524 . S
C2975 C2976 1.397 . S
C2975 C2980 1.363 . S
C2976 H2953 0.950 . S
C2976 C2975 1.397 . S
C2976 C2977 1.334 . S
C2977 H2954 0.950 . S
C2977 C2976 1.334 . S
C2977 C2978 1.287 . S
C2978 C2977 1.287 . S
C2978 C2979 1.524 . S
C2978 H2997 0.913 . S
C2979 H2955 0.950 . S
C2979 C2978 1.524 . S
C2979 C2980 1.415 . S
C2980 H2956 0.950 . S
C2980 C2975 1.363 . S
C2980 C2979 1.415 . S
C2981 H2957 0.951 . S
C2981 C2982 1.366 . S
C2981 C2983 1.388 . S
C2982 C2981 1.366 . S
C2982 C2986 1.385 . S
C2983 H2958 0.951 . S
C2983 C2981 1.388 . S
C2983 C2984 1.366 . S
C2984 C2983 1.366 . S
C2984 C2985 1.414 . S
C2984 C2987 1.499 . S
C2985 H2959 0.950 . S
C2985 C2984 1.414 . S
C2985 C2986 1.374 . S
C2986 H2960 0.950 . S
C2986 C2982 1.385 . S
C2986 C2985 1.374 . S
C2987 C2984 1.499 . S
C2987 C2988 1.373 . S
C2987 C2989 1.389 . S
C2988 H2961 0.950 . S
C2988 C2974 1.377 . S
C2988 C2987 1.373 . S
C2989 C2973 1.377 . S
C2989 C2987 1.389 . S
C2989 C2990 1.524 . S
C2990 C2989 1.524 . S
C2990 C2991 1.397 . S
C2990 C2995 1.363 . S
C2991 H2962 0.950 . S
C2991 C2990 1.397 . S
C2991 C2992 1.334 . S
C2992 H2963 0.950 . S
C2992 C2991 1.334 . S
C2992 C2993 1.287 . S
C2993 C2992 1.287 . S
C2993 C2994 1.524 . S
C2993 H2996 0.999 . S
C2994 H2964 0.950 . S
C2994 C2993 1.524 . S
C2994 C2995 1.415 . S
C2995 H2965 0.950 . S
C2995 C2990 1.363 . S
C2995 C2994 1.415 . S
H2996 C2993 0.999 . S
H2997 C2978 0.913 . S
H2998 C3016 0.951 . S
H2999 C3018 0.951 . S
H3000 C3020 0.950 . S
H3001 C3021 0.950 . S
H3002 C3023 0.950 . S
H3003 C3026 0.950 . S
H3004 C3027 0.950 . S
H3005 C3029 0.950 . S
H3006 C3030 0.950 . S
H3007 C3031 0.951 . S
H3008 C3033 0.951 . S
H3009 C3035 0.950 . S
H3010 C3036 0.950 . S
H3011 C3038 0.950 . S
H3012 C3041 0.950 . S
H3013 C3042 0.950 . S
H3014 C3044 0.950 . S
H3015 C3045 0.950 . S
C3016 H2998 0.951 . S
C3016 C3017 1.366 . S
C3016 C3018 1.388 . S
C3017 C3016 1.366 . S
C3017 C3021 1.385 . S
C3018 H2999 0.951 . S
C3018 C3016 1.388 . S
C3018 C3019 1.366 . S
C3019 C3018 1.366 . S
C3019 C3020 1.414 . S
C3019 C3022 1.499 . S
C3020 H3000 0.950 . S
C3020 C3019 1.414 . S
C3020 C3021 1.374 . S
C3021 H3001 0.950 . S
C3021 C3017 1.385 . S
C3021 C3020 1.374 . S
C3022 C3019 1.499 . S
C3022 C3023 1.373 . S
C3022 C3024 1.389 . S
C3023 H3002 0.950 . S
C3023 C3022 1.373 . S
C3023 C3039 1.377 1_655 S
C3024 C3022 1.389 . S
C3024 C3025 1.524 . S
C3024 C3038 1.377 1_655 S
C3025 C3024 1.524 . S
C3025 C3026 1.397 . S
C3025 C3030 1.363 . S
C3026 H3003 0.950 . S
C3026 C3025 1.397 . S
C3026 C3027 1.334 . S
C3027 H3004 0.950 . S
C3027 C3026 1.334 . S
C3027 C3028 1.287 . S
C3028 C3027 1.287 . S
C3028 C3029 1.524 . S
C3028 H3047 0.913 . S
C3029 H3005 0.950 . S
C3029 C3028 1.524 . S
C3029 C3030 1.415 . S
C3030 H3006 0.950 . S
C3030 C3025 1.363 . S
C3030 C3029 1.415 . S
C3031 H3007 0.951 . S
C3031 C3032 1.366 . S
C3031 C3033 1.388 . S
C3032 C3031 1.366 . S
C3032 C3036 1.385 . S
C3033 H3008 0.951 . S
C3033 C3031 1.388 . S
C3033 C3034 1.366 . S
C3034 C3033 1.366 . S
C3034 C3035 1.414 . S
C3034 C3037 1.499 . S
C3035 H3009 0.950 . S
C3035 C3034 1.414 . S
C3035 C3036 1.374 . S
C3036 H3010 0.950 . S
C3036 C3032 1.385 . S
C3036 C3035 1.374 . S
C3037 C3034 1.499 . S
C3037 C3038 1.373 . S
C3037 C3039 1.389 . S
C3038 H3011 0.950 . S
C3038 C3024 1.377 1_455 S
C3038 C3037 1.373 . S
C3039 C3023 1.377 1_455 S
C3039 C3037 1.389 . S
C3039 C3040 1.524 . S
C3040 C3039 1.524 . S
C3040 C3041 1.397 . S
C3040 C3045 1.363 . S
C3041 H3012 0.950 . S
C3041 C3040 1.397 . S
C3041 C3042 1.334 . S
C3042 H3013 0.950 . S
C3042 C3041 1.334 . S
C3042 C3043 1.287 . S
C3043 C3042 1.287 . S
C3043 C3044 1.524 . S
C3043 H3046 0.999 . S
C3044 H3014 0.950 . S
C3044 C3043 1.524 . S
C3044 C3045 1.415 . S
C3045 H3015 0.950 . S
C3045 C3040 1.363 . S
C3045 C3044 1.415 . S
H3046 C3043 0.999 . S
H3047 C3028 0.913 . S
H3048 C3066 0.951 . S
H3049 C3068 0.951 . S
H3050 C3070 0.950 . S
H3051 C3071 0.950 . S
H3052 C3073 0.950 . S
H3053 C3076 0.950 . S
H3054 C3077 0.950 . S
H3055 C3079 0.950 . S
H3056 C3080 0.950 . S
H3057 C3081 0.951 . S
H3058 C3083 0.951 . S
H3059 C3085 0.950 . S
H3060 C3086 0.950 . S
H3061 C3088 0.950 1_554 S
H3062 C3091 0.950 . S
H3063 C3092 0.950 . S
H3064 C3094 0.950 . S
H3065 C3095 0.950 . S
C3066 H3048 0.951 . S
C3066 C3067 1.366 . S
C3066 C3068 1.388 . S
C3067 C3066 1.366 . S
C3067 C3071 1.385 . S
C3068 H3049 0.951 . S
C3068 C3066 1.388 . S
C3068 C3069 1.366 . S
C3069 C3068 1.366 . S
C3069 C3070 1.414 . S
C3069 C3072 1.499 . S
C3070 H3050 0.950 . S
C3070 C3069 1.414 . S
C3070 C3071 1.374 . S
C3071 H3051 0.950 . S
C3071 C3067 1.385 . S
C3071 C3070 1.374 . S
C3072 C3069 1.499 . S
C3072 C3073 1.373 . S
C3072 C3074 1.389 . S
C3073 H3052 0.950 . S
C3073 C3072 1.373 . S
C3073 C3089 1.377 . S
C3074 C3072 1.389 . S
C3074 C3075 1.524 1_556 S
C3074 C3088 1.377 . S
C3075 C3074 1.524 1_554 S
C3075 C3076 1.397 . S
C3075 C3080 1.363 . S
C3076 H3053 0.950 . S
C3076 C3075 1.397 . S
C3076 C3077 1.334 . S
C3077 H3054 0.950 . S
C3077 C3076 1.334 . S
C3077 C3078 1.287 . S
C3078 C3077 1.287 . S
C3078 C3079 1.524 . S
C3078 H3097 0.913 . S
C3079 H3055 0.950 . S
C3079 C3078 1.524 . S
C3079 C3080 1.415 . S
C3080 H3056 0.950 . S
C3080 C3075 1.363 . S
C3080 C3079 1.415 . S
C3081 H3057 0.951 . S
C3081 C3082 1.366 . S
C3081 C3083 1.388 . S
C3082 C3081 1.366 . S
C3082 C3086 1.385 . S
C3083 H3058 0.951 . S
C3083 C3081 1.388 . S
C3083 C3084 1.366 . S
C3084 C3083 1.366 . S
C3084 C3085 1.414 . S
C3084 C3087 1.499 . S
C3085 H3059 0.950 . S
C3085 C3084 1.414 . S
C3085 C3086 1.374 . S
C3086 H3060 0.950 . S
C3086 C3082 1.385 . S
C3086 C3085 1.374 . S
C3087 C3084 1.499 . S
C3087 C3088 1.373 . S
C3087 C3089 1.389 . S
C3088 H3061 0.950 1_556 S
C3088 C3074 1.377 . S
C3088 C3087 1.373 . S
C3089 C3073 1.377 . S
C3089 C3087 1.389 . S
C3089 C3090 1.524 . S
C3090 C3089 1.524 . S
C3090 C3091 1.397 . S
C3090 C3095 1.363 . S
C3091 H3062 0.950 . S
C3091 C3090 1.397 . S
C3091 C3092 1.334 . S
C3092 H3063 0.950 . S
C3092 C3091 1.334 . S
C3092 C3093 1.287 . S
C3093 C3092 1.287 . S
C3093 C3094 1.524 . S
C3093 H3096 0.999 . S
C3094 H3064 0.950 . S
C3094 C3093 1.524 . S
C3094 C3095 1.415 . S
C3095 H3065 0.950 . S
C3095 C3090 1.363 . S
C3095 C3094 1.415 . S
H3096 C3093 0.999 . S
H3097 C3078 0.913 . S
H3098 C3116 0.951 . S
H3099 C3118 0.951 . S
H3100 C3120 0.950 . S
H3101 C3121 0.950 . S
H3102 C3123 0.950 . S
H3103 C3126 0.950 . S
H3104 C3127 0.950 . S
H3105 C3129 0.950 . S
H3106 C3130 0.950 . S
H3107 C3131 0.951 . S
H3108 C3133 0.951 . S
H3109 C3135 0.950 . S
H3110 C3136 0.950 . S
H3111 C3138 0.950 . S
H3112 C3141 0.950 . S
H3113 C3142 0.950 . S
H3114 C3144 0.950 . S
H3115 C3145 0.950 . S
C3116 H3098 0.951 . S
C3116 C3117 1.366 . S
C3116 C3118 1.388 . S
C3117 C3116 1.366 . S
C3117 C3121 1.385 . S
C3118 H3099 0.951 . S
C3118 C3116 1.388 . S
C3118 C3119 1.366 . S
C3119 C3118 1.366 . S
C3119 C3120 1.414 . S
C3119 C3122 1.499 . S
C3120 H3100 0.950 . S
C3120 C3119 1.414 . S
C3120 C3121 1.374 . S
C3121 H3101 0.950 . S
C3121 C3117 1.385 . S
C3121 C3120 1.374 . S
C3122 C3119 1.499 . S
C3122 C3123 1.373 . S
C3122 C3124 1.389 . S
C3123 H3102 0.950 . S
C3123 C3122 1.373 . S
C3123 C3139 1.377 1_655 S
C3124 C3122 1.389 . S
C3124 C3125 1.524 . S
C3124 C3138 1.377 1_655 S
C3125 C3124 1.524 . S
C3125 C3126 1.397 . S
C3125 C3130 1.363 . S
C3126 H3103 0.950 . S
C3126 C3125 1.397 . S
C3126 C3127 1.334 . S
C3127 H3104 0.950 . S
C3127 C3126 1.334 . S
C3127 C3128 1.287 . S
C3128 C3127 1.287 . S
C3128 C3129 1.524 . S
C3128 H3147 0.913 . S
C3129 H3105 0.950 . S
C3129 C3128 1.524 . S
C3129 C3130 1.415 . S
C3130 H3106 0.950 . S
C3130 C3125 1.363 . S
C3130 C3129 1.415 . S
C3131 H3107 0.951 . S
C3131 C3132 1.366 . S
C3131 C3133 1.388 . S
C3132 C3131 1.366 . S
C3132 C3136 1.385 . S
C3133 H3108 0.951 . S
C3133 C3131 1.388 . S
C3133 C3134 1.366 . S
C3134 C3133 1.366 . S
C3134 C3135 1.414 . S
C3134 C3137 1.499 . S
C3135 H3109 0.950 . S
C3135 C3134 1.414 . S
C3135 C3136 1.374 . S
C3136 H3110 0.950 . S
C3136 C3132 1.385 . S
C3136 C3135 1.374 . S
C3137 C3134 1.499 . S
C3137 C3138 1.373 . S
C3137 C3139 1.389 . S
C3138 H3111 0.950 . S
C3138 C3124 1.377 1_455 S
C3138 C3137 1.373 . S
C3139 C3123 1.377 1_455 S
C3139 C3137 1.389 . S
C3139 C3140 1.524 . S
C3140 C3139 1.524 . S
C3140 C3141 1.397 . S
C3140 C3145 1.363 . S
C3141 H3112 0.950 . S
C3141 C3140 1.397 . S
C3141 C3142 1.334 . S
C3142 H3113 0.950 . S
C3142 C3141 1.334 . S
C3142 C3143 1.287 . S
C3143 C3142 1.287 . S
C3143 C3144 1.524 . S
C3143 H3146 0.999 . S
C3144 H3114 0.950 . S
C3144 C3143 1.524 . S
C3144 C3145 1.415 . S
C3145 H3115 0.950 . S
C3145 C3140 1.363 . S
C3145 C3144 1.415 . S
H3146 C3143 0.999 . S
H3147 C3128 0.913 . S
H3148 C3166 0.951 . S
H3149 C3168 0.951 . S
H3150 C3170 0.950 . S
H3151 C3171 0.950 . S
H3152 C3173 0.950 . S
H3153 C3176 0.950 . S
H3154 C3177 0.950 . S
H3155 C3179 0.950 . S
H3156 C3180 0.950 . S
H3157 C3181 0.951 . S
H3158 C3183 0.951 . S
H3159 C3185 0.950 . S
H3160 C3186 0.950 . S
H3161 C3188 0.950 . S
H3162 C3191 0.950 . S
H3163 C3192 0.950 . S
H3164 C3194 0.950 . S
H3165 C3195 0.950 . S
C3166 H3148 0.951 . S
C3166 C3167 1.366 . S
C3166 C3168 1.388 . S
C3167 C3166 1.366 . S
C3167 C3171 1.385 . S
C3168 H3149 0.951 . S
C3168 C3166 1.388 . S
C3168 C3169 1.366 . S
C3169 C3168 1.366 . S
C3169 C3170 1.414 . S
C3169 C3172 1.499 . S
C3170 H3150 0.950 . S
C3170 C3169 1.414 . S
C3170 C3171 1.374 . S
C3171 H3151 0.950 . S
C3171 C3167 1.385 . S
C3171 C3170 1.374 . S
C3172 C3169 1.499 . S
C3172 C3173 1.373 . S
C3172 C3174 1.389 . S
C3173 H3152 0.950 . S
C3173 C3172 1.373 . S
C3173 C3189 1.377 . S
C3174 C3172 1.389 . S
C3174 C3175 1.524 . S
C3174 C3188 1.377 . S
C3175 C3174 1.524 . S
C3175 C3176 1.397 . S
C3175 C3180 1.363 . S
C3176 H3153 0.950 . S
C3176 C3175 1.397 . S
C3176 C3177 1.334 . S
C3177 H3154 0.950 . S
C3177 C3176 1.334 . S
C3177 C3178 1.287 . S
C3178 C3177 1.287 . S
C3178 C3179 1.524 . S
C3178 H3197 0.913 . S
C3179 H3155 0.950 . S
C3179 C3178 1.524 . S
C3179 C3180 1.415 . S
C3180 H3156 0.950 . S
C3180 C3175 1.363 . S
C3180 C3179 1.415 . S
C3181 H3157 0.951 . S
C3181 C3182 1.366 . S
C3181 C3183 1.388 . S
C3182 C3181 1.366 . S
C3182 C3186 1.385 . S
C3183 H3158 0.951 . S
C3183 C3181 1.388 . S
C3183 C3184 1.366 . S
C3184 C3183 1.366 . S
C3184 C3185 1.414 . S
C3184 C3187 1.499 . S
C3185 H3159 0.950 . S
C3185 C3184 1.414 . S
C3185 C3186 1.374 . S
C3186 H3160 0.950 . S
C3186 C3182 1.385 . S
C3186 C3185 1.374 . S
C3187 C3184 1.499 . S
C3187 C3188 1.373 . S
C3187 C3189 1.389 . S
C3188 H3161 0.950 . S
C3188 C3174 1.377 . S
C3188 C3187 1.373 . S
C3189 C3173 1.377 . S
C3189 C3187 1.389 . S
C3189 C3190 1.524 . S
C3190 C3189 1.524 . S
C3190 C3191 1.397 . S
C3190 C3195 1.363 . S
C3191 H3162 0.950 . S
C3191 C3190 1.397 . S
C3191 C3192 1.334 . S
C3192 H3163 0.950 . S
C3192 C3191 1.334 . S
C3192 C3193 1.287 . S
C3193 C3192 1.287 . S
C3193 C3194 1.524 . S
C3193 H3196 0.999 . S
C3194 H3164 0.950 . S
C3194 C3193 1.524 . S
C3194 C3195 1.415 . S
C3195 H3165 0.950 . S
C3195 C3190 1.363 . S
C3195 C3194 1.415 . S
H3196 C3193 0.999 . S
H3197 C3178 0.913 . S
H3198 C3216 0.951 . S
H3199 C3218 0.951 . S
H3200 C3220 0.950 . S
H3201 C3221 0.950 . S
H3202 C3223 0.950 . S
H3203 C3226 0.950 . S
H3204 C3227 0.950 . S
H3205 C3229 0.950 . S
H3206 C3230 0.950 . S
H3207 C3231 0.951 . S
H3208 C3233 0.951 . S
H3209 C3235 0.950 . S
H3210 C3236 0.950 . S
H3211 C3238 0.950 . S
H3212 C3241 0.950 . S
H3213 C3242 0.950 . S
H3214 C3244 0.950 . S
H3215 C3245 0.950 . S
C3216 H3198 0.951 . S
C3216 C3217 1.366 . S
C3216 C3218 1.388 . S
C3217 C3216 1.366 . S
C3217 C3221 1.385 . S
C3218 H3199 0.951 . S
C3218 C3216 1.388 . S
C3218 C3219 1.366 . S
C3219 C3218 1.366 . S
C3219 C3220 1.414 . S
C3219 C3222 1.499 . S
C3220 H3200 0.950 . S
C3220 C3219 1.414 . S
C3220 C3221 1.374 . S
C3221 H3201 0.950 . S
C3221 C3217 1.385 . S
C3221 C3220 1.374 . S
C3222 C3219 1.499 . S
C3222 C3223 1.373 . S
C3222 C3224 1.389 . S
C3223 H3202 0.950 . S
C3223 C3222 1.373 . S
C3223 C3239 1.377 . S
C3224 C3222 1.389 . S
C3224 C3225 1.524 . S
C3224 C3238 1.377 . S
C3225 C3224 1.524 . S
C3225 C3226 1.397 . S
C3225 C3230 1.363 . S
C3226 H3203 0.950 . S
C3226 C3225 1.397 . S
C3226 C3227 1.334 . S
C3227 H3204 0.950 . S
C3227 C3226 1.334 . S
C3227 C3228 1.287 . S
C3228 C3227 1.287 . S
C3228 C3229 1.524 . S
C3228 H3247 0.913 . S
C3229 H3205 0.950 . S
C3229 C3228 1.524 . S
C3229 C3230 1.415 . S
C3230 H3206 0.950 . S
C3230 C3225 1.363 . S
C3230 C3229 1.415 . S
C3231 H3207 0.951 . S
C3231 C3232 1.366 . S
C3231 C3233 1.388 . S
C3232 C3231 1.366 . S
C3232 C3236 1.385 . S
C3233 H3208 0.951 . S
C3233 C3231 1.388 . S
C3233 C3234 1.366 . S
C3234 C3233 1.366 . S
C3234 C3235 1.414 . S
C3234 C3237 1.499 . S
C3235 H3209 0.950 . S
C3235 C3234 1.414 . S
C3235 C3236 1.374 . S
C3236 H3210 0.950 . S
C3236 C3232 1.385 . S
C3236 C3235 1.374 . S
C3237 C3234 1.499 . S
C3237 C3238 1.373 . S
C3237 C3239 1.389 . S
C3238 H3211 0.950 . S
C3238 C3224 1.377 . S
C3238 C3237 1.373 . S
C3239 C3223 1.377 . S
C3239 C3237 1.389 . S
C3239 C3240 1.524 . S
C3240 C3239 1.524 . S
C3240 C3241 1.397 . S
C3240 C3245 1.363 . S
C3241 H3212 0.950 . S
C3241 C3240 1.397 . S
C3241 C3242 1.334 . S
C3242 H3213 0.950 . S
C3242 C3241 1.334 . S
C3242 C3243 1.287 . S
C3243 C3242 1.287 . S
C3243 C3244 1.524 . S
C3243 H3246 0.999 . S
C3244 H3214 0.950 . S
C3244 C3243 1.524 . S
C3244 C3245 1.415 . S
C3245 H3215 0.950 . S
C3245 C3240 1.363 . S
C3245 C3244 1.415 . S
H3246 C3243 0.999 . S
H3247 C3228 0.913 . S
H3248 C3266 0.951 . S
H3249 C3268 0.951 . S
H3250 C3270 0.950 . S
H3251 C3271 0.950 . S
H3252 C3273 0.950 . S
H3253 C3276 0.950 . S
H3254 C3277 0.950 . S
H3255 C3279 0.950 . S
H3256 C3280 0.950 . S
H3257 C3281 0.951 . S
H3258 C3283 0.951 . S
H3259 C3285 0.950 . S
H3260 C3286 0.950 . S
H3261 C3288 0.950 . S
H3262 C3291 0.953 1_554 S
H3263 C3292 0.950 . S
H3264 C3294 0.950 . S
H3265 C3295 0.950 . S
C3266 H3248 0.951 . S
C3266 C3267 1.366 . S
C3266 C3268 1.388 . S
C3267 C3266 1.366 . S
C3267 C3271 1.385 . S
C3268 H3249 0.951 . S
C3268 C3266 1.388 . S
C3268 C3269 1.366 . S
C3269 C3268 1.366 . S
C3269 C3270 1.414 . S
C3269 C3272 1.499 . S
C3270 H3250 0.950 . S
C3270 C3269 1.414 . S
C3270 C3271 1.374 . S
C3271 H3251 0.950 . S
C3271 C3267 1.385 . S
C3271 C3270 1.374 . S
C3272 C3269 1.499 . S
C3272 C3273 1.373 . S
C3272 C3274 1.389 . S
C3273 H3252 0.950 . S
C3273 C3272 1.373 . S
C3273 C3289 1.377 . S
C3274 C3272 1.389 . S
C3274 C3275 1.524 . S
C3274 C3288 1.377 . S
C3275 C3274 1.524 . S
C3275 C3276 1.397 . S
C3275 C3280 1.363 . S
C3276 H3253 0.950 . S
C3276 C3275 1.397 . S
C3276 C3277 1.334 . S
C3277 H3254 0.950 . S
C3277 C3276 1.334 . S
C3277 C3278 1.287 . S
C3278 C3277 1.287 . S
C3278 C3279 1.524 . S
C3278 H3297 0.913 . S
C3279 H3255 0.950 . S
C3279 C3278 1.524 . S
C3279 C3280 1.415 . S
C3280 H3256 0.950 . S
C3280 C3275 1.363 . S
C3280 C3279 1.415 . S
C3281 H3257 0.951 . S
C3281 C3282 1.366 . S
C3281 C3283 1.388 . S
C3282 C3281 1.366 . S
C3282 C3286 1.385 . S
C3283 H3258 0.951 . S
C3283 C3281 1.388 . S
C3283 C3284 1.366 . S
C3284 C3283 1.366 . S
C3284 C3285 1.414 . S
C3284 C3287 1.499 . S
C3285 H3259 0.950 . S
C3285 C3284 1.414 . S
C3285 C3286 1.374 . S
C3286 H3260 0.950 . S
C3286 C3282 1.385 . S
C3286 C3285 1.374 . S
C3287 C3284 1.499 . S
C3287 C3288 1.373 . S
C3287 C3289 1.389 . S
C3288 H3261 0.950 . S
C3288 C3274 1.377 . S
C3288 C3287 1.373 . S
C3289 C3273 1.377 . S
C3289 C3287 1.389 . S
C3289 C3290 1.524 . S
C3290 C3289 1.524 . S
C3290 C3291 1.391 . S
C3290 C3295 1.363 . S
C3291 H3262 0.953 1_556 S
C3291 C3290 1.391 . S
C3291 C3292 1.336 1_556 S
C3292 H3263 0.950 . S
C3292 C3291 1.336 1_554 S
C3292 C3293 1.287 1_554 S
C3293 C3292 1.287 1_556 S
C3293 C3294 1.524 . S
C3293 H3296 0.981 1_556 S
C3294 H3264 0.950 . S
C3294 C3293 1.524 . S
C3294 C3295 1.415 . S
C3295 H3265 0.950 . S
C3295 C3290 1.363 . S
C3295 C3294 1.415 . S
H3296 C3293 0.981 1_554 S
H3297 C3278 0.913 . S
H3298 C3316 0.951 . S
H3299 C3318 0.951 . S
H3300 C3320 0.950 . S
H3301 C3321 0.950 . S
H3302 C3323 0.950 . S
H3303 C3326 0.950 . S
H3304 C3327 0.950 . S
H3305 C3329 0.950 . S
H3306 C3330 0.950 . S
H3307 C3331 0.951 . S
H3308 C3333 0.951 . S
H3309 C3335 0.950 . S
H3310 C3336 0.950 . S
H3311 C3338 0.950 . S
H3312 C3341 0.950 . S
H3313 C3342 0.950 . S
H3314 C3344 0.950 . S
H3315 C3345 0.950 . S
C3316 H3298 0.951 . S
C3316 C3317 1.366 . S
C3316 C3318 1.388 . S
C3317 C3316 1.366 . S
C3317 C3321 1.385 . S
C3318 H3299 0.951 . S
C3318 C3316 1.388 . S
C3318 C3319 1.366 . S
C3319 C3318 1.366 . S
C3319 C3320 1.414 . S
C3319 C3322 1.499 . S
C3320 H3300 0.950 . S
C3320 C3319 1.414 . S
C3320 C3321 1.374 . S
C3321 H3301 0.950 . S
C3321 C3317 1.385 . S
C3321 C3320 1.374 . S
C3322 C3319 1.499 . S
C3322 C3323 1.373 . S
C3322 C3324 1.389 . S
C3323 H3302 0.950 . S
C3323 C3322 1.373 . S
C3323 C3339 1.377 . S
C3324 C3322 1.389 . S
C3324 C3325 1.524 . S
C3324 C3338 1.377 . S
C3325 C3324 1.524 . S
C3325 C3326 1.397 . S
C3325 C3330 1.363 . S
C3326 H3303 0.950 . S
C3326 C3325 1.397 . S
C3326 C3327 1.334 . S
C3327 H3304 0.950 . S
C3327 C3326 1.334 . S
C3327 C3328 1.287 . S
C3328 C3327 1.287 . S
C3328 C3329 1.524 . S
C3328 H3347 0.913 . S
C3329 H3305 0.950 . S
C3329 C3328 1.524 . S
C3329 C3330 1.415 . S
C3330 H3306 0.950 . S
C3330 C3325 1.363 . S
C3330 C3329 1.415 . S
C3331 H3307 0.951 . S
C3331 C3332 1.366 . S
C3331 C3333 1.388 . S
C3332 C3331 1.366 . S
C3332 C3336 1.385 . S
C3333 H3308 0.951 . S
C3333 C3331 1.388 . S
C3333 C3334 1.366 . S
C3334 C3333 1.366 . S
C3334 C3335 1.414 . S
C3334 C3337 1.499 . S
C3335 H3309 0.950 . S
C3335 C3334 1.414 . S
C3335 C3336 1.374 . S
C3336 H3310 0.950 . S
C3336 C3332 1.385 . S
C3336 C3335 1.374 . S
C3337 C3334 1.499 . S
C3337 C3338 1.373 . S
C3337 C3339 1.389 . S
C3338 H3311 0.950 . S
C3338 C3324 1.377 . S
C3338 C3337 1.373 . S
C3339 C3323 1.377 . S
C3339 C3337 1.389 . S
C3339 C3340 1.524 . S
C3340 C3339 1.524 . S
C3340 C3341 1.397 . S
C3340 C3345 1.363 . S
C3341 H3312 0.950 . S
C3341 C3340 1.397 . S
C3341 C3342 1.334 . S
C3342 H3313 0.950 . S
C3342 C3341 1.334 . S
C3342 C3343 1.287 . S
C3343 C3342 1.287 . S
C3343 C3344 1.524 . S
C3343 H3346 0.999 . S
C3344 H3314 0.950 . S
C3344 C3343 1.524 . S
C3344 C3345 1.415 . S
C3345 H3315 0.950 . S
C3345 C3340 1.363 . S
C3345 C3344 1.415 . S
H3346 C3343 0.999 . S
H3347 C3328 0.913 . S
H3348 C3366 0.976 . S
H3349 C3368 0.960 . S
H3350 C3370 0.950 . S
H3351 C3371 0.950 . S
H3352 C3373 0.950 . S
H3353 C3376 0.950 1_554 S
H3354 C3377 0.950 . S
H3355 C3379 0.950 . S
H3356 C3380 0.950 . S
H3357 C3381 0.951 . S
H3358 C3383 0.951 . S
H3359 C3385 0.952 . S
H3360 C3386 0.964 . S
H3361 C3388 0.950 1_556 S
H3362 C3391 0.950 . S
H3363 C3392 0.950 . S
H3364 C3394 0.950 . S
H3365 C3395 0.950 . S
C3366 H3348 0.976 . S
C3366 C3367 1.366 . S
C3366 C3368 1.388 . S
C3367 C3366 1.366 . S
C3367 C3371 1.385 . S
C3368 H3349 0.960 . S
C3368 C3366 1.388 . S
C3368 C3369 1.366 . S
C3369 C3368 1.366 . S
C3369 C3370 1.414 . S
C3369 C3372 1.499 . S
C3370 H3350 0.950 . S
C3370 C3369 1.414 . S
C3370 C3371 1.374 . S
C3371 H3351 0.950 . S
C3371 C3367 1.385 . S
C3371 C3370 1.374 . S
C3372 C3369 1.499 . S
C3372 C3373 1.373 . S
C3372 C3374 1.389 . S
C3373 H3352 0.950 . S
C3373 C3372 1.373 . S
C3373 C3389 1.377 . S
C3374 C3372 1.389 . S
C3374 C3375 1.524 1_554 S
C3374 C3388 1.377 . S
C3375 C3374 1.524 1_556 S
C3375 C3376 1.397 . S
C3375 C3380 1.363 . S
C3376 H3353 0.950 1_556 S
C3376 C3375 1.397 . S
C3376 C3377 1.334 . S
C3377 H3354 0.950 . S
C3377 C3376 1.334 . S
C3377 C3378 1.287 . S
C3378 C3377 1.287 . S
C3378 C3379 1.524 . S
C3378 H3397 0.913 . S
C3379 H3355 0.950 . S
C3379 C3378 1.524 . S
C3379 C3380 1.415 . S
C3380 H3356 0.950 . S
C3380 C3375 1.363 . S
C3380 C3379 1.415 . S
C3381 H3357 0.951 . S
C3381 C3382 1.366 . S
C3381 C3383 1.388 . S
C3382 C3381 1.366 . S
C3382 C3386 1.385 . S
C3383 H3358 0.951 . S
C3383 C3381 1.388 . S
C3383 C3384 1.366 . S
C3384 C3383 1.366 . S
C3384 C3385 1.414 . S
C3384 C3387 1.499 . S
C3385 H3359 0.952 . S
C3385 C3384 1.414 . S
C3385 C3386 1.374 . S
C3386 H3360 0.964 . S
C3386 C3382 1.385 . S
C3386 C3385 1.374 . S
C3387 C3384 1.499 . S
C3387 C3388 1.373 . S
C3387 C3389 1.389 . S
C3388 H3361 0.950 1_554 S
C3388 C3374 1.377 . S
C3388 C3387 1.373 . S
C3389 C3373 1.377 . S
C3389 C3387 1.389 . S
C3389 C3390 1.524 . S
C3390 C3389 1.524 . S
C3390 C3391 1.397 . S
C3390 C3395 1.363 . S
C3391 H3362 0.950 . S
C3391 C3390 1.397 . S
C3391 C3392 1.334 . S
C3392 H3363 0.950 . S
C3392 C3391 1.334 . S
C3392 C3393 1.287 . S
C3393 C3392 1.287 . S
C3393 C3394 1.524 . S
C3393 H3396 0.999 . S
C3394 H3364 0.950 . S
C3394 C3393 1.524 . S
C3394 C3395 1.415 . S
C3395 H3365 0.950 . S
C3395 C3390 1.363 . S
C3395 C3394 1.415 . S
H3396 C3393 0.999 . S
H3397 C3378 0.913 . S
H3398 C3416 0.951 . S
H3399 C3418 0.951 . S
H3400 C3420 0.950 . S
H3401 C3421 0.950 . S
H3402 C3423 0.950 . S
H3403 C3426 0.950 . S
H3404 C3427 0.950 . S
H3405 C3429 0.950 . S
H3406 C3430 0.950 . S
H3407 C3431 0.951 . S
H3408 C3433 0.951 . S
H3409 C3435 0.950 . S
H3410 C3436 0.950 . S
H3411 C3438 0.950 . S
H3412 C3441 0.950 . S
H3413 C3442 0.950 . S
H3414 C3444 0.950 . S
H3415 C3445 0.950 . S
C3416 H3398 0.951 . S
C3416 C3417 1.366 . S
C3416 C3418 1.388 . S
C3417 C3416 1.366 . S
C3417 C3421 1.385 . S
C3418 H3399 0.951 . S
C3418 C3416 1.388 . S
C3418 C3419 1.366 . S
C3419 C3418 1.366 . S
C3419 C3420 1.414 . S
C3419 C3422 1.499 . S
C3420 H3400 0.950 . S
C3420 C3419 1.414 . S
C3420 C3421 1.374 . S
C3421 H3401 0.950 . S
C3421 C3417 1.385 . S
C3421 C3420 1.374 . S
C3422 C3419 1.499 . S
C3422 C3423 1.373 . S
C3422 C3424 1.389 . S
C3423 H3402 0.950 . S
C3423 C3422 1.373 . S
C3423 C3439 1.377 . S
C3424 C3422 1.389 . S
C3424 C3425 1.524 . S
C3424 C3438 1.377 . S
C3425 C3424 1.524 . S
C3425 C3426 1.397 . S
C3425 C3430 1.363 . S
C3426 H3403 0.950 . S
C3426 C3425 1.397 . S
C3426 C3427 1.334 . S
C3427 H3404 0.950 . S
C3427 C3426 1.334 . S
C3427 C3428 1.287 . S
C3428 C3427 1.287 . S
C3428 C3429 1.524 . S
C3428 H3447 0.913 . S
C3429 H3405 0.950 . S
C3429 C3428 1.524 . S
C3429 C3430 1.415 . S
C3430 H3406 0.950 . S
C3430 C3425 1.363 . S
C3430 C3429 1.415 . S
C3431 H3407 0.951 . S
C3431 C3432 1.366 . S
C3431 C3433 1.388 . S
C3432 C3431 1.366 . S
C3432 C3436 1.385 . S
C3433 H3408 0.951 . S
C3433 C3431 1.388 . S
C3433 C3434 1.366 . S
C3434 C3433 1.366 . S
C3434 C3435 1.414 . S
C3434 C3437 1.499 . S
C3435 H3409 0.950 . S
C3435 C3434 1.414 . S
C3435 C3436 1.374 . S
C3436 H3410 0.950 . S
C3436 C3432 1.385 . S
C3436 C3435 1.374 . S
C3437 C3434 1.499 . S
C3437 C3438 1.373 . S
C3437 C3439 1.389 . S
C3438 H3411 0.950 . S
C3438 C3424 1.377 . S
C3438 C3437 1.373 . S
C3439 C3423 1.377 . S
C3439 C3437 1.389 . S
C3439 C3440 1.524 . S
C3440 C3439 1.524 . S
C3440 C3441 1.397 . S
C3440 C3445 1.363 . S
C3441 H3412 0.950 . S
C3441 C3440 1.397 . S
C3441 C3442 1.334 . S
C3442 H3413 0.950 . S
C3442 C3441 1.334 . S
C3442 C3443 1.287 . S
C3443 C3442 1.287 . S
C3443 C3444 1.524 . S
C3443 H3446 0.999 . S
C3444 H3414 0.950 . S
C3444 C3443 1.524 . S
C3444 C3445 1.415 . S
C3445 H3415 0.950 . S
C3445 C3440 1.363 . S
C3445 C3444 1.415 . S
H3446 C3443 0.999 . S
H3447 C3428 0.913 . S
H3448 C3466 0.951 . S
H3449 C3468 0.951 . S
H3450 C3470 0.950 . S
H3451 C3471 0.950 . S
H3452 C3473 0.950 . S
H3453 C3476 0.950 . S
H3454 C3477 0.950 . S
H3455 C3479 0.950 . S
H3456 C3480 0.950 . S
H3457 C3481 0.951 . S
H3458 C3483 0.951 . S
H3459 C3485 0.950 . S
H3460 C3486 0.950 . S
H3461 C3488 0.950 . S
H3462 C3491 0.950 . S
H3463 C3492 0.950 . S
H3464 C3494 0.950 . S
H3465 C3495 0.950 . S
C3466 H3448 0.951 . S
C3466 C3467 1.366 . S
C3466 C3468 1.388 . S
C3467 C3466 1.366 . S
C3467 C3471 1.385 . S
C3468 H3449 0.951 . S
C3468 C3466 1.388 . S
C3468 C3469 1.366 . S
C3469 C3468 1.366 . S
C3469 C3470 1.414 . S
C3469 C3472 1.499 . S
C3470 H3450 0.950 . S
C3470 C3469 1.414 . S
C3470 C3471 1.374 . S
C3471 H3451 0.950 . S
C3471 C3467 1.385 . S
C3471 C3470 1.374 . S
C3472 C3469 1.499 . S
C3472 C3473 1.373 . S
C3472 C3474 1.389 . S
C3473 H3452 0.950 . S
C3473 C3472 1.373 . S
C3473 C3489 1.377 1_655 S
C3474 C3472 1.389 . S
C3474 C3475 1.524 . S
C3474 C3488 1.377 1_655 S
C3475 C3474 1.524 . S
C3475 C3476 1.397 . S
C3475 C3480 1.363 . S
C3476 H3453 0.950 . S
C3476 C3475 1.397 . S
C3476 C3477 1.334 . S
C3477 H3454 0.950 . S
C3477 C3476 1.334 . S
C3477 C3478 1.287 . S
C3478 C3477 1.287 . S
C3478 C3479 1.524 . S
C3478 H3497 0.913 . S
C3479 H3455 0.950 . S
C3479 C3478 1.524 . S
C3479 C3480 1.415 . S
C3480 H3456 0.950 . S
C3480 C3475 1.363 . S
C3480 C3479 1.415 . S
C3481 H3457 0.951 . S
C3481 C3482 1.366 . S
C3481 C3483 1.388 . S
C3482 C3481 1.366 . S
C3482 C3486 1.385 . S
C3483 H3458 0.951 . S
C3483 C3481 1.388 . S
C3483 C3484 1.366 . S
C3484 C3483 1.366 . S
C3484 C3485 1.414 . S
C3484 C3487 1.499 . S
C3485 H3459 0.950 . S
C3485 C3484 1.414 . S
C3485 C3486 1.374 . S
C3486 H3460 0.950 . S
C3486 C3482 1.385 . S
C3486 C3485 1.374 . S
C3487 C3484 1.499 . S
C3487 C3488 1.373 . S
C3487 C3489 1.389 . S
C3488 H3461 0.950 . S
C3488 C3474 1.377 1_455 S
C3488 C3487 1.373 . S
C3489 C3473 1.377 1_455 S
C3489 C3487 1.389 . S
C3489 C3490 1.524 . S
C3490 C3489 1.524 . S
C3490 C3491 1.397 . S
C3490 C3495 1.363 . S
C3491 H3462 0.950 . S
C3491 C3490 1.397 . S
C3491 C3492 1.334 . S
C3492 H3463 0.950 . S
C3492 C3491 1.334 . S
C3492 C3493 1.287 . S
C3493 C3492 1.287 . S
C3493 C3494 1.524 . S
C3493 H3496 0.999 . S
C3494 H3464 0.950 . S
C3494 C3493 1.524 . S
C3494 C3495 1.415 . S
C3495 H3465 0.950 . S
C3495 C3490 1.363 . S
C3495 C3494 1.415 . S
H3496 C3493 0.999 . S
H3497 C3478 0.913 . S
H3498 C3516 0.951 . S
H3499 C3518 0.951 . S
H3500 C3520 0.950 . S
H3501 C3521 0.950 . S
H3502 C3523 0.950 . S
H3503 C3526 0.950 . S
H3504 C3527 0.950 . S
H3505 C3529 0.950 . S
H3506 C3530 0.950 . S
H3507 C3531 0.951 . S
H3508 C3533 0.951 . S
H3509 C3535 0.950 . S
H3510 C3536 0.950 . S
H3511 C3538 0.950 . S
H3512 C3541 0.950 . S
H3513 C3542 0.950 . S
H3514 C3544 0.950 . S
H3515 C3545 0.950 . S
C3516 H3498 0.951 . S
C3516 C3517 1.366 . S
C3516 C3518 1.388 . S
C3517 C3516 1.366 . S
C3517 C3521 1.385 . S
C3518 H3499 0.951 . S
C3518 C3516 1.388 . S
C3518 C3519 1.366 . S
C3519 C3518 1.366 . S
C3519 C3520 1.414 . S
C3519 C3522 1.499 . S
C3520 H3500 0.950 . S
C3520 C3519 1.414 . S
C3520 C3521 1.374 . S
C3521 H3501 0.950 . S
C3521 C3517 1.385 . S
C3521 C3520 1.374 . S
C3522 C3519 1.499 . S
C3522 C3523 1.373 . S
C3522 C3524 1.389 . S
C3523 H3502 0.950 . S
C3523 C3522 1.373 . S
C3523 C3539 1.377 . S
C3524 C3522 1.389 . S
C3524 C3525 1.524 . S
C3524 C3538 1.377 . S
C3525 C3524 1.524 . S
C3525 C3526 1.397 . S
C3525 C3530 1.363 . S
C3526 H3503 0.950 . S
C3526 C3525 1.397 . S
C3526 C3527 1.334 . S
C3527 H3504 0.950 . S
C3527 C3526 1.334 . S
C3527 C3528 1.287 . S
C3528 C3527 1.287 . S
C3528 C3529 1.524 . S
C3528 H3547 0.913 . S
C3529 H3505 0.950 . S
C3529 C3528 1.524 . S
C3529 C3530 1.415 . S
C3530 H3506 0.950 . S
C3530 C3525 1.363 . S
C3530 C3529 1.415 . S
C3531 H3507 0.951 . S
C3531 C3532 1.366 . S
C3531 C3533 1.388 . S
C3532 C3531 1.366 . S
C3532 C3536 1.385 . S
C3533 H3508 0.951 . S
C3533 C3531 1.388 . S
C3533 C3534 1.366 . S
C3534 C3533 1.366 . S
C3534 C3535 1.414 . S
C3534 C3537 1.499 . S
C3535 H3509 0.950 . S
C3535 C3534 1.414 . S
C3535 C3536 1.374 . S
C3536 H3510 0.950 . S
C3536 C3532 1.385 . S
C3536 C3535 1.374 . S
C3537 C3534 1.499 . S
C3537 C3538 1.373 . S
C3537 C3539 1.389 . S
C3538 H3511 0.950 . S
C3538 C3524 1.377 . S
C3538 C3537 1.373 . S
C3539 C3523 1.377 . S
C3539 C3537 1.389 . S
C3539 C3540 1.524 . S
C3540 C3539 1.524 . S
C3540 C3541 1.397 . S
C3540 C3545 1.363 . S
C3541 H3512 0.950 . S
C3541 C3540 1.397 . S
C3541 C3542 1.334 . S
C3542 H3513 0.950 . S
C3542 C3541 1.334 . S
C3542 C3543 1.287 . S
C3543 C3542 1.287 . S
C3543 C3544 1.524 . S
C3543 H3546 0.999 . S
C3544 H3514 0.950 . S
C3544 C3543 1.524 . S
C3544 C3545 1.415 . S
C3545 H3515 0.950 . S
C3545 C3540 1.363 . S
C3545 C3544 1.415 . S
H3546 C3543 0.999 . S
H3547 C3528 0.913 . S
H3548 C3566 0.951 . S
H3549 C3568 0.951 . S
H3550 C3570 0.950 . S
H3551 C3571 0.950 . S
H3552 C3573 0.950 . S
H3553 C3576 0.950 . S
H3554 C3577 0.950 . S
H3555 C3579 0.950 . S
H3556 C3580 0.950 . S
H3557 C3581 0.951 . S
H3558 C3583 0.951 . S
H3559 C3585 0.950 . S
H3560 C3586 0.950 . S
H3561 C3588 0.950 . S
H3562 C3591 0.950 . S
H3563 C3592 0.950 . S
H3564 C3594 0.950 . S
H3565 C3595 0.950 . S
C3566 H3548 0.951 . S
C3566 C3567 1.366 . S
C3566 C3568 1.388 . S
C3567 C3566 1.366 . S
C3567 C3571 1.385 . S
C3568 H3549 0.951 . S
C3568 C3566 1.388 . S
C3568 C3569 1.366 . S
C3569 C3568 1.366 . S
C3569 C3570 1.414 . S
C3569 C3572 1.499 . S
C3570 H3550 0.950 . S
C3570 C3569 1.414 . S
C3570 C3571 1.374 . S
C3571 H3551 0.950 . S
C3571 C3567 1.385 . S
C3571 C3570 1.374 . S
C3572 C3569 1.499 . S
C3572 C3573 1.373 . S
C3572 C3574 1.389 . S
C3573 H3552 0.950 . S
C3573 C3572 1.373 . S
C3573 C3589 1.377 . S
C3574 C3572 1.389 . S
C3574 C3575 1.524 . S
C3574 C3588 1.377 . S
C3575 C3574 1.524 . S
C3575 C3576 1.397 . S
C3575 C3580 1.363 . S
C3576 H3553 0.950 . S
C3576 C3575 1.397 . S
C3576 C3577 1.334 . S
C3577 H3554 0.950 . S
C3577 C3576 1.334 . S
C3577 C3578 1.287 . S
C3578 C3577 1.287 . S
C3578 C3579 1.524 . S
C3578 H3597 0.913 . S
C3579 H3555 0.950 . S
C3579 C3578 1.524 . S
C3579 C3580 1.415 . S
C3580 H3556 0.950 . S
C3580 C3575 1.363 . S
C3580 C3579 1.415 . S
C3581 H3557 0.951 . S
C3581 C3582 1.366 . S
C3581 C3583 1.388 . S
C3582 C3581 1.366 . S
C3582 C3586 1.385 . S
C3583 H3558 0.951 . S
C3583 C3581 1.388 . S
C3583 C3584 1.366 . S
C3584 C3583 1.366 . S
C3584 C3585 1.414 . S
C3584 C3587 1.499 . S
C3585 H3559 0.950 . S
C3585 C3584 1.414 . S
C3585 C3586 1.374 . S
C3586 H3560 0.950 . S
C3586 C3582 1.385 . S
C3586 C3585 1.374 . S
C3587 C3584 1.499 . S
C3587 C3588 1.373 . S
C3587 C3589 1.389 . S
C3588 H3561 0.950 . S
C3588 C3574 1.377 . S
C3588 C3587 1.373 . S
C3589 C3573 1.377 . S
C3589 C3587 1.389 . S
C3589 C3590 1.524 . S
C3590 C3589 1.524 . S
C3590 C3591 1.397 . S
C3590 C3595 1.363 . S
C3591 H3562 0.950 . S
C3591 C3590 1.397 . S
C3591 C3592 1.334 . S
C3592 H3563 0.950 . S
C3592 C3591 1.334 . S
C3592 C3593 1.287 . S
C3593 C3592 1.287 . S
C3593 C3594 1.524 . S
C3593 H3596 0.999 . S
C3594 H3564 0.950 . S
C3594 C3593 1.524 . S
C3594 C3595 1.415 . S
C3595 H3565 0.950 . S
C3595 C3590 1.363 . S
C3595 C3594 1.415 . S
H3596 C3593 0.999 . S
H3597 C3578 0.913 . S
H3598 C3616 0.951 . S
H3599 C3618 0.951 . S
H3600 C3620 0.950 . S
H3601 C3621 0.950 . S
H3602 C3623 0.950 . S
H3603 C3626 0.950 . S
H3604 C3627 0.950 . S
H3605 C3629 0.950 . S
H3606 C3630 0.950 . S
H3607 C3631 0.951 . S
H3608 C3633 0.951 . S
H3609 C3635 0.950 . S
H3610 C3636 0.950 . S
H3611 C3638 0.950 . S
H3612 C3641 0.950 . S
H3613 C3642 0.950 . S
H3614 C3644 0.950 . S
H3615 C3645 0.950 . S
C3616 H3598 0.951 . S
C3616 C3617 1.366 . S
C3616 C3618 1.388 . S
C3617 C3616 1.366 . S
C3617 C3621 1.385 . S
C3618 H3599 0.951 . S
C3618 C3616 1.388 . S
C3618 C3619 1.366 . S
C3619 C3618 1.366 . S
C3619 C3620 1.414 . S
C3619 C3622 1.499 . S
C3620 H3600 0.950 . S
C3620 C3619 1.414 . S
C3620 C3621 1.374 . S
C3621 H3601 0.950 . S
C3621 C3617 1.385 . S
C3621 C3620 1.374 . S
C3622 C3619 1.499 . S
C3622 C3623 1.373 . S
C3622 C3624 1.389 . S
C3623 H3602 0.950 . S
C3623 C3622 1.373 . S
C3623 C3639 1.377 1_655 S
C3624 C3622 1.389 . S
C3624 C3625 1.524 . S
C3624 C3638 1.377 1_655 S
C3625 C3624 1.524 . S
C3625 C3626 1.397 . S
C3625 C3630 1.363 . S
C3626 H3603 0.950 . S
C3626 C3625 1.397 . S
C3626 C3627 1.334 . S
C3627 H3604 0.950 . S
C3627 C3626 1.334 . S
C3627 C3628 1.287 . S
C3628 C3627 1.287 . S
C3628 C3629 1.524 . S
C3628 H3647 0.913 . S
C3629 H3605 0.950 . S
C3629 C3628 1.524 . S
C3629 C3630 1.415 . S
C3630 H3606 0.950 . S
C3630 C3625 1.363 . S
C3630 C3629 1.415 . S
C3631 H3607 0.951 . S
C3631 C3632 1.366 . S
C3631 C3633 1.388 . S
C3632 C3631 1.366 . S
C3632 C3636 1.385 . S
C3633 H3608 0.951 . S
C3633 C3631 1.388 . S
C3633 C3634 1.366 . S
C3634 C3633 1.366 . S
C3634 C3635 1.414 . S
C3634 C3637 1.499 . S
C3635 H3609 0.950 . S
C3635 C3634 1.414 . S
C3635 C3636 1.374 . S
C3636 H3610 0.950 . S
C3636 C3632 1.385 . S
C3636 C3635 1.374 . S
C3637 C3634 1.499 . S
C3637 C3638 1.373 . S
C3637 C3639 1.389 . S
C3638 H3611 0.950 . S
C3638 C3624 1.377 1_455 S
C3638 C3637 1.373 . S
C3639 C3623 1.377 1_455 S
C3639 C3637 1.389 . S
C3639 C3640 1.524 . S
C3640 C3639 1.524 . S
C3640 C3641 1.397 . S
C3640 C3645 1.363 . S
C3641 H3612 0.950 . S
C3641 C3640 1.397 . S
C3641 C3642 1.334 . S
C3642 H3613 0.950 . S
C3642 C3641 1.334 . S
C3642 C3643 1.287 . S
C3643 C3642 1.287 . S
C3643 C3644 1.524 . S
C3643 H3646 0.999 . S
C3644 H3614 0.950 . S
C3644 C3643 1.524 . S
C3644 C3645 1.415 . S
C3645 H3615 0.950 . S
C3645 C3640 1.363 . S
C3645 C3644 1.415 . S
H3646 C3643 0.999 . S
H3647 C3628 0.913 . S
C467 C325 1.685 . S
C482 C3 1.684 . S
C517 C283 1.684 . S
C532 C17 1.685 . S
C567 C297 1.685 . S
C582 C31 1.685 . S
C617 C311 1.685 . S
C632 C45 1.685 . S
C667 C59 1.684 . S
C682 C241 1.684 . S
C717 C255 1.684 . S
C732 C73 1.684 . S
C767 C87 1.684 . S
C782 C269 1.684 . S
C817 C101 1.684 . S
C832 C227 1.684 . S
C867 C437 1.684 . S
C882 C115 1.684 . S
C917 C129 1.685 . S
C932 C395 1.684 . S
C967 C143 1.684 . S
C982 C409 1.685 . S
C1017 C157 1.685 . S
C1032 C423 1.684 . S
C1067 C171 1.685 . S
C1082 C353 1.685 . S
C1117 C185 1.685 . S
C1132 C367 1.685 . S
C1167 C199 1.684 . S
C1182 C381 1.685 . S
C1217 C213 1.685 . S
C1232 C339 1.684 . S
C1267 C7 1.179 . S
C1282 C175 1.178 . S
C1317 C413 1.179 . S
C1332 C21 1.178 . S
C1367 C35 1.179 . S
C1382 C203 1.178 . S
C1417 C441 1.178 . S
C1432 C49 1.179 . S
C1467 C119 1.179 . S
C1482 C63 1.178 . S
C1517 C77 1.179 . S
C1532 C357 1.178 . S
C1567 C91 1.179 . S
C1582 C147 1.178 . S
C1617 C105 1.178 . S
C1632 C385 1.179 . S
C1667 C301 1.178 . S
C1682 C133 1.179 . S
C1717 C329 1.179 . S
C1732 C161 1.178 . S
C1767 C189 1.178 . S
C1782 C245 1.179 . S
C1817 C273 1.179 . S
C1832 C217 1.178 . S
C1867 C399 1.180 . S
C1882 C231 1.178 . S
C1917 C259 1.178 . S
C1932 C427 1.179 . S
C1967 C343 1.179 . S
C1982 C287 1.178 . S
C2017 C371 1.179 . S
C2032 C315 1.178 . S
C2067 C64 1.101 . S
C2082 C8 1.100 . S
C2117 C78 1.100 . S
C2132 C22 1.100 . S
C2167 C36 1.100 . S
C2182 C92 1.100 . S
C2217 C50 1.100 . S
C2232 C106 1.099 . S
C2267 C176 1.100 . S
C2282 C120 1.101 . S
C2317 C190 1.099 . S
C2332 C134 1.100 . S
C2367 C204 1.100 . S
C2382 C148 1.100 . S
C2417 C162 1.100 . S
C2432 C218 1.100 . S
C2467 C232 1.100 . S
C2482 C288 1.100 . S
C2517 C246 1.100 . S
C2532 C302 1.100 . S
C2567 C260 1.100 . S
C2582 C316 1.101 . S
C2617 C274 1.100 . S
C2632 C330 1.099 . S
C2667 C400 1.100 . S
C2682 C344 1.100 . S
C2717 C414 1.100 . S
C2732 C358 1.100 . S
C2767 C428 1.100 . S
C2782 C372 1.101 . S
C2817 C442 1.100 . S
C2832 C386 1.100 . S
C2867 C429 1.509 . S
C2882 C9 1.510 . S
C2917 C23 1.510 . S
C2932 C219 1.509 . S
C2967 C401 1.509 . S
C2982 C37 1.510 . S
C3017 C51 1.509 . S
C3032 C191 1.510 . S
C3067 C373 1.510 . S
C3082 C65 1.510 . S
C3117 C79 1.509 . S
C3132 C163 1.510 . S
C3167 C93 1.509 . S
C3182 C345 1.510 . S
C3217 C135 1.509 . S
C3232 C107 1.510 . S
C3267 C121 1.510 . S
C3282 C317 1.509 . S
C3317 C289 1.509 . S
C3332 C149 1.510 . S
C3367 C177 1.510 . S
C3382 C261 1.510 . S
C3417 C205 1.510 . S
C3432 C233 1.510 . S
C3467 C443 1.510 . S
C3482 C247 1.509 . S
C3517 C275 1.510 . S
C3532 C415 1.509 . S
C3567 C303 1.509 . S
C3582 C387 1.510 . S
C3617 C359 1.509 . S
C3632 C331 1.510 . S
