# Generated by pormake.
# Topology pcl, (4)-cn, num edge types: 1
# Building blocks:
#     Node 0, Type 0, BuildingBlock: UXUYUI_clean_sbu_0, # of connection points: 4
#     Node 1, Type 0, BuildingBlock: UXUYUI_clean_sbu_0, # of connection points: 4
#     Node 2, Type 0, BuildingBlock: UXUYUI_clean_sbu_0, # of connection points: 4
#     Node 3, Type 0, BuildingBlock: UXUYUI_clean_sbu_0, # of connection points: 4
#     Node 4, Type 0, BuildingBlock: UXUYUI_clean_sbu_0, # of connection points: 4
#     Node 5, Type 0, BuildingBlock: UXUYUI_clean_sbu_0, # of connection points: 4
#     Node 6, Type 0, BuildingBlock: UXUYUI_clean_sbu_0, # of connection points: 4
#     Node 7, Type 0, BuildingBlock: UXUYUI_clean_sbu_0, # of connection points: 4
#     Node 8, Type 0, BuildingBlock: UXUYUI_clean_sbu_0, # of connection points: 4
#     Node 9, Type 0, BuildingBlock: UXUYUI_clean_sbu_0, # of connection points: 4
#     Node 10, Type 0, BuildingBlock: UXUYUI_clean_sbu_0, # of connection points: 4
#     Node 11, Type 0, BuildingBlock: UXUYUI_clean_sbu_0, # of connection points: 4
#     Node 12, Type 0, BuildingBlock: UXUYUI_clean_sbu_0, # of connection points: 4
#     Node 13, Type 0, BuildingBlock: UXUYUI_clean_sbu_0, # of connection points: 4
#     Node 14, Type 0, BuildingBlock: UXUYUI_clean_sbu_0, # of connection points: 4
#     Node 15, Type 0, BuildingBlock: UXUYUI_clean_sbu_0, # of connection points: 4
#     Edge 16, Type (0, 0), BuildingBlock: CIFDUS_clean_linker_0, # of connection points: 2
#     Edge 17, Type (0, 0), BuildingBlock: CIFDUS_clean_linker_0, # of connection points: 2
#     Edge 18, Type (0, 0), BuildingBlock: CIFDUS_clean_linker_0, # of connection points: 2
#     Edge 19, Type (0, 0), BuildingBlock: CIFDUS_clean_linker_0, # of connection points: 2
#     Edge 20, Type (0, 0), BuildingBlock: CIFDUS_clean_linker_0, # of connection points: 2
#     Edge 21, Type (0, 0), BuildingBlock: CIFDUS_clean_linker_0, # of connection points: 2
#     Edge 22, Type (0, 0), BuildingBlock: CIFDUS_clean_linker_0, # of connection points: 2
#     Edge 23, Type (0, 0), BuildingBlock: CIFDUS_clean_linker_0, # of connection points: 2
#     Edge 24, Type (0, 0), BuildingBlock: CIFDUS_clean_linker_0, # of connection points: 2
#     Edge 25, Type (0, 0), BuildingBlock: CIFDUS_clean_linker_0, # of connection points: 2
#     Edge 26, Type (0, 0), BuildingBlock: CIFDUS_clean_linker_0, # of connection points: 2
#     Edge 27, Type (0, 0), BuildingBlock: CIFDUS_clean_linker_0, # of connection points: 2
#     Edge 28, Type (0, 0), BuildingBlock: CIFDUS_clean_linker_0, # of connection points: 2
#     Edge 29, Type (0, 0), BuildingBlock: CIFDUS_clean_linker_0, # of connection points: 2
#     Edge 30, Type (0, 0), BuildingBlock: CIFDUS_clean_linker_0, # of connection points: 2
#     Edge 31, Type (0, 0), BuildingBlock: CIFDUS_clean_linker_0, # of connection points: 2
#     Edge 32, Type (0, 0), BuildingBlock: CIFDUS_clean_linker_0, # of connection points: 2
#     Edge 33, Type (0, 0), BuildingBlock: CIFDUS_clean_linker_0, # of connection points: 2
#     Edge 34, Type (0, 0), BuildingBlock: CIFDUS_clean_linker_0, # of connection points: 2
#     Edge 35, Type (0, 0), BuildingBlock: CIFDUS_clean_linker_0, # of connection points: 2
#     Edge 36, Type (0, 0), BuildingBlock: CIFDUS_clean_linker_0, # of connection points: 2
#     Edge 37, Type (0, 0), BuildingBlock: CIFDUS_clean_linker_0, # of connection points: 2
#     Edge 38, Type (0, 0), BuildingBlock: CIFDUS_clean_linker_0, # of connection points: 2
#     Edge 39, Type (0, 0), BuildingBlock: CIFDUS_clean_linker_0, # of connection points: 2
#     Edge 40, Type (0, 0), BuildingBlock: CIFDUS_clean_linker_0, # of connection points: 2
#     Edge 41, Type (0, 0), BuildingBlock: CIFDUS_clean_linker_0, # of connection points: 2
#     Edge 42, Type (0, 0), BuildingBlock: CIFDUS_clean_linker_0, # of connection points: 2
#     Edge 43, Type (0, 0), BuildingBlock: CIFDUS_clean_linker_0, # of connection points: 2
#     Edge 44, Type (0, 0), BuildingBlock: CIFDUS_clean_linker_0, # of connection points: 2
#     Edge 45, Type (0, 0), BuildingBlock: CIFDUS_clean_linker_0, # of connection points: 2
#     Edge 46, Type (0, 0), BuildingBlock: CIFDUS_clean_linker_0, # of connection points: 2
#     Edge 47, Type (0, 0), BuildingBlock: CIFDUS_clean_linker_0, # of connection points: 2
# Relax obj value: 0.133
# Max RMSD: 0.100
# Mean RMSD: 0.099
data_MOF--net-pcl--node1-UXUYUI_clean_sbu_0--edge1-CIFDUS_clean_linker_0
_symmetry_space_group_name_H-M    P1
_symmetry_Int_Tables_number       1
_symmetry_cell_setting            triclinic
loop_
_symmetry_equiv_pos_as_xyz
'x, y, z'
_cell_length_a     57.975791
_cell_length_b     67.007878
_cell_length_c     59.222701
_cell_angle_alpha  89.961872
_cell_angle_beta   90.049297
_cell_angle_gamma 90.040035
loop_
_atom_site_label
_atom_site_type_symbol
_atom_site_fract_x
_atom_site_fract_y
_atom_site_fract_z
_atom_type_partial_charge
Li0 Li 0.18371 0.37049 0.10678 0.0
Li1 Li 0.19094 0.35578 0.07127 0.0
Li2 Li 0.18558 0.39309 0.07422 0.0
Li3 Li 0.15311 0.36845 0.079 0.0
C4 C 0.2276 0.38112 0.10199 0.0
N5 N 0.26158 0.39137 0.13263 0.0
C6 C 0.2379 0.36645 0.11543 0.0
C7 C 0.23468 0.40098 0.10405 0.0
C8 C 0.255 0.37194 0.13086 0.0
C9 C 0.25187 0.40586 0.11965 0.0
C10 C 0.17374 0.32647 0.09282 0.0
C11 C 0.16808 0.29446 0.07502 0.0
N12 N 0.18522 0.28667 0.088 0.0
C13 C 0.19126 0.31812 0.10602 0.0
C14 C 0.162 0.31453 0.07722 0.0
C15 C 0.1968 0.29798 0.10334 0.0
C16 C 0.17703 0.3539 0.14975 0.0
N17 N 0.18778 0.3693 0.13913 0.0
C18 C 0.19847 0.38349 0.17476 0.0
C19 C 0.19841 0.38399 0.15114 0.0
C20 C 0.1872 0.36787 0.18613 0.0
C21 C 0.17668 0.3528 0.17326 0.0
H22 H 0.16803 0.34273 0.13998 0.0
H23 H 0.20608 0.39652 0.14248 0.0
C24 C 0.19851 0.3279 0.0359 0.0
N25 N 0.20765 0.33555 0.05519 0.0
C26 C 0.2095 0.31226 0.02465 0.0
C27 C 0.23955 0.31302 0.05293 0.0
C28 C 0.22792 0.32862 0.06366 0.0
C29 C 0.23024 0.30452 0.03324 0.0
H30 H 0.18251 0.33374 0.02938 0.0
H31 H 0.23485 0.33493 0.07899 0.0
C32 C 0.15338 0.39877 0.1175 0.0
N33 N 0.1379 0.41175 0.15906 0.0
C34 C 0.13619 0.38815 0.12889 0.0
C35 C 0.16263 0.41603 0.12717 0.0
C36 C 0.12863 0.39494 0.14992 0.0
C37 C 0.15456 0.42235 0.14821 0.0
C38 C 0.15597 0.37593 0.03523 0.0
C39 C 0.15215 0.39456 0.02527 0.0
C40 C 0.14258 0.35959 0.02858 0.0
C41 C 0.13485 0.39657 0.00898 0.0
C42 C 0.12542 0.36221 0.01227 0.0
N43 N 0.12194 0.38049 1.0029 0.0
C44 C 0.21032 0.42095 0.04737 0.0
C45 C 0.17828 0.43404 0.06728 0.0
C46 C 0.21382 0.43927 0.03656 0.0
N47 N 0.19265 0.41868 0.06222 0.0
C48 C 0.18118 0.45259 0.05694 0.0
C49 C 0.19888 0.45533 0.04102 0.0
H50 H 0.22125 0.40835 0.04342 0.0
H51 H 0.1641 0.4317 0.07882 0.0
C52 C 0.10917 0.34939 0.08106 0.0
N53 N 0.12057 0.36635 0.0752 0.0
C54 C 0.08523 0.34825 0.07871 0.0
C55 C 0.08523 0.38211 0.0646 0.0
C56 C 0.10912 0.38264 0.06737 0.0
C57 C 0.07296 0.36476 0.07034 0.0
H58 H 0.11862 0.33684 0.08782 0.0
H59 H 0.11859 0.3961 0.06338 0.0
O60 O 0.21091 0.37606 0.08667 0.0
O61 O 0.16854 0.34633 0.09473 0.0
O62 O 0.16151 0.39199 0.09725 0.0
O63 O 0.17264 0.37374 0.05144 0.0
H64 H 0.23253 0.35104 0.11423 0.0
H65 H 0.22692 0.41254 0.09382 0.0
H66 H 0.263 0.36077 0.14148 0.0
H67 H 0.25746 0.42118 0.12147 0.0
H68 H 0.15926 0.2851 0.06289 0.0
H69 H 0.20069 0.32715 0.11802 0.0
H70 H 0.14861 0.32076 0.06665 0.0
H71 H 0.21041 0.29136 0.11336 0.0
H72 H 0.20642 0.39563 0.18399 0.0
H73 H 0.16791 0.34041 0.18127 0.0
H74 H 0.20189 0.30637 0.00934 0.0
H75 H 0.25539 0.30741 0.06025 0.0
H76 H 0.12903 0.37465 0.12173 0.0
H77 H 0.17615 0.42427 0.1187 0.0
H78 H 0.11546 0.3868 0.15901 0.0
H79 H 0.16166 0.43561 0.15598 0.0
H80 H 0.16236 0.40737 0.03005 0.0
H81 H 0.14501 0.34512 0.03629 0.0
H82 H 0.13168 0.41092 1.0012 0.0
H83 H 0.11479 0.34973 0.00716 0.0
H84 H 0.2275 0.4406 0.02422 0.0
H85 H 0.16943 0.46458 0.06114 0.0
H86 H 0.07643 0.33458 0.08332 0.0
H87 H 0.0764 0.3953 0.0585 0.0
Li88 Li 0.81623 0.63945 0.60765 0.0
Li89 Li 0.81071 0.65404 0.57124 0.0
Li90 Li 0.81603 0.61652 0.57557 0.0
Li91 Li 0.84819 0.64137 0.58147 0.0
C92 C 0.77155 0.63084 0.59957 0.0
N93 N 0.73343 0.62461 0.62663 0.0
C94 C 0.76148 0.64682 0.61107 0.0
C95 C 0.76217 0.61171 0.60172 0.0
C96 C 0.74225 0.64335 0.62472 0.0
C97 C 0.74289 0.60886 0.6155 0.0
C98 C 0.82807 0.68364 0.59458 0.0
C99 C 0.83507 0.71544 0.57674 0.0
N100 N 0.82044 0.72427 0.59163 0.0
C101 C 0.81314 0.69304 0.60975 0.0
C102 C 0.8392 0.69493 0.578 0.0
C103 C 0.80952 0.71359 0.60798 0.0
C104 C 0.82362 0.65476 0.65089 0.0
N105 N 0.81048 0.64116 0.6397 0.0
C106 C 0.79422 0.62984 0.6746 0.0
C107 C 0.79615 0.62861 0.6511 0.0
C108 C 0.80745 0.6439 0.68655 0.0
C109 C 0.82232 0.65644 0.67432 0.0
H110 H 0.83563 0.66399 0.64163 0.0
H111 H 0.78665 0.61726 0.64212 0.0
C112 C 0.79999 0.67521 0.53111 0.0
N113 N 0.79516 0.67394 0.55354 0.0
C114 C 0.79002 0.69021 0.51789 0.0
C115 C 0.77013 0.70222 0.55103 0.0
C116 C 0.78013 0.68678 0.56349 0.0
C117 C 0.77516 0.70412 0.52796 0.0
H118 H 0.81174 0.66469 0.52348 0.0
H119 H 0.77617 0.68528 0.58121 0.0
C120 C 0.8448 0.61099 0.62066 0.0
N121 N 0.8554 0.59781 0.66362 0.0
C122 C 0.86278 0.61987 0.63275 0.0
C123 C 0.83229 0.59533 0.63033 0.0
C124 C 0.86785 0.61301 0.65447 0.0
C125 C 0.83791 0.5889 0.65209 0.0
C126 C 0.84748 0.63353 0.53763 0.0
C127 C 0.85372 0.61461 0.52984 0.0
C128 C 0.85911 0.65037 0.52959 0.0
C129 C 0.8717 0.61284 0.51428 0.0
C130 C 0.87702 0.64798 0.51407 0.0
N131 N 0.8829 0.62941 0.50681 0.0
C132 C 0.79255 0.58865 0.54782 0.0
C133 C 0.82183 0.57502 0.57113 0.0
C134 C 0.78863 0.57 0.53792 0.0
N135 N 0.80902 0.59078 0.56399 0.0
C136 C 0.8184 0.55612 0.56181 0.0
C137 C 0.80178 0.55345 0.5448 0.0
H138 H 0.78277 0.60152 0.54233 0.0
H139 H 0.83516 0.57724 0.58366 0.0
C140 C 0.89058 0.66166 0.58697 0.0
N141 N 0.88077 0.64447 0.57948 0.0
C142 C 0.91453 0.66378 0.58719 0.0
C143 C 0.91787 0.63048 0.57185 0.0
C144 C 0.89385 0.62894 0.57215 0.0
C145 C 0.92849 0.64802 0.57964 0.0
H146 H 0.87983 0.67358 0.59328 0.0
H147 H 0.88563 0.6152 0.56696 0.0
O148 O 0.79026 0.6339 0.58599 0.0
O149 O 0.83165 0.66348 0.59587 0.0
O150 O 0.83912 0.61791 0.59966 0.0
O151 O 0.83013 0.63555 0.55311 0.0
H152 H 0.76865 0.66167 0.60975 0.0
H153 H 0.76974 0.59918 0.59291 0.0
H154 H 0.73438 0.65555 0.63385 0.0
H155 H 0.73548 0.59414 0.61737 0.0
H156 H 0.84347 0.72433 0.5639 0.0
H157 H 0.80412 0.68453 0.62252 0.0
H158 H 0.85078 0.68792 0.56611 0.0
H159 H 0.79791 0.72103 0.61952 0.0
H160 H 0.78255 0.61982 0.68328 0.0
H161 H 0.83336 0.66711 0.6828 0.0
H162 H 0.7943 0.6912 0.50013 0.0
H163 H 0.75849 0.71251 0.55931 0.0
H164 H 0.87252 0.6321 0.62554 0.0
H165 H 0.81813 0.58846 0.62127 0.0
H166 H 0.88162 0.61983 0.6641 0.0
H167 H 0.82827 0.5769 0.65987 0.0
H168 H 0.84491 0.60141 0.53583 0.0
H169 H 0.85445 0.66513 0.53538 0.0
H170 H 0.87679 0.59828 0.50818 0.0
H171 H 0.88626 0.66087 0.50781 0.0
H172 H 0.77556 0.56858 0.52494 0.0
H173 H 0.82921 0.54387 0.56734 0.0
H174 H 0.92206 0.67755 0.59331 0.0
H175 H 0.92804 0.61786 0.56628 0.0
Li176 Li 0.18301 0.61854 0.93364 0.0
Li177 Li 0.15291 0.64446 0.92489 0.0
Li178 Li 0.18538 0.63957 0.89972 0.0
Li179 Li 0.19073 0.65573 0.93497 0.0
C180 C 0.15479 0.61204 0.88819 0.0
N181 N 0.14325 0.59721 0.84617 0.0
C182 C 0.13814 0.62167 0.87506 0.0
C183 C 0.16551 0.59482 0.88003 0.0
C184 C 0.13257 0.61395 0.85383 0.0
C185 C 0.15944 0.58756 0.85873 0.0
C186 C 0.15137 0.6391 0.96873 0.0
C187 C 0.12029 0.65578 0.98814 0.0
N188 N 0.11372 0.63806 0.99732 0.0
C189 C 0.14435 0.62108 0.97845 0.0
C190 C 0.13931 0.65663 0.97371 0.0
C191 C 0.12527 0.62086 0.99284 0.0
C192 C 0.20234 0.59023 0.96433 0.0
N193 N 0.18689 0.59309 0.94735 0.0
C194 C 0.17204 0.5601 0.95209 0.0
C195 C 0.17203 0.57846 0.94099 0.0
C196 C 0.1873 0.55681 0.97017 0.0
C197 C 0.2029 0.57205 0.976 0.0
H198 H 0.21371 0.60227 0.96926 0.0
H199 H 0.15961 0.58127 0.92774 0.0
C200 C 0.11006 0.66577 0.92161 0.0
N201 N 0.12035 0.64801 0.92627 0.0
C202 C 0.08604 0.66753 0.92264 0.0
C203 C 0.08379 0.63268 0.933 0.0
C204 C 0.10777 0.6316 0.93174 0.0
C205 C 0.07258 0.65081 0.92832 0.0
H206 H 0.12045 0.6785 0.9169 0.0
H207 H 0.11645 0.61764 0.93519 0.0
C208 C 0.22849 0.62735 0.90958 0.0
N209 N 0.26553 0.61437 0.88421 0.0
C210 C 0.24093 0.64085 0.89632 0.0
C211 C 0.23495 0.60726 0.91 0.0
C212 C 0.25957 0.63399 0.88358 0.0
C213 C 0.25373 0.60099 0.89705 0.0
C214 C 0.17803 0.68449 0.90945 0.0
C215 C 0.19624 0.69076 0.8957 0.0
C216 C 0.16743 0.69815 0.92394 0.0
C217 C 0.20358 0.7106 0.89672 0.0
C218 C 0.17532 0.71785 0.92451 0.0
N219 N 0.19308 0.72361 0.911 0.0
C220 C 0.18093 0.65285 0.8551 0.0
C221 C 0.20493 0.62436 0.85781 0.0
C222 C 0.18271 0.6527 0.83161 0.0
N223 N 0.19203 0.63889 0.86775 0.0
C224 C 0.20746 0.62383 0.83434 0.0
C225 C 0.19608 0.63803 0.82094 0.0
H226 H 0.17015 0.66385 0.86324 0.0
H227 H 0.21268 0.61279 0.86795 0.0
C228 C 0.19877 0.68348 0.97061 0.0
N229 N 0.20762 0.67586 0.95119 0.0
C230 C 0.21029 0.69874 0.98209 0.0
C231 C 0.24014 0.69775 0.95369 0.0
C232 C 0.22801 0.68255 0.94275 0.0
C233 C 0.23126 0.70612 0.97361 0.0
H234 H 0.1827 0.6778 0.97715 0.0
H235 H 0.23471 0.67632 0.92731 0.0
O236 O 0.16101 0.61974 0.90868 0.0
O237 O 0.16974 0.63955 0.95421 0.0
O238 O 0.21035 0.63377 0.92242 0.0
O239 O 0.17101 0.66499 0.90914 0.0
H240 H 0.12983 0.63512 0.88106 0.0
H241 H 0.17866 0.58734 0.88988 0.0
H242 H 0.11982 0.62132 0.84341 0.0
H243 H 0.1677 0.57433 0.85212 0.0
H244 H 0.11069 0.6692 0.99195 0.0
H245 H 0.15343 0.60737 0.97487 0.0
H246 H 0.14426 0.67067 0.96612 0.0
H247 H 0.11961 0.607 1.00041 0.0
H248 H 0.15991 0.54872 0.9468 0.0
H249 H 0.21478 0.57026 0.98997 0.0
H250 H 0.0781 0.68171 0.9186 0.0
H251 H 0.07416 0.61948 0.93773 0.0
H252 H 0.23601 0.65638 0.8955 0.0
H253 H 0.22556 0.59659 0.92015 0.0
H254 H 0.26924 0.64424 0.87311 0.0
H255 H 0.25888 0.58548 0.89718 0.0
H256 H 0.20482 0.68037 0.88455 0.0
H257 H 0.15351 0.69353 0.93491 0.0
H258 H 0.21772 0.71562 0.88625 0.0
H259 H 0.16738 0.72854 0.93577 0.0
H260 H 0.17364 0.66391 0.82187 0.0
H261 H 0.21755 0.61203 0.8267 0.0
H262 H 0.20298 0.70455 0.99757 0.0
H263 H 0.25611 0.70311 0.9464 0.0
Li264 Li 0.81683 0.39461 0.43356 0.0
Li265 Li 0.84997 0.37048 0.42911 0.0
Li266 Li 0.8205 0.37369 0.39998 0.0
Li267 Li 0.81149 0.35663 0.43449 0.0
C268 C 0.84997 0.40253 0.39164 0.0
N269 N 0.8646 0.41711 0.35042 0.0
C270 C 0.87015 0.3952 0.3818 0.0
C271 C 0.83728 0.41735 0.38059 0.0
C272 C 0.87725 0.40275 0.36093 0.0
C273 C 0.84496 0.42451 0.35975 0.0
C274 C 0.84273 0.37472 0.47421 0.0
C275 C 0.86598 0.35784 0.50207 0.0
N276 N 0.87132 0.37574 0.51154 0.0
C277 C 0.84827 0.39294 0.48433 0.0
C278 C 0.85149 0.357 0.48324 0.0
C279 C 0.86281 0.39315 0.50315 0.0
C280 C 0.79291 0.42115 0.46302 0.0
N281 N 0.80878 0.41973 0.4462 0.0
C282 C 0.81697 0.45461 0.4487 0.0
C283 C 0.82074 0.43596 0.43895 0.0
C284 C 0.80096 0.45656 0.46634 0.0
C285 C 0.78876 0.43954 0.47346 0.0
H286 H 0.78388 0.40792 0.46864 0.0
H287 H 0.83369 0.43433 0.42599 0.0
C288 C 0.89373 0.35213 0.42485 0.0
N289 N 0.8822 0.36756 0.43456 0.0
C290 C 0.91762 0.35053 0.42721 0.0
C291 C 0.91735 0.38065 0.44964 0.0
C292 C 0.89351 0.38182 0.44658 0.0
C293 C 0.92972 0.36495 0.43971 0.0
H294 H 0.88447 0.34134 0.41477 0.0
H295 H 0.88411 0.39438 0.45331 0.0
C296 C 0.77421 0.38002 0.40527 0.0
N297 N 0.7368 0.38478 0.37689 0.0
C298 C 0.76596 0.36384 0.39275 0.0
C299 C 0.76338 0.39858 0.40349 0.0
C300 C 0.74706 0.36657 0.37844 0.0
C301 C 0.74449 0.40068 0.38902 0.0
C302 C 0.8349 0.32888 0.41077 0.0
C303 C 0.82433 0.31898 0.39274 0.0
C304 C 0.84525 0.31782 0.42803 0.0
C305 C 0.8241 0.29813 0.39242 0.0
C306 C 0.84464 0.29699 0.4271 0.0
N307 N 0.83416 0.28766 0.40947 0.0
C308 C 0.8335 0.36218 0.35671 0.0
C309 C 0.80247 0.38514 0.35577 0.0
C310 C 0.83462 0.36201 0.3332 0.0
N311 N 0.81759 0.37357 0.36755 0.0
C312 C 0.80277 0.38522 0.33215 0.0
C313 C 0.81917 0.37369 0.32062 0.0
H314 H 0.84579 0.35358 0.36641 0.0
H315 H 0.79069 0.39484 0.36458 0.0
C316 C 0.79298 0.33475 0.4714 0.0
N317 N 0.79443 0.33545 0.4485 0.0
C318 C 0.78132 0.31908 0.48206 0.0
C319 C 0.77288 0.30513 0.4454 0.0
C320 C 0.78422 0.32127 0.43548 0.0
C321 C 0.77125 0.30378 0.46906 0.0
H322 H 0.80086 0.34639 0.48141 0.0
H323 H 0.78511 0.3223 0.41734 0.0
O324 O 0.84233 0.39484 0.41168 0.0
O325 O 0.82866 0.37423 0.45567 0.0
O326 O 0.79257 0.37768 0.41948 0.0
O327 O 0.83516 0.34929 0.41147 0.0
H328 H 0.88008 0.38363 0.39004 0.0
H329 H 0.82143 0.42298 0.38783 0.0
H330 H 0.89276 0.39713 0.35304 0.0
H331 H 0.83521 0.43585 0.35091 0.0
H332 H 0.87297 0.34424 0.50917 0.0
H333 H 0.84162 0.4068 0.47759 0.0
H334 H 0.84711 0.34276 0.47582 0.0
H335 H 0.86737 0.40716 0.51106 0.0
H336 H 0.82707 0.46725 0.443 0.0
H337 H 0.77625 0.44044 0.48699 0.0
H338 H 0.92658 0.33823 0.41924 0.0
H339 H 0.92613 0.39228 0.45901 0.0
H340 H 0.77428 0.34944 0.39382 0.0
H341 H 0.76955 0.41122 0.41314 0.0
H342 H 0.74057 0.35423 0.36852 0.0
H343 H 0.73596 0.41497 0.38741 0.0
H344 H 0.81604 0.32728 0.37933 0.0
H345 H 0.85366 0.32524 0.44198 0.0
H346 H 0.81585 0.29027 0.37865 0.0
H347 H 0.85251 0.28825 0.44039 0.0
H348 H 0.84753 0.35291 0.32493 0.0
H349 H 0.79087 0.39473 0.32303 0.0
H350 H 0.78011 0.3191 0.50029 0.0
H351 H 0.7658 0.2937 0.43451 0.0
Li352 Li 0.81539 0.64875 0.93638 0.0
Li353 Li 0.8218 0.61388 0.93315 0.0
Li354 Li 0.85471 0.63617 0.92605 0.0
Li355 Li 0.82131 0.63317 0.89936 0.0
C356 C 0.83491 0.62302 0.97457 0.0
N357 N 0.8298 0.60177 0.01425 0.0
C358 C 0.81513 0.62549 0.98777 0.0
C359 C 0.85213 0.60982 0.98161 0.0
C360 C 0.81288 0.61462 0.00778 0.0
C361 C 0.8492 0.59917 1.00169 0.0
C362 C 0.77671 0.61828 0.92662 0.0
C363 C 0.75305 0.58891 0.9223 0.0
N364 N 0.73893 0.59562 0.93897 0.0
C365 C 0.76195 0.6249 0.9437 0.0
C366 C 0.77221 0.60016 0.91578 0.0
C367 C 0.74294 0.61323 0.9497 0.0
C368 C 0.78113 0.67841 0.94181 0.0
N369 N 0.80005 0.6701 0.95155 0.0
C370 C 0.79795 0.69307 0.98234 0.0
C371 C 0.80866 0.67713 0.97136 0.0
C372 C 0.77833 0.70204 0.97271 0.0
C373 C 0.77 0.6945 0.95209 0.0
H374 H 0.77483 0.67264 0.9259 0.0
H375 H 0.82389 0.67036 0.97861 0.0
C376 C 0.8318 0.57353 0.93996 0.0
N377 N 0.81631 0.58779 0.94595 0.0
C378 C 0.83048 0.55439 0.94913 0.0
C379 C 0.79729 0.56478 0.9707 0.0
C380 C 0.79933 0.5838 0.96117 0.0
C381 C 0.81305 0.54975 0.96474 0.0
H382 H 0.84557 0.57712 0.92837 0.0
H383 H 0.78753 0.5954 0.96622 0.0
C384 C 0.83239 0.67752 0.91087 0.0
N385 N 0.82213 0.71775 0.91208 0.0
C386 C 0.81603 0.68547 0.89604 0.0
C387 C 0.84356 0.69001 0.92629 0.0
C388 C 0.8111 0.70586 0.89691 0.0
C389 C 0.83811 0.71031 0.92666 0.0
C390 C 0.85024 0.60489 0.88826 0.0
C391 C 0.8687 0.61295 0.87613 0.0
C392 C 0.8373 0.58933 0.87897 0.0
C393 C 0.87381 0.60536 0.85475 0.0
C394 C 0.84295 0.58216 0.85753 0.0
N395 N 0.86093 0.59027 0.84596 0.0
C396 C 0.89897 0.62163 0.93275 0.0
C397 C 0.89844 0.65576 0.92219 0.0
C398 C 0.92302 0.62144 0.93241 0.0
N399 N 0.88725 0.63859 0.92765 0.0
C400 C 0.92257 0.65626 0.92166 0.0
C401 C 0.93516 0.63885 0.92656 0.0
H402 H 0.88957 0.60809 0.93654 0.0
H403 H 0.88868 0.66889 0.91764 0.0
C404 C 0.79776 0.62236 0.85867 0.0
N405 N 0.81471 0.63387 0.86775 0.0
C406 C 0.79472 0.62159 0.83527 0.0
C407 C 0.82612 0.64504 0.83108 0.0
C408 C 0.82869 0.64521 0.85452 0.0
C409 C 0.80913 0.63293 0.82115 0.0
H410 H 0.78692 0.61345 0.86952 0.0
H411 H 0.84222 0.65403 0.86219 0.0
O412 O 0.83722 0.63326 0.95472 0.0
O413 O 0.79522 0.62965 0.92032 0.0
O414 O 0.83693 0.6575 0.91076 0.0
O415 O 0.84444 0.61257 0.90886 0.0
H416 H 0.80148 0.63543 0.98243 0.0
H417 H 0.86751 0.6077 0.97158 0.0
H418 H 0.79761 0.61629 0.01809 0.0
H419 H 0.86232 0.58881 0.00727 0.0
H420 H 0.74946 0.57479 0.91416 0.0
H421 H 0.76519 0.63884 0.95233 0.0
H422 H 0.78362 0.59466 0.90277 0.0
H423 H 0.73142 0.61814 0.96292 0.0
H424 H 0.80487 0.69816 0.99832 0.0
H425 H 0.75523 0.70111 0.94377 0.0
H426 H 0.84338 0.54348 0.94441 0.0
H427 H 0.78351 0.56191 0.9826 0.0
H428 H 0.80703 0.67595 0.88419 0.0
H429 H 0.85599 0.68402 0.93814 0.0
H430 H 0.79842 0.71222 0.8856 0.0
H431 H 0.84649 0.72014 0.93861 0.0
H432 H 0.87875 0.62513 0.88301 0.0
H433 H 0.82289 0.583 0.88812 0.0
H434 H 0.88795 0.61153 0.8451 0.0
H435 H 0.833 0.57021 0.85005 0.0
H436 H 0.93201 0.60775 0.93651 0.0
H437 H 0.93122 0.66991 0.91674 0.0
H438 H 0.78131 0.61217 0.82829 0.0
H439 H 0.83778 0.65382 0.8208 0.0
Li440 Li 0.18104 0.39069 0.43502 0.0
Li441 Li 0.18551 0.35617 0.43635 0.0
Li442 Li 0.1819 0.37278 0.3992 0.0
Li443 Li 0.14749 0.36891 0.42707 0.0
C444 C 0.22587 0.38687 0.42418 0.0
N445 N 0.26427 0.41084 0.42956 0.0
C446 C 0.23645 0.38851 0.44531 0.0
C447 C 0.23496 0.39723 0.40572 0.0
C448 C 0.25579 0.40077 0.44771 0.0
C449 C 0.25437 0.40931 0.4088 0.0
C450 C 0.16472 0.36382 0.47611 0.0
C451 C 0.14669 0.3435 0.5047 0.0
N452 N 0.16545 0.34607 0.5182 0.0
C453 C 0.1837 0.36647 0.49035 0.0
C454 C 0.14595 0.35242 0.48338 0.0
C455 C 0.18379 0.35728 0.51153 0.0
C456 C 0.1766 0.41952 0.46906 0.0
N457 N 0.18771 0.41593 0.44927 0.0
C458 C 0.20402 0.44876 0.4498 0.0
C459 C 0.20119 0.43015 0.43953 0.0
C460 C 0.19253 0.45299 0.47015 0.0
C461 C 0.17873 0.43798 0.47979 0.0
H462 H 0.16547 0.40824 0.47623 0.0
H463 H 0.20929 0.42734 0.42346 0.0
C464 C 0.22401 0.33285 0.44969 0.0
N465 N 0.20068 0.33426 0.45131 0.0
C466 C 0.23579 0.31726 0.46033 0.0
C467 C 0.19933 0.30471 0.47399 0.0
C468 C 0.18827 0.32043 0.46294 0.0
C469 C 0.22346 0.30295 0.47285 0.0
H470 H 0.2335 0.34379 0.44001 0.0
H471 H 0.16971 0.32156 0.46365 0.0
C472 C 0.15642 0.41273 0.40701 0.0
N473 N 0.15303 0.45373 0.40353 0.0
C474 C 0.14042 0.42312 0.42015 0.0
C475 C 0.17061 0.42316 0.39201 0.0
C476 C 0.13902 0.44386 0.41819 0.0
C477 C 0.16862 0.4439 0.39049 0.0
C478 C 0.16947 0.32835 0.40894 0.0
C479 C 0.18973 0.32155 0.39876 0.0
C480 C 0.15396 0.31465 0.41822 0.0
C481 C 0.19422 0.30108 0.39819 0.0
C482 C 0.15907 0.2943 0.41727 0.0
N483 N 0.17893 0.28799 0.40738 0.0
C484 C 0.20859 0.36625 0.35898 0.0
C485 C 0.17124 0.37999 0.35421 0.0
C486 C 0.21206 0.36622 0.33558 0.0
N487 N 0.1884 0.37306 0.36773 0.0
C488 C 0.17398 0.38028 0.33083 0.0
C489 C 0.19453 0.37319 0.32115 0.0
H490 H 0.2219 0.36069 0.37014 0.0
H491 H 0.15534 0.38524 0.36166 0.0
C492 C 0.10243 0.37726 0.44257 0.0
N493 N 0.11504 0.36585 0.42821 0.0
C494 C 0.07836 0.37604 0.4425 0.0
C495 C 0.08084 0.35092 0.41333 0.0
C496 C 0.10481 0.3528 0.41379 0.0
C497 C 0.06719 0.36283 0.4276 0.0
H498 H 0.11108 0.38755 0.45382 0.0
H499 H 0.11529 0.34402 0.40242 0.0
O500 O 0.20704 0.37483 0.42145 0.0
O501 O 0.16431 0.37265 0.4553 0.0
O502 O 0.15852 0.3925 0.40915 0.0
O503 O 0.16507 0.34836 0.41014 0.0
H504 H 0.22979 0.3804 0.45968 0.0
H505 H 0.22697 0.39617 0.38926 0.0
H506 H 0.26409 0.40226 0.46399 0.0
H507 H 0.2615 0.41752 0.39471 0.0
H508 H 0.13236 0.3345 0.5105 0.0
H509 H 0.1982 0.37548 0.48507 0.0
H510 H 0.13108 0.35029 0.47258 0.0
H511 H 0.19844 0.35909 0.52268 0.0
H512 H 0.21496 0.45975 0.44175 0.0
H513 H 0.16905 0.44061 0.49512 0.0
H514 H 0.25434 0.31634 0.45854 0.0
H515 H 0.18904 0.29421 0.48357 0.0
H516 H 0.12943 0.41528 0.43194 0.0
H517 H 0.18326 0.41536 0.3819 0.0
H518 H 0.12684 0.45212 0.42837 0.0
H519 H 0.17958 0.45218 0.37906 0.0
H520 H 0.20198 0.33199 0.39167 0.0
H521 H 0.13831 0.3197 0.42637 0.0
H522 H 0.2099 0.2956 0.3905 0.0
H523 H 0.14729 0.28352 0.4245 0.0
H524 H 0.22808 0.36043 0.32887 0.0
H525 H 0.16014 0.38609 0.32044 0.0
H526 H 0.06866 0.38575 0.45357 0.0
H527 H 0.07312 0.34028 0.40183 0.0
Li528 Li 0.82202 0.36802 0.10784 0.0
Li529 Li 0.8553 0.36425 0.08115 0.0
Li530 Li 0.82276 0.38771 0.0731 0.0
Li531 Li 0.81706 0.35214 0.07167 0.0
C532 C 0.84419 0.40561 0.11046 0.0
N533 N 0.84189 0.44067 0.13483 0.0
C534 C 0.86443 0.4153 0.1171 0.0
C535 C 0.82279 0.41373 0.11617 0.0
C536 C 0.8629 0.43302 0.12943 0.0
C537 C 0.82198 0.43147 0.12851 0.0
C538 C 0.83191 0.32367 0.09863 0.0
C539 C 0.83544 0.28984 0.08521 0.0
N540 N 0.81944 0.28391 0.10061 0.0
C541 C 0.8156 0.31724 0.1144 0.0
C542 C 0.84204 0.30987 0.084 0.0
C543 C 0.80951 0.29707 0.11512 0.0
C544 C 0.79628 0.377 0.14791 0.0
N545 N 0.81552 0.36832 0.13924 0.0
C546 C 0.82919 0.36037 0.17621 0.0
C547 C 0.83178 0.36 0.15281 0.0
C548 C 0.80979 0.36963 0.18584 0.0
C549 C 0.79308 0.37788 0.17131 0.0
H550 H 0.78366 0.38356 0.13669 0.0
H551 H 0.84688 0.35318 0.14537 0.0
C552 C 0.90045 0.37649 0.07126 0.0
N553 N 0.8877 0.36121 0.0797 0.0
C554 C 0.9245 0.37531 0.07111 0.0
C555 C 0.92173 0.34253 0.08802 0.0
C556 C 0.89774 0.3444 0.08792 0.0
C557 C 0.93548 0.35821 0.07974 0.0
H558 H 0.89191 0.38975 0.06503 0.0
H559 H 0.88712 0.33253 0.09464 0.0
C560 C 0.77714 0.3754 0.07324 0.0
N561 N 0.73836 0.38174 0.04706 0.0
C562 C 0.77883 0.37552 0.0497 0.0
C563 C 0.75573 0.37849 0.08347 0.0
C564 C 0.75903 0.37875 0.03676 0.0
C565 C 0.73632 0.38168 0.06994 0.0
C566 C 0.84646 0.36282 0.03241 0.0
C567 C 0.8388 0.37235 0.01279 0.0
C568 C 0.86295 0.34766 0.03087 0.0
C569 C 0.84765 0.36644 0.99191 0.0
C570 C 0.87137 0.34219 0.00968 0.0
N571 N 0.86361 0.35161 0.99079 0.0
C572 C 0.83318 0.41958 0.04485 0.0
C573 C 0.79796 0.42412 0.06448 0.0
C574 C 0.83068 0.43803 0.0342 0.0
N575 N 0.81691 0.41299 0.05956 0.0
C576 C 0.79487 0.44281 0.05436 0.0
C577 C 0.81136 0.44993 0.03895 0.0
H578 H 0.84821 0.41051 0.04149 0.0
H579 H 0.78531 0.41858 0.07634 0.0
C580 C 0.78227 0.32279 0.0684 0.0
N581 N 0.80044 0.33077 0.05699 0.0
C582 C 0.77048 0.30626 0.05976 0.0
C583 C 0.79555 0.307 0.02724 0.0
C584 C 0.80701 0.32334 0.03662 0.0
C585 C 0.77721 0.29809 0.03896 0.0
H586 H 0.77722 0.32905 0.08448 0.0
H587 H 0.82134 0.32974 0.0277 0.0
O588 O 0.84541 0.3883 0.09832 0.0
O589 O 0.83766 0.34343 0.0973 0.0
O590 O 0.79624 0.37231 0.08637 0.0
O591 O 0.8382 0.36864 0.05301 0.0
H592 H 0.88112 0.40919 0.11274 0.0
H593 H 0.80698 0.40644 0.11109 0.0
H594 H 0.87842 0.4407 0.13469 0.0
H595 H 0.80553 0.43793 0.13304 0.0
H596 H 0.84299 0.27902 0.07387 0.0
H597 H 0.8075 0.32774 0.12577 0.0
H598 H 0.85464 0.3146 0.07166 0.0
H599 H 0.7968 0.29189 0.12715 0.0
H600 H 0.84228 0.35342 0.18662 0.0
H601 H 0.77798 0.38534 0.17792 0.0
H602 H 0.93437 0.38788 0.06488 0.0
H603 H 0.92941 0.32899 0.09456 0.0
H604 H 0.7952 0.37312 0.04147 0.0
H605 H 0.75414 0.37843 0.10168 0.0
H606 H 0.7601 0.37888 0.01852 0.0
H607 H 0.71964 0.3841 0.07763 0.0
H608 H 0.82613 0.38418 0.01367 0.0
H609 H 0.86899 0.34005 0.04582 0.0
H610 H 0.84183 0.37366 0.97658 0.0
H611 H 0.88406 0.33043 0.00823 0.0
H612 H 0.84397 0.4431 0.0227 0.0
H613 H 0.77969 0.4515 0.0584 0.0
H614 H 0.75627 0.29995 0.06923 0.0
H615 H 0.80143 0.30106 0.01124 0.0
Li616 Li 0.17687 0.63772 0.60741 0.0
Li617 Li 0.14611 0.64124 0.57963 0.0
Li618 Li 0.17893 0.6167 0.57451 0.0
Li619 Li 0.18587 0.65282 0.57014 0.0
C620 C 0.14712 0.61002 0.61789 0.0
N621 N 0.13383 0.59651 0.65999 0.0
C622 C 0.12799 0.61838 0.62864 0.0
C623 C 0.1594 0.59468 0.62845 0.0
C624 C 0.12157 0.61137 0.64995 0.0
C625 C 0.15243 0.58808 0.64976 0.0
C626 C 0.15574 0.68153 0.58923 0.0
C627 C 0.14233 0.7057 0.56203 0.0
N628 N 0.13875 0.719 0.579 0.0
C629 C 0.15209 0.69549 0.60639 0.0
C630 C 0.15094 0.68671 0.56687 0.0
C631 C 0.14343 0.71433 0.60089 0.0
C632 C 0.197 0.62775 0.65056 0.0
N633 N 0.18127 0.63911 0.63938 0.0
C634 C 0.16624 0.65143 0.67423 0.0
C635 C 0.16621 0.65095 0.6507 0.0
C636 C 0.18172 0.63937 0.6864 0.0
C637 C 0.19749 0.6276 0.6742 0.0
H638 H 0.20863 0.61828 0.64119 0.0
H639 H 0.15361 0.65954 0.6414 0.0
C640 C 0.10309 0.62917 0.56391 0.0
N641 N 0.11375 0.64417 0.5753 0.0
C642 C 0.0792 0.62938 0.56095 0.0
C643 C 0.07769 0.66053 0.58142 0.0
C644 C 0.1016 0.65965 0.58412 0.0
C645 C 0.06611 0.64517 0.56985 0.0
H646 H 0.11319 0.61688 0.5574 0.0
H647 H 0.11031 0.67116 0.59359 0.0
C648 C 0.2234 0.62191 0.58383 0.0
N649 N 0.26171 0.59873 0.57491 0.0
C650 C 0.2396 0.62816 0.56785 0.0
C651 C 0.22676 0.60396 0.59539 0.0
C652 C 0.25885 0.61622 0.56356 0.0
C653 C 0.2462 0.59242 0.5906 0.0
C654 C 0.16061 0.63673 0.52977 0.0
C655 C 0.1751 0.62717 0.51435 0.0
C656 C 0.14133 0.64714 0.52182 0.0
C657 C 0.17029 0.62838 0.49128 0.0
C658 C 0.13707 0.648 0.49862 0.0
N659 N 0.15152 0.63869 0.48395 0.0
C660 C 0.17096 0.57561 0.56945 0.0
C661 C 0.20247 0.58716 0.5476 0.0
C662 C 0.17352 0.55638 0.56075 0.0
N663 N 0.18529 0.59056 0.56277 0.0
C664 C 0.20546 0.5682 0.53824 0.0
C665 C 0.19079 0.55254 0.54473 0.0
H666 H 0.15719 0.5787 0.58122 0.0
H667 H 0.21369 0.59921 0.5425 0.0
C668 C 0.20844 0.69009 0.56586 0.0
N669 N 0.20299 0.67309 0.5545 0.0
C670 C 0.21969 0.70577 0.55484 0.0
C671 C 0.2204 0.68588 0.52085 0.0
C672 C 0.20901 0.67065 0.53249 0.0
C673 C 0.22569 0.70383 0.53197 0.0
H674 H 0.2038 0.69158 0.58346 0.0
H675 H 0.20496 0.65691 0.52392 0.0
O676 O 0.15414 0.61715 0.59737 0.0
O677 O 0.16425 0.66301 0.59438 0.0
O678 O 0.20445 0.6334 0.58822 0.0
O679 O 0.16483 0.63539 0.55252 0.0
H680 H 0.11839 0.63035 0.62075 0.0
H681 H 0.17434 0.58813 0.6204 0.0
H682 H 0.10689 0.6178 0.65854 0.0
H683 H 0.16186 0.57633 0.65822 0.0
H684 H 0.13858 0.70989 0.54477 0.0
H685 H 0.15595 0.69185 0.62379 0.0
H686 H 0.15415 0.67631 0.55337 0.0
H687 H 0.14047 0.72525 0.61401 0.0
H688 H 0.15402 0.66102 0.68278 0.0
H689 H 0.20956 0.61787 0.68278 0.0
H690 H 0.07106 0.61702 0.55228 0.0
H691 H 0.06838 0.67309 0.58841 0.0
H692 H 0.23732 0.64206 0.55883 0.0
H693 H 0.21428 0.59882 0.60766 0.0
H694 H 0.2715 0.62083 0.5512 0.0
H695 H 0.24893 0.57841 0.59928 0.0
H696 H 0.19015 0.61918 0.52007 0.0
H697 H 0.12967 0.65448 0.53336 0.0
H698 H 0.18149 0.62116 0.4792 0.0
H699 H 0.12224 0.65604 0.49228 0.0
H700 H 0.16166 0.54477 0.56599 0.0
H701 H 0.21908 0.56579 0.52603 0.0
H702 H 0.22379 0.7192 0.56418 0.0
H703 H 0.22461 0.68375 0.50321 0.0
Li704 Li 0.69016 0.86925 0.10997 0.0
Li705 Li 0.69563 0.85222 0.07405 0.0
Li706 Li 0.68938 0.88946 0.07465 0.0
Li707 Li 0.6578 0.86527 0.0821 0.0
C708 C 0.73491 0.88205 0.09658 0.0
N709 N 0.77418 0.89936 0.11447 0.0
C710 C 0.75467 0.87056 0.1003 0.0
C711 C 0.73531 0.90244 0.10154 0.0
C712 C 0.7743 0.87956 0.10948 0.0
C713 C 0.75526 0.91089 0.11068 0.0
C714 C 0.67928 0.82466 0.10116 0.0
C715 C 0.67485 0.79088 0.08783 0.0
N716 N 0.68977 0.78454 0.10405 0.0
C717 C 0.69445 0.81781 0.11778 0.0
C718 C 0.66925 0.8111 0.08614 0.0
C719 C 0.69956 0.79746 0.11895 0.0
C720 C 0.67714 0.87255 0.15488 0.0
N721 N 0.69605 0.86952 0.14178 0.0
C722 C 0.71987 0.86634 0.17463 0.0
C723 C 0.71716 0.86626 0.15114 0.0
C724 C 0.70067 0.86988 0.18853 0.0
C725 C 0.67909 0.87298 0.17835 0.0
H726 H 0.66046 0.8746 0.14705 0.0
H727 H 0.73185 0.86336 0.14047 0.0
C728 C 0.70576 0.82564 0.03813 0.0
N729 N 0.71189 0.83097 0.05945 0.0
C730 C 0.71665 0.80965 0.02742 0.0
C731 C 0.7404 0.8052 0.06059 0.0
C732 C 0.72892 0.82118 0.07072 0.0
C733 C 0.7342 0.79918 0.03869 0.0
H734 H 0.69237 0.83377 0.02941 0.0
H735 H 0.73334 0.82559 0.08772 0.0
C736 C 0.66064 0.90538 0.11217 0.0
N737 N 0.64801 0.93821 0.13757 0.0
C738 C 0.63801 0.91252 0.11137 0.0
C739 C 0.67679 0.91486 0.12607 0.0
C740 C 0.63198 0.92916 0.12427 0.0
C741 C 0.67008 0.93143 0.13874 0.0
C742 C 0.65958 0.8691 0.0375 0.0
C743 C 0.65413 0.88688 0.02635 0.0
C744 C 0.64773 0.85158 0.03199 0.0
C745 C 0.63676 0.88687 0.00998 0.0
C746 C 0.63045 0.8522 0.01555 0.0
N747 N 0.62536 0.86968 0.00498 0.0
C748 C 0.71134 0.91401 0.04258 0.0
C749 C 0.68471 0.93124 0.06579 0.0
C750 C 0.71512 0.93122 0.02973 0.0
N751 N 0.69614 0.91427 0.06005 0.0
C752 C 0.68815 0.94881 0.05358 0.0
C753 C 0.70325 0.94888 0.03506 0.0
H754 H 0.72003 0.90025 0.03825 0.0
H755 H 0.67237 0.93109 0.07938 0.0
C756 C 0.61499 0.84527 0.08804 0.0
N757 N 0.62528 0.86178 0.07928 0.0
C758 C 0.59108 0.84288 0.0865 0.0
C759 C 0.58892 0.87441 0.06678 0.0
C760 C 0.61279 0.87625 0.06885 0.0
C761 C 0.57768 0.85762 0.07583 0.0
H762 H 0.6253 0.8341 0.0965 0.0
H763 H 0.62138 0.88933 0.06226 0.0
O764 O 0.71561 0.87346 0.08746 0.0
O765 O 0.67444 0.84457 0.09945 0.0
O766 O 0.66679 0.88906 0.09962 0.0
O767 O 0.67636 0.86886 0.05376 0.0
H768 H 0.75483 0.85483 0.0963 0.0
H769 H 0.72046 0.9117 0.09823 0.0
H770 H 0.78964 0.87079 0.11262 0.0
H771 H 0.75574 0.92663 0.11469 0.0
H772 H 0.66736 0.78023 0.07622 0.0
H773 H 0.70237 0.82811 0.12951 0.0
H774 H 0.65746 0.81617 0.07319 0.0
H775 H 0.71138 0.79196 0.13165 0.0
H776 H 0.73679 0.86382 0.18184 0.0
H777 H 0.66376 0.87534 0.18843 0.0
H778 H 0.71156 0.80566 0.01041 0.0
H779 H 0.75369 0.7974 0.06994 0.0
H780 H 0.62521 0.90533 0.1009 0.0
H781 H 0.69421 0.90932 0.12738 0.0
H782 H 0.61454 0.93487 0.12374 0.0
H783 H 0.68241 0.93887 0.14958 0.0
H784 H 0.66307 0.90059 0.03038 0.0
H785 H 0.65162 0.83772 0.04052 0.0
H786 H 0.6323 0.90054 1.00129 0.0
H787 H 0.62104 0.83878 0.01124 0.0
H788 H 0.72698 0.93067 0.01562 0.0
H789 H 0.67836 0.962 0.05803 0.0
H790 H 0.58316 0.82984 0.09403 0.0
H791 H 0.57941 0.88603 0.05813 0.0
Li792 Li 0.31129 0.15382 0.57269 0.0
Li793 Li 0.31469 0.13719 0.60783 0.0
Li794 Li 0.34872 0.14289 0.58491 0.0
Li795 Li 0.31957 0.11667 0.57382 0.0
C796 C 0.32211 0.18238 0.59948 0.0
N797 N 0.30704 0.22147 0.5978 0.0
C798 C 0.30198 0.188 0.61078 0.0
C799 C 0.33465 0.19668 0.58744 0.0
C800 C 0.29463 0.20782 0.6097 0.0
C801 C 0.32673 0.21636 0.58677 0.0
C802 C 0.27253 0.12473 0.5954 0.0
C803 C 0.24724 0.09801 0.60696 0.0
N804 N 0.23433 0.1113 0.61883 0.0
C805 C 0.25893 0.13815 0.6076 0.0
C806 C 0.2666 0.10451 0.59499 0.0
C807 C 0.23973 0.13105 0.61939 0.0
C808 C 0.30707 0.18573 0.54119 0.0
N809 N 0.29515 0.17401 0.55586 0.0
C810 C 0.26028 0.1917 0.54769 0.0
C811 C 0.27213 0.1766 0.55913 0.0
C812 C 0.27227 0.20431 0.5328 0.0
C813 C 0.29598 0.20112 0.52956 0.0
H814 H 0.32528 0.18335 0.53874 0.0
H815 H 0.26297 0.16703 0.57073 0.0
C816 C 0.31502 0.15007 0.65296 0.0
N817 N 0.30595 0.13581 0.63925 0.0
C818 C 0.3121 0.14897 0.67633 0.0
C819 C 0.29021 0.11865 0.67119 0.0
C820 C 0.29376 0.12024 0.64792 0.0
C821 C 0.29972 0.13299 0.68582 0.0
H822 H 0.32535 0.16193 0.64582 0.0
H823 H 0.28752 0.10858 0.63695 0.0
C824 C 0.35273 0.13807 0.54071 0.0
N825 N 0.39131 0.13762 0.51331 0.0
C826 C 0.35946 0.12044 0.52996 0.0
C827 C 0.36555 0.15551 0.53735 0.0
C828 C 0.37902 0.12052 0.5162 0.0
C829 C 0.38503 0.15496 0.52351 0.0
C830 C 0.34516 0.1098 0.62067 0.0
C831 C 0.36016 0.11983 0.63527 0.0
C832 C 0.33506 0.09183 0.62745 0.0
C833 C 0.36467 0.11174 0.65657 0.0
C834 C 0.34004 0.08423 0.64888 0.0
N835 N 0.35459 0.09427 0.66288 0.0
C836 C 0.39041 0.16438 0.59379 0.0
C837 C 0.39489 0.13179 0.57892 0.0
C838 C 0.41433 0.16697 0.59449 0.0
N839 N 0.38124 0.14708 0.58586 0.0
C840 C 0.41884 0.13375 0.57922 0.0
C841 C 0.42888 0.15155 0.58704 0.0
H842 H 0.3792 0.17611 0.59974 0.0
H843 H 0.3871 0.11802 0.57317 0.0
C844 C 0.30102 0.08781 0.54318 0.0
N845 N 0.3168 0.09125 0.55973 0.0
C846 C 0.30072 0.06949 0.53182 0.0
C847 C 0.3327 0.05865 0.55499 0.0
C848 C 0.33239 0.07712 0.56584 0.0
C849 C 0.31696 0.0547 0.53749 0.0
H850 H 0.289 0.09944 0.53849 0.0
H851 H 0.34498 0.08037 0.5788 0.0
O852 O 0.3292 0.1629 0.59982 0.0
O853 O 0.2913 0.13137 0.58359 0.0
O854 O 0.33378 0.13821 0.55449 0.0
O855 O 0.33995 0.11782 0.60006 0.0
H856 H 0.29207 0.17715 0.62018 0.0
H857 H 0.35008 0.19257 0.57831 0.0
H858 H 0.27902 0.21235 0.61828 0.0
H859 H 0.33616 0.22753 0.57735 0.0
H860 H 0.24251 0.08239 0.60687 0.0
H861 H 0.26324 0.15383 0.60817 0.0
H862 H 0.27691 0.0939 0.58569 0.0
H863 H 0.22914 0.14125 0.62901 0.0
H864 H 0.24202 0.19372 0.55077 0.0
H865 H 0.30581 0.21033 0.51802 0.0
H866 H 0.32029 0.16012 0.68685 0.0
H867 H 0.28045 0.1061 0.67763 0.0
H868 H 0.34974 0.10682 0.53222 0.0
H869 H 0.3609 0.1692 0.54583 0.0
H870 H 0.38445 0.10696 0.50784 0.0
H871 H 0.39524 0.1683 0.52098 0.0
H872 H 0.36797 0.13384 0.63032 0.0
H873 H 0.3232 0.08402 0.61643 0.0
H874 H 0.37612 0.1194 0.66811 0.0
H875 H 0.33222 0.07041 0.65444 0.0
H876 H 0.42135 0.18093 0.60063 0.0
H877 H 0.42939 0.12133 0.57376 0.0
H878 H 0.28845 0.06718 0.51828 0.0
H879 H 0.34534 0.04765 0.56012 0.0
Li880 Li 0.68323 0.114 0.93507 0.0
Li881 Li 0.64951 0.13619 0.92787 0.0
Li882 Li 0.68016 0.13352 0.90128 0.0
Li883 Li 0.68734 0.15139 0.93578 0.0
C884 C 0.66065 0.099 0.8934 0.0
N885 N 0.66449 0.07429 0.85619 0.0
C886 C 0.64378 0.0993 0.87651 0.0
C887 C 0.67949 0.08612 0.89128 0.0
C888 C 0.64605 0.08673 0.85783 0.0
C889 C 0.68109 0.07371 0.87241 0.0
C890 C 0.65928 0.12326 0.9734 0.0
C891 C 0.65814 0.11473 0.01295 0.0
N892 N 0.64185 0.10065 0.0085 0.0
C893 C 0.64264 0.1086 0.9692 0.0
C894 C 0.66722 0.12627 0.99542 0.0
C895 C 0.634 0.09737 0.98718 0.0
C896 C 0.70952 0.08982 0.96511 0.0
N897 N 0.69164 0.08991 0.95024 0.0
C898 C 0.68234 0.05613 0.95946 0.0
C899 C 0.67806 0.07357 0.9473 0.0
C900 C 0.70052 0.05559 0.97512 0.0
C901 C 0.71427 0.07271 0.97786 0.0
H902 H 0.71976 0.10317 0.9674 0.0
H903 H 0.6635 0.07424 0.93592 0.0
C904 C 0.60336 0.13664 0.91342 0.0
N905 N 0.61696 0.13953 0.9318 0.0
C906 C 0.57942 0.138 0.9152 0.0
C907 C 0.58387 0.14643 0.95461 0.0
C908 C 0.60774 0.14462 0.95212 0.0
C909 C 0.56928 0.14286 0.93605 0.0
H910 H 0.61114 0.13321 0.89736 0.0
H911 H 0.61888 0.14728 0.96644 0.0
C912 C 0.72603 0.12758 0.9078 0.0
N913 N 0.76335 0.12089 0.87984 0.0
C914 C 0.73398 0.14272 0.89353 0.0
C915 C 0.73717 0.10909 0.90797 0.0
C916 C 0.75285 0.13903 0.87948 0.0
C917 C 0.75597 0.10598 0.89367 0.0
C918 C 0.65487 0.17619 0.91678 0.0
C919 C 0.65197 0.19077 0.90013 0.0
C920 C 0.64758 0.18006 0.93883 0.0
C921 C 0.64166 0.20893 0.9058 0.0
C922 C 0.63736 0.1984 0.94384 0.0
N923 N 0.63462 0.21233 0.92736 0.0
C924 C 0.66859 0.14533 0.85796 0.0
C925 C 0.69916 0.12192 0.85727 0.0
C926 C 0.6676 0.14551 0.83444 0.0
N927 N 0.68416 0.13367 0.86893 0.0
C928 C 0.69887 0.12173 0.83364 0.0
C929 C 0.68271 0.13346 0.82195 0.0
H930 H 0.65637 0.15406 0.86752 0.0
H931 H 0.71083 0.11215 0.86618 0.0
C932 C 0.696 0.1788 0.97146 0.0
N933 N 0.70198 0.17364 0.95006 0.0
C934 C 0.70533 0.19589 0.98148 0.0
C935 C 0.72716 0.2018 0.9474 0.0
C936 C 0.71725 0.18473 0.938 0.0
C937 C 0.72107 0.20776 0.96937 0.0
H938 H 0.68349 0.16995 0.98056 0.0
H939 H 0.7215 0.18049 0.92094 0.0
O940 O 0.65914 0.1116 0.91158 0.0
O941 O 0.66848 0.13402 0.95593 0.0
O942 O 0.70783 0.13095 0.92197 0.0
O943 O 0.66512 0.1584 0.91143 0.0
H944 H 0.62918 0.10921 0.87762 0.0
H945 H 0.69299 0.08593 0.90385 0.0
H946 H 0.63317 0.0869 0.84461 0.0
H947 H 0.69564 0.06375 0.87055 0.0
H948 H 0.6641 0.11692 0.03008 0.0
H949 H 0.6366 0.10578 0.95221 0.0
H950 H 0.68037 0.1373 0.99892 0.0
H951 H 0.62113 0.08598 0.98416 0.0
H952 H 0.67104 0.04341 0.95719 0.0
H953 H 0.72842 0.07289 0.9898 0.0
H954 H 0.56902 0.13491 0.90042 0.0
H955 H 0.57698 0.15068 0.97089 0.0
H956 H 0.72536 0.157 0.8929 0.0
H957 H 0.73138 0.09727 0.91907 0.0
H958 H 0.75905 0.15055 0.86821 0.0
H959 H 0.76472 0.09173 0.89358 0.0
H960 H 0.65769 0.18814 0.883 0.0
H961 H 0.64988 0.1691 0.95201 0.0
H962 H 0.63929 0.22033 0.89307 0.0
H963 H 0.63166 0.20156 0.96085 0.0
H964 H 0.65494 0.15486 0.82612 0.0
H965 H 0.71057 0.11197 0.82465 0.0
H966 H 0.69978 0.20001 0.99829 0.0
H967 H 0.73946 0.21025 0.9375 0.0
Li968 Li 0.3496 0.86705 0.42526 0.0
Li969 Li 0.31778 0.89095 0.43246 0.0
Li970 Li 0.31127 0.85485 0.43437 0.0
Li971 Li 0.31831 0.8706 0.39902 0.0
C972 C 0.34375 0.88117 0.47017 0.0
N973 N 0.36753 0.90181 0.50319 0.0
C974 C 0.35905 0.89642 0.4642 0.0
C975 C 0.34055 0.87642 0.49293 0.0
C976 C 0.3709 0.90669 0.48114 0.0
C977 C 0.35275 0.88702 0.50937 0.0
C978 C 0.34107 0.90326 0.38947 0.0
C979 C 0.3219 0.92708 0.36537 0.0
N980 N 0.33996 0.92627 0.35076 0.0
C981 C 0.35949 0.90274 0.37428 0.0
C982 C 0.32214 0.91557 0.38503 0.0
C983 C 0.35858 0.91446 0.35478 0.0
C984 C 0.39351 0.86048 0.40759 0.0
N985 N 0.38199 0.86194 0.42749 0.0
C986 C 0.41695 0.85687 0.44816 0.0
C987 C 0.39308 0.85963 0.44758 0.0
C988 C 0.42942 0.85603 0.42786 0.0
C989 C 0.41735 0.85754 0.40736 0.0
H990 H 0.38414 0.86168 0.39187 0.0
H991 H 0.38351 0.85994 0.4632 0.0
C992 C 0.29427 0.91776 0.46176 0.0
N993 N 0.31121 0.91617 0.446 0.0
C994 C 0.29097 0.93574 0.47333 0.0
C995 C 0.32231 0.95012 0.45191 0.0
C996 C 0.32504 0.93191 0.44085 0.0
C997 C 0.30532 0.95217 0.46866 0.0
H998 H 0.28375 0.90489 0.46577 0.0
H999 H 0.33865 0.93019 0.42855 0.0
C1000 C 0.34189 0.82762 0.41574 0.0
N1001 N 0.3613 0.79136 0.42723 0.0
C1002 C 0.3451 0.81294 0.39931 0.0
C1003 C 0.34859 0.82387 0.43804 0.0
C1004 C 0.35493 0.7947 0.40545 0.0
C1005 C 0.35836 0.80544 0.4435 0.0
C1006 C 0.27195 0.86669 0.41155 0.0
C1007 C 0.27327 0.84924 0.39868 0.0
C1008 C 0.25041 0.87497 0.4164 0.0
C1009 C 0.25297 0.84035 0.3909 0.0
C1010 C 0.2305 0.86563 0.40831 0.0
N1011 N 0.23218 0.84866 0.39583 0.0
C1012 C 0.28866 0.83733 0.47176 0.0
C1013 C 0.29023 0.81665 0.43936 0.0
C1014 C 0.27767 0.82224 0.48404 0.0
N1015 N 0.29485 0.83423 0.44992 0.0
C1016 C 0.27928 0.80118 0.45097 0.0
C1017 C 0.27299 0.80378 0.4737 0.0
H1018 H 0.29252 0.85146 0.47972 0.0
H1019 H 0.29523 0.81453 0.42196 0.0
C1020 C 0.32858 0.86103 0.35439 0.0
N1021 N 0.31245 0.87033 0.36723 0.0
C1022 C 0.32678 0.86114 0.3309 0.0
C1023 C 0.29151 0.88013 0.33421 0.0
C1024 C 0.29405 0.87972 0.3577 0.0
C1025 C 0.30817 0.87092 0.32048 0.0
H1026 H 0.3431 0.8538 0.36245 0.0
H1027 H 0.28162 0.88725 0.3683 0.0
O1028 O 0.33155 0.87116 0.45394 0.0
O1029 O 0.34125 0.89143 0.40833 0.0
O1030 O 0.33227 0.84553 0.40983 0.0
O1031 O 0.29153 0.87572 0.41945 0.0
H1032 H 0.36185 0.90026 0.44668 0.0
H1033 H 0.32876 0.86467 0.49784 0.0
H1034 H 0.38279 0.91852 0.47676 0.0
H1035 H 0.35044 0.8835 0.52706 0.0
H1036 H 0.30729 0.93657 0.36165 0.0
H1037 H 0.37431 0.89338 0.37745 0.0
H1038 H 0.3076 0.91596 0.39647 0.0
H1039 H 0.37268 0.91414 0.34283 0.0
H1040 H 0.42557 0.85533 0.4643 0.0
H1041 H 0.42629 0.85694 0.39133 0.0
H1042 H 0.27784 0.93656 0.48629 0.0
H1043 H 0.33357 0.96242 0.4475 0.0
H1044 H 0.34001 0.81563 0.38197 0.0
H1045 H 0.34625 0.835 0.45103 0.0
H1046 H 0.35749 0.78319 0.3929 0.0
H1047 H 0.3636 0.80234 0.46068 0.0
H1048 H 0.28976 0.84262 0.39468 0.0
H1049 H 0.24911 0.88847 0.42635 0.0
H1050 H 0.25375 0.82685 0.38093 0.0
H1051 H 0.21371 0.87188 0.41194 0.0
H1052 H 0.27334 0.82487 0.50156 0.0
H1053 H 0.27569 0.78735 0.44219 0.0
H1054 H 0.33985 0.85362 0.321 0.0
H1055 H 0.27703 0.88802 0.32687 0.0
Li1056 Li 0.3137 0.15333 0.93481 0.0
Li1057 Li 0.32084 0.11835 0.93376 0.0
Li1058 Li 0.35119 0.14209 0.92538 0.0
Li1059 Li 0.3189 0.13819 0.89831 0.0
C1060 C 0.32637 0.13527 0.97543 0.0
N1061 N 0.30859 0.12917 0.01816 0.0
C1062 C 0.30261 0.1328 0.97847 0.0
C1063 C 0.34107 0.1346 0.99412 0.0
C1064 C 0.29397 0.12974 1.0002 0.0
C1065 C 0.33175 0.13152 0.01559 0.0
C1066 C 0.27837 0.11984 0.9111 0.0
C1067 C 0.27041 0.08994 0.8898 0.0
N1068 N 0.24741 0.09335 0.89208 0.0
C1069 C 0.25466 0.12305 0.91321 0.0
C1070 C 0.28634 0.10315 0.89928 0.0
C1071 C 0.23928 0.10948 0.90349 0.0
C1072 C 0.2769 0.18056 0.94145 0.0
N1073 N 0.29736 0.17417 0.95002 0.0
C1074 C 0.29573 0.19868 0.97928 0.0
C1075 C 0.30684 0.18282 0.96861 0.0
C1076 C 0.27467 0.2058 0.97072 0.0
C1077 C 0.2652 0.19644 0.95158 0.0
H1078 H 0.2699 0.17352 0.92651 0.0
H1079 H 0.32326 0.17761 0.97495 0.0
C1080 C 0.33456 0.08292 0.95433 0.0
N1081 N 0.31541 0.0933 0.94829 0.0
C1082 C 0.33258 0.06492 0.96604 0.0
C1083 C 0.29116 0.06888 0.96582 0.0
C1084 C 0.29393 0.08677 0.95392 0.0
C1085 C 0.31066 0.05769 0.97195 0.0
H1086 H 0.35142 0.08889 0.95048 0.0
H1087 H 0.27897 0.09557 0.94959 0.0
C1088 C 0.33252 0.18302 0.91317 0.0
N1089 N 0.32901 0.2234 0.92198 0.0
C1090 C 0.31751 0.1949 0.90051 0.0
C1091 C 0.34583 0.1917 0.93025 0.0
C1092 C 0.31595 0.21528 0.90524 0.0
C1093 C 0.3438 0.21213 0.93444 0.0
C1094 C 0.36231 0.11313 0.89703 0.0
C1095 C 0.37184 0.12646 0.88143 0.0
C1096 C 0.37389 0.09539 0.90207 0.0
C1097 C 0.39296 0.12193 0.87134 0.0
C1098 C 0.39497 0.09139 0.8916 0.0
N1099 N 0.40401 0.10464 0.87661 0.0
C1100 C 0.39636 0.13238 0.93889 0.0
C1101 C 0.39377 0.16138 0.9161 0.0
C1102 C 0.42042 0.13352 0.93881 0.0
N1103 N 0.38364 0.14608 0.92744 0.0
C1104 C 0.41773 0.16327 0.91586 0.0
C1105 C 0.43148 0.14905 0.92702 0.0
H1106 H 0.3878 0.12017 0.94744 0.0
H1107 H 0.38327 0.17183 0.90675 0.0
C1108 C 0.29501 0.15145 0.85912 0.0
N1109 N 0.31039 0.13785 0.86707 0.0
C1110 C 0.29015 0.15254 0.83601 0.0
C1111 C 0.31628 0.12502 0.82985 0.0
C1112 C 0.32043 0.12436 0.85305 0.0
C1113 C 0.30124 0.13948 0.82091 0.0
H1114 H 0.2867 0.16161 0.87072 0.0
H1115 H 0.33203 0.11326 0.85978 0.0
O1116 O 0.3354 0.13807 0.95432 0.0
O1117 O 0.2935 0.13312 0.92054 0.0
O1118 O 0.33383 0.16293 0.90924 0.0
O1119 O 0.34199 0.11767 0.90762 0.0
H1120 H 0.29093 0.13323 0.96425 0.0
H1121 H 0.3595 0.13642 0.99203 0.0
H1122 H 0.27564 0.12781 1.00279 0.0
H1123 H 0.34293 0.13097 0.03021 0.0
H1124 H 0.27634 0.07696 0.88063 0.0
H1125 H 0.24822 0.13591 0.9223 0.0
H1126 H 0.30458 0.10032 0.89746 0.0
H1127 H 0.22088 0.11178 0.90502 0.0
H1128 H 0.30354 0.20524 0.99414 0.0
H1129 H 0.24917 0.20158 0.94422 0.0
H1130 H 0.34809 0.05701 0.9709 0.0
H1131 H 0.27396 0.06385 0.97012 0.0
H1132 H 0.30708 0.18847 0.88726 0.0
H1133 H 0.35727 0.18267 0.94046 0.0
H1134 H 0.30433 0.22464 0.89564 0.0
H1135 H 0.35387 0.21901 0.94772 0.0
H1136 H 0.36315 0.14032 0.87742 0.0
H1137 H 0.3667 0.0848 0.9139 0.0
H1138 H 0.40061 0.13219 0.85939 0.0
H1139 H 0.40416 0.07775 0.8954 0.0
H1140 H 0.43019 0.12197 0.94729 0.0
H1141 H 0.42537 0.17567 0.90682 0.0
H1142 H 0.27797 0.16359 0.83005 0.0
H1143 H 0.3254 0.11469 0.81902 0.0
Li1144 Li 0.68435 0.85578 0.43674 0.0
Li1145 Li 0.67712 0.89224 0.43646 0.0
Li1146 Li 0.64679 0.86922 0.42813 0.0
Li1147 Li 0.67647 0.87424 0.40062 0.0
C1148 C 0.6489 0.86329 0.47181 0.0
N1149 N 0.61707 0.8465 0.50093 0.0
C1150 C 0.6367 0.87532 0.48692 0.0
C1151 C 0.64493 0.8427 0.47157 0.0
C1152 C 0.62067 0.86656 0.50148 0.0
C1153 C 0.62879 0.83451 0.48642 0.0
C1154 C 0.72357 0.87948 0.43341 0.0
C1155 C 0.76506 0.88191 0.43406 0.0
N1156 N 0.76449 0.88326 0.45697 0.0
C1157 C 0.72338 0.8809 0.45696 0.0
C1158 C 0.74455 0.87998 0.42185 0.0
C1159 C 0.74426 0.8828 0.46856 0.0
C1160 C 0.71148 0.82024 0.43868 0.0
N1161 N 0.70134 0.83489 0.45103 0.0
C1162 C 0.71403 0.81976 0.4854 0.0
C1163 C 0.70263 0.83503 0.47394 0.0
C1164 C 0.72457 0.80425 0.47322 0.0
C1165 C 0.7233 0.80471 0.44948 0.0
H1166 H 0.71028 0.82057 0.42045 0.0
H1167 H 0.69454 0.84691 0.48338 0.0
C1168 C 0.66596 0.92515 0.46271 0.0
N1169 N 0.68351 0.91738 0.45039 0.0
C1170 C 0.6685 0.94349 0.47353 0.0
C1171 C 0.70692 0.94602 0.45803 0.0
C1172 C 0.70369 0.92748 0.44765 0.0
C1173 C 0.68919 0.95427 0.47128 0.0
H1174 H 0.64985 0.91712 0.46394 0.0
H1175 H 0.71717 0.92131 0.43718 0.0
C1176 C 0.64944 0.83433 0.40313 0.0
N1177 N 0.61929 0.80587 0.38673 0.0
C1178 C 0.63353 0.83933 0.38633 0.0
C1179 C 0.65013 0.81483 0.41151 0.0
C1180 C 0.61839 0.82474 0.37829 0.0
C1181 C 0.63472 0.80066 0.40302 0.0
C1182 C 0.65736 0.91185 0.40074 0.0
C1183 C 0.63845 0.92366 0.39476 0.0
C1184 C 0.67963 0.91814 0.39509 0.0
C1185 C 0.64213 0.9416 0.38329 0.0
C1186 C 0.68259 0.93618 0.38362 0.0
N1187 N 0.66394 0.94744 0.378 0.0
C1188 C 0.60217 0.88336 0.43332 0.0
C1189 C 0.60323 0.84802 0.43363 0.0
C1190 C 0.57827 0.88319 0.43598 0.0
N1191 N 0.61412 0.86596 0.43193 0.0
C1192 C 0.57928 0.84715 0.43608 0.0
C1193 C 0.5665 0.86491 0.4372 0.0
H1194 H 0.61127 0.89742 0.43238 0.0
H1195 H 0.61304 0.83435 0.43328 0.0
C1196 C 0.70307 0.87175 0.35967 0.0
N1197 N 0.68212 0.87579 0.36893 0.0
C1198 C 0.7063 0.87343 0.33629 0.0
C1199 C 0.66639 0.8833 0.33261 0.0
C1200 C 0.66395 0.88144 0.35592 0.0
C1201 C 0.6878 0.87938 0.32245 0.0
H1202 H 0.71725 0.86733 0.37044 0.0
H1203 H 0.6475 0.8846 0.36369 0.0
O1204 O 0.6643 0.87159 0.457 0.0
O1205 O 0.70339 0.87745 0.42163 0.0
O1206 O 0.66438 0.84835 0.4113 0.0
O1207 O 0.6539 0.89422 0.41197 0.0
H1208 H 0.63956 0.89124 0.48749 0.0
H1209 H 0.65394 0.83318 0.45978 0.0
H1210 H 0.61108 0.8757 0.51323 0.0
H1211 H 0.62548 0.81862 0.4863 0.0
H1212 H 0.78143 0.88232 0.42532 0.0
H1213 H 0.70733 0.88066 0.46622 0.0
H1214 H 0.74497 0.87889 0.40361 0.0
H1215 H 0.74437 0.88393 0.48678 0.0
H1216 H 0.71415 0.81996 0.50368 0.0
H1217 H 0.73143 0.79329 0.43932 0.0
H1218 H 0.65439 0.94905 0.4837 0.0
H1219 H 0.72299 0.95393 0.4554 0.0
H1220 H 0.63262 0.85438 0.37984 0.0
H1221 H 0.66238 0.81071 0.42451 0.0
H1222 H 0.60587 0.82844 0.36539 0.0
H1223 H 0.635 0.78553 0.40939 0.0
H1224 H 0.62109 0.91898 0.3989 0.0
H1225 H 0.69451 0.90923 0.39942 0.0
H1226 H 0.62764 0.95088 0.37856 0.0
H1227 H 0.69973 0.94122 0.37916 0.0
H1228 H 0.56905 0.89723 0.43668 0.0
H1229 H 0.57088 0.83275 0.43736 0.0
H1230 H 0.72315 0.87039 0.3292 0.0
H1231 H 0.65153 0.88758 0.32264 0.0
Li1232 Li 0.32772 0.87132 0.10735 0.0
Li1233 Li 0.35985 0.86791 0.07934 0.0
Li1234 Li 0.32664 0.8913 0.07275 0.0
Li1235 Li 0.32103 0.85553 0.07179 0.0
C1236 C 0.34889 0.90829 0.11057 0.0
N1237 N 0.34597 0.94111 0.1386 0.0
C1238 C 0.36865 0.91564 0.12122 0.0
C1239 C 0.32764 0.91761 0.11416 0.0
C1240 C 0.36682 0.93226 0.13534 0.0
C1241 C 0.32653 0.93418 0.1284 0.0
C1242 C 0.33931 0.82684 0.09528 0.0
C1243 C 0.347 0.79448 0.07923 0.0
N1244 N 0.33021 0.78648 0.09248 0.0
C1245 C 0.32224 0.81831 0.10884 0.0
C1246 C 0.3519 0.81487 0.08043 0.0
C1247 C 0.31787 0.79786 0.10714 0.0
C1248 C 0.30553 0.8807 0.14962 0.0
N1249 N 0.32339 0.8714 0.13911 0.0
C1250 C 0.34035 0.86281 0.17455 0.0
C1251 C 0.34049 0.86241 0.15103 0.0
C1252 C 0.32248 0.87269 0.18601 0.0
C1253 C 0.3047 0.88149 0.17325 0.0
H1254 H 0.29227 0.8879 0.13967 0.0
H1255 H 0.35451 0.8552 0.14217 0.0
C1256 C 0.40279 0.88045 0.06384 0.0
N1257 N 0.39215 0.86585 0.07588 0.0
C1258 C 0.42681 0.88109 0.06259 0.0
C1259 C 0.42843 0.85132 0.08566 0.0
C1260 C 0.40434 0.8513 0.08654 0.0
C1261 C 0.43997 0.86658 0.07389 0.0
H1262 H 0.39258 0.89187 0.05567 0.0
H1263 H 0.39536 0.84005 0.09626 0.0
C1264 C 0.28098 0.87919 0.07513 0.0
N1265 N 0.24101 0.88622 0.05096 0.0
C1266 C 0.28089 0.87734 0.05162 0.0
C1267 C 0.26074 0.88459 0.08634 0.0
C1268 C 0.26052 0.88095 0.0397 0.0
C1269 C 0.24071 0.8881 0.07382 0.0
C1270 C 0.34721 0.86919 0.03042 0.0
C1271 C 0.33649 0.88026 0.01338 0.0
C1272 C 0.3648 0.85581 0.02488 0.0
C1273 C 0.34333 0.87753 0.99099 0.0
C1274 C 0.37113 0.8535 1.00228 0.0
N1275 N 0.36035 0.86431 0.98594 0.0
C1276 C 0.3416 0.92394 0.0495 0.0
C1277 C 0.3013 0.92599 0.05573 0.0
C1278 C 0.34124 0.9415 0.0369 0.0
N1279 N 0.32182 0.91641 0.05833 0.0
C1280 C 0.30012 0.94364 0.04307 0.0
C1281 C 0.32026 0.95145 0.03316 0.0
H1282 H 0.35766 0.91605 0.05198 0.0
H1283 H 0.28581 0.91985 0.06309 0.0
C1284 C 0.28419 0.828 0.06629 0.0
N1285 N 0.30458 0.83409 0.05725 0.0
C1286 C 0.27189 0.81226 0.05653 0.0
C1287 C 0.30182 0.80923 0.0284 0.0
C1288 C 0.31353 0.82499 0.03872 0.0
C1289 C 0.28067 0.80263 0.03729 0.0
H1290 H 0.27759 0.83527 0.08125 0.0
H1291 H 0.32989 0.82977 0.03202 0.0
O1292 O 0.35035 0.89189 0.09694 0.0
O1293 O 0.34331 0.84692 0.09617 0.0
O1294 O 0.30068 0.87578 0.08727 0.0
O1295 O 0.34107 0.87197 0.0525 0.0
H1296 H 0.3852 0.90853 0.11863 0.0
H1297 H 0.31214 0.91203 0.10616 0.0
H1298 H 0.38197 0.93812 0.14371 0.0
H1299 H 0.31019 0.94152 0.13137 0.0
H1300 H 0.35647 0.78504 0.06769 0.0
H1301 H 0.3123 0.82744 0.12034 0.0
H1302 H 0.36508 0.82131 0.06974 0.0
H1303 H 0.3046 0.79105 0.11742 0.0
H1304 H 0.3542 0.85555 0.18367 0.0
H1305 H 0.29071 0.88938 0.1814 0.0
H1306 H 0.435 0.89297 0.05313 0.0
H1307 H 0.43794 0.83999 0.09481 0.0
H1308 H 0.29632 0.8731 0.04266 0.0
H1309 H 0.26053 0.88609 0.10454 0.0
H1310 H 0.26022 0.87956 0.02151 0.0
H1311 H 0.22492 0.89232 0.08228 0.0
H1312 H 0.32307 0.8909 0.01739 0.0
H1313 H 0.37333 0.84718 0.03787 0.0
H1314 H 0.33514 0.88596 0.97762 0.0
H1315 H 0.38463 0.84312 0.99773 0.0
H1316 H 0.35729 0.94716 0.03009 0.0
H1317 H 0.28356 0.95076 0.04059 0.0
H1318 H 0.25585 0.8075 0.06419 0.0
H1319 H 0.30917 0.80242 0.01348 0.0
Li1320 Li 0.64637 0.1431 0.58252 0.0
Li1321 Li 0.67956 0.13752 0.60881 0.0
Li1322 Li 0.68623 0.15523 0.57311 0.0
Li1323 Li 0.67823 0.12042 0.57377 0.0
C1324 C 0.67273 0.18195 0.60344 0.0
N1325 N 0.68925 0.22011 0.61065 0.0
C1326 C 0.69299 0.1849 0.61581 0.0
C1327 C 0.6609 0.1984 0.59468 0.0
C1328 C 0.70104 0.20431 0.61929 0.0
C1329 C 0.66952 0.21757 0.59853 0.0
C1330 C 0.64831 0.11025 0.61801 0.0
C1331 C 0.65245 0.086 0.64784 0.0
N1332 N 0.63466 0.0947 0.65909 0.0
C1333 C 0.62997 0.11888 0.62979 0.0
C1334 C 0.65957 0.09361 0.62701 0.0
C1335 C 0.62336 0.11081 0.65056 0.0
C1336 C 0.60237 0.13052 0.57156 0.0
N1337 N 0.61402 0.14649 0.5799 0.0
C1338 C 0.57881 0.16454 0.58473 0.0
C1339 C 0.60284 0.16329 0.58659 0.0
C1340 C 0.56632 0.1483 0.57593 0.0
C1341 C 0.57844 0.13112 0.56934 0.0
H1342 H 0.61172 0.11719 0.5669 0.0
H1343 H 0.61252 0.17564 0.59354 0.0
C1344 C 0.70381 0.12611 0.6493 0.0
N1345 N 0.68597 0.13672 0.64046 0.0
C1346 C 0.70698 0.12518 0.6727 0.0
C1347 C 0.67371 0.14649 0.67734 0.0
C1348 C 0.67118 0.14697 0.65393 0.0
C1349 C 0.69167 0.13533 0.68708 0.0
H1350 H 0.71545 0.11821 0.63827 0.0
H1351 H 0.65721 0.15538 0.64643 0.0
C1352 C 0.66716 0.13343 0.53283 0.0
N1353 N 0.6743 0.11649 0.49091 0.0
C1354 C 0.68741 0.13747 0.52089 0.0
C1355 C 0.65047 0.12088 0.52341 0.0
C1356 C 0.6907 0.12876 0.4997 0.0
C1357 C 0.65444 0.1124 0.50222 0.0
C1358 C 0.72266 0.12116 0.58214 0.0
C1359 C 0.73913 0.12601 0.56579 0.0
C1360 C 0.72376 0.10267 0.59303 0.0
C1361 C 0.75646 0.11227 0.56065 0.0
C1362 C 0.74132 0.08932 0.58738 0.0
N1363 N 0.75718 0.09436 0.57145 0.0
C1364 C 0.72418 0.18116 0.56429 0.0
C1365 C 0.68916 0.18962 0.54605 0.0
C1366 C 0.73517 0.19769 0.55472 0.0
N1367 N 0.70166 0.17736 0.55961 0.0
C1368 C 0.69928 0.20658 0.53657 0.0
C1369 C 0.72272 0.21081 0.54067 0.0
H1370 H 0.73357 0.17142 0.57557 0.0
H1371 H 0.67114 0.18639 0.54296 0.0
C1372 C 0.66525 0.08154 0.56303 0.0
N1373 N 0.68206 0.09515 0.55861 0.0
C1374 C 0.66446 0.06353 0.55128 0.0
C1375 C 0.69867 0.07345 0.53091 0.0
C1376 C 0.69863 0.09145 0.54288 0.0
C1377 C 0.68118 0.05939 0.53484 0.0
H1378 H 0.65196 0.08491 0.57521 0.0
H1379 H 0.71135 0.10268 0.53897 0.0
O1380 O 0.66506 0.16303 0.59914 0.0
O1381 O 0.65552 0.11829 0.598 0.0
O1382 O 0.66387 0.14146 0.5538 0.0
O1383 O 0.70571 0.1345 0.5876 0.0
H1384 H 0.7026 0.17232 0.62235 0.0
H1385 H 0.64544 0.19637 0.58471 0.0
H1386 H 0.71674 0.20681 0.62876 0.0
H1387 H 0.66061 0.23043 0.59176 0.0
H1388 H 0.66109 0.0732 0.65507 0.0
H1389 H 0.62118 0.13185 0.62316 0.0
H1390 H 0.67372 0.08671 0.61805 0.0
H1391 H 0.60931 0.11742 0.65995 0.0
H1392 H 0.57015 0.17807 0.58997 0.0
H1393 H 0.5695 0.11811 0.56294 0.0
H1394 H 0.72097 0.11629 0.67945 0.0
H1395 H 0.66176 0.15486 0.68769 0.0
H1396 H 0.70061 0.147 0.52801 0.0
H1397 H 0.63474 0.11754 0.53245 0.0
H1398 H 0.70635 0.13167 0.49032 0.0
H1399 H 0.64176 0.10254 0.49479 0.0
H1400 H 0.7384 0.14009 0.55692 0.0
H1401 H 0.71101 0.09856 0.60548 0.0
H1402 H 0.76927 0.1158 0.54799 0.0
H1403 H 0.7423 0.07492 0.5956 0.0
H1404 H 0.75329 0.19999 0.55823 0.0
H1405 H 0.68865 0.21639 0.52645 0.0
H1406 H 0.65073 0.05302 0.55484 0.0
H1407 H 0.71167 0.07091 0.51811 0.0
H1408 H 0.04203 0.34991 0.10047 0.0
H1409 H 0.04665 0.37836 0.03526 0.0
H1410 H 0.00461 0.37847 0.03217 0.0
H1411 H 0.96655 0.3708 0.04818 0.0
H1412 H 0.96205 0.34309 0.11387 0.0
H1413 H 0.00401 0.34189 0.11627 0.0
C1414 C 0.03384 0.35591 0.08547 0.0
C1415 C 0.04745 0.36412 0.06814 0.0
C1416 C 0.00968 0.35599 0.08383 0.0
C1417 C 0.03656 0.37214 0.04895 0.0
C1418 C 0.01253 0.37214 0.04713 0.0
C1419 C 0.97473 0.36461 0.0631 0.0
C1420 C 0.96109 0.35704 0.08079 0.0
C1421 C 0.99891 0.36423 0.06454 0.0
C1422 C 0.97205 0.34877 0.09983 0.0
C1423 C 0.99608 0.34821 0.10131 0.0
H1424 H 0.95967 0.63761 0.54741 0.0
H1425 H 0.95446 0.66172 0.61473 0.0
H1426 H 0.99646 0.66334 0.61746 0.0
H1427 H 0.03457 0.65681 0.6013 0.0
H1428 H 0.03998 0.63361 0.53351 0.0
H1429 H 0.99801 0.63234 0.5306 0.0
C1430 C 0.96777 0.64317 0.56268 0.0
C1431 C 0.95399 0.64952 0.58084 0.0
C1432 C 0.99194 0.64409 0.56412 0.0
C1433 C 0.96469 0.65693 0.60043 0.0
C1434 C 0.98869 0.65776 0.60205 0.0
C1435 C 0.02663 0.65178 0.58573 0.0
C1436 C 0.04052 0.64526 0.56769 0.0
C1437 C 0.00249 0.65131 0.58404 0.0
C1438 C 0.02979 0.63842 0.54782 0.0
C1439 C 0.00576 0.6378 0.54607 0.0
H1440 H 0.9658 0.66719 0.94081 0.0
H1441 H 0.962 0.60976 0.90804 0.0
H1442 H 0.00394 0.60852 0.9056 0.0
H1443 H 0.04167 0.62362 0.9127 0.0
H1444 H 0.04595 0.68092 0.94564 0.0
H1445 H 0.00385 0.68257 0.94753 0.0
C1446 C 0.97415 0.65449 0.93298 0.0
C1447 C 0.96074 0.63853 0.92479 0.0
C1448 C 0.99836 0.65389 0.93154 0.0
C1449 C 0.97188 0.62209 0.91486 0.0
C1450 C 0.99587 0.62142 0.91332 0.0
C1451 C 0.03343 0.6364 0.92049 0.0
C1452 C 0.04698 0.65207 0.92911 0.0
C1453 C 0.00928 0.63717 0.9217 0.0
C1454 C 0.03595 0.66872 0.93868 0.0
C1455 C 0.01187 0.66962 0.9399 0.0
H1456 H 0.03621 0.36599 0.46228 0.0
H1457 H 0.0402 0.35787 0.39003 0.0
H1458 H 0.99831 0.3567 0.38771 0.0
H1459 H 0.96039 0.35918 0.40584 0.0
H1460 H 0.9561 0.36927 0.47761 0.0
H1461 H 0.99824 0.36894 0.48038 0.0
C1462 C 0.02797 0.36416 0.44598 0.0
C1463 C 0.04152 0.36192 0.4264 0.0
C1464 C 0.00377 0.36396 0.44464 0.0
C1465 C 0.03038 0.35923 0.40549 0.0
C1466 C 0.00635 0.35873 0.40408 0.0
C1467 C 0.96871 0.3611 0.42211 0.0
C1468 C 0.95521 0.36415 0.44151 0.0
C1469 C 0.99288 0.36115 0.42351 0.0
C1470 C 0.96618 0.36698 0.46243 0.0
C1471 C 0.99023 0.36675 0.46402 0.0
H1472 H 0.47136 0.83659 0.06863 0.0
H1473 H 0.46592 0.89994 0.08061 0.0
H1474 H 0.50783 0.90271 0.08215 0.0
H1475 H 0.54592 0.88715 0.08096 0.0
H1476 H 0.55184 0.82396 0.06813 0.0
H1477 H 0.50986 0.82105 0.06665 0.0
C1478 C 0.47938 0.85097 0.07166 0.0
C1479 C 0.46552 0.86804 0.0744 0.0
C1480 C 0.50355 0.85248 0.07255 0.0
C1481 C 0.47617 0.88661 0.0781 0.0
C1482 C 0.50014 0.8882 0.07913 0.0
C1483 C 0.5381 0.87277 0.07751 0.0
C1484 C 0.55211 0.85582 0.07463 0.0
C1485 C 0.51399 0.87124 0.07639 0.0
C1486 C 0.54153 0.83723 0.0707 0.0
C1487 C 0.5175 0.83557 0.06971 0.0
H1488 H 0.53538 0.16286 0.60644 0.0
H1489 H 0.53984 0.13514 0.54083 0.0
H1490 H 0.49784 0.13413 0.53828 0.0
H1491 H 0.45985 0.14033 0.55503 0.0
H1492 H 0.4552 0.16777 0.62075 0.0
H1493 H 0.49722 0.17014 0.62264 0.0
C1494 C 0.52716 0.15685 0.59145 0.0
C1495 C 0.54076 0.14897 0.57392 0.0
C1496 C 0.50296 0.15629 0.59009 0.0
C1497 C 0.5298 0.14102 0.55472 0.0
C1498 C 0.50578 0.14051 0.5532 0.0
C1499 C 0.46804 0.14675 0.56982 0.0
C1500 C 0.45439 0.15377 0.58776 0.0
C1501 C 0.49219 0.14789 0.57089 0.0
C1502 C 0.46526 0.16241 0.60661 0.0
C1503 C 0.48931 0.16366 0.60777 0.0
H1504 H 0.53784 0.15619 0.9051 0.0
H1505 H 0.54291 0.13171 0.97243 0.0
H1506 H 0.50106 0.1326 0.97602 0.0
H1507 H 0.46294 0.13938 0.95973 0.0
H1508 H 0.45797 0.16067 0.89102 0.0
H1509 H 0.49983 0.16189 0.8884 0.0
C1510 C 0.52987 0.1508 0.9205 0.0
C1511 C 0.5437 0.14388 0.93843 0.0
C1512 C 0.50573 0.15079 0.92226 0.0
C1513 C 0.53288 0.13744 0.95843 0.0
C1514 C 0.50887 0.13776 0.96046 0.0
C1515 C 0.47094 0.14409 0.94408 0.0
C1516 C 0.45713 0.15001 0.92567 0.0
C1517 C 0.49512 0.14426 0.94241 0.0
C1518 C 0.468 0.15642 0.90568 0.0
C1519 C 0.49201 0.15696 0.90406 0.0
H1520 H 0.4598 0.87642 0.45401 0.0
H1521 H 0.45622 0.83167 0.40182 0.0
H1522 H 0.49834 0.82986 0.40075 0.0
H1523 H 0.53621 0.84192 0.41371 0.0
H1524 H 0.53966 0.88715 0.4654 0.0
H1525 H 0.49758 0.8878 0.46769 0.0
C1526 C 0.46825 0.86609 0.44262 0.0
C1527 C 0.45493 0.85419 0.42802 0.0
C1528 C 0.49244 0.86529 0.44194 0.0
C1529 C 0.46612 0.84111 0.41307 0.0
C1530 C 0.49018 0.84002 0.41251 0.0
C1531 C 0.52772 0.85173 0.42566 0.0
C1532 C 0.541 0.86448 0.43934 0.0
C1533 C 0.50352 0.85217 0.42672 0.0
C1534 C 0.52979 0.87734 0.45453 0.0
C1535 C 0.50575 0.87767 0.4559 0.0
H1536 H 0.22048 0.37702 0.21726 0.0
H1537 H 0.14935 0.35865 0.21133 0.0
H1538 H 0.14567 0.35813 0.25229 0.0
H1539 H 0.16238 0.36296 0.28978 0.0
H1540 H 0.23303 0.38244 0.29628 0.0
H1541 H 0.23719 0.3823 0.25518 0.0
C1542 C 0.20415 0.37303 0.22495 0.0
C1543 C 0.18528 0.36774 0.21119 0.0
C1544 C 0.20206 0.37289 0.24863 0.0
C1545 C 0.16429 0.36242 0.22146 0.0
C1546 C 0.1621 0.36225 0.24492 0.0
C1547 C 0.17864 0.36739 0.28224 0.0
C1548 C 0.19732 0.3728 0.29615 0.0
C1549 C 0.18084 0.36746 0.25865 0.0
C1550 C 0.21842 0.37803 0.28602 0.0
C1551 C 0.22077 0.37808 0.2625 0.0
H1552 H 0.80426 0.6133 0.71692 0.0
H1553 H 0.80833 0.67754 0.71271 0.0
H1554 H 0.80904 0.6798 0.7538 0.0
H1555 H 0.80927 0.66356 0.79101 0.0
H1556 H 0.80435 0.59945 0.79534 0.0
H1557 H 0.8026 0.59716 0.75417 0.0
C1558 C 0.80492 0.62782 0.72496 0.0
C1559 C 0.80639 0.6452 0.71164 0.0
C1560 C 0.80513 0.62905 0.74865 0.0
C1561 C 0.8076 0.66387 0.72246 0.0
C1562 C 0.80788 0.6652 0.74599 0.0
C1563 C 0.80784 0.6491 0.78292 0.0
C1564 C 0.807 0.63171 0.7962 0.0
C1565 C 0.80688 0.64789 0.75925 0.0
C1566 C 0.80482 0.61308 0.7855 0.0
C1567 C 0.80395 0.61175 0.76196 0.0
H1568 H 0.16065 0.63999 0.7912 0.0
H1569 H 0.23459 0.63409 0.79473 0.0
H1570 H 0.23682 0.63378 0.75341 0.0
H1571 H 0.21771 0.63628 0.71631 0.0
H1572 H 0.14342 0.64055 0.71329 0.0
H1573 H 0.14147 0.64081 0.75431 0.0
C1574 C 0.17725 0.63873 0.78289 0.0
C1575 C 0.19744 0.63725 0.79594 0.0
C1576 C 0.17837 0.63843 0.75922 0.0
C1577 C 0.21881 0.63521 0.785 0.0
C1578 C 0.22009 0.63511 0.7614 0.0
C1579 C 0.20106 0.63703 0.72458 0.0
C1580 C 0.18079 0.6387 0.71156 0.0
C1581 C 0.19997 0.63681 0.74832 0.0
C1582 C 0.1594 0.6398 0.72273 0.0
C1583 C 0.15821 0.63978 0.74626 0.0
H1584 H 0.8436 0.37611 0.21694 0.0
H1585 H 0.77028 0.36598 0.21113 0.0
H1586 H 0.76651 0.36735 0.25219 0.0
H1587 H 0.78433 0.37015 0.28996 0.0
H1588 H 0.85788 0.37868 0.29536 0.0
H1589 H 0.86131 0.37877 0.25427 0.0
C1590 C 0.8268 0.37395 0.22459 0.0
C1591 C 0.80729 0.37083 0.21085 0.0
C1592 C 0.82481 0.37436 0.2482 0.0
C1593 C 0.78559 0.36861 0.22119 0.0
C1594 C 0.78342 0.36926 0.24471 0.0
C1595 C 0.80105 0.37216 0.28207 0.0
C1596 C 0.82084 0.3743 0.29564 0.0
C1597 C 0.80294 0.372 0.25839 0.0
C1598 C 0.84245 0.37675 0.28526 0.0
C1599 C 0.84441 0.37688 0.26178 0.0
H1600 H 0.71135 0.85498 0.29346 0.0
H1601 H 0.67023 0.90865 0.29539 0.0
H1602 H 0.67128 0.91076 0.25433 0.0
H1603 H 0.68233 0.89665 0.21776 0.0
H1604 H 0.72375 0.84328 0.21538 0.0
H1605 H 0.72464 0.84206 0.25669 0.0
C1606 C 0.70293 0.86731 0.28493 0.0
C1607 C 0.69046 0.88147 0.29755 0.0
C1608 C 0.70365 0.8685 0.26121 0.0
C1609 C 0.67953 0.89729 0.28613 0.0
C1610 C 0.68021 0.89858 0.26262 0.0
C1611 C 0.69156 0.88476 0.2263 0.0
C1612 C 0.70278 0.86999 0.21354 0.0
C1613 C 0.69188 0.8841 0.24998 0.0
C1614 C 0.71505 0.85488 0.22482 0.0
C1615 C 0.71545 0.85412 0.24844 0.0
H1616 H 0.29956 0.10969 0.78933 0.0
H1617 H 0.29605 0.17379 0.79615 0.0
H1618 H 0.29349 0.17728 0.75528 0.0
H1619 H 0.29433 0.16236 0.71745 0.0
H1620 H 0.30139 0.09848 0.71066 0.0
H1621 H 0.30045 0.09479 0.75156 0.0
C1622 C 0.2984 0.12446 0.78194 0.0
C1623 C 0.29808 0.14143 0.79599 0.0
C1624 C 0.29759 0.12644 0.75833 0.0
C1625 C 0.296 0.1604 0.78594 0.0
C1626 C 0.29475 0.16245 0.76248 0.0
C1627 C 0.29581 0.14762 0.72487 0.0
C1628 C 0.29792 0.13075 0.71083 0.0
C1629 C 0.29587 0.1456 0.7485 0.0
C1630 C 0.29935 0.11175 0.72089 0.0
C1631 C 0.29902 0.10961 0.74435 0.0
H1632 H 0.71762 0.13438 0.79104 0.0
H1633 H 0.64355 0.1306 0.79678 0.0
H1634 H 0.63989 0.13044 0.75574 0.0
H1635 H 0.65754 0.13174 0.71828 0.0
H1636 H 0.73152 0.13633 0.7121 0.0
H1637 H 0.73542 0.1353 0.75319 0.0
C1638 C 0.70071 0.13336 0.78327 0.0
C1639 C 0.68089 0.13267 0.79695 0.0
C1640 C 0.6987 0.13334 0.75959 0.0
C1641 C 0.65907 0.13148 0.78664 0.0
C1642 C 0.65695 0.13129 0.76318 0.0
C1643 C 0.67453 0.13271 0.72589 0.0
C1644 C 0.69418 0.13423 0.71207 0.0
C1645 C 0.67663 0.13238 0.7495 0.0
C1646 C 0.71609 0.13498 0.72228 0.0
C1647 C 0.71833 0.13451 0.7458 0.0
H1648 H 0.28658 0.86833 0.21563 0.0
H1649 H 0.35964 0.88056 0.21277 0.0
H1650 H 0.3615 0.88135 0.25386 0.0
H1651 H 0.34271 0.87803 0.29063 0.0
H1652 H 0.26975 0.86578 0.29406 0.0
H1653 H 0.26742 0.86604 0.25279 0.0
C1654 C 0.30285 0.87138 0.22401 0.0
C1655 C 0.32298 0.87415 0.21109 0.0
C1656 C 0.30382 0.87186 0.24776 0.0
C1657 C 0.34395 0.87796 0.22226 0.0
C1658 C 0.34503 0.87854 0.24578 0.0
C1659 C 0.32632 0.87527 0.28236 0.0
C1660 C 0.30648 0.87173 0.29543 0.0
C1661 C 0.32514 0.87531 0.25869 0.0
C1662 C 0.28527 0.86865 0.28442 0.0
C1663 C 0.28395 0.8687 0.26082 0.0
H1664 H 0.29415 0.23968 0.98761 0.0
H1665 H 0.22841 0.21052 0.97832 0.0
H1666 H 0.20891 0.23857 0.99639 0.0
H1667 H 0.21058 0.27104 0.0156 0.0
H1668 H 0.27638 0.29996 0.02527 0.0
H1669 H 0.29583 0.27208 0.00682 0.0
C1670 C 0.27557 0.23934 0.98973 0.0
C1671 C 0.2628 0.22296 0.98162 0.0
C1672 C 0.26448 0.25543 1.00034 0.0
C1673 C 0.23867 0.22301 0.98414 0.0
C1674 C 0.22751 0.239 0.99461 0.0
C1675 C 0.22916 0.27134 0.01348 0.0
C1676 C 0.24199 0.28759 0.02181 0.0
C1677 C 0.24024 0.25527 1.0028 0.0
C1678 C 0.2661 0.28755 0.01925 0.0
C1679 C 0.27723 0.27166 0.00859 0.0
H1680 H 0.77547 0.74349 0.53824 0.0
H1681 H 0.75263 0.70175 0.48758 0.0
H1682 H 0.7353 0.72903 0.46587 0.0
H1683 H 0.72559 0.7646 0.46205 0.0
H1684 H 0.75053 0.80649 0.51184 0.0
H1685 H 0.76776 0.77927 0.53325 0.0
C1686 C 0.76663 0.74041 0.52246 0.0
C1687 C 0.76514 0.72068 0.51457 0.0
C1688 C 0.75699 0.75616 0.50999 0.0
C1689 C 0.75401 0.71686 0.49394 0.0
C1690 C 0.74406 0.73243 0.48158 0.0
C1691 C 0.73509 0.76787 0.47738 0.0
C1692 C 0.73645 0.78765 0.48536 0.0
C1693 C 0.74537 0.75215 0.48949 0.0
C1694 C 0.74867 0.79143 0.50547 0.0
C1695 C 0.7587 0.77587 0.5177 0.0
H1696 H 0.29844 0.76829 0.0198 0.0
H1697 H 0.23411 0.79925 0.03047 0.0
H1698 H 0.21316 0.772 0.0123 0.0
H1699 H 0.21319 0.73979 0.99241 0.0
H1700 H 0.27762 0.70912 0.98132 0.0
H1701 H 0.29847 0.7361 1.0001 0.0
C1702 C 0.27986 0.76919 0.01798 0.0
C1703 C 0.26791 0.78586 0.02649 0.0
C1704 C 0.26793 0.75357 0.00729 0.0
C1705 C 0.24376 0.78652 0.02435 0.0
C1706 C 0.23176 0.771 0.01382 0.0
C1707 C 0.23177 0.73891 0.99431 0.0
C1708 C 0.2438 0.72245 0.98543 0.0
C1709 C 0.24367 0.75447 0.00517 0.0
C1710 C 0.26793 0.72172 0.98773 0.0
C1711 C 0.27987 0.73709 0.99858 0.0
H1712 H 0.7134 0.22847 0.49988 0.0
H1713 H 0.75765 0.23397 0.55834 0.0
H1714 H 0.77686 0.26245 0.54114 0.0
H1715 H 0.7814 0.2857 0.50947 0.0
H1716 H 0.73377 0.28273 0.45337 0.0
H1717 H 0.7156 0.25349 0.46992 0.0
C1718 C 0.72692 0.23603 0.50918 0.0
C1719 C 0.73403 0.22874 0.53042 0.0
C1720 C 0.73744 0.25291 0.49957 0.0
C1721 C 0.75204 0.23872 0.54176 0.0
C1722 C 0.76295 0.25522 0.53203 0.0
C1723 C 0.76679 0.27897 0.50097 0.0
C1724 C 0.7593 0.28648 0.47995 0.0
C1725 C 0.75582 0.26244 0.51092 0.0
C1726 C 0.74049 0.27712 0.4692 0.0
C1727 C 0.72987 0.26043 0.47877 0.0
H1728 H 0.71441 0.76866 0.01542 0.0
H1729 H 0.7804 0.79134 0.03725 0.0
H1730 H 0.79986 0.7634 0.01879 0.0
H1731 H 0.79816 0.73292 0.99586 0.0
H1732 H 0.73195 0.70959 0.97527 0.0
H1733 H 0.71265 0.73766 0.99333 0.0
C1734 C 0.73306 0.76754 0.016 0.0
C1735 C 0.74594 0.78208 0.02763 0.0
C1736 C 0.74413 0.75141 0.00544 0.0
C1737 C 0.77008 0.78025 0.02856 0.0
C1738 C 0.78122 0.76434 0.01792 0.0
C1739 C 0.77949 0.73379 0.99553 0.0
C1740 C 0.76661 0.7191 0.98408 0.0
C1741 C 0.76842 0.74983 0.0063 0.0
C1742 C 0.74241 0.72079 0.98357 0.0
C1743 C 0.7313 0.73679 0.99405 0.0
H1744 H 0.28671 0.24263 0.5272 0.0
H1745 H 0.23059 0.20272 0.51132 0.0
H1746 H 0.21068 0.22956 0.49125 0.0
H1747 H 0.20947 0.2642 0.47778 0.0
H1748 H 0.26501 0.30444 0.49489 0.0
H1749 H 0.28513 0.27749 0.51434 0.0
C1750 C 0.27019 0.23978 0.5192 0.0
C1751 C 0.26017 0.22069 0.5207 0.0
C1752 C 0.2588 0.2553 0.50776 0.0
C1753 C 0.23858 0.21732 0.51057 0.0
C1754 C 0.22724 0.23264 0.499 0.0
C1755 C 0.22585 0.26719 0.48596 0.0
C1756 C 0.23567 0.2864 0.48474 0.0
C1757 C 0.23718 0.25169 0.4975 0.0
C1758 C 0.25715 0.28978 0.49516 0.0
C1759 C 0.26862 0.27439 0.50647 0.0
H1760 H 0.76276 0.2919 0.99587 0.0
H1761 H 0.76589 0.26381 0.06133 0.0
H1762 H 0.7486 0.23348 0.04575 0.0
H1763 H 0.73396 0.21455 0.01319 0.0
H1764 H 0.72977 0.24322 0.94797 0.0
H1765 H 0.7466 0.27348 0.9637 0.0
C1766 C 0.75969 0.27911 0.0067 0.0
C1767 C 0.76565 0.28008 0.02969 0.0
C1768 C 0.74977 0.26174 0.99763 0.0
C1769 C 0.76126 0.26351 0.04361 0.0
C1770 C 0.75151 0.24612 0.03468 0.0
C1771 C 0.73644 0.22747 1.00244 0.0
C1772 C 0.73076 0.22642 0.97933 0.0
C1773 C 0.74582 0.24503 0.01168 0.0
C1774 C 0.73442 0.24334 0.96569 0.0
C1775 C 0.74388 0.26077 0.9747 0.0
H1776 H 0.21574 0.74353 0.53409 0.0
H1777 H 0.26159 0.70142 0.50219 0.0
H1778 H 0.28011 0.72851 0.48139 0.0
H1779 H 0.2835 0.76416 0.47242 0.0
H1780 H 0.23742 0.8063 0.50397 0.0
H1781 H 0.21918 0.77926 0.52513 0.0
C1782 C 0.22994 0.74031 0.52276 0.0
C1783 C 0.23724 0.72045 0.51971 0.0
C1784 C 0.24055 0.75597 0.51084 0.0
C1785 C 0.25543 0.71652 0.50467 0.0
C1786 C 0.26612 0.73202 0.49284 0.0
C1787 C 0.26931 0.76743 0.48375 0.0
C1788 C 0.26185 0.78727 0.48655 0.0
C1789 C 0.25877 0.75179 0.49574 0.0
C1790 C 0.24372 0.79123 0.50166 0.0
C1791 C 0.23318 0.77575 0.51368 0.0
H1792 H 0.22288 0.53445 0.98715 0.0
H1793 H 0.14855 0.53696 0.98344 0.0
H1794 H 0.14573 0.50596 0.00472 0.0
H1795 H 0.16411 0.47798 0.02405 0.0
H1796 H 0.2383 0.47556 0.0292 0.0
H1797 H 0.24139 0.50662 0.00766 0.0
C1798 C 0.20607 0.52829 0.99116 0.0
C1799 C 0.18598 0.53798 0.98348 0.0
C1800 C 0.20452 0.51044 1.00362 0.0
C1801 C 0.16433 0.52966 0.98868 0.0
C1802 C 0.16267 0.51198 1.00102 0.0
C1803 C 0.18098 0.48436 0.02078 0.0
C1804 C 0.20093 0.47446 0.02837 0.0
C1805 C 0.18262 0.50223 0.00853 0.0
C1806 C 0.22265 0.48275 0.02342 0.0
C1807 C 0.22443 0.50057 0.01119 0.0
H1808 H 0.79722 0.54589 0.49989 0.0
H1809 H 0.80056 0.51662 0.56471 0.0
H1810 H 0.79916 0.48403 0.54623 0.0
H1811 H 0.79921 0.46386 0.51151 0.0
H1812 H 0.79644 0.49322 0.44673 0.0
H1813 H 0.79516 0.52574 0.46533 0.0
C1814 C 0.79724 0.53239 0.50999 0.0
C1815 C 0.79905 0.53371 0.53364 0.0
C1816 C 0.79664 0.51371 0.49925 0.0
C1817 C 0.79944 0.51603 0.54646 0.0
C1818 C 0.79857 0.49739 0.53591 0.0
C1819 C 0.79792 0.47737 0.50149 0.0
C1820 C 0.79798 0.47612 0.47778 0.0
C1821 C 0.79749 0.49604 0.5123 0.0
C1822 C 0.79666 0.49379 0.46501 0.0
C1823 C 0.79589 0.51238 0.47563 0.0
H1824 H 0.81774 0.45928 0.99477 0.0
H1825 H 0.79925 0.48517 0.05889 0.0
H1826 H 0.79725 0.51825 0.04148 0.0
H1827 H 0.80282 0.54001 0.00845 0.0
H1828 H 0.82051 0.5138 0.94416 0.0
H1829 H 0.82117 0.48074 0.96135 0.0
C1830 C 0.8133 0.47218 0.00492 0.0
C1831 C 0.80879 0.4698 0.0281 0.0
C1832 C 0.81223 0.49112 0.99483 0.0
C1833 C 0.80266 0.48659 0.04098 0.0
C1834 C 0.80164 0.50552 0.03106 0.0
C1835 C 0.80645 0.52705 0.99809 0.0
C1836 C 0.81181 0.52949 0.97505 0.0
C1837 C 0.80661 0.50799 0.00804 0.0
C1838 C 0.81677 0.51247 0.96202 0.0
C1839 C 0.81702 0.49351 0.97179 0.0
H1840 H 0.19378 0.46207 0.51515 0.0
H1841 H 0.19456 0.48943 0.44909 0.0
H1842 H 0.19577 0.52241 0.46634 0.0
H1843 H 0.19453 0.54368 0.50015 0.0
H1844 H 0.19124 0.51645 0.56606 0.0
H1845 H 0.19258 0.48327 0.54889 0.0
C1846 C 0.19403 0.47522 0.50447 0.0
C1847 C 0.19411 0.47312 0.4808 0.0
C1848 C 0.19411 0.49422 0.51449 0.0
C1849 C 0.19489 0.49044 0.46733 0.0
C1850 C 0.19537 0.50938 0.47719 0.0
C1851 C 0.19439 0.53047 0.51074 0.0
C1852 C 0.19284 0.53248 0.53433 0.0
C1853 C 0.19479 0.51146 0.50073 0.0
C1854 C 0.19229 0.51525 0.54785 0.0
C1855 C 0.1931 0.4963 0.53805 0.0
H1856 H 0.70156 0.01694 0.9613 0.0
H1857 H 0.7075 0.05383 0.02065 0.0
H1858 H 0.71014 0.02406 0.04443 0.0
H1859 H 0.70846 0.9875 0.04851 0.0
H1860 H 0.70235 0.95068 0.98908 0.0
H1861 H 0.70224 0.9804 0.96517 0.0
C1862 C 0.70351 0.01842 0.97943 0.0
C1863 C 0.70421 0.03754 0.98922 0.0
C1864 C 0.70495 1.00125 0.99298 0.0
C1865 C 0.70709 0.03928 0.0127 0.0
C1866 C 0.70845 0.02227 0.02631 0.0
C1867 C 0.70719 0.98601 0.03032 0.0
C1868 C 0.70532 0.96692 0.0206 0.0
C1869 C 0.70705 1.00318 0.01667 0.0
C1870 C 0.70401 0.96519 0.99697 0.0
C1871 C 0.70379 0.98218 0.9833 0.0
H1872 H 0.34013 0.97549 0.48446 0.0
H1873 H 0.26589 0.97139 0.48232 0.0
H1874 H 0.26282 1.00258 0.50357 0.0
H1875 H 0.28137 0.03121 0.52259 0.0
H1876 H 0.35569 0.0354 0.52328 0.0
H1877 H 0.35851 0.00408 0.50265 0.0
C1878 C 0.32324 0.98151 0.48837 0.0
C1879 C 0.30328 0.97112 0.48164 0.0
C1880 C 0.32161 0.99949 0.5004 0.0
C1881 C 0.28156 0.97896 0.48741 0.0
C1882 C 0.27979 0.99686 0.49946 0.0
C1883 C 0.29817 0.02534 0.51807 0.0
C1884 C 0.31828 0.03563 0.52466 0.0
C1885 C 0.29971 0.00729 0.506 0.0
C1886 C 0.33992 0.02766 0.51884 0.0
C1887 C 0.34157 0.00979 0.50689 0.0
H1888 H 0.29494 0.98556 0.03922 0.0
H1889 H 0.34398 0.95808 0.99407 0.0
H1890 H 0.34506 0.98826 0.97119 0.0
H1891 H 0.33288 0.02272 0.96431 0.0
H1892 H 0.28331 0.05027 0.00866 0.0
H1893 H 0.28118 0.01966 0.03114 0.0
C1894 C 0.30564 0.98607 0.02422 0.0
C1895 C 0.3196 0.96961 0.01863 0.0
C1896 C 0.30605 1.00348 0.01092 0.0
C1897 C 0.33347 0.97065 0.99916 0.0
C1898 C 0.33399 0.98788 0.98592 0.0
C1899 C 0.32164 0.02203 0.97893 0.0
C1900 C 0.30838 0.03878 0.98488 0.0
C1901 C 0.32056 0.00445 0.99177 0.0
C1902 C 0.29359 0.03754 1.00363 0.0
C1903 C 0.29247 0.02008 0.01657 0.0
H1904 H 0.71524 0.03252 0.52588 0.0
H1905 H 0.6434 0.04493 0.51321 0.0
H1906 H 0.63984 0.01404 0.49163 0.0
H1907 H 0.65685 0.98335 0.47694 0.0
H1908 H 0.72813 0.96963 0.49129 0.0
H1909 H 0.73235 1.0014 0.51105 0.0
C1910 C 0.69889 0.02847 0.51824 0.0
C1911 C 0.67958 0.04089 0.52121 0.0
C1912 C 0.69688 0.01052 0.50608 0.0
C1913 C 0.65843 0.03546 0.51138 0.0
C1914 C 0.6564 0.01785 0.49897 0.0
C1915 C 0.67327 0.98714 0.48458 0.0
C1916 C 0.69208 0.97396 0.48267 0.0
C1917 C 0.67545 0.00518 0.4964 0.0
C1918 C 0.71338 0.97951 0.49222 0.0
C1919 C 0.71579 0.99763 0.50371 0.0
loop_
_geom_bond_atom_site_label_1
_geom_bond_atom_site_label_2
_geom_bond_distance
_geom_bond_site_symmetry_2
_ccdc_geom_bond_type
Li0 N17 1.990 . S
Li0 O60 1.956 . S
Li0 O61 1.970 . S
Li0 O62 1.961 . S
Li1 N25 1.990 . S
Li1 O60 1.970 . S
Li1 O61 1.956 . S
Li1 O63 1.961 . S
Li2 N47 1.990 . S
Li2 O60 1.961 . S
Li2 O62 1.956 . S
Li2 O63 1.970 . S
Li3 N53 1.990 . S
Li3 O61 1.961 . S
Li3 O62 1.970 . S
Li3 O63 1.956 . S
C4 C6 1.348 . S
C4 C7 1.356 . S
C4 O60 1.325 . S
N5 C8 1.314 . S
N5 C9 1.279 . S
C6 C4 1.348 . S
C6 C8 1.353 . S
C6 H64 0.929 . S
C7 C4 1.356 . S
C7 C9 1.358 . S
C7 H65 0.930 . S
C8 N5 1.314 . S
C8 C6 1.353 . S
C8 H66 0.930 . S
C9 N5 1.279 . S
C9 C7 1.358 . S
C9 H67 0.930 . S
C10 C13 1.348 . S
C10 C14 1.356 . S
C10 O61 1.325 . S
C11 N12 1.279 . S
C11 C14 1.358 . S
C11 H68 0.930 . S
N12 C11 1.279 . S
N12 C15 1.314 . S
C13 C10 1.348 . S
C13 C15 1.353 . S
C13 H69 0.929 . S
C14 C10 1.356 . S
C14 C11 1.358 . S
C14 H70 0.930 . S
C15 N12 1.314 . S
C15 C13 1.353 . S
C15 H71 0.930 . S
C16 N17 1.314 . S
C16 C21 1.353 . S
C16 H22 0.930 . S
N17 Li0 1.990 . S
N17 C16 1.314 . S
N17 C19 1.279 . S
C18 C19 1.358 . S
C18 C20 1.356 . S
C18 H72 0.930 . S
C19 N17 1.279 . S
C19 C18 1.358 . S
C19 H23 0.930 . S
C20 C18 1.356 . S
C20 C21 1.348 . S
C21 C16 1.353 . S
C21 C20 1.348 . S
C21 H73 0.929 . S
H22 C16 0.930 . S
H23 C19 0.930 . S
C24 N25 1.314 . S
C24 C26 1.353 . S
C24 H30 0.930 . S
N25 Li1 1.990 . S
N25 C24 1.314 . S
N25 C28 1.279 . S
C26 C24 1.353 . S
C26 C29 1.348 . S
C26 H74 0.929 . S
C27 C28 1.358 . S
C27 C29 1.356 . S
C27 H75 0.930 . S
C28 N25 1.279 . S
C28 C27 1.358 . S
C28 H31 0.930 . S
C29 C26 1.348 . S
C29 C27 1.356 . S
H30 C24 0.930 . S
H31 C28 0.930 . S
C32 C34 1.348 . S
C32 C35 1.356 . S
C32 O62 1.325 . S
N33 C36 1.314 . S
N33 C37 1.279 . S
C34 C32 1.348 . S
C34 C36 1.353 . S
C34 H76 0.929 . S
C35 C32 1.356 . S
C35 C37 1.358 . S
C35 H77 0.930 . S
C36 N33 1.314 . S
C36 C34 1.353 . S
C36 H78 0.930 . S
C37 N33 1.279 . S
C37 C35 1.358 . S
C37 H79 0.930 . S
C38 C39 1.348 . S
C38 C40 1.356 . S
C38 O63 1.325 . S
C39 C38 1.348 . S
C39 C41 1.353 1_554 S
C39 H80 0.929 . S
C40 C38 1.356 . S
C40 C42 1.358 1_554 S
C40 H81 0.930 . S
C41 C39 1.353 1_556 S
C41 N43 1.314 . S
C41 H82 0.930 . S
C42 C40 1.358 1_556 S
C42 N43 1.279 . S
C42 H83 0.930 . S
N43 C41 1.314 . S
N43 C42 1.279 . S
C44 C46 1.353 . S
C44 N47 1.314 . S
C44 H50 0.930 . S
C45 N47 1.279 . S
C45 C48 1.358 . S
C45 H51 0.930 . S
C46 C44 1.353 . S
C46 C49 1.348 . S
C46 H84 0.929 . S
N47 Li2 1.990 . S
N47 C44 1.314 . S
N47 C45 1.279 . S
C48 C45 1.358 . S
C48 C49 1.356 . S
C48 H85 0.930 . S
C49 C46 1.348 . S
C49 C48 1.356 . S
H50 C44 0.930 . S
H51 C45 0.930 . S
C52 N53 1.314 . S
C52 C54 1.353 . S
C52 H58 0.930 . S
N53 Li3 1.990 . S
N53 C52 1.314 . S
N53 C56 1.279 . S
C54 C52 1.353 . S
C54 C57 1.348 . S
C54 H86 0.929 . S
C55 C56 1.358 . S
C55 C57 1.356 . S
C55 H87 0.930 . S
C56 N53 1.279 . S
C56 C55 1.358 . S
C56 H59 0.930 . S
C57 C54 1.348 . S
C57 C55 1.356 . S
H58 C52 0.930 . S
H59 C56 0.930 . S
O60 Li0 1.956 . S
O60 Li1 1.970 . S
O60 Li2 1.961 . S
O60 C4 1.325 . S
O61 Li0 1.970 . S
O61 Li1 1.956 . S
O61 Li3 1.961 . S
O61 C10 1.325 . S
O62 Li0 1.961 . S
O62 Li2 1.956 . S
O62 Li3 1.970 . S
O62 C32 1.325 . S
O63 Li1 1.961 . S
O63 Li2 1.970 . S
O63 Li3 1.956 . S
O63 C38 1.325 . S
H64 C6 0.929 . S
H65 C7 0.930 . S
H66 C8 0.930 . S
H67 C9 0.930 . S
H68 C11 0.930 . S
H69 C13 0.929 . S
H70 C14 0.930 . S
H71 C15 0.930 . S
H72 C18 0.930 . S
H73 C21 0.929 . S
H74 C26 0.929 . S
H75 C27 0.930 . S
H76 C34 0.929 . S
H77 C35 0.930 . S
H78 C36 0.930 . S
H79 C37 0.930 . S
H80 C39 0.929 . S
H81 C40 0.930 . S
H82 C41 0.930 . S
H83 C42 0.930 . S
H84 C46 0.929 . S
H85 C48 0.930 . S
H86 C54 0.929 . S
H87 C55 0.930 . S
Li88 N105 1.990 . S
Li88 O148 1.956 . S
Li88 O149 1.970 . S
Li88 O150 1.961 . S
Li89 N113 1.990 . S
Li89 O148 1.970 . S
Li89 O149 1.956 . S
Li89 O151 1.961 . S
Li90 N135 1.990 . S
Li90 O148 1.961 . S
Li90 O150 1.956 . S
Li90 O151 1.970 . S
Li91 N141 1.990 . S
Li91 O149 1.961 . S
Li91 O150 1.970 . S
Li91 O151 1.956 . S
C92 C94 1.348 . S
C92 C95 1.356 . S
C92 O148 1.325 . S
N93 C96 1.314 . S
N93 C97 1.279 . S
C94 C92 1.348 . S
C94 C96 1.353 . S
C94 H152 0.929 . S
C95 C92 1.356 . S
C95 C97 1.358 . S
C95 H153 0.930 . S
C96 N93 1.314 . S
C96 C94 1.353 . S
C96 H154 0.930 . S
C97 N93 1.279 . S
C97 C95 1.358 . S
C97 H155 0.930 . S
C98 C101 1.348 . S
C98 C102 1.356 . S
C98 O149 1.325 . S
C99 N100 1.279 . S
C99 C102 1.358 . S
C99 H156 0.930 . S
N100 C99 1.279 . S
N100 C103 1.314 . S
C101 C98 1.348 . S
C101 C103 1.353 . S
C101 H157 0.929 . S
C102 C98 1.356 . S
C102 C99 1.358 . S
C102 H158 0.930 . S
C103 N100 1.314 . S
C103 C101 1.353 . S
C103 H159 0.930 . S
C104 N105 1.314 . S
C104 C109 1.353 . S
C104 H110 0.930 . S
N105 Li88 1.990 . S
N105 C104 1.314 . S
N105 C107 1.279 . S
C106 C107 1.358 . S
C106 C108 1.356 . S
C106 H160 0.930 . S
C107 N105 1.279 . S
C107 C106 1.358 . S
C107 H111 0.930 . S
C108 C106 1.356 . S
C108 C109 1.348 . S
C109 C104 1.353 . S
C109 C108 1.348 . S
C109 H161 0.929 . S
H110 C104 0.930 . S
H111 C107 0.930 . S
C112 N113 1.314 . S
C112 C114 1.353 . S
C112 H118 0.930 . S
N113 Li89 1.990 . S
N113 C112 1.314 . S
N113 C116 1.279 . S
C114 C112 1.353 . S
C114 C117 1.348 . S
C114 H162 0.929 . S
C115 C116 1.358 . S
C115 C117 1.356 . S
C115 H163 0.930 . S
C116 N113 1.279 . S
C116 C115 1.358 . S
C116 H119 0.930 . S
C117 C114 1.348 . S
C117 C115 1.356 . S
H118 C112 0.930 . S
H119 C116 0.930 . S
C120 C122 1.348 . S
C120 C123 1.356 . S
C120 O150 1.325 . S
N121 C124 1.314 . S
N121 C125 1.279 . S
C122 C120 1.348 . S
C122 C124 1.353 . S
C122 H164 0.929 . S
C123 C120 1.356 . S
C123 C125 1.358 . S
C123 H165 0.930 . S
C124 N121 1.314 . S
C124 C122 1.353 . S
C124 H166 0.930 . S
C125 N121 1.279 . S
C125 C123 1.358 . S
C125 H167 0.930 . S
C126 C127 1.348 . S
C126 C128 1.356 . S
C126 O151 1.325 . S
C127 C126 1.348 . S
C127 C129 1.353 . S
C127 H168 0.929 . S
C128 C126 1.356 . S
C128 C130 1.358 . S
C128 H169 0.930 . S
C129 C127 1.353 . S
C129 N131 1.314 . S
C129 H170 0.930 . S
C130 C128 1.358 . S
C130 N131 1.279 . S
C130 H171 0.930 . S
N131 C129 1.314 . S
N131 C130 1.279 . S
C132 C134 1.353 . S
C132 N135 1.314 . S
C132 H138 0.930 . S
C133 N135 1.279 . S
C133 C136 1.358 . S
C133 H139 0.930 . S
C134 C132 1.353 . S
C134 C137 1.348 . S
C134 H172 0.929 . S
N135 Li90 1.990 . S
N135 C132 1.314 . S
N135 C133 1.279 . S
C136 C133 1.358 . S
C136 C137 1.356 . S
C136 H173 0.930 . S
C137 C134 1.348 . S
C137 C136 1.356 . S
H138 C132 0.930 . S
H139 C133 0.930 . S
C140 N141 1.314 . S
C140 C142 1.353 . S
C140 H146 0.930 . S
N141 Li91 1.990 . S
N141 C140 1.314 . S
N141 C144 1.279 . S
C142 C140 1.353 . S
C142 C145 1.348 . S
C142 H174 0.929 . S
C143 C144 1.358 . S
C143 C145 1.356 . S
C143 H175 0.930 . S
C144 N141 1.279 . S
C144 C143 1.358 . S
C144 H147 0.930 . S
C145 C142 1.348 . S
C145 C143 1.356 . S
H146 C140 0.930 . S
H147 C144 0.930 . S
O148 Li88 1.956 . S
O148 Li89 1.970 . S
O148 Li90 1.961 . S
O148 C92 1.325 . S
O149 Li88 1.970 . S
O149 Li89 1.956 . S
O149 Li91 1.961 . S
O149 C98 1.325 . S
O150 Li88 1.961 . S
O150 Li90 1.956 . S
O150 Li91 1.970 . S
O150 C120 1.325 . S
O151 Li89 1.961 . S
O151 Li90 1.970 . S
O151 Li91 1.956 . S
O151 C126 1.325 . S
H152 C94 0.929 . S
H153 C95 0.930 . S
H154 C96 0.930 . S
H155 C97 0.930 . S
H156 C99 0.930 . S
H157 C101 0.929 . S
H158 C102 0.930 . S
H159 C103 0.930 . S
H160 C106 0.930 . S
H161 C109 0.929 . S
H162 C114 0.929 . S
H163 C115 0.930 . S
H164 C122 0.929 . S
H165 C123 0.930 . S
H166 C124 0.930 . S
H167 C125 0.930 . S
H168 C127 0.929 . S
H169 C128 0.930 . S
H170 C129 0.930 . S
H171 C130 0.930 . S
H172 C134 0.929 . S
H173 C136 0.930 . S
H174 C142 0.929 . S
H175 C143 0.930 . S
Li176 N193 1.990 . S
Li176 O236 1.956 . S
Li176 O237 1.970 . S
Li176 O238 1.961 . S
Li177 N201 1.990 . S
Li177 O236 1.970 . S
Li177 O237 1.956 . S
Li177 O239 1.961 . S
Li178 N223 1.990 . S
Li178 O236 1.961 . S
Li178 O238 1.956 . S
Li178 O239 1.970 . S
Li179 N229 1.990 . S
Li179 O237 1.961 . S
Li179 O238 1.970 . S
Li179 O239 1.956 . S
C180 C182 1.348 . S
C180 C183 1.356 . S
C180 O236 1.325 . S
N181 C184 1.314 . S
N181 C185 1.279 . S
C182 C180 1.348 . S
C182 C184 1.353 . S
C182 H240 0.929 . S
C183 C180 1.356 . S
C183 C185 1.358 . S
C183 H241 0.930 . S
C184 N181 1.314 . S
C184 C182 1.353 . S
C184 H242 0.930 . S
C185 N181 1.279 . S
C185 C183 1.358 . S
C185 H243 0.930 . S
C186 C189 1.348 . S
C186 C190 1.356 . S
C186 O237 1.325 . S
C187 N188 1.279 . S
C187 C190 1.358 1_554 S
C187 H244 0.930 . S
N188 C187 1.279 . S
N188 C191 1.314 . S
C189 C186 1.348 . S
C189 C191 1.353 1_556 S
C189 H245 0.929 . S
C190 C186 1.356 . S
C190 C187 1.358 1_556 S
C190 H246 0.930 . S
C191 N188 1.314 . S
C191 C189 1.353 1_554 S
C191 H247 0.930 . S
C192 N193 1.314 . S
C192 C197 1.353 . S
C192 H198 0.930 . S
N193 Li176 1.990 . S
N193 C192 1.314 . S
N193 C195 1.279 . S
C194 C195 1.358 . S
C194 C196 1.356 . S
C194 H248 0.930 . S
C195 N193 1.279 . S
C195 C194 1.358 . S
C195 H199 0.930 . S
C196 C194 1.356 . S
C196 C197 1.348 . S
C197 C192 1.353 . S
C197 C196 1.348 . S
C197 H249 0.929 . S
H198 C192 0.930 . S
H199 C195 0.930 . S
C200 N201 1.314 . S
C200 C202 1.353 . S
C200 H206 0.930 . S
N201 Li177 1.990 . S
N201 C200 1.314 . S
N201 C204 1.279 . S
C202 C200 1.353 . S
C202 C205 1.348 . S
C202 H250 0.929 . S
C203 C204 1.358 . S
C203 C205 1.356 . S
C203 H251 0.930 . S
C204 N201 1.279 . S
C204 C203 1.358 . S
C204 H207 0.930 . S
C205 C202 1.348 . S
C205 C203 1.356 . S
H206 C200 0.930 . S
H207 C204 0.930 . S
C208 C210 1.348 . S
C208 C211 1.356 . S
C208 O238 1.325 . S
N209 C212 1.314 . S
N209 C213 1.279 . S
C210 C208 1.348 . S
C210 C212 1.353 . S
C210 H252 0.929 . S
C211 C208 1.356 . S
C211 C213 1.358 . S
C211 H253 0.930 . S
C212 N209 1.314 . S
C212 C210 1.353 . S
C212 H254 0.930 . S
C213 N209 1.279 . S
C213 C211 1.358 . S
C213 H255 0.930 . S
C214 C215 1.348 . S
C214 C216 1.356 . S
C214 O239 1.325 . S
C215 C214 1.348 . S
C215 C217 1.353 . S
C215 H256 0.929 . S
C216 C214 1.356 . S
C216 C218 1.358 . S
C216 H257 0.930 . S
C217 C215 1.353 . S
C217 N219 1.314 . S
C217 H258 0.930 . S
C218 C216 1.358 . S
C218 N219 1.279 . S
C218 H259 0.930 . S
N219 C217 1.314 . S
N219 C218 1.279 . S
C220 C222 1.353 . S
C220 N223 1.314 . S
C220 H226 0.930 . S
C221 N223 1.279 . S
C221 C224 1.358 . S
C221 H227 0.930 . S
C222 C220 1.353 . S
C222 C225 1.348 . S
C222 H260 0.929 . S
N223 Li178 1.990 . S
N223 C220 1.314 . S
N223 C221 1.279 . S
C224 C221 1.358 . S
C224 C225 1.356 . S
C224 H261 0.930 . S
C225 C222 1.348 . S
C225 C224 1.356 . S
H226 C220 0.930 . S
H227 C221 0.930 . S
C228 N229 1.314 . S
C228 C230 1.353 . S
C228 H234 0.930 . S
N229 Li179 1.990 . S
N229 C228 1.314 . S
N229 C232 1.279 . S
C230 C228 1.353 . S
C230 C233 1.348 . S
C230 H262 0.929 . S
C231 C232 1.358 . S
C231 C233 1.356 . S
C231 H263 0.930 . S
C232 N229 1.279 . S
C232 C231 1.358 . S
C232 H235 0.930 . S
C233 C230 1.348 . S
C233 C231 1.356 . S
H234 C228 0.930 . S
H235 C232 0.930 . S
O236 Li176 1.956 . S
O236 Li177 1.970 . S
O236 Li178 1.961 . S
O236 C180 1.325 . S
O237 Li176 1.970 . S
O237 Li177 1.956 . S
O237 Li179 1.961 . S
O237 C186 1.325 . S
O238 Li176 1.961 . S
O238 Li178 1.956 . S
O238 Li179 1.970 . S
O238 C208 1.325 . S
O239 Li177 1.961 . S
O239 Li178 1.970 . S
O239 Li179 1.956 . S
O239 C214 1.325 . S
H240 C182 0.929 . S
H241 C183 0.930 . S
H242 C184 0.930 . S
H243 C185 0.930 . S
H244 C187 0.930 . S
H245 C189 0.929 . S
H246 C190 0.930 . S
H247 C191 0.930 . S
H248 C194 0.930 . S
H249 C197 0.929 . S
H250 C202 0.929 . S
H251 C203 0.930 . S
H252 C210 0.929 . S
H253 C211 0.930 . S
H254 C212 0.930 . S
H255 C213 0.930 . S
H256 C215 0.929 . S
H257 C216 0.930 . S
H258 C217 0.930 . S
H259 C218 0.930 . S
H260 C222 0.929 . S
H261 C224 0.930 . S
H262 C230 0.929 . S
H263 C231 0.930 . S
Li264 N281 1.990 . S
Li264 O324 1.956 . S
Li264 O325 1.970 . S
Li264 O326 1.961 . S
Li265 N289 1.990 . S
Li265 O324 1.970 . S
Li265 O325 1.956 . S
Li265 O327 1.961 . S
Li266 N311 1.990 . S
Li266 O324 1.961 . S
Li266 O326 1.956 . S
Li266 O327 1.970 . S
Li267 N317 1.990 . S
Li267 O325 1.961 . S
Li267 O326 1.970 . S
Li267 O327 1.956 . S
C268 C270 1.348 . S
C268 C271 1.356 . S
C268 O324 1.325 . S
N269 C272 1.314 . S
N269 C273 1.279 . S
C270 C268 1.348 . S
C270 C272 1.353 . S
C270 H328 0.929 . S
C271 C268 1.356 . S
C271 C273 1.358 . S
C271 H329 0.930 . S
C272 N269 1.314 . S
C272 C270 1.353 . S
C272 H330 0.930 . S
C273 N269 1.279 . S
C273 C271 1.358 . S
C273 H331 0.930 . S
C274 C277 1.348 . S
C274 C278 1.356 . S
C274 O325 1.325 . S
C275 N276 1.279 . S
C275 C278 1.358 . S
C275 H332 0.930 . S
N276 C275 1.279 . S
N276 C279 1.314 . S
C277 C274 1.348 . S
C277 C279 1.353 . S
C277 H333 0.929 . S
C278 C274 1.356 . S
C278 C275 1.358 . S
C278 H334 0.930 . S
C279 N276 1.314 . S
C279 C277 1.353 . S
C279 H335 0.930 . S
C280 N281 1.314 . S
C280 C285 1.353 . S
C280 H286 0.930 . S
N281 Li264 1.990 . S
N281 C280 1.314 . S
N281 C283 1.279 . S
C282 C283 1.358 . S
C282 C284 1.356 . S
C282 H336 0.930 . S
C283 N281 1.279 . S
C283 C282 1.358 . S
C283 H287 0.930 . S
C284 C282 1.356 . S
C284 C285 1.348 . S
C285 C280 1.353 . S
C285 C284 1.348 . S
C285 H337 0.929 . S
H286 C280 0.930 . S
H287 C283 0.930 . S
C288 N289 1.314 . S
C288 C290 1.353 . S
C288 H294 0.930 . S
N289 Li265 1.990 . S
N289 C288 1.314 . S
N289 C292 1.279 . S
C290 C288 1.353 . S
C290 C293 1.348 . S
C290 H338 0.929 . S
C291 C292 1.358 . S
C291 C293 1.356 . S
C291 H339 0.930 . S
C292 N289 1.279 . S
C292 C291 1.358 . S
C292 H295 0.930 . S
C293 C290 1.348 . S
C293 C291 1.356 . S
H294 C288 0.930 . S
H295 C292 0.930 . S
C296 C298 1.348 . S
C296 C299 1.356 . S
C296 O326 1.325 . S
N297 C300 1.314 . S
N297 C301 1.279 . S
C298 C296 1.348 . S
C298 C300 1.353 . S
C298 H340 0.929 . S
C299 C296 1.356 . S
C299 C301 1.358 . S
C299 H341 0.930 . S
C300 N297 1.314 . S
C300 C298 1.353 . S
C300 H342 0.930 . S
C301 N297 1.279 . S
C301 C299 1.358 . S
C301 H343 0.930 . S
C302 C303 1.348 . S
C302 C304 1.356 . S
C302 O327 1.325 . S
C303 C302 1.348 . S
C303 C305 1.353 . S
C303 H344 0.929 . S
C304 C302 1.356 . S
C304 C306 1.358 . S
C304 H345 0.930 . S
C305 C303 1.353 . S
C305 N307 1.314 . S
C305 H346 0.930 . S
C306 C304 1.358 . S
C306 N307 1.279 . S
C306 H347 0.930 . S
N307 C305 1.314 . S
N307 C306 1.279 . S
C308 C310 1.353 . S
C308 N311 1.314 . S
C308 H314 0.930 . S
C309 N311 1.279 . S
C309 C312 1.358 . S
C309 H315 0.930 . S
C310 C308 1.353 . S
C310 C313 1.348 . S
C310 H348 0.929 . S
N311 Li266 1.990 . S
N311 C308 1.314 . S
N311 C309 1.279 . S
C312 C309 1.358 . S
C312 C313 1.356 . S
C312 H349 0.930 . S
C313 C310 1.348 . S
C313 C312 1.356 . S
H314 C308 0.930 . S
H315 C309 0.930 . S
C316 N317 1.314 . S
C316 C318 1.353 . S
C316 H322 0.930 . S
N317 Li267 1.990 . S
N317 C316 1.314 . S
N317 C320 1.279 . S
C318 C316 1.353 . S
C318 C321 1.348 . S
C318 H350 0.929 . S
C319 C320 1.358 . S
C319 C321 1.356 . S
C319 H351 0.930 . S
C320 N317 1.279 . S
C320 C319 1.358 . S
C320 H323 0.930 . S
C321 C318 1.348 . S
C321 C319 1.356 . S
H322 C316 0.930 . S
H323 C320 0.930 . S
O324 Li264 1.956 . S
O324 Li265 1.970 . S
O324 Li266 1.961 . S
O324 C268 1.325 . S
O325 Li264 1.970 . S
O325 Li265 1.956 . S
O325 Li267 1.961 . S
O325 C274 1.325 . S
O326 Li264 1.961 . S
O326 Li266 1.956 . S
O326 Li267 1.970 . S
O326 C296 1.325 . S
O327 Li265 1.961 . S
O327 Li266 1.970 . S
O327 Li267 1.956 . S
O327 C302 1.325 . S
H328 C270 0.929 . S
H329 C271 0.930 . S
H330 C272 0.930 . S
H331 C273 0.930 . S
H332 C275 0.930 . S
H333 C277 0.929 . S
H334 C278 0.930 . S
H335 C279 0.930 . S
H336 C282 0.930 . S
H337 C285 0.929 . S
H338 C290 0.929 . S
H339 C291 0.930 . S
H340 C298 0.929 . S
H341 C299 0.930 . S
H342 C300 0.930 . S
H343 C301 0.930 . S
H344 C303 0.929 . S
H345 C304 0.930 . S
H346 C305 0.930 . S
H347 C306 0.930 . S
H348 C310 0.929 . S
H349 C312 0.930 . S
H350 C318 0.929 . S
H351 C319 0.930 . S
Li352 N369 1.990 . S
Li352 O412 1.956 . S
Li352 O413 1.970 . S
Li352 O414 1.961 . S
Li353 N377 1.990 . S
Li353 O412 1.970 . S
Li353 O413 1.956 . S
Li353 O415 1.961 . S
Li354 N399 1.990 . S
Li354 O412 1.961 . S
Li354 O414 1.956 . S
Li354 O415 1.970 . S
Li355 N405 1.990 . S
Li355 O413 1.961 . S
Li355 O414 1.970 . S
Li355 O415 1.956 . S
C356 C358 1.348 . S
C356 C359 1.356 . S
C356 O412 1.325 . S
N357 C360 1.314 . S
N357 C361 1.279 . S
C358 C356 1.348 . S
C358 C360 1.353 1_556 S
C358 H416 0.929 . S
C359 C356 1.356 . S
C359 C361 1.358 1_556 S
C359 H417 0.930 . S
C360 N357 1.314 . S
C360 C358 1.353 1_554 S
C360 H418 0.930 . S
C361 N357 1.279 . S
C361 C359 1.358 1_554 S
C361 H419 0.930 . S
C362 C365 1.348 . S
C362 C366 1.356 . S
C362 O413 1.325 . S
C363 N364 1.279 . S
C363 C366 1.358 . S
C363 H420 0.930 . S
N364 C363 1.279 . S
N364 C367 1.314 . S
C365 C362 1.348 . S
C365 C367 1.353 . S
C365 H421 0.929 . S
C366 C362 1.356 . S
C366 C363 1.358 . S
C366 H422 0.930 . S
C367 N364 1.314 . S
C367 C365 1.353 . S
C367 H423 0.930 . S
C368 N369 1.314 . S
C368 C373 1.353 . S
C368 H374 0.930 . S
N369 Li352 1.990 . S
N369 C368 1.314 . S
N369 C371 1.279 . S
C370 C371 1.358 . S
C370 C372 1.356 . S
C370 H424 0.930 . S
C371 N369 1.279 . S
C371 C370 1.358 . S
C371 H375 0.930 . S
C372 C370 1.356 . S
C372 C373 1.348 . S
C373 C368 1.353 . S
C373 C372 1.348 . S
C373 H425 0.929 . S
H374 C368 0.930 . S
H375 C371 0.930 . S
C376 N377 1.314 . S
C376 C378 1.353 . S
C376 H382 0.930 . S
N377 Li353 1.990 . S
N377 C376 1.314 . S
N377 C380 1.279 . S
C378 C376 1.353 . S
C378 C381 1.348 . S
C378 H426 0.929 . S
C379 C380 1.358 . S
C379 C381 1.356 . S
C379 H427 0.930 . S
C380 N377 1.279 . S
C380 C379 1.358 . S
C380 H383 0.930 . S
C381 C378 1.348 . S
C381 C379 1.356 . S
H382 C376 0.930 . S
H383 C380 0.930 . S
C384 C386 1.348 . S
C384 C387 1.356 . S
C384 O414 1.325 . S
N385 C388 1.314 . S
N385 C389 1.279 . S
C386 C384 1.348 . S
C386 C388 1.353 . S
C386 H428 0.929 . S
C387 C384 1.356 . S
C387 C389 1.358 . S
C387 H429 0.930 . S
C388 N385 1.314 . S
C388 C386 1.353 . S
C388 H430 0.930 . S
C389 N385 1.279 . S
C389 C387 1.358 . S
C389 H431 0.930 . S
C390 C391 1.348 . S
C390 C392 1.356 . S
C390 O415 1.325 . S
C391 C390 1.348 . S
C391 C393 1.353 . S
C391 H432 0.929 . S
C392 C390 1.356 . S
C392 C394 1.358 . S
C392 H433 0.930 . S
C393 C391 1.353 . S
C393 N395 1.314 . S
C393 H434 0.930 . S
C394 C392 1.358 . S
C394 N395 1.279 . S
C394 H435 0.930 . S
N395 C393 1.314 . S
N395 C394 1.279 . S
C396 C398 1.353 . S
C396 N399 1.314 . S
C396 H402 0.930 . S
C397 N399 1.279 . S
C397 C400 1.358 . S
C397 H403 0.930 . S
C398 C396 1.353 . S
C398 C401 1.348 . S
C398 H436 0.929 . S
N399 Li354 1.990 . S
N399 C396 1.314 . S
N399 C397 1.279 . S
C400 C397 1.358 . S
C400 C401 1.356 . S
C400 H437 0.930 . S
C401 C398 1.348 . S
C401 C400 1.356 . S
H402 C396 0.930 . S
H403 C397 0.930 . S
C404 N405 1.314 . S
C404 C406 1.353 . S
C404 H410 0.930 . S
N405 Li355 1.990 . S
N405 C404 1.314 . S
N405 C408 1.279 . S
C406 C404 1.353 . S
C406 C409 1.348 . S
C406 H438 0.929 . S
C407 C408 1.358 . S
C407 C409 1.356 . S
C407 H439 0.930 . S
C408 N405 1.279 . S
C408 C407 1.358 . S
C408 H411 0.930 . S
C409 C406 1.348 . S
C409 C407 1.356 . S
H410 C404 0.930 . S
H411 C408 0.930 . S
O412 Li352 1.956 . S
O412 Li353 1.970 . S
O412 Li354 1.961 . S
O412 C356 1.325 . S
O413 Li352 1.970 . S
O413 Li353 1.956 . S
O413 Li355 1.961 . S
O413 C362 1.325 . S
O414 Li352 1.961 . S
O414 Li354 1.956 . S
O414 Li355 1.970 . S
O414 C384 1.325 . S
O415 Li353 1.961 . S
O415 Li354 1.970 . S
O415 Li355 1.956 . S
O415 C390 1.325 . S
H416 C358 0.929 . S
H417 C359 0.930 . S
H418 C360 0.930 . S
H419 C361 0.930 . S
H420 C363 0.930 . S
H421 C365 0.929 . S
H422 C366 0.930 . S
H423 C367 0.930 . S
H424 C370 0.930 . S
H425 C373 0.929 . S
H426 C378 0.929 . S
H427 C379 0.930 . S
H428 C386 0.929 . S
H429 C387 0.930 . S
H430 C388 0.930 . S
H431 C389 0.930 . S
H432 C391 0.929 . S
H433 C392 0.930 . S
H434 C393 0.930 . S
H435 C394 0.930 . S
H436 C398 0.929 . S
H437 C400 0.930 . S
H438 C406 0.929 . S
H439 C407 0.930 . S
Li440 N457 1.990 . S
Li440 O500 1.956 . S
Li440 O501 1.970 . S
Li440 O502 1.961 . S
Li441 N465 1.990 . S
Li441 O500 1.970 . S
Li441 O501 1.956 . S
Li441 O503 1.961 . S
Li442 N487 1.990 . S
Li442 O500 1.961 . S
Li442 O502 1.956 . S
Li442 O503 1.970 . S
Li443 N493 1.990 . S
Li443 O501 1.961 . S
Li443 O502 1.970 . S
Li443 O503 1.956 . S
C444 C446 1.348 . S
C444 C447 1.356 . S
C444 O500 1.325 . S
N445 C448 1.314 . S
N445 C449 1.279 . S
C446 C444 1.348 . S
C446 C448 1.353 . S
C446 H504 0.929 . S
C447 C444 1.356 . S
C447 C449 1.358 . S
C447 H505 0.930 . S
C448 N445 1.314 . S
C448 C446 1.353 . S
C448 H506 0.930 . S
C449 N445 1.279 . S
C449 C447 1.358 . S
C449 H507 0.930 . S
C450 C453 1.348 . S
C450 C454 1.356 . S
C450 O501 1.325 . S
C451 N452 1.279 . S
C451 C454 1.358 . S
C451 H508 0.930 . S
N452 C451 1.279 . S
N452 C455 1.314 . S
C453 C450 1.348 . S
C453 C455 1.353 . S
C453 H509 0.929 . S
C454 C450 1.356 . S
C454 C451 1.358 . S
C454 H510 0.930 . S
C455 N452 1.314 . S
C455 C453 1.353 . S
C455 H511 0.930 . S
C456 N457 1.314 . S
C456 C461 1.353 . S
C456 H462 0.930 . S
N457 Li440 1.990 . S
N457 C456 1.314 . S
N457 C459 1.279 . S
C458 C459 1.358 . S
C458 C460 1.356 . S
C458 H512 0.930 . S
C459 N457 1.279 . S
C459 C458 1.358 . S
C459 H463 0.930 . S
C460 C458 1.356 . S
C460 C461 1.348 . S
C461 C456 1.353 . S
C461 C460 1.348 . S
C461 H513 0.929 . S
H462 C456 0.930 . S
H463 C459 0.930 . S
C464 N465 1.314 . S
C464 C466 1.353 . S
C464 H470 0.930 . S
N465 Li441 1.990 . S
N465 C464 1.314 . S
N465 C468 1.279 . S
C466 C464 1.353 . S
C466 C469 1.348 . S
C466 H514 0.929 . S
C467 C468 1.358 . S
C467 C469 1.356 . S
C467 H515 0.930 . S
C468 N465 1.279 . S
C468 C467 1.358 . S
C468 H471 0.930 . S
C469 C466 1.348 . S
C469 C467 1.356 . S
H470 C464 0.930 . S
H471 C468 0.930 . S
C472 C474 1.348 . S
C472 C475 1.356 . S
C472 O502 1.325 . S
N473 C476 1.314 . S
N473 C477 1.279 . S
C474 C472 1.348 . S
C474 C476 1.353 . S
C474 H516 0.929 . S
C475 C472 1.356 . S
C475 C477 1.358 . S
C475 H517 0.930 . S
C476 N473 1.314 . S
C476 C474 1.353 . S
C476 H518 0.930 . S
C477 N473 1.279 . S
C477 C475 1.358 . S
C477 H519 0.930 . S
C478 C479 1.348 . S
C478 C480 1.356 . S
C478 O503 1.325 . S
C479 C478 1.348 . S
C479 C481 1.353 . S
C479 H520 0.929 . S
C480 C478 1.356 . S
C480 C482 1.358 . S
C480 H521 0.930 . S
C481 C479 1.353 . S
C481 N483 1.314 . S
C481 H522 0.930 . S
C482 C480 1.358 . S
C482 N483 1.279 . S
C482 H523 0.930 . S
N483 C481 1.314 . S
N483 C482 1.279 . S
C484 C486 1.353 . S
C484 N487 1.314 . S
C484 H490 0.930 . S
C485 N487 1.279 . S
C485 C488 1.358 . S
C485 H491 0.930 . S
C486 C484 1.353 . S
C486 C489 1.348 . S
C486 H524 0.929 . S
N487 Li442 1.990 . S
N487 C484 1.314 . S
N487 C485 1.279 . S
C488 C485 1.358 . S
C488 C489 1.356 . S
C488 H525 0.930 . S
C489 C486 1.348 . S
C489 C488 1.356 . S
H490 C484 0.930 . S
H491 C485 0.930 . S
C492 N493 1.314 . S
C492 C494 1.353 . S
C492 H498 0.930 . S
N493 Li443 1.990 . S
N493 C492 1.314 . S
N493 C496 1.279 . S
C494 C492 1.353 . S
C494 C497 1.348 . S
C494 H526 0.929 . S
C495 C496 1.358 . S
C495 C497 1.356 . S
C495 H527 0.930 . S
C496 N493 1.279 . S
C496 C495 1.358 . S
C496 H499 0.930 . S
C497 C494 1.348 . S
C497 C495 1.356 . S
H498 C492 0.930 . S
H499 C496 0.930 . S
O500 Li440 1.956 . S
O500 Li441 1.970 . S
O500 Li442 1.961 . S
O500 C444 1.325 . S
O501 Li440 1.970 . S
O501 Li441 1.956 . S
O501 Li443 1.961 . S
O501 C450 1.325 . S
O502 Li440 1.961 . S
O502 Li442 1.956 . S
O502 Li443 1.970 . S
O502 C472 1.325 . S
O503 Li441 1.961 . S
O503 Li442 1.970 . S
O503 Li443 1.956 . S
O503 C478 1.325 . S
H504 C446 0.929 . S
H505 C447 0.930 . S
H506 C448 0.930 . S
H507 C449 0.930 . S
H508 C451 0.930 . S
H509 C453 0.929 . S
H510 C454 0.930 . S
H511 C455 0.930 . S
H512 C458 0.930 . S
H513 C461 0.929 . S
H514 C466 0.929 . S
H515 C467 0.930 . S
H516 C474 0.929 . S
H517 C475 0.930 . S
H518 C476 0.930 . S
H519 C477 0.930 . S
H520 C479 0.929 . S
H521 C480 0.930 . S
H522 C481 0.930 . S
H523 C482 0.930 . S
H524 C486 0.929 . S
H525 C488 0.930 . S
H526 C494 0.929 . S
H527 C495 0.930 . S
Li528 N545 1.990 . S
Li528 O588 1.956 . S
Li528 O589 1.970 . S
Li528 O590 1.961 . S
Li529 N553 1.990 . S
Li529 O588 1.970 . S
Li529 O589 1.956 . S
Li529 O591 1.961 . S
Li530 N575 1.990 . S
Li530 O588 1.961 . S
Li530 O590 1.956 . S
Li530 O591 1.970 . S
Li531 N581 1.990 . S
Li531 O589 1.961 . S
Li531 O590 1.970 . S
Li531 O591 1.956 . S
C532 C534 1.348 . S
C532 C535 1.356 . S
C532 O588 1.325 . S
N533 C536 1.314 . S
N533 C537 1.279 . S
C534 C532 1.348 . S
C534 C536 1.353 . S
C534 H592 0.929 . S
C535 C532 1.356 . S
C535 C537 1.358 . S
C535 H593 0.930 . S
C536 N533 1.314 . S
C536 C534 1.353 . S
C536 H594 0.930 . S
C537 N533 1.279 . S
C537 C535 1.358 . S
C537 H595 0.930 . S
C538 C541 1.348 . S
C538 C542 1.356 . S
C538 O589 1.325 . S
C539 N540 1.279 . S
C539 C542 1.358 . S
C539 H596 0.930 . S
N540 C539 1.279 . S
N540 C543 1.314 . S
C541 C538 1.348 . S
C541 C543 1.353 . S
C541 H597 0.929 . S
C542 C538 1.356 . S
C542 C539 1.358 . S
C542 H598 0.930 . S
C543 N540 1.314 . S
C543 C541 1.353 . S
C543 H599 0.930 . S
C544 N545 1.314 . S
C544 C549 1.353 . S
C544 H550 0.930 . S
N545 Li528 1.990 . S
N545 C544 1.314 . S
N545 C547 1.279 . S
C546 C547 1.358 . S
C546 C548 1.356 . S
C546 H600 0.930 . S
C547 N545 1.279 . S
C547 C546 1.358 . S
C547 H551 0.930 . S
C548 C546 1.356 . S
C548 C549 1.348 . S
C549 C544 1.353 . S
C549 C548 1.348 . S
C549 H601 0.929 . S
H550 C544 0.930 . S
H551 C547 0.930 . S
C552 N553 1.314 . S
C552 C554 1.353 . S
C552 H558 0.930 . S
N553 Li529 1.990 . S
N553 C552 1.314 . S
N553 C556 1.279 . S
C554 C552 1.353 . S
C554 C557 1.348 . S
C554 H602 0.929 . S
C555 C556 1.358 . S
C555 C557 1.356 . S
C555 H603 0.930 . S
C556 N553 1.279 . S
C556 C555 1.358 . S
C556 H559 0.930 . S
C557 C554 1.348 . S
C557 C555 1.356 . S
H558 C552 0.930 . S
H559 C556 0.930 . S
C560 C562 1.348 . S
C560 C563 1.356 . S
C560 O590 1.325 . S
N561 C564 1.314 . S
N561 C565 1.279 . S
C562 C560 1.348 . S
C562 C564 1.353 . S
C562 H604 0.929 . S
C563 C560 1.356 . S
C563 C565 1.358 . S
C563 H605 0.930 . S
C564 N561 1.314 . S
C564 C562 1.353 . S
C564 H606 0.930 . S
C565 N561 1.279 . S
C565 C563 1.358 . S
C565 H607 0.930 . S
C566 C567 1.348 . S
C566 C568 1.356 . S
C566 O591 1.325 . S
C567 C566 1.348 . S
C567 C569 1.353 1_554 S
C567 H608 0.929 . S
C568 C566 1.356 . S
C568 C570 1.358 1_554 S
C568 H609 0.930 . S
C569 C567 1.353 1_556 S
C569 N571 1.314 . S
C569 H610 0.930 . S
C570 C568 1.358 1_556 S
C570 N571 1.279 . S
C570 H611 0.930 . S
N571 C569 1.314 . S
N571 C570 1.279 . S
C572 C574 1.353 . S
C572 N575 1.314 . S
C572 H578 0.930 . S
C573 N575 1.279 . S
C573 C576 1.358 . S
C573 H579 0.930 . S
C574 C572 1.353 . S
C574 C577 1.348 . S
C574 H612 0.929 . S
N575 Li530 1.990 . S
N575 C572 1.314 . S
N575 C573 1.279 . S
C576 C573 1.358 . S
C576 C577 1.356 . S
C576 H613 0.930 . S
C577 C574 1.348 . S
C577 C576 1.356 . S
H578 C572 0.930 . S
H579 C573 0.930 . S
C580 N581 1.314 . S
C580 C582 1.353 . S
C580 H586 0.930 . S
N581 Li531 1.990 . S
N581 C580 1.314 . S
N581 C584 1.279 . S
C582 C580 1.353 . S
C582 C585 1.348 . S
C582 H614 0.929 . S
C583 C584 1.358 . S
C583 C585 1.356 . S
C583 H615 0.930 . S
C584 N581 1.279 . S
C584 C583 1.358 . S
C584 H587 0.930 . S
C585 C582 1.348 . S
C585 C583 1.356 . S
H586 C580 0.930 . S
H587 C584 0.930 . S
O588 Li528 1.956 . S
O588 Li529 1.970 . S
O588 Li530 1.961 . S
O588 C532 1.325 . S
O589 Li528 1.970 . S
O589 Li529 1.956 . S
O589 Li531 1.961 . S
O589 C538 1.325 . S
O590 Li528 1.961 . S
O590 Li530 1.956 . S
O590 Li531 1.970 . S
O590 C560 1.325 . S
O591 Li529 1.961 . S
O591 Li530 1.970 . S
O591 Li531 1.956 . S
O591 C566 1.325 . S
H592 C534 0.929 . S
H593 C535 0.930 . S
H594 C536 0.930 . S
H595 C537 0.930 . S
H596 C539 0.930 . S
H597 C541 0.929 . S
H598 C542 0.930 . S
H599 C543 0.930 . S
H600 C546 0.930 . S
H601 C549 0.929 . S
H602 C554 0.929 . S
H603 C555 0.930 . S
H604 C562 0.929 . S
H605 C563 0.930 . S
H606 C564 0.930 . S
H607 C565 0.930 . S
H608 C567 0.929 . S
H609 C568 0.930 . S
H610 C569 0.930 . S
H611 C570 0.930 . S
H612 C574 0.929 . S
H613 C576 0.930 . S
H614 C582 0.929 . S
H615 C583 0.930 . S
Li616 N633 1.990 . S
Li616 O676 1.956 . S
Li616 O677 1.970 . S
Li616 O678 1.961 . S
Li617 N641 1.990 . S
Li617 O676 1.970 . S
Li617 O677 1.956 . S
Li617 O679 1.961 . S
Li618 N663 1.990 . S
Li618 O676 1.961 . S
Li618 O678 1.956 . S
Li618 O679 1.970 . S
Li619 N669 1.990 . S
Li619 O677 1.961 . S
Li619 O678 1.970 . S
Li619 O679 1.956 . S
C620 C622 1.348 . S
C620 C623 1.356 . S
C620 O676 1.325 . S
N621 C624 1.314 . S
N621 C625 1.279 . S
C622 C620 1.348 . S
C622 C624 1.353 . S
C622 H680 0.929 . S
C623 C620 1.356 . S
C623 C625 1.358 . S
C623 H681 0.930 . S
C624 N621 1.314 . S
C624 C622 1.353 . S
C624 H682 0.930 . S
C625 N621 1.279 . S
C625 C623 1.358 . S
C625 H683 0.930 . S
C626 C629 1.348 . S
C626 C630 1.356 . S
C626 O677 1.325 . S
C627 N628 1.279 . S
C627 C630 1.358 . S
C627 H684 0.930 . S
N628 C627 1.279 . S
N628 C631 1.314 . S
C629 C626 1.348 . S
C629 C631 1.353 . S
C629 H685 0.929 . S
C630 C626 1.356 . S
C630 C627 1.358 . S
C630 H686 0.930 . S
C631 N628 1.314 . S
C631 C629 1.353 . S
C631 H687 0.930 . S
C632 N633 1.314 . S
C632 C637 1.353 . S
C632 H638 0.930 . S
N633 Li616 1.990 . S
N633 C632 1.314 . S
N633 C635 1.279 . S
C634 C635 1.358 . S
C634 C636 1.356 . S
C634 H688 0.930 . S
C635 N633 1.279 . S
C635 C634 1.358 . S
C635 H639 0.930 . S
C636 C634 1.356 . S
C636 C637 1.348 . S
C637 C632 1.353 . S
C637 C636 1.348 . S
C637 H689 0.929 . S
H638 C632 0.930 . S
H639 C635 0.930 . S
C640 N641 1.314 . S
C640 C642 1.353 . S
C640 H646 0.930 . S
N641 Li617 1.990 . S
N641 C640 1.314 . S
N641 C644 1.279 . S
C642 C640 1.353 . S
C642 C645 1.348 . S
C642 H690 0.929 . S
C643 C644 1.358 . S
C643 C645 1.356 . S
C643 H691 0.930 . S
C644 N641 1.279 . S
C644 C643 1.358 . S
C644 H647 0.930 . S
C645 C642 1.348 . S
C645 C643 1.356 . S
H646 C640 0.930 . S
H647 C644 0.930 . S
C648 C650 1.348 . S
C648 C651 1.356 . S
C648 O678 1.325 . S
N649 C652 1.314 . S
N649 C653 1.279 . S
C650 C648 1.348 . S
C650 C652 1.353 . S
C650 H692 0.929 . S
C651 C648 1.356 . S
C651 C653 1.358 . S
C651 H693 0.930 . S
C652 N649 1.314 . S
C652 C650 1.353 . S
C652 H694 0.930 . S
C653 N649 1.279 . S
C653 C651 1.358 . S
C653 H695 0.930 . S
C654 C655 1.348 . S
C654 C656 1.356 . S
C654 O679 1.325 . S
C655 C654 1.348 . S
C655 C657 1.353 . S
C655 H696 0.929 . S
C656 C654 1.356 . S
C656 C658 1.358 . S
C656 H697 0.930 . S
C657 C655 1.353 . S
C657 N659 1.314 . S
C657 H698 0.930 . S
C658 C656 1.358 . S
C658 N659 1.279 . S
C658 H699 0.930 . S
N659 C657 1.314 . S
N659 C658 1.279 . S
C660 C662 1.353 . S
C660 N663 1.314 . S
C660 H666 0.930 . S
C661 N663 1.279 . S
C661 C664 1.358 . S
C661 H667 0.930 . S
C662 C660 1.353 . S
C662 C665 1.348 . S
C662 H700 0.929 . S
N663 Li618 1.990 . S
N663 C660 1.314 . S
N663 C661 1.279 . S
C664 C661 1.358 . S
C664 C665 1.356 . S
C664 H701 0.930 . S
C665 C662 1.348 . S
C665 C664 1.356 . S
H666 C660 0.930 . S
H667 C661 0.930 . S
C668 N669 1.314 . S
C668 C670 1.353 . S
C668 H674 0.930 . S
N669 Li619 1.990 . S
N669 C668 1.314 . S
N669 C672 1.279 . S
C670 C668 1.353 . S
C670 C673 1.348 . S
C670 H702 0.929 . S
C671 C672 1.358 . S
C671 C673 1.356 . S
C671 H703 0.930 . S
C672 N669 1.279 . S
C672 C671 1.358 . S
C672 H675 0.930 . S
C673 C670 1.348 . S
C673 C671 1.356 . S
H674 C668 0.930 . S
H675 C672 0.930 . S
O676 Li616 1.956 . S
O676 Li617 1.970 . S
O676 Li618 1.961 . S
O676 C620 1.325 . S
O677 Li616 1.970 . S
O677 Li617 1.956 . S
O677 Li619 1.961 . S
O677 C626 1.325 . S
O678 Li616 1.961 . S
O678 Li618 1.956 . S
O678 Li619 1.970 . S
O678 C648 1.325 . S
O679 Li617 1.961 . S
O679 Li618 1.970 . S
O679 Li619 1.956 . S
O679 C654 1.325 . S
H680 C622 0.929 . S
H681 C623 0.930 . S
H682 C624 0.930 . S
H683 C625 0.930 . S
H684 C627 0.930 . S
H685 C629 0.929 . S
H686 C630 0.930 . S
H687 C631 0.930 . S
H688 C634 0.930 . S
H689 C637 0.929 . S
H690 C642 0.929 . S
H691 C643 0.930 . S
H692 C650 0.929 . S
H693 C651 0.930 . S
H694 C652 0.930 . S
H695 C653 0.930 . S
H696 C655 0.929 . S
H697 C656 0.930 . S
H698 C657 0.930 . S
H699 C658 0.930 . S
H700 C662 0.929 . S
H701 C664 0.930 . S
H702 C670 0.929 . S
H703 C671 0.930 . S
Li704 N721 1.990 . S
Li704 O764 1.956 . S
Li704 O765 1.970 . S
Li704 O766 1.961 . S
Li705 N729 1.990 . S
Li705 O764 1.970 . S
Li705 O765 1.956 . S
Li705 O767 1.961 . S
Li706 N751 1.990 . S
Li706 O764 1.961 . S
Li706 O766 1.956 . S
Li706 O767 1.970 . S
Li707 N757 1.990 . S
Li707 O765 1.961 . S
Li707 O766 1.970 . S
Li707 O767 1.956 . S
C708 C710 1.348 . S
C708 C711 1.356 . S
C708 O764 1.325 . S
N709 C712 1.314 . S
N709 C713 1.279 . S
C710 C708 1.348 . S
C710 C712 1.353 . S
C710 H768 0.929 . S
C711 C708 1.356 . S
C711 C713 1.358 . S
C711 H769 0.930 . S
C712 N709 1.314 . S
C712 C710 1.353 . S
C712 H770 0.930 . S
C713 N709 1.279 . S
C713 C711 1.358 . S
C713 H771 0.930 . S
C714 C717 1.348 . S
C714 C718 1.356 . S
C714 O765 1.325 . S
C715 N716 1.279 . S
C715 C718 1.358 . S
C715 H772 0.930 . S
N716 C715 1.279 . S
N716 C719 1.314 . S
C717 C714 1.348 . S
C717 C719 1.353 . S
C717 H773 0.929 . S
C718 C714 1.356 . S
C718 C715 1.358 . S
C718 H774 0.930 . S
C719 N716 1.314 . S
C719 C717 1.353 . S
C719 H775 0.930 . S
C720 N721 1.314 . S
C720 C725 1.353 . S
C720 H726 0.930 . S
N721 Li704 1.990 . S
N721 C720 1.314 . S
N721 C723 1.279 . S
C722 C723 1.358 . S
C722 C724 1.356 . S
C722 H776 0.930 . S
C723 N721 1.279 . S
C723 C722 1.358 . S
C723 H727 0.930 . S
C724 C722 1.356 . S
C724 C725 1.348 . S
C725 C720 1.353 . S
C725 C724 1.348 . S
C725 H777 0.929 . S
H726 C720 0.930 . S
H727 C723 0.930 . S
C728 N729 1.314 . S
C728 C730 1.353 . S
C728 H734 0.930 . S
N729 Li705 1.990 . S
N729 C728 1.314 . S
N729 C732 1.279 . S
C730 C728 1.353 . S
C730 C733 1.348 . S
C730 H778 0.929 . S
C731 C732 1.358 . S
C731 C733 1.356 . S
C731 H779 0.930 . S
C732 N729 1.279 . S
C732 C731 1.358 . S
C732 H735 0.930 . S
C733 C730 1.348 . S
C733 C731 1.356 . S
H734 C728 0.930 . S
H735 C732 0.930 . S
C736 C738 1.348 . S
C736 C739 1.356 . S
C736 O766 1.325 . S
N737 C740 1.314 . S
N737 C741 1.279 . S
C738 C736 1.348 . S
C738 C740 1.353 . S
C738 H780 0.929 . S
C739 C736 1.356 . S
C739 C741 1.358 . S
C739 H781 0.930 . S
C740 N737 1.314 . S
C740 C738 1.353 . S
C740 H782 0.930 . S
C741 N737 1.279 . S
C741 C739 1.358 . S
C741 H783 0.930 . S
C742 C743 1.348 . S
C742 C744 1.356 . S
C742 O767 1.325 . S
C743 C742 1.348 . S
C743 C745 1.353 1_554 S
C743 H784 0.929 . S
C744 C742 1.356 . S
C744 C746 1.358 1_554 S
C744 H785 0.930 . S
C745 C743 1.353 1_556 S
C745 N747 1.314 . S
C745 H786 0.930 . S
C746 C744 1.358 1_556 S
C746 N747 1.279 . S
C746 H787 0.930 . S
N747 C745 1.314 . S
N747 C746 1.279 . S
C748 C750 1.353 . S
C748 N751 1.314 . S
C748 H754 0.930 . S
C749 N751 1.279 . S
C749 C752 1.358 . S
C749 H755 0.930 . S
C750 C748 1.353 . S
C750 C753 1.348 . S
C750 H788 0.929 . S
N751 Li706 1.990 . S
N751 C748 1.314 . S
N751 C749 1.279 . S
C752 C749 1.358 . S
C752 C753 1.356 . S
C752 H789 0.930 . S
C753 C750 1.348 . S
C753 C752 1.356 . S
H754 C748 0.930 . S
H755 C749 0.930 . S
C756 N757 1.314 . S
C756 C758 1.353 . S
C756 H762 0.930 . S
N757 Li707 1.990 . S
N757 C756 1.314 . S
N757 C760 1.279 . S
C758 C756 1.353 . S
C758 C761 1.348 . S
C758 H790 0.929 . S
C759 C760 1.358 . S
C759 C761 1.356 . S
C759 H791 0.930 . S
C760 N757 1.279 . S
C760 C759 1.358 . S
C760 H763 0.930 . S
C761 C758 1.348 . S
C761 C759 1.356 . S
H762 C756 0.930 . S
H763 C760 0.930 . S
O764 Li704 1.956 . S
O764 Li705 1.970 . S
O764 Li706 1.961 . S
O764 C708 1.325 . S
O765 Li704 1.970 . S
O765 Li705 1.956 . S
O765 Li707 1.961 . S
O765 C714 1.325 . S
O766 Li704 1.961 . S
O766 Li706 1.956 . S
O766 Li707 1.970 . S
O766 C736 1.325 . S
O767 Li705 1.961 . S
O767 Li706 1.970 . S
O767 Li707 1.956 . S
O767 C742 1.325 . S
H768 C710 0.929 . S
H769 C711 0.930 . S
H770 C712 0.930 . S
H771 C713 0.930 . S
H772 C715 0.930 . S
H773 C717 0.929 . S
H774 C718 0.930 . S
H775 C719 0.930 . S
H776 C722 0.930 . S
H777 C725 0.929 . S
H778 C730 0.929 . S
H779 C731 0.930 . S
H780 C738 0.929 . S
H781 C739 0.930 . S
H782 C740 0.930 . S
H783 C741 0.930 . S
H784 C743 0.929 . S
H785 C744 0.930 . S
H786 C745 0.930 . S
H787 C746 0.930 . S
H788 C750 0.929 . S
H789 C752 0.930 . S
H790 C758 0.929 . S
H791 C759 0.930 . S
Li792 N809 1.990 . S
Li792 O852 1.956 . S
Li792 O853 1.970 . S
Li792 O854 1.961 . S
Li793 N817 1.990 . S
Li793 O852 1.970 . S
Li793 O853 1.956 . S
Li793 O855 1.961 . S
Li794 N839 1.990 . S
Li794 O852 1.961 . S
Li794 O854 1.956 . S
Li794 O855 1.970 . S
Li795 N845 1.990 . S
Li795 O853 1.961 . S
Li795 O854 1.970 . S
Li795 O855 1.956 . S
C796 C798 1.348 . S
C796 C799 1.356 . S
C796 O852 1.325 . S
N797 C800 1.314 . S
N797 C801 1.279 . S
C798 C796 1.348 . S
C798 C800 1.353 . S
C798 H856 0.929 . S
C799 C796 1.356 . S
C799 C801 1.358 . S
C799 H857 0.930 . S
C800 N797 1.314 . S
C800 C798 1.353 . S
C800 H858 0.930 . S
C801 N797 1.279 . S
C801 C799 1.358 . S
C801 H859 0.930 . S
C802 C805 1.348 . S
C802 C806 1.356 . S
C802 O853 1.325 . S
C803 N804 1.279 . S
C803 C806 1.358 . S
C803 H860 0.930 . S
N804 C803 1.279 . S
N804 C807 1.314 . S
C805 C802 1.348 . S
C805 C807 1.353 . S
C805 H861 0.929 . S
C806 C802 1.356 . S
C806 C803 1.358 . S
C806 H862 0.930 . S
C807 N804 1.314 . S
C807 C805 1.353 . S
C807 H863 0.930 . S
C808 N809 1.314 . S
C808 C813 1.353 . S
C808 H814 0.930 . S
N809 Li792 1.990 . S
N809 C808 1.314 . S
N809 C811 1.279 . S
C810 C811 1.358 . S
C810 C812 1.356 . S
C810 H864 0.930 . S
C811 N809 1.279 . S
C811 C810 1.358 . S
C811 H815 0.930 . S
C812 C810 1.356 . S
C812 C813 1.348 . S
C813 C808 1.353 . S
C813 C812 1.348 . S
C813 H865 0.929 . S
H814 C808 0.930 . S
H815 C811 0.930 . S
C816 N817 1.314 . S
C816 C818 1.353 . S
C816 H822 0.930 . S
N817 Li793 1.990 . S
N817 C816 1.314 . S
N817 C820 1.279 . S
C818 C816 1.353 . S
C818 C821 1.348 . S
C818 H866 0.929 . S
C819 C820 1.358 . S
C819 C821 1.356 . S
C819 H867 0.930 . S
C820 N817 1.279 . S
C820 C819 1.358 . S
C820 H823 0.930 . S
C821 C818 1.348 . S
C821 C819 1.356 . S
H822 C816 0.930 . S
H823 C820 0.930 . S
C824 C826 1.348 . S
C824 C827 1.356 . S
C824 O854 1.325 . S
N825 C828 1.314 . S
N825 C829 1.279 . S
C826 C824 1.348 . S
C826 C828 1.353 . S
C826 H868 0.929 . S
C827 C824 1.356 . S
C827 C829 1.358 . S
C827 H869 0.930 . S
C828 N825 1.314 . S
C828 C826 1.353 . S
C828 H870 0.930 . S
C829 N825 1.279 . S
C829 C827 1.358 . S
C829 H871 0.930 . S
C830 C831 1.348 . S
C830 C832 1.356 . S
C830 O855 1.325 . S
C831 C830 1.348 . S
C831 C833 1.353 . S
C831 H872 0.929 . S
C832 C830 1.356 . S
C832 C834 1.358 . S
C832 H873 0.930 . S
C833 C831 1.353 . S
C833 N835 1.314 . S
C833 H874 0.930 . S
C834 C832 1.358 . S
C834 N835 1.279 . S
C834 H875 0.930 . S
N835 C833 1.314 . S
N835 C834 1.279 . S
C836 C838 1.353 . S
C836 N839 1.314 . S
C836 H842 0.930 . S
C837 N839 1.279 . S
C837 C840 1.358 . S
C837 H843 0.930 . S
C838 C836 1.353 . S
C838 C841 1.348 . S
C838 H876 0.929 . S
N839 Li794 1.990 . S
N839 C836 1.314 . S
N839 C837 1.279 . S
C840 C837 1.358 . S
C840 C841 1.356 . S
C840 H877 0.930 . S
C841 C838 1.348 . S
C841 C840 1.356 . S
H842 C836 0.930 . S
H843 C837 0.930 . S
C844 N845 1.314 . S
C844 C846 1.353 . S
C844 H850 0.930 . S
N845 Li795 1.990 . S
N845 C844 1.314 . S
N845 C848 1.279 . S
C846 C844 1.353 . S
C846 C849 1.348 . S
C846 H878 0.929 . S
C847 C848 1.358 . S
C847 C849 1.356 . S
C847 H879 0.930 . S
C848 N845 1.279 . S
C848 C847 1.358 . S
C848 H851 0.930 . S
C849 C846 1.348 . S
C849 C847 1.356 . S
H850 C844 0.930 . S
H851 C848 0.930 . S
O852 Li792 1.956 . S
O852 Li793 1.970 . S
O852 Li794 1.961 . S
O852 C796 1.325 . S
O853 Li792 1.970 . S
O853 Li793 1.956 . S
O853 Li795 1.961 . S
O853 C802 1.325 . S
O854 Li792 1.961 . S
O854 Li794 1.956 . S
O854 Li795 1.970 . S
O854 C824 1.325 . S
O855 Li793 1.961 . S
O855 Li794 1.970 . S
O855 Li795 1.956 . S
O855 C830 1.325 . S
H856 C798 0.929 . S
H857 C799 0.930 . S
H858 C800 0.930 . S
H859 C801 0.930 . S
H860 C803 0.930 . S
H861 C805 0.929 . S
H862 C806 0.930 . S
H863 C807 0.930 . S
H864 C810 0.930 . S
H865 C813 0.929 . S
H866 C818 0.929 . S
H867 C819 0.930 . S
H868 C826 0.929 . S
H869 C827 0.930 . S
H870 C828 0.930 . S
H871 C829 0.930 . S
H872 C831 0.929 . S
H873 C832 0.930 . S
H874 C833 0.930 . S
H875 C834 0.930 . S
H876 C838 0.929 . S
H877 C840 0.930 . S
H878 C846 0.929 . S
H879 C847 0.930 . S
Li880 N897 1.990 . S
Li880 O940 1.956 . S
Li880 O941 1.970 . S
Li880 O942 1.961 . S
Li881 N905 1.990 . S
Li881 O940 1.970 . S
Li881 O941 1.956 . S
Li881 O943 1.961 . S
Li882 N927 1.990 . S
Li882 O940 1.961 . S
Li882 O942 1.956 . S
Li882 O943 1.970 . S
Li883 N933 1.990 . S
Li883 O941 1.961 . S
Li883 O942 1.970 . S
Li883 O943 1.956 . S
C884 C886 1.348 . S
C884 C887 1.356 . S
C884 O940 1.325 . S
N885 C888 1.314 . S
N885 C889 1.279 . S
C886 C884 1.348 . S
C886 C888 1.353 . S
C886 H944 0.929 . S
C887 C884 1.356 . S
C887 C889 1.358 . S
C887 H945 0.930 . S
C888 N885 1.314 . S
C888 C886 1.353 . S
C888 H946 0.930 . S
C889 N885 1.279 . S
C889 C887 1.358 . S
C889 H947 0.930 . S
C890 C893 1.348 . S
C890 C894 1.356 . S
C890 O941 1.325 . S
C891 N892 1.279 . S
C891 C894 1.358 1_554 S
C891 H948 0.930 . S
N892 C891 1.279 . S
N892 C895 1.314 . S
C893 C890 1.348 . S
C893 C895 1.353 1_556 S
C893 H949 0.929 . S
C894 C890 1.356 . S
C894 C891 1.358 1_556 S
C894 H950 0.930 . S
C895 N892 1.314 . S
C895 C893 1.353 1_554 S
C895 H951 0.930 . S
C896 N897 1.314 . S
C896 C901 1.353 . S
C896 H902 0.930 . S
N897 Li880 1.990 . S
N897 C896 1.314 . S
N897 C899 1.279 . S
C898 C899 1.358 . S
C898 C900 1.356 . S
C898 H952 0.930 . S
C899 N897 1.279 . S
C899 C898 1.358 . S
C899 H903 0.930 . S
C900 C898 1.356 . S
C900 C901 1.348 . S
C901 C896 1.353 . S
C901 C900 1.348 . S
C901 H953 0.929 . S
H902 C896 0.930 . S
H903 C899 0.930 . S
C904 N905 1.314 . S
C904 C906 1.353 . S
C904 H910 0.930 . S
N905 Li881 1.990 . S
N905 C904 1.314 . S
N905 C908 1.279 . S
C906 C904 1.353 . S
C906 C909 1.348 . S
C906 H954 0.929 . S
C907 C908 1.358 . S
C907 C909 1.356 . S
C907 H955 0.930 . S
C908 N905 1.279 . S
C908 C907 1.358 . S
C908 H911 0.930 . S
C909 C906 1.348 . S
C909 C907 1.356 . S
H910 C904 0.930 . S
H911 C908 0.930 . S
C912 C914 1.348 . S
C912 C915 1.356 . S
C912 O942 1.325 . S
N913 C916 1.314 . S
N913 C917 1.279 . S
C914 C912 1.348 . S
C914 C916 1.353 . S
C914 H956 0.929 . S
C915 C912 1.356 . S
C915 C917 1.358 . S
C915 H957 0.930 . S
C916 N913 1.314 . S
C916 C914 1.353 . S
C916 H958 0.930 . S
C917 N913 1.279 . S
C917 C915 1.358 . S
C917 H959 0.930 . S
C918 C919 1.348 . S
C918 C920 1.356 . S
C918 O943 1.325 . S
C919 C918 1.348 . S
C919 C921 1.353 . S
C919 H960 0.929 . S
C920 C918 1.356 . S
C920 C922 1.358 . S
C920 H961 0.930 . S
C921 C919 1.353 . S
C921 N923 1.314 . S
C921 H962 0.930 . S
C922 C920 1.358 . S
C922 N923 1.279 . S
C922 H963 0.930 . S
N923 C921 1.314 . S
N923 C922 1.279 . S
C924 C926 1.353 . S
C924 N927 1.314 . S
C924 H930 0.930 . S
C925 N927 1.279 . S
C925 C928 1.358 . S
C925 H931 0.930 . S
C926 C924 1.353 . S
C926 C929 1.348 . S
C926 H964 0.929 . S
N927 Li882 1.990 . S
N927 C924 1.314 . S
N927 C925 1.279 . S
C928 C925 1.358 . S
C928 C929 1.356 . S
C928 H965 0.930 . S
C929 C926 1.348 . S
C929 C928 1.356 . S
H930 C924 0.930 . S
H931 C925 0.930 . S
C932 N933 1.314 . S
C932 C934 1.353 . S
C932 H938 0.930 . S
N933 Li883 1.990 . S
N933 C932 1.314 . S
N933 C936 1.279 . S
C934 C932 1.353 . S
C934 C937 1.348 . S
C934 H966 0.929 . S
C935 C936 1.358 . S
C935 C937 1.356 . S
C935 H967 0.930 . S
C936 N933 1.279 . S
C936 C935 1.358 . S
C936 H939 0.930 . S
C937 C934 1.348 . S
C937 C935 1.356 . S
H938 C932 0.930 . S
H939 C936 0.930 . S
O940 Li880 1.956 . S
O940 Li881 1.970 . S
O940 Li882 1.961 . S
O940 C884 1.325 . S
O941 Li880 1.970 . S
O941 Li881 1.956 . S
O941 Li883 1.961 . S
O941 C890 1.325 . S
O942 Li880 1.961 . S
O942 Li882 1.956 . S
O942 Li883 1.970 . S
O942 C912 1.325 . S
O943 Li881 1.961 . S
O943 Li882 1.970 . S
O943 Li883 1.956 . S
O943 C918 1.325 . S
H944 C886 0.929 . S
H945 C887 0.930 . S
H946 C888 0.930 . S
H947 C889 0.930 . S
H948 C891 0.930 . S
H949 C893 0.929 . S
H950 C894 0.930 . S
H951 C895 0.930 . S
H952 C898 0.930 . S
H953 C901 0.929 . S
H954 C906 0.929 . S
H955 C907 0.930 . S
H956 C914 0.929 . S
H957 C915 0.930 . S
H958 C916 0.930 . S
H959 C917 0.930 . S
H960 C919 0.929 . S
H961 C920 0.930 . S
H962 C921 0.930 . S
H963 C922 0.930 . S
H964 C926 0.929 . S
H965 C928 0.930 . S
H966 C934 0.929 . S
H967 C935 0.930 . S
Li968 N985 1.990 . S
Li968 O1028 1.956 . S
Li968 O1029 1.970 . S
Li968 O1030 1.961 . S
Li969 N993 1.990 . S
Li969 O1028 1.970 . S
Li969 O1029 1.956 . S
Li969 O1031 1.961 . S
Li970 N1015 1.990 . S
Li970 O1028 1.961 . S
Li970 O1030 1.956 . S
Li970 O1031 1.970 . S
Li971 N1021 1.990 . S
Li971 O1029 1.961 . S
Li971 O1030 1.970 . S
Li971 O1031 1.956 . S
C972 C974 1.348 . S
C972 C975 1.356 . S
C972 O1028 1.325 . S
N973 C976 1.314 . S
N973 C977 1.279 . S
C974 C972 1.348 . S
C974 C976 1.353 . S
C974 H1032 0.929 . S
C975 C972 1.356 . S
C975 C977 1.358 . S
C975 H1033 0.930 . S
C976 N973 1.314 . S
C976 C974 1.353 . S
C976 H1034 0.930 . S
C977 N973 1.279 . S
C977 C975 1.358 . S
C977 H1035 0.930 . S
C978 C981 1.348 . S
C978 C982 1.356 . S
C978 O1029 1.325 . S
C979 N980 1.279 . S
C979 C982 1.358 . S
C979 H1036 0.930 . S
N980 C979 1.279 . S
N980 C983 1.314 . S
C981 C978 1.348 . S
C981 C983 1.353 . S
C981 H1037 0.929 . S
C982 C978 1.356 . S
C982 C979 1.358 . S
C982 H1038 0.930 . S
C983 N980 1.314 . S
C983 C981 1.353 . S
C983 H1039 0.930 . S
C984 N985 1.314 . S
C984 C989 1.353 . S
C984 H990 0.930 . S
N985 Li968 1.990 . S
N985 C984 1.314 . S
N985 C987 1.279 . S
C986 C987 1.358 . S
C986 C988 1.356 . S
C986 H1040 0.930 . S
C987 N985 1.279 . S
C987 C986 1.358 . S
C987 H991 0.930 . S
C988 C986 1.356 . S
C988 C989 1.348 . S
C989 C984 1.353 . S
C989 C988 1.348 . S
C989 H1041 0.929 . S
H990 C984 0.930 . S
H991 C987 0.930 . S
C992 N993 1.314 . S
C992 C994 1.353 . S
C992 H998 0.930 . S
N993 Li969 1.990 . S
N993 C992 1.314 . S
N993 C996 1.279 . S
C994 C992 1.353 . S
C994 C997 1.348 . S
C994 H1042 0.929 . S
C995 C996 1.358 . S
C995 C997 1.356 . S
C995 H1043 0.930 . S
C996 N993 1.279 . S
C996 C995 1.358 . S
C996 H999 0.930 . S
C997 C994 1.348 . S
C997 C995 1.356 . S
H998 C992 0.930 . S
H999 C996 0.930 . S
C1000 C1002 1.348 . S
C1000 C1003 1.356 . S
C1000 O1030 1.325 . S
N1001 C1004 1.314 . S
N1001 C1005 1.279 . S
C1002 C1000 1.348 . S
C1002 C1004 1.353 . S
C1002 H1044 0.929 . S
C1003 C1000 1.356 . S
C1003 C1005 1.358 . S
C1003 H1045 0.930 . S
C1004 N1001 1.314 . S
C1004 C1002 1.353 . S
C1004 H1046 0.930 . S
C1005 N1001 1.279 . S
C1005 C1003 1.358 . S
C1005 H1047 0.930 . S
C1006 C1007 1.348 . S
C1006 C1008 1.356 . S
C1006 O1031 1.325 . S
C1007 C1006 1.348 . S
C1007 C1009 1.353 . S
C1007 H1048 0.929 . S
C1008 C1006 1.356 . S
C1008 C1010 1.358 . S
C1008 H1049 0.930 . S
C1009 C1007 1.353 . S
C1009 N1011 1.314 . S
C1009 H1050 0.930 . S
C1010 C1008 1.358 . S
C1010 N1011 1.279 . S
C1010 H1051 0.930 . S
N1011 C1009 1.314 . S
N1011 C1010 1.279 . S
C1012 C1014 1.353 . S
C1012 N1015 1.314 . S
C1012 H1018 0.930 . S
C1013 N1015 1.279 . S
C1013 C1016 1.358 . S
C1013 H1019 0.930 . S
C1014 C1012 1.353 . S
C1014 C1017 1.348 . S
C1014 H1052 0.929 . S
N1015 Li970 1.990 . S
N1015 C1012 1.314 . S
N1015 C1013 1.279 . S
C1016 C1013 1.358 . S
C1016 C1017 1.356 . S
C1016 H1053 0.930 . S
C1017 C1014 1.348 . S
C1017 C1016 1.356 . S
H1018 C1012 0.930 . S
H1019 C1013 0.930 . S
C1020 N1021 1.314 . S
C1020 C1022 1.353 . S
C1020 H1026 0.930 . S
N1021 Li971 1.990 . S
N1021 C1020 1.314 . S
N1021 C1024 1.279 . S
C1022 C1020 1.353 . S
C1022 C1025 1.348 . S
C1022 H1054 0.929 . S
C1023 C1024 1.358 . S
C1023 C1025 1.356 . S
C1023 H1055 0.930 . S
C1024 N1021 1.279 . S
C1024 C1023 1.358 . S
C1024 H1027 0.930 . S
C1025 C1022 1.348 . S
C1025 C1023 1.356 . S
H1026 C1020 0.930 . S
H1027 C1024 0.930 . S
O1028 Li968 1.956 . S
O1028 Li969 1.970 . S
O1028 Li970 1.961 . S
O1028 C972 1.325 . S
O1029 Li968 1.970 . S
O1029 Li969 1.956 . S
O1029 Li971 1.961 . S
O1029 C978 1.325 . S
O1030 Li968 1.961 . S
O1030 Li970 1.956 . S
O1030 Li971 1.970 . S
O1030 C1000 1.325 . S
O1031 Li969 1.961 . S
O1031 Li970 1.970 . S
O1031 Li971 1.956 . S
O1031 C1006 1.325 . S
H1032 C974 0.929 . S
H1033 C975 0.930 . S
H1034 C976 0.930 . S
H1035 C977 0.930 . S
H1036 C979 0.930 . S
H1037 C981 0.929 . S
H1038 C982 0.930 . S
H1039 C983 0.930 . S
H1040 C986 0.930 . S
H1041 C989 0.929 . S
H1042 C994 0.929 . S
H1043 C995 0.930 . S
H1044 C1002 0.929 . S
H1045 C1003 0.930 . S
H1046 C1004 0.930 . S
H1047 C1005 0.930 . S
H1048 C1007 0.929 . S
H1049 C1008 0.930 . S
H1050 C1009 0.930 . S
H1051 C1010 0.930 . S
H1052 C1014 0.929 . S
H1053 C1016 0.930 . S
H1054 C1022 0.929 . S
H1055 C1023 0.930 . S
Li1056 N1073 1.990 . S
Li1056 O1116 1.956 . S
Li1056 O1117 1.970 . S
Li1056 O1118 1.961 . S
Li1057 N1081 1.990 . S
Li1057 O1116 1.970 . S
Li1057 O1117 1.956 . S
Li1057 O1119 1.961 . S
Li1058 N1103 1.990 . S
Li1058 O1116 1.961 . S
Li1058 O1118 1.956 . S
Li1058 O1119 1.970 . S
Li1059 N1109 1.990 . S
Li1059 O1117 1.961 . S
Li1059 O1118 1.970 . S
Li1059 O1119 1.956 . S
C1060 C1062 1.348 . S
C1060 C1063 1.356 . S
C1060 O1116 1.325 . S
N1061 C1064 1.314 . S
N1061 C1065 1.279 . S
C1062 C1060 1.348 . S
C1062 C1064 1.353 1_556 S
C1062 H1120 0.929 . S
C1063 C1060 1.356 . S
C1063 C1065 1.358 1_556 S
C1063 H1121 0.930 . S
C1064 N1061 1.314 . S
C1064 C1062 1.353 1_554 S
C1064 H1122 0.930 . S
C1065 N1061 1.279 . S
C1065 C1063 1.358 1_554 S
C1065 H1123 0.930 . S
C1066 C1069 1.348 . S
C1066 C1070 1.356 . S
C1066 O1117 1.325 . S
C1067 N1068 1.279 . S
C1067 C1070 1.358 . S
C1067 H1124 0.930 . S
N1068 C1067 1.279 . S
N1068 C1071 1.314 . S
C1069 C1066 1.348 . S
C1069 C1071 1.353 . S
C1069 H1125 0.929 . S
C1070 C1066 1.356 . S
C1070 C1067 1.358 . S
C1070 H1126 0.930 . S
C1071 N1068 1.314 . S
C1071 C1069 1.353 . S
C1071 H1127 0.930 . S
C1072 N1073 1.314 . S
C1072 C1077 1.353 . S
C1072 H1078 0.930 . S
N1073 Li1056 1.990 . S
N1073 C1072 1.314 . S
N1073 C1075 1.279 . S
C1074 C1075 1.358 . S
C1074 C1076 1.356 . S
C1074 H1128 0.930 . S
C1075 N1073 1.279 . S
C1075 C1074 1.358 . S
C1075 H1079 0.930 . S
C1076 C1074 1.356 . S
C1076 C1077 1.348 . S
C1077 C1072 1.353 . S
C1077 C1076 1.348 . S
C1077 H1129 0.929 . S
H1078 C1072 0.930 . S
H1079 C1075 0.930 . S
C1080 N1081 1.314 . S
C1080 C1082 1.353 . S
C1080 H1086 0.930 . S
N1081 Li1057 1.990 . S
N1081 C1080 1.314 . S
N1081 C1084 1.279 . S
C1082 C1080 1.353 . S
C1082 C1085 1.348 . S
C1082 H1130 0.929 . S
C1083 C1084 1.358 . S
C1083 C1085 1.356 . S
C1083 H1131 0.930 . S
C1084 N1081 1.279 . S
C1084 C1083 1.358 . S
C1084 H1087 0.930 . S
C1085 C1082 1.348 . S
C1085 C1083 1.356 . S
H1086 C1080 0.930 . S
H1087 C1084 0.930 . S
C1088 C1090 1.348 . S
C1088 C1091 1.356 . S
C1088 O1118 1.325 . S
N1089 C1092 1.314 . S
N1089 C1093 1.279 . S
C1090 C1088 1.348 . S
C1090 C1092 1.353 . S
C1090 H1132 0.929 . S
C1091 C1088 1.356 . S
C1091 C1093 1.358 . S
C1091 H1133 0.930 . S
C1092 N1089 1.314 . S
C1092 C1090 1.353 . S
C1092 H1134 0.930 . S
C1093 N1089 1.279 . S
C1093 C1091 1.358 . S
C1093 H1135 0.930 . S
C1094 C1095 1.348 . S
C1094 C1096 1.356 . S
C1094 O1119 1.325 . S
C1095 C1094 1.348 . S
C1095 C1097 1.353 . S
C1095 H1136 0.929 . S
C1096 C1094 1.356 . S
C1096 C1098 1.358 . S
C1096 H1137 0.930 . S
C1097 C1095 1.353 . S
C1097 N1099 1.314 . S
C1097 H1138 0.930 . S
C1098 C1096 1.358 . S
C1098 N1099 1.279 . S
C1098 H1139 0.930 . S
N1099 C1097 1.314 . S
N1099 C1098 1.279 . S
C1100 C1102 1.353 . S
C1100 N1103 1.314 . S
C1100 H1106 0.930 . S
C1101 N1103 1.279 . S
C1101 C1104 1.358 . S
C1101 H1107 0.930 . S
C1102 C1100 1.353 . S
C1102 C1105 1.348 . S
C1102 H1140 0.929 . S
N1103 Li1058 1.990 . S
N1103 C1100 1.314 . S
N1103 C1101 1.279 . S
C1104 C1101 1.358 . S
C1104 C1105 1.356 . S
C1104 H1141 0.930 . S
C1105 C1102 1.348 . S
C1105 C1104 1.356 . S
H1106 C1100 0.930 . S
H1107 C1101 0.930 . S
C1108 N1109 1.314 . S
C1108 C1110 1.353 . S
C1108 H1114 0.930 . S
N1109 Li1059 1.990 . S
N1109 C1108 1.314 . S
N1109 C1112 1.279 . S
C1110 C1108 1.353 . S
C1110 C1113 1.348 . S
C1110 H1142 0.929 . S
C1111 C1112 1.358 . S
C1111 C1113 1.356 . S
C1111 H1143 0.930 . S
C1112 N1109 1.279 . S
C1112 C1111 1.358 . S
C1112 H1115 0.930 . S
C1113 C1110 1.348 . S
C1113 C1111 1.356 . S
H1114 C1108 0.930 . S
H1115 C1112 0.930 . S
O1116 Li1056 1.956 . S
O1116 Li1057 1.970 . S
O1116 Li1058 1.961 . S
O1116 C1060 1.325 . S
O1117 Li1056 1.970 . S
O1117 Li1057 1.956 . S
O1117 Li1059 1.961 . S
O1117 C1066 1.325 . S
O1118 Li1056 1.961 . S
O1118 Li1058 1.956 . S
O1118 Li1059 1.970 . S
O1118 C1088 1.325 . S
O1119 Li1057 1.961 . S
O1119 Li1058 1.970 . S
O1119 Li1059 1.956 . S
O1119 C1094 1.325 . S
H1120 C1062 0.929 . S
H1121 C1063 0.930 . S
H1122 C1064 0.930 . S
H1123 C1065 0.930 . S
H1124 C1067 0.930 . S
H1125 C1069 0.929 . S
H1126 C1070 0.930 . S
H1127 C1071 0.930 . S
H1128 C1074 0.930 . S
H1129 C1077 0.929 . S
H1130 C1082 0.929 . S
H1131 C1083 0.930 . S
H1132 C1090 0.929 . S
H1133 C1091 0.930 . S
H1134 C1092 0.930 . S
H1135 C1093 0.930 . S
H1136 C1095 0.929 . S
H1137 C1096 0.930 . S
H1138 C1097 0.930 . S
H1139 C1098 0.930 . S
H1140 C1102 0.929 . S
H1141 C1104 0.930 . S
H1142 C1110 0.929 . S
H1143 C1111 0.930 . S
Li1144 N1161 1.990 . S
Li1144 O1204 1.956 . S
Li1144 O1205 1.970 . S
Li1144 O1206 1.961 . S
Li1145 N1169 1.990 . S
Li1145 O1204 1.970 . S
Li1145 O1205 1.956 . S
Li1145 O1207 1.961 . S
Li1146 N1191 1.990 . S
Li1146 O1204 1.961 . S
Li1146 O1206 1.956 . S
Li1146 O1207 1.970 . S
Li1147 N1197 1.990 . S
Li1147 O1205 1.961 . S
Li1147 O1206 1.970 . S
Li1147 O1207 1.956 . S
C1148 C1150 1.348 . S
C1148 C1151 1.356 . S
C1148 O1204 1.325 . S
N1149 C1152 1.314 . S
N1149 C1153 1.279 . S
C1150 C1148 1.348 . S
C1150 C1152 1.353 . S
C1150 H1208 0.929 . S
C1151 C1148 1.356 . S
C1151 C1153 1.358 . S
C1151 H1209 0.930 . S
C1152 N1149 1.314 . S
C1152 C1150 1.353 . S
C1152 H1210 0.930 . S
C1153 N1149 1.279 . S
C1153 C1151 1.358 . S
C1153 H1211 0.930 . S
C1154 C1157 1.348 . S
C1154 C1158 1.356 . S
C1154 O1205 1.325 . S
C1155 N1156 1.279 . S
C1155 C1158 1.358 . S
C1155 H1212 0.930 . S
N1156 C1155 1.279 . S
N1156 C1159 1.314 . S
C1157 C1154 1.348 . S
C1157 C1159 1.353 . S
C1157 H1213 0.929 . S
C1158 C1154 1.356 . S
C1158 C1155 1.358 . S
C1158 H1214 0.930 . S
C1159 N1156 1.314 . S
C1159 C1157 1.353 . S
C1159 H1215 0.930 . S
C1160 N1161 1.314 . S
C1160 C1165 1.353 . S
C1160 H1166 0.930 . S
N1161 Li1144 1.990 . S
N1161 C1160 1.314 . S
N1161 C1163 1.279 . S
C1162 C1163 1.358 . S
C1162 C1164 1.356 . S
C1162 H1216 0.930 . S
C1163 N1161 1.279 . S
C1163 C1162 1.358 . S
C1163 H1167 0.930 . S
C1164 C1162 1.356 . S
C1164 C1165 1.348 . S
C1165 C1160 1.353 . S
C1165 C1164 1.348 . S
C1165 H1217 0.929 . S
H1166 C1160 0.930 . S
H1167 C1163 0.930 . S
C1168 N1169 1.314 . S
C1168 C1170 1.353 . S
C1168 H1174 0.930 . S
N1169 Li1145 1.990 . S
N1169 C1168 1.314 . S
N1169 C1172 1.279 . S
C1170 C1168 1.353 . S
C1170 C1173 1.348 . S
C1170 H1218 0.929 . S
C1171 C1172 1.358 . S
C1171 C1173 1.356 . S
C1171 H1219 0.930 . S
C1172 N1169 1.279 . S
C1172 C1171 1.358 . S
C1172 H1175 0.930 . S
C1173 C1170 1.348 . S
C1173 C1171 1.356 . S
H1174 C1168 0.930 . S
H1175 C1172 0.930 . S
C1176 C1178 1.348 . S
C1176 C1179 1.356 . S
C1176 O1206 1.325 . S
N1177 C1180 1.314 . S
N1177 C1181 1.279 . S
C1178 C1176 1.348 . S
C1178 C1180 1.353 . S
C1178 H1220 0.929 . S
C1179 C1176 1.356 . S
C1179 C1181 1.358 . S
C1179 H1221 0.930 . S
C1180 N1177 1.314 . S
C1180 C1178 1.353 . S
C1180 H1222 0.930 . S
C1181 N1177 1.279 . S
C1181 C1179 1.358 . S
C1181 H1223 0.930 . S
C1182 C1183 1.348 . S
C1182 C1184 1.356 . S
C1182 O1207 1.325 . S
C1183 C1182 1.348 . S
C1183 C1185 1.353 . S
C1183 H1224 0.929 . S
C1184 C1182 1.356 . S
C1184 C1186 1.358 . S
C1184 H1225 0.930 . S
C1185 C1183 1.353 . S
C1185 N1187 1.314 . S
C1185 H1226 0.930 . S
C1186 C1184 1.358 . S
C1186 N1187 1.279 . S
C1186 H1227 0.930 . S
N1187 C1185 1.314 . S
N1187 C1186 1.279 . S
C1188 C1190 1.353 . S
C1188 N1191 1.314 . S
C1188 H1194 0.930 . S
C1189 N1191 1.279 . S
C1189 C1192 1.358 . S
C1189 H1195 0.930 . S
C1190 C1188 1.353 . S
C1190 C1193 1.348 . S
C1190 H1228 0.929 . S
N1191 Li1146 1.990 . S
N1191 C1188 1.314 . S
N1191 C1189 1.279 . S
C1192 C1189 1.358 . S
C1192 C1193 1.356 . S
C1192 H1229 0.930 . S
C1193 C1190 1.348 . S
C1193 C1192 1.356 . S
H1194 C1188 0.930 . S
H1195 C1189 0.930 . S
C1196 N1197 1.314 . S
C1196 C1198 1.353 . S
C1196 H1202 0.930 . S
N1197 Li1147 1.990 . S
N1197 C1196 1.314 . S
N1197 C1200 1.279 . S
C1198 C1196 1.353 . S
C1198 C1201 1.348 . S
C1198 H1230 0.929 . S
C1199 C1200 1.358 . S
C1199 C1201 1.356 . S
C1199 H1231 0.930 . S
C1200 N1197 1.279 . S
C1200 C1199 1.358 . S
C1200 H1203 0.930 . S
C1201 C1198 1.348 . S
C1201 C1199 1.356 . S
H1202 C1196 0.930 . S
H1203 C1200 0.930 . S
O1204 Li1144 1.956 . S
O1204 Li1145 1.970 . S
O1204 Li1146 1.961 . S
O1204 C1148 1.325 . S
O1205 Li1144 1.970 . S
O1205 Li1145 1.956 . S
O1205 Li1147 1.961 . S
O1205 C1154 1.325 . S
O1206 Li1144 1.961 . S
O1206 Li1146 1.956 . S
O1206 Li1147 1.970 . S
O1206 C1176 1.325 . S
O1207 Li1145 1.961 . S
O1207 Li1146 1.970 . S
O1207 Li1147 1.956 . S
O1207 C1182 1.325 . S
H1208 C1150 0.929 . S
H1209 C1151 0.930 . S
H1210 C1152 0.930 . S
H1211 C1153 0.930 . S
H1212 C1155 0.930 . S
H1213 C1157 0.929 . S
H1214 C1158 0.930 . S
H1215 C1159 0.930 . S
H1216 C1162 0.930 . S
H1217 C1165 0.929 . S
H1218 C1170 0.929 . S
H1219 C1171 0.930 . S
H1220 C1178 0.929 . S
H1221 C1179 0.930 . S
H1222 C1180 0.930 . S
H1223 C1181 0.930 . S
H1224 C1183 0.929 . S
H1225 C1184 0.930 . S
H1226 C1185 0.930 . S
H1227 C1186 0.930 . S
H1228 C1190 0.929 . S
H1229 C1192 0.930 . S
H1230 C1198 0.929 . S
H1231 C1199 0.930 . S
Li1232 N1249 1.990 . S
Li1232 O1292 1.956 . S
Li1232 O1293 1.970 . S
Li1232 O1294 1.961 . S
Li1233 N1257 1.990 . S
Li1233 O1292 1.970 . S
Li1233 O1293 1.956 . S
Li1233 O1295 1.961 . S
Li1234 N1279 1.990 . S
Li1234 O1292 1.961 . S
Li1234 O1294 1.956 . S
Li1234 O1295 1.970 . S
Li1235 N1285 1.990 . S
Li1235 O1293 1.961 . S
Li1235 O1294 1.970 . S
Li1235 O1295 1.956 . S
C1236 C1238 1.348 . S
C1236 C1239 1.356 . S
C1236 O1292 1.325 . S
N1237 C1240 1.314 . S
N1237 C1241 1.279 . S
C1238 C1236 1.348 . S
C1238 C1240 1.353 . S
C1238 H1296 0.929 . S
C1239 C1236 1.356 . S
C1239 C1241 1.358 . S
C1239 H1297 0.930 . S
C1240 N1237 1.314 . S
C1240 C1238 1.353 . S
C1240 H1298 0.930 . S
C1241 N1237 1.279 . S
C1241 C1239 1.358 . S
C1241 H1299 0.930 . S
C1242 C1245 1.348 . S
C1242 C1246 1.356 . S
C1242 O1293 1.325 . S
C1243 N1244 1.279 . S
C1243 C1246 1.358 . S
C1243 H1300 0.930 . S
N1244 C1243 1.279 . S
N1244 C1247 1.314 . S
C1245 C1242 1.348 . S
C1245 C1247 1.353 . S
C1245 H1301 0.929 . S
C1246 C1242 1.356 . S
C1246 C1243 1.358 . S
C1246 H1302 0.930 . S
C1247 N1244 1.314 . S
C1247 C1245 1.353 . S
C1247 H1303 0.930 . S
C1248 N1249 1.314 . S
C1248 C1253 1.353 . S
C1248 H1254 0.930 . S
N1249 Li1232 1.990 . S
N1249 C1248 1.314 . S
N1249 C1251 1.279 . S
C1250 C1251 1.358 . S
C1250 C1252 1.356 . S
C1250 H1304 0.930 . S
C1251 N1249 1.279 . S
C1251 C1250 1.358 . S
C1251 H1255 0.930 . S
C1252 C1250 1.356 . S
C1252 C1253 1.348 . S
C1253 C1248 1.353 . S
C1253 C1252 1.348 . S
C1253 H1305 0.929 . S
H1254 C1248 0.930 . S
H1255 C1251 0.930 . S
C1256 N1257 1.314 . S
C1256 C1258 1.353 . S
C1256 H1262 0.930 . S
N1257 Li1233 1.990 . S
N1257 C1256 1.314 . S
N1257 C1260 1.279 . S
C1258 C1256 1.353 . S
C1258 C1261 1.348 . S
C1258 H1306 0.929 . S
C1259 C1260 1.358 . S
C1259 C1261 1.356 . S
C1259 H1307 0.930 . S
C1260 N1257 1.279 . S
C1260 C1259 1.358 . S
C1260 H1263 0.930 . S
C1261 C1258 1.348 . S
C1261 C1259 1.356 . S
H1262 C1256 0.930 . S
H1263 C1260 0.930 . S
C1264 C1266 1.348 . S
C1264 C1267 1.356 . S
C1264 O1294 1.325 . S
N1265 C1268 1.314 . S
N1265 C1269 1.279 . S
C1266 C1264 1.348 . S
C1266 C1268 1.353 . S
C1266 H1308 0.929 . S
C1267 C1264 1.356 . S
C1267 C1269 1.358 . S
C1267 H1309 0.930 . S
C1268 N1265 1.314 . S
C1268 C1266 1.353 . S
C1268 H1310 0.930 . S
C1269 N1265 1.279 . S
C1269 C1267 1.358 . S
C1269 H1311 0.930 . S
C1270 C1271 1.348 . S
C1270 C1272 1.356 . S
C1270 O1295 1.325 . S
C1271 C1270 1.348 . S
C1271 C1273 1.353 1_554 S
C1271 H1312 0.929 . S
C1272 C1270 1.356 . S
C1272 C1274 1.358 1_554 S
C1272 H1313 0.930 . S
C1273 C1271 1.353 1_556 S
C1273 N1275 1.314 . S
C1273 H1314 0.930 . S
C1274 C1272 1.358 1_556 S
C1274 N1275 1.279 . S
C1274 H1315 0.930 . S
N1275 C1273 1.314 . S
N1275 C1274 1.279 . S
C1276 C1278 1.353 . S
C1276 N1279 1.314 . S
C1276 H1282 0.930 . S
C1277 N1279 1.279 . S
C1277 C1280 1.358 . S
C1277 H1283 0.930 . S
C1278 C1276 1.353 . S
C1278 C1281 1.348 . S
C1278 H1316 0.929 . S
N1279 Li1234 1.990 . S
N1279 C1276 1.314 . S
N1279 C1277 1.279 . S
C1280 C1277 1.358 . S
C1280 C1281 1.356 . S
C1280 H1317 0.930 . S
C1281 C1278 1.348 . S
C1281 C1280 1.356 . S
H1282 C1276 0.930 . S
H1283 C1277 0.930 . S
C1284 N1285 1.314 . S
C1284 C1286 1.353 . S
C1284 H1290 0.930 . S
N1285 Li1235 1.990 . S
N1285 C1284 1.314 . S
N1285 C1288 1.279 . S
C1286 C1284 1.353 . S
C1286 C1289 1.348 . S
C1286 H1318 0.929 . S
C1287 C1288 1.358 . S
C1287 C1289 1.356 . S
C1287 H1319 0.930 . S
C1288 N1285 1.279 . S
C1288 C1287 1.358 . S
C1288 H1291 0.930 . S
C1289 C1286 1.348 . S
C1289 C1287 1.356 . S
H1290 C1284 0.930 . S
H1291 C1288 0.930 . S
O1292 Li1232 1.956 . S
O1292 Li1233 1.970 . S
O1292 Li1234 1.961 . S
O1292 C1236 1.325 . S
O1293 Li1232 1.970 . S
O1293 Li1233 1.956 . S
O1293 Li1235 1.961 . S
O1293 C1242 1.325 . S
O1294 Li1232 1.961 . S
O1294 Li1234 1.956 . S
O1294 Li1235 1.970 . S
O1294 C1264 1.325 . S
O1295 Li1233 1.961 . S
O1295 Li1234 1.970 . S
O1295 Li1235 1.956 . S
O1295 C1270 1.325 . S
H1296 C1238 0.929 . S
H1297 C1239 0.930 . S
H1298 C1240 0.930 . S
H1299 C1241 0.930 . S
H1300 C1243 0.930 . S
H1301 C1245 0.929 . S
H1302 C1246 0.930 . S
H1303 C1247 0.930 . S
H1304 C1250 0.930 . S
H1305 C1253 0.929 . S
H1306 C1258 0.929 . S
H1307 C1259 0.930 . S
H1308 C1266 0.929 . S
H1309 C1267 0.930 . S
H1310 C1268 0.930 . S
H1311 C1269 0.930 . S
H1312 C1271 0.929 . S
H1313 C1272 0.930 . S
H1314 C1273 0.930 . S
H1315 C1274 0.930 . S
H1316 C1278 0.929 . S
H1317 C1280 0.930 . S
H1318 C1286 0.929 . S
H1319 C1287 0.930 . S
Li1320 N1337 1.990 . S
Li1320 O1380 1.956 . S
Li1320 O1381 1.970 . S
Li1320 O1382 1.961 . S
Li1321 N1345 1.990 . S
Li1321 O1380 1.970 . S
Li1321 O1381 1.956 . S
Li1321 O1383 1.961 . S
Li1322 N1367 1.990 . S
Li1322 O1380 1.961 . S
Li1322 O1382 1.956 . S
Li1322 O1383 1.970 . S
Li1323 N1373 1.990 . S
Li1323 O1381 1.961 . S
Li1323 O1382 1.970 . S
Li1323 O1383 1.956 . S
C1324 C1326 1.348 . S
C1324 C1327 1.356 . S
C1324 O1380 1.325 . S
N1325 C1328 1.314 . S
N1325 C1329 1.279 . S
C1326 C1324 1.348 . S
C1326 C1328 1.353 . S
C1326 H1384 0.929 . S
C1327 C1324 1.356 . S
C1327 C1329 1.358 . S
C1327 H1385 0.930 . S
C1328 N1325 1.314 . S
C1328 C1326 1.353 . S
C1328 H1386 0.930 . S
C1329 N1325 1.279 . S
C1329 C1327 1.358 . S
C1329 H1387 0.930 . S
C1330 C1333 1.348 . S
C1330 C1334 1.356 . S
C1330 O1381 1.325 . S
C1331 N1332 1.279 . S
C1331 C1334 1.358 . S
C1331 H1388 0.930 . S
N1332 C1331 1.279 . S
N1332 C1335 1.314 . S
C1333 C1330 1.348 . S
C1333 C1335 1.353 . S
C1333 H1389 0.929 . S
C1334 C1330 1.356 . S
C1334 C1331 1.358 . S
C1334 H1390 0.930 . S
C1335 N1332 1.314 . S
C1335 C1333 1.353 . S
C1335 H1391 0.930 . S
C1336 N1337 1.314 . S
C1336 C1341 1.353 . S
C1336 H1342 0.930 . S
N1337 Li1320 1.990 . S
N1337 C1336 1.314 . S
N1337 C1339 1.279 . S
C1338 C1339 1.358 . S
C1338 C1340 1.356 . S
C1338 H1392 0.930 . S
C1339 N1337 1.279 . S
C1339 C1338 1.358 . S
C1339 H1343 0.930 . S
C1340 C1338 1.356 . S
C1340 C1341 1.348 . S
C1341 C1336 1.353 . S
C1341 C1340 1.348 . S
C1341 H1393 0.929 . S
H1342 C1336 0.930 . S
H1343 C1339 0.930 . S
C1344 N1345 1.314 . S
C1344 C1346 1.353 . S
C1344 H1350 0.930 . S
N1345 Li1321 1.990 . S
N1345 C1344 1.314 . S
N1345 C1348 1.279 . S
C1346 C1344 1.353 . S
C1346 C1349 1.348 . S
C1346 H1394 0.929 . S
C1347 C1348 1.358 . S
C1347 C1349 1.356 . S
C1347 H1395 0.930 . S
C1348 N1345 1.279 . S
C1348 C1347 1.358 . S
C1348 H1351 0.930 . S
C1349 C1346 1.348 . S
C1349 C1347 1.356 . S
H1350 C1344 0.930 . S
H1351 C1348 0.930 . S
C1352 C1354 1.348 . S
C1352 C1355 1.356 . S
C1352 O1382 1.325 . S
N1353 C1356 1.314 . S
N1353 C1357 1.279 . S
C1354 C1352 1.348 . S
C1354 C1356 1.353 . S
C1354 H1396 0.929 . S
C1355 C1352 1.356 . S
C1355 C1357 1.358 . S
C1355 H1397 0.930 . S
C1356 N1353 1.314 . S
C1356 C1354 1.353 . S
C1356 H1398 0.930 . S
C1357 N1353 1.279 . S
C1357 C1355 1.358 . S
C1357 H1399 0.930 . S
C1358 C1359 1.348 . S
C1358 C1360 1.356 . S
C1358 O1383 1.325 . S
C1359 C1358 1.348 . S
C1359 C1361 1.353 . S
C1359 H1400 0.929 . S
C1360 C1358 1.356 . S
C1360 C1362 1.358 . S
C1360 H1401 0.930 . S
C1361 C1359 1.353 . S
C1361 N1363 1.314 . S
C1361 H1402 0.930 . S
C1362 C1360 1.358 . S
C1362 N1363 1.279 . S
C1362 H1403 0.930 . S
N1363 C1361 1.314 . S
N1363 C1362 1.279 . S
C1364 C1366 1.353 . S
C1364 N1367 1.314 . S
C1364 H1370 0.930 . S
C1365 N1367 1.279 . S
C1365 C1368 1.358 . S
C1365 H1371 0.930 . S
C1366 C1364 1.353 . S
C1366 C1369 1.348 . S
C1366 H1404 0.929 . S
N1367 Li1322 1.990 . S
N1367 C1364 1.314 . S
N1367 C1365 1.279 . S
C1368 C1365 1.358 . S
C1368 C1369 1.356 . S
C1368 H1405 0.930 . S
C1369 C1366 1.348 . S
C1369 C1368 1.356 . S
H1370 C1364 0.930 . S
H1371 C1365 0.930 . S
C1372 N1373 1.314 . S
C1372 C1374 1.353 . S
C1372 H1378 0.930 . S
N1373 Li1323 1.990 . S
N1373 C1372 1.314 . S
N1373 C1376 1.279 . S
C1374 C1372 1.353 . S
C1374 C1377 1.348 . S
C1374 H1406 0.929 . S
C1375 C1376 1.358 . S
C1375 C1377 1.356 . S
C1375 H1407 0.930 . S
C1376 N1373 1.279 . S
C1376 C1375 1.358 . S
C1376 H1379 0.930 . S
C1377 C1374 1.348 . S
C1377 C1375 1.356 . S
H1378 C1372 0.930 . S
H1379 C1376 0.930 . S
O1380 Li1320 1.956 . S
O1380 Li1321 1.970 . S
O1380 Li1322 1.961 . S
O1380 C1324 1.325 . S
O1381 Li1320 1.970 . S
O1381 Li1321 1.956 . S
O1381 Li1323 1.961 . S
O1381 C1330 1.325 . S
O1382 Li1320 1.961 . S
O1382 Li1322 1.956 . S
O1382 Li1323 1.970 . S
O1382 C1352 1.325 . S
O1383 Li1321 1.961 . S
O1383 Li1322 1.970 . S
O1383 Li1323 1.956 . S
O1383 C1358 1.325 . S
H1384 C1326 0.929 . S
H1385 C1327 0.930 . S
H1386 C1328 0.930 . S
H1387 C1329 0.930 . S
H1388 C1331 0.930 . S
H1389 C1333 0.929 . S
H1390 C1334 0.930 . S
H1391 C1335 0.930 . S
H1392 C1338 0.930 . S
H1393 C1341 0.929 . S
H1394 C1346 0.929 . S
H1395 C1347 0.930 . S
H1396 C1354 0.929 . S
H1397 C1355 0.930 . S
H1398 C1356 0.930 . S
H1399 C1357 0.930 . S
H1400 C1359 0.929 . S
H1401 C1360 0.930 . S
H1402 C1361 0.930 . S
H1403 C1362 0.930 . S
H1404 C1366 0.929 . S
H1405 C1368 0.930 . S
H1406 C1374 0.929 . S
H1407 C1375 0.930 . S
H1408 C1414 0.930 . S
H1409 C1417 0.930 . S
H1410 C1418 0.930 . S
H1411 C1419 0.930 . S
H1412 C1422 0.930 . S
H1413 C1423 0.930 . S
C1414 H1408 0.930 . S
C1414 C1415 1.355 . S
C1414 C1416 1.415 . S
C1415 C1414 1.355 . S
C1415 C1417 1.419 . S
C1416 C1414 1.415 . S
C1416 C1421 1.425 1_455 S
C1416 C1423 1.409 1_455 S
C1417 H1409 0.930 . S
C1417 C1415 1.419 . S
C1417 C1418 1.362 . S
C1418 H1410 0.930 . S
C1418 C1417 1.362 . S
C1418 C1421 1.409 1_455 S
C1419 H1411 0.930 . S
C1419 C1420 1.355 . S
C1419 C1421 1.415 . S
C1420 C1419 1.355 . S
C1420 C1422 1.419 . S
C1421 C1416 1.425 1_655 S
C1421 C1418 1.409 1_655 S
C1421 C1419 1.415 . S
C1422 H1412 0.930 . S
C1422 C1420 1.419 . S
C1422 C1423 1.362 . S
C1423 H1413 0.930 . S
C1423 C1416 1.409 1_655 S
C1423 C1422 1.362 . S
H1424 C1430 0.930 . S
H1425 C1433 0.930 . S
H1426 C1434 0.930 . S
H1427 C1435 0.930 . S
H1428 C1438 0.930 . S
H1429 C1439 0.930 . S
C1430 H1424 0.930 . S
C1430 C1431 1.355 . S
C1430 C1432 1.415 . S
C1431 C1430 1.355 . S
C1431 C1433 1.419 . S
C1432 C1430 1.415 . S
C1432 C1437 1.425 1_655 S
C1432 C1439 1.409 1_655 S
C1433 H1425 0.930 . S
C1433 C1431 1.419 . S
C1433 C1434 1.362 . S
C1434 H1426 0.930 . S
C1434 C1433 1.362 . S
C1434 C1437 1.409 1_655 S
C1435 H1427 0.930 . S
C1435 C1436 1.355 . S
C1435 C1437 1.415 . S
C1436 C1435 1.355 . S
C1436 C1438 1.419 . S
C1437 C1432 1.425 1_455 S
C1437 C1434 1.409 1_455 S
C1437 C1435 1.415 . S
C1438 H1428 0.930 . S
C1438 C1436 1.419 . S
C1438 C1439 1.362 . S
C1439 H1429 0.930 . S
C1439 C1432 1.409 1_455 S
C1439 C1438 1.362 . S
H1440 C1446 0.930 . S
H1441 C1449 0.930 . S
H1442 C1450 0.930 . S
H1443 C1451 0.930 . S
H1444 C1454 0.930 . S
H1445 C1455 0.930 . S
C1446 H1440 0.930 . S
C1446 C1447 1.355 . S
C1446 C1448 1.415 . S
C1447 C1446 1.355 . S
C1447 C1449 1.419 . S
C1448 C1446 1.415 . S
C1448 C1453 1.425 1_655 S
C1448 C1455 1.409 1_655 S
C1449 H1441 0.930 . S
C1449 C1447 1.419 . S
C1449 C1450 1.362 . S
C1450 H1442 0.930 . S
C1450 C1449 1.362 . S
C1450 C1453 1.409 1_655 S
C1451 H1443 0.930 . S
C1451 C1452 1.355 . S
C1451 C1453 1.415 . S
C1452 C1451 1.355 . S
C1452 C1454 1.419 . S
C1453 C1448 1.425 1_455 S
C1453 C1450 1.409 1_455 S
C1453 C1451 1.415 . S
C1454 H1444 0.930 . S
C1454 C1452 1.419 . S
C1454 C1455 1.362 . S
C1455 H1445 0.930 . S
C1455 C1448 1.409 1_455 S
C1455 C1454 1.362 . S
H1456 C1462 0.930 . S
H1457 C1465 0.930 . S
H1458 C1466 0.930 . S
H1459 C1467 0.930 . S
H1460 C1470 0.930 . S
H1461 C1471 0.930 . S
C1462 H1456 0.930 . S
C1462 C1463 1.355 . S
C1462 C1464 1.415 . S
C1463 C1462 1.355 . S
C1463 C1465 1.419 . S
C1464 C1462 1.415 . S
C1464 C1469 1.425 1_455 S
C1464 C1471 1.409 1_455 S
C1465 H1457 0.930 . S
C1465 C1463 1.419 . S
C1465 C1466 1.362 . S
C1466 H1458 0.930 . S
C1466 C1465 1.362 . S
C1466 C1469 1.409 1_455 S
C1467 H1459 0.930 . S
C1467 C1468 1.355 . S
C1467 C1469 1.415 . S
C1468 C1467 1.355 . S
C1468 C1470 1.419 . S
C1469 C1464 1.425 1_655 S
C1469 C1466 1.409 1_655 S
C1469 C1467 1.415 . S
C1470 H1460 0.930 . S
C1470 C1468 1.419 . S
C1470 C1471 1.362 . S
C1471 H1461 0.930 . S
C1471 C1464 1.409 1_655 S
C1471 C1470 1.362 . S
H1472 C1478 0.930 . S
H1473 C1481 0.930 . S
H1474 C1482 0.930 . S
H1475 C1483 0.930 . S
H1476 C1486 0.930 . S
H1477 C1487 0.930 . S
C1478 H1472 0.930 . S
C1478 C1479 1.355 . S
C1478 C1480 1.415 . S
C1479 C1478 1.355 . S
C1479 C1481 1.419 . S
C1480 C1478 1.415 . S
C1480 C1485 1.425 . S
C1480 C1487 1.409 . S
C1481 H1473 0.930 . S
C1481 C1479 1.419 . S
C1481 C1482 1.362 . S
C1482 H1474 0.930 . S
C1482 C1481 1.362 . S
C1482 C1485 1.409 . S
C1483 H1475 0.930 . S
C1483 C1484 1.355 . S
C1483 C1485 1.415 . S
C1484 C1483 1.355 . S
C1484 C1486 1.419 . S
C1485 C1480 1.425 . S
C1485 C1482 1.409 . S
C1485 C1483 1.415 . S
C1486 H1476 0.930 . S
C1486 C1484 1.419 . S
C1486 C1487 1.362 . S
C1487 H1477 0.930 . S
C1487 C1480 1.409 . S
C1487 C1486 1.362 . S
H1488 C1494 0.930 . S
H1489 C1497 0.930 . S
H1490 C1498 0.930 . S
H1491 C1499 0.930 . S
H1492 C1502 0.930 . S
H1493 C1503 0.930 . S
C1494 H1488 0.930 . S
C1494 C1495 1.355 . S
C1494 C1496 1.415 . S
C1495 C1494 1.355 . S
C1495 C1497 1.419 . S
C1496 C1494 1.415 . S
C1496 C1501 1.425 . S
C1496 C1503 1.409 . S
C1497 H1489 0.930 . S
C1497 C1495 1.419 . S
C1497 C1498 1.362 . S
C1498 H1490 0.930 . S
C1498 C1497 1.362 . S
C1498 C1501 1.409 . S
C1499 H1491 0.930 . S
C1499 C1500 1.355 . S
C1499 C1501 1.415 . S
C1500 C1499 1.355 . S
C1500 C1502 1.419 . S
C1501 C1496 1.425 . S
C1501 C1498 1.409 . S
C1501 C1499 1.415 . S
C1502 H1492 0.930 . S
C1502 C1500 1.419 . S
C1502 C1503 1.362 . S
C1503 H1493 0.930 . S
C1503 C1496 1.409 . S
C1503 C1502 1.362 . S
H1504 C1510 0.930 . S
H1505 C1513 0.930 . S
H1506 C1514 0.930 . S
H1507 C1515 0.930 . S
H1508 C1518 0.930 . S
H1509 C1519 0.930 . S
C1510 H1504 0.930 . S
C1510 C1511 1.355 . S
C1510 C1512 1.415 . S
C1511 C1510 1.355 . S
C1511 C1513 1.419 . S
C1512 C1510 1.415 . S
C1512 C1517 1.425 . S
C1512 C1519 1.409 . S
C1513 H1505 0.930 . S
C1513 C1511 1.419 . S
C1513 C1514 1.362 . S
C1514 H1506 0.930 . S
C1514 C1513 1.362 . S
C1514 C1517 1.409 . S
C1515 H1507 0.930 . S
C1515 C1516 1.355 . S
C1515 C1517 1.415 . S
C1516 C1515 1.355 . S
C1516 C1518 1.419 . S
C1517 C1512 1.425 . S
C1517 C1514 1.409 . S
C1517 C1515 1.415 . S
C1518 H1508 0.930 . S
C1518 C1516 1.419 . S
C1518 C1519 1.362 . S
C1519 H1509 0.930 . S
C1519 C1512 1.409 . S
C1519 C1518 1.362 . S
H1520 C1526 0.930 . S
H1521 C1529 0.930 . S
H1522 C1530 0.930 . S
H1523 C1531 0.930 . S
H1524 C1534 0.930 . S
H1525 C1535 0.930 . S
C1526 H1520 0.930 . S
C1526 C1527 1.355 . S
C1526 C1528 1.415 . S
C1527 C1526 1.355 . S
C1527 C1529 1.419 . S
C1528 C1526 1.415 . S
C1528 C1533 1.425 . S
C1528 C1535 1.409 . S
C1529 H1521 0.930 . S
C1529 C1527 1.419 . S
C1529 C1530 1.362 . S
C1530 H1522 0.930 . S
C1530 C1529 1.362 . S
C1530 C1533 1.409 . S
C1531 H1523 0.930 . S
C1531 C1532 1.355 . S
C1531 C1533 1.415 . S
C1532 C1531 1.355 . S
C1532 C1534 1.419 . S
C1533 C1528 1.425 . S
C1533 C1530 1.409 . S
C1533 C1531 1.415 . S
C1534 H1524 0.930 . S
C1534 C1532 1.419 . S
C1534 C1535 1.362 . S
C1535 H1525 0.930 . S
C1535 C1528 1.409 . S
C1535 C1534 1.362 . S
H1536 C1542 0.930 . S
H1537 C1545 0.930 . S
H1538 C1546 0.930 . S
H1539 C1547 0.930 . S
H1540 C1550 0.930 . S
H1541 C1551 0.930 . S
C1542 H1536 0.930 . S
C1542 C1543 1.355 . S
C1542 C1544 1.415 . S
C1543 C1542 1.355 . S
C1543 C1545 1.419 . S
C1544 C1542 1.415 . S
C1544 C1549 1.425 . S
C1544 C1551 1.409 . S
C1545 H1537 0.930 . S
C1545 C1543 1.419 . S
C1545 C1546 1.362 . S
C1546 H1538 0.930 . S
C1546 C1545 1.362 . S
C1546 C1549 1.409 . S
C1547 H1539 0.930 . S
C1547 C1548 1.355 . S
C1547 C1549 1.415 . S
C1548 C1547 1.355 . S
C1548 C1550 1.419 . S
C1549 C1544 1.425 . S
C1549 C1546 1.409 . S
C1549 C1547 1.415 . S
C1550 H1540 0.930 . S
C1550 C1548 1.419 . S
C1550 C1551 1.362 . S
C1551 H1541 0.930 . S
C1551 C1544 1.409 . S
C1551 C1550 1.362 . S
H1552 C1558 0.930 . S
H1553 C1561 0.930 . S
H1554 C1562 0.930 . S
H1555 C1563 0.930 . S
H1556 C1566 0.930 . S
H1557 C1567 0.930 . S
C1558 H1552 0.930 . S
C1558 C1559 1.355 . S
C1558 C1560 1.415 . S
C1559 C1558 1.355 . S
C1559 C1561 1.419 . S
C1560 C1558 1.415 . S
C1560 C1565 1.425 . S
C1560 C1567 1.409 . S
C1561 H1553 0.930 . S
C1561 C1559 1.419 . S
C1561 C1562 1.362 . S
C1562 H1554 0.930 . S
C1562 C1561 1.362 . S
C1562 C1565 1.409 . S
C1563 H1555 0.930 . S
C1563 C1564 1.355 . S
C1563 C1565 1.415 . S
C1564 C1563 1.355 . S
C1564 C1566 1.419 . S
C1565 C1560 1.425 . S
C1565 C1562 1.409 . S
C1565 C1563 1.415 . S
C1566 H1556 0.930 . S
C1566 C1564 1.419 . S
C1566 C1567 1.362 . S
C1567 H1557 0.930 . S
C1567 C1560 1.409 . S
C1567 C1566 1.362 . S
H1568 C1574 0.930 . S
H1569 C1577 0.930 . S
H1570 C1578 0.930 . S
H1571 C1579 0.930 . S
H1572 C1582 0.930 . S
H1573 C1583 0.930 . S
C1574 H1568 0.930 . S
C1574 C1575 1.355 . S
C1574 C1576 1.415 . S
C1575 C1574 1.355 . S
C1575 C1577 1.419 . S
C1576 C1574 1.415 . S
C1576 C1581 1.425 . S
C1576 C1583 1.409 . S
C1577 H1569 0.930 . S
C1577 C1575 1.419 . S
C1577 C1578 1.362 . S
C1578 H1570 0.930 . S
C1578 C1577 1.362 . S
C1578 C1581 1.409 . S
C1579 H1571 0.930 . S
C1579 C1580 1.355 . S
C1579 C1581 1.415 . S
C1580 C1579 1.355 . S
C1580 C1582 1.419 . S
C1581 C1576 1.425 . S
C1581 C1578 1.409 . S
C1581 C1579 1.415 . S
C1582 H1572 0.930 . S
C1582 C1580 1.419 . S
C1582 C1583 1.362 . S
C1583 H1573 0.930 . S
C1583 C1576 1.409 . S
C1583 C1582 1.362 . S
H1584 C1590 0.930 . S
H1585 C1593 0.930 . S
H1586 C1594 0.930 . S
H1587 C1595 0.930 . S
H1588 C1598 0.930 . S
H1589 C1599 0.930 . S
C1590 H1584 0.930 . S
C1590 C1591 1.355 . S
C1590 C1592 1.415 . S
C1591 C1590 1.355 . S
C1591 C1593 1.419 . S
C1592 C1590 1.415 . S
C1592 C1597 1.425 . S
C1592 C1599 1.409 . S
C1593 H1585 0.930 . S
C1593 C1591 1.419 . S
C1593 C1594 1.362 . S
C1594 H1586 0.930 . S
C1594 C1593 1.362 . S
C1594 C1597 1.409 . S
C1595 H1587 0.930 . S
C1595 C1596 1.355 . S
C1595 C1597 1.415 . S
C1596 C1595 1.355 . S
C1596 C1598 1.419 . S
C1597 C1592 1.425 . S
C1597 C1594 1.409 . S
C1597 C1595 1.415 . S
C1598 H1588 0.930 . S
C1598 C1596 1.419 . S
C1598 C1599 1.362 . S
C1599 H1589 0.930 . S
C1599 C1592 1.409 . S
C1599 C1598 1.362 . S
H1600 C1606 0.930 . S
H1601 C1609 0.930 . S
H1602 C1610 0.930 . S
H1603 C1611 0.930 . S
H1604 C1614 0.930 . S
H1605 C1615 0.930 . S
C1606 H1600 0.930 . S
C1606 C1607 1.355 . S
C1606 C1608 1.415 . S
C1607 C1606 1.355 . S
C1607 C1609 1.419 . S
C1608 C1606 1.415 . S
C1608 C1613 1.425 . S
C1608 C1615 1.409 . S
C1609 H1601 0.930 . S
C1609 C1607 1.419 . S
C1609 C1610 1.362 . S
C1610 H1602 0.930 . S
C1610 C1609 1.362 . S
C1610 C1613 1.409 . S
C1611 H1603 0.930 . S
C1611 C1612 1.355 . S
C1611 C1613 1.415 . S
C1612 C1611 1.355 . S
C1612 C1614 1.419 . S
C1613 C1608 1.425 . S
C1613 C1610 1.409 . S
C1613 C1611 1.415 . S
C1614 H1604 0.930 . S
C1614 C1612 1.419 . S
C1614 C1615 1.362 . S
C1615 H1605 0.930 . S
C1615 C1608 1.409 . S
C1615 C1614 1.362 . S
H1616 C1622 0.930 . S
H1617 C1625 0.930 . S
H1618 C1626 0.930 . S
H1619 C1627 0.930 . S
H1620 C1630 0.930 . S
H1621 C1631 0.930 . S
C1622 H1616 0.930 . S
C1622 C1623 1.355 . S
C1622 C1624 1.415 . S
C1623 C1622 1.355 . S
C1623 C1625 1.419 . S
C1624 C1622 1.415 . S
C1624 C1629 1.425 . S
C1624 C1631 1.409 . S
C1625 H1617 0.930 . S
C1625 C1623 1.419 . S
C1625 C1626 1.362 . S
C1626 H1618 0.930 . S
C1626 C1625 1.362 . S
C1626 C1629 1.409 . S
C1627 H1619 0.930 . S
C1627 C1628 1.355 . S
C1627 C1629 1.415 . S
C1628 C1627 1.355 . S
C1628 C1630 1.419 . S
C1629 C1624 1.425 . S
C1629 C1626 1.409 . S
C1629 C1627 1.415 . S
C1630 H1620 0.930 . S
C1630 C1628 1.419 . S
C1630 C1631 1.362 . S
C1631 H1621 0.930 . S
C1631 C1624 1.409 . S
C1631 C1630 1.362 . S
H1632 C1638 0.930 . S
H1633 C1641 0.930 . S
H1634 C1642 0.930 . S
H1635 C1643 0.930 . S
H1636 C1646 0.930 . S
H1637 C1647 0.930 . S
C1638 H1632 0.930 . S
C1638 C1639 1.355 . S
C1638 C1640 1.415 . S
C1639 C1638 1.355 . S
C1639 C1641 1.419 . S
C1640 C1638 1.415 . S
C1640 C1645 1.425 . S
C1640 C1647 1.409 . S
C1641 H1633 0.930 . S
C1641 C1639 1.419 . S
C1641 C1642 1.362 . S
C1642 H1634 0.930 . S
C1642 C1641 1.362 . S
C1642 C1645 1.409 . S
C1643 H1635 0.930 . S
C1643 C1644 1.355 . S
C1643 C1645 1.415 . S
C1644 C1643 1.355 . S
C1644 C1646 1.419 . S
C1645 C1640 1.425 . S
C1645 C1642 1.409 . S
C1645 C1643 1.415 . S
C1646 H1636 0.930 . S
C1646 C1644 1.419 . S
C1646 C1647 1.362 . S
C1647 H1637 0.930 . S
C1647 C1640 1.409 . S
C1647 C1646 1.362 . S
H1648 C1654 0.930 . S
H1649 C1657 0.930 . S
H1650 C1658 0.930 . S
H1651 C1659 0.930 . S
H1652 C1662 0.930 . S
H1653 C1663 0.930 . S
C1654 H1648 0.930 . S
C1654 C1655 1.355 . S
C1654 C1656 1.415 . S
C1655 C1654 1.355 . S
C1655 C1657 1.419 . S
C1656 C1654 1.415 . S
C1656 C1661 1.425 . S
C1656 C1663 1.409 . S
C1657 H1649 0.930 . S
C1657 C1655 1.419 . S
C1657 C1658 1.362 . S
C1658 H1650 0.930 . S
C1658 C1657 1.362 . S
C1658 C1661 1.409 . S
C1659 H1651 0.930 . S
C1659 C1660 1.355 . S
C1659 C1661 1.415 . S
C1660 C1659 1.355 . S
C1660 C1662 1.419 . S
C1661 C1656 1.425 . S
C1661 C1658 1.409 . S
C1661 C1659 1.415 . S
C1662 H1652 0.930 . S
C1662 C1660 1.419 . S
C1662 C1663 1.362 . S
C1663 H1653 0.930 . S
C1663 C1656 1.409 . S
C1663 C1662 1.362 . S
H1664 C1670 0.930 1_554 S
H1665 C1673 0.930 . S
H1666 C1674 0.930 . S
H1667 C1675 0.930 1_556 S
H1668 C1678 0.930 . S
H1669 C1679 0.930 . S
C1670 H1664 0.930 1_556 S
C1670 C1671 1.355 . S
C1670 C1672 1.415 1_556 S
C1671 C1670 1.355 . S
C1671 C1673 1.419 . S
C1672 C1670 1.415 1_554 S
C1672 C1677 1.425 1_554 S
C1672 C1679 1.409 . S
C1673 H1665 0.930 . S
C1673 C1671 1.419 . S
C1673 C1674 1.362 . S
C1674 H1666 0.930 . S
C1674 C1673 1.362 . S
C1674 C1677 1.409 . S
C1675 H1667 0.930 1_554 S
C1675 C1676 1.355 . S
C1675 C1677 1.415 1_554 S
C1676 C1675 1.355 . S
C1676 C1678 1.419 . S
C1677 C1672 1.425 1_556 S
C1677 C1674 1.409 . S
C1677 C1675 1.415 1_556 S
C1678 H1668 0.930 . S
C1678 C1676 1.419 . S
C1678 C1679 1.362 . S
C1679 H1669 0.930 . S
C1679 C1672 1.409 . S
C1679 C1678 1.362 . S
H1680 C1686 0.930 . S
H1681 C1689 0.930 . S
H1682 C1690 0.930 . S
H1683 C1691 0.930 . S
H1684 C1694 0.930 . S
H1685 C1695 0.930 . S
C1686 H1680 0.930 . S
C1686 C1687 1.355 . S
C1686 C1688 1.415 . S
C1687 C1686 1.355 . S
C1687 C1689 1.419 . S
C1688 C1686 1.415 . S
C1688 C1693 1.425 . S
C1688 C1695 1.409 . S
C1689 H1681 0.930 . S
C1689 C1687 1.419 . S
C1689 C1690 1.362 . S
C1690 H1682 0.930 . S
C1690 C1689 1.362 . S
C1690 C1693 1.409 . S
C1691 H1683 0.930 . S
C1691 C1692 1.355 . S
C1691 C1693 1.415 . S
C1692 C1691 1.355 . S
C1692 C1694 1.419 . S
C1693 C1688 1.425 . S
C1693 C1690 1.409 . S
C1693 C1691 1.415 . S
C1694 H1684 0.930 . S
C1694 C1692 1.419 . S
C1694 C1695 1.362 . S
C1695 H1685 0.930 . S
C1695 C1688 1.409 . S
C1695 C1694 1.362 . S
H1696 C1702 0.904 1_556 S
H1697 C1705 0.930 . S
H1698 C1706 0.930 . S
H1699 C1707 0.905 1_554 S
H1700 C1710 0.930 . S
H1701 C1711 0.930 . S
C1702 H1696 0.904 1_554 S
C1702 C1703 1.394 . S
C1702 C1704 1.401 1_554 S
C1703 C1702 1.394 . S
C1703 C1705 1.419 . S
C1704 C1702 1.401 1_556 S
C1704 C1709 1.425 1_556 S
C1704 C1711 1.409 . S
C1705 H1697 0.930 . S
C1705 C1703 1.419 . S
C1705 C1706 1.362 . S
C1706 H1698 0.930 . S
C1706 C1705 1.362 . S
C1706 C1709 1.409 . S
C1707 H1699 0.905 1_556 S
C1707 C1708 1.394 . S
C1707 C1709 1.401 1_556 S
C1708 C1707 1.394 . S
C1708 C1710 1.419 . S
C1709 C1704 1.425 1_554 S
C1709 C1706 1.409 . S
C1709 C1707 1.401 1_554 S
C1710 H1700 0.930 . S
C1710 C1708 1.419 . S
C1710 C1711 1.362 . S
C1711 H1701 0.930 . S
C1711 C1704 1.409 . S
C1711 C1710 1.362 . S
H1712 C1718 0.930 . S
H1713 C1721 0.930 . S
H1714 C1722 0.930 . S
H1715 C1723 0.930 . S
H1716 C1726 0.930 . S
H1717 C1727 0.930 . S
C1718 H1712 0.930 . S
C1718 C1719 1.355 . S
C1718 C1720 1.415 . S
C1719 C1718 1.355 . S
C1719 C1721 1.419 . S
C1720 C1718 1.415 . S
C1720 C1725 1.425 . S
C1720 C1727 1.409 . S
C1721 H1713 0.930 . S
C1721 C1719 1.419 . S
C1721 C1722 1.362 . S
C1722 H1714 0.930 . S
C1722 C1721 1.362 . S
C1722 C1725 1.409 . S
C1723 H1715 0.930 . S
C1723 C1724 1.355 . S
C1723 C1725 1.415 . S
C1724 C1723 1.355 . S
C1724 C1726 1.419 . S
C1725 C1720 1.425 . S
C1725 C1722 1.409 . S
C1725 C1723 1.415 . S
C1726 H1716 0.930 . S
C1726 C1724 1.419 . S
C1726 C1727 1.362 . S
C1727 H1717 0.930 . S
C1727 C1720 1.409 . S
C1727 C1726 1.362 . S
H1728 C1734 0.947 . S
H1729 C1737 0.930 . S
H1730 C1738 0.930 . S
H1731 C1739 0.947 . S
H1732 C1742 0.930 . S
H1733 C1743 0.930 . S
C1734 H1728 0.947 . S
C1734 C1735 1.355 . S
C1734 C1736 1.415 1_554 S
C1735 C1734 1.355 . S
C1735 C1737 1.419 . S
C1736 C1734 1.415 1_556 S
C1736 C1741 1.425 1_556 S
C1736 C1743 1.409 . S
C1737 H1729 0.930 . S
C1737 C1735 1.419 . S
C1737 C1738 1.362 . S
C1738 H1730 0.930 . S
C1738 C1737 1.362 . S
C1738 C1741 1.409 . S
C1739 H1731 0.947 . S
C1739 C1740 1.355 . S
C1739 C1741 1.415 1_556 S
C1740 C1739 1.355 . S
C1740 C1742 1.419 . S
C1741 C1736 1.425 1_554 S
C1741 C1738 1.409 . S
C1741 C1739 1.415 1_554 S
C1742 H1732 0.930 . S
C1742 C1740 1.419 . S
C1742 C1743 1.362 . S
C1743 H1733 0.930 . S
C1743 C1736 1.409 . S
C1743 C1742 1.362 . S
H1744 C1750 0.930 . S
H1745 C1753 0.930 . S
H1746 C1754 0.930 . S
H1747 C1755 0.930 . S
H1748 C1758 0.930 . S
H1749 C1759 0.930 . S
C1750 H1744 0.930 . S
C1750 C1751 1.355 . S
C1750 C1752 1.415 . S
C1751 C1750 1.355 . S
C1751 C1753 1.419 . S
C1752 C1750 1.415 . S
C1752 C1757 1.425 . S
C1752 C1759 1.409 . S
C1753 H1745 0.930 . S
C1753 C1751 1.419 . S
C1753 C1754 1.362 . S
C1754 H1746 0.930 . S
C1754 C1753 1.362 . S
C1754 C1757 1.409 . S
C1755 H1747 0.930 . S
C1755 C1756 1.355 . S
C1755 C1757 1.415 . S
C1756 C1755 1.355 . S
C1756 C1758 1.419 . S
C1757 C1752 1.425 . S
C1757 C1754 1.409 . S
C1757 C1755 1.415 . S
C1758 H1748 0.930 . S
C1758 C1756 1.419 . S
C1758 C1759 1.362 . S
C1759 H1749 0.930 . S
C1759 C1752 1.409 . S
C1759 C1758 1.362 . S
H1760 C1766 0.930 1_556 S
H1761 C1769 0.930 . S
H1762 C1770 0.930 . S
H1763 C1771 0.930 1_554 S
H1764 C1774 0.930 . S
H1765 C1775 0.930 . S
C1766 H1760 0.930 1_554 S
C1766 C1767 1.355 . S
C1766 C1768 1.415 1_554 S
C1767 C1766 1.355 . S
C1767 C1769 1.419 . S
C1768 C1766 1.415 1_556 S
C1768 C1773 1.425 1_556 S
C1768 C1775 1.409 . S
C1769 H1761 0.930 . S
C1769 C1767 1.419 . S
C1769 C1770 1.362 . S
C1770 H1762 0.930 . S
C1770 C1769 1.362 . S
C1770 C1773 1.409 . S
C1771 H1763 0.930 1_556 S
C1771 C1772 1.355 . S
C1771 C1773 1.415 1_556 S
C1772 C1771 1.355 . S
C1772 C1774 1.419 . S
C1773 C1768 1.425 1_554 S
C1773 C1770 1.409 . S
C1773 C1771 1.415 1_554 S
C1774 H1764 0.930 . S
C1774 C1772 1.419 . S
C1774 C1775 1.362 . S
C1775 H1765 0.930 . S
C1775 C1768 1.409 . S
C1775 C1774 1.362 . S
H1776 C1782 0.930 . S
H1777 C1785 0.930 . S
H1778 C1786 0.930 . S
H1779 C1787 0.930 . S
H1780 C1790 0.930 . S
H1781 C1791 0.930 . S
C1782 H1776 0.930 . S
C1782 C1783 1.355 . S
C1782 C1784 1.415 . S
C1783 C1782 1.355 . S
C1783 C1785 1.419 . S
C1784 C1782 1.415 . S
C1784 C1789 1.425 . S
C1784 C1791 1.409 . S
C1785 H1777 0.930 . S
C1785 C1783 1.419 . S
C1785 C1786 1.362 . S
C1786 H1778 0.930 . S
C1786 C1785 1.362 . S
C1786 C1789 1.409 . S
C1787 H1779 0.930 . S
C1787 C1788 1.355 . S
C1787 C1789 1.415 . S
C1788 C1787 1.355 . S
C1788 C1790 1.419 . S
C1789 C1784 1.425 . S
C1789 C1786 1.409 . S
C1789 C1787 1.415 . S
C1790 H1780 0.930 . S
C1790 C1788 1.419 . S
C1790 C1791 1.362 . S
C1791 H1781 0.930 . S
C1791 C1784 1.409 . S
C1791 C1790 1.362 . S
H1792 C1798 0.930 . S
H1793 C1801 0.930 . S
H1794 C1802 0.930 . S
H1795 C1803 0.930 . S
H1796 C1806 0.930 . S
H1797 C1807 0.930 . S
C1798 H1792 0.930 . S
C1798 C1799 1.355 . S
C1798 C1800 1.415 . S
C1799 C1798 1.355 . S
C1799 C1801 1.419 . S
C1800 C1798 1.415 . S
C1800 C1805 1.425 1_556 S
C1800 C1807 1.409 1_556 S
C1801 H1793 0.930 . S
C1801 C1799 1.419 . S
C1801 C1802 1.362 . S
C1802 H1794 0.930 . S
C1802 C1801 1.362 . S
C1802 C1805 1.409 1_556 S
C1803 H1795 0.930 . S
C1803 C1804 1.355 . S
C1803 C1805 1.415 . S
C1804 C1803 1.355 . S
C1804 C1806 1.419 . S
C1805 C1800 1.425 1_554 S
C1805 C1802 1.409 1_554 S
C1805 C1803 1.415 . S
C1806 H1796 0.930 . S
C1806 C1804 1.419 . S
C1806 C1807 1.362 . S
C1807 H1797 0.930 . S
C1807 C1800 1.409 1_554 S
C1807 C1806 1.362 . S
H1808 C1814 0.930 . S
H1809 C1817 0.930 . S
H1810 C1818 0.930 . S
H1811 C1819 0.930 . S
H1812 C1822 0.930 . S
H1813 C1823 0.930 . S
C1814 H1808 0.930 . S
C1814 C1815 1.355 . S
C1814 C1816 1.415 . S
C1815 C1814 1.355 . S
C1815 C1817 1.419 . S
C1816 C1814 1.415 . S
C1816 C1821 1.425 . S
C1816 C1823 1.409 . S
C1817 H1809 0.930 . S
C1817 C1815 1.419 . S
C1817 C1818 1.362 . S
C1818 H1810 0.930 . S
C1818 C1817 1.362 . S
C1818 C1821 1.409 . S
C1819 H1811 0.930 . S
C1819 C1820 1.355 . S
C1819 C1821 1.415 . S
C1820 C1819 1.355 . S
C1820 C1822 1.419 . S
C1821 C1816 1.425 . S
C1821 C1818 1.409 . S
C1821 C1819 1.415 . S
C1822 H1812 0.930 . S
C1822 C1820 1.419 . S
C1822 C1823 1.362 . S
C1823 H1813 0.930 . S
C1823 C1816 1.409 . S
C1823 C1822 1.362 . S
H1824 C1830 0.930 1_556 S
H1825 C1833 0.930 . S
H1826 C1834 0.930 . S
H1827 C1835 0.930 1_554 S
H1828 C1838 0.930 . S
H1829 C1839 0.930 . S
C1830 H1824 0.930 1_554 S
C1830 C1831 1.355 . S
C1830 C1832 1.415 1_554 S
C1831 C1830 1.355 . S
C1831 C1833 1.419 . S
C1832 C1830 1.415 1_556 S
C1832 C1837 1.425 1_556 S
C1832 C1839 1.409 . S
C1833 H1825 0.930 . S
C1833 C1831 1.419 . S
C1833 C1834 1.362 . S
C1834 H1826 0.930 . S
C1834 C1833 1.362 . S
C1834 C1837 1.409 . S
C1835 H1827 0.930 1_556 S
C1835 C1836 1.355 . S
C1835 C1837 1.415 1_556 S
C1836 C1835 1.355 . S
C1836 C1838 1.419 . S
C1837 C1832 1.425 1_554 S
C1837 C1834 1.409 . S
C1837 C1835 1.415 1_554 S
C1838 H1828 0.930 . S
C1838 C1836 1.419 . S
C1838 C1839 1.362 . S
C1839 H1829 0.930 . S
C1839 C1832 1.409 . S
C1839 C1838 1.362 . S
H1840 C1846 0.930 . S
H1841 C1849 0.930 . S
H1842 C1850 0.930 . S
H1843 C1851 0.930 . S
H1844 C1854 0.930 . S
H1845 C1855 0.930 . S
C1846 H1840 0.930 . S
C1846 C1847 1.355 . S
C1846 C1848 1.415 . S
C1847 C1846 1.355 . S
C1847 C1849 1.419 . S
C1848 C1846 1.415 . S
C1848 C1853 1.425 . S
C1848 C1855 1.409 . S
C1849 H1841 0.930 . S
C1849 C1847 1.419 . S
C1849 C1850 1.362 . S
C1850 H1842 0.930 . S
C1850 C1849 1.362 . S
C1850 C1853 1.409 . S
C1851 H1843 0.930 . S
C1851 C1852 1.355 . S
C1851 C1853 1.415 . S
C1852 C1851 1.355 . S
C1852 C1854 1.419 . S
C1853 C1848 1.425 . S
C1853 C1850 1.409 . S
C1853 C1851 1.415 . S
C1854 H1844 0.930 . S
C1854 C1852 1.419 . S
C1854 C1855 1.362 . S
C1855 H1845 0.930 . S
C1855 C1848 1.409 . S
C1855 C1854 1.362 . S
H1856 C1862 0.930 . S
H1857 C1865 0.930 . S
H1858 C1866 0.930 . S
H1859 C1867 0.930 . S
H1860 C1870 0.930 . S
H1861 C1871 0.930 . S
C1862 H1856 0.930 . S
C1862 C1863 1.355 . S
C1862 C1864 1.415 1_545 S
C1863 C1862 1.355 . S
C1863 C1865 1.419 1_556 S
C1864 C1862 1.415 1_565 S
C1864 C1869 1.425 1_566 S
C1864 C1871 1.409 . S
C1865 H1857 0.930 . S
C1865 C1863 1.419 1_554 S
C1865 C1866 1.362 . S
C1866 H1858 0.930 . S
C1866 C1865 1.362 . S
C1866 C1869 1.409 . S
C1867 H1859 0.930 . S
C1867 C1868 1.355 . S
C1867 C1869 1.415 1_565 S
C1868 C1867 1.355 . S
C1868 C1870 1.419 1_554 S
C1869 C1864 1.425 1_544 S
C1869 C1866 1.409 . S
C1869 C1867 1.415 1_545 S
C1870 H1860 0.930 . S
C1870 C1868 1.419 1_556 S
C1870 C1871 1.362 . S
C1871 H1861 0.930 . S
C1871 C1864 1.409 . S
C1871 C1870 1.362 . S
H1872 C1878 0.930 . S
H1873 C1881 0.930 . S
H1874 C1882 0.930 . S
H1875 C1883 0.930 . S
H1876 C1886 0.930 . S
H1877 C1887 0.930 . S
C1878 H1872 0.930 . S
C1878 C1879 1.355 . S
C1878 C1880 1.415 . S
C1879 C1878 1.355 . S
C1879 C1881 1.419 . S
C1880 C1878 1.415 . S
C1880 C1885 1.425 1_565 S
C1880 C1887 1.409 1_565 S
C1881 H1873 0.930 . S
C1881 C1879 1.419 . S
C1881 C1882 1.362 . S
C1882 H1874 0.930 . S
C1882 C1881 1.362 . S
C1882 C1885 1.409 1_565 S
C1883 H1875 0.930 . S
C1883 C1884 1.355 . S
C1883 C1885 1.415 . S
C1884 C1883 1.355 . S
C1884 C1886 1.419 . S
C1885 C1880 1.425 1_545 S
C1885 C1882 1.409 1_545 S
C1885 C1883 1.415 . S
C1886 H1876 0.930 . S
C1886 C1884 1.419 . S
C1886 C1887 1.362 . S
C1887 H1877 0.930 . S
C1887 C1880 1.409 1_545 S
C1887 C1886 1.362 . S
H1888 C1894 0.930 . S
H1889 C1897 0.930 . S
H1890 C1898 0.930 . S
H1891 C1899 0.930 . S
H1892 C1902 0.930 . S
H1893 C1903 0.930 . S
C1894 H1888 0.930 . S
C1894 C1895 1.355 . S
C1894 C1896 1.415 1_565 S
C1895 C1894 1.355 . S
C1895 C1897 1.419 1_554 S
C1896 C1894 1.415 1_545 S
C1896 C1901 1.425 1_544 S
C1896 C1903 1.409 . S
C1897 H1889 0.930 . S
C1897 C1895 1.419 1_556 S
C1897 C1898 1.362 . S
C1898 H1890 0.930 . S
C1898 C1897 1.362 . S
C1898 C1901 1.409 . S
C1899 H1891 0.930 . S
C1899 C1900 1.355 . S
C1899 C1901 1.415 1_545 S
C1900 C1899 1.355 . S
C1900 C1902 1.419 1_556 S
C1901 C1896 1.425 1_566 S
C1901 C1898 1.409 . S
C1901 C1899 1.415 1_565 S
C1902 H1892 0.930 . S
C1902 C1900 1.419 1_554 S
C1902 C1903 1.362 . S
C1903 H1893 0.930 . S
C1903 C1896 1.409 . S
C1903 C1902 1.362 . S
H1904 C1910 0.930 . S
H1905 C1913 0.930 . S
H1906 C1914 0.930 . S
H1907 C1915 0.930 . S
H1908 C1918 0.930 . S
H1909 C1919 0.930 . S
C1910 H1904 0.930 . S
C1910 C1911 1.355 . S
C1910 C1912 1.462 . S
C1911 C1910 1.355 . S
C1911 C1913 1.419 . S
C1912 C1910 1.462 . S
C1912 C1917 1.420 1_545 S
C1912 C1919 1.368 1_545 S
C1913 H1905 0.930 . S
C1913 C1911 1.419 . S
C1913 C1914 1.362 . S
C1914 H1906 0.930 . S
C1914 C1913 1.362 . S
C1914 C1917 1.368 1_545 S
C1915 H1907 0.930 . S
C1915 C1916 1.355 . S
C1915 C1917 1.462 . S
C1916 C1915 1.355 . S
C1916 C1918 1.419 . S
C1917 C1912 1.420 1_565 S
C1917 C1914 1.368 1_565 S
C1917 C1915 1.462 . S
C1918 H1908 0.930 . S
C1918 C1916 1.419 . S
C1918 C1919 1.362 . S
C1919 H1909 0.930 . S
C1919 C1912 1.368 1_565 S
C1919 C1918 1.362 . S
C1415 C57 1.531 . S
C1420 C557 1.517 . S
C1431 C145 1.520 . S
C1436 C645 1.530 . S
C1447 C401 1.517 . S
C1452 C205 1.532 . S
C1463 C497 1.521 . S
C1468 C293 1.526 . S
C1479 C1261 1.517 . S
C1484 C761 1.532 . S
C1495 C1340 1.531 . S
C1500 C841 1.519 . S
C1511 C909 1.527 . S
C1516 C1105 1.520 . S
C1527 C988 1.522 . S
C1532 C1193 1.528 . S
C1543 C20 1.435 . S
C1548 C489 1.467 . S
C1559 C108 1.437 . S
C1564 C409 1.464 . S
C1575 C225 1.457 . S
C1580 C636 1.441 . S
C1591 C548 1.460 . S
C1596 C313 1.441 . S
C1607 C1201 1.448 . S
C1612 C724 1.452 . S
C1623 C1113 1.437 . S
C1628 C821 1.463 . S
C1639 C929 1.437 . S
C1644 C1349 1.465 . S
C1655 C1252 1.439 . S
C1660 C1025 1.460 . S
C1671 C1076 1.236 . S
C1676 C29 1.235 . S
C1687 C117 1.243 . S
C1692 C1164 1.243 . S
C1703 C1289 1.234 . S
C1708 C233 1.232 . S
C1719 C1369 1.230 . S
C1724 C321 1.228 . S
C1735 C733 1.233 . S
C1740 C372 1.234 . S
C1751 C812 1.233 . S
C1756 C469 1.235 . S
C1767 C585 1.210 . S
C1772 C937 1.208 . S
C1783 C673 1.239 . S
C1788 C1017 1.240 . S
C1799 C196 1.436 . S
C1804 C49 1.469 . S
C1815 C137 1.453 . S
C1820 C284 1.454 . S
C1831 C577 1.453 . S
C1836 C381 1.458 . S
C1847 C460 1.456 . S
C1852 C665 1.454 . S
C1863 C900 1.443 . S
C1868 C753 1.458 . S
C1879 C997 1.466 . S
C1884 C849 1.436 . S
C1895 C1281 1.448 . S
C1900 C1085 1.454 . S
C1911 C1377 1.440 . S
C1916 C1173 1.463 . S
