# Generated by pormake.
# Topology uoz, (4)-cn, num edge types: 1
# Building blocks:
#     Node 0, Type 0, BuildingBlock: QUQFOY_clean_sbu_1, # of connection points: 4
#     Node 1, Type 0, BuildingBlock: QUQFOY_clean_sbu_1, # of connection points: 4
#     Node 2, Type 0, BuildingBlock: QUQFOY_clean_sbu_1, # of connection points: 4
#     Node 3, Type 0, BuildingBlock: QUQFOY_clean_sbu_1, # of connection points: 4
#     Node 4, Type 0, BuildingBlock: QUQFOY_clean_sbu_1, # of connection points: 4
#     Node 5, Type 0, BuildingBlock: QUQFOY_clean_sbu_1, # of connection points: 4
#     Node 6, Type 0, BuildingBlock: QUQFOY_clean_sbu_1, # of connection points: 4
#     Node 7, Type 0, BuildingBlock: QUQFOY_clean_sbu_1, # of connection points: 4
#     Node 8, Type 0, BuildingBlock: QUQFOY_clean_sbu_1, # of connection points: 4
#     Node 9, Type 0, BuildingBlock: QUQFOY_clean_sbu_1, # of connection points: 4
#     Node 10, Type 0, BuildingBlock: QUQFOY_clean_sbu_1, # of connection points: 4
#     Node 11, Type 0, BuildingBlock: QUQFOY_clean_sbu_1, # of connection points: 4
#     Node 12, Type 0, BuildingBlock: QUQFOY_clean_sbu_1, # of connection points: 4
#     Node 13, Type 0, BuildingBlock: QUQFOY_clean_sbu_1, # of connection points: 4
#     Node 14, Type 0, BuildingBlock: QUQFOY_clean_sbu_1, # of connection points: 4
#     Node 15, Type 0, BuildingBlock: QUQFOY_clean_sbu_1, # of connection points: 4
#     Edge 16, Type (0, 0), BuildingBlock: UVAHIK_clean_linker_0, # of connection points: 2
#     Edge 17, Type (0, 0), BuildingBlock: UVAHIK_clean_linker_0, # of connection points: 2
#     Edge 18, Type (0, 0), BuildingBlock: UVAHIK_clean_linker_0, # of connection points: 2
#     Edge 19, Type (0, 0), BuildingBlock: UVAHIK_clean_linker_0, # of connection points: 2
#     Edge 20, Type (0, 0), BuildingBlock: UVAHIK_clean_linker_0, # of connection points: 2
#     Edge 21, Type (0, 0), BuildingBlock: UVAHIK_clean_linker_0, # of connection points: 2
#     Edge 22, Type (0, 0), BuildingBlock: UVAHIK_clean_linker_0, # of connection points: 2
#     Edge 23, Type (0, 0), BuildingBlock: UVAHIK_clean_linker_0, # of connection points: 2
#     Edge 24, Type (0, 0), BuildingBlock: UVAHIK_clean_linker_0, # of connection points: 2
#     Edge 25, Type (0, 0), BuildingBlock: UVAHIK_clean_linker_0, # of connection points: 2
#     Edge 26, Type (0, 0), BuildingBlock: UVAHIK_clean_linker_0, # of connection points: 2
#     Edge 27, Type (0, 0), BuildingBlock: UVAHIK_clean_linker_0, # of connection points: 2
#     Edge 28, Type (0, 0), BuildingBlock: UVAHIK_clean_linker_0, # of connection points: 2
#     Edge 29, Type (0, 0), BuildingBlock: UVAHIK_clean_linker_0, # of connection points: 2
#     Edge 30, Type (0, 0), BuildingBlock: UVAHIK_clean_linker_0, # of connection points: 2
#     Edge 31, Type (0, 0), BuildingBlock: UVAHIK_clean_linker_0, # of connection points: 2
#     Edge 32, Type (0, 0), BuildingBlock: UVAHIK_clean_linker_0, # of connection points: 2
#     Edge 33, Type (0, 0), BuildingBlock: UVAHIK_clean_linker_0, # of connection points: 2
#     Edge 34, Type (0, 0), BuildingBlock: UVAHIK_clean_linker_0, # of connection points: 2
#     Edge 35, Type (0, 0), BuildingBlock: UVAHIK_clean_linker_0, # of connection points: 2
#     Edge 36, Type (0, 0), BuildingBlock: UVAHIK_clean_linker_0, # of connection points: 2
#     Edge 37, Type (0, 0), BuildingBlock: UVAHIK_clean_linker_0, # of connection points: 2
#     Edge 38, Type (0, 0), BuildingBlock: UVAHIK_clean_linker_0, # of connection points: 2
#     Edge 39, Type (0, 0), BuildingBlock: UVAHIK_clean_linker_0, # of connection points: 2
#     Edge 40, Type (0, 0), BuildingBlock: UVAHIK_clean_linker_0, # of connection points: 2
#     Edge 41, Type (0, 0), BuildingBlock: UVAHIK_clean_linker_0, # of connection points: 2
#     Edge 42, Type (0, 0), BuildingBlock: UVAHIK_clean_linker_0, # of connection points: 2
#     Edge 43, Type (0, 0), BuildingBlock: UVAHIK_clean_linker_0, # of connection points: 2
#     Edge 44, Type (0, 0), BuildingBlock: UVAHIK_clean_linker_0, # of connection points: 2
#     Edge 45, Type (0, 0), BuildingBlock: UVAHIK_clean_linker_0, # of connection points: 2
#     Edge 46, Type (0, 0), BuildingBlock: UVAHIK_clean_linker_0, # of connection points: 2
#     Edge 47, Type (0, 0), BuildingBlock: UVAHIK_clean_linker_0, # of connection points: 2
# Relax obj value: 0.179
# Max RMSD: 0.211
# Mean RMSD: 0.211
data_MOF--net-uoz--node1-QUQFOY_clean_sbu_1--edge1-UVAHIK_clean_linker_0
_symmetry_space_group_name_H-M    P1
_symmetry_Int_Tables_number       1
_symmetry_cell_setting            triclinic
loop_
_symmetry_equiv_pos_as_xyz
'x, y, z'
_cell_length_a     81.991443
_cell_length_b     81.917595
_cell_length_c     28.466559
_cell_angle_alpha  90.034339
_cell_angle_beta   89.989363
_cell_angle_gamma 90.021827
loop_
_atom_site_label
_atom_site_type_symbol
_atom_site_fract_x
_atom_site_fract_y
_atom_site_fract_z
_atom_type_partial_charge
O0 O 0.10225 0.56136 0.24929 0.0
Cd1 Cd 0.10205 0.57463 0.31028 0.0
Cd2 Cd 0.0789 0.59444 0.25867 0.0
O3 O 0.08405 0.57619 0.21142 0.0
O4 O 0.11317 0.56005 0.35594 0.0
O5 O 0.08726 0.56717 0.36266 0.0
C6 C 0.09947 0.55869 0.37781 0.0
C7 C 0.05315 0.60595 0.2438 0.0
C8 C 0.09383 0.56421 0.21283 0.0
C9 C 0.11103 0.60952 0.29076 0.0
O10 O 0.0971 0.61111 0.27175 0.0
O11 O 0.11535 0.59603 0.30896 0.0
O12 O 0.06523 0.60773 0.2156 0.0
O13 O 0.05565 0.59785 0.28196 0.0
O14 O 0.76954 0.76845 0.49858 0.0
Cd15 Cd 0.7541 0.76632 0.55496 0.0
Cd16 Cd 0.74283 0.73982 0.50536 0.0
O17 O 0.76501 0.74344 0.4735 0.0
O18 O 0.76524 0.77784 0.60723 0.0
O19 O 0.76099 0.75112 0.60655 0.0
C20 C 0.76745 0.76375 0.62652 0.0
C21 C 0.73311 0.71292 0.49977 0.0
C22 C 0.77302 0.75667 0.47145 0.0
C23 C 0.7217 0.77047 0.51376 0.0
O24 O 0.72491 0.75704 0.49336 0.0
O25 O 0.73117 0.77597 0.54537 0.0
O26 O 0.73472 0.72213 0.46362 0.0
O27 O 0.73718 0.71888 0.54006 0.0
O28 O 0.56002 0.43431 0.76103 0.0
Cd29 Cd 0.56522 0.4185 0.81509 0.0
Cd30 Cd 0.58994 0.40894 0.7529 0.0
O31 O 0.58351 0.43102 0.7247 0.0
O32 O 0.55432 0.42858 0.87029 0.0
O33 O 0.58114 0.42651 0.86376 0.0
C34 C 0.56862 0.43197 0.8865 0.0
C35 C 0.61645 0.40048 0.73318 0.0
C36 C 0.57003 0.43845 0.7292 0.0
C37 C 0.56116 0.38609 0.77253 0.0
O38 O 0.57318 0.39033 0.74714 0.0
O39 O 0.55673 0.3949 0.80704 0.0
O40 O 0.6052 0.40213 0.70226 0.0
O41 O 0.61284 0.40382 0.77623 0.0
O42 O 0.89266 0.22222 0.00266 0.0
Cd43 Cd 0.90676 0.22256 0.06186 0.0
Cd44 Cd 0.92296 0.24846 0.01404 0.0
O45 O 0.90195 0.2456 0.97527 0.0
O46 O 0.8932 0.2116 0.11018 0.0
O47 O 0.89986 0.23778 0.11356 0.0
C48 C 0.89173 0.2256 0.13053 0.0
C49 C 0.93453 0.27441 0.0026 0.0
C50 C 0.892 0.23375 0.97307 0.0
C51 C 0.94056 0.21587 0.03221 0.0
O52 O 0.94006 0.22994 0.01343 0.0
O53 O 0.92869 0.21062 0.05658 0.0
O54 O 0.93401 0.26364 0.96991 0.0
O55 O 0.92855 0.27051 0.04298 0.0
O56 O 0.09899 0.43537 0.83924 0.0
Cd57 Cd 0.09608 0.41749 0.78919 0.0
Cd58 Cd 0.07221 0.40744 0.85406 0.0
O59 O 0.07485 0.43159 0.87124 0.0
O60 O 0.10796 0.42662 0.7344 0.0
O61 O 0.08118 0.42332 0.73551 0.0
C62 C 0.09402 0.42884 0.71447 0.0
C63 C 0.04675 0.39633 0.8736 0.0
C64 C 0.08763 0.44015 0.86617 0.0
C65 C 0.10317 0.38738 0.8411 0.0
O66 O 0.09129 0.39163 0.867 0.0
O67 O 0.10614 0.39493 0.80307 0.0
O68 O 0.05703 0.40081 0.90511 0.0
O69 O 0.05079 0.39829 0.83015 0.0
O70 O 0.89592 0.76962 0.08163 0.0
Cd71 Cd 0.91221 0.76529 0.02818 0.0
Cd72 Cd 0.92019 0.7401 0.08625 0.0
O73 O 0.896 0.74376 0.10187 0.0
O74 O 0.90261 0.77663 0.97319 0.0
O75 O 0.90459 0.7497 0.97837 0.0
C76 C 0.89924 0.7624 0.9562 0.0
C77 C 0.93 0.71388 0.10314 0.0
C78 C 0.88945 0.75777 0.1034 0.0
C79 C 0.94255 0.76963 0.07776 0.0
O80 O 0.93694 0.75811 0.10297 0.0
O81 O 0.9357 0.77323 0.0391 0.0
O82 O 0.92546 0.72376 0.13564 0.0
O83 O 0.92872 0.71871 0.06015 0.0
O84 O 0.55939 0.56236 0.34819 0.0
Cd85 Cd 0.56475 0.57705 0.29187 0.0
Cd86 Cd 0.5885 0.59002 0.35693 0.0
O87 O 0.58003 0.57001 0.3928 0.0
O88 O 0.55403 0.56575 0.23828 0.0
O89 O 0.58079 0.56841 0.24424 0.0
C90 C 0.56835 0.56247 0.22214 0.0
C91 C 0.61473 0.59818 0.38061 0.0
C92 C 0.5677 0.56099 0.38556 0.0
C93 C 0.56038 0.6116 0.3224 0.0
O94 O 0.57269 0.6093 0.34866 0.0
O95 O 0.55554 0.6005 0.29441 0.0
O96 O 0.60238 0.59896 0.40819 0.0
O97 O 0.61236 0.59269 0.33869 0.0
O98 O 0.76605 0.22649 0.58758 0.0
Cd99 Cd 0.74919 0.22993 0.53499 0.0
Cd100 Cd 0.74051 0.2555 0.59081 0.0
O101 O 0.76449 0.25222 0.6091 0.0
O102 O 0.75843 0.21861 0.47947 0.0
O103 O 0.75576 0.2455 0.48397 0.0
C104 C 0.76104 0.23283 0.46146 0.0
C105 C 0.73077 0.28208 0.60246 0.0
C106 C 0.77179 0.23858 0.61 0.0
C107 C 0.71858 0.22562 0.58462 0.0
O108 O 0.72359 0.23774 0.60848 0.0
O109 O 0.72598 0.22144 0.54731 0.0
O110 O 0.73443 0.27267 0.63695 0.0
O111 O 0.73281 0.2765 0.56047 0.0
O112 O 0.39796 0.27365 0.59342 0.0
Cd113 Cd 0.41323 0.2707 0.5367 0.0
Cd114 Cd 0.42272 0.24402 0.5873 0.0
O115 O 0.39959 0.24771 0.6126 0.0
O116 O 0.40234 0.28226 0.48411 0.0
O117 O 0.40543 0.25538 0.48645 0.0
C118 C 0.39932 0.2681 0.46606 0.0
C119 C 0.43239 0.21728 0.59792 0.0
C120 C 0.39279 0.26154 0.61686 0.0
C121 C 0.44488 0.27394 0.58061 0.0
O122 O 0.44029 0.26129 0.60281 0.0
O123 O 0.43674 0.27903 0.54557 0.0
O124 O 0.42957 0.22689 0.63261 0.0
O125 O 0.4295 0.22272 0.55622 0.0
O126 O 0.27158 0.72353 0.08812 0.0
Cd127 Cd 0.2564 0.72329 0.0311 0.0
Cd128 Cd 0.23933 0.74869 0.08357 0.0
O129 O 0.25999 0.74468 0.12261 0.0
O130 O 0.26917 0.71189 0.9817 0.0
O131 O 0.26236 0.738 0.97721 0.0
C132 C 0.27018 0.72566 0.95996 0.0
C133 C 0.22798 0.77422 0.10251 0.0
C134 C 0.27106 0.73387 0.12123 0.0
C135 C 0.22239 0.71606 0.06249 0.0
O136 O 0.22229 0.73027 0.08043 0.0
O137 O 0.2347 0.71092 0.03967 0.0
O138 O 0.22851 0.7624 0.13196 0.0
O139 O 0.23364 0.77162 0.06092 0.0
O140 O 0.2707 0.27391 0.00996 0.0
Cd141 Cd 0.25451 0.27049 0.06427 0.0
Cd142 Cd 0.24476 0.2454 0.00747 0.0
O143 O 0.26842 0.24851 0.98574 0.0
O144 O 0.26473 0.28171 0.11861 0.0
O145 O 0.26161 0.25488 0.11472 0.0
C146 C 0.26742 0.26748 0.13642 0.0
C147 C 0.23388 0.21921 0.99645 0.0
C148 C 0.27586 0.26209 0.98529 0.0
C149 C 0.22342 0.27556 0.0177 0.0
O150 O 0.22801 0.26354 0.99278 0.0
O151 O 0.23127 0.27942 0.05454 0.0
O152 O 0.2376 0.2285 0.9617 0.0
O153 O 0.23671 0.22461 0.03827 0.0
O154 O 0.3987 0.72852 0.50202 0.0
Cd155 Cd 0.41487 0.73028 0.55669 0.0
Cd156 Cd 0.42676 0.75702 0.50267 0.0
O157 O 0.40432 0.75283 0.47322 0.0
O158 O 0.40422 0.7177 0.6078 0.0
O159 O 0.40783 0.74447 0.61064 0.0
C160 C 0.40166 0.7314 0.62889 0.0
C161 C 0.43601 0.78369 0.48863 0.0
C162 C 0.39555 0.74007 0.47384 0.0
C163 C 0.4476 0.72619 0.51476 0.0
O164 O 0.44473 0.73964 0.4941 0.0
O165 O 0.43776 0.72067 0.5454 0.0
O166 O 0.43419 0.77326 0.45543 0.0
O167 O 0.43267 0.77908 0.53086 0.0
O168 O 0.60144 0.06312 0.76945 0.0
Cd169 Cd 0.59768 0.08023 0.82121 0.0
Cd170 Cd 0.57285 0.08973 0.75719 0.0
O171 O 0.5772 0.06606 0.73728 0.0
O172 O 0.60967 0.07095 0.87562 0.0
O173 O 0.5828 0.07333 0.87391 0.0
C174 C 0.59574 0.06804 0.89492 0.0
C175 C 0.54709 0.09951 0.73461 0.0
C176 C 0.59042 0.05817 0.74159 0.0
C177 C 0.60294 0.11133 0.77246 0.0
O178 O 0.59095 0.10688 0.74722 0.0
O179 O 0.60676 0.10334 0.80911 0.0
O180 O 0.5582 0.09598 0.70449 0.0
O181 O 0.55043 0.09731 0.77844 0.0
O182 O 0.06147 0.93372 0.2556 0.0
Cd183 Cd 0.0637 0.91661 0.30813 0.0
Cd184 Cd 0.08864 0.90555 0.24929 0.0
O185 O 0.08583 0.92902 0.22609 0.0
O186 O 0.05202 0.92668 0.3619 0.0
O187 O 0.07874 0.9228 0.36104 0.0
C188 C 0.06602 0.92883 0.38158 0.0
C189 C 0.11467 0.89465 0.23634 0.0
C190 C 0.0731 0.93776 0.22859 0.0
C191 C 0.05772 0.88529 0.2609 0.0
O192 O 0.07023 0.88895 0.23678 0.0
O193 O 0.05373 0.89384 0.29635 0.0
O194 O 0.10489 0.8979 0.20239 0.0
O195 O 0.10979 0.89777 0.27851 0.0
O196 O 0.60873 0.93539 0.35934 0.0
Cd197 Cd 0.60618 0.9221 0.29853 0.0
Cd198 Cd 0.58156 0.90545 0.35148 0.0
O199 O 0.58863 0.92334 0.3975 0.0
O200 O 0.61688 0.93564 0.24948 0.0
O201 O 0.59038 0.93048 0.25004 0.0
C202 C 0.60266 0.93796 0.23132 0.0
C203 C 0.55481 0.89649 0.3659 0.0
C204 C 0.59994 0.93389 0.39577 0.0
C205 C 0.61145 0.88655 0.31786 0.0
O206 O 0.59787 0.88692 0.33933 0.0
O207 O 0.61694 0.89924 0.29752 0.0
O208 O 0.56649 0.89396 0.39498 0.0
O209 O 0.55822 0.90405 0.32741 0.0
O210 O 0.06306 0.06101 0.8453 0.0
Cd211 Cd 0.0631 0.07492 0.78559 0.0
Cd212 Cd 0.08619 0.09468 0.84183 0.0
O213 O 0.0815 0.07507 0.88475 0.0
O214 O 0.05146 0.06079 0.73972 0.0
O215 O 0.07739 0.06763 0.73176 0.0
C216 C 0.06496 0.0594 0.71693 0.0
C217 C 0.11094 0.10729 0.86261 0.0
C218 C 0.0717 0.06313 0.88173 0.0
C219 C 0.05373 0.10942 0.80949 0.0
O220 O 0.06741 0.11083 0.83008 0.0
O221 O 0.04977 0.09624 0.78876 0.0
O222 O 0.09843 0.10745 0.88962 0.0
O223 O 0.10949 0.10019 0.82238 0.0
C224 C 0.21239 0.68792 0.08019 0.0
C225 C 0.20918 0.7047 0.07569 0.0
C226 C 0.20136 0.67777 0.10363 0.0
C227 C 0.15926 0.67367 0.14506 0.0
H228 H 0.17832 0.64952 0.24859 0.0
C229 C 0.11808 0.63837 0.27122 0.0
C230 C 0.12321 0.62251 0.28278 0.0
C231 C 0.12897 0.64948 0.25121 0.0
C232 C 0.1728 0.65602 0.21959 0.0
H233 H 0.19137 0.72374 0.08873 0.0
H234 H 0.1719 0.70587 0.12834 0.0
H235 H 0.19584 0.66545 0.19667 0.0
H236 H 0.14406 0.60628 0.2858 0.0
H237 H 0.16293 0.62542 0.24986 0.0
H238 H 0.1363 0.66396 0.16665 0.0
C239 C 0.18303 0.70065 0.11442 0.0
C240 C 0.18285 0.66512 0.18983 0.0
C241 C 0.19417 0.71086 0.09171 0.0
C242 C 0.13975 0.61844 0.27754 0.0
C243 C 0.15059 0.62946 0.25678 0.0
C244 C 0.14922 0.66439 0.17436 0.0
C245 C 0.18681 0.68416 0.12213 0.0
C246 C 0.17617 0.67401 0.1523 0.0
C247 C 0.14516 0.64488 0.24155 0.0
C248 C 0.15584 0.65545 0.2121 0.0
H249 H 0.22389 0.68284 0.0685 0.0
H250 H 0.20443 0.66503 0.10866 0.0
H251 H 0.15383 0.68038 0.11625 0.0
H252 H 0.10542 0.64189 0.27529 0.0
H253 H 0.12448 0.66143 0.24144 0.0
C254 C 0.61568 0.8581 0.3468 0.0
C255 C 0.62184 0.87189 0.32331 0.0
C256 C 0.62611 0.84568 0.36166 0.0
C257 C 0.66898 0.84024 0.3957 0.0
H258 H 0.65606 0.79495 0.40901 0.0
C259 C 0.70514 0.79627 0.5139 0.0
C260 C 0.70805 0.78056 0.49592 0.0
C261 C 0.69389 0.80663 0.49209 0.0
C262 C 0.65993 0.80753 0.40528 0.0
H263 H 0.64363 0.88272 0.29338 0.0
H264 H 0.66182 0.86079 0.31833 0.0
H265 H 0.63876 0.81367 0.36512 0.0
H266 H 0.70081 0.76316 0.4422 0.0
H267 H 0.68152 0.78123 0.40402 0.0
H268 H 0.69033 0.83404 0.43486 0.0
C269 C 0.64895 0.85984 0.32642 0.0
C270 C 0.64994 0.8183 0.3804 0.0
C271 C 0.63849 0.87233 0.31165 0.0
C272 C 0.6989 0.77518 0.45707 0.0
C273 C 0.68775 0.78555 0.43517 0.0
C274 C 0.67901 0.82946 0.42031 0.0
C275 C 0.64296 0.84668 0.35314 0.0
C276 C 0.65426 0.83483 0.37567 0.0
C277 C 0.68536 0.80153 0.45174 0.0
C278 C 0.67455 0.813 0.4258 0.0
H279 H 0.6029 0.85728 0.35614 0.0
H280 H 0.62104 0.83581 0.3823 0.0
H281 H 0.67259 0.85294 0.39344 0.0
H282 H 0.71192 0.80078 0.54386 0.0
H283 H 0.69208 0.81874 0.50642 0.0
C284 C 0.53908 0.36528 0.7867 0.0
C285 C 0.55128 0.37185 0.75771 0.0
C286 C 0.52875 0.35296 0.76987 0.0
C287 C 0.52312 0.32398 0.66858 0.0
H288 H 0.47784 0.32562 0.70755 0.0
C289 C 0.46676 0.29528 0.57179 0.0
C290 C 0.45871 0.28355 0.59935 0.0
C291 C 0.47908 0.30498 0.59143 0.0
C292 C 0.49048 0.32507 0.69651 0.0
H293 H 0.56238 0.37041 0.68854 0.0
H294 H 0.54414 0.34973 0.65883 0.0
H295 H 0.4975 0.34425 0.74308 0.0
H296 H 0.4573 0.27276 0.66896 0.0
H297 H 0.47839 0.29005 0.70319 0.0
H298 H 0.51566 0.30527 0.62024 0.0
C299 C 0.54274 0.35353 0.69502 0.0
C300 C 0.50182 0.33559 0.71718 0.0
C301 C 0.5532 0.36556 0.71208 0.0
C302 C 0.46333 0.2816 0.64664 0.0
C303 C 0.47533 0.29152 0.6664 0.0
C304 C 0.51169 0.31373 0.64719 0.0
C305 C 0.53022 0.34718 0.72337 0.0
C306 C 0.51831 0.33525 0.70342 0.0
C307 C 0.48322 0.30332 0.63906 0.0
C308 C 0.49531 0.31424 0.661 0.0
H309 H 0.53735 0.36982 0.8221 0.0
H310 H 0.51951 0.34814 0.79319 0.0
H311 H 0.53574 0.32303 0.65769 0.0
H312 H 0.46346 0.29705 0.53531 0.0
H313 H 0.48506 0.31409 0.56986 0.0
C314 C 0.9511 0.1879 0.01533 0.0
C315 C 0.95394 0.20476 0.01873 0.0
C316 C 0.96229 0.1778 0.99235 0.0
C317 C 0.99559 0.18062 0.904 0.0
H318 H 0.00123 0.13482 0.93393 0.0
C319 C 0.04622 0.13797 0.8313 0.0
C320 C 0.04135 0.12219 0.81774 0.0
C321 C 0.03494 0.14885 0.85063 0.0
C322 C -0.0004 0.14756 0.92493 0.0
H323 H 0.9713 0.22408 0.00444 0.0
H324 H 0.99125 0.20637 0.96677 0.0
H325 H 0.9842 0.15182 0.98421 0.0
H326 H 0.02067 0.10584 0.81086 0.0
H327 H 0.00103 0.12481 0.84539 0.0
H328 H 0.01162 0.17632 0.84569 0.0
C329 C 0.98007 0.201 0.9798 0.0
C330 C 0.98985 0.15733 0.95371 0.0
C331 C 0.96874 0.21113 0.00198 0.0
C332 C 0.02478 0.11793 0.82074 0.0
C333 C 0.01357 0.12871 0.8409 0.0
C334 C 0.00558 0.1709 0.87573 0.0
C335 C 0.9767 0.18431 0.97301 0.0
C336 C 0.98765 0.17399 0.94358 0.0
C337 C 0.01869 0.14403 0.85742 0.0
C338 C 0.00759 0.15427 0.88581 0.0
H339 H 0.93972 0.18266 0.02748 0.0
H340 H 0.95915 0.16507 0.98759 0.0
H341 H 0.99393 0.19328 0.8943 0.0
H342 H 0.05891 0.14158 0.82937 0.0
H343 H 0.03917 0.16061 0.86311 0.0
C344 C 0.11452 0.37014 0.90547 0.0
C345 C 0.11423 0.37433 0.85762 0.0
C346 C 0.12563 0.35866 0.92234 0.0
C347 C 0.1645 0.33808 0.89033 0.0
H348 H 0.15377 0.31089 0.99756 0.0
C349 C 0.20478 0.28485 0.95385 0.0
C350 C 0.20967 0.28573 0.00115 0.0
C351 C 0.19262 0.29514 0.93667 0.0
C352 C 0.15691 0.31848 0.96775 0.0
H353 H 0.12499 0.36937 0.7896 0.0
H354 H 0.14392 0.34872 0.81855 0.0
H355 H 0.13314 0.32908 0.96482 0.0
H356 H 0.20529 0.29774 0.06786 0.0
H357 H 0.18354 0.31549 0.03782 0.0
H358 H 0.18813 0.32693 0.89258 0.0
C359 C 0.13595 0.35472 0.84347 0.0
C360 C 0.14514 0.32897 0.94903 0.0
C361 C 0.12501 0.36646 0.82671 0.0
C362 C 0.20179 0.29681 0.03126 0.0
C363 C 0.18936 0.30691 0.01418 0.0
C364 C 0.17613 0.32736 0.9085 0.0
C365 C 0.13656 0.35082 0.89167 0.0
C366 C 0.14882 0.33904 0.91028 0.0
C367 C 0.18487 0.3063 0.96658 0.0
C368 C 0.17247 0.31756 0.94752 0.0
H369 H 0.10649 0.3761 0.93035 0.0
H370 H 0.1259 0.35631 0.95975 0.0
H371 H 0.16797 0.34584 0.86122 0.0
H372 H 0.21064 0.2765 0.92964 0.0
H373 H 0.18928 0.29439 0.89991 0.0
C374 C 0.04827 0.8662 0.19831 0.0
C375 C 0.04723 0.87168 0.245 0.0
C376 C 0.03778 0.85412 0.18165 0.0
C377 C -0.00164 0.83382 0.2092 0.0
H378 H 0.01214 0.80441 0.10991 0.0
C379 C 0.95973 0.77943 0.14436 0.0
C380 C 0.95611 0.77969 0.09606 0.0
C381 C 0.97154 0.78984 0.163 0.0
C382 C 0.00817 0.8126 0.13753 0.0
H383 H 0.03471 0.86839 0.31134 0.0
H384 H 0.01683 0.84668 0.28295 0.0
H385 H 0.03175 0.82343 0.14406 0.0
H386 H 0.96243 0.79067 0.0292 0.0
H387 H 0.98356 0.80861 0.06192 0.0
H388 H 0.97489 0.82246 0.20339 0.0
C389 C 0.0254 0.85213 0.25863 0.0
C390 C 0.01934 0.82358 0.15702 0.0
C391 C 0.03573 0.86448 0.2751 0.0
C392 C 0.96495 0.79022 0.06653 0.0
C393 C 0.97703 0.80042 0.08515 0.0
C394 C 0.98731 0.82262 0.19035 0.0
C395 C 0.02614 0.84693 0.21145 0.0
C396 C 0.01454 0.83449 0.19275 0.0
C397 C 0.9802 0.80049 0.13365 0.0
C398 C 0.99208 0.81205 0.15407 0.0
H399 H 0.05689 0.87161 0.17402 0.0
H400 H 0.03855 0.85078 0.14491 0.0
H401 H 0.99406 0.84219 0.23589 0.0
H402 H 0.95311 0.77152 0.16814 0.0
H403 H 0.97386 0.78963 0.20047 0.0
C404 C 0.47201 0.7221 0.46332 0.0
C405 C 0.46156 0.71616 0.49864 0.0
C406 C 0.48366 0.71194 0.44276 0.0
C407 C 0.49174 0.66838 0.42134 0.0
H408 H 0.53443 0.6838 0.38292 0.0
C409 C 0.55618 0.63883 0.36005 0.0
C410 C 0.55044 0.62647 0.32997 0.0
C411 C 0.54579 0.65121 0.37545 0.0
C412 C 0.52256 0.6793 0.39346 0.0
H413 H 0.45583 0.69511 0.54179 0.0
H414 H 0.47643 0.67745 0.50646 0.0
H415 H 0.51616 0.70207 0.42548 0.0
H416 H 0.52959 0.61816 0.28959 0.0
H417 H 0.51149 0.64 0.31592 0.0
H418 H 0.4983 0.64548 0.39068 0.0
C419 C 0.47532 0.68989 0.49398 0.0
C420 C 0.51204 0.6898 0.4176 0.0
C421 C 0.46362 0.70006 0.51457 0.0
C422 C 0.53439 0.62745 0.3129 0.0
C423 C 0.52397 0.63986 0.32838 0.0
C424 C 0.50225 0.65789 0.39729 0.0
C425 C 0.48521 0.69561 0.45708 0.0
C426 C 0.49655 0.68443 0.43207 0.0
C427 C 0.52941 0.65155 0.36108 0.0
C428 C 0.51782 0.66319 0.38327 0.0
H429 H 0.47079 0.73444 0.45019 0.0
H430 H 0.49099 0.71673 0.41426 0.0
H431 H 0.47979 0.66393 0.43125 0.0
H432 H 0.56851 0.63851 0.3737 0.0
H433 H 0.55039 0.65994 0.40077 0.0
C434 C 0.70105 0.21616 0.65092 0.0
C435 C 0.70499 0.2156 0.6029 0.0
C436 C 0.68918 0.2058 0.66952 0.0
C437 C 0.66687 0.16738 0.64215 0.0
H438 H 0.64081 0.18018 0.74984 0.0
C439 C 0.61212 0.13021 0.70904 0.0
C440 C 0.61326 0.12501 0.75603 0.0
C441 C 0.62274 0.14201 0.69147 0.0
C442 C 0.64809 0.17648 0.71992 0.0
H443 H 0.69912 0.20423 0.53632 0.0
H444 H 0.67779 0.18669 0.56818 0.0
H445 H 0.65971 0.19976 0.71482 0.0
H446 H 0.62606 0.12861 0.8219 0.0
H447 H 0.64443 0.14976 0.79114 0.0
H448 H 0.65469 0.14429 0.6465 0.0
C449 C 0.68429 0.19468 0.59199 0.0
C450 C 0.65898 0.18763 0.69988 0.0
C451 C 0.69643 0.20484 0.57354 0.0
C452 C 0.6249 0.13235 0.78556 0.0
C453 C 0.63536 0.14444 0.76808 0.0
C454 C 0.65576 0.15639 0.6616 0.0
C455 C 0.6807 0.19482 0.64042 0.0
C456 C 0.6686 0.1832 0.66083 0.0
C457 C 0.63454 0.1491 0.72065 0.0
C458 C 0.64634 0.16082 0.70072 0.0
H459 H 0.70755 0.22422 0.6746 0.0
H460 H 0.68706 0.20612 0.70703 0.0
H461 H 0.67429 0.16332 0.61294 0.0
H462 H 0.60334 0.1248 0.68523 0.0
H463 H 0.62183 0.14551 0.65485 0.0
C464 C 0.02647 0.38868 0.93503 0.0
C465 C 0.03132 0.3884 0.88767 0.0
C466 C 0.01304 0.37964 0.95007 0.0
C467 C 0.9771 0.35592 0.9092 0.0
H468 H 0.98552 0.3303 0.02119 0.0
C469 C 0.94585 0.29485 0.9468 0.0
C470 C 0.94201 0.2905 0.99325 0.0
C471 C 0.95399 0.30939 0.93714 0.0
C472 C 0.98279 0.3376 0.99047 0.0
H473 H 0.02542 0.37908 0.81848 0.0
H474 H 0.00207 0.36298 0.84487 0.0
H475 H 0.00489 0.35119 0.99732 0.0
H476 H 0.94318 0.29826 0.06596 0.0
H477 H 0.95762 0.32382 0.04902 0.0
H478 H 0.95526 0.34182 0.90155 0.0
C479 C 0.00854 0.37037 0.87033 0.0
C480 C 0.99391 0.34959 0.97669 0.0
C481 C 0.02197 0.37953 0.85519 0.0
C482 C 0.94603 0.30128 0.02984 0.0
C483 C 0.95433 0.31586 0.02016 0.0
C484 C 0.96598 0.3439 0.92297 0.0
C485 C 0.00419 0.37001 0.91817 0.0
C486 C 0.99138 0.35864 0.93532 0.0
C487 C 0.95857 0.31994 0.97369 0.0
C488 C 0.96891 0.33435 0.96313 0.0
H489 H 0.03331 0.39558 0.96085 0.0
H490 H 0.00981 0.3799 0.98696 0.0
H491 H 0.97466 0.36287 0.87763 0.0
H492 H 0.94285 0.28686 0.91773 0.0
H493 H 0.95727 0.31202 0.90107 0.0
C494 C 0.52781 0.10696 0.67046 0.0
C495 C 0.53151 0.10668 0.71867 0.0
C496 C 0.51423 0.11545 0.65398 0.0
C497 C 0.47588 0.13599 0.68956 0.0
H498 H 0.48598 0.16464 0.58509 0.0
C499 C 0.44123 0.19537 0.65291 0.0
C500 C 0.43955 0.201 0.60653 0.0
C501 C 0.44974 0.18103 0.66249 0.0
C502 C 0.48277 0.15648 0.61354 0.0
H503 H 0.5234 0.11434 0.78769 0.0
H504 H 0.4997 0.12943 0.75879 0.0
H505 H 0.50593 0.14462 0.61053 0.0
H506 H 0.44467 0.19551 0.53352 0.0
H507 H 0.45953 0.17025 0.55026 0.0
H508 H 0.45285 0.14824 0.6933 0.0
C509 C 0.50725 0.12293 0.73378 0.0
C510 C 0.49425 0.145 0.62825 0.0
C511 C 0.52085 0.11435 0.75036 0.0
C512 C 0.44584 0.19152 0.56963 0.0
C513 C 0.45441 0.17711 0.57926 0.0
C514 C 0.46435 0.14746 0.67473 0.0
C515 C 0.50406 0.12392 0.68527 0.0
C516 C 0.49108 0.13485 0.66702 0.0
C517 C 0.45678 0.17193 0.62593 0.0
C518 C 0.46783 0.1581 0.63722 0.0
H519 H 0.53567 0.10099 0.64514 0.0
H520 H 0.51193 0.1157 0.61651 0.0
H521 H 0.47299 0.12817 0.71909 0.0
H522 H 0.43646 0.20235 0.68218 0.0
H523 H 0.45147 0.17755 0.69884 0.0
C524 C 0.64262 0.60956 0.36477 0.0
C525 C 0.63074 0.6042 0.39677 0.0
C526 C 0.65667 0.61751 0.3809 0.0
C527 C 0.66972 0.64206 0.48247 0.0
H528 H 0.71169 0.6415 0.41987 0.0
C529 C 0.71968 0.68794 0.53327 0.0
C530 C 0.72596 0.69646 0.4945 0.0
C531 C 0.71087 0.67347 0.52656 0.0
C532 C 0.70004 0.64173 0.43783 0.0
H533 H 0.62484 0.60168 0.47069 0.0
H534 H 0.64946 0.61506 0.49875 0.0
H535 H 0.6908 0.62166 0.39748 0.0
H536 H 0.72898 0.69596 0.41876 0.0
H537 H 0.71365 0.67095 0.40716 0.0
H538 H 0.67868 0.66242 0.52168 0.0
C539 C 0.64775 0.61367 0.46123 0.0
C540 C 0.68807 0.63042 0.42489 0.0
C541 C 0.63367 0.60593 0.44513 0.0
C542 C 0.72417 0.68974 0.44936 0.0
C543 C 0.7155 0.67529 0.44271 0.0
C544 C 0.68167 0.65331 0.49545 0.0
C545 C 0.65915 0.62007 0.42933 0.0
C546 C 0.67263 0.63069 0.44636 0.0
C547 C 0.70834 0.66723 0.48103 0.0
C548 C 0.69683 0.65355 0.47251 0.0
H549 H 0.64065 0.60839 0.32729 0.0
H550 H 0.66514 0.62239 0.35531 0.0
H551 H 0.65789 0.64285 0.49926 0.0
H552 H 0.72092 0.6928 0.56847 0.0
H553 H 0.70563 0.66742 0.55683 0.0
C554 C 0.21445 0.80099 0.08408 0.0
C555 C 0.22088 0.78998 0.11698 0.0
C556 C 0.20606 0.81493 0.09931 0.0
C557 C 0.18288 0.82891 0.20258 0.0
H558 H 0.18218 0.87048 0.13771 0.0
C559 C 0.13993 0.88002 0.26288 0.0
C560 C 0.13049 0.88672 0.22655 0.0
C561 C 0.15376 0.8707 0.2524 0.0
C562 C 0.18228 0.85893 0.1562 0.0
H563 H 0.22477 0.78551 0.19125 0.0
H564 H 0.21064 0.80988 0.21758 0.0
H565 H 0.20134 0.8493 0.11268 0.0
H566 H 0.12871 0.88981 0.15098 0.0
H567 H 0.1526 0.87349 0.13284 0.0
H568 H 0.16361 0.83825 0.24523 0.0
C569 C 0.2115 0.80757 0.18019 0.0
C570 C 0.1932 0.8468 0.14177 0.0
C571 C 0.21966 0.79363 0.16507 0.0
C572 C 0.13566 0.88471 0.17981 0.0
C573 C 0.14946 0.87546 0.16937 0.0
C574 C 0.17203 0.841 0.21701 0.0
C575 C 0.20414 0.81812 0.14765 0.0
C576 C 0.19347 0.83157 0.16445 0.0
C577 C 0.15841 0.86797 0.20543 0.0
C578 C 0.17142 0.85606 0.19358 0.0
H579 H 0.21525 0.79846 0.0468 0.0
H580 H 0.20045 0.82277 0.07332 0.0
H581 H 0.1825 0.81721 0.22028 0.0
H582 H 0.1363 0.88144 0.29924 0.0
H583 H 0.16056 0.86524 0.28098 0.0
C584 C 0.02461 0.61451 0.26507 0.0
C585 C 0.0371 0.61294 0.23159 0.0
C586 C 0.00983 0.62201 0.25294 0.0
C587 C 0.98468 0.63471 0.1509 0.0
H588 H 0.97128 0.67046 0.23124 0.0
C589 C 0.94777 0.68988 0.08427 0.0
C590 C 0.9375 0.6981 0.11581 0.0
C591 C 0.95693 0.67645 0.09933 0.0
C592 C 0.97455 0.6603 0.20878 0.0
H593 H 0.04368 0.61736 0.15881 0.0
H594 H 0.01811 0.63032 0.13793 0.0
H595 H 0.99272 0.65209 0.25728 0.0
H596 H 0.92768 0.69796 0.18657 0.0
H597 H 0.94325 0.67433 0.21238 0.0
H598 H 0.96681 0.64319 0.1018 0.0
C599 C 0.0196 0.62576 0.17338 0.0
C600 C 0.98688 0.64977 0.2238 0.0
C601 C 0.03434 0.61848 0.18555 0.0
C602 C 0.93569 0.692 0.16163 0.0
C603 C 0.94468 0.6785 0.17652 0.0
C604 C 0.97228 0.6452 0.13594 0.0
C605 C 0.00726 0.62782 0.207 0.0
C606 C 0.99239 0.63715 0.19447 0.0
C607 C 0.95585 0.67091 0.14609 0.0
C608 C 0.96737 0.65839 0.16418 0.0
H609 H 0.02638 0.61031 0.30077 0.0
H610 H 0.00048 0.62341 0.27953 0.0
H611 H 0.98854 0.62493 0.12781 0.0
H612 H 0.94943 0.69434 0.04878 0.0
H613 H 0.9655 0.67099 0.07501 0.0
C614 C 0.13837 0.11983 0.84624 0.0
C615 C 0.12626 0.11507 0.87827 0.0
C616 C 0.15212 0.12845 0.86185 0.0
C617 C 0.16476 0.15478 0.96087 0.0
H618 H 0.20784 0.15074 0.90601 0.0
C619 C 0.22429 0.19744 0.94178 0.0
C620 C 0.22551 0.20352 0.98785 0.0
C621 C 0.21438 0.18403 0.93183 0.0
C622 C 0.19587 0.15197 0.92169 0.0
H623 H 0.1195 0.11458 0.95196 0.0
H624 H 0.14351 0.12908 0.97914 0.0
H625 H 0.18608 0.13222 0.88102 0.0
H626 H 0.21811 0.19969 0.06011 0.0
H627 H 0.20072 0.17618 0.04268 0.0
H628 H 0.17437 0.17463 0.00089 0.0
C629 C 0.14224 0.12674 0.94186 0.0
C630 C 0.1834 0.14143 0.90722 0.0
C631 C 0.12849 0.11836 0.92627 0.0
C632 C 0.21737 0.19532 0.02425 0.0
C633 C 0.20735 0.18193 0.01422 0.0
C634 C 0.17721 0.16521 0.97545 0.0
C635 C 0.15403 0.13228 0.90981 0.0
C636 C 0.16764 0.14282 0.92635 0.0
C637 C 0.2054 0.17644 0.96769 0.0
C638 C 0.19285 0.16407 0.95567 0.0
H639 H 0.13695 0.11743 0.80904 0.0
H640 H 0.16092 0.13263 0.83615 0.0
H641 H 0.15271 0.15647 0.97568 0.0
H642 H 0.23051 0.20343 0.91297 0.0
H643 H 0.21307 0.1802 0.8956 0.0
C644 C 0.71775 0.30812 0.57484 0.0
C645 C 0.72367 0.29836 0.61162 0.0
C646 C 0.70945 0.32266 0.58466 0.0
C647 C 0.6995 0.35215 0.68067 0.0
H648 H 0.65868 0.35632 0.61322 0.0
C649 C 0.64284 0.38638 0.75184 0.0
C650 C 0.63251 0.39395 0.71913 0.0
C651 C 0.65666 0.37784 0.73652 0.0
C652 C 0.67017 0.35559 0.63186 0.0
H653 H 0.72631 0.29663 0.68734 0.0
H654 H 0.71167 0.32165 0.70433 0.0
H655 H 0.67826 0.33581 0.58894 0.0
H656 H 0.62925 0.3998 0.6454 0.0
H657 H 0.65342 0.38526 0.61897 0.0
H658 H 0.69099 0.37161 0.72476 0.0
C659 C 0.71355 0.31828 0.66793 0.0
C660 C 0.68144 0.34381 0.61782 0.0
C661 C 0.72183 0.30382 0.65815 0.0
C662 C 0.63685 0.39385 0.67138 0.0
C663 C 0.65066 0.38547 0.65618 0.0
C664 C 0.68817 0.36394 0.69483 0.0
C665 C 0.70691 0.32769 0.63141 0.0
C666 C 0.6961 0.34172 0.64258 0.0
C667 C 0.66039 0.37685 0.68831 0.0
C668 C 0.67326 0.36559 0.67102 0.0
H669 H 0.71908 0.3043 0.53862 0.0
H670 H 0.70468 0.32976 0.55568 0.0
H671 H 0.71079 0.351 0.70011 0.0
H672 H 0.63977 0.38627 0.78885 0.0
H673 H 0.66386 0.37126 0.76216 0.0
C674 C 0.45124 0.80906 0.51114 0.0
C675 C 0.44241 0.80008 0.47775 0.0
C676 C 0.45947 0.82331 0.49784 0.0
C677 C 0.47773 0.84099 0.39126 0.0
H678 H 0.48778 0.87714 0.47423 0.0
C679 C 0.52643 0.88852 0.34165 0.0
C680 C 0.53828 0.89043 0.37682 0.0
C681 C 0.5115 0.88101 0.35206 0.0
C682 C 0.485 0.86716 0.45057 0.0
H683 H 0.43397 0.79964 0.40557 0.0
H684 H 0.4478 0.82468 0.38283 0.0
H685 H 0.46696 0.85731 0.49708 0.0
H686 H 0.54345 0.88698 0.45093 0.0
H687 H 0.51763 0.87394 0.46888 0.0
H688 H 0.49609 0.85048 0.34551 0.0
C689 C 0.44893 0.8205 0.41877 0.0
C690 C 0.47313 0.85577 0.46373 0.0
C691 C 0.44094 0.80619 0.43187 0.0
C692 C 0.53461 0.88555 0.42294 0.0
C693 C 0.51972 0.87822 0.43339 0.0
C694 C 0.4895 0.85239 0.37805 0.0
C695 C 0.45882 0.8289 0.45105 0.0
C696 C 0.46968 0.8423 0.43478 0.0
C697 C 0.50815 0.87549 0.3979 0.0
C698 C 0.49361 0.86533 0.40814 0.0
H699 H 0.45256 0.80459 0.54674 0.0
H700 H 0.46706 0.82939 0.52358 0.0
H701 H 0.47562 0.83064 0.36835 0.0
H702 H 0.52892 0.89222 0.30585 0.0
H703 H 0.50275 0.87914 0.32407 0.0
C704 C 0.10342 0.53849 0.1742 0.0
C705 C 0.09548 0.55364 0.17116 0.0
C706 C 0.10439 0.52831 0.13496 0.0
C707 C 0.11058 0.51151 0.04185 0.0
H708 H 0.07077 0.5074 0.96921 0.0
C709 C 0.1038 0.46465 0.89121 0.0
C710 C 0.08935 0.45544 0.89314 0.0
C711 C 0.10559 0.47861 0.91901 0.0
C712 C 0.08199 0.50844 0.9891 0.0
H713 H 0.08301 0.57035 0.12415 0.0
H714 H 0.08498 0.55274 0.05562 0.0
H715 H 0.0725 0.52789 0.0307 0.0
H716 H 0.0653 0.45386 0.92483 0.0
H717 H 0.0685 0.47794 0.97343 0.0
H718 H 0.11968 0.49136 0.0018 0.0
C719 C 0.0901 0.54854 0.08852 0.0
C720 C 0.08306 0.52031 0.024 0.0
C721 C 0.089 0.55864 0.1278 0.0
C722 C 0.0766 0.46067 0.92247 0.0
C723 C 0.07838 0.47457 0.95009 0.0
C724 C 0.10947 0.49956 0.00701 0.0
C725 C 0.09756 0.53315 0.09184 0.0
C726 C 0.09723 0.52174 0.05147 0.0
C727 C 0.09293 0.48361 0.949 0.0
C728 C 0.09501 0.49765 0.98113 0.0
H729 H 0.10854 0.53432 0.20715 0.0
H730 H 0.11001 0.51643 0.13887 0.0
H731 H 0.12175 0.51249 0.06195 0.0
H732 H 0.11383 0.46096 0.86882 0.0
H733 H 0.11689 0.48543 0.91724 0.0
C734 C 0.86598 0.74683 0.14896 0.0
C735 C 0.87498 0.76033 0.13314 0.0
C736 C 0.85332 0.74891 0.18096 0.0
C737 C 0.84111 0.77505 0.27689 0.0
H738 H 0.80096 0.75013 0.26967 0.0
C739 C 0.79209 0.77414 0.42447 0.0
C740 C 0.78544 0.7587 0.43441 0.0
C741 C 0.80239 0.77626 0.38583 0.0
C742 C 0.81215 0.75711 0.27225 0.0
H743 H 0.87745 0.78667 0.13704 0.0
H744 H 0.8553 0.79027 0.19382 0.0
H745 H 0.81926 0.75088 0.2022 0.0
H746 H 0.78501 0.73325 0.41313 0.0
H747 H 0.80314 0.73691 0.34653 0.0
H748 H 0.83427 0.78079 0.34761 0.0
C749 C 0.85811 0.77811 0.18123 0.0
C750 C 0.82255 0.7576 0.2336 0.0
C751 C 0.8707 0.77604 0.14865 0.0
C752 C 0.78979 0.74533 0.40617 0.0
C753 C 0.80007 0.74745 0.36775 0.0
C754 C 0.83071 0.77451 0.31572 0.0
C755 C 0.84948 0.76451 0.1981 0.0
C756 C 0.83732 0.76621 0.23601 0.0
C757 C 0.80619 0.76298 0.35657 0.0
C758 C 0.81636 0.76515 0.31415 0.0
H759 H 0.86896 0.73458 0.13745 0.0
H760 H 0.84698 0.73819 0.19379 0.0
H761 H 0.85251 0.78166 0.27973 0.0
H762 H 0.78894 0.78468 0.44558 0.0
H763 H 0.80696 0.78837 0.37801 0.0
C764 C 0.55123 0.53689 0.41209 0.0
C765 C 0.56292 0.549 0.42169 0.0
C766 C 0.54724 0.52528 0.44618 0.0
C767 C 0.55042 0.51623 0.57317 0.0
H768 H 0.55535 0.47129 0.53269 0.0
C769 C 0.55197 0.46131 0.70204 0.0
C770 C 0.5657 0.4513 0.69516 0.0
C771 C 0.54779 0.47309 0.66862 0.0
C772 C 0.55376 0.48378 0.54438 0.0
H773 H 0.57911 0.55883 0.47506 0.0
H774 H 0.57223 0.53859 0.5341 0.0
H775 H 0.55444 0.49302 0.47421 0.0
H776 H 0.58572 0.44572 0.6478 0.0
H777 H 0.57841 0.46618 0.5899 0.0
H778 H 0.55063 0.50699 0.64354 0.0
C779 C 0.56606 0.53811 0.50048 0.0
C780 C 0.55309 0.49619 0.51096 0.0
C781 C 0.57014 0.54959 0.4664 0.0
C782 C 0.5751 0.45326 0.65429 0.0
C783 C 0.57082 0.46485 0.62082 0.0
C784 C 0.55099 0.50379 0.60663 0.0
C785 C 0.55473 0.52573 0.49054 0.0
C786 C 0.55204 0.51257 0.52515 0.0
C787 C 0.55713 0.47485 0.62758 0.0
C788 C 0.5533 0.48754 0.59251 0.0
H789 H 0.54541 0.53617 0.378 0.0
H790 H 0.53845 0.51585 0.43772 0.0
H791 H 0.54942 0.52877 0.58493 0.0
H792 H 0.54449 0.46006 0.73321 0.0
H793 H 0.5372 0.48073 0.6746 0.0
C794 C 0.87097 0.21904 0.92529 0.0
C795 C 0.87982 0.23335 0.93501 0.0
C796 C 0.85978 0.21867 0.88831 0.0
C797 C 0.83379 0.24535 0.81877 0.0
H798 H 0.83441 0.21088 0.72524 0.0
C799 C 0.79503 0.25064 0.65395 0.0
C800 C 0.78628 0.23674 0.64001 0.0
C801 C 0.80743 0.24939 0.68711 0.0
C802 C 0.83399 0.22048 0.75137 0.0
H803 H 0.88384 0.2585 0.91384 0.0
H804 H 0.86419 0.25786 0.84981 0.0
H805 H 0.85367 0.21008 0.79092 0.0
H806 H 0.7841 0.2105 0.6479 0.0
H807 H 0.80558 0.20836 0.70707 0.0
H808 H 0.81403 0.25566 0.7803 0.0
C809 C 0.86593 0.24696 0.87075 0.0
C810 C 0.84499 0.22002 0.78885 0.0
C811 C 0.8772 0.24729 0.90729 0.0
C812 C 0.79069 0.22141 0.65807 0.0
C813 C 0.803 0.22019 0.69183 0.0
C814 C 0.82275 0.24575 0.7817 0.0
C815 C 0.85713 0.23266 0.86093 0.0
C816 C 0.84508 0.23256 0.82249 0.0
C817 C 0.81118 0.23426 0.7076 0.0
C818 C 0.82285 0.23345 0.74722 0.0
H819 H 0.87279 0.20809 0.94594 0.0
H820 H 0.85304 0.20754 0.88151 0.0
H821 H 0.83345 0.25501 0.84476 0.0
H822 H 0.79205 0.26258 0.64001 0.0
H823 H 0.81383 0.26039 0.69751 0.0
C824 C 0.29751 0.25048 0.93389 0.0
C825 C 0.29 0.26422 0.95393 0.0
C826 C 0.30999 0.25235 0.90122 0.0
C827 C 0.32467 0.28011 0.81173 0.0
H828 H 0.36224 0.25137 0.81221 0.0
C829 C 0.3748 0.27931 0.6665 0.0
C830 C 0.37993 0.26365 0.65258 0.0
C831 C 0.36421 0.28118 0.70466 0.0
C832 C 0.35177 0.25943 0.81152 0.0
H833 H 0.28993 0.2907 0.95641 0.0
H834 H 0.31181 0.29394 0.89855 0.0
H835 H 0.34391 0.2517 0.87956 0.0
H836 H 0.37723 0.23769 0.66578 0.0
H837 H 0.35867 0.24097 0.73155 0.0
H838 H 0.33233 0.28748 0.74292 0.0
C839 C 0.30795 0.28176 0.90835 0.0
C840 C 0.34134 0.25966 0.8501 0.0
C841 C 0.29553 0.27989 0.94156 0.0
C842 C 0.37367 0.24992 0.67597 0.0
C843 C 0.36314 0.2518 0.71389 0.0
C844 C 0.33512 0.27986 0.77295 0.0
C845 C 0.31517 0.26798 0.88763 0.0
C846 C 0.32746 0.26966 0.85003 0.0
C847 C 0.35864 0.26743 0.72939 0.0
C848 C 0.3485 0.26916 0.77202 0.0
H849 H 0.29355 0.23825 0.94281 0.0
H850 H 0.31522 0.24152 0.88537 0.0
H851 H 0.31397 0.28786 0.81073 0.0
H852 H 0.37942 0.29012 0.64912 0.0
H853 H 0.36089 0.29337 0.71587 0.0
C854 C 0.37964 0.75071 0.40594 0.0
C855 C 0.38189 0.73865 0.44038 0.0
C856 C 0.36703 0.74938 0.37348 0.0
C857 C 0.33924 0.7199 0.3183 0.0
H858 H 0.31597 0.75923 0.28303 0.0
C859 C 0.29732 0.72373 0.15546 0.0
C860 C 0.28313 0.73324 0.15951 0.0
C861 C 0.30877 0.7235 0.19178 0.0
C862 C 0.32219 0.74809 0.29284 0.0
H863 H 0.37264 0.71576 0.46796 0.0
H864 H 0.35032 0.71359 0.41141 0.0
H865 H 0.33656 0.76051 0.34412 0.0
H866 H 0.26951 0.74945 0.20541 0.0
H867 H 0.28925 0.74876 0.26884 0.0
H868 H 0.32457 0.70744 0.26742 0.0
C869 C 0.35851 0.72394 0.40928 0.0
C870 C 0.33415 0.74886 0.32745 0.0
C871 C 0.37122 0.72523 0.44178 0.0
C872 C 0.28044 0.74219 0.2009 0.0
C873 C 0.29177 0.74183 0.23725 0.0
C874 C 0.32718 0.7191 0.28372 0.0
C875 C 0.3563 0.73603 0.37486 0.0
C876 C 0.34293 0.73484 0.34015 0.0
C877 C 0.30616 0.73267 0.23288 0.0
C878 C 0.31862 0.73323 0.27043 0.0
H879 H 0.38772 0.76114 0.40361 0.0
H880 H 0.36583 0.75874 0.34683 0.0
H881 H 0.34591 0.70892 0.32714 0.0
H882 H 0.29971 0.71671 0.12395 0.0
H883 H 0.31983 0.71646 0.18719 0.0
C884 C 0.59668 0.93972 0.48102 0.0
C885 C 0.60263 0.94449 0.43686 0.0
C886 C 0.59796 0.95014 0.51949 0.0
C887 C 0.617 0.9885 0.56249 0.0
H888 H 0.57694 0.99153 0.63445 0.0
C889 C 0.60794 0.03492 0.71415 0.0
C890 C 0.59306 0.04343 0.71271 0.0
C891 C 0.61049 0.02139 0.68512 0.0
C892 C 0.58822 0.99083 0.61471 0.0
H893 H 0.61525 0.96357 0.39864 0.0
H894 H 0.61698 0.98212 0.46566 0.0
H895 H 0.57958 0.97069 0.5744 0.0
H896 H 0.56913 0.04431 0.68008 0.0
H897 H 0.57362 0.02094 0.62946 0.0
H898 H 0.62522 0.00931 0.60152 0.0
C899 C 0.61161 0.97017 0.47077 0.0
C900 C 0.58983 0.97874 0.58066 0.0
C901 C 0.61052 0.95962 0.4323 0.0
C902 C 0.58072 0.03802 0.68221 0.0
C903 C 0.58325 0.02454 0.65337 0.0
C904 C 0.61535 0.00068 0.59657 0.0
C905 C 0.605 0.96567 0.51451 0.0
C906 C 0.60412 0.9776 0.5536 0.0
C907 C 0.59816 0.01611 0.65438 0.0
C908 C 0.60079 0.00216 0.62226 0.0
H909 H 0.59081 0.92798 0.48579 0.0
H910 H 0.5931 0.94615 0.55295 0.0
H911 H 0.62824 0.9878 0.54259 0.0
H912 H 0.61768 0.0388 0.73732 0.0
H913 H 0.62205 0.01504 0.6868 0.0
C914 C 0.07702 0.05592 0.96547 0.0
C915 C 0.07015 0.05183 0.9218 0.0
C916 C 0.07573 0.04527 0.00343 0.0
C917 C 0.05366 0.00874 0.0467 0.0
H918 H 0.09309 0.00239 0.11963 0.0
C919 C 0.0578 0.9623 0.19956 0.0
C920 C 0.07186 0.95249 0.19898 0.0
C921 C 0.05667 0.97592 0.17019 0.0
C922 C 0.08199 0.00403 0.09959 0.0
H923 H 0.05632 0.0335 0.88384 0.0
H924 H 0.0545 0.01465 0.94983 0.0
H925 H 0.09252 0.02314 0.05876 0.0
H926 H 0.0958 0.94935 0.16748 0.0
H927 H 0.09371 0.97284 0.11619 0.0
H928 H 0.04345 0.98899 0.08621 0.0
C929 C 0.06058 0.02625 0.95499 0.0
C930 C 0.08158 0.01605 0.06506 0.0
C931 C 0.06174 0.03698 0.91706 0.0
C932 C 0.0848 0.95666 0.16895 0.0
C933 C 0.08367 0.97022 0.13974 0.0
C934 C 0.0541 0.99664 0.0812 0.0
C935 C 0.06769 0.03023 0.99846 0.0
C936 C 0.06752 0.01836 0.03768 0.0
C937 C 0.06959 0.97997 0.13993 0.0
C938 C 0.06839 0.99395 0.10728 0.0
H939 H 0.08338 0.06738 0.97046 0.0
H940 H 0.0811 0.04882 0.03668 0.0
H941 H 0.04257 0.0104 0.02663 0.0
H942 H 0.04764 0.9594 0.2224 0.0
H943 H 0.04572 0.9833 0.17123 0.0
C944 C 0.07787 0.44631 0.6589 0.0
C945 C 0.09285 0.43937 0.67236 0.0
C946 C 0.07739 0.45889 0.62559 0.0
C947 C 0.10398 0.49154 0.58128 0.0
H948 H 0.07158 0.49693 0.48338 0.0
C949 C 0.11152 0.53847 0.4334 0.0
C950 C 0.09772 0.54679 0.41664 0.0
C951 C 0.10993 0.52596 0.46632 0.0
C952 C 0.08056 0.49572 0.51104 0.0
H953 H 0.11888 0.43928 0.65869 0.0
H954 H 0.118 0.46093 0.6003 0.0
H955 H 0.07057 0.47288 0.53436 0.0
H956 H 0.07142 0.54877 0.42224 0.0
H957 H 0.06865 0.52692 0.48041 0.0
H958 H 0.114 0.51426 0.55831 0.0
C959 C 0.10667 0.45698 0.61628 0.0
C960 C 0.08002 0.48191 0.54008 0.0
C961 C 0.10715 0.44447 0.64947 0.0
C962 C 0.08229 0.54262 0.43458 0.0
C963 C 0.08069 0.53001 0.46754 0.0
C964 C 0.1045 0.5053 0.55247 0.0
C965 C 0.09189 0.46475 0.6052 0.0
C966 C 0.0919 0.47955 0.575 0.0
C967 C 0.09449 0.52142 0.4834 0.0
C968 C 0.09297 0.50745 0.51651 0.0
H969 H 0.06664 0.44269 0.67601 0.0
H970 H 0.06581 0.46462 0.61774 0.0
H971 H 0.11306 0.49032 0.60869 0.0
H972 H 0.12358 0.54133 0.42025 0.0
H973 H 0.1208 0.51949 0.47726 0.0
C974 C 0.88144 0.77499 0.89501 0.0
C975 C 0.88772 0.76086 0.91634 0.0
C976 C 0.86831 0.774 0.86396 0.0
C977 C 0.84417 0.74667 0.78842 0.0
H978 H 0.8098 0.77806 0.81326 0.0
C979 C 0.78375 0.74669 0.68287 0.0
C980 C 0.77853 0.76212 0.66734 0.0
C981 C 0.79612 0.74534 0.71659 0.0
C982 C 0.81931 0.76928 0.80558 0.0
H983 H 0.88578 0.73448 0.91943 0.0
H984 H 0.86287 0.73274 0.86454 0.0
H985 H 0.83424 0.77804 0.8618 0.0
H986 H 0.78171 0.78822 0.6766 0.0
H987 H 0.8032 0.7859 0.73475 0.0
H988 H 0.82937 0.73815 0.73144 0.0
C989 C 0.8681 0.74459 0.87217 0.0
C990 C 0.83333 0.76929 0.83338 0.0
C991 C 0.88124 0.74559 0.90353 0.0
C992 C 0.78541 0.77614 0.68779 0.0
C993 C 0.79772 0.7748 0.72139 0.0
C994 C 0.83015 0.74673 0.76031 0.0
C995 C 0.86117 0.75885 0.8533 0.0
C996 C 0.84604 0.75817 0.82466 0.0
C997 C 0.80348 0.7594 0.73557 0.0
C998 C 0.81766 0.75821 0.76811 0.0
H999 H 0.88618 0.78695 0.90382 0.0
H1000 H 0.86346 0.78517 0.84915 0.0
H1001 H 0.85377 0.73798 0.78085 0.0
H1002 H 0.77871 0.73565 0.66777 0.0
H1003 H 0.8001 0.7333 0.72724 0.0
C1004 C 0.55637 0.54472 0.1597 0.0
C1005 C 0.57027 0.55104 0.18212 0.0
C1006 C 0.55778 0.53243 0.12599 0.0
C1007 C 0.58524 0.49925 0.08768 0.0
H1008 H 0.55513 0.49731 0.98282 0.0
C1009 C 0.58583 0.44939 0.93993 0.0
C1010 C 0.57042 0.44344 0.92647 0.0
C1011 C 0.58713 0.4623 0.97213 0.0
C1012 C 0.56355 0.49762 0.01212 0.0
H1013 H 0.59666 0.54976 0.18546 0.0
H1014 H 0.59917 0.52841 0.12569 0.0
H1015 H 0.55541 0.52128 0.03332 0.0
H1016 H 0.54437 0.44574 0.93849 0.0
H1017 H 0.54668 0.46808 0.99436 0.0
H1018 H 0.59338 0.4755 0.06585 0.0
C1019 C 0.58713 0.53283 0.13487 0.0
C1020 C 0.56372 0.51137 0.04111 0.0
C1021 C 0.58571 0.54517 0.16878 0.0
C1022 C 0.55643 0.45007 0.94777 0.0
C1023 C 0.55773 0.46297 0.97956 0.0
C1024 C 0.58516 0.48551 0.05831 0.0
C1025 C 0.57315 0.52614 0.11354 0.0
C1026 C 0.57431 0.51224 0.07989 0.0
C1027 C 0.57304 0.46954 0.9911 0.0
C1028 C 0.57406 0.48442 0.02083 0.0
H1029 H 0.54428 0.5489 0.16921 0.0
H1030 H 0.54672 0.52746 0.11094 0.0
H1031 H 0.59345 0.49943 0.11745 0.0
H1032 H 0.59684 0.44458 0.92412 0.0
H1033 H 0.59909 0.4671 0.98046 0.0
C1034 C 0.87067 0.21434 0.18489 0.0
C1035 C 0.87965 0.22782 0.16867 0.0
C1036 C 0.85745 0.21652 0.2151 0.0
C1037 C 0.83777 0.24477 0.298 0.0
H1038 H 0.79901 0.22003 0.26557 0.0
C1039 C 0.77836 0.24958 0.40698 0.0
C1040 C 0.77145 0.23445 0.41925 0.0
C1041 C 0.79044 0.25048 0.37228 0.0
C1042 C 0.80974 0.22697 0.27525 0.0
H1043 H 0.88229 0.25412 0.17345 0.0
H1044 H 0.85916 0.2579 0.2268 0.0
H1045 H 0.82318 0.21808 0.21618 0.0
H1046 H 0.77115 0.20859 0.40294 0.0
H1047 H 0.79208 0.21014 0.34279 0.0
H1048 H 0.82441 0.25335 0.35778 0.0
C1049 C 0.86238 0.24565 0.21587 0.0
C1050 C 0.8236 0.22583 0.247 0.0
C1051 C 0.87563 0.24348 0.18539 0.0
C1052 C 0.77621 0.22043 0.39435 0.0
C1053 C 0.7882 0.22134 0.35964 0.0
C1054 C 0.82388 0.24586 0.32646 0.0
C1055 C 0.85288 0.23222 0.22995 0.0
C1056 C 0.83789 0.23444 0.25856 0.0
C1057 C 0.79576 0.2363 0.34897 0.0
C1058 C 0.8098 0.23672 0.31588 0.0
H1059 H 0.87348 0.2021 0.17299 0.0
H1060 H 0.8506 0.20589 0.22621 0.0
H1061 H 0.8486 0.25152 0.30783 0.0
H1062 H 0.77498 0.2606 0.42562 0.0
H1063 H 0.79587 0.26222 0.36441 0.0
C1064 C 0.38192 0.25115 0.41205 0.0
C1065 C 0.38755 0.26655 0.4268 0.0
C1066 C 0.36876 0.24989 0.38082 0.0
C1067 C 0.33254 0.27311 0.34528 0.0
H1068 H 0.33044 0.24357 0.23904 0.0
C1069 C 0.28448 0.27975 0.19998 0.0
C1070 C 0.27843 0.26575 0.1774 0.0
C1071 C 0.29679 0.27852 0.23362 0.0
C1072 C 0.33071 0.25168 0.26909 0.0
H1073 H 0.38441 0.29268 0.41802 0.0
H1074 H 0.36165 0.29046 0.3636 0.0
H1075 H 0.35478 0.24397 0.28871 0.0
H1076 H 0.28009 0.23935 0.17403 0.0
H1077 H 0.30149 0.23717 0.23356 0.0
H1078 H 0.30856 0.28085 0.32606 0.0
C1079 C 0.36718 0.27936 0.37677 0.0
C1080 C 0.34469 0.25195 0.29736 0.0
C1081 C 0.38033 0.28062 0.40769 0.0
C1082 C 0.28447 0.25038 0.19084 0.0
C1083 C 0.29685 0.24914 0.22458 0.0
C1084 C 0.31856 0.27277 0.3173 0.0
C1085 C 0.36095 0.26401 0.36402 0.0
C1086 C 0.34587 0.26291 0.3352 0.0
C1087 C 0.30339 0.26324 0.24569 0.0
C1088 C 0.31757 0.26229 0.27829 0.0
H1089 H 0.38719 0.24007 0.42619 0.0
H1090 H 0.36423 0.23789 0.37156 0.0
H1091 H 0.33292 0.28142 0.37489 0.0
H1092 H 0.28014 0.29179 0.19042 0.0
H1093 H 0.30163 0.28966 0.24865 0.0
C1094 C 0.38375 0.74715 0.68435 0.0
C1095 C 0.39021 0.73215 0.66909 0.0
C1096 C 0.37067 0.74754 0.71603 0.0
C1097 C 0.33629 0.72168 0.75338 0.0
H1098 H 0.33174 0.75244 0.85604 0.0
C1099 C 0.28885 0.71357 0.90001 0.0
C1100 C 0.28134 0.72744 0.91938 0.0
C1101 C 0.30117 0.71517 0.86651 0.0
C1102 C 0.33271 0.74395 0.82702 0.0
H1103 H 0.38877 0.70588 0.67765 0.0
H1104 H 0.36626 0.70658 0.73326 0.0
H1105 H 0.35611 0.75328 0.80654 0.0
H1106 H 0.28045 0.75389 0.91735 0.0
H1107 H 0.30196 0.75668 0.85827 0.0
H1108 H 0.31302 0.71227 0.77379 0.0
C1109 C 0.37098 0.71803 0.71992 0.0
C1110 C 0.3467 0.74439 0.7988 0.0
C1111 C 0.384 0.71764 0.68835 0.0
C1112 C 0.28597 0.74296 0.90302 0.0
C1113 C 0.2984 0.74457 0.86954 0.0
C1114 C 0.32234 0.72126 0.78144 0.0
C1115 C 0.36382 0.73294 0.73298 0.0
C1116 C 0.34876 0.73307 0.76215 0.0
C1117 C 0.30634 0.73068 0.85154 0.0
C1118 C 0.32047 0.73221 0.81906 0.0
H1119 H 0.38823 0.75855 0.67003 0.0
H1120 H 0.36543 0.75923 0.72542 0.0
H1121 H 0.3373 0.71306 0.72466 0.0
H1122 H 0.28559 0.70144 0.91188 0.0
H1123 H 0.30711 0.70422 0.85379 0.0
C1124 C 0.61424 0.95754 0.17295 0.0
C1125 C 0.60052 0.94984 0.19256 0.0
C1126 C 0.61242 0.96999 0.13994 0.0
C1127 C 0.58316 0.00109 0.09899 0.0
H1128 H 0.61415 0.00531 0.99682 0.0
C1129 C 0.57976 0.05041 0.9507 0.0
C1130 C 0.59475 0.05714 0.93634 0.0
C1131 C 0.57934 0.03773 0.98375 0.0
C1132 C 0.60549 0.00439 0.02545 0.0
H1133 H 0.57409 0.94891 0.19187 0.0
H1134 H 0.57091 0.9706 0.13345 0.0
H1135 H 0.6152 0.98145 0.04752 0.0
H1136 H 0.6209 0.05664 0.94793 0.0
H1137 H 0.62012 0.03476 0.00561 0.0
H1138 H 0.57346 0.02413 0.07643 0.0
C1139 C 0.58308 0.96711 0.14422 0.0
C1140 C 0.60608 0.99069 0.05449 0.0
C1141 C 0.58491 0.95458 0.17735 0.0
C1142 C 0.60916 0.05165 0.95786 0.0
C1143 C 0.60874 0.03901 0.99067 0.0
C1144 C 0.58252 0.01481 0.06966 0.0
C1145 C 0.59683 0.97508 0.1255 0.0
C1146 C 0.59512 0.98898 0.09216 0.0
C1147 C 0.5939 0.03154 0.00285 0.0
C1148 C 0.59389 0.01674 0.0331 0.0
H1149 H 0.62645 0.95425 0.18396 0.0
H1150 H 0.62328 0.97599 0.12685 0.0
H1151 H 0.57463 0.00024 0.12793 0.0
H1152 H 0.56845 0.05434 0.93469 0.0
H1153 H 0.56772 0.03223 0.9925 0.0
C1154 C 0.08153 0.04307 0.65928 0.0
C1155 C 0.06627 0.04766 0.67752 0.0
C1156 C 0.08269 0.03048 0.62606 0.0
C1157 C 0.05808 0.00653 0.54114 0.0
H1158 H 0.09079 0.97295 0.55978 0.0
C1159 C 0.0533 0.94552 0.44512 0.0
C1160 C 0.06747 0.93973 0.42289 0.0
C1161 C 0.05418 0.9582 0.47777 0.0
C1162 C 0.08169 0.9823 0.55389 0.0
H1163 H 0.04024 0.04304 0.67403 0.0
H1164 H 0.04226 0.02125 0.6165 0.0
H1165 H 0.09063 0.9971 0.61048 0.0
H1166 H 0.0938 0.94202 0.41974 0.0
H1167 H 0.09532 0.96424 0.47702 0.0
H1168 H 0.04901 0.99177 0.48502 0.0
C1169 C 0.05334 0.02736 0.62746 0.0
C1170 C 0.08163 0.99616 0.58277 0.0
C1171 C 0.05219 0.03983 0.66067 0.0
C1172 C 0.08266 0.94618 0.43635 0.0
C1173 C 0.08354 0.95893 0.46911 0.0
C1174 C 0.05811 0.99272 0.51245 0.0
C1175 C 0.06861 0.02235 0.61022 0.0
C1176 C 0.06966 0.00832 0.57714 0.0
C1177 C 0.06923 0.96544 0.48896 0.0
C1178 C 0.06974 0.98031 0.51892 0.0
H1179 H 0.09261 0.04883 0.67169 0.0
H1180 H 0.09462 0.02703 0.61307 0.0
H1181 H 0.0489 0.01581 0.53522 0.0
H1182 H 0.04141 0.94073 0.43588 0.0
H1183 H 0.04298 0.96266 0.49334 0.0
loop_
_geom_bond_atom_site_label_1
_geom_bond_atom_site_label_2
_geom_bond_distance
_geom_bond_site_symmetry_2
_ccdc_geom_bond_type
O0 Cd1 2.223 . S
O0 C8 1.315 . S
Cd1 O0 2.223 . S
Cd1 O4 2.297 . S
Cd1 O5 2.439 . S
Cd1 O11 2.240 . S
Cd2 O3 2.240 . S
Cd2 O10 2.223 . S
Cd2 O12 2.297 . S
Cd2 O13 2.439 . S
O3 Cd2 2.240 . S
O3 C8 1.279 . S
O4 Cd1 2.297 . S
O4 C6 1.247 . S
O5 Cd1 2.439 . S
O5 C6 1.208 . S
C6 O4 1.247 . S
C6 O5 1.208 . S
C7 O12 1.247 . S
C7 O13 1.208 . S
C8 O0 1.315 . S
C8 O3 1.279 . S
C9 O10 1.315 . S
C9 O11 1.279 . S
O10 Cd2 2.223 . S
O10 C9 1.315 . S
O11 Cd1 2.240 . S
O11 C9 1.279 . S
O12 Cd2 2.297 . S
O12 C7 1.247 . S
O13 Cd2 2.439 . S
O13 C7 1.208 . S
O14 Cd15 2.223 . S
O14 C22 1.315 . S
Cd15 O14 2.223 . S
Cd15 O18 2.297 . S
Cd15 O19 2.439 . S
Cd15 O25 2.240 . S
Cd16 O17 2.240 . S
Cd16 O24 2.223 . S
Cd16 O26 2.297 . S
Cd16 O27 2.439 . S
O17 Cd16 2.240 . S
O17 C22 1.279 . S
O18 Cd15 2.297 . S
O18 C20 1.247 . S
O19 Cd15 2.439 . S
O19 C20 1.208 . S
C20 O18 1.247 . S
C20 O19 1.208 . S
C21 O26 1.247 . S
C21 O27 1.208 . S
C22 O14 1.315 . S
C22 O17 1.279 . S
C23 O24 1.315 . S
C23 O25 1.279 . S
O24 Cd16 2.223 . S
O24 C23 1.315 . S
O25 Cd15 2.240 . S
O25 C23 1.279 . S
O26 Cd16 2.297 . S
O26 C21 1.247 . S
O27 Cd16 2.439 . S
O27 C21 1.208 . S
O28 Cd29 2.223 . S
O28 C36 1.315 . S
Cd29 O28 2.223 . S
Cd29 O32 2.297 . S
Cd29 O33 2.439 . S
Cd29 O39 2.240 . S
Cd30 O31 2.240 . S
Cd30 O38 2.223 . S
Cd30 O40 2.297 . S
Cd30 O41 2.439 . S
O31 Cd30 2.240 . S
O31 C36 1.279 . S
O32 Cd29 2.297 . S
O32 C34 1.247 . S
O33 Cd29 2.439 . S
O33 C34 1.208 . S
C34 O32 1.247 . S
C34 O33 1.208 . S
C35 O40 1.247 . S
C35 O41 1.208 . S
C36 O28 1.315 . S
C36 O31 1.279 . S
C37 O38 1.315 . S
C37 O39 1.279 . S
O38 Cd30 2.223 . S
O38 C37 1.315 . S
O39 Cd29 2.240 . S
O39 C37 1.279 . S
O40 Cd30 2.297 . S
O40 C35 1.247 . S
O41 Cd30 2.439 . S
O41 C35 1.208 . S
O42 Cd43 2.223 1_556 S
O42 C50 1.315 . S
Cd43 O42 2.223 1_554 S
Cd43 O46 2.297 . S
Cd43 O47 2.439 . S
Cd43 O53 2.240 . S
Cd44 O45 2.240 . S
Cd44 O52 2.223 . S
Cd44 O54 2.297 . S
Cd44 O55 2.439 1_556 S
O45 Cd44 2.240 . S
O45 C50 1.279 . S
O46 Cd43 2.297 . S
O46 C48 1.247 . S
O47 Cd43 2.439 . S
O47 C48 1.208 . S
C48 O46 1.247 . S
C48 O47 1.208 . S
C49 O54 1.255 . S
C49 O55 1.204 1_556 S
C50 O42 1.315 . S
C50 O45 1.279 . S
C51 O52 1.315 . S
C51 O53 1.279 1_556 S
O52 Cd44 2.223 . S
O52 C51 1.315 . S
O53 Cd43 2.240 . S
O53 C51 1.279 1_554 S
O54 Cd44 2.297 . S
O54 C49 1.255 . S
O55 Cd44 2.439 1_554 S
O55 C49 1.204 1_554 S
O56 Cd57 2.223 . S
O56 C64 1.315 . S
Cd57 O56 2.223 . S
Cd57 O60 2.297 . S
Cd57 O61 2.439 . S
Cd57 O67 2.240 . S
Cd58 O59 2.240 . S
Cd58 O66 2.223 . S
Cd58 O68 2.297 . S
Cd58 O69 2.439 . S
O59 Cd58 2.240 . S
O59 C64 1.279 . S
O60 Cd57 2.297 . S
O60 C62 1.247 . S
O61 Cd57 2.439 . S
O61 C62 1.208 . S
C62 O60 1.247 . S
C62 O61 1.208 . S
C63 O68 1.247 . S
C63 O69 1.208 . S
C64 O56 1.315 . S
C64 O59 1.279 . S
C65 O66 1.315 . S
C65 O67 1.279 . S
O66 Cd58 2.223 . S
O66 C65 1.315 . S
O67 Cd57 2.240 . S
O67 C65 1.279 . S
O68 Cd58 2.297 . S
O68 C63 1.247 . S
O69 Cd58 2.439 . S
O69 C63 1.208 . S
O70 Cd71 2.223 . S
O70 C78 1.315 . S
Cd71 O70 2.223 . S
Cd71 O74 2.297 . S
Cd71 O75 2.439 . S
Cd71 O81 2.240 . S
Cd72 O73 2.240 . S
Cd72 O80 2.223 . S
Cd72 O82 2.297 . S
Cd72 O83 2.439 . S
O73 Cd72 2.240 . S
O73 C78 1.279 . S
O74 Cd71 2.297 . S
O74 C76 1.247 1_554 S
O75 Cd71 2.439 . S
O75 C76 1.208 1_554 S
C76 O74 1.247 1_556 S
C76 O75 1.208 1_556 S
C77 O82 1.247 . S
C77 O83 1.208 . S
C78 O70 1.315 . S
C78 O73 1.279 . S
C79 O80 1.315 . S
C79 O81 1.279 . S
O80 Cd72 2.223 . S
O80 C79 1.315 . S
O81 Cd71 2.240 . S
O81 C79 1.279 . S
O82 Cd72 2.297 . S
O82 C77 1.247 . S
O83 Cd72 2.439 . S
O83 C77 1.208 . S
O84 Cd85 2.223 . S
O84 C92 1.315 . S
Cd85 O84 2.223 . S
Cd85 O88 2.297 . S
Cd85 O89 2.439 . S
Cd85 O95 2.240 . S
Cd86 O87 2.240 . S
Cd86 O94 2.223 . S
Cd86 O96 2.297 . S
Cd86 O97 2.439 . S
O87 Cd86 2.240 . S
O87 C92 1.279 . S
O88 Cd85 2.297 . S
O88 C90 1.247 . S
O89 Cd85 2.439 . S
O89 C90 1.208 . S
C90 O88 1.247 . S
C90 O89 1.208 . S
C91 O96 1.247 . S
C91 O97 1.208 . S
C92 O84 1.315 . S
C92 O87 1.279 . S
C93 O94 1.315 . S
C93 O95 1.279 . S
O94 Cd86 2.223 . S
O94 C93 1.315 . S
O95 Cd85 2.240 . S
O95 C93 1.279 . S
O96 Cd86 2.297 . S
O96 C91 1.247 . S
O97 Cd86 2.439 . S
O97 C91 1.208 . S
O98 Cd99 2.223 . S
O98 C106 1.315 . S
Cd99 O98 2.223 . S
Cd99 O102 2.297 . S
Cd99 O103 2.439 . S
Cd99 O109 2.240 . S
Cd100 O101 2.240 . S
Cd100 O108 2.223 . S
Cd100 O110 2.297 . S
Cd100 O111 2.439 . S
O101 Cd100 2.240 . S
O101 C106 1.279 . S
O102 Cd99 2.297 . S
O102 C104 1.247 . S
O103 Cd99 2.439 . S
O103 C104 1.208 . S
C104 O102 1.247 . S
C104 O103 1.208 . S
C105 O110 1.247 . S
C105 O111 1.208 . S
C106 O98 1.315 . S
C106 O101 1.279 . S
C107 O108 1.315 . S
C107 O109 1.279 . S
O108 Cd100 2.223 . S
O108 C107 1.315 . S
O109 Cd99 2.240 . S
O109 C107 1.279 . S
O110 Cd100 2.297 . S
O110 C105 1.247 . S
O111 Cd100 2.439 . S
O111 C105 1.208 . S
O112 Cd113 2.223 . S
O112 C120 1.315 . S
Cd113 O112 2.223 . S
Cd113 O116 2.297 . S
Cd113 O117 2.439 . S
Cd113 O123 2.240 . S
Cd114 O115 2.240 . S
Cd114 O122 2.223 . S
Cd114 O124 2.297 . S
Cd114 O125 2.439 . S
O115 Cd114 2.240 . S
O115 C120 1.279 . S
O116 Cd113 2.297 . S
O116 C118 1.247 . S
O117 Cd113 2.439 . S
O117 C118 1.208 . S
C118 O116 1.247 . S
C118 O117 1.208 . S
C119 O124 1.247 . S
C119 O125 1.208 . S
C120 O112 1.315 . S
C120 O115 1.279 . S
C121 O122 1.315 . S
C121 O123 1.279 . S
O122 Cd114 2.223 . S
O122 C121 1.315 . S
O123 Cd113 2.240 . S
O123 C121 1.279 . S
O124 Cd114 2.297 . S
O124 C119 1.247 . S
O125 Cd114 2.439 . S
O125 C119 1.208 . S
O126 Cd127 2.223 . S
O126 C134 1.315 . S
Cd127 O126 2.223 . S
Cd127 O130 2.297 . S
Cd127 O131 2.439 . S
Cd127 O137 2.240 . S
Cd128 O129 2.240 . S
Cd128 O136 2.223 . S
Cd128 O138 2.297 . S
Cd128 O139 2.439 . S
O129 Cd128 2.240 . S
O129 C134 1.279 . S
O130 Cd127 2.297 . S
O130 C132 1.247 1_554 S
O131 Cd127 2.439 . S
O131 C132 1.208 1_554 S
C132 O130 1.247 1_556 S
C132 O131 1.208 1_556 S
C133 O138 1.247 . S
C133 O139 1.208 . S
C134 O126 1.315 . S
C134 O129 1.279 . S
C135 O136 1.315 . S
C135 O137 1.279 . S
O136 Cd128 2.223 . S
O136 C135 1.315 . S
O137 Cd127 2.240 . S
O137 C135 1.279 . S
O138 Cd128 2.297 . S
O138 C133 1.247 . S
O139 Cd128 2.439 . S
O139 C133 1.208 . S
O140 Cd141 2.223 1_556 S
O140 C148 1.315 . S
Cd141 O140 2.223 1_554 S
Cd141 O144 2.297 . S
Cd141 O145 2.439 . S
Cd141 O151 2.240 . S
Cd142 O143 2.240 . S
Cd142 O150 2.223 . S
Cd142 O152 2.297 . S
Cd142 O153 2.439 1_556 S
O143 Cd142 2.240 . S
O143 C148 1.279 . S
O144 Cd141 2.297 . S
O144 C146 1.247 . S
O145 Cd141 2.439 . S
O145 C146 1.208 . S
C146 O144 1.247 . S
C146 O145 1.208 . S
C147 O152 1.255 . S
C147 O153 1.204 1_556 S
C148 O140 1.315 . S
C148 O143 1.279 . S
C149 O150 1.315 . S
C149 O151 1.279 1_556 S
O150 Cd142 2.223 . S
O150 C149 1.315 . S
O151 Cd141 2.240 . S
O151 C149 1.279 1_554 S
O152 Cd142 2.297 . S
O152 C147 1.255 . S
O153 Cd142 2.439 1_554 S
O153 C147 1.204 1_554 S
O154 Cd155 2.223 . S
O154 C162 1.315 . S
Cd155 O154 2.223 . S
Cd155 O158 2.297 . S
Cd155 O159 2.439 . S
Cd155 O165 2.240 . S
Cd156 O157 2.240 . S
Cd156 O164 2.223 . S
Cd156 O166 2.297 . S
Cd156 O167 2.439 . S
O157 Cd156 2.240 . S
O157 C162 1.279 . S
O158 Cd155 2.297 . S
O158 C160 1.247 . S
O159 Cd155 2.439 . S
O159 C160 1.208 . S
C160 O158 1.247 . S
C160 O159 1.208 . S
C161 O166 1.247 . S
C161 O167 1.208 . S
C162 O154 1.315 . S
C162 O157 1.279 . S
C163 O164 1.315 . S
C163 O165 1.279 . S
O164 Cd156 2.223 . S
O164 C163 1.315 . S
O165 Cd155 2.240 . S
O165 C163 1.279 . S
O166 Cd156 2.297 . S
O166 C161 1.247 . S
O167 Cd156 2.439 . S
O167 C161 1.208 . S
O168 Cd169 2.223 . S
O168 C176 1.315 . S
Cd169 O168 2.223 . S
Cd169 O172 2.297 . S
Cd169 O173 2.439 . S
Cd169 O179 2.240 . S
Cd170 O171 2.240 . S
Cd170 O178 2.223 . S
Cd170 O180 2.297 . S
Cd170 O181 2.439 . S
O171 Cd170 2.240 . S
O171 C176 1.279 . S
O172 Cd169 2.297 . S
O172 C174 1.247 . S
O173 Cd169 2.439 . S
O173 C174 1.208 . S
C174 O172 1.247 . S
C174 O173 1.208 . S
C175 O180 1.247 . S
C175 O181 1.208 . S
C176 O168 1.315 . S
C176 O171 1.279 . S
C177 O178 1.315 . S
C177 O179 1.279 . S
O178 Cd170 2.223 . S
O178 C177 1.315 . S
O179 Cd169 2.240 . S
O179 C177 1.279 . S
O180 Cd170 2.297 . S
O180 C175 1.247 . S
O181 Cd170 2.439 . S
O181 C175 1.208 . S
O182 Cd183 2.223 . S
O182 C190 1.315 . S
Cd183 O182 2.223 . S
Cd183 O186 2.297 . S
Cd183 O187 2.439 . S
Cd183 O193 2.240 . S
Cd184 O185 2.240 . S
Cd184 O192 2.223 . S
Cd184 O194 2.297 . S
Cd184 O195 2.439 . S
O185 Cd184 2.240 . S
O185 C190 1.279 . S
O186 Cd183 2.297 . S
O186 C188 1.247 . S
O187 Cd183 2.439 . S
O187 C188 1.208 . S
C188 O186 1.247 . S
C188 O187 1.208 . S
C189 O194 1.247 . S
C189 O195 1.208 . S
C190 O182 1.315 . S
C190 O185 1.279 . S
C191 O192 1.315 . S
C191 O193 1.279 . S
O192 Cd184 2.223 . S
O192 C191 1.315 . S
O193 Cd183 2.240 . S
O193 C191 1.279 . S
O194 Cd184 2.297 . S
O194 C189 1.247 . S
O195 Cd184 2.439 . S
O195 C189 1.208 . S
O196 Cd197 2.223 . S
O196 C204 1.315 . S
Cd197 O196 2.223 . S
Cd197 O200 2.297 . S
Cd197 O201 2.439 . S
Cd197 O207 2.240 . S
Cd198 O199 2.240 . S
Cd198 O206 2.223 . S
Cd198 O208 2.297 . S
Cd198 O209 2.439 . S
O199 Cd198 2.240 . S
O199 C204 1.279 . S
O200 Cd197 2.297 . S
O200 C202 1.247 . S
O201 Cd197 2.439 . S
O201 C202 1.208 . S
C202 O200 1.247 . S
C202 O201 1.208 . S
C203 O208 1.247 . S
C203 O209 1.208 . S
C204 O196 1.315 . S
C204 O199 1.279 . S
C205 O206 1.315 . S
C205 O207 1.279 . S
O206 Cd198 2.223 . S
O206 C205 1.315 . S
O207 Cd197 2.240 . S
O207 C205 1.279 . S
O208 Cd198 2.297 . S
O208 C203 1.247 . S
O209 Cd198 2.439 . S
O209 C203 1.208 . S
O210 Cd211 2.223 . S
O210 C218 1.315 . S
Cd211 O210 2.223 . S
Cd211 O214 2.297 . S
Cd211 O215 2.439 . S
Cd211 O221 2.240 . S
Cd212 O213 2.240 . S
Cd212 O220 2.223 . S
Cd212 O222 2.297 . S
Cd212 O223 2.439 . S
O213 Cd212 2.240 . S
O213 C218 1.279 . S
O214 Cd211 2.297 . S
O214 C216 1.247 . S
O215 Cd211 2.439 . S
O215 C216 1.208 . S
C216 O214 1.247 . S
C216 O215 1.208 . S
C217 O222 1.247 . S
C217 O223 1.208 . S
C218 O210 1.315 . S
C218 O213 1.279 . S
C219 O220 1.315 . S
C219 O221 1.279 . S
O220 Cd212 2.223 . S
O220 C219 1.315 . S
O221 Cd211 2.240 . S
O221 C219 1.279 . S
O222 Cd212 2.297 . S
O222 C217 1.247 . S
O223 Cd212 2.439 . S
O223 C217 1.208 . S
C224 C225 1.349 . S
C224 C226 1.327 . S
C224 H249 0.950 . S
C225 C224 1.349 . S
C225 C241 1.349 . S
C226 C224 1.327 . S
C226 C245 1.429 . S
C226 H250 0.950 . S
C227 C244 1.574 . S
C227 C246 1.368 . S
C227 H251 0.949 . S
H228 C232 0.949 . S
C229 C230 1.349 . S
C229 C231 1.327 . S
C229 H252 0.950 . S
C230 C229 1.349 . S
C230 C242 1.349 . S
C231 C229 1.327 . S
C231 C247 1.429 . S
C231 H253 0.950 . S
C232 H228 0.949 . S
C232 C240 1.574 . S
C232 C248 1.368 . S
H233 C241 0.950 . S
H234 C239 0.950 . S
H235 C240 0.949 . S
H236 C242 0.950 . S
H237 C243 0.950 . S
H238 C244 0.949 . S
C239 H234 0.950 . S
C239 C241 1.327 . S
C239 C245 1.429 . S
C240 C232 1.574 . S
C240 H235 0.949 . S
C240 C246 1.368 . S
C241 C225 1.349 . S
C241 H233 0.950 . S
C241 C239 1.327 . S
C242 C230 1.349 . S
C242 H236 0.950 . S
C242 C243 1.327 . S
C243 H237 0.950 . S
C243 C242 1.327 . S
C243 C247 1.429 . S
C244 C227 1.574 . S
C244 H238 0.949 . S
C244 C248 1.368 . S
C245 C226 1.429 . S
C245 C239 1.429 . S
C245 C246 1.523 . S
C246 C227 1.368 . S
C246 C240 1.368 . S
C246 C245 1.523 . S
C247 C231 1.429 . S
C247 C243 1.429 . S
C247 C248 1.523 . S
C248 C232 1.368 . S
C248 C244 1.368 . S
C248 C247 1.523 . S
H249 C224 0.950 . S
H250 C226 0.950 . S
H251 C227 0.949 . S
H252 C229 0.950 . S
H253 C231 0.950 . S
C254 C255 1.349 . S
C254 C256 1.327 . S
C254 H279 0.950 . S
C255 C254 1.349 . S
C255 C271 1.349 . S
C256 C254 1.327 . S
C256 C275 1.429 . S
C256 H280 0.950 . S
C257 C274 1.574 . S
C257 C276 1.368 . S
C257 H281 0.949 . S
H258 C262 0.949 . S
C259 C260 1.349 . S
C259 C261 1.327 . S
C259 H282 0.950 . S
C260 C259 1.349 . S
C260 C272 1.349 . S
C261 C259 1.327 . S
C261 C277 1.429 . S
C261 H283 0.950 . S
C262 H258 0.949 . S
C262 C270 1.574 . S
C262 C278 1.368 . S
H263 C271 0.950 . S
H264 C269 0.950 . S
H265 C270 0.949 . S
H266 C272 0.950 . S
H267 C273 0.950 . S
H268 C274 0.949 . S
C269 H264 0.950 . S
C269 C271 1.327 . S
C269 C275 1.429 . S
C270 C262 1.574 . S
C270 H265 0.949 . S
C270 C276 1.368 . S
C271 C255 1.349 . S
C271 H263 0.950 . S
C271 C269 1.327 . S
C272 C260 1.349 . S
C272 H266 0.950 . S
C272 C273 1.327 . S
C273 H267 0.950 . S
C273 C272 1.327 . S
C273 C277 1.429 . S
C274 C257 1.574 . S
C274 H268 0.949 . S
C274 C278 1.368 . S
C275 C256 1.429 . S
C275 C269 1.429 . S
C275 C276 1.523 . S
C276 C257 1.368 . S
C276 C270 1.368 . S
C276 C275 1.523 . S
C277 C261 1.429 . S
C277 C273 1.429 . S
C277 C278 1.523 . S
C278 C262 1.368 . S
C278 C274 1.368 . S
C278 C277 1.523 . S
H279 C254 0.950 . S
H280 C256 0.950 . S
H281 C257 0.949 . S
H282 C259 0.950 . S
H283 C261 0.950 . S
C284 C285 1.349 . S
C284 C286 1.327 . S
C284 H309 0.950 . S
C285 C284 1.349 . S
C285 C301 1.349 . S
C286 C284 1.327 . S
C286 C305 1.429 . S
C286 H310 0.950 . S
C287 C304 1.574 . S
C287 C306 1.368 . S
C287 H311 0.949 . S
H288 C292 0.949 . S
C289 C290 1.349 . S
C289 C291 1.327 . S
C289 H312 0.950 . S
C290 C289 1.349 . S
C290 C302 1.349 . S
C291 C289 1.327 . S
C291 C307 1.429 . S
C291 H313 0.950 . S
C292 H288 0.949 . S
C292 C300 1.574 . S
C292 C308 1.368 . S
H293 C301 0.950 . S
H294 C299 0.950 . S
H295 C300 0.949 . S
H296 C302 0.950 . S
H297 C303 0.950 . S
H298 C304 0.949 . S
C299 H294 0.950 . S
C299 C301 1.327 . S
C299 C305 1.429 . S
C300 C292 1.574 . S
C300 H295 0.949 . S
C300 C306 1.368 . S
C301 C285 1.349 . S
C301 H293 0.950 . S
C301 C299 1.327 . S
C302 C290 1.349 . S
C302 H296 0.950 . S
C302 C303 1.327 . S
C303 H297 0.950 . S
C303 C302 1.327 . S
C303 C307 1.429 . S
C304 C287 1.574 . S
C304 H298 0.949 . S
C304 C308 1.368 . S
C305 C286 1.429 . S
C305 C299 1.429 . S
C305 C306 1.523 . S
C306 C287 1.368 . S
C306 C300 1.368 . S
C306 C305 1.523 . S
C307 C291 1.429 . S
C307 C303 1.429 . S
C307 C308 1.523 . S
C308 C292 1.368 . S
C308 C304 1.368 . S
C308 C307 1.523 . S
H309 C284 0.950 . S
H310 C286 0.950 . S
H311 C287 0.949 . S
H312 C289 0.950 . S
H313 C291 0.950 . S
C314 C315 1.349 . S
C314 C316 1.327 . S
C314 H339 0.950 . S
C315 C314 1.349 . S
C315 C331 1.349 . S
C316 C314 1.327 . S
C316 C335 1.429 . S
C316 H340 0.950 . S
C317 C334 1.574 1_655 S
C317 C336 1.368 . S
C317 H341 0.949 . S
H318 C322 0.949 . S
C319 C320 1.349 . S
C319 C321 1.327 . S
C319 H342 0.950 . S
C320 C319 1.349 . S
C320 C332 1.349 . S
C321 C319 1.327 . S
C321 C337 1.429 . S
C321 H343 0.950 . S
C322 H318 0.949 . S
C322 C330 1.574 . S
C322 C338 1.368 1_655 S
H323 C331 0.950 . S
H324 C329 0.950 . S
H325 C330 0.949 . S
H326 C332 0.950 . S
H327 C333 0.982 . S
H328 C334 0.949 . S
C329 H324 0.950 . S
C329 C331 1.327 . S
C329 C335 1.429 . S
C330 C322 1.574 . S
C330 H325 0.949 . S
C330 C336 1.368 . S
C331 C315 1.349 . S
C331 H323 0.950 . S
C331 C329 1.327 . S
C332 C320 1.349 . S
C332 H326 0.950 . S
C332 C333 1.327 . S
C333 H327 0.982 . S
C333 C332 1.327 . S
C333 C337 1.429 . S
C334 C317 1.574 1_455 S
C334 H328 0.949 . S
C334 C338 1.368 . S
C335 C316 1.429 . S
C335 C329 1.429 . S
C335 C336 1.523 . S
C336 C317 1.368 . S
C336 C330 1.368 . S
C336 C335 1.523 . S
C337 C321 1.429 . S
C337 C333 1.429 . S
C337 C338 1.523 . S
C338 C322 1.368 1_455 S
C338 C334 1.368 . S
C338 C337 1.523 . S
H339 C314 0.950 . S
H340 C316 0.950 . S
H341 C317 0.949 . S
H342 C319 0.950 . S
H343 C321 0.950 . S
C344 C345 1.349 . S
C344 C346 1.327 . S
C344 H369 0.950 . S
C345 C344 1.349 . S
C345 C361 1.349 . S
C346 C344 1.327 . S
C346 C365 1.429 . S
C346 H370 0.950 . S
C347 C364 1.574 . S
C347 C366 1.368 . S
C347 H371 0.949 . S
H348 C352 0.949 . S
C349 C350 1.349 . S
C349 C351 1.327 . S
C349 H372 0.950 . S
C350 C349 1.349 . S
C350 C362 1.349 . S
C351 C349 1.327 . S
C351 C367 1.429 . S
C351 H373 0.950 . S
C352 H348 0.949 . S
C352 C360 1.574 . S
C352 C368 1.368 . S
H353 C361 0.950 . S
H354 C359 0.950 . S
H355 C360 0.949 . S
H356 C362 0.950 1_554 S
H357 C363 0.950 1_554 S
H358 C364 0.949 . S
C359 H354 0.950 . S
C359 C361 1.327 . S
C359 C365 1.429 . S
C360 C352 1.574 . S
C360 H355 0.949 . S
C360 C366 1.368 . S
C361 C345 1.349 . S
C361 H353 0.950 . S
C361 C359 1.327 . S
C362 C350 1.349 . S
C362 H356 0.950 1_556 S
C362 C363 1.327 . S
C363 H357 0.950 1_556 S
C363 C362 1.327 . S
C363 C367 1.429 . S
C364 C347 1.574 . S
C364 H358 0.949 . S
C364 C368 1.368 . S
C365 C346 1.429 . S
C365 C359 1.429 . S
C365 C366 1.523 . S
C366 C347 1.368 . S
C366 C360 1.368 . S
C366 C365 1.523 . S
C367 C351 1.429 . S
C367 C363 1.429 . S
C367 C368 1.523 . S
C368 C352 1.368 . S
C368 C364 1.368 . S
C368 C367 1.523 . S
H369 C344 0.950 . S
H370 C346 0.950 . S
H371 C347 0.949 . S
H372 C349 0.950 . S
H373 C351 0.950 . S
C374 C375 1.349 . S
C374 C376 1.327 . S
C374 H399 0.950 . S
C375 C374 1.349 . S
C375 C391 1.349 . S
C376 C374 1.327 . S
C376 C395 1.429 . S
C376 H400 0.950 . S
C377 C394 1.574 . S
C377 C396 1.368 1_655 S
C377 H401 0.949 . S
H378 C382 0.949 . S
C379 C380 1.349 . S
C379 C381 1.327 . S
C379 H402 0.950 . S
C380 C379 1.349 . S
C380 C392 1.349 . S
C381 C379 1.327 . S
C381 C397 1.429 . S
C381 H403 0.950 . S
C382 H378 0.949 . S
C382 C390 1.574 1_655 S
C382 C398 1.368 . S
H383 C391 0.950 . S
H384 C389 0.950 . S
H385 C390 0.949 . S
H386 C392 0.950 . S
H387 C393 0.950 . S
H388 C394 0.949 . S
C389 H384 0.950 . S
C389 C391 1.327 . S
C389 C395 1.429 . S
C390 C382 1.574 1_455 S
C390 H385 0.949 . S
C390 C396 1.368 . S
C391 C375 1.349 . S
C391 H383 0.950 . S
C391 C389 1.327 . S
C392 C380 1.349 . S
C392 H386 0.950 . S
C392 C393 1.327 . S
C393 H387 0.950 . S
C393 C392 1.327 . S
C393 C397 1.429 . S
C394 C377 1.574 . S
C394 H388 0.949 . S
C394 C398 1.368 . S
C395 C376 1.429 . S
C395 C389 1.429 . S
C395 C396 1.523 . S
C396 C377 1.368 1_455 S
C396 C390 1.368 . S
C396 C395 1.523 . S
C397 C381 1.429 . S
C397 C393 1.429 . S
C397 C398 1.523 . S
C398 C382 1.368 . S
C398 C394 1.368 . S
C398 C397 1.523 . S
H399 C374 0.950 . S
H400 C376 0.950 . S
H401 C377 0.949 . S
H402 C379 0.950 . S
H403 C381 0.950 . S
C404 C405 1.349 . S
C404 C406 1.327 . S
C404 H429 0.950 . S
C405 C404 1.349 . S
C405 C421 1.349 . S
C406 C404 1.327 . S
C406 C425 1.429 . S
C406 H430 0.950 . S
C407 C424 1.574 . S
C407 C426 1.368 . S
C407 H431 0.949 . S
H408 C412 0.949 . S
C409 C410 1.349 . S
C409 C411 1.327 . S
C409 H432 0.950 . S
C410 C409 1.349 . S
C410 C422 1.349 . S
C411 C409 1.327 . S
C411 C427 1.429 . S
C411 H433 0.950 . S
C412 H408 0.949 . S
C412 C420 1.574 . S
C412 C428 1.368 . S
H413 C421 0.950 . S
H414 C419 0.950 . S
H415 C420 0.949 . S
H416 C422 0.950 . S
H417 C423 0.950 . S
H418 C424 0.949 . S
C419 H414 0.950 . S
C419 C421 1.327 . S
C419 C425 1.429 . S
C420 C412 1.574 . S
C420 H415 0.949 . S
C420 C426 1.368 . S
C421 C405 1.349 . S
C421 H413 0.950 . S
C421 C419 1.327 . S
C422 C410 1.349 . S
C422 H416 0.950 . S
C422 C423 1.327 . S
C423 H417 0.950 . S
C423 C422 1.327 . S
C423 C427 1.429 . S
C424 C407 1.574 . S
C424 H418 0.949 . S
C424 C428 1.368 . S
C425 C406 1.429 . S
C425 C419 1.429 . S
C425 C426 1.523 . S
C426 C407 1.368 . S
C426 C420 1.368 . S
C426 C425 1.523 . S
C427 C411 1.429 . S
C427 C423 1.429 . S
C427 C428 1.523 . S
C428 C412 1.368 . S
C428 C424 1.368 . S
C428 C427 1.523 . S
H429 C404 0.950 . S
H430 C406 0.950 . S
H431 C407 0.949 . S
H432 C409 0.950 . S
H433 C411 0.950 . S
C434 C435 1.349 . S
C434 C436 1.327 . S
C434 H459 0.950 . S
C435 C434 1.349 . S
C435 C451 1.349 . S
C436 C434 1.327 . S
C436 C455 1.429 . S
C436 H460 0.950 . S
C437 C454 1.574 . S
C437 C456 1.368 . S
C437 H461 0.949 . S
H438 C442 0.949 . S
C439 C440 1.349 . S
C439 C441 1.327 . S
C439 H462 0.950 . S
C440 C439 1.349 . S
C440 C452 1.349 . S
C441 C439 1.327 . S
C441 C457 1.429 . S
C441 H463 0.950 . S
C442 H438 0.949 . S
C442 C450 1.574 . S
C442 C458 1.368 . S
H443 C451 0.950 . S
H444 C449 0.950 . S
H445 C450 0.949 . S
H446 C452 0.950 . S
H447 C453 0.950 . S
H448 C454 0.949 . S
C449 H444 0.950 . S
C449 C451 1.327 . S
C449 C455 1.429 . S
C450 C442 1.574 . S
C450 H445 0.949 . S
C450 C456 1.368 . S
C451 C435 1.349 . S
C451 H443 0.950 . S
C451 C449 1.327 . S
C452 C440 1.349 . S
C452 H446 0.950 . S
C452 C453 1.327 . S
C453 H447 0.950 . S
C453 C452 1.327 . S
C453 C457 1.429 . S
C454 C437 1.574 . S
C454 H448 0.949 . S
C454 C458 1.368 . S
C455 C436 1.429 . S
C455 C449 1.429 . S
C455 C456 1.523 . S
C456 C437 1.368 . S
C456 C450 1.368 . S
C456 C455 1.523 . S
C457 C441 1.429 . S
C457 C453 1.429 . S
C457 C458 1.523 . S
C458 C442 1.368 . S
C458 C454 1.368 . S
C458 C457 1.523 . S
H459 C434 0.950 . S
H460 C436 0.950 . S
H461 C437 0.949 . S
H462 C439 0.950 . S
H463 C441 0.950 . S
C464 C465 1.349 . S
C464 C466 1.327 . S
C464 H489 0.950 . S
C465 C464 1.349 . S
C465 C481 1.349 . S
C466 C464 1.327 . S
C466 C485 1.429 . S
C466 H490 0.950 . S
C467 C484 1.574 . S
C467 C486 1.368 . S
C467 H491 0.949 . S
H468 C472 0.949 . S
C469 C470 1.349 . S
C469 C471 1.327 . S
C469 H492 0.950 . S
C470 C469 1.349 . S
C470 C482 1.349 1_556 S
C471 C469 1.327 . S
C471 C487 1.429 . S
C471 H493 0.950 . S
C472 H468 0.949 . S
C472 C480 1.574 1_655 S
C472 C488 1.368 . S
H473 C481 0.950 . S
H474 C479 0.950 . S
H475 C480 0.949 . S
H476 C482 0.950 . S
H477 C483 0.950 1_554 S
H478 C484 0.949 . S
C479 H474 0.950 . S
C479 C481 1.327 . S
C479 C485 1.429 . S
C480 C472 1.574 1_455 S
C480 H475 0.949 . S
C480 C486 1.368 . S
C481 C465 1.349 . S
C481 H473 0.950 . S
C481 C479 1.327 . S
C482 C470 1.349 1_554 S
C482 H476 0.950 . S
C482 C483 1.327 1_554 S
C483 H477 0.950 1_556 S
C483 C482 1.327 1_556 S
C483 C487 1.429 . S
C484 C467 1.574 . S
C484 H478 0.949 . S
C484 C488 1.368 1_455 S
C485 C466 1.429 . S
C485 C479 1.429 . S
C485 C486 1.523 . S
C486 C467 1.368 . S
C486 C480 1.368 . S
C486 C485 1.523 . S
C487 C471 1.429 . S
C487 C483 1.429 . S
C487 C488 1.523 . S
C488 C472 1.368 . S
C488 C484 1.368 1_655 S
C488 C487 1.523 . S
H489 C464 0.950 . S
H490 C466 0.950 . S
H491 C467 0.949 . S
H492 C469 0.950 . S
H493 C471 0.950 . S
C494 C495 1.349 . S
C494 C496 1.327 . S
C494 H519 0.950 . S
C495 C494 1.349 . S
C495 C511 1.349 . S
C496 C494 1.327 . S
C496 C515 1.429 . S
C496 H520 0.950 . S
C497 C514 1.574 . S
C497 C516 1.368 . S
C497 H521 0.949 . S
H498 C502 0.949 . S
C499 C500 1.349 . S
C499 C501 1.327 . S
C499 H522 0.950 . S
C500 C499 1.349 . S
C500 C512 1.349 . S
C501 C499 1.327 . S
C501 C517 1.429 . S
C501 H523 0.950 . S
C502 H498 0.949 . S
C502 C510 1.574 . S
C502 C518 1.368 . S
H503 C511 0.950 . S
H504 C509 0.950 . S
H505 C510 0.949 . S
H506 C512 0.950 . S
H507 C513 0.950 . S
H508 C514 0.949 . S
C509 H504 0.950 . S
C509 C511 1.327 . S
C509 C515 1.429 . S
C510 C502 1.574 . S
C510 H505 0.949 . S
C510 C516 1.368 . S
C511 C495 1.349 . S
C511 H503 0.950 . S
C511 C509 1.327 . S
C512 C500 1.349 . S
C512 H506 0.950 . S
C512 C513 1.327 . S
C513 H507 0.950 . S
C513 C512 1.327 . S
C513 C517 1.429 . S
C514 C497 1.574 . S
C514 H508 0.949 . S
C514 C518 1.368 . S
C515 C496 1.429 . S
C515 C509 1.429 . S
C515 C516 1.523 . S
C516 C497 1.368 . S
C516 C510 1.368 . S
C516 C515 1.523 . S
C517 C501 1.429 . S
C517 C513 1.429 . S
C517 C518 1.523 . S
C518 C502 1.368 . S
C518 C514 1.368 . S
C518 C517 1.523 . S
H519 C494 0.950 . S
H520 C496 0.950 . S
H521 C497 0.949 . S
H522 C499 0.950 . S
H523 C501 0.950 . S
C524 C525 1.349 . S
C524 C526 1.327 . S
C524 H549 0.950 . S
C525 C524 1.349 . S
C525 C541 1.349 . S
C526 C524 1.327 . S
C526 C545 1.429 . S
C526 H550 0.950 . S
C527 C544 1.574 . S
C527 C546 1.368 . S
C527 H551 0.949 . S
H528 C532 0.949 . S
C529 C530 1.349 . S
C529 C531 1.327 . S
C529 H552 0.950 . S
C530 C529 1.349 . S
C530 C542 1.349 . S
C531 C529 1.327 . S
C531 C547 1.429 . S
C531 H553 0.950 . S
C532 H528 0.949 . S
C532 C540 1.574 . S
C532 C548 1.368 . S
H533 C541 0.950 . S
H534 C539 0.950 . S
H535 C540 0.949 . S
H536 C542 0.950 . S
H537 C543 0.950 . S
H538 C544 0.949 . S
C539 H534 0.950 . S
C539 C541 1.327 . S
C539 C545 1.429 . S
C540 C532 1.574 . S
C540 H535 0.949 . S
C540 C546 1.368 . S
C541 C525 1.349 . S
C541 H533 0.950 . S
C541 C539 1.327 . S
C542 C530 1.349 . S
C542 H536 0.950 . S
C542 C543 1.327 . S
C543 H537 0.950 . S
C543 C542 1.327 . S
C543 C547 1.429 . S
C544 C527 1.574 . S
C544 H538 0.949 . S
C544 C548 1.368 . S
C545 C526 1.429 . S
C545 C539 1.429 . S
C545 C546 1.523 . S
C546 C527 1.368 . S
C546 C540 1.368 . S
C546 C545 1.523 . S
C547 C531 1.429 . S
C547 C543 1.429 . S
C547 C548 1.523 . S
C548 C532 1.368 . S
C548 C544 1.368 . S
C548 C547 1.523 . S
H549 C524 0.950 . S
H550 C526 0.950 . S
H551 C527 0.949 . S
H552 C529 0.950 . S
H553 C531 0.950 . S
C554 C555 1.349 . S
C554 C556 1.327 . S
C554 H579 0.950 . S
C555 C554 1.349 . S
C555 C571 1.349 . S
C556 C554 1.327 . S
C556 C575 1.429 . S
C556 H580 0.950 . S
C557 C574 1.574 . S
C557 C576 1.368 . S
C557 H581 0.949 . S
H558 C562 0.949 . S
C559 C560 1.349 . S
C559 C561 1.327 . S
C559 H582 0.950 . S
C560 C559 1.349 . S
C560 C572 1.349 . S
C561 C559 1.327 . S
C561 C577 1.429 . S
C561 H583 0.950 . S
C562 H558 0.949 . S
C562 C570 1.574 . S
C562 C578 1.368 . S
H563 C571 0.950 . S
H564 C569 0.950 . S
H565 C570 0.949 . S
H566 C572 0.950 . S
H567 C573 0.950 . S
H568 C574 0.949 . S
C569 H564 0.950 . S
C569 C571 1.327 . S
C569 C575 1.429 . S
C570 C562 1.574 . S
C570 H565 0.949 . S
C570 C576 1.368 . S
C571 C555 1.349 . S
C571 H563 0.950 . S
C571 C569 1.327 . S
C572 C560 1.349 . S
C572 H566 0.950 . S
C572 C573 1.327 . S
C573 H567 0.950 . S
C573 C572 1.327 . S
C573 C577 1.429 . S
C574 C557 1.574 . S
C574 H568 0.949 . S
C574 C578 1.368 . S
C575 C556 1.429 . S
C575 C569 1.429 . S
C575 C576 1.523 . S
C576 C557 1.368 . S
C576 C570 1.368 . S
C576 C575 1.523 . S
C577 C561 1.429 . S
C577 C573 1.429 . S
C577 C578 1.523 . S
C578 C562 1.368 . S
C578 C574 1.368 . S
C578 C577 1.523 . S
H579 C554 0.950 . S
H580 C556 0.950 . S
H581 C557 0.949 . S
H582 C559 0.950 . S
H583 C561 0.950 . S
C584 C585 1.349 . S
C584 C586 1.327 . S
C584 H609 0.950 . S
C585 C584 1.349 . S
C585 C601 1.349 . S
C586 C584 1.327 . S
C586 C605 1.429 . S
C586 H610 0.950 . S
C587 C604 1.574 . S
C587 C606 1.368 . S
C587 H611 0.949 . S
H588 C592 0.949 . S
C589 C590 1.349 . S
C589 C591 1.327 . S
C589 H612 0.950 . S
C590 C589 1.349 . S
C590 C602 1.349 . S
C591 C589 1.327 . S
C591 C607 1.429 . S
C591 H613 0.950 1_655 S
C592 H588 0.949 . S
C592 C600 1.574 1_655 S
C592 C608 1.368 . S
H593 C601 0.950 . S
H594 C599 0.950 . S
H595 C600 0.959 . S
H596 C602 0.950 . S
H597 C603 0.950 . S
H598 C604 0.949 . S
C599 H594 0.950 . S
C599 C601 1.327 . S
C599 C605 1.429 . S
C600 C592 1.574 1_455 S
C600 H595 0.959 . S
C600 C606 1.368 . S
C601 C585 1.349 . S
C601 H593 0.950 . S
C601 C599 1.327 . S
C602 C590 1.349 . S
C602 H596 0.950 . S
C602 C603 1.327 . S
C603 H597 0.950 . S
C603 C602 1.327 . S
C603 C607 1.429 . S
C604 C587 1.574 . S
C604 H598 0.949 . S
C604 C608 1.368 1_455 S
C605 C586 1.429 . S
C605 C599 1.429 . S
C605 C606 1.523 . S
C606 C587 1.368 . S
C606 C600 1.368 . S
C606 C605 1.523 . S
C607 C591 1.429 . S
C607 C603 1.429 . S
C607 C608 1.523 . S
C608 C592 1.368 . S
C608 C604 1.368 1_655 S
C608 C607 1.523 . S
H609 C584 0.950 . S
H610 C586 0.950 . S
H611 C587 0.949 . S
H612 C589 0.950 . S
H613 C591 0.950 1_455 S
C614 C615 1.349 . S
C614 C616 1.327 . S
C614 H639 0.950 . S
C615 C614 1.349 . S
C615 C631 1.349 . S
C616 C614 1.327 . S
C616 C635 1.429 . S
C616 H640 0.950 . S
C617 C634 1.574 . S
C617 C636 1.368 . S
C617 H641 0.949 . S
H618 C622 0.949 . S
C619 C620 1.349 . S
C619 C621 1.327 . S
C619 H642 0.950 1_556 S
C620 C619 1.349 . S
C620 C632 1.349 . S
C621 C619 1.327 . S
C621 C637 1.429 . S
C621 H643 0.950 . S
C622 H618 0.949 . S
C622 C630 1.574 . S
C622 C638 1.368 . S
H623 C631 0.950 . S
H624 C629 0.950 . S
H625 C630 0.949 . S
H626 C632 0.950 . S
H627 C633 0.950 . S
H628 C634 0.949 . S
C629 H624 0.950 . S
C629 C631 1.327 . S
C629 C635 1.429 . S
C630 C622 1.574 . S
C630 H625 0.949 . S
C630 C636 1.368 . S
C631 C615 1.349 . S
C631 H623 0.950 . S
C631 C629 1.327 . S
C632 C620 1.349 . S
C632 H626 0.950 . S
C632 C633 1.327 . S
C633 H627 0.950 . S
C633 C632 1.327 . S
C633 C637 1.429 . S
C634 C617 1.574 . S
C634 H628 0.949 . S
C634 C638 1.368 . S
C635 C616 1.429 . S
C635 C629 1.429 . S
C635 C636 1.523 . S
C636 C617 1.368 . S
C636 C630 1.368 . S
C636 C635 1.523 . S
C637 C621 1.429 . S
C637 C633 1.429 . S
C637 C638 1.523 . S
C638 C622 1.368 . S
C638 C634 1.368 . S
C638 C637 1.523 . S
H639 C614 0.950 . S
H640 C616 0.950 . S
H641 C617 0.949 . S
H642 C619 0.950 1_554 S
H643 C621 0.950 . S
C644 C645 1.349 . S
C644 C646 1.327 . S
C644 H669 0.950 . S
C645 C644 1.349 . S
C645 C661 1.349 . S
C646 C644 1.327 . S
C646 C665 1.429 . S
C646 H670 0.950 . S
C647 C664 1.574 . S
C647 C666 1.368 . S
C647 H671 0.949 . S
H648 C652 0.949 . S
C649 C650 1.349 . S
C649 C651 1.327 . S
C649 H672 0.950 . S
C650 C649 1.349 . S
C650 C662 1.349 . S
C651 C649 1.327 . S
C651 C667 1.429 . S
C651 H673 0.950 . S
C652 H648 0.949 . S
C652 C660 1.574 . S
C652 C668 1.368 . S
H653 C661 0.950 . S
H654 C659 0.950 . S
H655 C660 0.949 . S
H656 C662 0.950 . S
H657 C663 0.950 . S
H658 C664 0.949 . S
C659 H654 0.950 . S
C659 C661 1.327 . S
C659 C665 1.429 . S
C660 C652 1.574 . S
C660 H655 0.949 . S
C660 C666 1.368 . S
C661 C645 1.349 . S
C661 H653 0.950 . S
C661 C659 1.327 . S
C662 C650 1.349 . S
C662 H656 0.950 . S
C662 C663 1.327 . S
C663 H657 0.950 . S
C663 C662 1.327 . S
C663 C667 1.429 . S
C664 C647 1.574 . S
C664 H658 0.949 . S
C664 C668 1.368 . S
C665 C646 1.429 . S
C665 C659 1.429 . S
C665 C666 1.523 . S
C666 C647 1.368 . S
C666 C660 1.368 . S
C666 C665 1.523 . S
C667 C651 1.429 . S
C667 C663 1.429 . S
C667 C668 1.523 . S
C668 C652 1.368 . S
C668 C664 1.368 . S
C668 C667 1.523 . S
H669 C644 0.950 . S
H670 C646 0.950 . S
H671 C647 0.949 . S
H672 C649 0.950 . S
H673 C651 0.950 . S
C674 C675 1.349 . S
C674 C676 1.327 . S
C674 H699 0.950 . S
C675 C674 1.349 . S
C675 C691 1.349 . S
C676 C674 1.327 . S
C676 C695 1.429 . S
C676 H700 0.950 . S
C677 C694 1.574 . S
C677 C696 1.368 . S
C677 H701 0.949 . S
H678 C682 0.949 . S
C679 C680 1.349 . S
C679 C681 1.327 . S
C679 H702 0.950 . S
C680 C679 1.349 . S
C680 C692 1.349 . S
C681 C679 1.327 . S
C681 C697 1.429 . S
C681 H703 0.950 . S
C682 H678 0.949 . S
C682 C690 1.574 . S
C682 C698 1.368 . S
H683 C691 0.950 . S
H684 C689 0.950 . S
H685 C690 0.949 . S
H686 C692 0.950 . S
H687 C693 0.950 . S
H688 C694 0.949 . S
C689 H684 0.950 . S
C689 C691 1.327 . S
C689 C695 1.429 . S
C690 C682 1.574 . S
C690 H685 0.949 . S
C690 C696 1.368 . S
C691 C675 1.349 . S
C691 H683 0.950 . S
C691 C689 1.327 . S
C692 C680 1.349 . S
C692 H686 0.950 . S
C692 C693 1.327 . S
C693 H687 0.950 . S
C693 C692 1.327 . S
C693 C697 1.429 . S
C694 C677 1.574 . S
C694 H688 0.949 . S
C694 C698 1.368 . S
C695 C676 1.429 . S
C695 C689 1.429 . S
C695 C696 1.523 . S
C696 C677 1.368 . S
C696 C690 1.368 . S
C696 C695 1.523 . S
C697 C681 1.429 . S
C697 C693 1.429 . S
C697 C698 1.523 . S
C698 C682 1.368 . S
C698 C694 1.368 . S
C698 C697 1.523 . S
H699 C674 0.950 . S
H700 C676 0.950 . S
H701 C677 0.949 . S
H702 C679 0.950 . S
H703 C681 0.950 . S
C704 C705 1.349 . S
C704 C706 1.327 . S
C704 H729 0.950 . S
C705 C704 1.349 . S
C705 C721 1.349 . S
C706 C704 1.327 . S
C706 C725 1.429 . S
C706 H730 0.950 . S
C707 C724 1.574 . S
C707 C726 1.368 . S
C707 H731 0.949 . S
H708 C712 0.949 . S
C709 C710 1.349 . S
C709 C711 1.327 . S
C709 H732 0.950 . S
C710 C709 1.349 . S
C710 C722 1.349 . S
C711 C709 1.327 . S
C711 C727 1.429 . S
C711 H733 0.950 . S
C712 H708 0.949 . S
C712 C720 1.574 . S
C712 C728 1.368 . S
H713 C721 0.950 . S
H714 C719 0.950 . S
H715 C720 0.949 . S
H716 C722 0.950 . S
H717 C723 0.950 1_554 S
H718 C724 0.949 1_556 S
C719 H714 0.950 . S
C719 C721 1.327 . S
C719 C725 1.429 . S
C720 C712 1.574 . S
C720 H715 0.949 . S
C720 C726 1.368 . S
C721 C705 1.349 . S
C721 H713 0.950 . S
C721 C719 1.327 . S
C722 C710 1.349 . S
C722 H716 0.950 . S
C722 C723 1.327 . S
C723 H717 0.950 1_556 S
C723 C722 1.327 . S
C723 C727 1.429 . S
C724 C707 1.574 . S
C724 H718 0.949 1_554 S
C724 C728 1.368 . S
C725 C706 1.429 . S
C725 C719 1.429 . S
C725 C726 1.523 . S
C726 C707 1.368 . S
C726 C720 1.368 . S
C726 C725 1.523 . S
C727 C711 1.429 . S
C727 C723 1.429 . S
C727 C728 1.523 1_556 S
C728 C712 1.368 . S
C728 C724 1.368 . S
C728 C727 1.523 1_554 S
H729 C704 0.950 . S
H730 C706 0.950 . S
H731 C707 0.949 . S
H732 C709 0.950 . S
H733 C711 0.950 . S
C734 C735 1.349 . S
C734 C736 1.327 . S
C734 H759 0.950 . S
C735 C734 1.349 . S
C735 C751 1.349 . S
C736 C734 1.327 . S
C736 C755 1.429 . S
C736 H760 0.950 . S
C737 C754 1.574 . S
C737 C756 1.368 . S
C737 H761 0.949 . S
H738 C742 0.949 . S
C739 C740 1.349 . S
C739 C741 1.327 . S
C739 H762 0.950 . S
C740 C739 1.349 . S
C740 C752 1.349 . S
C741 C739 1.327 . S
C741 C757 1.429 . S
C741 H763 0.950 . S
C742 H738 0.949 . S
C742 C750 1.574 . S
C742 C758 1.368 . S
H743 C751 0.950 . S
H744 C749 0.950 . S
H745 C750 0.949 . S
H746 C752 0.950 . S
H747 C753 0.950 . S
H748 C754 0.949 . S
C749 H744 0.950 . S
C749 C751 1.327 . S
C749 C755 1.429 . S
C750 C742 1.574 . S
C750 H745 0.949 . S
C750 C756 1.368 . S
C751 C735 1.349 . S
C751 H743 0.950 . S
C751 C749 1.327 . S
C752 C740 1.349 . S
C752 H746 0.950 . S
C752 C753 1.327 . S
C753 H747 0.950 . S
C753 C752 1.327 . S
C753 C757 1.429 . S
C754 C737 1.574 . S
C754 H748 0.949 . S
C754 C758 1.368 . S
C755 C736 1.429 . S
C755 C749 1.429 . S
C755 C756 1.523 . S
C756 C737 1.368 . S
C756 C750 1.368 . S
C756 C755 1.523 . S
C757 C741 1.429 . S
C757 C753 1.429 . S
C757 C758 1.523 . S
C758 C742 1.368 . S
C758 C754 1.368 . S
C758 C757 1.523 . S
H759 C734 0.950 . S
H760 C736 0.950 . S
H761 C737 0.949 . S
H762 C739 0.950 . S
H763 C741 0.950 . S
C764 C765 1.349 . S
C764 C766 1.327 . S
C764 H789 0.950 . S
C765 C764 1.349 . S
C765 C781 1.349 . S
C766 C764 1.327 . S
C766 C785 1.429 . S
C766 H790 0.950 . S
C767 C784 1.574 . S
C767 C786 1.368 . S
C767 H791 0.949 . S
H768 C772 0.949 . S
C769 C770 1.349 . S
C769 C771 1.327 . S
C769 H792 0.950 . S
C770 C769 1.349 . S
C770 C782 1.349 . S
C771 C769 1.327 . S
C771 C787 1.429 . S
C771 H793 0.950 . S
C772 H768 0.949 . S
C772 C780 1.574 . S
C772 C788 1.368 . S
H773 C781 0.950 . S
H774 C779 0.950 . S
H775 C780 0.949 . S
H776 C782 0.950 . S
H777 C783 0.950 . S
H778 C784 0.949 . S
C779 H774 0.950 . S
C779 C781 1.327 . S
C779 C785 1.429 . S
C780 C772 1.574 . S
C780 H775 0.949 . S
C780 C786 1.368 . S
C781 C765 1.349 . S
C781 H773 0.950 . S
C781 C779 1.327 . S
C782 C770 1.349 . S
C782 H776 0.950 . S
C782 C783 1.327 . S
C783 H777 0.950 . S
C783 C782 1.327 . S
C783 C787 1.429 . S
C784 C767 1.574 . S
C784 H778 0.949 . S
C784 C788 1.368 . S
C785 C766 1.429 . S
C785 C779 1.429 . S
C785 C786 1.523 . S
C786 C767 1.368 . S
C786 C780 1.368 . S
C786 C785 1.523 . S
C787 C771 1.429 . S
C787 C783 1.429 . S
C787 C788 1.523 . S
C788 C772 1.368 . S
C788 C784 1.368 . S
C788 C787 1.523 . S
H789 C764 0.950 . S
H790 C766 0.950 . S
H791 C767 0.949 . S
H792 C769 0.950 . S
H793 C771 0.950 . S
C794 C795 1.349 . S
C794 C796 1.327 . S
C794 H819 0.950 . S
C795 C794 1.349 . S
C795 C811 1.349 . S
C796 C794 1.327 . S
C796 C815 1.429 . S
C796 H820 0.950 . S
C797 C814 1.574 . S
C797 C816 1.368 . S
C797 H821 0.949 . S
H798 C802 0.949 . S
C799 C800 1.349 . S
C799 C801 1.327 . S
C799 H822 0.950 . S
C800 C799 1.349 . S
C800 C812 1.349 . S
C801 C799 1.327 . S
C801 C817 1.429 . S
C801 H823 0.950 . S
C802 H798 0.949 . S
C802 C810 1.574 . S
C802 C818 1.368 . S
H803 C811 0.950 . S
H804 C809 0.950 . S
H805 C810 0.949 . S
H806 C812 0.950 . S
H807 C813 0.950 . S
H808 C814 0.949 . S
C809 H804 0.950 . S
C809 C811 1.327 . S
C809 C815 1.429 . S
C810 C802 1.574 . S
C810 H805 0.949 . S
C810 C816 1.368 . S
C811 C795 1.349 . S
C811 H803 0.950 . S
C811 C809 1.327 . S
C812 C800 1.349 . S
C812 H806 0.950 . S
C812 C813 1.327 . S
C813 H807 0.950 . S
C813 C812 1.327 . S
C813 C817 1.429 . S
C814 C797 1.574 . S
C814 H808 0.949 . S
C814 C818 1.368 . S
C815 C796 1.429 . S
C815 C809 1.429 . S
C815 C816 1.523 . S
C816 C797 1.368 . S
C816 C810 1.368 . S
C816 C815 1.523 . S
C817 C801 1.429 . S
C817 C813 1.429 . S
C817 C818 1.523 . S
C818 C802 1.368 . S
C818 C814 1.368 . S
C818 C817 1.523 . S
H819 C794 0.950 . S
H820 C796 0.950 . S
H821 C797 0.949 . S
H822 C799 0.950 . S
H823 C801 0.950 . S
C824 C825 1.349 . S
C824 C826 1.327 . S
C824 H849 0.950 . S
C825 C824 1.349 . S
C825 C841 1.349 . S
C826 C824 1.327 . S
C826 C845 1.429 . S
C826 H850 0.950 . S
C827 C844 1.574 . S
C827 C846 1.368 . S
C827 H851 0.949 . S
H828 C832 0.949 . S
C829 C830 1.349 . S
C829 C831 1.327 . S
C829 H852 0.950 . S
C830 C829 1.349 . S
C830 C842 1.349 . S
C831 C829 1.327 . S
C831 C847 1.429 . S
C831 H853 0.950 . S
C832 H828 0.949 . S
C832 C840 1.574 . S
C832 C848 1.368 . S
H833 C841 0.950 . S
H834 C839 0.950 . S
H835 C840 0.949 . S
H836 C842 0.950 . S
H837 C843 0.950 . S
H838 C844 0.949 . S
C839 H834 0.950 . S
C839 C841 1.327 . S
C839 C845 1.429 . S
C840 C832 1.574 . S
C840 H835 0.949 . S
C840 C846 1.368 . S
C841 C825 1.349 . S
C841 H833 0.950 . S
C841 C839 1.327 . S
C842 C830 1.349 . S
C842 H836 0.950 . S
C842 C843 1.327 . S
C843 H837 0.950 . S
C843 C842 1.327 . S
C843 C847 1.429 . S
C844 C827 1.574 . S
C844 H838 0.949 . S
C844 C848 1.368 . S
C845 C826 1.429 . S
C845 C839 1.429 . S
C845 C846 1.523 . S
C846 C827 1.368 . S
C846 C840 1.368 . S
C846 C845 1.523 . S
C847 C831 1.429 . S
C847 C843 1.429 . S
C847 C848 1.523 . S
C848 C832 1.368 . S
C848 C844 1.368 . S
C848 C847 1.523 . S
H849 C824 0.950 . S
H850 C826 0.950 . S
H851 C827 0.949 . S
H852 C829 0.950 . S
H853 C831 0.950 . S
C854 C855 1.349 . S
C854 C856 1.327 . S
C854 H879 0.950 . S
C855 C854 1.349 . S
C855 C871 1.349 . S
C856 C854 1.327 . S
C856 C875 1.429 . S
C856 H880 0.950 . S
C857 C874 1.574 . S
C857 C876 1.368 . S
C857 H881 0.949 . S
H858 C862 0.949 . S
C859 C860 1.349 . S
C859 C861 1.327 . S
C859 H882 0.950 . S
C860 C859 1.349 . S
C860 C872 1.349 . S
C861 C859 1.327 . S
C861 C877 1.429 . S
C861 H883 0.950 . S
C862 H858 0.949 . S
C862 C870 1.574 . S
C862 C878 1.368 . S
H863 C871 0.950 . S
H864 C869 0.950 . S
H865 C870 0.949 . S
H866 C872 0.950 . S
H867 C873 0.950 . S
H868 C874 0.949 . S
C869 H864 0.950 . S
C869 C871 1.327 . S
C869 C875 1.429 . S
C870 C862 1.574 . S
C870 H865 0.949 . S
C870 C876 1.368 . S
C871 C855 1.349 . S
C871 H863 0.950 . S
C871 C869 1.327 . S
C872 C860 1.349 . S
C872 H866 0.950 . S
C872 C873 1.327 . S
C873 H867 0.950 . S
C873 C872 1.327 . S
C873 C877 1.429 . S
C874 C857 1.574 . S
C874 H868 0.949 . S
C874 C878 1.368 . S
C875 C856 1.429 . S
C875 C869 1.429 . S
C875 C876 1.523 . S
C876 C857 1.368 . S
C876 C870 1.368 . S
C876 C875 1.523 . S
C877 C861 1.429 . S
C877 C873 1.429 . S
C877 C878 1.523 . S
C878 C862 1.368 . S
C878 C874 1.368 . S
C878 C877 1.523 . S
H879 C854 0.950 . S
H880 C856 0.950 . S
H881 C857 0.949 . S
H882 C859 0.950 . S
H883 C861 0.950 . S
C884 C885 1.349 . S
C884 C886 1.327 . S
C884 H909 0.950 . S
C885 C884 1.349 . S
C885 C901 1.349 . S
C886 C884 1.327 . S
C886 C905 1.429 . S
C886 H910 0.950 . S
C887 C904 1.574 1_565 S
C887 C906 1.368 . S
C887 H911 0.949 . S
H888 C892 0.949 . S
C889 C890 1.349 . S
C889 C891 1.327 . S
C889 H912 0.950 . S
C890 C889 1.349 . S
C890 C902 1.349 . S
C891 C889 1.327 . S
C891 C907 1.429 . S
C891 H913 0.950 . S
C892 H888 0.949 . S
C892 C900 1.574 1_545 S
C892 C908 1.368 . S
H893 C901 0.950 . S
H894 C899 0.950 . S
H895 C900 0.949 . S
H896 C902 0.950 . S
H897 C903 0.950 . S
H898 C904 0.949 . S
C899 H894 0.950 . S
C899 C901 1.327 . S
C899 C905 1.429 . S
C900 C892 1.574 1_565 S
C900 H895 0.949 . S
C900 C906 1.368 . S
C901 C885 1.349 . S
C901 H893 0.950 . S
C901 C899 1.327 . S
C902 C890 1.349 . S
C902 H896 0.950 . S
C902 C903 1.327 . S
C903 H897 0.950 . S
C903 C902 1.327 . S
C903 C907 1.429 . S
C904 C887 1.574 1_545 S
C904 H898 0.949 . S
C904 C908 1.368 . S
C905 C886 1.429 . S
C905 C899 1.429 . S
C905 C906 1.523 . S
C906 C887 1.368 . S
C906 C900 1.368 . S
C906 C905 1.523 . S
C907 C891 1.429 . S
C907 C903 1.429 . S
C907 C908 1.523 . S
C908 C892 1.368 . S
C908 C904 1.368 . S
C908 C907 1.523 . S
H909 C884 0.950 . S
H910 C886 0.950 . S
H911 C887 0.949 . S
H912 C889 0.950 . S
H913 C891 0.950 . S
C914 C915 1.349 . S
C914 C916 1.327 . S
C914 H939 0.950 . S
C915 C914 1.349 . S
C915 C931 1.349 . S
C916 C914 1.327 . S
C916 C935 1.429 . S
C916 H940 0.950 . S
C917 C934 1.574 1_545 S
C917 C936 1.368 . S
C917 H941 0.949 . S
H918 C922 0.949 . S
C919 C920 1.349 . S
C919 C921 1.327 . S
C919 H942 0.950 . S
C920 C919 1.349 . S
C920 C932 1.349 . S
C921 C919 1.327 . S
C921 C937 1.429 . S
C921 H943 0.950 . S
C922 H918 0.949 . S
C922 C930 1.574 1_565 S
C922 C938 1.368 . S
H923 C931 0.950 . S
H924 C929 0.950 . S
H925 C930 0.949 1_556 S
H926 C932 0.950 . S
H927 C933 0.950 . S
H928 C934 0.949 . S
C929 H924 0.950 . S
C929 C931 1.327 . S
C929 C935 1.429 . S
C930 C922 1.574 1_545 S
C930 H925 0.949 1_554 S
C930 C936 1.368 . S
C931 C915 1.349 . S
C931 H923 0.950 . S
C931 C929 1.327 . S
C932 C920 1.349 . S
C932 H926 0.950 . S
C932 C933 1.327 . S
C933 H927 0.950 . S
C933 C932 1.327 . S
C933 C937 1.429 . S
C934 C917 1.574 1_565 S
C934 H928 0.949 . S
C934 C938 1.368 . S
C935 C916 1.429 . S
C935 C929 1.429 . S
C935 C936 1.523 1_556 S
C936 C917 1.368 . S
C936 C930 1.368 . S
C936 C935 1.523 1_554 S
C937 C921 1.429 . S
C937 C933 1.429 . S
C937 C938 1.523 . S
C938 C922 1.368 . S
C938 C934 1.368 . S
C938 C937 1.523 . S
H939 C914 0.950 . S
H940 C916 0.950 . S
H941 C917 0.949 . S
H942 C919 0.950 . S
H943 C921 0.950 . S
C944 C945 1.349 . S
C944 C946 1.327 . S
C944 H969 0.950 . S
C945 C944 1.349 . S
C945 C961 1.349 . S
C946 C944 1.327 . S
C946 C965 1.429 . S
C946 H970 0.950 . S
C947 C964 1.574 . S
C947 C966 1.368 . S
C947 H971 0.949 . S
H948 C952 0.949 . S
C949 C950 1.349 . S
C949 C951 1.327 . S
C949 H972 0.950 . S
C950 C949 1.349 . S
C950 C962 1.349 . S
C951 C949 1.327 . S
C951 C967 1.429 . S
C951 H973 0.950 . S
C952 H948 0.949 . S
C952 C960 1.574 . S
C952 C968 1.368 . S
H953 C961 0.950 . S
H954 C959 0.950 . S
H955 C960 0.949 . S
H956 C962 0.950 . S
H957 C963 0.950 . S
H958 C964 0.949 . S
C959 H954 0.950 . S
C959 C961 1.327 . S
C959 C965 1.429 . S
C960 C952 1.574 . S
C960 H955 0.949 . S
C960 C966 1.368 . S
C961 C945 1.349 . S
C961 H953 0.950 . S
C961 C959 1.327 . S
C962 C950 1.349 . S
C962 H956 0.950 . S
C962 C963 1.327 . S
C963 H957 0.950 . S
C963 C962 1.327 . S
C963 C967 1.429 . S
C964 C947 1.574 . S
C964 H958 0.949 . S
C964 C968 1.368 . S
C965 C946 1.429 . S
C965 C959 1.429 . S
C965 C966 1.523 . S
C966 C947 1.368 . S
C966 C960 1.368 . S
C966 C965 1.523 . S
C967 C951 1.429 . S
C967 C963 1.429 . S
C967 C968 1.523 . S
C968 C952 1.368 . S
C968 C964 1.368 . S
C968 C967 1.523 . S
H969 C944 0.950 . S
H970 C946 0.950 . S
H971 C947 0.949 . S
H972 C949 0.950 . S
H973 C951 0.950 . S
C974 C975 1.349 . S
C974 C976 1.327 . S
C974 H999 0.950 . S
C975 C974 1.349 . S
C975 C991 1.349 . S
C976 C974 1.327 . S
C976 C995 1.429 . S
C976 H1000 0.950 . S
C977 C994 1.574 . S
C977 C996 1.368 . S
C977 H1001 0.949 . S
H978 C982 0.949 . S
C979 C980 1.349 . S
C979 C981 1.327 . S
C979 H1002 0.950 . S
C980 C979 1.349 . S
C980 C992 1.349 . S
C981 C979 1.327 . S
C981 C997 1.429 . S
C981 H1003 0.950 . S
C982 H978 0.949 . S
C982 C990 1.574 . S
C982 C998 1.368 . S
H983 C991 0.950 . S
H984 C989 0.950 . S
H985 C990 0.949 . S
H986 C992 0.950 . S
H987 C993 0.950 . S
H988 C994 0.949 . S
C989 H984 0.950 . S
C989 C991 1.327 . S
C989 C995 1.429 . S
C990 C982 1.574 . S
C990 H985 0.949 . S
C990 C996 1.368 . S
C991 C975 1.349 . S
C991 H983 0.950 . S
C991 C989 1.327 . S
C992 C980 1.349 . S
C992 H986 0.950 . S
C992 C993 1.327 . S
C993 H987 0.950 . S
C993 C992 1.327 . S
C993 C997 1.429 . S
C994 C977 1.574 . S
C994 H988 0.949 . S
C994 C998 1.368 . S
C995 C976 1.429 . S
C995 C989 1.429 . S
C995 C996 1.523 . S
C996 C977 1.368 . S
C996 C990 1.368 . S
C996 C995 1.523 . S
C997 C981 1.429 . S
C997 C993 1.429 . S
C997 C998 1.523 . S
C998 C982 1.368 . S
C998 C994 1.368 . S
C998 C997 1.523 . S
H999 C974 0.950 . S
H1000 C976 0.950 . S
H1001 C977 0.949 . S
H1002 C979 0.950 . S
H1003 C981 0.950 . S
C1004 C1005 1.349 . S
C1004 C1006 1.327 . S
C1004 H1029 0.950 . S
C1005 C1004 1.349 . S
C1005 C1021 1.349 . S
C1006 C1004 1.327 . S
C1006 C1025 1.429 . S
C1006 H1030 0.950 . S
C1007 C1024 1.574 . S
C1007 C1026 1.368 . S
C1007 H1031 0.949 . S
H1008 C1012 0.949 . S
C1009 C1010 1.349 . S
C1009 C1011 1.327 . S
C1009 H1032 0.950 . S
C1010 C1009 1.349 . S
C1010 C1022 1.349 . S
C1011 C1009 1.327 . S
C1011 C1027 1.429 . S
C1011 H1033 0.950 . S
C1012 H1008 0.949 . S
C1012 C1020 1.574 . S
C1012 C1028 1.368 . S
H1013 C1021 0.950 . S
H1014 C1019 0.950 . S
H1015 C1020 0.949 . S
H1016 C1022 0.950 . S
H1017 C1023 0.950 1_554 S
H1018 C1024 0.949 1_556 S
C1019 H1014 0.950 . S
C1019 C1021 1.327 . S
C1019 C1025 1.429 . S
C1020 C1012 1.574 . S
C1020 H1015 0.949 . S
C1020 C1026 1.368 . S
C1021 C1005 1.349 . S
C1021 H1013 0.950 . S
C1021 C1019 1.327 . S
C1022 C1010 1.349 . S
C1022 H1016 0.950 . S
C1022 C1023 1.327 . S
C1023 H1017 0.950 1_556 S
C1023 C1022 1.327 . S
C1023 C1027 1.429 . S
C1024 C1007 1.574 . S
C1024 H1018 0.949 1_554 S
C1024 C1028 1.368 . S
C1025 C1006 1.429 . S
C1025 C1019 1.429 . S
C1025 C1026 1.523 . S
C1026 C1007 1.368 . S
C1026 C1020 1.368 . S
C1026 C1025 1.523 . S
C1027 C1011 1.429 . S
C1027 C1023 1.429 . S
C1027 C1028 1.523 1_556 S
C1028 C1012 1.368 . S
C1028 C1024 1.368 . S
C1028 C1027 1.523 1_554 S
H1029 C1004 0.950 . S
H1030 C1006 0.950 . S
H1031 C1007 0.949 . S
H1032 C1009 0.950 . S
H1033 C1011 0.950 . S
C1034 C1035 1.349 . S
C1034 C1036 1.327 . S
C1034 H1059 0.950 . S
C1035 C1034 1.349 . S
C1035 C1051 1.349 . S
C1036 C1034 1.327 . S
C1036 C1055 1.429 . S
C1036 H1060 0.950 . S
C1037 C1054 1.574 . S
C1037 C1056 1.368 . S
C1037 H1061 0.949 . S
H1038 C1042 0.949 . S
C1039 C1040 1.349 . S
C1039 C1041 1.327 . S
C1039 H1062 0.950 . S
C1040 C1039 1.349 . S
C1040 C1052 1.349 . S
C1041 C1039 1.327 . S
C1041 C1057 1.429 . S
C1041 H1063 0.950 . S
C1042 H1038 0.949 . S
C1042 C1050 1.574 . S
C1042 C1058 1.368 . S
H1043 C1051 0.950 . S
H1044 C1049 0.950 . S
H1045 C1050 0.949 . S
H1046 C1052 0.950 . S
H1047 C1053 0.950 . S
H1048 C1054 0.949 . S
C1049 H1044 0.950 . S
C1049 C1051 1.327 . S
C1049 C1055 1.429 . S
C1050 C1042 1.574 . S
C1050 H1045 0.949 . S
C1050 C1056 1.368 . S
C1051 C1035 1.349 . S
C1051 H1043 0.950 . S
C1051 C1049 1.327 . S
C1052 C1040 1.349 . S
C1052 H1046 0.950 . S
C1052 C1053 1.327 . S
C1053 H1047 0.950 . S
C1053 C1052 1.327 . S
C1053 C1057 1.429 . S
C1054 C1037 1.574 . S
C1054 H1048 0.949 . S
C1054 C1058 1.368 . S
C1055 C1036 1.429 . S
C1055 C1049 1.429 . S
C1055 C1056 1.523 . S
C1056 C1037 1.368 . S
C1056 C1050 1.368 . S
C1056 C1055 1.523 . S
C1057 C1041 1.429 . S
C1057 C1053 1.429 . S
C1057 C1058 1.523 . S
C1058 C1042 1.368 . S
C1058 C1054 1.368 . S
C1058 C1057 1.523 . S
H1059 C1034 0.950 . S
H1060 C1036 0.950 . S
H1061 C1037 0.949 . S
H1062 C1039 0.950 . S
H1063 C1041 0.950 . S
C1064 C1065 1.349 . S
C1064 C1066 1.327 . S
C1064 H1089 0.950 . S
C1065 C1064 1.349 . S
C1065 C1081 1.349 . S
C1066 C1064 1.327 . S
C1066 C1085 1.429 . S
C1066 H1090 0.950 . S
C1067 C1084 1.574 . S
C1067 C1086 1.368 . S
C1067 H1091 0.949 . S
H1068 C1072 0.949 . S
C1069 C1070 1.349 . S
C1069 C1071 1.327 . S
C1069 H1092 0.950 . S
C1070 C1069 1.349 . S
C1070 C1082 1.349 . S
C1071 C1069 1.327 . S
C1071 C1087 1.429 . S
C1071 H1093 0.950 . S
C1072 H1068 0.949 . S
C1072 C1080 1.574 . S
C1072 C1088 1.368 . S
H1073 C1081 0.950 . S
H1074 C1079 0.950 . S
H1075 C1080 0.949 . S
H1076 C1082 0.950 . S
H1077 C1083 0.950 . S
H1078 C1084 0.949 . S
C1079 H1074 0.950 . S
C1079 C1081 1.327 . S
C1079 C1085 1.429 . S
C1080 C1072 1.574 . S
C1080 H1075 0.949 . S
C1080 C1086 1.368 . S
C1081 C1065 1.349 . S
C1081 H1073 0.950 . S
C1081 C1079 1.327 . S
C1082 C1070 1.349 . S
C1082 H1076 0.950 . S
C1082 C1083 1.327 . S
C1083 H1077 0.950 . S
C1083 C1082 1.327 . S
C1083 C1087 1.429 . S
C1084 C1067 1.574 . S
C1084 H1078 0.949 . S
C1084 C1088 1.368 . S
C1085 C1066 1.429 . S
C1085 C1079 1.429 . S
C1085 C1086 1.523 . S
C1086 C1067 1.368 . S
C1086 C1080 1.368 . S
C1086 C1085 1.523 . S
C1087 C1071 1.429 . S
C1087 C1083 1.429 . S
C1087 C1088 1.523 . S
C1088 C1072 1.368 . S
C1088 C1084 1.368 . S
C1088 C1087 1.523 . S
H1089 C1064 0.950 . S
H1090 C1066 0.950 . S
H1091 C1067 0.949 . S
H1092 C1069 0.950 . S
H1093 C1071 0.950 . S
C1094 C1095 1.349 . S
C1094 C1096 1.327 . S
C1094 H1119 0.950 . S
C1095 C1094 1.349 . S
C1095 C1111 1.349 . S
C1096 C1094 1.327 . S
C1096 C1115 1.429 . S
C1096 H1120 0.950 . S
C1097 C1114 1.574 . S
C1097 C1116 1.368 . S
C1097 H1121 0.949 . S
H1098 C1102 0.949 . S
C1099 C1100 1.349 . S
C1099 C1101 1.327 . S
C1099 H1122 0.950 . S
C1100 C1099 1.349 . S
C1100 C1112 1.349 . S
C1101 C1099 1.327 . S
C1101 C1117 1.429 . S
C1101 H1123 0.950 . S
C1102 H1098 0.949 . S
C1102 C1110 1.574 . S
C1102 C1118 1.368 . S
H1103 C1111 0.950 . S
H1104 C1109 0.950 . S
H1105 C1110 0.949 . S
H1106 C1112 0.950 . S
H1107 C1113 0.950 . S
H1108 C1114 0.949 . S
C1109 H1104 0.950 . S
C1109 C1111 1.327 . S
C1109 C1115 1.429 . S
C1110 C1102 1.574 . S
C1110 H1105 0.949 . S
C1110 C1116 1.368 . S
C1111 C1095 1.349 . S
C1111 H1103 0.950 . S
C1111 C1109 1.327 . S
C1112 C1100 1.349 . S
C1112 H1106 0.950 . S
C1112 C1113 1.327 . S
C1113 H1107 0.950 . S
C1113 C1112 1.327 . S
C1113 C1117 1.429 . S
C1114 C1097 1.574 . S
C1114 H1108 0.949 . S
C1114 C1118 1.368 . S
C1115 C1096 1.429 . S
C1115 C1109 1.429 . S
C1115 C1116 1.523 . S
C1116 C1097 1.368 . S
C1116 C1110 1.368 . S
C1116 C1115 1.523 . S
C1117 C1101 1.429 . S
C1117 C1113 1.429 . S
C1117 C1118 1.523 . S
C1118 C1102 1.368 . S
C1118 C1114 1.368 . S
C1118 C1117 1.523 . S
H1119 C1094 0.950 . S
H1120 C1096 0.950 . S
H1121 C1097 0.949 . S
H1122 C1099 0.950 . S
H1123 C1101 0.950 . S
C1124 C1125 1.349 . S
C1124 C1126 1.327 . S
C1124 H1149 0.950 . S
C1125 C1124 1.349 . S
C1125 C1141 1.349 . S
C1126 C1124 1.327 . S
C1126 C1145 1.429 . S
C1126 H1150 0.950 . S
C1127 C1144 1.550 1_565 S
C1127 C1146 1.368 . S
C1127 H1151 0.949 . S
H1128 C1132 0.949 . S
C1129 C1130 1.349 . S
C1129 C1131 1.327 . S
C1129 H1152 0.950 . S
C1130 C1129 1.349 . S
C1130 C1142 1.349 . S
C1131 C1129 1.327 . S
C1131 C1147 1.429 . S
C1131 H1153 0.950 . S
C1132 H1128 0.949 . S
C1132 C1140 1.550 1_545 S
C1132 C1148 1.368 . S
H1133 C1141 0.950 . S
H1134 C1139 0.950 . S
H1135 C1140 0.952 . S
H1136 C1142 0.950 . S
H1137 C1143 0.950 . S
H1138 C1144 0.952 1_556 S
C1139 H1134 0.950 . S
C1139 C1141 1.327 . S
C1139 C1145 1.429 . S
C1140 C1132 1.550 1_565 S
C1140 H1135 0.952 . S
C1140 C1146 1.390 . S
C1141 C1125 1.349 . S
C1141 H1133 0.950 . S
C1141 C1139 1.327 . S
C1142 C1130 1.349 . S
C1142 H1136 0.950 . S
C1142 C1143 1.327 . S
C1143 H1137 0.950 . S
C1143 C1142 1.327 . S
C1143 C1147 1.429 . S
C1144 C1127 1.550 1_545 S
C1144 H1138 0.952 1_554 S
C1144 C1148 1.391 . S
C1145 C1126 1.429 . S
C1145 C1139 1.429 . S
C1145 C1146 1.523 . S
C1146 C1127 1.368 . S
C1146 C1140 1.390 . S
C1146 C1145 1.523 . S
C1147 C1131 1.429 . S
C1147 C1143 1.429 . S
C1147 C1148 1.523 1_556 S
C1148 C1132 1.368 . S
C1148 C1144 1.391 . S
C1148 C1147 1.523 1_554 S
H1149 C1124 0.950 . S
H1150 C1126 0.950 . S
H1151 C1127 0.949 . S
H1152 C1129 0.950 . S
H1153 C1131 0.950 . S
C1154 C1155 1.349 . S
C1154 C1156 1.327 . S
C1154 H1179 0.950 . S
C1155 C1154 1.349 . S
C1155 C1171 1.349 . S
C1156 C1154 1.327 . S
C1156 C1175 1.429 . S
C1156 H1180 0.950 . S
C1157 C1174 1.574 . S
C1157 C1176 1.368 1_565 S
C1157 H1181 0.949 . S
H1158 C1162 0.949 . S
C1159 C1160 1.349 . S
C1159 C1161 1.327 . S
C1159 H1182 0.950 . S
C1160 C1159 1.349 . S
C1160 C1172 1.349 . S
C1161 C1159 1.327 . S
C1161 C1177 1.429 . S
C1161 H1183 0.950 . S
C1162 H1158 0.949 . S
C1162 C1170 1.574 . S
C1162 C1178 1.368 1_545 S
H1163 C1171 0.950 . S
H1164 C1169 0.950 . S
H1165 C1170 0.949 . S
H1166 C1172 0.950 . S
H1167 C1173 0.950 . S
H1168 C1174 0.949 . S
C1169 H1164 0.950 . S
C1169 C1171 1.327 . S
C1169 C1175 1.429 . S
C1170 C1162 1.574 . S
C1170 H1165 0.949 . S
C1170 C1176 1.368 . S
C1171 C1155 1.349 . S
C1171 H1163 0.950 . S
C1171 C1169 1.327 . S
C1172 C1160 1.349 . S
C1172 H1166 0.950 . S
C1172 C1173 1.327 . S
C1173 H1167 0.950 . S
C1173 C1172 1.327 . S
C1173 C1177 1.429 . S
C1174 C1157 1.574 . S
C1174 H1168 0.949 . S
C1174 C1178 1.368 . S
C1175 C1156 1.429 . S
C1175 C1169 1.429 . S
C1175 C1176 1.523 . S
C1176 C1157 1.368 1_545 S
C1176 C1170 1.368 . S
C1176 C1175 1.523 . S
C1177 C1161 1.429 . S
C1177 C1173 1.429 . S
C1177 C1178 1.523 . S
C1178 C1162 1.368 1_565 S
C1178 C1174 1.368 . S
C1178 C1177 1.523 . S
H1179 C1154 0.950 . S
H1180 C1156 0.950 . S
H1181 C1157 0.949 . S
H1182 C1159 0.950 . S
H1183 C1161 0.950 . S
C225 C135 1.245 . S
C230 C9 1.245 . S
C255 C205 1.245 . S
C260 C23 1.245 . S
C285 C37 1.245 . S
C290 C121 1.245 . S
C315 C51 1.245 . S
C320 C219 1.245 . S
C345 C65 1.245 . S
C350 C149 1.245 . S
C375 C191 1.245 . S
C380 C79 1.245 . S
C405 C163 1.245 . S
C410 C93 1.245 . S
C435 C107 1.245 . S
C440 C177 1.245 . S
C465 C63 1.675 . S
C470 C49 1.676 . S
C495 C175 1.676 . S
C500 C119 1.676 . S
C525 C91 1.675 . S
C530 C21 1.675 . S
C555 C133 1.675 . S
C560 C189 1.675 . S
C585 C7 1.675 . S
C590 C77 1.675 . S
C615 C217 1.675 . S
C620 C147 1.676 . S
C645 C105 1.676 . S
C650 C35 1.676 . S
C675 C161 1.675 . S
C680 C203 1.675 . S
C705 C8 1.051 . S
C710 C64 1.051 . S
C735 C78 1.051 . S
C740 C22 1.051 . S
C765 C92 1.050 . S
C770 C36 1.050 . S
C795 C50 1.051 . S
C800 C106 1.051 . S
C825 C148 1.051 . S
C830 C120 1.051 . S
C855 C162 1.051 . S
C860 C134 1.051 . S
C885 C204 1.050 . S
C890 C176 1.050 . S
C915 C218 1.051 . S
C920 C190 1.051 . S
C945 C62 1.588 . S
C950 C6 1.588 . S
C975 C76 1.588 . S
C980 C20 1.588 . S
C1005 C90 1.588 . S
C1010 C34 1.588 . S
C1035 C48 1.588 . S
C1040 C104 1.588 . S
C1065 C118 1.588 . S
C1070 C146 1.588 . S
C1095 C160 1.588 . S
C1100 C132 1.588 . S
C1125 C202 1.588 . S
C1130 C174 1.588 . S
C1155 C216 1.588 . S
C1160 C188 1.588 . S
