# Generated by pormake.
# Topology mer, (4)-cn, num edge types: 1
# Building blocks:
#     Node 0, Type 0, BuildingBlock: NAHDIM_clean_sbu_0, # of connection points: 4
#     Node 1, Type 0, BuildingBlock: NAHDIM_clean_sbu_0, # of connection points: 4
#     Node 2, Type 0, BuildingBlock: NAHDIM_clean_sbu_0, # of connection points: 4
#     Node 3, Type 0, BuildingBlock: NAHDIM_clean_sbu_0, # of connection points: 4
#     Node 4, Type 0, BuildingBlock: NAHDIM_clean_sbu_0, # of connection points: 4
#     Node 5, Type 0, BuildingBlock: NAHDIM_clean_sbu_0, # of connection points: 4
#     Node 6, Type 0, BuildingBlock: NAHDIM_clean_sbu_0, # of connection points: 4
#     Node 7, Type 0, BuildingBlock: NAHDIM_clean_sbu_0, # of connection points: 4
#     Node 8, Type 0, BuildingBlock: NAHDIM_clean_sbu_0, # of connection points: 4
#     Node 9, Type 0, BuildingBlock: NAHDIM_clean_sbu_0, # of connection points: 4
#     Node 10, Type 0, BuildingBlock: NAHDIM_clean_sbu_0, # of connection points: 4
#     Node 11, Type 0, BuildingBlock: NAHDIM_clean_sbu_0, # of connection points: 4
#     Node 12, Type 0, BuildingBlock: NAHDIM_clean_sbu_0, # of connection points: 4
#     Node 13, Type 0, BuildingBlock: NAHDIM_clean_sbu_0, # of connection points: 4
#     Node 14, Type 0, BuildingBlock: NAHDIM_clean_sbu_0, # of connection points: 4
#     Node 15, Type 0, BuildingBlock: NAHDIM_clean_sbu_0, # of connection points: 4
#     Node 16, Type 0, BuildingBlock: NAHDIM_clean_sbu_0, # of connection points: 4
#     Node 17, Type 0, BuildingBlock: NAHDIM_clean_sbu_0, # of connection points: 4
#     Node 18, Type 0, BuildingBlock: NAHDIM_clean_sbu_0, # of connection points: 4
#     Node 19, Type 0, BuildingBlock: NAHDIM_clean_sbu_0, # of connection points: 4
#     Node 20, Type 0, BuildingBlock: NAHDIM_clean_sbu_0, # of connection points: 4
#     Node 21, Type 0, BuildingBlock: NAHDIM_clean_sbu_0, # of connection points: 4
#     Node 22, Type 0, BuildingBlock: NAHDIM_clean_sbu_0, # of connection points: 4
#     Node 23, Type 0, BuildingBlock: NAHDIM_clean_sbu_0, # of connection points: 4
#     Node 24, Type 0, BuildingBlock: NAHDIM_clean_sbu_0, # of connection points: 4
#     Node 25, Type 0, BuildingBlock: NAHDIM_clean_sbu_0, # of connection points: 4
#     Node 26, Type 0, BuildingBlock: NAHDIM_clean_sbu_0, # of connection points: 4
#     Node 27, Type 0, BuildingBlock: NAHDIM_clean_sbu_0, # of connection points: 4
#     Node 28, Type 0, BuildingBlock: NAHDIM_clean_sbu_0, # of connection points: 4
#     Node 29, Type 0, BuildingBlock: NAHDIM_clean_sbu_0, # of connection points: 4
#     Node 30, Type 0, BuildingBlock: NAHDIM_clean_sbu_0, # of connection points: 4
#     Node 31, Type 0, BuildingBlock: NAHDIM_clean_sbu_0, # of connection points: 4
#     Edge 32, Type (0, 0), BuildingBlock: XIVTED_clean_linker_0, # of connection points: 2
#     Edge 33, Type (0, 0), BuildingBlock: XIVTED_clean_linker_0, # of connection points: 2
#     Edge 34, Type (0, 0), BuildingBlock: XIVTED_clean_linker_0, # of connection points: 2
#     Edge 35, Type (0, 0), BuildingBlock: XIVTED_clean_linker_0, # of connection points: 2
#     Edge 36, Type (0, 0), BuildingBlock: XIVTED_clean_linker_0, # of connection points: 2
#     Edge 37, Type (0, 0), BuildingBlock: XIVTED_clean_linker_0, # of connection points: 2
#     Edge 38, Type (0, 0), BuildingBlock: XIVTED_clean_linker_0, # of connection points: 2
#     Edge 39, Type (0, 0), BuildingBlock: XIVTED_clean_linker_0, # of connection points: 2
#     Edge 40, Type (0, 0), BuildingBlock: XIVTED_clean_linker_0, # of connection points: 2
#     Edge 41, Type (0, 0), BuildingBlock: XIVTED_clean_linker_0, # of connection points: 2
#     Edge 42, Type (0, 0), BuildingBlock: XIVTED_clean_linker_0, # of connection points: 2
#     Edge 43, Type (0, 0), BuildingBlock: XIVTED_clean_linker_0, # of connection points: 2
#     Edge 44, Type (0, 0), BuildingBlock: XIVTED_clean_linker_0, # of connection points: 2
#     Edge 45, Type (0, 0), BuildingBlock: XIVTED_clean_linker_0, # of connection points: 2
#     Edge 46, Type (0, 0), BuildingBlock: XIVTED_clean_linker_0, # of connection points: 2
#     Edge 47, Type (0, 0), BuildingBlock: XIVTED_clean_linker_0, # of connection points: 2
#     Edge 48, Type (0, 0), BuildingBlock: XIVTED_clean_linker_0, # of connection points: 2
#     Edge 49, Type (0, 0), BuildingBlock: XIVTED_clean_linker_0, # of connection points: 2
#     Edge 50, Type (0, 0), BuildingBlock: XIVTED_clean_linker_0, # of connection points: 2
#     Edge 51, Type (0, 0), BuildingBlock: XIVTED_clean_linker_0, # of connection points: 2
#     Edge 52, Type (0, 0), BuildingBlock: XIVTED_clean_linker_0, # of connection points: 2
#     Edge 53, Type (0, 0), BuildingBlock: XIVTED_clean_linker_0, # of connection points: 2
#     Edge 54, Type (0, 0), BuildingBlock: XIVTED_clean_linker_0, # of connection points: 2
#     Edge 55, Type (0, 0), BuildingBlock: XIVTED_clean_linker_0, # of connection points: 2
#     Edge 56, Type (0, 0), BuildingBlock: XIVTED_clean_linker_0, # of connection points: 2
#     Edge 57, Type (0, 0), BuildingBlock: XIVTED_clean_linker_0, # of connection points: 2
#     Edge 58, Type (0, 0), BuildingBlock: XIVTED_clean_linker_0, # of connection points: 2
#     Edge 59, Type (0, 0), BuildingBlock: XIVTED_clean_linker_0, # of connection points: 2
#     Edge 60, Type (0, 0), BuildingBlock: XIVTED_clean_linker_0, # of connection points: 2
#     Edge 61, Type (0, 0), BuildingBlock: XIVTED_clean_linker_0, # of connection points: 2
#     Edge 62, Type (0, 0), BuildingBlock: XIVTED_clean_linker_0, # of connection points: 2
#     Edge 63, Type (0, 0), BuildingBlock: XIVTED_clean_linker_0, # of connection points: 2
#     Edge 64, Type (0, 0), BuildingBlock: XIVTED_clean_linker_0, # of connection points: 2
#     Edge 65, Type (0, 0), BuildingBlock: XIVTED_clean_linker_0, # of connection points: 2
#     Edge 66, Type (0, 0), BuildingBlock: XIVTED_clean_linker_0, # of connection points: 2
#     Edge 67, Type (0, 0), BuildingBlock: XIVTED_clean_linker_0, # of connection points: 2
#     Edge 68, Type (0, 0), BuildingBlock: XIVTED_clean_linker_0, # of connection points: 2
#     Edge 69, Type (0, 0), BuildingBlock: XIVTED_clean_linker_0, # of connection points: 2
#     Edge 70, Type (0, 0), BuildingBlock: XIVTED_clean_linker_0, # of connection points: 2
#     Edge 71, Type (0, 0), BuildingBlock: XIVTED_clean_linker_0, # of connection points: 2
#     Edge 72, Type (0, 0), BuildingBlock: XIVTED_clean_linker_0, # of connection points: 2
#     Edge 73, Type (0, 0), BuildingBlock: XIVTED_clean_linker_0, # of connection points: 2
#     Edge 74, Type (0, 0), BuildingBlock: XIVTED_clean_linker_0, # of connection points: 2
#     Edge 75, Type (0, 0), BuildingBlock: XIVTED_clean_linker_0, # of connection points: 2
#     Edge 76, Type (0, 0), BuildingBlock: XIVTED_clean_linker_0, # of connection points: 2
#     Edge 77, Type (0, 0), BuildingBlock: XIVTED_clean_linker_0, # of connection points: 2
#     Edge 78, Type (0, 0), BuildingBlock: XIVTED_clean_linker_0, # of connection points: 2
#     Edge 79, Type (0, 0), BuildingBlock: XIVTED_clean_linker_0, # of connection points: 2
#     Edge 80, Type (0, 0), BuildingBlock: XIVTED_clean_linker_0, # of connection points: 2
#     Edge 81, Type (0, 0), BuildingBlock: XIVTED_clean_linker_0, # of connection points: 2
#     Edge 82, Type (0, 0), BuildingBlock: XIVTED_clean_linker_0, # of connection points: 2
#     Edge 83, Type (0, 0), BuildingBlock: XIVTED_clean_linker_0, # of connection points: 2
#     Edge 84, Type (0, 0), BuildingBlock: XIVTED_clean_linker_0, # of connection points: 2
#     Edge 85, Type (0, 0), BuildingBlock: XIVTED_clean_linker_0, # of connection points: 2
#     Edge 86, Type (0, 0), BuildingBlock: XIVTED_clean_linker_0, # of connection points: 2
#     Edge 87, Type (0, 0), BuildingBlock: XIVTED_clean_linker_0, # of connection points: 2
#     Edge 88, Type (0, 0), BuildingBlock: XIVTED_clean_linker_0, # of connection points: 2
#     Edge 89, Type (0, 0), BuildingBlock: XIVTED_clean_linker_0, # of connection points: 2
#     Edge 90, Type (0, 0), BuildingBlock: XIVTED_clean_linker_0, # of connection points: 2
#     Edge 91, Type (0, 0), BuildingBlock: XIVTED_clean_linker_0, # of connection points: 2
#     Edge 92, Type (0, 0), BuildingBlock: XIVTED_clean_linker_0, # of connection points: 2
#     Edge 93, Type (0, 0), BuildingBlock: XIVTED_clean_linker_0, # of connection points: 2
#     Edge 94, Type (0, 0), BuildingBlock: XIVTED_clean_linker_0, # of connection points: 2
#     Edge 95, Type (0, 0), BuildingBlock: XIVTED_clean_linker_0, # of connection points: 2
# Relax obj value: 0.160
# Max RMSD: 0.165
# Mean RMSD: 0.153
data_MOF--net-mer--node1-NAHDIM_clean_sbu_0--edge1-XIVTED_clean_linker_0
_symmetry_space_group_name_H-M    P1
_symmetry_Int_Tables_number       1
_symmetry_cell_setting            triclinic
loop_
_symmetry_equiv_pos_as_xyz
'x, y, z'
_cell_length_a     69.539189
_cell_length_b     67.805665
_cell_length_c     44.246828
_cell_angle_alpha  90.012698
_cell_angle_beta   90.017138
_cell_angle_gamma 90.011559
loop_
_atom_site_label
_atom_site_type_symbol
_atom_site_fract_x
_atom_site_fract_y
_atom_site_fract_z
_atom_type_partial_charge
C0 C 0.05457 0.20594 0.27613 0.0
O1 O 0.06379 0.21657 0.25598 0.0
O2 O 0.09987 0.22883 0.28307 0.0
Zn3 Zn 0.0914 0.20523 0.30712 0.0
O4 O 0.0936 0.21156 0.35132 0.0
C5 C 0.11769 0.18001 0.2739 0.0
O6 O 0.11452 0.19251 0.25177 0.0
O7 O 0.06371 0.19903 0.29863 0.0
C8 C 0.11002 0.21331 0.36363 0.0
O9 O 0.12552 0.21121 0.34697 0.0
C10 C 0.09581 0.24617 0.29187 0.0
O11 O 0.08592 0.24856 0.3169 0.0
O12 O 0.1088 0.1822 0.29876 0.0
C13 C 0.66396 0.13011 0.31107 0.0
O14 O 0.668 0.11366 0.29673 0.0
O15 O 0.69116 0.08887 0.33999 0.0
Zn16 Zn 0.69404 0.11734 0.35207 0.0
O17 O 0.71926 0.12786 0.33713 0.0
C18 C 0.68562 0.10785 0.41478 0.0
O19 O 0.67469 0.09403 0.40303 0.0
O20 O 0.67291 0.13426 0.33529 0.0
C21 C 0.7347 0.12175 0.34926 0.0
O22 O 0.73373 0.10831 0.3706 0.0
C23 C 0.70071 0.08151 0.31825 0.0
O24 O 0.71221 0.0929 0.30244 0.0
O25 O 0.69465 0.11951 0.39736 0.0
C26 C 0.93755 0.78548 0.3292 0.0
O27 O 0.93106 0.8018 0.34154 0.0
O28 O 0.88605 0.74617 0.32187 0.0
Zn29 Zn 0.89937 0.76914 0.34179 0.0
O30 O 0.89904 0.76528 0.38678 0.0
C31 C 0.87842 0.79741 0.30586 0.0
O32 O 0.88245 0.78506 0.28386 0.0
O33 O 0.92659 0.77058 0.32721 0.0
C34 C 0.88286 0.76501 0.40011 0.0
O35 O 0.86711 0.76697 0.38396 0.0
C36 C 0.89443 0.73517 0.30268 0.0
O37 O 0.91247 0.73861 0.29569 0.0
O38 O 0.88476 0.79391 0.33224 0.0
C39 C 0.33361 0.85973 0.30825 0.0
O40 O 0.32983 0.87615 0.29366 0.0
O41 O 0.30763 0.90201 0.3363 0.0
Zn42 Zn 0.30426 0.87376 0.34944 0.0
O43 O 0.27911 0.86326 0.33415 0.0
C44 C 0.31152 0.8849 0.41182 0.0
O45 O 0.32096 0.89963 0.39949 0.0
O46 O 0.32498 0.85618 0.33296 0.0
C47 C 0.26322 0.86952 0.34454 0.0
O48 O 0.26332 0.88345 0.3652 0.0
C49 C 0.29862 0.90909 0.31379 0.0
O50 O 0.28726 0.89758 0.29793 0.0
O51 O 0.30367 0.87209 0.39487 0.0
C52 C 0.06287 0.79434 0.72091 0.0
O53 O 0.07473 0.78723 0.74129 0.0
O54 O 0.10669 0.76789 0.6978 0.0
Zn55 Zn 0.09565 0.79245 0.67911 0.0
O56 O 0.094 0.78865 0.63409 0.0
C57 C 0.12206 0.81713 0.71235 0.0
O58 O 0.11802 0.80488 0.73446 0.0
O59 O 0.06899 0.79796 0.69443 0.0
C60 C 0.10504 0.77693 0.61988 0.0
O61 O 0.11797 0.7668 0.63495 0.0
C62 C 0.09711 0.75256 0.70457 0.0
O63 O 0.07845 0.75219 0.69992 0.0
O64 O 0.11365 0.81504 0.68706 0.0
C65 C 0.33105 0.13728 0.68553 0.0
O66 O 0.32834 0.12057 0.69993 0.0
O67 O 0.30536 0.09452 0.65933 0.0
Zn68 Zn 0.30093 0.1226 0.64602 0.0
O69 O 0.27557 0.13244 0.66162 0.0
C70 C 0.30687 0.11071 0.58355 0.0
O71 O 0.31566 0.09555 0.59584 0.0
O72 O 0.32142 0.14082 0.66173 0.0
C73 C 0.25987 0.12571 0.65118 0.0
O74 O 0.26039 0.11172 0.63064 0.0
C75 C 0.29674 0.08698 0.68187 0.0
O76 O 0.28488 0.09791 0.69779 0.0
O77 O 0.29992 0.12404 0.60053 0.0
C78 C 0.93366 0.20295 0.71913 0.0
O79 O 0.92504 0.21363 0.73986 0.0
O80 O 0.88792 0.22606 0.7155 0.0
Zn81 Zn 0.89612 0.20304 0.68976 0.0
O82 O 0.89382 0.21107 0.64624 0.0
C83 C 0.86727 0.17852 0.71872 0.0
O84 O 0.86796 0.1922 0.73973 0.0
O85 O 0.92393 0.19632 0.69702 0.0
C86 C 0.87787 0.21672 0.63524 0.0
O87 O 0.86262 0.21731 0.65274 0.0
C88 C 0.89285 0.24348 0.70828 0.0
O89 O 0.90368 0.24619 0.68431 0.0
O90 O 0.87851 0.17975 0.69615 0.0
C91 C 0.66506 0.85945 0.6873 0.0
O92 O 0.66631 0.87622 0.70204 0.0
O93 O 0.69616 0.90096 0.66892 0.0
Zn94 Zn 0.6995 0.87281 0.65521 0.0
O95 O 0.72319 0.86114 0.67395 0.0
C96 C 0.69371 0.88272 0.59195 0.0
O97 O 0.68106 0.89527 0.60272 0.0
O98 O 0.67716 0.8556 0.66663 0.0
C99 C 0.73972 0.86811 0.66806 0.0
O100 O 0.74114 0.88346 0.65007 0.0
C101 C 0.70318 0.9071 0.69375 0.0
O102 O 0.71219 0.89463 0.71152 0.0
O103 O 0.70304 0.87183 0.61013 0.0
C104 C 0.9225 0.77007 0.72451 0.0
O105 O 0.91438 0.75765 0.74338 0.0
O106 O 0.88059 0.73996 0.70899 0.0
Zn107 Zn 0.88767 0.76536 0.68765 0.0
O108 O 0.88863 0.76147 0.64237 0.0
C109 C 0.85306 0.78357 0.71222 0.0
O110 O 0.85083 0.76661 0.72613 0.0
O111 O 0.91365 0.77509 0.7006 0.0
C112 C 0.87376 0.76435 0.62623 0.0
O113 O 0.85751 0.76917 0.63945 0.0
C114 C 0.87131 0.72644 0.69542 0.0
O115 O 0.86694 0.72874 0.66677 0.0
O116 O 0.86787 0.78634 0.69596 0.0
C117 C 0.30019 0.9405 0.69776 0.0
O118 O 0.31356 0.93025 0.68384 0.0
O119 O 0.2957 0.88511 0.72065 0.0
Zn120 Zn 0.28093 0.90361 0.69365 0.0
O121 O 0.28943 0.90068 0.65039 0.0
C122 C 0.24532 0.89165 0.72124 0.0
O123 O 0.25585 0.89204 0.74588 0.0
O124 O 0.28474 0.93192 0.70563 0.0
C125 C 0.28474 0.88587 0.63444 0.0
O126 O 0.27431 0.87179 0.64661 0.0
C127 C 0.31145 0.87703 0.713 0.0
O128 O 0.31923 0.88151 0.68683 0.0
O129 O 0.2529 0.8965 0.69619 0.0
C130 C 0.07486 0.21752 0.69095 0.0
O131 O 0.08584 0.22693 0.71036 0.0
O132 O 0.11465 0.24841 0.67038 0.0
Zn133 Zn 0.10733 0.22266 0.65046 0.0
O134 O 0.10639 0.22589 0.60508 0.0
C135 C 0.13991 0.20336 0.67983 0.0
O136 O 0.14016 0.21908 0.69719 0.0
O137 O 0.0812 0.214 0.66457 0.0
C138 C 0.12099 0.2218 0.58892 0.0
O139 O 0.13692 0.21596 0.60214 0.0
C140 C 0.1283 0.25892 0.66008 0.0
O141 O 0.13752 0.25301 0.63582 0.0
O142 O 0.12693 0.20167 0.65979 0.0
C143 C 0.71387 0.05261 0.72493 0.0
O144 O 0.72816 0.0602 0.7405 0.0
O145 O 0.69009 0.10945 0.72324 0.0
Zn146 Zn 0.70845 0.09244 0.69957 0.0
O147 O 0.70327 0.09624 0.65507 0.0
C148 C 0.75044 0.09465 0.69652 0.0
O149 O 0.74867 0.08148 0.67492 0.0
O150 O 0.70395 0.06367 0.70778 0.0
C151 C 0.71234 0.1078 0.63752 0.0
O152 O 0.72637 0.1187 0.64832 0.0
C153 C 0.69129 0.12787 0.71831 0.0
O154 O 0.70402 0.13425 0.69869 0.0
O155 O 0.73548 0.10081 0.71004 0.0
C156 C 0.91446 0.22293 0.30922 0.0
O157 O 0.90372 0.2335 0.29093 0.0
O158 O 0.87166 0.24961 0.32803 0.0
Zn159 Zn 0.88232 0.22652 0.35106 0.0
O160 O 0.88461 0.23246 0.39538 0.0
C161 C 0.85317 0.20208 0.32377 0.0
O162 O 0.85472 0.21477 0.30148 0.0
O163 O 0.90815 0.21846 0.33527 0.0
C164 C 0.86955 0.23415 0.41144 0.0
O165 O 0.85263 0.2331 0.39832 0.0
C166 C 0.87065 0.26731 0.33732 0.0
O167 O 0.87758 0.27187 0.36405 0.0
O168 O 0.86391 0.20393 0.34682 0.0
C169 C 0.70974 0.93493 0.30656 0.0
O170 O 0.69599 0.92408 0.31832 0.0
O171 O 0.71358 0.88147 0.28189 0.0
Zn172 Zn 0.72864 0.89826 0.31097 0.0
O173 O 0.71893 0.89475 0.35353 0.0
C174 C 0.7643 0.8844 0.28514 0.0
O175 O 0.75437 0.88497 0.25988 0.0
O176 O 0.72576 0.92688 0.3003 0.0
C177 C 0.72478 0.88094 0.37061 0.0
O178 O 0.73716 0.86805 0.36001 0.0
C179 C 0.69659 0.87546 0.28708 0.0
O180 O 0.68812 0.88041 0.3125 0.0
O181 O 0.7564 0.89 0.30957 0.0
C182 C 0.07756 0.76104 0.31014 0.0
O183 O 0.08268 0.74241 0.30885 0.0
O184 O 0.12414 0.74042 0.31221 0.0
Zn185 Zn 0.11572 0.76515 0.33356 0.0
O186 O 0.11378 0.76045 0.37835 0.0
C187 C 0.14747 0.78699 0.30664 0.0
O188 O 0.14738 0.77289 0.28629 0.0
O189 O 0.08973 0.77378 0.31891 0.0
C190 C 0.10461 0.77327 0.39355 0.0
O191 O 0.09676 0.78825 0.37932 0.0
C192 C 0.13842 0.73055 0.32178 0.0
O193 O 0.14766 0.73667 0.34594 0.0
O194 O 0.13509 0.78675 0.32774 0.0
C195 C 0.29487 0.05557 0.29787 0.0
O196 O 0.30814 0.06653 0.31076 0.0
O197 O 0.29017 0.10976 0.27492 0.0
Zn198 Zn 0.27485 0.09179 0.30194 0.0
O199 O 0.28293 0.09492 0.34537 0.0
C200 C 0.23987 0.10365 0.27254 0.0
O201 O 0.2509 0.10289 0.24846 0.0
O202 O 0.27894 0.06344 0.29062 0.0
C203 C 0.27861 0.10988 0.36126 0.0
O204 O 0.26864 0.12426 0.34899 0.0
C205 C 0.30591 0.11784 0.28268 0.0
O206 O 0.31324 0.11396 0.30939 0.0
O207 O 0.24691 0.09902 0.29809 0.0
C208 C 0.551 0.70525 0.75814 0.0
O209 O 0.55938 0.71768 0.73958 0.0
O210 O 0.59613 0.72971 0.76647 0.0
Zn211 Zn 0.58739 0.70645 0.79113 0.0
O212 O 0.58608 0.71448 0.83474 0.0
C213 C 0.61737 0.68198 0.765 0.0
O214 O 0.61487 0.69335 0.74128 0.0
O215 O 0.5606 0.69798 0.77989 0.0
C216 C 0.59899 0.72454 0.84801 0.0
O217 O 0.61423 0.73023 0.83281 0.0
C218 C 0.59009 0.74703 0.77203 0.0
O219 O 0.5774 0.74967 0.79365 0.0
O220 O 0.60673 0.68444 0.78806 0.0
C221 C 0.17187 0.64105 0.79442 0.0
O222 O 0.18726 0.63423 0.78076 0.0
O223 O 0.18458 0.58995 0.82593 0.0
Zn224 Zn 0.1881 0.61787 0.84056 0.0
O225 O 0.21416 0.62811 0.82868 0.0
C226 C 0.18613 0.60353 0.90217 0.0
O227 O 0.18561 0.58627 0.88871 0.0
O228 O 0.1684 0.63561 0.82136 0.0
C229 C 0.22962 0.62213 0.84088 0.0
O230 O 0.22882 0.60831 0.86166 0.0
C231 C 0.19475 0.58235 0.8051 0.0
O232 O 0.20789 0.59314 0.79163 0.0
O233 O 0.18658 0.6191 0.88616 0.0
C234 C 0.43606 0.29122 0.77766 0.0
O235 O 0.42725 0.28066 0.75697 0.0
O236 O 0.39107 0.26719 0.78256 0.0
Zn237 Zn 0.39898 0.29041 0.80791 0.0
O238 O 0.39649 0.28303 0.85169 0.0
C239 C 0.37273 0.31556 0.77484 0.0
O240 O 0.37703 0.3038 0.75222 0.0
O241 O 0.4266 0.2975 0.80027 0.0
C242 C 0.37999 0.27996 0.86307 0.0
O243 O 0.3647 0.28149 0.84578 0.0
C244 C 0.39562 0.24972 0.79007 0.0
O245 O 0.40591 0.24688 0.81459 0.0
O246 O 0.38102 0.31308 0.80015 0.0
C247 C 0.82945 0.35764 0.81078 0.0
O248 O 0.82661 0.37415 0.7959 0.0
O249 O 0.80561 0.40162 0.83974 0.0
Zn250 Zn 0.8006 0.3734 0.8517 0.0
O251 O 0.77473 0.3647 0.83653 0.0
C252 C 0.80804 0.38334 0.91475 0.0
O253 O 0.81885 0.39739 0.90338 0.0
O254 O 0.8204 0.35466 0.8353 0.0
C255 C 0.75961 0.37107 0.84935 0.0
O256 O 0.76124 0.38386 0.87153 0.0
C257 C 0.7964 0.40997 0.81847 0.0
O258 O 0.78394 0.39969 0.80268 0.0
O259 O 0.7996 0.37139 0.89704 0.0
C260 C 0.55221 0.28039 0.21936 0.0
O261 O 0.56099 0.26999 0.24026 0.0
O262 O 0.59726 0.25611 0.21407 0.0
Zn263 Zn 0.58928 0.27937 0.18893 0.0
O264 O 0.59186 0.27239 0.14501 0.0
C265 C 0.61583 0.30411 0.22215 0.0
O266 O 0.61219 0.29173 0.24426 0.0
O267 O 0.56166 0.28638 0.19656 0.0
C268 C 0.60808 0.26769 0.13393 0.0
O269 O 0.62321 0.26714 0.15169 0.0
C270 C 0.59372 0.23849 0.20601 0.0
O271 O 0.58424 0.2353 0.18079 0.0
O272 O 0.60708 0.30209 0.19711 0.0
C273 C 0.81843 0.63544 0.18614 0.0
O274 O 0.82471 0.62808 0.1605 0.0
O275 O 0.7811 0.58831 0.18434 0.0
Zn276 Zn 0.78191 0.61655 0.17068 0.0
O277 O 0.75631 0.62902 0.17854 0.0
C278 C 0.79146 0.60396 0.10935 0.0
O279 O 0.79432 0.5867 0.12203 0.0
O280 O 0.80127 0.63202 0.19442 0.0
C281 C 0.74232 0.62616 0.16063 0.0
O282 O 0.74456 0.61417 0.13757 0.0
C283 C 0.79595 0.57914 0.19341 0.0
O284 O 0.81257 0.58835 0.19411 0.0
O285 O 0.78683 0.61858 0.12579 0.0
C286 C 0.43807 0.71015 0.21191 0.0
O287 O 0.42823 0.71926 0.23306 0.0
O288 O 0.3917 0.73037 0.2063 0.0
Zn289 Zn 0.40121 0.70763 0.18139 0.0
O290 O 0.39817 0.71434 0.13746 0.0
C291 C 0.37663 0.68049 0.21426 0.0
O292 O 0.37925 0.69289 0.23672 0.0
O293 O 0.4293 0.70323 0.18905 0.0
C294 C 0.38151 0.71653 0.12619 0.0
O295 O 0.36638 0.71468 0.14376 0.0
C296 C 0.39613 0.74793 0.19908 0.0
O297 O 0.40691 0.75097 0.17514 0.0
O298 O 0.38526 0.68349 0.18937 0.0
C299 C 0.15996 0.35724 0.18386 0.0
O300 O 0.16607 0.37218 0.20015 0.0
O301 O 0.18458 0.40032 0.15363 0.0
Zn302 Zn 0.18775 0.37191 0.14107 0.0
O303 O 0.21273 0.36113 0.15667 0.0
C304 C 0.18079 0.3827 0.07844 0.0
O305 O 0.17141 0.39758 0.09046 0.0
O306 O 0.16669 0.35475 0.15745 0.0
C307 C 0.22867 0.36711 0.14609 0.0
O308 O 0.22869 0.38095 0.12531 0.0
C309 C 0.19407 0.40787 0.17531 0.0
O310 O 0.20589 0.39673 0.19094 0.0
O311 O 0.18849 0.36995 0.09566 0.0
C312 C 0.41105 0.27056 0.18977 0.0
O313 O 0.40019 0.26056 0.20862 0.0
O314 O 0.37131 0.24038 0.16942 0.0
Zn315 Zn 0.37876 0.26585 0.14892 0.0
O316 O 0.38022 0.26233 0.10366 0.0
C317 C 0.34593 0.28556 0.17686 0.0
O318 O 0.34512 0.26983 0.19415 0.0
O319 O 0.4047 0.2746 0.16357 0.0
C320 C 0.36568 0.26588 0.0871 0.0
O321 O 0.34941 0.27113 0.09989 0.0
C322 C 0.35831 0.22912 0.15895 0.0
O323 O 0.34961 0.23394 0.13367 0.0
O324 O 0.35924 0.28702 0.15733 0.0
C325 C 0.78981 0.43279 0.21193 0.0
O326 O 0.80558 0.42224 0.20954 0.0
O327 O 0.78981 0.37942 0.2219 0.0
Zn328 Zn 0.77214 0.396 0.19636 0.0
O329 O 0.78024 0.39389 0.15266 0.0
C330 C 0.73838 0.3804 0.22615 0.0
O331 O 0.7495 0.38091 0.25015 0.0
O332 O 0.77362 0.42447 0.20817 0.0
C333 C 0.77164 0.38268 0.134 0.0
O334 O 0.75702 0.37202 0.1433 0.0
C335 C 0.79139 0.36134 0.21476 0.0
O336 O 0.78152 0.35461 0.19165 0.0
O337 O 0.74495 0.38637 0.20097 0.0
C338 C 0.57533 0.74202 0.17465 0.0
O339 O 0.58611 0.75165 0.19405 0.0
O340 O 0.61643 0.77193 0.15391 0.0
Zn341 Zn 0.60681 0.74809 0.13165 0.0
O342 O 0.60467 0.75303 0.0869 0.0
C343 C 0.63381 0.72227 0.16177 0.0
O344 O 0.63034 0.7335 0.18535 0.0
O345 O 0.58128 0.73938 0.14782 0.0
C346 C 0.59368 0.74156 0.07213 0.0
O347 O 0.58389 0.72804 0.08681 0.0
C348 C 0.63317 0.77848 0.14836 0.0
O349 O 0.64351 0.76997 0.1272 0.0
O350 O 0.6254 0.72586 0.13692 0.0
C351 C 0.20114 0.5545 0.18772 0.0
O352 O 0.18813 0.56514 0.17364 0.0
O353 O 0.20643 0.60942 0.20936 0.0
Zn354 Zn 0.2213 0.59068 0.18293 0.0
O355 O 0.21325 0.59316 0.13937 0.0
C356 C 0.25643 0.60143 0.21239 0.0
O357 O 0.24545 0.59996 0.23645 0.0
O358 O 0.2169 0.56256 0.19541 0.0
C359 C 0.21376 0.60913 0.12436 0.0
O360 O 0.21972 0.62537 0.13758 0.0
C361 C 0.19002 0.61646 0.20281 0.0
O362 O 0.18146 0.6109 0.17775 0.0
O363 O 0.24931 0.59761 0.18658 0.0
C364 C 0.41126 0.71798 0.79598 0.0
O365 O 0.40004 0.72816 0.77787 0.0
O366 O 0.37294 0.74936 0.81879 0.0
Zn367 Zn 0.38024 0.72367 0.83886 0.0
O368 O 0.38268 0.72747 0.884 0.0
C369 C 0.34724 0.70397 0.81118 0.0
O370 O 0.34742 0.71881 0.79211 0.0
O371 O 0.40563 0.71422 0.82269 0.0
C372 C 0.36841 0.7241 0.90123 0.0
O373 O 0.35198 0.71859 0.88924 0.0
C374 C 0.35929 0.75998 0.82877 0.0
O375 O 0.34977 0.75417 0.85279 0.0
O376 O 0.36002 0.703 0.83164 0.0
C377 C 0.1929 0.43583 0.79056 0.0
O378 O 0.17915 0.4256 0.80355 0.0
O379 O 0.19702 0.38065 0.76968 0.0
Zn380 Zn 0.21213 0.39903 0.79644 0.0
O381 O 0.20359 0.39653 0.83974 0.0
C382 C 0.24779 0.38729 0.76871 0.0
O383 O 0.23737 0.38815 0.74398 0.0
O384 O 0.20861 0.42727 0.78402 0.0
C385 C 0.20807 0.38177 0.85595 0.0
O386 O 0.21833 0.36747 0.84404 0.0
C387 C 0.18101 0.37313 0.77735 0.0
O388 O 0.17335 0.37798 0.80345 0.0
O389 O 0.24009 0.39168 0.79388 0.0
C390 C 0.57674 0.27608 0.80634 0.0
O391 O 0.5877 0.26609 0.78763 0.0
O392 O 0.61854 0.24786 0.82535 0.0
Zn393 Zn 0.60842 0.27106 0.84874 0.0
O394 O 0.60548 0.26431 0.89268 0.0
C395 C 0.63843 0.29497 0.82277 0.0
O396 O 0.63646 0.28272 0.79998 0.0
O397 O 0.58281 0.27984 0.83281 0.0
C398 C 0.62018 0.26126 0.90909 0.0
O399 O 0.63733 0.26176 0.89665 0.0
C400 C 0.6167 0.22987 0.83284 0.0
O401 O 0.60713 0.22533 0.85747 0.0
O402 O 0.62757 0.29314 0.84569 0.0
C403 C 0.79207 0.55686 0.81792 0.0
O404 O 0.80531 0.56685 0.83258 0.0
O405 O 0.79096 0.61138 0.80056 0.0
Zn406 Zn 0.77309 0.5936 0.82385 0.0
O407 O 0.77879 0.59477 0.86844 0.0
C408 C 0.7404 0.60762 0.79032 0.0
O409 O 0.75269 0.60662 0.76782 0.0
O410 O 0.77655 0.5655 0.81055 0.0
C411 C 0.77579 0.61 0.88449 0.0
O412 O 0.76876 0.62593 0.8717 0.0
C413 C 0.80626 0.61882 0.81139 0.0
O414 O 0.81135 0.61458 0.83923 0.0
O415 O 0.74581 0.60242 0.81658 0.0
H416 H 0.2217 0.11897 0.22283 0.0
H417 H 0.12946 0.15359 0.31686 0.0
H418 H 0.21292 0.10637 0.31747 0.0
H419 H 0.14149 0.17273 0.22573 0.0
H420 H 0.15753 0.13207 0.31482 0.0
H421 H 0.19006 0.13464 0.22108 0.0
C422 C 0.21306 0.11932 0.24318 0.0
C423 C 0.22007 0.11151 0.27043 0.0
C424 C 0.15395 0.14085 0.29517 0.0
C425 C 0.18385 0.12945 0.26856 0.0
C426 C 0.13788 0.15313 0.29627 0.0
C427 C 0.13322 0.16517 0.27153 0.0
C428 C 0.1655 0.14059 0.26915 0.0
C429 C 0.14462 0.16383 0.24543 0.0
C430 C 0.19501 0.12831 0.24217 0.0
C431 C 0.20819 0.11234 0.29604 0.0
N432 N 0.16033 0.15189 0.24501 0.0
N433 N 0.19073 0.12126 0.29451 0.0
H434 H 0.74216 0.14818 0.30399 0.0
H435 H 0.84755 0.17203 0.36404 0.0
H436 H 0.76965 0.11602 0.37628 0.0
H437 H 0.82338 0.1983 0.28367 0.0
H438 H 0.81995 0.1499 0.36689 0.0
H439 H 0.77245 0.16525 0.29416 0.0
C440 C 0.75461 0.14459 0.31765 0.0
C441 C 0.75332 0.1308 0.34121 0.0
C442 C 0.82077 0.16036 0.34844 0.0
C443 C 0.788 0.15036 0.33018 0.0
C444 C 0.83653 0.17302 0.34681 0.0
C445 C 0.83768 0.18717 0.32375 0.0
C446 C 0.80594 0.16197 0.32702 0.0
C447 C 0.82303 0.18768 0.30194 0.0
C448 C 0.77191 0.15432 0.31198 0.0
C449 C 0.76995 0.12663 0.35801 0.0
N450 N 0.80765 0.17541 0.30431 0.0
N451 N 0.78655 0.13652 0.35237 0.0
H452 H 0.86619 0.82486 0.34694 0.0
H453 H 0.784 0.8671 0.23846 0.0
H454 H 0.8592 0.80718 0.25382 0.0
H455 H 0.78858 0.88072 0.33352 0.0
H456 H 0.81427 0.84888 0.24163 0.0
H457 H 0.84069 0.84916 0.34025 0.0
C458 C 0.85943 0.82621 0.32497 0.0
C459 C 0.86469 0.81377 0.30099 0.0
C460 C 0.80873 0.85602 0.26172 0.0
C461 C 0.83535 0.84154 0.29325 0.0
C462 C 0.79146 0.86646 0.25993 0.0
C463 C 0.78362 0.87527 0.28585 0.0
C464 C 0.81823 0.85438 0.28963 0.0
C465 C 0.79398 0.87401 0.31301 0.0
C466 C 0.84484 0.84009 0.32119 0.0
C467 C 0.85551 0.81633 0.273 0.0
N468 N 0.81066 0.86362 0.31423 0.0
N469 N 0.84116 0.8298 0.26998 0.0
H470 H 0.17957 0.78874 0.27078 0.0
H471 H 0.22696 0.87643 0.36629 0.0
H472 H 0.15099 0.81891 0.34404 0.0
H473 H 0.25794 0.84136 0.301 0.0
H474 H 0.1975 0.85877 0.3531 0.0
H475 H 0.20684 0.81124 0.27618 0.0
C476 C 0.17893 0.80022 0.28777 0.0
C477 C 0.16307 0.8018 0.30721 0.0
C478 C 0.21073 0.85503 0.34152 0.0
C479 C 0.19423 0.82752 0.3136 0.0
C480 C 0.22755 0.86514 0.34901 0.0
C481 C 0.24499 0.86021 0.33498 0.0
C482 C 0.21134 0.83992 0.31981 0.0
C483 C 0.24486 0.84551 0.31262 0.0
C484 C 0.19452 0.81303 0.2909 0.0
C485 C 0.16299 0.81701 0.32875 0.0
N486 N 0.22832 0.83579 0.30588 0.0
N487 N 0.1784 0.82919 0.3315 0.0
H488 H 0.13548 0.84309 0.66992 0.0
H489 H 0.22586 0.87625 0.76966 0.0
H490 H 0.14481 0.82403 0.76187 0.0
H491 H 0.21941 0.88945 0.67474 0.0
H492 H 0.19402 0.86096 0.76937 0.0
H493 H 0.16386 0.8641 0.67363 0.0
C494 C 0.14338 0.84346 0.69102 0.0
C495 C 0.13786 0.83159 0.71553 0.0
C496 C 0.19952 0.86733 0.74867 0.0
C497 C 0.17049 0.85559 0.71985 0.0
C498 C 0.21769 0.8761 0.74881 0.0
C499 C 0.2254 0.88398 0.7221 0.0
C500 C 0.18896 0.86646 0.72163 0.0
C501 C 0.21412 0.88342 0.69581 0.0
C502 C 0.15963 0.85545 0.69309 0.0
C503 C 0.14861 0.8328 0.74233 0.0
N504 N 0.19653 0.8747 0.6962 0.0
N505 N 0.1645 0.84445 0.74369 0.0
H506 H 0.25369 0.15443 0.69362 0.0
H507 H 0.14371 0.16925 0.6473 0.0
H508 H 0.22388 0.11746 0.62942 0.0
H509 H 0.17284 0.20502 0.71385 0.0
H510 H 0.17198 0.14806 0.64429 0.0
H511 H 0.22342 0.17108 0.70498 0.0
C512 C 0.24075 0.1497 0.68206 0.0
C513 C 0.24137 0.13465 0.66028 0.0
C514 C 0.17214 0.16042 0.65978 0.0
C515 C 0.20665 0.15373 0.67312 0.0
C516 C 0.15598 0.17254 0.66154 0.0
C517 C 0.15597 0.18907 0.68065 0.0
C518 C 0.18849 0.16491 0.67709 0.0
C519 C 0.17224 0.19251 0.69867 0.0
C520 C 0.22346 0.15921 0.68859 0.0
C521 C 0.22411 0.12907 0.64621 0.0
N522 N 0.18792 0.18065 0.69623 0.0
N523 N 0.2075 0.13872 0.65269 0.0
H524 H 0.7845 0.08973 0.66609 0.0
H525 H 0.83869 0.17374 0.76066 0.0
H526 H 0.75936 0.12072 0.74161 0.0
H527 H 0.86096 0.14862 0.67812 0.0
H528 H 0.81163 0.15084 0.75828 0.0
H529 H 0.81458 0.10765 0.67441 0.0
C530 C 0.78535 0.10014 0.68461 0.0
C531 C 0.76931 0.10386 0.703 0.0
C532 C 0.82251 0.15023 0.74081 0.0
C533 C 0.80368 0.12444 0.7126 0.0
C534 C 0.83801 0.16328 0.74219 0.0
C535 C 0.85203 0.16326 0.71939 0.0
C536 C 0.82099 0.13702 0.71645 0.0
C537 C 0.85041 0.14928 0.69608 0.0
C538 C 0.80252 0.11041 0.6893 0.0
C539 C 0.77129 0.11749 0.7267 0.0
N540 N 0.8351 0.13683 0.6951 0.0
N541 N 0.7881 0.12736 0.73069 0.0
H542 H 0.8177 0.78093 0.73926 0.0
H543 H 0.77738 0.87729 0.65653 0.0
H544 H 0.85248 0.81958 0.68426 0.0
H545 H 0.74179 0.83615 0.70572 0.0
H546 H 0.80582 0.85879 0.67223 0.0
H547 H 0.79062 0.80352 0.73315 0.0
C548 C 0.81972 0.79427 0.7262 0.0
C549 C 0.83733 0.79825 0.71197 0.0
C550 C 0.7918 0.85389 0.67977 0.0
C551 C 0.80635 0.82411 0.70472 0.0
C552 C 0.77555 0.86447 0.67083 0.0
C553 C 0.75716 0.85814 0.67954 0.0
C554 C 0.78965 0.83686 0.69753 0.0
C555 C 0.75567 0.84147 0.69823 0.0
C556 C 0.80423 0.80715 0.72265 0.0
C557 C 0.83913 0.81582 0.69542 0.0
N558 N 0.77169 0.83133 0.70641 0.0
N559 N 0.82378 0.82801 0.69204 0.0
H560 H 0.64392 0.67389 0.72088 0.0
H561 H 0.71114 0.61106 0.83147 0.0
H562 H 0.62844 0.65864 0.81244 0.0
H563 H 0.72528 0.62311 0.73828 0.0
H564 H 0.67989 0.62671 0.8239 0.0
H565 H 0.67278 0.65354 0.72564 0.0
C566 C 0.64648 0.66612 0.74189 0.0
C567 C 0.63379 0.66812 0.76637 0.0
C568 C 0.68977 0.62582 0.80503 0.0
C569 C 0.6669 0.6449 0.77206 0.0
C570 C 0.70764 0.61689 0.80935 0.0
C571 C 0.72093 0.61588 0.78553 0.0
C572 C 0.68514 0.63392 0.77672 0.0
C573 C 0.71554 0.62362 0.75734 0.0
C574 C 0.66298 0.65452 0.74461 0.0
C575 C 0.63784 0.65764 0.79301 0.0
N576 N 0.69812 0.63244 0.75378 0.0
N577 N 0.65411 0.64663 0.79521 0.0
H578 H 0.2651 0.61554 0.86596 0.0
H579 H 0.31527 0.70362 0.77486 0.0
H580 H 0.23625 0.65047 0.79811 0.0
H581 H 0.34257 0.67173 0.84762 0.0
H582 H 0.28752 0.68165 0.77881 0.0
H583 H 0.29488 0.63339 0.85536 0.0
C584 C 0.26505 0.62685 0.84868 0.0
C585 C 0.2481 0.63164 0.83311 0.0
C586 C 0.29965 0.67937 0.79376 0.0
C587 C 0.28213 0.65216 0.82091 0.0
C588 C 0.31553 0.69189 0.79146 0.0
C589 C 0.33121 0.68963 0.81111 0.0
C590 C 0.29945 0.66449 0.81586 0.0
C591 C 0.33075 0.67412 0.83214 0.0
C592 C 0.28206 0.63706 0.84266 0.0
C593 C 0.24893 0.64639 0.81086 0.0
N594 N 0.31507 0.66224 0.83408 0.0
N595 N 0.26562 0.6562 0.80556 0.0
H596 H 0.35856 0.34024 0.81844 0.0
H597 H 0.26762 0.37313 0.71977 0.0
H598 H 0.35002 0.32301 0.72545 0.0
H599 H 0.27356 0.38452 0.81533 0.0
H600 H 0.29978 0.35856 0.71954 0.0
H601 H 0.32964 0.36051 0.8156 0.0
C602 C 0.35073 0.34088 0.7973 0.0
C603 C 0.35663 0.32973 0.77222 0.0
C604 C 0.29409 0.36437 0.7405 0.0
C605 C 0.32337 0.35285 0.7689 0.0
C606 C 0.27573 0.37272 0.74066 0.0
C607 C 0.2678 0.3799 0.76767 0.0
C608 C 0.30461 0.36323 0.76755 0.0
C609 C 0.27902 0.37903 0.79402 0.0
C610 C 0.33416 0.35242 0.79573 0.0
C611 C 0.34593 0.33123 0.74541 0.0
N612 N 0.2968 0.37075 0.79332 0.0
N613 N 0.32973 0.34244 0.74453 0.0
H614 H 0.64545 0.3238 0.86467 0.0
H615 H 0.75082 0.346 0.80281 0.0
H616 H 0.66801 0.29868 0.78232 0.0
H617 H 0.72516 0.37717 0.87774 0.0
H618 H 0.71996 0.33 0.79307 0.0
H619 H 0.67376 0.34496 0.86804 0.0
C620 C 0.65627 0.32286 0.84713 0.0
C621 C 0.65444 0.30931 0.82331 0.0
C622 C 0.72103 0.34048 0.81146 0.0
C623 C 0.68699 0.3334 0.82718 0.0
C624 C 0.73865 0.34961 0.81707 0.0
C625 C 0.74062 0.3628 0.84132 0.0
C626 C 0.70529 0.34443 0.83041 0.0
C627 C 0.72434 0.36701 0.8589 0.0
C628 C 0.67244 0.33497 0.84906 0.0
C629 C 0.66887 0.30883 0.80115 0.0
N630 N 0.70741 0.3577 0.85329 0.0
N631 N 0.68464 0.32055 0.8038 0.0
H632 H 0.62815 0.33066 0.17979 0.0
H633 H 0.72082 0.36305 0.27487 0.0
H634 H 0.63975 0.31043 0.27051 0.0
H635 H 0.71138 0.37825 0.18128 0.0
H636 H 0.6893 0.34704 0.27595 0.0
H637 H 0.65655 0.35169 0.18243 0.0
C638 C 0.63655 0.33078 0.2004 0.0
C639 C 0.63165 0.31859 0.22486 0.0
C640 C 0.69409 0.354 0.25525 0.0
C641 C 0.66432 0.34259 0.22795 0.0
C642 C 0.71208 0.36316 0.25462 0.0
C643 C 0.71883 0.37187 0.22787 0.0
C644 C 0.68276 0.35358 0.22897 0.0
C645 C 0.70684 0.37161 0.20235 0.0
C646 C 0.65281 0.34277 0.20186 0.0
C647 C 0.64305 0.31947 0.25103 0.0
N648 N 0.68945 0.36252 0.20349 0.0
N649 N 0.65895 0.33114 0.25179 0.0
H650 H 0.73254 0.65122 0.20665 0.0
H651 H 0.64157 0.6943 0.11905 0.0
H652 H 0.71161 0.62786 0.12201 0.0
H653 H 0.65833 0.71337 0.20838 0.0
H654 H 0.66627 0.66884 0.12092 0.0
H655 H 0.70454 0.67288 0.20907 0.0
C656 C 0.72197 0.65052 0.18869 0.0
C657 C 0.72451 0.63783 0.16394 0.0
C658 C 0.66448 0.67849 0.14022 0.0
C659 C 0.6925 0.66269 0.16649 0.0
C660 C 0.6504 0.69308 0.13914 0.0
C661 C 0.64798 0.70609 0.16352 0.0
C662 C 0.67637 0.67696 0.16575 0.0
C663 C 0.65974 0.70371 0.18903 0.0
C664 C 0.70598 0.66289 0.19011 0.0
C665 C 0.7103 0.63747 0.14144 0.0
N666 N 0.67354 0.68952 0.18938 0.0
N667 N 0.69499 0.64986 0.14312 0.0
H668 H 0.27456 0.61554 0.26296 0.0
H669 H 0.3659 0.65415 0.17052 0.0
H670 H 0.28334 0.60542 0.16761 0.0
H671 H 0.35328 0.6715 0.2623 0.0
H672 H 0.33855 0.63164 0.17177 0.0
H673 H 0.30601 0.63156 0.26553 0.0
C674 C 0.28317 0.6165 0.24262 0.0
C675 C 0.2762 0.60931 0.21494 0.0
C676 C 0.34186 0.64024 0.19174 0.0
C677 C 0.3122 0.62767 0.21776 0.0
C678 C 0.35752 0.65307 0.19109 0.0
C679 C 0.36176 0.66493 0.21624 0.0
C680 C 0.3303 0.63924 0.21771 0.0
C681 C 0.35045 0.66278 0.2423 0.0
C682 C 0.30112 0.62569 0.24411 0.0
C683 C 0.28805 0.6109 0.18937 0.0
N684 N 0.33512 0.65032 0.24226 0.0
N685 N 0.30539 0.62002 0.19136 0.0
H686 H 0.23365 0.33832 0.18876 0.0
H687 H 0.34346 0.31985 0.14455 0.0
H688 H 0.26501 0.37397 0.12467 0.0
H689 H 0.31256 0.2847 0.20982 0.0
H690 H 0.31588 0.34194 0.14101 0.0
H691 H 0.26327 0.32063 0.20061 0.0
C692 C 0.2468 0.34254 0.17733 0.0
C693 C 0.2468 0.35752 0.15543 0.0
C694 C 0.31518 0.32951 0.15633 0.0
C695 C 0.28077 0.33725 0.16885 0.0
C696 C 0.33094 0.31688 0.15839 0.0
C697 C 0.33025 0.30027 0.1773 0.0
C698 C 0.29852 0.32546 0.17315 0.0
C699 C 0.31369 0.29725 0.19481 0.0
C700 C 0.26372 0.33242 0.18414 0.0
C701 C 0.26429 0.36243 0.14154 0.0
N702 N 0.29841 0.30962 0.19209 0.0
N703 N 0.28054 0.35221 0.1483 0.0
H704 H 0.93853 0.19769 0.33881 0.0
H705 H 0.02954 0.22383 0.23675 0.0
H706 H 0.9353 0.23489 0.25979 0.0
H707 H 0.03123 0.18512 0.31419 0.0
H708 H 0.99449 0.22513 0.24097 0.0
H709 H 0.97187 0.1902 0.32659 0.0
C710 C 0.94481 0.20422 0.31876 0.0
C711 C 0.93417 0.21713 0.30049 0.0
C712 C 0.00253 0.21618 0.2568 0.0
C713 C 0.97247 0.20866 0.28639 0.0
C714 C 0.02254 0.21538 0.25436 0.0
C715 C 0.03336 0.20456 0.27541 0.0
C716 C 0.99331 0.20613 0.28049 0.0
C717 C 0.02351 0.19385 0.29768 0.0
C718 C 0.96386 0.19989 0.31175 0.0
C719 C 0.94301 0.22496 0.27462 0.0
N720 N 0.00408 0.19507 0.29981 0.0
N721 N 0.96174 0.22077 0.2685 0.0
H722 H 0.67575 0.05445 0.34194 0.0
H723 H 0.73441 0.96176 0.28103 0.0
H724 H 0.72425 0.05972 0.28159 0.0
H725 H 0.67919 0.95716 0.32506 0.0
H726 H 0.73081 -0.00236 0.28008 0.0
H727 H 0.67654 0.01873 0.33527 0.0
C728 C 0.68649 0.0481 0.32712 0.0
C729 C 0.70004 0.06007 0.31245 0.0
C730 C 0.71941 0.98875 0.28969 0.0
C731 C 0.70112 0.01916 0.30489 0.0
C732 C 0.72147 0.96827 0.29028 0.0
C733 C 0.70715 0.95645 0.30336 0.0
C734 C 0.703 -0.00255 0.30254 0.0
C735 C 0.69064 0.96568 0.31488 0.0
C736 C 0.68691 0.0277 0.32327 0.0
C737 C 0.71356 0.05105 0.29339 0.0
N738 N 0.6891 0.98564 0.31445 0.0
N739 N 0.71388 0.0311 0.29039 0.0
H740 H 0.06088 0.79718 0.31942 0.0
H741 H 0.95455 0.75453 0.30022 0.0
H742 H 0.04787 0.73772 0.29104 0.0
H743 H 0.96686 0.81223 0.33677 0.0
H744 H 0.98859 0.75017 0.28934 0.0
H745 H 0.02656 0.80488 0.31835 0.0
C746 C 0.05084 0.78581 0.31257 0.0
C747 C 0.05724 0.76669 0.30566 0.0
C748 C 0.98387 0.76385 0.29953 0.0
C749 C 0.01796 0.77539 0.30457 0.0
C750 C 0.9644 0.76637 0.30578 0.0
C751 C 0.95787 0.78368 0.31983 0.0
C752 C -0.00302 0.77871 0.30747 0.0
C753 C 0.97129 0.79858 0.32616 0.0
C754 C 0.03124 0.79021 0.31206 0.0
C755 C 0.04358 0.75259 0.29685 0.0
N756 N 0.99026 0.79567 0.3202 0.0
N757 N 0.02459 0.75718 0.29681 0.0
H758 H 0.27697 0.93033 0.27364 0.0
H759 H 0.325 0.03348 0.31859 0.0
H760 H 0.32319 0.93633 0.33816 0.0
H761 H 0.27095 0.02855 0.27114 0.0
H762 H 0.3277 -0.00242 0.31858 0.0
H763 H 0.27773 0.96599 0.26543 0.0
C764 C 0.28739 0.93911 0.28588 0.0
C765 C 0.29993 0.93036 0.30682 0.0
C766 C 0.31531 0.00436 0.30799 0.0
C767 C 0.30088 0.97113 0.29748 0.0
C768 C 0.31379 0.02487 0.30788 0.0
C769 C 0.29762 0.03403 0.29511 0.0
C770 C 0.30062 0.99292 0.2951 0.0
C771 C 0.28358 0.0221 0.28147 0.0
C772 C 0.28778 0.95947 0.28124 0.0
C773 C 0.31316 0.94247 0.322 0.0
N774 N 0.28535 0.00214 0.28197 0.0
N775 N 0.31323 0.96224 0.31711 0.0
H776 H 0.03558 0.8136 0.688 0.0
H777 H 0.94811 0.75864 0.76854 0.0
H778 H 0.04257 0.77694 0.76698 0.0
H779 H 0.94234 0.79734 0.69158 0.0
H780 H 0.98204 0.76803 0.77248 0.0
H781 H 0.00082 0.81098 0.69331 0.0
C782 C 0.02978 0.80517 0.7067 0.0
C783 C 0.04199 0.79527 0.72686 0.0
C784 C 0.97327 0.77461 0.75495 0.0
C785 C 0.00211 0.79196 0.73288 0.0
C786 C 0.9539 0.76926 0.75269 0.0
C787 C 0.94243 0.77701 0.72943 0.0
C788 C 0.98118 0.78777 0.73379 0.0
C789 C 0.95068 0.79078 0.70964 0.0
C790 C 0.00991 0.80366 0.70973 0.0
C791 C 0.03367 0.78474 0.75085 0.0
N792 N 0.96955 0.79558 0.71212 0.0
N793 N 0.01422 0.78312 0.75295 0.0
H794 H 0.329 0.96409 0.67614 0.0
H795 H 0.27646 0.06465 0.72244 0.0
H796 H 0.2756 0.96628 0.72582 0.0
H797 H 0.32246 0.06104 0.65716 0.0
H798 H 0.27911 0.02909 0.73075 0.0
H799 H 0.33 8e-05 0.67619 0.0
C800 C 0.31758 0.97212 0.68736 0.0
C801 C 0.30208 0.96214 0.70073 0.0
C802 C 0.2887 0.03612 0.71476 0.0
C803 C 0.30313 0.00337 0.70076 0.0
C804 C 0.28723 0.05642 0.71004 0.0
C805 C 0.29915 0.06581 0.68887 0.0
C806 C 0.30226 0.02515 0.69833 0.0
C807 C 0.31287 0.0544 0.67351 0.0
C808 C 0.31814 0.99268 0.68728 0.0
C809 C 0.28774 0.97335 0.71502 0.0
N810 N 0.314 0.03467 0.67846 0.0
N811 N 0.28855 0.99338 0.71449 0.0
H812 H 0.05474 0.22704 0.74229 0.0
H813 H 0.95605 0.18272 0.67882 0.0
H814 H 0.04929 0.19601 0.6575 0.0
H815 H 0.95964 0.21902 0.75882 0.0
H816 H 0.99101 0.18333 0.67497 0.0
H817 H 0.02079 0.22037 0.75266 0.0
C818 C 0.04647 0.21868 0.72597 0.0
C819 C 0.05483 0.21226 0.69883 0.0
C820 C 0.98418 0.19103 0.69353 0.0
C821 C 0.016 0.20457 0.71057 0.0
C822 C 0.96419 0.19065 0.6958 0.0
C823 C 0.95486 0.20104 0.71899 0.0
C824 C 0.99498 0.20192 0.71454 0.0
C825 C 0.96621 0.21092 0.74044 0.0
C826 C 0.02708 0.2149 0.7319 0.0
C827 C 0.04342 0.20143 0.67858 0.0
N828 N 0.98567 0.21128 0.73753 0.0
N829 N 0.02459 0.19803 0.68479 0.0
H830 H 0.73286 0.02378 0.75683 0.0
H831 H 0.68288 0.93622 0.66523 0.0
H832 H 0.68704 0.0323 0.69223 0.0
H833 H 0.72191 0.92633 0.73959 0.0
H834 H 0.6837 0.9715 0.67595 0.0
H835 H 0.72854 0.98806 0.75224 0.0
C836 C 0.72179 0.01817 0.7419 0.0
C837 C 0.7104 0.03107 0.72473 0.0
C838 C 0.69198 0.96162 0.69009 0.0
C839 C 0.70549 0.99026 0.7192 0.0
C840 C 0.69154 0.94145 0.68394 0.0
C841 C 0.70244 0.92831 0.70143 0.0
C842 C 0.70355 0.96876 0.71373 0.0
C843 C 0.71332 0.93594 0.72548 0.0
C844 C 0.71934 -0.00222 0.73928 0.0
C845 C 0.69625 0.02295 0.7058 0.0
N846 N 0.71373 0.95569 0.73077 0.0
N847 N 0.69431 0.0031 0.70337 0.0
H848 H 0.52488 0.72236 0.71969 0.0
H849 H 0.43648 0.69367 0.82525 0.0
H850 H 0.52888 0.68243 0.79544 0.0
H851 H 0.43065 0.7292 0.74481 0.0
H852 H 0.46975 0.68677 0.81151 0.0
H853 H 0.48987 0.72218 0.72487 0.0
C854 C 0.51841 0.7133 0.7371 0.0
C855 C 0.52987 0.70262 0.75745 0.0
C856 C 0.46117 0.69592 0.79667 0.0
C857 C 0.48984 0.70254 0.7637 0.0
C858 C 0.44216 0.69992 0.80456 0.0
C859 C 0.43083 0.71223 0.78633 0.0
C860 C 0.46903 0.70446 0.77051 0.0
C861 C 0.43891 0.71973 0.75963 0.0
C862 C 0.4984 0.71325 0.74009 0.0
C863 C 0.52066 0.69108 0.77946 0.0
N864 N 0.45759 0.71592 0.7527 0.0
N865 N 0.50122 0.69155 0.78223 0.0
H866 H 0.16305 0.45934 0.80857 0.0
H867 H 0.21745 0.55992 0.76792 0.0
H868 H 0.21852 0.4616 0.76485 0.0
H869 H 0.16758 0.55648 0.82581 0.0
H870 H 0.21538 0.52432 0.75961 0.0
H871 H 0.16182 0.49531 0.80778 0.0
C872 C 0.17489 0.46738 0.79851 0.0
C873 C 0.19102 0.45743 0.78705 0.0
C874 C 0.20482 0.53139 0.77396 0.0
C875 C 0.1897 0.49865 0.78619 0.0
C876 C 0.20596 0.55172 0.77867 0.0
C877 C 0.19277 0.56117 0.79782 0.0
C878 C 0.19033 0.52046 0.78838 0.0
C879 C 0.17816 0.5498 0.81107 0.0
C880 C 0.17419 0.48793 0.79815 0.0
C881 C 0.20588 0.46865 0.77417 0.0
N882 N 0.17739 0.53004 0.80622 0.0
N883 N 0.20492 0.48867 0.77427 0.0
H884 H 0.45862 0.31241 0.8165 0.0
H885 H 0.55671 0.26577 0.75523 0.0
H886 H 0.46177 0.27467 0.73804 0.0
H887 H 0.55162 0.29917 0.83793 0.0
H888 H 0.52292 0.27287 0.74411 0.0
H889 H 0.49359 0.31195 0.81985 0.0
C890 C 0.46667 0.30419 0.79975 0.0
C891 C 0.45722 0.29333 0.7772 0.0
C892 C 0.52927 0.27878 0.76455 0.0
C893 C 0.49734 0.29261 0.78108 0.0
C894 C 0.54856 0.27475 0.7709 0.0
C895 C 0.55694 0.28169 0.79774 0.0
C896 C 0.51833 0.28986 0.78516 0.0
C897 C 0.54571 0.29332 0.81714 0.0
C898 C 0.48667 0.30391 0.80171 0.0
C899 C 0.46844 0.28313 0.75595 0.0
N900 N 0.52698 0.29692 0.81057 0.0
N901 N 0.48792 0.28283 0.75861 0.0
H902 H 0.82238 0.43522 0.84427 0.0
H903 H 0.76816 0.53179 0.78699 0.0
H904 H 0.77451 0.43375 0.78215 0.0
H905 H 0.82136 0.5331 0.8373 0.0
H906 H 0.77101 0.49596 0.78291 0.0
H907 H 0.82312 0.47111 0.84001 0.0
C908 C 0.81213 0.44243 0.82952 0.0
C909 C 0.79826 0.43147 0.81373 0.0
C910 C 0.78215 0.50411 0.7946 0.0
C911 C 0.79892 0.4726 0.80894 0.0
C912 C 0.78052 0.52457 0.79697 0.0
C913 C 0.79446 0.53545 0.81275 0.0
C914 C 0.79773 0.49443 0.80833 0.0
C915 C 0.81021 0.52532 0.82507 0.0
C916 C 0.81256 0.46293 0.82708 0.0
C917 C 0.7854 0.44161 0.79484 0.0
N918 N 0.81133 0.50537 0.82285 0.0
N919 N 0.78591 0.46162 0.79321 0.0
H920 H 0.43608 0.29375 0.15814 0.0
H921 H 0.52649 0.26522 0.26027 0.0
H922 H 0.43165 0.25908 0.23968 0.0
H923 H 0.52975 0.30099 0.1797 0.0
H924 H 0.49139 0.26592 0.2567 0.0
H925 H 0.46994 0.29957 0.16911 0.0
C926 C 0.4422 0.28746 0.17849 0.0
C927 C 0.43106 0.27571 0.19784 0.0
C928 C 0.49979 0.27379 0.24001 0.0
C929 C 0.46994 0.28223 0.21048 0.0
C930 C 0.51984 0.27343 0.24206 0.0
C931 C 0.53109 0.28284 0.22002 0.0
C932 C 0.49097 0.28359 0.21571 0.0
C933 C 0.52168 0.29333 0.19702 0.0
C934 C 0.46156 0.29082 0.18477 0.0
C935 C 0.43973 0.26813 0.22403 0.0
N936 N 0.50219 0.29325 0.19531 0.0
N937 N 0.45873 0.27134 0.22943 0.0
H938 H 0.76366 0.55623 0.19671 0.0
H939 H 0.82198 0.4558 0.21831 0.0
H940 H 0.82531 0.55384 0.20778 0.0
H941 H 0.76006 0.45918 0.21311 0.0
H942 H 0.82345 0.49182 0.2184 0.0
H943 H 0.762 0.52087 0.20627 0.0
C944 C 0.77685 0.54829 0.20131 0.0
C945 C 0.79468 0.55799 0.20119 0.0
C946 C 0.80954 0.48467 0.21751 0.0
C947 C 0.79288 0.51742 0.21206 0.0
C948 C 0.80868 0.4641 0.21748 0.0
C949 C 0.79088 0.45445 0.21538 0.0
C950 C 0.79247 0.49566 0.21526 0.0
C951 C 0.77412 0.46597 0.21453 0.0
C952 C 0.77589 0.52808 0.20682 0.0
C953 C 0.81127 0.54695 0.2075 0.0
N954 N 0.77534 0.48595 0.2142 0.0
N955 N 0.80999 0.52721 0.21245 0.0
H956 H 0.46195 0.72945 0.25155 0.0
H957 H 0.55248 0.71673 0.143 0.0
H958 H 0.46261 0.69272 0.17182 0.0
H959 H 0.55467 0.74992 0.22622 0.0
H960 H 0.52027 0.70566 0.15594 0.0
H961 H 0.49659 0.73464 0.24588 0.0
C962 C 0.46941 0.72223 0.23314 0.0
C963 C 0.45931 0.71086 0.21187 0.0
C964 C 0.52779 0.71526 0.17154 0.0
C965 C 0.49885 0.71689 0.20513 0.0
C966 C 0.5462 0.72166 0.16409 0.0
C967 C 0.55621 0.73445 0.18342 0.0
C968 C 0.51916 0.72183 0.19839 0.0
C969 C 0.54741 0.74015 0.2106 0.0
C970 C 0.48918 0.72525 0.22987 0.0
C971 C 0.46974 0.7018 0.18855 0.0
N972 N 0.52928 0.73395 0.21716 0.0
N973 N 0.48887 0.70519 0.18563 0.0
H974 H 0.169 0.43458 0.15084 0.0
H975 H 0.22466 0.528 0.2165 0.0
H976 H 0.21654 0.42998 0.21323 0.0
H977 H 0.17137 0.53197 0.16677 0.0
H978 H 0.22131 0.49211 0.21738 0.0
H979 H 0.16899 0.47028 0.15797 0.0
C980 C 0.17936 0.44106 0.16621 0.0
C981 C 0.19289 0.42928 0.1813 0.0
C982 C 0.21026 0.50085 0.20654 0.0
C983 C 0.19303 0.47019 0.18941 0.0
C984 C 0.21217 0.52135 0.20601 0.0
C985 C 0.19836 0.533 0.1913 0.0
C986 C 0.19452 0.49194 0.19202 0.0
C987 C 0.18242 0.52358 0.17823 0.0
C988 C 0.17932 0.46145 0.17031 0.0
C989 C 0.20589 0.43849 0.20106 0.0
N990 N 0.18104 0.5036 0.17864 0.0
N991 N 0.20576 0.45842 0.20432 0.0
H992 H 0.08098 0.22036 0.40402 0.0
H993 H 0.1501 0.21642 0.54823 0.0
H994 H 0.14265 0.21399 0.39827 0.0
H995 H 0.08937 0.22918 0.55359 0.0
H996 H 0.14772 0.21617 0.49321 0.0
H997 H 0.0838 0.2243 0.45871 0.0
C998 C 0.09513 0.21987 0.41424 0.0
C999 C 0.1116 0.21673 0.39654 0.0
C1000 C 0.13493 0.21913 0.50639 0.0
C1001 C 0.11492 0.22117 0.45919 0.0
C1002 C 0.13627 0.21925 0.53784 0.0
C1003 C 0.11988 0.22272 0.55557 0.0
C1004 C 0.11705 0.22237 0.4925 0.0
C1005 C 0.10237 0.22639 0.54083 0.0
C1006 C 0.09673 0.22215 0.44548 0.0
C1007 C 0.12956 0.21632 0.41101 0.0
N1008 N 0.10139 0.226 0.51015 0.0
N1009 N 0.13072 0.21839 0.44151 0.0
H1010 H 0.68508 0.08619 0.60754 0.0
H1011 H 0.70887 0.13331 0.44597 0.0
H1012 H 0.72817 0.13112 0.59343 0.0
H1013 H 0.66893 0.0853 0.45903 0.0
H1014 H 0.71459 0.13416 0.50036 0.0
H1015 H 0.67757 0.08705 0.55368 0.0
C1016 C 0.69294 0.09628 0.59314 0.0
C1017 C 0.70734 0.10856 0.60504 0.0
C1018 C 0.70453 0.12348 0.49136 0.0
C1019 C 0.69877 0.10961 0.54326 0.0
C1020 C 0.70121 0.123 0.46028 0.0
C1021 C 0.68843 0.10916 0.44787 0.0
C1022 C 0.69499 0.11003 0.51026 0.0
C1023 C 0.67894 0.09618 0.46757 0.0
C1024 C 0.68864 0.09675 0.56236 0.0
C1025 C 0.71701 0.12135 0.58526 0.0
N1026 N 0.68245 0.0969 0.49777 0.0
N1027 N 0.71256 0.12151 0.55534 0.0
H1028 H 0.91247 0.76014 0.44039 0.0
H1029 H 0.8443 0.76768 0.58561 0.0
H1030 H 0.85071 0.76599 0.43569 0.0
H1031 H 0.9055 0.75754 0.59093 0.0
H1032 H 0.84639 0.76648 0.53061 0.0
H1033 H 0.91025 0.75856 0.49548 0.0
C1034 C 0.89844 0.76103 0.45092 0.0
C1035 C 0.88175 0.76328 0.43338 0.0
C1036 C 0.85936 0.76444 0.54378 0.0
C1037 C 0.87912 0.76153 0.49644 0.0
C1038 C 0.85818 0.76513 0.57522 0.0
C1039 C 0.87477 0.76278 0.59293 0.0
C1040 C 0.87727 0.76146 0.52984 0.0
C1041 C 0.89235 0.75946 0.57818 0.0
C1042 C 0.89718 0.76011 0.48238 0.0
C1043 C 0.86396 0.7643 0.44827 0.0
N1044 N 0.89315 0.75899 0.54749 0.0
N1045 N 0.86313 0.7635 0.47892 0.0
H1046 H 0.30668 0.9122 0.60262 0.0
H1047 H 0.29267 0.85659 0.44456 0.0
H1048 H 0.27553 0.85748 0.59275 0.0
H1049 H 0.32471 0.91074 0.45476 0.0
H1050 H 0.28741 0.85592 0.4991 0.0
H1051 H 0.31456 0.91118 0.54888 0.0
C1052 C 0.30154 0.89992 0.58918 0.0
C1053 C 0.29034 0.88494 0.60221 0.0
C1054 C 0.29566 0.86791 0.48944 0.0
C1055 C 0.2993 0.88372 0.54056 0.0
C1056 C 0.29869 0.8683 0.45827 0.0
C1057 C 0.30909 0.88379 0.44501 0.0
C1058 C 0.30305 0.88314 0.50755 0.0
C1059 C 0.31656 0.89853 0.46396 0.0
C1060 C 0.30606 0.89935 0.55847 0.0
C1061 C 0.28416 0.86937 0.58368 0.0
N1062 N 0.31332 0.89788 0.49423 0.0
N1063 N 0.28865 0.86921 0.55378 0.0
H1064 H 0.1229 0.74716 0.4313 0.0
H1065 H 0.08125 0.7972 0.58165 0.0
H1066 H 0.08389 0.79669 0.43172 0.0
H1067 H 0.12571 0.75276 0.58229 0.0
H1068 H 0.08 0.79503 0.52667 0.0
H1069 H 0.12205 0.74681 0.48663 0.0
C1070 C 0.11407 0.75788 0.443 0.0
C1071 C 0.10353 0.77205 0.42686 0.0
C1072 C 0.09001 0.78572 0.53882 0.0
C1073 C 0.1025 0.77173 0.49007 0.0
C1074 C 0.09072 0.78693 0.57025 0.0
C1075 C 0.10369 0.77522 0.58663 0.0
C1076 C 0.10232 0.77267 0.52355 0.0
C1077 C 0.11556 0.76214 0.57059 0.0
C1078 C 0.11363 0.7577 0.47457 0.0
C1079 C 0.09234 0.78557 0.4432 0.0
N1080 N 0.11462 0.76125 0.53992 0.0
N1081 N 0.09216 0.7851 0.47387 0.0
H1082 H 0.29947 0.08275 0.39323 0.0
H1083 H 0.28909 0.13978 0.55081 0.0
H1084 H 0.27059 0.13876 0.40282 0.0
H1085 H 0.31826 0.08395 0.54073 0.0
H1086 H 0.28335 0.14038 0.49636 0.0
H1087 H 0.3076 0.08364 0.44685 0.0
C1088 C 0.29488 0.09528 0.40658 0.0
C1089 C 0.28425 0.11068 0.39349 0.0
C1090 C 0.29107 0.12804 0.50603 0.0
C1091 C 0.29351 0.11176 0.45505 0.0
C1092 C 0.29437 0.12768 0.53715 0.0
C1093 C 0.30412 0.11175 0.55041 0.0
C1094 C 0.29752 0.11233 0.488 0.0
C1095 C 0.31065 0.09652 0.53153 0.0
C1096 C 0.29954 0.09578 0.43723 0.0
C1097 C 0.27876 0.12655 0.41194 0.0
N1098 N 0.30716 0.09715 0.50132 0.0
N1099 N 0.28339 0.12665 0.4418 0.0
H1100 H 0.90225 0.23447 0.44592 0.0
H1101 H 0.84557 0.22638 0.6029 0.0
H1102 H 0.84033 0.23582 0.45294 0.0
H1103 H 0.90698 0.2191 0.59384 0.0
H1104 H 0.84354 0.23347 0.54879 0.0
H1105 H 0.90439 0.23271 0.50089 0.0
C1106 C 0.8891 0.23457 0.45901 0.0
C1107 C 0.87107 0.23511 0.44475 0.0
C1108 C 0.85746 0.23041 0.55869 0.0
C1109 C 0.87343 0.23298 0.50778 0.0
C1110 C 0.85864 0.22637 0.58958 0.0
C1111 C 0.87646 0.22198 0.60289 0.0
C1112 C 0.87423 0.23011 0.54099 0.0
C1113 C 0.89292 0.22225 0.58453 0.0
C1114 C 0.89033 0.23351 0.49043 0.0
C1115 C 0.85453 0.23529 0.46294 0.0
N1116 N 0.89139 0.22616 0.55453 0.0
N1117 N 0.8561 0.2341 0.49351 0.0
H1118 H 0.71798 0.8575 0.56231 0.0
H1119 H 0.69897 0.90496 0.39945 0.0
H1120 H 0.67787 0.90501 0.54658 0.0
H1121 H 0.73669 0.85539 0.41478 0.0
H1122 H 0.69042 0.9047 0.45298 0.0
H1123 H 0.72447 0.8561 0.50817 0.0
C1124 C 0.71049 0.86763 0.54748 0.0
C1125 C 0.69739 0.88145 0.55906 0.0
C1126 C 0.7005 0.89382 0.44462 0.0
C1127 C 0.7048 0.87992 0.49692 0.0
C1128 C 0.70539 0.89395 0.41404 0.0
C1129 C 0.71864 0.88022 0.40261 0.0
C1130 C 0.70896 0.8799 0.46401 0.0
C1131 C 0.72645 0.86628 0.42258 0.0
C1132 C 0.7142 0.86679 0.51652 0.0
C1133 C 0.6881 0.89414 0.53869 0.0
N1134 N 0.72156 0.86654 0.45232 0.0
N1135 N 0.69203 0.89311 0.50863 0.0
H1136 H 0.61723 0.76203 0.03336 0.0
H1137 H 0.56977 0.71392 0.8859 0.0
H1138 H 0.5689 0.72207 0.03487 0.0
H1139 H 0.62347 0.74589 0.88415 0.0
H1140 H 0.56718 0.72042 0.93987 0.0
H1141 H 0.61759 0.75997 0.97806 0.0
C1142 C 0.60658 0.75299 0.02207 0.0
C1143 C 0.5931 0.74208 0.03875 0.0
C1144 C 0.57952 0.72608 0.92771 0.0
C1145 C 0.59346 0.73965 0.97566 0.0
C1146 C 0.58101 0.72238 0.89683 0.0
C1147 C 0.59696 0.72923 0.88049 0.0
C1148 C 0.59406 0.73674 0.94247 0.0
C1149 C 0.61099 0.74021 0.8959 0.0
C1150 C 0.60685 0.75177 0.99054 0.0
C1151 C 0.57965 0.73061 0.02296 0.0
N1152 N 0.60926 0.74357 0.9261 0.0
N1153 N 0.58022 0.72964 0.99235 0.0
H1154 H 0.18427 0.5733 0.94294 0.0
H1155 H 0.21295 0.64038 0.08489 0.0
H1156 H 0.19214 0.63636 0.93729 0.0
H1157 H 0.20156 0.57788 0.0903 0.0
H1158 H 0.20446 0.63958 0.03121 0.0
H1159 H 0.18948 0.57506 0.99738 0.0
C1160 C 0.18698 0.58755 0.95316 0.0
C1161 C 0.18785 0.6047 0.93547 0.0
C1162 C 0.20375 0.62606 0.0442 0.0
C1163 C 0.19397 0.60681 0.99792 0.0
C1164 C 0.20861 0.62651 0.07484 0.0
C1165 C 0.20807 0.60915 0.09212 0.0
C1166 C 0.19835 0.60813 0.03071 0.0
C1167 C 0.20228 0.59161 0.07789 0.0
C1168 C 0.18997 0.58855 0.9843 0.0
C1169 C 0.19136 0.62275 0.95003 0.0
N1170 N 0.19773 0.59155 0.04804 0.0
N1171 N 0.19441 0.62332 0.98039 0.0
H1172 H 0.33696 0.27043 0.04544 0.0
H1173 H 0.40862 0.27348 0.90441 0.0
H1174 H 0.39809 0.26036 0.05283 0.0
H1175 H 0.34683 0.27654 0.89604 0.0
H1176 H 0.40503 0.26791 0.95865 0.0
H1177 H 0.34022 0.27187 0.99056 0.0
C1178 C 0.35106 0.26841 0.03552 0.0
C1179 C 0.3673 0.26539 0.05379 0.0
C1180 C 0.39225 0.26969 0.94493 0.0
C1181 C 0.37114 0.26714 0.99091 0.0
C1182 C 0.39429 0.27291 0.91395 0.0
C1183 C 0.378 0.2756 0.89567 0.0
C1184 C 0.3738 0.26928 0.9578 0.0
C1185 C 0.35979 0.2746 0.90927 0.0
C1186 C 0.35291 0.26922 0.00416 0.0
C1187 C 0.38519 0.26278 0.03964 0.0
N1188 N 0.35819 0.27165 0.93954 0.0
N1189 N 0.38665 0.26386 0.00905 0.0
H1190 H 0.75781 0.35881 0.08913 0.0
H1191 H 0.82321 0.40661 0.95957 0.0
H1192 H 0.79971 0.4045 0.10608 0.0
H1193 H 0.78446 0.35776 0.94495 0.0
H1194 H 0.81534 0.40577 0.01344 0.0
H1195 H 0.76779 0.35802 0.0363 0.0
C1196 C 0.76914 0.36867 0.08177 0.0
C1197 C 0.77789 0.38179 0.10207 0.0
C1198 C 0.80865 0.39518 0.99845 0.0
C1199 C 0.7894 0.38098 0.04148 0.0
C1200 C 0.81314 0.39563 0.96769 0.0
C1201 C 0.80444 0.38228 0.94767 0.0
C1202 C 0.79529 0.38131 0.00925 0.0
C1203 C 0.79151 0.36837 0.9595 0.0
C1204 C 0.77486 0.36818 0.05157 0.0
C1205 C 0.79254 0.39416 0.09121 0.0
N1206 N 0.78727 0.36832 0.98945 0.0
N1207 N 0.79778 0.39351 0.06163 0.0
H1208 H 0.64093 0.2599 0.10183 0.0
H1209 H 0.5869 0.2604 0.94207 0.0
H1210 H 0.57957 0.26685 0.0913 0.0
H1211 H 0.64861 0.25703 0.95155 0.0
H1212 H 0.5838 0.25946 0.99696 0.0
H1213 H 0.64386 0.25565 0.04714 0.0
C1214 C 0.62806 0.26042 0.08806 0.0
C1215 C 0.60999 0.26389 0.10115 0.0
C1216 C 0.59802 0.25881 0.98705 0.0
C1217 C 0.61325 0.25905 0.03856 0.0
C1218 C 0.59981 0.25932 0.95567 0.0
C1219 C 0.61806 0.25897 0.94216 0.0
C1220 C 0.6146 0.25797 0.00514 0.0
C1221 C 0.63426 0.25745 0.96098 0.0
C1222 C 0.62975 0.258 0.05683 0.0
C1223 C 0.59381 0.26434 0.08219 0.0
N1224 N 0.63215 0.25714 0.99152 0.0
N1225 N 0.59584 0.26205 0.05187 0.0
H1226 H 0.78337 0.63679 0.07548 0.0
H1227 H 0.79027 0.57938 0.91773 0.0
H1228 H 0.79979 0.57561 0.06723 0.0
H1229 H 0.77087 0.63962 0.92603 0.0
H1230 H 0.79608 0.57853 0.97209 0.0
H1231 H 0.78117 0.63893 0.02048 0.0
C1232 C 0.78667 0.62384 0.06212 0.0
C1233 C 0.79167 0.60595 0.07604 0.0
C1234 C 0.79061 0.59196 0.96204 0.0
C1235 C 0.78908 0.6083 0.013 0.0
C1236 C 0.78727 0.59246 0.93096 0.0
C1237 C 0.77996 0.60957 0.91729 0.0
C1238 C 0.78661 0.60869 0.97967 0.0
C1239 C 0.77644 0.62609 0.9356 0.0
C1240 C 0.78536 0.62507 0.03069 0.0
C1241 C 0.7958 0.58968 0.05752 0.0
N1242 N 0.77974 0.62521 0.96587 0.0
N1243 N 0.79432 0.59122 0.02699 0.0
H1244 H 0.40108 0.73127 0.93427 0.0
H1245 H 0.34802 0.71863 0.09377 0.0
H1246 H 0.34029 0.71992 0.9439 0.0
H1247 H 0.40968 0.72236 0.08385 0.0
H1248 H 0.34461 0.72256 0.03916 0.0
H1249 H 0.40417 0.7315 0.98933 0.0
C1250 C 0.38836 0.72894 0.94794 0.0
C1251 C 0.37042 0.72544 0.93444 0.0
C1252 C 0.35889 0.72259 0.04894 0.0
C1253 C 0.37386 0.72567 0.99744 0.0
C1254 C 0.36084 0.72038 0.08015 0.0
C1255 C 0.37917 0.72003 0.0934 0.0
C1256 C 0.37537 0.72451 0.03083 0.0
C1257 C 0.39527 0.72242 0.0746 0.0
C1258 C 0.39015 0.72904 0.97938 0.0
C1259 C 0.35443 0.72255 0.9533 0.0
N1260 N 0.393 0.72449 0.04426 0.0
N1261 N 0.35654 0.72267 0.98381 0.0
H1262 H 0.18637 0.40857 0.88724 0.0
H1263 H 0.1995 0.354 0.04629 0.0
H1264 H 0.21691 0.3536 0.89816 0.0
H1265 H 0.16794 0.40833 0.035 0.0
H1266 H 0.20489 0.35289 0.9918 0.0
H1267 H 0.17838 0.40803 0.94095 0.0
C1268 C 0.19135 0.39634 0.9009 0.0
C1269 C 0.20242 0.38115 0.88818 0.0
C1270 C 0.19672 0.36501 0.00121 0.0
C1271 C 0.19333 0.38047 0.9498 0.0
C1272 C 0.19362 0.36566 0.03235 0.0
C1273 C 0.18331 0.38133 0.04529 0.0
C1274 C 0.1895 0.38018 0.9828 0.0
C1275 C 0.17601 0.39599 0.02605 0.0
C1276 C 0.18677 0.39604 0.9316 0.0
C1277 C 0.2084 0.36565 0.90699 0.0
N1278 N 0.17932 0.3951 0.99581 0.0
N1279 N 0.20385 0.36576 0.93687 0.0
H1280 H 0.1485 0.32218 0.15907 0.0
H1281 H 0.09475 0.28508 0.30848 0.0
H1282 H 0.14268 0.35772 0.23954 0.0
H1283 H 0.11252 0.24659 0.23593 0.0
H1284 H 0.10776 0.3132 0.2805 0.0
H1285 H 0.13054 0.29583 0.18385 0.0
C1286 C 0.14328 0.32454 0.18184 0.0
C1287 C 0.14727 0.34213 0.19737 0.0
C1288 C 0.10872 0.29861 0.27068 0.0
C1289 C 0.12675 0.31195 0.22589 0.0
C1290 C 0.10128 0.28255 0.2866 0.0
C1291 C 0.1027 0.26344 0.27462 0.0
C1292 C 0.11751 0.29553 0.2425 0.0
C1293 C 0.11126 0.26105 0.24614 0.0
C1294 C 0.13309 0.30944 0.19601 0.0
C1295 C 0.14007 0.34435 0.22681 0.0
N1296 N 0.11837 0.2769 0.23109 0.0
N1297 N 0.13024 0.32938 0.24019 0.0
H1298 H 0.61088 0.23987 0.26153 0.0
H1299 H 0.6431 0.12691 0.25865 0.0
H1300 H 0.59395 0.19921 0.19128 0.0
H1301 H 0.65444 0.16654 0.33297 0.0
H1302 H 0.62351 0.15251 0.23482 0.0
H1303 H 0.62545 0.21261 0.28919 0.0
C1304 C 0.61013 0.22518 0.25199 0.0
C1305 C 0.60132 0.22184 0.22392 0.0
C1306 C 0.63015 0.15553 0.25646 0.0
C1307 C 0.61808 0.19052 0.25545 0.0
C1308 C 0.64134 0.14092 0.27009 0.0
C1309 C 0.65058 0.14465 0.29772 0.0
C1310 C 0.62828 0.17402 0.27049 0.0
C1311 C 0.64771 0.16304 0.31156 0.0
C1312 C 0.61844 0.20959 0.26783 0.0
C1313 C 0.60066 0.20247 0.21278 0.0
N1314 N 0.63695 0.17708 0.29768 0.0
N1315 N 0.6091 0.18755 0.22846 0.0
H1316 H 0.85606 0.64597 0.17637 0.0
H1317 H 0.85738 0.72332 0.31285 0.0
H1318 H 0.80875 0.65472 0.23814 0.0
H1319 H 0.90711 0.71057 0.25779 0.0
H1320 H 0.83956 0.69777 0.28598 0.0
H1321 H 0.87533 0.66908 0.20622 0.0
C1322 C 0.84975 0.65266 0.19626 0.0
C1323 C 0.83073 0.64848 0.20466 0.0
C1324 C 0.8544 0.70048 0.27985 0.0
C1325 C 0.85263 0.67497 0.23879 0.0
C1326 C 0.86458 0.7151 0.29518 0.0
C1327 C 0.88374 0.71916 0.28746 0.0
C1328 C 0.86339 0.68988 0.2565 0.0
C1329 C 0.89234 0.70798 0.26442 0.0
C1330 C 0.86076 0.66585 0.21329 0.0
C1331 C 0.82332 0.65754 0.23071 0.0
N1332 N 0.88207 0.69391 0.24964 0.0
N1333 N 0.83425 0.67042 0.24672 0.0
H1334 H 0.37712 0.74671 0.25314 0.0
H1335 H 0.35421 0.86199 0.25554 0.0
H1336 H 0.3988 0.78735 0.1862 0.0
H1337 H 0.34076 0.82246 0.32906 0.0
H1338 H 0.37149 0.83521 0.23039 0.0
H1339 H 0.36428 0.77452 0.2817 0.0
C1340 C 0.37923 0.7615 0.24448 0.0
C1341 C 0.38894 0.76471 0.21713 0.0
C1342 C 0.3649 0.83246 0.25216 0.0
C1343 C 0.37423 0.79664 0.24973 0.0
C1344 C 0.35504 0.84774 0.26654 0.0
C1345 C 0.34588 0.84442 0.29433 0.0
C1346 C 0.36547 0.81369 0.26556 0.0
C1347 C 0.3475 0.82568 0.30758 0.0
C1348 C 0.37194 0.77739 0.26086 0.0
C1349 C 0.39135 0.7842 0.20713 0.0
N1350 N 0.35694 0.81099 0.29294 0.0
N1351 N 0.38391 0.79943 0.22331 0.0
H1352 H 0.18035 0.66212 0.74373 0.0
H1353 H 0.08176 0.72182 0.73689 0.0
H1354 H 0.13606 0.65434 0.81106 0.0
H1355 H 0.13524 0.74384 0.70065 0.0
H1356 H 0.09918 0.69345 0.758 0.0
H1357 H 0.16141 0.68845 0.72085 0.0
C1358 C 0.16656 0.66583 0.75358 0.0
C1359 C 0.15982 0.6561 0.77946 0.0
C1360 C 0.10703 0.70453 0.74539 0.0
C1361 C 0.13806 0.6862 0.75326 0.0
C1362 C 0.09713 0.72064 0.73328 0.0
C1363 C 0.10711 0.73521 0.71712 0.0
C1364 C 0.12693 0.70286 0.74073 0.0
C1365 C 0.12701 0.73302 0.71314 0.0
C1366 C 0.15581 0.68094 0.74058 0.0
C1367 C 0.14184 0.66158 0.79123 0.0
N1368 N 0.13624 0.7171 0.72473 0.0
N1369 N 0.13153 0.67629 0.778 0.0
H1370 H 0.35332 0.13522 0.7366 0.0
H1371 H 0.37664 0.25051 0.73595 0.0
H1372 H 0.33719 0.17465 0.66429 0.0
H1373 H 0.39847 0.21037 0.80347 0.0
H1374 H 0.36335 0.22253 0.70827 0.0
H1375 H 0.37134 0.16207 0.76023 0.0
C1376 C 0.3537 0.14946 0.72554 0.0
C1377 C 0.34358 0.15272 0.69855 0.0
C1378 C 0.37115 0.21981 0.72904 0.0
C1379 C 0.36406 0.18355 0.72558 0.0
C1380 C 0.37872 0.23579 0.74489 0.0
C1381 C 0.38856 0.23279 0.77219 0.0
C1382 C 0.37329 0.20065 0.74064 0.0
C1383 C 0.39092 0.21338 0.78258 0.0
C1384 C 0.36399 0.16479 0.73906 0.0
C1385 C 0.34467 0.17147 0.68519 0.0
N1386 N 0.3832 0.19805 0.76691 0.0
N1387 N 0.35457 0.1862 0.69897 0.0
H1388 H 0.87275 0.24312 0.76146 0.0
H1389 H 0.8512 0.35877 0.7591 0.0
H1390 H 0.89648 0.28273 0.6948 0.0
H1391 H 0.83499 0.3203 0.83256 0.0
H1392 H 0.86864 0.3314 0.7358 0.0
H1393 H 0.85942 0.27142 0.78838 0.0
C1394 C 0.87524 0.25778 0.75255 0.0
C1395 C 0.88565 0.26055 0.72573 0.0
C1396 C 0.86139 0.329 0.75714 0.0
C1397 C 0.87035 0.29304 0.75639 0.0
C1398 C 0.85143 0.34463 0.77046 0.0
C1399 C 0.8415 0.34181 0.79772 0.0
C1400 C 0.8613 0.31038 0.77107 0.0
C1401 C 0.84236 0.32316 0.81146 0.0
C1402 C 0.86765 0.27394 0.76797 0.0
C1403 C 0.8885 0.27989 0.71535 0.0
N1404 N 0.85194 0.30813 0.79787 0.0
N1405 N 0.88077 0.29539 0.73057 0.0
H1406 H 0.63798 0.86148 0.73237 0.0
H1407 H 0.61378 0.74662 0.72275 0.0
H1408 H 0.66025 0.82258 0.66348 0.0
H1409 H 0.58555 0.78631 0.78482 0.0
H1410 H 0.6296 0.77477 0.69913 0.0
H1411 H 0.61725 0.83475 0.75028 0.0
C1412 C 0.63839 0.8474 0.72083 0.0
C1413 C 0.65102 0.84422 0.69658 0.0
C1414 C 0.61983 0.77737 0.71776 0.0
C1415 C 0.62746 0.81356 0.71706 0.0
C1416 C 0.6108 0.76128 0.73129 0.0
C1417 C 0.59844 0.7641 0.75596 0.0
C1418 C 0.61663 0.79644 0.72912 0.0
C1419 C 0.59503 0.78345 0.76592 0.0
C1420 C 0.62656 0.83214 0.73107 0.0
C1421 C 0.65087 0.82569 0.68241 0.0
N1422 N 0.60423 0.79888 0.75265 0.0
N1423 N 0.63942 0.81104 0.69303 0.0
H1424 H 0.87727 0.71681 0.75498 0.0
H1425 H 0.80183 0.62802 0.75163 0.0
H1426 H 0.84869 0.69659 0.67405 0.0
H1427 H 0.83639 0.642 0.82984 0.0
H1428 H 0.81936 0.65282 0.72277 0.0
H1429 H 0.86306 0.68922 0.78276 0.0
C1430 C 0.86812 0.7065 0.743 0.0
C1431 C 0.86407 0.70909 0.71217 0.0
C1432 C 0.82321 0.65039 0.74619 0.0
C1433 C 0.84769 0.67758 0.74385 0.0
C1434 C 0.81317 0.63624 0.76272 0.0
C1435 C 0.81758 0.63299 0.79326 0.0
C1436 C 0.83767 0.66153 0.76033 0.0
C1437 C 0.83249 0.64404 0.80636 0.0
C1438 C 0.86002 0.69075 0.75887 0.0
C1439 C 0.85216 0.69525 0.69781 0.0
N1440 N 0.84191 0.65793 0.78988 0.0
N1441 N 0.84429 0.68019 0.71381 0.0
H1442 H 0.37529 0.77597 0.77769 0.0
H1443 H 0.29878 0.86394 0.76803 0.0
H1444 H 0.33056 0.78578 0.84366 0.0
H1445 H 0.34337 0.85446 0.70171 0.0
H1446 H 0.31151 0.83652 0.79757 0.0
H1447 H 0.36499 0.8057 0.75096 0.0
C1448 C 0.36335 0.78441 0.78663 0.0
C1449 C 0.35371 0.77831 0.8129 0.0
C1450 C 0.31859 0.84049 0.77664 0.0
C1451 C 0.34184 0.81235 0.78238 0.0
C1452 C 0.31134 0.85618 0.75975 0.0
C1453 C 0.31996 0.86145 0.73223 0.0
C1454 C 0.33456 0.82991 0.76594 0.0
C1455 C 0.33622 0.85088 0.72273 0.0
C1456 C 0.35748 0.80139 0.77135 0.0
C1457 C 0.33837 0.78986 0.82345 0.0
N1458 N 0.34293 0.83554 0.73947 0.0
N1459 N 0.33287 0.80627 0.8081 0.0
H1460 H 0.11326 0.27492 0.71189 0.0
H1461 H 0.19296 0.35986 0.72203 0.0
H1462 H 0.15742 0.28412 0.64479 0.0
H1463 H 0.14837 0.35168 0.78875 0.0
H1464 H 0.17898 0.33325 0.6921 0.0
H1465 H 0.12479 0.30401 0.7391 0.0
C1466 C 0.12532 0.2831 0.70279 0.0
C1467 C 0.13444 0.27701 0.67608 0.0
C1468 C 0.17218 0.33733 0.71321 0.0
C1469 C 0.14774 0.31029 0.70716 0.0
C1470 C 0.18015 0.35255 0.73033 0.0
C1471 C 0.17189 0.35795 0.75805 0.0
C1472 C 0.15584 0.32735 0.7239 0.0
C1473 C 0.15526 0.34798 0.76757 0.0
C1474 C 0.1319 0.29971 0.71835 0.0
C1475 C 0.14998 0.28821 0.66534 0.0
N1476 N 0.14785 0.33308 0.75061 0.0
N1477 N 0.15618 0.30424 0.68097 0.0
H1478 H 0.6657 0.1207 0.76445 0.0
H1479 H 0.63735 0.23467 0.78092 0.0
H1480 H 0.68872 0.16751 0.70907 0.0
H1481 H 0.61776 0.18988 0.84307 0.0
H1482 H 0.65428 0.20949 0.75222 0.0
H1483 H 0.64619 0.14509 0.79157 0.0
C1484 C 0.6666 0.13607 0.75792 0.0
C1485 C 0.67892 0.14209 0.73453 0.0
C1486 C 0.64625 0.20511 0.77209 0.0
C1487 C 0.65667 0.16998 0.76535 0.0
C1488 C 0.63654 0.21951 0.78851 0.0
C1489 C 0.62618 0.21441 0.81457 0.0
C1490 C 0.64567 0.18538 0.7817 0.0
C1491 C 0.62561 0.19448 0.82317 0.0
C1492 C 0.65549 0.14997 0.77343 0.0
C1493 C 0.67952 0.16218 0.72702 0.0
N1494 N 0.63529 0.18068 0.80682 0.0
N1495 N 0.66859 0.17537 0.74239 0.0
H1496 H 0.79959 0.32283 0.2026 0.0
H1497 H 0.86387 0.30633 0.3505 0.0
H1498 H 0.81194 0.36932 0.26643 0.0
H1499 H 0.85431 0.26215 0.2818 0.0
H1500 H 0.84544 0.32993 0.32017 0.0
H1501 H 0.81996 0.30062 0.23161 0.0
C1502 C 0.80661 0.32839 0.22274 0.0
C1503 C 0.80401 0.34796 0.23214 0.0
C1504 C 0.84748 0.31509 0.31172 0.0
C1505 C 0.82742 0.32252 0.2656 0.0
C1506 C 0.858 0.30162 0.329 0.0
C1507 C 0.86057 0.2822 0.31875 0.0
C1508 C 0.83944 0.30906 0.28408 0.0
C1509 C 0.85266 0.27692 0.2907 0.0
C1510 C 0.81829 0.31568 0.23929 0.0
C1511 C 0.81354 0.35433 0.25838 0.0
N1512 N 0.84241 0.29023 0.27446 0.0
N1513 N 0.82478 0.34161 0.27428 0.0
H1514 H 0.61666 0.79747 0.19646 0.0
H1515 H 0.71058 0.86138 0.23343 0.0
H1516 H 0.66859 0.79577 0.14305 0.0
H1517 H 0.66019 0.86009 0.29042 0.0
H1518 H 0.69452 0.83916 0.19813 0.0
H1519 H 0.63144 0.82231 0.22902 0.0
C1520 C 0.63113 0.80241 0.19145 0.0
C1521 C 0.64144 0.79445 0.16705 0.0
C1522 C 0.68695 0.84378 0.2183 0.0
C1523 C 0.65847 0.82284 0.20434 0.0
C1524 C 0.69611 0.85648 0.23849 0.0
C1525 C 0.68675 0.86254 0.26503 0.0
C1526 C 0.66827 0.83707 0.22463 0.0
C1527 C 0.66799 0.85574 0.27032 0.0
C1528 C 0.63957 0.81657 0.2101 0.0
C1529 C 0.66013 0.80143 0.16166 0.0
N1530 N 0.65939 0.84332 0.25034 0.0
N1531 N 0.66806 0.81517 0.18022 0.0
H1532 H 0.12239 0.71374 0.27142 0.0
H1533 H 0.2039 0.63104 0.25621 0.0
H1534 H 0.16921 0.7068 0.33465 0.0
H1535 H 0.15658 0.63707 0.19368 0.0
H1536 H 0.19057 0.65785 0.28639 0.0
H1537 H 0.13393 0.68491 0.24374 0.0
C1538 C 0.13507 0.70613 0.27955 0.0
C1539 C 0.1449 0.71276 0.30535 0.0
C1540 C 0.18304 0.65327 0.26615 0.0
C1541 C 0.15819 0.67972 0.27371 0.0
C1542 C 0.19064 0.63793 0.24889 0.0
C1543 C 0.18139 0.63184 0.22226 0.0
C1544 C 0.16608 0.66267 0.25673 0.0
C1545 C 0.16423 0.6413 0.21398 0.0
C1546 C 0.14164 0.68965 0.26372 0.0
C1547 C 0.1612 0.70226 0.31485 0.0
N1548 N 0.15718 0.65631 0.23108 0.0
N1549 N 0.16737 0.68632 0.29897 0.0
H1550 H 0.29467 0.12891 0.22589 0.0
H1551 H 0.3727 0.2152 0.21254 0.0
H1552 H 0.33791 0.14035 0.29373 0.0
H1553 H 0.33011 0.20265 0.14415 0.0
H1554 H 0.36132 0.18679 0.24142 0.0
H1555 H 0.30865 0.15474 0.19445 0.0
C1556 C 0.30718 0.13678 0.23413 0.0
C1557 C 0.31507 0.13252 0.2626 0.0
C1558 C 0.35453 0.19019 0.22003 0.0
C1559 C 0.33111 0.16223 0.22668 0.0
C1560 C 0.36102 0.20642 0.20351 0.0
C1561 C 0.35228 0.21138 0.17594 0.0
C1562 C 0.33915 0.17886 0.20895 0.0
C1563 C 0.33724 0.19944 0.16533 0.0
C1564 C 0.31516 0.15154 0.21614 0.0
C1565 C 0.33132 0.14317 0.272 0.0
N1566 N 0.3311 0.1838 0.18192 0.0
N1567 N 0.33874 0.15761 0.25415 0.0
loop_
_geom_bond_atom_site_label_1
_geom_bond_atom_site_label_2
_geom_bond_distance
_geom_bond_site_symmetry_2
_ccdc_geom_bond_type
C0 O1 1.160 . S
C0 O7 1.185 . S
O1 C0 1.160 . S
O2 Zn3 1.899 . S
O2 C10 1.284 . S
Zn3 O2 1.899 . S
Zn3 O4 2.032 . S
Zn3 O7 2.086 . S
Zn3 O12 1.977 . S
O4 Zn3 2.032 . S
O4 C8 1.278 . S
C5 O6 1.203 . S
C5 O12 1.267 . S
O6 C5 1.203 . S
O7 C0 1.185 . S
O7 Zn3 2.086 . S
C8 O4 1.278 . S
C8 O9 1.211 . S
O9 C8 1.211 . S
C10 O2 1.284 . S
C10 O11 1.273 . S
O11 C10 1.273 . S
O12 Zn3 1.977 . S
O12 C5 1.267 . S
C13 O14 1.160 . S
C13 O20 1.185 . S
O14 C13 1.160 . S
O15 Zn16 1.899 . S
O15 C23 1.284 . S
Zn16 O15 1.899 . S
Zn16 O17 2.032 . S
Zn16 O20 2.086 . S
Zn16 O25 1.977 . S
O17 Zn16 2.032 . S
O17 C21 1.278 . S
C18 O19 1.203 . S
C18 O25 1.267 . S
O19 C18 1.203 . S
O20 C13 1.185 . S
O20 Zn16 2.086 . S
C21 O17 1.278 . S
C21 O22 1.211 . S
O22 C21 1.211 . S
C23 O15 1.284 . S
C23 O24 1.273 . S
O24 C23 1.273 . S
O25 Zn16 1.977 . S
O25 C18 1.267 . S
C26 O27 1.160 . S
C26 O33 1.185 . S
O27 C26 1.160 . S
O28 Zn29 1.899 . S
O28 C36 1.284 . S
Zn29 O28 1.899 . S
Zn29 O30 2.032 . S
Zn29 O33 2.086 . S
Zn29 O38 1.977 . S
O30 Zn29 2.032 . S
O30 C34 1.278 . S
C31 O32 1.203 . S
C31 O38 1.267 . S
O32 C31 1.203 . S
O33 C26 1.185 . S
O33 Zn29 2.086 . S
C34 O30 1.278 . S
C34 O35 1.211 . S
O35 C34 1.211 . S
C36 O28 1.284 . S
C36 O37 1.273 . S
O37 C36 1.273 . S
O38 Zn29 1.977 . S
O38 C31 1.267 . S
C39 O40 1.160 . S
C39 O46 1.185 . S
O40 C39 1.160 . S
O41 Zn42 1.899 . S
O41 C49 1.284 . S
Zn42 O41 1.899 . S
Zn42 O43 2.032 . S
Zn42 O46 2.086 . S
Zn42 O51 1.977 . S
O43 Zn42 2.032 . S
O43 C47 1.278 . S
C44 O45 1.203 . S
C44 O51 1.267 . S
O45 C44 1.203 . S
O46 C39 1.185 . S
O46 Zn42 2.086 . S
C47 O43 1.278 . S
C47 O48 1.211 . S
O48 C47 1.211 . S
C49 O41 1.284 . S
C49 O50 1.273 . S
O50 C49 1.273 . S
O51 Zn42 1.977 . S
O51 C44 1.267 . S
C52 O53 1.160 . S
C52 O59 1.185 . S
O53 C52 1.160 . S
O54 Zn55 1.899 . S
O54 C62 1.284 . S
Zn55 O54 1.899 . S
Zn55 O56 2.032 . S
Zn55 O59 2.086 . S
Zn55 O64 1.977 . S
O56 Zn55 2.032 . S
O56 C60 1.278 . S
C57 O58 1.203 . S
C57 O64 1.267 . S
O58 C57 1.203 . S
O59 C52 1.185 . S
O59 Zn55 2.086 . S
C60 O56 1.278 . S
C60 O61 1.211 . S
O61 C60 1.211 . S
C62 O54 1.284 . S
C62 O63 1.273 . S
O63 C62 1.273 . S
O64 Zn55 1.977 . S
O64 C57 1.267 . S
C65 O66 1.160 . S
C65 O72 1.185 . S
O66 C65 1.160 . S
O67 Zn68 1.899 . S
O67 C75 1.284 . S
Zn68 O67 1.899 . S
Zn68 O69 2.032 . S
Zn68 O72 2.086 . S
Zn68 O77 1.977 . S
O69 Zn68 2.032 . S
O69 C73 1.278 . S
C70 O71 1.203 . S
C70 O77 1.267 . S
O71 C70 1.203 . S
O72 C65 1.185 . S
O72 Zn68 2.086 . S
C73 O69 1.278 . S
C73 O74 1.211 . S
O74 C73 1.211 . S
C75 O67 1.284 . S
C75 O76 1.273 . S
O76 C75 1.273 . S
O77 Zn68 1.977 . S
O77 C70 1.267 . S
C78 O79 1.160 . S
C78 O85 1.185 . S
O79 C78 1.160 . S
O80 Zn81 1.899 . S
O80 C88 1.284 . S
Zn81 O80 1.899 . S
Zn81 O82 2.032 . S
Zn81 O85 2.086 . S
Zn81 O90 1.977 . S
O82 Zn81 2.032 . S
O82 C86 1.278 . S
C83 O84 1.203 . S
C83 O90 1.267 . S
O84 C83 1.203 . S
O85 C78 1.185 . S
O85 Zn81 2.086 . S
C86 O82 1.278 . S
C86 O87 1.211 . S
O87 C86 1.211 . S
C88 O80 1.284 . S
C88 O89 1.273 . S
O89 C88 1.273 . S
O90 Zn81 1.977 . S
O90 C83 1.267 . S
C91 O92 1.160 . S
C91 O98 1.185 . S
O92 C91 1.160 . S
O93 Zn94 1.899 . S
O93 C101 1.284 . S
Zn94 O93 1.899 . S
Zn94 O95 2.032 . S
Zn94 O98 2.086 . S
Zn94 O103 1.977 . S
O95 Zn94 2.032 . S
O95 C99 1.278 . S
C96 O97 1.203 . S
C96 O103 1.267 . S
O97 C96 1.203 . S
O98 C91 1.185 . S
O98 Zn94 2.086 . S
C99 O95 1.278 . S
C99 O100 1.211 . S
O100 C99 1.211 . S
C101 O93 1.284 . S
C101 O102 1.273 . S
O102 C101 1.273 . S
O103 Zn94 1.977 . S
O103 C96 1.267 . S
C104 O105 1.160 . S
C104 O111 1.185 . S
O105 C104 1.160 . S
O106 Zn107 1.899 . S
O106 C114 1.284 . S
Zn107 O106 1.899 . S
Zn107 O108 2.032 . S
Zn107 O111 2.086 . S
Zn107 O116 1.977 . S
O108 Zn107 2.032 . S
O108 C112 1.278 . S
C109 O110 1.203 . S
C109 O116 1.267 . S
O110 C109 1.203 . S
O111 C104 1.185 . S
O111 Zn107 2.086 . S
C112 O108 1.278 . S
C112 O113 1.211 . S
O113 C112 1.211 . S
C114 O106 1.284 . S
C114 O115 1.273 . S
O115 C114 1.273 . S
O116 Zn107 1.977 . S
O116 C109 1.267 . S
C117 O118 1.160 . S
C117 O124 1.185 . S
O118 C117 1.160 . S
O119 Zn120 1.899 . S
O119 C127 1.284 . S
Zn120 O119 1.899 . S
Zn120 O121 2.032 . S
Zn120 O124 2.086 . S
Zn120 O129 1.977 . S
O121 Zn120 2.032 . S
O121 C125 1.278 . S
C122 O123 1.203 . S
C122 O129 1.267 . S
O123 C122 1.203 . S
O124 C117 1.185 . S
O124 Zn120 2.086 . S
C125 O121 1.278 . S
C125 O126 1.211 . S
O126 C125 1.211 . S
C127 O119 1.284 . S
C127 O128 1.273 . S
O128 C127 1.273 . S
O129 Zn120 1.977 . S
O129 C122 1.267 . S
C130 O131 1.160 . S
C130 O137 1.185 . S
O131 C130 1.160 . S
O132 Zn133 1.899 . S
O132 C140 1.284 . S
Zn133 O132 1.899 . S
Zn133 O134 2.032 . S
Zn133 O137 2.086 . S
Zn133 O142 1.977 . S
O134 Zn133 2.032 . S
O134 C138 1.278 . S
C135 O136 1.203 . S
C135 O142 1.267 . S
O136 C135 1.203 . S
O137 C130 1.185 . S
O137 Zn133 2.086 . S
C138 O134 1.278 . S
C138 O139 1.211 . S
O139 C138 1.211 . S
C140 O132 1.284 . S
C140 O141 1.273 . S
O141 C140 1.273 . S
O142 Zn133 1.977 . S
O142 C135 1.267 . S
C143 O144 1.160 . S
C143 O150 1.185 . S
O144 C143 1.160 . S
O145 Zn146 1.899 . S
O145 C153 1.284 . S
Zn146 O145 1.899 . S
Zn146 O147 2.032 . S
Zn146 O150 2.086 . S
Zn146 O155 1.977 . S
O147 Zn146 2.032 . S
O147 C151 1.278 . S
C148 O149 1.203 . S
C148 O155 1.267 . S
O149 C148 1.203 . S
O150 C143 1.185 . S
O150 Zn146 2.086 . S
C151 O147 1.278 . S
C151 O152 1.211 . S
O152 C151 1.211 . S
C153 O145 1.284 . S
C153 O154 1.273 . S
O154 C153 1.273 . S
O155 Zn146 1.977 . S
O155 C148 1.267 . S
C156 O157 1.160 . S
C156 O163 1.185 . S
O157 C156 1.160 . S
O158 Zn159 1.899 . S
O158 C166 1.284 . S
Zn159 O158 1.899 . S
Zn159 O160 2.032 . S
Zn159 O163 2.086 . S
Zn159 O168 1.977 . S
O160 Zn159 2.032 . S
O160 C164 1.278 . S
C161 O162 1.203 . S
C161 O168 1.267 . S
O162 C161 1.203 . S
O163 C156 1.185 . S
O163 Zn159 2.086 . S
C164 O160 1.278 . S
C164 O165 1.211 . S
O165 C164 1.211 . S
C166 O158 1.284 . S
C166 O167 1.273 . S
O167 C166 1.273 . S
O168 Zn159 1.977 . S
O168 C161 1.267 . S
C169 O170 1.160 . S
C169 O176 1.185 . S
O170 C169 1.160 . S
O171 Zn172 1.899 . S
O171 C179 1.284 . S
Zn172 O171 1.899 . S
Zn172 O173 2.032 . S
Zn172 O176 2.086 . S
Zn172 O181 1.977 . S
O173 Zn172 2.032 . S
O173 C177 1.278 . S
C174 O175 1.203 . S
C174 O181 1.267 . S
O175 C174 1.203 . S
O176 C169 1.185 . S
O176 Zn172 2.086 . S
C177 O173 1.278 . S
C177 O178 1.211 . S
O178 C177 1.211 . S
C179 O171 1.284 . S
C179 O180 1.273 . S
O180 C179 1.273 . S
O181 Zn172 1.977 . S
O181 C174 1.267 . S
C182 O183 1.160 . S
C182 O189 1.185 . S
O183 C182 1.160 . S
O184 Zn185 1.899 . S
O184 C192 1.284 . S
Zn185 O184 1.899 . S
Zn185 O186 2.032 . S
Zn185 O189 2.086 . S
Zn185 O194 1.977 . S
O186 Zn185 2.032 . S
O186 C190 1.278 . S
C187 O188 1.203 . S
C187 O194 1.267 . S
O188 C187 1.203 . S
O189 C182 1.185 . S
O189 Zn185 2.086 . S
C190 O186 1.278 . S
C190 O191 1.211 . S
O191 C190 1.211 . S
C192 O184 1.284 . S
C192 O193 1.273 . S
O193 C192 1.273 . S
O194 Zn185 1.977 . S
O194 C187 1.267 . S
C195 O196 1.160 . S
C195 O202 1.185 . S
O196 C195 1.160 . S
O197 Zn198 1.899 . S
O197 C205 1.284 . S
Zn198 O197 1.899 . S
Zn198 O199 2.032 . S
Zn198 O202 2.086 . S
Zn198 O207 1.977 . S
O199 Zn198 2.032 . S
O199 C203 1.278 . S
C200 O201 1.203 . S
C200 O207 1.267 . S
O201 C200 1.203 . S
O202 C195 1.185 . S
O202 Zn198 2.086 . S
C203 O199 1.278 . S
C203 O204 1.211 . S
O204 C203 1.211 . S
C205 O197 1.284 . S
C205 O206 1.273 . S
O206 C205 1.273 . S
O207 Zn198 1.977 . S
O207 C200 1.267 . S
C208 O209 1.160 . S
C208 O215 1.185 . S
O209 C208 1.160 . S
O210 Zn211 1.899 . S
O210 C218 1.284 . S
Zn211 O210 1.899 . S
Zn211 O212 2.032 . S
Zn211 O215 2.086 . S
Zn211 O220 1.977 . S
O212 Zn211 2.032 . S
O212 C216 1.278 . S
C213 O214 1.203 . S
C213 O220 1.267 . S
O214 C213 1.203 . S
O215 C208 1.185 . S
O215 Zn211 2.086 . S
C216 O212 1.278 . S
C216 O217 1.211 . S
O217 C216 1.211 . S
C218 O210 1.284 . S
C218 O219 1.273 . S
O219 C218 1.273 . S
O220 Zn211 1.977 . S
O220 C213 1.267 . S
C221 O222 1.160 . S
C221 O228 1.185 . S
O222 C221 1.160 . S
O223 Zn224 1.899 . S
O223 C231 1.284 . S
Zn224 O223 1.899 . S
Zn224 O225 2.032 . S
Zn224 O228 2.086 . S
Zn224 O233 1.977 . S
O225 Zn224 2.032 . S
O225 C229 1.278 . S
C226 O227 1.203 . S
C226 O233 1.267 . S
O227 C226 1.203 . S
O228 C221 1.185 . S
O228 Zn224 2.086 . S
C229 O225 1.278 . S
C229 O230 1.211 . S
O230 C229 1.211 . S
C231 O223 1.284 . S
C231 O232 1.273 . S
O232 C231 1.273 . S
O233 Zn224 1.977 . S
O233 C226 1.267 . S
C234 O235 1.160 . S
C234 O241 1.185 . S
O235 C234 1.160 . S
O236 Zn237 1.899 . S
O236 C244 1.284 . S
Zn237 O236 1.899 . S
Zn237 O238 2.032 . S
Zn237 O241 2.086 . S
Zn237 O246 1.977 . S
O238 Zn237 2.032 . S
O238 C242 1.278 . S
C239 O240 1.203 . S
C239 O246 1.267 . S
O240 C239 1.203 . S
O241 C234 1.185 . S
O241 Zn237 2.086 . S
C242 O238 1.278 . S
C242 O243 1.211 . S
O243 C242 1.211 . S
C244 O236 1.284 . S
C244 O245 1.273 . S
O245 C244 1.273 . S
O246 Zn237 1.977 . S
O246 C239 1.267 . S
C247 O248 1.160 . S
C247 O254 1.185 . S
O248 C247 1.160 . S
O249 Zn250 1.899 . S
O249 C257 1.284 . S
Zn250 O249 1.899 . S
Zn250 O251 2.032 . S
Zn250 O254 2.086 . S
Zn250 O259 1.977 . S
O251 Zn250 2.032 . S
O251 C255 1.278 . S
C252 O253 1.203 . S
C252 O259 1.267 . S
O253 C252 1.203 . S
O254 C247 1.185 . S
O254 Zn250 2.086 . S
C255 O251 1.278 . S
C255 O256 1.211 . S
O256 C255 1.211 . S
C257 O249 1.284 . S
C257 O258 1.273 . S
O258 C257 1.273 . S
O259 Zn250 1.977 . S
O259 C252 1.267 . S
C260 O261 1.160 . S
C260 O267 1.185 . S
O261 C260 1.160 . S
O262 Zn263 1.899 . S
O262 C270 1.284 . S
Zn263 O262 1.899 . S
Zn263 O264 2.032 . S
Zn263 O267 2.086 . S
Zn263 O272 1.977 . S
O264 Zn263 2.032 . S
O264 C268 1.278 . S
C265 O266 1.203 . S
C265 O272 1.267 . S
O266 C265 1.203 . S
O267 C260 1.185 . S
O267 Zn263 2.086 . S
C268 O264 1.278 . S
C268 O269 1.211 . S
O269 C268 1.211 . S
C270 O262 1.284 . S
C270 O271 1.273 . S
O271 C270 1.273 . S
O272 Zn263 1.977 . S
O272 C265 1.267 . S
C273 O274 1.160 . S
C273 O280 1.185 . S
O274 C273 1.160 . S
O275 Zn276 1.899 . S
O275 C283 1.284 . S
Zn276 O275 1.899 . S
Zn276 O277 2.032 . S
Zn276 O280 2.086 . S
Zn276 O285 1.977 . S
O277 Zn276 2.032 . S
O277 C281 1.278 . S
C278 O279 1.203 . S
C278 O285 1.267 . S
O279 C278 1.203 . S
O280 C273 1.185 . S
O280 Zn276 2.086 . S
C281 O277 1.278 . S
C281 O282 1.211 . S
O282 C281 1.211 . S
C283 O275 1.284 . S
C283 O284 1.273 . S
O284 C283 1.273 . S
O285 Zn276 1.977 . S
O285 C278 1.267 . S
C286 O287 1.160 . S
C286 O293 1.185 . S
O287 C286 1.160 . S
O288 Zn289 1.899 . S
O288 C296 1.284 . S
Zn289 O288 1.899 . S
Zn289 O290 2.032 . S
Zn289 O293 2.086 . S
Zn289 O298 1.977 . S
O290 Zn289 2.032 . S
O290 C294 1.278 . S
C291 O292 1.203 . S
C291 O298 1.267 . S
O292 C291 1.203 . S
O293 C286 1.185 . S
O293 Zn289 2.086 . S
C294 O290 1.278 . S
C294 O295 1.211 . S
O295 C294 1.211 . S
C296 O288 1.284 . S
C296 O297 1.273 . S
O297 C296 1.273 . S
O298 Zn289 1.977 . S
O298 C291 1.267 . S
C299 O300 1.160 . S
C299 O306 1.185 . S
O300 C299 1.160 . S
O301 Zn302 1.899 . S
O301 C309 1.284 . S
Zn302 O301 1.899 . S
Zn302 O303 2.032 . S
Zn302 O306 2.086 . S
Zn302 O311 1.977 . S
O303 Zn302 2.032 . S
O303 C307 1.278 . S
C304 O305 1.203 . S
C304 O311 1.267 . S
O305 C304 1.203 . S
O306 C299 1.185 . S
O306 Zn302 2.086 . S
C307 O303 1.278 . S
C307 O308 1.211 . S
O308 C307 1.211 . S
C309 O301 1.284 . S
C309 O310 1.273 . S
O310 C309 1.273 . S
O311 Zn302 1.977 . S
O311 C304 1.267 . S
C312 O313 1.160 . S
C312 O319 1.185 . S
O313 C312 1.160 . S
O314 Zn315 1.899 . S
O314 C322 1.284 . S
Zn315 O314 1.899 . S
Zn315 O316 2.032 . S
Zn315 O319 2.086 . S
Zn315 O324 1.977 . S
O316 Zn315 2.032 . S
O316 C320 1.278 . S
C317 O318 1.203 . S
C317 O324 1.267 . S
O318 C317 1.203 . S
O319 C312 1.185 . S
O319 Zn315 2.086 . S
C320 O316 1.278 . S
C320 O321 1.211 . S
O321 C320 1.211 . S
C322 O314 1.284 . S
C322 O323 1.273 . S
O323 C322 1.273 . S
O324 Zn315 1.977 . S
O324 C317 1.267 . S
C325 O326 1.160 . S
C325 O332 1.185 . S
O326 C325 1.160 . S
O327 Zn328 1.899 . S
O327 C335 1.284 . S
Zn328 O327 1.899 . S
Zn328 O329 2.032 . S
Zn328 O332 2.086 . S
Zn328 O337 1.977 . S
O329 Zn328 2.032 . S
O329 C333 1.278 . S
C330 O331 1.203 . S
C330 O337 1.267 . S
O331 C330 1.203 . S
O332 C325 1.185 . S
O332 Zn328 2.086 . S
C333 O329 1.278 . S
C333 O334 1.211 . S
O334 C333 1.211 . S
C335 O327 1.284 . S
C335 O336 1.273 . S
O336 C335 1.273 . S
O337 Zn328 1.977 . S
O337 C330 1.267 . S
C338 O339 1.160 . S
C338 O345 1.185 . S
O339 C338 1.160 . S
O340 Zn341 1.899 . S
O340 C348 1.284 . S
Zn341 O340 1.899 . S
Zn341 O342 2.032 . S
Zn341 O345 2.086 . S
Zn341 O350 1.977 . S
O342 Zn341 2.032 . S
O342 C346 1.278 . S
C343 O344 1.203 . S
C343 O350 1.267 . S
O344 C343 1.203 . S
O345 C338 1.185 . S
O345 Zn341 2.086 . S
C346 O342 1.278 . S
C346 O347 1.211 . S
O347 C346 1.211 . S
C348 O340 1.284 . S
C348 O349 1.273 . S
O349 C348 1.273 . S
O350 Zn341 1.977 . S
O350 C343 1.267 . S
C351 O352 1.160 . S
C351 O358 1.185 . S
O352 C351 1.160 . S
O353 Zn354 1.899 . S
O353 C361 1.284 . S
Zn354 O353 1.899 . S
Zn354 O355 2.032 . S
Zn354 O358 2.086 . S
Zn354 O363 1.977 . S
O355 Zn354 2.032 . S
O355 C359 1.278 . S
C356 O357 1.203 . S
C356 O363 1.267 . S
O357 C356 1.203 . S
O358 C351 1.185 . S
O358 Zn354 2.086 . S
C359 O355 1.278 . S
C359 O360 1.211 . S
O360 C359 1.211 . S
C361 O353 1.284 . S
C361 O362 1.273 . S
O362 C361 1.273 . S
O363 Zn354 1.977 . S
O363 C356 1.267 . S
C364 O365 1.160 . S
C364 O371 1.185 . S
O365 C364 1.160 . S
O366 Zn367 1.899 . S
O366 C374 1.284 . S
Zn367 O366 1.899 . S
Zn367 O368 2.032 . S
Zn367 O371 2.086 . S
Zn367 O376 1.977 . S
O368 Zn367 2.032 . S
O368 C372 1.278 . S
C369 O370 1.203 . S
C369 O376 1.267 . S
O370 C369 1.203 . S
O371 C364 1.185 . S
O371 Zn367 2.086 . S
C372 O368 1.278 . S
C372 O373 1.211 . S
O373 C372 1.211 . S
C374 O366 1.284 . S
C374 O375 1.273 . S
O375 C374 1.273 . S
O376 Zn367 1.977 . S
O376 C369 1.267 . S
C377 O378 1.160 . S
C377 O384 1.185 . S
O378 C377 1.160 . S
O379 Zn380 1.899 . S
O379 C387 1.284 . S
Zn380 O379 1.899 . S
Zn380 O381 2.032 . S
Zn380 O384 2.086 . S
Zn380 O389 1.977 . S
O381 Zn380 2.032 . S
O381 C385 1.278 . S
C382 O383 1.203 . S
C382 O389 1.267 . S
O383 C382 1.203 . S
O384 C377 1.185 . S
O384 Zn380 2.086 . S
C385 O381 1.278 . S
C385 O386 1.211 . S
O386 C385 1.211 . S
C387 O379 1.284 . S
C387 O388 1.273 . S
O388 C387 1.273 . S
O389 Zn380 1.977 . S
O389 C382 1.267 . S
C390 O391 1.160 . S
C390 O397 1.185 . S
O391 C390 1.160 . S
O392 Zn393 1.899 . S
O392 C400 1.284 . S
Zn393 O392 1.899 . S
Zn393 O394 2.032 . S
Zn393 O397 2.086 . S
Zn393 O402 1.977 . S
O394 Zn393 2.032 . S
O394 C398 1.278 . S
C395 O396 1.203 . S
C395 O402 1.267 . S
O396 C395 1.203 . S
O397 C390 1.185 . S
O397 Zn393 2.086 . S
C398 O394 1.278 . S
C398 O399 1.211 . S
O399 C398 1.211 . S
C400 O392 1.284 . S
C400 O401 1.273 . S
O401 C400 1.273 . S
O402 Zn393 1.977 . S
O402 C395 1.267 . S
C403 O404 1.160 . S
C403 O410 1.185 . S
O404 C403 1.160 . S
O405 Zn406 1.899 . S
O405 C413 1.284 . S
Zn406 O405 1.899 . S
Zn406 O407 2.032 . S
Zn406 O410 2.086 . S
Zn406 O415 1.977 . S
O407 Zn406 2.032 . S
O407 C411 1.278 . S
C408 O409 1.203 . S
C408 O415 1.267 . S
O409 C408 1.203 . S
O410 C403 1.185 . S
O410 Zn406 2.086 . S
C411 O407 1.278 . S
C411 O412 1.211 . S
O412 C411 1.211 . S
C413 O405 1.284 . S
C413 O414 1.273 . S
O414 C413 1.273 . S
O415 Zn406 1.977 . S
O415 C408 1.267 . S
H416 C422 0.930 . S
H417 C426 0.930 . S
H418 C431 0.929 . S
H419 C429 0.929 . S
H420 C424 0.929 . S
H421 C430 0.929 . S
C422 H416 0.930 . S
C422 C423 1.367 . S
C422 C430 1.378 . S
C423 C422 1.367 . S
C423 C431 1.433 . S
C424 H420 0.929 . S
C424 C426 1.378 . S
C424 C428 1.350 . S
C425 C428 1.463 . S
C425 C430 1.350 . S
C425 N433 1.427 . S
C426 H417 0.930 . S
C426 C424 1.378 . S
C426 C427 1.367 . S
C427 C426 1.367 . S
C427 C429 1.433 . S
C428 C424 1.350 . S
C428 C425 1.463 . S
C428 N432 1.427 . S
C429 H419 0.929 . S
C429 C427 1.433 . S
C429 N432 1.384 . S
C430 H421 0.929 . S
C430 C422 1.378 . S
C430 C425 1.350 . S
C431 H418 0.929 . S
C431 C423 1.433 . S
C431 N433 1.384 . S
N432 C428 1.427 . S
N432 C429 1.384 . S
N433 C425 1.427 . S
N433 C431 1.384 . S
H434 C440 0.930 . S
H435 C444 0.930 . S
H436 C449 0.929 . S
H437 C447 0.929 . S
H438 C442 0.929 . S
H439 C448 0.929 . S
C440 H434 0.930 . S
C440 C441 1.367 . S
C440 C448 1.378 . S
C441 C440 1.367 . S
C441 C449 1.433 . S
C442 H438 0.929 . S
C442 C444 1.378 . S
C442 C446 1.350 . S
C443 C446 1.463 . S
C443 C448 1.350 . S
C443 N451 1.427 . S
C444 H435 0.930 . S
C444 C442 1.378 . S
C444 C445 1.367 . S
C445 C444 1.367 . S
C445 C447 1.433 . S
C446 C442 1.350 . S
C446 C443 1.463 . S
C446 N450 1.427 . S
C447 H437 0.929 . S
C447 C445 1.433 . S
C447 N450 1.384 . S
C448 H439 0.929 . S
C448 C440 1.378 . S
C448 C443 1.350 . S
C449 H436 0.929 . S
C449 C441 1.433 . S
C449 N451 1.384 . S
N450 C446 1.427 . S
N450 C447 1.384 . S
N451 C443 1.427 . S
N451 C449 1.384 . S
H452 C458 0.930 . S
H453 C462 0.930 . S
H454 C467 0.929 . S
H455 C465 0.929 . S
H456 C460 0.929 . S
H457 C466 0.929 . S
C458 H452 0.930 . S
C458 C459 1.367 . S
C458 C466 1.378 . S
C459 C458 1.367 . S
C459 C467 1.433 . S
C460 H456 0.929 . S
C460 C462 1.378 . S
C460 C464 1.350 . S
C461 C464 1.463 . S
C461 C466 1.350 . S
C461 N469 1.427 . S
C462 H453 0.930 . S
C462 C460 1.378 . S
C462 C463 1.367 . S
C463 C462 1.367 . S
C463 C465 1.433 . S
C464 C460 1.350 . S
C464 C461 1.463 . S
C464 N468 1.427 . S
C465 H455 0.929 . S
C465 C463 1.433 . S
C465 N468 1.384 . S
C466 H457 0.929 . S
C466 C458 1.378 . S
C466 C461 1.350 . S
C467 H454 0.929 . S
C467 C459 1.433 . S
C467 N469 1.384 . S
N468 C464 1.427 . S
N468 C465 1.384 . S
N469 C461 1.427 . S
N469 C467 1.384 . S
H470 C476 0.930 . S
H471 C480 0.930 . S
H472 C485 0.929 . S
H473 C483 0.929 . S
H474 C478 0.929 . S
H475 C484 0.929 . S
C476 H470 0.930 . S
C476 C477 1.367 . S
C476 C484 1.378 . S
C477 C476 1.367 . S
C477 C485 1.433 . S
C478 H474 0.929 . S
C478 C480 1.378 . S
C478 C482 1.350 . S
C479 C482 1.463 . S
C479 C484 1.350 . S
C479 N487 1.427 . S
C480 H471 0.930 . S
C480 C478 1.378 . S
C480 C481 1.367 . S
C481 C480 1.367 . S
C481 C483 1.433 . S
C482 C478 1.350 . S
C482 C479 1.463 . S
C482 N486 1.427 . S
C483 H473 0.929 . S
C483 C481 1.433 . S
C483 N486 1.384 . S
C484 H475 0.929 . S
C484 C476 1.378 . S
C484 C479 1.350 . S
C485 H472 0.929 . S
C485 C477 1.433 . S
C485 N487 1.384 . S
N486 C482 1.427 . S
N486 C483 1.384 . S
N487 C479 1.427 . S
N487 C485 1.384 . S
H488 C494 0.930 . S
H489 C498 0.930 . S
H490 C503 0.929 . S
H491 C501 0.929 . S
H492 C496 0.929 . S
H493 C502 0.929 . S
C494 H488 0.930 . S
C494 C495 1.367 . S
C494 C502 1.378 . S
C495 C494 1.367 . S
C495 C503 1.433 . S
C496 H492 0.929 . S
C496 C498 1.378 . S
C496 C500 1.350 . S
C497 C500 1.463 . S
C497 C502 1.350 . S
C497 N505 1.427 . S
C498 H489 0.930 . S
C498 C496 1.378 . S
C498 C499 1.367 . S
C499 C498 1.367 . S
C499 C501 1.433 . S
C500 C496 1.350 . S
C500 C497 1.463 . S
C500 N504 1.427 . S
C501 H491 0.929 . S
C501 C499 1.433 . S
C501 N504 1.384 . S
C502 H493 0.929 . S
C502 C494 1.378 . S
C502 C497 1.350 . S
C503 H490 0.929 . S
C503 C495 1.433 . S
C503 N505 1.384 . S
N504 C500 1.427 . S
N504 C501 1.384 . S
N505 C497 1.427 . S
N505 C503 1.384 . S
H506 C512 0.930 . S
H507 C516 0.930 . S
H508 C521 0.929 . S
H509 C519 0.929 . S
H510 C514 0.929 . S
H511 C520 0.929 . S
C512 H506 0.930 . S
C512 C513 1.367 . S
C512 C520 1.378 . S
C513 C512 1.367 . S
C513 C521 1.433 . S
C514 H510 0.929 . S
C514 C516 1.378 . S
C514 C518 1.350 . S
C515 C518 1.463 . S
C515 C520 1.350 . S
C515 N523 1.427 . S
C516 H507 0.930 . S
C516 C514 1.378 . S
C516 C517 1.367 . S
C517 C516 1.367 . S
C517 C519 1.433 . S
C518 C514 1.350 . S
C518 C515 1.463 . S
C518 N522 1.427 . S
C519 H509 0.929 . S
C519 C517 1.433 . S
C519 N522 1.384 . S
C520 H511 0.929 . S
C520 C512 1.378 . S
C520 C515 1.350 . S
C521 H508 0.929 . S
C521 C513 1.433 . S
C521 N523 1.384 . S
N522 C518 1.427 . S
N522 C519 1.384 . S
N523 C515 1.427 . S
N523 C521 1.384 . S
H524 C530 0.930 . S
H525 C534 0.930 . S
H526 C539 0.929 . S
H527 C537 0.929 . S
H528 C532 0.929 . S
H529 C538 0.929 . S
C530 H524 0.930 . S
C530 C531 1.367 . S
C530 C538 1.378 . S
C531 C530 1.367 . S
C531 C539 1.433 . S
C532 H528 0.929 . S
C532 C534 1.378 . S
C532 C536 1.350 . S
C533 C536 1.463 . S
C533 C538 1.350 . S
C533 N541 1.427 . S
C534 H525 0.930 . S
C534 C532 1.378 . S
C534 C535 1.367 . S
C535 C534 1.367 . S
C535 C537 1.433 . S
C536 C532 1.350 . S
C536 C533 1.463 . S
C536 N540 1.427 . S
C537 H527 0.929 . S
C537 C535 1.433 . S
C537 N540 1.384 . S
C538 H529 0.929 . S
C538 C530 1.378 . S
C538 C533 1.350 . S
C539 H526 0.929 . S
C539 C531 1.433 . S
C539 N541 1.384 . S
N540 C536 1.427 . S
N540 C537 1.384 . S
N541 C533 1.427 . S
N541 C539 1.384 . S
H542 C548 0.930 . S
H543 C552 0.930 . S
H544 C557 0.929 . S
H545 C555 0.929 . S
H546 C550 0.929 . S
H547 C556 0.929 . S
C548 H542 0.930 . S
C548 C549 1.367 . S
C548 C556 1.378 . S
C549 C548 1.367 . S
C549 C557 1.433 . S
C550 H546 0.929 . S
C550 C552 1.378 . S
C550 C554 1.350 . S
C551 C554 1.463 . S
C551 C556 1.350 . S
C551 N559 1.427 . S
C552 H543 0.930 . S
C552 C550 1.378 . S
C552 C553 1.367 . S
C553 C552 1.367 . S
C553 C555 1.433 . S
C554 C550 1.350 . S
C554 C551 1.463 . S
C554 N558 1.427 . S
C555 H545 0.929 . S
C555 C553 1.433 . S
C555 N558 1.384 . S
C556 H547 0.929 . S
C556 C548 1.378 . S
C556 C551 1.350 . S
C557 H544 0.929 . S
C557 C549 1.433 . S
C557 N559 1.384 . S
N558 C554 1.427 . S
N558 C555 1.384 . S
N559 C551 1.427 . S
N559 C557 1.384 . S
H560 C566 0.930 . S
H561 C570 0.930 . S
H562 C575 0.929 . S
H563 C573 0.929 . S
H564 C568 0.929 . S
H565 C574 0.929 . S
C566 H560 0.930 . S
C566 C567 1.367 . S
C566 C574 1.378 . S
C567 C566 1.367 . S
C567 C575 1.433 . S
C568 H564 0.929 . S
C568 C570 1.378 . S
C568 C572 1.350 . S
C569 C572 1.463 . S
C569 C574 1.350 . S
C569 N577 1.427 . S
C570 H561 0.930 . S
C570 C568 1.378 . S
C570 C571 1.367 . S
C571 C570 1.367 . S
C571 C573 1.433 . S
C572 C568 1.350 . S
C572 C569 1.463 . S
C572 N576 1.427 . S
C573 H563 0.929 . S
C573 C571 1.433 . S
C573 N576 1.384 . S
C574 H565 0.929 . S
C574 C566 1.378 . S
C574 C569 1.350 . S
C575 H562 0.929 . S
C575 C567 1.433 . S
C575 N577 1.384 . S
N576 C572 1.427 . S
N576 C573 1.384 . S
N577 C569 1.427 . S
N577 C575 1.384 . S
H578 C584 0.930 . S
H579 C588 0.930 . S
H580 C593 0.929 . S
H581 C591 0.929 . S
H582 C586 0.929 . S
H583 C592 0.929 . S
C584 H578 0.930 . S
C584 C585 1.367 . S
C584 C592 1.378 . S
C585 C584 1.367 . S
C585 C593 1.433 . S
C586 H582 0.929 . S
C586 C588 1.378 . S
C586 C590 1.350 . S
C587 C590 1.463 . S
C587 C592 1.350 . S
C587 N595 1.427 . S
C588 H579 0.930 . S
C588 C586 1.378 . S
C588 C589 1.367 . S
C589 C588 1.367 . S
C589 C591 1.433 . S
C590 C586 1.350 . S
C590 C587 1.463 . S
C590 N594 1.427 . S
C591 H581 0.929 . S
C591 C589 1.433 . S
C591 N594 1.384 . S
C592 H583 0.929 . S
C592 C584 1.378 . S
C592 C587 1.350 . S
C593 H580 0.929 . S
C593 C585 1.433 . S
C593 N595 1.384 . S
N594 C590 1.427 . S
N594 C591 1.384 . S
N595 C587 1.427 . S
N595 C593 1.384 . S
H596 C602 0.930 . S
H597 C606 0.930 . S
H598 C611 0.929 . S
H599 C609 0.929 . S
H600 C604 0.929 . S
H601 C610 0.929 . S
C602 H596 0.930 . S
C602 C603 1.367 . S
C602 C610 1.378 . S
C603 C602 1.367 . S
C603 C611 1.433 . S
C604 H600 0.929 . S
C604 C606 1.378 . S
C604 C608 1.350 . S
C605 C608 1.463 . S
C605 C610 1.350 . S
C605 N613 1.427 . S
C606 H597 0.930 . S
C606 C604 1.378 . S
C606 C607 1.367 . S
C607 C606 1.367 . S
C607 C609 1.433 . S
C608 C604 1.350 . S
C608 C605 1.463 . S
C608 N612 1.427 . S
C609 H599 0.929 . S
C609 C607 1.433 . S
C609 N612 1.384 . S
C610 H601 0.929 . S
C610 C602 1.378 . S
C610 C605 1.350 . S
C611 H598 0.929 . S
C611 C603 1.433 . S
C611 N613 1.384 . S
N612 C608 1.427 . S
N612 C609 1.384 . S
N613 C605 1.427 . S
N613 C611 1.384 . S
H614 C620 0.930 . S
H615 C624 0.930 . S
H616 C629 0.929 . S
H617 C627 0.929 . S
H618 C622 0.929 . S
H619 C628 0.929 . S
C620 H614 0.930 . S
C620 C621 1.367 . S
C620 C628 1.378 . S
C621 C620 1.367 . S
C621 C629 1.433 . S
C622 H618 0.929 . S
C622 C624 1.378 . S
C622 C626 1.350 . S
C623 C626 1.463 . S
C623 C628 1.350 . S
C623 N631 1.427 . S
C624 H615 0.930 . S
C624 C622 1.378 . S
C624 C625 1.367 . S
C625 C624 1.367 . S
C625 C627 1.433 . S
C626 C622 1.350 . S
C626 C623 1.463 . S
C626 N630 1.427 . S
C627 H617 0.929 . S
C627 C625 1.433 . S
C627 N630 1.384 . S
C628 H619 0.929 . S
C628 C620 1.378 . S
C628 C623 1.350 . S
C629 H616 0.929 . S
C629 C621 1.433 . S
C629 N631 1.384 . S
N630 C626 1.427 . S
N630 C627 1.384 . S
N631 C623 1.427 . S
N631 C629 1.384 . S
H632 C638 0.930 . S
H633 C642 0.930 . S
H634 C647 0.929 . S
H635 C645 0.929 . S
H636 C640 0.929 . S
H637 C646 0.929 . S
C638 H632 0.930 . S
C638 C639 1.367 . S
C638 C646 1.378 . S
C639 C638 1.367 . S
C639 C647 1.433 . S
C640 H636 0.929 . S
C640 C642 1.378 . S
C640 C644 1.350 . S
C641 C644 1.463 . S
C641 C646 1.350 . S
C641 N649 1.427 . S
C642 H633 0.930 . S
C642 C640 1.378 . S
C642 C643 1.367 . S
C643 C642 1.367 . S
C643 C645 1.433 . S
C644 C640 1.350 . S
C644 C641 1.463 . S
C644 N648 1.427 . S
C645 H635 0.929 . S
C645 C643 1.433 . S
C645 N648 1.384 . S
C646 H637 0.929 . S
C646 C638 1.378 . S
C646 C641 1.350 . S
C647 H634 0.929 . S
C647 C639 1.433 . S
C647 N649 1.384 . S
N648 C644 1.427 . S
N648 C645 1.384 . S
N649 C641 1.427 . S
N649 C647 1.384 . S
H650 C656 0.930 . S
H651 C660 0.930 . S
H652 C665 0.929 . S
H653 C663 0.929 . S
H654 C658 0.929 . S
H655 C664 0.929 . S
C656 H650 0.930 . S
C656 C657 1.367 . S
C656 C664 1.378 . S
C657 C656 1.367 . S
C657 C665 1.433 . S
C658 H654 0.929 . S
C658 C660 1.378 . S
C658 C662 1.350 . S
C659 C662 1.463 . S
C659 C664 1.350 . S
C659 N667 1.427 . S
C660 H651 0.930 . S
C660 C658 1.378 . S
C660 C661 1.367 . S
C661 C660 1.367 . S
C661 C663 1.433 . S
C662 C658 1.350 . S
C662 C659 1.463 . S
C662 N666 1.427 . S
C663 H653 0.929 . S
C663 C661 1.433 . S
C663 N666 1.384 . S
C664 H655 0.929 . S
C664 C656 1.378 . S
C664 C659 1.350 . S
C665 H652 0.929 . S
C665 C657 1.433 . S
C665 N667 1.384 . S
N666 C662 1.427 . S
N666 C663 1.384 . S
N667 C659 1.427 . S
N667 C665 1.384 . S
H668 C674 0.930 . S
H669 C678 0.930 . S
H670 C683 0.929 . S
H671 C681 0.929 . S
H672 C676 0.929 . S
H673 C682 0.929 . S
C674 H668 0.930 . S
C674 C675 1.367 . S
C674 C682 1.378 . S
C675 C674 1.367 . S
C675 C683 1.433 . S
C676 H672 0.929 . S
C676 C678 1.378 . S
C676 C680 1.350 . S
C677 C680 1.463 . S
C677 C682 1.350 . S
C677 N685 1.427 . S
C678 H669 0.930 . S
C678 C676 1.378 . S
C678 C679 1.367 . S
C679 C678 1.367 . S
C679 C681 1.433 . S
C680 C676 1.350 . S
C680 C677 1.463 . S
C680 N684 1.427 . S
C681 H671 0.929 . S
C681 C679 1.433 . S
C681 N684 1.384 . S
C682 H673 0.929 . S
C682 C674 1.378 . S
C682 C677 1.350 . S
C683 H670 0.929 . S
C683 C675 1.433 . S
C683 N685 1.384 . S
N684 C680 1.427 . S
N684 C681 1.384 . S
N685 C677 1.427 . S
N685 C683 1.384 . S
H686 C692 0.930 . S
H687 C696 0.930 . S
H688 C701 0.929 . S
H689 C699 0.929 . S
H690 C694 0.929 . S
H691 C700 0.929 . S
C692 H686 0.930 . S
C692 C693 1.367 . S
C692 C700 1.378 . S
C693 C692 1.367 . S
C693 C701 1.433 . S
C694 H690 0.929 . S
C694 C696 1.378 . S
C694 C698 1.350 . S
C695 C698 1.463 . S
C695 C700 1.350 . S
C695 N703 1.427 . S
C696 H687 0.930 . S
C696 C694 1.378 . S
C696 C697 1.367 . S
C697 C696 1.367 . S
C697 C699 1.433 . S
C698 C694 1.350 . S
C698 C695 1.463 . S
C698 N702 1.427 . S
C699 H689 0.929 . S
C699 C697 1.433 . S
C699 N702 1.384 . S
C700 H691 0.929 . S
C700 C692 1.378 . S
C700 C695 1.350 . S
C701 H688 0.929 . S
C701 C693 1.433 . S
C701 N703 1.384 . S
N702 C698 1.427 . S
N702 C699 1.384 . S
N703 C695 1.427 . S
N703 C701 1.384 . S
H704 C710 0.930 . S
H705 C714 0.930 . S
H706 C719 0.929 . S
H707 C717 0.929 . S
H708 C712 0.929 . S
H709 C718 0.929 . S
C710 H704 0.930 . S
C710 C711 1.367 . S
C710 C718 1.378 . S
C711 C710 1.367 . S
C711 C719 1.433 . S
C712 H708 0.929 . S
C712 C714 1.378 . S
C712 C716 1.350 . S
C713 C716 1.463 1_655 S
C713 C718 1.350 . S
C713 N721 1.427 . S
C714 H705 0.930 . S
C714 C712 1.378 . S
C714 C715 1.367 . S
C715 C714 1.367 . S
C715 C717 1.433 . S
C716 C712 1.350 . S
C716 C713 1.463 1_455 S
C716 N720 1.427 . S
C717 H707 0.929 . S
C717 C715 1.433 . S
C717 N720 1.384 . S
C718 H709 0.929 . S
C718 C710 1.378 . S
C718 C713 1.350 . S
C719 H706 0.929 . S
C719 C711 1.433 . S
C719 N721 1.384 . S
N720 C716 1.427 . S
N720 C717 1.384 . S
N721 C713 1.427 . S
N721 C719 1.384 . S
H722 C728 0.930 . S
H723 C732 0.930 . S
H724 C737 0.929 . S
H725 C735 0.929 . S
H726 C730 0.929 . S
H727 C736 0.929 . S
C728 H722 0.930 . S
C728 C729 1.367 . S
C728 C736 1.378 . S
C729 C728 1.367 . S
C729 C737 1.433 . S
C730 H726 0.929 . S
C730 C732 1.378 . S
C730 C734 1.350 . S
C731 C734 1.463 1_545 S
C731 C736 1.350 . S
C731 N739 1.427 . S
C732 H723 0.930 . S
C732 C730 1.378 . S
C732 C733 1.367 . S
C733 C732 1.367 . S
C733 C735 1.433 . S
C734 C730 1.350 . S
C734 C731 1.463 1_565 S
C734 N738 1.427 . S
C735 H725 0.929 . S
C735 C733 1.433 . S
C735 N738 1.384 . S
C736 H727 0.929 . S
C736 C728 1.378 . S
C736 C731 1.350 . S
C737 H724 0.929 . S
C737 C729 1.433 . S
C737 N739 1.384 . S
N738 C734 1.427 . S
N738 C735 1.384 . S
N739 C731 1.427 . S
N739 C737 1.384 . S
H740 C746 0.930 . S
H741 C750 0.930 . S
H742 C755 0.929 . S
H743 C753 0.929 . S
H744 C748 0.929 . S
H745 C754 0.929 . S
C746 H740 0.930 . S
C746 C747 1.367 . S
C746 C754 1.378 . S
C747 C746 1.367 . S
C747 C755 1.433 . S
C748 H744 0.929 . S
C748 C750 1.378 . S
C748 C752 1.350 . S
C749 C752 1.463 1_455 S
C749 C754 1.350 . S
C749 N757 1.427 . S
C750 H741 0.930 . S
C750 C748 1.378 . S
C750 C751 1.367 . S
C751 C750 1.367 . S
C751 C753 1.433 . S
C752 C748 1.350 . S
C752 C749 1.463 1_655 S
C752 N756 1.427 . S
C753 H743 0.929 . S
C753 C751 1.433 . S
C753 N756 1.384 . S
C754 H745 0.929 . S
C754 C746 1.378 . S
C754 C749 1.350 . S
C755 H742 0.929 . S
C755 C747 1.433 . S
C755 N757 1.384 . S
N756 C752 1.427 . S
N756 C753 1.384 . S
N757 C749 1.427 . S
N757 C755 1.384 . S
H758 C764 0.930 . S
H759 C768 0.930 . S
H760 C773 0.929 . S
H761 C771 0.929 . S
H762 C766 0.929 . S
H763 C772 0.929 . S
C764 H758 0.930 . S
C764 C765 1.367 . S
C764 C772 1.378 . S
C765 C764 1.367 . S
C765 C773 1.433 . S
C766 H762 0.929 . S
C766 C768 1.378 . S
C766 C770 1.350 . S
C767 C770 1.463 1_565 S
C767 C772 1.350 . S
C767 N775 1.427 . S
C768 H759 0.930 . S
C768 C766 1.378 . S
C768 C769 1.367 . S
C769 C768 1.367 . S
C769 C771 1.433 . S
C770 C766 1.350 . S
C770 C767 1.463 1_545 S
C770 N774 1.427 . S
C771 H761 0.929 . S
C771 C769 1.433 . S
C771 N774 1.384 . S
C772 H763 0.929 . S
C772 C764 1.378 . S
C772 C767 1.350 . S
C773 H760 0.929 . S
C773 C765 1.433 . S
C773 N775 1.384 . S
N774 C770 1.427 . S
N774 C771 1.384 . S
N775 C767 1.427 . S
N775 C773 1.384 . S
H776 C782 0.930 . S
H777 C786 0.930 . S
H778 C791 0.929 . S
H779 C789 0.929 . S
H780 C784 0.929 . S
H781 C790 0.929 . S
C782 H776 0.930 . S
C782 C783 1.367 . S
C782 C790 1.378 . S
C783 C782 1.367 . S
C783 C791 1.433 . S
C784 H780 0.929 . S
C784 C786 1.378 . S
C784 C788 1.350 . S
C785 C788 1.463 1_455 S
C785 C790 1.350 . S
C785 N793 1.427 . S
C786 H777 0.930 . S
C786 C784 1.378 . S
C786 C787 1.367 . S
C787 C786 1.367 . S
C787 C789 1.433 . S
C788 C784 1.350 . S
C788 C785 1.463 1_655 S
C788 N792 1.427 . S
C789 H779 0.929 . S
C789 C787 1.433 . S
C789 N792 1.384 . S
C790 H781 0.929 . S
C790 C782 1.378 . S
C790 C785 1.350 . S
C791 H778 0.929 . S
C791 C783 1.433 . S
C791 N793 1.384 . S
N792 C788 1.427 . S
N792 C789 1.384 . S
N793 C785 1.427 . S
N793 C791 1.384 . S
H794 C800 0.930 . S
H795 C804 0.930 . S
H796 C809 0.929 . S
H797 C807 0.929 . S
H798 C802 0.929 . S
H799 C808 0.929 . S
C800 H794 0.930 . S
C800 C801 1.367 . S
C800 C808 1.378 . S
C801 C800 1.367 . S
C801 C809 1.433 . S
C802 H798 0.929 . S
C802 C804 1.378 . S
C802 C806 1.350 . S
C803 C806 1.463 1_565 S
C803 C808 1.350 . S
C803 N811 1.427 . S
C804 H795 0.930 . S
C804 C802 1.378 . S
C804 C805 1.367 . S
C805 C804 1.367 . S
C805 C807 1.433 . S
C806 C802 1.350 . S
C806 C803 1.463 1_545 S
C806 N810 1.427 . S
C807 H797 0.929 . S
C807 C805 1.433 . S
C807 N810 1.384 . S
C808 H799 0.929 . S
C808 C800 1.378 . S
C808 C803 1.350 . S
C809 H796 0.929 . S
C809 C801 1.433 . S
C809 N811 1.384 . S
N810 C806 1.427 . S
N810 C807 1.384 . S
N811 C803 1.427 . S
N811 C809 1.384 . S
H812 C818 0.930 . S
H813 C822 0.930 . S
H814 C827 0.929 . S
H815 C825 0.929 . S
H816 C820 0.929 . S
H817 C826 0.929 . S
C818 H812 0.930 . S
C818 C819 1.367 . S
C818 C826 1.378 . S
C819 C818 1.367 . S
C819 C827 1.433 . S
C820 H816 0.929 . S
C820 C822 1.378 . S
C820 C824 1.350 . S
C821 C824 1.463 1_455 S
C821 C826 1.350 . S
C821 N829 1.427 . S
C822 H813 0.930 . S
C822 C820 1.378 . S
C822 C823 1.367 . S
C823 C822 1.367 . S
C823 C825 1.433 . S
C824 C820 1.350 . S
C824 C821 1.463 1_655 S
C824 N828 1.427 . S
C825 H815 0.929 . S
C825 C823 1.433 . S
C825 N828 1.384 . S
C826 H817 0.929 . S
C826 C818 1.378 . S
C826 C821 1.350 . S
C827 H814 0.929 . S
C827 C819 1.433 . S
C827 N829 1.384 . S
N828 C824 1.427 . S
N828 C825 1.384 . S
N829 C821 1.427 . S
N829 C827 1.384 . S
H830 C836 0.930 . S
H831 C840 0.930 . S
H832 C845 0.929 . S
H833 C843 0.929 . S
H834 C838 0.929 . S
H835 C844 0.929 . S
C836 H830 0.930 . S
C836 C837 1.367 . S
C836 C844 1.378 . S
C837 C836 1.367 . S
C837 C845 1.433 . S
C838 H834 0.929 . S
C838 C840 1.378 . S
C838 C842 1.350 . S
C839 C842 1.463 1_545 S
C839 C844 1.350 . S
C839 N847 1.427 . S
C840 H831 0.930 . S
C840 C838 1.378 . S
C840 C841 1.367 . S
C841 C840 1.367 . S
C841 C843 1.433 . S
C842 C838 1.350 . S
C842 C839 1.463 1_565 S
C842 N846 1.427 . S
C843 H833 0.929 . S
C843 C841 1.433 . S
C843 N846 1.384 . S
C844 H835 0.929 . S
C844 C836 1.378 . S
C844 C839 1.350 . S
C845 H832 0.929 . S
C845 C837 1.433 . S
C845 N847 1.384 . S
N846 C842 1.427 . S
N846 C843 1.384 . S
N847 C839 1.427 . S
N847 C845 1.384 . S
H848 C854 0.930 . S
H849 C858 0.930 . S
H850 C863 0.929 . S
H851 C861 0.929 . S
H852 C856 0.929 . S
H853 C862 0.929 . S
C854 H848 0.930 . S
C854 C855 1.367 . S
C854 C862 1.378 . S
C855 C854 1.367 . S
C855 C863 1.433 . S
C856 H852 0.929 . S
C856 C858 1.378 . S
C856 C860 1.350 . S
C857 C860 1.463 . S
C857 C862 1.350 . S
C857 N865 1.427 . S
C858 H849 0.930 . S
C858 C856 1.378 . S
C858 C859 1.367 . S
C859 C858 1.367 . S
C859 C861 1.433 . S
C860 C856 1.350 . S
C860 C857 1.463 . S
C860 N864 1.427 . S
C861 H851 0.929 . S
C861 C859 1.433 . S
C861 N864 1.384 . S
C862 H853 0.929 . S
C862 C854 1.378 . S
C862 C857 1.350 . S
C863 H850 0.929 . S
C863 C855 1.433 . S
C863 N865 1.384 . S
N864 C860 1.427 . S
N864 C861 1.384 . S
N865 C857 1.427 . S
N865 C863 1.384 . S
H866 C872 0.930 . S
H867 C876 0.930 . S
H868 C881 0.929 . S
H869 C879 0.929 . S
H870 C874 0.929 . S
H871 C880 0.929 . S
C872 H866 0.930 . S
C872 C873 1.367 . S
C872 C880 1.378 . S
C873 C872 1.367 . S
C873 C881 1.433 . S
C874 H870 0.929 . S
C874 C876 1.378 . S
C874 C878 1.350 . S
C875 C878 1.463 . S
C875 C880 1.350 . S
C875 N883 1.427 . S
C876 H867 0.930 . S
C876 C874 1.378 . S
C876 C877 1.367 . S
C877 C876 1.367 . S
C877 C879 1.433 . S
C878 C874 1.350 . S
C878 C875 1.463 . S
C878 N882 1.427 . S
C879 H869 0.929 . S
C879 C877 1.433 . S
C879 N882 1.384 . S
C880 H871 0.929 . S
C880 C872 1.378 . S
C880 C875 1.350 . S
C881 H868 0.929 . S
C881 C873 1.433 . S
C881 N883 1.384 . S
N882 C878 1.427 . S
N882 C879 1.384 . S
N883 C875 1.427 . S
N883 C881 1.384 . S
H884 C890 0.930 . S
H885 C894 0.930 . S
H886 C899 0.929 . S
H887 C897 0.929 . S
H888 C892 0.929 . S
H889 C898 0.929 . S
C890 H884 0.930 . S
C890 C891 1.367 . S
C890 C898 1.378 . S
C891 C890 1.367 . S
C891 C899 1.433 . S
C892 H888 0.929 . S
C892 C894 1.378 . S
C892 C896 1.350 . S
C893 C896 1.463 . S
C893 C898 1.350 . S
C893 N901 1.427 . S
C894 H885 0.930 . S
C894 C892 1.378 . S
C894 C895 1.367 . S
C895 C894 1.367 . S
C895 C897 1.433 . S
C896 C892 1.350 . S
C896 C893 1.463 . S
C896 N900 1.427 . S
C897 H887 0.929 . S
C897 C895 1.433 . S
C897 N900 1.384 . S
C898 H889 0.929 . S
C898 C890 1.378 . S
C898 C893 1.350 . S
C899 H886 0.929 . S
C899 C891 1.433 . S
C899 N901 1.384 . S
N900 C896 1.427 . S
N900 C897 1.384 . S
N901 C893 1.427 . S
N901 C899 1.384 . S
H902 C908 0.930 . S
H903 C912 0.930 . S
H904 C917 0.929 . S
H905 C915 0.929 . S
H906 C910 0.929 . S
H907 C916 0.929 . S
C908 H902 0.930 . S
C908 C909 1.367 . S
C908 C916 1.378 . S
C909 C908 1.367 . S
C909 C917 1.433 . S
C910 H906 0.929 . S
C910 C912 1.378 . S
C910 C914 1.350 . S
C911 C914 1.463 . S
C911 C916 1.350 . S
C911 N919 1.427 . S
C912 H903 0.930 . S
C912 C910 1.378 . S
C912 C913 1.367 . S
C913 C912 1.367 . S
C913 C915 1.433 . S
C914 C910 1.350 . S
C914 C911 1.463 . S
C914 N918 1.427 . S
C915 H905 0.929 . S
C915 C913 1.433 . S
C915 N918 1.384 . S
C916 H907 0.929 . S
C916 C908 1.378 . S
C916 C911 1.350 . S
C917 H904 0.929 . S
C917 C909 1.433 . S
C917 N919 1.384 . S
N918 C914 1.427 . S
N918 C915 1.384 . S
N919 C911 1.427 . S
N919 C917 1.384 . S
H920 C926 0.930 . S
H921 C930 0.930 . S
H922 C935 0.929 . S
H923 C933 0.929 . S
H924 C928 0.929 . S
H925 C934 0.929 . S
C926 H920 0.930 . S
C926 C927 1.367 . S
C926 C934 1.378 . S
C927 C926 1.367 . S
C927 C935 1.433 . S
C928 H924 0.929 . S
C928 C930 1.378 . S
C928 C932 1.350 . S
C929 C932 1.463 . S
C929 C934 1.350 . S
C929 N937 1.427 . S
C930 H921 0.930 . S
C930 C928 1.378 . S
C930 C931 1.367 . S
C931 C930 1.367 . S
C931 C933 1.433 . S
C932 C928 1.350 . S
C932 C929 1.463 . S
C932 N936 1.427 . S
C933 H923 0.929 . S
C933 C931 1.433 . S
C933 N936 1.384 . S
C934 H925 0.929 . S
C934 C926 1.378 . S
C934 C929 1.350 . S
C935 H922 0.929 . S
C935 C927 1.433 . S
C935 N937 1.384 . S
N936 C932 1.427 . S
N936 C933 1.384 . S
N937 C929 1.427 . S
N937 C935 1.384 . S
H938 C944 0.930 . S
H939 C948 0.930 . S
H940 C953 0.929 . S
H941 C951 0.929 . S
H942 C946 0.929 . S
H943 C952 0.929 . S
C944 H938 0.930 . S
C944 C945 1.367 . S
C944 C952 1.378 . S
C945 C944 1.367 . S
C945 C953 1.433 . S
C946 H942 0.929 . S
C946 C948 1.378 . S
C946 C950 1.350 . S
C947 C950 1.463 . S
C947 C952 1.350 . S
C947 N955 1.427 . S
C948 H939 0.930 . S
C948 C946 1.378 . S
C948 C949 1.367 . S
C949 C948 1.367 . S
C949 C951 1.433 . S
C950 C946 1.350 . S
C950 C947 1.463 . S
C950 N954 1.427 . S
C951 H941 0.929 . S
C951 C949 1.433 . S
C951 N954 1.384 . S
C952 H943 0.929 . S
C952 C944 1.378 . S
C952 C947 1.350 . S
C953 H940 0.929 . S
C953 C945 1.433 . S
C953 N955 1.384 . S
N954 C950 1.427 . S
N954 C951 1.384 . S
N955 C947 1.427 . S
N955 C953 1.384 . S
H956 C962 0.930 . S
H957 C966 0.930 . S
H958 C971 0.929 . S
H959 C969 0.929 . S
H960 C964 0.929 . S
H961 C970 0.929 . S
C962 H956 0.930 . S
C962 C963 1.367 . S
C962 C970 1.378 . S
C963 C962 1.367 . S
C963 C971 1.433 . S
C964 H960 0.929 . S
C964 C966 1.378 . S
C964 C968 1.350 . S
C965 C968 1.463 . S
C965 C970 1.350 . S
C965 N973 1.427 . S
C966 H957 0.930 . S
C966 C964 1.378 . S
C966 C967 1.367 . S
C967 C966 1.367 . S
C967 C969 1.433 . S
C968 C964 1.350 . S
C968 C965 1.463 . S
C968 N972 1.427 . S
C969 H959 0.929 . S
C969 C967 1.433 . S
C969 N972 1.384 . S
C970 H961 0.929 . S
C970 C962 1.378 . S
C970 C965 1.350 . S
C971 H958 0.929 . S
C971 C963 1.433 . S
C971 N973 1.384 . S
N972 C968 1.427 . S
N972 C969 1.384 . S
N973 C965 1.427 . S
N973 C971 1.384 . S
H974 C980 0.930 . S
H975 C984 0.930 . S
H976 C989 0.929 . S
H977 C987 0.929 . S
H978 C982 0.929 . S
H979 C988 0.929 . S
C980 H974 0.930 . S
C980 C981 1.367 . S
C980 C988 1.378 . S
C981 C980 1.367 . S
C981 C989 1.433 . S
C982 H978 0.929 . S
C982 C984 1.378 . S
C982 C986 1.350 . S
C983 C986 1.463 . S
C983 C988 1.350 . S
C983 N991 1.427 . S
C984 H975 0.930 . S
C984 C982 1.378 . S
C984 C985 1.367 . S
C985 C984 1.367 . S
C985 C987 1.433 . S
C986 C982 1.350 . S
C986 C983 1.463 . S
C986 N990 1.427 . S
C987 H977 0.929 . S
C987 C985 1.433 . S
C987 N990 1.384 . S
C988 H979 0.929 . S
C988 C980 1.378 . S
C988 C983 1.350 . S
C989 H976 0.929 . S
C989 C981 1.433 . S
C989 N991 1.384 . S
N990 C986 1.427 . S
N990 C987 1.384 . S
N991 C983 1.427 . S
N991 C989 1.384 . S
H992 C998 0.930 . S
H993 C1002 0.930 . S
H994 C1007 0.929 . S
H995 C1005 0.929 . S
H996 C1000 0.929 . S
H997 C1006 0.929 . S
C998 H992 0.930 . S
C998 C999 1.367 . S
C998 C1006 1.378 . S
C999 C998 1.367 . S
C999 C1007 1.433 . S
C1000 H996 0.929 . S
C1000 C1002 1.378 . S
C1000 C1004 1.350 . S
C1001 C1004 1.463 . S
C1001 C1006 1.350 . S
C1001 N1009 1.427 . S
C1002 H993 0.930 . S
C1002 C1000 1.378 . S
C1002 C1003 1.367 . S
C1003 C1002 1.367 . S
C1003 C1005 1.433 . S
C1004 C1000 1.350 . S
C1004 C1001 1.463 . S
C1004 N1008 1.427 . S
C1005 H995 0.929 . S
C1005 C1003 1.433 . S
C1005 N1008 1.384 . S
C1006 H997 0.929 . S
C1006 C998 1.378 . S
C1006 C1001 1.350 . S
C1007 H994 0.929 . S
C1007 C999 1.433 . S
C1007 N1009 1.384 . S
N1008 C1004 1.427 . S
N1008 C1005 1.384 . S
N1009 C1001 1.427 . S
N1009 C1007 1.384 . S
H1010 C1016 0.930 . S
H1011 C1020 0.930 . S
H1012 C1025 0.929 . S
H1013 C1023 0.929 . S
H1014 C1018 0.929 . S
H1015 C1024 0.929 . S
C1016 H1010 0.930 . S
C1016 C1017 1.367 . S
C1016 C1024 1.378 . S
C1017 C1016 1.367 . S
C1017 C1025 1.433 . S
C1018 H1014 0.929 . S
C1018 C1020 1.378 . S
C1018 C1022 1.350 . S
C1019 C1022 1.463 . S
C1019 C1024 1.350 . S
C1019 N1027 1.427 . S
C1020 H1011 0.930 . S
C1020 C1018 1.378 . S
C1020 C1021 1.367 . S
C1021 C1020 1.367 . S
C1021 C1023 1.433 . S
C1022 C1018 1.350 . S
C1022 C1019 1.463 . S
C1022 N1026 1.427 . S
C1023 H1013 0.929 . S
C1023 C1021 1.433 . S
C1023 N1026 1.384 . S
C1024 H1015 0.929 . S
C1024 C1016 1.378 . S
C1024 C1019 1.350 . S
C1025 H1012 0.929 . S
C1025 C1017 1.433 . S
C1025 N1027 1.384 . S
N1026 C1022 1.427 . S
N1026 C1023 1.384 . S
N1027 C1019 1.427 . S
N1027 C1025 1.384 . S
H1028 C1034 0.930 . S
H1029 C1038 0.930 . S
H1030 C1043 0.929 . S
H1031 C1041 0.929 . S
H1032 C1036 0.929 . S
H1033 C1042 0.929 . S
C1034 H1028 0.930 . S
C1034 C1035 1.367 . S
C1034 C1042 1.378 . S
C1035 C1034 1.367 . S
C1035 C1043 1.433 . S
C1036 H1032 0.929 . S
C1036 C1038 1.378 . S
C1036 C1040 1.350 . S
C1037 C1040 1.463 . S
C1037 C1042 1.350 . S
C1037 N1045 1.427 . S
C1038 H1029 0.930 . S
C1038 C1036 1.378 . S
C1038 C1039 1.367 . S
C1039 C1038 1.367 . S
C1039 C1041 1.433 . S
C1040 C1036 1.350 . S
C1040 C1037 1.463 . S
C1040 N1044 1.427 . S
C1041 H1031 0.929 . S
C1041 C1039 1.433 . S
C1041 N1044 1.384 . S
C1042 H1033 0.929 . S
C1042 C1034 1.378 . S
C1042 C1037 1.350 . S
C1043 H1030 0.929 . S
C1043 C1035 1.433 . S
C1043 N1045 1.384 . S
N1044 C1040 1.427 . S
N1044 C1041 1.384 . S
N1045 C1037 1.427 . S
N1045 C1043 1.384 . S
H1046 C1052 0.930 . S
H1047 C1056 0.930 . S
H1048 C1061 0.929 . S
H1049 C1059 0.929 . S
H1050 C1054 0.929 . S
H1051 C1060 0.929 . S
C1052 H1046 0.930 . S
C1052 C1053 1.367 . S
C1052 C1060 1.378 . S
C1053 C1052 1.367 . S
C1053 C1061 1.433 . S
C1054 H1050 0.929 . S
C1054 C1056 1.378 . S
C1054 C1058 1.350 . S
C1055 C1058 1.463 . S
C1055 C1060 1.350 . S
C1055 N1063 1.427 . S
C1056 H1047 0.930 . S
C1056 C1054 1.378 . S
C1056 C1057 1.367 . S
C1057 C1056 1.367 . S
C1057 C1059 1.433 . S
C1058 C1054 1.350 . S
C1058 C1055 1.463 . S
C1058 N1062 1.427 . S
C1059 H1049 0.929 . S
C1059 C1057 1.433 . S
C1059 N1062 1.384 . S
C1060 H1051 0.929 . S
C1060 C1052 1.378 . S
C1060 C1055 1.350 . S
C1061 H1048 0.929 . S
C1061 C1053 1.433 . S
C1061 N1063 1.384 . S
N1062 C1058 1.427 . S
N1062 C1059 1.384 . S
N1063 C1055 1.427 . S
N1063 C1061 1.384 . S
H1064 C1070 0.930 . S
H1065 C1074 0.930 . S
H1066 C1079 0.929 . S
H1067 C1077 0.929 . S
H1068 C1072 0.929 . S
H1069 C1078 0.929 . S
C1070 H1064 0.930 . S
C1070 C1071 1.367 . S
C1070 C1078 1.378 . S
C1071 C1070 1.367 . S
C1071 C1079 1.433 . S
C1072 H1068 0.929 . S
C1072 C1074 1.378 . S
C1072 C1076 1.350 . S
C1073 C1076 1.463 . S
C1073 C1078 1.350 . S
C1073 N1081 1.427 . S
C1074 H1065 0.930 . S
C1074 C1072 1.378 . S
C1074 C1075 1.367 . S
C1075 C1074 1.367 . S
C1075 C1077 1.433 . S
C1076 C1072 1.350 . S
C1076 C1073 1.463 . S
C1076 N1080 1.427 . S
C1077 H1067 0.929 . S
C1077 C1075 1.433 . S
C1077 N1080 1.384 . S
C1078 H1069 0.929 . S
C1078 C1070 1.378 . S
C1078 C1073 1.350 . S
C1079 H1066 0.929 . S
C1079 C1071 1.433 . S
C1079 N1081 1.384 . S
N1080 C1076 1.427 . S
N1080 C1077 1.384 . S
N1081 C1073 1.427 . S
N1081 C1079 1.384 . S
H1082 C1088 0.930 . S
H1083 C1092 0.930 . S
H1084 C1097 0.929 . S
H1085 C1095 0.929 . S
H1086 C1090 0.929 . S
H1087 C1096 0.929 . S
C1088 H1082 0.930 . S
C1088 C1089 1.367 . S
C1088 C1096 1.378 . S
C1089 C1088 1.367 . S
C1089 C1097 1.433 . S
C1090 H1086 0.929 . S
C1090 C1092 1.378 . S
C1090 C1094 1.350 . S
C1091 C1094 1.463 . S
C1091 C1096 1.350 . S
C1091 N1099 1.427 . S
C1092 H1083 0.930 . S
C1092 C1090 1.378 . S
C1092 C1093 1.367 . S
C1093 C1092 1.367 . S
C1093 C1095 1.433 . S
C1094 C1090 1.350 . S
C1094 C1091 1.463 . S
C1094 N1098 1.427 . S
C1095 H1085 0.929 . S
C1095 C1093 1.433 . S
C1095 N1098 1.384 . S
C1096 H1087 0.929 . S
C1096 C1088 1.378 . S
C1096 C1091 1.350 . S
C1097 H1084 0.929 . S
C1097 C1089 1.433 . S
C1097 N1099 1.384 . S
N1098 C1094 1.427 . S
N1098 C1095 1.384 . S
N1099 C1091 1.427 . S
N1099 C1097 1.384 . S
H1100 C1106 0.930 . S
H1101 C1110 0.930 . S
H1102 C1115 0.929 . S
H1103 C1113 0.929 . S
H1104 C1108 0.929 . S
H1105 C1114 0.929 . S
C1106 H1100 0.930 . S
C1106 C1107 1.367 . S
C1106 C1114 1.378 . S
C1107 C1106 1.367 . S
C1107 C1115 1.433 . S
C1108 H1104 0.929 . S
C1108 C1110 1.378 . S
C1108 C1112 1.350 . S
C1109 C1112 1.463 . S
C1109 C1114 1.350 . S
C1109 N1117 1.427 . S
C1110 H1101 0.930 . S
C1110 C1108 1.378 . S
C1110 C1111 1.367 . S
C1111 C1110 1.367 . S
C1111 C1113 1.433 . S
C1112 C1108 1.350 . S
C1112 C1109 1.463 . S
C1112 N1116 1.427 . S
C1113 H1103 0.929 . S
C1113 C1111 1.433 . S
C1113 N1116 1.384 . S
C1114 H1105 0.929 . S
C1114 C1106 1.378 . S
C1114 C1109 1.350 . S
C1115 H1102 0.929 . S
C1115 C1107 1.433 . S
C1115 N1117 1.384 . S
N1116 C1112 1.427 . S
N1116 C1113 1.384 . S
N1117 C1109 1.427 . S
N1117 C1115 1.384 . S
H1118 C1124 0.930 . S
H1119 C1128 0.930 . S
H1120 C1133 0.929 . S
H1121 C1131 0.929 . S
H1122 C1126 0.929 . S
H1123 C1132 0.929 . S
C1124 H1118 0.930 . S
C1124 C1125 1.367 . S
C1124 C1132 1.378 . S
C1125 C1124 1.367 . S
C1125 C1133 1.433 . S
C1126 H1122 0.929 . S
C1126 C1128 1.378 . S
C1126 C1130 1.350 . S
C1127 C1130 1.463 . S
C1127 C1132 1.350 . S
C1127 N1135 1.427 . S
C1128 H1119 0.930 . S
C1128 C1126 1.378 . S
C1128 C1129 1.367 . S
C1129 C1128 1.367 . S
C1129 C1131 1.433 . S
C1130 C1126 1.350 . S
C1130 C1127 1.463 . S
C1130 N1134 1.427 . S
C1131 H1121 0.929 . S
C1131 C1129 1.433 . S
C1131 N1134 1.384 . S
C1132 H1123 0.929 . S
C1132 C1124 1.378 . S
C1132 C1127 1.350 . S
C1133 H1120 0.929 . S
C1133 C1125 1.433 . S
C1133 N1135 1.384 . S
N1134 C1130 1.427 . S
N1134 C1131 1.384 . S
N1135 C1127 1.427 . S
N1135 C1133 1.384 . S
H1136 C1142 0.930 . S
H1137 C1146 0.930 . S
H1138 C1151 0.929 . S
H1139 C1149 0.929 . S
H1140 C1144 0.929 . S
H1141 C1150 0.929 . S
C1142 H1136 0.930 . S
C1142 C1143 1.367 . S
C1142 C1150 1.378 . S
C1143 C1142 1.367 . S
C1143 C1151 1.433 . S
C1144 H1140 0.929 . S
C1144 C1146 1.378 . S
C1144 C1148 1.350 . S
C1145 C1148 1.463 1_554 S
C1145 C1150 1.350 . S
C1145 N1153 1.427 . S
C1146 H1137 0.930 . S
C1146 C1144 1.378 . S
C1146 C1147 1.367 . S
C1147 C1146 1.367 . S
C1147 C1149 1.433 . S
C1148 C1144 1.350 . S
C1148 C1145 1.463 1_556 S
C1148 N1152 1.427 . S
C1149 H1139 0.929 . S
C1149 C1147 1.433 . S
C1149 N1152 1.384 . S
C1150 H1141 0.929 . S
C1150 C1142 1.378 . S
C1150 C1145 1.350 . S
C1151 H1138 0.929 . S
C1151 C1143 1.433 . S
C1151 N1153 1.384 . S
N1152 C1148 1.427 . S
N1152 C1149 1.384 . S
N1153 C1145 1.427 . S
N1153 C1151 1.384 . S
H1154 C1160 0.930 . S
H1155 C1164 0.930 . S
H1156 C1169 0.929 . S
H1157 C1167 0.929 . S
H1158 C1162 0.929 . S
H1159 C1168 0.929 . S
C1160 H1154 0.930 . S
C1160 C1161 1.367 . S
C1160 C1168 1.378 . S
C1161 C1160 1.367 . S
C1161 C1169 1.433 . S
C1162 H1158 0.929 . S
C1162 C1164 1.378 . S
C1162 C1166 1.350 . S
C1163 C1166 1.463 1_556 S
C1163 C1168 1.350 . S
C1163 N1171 1.427 . S
C1164 H1155 0.930 . S
C1164 C1162 1.378 . S
C1164 C1165 1.367 . S
C1165 C1164 1.367 . S
C1165 C1167 1.433 . S
C1166 C1162 1.350 . S
C1166 C1163 1.463 1_554 S
C1166 N1170 1.427 . S
C1167 H1157 0.929 . S
C1167 C1165 1.433 . S
C1167 N1170 1.384 . S
C1168 H1159 0.929 . S
C1168 C1160 1.378 . S
C1168 C1163 1.350 . S
C1169 H1156 0.929 . S
C1169 C1161 1.433 . S
C1169 N1171 1.384 . S
N1170 C1166 1.427 . S
N1170 C1167 1.384 . S
N1171 C1163 1.427 . S
N1171 C1169 1.384 . S
H1172 C1178 0.930 . S
H1173 C1182 0.930 . S
H1174 C1187 0.929 . S
H1175 C1185 0.929 . S
H1176 C1180 0.929 . S
H1177 C1186 0.929 . S
C1178 H1172 0.930 . S
C1178 C1179 1.367 . S
C1178 C1186 1.378 . S
C1179 C1178 1.367 . S
C1179 C1187 1.433 . S
C1180 H1176 0.929 . S
C1180 C1182 1.378 . S
C1180 C1184 1.350 . S
C1181 C1184 1.463 1_554 S
C1181 C1186 1.350 . S
C1181 N1189 1.427 . S
C1182 H1173 0.930 . S
C1182 C1180 1.378 . S
C1182 C1183 1.367 . S
C1183 C1182 1.367 . S
C1183 C1185 1.433 . S
C1184 C1180 1.350 . S
C1184 C1181 1.463 1_556 S
C1184 N1188 1.427 . S
C1185 H1175 0.929 . S
C1185 C1183 1.433 . S
C1185 N1188 1.384 . S
C1186 H1177 0.929 . S
C1186 C1178 1.378 . S
C1186 C1181 1.350 . S
C1187 H1174 0.929 . S
C1187 C1179 1.433 . S
C1187 N1189 1.384 . S
N1188 C1184 1.427 . S
N1188 C1185 1.384 . S
N1189 C1181 1.427 . S
N1189 C1187 1.384 . S
H1190 C1196 0.930 . S
H1191 C1200 0.930 . S
H1192 C1205 0.929 . S
H1193 C1203 0.929 . S
H1194 C1198 0.929 . S
H1195 C1204 0.929 . S
C1196 H1190 0.930 . S
C1196 C1197 1.367 . S
C1196 C1204 1.378 . S
C1197 C1196 1.367 . S
C1197 C1205 1.433 . S
C1198 H1194 0.929 . S
C1198 C1200 1.378 . S
C1198 C1202 1.350 . S
C1199 C1202 1.463 1_554 S
C1199 C1204 1.350 . S
C1199 N1207 1.427 . S
C1200 H1191 0.930 . S
C1200 C1198 1.378 . S
C1200 C1201 1.367 . S
C1201 C1200 1.367 . S
C1201 C1203 1.433 . S
C1202 C1198 1.350 . S
C1202 C1199 1.463 1_556 S
C1202 N1206 1.427 . S
C1203 H1193 0.929 . S
C1203 C1201 1.433 . S
C1203 N1206 1.384 . S
C1204 H1195 0.929 . S
C1204 C1196 1.378 . S
C1204 C1199 1.350 . S
C1205 H1192 0.929 . S
C1205 C1197 1.433 . S
C1205 N1207 1.384 . S
N1206 C1202 1.427 . S
N1206 C1203 1.384 . S
N1207 C1199 1.427 . S
N1207 C1205 1.384 . S
H1208 C1214 0.930 . S
H1209 C1218 0.930 . S
H1210 C1223 0.929 . S
H1211 C1221 0.929 . S
H1212 C1216 0.929 . S
H1213 C1222 0.929 . S
C1214 H1208 0.930 . S
C1214 C1215 1.367 . S
C1214 C1222 1.378 . S
C1215 C1214 1.367 . S
C1215 C1223 1.433 . S
C1216 H1212 0.929 . S
C1216 C1218 1.378 . S
C1216 C1220 1.350 . S
C1217 C1220 1.463 1_554 S
C1217 C1222 1.350 . S
C1217 N1225 1.427 . S
C1218 H1209 0.930 . S
C1218 C1216 1.378 . S
C1218 C1219 1.367 . S
C1219 C1218 1.367 . S
C1219 C1221 1.433 . S
C1220 C1216 1.350 . S
C1220 C1217 1.463 1_556 S
C1220 N1224 1.427 . S
C1221 H1211 0.929 . S
C1221 C1219 1.433 . S
C1221 N1224 1.384 . S
C1222 H1213 0.929 . S
C1222 C1214 1.378 . S
C1222 C1217 1.350 . S
C1223 H1210 0.929 . S
C1223 C1215 1.433 . S
C1223 N1225 1.384 . S
N1224 C1220 1.427 . S
N1224 C1221 1.384 . S
N1225 C1217 1.427 . S
N1225 C1223 1.384 . S
H1226 C1232 0.930 . S
H1227 C1236 0.930 . S
H1228 C1241 0.929 . S
H1229 C1239 0.929 . S
H1230 C1234 0.929 . S
H1231 C1240 0.929 . S
C1232 H1226 0.930 . S
C1232 C1233 1.367 . S
C1232 C1240 1.378 . S
C1233 C1232 1.367 . S
C1233 C1241 1.433 . S
C1234 H1230 0.929 . S
C1234 C1236 1.378 . S
C1234 C1238 1.350 . S
C1235 C1238 1.463 1_554 S
C1235 C1240 1.350 . S
C1235 N1243 1.427 . S
C1236 H1227 0.930 . S
C1236 C1234 1.378 . S
C1236 C1237 1.367 . S
C1237 C1236 1.367 . S
C1237 C1239 1.433 . S
C1238 C1234 1.350 . S
C1238 C1235 1.463 1_556 S
C1238 N1242 1.427 . S
C1239 H1229 0.929 . S
C1239 C1237 1.433 . S
C1239 N1242 1.384 . S
C1240 H1231 0.929 . S
C1240 C1232 1.378 . S
C1240 C1235 1.350 . S
C1241 H1228 0.929 . S
C1241 C1233 1.433 . S
C1241 N1243 1.384 . S
N1242 C1238 1.427 . S
N1242 C1239 1.384 . S
N1243 C1235 1.427 . S
N1243 C1241 1.384 . S
H1244 C1250 0.930 . S
H1245 C1254 0.930 . S
H1246 C1259 0.929 . S
H1247 C1257 0.929 . S
H1248 C1252 0.929 . S
H1249 C1258 0.929 . S
C1250 H1244 0.930 . S
C1250 C1251 1.367 . S
C1250 C1258 1.378 . S
C1251 C1250 1.367 . S
C1251 C1259 1.433 . S
C1252 H1248 0.929 . S
C1252 C1254 1.378 . S
C1252 C1256 1.350 . S
C1253 C1256 1.463 1_556 S
C1253 C1258 1.350 . S
C1253 N1261 1.427 . S
C1254 H1245 0.930 . S
C1254 C1252 1.378 . S
C1254 C1255 1.367 . S
C1255 C1254 1.367 . S
C1255 C1257 1.433 . S
C1256 C1252 1.350 . S
C1256 C1253 1.463 1_554 S
C1256 N1260 1.427 . S
C1257 H1247 0.929 . S
C1257 C1255 1.433 . S
C1257 N1260 1.384 . S
C1258 H1249 0.929 . S
C1258 C1250 1.378 . S
C1258 C1253 1.350 . S
C1259 H1246 0.929 . S
C1259 C1251 1.433 . S
C1259 N1261 1.384 . S
N1260 C1256 1.427 . S
N1260 C1257 1.384 . S
N1261 C1253 1.427 . S
N1261 C1259 1.384 . S
H1262 C1268 0.930 . S
H1263 C1272 0.930 . S
H1264 C1277 0.929 . S
H1265 C1275 0.929 . S
H1266 C1270 0.929 . S
H1267 C1276 0.929 . S
C1268 H1262 0.930 . S
C1268 C1269 1.367 . S
C1268 C1276 1.378 . S
C1269 C1268 1.367 . S
C1269 C1277 1.433 . S
C1270 H1266 0.929 . S
C1270 C1272 1.378 . S
C1270 C1274 1.350 . S
C1271 C1274 1.463 1_556 S
C1271 C1276 1.350 . S
C1271 N1279 1.427 . S
C1272 H1263 0.930 . S
C1272 C1270 1.378 . S
C1272 C1273 1.367 . S
C1273 C1272 1.367 . S
C1273 C1275 1.433 . S
C1274 C1270 1.350 . S
C1274 C1271 1.463 1_554 S
C1274 N1278 1.427 . S
C1275 H1265 0.929 . S
C1275 C1273 1.433 . S
C1275 N1278 1.384 . S
C1276 H1267 0.929 . S
C1276 C1268 1.378 . S
C1276 C1271 1.350 . S
C1277 H1264 0.929 . S
C1277 C1269 1.433 . S
C1277 N1279 1.384 . S
N1278 C1274 1.427 . S
N1278 C1275 1.384 . S
N1279 C1271 1.427 . S
N1279 C1277 1.384 . S
H1280 C1286 0.930 . S
H1281 C1290 0.930 . S
H1282 C1295 0.929 . S
H1283 C1293 0.929 . S
H1284 C1288 0.929 . S
H1285 C1294 0.929 . S
C1286 H1280 0.930 . S
C1286 C1287 1.367 . S
C1286 C1294 1.378 . S
C1287 C1286 1.367 . S
C1287 C1295 1.433 . S
C1288 H1284 0.929 . S
C1288 C1290 1.378 . S
C1288 C1292 1.350 . S
C1289 C1292 1.463 . S
C1289 C1294 1.350 . S
C1289 N1297 1.427 . S
C1290 H1281 0.930 . S
C1290 C1288 1.378 . S
C1290 C1291 1.367 . S
C1291 C1290 1.367 . S
C1291 C1293 1.433 . S
C1292 C1288 1.350 . S
C1292 C1289 1.463 . S
C1292 N1296 1.427 . S
C1293 H1283 0.929 . S
C1293 C1291 1.433 . S
C1293 N1296 1.384 . S
C1294 H1285 0.929 . S
C1294 C1286 1.378 . S
C1294 C1289 1.350 . S
C1295 H1282 0.929 . S
C1295 C1287 1.433 . S
C1295 N1297 1.384 . S
N1296 C1292 1.427 . S
N1296 C1293 1.384 . S
N1297 C1289 1.427 . S
N1297 C1295 1.384 . S
H1298 C1304 0.930 . S
H1299 C1308 0.930 . S
H1300 C1313 0.929 . S
H1301 C1311 0.929 . S
H1302 C1306 0.929 . S
H1303 C1312 0.929 . S
C1304 H1298 0.930 . S
C1304 C1305 1.367 . S
C1304 C1312 1.378 . S
C1305 C1304 1.367 . S
C1305 C1313 1.433 . S
C1306 H1302 0.929 . S
C1306 C1308 1.378 . S
C1306 C1310 1.350 . S
C1307 C1310 1.463 . S
C1307 C1312 1.350 . S
C1307 N1315 1.427 . S
C1308 H1299 0.930 . S
C1308 C1306 1.378 . S
C1308 C1309 1.367 . S
C1309 C1308 1.367 . S
C1309 C1311 1.433 . S
C1310 C1306 1.350 . S
C1310 C1307 1.463 . S
C1310 N1314 1.427 . S
C1311 H1301 0.929 . S
C1311 C1309 1.433 . S
C1311 N1314 1.384 . S
C1312 H1303 0.929 . S
C1312 C1304 1.378 . S
C1312 C1307 1.350 . S
C1313 H1300 0.929 . S
C1313 C1305 1.433 . S
C1313 N1315 1.384 . S
N1314 C1310 1.427 . S
N1314 C1311 1.384 . S
N1315 C1307 1.427 . S
N1315 C1313 1.384 . S
H1316 C1322 0.930 . S
H1317 C1326 0.930 . S
H1318 C1331 0.929 . S
H1319 C1329 0.929 . S
H1320 C1324 0.929 . S
H1321 C1330 0.929 . S
C1322 H1316 0.930 . S
C1322 C1323 1.367 . S
C1322 C1330 1.378 . S
C1323 C1322 1.367 . S
C1323 C1331 1.433 . S
C1324 H1320 0.929 . S
C1324 C1326 1.378 . S
C1324 C1328 1.350 . S
C1325 C1328 1.463 . S
C1325 C1330 1.350 . S
C1325 N1333 1.427 . S
C1326 H1317 0.930 . S
C1326 C1324 1.378 . S
C1326 C1327 1.367 . S
C1327 C1326 1.367 . S
C1327 C1329 1.433 . S
C1328 C1324 1.350 . S
C1328 C1325 1.463 . S
C1328 N1332 1.427 . S
C1329 H1319 0.929 . S
C1329 C1327 1.433 . S
C1329 N1332 1.384 . S
C1330 H1321 0.929 . S
C1330 C1322 1.378 . S
C1330 C1325 1.350 . S
C1331 H1318 0.929 . S
C1331 C1323 1.433 . S
C1331 N1333 1.384 . S
N1332 C1328 1.427 . S
N1332 C1329 1.384 . S
N1333 C1325 1.427 . S
N1333 C1331 1.384 . S
H1334 C1340 0.930 . S
H1335 C1344 0.930 . S
H1336 C1349 0.929 . S
H1337 C1347 0.929 . S
H1338 C1342 0.929 . S
H1339 C1348 0.929 . S
C1340 H1334 0.930 . S
C1340 C1341 1.367 . S
C1340 C1348 1.378 . S
C1341 C1340 1.367 . S
C1341 C1349 1.433 . S
C1342 H1338 0.929 . S
C1342 C1344 1.378 . S
C1342 C1346 1.350 . S
C1343 C1346 1.463 . S
C1343 C1348 1.350 . S
C1343 N1351 1.427 . S
C1344 H1335 0.930 . S
C1344 C1342 1.378 . S
C1344 C1345 1.367 . S
C1345 C1344 1.367 . S
C1345 C1347 1.433 . S
C1346 C1342 1.350 . S
C1346 C1343 1.463 . S
C1346 N1350 1.427 . S
C1347 H1337 0.929 . S
C1347 C1345 1.433 . S
C1347 N1350 1.384 . S
C1348 H1339 0.929 . S
C1348 C1340 1.378 . S
C1348 C1343 1.350 . S
C1349 H1336 0.929 . S
C1349 C1341 1.433 . S
C1349 N1351 1.384 . S
N1350 C1346 1.427 . S
N1350 C1347 1.384 . S
N1351 C1343 1.427 . S
N1351 C1349 1.384 . S
H1352 C1358 0.930 . S
H1353 C1362 0.930 . S
H1354 C1367 0.929 . S
H1355 C1365 0.929 . S
H1356 C1360 0.929 . S
H1357 C1366 0.929 . S
C1358 H1352 0.930 . S
C1358 C1359 1.367 . S
C1358 C1366 1.378 . S
C1359 C1358 1.367 . S
C1359 C1367 1.433 . S
C1360 H1356 0.929 . S
C1360 C1362 1.378 . S
C1360 C1364 1.350 . S
C1361 C1364 1.463 . S
C1361 C1366 1.350 . S
C1361 N1369 1.427 . S
C1362 H1353 0.930 . S
C1362 C1360 1.378 . S
C1362 C1363 1.367 . S
C1363 C1362 1.367 . S
C1363 C1365 1.433 . S
C1364 C1360 1.350 . S
C1364 C1361 1.463 . S
C1364 N1368 1.427 . S
C1365 H1355 0.929 . S
C1365 C1363 1.433 . S
C1365 N1368 1.384 . S
C1366 H1357 0.929 . S
C1366 C1358 1.378 . S
C1366 C1361 1.350 . S
C1367 H1354 0.929 . S
C1367 C1359 1.433 . S
C1367 N1369 1.384 . S
N1368 C1364 1.427 . S
N1368 C1365 1.384 . S
N1369 C1361 1.427 . S
N1369 C1367 1.384 . S
H1370 C1376 0.930 . S
H1371 C1380 0.930 . S
H1372 C1385 0.929 . S
H1373 C1383 0.929 . S
H1374 C1378 0.929 . S
H1375 C1384 0.929 . S
C1376 H1370 0.930 . S
C1376 C1377 1.367 . S
C1376 C1384 1.378 . S
C1377 C1376 1.367 . S
C1377 C1385 1.433 . S
C1378 H1374 0.929 . S
C1378 C1380 1.378 . S
C1378 C1382 1.350 . S
C1379 C1382 1.463 . S
C1379 C1384 1.350 . S
C1379 N1387 1.427 . S
C1380 H1371 0.930 . S
C1380 C1378 1.378 . S
C1380 C1381 1.367 . S
C1381 C1380 1.367 . S
C1381 C1383 1.433 . S
C1382 C1378 1.350 . S
C1382 C1379 1.463 . S
C1382 N1386 1.427 . S
C1383 H1373 0.929 . S
C1383 C1381 1.433 . S
C1383 N1386 1.384 . S
C1384 H1375 0.929 . S
C1384 C1376 1.378 . S
C1384 C1379 1.350 . S
C1385 H1372 0.929 . S
C1385 C1377 1.433 . S
C1385 N1387 1.384 . S
N1386 C1382 1.427 . S
N1386 C1383 1.384 . S
N1387 C1379 1.427 . S
N1387 C1385 1.384 . S
H1388 C1394 0.930 . S
H1389 C1398 0.930 . S
H1390 C1403 0.929 . S
H1391 C1401 0.929 . S
H1392 C1396 0.929 . S
H1393 C1402 0.929 . S
C1394 H1388 0.930 . S
C1394 C1395 1.367 . S
C1394 C1402 1.378 . S
C1395 C1394 1.367 . S
C1395 C1403 1.433 . S
C1396 H1392 0.929 . S
C1396 C1398 1.378 . S
C1396 C1400 1.350 . S
C1397 C1400 1.463 . S
C1397 C1402 1.350 . S
C1397 N1405 1.427 . S
C1398 H1389 0.930 . S
C1398 C1396 1.378 . S
C1398 C1399 1.367 . S
C1399 C1398 1.367 . S
C1399 C1401 1.433 . S
C1400 C1396 1.350 . S
C1400 C1397 1.463 . S
C1400 N1404 1.427 . S
C1401 H1391 0.929 . S
C1401 C1399 1.433 . S
C1401 N1404 1.384 . S
C1402 H1393 0.929 . S
C1402 C1394 1.378 . S
C1402 C1397 1.350 . S
C1403 H1390 0.929 . S
C1403 C1395 1.433 . S
C1403 N1405 1.384 . S
N1404 C1400 1.427 . S
N1404 C1401 1.384 . S
N1405 C1397 1.427 . S
N1405 C1403 1.384 . S
H1406 C1412 0.930 . S
H1407 C1416 0.930 . S
H1408 C1421 0.929 . S
H1409 C1419 0.929 . S
H1410 C1414 0.929 . S
H1411 C1420 0.929 . S
C1412 H1406 0.930 . S
C1412 C1413 1.367 . S
C1412 C1420 1.378 . S
C1413 C1412 1.367 . S
C1413 C1421 1.433 . S
C1414 H1410 0.929 . S
C1414 C1416 1.378 . S
C1414 C1418 1.350 . S
C1415 C1418 1.463 . S
C1415 C1420 1.350 . S
C1415 N1423 1.427 . S
C1416 H1407 0.930 . S
C1416 C1414 1.378 . S
C1416 C1417 1.367 . S
C1417 C1416 1.367 . S
C1417 C1419 1.433 . S
C1418 C1414 1.350 . S
C1418 C1415 1.463 . S
C1418 N1422 1.427 . S
C1419 H1409 0.929 . S
C1419 C1417 1.433 . S
C1419 N1422 1.384 . S
C1420 H1411 0.929 . S
C1420 C1412 1.378 . S
C1420 C1415 1.350 . S
C1421 H1408 0.929 . S
C1421 C1413 1.433 . S
C1421 N1423 1.384 . S
N1422 C1418 1.427 . S
N1422 C1419 1.384 . S
N1423 C1415 1.427 . S
N1423 C1421 1.384 . S
H1424 C1430 0.930 . S
H1425 C1434 0.930 . S
H1426 C1439 0.929 . S
H1427 C1437 0.929 . S
H1428 C1432 0.929 . S
H1429 C1438 0.929 . S
C1430 H1424 0.930 . S
C1430 C1431 1.367 . S
C1430 C1438 1.378 . S
C1431 C1430 1.367 . S
C1431 C1439 1.433 . S
C1432 H1428 0.929 . S
C1432 C1434 1.378 . S
C1432 C1436 1.350 . S
C1433 C1436 1.463 . S
C1433 C1438 1.350 . S
C1433 N1441 1.427 . S
C1434 H1425 0.930 . S
C1434 C1432 1.378 . S
C1434 C1435 1.367 . S
C1435 C1434 1.367 . S
C1435 C1437 1.433 . S
C1436 C1432 1.350 . S
C1436 C1433 1.463 . S
C1436 N1440 1.427 . S
C1437 H1427 0.929 . S
C1437 C1435 1.433 . S
C1437 N1440 1.384 . S
C1438 H1429 0.929 . S
C1438 C1430 1.378 . S
C1438 C1433 1.350 . S
C1439 H1426 0.929 . S
C1439 C1431 1.433 . S
C1439 N1441 1.384 . S
N1440 C1436 1.427 . S
N1440 C1437 1.384 . S
N1441 C1433 1.427 . S
N1441 C1439 1.384 . S
H1442 C1448 0.930 . S
H1443 C1452 0.930 . S
H1444 C1457 0.929 . S
H1445 C1455 0.929 . S
H1446 C1450 0.929 . S
H1447 C1456 0.929 . S
C1448 H1442 0.930 . S
C1448 C1449 1.367 . S
C1448 C1456 1.378 . S
C1449 C1448 1.367 . S
C1449 C1457 1.433 . S
C1450 H1446 0.929 . S
C1450 C1452 1.378 . S
C1450 C1454 1.350 . S
C1451 C1454 1.463 . S
C1451 C1456 1.350 . S
C1451 N1459 1.427 . S
C1452 H1443 0.930 . S
C1452 C1450 1.378 . S
C1452 C1453 1.367 . S
C1453 C1452 1.367 . S
C1453 C1455 1.433 . S
C1454 C1450 1.350 . S
C1454 C1451 1.463 . S
C1454 N1458 1.427 . S
C1455 H1445 0.929 . S
C1455 C1453 1.433 . S
C1455 N1458 1.384 . S
C1456 H1447 0.929 . S
C1456 C1448 1.378 . S
C1456 C1451 1.350 . S
C1457 H1444 0.929 . S
C1457 C1449 1.433 . S
C1457 N1459 1.384 . S
N1458 C1454 1.427 . S
N1458 C1455 1.384 . S
N1459 C1451 1.427 . S
N1459 C1457 1.384 . S
H1460 C1466 0.930 . S
H1461 C1470 0.930 . S
H1462 C1475 0.929 . S
H1463 C1473 0.929 . S
H1464 C1468 0.929 . S
H1465 C1474 0.929 . S
C1466 H1460 0.930 . S
C1466 C1467 1.367 . S
C1466 C1474 1.378 . S
C1467 C1466 1.367 . S
C1467 C1475 1.433 . S
C1468 H1464 0.929 . S
C1468 C1470 1.378 . S
C1468 C1472 1.350 . S
C1469 C1472 1.463 . S
C1469 C1474 1.350 . S
C1469 N1477 1.427 . S
C1470 H1461 0.930 . S
C1470 C1468 1.378 . S
C1470 C1471 1.367 . S
C1471 C1470 1.367 . S
C1471 C1473 1.433 . S
C1472 C1468 1.350 . S
C1472 C1469 1.463 . S
C1472 N1476 1.427 . S
C1473 H1463 0.929 . S
C1473 C1471 1.433 . S
C1473 N1476 1.384 . S
C1474 H1465 0.929 . S
C1474 C1466 1.378 . S
C1474 C1469 1.350 . S
C1475 H1462 0.929 . S
C1475 C1467 1.433 . S
C1475 N1477 1.384 . S
N1476 C1472 1.427 . S
N1476 C1473 1.384 . S
N1477 C1469 1.427 . S
N1477 C1475 1.384 . S
H1478 C1484 0.930 . S
H1479 C1488 0.930 . S
H1480 C1493 0.929 . S
H1481 C1491 0.929 . S
H1482 C1486 0.929 . S
H1483 C1492 0.929 . S
C1484 H1478 0.930 . S
C1484 C1485 1.367 . S
C1484 C1492 1.378 . S
C1485 C1484 1.367 . S
C1485 C1493 1.433 . S
C1486 H1482 0.929 . S
C1486 C1488 1.378 . S
C1486 C1490 1.350 . S
C1487 C1490 1.463 . S
C1487 C1492 1.350 . S
C1487 N1495 1.427 . S
C1488 H1479 0.930 . S
C1488 C1486 1.378 . S
C1488 C1489 1.367 . S
C1489 C1488 1.367 . S
C1489 C1491 1.433 . S
C1490 C1486 1.350 . S
C1490 C1487 1.463 . S
C1490 N1494 1.427 . S
C1491 H1481 0.929 . S
C1491 C1489 1.433 . S
C1491 N1494 1.384 . S
C1492 H1483 0.929 . S
C1492 C1484 1.378 . S
C1492 C1487 1.350 . S
C1493 H1480 0.929 . S
C1493 C1485 1.433 . S
C1493 N1495 1.384 . S
N1494 C1490 1.427 . S
N1494 C1491 1.384 . S
N1495 C1487 1.427 . S
N1495 C1493 1.384 . S
H1496 C1502 0.930 . S
H1497 C1506 0.930 . S
H1498 C1511 0.929 . S
H1499 C1509 0.929 . S
H1500 C1504 0.929 . S
H1501 C1510 0.929 . S
C1502 H1496 0.930 . S
C1502 C1503 1.367 . S
C1502 C1510 1.378 . S
C1503 C1502 1.367 . S
C1503 C1511 1.433 . S
C1504 H1500 0.929 . S
C1504 C1506 1.378 . S
C1504 C1508 1.350 . S
C1505 C1508 1.463 . S
C1505 C1510 1.350 . S
C1505 N1513 1.427 . S
C1506 H1497 0.930 . S
C1506 C1504 1.378 . S
C1506 C1507 1.367 . S
C1507 C1506 1.367 . S
C1507 C1509 1.433 . S
C1508 C1504 1.350 . S
C1508 C1505 1.463 . S
C1508 N1512 1.427 . S
C1509 H1499 0.929 . S
C1509 C1507 1.433 . S
C1509 N1512 1.384 . S
C1510 H1501 0.929 . S
C1510 C1502 1.378 . S
C1510 C1505 1.350 . S
C1511 H1498 0.929 . S
C1511 C1503 1.433 . S
C1511 N1513 1.384 . S
N1512 C1508 1.427 . S
N1512 C1509 1.384 . S
N1513 C1505 1.427 . S
N1513 C1511 1.384 . S
H1514 C1520 0.930 . S
H1515 C1524 0.930 . S
H1516 C1529 0.929 . S
H1517 C1527 0.929 . S
H1518 C1522 0.929 . S
H1519 C1528 0.929 . S
C1520 H1514 0.930 . S
C1520 C1521 1.367 . S
C1520 C1528 1.378 . S
C1521 C1520 1.367 . S
C1521 C1529 1.433 . S
C1522 H1518 0.929 . S
C1522 C1524 1.378 . S
C1522 C1526 1.350 . S
C1523 C1526 1.463 . S
C1523 C1528 1.350 . S
C1523 N1531 1.427 . S
C1524 H1515 0.930 . S
C1524 C1522 1.378 . S
C1524 C1525 1.367 . S
C1525 C1524 1.367 . S
C1525 C1527 1.433 . S
C1526 C1522 1.350 . S
C1526 C1523 1.463 . S
C1526 N1530 1.427 . S
C1527 H1517 0.929 . S
C1527 C1525 1.433 . S
C1527 N1530 1.384 . S
C1528 H1519 0.929 . S
C1528 C1520 1.378 . S
C1528 C1523 1.350 . S
C1529 H1516 0.929 . S
C1529 C1521 1.433 . S
C1529 N1531 1.384 . S
N1530 C1526 1.427 . S
N1530 C1527 1.384 . S
N1531 C1523 1.427 . S
N1531 C1529 1.384 . S
H1532 C1538 0.930 . S
H1533 C1542 0.930 . S
H1534 C1547 0.929 . S
H1535 C1545 0.929 . S
H1536 C1540 0.929 . S
H1537 C1546 0.929 . S
C1538 H1532 0.930 . S
C1538 C1539 1.367 . S
C1538 C1546 1.378 . S
C1539 C1538 1.367 . S
C1539 C1547 1.433 . S
C1540 H1536 0.929 . S
C1540 C1542 1.378 . S
C1540 C1544 1.350 . S
C1541 C1544 1.463 . S
C1541 C1546 1.350 . S
C1541 N1549 1.427 . S
C1542 H1533 0.930 . S
C1542 C1540 1.378 . S
C1542 C1543 1.367 . S
C1543 C1542 1.367 . S
C1543 C1545 1.433 . S
C1544 C1540 1.350 . S
C1544 C1541 1.463 . S
C1544 N1548 1.427 . S
C1545 H1535 0.929 . S
C1545 C1543 1.433 . S
C1545 N1548 1.384 . S
C1546 H1537 0.929 . S
C1546 C1538 1.378 . S
C1546 C1541 1.350 . S
C1547 H1534 0.929 . S
C1547 C1539 1.433 . S
C1547 N1549 1.384 . S
N1548 C1544 1.427 . S
N1548 C1545 1.384 . S
N1549 C1541 1.427 . S
N1549 C1547 1.384 . S
H1550 C1556 0.930 . S
H1551 C1560 0.930 . S
H1552 C1565 0.929 . S
H1553 C1563 0.929 . S
H1554 C1558 0.929 . S
H1555 C1564 0.929 . S
C1556 H1550 0.930 . S
C1556 C1557 1.367 . S
C1556 C1564 1.378 . S
C1557 C1556 1.367 . S
C1557 C1565 1.433 . S
C1558 H1554 0.929 . S
C1558 C1560 1.378 . S
C1558 C1562 1.350 . S
C1559 C1562 1.463 . S
C1559 C1564 1.350 . S
C1559 N1567 1.427 . S
C1560 H1551 0.930 . S
C1560 C1558 1.378 . S
C1560 C1561 1.367 . S
C1561 C1560 1.367 . S
C1561 C1563 1.433 . S
C1562 C1558 1.350 . S
C1562 C1559 1.463 . S
C1562 N1566 1.427 . S
C1563 H1553 0.929 . S
C1563 C1561 1.433 . S
C1563 N1566 1.384 . S
C1564 H1555 0.929 . S
C1564 C1556 1.378 . S
C1564 C1559 1.350 . S
C1565 H1552 0.929 . S
C1565 C1557 1.433 . S
C1565 N1567 1.384 . S
N1566 C1562 1.427 . S
N1566 C1563 1.384 . S
N1567 C1559 1.427 . S
N1567 C1565 1.384 . S
C423 C200 1.280 . S
C427 C5 1.293 . S
C441 C21 1.335 . S
C445 C161 1.323 . S
C459 C31 1.291 . S
C463 C174 1.282 . S
C477 C187 1.313 . S
C481 C47 1.332 . S
C495 C57 1.290 . S
C499 C122 1.284 . S
C513 C73 1.324 . S
C517 C135 1.331 . S
C531 C148 1.292 . S
C535 C83 1.281 . S
C549 C109 1.321 . S
C553 C99 1.322 . S
C567 C213 1.284 . S
C571 C408 1.287 . S
C585 C229 1.332 . S
C589 C369 1.313 . S
C603 C239 1.287 . S
C607 C382 1.286 . S
C621 C395 1.325 . S
C625 C255 1.334 . S
C639 C265 1.282 . S
C643 C330 1.291 . S
C657 C281 1.336 . S
C661 C343 1.322 . S
C675 C356 1.279 . S
C679 C291 1.294 . S
C693 C307 1.322 . S
C697 C317 1.331 . S
C711 C156 1.134 . S
C715 C0 1.123 . S
C729 C23 1.102 . S
C733 C169 1.099 . S
C747 C182 1.129 . S
C751 C26 1.129 . S
C765 C49 1.100 . S
C769 C195 1.090 . S
C783 C52 1.134 . S
C787 C104 1.123 . S
C801 C117 1.087 . S
C805 C75 1.097 . S
C819 C130 1.128 . S
C823 C78 1.128 . S
C837 C143 1.090 . S
C841 C101 1.096 . S
C855 C208 1.125 . S
C859 C364 1.133 . S
C873 C377 1.091 . S
C877 C231 1.101 . S
C891 C234 1.131 . S
C895 C390 1.125 . S
C909 C257 1.101 . S
C913 C403 1.098 . S
C927 C312 1.134 . S
C931 C260 1.123 . S
C945 C283 1.097 . S
C949 C325 1.092 . S
C963 C286 1.127 . S
C967 C338 1.131 . S
C981 C309 1.101 . S
C985 C351 1.098 . S
C999 C8 1.433 . S
C1003 C138 1.424 . S
C1017 C151 1.420 . S
C1021 C18 1.422 . S
C1035 C34 1.435 . S
C1039 C112 1.422 . S
C1053 C125 1.414 . S
C1057 C44 1.426 . S
C1071 C190 1.435 . S
C1075 C60 1.422 . S
C1089 C203 1.421 . S
C1093 C70 1.420 . S
C1107 C164 1.430 . S
C1111 C86 1.426 . S
C1125 C96 1.424 . S
C1129 C177 1.417 . S
C1143 C346 1.434 . S
C1147 C216 1.423 . S
C1161 C226 1.412 . S
C1165 C359 1.417 . S
C1179 C320 1.430 . S
C1183 C242 1.427 . S
C1197 C333 1.408 . S
C1201 C252 1.421 . S
C1215 C268 1.421 . S
C1219 C398 1.436 . S
C1233 C278 1.426 . S
C1237 C411 1.412 . S
C1251 C372 1.425 . S
C1255 C294 1.432 . S
C1269 C385 1.420 . S
C1273 C304 1.422 . S
C1287 C299 1.149 . S
C1291 C10 1.135 . S
C1305 C270 1.146 . S
C1309 C13 1.144 . S
C1323 C273 1.144 . S
C1327 C36 1.142 . S
C1341 C296 1.143 . S
C1345 C39 1.143 . S
C1359 C221 1.148 . S
C1363 C62 1.144 . S
C1377 C65 1.144 . S
C1381 C244 1.140 . S
C1395 C88 1.143 . S
C1399 C247 1.143 . S
C1413 C91 1.144 . S
C1417 C218 1.141 . S
C1431 C114 1.331 . S
C1435 C413 1.328 . S
C1449 C374 1.332 . S
C1453 C127 1.329 . S
C1467 C140 1.335 . S
C1471 C387 1.326 . S
C1485 C153 1.327 . S
C1489 C400 1.329 . S
C1503 C335 1.318 . S
C1507 C166 1.329 . S
C1521 C348 1.335 . S
C1525 C179 1.325 . S
C1539 C192 1.334 . S
C1543 C361 1.323 . S
C1557 C205 1.329 . S
C1561 C322 1.333 . S
