# Generated by pormake.
# Topology snw, (6)-cn, num edge types: 1
# Building blocks:
#     Node 0, Type 0, BuildingBlock: OJICUG_clean_sbu_0, # of connection points: 6
#     Node 1, Type 0, BuildingBlock: OJICUG_clean_sbu_0, # of connection points: 6
#     Node 2, Type 0, BuildingBlock: OJICUG_clean_sbu_0, # of connection points: 6
#     Node 3, Type 0, BuildingBlock: OJICUG_clean_sbu_0, # of connection points: 6
#     Node 4, Type 0, BuildingBlock: OJICUG_clean_sbu_0, # of connection points: 6
#     Node 5, Type 0, BuildingBlock: OJICUG_clean_sbu_0, # of connection points: 6
#     Node 6, Type 0, BuildingBlock: OJICUG_clean_sbu_0, # of connection points: 6
#     Node 7, Type 0, BuildingBlock: OJICUG_clean_sbu_0, # of connection points: 6
#     Edge 8, Type (0, 0), BuildingBlock: UVAHIK_clean_linker_0, # of connection points: 2
#     Edge 9, Type (0, 0), BuildingBlock: UVAHIK_clean_linker_0, # of connection points: 2
#     Edge 10, Type (0, 0), BuildingBlock: UVAHIK_clean_linker_0, # of connection points: 2
#     Edge 11, Type (0, 0), BuildingBlock: UVAHIK_clean_linker_0, # of connection points: 2
#     Edge 12, Type (0, 0), BuildingBlock: UVAHIK_clean_linker_0, # of connection points: 2
#     Edge 13, Type (0, 0), BuildingBlock: UVAHIK_clean_linker_0, # of connection points: 2
#     Edge 14, Type (0, 0), BuildingBlock: UVAHIK_clean_linker_0, # of connection points: 2
#     Edge 15, Type (0, 0), BuildingBlock: UVAHIK_clean_linker_0, # of connection points: 2
#     Edge 16, Type (0, 0), BuildingBlock: UVAHIK_clean_linker_0, # of connection points: 2
#     Edge 17, Type (0, 0), BuildingBlock: UVAHIK_clean_linker_0, # of connection points: 2
#     Edge 18, Type (0, 0), BuildingBlock: UVAHIK_clean_linker_0, # of connection points: 2
#     Edge 19, Type (0, 0), BuildingBlock: UVAHIK_clean_linker_0, # of connection points: 2
#     Edge 20, Type (0, 0), BuildingBlock: UVAHIK_clean_linker_0, # of connection points: 2
#     Edge 21, Type (0, 0), BuildingBlock: UVAHIK_clean_linker_0, # of connection points: 2
#     Edge 22, Type (0, 0), BuildingBlock: UVAHIK_clean_linker_0, # of connection points: 2
#     Edge 23, Type (0, 0), BuildingBlock: UVAHIK_clean_linker_0, # of connection points: 2
#     Edge 24, Type (0, 0), BuildingBlock: UVAHIK_clean_linker_0, # of connection points: 2
#     Edge 25, Type (0, 0), BuildingBlock: UVAHIK_clean_linker_0, # of connection points: 2
#     Edge 26, Type (0, 0), BuildingBlock: UVAHIK_clean_linker_0, # of connection points: 2
#     Edge 27, Type (0, 0), BuildingBlock: UVAHIK_clean_linker_0, # of connection points: 2
#     Edge 28, Type (0, 0), BuildingBlock: UVAHIK_clean_linker_0, # of connection points: 2
#     Edge 29, Type (0, 0), BuildingBlock: UVAHIK_clean_linker_0, # of connection points: 2
#     Edge 30, Type (0, 0), BuildingBlock: UVAHIK_clean_linker_0, # of connection points: 2
#     Edge 31, Type (0, 0), BuildingBlock: UVAHIK_clean_linker_0, # of connection points: 2
# Relax obj value: 0.000
# Max RMSD: 0.008
# Mean RMSD: 0.008
data_MOF--net-snw--node1-OJICUG_clean_sbu_0--edge1-UVAHIK_clean_linker_0
_symmetry_space_group_name_H-M    P1
_symmetry_Int_Tables_number       1
_symmetry_cell_setting            triclinic
loop_
_symmetry_equiv_pos_as_xyz
'x, y, z'
_cell_length_a     27.859303
_cell_length_b     27.81845
_cell_length_c     94.197713
_cell_angle_alpha  90.103345
_cell_angle_beta   90.065856
_cell_angle_gamma 90.078013
loop_
_atom_site_label
_atom_site_type_symbol
_atom_site_fract_x
_atom_site_fract_y
_atom_site_fract_z
_atom_type_partial_charge
Sc0 Sc 0.05236 0.24337 0.06962 0.0
Sc1 Sc 0.92609 0.23678 0.06972 0.0
Sc2 Sc 0.98965 0.2412 0.10209 0.0
O3 O 0.98936 0.24045 0.08047 0.0
C4 C 0.07955 0.17416 0.09531 0.0
C5 C -0.00733 0.16773 0.05122 0.0
C6 C 0.90797 0.1642 0.09541 0.0
C7 C 0.98536 0.31098 0.05082 0.0
C8 C 0.07109 0.3178 0.09487 0.0
C9 C 0.89958 0.30778 0.0951 0.0
O10 O 0.08565 0.18992 0.08279 0.0
O11 O 0.95193 0.18218 0.05551 0.0
O12 O 0.93972 0.18253 0.10346 0.0
O13 O 0.02616 0.29684 0.05515 0.0
O14 O 0.0396 0.29997 0.10308 0.0
O15 O 0.89315 0.29124 0.08266 0.0
O16 O 0.07977 0.30106 0.08258 0.0
O17 O 0.94614 0.29281 0.05513 0.0
O18 O 0.93257 0.29291 0.10331 0.0
O19 O 0.03195 0.18627 0.05539 0.0
O20 O 0.04676 0.18954 0.1035 0.0
O21 O 0.89898 0.18008 0.08304 0.0
Sc22 Sc 0.98603 0.80397 0.31947 0.0
Sc23 Sc -0.00768 0.67771 0.3196 0.0
Sc24 Sc -0.0053 0.7416 0.35198 0.0
O25 O -0.00901 0.7411 0.33036 0.0
C26 C 0.06123 0.83056 0.3438 0.0
C27 C 0.05726 0.74402 0.29982 0.0
C28 C 0.06956 0.65922 0.344 0.0
C29 C 0.91435 0.73662 0.30202 0.0
C30 C 0.91776 0.82396 0.34602 0.0
C31 C 0.92627 0.65199 0.34619 0.0
O32 O 0.04231 0.83711 0.33168 0.0
O33 O 0.04352 0.70331 0.30436 0.0
O34 O 0.05254 0.69041 0.35248 0.0
O35 O 0.92954 0.77761 0.30598 0.0
O36 O 0.93731 0.79284 0.35401 0.0
O37 O 0.94106 0.645 0.3336 0.0
O38 O 0.93144 0.83172 0.33336 0.0
O39 O 0.93326 0.69747 0.30611 0.0
O40 O 0.94222 0.68541 0.35411 0.0
O41 O 0.03992 0.78342 0.30431 0.0
O42 O 0.04767 0.79777 0.35227 0.0
O43 O 0.05178 0.65097 0.33181 0.0
Sc44 Sc 0.55093 0.74321 0.56813 0.0
Sc45 Sc 0.42473 0.74191 0.57004 0.0
Sc46 Sc 0.49359 0.74611 0.60147 0.0
O47 O 0.48975 0.74375 0.57988 0.0
C48 C 0.57906 0.67457 0.59392 0.0
C49 C 0.48538 0.66858 0.55119 0.0
C50 C 0.40742 0.67255 0.5965 0.0
C51 C 0.48353 0.81173 0.5497 0.0
C52 C 0.57722 0.81838 0.59251 0.0
C53 C 0.40599 0.81645 0.59522 0.0
O54 O 0.58443 0.68982 0.58132 0.0
O55 O 0.44589 0.68525 0.5558 0.0
O56 O 0.44072 0.69046 0.60407 0.0
O57 O 0.52444 0.79617 0.5535 0.0
O58 O 0.5469 0.80202 0.60135 0.0
O59 O 0.39636 0.79868 0.5831 0.0
O60 O 0.58255 0.80103 0.58013 0.0
O61 O 0.44446 0.79586 0.55483 0.0
O62 O 0.43982 0.80106 0.60303 0.0
O63 O 0.52595 0.68563 0.5548 0.0
O64 O 0.54778 0.69141 0.60237 0.0
O65 O 0.39771 0.68737 0.58407 0.0
Sc66 Sc 0.48915 0.30161 0.81879 0.0
Sc67 Sc 0.49044 0.17512 0.81901 0.0
Sc68 Sc 0.49088 0.2393 0.85136 0.0
O69 O 0.49018 0.23867 0.82972 0.0
C70 C 0.5612 0.32627 0.8441 0.0
C71 C 0.56036 0.23883 0.79991 0.0
C72 C 0.56393 0.15441 0.84428 0.0
C73 C 0.41729 0.23687 0.80052 0.0
C74 C 0.41757 0.32395 0.84439 0.0
C75 C 0.42032 0.15183 0.84486 0.0
O76 O 0.5447 0.33311 0.83169 0.0
O77 O 0.54446 0.19864 0.80427 0.0
O78 O 0.5471 0.18644 0.85252 0.0
O79 O 0.43371 0.27722 0.80461 0.0
O80 O 0.43471 0.2922 0.85265 0.0
O81 O 0.43615 0.14421 0.83242 0.0
O82 O 0.43361 0.33129 0.83196 0.0
O83 O 0.43392 0.19699 0.80486 0.0
O84 O 0.43664 0.18473 0.85289 0.0
O85 O 0.54419 0.27886 0.8043 0.0
O86 O 0.54521 0.29398 0.85236 0.0
O87 O 0.54726 0.14644 0.83192 0.0
Sc88 Sc -0.00905 0.73968 0.88954 0.0
Sc89 Sc 0.05345 0.7367 0.92211 0.0
Sc90 Sc 0.9272 0.74168 0.92187 0.0
O91 O -0.00947 0.73935 0.91117 0.0
C92 C 0.90753 0.81458 0.8964 0.0
C93 C 0.07912 0.80847 0.89686 0.0
C94 C -0.0072 0.8103 0.94087 0.0
C95 C 0.0742 0.6647 0.89643 0.0
C96 C 0.90239 0.67087 0.8962 0.0
C97 C 0.98711 0.66719 0.94049 0.0
O98 O 0.93925 0.79679 0.88827 0.0
O99 O 0.08581 0.79159 0.90923 0.0
O100 O 0.9522 0.79582 0.93641 0.0
O101 O 0.04269 0.6826 0.88825 0.0
O102 O 0.89525 0.68742 0.9086 0.0
O103 O 0.02786 0.68189 0.93627 0.0
O104 O 0.93541 0.68623 0.88809 0.0
O105 O 0.08196 0.68037 0.90891 0.0
O106 O 0.94781 0.68524 0.9362 0.0
O107 O 0.04651 0.7932 0.88855 0.0
O108 O 0.89933 0.79862 0.9088 0.0
O109 O 0.03224 0.79246 0.93664 0.0
Sc110 Sc 0.49006 0.74152 0.13975 0.0
Sc111 Sc 0.49261 0.80394 0.17241 0.0
Sc112 Sc 0.48616 0.67774 0.17208 0.0
O113 O 0.48964 0.74107 0.16141 0.0
C114 C 0.41336 0.65963 0.14643 0.0
C115 C 0.42332 0.83143 0.14669 0.0
C116 C 0.41704 0.74427 0.19061 0.0
C117 C 0.56679 0.82291 0.14726 0.0
C118 C 0.55687 0.65155 0.14662 0.0
C119 C 0.55981 0.73659 0.19128 0.0
O120 O 0.43178 0.69089 0.13825 0.0
O121 O 0.43983 0.83772 0.15913 0.0
O122 O 0.43201 0.70353 0.1864 0.0
O123 O 0.54837 0.79225 0.13884 0.0
O124 O 0.54014 0.64487 0.15901 0.0
O125 O 0.54536 0.7775 0.18711 0.0
O126 O 0.54221 0.68476 0.13846 0.0
O127 O 0.55069 0.83077 0.15967 0.0
O128 O 0.54231 0.69737 0.18666 0.0
O129 O 0.43794 0.79829 0.13847 0.0
O130 O 0.42922 0.65114 0.15882 0.0
O131 O 0.43507 0.78372 0.18639 0.0
Sc132 Sc 0.49482 0.24199 0.38926 0.0
Sc133 Sc 0.55152 0.23968 0.42274 0.0
Sc134 Sc 0.42543 0.24309 0.42057 0.0
O135 O 0.49059 0.24162 0.41086 0.0
C136 C 0.41041 0.3168 0.395 0.0
C137 C 0.58155 0.31108 0.3979 0.0
C138 C 0.48676 0.31205 0.44068 0.0
C139 C 0.57687 0.16733 0.39748 0.0
C140 C 0.40535 0.17293 0.39442 0.0
C141 C 0.48281 0.16873 0.43987 0.0
O142 O 0.44362 0.29941 0.38731 0.0
O143 O 0.58582 0.29496 0.41045 0.0
O144 O 0.44719 0.29704 0.43562 0.0
O145 O 0.54645 0.18457 0.38882 0.0
O146 O 0.39619 0.18892 0.40676 0.0
O147 O 0.52398 0.18432 0.43634 0.0
O148 O 0.43949 0.1888 0.38683 0.0
O149 O 0.58278 0.18376 0.40996 0.0
O150 O 0.44399 0.18635 0.43507 0.0
O151 O 0.55071 0.29516 0.38913 0.0
O152 O 0.39985 0.30021 0.40717 0.0
O153 O 0.52713 0.29496 0.43697 0.0
Sc154 Sc -0.00632 0.24619 0.63896 0.0
Sc155 Sc 0.98971 0.30631 0.67194 0.0
Sc156 Sc 0.98807 0.17993 0.67084 0.0
O157 O -0.00954 0.24413 0.66057 0.0
C158 C 0.91988 0.16045 0.64417 0.0
C159 C 0.92194 0.33231 0.64575 0.0
C160 C 0.91467 0.24225 0.68911 0.0
C161 C 0.06557 0.33053 0.64764 0.0
C162 C 0.06348 0.1589 0.64614 0.0
C163 C 0.05772 0.2405 0.69095 0.0
O164 O 0.93802 0.19325 0.63649 0.0
O165 O 0.93653 0.33831 0.65841 0.0
O166 O 0.93098 0.20231 0.68469 0.0
O167 O 0.04977 0.29931 0.63894 0.0
O168 O 0.04526 0.15052 0.65825 0.0
O169 O 0.04257 0.28116 0.68678 0.0
O170 O 0.04844 0.19191 0.63797 0.0
O171 O 0.04753 0.33707 0.65987 0.0
O172 O 0.04149 0.20097 0.68615 0.0
O173 O 0.93928 0.30073 0.63746 0.0
O174 O 0.93419 0.15169 0.65672 0.0
O175 O 0.93214 0.2825 0.68539 0.0
C176 C 0.93957 0.3659 0.03461 0.0
C177 C 0.98369 0.34948 0.04 0.0
C178 C 0.93832 0.40103 0.02404 0.0
C179 C 0.01163 0.49634 0.00758 0.0
H180 H 0.92513 0.47976 0.97563 0.0
C181 C 0.02814 0.60992 0.957 0.0
C182 C 0.98543 0.62862 0.95128 0.0
C183 C 0.02666 0.57559 0.96776 0.0
C184 C 0.94911 0.48509 0.98456 0.0
H185 H 0.06112 0.35763 0.03857 0.0
H186 H 0.05881 0.41835 0.02009 0.0
H187 H 0.92442 0.42135 0.99495 0.0
H188 H 0.9076 0.62485 0.9522 0.0
H189 H 0.9052 0.56499 0.97104 0.0
H190 H 0.03659 0.55984 -0.00284 0.0
C191 C 0.02518 0.40449 0.02416 0.0
C192 C 0.94865 0.45175 0.99562 0.0
C193 C 0.02646 0.36944 0.03471 0.0
C194 C 0.94121 0.61131 0.95636 0.0
C195 C 0.93977 0.57685 0.96711 0.0
C196 C 0.01215 0.52959 -0.00348 0.0
C197 C 0.98114 0.42051 0.01866 0.0
C198 C 0.98014 0.45687 0.0072 0.0
C199 C 0.98249 0.55909 0.97303 0.0
C200 C 0.98115 0.52413 0.98485 0.0
H201 H 0.90592 0.35146 0.03848 0.0
H202 H 0.90382 0.41311 0.02013 0.0
H203 H 0.03573 0.50171 0.01647 0.0
H204 H 0.06285 0.6222 0.95331 0.0
H205 H 0.06018 0.56194 0.97197 0.0
C206 C 0.61369 0.69029 0.20764 0.0
C207 C 0.59718 0.73468 0.20244 0.0
C208 C 0.64692 0.68866 0.21874 0.0
C209 C 0.69242 0.76091 0.24857 0.0
H210 H 0.80057 0.67339 0.24745 0.0
C211 C 0.85333 0.77705 0.2866 0.0
C212 C 0.87405 0.73449 0.29179 0.0
C213 C 0.8173 0.77522 0.27632 0.0
C214 C 0.77015 0.69751 0.24802 0.0
H215 H 0.60366 0.81219 0.20465 0.0
H216 H 0.66185 0.80915 0.22389 0.0
H217 H 0.74293 0.67373 0.22794 0.0
H218 H 0.87198 0.65653 0.29053 0.0
H219 H 0.80873 0.65351 0.27267 0.0
H220 H 0.71972 0.78492 0.2686 0.0
C221 C 0.64848 0.77567 0.21952 0.0
C222 C 0.73723 0.69776 0.23683 0.0
C223 C 0.61537 0.77734 0.20842 0.0
C224 C 0.85704 0.69004 0.28671 0.0
C225 C 0.82098 0.68825 0.27642 0.0
C226 C 0.72527 0.76061 0.25976 0.0
C227 C 0.66424 0.73134 0.22488 0.0
C228 C 0.69832 0.72981 0.23694 0.0
C229 C 0.8011 0.73084 0.27101 0.0
C230 C 0.76473 0.72924 0.25954 0.0
H231 H 0.60046 0.65673 0.2033 0.0
H232 H 0.65824 0.65396 0.22272 0.0
H233 H 0.66225 0.78537 0.24906 0.0
H234 H 0.86549 0.81192 0.29026 0.0
H235 H 0.80306 0.80869 0.27224 0.0
C236 C 0.52701 0.60862 0.53565 0.0
C237 C 0.4841 0.62867 0.54079 0.0
C238 C 0.52596 0.57279 0.52527 0.0
C239 C 0.4502 0.52552 0.49663 0.0
H240 H 0.53682 0.41664 0.49822 0.0
C241 C 0.44166 0.36803 0.4567 0.0
C242 C 0.48566 0.3498 0.45176 0.0
C243 C 0.44055 0.40183 0.46766 0.0
C244 C 0.51277 0.44712 0.49756 0.0
H245 H 0.40632 0.62577 0.5393 0.0
H246 H 0.40466 0.56297 0.52124 0.0
H247 H 0.53604 0.47472 0.51764 0.0
H248 H 0.56308 0.35378 0.45428 0.0
H249 H 0.56102 0.41313 0.47327 0.0
H250 H 0.42718 0.49812 0.4765 0.0
C251 C 0.43907 0.57552 0.52513 0.0
C252 C 0.51227 0.48029 0.50869 0.0
C253 C 0.44008 0.6113 0.53554 0.0
C254 C 0.52853 0.36683 0.45786 0.0
C255 C 0.52739 0.40061 0.46882 0.0
C256 C 0.45073 0.49236 0.4855 0.0
C257 C 0.48201 0.55624 0.51981 0.0
C258 C 0.48117 0.51996 0.50829 0.0
C259 C 0.48339 0.41814 0.47391 0.0
C260 C 0.48223 0.45298 0.48581 0.0
H261 H 0.56156 0.62105 0.53946 0.0
H262 H 0.55965 0.55894 0.52127 0.0
H263 H 0.42634 0.55614 0.49594 0.0
H264 H 0.40792 0.35571 0.45227 0.0
H265 H 0.40608 0.41439 0.47145 0.0
C266 C 0.6157 0.28268 0.78344 0.0
C267 C 0.59817 0.23902 0.78889 0.0
C268 C 0.6497 0.28288 0.77258 0.0
C269 C 0.69699 0.2078 0.74365 0.0
H270 H 0.80333 0.29785 0.74452 0.0
C271 C 0.85666 0.19815 0.70473 0.0
C272 C 0.87498 0.24186 0.69954 0.0
C273 C 0.82146 0.19786 0.71526 0.0
C274 C 0.77348 0.27291 0.74404 0.0
H275 H 0.6035 0.16128 0.78734 0.0
H276 H 0.66319 0.16181 0.76847 0.0
H277 H 0.74585 0.29693 0.764 0.0
H278 H 0.86934 0.31958 0.70106 0.0
H279 H 0.80765 0.31891 0.71933 0.0
H280 H 0.72473 0.18373 0.72369 0.0
C281 C 0.65001 0.19583 0.77249 0.0
C282 C 0.74063 0.27233 0.7552 0.0
C283 C 0.61603 0.19559 0.78336 0.0
C284 C 0.85634 0.28524 0.70487 0.0
C285 C 0.82117 0.28491 0.7154 0.0
C286 C 0.72986 0.20837 0.73248 0.0
C287 C 0.66694 0.23947 0.76692 0.0
C288 C 0.70205 0.23977 0.75512 0.0
C289 C 0.80382 0.24123 0.72083 0.0
C290 C 0.76843 0.24096 0.73256 0.0
H291 H 0.60273 0.31682 0.78742 0.0
H292 H 0.66172 0.31709 0.7684 0.0
H293 H 0.66718 0.1828 0.74319 0.0
H294 H 0.87014 0.16405 0.70087 0.0
H295 H 0.80906 0.16363 0.71932 0.0
C296 C 0.35904 0.27978 0.78475 0.0
C297 C 0.37808 0.23639 0.78991 0.0
C298 C 0.32375 0.27948 0.77424 0.0
C299 C 0.23203 0.20321 0.75726 0.0
H300 H 0.24533 0.29354 0.72618 0.0
C301 C 0.1129 0.19515 0.70715 0.0
C302 C 0.09534 0.23924 0.70204 0.0
C303 C 0.14763 0.19412 0.71784 0.0
C304 C 0.24087 0.26844 0.73486 0.0
H305 H 0.37406 0.15859 0.78825 0.0
H306 H 0.31267 0.15826 0.76982 0.0
H307 H 0.30465 0.29315 0.74521 0.0
H308 H 0.10085 0.31685 0.70415 0.0
H309 H 0.16104 0.31487 0.72284 0.0
H310 H 0.16817 0.17856 0.74689 0.0
C311 C 0.32489 0.19244 0.774 0.0
C312 C 0.27479 0.26824 0.74576 0.0
C313 C 0.36024 0.19269 0.78452 0.0
C314 C 0.11359 0.28222 0.70779 0.0
C315 C 0.1483 0.28115 0.71847 0.0
C316 C 0.19806 0.20342 0.74635 0.0
C317 C 0.30666 0.23585 0.76866 0.0
C318 C 0.27063 0.23575 0.75709 0.0
C319 C 0.16559 0.2371 0.72363 0.0
C320 C 0.20207 0.23616 0.73507 0.0
H321 H 0.37167 0.31411 0.78872 0.0
H322 H 0.30979 0.3135 0.77049 0.0
H323 H 0.22763 0.17813 0.76594 0.0
H324 H 0.09978 0.16135 0.70293 0.0
H325 H 0.16074 0.15963 0.72149 0.0
C326 C 0.35825 0.70267 0.20648 0.0
C327 C 0.37791 0.74564 0.2012 0.0
C328 C 0.32306 0.70374 0.21699 0.0
C329 C 0.23221 0.78106 0.23366 0.0
H330 H 0.24527 0.69205 0.26508 0.0
C331 C 0.11173 0.78963 0.28346 0.0
C332 C 0.09468 0.74547 0.2887 0.0
C333 C 0.14659 0.79077 0.27283 0.0
C334 C 0.24086 0.71679 0.25631 0.0
H335 H 0.37503 0.82354 0.20263 0.0
H336 H 0.31368 0.82522 0.22104 0.0
H337 H 0.30474 0.69185 0.24615 0.0
H338 H 0.10103 0.66787 0.28682 0.0
H339 H 0.16133 0.67003 0.26822 0.0
H340 H 0.16814 0.80582 0.24382 0.0
C341 C 0.32544 0.79077 0.21697 0.0
C342 C 0.27489 0.71666 0.24547 0.0
C343 C 0.36075 0.78974 0.20646 0.0
C344 C 0.11341 0.70255 0.28309 0.0
C345 C 0.1482 0.70373 0.27247 0.0
C346 C 0.19808 0.78114 0.24451 0.0
C347 C 0.30666 0.74776 0.22244 0.0
C348 C 0.27077 0.74859 0.234 0.0
C349 C 0.16514 0.74783 0.26722 0.0
C350 C 0.20194 0.7488 0.2559 0.0
H351 H 0.37034 0.66805 0.20263 0.0
H352 H 0.30865 0.67003 0.22085 0.0
H353 H 0.22791 0.80574 0.22488 0.0
H354 H 0.09823 0.82338 0.28757 0.0
H355 H 0.15939 0.8253 0.26911 0.0
C356 C 0.43562 0.11286 0.45542 0.0
C357 C 0.48016 0.12899 0.45025 0.0
C358 C 0.43351 0.07662 0.46565 0.0
C359 C 0.50427 0.97827 0.48141 0.0
H360 H 0.42096 -0.00352 0.51394 0.0
C361 C 0.52362 0.8659 0.53212 0.0
C362 C 0.48129 0.84882 0.53849 0.0
C363 C 0.52148 0.89923 0.5211 0.0
C364 C 0.44395 0.99061 0.50484 0.0
H365 H 0.55736 0.11891 0.45161 0.0
H366 H 0.55354 0.05617 0.46947 0.0
H367 H 0.42024 0.05519 0.49472 0.0
H368 H 0.40349 0.85413 0.53837 0.0
H369 H 0.39994 0.9122 0.51907 0.0
H370 H 0.52835 0.914 0.49158 0.0
C371 C 0.52027 0.07123 0.46553 0.0
C372 C 0.44349 0.02416 0.49383 0.0
C373 C 0.52242 0.10747 0.45535 0.0
C374 C 0.43682 0.86649 0.53372 0.0
C375 C 0.43473 0.89991 0.5227 0.0
C376 C 0.50474 0.94478 0.49241 0.0
C377 C 0.47584 0.05567 0.47085 0.0
C378 C 0.47404 0.01858 0.48209 0.0
C379 C 0.47703 0.91628 0.5162 0.0
C380 C 0.47499 0.95089 0.5043 0.0
H381 H 0.40235 0.12853 0.4517 0.0
H382 H 0.39874 0.06494 0.46946 0.0
H383 H 0.52762 0.97263 0.47238 0.0
H384 H 0.55851 0.85328 0.53555 0.0
H385 H 0.55473 0.91184 0.51645 0.0
C386 C 0.95154 0.10821 0.03535 0.0
C387 C -0.00571 0.12848 0.0406 0.0
C388 C 0.95286 0.07265 0.0249 0.0
C389 C 0.02964 0.025 -0.0035 0.0
H390 H 0.94193 0.91673 -0.00213 0.0
C391 C 0.03817 0.8657 0.95709 0.0
C392 C -0.0059 0.84838 0.95186 0.0
C393 C 0.03929 0.89989 0.96796 0.0
C394 C 0.96632 0.94702 -0.00272 0.0
H395 H 0.07208 0.12635 0.03918 0.0
H396 H 0.07424 0.06388 0.02103 0.0
H397 H 0.9424 0.97513 0.0172 0.0
H398 H 0.91662 0.85432 0.95377 0.0
H399 H 0.91876 0.91414 0.97263 0.0
H400 H 0.05346 -0.00315 0.97656 0.0
C401 C 0.03972 0.07611 0.02487 0.0
C402 C 0.96662 0.98041 0.00835 0.0
C403 C 0.03843 0.11172 0.03533 0.0
C404 C 0.95122 0.86666 0.95757 0.0
C405 C 0.95239 0.90072 0.96845 0.0
C406 C 0.02939 -0.00847 0.98544 0.0
C407 C -0.00307 0.05646 0.01948 0.0
C408 C -0.00196 0.01994 0.00803 0.0
C409 C -0.00359 0.91736 0.97384 0.0
C410 C -0.00252 0.95241 0.98568 0.0
H411 H 0.91688 0.12023 0.03914 0.0
H412 H 0.91925 0.05861 0.02084 0.0
H413 H 0.0538 0.05545 -0.00414 0.0
H414 H 0.0719 0.85246 0.95294 0.0
H415 H 0.07376 0.91183 0.97198 0.0
C416 C 0.36031 0.89364 0.15112 0.0
C417 C 0.38568 0.86446 0.14153 0.0
C418 C 0.32531 0.92543 0.14624 0.0
C419 C 0.2485 0.95232 0.11507 0.0
H420 H 0.24 0.07814 0.1327 0.0
C421 C 0.14182 0.11082 0.09122 0.0
C422 C 0.11246 0.13669 0.10065 0.0
C423 C 0.17349 0.07602 0.0963 0.0
C424 C 0.24172 0.04296 0.12778 0.0
H425 H 0.3942 0.84576 0.1193 0.0
H426 H 0.33409 0.90216 0.11076 0.0
H427 H 0.2989 0.02048 0.14133 0.0
H428 H 0.0932 0.14614 0.12281 0.0
H429 H 0.14899 0.08566 0.13166 0.0
H430 H 0.19198 0.97562 0.10128 0.0
C431 C 0.34042 0.89972 0.12208 0.0
C432 C 0.27531 0.00985 0.13274 0.0
C433 C 0.3751 0.86755 0.12697 0.0
C434 C 0.11528 0.12683 0.11526 0.0
C435 C 0.14735 0.09242 0.12035 0.0
C436 C 0.21523 0.98566 0.11002 0.0
C437 C 0.31522 0.92914 0.13166 0.0
C438 C 0.2791 0.96411 0.12645 0.0
C439 C 0.17679 0.06682 0.11092 0.0
C440 C 0.21156 0.03123 0.11634 0.0
H441 H 0.36725 0.89177 0.16242 0.0
H442 H 0.30594 0.94687 0.15394 0.0
H443 H 0.2499 0.91715 0.11014 0.0
H444 H 0.14037 0.11741 0.0799 0.0
H445 H 0.19609 0.05697 0.08883 0.0
C446 C 0.11417 0.86548 0.36262 0.0
C447 C 0.1007 0.86266 0.34827 0.0
C448 C 0.15074 0.89655 0.36692 0.0
C449 C 0.21621 0.00516 0.35544 0.0
H450 H 0.30187 0.97008 0.38621 0.0
C451 C 0.37363 0.12518 0.37391 0.0
C452 C 0.37463 0.1344 0.38859 0.0
C453 C 0.34339 0.08975 0.36838 0.0
C454 C 0.2781 0.98026 0.37762 0.0
H455 H 0.1159 0.88925 0.3271 0.0
H456 H 0.18056 0.94261 0.33455 0.0
H457 H 0.2436 0.91161 0.3774 0.0
H458 H 0.34569 0.1129 0.40901 0.0
H459 H 0.29325 0.05068 0.39931 0.0
H460 H 0.25115 0.07375 0.35565 0.0
C461 C 0.16205 0.9217 0.34254 0.0
C462 C 0.24462 0.94696 0.37261 0.0
C463 C 0.1251 0.89099 0.33826 0.0
C464 C 0.34553 0.10683 0.39765 0.0
C465 C 0.3158 0.07101 0.39213 0.0
C466 C 0.25006 0.03824 0.36035 0.0
C467 C 0.17504 0.92511 0.35693 0.0
C468 C 0.21279 0.95928 0.36161 0.0
C469 C 0.31418 0.06249 0.37745 0.0
C470 C 0.28079 0.02628 0.37161 0.0
H471 H 0.09587 0.84434 0.37061 0.0
H472 H 0.15921 0.89891 0.37812 0.0
H473 H 0.19179 0.01612 0.34711 0.0
H474 H 0.39559 0.14586 0.36666 0.0
H475 H 0.34287 0.08359 0.35702 0.0
C476 C 0.11498 0.12531 0.62679 0.0
C477 C 0.10357 0.12839 0.64128 0.0
C478 C 0.1515 0.09481 0.62215 0.0
C479 C 0.21987 0.98775 0.6335 0.0
H480 H 0.30004 0.02016 0.60125 0.0
C481 C 0.37641 0.86815 0.61511 0.0
C482 C 0.37593 0.85618 0.6006 0.0
C483 C 0.34647 0.90421 0.62033 0.0
C484 C 0.27777 0.01072 0.61025 0.0
H485 H 0.12274 0.10346 0.66235 0.0
H486 H 0.18736 0.05139 0.65432 0.0
H487 H 0.2423 0.07884 0.61018 0.0
H488 H 0.34481 0.87377 0.58012 0.0
H489 H 0.29275 0.93715 0.58929 0.0
H490 H 0.25579 0.91982 0.63361 0.0
C491 C 0.16719 0.07136 0.64647 0.0
C492 C 0.2446 0.04415 0.61533 0.0
C493 C 0.13027 0.10137 0.65109 0.0
C494 C 0.3458 0.88193 0.59137 0.0
C495 C 0.31627 0.91841 0.59658 0.0
C496 C 0.2534 0.95464 0.62852 0.0
C497 C 0.1778 0.06719 0.63193 0.0
C498 C 0.2149 0.03285 0.62694 0.0
C499 C 0.31594 0.92941 0.61112 0.0
C500 C 0.28229 0.96565 0.61677 0.0
H501 H 0.0949 0.14552 0.61897 0.0
H502 H 0.15818 0.09196 0.61086 0.0
H503 H 0.197 0.97742 0.64227 0.0
H504 H 0.39921 0.84903 0.62251 0.0
H505 H 0.34705 0.91233 0.63158 0.0
C506 C 0.1139 0.85828 0.87732 0.0
C507 C 0.11105 0.84728 0.89185 0.0
C508 C 0.14513 0.89396 0.87254 0.0
C509 C 0.25391 0.96087 0.88329 0.0
H510 H 0.21926 0.04303 0.85167 0.0
C511 C 0.37178 0.11917 0.86498 0.0
C512 C 0.38182 0.12045 0.85036 0.0
C513 C 0.33673 0.08818 0.87027 0.0
C514 C 0.22936 0.02014 0.86047 0.0
H515 H 0.13766 0.86609 0.9128 0.0
H516 H 0.19122 0.92918 0.90449 0.0
H517 H 0.16105 0.98507 0.86074 0.0
H518 H 0.36203 0.09117 0.82979 0.0
H519 H 0.30045 0.03728 0.83908 0.0
H520 H 0.32205 -0.00356 0.88307 0.0
C521 C 0.17028 0.90938 0.89675 0.0
C522 C 0.19619 0.98687 0.86564 0.0
C523 C 0.13942 0.87334 0.90152 0.0
C524 C 0.35533 0.09085 0.84111 0.0
C525 C 0.31988 0.06026 0.8464 0.0
C526 C 0.28684 -0.00554 0.87821 0.0
C527 C 0.17383 0.9198 0.88218 0.0
C528 C 0.20824 0.95657 0.87704 0.0
C529 C 0.31066 0.05832 0.86103 0.0
C530 C 0.27498 0.02412 0.8667 0.0
H531 H 0.09271 0.83868 0.86959 0.0
H532 H 0.14752 0.90051 0.86123 0.0
H533 H 0.26471 0.93752 0.8919 0.0
H534 H 0.39155 0.14149 0.8724 0.0
H535 H 0.32996 0.08757 0.88159 0.0
C536 C 0.87762 0.8659 0.87646 0.0
C537 C 0.87782 0.85465 0.89101 0.0
C538 C 0.8475 0.90176 0.87122 0.0
C539 C 0.77809 0.00842 0.88121 0.0
H540 H 0.6982 0.97373 0.84904 0.0
C541 C 0.61488 0.12164 0.86392 0.0
C542 C 0.60415 0.12439 0.84936 0.0
C543 C 0.65137 0.09144 0.86876 0.0
C544 C 0.7208 0.98444 0.85786 0.0
H545 H 0.84775 0.87352 0.91153 0.0
H546 H 0.79533 0.93643 0.90233 0.0
H547 H 0.75723 0.9168 0.8579 0.0
H548 H 0.62459 0.09912 0.82842 0.0
H549 H 0.68903 0.04754 0.83682 0.0
H550 H 0.74197 0.07623 0.88113 0.0
C551 C 0.8185 0.91732 0.89502 0.0
C552 C 0.7545 0.9517 0.86295 0.0
C553 C 0.84827 0.88109 0.90026 0.0
C554 C 0.63155 0.09734 0.83972 0.0
C555 C 0.66837 0.06759 0.84455 0.0
C556 C 0.74468 0.04144 0.87602 0.0
C557 C 0.81734 0.92746 0.88043 0.0
C558 C 0.78321 0.96324 0.87473 0.0
C559 C 0.67829 0.06373 0.85915 0.0
C560 C 0.71536 0.02968 0.86434 0.0
H561 H 0.89996 0.84631 0.86905 0.0
H562 H 0.84757 0.90923 0.85994 0.0
H563 H 0.80016 0.01831 0.89023 0.0
H564 H 0.59429 0.14187 0.87163 0.0
H565 H 0.65753 0.08888 0.88009 0.0
C566 C 0.87208 0.13004 0.62348 0.0
C567 C 0.88079 0.13069 0.63819 0.0
C568 C 0.8363 0.10055 0.61779 0.0
C569 C 0.7257 0.03602 0.62674 0.0
H570 H 0.76061 0.95122 0.59572 0.0
C571 C 0.61139 0.87196 0.61135 0.0
C572 C 0.60829 0.85883 0.59696 0.0
C573 C 0.64204 0.90889 0.61566 0.0
C574 C 0.74991 0.97524 0.60419 0.0
H575 H 0.85791 0.10183 0.65849 0.0
H576 H 0.79523 0.05063 0.64852 0.0
H577 H 0.81862 0.00979 0.60451 0.0
H578 H 0.63388 0.87525 0.57576 0.0
H579 H 0.6866 0.94045 0.58327 0.0
H580 H 0.65701 0.00172 0.62645 0.0
C581 C 0.81617 0.07295 0.64143 0.0
C582 C 0.78322 0.00867 0.60925 0.0
C583 C 0.85228 0.10199 0.64711 0.0
C584 C 0.63578 0.88416 0.58695 0.0
C585 C 0.66615 0.92141 0.59125 0.0
C586 C 0.69221 0.00292 0.6216 0.0
C587 C 0.80817 0.07164 0.62671 0.0
C588 C 0.77164 0.03883 0.6207 0.0
C589 C 0.66998 0.9339 0.60568 0.0
C590 C 0.70419 0.97161 0.61042 0.0
H591 H 0.89343 0.1517 0.61631 0.0
H592 H 0.83059 0.10035 0.60641 0.0
H593 H 0.71574 0.05936 0.63547 0.0
H594 H 0.5909 0.85305 0.61936 0.0
H595 H 0.64469 0.91697 0.62688 0.0
C596 C 0.84955 0.88142 0.3427 0.0
C597 C 0.87799 0.85323 0.35179 0.0
C598 C 0.81329 0.91058 0.34819 0.0
C599 C 0.78043 0.97576 0.38026 0.0
H600 H 0.65504 0.98502 0.36256 0.0
C601 C 0.63429 0.10042 0.40269 0.0
C602 C 0.60729 0.12678 0.39279 0.0
C603 C 0.66418 0.06314 0.39822 0.0
C604 C 0.69003 0.98317 0.36755 0.0
H605 H 0.88997 0.83294 0.37376 0.0
H606 H 0.82682 0.88431 0.38332 0.0
H607 H 0.7131 0.92665 0.35367 0.0
H608 H 0.59016 0.13423 0.37042 0.0
H609 H 0.64321 0.07011 0.36259 0.0
H610 H 0.7583 0.03316 0.39383 0.0
C611 C 0.8328 0.88377 0.37195 0.0
C612 C 0.72315 0.94966 0.36248 0.0
C613 C 0.86878 0.85423 0.36646 0.0
C614 C 0.61032 0.11454 0.37834 0.0
C615 C 0.64054 0.07753 0.37385 0.0
C616 C 0.74751 0.00953 0.38525 0.0
C617 C 0.80498 0.91247 0.36288 0.0
C618 C 0.76878 0.94591 0.36873 0.0
C619 C 0.6681 0.05161 0.38373 0.0
C620 C 0.70205 0.01393 0.37888 0.0
H621 H 0.85551 0.88132 0.33134 0.0
H622 H 0.79263 0.93267 0.34097 0.0
H623 H 0.81562 0.97406 0.38514 0.0
H624 H 0.63238 0.10856 0.41393 0.0
H625 H 0.68424 0.04335 0.40614 0.0
C626 C 0.63681 0.87692 0.15207 0.0
C627 C 0.6081 0.85166 0.14231 0.0
C628 C 0.67436 0.90602 0.14736 0.0
C629 C 0.74942 0.93409 0.11581 0.0
H630 H 0.76352 0.05745 0.13462 0.0
C631 C 0.84939 0.09684 0.0917 0.0
C632 C 0.87938 0.12337 0.10084 0.0
C633 C 0.82076 0.05976 0.09699 0.0
C634 C 0.76042 0.02288 0.12938 0.0
H635 H 0.59687 0.83636 0.11995 0.0
H636 H 0.6614 0.88825 0.11171 0.0
H637 H 0.70517 -0.0002 0.14348 0.0
H638 H 0.90361 0.1309 0.12266 0.0
H639 H 0.85322 0.06646 0.13186 0.0
H640 H 0.80375 0.95836 0.10139 0.0
C641 C 0.65566 0.8848 0.12303 0.0
C642 C 0.7271 0.98973 0.13447 0.0
C643 C 0.61843 0.85526 0.12775 0.0
C644 C 0.88085 0.1113 0.11532 0.0
C645 C 0.8519 0.07455 0.12062 0.0
C646 C 0.78248 0.96752 0.11062 0.0
C647 C 0.6837 0.91097 0.13277 0.0
C648 C 0.72098 0.94504 0.12771 0.0
C649 C 0.82125 0.04879 0.11153 0.0
C650 C 0.78806 0.01229 0.11733 0.0
H651 H 0.63019 0.8744 0.16337 0.0
H652 H 0.69588 0.92487 0.15517 0.0
H653 H 0.74615 0.89971 0.11048 0.0
H654 H 0.84761 0.10501 0.08047 0.0
H655 H 0.79715 0.04064 0.08978 0.0
C656 C 0.85605 0.39163 0.64988 0.0
C657 C 0.88351 0.36404 0.64039 0.0
C658 C 0.82074 0.42273 0.64484 0.0
C659 C 0.74721 0.45097 0.61312 0.0
H660 H 0.73595 0.57547 0.63141 0.0
C661 C 0.64063 0.61059 0.58961 0.0
C662 C 0.61116 0.63613 0.5991 0.0
C663 C 0.67187 0.57522 0.5946 0.0
C664 C 0.73839 0.54065 0.62629 0.0
H665 H 0.89511 0.3471 0.61816 0.0
H666 H 0.83431 0.40232 0.60934 0.0
H667 H 0.79445 0.51778 0.64018 0.0
H668 H 0.59099 0.64402 0.62125 0.0
H669 H 0.64581 0.58253 0.62991 0.0
H670 H 0.6917 0.4747 0.59901 0.0
C671 C 0.83939 0.39921 0.6207 0.0
C672 C 0.77177 0.50752 0.63133 0.0
C673 C 0.87444 0.36773 0.62575 0.0
C674 C 0.61322 0.62511 0.61365 0.0
C675 C 0.64475 0.59008 0.61863 0.0
C676 C 0.71406 0.48435 0.60799 0.0
C677 C 0.81239 0.42733 0.63018 0.0
C678 C 0.77651 0.46224 0.62483 0.0
C679 C 0.67455 0.56505 0.60917 0.0
C680 C 0.70932 0.52942 0.61457 0.0
H681 H 0.86174 0.3892 0.66124 0.0
H682 H 0.79992 0.44313 0.65245 0.0
H683 H 0.74949 0.41617 0.60799 0.0
H684 H 0.63977 0.61804 0.57833 0.0
H685 H 0.69474 0.55661 0.5871 0.0
C686 C 0.84191 0.60599 0.90041 0.0
C687 C 0.87045 0.63239 0.89092 0.0
C688 C 0.8109 0.57038 0.89541 0.0
C689 C 0.78464 0.49433 0.86394 0.0
H690 H 0.65922 0.48396 0.88152 0.0
C691 C 0.62551 0.38766 0.83991 0.0
C692 C 0.59987 0.35808 0.84934 0.0
C693 C 0.66084 0.41892 0.84499 0.0
C694 C 0.6943 0.48619 0.87661 0.0
H695 H 0.88901 0.64201 0.86873 0.0
H696 H 0.83389 0.58083 0.85997 0.0
H697 H 0.71639 0.54314 0.89036 0.0
H698 H 0.5917 0.33771 0.87146 0.0
H699 H 0.65305 0.3927 0.88027 0.0
H700 H 0.76159 0.43804 0.84993 0.0
C701 C 0.83625 0.58684 0.87131 0.0
C702 C 0.72714 0.51993 0.88169 0.0
C703 C 0.86766 0.62211 0.87633 0.0
C704 C 0.61076 0.35999 0.86391 0.0
C705 C 0.64568 0.3916 0.86898 0.0
C706 C 0.75153 0.46089 0.85876 0.0
C707 C 0.80732 0.56073 0.88079 0.0
C708 C 0.77273 0.52437 0.87544 0.0
C709 C 0.67077 0.42154 0.85958 0.0
C710 C 0.70614 0.45651 0.86507 0.0
H711 H 0.84363 0.61267 0.91173 0.0
H712 H 0.78984 0.55029 0.90303 0.0
H713 H 0.81969 0.49631 0.85902 0.0
H714 H 0.61813 0.38687 0.82862 0.0
H715 H 0.67957 0.4419 0.83755 0.0
C716 C 0.62017 0.58957 0.15096 0.0
C717 C 0.59463 0.61872 0.14142 0.0
C718 C 0.65507 0.55775 0.14603 0.0
C719 C 0.731 0.53031 0.11471 0.0
H720 H 0.73961 0.40474 0.13236 0.0
C721 C 0.83717 0.37094 0.0909 0.0
C722 C 0.86676 0.34548 0.10037 0.0
C723 C 0.80555 0.4059 0.09594 0.0
C724 C 0.73784 0.43984 0.12742 0.0
H725 H 0.58575 0.63741 0.11922 0.0
H726 H 0.64564 0.58095 0.11057 0.0
H727 H 0.68108 0.46266 0.14106 0.0
H728 H 0.88646 0.33694 0.12253 0.0
H729 H 0.83076 0.39765 0.1313 0.0
H730 H 0.78712 0.50661 0.10083 0.0
C731 C 0.63954 0.58343 0.1219 0.0
C732 C 0.70448 0.47311 0.13242 0.0
C733 C 0.605 0.61564 0.12685 0.0
C734 C 0.86421 0.35592 0.11496 0.0
C735 C 0.83219 0.39046 0.12 0.0
C736 C 0.76404 0.49678 0.10961 0.0
C737 C 0.66486 0.55396 0.13143 0.0
C738 C 0.70069 0.51879 0.12615 0.0
C739 C 0.80251 0.41564 0.11054 0.0
C740 C 0.76778 0.45132 0.11594 0.0
H741 H 0.61339 0.59144 0.16227 0.0
H742 H 0.67454 0.53629 0.15369 0.0
H743 H 0.72959 0.5654 0.10977 0.0
H744 H 0.83841 0.36389 0.0796 0.0
H745 H 0.78276 0.42465 0.08845 0.0
C746 C 0.86289 0.58948 0.34269 0.0
C747 C 0.88919 0.61936 0.35189 0.0
C748 C 0.82866 0.55778 0.34804 0.0
C749 C 0.75478 0.53204 0.37975 0.0
H750 H 0.74583 0.40554 0.36255 0.0
C751 C 0.64358 0.37425 0.40293 0.0
C752 C 0.61483 0.3491 0.39312 0.0
C753 C 0.67624 0.4089 0.39826 0.0
C754 C 0.74774 0.44087 0.36738 0.0
H755 H 0.90001 0.63964 0.37392 0.0
H756 H 0.841 0.58336 0.3833 0.0
H757 H 0.80502 0.46266 0.3538 0.0
H758 H 0.5974 0.34111 0.37075 0.0
H759 H 0.65468 0.40124 0.36267 0.0
H760 H 0.69784 0.50946 0.39351 0.0
C761 C 0.8462 0.58512 0.37192 0.0
C762 C 0.78148 0.47366 0.36235 0.0
C763 C 0.88018 0.61721 0.36655 0.0
C764 C 0.61899 0.35977 0.37859 0.0
C765 C 0.65194 0.39399 0.37394 0.0
C766 C 0.72127 0.49898 0.38488 0.0
C767 C 0.82028 0.55485 0.36273 0.0
C768 C 0.7851 0.51978 0.36838 0.0
C769 C 0.68107 0.41857 0.38371 0.0
C770 C 0.71723 0.45331 0.37863 0.0
H771 H 0.86856 0.59065 0.33132 0.0
H772 H 0.80858 0.5357 0.34064 0.0
H773 H 0.75628 0.56746 0.38452 0.0
H774 H 0.64107 0.36701 0.4142 0.0
H775 H 0.69852 0.42729 0.40599 0.0
C776 C 0.38365 0.36915 0.37489 0.0
C777 C 0.3821 0.35752 0.38941 0.0
C778 C 0.35502 0.40599 0.36948 0.0
C779 C 0.28736 0.5141 0.3793 0.0
H780 H 0.20775 0.48177 0.34686 0.0
C781 C 0.12305 0.62701 0.36311 0.0
C782 C 0.11117 0.63031 0.34865 0.0
C783 C 0.16052 0.59737 0.36757 0.0
C784 C 0.23035 0.49188 0.35573 0.0
H785 H 0.35052 0.37664 0.4097 0.0
H786 H 0.30078 0.44118 0.40023 0.0
H787 H 0.26615 0.42388 0.35554 0.0
H788 H 0.13073 0.60686 0.32745 0.0
H789 H 0.19693 0.55625 0.33518 0.0
H790 H 0.25175 0.58216 0.3795 0.0
C791 C 0.32414 0.42166 0.39307 0.0
C792 C 0.2637 0.45858 0.36073 0.0
C793 C 0.35234 0.38447 0.39846 0.0
C794 C 0.13858 0.6046 0.33869 0.0
C795 C 0.17641 0.57541 0.34314 0.0
C796 C 0.25435 0.54768 0.37421 0.0
C797 C 0.32474 0.4323 0.3785 0.0
C798 C 0.29204 0.46913 0.37266 0.0
C799 C 0.18734 0.57079 0.35765 0.0
C800 C 0.22495 0.5367 0.36248 0.0
H801 H 0.4062 0.34914 0.36763 0.0
H802 H 0.35635 0.41376 0.35822 0.0
H803 H 0.30921 0.52325 0.38843 0.0
H804 H 0.10251 0.64622 0.37105 0.0
H805 H 0.16742 0.59418 0.37884 0.0
C806 C 0.09826 0.37241 0.11445 0.0
C807 C 0.09983 0.359 0.10005 0.0
C808 C 0.12751 0.40934 0.11955 0.0
C809 C 0.19864 0.51454 0.10906 0.0
H810 H 0.27456 0.48363 0.14234 0.0
C811 C 0.36274 0.62694 0.12665 0.0
C812 C 0.37219 0.63104 0.14126 0.0
C813 C 0.32563 0.59738 0.12178 0.0
C814 C 0.25304 0.49333 0.1332 0.0
H815 H 0.13199 0.37524 0.07962 0.0
H816 H 0.18301 0.43992 0.08859 0.0
H817 H 0.21588 0.42606 0.13356 0.0
H818 H 0.34861 0.60942 0.16225 0.0
H819 H 0.28315 0.55904 0.15379 0.0
H820 H 0.23571 0.58196 0.10873 0.0
C821 C 0.15909 0.42171 0.09588 0.0
C822 C 0.21952 0.46022 0.12816 0.0
C823 C 0.13014 0.38445 0.09079 0.0
C824 C 0.3427 0.60642 0.15091 0.0
C825 C 0.30529 0.57737 0.14605 0.0
C826 C 0.23191 0.54796 0.1142 0.0
C827 C 0.15858 0.43392 0.11035 0.0
C828 C 0.19228 0.47034 0.11599 0.0
C829 C 0.29687 0.57176 0.13143 0.0
C830 C 0.25977 0.53756 0.12627 0.0
H831 H 0.07524 0.35371 0.12188 0.0
H832 H 0.12614 0.41843 0.13073 0.0
H833 H 0.17772 0.52331 0.09972 0.0
H834 H 0.38492 0.64539 0.11895 0.0
H835 H 0.32053 0.59345 0.11044 0.0
C836 C 0.10469 0.61366 0.87647 0.0
C837 C 0.10414 0.62478 0.89104 0.0
C838 C 0.13496 0.57785 0.87125 0.0
C839 C 0.20419 0.47114 0.88131 0.0
H840 H 0.28427 0.50542 0.84924 0.0
C841 C 0.36722 0.35741 0.86408 0.0
C842 C 0.37766 0.35431 0.84952 0.0
C843 C 0.33093 0.38784 0.86894 0.0
C844 C 0.26163 0.49484 0.85803 0.0
H845 H 0.1338 0.60579 0.9116 0.0
H846 H 0.18647 0.54301 0.90243 0.0
H847 H 0.22524 0.56251 0.85804 0.0
H848 H 0.35689 0.37926 0.82858 0.0
H849 H 0.29286 0.43128 0.83701 0.0
H850 H 0.24029 0.40331 0.88127 0.0
C851 C 0.16345 0.56215 0.89509 0.0
C852 C 0.22792 0.52766 0.86309 0.0
C853 C 0.13353 0.59831 0.90031 0.0
C854 C 0.35018 0.38129 0.83989 0.0
C855 C 0.31359 0.4113 0.84473 0.0
C856 C 0.23763 0.43805 0.87617 0.0
C857 C 0.16492 0.55208 0.88049 0.0
C858 C 0.19912 0.51625 0.87483 0.0
C859 C 0.30394 0.41546 0.85933 0.0
C860 C 0.267 0.44967 0.86452 0.0
H861 H 0.08249 0.63327 0.86903 0.0
H862 H 0.13512 0.57043 0.85995 0.0
H863 H 0.18205 0.46134 0.89031 0.0
H864 H 0.38786 0.33723 0.87178 0.0
H865 H 0.32493 0.39064 0.88027 0.0
C866 C 0.13167 0.38861 0.65329 0.0
C867 C 0.10628 0.36116 0.64323 0.0
C868 C 0.1692 0.41861 0.64905 0.0
C869 C 0.251 0.44404 0.61883 0.0
H870 H 0.2584 0.57059 0.63605 0.0
C871 C 0.34943 0.60456 0.59352 0.0
C872 C 0.3782 0.63311 0.60245 0.0
C873 C 0.32077 0.56817 0.59917 0.0
C874 C 0.25714 0.53514 0.63128 0.0
H875 H 0.10066 0.34338 0.62085 0.0
H876 H 0.16506 0.39663 0.61342 0.0
H877 H 0.19961 0.51281 0.64471 0.0
H878 H 0.39986 0.6455 0.62431 0.0
H879 H 0.34909 0.5822 0.63417 0.0
H880 H 0.30745 0.46739 0.60503 0.0
C881 C 0.15683 0.3942 0.62463 0.0
C882 C 0.22359 0.50195 0.63626 0.0
C883 C 0.11963 0.36387 0.62888 0.0
C884 C 0.37811 0.62412 0.61714 0.0
C885 C 0.34897 0.58808 0.6228 0.0
C886 C 0.28421 0.47744 0.61376 0.0
C887 C 0.18187 0.42215 0.63465 0.0
C888 C 0.21974 0.45619 0.62998 0.0
C889 C 0.31991 0.55996 0.61386 0.0
C890 C 0.28721 0.52342 0.61985 0.0
H891 H 0.12261 0.38695 0.66446 0.0
H892 H 0.18828 0.43902 0.65708 0.0
H893 H 0.24963 0.4088 0.61394 0.0
H894 H 0.34889 0.61038 0.58215 0.0
H895 H 0.29833 0.54725 0.59207 0.0
loop_
_geom_bond_atom_site_label_1
_geom_bond_atom_site_label_2
_geom_bond_distance
_geom_bond_site_symmetry_2
_ccdc_geom_bond_type
Sc0 O3 2.025 . S
Sc0 O10 2.105 . S
Sc0 O13 2.105 . S
Sc0 O16 2.105 . S
Sc0 O19 2.105 . S
Sc1 O3 2.025 1_655 S
Sc1 O11 2.105 . S
Sc1 O15 2.105 . S
Sc1 O17 2.105 . S
Sc1 O21 2.105 . S
Sc2 O3 2.025 . S
Sc2 O12 2.105 1_455 S
Sc2 O14 2.105 . S
Sc2 O18 2.105 1_455 S
Sc2 O20 2.105 . S
O3 Sc0 2.025 . S
O3 Sc1 2.025 1_455 S
O3 Sc2 2.025 . S
C4 O10 1.268 . S
C4 O20 1.268 . S
C5 O11 1.268 1_455 S
C5 O19 1.268 . S
C6 O12 1.268 . S
C6 O21 1.268 . S
C7 O13 1.268 . S
C7 O17 1.268 1_455 S
C8 O14 1.268 . S
C8 O16 1.268 . S
C9 O15 1.268 . S
C9 O18 1.268 . S
O10 Sc0 2.105 . S
O10 C4 1.268 . S
O11 Sc1 2.105 . S
O11 C5 1.268 1_655 S
O12 Sc2 2.105 1_655 S
O12 C6 1.268 . S
O13 Sc0 2.105 . S
O13 C7 1.268 . S
O14 Sc2 2.105 . S
O14 C8 1.268 . S
O15 Sc1 2.105 . S
O15 C9 1.268 . S
O16 Sc0 2.105 . S
O16 C8 1.268 . S
O17 Sc1 2.105 . S
O17 C7 1.268 1_655 S
O18 Sc2 2.105 1_655 S
O18 C9 1.268 . S
O19 Sc0 2.105 . S
O19 C5 1.268 . S
O20 Sc2 2.105 . S
O20 C4 1.268 . S
O21 Sc1 2.105 . S
O21 C6 1.268 . S
Sc22 O25 2.025 . S
Sc22 O32 2.105 . S
Sc22 O35 2.105 1_455 S
Sc22 O38 2.105 1_455 S
Sc22 O41 2.105 . S
Sc23 O25 2.025 . S
Sc23 O33 2.105 . S
Sc23 O37 2.105 1_455 S
Sc23 O39 2.105 1_455 S
Sc23 O43 2.105 . S
Sc24 O25 2.025 . S
Sc24 O34 2.105 . S
Sc24 O36 2.105 1_455 S
Sc24 O40 2.105 1_455 S
Sc24 O42 2.105 . S
O25 Sc22 2.025 . S
O25 Sc23 2.025 . S
O25 Sc24 2.025 . S
C26 O32 1.268 . S
C26 O42 1.268 . S
C27 O33 1.268 . S
C27 O41 1.268 . S
C28 O34 1.268 . S
C28 O43 1.268 . S
C29 O35 1.268 . S
C29 O39 1.268 . S
C30 O36 1.268 . S
C30 O38 1.268 . S
C31 O37 1.268 . S
C31 O40 1.268 . S
O32 Sc22 2.105 . S
O32 C26 1.268 . S
O33 Sc23 2.105 . S
O33 C27 1.268 . S
O34 Sc24 2.105 . S
O34 C28 1.268 . S
O35 Sc22 2.105 1_655 S
O35 C29 1.268 . S
O36 Sc24 2.105 1_655 S
O36 C30 1.268 . S
O37 Sc23 2.105 1_655 S
O37 C31 1.268 . S
O38 Sc22 2.105 1_655 S
O38 C30 1.268 . S
O39 Sc23 2.105 1_655 S
O39 C29 1.268 . S
O40 Sc24 2.105 1_655 S
O40 C31 1.268 . S
O41 Sc22 2.105 . S
O41 C27 1.268 . S
O42 Sc24 2.105 . S
O42 C26 1.268 . S
O43 Sc23 2.105 . S
O43 C28 1.268 . S
Sc44 O47 2.025 . S
Sc44 O54 2.105 . S
Sc44 O57 2.105 . S
Sc44 O60 2.105 . S
Sc44 O63 2.105 . S
Sc45 O47 2.025 . S
Sc45 O55 2.105 . S
Sc45 O59 2.105 . S
Sc45 O61 2.105 . S
Sc45 O65 2.105 . S
Sc46 O47 2.025 . S
Sc46 O56 2.105 . S
Sc46 O58 2.105 . S
Sc46 O62 2.105 . S
Sc46 O64 2.105 . S
O47 Sc44 2.025 . S
O47 Sc45 2.025 . S
O47 Sc46 2.025 . S
C48 O54 1.268 . S
C48 O64 1.268 . S
C49 O55 1.268 . S
C49 O63 1.268 . S
C50 O56 1.268 . S
C50 O65 1.268 . S
C51 O57 1.268 . S
C51 O61 1.268 . S
C52 O58 1.268 . S
C52 O60 1.268 . S
C53 O59 1.268 . S
C53 O62 1.268 . S
O54 Sc44 2.105 . S
O54 C48 1.268 . S
O55 Sc45 2.105 . S
O55 C49 1.268 . S
O56 Sc46 2.105 . S
O56 C50 1.268 . S
O57 Sc44 2.105 . S
O57 C51 1.268 . S
O58 Sc46 2.105 . S
O58 C52 1.268 . S
O59 Sc45 2.105 . S
O59 C53 1.268 . S
O60 Sc44 2.105 . S
O60 C52 1.268 . S
O61 Sc45 2.105 . S
O61 C51 1.268 . S
O62 Sc46 2.105 . S
O62 C53 1.268 . S
O63 Sc44 2.105 . S
O63 C49 1.268 . S
O64 Sc46 2.105 . S
O64 C48 1.268 . S
O65 Sc45 2.105 . S
O65 C50 1.268 . S
Sc66 O69 2.025 . S
Sc66 O76 2.105 . S
Sc66 O79 2.105 . S
Sc66 O82 2.105 . S
Sc66 O85 2.105 . S
Sc67 O69 2.025 . S
Sc67 O77 2.105 . S
Sc67 O81 2.105 . S
Sc67 O83 2.105 . S
Sc67 O87 2.105 . S
Sc68 O69 2.025 . S
Sc68 O78 2.105 . S
Sc68 O80 2.105 . S
Sc68 O84 2.105 . S
Sc68 O86 2.105 . S
O69 Sc66 2.025 . S
O69 Sc67 2.025 . S
O69 Sc68 2.025 . S
C70 O76 1.268 . S
C70 O86 1.268 . S
C71 O77 1.268 . S
C71 O85 1.268 . S
C72 O78 1.268 . S
C72 O87 1.268 . S
C73 O79 1.268 . S
C73 O83 1.268 . S
C74 O80 1.268 . S
C74 O82 1.268 . S
C75 O81 1.268 . S
C75 O84 1.268 . S
O76 Sc66 2.105 . S
O76 C70 1.268 . S
O77 Sc67 2.105 . S
O77 C71 1.268 . S
O78 Sc68 2.105 . S
O78 C72 1.268 . S
O79 Sc66 2.105 . S
O79 C73 1.268 . S
O80 Sc68 2.105 . S
O80 C74 1.268 . S
O81 Sc67 2.105 . S
O81 C75 1.268 . S
O82 Sc66 2.105 . S
O82 C74 1.268 . S
O83 Sc67 2.105 . S
O83 C73 1.268 . S
O84 Sc68 2.105 . S
O84 C75 1.268 . S
O85 Sc66 2.105 . S
O85 C71 1.268 . S
O86 Sc68 2.105 . S
O86 C70 1.268 . S
O87 Sc67 2.105 . S
O87 C72 1.268 . S
Sc88 O91 2.025 . S
Sc88 O98 2.105 1_455 S
Sc88 O101 2.105 . S
Sc88 O104 2.105 1_455 S
Sc88 O107 2.105 . S
Sc89 O91 2.025 . S
Sc89 O99 2.105 . S
Sc89 O103 2.105 . S
Sc89 O105 2.105 . S
Sc89 O109 2.105 . S
Sc90 O91 2.025 1_655 S
Sc90 O100 2.105 . S
Sc90 O102 2.105 . S
Sc90 O106 2.105 . S
Sc90 O108 2.105 . S
O91 Sc88 2.025 . S
O91 Sc89 2.025 . S
O91 Sc90 2.025 1_455 S
C92 O98 1.268 . S
C92 O108 1.268 . S
C93 O99 1.268 . S
C93 O107 1.268 . S
C94 O100 1.268 1_455 S
C94 O109 1.268 . S
C95 O101 1.268 . S
C95 O105 1.268 . S
C96 O102 1.268 . S
C96 O104 1.268 . S
C97 O103 1.268 . S
C97 O106 1.268 1_455 S
O98 Sc88 2.105 1_655 S
O98 C92 1.268 . S
O99 Sc89 2.105 . S
O99 C93 1.268 . S
O100 Sc90 2.105 . S
O100 C94 1.268 1_655 S
O101 Sc88 2.105 . S
O101 C95 1.268 . S
O102 Sc90 2.105 . S
O102 C96 1.268 . S
O103 Sc89 2.105 . S
O103 C97 1.268 . S
O104 Sc88 2.105 1_655 S
O104 C96 1.268 . S
O105 Sc89 2.105 . S
O105 C95 1.268 . S
O106 Sc90 2.105 . S
O106 C97 1.268 1_655 S
O107 Sc88 2.105 . S
O107 C93 1.268 . S
O108 Sc90 2.105 . S
O108 C92 1.268 . S
O109 Sc89 2.105 . S
O109 C94 1.268 . S
Sc110 O113 2.025 . S
Sc110 O120 2.105 . S
Sc110 O123 2.105 . S
Sc110 O126 2.105 . S
Sc110 O129 2.105 . S
Sc111 O113 2.025 . S
Sc111 O121 2.105 . S
Sc111 O125 2.105 . S
Sc111 O127 2.105 . S
Sc111 O131 2.105 . S
Sc112 O113 2.025 . S
Sc112 O122 2.105 . S
Sc112 O124 2.105 . S
Sc112 O128 2.105 . S
Sc112 O130 2.105 . S
O113 Sc110 2.025 . S
O113 Sc111 2.025 . S
O113 Sc112 2.025 . S
C114 O120 1.268 . S
C114 O130 1.268 . S
C115 O121 1.268 . S
C115 O129 1.268 . S
C116 O122 1.268 . S
C116 O131 1.268 . S
C117 O123 1.268 . S
C117 O127 1.268 . S
C118 O124 1.268 . S
C118 O126 1.268 . S
C119 O125 1.268 . S
C119 O128 1.268 . S
O120 Sc110 2.105 . S
O120 C114 1.268 . S
O121 Sc111 2.105 . S
O121 C115 1.268 . S
O122 Sc112 2.105 . S
O122 C116 1.268 . S
O123 Sc110 2.105 . S
O123 C117 1.268 . S
O124 Sc112 2.105 . S
O124 C118 1.268 . S
O125 Sc111 2.105 . S
O125 C119 1.268 . S
O126 Sc110 2.105 . S
O126 C118 1.268 . S
O127 Sc111 2.105 . S
O127 C117 1.268 . S
O128 Sc112 2.105 . S
O128 C119 1.268 . S
O129 Sc110 2.105 . S
O129 C115 1.268 . S
O130 Sc112 2.105 . S
O130 C114 1.268 . S
O131 Sc111 2.105 . S
O131 C116 1.268 . S
Sc132 O135 2.025 . S
Sc132 O142 2.105 . S
Sc132 O145 2.105 . S
Sc132 O148 2.105 . S
Sc132 O151 2.105 . S
Sc133 O135 2.025 . S
Sc133 O143 2.105 . S
Sc133 O147 2.105 . S
Sc133 O149 2.105 . S
Sc133 O153 2.105 . S
Sc134 O135 2.025 . S
Sc134 O144 2.105 . S
Sc134 O146 2.105 . S
Sc134 O150 2.105 . S
Sc134 O152 2.105 . S
O135 Sc132 2.025 . S
O135 Sc133 2.025 . S
O135 Sc134 2.025 . S
C136 O142 1.268 . S
C136 O152 1.268 . S
C137 O143 1.268 . S
C137 O151 1.268 . S
C138 O144 1.268 . S
C138 O153 1.268 . S
C139 O145 1.268 . S
C139 O149 1.268 . S
C140 O146 1.268 . S
C140 O148 1.268 . S
C141 O147 1.268 . S
C141 O150 1.268 . S
O142 Sc132 2.105 . S
O142 C136 1.268 . S
O143 Sc133 2.105 . S
O143 C137 1.268 . S
O144 Sc134 2.105 . S
O144 C138 1.268 . S
O145 Sc132 2.105 . S
O145 C139 1.268 . S
O146 Sc134 2.105 . S
O146 C140 1.268 . S
O147 Sc133 2.105 . S
O147 C141 1.268 . S
O148 Sc132 2.105 . S
O148 C140 1.268 . S
O149 Sc133 2.105 . S
O149 C139 1.268 . S
O150 Sc134 2.105 . S
O150 C141 1.268 . S
O151 Sc132 2.105 . S
O151 C137 1.268 . S
O152 Sc134 2.105 . S
O152 C136 1.268 . S
O153 Sc133 2.105 . S
O153 C138 1.268 . S
Sc154 O157 2.025 . S
Sc154 O164 2.105 1_455 S
Sc154 O167 2.105 . S
Sc154 O170 2.105 . S
Sc154 O173 2.105 1_455 S
Sc155 O157 2.025 . S
Sc155 O165 2.105 1_455 S
Sc155 O169 2.105 . S
Sc155 O171 2.105 . S
Sc155 O175 2.105 1_455 S
Sc156 O157 2.025 . S
Sc156 O166 2.105 1_455 S
Sc156 O168 2.105 . S
Sc156 O172 2.105 . S
Sc156 O174 2.105 1_455 S
O157 Sc154 2.025 . S
O157 Sc155 2.025 . S
O157 Sc156 2.025 . S
C158 O164 1.268 . S
C158 O174 1.268 . S
C159 O165 1.268 . S
C159 O173 1.268 . S
C160 O166 1.268 . S
C160 O175 1.268 . S
C161 O167 1.268 . S
C161 O171 1.268 . S
C162 O168 1.268 . S
C162 O170 1.268 . S
C163 O169 1.268 . S
C163 O172 1.268 . S
O164 Sc154 2.105 1_655 S
O164 C158 1.268 . S
O165 Sc155 2.105 1_655 S
O165 C159 1.268 . S
O166 Sc156 2.105 1_655 S
O166 C160 1.268 . S
O167 Sc154 2.105 . S
O167 C161 1.268 . S
O168 Sc156 2.105 . S
O168 C162 1.268 . S
O169 Sc155 2.105 . S
O169 C163 1.268 . S
O170 Sc154 2.105 . S
O170 C162 1.268 . S
O171 Sc155 2.105 . S
O171 C161 1.268 . S
O172 Sc156 2.105 . S
O172 C163 1.268 . S
O173 Sc154 2.105 1_655 S
O173 C159 1.268 . S
O174 Sc156 2.105 1_655 S
O174 C158 1.268 . S
O175 Sc155 2.105 1_655 S
O175 C160 1.268 . S
C176 C177 1.349 1_655 S
C176 C178 1.327 . S
C176 H201 0.950 . S
C177 C176 1.349 1_455 S
C177 C193 1.349 . S
C178 C176 1.327 . S
C178 C197 1.429 1_655 S
C178 H202 0.950 . S
C179 C196 1.574 . S
C179 C198 1.368 . S
C179 H203 0.949 . S
H180 C184 0.949 . S
C181 C182 1.349 . S
C181 C183 1.327 . S
C181 H204 0.950 . S
C182 C181 1.349 . S
C182 C194 1.349 1_455 S
C183 C181 1.327 . S
C183 C199 1.429 . S
C183 H205 0.950 . S
C184 H180 0.949 . S
C184 C192 1.574 . S
C184 C200 1.368 1_655 S
H185 C193 0.950 . S
H186 C191 0.950 . S
H187 C192 0.949 . S
H188 C194 0.950 . S
H189 C195 0.950 . S
H190 C196 0.949 . S
C191 H186 0.950 . S
C191 C193 1.327 . S
C191 C197 1.429 . S
C192 C184 1.574 . S
C192 H187 0.949 . S
C192 C198 1.368 1_656 S
C193 C177 1.349 . S
C193 H185 0.950 . S
C193 C191 1.327 . S
C194 C182 1.349 1_655 S
C194 H188 0.950 . S
C194 C195 1.327 . S
C195 H189 0.950 . S
C195 C194 1.327 . S
C195 C199 1.429 1_655 S
C196 C179 1.574 . S
C196 H190 0.949 . S
C196 C200 1.368 1_554 S
C197 C178 1.429 1_455 S
C197 C191 1.429 . S
C197 C198 1.523 . S
C198 C179 1.368 . S
C198 C192 1.368 1_454 S
C198 C197 1.523 . S
C199 C183 1.429 . S
C199 C195 1.429 1_455 S
C199 C200 1.523 . S
C200 C184 1.368 1_455 S
C200 C196 1.368 1_556 S
C200 C199 1.523 . S
H201 C176 0.950 . S
H202 C178 0.950 . S
H203 C179 0.949 . S
H204 C181 0.950 . S
H205 C183 0.950 . S
C206 C207 1.349 . S
C206 C208 1.327 . S
C206 H231 0.950 . S
C207 C206 1.349 . S
C207 C223 1.349 . S
C208 C206 1.327 . S
C208 C227 1.429 . S
C208 H232 0.950 . S
C209 C226 1.574 . S
C209 C228 1.368 . S
C209 H233 0.949 . S
H210 C214 0.949 . S
C211 C212 1.349 . S
C211 C213 1.327 . S
C211 H234 0.950 . S
C212 C211 1.349 . S
C212 C224 1.349 . S
C213 C211 1.327 . S
C213 C229 1.429 . S
C213 H235 0.950 . S
C214 H210 0.949 . S
C214 C222 1.574 . S
C214 C230 1.368 . S
H215 C223 0.950 . S
H216 C221 0.950 . S
H217 C222 0.949 . S
H218 C224 0.950 . S
H219 C225 0.950 . S
H220 C226 0.949 . S
C221 H216 0.950 . S
C221 C223 1.327 . S
C221 C227 1.429 . S
C222 C214 1.574 . S
C222 H217 0.949 . S
C222 C228 1.368 . S
C223 C207 1.349 . S
C223 H215 0.950 . S
C223 C221 1.327 . S
C224 C212 1.349 . S
C224 H218 0.950 . S
C224 C225 1.327 . S
C225 H219 0.950 . S
C225 C224 1.327 . S
C225 C229 1.429 . S
C226 C209 1.574 . S
C226 H220 0.949 . S
C226 C230 1.368 . S
C227 C208 1.429 . S
C227 C221 1.429 . S
C227 C228 1.523 . S
C228 C209 1.368 . S
C228 C222 1.368 . S
C228 C227 1.523 . S
C229 C213 1.429 . S
C229 C225 1.429 . S
C229 C230 1.523 . S
C230 C214 1.368 . S
C230 C226 1.368 . S
C230 C229 1.523 . S
H231 C206 0.950 . S
H232 C208 0.950 . S
H233 C209 0.949 . S
H234 C211 0.950 . S
H235 C213 0.950 . S
C236 C237 1.349 . S
C236 C238 1.327 . S
C236 H261 0.950 . S
C237 C236 1.349 . S
C237 C253 1.349 . S
C238 C236 1.327 . S
C238 C257 1.429 . S
C238 H262 0.950 . S
C239 C256 1.574 . S
C239 C258 1.368 . S
C239 H263 0.949 . S
H240 C244 0.949 . S
C241 C242 1.349 . S
C241 C243 1.327 . S
C241 H264 0.950 . S
C242 C241 1.349 . S
C242 C254 1.349 . S
C243 C241 1.327 . S
C243 C259 1.429 . S
C243 H265 0.950 . S
C244 H240 0.949 . S
C244 C252 1.574 . S
C244 C260 1.368 . S
H245 C253 0.950 . S
H246 C251 0.950 . S
H247 C252 0.949 . S
H248 C254 0.950 . S
H249 C255 0.950 . S
H250 C256 0.949 . S
C251 H246 0.950 . S
C251 C253 1.327 . S
C251 C257 1.429 . S
C252 C244 1.574 . S
C252 H247 0.949 . S
C252 C258 1.368 . S
C253 C237 1.349 . S
C253 H245 0.950 . S
C253 C251 1.327 . S
C254 C242 1.349 . S
C254 H248 0.950 . S
C254 C255 1.327 . S
C255 H249 0.950 . S
C255 C254 1.327 . S
C255 C259 1.429 . S
C256 C239 1.574 . S
C256 H250 0.949 . S
C256 C260 1.368 . S
C257 C238 1.429 . S
C257 C251 1.429 . S
C257 C258 1.523 . S
C258 C239 1.368 . S
C258 C252 1.368 . S
C258 C257 1.523 . S
C259 C243 1.429 . S
C259 C255 1.429 . S
C259 C260 1.523 . S
C260 C244 1.368 . S
C260 C256 1.368 . S
C260 C259 1.523 . S
H261 C236 0.950 . S
H262 C238 0.950 . S
H263 C239 0.949 . S
H264 C241 0.950 . S
H265 C243 0.950 . S
C266 C267 1.349 . S
C266 C268 1.327 . S
C266 H291 0.950 . S
C267 C266 1.349 . S
C267 C283 1.349 . S
C268 C266 1.327 . S
C268 C287 1.429 . S
C268 H292 0.950 . S
C269 C286 1.574 . S
C269 C288 1.368 . S
C269 H293 0.949 . S
H270 C274 0.949 . S
C271 C272 1.349 . S
C271 C273 1.327 . S
C271 H294 0.950 . S
C272 C271 1.349 . S
C272 C284 1.349 . S
C273 C271 1.327 . S
C273 C289 1.429 . S
C273 H295 0.950 . S
C274 H270 0.949 . S
C274 C282 1.574 . S
C274 C290 1.368 . S
H275 C283 0.950 . S
H276 C281 0.950 . S
H277 C282 0.949 . S
H278 C284 0.950 . S
H279 C285 0.950 . S
H280 C286 0.949 . S
C281 H276 0.950 . S
C281 C283 1.327 . S
C281 C287 1.429 . S
C282 C274 1.574 . S
C282 H277 0.949 . S
C282 C288 1.368 . S
C283 C267 1.349 . S
C283 H275 0.950 . S
C283 C281 1.327 . S
C284 C272 1.349 . S
C284 H278 0.950 . S
C284 C285 1.327 . S
C285 H279 0.950 . S
C285 C284 1.327 . S
C285 C289 1.429 . S
C286 C269 1.574 . S
C286 H280 0.949 . S
C286 C290 1.368 . S
C287 C268 1.429 . S
C287 C281 1.429 . S
C287 C288 1.523 . S
C288 C269 1.368 . S
C288 C282 1.368 . S
C288 C287 1.523 . S
C289 C273 1.429 . S
C289 C285 1.429 . S
C289 C290 1.523 . S
C290 C274 1.368 . S
C290 C286 1.368 . S
C290 C289 1.523 . S
H291 C266 0.950 . S
H292 C268 0.950 . S
H293 C269 0.949 . S
H294 C271 0.950 . S
H295 C273 0.950 . S
C296 C297 1.349 . S
C296 C298 1.327 . S
C296 H321 0.950 . S
C297 C296 1.349 . S
C297 C313 1.349 . S
C298 C296 1.327 . S
C298 C317 1.429 . S
C298 H322 0.950 . S
C299 C316 1.574 . S
C299 C318 1.368 . S
C299 H323 0.949 . S
H300 C304 0.949 . S
C301 C302 1.349 . S
C301 C303 1.327 . S
C301 H324 0.950 . S
C302 C301 1.349 . S
C302 C314 1.349 . S
C303 C301 1.327 . S
C303 C319 1.429 . S
C303 H325 0.950 . S
C304 H300 0.949 . S
C304 C312 1.574 . S
C304 C320 1.368 . S
H305 C313 0.950 . S
H306 C311 0.950 . S
H307 C312 0.949 . S
H308 C314 0.950 . S
H309 C315 0.950 . S
H310 C316 0.949 . S
C311 H306 0.950 . S
C311 C313 1.327 . S
C311 C317 1.429 . S
C312 C304 1.574 . S
C312 H307 0.949 . S
C312 C318 1.368 . S
C313 C297 1.349 . S
C313 H305 0.950 . S
C313 C311 1.327 . S
C314 C302 1.349 . S
C314 H308 0.950 . S
C314 C315 1.327 . S
C315 H309 0.950 . S
C315 C314 1.327 . S
C315 C319 1.429 . S
C316 C299 1.574 . S
C316 H310 0.949 . S
C316 C320 1.368 . S
C317 C298 1.429 . S
C317 C311 1.429 . S
C317 C318 1.523 . S
C318 C299 1.368 . S
C318 C312 1.368 . S
C318 C317 1.523 . S
C319 C303 1.429 . S
C319 C315 1.429 . S
C319 C320 1.523 . S
C320 C304 1.368 . S
C320 C316 1.368 . S
C320 C319 1.523 . S
H321 C296 0.950 . S
H322 C298 0.950 . S
H323 C299 0.949 . S
H324 C301 0.950 . S
H325 C303 0.950 . S
C326 C327 1.349 . S
C326 C328 1.327 . S
C326 H351 0.950 . S
C327 C326 1.349 . S
C327 C343 1.349 . S
C328 C326 1.327 . S
C328 C347 1.429 . S
C328 H352 0.950 . S
C329 C346 1.574 . S
C329 C348 1.368 . S
C329 H353 0.949 . S
H330 C334 0.949 . S
C331 C332 1.349 . S
C331 C333 1.327 . S
C331 H354 0.950 . S
C332 C331 1.349 . S
C332 C344 1.349 . S
C333 C331 1.327 . S
C333 C349 1.429 . S
C333 H355 0.950 . S
C334 H330 0.949 . S
C334 C342 1.574 . S
C334 C350 1.368 . S
H335 C343 0.950 . S
H336 C341 0.950 . S
H337 C342 0.949 . S
H338 C344 0.950 . S
H339 C345 0.950 . S
H340 C346 0.949 . S
C341 H336 0.950 . S
C341 C343 1.327 . S
C341 C347 1.429 . S
C342 C334 1.574 . S
C342 H337 0.949 . S
C342 C348 1.368 . S
C343 C327 1.349 . S
C343 H335 0.950 . S
C343 C341 1.327 . S
C344 C332 1.349 . S
C344 H338 0.950 . S
C344 C345 1.327 . S
C345 H339 0.950 . S
C345 C344 1.327 . S
C345 C349 1.429 . S
C346 C329 1.574 . S
C346 H340 0.949 . S
C346 C350 1.368 . S
C347 C328 1.429 . S
C347 C341 1.429 . S
C347 C348 1.523 . S
C348 C329 1.368 . S
C348 C342 1.368 . S
C348 C347 1.523 . S
C349 C333 1.429 . S
C349 C345 1.429 . S
C349 C350 1.523 . S
C350 C334 1.368 . S
C350 C346 1.368 . S
C350 C349 1.523 . S
H351 C326 0.950 . S
H352 C328 0.950 . S
H353 C329 0.949 . S
H354 C331 0.950 . S
H355 C333 0.950 . S
C356 C357 1.349 . S
C356 C358 1.327 . S
C356 H381 0.950 . S
C357 C356 1.349 . S
C357 C373 1.349 . S
C358 C356 1.327 . S
C358 C377 1.429 . S
C358 H382 0.950 . S
C359 C376 1.574 . S
C359 C378 1.368 1_565 S
C359 H383 0.949 . S
H360 C364 0.949 . S
C361 C362 1.349 . S
C361 C363 1.327 . S
C361 H384 0.950 . S
C362 C361 1.349 . S
C362 C374 1.349 . S
C363 C361 1.327 . S
C363 C379 1.429 . S
C363 H385 0.950 . S
C364 H360 0.949 . S
C364 C372 1.574 . S
C364 C380 1.368 1_545 S
H365 C373 0.950 . S
H366 C371 0.950 . S
H367 C372 0.949 . S
H368 C374 0.950 . S
H369 C375 0.950 . S
H370 C376 0.949 . S
C371 H366 0.950 . S
C371 C373 1.327 . S
C371 C377 1.429 . S
C372 C364 1.574 . S
C372 H367 0.949 . S
C372 C378 1.368 . S
C373 C357 1.349 . S
C373 H365 0.950 . S
C373 C371 1.327 . S
C374 C362 1.349 . S
C374 H368 0.950 . S
C374 C375 1.327 . S
C375 H369 0.950 . S
C375 C374 1.327 . S
C375 C379 1.429 . S
C376 C359 1.574 . S
C376 H370 0.949 . S
C376 C380 1.368 . S
C377 C358 1.429 . S
C377 C371 1.429 . S
C377 C378 1.523 . S
C378 C359 1.368 1_545 S
C378 C372 1.368 . S
C378 C377 1.523 . S
C379 C363 1.429 . S
C379 C375 1.429 . S
C379 C380 1.523 . S
C380 C364 1.368 1_565 S
C380 C376 1.368 . S
C380 C379 1.523 . S
H381 C356 0.950 . S
H382 C358 0.950 . S
H383 C359 0.949 . S
H384 C361 0.950 . S
H385 C363 0.950 . S
C386 C387 1.349 1_655 S
C386 C388 1.327 . S
C386 H411 0.950 . S
C387 C386 1.349 1_455 S
C387 C403 1.349 . S
C388 C386 1.327 . S
C388 C407 1.429 1_655 S
C388 H412 0.950 . S
C389 C406 1.567 . S
C389 C408 1.375 1_556 S
C389 H413 0.949 1_556 S
H390 C394 0.949 1_556 S
C391 C392 1.349 . S
C391 C393 1.327 . S
C391 H414 0.950 . S
C392 C391 1.349 . S
C392 C404 1.349 1_455 S
C393 C391 1.327 . S
C393 C409 1.429 . S
C393 H415 0.950 . S
C394 H390 0.949 1_554 S
C394 C402 1.567 . S
C394 C410 1.375 1_654 S
H395 C403 0.950 . S
H396 C401 0.950 . S
H397 C402 0.949 . S
H398 C404 0.950 . S
H399 C405 0.950 . S
H400 C406 0.949 . S
C401 H396 0.950 . S
C401 C403 1.327 . S
C401 C407 1.429 . S
C402 C394 1.567 . S
C402 H397 0.949 . S
C402 C408 1.368 1_665 S
C403 C387 1.349 . S
C403 H395 0.950 . S
C403 C401 1.327 . S
C404 C392 1.349 1_655 S
C404 H398 0.950 . S
C404 C405 1.327 . S
C405 H399 0.950 . S
C405 C404 1.327 . S
C405 C409 1.429 1_655 S
C406 C389 1.567 . S
C406 H400 0.949 . S
C406 C410 1.368 1_545 S
C407 C388 1.429 1_455 S
C407 C401 1.429 . S
C407 C408 1.523 . S
C408 C389 1.375 1_554 S
C408 C402 1.368 1_445 S
C408 C407 1.523 . S
C409 C393 1.429 . S
C409 C405 1.429 1_455 S
C409 C410 1.523 . S
C410 C394 1.375 1_456 S
C410 C406 1.368 1_565 S
C410 C409 1.523 . S
H411 C386 0.950 . S
H412 C388 0.950 . S
H413 C389 0.949 1_554 S
H414 C391 0.950 . S
H415 C393 0.950 . S
C416 C417 1.349 . S
C416 C418 1.327 . S
C416 H441 0.950 . S
C417 C416 1.349 . S
C417 C433 1.349 . S
C418 C416 1.327 . S
C418 C437 1.429 . S
C418 H442 0.950 . S
C419 C436 1.574 . S
C419 C438 1.368 . S
C419 H443 0.949 . S
H420 C424 0.949 . S
C421 C422 1.349 . S
C421 C423 1.327 . S
C421 H444 0.950 . S
C422 C421 1.349 . S
C422 C434 1.349 . S
C423 C421 1.327 . S
C423 C439 1.429 . S
C423 H445 0.950 . S
C424 H420 0.949 . S
C424 C432 1.574 . S
C424 C440 1.368 . S
H425 C433 0.950 . S
H426 C431 0.950 . S
H427 C432 0.949 . S
H428 C434 0.950 . S
H429 C435 0.950 . S
H430 C436 0.949 . S
C431 H426 0.950 . S
C431 C433 1.327 . S
C431 C437 1.429 . S
C432 C424 1.574 . S
C432 H427 0.949 . S
C432 C438 1.368 1_545 S
C433 C417 1.349 . S
C433 H425 0.950 . S
C433 C431 1.327 . S
C434 C422 1.349 . S
C434 H428 0.950 . S
C434 C435 1.327 . S
C435 H429 0.950 . S
C435 C434 1.327 . S
C435 C439 1.429 . S
C436 C419 1.574 . S
C436 H430 0.949 . S
C436 C440 1.368 1_565 S
C437 C418 1.429 . S
C437 C431 1.429 . S
C437 C438 1.523 . S
C438 C419 1.368 . S
C438 C432 1.368 1_565 S
C438 C437 1.523 . S
C439 C423 1.429 . S
C439 C435 1.429 . S
C439 C440 1.523 . S
C440 C424 1.368 . S
C440 C436 1.368 1_545 S
C440 C439 1.523 . S
H441 C416 0.950 . S
H442 C418 0.950 . S
H443 C419 0.949 . S
H444 C421 0.950 . S
H445 C423 0.950 . S
C446 C447 1.349 . S
C446 C448 1.327 . S
C446 H471 0.950 . S
C447 C446 1.349 . S
C447 C463 1.349 . S
C448 C446 1.327 . S
C448 C467 1.429 . S
C448 H472 0.950 . S
C449 C466 1.574 . S
C449 C468 1.368 1_545 S
C449 H473 0.949 . S
H450 C454 0.949 . S
C451 C452 1.349 . S
C451 C453 1.327 . S
C451 H474 0.950 . S
C452 C451 1.349 . S
C452 C464 1.349 . S
C453 C451 1.327 . S
C453 C469 1.429 . S
C453 H475 0.950 . S
C454 H450 0.949 . S
C454 C462 1.574 . S
C454 C470 1.368 1_565 S
H455 C463 0.950 . S
H456 C461 0.950 . S
H457 C462 0.949 . S
H458 C464 0.950 . S
H459 C465 0.950 . S
H460 C466 0.949 . S
C461 H456 0.950 . S
C461 C463 1.327 . S
C461 C467 1.429 . S
C462 C454 1.574 . S
C462 H457 0.949 . S
C462 C468 1.368 . S
C463 C447 1.349 . S
C463 H455 0.950 . S
C463 C461 1.327 . S
C464 C452 1.349 . S
C464 H458 0.950 . S
C464 C465 1.327 . S
C465 H459 0.950 . S
C465 C464 1.327 . S
C465 C469 1.429 . S
C466 C449 1.574 . S
C466 H460 0.949 . S
C466 C470 1.368 . S
C467 C448 1.429 . S
C467 C461 1.429 . S
C467 C468 1.523 . S
C468 C449 1.368 1_565 S
C468 C462 1.368 . S
C468 C467 1.523 . S
C469 C453 1.429 . S
C469 C465 1.429 . S
C469 C470 1.523 . S
C470 C454 1.368 1_545 S
C470 C466 1.368 . S
C470 C469 1.523 . S
H471 C446 0.950 . S
H472 C448 0.950 . S
H473 C449 0.949 . S
H474 C451 0.950 . S
H475 C453 0.950 . S
C476 C477 1.349 . S
C476 C478 1.327 . S
C476 H501 0.950 . S
C477 C476 1.349 . S
C477 C493 1.349 . S
C478 C476 1.327 . S
C478 C497 1.429 . S
C478 H502 0.950 . S
C479 C496 1.574 . S
C479 C498 1.368 1_565 S
C479 H503 0.949 . S
H480 C484 0.949 . S
C481 C482 1.349 . S
C481 C483 1.327 . S
C481 H504 0.950 . S
C482 C481 1.349 . S
C482 C494 1.349 . S
C483 C481 1.327 . S
C483 C499 1.429 . S
C483 H505 0.950 . S
C484 H480 0.949 . S
C484 C492 1.574 . S
C484 C500 1.368 1_545 S
H485 C493 0.950 . S
H486 C491 0.950 . S
H487 C492 0.949 . S
H488 C494 0.950 . S
H489 C495 0.950 . S
H490 C496 0.949 . S
C491 H486 0.950 . S
C491 C493 1.327 . S
C491 C497 1.429 . S
C492 C484 1.574 . S
C492 H487 0.949 . S
C492 C498 1.368 . S
C493 C477 1.349 . S
C493 H485 0.950 . S
C493 C491 1.327 . S
C494 C482 1.349 . S
C494 H488 0.950 . S
C494 C495 1.327 . S
C495 H489 0.950 . S
C495 C494 1.327 . S
C495 C499 1.429 . S
C496 C479 1.574 . S
C496 H490 0.949 . S
C496 C500 1.368 . S
C497 C478 1.429 . S
C497 C491 1.429 . S
C497 C498 1.523 . S
C498 C479 1.368 1_545 S
C498 C492 1.368 . S
C498 C497 1.523 . S
C499 C483 1.429 . S
C499 C495 1.429 . S
C499 C500 1.523 . S
C500 C484 1.368 1_565 S
C500 C496 1.368 . S
C500 C499 1.523 . S
H501 C476 0.950 . S
H502 C478 0.950 . S
H503 C479 0.949 . S
H504 C481 0.950 . S
H505 C483 0.950 . S
C506 C507 1.349 . S
C506 C508 1.327 . S
C506 H531 0.950 . S
C507 C506 1.349 . S
C507 C523 1.349 . S
C508 C506 1.327 . S
C508 C527 1.429 . S
C508 H532 0.950 . S
C509 C526 1.574 1_565 S
C509 C528 1.368 . S
C509 H533 0.949 . S
H510 C514 0.949 . S
C511 C512 1.349 . S
C511 C513 1.327 . S
C511 H534 0.950 . S
C512 C511 1.349 . S
C512 C524 1.349 . S
C513 C511 1.327 . S
C513 C529 1.429 . S
C513 H535 0.950 . S
C514 H510 0.949 . S
C514 C522 1.574 1_545 S
C514 C530 1.368 . S
H515 C523 0.950 . S
H516 C521 0.950 . S
H517 C522 0.949 . S
H518 C524 0.950 . S
H519 C525 0.950 . S
H520 C526 0.949 . S
C521 H516 0.950 . S
C521 C523 1.327 . S
C521 C527 1.429 . S
C522 C514 1.574 1_565 S
C522 H517 0.949 . S
C522 C528 1.368 . S
C523 C507 1.349 . S
C523 H515 0.950 . S
C523 C521 1.327 . S
C524 C512 1.349 . S
C524 H518 0.950 . S
C524 C525 1.327 . S
C525 H519 0.950 . S
C525 C524 1.327 . S
C525 C529 1.429 . S
C526 C509 1.574 1_545 S
C526 H520 0.949 . S
C526 C530 1.368 . S
C527 C508 1.429 . S
C527 C521 1.429 . S
C527 C528 1.523 . S
C528 C509 1.368 . S
C528 C522 1.368 . S
C528 C527 1.523 . S
C529 C513 1.429 . S
C529 C525 1.429 . S
C529 C530 1.523 . S
C530 C514 1.368 . S
C530 C526 1.368 . S
C530 C529 1.523 . S
H531 C506 0.950 . S
H532 C508 0.950 . S
H533 C509 0.949 . S
H534 C511 0.950 . S
H535 C513 0.950 . S
C536 C537 1.349 . S
C536 C538 1.327 . S
C536 H561 0.950 . S
C537 C536 1.349 . S
C537 C553 1.349 . S
C538 C536 1.327 . S
C538 C557 1.429 . S
C538 H562 0.950 . S
C539 C556 1.574 . S
C539 C558 1.368 1_545 S
C539 H563 0.949 . S
H540 C544 0.949 . S
C541 C542 1.349 . S
C541 C543 1.327 . S
C541 H564 0.950 . S
C542 C541 1.349 . S
C542 C554 1.349 . S
C543 C541 1.327 . S
C543 C559 1.429 . S
C543 H565 0.950 . S
C544 H540 0.949 . S
C544 C552 1.574 . S
C544 C560 1.368 1_565 S
H545 C553 0.950 . S
H546 C551 0.950 . S
H547 C552 0.949 . S
H548 C554 0.950 . S
H549 C555 0.950 . S
H550 C556 0.949 . S
C551 H546 0.950 . S
C551 C553 1.327 . S
C551 C557 1.429 . S
C552 C544 1.574 . S
C552 H547 0.949 . S
C552 C558 1.368 . S
C553 C537 1.349 . S
C553 H545 0.950 . S
C553 C551 1.327 . S
C554 C542 1.349 . S
C554 H548 0.950 . S
C554 C555 1.327 . S
C555 H549 0.950 . S
C555 C554 1.327 . S
C555 C559 1.429 . S
C556 C539 1.574 . S
C556 H550 0.949 . S
C556 C560 1.368 . S
C557 C538 1.429 . S
C557 C551 1.429 . S
C557 C558 1.523 . S
C558 C539 1.368 1_565 S
C558 C552 1.368 . S
C558 C557 1.523 . S
C559 C543 1.429 . S
C559 C555 1.429 . S
C559 C560 1.523 . S
C560 C544 1.368 1_545 S
C560 C556 1.368 . S
C560 C559 1.523 . S
H561 C536 0.950 . S
H562 C538 0.950 . S
H563 C539 0.949 . S
H564 C541 0.950 . S
H565 C543 0.950 . S
C566 C567 1.349 . S
C566 C568 1.327 . S
C566 H591 0.950 . S
C567 C566 1.349 . S
C567 C583 1.349 . S
C568 C566 1.327 . S
C568 C587 1.429 . S
C568 H592 0.950 . S
C569 C586 1.574 1_545 S
C569 C588 1.368 . S
C569 H593 0.949 . S
H570 C574 0.949 . S
C571 C572 1.349 . S
C571 C573 1.327 . S
C571 H594 0.950 . S
C572 C571 1.349 . S
C572 C584 1.349 . S
C573 C571 1.327 . S
C573 C589 1.429 . S
C573 H595 0.950 . S
C574 H570 0.949 . S
C574 C582 1.574 1_565 S
C574 C590 1.368 . S
H575 C583 0.950 . S
H576 C581 0.950 . S
H577 C582 0.949 . S
H578 C584 0.950 . S
H579 C585 0.950 . S
H580 C586 0.949 . S
C581 H576 0.950 . S
C581 C583 1.327 . S
C581 C587 1.429 . S
C582 C574 1.574 1_545 S
C582 H577 0.949 . S
C582 C588 1.368 . S
C583 C567 1.349 . S
C583 H575 0.950 . S
C583 C581 1.327 . S
C584 C572 1.349 . S
C584 H578 0.950 . S
C584 C585 1.327 . S
C585 H579 0.950 . S
C585 C584 1.327 . S
C585 C589 1.429 . S
C586 C569 1.574 1_565 S
C586 H580 0.949 . S
C586 C590 1.368 . S
C587 C568 1.429 . S
C587 C581 1.429 . S
C587 C588 1.523 . S
C588 C569 1.368 . S
C588 C582 1.368 . S
C588 C587 1.523 . S
C589 C573 1.429 . S
C589 C585 1.429 . S
C589 C590 1.523 . S
C590 C574 1.368 . S
C590 C586 1.368 . S
C590 C589 1.523 . S
H591 C566 0.950 . S
H592 C568 0.950 . S
H593 C569 0.949 . S
H594 C571 0.950 . S
H595 C573 0.950 . S
C596 C597 1.349 . S
C596 C598 1.327 . S
C596 H621 0.950 . S
C597 C596 1.349 . S
C597 C613 1.349 . S
C598 C596 1.327 . S
C598 C617 1.429 . S
C598 H622 0.950 . S
C599 C616 1.574 1_565 S
C599 C618 1.368 . S
C599 H623 0.949 . S
H600 C604 0.949 . S
C601 C602 1.349 . S
C601 C603 1.327 . S
C601 H624 0.950 . S
C602 C601 1.349 . S
C602 C614 1.349 . S
C603 C601 1.327 . S
C603 C619 1.429 . S
C603 H625 0.950 . S
C604 H600 0.949 . S
C604 C612 1.574 1_545 S
C604 C620 1.368 . S
H605 C613 0.950 . S
H606 C611 0.950 . S
H607 C612 0.949 . S
H608 C614 0.950 . S
H609 C615 0.950 . S
H610 C616 0.949 . S
C611 H606 0.950 . S
C611 C613 1.327 . S
C611 C617 1.429 . S
C612 C604 1.574 1_565 S
C612 H607 0.949 . S
C612 C618 1.368 . S
C613 C597 1.349 . S
C613 H605 0.950 . S
C613 C611 1.327 . S
C614 C602 1.349 . S
C614 H608 0.950 . S
C614 C615 1.327 . S
C615 H609 0.950 . S
C615 C614 1.327 . S
C615 C619 1.429 . S
C616 C599 1.574 1_545 S
C616 H610 0.949 . S
C616 C620 1.368 . S
C617 C598 1.429 . S
C617 C611 1.429 . S
C617 C618 1.523 . S
C618 C599 1.368 . S
C618 C612 1.368 . S
C618 C617 1.523 . S
C619 C603 1.429 . S
C619 C615 1.429 . S
C619 C620 1.523 . S
C620 C604 1.368 . S
C620 C616 1.368 . S
C620 C619 1.523 . S
H621 C596 0.950 . S
H622 C598 0.950 . S
H623 C599 0.949 . S
H624 C601 0.950 . S
H625 C603 0.950 . S
C626 C627 1.349 . S
C626 C628 1.327 . S
C626 H651 0.950 . S
C627 C626 1.349 . S
C627 C643 1.349 . S
C628 C626 1.327 . S
C628 C647 1.429 . S
C628 H652 0.950 . S
C629 C646 1.574 . S
C629 C648 1.368 . S
C629 H653 0.949 . S
H630 C634 0.949 . S
C631 C632 1.349 . S
C631 C633 1.327 . S
C631 H654 0.950 . S
C632 C631 1.349 . S
C632 C644 1.349 . S
C633 C631 1.327 . S
C633 C649 1.429 . S
C633 H655 0.950 . S
C634 H630 0.949 . S
C634 C642 1.563 1_545 S
C634 C650 1.368 . S
H635 C643 0.950 . S
H636 C641 0.950 . S
H637 C642 0.949 . S
H638 C644 0.950 . S
H639 C645 0.950 . S
H640 C646 0.950 . S
C641 H636 0.950 . S
C641 C643 1.327 . S
C641 C647 1.429 . S
C642 C634 1.563 1_565 S
C642 H637 0.949 . S
C642 C648 1.379 . S
C643 C627 1.349 . S
C643 H635 0.950 . S
C643 C641 1.327 . S
C644 C632 1.349 . S
C644 H638 0.950 . S
C644 C645 1.327 . S
C645 H639 0.950 . S
C645 C644 1.327 . S
C645 C649 1.429 . S
C646 C629 1.574 . S
C646 H640 0.950 . S
C646 C650 1.368 1_565 S
C647 C628 1.429 . S
C647 C641 1.429 . S
C647 C648 1.523 . S
C648 C629 1.368 . S
C648 C642 1.379 . S
C648 C647 1.523 . S
C649 C633 1.429 . S
C649 C645 1.429 . S
C649 C650 1.523 . S
C650 C634 1.368 . S
C650 C646 1.368 1_545 S
C650 C649 1.523 . S
H651 C626 0.950 . S
H652 C628 0.950 . S
H653 C629 0.949 . S
H654 C631 0.950 . S
H655 C633 0.950 . S
C656 C657 1.349 . S
C656 C658 1.327 . S
C656 H681 0.950 . S
C657 C656 1.349 . S
C657 C673 1.349 . S
C658 C656 1.327 . S
C658 C677 1.429 . S
C658 H682 0.950 . S
C659 C676 1.574 . S
C659 C678 1.368 . S
C659 H683 0.949 . S
H660 C664 0.949 . S
C661 C662 1.349 . S
C661 C663 1.327 . S
C661 H684 0.950 . S
C662 C661 1.349 . S
C662 C674 1.349 . S
C663 C661 1.327 . S
C663 C679 1.429 . S
C663 H685 0.950 . S
C664 H660 0.949 . S
C664 C672 1.574 . S
C664 C680 1.368 . S
H665 C673 0.950 . S
H666 C671 0.950 . S
H667 C672 0.949 . S
H668 C674 0.950 . S
H669 C675 0.950 . S
H670 C676 0.949 . S
C671 H666 0.950 . S
C671 C673 1.327 . S
C671 C677 1.429 . S
C672 C664 1.574 . S
C672 H667 0.949 . S
C672 C678 1.368 . S
C673 C657 1.349 . S
C673 H665 0.950 . S
C673 C671 1.327 . S
C674 C662 1.349 . S
C674 H668 0.950 . S
C674 C675 1.327 . S
C675 H669 0.950 . S
C675 C674 1.327 . S
C675 C679 1.429 . S
C676 C659 1.574 . S
C676 H670 0.949 . S
C676 C680 1.368 . S
C677 C658 1.429 . S
C677 C671 1.429 . S
C677 C678 1.523 . S
C678 C659 1.368 . S
C678 C672 1.368 . S
C678 C677 1.523 . S
C679 C663 1.429 . S
C679 C675 1.429 . S
C679 C680 1.523 . S
C680 C664 1.368 . S
C680 C676 1.368 . S
C680 C679 1.523 . S
H681 C656 0.950 . S
H682 C658 0.950 . S
H683 C659 0.949 . S
H684 C661 0.950 . S
H685 C663 0.950 . S
C686 C687 1.349 . S
C686 C688 1.327 . S
C686 H711 0.950 . S
C687 C686 1.349 . S
C687 C703 1.349 . S
C688 C686 1.327 . S
C688 C707 1.429 . S
C688 H712 0.950 . S
C689 C706 1.574 . S
C689 C708 1.368 . S
C689 H713 0.949 . S
H690 C694 0.949 . S
C691 C692 1.349 . S
C691 C693 1.327 . S
C691 H714 0.950 . S
C692 C691 1.349 . S
C692 C704 1.349 . S
C693 C691 1.327 . S
C693 C709 1.429 . S
C693 H715 0.950 . S
C694 H690 0.949 . S
C694 C702 1.574 . S
C694 C710 1.368 . S
H695 C703 0.950 . S
H696 C701 0.950 . S
H697 C702 0.949 . S
H698 C704 0.950 . S
H699 C705 0.950 . S
H700 C706 0.949 . S
C701 H696 0.950 . S
C701 C703 1.327 . S
C701 C707 1.429 . S
C702 C694 1.574 . S
C702 H697 0.949 . S
C702 C708 1.368 . S
C703 C687 1.349 . S
C703 H695 0.950 . S
C703 C701 1.327 . S
C704 C692 1.349 . S
C704 H698 0.950 . S
C704 C705 1.327 . S
C705 H699 0.950 . S
C705 C704 1.327 . S
C705 C709 1.429 . S
C706 C689 1.574 . S
C706 H700 0.949 . S
C706 C710 1.368 . S
C707 C688 1.429 . S
C707 C701 1.429 . S
C707 C708 1.523 . S
C708 C689 1.368 . S
C708 C702 1.368 . S
C708 C707 1.523 . S
C709 C693 1.429 . S
C709 C705 1.429 . S
C709 C710 1.523 . S
C710 C694 1.368 . S
C710 C706 1.368 . S
C710 C709 1.523 . S
H711 C686 0.950 . S
H712 C688 0.950 . S
H713 C689 0.949 . S
H714 C691 0.950 . S
H715 C693 0.950 . S
C716 C717 1.349 . S
C716 C718 1.327 . S
C716 H741 0.950 . S
C717 C716 1.349 . S
C717 C733 1.349 . S
C718 C716 1.327 . S
C718 C737 1.429 . S
C718 H742 0.950 . S
C719 C736 1.574 . S
C719 C738 1.368 . S
C719 H743 0.949 . S
H720 C724 0.949 . S
C721 C722 1.349 . S
C721 C723 1.327 . S
C721 H744 0.950 . S
C722 C721 1.349 . S
C722 C734 1.349 . S
C723 C721 1.327 . S
C723 C739 1.429 . S
C723 H745 0.950 . S
C724 H720 0.949 . S
C724 C732 1.574 . S
C724 C740 1.368 . S
H725 C733 0.950 . S
H726 C731 0.950 . S
H727 C732 0.949 . S
H728 C734 0.950 . S
H729 C735 0.950 . S
H730 C736 0.949 . S
C731 H726 0.950 . S
C731 C733 1.327 . S
C731 C737 1.429 . S
C732 C724 1.574 . S
C732 H727 0.949 . S
C732 C738 1.368 . S
C733 C717 1.349 . S
C733 H725 0.950 . S
C733 C731 1.327 . S
C734 C722 1.349 . S
C734 H728 0.950 . S
C734 C735 1.327 . S
C735 H729 0.950 . S
C735 C734 1.327 . S
C735 C739 1.429 . S
C736 C719 1.574 . S
C736 H730 0.949 . S
C736 C740 1.368 . S
C737 C718 1.429 . S
C737 C731 1.429 . S
C737 C738 1.523 . S
C738 C719 1.368 . S
C738 C732 1.368 . S
C738 C737 1.523 . S
C739 C723 1.429 . S
C739 C735 1.429 . S
C739 C740 1.523 . S
C740 C724 1.368 . S
C740 C736 1.368 . S
C740 C739 1.523 . S
H741 C716 0.950 . S
H742 C718 0.950 . S
H743 C719 0.949 . S
H744 C721 0.950 . S
H745 C723 0.950 . S
C746 C747 1.349 . S
C746 C748 1.327 . S
C746 H771 0.950 . S
C747 C746 1.349 . S
C747 C763 1.349 . S
C748 C746 1.327 . S
C748 C767 1.429 . S
C748 H772 0.950 . S
C749 C766 1.574 . S
C749 C768 1.368 . S
C749 H773 0.949 . S
H750 C754 0.949 . S
C751 C752 1.349 . S
C751 C753 1.327 . S
C751 H774 0.950 . S
C752 C751 1.349 . S
C752 C764 1.349 . S
C753 C751 1.327 . S
C753 C769 1.429 . S
C753 H775 0.950 . S
C754 H750 0.949 . S
C754 C762 1.574 . S
C754 C770 1.368 . S
H755 C763 0.950 . S
H756 C761 0.950 . S
H757 C762 0.949 . S
H758 C764 0.950 . S
H759 C765 0.950 . S
H760 C766 0.949 . S
C761 H756 0.950 . S
C761 C763 1.327 . S
C761 C767 1.429 . S
C762 C754 1.574 . S
C762 H757 0.949 . S
C762 C768 1.368 . S
C763 C747 1.349 . S
C763 H755 0.950 . S
C763 C761 1.327 . S
C764 C752 1.349 . S
C764 H758 0.950 . S
C764 C765 1.327 . S
C765 H759 0.950 . S
C765 C764 1.327 . S
C765 C769 1.429 . S
C766 C749 1.574 . S
C766 H760 0.949 . S
C766 C770 1.368 . S
C767 C748 1.429 . S
C767 C761 1.429 . S
C767 C768 1.523 . S
C768 C749 1.368 . S
C768 C762 1.368 . S
C768 C767 1.523 . S
C769 C753 1.429 . S
C769 C765 1.429 . S
C769 C770 1.523 . S
C770 C754 1.368 . S
C770 C766 1.368 . S
C770 C769 1.523 . S
H771 C746 0.950 . S
H772 C748 0.950 . S
H773 C749 0.949 . S
H774 C751 0.950 . S
H775 C753 0.950 . S
C776 C777 1.349 . S
C776 C778 1.327 . S
C776 H801 0.950 . S
C777 C776 1.349 . S
C777 C793 1.349 . S
C778 C776 1.327 . S
C778 C797 1.429 . S
C778 H802 0.950 . S
C779 C796 1.574 . S
C779 C798 1.368 . S
C779 H803 0.949 . S
H780 C784 0.949 . S
C781 C782 1.349 . S
C781 C783 1.327 . S
C781 H804 0.950 . S
C782 C781 1.349 . S
C782 C794 1.349 . S
C783 C781 1.327 . S
C783 C799 1.429 . S
C783 H805 0.950 . S
C784 H780 0.949 . S
C784 C792 1.574 . S
C784 C800 1.368 . S
H785 C793 0.950 . S
H786 C791 0.950 . S
H787 C792 0.949 . S
H788 C794 0.950 . S
H789 C795 0.950 . S
H790 C796 0.949 . S
C791 H786 0.950 . S
C791 C793 1.327 . S
C791 C797 1.429 . S
C792 C784 1.574 . S
C792 H787 0.949 . S
C792 C798 1.368 . S
C793 C777 1.349 . S
C793 H785 0.950 . S
C793 C791 1.327 . S
C794 C782 1.349 . S
C794 H788 0.950 . S
C794 C795 1.327 . S
C795 H789 0.950 . S
C795 C794 1.327 . S
C795 C799 1.429 . S
C796 C779 1.574 . S
C796 H790 0.949 . S
C796 C800 1.368 . S
C797 C778 1.429 . S
C797 C791 1.429 . S
C797 C798 1.523 . S
C798 C779 1.368 . S
C798 C792 1.368 . S
C798 C797 1.523 . S
C799 C783 1.429 . S
C799 C795 1.429 . S
C799 C800 1.523 . S
C800 C784 1.368 . S
C800 C796 1.368 . S
C800 C799 1.523 . S
H801 C776 0.950 . S
H802 C778 0.950 . S
H803 C779 0.949 . S
H804 C781 0.950 . S
H805 C783 0.950 . S
C806 C807 1.349 . S
C806 C808 1.327 . S
C806 H831 0.950 . S
C807 C806 1.349 . S
C807 C823 1.349 . S
C808 C806 1.327 . S
C808 C827 1.429 . S
C808 H832 0.950 . S
C809 C826 1.574 . S
C809 C828 1.368 . S
C809 H833 0.949 . S
H810 C814 0.949 . S
C811 C812 1.349 . S
C811 C813 1.327 . S
C811 H834 0.950 . S
C812 C811 1.349 . S
C812 C824 1.349 . S
C813 C811 1.327 . S
C813 C829 1.429 . S
C813 H835 0.950 . S
C814 H810 0.949 . S
C814 C822 1.574 . S
C814 C830 1.368 . S
H815 C823 0.950 . S
H816 C821 0.950 . S
H817 C822 0.949 . S
H818 C824 0.950 . S
H819 C825 0.950 . S
H820 C826 0.949 . S
C821 H816 0.950 . S
C821 C823 1.327 . S
C821 C827 1.429 . S
C822 C814 1.574 . S
C822 H817 0.949 . S
C822 C828 1.368 . S
C823 C807 1.349 . S
C823 H815 0.950 . S
C823 C821 1.327 . S
C824 C812 1.349 . S
C824 H818 0.950 . S
C824 C825 1.327 . S
C825 H819 0.950 . S
C825 C824 1.327 . S
C825 C829 1.429 . S
C826 C809 1.574 . S
C826 H820 0.949 . S
C826 C830 1.368 . S
C827 C808 1.429 . S
C827 C821 1.429 . S
C827 C828 1.523 . S
C828 C809 1.368 . S
C828 C822 1.368 . S
C828 C827 1.523 . S
C829 C813 1.429 . S
C829 C825 1.429 . S
C829 C830 1.523 . S
C830 C814 1.368 . S
C830 C826 1.368 . S
C830 C829 1.523 . S
H831 C806 0.950 . S
H832 C808 0.950 . S
H833 C809 0.949 . S
H834 C811 0.950 . S
H835 C813 0.950 . S
C836 C837 1.349 . S
C836 C838 1.327 . S
C836 H861 0.950 . S
C837 C836 1.349 . S
C837 C853 1.349 . S
C838 C836 1.327 . S
C838 C857 1.429 . S
C838 H862 0.950 . S
C839 C856 1.574 . S
C839 C858 1.368 . S
C839 H863 0.949 . S
H840 C844 0.949 . S
C841 C842 1.349 . S
C841 C843 1.327 . S
C841 H864 0.950 . S
C842 C841 1.349 . S
C842 C854 1.349 . S
C843 C841 1.327 . S
C843 C859 1.429 . S
C843 H865 0.950 . S
C844 H840 0.949 . S
C844 C852 1.574 . S
C844 C860 1.368 . S
H845 C853 0.950 . S
H846 C851 0.950 . S
H847 C852 0.949 . S
H848 C854 0.950 . S
H849 C855 0.950 . S
H850 C856 0.949 . S
C851 H846 0.950 . S
C851 C853 1.327 . S
C851 C857 1.429 . S
C852 C844 1.574 . S
C852 H847 0.949 . S
C852 C858 1.368 . S
C853 C837 1.349 . S
C853 H845 0.950 . S
C853 C851 1.327 . S
C854 C842 1.349 . S
C854 H848 0.950 . S
C854 C855 1.327 . S
C855 H849 0.950 . S
C855 C854 1.327 . S
C855 C859 1.429 . S
C856 C839 1.574 . S
C856 H850 0.949 . S
C856 C860 1.368 . S
C857 C838 1.429 . S
C857 C851 1.429 . S
C857 C858 1.523 . S
C858 C839 1.368 . S
C858 C852 1.368 . S
C858 C857 1.523 . S
C859 C843 1.429 . S
C859 C855 1.429 . S
C859 C860 1.523 . S
C860 C844 1.368 . S
C860 C856 1.368 . S
C860 C859 1.523 . S
H861 C836 0.950 . S
H862 C838 0.950 . S
H863 C839 0.949 . S
H864 C841 0.950 . S
H865 C843 0.950 . S
C866 C867 1.349 . S
C866 C868 1.327 . S
C866 H891 0.950 . S
C867 C866 1.349 . S
C867 C883 1.349 . S
C868 C866 1.327 . S
C868 C887 1.429 . S
C868 H892 0.950 . S
C869 C886 1.574 . S
C869 C888 1.368 . S
C869 H893 0.949 . S
H870 C874 0.949 . S
C871 C872 1.349 . S
C871 C873 1.327 . S
C871 H894 0.950 . S
C872 C871 1.349 . S
C872 C884 1.349 . S
C873 C871 1.327 . S
C873 C889 1.429 . S
C873 H895 0.950 . S
C874 H870 0.949 . S
C874 C882 1.574 . S
C874 C890 1.368 . S
H875 C883 0.950 . S
H876 C881 0.950 . S
H877 C882 0.949 . S
H878 C884 0.950 . S
H879 C885 0.950 . S
H880 C886 0.949 . S
C881 H876 0.950 . S
C881 C883 1.327 . S
C881 C887 1.429 . S
C882 C874 1.574 . S
C882 H877 0.949 . S
C882 C888 1.368 . S
C883 C867 1.349 . S
C883 H875 0.950 . S
C883 C881 1.327 . S
C884 C872 1.349 . S
C884 H878 0.950 . S
C884 C885 1.327 . S
C885 H879 0.950 . S
C885 C884 1.327 . S
C885 C889 1.429 . S
C886 C869 1.574 . S
C886 H880 0.949 . S
C886 C890 1.368 . S
C887 C868 1.429 . S
C887 C881 1.429 . S
C887 C888 1.523 . S
C888 C869 1.368 . S
C888 C882 1.368 . S
C888 C887 1.523 . S
C889 C873 1.429 . S
C889 C885 1.429 . S
C889 C890 1.523 . S
C890 C874 1.368 . S
C890 C886 1.368 . S
C890 C889 1.523 . S
H891 C866 0.950 . S
H892 C868 0.950 . S
H893 C869 0.949 . S
H894 C871 0.950 . S
H895 C873 0.950 . S
C177 C7 1.460 . S
C182 C97 1.460 . S
C207 C119 1.460 . S
C212 C29 1.462 . S
C237 C49 1.460 . S
C242 C138 1.460 . S
C267 C71 1.460 . S
C272 C160 1.462 . S
C297 C73 1.460 . S
C302 C163 1.458 . S
C327 C116 1.460 . S
C332 C27 1.458 . S
C357 C141 1.460 . S
C362 C51 1.460 . S
C387 C5 1.460 . S
C392 C94 1.460 . S
C417 C115 1.503 . S
C422 C4 1.502 . S
C447 C26 1.503 . S
C452 C140 1.502 . S
C477 C162 1.503 . S
C482 C53 1.502 . S
C507 C93 1.503 . S
C512 C75 1.501 . S
C537 C92 1.503 . S
C542 C72 1.506 . S
C567 C158 1.503 . S
C572 C52 1.505 . S
C597 C30 1.503 . S
C602 C139 1.505 . S
C627 C117 1.503 . S
C632 C6 1.505 . S
C657 C159 1.503 . S
C662 C48 1.505 . S
C687 C96 1.503 . S
C692 C70 1.506 . S
C717 C118 1.503 . S
C722 C9 1.505 . S
C747 C31 1.503 . S
C752 C137 1.505 . S
C777 C136 1.503 . S
C782 C28 1.501 . S
C807 C8 1.503 . S
C812 C114 1.501 . S
C837 C95 1.503 . S
C842 C74 1.501 . S
C867 C161 1.503 . S
C872 C50 1.502 . S
