# Generated by pormake.
# Topology atn, (4)-cn, num edge types: 1
# Building blocks:
#     Node 0, Type 0, BuildingBlock: QUQFOY_clean_sbu_1, # of connection points: 4
#     Node 1, Type 0, BuildingBlock: QUQFOY_clean_sbu_1, # of connection points: 4
#     Node 2, Type 0, BuildingBlock: QUQFOY_clean_sbu_1, # of connection points: 4
#     Node 3, Type 0, BuildingBlock: QUQFOY_clean_sbu_1, # of connection points: 4
#     Node 4, Type 0, BuildingBlock: QUQFOY_clean_sbu_1, # of connection points: 4
#     Node 5, Type 0, BuildingBlock: QUQFOY_clean_sbu_1, # of connection points: 4
#     Node 6, Type 0, BuildingBlock: QUQFOY_clean_sbu_1, # of connection points: 4
#     Node 7, Type 0, BuildingBlock: QUQFOY_clean_sbu_1, # of connection points: 4
#     Node 8, Type 0, BuildingBlock: QUQFOY_clean_sbu_1, # of connection points: 4
#     Node 9, Type 0, BuildingBlock: QUQFOY_clean_sbu_1, # of connection points: 4
#     Node 10, Type 0, BuildingBlock: QUQFOY_clean_sbu_1, # of connection points: 4
#     Node 11, Type 0, BuildingBlock: QUQFOY_clean_sbu_1, # of connection points: 4
#     Node 12, Type 0, BuildingBlock: QUQFOY_clean_sbu_1, # of connection points: 4
#     Node 13, Type 0, BuildingBlock: QUQFOY_clean_sbu_1, # of connection points: 4
#     Node 14, Type 0, BuildingBlock: QUQFOY_clean_sbu_1, # of connection points: 4
#     Node 15, Type 0, BuildingBlock: QUQFOY_clean_sbu_1, # of connection points: 4
#     Edge 16, Type (0, 0), BuildingBlock: KIFKEQ_clean_linker_1, # of connection points: 2
#     Edge 17, Type (0, 0), BuildingBlock: KIFKEQ_clean_linker_1, # of connection points: 2
#     Edge 18, Type (0, 0), BuildingBlock: KIFKEQ_clean_linker_1, # of connection points: 2
#     Edge 19, Type (0, 0), BuildingBlock: KIFKEQ_clean_linker_1, # of connection points: 2
#     Edge 20, Type (0, 0), BuildingBlock: KIFKEQ_clean_linker_1, # of connection points: 2
#     Edge 21, Type (0, 0), BuildingBlock: KIFKEQ_clean_linker_1, # of connection points: 2
#     Edge 22, Type (0, 0), BuildingBlock: KIFKEQ_clean_linker_1, # of connection points: 2
#     Edge 23, Type (0, 0), BuildingBlock: KIFKEQ_clean_linker_1, # of connection points: 2
#     Edge 24, Type (0, 0), BuildingBlock: KIFKEQ_clean_linker_1, # of connection points: 2
#     Edge 25, Type (0, 0), BuildingBlock: KIFKEQ_clean_linker_1, # of connection points: 2
#     Edge 26, Type (0, 0), BuildingBlock: KIFKEQ_clean_linker_1, # of connection points: 2
#     Edge 27, Type (0, 0), BuildingBlock: KIFKEQ_clean_linker_1, # of connection points: 2
#     Edge 28, Type (0, 0), BuildingBlock: KIFKEQ_clean_linker_1, # of connection points: 2
#     Edge 29, Type (0, 0), BuildingBlock: KIFKEQ_clean_linker_1, # of connection points: 2
#     Edge 30, Type (0, 0), BuildingBlock: KIFKEQ_clean_linker_1, # of connection points: 2
#     Edge 31, Type (0, 0), BuildingBlock: KIFKEQ_clean_linker_1, # of connection points: 2
#     Edge 32, Type (0, 0), BuildingBlock: KIFKEQ_clean_linker_1, # of connection points: 2
#     Edge 33, Type (0, 0), BuildingBlock: KIFKEQ_clean_linker_1, # of connection points: 2
#     Edge 34, Type (0, 0), BuildingBlock: KIFKEQ_clean_linker_1, # of connection points: 2
#     Edge 35, Type (0, 0), BuildingBlock: KIFKEQ_clean_linker_1, # of connection points: 2
#     Edge 36, Type (0, 0), BuildingBlock: KIFKEQ_clean_linker_1, # of connection points: 2
#     Edge 37, Type (0, 0), BuildingBlock: KIFKEQ_clean_linker_1, # of connection points: 2
#     Edge 38, Type (0, 0), BuildingBlock: KIFKEQ_clean_linker_1, # of connection points: 2
#     Edge 39, Type (0, 0), BuildingBlock: KIFKEQ_clean_linker_1, # of connection points: 2
#     Edge 40, Type (0, 0), BuildingBlock: KIFKEQ_clean_linker_1, # of connection points: 2
#     Edge 41, Type (0, 0), BuildingBlock: KIFKEQ_clean_linker_1, # of connection points: 2
#     Edge 42, Type (0, 0), BuildingBlock: KIFKEQ_clean_linker_1, # of connection points: 2
#     Edge 43, Type (0, 0), BuildingBlock: KIFKEQ_clean_linker_1, # of connection points: 2
#     Edge 44, Type (0, 0), BuildingBlock: KIFKEQ_clean_linker_1, # of connection points: 2
#     Edge 45, Type (0, 0), BuildingBlock: KIFKEQ_clean_linker_1, # of connection points: 2
#     Edge 46, Type (0, 0), BuildingBlock: KIFKEQ_clean_linker_1, # of connection points: 2
#     Edge 47, Type (0, 0), BuildingBlock: KIFKEQ_clean_linker_1, # of connection points: 2
# Relax obj value: 0.049
# Max RMSD: 0.085
# Mean RMSD: 0.085
data_MOF--net-atn--node1-QUQFOY_clean_sbu_1--edge1-KIFKEQ_clean_linker_1
_symmetry_space_group_name_H-M    P1
_symmetry_Int_Tables_number       1
_symmetry_cell_setting            triclinic
loop_
_symmetry_equiv_pos_as_xyz
'x, y, z'
_cell_length_a     63.083867
_cell_length_b     63.096366
_cell_length_c     28.765446
_cell_angle_alpha  90.002504
_cell_angle_beta   90.030717
_cell_angle_gamma 90.000387
loop_
_atom_site_label
_atom_site_type_symbol
_atom_site_fract_x
_atom_site_fract_y
_atom_site_fract_z
_atom_type_partial_charge
O0 O 0.19342 0.38203 0.11839 0.0
Cd1 Cd 0.21338 0.38761 0.06326 0.0
Cd2 Cd 0.18743 0.35843 0.02278 0.0
O3 O 0.1706 0.36049 0.08452 0.0
O4 O 0.22797 0.41425 0.08186 0.0
O5 O 0.20712 0.41193 0.02019 0.0
C6 C 0.21877 0.42341 0.04727 0.0
C7 C 0.17106 0.3604 0.94982 0.0
C8 C 0.17672 0.37083 0.12006 0.0
C9 C 0.23355 0.34672 0.03582 0.0
O10 O 0.21499 0.34086 0.02437 0.0
O11 O 0.23681 0.36546 0.05048 0.0
O12 O 0.16905 0.34393 0.97602 0.0
O13 O 0.18164 0.37632 0.96606 0.0
O14 O 0.62598 0.19792 0.11766 0.0
Cd15 Cd 0.61905 0.21464 0.05829 0.0
Cd16 Cd 0.64694 0.1874 0.02162 0.0
O17 O 0.64373 0.17179 0.08488 0.0
O18 O 0.5922 0.22987 0.07238 0.0
O19 O 0.59465 0.20463 1.01915 0.0
C20 C 0.58309 0.218 0.04186 0.0
C21 C 0.64449 0.17032 0.94952 0.0
C22 C 0.63547 0.18022 0.1208 0.0
C23 C 0.65963 0.23346 0.02718 0.0
O24 O 0.66557 0.21439 0.02122 0.0
O25 O 0.6406 0.23747 0.03863 0.0
O26 O 0.66075 0.16782 0.97618 0.0
O27 O 0.62897 0.18169 0.965 0.0
O28 O 0.80721 0.62469 0.11739 0.0
Cd29 Cd 0.79069 0.61812 0.05758 0.0
Cd30 Cd 0.81834 0.64584 0.02196 0.0
O31 O 0.83389 0.64181 0.08516 0.0
O32 O 0.7752 0.59133 0.07088 0.0
O33 O 0.80078 0.59379 1.01843 0.0
C34 C 0.78725 0.58223 0.04067 0.0
C35 C 0.83524 0.64364 0.94961 0.0
C36 C 0.82516 0.63368 0.12087 0.0
C37 C 0.77244 0.65906 0.02742 0.0
O38 O 0.79161 0.66484 0.02224 0.0
O39 O 0.76816 0.63996 0.03782 0.0
O40 O 0.83809 0.65965 0.97681 0.0
O41 O 0.82366 0.6282 0.96469 0.0
O42 O 0.38121 0.80792 0.11737 0.0
Cd43 Cd 0.3882 0.79035 0.05927 0.0
Cd44 Cd 0.36013 0.81755 0.02127 0.0
O45 O 0.36296 0.83358 0.08421 0.0
O46 O 0.41504 0.77583 0.07668 0.0
O47 O 0.41274 0.79883 1.01879 0.0
C48 C 0.42426 0.78651 0.04429 0.0
C49 C 0.36212 0.83449 0.94885 0.0
C50 C 0.37146 0.82547 0.12022 0.0
C51 C 0.34778 0.77121 0.02848 0.0
O52 O 0.34195 0.79023 0.02123 0.0
O53 O 0.36669 0.76725 0.04105 0.0
O54 O 0.34586 0.83671 0.97558 0.0
O55 O 0.37789 0.82348 0.96438 0.0
O56 O 0.19364 0.62394 0.94268 0.0
Cd57 Cd 0.21351 0.61817 0.99795 0.0
Cd58 Cd 0.1876 0.64742 0.0384 0.0
O59 O 0.17085 0.64551 0.97651 0.0
O60 O 0.22802 0.59152 0.97924 0.0
O61 O 0.2071 0.59379 0.04075 0.0
C62 C 0.21875 0.58233 1.01369 0.0
C63 C 0.17112 0.64549 0.1112 0.0
C64 C 0.17698 0.6352 0.94094 0.0
C65 C 0.23381 0.65892 0.02595 0.0
O66 O 0.21525 0.66486 0.03717 0.0
O67 O 0.23701 0.64019 1.01124 0.0
O68 O 0.16923 0.66198 0.08504 0.0
O69 O 0.18163 0.62953 0.095 0.0
O70 O 0.38089 0.19948 0.94144 0.0
Cd71 Cd 0.38787 0.21573 1.00142 0.0
Cd72 Cd 0.36016 0.18816 0.03727 0.0
O73 O 0.3637 0.17285 0.97368 0.0
O74 O 0.41481 0.23096 0.98807 0.0
O75 O 0.41219 0.20524 0.04015 0.0
C76 C 0.42384 0.21874 1.01805 0.0
C77 C 0.36249 0.17089 0.1092 0.0
C78 C 0.37171 0.18163 0.93789 0.0
C79 C 0.3473 0.2342 0.03319 0.0
O80 O 0.3414 0.21506 0.0381 0.0
O81 O 0.36636 0.23838 0.02222 0.0
O82 O 0.34634 0.16833 0.08223 0.0
O83 O 0.37799 0.18238 0.09408 0.0
O84 O 0.81114 0.38194 0.94177 0.0
Cd85 Cd 0.79259 0.38743 0.99926 0.0
Cd86 Cd 0.81901 0.35851 0.03715 0.0
O87 O 0.83511 0.36134 0.97466 0.0
O88 O 0.77725 0.41419 0.98485 0.0
O89 O 0.80106 0.41147 0.04111 0.0
C90 C 0.78816 0.42311 1.0173 0.0
C91 C 0.83574 0.36079 0.10959 0.0
C92 C 0.82818 0.37128 0.93928 0.0
C93 C 0.77304 0.34633 0.02737 0.0
O94 O 0.79184 0.34035 0.03639 0.0
O95 O 0.76947 0.36528 1.0145 0.0
O96 O 0.83808 0.34443 0.08316 0.0
O97 O 0.82466 0.37645 0.09376 0.0
O98 O 0.62587 0.81098 0.94201 0.0
Cd99 Cd 0.61935 0.79259 0.99908 0.0
Cd100 Cd 0.64786 0.81924 0.0377 0.0
O101 O 0.64506 0.83584 0.97556 0.0
O102 O 0.59269 0.77796 0.98078 0.0
O103 O 0.59474 0.80003 0.04041 0.0
C104 C 0.58336 0.78796 1.01404 0.0
C105 C 0.64579 0.83566 0.11064 0.0
C106 C 0.636 0.82833 0.93959 0.0
C107 C 0.66004 0.77302 0.02751 0.0
O108 O 0.66596 0.79188 0.03631 0.0
O109 O 0.6411 0.76933 1.0148 0.0
O110 O 0.66213 0.83798 0.08417 0.0
O111 O 0.63003 0.82477 0.09464 0.0
O112 O 0.69907 0.8813 0.61693 0.0
Cd113 Cd 0.71554 0.88775 0.55704 0.0
Cd114 Cd 0.68794 0.85997 0.52177 0.0
O115 O 0.6724 0.86408 0.58489 0.0
O116 O 0.73097 0.9146 0.57011 0.0
O117 O 0.7054 0.91199 0.51763 0.0
C118 C 0.71891 0.92362 0.53979 0.0
C119 C 0.67107 0.86222 0.44939 0.0
C120 C 0.68114 0.87229 0.62052 0.0
C121 C 0.73385 0.8468 0.5273 0.0
O122 O 0.71469 0.84097 0.52219 0.0
O123 O 0.7381 0.86592 0.53751 0.0
O124 O 0.6682 0.8462 0.47654 0.0
O125 O 0.68268 0.87764 0.46455 0.0
O126 O 0.12386 0.69416 0.61807 0.0
Cd127 Cd 0.11812 0.71387 0.56256 0.0
Cd128 Cd 0.1472 0.68778 0.52238 0.0
O129 O 0.14518 0.67111 0.58433 0.0
O130 O 0.09142 0.72839 0.58098 0.0
O131 O 0.09378 0.70728 0.51975 0.0
C132 C 0.08227 0.71897 0.54666 0.0
C133 C 0.1452 0.67128 0.4496 0.0
C134 C 0.13497 0.6774 0.6199 0.0
C135 C 0.15892 0.73396 0.53446 0.0
O136 O 0.16478 0.71533 0.52354 0.0
O137 O 0.14018 0.7373 0.549 0.0
O138 O 0.16167 0.6693 0.47582 0.0
O139 O 0.12928 0.68188 0.46575 0.0
O140 O 0.30971 0.12606 0.61612 0.0
Cd141 Cd 0.29183 0.11887 0.55855 0.0
Cd142 Cd 0.31864 0.14713 0.51971 0.0
O143 O 0.33486 0.14481 0.58247 0.0
O144 O 0.27746 0.09208 0.5768 0.0
O145 O 0.30005 0.0942 0.51815 0.0
C146 C 0.2879 0.08276 0.54419 0.0
C147 C 0.33555 0.145 0.44731 0.0
C148 C 0.32709 0.13616 0.61863 0.0
C149 C 0.27222 0.15908 0.52757 0.0
O150 O 0.29114 0.16502 0.51961 0.0
O151 O 0.26849 0.14022 0.54075 0.0
O152 O 0.33758 0.16142 0.47367 0.0
O153 O 0.32472 0.12919 0.46318 0.0
O154 O 0.88189 0.31322 0.61715 0.0
Cd155 Cd 0.88755 0.29293 0.56263 0.0
Cd156 Cd 0.85848 0.31866 0.52115 0.0
O157 O 0.86023 0.3357 0.5826 0.0
O158 O 0.91413 0.2784 0.58185 0.0
O159 O 0.91195 0.29888 0.5196 0.0
C160 C 0.92336 0.28737 0.54707 0.0
C161 C 0.86064 0.33492 0.44816 0.0
C162 C 0.87058 0.32985 0.61834 0.0
C163 C 0.84671 0.27263 0.53505 0.0
O164 O 0.84092 0.29111 0.52288 0.0
O165 O 0.86538 0.26946 0.55024 0.0
O166 O 0.84407 0.33688 0.47404 0.0
O167 O 0.87653 0.3244 0.4647 0.0
O168 O 0.69841 0.12604 0.44319 0.0
Cd169 Cd 0.715 0.11889 0.50265 0.0
Cd170 Cd 0.68767 0.1467 0.5394 0.0
O171 O 0.67213 0.14354 0.47602 0.0
O172 O 0.73028 0.09212 0.48811 0.0
O173 O 0.70491 0.09431 0.54107 0.0
C174 C 0.71833 0.08286 0.51825 0.0
C175 C 0.67049 0.14423 0.61135 0.0
C176 C 0.68065 0.13544 0.44005 0.0
C177 C 0.73377 0.15933 0.53466 0.0
O178 O 0.71468 0.16529 0.54019 0.0
O179 O 0.7378 0.14031 0.52317 0.0
O180 O 0.66804 0.1605 0.58472 0.0
O181 O 0.68186 0.12871 0.59591 0.0
O182 O 0.88073 0.69521 0.44222 0.0
Cd183 Cd 0.88726 0.71364 0.49926 0.0
Cd184 Cd 0.8588 0.68691 0.53804 0.0
O185 O 0.86159 0.67035 0.47583 0.0
O186 O 0.9139 0.72834 0.48111 0.0
O187 O 0.91187 0.70624 0.54067 0.0
C188 C 0.92324 0.71836 0.51441 0.0
C189 C 0.86079 0.67045 0.61098 0.0
C190 C 0.87061 0.67786 0.43984 0.0
C191 C 0.84653 0.73312 0.52777 0.0
O192 O 0.84068 0.71425 0.53666 0.0
O193 O 0.86545 0.73684 0.51496 0.0
O194 O 0.84448 0.66815 0.58438 0.0
O195 O 0.87657 0.68134 0.59511 0.0
O196 O 0.30886 0.88046 0.44211 0.0
Cd197 Cd 0.29127 0.88755 0.50013 0.0
Cd198 Cd 0.31834 0.85933 0.53824 0.0
O199 O 0.33439 0.86204 0.47532 0.0
O200 O 0.2768 0.91437 0.48245 0.0
O201 O 0.29973 0.91214 0.54052 0.0
C202 C 0.28745 0.92363 0.51485 0.0
C203 C 0.33531 0.86126 0.61066 0.0
C204 C 0.32635 0.8706 0.4393 0.0
C205 C 0.27192 0.84724 0.53096 0.0
O206 O 0.29091 0.84131 0.53829 0.0
O207 O 0.26806 0.86614 0.5183 0.0
O208 O 0.33743 0.84497 0.58394 0.0
O209 O 0.32438 0.87708 0.59511 0.0
O210 O 0.12372 0.31199 0.44275 0.0
Cd211 Cd 0.11812 0.29216 0.49812 0.0
Cd212 Cd 0.14723 0.31827 0.53836 0.0
O213 O 0.14509 0.335 0.47651 0.0
O214 O 0.09149 0.27752 0.47966 0.0
O215 O 0.09378 0.29855 0.54101 0.0
C216 C 0.08231 0.28683 0.51407 0.0
C217 C 0.14526 0.3347 0.61122 0.0
C218 C 0.13482 0.32876 0.44097 0.0
C219 C 0.15903 0.27214 0.52591 0.0
O220 O 0.16487 0.29076 0.53696 0.0
O221 O 0.14028 0.26879 0.51141 0.0
O222 O 0.16171 0.33673 0.58498 0.0
O223 O 0.12936 0.32408 0.59506 0.0
H224 H 0.20638 0.55855 0.08861 0.0
H225 H 0.23479 0.55362 0.95235 0.0
H226 H 0.20751 0.51991 0.09614 0.0
H227 H 0.2357 0.51512 0.95985 0.0
H228 H 0.20639 0.44715 0.97224 0.0
H229 H 0.2075 0.48578 0.96463 0.0
H230 H 0.23577 0.49063 0.1009 0.0
H231 H 0.23488 0.45214 0.10848 0.0
C232 C 0.21297 0.54925 0.06045 0.0
C233 C 0.22052 0.55913 0.01995 0.0
C234 C 0.21366 0.52717 0.0648 0.0
C235 C 0.22162 0.51457 0.02846 0.0
C236 C 0.22931 0.52446 0.98818 0.0
C237 C 0.22891 0.54651 0.9841 0.0
C238 C 0.213 0.45646 1.00037 0.0
C239 C 0.22057 0.4466 0.0409 0.0
C240 C 0.21368 0.47853 0.99598 0.0
C241 C 0.22164 0.49115 0.0323 0.0
C242 C 0.22938 0.48128 0.07259 0.0
C243 C 0.22899 0.45924 0.07671 0.0
H244 H 0.45076 0.25057 0.99337 0.0
H245 H 0.4494 0.18839 0.05621 0.0
H246 H 0.48943 0.25071 0.99804 0.0
H247 H 0.48818 0.18848 0.06028 0.0
H248 H 0.55729 0.18818 1.00243 0.0
H249 H 0.51852 0.18862 0.99832 0.0
H250 H 0.51776 0.25032 0.0631 0.0
H251 H 0.55642 0.24982 0.06781 0.0
C252 C 0.45872 0.23699 1.00845 0.0
C253 C 0.44707 0.21948 0.02451 0.0
C254 C 0.48082 0.2371 1.01113 0.0
C255 C 0.49174 0.21955 0.02921 0.0
C256 C 0.48012 0.20212 0.04575 0.0
C257 C 0.45796 0.20215 0.0438 0.0
C258 C 0.54885 0.20191 1.01539 0.0
C259 C 0.55987 0.21897 0.03541 0.0
C260 C 0.52669 0.20207 1.01341 0.0
C261 C 0.5152 0.21945 0.03066 0.0
C262 C 0.52625 0.23676 0.04946 0.0
C263 C 0.54836 0.23644 0.05217 0.0
H264 H 0.81716 0.44888 0.05951 0.0
H265 H 0.75646 0.44964 0.98993 0.0
H266 H 0.81656 0.48765 0.06366 0.0
H267 H 0.75577 0.4883 0.9948 0.0
H268 H 0.75508 0.55556 0.06456 0.0
H269 H 0.75478 0.51687 0.06039 0.0
H270 H 0.81741 0.51768 1.00011 0.0
H271 H 0.81764 0.55646 1.00355 0.0
C272 C 0.80358 0.4573 0.04574 0.0
C273 C 0.78685 0.44626 0.02442 0.0
C274 C 0.80333 0.47945 0.04774 0.0
C275 C 0.78618 0.4909 0.02925 0.0
C276 C 0.76915 0.47983 1.00936 0.0
C277 C 0.76956 0.45773 1.00658 0.0
C278 C 0.7687 0.5475 0.04998 0.0
C279 C 0.78637 0.55902 0.03429 0.0
C280 C 0.7685 0.52538 0.04761 0.0
C281 C 0.78613 0.51435 0.03028 0.0
C282 C 0.80371 0.52585 1.01406 0.0
C283 C 0.80375 0.548 1.01564 0.0
H284 H 0.55934 0.80061 0.08837 0.0
H285 H 0.55482 0.77222 0.952 0.0
H286 H 0.52065 0.79951 0.09527 0.0
H287 H 0.51627 0.77143 0.95878 0.0
H288 H 0.44812 0.8006 0.97101 0.0
H289 H 0.48682 0.80021 0.96418 0.0
H290 H 0.49157 0.77026 0.09867 0.0
H291 H 0.45301 0.77035 0.10537 0.0
C292 C 0.55012 0.79407 0.06003 0.0
C293 C 0.56012 0.78645 0.01973 0.0
C294 C 0.52802 0.79341 0.064 0.0
C295 C 0.51554 0.78546 0.02744 0.0
C296 C 0.52553 0.77779 0.98728 0.0
C297 C 0.5476 0.77812 0.98361 0.0
C298 C 0.45743 0.79381 0.99893 0.0
C299 C 0.44753 0.78545 0.03863 0.0
C300 C 0.47954 0.79355 0.99498 0.0
C301 C 0.49212 0.78527 0.03101 0.0
C302 C 0.48223 0.77688 0.0706 0.0
C303 C 0.46015 0.77681 0.07421 0.0
H304 H 0.7502 0.05633 0.49191 0.0
H305 H 0.68844 0.05689 0.55678 0.0
H306 H 0.75069 0.01765 0.49573 0.0
H307 H 0.68888 0.01811 0.56 0.0
H308 H 0.68872 0.94923 0.50125 0.0
H309 H 0.68886 0.98801 0.49749 0.0
H310 H 0.75101 0.98909 0.56026 0.0
H311 H 0.75082 0.95043 0.56462 0.0
C312 C 0.73679 0.04819 0.50724 0.0
C313 C 0.71929 0.05962 0.52413 0.0
C314 C 0.7371 0.02608 0.50944 0.0
C315 C 0.71977 0.01495 0.52785 0.0
C316 C 0.70235 0.02635 0.5452 0.0
C317 C 0.70219 0.04851 0.54374 0.0
C318 C 0.70249 0.95775 0.5138 0.0
C319 C 0.71976 0.94682 0.5332 0.0
C320 C 0.70247 0.97991 0.51203 0.0
C321 C 0.71989 0.99148 0.52887 0.0
C322 C 0.73742 0.98053 0.54695 0.0
C323 C 0.73728 0.95842 0.54946 0.0
H324 H 0.95177 0.73485 0.45331 0.0
H325 H 0.94724 0.70518 0.58835 0.0
H326 H 0.99031 0.73576 0.46042 0.0
H327 H 0.98591 0.70634 0.59554 0.0
H328 H 0.05348 0.73457 0.60831 0.0
H329 H 0.01495 0.73511 0.60099 0.0
H330 H 0.01986 0.70742 0.4642 0.0
H331 H 0.05853 0.70661 0.47159 0.0
C332 C 0.95898 0.72869 0.4847 0.0
C333 C 0.94647 0.71996 0.52034 0.0
C334 C 0.98105 0.72909 0.48856 0.0
C335 C 0.99105 0.72108 0.52843 0.0
C336 C 0.97855 0.71273 0.56452 0.0
C337 C 0.95646 0.71203 0.56037 0.0
C338 C 0.04639 0.72872 0.57649 0.0
C339 C 0.05905 0.72056 0.54046 0.0
C340 C 0.02433 0.72891 0.57251 0.0
C341 C 0.01447 0.72124 0.53215 0.0
C342 C 0.0271 0.71353 0.49562 0.0
C343 C 0.0492 0.71303 0.49988 0.0
H344 H 0.30125 0.05872 0.47049 0.0
H345 H 0.27223 0.0542 0.60619 0.0
H346 H 0.30053 0.02002 0.46386 0.0
H347 H 0.27182 0.01563 0.59968 0.0
H348 H 0.30133 0.94758 0.58826 0.0
H349 H 0.30083 0.98629 0.59496 0.0
H350 H 0.27132 0.99085 0.45994 0.0
H351 H 0.27149 0.95229 0.45337 0.0
C352 C 0.29467 0.04949 0.49876 0.0
C353 C 0.28674 0.05949 0.53876 0.0
C354 C 0.29422 0.02739 0.49493 0.0
C355 C 0.28619 0.0149 0.53137 0.0
C356 C 0.27825 0.0249 0.57129 0.0
C357 C 0.27836 0.04697 0.57479 0.0
C358 C 0.29461 0.95685 0.56019 0.0
C359 C 0.28639 0.9469 0.52039 0.0
C360 C 0.2943 0.97896 0.56406 0.0
C361 C 0.28611 0.99149 0.52785 0.0
C362 C 0.27787 0.98154 0.48814 0.0
C363 C 0.27785 0.95947 0.48461 0.0
H364 H 0.05361 0.27051 0.45304 0.0
H365 H 0.05854 0.29947 0.58878 0.0
H366 H 0.0151 0.26968 0.46047 0.0
H367 H 0.01989 0.29843 0.59624 0.0
H368 H 0.95198 0.27145 0.60882 0.0
H369 H 0.99049 0.27036 0.60146 0.0
H370 H 0.98586 0.29796 0.46452 0.0
H371 H 0.94722 0.29927 0.47191 0.0
C372 C 0.04649 0.27652 0.48467 0.0
C373 C 0.05912 0.28505 0.52039 0.0
C374 C 0.02444 0.27616 0.48871 0.0
C375 C 0.01455 0.28405 0.52881 0.0
C376 C 0.02715 0.29213 0.56504 0.0
C377 C 0.04924 0.29277 0.56073 0.0
C378 C 0.95913 0.27715 0.57696 0.0
C379 C 0.94656 0.28544 0.54088 0.0
C380 C 0.98119 0.27665 0.57295 0.0
C381 C 0.99112 0.28413 0.53253 0.0
C382 C 0.97856 0.29197 0.49597 0.0
C383 C 0.95648 0.29276 0.50024 0.0
H384 H 0.27465 0.35191 0.0653 0.0
H385 H 0.2323 0.30624 1.00257 0.0
H386 H 0.30273 0.32525 0.06707 0.0
H387 H 0.26038 0.27989 1.00356 0.0
H388 H 0.30583 0.231 0.05941 0.0
H389 H 0.27917 0.25884 0.06068 0.0
H390 H 0.32613 0.30443 1.01665 0.0
H391 H 0.35302 0.2766 1.01626 0.0
C392 C 0.27138 0.33628 0.0515 0.0
C393 C 0.25117 0.33119 0.03405 0.0
C394 C 0.28749 0.32102 0.05241 0.0
C395 C 0.28373 0.30037 0.03593 0.0
C396 C 0.26368 0.2955 1.01747 0.0
C397 C 0.24761 0.31069 1.01658 0.0
C398 C 0.31055 0.24698 0.05031 0.0
C399 C 0.33156 0.25152 0.03746 0.0
C400 C 0.29521 0.26292 0.05073 0.0
C401 C 0.30046 0.28381 0.03818 0.0
C402 C 0.3216 0.28852 0.02672 0.0
C403 C 0.33699 0.27255 0.02637 0.0
H404 H 0.77482 0.30545 0.05816 0.0
H405 H 0.73159 0.35178 1.00094 0.0
H406 H 0.74683 0.27899 0.05691 0.0
H407 H 0.70361 0.32504 0.9988 0.0
H408 H 0.65394 0.27556 0.04727 0.0
H409 H 0.68076 0.30343 0.04818 0.0
H410 H 0.72757 0.25863 0.9996 0.0
H411 H 0.70097 0.23073 0.99964 0.0
C412 C 0.75933 0.31002 0.04534 0.0
C413 C 0.75549 0.33074 0.02946 0.0
C414 C 0.74331 0.29478 0.04429 0.0
C415 C 0.72305 0.29981 0.0272 0.0
C416 C 0.71902 0.32067 1.0124 0.0
C417 C 0.73507 0.33598 1.01353 0.0
C418 C 0.66992 0.2717 0.03645 0.0
C419 C 0.67533 0.25086 0.02369 0.0
C420 C 0.68528 0.2877 0.03685 0.0
C421 C 0.70637 0.28321 0.02447 0.0
C422 C 0.71158 0.26252 1.01032 0.0
C423 C 0.69627 0.24655 1.01 0.0
H424 H 0.73027 0.65371 0.04715 0.0
H425 H 0.77564 0.70051 1.00087 0.0
H426 H 0.70265 0.68076 0.04825 0.0
H427 H 0.74796 0.72735 1.00091 0.0
H428 H 0.70099 0.77486 0.05819 0.0
H429 H 0.72744 0.74683 0.05719 0.0
H430 H 0.68133 0.70364 0.99917 0.0
H431 H 0.65464 0.7316 1.00118 0.0
C432 C 0.73431 0.6697 0.03665 0.0
C433 C 0.75521 0.67496 0.02418 0.0
C434 C 0.71845 0.68519 0.03716 0.0
C435 C 0.72313 0.70628 0.02512 0.0
C436 C 0.7439 0.71137 1.01136 0.0
C437 C 0.75975 0.69592 1.01098 0.0
C438 C 0.69642 0.75936 0.04546 0.0
C439 C 0.67569 0.75552 0.02962 0.0
C440 C 0.71165 0.74332 0.04454 0.0
C441 C 0.70659 0.72304 0.0276 0.0
C442 C 0.68573 0.71904 1.01273 0.0
C443 C 0.67044 0.7351 1.01377 0.0
H444 H 0.27514 0.65336 0.99843 0.0
H445 H 0.2325 0.69958 0.05807 0.0
H446 H 0.30337 0.67989 0.99712 0.0
H447 H 0.26069 0.72581 0.05744 0.0
H448 H 0.30655 0.77406 1.00034 0.0
H449 H 0.2799 0.74623 0.99948 0.0
H450 H 0.32641 0.70118 0.04831 0.0
H451 H 0.35332 0.72902 0.04843 0.0
C452 C 0.27183 0.66909 1.01164 0.0
C453 C 0.2515 0.67436 0.02807 0.0
C454 C 0.28803 0.68426 1.011 0.0
C455 C 0.2842 0.70502 0.02668 0.0
C456 C 0.26404 0.71009 0.04418 0.0
C457 C 0.2479 0.69498 0.04485 0.0
C458 C 0.31119 0.75821 1.01062 0.0
C459 C 0.33207 0.75383 0.02474 0.0
C460 C 0.29585 0.74227 1.01043 0.0
C461 C 0.30097 0.72155 0.0244 0.0
C462 C 0.32199 0.71697 0.03715 0.0
C463 C 0.33738 0.73295 0.03736 0.0
H464 H 0.85178 0.77451 0.50109 0.0
H465 H 0.80566 0.73123 0.5588 0.0
H466 H 0.82501 0.8024 0.49905 0.0
H467 H 0.77913 0.75919 0.55776 0.0
H468 H 0.7307 0.80527 0.50127 0.0
H469 H 0.75845 0.7785 0.50145 0.0
H470 H 0.80371 0.82531 0.54803 0.0
H471 H 0.77603 0.85228 0.54679 0.0
C472 C 0.83602 0.771 0.51383 0.0
C473 C 0.83085 0.75058 0.52988 0.0
C474 C 0.82068 0.78701 0.51277 0.0
C475 C 0.79986 0.78298 0.52781 0.0
C476 C 0.79488 0.76272 0.54497 0.0
C477 C 0.81016 0.74671 0.54591 0.0
C478 C 0.7466 0.80992 0.51125 0.0
C479 C 0.7511 0.83092 0.52419 0.0
C480 C 0.76249 0.79451 0.5117 0.0
C481 C 0.78327 0.79969 0.52529 0.0
C482 C 0.78791 0.82081 0.53709 0.0
C483 C 0.77201 0.83627 0.5365 0.0
H484 H 0.27452 0.80604 0.55941 0.0
H485 H 0.22976 0.85298 0.51089 0.0
H486 H 0.24652 0.77958 0.5605 0.0
H487 H 0.20174 0.82625 0.51124 0.0
H488 H 0.1536 0.77538 0.56156 0.0
H489 H 0.18031 0.80345 0.56261 0.0
H490 H 0.22597 0.76037 0.50275 0.0
H491 H 0.19958 0.73234 0.50238 0.0
C492 C 0.2587 0.81075 0.54908 0.0
C493 C 0.25444 0.83163 0.53478 0.0
C494 C 0.24266 0.79552 0.54941 0.0
C495 C 0.22196 0.80074 0.53539 0.0
C496 C 0.21751 0.82176 0.52244 0.0
C497 C 0.23359 0.83705 0.5221 0.0
C498 C 0.16931 0.77195 0.54839 0.0
C499 C 0.17447 0.75156 0.53218 0.0
C500 C 0.18459 0.78805 0.54888 0.0
C501 C 0.20533 0.78407 0.53326 0.0
C502 C 0.21028 0.76384 0.51596 0.0
C503 C 0.19506 0.7478 0.51545 0.0
H504 H 0.23017 0.15326 0.54856 0.0
H505 H 0.27457 0.20022 0.49865 0.0
H506 H 0.20209 0.17993 0.54864 0.0
H507 H 0.24652 0.22662 0.49803 0.0
H508 H 0.19982 0.27382 0.55725 0.0
H509 H 0.22625 0.24582 0.55639 0.0
H510 H 0.18037 0.20266 0.49746 0.0
H511 H 0.15364 0.2307 0.49897 0.0
C512 C 0.2339 0.16918 0.53713 0.0
C513 C 0.25468 0.17463 0.52394 0.0
C514 C 0.21779 0.18444 0.53705 0.0
C515 C 0.22213 0.20545 0.52386 0.0
C516 C 0.24275 0.21069 0.50931 0.0
C517 C 0.25881 0.19548 0.50938 0.0
C518 C 0.19526 0.25835 0.54428 0.0
C519 C 0.1746 0.25456 0.52794 0.0
C520 C 0.21049 0.24233 0.54349 0.0
C521 C 0.2055 0.22209 0.52631 0.0
C522 C 0.18469 0.21807 0.51108 0.0
C523 C 0.1694 0.23416 0.51184 0.0
H524 H 0.85184 0.23163 0.5652 0.0
H525 H 0.80622 0.27382 0.50181 0.0
H526 H 0.8251 0.20362 0.56755 0.0
H527 H 0.77979 0.24583 0.50346 0.0
H528 H 0.73085 0.20084 0.56078 0.0
H529 H 0.75882 0.22737 0.56149 0.0
H530 H 0.80408 0.18012 0.51727 0.0
H531 H 0.77612 0.15337 0.51736 0.0
C532 C 0.8362 0.23488 0.55138 0.0
C533 C 0.83116 0.25503 0.53357 0.0
C534 C 0.8209 0.21881 0.55264 0.0
C535 C 0.80025 0.22258 0.53618 0.0
C536 C 0.79541 0.24255 0.51734 0.0
C537 C 0.81064 0.25856 0.51608 0.0
C538 C 0.74678 0.19602 0.55153 0.0
C539 C 0.75119 0.17498 0.53873 0.0
C540 C 0.7628 0.21128 0.55163 0.0
C541 C 0.78363 0.20592 0.53885 0.0
C542 C 0.78822 0.18474 0.5275 0.0
C543 C 0.77217 0.16943 0.52742 0.0
H544 H 0.16663 0.35539 0.41349 0.0
H545 H 0.10849 0.32648 0.36592 0.0
H546 H 0.17351 0.36829 0.33523 0.0
H547 H 0.11481 0.34014 0.28801 0.0
H548 H 0.1503 0.33884 0.14748 0.0
H549 H 0.13742 0.33187 0.22571 0.0
H550 H 0.16504 0.39082 0.27288 0.0
H551 H 0.17869 0.39723 0.195 0.0
C552 C 0.15503 0.35229 0.38656 0.0
C553 C 0.13715 0.33973 0.39578 0.0
C554 C 0.1589 0.35976 0.34158 0.0
C555 C 0.14483 0.35508 0.30491 0.0
C556 C 0.12627 0.34363 0.31498 0.0
C557 C 0.12256 0.33592 0.35978 0.0
C558 C 0.15329 0.35048 0.17439 0.0
C559 C 0.1657 0.36845 0.16517 0.0
C560 C 0.14583 0.34655 0.21936 0.0
C561 C 0.15037 0.36066 0.25601 0.0
C562 C 0.16166 0.37932 0.24592 0.0
C563 C 0.16936 0.38309 0.20114 0.0
H564 H 0.64143 0.15172 0.41856 0.0
H565 H 0.69789 0.12552 0.35594 0.0
H566 H 0.62716 0.15909 0.34134 0.0
H567 H 0.68418 0.13366 0.27937 0.0
H568 H 0.62519 0.19728 0.20488 0.0
H569 H 0.63347 0.18368 0.28146 0.0
H570 H 0.65965 0.12699 0.21952 0.0
H571 H 0.65213 0.14116 0.14229 0.0
C572 C 0.65075 0.14744 0.38837 0.0
C573 C 0.67087 0.13818 0.39353 0.0
C574 C 0.64264 0.15178 0.34405 0.0
C575 C 0.65457 0.14716 0.30388 0.0
C576 C 0.67434 0.13718 0.30921 0.0
C577 C 0.68232 0.13265 0.35337 0.0
C578 C 0.63251 0.1818 0.20745 0.0
C579 C 0.63822 0.17043 0.1673 0.0
C580 C 0.63712 0.17388 0.25162 0.0
C581 C 0.64737 0.15425 0.25696 0.0
C582 C 0.65213 0.14237 0.2168 0.0
C583 C 0.64771 0.15042 0.17247 0.0
H584 H 0.88291 0.69327 0.35561 0.0
H585 H 0.85204 0.63949 0.41939 0.0
H586 H 0.87451 0.6795 0.27936 0.0
H587 H 0.84444 0.62505 0.3424 0.0
H588 H 0.8071 0.62487 0.20469 0.0
H589 H 0.82091 0.63244 0.28144 0.0
H590 H 0.87951 0.65451 0.22035 0.0
H591 H 0.86514 0.64781 0.14293 0.0
C592 C 0.87471 0.67822 0.35341 0.0
C593 C 0.86792 0.66762 0.39377 0.0
C594 C 0.87003 0.67019 0.30939 0.0
C595 C 0.85864 0.65118 0.30438 0.0
C596 C 0.85285 0.63996 0.34482 0.0
C597 C 0.85733 0.64815 0.38902 0.0
C598 C 0.82303 0.63113 0.20751 0.0
C599 C 0.83491 0.63597 0.16753 0.0
C600 C 0.83106 0.63532 0.25178 0.0
C601 C 0.85133 0.64423 0.25742 0.0
C602 C 0.86366 0.64806 0.21743 0.0
C603 C 0.85549 0.64411 0.17298 0.0
H604 H 0.36542 0.85375 0.41814 0.0
H605 H 0.30953 0.88102 0.35511 0.0
H606 H 0.37974 0.84639 0.34097 0.0
H607 H 0.32322 0.87282 0.27867 0.0
H608 H 0.35482 0.86461 0.1415 0.0
H609 H 0.34748 0.87892 0.2187 0.0
H610 H 0.37356 0.82221 0.28084 0.0
H611 H 0.38174 0.80854 0.20437 0.0
C612 C 0.35624 0.85826 0.38788 0.0
C613 C 0.33626 0.86782 0.39292 0.0
C614 C 0.36437 0.85392 0.34357 0.0
C615 C 0.35259 0.8588 0.30328 0.0
C616 C 0.33297 0.86909 0.30855 0.0
C617 C 0.325 0.87365 0.35267 0.0
C618 C 0.35926 0.85539 0.17173 0.0
C619 C 0.36872 0.83537 0.16664 0.0
C620 C 0.35494 0.86351 0.21607 0.0
C621 C 0.35972 0.85167 0.25631 0.0
C622 C 0.36991 0.832 0.251 0.0
C623 C 0.37445 0.82404 0.20686 0.0
H624 H 0.10876 0.67979 0.69507 0.0
H625 H 0.16681 0.65077 0.64737 0.0
H626 H 0.11516 0.66615 0.77299 0.0
H627 H 0.17376 0.63791 0.72564 0.0
H628 H 0.17894 0.60888 0.86586 0.0
H629 H 0.16531 0.61539 0.78797 0.0
H630 H 0.13782 0.67435 0.83528 0.0
H631 H 0.15068 0.6673 0.91352 0.0
C632 C 0.12283 0.67033 0.70119 0.0
C633 C 0.13737 0.66648 0.66514 0.0
C634 C 0.12658 0.66264 0.74599 0.0
C635 C 0.14514 0.65116 0.75603 0.0
C636 C 0.15916 0.64646 0.71932 0.0
C637 C 0.15524 0.65391 0.67433 0.0
C638 C 0.16965 0.62305 0.85975 0.0
C639 C 0.16601 0.63767 0.89576 0.0
C640 C 0.16196 0.62687 0.81496 0.0
C641 C 0.15071 0.64556 0.80491 0.0
C642 C 0.1462 0.65966 0.8416 0.0
C643 C 0.15364 0.65568 0.88658 0.0
H644 H 0.36547 0.15464 0.63932 0.0
H645 H 0.3112 0.12458 0.70294 0.0
H646 H 0.37979 0.16241 0.71636 0.0
H647 H 0.32487 0.13312 0.77925 0.0
H648 H 0.35696 0.1419 0.91571 0.0
H649 H 0.3499 0.12774 0.83828 0.0
H650 H 0.37258 0.18612 0.77727 0.0
H651 H 0.38048 0.19974 0.85405 0.0
C652 C 0.35666 0.14958 0.66967 0.0
C653 C 0.33712 0.13913 0.66485 0.0
C654 C 0.36478 0.15416 0.7139 0.0
C655 C 0.35343 0.14859 0.7543 0.0
C656 C 0.33429 0.13741 0.74924 0.0
C657 C 0.32632 0.13265 0.7052 0.0
C658 C 0.3607 0.15156 0.88568 0.0
C659 C 0.36913 0.17201 0.89117 0.0
C660 C 0.35654 0.1435 0.84122 0.0
C661 C 0.36045 0.15582 0.80126 0.0
C662 C 0.36962 0.17597 0.80692 0.0
C663 C 0.374 0.18389 0.85121 0.0
H664 H 0.85569 0.34034 0.91145 0.0
H665 H 0.82436 0.39718 0.86378 0.0
H666 H 0.86853 0.33374 0.83309 0.0
H667 H 0.838 0.3912 0.7857 0.0
H668 H 0.83787 0.35541 0.64545 0.0
H669 H 0.83062 0.36831 0.72352 0.0
H670 H 0.89055 0.34284 0.77062 0.0
H671 H 0.89724 0.32909 0.69292 0.0
C672 C 0.85201 0.35173 0.88444 0.0
C673 C 0.83883 0.36914 0.89369 0.0
C674 C 0.85947 0.34802 0.8394 0.0
C675 C 0.85416 0.36183 0.80268 0.0
C676 C 0.842 0.37994 0.81273 0.0
C677 C 0.8343 0.38346 0.85761 0.0
C678 C 0.84966 0.35292 0.6723 0.0
C679 C 0.868 0.34104 0.66317 0.0
C680 C 0.84556 0.36039 0.71718 0.0
C681 C 0.85988 0.35641 0.75379 0.0
C682 C 0.8789 0.34573 0.74371 0.0
C683 C 0.88283 0.33799 0.69904 0.0
H684 H 0.65454 0.8667 0.91908 0.0
H685 H 0.62361 0.8129 0.85543 0.0
H686 H 0.66204 0.88114 0.84207 0.0
H687 H 0.63191 0.82666 0.77915 0.0
H688 H 0.64115 0.85825 0.64268 0.0
H689 H 0.62684 0.85164 0.72015 0.0
H690 H 0.68551 0.87372 0.78105 0.0
H691 H 0.69927 0.88121 0.70425 0.0
C692 C 0.64922 0.85803 0.88874 0.0
C693 C 0.63864 0.83856 0.89352 0.0
C694 C 0.65364 0.86622 0.84452 0.0
C695 C 0.6478 0.855 0.8041 0.0
C696 C 0.63642 0.83598 0.80916 0.0
C697 C 0.6318 0.82796 0.85319 0.0
C698 C 0.65083 0.86197 0.6727 0.0
C699 C 0.67141 0.87008 0.66719 0.0
C700 C 0.64269 0.85808 0.71718 0.0
C701 C 0.65506 0.86193 0.75713 0.0
C702 C 0.67533 0.87082 0.75143 0.0
C703 C 0.68333 0.87496 0.70712 0.0
H704 H 0.82961 0.64744 0.65319 0.0
H705 H 0.89104 0.67535 0.67883 0.0
H706 H 0.82661 0.63825 0.73496 0.0
H707 H 0.88826 0.66567 0.76087 0.0
H708 H 0.82961 0.61393 0.88102 0.0
H709 H 0.83897 0.61709 0.79892 0.0
H710 H 0.86788 0.6779 0.82627 0.0
H711 H 0.85901 0.6745 0.90816 0.0
C712 C 0.84269 0.65127 0.67612 0.0
C713 C 0.8605 0.6623 0.65943 0.0
C714 C 0.84102 0.64586 0.72313 0.0
C715 C 0.85713 0.65131 0.75478 0.0
C716 C 0.8754 0.66151 0.73766 0.0
C717 C 0.87706 0.66693 0.69054 0.0
C718 C 0.8383 0.62779 0.86963 0.0
C719 C 0.84342 0.64402 0.90118 0.0
C720 C 0.84354 0.62968 0.82246 0.0
C721 C 0.85402 0.64785 0.80571 0.0
C722 C 0.86003 0.66358 0.8378 0.0
C723 C 0.85481 0.66168 0.88488 0.0
H724 H 0.3304 0.89122 0.67903 0.0
H725 H 0.35866 0.83009 0.65213 0.0
H726 H 0.34009 0.88812 0.76101 0.0
H727 H 0.36789 0.82678 0.73386 0.0
H728 H 0.39202 0.82938 0.88044 0.0
H729 H 0.38893 0.83904 0.79845 0.0
H730 H 0.32775 0.86719 0.82564 0.0
H731 H 0.33105 0.85799 0.90739 0.0
C732 C 0.33892 0.87725 0.69044 0.0
C733 C 0.34362 0.86085 0.659 0.0
C734 C 0.34435 0.8754 0.73754 0.0
C735 C 0.35463 0.85711 0.7543 0.0
C736 C 0.3602 0.84119 0.72231 0.0
C737 C 0.35477 0.84304 0.67533 0.0
C738 C 0.37809 0.83797 0.86904 0.0
C739 C 0.36173 0.84278 0.90049 0.0
C740 C 0.37624 0.84338 0.82194 0.0
C741 C 0.358 0.85375 0.80519 0.0
C742 C 0.34213 0.85943 0.83719 0.0
C743 C 0.34397 0.85402 0.88418 0.0
H744 H 0.11504 0.32963 0.67893 0.0
H745 H 0.17632 0.35787 0.65347 0.0
H746 H 0.11787 0.33911 0.76108 0.0
H747 H 0.17934 0.3669 0.73535 0.0
H748 H 0.17614 0.39064 0.88213 0.0
H749 H 0.16665 0.38785 0.79997 0.0
H750 H 0.13886 0.32637 0.82561 0.0
H751 H 0.14791 0.32935 0.9075 0.0
C752 C 0.12898 0.3381 0.69069 0.0
C753 C 0.14551 0.34285 0.65964 0.0
C754 C 0.13067 0.34341 0.73786 0.0
C755 C 0.14892 0.35363 0.75503 0.0
C756 C 0.16496 0.35926 0.72343 0.0
C757 C 0.16328 0.35394 0.67639 0.0
C758 C 0.16767 0.37671 0.87034 0.0
C759 C 0.16293 0.36016 0.90137 0.0
C760 C 0.16235 0.37504 0.82317 0.0
C761 C 0.15213 0.35681 0.80597 0.0
C762 C 0.14651 0.34074 0.83755 0.0
C763 C 0.15184 0.3424 0.88459 0.0
H764 H 0.67529 0.14668 0.90763 0.0
H765 H 0.61428 0.17542 0.88172 0.0
H766 H 0.67827 0.13752 0.82584 0.0
H767 H 0.61702 0.16576 0.79969 0.0
H768 H 0.67552 0.11403 0.67914 0.0
H769 H 0.66587 0.11681 0.76116 0.0
H770 H 0.63772 0.17809 0.73497 0.0
H771 H 0.64687 0.17507 0.65319 0.0
C772 C 0.66228 0.15067 0.88464 0.0
C773 C 0.64462 0.16196 0.90124 0.0
C774 C 0.66394 0.14528 0.83762 0.0
C775 C 0.64796 0.15101 0.80589 0.0
C776 C 0.62979 0.16139 0.82296 0.0
C777 C 0.62814 0.1668 0.87008 0.0
C778 C 0.66692 0.1279 0.69076 0.0
C779 C 0.66211 0.14438 0.6596 0.0
C780 C 0.66152 0.12958 0.73788 0.0
C781 C 0.65118 0.14777 0.75494 0.0
C782 C 0.64546 0.16374 0.72319 0.0
C783 C 0.65084 0.16206 0.67618 0.0
H784 H 0.82965 0.35792 0.40532 0.0
H785 H 0.8912 0.33003 0.3811 0.0
H786 H 0.82698 0.36705 0.32346 0.0
H787 H 0.88872 0.33962 0.29894 0.0
H788 H 0.85925 0.32997 0.15177 0.0
H789 H 0.86817 0.32696 0.23373 0.0
H790 H 0.83982 0.38817 0.25946 0.0
H791 H 0.83045 0.39097 0.17726 0.0
C792 C 0.84282 0.35409 0.38267 0.0
C793 C 0.86056 0.34307 0.39975 0.0
C794 C 0.84134 0.35947 0.33565 0.0
C795 C 0.85758 0.35398 0.30439 0.0
C796 C 0.87578 0.34382 0.3219 0.0
C797 C 0.87727 0.33844 0.36906 0.0
C798 C 0.85519 0.34296 0.17471 0.0
C799 C 0.84395 0.36063 0.15796 0.0
C800 C 0.86044 0.34129 0.2218 0.0
C801 C 0.85458 0.35725 0.25342 0.0
C802 C 0.84428 0.37543 0.23623 0.0
C803 C 0.83903 0.3771 0.18903 0.0
H804 H 0.61546 0.83073 0.17823 0.0
H805 H 0.67691 0.85867 0.15312 0.0
H806 H 0.61815 0.84037 0.2603 0.0
H807 H 0.67981 0.86782 0.23493 0.0
H808 H 0.67671 0.89202 0.38101 0.0
H809 H 0.66738 0.88894 0.29886 0.0
H810 H 0.63848 0.82809 0.32578 0.0
H811 H 0.64732 0.83141 0.40772 0.0
C812 C 0.62942 0.83915 0.19006 0.0
C813 C 0.64602 0.8438 0.1591 0.0
C814 C 0.63103 0.84456 0.2372 0.0
C815 C 0.64927 0.85475 0.25448 0.0
C816 C 0.66542 0.86022 0.22297 0.0
C817 C 0.66381 0.85483 0.17594 0.0
C818 C 0.66802 0.87817 0.36951 0.0
C819 C 0.6629 0.8619 0.40095 0.0
C820 C 0.6628 0.87633 0.32232 0.0
C821 C 0.65234 0.85816 0.30544 0.0
C822 C 0.64632 0.8424 0.33741 0.0
C823 C 0.65152 0.84425 0.38452 0.0
H824 H 0.115 0.67639 0.38179 0.0
H825 H 0.1762 0.64801 0.4075 0.0
H826 H 0.11783 0.6669 0.29965 0.0
H827 H 0.17922 0.63895 0.32564 0.0
H828 H 0.14803 0.6766 0.15339 0.0
H829 H 0.13892 0.67959 0.23522 0.0
H830 H 0.16647 0.61802 0.26099 0.0
H831 H 0.17602 0.61521 0.17888 0.0
C832 C 0.12892 0.66788 0.37009 0.0
C833 C 0.14543 0.66311 0.4012 0.0
C834 C 0.13061 0.66256 0.32293 0.0
C835 C 0.14884 0.6523 0.30583 0.0
C836 C 0.16486 0.64663 0.3375 0.0
C837 C 0.16318 0.65197 0.38453 0.0
C838 C 0.15189 0.66353 0.1763 0.0
C839 C 0.16293 0.64574 0.15958 0.0
C840 C 0.14652 0.6652 0.22332 0.0
C841 C 0.15206 0.64911 0.25491 0.0
C842 C 0.16224 0.63085 0.23776 0.0
C843 C 0.16759 0.62917 0.19062 0.0
H844 H 0.33088 0.11469 0.37958 0.0
H845 H 0.35873 0.17611 0.40533 0.0
H846 H 0.34068 0.11746 0.29761 0.0
H847 H 0.36805 0.1791 0.32364 0.0
H848 H 0.33168 0.14701 0.15049 0.0
H849 H 0.32837 0.13795 0.23231 0.0
H850 H 0.38926 0.16672 0.25966 0.0
H851 H 0.39234 0.17625 0.17764 0.0
C852 C 0.33932 0.12865 0.36792 0.0
C853 C 0.34388 0.14523 0.39902 0.0
C854 C 0.34482 0.13031 0.32084 0.0
C855 C 0.35502 0.14858 0.30377 0.0
C856 C 0.36044 0.16469 0.33544 0.0
C857 C 0.35495 0.16303 0.3824 0.0
C858 C 0.34454 0.15114 0.17375 0.0
C859 C 0.3622 0.16254 0.15749 0.0
C860 C 0.34269 0.14581 0.22079 0.0
C861 C 0.35846 0.15173 0.25285 0.0
C862 C 0.37664 0.16221 0.23613 0.0
C863 C 0.37849 0.16755 0.189 0.0
loop_
_geom_bond_atom_site_label_1
_geom_bond_atom_site_label_2
_geom_bond_distance
_geom_bond_site_symmetry_2
_ccdc_geom_bond_type
O0 Cd1 2.223 . S
O0 C8 1.315 . S
Cd1 O0 2.223 . S
Cd1 O4 2.297 . S
Cd1 O5 2.439 . S
Cd1 O11 2.240 1_554 S
Cd2 O3 2.240 1_556 S
Cd2 O10 2.223 1_556 S
Cd2 O12 2.297 . S
Cd2 O13 2.439 . S
O3 Cd2 2.240 1_554 S
O3 C8 1.279 . S
O4 Cd1 2.297 . S
O4 C6 1.247 . S
O5 Cd1 2.439 . S
O5 C6 1.208 . S
C6 O4 1.247 . S
C6 O5 1.208 . S
C7 O12 1.247 . S
C7 O13 1.208 . S
C8 O0 1.315 . S
C8 O3 1.279 . S
C9 O10 1.315 . S
C9 O11 1.279 1_554 S
O10 Cd2 2.223 1_554 S
O10 C9 1.315 . S
O11 Cd1 2.240 1_556 S
O11 C9 1.279 1_556 S
O12 Cd2 2.297 . S
O12 C7 1.247 . S
O13 Cd2 2.439 . S
O13 C7 1.208 . S
O14 Cd15 2.223 . S
O14 C22 1.315 . S
Cd15 O14 2.223 . S
Cd15 O18 2.297 . S
Cd15 O19 2.439 . S
Cd15 O25 2.240 1_554 S
Cd16 O17 2.240 1_556 S
Cd16 O24 2.223 1_556 S
Cd16 O26 2.297 . S
Cd16 O27 2.439 . S
O17 Cd16 2.240 1_554 S
O17 C22 1.279 . S
O18 Cd15 2.297 . S
O18 C20 1.247 . S
O19 Cd15 2.439 . S
O19 C20 1.208 . S
C20 O18 1.247 . S
C20 O19 1.208 . S
C21 O26 1.247 . S
C21 O27 1.208 . S
C22 O14 1.315 . S
C22 O17 1.279 . S
C23 O24 1.315 . S
C23 O25 1.279 1_554 S
O24 Cd16 2.223 1_554 S
O24 C23 1.315 . S
O25 Cd15 2.240 1_556 S
O25 C23 1.279 1_556 S
O26 Cd16 2.297 . S
O26 C21 1.247 . S
O27 Cd16 2.439 . S
O27 C21 1.208 . S
O28 Cd29 2.223 . S
O28 C36 1.315 . S
Cd29 O28 2.223 . S
Cd29 O32 2.297 . S
Cd29 O33 2.439 . S
Cd29 O39 2.240 1_554 S
Cd30 O31 2.240 1_556 S
Cd30 O38 2.223 1_556 S
Cd30 O40 2.297 . S
Cd30 O41 2.439 . S
O31 Cd30 2.240 1_554 S
O31 C36 1.279 . S
O32 Cd29 2.297 . S
O32 C34 1.247 . S
O33 Cd29 2.439 . S
O33 C34 1.208 . S
C34 O32 1.247 . S
C34 O33 1.208 . S
C35 O40 1.247 . S
C35 O41 1.208 . S
C36 O28 1.315 . S
C36 O31 1.279 . S
C37 O38 1.315 . S
C37 O39 1.279 1_554 S
O38 Cd30 2.223 1_554 S
O38 C37 1.315 . S
O39 Cd29 2.240 1_556 S
O39 C37 1.279 1_556 S
O40 Cd30 2.297 . S
O40 C35 1.247 . S
O41 Cd30 2.439 . S
O41 C35 1.208 . S
O42 Cd43 2.223 . S
O42 C50 1.315 . S
Cd43 O42 2.223 . S
Cd43 O46 2.297 . S
Cd43 O47 2.439 . S
Cd43 O53 2.240 1_554 S
Cd44 O45 2.240 1_556 S
Cd44 O52 2.223 1_556 S
Cd44 O54 2.297 . S
Cd44 O55 2.439 . S
O45 Cd44 2.240 1_554 S
O45 C50 1.279 . S
O46 Cd43 2.297 . S
O46 C48 1.247 . S
O47 Cd43 2.439 . S
O47 C48 1.208 . S
C48 O46 1.247 . S
C48 O47 1.208 . S
C49 O54 1.247 . S
C49 O55 1.208 . S
C50 O42 1.315 . S
C50 O45 1.279 . S
C51 O52 1.315 . S
C51 O53 1.279 1_554 S
O52 Cd44 2.223 1_554 S
O52 C51 1.315 . S
O53 Cd43 2.240 1_556 S
O53 C51 1.279 1_556 S
O54 Cd44 2.297 . S
O54 C49 1.247 . S
O55 Cd44 2.439 . S
O55 C49 1.208 . S
O56 Cd57 2.223 . S
O56 C64 1.315 . S
Cd57 O56 2.223 . S
Cd57 O60 2.297 . S
Cd57 O61 2.439 1_556 S
Cd57 O67 2.240 1_556 S
Cd58 O59 2.240 1_554 S
Cd58 O66 2.223 . S
Cd58 O68 2.297 . S
Cd58 O69 2.439 . S
O59 Cd58 2.240 1_556 S
O59 C64 1.279 . S
O60 Cd57 2.297 . S
O60 C62 1.247 . S
O61 Cd57 2.439 1_554 S
O61 C62 1.208 1_554 S
C62 O60 1.247 . S
C62 O61 1.208 1_556 S
C63 O68 1.247 . S
C63 O69 1.208 . S
C64 O56 1.315 . S
C64 O59 1.279 . S
C65 O66 1.315 . S
C65 O67 1.279 . S
O66 Cd58 2.223 . S
O66 C65 1.315 . S
O67 Cd57 2.240 1_554 S
O67 C65 1.279 . S
O68 Cd58 2.297 . S
O68 C63 1.247 . S
O69 Cd58 2.439 . S
O69 C63 1.208 . S
O70 Cd71 2.223 . S
O70 C78 1.315 . S
Cd71 O70 2.223 . S
Cd71 O74 2.297 . S
Cd71 O75 2.439 1_556 S
Cd71 O81 2.240 1_556 S
Cd72 O73 2.240 1_554 S
Cd72 O80 2.223 . S
Cd72 O82 2.297 . S
Cd72 O83 2.439 . S
O73 Cd72 2.240 1_556 S
O73 C78 1.279 . S
O74 Cd71 2.297 . S
O74 C76 1.247 . S
O75 Cd71 2.439 1_554 S
O75 C76 1.208 1_554 S
C76 O74 1.247 . S
C76 O75 1.208 1_556 S
C77 O82 1.247 . S
C77 O83 1.208 . S
C78 O70 1.315 . S
C78 O73 1.279 . S
C79 O80 1.315 . S
C79 O81 1.279 . S
O80 Cd72 2.223 . S
O80 C79 1.315 . S
O81 Cd71 2.240 1_554 S
O81 C79 1.279 . S
O82 Cd72 2.297 . S
O82 C77 1.247 . S
O83 Cd72 2.439 . S
O83 C77 1.208 . S
O84 Cd85 2.223 . S
O84 C92 1.315 . S
Cd85 O84 2.223 . S
Cd85 O88 2.297 . S
Cd85 O89 2.439 1_556 S
Cd85 O95 2.240 1_556 S
Cd86 O87 2.240 1_554 S
Cd86 O94 2.223 . S
Cd86 O96 2.297 . S
Cd86 O97 2.439 . S
O87 Cd86 2.240 1_556 S
O87 C92 1.279 . S
O88 Cd85 2.297 . S
O88 C90 1.247 . S
O89 Cd85 2.439 1_554 S
O89 C90 1.208 1_554 S
C90 O88 1.247 . S
C90 O89 1.208 1_556 S
C91 O96 1.247 . S
C91 O97 1.208 . S
C92 O84 1.315 . S
C92 O87 1.279 . S
C93 O94 1.315 . S
C93 O95 1.279 . S
O94 Cd86 2.223 . S
O94 C93 1.315 . S
O95 Cd85 2.240 1_554 S
O95 C93 1.279 . S
O96 Cd86 2.297 . S
O96 C91 1.247 . S
O97 Cd86 2.439 . S
O97 C91 1.208 . S
O98 Cd99 2.223 . S
O98 C106 1.315 . S
Cd99 O98 2.223 . S
Cd99 O102 2.297 . S
Cd99 O103 2.439 1_556 S
Cd99 O109 2.240 1_556 S
Cd100 O101 2.240 1_554 S
Cd100 O108 2.223 . S
Cd100 O110 2.297 . S
Cd100 O111 2.439 . S
O101 Cd100 2.240 1_556 S
O101 C106 1.279 . S
O102 Cd99 2.297 . S
O102 C104 1.247 . S
O103 Cd99 2.439 1_554 S
O103 C104 1.208 1_554 S
C104 O102 1.247 . S
C104 O103 1.208 1_556 S
C105 O110 1.247 . S
C105 O111 1.208 . S
C106 O98 1.315 . S
C106 O101 1.279 . S
C107 O108 1.315 . S
C107 O109 1.279 . S
O108 Cd100 2.223 . S
O108 C107 1.315 . S
O109 Cd99 2.240 1_554 S
O109 C107 1.279 . S
O110 Cd100 2.297 . S
O110 C105 1.247 . S
O111 Cd100 2.439 . S
O111 C105 1.208 . S
O112 Cd113 2.223 . S
O112 C120 1.315 . S
Cd113 O112 2.223 . S
Cd113 O116 2.297 . S
Cd113 O117 2.439 . S
Cd113 O123 2.240 . S
Cd114 O115 2.240 . S
Cd114 O122 2.223 . S
Cd114 O124 2.297 . S
Cd114 O125 2.439 . S
O115 Cd114 2.240 . S
O115 C120 1.279 . S
O116 Cd113 2.297 . S
O116 C118 1.247 . S
O117 Cd113 2.439 . S
O117 C118 1.208 . S
C118 O116 1.247 . S
C118 O117 1.208 . S
C119 O124 1.247 . S
C119 O125 1.208 . S
C120 O112 1.315 . S
C120 O115 1.279 . S
C121 O122 1.315 . S
C121 O123 1.279 . S
O122 Cd114 2.223 . S
O122 C121 1.315 . S
O123 Cd113 2.240 . S
O123 C121 1.279 . S
O124 Cd114 2.297 . S
O124 C119 1.247 . S
O125 Cd114 2.439 . S
O125 C119 1.208 . S
O126 Cd127 2.223 . S
O126 C134 1.315 . S
Cd127 O126 2.223 . S
Cd127 O130 2.297 . S
Cd127 O131 2.439 . S
Cd127 O137 2.240 . S
Cd128 O129 2.240 . S
Cd128 O136 2.223 . S
Cd128 O138 2.297 . S
Cd128 O139 2.439 . S
O129 Cd128 2.240 . S
O129 C134 1.279 . S
O130 Cd127 2.297 . S
O130 C132 1.247 . S
O131 Cd127 2.439 . S
O131 C132 1.208 . S
C132 O130 1.247 . S
C132 O131 1.208 . S
C133 O138 1.247 . S
C133 O139 1.208 . S
C134 O126 1.315 . S
C134 O129 1.279 . S
C135 O136 1.315 . S
C135 O137 1.279 . S
O136 Cd128 2.223 . S
O136 C135 1.315 . S
O137 Cd127 2.240 . S
O137 C135 1.279 . S
O138 Cd128 2.297 . S
O138 C133 1.247 . S
O139 Cd128 2.439 . S
O139 C133 1.208 . S
O140 Cd141 2.223 . S
O140 C148 1.315 . S
Cd141 O140 2.223 . S
Cd141 O144 2.297 . S
Cd141 O145 2.439 . S
Cd141 O151 2.240 . S
Cd142 O143 2.240 . S
Cd142 O150 2.223 . S
Cd142 O152 2.297 . S
Cd142 O153 2.439 . S
O143 Cd142 2.240 . S
O143 C148 1.279 . S
O144 Cd141 2.297 . S
O144 C146 1.247 . S
O145 Cd141 2.439 . S
O145 C146 1.208 . S
C146 O144 1.247 . S
C146 O145 1.208 . S
C147 O152 1.247 . S
C147 O153 1.208 . S
C148 O140 1.315 . S
C148 O143 1.279 . S
C149 O150 1.315 . S
C149 O151 1.279 . S
O150 Cd142 2.223 . S
O150 C149 1.315 . S
O151 Cd141 2.240 . S
O151 C149 1.279 . S
O152 Cd142 2.297 . S
O152 C147 1.247 . S
O153 Cd142 2.439 . S
O153 C147 1.208 . S
O154 Cd155 2.223 . S
O154 C162 1.315 . S
Cd155 O154 2.223 . S
Cd155 O158 2.297 . S
Cd155 O159 2.439 . S
Cd155 O165 2.240 . S
Cd156 O157 2.240 . S
Cd156 O164 2.223 . S
Cd156 O166 2.297 . S
Cd156 O167 2.439 . S
O157 Cd156 2.240 . S
O157 C162 1.279 . S
O158 Cd155 2.297 . S
O158 C160 1.247 . S
O159 Cd155 2.439 . S
O159 C160 1.208 . S
C160 O158 1.247 . S
C160 O159 1.208 . S
C161 O166 1.247 . S
C161 O167 1.208 . S
C162 O154 1.315 . S
C162 O157 1.279 . S
C163 O164 1.315 . S
C163 O165 1.279 . S
O164 Cd156 2.223 . S
O164 C163 1.315 . S
O165 Cd155 2.240 . S
O165 C163 1.279 . S
O166 Cd156 2.297 . S
O166 C161 1.247 . S
O167 Cd156 2.439 . S
O167 C161 1.208 . S
O168 Cd169 2.223 . S
O168 C176 1.315 . S
Cd169 O168 2.223 . S
Cd169 O172 2.297 . S
Cd169 O173 2.439 . S
Cd169 O179 2.240 . S
Cd170 O171 2.240 . S
Cd170 O178 2.223 . S
Cd170 O180 2.297 . S
Cd170 O181 2.439 . S
O171 Cd170 2.240 . S
O171 C176 1.279 . S
O172 Cd169 2.297 . S
O172 C174 1.247 . S
O173 Cd169 2.439 . S
O173 C174 1.208 . S
C174 O172 1.247 . S
C174 O173 1.208 . S
C175 O180 1.247 . S
C175 O181 1.208 . S
C176 O168 1.315 . S
C176 O171 1.279 . S
C177 O178 1.315 . S
C177 O179 1.279 . S
O178 Cd170 2.223 . S
O178 C177 1.315 . S
O179 Cd169 2.240 . S
O179 C177 1.279 . S
O180 Cd170 2.297 . S
O180 C175 1.247 . S
O181 Cd170 2.439 . S
O181 C175 1.208 . S
O182 Cd183 2.223 . S
O182 C190 1.315 . S
Cd183 O182 2.223 . S
Cd183 O186 2.297 . S
Cd183 O187 2.439 . S
Cd183 O193 2.240 . S
Cd184 O185 2.240 . S
Cd184 O192 2.223 . S
Cd184 O194 2.297 . S
Cd184 O195 2.439 . S
O185 Cd184 2.240 . S
O185 C190 1.279 . S
O186 Cd183 2.297 . S
O186 C188 1.247 . S
O187 Cd183 2.439 . S
O187 C188 1.208 . S
C188 O186 1.247 . S
C188 O187 1.208 . S
C189 O194 1.247 . S
C189 O195 1.208 . S
C190 O182 1.315 . S
C190 O185 1.279 . S
C191 O192 1.315 . S
C191 O193 1.279 . S
O192 Cd184 2.223 . S
O192 C191 1.315 . S
O193 Cd183 2.240 . S
O193 C191 1.279 . S
O194 Cd184 2.297 . S
O194 C189 1.247 . S
O195 Cd184 2.439 . S
O195 C189 1.208 . S
O196 Cd197 2.223 . S
O196 C204 1.315 . S
Cd197 O196 2.223 . S
Cd197 O200 2.297 . S
Cd197 O201 2.439 . S
Cd197 O207 2.240 . S
Cd198 O199 2.240 . S
Cd198 O206 2.223 . S
Cd198 O208 2.297 . S
Cd198 O209 2.439 . S
O199 Cd198 2.240 . S
O199 C204 1.279 . S
O200 Cd197 2.297 . S
O200 C202 1.247 . S
O201 Cd197 2.439 . S
O201 C202 1.208 . S
C202 O200 1.247 . S
C202 O201 1.208 . S
C203 O208 1.247 . S
C203 O209 1.208 . S
C204 O196 1.315 . S
C204 O199 1.279 . S
C205 O206 1.315 . S
C205 O207 1.279 . S
O206 Cd198 2.223 . S
O206 C205 1.315 . S
O207 Cd197 2.240 . S
O207 C205 1.279 . S
O208 Cd198 2.297 . S
O208 C203 1.247 . S
O209 Cd198 2.439 . S
O209 C203 1.208 . S
O210 Cd211 2.223 . S
O210 C218 1.315 . S
Cd211 O210 2.223 . S
Cd211 O214 2.297 . S
Cd211 O215 2.439 . S
Cd211 O221 2.240 . S
Cd212 O213 2.240 . S
Cd212 O220 2.223 . S
Cd212 O222 2.297 . S
Cd212 O223 2.439 . S
O213 Cd212 2.240 . S
O213 C218 1.279 . S
O214 Cd211 2.297 . S
O214 C216 1.247 . S
O215 Cd211 2.439 . S
O215 C216 1.208 . S
C216 O214 1.247 . S
C216 O215 1.208 . S
C217 O222 1.247 . S
C217 O223 1.208 . S
C218 O210 1.315 . S
C218 O213 1.279 . S
C219 O220 1.315 . S
C219 O221 1.279 . S
O220 Cd212 2.223 . S
O220 C219 1.315 . S
O221 Cd211 2.240 . S
O221 C219 1.279 . S
O222 Cd212 2.297 . S
O222 C217 1.247 . S
O223 Cd212 2.439 . S
O223 C217 1.208 . S
H224 C232 0.950 . S
H225 C237 0.950 . S
H226 C234 0.950 . S
H227 C236 0.950 . S
H228 C238 0.950 . S
H229 C240 0.950 . S
H230 C242 0.950 . S
H231 C243 0.950 . S
C232 H224 0.950 . S
C232 C233 1.386 1_554 S
C232 C234 1.391 . S
C233 C232 1.386 1_556 S
C233 C237 1.393 . S
C234 H226 0.950 . S
C234 C232 1.391 . S
C234 C235 1.400 . S
C235 C234 1.400 . S
C235 C236 1.398 1_554 S
C235 C241 1.491 . S
C236 H227 0.950 . S
C236 C235 1.398 1_556 S
C236 C237 1.391 . S
C237 H225 0.950 . S
C237 C233 1.393 . S
C237 C236 1.391 . S
C238 H228 0.950 . S
C238 C239 1.386 1_556 S
C238 C240 1.391 . S
C239 C238 1.386 1_554 S
C239 C243 1.393 . S
C240 H229 0.950 . S
C240 C238 1.391 . S
C240 C241 1.400 1_556 S
C241 C235 1.491 . S
C241 C240 1.400 1_554 S
C241 C242 1.398 . S
C242 H230 0.950 . S
C242 C241 1.398 . S
C242 C243 1.391 . S
C243 H231 0.950 . S
C243 C239 1.393 . S
C243 C242 1.391 . S
H244 C252 0.950 . S
H245 C257 0.950 . S
H246 C254 0.950 . S
H247 C256 0.950 . S
H248 C258 0.950 . S
H249 C260 0.950 1_556 S
H250 C262 0.950 . S
H251 C263 0.950 . S
C252 H244 0.950 . S
C252 C253 1.386 1_554 S
C252 C254 1.391 . S
C253 C252 1.386 1_556 S
C253 C257 1.393 . S
C254 H246 0.950 . S
C254 C252 1.391 . S
C254 C255 1.400 . S
C255 C254 1.400 . S
C255 C256 1.398 1_554 S
C255 C261 1.491 . S
C256 H247 0.950 . S
C256 C255 1.398 1_556 S
C256 C257 1.391 . S
C257 H245 0.950 . S
C257 C253 1.393 . S
C257 C256 1.391 . S
C258 H248 0.950 . S
C258 C259 1.386 . S
C258 C260 1.391 . S
C259 C258 1.386 . S
C259 C263 1.393 . S
C260 H249 0.950 1_554 S
C260 C258 1.391 . S
C260 C261 1.400 . S
C261 C255 1.491 . S
C261 C260 1.400 . S
C261 C262 1.398 . S
C262 H250 0.950 . S
C262 C261 1.398 . S
C262 C263 1.391 . S
C263 H251 0.950 . S
C263 C259 1.393 . S
C263 C262 1.391 . S
H264 C272 0.950 . S
H265 C277 0.950 . S
H266 C274 0.950 . S
H267 C276 0.950 . S
H268 C278 0.950 . S
H269 C280 0.950 1_556 S
H270 C282 0.950 . S
H271 C283 0.950 . S
C272 H264 0.950 . S
C272 C273 1.386 1_554 S
C272 C274 1.391 . S
C273 C272 1.386 1_556 S
C273 C277 1.393 . S
C274 H266 0.950 . S
C274 C272 1.391 . S
C274 C275 1.400 . S
C275 C274 1.400 . S
C275 C276 1.398 1_554 S
C275 C281 1.491 . S
C276 H267 0.950 . S
C276 C275 1.398 1_556 S
C276 C277 1.391 . S
C277 H265 0.950 . S
C277 C273 1.393 . S
C277 C276 1.391 . S
C278 H268 0.950 . S
C278 C279 1.386 . S
C278 C280 1.391 . S
C279 C278 1.386 . S
C279 C283 1.393 . S
C280 H269 0.950 1_554 S
C280 C278 1.391 . S
C280 C281 1.400 . S
C281 C275 1.491 . S
C281 C280 1.400 . S
C281 C282 1.398 . S
C282 H270 0.950 . S
C282 C281 1.398 . S
C282 C283 1.391 . S
C283 H271 0.950 . S
C283 C279 1.393 . S
C283 C282 1.391 . S
H284 C292 0.950 . S
H285 C297 0.950 . S
H286 C294 0.950 . S
H287 C296 0.950 . S
H288 C298 0.950 . S
H289 C300 0.950 . S
H290 C302 0.950 . S
H291 C303 0.950 . S
C292 H284 0.950 . S
C292 C293 1.386 1_554 S
C292 C294 1.391 . S
C293 C292 1.386 1_556 S
C293 C297 1.393 . S
C294 H286 0.950 . S
C294 C292 1.391 . S
C294 C295 1.400 . S
C295 C294 1.400 . S
C295 C296 1.398 1_554 S
C295 C301 1.491 . S
C296 H287 0.950 . S
C296 C295 1.398 1_556 S
C296 C297 1.391 . S
C297 H285 0.950 . S
C297 C293 1.393 . S
C297 C296 1.391 . S
C298 H288 0.950 . S
C298 C299 1.386 1_556 S
C298 C300 1.391 . S
C299 C298 1.386 1_554 S
C299 C303 1.393 . S
C300 H289 0.950 . S
C300 C298 1.391 . S
C300 C301 1.400 1_556 S
C301 C295 1.491 . S
C301 C300 1.400 1_554 S
C301 C302 1.398 . S
C302 H290 0.950 . S
C302 C301 1.398 . S
C302 C303 1.391 . S
C303 H291 0.950 . S
C303 C299 1.393 . S
C303 C302 1.391 . S
H304 C312 0.950 . S
H305 C317 0.950 . S
H306 C314 0.950 . S
H307 C316 0.950 . S
H308 C318 0.950 . S
H309 C320 0.950 . S
H310 C322 0.950 . S
H311 C323 0.950 . S
C312 H304 0.950 . S
C312 C313 1.386 . S
C312 C314 1.391 . S
C313 C312 1.386 . S
C313 C317 1.393 . S
C314 H306 0.950 . S
C314 C312 1.391 . S
C314 C315 1.400 . S
C315 C314 1.400 . S
C315 C316 1.398 . S
C315 C321 1.491 1_545 S
C316 H307 0.950 . S
C316 C315 1.398 . S
C316 C317 1.391 . S
C317 H305 0.950 . S
C317 C313 1.393 . S
C317 C316 1.391 . S
C318 H308 0.950 . S
C318 C319 1.386 . S
C318 C320 1.391 . S
C319 C318 1.386 . S
C319 C323 1.393 . S
C320 H309 0.950 . S
C320 C318 1.391 . S
C320 C321 1.400 . S
C321 C315 1.491 1_565 S
C321 C320 1.400 . S
C321 C322 1.398 . S
C322 H310 0.950 . S
C322 C321 1.398 . S
C322 C323 1.391 . S
C323 H311 0.950 . S
C323 C319 1.393 . S
C323 C322 1.391 . S
H324 C332 0.950 . S
H325 C337 0.950 . S
H326 C334 0.950 . S
H327 C336 0.950 . S
H328 C338 0.950 . S
H329 C340 0.950 . S
H330 C342 0.950 . S
H331 C343 0.950 . S
C332 H324 0.950 . S
C332 C333 1.386 . S
C332 C334 1.391 . S
C333 C332 1.386 . S
C333 C337 1.393 . S
C334 H326 0.950 . S
C334 C332 1.391 . S
C334 C335 1.400 . S
C335 C334 1.400 . S
C335 C336 1.398 . S
C335 C341 1.491 1_655 S
C336 H327 0.950 . S
C336 C335 1.398 . S
C336 C337 1.391 . S
C337 H325 0.950 . S
C337 C333 1.393 . S
C337 C336 1.391 . S
C338 H328 0.950 . S
C338 C339 1.386 . S
C338 C340 1.391 . S
C339 C338 1.386 . S
C339 C343 1.393 . S
C340 H329 0.950 . S
C340 C338 1.391 . S
C340 C341 1.400 . S
C341 C335 1.491 1_455 S
C341 C340 1.400 . S
C341 C342 1.398 . S
C342 H330 0.950 . S
C342 C341 1.398 . S
C342 C343 1.391 . S
C343 H331 0.950 . S
C343 C339 1.393 . S
C343 C342 1.391 . S
H344 C352 0.950 . S
H345 C357 0.950 . S
H346 C354 0.950 . S
H347 C356 0.950 . S
H348 C358 0.950 . S
H349 C360 0.950 . S
H350 C362 0.950 . S
H351 C363 0.950 . S
C352 H344 0.950 . S
C352 C353 1.386 . S
C352 C354 1.391 . S
C353 C352 1.386 . S
C353 C357 1.393 . S
C354 H346 0.950 . S
C354 C352 1.391 . S
C354 C355 1.400 . S
C355 C354 1.400 . S
C355 C356 1.398 . S
C355 C361 1.491 1_545 S
C356 H347 0.950 . S
C356 C355 1.398 . S
C356 C357 1.391 . S
C357 H345 0.950 . S
C357 C353 1.393 . S
C357 C356 1.391 . S
C358 H348 0.950 . S
C358 C359 1.386 . S
C358 C360 1.391 . S
C359 C358 1.386 . S
C359 C363 1.393 . S
C360 H349 0.950 . S
C360 C358 1.391 . S
C360 C361 1.400 . S
C361 C355 1.491 1_565 S
C361 C360 1.400 . S
C361 C362 1.398 . S
C362 H350 0.950 . S
C362 C361 1.398 . S
C362 C363 1.391 . S
C363 H351 0.950 . S
C363 C359 1.393 . S
C363 C362 1.391 . S
H364 C372 0.950 . S
H365 C377 0.950 . S
H366 C374 0.950 . S
H367 C376 0.950 . S
H368 C378 0.950 . S
H369 C380 0.950 . S
H370 C382 0.950 . S
H371 C383 0.950 . S
C372 H364 0.950 . S
C372 C373 1.386 . S
C372 C374 1.391 . S
C373 C372 1.386 . S
C373 C377 1.393 . S
C374 H366 0.950 . S
C374 C372 1.391 . S
C374 C375 1.400 . S
C375 C374 1.400 . S
C375 C376 1.398 . S
C375 C381 1.491 1_455 S
C376 H367 0.950 . S
C376 C375 1.398 . S
C376 C377 1.391 . S
C377 H365 0.950 . S
C377 C373 1.393 . S
C377 C376 1.391 . S
C378 H368 0.950 . S
C378 C379 1.386 . S
C378 C380 1.391 . S
C379 C378 1.386 . S
C379 C383 1.393 . S
C380 H369 0.950 . S
C380 C378 1.391 . S
C380 C381 1.400 . S
C381 C375 1.491 1_655 S
C381 C380 1.400 . S
C381 C382 1.398 . S
C382 H370 0.950 . S
C382 C381 1.398 . S
C382 C383 1.391 . S
C383 H371 0.950 . S
C383 C379 1.393 . S
C383 C382 1.391 . S
H384 C392 0.950 . S
H385 C397 0.950 . S
H386 C394 0.950 . S
H387 C396 0.950 . S
H388 C398 0.950 . S
H389 C400 0.950 . S
H390 C402 0.950 . S
H391 C403 0.950 . S
C392 H384 0.950 . S
C392 C393 1.386 . S
C392 C394 1.391 . S
C393 C392 1.386 . S
C393 C397 1.393 1_554 S
C394 H386 0.950 . S
C394 C392 1.391 . S
C394 C395 1.400 . S
C395 C394 1.400 . S
C395 C396 1.398 1_554 S
C395 C401 1.491 . S
C396 H387 0.950 . S
C396 C395 1.398 1_556 S
C396 C397 1.391 . S
C397 H385 0.950 . S
C397 C393 1.393 1_556 S
C397 C396 1.391 . S
C398 H388 0.950 . S
C398 C399 1.386 1_556 S
C398 C400 1.391 . S
C399 C398 1.386 1_554 S
C399 C403 1.393 . S
C400 H389 0.950 . S
C400 C398 1.391 . S
C400 C401 1.400 1_556 S
C401 C395 1.491 . S
C401 C400 1.400 1_554 S
C401 C402 1.398 . S
C402 H390 0.950 . S
C402 C401 1.398 . S
C402 C403 1.391 . S
C403 H391 0.950 . S
C403 C399 1.393 . S
C403 C402 1.391 . S
H404 C412 0.950 . S
H405 C417 0.950 . S
H406 C414 0.950 . S
H407 C416 0.950 . S
H408 C418 0.950 . S
H409 C420 0.950 . S
H410 C422 0.950 . S
H411 C423 0.950 . S
C412 H404 0.950 . S
C412 C413 1.386 . S
C412 C414 1.391 . S
C413 C412 1.386 . S
C413 C417 1.393 1_554 S
C414 H406 0.950 . S
C414 C412 1.391 . S
C414 C415 1.400 . S
C415 C414 1.400 . S
C415 C416 1.398 1_554 S
C415 C421 1.491 . S
C416 H407 0.950 . S
C416 C415 1.398 1_556 S
C416 C417 1.391 . S
C417 H405 0.950 . S
C417 C413 1.393 1_556 S
C417 C416 1.391 . S
C418 H408 0.950 . S
C418 C419 1.386 1_556 S
C418 C420 1.391 . S
C419 C418 1.386 1_554 S
C419 C423 1.393 . S
C420 H409 0.950 . S
C420 C418 1.391 . S
C420 C421 1.400 1_556 S
C421 C415 1.491 . S
C421 C420 1.400 1_554 S
C421 C422 1.398 . S
C422 H410 0.950 . S
C422 C421 1.398 . S
C422 C423 1.391 . S
C423 H411 0.950 . S
C423 C419 1.393 . S
C423 C422 1.391 . S
H424 C432 0.950 . S
H425 C437 0.950 . S
H426 C434 0.950 . S
H427 C436 0.950 . S
H428 C438 0.950 . S
H429 C440 0.950 . S
H430 C442 0.950 . S
H431 C443 0.950 . S
C432 H424 0.950 . S
C432 C433 1.386 . S
C432 C434 1.391 . S
C433 C432 1.386 . S
C433 C437 1.393 1_554 S
C434 H426 0.950 . S
C434 C432 1.391 . S
C434 C435 1.400 . S
C435 C434 1.400 . S
C435 C436 1.398 1_554 S
C435 C441 1.491 . S
C436 H427 0.950 . S
C436 C435 1.398 1_556 S
C436 C437 1.391 . S
C437 H425 0.950 . S
C437 C433 1.393 1_556 S
C437 C436 1.391 . S
C438 H428 0.950 . S
C438 C439 1.386 1_556 S
C438 C440 1.391 . S
C439 C438 1.386 1_554 S
C439 C443 1.393 . S
C440 H429 0.950 . S
C440 C438 1.391 . S
C440 C441 1.400 1_556 S
C441 C435 1.491 . S
C441 C440 1.400 1_554 S
C441 C442 1.398 . S
C442 H430 0.950 . S
C442 C441 1.398 . S
C442 C443 1.391 . S
C443 H431 0.950 . S
C443 C439 1.393 . S
C443 C442 1.391 . S
H444 C452 0.950 . S
H445 C457 0.950 . S
H446 C454 0.950 . S
H447 C456 0.950 . S
H448 C458 0.950 . S
H449 C460 0.950 . S
H450 C462 0.950 . S
H451 C463 0.950 . S
C452 H444 0.950 . S
C452 C453 1.386 . S
C452 C454 1.391 . S
C453 C452 1.386 . S
C453 C457 1.393 1_554 S
C454 H446 0.950 . S
C454 C452 1.391 . S
C454 C455 1.400 . S
C455 C454 1.400 . S
C455 C456 1.398 1_554 S
C455 C461 1.491 . S
C456 H447 0.950 . S
C456 C455 1.398 1_556 S
C456 C457 1.391 . S
C457 H445 0.950 . S
C457 C453 1.393 1_556 S
C457 C456 1.391 . S
C458 H448 0.950 . S
C458 C459 1.386 1_556 S
C458 C460 1.391 . S
C459 C458 1.386 1_554 S
C459 C463 1.393 . S
C460 H449 0.950 . S
C460 C458 1.391 . S
C460 C461 1.400 1_556 S
C461 C455 1.491 . S
C461 C460 1.400 1_554 S
C461 C462 1.398 . S
C462 H450 0.950 . S
C462 C461 1.398 . S
C462 C463 1.391 . S
C463 H451 0.950 . S
C463 C459 1.393 . S
C463 C462 1.391 . S
H464 C472 0.950 . S
H465 C477 0.950 . S
H466 C474 0.950 . S
H467 C476 0.950 . S
H468 C478 0.950 . S
H469 C480 0.950 . S
H470 C482 0.950 . S
H471 C483 0.950 . S
C472 H464 0.950 . S
C472 C473 1.386 . S
C472 C474 1.391 . S
C473 C472 1.386 . S
C473 C477 1.393 . S
C474 H466 0.950 . S
C474 C472 1.391 . S
C474 C475 1.400 . S
C475 C474 1.400 . S
C475 C476 1.398 . S
C475 C481 1.491 . S
C476 H467 0.950 . S
C476 C475 1.398 . S
C476 C477 1.391 . S
C477 H465 0.950 . S
C477 C473 1.393 . S
C477 C476 1.391 . S
C478 H468 0.950 . S
C478 C479 1.386 . S
C478 C480 1.391 . S
C479 C478 1.386 . S
C479 C483 1.393 . S
C480 H469 0.950 . S
C480 C478 1.391 . S
C480 C481 1.400 . S
C481 C475 1.491 . S
C481 C480 1.400 . S
C481 C482 1.398 . S
C482 H470 0.950 . S
C482 C481 1.398 . S
C482 C483 1.391 . S
C483 H471 0.950 . S
C483 C479 1.393 . S
C483 C482 1.391 . S
H484 C492 0.950 . S
H485 C497 0.950 . S
H486 C494 0.950 . S
H487 C496 0.950 . S
H488 C498 0.950 . S
H489 C500 0.950 . S
H490 C502 0.950 . S
H491 C503 0.950 . S
C492 H484 0.950 . S
C492 C493 1.386 . S
C492 C494 1.391 . S
C493 C492 1.386 . S
C493 C497 1.393 . S
C494 H486 0.950 . S
C494 C492 1.391 . S
C494 C495 1.400 . S
C495 C494 1.400 . S
C495 C496 1.398 . S
C495 C501 1.491 . S
C496 H487 0.950 . S
C496 C495 1.398 . S
C496 C497 1.391 . S
C497 H485 0.950 . S
C497 C493 1.393 . S
C497 C496 1.391 . S
C498 H488 0.950 . S
C498 C499 1.386 . S
C498 C500 1.391 . S
C499 C498 1.386 . S
C499 C503 1.393 . S
C500 H489 0.950 . S
C500 C498 1.391 . S
C500 C501 1.400 . S
C501 C495 1.491 . S
C501 C500 1.400 . S
C501 C502 1.398 . S
C502 H490 0.950 . S
C502 C501 1.398 . S
C502 C503 1.391 . S
C503 H491 0.950 . S
C503 C499 1.393 . S
C503 C502 1.391 . S
H504 C512 0.950 . S
H505 C517 0.950 . S
H506 C514 0.950 . S
H507 C516 0.950 . S
H508 C518 0.950 . S
H509 C520 0.950 . S
H510 C522 0.950 . S
H511 C523 0.950 . S
C512 H504 0.950 . S
C512 C513 1.386 . S
C512 C514 1.391 . S
C513 C512 1.386 . S
C513 C517 1.393 . S
C514 H506 0.950 . S
C514 C512 1.391 . S
C514 C515 1.400 . S
C515 C514 1.400 . S
C515 C516 1.398 . S
C515 C521 1.491 . S
C516 H507 0.950 . S
C516 C515 1.398 . S
C516 C517 1.391 . S
C517 H505 0.950 . S
C517 C513 1.393 . S
C517 C516 1.391 . S
C518 H508 0.950 . S
C518 C519 1.386 . S
C518 C520 1.391 . S
C519 C518 1.386 . S
C519 C523 1.393 . S
C520 H509 0.950 . S
C520 C518 1.391 . S
C520 C521 1.400 . S
C521 C515 1.491 . S
C521 C520 1.400 . S
C521 C522 1.398 . S
C522 H510 0.950 . S
C522 C521 1.398 . S
C522 C523 1.391 . S
C523 H511 0.950 . S
C523 C519 1.393 . S
C523 C522 1.391 . S
H524 C532 0.950 . S
H525 C537 0.950 . S
H526 C534 0.950 . S
H527 C536 0.950 . S
H528 C538 0.950 . S
H529 C540 0.950 . S
H530 C542 0.950 . S
H531 C543 0.950 . S
C532 H524 0.950 . S
C532 C533 1.386 . S
C532 C534 1.391 . S
C533 C532 1.386 . S
C533 C537 1.393 . S
C534 H526 0.950 . S
C534 C532 1.391 . S
C534 C535 1.400 . S
C535 C534 1.400 . S
C535 C536 1.398 . S
C535 C541 1.491 . S
C536 H527 0.950 . S
C536 C535 1.398 . S
C536 C537 1.391 . S
C537 H525 0.950 . S
C537 C533 1.393 . S
C537 C536 1.391 . S
C538 H528 0.950 . S
C538 C539 1.386 . S
C538 C540 1.391 . S
C539 C538 1.386 . S
C539 C543 1.393 . S
C540 H529 0.950 . S
C540 C538 1.391 . S
C540 C541 1.400 . S
C541 C535 1.491 . S
C541 C540 1.400 . S
C541 C542 1.398 . S
C542 H530 0.950 . S
C542 C541 1.398 . S
C542 C543 1.391 . S
C543 H531 0.950 . S
C543 C539 1.393 . S
C543 C542 1.391 . S
H544 C552 0.950 . S
H545 C557 0.950 . S
H546 C554 0.950 . S
H547 C556 0.950 . S
H548 C558 0.950 . S
H549 C560 0.950 . S
H550 C562 0.950 . S
H551 C563 0.950 . S
C552 H544 0.950 . S
C552 C553 1.386 . S
C552 C554 1.391 . S
C553 C552 1.386 . S
C553 C557 1.393 . S
C554 H546 0.950 . S
C554 C552 1.391 . S
C554 C555 1.400 . S
C555 C554 1.400 . S
C555 C556 1.398 . S
C555 C561 1.491 . S
C556 H547 0.950 . S
C556 C555 1.398 . S
C556 C557 1.391 . S
C557 H545 0.950 . S
C557 C553 1.393 . S
C557 C556 1.391 . S
C558 H548 0.950 . S
C558 C559 1.386 . S
C558 C560 1.391 . S
C559 C558 1.386 . S
C559 C563 1.393 . S
C560 H549 0.950 . S
C560 C558 1.391 . S
C560 C561 1.400 . S
C561 C555 1.491 . S
C561 C560 1.400 . S
C561 C562 1.398 . S
C562 H550 0.950 . S
C562 C561 1.398 . S
C562 C563 1.391 . S
C563 H551 0.950 . S
C563 C559 1.393 . S
C563 C562 1.391 . S
H564 C572 0.950 . S
H565 C577 0.950 . S
H566 C574 0.950 . S
H567 C576 0.950 . S
H568 C578 0.950 . S
H569 C580 0.950 . S
H570 C582 0.950 . S
H571 C583 0.950 . S
C572 H564 0.950 . S
C572 C573 1.386 . S
C572 C574 1.391 . S
C573 C572 1.386 . S
C573 C577 1.393 . S
C574 H566 0.950 . S
C574 C572 1.391 . S
C574 C575 1.400 . S
C575 C574 1.400 . S
C575 C576 1.398 . S
C575 C581 1.491 . S
C576 H567 0.950 . S
C576 C575 1.398 . S
C576 C577 1.391 . S
C577 H565 0.950 . S
C577 C573 1.393 . S
C577 C576 1.391 . S
C578 H568 0.950 . S
C578 C579 1.386 . S
C578 C580 1.391 . S
C579 C578 1.386 . S
C579 C583 1.393 . S
C580 H569 0.950 . S
C580 C578 1.391 . S
C580 C581 1.400 . S
C581 C575 1.491 . S
C581 C580 1.400 . S
C581 C582 1.398 . S
C582 H570 0.950 . S
C582 C581 1.398 . S
C582 C583 1.391 . S
C583 H571 0.950 . S
C583 C579 1.393 . S
C583 C582 1.391 . S
H584 C592 0.950 . S
H585 C597 0.950 . S
H586 C594 0.950 . S
H587 C596 0.950 . S
H588 C598 0.950 . S
H589 C600 0.950 . S
H590 C602 0.950 . S
H591 C603 0.950 . S
C592 H584 0.950 . S
C592 C593 1.386 . S
C592 C594 1.391 . S
C593 C592 1.386 . S
C593 C597 1.393 . S
C594 H586 0.950 . S
C594 C592 1.391 . S
C594 C595 1.400 . S
C595 C594 1.400 . S
C595 C596 1.398 . S
C595 C601 1.491 . S
C596 H587 0.950 . S
C596 C595 1.398 . S
C596 C597 1.391 . S
C597 H585 0.950 . S
C597 C593 1.393 . S
C597 C596 1.391 . S
C598 H588 0.950 . S
C598 C599 1.386 . S
C598 C600 1.391 . S
C599 C598 1.386 . S
C599 C603 1.393 . S
C600 H589 0.950 . S
C600 C598 1.391 . S
C600 C601 1.400 . S
C601 C595 1.491 . S
C601 C600 1.400 . S
C601 C602 1.398 . S
C602 H590 0.950 . S
C602 C601 1.398 . S
C602 C603 1.391 . S
C603 H591 0.950 . S
C603 C599 1.393 . S
C603 C602 1.391 . S
H604 C612 0.950 . S
H605 C617 0.950 . S
H606 C614 0.950 . S
H607 C616 0.950 . S
H608 C618 0.950 . S
H609 C620 0.950 . S
H610 C622 0.950 . S
H611 C623 0.950 . S
C612 H604 0.950 . S
C612 C613 1.386 . S
C612 C614 1.391 . S
C613 C612 1.386 . S
C613 C617 1.393 . S
C614 H606 0.950 . S
C614 C612 1.391 . S
C614 C615 1.400 . S
C615 C614 1.400 . S
C615 C616 1.398 . S
C615 C621 1.491 . S
C616 H607 0.950 . S
C616 C615 1.398 . S
C616 C617 1.391 . S
C617 H605 0.950 . S
C617 C613 1.393 . S
C617 C616 1.391 . S
C618 H608 0.950 . S
C618 C619 1.386 . S
C618 C620 1.391 . S
C619 C618 1.386 . S
C619 C623 1.393 . S
C620 H609 0.950 . S
C620 C618 1.391 . S
C620 C621 1.400 . S
C621 C615 1.491 . S
C621 C620 1.400 . S
C621 C622 1.398 . S
C622 H610 0.950 . S
C622 C621 1.398 . S
C622 C623 1.391 . S
C623 H611 0.950 . S
C623 C619 1.393 . S
C623 C622 1.391 . S
H624 C632 0.950 . S
H625 C637 0.950 . S
H626 C634 0.950 . S
H627 C636 0.950 . S
H628 C638 0.950 . S
H629 C640 0.950 . S
H630 C642 0.950 . S
H631 C643 0.950 . S
C632 H624 0.950 . S
C632 C633 1.386 . S
C632 C634 1.391 . S
C633 C632 1.386 . S
C633 C637 1.393 . S
C634 H626 0.950 . S
C634 C632 1.391 . S
C634 C635 1.400 . S
C635 C634 1.400 . S
C635 C636 1.398 . S
C635 C641 1.491 . S
C636 H627 0.950 . S
C636 C635 1.398 . S
C636 C637 1.391 . S
C637 H625 0.950 . S
C637 C633 1.393 . S
C637 C636 1.391 . S
C638 H628 0.950 . S
C638 C639 1.386 . S
C638 C640 1.391 . S
C639 C638 1.386 . S
C639 C643 1.393 . S
C640 H629 0.950 . S
C640 C638 1.391 . S
C640 C641 1.400 . S
C641 C635 1.491 . S
C641 C640 1.400 . S
C641 C642 1.398 . S
C642 H630 0.950 . S
C642 C641 1.398 . S
C642 C643 1.391 . S
C643 H631 0.950 . S
C643 C639 1.393 . S
C643 C642 1.391 . S
H644 C652 0.950 . S
H645 C657 0.950 . S
H646 C654 0.950 . S
H647 C656 0.950 . S
H648 C658 0.950 . S
H649 C660 0.950 . S
H650 C662 0.950 . S
H651 C663 0.950 . S
C652 H644 0.950 . S
C652 C653 1.386 . S
C652 C654 1.391 . S
C653 C652 1.386 . S
C653 C657 1.393 . S
C654 H646 0.950 . S
C654 C652 1.391 . S
C654 C655 1.400 . S
C655 C654 1.400 . S
C655 C656 1.398 . S
C655 C661 1.491 . S
C656 H647 0.950 . S
C656 C655 1.398 . S
C656 C657 1.391 . S
C657 H645 0.950 . S
C657 C653 1.393 . S
C657 C656 1.391 . S
C658 H648 0.950 . S
C658 C659 1.386 . S
C658 C660 1.391 . S
C659 C658 1.386 . S
C659 C663 1.393 . S
C660 H649 0.950 . S
C660 C658 1.391 . S
C660 C661 1.400 . S
C661 C655 1.491 . S
C661 C660 1.400 . S
C661 C662 1.398 . S
C662 H650 0.950 . S
C662 C661 1.398 . S
C662 C663 1.391 . S
C663 H651 0.950 . S
C663 C659 1.393 . S
C663 C662 1.391 . S
H664 C672 0.950 . S
H665 C677 0.950 . S
H666 C674 0.950 . S
H667 C676 0.950 . S
H668 C678 0.950 . S
H669 C680 0.950 . S
H670 C682 0.950 . S
H671 C683 0.950 . S
C672 H664 0.950 . S
C672 C673 1.386 . S
C672 C674 1.391 . S
C673 C672 1.386 . S
C673 C677 1.393 . S
C674 H666 0.950 . S
C674 C672 1.391 . S
C674 C675 1.400 . S
C675 C674 1.400 . S
C675 C676 1.398 . S
C675 C681 1.491 . S
C676 H667 0.950 . S
C676 C675 1.398 . S
C676 C677 1.391 . S
C677 H665 0.950 . S
C677 C673 1.393 . S
C677 C676 1.391 . S
C678 H668 0.950 . S
C678 C679 1.386 . S
C678 C680 1.391 . S
C679 C678 1.386 . S
C679 C683 1.393 . S
C680 H669 0.950 . S
C680 C678 1.391 . S
C680 C681 1.400 . S
C681 C675 1.491 . S
C681 C680 1.400 . S
C681 C682 1.398 . S
C682 H670 0.950 . S
C682 C681 1.398 . S
C682 C683 1.391 . S
C683 H671 0.950 . S
C683 C679 1.393 . S
C683 C682 1.391 . S
H684 C692 0.950 . S
H685 C697 0.950 . S
H686 C694 0.950 . S
H687 C696 0.950 . S
H688 C698 0.950 . S
H689 C700 0.950 . S
H690 C702 0.950 . S
H691 C703 0.950 . S
C692 H684 0.950 . S
C692 C693 1.386 . S
C692 C694 1.391 . S
C693 C692 1.386 . S
C693 C697 1.393 . S
C694 H686 0.950 . S
C694 C692 1.391 . S
C694 C695 1.400 . S
C695 C694 1.400 . S
C695 C696 1.398 . S
C695 C701 1.491 . S
C696 H687 0.950 . S
C696 C695 1.398 . S
C696 C697 1.391 . S
C697 H685 0.950 . S
C697 C693 1.393 . S
C697 C696 1.391 . S
C698 H688 0.950 . S
C698 C699 1.386 . S
C698 C700 1.391 . S
C699 C698 1.386 . S
C699 C703 1.393 . S
C700 H689 0.950 . S
C700 C698 1.391 . S
C700 C701 1.400 . S
C701 C695 1.491 . S
C701 C700 1.400 . S
C701 C702 1.398 . S
C702 H690 0.950 . S
C702 C701 1.398 . S
C702 C703 1.391 . S
C703 H691 0.950 . S
C703 C699 1.393 . S
C703 C702 1.391 . S
H704 C712 0.950 . S
H705 C717 0.950 . S
H706 C714 0.950 . S
H707 C716 0.950 . S
H708 C718 0.950 . S
H709 C720 0.950 . S
H710 C722 0.950 . S
H711 C723 0.950 . S
C712 H704 0.950 . S
C712 C713 1.386 . S
C712 C714 1.391 . S
C713 C712 1.386 . S
C713 C717 1.393 . S
C714 H706 0.950 . S
C714 C712 1.391 . S
C714 C715 1.400 . S
C715 C714 1.400 . S
C715 C716 1.398 . S
C715 C721 1.491 . S
C716 H707 0.950 . S
C716 C715 1.398 . S
C716 C717 1.391 . S
C717 H705 0.950 . S
C717 C713 1.393 . S
C717 C716 1.391 . S
C718 H708 0.950 . S
C718 C719 1.386 . S
C718 C720 1.391 . S
C719 C718 1.386 . S
C719 C723 1.393 . S
C720 H709 0.950 . S
C720 C718 1.391 . S
C720 C721 1.400 . S
C721 C715 1.491 . S
C721 C720 1.400 . S
C721 C722 1.398 . S
C722 H710 0.950 . S
C722 C721 1.398 . S
C722 C723 1.391 . S
C723 H711 0.950 . S
C723 C719 1.393 . S
C723 C722 1.391 . S
H724 C732 0.950 . S
H725 C737 0.950 . S
H726 C734 0.950 . S
H727 C736 0.950 . S
H728 C738 0.950 . S
H729 C740 0.950 . S
H730 C742 0.950 . S
H731 C743 0.950 . S
C732 H724 0.950 . S
C732 C733 1.386 . S
C732 C734 1.391 . S
C733 C732 1.386 . S
C733 C737 1.393 . S
C734 H726 0.950 . S
C734 C732 1.391 . S
C734 C735 1.400 . S
C735 C734 1.400 . S
C735 C736 1.398 . S
C735 C741 1.491 . S
C736 H727 0.950 . S
C736 C735 1.398 . S
C736 C737 1.391 . S
C737 H725 0.950 . S
C737 C733 1.393 . S
C737 C736 1.391 . S
C738 H728 0.950 . S
C738 C739 1.386 . S
C738 C740 1.391 . S
C739 C738 1.386 . S
C739 C743 1.393 . S
C740 H729 0.950 . S
C740 C738 1.391 . S
C740 C741 1.400 . S
C741 C735 1.491 . S
C741 C740 1.400 . S
C741 C742 1.398 . S
C742 H730 0.950 . S
C742 C741 1.398 . S
C742 C743 1.391 . S
C743 H731 0.950 . S
C743 C739 1.393 . S
C743 C742 1.391 . S
H744 C752 0.950 . S
H745 C757 0.950 . S
H746 C754 0.950 . S
H747 C756 0.950 . S
H748 C758 0.950 . S
H749 C760 0.950 . S
H750 C762 0.950 . S
H751 C763 0.950 . S
C752 H744 0.950 . S
C752 C753 1.386 . S
C752 C754 1.391 . S
C753 C752 1.386 . S
C753 C757 1.393 . S
C754 H746 0.950 . S
C754 C752 1.391 . S
C754 C755 1.400 . S
C755 C754 1.400 . S
C755 C756 1.398 . S
C755 C761 1.491 . S
C756 H747 0.950 . S
C756 C755 1.398 . S
C756 C757 1.391 . S
C757 H745 0.950 . S
C757 C753 1.393 . S
C757 C756 1.391 . S
C758 H748 0.950 . S
C758 C759 1.386 . S
C758 C760 1.391 . S
C759 C758 1.386 . S
C759 C763 1.393 . S
C760 H749 0.950 . S
C760 C758 1.391 . S
C760 C761 1.400 . S
C761 C755 1.491 . S
C761 C760 1.400 . S
C761 C762 1.398 . S
C762 H750 0.950 . S
C762 C761 1.398 . S
C762 C763 1.391 . S
C763 H751 0.950 . S
C763 C759 1.393 . S
C763 C762 1.391 . S
H764 C772 0.950 . S
H765 C777 0.950 . S
H766 C774 0.950 . S
H767 C776 0.950 . S
H768 C778 0.950 . S
H769 C780 0.950 . S
H770 C782 0.950 . S
H771 C783 0.950 . S
C772 H764 0.950 . S
C772 C773 1.386 . S
C772 C774 1.391 . S
C773 C772 1.386 . S
C773 C777 1.393 . S
C774 H766 0.950 . S
C774 C772 1.391 . S
C774 C775 1.400 . S
C775 C774 1.400 . S
C775 C776 1.398 . S
C775 C781 1.491 . S
C776 H767 0.950 . S
C776 C775 1.398 . S
C776 C777 1.391 . S
C777 H765 0.950 . S
C777 C773 1.393 . S
C777 C776 1.391 . S
C778 H768 0.950 . S
C778 C779 1.386 . S
C778 C780 1.391 . S
C779 C778 1.386 . S
C779 C783 1.393 . S
C780 H769 0.950 . S
C780 C778 1.391 . S
C780 C781 1.400 . S
C781 C775 1.491 . S
C781 C780 1.400 . S
C781 C782 1.398 . S
C782 H770 0.950 . S
C782 C781 1.398 . S
C782 C783 1.391 . S
C783 H771 0.950 . S
C783 C779 1.393 . S
C783 C782 1.391 . S
H784 C792 0.950 . S
H785 C797 0.950 . S
H786 C794 0.950 . S
H787 C796 0.950 . S
H788 C798 0.950 . S
H789 C800 0.950 . S
H790 C802 0.950 . S
H791 C803 0.950 . S
C792 H784 0.950 . S
C792 C793 1.386 . S
C792 C794 1.391 . S
C793 C792 1.386 . S
C793 C797 1.393 . S
C794 H786 0.950 . S
C794 C792 1.391 . S
C794 C795 1.400 . S
C795 C794 1.400 . S
C795 C796 1.398 . S
C795 C801 1.491 . S
C796 H787 0.950 . S
C796 C795 1.398 . S
C796 C797 1.391 . S
C797 H785 0.950 . S
C797 C793 1.393 . S
C797 C796 1.391 . S
C798 H788 0.950 . S
C798 C799 1.386 . S
C798 C800 1.391 . S
C799 C798 1.386 . S
C799 C803 1.393 . S
C800 H789 0.950 . S
C800 C798 1.391 . S
C800 C801 1.400 . S
C801 C795 1.491 . S
C801 C800 1.400 . S
C801 C802 1.398 . S
C802 H790 0.950 . S
C802 C801 1.398 . S
C802 C803 1.391 . S
C803 H791 0.950 . S
C803 C799 1.393 . S
C803 C802 1.391 . S
H804 C812 0.950 . S
H805 C817 0.950 . S
H806 C814 0.950 . S
H807 C816 0.950 . S
H808 C818 0.950 . S
H809 C820 0.950 . S
H810 C822 0.950 . S
H811 C823 0.950 . S
C812 H804 0.950 . S
C812 C813 1.386 . S
C812 C814 1.391 . S
C813 C812 1.386 . S
C813 C817 1.393 . S
C814 H806 0.950 . S
C814 C812 1.391 . S
C814 C815 1.400 . S
C815 C814 1.400 . S
C815 C816 1.398 . S
C815 C821 1.491 . S
C816 H807 0.950 . S
C816 C815 1.398 . S
C816 C817 1.391 . S
C817 H805 0.950 . S
C817 C813 1.393 . S
C817 C816 1.391 . S
C818 H808 0.950 . S
C818 C819 1.386 . S
C818 C820 1.391 . S
C819 C818 1.386 . S
C819 C823 1.393 . S
C820 H809 0.950 . S
C820 C818 1.391 . S
C820 C821 1.400 . S
C821 C815 1.491 . S
C821 C820 1.400 . S
C821 C822 1.398 . S
C822 H810 0.950 . S
C822 C821 1.398 . S
C822 C823 1.391 . S
C823 H811 0.950 . S
C823 C819 1.393 . S
C823 C822 1.391 . S
H824 C832 0.950 . S
H825 C837 0.950 . S
H826 C834 0.950 . S
H827 C836 0.950 . S
H828 C838 0.950 . S
H829 C840 0.950 . S
H830 C842 0.950 . S
H831 C843 0.950 . S
C832 H824 0.950 . S
C832 C833 1.386 . S
C832 C834 1.391 . S
C833 C832 1.386 . S
C833 C837 1.393 . S
C834 H826 0.950 . S
C834 C832 1.391 . S
C834 C835 1.400 . S
C835 C834 1.400 . S
C835 C836 1.398 . S
C835 C841 1.491 . S
C836 H827 0.950 . S
C836 C835 1.398 . S
C836 C837 1.391 . S
C837 H825 0.950 . S
C837 C833 1.393 . S
C837 C836 1.391 . S
C838 H828 0.950 . S
C838 C839 1.386 . S
C838 C840 1.391 . S
C839 C838 1.386 . S
C839 C843 1.393 . S
C840 H829 0.950 . S
C840 C838 1.391 . S
C840 C841 1.400 . S
C841 C835 1.491 . S
C841 C840 1.400 . S
C841 C842 1.398 . S
C842 H830 0.950 . S
C842 C841 1.398 . S
C842 C843 1.391 . S
C843 H831 0.950 . S
C843 C839 1.393 . S
C843 C842 1.391 . S
H844 C852 0.950 . S
H845 C857 0.950 . S
H846 C854 0.950 . S
H847 C856 0.950 . S
H848 C858 0.950 . S
H849 C860 0.950 . S
H850 C862 0.950 . S
H851 C863 0.950 . S
C852 H844 0.950 . S
C852 C853 1.386 . S
C852 C854 1.391 . S
C853 C852 1.386 . S
C853 C857 1.393 . S
C854 H846 0.950 . S
C854 C852 1.391 . S
C854 C855 1.400 . S
C855 C854 1.400 . S
C855 C856 1.398 . S
C855 C861 1.491 . S
C856 H847 0.950 . S
C856 C855 1.398 . S
C856 C857 1.391 . S
C857 H845 0.950 . S
C857 C853 1.393 . S
C857 C856 1.391 . S
C858 H848 0.950 . S
C858 C859 1.386 . S
C858 C860 1.391 . S
C859 C858 1.386 . S
C859 C863 1.393 . S
C860 H849 0.950 . S
C860 C858 1.391 . S
C860 C861 1.400 . S
C861 C855 1.491 . S
C861 C860 1.400 . S
C861 C862 1.398 . S
C862 H850 0.950 . S
C862 C861 1.398 . S
C862 C863 1.391 . S
C863 H851 0.950 . S
C863 C859 1.393 . S
C863 C862 1.391 . S
C233 C62 1.565 . S
C239 C6 1.550 . S
C253 C76 1.559 . S
C259 C20 1.553 . S
C273 C90 1.559 . S
C279 C34 1.556 . S
C293 C104 1.564 . S
C299 C48 1.551 . S
C313 C174 1.562 . S
C319 C118 1.551 . S
C333 C188 1.549 . S
C339 C132 1.565 . S
C353 C146 1.565 . S
C359 C202 1.549 . S
C373 C216 1.549 . S
C379 C160 1.565 . S
C393 C9 1.520 . S
C399 C79 1.530 . S
C413 C93 1.524 . S
C419 C23 1.510 . S
C433 C37 1.521 . S
C439 C107 1.530 . S
C453 C65 1.530 . S
C459 C51 1.520 . S
C473 C191 1.515 . S
C479 C121 1.529 . S
C493 C205 1.524 . S
C499 C135 1.511 . S
C513 C149 1.516 . S
C519 C219 1.530 . S
C533 C163 1.528 . S
C539 C177 1.524 . S
C553 C218 1.950 . S
C559 C8 1.950 . S
C573 C176 1.961 . S
C579 C22 1.961 . S
C593 C190 1.955 . S
C599 C36 1.955 . S
C613 C204 1.952 . S
C619 C50 1.952 . S
C633 C134 1.950 . S
C639 C64 1.950 . S
C653 C148 1.958 . S
C659 C78 1.958 . S
C673 C92 1.950 . S
C679 C162 1.950 . S
C693 C106 1.953 . S
C699 C120 1.954 . S
C713 C189 0.996 . S
C719 C35 0.993 . S
C733 C203 0.994 . S
C739 C49 0.999 . S
C753 C217 0.994 . S
C759 C7 1.000 . S
C773 C21 0.995 . S
C779 C175 0.993 . S
C793 C161 1.009 . S
C799 C91 1.001 . S
C813 C105 0.998 . S
C819 C119 1.006 . S
C833 C133 1.010 . S
C839 C63 1.014 . S
C853 C147 1.011 . S
C859 C77 1.014 . S
