# Generated by pormake.
# Topology wgc, (5)-cn, num edge types: 1
# Building blocks:
#     Node 0, Type 0, BuildingBlock: XOMCOT_clean_sbu_0, # of connection points: 5
#     Node 1, Type 0, BuildingBlock: XOMCOT_clean_sbu_0, # of connection points: 5
#     Node 2, Type 0, BuildingBlock: XOMCOT_clean_sbu_0, # of connection points: 5
#     Node 3, Type 0, BuildingBlock: XOMCOT_clean_sbu_0, # of connection points: 5
#     Node 4, Type 0, BuildingBlock: XOMCOT_clean_sbu_0, # of connection points: 5
#     Node 5, Type 0, BuildingBlock: XOMCOT_clean_sbu_0, # of connection points: 5
#     Node 6, Type 0, BuildingBlock: XOMCOT_clean_sbu_0, # of connection points: 5
#     Node 7, Type 0, BuildingBlock: XOMCOT_clean_sbu_0, # of connection points: 5
#     Node 8, Type 0, BuildingBlock: XOMCOT_clean_sbu_0, # of connection points: 5
#     Node 9, Type 0, BuildingBlock: XOMCOT_clean_sbu_0, # of connection points: 5
#     Node 10, Type 0, BuildingBlock: XOMCOT_clean_sbu_0, # of connection points: 5
#     Node 11, Type 0, BuildingBlock: XOMCOT_clean_sbu_0, # of connection points: 5
#     Node 12, Type 0, BuildingBlock: XOMCOT_clean_sbu_0, # of connection points: 5
#     Node 13, Type 0, BuildingBlock: XOMCOT_clean_sbu_0, # of connection points: 5
#     Node 14, Type 0, BuildingBlock: XOMCOT_clean_sbu_0, # of connection points: 5
#     Node 15, Type 0, BuildingBlock: XOMCOT_clean_sbu_0, # of connection points: 5
#     Edge 16, Type (0, 0), BuildingBlock: OJICUG_clean_linker_0, # of connection points: 2
#     Edge 17, Type (0, 0), BuildingBlock: OJICUG_clean_linker_0, # of connection points: 2
#     Edge 18, Type (0, 0), BuildingBlock: OJICUG_clean_linker_0, # of connection points: 2
#     Edge 19, Type (0, 0), BuildingBlock: OJICUG_clean_linker_0, # of connection points: 2
#     Edge 20, Type (0, 0), BuildingBlock: OJICUG_clean_linker_0, # of connection points: 2
#     Edge 21, Type (0, 0), BuildingBlock: OJICUG_clean_linker_0, # of connection points: 2
#     Edge 22, Type (0, 0), BuildingBlock: OJICUG_clean_linker_0, # of connection points: 2
#     Edge 23, Type (0, 0), BuildingBlock: OJICUG_clean_linker_0, # of connection points: 2
#     Edge 24, Type (0, 0), BuildingBlock: OJICUG_clean_linker_0, # of connection points: 2
#     Edge 25, Type (0, 0), BuildingBlock: OJICUG_clean_linker_0, # of connection points: 2
#     Edge 26, Type (0, 0), BuildingBlock: OJICUG_clean_linker_0, # of connection points: 2
#     Edge 27, Type (0, 0), BuildingBlock: OJICUG_clean_linker_0, # of connection points: 2
#     Edge 28, Type (0, 0), BuildingBlock: OJICUG_clean_linker_0, # of connection points: 2
#     Edge 29, Type (0, 0), BuildingBlock: OJICUG_clean_linker_0, # of connection points: 2
#     Edge 30, Type (0, 0), BuildingBlock: OJICUG_clean_linker_0, # of connection points: 2
#     Edge 31, Type (0, 0), BuildingBlock: OJICUG_clean_linker_0, # of connection points: 2
#     Edge 32, Type (0, 0), BuildingBlock: OJICUG_clean_linker_0, # of connection points: 2
#     Edge 33, Type (0, 0), BuildingBlock: OJICUG_clean_linker_0, # of connection points: 2
#     Edge 34, Type (0, 0), BuildingBlock: OJICUG_clean_linker_0, # of connection points: 2
#     Edge 35, Type (0, 0), BuildingBlock: OJICUG_clean_linker_0, # of connection points: 2
#     Edge 36, Type (0, 0), BuildingBlock: OJICUG_clean_linker_0, # of connection points: 2
#     Edge 37, Type (0, 0), BuildingBlock: OJICUG_clean_linker_0, # of connection points: 2
#     Edge 38, Type (0, 0), BuildingBlock: OJICUG_clean_linker_0, # of connection points: 2
#     Edge 39, Type (0, 0), BuildingBlock: OJICUG_clean_linker_0, # of connection points: 2
#     Edge 40, Type (0, 0), BuildingBlock: OJICUG_clean_linker_0, # of connection points: 2
#     Edge 41, Type (0, 0), BuildingBlock: OJICUG_clean_linker_0, # of connection points: 2
#     Edge 42, Type (0, 0), BuildingBlock: OJICUG_clean_linker_0, # of connection points: 2
#     Edge 43, Type (0, 0), BuildingBlock: OJICUG_clean_linker_0, # of connection points: 2
#     Edge 44, Type (0, 0), BuildingBlock: OJICUG_clean_linker_0, # of connection points: 2
#     Edge 45, Type (0, 0), BuildingBlock: OJICUG_clean_linker_0, # of connection points: 2
#     Edge 46, Type (0, 0), BuildingBlock: OJICUG_clean_linker_0, # of connection points: 2
#     Edge 47, Type (0, 0), BuildingBlock: OJICUG_clean_linker_0, # of connection points: 2
#     Edge 48, Type (0, 0), BuildingBlock: OJICUG_clean_linker_0, # of connection points: 2
#     Edge 49, Type (0, 0), BuildingBlock: OJICUG_clean_linker_0, # of connection points: 2
#     Edge 50, Type (0, 0), BuildingBlock: OJICUG_clean_linker_0, # of connection points: 2
#     Edge 51, Type (0, 0), BuildingBlock: OJICUG_clean_linker_0, # of connection points: 2
#     Edge 52, Type (0, 0), BuildingBlock: OJICUG_clean_linker_0, # of connection points: 2
#     Edge 53, Type (0, 0), BuildingBlock: OJICUG_clean_linker_0, # of connection points: 2
#     Edge 54, Type (0, 0), BuildingBlock: OJICUG_clean_linker_0, # of connection points: 2
#     Edge 55, Type (0, 0), BuildingBlock: OJICUG_clean_linker_0, # of connection points: 2
# Relax obj value: 0.137
# Max RMSD: 0.155
# Mean RMSD: 0.154
data_MOF--net-wgc--node1-XOMCOT_clean_sbu_0--edge1-OJICUG_clean_linker_0
_symmetry_space_group_name_H-M    P1
_symmetry_Int_Tables_number       1
_symmetry_cell_setting            triclinic
loop_
_symmetry_equiv_pos_as_xyz
'x, y, z'
_cell_length_a     28.004424
_cell_length_b     27.965901
_cell_length_c     45.380517
_cell_angle_alpha  90.101737
_cell_angle_beta   90.378409
_cell_angle_gamma 90.06114
loop_
_atom_site_label
_atom_site_type_symbol
_atom_site_fract_x
_atom_site_fract_y
_atom_site_fract_z
_atom_type_partial_charge
Co0 Co 0.27576 0.11696 0.9927 0.0
C1 C 0.18204 0.16346 0.99661 0.0
C2 C 0.17483 0.08724 0.99327 0.0
C3 C 0.13003 0.10739 0.99188 0.0
N4 N 0.20729 0.12252 0.99628 0.0
N5 N 0.13469 0.15538 0.99371 0.0
H6 H 0.19839 0.19851 0.99732 0.0
H7 H 0.18311 0.04969 0.99087 0.0
C8 C 0.28079 0.02684 0.03194 0.0
O9 O 0.30373 0.0469 0.05405 0.0
N10 N 0.34486 0.11077 0.98796 0.0
C11 C 0.37443 0.14358 0.9761 0.0
C12 C 0.41984 0.12513 0.97481 0.0
C13 C 0.37295 0.07219 0.99292 0.0
N14 N 0.41905 0.08009 0.98535 0.0
C15 C 0.31468 0.18429 0.03497 0.0
C16 C 0.25587 0.15963 0.08121 0.0
C17 C 0.28869 0.19704 0.08533 0.0
C18 C 0.31842 0.20908 0.06173 0.0
C19 C 0.25374 0.1353 0.05419 0.0
N20 N 0.28353 0.14704 0.03153 0.0
H21 H 0.33584 0.19641 0.01675 0.0
H22 H 0.22759 0.10717 0.05144 0.0
H23 H 0.36398 0.17873 0.96862 0.0
H24 H 0.35985 0.03832 1.00077 0.0
O25 O 0.27448 0.17373 0.96766 0.0
O26 O 0.26639 0.09868 0.95249 0.0
O27 O 0.27065 0.05013 0.00864 0.0
C28 C 0.26526 0.14391 0.94621 0.0
H29 H 0.09677 0.08812 0.98918 0.0
H30 H 0.45094 0.14375 0.96668 0.0
H31 H 0.23197 0.14918 0.09873 0.0
H32 H 0.3433 0.23864 0.06355 0.0
Co33 Co 0.10195 0.7305 0.02783 0.0
C34 C 0.15995 0.81938 0.02356 0.0
C35 C 0.08661 0.83306 0.03426 0.0
C36 C 0.11189 0.87487 0.03759 0.0
N37 N 0.11661 0.7982 0.02555 0.0
N38 N 0.15787 0.86614 0.03104 0.0
H39 H 0.1927 0.80033 0.01893 0.0
H40 H 0.04966 0.82763 0.04016 0.0
C41 C 0.01047 0.73313 0.99012 0.0
O42 O 0.02247 0.697 0.9732 0.0
N43 N 0.08653 0.66212 0.03152 0.0
C44 C 0.11722 0.62769 0.04035 0.0
C45 C 0.09378 0.58453 0.04156 0.0
C46 C 0.04403 0.63899 0.02857 0.0
N47 N 0.04769 0.5914 0.03404 0.0
C48 C 0.16333 0.68818 0.98411 0.0
C49 C 0.133 0.74467 0.93771 0.0
C50 C 0.16793 0.70979 0.93238 0.0
C51 C 0.18329 0.6816 0.95621 0.0
C52 C 0.11437 0.75033 0.96597 0.0
N53 N 0.12824 0.72114 0.98857 0.0
H54 H 0.17715 0.66754 1.00224 0.0
H55 H 0.08889 0.77862 0.9697 0.0
H56 H 0.15442 0.63319 0.04583 0.0
H57 H 0.01063 0.65638 0.02356 0.0
O58 O 0.15945 0.72265 0.05176 0.0
O59 O 0.08717 0.73994 0.0685 0.0
O60 O 0.03679 0.74628 0.01171 0.0
C61 C 0.13256 0.73502 0.07384 0.0
H62 H 0.098 0.90871 0.04536 0.0
H63 H 0.10987 0.5505 0.04705 0.0
H64 H 0.12 0.7676 0.92022 0.0
H65 H 0.21151 0.65553 0.9536 0.0
Co66 Co 0.71427 0.90258 0.98117 0.0
C67 C 0.80741 0.85317 0.97675 0.0
C68 C 0.81155 0.9268 0.96348 0.0
C69 C 0.85609 0.90663 0.9609 0.0
N70 N 0.78128 0.8934 0.97364 0.0
N71 N 0.8535 0.8604 0.96932 0.0
H72 H 0.79334 0.81978 0.98502 0.0
H73 H 0.80189 0.96333 0.95843 0.0
C74 C 0.71658 0.98974 0.02237 0.0
O75 O 0.68526 0.97248 0.04097 0.0
N76 N 0.64642 0.91221 0.98824 0.0
C77 C 0.61307 0.87824 0.99288 0.0
C78 C 0.56903 0.89946 0.99499 0.0
C79 C 0.62158 0.95364 0.98652 0.0
N80 N 0.57428 0.94688 0.99105 0.0
C81 C 0.7032 0.81986 0.01821 0.0
C82 C 0.74555 0.85762 0.06819 0.0
C83 C 0.72308 0.81288 0.07008 0.0
C84 C 0.70314 0.79335 0.04432 0.0
C85 C 0.74514 0.88267 0.04151 0.0
N86 N 0.72095 0.86535 0.0175 0.0
H87 H 0.68854 0.80373 0.99852 0.0
H88 H 0.76477 0.91573 0.04034 0.0
H89 H 0.6192 0.84028 0.99336 0.0
H90 H 0.63772 0.98792 0.98178 0.0
O91 O 0.70022 0.85193 0.95262 0.0
O92 O 0.70644 0.92933 0.94281 0.0
O93 O 0.73082 0.96537 1.0004 0.0
C94 C 0.69987 0.8862 0.93313 0.0
H95 H 0.88802 0.92474 0.95352 0.0
H96 H 0.53538 0.88105 0.99795 0.0
H97 H 0.76373 0.87297 0.08711 0.0
H98 H 0.68665 0.75831 0.04441 0.0
Co99 Co 0.88093 0.29237 0.01406 0.0
C100 C 0.82979 0.20002 0.02 0.0
C101 C 0.90304 0.19488 0.03397 0.0
C102 C 0.88085 0.15177 0.03936 0.0
N103 N 0.87099 0.22506 0.02189 0.0
N104 N 0.8349 0.15513 0.03053 0.0
H105 H 0.79652 0.2146 0.01174 0.0
H106 H 0.93975 0.20393 0.03905 0.0
C107 C 0.98067 0.28914 0.99792 0.0
O108 O 0.98579 0.32434 0.01684 0.0
N109 N 0.89158 0.36053 0.00595 0.0
C110 C 0.88949 0.3809 0.97902 0.0
C111 C 0.90673 0.42686 0.98068 0.0
C112 C 0.91091 0.39493 0.0236 0.0
N113 N 0.92073 0.43576 0.00862 0.0
C114 C 0.79725 0.31162 0.97853 0.0
C115 C 0.82519 0.258 0.93033 0.0
C116 C 0.78248 0.28418 0.92821 0.0
C117 C 0.76831 0.31061 0.95315 0.0
C118 C 0.85252 0.25934 0.95618 0.0
N119 N 0.83932 0.28711 0.97952 0.0
H120 H 0.78651 0.33296 0.99723 0.0
H121 H 0.88466 0.23813 0.95715 0.0
H122 H 0.87926 0.36284 0.95889 0.0
H123 H 0.92018 0.38942 0.04651 0.0
O124 O 0.83477 0.30627 0.04516 0.0
O125 O 0.91289 0.29792 0.0512 0.0
O126 O 0.93881 0.2753 0.99064 0.0
C127 C 0.87141 0.30364 0.06307 0.0
H128 H 0.89733 0.12018 0.04868 0.0
H129 H 0.91198 0.45058 0.96216 0.0
H130 H 0.83839 0.23727 0.91196 0.0
H131 H 0.73519 0.33049 0.95319 0.0
Co132 Co 0.30709 0.40325 0.2815 0.0
C133 C 0.21568 0.35101 0.28233 0.0
C134 C 0.2075 0.42287 0.29829 0.0
C135 C 0.16435 0.3994 0.3009 0.0
N136 N 0.23948 0.39245 0.28657 0.0
N137 N 0.16973 0.3544 0.29074 0.0
H138 H 0.23179 0.31875 0.27373 0.0
H139 H 0.21525 0.45926 0.3049 0.0
C140 C 0.30209 0.48498 0.23661 0.0
O141 O 0.32904 0.4637 0.21699 0.0
N142 N 0.37585 0.41397 0.27733 0.0
C143 C 0.41023 0.38139 0.28297 0.0
C144 C 0.45424 0.40262 0.28074 0.0
C145 C 0.40005 0.4555 0.27305 0.0
N146 N 0.44811 0.44927 0.27447 0.0
C147 C 0.33091 0.32419 0.2427 0.0
C148 C 0.26891 0.34877 0.19759 0.0
C149 C 0.29797 0.3084 0.19397 0.0
C150 C 0.32901 0.29607 0.21712 0.0
C151 C 0.27245 0.37627 0.22335 0.0
N152 N 0.30449 0.36501 0.24517 0.0
H153 H 0.35257 0.31204 0.26081 0.0
H154 H 0.24853 0.40622 0.22597 0.0
H155 H 0.40427 0.34522 0.29028 0.0
H156 H 0.38308 0.48983 0.27002 0.0
O157 O 0.3182 0.35393 0.31145 0.0
O158 O 0.31024 0.43163 0.31969 0.0
O159 O 0.29167 0.46478 0.26085 0.0
C160 C 0.31555 0.38909 0.33042 0.0
H161 H 0.13141 0.41439 0.30915 0.0
H162 H 0.48817 0.38552 0.28525 0.0
H163 H 0.24376 0.3593 0.18058 0.0
H164 H 0.35076 0.26414 0.21583 0.0
Co165 Co 0.37735 0.72531 0.74768 0.0
C166 C 0.3362 0.82334 0.74806 0.0
C167 C 0.36607 0.80369 0.78993 0.0
C168 C 0.34121 0.84563 0.79326 0.0
N169 N 0.36342 0.78966 0.76152 0.0
N170 N 0.32173 0.85762 0.76702 0.0
H171 H 0.32333 0.82066 0.72562 0.0
H172 H 0.38214 0.78325 0.80758 0.0
C173 C 0.46857 0.72738 0.78548 0.0
O174 O 0.48884 0.71021 0.8094 0.0
N175 N 0.38936 0.6606 0.73439 0.0
C176 C 0.3561 0.63109 0.72295 0.0
C177 C 0.37626 0.58685 0.71856 0.0
C178 C 0.42948 0.63402 0.73676 0.0
N179 N 0.42246 0.58846 0.7273 0.0
C180 C 0.28293 0.72299 0.77144 0.0
C181 C 0.30567 0.66522 0.81892 0.0
C182 C 0.2631 0.6916 0.81955 0.0
C183 C 0.25076 0.71886 0.79471 0.0
C184 C 0.33703 0.67078 0.79533 0.0
N185 N 0.3268 0.70199 0.77306 0.0
H186 H 0.27422 0.74628 0.75321 0.0
H187 H 0.37092 0.65237 0.796 0.0
H188 H 0.31922 0.64071 0.71898 0.0
H189 H 0.46281 0.64763 0.74551 0.0
O190 O 0.34153 0.73691 0.71167 0.0
O191 O 0.41909 0.74992 0.71773 0.0
O192 O 0.4249 0.71622 0.78065 0.0
C193 C 0.38179 0.75123 0.70047 0.0
H194 H 0.33604 0.86448 0.81383 0.0
H195 H 0.35753 0.5555 0.71059 0.0
H196 H 0.3164 0.64326 0.83744 0.0
H197 H 0.21761 0.73876 0.79393 0.0
Co198 Co 0.7453 0.62517 0.26933 0.0
C199 C 0.84225 0.67024 0.27097 0.0
C200 C 0.83225 0.62474 0.23336 0.0
C201 C 0.87589 0.64689 0.23112 0.0
N202 N 0.81111 0.63889 0.2585 0.0
N203 N 0.88201 0.67566 0.25473 0.0
H204 H 0.83516 0.69124 0.29044 0.0
H205 H 0.81592 0.60232 0.21674 0.0
C206 C 0.74752 0.52267 0.25915 0.0
O207 O 0.72951 0.52003 0.28576 0.0
N208 N 0.67848 0.61251 0.27958 0.0
C209 C 0.65264 0.63585 0.30009 0.0
C210 C 0.60723 0.61706 0.3008 0.0
C211 C 0.64753 0.58027 0.26773 0.0
N212 N 0.60393 0.5819 0.28054 0.0
C213 C 0.73738 0.70851 0.23388 0.0
C214 C 0.69959 0.66437 0.1844 0.0
C215 C 0.71509 0.71207 0.18216 0.0
C216 C 0.73303 0.73438 0.20769 0.0
C217 C 0.70489 0.63964 0.21103 0.0
N218 N 0.72487 0.66143 0.23507 0.0
H219 H 0.75367 0.72555 0.25282 0.0
H220 H 0.69461 0.60248 0.21185 0.0
H221 H 0.66555 0.66448 0.31403 0.0
H222 H 0.65649 0.55606 0.25005 0.0
O223 O 0.74905 0.67562 0.2994 0.0
O224 O 0.76723 0.59944 0.30598 0.0
O225 O 0.7503 0.56341 0.24648 0.0
C226 C 0.76599 0.6423 0.31666 0.0
H227 H 0.90052 0.64321 0.21298 0.0
H228 H 0.57927 0.62762 0.31581 0.0
H229 H 0.68448 0.64584 0.16555 0.0
H230 H 0.74601 0.77084 0.20719 0.0
Co231 Co 0.58913 0.28594 0.72651 0.0
C232 C 0.64022 0.19448 0.71641 0.0
C233 C 0.56493 0.18304 0.7207 0.0
C234 C 0.58639 0.13987 0.7146 0.0
N235 N 0.59877 0.21737 0.72221 0.0
N236 N 0.63373 0.14721 0.71197 0.0
H237 H 0.67435 0.21196 0.71418 0.0
H238 H 0.52708 0.18859 0.72322 0.0
C239 C 0.48606 0.27231 0.7372 0.0
O240 O 0.47974 0.28667 0.70994 0.0
N241 N 0.58085 0.35462 0.73047 0.0
C242 C 0.61669 0.38543 0.73637 0.0
C243 C 0.59865 0.43111 0.73755 0.0
C244 C 0.54139 0.38219 0.72777 0.0
N245 N 0.5513 0.42914 0.73212 0.0
C246 C 0.67319 0.2771 0.7639 0.0
C247 C 0.6279 0.29915 0.81617 0.0
C248 C 0.67637 0.28703 0.81705 0.0
C249 C 0.69914 0.27617 0.79043 0.0
C250 C 0.60305 0.29856 0.78932 0.0
N251 N 0.62528 0.28623 0.76363 0.0
H252 H 0.69198 0.27148 0.74356 0.0
H253 H 0.56602 0.30913 0.78934 0.0
H254 H 0.65366 0.37534 0.73946 0.0
H255 H 0.50616 0.36858 0.72297 0.0
O256 O 0.63974 0.29663 0.69758 0.0
O257 O 0.56316 0.28755 0.68726 0.0
O258 O 0.52802 0.27228 0.74851 0.0
C259 C 0.60616 0.29307 0.67762 0.0
H260 H 0.56859 0.10562 0.71265 0.0
H261 H 0.61906 0.4634 0.74153 0.0
H262 H 0.60915 0.30857 0.83616 0.0
H263 H 0.73696 0.26812 0.79005 0.0
Co264 Co 0.82272 0.62124 0.47925 0.0
C265 C 0.73123 0.67512 0.47961 0.0
C266 C 0.72495 0.60875 0.45624 0.0
C267 C 0.68079 0.63045 0.45672 0.0
N268 N 0.75639 0.6365 0.47095 0.0
N269 N 0.68466 0.67213 0.47163 0.0
H270 H 0.74651 0.70453 0.49188 0.0
H271 H 0.73325 0.57438 0.44659 0.0
C272 C 0.81217 0.52174 0.5088 0.0
O273 O 0.85555 0.51808 0.51969 0.0
N274 N 0.89005 0.60584 0.48711 0.0
C275 C 0.92229 0.63455 0.50055 0.0
C276 C 0.96649 0.61363 0.49979 0.0
C277 C 0.91616 0.56778 0.47772 0.0
N278 N 0.96312 0.57159 0.48539 0.0
C279 C 0.8323 0.70039 0.51941 0.0
C280 C 0.78724 0.65858 0.56682 0.0
C281 C 0.80445 0.70535 0.56963 0.0
C282 C 0.82731 0.72628 0.54557 0.0
C283 C 0.79391 0.63351 0.5405 0.0
N284 N 0.81709 0.65402 0.51725 0.0
H285 H 0.84852 0.7178 0.50077 0.0
H286 H 0.77886 0.59822 0.53897 0.0
H287 H 0.91541 0.66912 0.50994 0.0
H288 H 0.90118 0.5383 0.46523 0.0
O289 O 0.84087 0.67421 0.45384 0.0
O290 O 0.82958 0.59898 0.43978 0.0
O291 O 0.79885 0.55901 0.49499 0.0
C292 C 0.83791 0.64298 0.43253 0.0
H293 H 0.64802 0.61541 0.44796 0.0
H294 H 0.99868 0.62836 0.50952 0.0
H295 H 0.76869 0.6415 0.58485 0.0
H296 H 0.84011 0.76282 0.5467 0.0
Co297 Co 0.63579 0.2263 0.50629 0.0
C298 C 0.67448 0.32507 0.51015 0.0
C299 C 0.64396 0.31043 0.46759 0.0
C300 C 0.66516 0.35484 0.46688 0.0
N301 N 0.6489 0.292 0.49492 0.0
N302 N 0.68464 0.36355 0.49356 0.0
H303 H 0.68769 0.32047 0.5324 0.0
H304 H 0.62808 0.29203 0.44899 0.0
C305 C 0.54498 0.22865 0.46771 0.0
O306 O 0.52644 0.21318 0.44279 0.0
N307 N 0.62449 0.16053 0.51741 0.0
C308 C 0.65816 0.1305 0.52774 0.0
C309 C 0.63816 0.086 0.53139 0.0
C310 C 0.58422 0.13408 0.5151 0.0
N311 N 0.59172 0.08813 0.52334 0.0
C312 C 0.72982 0.22836 0.48128 0.0
C313 C 0.70773 0.1696 0.43396 0.0
C314 C 0.74954 0.19717 0.43295 0.0
C315 C 0.76153 0.22515 0.45766 0.0
C316 C 0.67679 0.17431 0.45783 0.0
N317 N 0.68665 0.20576 0.48014 0.0
H318 H 0.73836 0.25183 0.4995 0.0
H319 H 0.64341 0.15489 0.45741 0.0
H320 H 0.69503 0.14018 0.53181 0.0
H321 H 0.55061 0.14774 0.50683 0.0
O322 O 0.671 0.2355 0.54292 0.0
O323 O 0.5934 0.24775 0.53687 0.0
O324 O 0.58896 0.21915 0.47271 0.0
C325 C 0.63043 0.24842 0.55435 0.0
H326 H 0.66853 0.37774 0.44779 0.0
H327 H 0.65651 0.05448 0.53935 0.0
H328 H 0.69724 0.14714 0.41555 0.0
H329 H 0.79413 0.24602 0.45816 0.0
Co330 Co 0.26031 0.39918 0.50312 0.0
C331 C 0.35461 0.34838 0.50348 0.0
C332 C 0.36152 0.42138 0.51694 0.0
C333 C 0.40591 0.40052 0.51793 0.0
N334 N 0.32889 0.38856 0.50848 0.0
N335 N 0.40177 0.35443 0.50947 0.0
H336 H 0.33959 0.3161 0.49422 0.0
H337 H 0.35438 0.45862 0.52111 0.0
C338 C 0.24587 0.49485 0.53658 0.0
O339 O 0.20035 0.49969 0.53054 0.0
N340 N 0.1914 0.40846 0.49726 0.0
C341 C 0.15787 0.37551 0.50368 0.0
C342 C 0.11342 0.39363 0.4974 0.0
C343 C 0.16642 0.44542 0.48539 0.0
N344 N 0.11835 0.43799 0.48621 0.0
C345 C 0.25758 0.31006 0.535 0.0
C346 C 0.2177 0.34696 0.58577 0.0
C347 C 0.23023 0.29856 0.58498 0.0
C348 C 0.25022 0.28 0.55917 0.0
C349 C 0.22668 0.37595 0.56142 0.0
N350 N 0.24738 0.35773 0.53664 0.0
H351 H 0.27091 0.29483 0.51485 0.0
H352 H 0.21584 0.41284 0.56244 0.0
H353 H 0.16489 0.34054 0.51281 0.0
H354 H 0.18307 0.47758 0.4771 0.0
O355 O 0.25978 0.35346 0.47047 0.0
O356 O 0.27364 0.43125 0.46693 0.0
O357 O 0.2685 0.45681 0.52979 0.0
C358 C 0.27162 0.38981 0.45403 0.0
H359 H 0.43874 0.4186 0.52389 0.0
H360 H 0.07995 0.37594 0.50205 0.0
H361 H 0.20164 0.36245 0.60523 0.0
H362 H 0.2593 0.24245 0.55753 0.0
Co363 Co 0.4224 0.78785 0.52882 0.0
C364 C 0.37232 0.69643 0.54049 0.0
C365 C 0.44611 0.68423 0.53081 0.0
C366 C 0.42457 0.64085 0.53628 0.0
N367 N 0.4132 0.7192 0.53316 0.0
N368 N 0.37813 0.64863 0.54227 0.0
H369 H 0.33901 0.71428 0.54503 0.0
H370 H 0.48322 0.68925 0.52542 0.0
C371 C 0.52569 0.77585 0.51874 0.0
O372 O 0.53074 0.78917 0.54632 0.0
N373 N 0.43011 0.85649 0.52463 0.0
C374 C 0.39426 0.88718 0.51883 0.0
C375 C 0.41246 0.93282 0.5173 0.0
C376 C 0.46969 0.88402 0.52681 0.0
N377 N 0.45999 0.93095 0.52233 0.0
C378 C 0.33815 0.77714 0.49225 0.0
C379 C 0.38177 0.79882 0.43945 0.0
C380 C 0.33314 0.7868 0.43918 0.0
C381 C 0.31131 0.77599 0.46609 0.0
C382 C 0.40744 0.79882 0.466 0.0
N383 N 0.38592 0.78699 0.49195 0.0
H384 H 0.32014 0.77103 0.5128 0.0
H385 H 0.44449 0.80939 0.46556 0.0
H386 H 0.3573 0.877 0.51576 0.0
H387 H 0.50469 0.87038 0.53196 0.0
O388 O 0.37161 0.79858 0.55762 0.0
O389 O 0.44816 0.79039 0.56809 0.0
O390 O 0.48403 0.77511 0.50693 0.0
C391 C 0.40513 0.79588 0.57761 0.0
H392 H 0.44153 0.60614 0.53508 0.0
H393 H 0.39214 0.96474 0.5124 0.0
H394 H 0.4 0.80789 0.41924 0.0
H395 H 0.27353 0.76787 0.46702 0.0
Co396 Co 0.74575 0.90802 0.76165 0.0
C397 C 0.65364 0.85655 0.75437 0.0
C398 C 0.64493 0.93213 0.7485 0.0
C399 C 0.60104 0.91041 0.74532 0.0
N400 N 0.67795 0.89832 0.75407 0.0
N401 N 0.60629 0.86277 0.74918 0.0
H402 H 0.67027 0.82261 0.75934 0.0
H403 H 0.65185 0.9701 0.74731 0.0
C404 C 0.75757 0.98934 0.71668 0.0
O405 O 0.78833 0.96726 0.69974 0.0
N406 N 0.81419 0.91788 0.77007 0.0
C407 C 0.84214 0.88749 0.78556 0.0
C408 C 0.88725 0.90622 0.78831 0.0
C409 C 0.84322 0.95577 0.7644 0.0
N410 N 0.88834 0.94918 0.77495 0.0
C411 C 0.79204 0.83472 0.72694 0.0
C412 C 0.74111 0.85222 0.67565 0.0
C413 C 0.77523 0.81574 0.67583 0.0
C414 C 0.80102 0.80711 0.70182 0.0
C415 C 0.73399 0.87956 0.70099 0.0
N416 N 0.75987 0.87136 0.72614 0.0
H417 H 0.81023 0.82569 0.74712 0.0
H418 H 0.70728 0.90736 0.70034 0.0
H419 H 0.83076 0.85375 0.79472 0.0
H420 H 0.83176 0.98782 0.75327 0.0
O421 O 0.74299 0.85712 0.79111 0.0
O422 O 0.73033 0.93432 0.79919 0.0
O423 O 0.74127 0.97021 0.73995 0.0
C424 C 0.73103 0.89106 0.80945 0.0
H425 H 0.56778 0.92881 0.74105 0.0
H426 H 0.9166 0.88985 0.80017 0.0
H427 H 0.72028 0.85979 0.65601 0.0
H428 H 0.82688 0.77839 0.70296 0.0
Co429 Co 0.92512 0.23269 0.22832 0.0
C430 C 0.87245 0.32324 0.23543 0.0
C431 C 0.94612 0.33568 0.22497 0.0
C432 C 0.92268 0.37899 0.22545 0.0
N433 N 0.91458 0.30089 0.23134 0.0
N434 N 0.87639 0.37104 0.23198 0.0
H435 H 0.83935 0.30466 0.23988 0.0
H436 H 0.98317 0.32981 0.21947 0.0
C437 C 0.01079 0.23105 0.27077 0.0
O438 O 0.99017 0.20271 0.28991 0.0
N439 N 0.93583 0.16352 0.22416 0.0
C440 C 0.90543 0.13224 0.2113 0.0
C441 C 0.92537 0.08735 0.21143 0.0
C442 C 0.97463 0.1367 0.23129 0.0
N443 N 0.96902 0.08975 0.22412 0.0
C444 C 0.85892 0.19056 0.26978 0.0
C445 C 0.88302 0.24947 0.31659 0.0
C446 C 0.84813 0.21419 0.32093 0.0
C447 C 0.8359 0.18475 0.29689 0.0
C448 C 0.9047 0.25433 0.28916 0.0
N449 N 0.89395 0.22403 0.26638 0.0
H450 H 0.84776 0.1687 0.25141 0.0
H451 H 0.93094 0.2823 0.28641 0.0
H452 H 0.87081 0.14113 0.20221 0.0
H453 H 1.00666 0.15114 0.24103 0.0
O454 O 0.86999 0.23028 0.20162 0.0
O455 O 0.94523 0.24235 0.18863 0.0
O456 O 0.9901 0.2426 0.2467 0.0
C457 C 0.90046 0.24138 0.18104 0.0
H458 H 0.93852 0.41365 0.22136 0.0
H459 H 0.90886 0.05567 0.20224 0.0
H460 H 0.89403 0.2731 0.3343 0.0
H461 H 0.80802 0.1581 0.29872 0.0
Co462 Co 0.19386 0.11483 0.78571 0.0
C463 C 0.28677 0.16278 0.77994 0.0
C464 C 0.29559 0.09161 0.79672 0.0
C465 C 0.34006 0.11254 0.7941 0.0
N466 N 0.26242 0.12312 0.78754 0.0
N467 N 0.33439 0.15723 0.78338 0.0
H468 H 0.26977 0.19487 0.77173 0.0
H469 H 0.28807 0.05578 0.80437 0.0
C470 C 0.19964 0.01933 0.75065 0.0
O471 O 0.17897 0.03365 0.72616 0.0
N472 N 0.12412 0.10711 0.78437 0.0
C473 C 0.09217 0.14109 0.79179 0.0
C474 C 0.04675 0.12288 0.78935 0.0
C475 C 0.09701 0.06802 0.77805 0.0
N476 N 0.04945 0.07687 0.78063 0.0
C477 C 0.16799 0.18099 0.74016 0.0
C478 C 0.23006 0.14663 0.69803 0.0
C479 C 0.20313 0.18766 0.69155 0.0
C480 C 0.17172 0.20467 0.71318 0.0
C481 C 0.22583 0.12457 0.72549 0.0
N482 N 0.19426 0.14104 0.74596 0.0
H483 H 0.14561 0.19628 0.75692 0.0
H484 H 0.2494 0.09518 0.73067 0.0
H485 H 0.10092 0.17686 0.79906 0.0
H486 H 0.1115 0.03367 0.77207 0.0
O487 O 0.18879 0.17359 0.80876 0.0
O488 O 0.19363 0.09986 0.82669 0.0
O489 O 0.20457 0.04714 0.77273 0.0
C490 C 0.19207 0.14549 0.83163 0.0
H491 H 0.37396 0.09549 0.79873 0.0
H492 H 0.01429 0.14191 0.79463 0.0
H493 H 0.2549 0.13187 0.68228 0.0
H494 H 0.15144 0.23718 0.70992 0.0
Co495 Co 0.14417 0.7912 0.23611 0.0
C496 C 0.19279 0.69715 0.23479 0.0
C497 C 0.12146 0.69356 0.21724 0.0
C498 C 0.14302 0.64984 0.21314 0.0
N499 N 0.15267 0.72315 0.23077 0.0
N500 N 0.18779 0.65223 0.22415 0.0
H501 H 0.22548 0.71123 0.24426 0.0
H502 H 0.08601 0.70361 0.20997 0.0
C503 C 0.04948 0.7894 0.27173 0.0
O504 O 0.05958 0.82128 0.29213 0.0
N505 N 0.1352 0.86011 0.24065 0.0
C506 C 0.17012 0.8932 0.24209 0.0
C507 C 0.15017 0.93803 0.24127 0.0
C508 C 0.09426 0.88578 0.2382 0.0
N509 N 0.10225 0.9338 0.23889 0.0
C510 C 0.2234 0.80417 0.2758 0.0
C511 C 0.18193 0.7647 0.32516 0.0
C512 C 0.22784 0.78464 0.32788 0.0
C513 C 0.24881 0.80358 0.30242 0.0
C514 C 0.15792 0.76564 0.29796 0.0
N515 N 0.1777 0.78739 0.274 0.0
H516 H 0.24102 0.81756 0.25644 0.0
H517 H 0.12381 0.74804 0.29631 0.0
H518 H 0.20788 0.88586 0.24197 0.0
H519 H 0.05961 0.86952 0.23497 0.0
O520 O 0.19752 0.80102 0.20916 0.0
O521 O 0.12087 0.79579 0.19678 0.0
O522 O 0.07984 0.77705 0.25248 0.0
C523 C 0.16483 0.79946 0.18853 0.0
H524 H 0.12703 0.61863 0.20293 0.0
H525 H 0.17018 0.9711 0.24105 0.0
H526 H 0.16428 0.74877 0.34389 0.0
H527 H 0.28498 0.81729 0.30281 0.0
C528 C 0.26548 0.18368 0.89647 0.0
C529 C 0.24151 0.15874 0.91871 0.0
H530 H 0.26682 0.20049 0.85023 0.0
C531 C 0.19581 0.14012 0.91295 0.0
H532 H 0.30094 0.1979 0.90045 0.0
C533 C 0.17633 0.1419 0.88469 0.0
C534 C 0.20209 0.16251 0.86165 0.0
H535 H 0.17665 0.12081 0.92985 0.0
H536 H 0.14313 0.12317 0.88026 0.0
C537 C 0.24572 0.18559 0.86792 0.0
C538 C 0.13638 0.80121 0.10959 0.0
C539 C 0.15264 0.75585 0.10103 0.0
H540 H 0.13077 0.8525 0.14429 0.0
C541 C 0.18439 0.731 0.11948 0.0
H542 H 0.11247 0.82144 0.09553 0.0
C543 C 0.19514 0.74919 0.14768 0.0
C544 C 0.17474 0.79254 0.15717 0.0
H545 H 0.19754 0.69607 0.11316 0.0
H546 H 0.21499 0.72707 0.16303 0.0
C547 C 0.14759 0.81952 0.13728 0.0
C548 C 0.67736 0.91427 0.88364 0.0
C549 C 0.69775 0.87829 0.90106 0.0
H550 H 0.67174 0.94591 0.84112 0.0
C551 C 0.72426 0.84182 0.88741 0.0
H552 H 0.65669 0.94271 0.89361 0.0
C553 C 0.73335 0.84381 0.85695 0.0
C554 C 0.71618 0.88243 0.84016 0.0
H555 H 0.74094 0.81408 0.90053 0.0
H556 H 0.75616 0.81709 0.84702 0.0
C557 C 0.68644 0.91632 0.8536 0.0
C558 C 0.90595 0.31607 0.11234 0.0
C559 C 0.86804 0.29823 0.09529 0.0
H560 H 0.9457 0.31161 0.1524 0.0
C561 C 0.83656 0.26483 0.10793 0.0
H562 H 0.93093 0.34151 0.10309 0.0
C563 C 0.84527 0.24711 0.13654 0.0
C564 C 0.88597 0.26211 0.15236 0.0
H565 H 0.80772 0.24963 0.09492 0.0
H566 H 0.82207 0.21981 0.14547 0.0
C567 C 0.9149 0.29817 0.1404 0.0
C568 C 0.32464 0.42208 0.38059 0.0
C569 C 0.31246 0.38291 0.36272 0.0
H570 H 0.32105 0.45483 0.42286 0.0
C571 C 0.28969 0.34329 0.3756 0.0
H572 H 0.34231 0.45308 0.37137 0.0
C573 C 0.27707 0.34434 0.40564 0.0
C574 C 0.28675 0.38517 0.42289 0.0
H575 H 0.27927 0.3129 0.36219 0.0
H576 H 0.25821 0.3142 0.41499 0.0
C577 C 0.3119 0.42327 0.41014 0.0
C578 C 0.34602 0.76572 0.65018 0.0
C579 C 0.38536 0.768 0.66963 0.0
H580 H 0.32106 0.77351 0.60551 0.0
C581 C 0.42917 0.78501 0.65906 0.0
H582 H 0.31168 0.75303 0.65775 0.0
C583 C 0.43433 0.797 0.62944 0.0
C584 C 0.39585 0.79235 0.60959 0.0
H585 H 0.46002 0.78779 0.6735 0.0
H586 H 0.46918 0.80827 0.62186 0.0
C587 C 0.35122 0.77783 0.62035 0.0
C588 C 0.85024 0.62491 0.38028 0.0
C589 C 0.83189 0.65618 0.40144 0.0
H590 H 0.84347 0.59647 0.33689 0.0
C591 C 0.79616 0.68903 0.39316 0.0
H592 H 0.87739 0.599 0.38623 0.0
C593 C 0.77589 0.68717 0.36474 0.0
C594 C 0.79107 0.65213 0.34472 0.0
H595 H 0.78068 0.71272 0.40941 0.0
H596 H 0.74622 0.71039 0.35927 0.0
C597 C 0.83007 0.6229 0.35224 0.0
C598 C 0.58213 0.27991 0.59614 0.0
C599 C 0.62633 0.26409 0.58548 0.0
H600 H 0.54167 0.30253 0.63334 0.0
C601 C 0.66569 0.26276 0.60496 0.0
H602 H 0.55121 0.28195 0.58172 0.0
C603 C 0.66026 0.27499 0.63481 0.0
C604 C 0.61537 0.28868 0.64561 0.0
H605 H 0.70033 0.25104 0.59734 0.0
H606 H 0.69055 0.27164 0.64962 0.0
C607 C 0.57674 0.292 0.62577 0.0
C608 C 0.23245 0.9673 0.05979 0.0
C609 C 0.25904 0.97895 0.03472 0.0
H610 H 0.17837 0.92172 0.07798 0.0
C611 C 0.25658 0.94872 0.00992 0.0
H612 H 0.23312 0.99041 0.07898 0.0
C613 C 0.22597 0.9091 0.00956 0.0
C614 C 0.19638 0.89994 0.03367 0.0
H615 H 0.27646 0.95726 0.99021 0.0
H616 H 0.22277 0.88775 0.98971 0.0
C617 C 0.2009 0.92841 0.05912 0.0
C618 C 0.97641 0.81421 0.9846 0.0
C619 C 0.9701 0.76455 0.98226 0.0
H620 H 0.94457 0.88328 0.98253 0.0
C621 C 0.92512 0.74647 0.97413 0.0
H622 H 0.01091 0.82916 0.99034 0.0
C623 C 0.88657 0.77786 0.96964 0.0
C624 C 0.8929 0.82766 0.97265 0.0
H625 H 0.91945 0.70827 0.97221 0.0
H626 H 0.85191 0.76329 0.9639 0.0
C627 C 0.93845 0.84532 0.97978 0.0
C628 C 0.74088 0.0697 1.00415 0.0
C629 C 0.73965 0.03646 0.02731 0.0
H630 H 0.77163 0.13439 0.98741 0.0
C631 C 0.76717 0.04496 0.05272 0.0
H632 H 0.72041 0.06342 0.98417 0.0
C633 C 0.79752 0.08486 0.0542 0.0
C634 C 0.79991 0.11732 0.03058 0.0
H635 H 0.76743 0.01932 0.07059 0.0
H636 H 0.82003 0.08979 0.07346 0.0
C637 C 0.77015 0.11016 0.00597 0.0
C638 C 0.05308 0.17972 0.97853 0.0
C639 C 0.09737 0.19076 0.99172 0.0
H640 H 0.98152 0.20253 0.9695 0.0
C641 C 0.10432 0.23677 1.0035 0.0
H642 H 0.04678 0.14511 0.96856 0.0
C643 C 0.06722 0.27001 1.00351 0.0
C644 C 0.02212 0.25798 0.99193 0.0
H645 H 0.13778 0.24663 0.01389 0.0
H646 H 0.07336 0.30438 0.01391 0.0
C647 C 0.01582 0.21295 0.97865 0.0
C648 C 0.24967 0.60672 0.25078 0.0
C649 C 0.22199 0.61386 0.22531 0.0
H650 H 0.29681 0.55973 0.27422 0.0
C651 C 0.2256 0.58093 0.20193 0.0
H652 H 0.24732 0.63139 0.26913 0.0
C653 C 0.25489 0.54048 0.20451 0.0
C654 C 0.28005 0.53191 0.23079 0.0
H655 H 0.20482 0.58593 0.18197 0.0
H656 H 0.2555 0.51454 0.18676 0.0
C657 C 0.2779 0.5658 0.25366 0.0
C658 C 0.57931 0.77808 0.75199 0.0
C659 C 0.56863 0.82726 0.75148 0.0
H660 H 0.55478 0.70744 0.76232 0.0
C661 C 0.52084 0.84115 0.75599 0.0
H662 H 0.61514 0.76548 0.74789 0.0
C663 C 0.48604 0.80751 0.76364 0.0
C664 C 0.49783 0.75908 0.76676 0.0
H665 H 0.51063 0.87839 0.75584 0.0
H666 H 0.45139 0.82051 0.76979 0.0
C667 C 0.54441 0.74454 0.75974 0.0
C668 C 0.80282 0.39965 0.25598 0.0
C669 C 0.83945 0.40645 0.23542 0.0
H670 H 0.74445 0.43086 0.27922 0.0
C671 C 0.8409 0.44952 0.2195 0.0
H672 H 0.80069 0.36687 0.26855 0.0
C673 C 0.80824 0.48615 0.22534 0.0
C674 C 0.774 0.48077 0.2476 0.0
H675 H 0.86804 0.45534 0.20302 0.0
H676 H 0.81155 0.51942 0.21347 0.0
C677 C 0.77059 0.43643 0.26207 0.0
C678 C 0.36276 0.22271 0.75137 0.0
C679 C 0.37138 0.19001 0.77429 0.0
H680 H 0.39191 0.2747 0.72209 0.0
C681 C 0.41733 0.18827 0.787 0.0
H682 H 0.32807 0.22483 0.74082 0.0
C683 C 0.45424 0.21712 0.77619 0.0
C684 C 0.44599 0.24801 0.75228 0.0
H685 H 0.425 0.16398 0.80495 0.0
H686 H 0.48963 0.21365 0.78571 0.0
C687 C 0.39956 0.25126 0.7405 0.0
C688 C 0.79158 0.43487 0.51806 0.0
C689 C 0.77789 0.48115 0.50939 0.0
H690 H 0.77173 0.36052 0.51993 0.0
C691 C 0.73125 0.4881 0.49828 0.0
H692 H 0.82708 0.42824 0.52671 0.0
C693 C 0.70047 0.4496 0.49385 0.0
C694 C 0.71481 0.4033 0.5012 0.0
H695 H 0.7188 0.52325 0.49196 0.0
H696 H 0.66557 0.4558 0.48417 0.0
C697 C 0.76003 0.39621 0.51418 0.0
C698 C 0.52405 0.3046 0.49388 0.0
C699 C 0.51353 0.25676 0.48726 0.0
H700 H 0.49737 0.37326 0.50563 0.0
C701 C 0.46675 0.24023 0.49184 0.0
H702 H 0.55895 0.31912 0.48989 0.0
C703 C 0.43061 0.27155 0.50074 0.0
C704 C 0.44021 0.32051 0.50489 0.0
H705 H 0.45739 0.20355 0.48662 0.0
H706 H 0.3948 0.25761 0.50307 0.0
C707 C 0.48796 0.33608 0.50262 0.0
C708 C 0.29475 0.6205 0.53609 0.0
C709 C 0.34162 0.61285 0.54643 0.0
H710 H 0.22707 0.58896 0.52525 0.0
C711 C 0.35322 0.56816 0.55859 0.0
H712 H 0.28465 0.65452 0.5266 0.0
C713 C 0.32002 0.5308 0.55817 0.0
C714 C 0.27476 0.53709 0.54517 0.0
H715 H 0.38859 0.56155 0.56742 0.0
H716 H 0.33074 0.49614 0.56651 0.0
C717 C 0.26162 0.58294 0.53545 0.0
C718 C 0.61295 0.75836 0.51682 0.0
C719 C 0.56756 0.75502 0.50355 0.0
H720 H 0.68509 0.73465 0.5176 0.0
C721 C 0.56238 0.72757 0.47776 0.0
H722 H 0.6184 0.77939 0.53663 0.0
C723 C 0.60125 0.70187 0.46652 0.0
C724 C 0.64608 0.70307 0.48085 0.0
H725 H 0.52791 0.72432 0.46696 0.0
H726 H 0.59578 0.68019 0.44703 0.0
C727 C 0.65157 0.73274 0.5057 0.0
C728 C 0.74611 0.07655 0.72251 0.0
C729 C 0.7346 0.03408 0.7076 0.0
H730 H 0.72283 0.14649 0.73531 0.0
C731 C 0.69206 0.03155 0.69118 0.0
H732 H 0.77801 0.0786 0.73611 0.0
C733 C 0.65995 0.06982 0.69128 0.0
C734 C 0.66997 0.11133 0.7077 0.0
H735 H 0.68186 0.99854 0.68027 0.0
H736 H 0.62627 0.06611 0.67964 0.0
C737 C 0.71433 0.11515 0.72225 0.0
C738 C 0.09916 0.31143 0.30961 0.0
C739 C 0.13311 0.31869 0.28739 0.0
H740 H 0.03428 0.27598 0.32211 0.0
C741 C 0.12926 0.2926 0.26104 0.0
H742 H 0.10166 0.3311 0.33014 0.0
C743 C 0.09052 0.26197 0.25625 0.0
C744 C 0.05581 0.25571 0.2781 0.0
H745 H 0.15486 0.29789 0.24356 0.0
H746 H 0.08682 0.24427 0.23509 0.0
C747 C 0.06109 0.27962 0.30515 0.0
C748 C 0.25934 0.91267 0.78491 0.0
C749 C 0.28709 0.89495 0.76164 0.0
H750 H 0.20913 0.96499 0.79932 0.0
C751 C 0.28067 0.91476 0.73334 0.0
H752 H 0.26193 0.89746 0.80676 0.0
C753 C 0.24923 0.95326 0.72892 0.0
C754 C 0.22393 0.97257 0.75276 0.0
H755 H 0.30137 0.90188 0.71491 0.0
H756 H 0.24692 0.96963 0.70734 0.0
C757 C 0.22842 0.95101 0.78056 0.0
C758 C 0.97595 0.75052 0.29303 0.0
C759 C 1.00183 0.76724 0.26875 0.0
H760 H 0.91722 0.70704 0.30753 0.0
C761 C 0.98511 0.75689 0.24017 0.0
H762 H 0.98834 0.7577 0.31526 0.0
C763 C 0.94519 0.72813 0.23575 0.0
C764 C 0.92074 0.70877 0.25979 0.0
H765 H 1.00402 0.76985 0.22099 0.0
H766 H 0.93394 0.72045 0.21338 0.0
C767 C 0.93555 0.72137 0.28856 0.0
C768 C 0.5008 0.05463 0.97086 0.0
C769 C 0.45888 0.04714 0.98732 0.0
H770 H 0.57027 0.02881 0.95915 0.0
C771 C 0.45671 1.00681 0.00574 0.0
H772 H 0.50394 0.0848 0.95614 0.0
C773 C 0.49478 0.97455 0.00723 0.0
C774 C 0.53629 0.98178 0.99051 0.0
H775 H 0.42575 1.00011 0.01924 0.0
H776 H 0.49181 0.94396 0.02167 0.0
C777 C 0.53907 0.02249 0.97255 0.0
C778 C 0.97415 0.55962 0.01001 0.0
C779 C 0.01163 0.55444 0.03053 0.0
H780 H 0.91555 0.52627 0.9873 0.0
C781 C 0.01539 0.5108 0.04591 0.0
H782 H 0.97009 0.59247 0.99769 0.0
C783 C 0.98415 0.47266 0.03988 0.0
C784 C 0.94836 0.47698 0.01817 0.0
H785 H 0.04325 0.50564 0.06222 0.0
H786 H 0.98955 0.43912 0.05126 0.0
C787 C 0.94307 0.52141 1.00388 0.0
C788 C 0.51689 0.56439 0.28352 0.0
C789 C 0.56355 0.55017 0.27591 0.0
H790 H 0.44357 0.54377 0.28891 0.0
C791 C 0.57033 0.50333 0.26548 0.0
H792 H 0.51005 0.60037 0.29119 0.0
C793 C 0.53211 0.47105 0.26402 0.0
C794 C 0.4859 0.48459 0.27285 0.0
H795 H 0.60554 0.49088 0.25952 0.0
H796 H 0.53898 0.43501 0.25644 0.0
C797 C 0.47853 0.53207 0.28192 0.0
C798 C 0.52771 0.51083 0.74756 0.0
C799 C 0.51876 0.46923 0.7309 0.0
H800 H 0.50428 0.58075 0.7599 0.0
C801 C 0.47805 0.4679 0.71269 0.0
H802 H 0.55843 0.51288 0.7621 0.0
C803 C 0.4471 0.50714 0.71116 0.0
C804 C 0.45568 0.54871 0.72805 0.0
H805 H 0.47051 0.43683 0.69919 0.0
H806 H 0.41664 0.50483 0.69647 0.0
C807 C 0.49658 0.54995 0.74622 0.0
C808 C 0.05001 0.55394 0.48204 0.0
C809 C 1.00213 0.53809 0.48107 0.0
H810 H 0.12405 0.5353 0.48448 0.0
C811 C 0.99372 0.48877 0.47817 0.0
H812 H 0.05826 0.59167 0.48345 0.0
C813 C 0.03193 0.45619 0.47818 0.0
C814 C 0.07973 0.47191 0.48124 0.0
H815 H 0.95758 0.4751 0.4772 0.0
H816 H 0.02371 0.41849 0.47662 0.0
C817 C 0.08814 0.52144 0.48222 0.0
C818 C 0.57442 1.00154 0.51883 0.0
C819 C 0.55825 0.04875 0.52273 0.0
H820 H 0.55633 0.92756 0.5151 0.0
C821 C 0.5091 0.05656 0.52633 0.0
H822 H 0.61192 0.99422 0.51544 0.0
C823 C 0.47701 0.01808 0.52637 0.0
C824 C 0.49319 0.97074 0.52255 0.0
H825 H 0.49551 0.09236 0.52971 0.0
H826 H 0.43959 0.02557 0.52982 0.0
C827 C 0.54239 0.96313 0.51868 0.0
C828 C 0.97605 0.96357 0.77759 0.0
C829 C 0.92918 0.98127 0.77394 0.0
H830 H 0.05053 0.97941 0.78271 0.0
C831 C 0.92325 0.03086 0.77058 0.0
H832 H 0.98249 0.92559 0.7796 0.0
C833 C 0.9627 0.06185 0.77198 0.0
C834 C 0.00937 0.04428 0.77681 0.0
H835 H 0.88801 0.04603 0.7677 0.0
H836 H 0.95636 0.09977 0.7695 0.0
C837 C 0.01547 0.99454 0.77903 0.0
C838 C 0.04994 0.05867 0.23728 0.0
C839 C 1.00236 0.05034 0.2285 0.0
H840 H 0.11797 0.0294 0.24806 0.0
C841 C 0.98807 1.00238 0.22402 0.0
H842 H 0.06295 0.09456 0.24106 0.0
C843 C 0.02035 0.9644 0.22758 0.0
C844 C 0.0681 0.97284 0.23595 0.0
H845 H 0.95181 0.99366 0.21778 0.0
H846 H 1.00762 0.9285 0.22344 0.0
C847 C 0.08207 0.0207 0.24105 0.0
C848 C 0.25118 0.26681 0.15365 0.0
C849 C 0.29546 0.27898 0.16648 0.0
H850 H 0.21429 0.23127 0.11826 0.0
C851 C 0.33743 0.26316 0.15267 0.0
H852 H 0.21815 0.27804 0.16383 0.0
C853 C 0.33522 0.23654 0.12648 0.0
C854 C 0.29096 0.22444 0.11362 0.0
H855 H 0.37211 0.27211 0.16185 0.0
H856 H 0.36824 0.22518 0.11635 0.0
C857 C 0.24895 0.23962 0.12767 0.0
C858 C 0.2199 0.74001 0.8574 0.0
C859 C 0.2349 0.69504 0.84715 0.0
H860 H 0.18855 0.78016 0.89231 0.0
C861 C 0.2262 0.65458 0.86464 0.0
H862 H 0.227 0.77205 0.84478 0.0
C863 C 0.20362 0.65913 0.89196 0.0
C864 C 0.18967 0.70434 0.90259 0.0
H865 H 0.23712 0.61941 0.85727 0.0
H866 H 0.19725 0.62717 0.90478 0.0
C867 C 0.19779 0.74463 0.88476 0.0
C868 C 0.70924 0.81139 0.12477 0.0
C869 C 0.72052 0.78684 0.09866 0.0
H870 H 0.69705 0.80717 0.17119 0.0
C871 C 0.72865 0.7373 0.10008 0.0
H872 H 0.70195 0.84942 0.12436 0.0
C873 C 0.7262 0.71303 0.127 0.0
C874 C 0.71517 0.73758 0.15322 0.0
H875 H 0.73792 0.71738 0.08045 0.0
H876 H 0.73416 0.67516 0.12731 0.0
C877 C 0.7064 0.78709 0.15165 0.0
C878 C 0.72961 0.24588 0.85381 0.0
C879 C 0.70303 0.28625 0.84555 0.0
H880 H 0.77307 0.2123 0.88655 0.0
C881 C 0.7016 0.32555 0.86486 0.0
H882 H 0.73075 0.21478 0.83955 0.0
C883 C 0.72703 0.32488 0.89159 0.0
C884 C 0.75384 0.28443 0.90005 0.0
H885 H 0.68157 0.35729 0.85897 0.0
H886 H 0.72633 0.3566 0.90526 0.0
C887 C 0.75416 0.24472 0.8808 0.0
C888 C 0.75133 0.7375 0.60909 0.0
C889 C 0.79725 0.73274 0.59719 0.0
H890 H 0.7084 0.76805 0.64325 0.0
C891 C 0.83607 0.75476 0.61156 0.0
H892 H 0.72082 0.72106 0.5983 0.0
C893 C 0.8291 0.78092 0.6375 0.0
C894 C 0.78304 0.78638 0.6491 0.0
H895 H 0.87182 0.75143 0.60282 0.0
H896 H 0.85952 0.79769 0.64817 0.0
C897 C 0.74423 0.76448 0.63465 0.0
C898 C 0.81034 0.16406 0.36089 0.0
C899 C 0.82402 0.2092 0.35008 0.0
H900 H 0.7768 0.12463 0.39565 0.0
C901 C 0.81437 0.24983 0.36742 0.0
H902 H 0.81777 0.13186 0.34846 0.0
C903 C 0.7917 0.24552 0.39463 0.0
C904 C 0.77751 0.20055 0.40522 0.0
H905 H 0.82325 0.28533 0.3597 0.0
H906 H 0.7838 0.27775 0.40694 0.0
C907 C 0.78716 0.15981 0.38806 0.0
C908 C 0.25431 0.21573 0.64929 0.0
C909 C 0.20945 0.21398 0.66318 0.0
H910 H 0.29572 0.24336 0.61351 0.0
C911 C 0.17108 0.23896 0.65018 0.0
H912 H 0.28508 0.19799 0.65878 0.0
C913 C 0.17772 0.266 0.62463 0.0
C914 C 0.22259 0.26791 0.6111 0.0
H915 H 0.13576 0.23778 0.65971 0.0
H916 H 0.14771 0.2854 0.61538 0.0
C917 C 0.26064 0.24199 0.6234 0.0
C918 C 0.27418 0.74862 0.40412 0.0
C919 C 0.30531 0.78654 0.41106 0.0
H920 H 0.22657 0.71734 0.3724 0.0
C921 C 0.31012 0.82408 0.39075 0.0
H922 H 0.27004 0.71894 0.4192 0.0
C923 C 0.28466 0.82364 0.36411 0.0
C924 C 0.25406 0.78533 0.35679 0.0
H925 H 0.33322 0.8542 0.39563 0.0
H926 H 0.28871 0.85376 0.34937 0.0
C927 C 0.2491 0.74786 0.37727 0.0
loop_
_geom_bond_atom_site_label_1
_geom_bond_atom_site_label_2
_geom_bond_distance
_geom_bond_site_symmetry_2
_ccdc_geom_bond_type
Co0 N4 2.148 . S
Co0 N10 2.128 . S
Co0 N20 2.194 1_556 S
Co0 O25 2.351 . S
Co0 O26 2.155 . S
Co0 O27 2.096 . S
C1 N4 1.301 . S
C1 N5 1.328 . S
C1 H6 0.930 . S
C2 C3 1.333 . S
C2 N4 1.317 . S
C2 H7 0.930 . S
C3 C2 1.333 . S
C3 N5 1.350 . S
C3 H29 0.931 . S
N4 Co0 2.148 . S
N4 C1 1.301 . S
N4 C2 1.317 . S
N5 C1 1.328 . S
N5 C3 1.350 . S
H6 C1 0.930 . S
H7 C2 0.930 . S
C8 O9 1.224 . S
C8 O27 1.247 1_554 S
O9 C8 1.224 . S
N10 Co0 2.128 . S
N10 C11 1.355 . S
N10 C13 1.311 . S
C11 N10 1.355 . S
C11 C12 1.363 . S
C11 H23 0.929 . S
C12 C11 1.363 . S
C12 N14 1.375 . S
C12 H30 0.927 1_556 S
C13 N10 1.311 . S
C13 N14 1.347 . S
C13 H24 0.929 . S
N14 C12 1.375 . S
N14 C13 1.347 . S
C15 C18 1.365 . S
C15 N20 1.328 . S
C15 H21 0.929 . S
C16 C17 1.362 . S
C16 C19 1.378 . S
C16 H31 0.929 . S
C17 C16 1.362 . S
C17 C18 1.366 . S
C18 C15 1.365 . S
C18 C17 1.366 . S
C18 H32 0.930 . S
C19 C16 1.378 . S
C19 N20 1.315 . S
C19 H22 0.930 . S
N20 Co0 2.194 1_554 S
N20 C15 1.328 . S
N20 C19 1.315 . S
H21 C15 0.929 . S
H22 C19 0.930 . S
H23 C11 0.929 . S
H24 C13 0.929 . S
O25 Co0 2.351 . S
O25 C28 1.244 . S
O26 Co0 2.155 . S
O26 C28 1.240 . S
O27 Co0 2.096 . S
O27 C8 1.247 1_556 S
C28 O25 1.244 . S
C28 O26 1.240 . S
H29 C3 0.931 . S
H30 C12 0.927 1_554 S
H31 C16 0.929 . S
H32 C18 0.930 . S
Co33 N37 2.148 . S
Co33 N43 2.128 . S
Co33 N53 2.194 1_554 S
Co33 O58 2.351 . S
Co33 O59 2.155 . S
Co33 O60 2.096 . S
C34 N37 1.301 . S
C34 N38 1.328 . S
C34 H39 0.930 . S
C35 C36 1.333 . S
C35 N37 1.317 . S
C35 H40 0.930 . S
C36 C35 1.333 . S
C36 N38 1.350 . S
C36 H62 0.931 . S
N37 Co33 2.148 . S
N37 C34 1.301 . S
N37 C35 1.317 . S
N38 C34 1.328 . S
N38 C36 1.350 . S
H39 C34 0.930 . S
H40 C35 0.930 . S
C41 O42 1.224 . S
C41 O60 1.247 1_556 S
O42 C41 1.224 . S
N43 Co33 2.128 . S
N43 C44 1.355 . S
N43 C46 1.311 . S
C44 N43 1.355 . S
C44 C45 1.363 . S
C44 H56 0.929 . S
C45 C44 1.363 . S
C45 N47 1.375 . S
C45 H63 0.927 1_554 S
C46 N43 1.311 . S
C46 N47 1.347 . S
C46 H57 0.929 . S
N47 C45 1.375 . S
N47 C46 1.347 . S
C48 C51 1.365 . S
C48 N53 1.328 . S
C48 H54 0.929 . S
C49 C50 1.362 . S
C49 C52 1.378 . S
C49 H64 0.929 . S
C50 C49 1.362 . S
C50 C51 1.366 . S
C51 C48 1.365 . S
C51 C50 1.366 . S
C51 H65 0.930 . S
C52 C49 1.378 . S
C52 N53 1.315 . S
C52 H55 0.930 . S
N53 Co33 2.194 1_556 S
N53 C48 1.328 . S
N53 C52 1.315 . S
H54 C48 0.929 . S
H55 C52 0.930 . S
H56 C44 0.929 . S
H57 C46 0.929 . S
O58 Co33 2.351 . S
O58 C61 1.244 . S
O59 Co33 2.155 . S
O59 C61 1.240 . S
O60 Co33 2.096 . S
O60 C41 1.247 1_554 S
C61 O58 1.244 . S
C61 O59 1.240 . S
H62 C36 0.931 . S
H63 C45 0.927 1_556 S
H64 C49 0.929 . S
H65 C51 0.930 . S
Co66 N70 2.148 . S
Co66 N76 2.128 . S
Co66 N86 2.194 1_556 S
Co66 O91 2.351 . S
Co66 O92 2.155 . S
Co66 O93 2.096 . S
C67 N70 1.301 . S
C67 N71 1.328 . S
C67 H72 0.930 . S
C68 C69 1.333 . S
C68 N70 1.317 . S
C68 H73 0.930 . S
C69 C68 1.333 . S
C69 N71 1.350 . S
C69 H95 0.931 . S
N70 Co66 2.148 . S
N70 C67 1.301 . S
N70 C68 1.317 . S
N71 C67 1.328 . S
N71 C69 1.350 . S
H72 C67 0.930 . S
H73 C68 0.930 . S
C74 O75 1.224 . S
C74 O93 1.247 1_554 S
O75 C74 1.224 . S
N76 Co66 2.128 . S
N76 C77 1.355 . S
N76 C79 1.311 . S
C77 N76 1.355 . S
C77 C78 1.363 . S
C77 H89 0.929 . S
C78 C77 1.363 . S
C78 N80 1.375 . S
C78 H96 0.927 1_556 S
C79 N76 1.311 . S
C79 N80 1.347 . S
C79 H90 0.929 . S
N80 C78 1.375 . S
N80 C79 1.347 . S
C81 C84 1.365 . S
C81 N86 1.328 . S
C81 H87 0.929 . S
C82 C83 1.362 . S
C82 C85 1.378 . S
C82 H97 0.929 . S
C83 C82 1.362 . S
C83 C84 1.366 . S
C84 C81 1.365 . S
C84 C83 1.366 . S
C84 H98 0.930 . S
C85 C82 1.378 . S
C85 N86 1.315 . S
C85 H88 0.930 . S
N86 Co66 2.194 1_554 S
N86 C81 1.328 . S
N86 C85 1.315 . S
H87 C81 0.929 . S
H88 C85 0.930 . S
H89 C77 0.929 . S
H90 C79 0.929 . S
O91 Co66 2.351 . S
O91 C94 1.244 . S
O92 Co66 2.155 . S
O92 C94 1.240 . S
O93 Co66 2.096 . S
O93 C74 1.247 1_556 S
C94 O91 1.244 . S
C94 O92 1.240 . S
H95 C69 0.931 . S
H96 C78 0.927 1_554 S
H97 C82 0.929 . S
H98 C84 0.930 . S
Co99 N103 2.148 . S
Co99 N109 2.128 . S
Co99 N119 2.194 1_554 S
Co99 O124 2.351 . S
Co99 O125 2.155 . S
Co99 O126 2.096 . S
C100 N103 1.301 . S
C100 N104 1.328 . S
C100 H105 0.930 . S
C101 C102 1.333 . S
C101 N103 1.317 . S
C101 H106 0.930 . S
C102 C101 1.333 . S
C102 N104 1.350 . S
C102 H128 0.931 . S
N103 Co99 2.148 . S
N103 C100 1.301 . S
N103 C101 1.317 . S
N104 C100 1.328 . S
N104 C102 1.350 . S
H105 C100 0.930 . S
H106 C101 0.930 . S
C107 O108 1.224 . S
C107 O126 1.247 1_556 S
O108 C107 1.224 . S
N109 Co99 2.128 . S
N109 C110 1.355 . S
N109 C112 1.311 . S
C110 N109 1.355 . S
C110 C111 1.363 . S
C110 H122 0.929 . S
C111 C110 1.363 . S
C111 N113 1.375 . S
C111 H129 0.927 1_554 S
C112 N109 1.311 . S
C112 N113 1.347 . S
C112 H123 0.929 . S
N113 C111 1.375 . S
N113 C112 1.347 . S
C114 C117 1.365 . S
C114 N119 1.328 . S
C114 H120 0.929 . S
C115 C116 1.362 . S
C115 C118 1.378 . S
C115 H130 0.929 . S
C116 C115 1.362 . S
C116 C117 1.366 . S
C117 C114 1.365 . S
C117 C116 1.366 . S
C117 H131 0.930 . S
C118 C115 1.378 . S
C118 N119 1.315 . S
C118 H121 0.930 . S
N119 Co99 2.194 1_556 S
N119 C114 1.328 . S
N119 C118 1.315 . S
H120 C114 0.929 . S
H121 C118 0.930 . S
H122 C110 0.929 . S
H123 C112 0.929 . S
O124 Co99 2.351 . S
O124 C127 1.244 . S
O125 Co99 2.155 . S
O125 C127 1.240 . S
O126 Co99 2.096 . S
O126 C107 1.247 1_554 S
C127 O124 1.244 . S
C127 O125 1.240 . S
H128 C102 0.931 . S
H129 C111 0.927 1_556 S
H130 C115 0.929 . S
H131 C117 0.930 . S
Co132 N136 2.148 . S
Co132 N142 2.128 . S
Co132 N152 2.194 . S
Co132 O157 2.351 . S
Co132 O158 2.155 . S
Co132 O159 2.096 . S
C133 N136 1.301 . S
C133 N137 1.328 . S
C133 H138 0.930 . S
C134 C135 1.333 . S
C134 N136 1.317 . S
C134 H139 0.930 . S
C135 C134 1.333 . S
C135 N137 1.350 . S
C135 H161 0.931 . S
N136 Co132 2.148 . S
N136 C133 1.301 . S
N136 C134 1.317 . S
N137 C133 1.328 . S
N137 C135 1.350 . S
H138 C133 0.930 . S
H139 C134 0.930 . S
C140 O141 1.224 . S
C140 O159 1.247 . S
O141 C140 1.224 . S
N142 Co132 2.128 . S
N142 C143 1.355 . S
N142 C145 1.311 . S
C143 N142 1.355 . S
C143 C144 1.363 . S
C143 H155 0.929 . S
C144 C143 1.363 . S
C144 N146 1.375 . S
C144 H162 0.931 . S
C145 N142 1.311 . S
C145 N146 1.347 . S
C145 H156 0.929 . S
N146 C144 1.375 . S
N146 C145 1.347 . S
C147 C150 1.365 . S
C147 N152 1.328 . S
C147 H153 0.929 . S
C148 C149 1.362 . S
C148 C151 1.378 . S
C148 H163 0.929 . S
C149 C148 1.362 . S
C149 C150 1.366 . S
C150 C147 1.365 . S
C150 C149 1.366 . S
C150 H164 0.930 . S
C151 C148 1.378 . S
C151 N152 1.315 . S
C151 H154 0.930 . S
N152 Co132 2.194 . S
N152 C147 1.328 . S
N152 C151 1.315 . S
H153 C147 0.929 . S
H154 C151 0.930 . S
H155 C143 0.929 . S
H156 C145 0.929 . S
O157 Co132 2.351 . S
O157 C160 1.244 . S
O158 Co132 2.155 . S
O158 C160 1.240 . S
O159 Co132 2.096 . S
O159 C140 1.247 . S
C160 O157 1.244 . S
C160 O158 1.240 . S
H161 C135 0.931 . S
H162 C144 0.931 . S
H163 C148 0.929 . S
H164 C150 0.930 . S
Co165 N169 2.148 . S
Co165 N175 2.128 . S
Co165 N185 2.194 . S
Co165 O190 2.351 . S
Co165 O191 2.155 . S
Co165 O192 2.096 . S
C166 N169 1.301 . S
C166 N170 1.328 . S
C166 H171 0.930 . S
C167 C168 1.333 . S
C167 N169 1.317 . S
C167 H172 0.930 . S
C168 C167 1.333 . S
C168 N170 1.350 . S
C168 H194 0.931 . S
N169 Co165 2.148 . S
N169 C166 1.301 . S
N169 C167 1.317 . S
N170 C166 1.328 . S
N170 C168 1.350 . S
H171 C166 0.930 . S
H172 C167 0.930 . S
C173 O174 1.224 . S
C173 O192 1.247 . S
O174 C173 1.224 . S
N175 Co165 2.128 . S
N175 C176 1.355 . S
N175 C178 1.311 . S
C176 N175 1.355 . S
C176 C177 1.363 . S
C176 H188 0.929 . S
C177 C176 1.363 . S
C177 N179 1.375 . S
C177 H195 0.931 . S
C178 N175 1.311 . S
C178 N179 1.347 . S
C178 H189 0.929 . S
N179 C177 1.375 . S
N179 C178 1.347 . S
C180 C183 1.365 . S
C180 N185 1.328 . S
C180 H186 0.929 . S
C181 C182 1.362 . S
C181 C184 1.378 . S
C181 H196 0.929 . S
C182 C181 1.362 . S
C182 C183 1.366 . S
C183 C180 1.365 . S
C183 C182 1.366 . S
C183 H197 0.930 . S
C184 C181 1.378 . S
C184 N185 1.315 . S
C184 H187 0.930 . S
N185 Co165 2.194 . S
N185 C180 1.328 . S
N185 C184 1.315 . S
H186 C180 0.929 . S
H187 C184 0.930 . S
H188 C176 0.929 . S
H189 C178 0.929 . S
O190 Co165 2.351 . S
O190 C193 1.244 . S
O191 Co165 2.155 . S
O191 C193 1.240 . S
O192 Co165 2.096 . S
O192 C173 1.247 . S
C193 O190 1.244 . S
C193 O191 1.240 . S
H194 C168 0.931 . S
H195 C177 0.931 . S
H196 C181 0.929 . S
H197 C183 0.930 . S
Co198 N202 2.148 . S
Co198 N208 2.128 . S
Co198 N218 2.194 . S
Co198 O223 2.351 . S
Co198 O224 2.155 . S
Co198 O225 2.096 . S
C199 N202 1.301 . S
C199 N203 1.328 . S
C199 H204 0.930 . S
C200 C201 1.333 . S
C200 N202 1.317 . S
C200 H205 0.930 . S
C201 C200 1.333 . S
C201 N203 1.350 . S
C201 H227 0.931 . S
N202 Co198 2.148 . S
N202 C199 1.301 . S
N202 C200 1.317 . S
N203 C199 1.328 . S
N203 C201 1.350 . S
H204 C199 0.930 . S
H205 C200 0.930 . S
C206 O207 1.224 . S
C206 O225 1.247 . S
O207 C206 1.224 . S
N208 Co198 2.128 . S
N208 C209 1.355 . S
N208 C211 1.311 . S
C209 N208 1.355 . S
C209 C210 1.363 . S
C209 H221 0.929 . S
C210 C209 1.363 . S
C210 N212 1.375 . S
C210 H228 0.931 . S
C211 N208 1.311 . S
C211 N212 1.347 . S
C211 H222 0.929 . S
N212 C210 1.375 . S
N212 C211 1.347 . S
C213 C216 1.365 . S
C213 N218 1.328 . S
C213 H219 0.929 . S
C214 C215 1.362 . S
C214 C217 1.378 . S
C214 H229 0.929 . S
C215 C214 1.362 . S
C215 C216 1.366 . S
C216 C213 1.365 . S
C216 C215 1.366 . S
C216 H230 0.930 . S
C217 C214 1.378 . S
C217 N218 1.315 . S
C217 H220 0.930 . S
N218 Co198 2.194 . S
N218 C213 1.328 . S
N218 C217 1.315 . S
H219 C213 0.929 . S
H220 C217 0.930 . S
H221 C209 0.929 . S
H222 C211 0.929 . S
O223 Co198 2.351 . S
O223 C226 1.244 . S
O224 Co198 2.155 . S
O224 C226 1.240 . S
O225 Co198 2.096 . S
O225 C206 1.247 . S
C226 O223 1.244 . S
C226 O224 1.240 . S
H227 C201 0.931 . S
H228 C210 0.931 . S
H229 C214 0.929 . S
H230 C216 0.930 . S
Co231 N235 2.148 . S
Co231 N241 2.128 . S
Co231 N251 2.194 . S
Co231 O256 2.351 . S
Co231 O257 2.155 . S
Co231 O258 2.096 . S
C232 N235 1.301 . S
C232 N236 1.328 . S
C232 H237 0.930 . S
C233 C234 1.333 . S
C233 N235 1.317 . S
C233 H238 0.930 . S
C234 C233 1.333 . S
C234 N236 1.350 . S
C234 H260 0.931 . S
N235 Co231 2.148 . S
N235 C232 1.301 . S
N235 C233 1.317 . S
N236 C232 1.328 . S
N236 C234 1.350 . S
H237 C232 0.930 . S
H238 C233 0.930 . S
C239 O240 1.224 . S
C239 O258 1.247 . S
O240 C239 1.224 . S
N241 Co231 2.128 . S
N241 C242 1.355 . S
N241 C244 1.311 . S
C242 N241 1.355 . S
C242 C243 1.363 . S
C242 H254 0.929 . S
C243 C242 1.363 . S
C243 N245 1.375 . S
C243 H261 0.931 . S
C244 N241 1.311 . S
C244 N245 1.347 . S
C244 H255 0.929 . S
N245 C243 1.375 . S
N245 C244 1.347 . S
C246 C249 1.365 . S
C246 N251 1.328 . S
C246 H252 0.929 . S
C247 C248 1.362 . S
C247 C250 1.378 . S
C247 H262 0.929 . S
C248 C247 1.362 . S
C248 C249 1.366 . S
C249 C246 1.365 . S
C249 C248 1.366 . S
C249 H263 0.930 . S
C250 C247 1.378 . S
C250 N251 1.315 . S
C250 H253 0.930 . S
N251 Co231 2.194 . S
N251 C246 1.328 . S
N251 C250 1.315 . S
H252 C246 0.929 . S
H253 C250 0.930 . S
H254 C242 0.929 . S
H255 C244 0.929 . S
O256 Co231 2.351 . S
O256 C259 1.244 . S
O257 Co231 2.155 . S
O257 C259 1.240 . S
O258 Co231 2.096 . S
O258 C239 1.247 . S
C259 O256 1.244 . S
C259 O257 1.240 . S
H260 C234 0.931 . S
H261 C243 0.931 . S
H262 C247 0.929 . S
H263 C249 0.930 . S
Co264 N268 2.148 . S
Co264 N274 2.128 . S
Co264 N284 2.194 . S
Co264 O289 2.351 . S
Co264 O290 2.155 . S
Co264 O291 2.096 . S
C265 N268 1.301 . S
C265 N269 1.328 . S
C265 H270 0.930 . S
C266 C267 1.333 . S
C266 N268 1.317 . S
C266 H271 0.930 . S
C267 C266 1.333 . S
C267 N269 1.350 . S
C267 H293 0.931 . S
N268 Co264 2.148 . S
N268 C265 1.301 . S
N268 C266 1.317 . S
N269 C265 1.328 . S
N269 C267 1.350 . S
H270 C265 0.930 . S
H271 C266 0.930 . S
C272 O273 1.224 . S
C272 O291 1.247 . S
O273 C272 1.224 . S
N274 Co264 2.128 . S
N274 C275 1.355 . S
N274 C277 1.311 . S
C275 N274 1.355 . S
C275 C276 1.363 . S
C275 H287 0.929 . S
C276 C275 1.363 . S
C276 N278 1.375 . S
C276 H294 0.931 . S
C277 N274 1.311 . S
C277 N278 1.347 . S
C277 H288 0.929 . S
N278 C276 1.375 . S
N278 C277 1.347 . S
C279 C282 1.365 . S
C279 N284 1.328 . S
C279 H285 0.929 . S
C280 C281 1.362 . S
C280 C283 1.378 . S
C280 H295 0.929 . S
C281 C280 1.362 . S
C281 C282 1.366 . S
C282 C279 1.365 . S
C282 C281 1.366 . S
C282 H296 0.930 . S
C283 C280 1.378 . S
C283 N284 1.315 . S
C283 H286 0.930 . S
N284 Co264 2.194 . S
N284 C279 1.328 . S
N284 C283 1.315 . S
H285 C279 0.929 . S
H286 C283 0.930 . S
H287 C275 0.929 . S
H288 C277 0.929 . S
O289 Co264 2.351 . S
O289 C292 1.244 . S
O290 Co264 2.155 . S
O290 C292 1.240 . S
O291 Co264 2.096 . S
O291 C272 1.247 . S
C292 O289 1.244 . S
C292 O290 1.240 . S
H293 C267 0.931 . S
H294 C276 0.931 . S
H295 C280 0.929 . S
H296 C282 0.930 . S
Co297 N301 2.148 . S
Co297 N307 2.128 . S
Co297 N317 2.194 . S
Co297 O322 2.351 . S
Co297 O323 2.155 . S
Co297 O324 2.096 . S
C298 N301 1.301 . S
C298 N302 1.328 . S
C298 H303 0.930 . S
C299 C300 1.333 . S
C299 N301 1.317 . S
C299 H304 0.930 . S
C300 C299 1.333 . S
C300 N302 1.350 . S
C300 H326 0.931 . S
N301 Co297 2.148 . S
N301 C298 1.301 . S
N301 C299 1.317 . S
N302 C298 1.328 . S
N302 C300 1.350 . S
H303 C298 0.930 . S
H304 C299 0.930 . S
C305 O306 1.224 . S
C305 O324 1.247 . S
O306 C305 1.224 . S
N307 Co297 2.128 . S
N307 C308 1.355 . S
N307 C310 1.311 . S
C308 N307 1.355 . S
C308 C309 1.363 . S
C308 H320 0.929 . S
C309 C308 1.363 . S
C309 N311 1.375 . S
C309 H327 0.931 . S
C310 N307 1.311 . S
C310 N311 1.347 . S
C310 H321 0.929 . S
N311 C309 1.375 . S
N311 C310 1.347 . S
C312 C315 1.365 . S
C312 N317 1.328 . S
C312 H318 0.929 . S
C313 C314 1.362 . S
C313 C316 1.378 . S
C313 H328 0.929 . S
C314 C313 1.362 . S
C314 C315 1.366 . S
C315 C312 1.365 . S
C315 C314 1.366 . S
C315 H329 0.930 . S
C316 C313 1.378 . S
C316 N317 1.315 . S
C316 H319 0.930 . S
N317 Co297 2.194 . S
N317 C312 1.328 . S
N317 C316 1.315 . S
H318 C312 0.929 . S
H319 C316 0.930 . S
H320 C308 0.929 . S
H321 C310 0.929 . S
O322 Co297 2.351 . S
O322 C325 1.244 . S
O323 Co297 2.155 . S
O323 C325 1.240 . S
O324 Co297 2.096 . S
O324 C305 1.247 . S
C325 O322 1.244 . S
C325 O323 1.240 . S
H326 C300 0.931 . S
H327 C309 0.931 . S
H328 C313 0.929 . S
H329 C315 0.930 . S
Co330 N334 2.148 . S
Co330 N340 2.128 . S
Co330 N350 2.194 . S
Co330 O355 2.351 . S
Co330 O356 2.155 . S
Co330 O357 2.096 . S
C331 N334 1.301 . S
C331 N335 1.328 . S
C331 H336 0.930 . S
C332 C333 1.333 . S
C332 N334 1.317 . S
C332 H337 0.930 . S
C333 C332 1.333 . S
C333 N335 1.350 . S
C333 H359 0.931 . S
N334 Co330 2.148 . S
N334 C331 1.301 . S
N334 C332 1.317 . S
N335 C331 1.328 . S
N335 C333 1.350 . S
H336 C331 0.930 . S
H337 C332 0.930 . S
C338 O339 1.224 . S
C338 O357 1.247 . S
O339 C338 1.224 . S
N340 Co330 2.128 . S
N340 C341 1.355 . S
N340 C343 1.311 . S
C341 N340 1.355 . S
C341 C342 1.363 . S
C341 H353 0.929 . S
C342 C341 1.363 . S
C342 N344 1.375 . S
C342 H360 0.931 . S
C343 N340 1.311 . S
C343 N344 1.347 . S
C343 H354 0.929 . S
N344 C342 1.375 . S
N344 C343 1.347 . S
C345 C348 1.365 . S
C345 N350 1.328 . S
C345 H351 0.929 . S
C346 C347 1.362 . S
C346 C349 1.378 . S
C346 H361 0.929 . S
C347 C346 1.362 . S
C347 C348 1.366 . S
C348 C345 1.365 . S
C348 C347 1.366 . S
C348 H362 0.930 . S
C349 C346 1.378 . S
C349 N350 1.315 . S
C349 H352 0.930 . S
N350 Co330 2.194 . S
N350 C345 1.328 . S
N350 C349 1.315 . S
H351 C345 0.929 . S
H352 C349 0.930 . S
H353 C341 0.929 . S
H354 C343 0.929 . S
O355 Co330 2.351 . S
O355 C358 1.244 . S
O356 Co330 2.155 . S
O356 C358 1.240 . S
O357 Co330 2.096 . S
O357 C338 1.247 . S
C358 O355 1.244 . S
C358 O356 1.240 . S
H359 C333 0.931 . S
H360 C342 0.931 . S
H361 C346 0.929 . S
H362 C348 0.930 . S
Co363 N367 2.148 . S
Co363 N373 2.128 . S
Co363 N383 2.194 . S
Co363 O388 2.351 . S
Co363 O389 2.155 . S
Co363 O390 2.096 . S
C364 N367 1.301 . S
C364 N368 1.328 . S
C364 H369 0.930 . S
C365 C366 1.333 . S
C365 N367 1.317 . S
C365 H370 0.930 . S
C366 C365 1.333 . S
C366 N368 1.350 . S
C366 H392 0.931 . S
N367 Co363 2.148 . S
N367 C364 1.301 . S
N367 C365 1.317 . S
N368 C364 1.328 . S
N368 C366 1.350 . S
H369 C364 0.930 . S
H370 C365 0.930 . S
C371 O372 1.224 . S
C371 O390 1.247 . S
O372 C371 1.224 . S
N373 Co363 2.128 . S
N373 C374 1.355 . S
N373 C376 1.311 . S
C374 N373 1.355 . S
C374 C375 1.363 . S
C374 H386 0.929 . S
C375 C374 1.363 . S
C375 N377 1.375 . S
C375 H393 0.931 . S
C376 N373 1.311 . S
C376 N377 1.347 . S
C376 H387 0.929 . S
N377 C375 1.375 . S
N377 C376 1.347 . S
C378 C381 1.365 . S
C378 N383 1.328 . S
C378 H384 0.929 . S
C379 C380 1.362 . S
C379 C382 1.378 . S
C379 H394 0.929 . S
C380 C379 1.362 . S
C380 C381 1.366 . S
C381 C378 1.365 . S
C381 C380 1.366 . S
C381 H395 0.930 . S
C382 C379 1.378 . S
C382 N383 1.315 . S
C382 H385 0.930 . S
N383 Co363 2.194 . S
N383 C378 1.328 . S
N383 C382 1.315 . S
H384 C378 0.929 . S
H385 C382 0.930 . S
H386 C374 0.929 . S
H387 C376 0.929 . S
O388 Co363 2.351 . S
O388 C391 1.244 . S
O389 Co363 2.155 . S
O389 C391 1.240 . S
O390 Co363 2.096 . S
O390 C371 1.247 . S
C391 O388 1.244 . S
C391 O389 1.240 . S
H392 C366 0.931 . S
H393 C375 0.931 . S
H394 C379 0.929 . S
H395 C381 0.930 . S
Co396 N400 2.148 . S
Co396 N406 2.128 . S
Co396 N416 2.194 . S
Co396 O421 2.351 . S
Co396 O422 2.155 . S
Co396 O423 2.096 . S
C397 N400 1.301 . S
C397 N401 1.328 . S
C397 H402 0.930 . S
C398 C399 1.333 . S
C398 N400 1.317 . S
C398 H403 0.930 . S
C399 C398 1.333 . S
C399 N401 1.350 . S
C399 H425 0.931 . S
N400 Co396 2.148 . S
N400 C397 1.301 . S
N400 C398 1.317 . S
N401 C397 1.328 . S
N401 C399 1.350 . S
H402 C397 0.930 . S
H403 C398 0.930 . S
C404 O405 1.224 . S
C404 O423 1.247 . S
O405 C404 1.224 . S
N406 Co396 2.128 . S
N406 C407 1.355 . S
N406 C409 1.311 . S
C407 N406 1.355 . S
C407 C408 1.363 . S
C407 H419 0.929 . S
C408 C407 1.363 . S
C408 N410 1.375 . S
C408 H426 0.931 . S
C409 N406 1.311 . S
C409 N410 1.347 . S
C409 H420 0.929 . S
N410 C408 1.375 . S
N410 C409 1.347 . S
C411 C414 1.365 . S
C411 N416 1.328 . S
C411 H417 0.929 . S
C412 C413 1.362 . S
C412 C415 1.378 . S
C412 H427 0.929 . S
C413 C412 1.362 . S
C413 C414 1.366 . S
C414 C411 1.365 . S
C414 C413 1.366 . S
C414 H428 0.930 . S
C415 C412 1.378 . S
C415 N416 1.315 . S
C415 H418 0.930 . S
N416 Co396 2.194 . S
N416 C411 1.328 . S
N416 C415 1.315 . S
H417 C411 0.929 . S
H418 C415 0.930 . S
H419 C407 0.929 . S
H420 C409 0.929 . S
O421 Co396 2.351 . S
O421 C424 1.244 . S
O422 Co396 2.155 . S
O422 C424 1.240 . S
O423 Co396 2.096 . S
O423 C404 1.247 . S
C424 O421 1.244 . S
C424 O422 1.240 . S
H425 C399 0.931 . S
H426 C408 0.931 . S
H427 C412 0.929 . S
H428 C414 0.930 . S
Co429 N433 2.148 . S
Co429 N439 2.128 . S
Co429 N449 2.194 . S
Co429 O454 2.351 . S
Co429 O455 2.155 . S
Co429 O456 2.096 . S
C430 N433 1.301 . S
C430 N434 1.328 . S
C430 H435 0.930 . S
C431 C432 1.333 . S
C431 N433 1.317 . S
C431 H436 0.930 . S
C432 C431 1.333 . S
C432 N434 1.350 . S
C432 H458 0.931 . S
N433 Co429 2.148 . S
N433 C430 1.301 . S
N433 C431 1.317 . S
N434 C430 1.328 . S
N434 C432 1.350 . S
H435 C430 0.930 . S
H436 C431 0.930 . S
C437 O438 1.224 . S
C437 O456 1.247 . S
O438 C437 1.224 . S
N439 Co429 2.128 . S
N439 C440 1.355 . S
N439 C442 1.311 . S
C440 N439 1.355 . S
C440 C441 1.363 . S
C440 H452 0.929 . S
C441 C440 1.363 . S
C441 N443 1.375 . S
C441 H459 0.931 . S
C442 N439 1.311 . S
C442 N443 1.347 . S
C442 H453 0.929 . S
N443 C441 1.375 . S
N443 C442 1.347 . S
C444 C447 1.365 . S
C444 N449 1.328 . S
C444 H450 0.929 . S
C445 C446 1.362 . S
C445 C448 1.378 . S
C445 H460 0.929 . S
C446 C445 1.362 . S
C446 C447 1.366 . S
C447 C444 1.365 . S
C447 C446 1.366 . S
C447 H461 0.930 . S
C448 C445 1.378 . S
C448 N449 1.315 . S
C448 H451 0.930 . S
N449 Co429 2.194 . S
N449 C444 1.328 . S
N449 C448 1.315 . S
H450 C444 0.929 . S
H451 C448 0.930 . S
H452 C440 0.929 . S
H453 C442 0.929 . S
O454 Co429 2.351 . S
O454 C457 1.244 . S
O455 Co429 2.155 . S
O455 C457 1.240 . S
O456 Co429 2.096 . S
O456 C437 1.247 . S
C457 O454 1.244 . S
C457 O455 1.240 . S
H458 C432 0.931 . S
H459 C441 0.931 . S
H460 C445 0.929 . S
H461 C447 0.930 . S
Co462 N466 2.148 . S
Co462 N472 2.128 . S
Co462 N482 2.194 . S
Co462 O487 2.351 . S
Co462 O488 2.155 . S
Co462 O489 2.096 . S
C463 N466 1.301 . S
C463 N467 1.328 . S
C463 H468 0.930 . S
C464 C465 1.333 . S
C464 N466 1.317 . S
C464 H469 0.930 . S
C465 C464 1.333 . S
C465 N467 1.350 . S
C465 H491 0.931 . S
N466 Co462 2.148 . S
N466 C463 1.301 . S
N466 C464 1.317 . S
N467 C463 1.328 . S
N467 C465 1.350 . S
H468 C463 0.930 . S
H469 C464 0.930 . S
C470 O471 1.224 . S
C470 O489 1.247 . S
O471 C470 1.224 . S
N472 Co462 2.128 . S
N472 C473 1.355 . S
N472 C475 1.311 . S
C473 N472 1.355 . S
C473 C474 1.363 . S
C473 H485 0.929 . S
C474 C473 1.363 . S
C474 N476 1.375 . S
C474 H492 0.931 . S
C475 N472 1.311 . S
C475 N476 1.347 . S
C475 H486 0.929 . S
N476 C474 1.375 . S
N476 C475 1.347 . S
C477 C480 1.365 . S
C477 N482 1.328 . S
C477 H483 0.929 . S
C478 C479 1.362 . S
C478 C481 1.378 . S
C478 H493 0.929 . S
C479 C478 1.362 . S
C479 C480 1.366 . S
C480 C477 1.365 . S
C480 C479 1.366 . S
C480 H494 0.930 . S
C481 C478 1.378 . S
C481 N482 1.315 . S
C481 H484 0.930 . S
N482 Co462 2.194 . S
N482 C477 1.328 . S
N482 C481 1.315 . S
H483 C477 0.929 . S
H484 C481 0.930 . S
H485 C473 0.929 . S
H486 C475 0.929 . S
O487 Co462 2.351 . S
O487 C490 1.244 . S
O488 Co462 2.155 . S
O488 C490 1.240 . S
O489 Co462 2.096 . S
O489 C470 1.247 . S
C490 O487 1.244 . S
C490 O488 1.240 . S
H491 C465 0.931 . S
H492 C474 0.931 . S
H493 C478 0.929 . S
H494 C480 0.930 . S
Co495 N499 2.148 . S
Co495 N505 2.128 . S
Co495 N515 2.194 . S
Co495 O520 2.351 . S
Co495 O521 2.155 . S
Co495 O522 2.096 . S
C496 N499 1.301 . S
C496 N500 1.328 . S
C496 H501 0.930 . S
C497 C498 1.333 . S
C497 N499 1.317 . S
C497 H502 0.930 . S
C498 C497 1.333 . S
C498 N500 1.350 . S
C498 H524 0.931 . S
N499 Co495 2.148 . S
N499 C496 1.301 . S
N499 C497 1.317 . S
N500 C496 1.328 . S
N500 C498 1.350 . S
H501 C496 0.930 . S
H502 C497 0.930 . S
C503 O504 1.224 . S
C503 O522 1.247 . S
O504 C503 1.224 . S
N505 Co495 2.128 . S
N505 C506 1.355 . S
N505 C508 1.311 . S
C506 N505 1.355 . S
C506 C507 1.363 . S
C506 H518 0.929 . S
C507 C506 1.363 . S
C507 N509 1.375 . S
C507 H525 0.931 . S
C508 N505 1.311 . S
C508 N509 1.347 . S
C508 H519 0.929 . S
N509 C507 1.375 . S
N509 C508 1.347 . S
C510 C513 1.365 . S
C510 N515 1.328 . S
C510 H516 0.929 . S
C511 C512 1.362 . S
C511 C514 1.378 . S
C511 H526 0.929 . S
C512 C511 1.362 . S
C512 C513 1.366 . S
C513 C510 1.365 . S
C513 C512 1.366 . S
C513 H527 0.930 . S
C514 C511 1.378 . S
C514 N515 1.315 . S
C514 H517 0.930 . S
N515 Co495 2.194 . S
N515 C510 1.328 . S
N515 C514 1.315 . S
H516 C510 0.929 . S
H517 C514 0.930 . S
H518 C506 0.929 . S
H519 C508 0.929 . S
O520 Co495 2.351 . S
O520 C523 1.244 . S
O521 Co495 2.155 . S
O521 C523 1.240 . S
O522 Co495 2.096 . S
O522 C503 1.247 . S
C523 O520 1.244 . S
C523 O521 1.240 . S
H524 C498 0.931 . S
H525 C507 0.931 . S
H526 C511 0.929 . S
H527 C513 0.930 . S
C528 C529 1.387 . S
C528 H532 0.950 . S
C528 C537 1.390 . S
C529 C528 1.387 . S
C529 C531 1.387 . S
H530 C537 0.950 . S
C531 C529 1.387 . S
C531 C533 1.390 . S
C531 H535 0.950 . S
H532 C528 0.950 . S
C533 C531 1.390 . S
C533 C534 1.387 . S
C533 H536 0.950 . S
C534 C533 1.387 . S
C534 C537 1.387 . S
H535 C531 0.950 . S
H536 C533 0.950 . S
C537 C528 1.390 . S
C537 H530 0.950 . S
C537 C534 1.387 . S
C538 C539 1.387 . S
C538 H542 0.950 . S
C538 C547 1.390 . S
C539 C538 1.387 . S
C539 C541 1.387 . S
H540 C547 0.950 . S
C541 C539 1.387 . S
C541 C543 1.390 . S
C541 H545 0.950 . S
H542 C538 0.950 . S
C543 C541 1.390 . S
C543 C544 1.387 . S
C543 H546 0.950 . S
C544 C543 1.387 . S
C544 C547 1.387 . S
H545 C541 0.950 . S
H546 C543 0.950 . S
C547 C538 1.390 . S
C547 H540 0.950 . S
C547 C544 1.387 . S
C548 C549 1.387 . S
C548 H552 0.950 . S
C548 C557 1.390 . S
C549 C548 1.387 . S
C549 C551 1.387 . S
H550 C557 0.950 . S
C551 C549 1.387 . S
C551 C553 1.390 . S
C551 H555 0.950 . S
H552 C548 0.950 . S
C553 C551 1.390 . S
C553 C554 1.387 . S
C553 H556 0.950 . S
C554 C553 1.387 . S
C554 C557 1.387 . S
H555 C551 0.950 . S
H556 C553 0.950 . S
C557 C548 1.390 . S
C557 H550 0.950 . S
C557 C554 1.387 . S
C558 C559 1.387 . S
C558 H562 0.950 . S
C558 C567 1.390 . S
C559 C558 1.387 . S
C559 C561 1.387 . S
H560 C567 0.950 . S
C561 C559 1.387 . S
C561 C563 1.390 . S
C561 H565 0.950 . S
H562 C558 0.950 . S
C563 C561 1.390 . S
C563 C564 1.387 . S
C563 H566 0.950 . S
C564 C563 1.387 . S
C564 C567 1.387 . S
H565 C561 0.950 . S
H566 C563 0.950 . S
C567 C558 1.390 . S
C567 H560 0.950 . S
C567 C564 1.387 . S
C568 C569 1.387 . S
C568 H572 0.950 . S
C568 C577 1.390 . S
C569 C568 1.387 . S
C569 C571 1.387 . S
H570 C577 0.950 . S
C571 C569 1.387 . S
C571 C573 1.390 . S
C571 H575 0.950 . S
H572 C568 0.950 . S
C573 C571 1.390 . S
C573 C574 1.387 . S
C573 H576 0.950 . S
C574 C573 1.387 . S
C574 C577 1.387 . S
H575 C571 0.950 . S
H576 C573 0.950 . S
C577 C568 1.390 . S
C577 H570 0.950 . S
C577 C574 1.387 . S
C578 C579 1.387 . S
C578 H582 0.950 . S
C578 C587 1.390 . S
C579 C578 1.387 . S
C579 C581 1.387 . S
H580 C587 0.950 . S
C581 C579 1.387 . S
C581 C583 1.390 . S
C581 H585 0.950 . S
H582 C578 0.950 . S
C583 C581 1.390 . S
C583 C584 1.387 . S
C583 H586 0.950 . S
C584 C583 1.387 . S
C584 C587 1.387 . S
H585 C581 0.950 . S
H586 C583 0.950 . S
C587 C578 1.390 . S
C587 H580 0.950 . S
C587 C584 1.387 . S
C588 C589 1.387 . S
C588 H592 0.950 . S
C588 C597 1.390 . S
C589 C588 1.387 . S
C589 C591 1.387 . S
H590 C597 0.950 . S
C591 C589 1.387 . S
C591 C593 1.390 . S
C591 H595 0.950 . S
H592 C588 0.950 . S
C593 C591 1.390 . S
C593 C594 1.387 . S
C593 H596 0.950 . S
C594 C593 1.387 . S
C594 C597 1.387 . S
H595 C591 0.950 . S
H596 C593 0.950 . S
C597 C588 1.390 . S
C597 H590 0.950 . S
C597 C594 1.387 . S
C598 C599 1.387 . S
C598 H602 0.950 . S
C598 C607 1.390 . S
C599 C598 1.387 . S
C599 C601 1.387 . S
H600 C607 0.950 . S
C601 C599 1.387 . S
C601 C603 1.390 . S
C601 H605 0.950 . S
H602 C598 0.950 . S
C603 C601 1.390 . S
C603 C604 1.387 . S
C603 H606 0.950 . S
C604 C603 1.387 . S
C604 C607 1.387 . S
H605 C601 0.950 . S
H606 C603 0.950 . S
C607 C598 1.390 . S
C607 H600 0.950 . S
C607 C604 1.387 . S
C608 C609 1.387 . S
C608 H612 0.950 . S
C608 C617 1.390 . S
C609 C608 1.387 . S
C609 C611 1.387 1_554 S
H610 C617 0.950 . S
C611 C609 1.387 1_556 S
C611 C613 1.390 . S
C611 H615 0.950 . S
H612 C608 0.950 . S
C613 C611 1.390 . S
C613 C614 1.387 1_556 S
C613 H616 0.950 . S
C614 C613 1.387 1_554 S
C614 C617 1.387 . S
H615 C611 0.950 . S
H616 C613 0.950 . S
C617 C608 1.390 . S
C617 H610 0.950 . S
C617 C614 1.387 . S
C618 C619 1.387 1_554 S
C618 H622 0.950 . S
C618 C627 1.390 . S
C619 C618 1.387 1_556 S
C619 C621 1.387 . S
H620 C627 0.950 . S
C621 C619 1.387 . S
C621 C623 1.390 . S
C621 H625 0.950 . S
H622 C618 0.950 . S
C623 C621 1.390 . S
C623 C624 1.387 . S
C623 H626 0.950 . S
C624 C623 1.387 . S
C624 C627 1.387 1_556 S
H625 C621 0.950 . S
H626 C623 0.950 . S
C627 C618 1.390 . S
C627 H620 0.950 . S
C627 C624 1.387 1_554 S
C628 C629 1.387 1_556 S
C628 H632 0.950 . S
C628 C637 1.390 . S
C629 C628 1.387 1_554 S
C629 C631 1.387 . S
H630 C637 0.950 . S
C631 C629 1.387 . S
C631 C633 1.390 . S
C631 H635 0.950 . S
H632 C628 0.950 . S
C633 C631 1.390 . S
C633 C634 1.387 . S
C633 H636 0.950 . S
C634 C633 1.387 . S
C634 C637 1.387 1_554 S
H635 C631 0.950 . S
H636 C633 0.950 . S
C637 C628 1.390 . S
C637 H630 0.950 . S
C637 C634 1.387 1_556 S
C638 C639 1.387 1_554 S
C638 H642 0.950 . S
C638 C647 1.390 . S
C639 C638 1.387 1_556 S
C639 C641 1.387 . S
H640 C647 0.950 . S
C641 C639 1.387 . S
C641 C643 1.390 . S
C641 H645 0.950 . S
H642 C638 0.950 . S
C643 C641 1.390 . S
C643 C644 1.387 . S
C643 H646 0.950 . S
C644 C643 1.387 . S
C644 C647 1.387 1_556 S
H645 C641 0.950 . S
H646 C643 0.950 . S
C647 C638 1.390 . S
C647 H640 0.950 . S
C647 C644 1.387 1_554 S
C648 C649 1.387 . S
C648 H652 0.950 . S
C648 C657 1.390 . S
C649 C648 1.387 . S
C649 C651 1.387 . S
H650 C657 0.950 . S
C651 C649 1.387 . S
C651 C653 1.390 . S
C651 H655 0.950 . S
H652 C648 0.950 . S
C653 C651 1.390 . S
C653 C654 1.387 . S
C653 H656 0.950 . S
C654 C653 1.387 . S
C654 C657 1.387 . S
H655 C651 0.950 . S
H656 C653 0.950 . S
C657 C648 1.390 . S
C657 H650 0.950 . S
C657 C654 1.387 . S
C658 C659 1.387 . S
C658 H662 0.950 . S
C658 C667 1.390 . S
C659 C658 1.387 . S
C659 C661 1.387 . S
H660 C667 0.950 . S
C661 C659 1.387 . S
C661 C663 1.390 . S
C661 H665 0.950 . S
H662 C658 0.950 . S
C663 C661 1.390 . S
C663 C664 1.387 . S
C663 H666 0.950 . S
C664 C663 1.387 . S
C664 C667 1.387 . S
H665 C661 0.950 . S
H666 C663 0.950 . S
C667 C658 1.390 . S
C667 H660 0.950 . S
C667 C664 1.387 . S
C668 C669 1.387 . S
C668 H672 0.950 . S
C668 C677 1.390 . S
C669 C668 1.387 . S
C669 C671 1.387 . S
H670 C677 0.950 . S
C671 C669 1.387 . S
C671 C673 1.390 . S
C671 H675 0.950 . S
H672 C668 0.950 . S
C673 C671 1.390 . S
C673 C674 1.387 . S
C673 H676 0.950 . S
C674 C673 1.387 . S
C674 C677 1.387 . S
H675 C671 0.950 . S
H676 C673 0.950 . S
C677 C668 1.390 . S
C677 H670 0.950 . S
C677 C674 1.387 . S
C678 C679 1.387 . S
C678 H682 0.950 . S
C678 C687 1.390 . S
C679 C678 1.387 . S
C679 C681 1.387 . S
H680 C687 0.950 . S
C681 C679 1.387 . S
C681 C683 1.390 . S
C681 H685 0.950 . S
H682 C678 0.950 . S
C683 C681 1.390 . S
C683 C684 1.387 . S
C683 H686 0.950 . S
C684 C683 1.387 . S
C684 C687 1.387 . S
H685 C681 0.950 . S
H686 C683 0.950 . S
C687 C678 1.390 . S
C687 H680 0.950 . S
C687 C684 1.387 . S
C688 C689 1.387 . S
C688 H692 0.950 . S
C688 C697 1.390 . S
C689 C688 1.387 . S
C689 C691 1.387 . S
H690 C697 0.950 . S
C691 C689 1.387 . S
C691 C693 1.390 . S
C691 H695 0.950 . S
H692 C688 0.950 . S
C693 C691 1.390 . S
C693 C694 1.387 . S
C693 H696 0.950 . S
C694 C693 1.387 . S
C694 C697 1.387 . S
H695 C691 0.950 . S
H696 C693 0.950 . S
C697 C688 1.390 . S
C697 H690 0.950 . S
C697 C694 1.387 . S
C698 C699 1.387 . S
C698 H702 0.950 . S
C698 C707 1.390 . S
C699 C698 1.387 . S
C699 C701 1.387 . S
H700 C707 0.950 . S
C701 C699 1.387 . S
C701 C703 1.390 . S
C701 H705 0.950 . S
H702 C698 0.950 . S
C703 C701 1.390 . S
C703 C704 1.387 . S
C703 H706 0.950 . S
C704 C703 1.387 . S
C704 C707 1.387 . S
H705 C701 0.950 . S
H706 C703 0.950 . S
C707 C698 1.390 . S
C707 H700 0.950 . S
C707 C704 1.387 . S
C708 C709 1.387 . S
C708 H712 0.950 . S
C708 C717 1.390 . S
C709 C708 1.387 . S
C709 C711 1.387 . S
H710 C717 0.950 . S
C711 C709 1.387 . S
C711 C713 1.390 . S
C711 H715 0.950 . S
H712 C708 0.950 . S
C713 C711 1.390 . S
C713 C714 1.387 . S
C713 H716 0.950 . S
C714 C713 1.387 . S
C714 C717 1.387 . S
H715 C711 0.950 . S
H716 C713 0.950 . S
C717 C708 1.390 . S
C717 H710 0.950 . S
C717 C714 1.387 . S
C718 C719 1.387 . S
C718 H722 0.950 . S
C718 C727 1.390 . S
C719 C718 1.387 . S
C719 C721 1.387 . S
H720 C727 0.950 . S
C721 C719 1.387 . S
C721 C723 1.390 . S
C721 H725 0.950 . S
H722 C718 0.950 . S
C723 C721 1.390 . S
C723 C724 1.387 . S
C723 H726 0.950 . S
C724 C723 1.387 . S
C724 C727 1.387 . S
H725 C721 0.950 . S
H726 C723 0.950 . S
C727 C718 1.390 . S
C727 H720 0.950 . S
C727 C724 1.387 . S
C728 C729 1.387 . S
C728 H732 0.950 . S
C728 C737 1.390 . S
C729 C728 1.387 . S
C729 C731 1.387 . S
H730 C737 0.950 . S
C731 C729 1.387 . S
C731 C733 1.390 . S
C731 H735 0.950 . S
H732 C728 0.950 . S
C733 C731 1.390 . S
C733 C734 1.387 . S
C733 H736 0.950 . S
C734 C733 1.387 . S
C734 C737 1.387 . S
H735 C731 0.950 . S
H736 C733 0.950 . S
C737 C728 1.390 . S
C737 H730 0.950 . S
C737 C734 1.387 . S
C738 C739 1.387 . S
C738 H742 0.950 . S
C738 C747 1.390 . S
C739 C738 1.387 . S
C739 C741 1.387 . S
H740 C747 0.950 . S
C741 C739 1.387 . S
C741 C743 1.390 . S
C741 H745 0.950 . S
H742 C738 0.950 . S
C743 C741 1.390 . S
C743 C744 1.387 . S
C743 H746 0.950 . S
C744 C743 1.387 . S
C744 C747 1.387 . S
H745 C741 0.950 . S
H746 C743 0.950 . S
C747 C738 1.390 . S
C747 H740 0.950 . S
C747 C744 1.387 . S
C748 C749 1.387 . S
C748 H752 0.950 . S
C748 C757 1.390 . S
C749 C748 1.387 . S
C749 C751 1.387 . S
H750 C757 0.950 . S
C751 C749 1.387 . S
C751 C753 1.390 . S
C751 H755 0.950 . S
H752 C748 0.950 . S
C753 C751 1.390 . S
C753 C754 1.387 . S
C753 H756 0.950 . S
C754 C753 1.387 . S
C754 C757 1.387 . S
H755 C751 0.950 . S
H756 C753 0.950 . S
C757 C748 1.390 . S
C757 H750 0.950 . S
C757 C754 1.387 . S
C758 C759 1.387 . S
C758 H762 0.950 . S
C758 C767 1.390 . S
C759 C758 1.387 . S
C759 C761 1.387 . S
H760 C767 0.950 . S
C761 C759 1.387 . S
C761 C763 1.390 . S
C761 H765 0.950 . S
H762 C758 0.950 . S
C763 C761 1.390 . S
C763 C764 1.387 . S
C763 H766 0.950 . S
C764 C763 1.387 . S
C764 C767 1.387 . S
H765 C761 0.950 . S
H766 C763 0.950 . S
C767 C758 1.390 . S
C767 H760 0.950 . S
C767 C764 1.387 . S
C768 C769 1.387 . S
C768 H772 0.950 . S
C768 C777 1.390 1_545 S
C769 C768 1.387 . S
C769 C771 1.387 1_556 S
H770 C777 0.950 . S
C771 C769 1.387 1_554 S
C771 C773 1.390 1_545 S
C771 H775 0.950 . S
H772 C768 0.950 . S
C773 C771 1.390 1_565 S
C773 C774 1.387 1_554 S
C773 H776 0.950 . S
C774 C773 1.387 1_556 S
C774 C777 1.387 . S
H775 C771 0.950 . S
H776 C773 0.950 . S
C777 C768 1.390 1_565 S
C777 H770 0.950 . S
C777 C774 1.387 . S
C778 C779 1.387 1_556 S
C778 H782 0.950 . S
C778 C787 1.390 1_455 S
C779 C778 1.387 1_554 S
C779 C781 1.387 . S
H780 C787 0.950 . S
C781 C779 1.387 . S
C781 C783 1.390 1_455 S
C781 H785 0.950 . S
H782 C778 0.950 . S
C783 C781 1.390 1_655 S
C783 C784 1.387 . S
C783 H786 0.950 . S
C784 C783 1.387 . S
C784 C787 1.387 1_554 S
H785 C781 0.950 . S
H786 C783 0.950 . S
C787 C778 1.390 1_655 S
C787 H780 0.950 . S
C787 C784 1.387 1_556 S
C788 C789 1.387 . S
C788 H792 0.950 . S
C788 C797 1.390 . S
C789 C788 1.387 . S
C789 C791 1.387 . S
H790 C797 0.950 . S
C791 C789 1.387 . S
C791 C793 1.390 . S
C791 H795 0.950 . S
H792 C788 0.950 . S
C793 C791 1.390 . S
C793 C794 1.387 . S
C793 H796 0.950 . S
C794 C793 1.387 . S
C794 C797 1.387 . S
H795 C791 0.950 . S
H796 C793 0.950 . S
C797 C788 1.390 . S
C797 H790 0.950 . S
C797 C794 1.387 . S
C798 C799 1.387 . S
C798 H802 0.950 . S
C798 C807 1.390 . S
C799 C798 1.387 . S
C799 C801 1.387 . S
H800 C807 0.950 . S
C801 C799 1.387 . S
C801 C803 1.390 . S
C801 H805 0.950 . S
H802 C798 0.950 . S
C803 C801 1.390 . S
C803 C804 1.387 . S
C803 H806 0.950 . S
C804 C803 1.387 . S
C804 C807 1.387 . S
H805 C801 0.950 . S
H806 C803 0.950 . S
C807 C798 1.390 . S
C807 H800 0.950 . S
C807 C804 1.387 . S
C808 C809 1.387 . S
C808 H812 0.950 . S
C808 C817 1.390 1_655 S
C809 C808 1.387 . S
C809 C811 1.387 . S
H810 C817 0.950 . S
C811 C809 1.387 . S
C811 C813 1.390 1_655 S
C811 H815 0.950 . S
H812 C808 0.950 . S
C813 C811 1.390 1_455 S
C813 C814 1.387 . S
C813 H816 0.950 . S
C814 C813 1.387 . S
C814 C817 1.387 . S
H815 C811 0.950 . S
H816 C813 0.950 . S
C817 C808 1.390 1_455 S
C817 H810 0.950 . S
C817 C814 1.387 . S
C818 C819 1.387 . S
C818 H822 0.950 . S
C818 C827 1.390 1_545 S
C819 C818 1.387 . S
C819 C821 1.387 . S
H820 C827 0.950 . S
C821 C819 1.387 . S
C821 C823 1.390 1_545 S
C821 H825 0.950 . S
H822 C818 0.950 . S
C823 C821 1.390 1_565 S
C823 C824 1.387 . S
C823 H826 0.950 . S
C824 C823 1.387 . S
C824 C827 1.387 . S
H825 C821 0.950 . S
H826 C823 0.950 . S
C827 C818 1.390 1_565 S
C827 H820 0.950 . S
C827 C824 1.387 . S
C828 C829 1.387 . S
C828 H832 0.950 . S
C828 C837 1.390 1_665 S
C829 C828 1.387 . S
C829 C831 1.387 . S
H830 C837 0.950 . S
C831 C829 1.387 . S
C831 C833 1.390 1_665 S
C831 H835 0.950 . S
H832 C828 0.950 . S
C833 C831 1.390 1_445 S
C833 C834 1.387 . S
C833 H836 0.950 . S
C834 C833 1.387 . S
C834 C837 1.387 . S
H835 C831 0.950 . S
H836 C833 0.950 . S
C837 C828 1.390 1_445 S
C837 H830 0.950 . S
C837 C834 1.387 . S
C838 C839 1.387 . S
C838 H842 0.950 . S
C838 C847 1.390 1_645 S
C839 C838 1.387 . S
C839 C841 1.387 . S
H840 C847 0.950 . S
C841 C839 1.387 . S
C841 C843 1.390 1_645 S
C841 H845 0.950 . S
H842 C838 0.950 . S
C843 C841 1.390 1_465 S
C843 C844 1.387 . S
C843 H846 0.950 . S
C844 C843 1.387 . S
C844 C847 1.387 . S
H845 C841 0.950 . S
H846 C843 0.950 . S
C847 C838 1.390 1_465 S
C847 H840 0.950 . S
C847 C844 1.387 . S
C848 C849 1.387 . S
C848 H852 0.950 . S
C848 C857 1.390 . S
C849 C848 1.387 . S
C849 C851 1.387 . S
H850 C857 0.950 . S
C851 C849 1.387 . S
C851 C853 1.390 . S
C851 H855 0.950 . S
H852 C848 0.950 . S
C853 C851 1.390 . S
C853 C854 1.387 . S
C853 H856 0.950 . S
C854 C853 1.387 . S
C854 C857 1.387 . S
H855 C851 0.950 . S
H856 C853 0.950 . S
C857 C848 1.390 . S
C857 H850 0.950 . S
C857 C854 1.387 . S
C858 C859 1.387 . S
C858 H862 0.950 . S
C858 C867 1.390 . S
C859 C858 1.387 . S
C859 C861 1.387 . S
H860 C867 0.950 . S
C861 C859 1.387 . S
C861 C863 1.390 . S
C861 H865 0.950 . S
H862 C858 0.950 . S
C863 C861 1.390 . S
C863 C864 1.387 . S
C863 H866 0.950 . S
C864 C863 1.387 . S
C864 C867 1.387 . S
H865 C861 0.950 . S
H866 C863 0.950 . S
C867 C858 1.390 . S
C867 H860 0.950 . S
C867 C864 1.387 . S
C868 C869 1.387 . S
C868 H872 0.950 . S
C868 C877 1.390 . S
C869 C868 1.387 . S
C869 C871 1.387 . S
H870 C877 0.950 . S
C871 C869 1.387 . S
C871 C873 1.390 . S
C871 H875 0.950 . S
H872 C868 0.950 . S
C873 C871 1.390 . S
C873 C874 1.387 . S
C873 H876 0.950 . S
C874 C873 1.387 . S
C874 C877 1.387 . S
H875 C871 0.950 . S
H876 C873 0.950 . S
C877 C868 1.390 . S
C877 H870 0.950 . S
C877 C874 1.387 . S
C878 C879 1.387 . S
C878 H882 0.950 . S
C878 C887 1.390 . S
C879 C878 1.387 . S
C879 C881 1.387 . S
H880 C887 0.950 . S
C881 C879 1.387 . S
C881 C883 1.390 . S
C881 H885 0.950 . S
H882 C878 0.950 . S
C883 C881 1.390 . S
C883 C884 1.387 . S
C883 H886 0.950 . S
C884 C883 1.387 . S
C884 C887 1.387 . S
H885 C881 0.950 . S
H886 C883 0.950 . S
C887 C878 1.390 . S
C887 H880 0.950 . S
C887 C884 1.387 . S
C888 C889 1.387 . S
C888 H892 0.950 . S
C888 C897 1.390 . S
C889 C888 1.387 . S
C889 C891 1.387 . S
H890 C897 0.950 . S
C891 C889 1.387 . S
C891 C893 1.390 . S
C891 H895 0.950 . S
H892 C888 0.950 . S
C893 C891 1.390 . S
C893 C894 1.387 . S
C893 H896 0.950 . S
C894 C893 1.387 . S
C894 C897 1.387 . S
H895 C891 0.950 . S
H896 C893 0.950 . S
C897 C888 1.390 . S
C897 H890 0.950 . S
C897 C894 1.387 . S
C898 C899 1.387 . S
C898 H902 0.950 . S
C898 C907 1.390 . S
C899 C898 1.387 . S
C899 C901 1.387 . S
H900 C907 0.950 . S
C901 C899 1.387 . S
C901 C903 1.390 . S
C901 H905 0.950 . S
H902 C898 0.950 . S
C903 C901 1.390 . S
C903 C904 1.387 . S
C903 H906 0.950 . S
C904 C903 1.387 . S
C904 C907 1.387 . S
H905 C901 0.950 . S
H906 C903 0.950 . S
C907 C898 1.390 . S
C907 H900 0.950 . S
C907 C904 1.387 . S
C908 C909 1.387 . S
C908 H912 0.950 . S
C908 C917 1.390 . S
C909 C908 1.387 . S
C909 C911 1.387 . S
H910 C917 0.950 . S
C911 C909 1.387 . S
C911 C913 1.390 . S
C911 H915 0.950 . S
H912 C908 0.950 . S
C913 C911 1.390 . S
C913 C914 1.387 . S
C913 H916 0.950 . S
C914 C913 1.387 . S
C914 C917 1.387 . S
H915 C911 0.950 . S
H916 C913 0.950 . S
C917 C908 1.390 . S
C917 H910 0.950 . S
C917 C914 1.387 . S
C918 C919 1.387 . S
C918 H922 0.950 . S
C918 C927 1.390 . S
C919 C918 1.387 . S
C919 C921 1.387 . S
H920 C927 0.950 . S
C921 C919 1.387 . S
C921 C923 1.390 . S
C921 H925 0.950 . S
H922 C918 0.950 . S
C923 C921 1.390 . S
C923 C924 1.387 . S
C923 H926 0.950 . S
C924 C923 1.387 . S
C924 C927 1.387 . S
H925 C921 0.950 . S
H926 C923 0.950 . S
C927 C918 1.390 . S
C927 H920 0.950 . S
C927 C924 1.387 . S
C529 C28 1.569 . S
C534 C490 1.577 . S
C539 C61 1.571 . S
C544 C523 1.579 . S
C549 C94 1.571 . S
C554 C424 1.579 . S
C559 C127 1.569 . S
C564 C457 1.577 . S
C569 C160 1.491 . S
C574 C358 1.485 . S
C579 C193 1.491 . S
C584 C391 1.485 . S
C589 C292 1.485 . S
C594 C226 1.491 . S
C599 C325 1.483 . S
C604 C259 1.488 . S
C609 C8 1.470 1_565 S
C614 N38 1.434 . S
C619 C41 1.470 1_655 S
C624 N71 1.434 . S
C629 C74 1.470 1_545 S
C634 N104 1.436 . S
C639 N5 1.434 . S
C644 C107 1.469 1_455 S
C649 N500 1.443 . S
C654 C140 1.487 . S
C659 N401 1.442 . S
C664 C173 1.487 . S
C669 N434 1.442 . S
C674 C206 1.488 . S
C679 N467 1.442 . S
C684 C239 1.487 . S
C689 C272 1.494 . S
C694 N302 1.451 . S
C699 C305 1.494 . S
C704 N335 1.451 . S
C709 N368 1.453 . S
C714 C338 1.493 . S
C719 C371 1.493 . S
C724 N269 1.453 . S
C729 C404 1.494 1_545 S
C734 N236 1.450 . S
C739 N137 1.451 . S
C744 C437 1.494 1_455 S
C749 N170 1.451 . S
C754 C470 1.494 1_565 S
C759 C503 1.494 1_655 S
C764 N203 1.451 . S
C769 N14 1.633 . S
C774 N80 1.633 . S
C779 N47 1.633 . S
C784 N113 1.633 . S
C789 N212 1.679 . S
C794 N146 1.679 . S
C799 N245 1.679 . S
C804 N179 1.679 . S
C809 N278 1.647 . S
C814 N344 1.647 . S
C819 N311 1.648 . S
C824 N377 1.648 . S
C829 N410 1.684 . S
C834 N476 1.684 . S
C839 N443 1.684 . S
C844 N509 1.684 . S
C849 C149 1.251 . S
C854 C17 1.253 . S
C859 C182 1.248 . S
C864 C50 1.250 . S
C869 C83 1.254 . S
C874 C215 1.244 . S
C879 C248 1.248 . S
C884 C116 1.250 . S
C889 C281 1.340 . S
C894 C413 1.337 . S
C899 C446 1.337 . S
C904 C314 1.340 . S
C909 C479 1.337 . S
C914 C347 1.340 . S
C919 C380 1.337 . S
C924 C512 1.334 . S
