# Generated by pormake.
# Topology hbo, (4)-cn, num edge types: 1
# Building blocks:
#     Node 0, Type 0, BuildingBlock: GALJAG_clean_sbu_0, # of connection points: 4
#     Node 1, Type 0, BuildingBlock: GALJAG_clean_sbu_0, # of connection points: 4
#     Node 2, Type 0, BuildingBlock: GALJAG_clean_sbu_0, # of connection points: 4
#     Node 3, Type 0, BuildingBlock: GALJAG_clean_sbu_0, # of connection points: 4
#     Node 4, Type 0, BuildingBlock: GALJAG_clean_sbu_0, # of connection points: 4
#     Node 5, Type 0, BuildingBlock: GALJAG_clean_sbu_0, # of connection points: 4
#     Node 6, Type 0, BuildingBlock: GALJAG_clean_sbu_0, # of connection points: 4
#     Node 7, Type 0, BuildingBlock: GALJAG_clean_sbu_0, # of connection points: 4
#     Node 8, Type 0, BuildingBlock: GALJAG_clean_sbu_0, # of connection points: 4
#     Node 9, Type 0, BuildingBlock: GALJAG_clean_sbu_0, # of connection points: 4
#     Node 10, Type 0, BuildingBlock: GALJAG_clean_sbu_0, # of connection points: 4
#     Node 11, Type 0, BuildingBlock: GALJAG_clean_sbu_0, # of connection points: 4
#     Node 12, Type 0, BuildingBlock: GALJAG_clean_sbu_0, # of connection points: 4
#     Node 13, Type 0, BuildingBlock: GALJAG_clean_sbu_0, # of connection points: 4
#     Node 14, Type 0, BuildingBlock: GALJAG_clean_sbu_0, # of connection points: 4
#     Node 15, Type 0, BuildingBlock: GALJAG_clean_sbu_0, # of connection points: 4
#     Node 16, Type 0, BuildingBlock: GALJAG_clean_sbu_0, # of connection points: 4
#     Node 17, Type 0, BuildingBlock: GALJAG_clean_sbu_0, # of connection points: 4
#     Node 18, Type 0, BuildingBlock: GALJAG_clean_sbu_0, # of connection points: 4
#     Node 19, Type 0, BuildingBlock: GALJAG_clean_sbu_0, # of connection points: 4
#     Node 20, Type 0, BuildingBlock: GALJAG_clean_sbu_0, # of connection points: 4
#     Node 21, Type 0, BuildingBlock: GALJAG_clean_sbu_0, # of connection points: 4
#     Node 22, Type 0, BuildingBlock: GALJAG_clean_sbu_0, # of connection points: 4
#     Node 23, Type 0, BuildingBlock: GALJAG_clean_sbu_0, # of connection points: 4
#     Edge 24, Type (0, 0), BuildingBlock: UVAHIK_clean_linker_0, # of connection points: 2
#     Edge 25, Type (0, 0), BuildingBlock: UVAHIK_clean_linker_0, # of connection points: 2
#     Edge 26, Type (0, 0), BuildingBlock: UVAHIK_clean_linker_0, # of connection points: 2
#     Edge 27, Type (0, 0), BuildingBlock: UVAHIK_clean_linker_0, # of connection points: 2
#     Edge 28, Type (0, 0), BuildingBlock: UVAHIK_clean_linker_0, # of connection points: 2
#     Edge 29, Type (0, 0), BuildingBlock: UVAHIK_clean_linker_0, # of connection points: 2
#     Edge 30, Type (0, 0), BuildingBlock: UVAHIK_clean_linker_0, # of connection points: 2
#     Edge 31, Type (0, 0), BuildingBlock: UVAHIK_clean_linker_0, # of connection points: 2
#     Edge 32, Type (0, 0), BuildingBlock: UVAHIK_clean_linker_0, # of connection points: 2
#     Edge 33, Type (0, 0), BuildingBlock: UVAHIK_clean_linker_0, # of connection points: 2
#     Edge 34, Type (0, 0), BuildingBlock: UVAHIK_clean_linker_0, # of connection points: 2
#     Edge 35, Type (0, 0), BuildingBlock: UVAHIK_clean_linker_0, # of connection points: 2
#     Edge 36, Type (0, 0), BuildingBlock: UVAHIK_clean_linker_0, # of connection points: 2
#     Edge 37, Type (0, 0), BuildingBlock: UVAHIK_clean_linker_0, # of connection points: 2
#     Edge 38, Type (0, 0), BuildingBlock: UVAHIK_clean_linker_0, # of connection points: 2
#     Edge 39, Type (0, 0), BuildingBlock: UVAHIK_clean_linker_0, # of connection points: 2
#     Edge 40, Type (0, 0), BuildingBlock: UVAHIK_clean_linker_0, # of connection points: 2
#     Edge 41, Type (0, 0), BuildingBlock: UVAHIK_clean_linker_0, # of connection points: 2
#     Edge 42, Type (0, 0), BuildingBlock: UVAHIK_clean_linker_0, # of connection points: 2
#     Edge 43, Type (0, 0), BuildingBlock: UVAHIK_clean_linker_0, # of connection points: 2
#     Edge 44, Type (0, 0), BuildingBlock: UVAHIK_clean_linker_0, # of connection points: 2
#     Edge 45, Type (0, 0), BuildingBlock: UVAHIK_clean_linker_0, # of connection points: 2
#     Edge 46, Type (0, 0), BuildingBlock: UVAHIK_clean_linker_0, # of connection points: 2
#     Edge 47, Type (0, 0), BuildingBlock: UVAHIK_clean_linker_0, # of connection points: 2
#     Edge 48, Type (0, 0), BuildingBlock: UVAHIK_clean_linker_0, # of connection points: 2
#     Edge 49, Type (0, 0), BuildingBlock: UVAHIK_clean_linker_0, # of connection points: 2
#     Edge 50, Type (0, 0), BuildingBlock: UVAHIK_clean_linker_0, # of connection points: 2
#     Edge 51, Type (0, 0), BuildingBlock: UVAHIK_clean_linker_0, # of connection points: 2
#     Edge 52, Type (0, 0), BuildingBlock: UVAHIK_clean_linker_0, # of connection points: 2
#     Edge 53, Type (0, 0), BuildingBlock: UVAHIK_clean_linker_0, # of connection points: 2
#     Edge 54, Type (0, 0), BuildingBlock: UVAHIK_clean_linker_0, # of connection points: 2
#     Edge 55, Type (0, 0), BuildingBlock: UVAHIK_clean_linker_0, # of connection points: 2
#     Edge 56, Type (0, 0), BuildingBlock: UVAHIK_clean_linker_0, # of connection points: 2
#     Edge 57, Type (0, 0), BuildingBlock: UVAHIK_clean_linker_0, # of connection points: 2
#     Edge 58, Type (0, 0), BuildingBlock: UVAHIK_clean_linker_0, # of connection points: 2
#     Edge 59, Type (0, 0), BuildingBlock: UVAHIK_clean_linker_0, # of connection points: 2
#     Edge 60, Type (0, 0), BuildingBlock: UVAHIK_clean_linker_0, # of connection points: 2
#     Edge 61, Type (0, 0), BuildingBlock: UVAHIK_clean_linker_0, # of connection points: 2
#     Edge 62, Type (0, 0), BuildingBlock: UVAHIK_clean_linker_0, # of connection points: 2
#     Edge 63, Type (0, 0), BuildingBlock: UVAHIK_clean_linker_0, # of connection points: 2
#     Edge 64, Type (0, 0), BuildingBlock: UVAHIK_clean_linker_0, # of connection points: 2
#     Edge 65, Type (0, 0), BuildingBlock: UVAHIK_clean_linker_0, # of connection points: 2
#     Edge 66, Type (0, 0), BuildingBlock: UVAHIK_clean_linker_0, # of connection points: 2
#     Edge 67, Type (0, 0), BuildingBlock: UVAHIK_clean_linker_0, # of connection points: 2
#     Edge 68, Type (0, 0), BuildingBlock: UVAHIK_clean_linker_0, # of connection points: 2
#     Edge 69, Type (0, 0), BuildingBlock: UVAHIK_clean_linker_0, # of connection points: 2
#     Edge 70, Type (0, 0), BuildingBlock: UVAHIK_clean_linker_0, # of connection points: 2
#     Edge 71, Type (0, 0), BuildingBlock: UVAHIK_clean_linker_0, # of connection points: 2
# Relax obj value: 0.092
# Max RMSD: 0.160
# Mean RMSD: 0.160
data_MOF--net-hbo--node1-GALJAG_clean_sbu_0--edge1-UVAHIK_clean_linker_0
_symmetry_space_group_name_H-M    P1
_symmetry_Int_Tables_number       1
_symmetry_cell_setting            triclinic
loop_
_symmetry_equiv_pos_as_xyz
'x, y, z'
_cell_length_a     68.792504
_cell_length_b     68.788715
_cell_length_c     68.793138
_cell_angle_alpha  90.004087
_cell_angle_beta   90.002148
_cell_angle_gamma 90.048695
loop_
_atom_site_label
_atom_site_type_symbol
_atom_site_fract_x
_atom_site_fract_y
_atom_site_fract_z
_atom_type_partial_charge
In0 In 0.13316 0.36265 0.24591 0.0
O1 O 0.1358 0.38555 0.26973 0.0
O2 O 0.14037 0.39426 0.24035 0.0
C3 C 0.13296 0.33062 0.26866 0.0
C4 C 0.09633 0.36727 0.23353 0.0
C5 C 0.16428 0.35702 0.22289 0.0
O6 O 0.13978 0.34667 0.27427 0.0
O7 O 0.1262 0.33074 0.25166 0.0
O8 O 0.14712 0.35501 0.21674 0.0
O9 O 0.16567 0.36151 0.24059 0.0
C10 C 0.13989 0.39912 0.25805 0.0
O11 O 0.10939 0.36016 0.2228 0.0
O12 O 0.10186 0.37189 0.25038 0.0
In13 In 0.1359 0.63127 0.75131 0.0
O14 O 0.1418 0.61052 0.7262 0.0
O15 O 0.14627 0.60026 0.75508 0.0
C16 C 0.14016 0.66059 0.72569 0.0
C17 C 0.0988 0.62347 0.7615 0.0
C18 C 0.16058 0.64362 0.77919 0.0
O19 O 0.15264 0.64735 0.72778 0.0
O20 O 0.12534 0.65892 0.73634 0.0
O21 O 0.14539 0.65287 0.77473 0.0
O22 O 0.16294 0.62794 0.77003 0.0
C23 C 0.14683 0.59664 0.7371 0.0
O24 O 0.1114 0.62841 0.77387 0.0
O25 O 0.10494 0.62257 0.74429 0.0
In26 In 0.85484 0.62893 0.23857 0.0
O27 O 0.85329 0.6072 0.26377 0.0
O28 O 0.84803 0.59686 0.23515 0.0
C29 C 0.84695 0.66155 0.25868 0.0
C30 C 0.89353 0.62918 0.23238 0.0
C31 C 0.82822 0.63395 0.21039 0.0
O32 O 0.84232 0.64488 0.26485 0.0
O33 O 0.85533 0.66168 0.24238 0.0
O34 O 0.84611 0.63706 0.20756 0.0
O35 O 0.82393 0.62836 0.22732 0.0
C36 C 0.84901 0.59297 0.25302 0.0
O37 O 0.88174 0.62329 0.21961 0.0
O38 O 0.8858 0.63448 0.24809 0.0
In39 In 0.86164 0.35711 0.73414 0.0
O40 O 0.85821 0.38232 0.71276 0.0
O41 O 0.84942 0.38653 0.74214 0.0
C42 C 0.86677 0.32715 0.70934 0.0
C43 C 0.89701 0.3643 0.74917 0.0
C44 C 0.83023 0.34463 0.75386 0.0
O45 O 0.85753 0.34229 0.7047 0.0
O46 O 0.87384 0.3274 0.72623 0.0
O47 O 0.84651 0.34707 0.762 0.0
O48 O 0.82996 0.34835 0.73592 0.0
C49 C 0.85111 0.39367 0.72534 0.0
O50 O 0.88421 0.35493 0.75843 0.0
O51 O 0.89196 0.36982 0.73243 0.0
In52 In 0.23768 0.14124 0.36445 0.0
O53 O 0.22073 0.11277 0.36355 0.0
O54 O 0.25164 0.1115 0.3623 0.0
C55 C 0.20761 0.16588 0.35901 0.0
C56 C 0.24814 0.14381 0.40198 0.0
C57 C 0.26077 0.15155 0.33456 0.0
O58 O 0.2078 0.14894 0.35205 0.0
O59 O 0.22234 0.17018 0.369 0.0
O60 O 0.2639 0.15712 0.35175 0.0
O61 O 0.24613 0.14072 0.33252 0.0
C62 C 0.23576 0.10229 0.36247 0.0
O63 O 0.25868 0.15039 0.38847 0.0
O64 O 0.23234 0.13624 0.39653 0.0
In65 In 0.36623 0.75108 0.8599 0.0
O66 O 0.38787 0.72609 0.85544 0.0
O67 O 0.39632 0.74993 0.87318 0.0
C68 C 0.33251 0.73275 0.85208 0.0
C69 C 0.35867 0.76526 0.89545 0.0
C70 C 0.37151 0.77326 0.82799 0.0
O71 O 0.34789 0.72355 0.85607 0.0
O72 O 0.33428 0.75099 0.85193 0.0
O73 O 0.36479 0.77999 0.84366 0.0
O74 O 0.37588 0.7555 0.82857 0.0
C75 C 0.40089 0.7338 0.86584 0.0
O76 O 0.36704 0.77528 0.88253 0.0
O77 O 0.35422 0.74818 0.8904 0.0
In78 In 0.75195 0.85921 0.36351 0.0
O79 O 0.72948 0.86372 0.38757 0.0
O80 O 0.75677 0.85133 0.3951 0.0
C81 C 0.72541 0.85032 0.3361 0.0
C82 C 0.76355 0.89662 0.36247 0.0
C83 C 0.77765 0.83131 0.35368 0.0
O84 O 0.72402 0.84436 0.35339 0.0
O85 O 0.73992 0.86102 0.3328 0.0
O86 O 0.77934 0.84862 0.34782 0.0
O87 O 0.76337 0.82834 0.36475 0.0
C88 C 0.74021 0.85678 0.40073 0.0
O89 O 0.77418 0.88336 0.36938 0.0
O90 O 0.74729 0.89095 0.35621 0.0
In91 In 0.63643 0.2379 0.86165 0.0
O92 O 0.63826 0.21539 0.8859 0.0
O93 O 0.64539 0.24477 0.89262 0.0
C94 C 0.63895 0.20922 0.83492 0.0
C95 C 0.60061 0.25324 0.8659 0.0
C96 C 0.66386 0.26242 0.84818 0.0
O97 O 0.65199 0.21235 0.84739 0.0
O98 O 0.6244 0.22024 0.83621 0.0
O99 O 0.64772 0.26011 0.83978 0.0
O100 O 0.66598 0.25265 0.86354 0.0
C101 C 0.6436 0.22751 0.89862 0.0
O102 O 0.61455 0.2629 0.85894 0.0
O103 O 0.60478 0.23605 0.87061 0.0
In104 In 0.2507 0.8585 0.64477 0.0
O105 O 0.27068 0.85263 0.61892 0.0
O106 O 0.24256 0.86434 0.61349 0.0
C107 C 0.28186 0.85059 0.66715 0.0
C108 C 0.23958 0.89564 0.64949 0.0
C109 C 0.22365 0.83123 0.65304 0.0
O110 O 0.27714 0.8402 0.6528 0.0
O111 O 0.27087 0.86493 0.67019 0.0
O112 O 0.23124 0.84183 0.6659 0.0
O113 O 0.22968 0.83437 0.63606 0.0
C114 C 0.25856 0.85871 0.60654 0.0
O115 O 0.22898 0.88162 0.65476 0.0
O116 O 0.25577 0.89085 0.64237 0.0
In117 In 0.63517 0.7439 0.13434 0.0
O118 O 0.64214 0.76857 0.11327 0.0
O119 O 0.62532 0.74475 0.10289 0.0
C120 C 0.644 0.76294 0.16742 0.0
C121 C 0.59753 0.73487 0.13957 0.0
C122 C 0.6645 0.71797 0.13126 0.0
O123 O 0.6438 0.77126 0.15108 0.0
O124 O 0.63987 0.74509 0.16702 0.0
O125 O 0.64859 0.71391 0.1394 0.0
O126 O 0.66549 0.73495 0.12452 0.0
C127 C 0.63323 0.76088 0.09918 0.0
O128 O 0.60977 0.72259 0.13354 0.0
O129 O 0.60432 0.75161 0.14283 0.0
In130 In 0.74973 0.13379 0.63982 0.0
O131 O 0.72872 0.12574 0.61545 0.0
O132 O 0.74501 0.15183 0.6125 0.0
C133 C 0.71971 0.13853 0.66461 0.0
C134 C 0.76716 0.09869 0.64166 0.0
C135 C 0.77948 0.15807 0.64793 0.0
O136 O 0.72701 0.15237 0.65505 0.0
O137 O 0.72733 0.12217 0.66141 0.0
O138 O 0.766 0.15445 0.6598 0.0
O139 O 0.77809 0.1493 0.63188 0.0
C140 C 0.73268 0.14041 0.60517 0.0
O141 O 0.76475 0.10928 0.65641 0.0
O142 O 0.76093 0.10587 0.626 0.0
In143 In 0.35769 0.25424 0.13283 0.0
O144 O 0.38529 0.27247 0.13487 0.0
O145 O 0.38746 0.24191 0.13944 0.0
C146 C 0.33046 0.28234 0.13342 0.0
C147 C 0.35863 0.2419 0.09581 0.0
C148 C 0.34699 0.23442 0.16475 0.0
O149 O 0.34759 0.28513 0.13934 0.0
O150 O 0.32724 0.26555 0.12685 0.0
O151 O 0.35453 0.25112 0.16539 0.0
O152 O 0.34481 0.22754 0.14786 0.0
C153 C 0.39608 0.2581 0.13864 0.0
O154 O 0.35165 0.23153 0.10926 0.0
O155 O 0.36487 0.25831 0.1011 0.0
In156 In 0.85808 0.63255 0.74815 0.0
O157 O 0.88224 0.62856 0.77072 0.0
O158 O 0.88985 0.62764 0.74082 0.0
C159 C 0.83097 0.64416 0.77392 0.0
C160 C 0.84929 0.59621 0.7369 0.0
C161 C 0.8543 0.66258 0.72321 0.0
O162 O 0.84853 0.64935 0.77512 0.0
O163 O 0.82723 0.63284 0.76 0.0
O164 O 0.84656 0.64624 0.72024 0.0
O165 O 0.86435 0.66362 0.73849 0.0
C166 C 0.89547 0.62644 0.75821 0.0
O167 O 0.85433 0.60923 0.72499 0.0
O168 O 0.8487 0.60155 0.75446 0.0
In169 In 0.85711 0.35974 0.2475 0.0
O170 O 0.85743 0.38271 0.27157 0.0
O171 O 0.83792 0.3866 0.24799 0.0
C172 C 0.85527 0.33036 0.27347 0.0
C173 C 0.89363 0.36522 0.23417 0.0
C174 C 0.83344 0.35108 0.21752 0.0
O175 O 0.84204 0.34293 0.27178 0.0
O176 O 0.86956 0.33276 0.26224 0.0
O177 O 0.83579 0.33993 0.23189 0.0
O178 O 0.84319 0.36661 0.21815 0.0
C179 C 0.84466 0.39323 0.26368 0.0
O180 O 0.88222 0.35295 0.22674 0.0
O181 O 0.88662 0.3746 0.24823 0.0
In182 In 0.13164 0.36234 0.73617 0.0
O183 O 0.10961 0.36069 0.76102 0.0
O184 O 0.10158 0.37568 0.7352 0.0
C185 C 0.16394 0.35016 0.7546 0.0
C186 C 0.14305 0.39804 0.72531 0.0
C187 C 0.12462 0.3316 0.7129 0.0
O188 O 0.14845 0.35405 0.76367 0.0
O189 O 0.16297 0.35229 0.73642 0.0
O190 O 0.1327 0.3469 0.70679 0.0
O191 O 0.11972 0.33206 0.73054 0.0
C192 C 0.09675 0.37017 0.752 0.0
O193 O 0.13547 0.38623 0.71346 0.0
O194 O 0.14463 0.39184 0.74251 0.0
In195 In 0.13714 0.63323 0.23918 0.0
O196 O 0.15299 0.61138 0.25859 0.0
O197 O 0.1245 0.60434 0.24913 0.0
C198 C 0.14757 0.66135 0.26443 0.0
C199 C 0.1005 0.6391 0.22671 0.0
C200 C 0.1606 0.63374 0.20774 0.0
O201 O 0.1331 0.65044 0.26728 0.0
O202 O 0.1568 0.65797 0.24897 0.0
O203 O 0.1484 0.64698 0.21117 0.0
O204 O 0.16065 0.62006 0.21993 0.0
C205 C 0.13924 0.59925 0.25872 0.0
O206 O 0.11108 0.62573 0.21997 0.0
O207 O 0.10861 0.64973 0.23925 0.0
In208 In 0.74112 0.86378 0.64171 0.0
O209 O 0.76086 0.88615 0.65645 0.0
O210 O 0.74944 0.89299 0.62864 0.0
C211 C 0.76318 0.83302 0.65195 0.0
C212 C 0.73036 0.85752 0.60465 0.0
C213 C 0.71053 0.8652 0.66626 0.0
O214 O 0.7454 0.83436 0.65614 0.0
O215 O 0.76998 0.8473 0.64268 0.0
O216 O 0.71005 0.85605 0.65039 0.0
O217 O 0.72631 0.87391 0.66959 0.0
C218 C 0.75983 0.89828 0.64276 0.0
O219 O 0.72148 0.86931 0.61556 0.0
O220 O 0.74453 0.84892 0.61249 0.0
In221 In 0.6421 0.25451 0.13529 0.0
O222 O 0.65166 0.23074 0.11421 0.0
O223 O 0.63094 0.25159 0.10447 0.0
C224 C 0.6538 0.23784 0.16873 0.0
C225 C 0.60395 0.25955 0.14179 0.0
C226 C 0.66894 0.28263 0.13005 0.0
O227 O 0.65182 0.22824 0.15321 0.0
O228 O 0.65013 0.25572 0.16724 0.0
O229 O 0.65336 0.2856 0.13926 0.0
O230 O 0.67068 0.26573 0.12323 0.0
C231 C 0.641 0.23677 0.10052 0.0
O232 O 0.61456 0.27306 0.13525 0.0
O233 O 0.61265 0.24374 0.14502 0.0
In234 In 0.24001 0.13565 0.64256 0.0
O235 O 0.25878 0.14927 0.61854 0.0
O236 O 0.23528 0.13091 0.61046 0.0
C237 C 0.26761 0.13604 0.67023 0.0
C238 C 0.23036 0.09795 0.64538 0.0
C239 C 0.21398 0.16422 0.64922 0.0
O240 O 0.27138 0.13943 0.65259 0.0
O241 O 0.24997 0.13251 0.67382 0.0
O242 O 0.20942 0.1486 0.64083 0.0
O243 O 0.23157 0.16543 0.65412 0.0
C244 C 0.24939 0.14121 0.60498 0.0
O245 O 0.22014 0.11113 0.65304 0.0
O246 O 0.24537 0.10386 0.63666 0.0
In247 In 0.35441 0.73783 0.13015 0.0
O248 O 0.38049 0.71733 0.13061 0.0
O249 O 0.38484 0.74691 0.1387 0.0
C250 C 0.32521 0.71173 0.12714 0.0
C251 C 0.35629 0.75481 0.09494 0.0
C252 C 0.34571 0.75598 0.16366 0.0
O253 O 0.34219 0.70691 0.13208 0.0
O254 O 0.32312 0.72954 0.12347 0.0
O255 O 0.34552 0.76461 0.14747 0.0
O256 O 0.35012 0.73821 0.1629 0.0
C257 C 0.39222 0.7303 0.13628 0.0
O258 O 0.34751 0.76253 0.10906 0.0
O259 O 0.36395 0.73857 0.09858 0.0
In260 In 0.75421 0.13857 0.36841 0.0
O261 O 0.77515 0.11358 0.37586 0.0
O262 O 0.74979 0.10729 0.35943 0.0
C263 C 0.78578 0.15966 0.35831 0.0
C264 C 0.73709 0.14297 0.40348 0.0
C265 C 0.72812 0.15194 0.34235 0.0
O266 O 0.77536 0.15083 0.34611 0.0
O267 O 0.78078 0.1572 0.37578 0.0
O268 O 0.73228 0.16117 0.35764 0.0
O269 O 0.73676 0.13591 0.34052 0.0
C270 C 0.7651 0.10092 0.36716 0.0
O271 O 0.73294 0.12913 0.3922 0.0
O272 O 0.7497 0.15458 0.397 0.0
In273 In 0.36273 0.2448 0.85422 0.0
O274 O 0.35598 0.2241 0.87926 0.0
O275 O 0.36204 0.25378 0.88581 0.0
C276 C 0.35974 0.21498 0.82892 0.0
C277 C 0.39988 0.2567 0.85671 0.0
C278 C 0.33488 0.26952 0.84173 0.0
O279 O 0.34818 0.2172 0.84296 0.0
O280 O 0.37293 0.22764 0.82779 0.0
O281 O 0.35048 0.26678 0.83253 0.0
O282 O 0.33353 0.26013 0.85738 0.0
C283 C 0.35809 0.23701 0.89215 0.0
O284 O 0.38654 0.26787 0.85086 0.0
O285 O 0.39448 0.23967 0.86081 0.0
In286 In 0.24701 0.85552 0.3637 0.0
O287 O 0.22783 0.88239 0.36032 0.0
O288 O 0.25859 0.88602 0.35998 0.0
C289 C 0.21994 0.82737 0.35999 0.0
C290 C 0.25627 0.85717 0.40152 0.0
C291 C 0.2712 0.84461 0.33499 0.0
O292 O 0.21846 0.84351 0.3514 0.0
O293 O 0.2347 0.82575 0.37069 0.0
O294 O 0.27398 0.83979 0.35248 0.0
O295 O 0.25644 0.85506 0.33212 0.0
C296 C 0.24208 0.89395 0.35917 0.0
O297 O 0.26847 0.85216 0.38875 0.0
O298 O 0.2395 0.86106 0.39516 0.0
In299 In 0.63402 0.76251 0.86102 0.0
O300 O 0.63093 0.78475 0.88538 0.0
O301 O 0.6456 0.75824 0.89163 0.0
C302 C 0.63056 0.78811 0.83136 0.0
C303 C 0.59954 0.74423 0.86486 0.0
C304 C 0.66639 0.7421 0.85249 0.0
O305 O 0.63991 0.79188 0.84664 0.0
O306 O 0.62275 0.77156 0.83113 0.0
O307 O 0.64997 0.73414 0.85442 0.0
O308 O 0.66643 0.76028 0.85481 0.0
C309 C 0.6397 0.77448 0.8978 0.0
O310 O 0.61273 0.73793 0.85379 0.0
O311 O 0.60374 0.75967 0.87381 0.0
C312 C 0.12491 0.56716 0.2674 0.0
C313 C 0.14081 0.57994 0.26785 0.0
C314 C 0.127 0.54797 0.27354 0.0
C315 C 0.13342 0.50841 0.29145 0.0
H316 H 0.17767 0.48408 0.26645 0.0
C317 C 0.14 0.425 0.28366 0.0
C318 C 0.14358 0.41923 0.2644 0.0
C319 C 0.14257 0.4444 0.28921 0.0
C320 C 0.16534 0.49068 0.27369 0.0
H321 H 0.171 0.58314 0.27631 0.0
H322 H 0.17468 0.54946 0.28707 0.0
H323 H 0.17586 0.51936 0.26819 0.0
H324 H 0.15328 0.42896 0.23603 0.0
H325 H 0.15769 0.46268 0.24563 0.0
H326 H 0.12231 0.47966 0.29572 0.0
C327 C 0.16066 0.55427 0.28178 0.0
C328 C 0.16439 0.51089 0.27489 0.0
C329 C 0.15854 0.57353 0.27568 0.0
C330 C 0.15034 0.433 0.25096 0.0
C331 C 0.15306 0.45228 0.25652 0.0
C332 C 0.13438 0.48817 0.29025 0.0
C333 C 0.14505 0.54114 0.28024 0.0
C334 C 0.14803 0.51999 0.28306 0.0
C335 C 0.14898 0.45825 0.27563 0.0
C336 C 0.14997 0.47916 0.28063 0.0
H337 H 0.11103 0.57174 0.26153 0.0
H338 H 0.11475 0.5382 0.27192 0.0
H339 H 0.12077 0.51503 0.29808 0.0
H340 H 0.13481 0.41463 0.29432 0.0
H341 H 0.13937 0.44861 0.30404 0.0
C342 C 0.92271 0.6253 0.7824 0.0
C343 C 0.91592 0.62264 0.76332 0.0
C344 C 0.94232 0.62218 0.78685 0.0
C345 C 0.98635 0.59753 0.76905 0.0
H346 H 0.01485 0.64039 0.79211 0.0
C347 C 0.06587 0.61202 0.75205 0.0
C348 C 0.07832 0.61947 0.76639 0.0
C349 C 0.04621 0.60922 0.75595 0.0
C350 C 0.00708 0.62808 0.7861 0.0
H351 H 0.92407 0.61418 0.73407 0.0
H352 H 0.95811 0.60859 0.74184 0.0
H353 H 0.97935 0.64127 0.79131 0.0
H354 H 0.08014 0.62937 0.79624 0.0
H355 H 0.04547 0.62457 0.8031 0.0
H356 H 0.014 0.58463 0.76319 0.0
C357 C 0.94836 0.61304 0.75337 0.0
C358 C 0.98677 0.6286 0.78561 0.0
C359 C 0.92891 0.61641 0.74889 0.0
C360 C 0.07082 0.62363 0.78492 0.0
C361 C 0.05102 0.62094 0.78882 0.0
C362 C 0.0066 0.59696 0.76962 0.0
C363 C 0.9553 0.61602 0.77234 0.0
C364 C 0.97629 0.61369 0.77639 0.0
C365 C 0.03849 0.61386 0.77429 0.0
C366 C 0.0172 0.61259 0.77742 0.0
H367 H 0.91295 0.6301 0.79379 0.0
H368 H 0.94734 0.62459 0.80158 0.0
H369 H 0.97857 0.58569 0.76216 0.0
H370 H 0.07123 0.60865 0.73763 0.0
H371 H 0.03691 0.60408 0.74433 0.0
C372 C 0.84909 0.42072 0.28714 0.0
C373 C 0.83964 0.41281 0.27085 0.0
C374 C 0.8466 0.44033 0.29193 0.0
C375 C 0.81779 0.48472 0.27931 0.0
H376 H 0.86705 0.5111 0.28694 0.0
C377 C 0.83516 0.55984 0.24892 0.0
C378 C 0.84512 0.57331 0.26057 0.0
C379 C 0.83179 0.54102 0.2556 0.0
C380 C 0.85312 0.50396 0.28524 0.0
H381 H 0.81923 0.41876 0.2476 0.0
H382 H 0.81521 0.45283 0.2556 0.0
H383 H 0.86552 0.47584 0.28953 0.0
H384 H 0.85916 0.57786 0.28841 0.0
H385 H 0.85378 0.54447 0.2999 0.0
H386 H 0.8058 0.51288 0.27358 0.0
C387 C 0.82432 0.44402 0.26493 0.0
C388 C 0.85218 0.48373 0.28679 0.0
C389 C 0.82675 0.42447 0.26021 0.0
C390 C 0.85145 0.56771 0.27916 0.0
C391 C 0.84838 0.54869 0.28572 0.0
C392 C 0.81879 0.50491 0.27754 0.0
C393 C 0.83466 0.45235 0.28049 0.0
C394 C 0.83466 0.47381 0.28308 0.0
C395 C 0.83856 0.53519 0.27395 0.0
C396 C 0.83661 0.51461 0.2798 0.0
H397 H 0.85903 0.41201 0.29569 0.0
H398 H 0.85454 0.44622 0.30419 0.0
H399 H 0.80397 0.47758 0.27682 0.0
H400 H 0.83005 0.56381 0.23457 0.0
H401 H 0.82443 0.53081 0.24612 0.0
C402 C 0.06438 0.38611 0.74996 0.0
C403 C 0.07709 0.37358 0.75981 0.0
C404 C 0.04509 0.38787 0.75588 0.0
C405 C 0.00717 0.35898 0.77828 0.0
H406 H 0.97759 0.40654 0.77203 0.0
C407 C 0.92337 0.35861 0.77366 0.0
C408 C 0.91659 0.36818 0.75694 0.0
C409 C 0.94252 0.36133 0.77998 0.0
C410 C 0.98566 0.39317 0.77399 0.0
H411 H 0.07995 0.35375 0.78413 0.0
H412 H 0.04598 0.3567 0.79443 0.0
H413 H 0.01304 0.40792 0.77293 0.0
H414 H 0.92412 0.38872 0.73425 0.0
H415 H 0.95738 0.39346 0.74521 0.0
H416 H 0.97984 0.34411 0.77834 0.0
C417 C 0.05099 0.36512 0.78211 0.0
C418 C 0.00593 0.39396 0.7745 0.0
C419 C 0.0704 0.36348 0.77625 0.0
C420 C 0.92898 0.38108 0.74714 0.0
C421 C 0.94798 0.38395 0.75354 0.0
C422 C 0.98688 0.35819 0.7778 0.0
C423 C 0.03806 0.37706 0.77173 0.0
C424 C 0.0169 0.37678 0.77579 0.0
C425 C 0.95507 0.37386 0.76982 0.0
C426 C 0.97599 0.37519 0.77479 0.0
H427 H 0.06916 0.39413 0.73728 0.0
H428 H 0.03545 0.39697 0.74739 0.0
H429 H 0.01521 0.34547 0.77916 0.0
H430 H 0.91408 0.34861 0.78152 0.0
H431 H 0.94761 0.35342 0.79261 0.0
C432 C 0.14428 0.42566 0.70161 0.0
C433 C 0.1491 0.41784 0.71984 0.0
C434 C 0.14872 0.44504 0.69728 0.0
C435 C 0.17735 0.48755 0.71459 0.0
H436 H 0.13255 0.51745 0.69807 0.0
C437 C 0.16085 0.56368 0.74196 0.0
C438 C 0.15232 0.5774 0.72953 0.0
C439 C 0.16471 0.54492 0.73538 0.0
C440 C 0.14538 0.50933 0.70222 0.0
H441 H 0.16311 0.42372 0.74746 0.0
H442 H 0.17065 0.45737 0.74006 0.0
H443 H 0.13174 0.48213 0.69587 0.0
H444 H 0.14178 0.58259 0.70028 0.0
H445 H 0.14821 0.54948 0.68884 0.0
H446 H 0.19047 0.51477 0.72211 0.0
C447 C 0.16366 0.44864 0.72898 0.0
C448 C 0.14493 0.48908 0.70095 0.0
C449 C 0.15914 0.42939 0.73332 0.0
C450 C 0.14833 0.57224 0.71017 0.0
C451 C 0.15198 0.55335 0.70363 0.0
C452 C 0.17777 0.50778 0.71593 0.0
C453 C 0.15818 0.45679 0.71107 0.0
C454 C 0.16056 0.47797 0.70796 0.0
C455 C 0.15996 0.53945 0.71629 0.0
C456 C 0.16145 0.51878 0.71056 0.0
H457 H 0.1366 0.41701 0.69092 0.0
H458 H 0.1444 0.45093 0.68334 0.0
H459 H 0.18978 0.47936 0.71972 0.0
H460 H 0.16415 0.5673 0.75693 0.0
H461 H 0.17059 0.53444 0.74555 0.0
C462 C 0.92607 0.64115 0.24235 0.0
C463 C 0.91468 0.63041 0.22929 0.0
C464 C 0.9461 0.64244 0.23986 0.0
C465 C 0.98591 0.6352 0.20431 0.0
H466 H 0.01708 0.63497 0.2513 0.0
C467 C 0.07059 0.62766 0.20936 0.0
C468 C 0.0796 0.64069 0.22228 0.0
C469 C 0.05032 0.62725 0.20767 0.0
C470 C 0.00854 0.63519 0.23806 0.0
H471 H 0.91518 0.61274 0.20322 0.0
H472 H 0.95053 0.61444 0.19916 0.0
H473 H 0.98204 0.6314 0.25365 0.0
H474 H 0.07464 0.66433 0.24257 0.0
H475 H 0.03935 0.66343 0.23974 0.0
H476 H 0.01286 0.63845 0.18881 0.0
C477 C 0.94388 0.62218 0.21114 0.0
C478 C 0.98845 0.63322 0.23939 0.0
C479 C 0.92368 0.6211 0.21351 0.0
C480 C 0.06811 0.65404 0.23259 0.0
C481 C 0.04793 0.6535 0.23103 0.0
C482 C 0.00615 0.63691 0.20298 0.0
C483 C 0.95532 0.63275 0.22441 0.0
C484 C 0.97683 0.63357 0.22258 0.0
C485 C 0.03885 0.63973 0.21901 0.0
C486 C 0.01755 0.63727 0.2199 0.0
H487 H 0.9195 0.64872 0.2545 0.0
H488 H 0.95436 0.65115 0.25006 0.0
H489 H 0.97738 0.63563 0.19109 0.0
H490 H 0.07912 0.61724 0.20121 0.0
H491 H 0.0436 0.61649 0.19833 0.0
C492 C 0.84901 0.56978 0.71192 0.0
C493 C 0.84492 0.57611 0.7309 0.0
C494 C 0.84598 0.55037 0.70669 0.0
C495 C 0.82084 0.50532 0.72176 0.0
H496 H 0.86555 0.479 0.69975 0.0
C497 C 0.83693 0.42529 0.73556 0.0
C498 C 0.84595 0.41403 0.72115 0.0
C499 C 0.83337 0.44498 0.73246 0.0
C500 C 0.85274 0.48615 0.70545 0.0
H501 H 0.83382 0.5674 0.75908 0.0
H502 H 0.8285 0.5336 0.74998 0.0
H503 H 0.86545 0.51435 0.70208 0.0
H504 H 0.85765 0.41426 0.6919 0.0
H505 H 0.85144 0.4489 0.68645 0.0
H506 H 0.80842 0.47709 0.72579 0.0
C507 C 0.83395 0.54359 0.7391 0.0
C508 C 0.8527 0.50641 0.70681 0.0
C509 C 0.83715 0.5629 0.74436 0.0
C510 C 0.85073 0.42266 0.70328 0.0
C511 C 0.84724 0.44245 0.70019 0.0
C512 C 0.82084 0.48509 0.72033 0.0
C513 C 0.83858 0.53706 0.7203 0.0
C514 C 0.83705 0.51612 0.71562 0.0
C515 C 0.83878 0.45387 0.71488 0.0
C516 C 0.8371 0.47525 0.71284 0.0
H517 H 0.85498 0.5797 0.70124 0.0
H518 H 0.8496 0.54572 0.69209 0.0
H519 H 0.80844 0.51249 0.72829 0.0
H520 H 0.83303 0.41902 0.74947 0.0
H521 H 0.82713 0.4534 0.7442 0.0
C522 C 0.9258 0.38158 0.23685 0.0
C523 C 0.91382 0.36794 0.22754 0.0
C524 C 0.94529 0.38336 0.23165 0.0
C525 C 0.98502 0.35476 0.21105 0.0
H526 H 0.01238 0.40392 0.21512 0.0
C527 C 0.06896 0.35994 0.2107 0.0
C528 C 0.07604 0.36967 0.2272 0.0
C529 C 0.04929 0.36125 0.20568 0.0
C530 C 0.0049 0.39012 0.21378 0.0
H531 H 0.91256 0.34598 0.20497 0.0
H532 H 0.94676 0.34918 0.19574 0.0
H533 H 0.9769 0.40354 0.21494 0.0
H534 H 0.06846 0.389 0.25091 0.0
H535 H 0.03429 0.39144 0.24206 0.0
H536 H 0.01309 0.34134 0.21049 0.0
C537 C 0.94109 0.35834 0.20723 0.0
C538 C 0.98462 0.38988 0.21375 0.0
C539 C 0.92153 0.35655 0.21246 0.0
C540 C 0.06336 0.38129 0.23815 0.0
C541 C 0.04384 0.38282 0.23299 0.0
C542 C 0.00532 0.35503 0.21094 0.0
C543 C 0.95325 0.37158 0.21697 0.0
C544 C 0.97447 0.37214 0.21316 0.0
C545 C 0.03655 0.37259 0.2169 0.0
C546 C 0.01541 0.37265 0.21304 0.0
H547 H 0.92026 0.39057 0.24853 0.0
H548 H 0.9543 0.39346 0.23971 0.0
H549 H 0.97766 0.34084 0.21073 0.0
H550 H 0.07847 0.35089 0.20201 0.0
H551 H 0.04399 0.35324 0.1932 0.0
C552 C 0.24573 0.13045 0.57079 0.0
C553 C 0.25481 0.1427 0.58433 0.0
C554 C 0.25088 0.13115 0.55127 0.0
C555 C 0.26916 0.16273 0.51366 0.0
H556 H 0.27238 0.11405 0.48534 0.0
C557 C 0.26915 0.15645 0.42896 0.0
C558 C 0.25394 0.14436 0.42256 0.0
C559 C 0.27434 0.15686 0.44863 0.0
C560 C 0.27175 0.12776 0.49307 0.0
H561 H 0.27634 0.16543 0.58811 0.0
H562 H 0.28515 0.16693 0.55348 0.0
H563 H 0.27276 0.11377 0.52079 0.0
H564 H 0.23247 0.12307 0.4315 0.0
H565 H 0.24171 0.12356 0.46564 0.0
H566 H 0.2672 0.17658 0.48578 0.0
C567 C 0.27415 0.15669 0.5582 0.0
C568 C 0.27194 0.12761 0.51331 0.0
C569 C 0.26912 0.15582 0.57792 0.0
C570 C 0.24421 0.13255 0.43603 0.0
C571 C 0.2496 0.13272 0.45553 0.0
C572 C 0.26903 0.16288 0.49332 0.0
C573 C 0.26516 0.1442 0.54476 0.0
C574 C 0.26971 0.14499 0.52377 0.0
C575 C 0.26467 0.14487 0.46202 0.0
C576 C 0.26942 0.1453 0.48294 0.0
H577 H 0.23466 0.12017 0.57527 0.0
H578 H 0.24341 0.12163 0.54117 0.0
H579 H 0.26739 0.17632 0.52142 0.0
H580 H 0.27685 0.16572 0.41881 0.0
H581 H 0.28596 0.16638 0.45337 0.0
C582 C 0.3433 0.76187 0.928 0.0
C583 C 0.35535 0.7724 0.91535 0.0
C584 C 0.34168 0.76727 0.94745 0.0
C585 C 0.33602 0.78525 0.98722 0.0
H586 H 0.38649 0.78736 0.01227 0.0
C587 C 0.34463 0.77902 0.07042 0.0
C588 C 0.35714 0.7637 0.07549 0.0
C589 C 0.34447 0.78626 0.05142 0.0
C590 C 0.37229 0.78708 0.00547 0.0
H591 H 0.37444 0.79737 0.91278 0.0
H592 H 0.37187 0.80663 0.94708 0.0
H593 H 0.38438 0.78927 0.97691 0.0
H594 H 0.37991 0.74458 0.06509 0.0
H595 H 0.37973 0.75725 0.03206 0.0
H596 H 0.32405 0.78185 0.01573 0.0
C597 C 0.36364 0.79426 0.94185 0.0
C598 C 0.37106 0.78834 0.98526 0.0
C599 C 0.36508 0.78897 0.92227 0.0
C600 C 0.37005 0.75633 0.06154 0.0
C601 C 0.37007 0.76372 0.04269 0.0
C602 C 0.33725 0.78413 0.00745 0.0
C603 C 0.35222 0.78321 0.95469 0.0
C604 C 0.35298 0.78658 0.97592 0.0
C605 C 0.35705 0.77849 0.03734 0.0
C606 C 0.35547 0.78419 0.01667 0.0
H607 H 0.33555 0.74909 0.92301 0.0
H608 H 0.33297 0.75832 0.95705 0.0
H609 H 0.3219 0.78405 0.98036 0.0
H610 H 0.33455 0.78497 0.08095 0.0
H611 H 0.3343 0.79767 0.04764 0.0
C612 C 0.71717 0.86437 0.42788 0.0
C613 C 0.73399 0.85497 0.42113 0.0
C614 C 0.71183 0.86305 0.44746 0.0
C615 C 0.71938 0.83388 0.49173 0.0
H616 H 0.71239 0.88242 0.51951 0.0
C617 C 0.7362 0.84179 0.57258 0.0
C618 C 0.72534 0.85472 0.58401 0.0
C619 C 0.73265 0.8402 0.5527 0.0
C620 C 0.71383 0.86868 0.51196 0.0
H621 H 0.75811 0.83642 0.42933 0.0
H622 H 0.74875 0.83401 0.46336 0.0
H623 H 0.71436 0.88261 0.48412 0.0
H624 H 0.70171 0.87557 0.58383 0.0
H625 H 0.69537 0.87267 0.54896 0.0
H626 H 0.71938 0.81997 0.51952 0.0
C627 C 0.73965 0.84234 0.45358 0.0
C628 C 0.71499 0.86881 0.49169 0.0
C629 C 0.7451 0.84387 0.43414 0.0
C630 C 0.71037 0.86554 0.57532 0.0
C631 C 0.7068 0.86394 0.55537 0.0
C632 C 0.71809 0.83372 0.51196 0.0
C633 C 0.72308 0.85204 0.46047 0.0
C634 C 0.71844 0.85149 0.48146 0.0
C635 C 0.71811 0.85147 0.5438 0.0
C636 C 0.716 0.8512 0.52234 0.0
H637 H 0.70834 0.87301 0.41812 0.0
H638 H 0.69898 0.87064 0.45244 0.0
H639 H 0.72172 0.82028 0.48413 0.0
H640 H 0.74783 0.83326 0.57888 0.0
H641 H 0.74186 0.83069 0.54419 0.0
C642 C 0.6563 0.21577 0.07508 0.0
C643 C 0.64113 0.2281 0.08094 0.0
C644 C 0.65756 0.20956 0.05576 0.0
C645 C 0.66386 0.21536 0.01208 0.0
H646 H 0.61884 0.2017 0.98096 0.0
C647 C 0.6554 0.23552 0.93189 0.0
C648 C 0.64663 0.22223 0.91914 0.0
C649 C 0.65695 0.23128 0.95165 0.0
C650 C 0.63164 0.20514 0.98948 0.0
H651 H 0.61479 0.24267 0.07165 0.0
H652 H 0.61688 0.23172 0.03806 0.0
H653 H 0.61624 0.20219 0.01638 0.0
H654 H 0.63311 0.19383 0.91686 0.0
H655 H 0.63551 0.18655 0.95164 0.0
H656 H 0.679 0.21922 0.98515 0.0
C657 C 0.6278 0.22684 0.0483 0.0
C658 C 0.6301 0.20555 0.00971 0.0
C659 C 0.62669 0.23324 0.06749 0.0
C660 C 0.63993 0.20434 0.9264 0.0
C661 C 0.64126 0.20019 0.94626 0.0
C662 C 0.66534 0.21512 0.99185 0.0
C663 C 0.64349 0.21534 0.04213 0.0
C664 C 0.64603 0.21125 0.02116 0.0
C665 C 0.64957 0.21375 0.95908 0.0
C666 C 0.64908 0.21059 0.98035 0.0
H667 H 0.66762 0.21159 0.08519 0.0
H668 H 0.66976 0.20064 0.05136 0.0
H669 H 0.67633 0.21993 0.02055 0.0
H670 H 0.66073 0.2494 0.92667 0.0
H671 H 0.66319 0.24211 0.96124 0.0
C672 C 0.27876 0.85151 0.4296 0.0
C673 C 0.2611 0.85872 0.4223 0.0
C674 C 0.28294 0.85285 0.44946 0.0
C675 C 0.26925 0.87974 0.49362 0.0
H676 H 0.28243 0.83259 0.52157 0.0
C677 C 0.24947 0.86871 0.57306 0.0
C678 C 0.26277 0.85966 0.58558 0.0
C679 C 0.25325 0.86989 0.55322 0.0
C680 C 0.27916 0.84596 0.51394 0.0
H681 H 0.23414 0.87321 0.42984 0.0
H682 H 0.24146 0.87561 0.46433 0.0
H683 H 0.28217 0.83249 0.486 0.0
H684 H 0.29047 0.84473 0.58727 0.0
H685 H 0.29702 0.84664 0.55227 0.0
H686 H 0.26553 0.89305 0.52145 0.0
C687 C 0.25212 0.86903 0.45478 0.0
C688 C 0.27901 0.8459 0.49362 0.0
C689 C 0.24786 0.8675 0.43507 0.0
C690 C 0.27997 0.85178 0.57789 0.0
C691 C 0.2837 0.85284 0.55793 0.0
C692 C 0.26942 0.87981 0.51386 0.0
C693 C 0.26965 0.86168 0.46219 0.0
C694 C 0.27336 0.86261 0.48333 0.0
C695 C 0.27038 0.86198 0.54544 0.0
C696 C 0.27367 0.86274 0.52421 0.0
H697 H 0.28921 0.84466 0.42003 0.0
H698 H 0.29656 0.84707 0.45485 0.0
H699 H 0.26519 0.89291 0.486 0.0
H700 H 0.23609 0.87491 0.57857 0.0
H701 H 0.24254 0.8767 0.5439 0.0
C702 C 0.62034 0.76183 0.06539 0.0
C703 C 0.63286 0.76947 0.07957 0.0
C704 C 0.62104 0.7687 0.04635 0.0
C705 C 0.65529 0.78841 0.01179 0.0
H706 H 0.60938 0.79356 0.97947 0.0
C707 C 0.63123 0.79617 0.9257 0.0
C708 C 0.64173 0.78031 0.91831 0.0
C709 C 0.63152 0.80028 0.9456 0.0
C710 C 0.62236 0.79256 0.98832 0.0
H711 H 0.65548 0.79071 0.08522 0.0
H712 H 0.65692 0.80254 0.05165 0.0
H713 H 0.60589 0.79138 0.0147 0.0
H714 H 0.66161 0.75698 0.92562 0.0
H715 H 0.66216 0.76417 0.96028 0.0
H716 H 0.6717 0.78871 0.98533 0.0
C717 C 0.64654 0.79129 0.05536 0.0
C718 C 0.62034 0.79115 0.00846 0.0
C719 C 0.64567 0.78456 0.07453 0.0
C720 C 0.65331 0.76925 0.93095 0.0
C721 C 0.65375 0.77347 0.95077 0.0
C722 C 0.6573 0.78967 0.99163 0.0
C723 C 0.63441 0.78321 0.04105 0.0
C724 C 0.63673 0.78842 0.02031 0.0
C725 C 0.64251 0.78874 0.95836 0.0
C726 C 0.64081 0.79112 0.97968 0.0
H727 H 0.61028 0.75023 0.06891 0.0
H728 H 0.61169 0.76202 0.03557 0.0
H729 H 0.66817 0.78622 0.02058 0.0
H730 H 0.62222 0.80496 0.91625 0.0
H731 H 0.62281 0.81219 0.95108 0.0
C732 C 0.7126 0.12904 0.57707 0.0
C733 C 0.72488 0.14309 0.58538 0.0
C734 C 0.70733 0.13031 0.55749 0.0
C735 C 0.70821 0.16278 0.51417 0.0
H736 H 0.71784 0.1148 0.48623 0.0
C737 C 0.73451 0.16032 0.4352 0.0
C738 C 0.72887 0.14481 0.4232 0.0
C739 C 0.72843 0.16109 0.45453 0.0
C740 C 0.71463 0.12824 0.49376 0.0
H741 H 0.74033 0.17007 0.58012 0.0
H742 H 0.73139 0.17215 0.54596 0.0
H743 H 0.71685 0.11451 0.52151 0.0
H744 H 0.71161 0.11847 0.42164 0.0
H745 H 0.70089 0.11984 0.45549 0.0
H746 H 0.70684 0.17663 0.48632 0.0
C747 C 0.72563 0.16026 0.55453 0.0
C748 C 0.71406 0.12808 0.51403 0.0
C749 C 0.73089 0.15899 0.57408 0.0
C750 C 0.71629 0.13054 0.43062 0.0
C751 C 0.71021 0.13129 0.45 0.0
C752 C 0.70879 0.16295 0.49387 0.0
C753 C 0.71423 0.14565 0.54587 0.0
C754 C 0.71143 0.14544 0.52448 0.0
C755 C 0.71658 0.14635 0.46228 0.0
C756 C 0.7126 0.14577 0.48347 0.0
H757 H 0.70763 0.1167 0.58548 0.0
H758 H 0.69831 0.11898 0.5513 0.0
H759 H 0.70583 0.17634 0.52182 0.0
H760 H 0.74417 0.17156 0.42986 0.0
H761 H 0.73381 0.17275 0.46365 0.0
C762 C 0.34987 0.21877 0.06897 0.0
C763 C 0.35958 0.23557 0.07538 0.0
C764 C 0.35042 0.21347 0.04931 0.0
C765 C 0.37801 0.22237 0.00403 0.0
H766 H 0.32888 0.21443 0.97749 0.0
C767 C 0.36515 0.24619 0.92631 0.0
C768 C 0.35743 0.23271 0.9131 0.0
C769 C 0.36584 0.2419 0.94606 0.0
C770 C 0.34273 0.21621 0.98477 0.0
H771 H 0.37776 0.25976 0.06648 0.0
H772 H 0.37869 0.25063 0.03245 0.0
H773 H 0.32984 0.21476 0.01311 0.0
H774 H 0.34392 0.20437 0.91012 0.0
H775 H 0.3446 0.19709 0.94512 0.0
H776 H 0.39068 0.22506 0.97576 0.0
C777 C 0.3708 0.24139 0.04248 0.0
C778 C 0.3433 0.21636 0.00511 0.0
C779 C 0.37012 0.24674 0.06197 0.0
C780 C 0.34997 0.21499 0.92005 0.0
C781 C 0.35035 0.21082 0.93997 0.0
C782 C 0.3774 0.22236 0.9838 0.0
C783 C 0.3609 0.22478 0.03591 0.0
C784 C 0.36083 0.22028 0.01487 0.0
C785 C 0.35858 0.22416 0.95304 0.0
C786 C 0.35965 0.22005 0.97404 0.0
H787 H 0.34162 0.20991 0.07905 0.0
H788 H 0.34265 0.20061 0.0446 0.0
H789 H 0.39179 0.22499 0.0112 0.0
H790 H 0.37104 0.25994 0.92136 0.0
H791 H 0.372 0.25251 0.95594 0.0
C792 C 0.57301 0.2785 0.13886 0.0
C793 C 0.5828 0.26149 0.14446 0.0
C794 C 0.55273 0.27947 0.13996 0.0
C795 C 0.5105 0.24724 0.13875 0.0
H796 H 0.48158 0.29173 0.15772 0.0
C797 C 0.42801 0.24375 0.14769 0.0
C798 C 0.41723 0.25987 0.14141 0.0
C799 C 0.44816 0.24495 0.1494 0.0
C800 C 0.48948 0.27929 0.15221 0.0
H801 H 0.57923 0.23252 0.15642 0.0
H802 H 0.54398 0.23425 0.1584 0.0
H803 H 0.51717 0.29227 0.1584 0.0
H804 H 0.4189 0.29003 0.13242 0.0
H805 H 0.45428 0.29203 0.13501 0.0
H806 H 0.48307 0.23431 0.13225 0.0
C807 C 0.55188 0.24672 0.15289 0.0
C808 C 0.50981 0.2796 0.15262 0.0
C809 C 0.57207 0.24576 0.15183 0.0
C810 C 0.4269 0.27738 0.1373 0.0
C811 C 0.44712 0.27855 0.13889 0.0
C812 C 0.49028 0.24696 0.13825 0.0
C813 C 0.54198 0.26341 0.1466 0.0
C814 C 0.52048 0.26349 0.14604 0.0
C815 C 0.45798 0.26224 0.14469 0.0
C816 C 0.47952 0.26289 0.14512 0.0
H817 H 0.58095 0.29085 0.13316 0.0
H818 H 0.54543 0.29248 0.13494 0.0
H819 H 0.51836 0.23479 0.13317 0.0
H820 H 0.42091 0.23012 0.15116 0.0
H821 H 0.45606 0.23225 0.15431 0.0
C822 C 0.56748 0.7411 0.88132 0.0
C823 C 0.58037 0.73482 0.86682 0.0
C824 C 0.54879 0.73338 0.88248 0.0
C825 C 0.51121 0.71329 0.85152 0.0
H826 H 0.48436 0.70708 0.9007 0.0
C827 C 0.42761 0.71131 0.85548 0.0
C828 C 0.42048 0.72551 0.8683 0.0
C829 C 0.44712 0.70559 0.85636 0.0
C830 C 0.49168 0.70858 0.88684 0.0
H831 H 0.58413 0.71505 0.84257 0.0
H832 H 0.55115 0.70165 0.84445 0.0
H833 H 0.51976 0.70952 0.9002 0.0
H834 H 0.42767 0.74393 0.89284 0.0
H835 H 0.46149 0.73398 0.89444 0.0
H836 H 0.48308 0.71346 0.83825 0.0
C837 C 0.55559 0.71255 0.85491 0.0
C838 C 0.51192 0.70999 0.88655 0.0
C839 C 0.57444 0.72018 0.85387 0.0
C840 C 0.43281 0.73302 0.88271 0.0
C841 C 0.45216 0.72717 0.88374 0.0
C842 C 0.49095 0.71188 0.8518 0.0
C843 C 0.5425 0.71927 0.8691 0.0
C844 C 0.52181 0.71324 0.86898 0.0
C845 C 0.45968 0.71379 0.87027 0.0
C846 C 0.48095 0.71039 0.86955 0.0
H847 H 0.57169 0.75231 0.89155 0.0
H848 H 0.53897 0.7391 0.89338 0.0
H849 H 0.51841 0.71589 0.83776 0.0
H850 H 0.41837 0.70529 0.84423 0.0
H851 H 0.45253 0.69519 0.84585 0.0
C852 C 0.78545 0.92407 0.37241 0.0
C853 C 0.76937 0.91724 0.3618 0.0
C854 C 0.79017 0.94388 0.37229 0.0
C855 C 0.78247 0.98901 0.34442 0.0
H856 H 0.78601 0.01556 0.39404 0.0
C857 C 0.75978 0.0678 0.35378 0.0
C858 C 0.77053 0.08022 0.36589 0.0
C859 C 0.76431 0.04813 0.3526 0.0
C860 C 0.7855 0.00833 0.38006 0.0
H861 H 0.74595 0.92555 0.34242 0.0
H862 H 0.75425 0.95991 0.34207 0.0
H863 H 0.78578 0.98 0.39305 0.0
H864 H 0.79458 0.08186 0.38619 0.0
H865 H 0.80243 0.04708 0.38427 0.0
H866 H 0.78142 0.01723 0.33144 0.0
C867 C 0.76326 0.95006 0.35043 0.0
C868 C 0.78536 0.988 0.3795 0.0
C869 C 0.75841 0.93041 0.35075 0.0
C870 C 0.78606 0.07258 0.37673 0.0
C871 C 0.79052 0.05273 0.37567 0.0
C872 C 0.78265 0.00926 0.34497 0.0
C873 C 0.77908 0.95704 0.36129 0.0
C874 C 0.78308 0.97819 0.36172 0.0
C875 C 0.77966 0.04033 0.36356 0.0
C876 C 0.78339 0.01913 0.36284 0.0
H877 H 0.79412 0.9142 0.38108 0.0
H878 H 0.80245 0.94892 0.38078 0.0
H879 H 0.78107 0.98179 0.33049 0.0
H880 H 0.74772 0.07325 0.34525 0.0
H881 H 0.75543 0.0389 0.34342 0.0
C882 C 0.42715 0.2803 0.85095 0.0
C883 C 0.42018 0.26302 0.85934 0.0
C884 C 0.44662 0.28576 0.85336 0.0
C885 C 0.48931 0.27724 0.88456 0.0
H886 H 0.52017 0.28323 0.83777 0.0
C887 C 0.56702 0.25072 0.87891 0.0
C888 C 0.58076 0.26101 0.86791 0.0
C889 C 0.54782 0.25703 0.87983 0.0
C890 C 0.51175 0.28212 0.85103 0.0
H891 H 0.42782 0.2382 0.87721 0.0
H892 H 0.46154 0.24777 0.88156 0.0
H893 H 0.48471 0.28349 0.8356 0.0
H894 H 0.58543 0.28629 0.84966 0.0
H895 H 0.5515 0.29722 0.85103 0.0
H896 H 0.51625 0.27485 0.89988 0.0
C897 C 0.45207 0.25713 0.87315 0.0
C898 C 0.49146 0.28225 0.84977 0.0
C899 C 0.43281 0.25155 0.8705 0.0
C900 C 0.57508 0.27809 0.85825 0.0
C901 C 0.55571 0.28431 0.85899 0.0
C902 C 0.50953 0.27716 0.88582 0.0
C903 C 0.45922 0.2742 0.86454 0.0
C904 C 0.48012 0.27889 0.86641 0.0
C905 C 0.54187 0.2737 0.86965 0.0
C906 C 0.52093 0.27865 0.86895 0.0
H907 H 0.41766 0.28939 0.84228 0.0
H908 H 0.45185 0.29895 0.84653 0.0
H909 H 0.48085 0.27495 0.89764 0.0
H910 H 0.57101 0.23754 0.88655 0.0
H911 H 0.53745 0.24835 0.8879 0.0
C912 C 0.22137 0.92391 0.35881 0.0
C913 C 0.23983 0.91523 0.35809 0.0
C914 C 0.21957 0.94417 0.35916 0.0
C915 C 0.24744 0.98783 0.37235 0.0
H916 H 0.20986 0.01562 0.34086 0.0
C917 C 0.25225 0.0701 0.36099 0.0
C918 C 0.23497 0.08089 0.3618 0.0
C919 C 0.25169 0.04985 0.3608 0.0
C920 C 0.22025 0.00803 0.34992 0.0
H921 H 0.27083 0.92084 0.35656 0.0
H922 H 0.2677 0.95605 0.35698 0.0
H923 H 0.21085 0.98008 0.33978 0.0
H924 H 0.20351 0.07902 0.36286 0.0
H925 H 0.20254 0.04346 0.36261 0.0
H926 H 0.25695 0.01563 0.38242 0.0
C927 C 0.25462 0.94728 0.35761 0.0
C928 C 0.22082 0.98771 0.34929 0.0
C929 C 0.25641 0.92711 0.35723 0.0
C930 C 0.21707 0.07104 0.36221 0.0
C931 C 0.21651 0.05072 0.36199 0.0
C932 C 0.24686 0.00806 0.37298 0.0
C933 C 0.23622 0.95602 0.35886 0.0
C934 C 0.23465 0.97745 0.36027 0.0
C935 C 0.23384 0.03993 0.36141 0.0
C936 C 0.23348 0.0184 0.36155 0.0
H937 H 0.20835 0.91507 0.3595 0.0
H938 H 0.20521 0.95053 0.3602 0.0
H939 H 0.25796 0.98029 0.38131 0.0
H940 H 0.26626 0.0773 0.36058 0.0
H941 H 0.26528 0.04194 0.36002 0.0
C942 C 0.5692 0.7122 0.13649 0.0
C943 C 0.57678 0.73027 0.14225 0.0
C944 C 0.54932 0.70833 0.13832 0.0
C945 C 0.50474 0.72535 0.16312 0.0
H946 H 0.47802 0.70568 0.11753 0.0
C947 C 0.42475 0.74117 0.14776 0.0
C948 C 0.41304 0.72659 0.13959 0.0
C949 C 0.4446 0.73816 0.15034 0.0
C950 C 0.48529 0.71081 0.13052 0.0
H951 H 0.56969 0.75829 0.15483 0.0
H952 H 0.53511 0.75163 0.15793 0.0
H953 H 0.51349 0.70653 0.11808 0.0
H954 H 0.41279 0.69728 0.12799 0.0
H955 H 0.44774 0.69203 0.1324 0.0
H956 H 0.47656 0.73029 0.17528 0.0
C957 C 0.54447 0.74035 0.15218 0.0
C958 C 0.50559 0.7113 0.13084 0.0
C959 C 0.56426 0.74423 0.15026 0.0
C960 C 0.42151 0.70878 0.13431 0.0
C961 C 0.44148 0.7058 0.13677 0.0
C962 C 0.48448 0.72488 0.16279 0.0
C963 C 0.53675 0.72243 0.14609 0.0
C964 C 0.51549 0.71912 0.14692 0.0
C965 C 0.45321 0.72052 0.14473 0.0
C966 C 0.47455 0.71815 0.14626 0.0
H967 H 0.57856 0.70116 0.1303 0.0
H968 H 0.54377 0.69437 0.1336 0.0
H969 H 0.512 0.7311 0.17586 0.0
H970 H 0.41862 0.75505 0.15198 0.0
H971 H 0.45331 0.74989 0.15622 0.0
C972 C 0.76879 0.92969 0.62712 0.0
C973 C 0.76903 0.91762 0.64357 0.0
C974 C 0.77566 0.94872 0.62827 0.0
C975 C 0.77925 0.98783 0.66323 0.0
H976 H 0.80486 0.01464 0.62075 0.0
C977 C 0.78121 0.07111 0.66071 0.0
C978 C 0.77519 0.07886 0.64281 0.0
C979 C 0.78662 0.05159 0.66213 0.0
C980 C 0.79774 0.00736 0.63276 0.0
H981 H 0.77746 0.9156 0.67387 0.0
H982 H 0.78932 0.9491 0.67593 0.0
H983 H 0.80333 0.97916 0.62079 0.0
H984 H 0.7711 0.07264 0.61218 0.0
H985 H 0.78012 0.03859 0.61469 0.0
H986 H 0.77263 0.0159 0.67467 0.0
C987 C 0.78379 0.94379 0.66218 0.0
C988 C 0.79691 0.98707 0.63279 0.0
C989 C 0.77705 0.92464 0.66098 0.0
C990 C 0.77564 0.06705 0.62619 0.0
C991 C 0.78098 0.04754 0.62761 0.0
C992 C 0.77998 0.0081 0.66315 0.0
C993 C 0.7828 0.95612 0.64592 0.0
C994 C 0.78708 0.97715 0.6477 0.0
C995 C 0.78607 0.03946 0.64568 0.0
C996 C 0.78864 0.01811 0.64756 0.0
H997 H 0.76277 0.92461 0.61348 0.0
H998 H 0.77447 0.95794 0.61556 0.0
H999 H 0.7714 0.98061 0.67481 0.0
H1000 H 0.78115 0.07996 0.67374 0.0
H1001 H 0.79073 0.04586 0.67621 0.0
C1002 C 0.21016 0.07037 0.65812 0.0
C1003 C 0.22517 0.07721 0.64605 0.0
C1004 C 0.20572 0.05051 0.65871 0.0
C1005 C 0.21203 0.00525 0.63071 0.0
H1006 H 0.21431 0.97907 0.68061 0.0
C1007 C 0.2436 0.9301 0.63976 0.0
C1008 C 0.23322 0.91604 0.65026 0.0
C1009 C 0.23734 0.94931 0.63944 0.0
C1010 C 0.21317 0.98622 0.66663 0.0
H1011 H 0.24705 0.06885 0.62495 0.0
H1012 H 0.23933 0.03445 0.62594 0.0
H1013 H 0.21237 0.01463 0.67942 0.0
H1014 H 0.20836 0.91098 0.66897 0.0
H1015 H 0.19765 0.94511 0.66886 0.0
H1016 H 0.21412 0.977 0.61791 0.0
C1017 C 0.23088 0.04431 0.63484 0.0
C1018 C 0.21204 0.00651 0.66593 0.0
C1019 C 0.23543 0.064 0.63441 0.0
C1020 C 0.21659 0.9216 0.66075 0.0
C1021 C 0.21047 0.94101 0.66069 0.0
C1022 C 0.21324 0.98507 0.63141 0.0
C1023 C 0.21603 0.03734 0.64699 0.0
C1024 C 0.21239 0.01619 0.64794 0.0
C1025 C 0.2207 0.95492 0.6498 0.0
C1026 C 0.2147 0.97548 0.64934 0.0
H1027 H 0.20204 0.0803 0.66724 0.0
H1028 H 0.19425 0.04545 0.66824 0.0
H1029 H 0.21194 0.01237 0.61667 0.0
H1030 H 0.25644 0.92624 0.63151 0.0
H1031 H 0.24564 0.95987 0.6312 0.0
C1032 C 0.14312 0.31302 0.29875 0.0
C1033 C 0.13377 0.31284 0.28061 0.0
C1034 C 0.14542 0.29582 0.30927 0.0
C1035 C 0.14939 0.24345 0.30099 0.0
H1036 H 0.15019 0.2413 0.35732 0.0
C1037 C 0.17816 0.17599 0.34029 0.0
C1038 C 0.19254 0.1803 0.35412 0.0
C1039 C 0.16585 0.1906 0.33341 0.0
C1040 C 0.14995 0.24166 0.34158 0.0
H1041 H 0.11862 0.29477 0.25968 0.0
H1042 H 0.12247 0.26473 0.27815 0.0
H1043 H 0.13784 0.27033 0.34101 0.0
H1044 H 0.20447 0.20287 0.37262 0.0
H1045 H 0.18317 0.22837 0.36054 0.0
H1046 H 0.16215 0.21516 0.30148 0.0
C1047 C 0.12829 0.2781 0.2841 0.0
C1048 C 0.14293 0.25828 0.33225 0.0
C1049 C 0.12603 0.2953 0.27356 0.0
C1050 C 0.19356 0.19915 0.36188 0.0
C1051 C 0.18125 0.21373 0.35505 0.0
C1052 C 0.15637 0.22685 0.3103 0.0
C1053 C 0.13837 0.2781 0.30188 0.0
C1054 C 0.14307 0.25955 0.31185 0.0
C1055 C 0.16768 0.20976 0.3403 0.0
C1056 C 0.15723 0.22598 0.33069 0.0
H1057 H 0.14921 0.32634 0.30454 0.0
H1058 H 0.15348 0.29629 0.32279 0.0
H1059 H 0.14996 0.24403 0.28527 0.0
H1060 H 0.17697 0.16154 0.33413 0.0
H1061 H 0.15535 0.18706 0.32222 0.0
C1062 C 0.31265 0.70289 0.8456 0.0
C1063 C 0.31378 0.72313 0.84796 0.0
C1064 C 0.29491 0.69404 0.84106 0.0
C1065 C 0.2471 0.70554 0.81953 0.0
H1066 H 0.23259 0.65492 0.83967 0.0
C1067 C 0.17416 0.67066 0.79932 0.0
C1068 C 0.17559 0.65154 0.79232 0.0
C1069 C 0.18973 0.67915 0.80922 0.0
C1070 C 0.23648 0.66906 0.83393 0.0
H1071 H 0.2972 0.74993 0.84808 0.0
H1072 H 0.26627 0.73452 0.84058 0.0
H1073 H 0.26262 0.67034 0.8508 0.0
H1074 H 0.19388 0.6259 0.79119 0.0
H1075 H 0.22105 0.64072 0.80847 0.0
H1076 H 0.22113 0.70422 0.80254 0.0
C1077 C 0.27909 0.72548 0.84176 0.0
C1078 C 0.2537 0.67785 0.84023 0.0
C1079 C 0.29681 0.7343 0.84614 0.0
C1080 C 0.19239 0.64069 0.79639 0.0
C1081 C 0.20792 0.64914 0.80637 0.0
C1082 C 0.22988 0.69682 0.81334 0.0
C1083 C 0.27795 0.70527 0.8389 0.0
C1084 C 0.25929 0.69614 0.83296 0.0
C1085 C 0.20697 0.66864 0.81238 0.0
C1086 C 0.22446 0.67842 0.82033 0.0
H1087 H 0.32553 0.69393 0.84692 0.0
H1088 H 0.2946 0.67847 0.83873 0.0
H1089 H 0.25112 0.71945 0.81332 0.0
H1090 H 0.16135 0.67934 0.79644 0.0
H1091 H 0.1885 0.69412 0.81394 0.0
C1092 C 0.84939 0.69756 0.26237 0.0
C1093 C 0.84307 0.67956 0.26965 0.0
C1094 C 0.84558 0.71469 0.27255 0.0
C1095 C 0.83128 0.73358 0.32089 0.0
H1096 H 0.81254 0.77766 0.29119 0.0
C1097 C 0.78752 0.79648 0.35421 0.0
C1098 C 0.79013 0.81532 0.34679 0.0
C1099 C 0.7974 0.78077 0.34607 0.0
C1100 C 0.81811 0.76564 0.29968 0.0
H1101 H 0.82799 0.66529 0.29336 0.0
H1102 H 0.82101 0.69527 0.31101 0.0
H1103 H 0.82286 0.74836 0.27431 0.0
H1104 H 0.80584 0.83269 0.3257 0.0
H1105 H 0.82323 0.80515 0.31146 0.0
H1106 H 0.82599 0.75076 0.34631 0.0
C1107 C 0.82918 0.69612 0.29758 0.0
C1108 C 0.824 0.74881 0.29 0.0
C1109 C 0.83304 0.67897 0.28741 0.0
C1110 C 0.80351 0.8183 0.33167 0.0
C1111 C 0.81337 0.80254 0.32346 0.0
C1112 C 0.82536 0.75042 0.33058 0.0
C1113 C 0.83531 0.71419 0.2902 0.0
C1114 C 0.83037 0.73249 0.3005 0.0
C1115 C 0.81006 0.78355 0.3303 0.0
C1116 C 0.81843 0.76651 0.32008 0.0
H1117 H 0.85728 0.69845 0.24877 0.0
H1118 H 0.85072 0.72834 0.2666 0.0
H1119 H 0.83644 0.72137 0.32937 0.0
H1120 H 0.77731 0.79375 0.36589 0.0
H1121 H 0.79439 0.76631 0.35155 0.0
C1122 C 0.79479 0.33718 0.75463 0.0
C1123 C 0.81272 0.33807 0.76435 0.0
C1124 C 0.77816 0.33079 0.76429 0.0
C1125 C 0.75745 0.32245 0.81322 0.0
H1126 H 0.72273 0.28792 0.78523 0.0
C1127 C 0.69732 0.27642 0.84989 0.0
C1128 C 0.67959 0.27444 0.83995 0.0
C1129 C 0.7129 0.28618 0.84127 0.0
C1130 C 0.73213 0.29777 0.79316 0.0
H1131 H 0.82733 0.33316 0.79182 0.0
H1132 H 0.79826 0.32159 0.80869 0.0
H1133 H 0.75148 0.30065 0.76906 0.0
H1134 H 0.66395 0.28177 0.81359 0.0
H1135 H 0.69118 0.29887 0.79854 0.0
H1136 H 0.73816 0.31916 0.83747 0.0
C1137 C 0.79702 0.32613 0.79366 0.0
C1138 C 0.74862 0.30507 0.7839 0.0
C1139 C 0.81368 0.33262 0.78399 0.0
C1140 C 0.67748 0.28301 0.82155 0.0
C1141 C 0.69309 0.29269 0.8129 0.0
C1142 C 0.74096 0.31506 0.82253 0.0
C1143 C 0.77909 0.32503 0.78387 0.0
C1144 C 0.76149 0.31748 0.79381 0.0
C1145 C 0.71106 0.29406 0.82252 0.0
C1146 C 0.72815 0.30263 0.81258 0.0
H1147 H 0.79358 0.34144 0.73952 0.0
H1148 H 0.76453 0.33045 0.75642 0.0
H1149 H 0.76694 0.33218 0.82118 0.0
H1150 H 0.69934 0.26998 0.86411 0.0
H1151 H 0.72662 0.28689 0.84897 0.0
C1152 C 0.20089 0.80493 0.64258 0.0
C1153 C 0.20951 0.81579 0.65757 0.0
C1154 C 0.18863 0.78933 0.64693 0.0
C1155 C 0.16133 0.76579 0.68731 0.0
H1156 H 0.17219 0.71847 0.65868 0.0
C1157 C 0.12962 0.6925 0.71184 0.0
C1158 C 0.14342 0.6775 0.71295 0.0
C1159 C 0.13377 0.70952 0.70156 0.0
C1160 C 0.16894 0.73157 0.66677 0.0
H1161 H 0.21159 0.81935 0.68881 0.0
H1162 H 0.19063 0.7919 0.69644 0.0
H1163 H 0.18665 0.74897 0.64812 0.0
H1164 H 0.17194 0.66809 0.70345 0.0
H1165 H 0.17936 0.69781 0.68588 0.0
H1166 H 0.14469 0.74816 0.70672 0.0
C1167 C 0.19298 0.79558 0.68131 0.0
C1168 C 0.17704 0.74912 0.66059 0.0
C1169 C 0.20514 0.81122 0.67696 0.0
C1170 C 0.16104 0.67942 0.70286 0.0
C1171 C 0.16521 0.69642 0.69265 0.0
C1172 C 0.15333 0.74822 0.69356 0.0
C1173 C 0.18484 0.78424 0.66635 0.0
C1174 C 0.17381 0.76632 0.67114 0.0
C1175 C 0.15181 0.71185 0.69224 0.0
C1176 C 0.15753 0.73082 0.6837 0.0
H1177 H 0.20388 0.80825 0.62748 0.0
H1178 H 0.18237 0.78106 0.63508 0.0
H1179 H 0.15828 0.77885 0.69555 0.0
H1180 H 0.11585 0.69133 0.7194 0.0
H1181 H 0.12305 0.72103 0.70129 0.0
C1182 C 0.69832 0.70964 0.12114 0.0
C1183 C 0.68129 0.70468 0.13125 0.0
C1184 C 0.71515 0.69851 0.1233 0.0
C1185 C 0.73458 0.65251 0.14461 0.0
H1186 H 0.77949 0.68471 0.15588 0.0
C1187 C 0.79395 0.63179 0.19897 0.0
C1188 C 0.81323 0.6375 0.19551 0.0
C1189 C 0.77926 0.63679 0.18593 0.0
C1190 C 0.76727 0.67541 0.15236 0.0
H1191 H 0.66811 0.6836 0.1506 0.0
H1192 H 0.69754 0.66447 0.15482 0.0
H1193 H 0.75062 0.69939 0.14195 0.0
H1194 H 0.8325 0.65208 0.17527 0.0
H1195 H 0.80668 0.66105 0.15248 0.0
H1196 H 0.75104 0.62873 0.15616 0.0
C1197 C 0.69792 0.67673 0.14494 0.0
C1198 C 0.75067 0.68383 0.14433 0.0
C1199 C 0.68105 0.68777 0.14265 0.0
C1200 C 0.81772 0.64757 0.17832 0.0
C1201 C 0.80297 0.65273 0.16532 0.0
C1202 C 0.75118 0.6441 0.15276 0.0
C1203 C 0.71533 0.6823 0.13575 0.0
C1204 C 0.73391 0.67261 0.14094 0.0
C1205 C 0.78354 0.64772 0.16922 0.0
C1206 C 0.76745 0.65561 0.15727 0.0
H1207 H 0.69885 0.7225 0.11206 0.0
H1208 H 0.72821 0.70299 0.11571 0.0
H1209 H 0.72205 0.64339 0.14182 0.0
H1210 H 0.79008 0.62393 0.21205 0.0
H1211 H 0.76441 0.63293 0.18947 0.0
C1212 C 0.79556 0.18143 0.67042 0.0
C1213 C 0.79502 0.1722 0.65224 0.0
C1214 C 0.80926 0.19587 0.67421 0.0
C1215 C 0.83859 0.23259 0.64936 0.0
H1216 H 0.85849 0.24027 0.70151 0.0
C1217 C 0.85383 0.30761 0.68167 0.0
C1218 C 0.86689 0.30946 0.69723 0.0
C1219 C 0.85091 0.28957 0.67283 0.0
C1220 C 0.85352 0.23825 0.68671 0.0
H1221 H 0.80878 0.17036 0.62394 0.0
H1222 H 0.83292 0.19567 0.63063 0.0
H1223 H 0.84276 0.20983 0.69319 0.0
H1224 H 0.88861 0.2945 0.71444 0.0
H1225 H 0.88399 0.26312 0.69861 0.0
H1226 H 0.84918 0.26115 0.64296 0.0
C1227 C 0.8226 0.19181 0.64187 0.0
C1228 C 0.84423 0.22085 0.68204 0.0
C1229 C 0.80885 0.17729 0.63808 0.0
C1230 C 0.87825 0.2934 0.70263 0.0
C1231 C 0.87551 0.27541 0.69363 0.0
C1232 C 0.84804 0.24999 0.654 0.0
C1233 C 0.82279 0.20142 0.65992 0.0
C1234 C 0.83594 0.21814 0.66357 0.0
C1235 C 0.86116 0.27307 0.67925 0.0
C1236 C 0.85493 0.25333 0.67296 0.0
H1237 H 0.78508 0.17783 0.68161 0.0
H1238 H 0.80875 0.2032 0.68813 0.0
H1239 H 0.83238 0.23097 0.63499 0.0
H1240 H 0.84489 0.31977 0.67719 0.0
H1241 H 0.83962 0.28836 0.66193 0.0
C1242 C 0.18024 0.34432 0.19281 0.0
C1243 C 0.1815 0.35449 0.21045 0.0
C1244 C 0.19692 0.34102 0.18169 0.0
C1245 C 0.2502 0.33843 0.18759 0.0
H1246 H 0.24953 0.33296 0.13148 0.0
C1247 C 0.3181 0.31343 0.14742 0.0
C1248 C 0.31478 0.29663 0.1363 0.0
C1249 C 0.30252 0.32501 0.15332 0.0
C1250 C 0.24992 0.33457 0.14714 0.0
H1251 H 0.20081 0.37019 0.22978 0.0
H1252 H 0.22974 0.36508 0.21012 0.0
H1253 H 0.22059 0.34491 0.14833 0.0
H1254 H 0.29289 0.27969 0.12119 0.0
H1255 H 0.26569 0.29991 0.13152 0.0
H1256 H 0.27934 0.32786 0.18647 0.0
C1257 C 0.21609 0.35901 0.20513 0.0
C1258 C 0.23334 0.34128 0.15681 0.0
C1259 C 0.19951 0.36201 0.21638 0.0
C1260 C 0.29584 0.2925 0.12987 0.0
C1261 C 0.28028 0.30414 0.13568 0.0
C1262 C 0.26677 0.33196 0.17793 0.0
C1263 C 0.21511 0.34808 0.18788 0.0
C1264 C 0.23317 0.34291 0.17721 0.0
C1265 C 0.2834 0.32004 0.1481 0.0
C1266 C 0.26669 0.3296 0.15766 0.0
H1267 H 0.16649 0.33839 0.18793 0.0
H1268 H 0.19563 0.33232 0.16863 0.0
H1269 H 0.25055 0.33908 0.20331 0.0
H1270 H 0.33257 0.31704 0.15247 0.0
H1271 H 0.30532 0.33734 0.16271 0.0
C1272 C 0.34534 0.2319 0.20081 0.0
C1273 C 0.34089 0.22409 0.18249 0.0
C1274 C 0.33886 0.22279 0.21771 0.0
C1275 C 0.31887 0.1766 0.23691 0.0
H1276 H 0.2982 0.21021 0.27719 0.0
C1277 C 0.26952 0.14996 0.29941 0.0
C1278 C 0.27273 0.15786 0.31796 0.0
C1279 C 0.27989 0.15685 0.28339 0.0
C1280 C 0.30418 0.20064 0.2662 0.0
H1281 H 0.32652 0.20044 0.16741 0.0
H1282 H 0.31478 0.18467 0.19699 0.0
H1283 H 0.31224 0.22449 0.24805 0.0
H1284 H 0.28966 0.17872 0.33447 0.0
H1285 H 0.30773 0.19087 0.3064 0.0
H1286 H 0.31024 0.15274 0.255 0.0
C1287 C 0.32356 0.19768 0.19831 0.0
C1288 C 0.31224 0.20881 0.2495 0.0
C1289 C 0.33017 0.20676 0.18137 0.0
C1290 C 0.28686 0.17241 0.32031 0.0
C1291 C 0.29713 0.17941 0.30426 0.0
C1292 C 0.31068 0.16842 0.25361 0.0
C1293 C 0.32764 0.20574 0.21666 0.0
C1294 C 0.31962 0.1969 0.23463 0.0
C1295 C 0.29355 0.17187 0.28561 0.0
C1296 C 0.30319 0.18038 0.26837 0.0
H1297 H 0.35374 0.24517 0.20213 0.0
H1298 H 0.34257 0.22918 0.23162 0.0
H1299 H 0.32467 0.16704 0.22584 0.0
H1300 H 0.25875 0.13868 0.2972 0.0
H1301 H 0.27673 0.15089 0.26916 0.0
C1302 C 0.37844 0.77585 0.79249 0.0
C1303 C 0.37194 0.78454 0.80977 0.0
C1304 C 0.37561 0.7851 0.77466 0.0
C1305 C 0.35961 0.83112 0.75115 0.0
H1306 H 0.3329 0.79605 0.716 0.0
C1307 C 0.30105 0.85611 0.69741 0.0
C1308 C 0.29827 0.84577 0.68004 0.0
C1309 C 0.31529 0.85032 0.71064 0.0
C1310 C 0.34073 0.80604 0.72532 0.0
H1311 H 0.35884 0.81036 0.8222 0.0
H1312 H 0.35363 0.82641 0.79107 0.0
H1313 H 0.34949 0.78306 0.74418 0.0
H1314 H 0.30895 0.82207 0.66224 0.0
H1315 H 0.33409 0.81212 0.68521 0.0
H1316 H 0.35012 0.85419 0.73254 0.0
C1317 C 0.36105 0.81253 0.79124 0.0
C1318 C 0.35028 0.79856 0.74154 0.0
C1319 C 0.36391 0.80328 0.80908 0.0
C1320 C 0.31065 0.83017 0.67564 0.0
C1321 C 0.325 0.82445 0.68881 0.0
C1322 C 0.3501 0.83862 0.73483 0.0
C1323 C 0.36619 0.8032 0.7738 0.0
C1324 C 0.35931 0.81105 0.75494 0.0
C1325 C 0.32712 0.83413 0.7067 0.0
C1326 C 0.34004 0.82619 0.72207 0.0
H1327 H 0.38487 0.76148 0.79262 0.0
H1328 H 0.38001 0.77771 0.76147 0.0
H1329 H 0.36667 0.84106 0.76111 0.0
H1330 H 0.29173 0.86824 0.70116 0.0
H1331 H 0.31633 0.85795 0.72436 0.0
C1332 C 0.69905 0.82863 0.32365 0.0
C1333 C 0.71213 0.844 0.32052 0.0
C1334 C 0.68824 0.82105 0.30822 0.0
C1335 C 0.67147 0.83057 0.25818 0.0
H1336 H 0.67647 0.77478 0.25187 0.0
C1337 C 0.65664 0.79199 0.18524 0.0
C1338 C 0.64877 0.77317 0.18564 0.0
C1339 C 0.66185 0.80131 0.20252 0.0
C1340 C 0.67455 0.79032 0.25355 0.0
H1341 H 0.72342 0.86419 0.2991 0.0
H1342 H 0.70443 0.85105 0.27218 0.0
H1343 H 0.68913 0.79027 0.28101 0.0
H1344 H 0.6395 0.74957 0.20436 0.0
H1345 H 0.64807 0.76599 0.23453 0.0
H1346 H 0.65697 0.83065 0.23066 0.0
C1347 C 0.70254 0.84486 0.28653 0.0
C1348 C 0.68184 0.79919 0.27026 0.0
C1349 C 0.71348 0.8523 0.30192 0.0
C1350 C 0.64573 0.76402 0.20362 0.0
C1351 C 0.65073 0.7734 0.2209 0.0
C1352 C 0.66399 0.82167 0.24151 0.0
C1353 C 0.69017 0.82886 0.28944 0.0
C1354 C 0.68063 0.81942 0.27262 0.0
C1355 C 0.6591 0.79206 0.22056 0.0
C1356 C 0.66572 0.80146 0.23886 0.0
H1357 H 0.6977 0.82197 0.33786 0.0
H1358 H 0.67867 0.80882 0.31086 0.0
H1359 H 0.6702 0.84619 0.25973 0.0
H1360 H 0.65917 0.79936 0.17155 0.0
H1361 H 0.66852 0.81555 0.20167 0.0
C1362 C 0.69771 0.12593 0.69072 0.0
C1363 C 0.70471 0.14159 0.67963 0.0
C1364 C 0.68532 0.12923 0.70649 0.0
C1365 C 0.65529 0.16738 0.73069 0.0
H1366 H 0.6709 0.14089 0.77791 0.0
C1367 C 0.65932 0.1857 0.81635 0.0
C1368 C 0.6415 0.19529 0.81882 0.0
C1369 C 0.6629 0.17485 0.7996 0.0
C1370 C 0.66631 0.14837 0.76485 0.0
H1371 H 0.70354 0.17283 0.6757 0.0
H1372 H 0.68234 0.17865 0.70332 0.0
H1373 H 0.68447 0.13073 0.74689 0.0
H1374 H 0.61291 0.19995 0.8064 0.0
H1375 H 0.61902 0.18064 0.77724 0.0
H1376 H 0.63826 0.18595 0.74878 0.0
C1377 C 0.68607 0.16378 0.69976 0.0
C1378 C 0.6739 0.14238 0.747 0.0
C1379 C 0.69837 0.16047 0.68399 0.0
C1380 C 0.62686 0.19283 0.80479 0.0
C1381 C 0.6304 0.18186 0.78805 0.0
C1382 C 0.64781 0.17346 0.74854 0.0
C1383 C 0.67974 0.14825 0.71148 0.0
C1384 C 0.669 0.15226 0.72979 0.0
C1385 C 0.64868 0.17324 0.78499 0.0
C1386 C 0.65375 0.16445 0.76591 0.0
H1387 H 0.70227 0.11119 0.6876 0.0
H1388 H 0.68048 0.11693 0.71505 0.0
H1389 H 0.65093 0.17505 0.71766 0.0
H1390 H 0.67088 0.18733 0.82693 0.0
H1391 H 0.67723 0.16865 0.79766 0.0
C1392 C 0.79392 0.81363 0.65007 0.0
C1393 C 0.77483 0.81576 0.65699 0.0
C1394 C 0.80459 0.79686 0.65436 0.0
C1395 C 0.798 0.74591 0.67046 0.0
H1396 H 0.85224 0.74942 0.68538 0.0
C1397 C 0.83931 0.67769 0.69381 0.0
C1398 C 0.85012 0.67968 0.711 0.0
C1399 C 0.83286 0.69413 0.68379 0.0
C1400 C 0.8371 0.7482 0.68124 0.0
H1401 H 0.75204 0.80228 0.6741 0.0
H1402 H 0.77071 0.77333 0.68194 0.0
H1403 H 0.8349 0.77869 0.67538 0.0
H1404 H 0.86366 0.70033 0.7306 0.0
H1405 H 0.85202 0.72898 0.71348 0.0
H1406 H 0.79978 0.71573 0.67728 0.0
C1407 C 0.77734 0.78432 0.67282 0.0
C1408 C 0.82722 0.76494 0.67532 0.0
C1409 C 0.76669 0.80099 0.66846 0.0
C1410 C 0.85532 0.69836 0.71738 0.0
C1411 C 0.84874 0.7148 0.70748 0.0
C1412 C 0.80782 0.72924 0.67646 0.0
C1413 C 0.79635 0.78196 0.66568 0.0
C1414 C 0.80744 0.76404 0.67027 0.0
C1415 C 0.83694 0.71288 0.69089 0.0
C1416 C 0.82739 0.73022 0.68227 0.0
H1417 H 0.80053 0.82479 0.64113 0.0
H1418 H 0.81915 0.79543 0.64854 0.0
H1419 H 0.78287 0.74464 0.6663 0.0
H1420 H 0.83525 0.66344 0.68846 0.0
H1421 H 0.82417 0.69213 0.67082 0.0
C1422 C 0.68609 0.31165 0.14343 0.0
C1423 C 0.68517 0.2966 0.1297 0.0
C1424 C 0.7034 0.32193 0.14621 0.0
C1425 C 0.75526 0.31172 0.14192 0.0
H1426 H 0.75992 0.36266 0.16558 0.0
C1427 C 0.81062 0.32835 0.20101 0.0
C1428 C 0.81955 0.34667 0.20181 0.0
C1429 C 0.79639 0.32447 0.18714 0.0
C1430 C 0.75899 0.34855 0.15865 0.0
H1431 H 0.70073 0.28197 0.10655 0.0
H1432 H 0.73075 0.3003 0.11095 0.0
H1433 H 0.72994 0.35379 0.14874 0.0
H1434 H 0.82103 0.37518 0.18842 0.0
H1435 H 0.79588 0.36839 0.16411 0.0
H1436 H 0.78405 0.30629 0.15225 0.0
C1437 C 0.71838 0.30375 0.12005 0.0
C1438 C 0.74175 0.3434 0.14917 0.0
C1439 C 0.70116 0.29332 0.11746 0.0
C1440 C 0.81435 0.36091 0.18811 0.0
C1441 C 0.79994 0.35707 0.17428 0.0
C1442 C 0.77244 0.31688 0.15133 0.0
C1443 C 0.72002 0.31745 0.13514 0.0
C1444 C 0.73942 0.32464 0.14136 0.0
C1445 C 0.79069 0.33886 0.17379 0.0
C1446 C 0.77419 0.33503 0.16048 0.0
H1447 H 0.67394 0.3145 0.15304 0.0
H1448 H 0.70412 0.33228 0.15804 0.0
H1449 H 0.75401 0.29709 0.13625 0.0
H1450 H 0.81435 0.3171 0.21138 0.0
H1451 H 0.78932 0.3104 0.18735 0.0
C1452 C 0.11509 0.29683 0.7093 0.0
C1453 C 0.12373 0.31355 0.70138 0.0
C1454 C 0.1181 0.27871 0.70071 0.0
C1455 C 0.14473 0.24509 0.69254 0.0
H1456 H 0.1534 0.23344 0.63805 0.0
C1457 C 0.20467 0.19436 0.66683 0.0
C1458 C 0.19984 0.1797 0.6535 0.0
C1459 C 0.19128 0.20881 0.67142 0.0
C1460 C 0.15076 0.23639 0.6533 0.0
H1461 H 0.14055 0.32481 0.67722 0.0
H1462 H 0.14609 0.29314 0.66239 0.0
H1463 H 0.13478 0.26246 0.64716 0.0
H1464 H 0.17742 0.16875 0.63423 0.0
H1465 H 0.15399 0.19454 0.642 0.0
H1466 H 0.16145 0.21964 0.69871 0.0
C1467 C 0.13689 0.29398 0.67514 0.0
C1468 C 0.14022 0.25299 0.6585 0.0
C1469 C 0.13382 0.31213 0.6837 0.0
C1470 C 0.18145 0.17989 0.6446 0.0
C1471 C 0.1681 0.1946 0.64898 0.0
C1472 C 0.15536 0.22869 0.68735 0.0
C1473 C 0.12987 0.277 0.68411 0.0
C1474 C 0.13757 0.25777 0.6782 0.0
C1475 C 0.17288 0.20903 0.6626 0.0
C1476 C 0.15897 0.22453 0.66773 0.0
H1477 H 0.10701 0.29756 0.7228 0.0
H1478 H 0.11221 0.2659 0.70773 0.0
H1479 H 0.14319 0.24846 0.70784 0.0
H1480 H 0.21874 0.19456 0.6739 0.0
H1481 H 0.19536 0.21995 0.68178 0.0
C1482 C 0.17563 0.65166 0.17997 0.0
C1483 C 0.17518 0.63524 0.19208 0.0
C1484 C 0.19122 0.65466 0.16732 0.0
C1485 C 0.24287 0.64399 0.16537 0.0
H1486 H 0.24013 0.67128 0.11614 0.0
C1487 C 0.31121 0.67863 0.13293 0.0
C1488 C 0.30863 0.69811 0.12743 0.0
C1489 C 0.29511 0.66655 0.13582 0.0
C1490 C 0.24114 0.66362 0.12986 0.0
H1491 H 0.18988 0.60834 0.19942 0.0
H1492 H 0.2171 0.61357 0.17726 0.0
H1493 H 0.21056 0.65765 0.13036 0.0
H1494 H 0.28733 0.71992 0.11944 0.0
H1495 H 0.25933 0.6991 0.12488 0.0
H1496 H 0.27312 0.65082 0.16554 0.0
C1497 C 0.20554 0.62424 0.17774 0.0
C1498 C 0.22423 0.6558 0.13797 0.0
C1499 C 0.18993 0.62122 0.19037 0.0
C1500 C 0.28977 0.70497 0.12375 0.0
C1501 C 0.2737 0.69295 0.12671 0.0
C1502 C 0.25973 0.65187 0.15733 0.0
C1503 C 0.20667 0.6413 0.16656 0.0
C1504 C 0.22483 0.64643 0.15611 0.0
C1505 C 0.27614 0.67377 0.13334 0.0
C1506 C 0.25897 0.66234 0.13979 0.0
H1507 H 0.16443 0.66268 0.18094 0.0
H1508 H 0.19173 0.66804 0.15904 0.0
H1509 H 0.24381 0.63709 0.17949 0.0
H1510 H 0.32562 0.67291 0.1357 0.0
H1511 H 0.2975 0.65175 0.14062 0.0
C1512 C 0.86837 0.29945 0.28744 0.0
C1513 C 0.85351 0.3134 0.28649 0.0
C1514 C 0.86588 0.28248 0.29836 0.0
C1515 C 0.83437 0.25951 0.3359 0.0
H1516 H 0.84817 0.21165 0.30953 0.0
C1517 C 0.80985 0.18577 0.36626 0.0
C1518 C 0.80073 0.17387 0.35239 0.0
C1519 C 0.82126 0.20154 0.36036 0.0
C1520 C 0.8443 0.22488 0.31713 0.0
H1521 H 0.82468 0.32092 0.29674 0.0
H1522 H 0.82017 0.29127 0.31548 0.0
H1523 H 0.85806 0.24271 0.29572 0.0
H1524 H 0.79744 0.1683 0.32154 0.0
H1525 H 0.81706 0.19582 0.31127 0.0
H1526 H 0.81955 0.24175 0.35664 0.0
C1527 C 0.83389 0.29347 0.30808 0.0
C1528 C 0.85015 0.2427 0.30933 0.0
C1529 C 0.8364 0.31043 0.29722 0.0
C1530 C 0.80427 0.17723 0.33257 0.0
C1531 C 0.81564 0.19298 0.32669 0.0
C1532 C 0.82846 0.2417 0.34366 0.0
C1533 C 0.84846 0.27914 0.30852 0.0
C1534 C 0.84476 0.26025 0.31833 0.0
C1535 C 0.82376 0.20569 0.3405 0.0
C1536 C 0.83287 0.2242 0.33406 0.0
H1537 H 0.88177 0.30141 0.27939 0.0
H1538 H 0.87748 0.27185 0.2986 0.0
H1539 H 0.83026 0.27274 0.34337 0.0
H1540 H 0.80745 0.18347 0.38165 0.0
H1541 H 0.82758 0.21088 0.37136 0.0
C1542 C 0.18222 0.33965 0.78429 0.0
C1543 C 0.18194 0.34375 0.7643 0.0
C1544 C 0.19933 0.33324 0.79322 0.0
C1545 C 0.24642 0.3102 0.78148 0.0
H1546 H 0.26093 0.3271 0.83327 0.0
C1547 C 0.31976 0.28913 0.81519 0.0
C1548 C 0.31882 0.28146 0.83408 0.0
C1549 C 0.30371 0.29861 0.80716 0.0
C1550 C 0.25699 0.32222 0.81883 0.0
H1551 H 0.19937 0.34485 0.73805 0.0
H1552 H 0.2292 0.33409 0.75362 0.0
H1553 H 0.23135 0.33983 0.81827 0.0
H1554 H 0.30072 0.27842 0.85972 0.0
H1555 H 0.27269 0.29503 0.84569 0.0
H1556 H 0.27201 0.29261 0.78201 0.0
C1557 C 0.21618 0.33536 0.76237 0.0
C1558 C 0.24004 0.32944 0.81027 0.0
C1559 C 0.1991 0.34163 0.75347 0.0
C1560 C 0.30184 0.28417 0.8451 0.0
C1561 C 0.28583 0.29375 0.83711 0.0
C1562 C 0.26339 0.30309 0.78998 0.0
C1563 C 0.21648 0.33092 0.78231 0.0
C1564 C 0.23454 0.32347 0.79149 0.0
C1565 C 0.28647 0.30069 0.81792 0.0
C1566 C 0.26884 0.30898 0.80875 0.0
H1567 H 0.16918 0.34115 0.79299 0.0
H1568 H 0.19901 0.32974 0.80856 0.0
H1569 H 0.24243 0.30498 0.76717 0.0
H1570 H 0.33268 0.2873 0.80638 0.0
H1571 H 0.30469 0.30405 0.79242 0.0
C1572 C 0.19334 0.81153 0.3409 0.0
C1573 C 0.20697 0.81075 0.35608 0.0
C1574 C 0.18366 0.79468 0.33494 0.0
C1575 C 0.1612 0.75684 0.32825 0.0
H1576 H 0.19768 0.71451 0.32075 0.0
C1577 C 0.1404 0.68297 0.2928 0.0
C1578 C 0.15303 0.67715 0.27783 0.0
C1579 C 0.14538 0.69848 0.30498 0.0
C1580 C 0.1873 0.72616 0.32285 0.0
H1581 H 0.21993 0.7922 0.37802 0.0
H1582 H 0.20292 0.76287 0.36774 0.0
H1583 H 0.20795 0.74356 0.33815 0.0
H1584 H 0.18081 0.68269 0.26402 0.0
H1585 H 0.18959 0.70957 0.28538 0.0
H1586 H 0.14077 0.73953 0.31225 0.0
C1587 C 0.19999 0.77638 0.3602 0.0
C1588 C 0.1931 0.74272 0.33298 0.0
C1589 C 0.20966 0.79319 0.36612 0.0
C1590 C 0.17081 0.68686 0.27544 0.0
C1591 C 0.17588 0.70217 0.28773 0.0
C1592 C 0.15533 0.74015 0.31821 0.0
C1593 C 0.18745 0.77679 0.34409 0.0
C1594 C 0.18025 0.7584 0.33547 0.0
C1595 C 0.16318 0.70819 0.30254 0.0
C1596 C 0.16851 0.72487 0.31504 0.0
H1597 H 0.19096 0.8249 0.33292 0.0
H1598 H 0.17415 0.79543 0.32242 0.0
H1599 H 0.15097 0.76867 0.33005 0.0
H1600 H 0.12657 0.67574 0.29492 0.0
H1601 H 0.13539 0.70281 0.31635 0.0
C1602 C 0.81936 0.66821 0.79852 0.0
C1603 C 0.81566 0.65197 0.7867 0.0
C1604 C 0.80424 0.67705 0.80879 0.0
C1605 C 0.75442 0.67023 0.8271 0.0
H1606 H 0.74922 0.72554 0.81759 0.0
C1607 C 0.68302 0.71168 0.84165 0.0
C1608 C 0.68416 0.73111 0.84778 0.0
C1609 C 0.69984 0.70155 0.83647 0.0
C1610 C 0.7506 0.71018 0.82077 0.0
H1611 H 0.79356 0.63162 0.77712 0.0
H1612 H 0.76719 0.64695 0.79527 0.0
H1613 H 0.7776 0.70834 0.80545 0.0
H1614 H 0.70376 0.75501 0.85397 0.0
H1615 H 0.73315 0.73722 0.84551 0.0
H1616 H 0.72743 0.67203 0.84244 0.0
C1617 C 0.78174 0.65286 0.79654 0.0
C1618 C 0.76687 0.70033 0.81376 0.0
C1619 C 0.7968 0.64416 0.78609 0.0
C1620 C 0.70244 0.74009 0.8491 0.0
C1621 C 0.71927 0.72991 0.84415 0.0
C1622 C 0.73822 0.68013 0.83432 0.0
C1623 C 0.78523 0.66966 0.80761 0.0
C1624 C 0.76882 0.68023 0.81663 0.0
C1625 C 0.71818 0.71059 0.83753 0.0
C1626 C 0.73597 0.70019 0.83101 0.0
H1627 H 0.83377 0.67452 0.79926 0.0
H1628 H 0.80733 0.6899 0.81736 0.0
H1629 H 0.75567 0.65474 0.82963 0.0
H1630 H 0.66909 0.70442 0.84046 0.0
H1631 H 0.69838 0.68681 0.83116 0.0
C1632 C 0.67797 0.85302 0.67681 0.0
C1633 C 0.6948 0.86388 0.68078 0.0
C1634 C 0.6646 0.84905 0.69156 0.0
C1635 C 0.65148 0.86031 0.74299 0.0
H1636 H 0.64102 0.80498 0.7453 0.0
C1637 C 0.64196 0.81798 0.81418 0.0
C1638 C 0.63037 0.80118 0.81437 0.0
C1639 C 0.64411 0.82878 0.79713 0.0
C1640 C 0.64331 0.82055 0.74476 0.0
H1641 H 0.71016 0.88033 0.70285 0.0
H1642 H 0.68708 0.87312 0.72867 0.0
H1643 H 0.65497 0.81879 0.71609 0.0
H1644 H 0.61071 0.78333 0.79738 0.0
H1645 H 0.61421 0.80236 0.76765 0.0
H1646 H 0.64059 0.86178 0.77213 0.0
C1647 C 0.68402 0.86782 0.71417 0.0
C1648 C 0.65134 0.8285 0.72794 0.0
C1649 C 0.69734 0.87184 0.6994 0.0
C1650 C 0.61992 0.79611 0.79758 0.0
C1651 C 0.62198 0.80696 0.78055 0.0
C1652 C 0.64341 0.85234 0.75986 0.0
C1653 C 0.66786 0.85581 0.71058 0.0
C1654 C 0.65608 0.84835 0.72706 0.0
C1655 C 0.63462 0.82303 0.77995 0.0
C1656 C 0.63981 0.83225 0.76113 0.0
H1657 H 0.67555 0.84686 0.66252 0.0
H1658 H 0.65212 0.84003 0.68827 0.0
H1659 H 0.6547 0.87572 0.74264 0.0
H1660 H 0.65015 0.82226 0.82694 0.0
H1661 H 0.6541 0.84095 0.79715 0.0
C1662 C 0.70885 0.17917 0.32792 0.0
C1663 C 0.71574 0.16 0.32682 0.0
C1664 C 0.69932 0.18755 0.31207 0.0
C1665 C 0.67538 0.17648 0.26505 0.0
H1666 H 0.69447 0.22746 0.25039 0.0
C1667 C 0.66366 0.20897 0.18856 0.0
C1668 C 0.65947 0.2289 0.18737 0.0
C1669 C 0.66885 0.20062 0.20634 0.0
C1670 C 0.68875 0.21335 0.25441 0.0
H1671 H 0.71724 0.13423 0.30872 0.0
H1672 H 0.70071 0.14885 0.28106 0.0
H1673 H 0.70536 0.21279 0.28067 0.0
H1674 H 0.65719 0.25571 0.20383 0.0
H1675 H 0.66605 0.24113 0.23483 0.0
H1676 H 0.65898 0.17696 0.2386 0.0
C1677 C 0.70254 0.1574 0.29416 0.0
C1678 C 0.69496 0.20496 0.27179 0.0
C1679 C 0.7121 0.14906 0.30997 0.0
C1680 C 0.66047 0.24031 0.20428 0.0
C1681 C 0.66561 0.23198 0.22203 0.0
C1682 C 0.66913 0.18489 0.24766 0.0
C1683 C 0.69646 0.17688 0.29486 0.0
C1684 C 0.6885 0.18636 0.27722 0.0
C1685 C 0.66992 0.21205 0.22326 0.0
C1686 C 0.67591 0.20335 0.24206 0.0
H1687 H 0.71141 0.18792 0.34077 0.0
H1688 H 0.69454 0.20252 0.31312 0.0
H1689 H 0.66998 0.1622 0.26896 0.0
H1690 H 0.66301 0.19984 0.17574 0.0
H1691 H 0.67234 0.18527 0.20676 0.0
C1692 C 0.30162 0.14253 0.6814 0.0
C1693 C 0.28239 0.13718 0.68571 0.0
C1694 C 0.31503 0.14552 0.69636 0.0
C1695 C 0.33281 0.1669 0.73049 0.0
H1696 H 0.33191 0.13886 0.77939 0.0
C1697 C 0.34078 0.18746 0.81478 0.0
C1698 C 0.35693 0.19992 0.81393 0.0
C1699 C 0.33647 0.17519 0.7992 0.0
C1700 C 0.3324 0.14677 0.76579 0.0
H1701 H 0.26237 0.12971 0.70889 0.0
H1702 H 0.28559 0.13523 0.73495 0.0
H1703 H 0.31542 0.12524 0.75102 0.0
H1704 H 0.38207 0.2083 0.79685 0.0
H1705 H 0.3746 0.18675 0.76966 0.0
H1706 H 0.34895 0.18884 0.74537 0.0
C1707 C 0.29046 0.1369 0.72007 0.0
C1708 C 0.32296 0.139 0.74957 0.0
C1709 C 0.27708 0.13392 0.70514 0.0
C1710 C 0.36941 0.19898 0.7978 0.0
C1711 C 0.36511 0.18669 0.78222 0.0
C1712 C 0.34224 0.17465 0.74668 0.0
C1713 C 0.30945 0.14319 0.71589 0.0
C1714 C 0.32249 0.14933 0.73193 0.0
C1715 C 0.34825 0.17514 0.78249 0.0
C1716 C 0.34157 0.165 0.76467 0.0
H1717 H 0.30614 0.14499 0.66652 0.0
H1718 H 0.32963 0.15014 0.69268 0.0
H1719 H 0.33254 0.17536 0.71722 0.0
H1720 H 0.33095 0.18784 0.82707 0.0
H1721 H 0.32327 0.16663 0.7998 0.0
C1722 C 0.28123 0.84548 0.30021 0.0
C1723 C 0.28345 0.8376 0.3189 0.0
C1724 C 0.29143 0.83769 0.28452 0.0
C1725 C 0.3113 0.79191 0.26795 0.0
H1726 H 0.33515 0.82307 0.22746 0.0
C1727 C 0.34474 0.75658 0.19991 0.0
C1728 C 0.34124 0.7659 0.1821 0.0
C1729 C 0.34031 0.76585 0.2174 0.0
C1730 C 0.3284 0.81417 0.23856 0.0
H1731 H 0.29852 0.81588 0.33605 0.0
H1732 H 0.3162 0.80204 0.30846 0.0
H1733 H 0.32309 0.83878 0.25691 0.0
H1734 H 0.33051 0.79222 0.16854 0.0
H1735 H 0.32216 0.8082 0.19902 0.0
H1736 H 0.31575 0.76743 0.24942 0.0
C1737 C 0.30658 0.81425 0.30601 0.0
C1738 C 0.32161 0.82317 0.25544 0.0
C1739 C 0.29654 0.82221 0.32177 0.0
C1740 C 0.3334 0.78472 0.18208 0.0
C1741 C 0.32877 0.79393 0.19957 0.0
C1742 C 0.3179 0.78294 0.251 0.0
C1743 C 0.30388 0.82175 0.2872 0.0
C1744 C 0.3128 0.81214 0.27018 0.0
C1745 C 0.33209 0.78457 0.21745 0.0
C1746 C 0.32631 0.79399 0.23599 0.0
H1747 H 0.27127 0.85739 0.29761 0.0
H1748 H 0.28895 0.84362 0.27014 0.0
H1749 H 0.3043 0.78311 0.27897 0.0
H1750 H 0.35095 0.74212 0.20035 0.0
H1751 H 0.34337 0.75834 0.2309 0.0
loop_
_geom_bond_atom_site_label_1
_geom_bond_atom_site_label_2
_geom_bond_distance
_geom_bond_site_symmetry_2
_ccdc_geom_bond_type
In0 O1 2.294 . S
In0 O2 2.326 . S
In0 O6 2.266 . S
In0 O7 2.326 . S
In0 O8 2.266 . S
In0 O9 2.326 . S
In0 O11 2.294 . S
In0 O12 2.326 . S
O1 In0 2.294 . S
O1 C10 1.240 . S
O2 In0 2.326 . S
O2 C10 1.252 . S
C3 O6 1.252 . S
C3 O7 1.260 . S
C4 O11 1.240 . S
C4 O12 1.252 . S
C5 O8 1.252 . S
C5 O9 1.260 . S
O6 In0 2.266 . S
O6 C3 1.252 . S
O7 In0 2.326 . S
O7 C3 1.260 . S
O8 In0 2.266 . S
O8 C5 1.252 . S
O9 In0 2.326 . S
O9 C5 1.260 . S
C10 O1 1.240 . S
C10 O2 1.252 . S
O11 In0 2.294 . S
O11 C4 1.240 . S
O12 In0 2.326 . S
O12 C4 1.252 . S
In13 O14 2.294 . S
In13 O15 2.326 . S
In13 O19 2.266 . S
In13 O20 2.326 . S
In13 O21 2.266 . S
In13 O22 2.326 . S
In13 O24 2.294 . S
In13 O25 2.326 . S
O14 In13 2.294 . S
O14 C23 1.240 . S
O15 In13 2.326 . S
O15 C23 1.252 . S
C16 O19 1.252 . S
C16 O20 1.260 . S
C17 O24 1.240 . S
C17 O25 1.252 . S
C18 O21 1.252 . S
C18 O22 1.260 . S
O19 In13 2.266 . S
O19 C16 1.252 . S
O20 In13 2.326 . S
O20 C16 1.260 . S
O21 In13 2.266 . S
O21 C18 1.252 . S
O22 In13 2.326 . S
O22 C18 1.260 . S
C23 O14 1.240 . S
C23 O15 1.252 . S
O24 In13 2.294 . S
O24 C17 1.240 . S
O25 In13 2.326 . S
O25 C17 1.252 . S
In26 O27 2.294 . S
In26 O28 2.326 . S
In26 O32 2.266 . S
In26 O33 2.326 . S
In26 O34 2.266 . S
In26 O35 2.326 . S
In26 O37 2.294 . S
In26 O38 2.326 . S
O27 In26 2.294 . S
O27 C36 1.240 . S
O28 In26 2.326 . S
O28 C36 1.252 . S
C29 O32 1.252 . S
C29 O33 1.260 . S
C30 O37 1.240 . S
C30 O38 1.252 . S
C31 O34 1.252 . S
C31 O35 1.260 . S
O32 In26 2.266 . S
O32 C29 1.252 . S
O33 In26 2.326 . S
O33 C29 1.260 . S
O34 In26 2.266 . S
O34 C31 1.252 . S
O35 In26 2.326 . S
O35 C31 1.260 . S
C36 O27 1.240 . S
C36 O28 1.252 . S
O37 In26 2.294 . S
O37 C30 1.240 . S
O38 In26 2.326 . S
O38 C30 1.252 . S
In39 O40 2.294 . S
In39 O41 2.326 . S
In39 O45 2.266 . S
In39 O46 2.326 . S
In39 O47 2.266 . S
In39 O48 2.326 . S
In39 O50 2.294 . S
In39 O51 2.326 . S
O40 In39 2.294 . S
O40 C49 1.240 . S
O41 In39 2.326 . S
O41 C49 1.252 . S
C42 O45 1.252 . S
C42 O46 1.260 . S
C43 O50 1.240 . S
C43 O51 1.252 . S
C44 O47 1.252 . S
C44 O48 1.260 . S
O45 In39 2.266 . S
O45 C42 1.252 . S
O46 In39 2.326 . S
O46 C42 1.260 . S
O47 In39 2.266 . S
O47 C44 1.252 . S
O48 In39 2.326 . S
O48 C44 1.260 . S
C49 O40 1.240 . S
C49 O41 1.252 . S
O50 In39 2.294 . S
O50 C43 1.240 . S
O51 In39 2.326 . S
O51 C43 1.252 . S
In52 O53 2.294 . S
In52 O54 2.326 . S
In52 O58 2.266 . S
In52 O59 2.326 . S
In52 O60 2.266 . S
In52 O61 2.326 . S
In52 O63 2.294 . S
In52 O64 2.326 . S
O53 In52 2.294 . S
O53 C62 1.240 . S
O54 In52 2.326 . S
O54 C62 1.252 . S
C55 O58 1.252 . S
C55 O59 1.260 . S
C56 O63 1.240 . S
C56 O64 1.252 . S
C57 O60 1.252 . S
C57 O61 1.260 . S
O58 In52 2.266 . S
O58 C55 1.252 . S
O59 In52 2.326 . S
O59 C55 1.260 . S
O60 In52 2.266 . S
O60 C57 1.252 . S
O61 In52 2.326 . S
O61 C57 1.260 . S
C62 O53 1.240 . S
C62 O54 1.252 . S
O63 In52 2.294 . S
O63 C56 1.240 . S
O64 In52 2.326 . S
O64 C56 1.252 . S
In65 O66 2.294 . S
In65 O67 2.326 . S
In65 O71 2.266 . S
In65 O72 2.326 . S
In65 O73 2.266 . S
In65 O74 2.326 . S
In65 O76 2.294 . S
In65 O77 2.326 . S
O66 In65 2.294 . S
O66 C75 1.240 . S
O67 In65 2.326 . S
O67 C75 1.252 . S
C68 O71 1.252 . S
C68 O72 1.260 . S
C69 O76 1.240 . S
C69 O77 1.252 . S
C70 O73 1.252 . S
C70 O74 1.260 . S
O71 In65 2.266 . S
O71 C68 1.252 . S
O72 In65 2.326 . S
O72 C68 1.260 . S
O73 In65 2.266 . S
O73 C70 1.252 . S
O74 In65 2.326 . S
O74 C70 1.260 . S
C75 O66 1.240 . S
C75 O67 1.252 . S
O76 In65 2.294 . S
O76 C69 1.240 . S
O77 In65 2.326 . S
O77 C69 1.252 . S
In78 O79 2.294 . S
In78 O80 2.326 . S
In78 O84 2.266 . S
In78 O85 2.326 . S
In78 O86 2.266 . S
In78 O87 2.326 . S
In78 O89 2.294 . S
In78 O90 2.326 . S
O79 In78 2.294 . S
O79 C88 1.240 . S
O80 In78 2.326 . S
O80 C88 1.252 . S
C81 O84 1.252 . S
C81 O85 1.260 . S
C82 O89 1.240 . S
C82 O90 1.252 . S
C83 O86 1.252 . S
C83 O87 1.260 . S
O84 In78 2.266 . S
O84 C81 1.252 . S
O85 In78 2.326 . S
O85 C81 1.260 . S
O86 In78 2.266 . S
O86 C83 1.252 . S
O87 In78 2.326 . S
O87 C83 1.260 . S
C88 O79 1.240 . S
C88 O80 1.252 . S
O89 In78 2.294 . S
O89 C82 1.240 . S
O90 In78 2.326 . S
O90 C82 1.252 . S
In91 O92 2.294 . S
In91 O93 2.326 . S
In91 O97 2.266 . S
In91 O98 2.326 . S
In91 O99 2.266 . S
In91 O100 2.326 . S
In91 O102 2.294 . S
In91 O103 2.326 . S
O92 In91 2.294 . S
O92 C101 1.240 . S
O93 In91 2.326 . S
O93 C101 1.252 . S
C94 O97 1.252 . S
C94 O98 1.260 . S
C95 O102 1.240 . S
C95 O103 1.252 . S
C96 O99 1.252 . S
C96 O100 1.260 . S
O97 In91 2.266 . S
O97 C94 1.252 . S
O98 In91 2.326 . S
O98 C94 1.260 . S
O99 In91 2.266 . S
O99 C96 1.252 . S
O100 In91 2.326 . S
O100 C96 1.260 . S
C101 O92 1.240 . S
C101 O93 1.252 . S
O102 In91 2.294 . S
O102 C95 1.240 . S
O103 In91 2.326 . S
O103 C95 1.252 . S
In104 O105 2.294 . S
In104 O106 2.326 . S
In104 O110 2.266 . S
In104 O111 2.326 . S
In104 O112 2.266 . S
In104 O113 2.326 . S
In104 O115 2.294 . S
In104 O116 2.326 . S
O105 In104 2.294 . S
O105 C114 1.240 . S
O106 In104 2.326 . S
O106 C114 1.252 . S
C107 O110 1.252 . S
C107 O111 1.260 . S
C108 O115 1.240 . S
C108 O116 1.252 . S
C109 O112 1.252 . S
C109 O113 1.260 . S
O110 In104 2.266 . S
O110 C107 1.252 . S
O111 In104 2.326 . S
O111 C107 1.260 . S
O112 In104 2.266 . S
O112 C109 1.252 . S
O113 In104 2.326 . S
O113 C109 1.260 . S
C114 O105 1.240 . S
C114 O106 1.252 . S
O115 In104 2.294 . S
O115 C108 1.240 . S
O116 In104 2.326 . S
O116 C108 1.252 . S
In117 O118 2.294 . S
In117 O119 2.326 . S
In117 O123 2.266 . S
In117 O124 2.326 . S
In117 O125 2.266 . S
In117 O126 2.326 . S
In117 O128 2.294 . S
In117 O129 2.326 . S
O118 In117 2.294 . S
O118 C127 1.240 . S
O119 In117 2.326 . S
O119 C127 1.252 . S
C120 O123 1.252 . S
C120 O124 1.260 . S
C121 O128 1.240 . S
C121 O129 1.252 . S
C122 O125 1.252 . S
C122 O126 1.260 . S
O123 In117 2.266 . S
O123 C120 1.252 . S
O124 In117 2.326 . S
O124 C120 1.260 . S
O125 In117 2.266 . S
O125 C122 1.252 . S
O126 In117 2.326 . S
O126 C122 1.260 . S
C127 O118 1.240 . S
C127 O119 1.252 . S
O128 In117 2.294 . S
O128 C121 1.240 . S
O129 In117 2.326 . S
O129 C121 1.252 . S
In130 O131 2.294 . S
In130 O132 2.326 . S
In130 O136 2.266 . S
In130 O137 2.326 . S
In130 O138 2.266 . S
In130 O139 2.326 . S
In130 O141 2.294 . S
In130 O142 2.326 . S
O131 In130 2.294 . S
O131 C140 1.240 . S
O132 In130 2.326 . S
O132 C140 1.252 . S
C133 O136 1.252 . S
C133 O137 1.260 . S
C134 O141 1.240 . S
C134 O142 1.252 . S
C135 O138 1.252 . S
C135 O139 1.260 . S
O136 In130 2.266 . S
O136 C133 1.252 . S
O137 In130 2.326 . S
O137 C133 1.260 . S
O138 In130 2.266 . S
O138 C135 1.252 . S
O139 In130 2.326 . S
O139 C135 1.260 . S
C140 O131 1.240 . S
C140 O132 1.252 . S
O141 In130 2.294 . S
O141 C134 1.240 . S
O142 In130 2.326 . S
O142 C134 1.252 . S
In143 O144 2.294 . S
In143 O145 2.326 . S
In143 O149 2.266 . S
In143 O150 2.326 . S
In143 O151 2.266 . S
In143 O152 2.326 . S
In143 O154 2.294 . S
In143 O155 2.326 . S
O144 In143 2.294 . S
O144 C153 1.240 . S
O145 In143 2.326 . S
O145 C153 1.252 . S
C146 O149 1.252 . S
C146 O150 1.260 . S
C147 O154 1.240 . S
C147 O155 1.252 . S
C148 O151 1.252 . S
C148 O152 1.260 . S
O149 In143 2.266 . S
O149 C146 1.252 . S
O150 In143 2.326 . S
O150 C146 1.260 . S
O151 In143 2.266 . S
O151 C148 1.252 . S
O152 In143 2.326 . S
O152 C148 1.260 . S
C153 O144 1.240 . S
C153 O145 1.252 . S
O154 In143 2.294 . S
O154 C147 1.240 . S
O155 In143 2.326 . S
O155 C147 1.252 . S
In156 O157 2.294 . S
In156 O158 2.326 . S
In156 O162 2.266 . S
In156 O163 2.326 . S
In156 O164 2.266 . S
In156 O165 2.326 . S
In156 O167 2.294 . S
In156 O168 2.326 . S
O157 In156 2.294 . S
O157 C166 1.240 . S
O158 In156 2.326 . S
O158 C166 1.252 . S
C159 O162 1.252 . S
C159 O163 1.260 . S
C160 O167 1.240 . S
C160 O168 1.252 . S
C161 O164 1.252 . S
C161 O165 1.260 . S
O162 In156 2.266 . S
O162 C159 1.252 . S
O163 In156 2.326 . S
O163 C159 1.260 . S
O164 In156 2.266 . S
O164 C161 1.252 . S
O165 In156 2.326 . S
O165 C161 1.260 . S
C166 O157 1.240 . S
C166 O158 1.252 . S
O167 In156 2.294 . S
O167 C160 1.240 . S
O168 In156 2.326 . S
O168 C160 1.252 . S
In169 O170 2.294 . S
In169 O171 2.326 . S
In169 O175 2.266 . S
In169 O176 2.326 . S
In169 O177 2.266 . S
In169 O178 2.326 . S
In169 O180 2.294 . S
In169 O181 2.326 . S
O170 In169 2.294 . S
O170 C179 1.240 . S
O171 In169 2.326 . S
O171 C179 1.252 . S
C172 O175 1.252 . S
C172 O176 1.260 . S
C173 O180 1.240 . S
C173 O181 1.252 . S
C174 O177 1.252 . S
C174 O178 1.260 . S
O175 In169 2.266 . S
O175 C172 1.252 . S
O176 In169 2.326 . S
O176 C172 1.260 . S
O177 In169 2.266 . S
O177 C174 1.252 . S
O178 In169 2.326 . S
O178 C174 1.260 . S
C179 O170 1.240 . S
C179 O171 1.252 . S
O180 In169 2.294 . S
O180 C173 1.240 . S
O181 In169 2.326 . S
O181 C173 1.252 . S
In182 O183 2.294 . S
In182 O184 2.326 . S
In182 O188 2.266 . S
In182 O189 2.326 . S
In182 O190 2.266 . S
In182 O191 2.326 . S
In182 O193 2.294 . S
In182 O194 2.326 . S
O183 In182 2.294 . S
O183 C192 1.240 . S
O184 In182 2.326 . S
O184 C192 1.252 . S
C185 O188 1.252 . S
C185 O189 1.260 . S
C186 O193 1.240 . S
C186 O194 1.252 . S
C187 O190 1.252 . S
C187 O191 1.260 . S
O188 In182 2.266 . S
O188 C185 1.252 . S
O189 In182 2.326 . S
O189 C185 1.260 . S
O190 In182 2.266 . S
O190 C187 1.252 . S
O191 In182 2.326 . S
O191 C187 1.260 . S
C192 O183 1.240 . S
C192 O184 1.252 . S
O193 In182 2.294 . S
O193 C186 1.240 . S
O194 In182 2.326 . S
O194 C186 1.252 . S
In195 O196 2.294 . S
In195 O197 2.326 . S
In195 O201 2.266 . S
In195 O202 2.326 . S
In195 O203 2.266 . S
In195 O204 2.326 . S
In195 O206 2.294 . S
In195 O207 2.326 . S
O196 In195 2.294 . S
O196 C205 1.240 . S
O197 In195 2.326 . S
O197 C205 1.252 . S
C198 O201 1.252 . S
C198 O202 1.260 . S
C199 O206 1.240 . S
C199 O207 1.252 . S
C200 O203 1.252 . S
C200 O204 1.260 . S
O201 In195 2.266 . S
O201 C198 1.252 . S
O202 In195 2.326 . S
O202 C198 1.260 . S
O203 In195 2.266 . S
O203 C200 1.252 . S
O204 In195 2.326 . S
O204 C200 1.260 . S
C205 O196 1.240 . S
C205 O197 1.252 . S
O206 In195 2.294 . S
O206 C199 1.240 . S
O207 In195 2.326 . S
O207 C199 1.252 . S
In208 O209 2.294 . S
In208 O210 2.326 . S
In208 O214 2.266 . S
In208 O215 2.326 . S
In208 O216 2.266 . S
In208 O217 2.326 . S
In208 O219 2.294 . S
In208 O220 2.326 . S
O209 In208 2.294 . S
O209 C218 1.240 . S
O210 In208 2.326 . S
O210 C218 1.252 . S
C211 O214 1.252 . S
C211 O215 1.260 . S
C212 O219 1.240 . S
C212 O220 1.252 . S
C213 O216 1.252 . S
C213 O217 1.260 . S
O214 In208 2.266 . S
O214 C211 1.252 . S
O215 In208 2.326 . S
O215 C211 1.260 . S
O216 In208 2.266 . S
O216 C213 1.252 . S
O217 In208 2.326 . S
O217 C213 1.260 . S
C218 O209 1.240 . S
C218 O210 1.252 . S
O219 In208 2.294 . S
O219 C212 1.240 . S
O220 In208 2.326 . S
O220 C212 1.252 . S
In221 O222 2.294 . S
In221 O223 2.326 . S
In221 O227 2.266 . S
In221 O228 2.326 . S
In221 O229 2.266 . S
In221 O230 2.326 . S
In221 O232 2.294 . S
In221 O233 2.326 . S
O222 In221 2.294 . S
O222 C231 1.240 . S
O223 In221 2.326 . S
O223 C231 1.252 . S
C224 O227 1.252 . S
C224 O228 1.260 . S
C225 O232 1.240 . S
C225 O233 1.252 . S
C226 O229 1.252 . S
C226 O230 1.260 . S
O227 In221 2.266 . S
O227 C224 1.252 . S
O228 In221 2.326 . S
O228 C224 1.260 . S
O229 In221 2.266 . S
O229 C226 1.252 . S
O230 In221 2.326 . S
O230 C226 1.260 . S
C231 O222 1.240 . S
C231 O223 1.252 . S
O232 In221 2.294 . S
O232 C225 1.240 . S
O233 In221 2.326 . S
O233 C225 1.252 . S
In234 O235 2.294 . S
In234 O236 2.326 . S
In234 O240 2.266 . S
In234 O241 2.326 . S
In234 O242 2.266 . S
In234 O243 2.326 . S
In234 O245 2.294 . S
In234 O246 2.326 . S
O235 In234 2.294 . S
O235 C244 1.240 . S
O236 In234 2.326 . S
O236 C244 1.252 . S
C237 O240 1.252 . S
C237 O241 1.260 . S
C238 O245 1.240 . S
C238 O246 1.252 . S
C239 O242 1.252 . S
C239 O243 1.260 . S
O240 In234 2.266 . S
O240 C237 1.252 . S
O241 In234 2.326 . S
O241 C237 1.260 . S
O242 In234 2.266 . S
O242 C239 1.252 . S
O243 In234 2.326 . S
O243 C239 1.260 . S
C244 O235 1.240 . S
C244 O236 1.252 . S
O245 In234 2.294 . S
O245 C238 1.240 . S
O246 In234 2.326 . S
O246 C238 1.252 . S
In247 O248 2.294 . S
In247 O249 2.326 . S
In247 O253 2.266 . S
In247 O254 2.326 . S
In247 O255 2.266 . S
In247 O256 2.326 . S
In247 O258 2.294 . S
In247 O259 2.326 . S
O248 In247 2.294 . S
O248 C257 1.240 . S
O249 In247 2.326 . S
O249 C257 1.252 . S
C250 O253 1.252 . S
C250 O254 1.260 . S
C251 O258 1.240 . S
C251 O259 1.252 . S
C252 O255 1.252 . S
C252 O256 1.260 . S
O253 In247 2.266 . S
O253 C250 1.252 . S
O254 In247 2.326 . S
O254 C250 1.260 . S
O255 In247 2.266 . S
O255 C252 1.252 . S
O256 In247 2.326 . S
O256 C252 1.260 . S
C257 O248 1.240 . S
C257 O249 1.252 . S
O258 In247 2.294 . S
O258 C251 1.240 . S
O259 In247 2.326 . S
O259 C251 1.252 . S
In260 O261 2.294 . S
In260 O262 2.326 . S
In260 O266 2.266 . S
In260 O267 2.326 . S
In260 O268 2.266 . S
In260 O269 2.326 . S
In260 O271 2.294 . S
In260 O272 2.326 . S
O261 In260 2.294 . S
O261 C270 1.240 . S
O262 In260 2.326 . S
O262 C270 1.252 . S
C263 O266 1.252 . S
C263 O267 1.260 . S
C264 O271 1.240 . S
C264 O272 1.252 . S
C265 O268 1.252 . S
C265 O269 1.260 . S
O266 In260 2.266 . S
O266 C263 1.252 . S
O267 In260 2.326 . S
O267 C263 1.260 . S
O268 In260 2.266 . S
O268 C265 1.252 . S
O269 In260 2.326 . S
O269 C265 1.260 . S
C270 O261 1.240 . S
C270 O262 1.252 . S
O271 In260 2.294 . S
O271 C264 1.240 . S
O272 In260 2.326 . S
O272 C264 1.252 . S
In273 O274 2.294 . S
In273 O275 2.326 . S
In273 O279 2.266 . S
In273 O280 2.326 . S
In273 O281 2.266 . S
In273 O282 2.326 . S
In273 O284 2.294 . S
In273 O285 2.326 . S
O274 In273 2.294 . S
O274 C283 1.240 . S
O275 In273 2.326 . S
O275 C283 1.252 . S
C276 O279 1.252 . S
C276 O280 1.260 . S
C277 O284 1.240 . S
C277 O285 1.252 . S
C278 O281 1.252 . S
C278 O282 1.260 . S
O279 In273 2.266 . S
O279 C276 1.252 . S
O280 In273 2.326 . S
O280 C276 1.260 . S
O281 In273 2.266 . S
O281 C278 1.252 . S
O282 In273 2.326 . S
O282 C278 1.260 . S
C283 O274 1.240 . S
C283 O275 1.252 . S
O284 In273 2.294 . S
O284 C277 1.240 . S
O285 In273 2.326 . S
O285 C277 1.252 . S
In286 O287 2.294 . S
In286 O288 2.326 . S
In286 O292 2.266 . S
In286 O293 2.326 . S
In286 O294 2.266 . S
In286 O295 2.326 . S
In286 O297 2.294 . S
In286 O298 2.326 . S
O287 In286 2.294 . S
O287 C296 1.240 . S
O288 In286 2.326 . S
O288 C296 1.252 . S
C289 O292 1.252 . S
C289 O293 1.260 . S
C290 O297 1.240 . S
C290 O298 1.252 . S
C291 O294 1.252 . S
C291 O295 1.260 . S
O292 In286 2.266 . S
O292 C289 1.252 . S
O293 In286 2.326 . S
O293 C289 1.260 . S
O294 In286 2.266 . S
O294 C291 1.252 . S
O295 In286 2.326 . S
O295 C291 1.260 . S
C296 O287 1.240 . S
C296 O288 1.252 . S
O297 In286 2.294 . S
O297 C290 1.240 . S
O298 In286 2.326 . S
O298 C290 1.252 . S
In299 O300 2.294 . S
In299 O301 2.326 . S
In299 O305 2.266 . S
In299 O306 2.326 . S
In299 O307 2.266 . S
In299 O308 2.326 . S
In299 O310 2.294 . S
In299 O311 2.326 . S
O300 In299 2.294 . S
O300 C309 1.240 . S
O301 In299 2.326 . S
O301 C309 1.252 . S
C302 O305 1.252 . S
C302 O306 1.260 . S
C303 O310 1.240 . S
C303 O311 1.252 . S
C304 O307 1.252 . S
C304 O308 1.260 . S
O305 In299 2.266 . S
O305 C302 1.252 . S
O306 In299 2.326 . S
O306 C302 1.260 . S
O307 In299 2.266 . S
O307 C304 1.252 . S
O308 In299 2.326 . S
O308 C304 1.260 . S
C309 O300 1.240 . S
C309 O301 1.252 . S
O310 In299 2.294 . S
O310 C303 1.240 . S
O311 In299 2.326 . S
O311 C303 1.252 . S
C312 C313 1.349 . S
C312 C314 1.327 . S
C312 H337 0.950 . S
C313 C312 1.349 . S
C313 C329 1.349 . S
C314 C312 1.327 . S
C314 C333 1.429 . S
C314 H338 0.950 . S
C315 C332 1.574 . S
C315 C334 1.368 . S
C315 H339 0.949 . S
H316 C320 0.949 . S
C317 C318 1.349 . S
C317 C319 1.327 . S
C317 H340 0.950 . S
C318 C317 1.349 . S
C318 C330 1.349 . S
C319 C317 1.327 . S
C319 C335 1.429 . S
C319 H341 0.950 . S
C320 H316 0.949 . S
C320 C328 1.574 . S
C320 C336 1.368 . S
H321 C329 0.950 . S
H322 C327 0.950 . S
H323 C328 0.949 . S
H324 C330 0.950 . S
H325 C331 0.950 . S
H326 C332 0.949 . S
C327 H322 0.950 . S
C327 C329 1.327 . S
C327 C333 1.429 . S
C328 C320 1.574 . S
C328 H323 0.949 . S
C328 C334 1.368 . S
C329 C313 1.349 . S
C329 H321 0.950 . S
C329 C327 1.327 . S
C330 C318 1.349 . S
C330 H324 0.950 . S
C330 C331 1.327 . S
C331 H325 0.950 . S
C331 C330 1.327 . S
C331 C335 1.429 . S
C332 C315 1.574 . S
C332 H326 0.949 . S
C332 C336 1.368 . S
C333 C314 1.429 . S
C333 C327 1.429 . S
C333 C334 1.523 . S
C334 C315 1.368 . S
C334 C328 1.368 . S
C334 C333 1.523 . S
C335 C319 1.429 . S
C335 C331 1.429 . S
C335 C336 1.523 . S
C336 C320 1.368 . S
C336 C332 1.368 . S
C336 C335 1.523 . S
H337 C312 0.950 . S
H338 C314 0.950 . S
H339 C315 0.949 . S
H340 C317 0.950 . S
H341 C319 0.950 . S
C342 C343 1.349 . S
C342 C344 1.327 . S
C342 H367 0.950 . S
C343 C342 1.349 . S
C343 C359 1.349 . S
C344 C342 1.327 . S
C344 C363 1.429 . S
C344 H368 0.950 . S
C345 C362 1.574 1_655 S
C345 C364 1.368 . S
C345 H369 0.949 . S
H346 C350 0.949 . S
C347 C348 1.349 . S
C347 C349 1.327 . S
C347 H370 0.950 . S
C348 C347 1.349 . S
C348 C360 1.349 . S
C349 C347 1.327 . S
C349 C365 1.429 . S
C349 H371 0.950 . S
C350 H346 0.949 . S
C350 C358 1.574 1_455 S
C350 C366 1.368 . S
H351 C359 0.950 . S
H352 C357 0.950 . S
H353 C358 0.949 . S
H354 C360 0.950 . S
H355 C361 0.950 . S
H356 C362 0.949 . S
C357 H352 0.950 . S
C357 C359 1.327 . S
C357 C363 1.429 . S
C358 C350 1.574 1_655 S
C358 H353 0.949 . S
C358 C364 1.368 . S
C359 C343 1.349 . S
C359 H351 0.950 . S
C359 C357 1.327 . S
C360 C348 1.349 . S
C360 H354 0.950 . S
C360 C361 1.327 . S
C361 H355 0.950 . S
C361 C360 1.327 . S
C361 C365 1.429 . S
C362 C345 1.574 1_455 S
C362 H356 0.949 . S
C362 C366 1.368 . S
C363 C344 1.429 . S
C363 C357 1.429 . S
C363 C364 1.523 . S
C364 C345 1.368 . S
C364 C358 1.368 . S
C364 C363 1.523 . S
C365 C349 1.429 . S
C365 C361 1.429 . S
C365 C366 1.523 . S
C366 C350 1.368 . S
C366 C362 1.368 . S
C366 C365 1.523 . S
H367 C342 0.950 . S
H368 C344 0.950 . S
H369 C345 0.949 . S
H370 C347 0.950 . S
H371 C349 0.950 . S
C372 C373 1.349 . S
C372 C374 1.327 . S
C372 H397 0.950 . S
C373 C372 1.349 . S
C373 C389 1.349 . S
C374 C372 1.327 . S
C374 C393 1.429 . S
C374 H398 0.950 . S
C375 C392 1.574 . S
C375 C394 1.368 . S
C375 H399 0.949 . S
H376 C380 0.949 . S
C377 C378 1.349 . S
C377 C379 1.327 . S
C377 H400 0.950 . S
C378 C377 1.349 . S
C378 C390 1.349 . S
C379 C377 1.327 . S
C379 C395 1.429 . S
C379 H401 0.950 . S
C380 H376 0.949 . S
C380 C388 1.574 . S
C380 C396 1.368 . S
H381 C389 0.950 . S
H382 C387 0.950 . S
H383 C388 0.949 . S
H384 C390 0.950 . S
H385 C391 0.950 . S
H386 C392 0.949 . S
C387 H382 0.950 . S
C387 C389 1.327 . S
C387 C393 1.429 . S
C388 C380 1.574 . S
C388 H383 0.949 . S
C388 C394 1.368 . S
C389 C373 1.349 . S
C389 H381 0.950 . S
C389 C387 1.327 . S
C390 C378 1.349 . S
C390 H384 0.950 . S
C390 C391 1.327 . S
C391 H385 0.950 . S
C391 C390 1.327 . S
C391 C395 1.429 . S
C392 C375 1.574 . S
C392 H386 0.949 . S
C392 C396 1.368 . S
C393 C374 1.429 . S
C393 C387 1.429 . S
C393 C394 1.523 . S
C394 C375 1.368 . S
C394 C388 1.368 . S
C394 C393 1.523 . S
C395 C379 1.429 . S
C395 C391 1.429 . S
C395 C396 1.523 . S
C396 C380 1.368 . S
C396 C392 1.368 . S
C396 C395 1.523 . S
H397 C372 0.950 . S
H398 C374 0.950 . S
H399 C375 0.949 . S
H400 C377 0.950 . S
H401 C379 0.950 . S
C402 C403 1.349 . S
C402 C404 1.327 . S
C402 H427 0.950 . S
C403 C402 1.349 . S
C403 C419 1.349 . S
C404 C402 1.327 . S
C404 C423 1.429 . S
C404 H428 0.950 . S
C405 C422 1.574 1_455 S
C405 C424 1.368 . S
C405 H429 0.949 . S
H406 C410 0.949 . S
C407 C408 1.349 . S
C407 C409 1.327 . S
C407 H430 0.950 . S
C408 C407 1.349 . S
C408 C420 1.349 . S
C409 C407 1.327 . S
C409 C425 1.429 . S
C409 H431 0.950 . S
C410 H406 0.949 . S
C410 C418 1.574 1_655 S
C410 C426 1.368 . S
H411 C419 0.950 . S
H412 C417 0.950 . S
H413 C418 0.949 . S
H414 C420 0.950 . S
H415 C421 0.950 . S
H416 C422 0.949 . S
C417 H412 0.950 . S
C417 C419 1.327 . S
C417 C423 1.429 . S
C418 C410 1.574 1_455 S
C418 H413 0.949 . S
C418 C424 1.368 . S
C419 C403 1.349 . S
C419 H411 0.950 . S
C419 C417 1.327 . S
C420 C408 1.349 . S
C420 H414 0.950 . S
C420 C421 1.327 . S
C421 H415 0.950 . S
C421 C420 1.327 . S
C421 C425 1.429 . S
C422 C405 1.574 1_655 S
C422 H416 0.949 . S
C422 C426 1.368 . S
C423 C404 1.429 . S
C423 C417 1.429 . S
C423 C424 1.523 . S
C424 C405 1.368 . S
C424 C418 1.368 . S
C424 C423 1.523 . S
C425 C409 1.429 . S
C425 C421 1.429 . S
C425 C426 1.523 . S
C426 C410 1.368 . S
C426 C422 1.368 . S
C426 C425 1.523 . S
H427 C402 0.950 . S
H428 C404 0.950 . S
H429 C405 0.949 . S
H430 C407 0.950 . S
H431 C409 0.950 . S
C432 C433 1.349 . S
C432 C434 1.327 . S
C432 H457 0.950 . S
C433 C432 1.349 . S
C433 C449 1.349 . S
C434 C432 1.327 . S
C434 C453 1.429 . S
C434 H458 0.950 . S
C435 C452 1.574 . S
C435 C454 1.368 . S
C435 H459 0.949 . S
H436 C440 0.949 . S
C437 C438 1.349 . S
C437 C439 1.327 . S
C437 H460 0.950 . S
C438 C437 1.349 . S
C438 C450 1.349 . S
C439 C437 1.327 . S
C439 C455 1.429 . S
C439 H461 0.950 . S
C440 H436 0.949 . S
C440 C448 1.574 . S
C440 C456 1.368 . S
H441 C449 0.950 . S
H442 C447 0.950 . S
H443 C448 0.949 . S
H444 C450 0.950 . S
H445 C451 0.950 . S
H446 C452 0.949 . S
C447 H442 0.950 . S
C447 C449 1.327 . S
C447 C453 1.429 . S
C448 C440 1.574 . S
C448 H443 0.949 . S
C448 C454 1.368 . S
C449 C433 1.349 . S
C449 H441 0.950 . S
C449 C447 1.327 . S
C450 C438 1.349 . S
C450 H444 0.950 . S
C450 C451 1.327 . S
C451 H445 0.950 . S
C451 C450 1.327 . S
C451 C455 1.429 . S
C452 C435 1.574 . S
C452 H446 0.949 . S
C452 C456 1.368 . S
C453 C434 1.429 . S
C453 C447 1.429 . S
C453 C454 1.523 . S
C454 C435 1.368 . S
C454 C448 1.368 . S
C454 C453 1.523 . S
C455 C439 1.429 . S
C455 C451 1.429 . S
C455 C456 1.523 . S
C456 C440 1.368 . S
C456 C452 1.368 . S
C456 C455 1.523 . S
H457 C432 0.950 . S
H458 C434 0.950 . S
H459 C435 0.949 . S
H460 C437 0.950 . S
H461 C439 0.950 . S
C462 C463 1.349 . S
C462 C464 1.327 . S
C462 H487 0.950 . S
C463 C462 1.349 . S
C463 C479 1.349 . S
C464 C462 1.327 . S
C464 C483 1.429 . S
C464 H488 0.950 . S
C465 C482 1.574 1_655 S
C465 C484 1.368 . S
C465 H489 0.949 . S
H466 C470 0.949 . S
C467 C468 1.349 . S
C467 C469 1.327 . S
C467 H490 0.950 . S
C468 C467 1.349 . S
C468 C480 1.349 . S
C469 C467 1.327 . S
C469 C485 1.429 . S
C469 H491 0.950 . S
C470 H466 0.949 . S
C470 C478 1.574 1_455 S
C470 C486 1.368 . S
H471 C479 0.950 . S
H472 C477 0.950 . S
H473 C478 0.949 . S
H474 C480 0.950 . S
H475 C481 0.950 . S
H476 C482 0.949 . S
C477 H472 0.950 . S
C477 C479 1.327 . S
C477 C483 1.429 . S
C478 C470 1.574 1_655 S
C478 H473 0.949 . S
C478 C484 1.368 . S
C479 C463 1.349 . S
C479 H471 0.950 . S
C479 C477 1.327 . S
C480 C468 1.349 . S
C480 H474 0.950 . S
C480 C481 1.327 . S
C481 H475 0.950 . S
C481 C480 1.327 . S
C481 C485 1.429 . S
C482 C465 1.574 1_455 S
C482 H476 0.949 . S
C482 C486 1.368 . S
C483 C464 1.429 . S
C483 C477 1.429 . S
C483 C484 1.523 . S
C484 C465 1.368 . S
C484 C478 1.368 . S
C484 C483 1.523 . S
C485 C469 1.429 . S
C485 C481 1.429 . S
C485 C486 1.523 . S
C486 C470 1.368 . S
C486 C482 1.368 . S
C486 C485 1.523 . S
H487 C462 0.950 . S
H488 C464 0.950 . S
H489 C465 0.949 . S
H490 C467 0.950 . S
H491 C469 0.950 . S
C492 C493 1.349 . S
C492 C494 1.327 . S
C492 H517 0.950 . S
C493 C492 1.349 . S
C493 C509 1.349 . S
C494 C492 1.327 . S
C494 C513 1.429 . S
C494 H518 0.950 . S
C495 C512 1.574 . S
C495 C514 1.368 . S
C495 H519 0.949 . S
H496 C500 0.949 . S
C497 C498 1.349 . S
C497 C499 1.327 . S
C497 H520 0.950 . S
C498 C497 1.349 . S
C498 C510 1.349 . S
C499 C497 1.327 . S
C499 C515 1.429 . S
C499 H521 0.950 . S
C500 H496 0.949 . S
C500 C508 1.574 . S
C500 C516 1.368 . S
H501 C509 0.950 . S
H502 C507 0.950 . S
H503 C508 0.949 . S
H504 C510 0.950 . S
H505 C511 0.950 . S
H506 C512 0.949 . S
C507 H502 0.950 . S
C507 C509 1.327 . S
C507 C513 1.429 . S
C508 C500 1.574 . S
C508 H503 0.949 . S
C508 C514 1.368 . S
C509 C493 1.349 . S
C509 H501 0.950 . S
C509 C507 1.327 . S
C510 C498 1.349 . S
C510 H504 0.950 . S
C510 C511 1.327 . S
C511 H505 0.950 . S
C511 C510 1.327 . S
C511 C515 1.429 . S
C512 C495 1.574 . S
C512 H506 0.949 . S
C512 C516 1.368 . S
C513 C494 1.429 . S
C513 C507 1.429 . S
C513 C514 1.523 . S
C514 C495 1.368 . S
C514 C508 1.368 . S
C514 C513 1.523 . S
C515 C499 1.429 . S
C515 C511 1.429 . S
C515 C516 1.523 . S
C516 C500 1.368 . S
C516 C512 1.368 . S
C516 C515 1.523 . S
H517 C492 0.950 . S
H518 C494 0.950 . S
H519 C495 0.949 . S
H520 C497 0.950 . S
H521 C499 0.950 . S
C522 C523 1.349 . S
C522 C524 1.327 . S
C522 H547 0.950 . S
C523 C522 1.349 . S
C523 C539 1.349 . S
C524 C522 1.327 . S
C524 C543 1.429 . S
C524 H548 0.950 . S
C525 C542 1.574 1_655 S
C525 C544 1.368 . S
C525 H549 0.949 . S
H526 C530 0.949 . S
C527 C528 1.349 . S
C527 C529 1.327 . S
C527 H550 0.950 . S
C528 C527 1.349 . S
C528 C540 1.349 . S
C529 C527 1.327 . S
C529 C545 1.429 . S
C529 H551 0.950 . S
C530 H526 0.949 . S
C530 C538 1.574 1_455 S
C530 C546 1.368 . S
H531 C539 0.950 . S
H532 C537 0.950 . S
H533 C538 0.949 . S
H534 C540 0.950 . S
H535 C541 0.950 . S
H536 C542 0.949 . S
C537 H532 0.950 . S
C537 C539 1.327 . S
C537 C543 1.429 . S
C538 C530 1.574 1_655 S
C538 H533 0.949 . S
C538 C544 1.368 . S
C539 C523 1.349 . S
C539 H531 0.950 . S
C539 C537 1.327 . S
C540 C528 1.349 . S
C540 H534 0.950 . S
C540 C541 1.327 . S
C541 H535 0.950 . S
C541 C540 1.327 . S
C541 C545 1.429 . S
C542 C525 1.574 1_455 S
C542 H536 0.949 . S
C542 C546 1.368 . S
C543 C524 1.429 . S
C543 C537 1.429 . S
C543 C544 1.523 . S
C544 C525 1.368 . S
C544 C538 1.368 . S
C544 C543 1.523 . S
C545 C529 1.429 . S
C545 C541 1.429 . S
C545 C546 1.523 . S
C546 C530 1.368 . S
C546 C542 1.368 . S
C546 C545 1.523 . S
H547 C522 0.950 . S
H548 C524 0.950 . S
H549 C525 0.949 . S
H550 C527 0.950 . S
H551 C529 0.950 . S
C552 C553 1.349 . S
C552 C554 1.327 . S
C552 H577 0.950 . S
C553 C552 1.349 . S
C553 C569 1.349 . S
C554 C552 1.327 . S
C554 C573 1.429 . S
C554 H578 0.950 . S
C555 C572 1.574 . S
C555 C574 1.368 . S
C555 H579 0.949 . S
H556 C560 0.949 . S
C557 C558 1.349 . S
C557 C559 1.327 . S
C557 H580 0.950 . S
C558 C557 1.349 . S
C558 C570 1.349 . S
C559 C557 1.327 . S
C559 C575 1.429 . S
C559 H581 0.950 . S
C560 H556 0.949 . S
C560 C568 1.574 . S
C560 C576 1.368 . S
H561 C569 0.950 . S
H562 C567 0.950 . S
H563 C568 0.949 . S
H564 C570 0.950 . S
H565 C571 0.950 . S
H566 C572 0.949 . S
C567 H562 0.950 . S
C567 C569 1.327 . S
C567 C573 1.429 . S
C568 C560 1.574 . S
C568 H563 0.949 . S
C568 C574 1.368 . S
C569 C553 1.349 . S
C569 H561 0.950 . S
C569 C567 1.327 . S
C570 C558 1.349 . S
C570 H564 0.950 . S
C570 C571 1.327 . S
C571 H565 0.950 . S
C571 C570 1.327 . S
C571 C575 1.429 . S
C572 C555 1.574 . S
C572 H566 0.949 . S
C572 C576 1.368 . S
C573 C554 1.429 . S
C573 C567 1.429 . S
C573 C574 1.523 . S
C574 C555 1.368 . S
C574 C568 1.368 . S
C574 C573 1.523 . S
C575 C559 1.429 . S
C575 C571 1.429 . S
C575 C576 1.523 . S
C576 C560 1.368 . S
C576 C572 1.368 . S
C576 C575 1.523 . S
H577 C552 0.950 . S
H578 C554 0.950 . S
H579 C555 0.949 . S
H580 C557 0.950 . S
H581 C559 0.950 . S
C582 C583 1.349 . S
C582 C584 1.327 . S
C582 H607 0.950 . S
C583 C582 1.349 . S
C583 C599 1.349 . S
C584 C582 1.327 . S
C584 C603 1.429 . S
C584 H608 0.950 . S
C585 C602 1.574 1_556 S
C585 C604 1.368 . S
C585 H609 0.949 . S
H586 C590 0.949 . S
C587 C588 1.349 . S
C587 C589 1.327 . S
C587 H610 0.950 . S
C588 C587 1.349 . S
C588 C600 1.349 . S
C589 C587 1.327 . S
C589 C605 1.429 . S
C589 H611 0.950 . S
C590 H586 0.949 . S
C590 C598 1.574 1_554 S
C590 C606 1.368 . S
H591 C599 0.950 . S
H592 C597 0.950 . S
H593 C598 0.949 . S
H594 C600 0.950 . S
H595 C601 0.950 . S
H596 C602 0.949 . S
C597 H592 0.950 . S
C597 C599 1.327 . S
C597 C603 1.429 . S
C598 C590 1.574 1_556 S
C598 H593 0.949 . S
C598 C604 1.368 . S
C599 C583 1.349 . S
C599 H591 0.950 . S
C599 C597 1.327 . S
C600 C588 1.349 . S
C600 H594 0.950 . S
C600 C601 1.327 . S
C601 H595 0.950 . S
C601 C600 1.327 . S
C601 C605 1.429 . S
C602 C585 1.574 1_554 S
C602 H596 0.949 . S
C602 C606 1.368 . S
C603 C584 1.429 . S
C603 C597 1.429 . S
C603 C604 1.523 . S
C604 C585 1.368 . S
C604 C598 1.368 . S
C604 C603 1.523 . S
C605 C589 1.429 . S
C605 C601 1.429 . S
C605 C606 1.523 . S
C606 C590 1.368 . S
C606 C602 1.368 . S
C606 C605 1.523 . S
H607 C582 0.950 . S
H608 C584 0.950 . S
H609 C585 0.949 . S
H610 C587 0.950 . S
H611 C589 0.950 . S
C612 C613 1.349 . S
C612 C614 1.327 . S
C612 H637 0.950 . S
C613 C612 1.349 . S
C613 C629 1.349 . S
C614 C612 1.327 . S
C614 C633 1.429 . S
C614 H638 0.950 . S
C615 C632 1.574 . S
C615 C634 1.368 . S
C615 H639 0.949 . S
H616 C620 0.949 . S
C617 C618 1.349 . S
C617 C619 1.327 . S
C617 H640 0.950 . S
C618 C617 1.349 . S
C618 C630 1.349 . S
C619 C617 1.327 . S
C619 C635 1.429 . S
C619 H641 0.950 . S
C620 H616 0.949 . S
C620 C628 1.574 . S
C620 C636 1.368 . S
H621 C629 0.950 . S
H622 C627 0.950 . S
H623 C628 0.949 . S
H624 C630 0.950 . S
H625 C631 0.950 . S
H626 C632 0.949 . S
C627 H622 0.950 . S
C627 C629 1.327 . S
C627 C633 1.429 . S
C628 C620 1.574 . S
C628 H623 0.949 . S
C628 C634 1.368 . S
C629 C613 1.349 . S
C629 H621 0.950 . S
C629 C627 1.327 . S
C630 C618 1.349 . S
C630 H624 0.950 . S
C630 C631 1.327 . S
C631 H625 0.950 . S
C631 C630 1.327 . S
C631 C635 1.429 . S
C632 C615 1.574 . S
C632 H626 0.949 . S
C632 C636 1.368 . S
C633 C614 1.429 . S
C633 C627 1.429 . S
C633 C634 1.523 . S
C634 C615 1.368 . S
C634 C628 1.368 . S
C634 C633 1.523 . S
C635 C619 1.429 . S
C635 C631 1.429 . S
C635 C636 1.523 . S
C636 C620 1.368 . S
C636 C632 1.368 . S
C636 C635 1.523 . S
H637 C612 0.950 . S
H638 C614 0.950 . S
H639 C615 0.949 . S
H640 C617 0.950 . S
H641 C619 0.950 . S
C642 C643 1.349 . S
C642 C644 1.327 . S
C642 H667 0.950 . S
C643 C642 1.349 . S
C643 C659 1.349 . S
C644 C642 1.327 . S
C644 C663 1.429 . S
C644 H668 0.950 . S
C645 C662 1.574 1_554 S
C645 C664 1.368 . S
C645 H669 0.949 . S
H646 C650 0.949 . S
C647 C648 1.349 . S
C647 C649 1.327 . S
C647 H670 0.950 . S
C648 C647 1.349 . S
C648 C660 1.349 . S
C649 C647 1.327 . S
C649 C665 1.429 . S
C649 H671 0.950 . S
C650 H646 0.949 . S
C650 C658 1.574 1_556 S
C650 C666 1.368 . S
H651 C659 0.950 . S
H652 C657 0.950 . S
H653 C658 0.949 . S
H654 C660 0.950 . S
H655 C661 0.950 . S
H656 C662 0.949 . S
C657 H652 0.950 . S
C657 C659 1.327 . S
C657 C663 1.429 . S
C658 C650 1.574 1_554 S
C658 H653 0.949 . S
C658 C664 1.368 . S
C659 C643 1.349 . S
C659 H651 0.950 . S
C659 C657 1.327 . S
C660 C648 1.349 . S
C660 H654 0.950 . S
C660 C661 1.327 . S
C661 H655 0.950 . S
C661 C660 1.327 . S
C661 C665 1.429 . S
C662 C645 1.574 1_556 S
C662 H656 0.949 . S
C662 C666 1.368 . S
C663 C644 1.429 . S
C663 C657 1.429 . S
C663 C664 1.523 . S
C664 C645 1.368 . S
C664 C658 1.368 . S
C664 C663 1.523 . S
C665 C649 1.429 . S
C665 C661 1.429 . S
C665 C666 1.523 . S
C666 C650 1.368 . S
C666 C662 1.368 . S
C666 C665 1.523 . S
H667 C642 0.950 . S
H668 C644 0.950 . S
H669 C645 0.949 . S
H670 C647 0.950 . S
H671 C649 0.950 . S
C672 C673 1.349 . S
C672 C674 1.327 . S
C672 H697 0.950 . S
C673 C672 1.349 . S
C673 C689 1.349 . S
C674 C672 1.327 . S
C674 C693 1.429 . S
C674 H698 0.950 . S
C675 C692 1.574 . S
C675 C694 1.368 . S
C675 H699 0.949 . S
H676 C680 0.949 . S
C677 C678 1.349 . S
C677 C679 1.327 . S
C677 H700 0.950 . S
C678 C677 1.349 . S
C678 C690 1.349 . S
C679 C677 1.327 . S
C679 C695 1.429 . S
C679 H701 0.950 . S
C680 H676 0.949 . S
C680 C688 1.574 . S
C680 C696 1.368 . S
H681 C689 0.950 . S
H682 C687 0.950 . S
H683 C688 0.949 . S
H684 C690 0.950 . S
H685 C691 0.950 . S
H686 C692 0.949 . S
C687 H682 0.950 . S
C687 C689 1.327 . S
C687 C693 1.429 . S
C688 C680 1.574 . S
C688 H683 0.949 . S
C688 C694 1.368 . S
C689 C673 1.349 . S
C689 H681 0.950 . S
C689 C687 1.327 . S
C690 C678 1.349 . S
C690 H684 0.950 . S
C690 C691 1.327 . S
C691 H685 0.950 . S
C691 C690 1.327 . S
C691 C695 1.429 . S
C692 C675 1.574 . S
C692 H686 0.949 . S
C692 C696 1.368 . S
C693 C674 1.429 . S
C693 C687 1.429 . S
C693 C694 1.523 . S
C694 C675 1.368 . S
C694 C688 1.368 . S
C694 C693 1.523 . S
C695 C679 1.429 . S
C695 C691 1.429 . S
C695 C696 1.523 . S
C696 C680 1.368 . S
C696 C692 1.368 . S
C696 C695 1.523 . S
H697 C672 0.950 . S
H698 C674 0.950 . S
H699 C675 0.949 . S
H700 C677 0.950 . S
H701 C679 0.950 . S
C702 C703 1.349 . S
C702 C704 1.327 . S
C702 H727 0.950 . S
C703 C702 1.349 . S
C703 C719 1.349 . S
C704 C702 1.327 . S
C704 C723 1.429 . S
C704 H728 0.950 . S
C705 C722 1.574 1_554 S
C705 C724 1.368 . S
C705 H729 0.949 . S
H706 C710 0.949 . S
C707 C708 1.349 . S
C707 C709 1.327 . S
C707 H730 0.950 . S
C708 C707 1.349 . S
C708 C720 1.349 . S
C709 C707 1.327 . S
C709 C725 1.429 . S
C709 H731 0.950 . S
C710 H706 0.949 . S
C710 C718 1.574 1_556 S
C710 C726 1.368 . S
H711 C719 0.950 . S
H712 C717 0.950 . S
H713 C718 0.949 . S
H714 C720 0.950 . S
H715 C721 0.950 . S
H716 C722 0.949 . S
C717 H712 0.950 . S
C717 C719 1.327 . S
C717 C723 1.429 . S
C718 C710 1.574 1_554 S
C718 H713 0.949 . S
C718 C724 1.368 . S
C719 C703 1.349 . S
C719 H711 0.950 . S
C719 C717 1.327 . S
C720 C708 1.349 . S
C720 H714 0.950 . S
C720 C721 1.327 . S
C721 H715 0.950 . S
C721 C720 1.327 . S
C721 C725 1.429 . S
C722 C705 1.574 1_556 S
C722 H716 0.949 . S
C722 C726 1.368 . S
C723 C704 1.429 . S
C723 C717 1.429 . S
C723 C724 1.523 . S
C724 C705 1.368 . S
C724 C718 1.368 . S
C724 C723 1.523 . S
C725 C709 1.429 . S
C725 C721 1.429 . S
C725 C726 1.523 . S
C726 C710 1.368 . S
C726 C722 1.368 . S
C726 C725 1.523 . S
H727 C702 0.950 . S
H728 C704 0.950 . S
H729 C705 0.949 . S
H730 C707 0.950 . S
H731 C709 0.950 . S
C732 C733 1.349 . S
C732 C734 1.327 . S
C732 H757 0.950 . S
C733 C732 1.349 . S
C733 C749 1.349 . S
C734 C732 1.327 . S
C734 C753 1.429 . S
C734 H758 0.950 . S
C735 C752 1.574 . S
C735 C754 1.368 . S
C735 H759 0.949 . S
H736 C740 0.949 . S
C737 C738 1.349 . S
C737 C739 1.327 . S
C737 H760 0.950 . S
C738 C737 1.349 . S
C738 C750 1.349 . S
C739 C737 1.327 . S
C739 C755 1.429 . S
C739 H761 0.950 . S
C740 H736 0.949 . S
C740 C748 1.574 . S
C740 C756 1.368 . S
H741 C749 0.950 . S
H742 C747 0.950 . S
H743 C748 0.949 . S
H744 C750 0.950 . S
H745 C751 0.950 . S
H746 C752 0.949 . S
C747 H742 0.950 . S
C747 C749 1.327 . S
C747 C753 1.429 . S
C748 C740 1.574 . S
C748 H743 0.949 . S
C748 C754 1.368 . S
C749 C733 1.349 . S
C749 H741 0.950 . S
C749 C747 1.327 . S
C750 C738 1.349 . S
C750 H744 0.950 . S
C750 C751 1.327 . S
C751 H745 0.950 . S
C751 C750 1.327 . S
C751 C755 1.429 . S
C752 C735 1.574 . S
C752 H746 0.949 . S
C752 C756 1.368 . S
C753 C734 1.429 . S
C753 C747 1.429 . S
C753 C754 1.523 . S
C754 C735 1.368 . S
C754 C748 1.368 . S
C754 C753 1.523 . S
C755 C739 1.429 . S
C755 C751 1.429 . S
C755 C756 1.523 . S
C756 C740 1.368 . S
C756 C752 1.368 . S
C756 C755 1.523 . S
H757 C732 0.950 . S
H758 C734 0.950 . S
H759 C735 0.949 . S
H760 C737 0.950 . S
H761 C739 0.950 . S
C762 C763 1.349 . S
C762 C764 1.327 . S
C762 H787 0.950 . S
C763 C762 1.349 . S
C763 C779 1.349 . S
C764 C762 1.327 . S
C764 C783 1.429 . S
C764 H788 0.950 . S
C765 C782 1.574 1_554 S
C765 C784 1.368 . S
C765 H789 0.949 . S
H766 C770 0.949 . S
C767 C768 1.349 . S
C767 C769 1.327 . S
C767 H790 0.950 . S
C768 C767 1.349 . S
C768 C780 1.349 . S
C769 C767 1.327 . S
C769 C785 1.429 . S
C769 H791 0.950 . S
C770 H766 0.949 . S
C770 C778 1.574 1_556 S
C770 C786 1.368 . S
H771 C779 0.950 . S
H772 C777 0.950 . S
H773 C778 0.949 . S
H774 C780 0.950 . S
H775 C781 0.950 . S
H776 C782 0.949 . S
C777 H772 0.950 . S
C777 C779 1.327 . S
C777 C783 1.429 . S
C778 C770 1.574 1_554 S
C778 H773 0.949 . S
C778 C784 1.368 . S
C779 C763 1.349 . S
C779 H771 0.950 . S
C779 C777 1.327 . S
C780 C768 1.349 . S
C780 H774 0.950 . S
C780 C781 1.327 . S
C781 H775 0.950 . S
C781 C780 1.327 . S
C781 C785 1.429 . S
C782 C765 1.574 1_556 S
C782 H776 0.949 . S
C782 C786 1.368 . S
C783 C764 1.429 . S
C783 C777 1.429 . S
C783 C784 1.523 . S
C784 C765 1.368 . S
C784 C778 1.368 . S
C784 C783 1.523 . S
C785 C769 1.429 . S
C785 C781 1.429 . S
C785 C786 1.523 . S
C786 C770 1.368 . S
C786 C782 1.368 . S
C786 C785 1.523 . S
H787 C762 0.950 . S
H788 C764 0.950 . S
H789 C765 0.949 . S
H790 C767 0.950 . S
H791 C769 0.950 . S
C792 C793 1.349 . S
C792 C794 1.327 . S
C792 H817 0.950 . S
C793 C792 1.349 . S
C793 C809 1.349 . S
C794 C792 1.327 . S
C794 C813 1.429 . S
C794 H818 0.950 . S
C795 C812 1.574 . S
C795 C814 1.368 . S
C795 H819 0.949 . S
H796 C800 0.949 . S
C797 C798 1.349 . S
C797 C799 1.327 . S
C797 H820 0.950 . S
C798 C797 1.349 . S
C798 C810 1.349 . S
C799 C797 1.327 . S
C799 C815 1.429 . S
C799 H821 0.950 . S
C800 H796 0.949 . S
C800 C808 1.574 . S
C800 C816 1.368 . S
H801 C809 0.950 . S
H802 C807 0.950 . S
H803 C808 0.949 . S
H804 C810 0.950 . S
H805 C811 0.950 . S
H806 C812 0.949 . S
C807 H802 0.950 . S
C807 C809 1.327 . S
C807 C813 1.429 . S
C808 C800 1.574 . S
C808 H803 0.949 . S
C808 C814 1.368 . S
C809 C793 1.349 . S
C809 H801 0.950 . S
C809 C807 1.327 . S
C810 C798 1.349 . S
C810 H804 0.950 . S
C810 C811 1.327 . S
C811 H805 0.950 . S
C811 C810 1.327 . S
C811 C815 1.429 . S
C812 C795 1.574 . S
C812 H806 0.949 . S
C812 C816 1.368 . S
C813 C794 1.429 . S
C813 C807 1.429 . S
C813 C814 1.523 . S
C814 C795 1.368 . S
C814 C808 1.368 . S
C814 C813 1.523 . S
C815 C799 1.429 . S
C815 C811 1.429 . S
C815 C816 1.523 . S
C816 C800 1.368 . S
C816 C812 1.368 . S
C816 C815 1.523 . S
H817 C792 0.950 . S
H818 C794 0.950 . S
H819 C795 0.949 . S
H820 C797 0.950 . S
H821 C799 0.950 . S
C822 C823 1.349 . S
C822 C824 1.327 . S
C822 H847 0.950 . S
C823 C822 1.349 . S
C823 C839 1.349 . S
C824 C822 1.327 . S
C824 C843 1.429 . S
C824 H848 0.950 . S
C825 C842 1.574 . S
C825 C844 1.368 . S
C825 H849 0.949 . S
H826 C830 0.949 . S
C827 C828 1.349 . S
C827 C829 1.327 . S
C827 H850 0.950 . S
C828 C827 1.349 . S
C828 C840 1.349 . S
C829 C827 1.327 . S
C829 C845 1.429 . S
C829 H851 0.950 . S
C830 H826 0.949 . S
C830 C838 1.574 . S
C830 C846 1.368 . S
H831 C839 0.950 . S
H832 C837 0.950 . S
H833 C838 0.949 . S
H834 C840 0.950 . S
H835 C841 0.950 . S
H836 C842 0.949 . S
C837 H832 0.950 . S
C837 C839 1.327 . S
C837 C843 1.429 . S
C838 C830 1.574 . S
C838 H833 0.949 . S
C838 C844 1.368 . S
C839 C823 1.349 . S
C839 H831 0.950 . S
C839 C837 1.327 . S
C840 C828 1.349 . S
C840 H834 0.950 . S
C840 C841 1.327 . S
C841 H835 0.950 . S
C841 C840 1.327 . S
C841 C845 1.429 . S
C842 C825 1.574 . S
C842 H836 0.949 . S
C842 C846 1.368 . S
C843 C824 1.429 . S
C843 C837 1.429 . S
C843 C844 1.523 . S
C844 C825 1.368 . S
C844 C838 1.368 . S
C844 C843 1.523 . S
C845 C829 1.429 . S
C845 C841 1.429 . S
C845 C846 1.523 . S
C846 C830 1.368 . S
C846 C842 1.368 . S
C846 C845 1.523 . S
H847 C822 0.950 . S
H848 C824 0.950 . S
H849 C825 0.949 . S
H850 C827 0.950 . S
H851 C829 0.950 . S
C852 C853 1.349 . S
C852 C854 1.327 . S
C852 H877 0.950 . S
C853 C852 1.349 . S
C853 C869 1.349 . S
C854 C852 1.327 . S
C854 C873 1.429 . S
C854 H878 0.950 . S
C855 C872 1.574 1_565 S
C855 C874 1.368 . S
C855 H879 0.949 . S
H856 C860 0.949 . S
C857 C858 1.349 . S
C857 C859 1.327 . S
C857 H880 0.950 . S
C858 C857 1.349 . S
C858 C870 1.349 . S
C859 C857 1.327 . S
C859 C875 1.429 . S
C859 H881 0.950 . S
C860 H856 0.949 . S
C860 C868 1.574 1_545 S
C860 C876 1.368 . S
H861 C869 0.950 . S
H862 C867 0.950 . S
H863 C868 0.949 . S
H864 C870 0.950 . S
H865 C871 0.950 . S
H866 C872 0.949 . S
C867 H862 0.950 . S
C867 C869 1.327 . S
C867 C873 1.429 . S
C868 C860 1.574 1_565 S
C868 H863 0.949 . S
C868 C874 1.368 . S
C869 C853 1.349 . S
C869 H861 0.950 . S
C869 C867 1.327 . S
C870 C858 1.349 . S
C870 H864 0.950 . S
C870 C871 1.327 . S
C871 H865 0.950 . S
C871 C870 1.327 . S
C871 C875 1.429 . S
C872 C855 1.574 1_545 S
C872 H866 0.949 . S
C872 C876 1.368 . S
C873 C854 1.429 . S
C873 C867 1.429 . S
C873 C874 1.523 . S
C874 C855 1.368 . S
C874 C868 1.368 . S
C874 C873 1.523 . S
C875 C859 1.429 . S
C875 C871 1.429 . S
C875 C876 1.523 . S
C876 C860 1.368 . S
C876 C872 1.368 . S
C876 C875 1.523 . S
H877 C852 0.950 . S
H878 C854 0.950 . S
H879 C855 0.949 . S
H880 C857 0.950 . S
H881 C859 0.950 . S
C882 C883 1.349 . S
C882 C884 1.327 . S
C882 H907 0.950 . S
C883 C882 1.349 . S
C883 C899 1.349 . S
C884 C882 1.327 . S
C884 C903 1.429 . S
C884 H908 0.950 . S
C885 C902 1.574 . S
C885 C904 1.368 . S
C885 H909 0.949 . S
H886 C890 0.949 . S
C887 C888 1.349 . S
C887 C889 1.327 . S
C887 H910 0.950 . S
C888 C887 1.349 . S
C888 C900 1.349 . S
C889 C887 1.327 . S
C889 C905 1.429 . S
C889 H911 0.950 . S
C890 H886 0.949 . S
C890 C898 1.574 . S
C890 C906 1.368 . S
H891 C899 0.950 . S
H892 C897 0.950 . S
H893 C898 0.949 . S
H894 C900 0.950 . S
H895 C901 0.950 . S
H896 C902 0.949 . S
C897 H892 0.950 . S
C897 C899 1.327 . S
C897 C903 1.429 . S
C898 C890 1.574 . S
C898 H893 0.949 . S
C898 C904 1.368 . S
C899 C883 1.349 . S
C899 H891 0.950 . S
C899 C897 1.327 . S
C900 C888 1.349 . S
C900 H894 0.950 . S
C900 C901 1.327 . S
C901 H895 0.950 . S
C901 C900 1.327 . S
C901 C905 1.429 . S
C902 C885 1.574 . S
C902 H896 0.949 . S
C902 C906 1.368 . S
C903 C884 1.429 . S
C903 C897 1.429 . S
C903 C904 1.523 . S
C904 C885 1.368 . S
C904 C898 1.368 . S
C904 C903 1.523 . S
C905 C889 1.429 . S
C905 C901 1.429 . S
C905 C906 1.523 . S
C906 C890 1.368 . S
C906 C902 1.368 . S
C906 C905 1.523 . S
H907 C882 0.950 . S
H908 C884 0.950 . S
H909 C885 0.949 . S
H910 C887 0.950 . S
H911 C889 0.950 . S
C912 C913 1.349 . S
C912 C914 1.327 . S
C912 H937 0.950 . S
C913 C912 1.349 . S
C913 C929 1.349 . S
C914 C912 1.327 . S
C914 C933 1.429 . S
C914 H938 0.950 . S
C915 C932 1.574 1_565 S
C915 C934 1.368 . S
C915 H939 0.949 . S
H916 C920 0.949 . S
C917 C918 1.349 . S
C917 C919 1.327 . S
C917 H940 0.950 . S
C918 C917 1.349 . S
C918 C930 1.349 . S
C919 C917 1.327 . S
C919 C935 1.429 . S
C919 H941 0.950 . S
C920 H916 0.949 . S
C920 C928 1.574 1_545 S
C920 C936 1.368 . S
H921 C929 0.950 . S
H922 C927 0.950 . S
H923 C928 0.949 . S
H924 C930 0.950 . S
H925 C931 0.950 . S
H926 C932 0.949 . S
C927 H922 0.950 . S
C927 C929 1.327 . S
C927 C933 1.429 . S
C928 C920 1.574 1_565 S
C928 H923 0.949 . S
C928 C934 1.368 . S
C929 C913 1.349 . S
C929 H921 0.950 . S
C929 C927 1.327 . S
C930 C918 1.349 . S
C930 H924 0.950 . S
C930 C931 1.327 . S
C931 H925 0.950 . S
C931 C930 1.327 . S
C931 C935 1.429 . S
C932 C915 1.574 1_545 S
C932 H926 0.949 . S
C932 C936 1.368 . S
C933 C914 1.429 . S
C933 C927 1.429 . S
C933 C934 1.523 . S
C934 C915 1.368 . S
C934 C928 1.368 . S
C934 C933 1.523 . S
C935 C919 1.429 . S
C935 C931 1.429 . S
C935 C936 1.523 . S
C936 C920 1.368 . S
C936 C932 1.368 . S
C936 C935 1.523 . S
H937 C912 0.950 . S
H938 C914 0.950 . S
H939 C915 0.949 . S
H940 C917 0.950 . S
H941 C919 0.950 . S
C942 C943 1.349 . S
C942 C944 1.327 . S
C942 H967 0.950 . S
C943 C942 1.349 . S
C943 C959 1.349 . S
C944 C942 1.327 . S
C944 C963 1.429 . S
C944 H968 0.950 . S
C945 C962 1.574 . S
C945 C964 1.368 . S
C945 H969 0.949 . S
H946 C950 0.949 . S
C947 C948 1.349 . S
C947 C949 1.327 . S
C947 H970 0.950 . S
C948 C947 1.349 . S
C948 C960 1.349 . S
C949 C947 1.327 . S
C949 C965 1.429 . S
C949 H971 0.950 . S
C950 H946 0.949 . S
C950 C958 1.574 . S
C950 C966 1.368 . S
H951 C959 0.950 . S
H952 C957 0.950 . S
H953 C958 0.949 . S
H954 C960 0.950 . S
H955 C961 0.950 . S
H956 C962 0.949 . S
C957 H952 0.950 . S
C957 C959 1.327 . S
C957 C963 1.429 . S
C958 C950 1.574 . S
C958 H953 0.949 . S
C958 C964 1.368 . S
C959 C943 1.349 . S
C959 H951 0.950 . S
C959 C957 1.327 . S
C960 C948 1.349 . S
C960 H954 0.950 . S
C960 C961 1.327 . S
C961 H955 0.950 . S
C961 C960 1.327 . S
C961 C965 1.429 . S
C962 C945 1.574 . S
C962 H956 0.949 . S
C962 C966 1.368 . S
C963 C944 1.429 . S
C963 C957 1.429 . S
C963 C964 1.523 . S
C964 C945 1.368 . S
C964 C958 1.368 . S
C964 C963 1.523 . S
C965 C949 1.429 . S
C965 C961 1.429 . S
C965 C966 1.523 . S
C966 C950 1.368 . S
C966 C962 1.368 . S
C966 C965 1.523 . S
H967 C942 0.950 . S
H968 C944 0.950 . S
H969 C945 0.949 . S
H970 C947 0.950 . S
H971 C949 0.950 . S
C972 C973 1.349 . S
C972 C974 1.327 . S
C972 H997 0.950 . S
C973 C972 1.349 . S
C973 C989 1.349 . S
C974 C972 1.327 . S
C974 C993 1.429 . S
C974 H998 0.950 . S
C975 C992 1.574 1_565 S
C975 C994 1.368 . S
C975 H999 0.949 . S
H976 C980 0.949 . S
C977 C978 1.349 . S
C977 C979 1.327 . S
C977 H1000 0.950 . S
C978 C977 1.349 . S
C978 C990 1.349 . S
C979 C977 1.327 . S
C979 C995 1.429 . S
C979 H1001 0.950 . S
C980 H976 0.949 . S
C980 C988 1.574 1_545 S
C980 C996 1.368 . S
H981 C989 0.950 . S
H982 C987 0.950 . S
H983 C988 0.949 . S
H984 C990 0.950 . S
H985 C991 0.950 . S
H986 C992 0.949 . S
C987 H982 0.950 . S
C987 C989 1.327 . S
C987 C993 1.429 . S
C988 C980 1.574 1_565 S
C988 H983 0.949 . S
C988 C994 1.368 . S
C989 C973 1.349 . S
C989 H981 0.950 . S
C989 C987 1.327 . S
C990 C978 1.349 . S
C990 H984 0.950 . S
C990 C991 1.327 . S
C991 H985 0.950 . S
C991 C990 1.327 . S
C991 C995 1.429 . S
C992 C975 1.574 1_545 S
C992 H986 0.949 . S
C992 C996 1.368 . S
C993 C974 1.429 . S
C993 C987 1.429 . S
C993 C994 1.523 . S
C994 C975 1.368 . S
C994 C988 1.368 . S
C994 C993 1.523 . S
C995 C979 1.429 . S
C995 C991 1.429 . S
C995 C996 1.523 . S
C996 C980 1.368 . S
C996 C992 1.368 . S
C996 C995 1.523 . S
H997 C972 0.950 . S
H998 C974 0.950 . S
H999 C975 0.949 . S
H1000 C977 0.950 . S
H1001 C979 0.950 . S
C1002 C1003 1.349 . S
C1002 C1004 1.327 . S
C1002 H1027 0.950 . S
C1003 C1002 1.349 . S
C1003 C1019 1.349 . S
C1004 C1002 1.327 . S
C1004 C1023 1.429 . S
C1004 H1028 0.950 . S
C1005 C1022 1.574 1_545 S
C1005 C1024 1.368 . S
C1005 H1029 0.949 . S
H1006 C1010 0.949 . S
C1007 C1008 1.349 . S
C1007 C1009 1.327 . S
C1007 H1030 0.950 . S
C1008 C1007 1.349 . S
C1008 C1020 1.349 . S
C1009 C1007 1.327 . S
C1009 C1025 1.429 . S
C1009 H1031 0.950 . S
C1010 H1006 0.949 . S
C1010 C1018 1.574 1_565 S
C1010 C1026 1.368 . S
H1011 C1019 0.950 . S
H1012 C1017 0.950 . S
H1013 C1018 0.949 . S
H1014 C1020 0.950 . S
H1015 C1021 0.950 . S
H1016 C1022 0.949 . S
C1017 H1012 0.950 . S
C1017 C1019 1.327 . S
C1017 C1023 1.429 . S
C1018 C1010 1.574 1_545 S
C1018 H1013 0.949 . S
C1018 C1024 1.368 . S
C1019 C1003 1.349 . S
C1019 H1011 0.950 . S
C1019 C1017 1.327 . S
C1020 C1008 1.349 . S
C1020 H1014 0.950 . S
C1020 C1021 1.327 . S
C1021 H1015 0.950 . S
C1021 C1020 1.327 . S
C1021 C1025 1.429 . S
C1022 C1005 1.574 1_565 S
C1022 H1016 0.949 . S
C1022 C1026 1.368 . S
C1023 C1004 1.429 . S
C1023 C1017 1.429 . S
C1023 C1024 1.523 . S
C1024 C1005 1.368 . S
C1024 C1018 1.368 . S
C1024 C1023 1.523 . S
C1025 C1009 1.429 . S
C1025 C1021 1.429 . S
C1025 C1026 1.523 . S
C1026 C1010 1.368 . S
C1026 C1022 1.368 . S
C1026 C1025 1.523 . S
H1027 C1002 0.950 . S
H1028 C1004 0.950 . S
H1029 C1005 0.949 . S
H1030 C1007 0.950 . S
H1031 C1009 0.950 . S
C1032 C1033 1.349 . S
C1032 C1034 1.327 . S
C1032 H1057 0.950 . S
C1033 C1032 1.349 . S
C1033 C1049 1.349 . S
C1034 C1032 1.327 . S
C1034 C1053 1.429 . S
C1034 H1058 0.950 . S
C1035 C1052 1.574 . S
C1035 C1054 1.368 . S
C1035 H1059 0.949 . S
H1036 C1040 0.949 . S
C1037 C1038 1.349 . S
C1037 C1039 1.327 . S
C1037 H1060 0.950 . S
C1038 C1037 1.349 . S
C1038 C1050 1.349 . S
C1039 C1037 1.327 . S
C1039 C1055 1.429 . S
C1039 H1061 0.950 . S
C1040 H1036 0.949 . S
C1040 C1048 1.574 . S
C1040 C1056 1.368 . S
H1041 C1049 0.950 . S
H1042 C1047 0.950 . S
H1043 C1048 0.949 . S
H1044 C1050 0.950 . S
H1045 C1051 0.950 . S
H1046 C1052 0.949 . S
C1047 H1042 0.950 . S
C1047 C1049 1.327 . S
C1047 C1053 1.429 . S
C1048 C1040 1.574 . S
C1048 H1043 0.949 . S
C1048 C1054 1.368 . S
C1049 C1033 1.349 . S
C1049 H1041 0.950 . S
C1049 C1047 1.327 . S
C1050 C1038 1.349 . S
C1050 H1044 0.950 . S
C1050 C1051 1.327 . S
C1051 H1045 0.950 . S
C1051 C1050 1.327 . S
C1051 C1055 1.429 . S
C1052 C1035 1.574 . S
C1052 H1046 0.949 . S
C1052 C1056 1.368 . S
C1053 C1034 1.429 . S
C1053 C1047 1.429 . S
C1053 C1054 1.523 . S
C1054 C1035 1.368 . S
C1054 C1048 1.368 . S
C1054 C1053 1.523 . S
C1055 C1039 1.429 . S
C1055 C1051 1.429 . S
C1055 C1056 1.523 . S
C1056 C1040 1.368 . S
C1056 C1052 1.368 . S
C1056 C1055 1.523 . S
H1057 C1032 0.950 . S
H1058 C1034 0.950 . S
H1059 C1035 0.949 . S
H1060 C1037 0.950 . S
H1061 C1039 0.950 . S
C1062 C1063 1.349 . S
C1062 C1064 1.327 . S
C1062 H1087 0.950 . S
C1063 C1062 1.349 . S
C1063 C1079 1.349 . S
C1064 C1062 1.327 . S
C1064 C1083 1.429 . S
C1064 H1088 0.950 . S
C1065 C1082 1.574 . S
C1065 C1084 1.368 . S
C1065 H1089 0.949 . S
H1066 C1070 0.949 . S
C1067 C1068 1.349 . S
C1067 C1069 1.327 . S
C1067 H1090 0.950 . S
C1068 C1067 1.349 . S
C1068 C1080 1.349 . S
C1069 C1067 1.327 . S
C1069 C1085 1.429 . S
C1069 H1091 0.950 . S
C1070 H1066 0.949 . S
C1070 C1078 1.574 . S
C1070 C1086 1.368 . S
H1071 C1079 0.950 . S
H1072 C1077 0.950 . S
H1073 C1078 0.949 . S
H1074 C1080 0.950 . S
H1075 C1081 0.950 . S
H1076 C1082 0.949 . S
C1077 H1072 0.950 . S
C1077 C1079 1.327 . S
C1077 C1083 1.429 . S
C1078 C1070 1.574 . S
C1078 H1073 0.949 . S
C1078 C1084 1.368 . S
C1079 C1063 1.349 . S
C1079 H1071 0.950 . S
C1079 C1077 1.327 . S
C1080 C1068 1.349 . S
C1080 H1074 0.950 . S
C1080 C1081 1.327 . S
C1081 H1075 0.950 . S
C1081 C1080 1.327 . S
C1081 C1085 1.429 . S
C1082 C1065 1.574 . S
C1082 H1076 0.949 . S
C1082 C1086 1.368 . S
C1083 C1064 1.429 . S
C1083 C1077 1.429 . S
C1083 C1084 1.523 . S
C1084 C1065 1.368 . S
C1084 C1078 1.368 . S
C1084 C1083 1.523 . S
C1085 C1069 1.429 . S
C1085 C1081 1.429 . S
C1085 C1086 1.523 . S
C1086 C1070 1.368 . S
C1086 C1082 1.368 . S
C1086 C1085 1.523 . S
H1087 C1062 0.950 . S
H1088 C1064 0.950 . S
H1089 C1065 0.949 . S
H1090 C1067 0.950 . S
H1091 C1069 0.950 . S
C1092 C1093 1.349 . S
C1092 C1094 1.327 . S
C1092 H1117 0.950 . S
C1093 C1092 1.349 . S
C1093 C1109 1.349 . S
C1094 C1092 1.327 . S
C1094 C1113 1.429 . S
C1094 H1118 0.950 . S
C1095 C1112 1.574 . S
C1095 C1114 1.368 . S
C1095 H1119 0.949 . S
H1096 C1100 0.949 . S
C1097 C1098 1.349 . S
C1097 C1099 1.327 . S
C1097 H1120 0.950 . S
C1098 C1097 1.349 . S
C1098 C1110 1.349 . S
C1099 C1097 1.327 . S
C1099 C1115 1.429 . S
C1099 H1121 0.950 . S
C1100 H1096 0.949 . S
C1100 C1108 1.574 . S
C1100 C1116 1.368 . S
H1101 C1109 0.950 . S
H1102 C1107 0.950 . S
H1103 C1108 0.949 . S
H1104 C1110 0.950 . S
H1105 C1111 0.950 . S
H1106 C1112 0.949 . S
C1107 H1102 0.950 . S
C1107 C1109 1.327 . S
C1107 C1113 1.429 . S
C1108 C1100 1.574 . S
C1108 H1103 0.949 . S
C1108 C1114 1.368 . S
C1109 C1093 1.349 . S
C1109 H1101 0.950 . S
C1109 C1107 1.327 . S
C1110 C1098 1.349 . S
C1110 H1104 0.950 . S
C1110 C1111 1.327 . S
C1111 H1105 0.950 . S
C1111 C1110 1.327 . S
C1111 C1115 1.429 . S
C1112 C1095 1.574 . S
C1112 H1106 0.949 . S
C1112 C1116 1.368 . S
C1113 C1094 1.429 . S
C1113 C1107 1.429 . S
C1113 C1114 1.523 . S
C1114 C1095 1.368 . S
C1114 C1108 1.368 . S
C1114 C1113 1.523 . S
C1115 C1099 1.429 . S
C1115 C1111 1.429 . S
C1115 C1116 1.523 . S
C1116 C1100 1.368 . S
C1116 C1112 1.368 . S
C1116 C1115 1.523 . S
H1117 C1092 0.950 . S
H1118 C1094 0.950 . S
H1119 C1095 0.949 . S
H1120 C1097 0.950 . S
H1121 C1099 0.950 . S
C1122 C1123 1.349 . S
C1122 C1124 1.327 . S
C1122 H1147 0.950 . S
C1123 C1122 1.349 . S
C1123 C1139 1.349 . S
C1124 C1122 1.327 . S
C1124 C1143 1.429 . S
C1124 H1148 0.950 . S
C1125 C1142 1.574 . S
C1125 C1144 1.368 . S
C1125 H1149 0.949 . S
H1126 C1130 0.949 . S
C1127 C1128 1.349 . S
C1127 C1129 1.327 . S
C1127 H1150 0.950 . S
C1128 C1127 1.349 . S
C1128 C1140 1.349 . S
C1129 C1127 1.327 . S
C1129 C1145 1.429 . S
C1129 H1151 0.950 . S
C1130 H1126 0.949 . S
C1130 C1138 1.574 . S
C1130 C1146 1.368 . S
H1131 C1139 0.950 . S
H1132 C1137 0.950 . S
H1133 C1138 0.949 . S
H1134 C1140 0.950 . S
H1135 C1141 0.950 . S
H1136 C1142 0.949 . S
C1137 H1132 0.950 . S
C1137 C1139 1.327 . S
C1137 C1143 1.429 . S
C1138 C1130 1.574 . S
C1138 H1133 0.949 . S
C1138 C1144 1.368 . S
C1139 C1123 1.349 . S
C1139 H1131 0.950 . S
C1139 C1137 1.327 . S
C1140 C1128 1.349 . S
C1140 H1134 0.950 . S
C1140 C1141 1.327 . S
C1141 H1135 0.950 . S
C1141 C1140 1.327 . S
C1141 C1145 1.429 . S
C1142 C1125 1.574 . S
C1142 H1136 0.949 . S
C1142 C1146 1.368 . S
C1143 C1124 1.429 . S
C1143 C1137 1.429 . S
C1143 C1144 1.523 . S
C1144 C1125 1.368 . S
C1144 C1138 1.368 . S
C1144 C1143 1.523 . S
C1145 C1129 1.429 . S
C1145 C1141 1.429 . S
C1145 C1146 1.523 . S
C1146 C1130 1.368 . S
C1146 C1142 1.368 . S
C1146 C1145 1.523 . S
H1147 C1122 0.950 . S
H1148 C1124 0.950 . S
H1149 C1125 0.949 . S
H1150 C1127 0.950 . S
H1151 C1129 0.950 . S
C1152 C1153 1.349 . S
C1152 C1154 1.327 . S
C1152 H1177 0.950 . S
C1153 C1152 1.349 . S
C1153 C1169 1.349 . S
C1154 C1152 1.327 . S
C1154 C1173 1.429 . S
C1154 H1178 0.950 . S
C1155 C1172 1.574 . S
C1155 C1174 1.368 . S
C1155 H1179 0.949 . S
H1156 C1160 0.949 . S
C1157 C1158 1.349 . S
C1157 C1159 1.327 . S
C1157 H1180 0.950 . S
C1158 C1157 1.349 . S
C1158 C1170 1.349 . S
C1159 C1157 1.327 . S
C1159 C1175 1.429 . S
C1159 H1181 0.950 . S
C1160 H1156 0.949 . S
C1160 C1168 1.574 . S
C1160 C1176 1.368 . S
H1161 C1169 0.950 . S
H1162 C1167 0.950 . S
H1163 C1168 0.949 . S
H1164 C1170 0.950 . S
H1165 C1171 0.950 . S
H1166 C1172 0.949 . S
C1167 H1162 0.950 . S
C1167 C1169 1.327 . S
C1167 C1173 1.429 . S
C1168 C1160 1.574 . S
C1168 H1163 0.949 . S
C1168 C1174 1.368 . S
C1169 C1153 1.349 . S
C1169 H1161 0.950 . S
C1169 C1167 1.327 . S
C1170 C1158 1.349 . S
C1170 H1164 0.950 . S
C1170 C1171 1.327 . S
C1171 H1165 0.950 . S
C1171 C1170 1.327 . S
C1171 C1175 1.429 . S
C1172 C1155 1.574 . S
C1172 H1166 0.949 . S
C1172 C1176 1.368 . S
C1173 C1154 1.429 . S
C1173 C1167 1.429 . S
C1173 C1174 1.523 . S
C1174 C1155 1.368 . S
C1174 C1168 1.368 . S
C1174 C1173 1.523 . S
C1175 C1159 1.429 . S
C1175 C1171 1.429 . S
C1175 C1176 1.523 . S
C1176 C1160 1.368 . S
C1176 C1172 1.368 . S
C1176 C1175 1.523 . S
H1177 C1152 0.950 . S
H1178 C1154 0.950 . S
H1179 C1155 0.949 . S
H1180 C1157 0.950 . S
H1181 C1159 0.950 . S
C1182 C1183 1.349 . S
C1182 C1184 1.327 . S
C1182 H1207 0.950 . S
C1183 C1182 1.349 . S
C1183 C1199 1.349 . S
C1184 C1182 1.327 . S
C1184 C1203 1.429 . S
C1184 H1208 0.950 . S
C1185 C1202 1.574 . S
C1185 C1204 1.368 . S
C1185 H1209 0.949 . S
H1186 C1190 0.949 . S
C1187 C1188 1.349 . S
C1187 C1189 1.327 . S
C1187 H1210 0.950 . S
C1188 C1187 1.349 . S
C1188 C1200 1.349 . S
C1189 C1187 1.327 . S
C1189 C1205 1.429 . S
C1189 H1211 0.950 . S
C1190 H1186 0.949 . S
C1190 C1198 1.574 . S
C1190 C1206 1.368 . S
H1191 C1199 0.950 . S
H1192 C1197 0.950 . S
H1193 C1198 0.949 . S
H1194 C1200 0.950 . S
H1195 C1201 0.950 . S
H1196 C1202 0.949 . S
C1197 H1192 0.950 . S
C1197 C1199 1.327 . S
C1197 C1203 1.429 . S
C1198 C1190 1.574 . S
C1198 H1193 0.949 . S
C1198 C1204 1.368 . S
C1199 C1183 1.349 . S
C1199 H1191 0.950 . S
C1199 C1197 1.327 . S
C1200 C1188 1.349 . S
C1200 H1194 0.950 . S
C1200 C1201 1.327 . S
C1201 H1195 0.950 . S
C1201 C1200 1.327 . S
C1201 C1205 1.429 . S
C1202 C1185 1.574 . S
C1202 H1196 0.949 . S
C1202 C1206 1.368 . S
C1203 C1184 1.429 . S
C1203 C1197 1.429 . S
C1203 C1204 1.523 . S
C1204 C1185 1.368 . S
C1204 C1198 1.368 . S
C1204 C1203 1.523 . S
C1205 C1189 1.429 . S
C1205 C1201 1.429 . S
C1205 C1206 1.523 . S
C1206 C1190 1.368 . S
C1206 C1202 1.368 . S
C1206 C1205 1.523 . S
H1207 C1182 0.950 . S
H1208 C1184 0.950 . S
H1209 C1185 0.949 . S
H1210 C1187 0.950 . S
H1211 C1189 0.950 . S
C1212 C1213 1.349 . S
C1212 C1214 1.327 . S
C1212 H1237 0.950 . S
C1213 C1212 1.349 . S
C1213 C1229 1.349 . S
C1214 C1212 1.327 . S
C1214 C1233 1.429 . S
C1214 H1238 0.950 . S
C1215 C1232 1.574 . S
C1215 C1234 1.368 . S
C1215 H1239 0.949 . S
H1216 C1220 0.949 . S
C1217 C1218 1.349 . S
C1217 C1219 1.327 . S
C1217 H1240 0.950 . S
C1218 C1217 1.349 . S
C1218 C1230 1.349 . S
C1219 C1217 1.327 . S
C1219 C1235 1.429 . S
C1219 H1241 0.950 . S
C1220 H1216 0.949 . S
C1220 C1228 1.574 . S
C1220 C1236 1.368 . S
H1221 C1229 0.950 . S
H1222 C1227 0.950 . S
H1223 C1228 0.949 . S
H1224 C1230 0.950 . S
H1225 C1231 0.950 . S
H1226 C1232 0.949 . S
C1227 H1222 0.950 . S
C1227 C1229 1.327 . S
C1227 C1233 1.429 . S
C1228 C1220 1.574 . S
C1228 H1223 0.949 . S
C1228 C1234 1.368 . S
C1229 C1213 1.349 . S
C1229 H1221 0.950 . S
C1229 C1227 1.327 . S
C1230 C1218 1.349 . S
C1230 H1224 0.950 . S
C1230 C1231 1.327 . S
C1231 H1225 0.950 . S
C1231 C1230 1.327 . S
C1231 C1235 1.429 . S
C1232 C1215 1.574 . S
C1232 H1226 0.949 . S
C1232 C1236 1.368 . S
C1233 C1214 1.429 . S
C1233 C1227 1.429 . S
C1233 C1234 1.523 . S
C1234 C1215 1.368 . S
C1234 C1228 1.368 . S
C1234 C1233 1.523 . S
C1235 C1219 1.429 . S
C1235 C1231 1.429 . S
C1235 C1236 1.523 . S
C1236 C1220 1.368 . S
C1236 C1232 1.368 . S
C1236 C1235 1.523 . S
H1237 C1212 0.950 . S
H1238 C1214 0.950 . S
H1239 C1215 0.949 . S
H1240 C1217 0.950 . S
H1241 C1219 0.950 . S
C1242 C1243 1.349 . S
C1242 C1244 1.327 . S
C1242 H1267 0.950 . S
C1243 C1242 1.349 . S
C1243 C1259 1.349 . S
C1244 C1242 1.327 . S
C1244 C1263 1.429 . S
C1244 H1268 0.950 . S
C1245 C1262 1.574 . S
C1245 C1264 1.368 . S
C1245 H1269 0.949 . S
H1246 C1250 0.949 . S
C1247 C1248 1.349 . S
C1247 C1249 1.327 . S
C1247 H1270 0.950 . S
C1248 C1247 1.349 . S
C1248 C1260 1.349 . S
C1249 C1247 1.327 . S
C1249 C1265 1.429 . S
C1249 H1271 0.950 . S
C1250 H1246 0.949 . S
C1250 C1258 1.574 . S
C1250 C1266 1.368 . S
H1251 C1259 0.950 . S
H1252 C1257 0.950 . S
H1253 C1258 0.949 . S
H1254 C1260 0.950 . S
H1255 C1261 0.950 . S
H1256 C1262 0.949 . S
C1257 H1252 0.950 . S
C1257 C1259 1.327 . S
C1257 C1263 1.429 . S
C1258 C1250 1.574 . S
C1258 H1253 0.949 . S
C1258 C1264 1.368 . S
C1259 C1243 1.349 . S
C1259 H1251 0.950 . S
C1259 C1257 1.327 . S
C1260 C1248 1.349 . S
C1260 H1254 0.950 . S
C1260 C1261 1.327 . S
C1261 H1255 0.950 . S
C1261 C1260 1.327 . S
C1261 C1265 1.429 . S
C1262 C1245 1.574 . S
C1262 H1256 0.949 . S
C1262 C1266 1.368 . S
C1263 C1244 1.429 . S
C1263 C1257 1.429 . S
C1263 C1264 1.523 . S
C1264 C1245 1.368 . S
C1264 C1258 1.368 . S
C1264 C1263 1.523 . S
C1265 C1249 1.429 . S
C1265 C1261 1.429 . S
C1265 C1266 1.523 . S
C1266 C1250 1.368 . S
C1266 C1262 1.368 . S
C1266 C1265 1.523 . S
H1267 C1242 0.950 . S
H1268 C1244 0.950 . S
H1269 C1245 0.949 . S
H1270 C1247 0.950 . S
H1271 C1249 0.950 . S
C1272 C1273 1.349 . S
C1272 C1274 1.327 . S
C1272 H1297 0.950 . S
C1273 C1272 1.349 . S
C1273 C1289 1.349 . S
C1274 C1272 1.327 . S
C1274 C1293 1.429 . S
C1274 H1298 0.950 . S
C1275 C1292 1.574 . S
C1275 C1294 1.368 . S
C1275 H1299 0.949 . S
H1276 C1280 0.949 . S
C1277 C1278 1.349 . S
C1277 C1279 1.327 . S
C1277 H1300 0.950 . S
C1278 C1277 1.349 . S
C1278 C1290 1.349 . S
C1279 C1277 1.327 . S
C1279 C1295 1.429 . S
C1279 H1301 0.950 . S
C1280 H1276 0.949 . S
C1280 C1288 1.574 . S
C1280 C1296 1.368 . S
H1281 C1289 0.950 . S
H1282 C1287 0.950 . S
H1283 C1288 0.949 . S
H1284 C1290 0.950 . S
H1285 C1291 0.950 . S
H1286 C1292 0.949 . S
C1287 H1282 0.950 . S
C1287 C1289 1.327 . S
C1287 C1293 1.429 . S
C1288 C1280 1.574 . S
C1288 H1283 0.949 . S
C1288 C1294 1.368 . S
C1289 C1273 1.349 . S
C1289 H1281 0.950 . S
C1289 C1287 1.327 . S
C1290 C1278 1.349 . S
C1290 H1284 0.950 . S
C1290 C1291 1.327 . S
C1291 H1285 0.950 . S
C1291 C1290 1.327 . S
C1291 C1295 1.429 . S
C1292 C1275 1.574 . S
C1292 H1286 0.949 . S
C1292 C1296 1.368 . S
C1293 C1274 1.429 . S
C1293 C1287 1.429 . S
C1293 C1294 1.523 . S
C1294 C1275 1.368 . S
C1294 C1288 1.368 . S
C1294 C1293 1.523 . S
C1295 C1279 1.429 . S
C1295 C1291 1.429 . S
C1295 C1296 1.523 . S
C1296 C1280 1.368 . S
C1296 C1292 1.368 . S
C1296 C1295 1.523 . S
H1297 C1272 0.950 . S
H1298 C1274 0.950 . S
H1299 C1275 0.949 . S
H1300 C1277 0.950 . S
H1301 C1279 0.950 . S
C1302 C1303 1.349 . S
C1302 C1304 1.327 . S
C1302 H1327 0.950 . S
C1303 C1302 1.349 . S
C1303 C1319 1.349 . S
C1304 C1302 1.327 . S
C1304 C1323 1.429 . S
C1304 H1328 0.950 . S
C1305 C1322 1.574 . S
C1305 C1324 1.368 . S
C1305 H1329 0.949 . S
H1306 C1310 0.949 . S
C1307 C1308 1.349 . S
C1307 C1309 1.327 . S
C1307 H1330 0.950 . S
C1308 C1307 1.349 . S
C1308 C1320 1.349 . S
C1309 C1307 1.327 . S
C1309 C1325 1.429 . S
C1309 H1331 0.950 . S
C1310 H1306 0.949 . S
C1310 C1318 1.574 . S
C1310 C1326 1.368 . S
H1311 C1319 0.950 . S
H1312 C1317 0.950 . S
H1313 C1318 0.949 . S
H1314 C1320 0.950 . S
H1315 C1321 0.950 . S
H1316 C1322 0.949 . S
C1317 H1312 0.950 . S
C1317 C1319 1.327 . S
C1317 C1323 1.429 . S
C1318 C1310 1.574 . S
C1318 H1313 0.949 . S
C1318 C1324 1.368 . S
C1319 C1303 1.349 . S
C1319 H1311 0.950 . S
C1319 C1317 1.327 . S
C1320 C1308 1.349 . S
C1320 H1314 0.950 . S
C1320 C1321 1.327 . S
C1321 H1315 0.950 . S
C1321 C1320 1.327 . S
C1321 C1325 1.429 . S
C1322 C1305 1.574 . S
C1322 H1316 0.949 . S
C1322 C1326 1.368 . S
C1323 C1304 1.429 . S
C1323 C1317 1.429 . S
C1323 C1324 1.523 . S
C1324 C1305 1.368 . S
C1324 C1318 1.368 . S
C1324 C1323 1.523 . S
C1325 C1309 1.429 . S
C1325 C1321 1.429 . S
C1325 C1326 1.523 . S
C1326 C1310 1.368 . S
C1326 C1322 1.368 . S
C1326 C1325 1.523 . S
H1327 C1302 0.950 . S
H1328 C1304 0.950 . S
H1329 C1305 0.949 . S
H1330 C1307 0.950 . S
H1331 C1309 0.950 . S
C1332 C1333 1.349 . S
C1332 C1334 1.327 . S
C1332 H1357 0.950 . S
C1333 C1332 1.349 . S
C1333 C1349 1.349 . S
C1334 C1332 1.327 . S
C1334 C1353 1.429 . S
C1334 H1358 0.950 . S
C1335 C1352 1.574 . S
C1335 C1354 1.368 . S
C1335 H1359 0.949 . S
H1336 C1340 0.949 . S
C1337 C1338 1.349 . S
C1337 C1339 1.327 . S
C1337 H1360 0.950 . S
C1338 C1337 1.349 . S
C1338 C1350 1.349 . S
C1339 C1337 1.327 . S
C1339 C1355 1.429 . S
C1339 H1361 0.950 . S
C1340 H1336 0.949 . S
C1340 C1348 1.574 . S
C1340 C1356 1.368 . S
H1341 C1349 0.950 . S
H1342 C1347 0.950 . S
H1343 C1348 0.949 . S
H1344 C1350 0.950 . S
H1345 C1351 0.950 . S
H1346 C1352 0.949 . S
C1347 H1342 0.950 . S
C1347 C1349 1.327 . S
C1347 C1353 1.429 . S
C1348 C1340 1.574 . S
C1348 H1343 0.949 . S
C1348 C1354 1.368 . S
C1349 C1333 1.349 . S
C1349 H1341 0.950 . S
C1349 C1347 1.327 . S
C1350 C1338 1.349 . S
C1350 H1344 0.950 . S
C1350 C1351 1.327 . S
C1351 H1345 0.950 . S
C1351 C1350 1.327 . S
C1351 C1355 1.429 . S
C1352 C1335 1.574 . S
C1352 H1346 0.949 . S
C1352 C1356 1.368 . S
C1353 C1334 1.429 . S
C1353 C1347 1.429 . S
C1353 C1354 1.523 . S
C1354 C1335 1.368 . S
C1354 C1348 1.368 . S
C1354 C1353 1.523 . S
C1355 C1339 1.429 . S
C1355 C1351 1.429 . S
C1355 C1356 1.523 . S
C1356 C1340 1.368 . S
C1356 C1352 1.368 . S
C1356 C1355 1.523 . S
H1357 C1332 0.950 . S
H1358 C1334 0.950 . S
H1359 C1335 0.949 . S
H1360 C1337 0.950 . S
H1361 C1339 0.950 . S
C1362 C1363 1.349 . S
C1362 C1364 1.327 . S
C1362 H1387 0.950 . S
C1363 C1362 1.349 . S
C1363 C1379 1.349 . S
C1364 C1362 1.327 . S
C1364 C1383 1.429 . S
C1364 H1388 0.950 . S
C1365 C1382 1.574 . S
C1365 C1384 1.368 . S
C1365 H1389 0.949 . S
H1366 C1370 0.949 . S
C1367 C1368 1.349 . S
C1367 C1369 1.327 . S
C1367 H1390 0.950 . S
C1368 C1367 1.349 . S
C1368 C1380 1.349 . S
C1369 C1367 1.327 . S
C1369 C1385 1.429 . S
C1369 H1391 0.950 . S
C1370 H1366 0.949 . S
C1370 C1378 1.574 . S
C1370 C1386 1.368 . S
H1371 C1379 0.950 . S
H1372 C1377 0.950 . S
H1373 C1378 0.949 . S
H1374 C1380 0.950 . S
H1375 C1381 0.950 . S
H1376 C1382 0.949 . S
C1377 H1372 0.950 . S
C1377 C1379 1.327 . S
C1377 C1383 1.429 . S
C1378 C1370 1.574 . S
C1378 H1373 0.949 . S
C1378 C1384 1.368 . S
C1379 C1363 1.349 . S
C1379 H1371 0.950 . S
C1379 C1377 1.327 . S
C1380 C1368 1.349 . S
C1380 H1374 0.950 . S
C1380 C1381 1.327 . S
C1381 H1375 0.950 . S
C1381 C1380 1.327 . S
C1381 C1385 1.429 . S
C1382 C1365 1.574 . S
C1382 H1376 0.949 . S
C1382 C1386 1.368 . S
C1383 C1364 1.429 . S
C1383 C1377 1.429 . S
C1383 C1384 1.523 . S
C1384 C1365 1.368 . S
C1384 C1378 1.368 . S
C1384 C1383 1.523 . S
C1385 C1369 1.429 . S
C1385 C1381 1.429 . S
C1385 C1386 1.523 . S
C1386 C1370 1.368 . S
C1386 C1382 1.368 . S
C1386 C1385 1.523 . S
H1387 C1362 0.950 . S
H1388 C1364 0.950 . S
H1389 C1365 0.949 . S
H1390 C1367 0.950 . S
H1391 C1369 0.950 . S
C1392 C1393 1.349 . S
C1392 C1394 1.327 . S
C1392 H1417 0.950 . S
C1393 C1392 1.349 . S
C1393 C1409 1.349 . S
C1394 C1392 1.327 . S
C1394 C1413 1.429 . S
C1394 H1418 0.950 . S
C1395 C1412 1.574 . S
C1395 C1414 1.368 . S
C1395 H1419 0.949 . S
H1396 C1400 0.949 . S
C1397 C1398 1.349 . S
C1397 C1399 1.327 . S
C1397 H1420 0.950 . S
C1398 C1397 1.349 . S
C1398 C1410 1.349 . S
C1399 C1397 1.327 . S
C1399 C1415 1.429 . S
C1399 H1421 0.950 . S
C1400 H1396 0.949 . S
C1400 C1408 1.574 . S
C1400 C1416 1.368 . S
H1401 C1409 0.950 . S
H1402 C1407 0.950 . S
H1403 C1408 0.949 . S
H1404 C1410 0.950 . S
H1405 C1411 0.950 . S
H1406 C1412 0.949 . S
C1407 H1402 0.950 . S
C1407 C1409 1.327 . S
C1407 C1413 1.429 . S
C1408 C1400 1.574 . S
C1408 H1403 0.949 . S
C1408 C1414 1.368 . S
C1409 C1393 1.349 . S
C1409 H1401 0.950 . S
C1409 C1407 1.327 . S
C1410 C1398 1.349 . S
C1410 H1404 0.950 . S
C1410 C1411 1.327 . S
C1411 H1405 0.950 . S
C1411 C1410 1.327 . S
C1411 C1415 1.429 . S
C1412 C1395 1.574 . S
C1412 H1406 0.949 . S
C1412 C1416 1.368 . S
C1413 C1394 1.429 . S
C1413 C1407 1.429 . S
C1413 C1414 1.523 . S
C1414 C1395 1.368 . S
C1414 C1408 1.368 . S
C1414 C1413 1.523 . S
C1415 C1399 1.429 . S
C1415 C1411 1.429 . S
C1415 C1416 1.523 . S
C1416 C1400 1.368 . S
C1416 C1412 1.368 . S
C1416 C1415 1.523 . S
H1417 C1392 0.950 . S
H1418 C1394 0.950 . S
H1419 C1395 0.949 . S
H1420 C1397 0.950 . S
H1421 C1399 0.950 . S
C1422 C1423 1.349 . S
C1422 C1424 1.327 . S
C1422 H1447 0.950 . S
C1423 C1422 1.349 . S
C1423 C1439 1.349 . S
C1424 C1422 1.327 . S
C1424 C1443 1.429 . S
C1424 H1448 0.950 . S
C1425 C1442 1.574 . S
C1425 C1444 1.368 . S
C1425 H1449 0.949 . S
H1426 C1430 0.949 . S
C1427 C1428 1.349 . S
C1427 C1429 1.327 . S
C1427 H1450 0.950 . S
C1428 C1427 1.349 . S
C1428 C1440 1.349 . S
C1429 C1427 1.327 . S
C1429 C1445 1.429 . S
C1429 H1451 0.950 . S
C1430 H1426 0.949 . S
C1430 C1438 1.574 . S
C1430 C1446 1.368 . S
H1431 C1439 0.950 . S
H1432 C1437 0.950 . S
H1433 C1438 0.949 . S
H1434 C1440 0.950 . S
H1435 C1441 0.950 . S
H1436 C1442 0.949 . S
C1437 H1432 0.950 . S
C1437 C1439 1.327 . S
C1437 C1443 1.429 . S
C1438 C1430 1.574 . S
C1438 H1433 0.949 . S
C1438 C1444 1.368 . S
C1439 C1423 1.349 . S
C1439 H1431 0.950 . S
C1439 C1437 1.327 . S
C1440 C1428 1.349 . S
C1440 H1434 0.950 . S
C1440 C1441 1.327 . S
C1441 H1435 0.950 . S
C1441 C1440 1.327 . S
C1441 C1445 1.429 . S
C1442 C1425 1.574 . S
C1442 H1436 0.949 . S
C1442 C1446 1.368 . S
C1443 C1424 1.429 . S
C1443 C1437 1.429 . S
C1443 C1444 1.523 . S
C1444 C1425 1.368 . S
C1444 C1438 1.368 . S
C1444 C1443 1.523 . S
C1445 C1429 1.429 . S
C1445 C1441 1.429 . S
C1445 C1446 1.523 . S
C1446 C1430 1.368 . S
C1446 C1442 1.368 . S
C1446 C1445 1.523 . S
H1447 C1422 0.950 . S
H1448 C1424 0.950 . S
H1449 C1425 0.949 . S
H1450 C1427 0.950 . S
H1451 C1429 0.950 . S
C1452 C1453 1.349 . S
C1452 C1454 1.327 . S
C1452 H1477 0.950 . S
C1453 C1452 1.349 . S
C1453 C1469 1.349 . S
C1454 C1452 1.327 . S
C1454 C1473 1.429 . S
C1454 H1478 0.950 . S
C1455 C1472 1.574 . S
C1455 C1474 1.368 . S
C1455 H1479 0.949 . S
H1456 C1460 0.949 . S
C1457 C1458 1.349 . S
C1457 C1459 1.327 . S
C1457 H1480 0.950 . S
C1458 C1457 1.349 . S
C1458 C1470 1.349 . S
C1459 C1457 1.327 . S
C1459 C1475 1.429 . S
C1459 H1481 0.950 . S
C1460 H1456 0.949 . S
C1460 C1468 1.574 . S
C1460 C1476 1.368 . S
H1461 C1469 0.950 . S
H1462 C1467 0.950 . S
H1463 C1468 0.949 . S
H1464 C1470 0.950 . S
H1465 C1471 0.950 . S
H1466 C1472 0.949 . S
C1467 H1462 0.950 . S
C1467 C1469 1.327 . S
C1467 C1473 1.429 . S
C1468 C1460 1.574 . S
C1468 H1463 0.949 . S
C1468 C1474 1.368 . S
C1469 C1453 1.349 . S
C1469 H1461 0.950 . S
C1469 C1467 1.327 . S
C1470 C1458 1.349 . S
C1470 H1464 0.950 . S
C1470 C1471 1.327 . S
C1471 H1465 0.950 . S
C1471 C1470 1.327 . S
C1471 C1475 1.429 . S
C1472 C1455 1.574 . S
C1472 H1466 0.949 . S
C1472 C1476 1.368 . S
C1473 C1454 1.429 . S
C1473 C1467 1.429 . S
C1473 C1474 1.523 . S
C1474 C1455 1.368 . S
C1474 C1468 1.368 . S
C1474 C1473 1.523 . S
C1475 C1459 1.429 . S
C1475 C1471 1.429 . S
C1475 C1476 1.523 . S
C1476 C1460 1.368 . S
C1476 C1472 1.368 . S
C1476 C1475 1.523 . S
H1477 C1452 0.950 . S
H1478 C1454 0.950 . S
H1479 C1455 0.949 . S
H1480 C1457 0.950 . S
H1481 C1459 0.950 . S
C1482 C1483 1.349 . S
C1482 C1484 1.327 . S
C1482 H1507 0.950 . S
C1483 C1482 1.349 . S
C1483 C1499 1.349 . S
C1484 C1482 1.327 . S
C1484 C1503 1.429 . S
C1484 H1508 0.950 . S
C1485 C1502 1.574 . S
C1485 C1504 1.368 . S
C1485 H1509 0.949 . S
H1486 C1490 0.949 . S
C1487 C1488 1.349 . S
C1487 C1489 1.327 . S
C1487 H1510 0.950 . S
C1488 C1487 1.349 . S
C1488 C1500 1.349 . S
C1489 C1487 1.327 . S
C1489 C1505 1.429 . S
C1489 H1511 0.950 . S
C1490 H1486 0.949 . S
C1490 C1498 1.574 . S
C1490 C1506 1.368 . S
H1491 C1499 0.950 . S
H1492 C1497 0.950 . S
H1493 C1498 0.949 . S
H1494 C1500 0.950 . S
H1495 C1501 0.950 . S
H1496 C1502 0.949 . S
C1497 H1492 0.950 . S
C1497 C1499 1.327 . S
C1497 C1503 1.429 . S
C1498 C1490 1.574 . S
C1498 H1493 0.949 . S
C1498 C1504 1.368 . S
C1499 C1483 1.349 . S
C1499 H1491 0.950 . S
C1499 C1497 1.327 . S
C1500 C1488 1.349 . S
C1500 H1494 0.950 . S
C1500 C1501 1.327 . S
C1501 H1495 0.950 . S
C1501 C1500 1.327 . S
C1501 C1505 1.429 . S
C1502 C1485 1.574 . S
C1502 H1496 0.949 . S
C1502 C1506 1.368 . S
C1503 C1484 1.429 . S
C1503 C1497 1.429 . S
C1503 C1504 1.523 . S
C1504 C1485 1.368 . S
C1504 C1498 1.368 . S
C1504 C1503 1.523 . S
C1505 C1489 1.429 . S
C1505 C1501 1.429 . S
C1505 C1506 1.523 . S
C1506 C1490 1.368 . S
C1506 C1502 1.368 . S
C1506 C1505 1.523 . S
H1507 C1482 0.950 . S
H1508 C1484 0.950 . S
H1509 C1485 0.949 . S
H1510 C1487 0.950 . S
H1511 C1489 0.950 . S
C1512 C1513 1.349 . S
C1512 C1514 1.327 . S
C1512 H1537 0.950 . S
C1513 C1512 1.349 . S
C1513 C1529 1.349 . S
C1514 C1512 1.327 . S
C1514 C1533 1.429 . S
C1514 H1538 0.950 . S
C1515 C1532 1.574 . S
C1515 C1534 1.368 . S
C1515 H1539 0.949 . S
H1516 C1520 0.949 . S
C1517 C1518 1.349 . S
C1517 C1519 1.327 . S
C1517 H1540 0.950 . S
C1518 C1517 1.349 . S
C1518 C1530 1.349 . S
C1519 C1517 1.327 . S
C1519 C1535 1.429 . S
C1519 H1541 0.950 . S
C1520 H1516 0.949 . S
C1520 C1528 1.574 . S
C1520 C1536 1.368 . S
H1521 C1529 0.950 . S
H1522 C1527 0.950 . S
H1523 C1528 0.949 . S
H1524 C1530 0.950 . S
H1525 C1531 0.950 . S
H1526 C1532 0.949 . S
C1527 H1522 0.950 . S
C1527 C1529 1.327 . S
C1527 C1533 1.429 . S
C1528 C1520 1.574 . S
C1528 H1523 0.949 . S
C1528 C1534 1.368 . S
C1529 C1513 1.349 . S
C1529 H1521 0.950 . S
C1529 C1527 1.327 . S
C1530 C1518 1.349 . S
C1530 H1524 0.950 . S
C1530 C1531 1.327 . S
C1531 H1525 0.950 . S
C1531 C1530 1.327 . S
C1531 C1535 1.429 . S
C1532 C1515 1.574 . S
C1532 H1526 0.949 . S
C1532 C1536 1.368 . S
C1533 C1514 1.429 . S
C1533 C1527 1.429 . S
C1533 C1534 1.523 . S
C1534 C1515 1.368 . S
C1534 C1528 1.368 . S
C1534 C1533 1.523 . S
C1535 C1519 1.429 . S
C1535 C1531 1.429 . S
C1535 C1536 1.523 . S
C1536 C1520 1.368 . S
C1536 C1532 1.368 . S
C1536 C1535 1.523 . S
H1537 C1512 0.950 . S
H1538 C1514 0.950 . S
H1539 C1515 0.949 . S
H1540 C1517 0.950 . S
H1541 C1519 0.950 . S
C1542 C1543 1.349 . S
C1542 C1544 1.327 . S
C1542 H1567 0.950 . S
C1543 C1542 1.349 . S
C1543 C1559 1.349 . S
C1544 C1542 1.327 . S
C1544 C1563 1.429 . S
C1544 H1568 0.950 . S
C1545 C1562 1.574 . S
C1545 C1564 1.368 . S
C1545 H1569 0.949 . S
H1546 C1550 0.949 . S
C1547 C1548 1.349 . S
C1547 C1549 1.327 . S
C1547 H1570 0.950 . S
C1548 C1547 1.349 . S
C1548 C1560 1.349 . S
C1549 C1547 1.327 . S
C1549 C1565 1.429 . S
C1549 H1571 0.950 . S
C1550 H1546 0.949 . S
C1550 C1558 1.574 . S
C1550 C1566 1.368 . S
H1551 C1559 0.950 . S
H1552 C1557 0.950 . S
H1553 C1558 0.949 . S
H1554 C1560 0.950 . S
H1555 C1561 0.950 . S
H1556 C1562 0.949 . S
C1557 H1552 0.950 . S
C1557 C1559 1.327 . S
C1557 C1563 1.429 . S
C1558 C1550 1.574 . S
C1558 H1553 0.949 . S
C1558 C1564 1.368 . S
C1559 C1543 1.349 . S
C1559 H1551 0.950 . S
C1559 C1557 1.327 . S
C1560 C1548 1.349 . S
C1560 H1554 0.950 . S
C1560 C1561 1.327 . S
C1561 H1555 0.950 . S
C1561 C1560 1.327 . S
C1561 C1565 1.429 . S
C1562 C1545 1.574 . S
C1562 H1556 0.949 . S
C1562 C1566 1.368 . S
C1563 C1544 1.429 . S
C1563 C1557 1.429 . S
C1563 C1564 1.523 . S
C1564 C1545 1.368 . S
C1564 C1558 1.368 . S
C1564 C1563 1.523 . S
C1565 C1549 1.429 . S
C1565 C1561 1.429 . S
C1565 C1566 1.523 . S
C1566 C1550 1.368 . S
C1566 C1562 1.368 . S
C1566 C1565 1.523 . S
H1567 C1542 0.950 . S
H1568 C1544 0.950 . S
H1569 C1545 0.949 . S
H1570 C1547 0.950 . S
H1571 C1549 0.950 . S
C1572 C1573 1.349 . S
C1572 C1574 1.327 . S
C1572 H1597 0.950 . S
C1573 C1572 1.349 . S
C1573 C1589 1.349 . S
C1574 C1572 1.327 . S
C1574 C1593 1.429 . S
C1574 H1598 0.950 . S
C1575 C1592 1.574 . S
C1575 C1594 1.368 . S
C1575 H1599 0.949 . S
H1576 C1580 0.949 . S
C1577 C1578 1.349 . S
C1577 C1579 1.327 . S
C1577 H1600 0.950 . S
C1578 C1577 1.349 . S
C1578 C1590 1.349 . S
C1579 C1577 1.327 . S
C1579 C1595 1.429 . S
C1579 H1601 0.950 . S
C1580 H1576 0.949 . S
C1580 C1588 1.574 . S
C1580 C1596 1.368 . S
H1581 C1589 0.950 . S
H1582 C1587 0.950 . S
H1583 C1588 0.949 . S
H1584 C1590 0.950 . S
H1585 C1591 0.950 . S
H1586 C1592 0.949 . S
C1587 H1582 0.950 . S
C1587 C1589 1.327 . S
C1587 C1593 1.429 . S
C1588 C1580 1.574 . S
C1588 H1583 0.949 . S
C1588 C1594 1.368 . S
C1589 C1573 1.349 . S
C1589 H1581 0.950 . S
C1589 C1587 1.327 . S
C1590 C1578 1.349 . S
C1590 H1584 0.950 . S
C1590 C1591 1.327 . S
C1591 H1585 0.950 . S
C1591 C1590 1.327 . S
C1591 C1595 1.429 . S
C1592 C1575 1.574 . S
C1592 H1586 0.949 . S
C1592 C1596 1.368 . S
C1593 C1574 1.429 . S
C1593 C1587 1.429 . S
C1593 C1594 1.523 . S
C1594 C1575 1.368 . S
C1594 C1588 1.368 . S
C1594 C1593 1.523 . S
C1595 C1579 1.429 . S
C1595 C1591 1.429 . S
C1595 C1596 1.523 . S
C1596 C1580 1.368 . S
C1596 C1592 1.368 . S
C1596 C1595 1.523 . S
H1597 C1572 0.950 . S
H1598 C1574 0.950 . S
H1599 C1575 0.949 . S
H1600 C1577 0.950 . S
H1601 C1579 0.950 . S
C1602 C1603 1.349 . S
C1602 C1604 1.327 . S
C1602 H1627 0.950 . S
C1603 C1602 1.349 . S
C1603 C1619 1.349 . S
C1604 C1602 1.327 . S
C1604 C1623 1.429 . S
C1604 H1628 0.950 . S
C1605 C1622 1.574 . S
C1605 C1624 1.368 . S
C1605 H1629 0.949 . S
H1606 C1610 0.949 . S
C1607 C1608 1.349 . S
C1607 C1609 1.327 . S
C1607 H1630 0.950 . S
C1608 C1607 1.349 . S
C1608 C1620 1.349 . S
C1609 C1607 1.327 . S
C1609 C1625 1.429 . S
C1609 H1631 0.950 . S
C1610 H1606 0.949 . S
C1610 C1618 1.574 . S
C1610 C1626 1.368 . S
H1611 C1619 0.950 . S
H1612 C1617 0.950 . S
H1613 C1618 0.949 . S
H1614 C1620 0.950 . S
H1615 C1621 0.950 . S
H1616 C1622 0.949 . S
C1617 H1612 0.950 . S
C1617 C1619 1.327 . S
C1617 C1623 1.429 . S
C1618 C1610 1.574 . S
C1618 H1613 0.949 . S
C1618 C1624 1.368 . S
C1619 C1603 1.349 . S
C1619 H1611 0.950 . S
C1619 C1617 1.327 . S
C1620 C1608 1.349 . S
C1620 H1614 0.950 . S
C1620 C1621 1.327 . S
C1621 H1615 0.950 . S
C1621 C1620 1.327 . S
C1621 C1625 1.429 . S
C1622 C1605 1.574 . S
C1622 H1616 0.949 . S
C1622 C1626 1.368 . S
C1623 C1604 1.429 . S
C1623 C1617 1.429 . S
C1623 C1624 1.523 . S
C1624 C1605 1.368 . S
C1624 C1618 1.368 . S
C1624 C1623 1.523 . S
C1625 C1609 1.429 . S
C1625 C1621 1.429 . S
C1625 C1626 1.523 . S
C1626 C1610 1.368 . S
C1626 C1622 1.368 . S
C1626 C1625 1.523 . S
H1627 C1602 0.950 . S
H1628 C1604 0.950 . S
H1629 C1605 0.949 . S
H1630 C1607 0.950 . S
H1631 C1609 0.950 . S
C1632 C1633 1.349 . S
C1632 C1634 1.327 . S
C1632 H1657 0.950 . S
C1633 C1632 1.349 . S
C1633 C1649 1.349 . S
C1634 C1632 1.327 . S
C1634 C1653 1.429 . S
C1634 H1658 0.950 . S
C1635 C1652 1.574 . S
C1635 C1654 1.368 . S
C1635 H1659 0.949 . S
H1636 C1640 0.949 . S
C1637 C1638 1.349 . S
C1637 C1639 1.327 . S
C1637 H1660 0.950 . S
C1638 C1637 1.349 . S
C1638 C1650 1.349 . S
C1639 C1637 1.327 . S
C1639 C1655 1.429 . S
C1639 H1661 0.950 . S
C1640 H1636 0.949 . S
C1640 C1648 1.574 . S
C1640 C1656 1.368 . S
H1641 C1649 0.950 . S
H1642 C1647 0.950 . S
H1643 C1648 0.949 . S
H1644 C1650 0.950 . S
H1645 C1651 0.950 . S
H1646 C1652 0.949 . S
C1647 H1642 0.950 . S
C1647 C1649 1.327 . S
C1647 C1653 1.429 . S
C1648 C1640 1.574 . S
C1648 H1643 0.949 . S
C1648 C1654 1.368 . S
C1649 C1633 1.349 . S
C1649 H1641 0.950 . S
C1649 C1647 1.327 . S
C1650 C1638 1.349 . S
C1650 H1644 0.950 . S
C1650 C1651 1.327 . S
C1651 H1645 0.950 . S
C1651 C1650 1.327 . S
C1651 C1655 1.429 . S
C1652 C1635 1.574 . S
C1652 H1646 0.949 . S
C1652 C1656 1.368 . S
C1653 C1634 1.429 . S
C1653 C1647 1.429 . S
C1653 C1654 1.523 . S
C1654 C1635 1.368 . S
C1654 C1648 1.368 . S
C1654 C1653 1.523 . S
C1655 C1639 1.429 . S
C1655 C1651 1.429 . S
C1655 C1656 1.523 . S
C1656 C1640 1.368 . S
C1656 C1652 1.368 . S
C1656 C1655 1.523 . S
H1657 C1632 0.950 . S
H1658 C1634 0.950 . S
H1659 C1635 0.949 . S
H1660 C1637 0.950 . S
H1661 C1639 0.950 . S
C1662 C1663 1.349 . S
C1662 C1664 1.327 . S
C1662 H1687 0.950 . S
C1663 C1662 1.349 . S
C1663 C1679 1.349 . S
C1664 C1662 1.327 . S
C1664 C1683 1.429 . S
C1664 H1688 0.950 . S
C1665 C1682 1.574 . S
C1665 C1684 1.368 . S
C1665 H1689 0.949 . S
H1666 C1670 0.949 . S
C1667 C1668 1.349 . S
C1667 C1669 1.327 . S
C1667 H1690 0.950 . S
C1668 C1667 1.349 . S
C1668 C1680 1.349 . S
C1669 C1667 1.327 . S
C1669 C1685 1.429 . S
C1669 H1691 0.950 . S
C1670 H1666 0.949 . S
C1670 C1678 1.574 . S
C1670 C1686 1.368 . S
H1671 C1679 0.950 . S
H1672 C1677 0.950 . S
H1673 C1678 0.949 . S
H1674 C1680 0.950 . S
H1675 C1681 0.950 . S
H1676 C1682 0.949 . S
C1677 H1672 0.950 . S
C1677 C1679 1.327 . S
C1677 C1683 1.429 . S
C1678 C1670 1.574 . S
C1678 H1673 0.949 . S
C1678 C1684 1.368 . S
C1679 C1663 1.349 . S
C1679 H1671 0.950 . S
C1679 C1677 1.327 . S
C1680 C1668 1.349 . S
C1680 H1674 0.950 . S
C1680 C1681 1.327 . S
C1681 H1675 0.950 . S
C1681 C1680 1.327 . S
C1681 C1685 1.429 . S
C1682 C1665 1.574 . S
C1682 H1676 0.949 . S
C1682 C1686 1.368 . S
C1683 C1664 1.429 . S
C1683 C1677 1.429 . S
C1683 C1684 1.523 . S
C1684 C1665 1.368 . S
C1684 C1678 1.368 . S
C1684 C1683 1.523 . S
C1685 C1669 1.429 . S
C1685 C1681 1.429 . S
C1685 C1686 1.523 . S
C1686 C1670 1.368 . S
C1686 C1682 1.368 . S
C1686 C1685 1.523 . S
H1687 C1662 0.950 . S
H1688 C1664 0.950 . S
H1689 C1665 0.949 . S
H1690 C1667 0.950 . S
H1691 C1669 0.950 . S
C1692 C1693 1.349 . S
C1692 C1694 1.327 . S
C1692 H1717 0.950 . S
C1693 C1692 1.349 . S
C1693 C1709 1.349 . S
C1694 C1692 1.327 . S
C1694 C1713 1.429 . S
C1694 H1718 0.950 . S
C1695 C1712 1.574 . S
C1695 C1714 1.368 . S
C1695 H1719 0.949 . S
H1696 C1700 0.949 . S
C1697 C1698 1.349 . S
C1697 C1699 1.327 . S
C1697 H1720 0.950 . S
C1698 C1697 1.349 . S
C1698 C1710 1.349 . S
C1699 C1697 1.327 . S
C1699 C1715 1.429 . S
C1699 H1721 0.950 . S
C1700 H1696 0.949 . S
C1700 C1708 1.574 . S
C1700 C1716 1.368 . S
H1701 C1709 0.950 . S
H1702 C1707 0.950 . S
H1703 C1708 0.949 . S
H1704 C1710 0.950 . S
H1705 C1711 0.950 . S
H1706 C1712 0.949 . S
C1707 H1702 0.950 . S
C1707 C1709 1.327 . S
C1707 C1713 1.429 . S
C1708 C1700 1.574 . S
C1708 H1703 0.949 . S
C1708 C1714 1.368 . S
C1709 C1693 1.349 . S
C1709 H1701 0.950 . S
C1709 C1707 1.327 . S
C1710 C1698 1.349 . S
C1710 H1704 0.950 . S
C1710 C1711 1.327 . S
C1711 H1705 0.950 . S
C1711 C1710 1.327 . S
C1711 C1715 1.429 . S
C1712 C1695 1.574 . S
C1712 H1706 0.949 . S
C1712 C1716 1.368 . S
C1713 C1694 1.429 . S
C1713 C1707 1.429 . S
C1713 C1714 1.523 . S
C1714 C1695 1.368 . S
C1714 C1708 1.368 . S
C1714 C1713 1.523 . S
C1715 C1699 1.429 . S
C1715 C1711 1.429 . S
C1715 C1716 1.523 . S
C1716 C1700 1.368 . S
C1716 C1712 1.368 . S
C1716 C1715 1.523 . S
H1717 C1692 0.950 . S
H1718 C1694 0.950 . S
H1719 C1695 0.949 . S
H1720 C1697 0.950 . S
H1721 C1699 0.950 . S
C1722 C1723 1.349 . S
C1722 C1724 1.327 . S
C1722 H1747 0.950 . S
C1723 C1722 1.349 . S
C1723 C1739 1.349 . S
C1724 C1722 1.327 . S
C1724 C1743 1.429 . S
C1724 H1748 0.950 . S
C1725 C1742 1.574 . S
C1725 C1744 1.368 . S
C1725 H1749 0.949 . S
H1726 C1730 0.949 . S
C1727 C1728 1.349 . S
C1727 C1729 1.327 . S
C1727 H1750 0.950 . S
C1728 C1727 1.349 . S
C1728 C1740 1.349 . S
C1729 C1727 1.327 . S
C1729 C1745 1.429 . S
C1729 H1751 0.950 . S
C1730 H1726 0.949 . S
C1730 C1738 1.574 . S
C1730 C1746 1.368 . S
H1731 C1739 0.950 . S
H1732 C1737 0.950 . S
H1733 C1738 0.949 . S
H1734 C1740 0.950 . S
H1735 C1741 0.950 . S
H1736 C1742 0.949 . S
C1737 H1732 0.950 . S
C1737 C1739 1.327 . S
C1737 C1743 1.429 . S
C1738 C1730 1.574 . S
C1738 H1733 0.949 . S
C1738 C1744 1.368 . S
C1739 C1723 1.349 . S
C1739 H1731 0.950 . S
C1739 C1737 1.327 . S
C1740 C1728 1.349 . S
C1740 H1734 0.950 . S
C1740 C1741 1.327 . S
C1741 H1735 0.950 . S
C1741 C1740 1.327 . S
C1741 C1745 1.429 . S
C1742 C1725 1.574 . S
C1742 H1736 0.949 . S
C1742 C1746 1.368 . S
C1743 C1724 1.429 . S
C1743 C1737 1.429 . S
C1743 C1744 1.523 . S
C1744 C1725 1.368 . S
C1744 C1738 1.368 . S
C1744 C1743 1.523 . S
C1745 C1729 1.429 . S
C1745 C1741 1.429 . S
C1745 C1746 1.523 . S
C1746 C1730 1.368 . S
C1746 C1742 1.368 . S
C1746 C1745 1.523 . S
H1747 C1722 0.950 . S
H1748 C1724 0.950 . S
H1749 C1725 0.949 . S
H1750 C1727 0.950 . S
H1751 C1729 0.950 . S
C313 C205 1.384 . S
C318 C10 1.384 . S
C343 C166 1.384 . S
C348 C17 1.384 . S
C373 C179 1.384 . S
C378 C36 1.384 . S
C403 C192 1.384 . S
C408 C43 1.384 . S
C433 C186 1.384 . S
C438 C23 1.384 . S
C463 C30 1.384 . S
C468 C199 1.384 . S
C493 C160 1.384 . S
C498 C49 1.384 . S
C523 C173 1.384 . S
C528 C4 1.384 . S
C553 C244 1.384 . S
C558 C56 1.384 . S
C583 C69 1.384 . S
C588 C251 1.384 . S
C613 C88 1.384 . S
C618 C212 1.384 . S
C643 C231 1.384 . S
C648 C101 1.384 . S
C673 C290 1.384 . S
C678 C114 1.384 . S
C703 C127 1.384 . S
C708 C309 1.384 . S
C733 C140 1.384 . S
C738 C264 1.384 . S
C763 C147 1.384 . S
C768 C283 1.384 . S
C793 C225 1.384 . S
C798 C153 1.384 . S
C823 C303 1.384 . S
C828 C75 1.384 . S
C853 C82 1.384 . S
C858 C270 1.384 . S
C883 C277 1.384 . S
C888 C95 1.384 . S
C913 C296 1.384 . S
C918 C62 1.384 . S
C943 C121 1.384 . S
C948 C257 1.384 . S
C973 C218 1.384 . S
C978 C134 1.384 . S
C1003 C238 1.384 . S
C1008 C108 1.384 . S
C1033 C3 0.964 . S
C1038 C55 0.964 . S
C1063 C68 0.964 . S
C1068 C18 0.964 . S
C1093 C29 0.964 . S
C1098 C83 0.964 . S
C1123 C44 0.964 . S
C1128 C96 0.964 . S
C1153 C109 0.964 . S
C1158 C16 0.964 . S
C1183 C122 0.964 . S
C1188 C31 0.964 . S
C1213 C135 0.964 . S
C1218 C42 0.964 . S
C1243 C5 0.964 . S
C1248 C146 0.964 . S
C1273 C148 0.964 . S
C1278 C57 0.964 . S
C1303 C70 0.964 . S
C1308 C107 0.964 . S
C1333 C81 0.964 . S
C1338 C120 0.964 . S
C1363 C133 0.964 . S
C1368 C94 0.964 . S
C1393 C211 0.964 . S
C1398 C161 0.964 . S
C1423 C226 0.964 . S
C1428 C174 0.964 . S
C1453 C187 0.964 . S
C1458 C239 0.964 . S
C1483 C200 0.964 . S
C1488 C250 0.964 . S
C1513 C172 0.964 . S
C1518 C263 0.964 . S
C1543 C185 0.964 . S
C1548 C278 0.964 . S
C1573 C289 0.964 . S
C1578 C198 0.964 . S
C1603 C159 0.964 . S
C1608 C304 0.964 . S
C1633 C213 0.964 . S
C1638 C302 0.964 . S
C1663 C265 0.964 . S
C1668 C224 0.964 . S
C1693 C237 0.964 . S
C1698 C276 0.964 . S
C1723 C291 0.964 . S
C1728 C252 0.964 . S
