# Generated by pormake.
# Topology nfb, (4)-cn, num edge types: 1
# Building blocks:
#     Node 0, Type 0, BuildingBlock: ICAMEG_clean_sbu_1, # of connection points: 4
#     Node 1, Type 0, BuildingBlock: ICAMEG_clean_sbu_1, # of connection points: 4
#     Node 2, Type 0, BuildingBlock: ICAMEG_clean_sbu_1, # of connection points: 4
#     Node 3, Type 0, BuildingBlock: ICAMEG_clean_sbu_1, # of connection points: 4
#     Node 4, Type 0, BuildingBlock: ICAMEG_clean_sbu_1, # of connection points: 4
#     Node 5, Type 0, BuildingBlock: ICAMEG_clean_sbu_1, # of connection points: 4
#     Node 6, Type 0, BuildingBlock: ICAMEG_clean_sbu_1, # of connection points: 4
#     Node 7, Type 0, BuildingBlock: ICAMEG_clean_sbu_1, # of connection points: 4
#     Node 8, Type 0, BuildingBlock: ICAMEG_clean_sbu_1, # of connection points: 4
#     Node 9, Type 0, BuildingBlock: ICAMEG_clean_sbu_1, # of connection points: 4
#     Node 10, Type 0, BuildingBlock: ICAMEG_clean_sbu_1, # of connection points: 4
#     Node 11, Type 0, BuildingBlock: ICAMEG_clean_sbu_1, # of connection points: 4
#     Node 12, Type 0, BuildingBlock: ICAMEG_clean_sbu_1, # of connection points: 4
#     Node 13, Type 0, BuildingBlock: ICAMEG_clean_sbu_1, # of connection points: 4
#     Node 14, Type 0, BuildingBlock: ICAMEG_clean_sbu_1, # of connection points: 4
#     Node 15, Type 0, BuildingBlock: ICAMEG_clean_sbu_1, # of connection points: 4
#     Node 16, Type 0, BuildingBlock: ICAMEG_clean_sbu_1, # of connection points: 4
#     Node 17, Type 0, BuildingBlock: ICAMEG_clean_sbu_1, # of connection points: 4
#     Node 18, Type 0, BuildingBlock: ICAMEG_clean_sbu_1, # of connection points: 4
#     Node 19, Type 0, BuildingBlock: ICAMEG_clean_sbu_1, # of connection points: 4
#     Node 20, Type 0, BuildingBlock: ICAMEG_clean_sbu_1, # of connection points: 4
#     Node 21, Type 0, BuildingBlock: ICAMEG_clean_sbu_1, # of connection points: 4
#     Node 22, Type 0, BuildingBlock: ICAMEG_clean_sbu_1, # of connection points: 4
#     Node 23, Type 0, BuildingBlock: ICAMEG_clean_sbu_1, # of connection points: 4
#     Node 24, Type 0, BuildingBlock: ICAMEG_clean_sbu_1, # of connection points: 4
#     Node 25, Type 0, BuildingBlock: ICAMEG_clean_sbu_1, # of connection points: 4
#     Node 26, Type 0, BuildingBlock: ICAMEG_clean_sbu_1, # of connection points: 4
#     Node 27, Type 0, BuildingBlock: ICAMEG_clean_sbu_1, # of connection points: 4
#     Node 28, Type 0, BuildingBlock: ICAMEG_clean_sbu_1, # of connection points: 4
#     Node 29, Type 0, BuildingBlock: ICAMEG_clean_sbu_1, # of connection points: 4
#     Node 30, Type 0, BuildingBlock: ICAMEG_clean_sbu_1, # of connection points: 4
#     Node 31, Type 0, BuildingBlock: ICAMEG_clean_sbu_1, # of connection points: 4
#     Node 32, Type 0, BuildingBlock: ICAMEG_clean_sbu_1, # of connection points: 4
#     Node 33, Type 0, BuildingBlock: ICAMEG_clean_sbu_1, # of connection points: 4
#     Node 34, Type 0, BuildingBlock: ICAMEG_clean_sbu_1, # of connection points: 4
#     Node 35, Type 0, BuildingBlock: ICAMEG_clean_sbu_1, # of connection points: 4
#     Node 36, Type 0, BuildingBlock: ICAMEG_clean_sbu_1, # of connection points: 4
#     Node 37, Type 0, BuildingBlock: ICAMEG_clean_sbu_1, # of connection points: 4
#     Node 38, Type 0, BuildingBlock: ICAMEG_clean_sbu_1, # of connection points: 4
#     Node 39, Type 0, BuildingBlock: ICAMEG_clean_sbu_1, # of connection points: 4
#     Node 40, Type 0, BuildingBlock: ICAMEG_clean_sbu_1, # of connection points: 4
#     Node 41, Type 0, BuildingBlock: ICAMEG_clean_sbu_1, # of connection points: 4
#     Node 42, Type 0, BuildingBlock: ICAMEG_clean_sbu_1, # of connection points: 4
#     Node 43, Type 0, BuildingBlock: ICAMEG_clean_sbu_1, # of connection points: 4
#     Node 44, Type 0, BuildingBlock: ICAMEG_clean_sbu_1, # of connection points: 4
#     Node 45, Type 0, BuildingBlock: ICAMEG_clean_sbu_1, # of connection points: 4
#     Node 46, Type 0, BuildingBlock: ICAMEG_clean_sbu_1, # of connection points: 4
#     Node 47, Type 0, BuildingBlock: ICAMEG_clean_sbu_1, # of connection points: 4
#     Edge 48, Type (0, 0), BuildingBlock: XUDNAN_clean_linker_2, # of connection points: 2
#     Edge 49, Type (0, 0), BuildingBlock: XUDNAN_clean_linker_2, # of connection points: 2
#     Edge 50, Type (0, 0), BuildingBlock: XUDNAN_clean_linker_2, # of connection points: 2
#     Edge 51, Type (0, 0), BuildingBlock: XUDNAN_clean_linker_2, # of connection points: 2
#     Edge 52, Type (0, 0), BuildingBlock: XUDNAN_clean_linker_2, # of connection points: 2
#     Edge 53, Type (0, 0), BuildingBlock: XUDNAN_clean_linker_2, # of connection points: 2
#     Edge 54, Type (0, 0), BuildingBlock: XUDNAN_clean_linker_2, # of connection points: 2
#     Edge 55, Type (0, 0), BuildingBlock: XUDNAN_clean_linker_2, # of connection points: 2
#     Edge 56, Type (0, 0), BuildingBlock: XUDNAN_clean_linker_2, # of connection points: 2
#     Edge 57, Type (0, 0), BuildingBlock: XUDNAN_clean_linker_2, # of connection points: 2
#     Edge 58, Type (0, 0), BuildingBlock: XUDNAN_clean_linker_2, # of connection points: 2
#     Edge 59, Type (0, 0), BuildingBlock: XUDNAN_clean_linker_2, # of connection points: 2
#     Edge 60, Type (0, 0), BuildingBlock: XUDNAN_clean_linker_2, # of connection points: 2
#     Edge 61, Type (0, 0), BuildingBlock: XUDNAN_clean_linker_2, # of connection points: 2
#     Edge 62, Type (0, 0), BuildingBlock: XUDNAN_clean_linker_2, # of connection points: 2
#     Edge 63, Type (0, 0), BuildingBlock: XUDNAN_clean_linker_2, # of connection points: 2
#     Edge 64, Type (0, 0), BuildingBlock: XUDNAN_clean_linker_2, # of connection points: 2
#     Edge 65, Type (0, 0), BuildingBlock: XUDNAN_clean_linker_2, # of connection points: 2
#     Edge 66, Type (0, 0), BuildingBlock: XUDNAN_clean_linker_2, # of connection points: 2
#     Edge 67, Type (0, 0), BuildingBlock: XUDNAN_clean_linker_2, # of connection points: 2
#     Edge 68, Type (0, 0), BuildingBlock: XUDNAN_clean_linker_2, # of connection points: 2
#     Edge 69, Type (0, 0), BuildingBlock: XUDNAN_clean_linker_2, # of connection points: 2
#     Edge 70, Type (0, 0), BuildingBlock: XUDNAN_clean_linker_2, # of connection points: 2
#     Edge 71, Type (0, 0), BuildingBlock: XUDNAN_clean_linker_2, # of connection points: 2
#     Edge 72, Type (0, 0), BuildingBlock: XUDNAN_clean_linker_2, # of connection points: 2
#     Edge 73, Type (0, 0), BuildingBlock: XUDNAN_clean_linker_2, # of connection points: 2
#     Edge 74, Type (0, 0), BuildingBlock: XUDNAN_clean_linker_2, # of connection points: 2
#     Edge 75, Type (0, 0), BuildingBlock: XUDNAN_clean_linker_2, # of connection points: 2
#     Edge 76, Type (0, 0), BuildingBlock: XUDNAN_clean_linker_2, # of connection points: 2
#     Edge 77, Type (0, 0), BuildingBlock: XUDNAN_clean_linker_2, # of connection points: 2
#     Edge 78, Type (0, 0), BuildingBlock: XUDNAN_clean_linker_2, # of connection points: 2
#     Edge 79, Type (0, 0), BuildingBlock: XUDNAN_clean_linker_2, # of connection points: 2
#     Edge 80, Type (0, 0), BuildingBlock: XUDNAN_clean_linker_2, # of connection points: 2
#     Edge 81, Type (0, 0), BuildingBlock: XUDNAN_clean_linker_2, # of connection points: 2
#     Edge 82, Type (0, 0), BuildingBlock: XUDNAN_clean_linker_2, # of connection points: 2
#     Edge 83, Type (0, 0), BuildingBlock: XUDNAN_clean_linker_2, # of connection points: 2
#     Edge 84, Type (0, 0), BuildingBlock: XUDNAN_clean_linker_2, # of connection points: 2
#     Edge 85, Type (0, 0), BuildingBlock: XUDNAN_clean_linker_2, # of connection points: 2
#     Edge 86, Type (0, 0), BuildingBlock: XUDNAN_clean_linker_2, # of connection points: 2
#     Edge 87, Type (0, 0), BuildingBlock: XUDNAN_clean_linker_2, # of connection points: 2
#     Edge 88, Type (0, 0), BuildingBlock: XUDNAN_clean_linker_2, # of connection points: 2
#     Edge 89, Type (0, 0), BuildingBlock: XUDNAN_clean_linker_2, # of connection points: 2
#     Edge 90, Type (0, 0), BuildingBlock: XUDNAN_clean_linker_2, # of connection points: 2
#     Edge 91, Type (0, 0), BuildingBlock: XUDNAN_clean_linker_2, # of connection points: 2
#     Edge 92, Type (0, 0), BuildingBlock: XUDNAN_clean_linker_2, # of connection points: 2
#     Edge 93, Type (0, 0), BuildingBlock: XUDNAN_clean_linker_2, # of connection points: 2
#     Edge 94, Type (0, 0), BuildingBlock: XUDNAN_clean_linker_2, # of connection points: 2
#     Edge 95, Type (0, 0), BuildingBlock: XUDNAN_clean_linker_2, # of connection points: 2
#     Edge 96, Type (0, 0), BuildingBlock: XUDNAN_clean_linker_2, # of connection points: 2
#     Edge 97, Type (0, 0), BuildingBlock: XUDNAN_clean_linker_2, # of connection points: 2
#     Edge 98, Type (0, 0), BuildingBlock: XUDNAN_clean_linker_2, # of connection points: 2
#     Edge 99, Type (0, 0), BuildingBlock: XUDNAN_clean_linker_2, # of connection points: 2
#     Edge 100, Type (0, 0), BuildingBlock: XUDNAN_clean_linker_2, # of connection points: 2
#     Edge 101, Type (0, 0), BuildingBlock: XUDNAN_clean_linker_2, # of connection points: 2
#     Edge 102, Type (0, 0), BuildingBlock: XUDNAN_clean_linker_2, # of connection points: 2
#     Edge 103, Type (0, 0), BuildingBlock: XUDNAN_clean_linker_2, # of connection points: 2
#     Edge 104, Type (0, 0), BuildingBlock: XUDNAN_clean_linker_2, # of connection points: 2
#     Edge 105, Type (0, 0), BuildingBlock: XUDNAN_clean_linker_2, # of connection points: 2
#     Edge 106, Type (0, 0), BuildingBlock: XUDNAN_clean_linker_2, # of connection points: 2
#     Edge 107, Type (0, 0), BuildingBlock: XUDNAN_clean_linker_2, # of connection points: 2
#     Edge 108, Type (0, 0), BuildingBlock: XUDNAN_clean_linker_2, # of connection points: 2
#     Edge 109, Type (0, 0), BuildingBlock: XUDNAN_clean_linker_2, # of connection points: 2
#     Edge 110, Type (0, 0), BuildingBlock: XUDNAN_clean_linker_2, # of connection points: 2
#     Edge 111, Type (0, 0), BuildingBlock: XUDNAN_clean_linker_2, # of connection points: 2
#     Edge 112, Type (0, 0), BuildingBlock: XUDNAN_clean_linker_2, # of connection points: 2
#     Edge 113, Type (0, 0), BuildingBlock: XUDNAN_clean_linker_2, # of connection points: 2
#     Edge 114, Type (0, 0), BuildingBlock: XUDNAN_clean_linker_2, # of connection points: 2
#     Edge 115, Type (0, 0), BuildingBlock: XUDNAN_clean_linker_2, # of connection points: 2
#     Edge 116, Type (0, 0), BuildingBlock: XUDNAN_clean_linker_2, # of connection points: 2
#     Edge 117, Type (0, 0), BuildingBlock: XUDNAN_clean_linker_2, # of connection points: 2
#     Edge 118, Type (0, 0), BuildingBlock: XUDNAN_clean_linker_2, # of connection points: 2
#     Edge 119, Type (0, 0), BuildingBlock: XUDNAN_clean_linker_2, # of connection points: 2
#     Edge 120, Type (0, 0), BuildingBlock: XUDNAN_clean_linker_2, # of connection points: 2
#     Edge 121, Type (0, 0), BuildingBlock: XUDNAN_clean_linker_2, # of connection points: 2
#     Edge 122, Type (0, 0), BuildingBlock: XUDNAN_clean_linker_2, # of connection points: 2
#     Edge 123, Type (0, 0), BuildingBlock: XUDNAN_clean_linker_2, # of connection points: 2
#     Edge 124, Type (0, 0), BuildingBlock: XUDNAN_clean_linker_2, # of connection points: 2
#     Edge 125, Type (0, 0), BuildingBlock: XUDNAN_clean_linker_2, # of connection points: 2
#     Edge 126, Type (0, 0), BuildingBlock: XUDNAN_clean_linker_2, # of connection points: 2
#     Edge 127, Type (0, 0), BuildingBlock: XUDNAN_clean_linker_2, # of connection points: 2
#     Edge 128, Type (0, 0), BuildingBlock: XUDNAN_clean_linker_2, # of connection points: 2
#     Edge 129, Type (0, 0), BuildingBlock: XUDNAN_clean_linker_2, # of connection points: 2
#     Edge 130, Type (0, 0), BuildingBlock: XUDNAN_clean_linker_2, # of connection points: 2
#     Edge 131, Type (0, 0), BuildingBlock: XUDNAN_clean_linker_2, # of connection points: 2
#     Edge 132, Type (0, 0), BuildingBlock: XUDNAN_clean_linker_2, # of connection points: 2
#     Edge 133, Type (0, 0), BuildingBlock: XUDNAN_clean_linker_2, # of connection points: 2
#     Edge 134, Type (0, 0), BuildingBlock: XUDNAN_clean_linker_2, # of connection points: 2
#     Edge 135, Type (0, 0), BuildingBlock: XUDNAN_clean_linker_2, # of connection points: 2
#     Edge 136, Type (0, 0), BuildingBlock: XUDNAN_clean_linker_2, # of connection points: 2
#     Edge 137, Type (0, 0), BuildingBlock: XUDNAN_clean_linker_2, # of connection points: 2
#     Edge 138, Type (0, 0), BuildingBlock: XUDNAN_clean_linker_2, # of connection points: 2
#     Edge 139, Type (0, 0), BuildingBlock: XUDNAN_clean_linker_2, # of connection points: 2
#     Edge 140, Type (0, 0), BuildingBlock: XUDNAN_clean_linker_2, # of connection points: 2
#     Edge 141, Type (0, 0), BuildingBlock: XUDNAN_clean_linker_2, # of connection points: 2
#     Edge 142, Type (0, 0), BuildingBlock: XUDNAN_clean_linker_2, # of connection points: 2
#     Edge 143, Type (0, 0), BuildingBlock: XUDNAN_clean_linker_2, # of connection points: 2
# Relax obj value: 0.318
# Max RMSD: 0.135
# Mean RMSD: 0.107
data_MOF--net-nfb--node1-ICAMEG_clean_sbu_1--edge1-XUDNAN_clean_linker_2
_symmetry_space_group_name_H-M    P1
_symmetry_Int_Tables_number       1
_symmetry_cell_setting            triclinic
loop_
_symmetry_equiv_pos_as_xyz
'x, y, z'
_cell_length_a     62.559695
_cell_length_b     62.623869
_cell_length_c     62.539223
_cell_angle_alpha  90.495078
_cell_angle_beta   91.542387
_cell_angle_gamma 93.086729
loop_
_atom_site_label
_atom_site_type_symbol
_atom_site_fract_x
_atom_site_fract_y
_atom_site_fract_z
_atom_type_partial_charge
Co0 Co 0.12265 0.10656 0.39409 0.0
Co1 Co 0.10747 0.14518 0.4291 0.0
O2 O 0.12625 0.13516 0.407 0.0
C3 C 0.16968 0.11149 0.40649 0.0
O4 O 0.16429 0.11988 0.42474 0.0
C5 C 0.10998 0.17997 0.39735 0.0
O6 O 0.10895 0.16536 0.38215 0.0
O7 O 0.08168 0.13786 0.41077 0.0
O8 O 0.09002 0.10716 0.39499 0.0
H9 H 0.04399 0.14013 0.47682 0.0
H10 H 0.15006 0.13942 0.3725 0.0
O11 O 0.15507 0.10519 0.39273 0.0
H12 H 0.09223 0.11866 0.32007 0.0
H13 H 0.13934 0.04863 0.34177 0.0
H14 H 0.09465 0.0679 0.40202 0.0
H15 H 0.09358 0.10175 0.3555 0.0
H16 H 0.14399 0.08432 0.35882 0.0
O17 O 0.10936 0.17464 0.41692 0.0
H18 H 0.06787 0.12757 0.44919 0.0
H19 H 0.10716 0.18482 0.45589 0.0
H20 H 0.08935 0.03209 0.38532 0.0
H21 H 0.14952 0.1565 0.33712 0.0
H22 H 0.11158 0.02241 0.35477 0.0
H23 H 0.12039 0.1462 0.31065 0.0
O24 O 0.12351 0.09316 0.42286 0.0
H25 H 0.18148 0.17758 0.44533 0.0
H26 H 0.11975 0.13622 0.47444 0.0
H27 H 0.15177 0.14443 0.4975 0.0
H28 H 0.18292 0.16528 0.48297 0.0
H29 H 0.14918 0.16885 0.42275 0.0
H30 H 0.08364 0.19803 0.48354 0.0
H31 H 0.0518 0.1756 0.49418 0.0
O32 O 0.10502 0.11614 0.44185 0.0
C33 C 0.07632 0.12066 0.40044 0.0
C34 C 0.05781 0.15005 0.47231 0.0
C35 C 0.08005 0.18255 0.47607 0.0
N36 N 0.08894 0.1554 0.45095 0.0
C37 C 0.07144 0.14299 0.45672 0.0
C38 C 0.09329 0.175 0.46036 0.0
C39 C 0.06219 0.16996 0.48204 0.0
C40 C 0.13748 0.13466 0.36098 0.0
N41 N 0.12189 0.11959 0.36606 0.0
C42 C 0.1372 0.14448 0.34101 0.0
C43 C 0.12082 0.13873 0.32619 0.0
C44 C 0.105 0.1233 0.33147 0.0
C45 C 0.10579 0.11385 0.3516 0.0
C46 C 0.12945 0.05273 0.35498 0.0
C47 C 0.10443 0.06376 0.38877 0.0
C48 C 0.13207 0.07288 0.36475 0.0
N49 N 0.11945 0.07824 0.38125 0.0
C50 C 0.10137 0.04346 0.3794 0.0
C51 C 0.11389 0.03801 0.3623 0.0
C52 C 0.11328 0.09815 0.43936 0.0
C53 C 0.16798 0.16854 0.45186 0.0
C54 C 0.13327 0.14522 0.46795 0.0
C55 C 0.15133 0.14987 0.48112 0.0
C56 C 0.1688 0.1616 0.47297 0.0
N57 N 0.13257 0.15211 0.44726 0.0
C58 C 0.14962 0.16364 0.43917 0.0
Co59 Co 0.37558 0.64925 0.91764 0.0
Co60 Co 0.36999 0.63296 0.86561 0.0
O61 O 0.38293 0.63072 0.89412 0.0
C62 C 0.4183 0.66254 0.93621 0.0
O63 O 0.41453 0.68235 0.93123 0.0
C64 C 0.36438 0.58661 0.87581 0.0
O65 O 0.35607 0.59279 0.89374 0.0
O66 O 0.34092 0.62982 0.87758 0.0
O67 O 0.34539 0.65113 0.90653 0.0
H68 H 0.3177 0.65937 0.81086 0.0
H69 H 0.39482 0.6079 0.92685 0.0
O70 O 0.40546 0.64732 0.92944 0.0
H71 H 0.32576 0.60431 0.96316 0.0
H72 H 0.37655 0.67325 0.99487 0.0
H73 H 0.35322 0.68968 0.92115 0.0
H74 H 0.3372 0.63637 0.94297 0.0
H75 H 0.38366 0.64892 0.96503 0.0
O76 O 0.37056 0.60066 0.86223 0.0
H77 H 0.33488 0.65727 0.84669 0.0
H78 H 0.37682 0.61167 0.82375 0.0
H79 H 0.34577 0.71448 0.95052 0.0
H80 H 0.384 0.57555 0.94691 0.0
H81 H 0.35763 0.70645 0.98765 0.0
H82 H 0.34926 0.57363 0.96529 0.0
O83 O 0.38429 0.67471 0.90053 0.0
H84 H 0.44638 0.61407 0.85728 0.0
H85 H 0.3911 0.66326 0.8352 0.0
H86 H 0.42735 0.66796 0.82079 0.0
H87 H 0.45527 0.6432 0.83178 0.0
H88 H 0.40997 0.61007 0.87145 0.0
H89 H 0.36 0.61316 0.78768 0.0
H90 H 0.33027 0.63721 0.78105 0.0
O91 O 0.36922 0.66539 0.86859 0.0
C92 C 0.33348 0.64078 0.89267 0.0
C93 C 0.3307 0.6489 0.81353 0.0
C94 C 0.35442 0.62294 0.80053 0.0
N95 N 0.35697 0.63453 0.83724 0.0
C96 C 0.34054 0.6477 0.83376 0.0
C97 C 0.36386 0.62213 0.82098 0.0
C98 C 0.33774 0.63644 0.79682 0.0
C99 C 0.37975 0.60727 0.93493 0.0
N100 N 0.36675 0.6241 0.93384 0.0
C101 C 0.37366 0.58885 0.94618 0.0
C102 C 0.35415 0.58777 0.95645 0.0
C103 C 0.34095 0.60497 0.95526 0.0
C104 C 0.3475 0.62307 0.94374 0.0
C105 C 0.37135 0.67698 0.97875 0.0
C106 C 0.35835 0.686 0.93728 0.0
C107 C 0.37534 0.66326 0.96177 0.0
N108 N 0.36897 0.66791 0.94132 0.0
C109 C 0.35408 0.70011 0.95385 0.0
C110 C 0.36071 0.69557 0.97469 0.0
C111 C 0.37711 0.67953 0.88202 0.0
C112 C 0.43434 0.62492 0.85233 0.0
C113 C 0.40319 0.65248 0.84013 0.0
C114 C 0.42367 0.65519 0.83187 0.0
C115 C 0.43932 0.64128 0.83804 0.0
N116 N 0.39841 0.63633 0.85406 0.0
C117 C 0.41369 0.62269 0.86025 0.0
Co118 Co 0.88187 0.91484 0.40367 0.0
Co119 Co 0.89721 0.8751 0.4374 0.0
O120 O 0.87876 0.8858 0.41469 0.0
C121 C 0.8352 0.90896 0.41409 0.0
O122 O 0.84124 0.90053 0.43226 0.0
C123 C 0.89924 0.84277 0.40309 0.0
O124 O 0.90387 0.85867 0.39015 0.0
O125 O 0.92331 0.88402 0.42168 0.0
O126 O 0.91459 0.9147 0.40614 0.0
H127 H 0.96155 0.87722 0.48728 0.0
H128 H 0.8556 0.88174 0.37923 0.0
O129 O 0.84937 0.9156 0.40089 0.0
H130 H 0.91232 0.90643 0.33056 0.0
H131 H 0.86237 0.97507 0.35531 0.0
H132 H 0.9092 0.95359 0.41516 0.0
H133 H 0.91039 0.92222 0.36668 0.0
H134 H 0.85974 0.93815 0.36888 0.0
O135 O 0.89604 0.84649 0.42275 0.0
H136 H 0.93641 0.89194 0.461 0.0
H137 H 0.89762 0.83415 0.46133 0.0
H138 H 0.91254 0.99061 0.40194 0.0
H139 H 0.85681 0.86563 0.34317 0.0
H140 H 0.88899 1.00155 0.37182 0.0
H141 H 0.88538 0.87794 0.31859 0.0
O142 O 0.88081 0.92706 0.43308 0.0
H143 H 0.82356 0.84045 0.44565 0.0
H144 H 0.88371 0.88121 0.48229 0.0
H145 H 0.85125 0.87128 0.50222 0.0
H146 H 0.8209 0.8507 0.48391 0.0
H147 H 0.85623 0.85095 0.42622 0.0
H148 H 0.9221 0.81897 0.48804 0.0
H149 H 0.95446 0.84045 0.50099 0.0
O150 O 0.89879 0.90342 0.45245 0.0
C151 C 0.92846 0.90136 0.4121 0.0
C152 C 0.94748 0.8677 0.48179 0.0
C153 C 0.92535 0.835 0.48219 0.0
N154 N 0.91556 0.86393 0.45964 0.0
C155 C 0.93315 0.87597 0.46694 0.0
C156 C 0.91153 0.84369 0.4671 0.0
C157 C 0.94351 0.84707 0.48945 0.0
C158 C 0.86795 0.88731 0.36854 0.0
N159 N 0.88285 0.90295 0.37501 0.0
C160 C 0.86861 0.87808 0.34818 0.0
C161 C 0.88466 0.88496 0.33441 0.0
C162 C 0.89979 0.90094 0.34112 0.0
C163 C 0.89865 0.90978 0.36161 0.0
C164 C 0.87275 0.97048 0.36841 0.0
C165 C 0.89902 0.9582 0.40193 0.0
C166 C 0.87131 0.94962 0.37619 0.0
N167 N 0.88441 0.94371 0.39269 0.0
C168 C 0.90093 0.97919 0.39456 0.0
C169 C 0.88769 0.98533 0.37768 0.0
C170 C 0.89048 0.92146 0.45013 0.0
C171 C 0.83671 0.84936 0.45382 0.0
C172 C 0.87053 0.87234 0.47416 0.0
C173 C 0.85222 0.8667 0.48557 0.0
C174 C 0.83521 0.85514 0.47528 0.0
N175 N 0.87187 0.86663 0.45311 0.0
C176 C 0.85528 0.85526 0.44293 0.0
Co177 Co 0.67139 0.36084 0.91075 0.0
Co178 Co 0.65161 0.37416 0.86113 0.0
O179 O 0.65195 0.37647 0.89237 0.0
C180 C 0.62861 0.35582 0.9312 0.0
O181 O 0.61842 0.35704 0.9127 0.0
C182 C 0.65714 0.42089 0.87029 0.0
O183 O 0.67208 0.41573 0.88414 0.0
O184 O 0.6829 0.38088 0.8608 0.0
O185 O 0.69498 0.36413 0.88983 0.0
H186 H 0.67758 0.3496 0.7902 0.0
H187 H 0.65007 0.39802 0.92847 0.0
O188 O 0.64896 0.35712 0.93258 0.0
H189 H 0.72749 0.41628 0.93724 0.0
H190 H 0.70473 0.34043 0.98135 0.0
H191 H 0.70188 0.32705 0.90346 0.0
H192 H 0.71454 0.38158 0.92158 0.0
H193 H 0.68114 0.36067 0.95775 0.0
O194 O 0.64698 0.40612 0.85921 0.0
H195 H 0.67747 0.35212 0.8296 0.0
H196 H 0.62527 0.3927 0.82626 0.0
H197 H 0.72592 0.30665 0.92646 0.0
H198 H 0.66234 0.43283 0.94447 0.0
H199 H 0.72743 0.31328 0.96571 0.0
H200 H 0.7013 0.44221 0.94882 0.0
O201 O 0.6608 0.33344 0.89718 0.0
H202 H 0.57634 0.38704 0.88197 0.0
H203 H 0.62189 0.34021 0.8414 0.0
H204 H 0.58293 0.33189 0.84191 0.0
H205 H 0.55986 0.35543 0.86225 0.0
H206 H 0.61543 0.39456 0.88133 0.0
H207 H 0.6249 0.39077 0.78682 0.0
H208 H 0.65115 0.36902 0.76855 0.0
O209 O 0.65646 0.34212 0.86254 0.0
C210 C 0.69807 0.3744 0.87259 0.0
C211 C 0.66601 0.35906 0.79798 0.0
C212 C 0.63646 0.38219 0.79608 0.0
N213 N 0.65125 0.37237 0.83018 0.0
C214 C 0.66583 0.36049 0.82027 0.0
C215 C 0.63677 0.38325 0.8184 0.0
C216 C 0.65119 0.36998 0.78584 0.0
C217 C 0.66705 0.40186 0.93058 0.0
N218 N 0.68154 0.38775 0.92411 0.0
C219 C 0.6739 0.42164 0.93955 0.0
C220 C 0.69576 0.42691 0.94194 0.0
C221 C 0.71046 0.41239 0.93543 0.0
C222 C 0.70302 0.39277 0.9265 0.0
C223 C 0.70426 0.33744 0.96427 0.0
C224 C 0.70258 0.33015 0.92051 0.0
C225 C 0.6909 0.34882 0.95082 0.0
N226 N 0.69027 0.34517 0.92922 0.0
C227 C 0.71617 0.3185 0.93346 0.0
C228 C 0.71699 0.32221 0.95548 0.0
C229 C 0.65776 0.3283 0.87755 0.0
C230 C 0.58621 0.37668 0.87302 0.0
C231 C 0.61199 0.35042 0.85045 0.0
C232 C 0.58992 0.34568 0.8506 0.0
C233 C 0.57699 0.35892 0.86198 0.0
N234 N 0.62092 0.36784 0.86135 0.0
C235 C 0.60834 0.38092 0.8725 0.0
Co236 Co 0.14714 0.866 0.65684 0.0
Co237 Co 0.16061 0.86644 0.60415 0.0
O238 O 0.14348 0.87641 0.62754 0.0
C239 C 0.10046 0.8618 0.64704 0.0
O240 O 0.10557 0.85321 0.6288 0.0
C241 C 0.15394 0.91332 0.59506 0.0
O242 O 0.1436 0.91619 0.61273 0.0
O243 O 0.18707 0.87561 0.62047 0.0
O244 O 0.17936 0.86426 0.65345 0.0
H245 H 0.22205 0.82909 0.57338 0.0
H246 H 0.12392 0.90564 0.6505 0.0
O247 O 0.11517 0.8675 0.66081 0.0
H248 H 0.18639 0.92672 0.6972 0.0
H249 H 0.13202 0.86387 0.73545 0.0
H250 H 0.17185 0.83218 0.67719 0.0
H251 H 0.18017 0.88938 0.68478 0.0
H252 H 0.12859 0.87726 0.69859 0.0
O253 O 0.16106 0.89522 0.59039 0.0
H254 H 0.19884 0.84059 0.60207 0.0
H255 H 0.16026 0.87237 0.55678 0.0
H256 H 0.17586 0.81839 0.71383 0.0
H257 H 0.12938 0.94312 0.66276 0.0
H258 H 0.15585 0.83427 0.74326 0.0
H259 H 0.16086 0.95389 0.68622 0.0
O260 O 0.14247 0.83591 0.6467 0.0
H261 H 0.08614 0.87511 0.57377 0.0
H262 H 0.14568 0.82688 0.58013 0.0
H263 H 0.1128 0.81496 0.55989 0.0
H264 H 0.08277 0.83919 0.55648 0.0
H265 H 0.11908 0.88623 0.59412 0.0
H266 H 0.18304 0.8612 0.52764 0.0
H267 H 0.21427 0.83946 0.53586 0.0
O268 O 0.1612 0.83705 0.61668 0.0
C269 C 0.19279 0.8706 0.63937 0.0
C270 C 0.20847 0.83851 0.56958 0.0
C271 C 0.18661 0.85655 0.54391 0.0
N272 N 0.17808 0.85695 0.5811 0.0
C273 C 0.19522 0.84501 0.58575 0.0
C274 C 0.17376 0.86283 0.5605 0.0
C275 C 0.20409 0.84434 0.54853 0.0
C276 C 0.13758 0.91017 0.6608 0.0
N277 N 0.15175 0.89535 0.66682 0.0
C278 C 0.14063 0.93143 0.66765 0.0
C279 C 0.1583 0.93747 0.68079 0.0
C280 C 0.17265 0.92224 0.68693 0.0
C281 C 0.1691 0.90114 0.67975 0.0
C282 C 0.14086 0.85685 0.72277 0.0
C283 C 0.16321 0.83927 0.68994 0.0
C284 C 0.13896 0.86435 0.70187 0.0
N285 N 0.15017 0.85563 0.68581 0.0
C286 C 0.16549 0.83135 0.71064 0.0
C287 C 0.15424 0.84025 0.72714 0.0
C288 C 0.15165 0.82674 0.63147 0.0
C289 C 0.09919 0.86448 0.57496 0.0
C290 C 0.13269 0.83753 0.5788 0.0
C291 C 0.11411 0.83069 0.56726 0.0
C292 C 0.09728 0.8443 0.56534 0.0
N293 N 0.13455 0.85743 0.58809 0.0
C294 C 0.11803 0.87079 0.58634 0.0
Co295 Co 0.64923 0.61542 0.08632 0.0
Co296 Co 0.60803 0.63448 0.11483 0.0
O297 O 0.63757 0.63646 0.10528 0.0
C298 C 0.68111 0.61957 0.12193 0.0
O299 O 0.66516 0.61665 0.13501 0.0
C300 C 0.61445 0.67802 0.09698 0.0
O301 O 0.62161 0.66805 0.08031 0.0
O302 O 0.59679 0.63142 0.08475 0.0
O303 O 0.62129 0.61101 0.07048 0.0
H304 H 0.53226 0.6037 0.11696 0.0
H305 H 0.67245 0.65786 0.09153 0.0
O306 O 0.67754 0.61939 0.1018 0.0
H307 H 0.65401 0.65087 0.01451 0.0
H308 H 0.70622 0.58594 0.04086 0.0
H309 H 0.63368 0.57305 0.06861 0.0
H310 H 0.6437 0.62199 0.03936 0.0
H311 H 0.69075 0.61254 0.06439 0.0
O312 O 0.60741 0.66702 0.11272 0.0
H313 H 0.56971 0.60564 0.10536 0.0
H314 H 0.58345 0.66071 0.14446 0.0
H315 H 0.64856 0.54602 0.04519 0.0
H316 H 0.68336 0.68701 0.06717 0.0
H317 H 0.68505 0.55242 0.03107 0.0
H318 H 0.67406 0.68364 0.02837 0.0
O319 O 0.64039 0.59205 0.10587 0.0
H320 H 0.65479 0.66729 0.17431 0.0
H321 H 0.59952 0.61074 0.15507 0.0
H322 H 0.61391 0.61347 0.19217 0.0
H323 H 0.64172 0.64193 0.20199 0.0
H324 H 0.64009 0.66386 0.13736 0.0
H325 H 0.5461 0.6595 0.15634 0.0
H326 H 0.52024 0.63079 0.1426 0.0
O327 O 0.6084 0.60185 0.11695 0.0
C328 C 0.60305 0.61917 0.07008 0.0
C329 C 0.54339 0.61625 0.1231 0.0
C330 C 0.55115 0.64759 0.14518 0.0
N331 N 0.57876 0.63317 0.12435 0.0
C332 C 0.56463 0.61739 0.11664 0.0
C333 C 0.57226 0.64822 0.13836 0.0
C334 C 0.53665 0.63147 0.13748 0.0
C335 C 0.66854 0.65619 0.07464 0.0
N336 N 0.65753 0.63821 0.06689 0.0
C337 C 0.67468 0.67278 0.06093 0.0
C338 C 0.66942 0.6709 0.03917 0.0
C339 C 0.65814 0.65254 0.03139 0.0
C340 C 0.65227 0.63627 0.04556 0.0
C341 C 0.69029 0.58298 0.04688 0.0
C342 C 0.64955 0.57599 0.06251 0.0
C343 C 0.68145 0.59797 0.06024 0.0
N344 N 0.66125 0.59444 0.06775 0.0
C345 C 0.65792 0.56059 0.04929 0.0
C346 C 0.6784 0.56418 0.0414 0.0
C347 C 0.62234 0.58772 0.11429 0.0
C348 C 0.64262 0.65486 0.17024 0.0
C349 C 0.61166 0.62313 0.15922 0.0
C350 C 0.61971 0.62463 0.18025 0.0
C351 C 0.63531 0.64061 0.18576 0.0
N352 N 0.61889 0.6372 0.14411 0.0
C353 C 0.63417 0.65291 0.14937 0.0
Co354 Co 0.88256 0.12763 0.65582 0.0
Co355 Co 0.86737 0.13711 0.60361 0.0
O356 O 0.88434 0.12242 0.62502 0.0
C357 C 0.92848 0.13483 0.64643 0.0
O358 O 0.92181 0.14696 0.63089 0.0
C359 C 0.869 0.09133 0.5874 0.0
O360 O 0.87935 0.085 0.60451 0.0
O361 O 0.84075 0.12811 0.61822 0.0
O362 O 0.85025 0.1299 0.6532 0.0
H363 H 0.8099 0.18501 0.57886 0.0
H364 H 0.90555 0.08989 0.64185 0.0
O365 O 0.91482 0.12573 0.65873 0.0
H366 H 0.84538 0.06075 0.68396 0.0
H367 H 0.90254 0.11586 0.73313 0.0
H368 H 0.85908 0.15701 0.68294 0.0
H369 H 0.85088 0.09962 0.67882 0.0
H370 H 0.90374 0.10938 0.69422 0.0
O371 O 0.86381 0.11063 0.58546 0.0
H372 H 0.83193 0.16666 0.60555 0.0
H373 H 0.86582 0.13787 0.55592 0.0
H374 H 0.85725 0.16391 0.72173 0.0
H375 H 0.90083 0.05093 0.64687 0.0
H376 H 0.87909 0.14325 0.74712 0.0
H377 H 0.87051 0.03611 0.66798 0.0
O378 O 0.88676 0.15896 0.65192 0.0
H379 H 0.93994 0.12627 0.57345 0.0
H380 H 0.88518 0.17833 0.5862 0.0
H381 H 0.9187 0.19016 0.56905 0.0
H382 H 0.94638 0.16404 0.56252 0.0
H383 H 0.90638 0.11518 0.59079 0.0
H384 H 0.8442 0.15583 0.5288 0.0
H385 H 0.81597 0.17964 0.54012 0.0
O386 O 0.86992 0.16439 0.62055 0.0
C387 C 0.8361 0.12818 0.63793 0.0
C388 C 0.82216 0.17472 0.57369 0.0
C389 C 0.84136 0.15833 0.54557 0.0
N390 N 0.85028 0.15138 0.58232 0.0
C391 C 0.83472 0.16433 0.58873 0.0
C392 C 0.85356 0.14817 0.56104 0.0
C393 C 0.82556 0.17169 0.55196 0.0
C394 C 0.89241 0.08359 0.6512 0.0
N395 N 0.87846 0.09703 0.65994 0.0
C396 C 0.88978 0.0615 0.65392 0.0
C397 C 0.87274 0.05319 0.66574 0.0
C398 C 0.85862 0.067 0.67468 0.0
C399 C 0.86175 0.089 0.6716 0.0
C400 C 0.89291 0.12493 0.72224 0.0
C401 C 0.86851 0.14786 0.69391 0.0
C402 C 0.89355 0.12135 0.7002 0.0
N403 N 0.88133 0.13267 0.68637 0.0
C404 C 0.86746 0.15188 0.71584 0.0
C405 C 0.87974 0.1403 0.73007 0.0
C406 C 0.87922 0.17124 0.63783 0.0
C407 C 0.92793 0.13776 0.57604 0.0
C408 C 0.89709 0.16681 0.58341 0.0
C409 C 0.91606 0.17363 0.57365 0.0
C410 C 0.93156 0.15897 0.56997 0.0
N411 N 0.89358 0.14595 0.58926 0.0
C412 C 0.90876 0.13151 0.58572 0.0
Co413 Co 0.36786 0.394 0.08146 0.0
Co414 Co 0.40657 0.3808 0.11923 0.0
O415 O 0.37768 0.37746 0.10594 0.0
C416 C 0.33169 0.39383 0.11271 0.0
O417 O 0.34143 0.38176 0.12649 0.0
C418 C 0.40109 0.33403 0.10681 0.0
O419 O 0.39196 0.3398 0.08878 0.0
O420 O 0.42059 0.38055 0.09089 0.0
O421 O 0.39521 0.39011 0.06723 0.0
H422 H 0.48158 0.413 0.12899 0.0
H423 H 0.34226 0.35533 0.09621 0.0
O424 O 0.33996 0.39905 0.095 0.0
H425 H 0.35468 0.34218 0.01993 0.0
H426 H 0.31409 0.41945 0.02724 0.0
H427 H 0.3887 0.4275 0.05481 0.0
H428 H 0.36923 0.37539 0.03765 0.0
H429 H 0.32662 0.39663 0.0565 0.0
O430 O 0.40796 0.34835 0.12049 0.0
H431 H 0.44537 0.40899 0.11229 0.0
H432 H 0.42865 0.35865 0.15479 0.0
H433 H 0.37689 0.45049 0.02546 0.0
H434 H 0.32766 0.32196 0.07923 0.0
H435 H 0.33927 0.44678 0.01172 0.0
H436 H 0.33384 0.31515 0.04077 0.0
O437 O 0.37954 0.42115 0.09491 0.0
H438 H 0.35703 0.35252 0.17559 0.0
H439 H 0.41105 0.40934 0.1577 0.0
H440 H 0.39424 0.40998 0.19288 0.0
H441 H 0.36707 0.38138 0.20205 0.0
H442 H 0.37398 0.35271 0.14044 0.0
H443 H 0.4647 0.36199 0.17183 0.0
H444 H 0.49139 0.38939 0.15904 0.0
O445 O 0.40578 0.41329 0.11826 0.0
C446 C 0.41409 0.38497 0.07207 0.0
C447 C 0.47005 0.40105 0.13478 0.0
C448 C 0.46059 0.37239 0.1588 0.0
N449 N 0.43488 0.38372 0.13267 0.0
C450 C 0.44951 0.39875 0.12542 0.0
C451 C 0.44022 0.37055 0.14906 0.0
C452 C 0.47556 0.38778 0.1516 0.0
C453 C 0.3448 0.35277 0.07946 0.0
N454 N 0.35621 0.36764 0.0679 0.0
C455 C 0.33661 0.33369 0.06993 0.0
C456 C 0.34014 0.32985 0.04838 0.0
C457 C 0.35188 0.34499 0.03669 0.0
C458 C 0.36 0.3638 0.04681 0.0
C459 C 0.33051 0.42126 0.03316 0.0
C460 C 0.37239 0.42551 0.04866 0.0
C461 C 0.33769 0.4084 0.04971 0.0
N462 N 0.3584 0.41066 0.05729 0.0
C463 C 0.36577 0.43866 0.03211 0.0
C464 C 0.34465 0.43657 0.02442 0.0
C465 C 0.39439 0.42679 0.10844 0.0
C466 C 0.36887 0.36507 0.17179 0.0
C467 C 0.39907 0.39697 0.16146 0.0
C468 C 0.38969 0.39735 0.18146 0.0
C469 C 0.37448 0.38128 0.18662 0.0
N470 N 0.39344 0.38104 0.14698 0.0
C471 C 0.37859 0.3652 0.15194 0.0
Co472 Co 0.42678 0.1125 0.14196 0.0
Co473 Co 0.38885 0.13112 0.10681 0.0
O474 O 0.40461 0.13206 0.13427 0.0
C475 C 0.39749 0.1122 0.1781 0.0
O476 O 0.38158 0.11145 0.16398 0.0
C477 C 0.40717 0.17575 0.11175 0.0
O478 O 0.42514 0.1666 0.11611 0.0
O479 O 0.41599 0.13159 0.09096 0.0
O480 O 0.43723 0.11255 0.11214 0.0
H481 H 0.37112 0.10486 0.03196 0.0
H482 H 0.42374 0.15205 0.16798 0.0
O483 O 0.41677 0.11204 0.17211 0.0
H484 H 0.49637 0.1566 0.13897 0.0
H485 H 0.48463 0.08434 0.18984 0.0
H486 H 0.4444 0.07461 0.12126 0.0
H487 H 0.47163 0.1255 0.1306 0.0
H488 H 0.45632 0.1086 0.17981 0.0
O489 O 0.39031 0.16396 0.10687 0.0
H490 H 0.39053 0.10551 0.06687 0.0
H491 H 0.35394 0.1563 0.08829 0.0
H492 H 0.47263 0.05007 0.13062 0.0
H493 H 0.44815 0.18322 0.17712 0.0
H494 H 0.49296 0.05484 0.16513 0.0
H495 H 0.48457 0.18579 0.16232 0.0
O496 O 0.40717 0.08755 0.13473 0.0
H497 H 0.33936 0.1568 0.16233 0.0
H498 H 0.34803 0.10426 0.10442 0.0
H499 H 0.31445 0.10325 0.12427 0.0
H500 H 0.30994 0.12969 0.15343 0.0
H501 H 0.37277 0.15705 0.14225 0.0
H502 H 0.33424 0.15634 0.05357 0.0
H503 H 0.34276 0.13043 0.02514 0.0
O504 O 0.38746 0.09817 0.10651 0.0
C505 C 0.43295 0.1217 0.09452 0.0
C506 C 0.36721 0.11617 0.04425 0.0
C507 C 0.34653 0.14509 0.05636 0.0
N508 N 0.37323 0.1308 0.07963 0.0
C509 C 0.3781 0.11657 0.06406 0.0
C510 C 0.35776 0.14502 0.07597 0.0
C511 C 0.35132 0.13054 0.04042 0.0
C512 C 0.43971 0.15287 0.16177 0.0
N513 N 0.44625 0.13692 0.14885 0.0
C514 C 0.45343 0.1706 0.16693 0.0
C515 C 0.47389 0.17203 0.15861 0.0
C516 C 0.48047 0.15571 0.14544 0.0
C517 C 0.46635 0.13817 0.14069 0.0
C518 C 0.47584 0.08206 0.17478 0.0
C519 C 0.45319 0.07684 0.1363 0.0
C520 C 0.45975 0.09571 0.16904 0.0
N521 N 0.44873 0.09306 0.14994 0.0
C522 C 0.46913 0.06285 0.14153 0.0
C523 C 0.48053 0.06554 0.1609 0.0
C524 C 0.39435 0.08347 0.11885 0.0
C525 C 0.3411 0.14524 0.14961 0.0
C526 C 0.34623 0.11574 0.11717 0.0
C527 C 0.32716 0.11514 0.1283 0.0
C528 C 0.32462 0.12999 0.14464 0.0
N529 N 0.36232 0.13073 0.12215 0.0
C530 C 0.35994 0.14538 0.13811 0.0
Co531 Co 0.39687 0.8655 0.64578 0.0
Co532 Co 0.38275 0.91702 0.63966 0.0
O533 O 0.4003 0.89341 0.63245 0.0
C534 C 0.44351 0.87716 0.65081 0.0
O535 O 0.4379 0.8954 0.65885 0.0
C536 C 0.37011 0.93222 0.59661 0.0
O537 O 0.35006 0.9274 0.60115 0.0
O538 O 0.35642 0.89894 0.63224 0.0
O539 O 0.36461 0.86763 0.64679 0.0
H540 H 0.31982 0.95132 0.67141 0.0
H541 H 0.42072 0.87003 0.60559 0.0
O542 O 0.42904 0.86294 0.645 0.0
H543 H 0.36119 0.81706 0.58926 0.0
H544 H 0.41382 0.78861 0.65662 0.0
H545 H 0.3714 0.84769 0.68142 0.0
H546 H 0.36581 0.83329 0.62529 0.0
H547 H 0.41673 0.82383 0.63922 0.0
O548 O 0.38506 0.92691 0.60943 0.0
H549 H 0.34261 0.92153 0.66322 0.0
H550 H 0.38515 0.96376 0.62995 0.0
H551 H 0.36793 0.81274 0.69923 0.0
H552 H 0.41681 0.85406 0.5694 0.0
H553 H 0.38923 0.78289 0.68682 0.0
H554 H 0.38685 0.82739 0.56104 0.0
O555 O 0.39985 0.87888 0.67469 0.0
H556 H 0.4575 0.94763 0.62814 0.0
H557 H 0.39686 0.94492 0.67699 0.0
H558 H 0.4296 0.96692 0.68673 0.0
H559 H 0.46019 0.96843 0.66218 0.0
H560 H 0.42445 0.92586 0.61899 0.0
H561 H 0.3629 0.994 0.63784 0.0
H562 H 0.32994 0.98788 0.65873 0.0
O563 O 0.38047 0.90767 0.6701 0.0
C564 C 0.35096 0.88049 0.63945 0.0
C565 C 0.33415 0.95419 0.66232 0.0
C566 C 0.3583 0.97815 0.64347 0.0
N567 N 0.36521 0.94086 0.64614 0.0
C568 C 0.34711 0.93738 0.65763 0.0
C569 C 0.37085 0.96095 0.63904 0.0
C570 C 0.33983 0.9747 0.65519 0.0
C571 C 0.40773 0.85832 0.60211 0.0
N572 N 0.3936 0.85249 0.61755 0.0
C573 C 0.40556 0.84938 0.58157 0.0
C574 C 0.38873 0.83444 0.57689 0.0
C575 C 0.37432 0.82864 0.59271 0.0
C576 C 0.37699 0.83792 0.61307 0.0
C577 C 0.40441 0.80148 0.66213 0.0
C578 C 0.3806 0.83474 0.67583 0.0
C579 C 0.40601 0.82145 0.65235 0.0
N580 N 0.39409 0.83772 0.65917 0.0
C581 C 0.37862 0.815 0.68602 0.0
C582 C 0.3906 0.79828 0.67907 0.0
C583 C 0.38946 0.89416 0.68205 0.0
C584 C 0.44425 0.94717 0.63893 0.0
C585 C 0.41013 0.9454 0.66626 0.0
C586 C 0.42861 0.95794 0.67184 0.0
C587 C 0.44576 0.9588 0.65805 0.0
N588 N 0.40865 0.93423 0.64735 0.0
C589 C 0.42545 0.93493 0.63379 0.0
Co590 Co 0.58079 0.89725 0.14504 0.0
Co591 Co 0.61695 0.88281 0.10805 0.0
O592 O 0.60357 0.87923 0.13582 0.0
C593 C 0.61094 0.89606 0.18228 0.0
O594 O 0.62685 0.89699 0.16902 0.0
C595 C 0.60544 0.83553 0.1101 0.0
O596 O 0.58685 0.84023 0.11758 0.0
O597 O 0.58838 0.87992 0.09318 0.0
O598 O 0.5692 0.89927 0.11518 0.0
H599 H 0.62498 0.9137 0.03466 0.0
H600 H 0.58619 0.85618 0.1675 0.0
O601 O 0.59164 0.89604 0.17535 0.0
H602 H 0.51371 0.85006 0.13432 0.0
H603 H 0.52297 0.91856 0.1942 0.0
H604 H 0.56125 0.93619 0.12821 0.0
H605 H 0.53626 0.88317 0.13109 0.0
H606 H 0.55192 0.89645 0.18223 0.0
O607 O 0.61917 0.85059 0.10547 0.0
H608 H 0.60882 0.9094 0.07004 0.0
H609 H 0.65309 0.86282 0.08672 0.0
H610 H 0.53254 0.95882 0.13971 0.0
H611 H 0.56373 0.82299 0.17194 0.0
H612 H 0.51306 0.94996 0.17283 0.0
H613 H 0.52723 0.8197 0.15515 0.0
O614 O 0.59925 0.92343 0.14055 0.0
H615 H 0.67388 0.86026 0.16 0.0
H616 H 0.65497 0.91359 0.10612 0.0
H617 H 0.69019 0.91716 0.12486 0.0
H618 H 0.69987 0.89033 0.15197 0.0
H619 H 0.6387 0.85749 0.1411 0.0
H620 H 0.6696 0.86646 0.05146 0.0
H621 H 0.65557 0.8921 0.02517 0.0
O622 O 0.61521 0.91533 0.10997 0.0
C623 C 0.57177 0.88988 0.09737 0.0
C624 C 0.63127 0.90252 0.046 0.0
C625 C 0.65629 0.87598 0.05541 0.0
N626 N 0.6301 0.88599 0.08046 0.0
C627 C 0.62223 0.90006 0.06607 0.0
C628 C 0.64685 0.87395 0.07533 0.0
C629 C 0.64842 0.89038 0.04068 0.0
C630 C 0.57018 0.85502 0.16053 0.0
N631 N 0.56257 0.87162 0.14908 0.0
C632 C 0.55758 0.83613 0.16296 0.0
C633 C 0.53712 0.83428 0.1535 0.0
C634 C 0.52949 0.8513 0.14187 0.0
C635 C 0.54244 0.86998 0.13994 0.0
C636 C 0.53133 0.92258 0.17973 0.0
C637 C 0.55294 0.93227 0.1427 0.0
C638 C 0.54778 0.91015 0.17289 0.0
N639 N 0.55827 0.91499 0.15451 0.0
C640 C 0.53669 0.94516 0.14914 0.0
C641 C 0.52577 0.94019 0.16773 0.0
C642 C 0.60966 0.92893 0.12405 0.0
C643 C 0.66987 0.87203 0.14818 0.0
C644 C 0.65898 0.90196 0.11803 0.0
C645 C 0.67899 0.90401 0.12852 0.0
C646 C 0.68443 0.88893 0.1437 0.0
N647 N 0.64479 0.88537 0.12254 0.0
C648 C 0.65002 0.87048 0.13736 0.0
Co649 Co 0.63269 0.1354 0.64176 0.0
Co650 Co 0.64569 0.0833 0.63757 0.0
O651 O 0.62842 0.10691 0.62918 0.0
C652 C 0.58626 0.12448 0.64632 0.0
O653 O 0.59215 0.10666 0.65505 0.0
C654 C 0.65694 0.06609 0.59526 0.0
O655 O 0.67718 0.07086 0.60026 0.0
O656 O 0.67214 0.10056 0.63048 0.0
O657 O 0.66493 0.13282 0.64367 0.0
H658 H 0.70855 0.04918 0.67246 0.0
H659 H 0.60742 0.1293 0.60117 0.0
O660 O 0.60055 0.1383 0.64019 0.0
H661 H 0.66724 0.18047 0.58463 0.0
H662 H 0.61716 0.21304 0.6498 0.0
H663 H 0.65957 0.15463 0.67747 0.0
H664 H 0.66356 0.1661 0.62103 0.0
H665 H 0.61318 0.17698 0.63345 0.0
O666 O 0.64243 0.07212 0.60753 0.0
H667 H 0.68623 0.07907 0.66263 0.0
H668 H 0.6422 0.03619 0.6289 0.0
H669 H 0.66414 0.19043 0.69424 0.0
H670 H 0.61037 0.14341 0.56459 0.0
H671 H 0.64284 0.21994 0.68039 0.0
H672 H 0.64048 0.16917 0.55613 0.0
O673 O 0.63045 0.1235 0.67097 0.0
H674 H 0.57005 0.05377 0.62458 0.0
H675 H 0.63202 0.05729 0.67516 0.0
H676 H 0.59906 0.03648 0.68451 0.0
H677 H 0.56779 0.03458 0.65911 0.0
H678 H 0.60332 0.07435 0.61583 0.0
H679 H 0.66398 1.00585 0.63839 0.0
H680 H 0.69743 0.01224 0.66035 0.0
O681 O 0.64889 0.09394 0.66787 0.0
C682 C 0.6781 0.11931 0.63715 0.0
C683 C 0.694 0.04619 0.6629 0.0
C684 C 0.66901 0.02187 0.64377 0.0
N685 N 0.66292 0.05942 0.64522 0.0
C686 C 0.6813 0.06306 0.65728 0.0
C687 C 0.65674 0.03913 0.63843 0.0
C688 C 0.68776 0.02547 0.65609 0.0
C689 C 0.62047 0.14061 0.59764 0.0
N690 N 0.63522 0.14697 0.61323 0.0
C691 C 0.6221 0.1485 0.57689 0.0
C692 C 0.63901 0.16293 0.57214 0.0
C693 C 0.65404 0.16927 0.58812 0.0
C694 C 0.6519 0.16105 0.60869 0.0
C695 C 0.62658 0.20032 0.65594 0.0
C696 C 0.65037 0.16743 0.67125 0.0
C697 C 0.62438 0.17988 0.64676 0.0
N698 N 0.6363 0.1638 0.65436 0.0
C699 C 0.65297 0.18765 0.68086 0.0
C700 C 0.641 0.20419 0.6731 0.0
C701 C 0.64049 0.10823 0.67911 0.0
C702 C 0.58359 0.05441 0.63575 0.0
C703 C 0.61846 0.05661 0.66404 0.0
C704 C 0.59985 0.04476 0.66941 0.0
C705 C 0.58232 0.04368 0.65514 0.0
N706 N 0.61968 0.06691 0.64488 0.0
C707 C 0.60252 0.06596 0.63084 0.0
Co708 Co 0.41585 0.87139 0.87196 0.0
Co709 Co 0.36391 0.8827 0.8816 0.0
O710 O 0.39464 0.88683 0.88715 0.0
C711 C 0.44225 0.85633 0.90837 0.0
O712 O 0.43741 0.83658 0.90198 0.0
C713 C 0.37355 0.92913 0.87621 0.0
O714 O 0.38898 0.92324 0.86402 0.0
O715 O 0.36776 0.88659 0.85053 0.0
O716 O 0.39869 0.87137 0.84442 0.0
H717 H 0.29743 0.85204 0.84333 0.0
H718 H 0.4294 0.91125 0.89589 0.0
O719 O 0.43353 0.87178 0.89907 0.0
H720 H 0.44905 0.92495 0.82124 0.0
H721 H 0.49111 0.85537 0.85274 0.0
H722 H 0.41442 0.8344 0.842 0.0
H723 H 0.43208 0.89019 0.83129 0.0
H724 H 0.46368 0.87514 0.87089 0.0
O725 O 0.36128 0.91482 0.88485 0.0
H726 H 0.33634 0.85677 0.85081 0.0
H727 H 0.3258 0.90144 0.90037 0.0
H728 H 0.44133 0.81424 0.82342 0.0
H729 H 0.4467 0.94609 0.88658 0.0
H730 H 0.47999 0.82469 0.82876 0.0
H731 H 0.45653 0.95319 0.849 0.0
O732 O 0.4012 0.8437 0.87982 0.0
H733 H 0.37574 0.90194 0.95933 0.0
H734 H 0.33998 0.85055 0.90801 0.0
H735 H 0.33552 0.84526 0.94672 0.0
H736 H 0.35342 0.87112 0.97267 0.0
H737 H 0.37992 0.9065 0.92048 0.0
H738 H 0.28678 0.89736 0.89333 0.0
H739 H 0.27237 0.87243 0.86468 0.0
O740 O 0.36625 0.85058 0.87795 0.0
C741 C 0.38159 0.87978 0.83795 0.0
C742 C 0.30351 0.86288 0.85591 0.0
C743 C 0.29753 0.88834 0.88396 0.0
N744 N 0.33328 0.87918 0.87615 0.0
C745 C 0.32551 0.86556 0.86027 0.0
C746 C 0.31963 0.89061 0.88785 0.0
C747 C 0.28946 0.87435 0.86788 0.0
C748 C 0.43392 0.91406 0.87956 0.0
N749 N 0.42983 0.8986 0.8642 0.0
C750 C 0.4436 0.93389 0.87436 0.0
C751 C 0.44907 0.93787 0.85326 0.0
C752 C 0.44485 0.92205 0.83768 0.0
C753 C 0.43515 0.90241 0.84346 0.0
C754 C 0.47432 0.85066 0.85027 0.0
C755 C 0.43121 0.83907 0.84435 0.0
C756 C 0.4587 0.86179 0.86052 0.0
N757 N 0.43745 0.85594 0.85748 0.0
C758 C 0.44638 0.82759 0.83381 0.0
C759 C 0.46807 0.83346 0.83682 0.0
C760 C 0.38141 0.83757 0.8792 0.0
C761 C 0.36782 0.89059 0.94818 0.0
C762 C 0.3479 0.86181 0.91921 0.0
C763 C 0.34527 0.85877 0.9411 0.0
C764 C 0.35531 0.87328 0.95566 0.0
N765 N 0.36012 0.87887 0.91202 0.0
C766 C 0.37008 0.89313 0.92617 0.0
Co767 Co 0.63237 0.89553 0.41058 0.0
Co768 Co 0.61254 0.93133 0.37451 0.0
O769 O 0.6325 0.90979 0.38286 0.0
C770 C 0.67666 0.91417 0.40608 0.0
O771 O 0.66712 0.93174 0.40133 0.0
C772 C 0.61143 0.90026 0.33867 0.0
O773 O 0.61161 0.88498 0.35288 0.0
O774 O 0.5879 0.91193 0.38174 0.0
O775 O 0.59942 0.89375 0.41036 0.0
H776 H 0.54988 0.97725 0.38408 0.0
H777 H 0.65782 0.87798 0.37582 0.0
O778 O 0.66522 0.89742 0.41102 0.0
H779 H 0.60501 0.82003 0.39376 0.0
H780 H 0.65954 0.84413 0.46503 0.0
H781 H 0.60751 0.89888 0.45005 0.0
H782 H 0.60604 0.85457 0.41313 0.0
H783 H 0.65849 0.862 0.43003 0.0
O784 O 0.61133 0.91977 0.34454 0.0
H785 H 0.57481 0.94966 0.39426 0.0
H786 H 0.60761 0.95884 0.33618 0.0
H787 H 0.60787 0.88129 0.48521 0.0
H788 H 0.65753 0.84361 0.35623 0.0
H789 H 0.63405 0.85371 0.49288 0.0
H790 H 0.63092 0.81437 0.36512 0.0
O791 O 0.63276 0.92342 0.42608 0.0
H792 H 0.68238 0.95129 0.34 0.0
H793 H 0.62559 0.97675 0.38544 0.0
H794 H 0.65646 1.00116 0.37726 0.0
H795 H 0.68517 0.98841 0.35443 0.0
H796 H 0.65148 0.92723 0.34898 0.0
H797 H 0.58296 0.98647 0.32535 0.0
H798 H 0.55393 0.99594 0.34945 0.0
O799 O 0.61318 0.94333 0.40412 0.0
C800 C 0.58434 0.89989 0.39775 0.0
C801 C 0.56249 0.97328 0.37345 0.0
C802 C 0.58104 0.97844 0.34048 0.0
N803 N 0.59271 0.95268 0.36588 0.0
C804 C 0.57669 0.9577 0.37916 0.0
C805 C 0.5949 0.96273 0.34668 0.0
C806 C 0.56475 0.98375 0.35401 0.0
C807 C 0.64637 0.86524 0.37996 0.0
N808 N 0.63201 0.86825 0.39564 0.0
C809 C 0.6462 0.84585 0.36873 0.0
C810 C 0.63124 0.82947 0.37369 0.0
C811 C 0.61668 0.83265 0.38975 0.0
C812 C 0.61729 0.85227 0.40061 0.0
C813 C 0.64803 0.85609 0.46187 0.0
C814 C 0.61883 0.88678 0.45323 0.0
C815 C 0.64739 0.86629 0.4421 0.0
N816 N 0.63284 0.88133 0.43798 0.0
C817 C 0.61901 0.87692 0.47318 0.0
C818 C 0.63372 0.86147 0.47748 0.0
C819 C 0.62252 0.94001 0.42204 0.0
C820 C 0.66996 0.95702 0.34995 0.0
C821 C 0.63806 0.97104 0.37558 0.0
C822 C 0.65546 0.98498 0.37093 0.0
C823 C 0.67152 0.97785 0.35806 0.0
N824 N 0.63669 0.95057 0.36764 0.0
C825 C 0.65238 0.94349 0.35501 0.0
Co826 Co 0.61063 0.13792 0.86624 0.0
Co827 Co 0.66161 0.12422 0.88016 0.0
O828 O 0.63054 0.12154 0.88338 0.0
C829 C 0.59361 0.13702 0.91102 0.0
O830 O 0.61181 0.13106 0.91923 0.0
C831 C 0.65074 0.07737 0.87588 0.0
O832 O 0.63512 0.08265 0.86288 0.0
O833 O 0.65818 0.11875 0.84909 0.0
O834 O 0.62872 0.1359 0.84035 0.0
H835 H 0.72966 0.15054 0.84588 0.0
H836 H 0.59452 0.09899 0.88902 0.0
O837 O 0.59138 0.1405 0.89107 0.0
H838 H 0.5757 0.08536 0.81291 0.0
H839 H 0.53771 0.15928 0.8411 0.0
H840 H 0.61567 0.17319 0.83513 0.0
H841 H 0.59426 0.11939 0.82441 0.0
H842 H 0.56297 0.13815 0.86183 0.0
O843 O 0.66316 0.09211 0.88459 0.0
H844 H 0.69058 0.14753 0.85055 0.0
H845 H 0.6986 0.10526 0.90254 0.0
H846 H 0.59095 0.19452 0.81387 0.0
H847 H 0.57569 0.0649 0.87825 0.0
H848 H 0.55167 0.18764 0.81681 0.0
H849 H 0.56623 0.05783 0.83992 0.0
O850 O 0.62622 0.16507 0.8753 0.0
H851 H 0.65011 0.10779 0.95765 0.0
H852 H 0.68516 0.15769 0.90724 0.0
H853 H 0.68956 0.16452 0.94603 0.0
H854 H 0.67201 0.13942 0.97154 0.0
H855 H 0.64581 0.1018 0.91871 0.0
H856 H 0.73776 0.10766 0.89834 0.0
H857 H 0.75353 0.1305 0.86989 0.0
O858 O 0.66065 0.15639 0.87516 0.0
C859 C 0.64521 0.12604 0.83533 0.0
C860 C 0.72299 0.1406 0.85839 0.0
C861 C 0.72753 0.11652 0.88781 0.0
N862 N 0.69236 0.12641 0.87693 0.0
C863 C 0.70088 0.1389 0.86115 0.0
C864 C 0.70535 0.11519 0.8901 0.0
C865 C 0.73637 0.12934 0.87185 0.0
C866 C 0.59016 0.09625 0.87238 0.0
N867 N 0.59534 0.11132 0.85743 0.0
C868 C 0.57961 0.07681 0.86634 0.0
C869 C 0.57436 0.07284 0.84483 0.0
C870 C 0.57969 0.08827 0.82967 0.0
C871 C 0.59025 0.1075 0.83629 0.0
C872 C 0.5548 0.1624 0.83964 0.0
C873 C 0.5986 0.16999 0.83636 0.0
C874 C 0.56919 0.15052 0.85138 0.0
N875 N 0.5908 0.15432 0.84957 0.0
C876 C 0.58468 0.18216 0.82434 0.0
C877 C 0.56264 0.17831 0.82601 0.0
C878 C 0.64621 0.17023 0.8755 0.0
C879 C 0.65784 0.11884 0.9467 0.0
C880 C 0.67725 0.14684 0.91821 0.0
C881 C 0.67991 0.15072 0.94018 0.0
C882 C 0.6701 0.13661 0.95448 0.0
N883 N 0.66512 0.12942 0.9107 0.0
C884 C 0.65555 0.11547 0.92463 0.0
Co885 Co 0.37265 0.12371 0.40496 0.0
Co886 Co 0.38879 0.08574 0.369 0.0
O887 O 0.37117 0.10915 0.37706 0.0
C888 C 0.3279 0.10582 0.39962 0.0
O889 O 0.33699 0.08817 0.39446 0.0
C890 C 0.39356 0.11741 0.33416 0.0
O891 O 0.39275 0.13287 0.34835 0.0
O892 O 0.41515 0.10204 0.37919 0.0
O893 O 0.40546 0.12468 0.405 0.0
H894 H 0.44591 0.03325 0.38069 0.0
H895 H 0.34605 0.14111 0.3699 0.0
O896 O 0.33979 0.12241 0.40507 0.0
H897 H 0.40082 0.19834 0.3884 0.0
H898 H 0.34891 0.17674 0.45912 0.0
H899 H 0.3993 0.12078 0.44466 0.0
H900 H 0.3999 0.16417 0.40778 0.0
H901 H 0.34801 0.15807 0.42416 0.0
O902 O 0.39246 0.09793 0.33981 0.0
H903 H 0.42365 0.06296 0.39052 0.0
H904 H 0.39141 0.05853 0.32986 0.0
H905 H 0.40089 0.13915 0.47979 0.0
H906 H 0.34622 0.17511 0.35027 0.0
H907 H 0.37554 0.16733 0.48719 0.0
H908 H 0.37381 0.20399 0.35944 0.0
O909 O 0.37249 0.0962 0.42078 0.0
H910 H 0.31907 0.07583 0.32744 0.0
H911 H 0.36966 0.0418 0.3766 0.0
H912 H 0.33634 0.02197 0.36472 0.0
H913 H 0.31095 0.03873 0.33971 0.0
H914 H 0.35209 0.09556 0.34045 0.0
H915 H 0.41336 0.02881 0.31937 0.0
H916 H 0.44082 0.01596 0.34488 0.0
O917 O 0.38586 0.07293 0.39774 0.0
C918 C 0.41975 0.11579 0.39401 0.0
C919 C 0.43397 0.03868 0.36945 0.0
C920 C 0.41572 0.03621 0.33502 0.0
N921 N 0.40617 0.06241 0.36083 0.0
C922 C 0.42129 0.05547 0.37493 0.0
C923 C 0.40337 0.05308 0.34103 0.0
C924 C 0.43111 0.02899 0.34935 0.0
C925 C 0.35794 0.15369 0.37415 0.0
N926 N 0.37289 0.1507 0.39001 0.0
C927 C 0.35803 0.17287 0.3629 0.0
C928 C 0.37354 0.18905 0.36803 0.0
C929 C 0.38872 0.18588 0.38426 0.0
C930 C 0.38816 0.16648 0.39513 0.0
C931 C 0.36005 0.1645 0.45607 0.0
C932 C 0.38833 0.13314 0.44773 0.0
C933 C 0.35959 0.15386 0.43633 0.0
N934 N 0.37368 0.13847 0.43236 0.0
C935 C 0.38925 0.14343 0.46766 0.0
C936 C 0.37501 0.15923 0.47182 0.0
C937 C 0.37932 0.07803 0.41607 0.0
C938 C 0.33011 0.06823 0.33818 0.0
C939 C 0.35858 0.04938 0.36592 0.0
C940 C 0.3398 0.03799 0.35913 0.0
C941 C 0.32554 0.04744 0.34511 0.0
N942 N 0.36294 0.06978 0.35908 0.0
C943 C 0.34891 0.07928 0.34551 0.0
Co944 Co 0.13945 0.44159 0.10886 0.0
Co945 Co 0.10641 0.40171 0.12972 0.0
O946 O 0.1332 0.41946 0.12992 0.0
C947 C 0.17874 0.41646 0.11032 0.0
O948 O 0.16696 0.39847 0.11049 0.0
C949 C 0.11149 0.42013 0.17374 0.0
O950 O 0.115 0.43842 0.16402 0.0
O951 O 0.08917 0.42754 0.12869 0.0
O952 O 0.10907 0.44974 0.10817 0.0
H953 H 0.03169 0.37863 0.10458 0.0
H954 H 0.16449 0.44054 0.14964 0.0
O955 O 0.17005 0.43431 0.10931 0.0
H956 H 0.1401 0.51392 0.14498 0.0
H957 H 0.18653 0.49693 0.07235 0.0
H958 H 0.11647 0.45695 0.07019 0.0
H959 H 0.12871 0.48683 0.11737 0.0
H960 H 0.17648 0.47256 0.10144 0.0
O961 O 0.10703 0.40319 0.1625 0.0
H962 H 0.06578 0.40036 0.10409 0.0
H963 H 0.09011 0.36567 0.15661 0.0
H964 H 0.12507 0.48279 0.0418 0.0
H965 H 0.17514 0.46675 0.17811 0.0
H966 H 0.16051 0.50272 0.0425 0.0
H967 H 0.16301 0.50381 0.17576 0.0
O968 O 0.13304 0.4209 0.08529 0.0
H969 H 0.16541 0.35716 0.15737 0.0
H970 H 0.10533 0.3607 0.10504 0.0
H971 H 0.12699 0.32893 0.10553 0.0
H972 H 0.15726 0.32701 0.13186 0.0
H973 H 0.14347 0.38872 0.15617 0.0
H974 H 0.05623 0.34366 0.15778 0.0
H975 H 0.02675 0.35008 0.1316 0.0
O976 O 0.10545 0.40002 0.09681 0.0
C977 C 0.09173 0.44424 0.11737 0.0
C978 C 0.04444 0.37564 0.11602 0.0
C979 C 0.0582 0.35603 0.14591 0.0
N980 N 0.07995 0.38415 0.13019 0.0
C981 C 0.0638 0.38784 0.11578 0.0
C982 C 0.07733 0.36856 0.14519 0.0
C983 C 0.04167 0.35963 0.1312 0.0
C984 C 0.15884 0.45652 0.14868 0.0
N985 N 0.14602 0.46214 0.13183 0.0
C986 C 0.16498 0.47132 0.16482 0.0
C987 C 0.15814 0.49208 0.16352 0.0
C988 C 0.1451 0.49771 0.1463 0.0
C989 C 0.13884 0.48235 0.13069 0.0
C990 C 0.17098 0.48849 0.07189 0.0
C991 C 0.13164 0.46607 0.07104 0.0
C992 C 0.16531 0.47442 0.08822 0.0
N993 N 0.14597 0.46316 0.08751 0.0
C994 C 0.13652 0.48051 0.05475 0.0
C995 C 0.1564 0.49167 0.05514 0.0
C996 C 0.11749 0.40725 0.0818 0.0
C997 C 0.15222 0.35778 0.14587 0.0
C998 C 0.11853 0.36002 0.11649 0.0
C999 C 0.1307 0.34196 0.11673 0.0
C1000 C 0.14766 0.34088 0.13153 0.0
N1001 N 0.1231 0.37651 0.13061 0.0
C1002 C 0.13968 0.37556 0.14518 0.0
Co1003 Co 0.1447 0.5881 0.87752 0.0
Co1004 Co 0.13103 0.63997 0.88633 0.0
O1005 O 0.12763 0.60933 0.89071 0.0
C1006 C 0.1001 0.57217 0.86552 0.0
O1007 O 0.09659 0.58991 0.85529 0.0
C1008 C 0.13752 0.63398 0.93319 0.0
O1009 O 0.15048 0.61923 0.92768 0.0
O1010 O 0.16267 0.6398 0.89056 0.0
O1011 O 0.17139 0.60678 0.88103 0.0
H1012 H 0.16351 0.70744 0.85509 0.0
H1013 H 0.11715 0.57625 0.91401 0.0
O1014 O 0.1183 0.56904 0.87417 0.0
H1015 H 0.19044 0.56078 0.93776 0.0
H1016 H 0.16503 0.5126 0.86371 0.0
H1017 H 0.1799 0.58856 0.84656 0.0
H1018 H 0.18352 0.57494 0.9017 0.0
H1019 H 0.14451 0.54057 0.88031 0.0
O1020 O 0.1282 0.64463 0.91854 0.0
H1021 H 0.15905 0.66843 0.86021 0.0
H1022 H 0.10987 0.67726 0.90442 0.0
H1023 H 0.20098 0.56115 0.82975 0.0
H1024 H 0.12333 0.56184 0.95007 0.0
H1025 H 0.19362 0.52287 0.83831 0.0
H1026 H 0.16021 0.55414 0.96222 0.0
O1027 O 0.13981 0.60045 0.84861 0.0
H1028 H 0.05455 0.62137 0.90443 0.0
H1029 H 0.1022 0.65839 0.85345 0.0
H1030 H 0.06306 0.65808 0.84733 0.0
H1031 H 0.03895 0.63951 0.87297 0.0
H1032 H 0.09379 0.62193 0.90984 0.0
H1033 H 0.11389 0.71638 0.89991 0.0
H1034 H 0.14082 0.73169 0.87503 0.0
O1035 O 0.13414 0.63537 0.85421 0.0
C1036 C 0.1764 0.62601 0.88678 0.0
C1037 C 0.15167 0.70096 0.86591 0.0
C1038 C 0.12384 0.70598 0.8911 0.0
N1039 N 0.13409 0.67062 0.88244 0.0
C1040 C 0.14903 0.67889 0.86882 0.0
C1041 C 0.12166 0.68384 0.89362 0.0
C1042 C 0.13894 0.71456 0.87713 0.0
C1043 C 0.1332 0.57262 0.91902 0.0
N1044 N 0.14992 0.57627 0.90566 0.0
C1045 C 0.13662 0.56458 0.93952 0.0
C1046 C 0.15732 0.56029 0.94634 0.0
C1047 C 0.17429 0.56404 0.93263 0.0
C1048 C 0.17028 0.5721 0.91224 0.0
C1049 C 0.16841 0.52924 0.85984 0.0
C1050 C 0.17663 0.57196 0.85039 0.0
C1051 C 0.15679 0.54516 0.86914 0.0
N1052 N 0.16105 0.56622 0.86444 0.0
C1053 C 0.18859 0.55649 0.8408 0.0
C1054 C 0.18444 0.535 0.84561 0.0
C1055 C 0.13693 0.61931 0.84182 0.0
C1056 C 0.06488 0.62958 0.89319 0.0
C1057 C 0.0918 0.65024 0.86465 0.0
C1058 C 0.06966 0.65015 0.86112 0.0
C1059 C 0.05614 0.63974 0.87552 0.0
N1060 N 0.10024 0.64031 0.88206 0.0
C1061 C 0.08711 0.63002 0.89622 0.0
Co1062 Co 0.92527 0.65031 0.37282 0.0
Co1063 Co 0.87406 0.64628 0.39028 0.0
O1064 O 0.904 0.63842 0.39241 0.0
C1065 C 0.93825 0.6049 0.38152 0.0
O1066 O 0.92183 0.60025 0.39357 0.0
C1067 C 0.88613 0.65068 0.4366 0.0
O1068 O 0.90403 0.66043 0.4306 0.0
O1069 O 0.88328 0.67705 0.39341 0.0
O1070 O 0.91084 0.67811 0.37129 0.0
H1071 H 0.81334 0.68916 0.36368 0.0
H1072 H 0.9399 0.63278 0.41472 0.0
O1073 O 0.94089 0.62324 0.37304 0.0
H1074 H 0.96952 0.70724 0.41389 0.0
H1075 H 0.99916 0.66315 0.34433 0.0
H1076 H 0.92262 0.67537 0.33284 0.0
H1077 H 0.94765 0.69246 0.38336 0.0
H1078 H 0.97272 0.64934 0.36981 0.0
O1079 O 0.87204 0.64413 0.42251 0.0
H1080 H 0.85073 0.67854 0.36587 0.0
H1081 H 0.83406 0.63126 0.41169 0.0
H1082 H 0.94867 0.68957 0.30695 0.0
H1083 H 0.96197 0.64677 0.44535 0.0
H1084 H 0.98735 0.68351 0.31263 0.0
H1085 H 0.97693 0.68431 0.44514 0.0
O1086 O 0.90756 0.63882 0.34831 0.0
H1087 H 0.87316 0.56874 0.4104 0.0
H1088 H 0.84491 0.62096 0.35985 0.0
H1089 H 0.8339 0.58273 0.35547 0.0
H1090 H 0.84802 0.55633 0.38089 0.0
H1091 H 0.88391 0.6071 0.41405 0.0
H1092 H 0.79651 0.64147 0.41013 0.0
H1093 H 0.78593 0.67056 0.38593 0.0
O1094 O 0.87521 0.64868 0.35777 0.0
C1095 C 0.89687 0.68728 0.38204 0.0
C1096 C 0.81773 0.67641 0.37423 0.0
C1097 C 0.8083 0.64966 0.40032 0.0
N1098 N 0.84452 0.65418 0.38874 0.0
C1099 C 0.83886 0.67028 0.37549 0.0
C1100 C 0.82958 0.64398 0.40116 0.0
C1101 C 0.80237 0.66598 0.38673 0.0
C1102 C 0.94664 0.64895 0.41421 0.0
N1103 N 0.94269 0.6616 0.39702 0.0
C1104 C 0.959 0.65687 0.43175 0.0
C1105 C 0.96734 0.67795 0.43166 0.0
C1106 C 0.96317 0.69083 0.41414 0.0
C1107 C 0.95071 0.68236 0.39691 0.0
C1108 C 0.98245 0.666 0.34169 0.0
C1109 C 0.93942 0.67278 0.33549 0.0
C1110 C 0.96736 0.65817 0.35607 0.0
N1111 N 0.94615 0.66172 0.35295 0.0
C1112 C 0.95409 0.68082 0.32074 0.0
C1113 C 0.97577 0.6774 0.32392 0.0
C1114 C 0.88831 0.64292 0.34363 0.0
C1115 C 0.86689 0.58008 0.39922 0.0
C1116 C 0.85126 0.60955 0.37087 0.0
C1117 C 0.8449 0.58794 0.36837 0.0
C1118 C 0.8528 0.57313 0.38265 0.0
N1119 N 0.86511 0.61624 0.38715 0.0
C1120 C 0.87289 0.60183 0.40124 0.0
Co1121 Co 0.88811 0.45123 0.87764 0.0
Co1122 Co 0.89301 0.39737 0.88503 0.0
O1123 O 0.89994 0.42723 0.89243 0.0
C1124 C 0.9353 0.46108 0.8803 0.0
O1125 O 0.93897 0.44094 0.87685 0.0
C1126 C 0.88324 0.40218 0.9312 0.0
O1127 O 0.87193 0.41817 0.92501 0.0
O1128 O 0.86178 0.40183 0.88482 0.0
O1129 O 0.85949 0.43567 0.87378 0.0
H1130 H 0.85515 0.33624 0.84447 0.0
H1131 H 0.90997 0.45829 0.92003 0.0
O1132 O 0.91633 0.4674 0.88094 0.0
H1133 H 0.83687 0.48218 0.9288 0.0
H1134 H 0.87889 0.5296 0.86563 0.0
H1135 H 0.86023 0.4564 0.83906 0.0
H1136 H 0.84785 0.46802 0.89407 0.0
H1137 H 0.89249 0.49847 0.8844 0.0
O1138 O 0.89233 0.39105 0.91707 0.0
H1139 H 0.86435 0.37421 0.85307 0.0
H1140 H 0.90674 0.35636 0.90318 0.0
H1141 H 0.84609 0.48709 0.81987 0.0
H1142 H 0.89967 0.47237 0.955 0.0
H1143 H 0.8554 0.52398 0.8331 0.0
H1144 H 0.86289 0.48444 0.95955 0.0
O1145 O 0.89672 0.43967 0.84982 0.0
H1146 H 0.96829 0.40222 0.91569 0.0
H1147 H 0.92179 0.37688 0.85473 0.0
H1148 H 0.96046 0.37108 0.85434 0.0
H1149 H 0.98398 0.38371 0.88502 0.0
H1150 H 0.92959 0.40798 0.91528 0.0
H1151 H 0.89789 0.31818 0.89524 0.0
H1152 H 0.87197 0.30793 0.86565 0.0
O1153 O 0.89352 0.40384 0.85284 0.0
C1154 C 0.85106 0.41726 0.87807 0.0
C1155 C 0.86653 0.3405 0.85735 0.0
C1156 C 0.89049 0.33037 0.88587 0.0
N1157 N 0.88621 0.36745 0.87846 0.0
C1158 C 0.87185 0.36197 0.86224 0.0
C1159 C 0.89541 0.352 0.89031 0.0
C1160 C 0.87595 0.32462 0.86926 0.0
C1161 C 0.89399 0.46366 0.92183 0.0
N1162 N 0.87958 0.46244 0.90498 0.0
C1163 C 0.88822 0.47155 0.9417 0.0
C1164 C 0.86756 0.47827 0.94425 0.0
C1165 C 0.85295 0.47697 0.92701 0.0
C1166 C 0.85925 0.4689 0.9074 0.0
C1167 C 0.87464 0.5136 0.8597 0.0
C1168 C 0.86419 0.4724 0.84504 0.0
C1169 C 0.88233 0.49589 0.87025 0.0
N1170 N 0.87698 0.4756 0.86294 0.0
C1171 C 0.85621 0.48973 0.83405 0.0
C1172 C 0.86148 0.51044 0.84148 0.0
C1173 C 0.89595 0.42091 0.84159 0.0
C1174 C 0.95819 0.39658 0.90226 0.0
C1175 C 0.93194 0.38258 0.86806 0.0
C1176 C 0.95382 0.37916 0.86779 0.0
C1177 C 0.967 0.38623 0.88503 0.0
N1178 N 0.92342 0.39272 0.88503 0.0
C1179 C 0.93624 0.39969 0.90199 0.0
Co1180 Co 0.0868 0.37173 0.39477 0.0
Co1181 Co 0.12292 0.41127 0.37902 0.0
O1182 O 0.10932 0.38247 0.37583 0.0
C1183 C 0.11631 0.33626 0.39138 0.0
O1184 O 0.13256 0.35036 0.39079 0.0
C1185 C 0.11008 0.40784 0.33219 0.0
O1186 O 0.09167 0.39898 0.33796 0.0
O1187 O 0.09448 0.42408 0.37782 0.0
O1188 O 0.07551 0.40072 0.39765 0.0
H1189 H 0.13219 0.48545 0.41028 0.0
H1190 H 0.09122 0.34909 0.35327 0.0
O1191 O 0.09727 0.34217 0.39286 0.0
H1192 H 0.01949 0.37801 0.35021 0.0
H1193 H 0.02901 0.31853 0.41807 0.0
H1194 H 0.06795 0.38747 0.43475 0.0
H1195 H 0.04233 0.38262 0.3826 0.0
H1196 H 0.05765 0.33245 0.39483 0.0
O1197 O 0.12426 0.41376 0.34653 0.0
H1198 H 0.11584 0.44882 0.40657 0.0
H1199 H 0.15855 0.43514 0.35724 0.0
H1200 H 0.03947 0.37408 0.45846 0.0
H1201 H 0.0683 0.34307 0.32082 0.0
H1202 H 0.01968 0.33945 0.4501 0.0
H1203 H 0.03218 0.35774 0.31905 0.0
O1204 O 0.10575 0.37781 0.42022 0.0
H1205 H 0.17892 0.36359 0.35277 0.0
H1206 H 0.16161 0.41615 0.40798 0.0
H1207 H 0.19676 0.40012 0.4095 0.0
H1208 H 0.20564 0.37368 0.38171 0.0
H1209 H 0.14383 0.37978 0.35206 0.0
H1210 H 0.17525 0.47168 0.36029 0.0
H1211 H 0.1621 0.4971 0.387 0.0
O1212 O 0.12196 0.40943 0.41176 0.0
C1213 C 0.07812 0.41877 0.3886 0.0
C1214 C 0.13811 0.47451 0.39863 0.0
C1215 C 0.16225 0.46679 0.37054 0.0
N1216 N 0.13633 0.43983 0.38182 0.0
C1217 C 0.12895 0.45373 0.3965 0.0
C1218 C 0.15271 0.44613 0.36887 0.0
C1219 C 0.15487 0.48104 0.38554 0.0
C1220 C 0.07533 0.35506 0.35281 0.0
N1221 N 0.06815 0.36617 0.36984 0.0
C1222 C 0.06248 0.35175 0.33433 0.0
C1223 C 0.04224 0.36002 0.33333 0.0
C1224 C 0.03505 0.37131 0.35079 0.0
C1225 C 0.04819 0.37406 0.36907 0.0
C1226 C 0.03751 0.33365 0.42188 0.0
C1227 C 0.05949 0.37234 0.43104 0.0
C1228 C 0.0538 0.3416 0.40881 0.0
N1229 N 0.06449 0.36078 0.4134 0.0
C1230 C 0.04338 0.36483 0.44454 0.0
C1231 C 0.03228 0.3454 0.43985 0.0
C1232 C 0.11643 0.39508 0.4255 0.0
C1233 C 0.17526 0.37512 0.36495 0.0
C1234 C 0.16527 0.40452 0.39594 0.0
C1235 C 0.18525 0.39557 0.39682 0.0
C1236 C 0.19023 0.38076 0.38121 0.0
N1237 N 0.15067 0.39888 0.37996 0.0
C1238 C 0.15546 0.38442 0.36457 0.0
Co1239 Co 0.87197 0.60036 0.15585 0.0
Co1240 Co 0.87813 0.65211 0.13964 0.0
O1241 O 0.88474 0.622 0.13704 0.0
C1242 C 0.91678 0.58634 0.14722 0.0
O1243 O 0.92184 0.60329 0.13587 0.0
C1244 C 0.87285 0.64231 0.09302 0.0
O1245 O 0.86142 0.62512 0.09844 0.0
O1246 O 0.84708 0.64416 0.13572 0.0
O1247 O 0.8448 0.61584 0.15736 0.0
H1248 H 0.83778 0.71361 0.16673 0.0
H1249 H 0.88891 0.5872 0.11371 0.0
O1250 O 0.89844 0.58377 0.15552 0.0
H1251 H 0.81329 0.56077 0.11244 0.0
H1252 H 0.85577 0.52534 0.18166 0.0
H1253 H 0.84688 0.60197 0.19541 0.0
H1254 H 0.82904 0.58012 0.14402 0.0
H1255 H 0.87106 0.55263 0.15739 0.0
O1256 O 0.88062 0.6552 0.10755 0.0
H1257 H 0.84674 0.67583 0.16386 0.0
H1258 H 0.8949 0.69231 0.1194 0.0
H1259 H 0.83148 0.57521 0.22012 0.0
H1260 H 0.87395 0.56761 0.08204 0.0
H1261 H 0.83586 0.53658 0.21329 0.0
H1262 H 0.83582 0.55428 0.08117 0.0
O1263 O 0.88396 0.61664 0.18107 0.0
H1264 H 0.95571 0.65104 0.12097 0.0
H1265 H 0.9044 0.67892 0.17131 0.0
H1266 H 0.94296 0.68828 0.17671 0.0
H1267 H 0.96892 0.67434 0.1514 0.0
H1268 H 0.91702 0.64189 0.11631 0.0
H1269 H 0.88636 0.73025 0.12166 0.0
H1270 H 0.85767 0.74112 0.14553 0.0
O1271 O 0.87547 0.64975 0.17198 0.0
C1272 C 0.83631 0.63055 0.14665 0.0
C1273 C 0.85036 0.70909 0.15633 0.0
C1274 C 0.87761 0.71842 0.13101 0.0
N1275 N 0.87144 0.68191 0.14162 0.0
C1276 C 0.85554 0.68773 0.15468 0.0
C1277 C 0.88234 0.69691 0.12976 0.0
C1278 C 0.86151 0.72451 0.14441 0.0
C1279 C 0.87249 0.5811 0.11377 0.0
N1280 N 0.86006 0.58454 0.13097 0.0
C1281 C 0.86401 0.57016 0.09564 0.0
C1282 C 0.84261 0.56275 0.09514 0.0
C1283 C 0.82997 0.56639 0.11266 0.0
C1284 C 0.83899 0.5774 0.1305 0.0
C1285 C 0.85377 0.54213 0.1848 0.0
C1286 C 0.84883 0.5852 0.19228 0.0
C1287 C 0.86239 0.55767 0.17112 0.0
N1288 N 0.85972 0.5789 0.17487 0.0
C1289 C 0.84009 0.57011 0.20636 0.0
C1290 C 0.84258 0.54844 0.20253 0.0
C1291 C 0.8805 0.6359 0.186 0.0
C1292 C 0.94456 0.65721 0.13211 0.0
C1293 C 0.91559 0.67262 0.16034 0.0
C1294 C 0.93741 0.67807 0.16342 0.0
C1295 C 0.95196 0.67027 0.1492 0.0
N1296 N 0.90846 0.65976 0.14357 0.0
C1297 C 0.92263 0.65212 0.12953 0.0
Co1298 Co 0.92629 0.36712 0.6191 0.0
Co1299 Co 0.88971 0.40147 0.63612 0.0
O1300 O 0.90391 0.37464 0.63867 0.0
C1301 C 0.89975 0.32619 0.62071 0.0
O1302 O 0.88332 0.33575 0.61247 0.0
C1303 C 0.89552 0.39343 0.68441 0.0
O1304 O 0.90399 0.37515 0.68061 0.0
O1305 O 0.91812 0.4175 0.63743 0.0
O1306 O 0.93545 0.3977 0.61441 0.0
H1307 H 0.87918 0.47398 0.60509 0.0
H1308 H 0.92547 0.34645 0.66172 0.0
O1309 O 0.91781 0.33629 0.62358 0.0
H1310 H 0.9952 0.38689 0.65976 0.0
H1311 H 0.98583 0.3223 0.59519 0.0
H1312 H 0.94248 0.38356 0.57765 0.0
H1313 H 0.97067 0.38554 0.62827 0.0
H1314 H 0.95753 0.33288 0.61919 0.0
O1315 O 0.88891 0.40483 0.66881 0.0
H1316 H 0.89606 0.43941 0.60861 0.0
H1317 H 0.85421 0.42148 0.6585 0.0
H1318 H 0.97045 0.37336 0.5531 0.0
H1319 H 0.94972 0.34692 0.69344 0.0
H1320 H 0.99238 0.34256 0.56183 0.0
H1321 H 0.98459 0.36771 0.69282 0.0
O1322 O 0.90593 0.36903 0.5943 0.0
H1323 H 0.8351 0.34448 0.6586 0.0
H1324 H 0.85037 0.40342 0.60861 0.0
H1325 H 0.81547 0.38325 0.60612 0.0
H1326 H 0.80759 0.35358 0.6313 0.0
H1327 H 0.86978 0.36489 0.66037 0.0
H1328 H 0.83702 0.45594 0.65569 0.0
H1329 H 0.84945 0.48242 0.62876 0.0
O1330 O 0.89032 0.39925 0.60337 0.0
C1331 C 0.93379 0.41473 0.62535 0.0
C1332 C 0.87358 0.46254 0.61684 0.0
C1333 C 0.84994 0.45243 0.64527 0.0
N1334 N 0.87602 0.42841 0.63363 0.0
C1335 C 0.88303 0.44293 0.61886 0.0
C1336 C 0.85978 0.43298 0.64683 0.0
C1337 C 0.85692 0.46728 0.63015 0.0
C1338 C 0.94079 0.3552 0.66116 0.0
N1339 N 0.94642 0.36627 0.64327 0.0
C1340 C 0.95443 0.35548 0.67921 0.0
C1341 C 0.97402 0.36713 0.67883 0.0
C1342 C 0.97992 0.37795 0.66034 0.0
C1343 C 0.9659 0.37722 0.64257 0.0
C1344 C 0.9763 0.33569 0.59116 0.0
C1345 C 0.95183 0.37004 0.58151 0.0
C1346 C 0.96021 0.34174 0.60466 0.0
N1347 N 0.94827 0.35879 0.59981 0.0
C1348 C 0.96766 0.36434 0.56754 0.0
C1349 C 0.97999 0.34708 0.57246 0.0
C1350 C 0.89521 0.3852 0.58938 0.0
C1351 C 0.83826 0.3575 0.64766 0.0
C1352 C 0.84707 0.39061 0.6197 0.0
C1353 C 0.82726 0.37922 0.61819 0.0
C1354 C 0.82285 0.36258 0.63231 0.0
N1355 N 0.86204 0.38572 0.63498 0.0
C1356 C 0.85788 0.36927 0.64872 0.0
Co1357 Co 0.09183 0.6398 0.65166 0.0
Co1358 Co 0.14155 0.62428 0.63698 0.0
O1359 O 0.11039 0.62257 0.63465 0.0
C1360 C 0.07654 0.59466 0.65732 0.0
O1361 O 0.09651 0.5894 0.65902 0.0
C1362 C 0.13162 0.63088 0.59034 0.0
O1363 O 0.11728 0.64406 0.59642 0.0
O1364 O 0.14216 0.65591 0.63451 0.0
O1365 O 0.11146 0.66593 0.64852 0.0
H1366 H 0.21322 0.6536 0.6652 0.0
H1367 H 0.0735 0.61475 0.61433 0.0
O1368 O 0.07192 0.61407 0.65493 0.0
H1369 H 0.05896 0.68977 0.599 0.0
H1370 H 0.02021 0.6629 0.67498 0.0
H1371 H 0.09849 0.6726 0.68607 0.0
H1372 H 0.07793 0.68042 0.63243 0.0
H1373 H 0.04449 0.64231 0.65345 0.0
O1374 O 0.14302 0.62171 0.6045 0.0
H1375 H 0.17373 0.65078 0.66246 0.0
H1376 H 0.1759 0.6018 0.61531 0.0
H1377 H 0.07477 0.69367 0.70787 0.0
H1378 H 0.05428 0.62338 0.58085 0.0
H1379 H 0.03531 0.68886 0.70238 0.0
H1380 H 0.04695 0.66114 0.57297 0.0
O1381 O 0.10702 0.63248 0.67872 0.0
H1382 H 0.11834 0.54906 0.61494 0.0
H1383 H 0.16191 0.59385 0.66671 0.0
H1384 H 0.16074 0.55459 0.67008 0.0
H1385 H 0.13888 0.53191 0.64403 0.0
H1386 H 0.11977 0.58839 0.61231 0.0
H1387 H 0.2154 0.60419 0.61739 0.0
H1388 H 0.23431 0.63018 0.64255 0.0
O1389 O 0.1407 0.62674 0.66948 0.0
C1390 C 0.12982 0.6702 0.64065 0.0
C1391 C 0.20516 0.64216 0.65423 0.0
C1392 C 0.20639 0.61445 0.62738 0.0
N1393 N 0.17256 0.62602 0.63888 0.0
C1394 C 0.18282 0.64045 0.65266 0.0
C1395 C 0.18403 0.6132 0.62623 0.0
C1396 C 0.21699 0.62903 0.6415 0.0
C1397 C 0.07021 0.63119 0.61113 0.0
N1398 N 0.07675 0.64704 0.62539 0.0
C1399 C 0.0594 0.636 0.59209 0.0
C1400 C 0.05531 0.65718 0.58767 0.0
C1401 C 0.06207 0.67326 0.60226 0.0
C1402 C 0.07286 0.66787 0.62113 0.0
C1403 C 0.03736 0.66518 0.6775 0.0
C1404 C 0.08135 0.67056 0.68349 0.0
C1405 C 0.0512 0.65354 0.66538 0.0
N1406 N 0.07289 0.6564 0.66839 0.0
C1407 C 0.06799 0.68247 0.69593 0.0
C1408 C 0.04585 0.67975 0.69286 0.0
C1409 C 0.12641 0.62897 0.6836 0.0
C1410 C 0.12799 0.55876 0.62634 0.0
C1411 C 0.15227 0.58409 0.65538 0.0
C1412 C 0.15173 0.56187 0.65733 0.0
C1413 C 0.13948 0.54915 0.64269 0.0
N1414 N 0.14098 0.59339 0.63928 0.0
C1415 C 0.12895 0.58103 0.62486 0.0
Co1416 Co 0.89763 0.8731 0.64911 0.0
Co1417 Co 0.91741 0.87811 0.59854 0.0
O1418 O 0.89706 0.88561 0.62035 0.0
C1419 C 0.85061 0.87673 0.63597 0.0
O1420 O 0.85613 0.8859 0.61806 0.0
C1421 C 0.90963 0.92507 0.59165 0.0
O1422 O 0.89864 0.92643 0.60912 0.0
O1423 O 0.94151 0.88705 0.61819 0.0
O1424 O 0.93033 0.87367 0.64939 0.0
H1425 H 0.98197 0.84241 0.57223 0.0
H1426 H 0.87396 0.91323 0.6426 0.0
O1427 O 0.86488 0.87133 0.6497 0.0
H1428 H 0.92847 0.93078 0.69916 0.0
H1429 H 0.87362 0.86297 0.72473 0.0
H1430 H 0.92233 0.83935 0.66961 0.0
H1431 H 0.92537 0.8948 0.68285 0.0
H1432 H 0.87357 0.8794 0.689 0.0
O1433 O 0.91794 0.90768 0.58649 0.0
H1434 H 0.95623 0.85276 0.59906 0.0
H1435 H 0.92275 0.8878 0.55227 0.0
H1436 H 0.92299 0.82257 0.70513 0.0
H1437 H 0.87628 0.94918 0.65867 0.0
H1438 H 0.89851 0.83438 0.73299 0.0
H1439 H 0.90374 0.95828 0.68717 0.0
O1440 O 0.89601 0.84379 0.63659 0.0
H1441 H 0.84745 0.88636 0.55822 0.0
H1442 H 0.90698 0.83932 0.57151 0.0
H1443 H 0.87764 0.82764 0.54635 0.0
H1444 H 0.84762 0.85125 0.53946 0.0
H1445 H 0.87687 0.89726 0.58347 0.0
H1446 H 0.94875 0.87859 0.52527 0.0
H1447 H 0.97849 0.8556 0.53504 0.0
O1448 O 0.91806 0.84831 0.60932 0.0
C1449 C 0.94523 0.8809 0.63723 0.0
C1450 C 0.96913 0.85252 0.56776 0.0
C1451 C 0.95044 0.87278 0.54138 0.0
N1452 N 0.93791 0.87081 0.57725 0.0
C1453 C 0.9544 0.85834 0.58285 0.0
C1454 C 0.93586 0.87807 0.5568 0.0
C1455 C 0.96714 0.85988 0.54689 0.0
C1456 C 0.88575 0.91678 0.65511 0.0
N1457 N 0.89935 0.90169 0.66178 0.0
C1458 C 0.88709 0.93731 0.66411 0.0
C1459 C 0.90252 0.94243 0.68006 0.0
C1460 C 0.91641 0.92702 0.68677 0.0
C1461 C 0.9146 0.90666 0.67739 0.0
C1462 C 0.88439 0.85772 0.71274 0.0
C1463 C 0.91173 0.84467 0.68169 0.0
C1464 C 0.88441 0.86693 0.69248 0.0
N1465 N 0.89806 0.86045 0.67731 0.0
C1466 C 0.91213 0.83506 0.70176 0.0
C1467 C 0.89837 0.84168 0.71737 0.0
C1468 C 0.90766 0.83641 0.62221 0.0
C1469 C 0.86045 0.87592 0.56107 0.0
C1470 C 0.89388 0.84964 0.56884 0.0
C1471 C 0.87735 0.84296 0.55446 0.0
C1472 C 0.86054 0.85622 0.55057 0.0
N1473 N 0.89376 0.86904 0.57907 0.0
C1474 C 0.87726 0.88207 0.57534 0.0
Co1475 Co 0.64924 0.3683 0.11616 0.0
Co1476 Co 0.59849 0.38338 0.12543 0.0
O1477 O 0.62955 0.38636 0.13047 0.0
C1478 C 0.6766 0.35404 0.15174 0.0
O1479 O 0.66912 0.33448 0.1472 0.0
C1480 C 0.60977 0.42949 0.11802 0.0
O1481 O 0.62453 0.42268 0.10551 0.0
O1482 O 0.60168 0.38537 0.09395 0.0
O1483 O 0.6306 0.36636 0.08981 0.0
H1484 H 0.52986 0.35417 0.08991 0.0
H1485 H 0.66642 0.40921 0.13566 0.0
O1486 O 0.66863 0.36985 0.14223 0.0
H1487 H 0.68165 0.41498 0.05892 0.0
H1488 H 0.72187 0.34617 0.09416 0.0
H1489 H 0.64411 0.32836 0.09029 0.0
H1490 H 0.6636 0.38229 0.07299 0.0
H1491 H 0.69684 0.36924 0.11187 0.0
O1492 O 0.59738 0.41582 0.12744 0.0
H1493 H 0.56897 0.35705 0.09656 0.0
H1494 H 0.56193 0.40511 0.14379 0.0
H1495 H 0.66856 0.30496 0.07219 0.0
H1496 H 0.68481 0.44207 0.1223 0.0
H1497 H 0.70776 0.31379 0.07407 0.0
H1498 H 0.69245 0.44514 0.08365 0.0
O1499 O 0.63363 0.34257 0.12731 0.0
H1500 H 0.61253 0.4056 0.20214 0.0
H1501 H 0.57376 0.35355 0.15356 0.0
H1502 H 0.56971 0.35024 0.19254 0.0
H1503 H 0.58913 0.37644 0.21711 0.0
H1504 H 0.61626 0.4082 0.16305 0.0
H1505 H 0.52283 0.40307 0.13737 0.0
H1506 H 0.50649 0.3773 0.11039 0.0
O1507 O 0.59927 0.35083 0.12296 0.0
C1508 C 0.61398 0.37492 0.08237 0.0
C1509 C 0.53676 0.36537 0.10179 0.0
C1510 C 0.53279 0.39281 0.12842 0.0
N1511 N 0.56769 0.3811 0.12067 0.0
C1512 C 0.55888 0.36701 0.10568 0.0
C1513 C 0.55496 0.39396 0.13193 0.0
C1514 C 0.52365 0.37837 0.11327 0.0
C1515 C 0.66994 0.41031 0.11887 0.0
N1516 N 0.66403 0.39379 0.10517 0.0
C1517 C 0.68026 0.429 0.11138 0.0
C1518 C 0.6845 0.43074 0.08968 0.0
C1519 C 0.67842 0.41383 0.0758 0.0
C1520 C 0.66812 0.39539 0.08385 0.0
C1521 C 0.70483 0.34216 0.0932 0.0
C1522 C 0.66114 0.33235 0.09116 0.0
C1523 C 0.69057 0.35515 0.10321 0.0
N1524 N 0.669 0.35018 0.1021 0.0
C1525 C 0.67491 0.31902 0.08088 0.0
C1526 C 0.6969 0.32399 0.08194 0.0
C1527 C 0.61373 0.33723 0.12583 0.0
C1528 C 0.60395 0.39412 0.1916 0.0
C1529 C 0.58234 0.36495 0.16416 0.0
C1530 C 0.57994 0.36302 0.18621 0.0
C1531 C 0.59083 0.37774 0.19999 0.0
N1532 N 0.59516 0.38111 0.15606 0.0
C1533 C 0.60595 0.39555 0.16946 0.0
Co1534 Co 0.13285 0.12846 0.64748 0.0
Co1535 Co 0.11348 0.13872 0.59614 0.0
O1536 O 0.13214 0.12394 0.61629 0.0
C1537 C 0.17918 0.12846 0.63376 0.0
O1538 O 0.17286 0.12479 0.61389 0.0
C1539 C 0.11021 0.09215 0.58255 0.0
O1540 O 0.11911 0.08599 0.6005 0.0
O1541 O 0.08821 0.13142 0.61348 0.0
O1542 O 0.10032 0.12817 0.6474 0.0
H1543 H 0.05573 0.1882 0.5759 0.0
H1544 H 0.1561 0.09154 0.63015 0.0
O1545 O 0.16558 0.1297 0.64862 0.0
H1546 H 0.10291 0.05984 0.67885 0.0
H1547 H 0.1593 0.11751 0.72313 0.0
H1548 H 0.10932 0.15564 0.67677 0.0
H1549 H 0.1057 0.09874 0.67331 0.0
H1550 H 0.15812 0.11147 0.68406 0.0
O1551 O 0.10724 0.11181 0.57911 0.0
H1552 H 0.07982 0.16997 0.60077 0.0
H1553 H 0.1069 0.138 0.54865 0.0
H1554 H 0.10984 0.16203 0.71577 0.0
H1555 H 0.15421 0.05273 0.63561 0.0
H1556 H 0.13497 0.14289 0.73923 0.0
H1557 H 0.12737 0.03652 0.66004 0.0
O1558 O 0.13472 0.15996 0.64398 0.0
H1559 H 0.17851 0.12293 0.55417 0.0
H1560 H 0.13173 0.17911 0.5774 0.0
H1561 H 0.16225 0.18865 0.55465 0.0
H1562 H 0.18579 0.16043 0.54269 0.0
H1563 H 0.14815 0.11417 0.57731 0.0
H1564 H 0.08305 0.15577 0.52326 0.0
H1565 H 0.05725 0.18114 0.53683 0.0
O1566 O 0.11868 0.16617 0.6123 0.0
C1567 C 0.08506 0.12887 0.63334 0.0
C1568 C 0.06696 0.17725 0.56978 0.0
C1569 C 0.08225 0.15903 0.54024 0.0
N1570 N 0.09491 0.1531 0.57619 0.0
C1571 C 0.08069 0.16694 0.58378 0.0
C1572 C 0.09572 0.14899 0.55471 0.0
C1573 C 0.0678 0.17326 0.54786 0.0
C1574 C 0.14466 0.08485 0.64109 0.0
N1575 N 0.13117 0.09762 0.65148 0.0
C1576 C 0.14353 0.06273 0.64399 0.0
C1577 C 0.12843 0.05363 0.65765 0.0
C1578 C 0.11469 0.0667 0.66817 0.0
C1579 C 0.11628 0.08875 0.66487 0.0
C1580 C 0.14825 0.12592 0.71308 0.0
C1581 C 0.12019 0.14715 0.6869 0.0
C1582 C 0.14755 0.1226 0.69096 0.0
N1583 N 0.13354 0.13307 0.67819 0.0
C1584 C 0.12047 0.15088 0.70896 0.0
C1585 C 0.13459 0.14015 0.72211 0.0
C1586 C 0.12764 0.17254 0.62991 0.0
C1587 C 0.16834 0.13537 0.55923 0.0
C1588 C 0.14208 0.16676 0.57261 0.0
C1589 C 0.15927 0.17225 0.55957 0.0
C1590 C 0.17245 0.15641 0.55284 0.0
N1591 N 0.13809 0.14606 0.57878 0.0
C1592 C 0.151 0.13047 0.57227 0.0
Co1593 Co 0.36145 0.64455 0.08571 0.0
Co1594 Co 0.40004 0.63186 0.12345 0.0
O1595 O 0.37171 0.62775 0.10969 0.0
C1596 C 0.32861 0.65041 0.11802 0.0
O1597 O 0.3442 0.6567 0.13148 0.0
C1598 C 0.39708 0.58557 0.11032 0.0
O1599 O 0.38952 0.59189 0.09179 0.0
O1600 O 0.4144 0.63209 0.09538 0.0
O1601 O 0.38984 0.64433 0.07218 0.0
H1602 H 0.47408 0.66618 0.13402 0.0
H1603 H 0.33695 0.6048 0.0979 0.0
O1604 O 0.33268 0.64493 0.09896 0.0
H1605 H 0.35778 0.59286 0.02341 0.0
H1606 H 0.30684 0.6644 0.0298 0.0
H1607 H 0.37922 0.68114 0.06071 0.0
H1608 H 0.36771 0.62703 0.04193 0.0
H1609 H 0.32069 0.64342 0.05985 0.0
O1610 O 0.4023 0.5995 0.12493 0.0
H1611 H 0.43807 0.66119 0.11703 0.0
H1612 H 0.42233 0.6105 0.15945 0.0
H1613 H 0.36603 0.70247 0.03062 0.0
H1614 H 0.32666 0.57039 0.07994 0.0
H1615 H 0.32956 0.69414 0.01499 0.0
H1616 H 0.33718 0.56423 0.04247 0.0
O1617 O 0.37056 0.6721 0.10048 0.0
H1618 H 0.3481 0.60382 0.17769 0.0
H1619 H 0.40367 0.65998 0.16223 0.0
H1620 H 0.38545 0.66068 0.1967 0.0
H1621 H 0.35746 0.63242 0.20462 0.0
H1622 H 0.36662 0.60384 0.14335 0.0
H1623 H 0.45822 0.61482 0.17679 0.0
H1624 H 0.48435 0.64286 0.1641 0.0
O1625 O 0.39822 0.66411 0.12218 0.0
C1626 C 0.40858 0.6386 0.077 0.0
C1627 C 0.46281 0.65394 0.13973 0.0
C1628 C 0.45392 0.62509 0.16372 0.0
N1629 N 0.42809 0.63567 0.13734 0.0
C1630 C 0.44238 0.65109 0.13022 0.0
C1631 C 0.43364 0.62269 0.15381 0.0
C1632 C 0.46857 0.64084 0.15659 0.0
C1633 C 0.3414 0.60231 0.08151 0.0
N1634 N 0.35284 0.61794 0.07096 0.0
C1635 C 0.3356 0.58277 0.07146 0.0
C1636 C 0.34154 0.57931 0.05045 0.0
C1637 C 0.35314 0.59535 0.03976 0.0
C1638 C 0.35872 0.61466 0.05034 0.0
C1639 C 0.32275 0.66816 0.03647 0.0
C1640 C 0.36339 0.67735 0.05391 0.0
C1641 C 0.33067 0.65638 0.05351 0.0
N1642 N 0.35079 0.66098 0.06194 0.0
C1643 C 0.35598 0.68952 0.03691 0.0
C1644 C 0.33553 0.68484 0.02815 0.0
C1645 C 0.38602 0.67763 0.11346 0.0
C1646 C 0.36031 0.61618 0.17445 0.0
C1647 C 0.39148 0.64767 0.16554 0.0
C1648 C 0.38125 0.64812 0.1851 0.0
C1649 C 0.36555 0.63225 0.18954 0.0
N1650 N 0.38627 0.63183 0.15085 0.0
C1651 C 0.3709 0.61623 0.15507 0.0
Co1652 Co 0.87106 0.10496 0.39502 0.0
Co1653 Co 0.86937 0.14748 0.43023 0.0
O1654 O 0.87994 0.13368 0.40511 0.0
C1655 C 0.91797 0.10563 0.40369 0.0
O1656 O 0.91321 0.11365 0.4223 0.0
C1657 C 0.86046 0.17787 0.39569 0.0
O1658 O 0.85044 0.1621 0.38489 0.0
O1659 O 0.83951 0.13998 0.42082 0.0
O1660 O 0.83936 0.11033 0.40007 0.0
H1661 H 0.82221 0.15441 0.49345 0.0
H1662 H 0.8985 0.13362 0.36834 0.0
O1663 O 0.90273 0.09993 0.39031 0.0
H1664 H 0.83294 0.11658 0.32458 0.0
H1665 H 0.87604 0.04103 0.34652 0.0
H1666 H 0.83964 0.07075 0.40818 0.0
H1667 H 0.83731 0.10128 0.36055 0.0
H1668 H 0.88548 0.07776 0.35954 0.0
O1669 O 0.86882 0.17474 0.41411 0.0
H1670 H 0.83703 0.13595 0.46268 0.0
H1671 H 0.87864 0.19014 0.4509 0.0
H1672 H 0.82952 0.03403 0.39556 0.0
H1673 H 0.89487 0.14914 0.33239 0.0
H1674 H 0.84784 0.01894 0.36456 0.0
H1675 H 0.86188 0.14067 0.31027 0.0
O1676 O 0.87373 0.09273 0.42426 0.0
H1677 H 0.94481 0.1769 0.42088 0.0
H1678 H 0.89434 0.14275 0.47108 0.0
H1679 H 0.93174 0.15145 0.48299 0.0
H1680 H 0.95725 0.16872 0.45782 0.0
H1681 H 0.90749 0.16736 0.40945 0.0
H1682 H 0.86445 0.20912 0.48173 0.0
H1683 H 0.83597 0.19125 0.5032 0.0
O1684 O 0.86942 0.12044 0.44659 0.0
C1685 C 0.82962 0.12485 0.41016 0.0
C1686 C 0.83468 0.16233 0.48428 0.0
C1687 C 0.85835 0.19305 0.47766 0.0
N1688 N 0.85873 0.16191 0.45504 0.0
C1689 C 0.84318 0.15192 0.46687 0.0
C1690 C 0.86632 0.18222 0.46023 0.0
C1691 C 0.84238 0.18302 0.48971 0.0
C1692 C 0.88418 0.1297 0.35873 0.0
N1693 N 0.86819 0.11646 0.36647 0.0
C1694 C 0.88218 0.13861 0.33842 0.0
C1695 C 0.86365 0.13387 0.32603 0.0
C1696 C 0.84741 0.12036 0.33405 0.0
C1697 C 0.84995 0.11178 0.35444 0.0
C1698 C 0.86791 0.04745 0.36001 0.0
C1699 C 0.84751 0.06435 0.39454 0.0
C1700 C 0.87322 0.0682 0.36747 0.0
N1701 N 0.863 0.0764 0.38449 0.0
C1702 C 0.84178 0.04353 0.38752 0.0
C1703 C 0.85208 0.03506 0.37014 0.0
C1704 C 0.87151 0.10066 0.44283 0.0
C1705 C 0.93386 0.16941 0.43201 0.0
C1706 C 0.90539 0.1501 0.45999 0.0
C1707 C 0.92653 0.15507 0.46685 0.0
C1708 C 0.94082 0.1648 0.45273 0.0
N1709 N 0.89871 0.15463 0.43962 0.0
C1710 C 0.91266 0.16407 0.42566 0.0
Co1711 Co 0.3583 0.39712 0.91284 0.0
Co1712 Co 0.3747 0.38262 0.86343 0.0
O1713 O 0.37552 0.38068 0.89426 0.0
C1714 C 0.40219 0.40485 0.93196 0.0
O1715 O 0.40864 0.414 0.91429 0.0
C1716 C 0.36562 0.33594 0.85358 0.0
O1717 O 0.34987 0.3413 0.84075 0.0
O1718 O 0.34295 0.37787 0.86278 0.0
O1719 O 0.33354 0.39566 0.89204 0.0
H1720 H 0.34731 0.40666 0.79186 0.0
H1721 H 0.37805 0.35775 0.92803 0.0
O1722 O 0.38273 0.39832 0.93408 0.0
H1723 H 0.30075 0.34555 0.9397 0.0
H1724 H 0.32998 0.41731 0.98426 0.0
H1725 H 0.3298 0.43317 0.9072 0.0
H1726 H 0.31485 0.37924 0.92395 0.0
H1727 H 0.3516 0.39695 0.95978 0.0
O1728 O 0.37764 0.35051 0.86297 0.0
H1729 H 0.34876 0.40505 0.8313 0.0
H1730 H 0.39897 0.36217 0.82916 0.0
H1731 H 0.30835 0.45435 0.93124 0.0
H1732 H 0.36469 0.32397 0.94414 0.0
H1733 H 0.3083 0.44642 0.97012 0.0
H1734 H 0.32576 0.31769 0.95006 0.0
O1735 O 0.36914 0.42407 0.89948 0.0
H1736 H 0.44964 0.368 0.88795 0.0
H1737 H 0.4054 0.41391 0.84325 0.0
H1738 H 0.44461 0.42075 0.84504 0.0
H1739 H 0.46701 0.39767 0.86748 0.0
H1740 H 0.41038 0.36182 0.88583 0.0
H1741 H 0.39803 0.3632 0.78968 0.0
H1742 H 0.37208 0.38562 0.7708 0.0
O1743 O 0.37178 0.41494 0.86475 0.0
C1744 C 0.32896 0.38594 0.87438 0.0
C1745 C 0.35872 0.39687 0.79991 0.0
C1746 C 0.38718 0.37247 0.79868 0.0
N1747 N 0.37402 0.38363 0.83246 0.0
C1748 C 0.35964 0.39594 0.82222 0.0
C1749 C 0.38764 0.37193 0.82101 0.0
C1750 C 0.37262 0.38505 0.7881 0.0
C1751 C 0.36114 0.35526 0.93081 0.0
N1752 N 0.34732 0.37062 0.9254 0.0
C1753 C 0.35364 0.33604 0.93982 0.0
C1754 C 0.3318 0.33252 0.9431 0.0
C1755 C 0.31776 0.34814 0.93729 0.0
C1756 C 0.32584 0.36717 0.92835 0.0
C1757 C 0.32999 0.42107 0.96743 0.0
C1758 C 0.32992 0.4297 0.9241 0.0
C1759 C 0.34217 0.40954 0.95347 0.0
N1760 N 0.3418 0.41375 0.93207 0.0
C1761 C 0.31775 0.44175 0.93764 0.0
C1762 C 0.31776 0.43732 0.95944 0.0
C1763 C 0.3713 0.42901 0.87985 0.0
C1764 C 0.44006 0.37811 0.87805 0.0
C1765 C 0.41504 0.40382 0.85308 0.0
C1766 C 0.43723 0.40774 0.854 0.0
C1767 C 0.44979 0.39478 0.86658 0.0
N1768 N 0.40562 0.38738 0.86429 0.0
C1769 C 0.41782 0.37463 0.87671 0.0
Co1770 Co 0.13367 0.91851 0.40421 0.0
Co1771 Co 0.14831 0.87637 0.43543 0.0
O1772 O 0.13017 0.88892 0.41354 0.0
C1773 C 0.08752 0.91285 0.41597 0.0
O1774 O 0.09428 0.90331 0.43328 0.0
C1775 C 0.15213 0.84644 0.39914 0.0
O1776 O 0.15866 0.86267 0.38739 0.0
O1777 O 0.17473 0.88628 0.42086 0.0
O1778 O 0.16623 0.91698 0.40516 0.0
H1779 H 0.21126 0.87411 0.48688 0.0
H1780 H 0.10586 0.88706 0.37922 0.0
O1781 O 0.10118 0.92037 0.4027 0.0
H1782 H 0.1606 0.91364 0.32926 0.0
H1783 H 0.11541 0.98202 0.35978 0.0
H1784 H 0.16283 0.95551 0.41676 0.0
H1785 H 0.16049 0.92756 0.36626 0.0
H1786 H 0.11122 0.94464 0.37181 0.0
O1787 O 0.14717 0.84924 0.41853 0.0
H1788 H 0.18724 0.89094 0.46087 0.0
H1789 H 0.14802 0.83352 0.45575 0.0
H1790 H 0.16771 0.99296 0.40511 0.0
H1791 H 0.10523 0.87282 0.3423 0.0
H1792 H 0.14401 1.00639 0.37638 0.0
H1793 H 0.13278 0.88609 0.31705 0.0
O1794 O 0.1341 0.92925 0.43441 0.0
H1795 H 0.07418 0.84176 0.43981 0.0
H1796 H 0.13401 0.8789 0.48045 0.0
H1797 H 0.10105 0.86766 0.49902 0.0
H1798 H 0.07084 0.84896 0.47866 0.0
H1799 H 0.10737 0.85343 0.42182 0.0
H1800 H 0.17166 0.81605 0.48165 0.0
H1801 H 0.20368 0.83629 0.49716 0.0
O1802 O 0.14987 0.90325 0.45259 0.0
C1803 C 0.1799 0.90334 0.41087 0.0
C1804 C 0.19737 0.86511 0.48018 0.0
C1805 C 0.17516 0.83252 0.47723 0.0
N1806 N 0.16619 0.86327 0.45689 0.0
C1807 C 0.18365 0.87459 0.46554 0.0
C1808 C 0.16183 0.8425 0.46259 0.0
C1809 C 0.19311 0.8439 0.48596 0.0
C1810 C 0.1178 0.89302 0.36828 0.0
N1811 N 0.13317 0.90815 0.37487 0.0
C1812 C 0.11741 0.88485 0.34741 0.0
C1813 C 0.13289 0.89228 0.33326 0.0
C1814 C 0.14851 0.90773 0.34011 0.0
C1815 C 0.14842 0.91551 0.3611 0.0
C1816 C 0.12589 0.97634 0.37229 0.0
C1817 C 0.15248 0.96125 0.40419 0.0
C1818 C 0.12356 0.95521 0.3792 0.0
N1819 N 0.13688 0.94789 0.39484 0.0
C1820 C 0.15528 0.98247 0.39771 0.0
C1821 C 0.14192 0.99001 0.3816 0.0
C1822 C 0.14289 0.92194 0.45126 0.0
C1823 C 0.08725 0.84985 0.44886 0.0
C1824 C 0.12091 0.87082 0.47146 0.0
C1825 C 0.10231 0.86444 0.48208 0.0
C1826 C 0.08538 0.85393 0.47065 0.0
N1827 N 0.12262 0.86679 0.45007 0.0
C1828 C 0.10612 0.85641 0.43878 0.0
Co1829 Co 0.65902 0.60664 0.9216 0.0
Co1830 Co 0.64682 0.62545 0.87107 0.0
O1831 O 0.64387 0.62507 0.90206 0.0
C1832 C 0.61265 0.59906 0.9301 0.0
O1833 O 0.60789 0.60154 0.90976 0.0
C1834 C 0.66077 0.66912 0.88613 0.0
O1835 O 0.67176 0.65894 0.90058 0.0
O1836 O 0.67854 0.62526 0.87386 0.0
O1837 O 0.68635 0.61235 0.90643 0.0
H1838 H 0.67448 0.60152 0.8006 0.0
H1839 H 0.63387 0.6413 0.93919 0.0
O1840 O 0.63198 0.60043 0.93712 0.0
H1841 H 0.7078 0.65649 0.96665 0.0
H1842 H 0.6756 0.57589 0.99388 0.0
H1843 H 0.69137 0.57399 0.91706 0.0
H1844 H 0.69893 0.62518 0.94326 0.0
H1845 H 0.65778 0.59965 0.96865 0.0
O1846 O 0.64919 0.65821 0.87228 0.0
H1847 H 0.67056 0.60073 0.83976 0.0
H1848 H 0.62928 0.65232 0.83645 0.0
H1849 H 0.70973 0.55005 0.94178 0.0
H1850 H 0.64199 0.67264 0.96275 0.0
H1851 H 0.70186 0.5509 0.98051 0.0
H1852 H 0.67918 0.68039 0.97667 0.0
O1853 O 0.65217 0.58134 0.90305 0.0
H1854 H 0.57447 0.65169 0.88734 0.0
H1855 H 0.61346 0.60006 0.84541 0.0
H1856 H 0.57407 0.5998 0.84197 0.0
H1857 H 0.55432 0.62579 0.863 0.0
H1858 H 0.61384 0.65122 0.89046 0.0
H1859 H 0.63288 0.65381 0.79728 0.0
H1860 H 0.65554 0.62822 0.77911 0.0
O1861 O 0.64494 0.59276 0.86973 0.0
C1862 C 0.69182 0.61955 0.88825 0.0
C1863 C 0.66449 0.61271 0.80833 0.0
C1864 C 0.64117 0.64207 0.80647 0.0
N1865 N 0.64956 0.62633 0.84031 0.0
C1866 C 0.66216 0.61228 0.83047 0.0
C1867 C 0.63922 0.64118 0.82864 0.0
C1868 C 0.65388 0.6277 0.79628 0.0
C1869 C 0.65006 0.64448 0.9453 0.0
N1870 N 0.66587 0.63133 0.93998 0.0
C1871 C 0.65458 0.6623 0.95856 0.0
C1872 C 0.67546 0.66666 0.96634 0.0
C1873 C 0.69152 0.65326 0.96072 0.0
C1874 C 0.68641 0.63558 0.94742 0.0
C1875 C 0.67922 0.5754 0.97706 0.0
C1876 C 0.68801 0.57458 0.93391 0.0
C1877 C 0.66914 0.58879 0.96268 0.0
N1878 N 0.67365 0.58831 0.94141 0.0
C1879 C 0.69839 0.56093 0.94782 0.0
C1880 C 0.69395 0.56139 0.96955 0.0
C1881 C 0.64756 0.57775 0.88334 0.0
C1882 C 0.5829 0.64033 0.87804 0.0
C1883 C 0.60496 0.61134 0.85468 0.0
C1884 C 0.58267 0.61117 0.85262 0.0
C1885 C 0.5716 0.62577 0.86441 0.0
N1886 N 0.61592 0.62569 0.86807 0.0
C1887 C 0.60519 0.64007 0.87966 0.0
Co1888 Co 0.61152 0.88509 0.86959 0.0
Co1889 Co 0.6632 0.87395 0.88321 0.0
O1890 O 0.63244 0.86923 0.88552 0.0
C1891 C 0.58447 0.89879 0.90482 0.0
O1892 O 0.58762 0.91857 0.8983 0.0
C1893 C 0.65544 0.82697 0.87418 0.0
O1894 O 0.64086 0.83199 0.85987 0.0
O1895 O 0.66075 0.87185 0.85148 0.0
O1896 O 0.62939 0.88624 0.84362 0.0
H1897 H 0.73078 0.90752 0.8537 0.0
H1898 H 0.59803 0.84431 0.8905 0.0
O1899 O 0.59348 0.88368 0.89549 0.0
H1900 H 0.58057 0.83291 0.81375 0.0
H1901 H 0.53645 0.90156 0.84636 0.0
H1902 H 0.6132 0.92274 0.84113 0.0
H1903 H 0.5965 0.86759 0.82689 0.0
H1904 H 0.56377 0.8812 0.86518 0.0
O1905 O 0.66611 0.84182 0.88472 0.0
H1906 H 0.69167 0.90196 0.85714 0.0
H1907 H 0.70074 0.8545 0.90412 0.0
H1908 H 0.58644 0.94347 0.82194 0.0
H1909 H 0.58194 0.80945 0.87805 0.0
H1910 H 0.54774 0.93293 0.82452 0.0
H1911 H 0.57318 0.80354 0.83941 0.0
O1912 O 0.62564 0.91272 0.87967 0.0
H1913 H 0.64778 0.85047 0.95813 0.0
H1914 H 0.68589 0.90444 0.91415 0.0
H1915 H 0.68847 0.90758 0.95349 0.0
H1916 H 0.66936 0.88043 0.97576 0.0
H1917 H 0.64548 0.84806 0.91872 0.0
H1918 H 0.73994 0.85939 0.90108 0.0
H1919 H 0.75519 0.88613 0.87578 0.0
O1920 O 0.66064 0.9062 0.88189 0.0
C1921 C 0.64717 0.87906 0.83818 0.0
C1922 C 0.72433 0.89587 0.86483 0.0
C1923 C 0.72947 0.86884 0.8914 0.0
N1924 N 0.69397 0.87807 0.88094 0.0
C1925 C 0.70221 0.89271 0.86689 0.0
C1926 C 0.70727 0.8661 0.89302 0.0
C1927 C 0.73802 0.88385 0.87721 0.0
C1928 C 0.59403 0.84197 0.8737 0.0
N1929 N 0.5981 0.85804 0.85948 0.0
C1930 C 0.58501 0.82215 0.86673 0.0
C1931 C 0.58014 0.81883 0.84504 0.0
C1932 C 0.5843 0.8353 0.83063 0.0
C1933 C 0.59337 0.85489 0.83817 0.0
C1934 C 0.55326 0.90629 0.84508 0.0
C1935 C 0.5964 0.91799 0.84225 0.0
C1936 C 0.56881 0.89483 0.8557 0.0
N1937 N 0.59007 0.90077 0.85425 0.0
C1938 C 0.58132 0.92981 0.83137 0.0
C1939 C 0.55961 0.92389 0.83284 0.0
C1940 C 0.64532 0.91907 0.88183 0.0
C1941 C 0.65621 0.86238 0.9486 0.0
C1942 C 0.67744 0.89263 0.92373 0.0
C1943 C 0.67902 0.89445 0.946 0.0
C1944 C 0.6683 0.8792 0.95848 0.0
N1945 N 0.6656 0.87605 0.91416 0.0
C1946 C 0.65501 0.86106 0.92629 0.0
Co1947 Co 0.62492 0.12753 0.41154 0.0
Co1948 Co 0.63698 0.09197 0.37212 0.0
O1949 O 0.62069 0.11509 0.3831 0.0
C1950 C 0.57806 0.11573 0.40786 0.0
O1951 O 0.58365 0.097 0.40107 0.0
C1952 C 0.65081 0.11164 0.33127 0.0
O1953 O 0.67044 0.10604 0.33531 0.0
O1954 O 0.66448 0.10803 0.37958 0.0
O1955 O 0.65717 0.12519 0.41003 0.0
H1956 H 0.69579 0.04034 0.37251 0.0
H1957 H 0.60007 0.14995 0.37844 0.0
O1958 O 0.59263 0.13005 0.41332 0.0
H1959 H 0.6601 0.20055 0.39992 0.0
H1960 H 0.60993 0.17887 0.47096 0.0
H1961 H 0.65216 0.11835 0.44951 0.0
H1962 H 0.65598 0.16514 0.41677 0.0
H1963 H 0.60551 0.16316 0.43468 0.0
O1964 O 0.6358 0.10655 0.34392 0.0
H1965 H 0.6747 0.06897 0.38717 0.0
H1966 H 0.63382 0.06605 0.33178 0.0
H1967 H 0.65724 0.13369 0.48589 0.0
H1968 H 0.60351 0.18524 0.36125 0.0
H1969 H 0.63601 0.16415 0.49682 0.0
H1970 H 0.63371 0.2108 0.37197 0.0
O1971 O 0.6223 0.09874 0.42463 0.0
H1972 H 0.56174 0.08293 0.34161 0.0
H1973 H 0.61989 0.04728 0.37945 0.0
H1974 H 0.58574 0.02706 0.37107 0.0
H1975 H 0.55633 0.04491 0.35216 0.0
H1976 H 0.5962 0.10254 0.35009 0.0
H1977 H 0.65444 0.03735 0.31654 0.0
H1978 H 0.68576 0.02445 0.33687 0.0
O1979 O 0.63795 0.0779 0.40066 0.0
C1980 C 0.67044 0.11852 0.39646 0.0
C1981 C 0.68219 0.04586 0.36348 0.0
C1982 C 0.65899 0.04418 0.33206 0.0
N1983 N 0.65305 0.06915 0.36035 0.0
C1984 C 0.67018 0.06205 0.3717 0.0
C1985 C 0.64737 0.06042 0.34077 0.0
C1986 C 0.67654 0.03693 0.3435 0.0
C1987 C 0.61316 0.16106 0.38329 0.0
N1988 N 0.62771 0.15557 0.39869 0.0
C1989 C 0.61507 0.18098 0.37346 0.0
C1990 C 0.63203 0.19531 0.37946 0.0
C1991 C 0.64685 0.18956 0.39514 0.0
C1992 C 0.64446 0.16948 0.4046 0.0
C1993 C 0.61929 0.16561 0.46638 0.0
C1994 C 0.64298 0.1317 0.45411 0.0
C1995 C 0.61682 0.15663 0.44588 0.0
N1996 N 0.62868 0.13997 0.43996 0.0
C1997 C 0.64587 0.14028 0.47475 0.0
C1998 C 0.63394 0.15736 0.48087 0.0
C1999 C 0.63047 0.0814 0.41907 0.0
C2000 C 0.57446 0.07496 0.34982 0.0
C2001 C 0.60719 0.05519 0.37116 0.0
C2002 C 0.58789 0.04364 0.36647 0.0
C2003 C 0.57141 0.05365 0.3558 0.0
N2004 N 0.61012 0.07607 0.36515 0.0
C2005 C 0.59405 0.08596 0.3546 0.0
Co2006 Co 0.4205 0.11765 0.86593 0.0
Co2007 Co 0.37062 0.13348 0.87845 0.0
O2008 O 0.4017 0.13607 0.88085 0.0
C2009 C 0.44765 0.10441 0.90279 0.0
O2010 O 0.44099 0.08444 0.89908 0.0
C2011 C 0.36193 0.17817 0.86535 0.0
O2012 O 0.34931 0.16973 0.85004 0.0
O2013 O 0.37187 0.13365 0.84666 0.0
O2014 O 0.4014 0.11621 0.83988 0.0
H2015 H 0.29942 0.10422 0.84896 0.0
H2016 H 0.4378 0.15891 0.88481 0.0
O2017 O 0.44005 0.11939 0.89176 0.0
H2018 H 0.45388 0.16284 0.80814 0.0
H2019 H 0.4925 0.09356 0.84441 0.0
H2020 H 0.41435 0.0784 0.83913 0.0
H2021 H 0.435 0.13081 0.82265 0.0
H2022 H 0.468 0.11723 0.86212 0.0
O2023 O 0.37122 0.16596 0.87858 0.0
H2024 H 0.33888 0.107 0.85248 0.0
H2025 H 0.33585 0.15621 0.89924 0.0
H2026 H 0.43826 0.05437 0.82108 0.0
H2027 H 0.457 0.19111 0.87102 0.0
H2028 H 0.47765 0.06188 0.82368 0.0
H2029 H 0.46515 0.19323 0.83242 0.0
O2030 O 0.40482 0.092 0.87721 0.0
H2031 H 0.39127 0.16008 0.95262 0.0
H2032 H 0.3476 0.10621 0.91029 0.0
H2033 H 0.34674 0.10545 0.94967 0.0
H2034 H 0.36862 0.13258 0.97112 0.0
H2035 H 0.39183 0.16011 0.9132 0.0
H2036 H 0.29636 0.15403 0.89621 0.0
H2037 H 0.27791 0.12786 0.87093 0.0
O2038 O 0.37049 0.10094 0.87828 0.0
C2039 C 0.38419 0.12466 0.83385 0.0
C2040 C 0.30728 0.11565 0.86006 0.0
C2041 C 0.30556 0.14362 0.88657 0.0
N2042 N 0.3396 0.13166 0.87612 0.0
C2043 C 0.32959 0.11727 0.86214 0.0
C2044 C 0.3279 0.14478 0.88823 0.0
C2045 C 0.29522 0.12893 0.87239 0.0
C2046 C 0.44142 0.15963 0.86802 0.0
N2047 N 0.43544 0.1429 0.85461 0.0
C2048 C 0.45223 0.17795 0.86029 0.0
C2049 C 0.45678 0.17913 0.83863 0.0
C2050 C 0.45046 0.1621 0.825 0.0
C2051 C 0.4397 0.14402 0.8333 0.0
C2052 C 0.47537 0.09012 0.84316 0.0
C2053 C 0.43147 0.08181 0.84028 0.0
C2054 C 0.46142 0.10344 0.85318 0.0
N2055 N 0.43975 0.0992 0.85166 0.0
C2056 C 0.44493 0.06813 0.83005 0.0
C2057 C 0.46703 0.07235 0.83152 0.0
C2058 C 0.38491 0.08708 0.87913 0.0
C2059 C 0.38162 0.14821 0.94345 0.0
C2060 C 0.35726 0.118 0.9195 0.0
C2061 C 0.35666 0.11753 0.9418 0.0
C2062 C 0.36893 0.13276 0.95382 0.0
N2063 N 0.36966 0.13327 0.90944 0.0
C2064 C 0.38181 0.14819 0.92112 0.0
Co2065 Co 0.37955 0.89012 0.4077 0.0
Co2066 Co 0.37497 0.92604 0.3667 0.0
O2067 O 0.38679 0.90109 0.37956 0.0
C2068 C 0.42662 0.89883 0.40842 0.0
O2069 O 0.42177 0.91771 0.40144 0.0
C2070 C 0.36586 0.89252 0.33379 0.0
O2071 O 0.35676 0.88079 0.34867 0.0
O2072 O 0.3456 0.91467 0.37223 0.0
O2073 O 0.34765 0.8956 0.40252 0.0
H2074 H 0.32427 0.98527 0.36099 0.0
H2075 H 0.40421 0.86417 0.37811 0.0
O2076 O 0.41141 0.88512 0.41287 0.0
H2077 H 0.33823 0.82037 0.39191 0.0
H2078 H 0.38662 0.83899 0.46873 0.0
H2079 H 0.351 0.9024 0.44235 0.0
H2080 H 0.34481 0.8558 0.40912 0.0
H2081 H 0.39451 0.85361 0.43309 0.0
O2082 O 0.37402 0.91114 0.33828 0.0
H2083 H 0.34126 0.95517 0.37837 0.0
H2084 H 0.38266 0.9496 0.32613 0.0
H2085 H 0.34246 0.88821 0.47798 0.0
H2086 H 0.39835 0.82877 0.3607 0.0
H2087 H 0.36036 0.85628 0.49139 0.0
H2088 H 0.36514 0.80664 0.36752 0.0
O2089 O 0.38397 0.91894 0.42132 0.0
H2090 H 0.44998 0.92249 0.34058 0.0
H2091 H 0.39882 0.9679 0.37538 0.0
H2092 H 0.43568 0.98224 0.36964 0.0
H2093 H 0.46154 0.9595 0.35202 0.0
H2094 H 0.41319 0.90855 0.34726 0.0
H2095 H 0.36669 0.9803 0.30852 0.0
H2096 H 0.33721 0.99832 0.32594 0.0
O2097 O 0.37539 0.94122 0.39477 0.0
C2098 C 0.33681 0.90478 0.38773 0.0
C2099 C 0.33729 0.97778 0.35334 0.0
C2100 C 0.36101 0.97488 0.32385 0.0
N2101 N 0.363 0.9507 0.35333 0.0
C2102 C 0.34694 0.96067 0.3631 0.0
C2103 C 0.37002 0.95754 0.33391 0.0
C2104 C 0.34448 0.98499 0.33364 0.0
C2105 C 0.38981 0.85455 0.38132 0.0
N2106 N 0.37493 0.86198 0.39471 0.0
C2107 C 0.38654 0.83455 0.37134 0.0
C2108 C 0.36789 0.82216 0.37516 0.0
C2109 C 0.35278 0.82986 0.38883 0.0
C2110 C 0.35657 0.84994 0.3985 0.0
C2111 C 0.3787 0.85289 0.46305 0.0
C2112 C 0.35873 0.88841 0.44802 0.0
C2113 C 0.38314 0.86125 0.44292 0.0
N2114 N 0.3731 0.87872 0.43562 0.0
C2115 C 0.35389 0.88049 0.46823 0.0
C2116 C 0.36395 0.86259 0.47575 0.0
C2117 C 0.37976 0.93731 0.41431 0.0
C2118 C 0.43887 0.93257 0.34822 0.0
C2119 C 0.41002 0.95784 0.36788 0.0
C2120 C 0.43085 0.96609 0.36456 0.0
C2121 C 0.44534 0.95334 0.35466 0.0
N2122 N 0.40383 0.93742 0.36159 0.0
C2123 C 0.41797 0.9248 0.35194 0.0
Co2124 Co 0.58407 0.14889 0.14946 0.0
Co2125 Co 0.61927 0.13357 0.11206 0.0
O2126 O 0.60694 0.13104 0.14042 0.0
C2127 C 0.61571 0.1519 0.18556 0.0
O2128 O 0.63109 0.15363 0.17172 0.0
C2129 C 0.60884 0.08686 0.11714 0.0
O2130 O 0.59027 0.09237 0.12403 0.0
O2131 O 0.5905 0.12887 0.09832 0.0
O2132 O 0.57109 0.14877 0.11978 0.0
H2133 H 0.62375 0.15978 0.03651 0.0
H2134 H 0.59199 0.10907 0.17287 0.0
O2135 O 0.5962 0.14963 0.17929 0.0
H2136 H 0.51638 0.10139 0.1484 0.0
H2137 H 0.52922 0.17361 0.20033 0.0
H2138 H 0.56336 0.18638 0.1311 0.0
H2139 H 0.53871 0.13365 0.1396 0.0
H2140 H 0.55693 0.15019 0.18793 0.0
O2141 O 0.62269 0.1014 0.11148 0.0
H2142 H 0.60878 0.15718 0.07255 0.0
H2143 H 0.65564 0.11381 0.09104 0.0
H2144 H 0.53566 0.21012 0.14286 0.0
H2145 H 0.57037 0.07631 0.18149 0.0
H2146 H 0.51858 0.20395 0.17782 0.0
H2147 H 0.53227 0.07235 0.16921 0.0
O2148 O 0.60187 0.175 0.14312 0.0
H2149 H 0.6787 0.11702 0.16389 0.0
H2150 H 0.65564 0.16584 0.10734 0.0
H2151 H 0.69116 0.17225 0.12502 0.0
H2152 H 0.70291 0.14771 0.15349 0.0
H2153 H 0.64322 0.11136 0.14595 0.0
H2154 H 0.67102 0.1158 0.05514 0.0
H2155 H 0.65508 0.13898 0.02761 0.0
O2156 O 0.61576 0.16591 0.1118 0.0
C2157 C 0.5738 0.13872 0.10231 0.0
C2158 C 0.63088 0.14968 0.04839 0.0
C2159 C 0.65739 0.12498 0.05884 0.0
N2160 N 0.63145 0.13551 0.08392 0.0
C2161 C 0.62252 0.1482 0.06884 0.0
C2162 C 0.6486 0.12388 0.07912 0.0
C2163 C 0.64845 0.13799 0.0434 0.0
C2164 C 0.57543 0.10744 0.16746 0.0
N2165 N 0.56663 0.12326 0.15579 0.0
C2166 C 0.56327 0.08884 0.17235 0.0
C2167 C 0.54191 0.08661 0.16541 0.0
C2168 C 0.53302 0.10286 0.15361 0.0
C2169 C 0.54574 0.1211 0.14874 0.0
C2170 C 0.53661 0.1765 0.1851 0.0
C2171 C 0.55583 0.18343 0.14623 0.0
C2172 C 0.55232 0.16331 0.178 0.0
N2173 N 0.56169 0.16685 0.15876 0.0
C2174 C 0.5402 0.19697 0.15283 0.0
C2175 C 0.53061 0.19349 0.17244 0.0
C2176 C 0.6108 0.17993 0.12569 0.0
C2177 C 0.6738 0.12779 0.15146 0.0
C2178 C 0.6606 0.15516 0.11979 0.0
C2179 C 0.68076 0.15883 0.12969 0.0
C2180 C 0.68735 0.14503 0.14565 0.0
N2181 N 0.6474 0.13821 0.12559 0.0
C2182 C 0.65377 0.12459 0.14117 0.0
Co2183 Co 0.3825 0.13503 0.63285 0.0
Co2184 Co 0.39441 0.08272 0.64407 0.0
O2185 O 0.37869 0.10404 0.62817 0.0
C2186 C 0.33624 0.1243 0.63976 0.0
O2187 O 0.34205 0.10639 0.64829 0.0
C2188 C 0.39915 0.07199 0.59755 0.0
O2189 O 0.39613 0.09173 0.5919 0.0
O2190 O 0.42209 0.099 0.64005 0.0
O2191 O 0.41473 0.13318 0.63392 0.0
H2192 H 0.44795 0.05778 0.69847 0.0
H2193 H 0.35457 0.11929 0.59642 0.0
O2194 O 0.35031 0.13764 0.63236 0.0
H2195 H 0.41307 0.16281 0.56414 0.0
H2196 H 0.36592 0.21179 0.6205 0.0
H2197 H 0.4109 0.16305 0.66099 0.0
H2198 H 0.41193 0.15848 0.60326 0.0
H2199 H 0.36161 0.17276 0.61464 0.0
O2200 O 0.39892 0.06646 0.61709 0.0
H2201 H 0.42749 0.08447 0.67905 0.0
H2202 H 0.39495 0.0351 0.64187 0.0
H2203 H 0.41589 0.20199 0.66723 0.0
H2204 H 0.35489 0.12348 0.55723 0.0
H2205 H 0.39328 0.22663 0.6469 0.0
H2206 H 0.38436 0.1453 0.54085 0.0
O2207 O 0.38137 0.13164 0.66428 0.0
H2208 H 0.32385 0.04724 0.61953 0.0
H2209 H 0.37295 0.06251 0.68144 0.0
H2210 H 0.33894 0.04163 0.68655 0.0
H2211 H 0.31418 0.03377 0.65543 0.0
H2212 H 0.3579 0.06823 0.61517 0.0
H2213 H 0.41518 1.00793 0.66072 0.0
H2214 H 0.44186 0.0192 0.68931 0.0
O2215 O 0.39036 0.09818 0.67161 0.0
C2216 C 0.42796 0.11845 0.63667 0.0
C2217 C 0.4363 0.05266 0.68611 0.0
C2218 C 0.41794 0.02468 0.66491 0.0
N2219 N 0.4099 0.06136 0.65949 0.0
C2220 C 0.42462 0.0677 0.67512 0.0
C2221 C 0.40655 0.04017 0.65426 0.0
C2222 C 0.4329 0.03102 0.68094 0.0
C2223 C 0.3673 0.12901 0.58942 0.0
N2224 N 0.38319 0.13864 0.6021 0.0
C2225 C 0.36747 0.13123 0.56721 0.0
C2226 C 0.38403 0.14344 0.55803 0.0
C2227 C 0.40016 0.15324 0.57109 0.0
C2228 C 0.39949 0.15065 0.59322 0.0
C2229 C 0.37589 0.20122 0.62942 0.0
C2230 C 0.40112 0.1737 0.65198 0.0
C2231 C 0.3735 0.17911 0.6262 0.0
N2232 N 0.38613 0.16568 0.63734 0.0
C2233 C 0.40396 0.19572 0.65563 0.0
C2234 C 0.39126 0.20954 0.64423 0.0
C2235 C 0.38489 0.11665 0.67732 0.0
C2236 C 0.33455 0.05048 0.6332 0.0
C2237 C 0.3622 0.05928 0.66784 0.0
C2238 C 0.34299 0.04739 0.67082 0.0
C2239 C 0.32912 0.04297 0.65335 0.0
N2240 N 0.3675 0.06648 0.64799 0.0
C2241 C 0.35391 0.06228 0.63081 0.0
Co2242 Co 0.4216 0.87581 0.14899 0.0
Co2243 Co 0.3824 0.87832 0.10925 0.0
O2244 O 0.39546 0.88665 0.13699 0.0
C2245 C 0.38985 0.86568 0.18196 0.0
O2246 O 0.37747 0.85663 0.1668 0.0
C2247 C 0.39207 0.9253 0.10806 0.0
O2248 O 0.41118 0.92051 0.115 0.0
O2249 O 0.41037 0.88108 0.09468 0.0
O2250 O 0.43537 0.87726 0.12076 0.0
H2251 H 0.37471 0.83769 0.03959 0.0
H2252 H 0.4033 0.91325 0.16973 0.0
O2253 O 0.40817 0.87414 0.17761 0.0
H2254 H 0.47567 0.9384 0.14854 0.0
H2255 H 0.47969 0.87004 0.20564 0.0
H2256 H 0.4514 0.84336 0.13546 0.0
H2257 H 0.46242 0.90117 0.14127 0.0
H2258 H 0.44704 0.88431 0.18948 0.0
O2259 O 0.37797 0.91009 0.10376 0.0
H2260 H 0.39142 0.84754 0.07475 0.0
H2261 H 0.34472 0.89311 0.08466 0.0
H2262 H 0.48369 0.82821 0.15131 0.0
H2263 H 0.41602 0.95053 0.17752 0.0
H2264 H 0.49826 0.8418 0.18648 0.0
H2265 H 0.45238 0.96338 0.16675 0.0
O2266 O 0.41101 0.84605 0.14241 0.0
H2267 H 0.32505 0.90153 0.15777 0.0
H2268 H 0.34691 0.84468 0.10922 0.0
H2269 H 0.31253 0.84016 0.12751 0.0
H2270 H 0.3014 0.86874 0.15196 0.0
H2271 H 0.35936 0.90532 0.13929 0.0
H2272 H 0.3276 0.88393 0.04951 0.0
H2273 H 0.34259 0.85598 0.02676 0.0
O2274 O 0.38713 0.8466 0.11484 0.0
C2275 C 0.42965 0.87946 0.10126 0.0
C2276 C 0.368 0.84985 0.04939 0.0
C2277 C 0.34158 0.87583 0.05494 0.0
N2278 N 0.36894 0.87075 0.08177 0.0
C2279 C 0.37735 0.85544 0.06933 0.0
C2280 C 0.35136 0.88099 0.07479 0.0
C2281 C 0.34998 0.86013 0.04219 0.0
C2282 C 0.41924 0.91864 0.16523 0.0
N2283 N 0.43213 0.905 0.15518 0.0
C2284 C 0.42633 0.93979 0.16961 0.0
C2285 C 0.44673 0.947 0.16354 0.0
C2286 C 0.45978 0.93301 0.15327 0.0
C2287 C 0.45216 0.91195 0.14916 0.0
C2288 C 0.47359 0.86409 0.19023 0.0
C2289 C 0.45758 0.84929 0.15082 0.0
C2290 C 0.45513 0.87212 0.181 0.0
N2291 N 0.44747 0.86483 0.16145 0.0
C2292 C 0.47589 0.84067 0.15971 0.0
C2293 C 0.484 0.84825 0.17948 0.0
C2294 C 0.39849 0.8365 0.12851 0.0
C2295 C 0.3297 0.889 0.1471 0.0
C2296 C 0.34218 0.85717 0.11987 0.0
C2297 C 0.32269 0.85454 0.13014 0.0
C2298 C 0.31644 0.87058 0.14386 0.0
N2299 N 0.35506 0.8753 0.12309 0.0
C2300 C 0.34906 0.89109 0.13652 0.0
Co2301 Co 0.64676 0.86672 0.63739 0.0
Co2302 Co 0.63517 0.91926 0.64785 0.0
O2303 O 0.65024 0.89751 0.6324 0.0
C2304 C 0.69347 0.87772 0.64387 0.0
O2305 O 0.68814 0.89573 0.65258 0.0
C2306 C 0.62713 0.92767 0.60141 0.0
O2307 O 0.6277 0.90725 0.59679 0.0
O2308 O 0.60731 0.90292 0.64357 0.0
O2309 O 0.61454 0.86849 0.63864 0.0
H2310 H 0.58367 0.94606 0.70094 0.0
H2311 H 0.67221 0.88169 0.60063 0.0
O2312 O 0.67896 0.86418 0.63665 0.0
H2313 H 0.61198 0.83688 0.56915 0.0
H2314 H 0.66279 0.78964 0.62571 0.0
H2315 H 0.62019 0.8395 0.666 0.0
H2316 H 0.61568 0.84214 0.60824 0.0
H2317 H 0.66662 0.82849 0.61943 0.0
O2318 O 0.62977 0.93458 0.62055 0.0
H2319 H 0.60339 0.9187 0.68228 0.0
H2320 H 0.63465 0.96677 0.64501 0.0
H2321 H 0.61572 0.80075 0.67267 0.0
H2322 H 0.66929 0.87663 0.56147 0.0
H2323 H 0.63712 0.77555 0.65244 0.0
H2324 H 0.63893 0.85416 0.54549 0.0
O2325 O 0.64974 0.87114 0.66877 0.0
H2326 H 0.70472 0.95404 0.62403 0.0
H2327 H 0.65821 0.9404 0.68541 0.0
H2328 H 0.69248 0.96134 0.69084 0.0
H2329 H 0.71595 0.96837 0.65999 0.0
H2330 H 0.67043 0.93302 0.61935 0.0
H2331 H 0.61513 0.9946 0.66308 0.0
H2332 H 0.58948 0.98432 0.69133 0.0
O2333 O 0.64016 0.90455 0.67566 0.0
C2334 C 0.60136 0.88329 0.64081 0.0
C2335 C 0.59488 0.95075 0.68873 0.0
C2336 C 0.61251 0.97799 0.66747 0.0
N2337 N 0.62031 0.94113 0.66274 0.0
C2338 C 0.60615 0.93534 0.67818 0.0
C2339 C 0.6235 0.96214 0.65727 0.0
C2340 C 0.59812 0.97221 0.68331 0.0
C2341 C 0.65911 0.87169 0.5938 0.0
N2342 N 0.64417 0.86219 0.60669 0.0
C2343 C 0.65747 0.86897 0.57161 0.0
C2344 C 0.64041 0.85639 0.56266 0.0
C2345 C 0.62527 0.84672 0.57592 0.0
C2346 C 0.6274 0.84982 0.59804 0.0
C2347 C 0.65334 0.80046 0.63459 0.0
C2348 C 0.62945 0.8286 0.65704 0.0
C2349 C 0.65547 0.82247 0.63113 0.0
N2350 N 0.6435 0.8362 0.64221 0.0
C2351 C 0.6269 0.80669 0.66093 0.0
C2352 C 0.63893 0.79256 0.64959 0.0
C2353 C 0.64628 0.88638 0.68162 0.0
C2354 C 0.6946 0.95115 0.63759 0.0
C2355 C 0.6684 0.94325 0.67193 0.0
C2356 C 0.68776 0.95519 0.6751 0.0
C2357 C 0.70091 0.95915 0.65778 0.0
N2358 N 0.66226 0.93556 0.65206 0.0
C2359 C 0.67511 0.93932 0.63501 0.0
Co2360 Co 0.88555 0.60513 0.90276 0.0
Co2361 Co 0.89095 0.65888 0.89061 0.0
O2362 O 0.89888 0.62936 0.88783 0.0
C2363 C 0.92427 0.58851 0.92417 0.0
O2364 O 0.91544 0.59134 0.94273 0.0
C2365 C 0.88407 0.64782 0.84471 0.0
O2366 O 0.87552 0.62959 0.85139 0.0
O2367 O 0.86006 0.6502 0.88787 0.0
O2368 O 0.85631 0.61597 0.89837 0.0
H2369 H 0.84978 0.71864 0.92016 0.0
H2370 H 0.9147 0.59717 0.8671 0.0
O2371 O 0.91474 0.59409 0.907 0.0
H2372 H 0.84486 0.56289 0.84448 0.0
H2373 H 0.87629 0.52686 0.92031 0.0
H2374 H 0.85229 0.59908 0.93548 0.0
H2375 H 0.8495 0.58074 0.8797 0.0
H2376 H 0.89204 0.55827 0.90174 0.0
O2377 O 0.89139 0.66196 0.8583 0.0
H2378 H 0.86012 0.6813 0.91671 0.0
H2379 H 0.90493 0.69955 0.86954 0.0
H2380 H 0.83613 0.56811 0.9545 0.0
H2381 H 0.91088 0.579 0.83198 0.0
H2382 H 0.84812 0.53167 0.94691 0.0
H2383 H 0.87571 0.56189 0.82036 0.0
O2384 O 0.88846 0.6209 0.93052 0.0
H2385 H 0.96771 0.6594 0.86895 0.0
H2386 H 0.91762 0.68702 0.92071 0.0
H2387 H 0.95611 0.69761 0.92436 0.0
H2388 H 0.98143 0.68382 0.8983 0.0
H2389 H 0.9291 0.64908 0.86603 0.0
H2390 H 0.89497 0.73705 0.87232 0.0
H2391 H 0.86727 0.7468 0.89785 0.0
O2392 O 0.89 0.65602 0.92281 0.0
C2393 C 0.84866 0.63333 0.89191 0.0
C2394 C 0.86193 0.7146 0.90904 0.0
C2395 C 0.88727 0.72493 0.88216 0.0
N2396 N 0.88323 0.68833 0.89309 0.0
C2397 C 0.86789 0.69351 0.90707 0.0
C2398 C 0.89282 0.70368 0.88062 0.0
C2399 C 0.87173 0.73039 0.8965 0.0
C2400 C 0.89945 0.58939 0.86237 0.0
N2401 N 0.88239 0.58993 0.87554 0.0
C2402 C 0.89734 0.57926 0.84238 0.0
C2403 C 0.87759 0.56972 0.83585 0.0
C2404 C 0.86027 0.57029 0.84936 0.0
C2405 C 0.86299 0.58047 0.86928 0.0
C2406 C 0.87093 0.54265 0.92376 0.0
C2407 C 0.85756 0.58328 0.9321 0.0
C2408 C 0.87979 0.5605 0.9133 0.0
N2409 N 0.87303 0.58049 0.91749 0.0
C2410 C 0.84838 0.5658 0.94292 0.0
C2411 C 0.85512 0.54536 0.93867 0.0
C2412 C 0.88928 0.64057 0.93617 0.0
C2413 C 0.95683 0.66556 0.88037 0.0
C2414 C 0.92856 0.68088 0.90938 0.0
C2415 C 0.95033 0.68698 0.91149 0.0
C2416 C 0.96452 0.67924 0.89686 0.0
N2417 N 0.92114 0.66752 0.89312 0.0
C2418 C 0.93495 0.65982 0.87875 0.0
Co2419 Co 0.85955 0.42705 0.15417 0.0
Co2420 Co 0.89788 0.394 0.13641 0.0
O2421 O 0.86892 0.40421 0.13568 0.0
C2422 C 0.8284 0.3915 0.16273 0.0
O2423 O 0.84482 0.37956 0.16571 0.0
C2424 C 0.8907 0.40503 0.09013 0.0
O2425 O 0.88365 0.42322 0.09684 0.0
O2426 O 0.91076 0.42375 0.13429 0.0
O2427 O 0.8875 0.44336 0.15165 0.0
H2428 H 0.97478 0.3936 0.16163 0.0
H2429 H 0.8323 0.41261 0.11673 0.0
O2430 O 0.83136 0.411 0.1574 0.0
H2431 H 0.85116 0.48889 0.10429 0.0
H2432 H 0.80608 0.47776 0.18056 0.0
H2433 H 0.87927 0.45321 0.19009 0.0
H2434 H 0.86387 0.47134 0.13704 0.0
H2435 H 0.8187 0.44908 0.15757 0.0
O2436 O 0.89702 0.39147 0.10384 0.0
H2437 H 0.93802 0.40611 0.1608 0.0
H2438 H 0.91936 0.35997 0.11277 0.0
H2439 H 0.86735 0.482 0.21337 0.0
H2440 H 0.81911 0.42958 0.08381 0.0
H2441 H 0.83053 0.49448 0.20864 0.0
H2442 H 0.82861 0.46796 0.07739 0.0
O2443 O 0.87077 0.41308 0.18024 0.0
H2444 H 0.84623 0.3327 0.11557 0.0
H2445 H 0.90592 0.35688 0.16455 0.0
H2446 H 0.88947 0.32043 0.16796 0.0
H2447 H 0.85941 0.30812 0.14333 0.0
H2448 H 0.86304 0.36909 0.11285 0.0
H2449 H 0.95596 0.34708 0.11292 0.0
H2450 H 0.98395 0.36391 0.13752 0.0
O2451 O 0.89923 0.3961 0.16896 0.0
C2452 C 0.90541 0.44112 0.14289 0.0
C2453 C 0.96272 0.38611 0.15087 0.0
C2454 C 0.95216 0.36002 0.12351 0.0
N2455 N 0.92656 0.38369 0.13685 0.0
C2456 C 0.94187 0.39308 0.15038 0.0
C2457 C 0.93148 0.36742 0.12346 0.0
C2458 C 0.96785 0.36946 0.13733 0.0
C2459 C 0.83631 0.42938 0.11414 0.0
N2460 N 0.84875 0.44098 0.12882 0.0
C2461 C 0.82887 0.43887 0.09543 0.0
C2462 C 0.83424 0.46041 0.09183 0.0
C2463 C 0.8469 0.47215 0.1069 0.0
C2464 C 0.85409 0.46211 0.1254 0.0
C2465 C 0.82219 0.47251 0.18273 0.0
C2466 C 0.86328 0.45865 0.18784 0.0
C2467 C 0.82941 0.45625 0.16978 0.0
N2468 N 0.84979 0.44964 0.17233 0.0
C2469 C 0.85659 0.47491 0.20112 0.0
C2470 C 0.83592 0.48189 0.19848 0.0
C2471 C 0.8874 0.40267 0.18391 0.0
C2472 C 0.85936 0.33786 0.12636 0.0
C2473 C 0.89281 0.35166 0.15382 0.0
C2474 C 0.88359 0.33098 0.15579 0.0
C2475 C 0.86674 0.32408 0.14196 0.0
N2476 N 0.88549 0.36506 0.13846 0.0
C2477 C 0.86899 0.35841 0.12484 0.0
Co2478 Co 0.08205 0.35995 0.63259 0.0
Co2479 Co 0.12216 0.40001 0.63059 0.0
O2480 O 0.10871 0.37231 0.62183 0.0
C2481 C 0.11306 0.3273 0.64204 0.0
O2482 O 0.12564 0.34274 0.65054 0.0
C2483 C 0.11355 0.40191 0.58371 0.0
O2484 O 0.09427 0.39444 0.58838 0.0
O2485 O 0.09456 0.41442 0.62837 0.0
O2486 O 0.0689 0.38813 0.63164 0.0
H2487 H 0.13033 0.4689 0.67254 0.0
H2488 H 0.10061 0.33942 0.59491 0.0
O2489 O 0.09484 0.33135 0.63391 0.0
H2490 H 0.02994 0.36198 0.56994 0.0
H2491 H 0.0222 0.30325 0.63732 0.0
H2492 H 0.05197 0.37272 0.66551 0.0
H2493 H 0.04224 0.36832 0.60733 0.0
H2494 H 0.05573 0.3196 0.62335 0.0
O2495 O 0.12732 0.40621 0.59895 0.0
H2496 H 0.11317 0.4338 0.66214 0.0
H2497 H 0.16063 0.4252 0.61602 0.0
H2498 H 0.01902 0.35656 0.68053 0.0
H2499 H 0.08864 0.3322 0.55752 0.0
H2500 H 1.00353 0.32183 0.66609 0.0
H2501 H 0.05317 0.3437 0.54475 0.0
O2502 O 0.09205 0.36615 0.66247 0.0
H2503 H 0.17909 0.35252 0.60592 0.0
H2504 H 0.15694 0.39961 0.66398 0.0
H2505 H 0.19089 0.38154 0.66787 0.0
H2506 H 0.20217 0.35782 0.63868 0.0
H2507 H 0.14519 0.37077 0.60277 0.0
H2508 H 0.17821 0.46031 0.62577 0.0
H2509 H 0.16306 0.48238 0.65426 0.0
O2510 O 0.11665 0.39377 0.66217 0.0
C2511 C 0.07511 0.40771 0.62988 0.0
C2512 C 0.13711 0.45941 0.66014 0.0
C2513 C 0.16397 0.4546 0.63387 0.0
N2514 N 0.13601 0.42743 0.63861 0.0
C2515 C 0.12751 0.43949 0.65424 0.0
C2516 C 0.15393 0.43477 0.62838 0.0
C2517 C 0.15547 0.46697 0.64986 0.0
C2518 C 0.085 0.34413 0.58958 0.0
N2519 N 0.07211 0.35415 0.60334 0.0
C2520 C 0.07835 0.3401 0.56836 0.0
C2521 C 0.05844 0.34658 0.5612 0.0
C2522 C 0.04542 0.35685 0.57531 0.0
C2523 C 0.05252 0.36049 0.59645 0.0
C2524 C 0.02863 0.3185 0.6436 0.0
C2525 C 0.04548 0.35751 0.65925 0.0
C2526 C 0.04758 0.32784 0.63573 0.0
N2527 N 0.05564 0.34721 0.64344 0.0
C2528 C 0.02673 0.34847 0.66775 0.0
C2529 C 0.01816 0.32893 0.65973 0.0
C2530 C 0.1047 0.37997 0.67213 0.0
C2531 C 0.17438 0.36287 0.61872 0.0
C2532 C 0.16173 0.38928 0.65123 0.0
C2533 C 0.18099 0.37913 0.6535 0.0
C2534 C 0.18731 0.36583 0.63712 0.0
N2535 N 0.14917 0.38634 0.63311 0.0
C2536 C 0.15525 0.37332 0.61699 0.0
Co2537 Co 0.14018 0.59503 0.12307 0.0
Co2538 Co 0.1285 0.6458 0.13812 0.0
O2539 O 0.1247 0.61491 0.13994 0.0
C2540 C 0.09467 0.58099 0.11386 0.0
O2541 O 0.09098 0.59996 0.1063 0.0
C2542 C 0.13549 0.63646 0.1848 0.0
O2543 O 0.14898 0.62224 0.17913 0.0
O2544 O 0.16016 0.6446 0.14143 0.0
O2545 O 0.16725 0.61337 0.12589 0.0
H2546 H 0.16163 0.71537 0.11223 0.0
H2547 H 0.11604 0.57944 0.16062 0.0
O2548 O 0.11335 0.57638 0.12029 0.0
H2549 H 0.19059 0.56073 0.1749 0.0
H2550 H 0.15915 0.52161 0.09964 0.0
H2551 H 0.17145 0.59906 0.08842 0.0
H2552 H 0.18081 0.57958 0.14189 0.0
H2553 H 0.14038 0.54748 0.1211 0.0
O2554 O 0.12628 0.64757 0.17046 0.0
H2555 H 0.15651 0.67607 0.11397 0.0
H2556 H 0.10855 0.68177 0.16015 0.0
H2557 H 0.19055 0.57376 0.0665 0.0
H2558 H 0.12507 0.56035 0.19368 0.0
H2559 H 0.18454 0.53481 0.07199 0.0
H2560 H 0.16259 0.55086 0.201 0.0
O2561 O 0.13267 0.60983 0.09615 0.0
H2562 H 0.05225 0.62648 0.15659 0.0
H2563 H 0.09925 0.66808 0.10836 0.0
H2564 H 0.06005 0.66897 0.10351 0.0
H2565 H 0.03627 0.64809 0.12777 0.0
H2566 H 0.09153 0.62592 0.16075 0.0
H2567 H 0.11327 0.72112 0.15906 0.0
H2568 H 0.13991 0.73816 0.1349 0.0
O2569 O 0.13055 0.64435 0.10561 0.0
C2570 C 0.17317 0.63142 0.13433 0.0
C2571 C 0.14992 0.70814 0.12277 0.0
C2572 C 0.1228 0.71137 0.14908 0.0
N2573 N 0.13213 0.67669 0.137 0.0
C2574 C 0.14691 0.68591 0.12377 0.0
C2575 C 0.12023 0.68909 0.14967 0.0
C2576 C 0.13774 0.72091 0.13551 0.0
C2577 C 0.13237 0.57523 0.1636 0.0
N2578 N 0.14784 0.58049 0.14925 0.0
C2579 C 0.1374 0.5645 0.1824 0.0
C2580 C 0.15846 0.5592 0.18651 0.0
C2581 C 0.17419 0.56475 0.17188 0.0
C2582 C 0.16856 0.5755 0.15325 0.0
C2583 C 0.16197 0.53856 0.09702 0.0
C2584 C 0.16882 0.58209 0.091 0.0
C2585 C 0.15138 0.55328 0.10915 0.0
N2586 N 0.15502 0.57474 0.10617 0.0
C2587 C 0.17963 0.56784 0.07849 0.0
C2588 C 0.17619 0.54594 0.08159 0.0
C2589 C 0.13102 0.62944 0.09139 0.0
C2590 C 0.06244 0.63569 0.14595 0.0
C2591 C 0.08901 0.6589 0.11892 0.0
C2592 C 0.06682 0.6595 0.11614 0.0
C2593 C 0.05349 0.6478 0.12976 0.0
N2594 N 0.09767 0.64703 0.13487 0.0
C2595 C 0.0847 0.63549 0.14827 0.0
Co2596 Co 0.931 0.63761 0.62461 0.0
Co2597 Co 0.87917 0.64367 0.63988 0.0
O2598 O 0.90673 0.63057 0.64279 0.0
C2599 C 0.94363 0.59425 0.61236 0.0
O2600 O 0.93999 0.59918 0.59226 0.0
C2601 C 0.88937 0.64027 0.68765 0.0
O2602 O 0.90633 0.62977 0.68355 0.0
O2603 O 0.89367 0.67264 0.64035 0.0
O2604 O 0.92332 0.66797 0.62196 0.0
H2605 H 0.82842 0.69499 0.60808 0.0
H2606 H 0.9405 0.6162 0.66592 0.0
O2607 O 0.93909 0.60724 0.62717 0.0
H2608 H 0.98141 0.6857 0.66989 0.0
H2609 H 0.00791 0.63443 0.6032 0.0
H2610 H 0.9376 0.66238 0.58478 0.0
H2611 H 0.95972 0.67535 0.63765 0.0
H2612 H 0.97693 0.62663 0.62594 0.0
O2613 O 0.87698 0.64623 0.67242 0.0
H2614 H 0.86254 0.67719 0.61177 0.0
H2615 H 0.83766 0.63917 0.66221 0.0
H2616 H 0.96816 0.67054 0.56156 0.0
H2617 H 0.9618 0.62608 0.6986 0.0
H2618 H 1.00362 0.65652 0.57071 0.0
H2619 H 0.98254 0.661 0.70069 0.0
O2620 O 0.91287 0.63049 0.59872 0.0
H2621 H 0.86498 0.56735 0.66349 0.0
H2622 H 0.84438 0.62281 0.61268 0.0
H2623 H 0.82581 0.58716 0.61069 0.0
H2624 H 0.83597 0.55913 0.63631 0.0
H2625 H 0.88327 0.60299 0.66471 0.0
H2626 H 0.80329 0.65664 0.65915 0.0
H2627 H 0.7985 0.68472 0.63188 0.0
O2628 O 0.8808 0.64221 0.60744 0.0
C2629 C 0.90988 0.6799 0.63031 0.0
C2630 C 0.83028 0.68272 0.61996 0.0
C2631 C 0.81619 0.66122 0.64866 0.0
N2632 N 0.852 0.65704 0.63705 0.0
C2633 C 0.84954 0.67254 0.62208 0.0
C2634 C 0.83569 0.65142 0.65035 0.0
C2635 C 0.81351 0.67697 0.63335 0.0
C2636 C 0.9494 0.63147 0.66671 0.0
N2637 N 0.94853 0.64528 0.64997 0.0
C2638 C 0.96143 0.63698 0.68527 0.0
C2639 C 0.97302 0.65659 0.68647 0.0
C2640 C 0.97236 0.67047 0.66921 0.0
C2641 C 0.95994 0.66454 0.65102 0.0
C2642 C 0.99252 0.64059 0.59899 0.0
C2643 C 0.95295 0.65615 0.58883 0.0
C2644 C 0.9749 0.6362 0.61179 0.0
N2645 N 0.95539 0.64391 0.60661 0.0
C2646 C 0.97021 0.66085 0.57563 0.0
C2647 C 0.99011 0.65298 0.58078 0.0
C2648 C 0.89396 0.63574 0.59367 0.0
C2649 C 0.86025 0.57949 0.65237 0.0
C2650 C 0.84891 0.61078 0.62396 0.0
C2651 C 0.83831 0.59058 0.62273 0.0
C2652 C 0.84402 0.57487 0.63709 0.0
N2653 N 0.86463 0.61535 0.6392 0.0
C2654 C 0.87048 0.59988 0.65312 0.0
Co2655 Co 0.14024 0.42415 0.86239 0.0
Co2656 Co 0.10183 0.38585 0.8773 0.0
O2657 O 0.13031 0.40015 0.87994 0.0
C2658 C 0.17353 0.39313 0.85563 0.0
O2659 O 0.1583 0.37892 0.84964 0.0
C2660 C 0.1063 0.39926 0.92332 0.0
O2661 O 0.11359 0.41786 0.91625 0.0
O2662 O 0.08774 0.41364 0.87794 0.0
O2663 O 0.11181 0.43679 0.86328 0.0
H2664 H 0.02691 0.374 0.847 0.0
H2665 H 0.16497 0.41332 0.90156 0.0
O2666 O 0.169 0.41191 0.86123 0.0
H2667 H 0.14542 0.48777 0.91252 0.0
H2668 H 0.19438 0.48112 0.83929 0.0
H2669 H 0.12192 0.44792 0.82599 0.0
H2670 H 0.13434 0.46815 0.8793 0.0
H2671 H 0.18093 0.45116 0.86141 0.0
O2672 O 0.10048 0.38438 0.90987 0.0
H2673 H 0.06318 0.39152 0.84996 0.0
H2674 H 0.07987 0.34953 0.89992 0.0
H2675 H 0.13465 0.47803 0.80366 0.0
H2676 H 0.17607 0.43226 0.93512 0.0
H2677 H 0.17112 0.49486 0.81027 0.0
H2678 H 0.16623 0.46975 0.94076 0.0
O2679 O 0.13099 0.4086 0.83555 0.0
H2680 H 0.15402 0.33267 0.90257 0.0
H2681 H 0.09712 0.34699 0.84934 0.0
H2682 H 0.11499 0.31287 0.84767 0.0
H2683 H 0.14365 0.30553 0.87445 0.0
H2684 H 0.13582 0.36664 0.90353 0.0
H2685 H 0.04375 0.33163 0.89761 0.0
H2686 H 0.01699 0.34387 0.87098 0.0
O2687 O 0.10284 0.38706 0.84481 0.0
C2688 C 0.09328 0.4318 0.87023 0.0
C2689 C 0.03845 0.36849 0.85862 0.0
C2690 C 0.04789 0.34473 0.88706 0.0
N2691 N 0.07364 0.37145 0.87499 0.0
C2692 C 0.05902 0.3783 0.86033 0.0
C2693 C 0.0683 0.35495 0.88832 0.0
C2694 C 0.03289 0.35159 0.8721 0.0
C2695 C 0.16071 0.42966 0.90386 0.0
N2696 N 0.14909 0.43963 0.88845 0.0
C2697 C 0.16699 0.44029 0.92292 0.0
C2698 C 0.16142 0.4613 0.92609 0.0
C2699 C 0.14967 0.4714 0.91027 0.0
C2700 C 0.14348 0.46021 0.89149 0.0
C2701 C 0.17844 0.47396 0.83629 0.0
C2702 C 0.13776 0.45525 0.82905 0.0
C2703 C 0.17075 0.45696 0.84873 0.0
N2704 N 0.1506 0.4479 0.84509 0.0
C2705 C 0.1449 0.47225 0.81632 0.0
C2706 C 0.16538 0.48166 0.82001 0.0
C2707 C 0.11519 0.39556 0.83074 0.0
C2708 C 0.14152 0.33565 0.89085 0.0
C2709 C 0.1096 0.34392 0.86101 0.0
C2710 C 0.11964 0.32456 0.86001 0.0
C2711 C 0.13571 0.32045 0.87505 0.0
N2712 N 0.11536 0.35873 0.87658 0.0
C2713 C 0.13111 0.35482 0.89137 0.0
Co2714 Co 0.09557 0.65942 0.38 0.0
Co2715 Co 0.13067 0.61922 0.38547 0.0
O2716 O 0.12048 0.64711 0.39288 0.0
C2717 C 0.12961 0.69293 0.37263 0.0
O2718 O 0.14076 0.67849 0.36332 0.0
C2719 C 0.12207 0.61851 0.43199 0.0
O2720 O 0.1032 0.62496 0.42616 0.0
O2721 O 0.10135 0.60508 0.38708 0.0
O2722 O 0.07932 0.6313 0.37924 0.0
H2723 H 0.13047 0.54896 0.34604 0.0
H2724 H 0.11521 0.67897 0.41972 0.0
O2725 O 0.11142 0.68786 0.38034 0.0
H2726 H 0.04096 0.65732 0.43774 0.0
H2727 H 0.04395 0.71754 0.3692 0.0
H2728 H 0.06488 0.6468 0.34458 0.0
H2729 H 0.05385 0.65144 0.40134 0.0
H2730 H 0.07396 0.70006 0.38699 0.0
O2731 O 0.13544 0.6142 0.41753 0.0
H2732 H 0.11753 0.58453 0.35452 0.0
H2733 H 0.16632 0.59425 0.40267 0.0
H2734 H 0.03505 0.66384 0.32612 0.0
H2735 H 0.10291 0.68533 0.45626 0.0
H2736 H 0.02439 0.69947 0.33843 0.0
H2737 H 0.06558 0.67436 0.4655 0.0
O2738 O 0.10597 0.65351 0.3512 0.0
H2739 H 0.19324 0.66726 0.4112 0.0
H2740 H 0.16529 0.61812 0.35377 0.0
H2741 H 0.20127 0.63581 0.3509 0.0
H2742 H 0.21548 0.66056 0.37978 0.0
H2743 H 0.15728 0.64936 0.41335 0.0
H2744 H 0.17968 0.5587 0.39488 0.0
H2745 H 0.16174 0.53583 0.36634 0.0
O2746 O 0.1258 0.6246 0.35327 0.0
C2747 C 0.08287 0.61182 0.38285 0.0
C2748 C 0.13846 0.55881 0.35847 0.0
C2749 C 0.16606 0.56426 0.38591 0.0
N2750 N 0.14128 0.59147 0.37894 0.0
C2751 C 0.13126 0.57898 0.36328 0.0
C2752 C 0.15841 0.58434 0.39028 0.0
C2753 C 0.156 0.55144 0.36988 0.0
C2754 C 0.09886 0.67441 0.42354 0.0
N2755 N 0.08524 0.66495 0.40839 0.0
C2756 C 0.09201 0.67797 0.44428 0.0
C2757 C 0.07107 0.67177 0.44946 0.0
C2758 C 0.05726 0.66218 0.43391 0.0
C2759 C 0.06466 0.65886 0.41333 0.0
C2760 C 0.04842 0.70199 0.36372 0.0
C2761 C 0.06024 0.66223 0.35014 0.0
C2762 C 0.06535 0.692 0.37375 0.0
N2763 N 0.07105 0.67237 0.36692 0.0
C2764 C 0.04339 0.67184 0.33957 0.0
C2765 C 0.03745 0.69185 0.34645 0.0
C2766 C 0.11649 0.63906 0.34245 0.0
C2767 C 0.18725 0.65646 0.39855 0.0
C2768 C 0.17134 0.6289 0.36638 0.0
C2769 C 0.19174 0.63884 0.36469 0.0
C2770 C 0.19971 0.65271 0.3809 0.0
N2771 N 0.15924 0.63262 0.38377 0.0
C2772 C 0.16693 0.64622 0.39972 0.0
Co2773 Co 0.92552 0.36283 0.37878 0.0
Co2774 Co 0.88792 0.40066 0.38479 0.0
O2775 O 0.89979 0.37314 0.39094 0.0
C2776 C 0.89237 0.32917 0.36702 0.0
O2777 O 0.88065 0.34408 0.35899 0.0
C2778 C 0.897 0.39953 0.43171 0.0
O2779 O 0.91583 0.39335 0.42632 0.0
O2780 O 0.91649 0.41627 0.38803 0.0
O2781 O 0.94048 0.39147 0.38199 0.0
H2782 H 0.88323 0.47186 0.34904 0.0
H2783 H 0.90596 0.3393 0.41501 0.0
O2784 O 0.91082 0.33394 0.37533 0.0
H2785 H 0.97907 0.36202 0.44035 0.0
H2786 H 0.98055 0.3084 0.36732 0.0
H2787 H 0.95631 0.37921 0.34683 0.0
H2788 H 0.96644 0.37083 0.40394 0.0
H2789 H 0.94896 0.3229 0.38388 0.0
O2790 O 0.88344 0.40432 0.41696 0.0
H2791 H 0.89859 0.43708 0.35627 0.0
H2792 H 0.85105 0.42277 0.40196 0.0
H2793 H 0.98742 0.36497 0.32926 0.0
H2794 H 0.91805 0.32993 0.45143 0.0
H2795 H 0.99997 0.32947 0.33974 0.0
H2796 H 0.95478 0.34147 0.46438 0.0
O2797 O 0.91553 0.37052 0.34971 0.0
H2798 H 0.8284 0.34849 0.40567 0.0
H2799 H 0.85268 0.40086 0.35185 0.0
H2800 H 0.81759 0.38131 0.34669 0.0
H2801 H 0.80524 0.35493 0.37374 0.0
H2802 H 0.86343 0.36826 0.41011 0.0
H2803 H 0.83528 0.45749 0.39541 0.0
H2804 H 0.85135 0.48225 0.3687 0.0
O2805 O 0.89268 0.39692 0.35265 0.0
C2806 C 0.93553 0.41058 0.38565 0.0
C2807 C 0.87604 0.46118 0.36066 0.0
C2808 C 0.84915 0.45313 0.38671 0.0
N2809 N 0.8756 0.42788 0.37939 0.0
C2810 C 0.88463 0.44145 0.36477 0.0
C2811 C 0.85817 0.43353 0.3904 0.0
C2812 C 0.85817 0.46701 0.37172 0.0
C2813 C 0.92206 0.34414 0.42042 0.0
N2814 N 0.9355 0.35549 0.40731 0.0
C2815 C 0.92879 0.33886 0.44109 0.0
C2816 C 0.94939 0.34537 0.44836 0.0
C2817 C 0.96301 0.35696 0.43491 0.0
C2818 C 0.95575 0.36193 0.41432 0.0
C2819 C 0.97534 0.32395 0.36273 0.0
C2820 C 0.96161 0.36371 0.35142 0.0
C2821 C 0.9575 0.33227 0.37208 0.0
N2822 N 0.95092 0.35196 0.36645 0.0
C2823 C 0.97926 0.35574 0.34144 0.0
C2824 C 0.98623 0.33578 0.34726 0.0
C2825 C 0.90367 0.38437 0.3414 0.0
C2826 C 0.83357 0.35999 0.3938 0.0
C2827 C 0.84742 0.38938 0.36367 0.0
C2828 C 0.82753 0.37839 0.36068 0.0
C2829 C 0.8206 0.36359 0.37587 0.0
N2830 N 0.86002 0.3858 0.38133 0.0
C2831 C 0.85336 0.37131 0.39628 0.0
H2832 H 0.09589 0.30447 0.41336 0.0
H2833 H 0.14403 0.31636 0.36572 0.0
H2834 H 0.14693 0.27722 0.36092 0.0
H2835 H 0.1216 0.25968 0.43776 0.0
H2836 H 0.09651 0.24565 0.44344 0.0
H2837 H 0.0982 0.27443 0.44258 0.0
H2838 H 0.06718 0.2734 0.4142 0.0
H2839 H 0.06553 0.24462 0.41481 0.0
H2840 H 0.06951 0.25821 0.38983 0.0
H2841 H 0.14218 0.23651 0.35965 0.0
H2842 H 0.13463 0.19782 0.36607 0.0
H2843 H 0.09239 0.21333 0.4171 0.0
C2844 C 0.10713 0.29879 0.40201 0.0
C2845 C 0.11967 0.31324 0.38978 0.0
C2846 C 0.13437 0.3054 0.37525 0.0
C2847 C 0.136 0.28326 0.37235 0.0
C2848 C 0.12314 0.26936 0.38447 0.0
C2849 C 0.10937 0.27687 0.39938 0.0
C2850 C 0.09801 0.25874 0.41111 0.0
C2851 C 0.10394 0.25969 0.43514 0.0
C2852 C 0.07361 0.25875 0.40725 0.0
C2853 C 0.10729 0.23979 0.4003 0.0
C2854 C 0.12148 0.24617 0.38471 0.0
C2855 C 0.13132 0.23136 0.37199 0.0
C2856 C 0.12684 0.20947 0.37562 0.0
C2857 C 0.11306 0.20276 0.39212 0.0
C2858 C 0.10314 0.21812 0.4045 0.0
H2859 H 0.30176 0.61429 0.87391 0.0
H2860 H 0.31225 0.67079 0.91441 0.0
H2861 H 0.27323 0.67371 0.91657 0.0
H2862 H 0.25534 0.63142 0.84462 0.0
H2863 H 0.24193 0.6052 0.84395 0.0
H2864 H 0.27076 0.60791 0.84498 0.0
H2865 H 0.27149 0.58457 0.87901 0.0
H2866 H 0.24268 0.5818 0.87805 0.0
H2867 H 0.25657 0.59214 0.90189 0.0
H2868 H 0.23306 0.67082 0.91399 0.0
H2869 H 0.1945 0.66093 0.90861 0.0
H2870 H 0.21037 0.60551 0.87115 0.0
C2871 C 0.29585 0.62734 0.88314 0.0
C2872 C 0.31006 0.64236 0.89391 0.0
C2873 C 0.30168 0.65906 0.90604 0.0
C2874 C 0.27954 0.66091 0.90732 0.0
C2875 C 0.26598 0.64585 0.89654 0.0
C2876 C 0.27379 0.62928 0.88482 0.0
C2877 C 0.25574 0.61481 0.87536 0.0
C2878 C 0.25596 0.61485 0.85077 0.0
C2879 C 0.25668 0.59198 0.88411 0.0
C2880 C 0.23661 0.62583 0.8836 0.0
C2881 C 0.24283 0.64381 0.89561 0.0
C2882 C 0.22797 0.65673 0.90467 0.0
C2883 C 0.20612 0.65101 0.90149 0.0
C2884 C 0.1994 0.63241 0.88955 0.0
C2885 C 0.21494 0.61975 0.88048 0.0
H2886 H 0.88603 0.80659 0.42455 0.0
H2887 H 0.91059 0.82836 0.36372 0.0
H2888 H 0.91083 0.79088 0.35117 0.0
H2889 H 0.91661 0.76093 0.42925 0.0
H2890 H 0.89563 0.74431 0.44084 0.0
H2891 H 0.89635 0.77287 0.44467 0.0
H2892 H 0.85766 0.77369 0.42892 0.0
H2893 H 0.85682 0.7451 0.42505 0.0
H2894 H 0.85145 0.76228 0.40277 0.0
H2895 H 0.91103 0.75122 0.34627 0.0
H2896 H 0.90965 0.71191 0.34861 0.0
H2897 H 0.88356 0.7157 0.41205 0.0
C2898 C 0.89131 0.80351 0.40851 0.0
C2899 C 0.89836 0.82042 0.39512 0.0
C2900 C 0.90511 0.81569 0.37426 0.0
C2901 C 0.9053 0.79445 0.36698 0.0
C2902 C 0.89847 0.77817 0.38067 0.0
C2903 C 0.89143 0.78244 0.40093 0.0
C2904 C 0.88535 0.76198 0.41262 0.0
C2905 C 0.89932 0.75991 0.43305 0.0
C2906 C 0.86139 0.76069 0.41763 0.0
C2907 C 0.89043 0.7455 0.39589 0.0
C2908 C 0.89801 0.75523 0.37761 0.0
C2909 C 0.90488 0.74343 0.36038 0.0
C2910 C 0.9041 0.72111 0.36191 0.0
C2911 C 0.89635 0.71077 0.38045 0.0
C2912 C 0.8892 0.72317 0.39755 0.0
H2913 H 0.82414 0.38609 0.89516 0.0
H2914 H 0.82532 0.4397 0.85155 0.0
H2915 H 0.7869 0.43248 0.84313 0.0
H2916 H 0.78635 0.3512 0.86499 0.0
H2917 H 0.77281 0.34133 0.8883 0.0
H2918 H 0.80074 0.34998 0.89028 0.0
H2919 H 0.79274 0.37662 0.92067 0.0
H2920 H 0.76486 0.36784 0.9189 0.0
H2921 H 0.77264 0.39579 0.91621 0.0
H2922 H 0.74844 0.41954 0.83933 0.0
H2923 H 0.71161 0.40444 0.84363 0.0
H2924 H 0.73507 0.36003 0.89065 0.0
C2925 C 0.81633 0.39625 0.88378 0.0
C2926 C 0.82779 0.41338 0.87392 0.0
C2927 C 0.8169 0.42651 0.85935 0.0
C2928 C 0.7951 0.42245 0.85433 0.0
C2929 C 0.78433 0.40534 0.86418 0.0
C2930 C 0.79447 0.39264 0.87884 0.0
C2931 C 0.77886 0.37609 0.88809 0.0
C2932 C 0.78506 0.3533 0.88258 0.0
C2933 C 0.77718 0.37928 0.91241 0.0
C2934 C 0.7584 0.38152 0.87636 0.0
C2935 C 0.76196 0.39825 0.86244 0.0
C2936 C 0.74543 0.4064 0.85016 0.0
C2937 C 0.72457 0.39762 0.85263 0.0
C2938 C 0.7204 0.38104 0.86747 0.0
C2939 C 0.73768 0.37265 0.87912 0.0
H2940 H 0.11193 0.70608 0.65686 0.0
H2941 H 0.16381 0.68594 0.61783 0.0
H2942 H 0.17505 0.72364 0.6118 0.0
H2943 H 0.09877 0.75135 0.62576 0.0
H2944 H 0.0934 0.76794 0.64848 0.0
H2945 H 0.08948 0.7393 0.65014 0.0
H2946 H 0.11498 0.73935 0.68347 0.0
H2947 H 0.11896 0.76801 0.68195 0.0
H2948 H 0.14168 0.75149 0.68192 0.0
H2949 H 0.17975 0.76323 0.60847 0.0
H2950 H 0.17894 0.80247 0.60971 0.0
H2951 H 0.12501 0.79746 0.65204 0.0
C2952 C 0.12571 0.70957 0.64711 0.0
C2953 C 0.13695 0.69295 0.6378 0.0
C2954 C 0.15494 0.6983 0.62521 0.0
C2955 C 0.16145 0.7197 0.62163 0.0
C2956 C 0.14995 0.73563 0.63091 0.0
C2957 C 0.13259 0.73088 0.64354 0.0
C2958 C 0.12311 0.75113 0.65166 0.0
C2959 C 0.09981 0.7525 0.64352 0.0
C2960 C 0.12479 0.75257 0.67621 0.0
C2961 C 0.13778 0.76797 0.64144 0.0
C2962 C 0.15306 0.75862 0.62946 0.0
C2963 C 0.16798 0.77075 0.61794 0.0
C2964 C 0.16733 0.79306 0.6187 0.0
C2965 C 0.15198 0.8031 0.63106 0.0
C2966 C 0.13707 0.7903 0.64264 0.0
H2967 H 0.71722 0.62813 0.09902 0.0
H2968 H 0.69542 0.61838 0.16374 0.0
H2969 H 0.73288 0.62258 0.17737 0.0
H2970 H 0.76403 0.59905 0.10444 0.0
H2971 H 0.78003 0.61678 0.08799 0.0
H2972 H 0.75147 0.61404 0.08355 0.0
H2973 H 0.74915 0.65503 0.08814 0.0
H2974 H 0.77773 0.65787 0.09267 0.0
H2975 H 0.76006 0.66803 0.11217 0.0
H2976 H 0.77274 0.62477 0.1835 0.0
H2977 H 0.81225 0.62623 0.1819 0.0
H2978 H 0.80796 0.63643 0.11349 0.0
C2979 C 0.72026 0.62703 0.1161 0.0
C2980 C 0.70337 0.62287 0.13034 0.0
C2981 C 0.70808 0.62154 0.15254 0.0
C2982 C 0.7293 0.62393 0.16043 0.0
C2983 C 0.74555 0.62784 0.14592 0.0
C2984 C 0.74127 0.62951 0.12424 0.0
C2985 C 0.76167 0.63314 0.11195 0.0
C2986 C 0.76446 0.61465 0.09605 0.0
C2987 C 0.76218 0.65481 0.10057 0.0
C2988 C 0.77816 0.63309 0.1301 0.0
C2989 C 0.76852 0.6299 0.14955 0.0
C2990 C 0.78046 0.62764 0.16844 0.0
C2991 C 0.80282 0.62846 0.16737 0.0
C2992 C 0.81297 0.63181 0.14764 0.0
C2993 C 0.80051 0.63445 0.12883 0.0
H2994 H 0.86094 0.20281 0.61449 0.0
H2995 H 0.90534 0.19273 0.66762 0.0
H2996 H 0.91361 0.23163 0.67022 0.0
H2997 H 0.89165 0.24318 0.58961 0.0
H2998 H 0.86939 0.25867 0.58155 0.0
H2999 H 0.86548 0.23023 0.58494 0.0
H3000 H 0.83559 0.23614 0.61189 0.0
H3001 H 0.83928 0.26465 0.60851 0.0
H3002 H 0.84119 0.25334 0.63485 0.0
H3003 H 0.92016 0.27066 0.66445 0.0
H3004 H 0.92251 0.30809 0.65271 0.0
H3005 H 0.87245 0.29361 0.60454 0.0
C3006 C 0.87217 0.20877 0.6269 0.0
C3007 C 0.88251 0.19467 0.64085 0.0
C3008 C 0.89713 0.20317 0.65682 0.0
C3009 C 0.90197 0.22525 0.6584 0.0
C3010 C 0.89183 0.23862 0.64411 0.0
C3011 C 0.87702 0.23077 0.62886 0.0
C3012 C 0.86894 0.24856 0.615 0.0
C3013 C 0.87419 0.24494 0.59138 0.0
C3014 C 0.84482 0.2508 0.61773 0.0
C3015 C 0.88193 0.26761 0.62454 0.0
C3016 C 0.89506 0.26144 0.64128 0.0
C3017 C 0.90968 0.27577 0.65166 0.0
C3018 C 0.91094 0.29699 0.6448 0.0
C3019 C 0.89747 0.3038 0.62789 0.0
C3020 C 0.88263 0.28893 0.61778 0.0
H3021 H 0.29545 0.37013 0.12321 0.0
H3022 H 0.32033 0.43445 0.10993 0.0
H3023 H 0.2838 0.44735 0.11069 0.0
H3024 H 0.25093 0.3716 0.08905 0.0
H3025 H 0.23252 0.35636 0.10544 0.0
H3026 H 0.26077 0.3524 0.1077 0.0
H3027 H 0.26058 0.36072 0.14833 0.0
H3028 H 0.23222 0.36441 0.14627 0.0
H3029 H 0.2501 0.38534 0.15751 0.0
H3030 H 0.24549 0.45271 0.10903 0.0
H3031 H 0.20642 0.45095 0.10572 0.0
H3032 H 0.20472 0.38279 0.11868 0.0
C3033 C 0.29313 0.38703 0.1213 0.0
C3034 C 0.31053 0.4015 0.117 0.0
C3035 C 0.30708 0.42333 0.11359 0.0
C3036 C 0.28645 0.43075 0.11398 0.0
C3037 C 0.26948 0.41606 0.11759 0.0
C3038 C 0.27247 0.39468 0.12128 0.0
C3039 C 0.25112 0.38206 0.12262 0.0
C3040 C 0.24871 0.36458 0.10516 0.0
C3041 C 0.24834 0.37258 0.14502 0.0
C3042 C 0.23578 0.39964 0.11854 0.0
C3043 C 0.24686 0.4191 0.11597 0.0
C3044 C 0.23657 0.43765 0.11129 0.0
C3045 C 0.21429 0.43642 0.10937 0.0
C3046 C 0.20238 0.41673 0.11199 0.0
C3047 C 0.21334 0.39806 0.11661 0.0
H3048 H 0.4176 0.09439 0.21216 0.0
H3049 H 0.36846 0.13791 0.19515 0.0
H3050 H 0.36384 0.14612 0.23355 0.0
H3051 H 0.39039 0.07273 0.25811 0.0
H3052 H 0.41487 0.06953 0.27333 0.0
H3053 H 0.41481 0.06806 0.24456 0.0
H3054 H 0.44507 0.09802 0.24423 0.0
H3055 H 0.44502 0.09976 0.273 0.0
H3056 H 0.44118 0.12327 0.25722 0.0
H3057 H 0.36616 0.15085 0.27391 0.0
H3058 H 0.37055 0.14698 0.31321 0.0
H3059 H 0.41545 0.09768 0.30347 0.0
C3060 C 0.40583 0.10559 0.21659 0.0
C3061 C 0.39343 0.11563 0.20088 0.0
C3062 C 0.378 0.13001 0.2071 0.0
C3063 C 0.37542 0.13489 0.2288 0.0
C3064 C 0.3881 0.12489 0.24397 0.0
C3065 C 0.40262 0.11014 0.23815 0.0
C3066 C 0.41325 0.10055 0.25756 0.0
C3067 C 0.40801 0.07628 0.25844 0.0
C3068 C 0.43757 0.10572 0.25802 0.0
C3069 C 0.40254 0.11227 0.27522 0.0
C3070 C 0.38842 0.12659 0.2671 0.0
C3071 C 0.37705 0.13958 0.28044 0.0
C3072 C 0.37975 0.13742 0.30268 0.0
C3073 C 0.39331 0.12206 0.31117 0.0
C3074 C 0.40497 0.10953 0.29727 0.0
H3075 H 0.40895 0.8717 0.71417 0.0
H3076 H 0.36187 0.91918 0.70268 0.0
H3077 H 0.35394 0.91949 0.74097 0.0
H3078 H 0.38035 0.84217 0.75399 0.0
H3079 H 0.40381 0.83738 0.77024 0.0
H3080 H 0.40602 0.84077 0.74179 0.0
H3081 H 0.43486 0.87163 0.74822 0.0
H3082 H 0.43285 0.8682 0.77668 0.0
H3083 H 0.42896 0.89398 0.76504 0.0
H3084 H 0.35004 0.91387 0.78008 0.0
H3085 H 0.35299 0.90533 0.81839 0.0
H3086 H 0.40346 0.86246 0.80498 0.0
C3087 C 0.39706 0.88225 0.71971 0.0
C3088 C 0.38601 0.89536 0.70534 0.0
C3089 C 0.37061 0.909 0.7133 0.0
C3090 C 0.3659 0.90924 0.73505 0.0
C3091 C 0.37683 0.89591 0.74869 0.0
C3092 C 0.3923 0.88289 0.74144 0.0
C3093 C 0.40201 0.87049 0.75964 0.0
C3094 C 0.39779 0.84627 0.7562 0.0
C3095 C 0.4261 0.87644 0.76256 0.0
C3096 C 0.38952 0.87858 0.7782 0.0
C3097 C 0.37494 0.89306 0.77147 0.0
C3098 C 0.36145 0.90262 0.7856 0.0
C3099 C 0.36319 0.89756 0.80732 0.0
C3100 C 0.37847 0.88324 0.81473 0.0
C3101 C 0.39164 0.87349 0.79986 0.0
H3102 H 0.59081 0.91625 0.21391 0.0
H3103 H 0.64017 0.87184 0.20255 0.0
H3104 H 0.64472 0.86671 0.2417 0.0
H3105 H 0.61765 0.94156 0.26044 0.0
H3106 H 0.59296 0.94566 0.27373 0.0
H3107 H 0.5934 0.94513 0.24495 0.0
H3108 H 0.56325 0.91503 0.24404 0.0
H3109 H 0.56288 0.91532 0.27283 0.0
H3110 H 0.56703 0.89077 0.25865 0.0
H3111 H 0.64174 0.86474 0.28212 0.0
H3112 H 0.63592 0.87051 0.32078 0.0
H3113 H 0.59133 0.91906 0.30527 0.0
C3114 C 0.60263 0.90552 0.21973 0.0
C3115 C 0.61507 0.89429 0.20542 0.0
C3116 C 0.63058 0.88059 0.21343 0.0
C3117 C 0.63314 0.8775 0.23555 0.0
C3118 C 0.62039 0.88862 0.2493 0.0
C3119 C 0.60582 0.90275 0.24169 0.0
C3120 C 0.59488 0.91363 0.25976 0.0
C3121 C 0.60004 0.93793 0.25971 0.0
C3122 C 0.57057 0.90837 0.25875 0.0
C3123 C 0.60537 0.90325 0.27878 0.0
C3124 C 0.61975 0.88857 0.27245 0.0
C3125 C 0.63072 0.87637 0.28726 0.0
C3126 C 0.62722 0.87962 0.30911 0.0
C3127 C 0.61327 0.89526 0.31582 0.0
C3128 C 0.60218 0.90711 0.30046 0.0
H3129 H 0.62463 0.14304 0.80054 0.0
H3130 H 0.67353 0.09921 0.81825 0.0
H3131 H 0.6774 0.08989 0.78025 0.0
H3132 H 0.59959 0.11124 0.75888 0.0
H3133 H 0.59454 0.13342 0.74161 0.0
H3134 H 0.59605 0.13735 0.77018 0.0
H3135 H 0.62575 0.16739 0.76606 0.0
H3136 H 0.62425 0.16368 0.73745 0.0
H3137 H 0.64949 0.1619 0.75172 0.0
H3138 H 0.6746 0.08376 0.74075 0.0
H3139 H 0.66749 0.0834 0.70184 0.0
H3140 H 0.62115 0.13198 0.70958 0.0
C3141 C 0.63629 0.13161 0.79645 0.0
C3142 C 0.64875 0.12184 0.81243 0.0
C3143 C 0.66385 0.10699 0.80634 0.0
C3144 C 0.66612 0.10151 0.78479 0.0
C3145 C 0.65333 0.11116 0.76952 0.0
C3146 C 0.63891 0.12608 0.77501 0.0
C3147 C 0.62712 0.13407 0.75544 0.0
C3148 C 0.60289 0.12869 0.7566 0.0
C3149 C 0.63195 0.15819 0.7525 0.0
C3150 C 0.63704 0.12113 0.73811 0.0
C3151 C 0.65204 0.10794 0.74661 0.0
C3152 C 0.66301 0.09413 0.73386 0.0
C3153 C 0.65878 0.09399 0.71177 0.0
C3154 C 0.64379 0.10771 0.7026 0.0
C3155 C 0.63275 0.12137 0.71605 0.0
H3156 H 0.8862 0.80371 0.64381 0.0
H3157 H 0.93559 0.81631 0.59723 0.0
H3158 H 0.94172 0.77809 0.59521 0.0
H3159 H 0.91192 0.76149 0.67146 0.0
H3160 H 0.88751 0.74549 0.67521 0.0
H3161 H 0.88683 0.77415 0.67343 0.0
H3162 H 0.85878 0.76996 0.6422 0.0
H3163 H 0.85935 0.74129 0.64391 0.0
H3164 H 0.86469 0.75439 0.61892 0.0
H3165 H 0.94351 0.73918 0.59847 0.0
H3166 H 0.93908 0.70065 0.60509 0.0
H3167 H 0.88764 0.71202 0.64851 0.0
C3168 C 0.89827 0.79842 0.63318 0.0
C3169 C 0.91045 0.81314 0.62078 0.0
C3170 C 0.92603 0.80549 0.60697 0.0
C3171 C 0.92971 0.78375 0.6057 0.0
C3172 C 0.91759 0.76973 0.61818 0.0
C3173 C 0.90204 0.77661 0.63151 0.0
C3174 C 0.89102 0.75789 0.64279 0.0
C3175 C 0.89453 0.75988 0.66717 0.0
C3176 C 0.86704 0.75576 0.63658 0.0
C3177 C 0.90291 0.73954 0.63369 0.0
C3178 C 0.91825 0.74685 0.61967 0.0
C3179 C 0.93149 0.73317 0.60935 0.0
C3180 C 0.92885 0.71128 0.61327 0.0
C3181 C 0.91296 0.70323 0.62728 0.0
C3182 C 0.89989 0.71764 0.63768 0.0
H3183 H 0.79111 0.41173 0.15663 0.0
H3184 H 0.81585 0.35117 0.176 0.0
H3185 H 0.77885 0.33647 0.18089 0.0
H3186 H 0.74547 0.411 0.19249 0.0
H3187 H 0.72827 0.42259 0.17267 0.0
H3188 H 0.75671 0.429 0.17291 0.0
H3189 H 0.75829 0.41647 0.13332 0.0
H3190 H 0.72988 0.41037 0.13297 0.0
H3191 H 0.74776 0.38999 0.12589 0.0
H3192 H 0.73913 0.32743 0.18026 0.0
H3193 H 0.70034 0.32408 0.17172 0.0
H3194 H 0.70199 0.39093 0.15372 0.0
C3195 C 0.78882 0.39545 0.16219 0.0
C3196 C 0.80638 0.38262 0.16603 0.0
C3197 C 0.80263 0.36132 0.17302 0.0
C3198 C 0.78169 0.35288 0.17597 0.0
C3199 C 0.76473 0.36599 0.17201 0.0
C3200 C 0.7681 0.38681 0.16521 0.0
C3201 C 0.74721 0.39706 0.16033 0.0
C3202 C 0.74425 0.41604 0.17551 0.0
C3203 C 0.7457 0.40386 0.13674 0.0
C3204 C 0.73151 0.37855 0.16485 0.0
C3205 C 0.74187 0.36085 0.17184 0.0
C3206 C 0.73081 0.34128 0.17513 0.0
C3207 C 0.70875 0.33955 0.17029 0.0
C3208 C 0.69807 0.35725 0.16212 0.0
C3209 C 0.70953 0.37718 0.16027 0.0
H3210 H 0.10458 0.20355 0.61111 0.0
H3211 H 0.15485 0.19414 0.65879 0.0
H3212 H 0.15769 0.23307 0.66612 0.0
H3213 H 0.12561 0.25391 0.59078 0.0
H3214 H 0.09958 0.26469 0.58759 0.0
H3215 H 0.10232 0.23627 0.58543 0.0
H3216 H 0.07448 0.22989 0.61495 0.0
H3217 H 0.07163 0.25827 0.61723 0.0
H3218 H 0.07874 0.24317 0.64052 0.0
H3219 H 0.155 0.27319 0.66807 0.0
H3220 H 0.14528 0.31091 0.66631 0.0
H3221 H 0.09563 0.29333 0.61857 0.0
C3222 C 0.11632 0.20965 0.62298 0.0
C3223 C 0.12959 0.19582 0.63428 0.0
C3224 C 0.14452 0.20445 0.64993 0.0
C3225 C 0.1463 0.22653 0.65415 0.0
C3226 C 0.13291 0.23969 0.64273 0.0
C3227 C 0.1181 0.23153 0.62759 0.0
C3228 C 0.10489 0.24889 0.61824 0.0
C3229 C 0.10832 0.25107 0.59408 0.0
C3230 C 0.08103 0.24481 0.62303 0.0
C3231 C 0.11456 0.26814 0.63051 0.0
C3232 C 0.13086 0.26257 0.64438 0.0
C3233 C 0.14223 0.27772 0.6573 0.0
C3234 C 0.13663 0.2991 0.65616 0.0
C3235 C 0.11964 0.30501 0.6424 0.0
C3236 C 0.1086 0.28928 0.62935 0.0
H3237 H 0.20428 0.61625 0.10941 0.0
H3238 H 0.19451 0.65981 0.16218 0.0
H3239 H 0.23355 0.6688 0.16458 0.0
H3240 H 0.25409 0.59663 0.12821 0.0
H3241 H 0.26523 0.59576 0.10195 0.0
H3242 H 0.2367 0.59239 0.10493 0.0
H3243 H 0.23105 0.62371 0.07895 0.0
H3244 H 0.25955 0.62718 0.07584 0.0
H3245 H 0.24462 0.64939 0.08442 0.0
H3246 H 0.27404 0.67214 0.16163 0.0
H3247 H 0.31206 0.67194 0.15161 0.0
H3248 H 0.29439 0.62769 0.09951 0.0
C3249 C 0.21032 0.62761 0.12157 0.0
C3250 C 0.19639 0.63722 0.13573 0.0
C3251 C 0.20492 0.65226 0.15117 0.0
C3252 C 0.22705 0.6574 0.1527 0.0
C3253 C 0.24034 0.64755 0.1385 0.0
C3254 C 0.23223 0.63316 0.12307 0.0
C3255 C 0.2497 0.62541 0.10916 0.0
C3256 C 0.25153 0.60111 0.1112 0.0
C3257 C 0.246 0.63181 0.08571 0.0
C3258 C 0.26899 0.63762 0.1192 0.0
C3259 C 0.26335 0.65013 0.13625 0.0
C3260 C 0.27861 0.6625 0.14823 0.0
C3261 C 0.30015 0.66224 0.14247 0.0
C3262 C 0.30612 0.64992 0.12472 0.0
C3263 C 0.29028 0.63743 0.11305 0.0
H3264 H 0.88912 0.20992 0.40797 0.0
H3265 H 0.83594 0.19474 0.36348 0.0
H3266 H 0.83823 0.23212 0.35056 0.0
H3267 H 0.87499 0.26176 0.42242 0.0
H3268 H 0.90222 0.27274 0.42392 0.0
H3269 H 0.89655 0.24479 0.429 0.0
H3270 H 0.92275 0.23473 0.39955 0.0
H3271 H 0.92859 0.26267 0.39445 0.0
H3272 H 0.9192 0.24497 0.37291 0.0
H3273 H 0.84538 0.2722 0.34439 0.0
H3274 H 0.85845 0.31029 0.34359 0.0
H3275 H 0.90755 0.2974 0.3914 0.0
C3276 C 0.87796 0.21439 0.39545 0.0
C3277 C 0.86225 0.19955 0.38679 0.0
C3278 C 0.84811 0.20594 0.37028 0.0
C3279 C 0.84926 0.2271 0.36291 0.0
C3280 C 0.86481 0.24143 0.37208 0.0
C3281 C 0.87905 0.2352 0.38781 0.0
C3282 C 0.89435 0.25341 0.39512 0.0
C3283 C 0.89186 0.25847 0.41902 0.0
C3284 C 0.91759 0.24866 0.3902 0.0
C3285 C 0.88639 0.27103 0.38123 0.0
C3286 C 0.86929 0.26397 0.36809 0.0
C3287 C 0.85891 0.27782 0.35444 0.0
C3288 C 0.86637 0.2994 0.35414 0.0
C3289 C 0.88411 0.3067 0.36727 0.0
C3290 C 0.89413 0.29226 0.38094 0.0
H3291 H 0.20685 0.41409 0.87714 0.0
H3292 H 0.19141 0.36012 0.83446 0.0
H3293 H 0.2299 0.35267 0.83363 0.0
H3294 H 0.25584 0.432 0.85378 0.0
H3295 H 0.26899 0.43908 0.87905 0.0
H3296 H 0.24035 0.44003 0.87608 0.0
H3297 H 0.23546 0.41452 0.90824 0.0
H3298 H 0.26409 0.41361 0.91137 0.0
H3299 H 0.24777 0.38914 0.90799 0.0
H3300 H 0.27066 0.35224 0.83668 0.0
H3301 H 0.30939 0.35682 0.8459 0.0
H3302 H 0.29689 0.41027 0.88755 0.0
C3303 C 0.21152 0.40068 0.86759 0.0
C3304 C 0.19621 0.38775 0.85574 0.0
C3305 C 0.20293 0.37021 0.84367 0.0
C3306 C 0.22474 0.36593 0.84304 0.0
C3307 C 0.23946 0.3792 0.85475 0.0
C3308 C 0.23305 0.39606 0.867 0.0
C3309 C 0.25181 0.40765 0.87859 0.0
C3310 C 0.25439 0.43107 0.87144 0.0
C3311 C 0.24965 0.40613 0.90299 0.0
C3312 C 0.26987 0.39478 0.87088 0.0
C3313 C 0.26255 0.37855 0.857 0.0
C3314 C 0.27653 0.36483 0.84763 0.0
C3315 C 0.2985 0.36761 0.85288 0.0
C3316 C 0.30615 0.38382 0.86753 0.0
C3317 C 0.29156 0.39761 0.87643 0.0
H3318 H 0.12897 0.81238 0.41436 0.0
H3319 H 0.17314 0.83093 0.36466 0.0
H3320 H 0.17326 0.79307 0.35262 0.0
H3321 H 0.15116 0.76336 0.42794 0.0
H3322 H 0.12559 0.74963 0.43225 0.0
H3323 H 0.12888 0.7781 0.43649 0.0
H3324 H 0.09729 0.78387 0.4098 0.0
H3325 H 0.09376 0.7554 0.40565 0.0
H3326 H 0.09784 0.77277 0.38314 0.0
H3327 H 0.16951 0.7524 0.34748 0.0
H3328 H 0.15936 0.71354 0.34733 0.0
H3329 H 0.11707 0.72329 0.39999 0.0
C3330 C 0.13863 0.80854 0.40088 0.0
C3331 C 0.15115 0.82447 0.39049 0.0
C3332 C 0.16339 0.81888 0.37278 0.0
C3333 C 0.16364 0.79745 0.36593 0.0
C3334 C 0.15139 0.78204 0.37687 0.0
C3335 C 0.13889 0.78746 0.39377 0.0
C3336 C 0.12684 0.7682 0.40274 0.0
C3337 C 0.13353 0.76462 0.42624 0.0
C3338 C 0.10249 0.77018 0.40017 0.0
C3339 C 0.13455 0.75097 0.38834 0.0
C3340 C 0.14884 0.7591 0.3736 0.0
C3341 C 0.15824 0.7459 0.35886 0.0
C3342 C 0.1525 0.72388 0.35897 0.0
C3343 C 0.13737 0.71552 0.37356 0.0
C3344 C 0.12855 0.72927 0.38852 0.0
H3345 H 0.81692 0.6091 0.91112 0.0
H3346 H 0.82789 0.65842 0.86368 0.0
H3347 H 0.78897 0.65881 0.8563 0.0
H3348 H 0.77219 0.58051 0.8839 0.0
H3349 H 0.75786 0.57526 0.90809 0.0
H3350 H 0.78669 0.57803 0.90898 0.0
H3351 H 0.78546 0.60801 0.93768 0.0
H3352 H 0.75665 0.60526 0.93694 0.0
H3353 H 0.77003 0.63094 0.93226 0.0
H3354 H 0.74915 0.65372 0.85382 0.0
H3355 H 0.71055 0.64588 0.85868 0.0
H3356 H 0.72528 0.60122 0.90908 0.0
C3357 C 0.81111 0.61988 0.89911 0.0
C3358 C 0.82537 0.63368 0.88791 0.0
C3359 C 0.8172 0.64779 0.87251 0.0
C3360 C 0.79516 0.64804 0.86811 0.0
C3361 C 0.78152 0.63425 0.87942 0.0
C3362 C 0.78911 0.62061 0.89477 0.0
C3363 C 0.77091 0.60825 0.90541 0.0
C3364 C 0.77198 0.58408 0.90135 0.0
C3365 C 0.77076 0.61344 0.9295 0.0
C3366 C 0.75193 0.61713 0.89365 0.0
C3367 C 0.75843 0.63188 0.87853 0.0
C3368 C 0.74383 0.64222 0.86562 0.0
C3369 C 0.72194 0.63759 0.86845 0.0
C3370 C 0.7149 0.62296 0.88428 0.0
C3371 C 0.73016 0.61252 0.89689 0.0
H3372 H 0.62859 0.90197 0.80632 0.0
H3373 H 0.67573 0.85466 0.81788 0.0
H3374 H 0.68118 0.8519 0.77897 0.0
H3375 H 0.60476 0.87853 0.75936 0.0
H3376 H 0.60094 0.90357 0.74615 0.0
H3377 H 0.60137 0.90243 0.77491 0.0
H3378 H 0.6319 0.93209 0.77686 0.0
H3379 H 0.6315 0.93341 0.74808 0.0
H3380 H 0.65609 0.92858 0.76249 0.0
H3381 H 0.67942 0.85239 0.73872 0.0
H3382 H 0.67285 0.85823 0.70014 0.0
H3383 H 0.62814 0.90649 0.71519 0.0
C3384 C 0.64019 0.89113 0.80072 0.0
C3385 C 0.6517 0.87847 0.81513 0.0
C3386 C 0.66681 0.86458 0.80713 0.0
C3387 C 0.66996 0.86285 0.78507 0.0
C3388 C 0.6581 0.87534 0.7713 0.0
C3389 C 0.64373 0.88942 0.77883 0.0
C3390 C 0.63294 0.90099 0.76071 0.0
C3391 C 0.60856 0.89608 0.76026 0.0
C3392 C 0.63844 0.9252 0.76212 0.0
C3393 C 0.64325 0.89099 0.74174 0.0
C3394 C 0.65762 0.87614 0.74818 0.0
C3395 C 0.6684 0.86414 0.73349 0.0
C3396 C 0.66448 0.86749 0.71163 0.0
C3397 C 0.65007 0.88288 0.7047 0.0
C3398 C 0.63942 0.89481 0.72001 0.0
H3399 H 0.65071 0.13646 0.20656 0.0
H3400 H 0.59113 0.16703 0.2166 0.0
H3401 H 0.5966 0.16407 0.25558 0.0
H3402 H 0.64302 0.09809 0.24551 0.0
H3403 H 0.67059 0.09762 0.25455 0.0
H3404 H 0.66425 0.10539 0.2276 0.0
H3405 H 0.68626 0.14127 0.2336 0.0
H3406 H 0.69278 0.13356 0.26061 0.0
H3407 H 0.68029 0.15839 0.25573 0.0
H3408 H 0.60565 0.15415 0.29239 0.0
H3409 H 0.61759 0.1372 0.32563 0.0
H3410 H 0.67132 0.11218 0.29279 0.0
C3411 C 0.63922 0.14309 0.21706 0.0
C3412 C 0.62062 0.15217 0.2087 0.0
C3413 C 0.60551 0.16009 0.22277 0.0
C3414 C 0.60854 0.15859 0.24491 0.0
C3415 C 0.62671 0.14906 0.25272 0.0
C3416 C 0.64186 0.14144 0.23931 0.0
C3417 C 0.65866 0.1298 0.25189 0.0
C3418 C 0.65914 0.10634 0.24444 0.0
C3419 C 0.68081 0.14146 0.25036 0.0
C3420 C 0.65015 0.13147 0.2743 0.0
C3421 C 0.63189 0.14296 0.27435 0.0
C3422 C 0.62011 0.14542 0.29267 0.0
C3423 C 0.62697 0.13562 0.31143 0.0
C3424 C 0.64541 0.12345 0.31175 0.0
C3425 C 0.65739 0.12171 0.29305 0.0
H3426 H 0.40203 0.09584 0.7116 0.0
H3427 H 0.36008 0.14649 0.69483 0.0
H3428 H 0.3535 0.15256 0.73309 0.0
H3429 H 0.37254 0.07493 0.75632 0.0
H3430 H 0.39624 0.07001 0.77215 0.0
H3431 H 0.39697 0.069 0.74338 0.0
H3432 H 0.42884 0.09725 0.74415 0.0
H3433 H 0.42829 0.09822 0.77291 0.0
H3434 H 0.42625 0.12243 0.75778 0.0
H3435 H 0.3513 0.15294 0.77321 0.0
H3436 H 0.35646 0.15 0.81234 0.0
H3437 H 0.40097 0.10013 0.8027 0.0
C3438 C 0.3914 0.10815 0.71597 0.0
C3439 C 0.38152 0.12065 0.70025 0.0
C3440 C 0.3679 0.13678 0.70662 0.0
C3441 C 0.36395 0.14026 0.7283 0.0
C3442 C 0.37387 0.1276 0.74339 0.0
C3443 C 0.38752 0.11205 0.73753 0.0
C3444 C 0.39702 0.10139 0.75693 0.0
C3445 C 0.39028 0.07741 0.75721 0.0
C3446 C 0.42155 0.10505 0.758 0.0
C3447 C 0.38663 0.11343 0.7746 0.0
C3448 C 0.37313 0.12828 0.76648 0.0
C3449 C 0.36186 0.14138 0.77977 0.0
C3450 C 0.36483 0.13954 0.80198 0.0
C3451 C 0.37917 0.12491 0.81062 0.0
C3452 C 0.38994 0.11153 0.79665 0.0
H3453 H 0.40579 0.89191 0.21425 0.0
H3454 H 0.35771 0.84087 0.19988 0.0
H3455 H 0.34666 0.84143 0.23761 0.0
H3456 H 0.42108 0.87498 0.26668 0.0
H3457 H 0.42422 0.90178 0.27748 0.0
H3458 H 0.42846 0.89699 0.24951 0.0
H3459 H 0.40032 0.92437 0.23941 0.0
H3460 H 0.39605 0.9293 0.26734 0.0
H3461 H 0.37373 0.92113 0.24977 0.0
H3462 H 0.34178 0.84707 0.27742 0.0
H3463 H 0.34149 0.85928 0.31518 0.0
H3464 H 0.39175 0.90759 0.30231 0.0
C3465 C 0.39297 0.88078 0.21903 0.0
C3466 C 0.38269 0.86622 0.20423 0.0
C3467 C 0.36579 0.85214 0.21101 0.0
C3468 C 0.35947 0.8523 0.23239 0.0
C3469 C 0.37007 0.86679 0.24662 0.0
C3470 C 0.3863 0.88092 0.24013 0.0
C3471 C 0.39472 0.89537 0.25829 0.0
C3472 C 0.41853 0.89207 0.26328 0.0
C3473 C 0.39097 0.91893 0.25341 0.0
C3474 C 0.38077 0.88712 0.27609 0.0
C3475 C 0.36677 0.87051 0.26916 0.0
C3476 C 0.35259 0.86015 0.28299 0.0
C3477 C 0.35258 0.86713 0.30439 0.0
C3478 C 0.36648 0.88445 0.3116 0.0
C3479 C 0.38078 0.89443 0.29722 0.0
H3480 H 0.07777 0.08957 0.55368 0.0
H3481 H 0.13959 0.06498 0.56852 0.0
H3482 H 0.14244 0.05334 0.53091 0.0
H3483 H 0.06161 0.05009 0.50603 0.0
H3484 H 0.04953 0.07175 0.49225 0.0
H3485 H 0.04856 0.07014 0.521 0.0
H3486 H 0.06591 0.10871 0.52425 0.0
H3487 H 0.06692 0.1102 0.4958 0.0
H3488 H 0.09117 0.11477 0.51177 0.0
H3489 H 0.14409 0.05611 0.49126 0.0
H3490 H 0.14338 0.07144 0.45491 0.0
H3491 H 0.08001 0.0932 0.46545 0.0
C3492 C 0.09119 0.08044 0.54918 0.0
C3493 C 0.10828 0.07784 0.56382 0.0
C3494 C 0.12608 0.06658 0.55755 0.0
C3495 C 0.12785 0.06002 0.53616 0.0
C3496 C 0.11146 0.06448 0.5215 0.0
C3497 C 0.09312 0.07393 0.52795 0.0
C3498 C 0.0798 0.08096 0.50902 0.0
C3499 C 0.05862 0.06741 0.50695 0.0
C3500 C 0.07577 0.10506 0.51032 0.0
C3501 C 0.09446 0.076 0.49105 0.0
C3502 C 0.11235 0.06588 0.49834 0.0
C3503 C 0.12979 0.06324 0.4852 0.0
C3504 C 0.12929 0.07196 0.46455 0.0
C3505 C 0.1116 0.0834 0.45752 0.0
C3506 C 0.09361 0.08429 0.47048 0.0
H3507 H 0.42058 0.62501 0.95749 0.0
H3508 H 0.44489 0.69114 0.95933 0.0
H3509 H 0.45586 0.68713 0.99713 0.0
H3510 H 0.3931 0.62893 1.00021 0.0
H3511 H 0.39616 0.60236 0.01029 0.0
H3512 H 0.39877 0.6073 0.98237 0.0
H3513 H 0.43655 0.59201 0.98391 0.0
H3514 H 0.43391 0.58725 0.01214 0.0
H3515 H 0.45659 0.60309 1.00272 0.0
H3516 H 0.45369 0.68007 0.03575 0.0
H3517 H 0.43754 0.6713 0.07044 0.0
H3518 H 0.41179 0.6109 0.0444 0.0
C3519 C 0.42923 0.63835 0.96549 0.0
C3520 C 0.43178 0.65842 0.95544 0.0
C3521 C 0.44283 0.67557 0.96662 0.0
C3522 C 0.44915 0.67339 0.98817 0.0
C3523 C 0.44433 0.65398 0.99827 0.0
C3524 C 0.43475 0.63664 0.98715 0.0
C3525 C 0.42646 0.61947 1.00219 0.0
C3526 C 0.40221 0.61427 0.99854 0.0
C3527 C 0.43915 0.59926 1.00012 0.0
C3528 C 0.43124 0.63053 0.02349 0.0
C3529 C 0.4424 0.65003 0.021 0.0
C3530 C 0.4457 0.66453 0.03801 0.0
C3531 C 0.43655 0.65944 0.05767 0.0
C3532 C 0.42409 0.64018 0.05998 0.0
C3533 C 0.42209 0.62526 0.04304 0.0
H3534 H 0.92577 0.93179 0.47402 0.0
H3535 H 0.85808 0.94183 0.46869 0.0
H3536 H 0.85908 0.95653 0.50558 0.0
H3537 H 0.92597 0.90984 0.51856 0.0
H3538 H 0.95083 0.92089 0.53048 0.0
H3539 H 0.94731 0.92006 0.50207 0.0
H3540 H 0.95512 0.96081 0.49978 0.0
H3541 H 0.95935 0.96203 0.52842 0.0
H3542 H 0.94026 0.9787 0.51567 0.0
H3543 H 0.86481 0.9586 0.54488 0.0
H3544 H 0.874 0.94658 0.58125 0.0
H3545 H 0.93831 0.93572 0.56171 0.0
C3546 C 0.91149 0.93825 0.48035 0.0
C3547 C 0.89194 0.93595 0.46874 0.0
C3548 C 0.87329 0.94391 0.47735 0.0
C3549 C 0.87378 0.95232 0.49827 0.0
C3550 C 0.89315 0.95306 0.51004 0.0
C3551 C 0.91186 0.94672 0.50109 0.0
C3552 C 0.92951 0.94488 0.51787 0.0
C3553 C 0.93891 0.9226 0.51722 0.0
C3554 C 0.94709 0.96267 0.51528 0.0
C3555 C 0.91714 0.94841 0.53793 0.0
C3556 C 0.8965 0.95421 0.53313 0.0
C3557 C 0.88111 0.95486 0.54889 0.0
C3558 C 0.88649 0.94811 0.56961 0.0
C3559 C 0.90693 0.94042 0.57418 0.0
C3560 C 0.92275 0.94199 0.55857 0.0
H3561 H 0.64046 0.33569 0.96694 0.0
H3562 H 0.59214 0.37603 0.94115 0.0
H3563 H 0.57941 0.38225 0.97785 0.0
H3564 H 0.60918 0.31343 0.01319 0.0
H3565 H 0.63314 0.31422 0.0299 0.0
H3566 H 0.63472 0.30938 1.00155 0.0
H3567 H 0.66276 0.34124 0.99916 0.0
H3568 H 0.66095 0.34649 0.0273 0.0
H3569 H 0.65603 0.36733 0.00838 0.0
H3570 H 0.57675 0.38897 0.01823 0.0
H3571 H 0.58305 0.39367 0.05739 0.0
H3572 H 0.63372 0.34906 0.05498 0.0
C3573 C 0.62664 0.34516 0.96895 0.0
C3574 C 0.61713 0.35528 0.95139 0.0
C3575 C 0.59934 0.36785 0.95449 0.0
C3576 C 0.59212 0.37154 0.97526 0.0
C3577 C 0.60271 0.36221 0.99248 0.0
C3578 C 0.61935 0.34891 0.98938 0.0
C3579 C 0.62981 0.34267 0.01024 0.0
C3580 C 0.6265 0.31849 0.01394 0.0
C3581 C 0.65379 0.34988 0.01131 0.0
C3582 C 0.61715 0.35526 0.02562 0.0
C3583 C 0.60137 0.36623 0.01531 0.0
C3584 C 0.58881 0.38011 0.02646 0.0
C3585 C 0.59256 0.38277 0.04866 0.0
C3586 C 0.60893 0.37181 0.05928 0.0
C3587 C 0.62106 0.35771 0.04749 0.0
H3588 H 0.18418 0.92127 0.56607 0.0
H3589 H 0.12093 0.93831 0.58378 0.0
H3590 H 0.11492 0.95324 0.5478 0.0
H3591 H 0.19422 0.96634 0.52397 0.0
H3592 H 0.20744 0.94762 0.50748 0.0
H3593 H 0.20979 0.94611 0.53623 0.0
H3594 H 0.19584 0.90629 0.5343 0.0
H3595 H 0.19356 0.90784 0.50584 0.0
H3596 H 0.17045 0.89949 0.52088 0.0
H3597 H 0.11153 0.95511 0.50799 0.0
H3598 H 0.11166 0.94433 0.46979 0.0
H3599 H 0.17718 0.92651 0.47779 0.0
C3600 C 0.16959 0.92933 0.56268 0.0
C3601 C 0.15312 0.92889 0.57759 0.0
C3602 C 0.13393 0.93895 0.57266 0.0
C3603 C 0.13038 0.9474 0.5522 0.0
C3604 C 0.14636 0.94602 0.53712 0.0
C3605 C 0.16587 0.93766 0.54237 0.0
C3606 C 0.17881 0.93402 0.52272 0.0
C3607 C 0.19874 0.94945 0.5226 0.0
C3608 C 0.18498 0.91053 0.52085 0.0
C3609 C 0.16277 0.93958 0.50545 0.0
C3610 C 0.14441 0.94721 0.51394 0.0
C3611 C 0.12611 0.94996 0.50111 0.0
C3612 C 0.12629 0.94387 0.47942 0.0
C3613 C 0.14453 0.93485 0.47103 0.0
C3614 C 0.16323 0.93379 0.48391 0.0
H3615 H 0.60688 0.56988 0.96059 0.0
H3616 H 0.58355 0.62894 0.93656 0.0
H3617 H 0.56725 0.6358 0.97134 0.0
H3618 H 0.56138 0.55863 1.00255 0.0
H3619 H 0.58123 0.54845 0.02063 0.0
H3620 H 0.58297 0.54403 0.9922 0.0
H3621 H 0.62173 0.56114 0.99357 0.0
H3622 H 0.61988 0.56557 0.02164 0.0
H3623 H 0.62647 0.5878 1.00447 0.0
H3624 H 0.56579 0.64235 0.01041 0.0
H3625 H 0.57766 0.64662 0.04833 0.0
H3626 H 0.6001 0.58251 0.04748 0.0
C3627 C 0.59699 0.58343 0.96235 0.0
C3628 C 0.596 0.59868 0.94608 0.0
C3629 C 0.58385 0.61681 0.9488 0.0
C3630 C 0.57464 0.62083 0.96855 0.0
C3631 C 0.57739 0.6063 0.98511 0.0
C3632 C 0.58774 0.58753 0.98193 0.0
C3633 C 0.59248 0.57661 1.00286 0.0
C3634 C 0.57868 0.5557 1.00466 0.0
C3635 C 0.61655 0.57261 1.00577 0.0
C3636 C 0.58549 0.59329 0.0184 0.0
C3637 C 0.57613 0.61 1.00801 0.0
C3638 C 0.57223 0.629 0.01882 0.0
C3639 C 0.57898 0.63133 0.04038 0.0
C3640 C 0.5897 0.61483 0.05065 0.0
C3641 C 0.5917 0.59522 0.03991 0.0
H3642 H 0.83926 0.09701 0.46983 0.0
H3643 H 0.9018 0.07413 0.45787 0.0
H3644 H 0.90302 0.05854 0.49418 0.0
H3645 H 0.85063 0.11712 0.51641 0.0
H3646 H 0.8256 0.11091 0.52921 0.0
H3647 H 0.82611 0.113 0.50075 0.0
H3648 H 0.80877 0.07474 0.49628 0.0
H3649 H 0.80784 0.07242 0.52498 0.0
H3650 H 0.82078 0.05269 0.50948 0.0
H3651 H 0.90173 0.05502 0.53391 0.0
H3652 H 0.8988 0.06515 0.57197 0.0
H3653 H 0.83685 0.09005 0.5581 0.0
C3654 C 0.8527 0.08778 0.47462 0.0
C3655 C 0.87032 0.08647 0.4613 0.0
C3656 C 0.888 0.07484 0.46789 0.0
C3657 C 0.88875 0.06594 0.48845 0.0
C3658 C 0.87152 0.06857 0.50186 0.0
C3659 C 0.8536 0.07893 0.49496 0.0
C3660 C 0.8391 0.08344 0.5132 0.0
C3661 C 0.83518 0.10752 0.515 0.0
C3662 C 0.81787 0.07001 0.51084 0.0
C3663 C 0.85253 0.07587 0.53178 0.0
C3664 C 0.87079 0.06657 0.52497 0.0
C3665 C 0.88716 0.06155 0.53942 0.0
C3666 C 0.88535 0.06724 0.56107 0.0
C3667 C 0.86748 0.07814 0.56781 0.0
C3668 C 0.85042 0.08129 0.55326 0.0
H3669 H 0.40486 0.36889 0.95457 0.0
H3670 H 0.43212 0.43353 0.9502 0.0
H3671 H 0.44967 0.43 0.98589 0.0
H3672 H 0.38772 0.37154 1.00178 0.0
H3673 H 0.39342 0.34513 0.01096 0.0
H3674 H 0.39014 0.34985 0.983 0.0
H3675 H 0.42754 0.33559 0.9766 0.0
H3676 H 0.43088 0.33084 1.00488 0.0
H3677 H 0.45069 0.34711 0.99114 0.0
H3678 H 0.45406 0.42368 0.02476 0.0
H3679 H 0.44362 0.41605 0.06182 0.0
H3680 H 0.41412 0.35517 0.04132 0.0
C3681 C 0.41538 0.38189 0.96078 0.0
C3682 C 0.41727 0.40141 0.94985 0.0
C3683 C 0.4308 0.41833 0.95833 0.0
C3684 C 0.44086 0.41639 0.97855 0.0
C3685 C 0.43758 0.39724 0.98967 0.0
C3686 C 0.42549 0.38007 0.98077 0.0
C3687 C 0.42086 0.36283 0.99704 0.0
C3688 C 0.39661 0.35707 0.99827 0.0
C3689 C 0.43324 0.34292 0.99212 0.0
C3690 C 0.42982 0.37404 0.01711 0.0
C3691 C 0.44038 0.39343 0.01245 0.0
C3692 C 0.44668 0.40821 0.02857 0.0
C3693 C 0.44085 0.40371 0.04965 0.0
C3694 C 0.42871 0.38474 0.05425 0.0
C3695 C 0.42428 0.36927 0.0381 0.0
H3696 H 0.5497 0.10332 0.09175 0.0
H3697 H 0.55631 0.17137 0.08127 0.0
H3698 H 0.5202 0.17046 0.06429 0.0
H3699 H 0.50828 0.08888 0.04448 0.0
H3700 H 0.49424 0.07024 0.06165 0.0
H3701 H 0.52301 0.07402 0.06396 0.0
H3702 H 0.5204 0.08323 0.10459 0.0
H3703 H 0.49204 0.07861 0.10197 0.0
H3704 H 0.50304 0.10393 0.11231 0.0
H3705 H 0.48164 0.16494 0.05945 0.0
H3706 H 0.44493 0.15664 0.0712 0.0
H3707 H 0.46143 0.09215 0.08603 0.0
C3708 C 0.54388 0.11764 0.08455 0.0
C3709 C 0.5557 0.13725 0.08704 0.0
C3710 C 0.54749 0.15613 0.07883 0.0
C3711 C 0.52705 0.15569 0.06909 0.0
C3712 C 0.515 0.13626 0.06798 0.0
C3713 C 0.5232 0.11747 0.07544 0.0
C3714 C 0.50567 0.10007 0.0776 0.0
C3715 C 0.50794 0.08225 0.06092 0.0
C3716 C 0.50529 0.09097 0.10047 0.0
C3717 C 0.48617 0.11263 0.07257 0.0
C3718 C 0.4919 0.13312 0.06588 0.0
C3719 C 0.47689 0.14878 0.06398 0.0
C3720 C 0.45598 0.14392 0.07061 0.0
C3721 C 0.45055 0.12375 0.07945 0.0
C3722 C 0.4653 0.10755 0.07895 0.0
H3723 H 0.40867 0.9534 0.59186 0.0
H3724 H 0.34266 0.95195 0.56888 0.0
H3725 H 0.34874 0.98823 0.55454 0.0
H3726 H 0.40633 0.99862 0.61585 0.0
H3727 H 0.43344 0.0088 0.61199 0.0
H3728 H 0.42736 0.98064 0.61136 0.0
H3729 H 0.4432 0.97816 0.57356 0.0
H3730 H 0.44932 1.00665 0.57408 0.0
H3731 H 0.43334 0.99458 0.55232 0.0
H3732 H 0.35789 0.02704 0.55318 0.0
H3733 H 0.36761 0.06321 0.56757 0.0
H3734 H 0.42646 0.04068 0.5945 0.0
C3735 C 0.39577 0.96023 0.58283 0.0
C3736 C 0.37518 0.94983 0.58157 0.0
C3737 C 0.35863 0.95952 0.56996 0.0
C3738 C 0.362 0.98019 0.56171 0.0
C3739 C 0.38196 0.99094 0.56522 0.0
C3740 C 0.39866 0.98112 0.57545 0.0
C3741 C 0.41646 0.9972 0.58245 0.0
C3742 C 0.42112 0.99626 0.60682 0.0
C3743 C 0.43678 0.99395 0.56983 0.0
C3744 C 0.40648 0.01777 0.57618 0.0
C3745 C 0.38705 0.01386 0.56531 0.0
C3746 C 0.37338 0.03032 0.56098 0.0
C3747 C 0.37906 0.05089 0.56907 0.0
C3748 C 0.39796 0.05456 0.58171 0.0
C3749 C 0.41231 0.03819 0.58423 0.0
H3750 H 0.45569 0.91386 0.0947 0.0
H3751 H 0.44343 0.84765 0.07637 0.0
H3752 H 0.47959 0.84695 0.06146 0.0
H3753 H 0.49682 0.92855 0.04955 0.0
H3754 H 0.51219 0.94531 0.06857 0.0
H3755 H 0.48337 0.94314 0.06969 0.0
H3756 H 0.48633 0.93189 0.10938 0.0
H3757 H 0.51482 0.93408 0.10824 0.0
H3758 H 0.50167 0.90925 0.11641 0.0
H3759 H 0.51899 0.84981 0.06006 0.0
H3760 H 0.55658 0.8558 0.0727 0.0
H3761 H 0.54404 0.92064 0.09083 0.0
C3762 C 0.46028 0.89976 0.08618 0.0
C3763 C 0.44688 0.88103 0.08598 0.0
C3764 C 0.45341 0.86232 0.07592 0.0
C3765 C 0.47392 0.86183 0.06745 0.0
C3766 C 0.4875 0.88026 0.06906 0.0
C3767 C 0.48072 0.8991 0.0778 0.0
C3768 C 0.49927 0.91525 0.08181 0.0
C3769 C 0.49782 0.93418 0.06648 0.0
C3770 C 0.50058 0.92299 0.10536 0.0
C3771 C 0.51776 0.90179 0.07635 0.0
C3772 C 0.51071 0.88195 0.06817 0.0
C3773 C 0.52477 0.86554 0.06563 0.0
C3774 C 0.54616 0.86907 0.07275 0.0
C3775 C 0.55306 0.88873 0.08256 0.0
C3776 C 0.53908 0.90562 0.083 0.0
H3777 H 0.61794 0.04535 0.58974 0.0
H3778 H 0.6834 0.04471 0.56895 0.0
H3779 H 0.6765 1.00777 0.55569 0.0
H3780 H 0.62012 1.00173 0.61559 0.0
H3781 H 0.59284 0.99159 0.61111 0.0
H3782 H 0.59921 0.01962 0.60944 0.0
H3783 H 0.58263 0.01971 0.57094 0.0
H3784 H 0.57633 0.99133 0.57255 0.0
H3785 H 0.59198 1.00187 0.55088 0.0
H3786 H 0.66708 0.9691 0.55584 0.0
H3787 H 0.65769 0.93407 0.57187 0.0
H3788 H 0.59967 0.95858 0.59584 0.0
C3789 C 0.63052 0.03787 0.58138 0.0
C3790 C 0.65123 0.0479 0.5805 0.0
C3791 C 0.66735 0.03741 0.56975 0.0
C3792 C 0.66351 0.01636 0.56211 0.0
C3793 C 0.64352 1.00603 0.56537 0.0
C3794 C 0.62718 0.01661 0.57467 0.0
C3795 C 0.60941 1.00111 0.58175 0.0
C3796 C 0.60521 1.00366 0.60587 0.0
C3797 C 0.58887 1.00366 0.56821 0.0
C3798 C 0.61912 0.9801 0.57683 0.0
C3799 C 0.63827 0.98318 0.56635 0.0
C3800 C 0.65178 0.96641 0.56331 0.0
C3801 C 0.6463 0.94649 0.57234 0.0
C3802 C 0.62775 0.94377 0.58459 0.0
C3803 C 0.6135 0.96031 0.58582 0.0
H3804 H 0.46267 0.89541 0.9146 0.0
H3805 H 0.46761 0.82834 0.92949 0.0
H3806 H 0.50536 0.83566 0.94085 0.0
H3807 H 0.50598 0.89919 0.88749 0.0
H3808 H 0.51486 0.92622 0.89473 0.0
H3809 H 0.48707 0.91806 0.89596 0.0
H3810 H 0.4868 0.92945 0.93587 0.0
H3811 H 0.51476 0.93796 0.93477 0.0
H3812 H 0.50588 0.919 0.95462 0.0
H3813 H 0.54352 0.84747 0.94043 0.0
H3814 H 0.57805 0.86205 0.92738 0.0
H3815 H 0.5491 0.92131 0.91117 0.0
C3816 C 0.47133 0.88242 0.92127 0.0
C3817 C 0.46215 0.8613 0.92119 0.0
C3818 C 0.47424 0.84468 0.92954 0.0
C3819 C 0.49571 0.84874 0.9361 0.0
C3820 C 0.50481 0.86949 0.93428 0.0
C3821 C 0.49286 0.88614 0.92725 0.0
C3822 C 0.50702 0.90572 0.92213 0.0
C3823 C 0.50353 0.91266 0.89871 0.0
C3824 C 0.5034 0.92412 0.93779 0.0
C3825 C 0.52889 0.89702 0.92582 0.0
C3826 C 0.52729 0.87634 0.93355 0.0
C3827 C 0.54503 0.86385 0.93505 0.0
C3828 C 0.5646 0.87225 0.92754 0.0
C3829 C 0.56623 0.89288 0.91845 0.0
C3830 C 0.54844 0.90576 0.91863 0.0
H3831 H 0.59133 0.96671 0.42988 0.0
H3832 H 0.65707 0.95463 0.44648 0.0
H3833 H 0.663 0.99175 0.45958 0.0
H3834 H 0.60015 0.00875 0.40512 0.0
H3835 H 0.57818 0.0244 0.41288 0.0
H3836 H 0.57567 0.99595 0.41449 0.0
H3837 H 0.56724 0.99788 0.45455 0.0
H3838 H 0.56904 0.02669 0.45321 0.0
H3839 H 0.58502 0.01319 0.47274 0.0
H3840 H 0.66579 0.03061 0.4568 0.0
H3841 H 0.66418 0.06665 0.44131 0.0
H3842 H 0.59659 0.05506 0.42724 0.0
C3843 C 0.60654 0.97165 0.43755 0.0
C3844 C 0.62372 0.95803 0.43728 0.0
C3845 C 0.64362 0.96481 0.44692 0.0
C3846 C 0.6471 0.98593 0.45435 0.0
C3847 C 0.63038 0.99979 0.45239 0.0
C3848 C 0.61019 0.9927 0.44482 0.0
C3849 C 0.59631 0.01122 0.4399 0.0
C3850 C 0.5871 0.01001 0.41673 0.0
C3851 C 0.57834 0.01231 0.45608 0.0
C3852 C 0.61261 0.02974 0.44317 0.0
C3853 C 0.63195 0.02294 0.45122 0.0
C3854 C 0.65053 0.03634 0.45154 0.0
C3855 C 0.64954 0.05676 0.4427 0.0
C3856 C 0.63009 0.06353 0.43388 0.0
C3857 C 0.6113 0.05032 0.43492 0.0
H3858 H 0.47176 0.14177 0.90351 0.0
H3859 H 0.46924 0.07784 0.92972 0.0
H3860 H 0.50627 0.08419 0.94409 0.0
H3861 H 0.51887 0.13791 0.88207 0.0
H3862 H 0.52838 0.16539 0.88591 0.0
H3863 H 0.50019 0.15872 0.88425 0.0
H3864 H 0.49556 0.17695 0.92113 0.0
H3865 H 0.52395 0.18369 0.92291 0.0
H3866 H 0.51114 0.16885 0.94404 0.0
H3867 H 0.54542 0.09433 0.94839 0.0
H3868 H 0.58251 0.10539 0.93905 0.0
H3869 H 0.55966 0.16163 0.90802 0.0
C3870 C 0.47857 0.1294 0.91311 0.0
C3871 C 0.46752 0.10937 0.91567 0.0
C3872 C 0.47733 0.0934 0.92775 0.0
C3873 C 0.49834 0.09693 0.93605 0.0
C3874 C 0.50926 0.1165 0.93214 0.0
C3875 C 0.49959 0.13249 0.92093 0.0
C3876 C 0.51563 0.15016 0.91483 0.0
C3877 C 0.51577 0.15318 0.89034 0.0
C3878 C 0.51131 0.17115 0.92643 0.0
C3879 C 0.53608 0.14108 0.92319 0.0
C3880 C 0.53209 0.12206 0.93386 0.0
C3881 C 0.54871 0.10948 0.94061 0.0
C3882 C 0.56977 0.11593 0.93537 0.0
C3883 C 0.5738 0.13448 0.92308 0.0
C3884 C 0.55691 0.14765 0.91787 0.0
H3885 H 0.34709 0.96227 0.41988 0.0
H3886 H 0.41259 0.95374 0.44011 0.0
H3887 H 0.41522 0.99047 0.45518 0.0
H3888 H 0.35443 1.00683 0.39823 0.0
H3889 H 0.3305 0.01972 0.4055 0.0
H3890 H 0.33051 0.99123 0.40495 0.0
H3891 H 0.31917 0.9896 0.44436 0.0
H3892 H 0.31877 0.01839 0.44507 0.0
H3893 H 0.33458 1.00474 0.46462 0.0
H3894 H 0.41493 0.02954 0.45571 0.0
H3895 H 0.41176 0.06603 0.44187 0.0
H3896 H 0.34612 0.05037 0.42216 0.0
C3897 C 0.3615 0.96789 0.42866 0.0
C3898 C 0.37954 0.95544 0.42919 0.0
C3899 C 0.3985 0.96306 0.44006 0.0
C3900 C 0.40005 0.98389 0.44866 0.0
C3901 C 0.38237 0.99655 0.44652 0.0
C3902 C 0.36319 0.98858 0.43721 0.0
C3903 C 0.34815 1.0062 0.43264 0.0
C3904 C 0.34051 1.00599 0.40894 0.0
C3905 C 0.32904 1.00464 0.44757 0.0
C3906 C 0.36277 0.02558 0.4382 0.0
C3907 C 0.38211 0.01971 0.44714 0.0
C3908 C 0.39958 0.03444 0.44972 0.0
C3909 C 0.39767 0.05518 0.44191 0.0
C3910 C 0.37844 0.06092 0.43176 0.0
C3911 C 0.36053 0.0464 0.4309 0.0
H3912 H 0.07973 0.46905 0.14948 0.0
H3913 H 0.0694 0.45567 0.08214 0.0
H3914 H 0.05418 0.49075 0.07722 0.0
H3915 H 0.03421 0.51235 0.15415 0.0
H3916 H 0.05208 0.52775 0.17218 0.0
H3917 H 0.05099 0.49892 0.17303 0.0
H3918 H 0.09214 0.49936 0.16777 0.0
H3919 H 0.093 0.52787 0.1673 0.0
H3920 H 0.103 0.51335 0.14502 0.0
H3921 H 0.05414 0.5293 0.07639 0.0
H3922 H 0.07076 0.56584 0.0795 0.0
H3923 H 0.083 0.55652 0.14694 0.0
C3924 C 0.07264 0.47308 0.13415 0.0
C3925 C 0.07504 0.45971 0.11632 0.0
C3926 C 0.06699 0.46559 0.09606 0.0
C3927 C 0.05832 0.48554 0.09318 0.0
C3928 C 0.05801 0.49949 0.1107 0.0
C3929 C 0.06457 0.49332 0.13103 0.0
C3930 C 0.06809 0.51254 0.14586 0.0
C3931 C 0.05027 0.51291 0.16227 0.0
C3932 C 0.09038 0.51329 0.15713 0.0
C3933 C 0.06605 0.53045 0.12993 0.0
C3934 C 0.05871 0.5227 0.11009 0.0
C3935 C 0.05913 0.53567 0.09198 0.0
C3936 C 0.06859 0.55645 0.09382 0.0
C3937 C 0.07788 0.56374 0.11351 0.0
C3938 C 0.07546 0.55116 0.13191 0.0
H3939 H 0.09138 0.54714 0.89898 0.0
H3940 H 0.07421 0.55632 0.83245 0.0
H3941 H 0.05783 0.51954 0.83048 0.0
H3942 H 0.11219 0.50331 0.89375 0.0
H3943 H 0.10371 0.48986 0.91773 0.0
H3944 H 0.10495 0.51837 0.91693 0.0
H3945 H 0.06505 0.51884 0.92675 0.0
H3946 H 0.06369 0.49003 0.9279 0.0
H3947 H 0.04502 0.50351 0.91101 0.0
H3948 H 0.05635 0.4804 0.83185 0.0
H3949 H 0.06917 0.44412 0.83655 0.0
H3950 H 0.08698 0.45906 0.90233 0.0
C3951 C 0.083 0.54169 0.8844 0.0
C3952 C 0.08388 0.55434 0.86591 0.0
C3953 C 0.07331 0.54689 0.84687 0.0
C3954 C 0.06398 0.52598 0.84567 0.0
C3955 C 0.06508 0.51305 0.86377 0.0
C3956 C 0.07386 0.52089 0.88303 0.0
C3957 C 0.07752 0.50307 0.89871 0.0
C3958 C 0.10097 0.50369 0.90722 0.0
C3959 C 0.06188 0.50391 0.91718 0.0
C3960 C 0.07209 0.48382 0.88443 0.0
C3961 C 0.06397 0.48984 0.86465 0.0
C3962 C 0.0617 0.47537 0.84752 0.0
C3963 C 0.06895 0.45476 0.85029 0.0
C3964 C 0.07826 0.44886 0.87002 0.0
C3965 C 0.07886 0.46311 0.88751 0.0
H3966 H 0.0543 0.60583 0.35053 0.0
H3967 H 0.06829 0.58659 0.41534 0.0
H3968 H 0.03097 0.57183 0.41833 0.0
H3969 H 0.01045 0.62739 0.35962 0.0
H3970 H 0.99546 0.6198 0.33543 0.0
H3971 H 0.02405 0.62112 0.33547 0.0
H3972 H 0.02388 0.58174 0.32253 0.0
H3973 H 0.995 0.5803 0.32215 0.0
H3974 H 0.00957 0.56112 0.33719 0.0
H3975 H 0.991 0.56967 0.41787 0.0
H3976 H 0.95373 0.58067 0.41421 0.0
H3977 H 0.96552 0.60087 0.34942 0.0
C3978 C 0.0497 0.59733 0.36485 0.0
C3979 C 0.06398 0.59691 0.38256 0.0
C3980 C 0.05758 0.58647 0.40143 0.0
C3981 C 0.0364 0.5781 0.40322 0.0
C3982 C 0.02211 0.58 0.38584 0.0
C3983 C 0.02871 0.58897 0.36677 0.0
C3984 C 0.00991 0.59304 0.35196 0.0
C3985 C 0.00998 0.61673 0.34528 0.0
C3986 C 0.00957 0.57815 0.3323 0.0
C3987 C 0.9916 0.58707 0.36642 0.0
C3988 C 0.99881 0.57879 0.3856 0.0
C3989 C 0.98508 0.57538 0.40266 0.0
C3990 C 0.96387 0.58158 0.40044 0.0
C3991 C 0.95683 0.59141 0.38144 0.0
C3992 C 0.9705 0.59298 0.36393 0.0
H3993 H 0.94349 0.57723 0.88777 0.0
H3994 H 0.94333 0.56521 0.95582 0.0
H3995 H 0.96207 0.53223 0.95 0.0
H3996 H 0.92369 0.5326 0.87393 0.0
H3997 H 0.93771 0.52804 0.84961 0.0
H3998 H 0.93537 0.55467 0.8591 0.0
H3999 H 0.97654 0.56128 0.85957 0.0
H4000 H 0.97915 0.53438 0.8498 0.0
H4001 H 0.9933 0.54345 0.87396 0.0
H4002 H 0.96754 0.4963 0.93691 0.0
H4003 H 0.9557 0.46245 0.91889 0.0
H4004 H 0.94991 0.49529 0.85887 0.0
C4005 C 0.94838 0.56818 0.90155 0.0
C4006 C 0.94174 0.57363 0.92218 0.0
C4007 C 0.94827 0.5614 0.93983 0.0
C4008 C 0.95905 0.5426 0.93663 0.0
C4009 C 0.96325 0.53631 0.91572 0.0
C4010 C 0.95835 0.54902 0.89842 0.0
C4011 C 0.9588 0.53665 0.87753 0.0
C4012 C 0.93764 0.53804 0.86434 0.0
C4013 C 0.9781 0.5444 0.86445 0.0
C4014 C 0.96176 0.51439 0.88593 0.0
C4015 C 0.9658 0.51471 0.90786 0.0
C4016 C 0.96523 0.49588 0.9197 0.0
C4017 C 0.95865 0.47661 0.90933 0.0
C4018 C 0.9524 0.4765 0.88749 0.0
C4019 C 0.95547 0.49517 0.87542 0.0
H4020 H 0.05131 0.42257 0.42111 0.0
H4021 H 0.06294 0.44414 0.35675 0.0
H4022 H 0.02591 0.45586 0.35375 0.0
H4023 H 0.00779 0.39627 0.4103 0.0
H4024 H 0.99317 0.40145 0.43411 0.0
H4025 H 0.02173 0.4037 0.43512 0.0
H4026 H 0.02147 0.44254 0.44908 0.0
H4027 H 0.99259 0.44049 0.44854 0.0
H4028 H 1.00655 0.46183 0.43456 0.0
H4029 H 0.98638 0.45373 0.35317 0.0
H4030 H 0.94946 0.43778 0.35498 0.0
H4031 H 0.96273 0.41637 0.41916 0.0
C4032 C 0.04633 0.43087 0.40685 0.0
C4033 C 0.05983 0.43258 0.38921 0.0
C4034 C 0.0529 0.44308 0.37059 0.0
C4035 C 0.03184 0.44973 0.36877 0.0
C4036 C 0.01817 0.44603 0.38584 0.0
C4037 C 0.02534 0.43719 0.40477 0.0
C4038 C 1.00694 0.43039 0.41886 0.0
C4039 C 0.00744 0.40655 0.42488 0.0
C4040 C 1.00689 0.44468 0.43895 0.0
C4041 C 0.98823 0.43458 0.40401 0.0
C4042 C 0.99491 0.44453 0.38543 0.0
C4043 C 0.98086 0.44678 0.36795 0.0
C4044 C 0.9599 0.43777 0.36909 0.0
C4045 C 0.95339 0.42654 0.38747 0.0
C4046 C 0.96733 0.42575 0.40539 0.0
H4047 H 0.91356 0.46893 0.17528 0.0
H4048 H 0.92855 0.45693 0.10932 0.0
H4049 H 0.94413 0.49401 0.10662 0.0
H4050 H 0.89253 0.51399 0.16765 0.0
H4051 H 0.90169 0.5277 0.19196 0.0
H4052 H 0.8994 0.49914 0.1912 0.0
H4053 H 0.9392 0.49729 0.20294 0.0
H4054 H 0.94175 0.52611 0.20407 0.0
H4055 H 0.95966 0.5115 0.18807 0.0
H4056 H 0.94802 0.53399 0.10819 0.0
H4057 H 0.93882 0.57154 0.11338 0.0
H4058 H 0.92127 0.55755 0.17839 0.0
C4059 C 0.92108 0.47389 0.1606 0.0
C4060 C 0.92004 0.46027 0.14255 0.0
C4061 C 0.9296 0.46714 0.12342 0.0
C4062 C 0.93846 0.48817 0.1218 0.0
C4063 C 0.93797 0.50181 0.1396 0.0
C4064 C 0.92983 0.49471 0.15882 0.0
C4065 C 0.92716 0.513 0.17427 0.0
C4066 C 0.90383 0.51349 0.18165 0.0
C4067 C 0.94289 0.51191 0.19347 0.0
C4068 C 0.93316 0.53171 0.16016 0.0
C4069 C 0.94014 0.52504 0.14048 0.0
C4070 C 0.94332 0.53943 0.12375 0.0
C4071 C 0.93817 0.56079 0.12685 0.0
C4072 C 0.92958 0.56733 0.14638 0.0
C4073 C 0.92826 0.55292 0.1635 0.0
H4074 H 0.96094 0.42263 0.59337 0.0
H4075 H 0.95023 0.43838 0.65954 0.0
H4076 H 0.98833 0.44999 0.66442 0.0
H4077 H 1.0008 0.3954 0.60191 0.0
H4078 H 0.01694 0.40249 0.57933 0.0
H4079 H 0.98872 0.40532 0.57767 0.0
H4080 H 0.99415 0.44519 0.56834 0.0
H4081 H 0.02275 0.44262 0.56941 0.0
H4082 H 0.01097 0.46277 0.58537 0.0
H4083 H 0.02749 0.44749 0.6657 0.0
H4084 H 0.06271 0.43168 0.66306 0.0
H4085 H 0.04874 0.41556 0.59671 0.0
C4086 C 0.96645 0.42982 0.60848 0.0
C4087 C 0.95278 0.42973 0.62604 0.0
C4088 C 0.96039 0.43871 0.64578 0.0
C4089 C 0.9821 0.44525 0.64868 0.0
C4090 C 0.99579 0.44297 0.63159 0.0
C4091 C 0.98811 0.43588 0.61164 0.0
C4092 C 1.00615 0.43009 0.59737 0.0
C4093 C 1.00296 0.40695 0.58863 0.0
C4094 C 0.00866 0.44613 0.57904 0.0
C4095 C 0.02487 0.4326 0.6131 0.0
C4096 C 0.01883 0.44106 0.63244 0.0
C4097 C 0.03262 0.44171 0.65041 0.0
C4098 C 0.05259 0.43273 0.64882 0.0
C4099 C 0.05835 0.42307 0.6295 0.0
C4100 C 0.04477 0.4237 0.61131 0.0
H4101 H 0.04142 0.5865 0.68025 0.0
H4102 H 0.07257 0.56885 0.62248 0.0
H4103 H 0.03812 0.55393 0.60728 0.0
H4104 H 0.99484 0.53953 0.67525 0.0
H4105 H 0.97662 0.55773 0.68635 0.0
H4106 H 1.00414 0.55835 0.69587 0.0
H4107 H 0.00825 0.59884 0.68732 0.0
H4108 H 0.98101 0.5979 0.67817 0.0
H4109 H 1.00171 0.60762 0.66061 0.0
H4110 H 1.00108 0.55521 0.59383 0.0
H4111 H 0.96646 0.5702 0.5849 0.0
H4112 H 0.95737 0.58317 0.65208 0.0
C4113 C 0.04103 0.57802 0.66507 0.0
C4114 C 0.05939 0.57836 0.65262 0.0
C4115 C 0.05863 0.56811 0.63242 0.0
C4116 C 0.03907 0.55964 0.62367 0.0
C4117 C 0.02066 0.56105 0.63564 0.0
C4118 C 0.02163 0.56923 0.65636 0.0
C4119 C 0.99948 0.57266 0.66441 0.0
C4120 C 0.99341 0.55607 0.68148 0.0
C4121 C 0.99756 0.59563 0.67306 0.0
C4122 C 0.98626 0.56846 0.64403 0.0
C4123 C 0.99856 0.56089 0.62782 0.0
C4124 C 0.99105 0.56026 0.60656 0.0
C4125 C 0.97128 0.56886 0.60158 0.0
C4126 C 0.95932 0.57809 0.61781 0.0
C4127 C 0.96614 0.57615 0.63937 0.0
H4128 H 0.95176 0.12868 0.42247 0.0
H4129 H 0.93684 0.08084 0.37306 0.0
H4130 H 0.97572 0.07931 0.36612 0.0
H4131 H 0.99405 0.15704 0.39435 0.0
H4132 H 0.0098 0.16323 0.41839 0.0
H4133 H 0.98109 0.16008 0.41952 0.0
H4134 H 0.98433 0.13109 0.44841 0.0
H4135 H 0.01307 0.1342 0.44756 0.0
H4136 H 0.99979 0.10821 0.44321 0.0
H4137 H 0.01772 0.08204 0.36662 0.0
H4138 H 0.05667 0.09066 0.37232 0.0
H4139 H 0.04245 0.13894 0.41922 0.0
C4140 C 0.95655 0.11789 0.41011 0.0
C4141 C 0.94112 0.10476 0.39841 0.0
C4142 C 0.94827 0.09104 0.38227 0.0
C4143 C 0.97037 0.09006 0.37827 0.0
C4144 C 0.98514 0.1032 0.39026 0.0
C4145 C 0.97834 0.11708 0.40565 0.0
C4146 C 0.99705 0.13 0.4161 0.0
C4147 C 0.99539 0.15401 0.41182 0.0
C4148 C 0.99865 0.12559 0.44025 0.0
C4149 C 0.01562 0.12111 0.40447 0.0
C4150 C 0.0086 0.10551 0.38974 0.0
C4151 C 0.02322 0.09445 0.37793 0.0
C4152 C 0.04539 0.09945 0.38127 0.0
C4153 C 0.05286 0.11566 0.39607 0.0
C4154 C 0.03753 0.12662 0.40761 0.0
H4155 H 0.36379 0.46279 0.90652 0.0
H4156 H 0.38061 0.44837 0.84127 0.0
H4157 H 0.38115 0.48704 0.83298 0.0
H4158 H 0.32826 0.50381 0.89353 0.0
H4159 H 0.33583 0.51987 0.91686 0.0
H4160 H 0.33761 0.49127 0.91761 0.0
H4161 H 0.37766 0.49618 0.92914 0.0
H4162 H 0.37602 0.52479 0.92841 0.0
H4163 H 0.39573 0.51206 0.91294 0.0
H4164 H 0.3799 0.52817 0.83217 0.0
H4165 H 0.37591 0.56684 0.83856 0.0
H4166 H 0.3587 0.55346 0.90403 0.0
C4167 C 0.36775 0.46763 0.89046 0.0
C4168 C 0.3723 0.45233 0.87459 0.0
C4169 C 0.37714 0.45964 0.85377 0.0
C4170 C 0.37748 0.48162 0.84892 0.0
C4171 C 0.3728 0.4962 0.86497 0.0
C4172 C 0.36795 0.4894 0.88532 0.0
C4173 C 0.36293 0.50804 0.89966 0.0
C4174 C 0.33978 0.5056 0.90736 0.0
C4175 C 0.37905 0.5104 0.91866 0.0
C4176 C 0.36575 0.52651 0.88429 0.0
C4177 C 0.37156 0.51944 0.86437 0.0
C4178 C 0.37529 0.53378 0.84771 0.0
C4179 C 0.373 0.55576 0.85149 0.0
C4180 C 0.36687 0.56332 0.87176 0.0
C4181 C 0.36325 0.54833 0.88829 0.0
H4182 H 0.05431 0.88972 0.43451 0.0
H4183 H 0.06712 0.93935 0.38793 0.0
H4184 H 0.02808 0.94215 0.38164 0.0
H4185 H 0.00932 0.86378 0.40553 0.0
H4186 H 0.99486 0.85716 0.42933 0.0
H4187 H 0.02369 0.85958 0.43039 0.0
H4188 H 0.02261 0.88769 0.46091 0.0
H4189 H 0.99378 0.88534 0.4599 0.0
H4190 H 0.00753 0.91113 0.45693 0.0
H4191 H 0.98659 0.94021 0.38161 0.0
H4192 H 0.94773 0.93208 0.38617 0.0
H4193 H 0.9627 0.88219 0.43101 0.0
C4194 C 0.04896 0.90126 0.42302 0.0
C4195 C 0.06394 0.91445 0.41184 0.0
C4196 C 0.05608 0.92909 0.39674 0.0
C4197 C 0.03387 0.93081 0.39309 0.0
C4198 C 0.01955 0.91761 0.40444 0.0
C4199 C 0.02687 0.90296 0.41896 0.0
C4200 C 0.00831 0.89017 0.4287 0.0
C4201 C 0.0091 0.86626 0.42315 0.0
C4202 C 0.00805 0.89381 0.45305 0.0
C4203 C 0.98936 0.89995 0.41755 0.0
C4204 C 0.99608 0.91589 0.40374 0.0
C4205 C 0.98125 0.9276 0.39227 0.0
C4206 C 0.95914 0.92288 0.39496 0.0
C4207 C 0.9519 0.90637 0.40882 0.0
C4208 C 0.96745 0.89481 0.42012 0.0
H4209 H 0.66842 0.45395 0.89797 0.0
H4210 H 0.63519 0.44015 0.83728 0.0
H4211 H 0.62896 0.47877 0.83324 0.0
H4212 H 0.6336 0.49423 0.91559 0.0
H4213 H 0.65508 0.51019 0.92859 0.0
H4214 H 0.65683 0.48167 0.92621 0.0
H4215 H 0.69306 0.48735 0.9074 0.0
H4216 H 0.69135 0.51589 0.90965 0.0
H4217 H 0.69459 0.50367 0.88382 0.0
H4218 H 0.6279 0.5205 0.83573 0.0
H4219 H 0.62995 0.55912 0.84572 0.0
H4220 H 0.66241 0.5438 0.90538 0.0
C4221 C 0.65982 0.45896 0.88377 0.0
C4222 C 0.65242 0.44392 0.86786 0.0
C4223 C 0.64103 0.4513 0.8497 0.0
C4224 C 0.63748 0.47326 0.84725 0.0
C4225 C 0.64518 0.48769 0.86321 0.0
C4226 C 0.65593 0.48067 0.88123 0.0
C4227 C 0.66228 0.49905 0.8964 0.0
C4228 C 0.65128 0.4961 0.91797 0.0
C4229 C 0.68677 0.50164 0.89949 0.0
C4230 C 0.65362 0.51762 0.88413 0.0
C4231 C 0.64392 0.51097 0.86494 0.0
C4232 C 0.63534 0.52574 0.85083 0.0
C4233 C 0.6366 0.5477 0.8566 0.0
C4234 C 0.64616 0.55471 0.87643 0.0
C4235 C 0.65475 0.53923 0.89018 0.0
H4236 H 0.98071 0.88561 0.61251 0.0
H4237 H 0.96198 0.87354 0.67781 0.0
H4238 H 1.00006 0.8693 0.68822 0.0
H4239 H 0.01782 0.84604 0.61052 0.0
H4240 H 0.03672 0.86082 0.59424 0.0
H4241 H 0.00875 0.86593 0.59219 0.0
H4242 H 0.01653 0.90586 0.60065 0.0
H4243 H 0.04476 0.90148 0.6021 0.0
H4244 H 0.03218 0.91381 0.6243 0.0
H4245 H 0.04113 0.86596 0.69102 0.0
H4246 H 0.07971 0.86096 0.6853 0.0
H4247 H 0.06983 0.87175 0.61749 0.0
C4248 C 0.98448 0.88234 0.62911 0.0
C4249 C 0.96817 0.8801 0.64437 0.0
C4250 C 0.97408 0.87552 0.66583 0.0
C4251 C 0.99571 0.87308 0.67188 0.0
C4252 C 0.01127 0.875 0.65626 0.0
C4253 C 1.00579 0.8794 0.63527 0.0
C4254 C 0.02506 0.87922 0.6211 0.0
C4255 C 0.0219 0.86195 0.60349 0.0
C4256 C 0.02992 0.90141 0.61148 0.0
C4257 C 0.04229 0.8737 0.63726 0.0
C4258 C 0.03423 0.87179 0.65757 0.0
C4259 C 0.04748 0.86731 0.67514 0.0
C4260 C 0.06937 0.86453 0.67177 0.0
C4261 C 0.07767 0.86571 0.65094 0.0
C4262 C 0.06387 0.87044 0.63356 0.0
H4263 H 0.63801 0.462 0.10599 0.0
H4264 H 0.5772 0.45052 0.13676 0.0
H4265 H 0.57393 0.48968 0.14052 0.0
H4266 H 0.65658 0.50749 0.13883 0.0
H4267 H 0.66948 0.52118 0.11704 0.0
H4268 H 0.66687 0.49239 0.11707 0.0
H4269 H 0.64753 0.49249 0.07986 0.0
H4270 H 0.65034 0.52124 0.07976 0.0
H4271 H 0.62421 0.50792 0.07617 0.0
H4272 H 0.57696 0.53119 0.1392 0.0
H4273 H 0.58641 0.56974 0.13384 0.0
H4274 H 0.64587 0.55303 0.10538 0.0
C4275 C 0.62396 0.46764 0.11356 0.0
C4276 C 0.6078 0.45304 0.12099 0.0
C4277 C 0.58982 0.46128 0.13093 0.0
C4278 C 0.58783 0.48355 0.13311 0.0
C4279 C 0.60404 0.49749 0.12549 0.0
C4280 C 0.62183 0.48974 0.11603 0.0
C4281 C 0.63711 0.50786 0.10915 0.0
C4282 C 0.65879 0.50718 0.12125 0.0
C4283 C 0.63995 0.50734 0.08479 0.0
C4284 C 0.62509 0.52708 0.11593 0.0
C4285 C 0.60602 0.52091 0.1253 0.0
C4286 C 0.59198 0.53611 0.13205 0.0
C4287 C 0.59749 0.55803 0.12897 0.0
C4288 C 0.61698 0.56469 0.11932 0.0
C4289 C 0.63093 0.54878 0.113 0.0
H4290 H 0.95968 0.14352 0.61745 0.0
H4291 H 0.95021 0.11871 0.68124 0.0
H4292 H 0.9893 0.11435 0.68537 0.0
H4293 H 1.0002 0.10783 0.60299 0.0
H4294 H 0.01489 0.12771 0.58773 0.0
H4295 H 0.98638 0.12903 0.59025 0.0
H4296 H 0.99189 0.1677 0.60517 0.0
H4297 H 0.02042 0.16647 0.60276 0.0
H4298 H 0.00941 0.17296 0.6282 0.0
H4299 H 0.03054 0.11412 0.68254 0.0
H4300 H 0.06863 0.11593 0.67221 0.0
H4301 H 0.04966 0.13924 0.60974 0.0
C4302 C 0.96576 0.13721 0.63235 0.0
C4303 C 0.95183 0.1316 0.6491 0.0
C4304 C 0.96053 0.12314 0.66819 0.0
C4305 C 0.98274 0.12066 0.67068 0.0
C4306 C 0.99604 0.12647 0.65385 0.0
C4307 C 0.98774 0.13439 0.63498 0.0
C4308 C 1.00515 0.13906 0.61905 0.0
C4309 C 1.00143 0.12506 0.59881 0.0
C4310 C 1.00681 0.16297 0.61348 0.0
C4311 C 0.02463 0.1327 0.63189 0.0
C4312 C 0.01921 0.12561 0.65198 0.0
C4313 C 0.03486 0.11949 0.66675 0.0
C4314 C 0.0565 0.12059 0.66076 0.0
C4315 C 0.0623 0.12753 0.64009 0.0
C4316 C 0.04596 0.13361 0.6256 0.0
H4317 H 0.38034 0.55142 0.08596 0.0
H4318 H 0.41902 0.56649 0.14326 0.0
H4319 H 0.42328 0.52782 0.14897 0.0
H4320 H 0.35246 0.50453 0.10673 0.0
H4321 H 0.3518 0.49022 0.08157 0.0
H4322 H 0.35229 0.519 0.08194 0.0
H4323 H 0.38605 0.52034 0.05881 0.0
H4324 H 0.38568 0.49156 0.05845 0.0
H4325 H 0.40936 0.50689 0.06782 0.0
H4326 H 0.42384 0.48651 0.14776 0.0
H4327 H 0.41882 0.44746 0.14089 0.0
H4328 H 0.37872 0.45996 0.08517 0.0
C4329 C 0.38978 0.54666 0.0997 0.0
C4330 C 0.39945 0.56218 0.11409 0.0
C4331 C 0.41145 0.55504 0.13197 0.0
C4332 C 0.414 0.53305 0.13532 0.0
C4333 C 0.40432 0.5182 0.12078 0.0
C4334 C 0.3923 0.52478 0.1034 0.0
C4335 C 0.38307 0.50571 0.09037 0.0
C4336 C 0.35844 0.50482 0.09015 0.0
C4337 C 0.39155 0.50616 0.06751 0.0
C4338 C 0.3918 0.48734 0.10302 0.0
C4339 C 0.40415 0.49478 0.12044 0.0
C4340 C 0.41409 0.4806 0.1342 0.0
C4341 C 0.41119 0.45837 0.13015 0.0
C4342 C 0.39827 0.45037 0.11257 0.0
C4343 C 0.38859 0.46529 0.09888 0.0
H4344 H 0.41407 0.04912 0.13553 0.0
H4345 H 0.36257 0.06453 0.09145 0.0
H4346 H 0.35506 0.02565 0.08419 0.0
H4347 H 0.43357 1.00715 0.10405 0.0
H4348 H 0.44081 0.99152 0.12695 0.0
H4349 H 0.44087 0.02019 0.1292 0.0
H4350 H 0.41497 0.01676 0.16075 0.0
H4351 H 0.41493 0.98808 0.15861 0.0
H4352 H 0.39 1.00121 0.15726 0.0
H4353 H 0.35336 0.98326 0.08272 0.0
H4354 H 0.35949 0.94437 0.08513 0.0
H4355 H 0.41386 0.95897 0.12817 0.0
C4356 C 0.40108 0.04455 0.12437 0.0
C4357 C 0.38881 0.06018 0.11422 0.0
C4358 C 0.37217 0.05305 0.09957 0.0
C4359 C 0.3678 0.03092 0.09537 0.0
C4360 C 0.38037 0.01603 0.10569 0.0
C4361 C 0.39683 0.02278 0.11974 0.0
C4362 C 0.40884 1.00411 0.12823 0.0
C4363 C 0.43241 1.00585 0.1217 0.0
C4364 C 0.40706 1.00245 0.15266 0.0
C4365 C 0.39664 0.9856 0.11688 0.0
C4366 C 0.38007 0.99255 0.10411 0.0
C4367 C 0.36643 0.97785 0.0926 0.0
C4368 C 0.36998 0.95573 0.09408 0.0
C4369 C 0.38726 0.94847 0.1067 0.0
C4370 C 0.4006 0.96381 0.1182 0.0
H4371 H 0.47793 0.90611 0.65636 0.0
H4372 H 0.46165 0.8399 0.63888 0.0
H4373 H 0.50008 0.83397 0.6343 0.0
H4374 H 0.52009 0.91455 0.6189 0.0
H4375 H 0.53655 0.93154 0.63683 0.0
H4376 H 0.50785 0.93033 0.63898 0.0
H4377 H 0.51176 0.92001 0.67886 0.0
H4378 H 0.54046 0.92117 0.67681 0.0
H4379 H 0.52664 0.89714 0.68606 0.0
H4380 H 0.54107 0.83536 0.63213 0.0
H4381 H 0.58014 0.8442 0.63178 0.0
H4382 H 0.56894 0.90968 0.64989 0.0
C4383 C 0.48239 0.89031 0.65165 0.0
C4384 C 0.46666 0.87344 0.64809 0.0
C4385 C 0.47332 0.85309 0.64174 0.0
C4386 C 0.49515 0.84957 0.63911 0.0
C4387 C 0.51023 0.86656 0.64275 0.0
C4388 C 0.50407 0.88656 0.64882 0.0
C4389 C 0.5233 0.90225 0.6515 0.0
C4390 C 0.52185 0.92076 0.6356 0.0
C4391 C 0.52568 0.91063 0.67469 0.0
C4392 C 0.54128 0.888 0.64608 0.0
C4393 C 0.5335 0.86744 0.64113 0.0
C4394 C 0.54727 0.85146 0.63591 0.0
C4395 C 0.56949 0.85663 0.63575 0.0
C4396 C 0.57781 0.87767 0.64067 0.0
C4397 C 0.5633 0.89345 0.64587 0.0
H4398 H 0.58907 0.05341 0.13843 0.0
H4399 H 0.63882 0.06776 0.09295 0.0
H4400 H 0.64501 0.02909 0.08977 0.0
H4401 H 0.61623 0.01118 0.16553 0.0
H4402 H 0.59181 0.99539 0.16988 0.0
H4403 H 0.59135 0.02407 0.16827 0.0
H4404 H 0.5624 0.02019 0.13787 0.0
H4405 H 0.56283 0.99151 0.13941 0.0
H4406 H 0.56751 1.00467 0.11431 0.0
H4407 H 0.64401 0.98778 0.09017 0.0
H4408 H 0.63793 0.94888 0.09628 0.0
H4409 H 0.59087 0.96243 0.14357 0.0
C4410 C 0.6013 0.04846 0.12779 0.0
C4411 C 0.61337 0.0637 0.11582 0.0
C4412 C 0.62937 0.05646 0.1023 0.0
C4413 C 0.63295 0.03448 0.10035 0.0
C4414 C 0.62065 0.01987 0.11228 0.0
C4415 C 0.60533 0.02666 0.12596 0.0
C4416 C 0.59455 1.00789 0.13741 0.0
C4417 C 0.59874 0.00975 0.16171 0.0
C4418 C 0.57039 1.00596 0.13191 0.0
C4419 C 0.60597 0.98942 0.1279 0.0
C4420 C 0.62084 0.99654 0.11328 0.0
C4421 C 0.63258 0.98213 0.1018 0.0
C4422 C 0.62902 0.96001 0.10538 0.0
C4423 C 0.61408 0.95238 0.12056 0.0
C4424 C 0.60259 0.96751 0.13199 0.0
H4425 H 0.55211 0.09601 0.65274 0.0
H4426 H 0.56762 0.16117 0.63305 0.0
H4427 H 0.52895 0.16702 0.62832 0.0
H4428 H 0.50774 0.08574 0.61569 0.0
H4429 H 0.49232 0.06979 0.63423 0.0
H4430 H 0.52114 0.071 0.63623 0.0
H4431 H 0.51966 0.08347 0.67574 0.0
H4432 H 0.49085 0.08233 0.67384 0.0
H4433 H 0.50531 0.10678 0.68223 0.0
H4434 H 0.48782 0.16567 0.62632 0.0
H4435 H 0.44873 0.15697 0.62637 0.0
H4436 H 0.46081 0.09247 0.64663 0.0
C4437 C 0.54744 0.11157 0.64749 0.0
C4438 C 0.56301 0.12817 0.64337 0.0
C4439 C 0.55607 0.14819 0.63634 0.0
C4440 C 0.5341 0.15167 0.63363 0.0
C4441 C 0.51919 0.13494 0.63787 0.0
C4442 C 0.52563 0.11526 0.64458 0.0
C4443 C 0.50653 0.09979 0.64786 0.0
C4444 C 0.50696 0.08044 0.63259 0.0
C4445 C 0.50554 0.09268 0.67131 0.0
C4446 C 0.48829 0.11382 0.64203 0.0
C4447 C 0.49583 0.13407 0.63636 0.0
C4448 C 0.4818 0.14982 0.63066 0.0
C4449 C 0.45957 0.14472 0.63074 0.0
C4450 C 0.45149 0.12399 0.63638 0.0
C4451 C 0.46625 0.10845 0.64207 0.0
H4452 H 0.40962 0.05302 0.87203 0.0
H4453 H 0.34586 0.06821 0.89081 0.0
H4454 H 0.33599 0.02941 0.89354 0.0
H4455 H 0.39305 0.00853 0.8387 0.0
H4456 H 0.41605 0.99361 0.84561 0.0
H4457 H 0.4181 0.02239 0.84645 0.0
H4458 H 0.4315 0.02149 0.88596 0.0
H4459 H 0.42946 0.99269 0.88525 0.0
H4460 H 0.41561 1.00706 0.90528 0.0
H4461 H 0.33359 0.9879 0.89432 0.0
H4462 H 0.33811 0.94889 0.89063 0.0
H4463 H 0.40285 0.96216 0.86937 0.0
C4464 C 0.39357 0.04835 0.87688 0.0
C4465 C 0.37858 0.06386 0.88138 0.0
C4466 C 0.3577 0.05675 0.88737 0.0
C4467 C 0.35197 0.03471 0.88899 0.0
C4468 C 0.3672 0.01991 0.88434 0.0
C4469 C 0.38753 0.02656 0.87824 0.0
C4470 C 0.4008 1.00773 0.87311 0.0
C4471 C 0.40738 1.00809 0.84957 0.0
C4472 C 0.4205 1.00722 0.88831 0.0
C4473 C 0.38483 0.9893 0.87726 0.0
C4474 C 0.36558 0.99652 0.88396 0.0
C4475 C 0.34859 0.98218 0.889 0.0
C4476 C 0.35131 0.96003 0.88692 0.0
C4477 C 0.37077 0.9524 0.87959 0.0
C4478 C 0.38769 0.96738 0.87485 0.0
H4479 H 0.54938 0.91841 0.38032 0.0
H4480 H 0.56638 0.86969 0.42565 0.0
H4481 H 0.52771 0.86261 0.43291 0.0
H4482 H 0.50871 0.93984 0.41123 0.0
H4483 H 0.49219 0.94576 0.3882 0.0
H4484 H 0.52079 0.94557 0.38593 0.0
H4485 H 0.51609 0.91781 0.35501 0.0
H4486 H 0.48747 0.91806 0.35712 0.0
H4487 H 0.50053 0.89316 0.35904 0.0
H4488 H 0.48533 0.86113 0.43435 0.0
H4489 H 0.44636 0.86739 0.4319 0.0
H4490 H 0.45955 0.91902 0.38768 0.0
C4491 C 0.5452 0.90611 0.39174 0.0
C4492 C 0.5612 0.89449 0.40225 0.0
C4493 C 0.55459 0.87875 0.41724 0.0
C4494 C 0.53259 0.87463 0.42144 0.0
C4495 C 0.51733 0.88657 0.41078 0.0
C4496 C 0.52359 0.90215 0.39638 0.0
C4497 C 0.50464 0.91371 0.38762 0.0
C4498 C 0.50671 0.93764 0.39362 0.0
C4499 C 0.50203 0.91048 0.36326 0.0
C4500 C 0.48652 0.90228 0.39923 0.0
C4501 C 0.4939 0.88645 0.41235 0.0
C4502 C 0.47958 0.87361 0.42419 0.0
C4503 C 0.45742 0.87723 0.42268 0.0
C4504 C 0.44976 0.8938 0.40971 0.0
C4505 C 0.46471 0.90631 0.39788 0.0
H4506 H 0.62231 0.04305 0.86774 0.0
H4507 H 0.68656 0.05914 0.89274 0.0
H4508 H 0.69234 0.02058 0.89739 0.0
H4509 H 0.61088 0.99893 0.90369 0.0
H4510 H 0.5956 0.98326 0.88373 0.0
H4511 H 0.59669 0.01203 0.8825 0.0
H4512 H 0.61037 0.01021 0.84385 0.0
H4513 H 0.6094 0.98145 0.845 0.0
H4514 H 0.63401 0.99599 0.8386 0.0
H4515 H 0.69154 0.9794 0.89734 0.0
H4516 H 0.68336 0.94029 0.89506 0.0
H4517 H 0.61894 0.95166 0.87203 0.0
C4518 C 0.63761 0.03851 0.87425 0.0
C4519 C 0.65403 0.05424 0.87978 0.0
C4520 C 0.67371 0.04749 0.88842 0.0
C4521 C 0.67716 0.02558 0.89105 0.0
C4522 C 0.66069 0.0105 0.88524 0.0
C4523 C 0.6412 0.01676 0.87725 0.0
C4524 C 0.62595 0.99751 0.87249 0.0
C4525 C 0.60611 0.99796 0.88644 0.0
C4526 C 0.61956 0.99622 0.84856 0.0
C4527 C 0.63992 0.97939 0.87883 0.0
C4528 C 0.65996 0.98713 0.88601 0.0
C4529 C 0.6758 0.97325 0.89195 0.0
C4530 C 0.67101 0.95099 0.89058 0.0
C4531 C 0.65044 0.94268 0.88357 0.0
C4532 C 0.63477 0.95729 0.87771 0.0
H4533 H 0.45333 0.09331 0.38029 0.0
H4534 H 0.43966 0.14847 0.41908 0.0
H4535 H 0.47866 0.15509 0.42674 0.0
H4536 H 0.49528 0.07502 0.41419 0.0
H4537 H 0.51063 0.06591 0.39223 0.0
H4538 H 0.48192 0.06629 0.38949 0.0
H4539 H 0.48576 0.08977 0.35581 0.0
H4540 H 0.51449 0.08952 0.35844 0.0
H4541 H 0.50171 0.11462 0.35743 0.0
H4542 H 0.52041 0.15564 0.4293 0.0
H4543 H 0.55912 0.14902 0.42811 0.0
H4544 H 0.54408 0.09245 0.38893 0.0
C4545 C 0.45835 0.10692 0.39034 0.0
C4546 C 0.44317 0.12048 0.39892 0.0
C4547 C 0.4508 0.13787 0.41221 0.0
C4548 C 0.47299 0.14175 0.41663 0.0
C4549 C 0.48743 0.12798 0.40784 0.0
C4550 C 0.48025 0.11082 0.39509 0.0
C4551 C 0.49867 0.09789 0.38797 0.0
C4552 C 0.49649 0.07492 0.39648 0.0
C4553 C 0.50024 0.09797 0.36346 0.0
C4554 C 0.51751 0.11043 0.39859 0.0
C4555 C 0.51084 0.12785 0.40988 0.0
C4556 C 0.52566 0.14195 0.42059 0.0
C4557 C 0.54767 0.13809 0.4198 0.0
C4558 C 0.55478 0.12012 0.40858 0.0
C4559 C 0.53931 0.10622 0.39787 0.0
H4560 H 0.12705 0.42301 0.95546 0.0
H4561 H 0.08327 0.36765 0.94493 0.0
H4562 H 0.08103 0.36297 0.98421 0.0
H4563 H 0.15598 0.40154 1.00037 0.0
H4564 H 0.15965 0.42705 0.01391 0.0
H4565 H 0.15732 0.42587 0.98515 0.0
H4566 H 0.12571 0.45097 0.98596 0.0
H4567 H 0.12816 0.45223 0.01468 0.0
H4568 H 0.10287 0.44387 1.00193 0.0
H4569 H 0.08276 0.36581 0.02611 0.0
H4570 H 0.09009 0.37447 0.06461 0.0
H4571 H 0.13429 0.42647 0.04629 0.0
C4572 C 0.11693 0.40988 0.96134 0.0
C4573 C 0.10521 0.39579 0.94696 0.0
C4574 C 0.09241 0.37869 0.95552 0.0
C4575 C 0.091 0.37595 0.97787 0.0
C4576 C 0.10271 0.39024 0.9916 0.0
C4577 C 0.11561 0.40674 0.98351 0.0
C4578 C 0.12701 0.41973 1.00137 0.0
C4579 C 0.15144 0.41846 1.00012 0.0
C4580 C 0.12053 0.44308 1.00095 0.0
C4581 C 0.11846 0.40818 0.02084 0.0
C4582 C 0.10432 0.39129 0.01507 0.0
C4583 C 0.09398 0.37891 0.03068 0.0
C4584 C 0.09823 0.38393 0.05257 0.0
C4585 C 0.11291 0.40106 0.05878 0.0
C4586 C 0.1231 0.41313 0.04243 0.0
H4587 H 0.14602 0.60722 0.96644 0.0
H4588 H 0.12076 0.66894 0.95284 0.0
H4589 H 0.11637 0.67502 0.99175 0.0
H4590 H 0.11027 0.59346 0.00918 0.0
H4591 H 0.13028 0.57999 0.0244 0.0
H4592 H 0.1315 0.58095 0.99568 0.0
H4593 H 0.17016 0.59778 0.99896 0.0
H4594 H 0.16904 0.59699 0.02769 0.0
H4595 H 0.17541 0.62194 0.01454 0.0
H4596 H 0.11646 0.67461 0.03336 0.0
H4597 H 0.11837 0.66665 0.07215 0.0
H4598 H 0.14172 0.60436 0.0574 0.0
C4599 C 0.13955 0.62206 0.97156 0.0
C4600 C 0.13387 0.63769 0.95646 0.0
C4601 C 0.12524 0.65673 0.96401 0.0
C4602 C 0.12276 0.66033 0.98613 0.0
C4603 C 0.12871 0.64463 1.00058 0.0
C4604 C 0.1367 0.62575 0.99347 0.0
C4605 C 0.14149 0.61111 0.012 0.0
C4606 C 0.12755 0.59014 0.01021 0.0
C4607 C 0.16545 0.60671 0.01337 0.0
C4608 C 0.13515 0.62469 0.03077 0.0
C4609 C 0.12797 0.64406 0.02399 0.0
C4610 C 0.12189 0.65939 0.03872 0.0
C4611 C 0.12306 0.65474 0.06079 0.0
C4612 C 0.13001 0.6348 0.06805 0.0
C4613 C 0.13611 0.6197 0.05261 0.0
H4614 H 0.91638 0.64743 0.46883 0.0
H4615 H 0.84773 0.6457 0.45673 0.0
H4616 H 0.84185 0.64094 0.49548 0.0
H4617 H 0.91486 0.60636 0.50953 0.0
H4618 H 0.93671 0.61898 0.52517 0.0
H4619 H 0.93535 0.62253 0.49662 0.0
H4620 H 0.93716 0.66364 0.50212 0.0
H4621 H 0.93851 0.66018 0.53066 0.0
H4622 H 0.91787 0.6756 0.51876 0.0
H4623 H 0.84386 0.63883 0.53649 0.0
H4624 H 0.85346 0.63651 0.57507 0.0
H4625 H 0.92059 0.63603 0.5594 0.0
C4626 C 0.9001 0.64607 0.47433 0.0
C4627 C 0.8825 0.64714 0.45975 0.0
C4628 C 0.86145 0.64495 0.46759 0.0
C4629 C 0.85797 0.64229 0.48959 0.0
C4630 C 0.87569 0.6414 0.50356 0.0
C4631 C 0.89634 0.64291 0.49614 0.0
C4632 C 0.91265 0.6409 0.51431 0.0
C4633 C 0.92565 0.621 0.51122 0.0
C4634 C 0.92741 0.6613 0.51659 0.0
C4635 C 0.89801 0.63836 0.53316 0.0
C4636 C 0.87675 0.6389 0.52674 0.0
C4637 C 0.86046 0.63807 0.54161 0.0
C4638 C 0.86606 0.63675 0.56353 0.0
C4639 C 0.88777 0.63589 0.57044 0.0
C4640 C 0.90382 0.63645 0.55484 0.0
H4641 H 0.87085 0.42692 0.96483 0.0
H4642 H 0.90248 0.36858 0.95103 0.0
H4643 H 0.90754 0.36262 0.98995 0.0
H4644 H 0.90487 0.44386 0.00955 0.0
H4645 H 0.88356 0.45473 0.02434 0.0
H4646 H 0.88202 0.45393 0.99554 0.0
H4647 H 0.84536 0.43281 0.99672 0.0
H4648 H 0.84677 0.4335 0.02553 0.0
H4649 H 0.84309 0.40825 0.01151 0.0
H4650 H 0.90895 0.36318 0.03116 0.0
H4651 H 0.90743 0.37057 0.07001 0.0
H4652 H 0.8755 0.42899 0.0566 0.0
C4653 C 0.87874 0.41277 0.9699 0.0
C4654 C 0.88613 0.39811 0.95467 0.0
C4655 C 0.89659 0.38001 0.96223 0.0
C4656 C 0.89953 0.3765 0.98437 0.0
C4657 C 0.89205 0.39129 0.9989 0.0
C4658 C 0.88192 0.40911 0.9919 0.0
C4659 C 0.87572 0.42285 0.01066 0.0
C4660 C 0.88723 0.44516 0.00998 0.0
C4661 C 0.85129 0.42444 0.01113 0.0
C4662 C 0.88387 0.41001 0.02941 0.0
C4663 C 0.89318 0.39181 0.02233 0.0
C4664 C 0.90171 0.37743 0.03678 0.0
C4665 C 0.90075 0.38176 0.0589 0.0
C4666 C 0.8914 0.4004 0.06658 0.0
C4667 C 0.88285 0.41463 0.05144 0.0
H4668 H 0.09426 0.3801 0.54988 0.0
H4669 H 0.14504 0.42804 0.56508 0.0
H4670 H 0.15204 0.43177 0.52626 0.0
H4671 H 0.12167 0.35446 0.50727 0.0
H4672 H 0.09738 0.34862 0.49166 0.0
H4673 H 0.0965 0.35028 0.52038 0.0
H4674 H 0.06829 0.37892 0.51739 0.0
H4675 H 0.06903 0.37731 0.48868 0.0
H4676 H 0.07408 0.40272 0.50211 0.0
H4677 H 0.15129 0.43144 0.48425 0.0
H4678 H 0.14528 0.4248 0.44527 0.0
H4679 H 0.0973 0.37464 0.45926 0.0
C4680 C 0.10693 0.39137 0.54515 0.0
C4681 C 0.119 0.4039 0.56063 0.0
C4682 C 0.13556 0.41827 0.55359 0.0
C4683 C 0.13959 0.42051 0.53153 0.0
C4684 C 0.1272 0.40796 0.51668 0.0
C4685 C 0.11143 0.39342 0.52338 0.0
C4686 C 0.10063 0.38128 0.50461 0.0
C4687 C 0.10427 0.35724 0.50607 0.0
C4688 C 0.07659 0.38531 0.50312 0.0
C4689 C 0.11249 0.3914 0.48613 0.0
C4690 C 0.12762 0.40694 0.49322 0.0
C4691 C 0.13967 0.41908 0.47867 0.0
C4692 C 0.13614 0.4152 0.4565 0.0
C4693 C 0.12095 0.39905 0.44895 0.0
C4694 C 0.1092 0.387 0.46422 0.0
H4695 H 0.87791 0.61307 0.96848 0.0
H4696 H 0.8989 0.67909 0.95704 0.0
H4697 H 0.89752 0.68674 0.99588 0.0
H4698 H 0.84041 0.62447 0.00879 0.0
H4699 H 0.84579 0.60112 0.02427 0.0
H4700 H 0.84922 0.60082 0.99577 0.0
H4701 H 0.88841 0.59031 1.00153 0.0
H4702 H 0.88512 0.59057 0.03006 0.0
H4703 H 0.90645 0.60676 0.0185 0.0
H4704 H 0.89437 0.6868 0.03663 0.0
H4705 H 0.88789 0.67984 0.07488 0.0
H4706 H 0.8673 0.6142 0.05902 0.0
C4707 C 0.88236 0.62915 0.97405 0.0
C4708 C 0.8887 0.64544 0.95956 0.0
C4709 C 0.89407 0.6663 0.96771 0.0
C4710 C 0.89335 0.67079 0.9898 0.0
C4711 C 0.88701 0.65433 1.00358 0.0
C4712 C 0.88146 0.63396 0.99594 0.0
C4713 C 0.87455 0.61921 0.0139 0.0
C4714 C 0.8511 0.61092 0.01047 0.0
C4715 C 0.88953 0.60062 0.01612 0.0
C4716 C 0.87713 0.6344 0.03292 0.0
C4717 C 0.88449 0.65455 0.0267 0.0
C4718 C 0.88849 0.6711 0.0416 0.0
C4719 C 0.8848 0.66698 0.06333 0.0
C4720 C 0.87694 0.64652 0.07002 0.0
C4721 C 0.87309 0.63009 0.05448 0.0
H4722 H 0.91546 0.37681 0.46376 0.0
H4723 H 0.86672 0.42233 0.45245 0.0
H4724 H 0.85989 0.42315 0.49144 0.0
H4725 H 0.88686 0.34685 0.50461 0.0
H4726 H 0.91097 0.34173 0.5197 0.0
H4727 H 0.91182 0.34499 0.49114 0.0
H4728 H 0.94138 0.37529 0.49608 0.0
H4729 H 0.9407 0.37196 0.5246 0.0
H4730 H 0.93677 0.39783 0.51318 0.0
H4731 H 0.86071 0.42055 0.53301 0.0
H4732 H 0.8669 0.41286 0.57142 0.0
H4733 H 0.91276 0.3665 0.55426 0.0
C4734 C 0.90326 0.38692 0.46939 0.0
C4735 C 0.89173 0.39964 0.45494 0.0
C4736 C 0.87578 0.41245 0.46312 0.0
C4737 C 0.87184 0.41303 0.48529 0.0
C4738 C 0.88368 0.40037 0.49909 0.0
C4739 C 0.89884 0.3873 0.49128 0.0
C4740 C 0.90918 0.37485 0.50915 0.0
C4741 C 0.90441 0.35067 0.50595 0.0
C4742 C 0.93344 0.38033 0.51084 0.0
C4743 C 0.89784 0.3832 0.52841 0.0
C4744 C 0.88329 0.39803 0.5224 0.0
C4745 C 0.87186 0.40872 0.53773 0.0
C4746 C 0.87548 0.40423 0.5596 0.0
C4747 C 0.8902 0.38892 0.56612 0.0
C4748 C 0.90123 0.37815 0.55007 0.0
H4749 H 0.10555 0.64232 0.55654 0.0
H4750 H 0.16347 0.60952 0.57095 0.0
H4751 H 0.16776 0.60274 0.53225 0.0
H4752 H 0.08594 0.60707 0.51379 0.0
H4753 H 0.07516 0.62818 0.49809 0.0
H4754 H 0.07704 0.63068 0.5268 0.0
H4755 H 0.09916 0.66662 0.52339 0.0
H4756 H 0.09728 0.66417 0.49469 0.0
H4757 H 0.12315 0.66758 0.50801 0.0
H4758 H 0.16591 0.60029 0.49088 0.0
H4759 H 0.15716 0.60115 0.45194 0.0
H4760 H 0.09982 0.63432 0.46532 0.0
C4761 C 0.11921 0.63376 0.55162 0.0
C4762 C 0.13425 0.62657 0.56696 0.0
C4763 C 0.15173 0.61524 0.55964 0.0
C4764 C 0.15431 0.61133 0.53762 0.0
C4765 C 0.13921 0.61868 0.52295 0.0
C4766 C 0.12192 0.62956 0.52974 0.0
C4767 C 0.1077 0.63549 0.51089 0.0
C4768 C 0.08513 0.6247 0.51249 0.0
C4769 C 0.10678 0.65991 0.50915 0.0
C4770 C 0.11962 0.62629 0.49241 0.0
C4771 C 0.13786 0.61677 0.49958 0.0
C4772 C 0.15158 0.60762 0.4852 0.0
C4773 C 0.1465 0.60817 0.46305 0.0
C4774 C 0.12773 0.61764 0.4554 0.0
C4775 C 0.11422 0.62677 0.47047 0.0
H4776 H 0.29858 0.12858 0.42289 0.0
H4777 H 0.30302 0.08322 0.3706 0.0
H4778 H 0.26384 0.08095 0.36605 0.0
H4779 H 0.25197 0.10209 0.44542 0.0
H4780 H 0.23978 0.12626 0.45329 0.0
H4781 H 0.26847 0.12594 0.45167 0.0
H4782 H 0.2685 0.15779 0.42558 0.0
H4783 H 0.2398 0.15824 0.42718 0.0
H4784 H 0.25194 0.1558 0.40153 0.0
H4785 H 0.22415 0.08285 0.36702 0.0
H4786 H 0.18623 0.0876 0.37469 0.0
H4787 H 0.20579 0.13005 0.42775 0.0
C4788 C 0.29126 0.11845 0.41031 0.0
C4789 C 0.30407 0.10622 0.39693 0.0
C4790 C 0.29374 0.0928 0.38099 0.0
C4791 C 0.27139 0.0914 0.37824 0.0
C4792 C 0.25921 0.10332 0.39175 0.0
C4793 C 0.26867 0.1165 0.40759 0.0
C4794 C 0.25148 0.12658 0.4206 0.0
C4795 C 0.25302 0.11981 0.44414 0.0
C4796 C 0.25303 0.15106 0.4186 0.0
C4797 C 0.23107 0.11695 0.4096 0.0
C4798 C 0.23601 0.10376 0.39285 0.0
C4799 C 0.22007 0.09313 0.38012 0.0
C4800 C 0.1985 0.09595 0.3846 0.0
C4801 C 0.19282 0.10912 0.40187 0.0
C4802 C 0.20948 0.11976 0.4145 0.0
H4803 H 0.40196 0.71376 0.89857 0.0
H4804 H 0.3481 0.69789 0.85515 0.0
H4805 H 0.34243 0.73642 0.85068 0.0
H4806 H 0.3806 0.75824 0.92447 0.0
H4807 H 0.40557 0.77402 0.92613 0.0
H4808 H 0.40562 0.74526 0.92571 0.0
H4809 H 0.43003 0.74652 0.89288 0.0
H4810 H 0.43029 0.77529 0.89338 0.0
H4811 H 0.4219 0.76074 0.86934 0.0
H4812 H 0.34105 0.77714 0.85324 0.0
H4813 H 0.34745 0.81629 0.85817 0.0
H4814 H 0.40374 0.80556 0.89778 0.0
C4815 C 0.38911 0.71838 0.88792 0.0
C4816 C 0.37548 0.7027 0.87719 0.0
C4817 C 0.3589 0.70951 0.86338 0.0
C4818 C 0.35544 0.7314 0.86089 0.0
C4819 C 0.36891 0.74641 0.87202 0.0
C4820 C 0.38571 0.74017 0.8849 0.0
C4821 C 0.39826 0.75946 0.89464 0.0
C4822 C 0.39746 0.75923 0.91919 0.0
C4823 C 0.4215 0.76056 0.8871 0.0
C4824 C 0.38582 0.77755 0.88539 0.0
C4825 C 0.36873 0.76971 0.87265 0.0
C4826 C 0.35453 0.78341 0.863 0.0
C4827 C 0.35819 0.80565 0.86602 0.0
C4828 C 0.37613 0.81406 0.87828 0.0
C4829 C 0.38997 0.79968 0.88818 0.0
H4830 H 0.70713 0.89133 0.4288 0.0
H4831 H 0.70013 0.93726 0.37791 0.0
H4832 H 0.73912 0.93963 0.37363 0.0
H4833 H 0.7548 0.91758 0.4524 0.0
H4834 H 0.76734 0.8933 0.45957 0.0
H4835 H 0.73858 0.89366 0.4578 0.0
H4836 H 0.7373 0.86212 0.43071 0.0
H4837 H 0.76608 0.86165 0.43244 0.0
H4838 H 0.7527 0.8644 0.4068 0.0
H4839 H 0.77895 0.9377 0.37474 0.0
H4840 H 0.81725 0.93297 0.38263 0.0
H4841 H 0.80007 0.88994 0.43423 0.0
C4842 C 0.71384 0.90162 0.41658 0.0
C4843 C 0.70038 0.91399 0.40354 0.0
C4844 C 0.70993 0.9276 0.38806 0.0
C4845 C 0.73215 0.92905 0.38546 0.0
C4846 C 0.74499 0.91697 0.39864 0.0
C4847 C 0.73629 0.90361 0.41402 0.0
C4848 C 0.75409 0.89338 0.42681 0.0
C4849 C 0.75367 0.89987 0.45055 0.0
C4850 C 0.75244 0.86893 0.42402 0.0
C4851 C 0.77397 0.90314 0.41622 0.0
C4852 C 0.76825 0.91651 0.39985 0.0
C4853 C 0.78362 0.92729 0.38756 0.0
C4854 C 0.80541 0.92447 0.39216 0.0
C4855 C 0.81187 0.91116 0.40909 0.0
C4856 C 0.79578 0.90033 0.42123 0.0
H4857 H 0.62927 0.20361 0.89691 0.0
H4858 H 0.67671 0.18945 0.85036 0.0
H4859 H 0.68357 0.22829 0.84426 0.0
H4860 H 0.60784 0.24855 0.87149 0.0
H4861 H 0.60506 0.2637 0.8958 0.0
H4862 H 0.60383 0.23491 0.89646 0.0
H4863 H 0.63461 0.23579 0.92506 0.0
H4864 H 0.63567 0.26459 0.92477 0.0
H4865 H 0.65947 0.2505 0.91989 0.0
H4866 H 0.68278 0.26928 0.84119 0.0
H4867 H 0.6795 0.30833 0.8463 0.0
H4868 H 0.63547 0.29565 0.89752 0.0
C4869 C 0.6413 0.20872 0.88562 0.0
C4870 C 0.65248 0.19348 0.8741 0.0
C4871 C 0.66812 0.20081 0.85952 0.0
C4872 C 0.67196 0.22286 0.85581 0.0
C4873 C 0.66037 0.23748 0.86715 0.0
C4874 C 0.64577 0.23067 0.8822 0.0
C4875 C 0.63615 0.24959 0.89302 0.0
C4876 C 0.61178 0.24915 0.88894 0.0
C4877 C 0.64182 0.25015 0.91711 0.0
C4878 C 0.64736 0.26812 0.88156 0.0
C4879 C 0.66096 0.26084 0.86638 0.0
C4880 C 0.67236 0.27509 0.85323 0.0
C4881 C 0.67026 0.29725 0.85608 0.0
C4882 C 0.65724 0.30503 0.87226 0.0
C4883 C 0.64557 0.29017 0.88502 0.0
H4884 H 0.31692 0.89806 0.61835 0.0
H4885 H 0.33201 0.85045 0.66564 0.0
H4886 H 0.29341 0.84373 0.67195 0.0
H4887 H 0.27316 0.91965 0.64478 0.0
H4888 H 0.25733 0.92311 0.62067 0.0
H4889 H 0.28612 0.92404 0.61968 0.0
H4890 H 0.284 0.89391 0.5909 0.0
H4891 H 0.2552 0.89309 0.5916 0.0
H4892 H 0.26923 0.86908 0.59618 0.0
H4893 H 0.25268 0.84373 0.67453 0.0
H4894 H 0.21357 0.84709 0.6697 0.0
H4895 H 0.22523 0.89327 0.61945 0.0
C4896 C 0.31214 0.88607 0.6299 0.0
C4897 C 0.32763 0.8748 0.6415 0.0
C4898 C 0.32055 0.85921 0.65643 0.0
C4899 C 0.29862 0.85538 0.66024 0.0
C4900 C 0.28382 0.86705 0.64882 0.0
C4901 C 0.2903 0.8818 0.63367 0.0
C4902 C 0.27119 0.89182 0.62314 0.0
C4903 C 0.27201 0.9161 0.62732 0.0
C4904 C 0.26983 0.88666 0.59903 0.0
C4905 C 0.25295 0.88053 0.6348 0.0
C4906 C 0.26053 0.86648 0.64976 0.0
C4907 C 0.2466 0.85458 0.66274 0.0
C4908 C 0.22439 0.8567 0.66 0.0
C4909 C 0.21625 0.8704 0.64419 0.0
C4910 C 0.23087 0.88259 0.63165 0.0
H4911 H 0.59058 0.70674 0.11969 0.0
H4912 H 0.64263 0.70364 0.07546 0.0
H4913 H 0.6465 0.74291 0.07504 0.0
H4914 H 0.56709 0.75217 0.09482 0.0
H4915 H 0.55936 0.76415 0.11955 0.0
H4916 H 0.56123 0.73559 0.11758 0.0
H4917 H 0.58767 0.73667 0.15017 0.0
H4918 H 0.58587 0.76524 0.15224 0.0
H4919 H 0.61162 0.754 0.14973 0.0
H4920 H 0.64527 0.7826 0.07928 0.0
H4921 H 0.63737 0.82017 0.08619 0.0
H4922 H 0.5847 0.7989 0.12599 0.0
C4923 C 0.60288 0.71437 0.11008 0.0
C4924 C 0.61638 0.70194 0.09768 0.0
C4925 C 0.63206 0.71264 0.08508 0.0
C4926 C 0.63445 0.73504 0.08477 0.0
C4927 C 0.62088 0.74682 0.09695 0.0
C4928 C 0.60526 0.73695 0.10925 0.0
C4929 C 0.5922 0.75365 0.12001 0.0
C4930 C 0.56857 0.75124 0.11254 0.0
C4931 C 0.59448 0.7523 0.14449 0.0
C4932 C 0.60295 0.77431 0.11182 0.0
C4933 C 0.61961 0.76992 0.09873 0.0
C4934 C 0.63219 0.78623 0.08945 0.0
C4935 C 0.6276 0.80759 0.09352 0.0
C4936 C 0.61036 0.81266 0.10655 0.0
C4937 C 0.59791 0.79565 0.11583 0.0
H4938 H 0.80265 0.10804 0.6152 0.0
H4939 H 0.81714 0.14784 0.67136 0.0
H4940 H 0.77829 0.15093 0.67666 0.0
H4941 H 0.75782 0.13454 0.59541 0.0
H4942 H 0.74259 0.11054 0.58699 0.0
H4943 H 0.77142 0.11108 0.58786 0.0
H4944 H 0.77051 0.07829 0.61288 0.0
H4945 H 0.74167 0.07745 0.61182 0.0
H4946 H 0.75587 0.07915 0.63729 0.0
H4947 H 0.73753 0.15199 0.67381 0.0
H4948 H 0.69855 0.1464 0.66664 0.0
H4949 H 0.71075 0.10367 0.61393 0.0
C4950 C 0.79764 0.11721 0.62877 0.0
C4951 C 0.81295 0.12775 0.64287 0.0
C4952 C 0.80573 0.1395 0.66047 0.0
C4953 C 0.78369 0.14147 0.66349 0.0
C4954 C 0.76904 0.13126 0.649 0.0
C4955 C 0.77574 0.11894 0.63228 0.0
C4956 C 0.7568 0.10909 0.6193 0.0
C4957 C 0.75719 0.11678 0.59602 0.0
C4958 C 0.75618 0.08454 0.6204 0.0
C4959 C 0.73834 0.11803 0.6311 0.0
C4960 C 0.74572 0.13102 0.64801 0.0
C4961 C 0.73163 0.14166 0.66075 0.0
C4962 C 0.70948 0.13853 0.65644 0.0
C4963 C 0.70153 0.12459 0.63973 0.0
C4964 C 0.71628 0.11436 0.62686 0.0
H4965 H 0.38387 0.2057 0.089 0.0
H4966 H 0.43025 0.19975 0.14111 0.0
H4967 H 0.43258 0.23878 0.14615 0.0
H4968 H 0.40984 0.25299 0.06702 0.0
H4969 H 0.38545 0.26535 0.05937 0.0
H4970 H 0.38587 0.23664 0.06063 0.0
H4971 H 0.3545 0.23577 0.0868 0.0
H4972 H 0.35396 0.26448 0.08557 0.0
H4973 H 0.35694 0.25159 0.11105 0.0
H4974 H 0.43062 0.27854 0.14564 0.0
H4975 H 0.42567 0.31664 0.13839 0.0
H4976 H 0.3821 0.2985 0.08531 0.0
C4977 C 0.39424 0.21265 0.10165 0.0
C4978 C 0.40676 0.19948 0.1148 0.0
C4979 C 0.42048 0.20933 0.13085 0.0
C4980 C 0.4219 0.23159 0.13389 0.0
C4981 C 0.40968 0.24415 0.12057 0.0
C4982 C 0.39619 0.23515 0.10466 0.0
C4983 C 0.38581 0.25268 0.0919 0.0
C4984 C 0.39212 0.25186 0.06833 0.0
C4985 C 0.36135 0.25103 0.09396 0.0
C4986 C 0.39562 0.27277 0.10313 0.0
C4987 C 0.40918 0.26737 0.11976 0.0
C4988 C 0.42006 0.28296 0.13262 0.0
C4989 C 0.41712 0.30464 0.12838 0.0
C4990 C 0.40358 0.31078 0.11124 0.0
C4991 C 0.39268 0.29447 0.09848 0.0
H4992 H 0.09023 0.39467 0.20402 0.0
H4993 H 0.1403 0.44466 0.19747 0.0
H4994 H 0.14617 0.44582 0.23657 0.0
H4995 H 0.06826 0.41741 0.2513 0.0
H4996 H 0.0618 0.3921 0.26373 0.0
H4997 H 0.06237 0.39382 0.23501 0.0
H4998 H 0.0897 0.36426 0.2341 0.0
H4999 H 0.08918 0.36244 0.26283 0.0
H5000 H 0.11427 0.36757 0.24981 0.0
H5001 H 0.14698 0.44183 0.27653 0.0
H5002 H 0.1408 0.43471 0.31471 0.0
H5003 H 0.08855 0.38911 0.29676 0.0
C5004 C 0.10259 0.40565 0.21085 0.0
C5005 C 0.11494 0.41947 0.19752 0.0
C5006 C 0.13064 0.4339 0.20721 0.0
C5007 C 0.13416 0.43465 0.22948 0.0
C5008 C 0.12165 0.42108 0.2422 0.0
C5009 C 0.10602 0.40696 0.23332 0.0
C5010 C 0.09405 0.39507 0.25093 0.0
C5011 C 0.07021 0.39989 0.25019 0.0
C5012 C 0.09698 0.3709 0.24932 0.0
C5013 C 0.1054 0.40472 0.27095 0.0
C5014 C 0.12145 0.41949 0.26545 0.0
C5015 C 0.13439 0.43034 0.28101 0.0
C5016 C 0.13078 0.42615 0.30273 0.0
C5017 C 0.11414 0.41144 0.30893 0.0
C5018 C 0.10133 0.40058 0.29267 0.0
H5019 H 0.10093 0.6349 0.71853 0.0
H5020 H 0.1655 0.62006 0.70198 0.0
H5021 H 0.17523 0.61774 0.74043 0.0
H5022 H 0.11567 0.66753 0.76545 0.0
H5023 H 0.09293 0.65793 0.78041 0.0
H5024 H 0.09104 0.65877 0.75163 0.0
H5025 H 0.07954 0.61845 0.75028 0.0
H5026 H 0.08133 0.61749 0.77905 0.0
H5027 H 0.09626 0.59959 0.76325 0.0
H5028 H 0.17772 0.61584 0.78079 0.0
H5029 H 0.17286 0.61436 0.8198 0.0
H5030 H 0.10692 0.63104 0.81095 0.0
C5031 C 0.11717 0.63118 0.7229 0.0
C5032 C 0.13243 0.62762 0.70695 0.0
C5033 C 0.15346 0.62285 0.71366 0.0
C5034 C 0.15915 0.62152 0.73554 0.0
C5035 C 0.14373 0.6251 0.75074 0.0
C5036 C 0.12315 0.62986 0.74472 0.0
C5037 C 0.10953 0.63273 0.76428 0.0
C5038 C 0.10184 0.6556 0.76551 0.0
C5039 C 0.09055 0.61607 0.7642 0.0
C5040 C 0.1256 0.62868 0.78231 0.0
C5041 C 0.14524 0.62432 0.77405 0.0
C5042 C 0.16246 0.61935 0.78736 0.0
C5043 C 0.15954 0.61851 0.80954 0.0
C5044 C 0.13961 0.62272 0.81846 0.0
C5045 C 0.12245 0.62812 0.80462 0.0
H5046 H 0.9014 0.61703 0.21943 0.0
H5047 H 0.85775 0.66681 0.20513 0.0
H5048 H 0.85348 0.67298 0.24391 0.0
H5049 H 0.87517 0.59544 0.26468 0.0
H5050 H 0.8995 0.59075 0.27959 0.0
H5051 H 0.8993 0.59043 0.25079 0.0
H5052 H 0.9304 0.61952 0.25101 0.0
H5053 H 0.93093 0.61966 0.27981 0.0
H5054 H 0.92772 0.6442 0.26552 0.0
H5055 H 0.85243 0.67199 0.28489 0.0
H5056 H 0.85872 0.66761 0.32387 0.0
H5057 H 0.90459 0.61993 0.31095 0.0
C5058 C 0.89109 0.62938 0.22443 0.0
C5059 C 0.8799 0.64144 0.20918 0.0
C5060 C 0.86663 0.65749 0.21646 0.0
C5061 C 0.86397 0.66098 0.23849 0.0
C5062 C 0.87492 0.64851 0.25309 0.0
C5063 C 0.88856 0.63333 0.24631 0.0
C5064 C 0.89901 0.62246 0.26516 0.0
C5065 C 0.89287 0.59834 0.26504 0.0
C5066 C 0.92346 0.62672 0.26538 0.0
C5067 C 0.88903 0.63375 0.28364 0.0
C5068 C 0.87495 0.64852 0.27641 0.0
C5069 C 0.86355 0.66057 0.29067 0.0
C5070 C 0.86708 0.65784 0.3128 0.0
C5071 C 0.88213 0.64343 0.32051 0.0
C5072 C 0.89299 0.6311 0.3056 0.0
H5073 H 0.89901 0.38539 0.81384 0.0
H5074 H 0.89357 0.45434 0.81414 0.0
H5075 H 0.89178 0.45421 0.77513 0.0
H5076 H 0.93335 0.38493 0.7673 0.0
H5077 H 0.92142 0.36017 0.75648 0.0
H5078 H 0.92178 0.3651 0.78493 0.0
H5079 H 0.88062 0.35833 0.78509 0.0
H5080 H 0.88012 0.35348 0.75662 0.0
H5081 H 0.86398 0.37362 0.76768 0.0
H5082 H 0.88902 0.44733 0.73589 0.0
H5083 H 0.88926 0.43407 0.69862 0.0
H5084 H 0.89892 0.37005 0.72178 0.0
C5085 C 0.89752 0.40044 0.8057 0.0
C5086 C 0.89628 0.41983 0.81752 0.0
C5087 C 0.89447 0.43915 0.80593 0.0
C5088 C 0.89338 0.43933 0.78354 0.0
C5089 C 0.89443 0.42012 0.77246 0.0
C5090 C 0.89678 0.40103 0.78302 0.0
C5091 C 0.89824 0.38286 0.76681 0.0
C5092 C 0.91999 0.37266 0.76901 0.0
C5093 C 0.87963 0.36608 0.7692 0.0
C5094 C 0.89622 0.3948 0.74571 0.0
C5095 C 0.89378 0.41626 0.74946 0.0
C5096 C 0.89108 0.43057 0.73272 0.0
C5097 C 0.89116 0.42286 0.71154 0.0
C5098 C 0.8942 0.40105 0.70708 0.0
C5099 C 0.89668 0.38686 0.72455 0.0
H5100 H 0.72729 0.90522 0.63437 0.0
H5101 H 0.71141 0.83964 0.65204 0.0
H5102 H 0.75006 0.83252 0.65368 0.0
H5103 H 0.7702 0.89206 0.5993 0.0
H5104 H 0.78626 0.91608 0.60595 0.0
H5105 H 0.75753 0.916 0.60713 0.0
H5106 H 0.76091 0.92904 0.64655 0.0
H5107 H 0.78966 0.92897 0.64556 0.0
H5108 H 0.77565 0.91387 0.66576 0.0
H5109 H 0.79109 0.83361 0.6558 0.0
H5110 H 0.83024 0.84086 0.65218 0.0
H5111 H 0.81882 0.90434 0.629 0.0
C5112 C 0.732 0.88936 0.63853 0.0
C5113 C 0.71643 0.87299 0.64326 0.0
C5114 C 0.72311 0.85236 0.64834 0.0
C5115 C 0.74502 0.84824 0.64944 0.0
C5116 C 0.76004 0.86479 0.6449 0.0
C5117 C 0.75374 0.88479 0.63903 0.0
C5118 C 0.77291 0.89945 0.63365 0.0
C5119 C 0.77165 0.90629 0.61011 0.0
C5120 C 0.77489 0.91899 0.64878 0.0
C5121 C 0.79102 0.88469 0.63764 0.0
C5122 C 0.78334 0.86489 0.64454 0.0
C5123 C 0.79722 0.84896 0.65013 0.0
C5124 C 0.81942 0.85324 0.64817 0.0
C5125 C 0.82748 0.87306 0.64019 0.0
C5126 C 0.81304 0.88896 0.63496 0.0
H5127 H 0.62807 0.21334 0.15028 0.0
H5128 H 0.59475 0.19855 0.08993 0.0
H5129 H 0.58975 0.23717 0.08442 0.0
H5130 H 0.59749 0.25563 0.16705 0.0
H5131 H 0.6197 0.27213 0.178 0.0
H5132 H 0.62124 0.24351 0.17701 0.0
H5133 H 0.65607 0.24734 0.15556 0.0
H5134 H 0.65495 0.276 0.15696 0.0
H5135 H 0.65637 0.26278 0.13136 0.0
H5136 H 0.58534 0.27755 0.08756 0.0
H5137 H 0.58844 0.31656 0.09512 0.0
H5138 H 0.62773 0.30529 0.15157 0.0
C5139 C 0.6202 0.21834 0.13566 0.0
C5140 C 0.61201 0.20301 0.12037 0.0
C5141 C 0.60153 0.21007 0.10159 0.0
C5142 C 0.59839 0.23195 0.09849 0.0
C5143 C 0.6062 0.24665 0.11413 0.0
C5144 C 0.6175 0.24017 0.13202 0.0
C5145 C 0.62494 0.25921 0.14604 0.0
C5146 C 0.61526 0.25751 0.16834 0.0
C5147 C 0.64954 0.26146 0.14756 0.0
C5148 C 0.6158 0.2774 0.13347 0.0
C5149 C 0.60467 0.26982 0.11532 0.0
C5150 C 0.5942 0.28362 0.10163 0.0
C5151 C 0.59579 0.30574 0.10619 0.0
C5152 C 0.6081 0.31392 0.12405 0.0
C5153 C 0.61804 0.29946 0.13792 0.0
H5154 H 0.20962 0.10004 0.62569 0.0
H5155 H 0.20105 0.16306 0.65209 0.0
H5156 H 0.24051 0.16939 0.65584 0.0
H5157 H 0.25505 0.08854 0.66157 0.0
H5158 H 0.26808 0.07364 0.64135 0.0
H5159 H 0.23932 0.07434 0.64088 0.0
H5160 H 0.24012 0.08827 0.60201 0.0
H5161 H 0.2689 0.08788 0.60246 0.0
H5162 H 0.25609 0.11225 0.59619 0.0
H5163 H 0.28122 0.1699 0.65306 0.0
H5164 H 0.31957 0.16234 0.65014 0.0
H5165 H 0.30142 0.09747 0.62962 0.0
C5166 C 0.21613 0.11503 0.63253 0.0
C5167 C 0.20243 0.1311 0.63864 0.0
C5168 C 0.21136 0.15053 0.64752 0.0
C5169 C 0.23372 0.15428 0.64955 0.0
C5170 C 0.24687 0.13823 0.64306 0.0
C5171 C 0.23836 0.11876 0.63528 0.0
C5172 C 0.25593 0.10387 0.63018 0.0
C5173 C 0.25451 0.08392 0.64434 0.0
C5174 C 0.25521 0.09771 0.60629 0.0
C5175 C 0.27567 0.11809 0.63592 0.0
C5176 C 0.27014 0.138 0.64296 0.0
C5177 C 0.28569 0.15424 0.64793 0.0
C5178 C 0.30741 0.14988 0.64609 0.0
C5179 C 0.31338 0.12932 0.63982 0.0
C5180 C 0.29726 0.11327 0.63467 0.0
H5181 H 0.37482 0.8058 0.1026 0.0
H5182 H 0.42148 0.81199 0.15547 0.0
H5183 H 0.42286 0.77323 0.15696 0.0
H5184 H 0.34642 0.75771 0.12272 0.0
H5185 H 0.34193 0.74537 0.09673 0.0
H5186 H 0.34413 0.7741 0.0993 0.0
H5187 H 0.37466 0.77567 0.07216 0.0
H5188 H 0.37256 0.74694 0.06955 0.0
H5189 H 0.39789 0.76039 0.07703 0.0
H5190 H 0.42059 0.7339 0.15301 0.0
H5191 H 0.41356 0.69577 0.14415 0.0
H5192 H 0.36777 0.71273 0.09447 0.0
C5193 C 0.38525 0.79899 0.11451 0.0
C5194 C 0.39803 0.81242 0.12886 0.0
C5195 C 0.41145 0.80254 0.14417 0.0
C5196 C 0.41243 0.78031 0.14523 0.0
C5197 C 0.39985 0.76765 0.13096 0.0
C5198 C 0.38642 0.77647 0.11592 0.0
C5199 C 0.37464 0.7587 0.10265 0.0
C5200 C 0.35033 0.75899 0.10553 0.0
C5201 C 0.38028 0.76054 0.07894 0.0
C5202 C 0.38369 0.73878 0.11263 0.0
C5203 C 0.39826 0.74447 0.12889 0.0
C5204 C 0.40911 0.7292 0.14037 0.0
C5205 C 0.40499 0.70748 0.13518 0.0
C5206 C 0.39 0.70096 0.1187 0.0
C5207 C 0.37921 0.71701 0.1073 0.0
H5208 H 0.70438 0.10205 0.37488 0.0
H5209 H 0.69017 0.14289 0.42865 0.0
H5210 H 0.72871 0.14779 0.43748 0.0
H5211 H 0.74796 0.07594 0.4011 0.0
H5212 H 0.76398 0.07488 0.37762 0.0
H5213 H 0.73521 0.07466 0.37489 0.0
H5214 H 0.7383 0.10764 0.35031 0.0
H5215 H 0.76708 0.10793 0.3529 0.0
H5216 H 0.75325 0.13148 0.35964 0.0
H5217 H 0.768 0.14852 0.44086 0.0
H5218 H 0.80652 0.14593 0.43884 0.0
H5219 H 0.79766 0.10391 0.3832 0.0
C5220 C 0.70936 0.11216 0.38844 0.0
C5221 C 0.69399 0.12218 0.40101 0.0
C5222 C 0.70138 0.13508 0.4187 0.0
C5223 C 0.72332 0.13794 0.42388 0.0
C5224 C 0.73789 0.12775 0.41133 0.0
C5225 C 0.73134 0.11513 0.39395 0.0
C5226 C 0.75063 0.10595 0.38334 0.0
C5227 C 0.74936 0.0814 0.38429 0.0
C5228 C 0.75242 0.11372 0.36017 0.0
C5229 C 0.76905 0.1155 0.39747 0.0
C5230 C 0.76106 0.12798 0.41345 0.0
C5231 C 0.77442 0.1388 0.42843 0.0
C5232 C 0.79651 0.13715 0.42706 0.0
C5233 C 0.80559 0.12468 0.41083 0.0
C5234 C 0.79146 0.11348 0.39589 0.0
H5235 H 0.34452 0.30041 0.83478 0.0
H5236 H 0.39388 0.3191 0.88244 0.0
H5237 H 0.39823 0.28106 0.89078 0.0
H5238 H 0.32044 0.25671 0.86383 0.0
H5239 H 0.31513 0.23997 0.8405 0.0
H5240 H 0.3161 0.26864 0.83805 0.0
H5241 H 0.34515 0.26659 0.80946 0.0
H5242 H 0.3442 0.23791 0.81176 0.0
H5243 H 0.36929 0.25315 0.81564 0.0
H5244 H 0.39661 0.24055 0.89452 0.0
H5245 H 0.39003 0.20128 0.8924 0.0
H5246 H 0.34208 0.20899 0.84199 0.0
C5247 C 0.35633 0.29655 0.84691 0.0
C5248 C 0.36888 0.3129 0.8579 0.0
C5249 C 0.38411 0.30699 0.87369 0.0
C5250 C 0.38668 0.28537 0.87859 0.0
C5251 C 0.37396 0.26969 0.86755 0.0
C5252 C 0.35917 0.27502 0.85195 0.0
C5253 C 0.34751 0.25513 0.8424 0.0
C5254 C 0.32336 0.25512 0.84644 0.0
C5255 C 0.3518 0.25308 0.81839 0.0
C5256 C 0.35799 0.23777 0.85509 0.0
C5257 C 0.37317 0.24649 0.86957 0.0
C5258 C 0.38479 0.23358 0.88319 0.0
C5259 C 0.3809 0.21125 0.8819 0.0
C5260 C 0.36554 0.2019 0.86704 0.0
C5261 C 0.35396 0.21551 0.85352 0.0
H5262 H 0.21525 0.8841 0.42816 0.0
H5263 H 0.19705 0.93076 0.38099 0.0
H5264 H 0.23465 0.93512 0.37018 0.0
H5265 H 0.26634 0.91176 0.44376 0.0
H5266 H 0.28004 0.88743 0.44761 0.0
H5267 H 0.25164 0.88769 0.45168 0.0
H5268 H 0.24512 0.85653 0.42448 0.0
H5269 H 0.27347 0.85624 0.42019 0.0
H5270 H 0.25514 0.85931 0.39783 0.0
H5271 H 0.27327 0.93296 0.36287 0.0
H5272 H 0.31153 0.92794 0.3616 0.0
H5273 H 0.30713 0.88449 0.41541 0.0
C5274 C 0.21915 0.8953 0.41558 0.0
C5275 C 0.20293 0.90696 0.40527 0.0
C5276 C 0.20893 0.92158 0.38908 0.0
C5277 C 0.23032 0.92413 0.3828 0.0
C5278 C 0.24574 0.91222 0.39306 0.0
C5279 C 0.24057 0.89835 0.40934 0.0
C5280 C 0.26054 0.88797 0.41804 0.0
C5281 C 0.26489 0.89408 0.44168 0.0
C5282 C 0.25843 0.86356 0.41495 0.0
C5283 C 0.27772 0.89801 0.40387 0.0
C5284 C 0.26858 0.91177 0.3895 0.0
C5285 C 0.28062 0.92246 0.37423 0.0
C5286 C 0.30257 0.91938 0.37369 0.0
C5287 C 0.31286 0.90591 0.38856 0.0
C5288 C 0.30003 0.89498 0.40387 0.0
H5289 H 0.63857 0.69833 0.86128 0.0
H5290 H 0.6869 0.69454 0.91213 0.0
H5291 H 0.6907 0.73365 0.9141 0.0
H5292 H 0.6631 0.7449 0.83525 0.0
H5293 H 0.6381 0.75677 0.82899 0.0
H5294 H 0.63896 0.72815 0.83111 0.0
H5295 H 0.60962 0.72799 0.85951 0.0
H5296 H 0.60868 0.75662 0.85749 0.0
H5297 H 0.61367 0.74461 0.88311 0.0
H5298 H 0.68982 0.77319 0.91107 0.0
H5299 H 0.68365 0.81092 0.90336 0.0
H5300 H 0.63565 0.79069 0.85482 0.0
C5301 C 0.64997 0.70575 0.87277 0.0
C5302 C 0.66245 0.69308 0.88649 0.0
C5303 C 0.6771 0.70361 0.90137 0.0
C5304 C 0.67944 0.72596 0.90265 0.0
C5305 C 0.66699 0.73793 0.88902 0.0
C5306 C 0.65248 0.72831 0.87438 0.0
C5307 C 0.641 0.74527 0.86185 0.0
C5308 C 0.64557 0.74367 0.83788 0.0
C5309 C 0.6168 0.74351 0.86573 0.0
C5310 C 0.65139 0.76575 0.87176 0.0
C5311 C 0.66637 0.76104 0.88738 0.0
C5312 C 0.67812 0.77709 0.89886 0.0
C5313 C 0.6745 0.79855 0.89434 0.0
C5314 C 0.6592 0.80398 0.87845 0.0
C5315 C 0.64751 0.78721 0.86704 0.0
H5316 H 0.8916 0.61889 0.81339 0.0
H5317 H 0.87778 0.68523 0.82338 0.0
H5318 H 0.87562 0.6903 0.78403 0.0
H5319 H 0.92605 0.62894 0.76842 0.0
H5320 H 0.91757 0.6042 0.75504 0.0
H5321 H 0.91726 0.60603 0.78379 0.0
H5322 H 0.87712 0.59352 0.78277 0.0
H5323 H 0.8772 0.59189 0.754 0.0
H5324 H 0.85834 0.60809 0.76702 0.0
H5325 H 0.87264 0.68697 0.74293 0.0
H5326 H 0.8752 0.67744 0.70447 0.0
H5327 H 0.89452 0.6144 0.72205 0.0
C5328 C 0.88819 0.63451 0.80727 0.0
C5329 C 0.8847 0.65166 0.82137 0.0
C5330 C 0.88057 0.67193 0.81282 0.0
C5331 C 0.87916 0.67488 0.79051 0.0
C5332 C 0.88239 0.65751 0.777 0.0
C5333 C 0.88733 0.63786 0.78514 0.0
C5334 C 0.89128 0.62204 0.76738 0.0
C5335 C 0.91442 0.61489 0.76874 0.0
C5336 C 0.87501 0.60275 0.76783 0.0
C5337 C 0.88758 0.63573 0.7479 0.0
C5338 C 0.88206 0.65603 0.75369 0.0
C5339 C 0.87718 0.67119 0.73828 0.0
C5340 C 0.8785 0.66562 0.71648 0.0
C5341 C 0.88511 0.64525 0.71033 0.0
C5342 C 0.88952 0.63015 0.72631 0.0
H5343 H 0.87765 0.40705 0.31286 0.0
H5344 H 0.93006 0.36413 0.3149 0.0
H5345 H 0.93161 0.36481 0.27601 0.0
H5346 H 0.85177 0.38353 0.26483 0.0
H5347 H 0.84398 0.40861 0.25396 0.0
H5348 H 0.84689 0.40554 0.28249 0.0
H5349 H 0.8738 0.43842 0.28438 0.0
H5350 H 0.87098 0.44155 0.25584 0.0
H5351 H 0.89713 0.4389 0.26804 0.0
H5352 H 0.92831 0.36959 0.23676 0.0
H5353 H 0.91922 0.37783 0.19924 0.0
H5354 H 0.86846 0.41693 0.22071 0.0
C5355 C 0.88946 0.39786 0.30513 0.0
C5356 C 0.90372 0.38558 0.31738 0.0
C5357 C 0.91885 0.37373 0.30632 0.0
C5358 C 0.91996 0.37397 0.28402 0.0
C5359 C 0.90579 0.38605 0.27249 0.0
C5360 C 0.89075 0.39776 0.28252 0.0
C5361 C 0.87724 0.40901 0.26587 0.0
C5362 C 0.85356 0.4012 0.26685 0.0
C5363 C 0.87995 0.43342 0.26871 0.0
C5364 C 0.88712 0.40172 0.24515 0.0
C5365 C 0.90363 0.38856 0.24946 0.0
C5366 C 0.91535 0.37986 0.23314 0.0
C5367 C 0.91006 0.38465 0.2118 0.0
C5368 C 0.89306 0.39795 0.20676 0.0
C5369 C 0.88151 0.4066 0.22384 0.0
H5370 H 0.13411 0.41421 0.79527 0.0
H5371 H 0.08677 0.36477 0.8133 0.0
H5372 H 0.07992 0.35566 0.77521 0.0
H5373 H 0.10517 0.43147 0.74818 0.0
H5374 H 0.1288 0.43634 0.73268 0.0
H5375 H 0.13047 0.4389 0.76142 0.0
H5376 H 0.16024 0.41179 0.76279 0.0
H5377 H 0.15863 0.40909 0.73407 0.0
H5378 H 0.15532 0.38575 0.75057 0.0
H5379 H 0.07821 0.35149 0.73561 0.0
H5380 H 0.08043 0.35291 0.69674 0.0
H5381 H 0.12838 0.40573 0.7026 0.0
C5382 C 0.12234 0.40139 0.79126 0.0
C5383 C 0.11107 0.39012 0.80754 0.0
C5384 C 0.09568 0.37363 0.80137 0.0
C5385 C 0.09168 0.36832 0.77969 0.0
C5386 C 0.10306 0.37968 0.76417 0.0
C5387 C 0.11801 0.39595 0.76959 0.0
C5388 C 0.12767 0.40582 0.74955 0.0
C5389 C 0.12273 0.42954 0.74786 0.0
C5390 C 0.15191 0.40294 0.74923 0.0
C5391 C 0.11584 0.39248 0.732 0.0
C5392 C 0.10181 0.37749 0.74098 0.0
C5393 C 0.0891 0.36319 0.72843 0.0
C5394 C 0.09056 0.36419 0.70616 0.0
C5395 C 0.10461 0.37948 0.69618 0.0
C5396 C 0.11749 0.39383 0.70949 0.0
H5397 H 0.14071 0.61618 0.31305 0.0
H5398 H 0.09327 0.66435 0.31668 0.0
H5399 H 0.09335 0.66821 0.27807 0.0
H5400 H 0.17063 0.64157 0.27032 0.0
H5401 H 0.17584 0.61703 0.2566 0.0
H5402 H 0.17224 0.61709 0.2851 0.0
H5403 H 0.14185 0.58757 0.28056 0.0
H5404 H 0.14539 0.58741 0.25204 0.0
H5405 H 0.11946 0.59181 0.26263 0.0
H5406 H 0.09819 0.66829 0.23933 0.0
H5407 H 0.10749 0.6636 0.20168 0.0
H5408 H 0.15175 0.61552 0.22042 0.0
C5409 C 0.13029 0.62743 0.30569 0.0
C5410 C 0.11704 0.63993 0.31841 0.0
C5411 C 0.10371 0.65451 0.30783 0.0
C5412 C 0.10356 0.65691 0.28565 0.0
C5413 C 0.11679 0.64468 0.27371 0.0
C5414 C 0.12991 0.63015 0.28316 0.0
C5415 C 0.14258 0.61928 0.26601 0.0
C5416 C 0.16676 0.62403 0.26973 0.0
C5417 C 0.13699 0.59508 0.26527 0.0
C5418 C 0.13448 0.63011 0.24575 0.0
C5419 C 0.11961 0.64469 0.25076 0.0
C5420 C 0.10981 0.65688 0.23513 0.0
C5421 C 0.11524 0.65411 0.21371 0.0
C5422 C 0.13038 0.63924 0.20788 0.0
C5423 C 0.14013 0.62707 0.22425 0.0
loop_
_geom_bond_atom_site_label_1
_geom_bond_atom_site_label_2
_geom_bond_distance
_geom_bond_site_symmetry_2
_ccdc_geom_bond_type
Co0 O2 2.143 . S
Co0 O8 2.074 . S
Co0 O11 2.093 . S
Co0 O24 2.097 . S
Co0 N41 2.151 . S
Co0 N49 2.214 . S
Co1 O2 2.160 . S
Co1 O7 2.058 . S
Co1 O17 2.057 . S
Co1 O32 2.037 . S
Co1 N36 2.145 . S
Co1 N57 2.257 . S
O2 Co0 2.143 . S
O2 Co1 2.160 . S
C3 O4 1.278 . S
C3 O11 1.224 . S
O4 C3 1.278 . S
C5 O6 1.245 . S
C5 O17 1.232 . S
O6 C5 1.245 . S
O7 Co1 2.058 . S
O7 C33 1.269 . S
O8 Co0 2.074 . S
O8 C33 1.257 . S
H9 C34 0.930 . S
H10 C40 0.930 . S
O11 Co0 2.093 . S
O11 C3 1.224 . S
H12 C44 0.929 . S
H13 C46 0.930 . S
H14 C47 0.930 . S
H15 C45 0.929 . S
H16 C48 0.928 . S
O17 Co1 2.057 . S
O17 C5 1.232 . S
H18 C37 0.929 . S
H19 C38 0.929 . S
H20 C50 0.931 . S
H21 C42 0.929 . S
H22 C51 0.930 . S
H23 C43 0.931 . S
O24 Co0 2.097 . S
O24 C52 1.214 . S
H25 C53 0.929 . S
H26 C54 0.929 . S
H27 C55 0.930 . S
H28 C56 0.929 . S
H29 C58 0.930 . S
H30 C35 0.930 . S
H31 C39 0.930 . S
O32 Co1 2.037 . S
O32 C52 1.234 . S
C33 O7 1.269 . S
C33 O8 1.257 . S
C34 H9 0.930 . S
C34 C37 1.388 . S
C34 C39 1.418 . S
C35 H30 0.930 . S
C35 C38 1.404 . S
C35 C39 1.353 . S
N36 Co1 2.145 . S
N36 C37 1.397 . S
N36 C38 1.334 . S
C37 H18 0.929 . S
C37 C34 1.388 . S
C37 N36 1.397 . S
C38 H19 0.929 . S
C38 C35 1.404 . S
C38 N36 1.334 . S
C39 H31 0.930 . S
C39 C34 1.418 . S
C39 C35 1.353 . S
C40 H10 0.930 . S
C40 N41 1.330 . S
C40 C42 1.446 . S
N41 Co0 2.151 . S
N41 C40 1.330 . S
N41 C45 1.418 . S
C42 H21 0.929 . S
C42 C40 1.446 . S
C42 C43 1.332 . S
C43 H23 0.931 . S
C43 C42 1.332 . S
C43 C44 1.267 . S
C44 H12 0.929 . S
C44 C43 1.267 . S
C44 C45 1.251 . S
C45 H15 0.929 . S
C45 N41 1.418 . S
C45 C44 1.251 . S
C46 H13 0.930 . S
C46 C48 1.406 . S
C46 C51 1.261 . S
C47 H14 0.930 . S
C47 N49 1.325 . S
C47 C50 1.357 . S
C48 H16 0.928 . S
C48 C46 1.406 . S
C48 N49 1.261 . S
N49 Co0 2.214 . S
N49 C47 1.325 . S
N49 C48 1.261 . S
C50 H20 0.931 . S
C50 C47 1.357 . S
C50 C51 1.312 . S
C51 H22 0.930 . S
C51 C46 1.261 . S
C51 C50 1.312 . S
C52 O24 1.214 . S
C52 O32 1.234 . S
C53 H25 0.929 . S
C53 C56 1.391 . S
C53 C58 1.391 . S
C54 H26 0.929 . S
C54 C55 1.390 . S
C54 N57 1.391 . S
C55 H27 0.930 . S
C55 C54 1.390 . S
C55 C56 1.392 . S
C56 H28 0.929 . S
C56 C53 1.391 . S
C56 C55 1.392 . S
N57 Co1 2.257 . S
N57 C54 1.391 . S
N57 C58 1.388 . S
C58 H29 0.930 . S
C58 C53 1.391 . S
C58 N57 1.388 . S
Co59 O61 2.143 . S
Co59 O67 2.074 . S
Co59 O70 2.093 . S
Co59 O83 2.097 . S
Co59 N100 2.151 . S
Co59 N108 2.214 . S
Co60 O61 2.160 . S
Co60 O66 2.058 . S
Co60 O76 2.057 . S
Co60 O91 2.037 . S
Co60 N95 2.145 . S
Co60 N116 2.257 . S
O61 Co59 2.143 . S
O61 Co60 2.160 . S
C62 O63 1.278 . S
C62 O70 1.224 . S
O63 C62 1.278 . S
C64 O65 1.245 . S
C64 O76 1.232 . S
O65 C64 1.245 . S
O66 Co60 2.058 . S
O66 C92 1.269 . S
O67 Co59 2.074 . S
O67 C92 1.257 . S
H68 C93 0.930 . S
H69 C99 0.930 . S
O70 Co59 2.093 . S
O70 C62 1.224 . S
H71 C103 0.929 . S
H72 C105 0.930 . S
H73 C106 0.930 . S
H74 C104 0.929 . S
H75 C107 0.928 . S
O76 Co60 2.057 . S
O76 C64 1.232 . S
H77 C96 0.929 . S
H78 C97 0.929 . S
H79 C109 0.931 . S
H80 C101 0.929 . S
H81 C110 0.930 . S
H82 C102 0.931 . S
O83 Co59 2.097 . S
O83 C111 1.214 . S
H84 C112 0.929 . S
H85 C113 0.929 . S
H86 C114 0.930 . S
H87 C115 0.929 . S
H88 C117 0.930 . S
H89 C94 0.930 . S
H90 C98 0.930 . S
O91 Co60 2.037 . S
O91 C111 1.234 . S
C92 O66 1.269 . S
C92 O67 1.257 . S
C93 H68 0.930 . S
C93 C96 1.388 . S
C93 C98 1.418 . S
C94 H89 0.930 . S
C94 C97 1.404 . S
C94 C98 1.353 . S
N95 Co60 2.145 . S
N95 C96 1.397 . S
N95 C97 1.334 . S
C96 H77 0.929 . S
C96 C93 1.388 . S
C96 N95 1.397 . S
C97 H78 0.929 . S
C97 C94 1.404 . S
C97 N95 1.334 . S
C98 H90 0.930 . S
C98 C93 1.418 . S
C98 C94 1.353 . S
C99 H69 0.930 . S
C99 N100 1.330 . S
C99 C101 1.446 . S
N100 Co59 2.151 . S
N100 C99 1.330 . S
N100 C104 1.418 . S
C101 H80 0.929 . S
C101 C99 1.446 . S
C101 C102 1.332 . S
C102 H82 0.931 . S
C102 C101 1.332 . S
C102 C103 1.267 . S
C103 H71 0.929 . S
C103 C102 1.267 . S
C103 C104 1.251 . S
C104 H74 0.929 . S
C104 N100 1.418 . S
C104 C103 1.251 . S
C105 H72 0.930 . S
C105 C107 1.406 . S
C105 C110 1.261 . S
C106 H73 0.930 . S
C106 N108 1.325 . S
C106 C109 1.357 . S
C107 H75 0.928 . S
C107 C105 1.406 . S
C107 N108 1.261 . S
N108 Co59 2.214 . S
N108 C106 1.325 . S
N108 C107 1.261 . S
C109 H79 0.931 . S
C109 C106 1.357 . S
C109 C110 1.312 . S
C110 H81 0.930 . S
C110 C105 1.261 . S
C110 C109 1.312 . S
C111 O83 1.214 . S
C111 O91 1.234 . S
C112 H84 0.929 . S
C112 C115 1.391 . S
C112 C117 1.391 . S
C113 H85 0.929 . S
C113 C114 1.390 . S
C113 N116 1.391 . S
C114 H86 0.930 . S
C114 C113 1.390 . S
C114 C115 1.392 . S
C115 H87 0.929 . S
C115 C112 1.391 . S
C115 C114 1.392 . S
N116 Co60 2.257 . S
N116 C113 1.391 . S
N116 C117 1.388 . S
C117 H88 0.930 . S
C117 C112 1.391 . S
C117 N116 1.388 . S
Co118 O120 2.143 . S
Co118 O126 2.074 . S
Co118 O129 2.093 . S
Co118 O142 2.097 . S
Co118 N159 2.151 . S
Co118 N167 2.214 . S
Co119 O120 2.160 . S
Co119 O125 2.058 . S
Co119 O135 2.057 . S
Co119 O150 2.037 . S
Co119 N154 2.145 . S
Co119 N175 2.257 . S
O120 Co118 2.143 . S
O120 Co119 2.160 . S
C121 O122 1.278 . S
C121 O129 1.224 . S
O122 C121 1.278 . S
C123 O124 1.245 . S
C123 O135 1.232 . S
O124 C123 1.245 . S
O125 Co119 2.058 . S
O125 C151 1.269 . S
O126 Co118 2.074 . S
O126 C151 1.257 . S
H127 C152 0.930 . S
H128 C158 0.930 . S
O129 Co118 2.093 . S
O129 C121 1.224 . S
H130 C162 0.929 . S
H131 C164 0.930 . S
H132 C165 0.930 . S
H133 C163 0.929 . S
H134 C166 0.928 . S
O135 Co119 2.057 . S
O135 C123 1.232 . S
H136 C155 0.929 . S
H137 C156 0.929 . S
H138 C168 0.931 . S
H139 C160 0.929 . S
H140 C169 0.930 . S
H141 C161 0.931 . S
O142 Co118 2.097 . S
O142 C170 1.214 . S
H143 C171 0.929 . S
H144 C172 0.929 . S
H145 C173 0.930 . S
H146 C174 0.929 . S
H147 C176 0.930 . S
H148 C153 0.930 . S
H149 C157 0.930 . S
O150 Co119 2.037 . S
O150 C170 1.234 . S
C151 O125 1.269 . S
C151 O126 1.257 . S
C152 H127 0.930 . S
C152 C155 1.388 . S
C152 C157 1.418 . S
C153 H148 0.930 . S
C153 C156 1.404 . S
C153 C157 1.353 . S
N154 Co119 2.145 . S
N154 C155 1.397 . S
N154 C156 1.334 . S
C155 H136 0.929 . S
C155 C152 1.388 . S
C155 N154 1.397 . S
C156 H137 0.929 . S
C156 C153 1.404 . S
C156 N154 1.334 . S
C157 H149 0.930 . S
C157 C152 1.418 . S
C157 C153 1.353 . S
C158 H128 0.930 . S
C158 N159 1.330 . S
C158 C160 1.446 . S
N159 Co118 2.151 . S
N159 C158 1.330 . S
N159 C163 1.418 . S
C160 H139 0.929 . S
C160 C158 1.446 . S
C160 C161 1.332 . S
C161 H141 0.931 . S
C161 C160 1.332 . S
C161 C162 1.267 . S
C162 H130 0.929 . S
C162 C161 1.267 . S
C162 C163 1.251 . S
C163 H133 0.929 . S
C163 N159 1.418 . S
C163 C162 1.251 . S
C164 H131 0.930 . S
C164 C166 1.406 . S
C164 C169 1.261 . S
C165 H132 0.930 . S
C165 N167 1.325 . S
C165 C168 1.357 . S
C166 H134 0.928 . S
C166 C164 1.406 . S
C166 N167 1.261 . S
N167 Co118 2.214 . S
N167 C165 1.325 . S
N167 C166 1.261 . S
C168 H138 0.931 . S
C168 C165 1.357 . S
C168 C169 1.312 . S
C169 H140 0.930 . S
C169 C164 1.261 . S
C169 C168 1.312 . S
C170 O142 1.214 . S
C170 O150 1.234 . S
C171 H143 0.929 . S
C171 C174 1.391 . S
C171 C176 1.391 . S
C172 H144 0.929 . S
C172 C173 1.390 . S
C172 N175 1.391 . S
C173 H145 0.930 . S
C173 C172 1.390 . S
C173 C174 1.392 . S
C174 H146 0.929 . S
C174 C171 1.391 . S
C174 C173 1.392 . S
N175 Co119 2.257 . S
N175 C172 1.391 . S
N175 C176 1.388 . S
C176 H147 0.930 . S
C176 C171 1.391 . S
C176 N175 1.388 . S
Co177 O179 2.143 . S
Co177 O185 2.074 . S
Co177 O188 2.093 . S
Co177 O201 2.097 . S
Co177 N218 2.151 . S
Co177 N226 2.214 . S
Co178 O179 2.160 . S
Co178 O184 2.058 . S
Co178 O194 2.057 . S
Co178 O209 2.037 . S
Co178 N213 2.145 . S
Co178 N234 2.257 . S
O179 Co177 2.143 . S
O179 Co178 2.160 . S
C180 O181 1.278 . S
C180 O188 1.224 . S
O181 C180 1.278 . S
C182 O183 1.245 . S
C182 O194 1.232 . S
O183 C182 1.245 . S
O184 Co178 2.058 . S
O184 C210 1.269 . S
O185 Co177 2.074 . S
O185 C210 1.257 . S
H186 C211 0.930 . S
H187 C217 0.930 . S
O188 Co177 2.093 . S
O188 C180 1.224 . S
H189 C221 0.929 . S
H190 C223 0.930 . S
H191 C224 0.930 . S
H192 C222 0.929 . S
H193 C225 0.928 . S
O194 Co178 2.057 . S
O194 C182 1.232 . S
H195 C214 0.929 . S
H196 C215 0.929 . S
H197 C227 0.931 . S
H198 C219 0.929 . S
H199 C228 0.930 . S
H200 C220 0.931 . S
O201 Co177 2.097 . S
O201 C229 1.214 . S
H202 C230 0.929 . S
H203 C231 0.929 . S
H204 C232 0.930 . S
H205 C233 0.929 . S
H206 C235 0.930 . S
H207 C212 0.930 . S
H208 C216 0.930 . S
O209 Co178 2.037 . S
O209 C229 1.234 . S
C210 O184 1.269 . S
C210 O185 1.257 . S
C211 H186 0.930 . S
C211 C214 1.388 . S
C211 C216 1.418 . S
C212 H207 0.930 . S
C212 C215 1.404 . S
C212 C216 1.353 . S
N213 Co178 2.145 . S
N213 C214 1.397 . S
N213 C215 1.334 . S
C214 H195 0.929 . S
C214 C211 1.388 . S
C214 N213 1.397 . S
C215 H196 0.929 . S
C215 C212 1.404 . S
C215 N213 1.334 . S
C216 H208 0.930 . S
C216 C211 1.418 . S
C216 C212 1.353 . S
C217 H187 0.930 . S
C217 N218 1.330 . S
C217 C219 1.446 . S
N218 Co177 2.151 . S
N218 C217 1.330 . S
N218 C222 1.418 . S
C219 H198 0.929 . S
C219 C217 1.446 . S
C219 C220 1.332 . S
C220 H200 0.931 . S
C220 C219 1.332 . S
C220 C221 1.267 . S
C221 H189 0.929 . S
C221 C220 1.267 . S
C221 C222 1.251 . S
C222 H192 0.929 . S
C222 N218 1.418 . S
C222 C221 1.251 . S
C223 H190 0.930 . S
C223 C225 1.406 . S
C223 C228 1.261 . S
C224 H191 0.930 . S
C224 N226 1.325 . S
C224 C227 1.357 . S
C225 H193 0.928 . S
C225 C223 1.406 . S
C225 N226 1.261 . S
N226 Co177 2.214 . S
N226 C224 1.325 . S
N226 C225 1.261 . S
C227 H197 0.931 . S
C227 C224 1.357 . S
C227 C228 1.312 . S
C228 H199 0.930 . S
C228 C223 1.261 . S
C228 C227 1.312 . S
C229 O201 1.214 . S
C229 O209 1.234 . S
C230 H202 0.929 . S
C230 C233 1.391 . S
C230 C235 1.391 . S
C231 H203 0.929 . S
C231 C232 1.390 . S
C231 N234 1.391 . S
C232 H204 0.930 . S
C232 C231 1.390 . S
C232 C233 1.392 . S
C233 H205 0.929 . S
C233 C230 1.391 . S
C233 C232 1.392 . S
N234 Co178 2.257 . S
N234 C231 1.391 . S
N234 C235 1.388 . S
C235 H206 0.930 . S
C235 C230 1.391 . S
C235 N234 1.388 . S
Co236 O238 2.143 . S
Co236 O244 2.074 . S
Co236 O247 2.093 . S
Co236 O260 2.097 . S
Co236 N277 2.151 . S
Co236 N285 2.214 . S
Co237 O238 2.160 . S
Co237 O243 2.058 . S
Co237 O253 2.057 . S
Co237 O268 2.037 . S
Co237 N272 2.145 . S
Co237 N293 2.257 . S
O238 Co236 2.143 . S
O238 Co237 2.160 . S
C239 O240 1.278 . S
C239 O247 1.224 . S
O240 C239 1.278 . S
C241 O242 1.245 . S
C241 O253 1.232 . S
O242 C241 1.245 . S
O243 Co237 2.058 . S
O243 C269 1.269 . S
O244 Co236 2.074 . S
O244 C269 1.257 . S
H245 C270 0.930 . S
H246 C276 0.930 . S
O247 Co236 2.093 . S
O247 C239 1.224 . S
H248 C280 0.929 . S
H249 C282 0.930 . S
H250 C283 0.930 . S
H251 C281 0.929 . S
H252 C284 0.928 . S
O253 Co237 2.057 . S
O253 C241 1.232 . S
H254 C273 0.929 . S
H255 C274 0.929 . S
H256 C286 0.931 . S
H257 C278 0.929 . S
H258 C287 0.930 . S
H259 C279 0.931 . S
O260 Co236 2.097 . S
O260 C288 1.214 . S
H261 C289 0.929 . S
H262 C290 0.929 . S
H263 C291 0.930 . S
H264 C292 0.929 . S
H265 C294 0.930 . S
H266 C271 0.930 . S
H267 C275 0.930 . S
O268 Co237 2.037 . S
O268 C288 1.234 . S
C269 O243 1.269 . S
C269 O244 1.257 . S
C270 H245 0.930 . S
C270 C273 1.388 . S
C270 C275 1.418 . S
C271 H266 0.930 . S
C271 C274 1.404 . S
C271 C275 1.353 . S
N272 Co237 2.145 . S
N272 C273 1.397 . S
N272 C274 1.334 . S
C273 H254 0.929 . S
C273 C270 1.388 . S
C273 N272 1.397 . S
C274 H255 0.929 . S
C274 C271 1.404 . S
C274 N272 1.334 . S
C275 H267 0.930 . S
C275 C270 1.418 . S
C275 C271 1.353 . S
C276 H246 0.930 . S
C276 N277 1.330 . S
C276 C278 1.446 . S
N277 Co236 2.151 . S
N277 C276 1.330 . S
N277 C281 1.418 . S
C278 H257 0.929 . S
C278 C276 1.446 . S
C278 C279 1.332 . S
C279 H259 0.931 . S
C279 C278 1.332 . S
C279 C280 1.267 . S
C280 H248 0.929 . S
C280 C279 1.267 . S
C280 C281 1.251 . S
C281 H251 0.929 . S
C281 N277 1.418 . S
C281 C280 1.251 . S
C282 H249 0.930 . S
C282 C284 1.406 . S
C282 C287 1.261 . S
C283 H250 0.930 . S
C283 N285 1.325 . S
C283 C286 1.357 . S
C284 H252 0.928 . S
C284 C282 1.406 . S
C284 N285 1.261 . S
N285 Co236 2.214 . S
N285 C283 1.325 . S
N285 C284 1.261 . S
C286 H256 0.931 . S
C286 C283 1.357 . S
C286 C287 1.312 . S
C287 H258 0.930 . S
C287 C282 1.261 . S
C287 C286 1.312 . S
C288 O260 1.214 . S
C288 O268 1.234 . S
C289 H261 0.929 . S
C289 C292 1.391 . S
C289 C294 1.391 . S
C290 H262 0.929 . S
C290 C291 1.390 . S
C290 N293 1.391 . S
C291 H263 0.930 . S
C291 C290 1.390 . S
C291 C292 1.392 . S
C292 H264 0.929 . S
C292 C289 1.391 . S
C292 C291 1.392 . S
N293 Co237 2.257 . S
N293 C290 1.391 . S
N293 C294 1.388 . S
C294 H265 0.930 . S
C294 C289 1.391 . S
C294 N293 1.388 . S
Co295 O297 2.143 . S
Co295 O303 2.074 . S
Co295 O306 2.093 . S
Co295 O319 2.097 . S
Co295 N336 2.151 . S
Co295 N344 2.214 . S
Co296 O297 2.160 . S
Co296 O302 2.058 . S
Co296 O312 2.057 . S
Co296 O327 2.037 . S
Co296 N331 2.145 . S
Co296 N352 2.257 . S
O297 Co295 2.143 . S
O297 Co296 2.160 . S
C298 O299 1.278 . S
C298 O306 1.224 . S
O299 C298 1.278 . S
C300 O301 1.245 . S
C300 O312 1.232 . S
O301 C300 1.245 . S
O302 Co296 2.058 . S
O302 C328 1.269 . S
O303 Co295 2.074 . S
O303 C328 1.257 . S
H304 C329 0.930 . S
H305 C335 0.930 . S
O306 Co295 2.093 . S
O306 C298 1.224 . S
H307 C339 0.929 . S
H308 C341 0.930 . S
H309 C342 0.930 . S
H310 C340 0.929 . S
H311 C343 0.928 . S
O312 Co296 2.057 . S
O312 C300 1.232 . S
H313 C332 0.929 . S
H314 C333 0.929 . S
H315 C345 0.931 . S
H316 C337 0.929 . S
H317 C346 0.930 . S
H318 C338 0.931 . S
O319 Co295 2.097 . S
O319 C347 1.214 . S
H320 C348 0.929 . S
H321 C349 0.929 . S
H322 C350 0.930 . S
H323 C351 0.929 . S
H324 C353 0.930 . S
H325 C330 0.930 . S
H326 C334 0.930 . S
O327 Co296 2.037 . S
O327 C347 1.234 . S
C328 O302 1.269 . S
C328 O303 1.257 . S
C329 H304 0.930 . S
C329 C332 1.388 . S
C329 C334 1.418 . S
C330 H325 0.930 . S
C330 C333 1.404 . S
C330 C334 1.353 . S
N331 Co296 2.145 . S
N331 C332 1.397 . S
N331 C333 1.334 . S
C332 H313 0.929 . S
C332 C329 1.388 . S
C332 N331 1.397 . S
C333 H314 0.929 . S
C333 C330 1.404 . S
C333 N331 1.334 . S
C334 H326 0.930 . S
C334 C329 1.418 . S
C334 C330 1.353 . S
C335 H305 0.930 . S
C335 N336 1.330 . S
C335 C337 1.446 . S
N336 Co295 2.151 . S
N336 C335 1.330 . S
N336 C340 1.418 . S
C337 H316 0.929 . S
C337 C335 1.446 . S
C337 C338 1.332 . S
C338 H318 0.931 . S
C338 C337 1.332 . S
C338 C339 1.267 . S
C339 H307 0.929 . S
C339 C338 1.267 . S
C339 C340 1.251 . S
C340 H310 0.929 . S
C340 N336 1.418 . S
C340 C339 1.251 . S
C341 H308 0.930 . S
C341 C343 1.406 . S
C341 C346 1.261 . S
C342 H309 0.930 . S
C342 N344 1.325 . S
C342 C345 1.357 . S
C343 H311 0.928 . S
C343 C341 1.406 . S
C343 N344 1.261 . S
N344 Co295 2.214 . S
N344 C342 1.325 . S
N344 C343 1.261 . S
C345 H315 0.931 . S
C345 C342 1.357 . S
C345 C346 1.312 . S
C346 H317 0.930 . S
C346 C341 1.261 . S
C346 C345 1.312 . S
C347 O319 1.214 . S
C347 O327 1.234 . S
C348 H320 0.929 . S
C348 C351 1.391 . S
C348 C353 1.391 . S
C349 H321 0.929 . S
C349 C350 1.390 . S
C349 N352 1.391 . S
C350 H322 0.930 . S
C350 C349 1.390 . S
C350 C351 1.392 . S
C351 H323 0.929 . S
C351 C348 1.391 . S
C351 C350 1.392 . S
N352 Co296 2.257 . S
N352 C349 1.391 . S
N352 C353 1.388 . S
C353 H324 0.930 . S
C353 C348 1.391 . S
C353 N352 1.388 . S
Co354 O356 2.143 . S
Co354 O362 2.074 . S
Co354 O365 2.093 . S
Co354 O378 2.097 . S
Co354 N395 2.151 . S
Co354 N403 2.214 . S
Co355 O356 2.160 . S
Co355 O361 2.058 . S
Co355 O371 2.057 . S
Co355 O386 2.037 . S
Co355 N390 2.145 . S
Co355 N411 2.257 . S
O356 Co354 2.143 . S
O356 Co355 2.160 . S
C357 O358 1.278 . S
C357 O365 1.224 . S
O358 C357 1.278 . S
C359 O360 1.245 . S
C359 O371 1.232 . S
O360 C359 1.245 . S
O361 Co355 2.058 . S
O361 C387 1.269 . S
O362 Co354 2.074 . S
O362 C387 1.257 . S
H363 C388 0.930 . S
H364 C394 0.930 . S
O365 Co354 2.093 . S
O365 C357 1.224 . S
H366 C398 0.929 . S
H367 C400 0.930 . S
H368 C401 0.930 . S
H369 C399 0.929 . S
H370 C402 0.928 . S
O371 Co355 2.057 . S
O371 C359 1.232 . S
H372 C391 0.929 . S
H373 C392 0.929 . S
H374 C404 0.931 . S
H375 C396 0.929 . S
H376 C405 0.930 . S
H377 C397 0.931 . S
O378 Co354 2.097 . S
O378 C406 1.214 . S
H379 C407 0.929 . S
H380 C408 0.929 . S
H381 C409 0.930 . S
H382 C410 0.929 . S
H383 C412 0.930 . S
H384 C389 0.930 . S
H385 C393 0.930 . S
O386 Co355 2.037 . S
O386 C406 1.234 . S
C387 O361 1.269 . S
C387 O362 1.257 . S
C388 H363 0.930 . S
C388 C391 1.388 . S
C388 C393 1.418 . S
C389 H384 0.930 . S
C389 C392 1.404 . S
C389 C393 1.353 . S
N390 Co355 2.145 . S
N390 C391 1.397 . S
N390 C392 1.334 . S
C391 H372 0.929 . S
C391 C388 1.388 . S
C391 N390 1.397 . S
C392 H373 0.929 . S
C392 C389 1.404 . S
C392 N390 1.334 . S
C393 H385 0.930 . S
C393 C388 1.418 . S
C393 C389 1.353 . S
C394 H364 0.930 . S
C394 N395 1.330 . S
C394 C396 1.446 . S
N395 Co354 2.151 . S
N395 C394 1.330 . S
N395 C399 1.418 . S
C396 H375 0.929 . S
C396 C394 1.446 . S
C396 C397 1.332 . S
C397 H377 0.931 . S
C397 C396 1.332 . S
C397 C398 1.267 . S
C398 H366 0.929 . S
C398 C397 1.267 . S
C398 C399 1.251 . S
C399 H369 0.929 . S
C399 N395 1.418 . S
C399 C398 1.251 . S
C400 H367 0.930 . S
C400 C402 1.406 . S
C400 C405 1.261 . S
C401 H368 0.930 . S
C401 N403 1.325 . S
C401 C404 1.357 . S
C402 H370 0.928 . S
C402 C400 1.406 . S
C402 N403 1.261 . S
N403 Co354 2.214 . S
N403 C401 1.325 . S
N403 C402 1.261 . S
C404 H374 0.931 . S
C404 C401 1.357 . S
C404 C405 1.312 . S
C405 H376 0.930 . S
C405 C400 1.261 . S
C405 C404 1.312 . S
C406 O378 1.214 . S
C406 O386 1.234 . S
C407 H379 0.929 . S
C407 C410 1.391 . S
C407 C412 1.391 . S
C408 H380 0.929 . S
C408 C409 1.390 . S
C408 N411 1.391 . S
C409 H381 0.930 . S
C409 C408 1.390 . S
C409 C410 1.392 . S
C410 H382 0.929 . S
C410 C407 1.391 . S
C410 C409 1.392 . S
N411 Co355 2.257 . S
N411 C408 1.391 . S
N411 C412 1.388 . S
C412 H383 0.930 . S
C412 C407 1.391 . S
C412 N411 1.388 . S
Co413 O415 2.143 . S
Co413 O421 2.074 . S
Co413 O424 2.093 . S
Co413 O437 2.097 . S
Co413 N454 2.151 . S
Co413 N462 2.214 . S
Co414 O415 2.160 . S
Co414 O420 2.058 . S
Co414 O430 2.057 . S
Co414 O445 2.037 . S
Co414 N449 2.145 . S
Co414 N470 2.257 . S
O415 Co413 2.143 . S
O415 Co414 2.160 . S
C416 O417 1.278 . S
C416 O424 1.224 . S
O417 C416 1.278 . S
C418 O419 1.245 . S
C418 O430 1.232 . S
O419 C418 1.245 . S
O420 Co414 2.058 . S
O420 C446 1.269 . S
O421 Co413 2.074 . S
O421 C446 1.257 . S
H422 C447 0.930 . S
H423 C453 0.930 . S
O424 Co413 2.093 . S
O424 C416 1.224 . S
H425 C457 0.929 . S
H426 C459 0.930 . S
H427 C460 0.930 . S
H428 C458 0.929 . S
H429 C461 0.928 . S
O430 Co414 2.057 . S
O430 C418 1.232 . S
H431 C450 0.929 . S
H432 C451 0.929 . S
H433 C463 0.931 . S
H434 C455 0.929 . S
H435 C464 0.930 . S
H436 C456 0.931 . S
O437 Co413 2.097 . S
O437 C465 1.214 . S
H438 C466 0.929 . S
H439 C467 0.929 . S
H440 C468 0.930 . S
H441 C469 0.929 . S
H442 C471 0.930 . S
H443 C448 0.930 . S
H444 C452 0.930 . S
O445 Co414 2.037 . S
O445 C465 1.234 . S
C446 O420 1.269 . S
C446 O421 1.257 . S
C447 H422 0.930 . S
C447 C450 1.388 . S
C447 C452 1.418 . S
C448 H443 0.930 . S
C448 C451 1.404 . S
C448 C452 1.353 . S
N449 Co414 2.145 . S
N449 C450 1.397 . S
N449 C451 1.334 . S
C450 H431 0.929 . S
C450 C447 1.388 . S
C450 N449 1.397 . S
C451 H432 0.929 . S
C451 C448 1.404 . S
C451 N449 1.334 . S
C452 H444 0.930 . S
C452 C447 1.418 . S
C452 C448 1.353 . S
C453 H423 0.930 . S
C453 N454 1.330 . S
C453 C455 1.446 . S
N454 Co413 2.151 . S
N454 C453 1.330 . S
N454 C458 1.418 . S
C455 H434 0.929 . S
C455 C453 1.446 . S
C455 C456 1.332 . S
C456 H436 0.931 . S
C456 C455 1.332 . S
C456 C457 1.267 . S
C457 H425 0.929 . S
C457 C456 1.267 . S
C457 C458 1.251 . S
C458 H428 0.929 . S
C458 N454 1.418 . S
C458 C457 1.251 . S
C459 H426 0.930 . S
C459 C461 1.406 . S
C459 C464 1.261 . S
C460 H427 0.930 . S
C460 N462 1.325 . S
C460 C463 1.357 . S
C461 H429 0.928 . S
C461 C459 1.406 . S
C461 N462 1.261 . S
N462 Co413 2.214 . S
N462 C460 1.325 . S
N462 C461 1.261 . S
C463 H433 0.931 . S
C463 C460 1.357 . S
C463 C464 1.312 . S
C464 H435 0.930 . S
C464 C459 1.261 . S
C464 C463 1.312 . S
C465 O437 1.214 . S
C465 O445 1.234 . S
C466 H438 0.929 . S
C466 C469 1.391 . S
C466 C471 1.391 . S
C467 H439 0.929 . S
C467 C468 1.390 . S
C467 N470 1.391 . S
C468 H440 0.930 . S
C468 C467 1.390 . S
C468 C469 1.392 . S
C469 H441 0.929 . S
C469 C466 1.391 . S
C469 C468 1.392 . S
N470 Co414 2.257 . S
N470 C467 1.391 . S
N470 C471 1.388 . S
C471 H442 0.930 . S
C471 C466 1.391 . S
C471 N470 1.388 . S
Co472 O474 2.143 . S
Co472 O480 2.074 . S
Co472 O483 2.093 . S
Co472 O496 2.097 . S
Co472 N513 2.151 . S
Co472 N521 2.214 . S
Co473 O474 2.160 . S
Co473 O479 2.058 . S
Co473 O489 2.057 . S
Co473 O504 2.037 . S
Co473 N508 2.145 . S
Co473 N529 2.257 . S
O474 Co472 2.143 . S
O474 Co473 2.160 . S
C475 O476 1.278 . S
C475 O483 1.224 . S
O476 C475 1.278 . S
C477 O478 1.245 . S
C477 O489 1.232 . S
O478 C477 1.245 . S
O479 Co473 2.058 . S
O479 C505 1.269 . S
O480 Co472 2.074 . S
O480 C505 1.257 . S
H481 C506 0.930 . S
H482 C512 0.930 . S
O483 Co472 2.093 . S
O483 C475 1.224 . S
H484 C516 0.929 . S
H485 C518 0.930 . S
H486 C519 0.930 . S
H487 C517 0.929 . S
H488 C520 0.928 . S
O489 Co473 2.057 . S
O489 C477 1.232 . S
H490 C509 0.929 . S
H491 C510 0.929 . S
H492 C522 0.931 . S
H493 C514 0.929 . S
H494 C523 0.930 . S
H495 C515 0.931 . S
O496 Co472 2.097 . S
O496 C524 1.214 . S
H497 C525 0.929 . S
H498 C526 0.929 . S
H499 C527 0.930 . S
H500 C528 0.929 . S
H501 C530 0.930 . S
H502 C507 0.930 . S
H503 C511 0.931 1_556 S
O504 Co473 2.037 . S
O504 C524 1.234 . S
C505 O479 1.269 . S
C505 O480 1.257 . S
C506 H481 0.930 . S
C506 C509 1.388 . S
C506 C511 1.418 . S
C507 H502 0.930 . S
C507 C510 1.404 . S
C507 C511 1.353 . S
N508 Co473 2.145 . S
N508 C509 1.397 . S
N508 C510 1.334 . S
C509 H490 0.929 . S
C509 C506 1.388 . S
C509 N508 1.397 . S
C510 H491 0.929 . S
C510 C507 1.404 . S
C510 N508 1.334 . S
C511 H503 0.931 1_554 S
C511 C506 1.418 . S
C511 C507 1.353 . S
C512 H482 0.930 . S
C512 N513 1.330 . S
C512 C514 1.446 . S
N513 Co472 2.151 . S
N513 C512 1.330 . S
N513 C517 1.418 . S
C514 H493 0.929 . S
C514 C512 1.446 . S
C514 C515 1.332 . S
C515 H495 0.931 . S
C515 C514 1.332 . S
C515 C516 1.267 . S
C516 H484 0.929 . S
C516 C515 1.267 . S
C516 C517 1.251 . S
C517 H487 0.929 . S
C517 N513 1.418 . S
C517 C516 1.251 . S
C518 H485 0.930 . S
C518 C520 1.406 . S
C518 C523 1.261 . S
C519 H486 0.930 . S
C519 N521 1.325 . S
C519 C522 1.357 . S
C520 H488 0.928 . S
C520 C518 1.406 . S
C520 N521 1.261 . S
N521 Co472 2.214 . S
N521 C519 1.325 . S
N521 C520 1.261 . S
C522 H492 0.931 . S
C522 C519 1.357 . S
C522 C523 1.312 . S
C523 H494 0.930 . S
C523 C518 1.261 . S
C523 C522 1.312 . S
C524 O496 1.214 . S
C524 O504 1.234 . S
C525 H497 0.929 . S
C525 C528 1.391 . S
C525 C530 1.391 . S
C526 H498 0.929 . S
C526 C527 1.390 . S
C526 N529 1.391 . S
C527 H499 0.930 . S
C527 C526 1.390 . S
C527 C528 1.392 . S
C528 H500 0.929 . S
C528 C525 1.391 . S
C528 C527 1.392 . S
N529 Co473 2.257 . S
N529 C526 1.391 . S
N529 C530 1.388 . S
C530 H501 0.930 . S
C530 C525 1.391 . S
C530 N529 1.388 . S
Co531 O533 2.143 . S
Co531 O539 2.074 . S
Co531 O542 2.093 . S
Co531 O555 2.097 . S
Co531 N572 2.151 . S
Co531 N580 2.214 . S
Co532 O533 2.160 . S
Co532 O538 2.058 . S
Co532 O548 2.057 . S
Co532 O563 2.037 . S
Co532 N567 2.145 . S
Co532 N588 2.257 . S
O533 Co531 2.143 . S
O533 Co532 2.160 . S
C534 O535 1.278 . S
C534 O542 1.224 . S
O535 C534 1.278 . S
C536 O537 1.245 . S
C536 O548 1.232 . S
O537 C536 1.245 . S
O538 Co532 2.058 . S
O538 C564 1.269 . S
O539 Co531 2.074 . S
O539 C564 1.257 . S
H540 C565 0.930 . S
H541 C571 0.930 . S
O542 Co531 2.093 . S
O542 C534 1.224 . S
H543 C575 0.929 . S
H544 C577 0.930 . S
H545 C578 0.930 . S
H546 C576 0.929 . S
H547 C579 0.928 . S
O548 Co532 2.057 . S
O548 C536 1.232 . S
H549 C568 0.929 . S
H550 C569 0.929 . S
H551 C581 0.931 . S
H552 C573 0.929 . S
H553 C582 0.930 . S
H554 C574 0.931 . S
O555 Co531 2.097 . S
O555 C583 1.214 . S
H556 C584 0.929 . S
H557 C585 0.929 . S
H558 C586 0.930 . S
H559 C587 0.929 . S
H560 C589 0.930 . S
H561 C566 0.930 . S
H562 C570 0.930 . S
O563 Co532 2.037 . S
O563 C583 1.234 . S
C564 O538 1.269 . S
C564 O539 1.257 . S
C565 H540 0.930 . S
C565 C568 1.388 . S
C565 C570 1.418 . S
C566 H561 0.930 . S
C566 C569 1.404 . S
C566 C570 1.353 . S
N567 Co532 2.145 . S
N567 C568 1.397 . S
N567 C569 1.334 . S
C568 H549 0.929 . S
C568 C565 1.388 . S
C568 N567 1.397 . S
C569 H550 0.929 . S
C569 C566 1.404 . S
C569 N567 1.334 . S
C570 H562 0.930 . S
C570 C565 1.418 . S
C570 C566 1.353 . S
C571 H541 0.930 . S
C571 N572 1.330 . S
C571 C573 1.446 . S
N572 Co531 2.151 . S
N572 C571 1.330 . S
N572 C576 1.418 . S
C573 H552 0.929 . S
C573 C571 1.446 . S
C573 C574 1.332 . S
C574 H554 0.931 . S
C574 C573 1.332 . S
C574 C575 1.267 . S
C575 H543 0.929 . S
C575 C574 1.267 . S
C575 C576 1.251 . S
C576 H546 0.929 . S
C576 N572 1.418 . S
C576 C575 1.251 . S
C577 H544 0.930 . S
C577 C579 1.406 . S
C577 C582 1.261 . S
C578 H545 0.930 . S
C578 N580 1.325 . S
C578 C581 1.357 . S
C579 H547 0.928 . S
C579 C577 1.406 . S
C579 N580 1.261 . S
N580 Co531 2.214 . S
N580 C578 1.325 . S
N580 C579 1.261 . S
C581 H551 0.931 . S
C581 C578 1.357 . S
C581 C582 1.312 . S
C582 H553 0.930 . S
C582 C577 1.261 . S
C582 C581 1.312 . S
C583 O555 1.214 . S
C583 O563 1.234 . S
C584 H556 0.929 . S
C584 C587 1.391 . S
C584 C589 1.391 . S
C585 H557 0.929 . S
C585 C586 1.390 . S
C585 N588 1.391 . S
C586 H558 0.930 . S
C586 C585 1.390 . S
C586 C587 1.392 . S
C587 H559 0.929 . S
C587 C584 1.391 . S
C587 C586 1.392 . S
N588 Co532 2.257 . S
N588 C585 1.391 . S
N588 C589 1.388 . S
C589 H560 0.930 . S
C589 C584 1.391 . S
C589 N588 1.388 . S
Co590 O592 2.143 . S
Co590 O598 2.074 . S
Co590 O601 2.093 . S
Co590 O614 2.097 . S
Co590 N631 2.151 . S
Co590 N639 2.214 . S
Co591 O592 2.160 . S
Co591 O597 2.058 . S
Co591 O607 2.057 . S
Co591 O622 2.037 . S
Co591 N626 2.145 . S
Co591 N647 2.257 . S
O592 Co590 2.143 . S
O592 Co591 2.160 . S
C593 O594 1.278 . S
C593 O601 1.224 . S
O594 C593 1.278 . S
C595 O596 1.245 . S
C595 O607 1.232 . S
O596 C595 1.245 . S
O597 Co591 2.058 . S
O597 C623 1.269 . S
O598 Co590 2.074 . S
O598 C623 1.257 . S
H599 C624 0.930 . S
H600 C630 0.930 . S
O601 Co590 2.093 . S
O601 C593 1.224 . S
H602 C634 0.929 . S
H603 C636 0.930 . S
H604 C637 0.930 . S
H605 C635 0.929 . S
H606 C638 0.928 . S
O607 Co591 2.057 . S
O607 C595 1.232 . S
H608 C627 0.929 . S
H609 C628 0.929 . S
H610 C640 0.931 . S
H611 C632 0.929 . S
H612 C641 0.930 . S
H613 C633 0.931 . S
O614 Co590 2.097 . S
O614 C642 1.214 . S
H615 C643 0.929 . S
H616 C644 0.929 . S
H617 C645 0.930 . S
H618 C646 0.929 . S
H619 C648 0.930 . S
H620 C625 0.930 . S
H621 C629 0.930 . S
O622 Co591 2.037 . S
O622 C642 1.234 . S
C623 O597 1.269 . S
C623 O598 1.257 . S
C624 H599 0.930 . S
C624 C627 1.388 . S
C624 C629 1.418 . S
C625 H620 0.930 . S
C625 C628 1.404 . S
C625 C629 1.353 . S
N626 Co591 2.145 . S
N626 C627 1.397 . S
N626 C628 1.334 . S
C627 H608 0.929 . S
C627 C624 1.388 . S
C627 N626 1.397 . S
C628 H609 0.929 . S
C628 C625 1.404 . S
C628 N626 1.334 . S
C629 H621 0.930 . S
C629 C624 1.418 . S
C629 C625 1.353 . S
C630 H600 0.930 . S
C630 N631 1.330 . S
C630 C632 1.446 . S
N631 Co590 2.151 . S
N631 C630 1.330 . S
N631 C635 1.418 . S
C632 H611 0.929 . S
C632 C630 1.446 . S
C632 C633 1.332 . S
C633 H613 0.931 . S
C633 C632 1.332 . S
C633 C634 1.267 . S
C634 H602 0.929 . S
C634 C633 1.267 . S
C634 C635 1.251 . S
C635 H605 0.929 . S
C635 N631 1.418 . S
C635 C634 1.251 . S
C636 H603 0.930 . S
C636 C638 1.406 . S
C636 C641 1.261 . S
C637 H604 0.930 . S
C637 N639 1.325 . S
C637 C640 1.357 . S
C638 H606 0.928 . S
C638 C636 1.406 . S
C638 N639 1.261 . S
N639 Co590 2.214 . S
N639 C637 1.325 . S
N639 C638 1.261 . S
C640 H610 0.931 . S
C640 C637 1.357 . S
C640 C641 1.312 . S
C641 H612 0.930 . S
C641 C636 1.261 . S
C641 C640 1.312 . S
C642 O614 1.214 . S
C642 O622 1.234 . S
C643 H615 0.929 . S
C643 C646 1.391 . S
C643 C648 1.391 . S
C644 H616 0.929 . S
C644 C645 1.390 . S
C644 N647 1.391 . S
C645 H617 0.930 . S
C645 C644 1.390 . S
C645 C646 1.392 . S
C646 H618 0.929 . S
C646 C643 1.391 . S
C646 C645 1.392 . S
N647 Co591 2.257 . S
N647 C644 1.391 . S
N647 C648 1.388 . S
C648 H619 0.930 . S
C648 C643 1.391 . S
C648 N647 1.388 . S
Co649 O651 2.143 . S
Co649 O657 2.074 . S
Co649 O660 2.093 . S
Co649 O673 2.097 . S
Co649 N690 2.151 . S
Co649 N698 2.214 . S
Co650 O651 2.160 . S
Co650 O656 2.058 . S
Co650 O666 2.057 . S
Co650 O681 2.037 . S
Co650 N685 2.145 . S
Co650 N706 2.257 . S
O651 Co649 2.143 . S
O651 Co650 2.160 . S
C652 O653 1.278 . S
C652 O660 1.224 . S
O653 C652 1.278 . S
C654 O655 1.245 . S
C654 O666 1.232 . S
O655 C654 1.245 . S
O656 Co650 2.058 . S
O656 C682 1.269 . S
O657 Co649 2.074 . S
O657 C682 1.257 . S
H658 C683 0.930 . S
H659 C689 0.930 . S
O660 Co649 2.093 . S
O660 C652 1.224 . S
H661 C693 0.929 . S
H662 C695 0.930 . S
H663 C696 0.930 . S
H664 C694 0.929 . S
H665 C697 0.928 . S
O666 Co650 2.057 . S
O666 C654 1.232 . S
H667 C686 0.929 . S
H668 C687 0.929 . S
H669 C699 0.931 . S
H670 C691 0.929 . S
H671 C700 0.930 . S
H672 C692 0.931 . S
O673 Co649 2.097 . S
O673 C701 1.214 . S
H674 C702 0.929 . S
H675 C703 0.929 . S
H676 C704 0.930 . S
H677 C705 0.929 . S
H678 C707 0.930 . S
H679 C684 0.930 . S
H680 C688 0.930 . S
O681 Co650 2.037 . S
O681 C701 1.234 . S
C682 O656 1.269 . S
C682 O657 1.257 . S
C683 H658 0.930 . S
C683 C686 1.388 . S
C683 C688 1.418 . S
C684 H679 0.930 . S
C684 C687 1.404 . S
C684 C688 1.353 . S
N685 Co650 2.145 . S
N685 C686 1.397 . S
N685 C687 1.334 . S
C686 H667 0.929 . S
C686 C683 1.388 . S
C686 N685 1.397 . S
C687 H668 0.929 . S
C687 C684 1.404 . S
C687 N685 1.334 . S
C688 H680 0.930 . S
C688 C683 1.418 . S
C688 C684 1.353 . S
C689 H659 0.930 . S
C689 N690 1.330 . S
C689 C691 1.446 . S
N690 Co649 2.151 . S
N690 C689 1.330 . S
N690 C694 1.418 . S
C691 H670 0.929 . S
C691 C689 1.446 . S
C691 C692 1.332 . S
C692 H672 0.931 . S
C692 C691 1.332 . S
C692 C693 1.267 . S
C693 H661 0.929 . S
C693 C692 1.267 . S
C693 C694 1.251 . S
C694 H664 0.929 . S
C694 N690 1.418 . S
C694 C693 1.251 . S
C695 H662 0.930 . S
C695 C697 1.406 . S
C695 C700 1.261 . S
C696 H663 0.930 . S
C696 N698 1.325 . S
C696 C699 1.357 . S
C697 H665 0.928 . S
C697 C695 1.406 . S
C697 N698 1.261 . S
N698 Co649 2.214 . S
N698 C696 1.325 . S
N698 C697 1.261 . S
C699 H669 0.931 . S
C699 C696 1.357 . S
C699 C700 1.312 . S
C700 H671 0.930 . S
C700 C695 1.261 . S
C700 C699 1.312 . S
C701 O673 1.214 . S
C701 O681 1.234 . S
C702 H674 0.929 . S
C702 C705 1.391 . S
C702 C707 1.391 . S
C703 H675 0.929 . S
C703 C704 1.390 . S
C703 N706 1.391 . S
C704 H676 0.930 . S
C704 C703 1.390 . S
C704 C705 1.392 . S
C705 H677 0.929 . S
C705 C702 1.391 . S
C705 C704 1.392 . S
N706 Co650 2.257 . S
N706 C703 1.391 . S
N706 C707 1.388 . S
C707 H678 0.930 . S
C707 C702 1.391 . S
C707 N706 1.388 . S
Co708 O710 2.143 . S
Co708 O716 2.074 . S
Co708 O719 2.093 . S
Co708 O732 2.097 . S
Co708 N749 2.151 . S
Co708 N757 2.214 . S
Co709 O710 2.160 . S
Co709 O715 2.058 . S
Co709 O725 2.057 . S
Co709 O740 2.037 . S
Co709 N744 2.145 . S
Co709 N765 2.257 . S
O710 Co708 2.143 . S
O710 Co709 2.160 . S
C711 O712 1.278 . S
C711 O719 1.224 . S
O712 C711 1.278 . S
C713 O714 1.245 . S
C713 O725 1.232 . S
O714 C713 1.245 . S
O715 Co709 2.058 . S
O715 C741 1.269 . S
O716 Co708 2.074 . S
O716 C741 1.257 . S
H717 C742 0.930 . S
H718 C748 0.930 . S
O719 Co708 2.093 . S
O719 C711 1.224 . S
H720 C752 0.929 . S
H721 C754 0.930 . S
H722 C755 0.930 . S
H723 C753 0.929 . S
H724 C756 0.928 . S
O725 Co709 2.057 . S
O725 C713 1.232 . S
H726 C745 0.929 . S
H727 C746 0.929 . S
H728 C758 0.931 . S
H729 C750 0.929 . S
H730 C759 0.930 . S
H731 C751 0.931 . S
O732 Co708 2.097 . S
O732 C760 1.214 . S
H733 C761 0.929 . S
H734 C762 0.929 . S
H735 C763 0.930 . S
H736 C764 0.929 . S
H737 C766 0.930 . S
H738 C743 0.930 . S
H739 C747 0.930 . S
O740 Co709 2.037 . S
O740 C760 1.234 . S
C741 O715 1.269 . S
C741 O716 1.257 . S
C742 H717 0.930 . S
C742 C745 1.388 . S
C742 C747 1.418 . S
C743 H738 0.930 . S
C743 C746 1.404 . S
C743 C747 1.353 . S
N744 Co709 2.145 . S
N744 C745 1.397 . S
N744 C746 1.334 . S
C745 H726 0.929 . S
C745 C742 1.388 . S
C745 N744 1.397 . S
C746 H727 0.929 . S
C746 C743 1.404 . S
C746 N744 1.334 . S
C747 H739 0.930 . S
C747 C742 1.418 . S
C747 C743 1.353 . S
C748 H718 0.930 . S
C748 N749 1.330 . S
C748 C750 1.446 . S
N749 Co708 2.151 . S
N749 C748 1.330 . S
N749 C753 1.418 . S
C750 H729 0.929 . S
C750 C748 1.446 . S
C750 C751 1.332 . S
C751 H731 0.931 . S
C751 C750 1.332 . S
C751 C752 1.267 . S
C752 H720 0.929 . S
C752 C751 1.267 . S
C752 C753 1.251 . S
C753 H723 0.929 . S
C753 N749 1.418 . S
C753 C752 1.251 . S
C754 H721 0.930 . S
C754 C756 1.406 . S
C754 C759 1.261 . S
C755 H722 0.930 . S
C755 N757 1.325 . S
C755 C758 1.357 . S
C756 H724 0.928 . S
C756 C754 1.406 . S
C756 N757 1.261 . S
N757 Co708 2.214 . S
N757 C755 1.325 . S
N757 C756 1.261 . S
C758 H728 0.931 . S
C758 C755 1.357 . S
C758 C759 1.312 . S
C759 H730 0.930 . S
C759 C754 1.261 . S
C759 C758 1.312 . S
C760 O732 1.214 . S
C760 O740 1.234 . S
C761 H733 0.929 . S
C761 C764 1.391 . S
C761 C766 1.391 . S
C762 H734 0.929 . S
C762 C763 1.390 . S
C762 N765 1.391 . S
C763 H735 0.930 . S
C763 C762 1.390 . S
C763 C764 1.392 . S
C764 H736 0.929 . S
C764 C761 1.391 . S
C764 C763 1.392 . S
N765 Co709 2.257 . S
N765 C762 1.391 . S
N765 C766 1.388 . S
C766 H737 0.930 . S
C766 C761 1.391 . S
C766 N765 1.388 . S
Co767 O769 2.143 . S
Co767 O775 2.074 . S
Co767 O778 2.093 . S
Co767 O791 2.097 . S
Co767 N808 2.151 . S
Co767 N816 2.214 . S
Co768 O769 2.160 . S
Co768 O774 2.058 . S
Co768 O784 2.057 . S
Co768 O799 2.037 . S
Co768 N803 2.145 . S
Co768 N824 2.257 . S
O769 Co767 2.143 . S
O769 Co768 2.160 . S
C770 O771 1.278 . S
C770 O778 1.224 . S
O771 C770 1.278 . S
C772 O773 1.245 . S
C772 O784 1.232 . S
O773 C772 1.245 . S
O774 Co768 2.058 . S
O774 C800 1.269 . S
O775 Co767 2.074 . S
O775 C800 1.257 . S
H776 C801 0.930 . S
H777 C807 0.930 . S
O778 Co767 2.093 . S
O778 C770 1.224 . S
H779 C811 0.929 . S
H780 C813 0.930 . S
H781 C814 0.930 . S
H782 C812 0.929 . S
H783 C815 0.928 . S
O784 Co768 2.057 . S
O784 C772 1.232 . S
H785 C804 0.929 . S
H786 C805 0.929 . S
H787 C817 0.931 . S
H788 C809 0.929 . S
H789 C818 0.930 . S
H790 C810 0.931 . S
O791 Co767 2.097 . S
O791 C819 1.214 . S
H792 C820 0.929 . S
H793 C821 0.929 . S
H794 C822 0.930 . S
H795 C823 0.929 . S
H796 C825 0.930 . S
H797 C802 0.930 . S
H798 C806 0.930 . S
O799 Co768 2.037 . S
O799 C819 1.234 . S
C800 O774 1.269 . S
C800 O775 1.257 . S
C801 H776 0.930 . S
C801 C804 1.388 . S
C801 C806 1.418 . S
C802 H797 0.930 . S
C802 C805 1.404 . S
C802 C806 1.353 . S
N803 Co768 2.145 . S
N803 C804 1.397 . S
N803 C805 1.334 . S
C804 H785 0.929 . S
C804 C801 1.388 . S
C804 N803 1.397 . S
C805 H786 0.929 . S
C805 C802 1.404 . S
C805 N803 1.334 . S
C806 H798 0.930 . S
C806 C801 1.418 . S
C806 C802 1.353 . S
C807 H777 0.930 . S
C807 N808 1.330 . S
C807 C809 1.446 . S
N808 Co767 2.151 . S
N808 C807 1.330 . S
N808 C812 1.418 . S
C809 H788 0.929 . S
C809 C807 1.446 . S
C809 C810 1.332 . S
C810 H790 0.931 . S
C810 C809 1.332 . S
C810 C811 1.267 . S
C811 H779 0.929 . S
C811 C810 1.267 . S
C811 C812 1.251 . S
C812 H782 0.929 . S
C812 N808 1.418 . S
C812 C811 1.251 . S
C813 H780 0.930 . S
C813 C815 1.406 . S
C813 C818 1.261 . S
C814 H781 0.930 . S
C814 N816 1.325 . S
C814 C817 1.357 . S
C815 H783 0.928 . S
C815 C813 1.406 . S
C815 N816 1.261 . S
N816 Co767 2.214 . S
N816 C814 1.325 . S
N816 C815 1.261 . S
C817 H787 0.931 . S
C817 C814 1.357 . S
C817 C818 1.312 . S
C818 H789 0.930 . S
C818 C813 1.261 . S
C818 C817 1.312 . S
C819 O791 1.214 . S
C819 O799 1.234 . S
C820 H792 0.929 . S
C820 C823 1.391 . S
C820 C825 1.391 . S
C821 H793 0.929 . S
C821 C822 1.390 . S
C821 N824 1.391 . S
C822 H794 0.930 . S
C822 C821 1.390 . S
C822 C823 1.392 . S
C823 H795 0.929 . S
C823 C820 1.391 . S
C823 C822 1.392 . S
N824 Co768 2.257 . S
N824 C821 1.391 . S
N824 C825 1.388 . S
C825 H796 0.930 . S
C825 C820 1.391 . S
C825 N824 1.388 . S
Co826 O828 2.143 . S
Co826 O834 2.074 . S
Co826 O837 2.093 . S
Co826 O850 2.097 . S
Co826 N867 2.151 . S
Co826 N875 2.214 . S
Co827 O828 2.160 . S
Co827 O833 2.058 . S
Co827 O843 2.057 . S
Co827 O858 2.037 . S
Co827 N862 2.145 . S
Co827 N883 2.257 . S
O828 Co826 2.143 . S
O828 Co827 2.160 . S
C829 O830 1.278 . S
C829 O837 1.224 . S
O830 C829 1.278 . S
C831 O832 1.245 . S
C831 O843 1.232 . S
O832 C831 1.245 . S
O833 Co827 2.058 . S
O833 C859 1.269 . S
O834 Co826 2.074 . S
O834 C859 1.257 . S
H835 C860 0.930 . S
H836 C866 0.930 . S
O837 Co826 2.093 . S
O837 C829 1.224 . S
H838 C870 0.929 . S
H839 C872 0.930 . S
H840 C873 0.930 . S
H841 C871 0.929 . S
H842 C874 0.928 . S
O843 Co827 2.057 . S
O843 C831 1.232 . S
H844 C863 0.929 . S
H845 C864 0.929 . S
H846 C876 0.931 . S
H847 C868 0.929 . S
H848 C877 0.930 . S
H849 C869 0.931 . S
O850 Co826 2.097 . S
O850 C878 1.214 . S
H851 C879 0.929 . S
H852 C880 0.929 . S
H853 C881 0.930 . S
H854 C882 0.929 . S
H855 C884 0.930 . S
H856 C861 0.930 . S
H857 C865 0.930 . S
O858 Co827 2.037 . S
O858 C878 1.234 . S
C859 O833 1.269 . S
C859 O834 1.257 . S
C860 H835 0.930 . S
C860 C863 1.388 . S
C860 C865 1.418 . S
C861 H856 0.930 . S
C861 C864 1.404 . S
C861 C865 1.353 . S
N862 Co827 2.145 . S
N862 C863 1.397 . S
N862 C864 1.334 . S
C863 H844 0.929 . S
C863 C860 1.388 . S
C863 N862 1.397 . S
C864 H845 0.929 . S
C864 C861 1.404 . S
C864 N862 1.334 . S
C865 H857 0.930 . S
C865 C860 1.418 . S
C865 C861 1.353 . S
C866 H836 0.930 . S
C866 N867 1.330 . S
C866 C868 1.446 . S
N867 Co826 2.151 . S
N867 C866 1.330 . S
N867 C871 1.418 . S
C868 H847 0.929 . S
C868 C866 1.446 . S
C868 C869 1.332 . S
C869 H849 0.931 . S
C869 C868 1.332 . S
C869 C870 1.267 . S
C870 H838 0.929 . S
C870 C869 1.267 . S
C870 C871 1.251 . S
C871 H841 0.929 . S
C871 N867 1.418 . S
C871 C870 1.251 . S
C872 H839 0.930 . S
C872 C874 1.406 . S
C872 C877 1.261 . S
C873 H840 0.930 . S
C873 N875 1.325 . S
C873 C876 1.357 . S
C874 H842 0.928 . S
C874 C872 1.406 . S
C874 N875 1.261 . S
N875 Co826 2.214 . S
N875 C873 1.325 . S
N875 C874 1.261 . S
C876 H846 0.931 . S
C876 C873 1.357 . S
C876 C877 1.312 . S
C877 H848 0.930 . S
C877 C872 1.261 . S
C877 C876 1.312 . S
C878 O850 1.214 . S
C878 O858 1.234 . S
C879 H851 0.929 . S
C879 C882 1.391 . S
C879 C884 1.391 . S
C880 H852 0.929 . S
C880 C881 1.390 . S
C880 N883 1.391 . S
C881 H853 0.930 . S
C881 C880 1.390 . S
C881 C882 1.392 . S
C882 H854 0.929 . S
C882 C879 1.391 . S
C882 C881 1.392 . S
N883 Co827 2.257 . S
N883 C880 1.391 . S
N883 C884 1.388 . S
C884 H855 0.930 . S
C884 C879 1.391 . S
C884 N883 1.388 . S
Co885 O887 2.143 . S
Co885 O893 2.074 . S
Co885 O896 2.093 . S
Co885 O909 2.097 . S
Co885 N926 2.151 . S
Co885 N934 2.214 . S
Co886 O887 2.160 . S
Co886 O892 2.058 . S
Co886 O902 2.057 . S
Co886 O917 2.037 . S
Co886 N921 2.145 . S
Co886 N942 2.257 . S
O887 Co885 2.143 . S
O887 Co886 2.160 . S
C888 O889 1.278 . S
C888 O896 1.224 . S
O889 C888 1.278 . S
C890 O891 1.245 . S
C890 O902 1.232 . S
O891 C890 1.245 . S
O892 Co886 2.058 . S
O892 C918 1.269 . S
O893 Co885 2.074 . S
O893 C918 1.257 . S
H894 C919 0.930 . S
H895 C925 0.930 . S
O896 Co885 2.093 . S
O896 C888 1.224 . S
H897 C929 0.929 . S
H898 C931 0.930 . S
H899 C932 0.930 . S
H900 C930 0.929 . S
H901 C933 0.928 . S
O902 Co886 2.057 . S
O902 C890 1.232 . S
H903 C922 0.929 . S
H904 C923 0.929 . S
H905 C935 0.931 . S
H906 C927 0.929 . S
H907 C936 0.930 . S
H908 C928 0.931 . S
O909 Co885 2.097 . S
O909 C937 1.214 . S
H910 C938 0.929 . S
H911 C939 0.929 . S
H912 C940 0.930 . S
H913 C941 0.929 . S
H914 C943 0.930 . S
H915 C920 0.930 . S
H916 C924 0.930 . S
O917 Co886 2.037 . S
O917 C937 1.234 . S
C918 O892 1.269 . S
C918 O893 1.257 . S
C919 H894 0.930 . S
C919 C922 1.388 . S
C919 C924 1.418 . S
C920 H915 0.930 . S
C920 C923 1.404 . S
C920 C924 1.353 . S
N921 Co886 2.145 . S
N921 C922 1.397 . S
N921 C923 1.334 . S
C922 H903 0.929 . S
C922 C919 1.388 . S
C922 N921 1.397 . S
C923 H904 0.929 . S
C923 C920 1.404 . S
C923 N921 1.334 . S
C924 H916 0.930 . S
C924 C919 1.418 . S
C924 C920 1.353 . S
C925 H895 0.930 . S
C925 N926 1.330 . S
C925 C927 1.446 . S
N926 Co885 2.151 . S
N926 C925 1.330 . S
N926 C930 1.418 . S
C927 H906 0.929 . S
C927 C925 1.446 . S
C927 C928 1.332 . S
C928 H908 0.931 . S
C928 C927 1.332 . S
C928 C929 1.267 . S
C929 H897 0.929 . S
C929 C928 1.267 . S
C929 C930 1.251 . S
C930 H900 0.929 . S
C930 N926 1.418 . S
C930 C929 1.251 . S
C931 H898 0.930 . S
C931 C933 1.406 . S
C931 C936 1.261 . S
C932 H899 0.930 . S
C932 N934 1.325 . S
C932 C935 1.357 . S
C933 H901 0.928 . S
C933 C931 1.406 . S
C933 N934 1.261 . S
N934 Co885 2.214 . S
N934 C932 1.325 . S
N934 C933 1.261 . S
C935 H905 0.931 . S
C935 C932 1.357 . S
C935 C936 1.312 . S
C936 H907 0.930 . S
C936 C931 1.261 . S
C936 C935 1.312 . S
C937 O909 1.214 . S
C937 O917 1.234 . S
C938 H910 0.929 . S
C938 C941 1.391 . S
C938 C943 1.391 . S
C939 H911 0.929 . S
C939 C940 1.390 . S
C939 N942 1.391 . S
C940 H912 0.930 . S
C940 C939 1.390 . S
C940 C941 1.392 . S
C941 H913 0.929 . S
C941 C938 1.391 . S
C941 C940 1.392 . S
N942 Co886 2.257 . S
N942 C939 1.391 . S
N942 C943 1.388 . S
C943 H914 0.930 . S
C943 C938 1.391 . S
C943 N942 1.388 . S
Co944 O946 2.143 . S
Co944 O952 2.074 . S
Co944 O955 2.093 . S
Co944 O968 2.097 . S
Co944 N985 2.151 . S
Co944 N993 2.214 . S
Co945 O946 2.160 . S
Co945 O951 2.058 . S
Co945 O961 2.057 . S
Co945 O976 2.037 . S
Co945 N980 2.145 . S
Co945 N1001 2.257 . S
O946 Co944 2.143 . S
O946 Co945 2.160 . S
C947 O948 1.278 . S
C947 O955 1.224 . S
O948 C947 1.278 . S
C949 O950 1.245 . S
C949 O961 1.232 . S
O950 C949 1.245 . S
O951 Co945 2.058 . S
O951 C977 1.269 . S
O952 Co944 2.074 . S
O952 C977 1.257 . S
H953 C978 0.930 . S
H954 C984 0.930 . S
O955 Co944 2.093 . S
O955 C947 1.224 . S
H956 C988 0.929 . S
H957 C990 0.930 . S
H958 C991 0.930 . S
H959 C989 0.929 . S
H960 C992 0.928 . S
O961 Co945 2.057 . S
O961 C949 1.232 . S
H962 C981 0.929 . S
H963 C982 0.929 . S
H964 C994 0.931 . S
H965 C986 0.929 . S
H966 C995 0.930 . S
H967 C987 0.931 . S
O968 Co944 2.097 . S
O968 C996 1.214 . S
H969 C997 0.929 . S
H970 C998 0.929 . S
H971 C999 0.930 . S
H972 C1000 0.929 . S
H973 C1002 0.930 . S
H974 C979 0.930 . S
H975 C983 0.930 1_655 S
O976 Co945 2.037 . S
O976 C996 1.234 . S
C977 O951 1.269 . S
C977 O952 1.257 . S
C978 H953 0.930 . S
C978 C981 1.388 . S
C978 C983 1.418 . S
C979 H974 0.930 . S
C979 C982 1.404 . S
C979 C983 1.353 . S
N980 Co945 2.145 . S
N980 C981 1.397 . S
N980 C982 1.334 . S
C981 H962 0.929 . S
C981 C978 1.388 . S
C981 N980 1.397 . S
C982 H963 0.929 . S
C982 C979 1.404 . S
C982 N980 1.334 . S
C983 H975 0.930 1_455 S
C983 C978 1.418 . S
C983 C979 1.353 . S
C984 H954 0.930 . S
C984 N985 1.330 . S
C984 C986 1.446 . S
N985 Co944 2.151 . S
N985 C984 1.330 . S
N985 C989 1.418 . S
C986 H965 0.929 . S
C986 C984 1.446 . S
C986 C987 1.332 . S
C987 H967 0.931 . S
C987 C986 1.332 . S
C987 C988 1.267 . S
C988 H956 0.929 . S
C988 C987 1.267 . S
C988 C989 1.251 . S
C989 H959 0.929 . S
C989 N985 1.418 . S
C989 C988 1.251 . S
C990 H957 0.930 . S
C990 C992 1.406 . S
C990 C995 1.261 . S
C991 H958 0.930 . S
C991 N993 1.325 . S
C991 C994 1.357 . S
C992 H960 0.928 . S
C992 C990 1.406 . S
C992 N993 1.261 . S
N993 Co944 2.214 . S
N993 C991 1.325 . S
N993 C992 1.261 . S
C994 H964 0.931 . S
C994 C991 1.357 . S
C994 C995 1.312 . S
C995 H966 0.930 . S
C995 C990 1.261 . S
C995 C994 1.312 . S
C996 O968 1.214 . S
C996 O976 1.234 . S
C997 H969 0.929 . S
C997 C1000 1.391 . S
C997 C1002 1.391 . S
C998 H970 0.929 . S
C998 C999 1.390 . S
C998 N1001 1.391 . S
C999 H971 0.930 . S
C999 C998 1.390 . S
C999 C1000 1.392 . S
C1000 H972 0.929 . S
C1000 C997 1.391 . S
C1000 C999 1.392 . S
N1001 Co945 2.257 . S
N1001 C998 1.391 . S
N1001 C1002 1.388 . S
C1002 H973 0.930 . S
C1002 C997 1.391 . S
C1002 N1001 1.388 . S
Co1003 O1005 2.143 . S
Co1003 O1011 2.074 . S
Co1003 O1014 2.093 . S
Co1003 O1027 2.097 . S
Co1003 N1044 2.151 . S
Co1003 N1052 2.214 . S
Co1004 O1005 2.160 . S
Co1004 O1010 2.058 . S
Co1004 O1020 2.057 . S
Co1004 O1035 2.037 . S
Co1004 N1039 2.145 . S
Co1004 N1060 2.257 . S
O1005 Co1003 2.143 . S
O1005 Co1004 2.160 . S
C1006 O1007 1.278 . S
C1006 O1014 1.224 . S
O1007 C1006 1.278 . S
C1008 O1009 1.245 . S
C1008 O1020 1.232 . S
O1009 C1008 1.245 . S
O1010 Co1004 2.058 . S
O1010 C1036 1.269 . S
O1011 Co1003 2.074 . S
O1011 C1036 1.257 . S
H1012 C1037 0.930 . S
H1013 C1043 0.930 . S
O1014 Co1003 2.093 . S
O1014 C1006 1.224 . S
H1015 C1047 0.929 . S
H1016 C1049 0.930 . S
H1017 C1050 0.930 . S
H1018 C1048 0.929 . S
H1019 C1051 0.928 . S
O1020 Co1004 2.057 . S
O1020 C1008 1.232 . S
H1021 C1040 0.929 . S
H1022 C1041 0.929 . S
H1023 C1053 0.931 . S
H1024 C1045 0.929 . S
H1025 C1054 0.930 . S
H1026 C1046 0.931 . S
O1027 Co1003 2.097 . S
O1027 C1055 1.214 . S
H1028 C1056 0.929 . S
H1029 C1057 0.929 . S
H1030 C1058 0.930 . S
H1031 C1059 0.929 . S
H1032 C1061 0.930 . S
H1033 C1038 0.930 . S
H1034 C1042 0.930 . S
O1035 Co1004 2.037 . S
O1035 C1055 1.234 . S
C1036 O1010 1.269 . S
C1036 O1011 1.257 . S
C1037 H1012 0.930 . S
C1037 C1040 1.388 . S
C1037 C1042 1.418 . S
C1038 H1033 0.930 . S
C1038 C1041 1.404 . S
C1038 C1042 1.353 . S
N1039 Co1004 2.145 . S
N1039 C1040 1.397 . S
N1039 C1041 1.334 . S
C1040 H1021 0.929 . S
C1040 C1037 1.388 . S
C1040 N1039 1.397 . S
C1041 H1022 0.929 . S
C1041 C1038 1.404 . S
C1041 N1039 1.334 . S
C1042 H1034 0.930 . S
C1042 C1037 1.418 . S
C1042 C1038 1.353 . S
C1043 H1013 0.930 . S
C1043 N1044 1.330 . S
C1043 C1045 1.446 . S
N1044 Co1003 2.151 . S
N1044 C1043 1.330 . S
N1044 C1048 1.418 . S
C1045 H1024 0.929 . S
C1045 C1043 1.446 . S
C1045 C1046 1.332 . S
C1046 H1026 0.931 . S
C1046 C1045 1.332 . S
C1046 C1047 1.267 . S
C1047 H1015 0.929 . S
C1047 C1046 1.267 . S
C1047 C1048 1.251 . S
C1048 H1018 0.929 . S
C1048 N1044 1.418 . S
C1048 C1047 1.251 . S
C1049 H1016 0.930 . S
C1049 C1051 1.406 . S
C1049 C1054 1.261 . S
C1050 H1017 0.930 . S
C1050 N1052 1.325 . S
C1050 C1053 1.357 . S
C1051 H1019 0.928 . S
C1051 C1049 1.406 . S
C1051 N1052 1.261 . S
N1052 Co1003 2.214 . S
N1052 C1050 1.325 . S
N1052 C1051 1.261 . S
C1053 H1023 0.931 . S
C1053 C1050 1.357 . S
C1053 C1054 1.312 . S
C1054 H1025 0.930 . S
C1054 C1049 1.261 . S
C1054 C1053 1.312 . S
C1055 O1027 1.214 . S
C1055 O1035 1.234 . S
C1056 H1028 0.929 . S
C1056 C1059 1.391 . S
C1056 C1061 1.391 . S
C1057 H1029 0.929 . S
C1057 C1058 1.390 . S
C1057 N1060 1.391 . S
C1058 H1030 0.930 . S
C1058 C1057 1.390 . S
C1058 C1059 1.392 . S
C1059 H1031 0.929 . S
C1059 C1056 1.391 . S
C1059 C1058 1.392 . S
N1060 Co1004 2.257 . S
N1060 C1057 1.391 . S
N1060 C1061 1.388 . S
C1061 H1032 0.930 . S
C1061 C1056 1.391 . S
C1061 N1060 1.388 . S
Co1062 O1064 2.143 . S
Co1062 O1070 2.074 . S
Co1062 O1073 2.093 . S
Co1062 O1086 2.097 . S
Co1062 N1103 2.151 . S
Co1062 N1111 2.214 . S
Co1063 O1064 2.160 . S
Co1063 O1069 2.058 . S
Co1063 O1079 2.057 . S
Co1063 O1094 2.037 . S
Co1063 N1098 2.145 . S
Co1063 N1119 2.257 . S
O1064 Co1062 2.143 . S
O1064 Co1063 2.160 . S
C1065 O1066 1.278 . S
C1065 O1073 1.224 . S
O1066 C1065 1.278 . S
C1067 O1068 1.245 . S
C1067 O1079 1.232 . S
O1068 C1067 1.245 . S
O1069 Co1063 2.058 . S
O1069 C1095 1.269 . S
O1070 Co1062 2.074 . S
O1070 C1095 1.257 . S
H1071 C1096 0.930 . S
H1072 C1102 0.930 . S
O1073 Co1062 2.093 . S
O1073 C1065 1.224 . S
H1074 C1106 0.929 . S
H1075 C1108 0.930 . S
H1076 C1109 0.930 . S
H1077 C1107 0.929 . S
H1078 C1110 0.928 . S
O1079 Co1063 2.057 . S
O1079 C1067 1.232 . S
H1080 C1099 0.929 . S
H1081 C1100 0.929 . S
H1082 C1112 0.931 . S
H1083 C1104 0.929 . S
H1084 C1113 0.930 . S
H1085 C1105 0.931 . S
O1086 Co1062 2.097 . S
O1086 C1114 1.214 . S
H1087 C1115 0.929 . S
H1088 C1116 0.929 . S
H1089 C1117 0.930 . S
H1090 C1118 0.929 . S
H1091 C1120 0.930 . S
H1092 C1097 0.930 . S
H1093 C1101 0.930 . S
O1094 Co1063 2.037 . S
O1094 C1114 1.234 . S
C1095 O1069 1.269 . S
C1095 O1070 1.257 . S
C1096 H1071 0.930 . S
C1096 C1099 1.388 . S
C1096 C1101 1.418 . S
C1097 H1092 0.930 . S
C1097 C1100 1.404 . S
C1097 C1101 1.353 . S
N1098 Co1063 2.145 . S
N1098 C1099 1.397 . S
N1098 C1100 1.334 . S
C1099 H1080 0.929 . S
C1099 C1096 1.388 . S
C1099 N1098 1.397 . S
C1100 H1081 0.929 . S
C1100 C1097 1.404 . S
C1100 N1098 1.334 . S
C1101 H1093 0.930 . S
C1101 C1096 1.418 . S
C1101 C1097 1.353 . S
C1102 H1072 0.930 . S
C1102 N1103 1.330 . S
C1102 C1104 1.446 . S
N1103 Co1062 2.151 . S
N1103 C1102 1.330 . S
N1103 C1107 1.418 . S
C1104 H1083 0.929 . S
C1104 C1102 1.446 . S
C1104 C1105 1.332 . S
C1105 H1085 0.931 . S
C1105 C1104 1.332 . S
C1105 C1106 1.267 . S
C1106 H1074 0.929 . S
C1106 C1105 1.267 . S
C1106 C1107 1.251 . S
C1107 H1077 0.929 . S
C1107 N1103 1.418 . S
C1107 C1106 1.251 . S
C1108 H1075 0.930 . S
C1108 C1110 1.406 . S
C1108 C1113 1.261 . S
C1109 H1076 0.930 . S
C1109 N1111 1.325 . S
C1109 C1112 1.357 . S
C1110 H1078 0.928 . S
C1110 C1108 1.406 . S
C1110 N1111 1.261 . S
N1111 Co1062 2.214 . S
N1111 C1109 1.325 . S
N1111 C1110 1.261 . S
C1112 H1082 0.931 . S
C1112 C1109 1.357 . S
C1112 C1113 1.312 . S
C1113 H1084 0.930 . S
C1113 C1108 1.261 . S
C1113 C1112 1.312 . S
C1114 O1086 1.214 . S
C1114 O1094 1.234 . S
C1115 H1087 0.929 . S
C1115 C1118 1.391 . S
C1115 C1120 1.391 . S
C1116 H1088 0.929 . S
C1116 C1117 1.390 . S
C1116 N1119 1.391 . S
C1117 H1089 0.930 . S
C1117 C1116 1.390 . S
C1117 C1118 1.392 . S
C1118 H1090 0.929 . S
C1118 C1115 1.391 . S
C1118 C1117 1.392 . S
N1119 Co1063 2.257 . S
N1119 C1116 1.391 . S
N1119 C1120 1.388 . S
C1120 H1091 0.930 . S
C1120 C1115 1.391 . S
C1120 N1119 1.388 . S
Co1121 O1123 2.143 . S
Co1121 O1129 2.074 . S
Co1121 O1132 2.093 . S
Co1121 O1145 2.097 . S
Co1121 N1162 2.151 . S
Co1121 N1170 2.214 . S
Co1122 O1123 2.160 . S
Co1122 O1128 2.058 . S
Co1122 O1138 2.057 . S
Co1122 O1153 2.037 . S
Co1122 N1157 2.145 . S
Co1122 N1178 2.257 . S
O1123 Co1121 2.143 . S
O1123 Co1122 2.160 . S
C1124 O1125 1.278 . S
C1124 O1132 1.224 . S
O1125 C1124 1.278 . S
C1126 O1127 1.245 . S
C1126 O1138 1.232 . S
O1127 C1126 1.245 . S
O1128 Co1122 2.058 . S
O1128 C1154 1.269 . S
O1129 Co1121 2.074 . S
O1129 C1154 1.257 . S
H1130 C1155 0.930 . S
H1131 C1161 0.930 . S
O1132 Co1121 2.093 . S
O1132 C1124 1.224 . S
H1133 C1165 0.929 . S
H1134 C1167 0.930 . S
H1135 C1168 0.930 . S
H1136 C1166 0.929 . S
H1137 C1169 0.928 . S
O1138 Co1122 2.057 . S
O1138 C1126 1.232 . S
H1139 C1158 0.929 . S
H1140 C1159 0.929 . S
H1141 C1171 0.931 . S
H1142 C1163 0.929 . S
H1143 C1172 0.930 . S
H1144 C1164 0.931 . S
O1145 Co1121 2.097 . S
O1145 C1173 1.214 . S
H1146 C1174 0.929 . S
H1147 C1175 0.929 . S
H1148 C1176 0.930 . S
H1149 C1177 0.929 . S
H1150 C1179 0.930 . S
H1151 C1156 0.930 . S
H1152 C1160 0.930 . S
O1153 Co1122 2.037 . S
O1153 C1173 1.234 . S
C1154 O1128 1.269 . S
C1154 O1129 1.257 . S
C1155 H1130 0.930 . S
C1155 C1158 1.388 . S
C1155 C1160 1.418 . S
C1156 H1151 0.930 . S
C1156 C1159 1.404 . S
C1156 C1160 1.353 . S
N1157 Co1122 2.145 . S
N1157 C1158 1.397 . S
N1157 C1159 1.334 . S
C1158 H1139 0.929 . S
C1158 C1155 1.388 . S
C1158 N1157 1.397 . S
C1159 H1140 0.929 . S
C1159 C1156 1.404 . S
C1159 N1157 1.334 . S
C1160 H1152 0.930 . S
C1160 C1155 1.418 . S
C1160 C1156 1.353 . S
C1161 H1131 0.930 . S
C1161 N1162 1.330 . S
C1161 C1163 1.446 . S
N1162 Co1121 2.151 . S
N1162 C1161 1.330 . S
N1162 C1166 1.418 . S
C1163 H1142 0.929 . S
C1163 C1161 1.446 . S
C1163 C1164 1.332 . S
C1164 H1144 0.931 . S
C1164 C1163 1.332 . S
C1164 C1165 1.267 . S
C1165 H1133 0.929 . S
C1165 C1164 1.267 . S
C1165 C1166 1.251 . S
C1166 H1136 0.929 . S
C1166 N1162 1.418 . S
C1166 C1165 1.251 . S
C1167 H1134 0.930 . S
C1167 C1169 1.406 . S
C1167 C1172 1.261 . S
C1168 H1135 0.930 . S
C1168 N1170 1.325 . S
C1168 C1171 1.357 . S
C1169 H1137 0.928 . S
C1169 C1167 1.406 . S
C1169 N1170 1.261 . S
N1170 Co1121 2.214 . S
N1170 C1168 1.325 . S
N1170 C1169 1.261 . S
C1171 H1141 0.931 . S
C1171 C1168 1.357 . S
C1171 C1172 1.312 . S
C1172 H1143 0.930 . S
C1172 C1167 1.261 . S
C1172 C1171 1.312 . S
C1173 O1145 1.214 . S
C1173 O1153 1.234 . S
C1174 H1146 0.929 . S
C1174 C1177 1.391 . S
C1174 C1179 1.391 . S
C1175 H1147 0.929 . S
C1175 C1176 1.390 . S
C1175 N1178 1.391 . S
C1176 H1148 0.930 . S
C1176 C1175 1.390 . S
C1176 C1177 1.392 . S
C1177 H1149 0.929 . S
C1177 C1174 1.391 . S
C1177 C1176 1.392 . S
N1178 Co1122 2.257 . S
N1178 C1175 1.391 . S
N1178 C1179 1.388 . S
C1179 H1150 0.930 . S
C1179 C1174 1.391 . S
C1179 N1178 1.388 . S
Co1180 O1182 2.143 . S
Co1180 O1188 2.074 . S
Co1180 O1191 2.093 . S
Co1180 O1204 2.097 . S
Co1180 N1221 2.151 . S
Co1180 N1229 2.214 . S
Co1181 O1182 2.160 . S
Co1181 O1187 2.058 . S
Co1181 O1197 2.057 . S
Co1181 O1212 2.037 . S
Co1181 N1216 2.145 . S
Co1181 N1237 2.257 . S
O1182 Co1180 2.143 . S
O1182 Co1181 2.160 . S
C1183 O1184 1.278 . S
C1183 O1191 1.224 . S
O1184 C1183 1.278 . S
C1185 O1186 1.245 . S
C1185 O1197 1.232 . S
O1186 C1185 1.245 . S
O1187 Co1181 2.058 . S
O1187 C1213 1.269 . S
O1188 Co1180 2.074 . S
O1188 C1213 1.257 . S
H1189 C1214 0.930 . S
H1190 C1220 0.930 . S
O1191 Co1180 2.093 . S
O1191 C1183 1.224 . S
H1192 C1224 0.929 . S
H1193 C1226 0.930 . S
H1194 C1227 0.930 . S
H1195 C1225 0.929 . S
H1196 C1228 0.928 . S
O1197 Co1181 2.057 . S
O1197 C1185 1.232 . S
H1198 C1217 0.929 . S
H1199 C1218 0.929 . S
H1200 C1230 0.931 . S
H1201 C1222 0.929 . S
H1202 C1231 0.930 . S
H1203 C1223 0.931 . S
O1204 Co1180 2.097 . S
O1204 C1232 1.214 . S
H1205 C1233 0.929 . S
H1206 C1234 0.929 . S
H1207 C1235 0.930 . S
H1208 C1236 0.929 . S
H1209 C1238 0.930 . S
H1210 C1215 0.930 . S
H1211 C1219 0.930 . S
O1212 Co1181 2.037 . S
O1212 C1232 1.234 . S
C1213 O1187 1.269 . S
C1213 O1188 1.257 . S
C1214 H1189 0.930 . S
C1214 C1217 1.388 . S
C1214 C1219 1.418 . S
C1215 H1210 0.930 . S
C1215 C1218 1.404 . S
C1215 C1219 1.353 . S
N1216 Co1181 2.145 . S
N1216 C1217 1.397 . S
N1216 C1218 1.334 . S
C1217 H1198 0.929 . S
C1217 C1214 1.388 . S
C1217 N1216 1.397 . S
C1218 H1199 0.929 . S
C1218 C1215 1.404 . S
C1218 N1216 1.334 . S
C1219 H1211 0.930 . S
C1219 C1214 1.418 . S
C1219 C1215 1.353 . S
C1220 H1190 0.930 . S
C1220 N1221 1.330 . S
C1220 C1222 1.446 . S
N1221 Co1180 2.151 . S
N1221 C1220 1.330 . S
N1221 C1225 1.418 . S
C1222 H1201 0.929 . S
C1222 C1220 1.446 . S
C1222 C1223 1.332 . S
C1223 H1203 0.931 . S
C1223 C1222 1.332 . S
C1223 C1224 1.267 . S
C1224 H1192 0.929 . S
C1224 C1223 1.267 . S
C1224 C1225 1.251 . S
C1225 H1195 0.929 . S
C1225 N1221 1.418 . S
C1225 C1224 1.251 . S
C1226 H1193 0.930 . S
C1226 C1228 1.406 . S
C1226 C1231 1.261 . S
C1227 H1194 0.930 . S
C1227 N1229 1.325 . S
C1227 C1230 1.357 . S
C1228 H1196 0.928 . S
C1228 C1226 1.406 . S
C1228 N1229 1.261 . S
N1229 Co1180 2.214 . S
N1229 C1227 1.325 . S
N1229 C1228 1.261 . S
C1230 H1200 0.931 . S
C1230 C1227 1.357 . S
C1230 C1231 1.312 . S
C1231 H1202 0.930 . S
C1231 C1226 1.261 . S
C1231 C1230 1.312 . S
C1232 O1204 1.214 . S
C1232 O1212 1.234 . S
C1233 H1205 0.929 . S
C1233 C1236 1.391 . S
C1233 C1238 1.391 . S
C1234 H1206 0.929 . S
C1234 C1235 1.390 . S
C1234 N1237 1.391 . S
C1235 H1207 0.930 . S
C1235 C1234 1.390 . S
C1235 C1236 1.392 . S
C1236 H1208 0.929 . S
C1236 C1233 1.391 . S
C1236 C1235 1.392 . S
N1237 Co1181 2.257 . S
N1237 C1234 1.391 . S
N1237 C1238 1.388 . S
C1238 H1209 0.930 . S
C1238 C1233 1.391 . S
C1238 N1237 1.388 . S
Co1239 O1241 2.143 . S
Co1239 O1247 2.074 . S
Co1239 O1250 2.093 . S
Co1239 O1263 2.097 . S
Co1239 N1280 2.151 . S
Co1239 N1288 2.214 . S
Co1240 O1241 2.160 . S
Co1240 O1246 2.058 . S
Co1240 O1256 2.057 . S
Co1240 O1271 2.037 . S
Co1240 N1275 2.145 . S
Co1240 N1296 2.257 . S
O1241 Co1239 2.143 . S
O1241 Co1240 2.160 . S
C1242 O1243 1.278 . S
C1242 O1250 1.224 . S
O1243 C1242 1.278 . S
C1244 O1245 1.245 . S
C1244 O1256 1.232 . S
O1245 C1244 1.245 . S
O1246 Co1240 2.058 . S
O1246 C1272 1.269 . S
O1247 Co1239 2.074 . S
O1247 C1272 1.257 . S
H1248 C1273 0.930 . S
H1249 C1279 0.930 . S
O1250 Co1239 2.093 . S
O1250 C1242 1.224 . S
H1251 C1283 0.929 . S
H1252 C1285 0.930 . S
H1253 C1286 0.930 . S
H1254 C1284 0.929 . S
H1255 C1287 0.928 . S
O1256 Co1240 2.057 . S
O1256 C1244 1.232 . S
H1257 C1276 0.929 . S
H1258 C1277 0.929 . S
H1259 C1289 0.931 . S
H1260 C1281 0.929 . S
H1261 C1290 0.930 . S
H1262 C1282 0.931 . S
O1263 Co1239 2.097 . S
O1263 C1291 1.214 . S
H1264 C1292 0.929 . S
H1265 C1293 0.929 . S
H1266 C1294 0.930 . S
H1267 C1295 0.929 . S
H1268 C1297 0.930 . S
H1269 C1274 0.930 . S
H1270 C1278 0.930 . S
O1271 Co1240 2.037 . S
O1271 C1291 1.234 . S
C1272 O1246 1.269 . S
C1272 O1247 1.257 . S
C1273 H1248 0.930 . S
C1273 C1276 1.388 . S
C1273 C1278 1.418 . S
C1274 H1269 0.930 . S
C1274 C1277 1.404 . S
C1274 C1278 1.353 . S
N1275 Co1240 2.145 . S
N1275 C1276 1.397 . S
N1275 C1277 1.334 . S
C1276 H1257 0.929 . S
C1276 C1273 1.388 . S
C1276 N1275 1.397 . S
C1277 H1258 0.929 . S
C1277 C1274 1.404 . S
C1277 N1275 1.334 . S
C1278 H1270 0.930 . S
C1278 C1273 1.418 . S
C1278 C1274 1.353 . S
C1279 H1249 0.930 . S
C1279 N1280 1.330 . S
C1279 C1281 1.446 . S
N1280 Co1239 2.151 . S
N1280 C1279 1.330 . S
N1280 C1284 1.418 . S
C1281 H1260 0.929 . S
C1281 C1279 1.446 . S
C1281 C1282 1.332 . S
C1282 H1262 0.931 . S
C1282 C1281 1.332 . S
C1282 C1283 1.267 . S
C1283 H1251 0.929 . S
C1283 C1282 1.267 . S
C1283 C1284 1.251 . S
C1284 H1254 0.929 . S
C1284 N1280 1.418 . S
C1284 C1283 1.251 . S
C1285 H1252 0.930 . S
C1285 C1287 1.406 . S
C1285 C1290 1.261 . S
C1286 H1253 0.930 . S
C1286 N1288 1.325 . S
C1286 C1289 1.357 . S
C1287 H1255 0.928 . S
C1287 C1285 1.406 . S
C1287 N1288 1.261 . S
N1288 Co1239 2.214 . S
N1288 C1286 1.325 . S
N1288 C1287 1.261 . S
C1289 H1259 0.931 . S
C1289 C1286 1.357 . S
C1289 C1290 1.312 . S
C1290 H1261 0.930 . S
C1290 C1285 1.261 . S
C1290 C1289 1.312 . S
C1291 O1263 1.214 . S
C1291 O1271 1.234 . S
C1292 H1264 0.929 . S
C1292 C1295 1.391 . S
C1292 C1297 1.391 . S
C1293 H1265 0.929 . S
C1293 C1294 1.390 . S
C1293 N1296 1.391 . S
C1294 H1266 0.930 . S
C1294 C1293 1.390 . S
C1294 C1295 1.392 . S
C1295 H1267 0.929 . S
C1295 C1292 1.391 . S
C1295 C1294 1.392 . S
N1296 Co1240 2.257 . S
N1296 C1293 1.391 . S
N1296 C1297 1.388 . S
C1297 H1268 0.930 . S
C1297 C1292 1.391 . S
C1297 N1296 1.388 . S
Co1298 O1300 2.143 . S
Co1298 O1306 2.074 . S
Co1298 O1309 2.093 . S
Co1298 O1322 2.097 . S
Co1298 N1339 2.151 . S
Co1298 N1347 2.214 . S
Co1299 O1300 2.160 . S
Co1299 O1305 2.058 . S
Co1299 O1315 2.057 . S
Co1299 O1330 2.037 . S
Co1299 N1334 2.145 . S
Co1299 N1355 2.257 . S
O1300 Co1298 2.143 . S
O1300 Co1299 2.160 . S
C1301 O1302 1.278 . S
C1301 O1309 1.224 . S
O1302 C1301 1.278 . S
C1303 O1304 1.245 . S
C1303 O1315 1.232 . S
O1304 C1303 1.245 . S
O1305 Co1299 2.058 . S
O1305 C1331 1.269 . S
O1306 Co1298 2.074 . S
O1306 C1331 1.257 . S
H1307 C1332 0.930 . S
H1308 C1338 0.930 . S
O1309 Co1298 2.093 . S
O1309 C1301 1.224 . S
H1310 C1342 0.929 . S
H1311 C1344 0.930 . S
H1312 C1345 0.930 . S
H1313 C1343 0.929 . S
H1314 C1346 0.928 . S
O1315 Co1299 2.057 . S
O1315 C1303 1.232 . S
H1316 C1335 0.929 . S
H1317 C1336 0.929 . S
H1318 C1348 0.931 . S
H1319 C1340 0.929 . S
H1320 C1349 0.930 . S
H1321 C1341 0.931 . S
O1322 Co1298 2.097 . S
O1322 C1350 1.214 . S
H1323 C1351 0.929 . S
H1324 C1352 0.929 . S
H1325 C1353 0.930 . S
H1326 C1354 0.929 . S
H1327 C1356 0.930 . S
H1328 C1333 0.930 . S
H1329 C1337 0.930 . S
O1330 Co1299 2.037 . S
O1330 C1350 1.234 . S
C1331 O1305 1.269 . S
C1331 O1306 1.257 . S
C1332 H1307 0.930 . S
C1332 C1335 1.388 . S
C1332 C1337 1.418 . S
C1333 H1328 0.930 . S
C1333 C1336 1.404 . S
C1333 C1337 1.353 . S
N1334 Co1299 2.145 . S
N1334 C1335 1.397 . S
N1334 C1336 1.334 . S
C1335 H1316 0.929 . S
C1335 C1332 1.388 . S
C1335 N1334 1.397 . S
C1336 H1317 0.929 . S
C1336 C1333 1.404 . S
C1336 N1334 1.334 . S
C1337 H1329 0.930 . S
C1337 C1332 1.418 . S
C1337 C1333 1.353 . S
C1338 H1308 0.930 . S
C1338 N1339 1.330 . S
C1338 C1340 1.446 . S
N1339 Co1298 2.151 . S
N1339 C1338 1.330 . S
N1339 C1343 1.418 . S
C1340 H1319 0.929 . S
C1340 C1338 1.446 . S
C1340 C1341 1.332 . S
C1341 H1321 0.931 . S
C1341 C1340 1.332 . S
C1341 C1342 1.267 . S
C1342 H1310 0.929 . S
C1342 C1341 1.267 . S
C1342 C1343 1.251 . S
C1343 H1313 0.929 . S
C1343 N1339 1.418 . S
C1343 C1342 1.251 . S
C1344 H1311 0.930 . S
C1344 C1346 1.406 . S
C1344 C1349 1.261 . S
C1345 H1312 0.930 . S
C1345 N1347 1.325 . S
C1345 C1348 1.357 . S
C1346 H1314 0.928 . S
C1346 C1344 1.406 . S
C1346 N1347 1.261 . S
N1347 Co1298 2.214 . S
N1347 C1345 1.325 . S
N1347 C1346 1.261 . S
C1348 H1318 0.931 . S
C1348 C1345 1.357 . S
C1348 C1349 1.312 . S
C1349 H1320 0.930 . S
C1349 C1344 1.261 . S
C1349 C1348 1.312 . S
C1350 O1322 1.214 . S
C1350 O1330 1.234 . S
C1351 H1323 0.929 . S
C1351 C1354 1.391 . S
C1351 C1356 1.391 . S
C1352 H1324 0.929 . S
C1352 C1353 1.390 . S
C1352 N1355 1.391 . S
C1353 H1325 0.930 . S
C1353 C1352 1.390 . S
C1353 C1354 1.392 . S
C1354 H1326 0.929 . S
C1354 C1351 1.391 . S
C1354 C1353 1.392 . S
N1355 Co1299 2.257 . S
N1355 C1352 1.391 . S
N1355 C1356 1.388 . S
C1356 H1327 0.930 . S
C1356 C1351 1.391 . S
C1356 N1355 1.388 . S
Co1357 O1359 2.143 . S
Co1357 O1365 2.074 . S
Co1357 O1368 2.093 . S
Co1357 O1381 2.097 . S
Co1357 N1398 2.151 . S
Co1357 N1406 2.214 . S
Co1358 O1359 2.160 . S
Co1358 O1364 2.058 . S
Co1358 O1374 2.057 . S
Co1358 O1389 2.037 . S
Co1358 N1393 2.145 . S
Co1358 N1414 2.257 . S
O1359 Co1357 2.143 . S
O1359 Co1358 2.160 . S
C1360 O1361 1.278 . S
C1360 O1368 1.224 . S
O1361 C1360 1.278 . S
C1362 O1363 1.245 . S
C1362 O1374 1.232 . S
O1363 C1362 1.245 . S
O1364 Co1358 2.058 . S
O1364 C1390 1.269 . S
O1365 Co1357 2.074 . S
O1365 C1390 1.257 . S
H1366 C1391 0.930 . S
H1367 C1397 0.930 . S
O1368 Co1357 2.093 . S
O1368 C1360 1.224 . S
H1369 C1401 0.929 . S
H1370 C1403 0.930 . S
H1371 C1404 0.930 . S
H1372 C1402 0.929 . S
H1373 C1405 0.928 . S
O1374 Co1358 2.057 . S
O1374 C1362 1.232 . S
H1375 C1394 0.929 . S
H1376 C1395 0.929 . S
H1377 C1407 0.931 . S
H1378 C1399 0.929 . S
H1379 C1408 0.930 . S
H1380 C1400 0.931 . S
O1381 Co1357 2.097 . S
O1381 C1409 1.214 . S
H1382 C1410 0.929 . S
H1383 C1411 0.929 . S
H1384 C1412 0.930 . S
H1385 C1413 0.929 . S
H1386 C1415 0.930 . S
H1387 C1392 0.930 . S
H1388 C1396 0.930 . S
O1389 Co1358 2.037 . S
O1389 C1409 1.234 . S
C1390 O1364 1.269 . S
C1390 O1365 1.257 . S
C1391 H1366 0.930 . S
C1391 C1394 1.388 . S
C1391 C1396 1.418 . S
C1392 H1387 0.930 . S
C1392 C1395 1.404 . S
C1392 C1396 1.353 . S
N1393 Co1358 2.145 . S
N1393 C1394 1.397 . S
N1393 C1395 1.334 . S
C1394 H1375 0.929 . S
C1394 C1391 1.388 . S
C1394 N1393 1.397 . S
C1395 H1376 0.929 . S
C1395 C1392 1.404 . S
C1395 N1393 1.334 . S
C1396 H1388 0.930 . S
C1396 C1391 1.418 . S
C1396 C1392 1.353 . S
C1397 H1367 0.930 . S
C1397 N1398 1.330 . S
C1397 C1399 1.446 . S
N1398 Co1357 2.151 . S
N1398 C1397 1.330 . S
N1398 C1402 1.418 . S
C1399 H1378 0.929 . S
C1399 C1397 1.446 . S
C1399 C1400 1.332 . S
C1400 H1380 0.931 . S
C1400 C1399 1.332 . S
C1400 C1401 1.267 . S
C1401 H1369 0.929 . S
C1401 C1400 1.267 . S
C1401 C1402 1.251 . S
C1402 H1372 0.929 . S
C1402 N1398 1.418 . S
C1402 C1401 1.251 . S
C1403 H1370 0.930 . S
C1403 C1405 1.406 . S
C1403 C1408 1.261 . S
C1404 H1371 0.930 . S
C1404 N1406 1.325 . S
C1404 C1407 1.357 . S
C1405 H1373 0.928 . S
C1405 C1403 1.406 . S
C1405 N1406 1.261 . S
N1406 Co1357 2.214 . S
N1406 C1404 1.325 . S
N1406 C1405 1.261 . S
C1407 H1377 0.931 . S
C1407 C1404 1.357 . S
C1407 C1408 1.312 . S
C1408 H1379 0.930 . S
C1408 C1403 1.261 . S
C1408 C1407 1.312 . S
C1409 O1381 1.214 . S
C1409 O1389 1.234 . S
C1410 H1382 0.929 . S
C1410 C1413 1.391 . S
C1410 C1415 1.391 . S
C1411 H1383 0.929 . S
C1411 C1412 1.390 . S
C1411 N1414 1.391 . S
C1412 H1384 0.930 . S
C1412 C1411 1.390 . S
C1412 C1413 1.392 . S
C1413 H1385 0.929 . S
C1413 C1410 1.391 . S
C1413 C1412 1.392 . S
N1414 Co1358 2.257 . S
N1414 C1411 1.391 . S
N1414 C1415 1.388 . S
C1415 H1386 0.930 . S
C1415 C1410 1.391 . S
C1415 N1414 1.388 . S
Co1416 O1418 2.143 . S
Co1416 O1424 2.074 . S
Co1416 O1427 2.093 . S
Co1416 O1440 2.097 . S
Co1416 N1457 2.151 . S
Co1416 N1465 2.214 . S
Co1417 O1418 2.160 . S
Co1417 O1423 2.058 . S
Co1417 O1433 2.057 . S
Co1417 O1448 2.037 . S
Co1417 N1452 2.145 . S
Co1417 N1473 2.257 . S
O1418 Co1416 2.143 . S
O1418 Co1417 2.160 . S
C1419 O1420 1.278 . S
C1419 O1427 1.224 . S
O1420 C1419 1.278 . S
C1421 O1422 1.245 . S
C1421 O1433 1.232 . S
O1422 C1421 1.245 . S
O1423 Co1417 2.058 . S
O1423 C1449 1.269 . S
O1424 Co1416 2.074 . S
O1424 C1449 1.257 . S
H1425 C1450 0.930 . S
H1426 C1456 0.930 . S
O1427 Co1416 2.093 . S
O1427 C1419 1.224 . S
H1428 C1460 0.929 . S
H1429 C1462 0.930 . S
H1430 C1463 0.930 . S
H1431 C1461 0.929 . S
H1432 C1464 0.928 . S
O1433 Co1417 2.057 . S
O1433 C1421 1.232 . S
H1434 C1453 0.929 . S
H1435 C1454 0.929 . S
H1436 C1466 0.931 . S
H1437 C1458 0.929 . S
H1438 C1467 0.930 . S
H1439 C1459 0.931 . S
O1440 Co1416 2.097 . S
O1440 C1468 1.214 . S
H1441 C1469 0.929 . S
H1442 C1470 0.929 . S
H1443 C1471 0.930 . S
H1444 C1472 0.929 . S
H1445 C1474 0.930 . S
H1446 C1451 0.930 . S
H1447 C1455 0.930 . S
O1448 Co1417 2.037 . S
O1448 C1468 1.234 . S
C1449 O1423 1.269 . S
C1449 O1424 1.257 . S
C1450 H1425 0.930 . S
C1450 C1453 1.388 . S
C1450 C1455 1.418 . S
C1451 H1446 0.930 . S
C1451 C1454 1.404 . S
C1451 C1455 1.353 . S
N1452 Co1417 2.145 . S
N1452 C1453 1.397 . S
N1452 C1454 1.334 . S
C1453 H1434 0.929 . S
C1453 C1450 1.388 . S
C1453 N1452 1.397 . S
C1454 H1435 0.929 . S
C1454 C1451 1.404 . S
C1454 N1452 1.334 . S
C1455 H1447 0.930 . S
C1455 C1450 1.418 . S
C1455 C1451 1.353 . S
C1456 H1426 0.930 . S
C1456 N1457 1.330 . S
C1456 C1458 1.446 . S
N1457 Co1416 2.151 . S
N1457 C1456 1.330 . S
N1457 C1461 1.418 . S
C1458 H1437 0.929 . S
C1458 C1456 1.446 . S
C1458 C1459 1.332 . S
C1459 H1439 0.931 . S
C1459 C1458 1.332 . S
C1459 C1460 1.267 . S
C1460 H1428 0.929 . S
C1460 C1459 1.267 . S
C1460 C1461 1.251 . S
C1461 H1431 0.929 . S
C1461 N1457 1.418 . S
C1461 C1460 1.251 . S
C1462 H1429 0.930 . S
C1462 C1464 1.406 . S
C1462 C1467 1.261 . S
C1463 H1430 0.930 . S
C1463 N1465 1.325 . S
C1463 C1466 1.357 . S
C1464 H1432 0.928 . S
C1464 C1462 1.406 . S
C1464 N1465 1.261 . S
N1465 Co1416 2.214 . S
N1465 C1463 1.325 . S
N1465 C1464 1.261 . S
C1466 H1436 0.931 . S
C1466 C1463 1.357 . S
C1466 C1467 1.312 . S
C1467 H1438 0.930 . S
C1467 C1462 1.261 . S
C1467 C1466 1.312 . S
C1468 O1440 1.214 . S
C1468 O1448 1.234 . S
C1469 H1441 0.929 . S
C1469 C1472 1.391 . S
C1469 C1474 1.391 . S
C1470 H1442 0.929 . S
C1470 C1471 1.390 . S
C1470 N1473 1.391 . S
C1471 H1443 0.930 . S
C1471 C1470 1.390 . S
C1471 C1472 1.392 . S
C1472 H1444 0.929 . S
C1472 C1469 1.391 . S
C1472 C1471 1.392 . S
N1473 Co1417 2.257 . S
N1473 C1470 1.391 . S
N1473 C1474 1.388 . S
C1474 H1445 0.930 . S
C1474 C1469 1.391 . S
C1474 N1473 1.388 . S
Co1475 O1477 2.143 . S
Co1475 O1483 2.074 . S
Co1475 O1486 2.093 . S
Co1475 O1499 2.097 . S
Co1475 N1516 2.151 . S
Co1475 N1524 2.214 . S
Co1476 O1477 2.160 . S
Co1476 O1482 2.058 . S
Co1476 O1492 2.057 . S
Co1476 O1507 2.037 . S
Co1476 N1511 2.145 . S
Co1476 N1532 2.257 . S
O1477 Co1475 2.143 . S
O1477 Co1476 2.160 . S
C1478 O1479 1.278 . S
C1478 O1486 1.224 . S
O1479 C1478 1.278 . S
C1480 O1481 1.245 . S
C1480 O1492 1.232 . S
O1481 C1480 1.245 . S
O1482 Co1476 2.058 . S
O1482 C1508 1.269 . S
O1483 Co1475 2.074 . S
O1483 C1508 1.257 . S
H1484 C1509 0.930 . S
H1485 C1515 0.930 . S
O1486 Co1475 2.093 . S
O1486 C1478 1.224 . S
H1487 C1519 0.929 . S
H1488 C1521 0.930 . S
H1489 C1522 0.930 . S
H1490 C1520 0.929 . S
H1491 C1523 0.928 . S
O1492 Co1476 2.057 . S
O1492 C1480 1.232 . S
H1493 C1512 0.929 . S
H1494 C1513 0.929 . S
H1495 C1525 0.931 . S
H1496 C1517 0.929 . S
H1497 C1526 0.930 . S
H1498 C1518 0.931 . S
O1499 Co1475 2.097 . S
O1499 C1527 1.214 . S
H1500 C1528 0.929 . S
H1501 C1529 0.929 . S
H1502 C1530 0.930 . S
H1503 C1531 0.929 . S
H1504 C1533 0.930 . S
H1505 C1510 0.930 . S
H1506 C1514 0.930 . S
O1507 Co1476 2.037 . S
O1507 C1527 1.234 . S
C1508 O1482 1.269 . S
C1508 O1483 1.257 . S
C1509 H1484 0.930 . S
C1509 C1512 1.388 . S
C1509 C1514 1.418 . S
C1510 H1505 0.930 . S
C1510 C1513 1.404 . S
C1510 C1514 1.353 . S
N1511 Co1476 2.145 . S
N1511 C1512 1.397 . S
N1511 C1513 1.334 . S
C1512 H1493 0.929 . S
C1512 C1509 1.388 . S
C1512 N1511 1.397 . S
C1513 H1494 0.929 . S
C1513 C1510 1.404 . S
C1513 N1511 1.334 . S
C1514 H1506 0.930 . S
C1514 C1509 1.418 . S
C1514 C1510 1.353 . S
C1515 H1485 0.930 . S
C1515 N1516 1.330 . S
C1515 C1517 1.446 . S
N1516 Co1475 2.151 . S
N1516 C1515 1.330 . S
N1516 C1520 1.418 . S
C1517 H1496 0.929 . S
C1517 C1515 1.446 . S
C1517 C1518 1.332 . S
C1518 H1498 0.931 . S
C1518 C1517 1.332 . S
C1518 C1519 1.267 . S
C1519 H1487 0.929 . S
C1519 C1518 1.267 . S
C1519 C1520 1.251 . S
C1520 H1490 0.929 . S
C1520 N1516 1.418 . S
C1520 C1519 1.251 . S
C1521 H1488 0.930 . S
C1521 C1523 1.406 . S
C1521 C1526 1.261 . S
C1522 H1489 0.930 . S
C1522 N1524 1.325 . S
C1522 C1525 1.357 . S
C1523 H1491 0.928 . S
C1523 C1521 1.406 . S
C1523 N1524 1.261 . S
N1524 Co1475 2.214 . S
N1524 C1522 1.325 . S
N1524 C1523 1.261 . S
C1525 H1495 0.931 . S
C1525 C1522 1.357 . S
C1525 C1526 1.312 . S
C1526 H1497 0.930 . S
C1526 C1521 1.261 . S
C1526 C1525 1.312 . S
C1527 O1499 1.214 . S
C1527 O1507 1.234 . S
C1528 H1500 0.929 . S
C1528 C1531 1.391 . S
C1528 C1533 1.391 . S
C1529 H1501 0.929 . S
C1529 C1530 1.390 . S
C1529 N1532 1.391 . S
C1530 H1502 0.930 . S
C1530 C1529 1.390 . S
C1530 C1531 1.392 . S
C1531 H1503 0.929 . S
C1531 C1528 1.391 . S
C1531 C1530 1.392 . S
N1532 Co1476 2.257 . S
N1532 C1529 1.391 . S
N1532 C1533 1.388 . S
C1533 H1504 0.930 . S
C1533 C1528 1.391 . S
C1533 N1532 1.388 . S
Co1534 O1536 2.143 . S
Co1534 O1542 2.074 . S
Co1534 O1545 2.093 . S
Co1534 O1558 2.097 . S
Co1534 N1575 2.151 . S
Co1534 N1583 2.214 . S
Co1535 O1536 2.160 . S
Co1535 O1541 2.058 . S
Co1535 O1551 2.057 . S
Co1535 O1566 2.037 . S
Co1535 N1570 2.145 . S
Co1535 N1591 2.257 . S
O1536 Co1534 2.143 . S
O1536 Co1535 2.160 . S
C1537 O1538 1.278 . S
C1537 O1545 1.224 . S
O1538 C1537 1.278 . S
C1539 O1540 1.245 . S
C1539 O1551 1.232 . S
O1540 C1539 1.245 . S
O1541 Co1535 2.058 . S
O1541 C1567 1.269 . S
O1542 Co1534 2.074 . S
O1542 C1567 1.257 . S
H1543 C1568 0.930 . S
H1544 C1574 0.930 . S
O1545 Co1534 2.093 . S
O1545 C1537 1.224 . S
H1546 C1578 0.929 . S
H1547 C1580 0.930 . S
H1548 C1581 0.930 . S
H1549 C1579 0.929 . S
H1550 C1582 0.928 . S
O1551 Co1535 2.057 . S
O1551 C1539 1.232 . S
H1552 C1571 0.929 . S
H1553 C1572 0.929 . S
H1554 C1584 0.931 . S
H1555 C1576 0.929 . S
H1556 C1585 0.930 . S
H1557 C1577 0.931 . S
O1558 Co1534 2.097 . S
O1558 C1586 1.214 . S
H1559 C1587 0.929 . S
H1560 C1588 0.929 . S
H1561 C1589 0.930 . S
H1562 C1590 0.929 . S
H1563 C1592 0.930 . S
H1564 C1569 0.930 . S
H1565 C1573 0.930 . S
O1566 Co1535 2.037 . S
O1566 C1586 1.234 . S
C1567 O1541 1.269 . S
C1567 O1542 1.257 . S
C1568 H1543 0.930 . S
C1568 C1571 1.388 . S
C1568 C1573 1.418 . S
C1569 H1564 0.930 . S
C1569 C1572 1.404 . S
C1569 C1573 1.353 . S
N1570 Co1535 2.145 . S
N1570 C1571 1.397 . S
N1570 C1572 1.334 . S
C1571 H1552 0.929 . S
C1571 C1568 1.388 . S
C1571 N1570 1.397 . S
C1572 H1553 0.929 . S
C1572 C1569 1.404 . S
C1572 N1570 1.334 . S
C1573 H1565 0.930 . S
C1573 C1568 1.418 . S
C1573 C1569 1.353 . S
C1574 H1544 0.930 . S
C1574 N1575 1.330 . S
C1574 C1576 1.446 . S
N1575 Co1534 2.151 . S
N1575 C1574 1.330 . S
N1575 C1579 1.418 . S
C1576 H1555 0.929 . S
C1576 C1574 1.446 . S
C1576 C1577 1.332 . S
C1577 H1557 0.931 . S
C1577 C1576 1.332 . S
C1577 C1578 1.267 . S
C1578 H1546 0.929 . S
C1578 C1577 1.267 . S
C1578 C1579 1.251 . S
C1579 H1549 0.929 . S
C1579 N1575 1.418 . S
C1579 C1578 1.251 . S
C1580 H1547 0.930 . S
C1580 C1582 1.406 . S
C1580 C1585 1.261 . S
C1581 H1548 0.930 . S
C1581 N1583 1.325 . S
C1581 C1584 1.357 . S
C1582 H1550 0.928 . S
C1582 C1580 1.406 . S
C1582 N1583 1.261 . S
N1583 Co1534 2.214 . S
N1583 C1581 1.325 . S
N1583 C1582 1.261 . S
C1584 H1554 0.931 . S
C1584 C1581 1.357 . S
C1584 C1585 1.312 . S
C1585 H1556 0.930 . S
C1585 C1580 1.261 . S
C1585 C1584 1.312 . S
C1586 O1558 1.214 . S
C1586 O1566 1.234 . S
C1587 H1559 0.929 . S
C1587 C1590 1.391 . S
C1587 C1592 1.391 . S
C1588 H1560 0.929 . S
C1588 C1589 1.390 . S
C1588 N1591 1.391 . S
C1589 H1561 0.930 . S
C1589 C1588 1.390 . S
C1589 C1590 1.392 . S
C1590 H1562 0.929 . S
C1590 C1587 1.391 . S
C1590 C1589 1.392 . S
N1591 Co1535 2.257 . S
N1591 C1588 1.391 . S
N1591 C1592 1.388 . S
C1592 H1563 0.930 . S
C1592 C1587 1.391 . S
C1592 N1591 1.388 . S
Co1593 O1595 2.143 . S
Co1593 O1601 2.074 . S
Co1593 O1604 2.093 . S
Co1593 O1617 2.097 . S
Co1593 N1634 2.151 . S
Co1593 N1642 2.214 . S
Co1594 O1595 2.160 . S
Co1594 O1600 2.058 . S
Co1594 O1610 2.057 . S
Co1594 O1625 2.037 . S
Co1594 N1629 2.145 . S
Co1594 N1650 2.257 . S
O1595 Co1593 2.143 . S
O1595 Co1594 2.160 . S
C1596 O1597 1.278 . S
C1596 O1604 1.224 . S
O1597 C1596 1.278 . S
C1598 O1599 1.245 . S
C1598 O1610 1.232 . S
O1599 C1598 1.245 . S
O1600 Co1594 2.058 . S
O1600 C1626 1.269 . S
O1601 Co1593 2.074 . S
O1601 C1626 1.257 . S
H1602 C1627 0.930 . S
H1603 C1633 0.930 . S
O1604 Co1593 2.093 . S
O1604 C1596 1.224 . S
H1605 C1637 0.929 . S
H1606 C1639 0.930 . S
H1607 C1640 0.930 . S
H1608 C1638 0.929 . S
H1609 C1641 0.928 . S
O1610 Co1594 2.057 . S
O1610 C1598 1.232 . S
H1611 C1630 0.929 . S
H1612 C1631 0.929 . S
H1613 C1643 0.931 . S
H1614 C1635 0.929 . S
H1615 C1644 0.930 . S
H1616 C1636 0.931 . S
O1617 Co1593 2.097 . S
O1617 C1645 1.214 . S
H1618 C1646 0.929 . S
H1619 C1647 0.929 . S
H1620 C1648 0.930 . S
H1621 C1649 0.929 . S
H1622 C1651 0.930 . S
H1623 C1628 0.930 . S
H1624 C1632 0.930 . S
O1625 Co1594 2.037 . S
O1625 C1645 1.234 . S
C1626 O1600 1.269 . S
C1626 O1601 1.257 . S
C1627 H1602 0.930 . S
C1627 C1630 1.388 . S
C1627 C1632 1.418 . S
C1628 H1623 0.930 . S
C1628 C1631 1.404 . S
C1628 C1632 1.353 . S
N1629 Co1594 2.145 . S
N1629 C1630 1.397 . S
N1629 C1631 1.334 . S
C1630 H1611 0.929 . S
C1630 C1627 1.388 . S
C1630 N1629 1.397 . S
C1631 H1612 0.929 . S
C1631 C1628 1.404 . S
C1631 N1629 1.334 . S
C1632 H1624 0.930 . S
C1632 C1627 1.418 . S
C1632 C1628 1.353 . S
C1633 H1603 0.930 . S
C1633 N1634 1.330 . S
C1633 C1635 1.446 . S
N1634 Co1593 2.151 . S
N1634 C1633 1.330 . S
N1634 C1638 1.418 . S
C1635 H1614 0.929 . S
C1635 C1633 1.446 . S
C1635 C1636 1.332 . S
C1636 H1616 0.931 . S
C1636 C1635 1.332 . S
C1636 C1637 1.267 . S
C1637 H1605 0.929 . S
C1637 C1636 1.267 . S
C1637 C1638 1.251 . S
C1638 H1608 0.929 . S
C1638 N1634 1.418 . S
C1638 C1637 1.251 . S
C1639 H1606 0.930 . S
C1639 C1641 1.406 . S
C1639 C1644 1.261 . S
C1640 H1607 0.930 . S
C1640 N1642 1.325 . S
C1640 C1643 1.357 . S
C1641 H1609 0.928 . S
C1641 C1639 1.406 . S
C1641 N1642 1.261 . S
N1642 Co1593 2.214 . S
N1642 C1640 1.325 . S
N1642 C1641 1.261 . S
C1643 H1613 0.931 . S
C1643 C1640 1.357 . S
C1643 C1644 1.312 . S
C1644 H1615 0.930 . S
C1644 C1639 1.261 . S
C1644 C1643 1.312 . S
C1645 O1617 1.214 . S
C1645 O1625 1.234 . S
C1646 H1618 0.929 . S
C1646 C1649 1.391 . S
C1646 C1651 1.391 . S
C1647 H1619 0.929 . S
C1647 C1648 1.390 . S
C1647 N1650 1.391 . S
C1648 H1620 0.930 . S
C1648 C1647 1.390 . S
C1648 C1649 1.392 . S
C1649 H1621 0.929 . S
C1649 C1646 1.391 . S
C1649 C1648 1.392 . S
N1650 Co1594 2.257 . S
N1650 C1647 1.391 . S
N1650 C1651 1.388 . S
C1651 H1622 0.930 . S
C1651 C1646 1.391 . S
C1651 N1650 1.388 . S
Co1652 O1654 2.143 . S
Co1652 O1660 2.074 . S
Co1652 O1663 2.093 . S
Co1652 O1676 2.097 . S
Co1652 N1693 2.151 . S
Co1652 N1701 2.214 . S
Co1653 O1654 2.160 . S
Co1653 O1659 2.058 . S
Co1653 O1669 2.057 . S
Co1653 O1684 2.037 . S
Co1653 N1688 2.145 . S
Co1653 N1709 2.257 . S
O1654 Co1652 2.143 . S
O1654 Co1653 2.160 . S
C1655 O1656 1.278 . S
C1655 O1663 1.224 . S
O1656 C1655 1.278 . S
C1657 O1658 1.245 . S
C1657 O1669 1.232 . S
O1658 C1657 1.245 . S
O1659 Co1653 2.058 . S
O1659 C1685 1.269 . S
O1660 Co1652 2.074 . S
O1660 C1685 1.257 . S
H1661 C1686 0.930 . S
H1662 C1692 0.930 . S
O1663 Co1652 2.093 . S
O1663 C1655 1.224 . S
H1664 C1696 0.929 . S
H1665 C1698 0.930 . S
H1666 C1699 0.930 . S
H1667 C1697 0.929 . S
H1668 C1700 0.928 . S
O1669 Co1653 2.057 . S
O1669 C1657 1.232 . S
H1670 C1689 0.929 . S
H1671 C1690 0.929 . S
H1672 C1702 0.931 . S
H1673 C1694 0.929 . S
H1674 C1703 0.930 1_565 S
H1675 C1695 0.931 . S
O1676 Co1652 2.097 . S
O1676 C1704 1.214 . S
H1677 C1705 0.929 . S
H1678 C1706 0.929 . S
H1679 C1707 0.930 . S
H1680 C1708 0.929 . S
H1681 C1710 0.930 . S
H1682 C1687 0.930 . S
H1683 C1691 0.930 . S
O1684 Co1653 2.037 . S
O1684 C1704 1.234 . S
C1685 O1659 1.269 . S
C1685 O1660 1.257 . S
C1686 H1661 0.930 . S
C1686 C1689 1.388 . S
C1686 C1691 1.418 . S
C1687 H1682 0.930 . S
C1687 C1690 1.404 . S
C1687 C1691 1.353 . S
N1688 Co1653 2.145 . S
N1688 C1689 1.397 . S
N1688 C1690 1.334 . S
C1689 H1670 0.929 . S
C1689 C1686 1.388 . S
C1689 N1688 1.397 . S
C1690 H1671 0.929 . S
C1690 C1687 1.404 . S
C1690 N1688 1.334 . S
C1691 H1683 0.930 . S
C1691 C1686 1.418 . S
C1691 C1687 1.353 . S
C1692 H1662 0.930 . S
C1692 N1693 1.330 . S
C1692 C1694 1.446 . S
N1693 Co1652 2.151 . S
N1693 C1692 1.330 . S
N1693 C1697 1.418 . S
C1694 H1673 0.929 . S
C1694 C1692 1.446 . S
C1694 C1695 1.332 . S
C1695 H1675 0.931 . S
C1695 C1694 1.332 . S
C1695 C1696 1.267 . S
C1696 H1664 0.929 . S
C1696 C1695 1.267 . S
C1696 C1697 1.251 . S
C1697 H1667 0.929 . S
C1697 N1693 1.418 . S
C1697 C1696 1.251 . S
C1698 H1665 0.930 . S
C1698 C1700 1.406 . S
C1698 C1703 1.261 . S
C1699 H1666 0.930 . S
C1699 N1701 1.325 . S
C1699 C1702 1.357 . S
C1700 H1668 0.928 . S
C1700 C1698 1.406 . S
C1700 N1701 1.261 . S
N1701 Co1652 2.214 . S
N1701 C1699 1.325 . S
N1701 C1700 1.261 . S
C1702 H1672 0.931 . S
C1702 C1699 1.357 . S
C1702 C1703 1.312 . S
C1703 H1674 0.930 1_545 S
C1703 C1698 1.261 . S
C1703 C1702 1.312 . S
C1704 O1676 1.214 . S
C1704 O1684 1.234 . S
C1705 H1677 0.929 . S
C1705 C1708 1.391 . S
C1705 C1710 1.391 . S
C1706 H1678 0.929 . S
C1706 C1707 1.390 . S
C1706 N1709 1.391 . S
C1707 H1679 0.930 . S
C1707 C1706 1.390 . S
C1707 C1708 1.392 . S
C1708 H1680 0.929 . S
C1708 C1705 1.391 . S
C1708 C1707 1.392 . S
N1709 Co1653 2.257 . S
N1709 C1706 1.391 . S
N1709 C1710 1.388 . S
C1710 H1681 0.930 . S
C1710 C1705 1.391 . S
C1710 N1709 1.388 . S
Co1711 O1713 2.143 . S
Co1711 O1719 2.074 . S
Co1711 O1722 2.093 . S
Co1711 O1735 2.097 . S
Co1711 N1752 2.151 . S
Co1711 N1760 2.214 . S
Co1712 O1713 2.160 . S
Co1712 O1718 2.058 . S
Co1712 O1728 2.057 . S
Co1712 O1743 2.037 . S
Co1712 N1747 2.145 . S
Co1712 N1768 2.257 . S
O1713 Co1711 2.143 . S
O1713 Co1712 2.160 . S
C1714 O1715 1.278 . S
C1714 O1722 1.224 . S
O1715 C1714 1.278 . S
C1716 O1717 1.245 . S
C1716 O1728 1.232 . S
O1717 C1716 1.245 . S
O1718 Co1712 2.058 . S
O1718 C1744 1.269 . S
O1719 Co1711 2.074 . S
O1719 C1744 1.257 . S
H1720 C1745 0.930 . S
H1721 C1751 0.930 . S
O1722 Co1711 2.093 . S
O1722 C1714 1.224 . S
H1723 C1755 0.929 . S
H1724 C1757 0.930 . S
H1725 C1758 0.930 . S
H1726 C1756 0.929 . S
H1727 C1759 0.928 . S
O1728 Co1712 2.057 . S
O1728 C1716 1.232 . S
H1729 C1748 0.929 . S
H1730 C1749 0.929 . S
H1731 C1761 0.931 . S
H1732 C1753 0.929 . S
H1733 C1762 0.930 . S
H1734 C1754 0.931 . S
O1735 Co1711 2.097 . S
O1735 C1763 1.214 . S
H1736 C1764 0.929 . S
H1737 C1765 0.929 . S
H1738 C1766 0.930 . S
H1739 C1767 0.929 . S
H1740 C1769 0.930 . S
H1741 C1746 0.930 . S
H1742 C1750 0.930 . S
O1743 Co1712 2.037 . S
O1743 C1763 1.234 . S
C1744 O1718 1.269 . S
C1744 O1719 1.257 . S
C1745 H1720 0.930 . S
C1745 C1748 1.388 . S
C1745 C1750 1.418 . S
C1746 H1741 0.930 . S
C1746 C1749 1.404 . S
C1746 C1750 1.353 . S
N1747 Co1712 2.145 . S
N1747 C1748 1.397 . S
N1747 C1749 1.334 . S
C1748 H1729 0.929 . S
C1748 C1745 1.388 . S
C1748 N1747 1.397 . S
C1749 H1730 0.929 . S
C1749 C1746 1.404 . S
C1749 N1747 1.334 . S
C1750 H1742 0.930 . S
C1750 C1745 1.418 . S
C1750 C1746 1.353 . S
C1751 H1721 0.930 . S
C1751 N1752 1.330 . S
C1751 C1753 1.446 . S
N1752 Co1711 2.151 . S
N1752 C1751 1.330 . S
N1752 C1756 1.418 . S
C1753 H1732 0.929 . S
C1753 C1751 1.446 . S
C1753 C1754 1.332 . S
C1754 H1734 0.931 . S
C1754 C1753 1.332 . S
C1754 C1755 1.267 . S
C1755 H1723 0.929 . S
C1755 C1754 1.267 . S
C1755 C1756 1.251 . S
C1756 H1726 0.929 . S
C1756 N1752 1.418 . S
C1756 C1755 1.251 . S
C1757 H1724 0.930 . S
C1757 C1759 1.406 . S
C1757 C1762 1.261 . S
C1758 H1725 0.930 . S
C1758 N1760 1.325 . S
C1758 C1761 1.357 . S
C1759 H1727 0.928 . S
C1759 C1757 1.406 . S
C1759 N1760 1.261 . S
N1760 Co1711 2.214 . S
N1760 C1758 1.325 . S
N1760 C1759 1.261 . S
C1761 H1731 0.931 . S
C1761 C1758 1.357 . S
C1761 C1762 1.312 . S
C1762 H1733 0.930 . S
C1762 C1757 1.261 . S
C1762 C1761 1.312 . S
C1763 O1735 1.214 . S
C1763 O1743 1.234 . S
C1764 H1736 0.929 . S
C1764 C1767 1.391 . S
C1764 C1769 1.391 . S
C1765 H1737 0.929 . S
C1765 C1766 1.390 . S
C1765 N1768 1.391 . S
C1766 H1738 0.930 . S
C1766 C1765 1.390 . S
C1766 C1767 1.392 . S
C1767 H1739 0.929 . S
C1767 C1764 1.391 . S
C1767 C1766 1.392 . S
N1768 Co1712 2.257 . S
N1768 C1765 1.391 . S
N1768 C1769 1.388 . S
C1769 H1740 0.930 . S
C1769 C1764 1.391 . S
C1769 N1768 1.388 . S
Co1770 O1772 2.143 . S
Co1770 O1778 2.074 . S
Co1770 O1781 2.093 . S
Co1770 O1794 2.097 . S
Co1770 N1811 2.151 . S
Co1770 N1819 2.214 . S
Co1771 O1772 2.160 . S
Co1771 O1777 2.058 . S
Co1771 O1787 2.057 . S
Co1771 O1802 2.037 . S
Co1771 N1806 2.145 . S
Co1771 N1827 2.257 . S
O1772 Co1770 2.143 . S
O1772 Co1771 2.160 . S
C1773 O1774 1.278 . S
C1773 O1781 1.224 . S
O1774 C1773 1.278 . S
C1775 O1776 1.245 . S
C1775 O1787 1.232 . S
O1776 C1775 1.245 . S
O1777 Co1771 2.058 . S
O1777 C1803 1.269 . S
O1778 Co1770 2.074 . S
O1778 C1803 1.257 . S
H1779 C1804 0.930 . S
H1780 C1810 0.930 . S
O1781 Co1770 2.093 . S
O1781 C1773 1.224 . S
H1782 C1814 0.929 . S
H1783 C1816 0.930 . S
H1784 C1817 0.930 . S
H1785 C1815 0.929 . S
H1786 C1818 0.928 . S
O1787 Co1771 2.057 . S
O1787 C1775 1.232 . S
H1788 C1807 0.929 . S
H1789 C1808 0.929 . S
H1790 C1820 0.931 . S
H1791 C1812 0.929 . S
H1792 C1821 0.930 1_545 S
H1793 C1813 0.931 . S
O1794 Co1770 2.097 . S
O1794 C1822 1.214 . S
H1795 C1823 0.929 . S
H1796 C1824 0.929 . S
H1797 C1825 0.930 . S
H1798 C1826 0.929 . S
H1799 C1828 0.930 . S
H1800 C1805 0.930 . S
H1801 C1809 0.930 . S
O1802 Co1771 2.037 . S
O1802 C1822 1.234 . S
C1803 O1777 1.269 . S
C1803 O1778 1.257 . S
C1804 H1779 0.930 . S
C1804 C1807 1.388 . S
C1804 C1809 1.418 . S
C1805 H1800 0.930 . S
C1805 C1808 1.404 . S
C1805 C1809 1.353 . S
N1806 Co1771 2.145 . S
N1806 C1807 1.397 . S
N1806 C1808 1.334 . S
C1807 H1788 0.929 . S
C1807 C1804 1.388 . S
C1807 N1806 1.397 . S
C1808 H1789 0.929 . S
C1808 C1805 1.404 . S
C1808 N1806 1.334 . S
C1809 H1801 0.930 . S
C1809 C1804 1.418 . S
C1809 C1805 1.353 . S
C1810 H1780 0.930 . S
C1810 N1811 1.330 . S
C1810 C1812 1.446 . S
N1811 Co1770 2.151 . S
N1811 C1810 1.330 . S
N1811 C1815 1.418 . S
C1812 H1791 0.929 . S
C1812 C1810 1.446 . S
C1812 C1813 1.332 . S
C1813 H1793 0.931 . S
C1813 C1812 1.332 . S
C1813 C1814 1.267 . S
C1814 H1782 0.929 . S
C1814 C1813 1.267 . S
C1814 C1815 1.251 . S
C1815 H1785 0.929 . S
C1815 N1811 1.418 . S
C1815 C1814 1.251 . S
C1816 H1783 0.930 . S
C1816 C1818 1.406 . S
C1816 C1821 1.261 . S
C1817 H1784 0.930 . S
C1817 N1819 1.325 . S
C1817 C1820 1.357 . S
C1818 H1786 0.928 . S
C1818 C1816 1.406 . S
C1818 N1819 1.261 . S
N1819 Co1770 2.214 . S
N1819 C1817 1.325 . S
N1819 C1818 1.261 . S
C1820 H1790 0.931 . S
C1820 C1817 1.357 . S
C1820 C1821 1.312 . S
C1821 H1792 0.930 1_565 S
C1821 C1816 1.261 . S
C1821 C1820 1.312 . S
C1822 O1794 1.214 . S
C1822 O1802 1.234 . S
C1823 H1795 0.929 . S
C1823 C1826 1.391 . S
C1823 C1828 1.391 . S
C1824 H1796 0.929 . S
C1824 C1825 1.390 . S
C1824 N1827 1.391 . S
C1825 H1797 0.930 . S
C1825 C1824 1.390 . S
C1825 C1826 1.392 . S
C1826 H1798 0.929 . S
C1826 C1823 1.391 . S
C1826 C1825 1.392 . S
N1827 Co1771 2.257 . S
N1827 C1824 1.391 . S
N1827 C1828 1.388 . S
C1828 H1799 0.930 . S
C1828 C1823 1.391 . S
C1828 N1827 1.388 . S
Co1829 O1831 2.143 . S
Co1829 O1837 2.074 . S
Co1829 O1840 2.093 . S
Co1829 O1853 2.097 . S
Co1829 N1870 2.151 . S
Co1829 N1878 2.214 . S
Co1830 O1831 2.160 . S
Co1830 O1836 2.058 . S
Co1830 O1846 2.057 . S
Co1830 O1861 2.037 . S
Co1830 N1865 2.145 . S
Co1830 N1886 2.257 . S
O1831 Co1829 2.143 . S
O1831 Co1830 2.160 . S
C1832 O1833 1.278 . S
C1832 O1840 1.224 . S
O1833 C1832 1.278 . S
C1834 O1835 1.245 . S
C1834 O1846 1.232 . S
O1835 C1834 1.245 . S
O1836 Co1830 2.058 . S
O1836 C1862 1.269 . S
O1837 Co1829 2.074 . S
O1837 C1862 1.257 . S
H1838 C1863 0.930 . S
H1839 C1869 0.930 . S
O1840 Co1829 2.093 . S
O1840 C1832 1.224 . S
H1841 C1873 0.929 . S
H1842 C1875 0.930 . S
H1843 C1876 0.930 . S
H1844 C1874 0.929 . S
H1845 C1877 0.928 . S
O1846 Co1830 2.057 . S
O1846 C1834 1.232 . S
H1847 C1866 0.929 . S
H1848 C1867 0.929 . S
H1849 C1879 0.931 . S
H1850 C1871 0.929 . S
H1851 C1880 0.930 . S
H1852 C1872 0.931 . S
O1853 Co1829 2.097 . S
O1853 C1881 1.214 . S
H1854 C1882 0.929 . S
H1855 C1883 0.929 . S
H1856 C1884 0.930 . S
H1857 C1885 0.929 . S
H1858 C1887 0.930 . S
H1859 C1864 0.930 . S
H1860 C1868 0.930 . S
O1861 Co1830 2.037 . S
O1861 C1881 1.234 . S
C1862 O1836 1.269 . S
C1862 O1837 1.257 . S
C1863 H1838 0.930 . S
C1863 C1866 1.388 . S
C1863 C1868 1.418 . S
C1864 H1859 0.930 . S
C1864 C1867 1.404 . S
C1864 C1868 1.353 . S
N1865 Co1830 2.145 . S
N1865 C1866 1.397 . S
N1865 C1867 1.334 . S
C1866 H1847 0.929 . S
C1866 C1863 1.388 . S
C1866 N1865 1.397 . S
C1867 H1848 0.929 . S
C1867 C1864 1.404 . S
C1867 N1865 1.334 . S
C1868 H1860 0.930 . S
C1868 C1863 1.418 . S
C1868 C1864 1.353 . S
C1869 H1839 0.930 . S
C1869 N1870 1.330 . S
C1869 C1871 1.446 . S
N1870 Co1829 2.151 . S
N1870 C1869 1.330 . S
N1870 C1874 1.418 . S
C1871 H1850 0.929 . S
C1871 C1869 1.446 . S
C1871 C1872 1.332 . S
C1872 H1852 0.931 . S
C1872 C1871 1.332 . S
C1872 C1873 1.267 . S
C1873 H1841 0.929 . S
C1873 C1872 1.267 . S
C1873 C1874 1.251 . S
C1874 H1844 0.929 . S
C1874 N1870 1.418 . S
C1874 C1873 1.251 . S
C1875 H1842 0.930 . S
C1875 C1877 1.406 . S
C1875 C1880 1.261 . S
C1876 H1843 0.930 . S
C1876 N1878 1.325 . S
C1876 C1879 1.357 . S
C1877 H1845 0.928 . S
C1877 C1875 1.406 . S
C1877 N1878 1.261 . S
N1878 Co1829 2.214 . S
N1878 C1876 1.325 . S
N1878 C1877 1.261 . S
C1879 H1849 0.931 . S
C1879 C1876 1.357 . S
C1879 C1880 1.312 . S
C1880 H1851 0.930 . S
C1880 C1875 1.261 . S
C1880 C1879 1.312 . S
C1881 O1853 1.214 . S
C1881 O1861 1.234 . S
C1882 H1854 0.929 . S
C1882 C1885 1.391 . S
C1882 C1887 1.391 . S
C1883 H1855 0.929 . S
C1883 C1884 1.390 . S
C1883 N1886 1.391 . S
C1884 H1856 0.930 . S
C1884 C1883 1.390 . S
C1884 C1885 1.392 . S
C1885 H1857 0.929 . S
C1885 C1882 1.391 . S
C1885 C1884 1.392 . S
N1886 Co1830 2.257 . S
N1886 C1883 1.391 . S
N1886 C1887 1.388 . S
C1887 H1858 0.930 . S
C1887 C1882 1.391 . S
C1887 N1886 1.388 . S
Co1888 O1890 2.143 . S
Co1888 O1896 2.074 . S
Co1888 O1899 2.093 . S
Co1888 O1912 2.097 . S
Co1888 N1929 2.151 . S
Co1888 N1937 2.214 . S
Co1889 O1890 2.160 . S
Co1889 O1895 2.058 . S
Co1889 O1905 2.057 . S
Co1889 O1920 2.037 . S
Co1889 N1924 2.145 . S
Co1889 N1945 2.257 . S
O1890 Co1888 2.143 . S
O1890 Co1889 2.160 . S
C1891 O1892 1.278 . S
C1891 O1899 1.224 . S
O1892 C1891 1.278 . S
C1893 O1894 1.245 . S
C1893 O1905 1.232 . S
O1894 C1893 1.245 . S
O1895 Co1889 2.058 . S
O1895 C1921 1.269 . S
O1896 Co1888 2.074 . S
O1896 C1921 1.257 . S
H1897 C1922 0.930 . S
H1898 C1928 0.930 . S
O1899 Co1888 2.093 . S
O1899 C1891 1.224 . S
H1900 C1932 0.929 . S
H1901 C1934 0.930 . S
H1902 C1935 0.930 . S
H1903 C1933 0.929 . S
H1904 C1936 0.928 . S
O1905 Co1889 2.057 . S
O1905 C1893 1.232 . S
H1906 C1925 0.929 . S
H1907 C1926 0.929 . S
H1908 C1938 0.931 . S
H1909 C1930 0.929 . S
H1910 C1939 0.930 . S
H1911 C1931 0.931 . S
O1912 Co1888 2.097 . S
O1912 C1940 1.214 . S
H1913 C1941 0.929 . S
H1914 C1942 0.929 . S
H1915 C1943 0.930 . S
H1916 C1944 0.929 . S
H1917 C1946 0.930 . S
H1918 C1923 0.930 . S
H1919 C1927 0.930 . S
O1920 Co1889 2.037 . S
O1920 C1940 1.234 . S
C1921 O1895 1.269 . S
C1921 O1896 1.257 . S
C1922 H1897 0.930 . S
C1922 C1925 1.388 . S
C1922 C1927 1.418 . S
C1923 H1918 0.930 . S
C1923 C1926 1.404 . S
C1923 C1927 1.353 . S
N1924 Co1889 2.145 . S
N1924 C1925 1.397 . S
N1924 C1926 1.334 . S
C1925 H1906 0.929 . S
C1925 C1922 1.388 . S
C1925 N1924 1.397 . S
C1926 H1907 0.929 . S
C1926 C1923 1.404 . S
C1926 N1924 1.334 . S
C1927 H1919 0.930 . S
C1927 C1922 1.418 . S
C1927 C1923 1.353 . S
C1928 H1898 0.930 . S
C1928 N1929 1.330 . S
C1928 C1930 1.446 . S
N1929 Co1888 2.151 . S
N1929 C1928 1.330 . S
N1929 C1933 1.418 . S
C1930 H1909 0.929 . S
C1930 C1928 1.446 . S
C1930 C1931 1.332 . S
C1931 H1911 0.931 . S
C1931 C1930 1.332 . S
C1931 C1932 1.267 . S
C1932 H1900 0.929 . S
C1932 C1931 1.267 . S
C1932 C1933 1.251 . S
C1933 H1903 0.929 . S
C1933 N1929 1.418 . S
C1933 C1932 1.251 . S
C1934 H1901 0.930 . S
C1934 C1936 1.406 . S
C1934 C1939 1.261 . S
C1935 H1902 0.930 . S
C1935 N1937 1.325 . S
C1935 C1938 1.357 . S
C1936 H1904 0.928 . S
C1936 C1934 1.406 . S
C1936 N1937 1.261 . S
N1937 Co1888 2.214 . S
N1937 C1935 1.325 . S
N1937 C1936 1.261 . S
C1938 H1908 0.931 . S
C1938 C1935 1.357 . S
C1938 C1939 1.312 . S
C1939 H1910 0.930 . S
C1939 C1934 1.261 . S
C1939 C1938 1.312 . S
C1940 O1912 1.214 . S
C1940 O1920 1.234 . S
C1941 H1913 0.929 . S
C1941 C1944 1.391 . S
C1941 C1946 1.391 . S
C1942 H1914 0.929 . S
C1942 C1943 1.390 . S
C1942 N1945 1.391 . S
C1943 H1915 0.930 . S
C1943 C1942 1.390 . S
C1943 C1944 1.392 . S
C1944 H1916 0.929 . S
C1944 C1941 1.391 . S
C1944 C1943 1.392 . S
N1945 Co1889 2.257 . S
N1945 C1942 1.391 . S
N1945 C1946 1.388 . S
C1946 H1917 0.930 . S
C1946 C1941 1.391 . S
C1946 N1945 1.388 . S
Co1947 O1949 2.143 . S
Co1947 O1955 2.074 . S
Co1947 O1958 2.093 . S
Co1947 O1971 2.097 . S
Co1947 N1988 2.151 . S
Co1947 N1996 2.214 . S
Co1948 O1949 2.160 . S
Co1948 O1954 2.058 . S
Co1948 O1964 2.057 . S
Co1948 O1979 2.037 . S
Co1948 N1983 2.145 . S
Co1948 N2004 2.257 . S
O1949 Co1947 2.143 . S
O1949 Co1948 2.160 . S
C1950 O1951 1.278 . S
C1950 O1958 1.224 . S
O1951 C1950 1.278 . S
C1952 O1953 1.245 . S
C1952 O1964 1.232 . S
O1953 C1952 1.245 . S
O1954 Co1948 2.058 . S
O1954 C1980 1.269 . S
O1955 Co1947 2.074 . S
O1955 C1980 1.257 . S
H1956 C1981 0.930 . S
H1957 C1987 0.930 . S
O1958 Co1947 2.093 . S
O1958 C1950 1.224 . S
H1959 C1991 0.929 . S
H1960 C1993 0.930 . S
H1961 C1994 0.930 . S
H1962 C1992 0.929 . S
H1963 C1995 0.928 . S
O1964 Co1948 2.057 . S
O1964 C1952 1.232 . S
H1965 C1984 0.929 . S
H1966 C1985 0.929 . S
H1967 C1997 0.931 . S
H1968 C1989 0.929 . S
H1969 C1998 0.930 . S
H1970 C1990 0.931 . S
O1971 Co1947 2.097 . S
O1971 C1999 1.214 . S
H1972 C2000 0.929 . S
H1973 C2001 0.929 . S
H1974 C2002 0.930 . S
H1975 C2003 0.929 . S
H1976 C2005 0.930 . S
H1977 C1982 0.930 . S
H1978 C1986 0.930 . S
O1979 Co1948 2.037 . S
O1979 C1999 1.234 . S
C1980 O1954 1.269 . S
C1980 O1955 1.257 . S
C1981 H1956 0.930 . S
C1981 C1984 1.388 . S
C1981 C1986 1.418 . S
C1982 H1977 0.930 . S
C1982 C1985 1.404 . S
C1982 C1986 1.353 . S
N1983 Co1948 2.145 . S
N1983 C1984 1.397 . S
N1983 C1985 1.334 . S
C1984 H1965 0.929 . S
C1984 C1981 1.388 . S
C1984 N1983 1.397 . S
C1985 H1966 0.929 . S
C1985 C1982 1.404 . S
C1985 N1983 1.334 . S
C1986 H1978 0.930 . S
C1986 C1981 1.418 . S
C1986 C1982 1.353 . S
C1987 H1957 0.930 . S
C1987 N1988 1.330 . S
C1987 C1989 1.446 . S
N1988 Co1947 2.151 . S
N1988 C1987 1.330 . S
N1988 C1992 1.418 . S
C1989 H1968 0.929 . S
C1989 C1987 1.446 . S
C1989 C1990 1.332 . S
C1990 H1970 0.931 . S
C1990 C1989 1.332 . S
C1990 C1991 1.267 . S
C1991 H1959 0.929 . S
C1991 C1990 1.267 . S
C1991 C1992 1.251 . S
C1992 H1962 0.929 . S
C1992 N1988 1.418 . S
C1992 C1991 1.251 . S
C1993 H1960 0.930 . S
C1993 C1995 1.406 . S
C1993 C1998 1.261 . S
C1994 H1961 0.930 . S
C1994 N1996 1.325 . S
C1994 C1997 1.357 . S
C1995 H1963 0.928 . S
C1995 C1993 1.406 . S
C1995 N1996 1.261 . S
N1996 Co1947 2.214 . S
N1996 C1994 1.325 . S
N1996 C1995 1.261 . S
C1997 H1967 0.931 . S
C1997 C1994 1.357 . S
C1997 C1998 1.312 . S
C1998 H1969 0.930 . S
C1998 C1993 1.261 . S
C1998 C1997 1.312 . S
C1999 O1971 1.214 . S
C1999 O1979 1.234 . S
C2000 H1972 0.929 . S
C2000 C2003 1.391 . S
C2000 C2005 1.391 . S
C2001 H1973 0.929 . S
C2001 C2002 1.390 . S
C2001 N2004 1.391 . S
C2002 H1974 0.930 . S
C2002 C2001 1.390 . S
C2002 C2003 1.392 . S
C2003 H1975 0.929 . S
C2003 C2000 1.391 . S
C2003 C2002 1.392 . S
N2004 Co1948 2.257 . S
N2004 C2001 1.391 . S
N2004 C2005 1.388 . S
C2005 H1976 0.930 . S
C2005 C2000 1.391 . S
C2005 N2004 1.388 . S
Co2006 O2008 2.143 . S
Co2006 O2014 2.074 . S
Co2006 O2017 2.093 . S
Co2006 O2030 2.097 . S
Co2006 N2047 2.151 . S
Co2006 N2055 2.214 . S
Co2007 O2008 2.160 . S
Co2007 O2013 2.058 . S
Co2007 O2023 2.057 . S
Co2007 O2038 2.037 . S
Co2007 N2042 2.145 . S
Co2007 N2063 2.257 . S
O2008 Co2006 2.143 . S
O2008 Co2007 2.160 . S
C2009 O2010 1.278 . S
C2009 O2017 1.224 . S
O2010 C2009 1.278 . S
C2011 O2012 1.245 . S
C2011 O2023 1.232 . S
O2012 C2011 1.245 . S
O2013 Co2007 2.058 . S
O2013 C2039 1.269 . S
O2014 Co2006 2.074 . S
O2014 C2039 1.257 . S
H2015 C2040 0.930 . S
H2016 C2046 0.930 . S
O2017 Co2006 2.093 . S
O2017 C2009 1.224 . S
H2018 C2050 0.929 . S
H2019 C2052 0.930 . S
H2020 C2053 0.930 . S
H2021 C2051 0.929 . S
H2022 C2054 0.928 . S
O2023 Co2007 2.057 . S
O2023 C2011 1.232 . S
H2024 C2043 0.929 . S
H2025 C2044 0.929 . S
H2026 C2056 0.931 . S
H2027 C2048 0.929 . S
H2028 C2057 0.930 . S
H2029 C2049 0.931 . S
O2030 Co2006 2.097 . S
O2030 C2058 1.214 . S
H2031 C2059 0.929 . S
H2032 C2060 0.929 . S
H2033 C2061 0.930 . S
H2034 C2062 0.929 . S
H2035 C2064 0.930 . S
H2036 C2041 0.930 . S
H2037 C2045 0.930 . S
O2038 Co2007 2.037 . S
O2038 C2058 1.234 . S
C2039 O2013 1.269 . S
C2039 O2014 1.257 . S
C2040 H2015 0.930 . S
C2040 C2043 1.388 . S
C2040 C2045 1.418 . S
C2041 H2036 0.930 . S
C2041 C2044 1.404 . S
C2041 C2045 1.353 . S
N2042 Co2007 2.145 . S
N2042 C2043 1.397 . S
N2042 C2044 1.334 . S
C2043 H2024 0.929 . S
C2043 C2040 1.388 . S
C2043 N2042 1.397 . S
C2044 H2025 0.929 . S
C2044 C2041 1.404 . S
C2044 N2042 1.334 . S
C2045 H2037 0.930 . S
C2045 C2040 1.418 . S
C2045 C2041 1.353 . S
C2046 H2016 0.930 . S
C2046 N2047 1.330 . S
C2046 C2048 1.446 . S
N2047 Co2006 2.151 . S
N2047 C2046 1.330 . S
N2047 C2051 1.418 . S
C2048 H2027 0.929 . S
C2048 C2046 1.446 . S
C2048 C2049 1.332 . S
C2049 H2029 0.931 . S
C2049 C2048 1.332 . S
C2049 C2050 1.267 . S
C2050 H2018 0.929 . S
C2050 C2049 1.267 . S
C2050 C2051 1.251 . S
C2051 H2021 0.929 . S
C2051 N2047 1.418 . S
C2051 C2050 1.251 . S
C2052 H2019 0.930 . S
C2052 C2054 1.406 . S
C2052 C2057 1.261 . S
C2053 H2020 0.930 . S
C2053 N2055 1.325 . S
C2053 C2056 1.357 . S
C2054 H2022 0.928 . S
C2054 C2052 1.406 . S
C2054 N2055 1.261 . S
N2055 Co2006 2.214 . S
N2055 C2053 1.325 . S
N2055 C2054 1.261 . S
C2056 H2026 0.931 . S
C2056 C2053 1.357 . S
C2056 C2057 1.312 . S
C2057 H2028 0.930 . S
C2057 C2052 1.261 . S
C2057 C2056 1.312 . S
C2058 O2030 1.214 . S
C2058 O2038 1.234 . S
C2059 H2031 0.929 . S
C2059 C2062 1.391 . S
C2059 C2064 1.391 . S
C2060 H2032 0.929 . S
C2060 C2061 1.390 . S
C2060 N2063 1.391 . S
C2061 H2033 0.930 . S
C2061 C2060 1.390 . S
C2061 C2062 1.392 . S
C2062 H2034 0.929 . S
C2062 C2059 1.391 . S
C2062 C2061 1.392 . S
N2063 Co2007 2.257 . S
N2063 C2060 1.391 . S
N2063 C2064 1.388 . S
C2064 H2035 0.930 . S
C2064 C2059 1.391 . S
C2064 N2063 1.388 . S
Co2065 O2067 2.143 . S
Co2065 O2073 2.074 . S
Co2065 O2076 2.093 . S
Co2065 O2089 2.097 . S
Co2065 N2106 2.151 . S
Co2065 N2114 2.214 . S
Co2066 O2067 2.160 . S
Co2066 O2072 2.058 . S
Co2066 O2082 2.057 . S
Co2066 O2097 2.037 . S
Co2066 N2101 2.145 . S
Co2066 N2122 2.257 . S
O2067 Co2065 2.143 . S
O2067 Co2066 2.160 . S
C2068 O2069 1.278 . S
C2068 O2076 1.224 . S
O2069 C2068 1.278 . S
C2070 O2071 1.245 . S
C2070 O2082 1.232 . S
O2071 C2070 1.245 . S
O2072 Co2066 2.058 . S
O2072 C2098 1.269 . S
O2073 Co2065 2.074 . S
O2073 C2098 1.257 . S
H2074 C2099 0.930 . S
H2075 C2105 0.930 . S
O2076 Co2065 2.093 . S
O2076 C2068 1.224 . S
H2077 C2109 0.929 . S
H2078 C2111 0.930 . S
H2079 C2112 0.930 . S
H2080 C2110 0.929 . S
H2081 C2113 0.928 . S
O2082 Co2066 2.057 . S
O2082 C2070 1.232 . S
H2083 C2102 0.929 . S
H2084 C2103 0.929 . S
H2085 C2115 0.931 . S
H2086 C2107 0.929 . S
H2087 C2116 0.930 . S
H2088 C2108 0.931 . S
O2089 Co2065 2.097 . S
O2089 C2117 1.214 . S
H2090 C2118 0.929 . S
H2091 C2119 0.929 . S
H2092 C2120 0.930 . S
H2093 C2121 0.929 . S
H2094 C2123 0.930 . S
H2095 C2100 0.930 . S
H2096 C2104 0.930 . S
O2097 Co2066 2.037 . S
O2097 C2117 1.234 . S
C2098 O2072 1.269 . S
C2098 O2073 1.257 . S
C2099 H2074 0.930 . S
C2099 C2102 1.388 . S
C2099 C2104 1.418 . S
C2100 H2095 0.930 . S
C2100 C2103 1.404 . S
C2100 C2104 1.353 . S
N2101 Co2066 2.145 . S
N2101 C2102 1.397 . S
N2101 C2103 1.334 . S
C2102 H2083 0.929 . S
C2102 C2099 1.388 . S
C2102 N2101 1.397 . S
C2103 H2084 0.929 . S
C2103 C2100 1.404 . S
C2103 N2101 1.334 . S
C2104 H2096 0.930 . S
C2104 C2099 1.418 . S
C2104 C2100 1.353 . S
C2105 H2075 0.930 . S
C2105 N2106 1.330 . S
C2105 C2107 1.446 . S
N2106 Co2065 2.151 . S
N2106 C2105 1.330 . S
N2106 C2110 1.418 . S
C2107 H2086 0.929 . S
C2107 C2105 1.446 . S
C2107 C2108 1.332 . S
C2108 H2088 0.931 . S
C2108 C2107 1.332 . S
C2108 C2109 1.267 . S
C2109 H2077 0.929 . S
C2109 C2108 1.267 . S
C2109 C2110 1.251 . S
C2110 H2080 0.929 . S
C2110 N2106 1.418 . S
C2110 C2109 1.251 . S
C2111 H2078 0.930 . S
C2111 C2113 1.406 . S
C2111 C2116 1.261 . S
C2112 H2079 0.930 . S
C2112 N2114 1.325 . S
C2112 C2115 1.357 . S
C2113 H2081 0.928 . S
C2113 C2111 1.406 . S
C2113 N2114 1.261 . S
N2114 Co2065 2.214 . S
N2114 C2112 1.325 . S
N2114 C2113 1.261 . S
C2115 H2085 0.931 . S
C2115 C2112 1.357 . S
C2115 C2116 1.312 . S
C2116 H2087 0.930 . S
C2116 C2111 1.261 . S
C2116 C2115 1.312 . S
C2117 O2089 1.214 . S
C2117 O2097 1.234 . S
C2118 H2090 0.929 . S
C2118 C2121 1.391 . S
C2118 C2123 1.391 . S
C2119 H2091 0.929 . S
C2119 C2120 1.390 . S
C2119 N2122 1.391 . S
C2120 H2092 0.930 . S
C2120 C2119 1.390 . S
C2120 C2121 1.392 . S
C2121 H2093 0.929 . S
C2121 C2118 1.391 . S
C2121 C2120 1.392 . S
N2122 Co2066 2.257 . S
N2122 C2119 1.391 . S
N2122 C2123 1.388 . S
C2123 H2094 0.930 . S
C2123 C2118 1.391 . S
C2123 N2122 1.388 . S
Co2124 O2126 2.143 . S
Co2124 O2132 2.074 . S
Co2124 O2135 2.093 . S
Co2124 O2148 2.097 . S
Co2124 N2165 2.151 . S
Co2124 N2173 2.214 . S
Co2125 O2126 2.160 . S
Co2125 O2131 2.058 . S
Co2125 O2141 2.057 . S
Co2125 O2156 2.037 . S
Co2125 N2160 2.145 . S
Co2125 N2181 2.257 . S
O2126 Co2124 2.143 . S
O2126 Co2125 2.160 . S
C2127 O2128 1.278 . S
C2127 O2135 1.224 . S
O2128 C2127 1.278 . S
C2129 O2130 1.245 . S
C2129 O2141 1.232 . S
O2130 C2129 1.245 . S
O2131 Co2125 2.058 . S
O2131 C2157 1.269 . S
O2132 Co2124 2.074 . S
O2132 C2157 1.257 . S
H2133 C2158 0.930 . S
H2134 C2164 0.930 . S
O2135 Co2124 2.093 . S
O2135 C2127 1.224 . S
H2136 C2168 0.929 . S
H2137 C2170 0.930 . S
H2138 C2171 0.930 . S
H2139 C2169 0.929 . S
H2140 C2172 0.928 . S
O2141 Co2125 2.057 . S
O2141 C2129 1.232 . S
H2142 C2161 0.929 . S
H2143 C2162 0.929 . S
H2144 C2174 0.931 . S
H2145 C2166 0.929 . S
H2146 C2175 0.930 . S
H2147 C2167 0.931 . S
O2148 Co2124 2.097 . S
O2148 C2176 1.214 . S
H2149 C2177 0.929 . S
H2150 C2178 0.929 . S
H2151 C2179 0.930 . S
H2152 C2180 0.929 . S
H2153 C2182 0.930 . S
H2154 C2159 0.930 . S
H2155 C2163 0.930 . S
O2156 Co2125 2.037 . S
O2156 C2176 1.234 . S
C2157 O2131 1.269 . S
C2157 O2132 1.257 . S
C2158 H2133 0.930 . S
C2158 C2161 1.388 . S
C2158 C2163 1.418 . S
C2159 H2154 0.930 . S
C2159 C2162 1.404 . S
C2159 C2163 1.353 . S
N2160 Co2125 2.145 . S
N2160 C2161 1.397 . S
N2160 C2162 1.334 . S
C2161 H2142 0.929 . S
C2161 C2158 1.388 . S
C2161 N2160 1.397 . S
C2162 H2143 0.929 . S
C2162 C2159 1.404 . S
C2162 N2160 1.334 . S
C2163 H2155 0.930 . S
C2163 C2158 1.418 . S
C2163 C2159 1.353 . S
C2164 H2134 0.930 . S
C2164 N2165 1.330 . S
C2164 C2166 1.446 . S
N2165 Co2124 2.151 . S
N2165 C2164 1.330 . S
N2165 C2169 1.418 . S
C2166 H2145 0.929 . S
C2166 C2164 1.446 . S
C2166 C2167 1.332 . S
C2167 H2147 0.931 . S
C2167 C2166 1.332 . S
C2167 C2168 1.267 . S
C2168 H2136 0.929 . S
C2168 C2167 1.267 . S
C2168 C2169 1.251 . S
C2169 H2139 0.929 . S
C2169 N2165 1.418 . S
C2169 C2168 1.251 . S
C2170 H2137 0.930 . S
C2170 C2172 1.406 . S
C2170 C2175 1.261 . S
C2171 H2138 0.930 . S
C2171 N2173 1.325 . S
C2171 C2174 1.357 . S
C2172 H2140 0.928 . S
C2172 C2170 1.406 . S
C2172 N2173 1.261 . S
N2173 Co2124 2.214 . S
N2173 C2171 1.325 . S
N2173 C2172 1.261 . S
C2174 H2144 0.931 . S
C2174 C2171 1.357 . S
C2174 C2175 1.312 . S
C2175 H2146 0.930 . S
C2175 C2170 1.261 . S
C2175 C2174 1.312 . S
C2176 O2148 1.214 . S
C2176 O2156 1.234 . S
C2177 H2149 0.929 . S
C2177 C2180 1.391 . S
C2177 C2182 1.391 . S
C2178 H2150 0.929 . S
C2178 C2179 1.390 . S
C2178 N2181 1.391 . S
C2179 H2151 0.930 . S
C2179 C2178 1.390 . S
C2179 C2180 1.392 . S
C2180 H2152 0.929 . S
C2180 C2177 1.391 . S
C2180 C2179 1.392 . S
N2181 Co2125 2.257 . S
N2181 C2178 1.391 . S
N2181 C2182 1.388 . S
C2182 H2153 0.930 . S
C2182 C2177 1.391 . S
C2182 N2181 1.388 . S
Co2183 O2185 2.143 . S
Co2183 O2191 2.074 . S
Co2183 O2194 2.093 . S
Co2183 O2207 2.097 . S
Co2183 N2224 2.151 . S
Co2183 N2232 2.214 . S
Co2184 O2185 2.160 . S
Co2184 O2190 2.058 . S
Co2184 O2200 2.057 . S
Co2184 O2215 2.037 . S
Co2184 N2219 2.145 . S
Co2184 N2240 2.257 . S
O2185 Co2183 2.143 . S
O2185 Co2184 2.160 . S
C2186 O2187 1.278 . S
C2186 O2194 1.224 . S
O2187 C2186 1.278 . S
C2188 O2189 1.245 . S
C2188 O2200 1.232 . S
O2189 C2188 1.245 . S
O2190 Co2184 2.058 . S
O2190 C2216 1.269 . S
O2191 Co2183 2.074 . S
O2191 C2216 1.257 . S
H2192 C2217 0.930 . S
H2193 C2223 0.930 . S
O2194 Co2183 2.093 . S
O2194 C2186 1.224 . S
H2195 C2227 0.929 . S
H2196 C2229 0.930 . S
H2197 C2230 0.930 . S
H2198 C2228 0.929 . S
H2199 C2231 0.928 . S
O2200 Co2184 2.057 . S
O2200 C2188 1.232 . S
H2201 C2220 0.929 . S
H2202 C2221 0.929 . S
H2203 C2233 0.931 . S
H2204 C2225 0.929 . S
H2205 C2234 0.930 . S
H2206 C2226 0.931 . S
O2207 Co2183 2.097 . S
O2207 C2235 1.214 . S
H2208 C2236 0.929 . S
H2209 C2237 0.929 . S
H2210 C2238 0.930 . S
H2211 C2239 0.929 . S
H2212 C2241 0.930 . S
H2213 C2218 0.930 . S
H2214 C2222 0.930 . S
O2215 Co2184 2.037 . S
O2215 C2235 1.234 . S
C2216 O2190 1.269 . S
C2216 O2191 1.257 . S
C2217 H2192 0.930 . S
C2217 C2220 1.388 . S
C2217 C2222 1.418 . S
C2218 H2213 0.930 . S
C2218 C2221 1.404 . S
C2218 C2222 1.353 . S
N2219 Co2184 2.145 . S
N2219 C2220 1.397 . S
N2219 C2221 1.334 . S
C2220 H2201 0.929 . S
C2220 C2217 1.388 . S
C2220 N2219 1.397 . S
C2221 H2202 0.929 . S
C2221 C2218 1.404 . S
C2221 N2219 1.334 . S
C2222 H2214 0.930 . S
C2222 C2217 1.418 . S
C2222 C2218 1.353 . S
C2223 H2193 0.930 . S
C2223 N2224 1.330 . S
C2223 C2225 1.446 . S
N2224 Co2183 2.151 . S
N2224 C2223 1.330 . S
N2224 C2228 1.418 . S
C2225 H2204 0.929 . S
C2225 C2223 1.446 . S
C2225 C2226 1.332 . S
C2226 H2206 0.931 . S
C2226 C2225 1.332 . S
C2226 C2227 1.267 . S
C2227 H2195 0.929 . S
C2227 C2226 1.267 . S
C2227 C2228 1.251 . S
C2228 H2198 0.929 . S
C2228 N2224 1.418 . S
C2228 C2227 1.251 . S
C2229 H2196 0.930 . S
C2229 C2231 1.406 . S
C2229 C2234 1.261 . S
C2230 H2197 0.930 . S
C2230 N2232 1.325 . S
C2230 C2233 1.357 . S
C2231 H2199 0.928 . S
C2231 C2229 1.406 . S
C2231 N2232 1.261 . S
N2232 Co2183 2.214 . S
N2232 C2230 1.325 . S
N2232 C2231 1.261 . S
C2233 H2203 0.931 . S
C2233 C2230 1.357 . S
C2233 C2234 1.312 . S
C2234 H2205 0.930 . S
C2234 C2229 1.261 . S
C2234 C2233 1.312 . S
C2235 O2207 1.214 . S
C2235 O2215 1.234 . S
C2236 H2208 0.929 . S
C2236 C2239 1.391 . S
C2236 C2241 1.391 . S
C2237 H2209 0.929 . S
C2237 C2238 1.390 . S
C2237 N2240 1.391 . S
C2238 H2210 0.930 . S
C2238 C2237 1.390 . S
C2238 C2239 1.392 . S
C2239 H2211 0.929 . S
C2239 C2236 1.391 . S
C2239 C2238 1.392 . S
N2240 Co2184 2.257 . S
N2240 C2237 1.391 . S
N2240 C2241 1.388 . S
C2241 H2212 0.930 . S
C2241 C2236 1.391 . S
C2241 N2240 1.388 . S
Co2242 O2244 2.143 . S
Co2242 O2250 2.074 . S
Co2242 O2253 2.093 . S
Co2242 O2266 2.097 . S
Co2242 N2283 2.151 . S
Co2242 N2291 2.214 . S
Co2243 O2244 2.160 . S
Co2243 O2249 2.058 . S
Co2243 O2259 2.057 . S
Co2243 O2274 2.037 . S
Co2243 N2278 2.145 . S
Co2243 N2299 2.257 . S
O2244 Co2242 2.143 . S
O2244 Co2243 2.160 . S
C2245 O2246 1.278 . S
C2245 O2253 1.224 . S
O2246 C2245 1.278 . S
C2247 O2248 1.245 . S
C2247 O2259 1.232 . S
O2248 C2247 1.245 . S
O2249 Co2243 2.058 . S
O2249 C2275 1.269 . S
O2250 Co2242 2.074 . S
O2250 C2275 1.257 . S
H2251 C2276 0.930 . S
H2252 C2282 0.930 . S
O2253 Co2242 2.093 . S
O2253 C2245 1.224 . S
H2254 C2286 0.929 . S
H2255 C2288 0.930 . S
H2256 C2289 0.930 . S
H2257 C2287 0.929 . S
H2258 C2290 0.928 . S
O2259 Co2243 2.057 . S
O2259 C2247 1.232 . S
H2260 C2279 0.929 . S
H2261 C2280 0.929 . S
H2262 C2292 0.931 . S
H2263 C2284 0.929 . S
H2264 C2293 0.930 . S
H2265 C2285 0.931 . S
O2266 Co2242 2.097 . S
O2266 C2294 1.214 . S
H2267 C2295 0.929 . S
H2268 C2296 0.929 . S
H2269 C2297 0.930 . S
H2270 C2298 0.929 . S
H2271 C2300 0.930 . S
H2272 C2277 0.930 . S
H2273 C2281 0.930 1_556 S
O2274 Co2243 2.037 . S
O2274 C2294 1.234 . S
C2275 O2249 1.269 . S
C2275 O2250 1.257 . S
C2276 H2251 0.930 . S
C2276 C2279 1.388 . S
C2276 C2281 1.418 . S
C2277 H2272 0.930 . S
C2277 C2280 1.404 . S
C2277 C2281 1.353 . S
N2278 Co2243 2.145 . S
N2278 C2279 1.397 . S
N2278 C2280 1.334 . S
C2279 H2260 0.929 . S
C2279 C2276 1.388 . S
C2279 N2278 1.397 . S
C2280 H2261 0.929 . S
C2280 C2277 1.404 . S
C2280 N2278 1.334 . S
C2281 H2273 0.930 1_554 S
C2281 C2276 1.418 . S
C2281 C2277 1.353 . S
C2282 H2252 0.930 . S
C2282 N2283 1.330 . S
C2282 C2284 1.446 . S
N2283 Co2242 2.151 . S
N2283 C2282 1.330 . S
N2283 C2287 1.418 . S
C2284 H2263 0.929 . S
C2284 C2282 1.446 . S
C2284 C2285 1.332 . S
C2285 H2265 0.931 . S
C2285 C2284 1.332 . S
C2285 C2286 1.267 . S
C2286 H2254 0.929 . S
C2286 C2285 1.267 . S
C2286 C2287 1.251 . S
C2287 H2257 0.929 . S
C2287 N2283 1.418 . S
C2287 C2286 1.251 . S
C2288 H2255 0.930 . S
C2288 C2290 1.406 . S
C2288 C2293 1.261 . S
C2289 H2256 0.930 . S
C2289 N2291 1.325 . S
C2289 C2292 1.357 . S
C2290 H2258 0.928 . S
C2290 C2288 1.406 . S
C2290 N2291 1.261 . S
N2291 Co2242 2.214 . S
N2291 C2289 1.325 . S
N2291 C2290 1.261 . S
C2292 H2262 0.931 . S
C2292 C2289 1.357 . S
C2292 C2293 1.312 . S
C2293 H2264 0.930 . S
C2293 C2288 1.261 . S
C2293 C2292 1.312 . S
C2294 O2266 1.214 . S
C2294 O2274 1.234 . S
C2295 H2267 0.929 . S
C2295 C2298 1.391 . S
C2295 C2300 1.391 . S
C2296 H2268 0.929 . S
C2296 C2297 1.390 . S
C2296 N2299 1.391 . S
C2297 H2269 0.930 . S
C2297 C2296 1.390 . S
C2297 C2298 1.392 . S
C2298 H2270 0.929 . S
C2298 C2295 1.391 . S
C2298 C2297 1.392 . S
N2299 Co2243 2.257 . S
N2299 C2296 1.391 . S
N2299 C2300 1.388 . S
C2300 H2271 0.930 . S
C2300 C2295 1.391 . S
C2300 N2299 1.388 . S
Co2301 O2303 2.143 . S
Co2301 O2309 2.074 . S
Co2301 O2312 2.093 . S
Co2301 O2325 2.097 . S
Co2301 N2342 2.151 . S
Co2301 N2350 2.214 . S
Co2302 O2303 2.160 . S
Co2302 O2308 2.058 . S
Co2302 O2318 2.057 . S
Co2302 O2333 2.037 . S
Co2302 N2337 2.145 . S
Co2302 N2358 2.257 . S
O2303 Co2301 2.143 . S
O2303 Co2302 2.160 . S
C2304 O2305 1.278 . S
C2304 O2312 1.224 . S
O2305 C2304 1.278 . S
C2306 O2307 1.245 . S
C2306 O2318 1.232 . S
O2307 C2306 1.245 . S
O2308 Co2302 2.058 . S
O2308 C2334 1.269 . S
O2309 Co2301 2.074 . S
O2309 C2334 1.257 . S
H2310 C2335 0.930 . S
H2311 C2341 0.930 . S
O2312 Co2301 2.093 . S
O2312 C2304 1.224 . S
H2313 C2345 0.929 . S
H2314 C2347 0.930 . S
H2315 C2348 0.930 . S
H2316 C2346 0.929 . S
H2317 C2349 0.928 . S
O2318 Co2302 2.057 . S
O2318 C2306 1.232 . S
H2319 C2338 0.929 . S
H2320 C2339 0.929 . S
H2321 C2351 0.931 . S
H2322 C2343 0.929 . S
H2323 C2352 0.930 . S
H2324 C2344 0.931 . S
O2325 Co2301 2.097 . S
O2325 C2353 1.214 . S
H2326 C2354 0.929 . S
H2327 C2355 0.929 . S
H2328 C2356 0.930 . S
H2329 C2357 0.929 . S
H2330 C2359 0.930 . S
H2331 C2336 0.930 . S
H2332 C2340 0.930 . S
O2333 Co2302 2.037 . S
O2333 C2353 1.234 . S
C2334 O2308 1.269 . S
C2334 O2309 1.257 . S
C2335 H2310 0.930 . S
C2335 C2338 1.388 . S
C2335 C2340 1.418 . S
C2336 H2331 0.930 . S
C2336 C2339 1.404 . S
C2336 C2340 1.353 . S
N2337 Co2302 2.145 . S
N2337 C2338 1.397 . S
N2337 C2339 1.334 . S
C2338 H2319 0.929 . S
C2338 C2335 1.388 . S
C2338 N2337 1.397 . S
C2339 H2320 0.929 . S
C2339 C2336 1.404 . S
C2339 N2337 1.334 . S
C2340 H2332 0.930 . S
C2340 C2335 1.418 . S
C2340 C2336 1.353 . S
C2341 H2311 0.930 . S
C2341 N2342 1.330 . S
C2341 C2343 1.446 . S
N2342 Co2301 2.151 . S
N2342 C2341 1.330 . S
N2342 C2346 1.418 . S
C2343 H2322 0.929 . S
C2343 C2341 1.446 . S
C2343 C2344 1.332 . S
C2344 H2324 0.931 . S
C2344 C2343 1.332 . S
C2344 C2345 1.267 . S
C2345 H2313 0.929 . S
C2345 C2344 1.267 . S
C2345 C2346 1.251 . S
C2346 H2316 0.929 . S
C2346 N2342 1.418 . S
C2346 C2345 1.251 . S
C2347 H2314 0.930 . S
C2347 C2349 1.406 . S
C2347 C2352 1.261 . S
C2348 H2315 0.930 . S
C2348 N2350 1.325 . S
C2348 C2351 1.357 . S
C2349 H2317 0.928 . S
C2349 C2347 1.406 . S
C2349 N2350 1.261 . S
N2350 Co2301 2.214 . S
N2350 C2348 1.325 . S
N2350 C2349 1.261 . S
C2351 H2321 0.931 . S
C2351 C2348 1.357 . S
C2351 C2352 1.312 . S
C2352 H2323 0.930 . S
C2352 C2347 1.261 . S
C2352 C2351 1.312 . S
C2353 O2325 1.214 . S
C2353 O2333 1.234 . S
C2354 H2326 0.929 . S
C2354 C2357 1.391 . S
C2354 C2359 1.391 . S
C2355 H2327 0.929 . S
C2355 C2356 1.390 . S
C2355 N2358 1.391 . S
C2356 H2328 0.930 . S
C2356 C2355 1.390 . S
C2356 C2357 1.392 . S
C2357 H2329 0.929 . S
C2357 C2354 1.391 . S
C2357 C2356 1.392 . S
N2358 Co2302 2.257 . S
N2358 C2355 1.391 . S
N2358 C2359 1.388 . S
C2359 H2330 0.930 . S
C2359 C2354 1.391 . S
C2359 N2358 1.388 . S
Co2360 O2362 2.143 . S
Co2360 O2368 2.074 . S
Co2360 O2371 2.093 . S
Co2360 O2384 2.097 . S
Co2360 N2401 2.151 . S
Co2360 N2409 2.214 . S
Co2361 O2362 2.160 . S
Co2361 O2367 2.058 . S
Co2361 O2377 2.057 . S
Co2361 O2392 2.037 . S
Co2361 N2396 2.145 . S
Co2361 N2417 2.257 . S
O2362 Co2360 2.143 . S
O2362 Co2361 2.160 . S
C2363 O2364 1.278 . S
C2363 O2371 1.224 . S
O2364 C2363 1.278 . S
C2365 O2366 1.245 . S
C2365 O2377 1.232 . S
O2366 C2365 1.245 . S
O2367 Co2361 2.058 . S
O2367 C2393 1.269 . S
O2368 Co2360 2.074 . S
O2368 C2393 1.257 . S
H2369 C2394 0.930 . S
H2370 C2400 0.930 . S
O2371 Co2360 2.093 . S
O2371 C2363 1.224 . S
H2372 C2404 0.929 . S
H2373 C2406 0.930 . S
H2374 C2407 0.930 . S
H2375 C2405 0.929 . S
H2376 C2408 0.928 . S
O2377 Co2361 2.057 . S
O2377 C2365 1.232 . S
H2378 C2397 0.929 . S
H2379 C2398 0.929 . S
H2380 C2410 0.931 . S
H2381 C2402 0.929 . S
H2382 C2411 0.930 . S
H2383 C2403 0.931 . S
O2384 Co2360 2.097 . S
O2384 C2412 1.214 . S
H2385 C2413 0.929 . S
H2386 C2414 0.929 . S
H2387 C2415 0.930 . S
H2388 C2416 0.929 . S
H2389 C2418 0.930 . S
H2390 C2395 0.930 . S
H2391 C2399 0.930 . S
O2392 Co2361 2.037 . S
O2392 C2412 1.234 . S
C2393 O2367 1.269 . S
C2393 O2368 1.257 . S
C2394 H2369 0.930 . S
C2394 C2397 1.388 . S
C2394 C2399 1.418 . S
C2395 H2390 0.930 . S
C2395 C2398 1.404 . S
C2395 C2399 1.353 . S
N2396 Co2361 2.145 . S
N2396 C2397 1.397 . S
N2396 C2398 1.334 . S
C2397 H2378 0.929 . S
C2397 C2394 1.388 . S
C2397 N2396 1.397 . S
C2398 H2379 0.929 . S
C2398 C2395 1.404 . S
C2398 N2396 1.334 . S
C2399 H2391 0.930 . S
C2399 C2394 1.418 . S
C2399 C2395 1.353 . S
C2400 H2370 0.930 . S
C2400 N2401 1.330 . S
C2400 C2402 1.446 . S
N2401 Co2360 2.151 . S
N2401 C2400 1.330 . S
N2401 C2405 1.418 . S
C2402 H2381 0.929 . S
C2402 C2400 1.446 . S
C2402 C2403 1.332 . S
C2403 H2383 0.931 . S
C2403 C2402 1.332 . S
C2403 C2404 1.267 . S
C2404 H2372 0.929 . S
C2404 C2403 1.267 . S
C2404 C2405 1.251 . S
C2405 H2375 0.929 . S
C2405 N2401 1.418 . S
C2405 C2404 1.251 . S
C2406 H2373 0.930 . S
C2406 C2408 1.406 . S
C2406 C2411 1.261 . S
C2407 H2374 0.930 . S
C2407 N2409 1.325 . S
C2407 C2410 1.357 . S
C2408 H2376 0.928 . S
C2408 C2406 1.406 . S
C2408 N2409 1.261 . S
N2409 Co2360 2.214 . S
N2409 C2407 1.325 . S
N2409 C2408 1.261 . S
C2410 H2380 0.931 . S
C2410 C2407 1.357 . S
C2410 C2411 1.312 . S
C2411 H2382 0.930 . S
C2411 C2406 1.261 . S
C2411 C2410 1.312 . S
C2412 O2384 1.214 . S
C2412 O2392 1.234 . S
C2413 H2385 0.929 . S
C2413 C2416 1.391 . S
C2413 C2418 1.391 . S
C2414 H2386 0.929 . S
C2414 C2415 1.390 . S
C2414 N2417 1.391 . S
C2415 H2387 0.930 . S
C2415 C2414 1.390 . S
C2415 C2416 1.392 . S
C2416 H2388 0.929 . S
C2416 C2413 1.391 . S
C2416 C2415 1.392 . S
N2417 Co2361 2.257 . S
N2417 C2414 1.391 . S
N2417 C2418 1.388 . S
C2418 H2389 0.930 . S
C2418 C2413 1.391 . S
C2418 N2417 1.388 . S
Co2419 O2421 2.143 . S
Co2419 O2427 2.074 . S
Co2419 O2430 2.093 . S
Co2419 O2443 2.097 . S
Co2419 N2460 2.151 . S
Co2419 N2468 2.214 . S
Co2420 O2421 2.160 . S
Co2420 O2426 2.058 . S
Co2420 O2436 2.057 . S
Co2420 O2451 2.037 . S
Co2420 N2455 2.145 . S
Co2420 N2476 2.257 . S
O2421 Co2419 2.143 . S
O2421 Co2420 2.160 . S
C2422 O2423 1.278 . S
C2422 O2430 1.224 . S
O2423 C2422 1.278 . S
C2424 O2425 1.245 . S
C2424 O2436 1.232 . S
O2425 C2424 1.245 . S
O2426 Co2420 2.058 . S
O2426 C2452 1.269 . S
O2427 Co2419 2.074 . S
O2427 C2452 1.257 . S
H2428 C2453 0.930 . S
H2429 C2459 0.930 . S
O2430 Co2419 2.093 . S
O2430 C2422 1.224 . S
H2431 C2463 0.929 . S
H2432 C2465 0.930 . S
H2433 C2466 0.930 . S
H2434 C2464 0.929 . S
H2435 C2467 0.928 . S
O2436 Co2420 2.057 . S
O2436 C2424 1.232 . S
H2437 C2456 0.929 . S
H2438 C2457 0.929 . S
H2439 C2469 0.931 . S
H2440 C2461 0.929 . S
H2441 C2470 0.930 . S
H2442 C2462 0.931 . S
O2443 Co2419 2.097 . S
O2443 C2471 1.214 . S
H2444 C2472 0.929 . S
H2445 C2473 0.929 . S
H2446 C2474 0.930 . S
H2447 C2475 0.929 . S
H2448 C2477 0.930 . S
H2449 C2454 0.930 . S
H2450 C2458 0.930 . S
O2451 Co2420 2.037 . S
O2451 C2471 1.234 . S
C2452 O2426 1.269 . S
C2452 O2427 1.257 . S
C2453 H2428 0.930 . S
C2453 C2456 1.388 . S
C2453 C2458 1.418 . S
C2454 H2449 0.930 . S
C2454 C2457 1.404 . S
C2454 C2458 1.353 . S
N2455 Co2420 2.145 . S
N2455 C2456 1.397 . S
N2455 C2457 1.334 . S
C2456 H2437 0.929 . S
C2456 C2453 1.388 . S
C2456 N2455 1.397 . S
C2457 H2438 0.929 . S
C2457 C2454 1.404 . S
C2457 N2455 1.334 . S
C2458 H2450 0.930 . S
C2458 C2453 1.418 . S
C2458 C2454 1.353 . S
C2459 H2429 0.930 . S
C2459 N2460 1.330 . S
C2459 C2461 1.446 . S
N2460 Co2419 2.151 . S
N2460 C2459 1.330 . S
N2460 C2464 1.418 . S
C2461 H2440 0.929 . S
C2461 C2459 1.446 . S
C2461 C2462 1.332 . S
C2462 H2442 0.931 . S
C2462 C2461 1.332 . S
C2462 C2463 1.267 . S
C2463 H2431 0.929 . S
C2463 C2462 1.267 . S
C2463 C2464 1.251 . S
C2464 H2434 0.929 . S
C2464 N2460 1.418 . S
C2464 C2463 1.251 . S
C2465 H2432 0.930 . S
C2465 C2467 1.406 . S
C2465 C2470 1.261 . S
C2466 H2433 0.930 . S
C2466 N2468 1.325 . S
C2466 C2469 1.357 . S
C2467 H2435 0.928 . S
C2467 C2465 1.406 . S
C2467 N2468 1.261 . S
N2468 Co2419 2.214 . S
N2468 C2466 1.325 . S
N2468 C2467 1.261 . S
C2469 H2439 0.931 . S
C2469 C2466 1.357 . S
C2469 C2470 1.312 . S
C2470 H2441 0.930 . S
C2470 C2465 1.261 . S
C2470 C2469 1.312 . S
C2471 O2443 1.214 . S
C2471 O2451 1.234 . S
C2472 H2444 0.929 . S
C2472 C2475 1.391 . S
C2472 C2477 1.391 . S
C2473 H2445 0.929 . S
C2473 C2474 1.390 . S
C2473 N2476 1.391 . S
C2474 H2446 0.930 . S
C2474 C2473 1.390 . S
C2474 C2475 1.392 . S
C2475 H2447 0.929 . S
C2475 C2472 1.391 . S
C2475 C2474 1.392 . S
N2476 Co2420 2.257 . S
N2476 C2473 1.391 . S
N2476 C2477 1.388 . S
C2477 H2448 0.930 . S
C2477 C2472 1.391 . S
C2477 N2476 1.388 . S
Co2478 O2480 2.143 . S
Co2478 O2486 2.074 . S
Co2478 O2489 2.093 . S
Co2478 O2502 2.097 . S
Co2478 N2519 2.151 . S
Co2478 N2527 2.214 . S
Co2479 O2480 2.160 . S
Co2479 O2485 2.058 . S
Co2479 O2495 2.057 . S
Co2479 O2510 2.037 . S
Co2479 N2514 2.145 . S
Co2479 N2535 2.257 . S
O2480 Co2478 2.143 . S
O2480 Co2479 2.160 . S
C2481 O2482 1.278 . S
C2481 O2489 1.224 . S
O2482 C2481 1.278 . S
C2483 O2484 1.245 . S
C2483 O2495 1.232 . S
O2484 C2483 1.245 . S
O2485 Co2479 2.058 . S
O2485 C2511 1.269 . S
O2486 Co2478 2.074 . S
O2486 C2511 1.257 . S
H2487 C2512 0.930 . S
H2488 C2518 0.930 . S
O2489 Co2478 2.093 . S
O2489 C2481 1.224 . S
H2490 C2522 0.929 . S
H2491 C2524 0.930 . S
H2492 C2525 0.930 . S
H2493 C2523 0.929 . S
H2494 C2526 0.928 . S
O2495 Co2479 2.057 . S
O2495 C2483 1.232 . S
H2496 C2515 0.929 . S
H2497 C2516 0.929 . S
H2498 C2528 0.931 . S
H2499 C2520 0.929 . S
H2500 C2529 0.930 . S
H2501 C2521 0.931 . S
O2502 Co2478 2.097 . S
O2502 C2530 1.214 . S
H2503 C2531 0.929 . S
H2504 C2532 0.929 . S
H2505 C2533 0.930 . S
H2506 C2534 0.929 . S
H2507 C2536 0.930 . S
H2508 C2513 0.930 . S
H2509 C2517 0.930 . S
O2510 Co2479 2.037 . S
O2510 C2530 1.234 . S
C2511 O2485 1.269 . S
C2511 O2486 1.257 . S
C2512 H2487 0.930 . S
C2512 C2515 1.388 . S
C2512 C2517 1.418 . S
C2513 H2508 0.930 . S
C2513 C2516 1.404 . S
C2513 C2517 1.353 . S
N2514 Co2479 2.145 . S
N2514 C2515 1.397 . S
N2514 C2516 1.334 . S
C2515 H2496 0.929 . S
C2515 C2512 1.388 . S
C2515 N2514 1.397 . S
C2516 H2497 0.929 . S
C2516 C2513 1.404 . S
C2516 N2514 1.334 . S
C2517 H2509 0.930 . S
C2517 C2512 1.418 . S
C2517 C2513 1.353 . S
C2518 H2488 0.930 . S
C2518 N2519 1.330 . S
C2518 C2520 1.446 . S
N2519 Co2478 2.151 . S
N2519 C2518 1.330 . S
N2519 C2523 1.418 . S
C2520 H2499 0.929 . S
C2520 C2518 1.446 . S
C2520 C2521 1.332 . S
C2521 H2501 0.931 . S
C2521 C2520 1.332 . S
C2521 C2522 1.267 . S
C2522 H2490 0.929 . S
C2522 C2521 1.267 . S
C2522 C2523 1.251 . S
C2523 H2493 0.929 . S
C2523 N2519 1.418 . S
C2523 C2522 1.251 . S
C2524 H2491 0.930 . S
C2524 C2526 1.406 . S
C2524 C2529 1.261 . S
C2525 H2492 0.930 . S
C2525 N2527 1.325 . S
C2525 C2528 1.357 . S
C2526 H2494 0.928 . S
C2526 C2524 1.406 . S
C2526 N2527 1.261 . S
N2527 Co2478 2.214 . S
N2527 C2525 1.325 . S
N2527 C2526 1.261 . S
C2528 H2498 0.931 . S
C2528 C2525 1.357 . S
C2528 C2529 1.312 . S
C2529 H2500 0.930 . S
C2529 C2524 1.261 . S
C2529 C2528 1.312 . S
C2530 O2502 1.214 . S
C2530 O2510 1.234 . S
C2531 H2503 0.929 . S
C2531 C2534 1.391 . S
C2531 C2536 1.391 . S
C2532 H2504 0.929 . S
C2532 C2533 1.390 . S
C2532 N2535 1.391 . S
C2533 H2505 0.930 . S
C2533 C2532 1.390 . S
C2533 C2534 1.392 . S
C2534 H2506 0.929 . S
C2534 C2531 1.391 . S
C2534 C2533 1.392 . S
N2535 Co2479 2.257 . S
N2535 C2532 1.391 . S
N2535 C2536 1.388 . S
C2536 H2507 0.930 . S
C2536 C2531 1.391 . S
C2536 N2535 1.388 . S
Co2537 O2539 2.143 . S
Co2537 O2545 2.074 . S
Co2537 O2548 2.093 . S
Co2537 O2561 2.097 . S
Co2537 N2578 2.151 . S
Co2537 N2586 2.214 . S
Co2538 O2539 2.160 . S
Co2538 O2544 2.058 . S
Co2538 O2554 2.057 . S
Co2538 O2569 2.037 . S
Co2538 N2573 2.145 . S
Co2538 N2594 2.257 . S
O2539 Co2537 2.143 . S
O2539 Co2538 2.160 . S
C2540 O2541 1.278 . S
C2540 O2548 1.224 . S
O2541 C2540 1.278 . S
C2542 O2543 1.245 . S
C2542 O2554 1.232 . S
O2543 C2542 1.245 . S
O2544 Co2538 2.058 . S
O2544 C2570 1.269 . S
O2545 Co2537 2.074 . S
O2545 C2570 1.257 . S
H2546 C2571 0.930 . S
H2547 C2577 0.930 . S
O2548 Co2537 2.093 . S
O2548 C2540 1.224 . S
H2549 C2581 0.929 . S
H2550 C2583 0.930 . S
H2551 C2584 0.930 . S
H2552 C2582 0.929 . S
H2553 C2585 0.928 . S
O2554 Co2538 2.057 . S
O2554 C2542 1.232 . S
H2555 C2574 0.929 . S
H2556 C2575 0.929 . S
H2557 C2587 0.931 . S
H2558 C2579 0.929 . S
H2559 C2588 0.930 . S
H2560 C2580 0.931 . S
O2561 Co2537 2.097 . S
O2561 C2589 1.214 . S
H2562 C2590 0.929 . S
H2563 C2591 0.929 . S
H2564 C2592 0.930 . S
H2565 C2593 0.929 . S
H2566 C2595 0.930 . S
H2567 C2572 0.930 . S
H2568 C2576 0.930 . S
O2569 Co2538 2.037 . S
O2569 C2589 1.234 . S
C2570 O2544 1.269 . S
C2570 O2545 1.257 . S
C2571 H2546 0.930 . S
C2571 C2574 1.388 . S
C2571 C2576 1.418 . S
C2572 H2567 0.930 . S
C2572 C2575 1.404 . S
C2572 C2576 1.353 . S
N2573 Co2538 2.145 . S
N2573 C2574 1.397 . S
N2573 C2575 1.334 . S
C2574 H2555 0.929 . S
C2574 C2571 1.388 . S
C2574 N2573 1.397 . S
C2575 H2556 0.929 . S
C2575 C2572 1.404 . S
C2575 N2573 1.334 . S
C2576 H2568 0.930 . S
C2576 C2571 1.418 . S
C2576 C2572 1.353 . S
C2577 H2547 0.930 . S
C2577 N2578 1.330 . S
C2577 C2579 1.446 . S
N2578 Co2537 2.151 . S
N2578 C2577 1.330 . S
N2578 C2582 1.418 . S
C2579 H2558 0.929 . S
C2579 C2577 1.446 . S
C2579 C2580 1.332 . S
C2580 H2560 0.931 . S
C2580 C2579 1.332 . S
C2580 C2581 1.267 . S
C2581 H2549 0.929 . S
C2581 C2580 1.267 . S
C2581 C2582 1.251 . S
C2582 H2552 0.929 . S
C2582 N2578 1.418 . S
C2582 C2581 1.251 . S
C2583 H2550 0.930 . S
C2583 C2585 1.406 . S
C2583 C2588 1.261 . S
C2584 H2551 0.930 . S
C2584 N2586 1.325 . S
C2584 C2587 1.357 . S
C2585 H2553 0.928 . S
C2585 C2583 1.406 . S
C2585 N2586 1.261 . S
N2586 Co2537 2.214 . S
N2586 C2584 1.325 . S
N2586 C2585 1.261 . S
C2587 H2557 0.931 . S
C2587 C2584 1.357 . S
C2587 C2588 1.312 . S
C2588 H2559 0.930 . S
C2588 C2583 1.261 . S
C2588 C2587 1.312 . S
C2589 O2561 1.214 . S
C2589 O2569 1.234 . S
C2590 H2562 0.929 . S
C2590 C2593 1.391 . S
C2590 C2595 1.391 . S
C2591 H2563 0.929 . S
C2591 C2592 1.390 . S
C2591 N2594 1.391 . S
C2592 H2564 0.930 . S
C2592 C2591 1.390 . S
C2592 C2593 1.392 . S
C2593 H2565 0.929 . S
C2593 C2590 1.391 . S
C2593 C2592 1.392 . S
N2594 Co2538 2.257 . S
N2594 C2591 1.391 . S
N2594 C2595 1.388 . S
C2595 H2566 0.930 . S
C2595 C2590 1.391 . S
C2595 N2594 1.388 . S
Co2596 O2598 2.143 . S
Co2596 O2604 2.074 . S
Co2596 O2607 2.093 . S
Co2596 O2620 2.097 . S
Co2596 N2637 2.151 . S
Co2596 N2645 2.214 . S
Co2597 O2598 2.160 . S
Co2597 O2603 2.058 . S
Co2597 O2613 2.057 . S
Co2597 O2628 2.037 . S
Co2597 N2632 2.145 . S
Co2597 N2653 2.257 . S
O2598 Co2596 2.143 . S
O2598 Co2597 2.160 . S
C2599 O2600 1.278 . S
C2599 O2607 1.224 . S
O2600 C2599 1.278 . S
C2601 O2602 1.245 . S
C2601 O2613 1.232 . S
O2602 C2601 1.245 . S
O2603 Co2597 2.058 . S
O2603 C2629 1.269 . S
O2604 Co2596 2.074 . S
O2604 C2629 1.257 . S
H2605 C2630 0.930 . S
H2606 C2636 0.930 . S
O2607 Co2596 2.093 . S
O2607 C2599 1.224 . S
H2608 C2640 0.929 . S
H2609 C2642 0.930 . S
H2610 C2643 0.930 . S
H2611 C2641 0.929 . S
H2612 C2644 0.928 . S
O2613 Co2597 2.057 . S
O2613 C2601 1.232 . S
H2614 C2633 0.929 . S
H2615 C2634 0.929 . S
H2616 C2646 0.931 . S
H2617 C2638 0.929 . S
H2618 C2647 0.930 . S
H2619 C2639 0.931 . S
O2620 Co2596 2.097 . S
O2620 C2648 1.214 . S
H2621 C2649 0.929 . S
H2622 C2650 0.929 . S
H2623 C2651 0.930 . S
H2624 C2652 0.929 . S
H2625 C2654 0.930 . S
H2626 C2631 0.930 . S
H2627 C2635 0.930 . S
O2628 Co2597 2.037 . S
O2628 C2648 1.234 . S
C2629 O2603 1.269 . S
C2629 O2604 1.257 . S
C2630 H2605 0.930 . S
C2630 C2633 1.388 . S
C2630 C2635 1.418 . S
C2631 H2626 0.930 . S
C2631 C2634 1.404 . S
C2631 C2635 1.353 . S
N2632 Co2597 2.145 . S
N2632 C2633 1.397 . S
N2632 C2634 1.334 . S
C2633 H2614 0.929 . S
C2633 C2630 1.388 . S
C2633 N2632 1.397 . S
C2634 H2615 0.929 . S
C2634 C2631 1.404 . S
C2634 N2632 1.334 . S
C2635 H2627 0.930 . S
C2635 C2630 1.418 . S
C2635 C2631 1.353 . S
C2636 H2606 0.930 . S
C2636 N2637 1.330 . S
C2636 C2638 1.446 . S
N2637 Co2596 2.151 . S
N2637 C2636 1.330 . S
N2637 C2641 1.418 . S
C2638 H2617 0.929 . S
C2638 C2636 1.446 . S
C2638 C2639 1.332 . S
C2639 H2619 0.931 . S
C2639 C2638 1.332 . S
C2639 C2640 1.267 . S
C2640 H2608 0.929 . S
C2640 C2639 1.267 . S
C2640 C2641 1.251 . S
C2641 H2611 0.929 . S
C2641 N2637 1.418 . S
C2641 C2640 1.251 . S
C2642 H2609 0.930 . S
C2642 C2644 1.406 . S
C2642 C2647 1.261 . S
C2643 H2610 0.930 . S
C2643 N2645 1.325 . S
C2643 C2646 1.357 . S
C2644 H2612 0.928 . S
C2644 C2642 1.406 . S
C2644 N2645 1.261 . S
N2645 Co2596 2.214 . S
N2645 C2643 1.325 . S
N2645 C2644 1.261 . S
C2646 H2616 0.931 . S
C2646 C2643 1.357 . S
C2646 C2647 1.312 . S
C2647 H2618 0.930 . S
C2647 C2642 1.261 . S
C2647 C2646 1.312 . S
C2648 O2620 1.214 . S
C2648 O2628 1.234 . S
C2649 H2621 0.929 . S
C2649 C2652 1.391 . S
C2649 C2654 1.391 . S
C2650 H2622 0.929 . S
C2650 C2651 1.390 . S
C2650 N2653 1.391 . S
C2651 H2623 0.930 . S
C2651 C2650 1.390 . S
C2651 C2652 1.392 . S
C2652 H2624 0.929 . S
C2652 C2649 1.391 . S
C2652 C2651 1.392 . S
N2653 Co2597 2.257 . S
N2653 C2650 1.391 . S
N2653 C2654 1.388 . S
C2654 H2625 0.930 . S
C2654 C2649 1.391 . S
C2654 N2653 1.388 . S
Co2655 O2657 2.143 . S
Co2655 O2663 2.074 . S
Co2655 O2666 2.093 . S
Co2655 O2679 2.097 . S
Co2655 N2696 2.151 . S
Co2655 N2704 2.214 . S
Co2656 O2657 2.160 . S
Co2656 O2662 2.058 . S
Co2656 O2672 2.057 . S
Co2656 O2687 2.037 . S
Co2656 N2691 2.145 . S
Co2656 N2712 2.257 . S
O2657 Co2655 2.143 . S
O2657 Co2656 2.160 . S
C2658 O2659 1.278 . S
C2658 O2666 1.224 . S
O2659 C2658 1.278 . S
C2660 O2661 1.245 . S
C2660 O2672 1.232 . S
O2661 C2660 1.245 . S
O2662 Co2656 2.058 . S
O2662 C2688 1.269 . S
O2663 Co2655 2.074 . S
O2663 C2688 1.257 . S
H2664 C2689 0.930 . S
H2665 C2695 0.930 . S
O2666 Co2655 2.093 . S
O2666 C2658 1.224 . S
H2667 C2699 0.929 . S
H2668 C2701 0.930 . S
H2669 C2702 0.930 . S
H2670 C2700 0.929 . S
H2671 C2703 0.928 . S
O2672 Co2656 2.057 . S
O2672 C2660 1.232 . S
H2673 C2692 0.929 . S
H2674 C2693 0.929 . S
H2675 C2705 0.931 . S
H2676 C2697 0.929 . S
H2677 C2706 0.930 . S
H2678 C2698 0.931 . S
O2679 Co2655 2.097 . S
O2679 C2707 1.214 . S
H2680 C2708 0.929 . S
H2681 C2709 0.929 . S
H2682 C2710 0.930 . S
H2683 C2711 0.929 . S
H2684 C2713 0.930 . S
H2685 C2690 0.930 . S
H2686 C2694 0.917 1_655 S
O2687 Co2656 2.037 . S
O2687 C2707 1.234 . S
C2688 O2662 1.269 . S
C2688 O2663 1.257 . S
C2689 H2664 0.930 . S
C2689 C2692 1.388 . S
C2689 C2694 1.418 . S
C2690 H2685 0.930 . S
C2690 C2693 1.404 . S
C2690 C2694 1.353 . S
N2691 Co2656 2.145 . S
N2691 C2692 1.397 . S
N2691 C2693 1.334 . S
C2692 H2673 0.929 . S
C2692 C2689 1.388 . S
C2692 N2691 1.397 . S
C2693 H2674 0.929 . S
C2693 C2690 1.404 . S
C2693 N2691 1.334 . S
C2694 H2686 0.917 1_455 S
C2694 C2689 1.418 . S
C2694 C2690 1.353 . S
C2695 H2665 0.930 . S
C2695 N2696 1.330 . S
C2695 C2697 1.446 . S
N2696 Co2655 2.151 . S
N2696 C2695 1.330 . S
N2696 C2700 1.418 . S
C2697 H2676 0.929 . S
C2697 C2695 1.446 . S
C2697 C2698 1.332 . S
C2698 H2678 0.931 . S
C2698 C2697 1.332 . S
C2698 C2699 1.267 . S
C2699 H2667 0.929 . S
C2699 C2698 1.267 . S
C2699 C2700 1.251 . S
C2700 H2670 0.929 . S
C2700 N2696 1.418 . S
C2700 C2699 1.251 . S
C2701 H2668 0.930 . S
C2701 C2703 1.406 . S
C2701 C2706 1.261 . S
C2702 H2669 0.930 . S
C2702 N2704 1.325 . S
C2702 C2705 1.357 . S
C2703 H2671 0.928 . S
C2703 C2701 1.406 . S
C2703 N2704 1.261 . S
N2704 Co2655 2.214 . S
N2704 C2702 1.325 . S
N2704 C2703 1.261 . S
C2705 H2675 0.931 . S
C2705 C2702 1.357 . S
C2705 C2706 1.312 . S
C2706 H2677 0.930 . S
C2706 C2701 1.261 . S
C2706 C2705 1.312 . S
C2707 O2679 1.214 . S
C2707 O2687 1.234 . S
C2708 H2680 0.929 . S
C2708 C2711 1.391 . S
C2708 C2713 1.391 . S
C2709 H2681 0.929 . S
C2709 C2710 1.390 . S
C2709 N2712 1.391 . S
C2710 H2682 0.930 . S
C2710 C2709 1.390 . S
C2710 C2711 1.392 . S
C2711 H2683 0.929 . S
C2711 C2708 1.391 . S
C2711 C2710 1.392 . S
N2712 Co2656 2.257 . S
N2712 C2709 1.391 . S
N2712 C2713 1.388 . S
C2713 H2684 0.930 . S
C2713 C2708 1.391 . S
C2713 N2712 1.388 . S
Co2714 O2716 2.143 . S
Co2714 O2722 2.074 . S
Co2714 O2725 2.093 . S
Co2714 O2738 2.097 . S
Co2714 N2755 2.151 . S
Co2714 N2763 2.214 . S
Co2715 O2716 2.160 . S
Co2715 O2721 2.058 . S
Co2715 O2731 2.057 . S
Co2715 O2746 2.037 . S
Co2715 N2750 2.145 . S
Co2715 N2771 2.257 . S
O2716 Co2714 2.143 . S
O2716 Co2715 2.160 . S
C2717 O2718 1.278 . S
C2717 O2725 1.224 . S
O2718 C2717 1.278 . S
C2719 O2720 1.245 . S
C2719 O2731 1.232 . S
O2720 C2719 1.245 . S
O2721 Co2715 2.058 . S
O2721 C2747 1.269 . S
O2722 Co2714 2.074 . S
O2722 C2747 1.257 . S
H2723 C2748 0.930 . S
H2724 C2754 0.930 . S
O2725 Co2714 2.093 . S
O2725 C2717 1.224 . S
H2726 C2758 0.929 . S
H2727 C2760 0.930 . S
H2728 C2761 0.930 . S
H2729 C2759 0.929 . S
H2730 C2762 0.928 . S
O2731 Co2715 2.057 . S
O2731 C2719 1.232 . S
H2732 C2751 0.929 . S
H2733 C2752 0.929 . S
H2734 C2764 0.931 . S
H2735 C2756 0.929 . S
H2736 C2765 0.930 . S
H2737 C2757 0.931 . S
O2738 Co2714 2.097 . S
O2738 C2766 1.214 . S
H2739 C2767 0.929 . S
H2740 C2768 0.929 . S
H2741 C2769 0.930 . S
H2742 C2770 0.929 . S
H2743 C2772 0.930 . S
H2744 C2749 0.930 . S
H2745 C2753 0.930 . S
O2746 Co2715 2.037 . S
O2746 C2766 1.234 . S
C2747 O2721 1.269 . S
C2747 O2722 1.257 . S
C2748 H2723 0.930 . S
C2748 C2751 1.388 . S
C2748 C2753 1.418 . S
C2749 H2744 0.930 . S
C2749 C2752 1.404 . S
C2749 C2753 1.353 . S
N2750 Co2715 2.145 . S
N2750 C2751 1.397 . S
N2750 C2752 1.334 . S
C2751 H2732 0.929 . S
C2751 C2748 1.388 . S
C2751 N2750 1.397 . S
C2752 H2733 0.929 . S
C2752 C2749 1.404 . S
C2752 N2750 1.334 . S
C2753 H2745 0.930 . S
C2753 C2748 1.418 . S
C2753 C2749 1.353 . S
C2754 H2724 0.930 . S
C2754 N2755 1.330 . S
C2754 C2756 1.446 . S
N2755 Co2714 2.151 . S
N2755 C2754 1.330 . S
N2755 C2759 1.418 . S
C2756 H2735 0.929 . S
C2756 C2754 1.446 . S
C2756 C2757 1.332 . S
C2757 H2737 0.931 . S
C2757 C2756 1.332 . S
C2757 C2758 1.267 . S
C2758 H2726 0.929 . S
C2758 C2757 1.267 . S
C2758 C2759 1.251 . S
C2759 H2729 0.929 . S
C2759 N2755 1.418 . S
C2759 C2758 1.251 . S
C2760 H2727 0.930 . S
C2760 C2762 1.406 . S
C2760 C2765 1.261 . S
C2761 H2728 0.930 . S
C2761 N2763 1.325 . S
C2761 C2764 1.357 . S
C2762 H2730 0.928 . S
C2762 C2760 1.406 . S
C2762 N2763 1.261 . S
N2763 Co2714 2.214 . S
N2763 C2761 1.325 . S
N2763 C2762 1.261 . S
C2764 H2734 0.931 . S
C2764 C2761 1.357 . S
C2764 C2765 1.312 . S
C2765 H2736 0.930 . S
C2765 C2760 1.261 . S
C2765 C2764 1.312 . S
C2766 O2738 1.214 . S
C2766 O2746 1.234 . S
C2767 H2739 0.929 . S
C2767 C2770 1.391 . S
C2767 C2772 1.391 . S
C2768 H2740 0.929 . S
C2768 C2769 1.390 . S
C2768 N2771 1.391 . S
C2769 H2741 0.930 . S
C2769 C2768 1.390 . S
C2769 C2770 1.392 . S
C2770 H2742 0.929 . S
C2770 C2767 1.391 . S
C2770 C2769 1.392 . S
N2771 Co2715 2.257 . S
N2771 C2768 1.391 . S
N2771 C2772 1.388 . S
C2772 H2743 0.930 . S
C2772 C2767 1.391 . S
C2772 N2771 1.388 . S
Co2773 O2775 2.143 . S
Co2773 O2781 2.074 . S
Co2773 O2784 2.093 . S
Co2773 O2797 2.097 . S
Co2773 N2814 2.151 . S
Co2773 N2822 2.214 . S
Co2774 O2775 2.160 . S
Co2774 O2780 2.058 . S
Co2774 O2790 2.057 . S
Co2774 O2805 2.037 . S
Co2774 N2809 2.145 . S
Co2774 N2830 2.257 . S
O2775 Co2773 2.143 . S
O2775 Co2774 2.160 . S
C2776 O2777 1.278 . S
C2776 O2784 1.224 . S
O2777 C2776 1.278 . S
C2778 O2779 1.245 . S
C2778 O2790 1.232 . S
O2779 C2778 1.245 . S
O2780 Co2774 2.058 . S
O2780 C2806 1.269 . S
O2781 Co2773 2.074 . S
O2781 C2806 1.257 . S
H2782 C2807 0.930 . S
H2783 C2813 0.930 . S
O2784 Co2773 2.093 . S
O2784 C2776 1.224 . S
H2785 C2817 0.929 . S
H2786 C2819 0.930 . S
H2787 C2820 0.930 . S
H2788 C2818 0.929 . S
H2789 C2821 0.928 . S
O2790 Co2774 2.057 . S
O2790 C2778 1.232 . S
H2791 C2810 0.929 . S
H2792 C2811 0.929 . S
H2793 C2823 0.931 . S
H2794 C2815 0.929 . S
H2795 C2824 0.930 . S
H2796 C2816 0.931 . S
O2797 Co2773 2.097 . S
O2797 C2825 1.214 . S
H2798 C2826 0.929 . S
H2799 C2827 0.929 . S
H2800 C2828 0.930 . S
H2801 C2829 0.929 . S
H2802 C2831 0.930 . S
H2803 C2808 0.930 . S
H2804 C2812 0.930 . S
O2805 Co2774 2.037 . S
O2805 C2825 1.234 . S
C2806 O2780 1.269 . S
C2806 O2781 1.257 . S
C2807 H2782 0.930 . S
C2807 C2810 1.388 . S
C2807 C2812 1.418 . S
C2808 H2803 0.930 . S
C2808 C2811 1.404 . S
C2808 C2812 1.353 . S
N2809 Co2774 2.145 . S
N2809 C2810 1.397 . S
N2809 C2811 1.334 . S
C2810 H2791 0.929 . S
C2810 C2807 1.388 . S
C2810 N2809 1.397 . S
C2811 H2792 0.929 . S
C2811 C2808 1.404 . S
C2811 N2809 1.334 . S
C2812 H2804 0.930 . S
C2812 C2807 1.418 . S
C2812 C2808 1.353 . S
C2813 H2783 0.930 . S
C2813 N2814 1.330 . S
C2813 C2815 1.446 . S
N2814 Co2773 2.151 . S
N2814 C2813 1.330 . S
N2814 C2818 1.418 . S
C2815 H2794 0.929 . S
C2815 C2813 1.446 . S
C2815 C2816 1.332 . S
C2816 H2796 0.931 . S
C2816 C2815 1.332 . S
C2816 C2817 1.267 . S
C2817 H2785 0.929 . S
C2817 C2816 1.267 . S
C2817 C2818 1.251 . S
C2818 H2788 0.929 . S
C2818 N2814 1.418 . S
C2818 C2817 1.251 . S
C2819 H2786 0.930 . S
C2819 C2821 1.406 . S
C2819 C2824 1.261 . S
C2820 H2787 0.930 . S
C2820 N2822 1.325 . S
C2820 C2823 1.357 . S
C2821 H2789 0.928 . S
C2821 C2819 1.406 . S
C2821 N2822 1.261 . S
N2822 Co2773 2.214 . S
N2822 C2820 1.325 . S
N2822 C2821 1.261 . S
C2823 H2793 0.931 . S
C2823 C2820 1.357 . S
C2823 C2824 1.312 . S
C2824 H2795 0.930 . S
C2824 C2819 1.261 . S
C2824 C2823 1.312 . S
C2825 O2797 1.214 . S
C2825 O2805 1.234 . S
C2826 H2798 0.929 . S
C2826 C2829 1.391 . S
C2826 C2831 1.391 . S
C2827 H2799 0.929 . S
C2827 C2828 1.390 . S
C2827 N2830 1.391 . S
C2828 H2800 0.930 . S
C2828 C2827 1.390 . S
C2828 C2829 1.392 . S
C2829 H2801 0.929 . S
C2829 C2826 1.391 . S
C2829 C2828 1.392 . S
N2830 Co2774 2.257 . S
N2830 C2827 1.391 . S
N2830 C2831 1.388 . S
C2831 H2802 0.930 . S
C2831 C2826 1.391 . S
C2831 N2830 1.388 . S
H2832 C2844 0.930 . S
H2833 C2846 0.930 . S
H2834 C2847 0.930 . S
H2835 C2851 0.959 . S
H2836 C2851 0.959 . S
H2837 C2851 0.961 . S
H2838 C2852 0.960 . S
H2839 C2852 0.961 . S
H2840 C2852 0.959 . S
H2841 C2855 0.929 . S
H2842 C2856 0.931 . S
H2843 C2858 0.930 . S
C2844 H2832 0.930 . S
C2844 C2845 1.399 . S
C2844 C2849 1.399 . S
C2845 C2844 1.399 . S
C2845 C2846 1.376 . S
C2846 H2833 0.930 . S
C2846 C2845 1.376 . S
C2846 C2847 1.388 . S
C2847 H2834 0.930 . S
C2847 C2846 1.388 . S
C2847 C2848 1.390 . S
C2848 C2847 1.390 . S
C2848 C2849 1.394 . S
C2848 C2854 1.465 . S
C2849 C2844 1.399 . S
C2849 C2848 1.394 . S
C2849 C2850 1.516 . S
C2850 C2849 1.516 . S
C2850 C2851 1.502 . S
C2850 C2852 1.561 . S
C2850 C2853 1.526 . S
C2851 H2835 0.959 . S
C2851 H2836 0.959 . S
C2851 H2837 0.961 . S
C2851 C2850 1.502 . S
C2852 H2838 0.960 . S
C2852 H2839 0.961 . S
C2852 H2840 0.959 . S
C2852 C2850 1.561 . S
C2853 C2850 1.526 . S
C2853 C2854 1.396 . S
C2853 C2858 1.390 . S
C2854 C2848 1.465 . S
C2854 C2853 1.396 . S
C2854 C2855 1.399 . S
C2855 H2841 0.929 . S
C2855 C2854 1.399 . S
C2855 C2856 1.385 . S
C2856 H2842 0.931 . S
C2856 C2855 1.385 . S
C2856 C2857 1.389 . S
C2857 C2856 1.389 . S
C2857 C2858 1.387 . S
C2858 H2843 0.930 . S
C2858 C2853 1.390 . S
C2858 C2857 1.387 . S
H2859 C2871 0.930 . S
H2860 C2873 0.930 . S
H2861 C2874 0.930 . S
H2862 C2878 0.959 . S
H2863 C2878 0.959 . S
H2864 C2878 0.961 . S
H2865 C2879 0.960 . S
H2866 C2879 0.961 . S
H2867 C2879 0.959 . S
H2868 C2882 0.929 . S
H2869 C2883 0.931 . S
H2870 C2885 0.930 . S
C2871 H2859 0.930 . S
C2871 C2872 1.399 . S
C2871 C2876 1.399 . S
C2872 C2871 1.399 . S
C2872 C2873 1.376 . S
C2873 H2860 0.930 . S
C2873 C2872 1.376 . S
C2873 C2874 1.388 . S
C2874 H2861 0.930 . S
C2874 C2873 1.388 . S
C2874 C2875 1.390 . S
C2875 C2874 1.390 . S
C2875 C2876 1.394 . S
C2875 C2881 1.465 . S
C2876 C2871 1.399 . S
C2876 C2875 1.394 . S
C2876 C2877 1.516 . S
C2877 C2876 1.516 . S
C2877 C2878 1.502 . S
C2877 C2879 1.561 . S
C2877 C2880 1.526 . S
C2878 H2862 0.959 . S
C2878 H2863 0.959 . S
C2878 H2864 0.961 . S
C2878 C2877 1.502 . S
C2879 H2865 0.960 . S
C2879 H2866 0.961 . S
C2879 H2867 0.959 . S
C2879 C2877 1.561 . S
C2880 C2877 1.526 . S
C2880 C2881 1.396 . S
C2880 C2885 1.390 . S
C2881 C2875 1.465 . S
C2881 C2880 1.396 . S
C2881 C2882 1.399 . S
C2882 H2868 0.929 . S
C2882 C2881 1.399 . S
C2882 C2883 1.385 . S
C2883 H2869 0.931 . S
C2883 C2882 1.385 . S
C2883 C2884 1.389 . S
C2884 C2883 1.389 . S
C2884 C2885 1.387 . S
C2885 H2870 0.930 . S
C2885 C2880 1.390 . S
C2885 C2884 1.387 . S
H2886 C2898 0.930 . S
H2887 C2900 0.930 . S
H2888 C2901 0.930 . S
H2889 C2905 0.959 . S
H2890 C2905 0.959 . S
H2891 C2905 0.961 . S
H2892 C2906 0.960 . S
H2893 C2906 0.961 . S
H2894 C2906 0.959 . S
H2895 C2909 0.929 . S
H2896 C2910 0.931 . S
H2897 C2912 0.930 . S
C2898 H2886 0.930 . S
C2898 C2899 1.399 . S
C2898 C2903 1.399 . S
C2899 C2898 1.399 . S
C2899 C2900 1.376 . S
C2900 H2887 0.930 . S
C2900 C2899 1.376 . S
C2900 C2901 1.388 . S
C2901 H2888 0.930 . S
C2901 C2900 1.388 . S
C2901 C2902 1.390 . S
C2902 C2901 1.390 . S
C2902 C2903 1.394 . S
C2902 C2908 1.465 . S
C2903 C2898 1.399 . S
C2903 C2902 1.394 . S
C2903 C2904 1.516 . S
C2904 C2903 1.516 . S
C2904 C2905 1.502 . S
C2904 C2906 1.561 . S
C2904 C2907 1.526 . S
C2905 H2889 0.959 . S
C2905 H2890 0.959 . S
C2905 H2891 0.961 . S
C2905 C2904 1.502 . S
C2906 H2892 0.960 . S
C2906 H2893 0.961 . S
C2906 H2894 0.959 . S
C2906 C2904 1.561 . S
C2907 C2904 1.526 . S
C2907 C2908 1.396 . S
C2907 C2912 1.390 . S
C2908 C2902 1.465 . S
C2908 C2907 1.396 . S
C2908 C2909 1.399 . S
C2909 H2895 0.929 . S
C2909 C2908 1.399 . S
C2909 C2910 1.385 . S
C2910 H2896 0.931 . S
C2910 C2909 1.385 . S
C2910 C2911 1.389 . S
C2911 C2910 1.389 . S
C2911 C2912 1.387 . S
C2912 H2897 0.930 . S
C2912 C2907 1.390 . S
C2912 C2911 1.387 . S
H2913 C2925 0.930 . S
H2914 C2927 0.930 . S
H2915 C2928 0.930 . S
H2916 C2932 0.959 . S
H2917 C2932 0.959 . S
H2918 C2932 0.961 . S
H2919 C2933 0.960 . S
H2920 C2933 0.961 . S
H2921 C2933 0.959 . S
H2922 C2936 0.929 . S
H2923 C2937 0.931 . S
H2924 C2939 0.930 . S
C2925 H2913 0.930 . S
C2925 C2926 1.399 . S
C2925 C2930 1.399 . S
C2926 C2925 1.399 . S
C2926 C2927 1.376 . S
C2927 H2914 0.930 . S
C2927 C2926 1.376 . S
C2927 C2928 1.388 . S
C2928 H2915 0.930 . S
C2928 C2927 1.388 . S
C2928 C2929 1.390 . S
C2929 C2928 1.390 . S
C2929 C2930 1.394 . S
C2929 C2935 1.465 . S
C2930 C2925 1.399 . S
C2930 C2929 1.394 . S
C2930 C2931 1.516 . S
C2931 C2930 1.516 . S
C2931 C2932 1.502 . S
C2931 C2933 1.561 . S
C2931 C2934 1.526 . S
C2932 H2916 0.959 . S
C2932 H2917 0.959 . S
C2932 H2918 0.961 . S
C2932 C2931 1.502 . S
C2933 H2919 0.960 . S
C2933 H2920 0.961 . S
C2933 H2921 0.959 . S
C2933 C2931 1.561 . S
C2934 C2931 1.526 . S
C2934 C2935 1.396 . S
C2934 C2939 1.390 . S
C2935 C2929 1.465 . S
C2935 C2934 1.396 . S
C2935 C2936 1.399 . S
C2936 H2922 0.929 . S
C2936 C2935 1.399 . S
C2936 C2937 1.385 . S
C2937 H2923 0.931 . S
C2937 C2936 1.385 . S
C2937 C2938 1.389 . S
C2938 C2937 1.389 . S
C2938 C2939 1.387 . S
C2939 H2924 0.930 . S
C2939 C2934 1.390 . S
C2939 C2938 1.387 . S
H2940 C2952 0.930 . S
H2941 C2954 0.930 . S
H2942 C2955 0.930 . S
H2943 C2959 0.959 . S
H2944 C2959 0.959 . S
H2945 C2959 0.961 . S
H2946 C2960 0.960 . S
H2947 C2960 0.961 . S
H2948 C2960 0.959 . S
H2949 C2963 0.929 . S
H2950 C2964 0.931 . S
H2951 C2966 0.930 . S
C2952 H2940 0.930 . S
C2952 C2953 1.399 . S
C2952 C2957 1.399 . S
C2953 C2952 1.399 . S
C2953 C2954 1.376 . S
C2954 H2941 0.930 . S
C2954 C2953 1.376 . S
C2954 C2955 1.388 . S
C2955 H2942 0.930 . S
C2955 C2954 1.388 . S
C2955 C2956 1.390 . S
C2956 C2955 1.390 . S
C2956 C2957 1.394 . S
C2956 C2962 1.465 . S
C2957 C2952 1.399 . S
C2957 C2956 1.394 . S
C2957 C2958 1.516 . S
C2958 C2957 1.516 . S
C2958 C2959 1.502 . S
C2958 C2960 1.561 . S
C2958 C2961 1.526 . S
C2959 H2943 0.959 . S
C2959 H2944 0.959 . S
C2959 H2945 0.961 . S
C2959 C2958 1.502 . S
C2960 H2946 0.960 . S
C2960 H2947 0.961 . S
C2960 H2948 0.959 . S
C2960 C2958 1.561 . S
C2961 C2958 1.526 . S
C2961 C2962 1.396 . S
C2961 C2966 1.390 . S
C2962 C2956 1.465 . S
C2962 C2961 1.396 . S
C2962 C2963 1.399 . S
C2963 H2949 0.929 . S
C2963 C2962 1.399 . S
C2963 C2964 1.385 . S
C2964 H2950 0.931 . S
C2964 C2963 1.385 . S
C2964 C2965 1.389 . S
C2965 C2964 1.389 . S
C2965 C2966 1.387 . S
C2966 H2951 0.930 . S
C2966 C2961 1.390 . S
C2966 C2965 1.387 . S
H2967 C2979 0.930 . S
H2968 C2981 0.930 . S
H2969 C2982 0.930 . S
H2970 C2986 0.959 . S
H2971 C2986 0.959 . S
H2972 C2986 0.961 . S
H2973 C2987 0.960 . S
H2974 C2987 0.961 . S
H2975 C2987 0.959 . S
H2976 C2990 0.929 . S
H2977 C2991 0.931 . S
H2978 C2993 0.930 . S
C2979 H2967 0.930 . S
C2979 C2980 1.399 . S
C2979 C2984 1.399 . S
C2980 C2979 1.399 . S
C2980 C2981 1.376 . S
C2981 H2968 0.930 . S
C2981 C2980 1.376 . S
C2981 C2982 1.388 . S
C2982 H2969 0.930 . S
C2982 C2981 1.388 . S
C2982 C2983 1.390 . S
C2983 C2982 1.390 . S
C2983 C2984 1.394 . S
C2983 C2989 1.465 . S
C2984 C2979 1.399 . S
C2984 C2983 1.394 . S
C2984 C2985 1.516 . S
C2985 C2984 1.516 . S
C2985 C2986 1.502 . S
C2985 C2987 1.561 . S
C2985 C2988 1.526 . S
C2986 H2970 0.959 . S
C2986 H2971 0.959 . S
C2986 H2972 0.961 . S
C2986 C2985 1.502 . S
C2987 H2973 0.960 . S
C2987 H2974 0.961 . S
C2987 H2975 0.959 . S
C2987 C2985 1.561 . S
C2988 C2985 1.526 . S
C2988 C2989 1.396 . S
C2988 C2993 1.390 . S
C2989 C2983 1.465 . S
C2989 C2988 1.396 . S
C2989 C2990 1.399 . S
C2990 H2976 0.929 . S
C2990 C2989 1.399 . S
C2990 C2991 1.385 . S
C2991 H2977 0.931 . S
C2991 C2990 1.385 . S
C2991 C2992 1.389 . S
C2992 C2991 1.389 . S
C2992 C2993 1.387 . S
C2993 H2978 0.930 . S
C2993 C2988 1.390 . S
C2993 C2992 1.387 . S
H2994 C3006 0.930 . S
H2995 C3008 0.930 . S
H2996 C3009 0.930 . S
H2997 C3013 0.959 . S
H2998 C3013 0.959 . S
H2999 C3013 0.961 . S
H3000 C3014 0.960 . S
H3001 C3014 0.961 . S
H3002 C3014 0.959 . S
H3003 C3017 0.929 . S
H3004 C3018 0.931 . S
H3005 C3020 0.930 . S
C3006 H2994 0.930 . S
C3006 C3007 1.399 . S
C3006 C3011 1.399 . S
C3007 C3006 1.399 . S
C3007 C3008 1.376 . S
C3008 H2995 0.930 . S
C3008 C3007 1.376 . S
C3008 C3009 1.388 . S
C3009 H2996 0.930 . S
C3009 C3008 1.388 . S
C3009 C3010 1.390 . S
C3010 C3009 1.390 . S
C3010 C3011 1.394 . S
C3010 C3016 1.465 . S
C3011 C3006 1.399 . S
C3011 C3010 1.394 . S
C3011 C3012 1.516 . S
C3012 C3011 1.516 . S
C3012 C3013 1.502 . S
C3012 C3014 1.561 . S
C3012 C3015 1.526 . S
C3013 H2997 0.959 . S
C3013 H2998 0.959 . S
C3013 H2999 0.961 . S
C3013 C3012 1.502 . S
C3014 H3000 0.960 . S
C3014 H3001 0.961 . S
C3014 H3002 0.959 . S
C3014 C3012 1.561 . S
C3015 C3012 1.526 . S
C3015 C3016 1.396 . S
C3015 C3020 1.390 . S
C3016 C3010 1.465 . S
C3016 C3015 1.396 . S
C3016 C3017 1.399 . S
C3017 H3003 0.929 . S
C3017 C3016 1.399 . S
C3017 C3018 1.385 . S
C3018 H3004 0.931 . S
C3018 C3017 1.385 . S
C3018 C3019 1.389 . S
C3019 C3018 1.389 . S
C3019 C3020 1.387 . S
C3020 H3005 0.930 . S
C3020 C3015 1.390 . S
C3020 C3019 1.387 . S
H3021 C3033 0.930 . S
H3022 C3035 0.930 . S
H3023 C3036 0.930 . S
H3024 C3040 0.959 . S
H3025 C3040 0.959 . S
H3026 C3040 0.961 . S
H3027 C3041 0.960 . S
H3028 C3041 0.961 . S
H3029 C3041 0.959 . S
H3030 C3044 0.929 . S
H3031 C3045 0.931 . S
H3032 C3047 0.930 . S
C3033 H3021 0.930 . S
C3033 C3034 1.399 . S
C3033 C3038 1.399 . S
C3034 C3033 1.399 . S
C3034 C3035 1.376 . S
C3035 H3022 0.930 . S
C3035 C3034 1.376 . S
C3035 C3036 1.388 . S
C3036 H3023 0.930 . S
C3036 C3035 1.388 . S
C3036 C3037 1.390 . S
C3037 C3036 1.390 . S
C3037 C3038 1.394 . S
C3037 C3043 1.465 . S
C3038 C3033 1.399 . S
C3038 C3037 1.394 . S
C3038 C3039 1.516 . S
C3039 C3038 1.516 . S
C3039 C3040 1.502 . S
C3039 C3041 1.561 . S
C3039 C3042 1.526 . S
C3040 H3024 0.959 . S
C3040 H3025 0.959 . S
C3040 H3026 0.961 . S
C3040 C3039 1.502 . S
C3041 H3027 0.960 . S
C3041 H3028 0.961 . S
C3041 H3029 0.959 . S
C3041 C3039 1.561 . S
C3042 C3039 1.526 . S
C3042 C3043 1.396 . S
C3042 C3047 1.390 . S
C3043 C3037 1.465 . S
C3043 C3042 1.396 . S
C3043 C3044 1.399 . S
C3044 H3030 0.929 . S
C3044 C3043 1.399 . S
C3044 C3045 1.385 . S
C3045 H3031 0.931 . S
C3045 C3044 1.385 . S
C3045 C3046 1.389 . S
C3046 C3045 1.389 . S
C3046 C3047 1.387 . S
C3047 H3032 0.930 . S
C3047 C3042 1.390 . S
C3047 C3046 1.387 . S
H3048 C3060 0.930 . S
H3049 C3062 0.930 . S
H3050 C3063 0.930 . S
H3051 C3067 0.959 . S
H3052 C3067 0.959 . S
H3053 C3067 0.961 . S
H3054 C3068 0.960 . S
H3055 C3068 0.961 . S
H3056 C3068 0.959 . S
H3057 C3071 0.929 . S
H3058 C3072 0.931 . S
H3059 C3074 0.930 . S
C3060 H3048 0.930 . S
C3060 C3061 1.399 . S
C3060 C3065 1.399 . S
C3061 C3060 1.399 . S
C3061 C3062 1.376 . S
C3062 H3049 0.930 . S
C3062 C3061 1.376 . S
C3062 C3063 1.388 . S
C3063 H3050 0.930 . S
C3063 C3062 1.388 . S
C3063 C3064 1.390 . S
C3064 C3063 1.390 . S
C3064 C3065 1.394 . S
C3064 C3070 1.465 . S
C3065 C3060 1.399 . S
C3065 C3064 1.394 . S
C3065 C3066 1.516 . S
C3066 C3065 1.516 . S
C3066 C3067 1.502 . S
C3066 C3068 1.561 . S
C3066 C3069 1.526 . S
C3067 H3051 0.959 . S
C3067 H3052 0.959 . S
C3067 H3053 0.961 . S
C3067 C3066 1.502 . S
C3068 H3054 0.960 . S
C3068 H3055 0.961 . S
C3068 H3056 0.959 . S
C3068 C3066 1.561 . S
C3069 C3066 1.526 . S
C3069 C3070 1.396 . S
C3069 C3074 1.390 . S
C3070 C3064 1.465 . S
C3070 C3069 1.396 . S
C3070 C3071 1.399 . S
C3071 H3057 0.929 . S
C3071 C3070 1.399 . S
C3071 C3072 1.385 . S
C3072 H3058 0.931 . S
C3072 C3071 1.385 . S
C3072 C3073 1.389 . S
C3073 C3072 1.389 . S
C3073 C3074 1.387 . S
C3074 H3059 0.930 . S
C3074 C3069 1.390 . S
C3074 C3073 1.387 . S
H3075 C3087 0.930 . S
H3076 C3089 0.930 . S
H3077 C3090 0.930 . S
H3078 C3094 0.959 . S
H3079 C3094 0.959 . S
H3080 C3094 0.961 . S
H3081 C3095 0.960 . S
H3082 C3095 0.961 . S
H3083 C3095 0.959 . S
H3084 C3098 0.929 . S
H3085 C3099 0.931 . S
H3086 C3101 0.930 . S
C3087 H3075 0.930 . S
C3087 C3088 1.399 . S
C3087 C3092 1.399 . S
C3088 C3087 1.399 . S
C3088 C3089 1.376 . S
C3089 H3076 0.930 . S
C3089 C3088 1.376 . S
C3089 C3090 1.388 . S
C3090 H3077 0.930 . S
C3090 C3089 1.388 . S
C3090 C3091 1.390 . S
C3091 C3090 1.390 . S
C3091 C3092 1.394 . S
C3091 C3097 1.465 . S
C3092 C3087 1.399 . S
C3092 C3091 1.394 . S
C3092 C3093 1.516 . S
C3093 C3092 1.516 . S
C3093 C3094 1.502 . S
C3093 C3095 1.561 . S
C3093 C3096 1.526 . S
C3094 H3078 0.959 . S
C3094 H3079 0.959 . S
C3094 H3080 0.961 . S
C3094 C3093 1.502 . S
C3095 H3081 0.960 . S
C3095 H3082 0.961 . S
C3095 H3083 0.959 . S
C3095 C3093 1.561 . S
C3096 C3093 1.526 . S
C3096 C3097 1.396 . S
C3096 C3101 1.390 . S
C3097 C3091 1.465 . S
C3097 C3096 1.396 . S
C3097 C3098 1.399 . S
C3098 H3084 0.929 . S
C3098 C3097 1.399 . S
C3098 C3099 1.385 . S
C3099 H3085 0.931 . S
C3099 C3098 1.385 . S
C3099 C3100 1.389 . S
C3100 C3099 1.389 . S
C3100 C3101 1.387 . S
C3101 H3086 0.930 . S
C3101 C3096 1.390 . S
C3101 C3100 1.387 . S
H3102 C3114 0.930 . S
H3103 C3116 0.930 . S
H3104 C3117 0.930 . S
H3105 C3121 0.959 . S
H3106 C3121 0.959 . S
H3107 C3121 0.961 . S
H3108 C3122 0.960 . S
H3109 C3122 0.961 . S
H3110 C3122 0.959 . S
H3111 C3125 0.929 . S
H3112 C3126 0.931 . S
H3113 C3128 0.930 . S
C3114 H3102 0.930 . S
C3114 C3115 1.399 . S
C3114 C3119 1.399 . S
C3115 C3114 1.399 . S
C3115 C3116 1.376 . S
C3116 H3103 0.930 . S
C3116 C3115 1.376 . S
C3116 C3117 1.388 . S
C3117 H3104 0.930 . S
C3117 C3116 1.388 . S
C3117 C3118 1.390 . S
C3118 C3117 1.390 . S
C3118 C3119 1.394 . S
C3118 C3124 1.465 . S
C3119 C3114 1.399 . S
C3119 C3118 1.394 . S
C3119 C3120 1.516 . S
C3120 C3119 1.516 . S
C3120 C3121 1.502 . S
C3120 C3122 1.561 . S
C3120 C3123 1.526 . S
C3121 H3105 0.959 . S
C3121 H3106 0.959 . S
C3121 H3107 0.961 . S
C3121 C3120 1.502 . S
C3122 H3108 0.960 . S
C3122 H3109 0.961 . S
C3122 H3110 0.959 . S
C3122 C3120 1.561 . S
C3123 C3120 1.526 . S
C3123 C3124 1.396 . S
C3123 C3128 1.390 . S
C3124 C3118 1.465 . S
C3124 C3123 1.396 . S
C3124 C3125 1.399 . S
C3125 H3111 0.929 . S
C3125 C3124 1.399 . S
C3125 C3126 1.385 . S
C3126 H3112 0.931 . S
C3126 C3125 1.385 . S
C3126 C3127 1.389 . S
C3127 C3126 1.389 . S
C3127 C3128 1.387 . S
C3128 H3113 0.930 . S
C3128 C3123 1.390 . S
C3128 C3127 1.387 . S
H3129 C3141 0.930 . S
H3130 C3143 0.930 . S
H3131 C3144 0.930 . S
H3132 C3148 0.959 . S
H3133 C3148 0.959 . S
H3134 C3148 0.961 . S
H3135 C3149 0.960 . S
H3136 C3149 0.961 . S
H3137 C3149 0.959 . S
H3138 C3152 0.929 . S
H3139 C3153 0.931 . S
H3140 C3155 0.930 . S
C3141 H3129 0.930 . S
C3141 C3142 1.399 . S
C3141 C3146 1.399 . S
C3142 C3141 1.399 . S
C3142 C3143 1.376 . S
C3143 H3130 0.930 . S
C3143 C3142 1.376 . S
C3143 C3144 1.388 . S
C3144 H3131 0.930 . S
C3144 C3143 1.388 . S
C3144 C3145 1.390 . S
C3145 C3144 1.390 . S
C3145 C3146 1.394 . S
C3145 C3151 1.465 . S
C3146 C3141 1.399 . S
C3146 C3145 1.394 . S
C3146 C3147 1.516 . S
C3147 C3146 1.516 . S
C3147 C3148 1.502 . S
C3147 C3149 1.561 . S
C3147 C3150 1.526 . S
C3148 H3132 0.959 . S
C3148 H3133 0.959 . S
C3148 H3134 0.961 . S
C3148 C3147 1.502 . S
C3149 H3135 0.960 . S
C3149 H3136 0.961 . S
C3149 H3137 0.959 . S
C3149 C3147 1.561 . S
C3150 C3147 1.526 . S
C3150 C3151 1.396 . S
C3150 C3155 1.390 . S
C3151 C3145 1.465 . S
C3151 C3150 1.396 . S
C3151 C3152 1.399 . S
C3152 H3138 0.929 . S
C3152 C3151 1.399 . S
C3152 C3153 1.385 . S
C3153 H3139 0.931 . S
C3153 C3152 1.385 . S
C3153 C3154 1.389 . S
C3154 C3153 1.389 . S
C3154 C3155 1.387 . S
C3155 H3140 0.930 . S
C3155 C3150 1.390 . S
C3155 C3154 1.387 . S
H3156 C3168 0.930 . S
H3157 C3170 0.930 . S
H3158 C3171 0.930 . S
H3159 C3175 0.959 . S
H3160 C3175 0.959 . S
H3161 C3175 0.961 . S
H3162 C3176 0.960 . S
H3163 C3176 0.961 . S
H3164 C3176 0.959 . S
H3165 C3179 0.929 . S
H3166 C3180 0.931 . S
H3167 C3182 0.930 . S
C3168 H3156 0.930 . S
C3168 C3169 1.399 . S
C3168 C3173 1.399 . S
C3169 C3168 1.399 . S
C3169 C3170 1.376 . S
C3170 H3157 0.930 . S
C3170 C3169 1.376 . S
C3170 C3171 1.388 . S
C3171 H3158 0.930 . S
C3171 C3170 1.388 . S
C3171 C3172 1.390 . S
C3172 C3171 1.390 . S
C3172 C3173 1.394 . S
C3172 C3178 1.465 . S
C3173 C3168 1.399 . S
C3173 C3172 1.394 . S
C3173 C3174 1.516 . S
C3174 C3173 1.516 . S
C3174 C3175 1.502 . S
C3174 C3176 1.561 . S
C3174 C3177 1.526 . S
C3175 H3159 0.959 . S
C3175 H3160 0.959 . S
C3175 H3161 0.961 . S
C3175 C3174 1.502 . S
C3176 H3162 0.960 . S
C3176 H3163 0.961 . S
C3176 H3164 0.959 . S
C3176 C3174 1.561 . S
C3177 C3174 1.526 . S
C3177 C3178 1.396 . S
C3177 C3182 1.390 . S
C3178 C3172 1.465 . S
C3178 C3177 1.396 . S
C3178 C3179 1.399 . S
C3179 H3165 0.929 . S
C3179 C3178 1.399 . S
C3179 C3180 1.385 . S
C3180 H3166 0.931 . S
C3180 C3179 1.385 . S
C3180 C3181 1.389 . S
C3181 C3180 1.389 . S
C3181 C3182 1.387 . S
C3182 H3167 0.930 . S
C3182 C3177 1.390 . S
C3182 C3181 1.387 . S
H3183 C3195 0.930 . S
H3184 C3197 0.930 . S
H3185 C3198 0.930 . S
H3186 C3202 0.959 . S
H3187 C3202 0.959 . S
H3188 C3202 0.961 . S
H3189 C3203 0.960 . S
H3190 C3203 0.961 . S
H3191 C3203 0.959 . S
H3192 C3206 0.929 . S
H3193 C3207 0.931 . S
H3194 C3209 0.930 . S
C3195 H3183 0.930 . S
C3195 C3196 1.399 . S
C3195 C3200 1.399 . S
C3196 C3195 1.399 . S
C3196 C3197 1.376 . S
C3197 H3184 0.930 . S
C3197 C3196 1.376 . S
C3197 C3198 1.388 . S
C3198 H3185 0.930 . S
C3198 C3197 1.388 . S
C3198 C3199 1.390 . S
C3199 C3198 1.390 . S
C3199 C3200 1.394 . S
C3199 C3205 1.465 . S
C3200 C3195 1.399 . S
C3200 C3199 1.394 . S
C3200 C3201 1.516 . S
C3201 C3200 1.516 . S
C3201 C3202 1.502 . S
C3201 C3203 1.561 . S
C3201 C3204 1.526 . S
C3202 H3186 0.959 . S
C3202 H3187 0.959 . S
C3202 H3188 0.961 . S
C3202 C3201 1.502 . S
C3203 H3189 0.960 . S
C3203 H3190 0.961 . S
C3203 H3191 0.959 . S
C3203 C3201 1.561 . S
C3204 C3201 1.526 . S
C3204 C3205 1.396 . S
C3204 C3209 1.390 . S
C3205 C3199 1.465 . S
C3205 C3204 1.396 . S
C3205 C3206 1.399 . S
C3206 H3192 0.929 . S
C3206 C3205 1.399 . S
C3206 C3207 1.385 . S
C3207 H3193 0.931 . S
C3207 C3206 1.385 . S
C3207 C3208 1.389 . S
C3208 C3207 1.389 . S
C3208 C3209 1.387 . S
C3209 H3194 0.930 . S
C3209 C3204 1.390 . S
C3209 C3208 1.387 . S
H3210 C3222 0.930 . S
H3211 C3224 0.930 . S
H3212 C3225 0.930 . S
H3213 C3229 0.959 . S
H3214 C3229 0.959 . S
H3215 C3229 0.961 . S
H3216 C3230 0.960 . S
H3217 C3230 0.961 . S
H3218 C3230 0.959 . S
H3219 C3233 0.929 . S
H3220 C3234 0.931 . S
H3221 C3236 0.930 . S
C3222 H3210 0.930 . S
C3222 C3223 1.399 . S
C3222 C3227 1.399 . S
C3223 C3222 1.399 . S
C3223 C3224 1.376 . S
C3224 H3211 0.930 . S
C3224 C3223 1.376 . S
C3224 C3225 1.388 . S
C3225 H3212 0.930 . S
C3225 C3224 1.388 . S
C3225 C3226 1.390 . S
C3226 C3225 1.390 . S
C3226 C3227 1.394 . S
C3226 C3232 1.465 . S
C3227 C3222 1.399 . S
C3227 C3226 1.394 . S
C3227 C3228 1.516 . S
C3228 C3227 1.516 . S
C3228 C3229 1.502 . S
C3228 C3230 1.561 . S
C3228 C3231 1.526 . S
C3229 H3213 0.959 . S
C3229 H3214 0.959 . S
C3229 H3215 0.961 . S
C3229 C3228 1.502 . S
C3230 H3216 0.960 . S
C3230 H3217 0.961 . S
C3230 H3218 0.959 . S
C3230 C3228 1.561 . S
C3231 C3228 1.526 . S
C3231 C3232 1.396 . S
C3231 C3236 1.390 . S
C3232 C3226 1.465 . S
C3232 C3231 1.396 . S
C3232 C3233 1.399 . S
C3233 H3219 0.929 . S
C3233 C3232 1.399 . S
C3233 C3234 1.385 . S
C3234 H3220 0.931 . S
C3234 C3233 1.385 . S
C3234 C3235 1.389 . S
C3235 C3234 1.389 . S
C3235 C3236 1.387 . S
C3236 H3221 0.930 . S
C3236 C3231 1.390 . S
C3236 C3235 1.387 . S
H3237 C3249 0.930 . S
H3238 C3251 0.930 . S
H3239 C3252 0.930 . S
H3240 C3256 0.959 . S
H3241 C3256 0.959 . S
H3242 C3256 0.961 . S
H3243 C3257 0.960 . S
H3244 C3257 0.961 . S
H3245 C3257 0.959 . S
H3246 C3260 0.929 . S
H3247 C3261 0.931 . S
H3248 C3263 0.930 . S
C3249 H3237 0.930 . S
C3249 C3250 1.399 . S
C3249 C3254 1.399 . S
C3250 C3249 1.399 . S
C3250 C3251 1.376 . S
C3251 H3238 0.930 . S
C3251 C3250 1.376 . S
C3251 C3252 1.388 . S
C3252 H3239 0.930 . S
C3252 C3251 1.388 . S
C3252 C3253 1.390 . S
C3253 C3252 1.390 . S
C3253 C3254 1.394 . S
C3253 C3259 1.465 . S
C3254 C3249 1.399 . S
C3254 C3253 1.394 . S
C3254 C3255 1.516 . S
C3255 C3254 1.516 . S
C3255 C3256 1.502 . S
C3255 C3257 1.561 . S
C3255 C3258 1.526 . S
C3256 H3240 0.959 . S
C3256 H3241 0.959 . S
C3256 H3242 0.961 . S
C3256 C3255 1.502 . S
C3257 H3243 0.960 . S
C3257 H3244 0.961 . S
C3257 H3245 0.959 . S
C3257 C3255 1.561 . S
C3258 C3255 1.526 . S
C3258 C3259 1.396 . S
C3258 C3263 1.390 . S
C3259 C3253 1.465 . S
C3259 C3258 1.396 . S
C3259 C3260 1.399 . S
C3260 H3246 0.929 . S
C3260 C3259 1.399 . S
C3260 C3261 1.385 . S
C3261 H3247 0.931 . S
C3261 C3260 1.385 . S
C3261 C3262 1.389 . S
C3262 C3261 1.389 . S
C3262 C3263 1.387 . S
C3263 H3248 0.930 . S
C3263 C3258 1.390 . S
C3263 C3262 1.387 . S
H3264 C3276 0.930 . S
H3265 C3278 0.930 . S
H3266 C3279 0.930 . S
H3267 C3283 0.959 . S
H3268 C3283 0.959 . S
H3269 C3283 0.961 . S
H3270 C3284 0.960 . S
H3271 C3284 0.961 . S
H3272 C3284 0.959 . S
H3273 C3287 0.929 . S
H3274 C3288 0.931 . S
H3275 C3290 0.930 . S
C3276 H3264 0.930 . S
C3276 C3277 1.399 . S
C3276 C3281 1.399 . S
C3277 C3276 1.399 . S
C3277 C3278 1.376 . S
C3278 H3265 0.930 . S
C3278 C3277 1.376 . S
C3278 C3279 1.388 . S
C3279 H3266 0.930 . S
C3279 C3278 1.388 . S
C3279 C3280 1.390 . S
C3280 C3279 1.390 . S
C3280 C3281 1.394 . S
C3280 C3286 1.465 . S
C3281 C3276 1.399 . S
C3281 C3280 1.394 . S
C3281 C3282 1.516 . S
C3282 C3281 1.516 . S
C3282 C3283 1.502 . S
C3282 C3284 1.561 . S
C3282 C3285 1.526 . S
C3283 H3267 0.959 . S
C3283 H3268 0.959 . S
C3283 H3269 0.961 . S
C3283 C3282 1.502 . S
C3284 H3270 0.960 . S
C3284 H3271 0.961 . S
C3284 H3272 0.959 . S
C3284 C3282 1.561 . S
C3285 C3282 1.526 . S
C3285 C3286 1.396 . S
C3285 C3290 1.390 . S
C3286 C3280 1.465 . S
C3286 C3285 1.396 . S
C3286 C3287 1.399 . S
C3287 H3273 0.929 . S
C3287 C3286 1.399 . S
C3287 C3288 1.385 . S
C3288 H3274 0.931 . S
C3288 C3287 1.385 . S
C3288 C3289 1.389 . S
C3289 C3288 1.389 . S
C3289 C3290 1.387 . S
C3290 H3275 0.930 . S
C3290 C3285 1.390 . S
C3290 C3289 1.387 . S
H3291 C3303 0.930 . S
H3292 C3305 0.930 . S
H3293 C3306 0.930 . S
H3294 C3310 0.959 . S
H3295 C3310 0.959 . S
H3296 C3310 0.961 . S
H3297 C3311 0.960 . S
H3298 C3311 0.961 . S
H3299 C3311 0.959 . S
H3300 C3314 0.929 . S
H3301 C3315 0.931 . S
H3302 C3317 0.930 . S
C3303 H3291 0.930 . S
C3303 C3304 1.399 . S
C3303 C3308 1.399 . S
C3304 C3303 1.399 . S
C3304 C3305 1.376 . S
C3305 H3292 0.930 . S
C3305 C3304 1.376 . S
C3305 C3306 1.388 . S
C3306 H3293 0.930 . S
C3306 C3305 1.388 . S
C3306 C3307 1.390 . S
C3307 C3306 1.390 . S
C3307 C3308 1.394 . S
C3307 C3313 1.465 . S
C3308 C3303 1.399 . S
C3308 C3307 1.394 . S
C3308 C3309 1.516 . S
C3309 C3308 1.516 . S
C3309 C3310 1.502 . S
C3309 C3311 1.561 . S
C3309 C3312 1.526 . S
C3310 H3294 0.959 . S
C3310 H3295 0.959 . S
C3310 H3296 0.961 . S
C3310 C3309 1.502 . S
C3311 H3297 0.960 . S
C3311 H3298 0.961 . S
C3311 H3299 0.959 . S
C3311 C3309 1.561 . S
C3312 C3309 1.526 . S
C3312 C3313 1.396 . S
C3312 C3317 1.390 . S
C3313 C3307 1.465 . S
C3313 C3312 1.396 . S
C3313 C3314 1.399 . S
C3314 H3300 0.929 . S
C3314 C3313 1.399 . S
C3314 C3315 1.385 . S
C3315 H3301 0.931 . S
C3315 C3314 1.385 . S
C3315 C3316 1.389 . S
C3316 C3315 1.389 . S
C3316 C3317 1.387 . S
C3317 H3302 0.930 . S
C3317 C3312 1.390 . S
C3317 C3316 1.387 . S
H3318 C3330 0.930 . S
H3319 C3332 0.930 . S
H3320 C3333 0.930 . S
H3321 C3337 0.959 . S
H3322 C3337 0.959 . S
H3323 C3337 0.961 . S
H3324 C3338 0.960 . S
H3325 C3338 0.961 . S
H3326 C3338 0.959 . S
H3327 C3341 0.929 . S
H3328 C3342 0.931 . S
H3329 C3344 0.930 . S
C3330 H3318 0.930 . S
C3330 C3331 1.399 . S
C3330 C3335 1.399 . S
C3331 C3330 1.399 . S
C3331 C3332 1.376 . S
C3332 H3319 0.930 . S
C3332 C3331 1.376 . S
C3332 C3333 1.388 . S
C3333 H3320 0.930 . S
C3333 C3332 1.388 . S
C3333 C3334 1.390 . S
C3334 C3333 1.390 . S
C3334 C3335 1.394 . S
C3334 C3340 1.465 . S
C3335 C3330 1.399 . S
C3335 C3334 1.394 . S
C3335 C3336 1.516 . S
C3336 C3335 1.516 . S
C3336 C3337 1.502 . S
C3336 C3338 1.561 . S
C3336 C3339 1.526 . S
C3337 H3321 0.959 . S
C3337 H3322 0.959 . S
C3337 H3323 0.961 . S
C3337 C3336 1.502 . S
C3338 H3324 0.960 . S
C3338 H3325 0.961 . S
C3338 H3326 0.959 . S
C3338 C3336 1.561 . S
C3339 C3336 1.526 . S
C3339 C3340 1.396 . S
C3339 C3344 1.390 . S
C3340 C3334 1.465 . S
C3340 C3339 1.396 . S
C3340 C3341 1.399 . S
C3341 H3327 0.929 . S
C3341 C3340 1.399 . S
C3341 C3342 1.385 . S
C3342 H3328 0.931 . S
C3342 C3341 1.385 . S
C3342 C3343 1.389 . S
C3343 C3342 1.389 . S
C3343 C3344 1.387 . S
C3344 H3329 0.930 . S
C3344 C3339 1.390 . S
C3344 C3343 1.387 . S
H3345 C3357 0.930 . S
H3346 C3359 0.930 . S
H3347 C3360 0.930 . S
H3348 C3364 0.959 . S
H3349 C3364 0.959 . S
H3350 C3364 0.961 . S
H3351 C3365 0.960 . S
H3352 C3365 0.961 . S
H3353 C3365 0.959 . S
H3354 C3368 0.929 . S
H3355 C3369 0.931 . S
H3356 C3371 0.930 . S
C3357 H3345 0.930 . S
C3357 C3358 1.399 . S
C3357 C3362 1.399 . S
C3358 C3357 1.399 . S
C3358 C3359 1.376 . S
C3359 H3346 0.930 . S
C3359 C3358 1.376 . S
C3359 C3360 1.388 . S
C3360 H3347 0.930 . S
C3360 C3359 1.388 . S
C3360 C3361 1.390 . S
C3361 C3360 1.390 . S
C3361 C3362 1.394 . S
C3361 C3367 1.465 . S
C3362 C3357 1.399 . S
C3362 C3361 1.394 . S
C3362 C3363 1.516 . S
C3363 C3362 1.516 . S
C3363 C3364 1.502 . S
C3363 C3365 1.561 . S
C3363 C3366 1.526 . S
C3364 H3348 0.959 . S
C3364 H3349 0.959 . S
C3364 H3350 0.961 . S
C3364 C3363 1.502 . S
C3365 H3351 0.960 . S
C3365 H3352 0.961 . S
C3365 H3353 0.959 . S
C3365 C3363 1.561 . S
C3366 C3363 1.526 . S
C3366 C3367 1.396 . S
C3366 C3371 1.390 . S
C3367 C3361 1.465 . S
C3367 C3366 1.396 . S
C3367 C3368 1.399 . S
C3368 H3354 0.929 . S
C3368 C3367 1.399 . S
C3368 C3369 1.385 . S
C3369 H3355 0.931 . S
C3369 C3368 1.385 . S
C3369 C3370 1.389 . S
C3370 C3369 1.389 . S
C3370 C3371 1.387 . S
C3371 H3356 0.930 . S
C3371 C3366 1.390 . S
C3371 C3370 1.387 . S
H3372 C3384 0.930 . S
H3373 C3386 0.930 . S
H3374 C3387 0.930 . S
H3375 C3391 0.959 . S
H3376 C3391 0.959 . S
H3377 C3391 0.961 . S
H3378 C3392 0.960 . S
H3379 C3392 0.961 . S
H3380 C3392 0.959 . S
H3381 C3395 0.929 . S
H3382 C3396 0.931 . S
H3383 C3398 0.930 . S
C3384 H3372 0.930 . S
C3384 C3385 1.399 . S
C3384 C3389 1.399 . S
C3385 C3384 1.399 . S
C3385 C3386 1.376 . S
C3386 H3373 0.930 . S
C3386 C3385 1.376 . S
C3386 C3387 1.388 . S
C3387 H3374 0.930 . S
C3387 C3386 1.388 . S
C3387 C3388 1.390 . S
C3388 C3387 1.390 . S
C3388 C3389 1.394 . S
C3388 C3394 1.465 . S
C3389 C3384 1.399 . S
C3389 C3388 1.394 . S
C3389 C3390 1.516 . S
C3390 C3389 1.516 . S
C3390 C3391 1.502 . S
C3390 C3392 1.561 . S
C3390 C3393 1.526 . S
C3391 H3375 0.959 . S
C3391 H3376 0.959 . S
C3391 H3377 0.961 . S
C3391 C3390 1.502 . S
C3392 H3378 0.960 . S
C3392 H3379 0.961 . S
C3392 H3380 0.959 . S
C3392 C3390 1.561 . S
C3393 C3390 1.526 . S
C3393 C3394 1.396 . S
C3393 C3398 1.390 . S
C3394 C3388 1.465 . S
C3394 C3393 1.396 . S
C3394 C3395 1.399 . S
C3395 H3381 0.929 . S
C3395 C3394 1.399 . S
C3395 C3396 1.385 . S
C3396 H3382 0.931 . S
C3396 C3395 1.385 . S
C3396 C3397 1.389 . S
C3397 C3396 1.389 . S
C3397 C3398 1.387 . S
C3398 H3383 0.930 . S
C3398 C3393 1.390 . S
C3398 C3397 1.387 . S
H3399 C3411 0.930 . S
H3400 C3413 0.930 . S
H3401 C3414 0.930 . S
H3402 C3418 0.959 . S
H3403 C3418 0.959 . S
H3404 C3418 0.961 . S
H3405 C3419 0.960 . S
H3406 C3419 0.961 . S
H3407 C3419 0.959 . S
H3408 C3422 0.929 . S
H3409 C3423 0.931 . S
H3410 C3425 0.930 . S
C3411 H3399 0.930 . S
C3411 C3412 1.399 . S
C3411 C3416 1.399 . S
C3412 C3411 1.399 . S
C3412 C3413 1.376 . S
C3413 H3400 0.930 . S
C3413 C3412 1.376 . S
C3413 C3414 1.388 . S
C3414 H3401 0.930 . S
C3414 C3413 1.388 . S
C3414 C3415 1.390 . S
C3415 C3414 1.390 . S
C3415 C3416 1.394 . S
C3415 C3421 1.465 . S
C3416 C3411 1.399 . S
C3416 C3415 1.394 . S
C3416 C3417 1.516 . S
C3417 C3416 1.516 . S
C3417 C3418 1.502 . S
C3417 C3419 1.561 . S
C3417 C3420 1.526 . S
C3418 H3402 0.959 . S
C3418 H3403 0.959 . S
C3418 H3404 0.961 . S
C3418 C3417 1.502 . S
C3419 H3405 0.960 . S
C3419 H3406 0.961 . S
C3419 H3407 0.959 . S
C3419 C3417 1.561 . S
C3420 C3417 1.526 . S
C3420 C3421 1.396 . S
C3420 C3425 1.390 . S
C3421 C3415 1.465 . S
C3421 C3420 1.396 . S
C3421 C3422 1.399 . S
C3422 H3408 0.929 . S
C3422 C3421 1.399 . S
C3422 C3423 1.385 . S
C3423 H3409 0.931 . S
C3423 C3422 1.385 . S
C3423 C3424 1.389 . S
C3424 C3423 1.389 . S
C3424 C3425 1.387 . S
C3425 H3410 0.930 . S
C3425 C3420 1.390 . S
C3425 C3424 1.387 . S
H3426 C3438 0.930 . S
H3427 C3440 0.930 . S
H3428 C3441 0.930 . S
H3429 C3445 0.959 . S
H3430 C3445 0.959 . S
H3431 C3445 0.961 . S
H3432 C3446 0.960 . S
H3433 C3446 0.961 . S
H3434 C3446 0.959 . S
H3435 C3449 0.929 . S
H3436 C3450 0.931 . S
H3437 C3452 0.930 . S
C3438 H3426 0.930 . S
C3438 C3439 1.399 . S
C3438 C3443 1.399 . S
C3439 C3438 1.399 . S
C3439 C3440 1.376 . S
C3440 H3427 0.930 . S
C3440 C3439 1.376 . S
C3440 C3441 1.388 . S
C3441 H3428 0.930 . S
C3441 C3440 1.388 . S
C3441 C3442 1.390 . S
C3442 C3441 1.390 . S
C3442 C3443 1.394 . S
C3442 C3448 1.465 . S
C3443 C3438 1.399 . S
C3443 C3442 1.394 . S
C3443 C3444 1.516 . S
C3444 C3443 1.516 . S
C3444 C3445 1.502 . S
C3444 C3446 1.561 . S
C3444 C3447 1.526 . S
C3445 H3429 0.959 . S
C3445 H3430 0.959 . S
C3445 H3431 0.961 . S
C3445 C3444 1.502 . S
C3446 H3432 0.960 . S
C3446 H3433 0.961 . S
C3446 H3434 0.959 . S
C3446 C3444 1.561 . S
C3447 C3444 1.526 . S
C3447 C3448 1.396 . S
C3447 C3452 1.390 . S
C3448 C3442 1.465 . S
C3448 C3447 1.396 . S
C3448 C3449 1.399 . S
C3449 H3435 0.929 . S
C3449 C3448 1.399 . S
C3449 C3450 1.385 . S
C3450 H3436 0.931 . S
C3450 C3449 1.385 . S
C3450 C3451 1.389 . S
C3451 C3450 1.389 . S
C3451 C3452 1.387 . S
C3452 H3437 0.930 . S
C3452 C3447 1.390 . S
C3452 C3451 1.387 . S
H3453 C3465 0.930 . S
H3454 C3467 0.930 . S
H3455 C3468 0.930 . S
H3456 C3472 0.959 . S
H3457 C3472 0.959 . S
H3458 C3472 0.961 . S
H3459 C3473 0.960 . S
H3460 C3473 0.961 . S
H3461 C3473 0.959 . S
H3462 C3476 0.929 . S
H3463 C3477 0.931 . S
H3464 C3479 0.930 . S
C3465 H3453 0.930 . S
C3465 C3466 1.399 . S
C3465 C3470 1.399 . S
C3466 C3465 1.399 . S
C3466 C3467 1.376 . S
C3467 H3454 0.930 . S
C3467 C3466 1.376 . S
C3467 C3468 1.388 . S
C3468 H3455 0.930 . S
C3468 C3467 1.388 . S
C3468 C3469 1.390 . S
C3469 C3468 1.390 . S
C3469 C3470 1.394 . S
C3469 C3475 1.465 . S
C3470 C3465 1.399 . S
C3470 C3469 1.394 . S
C3470 C3471 1.516 . S
C3471 C3470 1.516 . S
C3471 C3472 1.502 . S
C3471 C3473 1.561 . S
C3471 C3474 1.526 . S
C3472 H3456 0.959 . S
C3472 H3457 0.959 . S
C3472 H3458 0.961 . S
C3472 C3471 1.502 . S
C3473 H3459 0.960 . S
C3473 H3460 0.961 . S
C3473 H3461 0.959 . S
C3473 C3471 1.561 . S
C3474 C3471 1.526 . S
C3474 C3475 1.396 . S
C3474 C3479 1.390 . S
C3475 C3469 1.465 . S
C3475 C3474 1.396 . S
C3475 C3476 1.399 . S
C3476 H3462 0.929 . S
C3476 C3475 1.399 . S
C3476 C3477 1.385 . S
C3477 H3463 0.931 . S
C3477 C3476 1.385 . S
C3477 C3478 1.389 . S
C3478 C3477 1.389 . S
C3478 C3479 1.387 . S
C3479 H3464 0.930 . S
C3479 C3474 1.390 . S
C3479 C3478 1.387 . S
H3480 C3492 0.930 . S
H3481 C3494 0.930 . S
H3482 C3495 0.930 . S
H3483 C3499 0.959 . S
H3484 C3499 0.959 . S
H3485 C3499 0.961 . S
H3486 C3500 0.960 . S
H3487 C3500 0.961 . S
H3488 C3500 0.959 . S
H3489 C3503 0.929 . S
H3490 C3504 0.931 . S
H3491 C3506 0.930 . S
C3492 H3480 0.930 . S
C3492 C3493 1.399 . S
C3492 C3497 1.399 . S
C3493 C3492 1.399 . S
C3493 C3494 1.376 . S
C3494 H3481 0.930 . S
C3494 C3493 1.376 . S
C3494 C3495 1.388 . S
C3495 H3482 0.930 . S
C3495 C3494 1.388 . S
C3495 C3496 1.390 . S
C3496 C3495 1.390 . S
C3496 C3497 1.394 . S
C3496 C3502 1.465 . S
C3497 C3492 1.399 . S
C3497 C3496 1.394 . S
C3497 C3498 1.516 . S
C3498 C3497 1.516 . S
C3498 C3499 1.502 . S
C3498 C3500 1.561 . S
C3498 C3501 1.526 . S
C3499 H3483 0.959 . S
C3499 H3484 0.959 . S
C3499 H3485 0.961 . S
C3499 C3498 1.502 . S
C3500 H3486 0.960 . S
C3500 H3487 0.961 . S
C3500 H3488 0.959 . S
C3500 C3498 1.561 . S
C3501 C3498 1.526 . S
C3501 C3502 1.396 . S
C3501 C3506 1.390 . S
C3502 C3496 1.465 . S
C3502 C3501 1.396 . S
C3502 C3503 1.399 . S
C3503 H3489 0.929 . S
C3503 C3502 1.399 . S
C3503 C3504 1.385 . S
C3504 H3490 0.931 . S
C3504 C3503 1.385 . S
C3504 C3505 1.389 . S
C3505 C3504 1.389 . S
C3505 C3506 1.387 . S
C3506 H3491 0.930 . S
C3506 C3501 1.390 . S
C3506 C3505 1.387 . S
H3507 C3519 0.930 . S
H3508 C3521 0.930 . S
H3509 C3522 0.930 . S
H3510 C3526 0.959 . S
H3511 C3526 0.976 . S
H3512 C3526 0.961 . S
H3513 C3527 0.960 . S
H3514 C3527 0.961 1_554 S
H3515 C3527 0.959 . S
H3516 C3530 0.929 . S
H3517 C3531 0.931 . S
H3518 C3533 0.930 . S
C3519 H3507 0.930 . S
C3519 C3520 1.399 . S
C3519 C3524 1.399 . S
C3520 C3519 1.399 . S
C3520 C3521 1.376 . S
C3521 H3508 0.930 . S
C3521 C3520 1.376 . S
C3521 C3522 1.388 . S
C3522 H3509 0.930 . S
C3522 C3521 1.388 . S
C3522 C3523 1.390 . S
C3523 C3522 1.390 . S
C3523 C3524 1.394 . S
C3523 C3529 1.465 1_556 S
C3524 C3519 1.399 . S
C3524 C3523 1.394 . S
C3524 C3525 1.516 . S
C3525 C3524 1.516 . S
C3525 C3526 1.502 . S
C3525 C3527 1.561 . S
C3525 C3528 1.526 1_556 S
C3526 H3510 0.959 . S
C3526 H3511 0.976 . S
C3526 H3512 0.961 . S
C3526 C3525 1.502 . S
C3527 H3513 0.960 . S
C3527 H3514 0.961 1_556 S
C3527 H3515 0.959 . S
C3527 C3525 1.561 . S
C3528 C3525 1.526 1_554 S
C3528 C3529 1.396 . S
C3528 C3533 1.390 . S
C3529 C3523 1.465 1_554 S
C3529 C3528 1.396 . S
C3529 C3530 1.399 . S
C3530 H3516 0.929 . S
C3530 C3529 1.399 . S
C3530 C3531 1.385 . S
C3531 H3517 0.931 . S
C3531 C3530 1.385 . S
C3531 C3532 1.389 . S
C3532 C3531 1.389 . S
C3532 C3533 1.387 . S
C3533 H3518 0.930 . S
C3533 C3528 1.390 . S
C3533 C3532 1.387 . S
H3534 C3546 0.930 . S
H3535 C3548 0.930 . S
H3536 C3549 0.930 . S
H3537 C3553 0.959 . S
H3538 C3553 0.959 . S
H3539 C3553 0.961 . S
H3540 C3554 0.960 . S
H3541 C3554 0.961 . S
H3542 C3554 0.959 . S
H3543 C3557 0.929 . S
H3544 C3558 0.931 . S
H3545 C3560 0.930 . S
C3546 H3534 0.930 . S
C3546 C3547 1.399 . S
C3546 C3551 1.399 . S
C3547 C3546 1.399 . S
C3547 C3548 1.376 . S
C3548 H3535 0.930 . S
C3548 C3547 1.376 . S
C3548 C3549 1.388 . S
C3549 H3536 0.930 . S
C3549 C3548 1.388 . S
C3549 C3550 1.390 . S
C3550 C3549 1.390 . S
C3550 C3551 1.394 . S
C3550 C3556 1.465 . S
C3551 C3546 1.399 . S
C3551 C3550 1.394 . S
C3551 C3552 1.516 . S
C3552 C3551 1.516 . S
C3552 C3553 1.502 . S
C3552 C3554 1.561 . S
C3552 C3555 1.526 . S
C3553 H3537 0.959 . S
C3553 H3538 0.959 . S
C3553 H3539 0.961 . S
C3553 C3552 1.502 . S
C3554 H3540 0.960 . S
C3554 H3541 0.961 . S
C3554 H3542 0.959 . S
C3554 C3552 1.561 . S
C3555 C3552 1.526 . S
C3555 C3556 1.396 . S
C3555 C3560 1.390 . S
C3556 C3550 1.465 . S
C3556 C3555 1.396 . S
C3556 C3557 1.399 . S
C3557 H3543 0.929 . S
C3557 C3556 1.399 . S
C3557 C3558 1.385 . S
C3558 H3544 0.931 . S
C3558 C3557 1.385 . S
C3558 C3559 1.389 . S
C3559 C3558 1.389 . S
C3559 C3560 1.387 . S
C3560 H3545 0.930 . S
C3560 C3555 1.390 . S
C3560 C3559 1.387 . S
H3561 C3573 0.930 . S
H3562 C3575 0.930 . S
H3563 C3576 0.930 . S
H3564 C3580 0.959 . S
H3565 C3580 0.959 1_554 S
H3566 C3580 0.961 . S
H3567 C3581 0.960 1_556 S
H3568 C3581 0.961 . S
H3569 C3581 0.959 . S
H3570 C3584 0.929 . S
H3571 C3585 0.931 . S
H3572 C3587 0.930 . S
C3573 H3561 0.930 . S
C3573 C3574 1.399 . S
C3573 C3578 1.399 . S
C3574 C3573 1.399 . S
C3574 C3575 1.376 . S
C3575 H3562 0.930 . S
C3575 C3574 1.376 . S
C3575 C3576 1.388 . S
C3576 H3563 0.930 . S
C3576 C3575 1.388 . S
C3576 C3577 1.390 . S
C3577 C3576 1.390 . S
C3577 C3578 1.394 . S
C3577 C3583 1.465 1_556 S
C3578 C3573 1.399 . S
C3578 C3577 1.394 . S
C3578 C3579 1.531 . S
C3579 C3578 1.531 . S
C3579 C3580 1.504 . S
C3579 C3581 1.560 1_556 S
C3579 C3582 1.510 1_556 S
C3580 H3564 0.959 . S
C3580 H3565 0.959 1_556 S
C3580 H3566 0.961 . S
C3580 C3579 1.504 . S
C3581 H3567 0.960 1_554 S
C3581 H3568 0.961 . S
C3581 H3569 0.959 . S
C3581 C3579 1.560 1_554 S
C3582 C3579 1.510 1_554 S
C3582 C3583 1.396 . S
C3582 C3587 1.390 . S
C3583 C3577 1.465 1_554 S
C3583 C3582 1.396 . S
C3583 C3584 1.399 . S
C3584 H3570 0.929 . S
C3584 C3583 1.399 . S
C3584 C3585 1.385 . S
C3585 H3571 0.931 . S
C3585 C3584 1.385 . S
C3585 C3586 1.389 . S
C3586 C3585 1.389 . S
C3586 C3587 1.387 . S
C3587 H3572 0.930 . S
C3587 C3582 1.390 . S
C3587 C3586 1.387 . S
H3588 C3600 0.930 . S
H3589 C3602 0.930 . S
H3590 C3603 0.930 . S
H3591 C3607 0.959 . S
H3592 C3607 0.959 . S
H3593 C3607 0.961 . S
H3594 C3608 0.960 . S
H3595 C3608 0.961 . S
H3596 C3608 0.959 . S
H3597 C3611 0.929 . S
H3598 C3612 0.931 . S
H3599 C3614 0.930 . S
C3600 H3588 0.930 . S
C3600 C3601 1.399 . S
C3600 C3605 1.399 . S
C3601 C3600 1.399 . S
C3601 C3602 1.376 . S
C3602 H3589 0.930 . S
C3602 C3601 1.376 . S
C3602 C3603 1.388 . S
C3603 H3590 0.930 . S
C3603 C3602 1.388 . S
C3603 C3604 1.390 . S
C3604 C3603 1.390 . S
C3604 C3605 1.394 . S
C3604 C3610 1.465 . S
C3605 C3600 1.399 . S
C3605 C3604 1.394 . S
C3605 C3606 1.516 . S
C3606 C3605 1.516 . S
C3606 C3607 1.502 . S
C3606 C3608 1.561 . S
C3606 C3609 1.526 . S
C3607 H3591 0.959 . S
C3607 H3592 0.959 . S
C3607 H3593 0.961 . S
C3607 C3606 1.502 . S
C3608 H3594 0.960 . S
C3608 H3595 0.961 . S
C3608 H3596 0.959 . S
C3608 C3606 1.561 . S
C3609 C3606 1.526 . S
C3609 C3610 1.396 . S
C3609 C3614 1.390 . S
C3610 C3604 1.465 . S
C3610 C3609 1.396 . S
C3610 C3611 1.399 . S
C3611 H3597 0.929 . S
C3611 C3610 1.399 . S
C3611 C3612 1.385 . S
C3612 H3598 0.931 . S
C3612 C3611 1.385 . S
C3612 C3613 1.389 . S
C3613 C3612 1.389 . S
C3613 C3614 1.387 . S
C3614 H3599 0.930 . S
C3614 C3609 1.390 . S
C3614 C3613 1.387 . S
H3615 C3627 0.930 . S
H3616 C3629 0.930 . S
H3617 C3630 0.930 . S
H3618 C3634 0.959 . S
H3619 C3634 0.959 . S
H3620 C3634 0.961 . S
H3621 C3635 0.960 . S
H3622 C3635 0.961 . S
H3623 C3635 0.959 . S
H3624 C3638 0.929 . S
H3625 C3639 0.931 . S
H3626 C3641 0.930 . S
C3627 H3615 0.930 . S
C3627 C3628 1.399 . S
C3627 C3632 1.399 . S
C3628 C3627 1.399 . S
C3628 C3629 1.376 . S
C3629 H3616 0.930 . S
C3629 C3628 1.376 . S
C3629 C3630 1.388 . S
C3630 H3617 0.930 . S
C3630 C3629 1.388 . S
C3630 C3631 1.368 1_556 S
C3631 C3630 1.368 1_554 S
C3631 C3632 1.385 1_554 S
C3631 C3637 1.497 . S
C3632 C3627 1.399 . S
C3632 C3631 1.385 1_556 S
C3632 C3633 1.516 1_556 S
C3633 C3632 1.516 1_554 S
C3633 C3634 1.502 . S
C3633 C3635 1.561 . S
C3633 C3636 1.526 . S
C3634 H3618 0.959 . S
C3634 H3619 0.959 . S
C3634 H3620 0.961 . S
C3634 C3633 1.502 . S
C3635 H3621 0.960 . S
C3635 H3622 0.961 . S
C3635 H3623 0.959 . S
C3635 C3633 1.561 . S
C3636 C3633 1.526 . S
C3636 C3637 1.396 . S
C3636 C3641 1.390 . S
C3637 C3631 1.497 . S
C3637 C3636 1.396 . S
C3637 C3638 1.399 . S
C3638 H3624 0.929 . S
C3638 C3637 1.399 . S
C3638 C3639 1.385 . S
C3639 H3625 0.931 . S
C3639 C3638 1.385 . S
C3639 C3640 1.389 . S
C3640 C3639 1.389 . S
C3640 C3641 1.387 . S
C3641 H3626 0.930 . S
C3641 C3636 1.390 . S
C3641 C3640 1.387 . S
H3642 C3654 0.930 . S
H3643 C3656 0.930 . S
H3644 C3657 0.930 . S
H3645 C3661 0.959 . S
H3646 C3661 0.959 . S
H3647 C3661 0.961 . S
H3648 C3662 0.960 . S
H3649 C3662 0.961 . S
H3650 C3662 0.959 . S
H3651 C3665 0.929 . S
H3652 C3666 0.931 . S
H3653 C3668 0.930 . S
C3654 H3642 0.930 . S
C3654 C3655 1.399 . S
C3654 C3659 1.399 . S
C3655 C3654 1.399 . S
C3655 C3656 1.376 . S
C3656 H3643 0.930 . S
C3656 C3655 1.376 . S
C3656 C3657 1.388 . S
C3657 H3644 0.930 . S
C3657 C3656 1.388 . S
C3657 C3658 1.390 . S
C3658 C3657 1.390 . S
C3658 C3659 1.394 . S
C3658 C3664 1.465 . S
C3659 C3654 1.399 . S
C3659 C3658 1.394 . S
C3659 C3660 1.516 . S
C3660 C3659 1.516 . S
C3660 C3661 1.502 . S
C3660 C3662 1.561 . S
C3660 C3663 1.526 . S
C3661 H3645 0.959 . S
C3661 H3646 0.959 . S
C3661 H3647 0.961 . S
C3661 C3660 1.502 . S
C3662 H3648 0.960 . S
C3662 H3649 0.961 . S
C3662 H3650 0.959 . S
C3662 C3660 1.561 . S
C3663 C3660 1.526 . S
C3663 C3664 1.396 . S
C3663 C3668 1.390 . S
C3664 C3658 1.465 . S
C3664 C3663 1.396 . S
C3664 C3665 1.399 . S
C3665 H3651 0.929 . S
C3665 C3664 1.399 . S
C3665 C3666 1.385 . S
C3666 H3652 0.931 . S
C3666 C3665 1.385 . S
C3666 C3667 1.389 . S
C3667 C3666 1.389 . S
C3667 C3668 1.387 . S
C3668 H3653 0.930 . S
C3668 C3663 1.390 . S
C3668 C3667 1.387 . S
H3669 C3681 0.930 . S
H3670 C3683 0.930 . S
H3671 C3684 0.930 . S
H3672 C3688 0.959 . S
H3673 C3688 0.959 1_554 S
H3674 C3688 0.961 . S
H3675 C3689 0.960 . S
H3676 C3689 0.961 1_554 S
H3677 C3689 0.959 . S
H3678 C3692 0.929 . S
H3679 C3693 0.931 . S
H3680 C3695 0.930 . S
C3681 H3669 0.930 . S
C3681 C3682 1.399 . S
C3681 C3686 1.399 . S
C3682 C3681 1.399 . S
C3682 C3683 1.376 . S
C3683 H3670 0.930 . S
C3683 C3682 1.376 . S
C3683 C3684 1.388 . S
C3684 H3671 0.930 . S
C3684 C3683 1.388 . S
C3684 C3685 1.390 . S
C3685 C3684 1.390 . S
C3685 C3686 1.394 . S
C3685 C3691 1.465 1_556 S
C3686 C3681 1.399 . S
C3686 C3685 1.394 . S
C3686 C3687 1.516 . S
C3687 C3686 1.516 . S
C3687 C3688 1.502 . S
C3687 C3689 1.561 . S
C3687 C3690 1.526 1_556 S
C3688 H3672 0.959 . S
C3688 H3673 0.959 1_556 S
C3688 H3674 0.961 . S
C3688 C3687 1.502 . S
C3689 H3675 0.960 . S
C3689 H3676 0.961 1_556 S
C3689 H3677 0.959 . S
C3689 C3687 1.561 . S
C3690 C3687 1.526 1_554 S
C3690 C3691 1.396 . S
C3690 C3695 1.390 . S
C3691 C3685 1.465 1_554 S
C3691 C3690 1.396 . S
C3691 C3692 1.399 . S
C3692 H3678 0.929 . S
C3692 C3691 1.399 . S
C3692 C3693 1.385 . S
C3693 H3679 0.931 . S
C3693 C3692 1.385 . S
C3693 C3694 1.389 . S
C3694 C3693 1.389 . S
C3694 C3695 1.387 . S
C3695 H3680 0.930 . S
C3695 C3690 1.390 . S
C3695 C3694 1.387 . S
H3696 C3708 0.930 . S
H3697 C3710 0.930 . S
H3698 C3711 0.930 . S
H3699 C3715 0.959 . S
H3700 C3715 0.959 . S
H3701 C3715 0.961 . S
H3702 C3716 0.960 . S
H3703 C3716 0.961 . S
H3704 C3716 0.959 . S
H3705 C3719 0.929 . S
H3706 C3720 0.931 . S
H3707 C3722 0.930 . S
C3708 H3696 0.930 . S
C3708 C3709 1.399 . S
C3708 C3713 1.399 . S
C3709 C3708 1.399 . S
C3709 C3710 1.376 . S
C3710 H3697 0.930 . S
C3710 C3709 1.376 . S
C3710 C3711 1.388 . S
C3711 H3698 0.930 . S
C3711 C3710 1.388 . S
C3711 C3712 1.390 . S
C3712 C3711 1.390 . S
C3712 C3713 1.394 . S
C3712 C3718 1.465 . S
C3713 C3708 1.399 . S
C3713 C3712 1.394 . S
C3713 C3714 1.516 . S
C3714 C3713 1.516 . S
C3714 C3715 1.502 . S
C3714 C3716 1.561 . S
C3714 C3717 1.526 . S
C3715 H3699 0.959 . S
C3715 H3700 0.959 . S
C3715 H3701 0.961 . S
C3715 C3714 1.502 . S
C3716 H3702 0.960 . S
C3716 H3703 0.961 . S
C3716 H3704 0.959 . S
C3716 C3714 1.561 . S
C3717 C3714 1.526 . S
C3717 C3718 1.396 . S
C3717 C3722 1.390 . S
C3718 C3712 1.465 . S
C3718 C3717 1.396 . S
C3718 C3719 1.399 . S
C3719 H3705 0.929 . S
C3719 C3718 1.399 . S
C3719 C3720 1.385 . S
C3720 H3706 0.931 . S
C3720 C3719 1.385 . S
C3720 C3721 1.389 . S
C3721 C3720 1.389 . S
C3721 C3722 1.387 . S
C3722 H3707 0.930 . S
C3722 C3717 1.390 . S
C3722 C3721 1.387 . S
H3723 C3735 0.930 . S
H3724 C3737 0.930 . S
H3725 C3738 0.930 . S
H3726 C3742 0.959 . S
H3727 C3742 0.959 1_545 S
H3728 C3742 0.961 . S
H3729 C3743 0.960 . S
H3730 C3743 0.960 1_545 S
H3731 C3743 0.959 . S
H3732 C3746 0.929 . S
H3733 C3747 0.931 . S
H3734 C3749 0.930 . S
C3735 H3723 0.930 . S
C3735 C3736 1.399 . S
C3735 C3740 1.399 . S
C3736 C3735 1.399 . S
C3736 C3737 1.376 . S
C3737 H3724 0.930 . S
C3737 C3736 1.376 . S
C3737 C3738 1.388 . S
C3738 H3725 0.930 . S
C3738 C3737 1.388 . S
C3738 C3739 1.390 . S
C3739 C3738 1.390 . S
C3739 C3740 1.394 . S
C3739 C3745 1.467 . S
C3740 C3735 1.399 . S
C3740 C3739 1.394 . S
C3740 C3741 1.516 . S
C3741 C3740 1.516 . S
C3741 C3742 1.502 . S
C3741 C3743 1.561 . S
C3741 C3744 1.526 1_565 S
C3742 H3726 0.959 . S
C3742 H3727 0.959 1_565 S
C3742 H3728 0.961 . S
C3742 C3741 1.502 . S
C3743 H3729 0.960 . S
C3743 H3730 0.960 1_565 S
C3743 H3731 0.959 . S
C3743 C3741 1.561 . S
C3744 C3741 1.526 1_545 S
C3744 C3745 1.395 1_545 S
C3744 C3749 1.390 . S
C3745 C3739 1.467 . S
C3745 C3744 1.395 1_565 S
C3745 C3746 1.398 1_565 S
C3746 H3732 0.929 . S
C3746 C3745 1.398 1_545 S
C3746 C3747 1.385 . S
C3747 H3733 0.931 . S
C3747 C3746 1.385 . S
C3747 C3748 1.389 . S
C3748 C3747 1.389 . S
C3748 C3749 1.387 . S
C3749 H3734 0.930 . S
C3749 C3744 1.390 . S
C3749 C3748 1.387 . S
H3750 C3762 0.930 . S
H3751 C3764 0.930 . S
H3752 C3765 0.930 . S
H3753 C3769 0.959 . S
H3754 C3769 0.959 . S
H3755 C3769 0.961 . S
H3756 C3770 0.960 . S
H3757 C3770 0.961 . S
H3758 C3770 0.959 . S
H3759 C3773 0.929 . S
H3760 C3774 0.931 . S
H3761 C3776 0.930 . S
C3762 H3750 0.930 . S
C3762 C3763 1.399 . S
C3762 C3767 1.399 . S
C3763 C3762 1.399 . S
C3763 C3764 1.376 . S
C3764 H3751 0.930 . S
C3764 C3763 1.376 . S
C3764 C3765 1.388 . S
C3765 H3752 0.930 . S
C3765 C3764 1.388 . S
C3765 C3766 1.390 . S
C3766 C3765 1.390 . S
C3766 C3767 1.394 . S
C3766 C3772 1.465 . S
C3767 C3762 1.399 . S
C3767 C3766 1.394 . S
C3767 C3768 1.516 . S
C3768 C3767 1.516 . S
C3768 C3769 1.502 . S
C3768 C3770 1.561 . S
C3768 C3771 1.526 . S
C3769 H3753 0.959 . S
C3769 H3754 0.959 . S
C3769 H3755 0.961 . S
C3769 C3768 1.502 . S
C3770 H3756 0.960 . S
C3770 H3757 0.961 . S
C3770 H3758 0.959 . S
C3770 C3768 1.561 . S
C3771 C3768 1.526 . S
C3771 C3772 1.396 . S
C3771 C3776 1.390 . S
C3772 C3766 1.465 . S
C3772 C3771 1.396 . S
C3772 C3773 1.399 . S
C3773 H3759 0.929 . S
C3773 C3772 1.399 . S
C3773 C3774 1.385 . S
C3774 H3760 0.931 . S
C3774 C3773 1.385 . S
C3774 C3775 1.389 . S
C3775 C3774 1.389 . S
C3775 C3776 1.387 . S
C3776 H3761 0.930 . S
C3776 C3771 1.390 . S
C3776 C3775 1.387 . S
H3777 C3789 0.930 . S
H3778 C3791 0.930 . S
H3779 C3792 0.930 . S
H3780 C3796 0.959 . S
H3781 C3796 0.959 1_565 S
H3782 C3796 0.961 . S
H3783 C3797 0.960 . S
H3784 C3797 0.961 1_565 S
H3785 C3797 0.956 1_565 S
H3786 C3800 0.929 . S
H3787 C3801 0.931 . S
H3788 C3803 0.930 . S
C3789 H3777 0.930 . S
C3789 C3790 1.399 . S
C3789 C3794 1.399 . S
C3790 C3789 1.399 . S
C3790 C3791 1.376 . S
C3791 H3778 0.930 . S
C3791 C3790 1.376 . S
C3791 C3792 1.388 . S
C3792 H3779 0.930 . S
C3792 C3791 1.388 . S
C3792 C3793 1.390 . S
C3793 C3792 1.390 . S
C3793 C3794 1.394 . S
C3793 C3799 1.465 1_545 S
C3794 C3789 1.399 . S
C3794 C3793 1.394 . S
C3794 C3795 1.516 . S
C3795 C3794 1.516 . S
C3795 C3796 1.502 . S
C3795 C3797 1.561 . S
C3795 C3798 1.526 1_545 S
C3796 H3780 0.959 . S
C3796 H3781 0.959 1_545 S
C3796 H3782 0.961 . S
C3796 C3795 1.502 . S
C3797 H3783 0.960 . S
C3797 H3784 0.961 1_545 S
C3797 H3785 0.956 1_545 S
C3797 C3795 1.561 . S
C3798 C3795 1.526 1_565 S
C3798 C3799 1.396 . S
C3798 C3803 1.390 . S
C3799 C3793 1.465 1_565 S
C3799 C3798 1.396 . S
C3799 C3800 1.399 . S
C3800 H3786 0.929 . S
C3800 C3799 1.399 . S
C3800 C3801 1.385 . S
C3801 H3787 0.931 . S
C3801 C3800 1.385 . S
C3801 C3802 1.389 . S
C3802 C3801 1.389 . S
C3802 C3803 1.387 . S
C3803 H3788 0.930 . S
C3803 C3798 1.390 . S
C3803 C3802 1.387 . S
H3804 C3816 0.930 . S
H3805 C3818 0.930 . S
H3806 C3819 0.930 . S
H3807 C3823 0.959 . S
H3808 C3823 0.959 . S
H3809 C3823 0.961 . S
H3810 C3824 0.960 . S
H3811 C3824 0.961 . S
H3812 C3824 0.959 . S
H3813 C3827 0.929 . S
H3814 C3828 0.931 . S
H3815 C3830 0.930 . S
C3816 H3804 0.930 . S
C3816 C3817 1.399 . S
C3816 C3821 1.399 . S
C3817 C3816 1.399 . S
C3817 C3818 1.376 . S
C3818 H3805 0.930 . S
C3818 C3817 1.376 . S
C3818 C3819 1.388 . S
C3819 H3806 0.930 . S
C3819 C3818 1.388 . S
C3819 C3820 1.390 . S
C3820 C3819 1.390 . S
C3820 C3821 1.394 . S
C3820 C3826 1.465 . S
C3821 C3816 1.399 . S
C3821 C3820 1.394 . S
C3821 C3822 1.516 . S
C3822 C3821 1.516 . S
C3822 C3823 1.502 . S
C3822 C3824 1.561 . S
C3822 C3825 1.526 . S
C3823 H3807 0.959 . S
C3823 H3808 0.959 . S
C3823 H3809 0.961 . S
C3823 C3822 1.502 . S
C3824 H3810 0.960 . S
C3824 H3811 0.961 . S
C3824 H3812 0.959 . S
C3824 C3822 1.561 . S
C3825 C3822 1.526 . S
C3825 C3826 1.396 . S
C3825 C3830 1.390 . S
C3826 C3820 1.465 . S
C3826 C3825 1.396 . S
C3826 C3827 1.399 . S
C3827 H3813 0.929 . S
C3827 C3826 1.399 . S
C3827 C3828 1.385 . S
C3828 H3814 0.931 . S
C3828 C3827 1.385 . S
C3828 C3829 1.389 . S
C3829 C3828 1.389 . S
C3829 C3830 1.387 . S
C3830 H3815 0.930 . S
C3830 C3825 1.390 . S
C3830 C3829 1.387 . S
H3831 C3843 0.930 . S
H3832 C3845 0.930 . S
H3833 C3846 0.930 . S
H3834 C3850 0.958 1_545 S
H3835 C3850 0.949 1_545 S
H3836 C3850 0.973 . S
H3837 C3851 0.960 1_565 S
H3838 C3851 0.961 . S
H3839 C3851 0.959 . S
H3840 C3854 0.929 . S
H3841 C3855 0.931 . S
H3842 C3857 0.930 . S
C3843 H3831 0.930 . S
C3843 C3844 1.399 . S
C3843 C3848 1.399 . S
C3844 C3843 1.399 . S
C3844 C3845 1.376 . S
C3845 H3832 0.930 . S
C3845 C3844 1.376 . S
C3845 C3846 1.388 . S
C3846 H3833 0.930 . S
C3846 C3845 1.388 . S
C3846 C3847 1.390 . S
C3847 C3846 1.390 . S
C3847 C3848 1.394 . S
C3847 C3853 1.465 1_565 S
C3848 C3843 1.399 . S
C3848 C3847 1.394 . S
C3848 C3849 1.516 1_565 S
C3849 C3848 1.516 1_545 S
C3849 C3850 1.502 1_545 S
C3849 C3851 1.561 . S
C3849 C3852 1.526 . S
C3850 H3834 0.958 1_565 S
C3850 H3835 0.949 1_565 S
C3850 H3836 0.973 . S
C3850 C3849 1.502 1_565 S
C3851 H3837 0.960 1_545 S
C3851 H3838 0.961 . S
C3851 H3839 0.959 . S
C3851 C3849 1.561 . S
C3852 C3849 1.526 . S
C3852 C3853 1.396 . S
C3852 C3857 1.390 . S
C3853 C3847 1.465 1_545 S
C3853 C3852 1.396 . S
C3853 C3854 1.399 . S
C3854 H3840 0.929 . S
C3854 C3853 1.399 . S
C3854 C3855 1.385 . S
C3855 H3841 0.931 . S
C3855 C3854 1.385 . S
C3855 C3856 1.389 . S
C3856 C3855 1.389 . S
C3856 C3857 1.387 . S
C3857 H3842 0.930 . S
C3857 C3852 1.390 . S
C3857 C3856 1.387 . S
H3858 C3870 0.930 . S
H3859 C3872 0.930 . S
H3860 C3873 0.930 . S
H3861 C3877 0.959 . S
H3862 C3877 0.959 . S
H3863 C3877 0.961 . S
H3864 C3878 0.960 . S
H3865 C3878 0.961 . S
H3866 C3878 0.959 . S
H3867 C3881 0.929 . S
H3868 C3882 0.931 . S
H3869 C3884 0.930 . S
C3870 H3858 0.930 . S
C3870 C3871 1.399 . S
C3870 C3875 1.399 . S
C3871 C3870 1.399 . S
C3871 C3872 1.376 . S
C3872 H3859 0.930 . S
C3872 C3871 1.376 . S
C3872 C3873 1.388 . S
C3873 H3860 0.930 . S
C3873 C3872 1.388 . S
C3873 C3874 1.390 . S
C3874 C3873 1.390 . S
C3874 C3875 1.394 . S
C3874 C3880 1.465 . S
C3875 C3870 1.399 . S
C3875 C3874 1.394 . S
C3875 C3876 1.516 . S
C3876 C3875 1.516 . S
C3876 C3877 1.502 . S
C3876 C3878 1.561 . S
C3876 C3879 1.526 . S
C3877 H3861 0.959 . S
C3877 H3862 0.959 . S
C3877 H3863 0.961 . S
C3877 C3876 1.502 . S
C3878 H3864 0.960 . S
C3878 H3865 0.961 . S
C3878 H3866 0.959 . S
C3878 C3876 1.561 . S
C3879 C3876 1.526 . S
C3879 C3880 1.396 . S
C3879 C3884 1.390 . S
C3880 C3874 1.465 . S
C3880 C3879 1.396 . S
C3880 C3881 1.399 . S
C3881 H3867 0.929 . S
C3881 C3880 1.399 . S
C3881 C3882 1.385 . S
C3882 H3868 0.931 . S
C3882 C3881 1.385 . S
C3882 C3883 1.389 . S
C3883 C3882 1.389 . S
C3883 C3884 1.387 . S
C3884 H3869 0.930 . S
C3884 C3879 1.390 . S
C3884 C3883 1.387 . S
H3885 C3897 0.930 . S
H3886 C3899 0.930 . S
H3887 C3900 0.930 . S
H3888 C3904 0.963 . S
H3889 C3904 0.995 . S
H3890 C3904 0.923 1_565 S
H3891 C3905 0.960 1_565 S
H3892 C3905 0.961 . S
H3893 C3905 0.959 . S
H3894 C3908 0.929 . S
H3895 C3909 0.931 . S
H3896 C3911 0.930 . S
C3897 H3885 0.930 . S
C3897 C3898 1.399 . S
C3897 C3902 1.399 . S
C3898 C3897 1.399 . S
C3898 C3899 1.376 . S
C3899 H3886 0.930 . S
C3899 C3898 1.376 . S
C3899 C3900 1.388 . S
C3900 H3887 0.930 . S
C3900 C3899 1.388 . S
C3900 C3901 1.390 . S
C3901 C3900 1.390 . S
C3901 C3902 1.394 . S
C3901 C3907 1.465 1_565 S
C3902 C3897 1.399 . S
C3902 C3901 1.394 . S
C3902 C3903 1.516 1_565 S
C3903 C3902 1.516 1_545 S
C3903 C3904 1.502 . S
C3903 C3905 1.561 . S
C3903 C3906 1.526 . S
C3904 H3888 0.963 . S
C3904 H3889 0.995 . S
C3904 H3890 0.923 1_545 S
C3904 C3903 1.502 . S
C3905 H3891 0.960 1_545 S
C3905 H3892 0.961 . S
C3905 H3893 0.959 . S
C3905 C3903 1.561 . S
C3906 C3903 1.526 . S
C3906 C3907 1.396 . S
C3906 C3911 1.390 . S
C3907 C3901 1.465 1_545 S
C3907 C3906 1.396 . S
C3907 C3908 1.399 . S
C3908 H3894 0.929 . S
C3908 C3907 1.399 . S
C3908 C3909 1.385 . S
C3909 H3895 0.931 . S
C3909 C3908 1.385 . S
C3909 C3910 1.389 . S
C3910 C3909 1.389 . S
C3910 C3911 1.387 . S
C3911 H3896 0.930 . S
C3911 C3906 1.390 . S
C3911 C3910 1.387 . S
H3912 C3924 0.930 . S
H3913 C3926 0.930 . S
H3914 C3927 0.930 . S
H3915 C3931 0.959 . S
H3916 C3931 0.959 . S
H3917 C3931 0.961 . S
H3918 C3932 0.960 . S
H3919 C3932 0.961 . S
H3920 C3932 0.959 . S
H3921 C3935 0.929 . S
H3922 C3936 0.931 . S
H3923 C3938 0.930 . S
C3924 H3912 0.930 . S
C3924 C3925 1.399 . S
C3924 C3929 1.399 . S
C3925 C3924 1.399 . S
C3925 C3926 1.376 . S
C3926 H3913 0.930 . S
C3926 C3925 1.376 . S
C3926 C3927 1.388 . S
C3927 H3914 0.930 . S
C3927 C3926 1.388 . S
C3927 C3928 1.390 . S
C3928 C3927 1.390 . S
C3928 C3929 1.394 . S
C3928 C3934 1.465 . S
C3929 C3924 1.399 . S
C3929 C3928 1.394 . S
C3929 C3930 1.516 . S
C3930 C3929 1.516 . S
C3930 C3931 1.502 . S
C3930 C3932 1.561 . S
C3930 C3933 1.526 . S
C3931 H3915 0.959 . S
C3931 H3916 0.959 . S
C3931 H3917 0.961 . S
C3931 C3930 1.502 . S
C3932 H3918 0.960 . S
C3932 H3919 0.961 . S
C3932 H3920 0.959 . S
C3932 C3930 1.561 . S
C3933 C3930 1.526 . S
C3933 C3934 1.396 . S
C3933 C3938 1.390 . S
C3934 C3928 1.465 . S
C3934 C3933 1.396 . S
C3934 C3935 1.399 . S
C3935 H3921 0.929 . S
C3935 C3934 1.399 . S
C3935 C3936 1.385 . S
C3936 H3922 0.931 . S
C3936 C3935 1.385 . S
C3936 C3937 1.389 . S
C3937 C3936 1.389 . S
C3937 C3938 1.387 . S
C3938 H3923 0.930 . S
C3938 C3933 1.390 . S
C3938 C3937 1.387 . S
H3939 C3951 0.930 . S
H3940 C3953 0.930 . S
H3941 C3954 0.930 . S
H3942 C3958 0.959 . S
H3943 C3958 0.959 . S
H3944 C3958 0.961 . S
H3945 C3959 0.960 . S
H3946 C3959 0.961 . S
H3947 C3959 0.959 . S
H3948 C3962 0.929 . S
H3949 C3963 0.931 . S
H3950 C3965 0.930 . S
C3951 H3939 0.930 . S
C3951 C3952 1.399 . S
C3951 C3956 1.399 . S
C3952 C3951 1.399 . S
C3952 C3953 1.376 . S
C3953 H3940 0.930 . S
C3953 C3952 1.376 . S
C3953 C3954 1.388 . S
C3954 H3941 0.930 . S
C3954 C3953 1.388 . S
C3954 C3955 1.390 . S
C3955 C3954 1.390 . S
C3955 C3956 1.394 . S
C3955 C3961 1.465 . S
C3956 C3951 1.399 . S
C3956 C3955 1.394 . S
C3956 C3957 1.516 . S
C3957 C3956 1.516 . S
C3957 C3958 1.502 . S
C3957 C3959 1.561 . S
C3957 C3960 1.526 . S
C3958 H3942 0.959 . S
C3958 H3943 0.959 . S
C3958 H3944 0.961 . S
C3958 C3957 1.502 . S
C3959 H3945 0.960 . S
C3959 H3946 0.961 . S
C3959 H3947 0.959 . S
C3959 C3957 1.561 . S
C3960 C3957 1.526 . S
C3960 C3961 1.396 . S
C3960 C3965 1.390 . S
C3961 C3955 1.465 . S
C3961 C3960 1.396 . S
C3961 C3962 1.399 . S
C3962 H3948 0.929 . S
C3962 C3961 1.399 . S
C3962 C3963 1.385 . S
C3963 H3949 0.931 . S
C3963 C3962 1.385 . S
C3963 C3964 1.389 . S
C3964 C3963 1.389 . S
C3964 C3965 1.387 . S
C3965 H3950 0.930 . S
C3965 C3960 1.390 . S
C3965 C3964 1.387 . S
H3966 C3978 0.930 . S
H3967 C3980 0.930 . S
H3968 C3981 0.930 . S
H3969 C3985 0.959 . S
H3970 C3985 0.959 . S
H3971 C3985 0.961 . S
H3972 C3986 0.960 . S
H3973 C3986 0.961 . S
H3974 C3986 0.959 . S
H3975 C3989 0.917 1_455 S
H3976 C3990 0.931 . S
H3977 C3992 0.930 . S
C3978 H3966 0.930 . S
C3978 C3979 1.399 . S
C3978 C3983 1.399 . S
C3979 C3978 1.399 . S
C3979 C3980 1.376 . S
C3980 H3967 0.930 . S
C3980 C3979 1.376 . S
C3980 C3981 1.388 . S
C3981 H3968 0.930 . S
C3981 C3980 1.388 . S
C3981 C3982 1.390 . S
C3982 C3981 1.390 . S
C3982 C3983 1.394 . S
C3982 C3988 1.465 . S
C3983 C3978 1.399 . S
C3983 C3982 1.394 . S
C3983 C3984 1.516 . S
C3984 C3983 1.516 . S
C3984 C3985 1.502 . S
C3984 C3986 1.561 . S
C3984 C3987 1.526 . S
C3985 H3969 0.959 . S
C3985 H3970 0.959 . S
C3985 H3971 0.961 . S
C3985 C3984 1.502 . S
C3986 H3972 0.960 . S
C3986 H3973 0.961 . S
C3986 H3974 0.959 . S
C3986 C3984 1.561 . S
C3987 C3984 1.526 . S
C3987 C3988 1.396 . S
C3987 C3992 1.390 1_455 S
C3988 C3982 1.465 . S
C3988 C3987 1.396 . S
C3988 C3989 1.399 1_455 S
C3989 H3975 0.917 1_655 S
C3989 C3988 1.399 1_655 S
C3989 C3990 1.385 . S
C3990 H3976 0.931 . S
C3990 C3989 1.385 . S
C3990 C3991 1.389 . S
C3991 C3990 1.389 . S
C3991 C3992 1.387 . S
C3992 H3977 0.930 . S
C3992 C3987 1.390 1_655 S
C3992 C3991 1.387 . S
H3993 C4005 0.930 . S
H3994 C4007 0.930 . S
H3995 C4008 0.930 . S
H3996 C4012 0.959 . S
H3997 C4012 0.959 . S
H3998 C4012 0.961 . S
H3999 C4013 0.960 . S
H4000 C4013 0.961 . S
H4001 C4013 0.959 . S
H4002 C4016 0.929 . S
H4003 C4017 0.931 . S
H4004 C4019 0.930 . S
C4005 H3993 0.930 . S
C4005 C4006 1.399 . S
C4005 C4010 1.399 . S
C4006 C4005 1.399 . S
C4006 C4007 1.376 . S
C4007 H3994 0.930 . S
C4007 C4006 1.376 . S
C4007 C4008 1.388 . S
C4008 H3995 0.930 . S
C4008 C4007 1.388 . S
C4008 C4009 1.390 . S
C4009 C4008 1.390 . S
C4009 C4010 1.394 . S
C4009 C4015 1.465 . S
C4010 C4005 1.399 . S
C4010 C4009 1.394 . S
C4010 C4011 1.516 . S
C4011 C4010 1.516 . S
C4011 C4012 1.502 . S
C4011 C4013 1.561 . S
C4011 C4014 1.526 . S
C4012 H3996 0.959 . S
C4012 H3997 0.959 . S
C4012 H3998 0.961 . S
C4012 C4011 1.502 . S
C4013 H3999 0.960 . S
C4013 H4000 0.961 . S
C4013 H4001 0.959 . S
C4013 C4011 1.561 . S
C4014 C4011 1.526 . S
C4014 C4015 1.396 . S
C4014 C4019 1.390 . S
C4015 C4009 1.465 . S
C4015 C4014 1.396 . S
C4015 C4016 1.399 . S
C4016 H4002 0.929 . S
C4016 C4015 1.399 . S
C4016 C4017 1.385 . S
C4017 H4003 0.931 . S
C4017 C4016 1.385 . S
C4017 C4018 1.389 . S
C4018 C4017 1.389 . S
C4018 C4019 1.387 . S
C4019 H4004 0.930 . S
C4019 C4014 1.390 . S
C4019 C4018 1.387 . S
H4020 C4032 0.930 . S
H4021 C4034 0.930 . S
H4022 C4035 0.930 . S
H4023 C4039 0.959 . S
H4024 C4039 0.959 . S
H4025 C4039 0.961 . S
H4026 C4040 0.960 . S
H4027 C4040 0.961 . S
H4028 C4040 0.959 . S
H4029 C4043 0.929 . S
H4030 C4044 0.931 . S
H4031 C4046 0.930 . S
C4032 H4020 0.930 . S
C4032 C4033 1.399 . S
C4032 C4037 1.399 . S
C4033 C4032 1.399 . S
C4033 C4034 1.376 . S
C4034 H4021 0.930 . S
C4034 C4033 1.376 . S
C4034 C4035 1.388 . S
C4035 H4022 0.930 . S
C4035 C4034 1.388 . S
C4035 C4036 1.390 1_455 S
C4036 C4035 1.390 1_655 S
C4036 C4037 1.394 1_655 S
C4036 C4042 1.465 . S
C4037 C4032 1.399 . S
C4037 C4036 1.394 1_455 S
C4037 C4038 1.516 1_455 S
C4038 C4037 1.516 1_655 S
C4038 C4039 1.502 . S
C4038 C4040 1.561 . S
C4038 C4041 1.526 . S
C4039 H4023 0.959 . S
C4039 H4024 0.959 . S
C4039 H4025 0.961 . S
C4039 C4038 1.502 . S
C4040 H4026 0.960 . S
C4040 H4027 0.961 . S
C4040 H4028 0.959 . S
C4040 C4038 1.561 . S
C4041 C4038 1.526 . S
C4041 C4042 1.396 . S
C4041 C4046 1.390 . S
C4042 C4036 1.465 . S
C4042 C4041 1.396 . S
C4042 C4043 1.399 . S
C4043 H4029 0.929 . S
C4043 C4042 1.399 . S
C4043 C4044 1.385 . S
C4044 H4030 0.931 . S
C4044 C4043 1.385 . S
C4044 C4045 1.389 . S
C4045 C4044 1.389 . S
C4045 C4046 1.387 . S
C4046 H4031 0.930 . S
C4046 C4041 1.390 . S
C4046 C4045 1.387 . S
H4047 C4059 0.930 . S
H4048 C4061 0.930 . S
H4049 C4062 0.930 . S
H4050 C4066 0.959 . S
H4051 C4066 0.959 . S
H4052 C4066 0.961 . S
H4053 C4067 0.960 . S
H4054 C4067 0.961 . S
H4055 C4067 0.959 . S
H4056 C4070 0.929 . S
H4057 C4071 0.931 . S
H4058 C4073 0.930 . S
C4059 H4047 0.930 . S
C4059 C4060 1.399 . S
C4059 C4064 1.399 . S
C4060 C4059 1.399 . S
C4060 C4061 1.376 . S
C4061 H4048 0.930 . S
C4061 C4060 1.376 . S
C4061 C4062 1.388 . S
C4062 H4049 0.930 . S
C4062 C4061 1.388 . S
C4062 C4063 1.390 . S
C4063 C4062 1.390 . S
C4063 C4064 1.394 . S
C4063 C4069 1.465 . S
C4064 C4059 1.399 . S
C4064 C4063 1.394 . S
C4064 C4065 1.516 . S
C4065 C4064 1.516 . S
C4065 C4066 1.502 . S
C4065 C4067 1.561 . S
C4065 C4068 1.526 . S
C4066 H4050 0.959 . S
C4066 H4051 0.959 . S
C4066 H4052 0.961 . S
C4066 C4065 1.502 . S
C4067 H4053 0.960 . S
C4067 H4054 0.961 . S
C4067 H4055 0.959 . S
C4067 C4065 1.561 . S
C4068 C4065 1.526 . S
C4068 C4069 1.396 . S
C4068 C4073 1.390 . S
C4069 C4063 1.465 . S
C4069 C4068 1.396 . S
C4069 C4070 1.399 . S
C4070 H4056 0.929 . S
C4070 C4069 1.399 . S
C4070 C4071 1.385 . S
C4071 H4057 0.931 . S
C4071 C4070 1.385 . S
C4071 C4072 1.389 . S
C4072 C4071 1.389 . S
C4072 C4073 1.387 . S
C4073 H4058 0.930 . S
C4073 C4068 1.390 . S
C4073 C4072 1.387 . S
H4074 C4086 0.930 . S
H4075 C4088 0.930 . S
H4076 C4089 0.930 . S
H4077 C4093 0.959 . S
H4078 C4093 0.959 . S
H4079 C4093 0.961 . S
H4080 C4094 0.960 . S
H4081 C4094 0.961 . S
H4082 C4094 0.959 . S
H4083 C4097 0.929 . S
H4084 C4098 0.931 . S
H4085 C4100 0.930 . S
C4086 H4074 0.930 . S
C4086 C4087 1.399 . S
C4086 C4091 1.399 . S
C4087 C4086 1.399 . S
C4087 C4088 1.376 . S
C4088 H4075 0.930 . S
C4088 C4087 1.376 . S
C4088 C4089 1.388 . S
C4089 H4076 0.930 . S
C4089 C4088 1.388 . S
C4089 C4090 1.390 . S
C4090 C4089 1.390 . S
C4090 C4091 1.394 . S
C4090 C4096 1.465 . S
C4091 C4086 1.399 . S
C4091 C4090 1.394 . S
C4091 C4092 1.516 . S
C4092 C4091 1.516 . S
C4092 C4093 1.502 . S
C4092 C4094 1.561 . S
C4092 C4095 1.486 1_655 S
C4093 H4077 0.959 . S
C4093 H4078 0.959 . S
C4093 H4079 0.961 . S
C4093 C4092 1.502 . S
C4094 H4080 0.960 . S
C4094 H4081 0.961 . S
C4094 H4082 0.959 . S
C4094 C4092 1.561 . S
C4095 C4092 1.486 1_455 S
C4095 C4096 1.386 1_455 S
C4095 C4100 1.435 . S
C4096 C4090 1.465 . S
C4096 C4095 1.386 1_655 S
C4096 C4097 1.399 1_655 S
C4097 H4083 0.929 . S
C4097 C4096 1.399 1_455 S
C4097 C4098 1.385 . S
C4098 H4084 0.931 . S
C4098 C4097 1.385 . S
C4098 C4099 1.389 . S
C4099 C4098 1.389 . S
C4099 C4100 1.387 . S
C4100 H4085 0.930 . S
C4100 C4095 1.435 . S
C4100 C4099 1.387 . S
H4101 C4113 0.930 . S
H4102 C4115 0.930 . S
H4103 C4116 0.930 . S
H4104 C4120 0.959 . S
H4105 C4120 0.959 . S
H4106 C4120 0.961 . S
H4107 C4121 0.960 . S
H4108 C4121 0.961 . S
H4109 C4121 0.959 . S
H4110 C4124 0.918 1_455 S
H4111 C4125 0.931 . S
H4112 C4127 0.930 . S
C4113 H4101 0.930 . S
C4113 C4114 1.399 . S
C4113 C4118 1.399 . S
C4114 C4113 1.399 . S
C4114 C4115 1.376 . S
C4115 H4102 0.930 . S
C4115 C4114 1.376 . S
C4115 C4116 1.388 . S
C4116 H4103 0.930 . S
C4116 C4115 1.388 . S
C4116 C4117 1.390 . S
C4117 C4116 1.390 . S
C4117 C4118 1.394 . S
C4117 C4123 1.465 . S
C4118 C4113 1.399 . S
C4118 C4117 1.394 . S
C4118 C4119 1.516 . S
C4119 C4118 1.516 . S
C4119 C4120 1.502 . S
C4119 C4121 1.561 . S
C4119 C4122 1.526 . S
C4120 H4104 0.959 . S
C4120 H4105 0.959 . S
C4120 H4106 0.961 . S
C4120 C4119 1.502 . S
C4121 H4107 0.960 . S
C4121 H4108 0.961 . S
C4121 H4109 0.959 . S
C4121 C4119 1.561 . S
C4122 C4119 1.526 . S
C4122 C4123 1.396 . S
C4122 C4127 1.390 1_455 S
C4123 C4117 1.465 . S
C4123 C4122 1.396 . S
C4123 C4124 1.399 1_455 S
C4124 H4110 0.918 1_655 S
C4124 C4123 1.399 1_655 S
C4124 C4125 1.385 . S
C4125 H4111 0.931 . S
C4125 C4124 1.385 . S
C4125 C4126 1.389 . S
C4126 C4125 1.389 . S
C4126 C4127 1.387 . S
C4127 H4112 0.930 . S
C4127 C4122 1.390 1_655 S
C4127 C4126 1.387 . S
H4128 C4140 0.930 . S
H4129 C4142 0.930 . S
H4130 C4143 0.930 . S
H4131 C4147 0.959 . S
H4132 C4147 0.959 1_455 S
H4133 C4147 0.961 . S
H4134 C4148 0.960 . S
H4135 C4148 0.961 1_455 S
H4136 C4148 0.959 . S
H4137 C4151 0.929 . S
H4138 C4152 0.931 . S
H4139 C4154 0.930 . S
C4140 H4128 0.930 . S
C4140 C4141 1.399 . S
C4140 C4145 1.399 . S
C4141 C4140 1.399 . S
C4141 C4142 1.376 . S
C4142 H4129 0.930 . S
C4142 C4141 1.376 . S
C4142 C4143 1.388 . S
C4143 H4130 0.930 . S
C4143 C4142 1.388 . S
C4143 C4144 1.390 . S
C4144 C4143 1.390 . S
C4144 C4145 1.394 . S
C4144 C4150 1.515 . S
C4145 C4140 1.399 . S
C4145 C4144 1.394 . S
C4145 C4146 1.516 . S
C4146 C4145 1.516 . S
C4146 C4147 1.502 . S
C4146 C4148 1.561 . S
C4146 C4149 1.526 1_655 S
C4147 H4131 0.959 . S
C4147 H4132 0.959 1_655 S
C4147 H4133 0.961 . S
C4147 C4146 1.502 . S
C4148 H4134 0.960 . S
C4148 H4135 0.961 1_655 S
C4148 H4136 0.959 . S
C4148 C4146 1.561 . S
C4149 C4146 1.526 1_455 S
C4149 C4150 1.383 1_455 S
C4149 C4154 1.390 . S
C4150 C4144 1.515 . S
C4150 C4149 1.383 1_655 S
C4150 C4151 1.365 1_655 S
C4151 H4137 0.929 . S
C4151 C4150 1.365 1_455 S
C4151 C4152 1.385 . S
C4152 H4138 0.931 . S
C4152 C4151 1.385 . S
C4152 C4153 1.389 . S
C4153 C4152 1.389 . S
C4153 C4154 1.387 . S
C4154 H4139 0.930 . S
C4154 C4149 1.390 . S
C4154 C4153 1.387 . S
H4155 C4167 0.930 . S
H4156 C4169 0.930 . S
H4157 C4170 0.930 . S
H4158 C4174 0.959 . S
H4159 C4174 0.959 . S
H4160 C4174 0.961 . S
H4161 C4175 0.960 . S
H4162 C4175 0.961 . S
H4163 C4175 0.959 . S
H4164 C4178 0.929 . S
H4165 C4179 0.931 . S
H4166 C4181 0.930 . S
C4167 H4155 0.930 . S
C4167 C4168 1.399 . S
C4167 C4172 1.399 . S
C4168 C4167 1.399 . S
C4168 C4169 1.376 . S
C4169 H4156 0.930 . S
C4169 C4168 1.376 . S
C4169 C4170 1.388 . S
C4170 H4157 0.930 . S
C4170 C4169 1.388 . S
C4170 C4171 1.390 . S
C4171 C4170 1.390 . S
C4171 C4172 1.394 . S
C4171 C4177 1.465 . S
C4172 C4167 1.399 . S
C4172 C4171 1.394 . S
C4172 C4173 1.516 . S
C4173 C4172 1.516 . S
C4173 C4174 1.502 . S
C4173 C4175 1.561 . S
C4173 C4176 1.526 . S
C4174 H4158 0.959 . S
C4174 H4159 0.959 . S
C4174 H4160 0.961 . S
C4174 C4173 1.502 . S
C4175 H4161 0.960 . S
C4175 H4162 0.961 . S
C4175 H4163 0.959 . S
C4175 C4173 1.561 . S
C4176 C4173 1.526 . S
C4176 C4177 1.396 . S
C4176 C4181 1.390 . S
C4177 C4171 1.465 . S
C4177 C4176 1.396 . S
C4177 C4178 1.399 . S
C4178 H4164 0.929 . S
C4178 C4177 1.399 . S
C4178 C4179 1.385 . S
C4179 H4165 0.931 . S
C4179 C4178 1.385 . S
C4179 C4180 1.389 . S
C4180 C4179 1.389 . S
C4180 C4181 1.387 . S
C4181 H4166 0.930 . S
C4181 C4176 1.390 . S
C4181 C4180 1.387 . S
H4182 C4194 0.930 . S
H4183 C4196 0.930 . S
H4184 C4197 0.930 . S
H4185 C4201 0.959 . S
H4186 C4201 0.959 1_655 S
H4187 C4201 0.961 . S
H4188 C4202 0.960 . S
H4189 C4202 0.961 1_655 S
H4190 C4202 0.959 . S
H4191 C4205 0.929 . S
H4192 C4206 0.931 . S
H4193 C4208 0.930 . S
C4194 H4182 0.930 . S
C4194 C4195 1.399 . S
C4194 C4199 1.399 . S
C4195 C4194 1.399 . S
C4195 C4196 1.376 . S
C4196 H4183 0.930 . S
C4196 C4195 1.376 . S
C4196 C4197 1.388 . S
C4197 H4184 0.930 . S
C4197 C4196 1.388 . S
C4197 C4198 1.390 . S
C4198 C4197 1.390 . S
C4198 C4199 1.394 . S
C4198 C4204 1.465 1_455 S
C4199 C4194 1.399 . S
C4199 C4198 1.394 . S
C4199 C4200 1.516 . S
C4200 C4199 1.516 . S
C4200 C4201 1.502 . S
C4200 C4202 1.561 . S
C4200 C4203 1.526 1_455 S
C4201 H4185 0.959 . S
C4201 H4186 0.959 1_455 S
C4201 H4187 0.961 . S
C4201 C4200 1.502 . S
C4202 H4188 0.960 . S
C4202 H4189 0.961 1_455 S
C4202 H4190 0.959 . S
C4202 C4200 1.561 . S
C4203 C4200 1.526 1_655 S
C4203 C4204 1.396 . S
C4203 C4208 1.390 . S
C4204 C4198 1.465 1_655 S
C4204 C4203 1.396 . S
C4204 C4205 1.399 . S
C4205 H4191 0.929 . S
C4205 C4204 1.399 . S
C4205 C4206 1.385 . S
C4206 H4192 0.931 . S
C4206 C4205 1.385 . S
C4206 C4207 1.389 . S
C4207 C4206 1.389 . S
C4207 C4208 1.387 . S
C4208 H4193 0.930 . S
C4208 C4203 1.390 . S
C4208 C4207 1.387 . S
H4209 C4221 0.930 . S
H4210 C4223 0.930 . S
H4211 C4224 0.930 . S
H4212 C4228 0.959 . S
H4213 C4228 0.959 . S
H4214 C4228 0.961 . S
H4215 C4229 0.960 . S
H4216 C4229 0.961 . S
H4217 C4229 0.959 . S
H4218 C4232 0.929 . S
H4219 C4233 0.931 . S
H4220 C4235 0.930 . S
C4221 H4209 0.930 . S
C4221 C4222 1.399 . S
C4221 C4226 1.399 . S
C4222 C4221 1.399 . S
C4222 C4223 1.376 . S
C4223 H4210 0.930 . S
C4223 C4222 1.376 . S
C4223 C4224 1.388 . S
C4224 H4211 0.930 . S
C4224 C4223 1.388 . S
C4224 C4225 1.390 . S
C4225 C4224 1.390 . S
C4225 C4226 1.394 . S
C4225 C4231 1.465 . S
C4226 C4221 1.399 . S
C4226 C4225 1.394 . S
C4226 C4227 1.516 . S
C4227 C4226 1.516 . S
C4227 C4228 1.502 . S
C4227 C4229 1.561 . S
C4227 C4230 1.526 . S
C4228 H4212 0.959 . S
C4228 H4213 0.959 . S
C4228 H4214 0.961 . S
C4228 C4227 1.502 . S
C4229 H4215 0.960 . S
C4229 H4216 0.961 . S
C4229 H4217 0.959 . S
C4229 C4227 1.561 . S
C4230 C4227 1.526 . S
C4230 C4231 1.396 . S
C4230 C4235 1.390 . S
C4231 C4225 1.465 . S
C4231 C4230 1.396 . S
C4231 C4232 1.399 . S
C4232 H4218 0.929 . S
C4232 C4231 1.399 . S
C4232 C4233 1.385 . S
C4233 H4219 0.931 . S
C4233 C4232 1.385 . S
C4233 C4234 1.389 . S
C4234 C4233 1.389 . S
C4234 C4235 1.387 . S
C4235 H4220 0.930 . S
C4235 C4230 1.390 . S
C4235 C4234 1.387 . S
H4236 C4248 0.930 . S
H4237 C4250 0.930 . S
H4238 C4251 0.930 . S
H4239 C4255 0.959 . S
H4240 C4255 0.959 . S
H4241 C4255 0.961 . S
H4242 C4256 0.960 . S
H4243 C4256 0.961 . S
H4244 C4256 0.959 . S
H4245 C4259 0.929 . S
H4246 C4260 0.931 . S
H4247 C4262 0.930 . S
C4248 H4236 0.930 . S
C4248 C4249 1.399 . S
C4248 C4253 1.399 . S
C4249 C4248 1.399 . S
C4249 C4250 1.376 . S
C4250 H4237 0.930 . S
C4250 C4249 1.376 . S
C4250 C4251 1.388 . S
C4251 H4238 0.930 . S
C4251 C4250 1.388 . S
C4251 C4252 1.390 1_655 S
C4252 C4251 1.390 1_455 S
C4252 C4253 1.394 1_455 S
C4252 C4258 1.465 . S
C4253 C4248 1.399 . S
C4253 C4252 1.394 1_655 S
C4253 C4254 1.516 1_655 S
C4254 C4253 1.516 1_455 S
C4254 C4255 1.502 . S
C4254 C4256 1.561 . S
C4254 C4257 1.526 . S
C4255 H4239 0.959 . S
C4255 H4240 0.959 . S
C4255 H4241 0.961 . S
C4255 C4254 1.502 . S
C4256 H4242 0.960 . S
C4256 H4243 0.961 . S
C4256 H4244 0.959 . S
C4256 C4254 1.561 . S
C4257 C4254 1.526 . S
C4257 C4258 1.396 . S
C4257 C4262 1.390 . S
C4258 C4252 1.465 . S
C4258 C4257 1.396 . S
C4258 C4259 1.399 . S
C4259 H4245 0.929 . S
C4259 C4258 1.399 . S
C4259 C4260 1.385 . S
C4260 H4246 0.931 . S
C4260 C4259 1.385 . S
C4260 C4261 1.389 . S
C4261 C4260 1.389 . S
C4261 C4262 1.387 . S
C4262 H4247 0.930 . S
C4262 C4257 1.390 . S
C4262 C4261 1.387 . S
H4263 C4275 0.930 . S
H4264 C4277 0.930 . S
H4265 C4278 0.930 . S
H4266 C4282 0.959 . S
H4267 C4282 0.959 . S
H4268 C4282 0.961 . S
H4269 C4283 0.960 . S
H4270 C4283 0.961 . S
H4271 C4283 0.959 . S
H4272 C4286 0.929 . S
H4273 C4287 0.931 . S
H4274 C4289 0.930 . S
C4275 H4263 0.930 . S
C4275 C4276 1.399 . S
C4275 C4280 1.399 . S
C4276 C4275 1.399 . S
C4276 C4277 1.376 . S
C4277 H4264 0.930 . S
C4277 C4276 1.376 . S
C4277 C4278 1.388 . S
C4278 H4265 0.930 . S
C4278 C4277 1.388 . S
C4278 C4279 1.390 . S
C4279 C4278 1.390 . S
C4279 C4280 1.394 . S
C4279 C4285 1.465 . S
C4280 C4275 1.399 . S
C4280 C4279 1.394 . S
C4280 C4281 1.516 . S
C4281 C4280 1.516 . S
C4281 C4282 1.502 . S
C4281 C4283 1.561 . S
C4281 C4284 1.526 . S
C4282 H4266 0.959 . S
C4282 H4267 0.959 . S
C4282 H4268 0.961 . S
C4282 C4281 1.502 . S
C4283 H4269 0.960 . S
C4283 H4270 0.961 . S
C4283 H4271 0.959 . S
C4283 C4281 1.561 . S
C4284 C4281 1.526 . S
C4284 C4285 1.396 . S
C4284 C4289 1.390 . S
C4285 C4279 1.465 . S
C4285 C4284 1.396 . S
C4285 C4286 1.399 . S
C4286 H4272 0.929 . S
C4286 C4285 1.399 . S
C4286 C4287 1.385 . S
C4287 H4273 0.931 . S
C4287 C4286 1.385 . S
C4287 C4288 1.389 . S
C4288 C4287 1.389 . S
C4288 C4289 1.387 . S
C4289 H4274 0.930 . S
C4289 C4284 1.390 . S
C4289 C4288 1.387 . S
H4290 C4302 0.930 . S
H4291 C4304 0.930 . S
H4292 C4305 0.930 . S
H4293 C4309 0.959 . S
H4294 C4309 0.959 1_455 S
H4295 C4309 0.961 . S
H4296 C4310 0.960 . S
H4297 C4310 0.961 1_455 S
H4298 C4310 0.959 . S
H4299 C4313 0.929 . S
H4300 C4314 0.931 . S
H4301 C4316 0.930 . S
C4302 H4290 0.930 . S
C4302 C4303 1.399 . S
C4302 C4307 1.399 . S
C4303 C4302 1.399 . S
C4303 C4304 1.376 . S
C4304 H4291 0.930 . S
C4304 C4303 1.376 . S
C4304 C4305 1.388 . S
C4305 H4292 0.930 . S
C4305 C4304 1.388 . S
C4305 C4306 1.390 . S
C4306 C4305 1.390 . S
C4306 C4307 1.394 . S
C4306 C4312 1.465 1_655 S
C4307 C4302 1.399 . S
C4307 C4306 1.394 . S
C4307 C4308 1.516 . S
C4308 C4307 1.516 . S
C4308 C4309 1.502 . S
C4308 C4310 1.561 . S
C4308 C4311 1.526 1_655 S
C4309 H4293 0.959 . S
C4309 H4294 0.959 1_655 S
C4309 H4295 0.961 . S
C4309 C4308 1.502 . S
C4310 H4296 0.960 . S
C4310 H4297 0.961 1_655 S
C4310 H4298 0.959 . S
C4310 C4308 1.561 . S
C4311 C4308 1.526 1_455 S
C4311 C4312 1.396 . S
C4311 C4316 1.390 . S
C4312 C4306 1.465 1_455 S
C4312 C4311 1.396 . S
C4312 C4313 1.399 . S
C4313 H4299 0.929 . S
C4313 C4312 1.399 . S
C4313 C4314 1.385 . S
C4314 H4300 0.931 . S
C4314 C4313 1.385 . S
C4314 C4315 1.389 . S
C4315 C4314 1.389 . S
C4315 C4316 1.387 . S
C4316 H4301 0.930 . S
C4316 C4311 1.390 . S
C4316 C4315 1.387 . S
H4317 C4329 0.930 . S
H4318 C4331 0.930 . S
H4319 C4332 0.930 . S
H4320 C4336 0.959 . S
H4321 C4336 0.959 . S
H4322 C4336 0.961 . S
H4323 C4337 0.960 . S
H4324 C4337 0.961 . S
H4325 C4337 0.959 . S
H4326 C4340 0.929 . S
H4327 C4341 0.931 . S
H4328 C4343 0.930 . S
C4329 H4317 0.930 . S
C4329 C4330 1.399 . S
C4329 C4334 1.399 . S
C4330 C4329 1.399 . S
C4330 C4331 1.376 . S
C4331 H4318 0.930 . S
C4331 C4330 1.376 . S
C4331 C4332 1.388 . S
C4332 H4319 0.930 . S
C4332 C4331 1.388 . S
C4332 C4333 1.390 . S
C4333 C4332 1.390 . S
C4333 C4334 1.394 . S
C4333 C4339 1.465 . S
C4334 C4329 1.399 . S
C4334 C4333 1.394 . S
C4334 C4335 1.516 . S
C4335 C4334 1.516 . S
C4335 C4336 1.502 . S
C4335 C4337 1.561 . S
C4335 C4338 1.526 . S
C4336 H4320 0.959 . S
C4336 H4321 0.959 . S
C4336 H4322 0.961 . S
C4336 C4335 1.502 . S
C4337 H4323 0.960 . S
C4337 H4324 0.961 . S
C4337 H4325 0.959 . S
C4337 C4335 1.561 . S
C4338 C4335 1.526 . S
C4338 C4339 1.396 . S
C4338 C4343 1.390 . S
C4339 C4333 1.465 . S
C4339 C4338 1.396 . S
C4339 C4340 1.399 . S
C4340 H4326 0.929 . S
C4340 C4339 1.399 . S
C4340 C4341 1.385 . S
C4341 H4327 0.931 . S
C4341 C4340 1.385 . S
C4341 C4342 1.389 . S
C4342 C4341 1.389 . S
C4342 C4343 1.387 . S
C4343 H4328 0.930 . S
C4343 C4338 1.390 . S
C4343 C4342 1.387 . S
H4344 C4356 0.930 . S
H4345 C4358 0.930 . S
H4346 C4359 0.930 . S
H4347 C4363 0.959 . S
H4348 C4363 0.959 1_565 S
H4349 C4363 0.961 . S
H4350 C4364 0.960 . S
H4351 C4364 0.955 1_565 S
H4352 C4364 0.959 . S
H4353 C4367 0.929 . S
H4354 C4368 0.931 . S
H4355 C4370 0.930 . S
C4356 H4344 0.930 . S
C4356 C4357 1.399 . S
C4356 C4361 1.399 . S
C4357 C4356 1.399 . S
C4357 C4358 1.376 . S
C4358 H4345 0.930 . S
C4358 C4357 1.376 . S
C4358 C4359 1.388 . S
C4359 H4346 0.930 . S
C4359 C4358 1.388 . S
C4359 C4360 1.390 . S
C4360 C4359 1.390 . S
C4360 C4361 1.394 . S
C4360 C4366 1.465 1_545 S
C4361 C4356 1.399 . S
C4361 C4360 1.394 . S
C4361 C4362 1.516 . S
C4362 C4361 1.516 . S
C4362 C4363 1.502 . S
C4362 C4364 1.561 . S
C4362 C4365 1.526 1_545 S
C4363 H4347 0.959 . S
C4363 H4348 0.959 1_545 S
C4363 H4349 0.961 . S
C4363 C4362 1.502 . S
C4364 H4350 0.960 . S
C4364 H4351 0.955 1_545 S
C4364 H4352 0.959 . S
C4364 C4362 1.561 . S
C4365 C4362 1.526 1_565 S
C4365 C4366 1.396 . S
C4365 C4370 1.390 . S
C4366 C4360 1.465 1_565 S
C4366 C4365 1.396 . S
C4366 C4367 1.399 . S
C4367 H4353 0.929 . S
C4367 C4366 1.399 . S
C4367 C4368 1.385 . S
C4368 H4354 0.931 . S
C4368 C4367 1.385 . S
C4368 C4369 1.389 . S
C4369 C4368 1.389 . S
C4369 C4370 1.387 . S
C4370 H4355 0.930 . S
C4370 C4365 1.390 . S
C4370 C4369 1.387 . S
H4371 C4383 0.930 . S
H4372 C4385 0.930 . S
H4373 C4386 0.930 . S
H4374 C4390 0.959 . S
H4375 C4390 0.959 . S
H4376 C4390 0.961 . S
H4377 C4391 0.960 . S
H4378 C4391 0.961 . S
H4379 C4391 0.959 . S
H4380 C4394 0.929 . S
H4381 C4395 0.931 . S
H4382 C4397 0.930 . S
C4383 H4371 0.930 . S
C4383 C4384 1.399 . S
C4383 C4388 1.399 . S
C4384 C4383 1.399 . S
C4384 C4385 1.376 . S
C4385 H4372 0.930 . S
C4385 C4384 1.376 . S
C4385 C4386 1.388 . S
C4386 H4373 0.930 . S
C4386 C4385 1.388 . S
C4386 C4387 1.390 . S
C4387 C4386 1.390 . S
C4387 C4388 1.394 . S
C4387 C4393 1.465 . S
C4388 C4383 1.399 . S
C4388 C4387 1.394 . S
C4388 C4389 1.516 . S
C4389 C4388 1.516 . S
C4389 C4390 1.502 . S
C4389 C4391 1.561 . S
C4389 C4392 1.526 . S
C4390 H4374 0.959 . S
C4390 H4375 0.959 . S
C4390 H4376 0.961 . S
C4390 C4389 1.502 . S
C4391 H4377 0.960 . S
C4391 H4378 0.961 . S
C4391 H4379 0.959 . S
C4391 C4389 1.561 . S
C4392 C4389 1.526 . S
C4392 C4393 1.396 . S
C4392 C4397 1.390 . S
C4393 C4387 1.465 . S
C4393 C4392 1.396 . S
C4393 C4394 1.399 . S
C4394 H4380 0.929 . S
C4394 C4393 1.399 . S
C4394 C4395 1.385 . S
C4395 H4381 0.931 . S
C4395 C4394 1.385 . S
C4395 C4396 1.389 . S
C4396 C4395 1.389 . S
C4396 C4397 1.387 . S
C4397 H4382 0.930 . S
C4397 C4392 1.390 . S
C4397 C4396 1.387 . S
H4398 C4410 0.930 . S
H4399 C4412 0.930 . S
H4400 C4413 0.930 . S
H4401 C4417 0.959 . S
H4402 C4417 0.959 . S
H4403 C4417 0.961 1_545 S
H4404 C4418 0.960 1_545 S
H4405 C4418 0.961 . S
H4406 C4418 0.959 . S
H4407 C4421 0.929 . S
H4408 C4422 0.931 . S
H4409 C4424 0.930 . S
C4410 H4398 0.930 . S
C4410 C4411 1.399 . S
C4410 C4415 1.399 . S
C4411 C4410 1.399 . S
C4411 C4412 1.376 . S
C4412 H4399 0.930 . S
C4412 C4411 1.376 . S
C4412 C4413 1.388 . S
C4413 H4400 0.930 . S
C4413 C4412 1.388 . S
C4413 C4414 1.375 1_545 S
C4414 C4413 1.375 1_565 S
C4414 C4415 1.386 1_565 S
C4414 C4420 1.488 . S
C4415 C4410 1.399 . S
C4415 C4414 1.386 1_545 S
C4415 C4416 1.516 1_545 S
C4416 C4415 1.516 1_565 S
C4416 C4417 1.502 . S
C4416 C4418 1.561 . S
C4416 C4419 1.526 . S
C4417 H4401 0.959 . S
C4417 H4402 0.959 . S
C4417 H4403 0.961 1_565 S
C4417 C4416 1.502 . S
C4418 H4404 0.960 1_565 S
C4418 H4405 0.961 . S
C4418 H4406 0.959 . S
C4418 C4416 1.561 . S
C4419 C4416 1.526 . S
C4419 C4420 1.396 . S
C4419 C4424 1.390 . S
C4420 C4414 1.488 . S
C4420 C4419 1.396 . S
C4420 C4421 1.399 . S
C4421 H4407 0.929 . S
C4421 C4420 1.399 . S
C4421 C4422 1.385 . S
C4422 H4408 0.931 . S
C4422 C4421 1.385 . S
C4422 C4423 1.389 . S
C4423 C4422 1.389 . S
C4423 C4424 1.387 . S
C4424 H4409 0.930 . S
C4424 C4419 1.390 . S
C4424 C4423 1.387 . S
H4425 C4437 0.930 . S
H4426 C4439 0.930 . S
H4427 C4440 0.930 . S
H4428 C4444 0.959 . S
H4429 C4444 0.959 . S
H4430 C4444 0.961 . S
H4431 C4445 0.960 . S
H4432 C4445 0.961 . S
H4433 C4445 0.959 . S
H4434 C4448 0.929 . S
H4435 C4449 0.931 . S
H4436 C4451 0.930 . S
C4437 H4425 0.930 . S
C4437 C4438 1.399 . S
C4437 C4442 1.399 . S
C4438 C4437 1.399 . S
C4438 C4439 1.376 . S
C4439 H4426 0.930 . S
C4439 C4438 1.376 . S
C4439 C4440 1.388 . S
C4440 H4427 0.930 . S
C4440 C4439 1.388 . S
C4440 C4441 1.390 . S
C4441 C4440 1.390 . S
C4441 C4442 1.394 . S
C4441 C4447 1.465 . S
C4442 C4437 1.399 . S
C4442 C4441 1.394 . S
C4442 C4443 1.516 . S
C4443 C4442 1.516 . S
C4443 C4444 1.502 . S
C4443 C4445 1.561 . S
C4443 C4446 1.526 . S
C4444 H4428 0.959 . S
C4444 H4429 0.959 . S
C4444 H4430 0.961 . S
C4444 C4443 1.502 . S
C4445 H4431 0.960 . S
C4445 H4432 0.961 . S
C4445 H4433 0.959 . S
C4445 C4443 1.561 . S
C4446 C4443 1.526 . S
C4446 C4447 1.396 . S
C4446 C4451 1.390 . S
C4447 C4441 1.465 . S
C4447 C4446 1.396 . S
C4447 C4448 1.399 . S
C4448 H4434 0.929 . S
C4448 C4447 1.399 . S
C4448 C4449 1.385 . S
C4449 H4435 0.931 . S
C4449 C4448 1.385 . S
C4449 C4450 1.389 . S
C4450 C4449 1.389 . S
C4450 C4451 1.387 . S
C4451 H4436 0.930 . S
C4451 C4446 1.390 . S
C4451 C4450 1.387 . S
H4452 C4464 0.930 . S
H4453 C4466 0.930 . S
H4454 C4467 0.930 . S
H4455 C4471 0.959 . S
H4456 C4471 0.959 1_565 S
H4457 C4471 0.961 . S
H4458 C4472 0.960 . S
H4459 C4472 0.961 1_565 S
H4460 C4472 0.959 . S
H4461 C4475 0.929 . S
H4462 C4476 0.931 . S
H4463 C4478 0.930 . S
C4464 H4452 0.930 . S
C4464 C4465 1.399 . S
C4464 C4469 1.399 . S
C4465 C4464 1.399 . S
C4465 C4466 1.376 . S
C4466 H4453 0.930 . S
C4466 C4465 1.376 . S
C4466 C4467 1.388 . S
C4467 H4454 0.930 . S
C4467 C4466 1.388 . S
C4467 C4468 1.390 . S
C4468 C4467 1.390 . S
C4468 C4469 1.394 . S
C4468 C4474 1.465 1_545 S
C4469 C4464 1.399 . S
C4469 C4468 1.394 . S
C4469 C4470 1.516 . S
C4470 C4469 1.516 . S
C4470 C4471 1.502 . S
C4470 C4472 1.561 . S
C4470 C4473 1.526 1_545 S
C4471 H4455 0.959 . S
C4471 H4456 0.959 1_545 S
C4471 H4457 0.961 . S
C4471 C4470 1.502 . S
C4472 H4458 0.960 . S
C4472 H4459 0.961 1_545 S
C4472 H4460 0.959 . S
C4472 C4470 1.561 . S
C4473 C4470 1.526 1_565 S
C4473 C4474 1.396 . S
C4473 C4478 1.390 . S
C4474 C4468 1.465 1_565 S
C4474 C4473 1.396 . S
C4474 C4475 1.399 . S
C4475 H4461 0.929 . S
C4475 C4474 1.399 . S
C4475 C4476 1.385 . S
C4476 H4462 0.931 . S
C4476 C4475 1.385 . S
C4476 C4477 1.389 . S
C4477 C4476 1.389 . S
C4477 C4478 1.387 . S
C4478 H4463 0.930 . S
C4478 C4473 1.390 . S
C4478 C4477 1.387 . S
H4479 C4491 0.930 . S
H4480 C4493 0.930 . S
H4481 C4494 0.930 . S
H4482 C4498 0.959 . S
H4483 C4498 0.959 . S
H4484 C4498 0.961 . S
H4485 C4499 0.960 . S
H4486 C4499 0.961 . S
H4487 C4499 0.959 . S
H4488 C4502 0.929 . S
H4489 C4503 0.931 . S
H4490 C4505 0.930 . S
C4491 H4479 0.930 . S
C4491 C4492 1.399 . S
C4491 C4496 1.399 . S
C4492 C4491 1.399 . S
C4492 C4493 1.376 . S
C4493 H4480 0.930 . S
C4493 C4492 1.376 . S
C4493 C4494 1.388 . S
C4494 H4481 0.930 . S
C4494 C4493 1.388 . S
C4494 C4495 1.390 . S
C4495 C4494 1.390 . S
C4495 C4496 1.394 . S
C4495 C4501 1.465 . S
C4496 C4491 1.399 . S
C4496 C4495 1.394 . S
C4496 C4497 1.516 . S
C4497 C4496 1.516 . S
C4497 C4498 1.502 . S
C4497 C4499 1.561 . S
C4497 C4500 1.526 . S
C4498 H4482 0.959 . S
C4498 H4483 0.959 . S
C4498 H4484 0.961 . S
C4498 C4497 1.502 . S
C4499 H4485 0.960 . S
C4499 H4486 0.961 . S
C4499 H4487 0.959 . S
C4499 C4497 1.561 . S
C4500 C4497 1.526 . S
C4500 C4501 1.396 . S
C4500 C4505 1.390 . S
C4501 C4495 1.465 . S
C4501 C4500 1.396 . S
C4501 C4502 1.399 . S
C4502 H4488 0.929 . S
C4502 C4501 1.399 . S
C4502 C4503 1.385 . S
C4503 H4489 0.931 . S
C4503 C4502 1.385 . S
C4503 C4504 1.389 . S
C4504 C4503 1.389 . S
C4504 C4505 1.387 . S
C4505 H4490 0.930 . S
C4505 C4500 1.390 . S
C4505 C4504 1.387 . S
H4506 C4518 0.930 . S
H4507 C4520 0.930 . S
H4508 C4521 0.930 . S
H4509 C4525 0.959 . S
H4510 C4525 0.959 . S
H4511 C4525 0.961 1_545 S
H4512 C4526 0.960 1_545 S
H4513 C4526 0.961 . S
H4514 C4526 0.959 . S
H4515 C4529 0.929 . S
H4516 C4530 0.931 . S
H4517 C4532 0.930 . S
C4518 H4506 0.930 . S
C4518 C4519 1.399 . S
C4518 C4523 1.399 . S
C4519 C4518 1.399 . S
C4519 C4520 1.376 . S
C4520 H4507 0.930 . S
C4520 C4519 1.376 . S
C4520 C4521 1.388 . S
C4521 H4508 0.930 . S
C4521 C4520 1.388 . S
C4521 C4522 1.390 . S
C4522 C4521 1.390 . S
C4522 C4523 1.394 . S
C4522 C4528 1.465 1_545 S
C4523 C4518 1.399 . S
C4523 C4522 1.394 . S
C4523 C4524 1.516 1_545 S
C4524 C4523 1.516 1_565 S
C4524 C4525 1.502 . S
C4524 C4526 1.561 . S
C4524 C4527 1.526 . S
C4525 H4509 0.959 . S
C4525 H4510 0.959 . S
C4525 H4511 0.961 1_565 S
C4525 C4524 1.502 . S
C4526 H4512 0.960 1_565 S
C4526 H4513 0.961 . S
C4526 H4514 0.959 . S
C4526 C4524 1.561 . S
C4527 C4524 1.526 . S
C4527 C4528 1.396 . S
C4527 C4532 1.390 . S
C4528 C4522 1.465 1_565 S
C4528 C4527 1.396 . S
C4528 C4529 1.399 . S
C4529 H4515 0.929 . S
C4529 C4528 1.399 . S
C4529 C4530 1.385 . S
C4530 H4516 0.931 . S
C4530 C4529 1.385 . S
C4530 C4531 1.389 . S
C4531 C4530 1.389 . S
C4531 C4532 1.387 . S
C4532 H4517 0.930 . S
C4532 C4527 1.390 . S
C4532 C4531 1.387 . S
H4533 C4545 0.930 . S
H4534 C4547 0.930 . S
H4535 C4548 0.930 . S
H4536 C4552 0.959 . S
H4537 C4552 0.959 . S
H4538 C4552 0.961 . S
H4539 C4553 0.960 . S
H4540 C4553 0.961 . S
H4541 C4553 0.959 . S
H4542 C4556 0.929 . S
H4543 C4557 0.931 . S
H4544 C4559 0.930 . S
C4545 H4533 0.930 . S
C4545 C4546 1.399 . S
C4545 C4550 1.399 . S
C4546 C4545 1.399 . S
C4546 C4547 1.376 . S
C4547 H4534 0.930 . S
C4547 C4546 1.376 . S
C4547 C4548 1.388 . S
C4548 H4535 0.930 . S
C4548 C4547 1.388 . S
C4548 C4549 1.390 . S
C4549 C4548 1.390 . S
C4549 C4550 1.394 . S
C4549 C4555 1.465 . S
C4550 C4545 1.399 . S
C4550 C4549 1.394 . S
C4550 C4551 1.516 . S
C4551 C4550 1.516 . S
C4551 C4552 1.502 . S
C4551 C4553 1.561 . S
C4551 C4554 1.526 . S
C4552 H4536 0.959 . S
C4552 H4537 0.959 . S
C4552 H4538 0.961 . S
C4552 C4551 1.502 . S
C4553 H4539 0.960 . S
C4553 H4540 0.961 . S
C4553 H4541 0.959 . S
C4553 C4551 1.561 . S
C4554 C4551 1.526 . S
C4554 C4555 1.396 . S
C4554 C4559 1.390 . S
C4555 C4549 1.465 . S
C4555 C4554 1.396 . S
C4555 C4556 1.399 . S
C4556 H4542 0.929 . S
C4556 C4555 1.399 . S
C4556 C4557 1.385 . S
C4557 H4543 0.931 . S
C4557 C4556 1.385 . S
C4557 C4558 1.389 . S
C4558 C4557 1.389 . S
C4558 C4559 1.387 . S
C4559 H4544 0.930 . S
C4559 C4554 1.390 . S
C4559 C4558 1.387 . S
H4560 C4572 0.930 . S
H4561 C4574 0.930 . S
H4562 C4575 0.930 . S
H4563 C4579 0.959 . S
H4564 C4579 0.959 1_554 S
H4565 C4579 0.961 . S
H4566 C4580 0.960 . S
H4567 C4580 0.961 1_554 S
H4568 C4580 0.959 . S
H4569 C4583 0.929 . S
H4570 C4584 0.931 . S
H4571 C4586 0.930 . S
C4572 H4560 0.930 . S
C4572 C4573 1.399 . S
C4572 C4577 1.399 . S
C4573 C4572 1.399 . S
C4573 C4574 1.376 . S
C4574 H4561 0.930 . S
C4574 C4573 1.376 . S
C4574 C4575 1.388 . S
C4575 H4562 0.930 . S
C4575 C4574 1.388 . S
C4575 C4576 1.390 . S
C4576 C4575 1.390 . S
C4576 C4577 1.394 . S
C4576 C4582 1.465 1_556 S
C4577 C4572 1.399 . S
C4577 C4576 1.394 . S
C4577 C4578 1.516 . S
C4578 C4577 1.516 . S
C4578 C4579 1.502 . S
C4578 C4580 1.561 . S
C4578 C4581 1.526 1_556 S
C4579 H4563 0.959 . S
C4579 H4564 0.959 1_556 S
C4579 H4565 0.961 . S
C4579 C4578 1.502 . S
C4580 H4566 0.960 . S
C4580 H4567 0.961 1_556 S
C4580 H4568 0.959 . S
C4580 C4578 1.561 . S
C4581 C4578 1.526 1_554 S
C4581 C4582 1.396 . S
C4581 C4586 1.390 . S
C4582 C4576 1.465 1_554 S
C4582 C4581 1.396 . S
C4582 C4583 1.399 . S
C4583 H4569 0.929 . S
C4583 C4582 1.399 . S
C4583 C4584 1.385 . S
C4584 H4570 0.931 . S
C4584 C4583 1.385 . S
C4584 C4585 1.389 . S
C4585 C4584 1.389 . S
C4585 C4586 1.387 . S
C4586 H4571 0.930 . S
C4586 C4581 1.390 . S
C4586 C4585 1.387 . S
H4587 C4599 0.930 . S
H4588 C4601 0.930 . S
H4589 C4602 0.930 . S
H4590 C4606 0.959 . S
H4591 C4606 0.959 1_554 S
H4592 C4606 0.961 . S
H4593 C4607 0.960 . S
H4594 C4607 0.961 1_554 S
H4595 C4607 0.959 . S
H4596 C4610 0.929 . S
H4597 C4611 0.931 . S
H4598 C4613 0.930 . S
C4599 H4587 0.930 . S
C4599 C4600 1.399 . S
C4599 C4604 1.399 . S
C4600 C4599 1.399 . S
C4600 C4601 1.376 . S
C4601 H4588 0.930 . S
C4601 C4600 1.376 . S
C4601 C4602 1.388 . S
C4602 H4589 0.930 . S
C4602 C4601 1.388 . S
C4602 C4603 1.390 . S
C4603 C4602 1.390 . S
C4603 C4604 1.394 . S
C4603 C4609 1.465 1_556 S
C4604 C4599 1.399 . S
C4604 C4603 1.394 . S
C4604 C4605 1.516 . S
C4605 C4604 1.516 . S
C4605 C4606 1.502 . S
C4605 C4607 1.561 . S
C4605 C4608 1.526 1_556 S
C4606 H4590 0.959 . S
C4606 H4591 0.959 1_556 S
C4606 H4592 0.961 . S
C4606 C4605 1.502 . S
C4607 H4593 0.960 . S
C4607 H4594 0.961 1_556 S
C4607 H4595 0.959 . S
C4607 C4605 1.561 . S
C4608 C4605 1.526 1_554 S
C4608 C4609 1.396 . S
C4608 C4613 1.390 . S
C4609 C4603 1.465 1_554 S
C4609 C4608 1.396 . S
C4609 C4610 1.399 . S
C4610 H4596 0.929 . S
C4610 C4609 1.399 . S
C4610 C4611 1.385 . S
C4611 H4597 0.931 . S
C4611 C4610 1.385 . S
C4611 C4612 1.389 . S
C4612 C4611 1.389 . S
C4612 C4613 1.387 . S
C4613 H4598 0.930 . S
C4613 C4608 1.390 . S
C4613 C4612 1.387 . S
H4614 C4626 0.930 . S
H4615 C4628 0.930 . S
H4616 C4629 0.930 . S
H4617 C4633 0.959 . S
H4618 C4633 0.959 . S
H4619 C4633 0.961 . S
H4620 C4634 0.960 . S
H4621 C4634 0.961 . S
H4622 C4634 0.959 . S
H4623 C4637 0.929 . S
H4624 C4638 0.931 . S
H4625 C4640 0.930 . S
C4626 H4614 0.930 . S
C4626 C4627 1.399 . S
C4626 C4631 1.399 . S
C4627 C4626 1.399 . S
C4627 C4628 1.376 . S
C4628 H4615 0.930 . S
C4628 C4627 1.376 . S
C4628 C4629 1.388 . S
C4629 H4616 0.930 . S
C4629 C4628 1.388 . S
C4629 C4630 1.390 . S
C4630 C4629 1.390 . S
C4630 C4631 1.394 . S
C4630 C4636 1.465 . S
C4631 C4626 1.399 . S
C4631 C4630 1.394 . S
C4631 C4632 1.516 . S
C4632 C4631 1.516 . S
C4632 C4633 1.502 . S
C4632 C4634 1.561 . S
C4632 C4635 1.526 . S
C4633 H4617 0.959 . S
C4633 H4618 0.959 . S
C4633 H4619 0.961 . S
C4633 C4632 1.502 . S
C4634 H4620 0.960 . S
C4634 H4621 0.961 . S
C4634 H4622 0.959 . S
C4634 C4632 1.561 . S
C4635 C4632 1.526 . S
C4635 C4636 1.396 . S
C4635 C4640 1.390 . S
C4636 C4630 1.465 . S
C4636 C4635 1.396 . S
C4636 C4637 1.399 . S
C4637 H4623 0.929 . S
C4637 C4636 1.399 . S
C4637 C4638 1.385 . S
C4638 H4624 0.931 . S
C4638 C4637 1.385 . S
C4638 C4639 1.389 . S
C4639 C4638 1.389 . S
C4639 C4640 1.387 . S
C4640 H4625 0.930 . S
C4640 C4635 1.390 . S
C4640 C4639 1.387 . S
H4641 C4653 0.930 . S
H4642 C4655 0.930 . S
H4643 C4656 0.930 . S
H4644 C4660 0.959 . S
H4645 C4660 0.959 . S
H4646 C4660 0.961 . S
H4647 C4661 0.960 . S
H4648 C4661 0.961 . S
H4649 C4661 0.959 . S
H4650 C4664 0.929 . S
H4651 C4665 0.931 . S
H4652 C4667 0.930 . S
C4653 H4641 0.930 . S
C4653 C4654 1.399 . S
C4653 C4658 1.399 1_556 S
C4654 C4653 1.399 . S
C4654 C4655 1.376 . S
C4655 H4642 0.930 . S
C4655 C4654 1.376 . S
C4655 C4656 1.388 . S
C4656 H4643 0.930 . S
C4656 C4655 1.388 . S
C4656 C4657 1.390 1_556 S
C4657 C4656 1.390 1_554 S
C4657 C4658 1.394 . S
C4657 C4663 1.465 . S
C4658 C4653 1.399 1_554 S
C4658 C4657 1.394 . S
C4658 C4659 1.516 . S
C4659 C4658 1.516 . S
C4659 C4660 1.502 . S
C4659 C4661 1.561 . S
C4659 C4662 1.526 . S
C4660 H4644 0.959 . S
C4660 H4645 0.959 . S
C4660 H4646 0.961 . S
C4660 C4659 1.502 . S
C4661 H4647 0.960 . S
C4661 H4648 0.961 . S
C4661 H4649 0.959 . S
C4661 C4659 1.561 . S
C4662 C4659 1.526 . S
C4662 C4663 1.396 . S
C4662 C4667 1.390 . S
C4663 C4657 1.465 . S
C4663 C4662 1.396 . S
C4663 C4664 1.399 . S
C4664 H4650 0.929 . S
C4664 C4663 1.399 . S
C4664 C4665 1.385 . S
C4665 H4651 0.931 . S
C4665 C4664 1.385 . S
C4665 C4666 1.389 . S
C4666 C4665 1.389 . S
C4666 C4667 1.387 . S
C4667 H4652 0.930 . S
C4667 C4662 1.390 . S
C4667 C4666 1.387 . S
H4668 C4680 0.930 . S
H4669 C4682 0.930 . S
H4670 C4683 0.930 . S
H4671 C4687 0.959 . S
H4672 C4687 0.959 . S
H4673 C4687 0.961 . S
H4674 C4688 0.960 . S
H4675 C4688 0.961 . S
H4676 C4688 0.959 . S
H4677 C4691 0.929 . S
H4678 C4692 0.931 . S
H4679 C4694 0.930 . S
C4680 H4668 0.930 . S
C4680 C4681 1.399 . S
C4680 C4685 1.399 . S
C4681 C4680 1.399 . S
C4681 C4682 1.376 . S
C4682 H4669 0.930 . S
C4682 C4681 1.376 . S
C4682 C4683 1.388 . S
C4683 H4670 0.930 . S
C4683 C4682 1.388 . S
C4683 C4684 1.390 . S
C4684 C4683 1.390 . S
C4684 C4685 1.394 . S
C4684 C4690 1.465 . S
C4685 C4680 1.399 . S
C4685 C4684 1.394 . S
C4685 C4686 1.516 . S
C4686 C4685 1.516 . S
C4686 C4687 1.502 . S
C4686 C4688 1.561 . S
C4686 C4689 1.526 . S
C4687 H4671 0.959 . S
C4687 H4672 0.959 . S
C4687 H4673 0.961 . S
C4687 C4686 1.502 . S
C4688 H4674 0.960 . S
C4688 H4675 0.961 . S
C4688 H4676 0.959 . S
C4688 C4686 1.561 . S
C4689 C4686 1.526 . S
C4689 C4690 1.396 . S
C4689 C4694 1.390 . S
C4690 C4684 1.465 . S
C4690 C4689 1.396 . S
C4690 C4691 1.399 . S
C4691 H4677 0.929 . S
C4691 C4690 1.399 . S
C4691 C4692 1.385 . S
C4692 H4678 0.931 . S
C4692 C4691 1.385 . S
C4692 C4693 1.389 . S
C4693 C4692 1.389 . S
C4693 C4694 1.387 . S
C4694 H4679 0.930 . S
C4694 C4689 1.390 . S
C4694 C4693 1.387 . S
H4695 C4707 0.930 . S
H4696 C4709 0.930 . S
H4697 C4710 0.930 . S
H4698 C4714 0.959 . S
H4699 C4714 0.959 . S
H4700 C4714 0.961 1_556 S
H4701 C4715 0.960 1_556 S
H4702 C4715 0.961 . S
H4703 C4715 0.959 . S
H4704 C4718 0.929 . S
H4705 C4719 0.931 . S
H4706 C4721 0.930 . S
C4707 H4695 0.930 . S
C4707 C4708 1.399 . S
C4707 C4712 1.399 . S
C4708 C4707 1.399 . S
C4708 C4709 1.376 . S
C4709 H4696 0.930 . S
C4709 C4708 1.376 . S
C4709 C4710 1.388 . S
C4710 H4697 0.930 . S
C4710 C4709 1.388 . S
C4710 C4711 1.390 . S
C4711 C4710 1.390 . S
C4711 C4712 1.394 . S
C4711 C4717 1.465 1_556 S
C4712 C4707 1.399 . S
C4712 C4711 1.394 . S
C4712 C4713 1.516 1_556 S
C4713 C4712 1.516 1_554 S
C4713 C4714 1.502 . S
C4713 C4715 1.561 . S
C4713 C4716 1.526 . S
C4714 H4698 0.959 . S
C4714 H4699 0.959 . S
C4714 H4700 0.961 1_554 S
C4714 C4713 1.502 . S
C4715 H4701 0.960 1_554 S
C4715 H4702 0.961 . S
C4715 H4703 0.959 . S
C4715 C4713 1.561 . S
C4716 C4713 1.526 . S
C4716 C4717 1.396 . S
C4716 C4721 1.390 . S
C4717 C4711 1.465 1_554 S
C4717 C4716 1.396 . S
C4717 C4718 1.399 . S
C4718 H4704 0.929 . S
C4718 C4717 1.399 . S
C4718 C4719 1.385 . S
C4719 H4705 0.931 . S
C4719 C4718 1.385 . S
C4719 C4720 1.389 . S
C4720 C4719 1.389 . S
C4720 C4721 1.387 . S
C4721 H4706 0.930 . S
C4721 C4716 1.390 . S
C4721 C4720 1.387 . S
H4722 C4734 0.930 . S
H4723 C4736 0.930 . S
H4724 C4737 0.930 . S
H4725 C4741 0.959 . S
H4726 C4741 0.959 . S
H4727 C4741 0.961 . S
H4728 C4742 0.960 . S
H4729 C4742 0.961 . S
H4730 C4742 0.959 . S
H4731 C4745 0.929 . S
H4732 C4746 0.931 . S
H4733 C4748 0.930 . S
C4734 H4722 0.930 . S
C4734 C4735 1.399 . S
C4734 C4739 1.399 . S
C4735 C4734 1.399 . S
C4735 C4736 1.376 . S
C4736 H4723 0.930 . S
C4736 C4735 1.376 . S
C4736 C4737 1.388 . S
C4737 H4724 0.930 . S
C4737 C4736 1.388 . S
C4737 C4738 1.390 . S
C4738 C4737 1.390 . S
C4738 C4739 1.394 . S
C4738 C4744 1.465 . S
C4739 C4734 1.399 . S
C4739 C4738 1.394 . S
C4739 C4740 1.516 . S
C4740 C4739 1.516 . S
C4740 C4741 1.502 . S
C4740 C4742 1.561 . S
C4740 C4743 1.526 . S
C4741 H4725 0.959 . S
C4741 H4726 0.959 . S
C4741 H4727 0.961 . S
C4741 C4740 1.502 . S
C4742 H4728 0.960 . S
C4742 H4729 0.961 . S
C4742 H4730 0.959 . S
C4742 C4740 1.561 . S
C4743 C4740 1.526 . S
C4743 C4744 1.396 . S
C4743 C4748 1.390 . S
C4744 C4738 1.465 . S
C4744 C4743 1.396 . S
C4744 C4745 1.399 . S
C4745 H4731 0.929 . S
C4745 C4744 1.399 . S
C4745 C4746 1.385 . S
C4746 H4732 0.931 . S
C4746 C4745 1.385 . S
C4746 C4747 1.389 . S
C4747 C4746 1.389 . S
C4747 C4748 1.387 . S
C4748 H4733 0.930 . S
C4748 C4743 1.390 . S
C4748 C4747 1.387 . S
H4749 C4761 0.930 . S
H4750 C4763 0.930 . S
H4751 C4764 0.930 . S
H4752 C4768 0.959 . S
H4753 C4768 0.959 . S
H4754 C4768 0.961 . S
H4755 C4769 0.960 . S
H4756 C4769 0.961 . S
H4757 C4769 0.959 . S
H4758 C4772 0.929 . S
H4759 C4773 0.931 . S
H4760 C4775 0.930 . S
C4761 H4749 0.930 . S
C4761 C4762 1.399 . S
C4761 C4766 1.399 . S
C4762 C4761 1.399 . S
C4762 C4763 1.376 . S
C4763 H4750 0.930 . S
C4763 C4762 1.376 . S
C4763 C4764 1.388 . S
C4764 H4751 0.930 . S
C4764 C4763 1.388 . S
C4764 C4765 1.390 . S
C4765 C4764 1.390 . S
C4765 C4766 1.394 . S
C4765 C4771 1.465 . S
C4766 C4761 1.399 . S
C4766 C4765 1.394 . S
C4766 C4767 1.516 . S
C4767 C4766 1.516 . S
C4767 C4768 1.502 . S
C4767 C4769 1.561 . S
C4767 C4770 1.526 . S
C4768 H4752 0.959 . S
C4768 H4753 0.959 . S
C4768 H4754 0.961 . S
C4768 C4767 1.502 . S
C4769 H4755 0.960 . S
C4769 H4756 0.961 . S
C4769 H4757 0.959 . S
C4769 C4767 1.561 . S
C4770 C4767 1.526 . S
C4770 C4771 1.396 . S
C4770 C4775 1.390 . S
C4771 C4765 1.465 . S
C4771 C4770 1.396 . S
C4771 C4772 1.399 . S
C4772 H4758 0.929 . S
C4772 C4771 1.399 . S
C4772 C4773 1.385 . S
C4773 H4759 0.931 . S
C4773 C4772 1.385 . S
C4773 C4774 1.389 . S
C4774 C4773 1.389 . S
C4774 C4775 1.387 . S
C4775 H4760 0.930 . S
C4775 C4770 1.390 . S
C4775 C4774 1.387 . S
H4776 C4788 0.930 . S
H4777 C4790 0.930 . S
H4778 C4791 0.930 . S
H4779 C4795 0.959 . S
H4780 C4795 0.959 . S
H4781 C4795 0.961 . S
H4782 C4796 0.960 . S
H4783 C4796 0.961 . S
H4784 C4796 0.959 . S
H4785 C4799 0.929 . S
H4786 C4800 0.931 . S
H4787 C4802 0.930 . S
C4788 H4776 0.930 . S
C4788 C4789 1.399 . S
C4788 C4793 1.399 . S
C4789 C4788 1.399 . S
C4789 C4790 1.376 . S
C4790 H4777 0.930 . S
C4790 C4789 1.376 . S
C4790 C4791 1.388 . S
C4791 H4778 0.930 . S
C4791 C4790 1.388 . S
C4791 C4792 1.390 . S
C4792 C4791 1.390 . S
C4792 C4793 1.394 . S
C4792 C4798 1.465 . S
C4793 C4788 1.399 . S
C4793 C4792 1.394 . S
C4793 C4794 1.516 . S
C4794 C4793 1.516 . S
C4794 C4795 1.502 . S
C4794 C4796 1.561 . S
C4794 C4797 1.526 . S
C4795 H4779 0.959 . S
C4795 H4780 0.959 . S
C4795 H4781 0.961 . S
C4795 C4794 1.502 . S
C4796 H4782 0.960 . S
C4796 H4783 0.961 . S
C4796 H4784 0.959 . S
C4796 C4794 1.561 . S
C4797 C4794 1.526 . S
C4797 C4798 1.396 . S
C4797 C4802 1.390 . S
C4798 C4792 1.465 . S
C4798 C4797 1.396 . S
C4798 C4799 1.399 . S
C4799 H4785 0.929 . S
C4799 C4798 1.399 . S
C4799 C4800 1.385 . S
C4800 H4786 0.931 . S
C4800 C4799 1.385 . S
C4800 C4801 1.389 . S
C4801 C4800 1.389 . S
C4801 C4802 1.387 . S
C4802 H4787 0.930 . S
C4802 C4797 1.390 . S
C4802 C4801 1.387 . S
H4803 C4815 0.930 . S
H4804 C4817 0.930 . S
H4805 C4818 0.930 . S
H4806 C4822 0.959 . S
H4807 C4822 0.959 . S
H4808 C4822 0.961 . S
H4809 C4823 0.960 . S
H4810 C4823 0.961 . S
H4811 C4823 0.959 . S
H4812 C4826 0.929 . S
H4813 C4827 0.931 . S
H4814 C4829 0.930 . S
C4815 H4803 0.930 . S
C4815 C4816 1.399 . S
C4815 C4820 1.399 . S
C4816 C4815 1.399 . S
C4816 C4817 1.376 . S
C4817 H4804 0.930 . S
C4817 C4816 1.376 . S
C4817 C4818 1.388 . S
C4818 H4805 0.930 . S
C4818 C4817 1.388 . S
C4818 C4819 1.390 . S
C4819 C4818 1.390 . S
C4819 C4820 1.394 . S
C4819 C4825 1.465 . S
C4820 C4815 1.399 . S
C4820 C4819 1.394 . S
C4820 C4821 1.516 . S
C4821 C4820 1.516 . S
C4821 C4822 1.502 . S
C4821 C4823 1.561 . S
C4821 C4824 1.526 . S
C4822 H4806 0.959 . S
C4822 H4807 0.959 . S
C4822 H4808 0.961 . S
C4822 C4821 1.502 . S
C4823 H4809 0.960 . S
C4823 H4810 0.961 . S
C4823 H4811 0.959 . S
C4823 C4821 1.561 . S
C4824 C4821 1.526 . S
C4824 C4825 1.396 . S
C4824 C4829 1.390 . S
C4825 C4819 1.465 . S
C4825 C4824 1.396 . S
C4825 C4826 1.399 . S
C4826 H4812 0.929 . S
C4826 C4825 1.399 . S
C4826 C4827 1.385 . S
C4827 H4813 0.931 . S
C4827 C4826 1.385 . S
C4827 C4828 1.389 . S
C4828 C4827 1.389 . S
C4828 C4829 1.387 . S
C4829 H4814 0.930 . S
C4829 C4824 1.390 . S
C4829 C4828 1.387 . S
H4830 C4842 0.930 . S
H4831 C4844 0.930 . S
H4832 C4845 0.930 . S
H4833 C4849 0.959 . S
H4834 C4849 0.959 . S
H4835 C4849 0.961 . S
H4836 C4850 0.960 . S
H4837 C4850 0.961 . S
H4838 C4850 0.959 . S
H4839 C4853 0.929 . S
H4840 C4854 0.931 . S
H4841 C4856 0.930 . S
C4842 H4830 0.930 . S
C4842 C4843 1.399 . S
C4842 C4847 1.399 . S
C4843 C4842 1.399 . S
C4843 C4844 1.376 . S
C4844 H4831 0.930 . S
C4844 C4843 1.376 . S
C4844 C4845 1.388 . S
C4845 H4832 0.930 . S
C4845 C4844 1.388 . S
C4845 C4846 1.390 . S
C4846 C4845 1.390 . S
C4846 C4847 1.394 . S
C4846 C4852 1.465 . S
C4847 C4842 1.399 . S
C4847 C4846 1.394 . S
C4847 C4848 1.516 . S
C4848 C4847 1.516 . S
C4848 C4849 1.502 . S
C4848 C4850 1.561 . S
C4848 C4851 1.526 . S
C4849 H4833 0.959 . S
C4849 H4834 0.959 . S
C4849 H4835 0.961 . S
C4849 C4848 1.502 . S
C4850 H4836 0.960 . S
C4850 H4837 0.961 . S
C4850 H4838 0.959 . S
C4850 C4848 1.561 . S
C4851 C4848 1.526 . S
C4851 C4852 1.396 . S
C4851 C4856 1.390 . S
C4852 C4846 1.465 . S
C4852 C4851 1.396 . S
C4852 C4853 1.399 . S
C4853 H4839 0.929 . S
C4853 C4852 1.399 . S
C4853 C4854 1.385 . S
C4854 H4840 0.931 . S
C4854 C4853 1.385 . S
C4854 C4855 1.389 . S
C4855 C4854 1.389 . S
C4855 C4856 1.387 . S
C4856 H4841 0.930 . S
C4856 C4851 1.390 . S
C4856 C4855 1.387 . S
H4857 C4869 0.930 . S
H4858 C4871 0.930 . S
H4859 C4872 0.930 . S
H4860 C4876 0.959 . S
H4861 C4876 0.959 . S
H4862 C4876 0.961 . S
H4863 C4877 0.960 . S
H4864 C4877 0.961 . S
H4865 C4877 0.959 . S
H4866 C4880 0.929 . S
H4867 C4881 0.931 . S
H4868 C4883 0.930 . S
C4869 H4857 0.930 . S
C4869 C4870 1.399 . S
C4869 C4874 1.399 . S
C4870 C4869 1.399 . S
C4870 C4871 1.376 . S
C4871 H4858 0.930 . S
C4871 C4870 1.376 . S
C4871 C4872 1.388 . S
C4872 H4859 0.930 . S
C4872 C4871 1.388 . S
C4872 C4873 1.390 . S
C4873 C4872 1.390 . S
C4873 C4874 1.394 . S
C4873 C4879 1.465 . S
C4874 C4869 1.399 . S
C4874 C4873 1.394 . S
C4874 C4875 1.516 . S
C4875 C4874 1.516 . S
C4875 C4876 1.502 . S
C4875 C4877 1.561 . S
C4875 C4878 1.526 . S
C4876 H4860 0.959 . S
C4876 H4861 0.959 . S
C4876 H4862 0.961 . S
C4876 C4875 1.502 . S
C4877 H4863 0.960 . S
C4877 H4864 0.961 . S
C4877 H4865 0.959 . S
C4877 C4875 1.561 . S
C4878 C4875 1.526 . S
C4878 C4879 1.396 . S
C4878 C4883 1.390 . S
C4879 C4873 1.465 . S
C4879 C4878 1.396 . S
C4879 C4880 1.399 . S
C4880 H4866 0.929 . S
C4880 C4879 1.399 . S
C4880 C4881 1.385 . S
C4881 H4867 0.931 . S
C4881 C4880 1.385 . S
C4881 C4882 1.389 . S
C4882 C4881 1.389 . S
C4882 C4883 1.387 . S
C4883 H4868 0.930 . S
C4883 C4878 1.390 . S
C4883 C4882 1.387 . S
H4884 C4896 0.930 . S
H4885 C4898 0.930 . S
H4886 C4899 0.930 . S
H4887 C4903 0.959 . S
H4888 C4903 0.959 . S
H4889 C4903 0.961 . S
H4890 C4904 0.960 . S
H4891 C4904 0.961 . S
H4892 C4904 0.959 . S
H4893 C4907 0.929 . S
H4894 C4908 0.931 . S
H4895 C4910 0.930 . S
C4896 H4884 0.930 . S
C4896 C4897 1.399 . S
C4896 C4901 1.399 . S
C4897 C4896 1.399 . S
C4897 C4898 1.376 . S
C4898 H4885 0.930 . S
C4898 C4897 1.376 . S
C4898 C4899 1.388 . S
C4899 H4886 0.930 . S
C4899 C4898 1.388 . S
C4899 C4900 1.390 . S
C4900 C4899 1.390 . S
C4900 C4901 1.394 . S
C4900 C4906 1.465 . S
C4901 C4896 1.399 . S
C4901 C4900 1.394 . S
C4901 C4902 1.516 . S
C4902 C4901 1.516 . S
C4902 C4903 1.502 . S
C4902 C4904 1.561 . S
C4902 C4905 1.526 . S
C4903 H4887 0.959 . S
C4903 H4888 0.959 . S
C4903 H4889 0.961 . S
C4903 C4902 1.502 . S
C4904 H4890 0.960 . S
C4904 H4891 0.961 . S
C4904 H4892 0.959 . S
C4904 C4902 1.561 . S
C4905 C4902 1.526 . S
C4905 C4906 1.396 . S
C4905 C4910 1.390 . S
C4906 C4900 1.465 . S
C4906 C4905 1.396 . S
C4906 C4907 1.399 . S
C4907 H4893 0.929 . S
C4907 C4906 1.399 . S
C4907 C4908 1.385 . S
C4908 H4894 0.931 . S
C4908 C4907 1.385 . S
C4908 C4909 1.389 . S
C4909 C4908 1.389 . S
C4909 C4910 1.387 . S
C4910 H4895 0.930 . S
C4910 C4905 1.390 . S
C4910 C4909 1.387 . S
H4911 C4923 0.930 . S
H4912 C4925 0.930 . S
H4913 C4926 0.930 . S
H4914 C4930 0.959 . S
H4915 C4930 0.959 . S
H4916 C4930 0.961 . S
H4917 C4931 0.960 . S
H4918 C4931 0.961 . S
H4919 C4931 0.959 . S
H4920 C4934 0.929 . S
H4921 C4935 0.931 . S
H4922 C4937 0.930 . S
C4923 H4911 0.930 . S
C4923 C4924 1.399 . S
C4923 C4928 1.399 . S
C4924 C4923 1.399 . S
C4924 C4925 1.376 . S
C4925 H4912 0.930 . S
C4925 C4924 1.376 . S
C4925 C4926 1.388 . S
C4926 H4913 0.930 . S
C4926 C4925 1.388 . S
C4926 C4927 1.390 . S
C4927 C4926 1.390 . S
C4927 C4928 1.394 . S
C4927 C4933 1.465 . S
C4928 C4923 1.399 . S
C4928 C4927 1.394 . S
C4928 C4929 1.516 . S
C4929 C4928 1.516 . S
C4929 C4930 1.502 . S
C4929 C4931 1.561 . S
C4929 C4932 1.526 . S
C4930 H4914 0.959 . S
C4930 H4915 0.959 . S
C4930 H4916 0.961 . S
C4930 C4929 1.502 . S
C4931 H4917 0.960 . S
C4931 H4918 0.961 . S
C4931 H4919 0.959 . S
C4931 C4929 1.561 . S
C4932 C4929 1.526 . S
C4932 C4933 1.396 . S
C4932 C4937 1.390 . S
C4933 C4927 1.465 . S
C4933 C4932 1.396 . S
C4933 C4934 1.399 . S
C4934 H4920 0.929 . S
C4934 C4933 1.399 . S
C4934 C4935 1.385 . S
C4935 H4921 0.931 . S
C4935 C4934 1.385 . S
C4935 C4936 1.389 . S
C4936 C4935 1.389 . S
C4936 C4937 1.387 . S
C4937 H4922 0.930 . S
C4937 C4932 1.390 . S
C4937 C4936 1.387 . S
H4938 C4950 0.930 . S
H4939 C4952 0.930 . S
H4940 C4953 0.930 . S
H4941 C4957 0.959 . S
H4942 C4957 0.959 . S
H4943 C4957 0.961 . S
H4944 C4958 0.960 . S
H4945 C4958 0.961 . S
H4946 C4958 0.959 . S
H4947 C4961 0.929 . S
H4948 C4962 0.931 . S
H4949 C4964 0.930 . S
C4950 H4938 0.930 . S
C4950 C4951 1.399 . S
C4950 C4955 1.399 . S
C4951 C4950 1.399 . S
C4951 C4952 1.376 . S
C4952 H4939 0.930 . S
C4952 C4951 1.376 . S
C4952 C4953 1.388 . S
C4953 H4940 0.930 . S
C4953 C4952 1.388 . S
C4953 C4954 1.390 . S
C4954 C4953 1.390 . S
C4954 C4955 1.394 . S
C4954 C4960 1.465 . S
C4955 C4950 1.399 . S
C4955 C4954 1.394 . S
C4955 C4956 1.516 . S
C4956 C4955 1.516 . S
C4956 C4957 1.502 . S
C4956 C4958 1.561 . S
C4956 C4959 1.526 . S
C4957 H4941 0.959 . S
C4957 H4942 0.959 . S
C4957 H4943 0.961 . S
C4957 C4956 1.502 . S
C4958 H4944 0.960 . S
C4958 H4945 0.961 . S
C4958 H4946 0.959 . S
C4958 C4956 1.561 . S
C4959 C4956 1.526 . S
C4959 C4960 1.396 . S
C4959 C4964 1.390 . S
C4960 C4954 1.465 . S
C4960 C4959 1.396 . S
C4960 C4961 1.399 . S
C4961 H4947 0.929 . S
C4961 C4960 1.399 . S
C4961 C4962 1.385 . S
C4962 H4948 0.931 . S
C4962 C4961 1.385 . S
C4962 C4963 1.389 . S
C4963 C4962 1.389 . S
C4963 C4964 1.387 . S
C4964 H4949 0.930 . S
C4964 C4959 1.390 . S
C4964 C4963 1.387 . S
H4965 C4977 0.930 . S
H4966 C4979 0.930 . S
H4967 C4980 0.930 . S
H4968 C4984 0.959 . S
H4969 C4984 0.959 . S
H4970 C4984 0.961 . S
H4971 C4985 0.960 . S
H4972 C4985 0.961 . S
H4973 C4985 0.959 . S
H4974 C4988 0.929 . S
H4975 C4989 0.931 . S
H4976 C4991 0.930 . S
C4977 H4965 0.930 . S
C4977 C4978 1.399 . S
C4977 C4982 1.399 . S
C4978 C4977 1.399 . S
C4978 C4979 1.376 . S
C4979 H4966 0.930 . S
C4979 C4978 1.376 . S
C4979 C4980 1.388 . S
C4980 H4967 0.930 . S
C4980 C4979 1.388 . S
C4980 C4981 1.390 . S
C4981 C4980 1.390 . S
C4981 C4982 1.394 . S
C4981 C4987 1.465 . S
C4982 C4977 1.399 . S
C4982 C4981 1.394 . S
C4982 C4983 1.516 . S
C4983 C4982 1.516 . S
C4983 C4984 1.502 . S
C4983 C4985 1.561 . S
C4983 C4986 1.526 . S
C4984 H4968 0.959 . S
C4984 H4969 0.959 . S
C4984 H4970 0.961 . S
C4984 C4983 1.502 . S
C4985 H4971 0.960 . S
C4985 H4972 0.961 . S
C4985 H4973 0.959 . S
C4985 C4983 1.561 . S
C4986 C4983 1.526 . S
C4986 C4987 1.396 . S
C4986 C4991 1.390 . S
C4987 C4981 1.465 . S
C4987 C4986 1.396 . S
C4987 C4988 1.399 . S
C4988 H4974 0.929 . S
C4988 C4987 1.399 . S
C4988 C4989 1.385 . S
C4989 H4975 0.931 . S
C4989 C4988 1.385 . S
C4989 C4990 1.389 . S
C4990 C4989 1.389 . S
C4990 C4991 1.387 . S
C4991 H4976 0.930 . S
C4991 C4986 1.390 . S
C4991 C4990 1.387 . S
H4992 C5004 0.930 . S
H4993 C5006 0.930 . S
H4994 C5007 0.930 . S
H4995 C5011 0.959 . S
H4996 C5011 0.959 . S
H4997 C5011 0.961 . S
H4998 C5012 0.960 . S
H4999 C5012 0.961 . S
H5000 C5012 0.959 . S
H5001 C5015 0.929 . S
H5002 C5016 0.931 . S
H5003 C5018 0.930 . S
C5004 H4992 0.930 . S
C5004 C5005 1.399 . S
C5004 C5009 1.399 . S
C5005 C5004 1.399 . S
C5005 C5006 1.376 . S
C5006 H4993 0.930 . S
C5006 C5005 1.376 . S
C5006 C5007 1.388 . S
C5007 H4994 0.930 . S
C5007 C5006 1.388 . S
C5007 C5008 1.390 . S
C5008 C5007 1.390 . S
C5008 C5009 1.394 . S
C5008 C5014 1.465 . S
C5009 C5004 1.399 . S
C5009 C5008 1.394 . S
C5009 C5010 1.516 . S
C5010 C5009 1.516 . S
C5010 C5011 1.502 . S
C5010 C5012 1.561 . S
C5010 C5013 1.526 . S
C5011 H4995 0.959 . S
C5011 H4996 0.959 . S
C5011 H4997 0.961 . S
C5011 C5010 1.502 . S
C5012 H4998 0.960 . S
C5012 H4999 0.961 . S
C5012 H5000 0.959 . S
C5012 C5010 1.561 . S
C5013 C5010 1.526 . S
C5013 C5014 1.396 . S
C5013 C5018 1.390 . S
C5014 C5008 1.465 . S
C5014 C5013 1.396 . S
C5014 C5015 1.399 . S
C5015 H5001 0.929 . S
C5015 C5014 1.399 . S
C5015 C5016 1.385 . S
C5016 H5002 0.931 . S
C5016 C5015 1.385 . S
C5016 C5017 1.389 . S
C5017 C5016 1.389 . S
C5017 C5018 1.387 . S
C5018 H5003 0.930 . S
C5018 C5013 1.390 . S
C5018 C5017 1.387 . S
H5019 C5031 0.930 . S
H5020 C5033 0.930 . S
H5021 C5034 0.930 . S
H5022 C5038 0.959 . S
H5023 C5038 0.959 . S
H5024 C5038 0.961 . S
H5025 C5039 0.960 . S
H5026 C5039 0.961 . S
H5027 C5039 0.959 . S
H5028 C5042 0.929 . S
H5029 C5043 0.931 . S
H5030 C5045 0.930 . S
C5031 H5019 0.930 . S
C5031 C5032 1.399 . S
C5031 C5036 1.399 . S
C5032 C5031 1.399 . S
C5032 C5033 1.376 . S
C5033 H5020 0.930 . S
C5033 C5032 1.376 . S
C5033 C5034 1.388 . S
C5034 H5021 0.930 . S
C5034 C5033 1.388 . S
C5034 C5035 1.390 . S
C5035 C5034 1.390 . S
C5035 C5036 1.394 . S
C5035 C5041 1.465 . S
C5036 C5031 1.399 . S
C5036 C5035 1.394 . S
C5036 C5037 1.516 . S
C5037 C5036 1.516 . S
C5037 C5038 1.502 . S
C5037 C5039 1.561 . S
C5037 C5040 1.526 . S
C5038 H5022 0.959 . S
C5038 H5023 0.959 . S
C5038 H5024 0.961 . S
C5038 C5037 1.502 . S
C5039 H5025 0.960 . S
C5039 H5026 0.961 . S
C5039 H5027 0.959 . S
C5039 C5037 1.561 . S
C5040 C5037 1.526 . S
C5040 C5041 1.396 . S
C5040 C5045 1.390 . S
C5041 C5035 1.465 . S
C5041 C5040 1.396 . S
C5041 C5042 1.399 . S
C5042 H5028 0.929 . S
C5042 C5041 1.399 . S
C5042 C5043 1.385 . S
C5043 H5029 0.931 . S
C5043 C5042 1.385 . S
C5043 C5044 1.389 . S
C5044 C5043 1.389 . S
C5044 C5045 1.387 . S
C5045 H5030 0.930 . S
C5045 C5040 1.390 . S
C5045 C5044 1.387 . S
H5046 C5058 0.930 . S
H5047 C5060 0.930 . S
H5048 C5061 0.930 . S
H5049 C5065 0.959 . S
H5050 C5065 0.959 . S
H5051 C5065 0.961 . S
H5052 C5066 0.960 . S
H5053 C5066 0.961 . S
H5054 C5066 0.959 . S
H5055 C5069 0.929 . S
H5056 C5070 0.931 . S
H5057 C5072 0.930 . S
C5058 H5046 0.930 . S
C5058 C5059 1.399 . S
C5058 C5063 1.399 . S
C5059 C5058 1.399 . S
C5059 C5060 1.376 . S
C5060 H5047 0.930 . S
C5060 C5059 1.376 . S
C5060 C5061 1.388 . S
C5061 H5048 0.930 . S
C5061 C5060 1.388 . S
C5061 C5062 1.390 . S
C5062 C5061 1.390 . S
C5062 C5063 1.394 . S
C5062 C5068 1.465 . S
C5063 C5058 1.399 . S
C5063 C5062 1.394 . S
C5063 C5064 1.516 . S
C5064 C5063 1.516 . S
C5064 C5065 1.502 . S
C5064 C5066 1.561 . S
C5064 C5067 1.526 . S
C5065 H5049 0.959 . S
C5065 H5050 0.959 . S
C5065 H5051 0.961 . S
C5065 C5064 1.502 . S
C5066 H5052 0.960 . S
C5066 H5053 0.961 . S
C5066 H5054 0.959 . S
C5066 C5064 1.561 . S
C5067 C5064 1.526 . S
C5067 C5068 1.396 . S
C5067 C5072 1.390 . S
C5068 C5062 1.465 . S
C5068 C5067 1.396 . S
C5068 C5069 1.399 . S
C5069 H5055 0.929 . S
C5069 C5068 1.399 . S
C5069 C5070 1.385 . S
C5070 H5056 0.931 . S
C5070 C5069 1.385 . S
C5070 C5071 1.389 . S
C5071 C5070 1.389 . S
C5071 C5072 1.387 . S
C5072 H5057 0.930 . S
C5072 C5067 1.390 . S
C5072 C5071 1.387 . S
H5073 C5085 0.930 . S
H5074 C5087 0.930 . S
H5075 C5088 0.930 . S
H5076 C5092 0.959 . S
H5077 C5092 0.959 . S
H5078 C5092 0.961 . S
H5079 C5093 0.960 . S
H5080 C5093 0.961 . S
H5081 C5093 0.959 . S
H5082 C5096 0.929 . S
H5083 C5097 0.931 . S
H5084 C5099 0.930 . S
C5085 H5073 0.930 . S
C5085 C5086 1.399 . S
C5085 C5090 1.399 . S
C5086 C5085 1.399 . S
C5086 C5087 1.376 . S
C5087 H5074 0.930 . S
C5087 C5086 1.376 . S
C5087 C5088 1.388 . S
C5088 H5075 0.930 . S
C5088 C5087 1.388 . S
C5088 C5089 1.390 . S
C5089 C5088 1.390 . S
C5089 C5090 1.394 . S
C5089 C5095 1.465 . S
C5090 C5085 1.399 . S
C5090 C5089 1.394 . S
C5090 C5091 1.516 . S
C5091 C5090 1.516 . S
C5091 C5092 1.502 . S
C5091 C5093 1.561 . S
C5091 C5094 1.526 . S
C5092 H5076 0.959 . S
C5092 H5077 0.959 . S
C5092 H5078 0.961 . S
C5092 C5091 1.502 . S
C5093 H5079 0.960 . S
C5093 H5080 0.961 . S
C5093 H5081 0.959 . S
C5093 C5091 1.561 . S
C5094 C5091 1.526 . S
C5094 C5095 1.396 . S
C5094 C5099 1.390 . S
C5095 C5089 1.465 . S
C5095 C5094 1.396 . S
C5095 C5096 1.399 . S
C5096 H5082 0.929 . S
C5096 C5095 1.399 . S
C5096 C5097 1.385 . S
C5097 H5083 0.931 . S
C5097 C5096 1.385 . S
C5097 C5098 1.389 . S
C5098 C5097 1.389 . S
C5098 C5099 1.387 . S
C5099 H5084 0.930 . S
C5099 C5094 1.390 . S
C5099 C5098 1.387 . S
H5100 C5112 0.930 . S
H5101 C5114 0.930 . S
H5102 C5115 0.930 . S
H5103 C5119 0.959 . S
H5104 C5119 0.959 . S
H5105 C5119 0.961 . S
H5106 C5120 0.960 . S
H5107 C5120 0.961 . S
H5108 C5120 0.959 . S
H5109 C5123 0.929 . S
H5110 C5124 0.931 . S
H5111 C5126 0.930 . S
C5112 H5100 0.930 . S
C5112 C5113 1.399 . S
C5112 C5117 1.399 . S
C5113 C5112 1.399 . S
C5113 C5114 1.376 . S
C5114 H5101 0.930 . S
C5114 C5113 1.376 . S
C5114 C5115 1.388 . S
C5115 H5102 0.930 . S
C5115 C5114 1.388 . S
C5115 C5116 1.390 . S
C5116 C5115 1.390 . S
C5116 C5117 1.394 . S
C5116 C5122 1.465 . S
C5117 C5112 1.399 . S
C5117 C5116 1.394 . S
C5117 C5118 1.516 . S
C5118 C5117 1.516 . S
C5118 C5119 1.502 . S
C5118 C5120 1.561 . S
C5118 C5121 1.526 . S
C5119 H5103 0.959 . S
C5119 H5104 0.959 . S
C5119 H5105 0.961 . S
C5119 C5118 1.502 . S
C5120 H5106 0.960 . S
C5120 H5107 0.961 . S
C5120 H5108 0.959 . S
C5120 C5118 1.561 . S
C5121 C5118 1.526 . S
C5121 C5122 1.396 . S
C5121 C5126 1.390 . S
C5122 C5116 1.465 . S
C5122 C5121 1.396 . S
C5122 C5123 1.399 . S
C5123 H5109 0.929 . S
C5123 C5122 1.399 . S
C5123 C5124 1.385 . S
C5124 H5110 0.931 . S
C5124 C5123 1.385 . S
C5124 C5125 1.389 . S
C5125 C5124 1.389 . S
C5125 C5126 1.387 . S
C5126 H5111 0.930 . S
C5126 C5121 1.390 . S
C5126 C5125 1.387 . S
H5127 C5139 0.930 . S
H5128 C5141 0.930 . S
H5129 C5142 0.930 . S
H5130 C5146 0.959 . S
H5131 C5146 0.959 . S
H5132 C5146 0.961 . S
H5133 C5147 0.960 . S
H5134 C5147 0.961 . S
H5135 C5147 0.959 . S
H5136 C5150 0.929 . S
H5137 C5151 0.931 . S
H5138 C5153 0.930 . S
C5139 H5127 0.930 . S
C5139 C5140 1.399 . S
C5139 C5144 1.399 . S
C5140 C5139 1.399 . S
C5140 C5141 1.376 . S
C5141 H5128 0.930 . S
C5141 C5140 1.376 . S
C5141 C5142 1.388 . S
C5142 H5129 0.930 . S
C5142 C5141 1.388 . S
C5142 C5143 1.390 . S
C5143 C5142 1.390 . S
C5143 C5144 1.394 . S
C5143 C5149 1.465 . S
C5144 C5139 1.399 . S
C5144 C5143 1.394 . S
C5144 C5145 1.516 . S
C5145 C5144 1.516 . S
C5145 C5146 1.502 . S
C5145 C5147 1.561 . S
C5145 C5148 1.526 . S
C5146 H5130 0.959 . S
C5146 H5131 0.959 . S
C5146 H5132 0.961 . S
C5146 C5145 1.502 . S
C5147 H5133 0.960 . S
C5147 H5134 0.961 . S
C5147 H5135 0.959 . S
C5147 C5145 1.561 . S
C5148 C5145 1.526 . S
C5148 C5149 1.396 . S
C5148 C5153 1.390 . S
C5149 C5143 1.465 . S
C5149 C5148 1.396 . S
C5149 C5150 1.399 . S
C5150 H5136 0.929 . S
C5150 C5149 1.399 . S
C5150 C5151 1.385 . S
C5151 H5137 0.931 . S
C5151 C5150 1.385 . S
C5151 C5152 1.389 . S
C5152 C5151 1.389 . S
C5152 C5153 1.387 . S
C5153 H5138 0.930 . S
C5153 C5148 1.390 . S
C5153 C5152 1.387 . S
H5154 C5166 0.930 . S
H5155 C5168 0.930 . S
H5156 C5169 0.930 . S
H5157 C5173 0.959 . S
H5158 C5173 0.959 . S
H5159 C5173 0.961 . S
H5160 C5174 0.960 . S
H5161 C5174 0.961 . S
H5162 C5174 0.959 . S
H5163 C5177 0.929 . S
H5164 C5178 0.931 . S
H5165 C5180 0.930 . S
C5166 H5154 0.930 . S
C5166 C5167 1.399 . S
C5166 C5171 1.399 . S
C5167 C5166 1.399 . S
C5167 C5168 1.376 . S
C5168 H5155 0.930 . S
C5168 C5167 1.376 . S
C5168 C5169 1.388 . S
C5169 H5156 0.930 . S
C5169 C5168 1.388 . S
C5169 C5170 1.390 . S
C5170 C5169 1.390 . S
C5170 C5171 1.394 . S
C5170 C5176 1.465 . S
C5171 C5166 1.399 . S
C5171 C5170 1.394 . S
C5171 C5172 1.516 . S
C5172 C5171 1.516 . S
C5172 C5173 1.502 . S
C5172 C5174 1.561 . S
C5172 C5175 1.526 . S
C5173 H5157 0.959 . S
C5173 H5158 0.959 . S
C5173 H5159 0.961 . S
C5173 C5172 1.502 . S
C5174 H5160 0.960 . S
C5174 H5161 0.961 . S
C5174 H5162 0.959 . S
C5174 C5172 1.561 . S
C5175 C5172 1.526 . S
C5175 C5176 1.396 . S
C5175 C5180 1.390 . S
C5176 C5170 1.465 . S
C5176 C5175 1.396 . S
C5176 C5177 1.399 . S
C5177 H5163 0.929 . S
C5177 C5176 1.399 . S
C5177 C5178 1.385 . S
C5178 H5164 0.931 . S
C5178 C5177 1.385 . S
C5178 C5179 1.389 . S
C5179 C5178 1.389 . S
C5179 C5180 1.387 . S
C5180 H5165 0.930 . S
C5180 C5175 1.390 . S
C5180 C5179 1.387 . S
H5181 C5193 0.930 . S
H5182 C5195 0.930 . S
H5183 C5196 0.930 . S
H5184 C5200 0.959 . S
H5185 C5200 0.959 . S
H5186 C5200 0.961 . S
H5187 C5201 0.960 . S
H5188 C5201 0.961 . S
H5189 C5201 0.959 . S
H5190 C5204 0.929 . S
H5191 C5205 0.931 . S
H5192 C5207 0.930 . S
C5193 H5181 0.930 . S
C5193 C5194 1.399 . S
C5193 C5198 1.399 . S
C5194 C5193 1.399 . S
C5194 C5195 1.376 . S
C5195 H5182 0.930 . S
C5195 C5194 1.376 . S
C5195 C5196 1.388 . S
C5196 H5183 0.930 . S
C5196 C5195 1.388 . S
C5196 C5197 1.390 . S
C5197 C5196 1.390 . S
C5197 C5198 1.394 . S
C5197 C5203 1.465 . S
C5198 C5193 1.399 . S
C5198 C5197 1.394 . S
C5198 C5199 1.516 . S
C5199 C5198 1.516 . S
C5199 C5200 1.502 . S
C5199 C5201 1.561 . S
C5199 C5202 1.526 . S
C5200 H5184 0.959 . S
C5200 H5185 0.959 . S
C5200 H5186 0.961 . S
C5200 C5199 1.502 . S
C5201 H5187 0.960 . S
C5201 H5188 0.961 . S
C5201 H5189 0.959 . S
C5201 C5199 1.561 . S
C5202 C5199 1.526 . S
C5202 C5203 1.396 . S
C5202 C5207 1.390 . S
C5203 C5197 1.465 . S
C5203 C5202 1.396 . S
C5203 C5204 1.399 . S
C5204 H5190 0.929 . S
C5204 C5203 1.399 . S
C5204 C5205 1.385 . S
C5205 H5191 0.931 . S
C5205 C5204 1.385 . S
C5205 C5206 1.389 . S
C5206 C5205 1.389 . S
C5206 C5207 1.387 . S
C5207 H5192 0.930 . S
C5207 C5202 1.390 . S
C5207 C5206 1.387 . S
H5208 C5220 0.930 . S
H5209 C5222 0.930 . S
H5210 C5223 0.930 . S
H5211 C5227 0.959 . S
H5212 C5227 0.959 . S
H5213 C5227 0.961 . S
H5214 C5228 0.960 . S
H5215 C5228 0.961 . S
H5216 C5228 0.959 . S
H5217 C5231 0.929 . S
H5218 C5232 0.931 . S
H5219 C5234 0.930 . S
C5220 H5208 0.930 . S
C5220 C5221 1.399 . S
C5220 C5225 1.399 . S
C5221 C5220 1.399 . S
C5221 C5222 1.376 . S
C5222 H5209 0.930 . S
C5222 C5221 1.376 . S
C5222 C5223 1.388 . S
C5223 H5210 0.930 . S
C5223 C5222 1.388 . S
C5223 C5224 1.390 . S
C5224 C5223 1.390 . S
C5224 C5225 1.394 . S
C5224 C5230 1.465 . S
C5225 C5220 1.399 . S
C5225 C5224 1.394 . S
C5225 C5226 1.516 . S
C5226 C5225 1.516 . S
C5226 C5227 1.502 . S
C5226 C5228 1.561 . S
C5226 C5229 1.526 . S
C5227 H5211 0.959 . S
C5227 H5212 0.959 . S
C5227 H5213 0.961 . S
C5227 C5226 1.502 . S
C5228 H5214 0.960 . S
C5228 H5215 0.961 . S
C5228 H5216 0.959 . S
C5228 C5226 1.561 . S
C5229 C5226 1.526 . S
C5229 C5230 1.396 . S
C5229 C5234 1.390 . S
C5230 C5224 1.465 . S
C5230 C5229 1.396 . S
C5230 C5231 1.399 . S
C5231 H5217 0.929 . S
C5231 C5230 1.399 . S
C5231 C5232 1.385 . S
C5232 H5218 0.931 . S
C5232 C5231 1.385 . S
C5232 C5233 1.389 . S
C5233 C5232 1.389 . S
C5233 C5234 1.387 . S
C5234 H5219 0.930 . S
C5234 C5229 1.390 . S
C5234 C5233 1.387 . S
H5235 C5247 0.930 . S
H5236 C5249 0.930 . S
H5237 C5250 0.930 . S
H5238 C5254 0.959 . S
H5239 C5254 0.959 . S
H5240 C5254 0.961 . S
H5241 C5255 0.960 . S
H5242 C5255 0.961 . S
H5243 C5255 0.959 . S
H5244 C5258 0.929 . S
H5245 C5259 0.931 . S
H5246 C5261 0.930 . S
C5247 H5235 0.930 . S
C5247 C5248 1.399 . S
C5247 C5252 1.399 . S
C5248 C5247 1.399 . S
C5248 C5249 1.376 . S
C5249 H5236 0.930 . S
C5249 C5248 1.376 . S
C5249 C5250 1.388 . S
C5250 H5237 0.930 . S
C5250 C5249 1.388 . S
C5250 C5251 1.390 . S
C5251 C5250 1.390 . S
C5251 C5252 1.394 . S
C5251 C5257 1.465 . S
C5252 C5247 1.399 . S
C5252 C5251 1.394 . S
C5252 C5253 1.516 . S
C5253 C5252 1.516 . S
C5253 C5254 1.502 . S
C5253 C5255 1.561 . S
C5253 C5256 1.526 . S
C5254 H5238 0.959 . S
C5254 H5239 0.959 . S
C5254 H5240 0.961 . S
C5254 C5253 1.502 . S
C5255 H5241 0.960 . S
C5255 H5242 0.961 . S
C5255 H5243 0.959 . S
C5255 C5253 1.561 . S
C5256 C5253 1.526 . S
C5256 C5257 1.396 . S
C5256 C5261 1.390 . S
C5257 C5251 1.465 . S
C5257 C5256 1.396 . S
C5257 C5258 1.399 . S
C5258 H5244 0.929 . S
C5258 C5257 1.399 . S
C5258 C5259 1.385 . S
C5259 H5245 0.931 . S
C5259 C5258 1.385 . S
C5259 C5260 1.389 . S
C5260 C5259 1.389 . S
C5260 C5261 1.387 . S
C5261 H5246 0.930 . S
C5261 C5256 1.390 . S
C5261 C5260 1.387 . S
H5262 C5274 0.930 . S
H5263 C5276 0.930 . S
H5264 C5277 0.930 . S
H5265 C5281 0.959 . S
H5266 C5281 0.959 . S
H5267 C5281 0.961 . S
H5268 C5282 0.960 . S
H5269 C5282 0.961 . S
H5270 C5282 0.959 . S
H5271 C5285 0.929 . S
H5272 C5286 0.931 . S
H5273 C5288 0.930 . S
C5274 H5262 0.930 . S
C5274 C5275 1.399 . S
C5274 C5279 1.399 . S
C5275 C5274 1.399 . S
C5275 C5276 1.376 . S
C5276 H5263 0.930 . S
C5276 C5275 1.376 . S
C5276 C5277 1.388 . S
C5277 H5264 0.930 . S
C5277 C5276 1.388 . S
C5277 C5278 1.390 . S
C5278 C5277 1.390 . S
C5278 C5279 1.394 . S
C5278 C5284 1.465 . S
C5279 C5274 1.399 . S
C5279 C5278 1.394 . S
C5279 C5280 1.516 . S
C5280 C5279 1.516 . S
C5280 C5281 1.502 . S
C5280 C5282 1.561 . S
C5280 C5283 1.526 . S
C5281 H5265 0.959 . S
C5281 H5266 0.959 . S
C5281 H5267 0.961 . S
C5281 C5280 1.502 . S
C5282 H5268 0.960 . S
C5282 H5269 0.961 . S
C5282 H5270 0.959 . S
C5282 C5280 1.561 . S
C5283 C5280 1.526 . S
C5283 C5284 1.396 . S
C5283 C5288 1.390 . S
C5284 C5278 1.465 . S
C5284 C5283 1.396 . S
C5284 C5285 1.399 . S
C5285 H5271 0.929 . S
C5285 C5284 1.399 . S
C5285 C5286 1.385 . S
C5286 H5272 0.931 . S
C5286 C5285 1.385 . S
C5286 C5287 1.389 . S
C5287 C5286 1.389 . S
C5287 C5288 1.387 . S
C5288 H5273 0.930 . S
C5288 C5283 1.390 . S
C5288 C5287 1.387 . S
H5289 C5301 0.930 . S
H5290 C5303 0.930 . S
H5291 C5304 0.930 . S
H5292 C5308 0.959 . S
H5293 C5308 0.959 . S
H5294 C5308 0.961 . S
H5295 C5309 0.960 . S
H5296 C5309 0.961 . S
H5297 C5309 0.959 . S
H5298 C5312 0.929 . S
H5299 C5313 0.931 . S
H5300 C5315 0.930 . S
C5301 H5289 0.930 . S
C5301 C5302 1.399 . S
C5301 C5306 1.399 . S
C5302 C5301 1.399 . S
C5302 C5303 1.376 . S
C5303 H5290 0.930 . S
C5303 C5302 1.376 . S
C5303 C5304 1.388 . S
C5304 H5291 0.930 . S
C5304 C5303 1.388 . S
C5304 C5305 1.390 . S
C5305 C5304 1.390 . S
C5305 C5306 1.394 . S
C5305 C5311 1.465 . S
C5306 C5301 1.399 . S
C5306 C5305 1.394 . S
C5306 C5307 1.516 . S
C5307 C5306 1.516 . S
C5307 C5308 1.502 . S
C5307 C5309 1.561 . S
C5307 C5310 1.526 . S
C5308 H5292 0.959 . S
C5308 H5293 0.959 . S
C5308 H5294 0.961 . S
C5308 C5307 1.502 . S
C5309 H5295 0.960 . S
C5309 H5296 0.961 . S
C5309 H5297 0.959 . S
C5309 C5307 1.561 . S
C5310 C5307 1.526 . S
C5310 C5311 1.396 . S
C5310 C5315 1.390 . S
C5311 C5305 1.465 . S
C5311 C5310 1.396 . S
C5311 C5312 1.399 . S
C5312 H5298 0.929 . S
C5312 C5311 1.399 . S
C5312 C5313 1.385 . S
C5313 H5299 0.931 . S
C5313 C5312 1.385 . S
C5313 C5314 1.389 . S
C5314 C5313 1.389 . S
C5314 C5315 1.387 . S
C5315 H5300 0.930 . S
C5315 C5310 1.390 . S
C5315 C5314 1.387 . S
H5316 C5328 0.930 . S
H5317 C5330 0.930 . S
H5318 C5331 0.930 . S
H5319 C5335 0.959 . S
H5320 C5335 0.959 . S
H5321 C5335 0.961 . S
H5322 C5336 0.960 . S
H5323 C5336 0.961 . S
H5324 C5336 0.959 . S
H5325 C5339 0.929 . S
H5326 C5340 0.931 . S
H5327 C5342 0.930 . S
C5328 H5316 0.930 . S
C5328 C5329 1.399 . S
C5328 C5333 1.399 . S
C5329 C5328 1.399 . S
C5329 C5330 1.376 . S
C5330 H5317 0.930 . S
C5330 C5329 1.376 . S
C5330 C5331 1.388 . S
C5331 H5318 0.930 . S
C5331 C5330 1.388 . S
C5331 C5332 1.390 . S
C5332 C5331 1.390 . S
C5332 C5333 1.394 . S
C5332 C5338 1.465 . S
C5333 C5328 1.399 . S
C5333 C5332 1.394 . S
C5333 C5334 1.516 . S
C5334 C5333 1.516 . S
C5334 C5335 1.502 . S
C5334 C5336 1.561 . S
C5334 C5337 1.526 . S
C5335 H5319 0.959 . S
C5335 H5320 0.959 . S
C5335 H5321 0.961 . S
C5335 C5334 1.502 . S
C5336 H5322 0.960 . S
C5336 H5323 0.961 . S
C5336 H5324 0.959 . S
C5336 C5334 1.561 . S
C5337 C5334 1.526 . S
C5337 C5338 1.396 . S
C5337 C5342 1.390 . S
C5338 C5332 1.465 . S
C5338 C5337 1.396 . S
C5338 C5339 1.399 . S
C5339 H5325 0.929 . S
C5339 C5338 1.399 . S
C5339 C5340 1.385 . S
C5340 H5326 0.931 . S
C5340 C5339 1.385 . S
C5340 C5341 1.389 . S
C5341 C5340 1.389 . S
C5341 C5342 1.387 . S
C5342 H5327 0.930 . S
C5342 C5337 1.390 . S
C5342 C5341 1.387 . S
H5343 C5355 0.930 . S
H5344 C5357 0.930 . S
H5345 C5358 0.930 . S
H5346 C5362 0.959 . S
H5347 C5362 0.959 . S
H5348 C5362 0.961 . S
H5349 C5363 0.960 . S
H5350 C5363 0.961 . S
H5351 C5363 0.959 . S
H5352 C5366 0.929 . S
H5353 C5367 0.931 . S
H5354 C5369 0.930 . S
C5355 H5343 0.930 . S
C5355 C5356 1.399 . S
C5355 C5360 1.399 . S
C5356 C5355 1.399 . S
C5356 C5357 1.376 . S
C5357 H5344 0.930 . S
C5357 C5356 1.376 . S
C5357 C5358 1.388 . S
C5358 H5345 0.930 . S
C5358 C5357 1.388 . S
C5358 C5359 1.390 . S
C5359 C5358 1.390 . S
C5359 C5360 1.394 . S
C5359 C5365 1.465 . S
C5360 C5355 1.399 . S
C5360 C5359 1.394 . S
C5360 C5361 1.516 . S
C5361 C5360 1.516 . S
C5361 C5362 1.502 . S
C5361 C5363 1.561 . S
C5361 C5364 1.526 . S
C5362 H5346 0.959 . S
C5362 H5347 0.959 . S
C5362 H5348 0.961 . S
C5362 C5361 1.502 . S
C5363 H5349 0.960 . S
C5363 H5350 0.961 . S
C5363 H5351 0.959 . S
C5363 C5361 1.561 . S
C5364 C5361 1.526 . S
C5364 C5365 1.396 . S
C5364 C5369 1.390 . S
C5365 C5359 1.465 . S
C5365 C5364 1.396 . S
C5365 C5366 1.399 . S
C5366 H5352 0.929 . S
C5366 C5365 1.399 . S
C5366 C5367 1.385 . S
C5367 H5353 0.931 . S
C5367 C5366 1.385 . S
C5367 C5368 1.389 . S
C5368 C5367 1.389 . S
C5368 C5369 1.387 . S
C5369 H5354 0.930 . S
C5369 C5364 1.390 . S
C5369 C5368 1.387 . S
H5370 C5382 0.930 . S
H5371 C5384 0.930 . S
H5372 C5385 0.930 . S
H5373 C5389 0.959 . S
H5374 C5389 0.959 . S
H5375 C5389 0.961 . S
H5376 C5390 0.960 . S
H5377 C5390 0.961 . S
H5378 C5390 0.959 . S
H5379 C5393 0.929 . S
H5380 C5394 0.931 . S
H5381 C5396 0.930 . S
C5382 H5370 0.930 . S
C5382 C5383 1.399 . S
C5382 C5387 1.399 . S
C5383 C5382 1.399 . S
C5383 C5384 1.376 . S
C5384 H5371 0.930 . S
C5384 C5383 1.376 . S
C5384 C5385 1.388 . S
C5385 H5372 0.930 . S
C5385 C5384 1.388 . S
C5385 C5386 1.390 . S
C5386 C5385 1.390 . S
C5386 C5387 1.394 . S
C5386 C5392 1.465 . S
C5387 C5382 1.399 . S
C5387 C5386 1.394 . S
C5387 C5388 1.516 . S
C5388 C5387 1.516 . S
C5388 C5389 1.502 . S
C5388 C5390 1.561 . S
C5388 C5391 1.526 . S
C5389 H5373 0.959 . S
C5389 H5374 0.959 . S
C5389 H5375 0.961 . S
C5389 C5388 1.502 . S
C5390 H5376 0.960 . S
C5390 H5377 0.961 . S
C5390 H5378 0.959 . S
C5390 C5388 1.561 . S
C5391 C5388 1.526 . S
C5391 C5392 1.396 . S
C5391 C5396 1.390 . S
C5392 C5386 1.465 . S
C5392 C5391 1.396 . S
C5392 C5393 1.399 . S
C5393 H5379 0.929 . S
C5393 C5392 1.399 . S
C5393 C5394 1.385 . S
C5394 H5380 0.931 . S
C5394 C5393 1.385 . S
C5394 C5395 1.389 . S
C5395 C5394 1.389 . S
C5395 C5396 1.387 . S
C5396 H5381 0.930 . S
C5396 C5391 1.390 . S
C5396 C5395 1.387 . S
H5397 C5409 0.930 . S
H5398 C5411 0.930 . S
H5399 C5412 0.930 . S
H5400 C5416 0.959 . S
H5401 C5416 0.959 . S
H5402 C5416 0.961 . S
H5403 C5417 0.960 . S
H5404 C5417 0.961 . S
H5405 C5417 0.959 . S
H5406 C5420 0.929 . S
H5407 C5421 0.931 . S
H5408 C5423 0.930 . S
C5409 H5397 0.930 . S
C5409 C5410 1.399 . S
C5409 C5414 1.399 . S
C5410 C5409 1.399 . S
C5410 C5411 1.376 . S
C5411 H5398 0.930 . S
C5411 C5410 1.376 . S
C5411 C5412 1.388 . S
C5412 H5399 0.930 . S
C5412 C5411 1.388 . S
C5412 C5413 1.390 . S
C5413 C5412 1.390 . S
C5413 C5414 1.394 . S
C5413 C5419 1.465 . S
C5414 C5409 1.399 . S
C5414 C5413 1.394 . S
C5414 C5415 1.516 . S
C5415 C5414 1.516 . S
C5415 C5416 1.502 . S
C5415 C5417 1.561 . S
C5415 C5418 1.526 . S
C5416 H5400 0.959 . S
C5416 H5401 0.959 . S
C5416 H5402 0.961 . S
C5416 C5415 1.502 . S
C5417 H5403 0.960 . S
C5417 H5404 0.961 . S
C5417 H5405 0.959 . S
C5417 C5415 1.561 . S
C5418 C5415 1.526 . S
C5418 C5419 1.396 . S
C5418 C5423 1.390 . S
C5419 C5413 1.465 . S
C5419 C5418 1.396 . S
C5419 C5420 1.399 . S
C5420 H5406 0.929 . S
C5420 C5419 1.399 . S
C5420 C5421 1.385 . S
C5421 H5407 0.931 . S
C5421 C5420 1.385 . S
C5421 C5422 1.389 . S
C5422 C5421 1.389 . S
C5422 C5423 1.387 . S
C5423 H5408 0.930 . S
C5423 C5418 1.390 . S
C5423 C5422 1.387 . S
C2845 C1183 1.675 . S
C2857 C5 1.712 . S
C2872 C92 1.751 . S
C2884 C1036 1.797 . S
C2899 C123 1.797 . S
C2911 C1095 1.790 . S
C2926 C1154 1.868 . S
C2938 C210 1.901 . S
C2953 C1390 1.866 . S
C2965 C288 1.830 . S
C2980 C298 1.768 . S
C2992 C1272 1.825 . S
C3007 C406 1.664 . S
C3019 C1301 1.675 . S
C3034 C416 1.667 . S
C3046 C947 1.668 . S
C3061 C475 1.728 . S
C3073 C890 1.702 . S
C3088 C583 1.682 . S
C3100 C741 1.748 . S
C3115 C593 1.605 . S
C3127 C772 1.646 . S
C3142 C859 1.805 . S
C3154 C701 1.739 . S
C3169 C1468 1.874 . S
C3181 C2629 1.932 . S
C3196 C2422 1.557 . S
C3208 C1478 1.546 . S
C3223 C1586 1.892 . S
C3235 C2481 1.851 . S
C3250 C2570 1.810 . S
C3262 C1596 1.765 . S
C3277 C1657 1.630 . S
C3289 C2776 1.556 . S
C3304 C2658 1.816 . S
C3316 C1744 1.871 . S
C3331 C1775 1.495 . S
C3343 C2717 1.410 . S
C3358 C2393 1.969 . S
C3370 C1862 1.945 . S
C3385 C1921 1.787 . S
C3397 C2353 1.763 . S
C3412 C2127 1.696 . S
C3424 C1952 1.700 . S
C3439 C2235 1.692 . S
C3451 C2039 1.769 . S
C3466 C2245 1.763 . S
C3478 C2070 1.775 . S
C3493 C1539 1.236 . S
C3505 C52 1.231 . S
C3520 C62 1.153 . S
C3532 C1626 1.166 . S
C3547 C170 1.169 . S
C3559 C1421 1.193 . S
C3574 C180 1.303 . S
C3586 C1508 1.282 . S
C3601 C241 1.389 . S
C3613 C1822 1.370 . S
C3628 C1832 1.250 . S
C3640 C328 1.245 . S
C3655 C1704 1.148 . S
C3667 C359 1.176 . S
C3682 C1714 1.221 . S
C3694 C446 1.234 . S
C3709 C2157 1.270 . S
C3721 C505 1.283 . S
C3736 C536 1.090 . S
C3748 C2188 1.097 . S
C3763 C2275 1.326 . S
C3775 C623 1.333 . S
C3790 C654 1.139 . S
C3802 C2306 1.139 . S
C3817 C711 1.107 . S
C3829 C1891 1.125 . S
C3844 C819 1.229 . S
C3856 C1999 1.221 . S
C3871 C2009 1.114 . S
C3883 C829 1.137 . S
C3898 C2117 1.224 . S
C3910 C937 1.241 . S
C3925 C977 1.253 . S
C3937 C2540 1.217 . S
C3952 C1006 1.234 . S
C3964 C2688 1.240 . S
C3979 C2747 1.301 . S
C3991 C1065 1.303 . S
C4006 C2363 1.053 . S
C4018 C1124 1.070 . S
C4033 C1213 1.308 . S
C4045 C2806 1.306 . S
C4060 C2452 1.370 . S
C4072 C1242 1.383 . S
C4087 C1331 1.312 . S
C4099 C2511 1.304 . S
C4114 C1360 1.029 . S
C4126 C2599 1.014 . S
C4141 C1655 1.821 . S
C4153 C33 1.843 . S
C4168 C1763 1.862 . S
C4180 C64 1.823 . S
C4195 C1773 1.927 . S
C4207 C151 1.946 . S
C4222 C182 1.858 . S
C4234 C1881 1.895 . S
C4249 C1449 1.899 . S
C4261 C239 1.850 . S
C4276 C1480 1.883 . S
C4288 C347 1.923 . S
C4303 C357 1.770 . S
C4315 C1567 1.831 . S
C4330 C1598 1.839 . S
C4342 C465 1.859 . S
C4357 C524 1.812 . S
C4369 C2247 1.793 . S
C4384 C534 1.924 . S
C4396 C2334 1.943 . S
C4411 C2129 1.824 . S
C4423 C642 1.853 . S
C4438 C652 1.903 . S
C4450 C2216 1.938 . S
C4465 C2058 1.960 . S
C4477 C713 1.943 . S
C4492 C800 1.808 . S
C4504 C2068 1.816 . S
C4519 C831 1.901 . S
C4531 C1940 1.947 . S
C4546 C918 1.834 . S
C4558 C1950 1.831 . S
C4573 C2660 1.830 . S
C4585 C996 1.835 . S
C4600 C1008 1.976 . S
C4612 C2589 1.998 . S
C4627 C1067 1.877 . S
C4639 C2648 1.904 . S
C4654 C1126 1.757 . S
C4666 C2424 1.777 . S
C4681 C2483 1.811 . S
C4693 C1232 1.830 . S
C4708 C2412 1.941 . S
C4720 C1244 1.939 . S
C4735 C2778 1.992 . S
C4747 C1350 2.019 . S
C4762 C1362 1.809 . S
C4774 C2719 1.816 . S
C4789 C888 1.430 . S
C4801 C3 1.463 . S
C4816 C111 1.426 . S
C4828 C760 1.338 . S
C4843 C770 1.398 . S
C4855 C121 1.443 . S
C4870 C878 1.400 . S
C4882 C229 1.368 . S
C4897 C564 1.317 . S
C4909 C269 1.318 . S
C4924 C300 1.408 . S
C4936 C595 1.508 . S
C4951 C387 1.428 . S
C4963 C682 1.337 . S
C4978 C477 1.460 . S
C4990 C418 1.463 . S
C5005 C949 1.361 . S
C5017 C1185 1.460 . S
C5032 C1409 1.475 . S
C5044 C1055 1.479 . S
C5059 C1291 1.242 . S
C5071 C1114 1.219 . S
C5086 C1173 1.457 . S
C5098 C1303 1.539 . S
C5113 C2304 1.403 . S
C5125 C1419 1.413 . S
C5140 C2176 1.491 . S
C5152 C1527 1.421 . S
C5167 C1537 1.432 . S
C5179 C2186 1.471 . S
C5194 C2294 1.401 . S
C5206 C1645 1.466 . S
C5221 C1980 1.375 . S
C5233 C1685 1.458 . S
C5248 C1716 1.467 . S
C5260 C2011 1.486 . S
C5275 C1803 1.408 . S
C5287 C2098 1.444 . S
C5302 C1834 1.437 . S
C5314 C1893 1.463 . S
C5329 C2365 1.449 . S
C5341 C2601 1.435 . S
C5356 C2825 1.479 . S
C5368 C2471 1.541 . S
C5383 C2707 1.418 . S
C5395 C2530 1.410 . S
C5410 C2766 1.540 . S
C5422 C2542 1.589 . S
