# Generated by pormake.
# Topology wlb, (5)-cn, num edge types: 1
# Building blocks:
#     Node 0, Type 0, BuildingBlock: XOMCOT_clean_sbu_0, # of connection points: 5
#     Node 1, Type 0, BuildingBlock: XOMCOT_clean_sbu_0, # of connection points: 5
#     Node 2, Type 0, BuildingBlock: XOMCOT_clean_sbu_0, # of connection points: 5
#     Node 3, Type 0, BuildingBlock: XOMCOT_clean_sbu_0, # of connection points: 5
#     Node 4, Type 0, BuildingBlock: XOMCOT_clean_sbu_0, # of connection points: 5
#     Node 5, Type 0, BuildingBlock: XOMCOT_clean_sbu_0, # of connection points: 5
#     Node 6, Type 0, BuildingBlock: XOMCOT_clean_sbu_0, # of connection points: 5
#     Node 7, Type 0, BuildingBlock: XOMCOT_clean_sbu_0, # of connection points: 5
#     Node 8, Type 0, BuildingBlock: XOMCOT_clean_sbu_0, # of connection points: 5
#     Node 9, Type 0, BuildingBlock: XOMCOT_clean_sbu_0, # of connection points: 5
#     Node 10, Type 0, BuildingBlock: XOMCOT_clean_sbu_0, # of connection points: 5
#     Node 11, Type 0, BuildingBlock: XOMCOT_clean_sbu_0, # of connection points: 5
#     Node 12, Type 0, BuildingBlock: XOMCOT_clean_sbu_0, # of connection points: 5
#     Node 13, Type 0, BuildingBlock: XOMCOT_clean_sbu_0, # of connection points: 5
#     Node 14, Type 0, BuildingBlock: XOMCOT_clean_sbu_0, # of connection points: 5
#     Node 15, Type 0, BuildingBlock: XOMCOT_clean_sbu_0, # of connection points: 5
#     Node 16, Type 0, BuildingBlock: XOMCOT_clean_sbu_0, # of connection points: 5
#     Node 17, Type 0, BuildingBlock: XOMCOT_clean_sbu_0, # of connection points: 5
#     Edge 18, Type (0, 0), BuildingBlock: OJICUG_clean_linker_0, # of connection points: 2
#     Edge 19, Type (0, 0), BuildingBlock: OJICUG_clean_linker_0, # of connection points: 2
#     Edge 20, Type (0, 0), BuildingBlock: OJICUG_clean_linker_0, # of connection points: 2
#     Edge 21, Type (0, 0), BuildingBlock: OJICUG_clean_linker_0, # of connection points: 2
#     Edge 22, Type (0, 0), BuildingBlock: OJICUG_clean_linker_0, # of connection points: 2
#     Edge 23, Type (0, 0), BuildingBlock: OJICUG_clean_linker_0, # of connection points: 2
#     Edge 24, Type (0, 0), BuildingBlock: OJICUG_clean_linker_0, # of connection points: 2
#     Edge 25, Type (0, 0), BuildingBlock: OJICUG_clean_linker_0, # of connection points: 2
#     Edge 26, Type (0, 0), BuildingBlock: OJICUG_clean_linker_0, # of connection points: 2
#     Edge 27, Type (0, 0), BuildingBlock: OJICUG_clean_linker_0, # of connection points: 2
#     Edge 28, Type (0, 0), BuildingBlock: OJICUG_clean_linker_0, # of connection points: 2
#     Edge 29, Type (0, 0), BuildingBlock: OJICUG_clean_linker_0, # of connection points: 2
#     Edge 30, Type (0, 0), BuildingBlock: OJICUG_clean_linker_0, # of connection points: 2
#     Edge 31, Type (0, 0), BuildingBlock: OJICUG_clean_linker_0, # of connection points: 2
#     Edge 32, Type (0, 0), BuildingBlock: OJICUG_clean_linker_0, # of connection points: 2
#     Edge 33, Type (0, 0), BuildingBlock: OJICUG_clean_linker_0, # of connection points: 2
#     Edge 34, Type (0, 0), BuildingBlock: OJICUG_clean_linker_0, # of connection points: 2
#     Edge 35, Type (0, 0), BuildingBlock: OJICUG_clean_linker_0, # of connection points: 2
#     Edge 36, Type (0, 0), BuildingBlock: OJICUG_clean_linker_0, # of connection points: 2
#     Edge 37, Type (0, 0), BuildingBlock: OJICUG_clean_linker_0, # of connection points: 2
#     Edge 38, Type (0, 0), BuildingBlock: OJICUG_clean_linker_0, # of connection points: 2
#     Edge 39, Type (0, 0), BuildingBlock: OJICUG_clean_linker_0, # of connection points: 2
#     Edge 40, Type (0, 0), BuildingBlock: OJICUG_clean_linker_0, # of connection points: 2
#     Edge 41, Type (0, 0), BuildingBlock: OJICUG_clean_linker_0, # of connection points: 2
#     Edge 42, Type (0, 0), BuildingBlock: OJICUG_clean_linker_0, # of connection points: 2
#     Edge 43, Type (0, 0), BuildingBlock: OJICUG_clean_linker_0, # of connection points: 2
#     Edge 44, Type (0, 0), BuildingBlock: OJICUG_clean_linker_0, # of connection points: 2
#     Edge 45, Type (0, 0), BuildingBlock: OJICUG_clean_linker_0, # of connection points: 2
#     Edge 46, Type (0, 0), BuildingBlock: OJICUG_clean_linker_0, # of connection points: 2
#     Edge 47, Type (0, 0), BuildingBlock: OJICUG_clean_linker_0, # of connection points: 2
#     Edge 48, Type (0, 0), BuildingBlock: OJICUG_clean_linker_0, # of connection points: 2
#     Edge 49, Type (0, 0), BuildingBlock: OJICUG_clean_linker_0, # of connection points: 2
#     Edge 50, Type (0, 0), BuildingBlock: OJICUG_clean_linker_0, # of connection points: 2
#     Edge 51, Type (0, 0), BuildingBlock: OJICUG_clean_linker_0, # of connection points: 2
#     Edge 52, Type (0, 0), BuildingBlock: OJICUG_clean_linker_0, # of connection points: 2
#     Edge 53, Type (0, 0), BuildingBlock: OJICUG_clean_linker_0, # of connection points: 2
#     Edge 54, Type (0, 0), BuildingBlock: OJICUG_clean_linker_0, # of connection points: 2
#     Edge 55, Type (0, 0), BuildingBlock: OJICUG_clean_linker_0, # of connection points: 2
#     Edge 56, Type (0, 0), BuildingBlock: OJICUG_clean_linker_0, # of connection points: 2
#     Edge 57, Type (0, 0), BuildingBlock: OJICUG_clean_linker_0, # of connection points: 2
#     Edge 58, Type (0, 0), BuildingBlock: OJICUG_clean_linker_0, # of connection points: 2
#     Edge 59, Type (0, 0), BuildingBlock: OJICUG_clean_linker_0, # of connection points: 2
#     Edge 60, Type (0, 0), BuildingBlock: OJICUG_clean_linker_0, # of connection points: 2
#     Edge 61, Type (0, 0), BuildingBlock: OJICUG_clean_linker_0, # of connection points: 2
#     Edge 62, Type (0, 0), BuildingBlock: OJICUG_clean_linker_0, # of connection points: 2
# Relax obj value: 0.347
# Max RMSD: 0.197
# Mean RMSD: 0.197
data_MOF--net-wlb--node1-XOMCOT_clean_sbu_0--edge1-OJICUG_clean_linker_0
_symmetry_space_group_name_H-M    P1
_symmetry_Int_Tables_number       1
_symmetry_cell_setting            triclinic
loop_
_symmetry_equiv_pos_as_xyz
'x, y, z'
_cell_length_a     39.171365
_cell_length_b     39.132174
_cell_length_c     29.922918
_cell_angle_alpha  89.892889
_cell_angle_beta   90.134624
_cell_angle_gamma 120.20095
loop_
_atom_site_label
_atom_site_type_symbol
_atom_site_fract_x
_atom_site_fract_y
_atom_site_fract_z
_atom_type_partial_charge
Co0 Co 0.06949 0.2118 0.26055 0.0
C1 C 0.02388 0.24752 0.22378 0.0
C2 C 0.02043 0.24311 0.29524 0.0
C3 C 0.9998 0.26107 0.28108 0.0
N4 N 0.03543 0.23448 0.25921 0.0
N5 N 1.00195 0.2635 0.23619 0.0
H6 H 0.03144 0.24605 0.18956 0.0
H7 H 0.02407 0.23669 0.3295 0.0
C8 C 0.98628 0.14462 0.27718 0.0
O9 O 0.97319 0.1649 0.25552 0.0
N10 N 0.1044 0.19012 0.26264 0.0
C11 C 0.14424 0.20989 0.26463 0.0
C12 C 0.15703 0.18296 0.26641 0.0
C13 C 0.09368 0.15153 0.26278 0.0
N14 N 0.12517 0.14628 0.26526 0.0
C15 C 0.07991 0.22443 0.16529 0.0
C16 C 0.02046 0.15053 0.13898 0.0
C17 C 0.039 0.17999 0.10652 0.0
C18 C 0.07019 0.2169 0.11988 0.0
C19 C 0.03157 0.15907 0.18384 0.0
N20 N 0.05888 0.19654 0.19716 0.0
H21 H 0.10286 0.25364 0.17485 0.0
H22 H 1.01786 0.13504 0.20718 0.0
H23 H 0.16306 0.24166 0.26452 0.0
H24 H 0.06347 0.12769 0.26113 0.0
O25 O 0.11399 0.26526 0.25408 0.0
O26 O 0.08882 0.23619 0.31869 0.0
O27 O 0.02363 0.15855 0.28164 0.0
C28 C 0.11409 0.268 0.29738 0.0
H29 H 0.98414 0.27117 0.30203 0.0
H30 H 0.18749 0.18991 0.26735 0.0
H31 H 0.9975 0.12102 0.12975 0.0
H32 H 0.08583 0.24034 0.09573 0.0
Co33 Co 0.82249 0.86032 0.26557 0.0
C34 C 0.78127 0.77738 0.23833 0.0
C35 C 0.8218 0.7871 0.2919 0.0
C36 C 0.80593 0.74866 0.27711 0.0
N37 N 0.80666 0.80504 0.26699 0.0
N38 N 0.78047 0.74282 0.2436 0.0
H39 H 0.76584 0.78325 0.21207 0.0
H40 H 0.84406 0.80134 0.31754 0.0
C41 C 0.91068 0.8986 0.2684 0.0
O42 O 0.91235 0.92218 0.23609 0.0
N43 N 0.83732 0.91619 0.26492 0.0
C44 C 0.81592 0.93095 0.24651 0.0
C45 C 0.83471 0.97097 0.25366 0.0
C46 C 0.86794 0.94771 0.28532 0.0
N47 N 0.86767 0.98167 0.27771 0.0
C48 C 0.8203 0.87209 0.16979 0.0
C49 C 0.86988 0.84367 0.14723 0.0
C50 C 0.85352 0.85524 0.11287 0.0
C51 C 0.82837 0.86964 0.12468 0.0
C52 C 0.8607 0.84615 0.19157 0.0
N53 N 0.83725 0.86148 0.20284 0.0
H54 H 0.79902 0.88079 0.17772 0.0
H55 H 0.87188 0.83466 0.21688 0.0
H56 H 0.78799 0.91397 0.22951 0.0
H57 H 0.8898 0.94611 0.30587 0.0
O58 O 0.76753 0.84503 0.25794 0.0
O59 O 0.79765 0.85448 0.32328 0.0
O60 O 0.87741 0.87365 0.28563 0.0
C61 C 0.7651 0.84424 0.30132 0.0
H62 H 0.81337 0.72708 0.28903 0.0
H63 H 0.82524 0.99083 0.24106 0.0
H64 H 0.88936 0.83224 0.1401 0.0
H65 H 0.81381 0.87756 0.09932 0.0
Co66 Co 0.17095 0.95645 0.25014 0.0
C67 C 0.25365 1.00171 0.22115 0.0
C68 C 0.24261 0.02941 0.27683 0.0
C69 C 0.28033 0.05436 0.26148 0.0
N70 N 0.22586 0.99681 0.251 0.0
N71 N 0.28699 0.0368 0.22655 0.0
H72 H 0.24848 0.9815 0.19389 0.0
H73 H 0.22775 0.03556 0.30332 0.0
C74 C 0.12937 1.00252 0.24864 0.0
O75 O 0.10716 0.97822 0.21691 0.0
N76 N 0.11521 0.91569 0.25165 0.0
C77 C 0.09434 0.88338 0.22591 0.0
C78 C 0.05468 0.86725 0.23539 0.0
C79 C 0.08806 0.91669 0.27857 0.0
N80 N 0.0508 0.88892 0.26784 0.0
C81 C 0.16336 0.94091 0.15447 0.0
C82 C 0.18374 0.0169 0.12933 0.0
C83 C 0.17466 0.98857 0.09614 0.0
C84 C 0.1652 0.95031 0.10894 0.0
C85 C 0.18245 1.00652 0.17403 0.0
N86 N 0.16983 0.96829 0.1866 0.0
H87 H 0.15866 0.91225 0.16362 0.0
H88 H 0.19271 0.02985 0.19854 0.0
H89 H 0.10632 0.87262 0.20091 0.0
H90 H 0.09514 0.93937 0.30339 0.0
O91 O 0.18624 0.91675 0.24475 0.0
O92 O 0.17724 0.9392 0.30892 0.0
O93 O 0.15623 0.99771 0.26722 0.0
C94 C 0.18746 0.91641 0.28816 0.0
H95 H 0.30072 0.08373 0.27384 0.0
H96 H 0.03047 0.84348 0.21722 0.0
H97 H 0.1933 0.04732 0.12072 0.0
H98 H 0.15974 0.92806 0.08404 0.0
Co99 Co 0.22457 0.0747 0.76051 0.0
C100 C 0.26375 0.02958 0.78988 0.0
C101 C 0.23864 1.01293 0.72444 0.0
C102 C 0.25404 0.9893 0.73625 0.0
N103 N 0.24381 0.03752 0.75869 0.0
N104 N 0.26937 0.99967 0.77769 0.0
H105 H 0.27447 0.04504 0.82086 0.0
H106 H 0.22326 1.01122 0.69372 0.0
C107 C 0.154 0.99427 0.7592 0.0
O108 O 0.17339 0.98496 0.78796 0.0
N109 N 0.20618 0.1122 0.76108 0.0
C110 C 0.22557 0.1483 0.77991 0.0
C111 C 0.20275 0.16565 0.77618 0.0
C112 C 0.17146 0.10782 0.74651 0.0
N113 N 0.16873 0.14029 0.75521 0.0
C114 C 0.24363 0.08092 0.85437 0.0
C115 C 0.16703 0.03807 0.88532 0.0
C116 C 0.19818 0.04635 0.91462 0.0
C117 C 0.23695 0.06972 0.89925 0.0
C118 C 0.17523 0.04932 0.84045 0.0
N119 N 0.21308 0.06663 0.82459 0.0
H120 H 0.27371 0.09907 0.84311 0.0
H121 H 0.15089 0.04298 0.81844 0.0
H122 H 0.25388 0.16078 0.79651 0.0
H123 H 0.14854 0.08143 0.73048 0.0
O124 O 0.27889 0.1173 0.7635 0.0
O125 O 0.24604 0.09177 0.70072 0.0
O126 O 0.16926 0.0299 0.74481 0.0
C127 C 0.27928 0.11654 0.72014 0.0
H128 H 0.25262 0.9654 0.71665 0.0
H129 H 0.21001 0.19417 0.78969 0.0
H130 H 0.13664 0.02177 0.89649 0.0
H131 H 0.26186 0.07868 0.92154 0.0
Co132 Co 0.96275 0.1638 0.76713 0.0
C133 C 1.00791 0.24669 0.8018 0.0
C134 C 0.02769 0.24049 0.73716 0.0
C135 C 0.05117 0.27902 0.75097 0.0
N136 N 1.00138 0.21989 0.76971 0.0
N137 N 0.0384 0.2826 0.79143 0.0
H138 H 0.99166 0.24061 0.83252 0.0
H139 H 0.0304 0.22794 0.70612 0.0
C140 C 0.04218 0.17132 0.76486 0.0
O141 O 0.05217 0.19859 0.79569 0.0
N142 N 0.92357 0.10784 0.76272 0.0
C143 C 0.88406 0.09215 0.76093 0.0
C144 C 0.86634 0.05179 0.75852 0.0
C145 C 0.9292 0.07639 0.76133 0.0
N146 N 0.89458 0.04169 0.75917 0.0
C147 C 0.95279 0.17014 0.86195 0.0
C148 C 0.99646 0.13683 0.89121 0.0
C149 C 0.98475 0.15552 0.92241 0.0
C150 C 0.96101 0.17066 0.90761 0.0
C151 C 0.98692 0.13635 0.84605 0.0
N152 N 0.9687 0.15633 0.83121 0.0
H153 H 0.93521 0.18281 0.85123 0.0
H154 H 0.99528 0.12058 0.82329 0.0
H155 H 0.86862 0.1085 0.76172 0.0
H156 H 0.95781 0.07863 0.76313 0.0
O157 O 0.92177 0.17779 0.77067 0.0
O158 O 0.94827 0.17284 0.7077 0.0
O159 O 1.00655 0.15235 0.75013 0.0
C160 C 0.92402 0.18159 0.72745 0.0
H161 H 0.0758 0.30248 0.73301 0.0
H162 H 0.83484 0.03147 0.75675 0.0
H163 H 1.01308 0.12289 0.90158 0.0
H164 H 0.95025 0.1843 0.93082 0.0
Co165 Co 0.87416 0.81217 0.76976 0.0
C166 C 0.78872 0.76908 0.79734 0.0
C167 C 0.7996 0.80361 0.73785 0.0
C168 C 0.76033 0.78721 0.74879 0.0
N169 N 0.81778 0.79342 0.76919 0.0
N170 N 0.75382 0.76545 0.78597 0.0
H171 H 0.79233 0.75487 0.82623 0.0
H172 H 0.81434 0.82302 0.70987 0.0
C173 C 0.86604 0.88294 0.7781 0.0
O174 O 0.83961 0.86195 0.80865 0.0
N175 N 0.93 0.83039 0.76838 0.0
C176 C 0.94715 0.81136 0.78681 0.0
C177 C 0.98727 0.83395 0.7811 0.0
C178 C 0.95994 0.86458 0.75195 0.0
N179 N 0.99539 0.86741 0.7592 0.0
C180 C 0.86122 0.7896 0.86262 0.0
C181 C 0.9026 0.86493 0.89767 0.0
C182 C 0.87941 0.83329 0.92648 0.0
C183 C 0.85988 0.79498 0.90852 0.0
C184 C 0.90283 0.85805 0.85186 0.0
N185 N 0.87897 0.82119 0.83438 0.0
H186 H 0.84704 0.75984 0.84975 0.0
H187 H 0.92145 0.88268 0.83041 0.0
H188 H 0.93167 0.78345 0.80434 0.0
H189 H 0.956 0.88702 0.73555 0.0
O190 O 0.86222 0.75798 0.76996 0.0
O191 O 0.86814 0.79219 0.70873 0.0
O192 O 0.88476 0.86824 0.75816 0.0
C193 C 0.85994 0.75847 0.72676 0.0
H194 H 0.73846 0.79146 0.73147 0.0
H195 H 1.00893 0.82695 0.7938 0.0
H196 H 0.92025 0.89478 0.91029 0.0
H197 H 0.84266 0.76929 0.92934 0.0
Co198 Co 0.73952 0.55264 0.59429 0.0
C199 C 0.69493 0.59121 0.56791 0.0
C200 C 0.66699 0.5515 0.62299 0.0
C201 C 0.6423 0.56471 0.60806 0.0
N202 N 0.69955 0.56761 0.59714 0.0
N203 N 0.66002 0.58955 0.57348 0.0
H204 H 0.71507 0.60647 0.54062 0.0
H205 H 0.66055 0.52988 0.649 0.0
C206 C 0.68923 0.46438 0.59375 0.0
O207 O 0.71067 0.46383 0.56034 0.0
N208 N 0.78085 0.53828 0.59256 0.0
C209 C 0.81736 0.56046 0.57516 0.0
C210 C 0.83798 0.54086 0.57985 0.0
C211 C 0.7811 0.50642 0.6103 0.0
N212 N 0.81508 0.50655 0.60156 0.0
C213 C 0.75404 0.55644 0.49898 0.0
C214 C 0.67569 0.5098 0.47446 0.0
C215 C 0.7043 0.52652 0.44087 0.0
C216 C 0.74401 0.54997 0.45369 0.0
C217 C 0.68702 0.51669 0.5192 0.0
N218 N 0.72591 0.53915 0.53132 0.0
H219 H 0.78426 0.57668 0.50767 0.0
H220 H 0.66406 0.50496 0.54419 0.0
H221 H 0.82881 0.58928 0.56013 0.0
H222 H 0.75729 0.48368 0.62972 0.0
O223 O 0.77892 0.60798 0.58764 0.0
O224 O 0.75887 0.57664 0.65239 0.0
O225 O 0.69806 0.49703 0.61292 0.0
C226 C 0.78094 0.60968 0.63101 0.0
H227 H 0.61294 0.5555 0.62034 0.0
H228 H 0.86728 0.55079 0.56694 0.0
H229 H 0.64454 0.49267 0.46642 0.0
H230 H 0.76722 0.5638 0.429 0.0
Co231 Co 0.48188 0.20091 0.58372 0.0
C232 C 0.43897 0.11724 0.55714 0.0
C233 C 0.47905 0.12763 0.61149 0.0
C234 C 0.46376 0.08924 0.59712 0.0
N235 N 0.464 0.14521 0.5858 0.0
N236 N 0.43858 0.08298 0.56325 0.0
H237 H 0.42415 0.12283 0.52994 0.0
H238 H 0.50144 0.14237 0.63689 0.0
C239 C 0.56919 0.23713 0.5778 0.0
O240 O 0.56746 0.25874 0.54514 0.0
N241 N 0.50007 0.25748 0.58428 0.0
C242 C 0.48522 0.27796 0.56374 0.0
C243 C 0.51006 0.31783 0.57158 0.0
C244 C 0.53163 0.2851 0.60734 0.0
N245 N 0.5397 0.32218 0.59834 0.0
C246 C 0.47482 0.21152 0.48848 0.0
C247 C 0.51937 0.17856 0.46121 0.0
C248 C 0.5029 0.19169 0.42872 0.0
C249 C 0.48034 0.20837 0.44275 0.0
C250 C 0.51351 0.18265 0.5063 0.0
N251 N 0.4926 0.20024 0.51983 0.0
H252 H 0.45478 0.22128 0.49834 0.0
H253 H 0.52524 0.1707 0.53046 0.0
H254 H 0.45844 0.26537 0.54424 0.0
H255 H 0.54955 0.27852 0.62924 0.0
O256 O 0.42762 0.18844 0.57973 0.0
O257 O 0.46023 0.19689 0.64312 0.0
O258 O 0.53759 0.21275 0.59874 0.0
C259 C 0.4271 0.18799 0.62315 0.0
H260 H 0.47202 0.06821 0.60889 0.0
H261 H 0.50771 0.34179 0.55667 0.0
H262 H 0.53654 0.16498 0.45191 0.0
H263 H 0.46583 0.21749 0.41861 0.0
Co264 Co 0.8389 0.30037 0.59105 0.0
C265 C 0.92223 0.34076 0.55807 0.0
C266 C 0.91686 0.36185 0.62225 0.0
C267 C 0.95575 0.38333 0.60911 0.0
N268 N 0.8956 0.33603 0.58954 0.0
N269 N 0.95879 0.36971 0.56895 0.0
H270 H 0.91562 0.32449 0.5273 0.0
H271 H 0.90457 0.36572 0.65286 0.0
C272 C 0.85163 0.38251 0.59295 0.0
O273 O 0.87962 0.39159 0.56333 0.0
N274 N 0.78229 0.26437 0.59427 0.0
C275 C 0.76258 0.22456 0.59107 0.0
C276 C 0.72258 0.21083 0.59333 0.0
C277 C 0.75395 0.27416 0.59831 0.0
N278 N 0.7173 0.24214 0.59764 0.0
C279 C 0.84574 0.2899 0.49663 0.0
C280 C 0.8153 0.33572 0.46592 0.0
C281 C 0.83322 0.32267 0.4351 0.0
C282 C 0.84698 0.29796 0.4509 0.0
C283 C 0.81466 0.32683 0.51139 0.0
N284 N 0.83308 0.30724 0.52683 0.0
H285 H 0.8567 0.27096 0.50782 0.0
H286 H 0.79985 0.33655 0.53388 0.0
H287 H 0.77601 0.20654 0.58634 0.0
H288 H 0.75976 0.30411 0.60099 0.0
O289 O 0.8487 0.25651 0.58802 0.0
O290 O 0.8455 0.28441 0.65074 0.0
O291 O 0.83124 0.34686 0.60743 0.0
C292 C 0.85207 0.25849 0.63127 0.0
H293 H 0.97979 0.40737 0.62718 0.0
H294 H 0.69919 0.18035 0.5901 0.0
H295 H 0.80294 0.35372 0.4554 0.0
H296 H 0.85909 0.28527 0.42822 0.0
Co297 Co 0.8856 0.3992 0.09374 0.0
C298 C 0.92229 0.35448 0.13133 0.0
C299 C 0.91368 0.34705 0.06054 0.0
C300 C 0.9314 0.32626 0.07484 0.0
N301 N 0.90782 0.36468 0.09605 0.0
N302 N 0.93672 0.33098 0.11944 0.0
H303 H 0.92136 0.36281 0.16524 0.0
H304 H 0.90551 0.34904 0.0265 0.0
C305 C 0.81762 0.31576 0.08455 0.0
O306 O 0.83744 0.30456 0.11016 0.0
N307 N 0.86421 0.43433 0.09027 0.0
C308 C 0.88415 0.47423 0.08894 0.0
C309 C 0.85741 0.48726 0.0867 0.0
C310 C 0.82572 0.42379 0.08912 0.0
N311 N 0.8207 0.45545 0.08692 0.0
C312 C 0.90133 0.4117 0.18823 0.0
C313 C 0.8264 0.35801 0.21802 0.0
C314 C 0.85727 0.37497 0.2493 0.0
C315 C 0.89482 0.40343 0.23394 0.0
C316 C 0.83423 0.36718 0.17258 0.0
N317 N 0.87199 0.39129 0.15765 0.0
H318 H 0.93088 0.43264 0.17739 0.0
H319 H 0.80958 0.35432 0.14989 0.0
H320 H 0.91589 0.49293 0.09007 0.0
H321 H 0.80171 0.3936 0.09008 0.0
O322 O 0.93912 0.44373 0.09802 0.0
O323 O 0.90883 0.41636 0.03461 0.0
O324 O 0.83191 0.35255 0.07532 0.0
C325 C 0.94105 0.44235 0.05478 0.0
H326 H 0.93996 0.30935 0.05385 0.0
H327 H 0.86445 0.51778 0.08639 0.0
H328 H 0.79657 0.33679 0.22821 0.0
H329 H 0.91933 0.4187 0.25693 0.0
Co330 Co 0.62774 0.49739 0.0996 0.0
C331 C 0.67167 0.58086 0.12779 0.0
C332 C 0.69875 0.57001 0.07137 0.0
C333 C 0.72367 0.60782 0.08653 0.0
N334 N 0.66662 0.55298 0.09784 0.0
N335 N 0.70659 0.61437 0.12201 0.0
H336 H 0.65206 0.57545 0.15573 0.0
H337 H 0.70485 0.55512 0.04484 0.0
C338 C 0.67728 0.45974 0.10517 0.0
O339 O 0.65362 0.43815 0.13763 0.0
N340 N 0.58847 0.44094 0.09869 0.0
C341 C 0.55365 0.42034 0.12028 0.0
C342 C 0.53843 0.38047 0.11237 0.0
C343 C 0.5918 0.41336 0.07501 0.0
N344 N 0.56307 0.37622 0.08459 0.0
C345 C 0.61034 0.4872 0.19476 0.0
C346 C 0.68793 0.51816 0.22185 0.0
C347 C 0.6585 0.50592 0.25431 0.0
C348 C 0.61921 0.4902 0.24045 0.0
C349 C 0.67777 0.51421 0.17684 0.0
N350 N 0.63918 0.49758 0.1634 0.0
H351 H 0.58067 0.47846 0.18493 0.0
H352 H 0.70141 0.52571 0.15267 0.0
H353 H 0.54003 0.43279 0.14074 0.0
H354 H 0.61595 0.42004 0.05256 0.0
O355 O 0.58666 0.51075 0.10372 0.0
O356 O 0.61031 0.50192 0.04029 0.0
O357 O 0.67079 0.48468 0.08445 0.0
C358 C 0.58653 0.51125 0.0603 0.0
H359 H 0.75293 0.62822 0.07398 0.0
H360 H 0.51259 0.35646 0.12807 0.0
H361 H 0.71873 0.53108 0.23113 0.0
H362 H 0.59581 0.48184 0.26468 0.0
Co363 Co 0.53403 0.14666 0.08701 0.0
C364 C 0.45067 0.10615 0.11277 0.0
C365 C 0.46194 0.14689 0.05892 0.0
C366 C 0.4235 0.13184 0.07299 0.0
N367 N 0.47896 0.1312 0.08452 0.0
N368 N 0.4167 0.1063 0.10672 0.0
H369 H 0.45578 0.09051 0.13946 0.0
H370 H 0.47689 0.16911 0.03342 0.0
C371 C 0.57151 0.23486 0.08832 0.0
O372 O 0.59394 0.23554 0.12144 0.0
N373 N 0.58991 0.16148 0.08825 0.0
C374 C 0.60445 0.13921 0.10472 0.0
C375 C 0.64468 0.15886 0.09925 0.0
C376 C 0.62185 0.19354 0.07044 0.0
N377 N 0.6558 0.1933 0.07805 0.0
C378 C 0.54583 0.14262 0.18222 0.0
C379 C 0.51355 0.18817 0.20795 0.0
C380 C 0.52615 0.1717 0.24116 0.0
C381 C 0.54264 0.14876 0.22769 0.0
C382 C 0.51755 0.18156 0.16299 0.0
N383 N 0.53431 0.15969 0.15027 0.0
H384 H 0.55614 0.12284 0.17309 0.0
H385 H 0.50585 0.19313 0.13834 0.0
H386 H 0.58721 0.11025 0.11952 0.0
H387 H 0.62056 0.21642 0.0516 0.0
O388 O 0.51835 0.09144 0.09319 0.0
O389 O 0.52884 0.12284 0.0286 0.0
O390 O 0.54773 0.20221 0.06895 0.0
C391 C 0.51799 0.08975 0.04981 0.0
H392 H 0.40261 0.14003 0.06057 0.0
H393 H 0.66429 0.14887 0.11118 0.0
H394 H 0.49935 0.20493 0.21647 0.0
H395 H 0.55257 0.13513 0.25202 0.0
Co396 Co 0.40655 0.8825 0.91726 0.0
C397 C 0.36132 0.91882 0.87929 0.0
C398 C 0.34355 0.897 0.94595 0.0
C399 C 0.32097 0.91267 0.93144 0.0
N400 N 0.36837 0.90016 0.91292 0.0
N401 N 0.33212 0.9262 0.88943 0.0
H402 H 0.3774 0.92776 0.84839 0.0
H403 H 0.34154 0.88348 0.97813 0.0
C404 C 0.32629 0.81117 0.91887 0.0
O405 O 0.31752 0.82885 0.88728 0.0
N406 N 0.44559 0.86584 0.92318 0.0
C407 C 0.48501 0.89019 0.92657 0.0
C408 C 0.50312 0.86808 0.92851 0.0
C409 C 0.44041 0.82886 0.92319 0.0
N410 N 0.47529 0.82953 0.926 0.0
C411 C 0.4194 0.8994 0.82309 0.0
C412 C 0.37392 0.82281 0.79265 0.0
C413 C 0.38681 0.85391 0.76177 0.0
C414 C 0.41171 0.89251 0.77739 0.0
C415 C 0.38276 0.83113 0.83808 0.0
N416 N 0.40183 0.86928 0.85334 0.0
H417 H 0.43756 0.92954 0.83419 0.0
H418 H 0.3729 0.80654 0.86071 0.0
H419 H 0.50026 0.92209 0.92693 0.0
H420 H 0.41205 0.80214 0.91977 0.0
O421 O 0.44779 0.93754 0.91391 0.0
O422 O 0.42012 0.90613 0.97671 0.0
O423 O 0.36184 0.82707 0.9339 0.0
C424 C 0.44484 0.93921 0.95697 0.0
H425 H 0.29772 0.91337 0.95014 0.0
H426 H 0.53464 0.8797 0.93109 0.0
H427 H 0.35581 0.79232 0.78233 0.0
H428 H 0.42441 0.91745 0.75468 0.0
Co429 Co 0.147 0.53227 0.92365 0.0
C430 C 0.10581 0.44809 0.90104 0.0
C431 C 0.14774 0.46105 0.95401 0.0
C432 C 0.13295 0.42237 0.9409 0.0
N433 N 0.1312 0.47718 0.9283 0.0
N434 N 0.10663 0.41454 0.90783 0.0
H435 H 0.0897 0.45237 0.87424 0.0
H436 H 0.17059 0.47687 0.97865 0.0
C437 C 0.23466 0.57027 0.92012 0.0
O438 O 0.23372 0.59126 0.88627 0.0
N439 N 0.16258 0.58821 0.92086 0.0
C440 C 0.14239 0.60406 0.90194 0.0
C441 C 0.16352 0.64445 0.9071 0.0
C442 C 0.19437 0.61933 0.9401 0.0
N443 N 0.19657 0.65413 0.93062 0.0
C444 C 0.14224 0.5413 0.82753 0.0
C445 C 0.18735 0.50788 0.80423 0.0
C446 C 0.17142 0.52021 0.77025 0.0
C447 C 0.14867 0.53722 0.7823 0.0
C448 C 0.18066 0.51295 0.84881 0.0
N449 N 0.15913 0.5304 0.86038 0.0
H450 H 0.12241 0.55175 0.83576 0.0
H451 H 0.19233 0.50195 0.87418 0.0
H452 H 0.11395 0.58768 0.88579 0.0
H453 H 0.21562 0.61688 0.96088 0.0
O454 O 0.092 0.51713 0.91791 0.0
O455 O 0.12407 0.52898 0.9822 0.0
O456 O 0.20279 0.54647 0.94083 0.0
C457 C 0.09083 0.51791 0.96128 0.0
H458 H 0.14204 0.40212 0.95319 0.0
H459 H 0.15564 0.66513 0.89327 0.0
H460 H 0.20483 0.49428 0.79648 0.0
H461 H 0.13476 0.546 0.75699 0.0
Co462 Co 0.49875 0.62291 0.91782 0.0
C463 C 0.58363 0.66428 0.88687 0.0
C464 C 0.57489 0.68726 0.94802 0.0
C465 C 0.61379 0.71031 0.93569 0.0
N466 N 0.55555 0.65915 0.91666 0.0
N467 N 0.61897 0.69555 0.89745 0.0
H468 H 0.579 0.64704 0.85724 0.0
H469 H 0.56107 0.69186 0.97685 0.0
C470 C 0.50964 0.70335 0.90879 0.0
O471 O 0.53604 0.70882 0.87832 0.0
N472 N 0.44244 0.58729 0.9214 0.0
C473 C 0.42161 0.55009 0.90555 0.0
C474 C 0.38188 0.53704 0.91043 0.0
C475 C 0.41533 0.59628 0.9358 0.0
N476 N 0.37815 0.56635 0.92909 0.0
C477 C 0.50965 0.61222 0.82475 0.0
C478 C 0.47104 0.64928 0.79067 0.0
C479 C 0.49419 0.64102 0.76204 0.0
C480 C 0.51207 0.62049 0.77911 0.0
C481 C 0.47009 0.64101 0.83629 0.0
N482 N 0.49287 0.62664 0.85334 0.0
H483 H 0.52287 0.59568 0.83732 0.0
H484 H 0.45231 0.64778 0.858 0.0
H485 H 0.43428 0.53426 0.88958 0.0
H486 H 0.42238 0.62465 0.94942 0.0
O487 O 0.50805 0.57897 0.91793 0.0
O488 O 0.50511 0.60941 0.97877 0.0
O489 O 0.49098 0.67001 0.92913 0.0
C490 C 0.51131 0.58254 0.96106 0.0
H491 H 0.63626 0.73642 0.95266 0.0
H492 H 0.35768 0.50925 0.89849 0.0
H493 H 0.45531 0.66358 0.77835 0.0
H494 H 0.52833 0.61155 0.75749 0.0
Co495 Co 0.55545 0.72916 0.42604 0.0
C496 C 0.59343 0.68501 0.45557 0.0
C497 C 0.55395 0.65547 0.40074 0.0
C498 C 0.56772 0.63153 0.4168 0.0
N499 N 0.56969 0.68862 0.42566 0.0
N500 N 0.59249 0.65033 0.45115 0.0
H501 H 0.60878 0.70605 0.48213 0.0
H502 H 0.53258 0.64833 0.37426 0.0
C503 C 0.46703 0.68023 0.42231 0.0
O504 O 0.4654 0.70221 0.45444 0.0
N505 N 0.54202 0.77113 0.42584 0.0
C506 C 0.56358 0.80712 0.44477 0.0
C507 C 0.54489 0.82845 0.43841 0.0
C508 C 0.51153 0.77236 0.40575 0.0
N509 N 0.51183 0.80648 0.41428 0.0
C510 C 0.55902 0.74388 0.52143 0.0
C511 C 0.50573 0.66663 0.54526 0.0
C512 C 0.52368 0.69493 0.57886 0.0
C513 C 0.55096 0.73393 0.56668 0.0
C514 C 0.51526 0.67761 0.50071 0.0
N515 N 0.54034 0.71617 0.48882 0.0
H516 H 0.58161 0.77343 0.51301 0.0
H517 H 0.50322 0.65456 0.47582 0.0
H518 H 0.59138 0.81777 0.46192 0.0
H519 H 0.48956 0.74904 0.38506 0.0
O520 O 0.61076 0.76818 0.43368 0.0
O521 O 0.58064 0.74749 0.36834 0.0
O522 O 0.50032 0.68819 0.40573 0.0
C523 C 0.6133 0.76953 0.39031 0.0
H524 H 0.5593 0.60216 0.40511 0.0
H525 H 0.55443 0.85751 0.45195 0.0
H526 H 0.48576 0.63586 0.55344 0.0
H527 H 0.56634 0.75639 0.59191 0.0
Co528 Co 0.30761 0.83222 0.42196 0.0
C529 C 0.34789 0.91547 0.45594 0.0
C530 C 0.36775 0.91084 0.39072 0.0
C531 C 0.38878 0.94979 0.40395 0.0
N532 N 0.34293 0.8891 0.42391 0.0
N533 N 0.376 0.95241 0.44481 0.0
H534 H 0.33228 0.90838 0.48719 0.0
H535 H 0.37113 0.89891 0.35955 0.0
C536 C 0.38992 0.84568 0.4185 0.0
O537 O 0.39935 0.8741 0.44768 0.0
N538 N 0.27183 0.7755 0.41848 0.0
C539 C 0.232 0.75578 0.42083 0.0
C540 C 0.21826 0.71576 0.4183 0.0
C541 C 0.28161 0.74712 0.41474 0.0
N542 N 0.24956 0.71044 0.41468 0.0
C543 C 0.29698 0.83793 0.51641 0.0
C544 C 0.34476 0.80948 0.54616 0.0
C545 C 0.33104 0.82652 0.57733 0.0
C546 C 0.30521 0.83906 0.56203 0.0
C547 C 0.33538 0.80859 0.50087 0.0
N548 N 0.31487 0.82618 0.4859 0.0
H549 H 0.27756 0.84841 0.50555 0.0
H550 H 0.3455 0.79429 0.47814 0.0
H551 H 0.21391 0.76918 0.42506 0.0
H552 H 0.31156 0.75291 0.41269 0.0
O553 O 0.26363 0.84162 0.42569 0.0
O554 O 0.29134 0.83886 0.36258 0.0
O555 O 0.35408 0.82488 0.40485 0.0
C556 C 0.26533 0.84502 0.38244 0.0
H557 H 0.41181 0.97421 0.38529 0.0
H558 H 0.18774 0.69239 0.42081 0.0
H559 H 0.36367 0.79804 0.55618 0.0
H560 H 0.2919 0.85035 0.58497 0.0
Co561 Co 0.20483 0.47374 0.42891 0.0
C562 C 0.1213 0.43193 0.45445 0.0
C563 C 0.13265 0.47292 0.40083 0.0
C564 C 0.09441 0.4583 0.41523 0.0
N565 N 0.14952 0.45689 0.42612 0.0
N566 N 0.08759 0.43259 0.44872 0.0
H567 H 0.12644 0.41649 0.48135 0.0
H568 H 0.1478 0.49554 0.37577 0.0
C569 C 0.2427 0.56133 0.43417 0.0
O570 O 0.26384 0.55918 0.46711 0.0
N571 N 0.26104 0.49091 0.42908 0.0
C572 C 0.28117 0.47655 0.45135 0.0
C573 C 0.32109 0.50116 0.44387 0.0
C574 C 0.2889 0.52179 0.40545 0.0
N575 N 0.3258 0.53012 0.41569 0.0
C576 C 0.21368 0.46645 0.52464 0.0
C577 C 0.18295 0.51334 0.55042 0.0
C578 C 0.19505 0.4965 0.58371 0.0
C579 C 0.21036 0.47248 0.57022 0.0
C580 C 0.18713 0.50687 0.50551 0.0
N581 N 0.20384 0.48497 0.4927 0.0
H582 H 0.22254 0.44556 0.51536 0.0
H583 H 0.17579 0.51885 0.4809 0.0
H584 H 0.26836 0.45041 0.47196 0.0
H585 H 0.28258 0.53932 0.38259 0.0
O586 O 0.19134 0.41916 0.43348 0.0
O587 O 0.2007 0.45145 0.3697 0.0
O588 O 0.21792 0.5298 0.41331 0.0
C589 C 0.19103 0.41825 0.39006 0.0
H590 H 0.0739 0.46732 0.40374 0.0
H591 H 0.34481 0.4993 0.46015 0.0
H592 H 0.16914 0.53048 0.55881 0.0
H593 H 0.21934 0.45802 0.59456 0.0
C594 C 0.96755 0.33027 0.19147 0.0
C595 C 0.95345 0.31399 0.14883 0.0
H596 H 0.99387 0.32668 0.25277 0.0
C597 C 0.95547 0.28057 0.13574 0.0
H598 H 0.96734 0.35644 0.20256 0.0
C599 C 0.97127 0.26397 0.16449 0.0
C600 C 0.98502 0.28018 0.20705 0.0
H601 H 0.94439 0.26681 0.10358 0.0
H602 H 0.97223 0.23807 0.15369 0.0
C603 C 0.98287 0.31333 0.22037 0.0
C604 C 0.76403 0.66049 0.16711 0.0
C605 C 0.72506 0.6467 0.15287 0.0
H606 H 0.812 0.7017 0.2083 0.0
C607 C 0.70408 0.66404 0.1701 0.0
H608 H 0.78051 0.64709 0.15466 0.0
C609 C 0.72222 0.69552 0.20021 0.0
C610 C 0.76117 0.70924 0.21451 0.0
H611 H 0.67395 0.65362 0.15959 0.0
H612 H 0.7059 0.70913 0.21255 0.0
C613 C 0.7818 0.69124 0.19807 0.0
C614 C 0.36796 0.04917 0.15031 0.0
C615 C 0.383 0.08823 0.13561 0.0
H616 H 0.3247 1.00186 0.1908 0.0
C617 C 0.36617 0.11018 0.1514 0.0
H618 H 0.3807 0.03189 0.13852 0.0
C619 C 0.33511 0.0935 0.18198 0.0
C620 C 0.31986 0.05434 0.19645 0.0
H621 H 0.37772 0.14052 0.14088 0.0
H622 H 0.32254 0.11092 0.19384 0.0
C623 C 0.33619 0.03214 0.18004 0.0
C624 C 0.30311 0.961 0.78671 0.0
C625 C 0.2851 0.9808 0.80555 0.0
H626 H 0.33185 0.92767 0.79861 0.0
C627 C 0.28232 0.98178 0.85236 0.0
H628 H 0.30567 0.95974 0.75083 0.0
C629 C 0.29772 0.96395 0.87972 0.0
C630 C 0.31611 0.94448 0.86102 0.0
H631 H 0.26783 0.99596 0.86807 0.0
H632 H 0.29554 0.96582 0.91557 0.0
C633 C 0.31849 0.94303 0.81417 0.0
C634 C 0.11322 0.36878 0.85755 0.0
C635 C 0.08925 0.38069 0.87928 0.0
H636 H 0.11544 0.32822 0.81111 0.0
C637 C 0.04851 0.36059 0.87102 0.0
H638 H 0.14483 0.38446 0.86318 0.0
C639 C 0.03172 0.32824 0.84207 0.0
C640 C 0.05572 0.31653 0.81997 0.0
H641 H 0.0298 0.36978 0.88737 0.0
H642 H 1.00011 0.31255 0.83647 0.0
C643 C 0.09661 0.33716 0.82761 0.0
C644 C 0.66934 0.75249 0.8556 0.0
C645 C 0.65316 0.71312 0.86951 0.0
H646 H 0.71404 0.79979 0.81646 0.0
C647 C 0.66964 0.69068 0.85444 0.0
H648 H 0.65654 0.76995 0.86662 0.0
C649 C 0.70275 0.70785 0.82664 0.0
C650 C 0.71872 0.74714 0.81244 0.0
H651 H 0.65721 0.66018 0.8648 0.0
H652 H 0.71585 0.69058 0.81597 0.0
C653 C 0.70166 0.76927 0.82675 0.0
C654 C 0.66512 0.64396 0.52714 0.0
C655 C 0.6427 0.60518 0.54337 0.0
H656 H 0.66616 0.68897 0.48503 0.0
C657 C 0.60375 0.58121 0.52822 0.0
H658 H 0.69525 0.66279 0.53835 0.0
C659 C 0.58758 0.59572 0.49702 0.0
C660 C 0.60982 0.6347 0.48126 0.0
H661 H 0.58616 0.55103 0.53988 0.0
H662 H 0.55746 0.57682 0.48584 0.0
C663 C 0.6486 0.65881 0.4968 0.0
C664 C 0.43267 1.01148 0.47712 0.0
C665 C 0.39167 0.98655 0.4731 0.0
H666 H 0.47975 0.06174 0.51041 0.0
C667 C 0.36625 0.99414 0.49882 0.0
H668 H 0.45272 1.00586 0.45791 0.0
C669 C 0.38167 0.02628 0.52813 0.0
C670 C 0.42261 0.0504 0.53291 0.0
H671 H 0.33453 0.97524 0.49604 0.0
H672 H 0.36184 0.03201 0.54765 0.0
C673 C 0.44804 0.04297 0.50722 0.0
C674 C 0.03407 0.37595 0.48795 0.0
C675 C 0.05504 0.4166 0.47901 0.0
H676 H 0.98593 0.3289 0.52386 0.0
C677 C 0.04507 0.44184 0.50133 0.0
H678 H 0.04179 0.35629 0.47113 0.0
C679 C 1.01429 0.42654 0.53226 0.0
C680 C 0.99259 0.38573 0.54038 0.0
H681 H 0.06148 0.47339 0.49513 0.0
H682 H 1.00665 0.44632 0.54893 0.0
C683 C 1.00254 0.36049 0.51796 0.0
C684 C 0.17543 0.37863 0.31888 0.0
C685 C 0.17601 0.38015 0.36582 0.0
H686 H 0.15598 0.34196 0.26039 0.0
C687 C 0.15902 0.34435 0.38984 0.0
H688 H 0.1882 0.4056 0.29937 0.0
C689 C 0.14026 0.30794 0.36759 0.0
C690 C 0.1384 0.30636 0.32072 0.0
H691 H 0.15885 0.34433 0.42604 0.0
H692 H 0.12626 0.28101 0.3872 0.0
C693 C 0.15701 0.34211 0.29657 0.0
C694 C 0.68733 0.81049 0.39243 0.0
C695 C 0.65205 0.79234 0.36748 0.0
H696 H 0.75068 0.84114 0.39123 0.0
C697 C 0.65443 0.79397 0.32061 0.0
H698 H 0.68659 0.80974 0.42861 0.0
C699 C 0.69121 0.81221 0.29919 0.0
C700 C 0.72648 0.82899 0.32415 0.0
H701 H 0.62786 0.78034 0.30039 0.0
H702 H 0.69193 0.81204 0.26301 0.0
C703 C 0.72412 0.82848 0.37101 0.0
C704 C 0.22279 0.87777 0.28845 0.0
C705 C 0.20351 0.89423 0.31219 0.0
H706 H 0.25749 0.84941 0.29188 0.0
C707 C 0.20234 0.89168 0.35905 0.0
H708 H 0.22437 0.87932 0.25231 0.0
C709 C 0.22099 0.87411 0.38167 0.0
C710 C 0.24167 0.85913 0.358 0.0
H711 H 0.18776 0.90403 0.37833 0.0
H712 H 0.22034 0.87355 0.41786 0.0
C713 C 0.24185 0.86064 0.3111 0.0
C714 C 0.3891 0.17532 0.69483 0.0
C715 C 0.38953 0.17402 0.64796 0.0
H716 H 0.35399 0.15885 0.75428 0.0
C717 C 0.35324 0.15643 0.62486 0.0
H718 H 0.41647 0.18864 0.71363 0.0
C719 C 0.31735 0.13897 0.64813 0.0
C720 C 0.3169 0.13912 0.69505 0.0
H721 H 0.35246 0.15482 0.58871 0.0
H722 H 0.28997 0.12446 0.62938 0.0
C723 C 0.35322 0.15828 0.71809 0.0
C724 C 0.86724 0.23492 0.70304 0.0
C725 C 0.86677 0.2354 0.65609 0.0
H726 H 0.88506 0.21705 0.76229 0.0
C727 C 0.88326 0.2159 0.63281 0.0
H728 H 0.8549 0.24968 0.72201 0.0
C729 C 0.90105 0.19763 0.65586 0.0
C730 C 0.90229 0.1979 0.70279 0.0
H731 H 0.88362 0.21584 0.59662 0.0
H732 H 0.91443 0.18389 0.63686 0.0
C733 C 0.88452 0.21614 0.7261 0.0
C734 C 0.83965 0.72025 0.65432 0.0
C735 C 0.84401 0.72105 0.70098 0.0
H736 H 0.8167 0.68441 0.59552 0.0
C737 C 0.82979 0.68491 0.72389 0.0
H738 H 0.85013 0.74748 0.6357 0.0
C739 C 0.81027 0.64884 0.70107 0.0
C740 C 0.80484 0.64794 0.65464 0.0
H741 H 0.83254 0.68431 0.75987 0.0
H742 H 0.79874 0.62163 0.71998 0.0
C743 C 0.82047 0.68407 0.63136 0.0
C744 C 1.01487 0.4865 0.05444 0.0
C745 C 0.97907 0.46592 0.03062 0.0
H746 H 0.07825 0.51901 0.0514 0.0
C747 C 0.98045 0.46534 0.98374 0.0
H748 H 1.01492 0.48741 0.09061 0.0
C749 C 1.01676 0.48378 0.9613 0.0
C750 C 0.05263 0.50287 0.98518 0.0
H751 H 0.9535 0.44975 0.96438 0.0
H752 H 1.01668 0.48179 0.92519 0.0
C753 C 0.05124 0.50458 0.03199 0.0
C754 C 0.54115 0.53906 0.96497 0.0
C755 C 0.52615 0.56041 0.98726 0.0
H756 H 0.57209 0.50698 0.97039 0.0
C757 C 0.52866 0.56288 0.03406 0.0
H758 H 0.53985 0.53665 0.92887 0.0
C759 C 0.54679 0.54539 0.05789 0.0
C760 C 0.56331 0.52555 0.03538 0.0
H761 H 0.51748 0.57913 0.05221 0.0
H762 H 0.54914 0.54871 0.09388 0.0
C763 C 0.55975 0.52208 0.98871 0.0
C764 C 0.48332 0.01551 0.05031 0.0
C765 C 0.50256 0.05131 0.02625 0.0
H766 H 0.44989 0.95209 0.04749 0.0
C767 C 0.50455 0.04971 0.97951 0.0
H768 H 0.48109 0.01563 0.08638 0.0
C769 C 0.48697 1.01324 0.95729 0.0
C770 C 0.46657 0.97747 0.98123 0.0
H771 H 0.5191 0.07666 0.95997 0.0
H772 H 0.48842 1.01316 0.92115 0.0
C773 C 0.46534 0.97903 0.02805 0.0
C774 C 0.98469 0.15634 0.04949 0.0
C775 C 0.02506 0.17251 0.05935 0.0
H776 H 0.94031 0.13862 0.99848 0.0
C777 C 0.05186 0.18223 0.02391 0.0
H778 H 0.96342 0.14888 0.07615 0.0
C779 C 0.03855 0.17579 0.97956 0.0
C780 C 0.99827 0.16027 0.96967 0.0
H781 H 0.0831 0.19464 0.03054 0.0
H782 H 0.0599 0.18379 0.95288 0.0
C783 C 0.97149 0.15066 1.00511 0.0
C784 C 0.87195 0.873 0.98786 0.0
C785 C 0.87489 0.84008 0.97455 0.0
H786 H 0.8634 0.90391 0.0417 0.0
C787 C 0.87144 0.81271 1.00728 0.0
H788 H 0.87391 0.89443 0.96352 0.0
C789 C 0.86445 0.81765 0.05188 0.0
C790 C 0.86123 0.85039 0.06521 0.0
H791 H 0.87402 0.78728 0.99853 0.0
H792 H 0.86089 0.79527 0.07576 0.0
C793 C 0.86529 0.87813 0.03263 0.0
C794 C 0.16481 0.03471 0.9891 0.0
C795 C 0.19056 0.03005 0.96056 0.0
H796 H 0.13976 0.02521 0.05477 0.0
C797 C 0.20923 1.00959 0.97607 0.0
H798 H 0.15009 0.05035 0.97789 0.0
C799 C 0.20274 0.99456 0.0196 0.0
C800 C 0.178 1.00035 0.0486 0.0
H801 H 0.2289 1.00525 0.95447 0.0
H802 H 0.21807 0.97959 0.03107 0.0
C803 C 0.15893 0.02036 0.03292 0.0
C804 C 0.64926 0.48015 0.33271 0.0
C805 C 0.66935 0.51126 0.30224 0.0
H806 H 0.64535 0.46003 0.40002 0.0
C807 C 0.70079 0.54739 0.31752 0.0
H808 H 0.62517 0.45188 0.32162 0.0
C809 C 0.71209 0.55231 0.36237 0.0
C810 C 0.69246 0.52106 0.39296 0.0
H811 H 0.71642 0.57205 0.29478 0.0
H812 H 0.73588 0.58086 0.37312 0.0
C813 C 0.66085 0.4849 0.37756 0.0
C814 C 0.51865 0.21758 0.35015 0.0
C815 C 0.50821 0.18654 0.38059 0.0
H816 H 0.53373 0.23779 0.2827 0.0
C817 C 0.50365 0.15062 0.36497 0.0
H818 H 0.52277 0.24572 0.36137 0.0
C819 C 0.50953 0.14586 0.3199 0.0
C820 C 0.52041 0.17702 0.28935 0.0
H821 H 0.49503 0.12595 0.38756 0.0
H822 H 0.50487 0.11747 0.30895 0.0
C823 C 0.52489 0.21296 0.30508 0.0
C824 C 0.81578 0.35303 0.31965 0.0
C825 C 0.85087 0.36207 0.29711 0.0
H826 H 0.78234 0.33309 0.38032 0.0
C827 C 0.87967 0.35759 0.32029 0.0
H828 H 0.79302 0.35633 0.30304 0.0
C829 C 0.87371 0.34462 0.36468 0.0
C830 C 0.83869 0.33557 0.3873 0.0
H831 H 0.90679 0.36361 0.30395 0.0
H832 H 0.89693 0.34219 0.38145 0.0
C833 C 0.8098 0.34002 0.36418 0.0
C834 C 0.36506 0.87352 0.69198 0.0
C835 C 0.37304 0.84662 0.7143 0.0
H836 H 0.34649 0.88878 0.63183 0.0
C837 C 0.36644 0.81245 0.69131 0.0
H838 H 0.36893 0.89977 0.70869 0.0
C839 C 0.35235 0.80552 0.64722 0.0
C840 C 0.34464 0.83265 0.62488 0.0
H841 H 0.37244 0.79113 0.70717 0.0
H842 H 0.34725 0.77871 0.63083 0.0
C843 C 0.35133 0.86678 0.64795 0.0
C844 C 0.19499 0.53925 0.64663 0.0
C845 C 0.19 0.50282 0.63189 0.0
H846 H 0.19288 0.57318 0.70164 0.0
C847 C 0.17901 0.47227 0.66334 0.0
H848 H 0.20413 0.56374 0.62367 0.0
C849 C 0.1731 0.47798 0.70817 0.0
C850 C 0.17767 0.51422 0.72261 0.0
H851 H 0.1741 0.44358 0.65326 0.0
H852 H 0.16422 0.45371 0.73144 0.0
C853 C 0.18863 0.54477 0.69135 0.0
C854 C 0.46976 0.64751 0.68664 0.0
C855 C 0.50129 0.65522 0.71526 0.0
H856 H 0.45226 0.6539 0.62053 0.0
C857 C 0.54018 0.6773 0.69923 0.0
H858 H 0.43954 0.63059 0.69829 0.0
C859 C 0.54747 0.69126 0.65529 0.0
C860 C 0.51595 0.6828 0.62634 0.0
H861 H 0.565 0.68398 0.72086 0.0
H862 H 0.5777 0.70783 0.64359 0.0
C863 C 0.47702 0.6608 0.64234 0.0
C864 C 0.09466 0.04088 0.24019 0.0
C865 C 0.12653 0.03813 0.25766 0.0
H866 H 0.0694 0.07733 0.22847 0.0
C867 C 0.15691 0.07086 0.28009 0.0
H868 H 0.07072 0.01619 0.22274 0.0
C869 C 0.15614 0.10614 0.28334 0.0
C870 C 0.12487 0.10928 0.26449 0.0
H871 H 0.18191 0.06968 0.29382 0.0
H872 H 0.18021 0.13106 0.30026 0.0
C873 C 0.09379 0.07597 0.24364 0.0
C874 C 0.96771 0.07317 0.28731 0.0
C875 C 0.95727 0.10272 0.28769 0.0
H876 H 0.94701 1.01091 0.28362 0.0
C877 C 0.91719 0.09128 0.29182 0.0
H878 H 0.99828 0.08093 0.28415 0.0
C879 C 0.88801 0.05141 0.29184 0.0
C880 C 0.89804 0.02181 0.28745 0.0
H881 H 0.90814 0.11327 0.29288 0.0
H882 H 0.85736 0.04379 0.29323 0.0
C883 C 0.9383 0.033 0.28709 0.0
C884 C 0.9834 0.93032 0.27828 0.0
C885 C 0.94621 0.89589 0.27786 0.0
H886 H 0.04588 0.95502 0.27721 0.0
C887 C 0.94393 0.85888 0.27971 0.0
H888 H 0.98591 0.95918 0.27667 0.0
C889 C 0.97842 0.85642 0.27852 0.0
C890 C 1.01568 0.89092 0.27687 0.0
H891 H 0.91554 0.83184 0.27896 0.0
H892 H 0.97602 0.82764 0.27725 0.0
C893 C 1.01775 0.92787 0.27859 0.0
C894 C 0.06484 0.12233 0.75186 0.0
C895 C 0.07238 0.16144 0.75142 0.0
H896 H 0.09019 0.08472 0.75385 0.0
C897 C 0.11127 0.19251 0.74579 0.0
H898 H 0.03506 0.09792 0.7567 0.0
C899 C 0.14247 0.18509 0.74382 0.0
C900 C 0.1357 0.14642 0.74821 0.0
H901 H 0.11778 0.22291 0.7451 0.0
H902 H 0.17222 0.20995 0.7409 0.0
C903 C 0.09639 0.11485 0.75037 0.0
C904 C 0.91653 0.99245 0.74732 0.0
C905 C 0.88797 1.00188 0.76172 0.0
H906 H 0.93201 0.94702 0.74039 0.0
C907 C 0.85235 0.97155 0.77944 0.0
H908 H 0.94421 0.01508 0.73328 0.0
C909 C 0.84542 0.93317 0.78318 0.0
C910 C 0.87386 0.92359 0.7695 0.0
H911 H 0.82989 0.97749 0.79166 0.0
H912 H 0.81761 0.91096 0.79752 0.0
C913 C 0.90943 0.95349 0.75096 0.0
C914 C 0.08175 0.97113 0.74993 0.0
C915 C 0.11316 0.96352 0.74842 0.0
H916 H 1.01885 0.94593 0.75506 0.0
C917 C 0.10483 0.92439 0.74409 0.0
H918 H 0.08752 1.0011 0.75373 0.0
C919 C 0.06598 0.89314 0.7445 0.0
C920 C 0.03442 0.90015 0.74997 0.0
H921 H 0.12857 0.9178 0.74253 0.0
H922 H 0.06075 0.86327 0.74252 0.0
C923 C 0.04252 0.93956 0.75081 0.0
C924 C 0.87194 0.453 0.60521 0.0
C925 C 0.84164 0.41327 0.6044 0.0
H926 H 0.88744 0.51362 0.60698 0.0
C927 C 0.80231 0.40447 0.60865 0.0
H928 H 0.90257 0.46066 0.60248 0.0
C929 C 0.79344 0.43511 0.61025 0.0
C930 C 0.82382 0.47503 0.60808 0.0
H931 H 0.77832 0.37412 0.60776 0.0
H932 H 0.76276 0.42742 0.61055 0.0
C933 C 0.8632 0.48341 0.60746 0.0
C934 C 0.64907 0.39126 0.60085 0.0
C935 C 0.65145 0.42814 0.60351 0.0
H936 H 0.61161 0.32862 0.5984 0.0
C937 C 0.6166 0.42965 0.60921 0.0
H938 H 0.67549 0.38935 0.59622 0.0
C939 C 0.57973 0.39474 0.60927 0.0
C940 C 0.57725 0.35781 0.60485 0.0
H941 H 0.61767 0.45782 0.61077 0.0
H942 H 0.55311 0.39658 0.61143 0.0
C943 C 0.61244 0.35648 0.60218 0.0
C944 C 0.67854 0.27336 0.57599 0.0
C945 C 0.68042 0.24195 0.59623 0.0
H946 H 0.6421 0.29634 0.55433 0.0
C947 C 0.64552 0.2098 0.61321 0.0
H948 H 0.70472 0.29832 0.56208 0.0
C949 C 0.60935 0.20879 0.60913 0.0
C950 C 0.60745 0.23965 0.58739 0.0
H951 H 0.64618 0.18534 0.62928 0.0
H952 H 0.58278 0.18328 0.62157 0.0
C953 C 0.64251 0.27211 0.57138 0.0
C954 C 0.75098 0.42459 0.11 0.0
C955 C 0.78385 0.45529 0.0882 0.0
H956 H 0.69171 0.40191 0.13218 0.0
C957 C 0.78048 0.48638 0.06913 0.0
H958 H 0.75261 0.40043 0.12545 0.0
C959 C 0.74526 0.4872 0.07286 0.0
C960 C 0.71296 0.45713 0.09611 0.0
H961 H 0.80516 0.5102 0.05165 0.0
H962 H 0.7438 0.51197 0.05883 0.0
C963 C 0.71605 0.42557 0.11403 0.0
C964 C 0.60403 0.30798 0.08132 0.0
C965 C 0.56956 0.27088 0.07899 0.0
H966 H 0.62899 0.37056 0.08357 0.0
C967 C 0.53292 0.26895 0.0739 0.0
H968 H 0.63259 0.31023 0.08549 0.0
C969 C 0.5307 0.30364 0.07404 0.0
C970 C 0.56516 0.34078 0.078 0.0
H971 H 0.50583 0.24062 0.07262 0.0
H972 H 0.50206 0.30146 0.07235 0.0
C973 C 0.60191 0.34253 0.08014 0.0
C974 C 0.74597 0.29501 0.07204 0.0
C975 C 0.77628 0.28572 0.07333 0.0
H976 H 0.68342 0.27264 0.07296 0.0
C977 C 0.76615 0.24593 0.06989 0.0
H978 H 0.75281 0.32538 0.07487 0.0
C979 C 0.72666 0.21588 0.06829 0.0
C980 C 0.69607 0.22468 0.07073 0.0
H981 H 0.78886 0.23784 0.07022 0.0
H982 H 0.72011 0.18554 0.06693 0.0
C983 C 0.70616 0.26473 0.07092 0.0
C984 C 0.45594 0.75901 0.9385 0.0
C985 C 0.48289 0.79713 0.92249 0.0
H986 H 0.44339 0.69915 0.94763 0.0
C987 C 0.51834 0.80368 0.90317 0.0
H988 H 0.42844 0.75311 0.95368 0.0
C989 C 0.52688 0.77331 0.89993 0.0
C990 C 0.50027 0.73524 0.91585 0.0
H991 H 0.53946 0.83232 0.8897 0.0
H992 H 0.5545 0.7798 0.88451 0.0
C993 C 0.46468 0.72831 0.93545 0.0
C994 C 0.30108 0.7395 0.93679 0.0
C995 C 0.29464 0.77156 0.93285 0.0
H996 H 0.27448 0.67635 0.93877 0.0
C997 C 0.2558 0.76452 0.93487 0.0
H998 H 0.33074 0.74416 0.93485 0.0
C999 C 0.22378 0.72607 0.93743 0.0
C1000 C 0.22969 0.69355 0.93746 0.0
H1001 H 0.25007 0.78881 0.93228 0.0
H1002 H 0.19424 0.72176 0.9373 0.0
C1003 C 0.26879 0.7007 0.93896 0.0
C1004 C 0.27131 0.53584 0.94246 0.0
C1005 C 0.27178 0.5706 0.9295 0.0
H1006 H 0.30534 0.50717 0.95193 0.0
C1007 C 0.30803 0.60463 0.92002 0.0
H1008 H 0.24366 0.50906 0.94941 0.0
C1009 C 0.34311 0.60363 0.92192 0.0
C1010 C 0.34256 0.56835 0.93252 0.0
H1011 H 0.30915 0.63176 0.90982 0.0
H1012 H 0.37042 0.62997 0.91285 0.0
C1013 C 0.30643 0.53462 0.94349 0.0
C1014 C 0.41093 0.79551 0.40347 0.0
C1015 C 0.42031 0.83508 0.40754 0.0
H1016 H 0.43291 0.75512 0.40286 0.0
C1017 C 0.46019 0.86496 0.40734 0.0
H1018 H 0.38045 0.77183 0.40383 0.0
C1019 C 0.49013 0.85554 0.40617 0.0
C1020 C 0.48106 0.81591 0.40596 0.0
H1021 H 0.46832 0.89576 0.40993 0.0
H1022 H 0.5205 0.87941 0.40736 0.0
C1023 C 0.44107 0.78597 0.40288 0.0
C1024 C 0.21557 0.60233 0.40222 0.0
C1025 C 0.2459 0.59991 0.4245 0.0
H1026 H 0.19294 0.63977 0.38173 0.0
C1027 C 0.27836 0.63475 0.44105 0.0
H1028 H 0.19008 0.57596 0.38934 0.0
C1029 C 0.28008 0.67105 0.4365 0.0
C1030 C 0.24912 0.6734 0.4158 0.0
H1031 H 0.30219 0.63394 0.45853 0.0
H1032 H 0.30497 0.69703 0.45086 0.0
C1033 C 0.21704 0.63874 0.3982 0.0
C1034 C 0.43313 0.60745 0.40779 0.0
C1035 C 0.43122 0.64225 0.41203 0.0
H1036 H 0.40054 0.5439 0.40621 0.0
C1037 C 0.39423 0.63965 0.41247 0.0
H1038 H 0.46136 0.60866 0.4079 0.0
C1039 C 0.3597 0.60285 0.41048 0.0
C1040 C 0.36135 0.56775 0.40941 0.0
H1041 H 0.392 0.66603 0.41586 0.0
H1042 H 0.33169 0.60188 0.41252 0.0
C1043 C 0.39844 0.57044 0.40711 0.0
loop_
_geom_bond_atom_site_label_1
_geom_bond_atom_site_label_2
_geom_bond_distance
_geom_bond_site_symmetry_2
_ccdc_geom_bond_type
Co0 N4 2.148 1_455 S
Co0 N10 2.128 . S
Co0 N20 2.194 . S
Co0 O25 2.351 . S
Co0 O26 2.155 . S
Co0 O27 2.096 1_455 S
C1 N4 1.301 . S
C1 N5 1.328 . S
C1 H6 0.930 1_655 S
C2 C3 1.333 . S
C2 N4 1.317 . S
C2 H7 0.930 . S
C3 C2 1.333 . S
C3 N5 1.350 . S
C3 H29 0.931 . S
N4 Co0 2.148 1_655 S
N4 C1 1.301 . S
N4 C2 1.317 . S
N5 C1 1.328 . S
N5 C3 1.350 . S
H6 C1 0.930 1_455 S
H7 C2 0.930 . S
C8 O9 1.224 . S
C8 O27 1.247 . S
O9 C8 1.224 . S
N10 Co0 2.128 . S
N10 C11 1.355 . S
N10 C13 1.311 . S
C11 N10 1.355 . S
C11 C12 1.363 . S
C11 H23 0.929 . S
C12 C11 1.363 . S
C12 N14 1.375 . S
C12 H30 0.931 . S
C13 N10 1.311 . S
C13 N14 1.347 . S
C13 H24 0.929 . S
N14 C12 1.375 . S
N14 C13 1.347 . S
C15 C18 1.365 . S
C15 N20 1.328 . S
C15 H21 0.929 . S
C16 C17 1.362 . S
C16 C19 1.378 . S
C16 H31 0.929 . S
C17 C16 1.362 . S
C17 C18 1.366 . S
C18 C15 1.365 . S
C18 C17 1.366 . S
C18 H32 0.930 . S
C19 C16 1.378 . S
C19 N20 1.315 . S
C19 H22 0.930 1_455 S
N20 Co0 2.194 . S
N20 C15 1.328 . S
N20 C19 1.315 . S
H21 C15 0.929 . S
H22 C19 0.930 1_655 S
H23 C11 0.929 . S
H24 C13 0.929 . S
O25 Co0 2.351 . S
O25 C28 1.244 . S
O26 Co0 2.155 . S
O26 C28 1.240 . S
O27 Co0 2.096 1_655 S
O27 C8 1.247 . S
C28 O25 1.244 . S
C28 O26 1.240 . S
H29 C3 0.931 . S
H30 C12 0.931 . S
H31 C16 0.929 . S
H32 C18 0.930 . S
Co33 N37 2.148 . S
Co33 N43 2.128 . S
Co33 N53 2.194 . S
Co33 O58 2.351 . S
Co33 O59 2.155 . S
Co33 O60 2.096 . S
C34 N37 1.301 . S
C34 N38 1.328 . S
C34 H39 0.930 . S
C35 C36 1.333 . S
C35 N37 1.317 . S
C35 H40 0.930 . S
C36 C35 1.333 . S
C36 N38 1.350 . S
C36 H62 0.931 . S
N37 Co33 2.148 . S
N37 C34 1.301 . S
N37 C35 1.317 . S
N38 C34 1.328 . S
N38 C36 1.350 . S
H39 C34 0.930 . S
H40 C35 0.930 . S
C41 O42 1.224 . S
C41 O60 1.247 . S
O42 C41 1.224 . S
N43 Co33 2.128 . S
N43 C44 1.355 . S
N43 C46 1.311 . S
C44 N43 1.355 . S
C44 C45 1.363 . S
C44 H56 0.929 . S
C45 C44 1.363 . S
C45 N47 1.375 . S
C45 H63 0.931 . S
C46 N43 1.311 . S
C46 N47 1.347 . S
C46 H57 0.929 . S
N47 C45 1.375 . S
N47 C46 1.347 . S
C48 C51 1.365 . S
C48 N53 1.328 . S
C48 H54 0.929 . S
C49 C50 1.362 . S
C49 C52 1.378 . S
C49 H64 0.929 . S
C50 C49 1.362 . S
C50 C51 1.366 . S
C51 C48 1.365 . S
C51 C50 1.366 . S
C51 H65 0.930 . S
C52 C49 1.378 . S
C52 N53 1.315 . S
C52 H55 0.930 . S
N53 Co33 2.194 . S
N53 C48 1.328 . S
N53 C52 1.315 . S
H54 C48 0.929 . S
H55 C52 0.930 . S
H56 C44 0.929 . S
H57 C46 0.929 . S
O58 Co33 2.351 . S
O58 C61 1.244 . S
O59 Co33 2.155 . S
O59 C61 1.240 . S
O60 Co33 2.096 . S
O60 C41 1.247 . S
C61 O58 1.244 . S
C61 O59 1.240 . S
H62 C36 0.931 . S
H63 C45 0.931 . S
H64 C49 0.929 . S
H65 C51 0.930 . S
Co66 N70 2.148 1_565 S
Co66 N76 2.128 . S
Co66 N86 2.194 . S
Co66 O91 2.351 . S
Co66 O92 2.155 . S
Co66 O93 2.096 1_565 S
C67 N70 1.301 . S
C67 N71 1.328 . S
C67 H72 0.930 1_545 S
C68 C69 1.333 . S
C68 N70 1.317 . S
C68 H73 0.930 . S
C69 C68 1.333 . S
C69 N71 1.350 . S
C69 H95 0.931 . S
N70 Co66 2.148 1_545 S
N70 C67 1.301 . S
N70 C68 1.317 . S
N71 C67 1.328 . S
N71 C69 1.350 . S
H72 C67 0.930 1_565 S
H73 C68 0.930 . S
C74 O75 1.224 . S
C74 O93 1.247 . S
O75 C74 1.224 . S
N76 Co66 2.128 . S
N76 C77 1.355 . S
N76 C79 1.311 . S
C77 N76 1.355 . S
C77 C78 1.363 . S
C77 H89 0.929 . S
C78 C77 1.363 . S
C78 N80 1.375 . S
C78 H96 0.931 . S
C79 N76 1.311 . S
C79 N80 1.347 . S
C79 H90 0.929 . S
N80 C78 1.375 . S
N80 C79 1.347 . S
C81 C84 1.365 . S
C81 N86 1.328 . S
C81 H87 0.929 . S
C82 C83 1.362 . S
C82 C85 1.378 . S
C82 H97 0.929 . S
C83 C82 1.362 . S
C83 C84 1.366 . S
C84 C81 1.365 . S
C84 C83 1.366 . S
C84 H98 0.930 . S
C85 C82 1.378 . S
C85 N86 1.315 . S
C85 H88 0.930 1_565 S
N86 Co66 2.194 . S
N86 C81 1.328 . S
N86 C85 1.315 . S
H87 C81 0.929 . S
H88 C85 0.930 1_545 S
H89 C77 0.929 . S
H90 C79 0.929 . S
O91 Co66 2.351 . S
O91 C94 1.244 . S
O92 Co66 2.155 . S
O92 C94 1.240 . S
O93 Co66 2.096 1_545 S
O93 C74 1.247 . S
C94 O91 1.244 . S
C94 O92 1.240 . S
H95 C69 0.931 . S
H96 C78 0.931 . S
H97 C82 0.929 . S
H98 C84 0.930 . S
Co99 N103 2.148 1_545 S
Co99 N109 2.128 . S
Co99 N119 2.194 . S
Co99 O124 2.351 . S
Co99 O125 2.155 . S
Co99 O126 2.096 1_545 S
C100 N103 1.301 . S
C100 N104 1.328 . S
C100 H105 0.930 1_565 S
C101 C102 1.333 . S
C101 N103 1.317 . S
C101 H106 0.930 . S
C102 C101 1.333 . S
C102 N104 1.350 . S
C102 H128 0.931 . S
N103 Co99 2.148 1_565 S
N103 C100 1.301 . S
N103 C101 1.317 . S
N104 C100 1.328 . S
N104 C102 1.350 . S
H105 C100 0.930 1_545 S
H106 C101 0.930 . S
C107 O108 1.224 . S
C107 O126 1.247 . S
O108 C107 1.224 . S
N109 Co99 2.128 . S
N109 C110 1.355 . S
N109 C112 1.311 . S
C110 N109 1.355 . S
C110 C111 1.363 . S
C110 H122 0.929 . S
C111 C110 1.363 . S
C111 N113 1.375 . S
C111 H129 0.931 . S
C112 N109 1.311 . S
C112 N113 1.347 . S
C112 H123 0.929 . S
N113 C111 1.375 . S
N113 C112 1.347 . S
C114 C117 1.365 . S
C114 N119 1.328 . S
C114 H120 0.929 . S
C115 C116 1.362 . S
C115 C118 1.378 . S
C115 H130 0.929 . S
C116 C115 1.362 . S
C116 C117 1.366 . S
C117 C114 1.365 . S
C117 C116 1.366 . S
C117 H131 0.930 . S
C118 C115 1.378 . S
C118 N119 1.315 . S
C118 H121 0.930 1_545 S
N119 Co99 2.194 . S
N119 C114 1.328 . S
N119 C118 1.315 . S
H120 C114 0.929 . S
H121 C118 0.930 1_565 S
H122 C110 0.929 . S
H123 C112 0.929 . S
O124 Co99 2.351 . S
O124 C127 1.244 . S
O125 Co99 2.155 . S
O125 C127 1.240 . S
O126 Co99 2.096 1_565 S
O126 C107 1.247 . S
C127 O124 1.244 . S
C127 O125 1.240 . S
H128 C102 0.931 . S
H129 C111 0.931 . S
H130 C115 0.929 . S
H131 C117 0.930 . S
Co132 N136 2.148 1_655 S
Co132 N142 2.128 . S
Co132 N152 2.194 . S
Co132 O157 2.351 . S
Co132 O158 2.155 . S
Co132 O159 2.096 1_655 S
C133 N136 1.301 . S
C133 N137 1.328 . S
C133 H138 0.930 1_455 S
C134 C135 1.333 . S
C134 N136 1.317 . S
C134 H139 0.930 . S
C135 C134 1.333 . S
C135 N137 1.350 . S
C135 H161 0.931 . S
N136 Co132 2.148 1_455 S
N136 C133 1.301 . S
N136 C134 1.317 . S
N137 C133 1.328 . S
N137 C135 1.350 . S
H138 C133 0.930 1_655 S
H139 C134 0.930 . S
C140 O141 1.224 . S
C140 O159 1.247 . S
O141 C140 1.224 . S
N142 Co132 2.128 . S
N142 C143 1.355 . S
N142 C145 1.311 . S
C143 N142 1.355 . S
C143 C144 1.363 . S
C143 H155 0.929 . S
C144 C143 1.363 . S
C144 N146 1.375 . S
C144 H162 0.931 . S
C145 N142 1.311 . S
C145 N146 1.347 . S
C145 H156 0.929 . S
N146 C144 1.375 . S
N146 C145 1.347 . S
C147 C150 1.365 . S
C147 N152 1.328 . S
C147 H153 0.929 . S
C148 C149 1.362 . S
C148 C151 1.378 . S
C148 H163 0.929 . S
C149 C148 1.362 . S
C149 C150 1.366 . S
C150 C147 1.365 . S
C150 C149 1.366 . S
C150 H164 0.930 . S
C151 C148 1.378 . S
C151 N152 1.315 . S
C151 H154 0.930 1_655 S
N152 Co132 2.194 . S
N152 C147 1.328 . S
N152 C151 1.315 . S
H153 C147 0.929 . S
H154 C151 0.930 1_455 S
H155 C143 0.929 . S
H156 C145 0.929 . S
O157 Co132 2.351 . S
O157 C160 1.244 . S
O158 Co132 2.155 . S
O158 C160 1.240 . S
O159 Co132 2.096 1_455 S
O159 C140 1.247 . S
C160 O157 1.244 . S
C160 O158 1.240 . S
H161 C135 0.931 . S
H162 C144 0.931 . S
H163 C148 0.929 . S
H164 C150 0.930 . S
Co165 N169 2.148 . S
Co165 N175 2.128 . S
Co165 N185 2.194 . S
Co165 O190 2.351 . S
Co165 O191 2.155 . S
Co165 O192 2.096 . S
C166 N169 1.301 . S
C166 N170 1.328 . S
C166 H171 0.930 . S
C167 C168 1.333 . S
C167 N169 1.317 . S
C167 H172 0.930 . S
C168 C167 1.333 . S
C168 N170 1.350 . S
C168 H194 0.931 . S
N169 Co165 2.148 . S
N169 C166 1.301 . S
N169 C167 1.317 . S
N170 C166 1.328 . S
N170 C168 1.350 . S
H171 C166 0.930 . S
H172 C167 0.930 . S
C173 O174 1.224 . S
C173 O192 1.247 . S
O174 C173 1.224 . S
N175 Co165 2.128 . S
N175 C176 1.355 . S
N175 C178 1.311 . S
C176 N175 1.355 . S
C176 C177 1.363 . S
C176 H188 0.929 . S
C177 C176 1.363 . S
C177 N179 1.375 . S
C177 H195 0.931 . S
C178 N175 1.311 . S
C178 N179 1.347 . S
C178 H189 0.929 . S
N179 C177 1.375 . S
N179 C178 1.347 . S
C180 C183 1.365 . S
C180 N185 1.328 . S
C180 H186 0.929 . S
C181 C182 1.362 . S
C181 C184 1.378 . S
C181 H196 0.929 . S
C182 C181 1.362 . S
C182 C183 1.366 . S
C183 C180 1.365 . S
C183 C182 1.366 . S
C183 H197 0.930 . S
C184 C181 1.378 . S
C184 N185 1.315 . S
C184 H187 0.930 . S
N185 Co165 2.194 . S
N185 C180 1.328 . S
N185 C184 1.315 . S
H186 C180 0.929 . S
H187 C184 0.930 . S
H188 C176 0.929 . S
H189 C178 0.929 . S
O190 Co165 2.351 . S
O190 C193 1.244 . S
O191 Co165 2.155 . S
O191 C193 1.240 . S
O192 Co165 2.096 . S
O192 C173 1.247 . S
C193 O190 1.244 . S
C193 O191 1.240 . S
H194 C168 0.931 . S
H195 C177 0.931 . S
H196 C181 0.929 . S
H197 C183 0.930 . S
Co198 N202 2.148 . S
Co198 N208 2.128 . S
Co198 N218 2.194 . S
Co198 O223 2.351 . S
Co198 O224 2.155 . S
Co198 O225 2.096 . S
C199 N202 1.301 . S
C199 N203 1.328 . S
C199 H204 0.930 . S
C200 C201 1.333 . S
C200 N202 1.317 . S
C200 H205 0.930 . S
C201 C200 1.333 . S
C201 N203 1.350 . S
C201 H227 0.931 . S
N202 Co198 2.148 . S
N202 C199 1.301 . S
N202 C200 1.317 . S
N203 C199 1.328 . S
N203 C201 1.350 . S
H204 C199 0.930 . S
H205 C200 0.930 . S
C206 O207 1.224 . S
C206 O225 1.247 . S
O207 C206 1.224 . S
N208 Co198 2.128 . S
N208 C209 1.355 . S
N208 C211 1.311 . S
C209 N208 1.355 . S
C209 C210 1.363 . S
C209 H221 0.929 . S
C210 C209 1.363 . S
C210 N212 1.375 . S
C210 H228 0.931 . S
C211 N208 1.311 . S
C211 N212 1.347 . S
C211 H222 0.929 . S
N212 C210 1.375 . S
N212 C211 1.347 . S
C213 C216 1.365 . S
C213 N218 1.328 . S
C213 H219 0.929 . S
C214 C215 1.362 . S
C214 C217 1.378 . S
C214 H229 0.929 . S
C215 C214 1.362 . S
C215 C216 1.366 . S
C216 C213 1.365 . S
C216 C215 1.366 . S
C216 H230 0.930 . S
C217 C214 1.378 . S
C217 N218 1.315 . S
C217 H220 0.930 . S
N218 Co198 2.194 . S
N218 C213 1.328 . S
N218 C217 1.315 . S
H219 C213 0.929 . S
H220 C217 0.930 . S
H221 C209 0.929 . S
H222 C211 0.929 . S
O223 Co198 2.351 . S
O223 C226 1.244 . S
O224 Co198 2.155 . S
O224 C226 1.240 . S
O225 Co198 2.096 . S
O225 C206 1.247 . S
C226 O223 1.244 . S
C226 O224 1.240 . S
H227 C201 0.931 . S
H228 C210 0.931 . S
H229 C214 0.929 . S
H230 C216 0.930 . S
Co231 N235 2.148 . S
Co231 N241 2.128 . S
Co231 N251 2.194 . S
Co231 O256 2.351 . S
Co231 O257 2.155 . S
Co231 O258 2.096 . S
C232 N235 1.301 . S
C232 N236 1.328 . S
C232 H237 0.930 . S
C233 C234 1.333 . S
C233 N235 1.317 . S
C233 H238 0.930 . S
C234 C233 1.333 . S
C234 N236 1.350 . S
C234 H260 0.931 . S
N235 Co231 2.148 . S
N235 C232 1.301 . S
N235 C233 1.317 . S
N236 C232 1.328 . S
N236 C234 1.350 . S
H237 C232 0.930 . S
H238 C233 0.930 . S
C239 O240 1.224 . S
C239 O258 1.247 . S
O240 C239 1.224 . S
N241 Co231 2.128 . S
N241 C242 1.355 . S
N241 C244 1.311 . S
C242 N241 1.355 . S
C242 C243 1.363 . S
C242 H254 0.929 . S
C243 C242 1.363 . S
C243 N245 1.375 . S
C243 H261 0.931 . S
C244 N241 1.311 . S
C244 N245 1.347 . S
C244 H255 0.929 . S
N245 C243 1.375 . S
N245 C244 1.347 . S
C246 C249 1.365 . S
C246 N251 1.328 . S
C246 H252 0.929 . S
C247 C248 1.362 . S
C247 C250 1.378 . S
C247 H262 0.929 . S
C248 C247 1.362 . S
C248 C249 1.366 . S
C249 C246 1.365 . S
C249 C248 1.366 . S
C249 H263 0.930 . S
C250 C247 1.378 . S
C250 N251 1.315 . S
C250 H253 0.930 . S
N251 Co231 2.194 . S
N251 C246 1.328 . S
N251 C250 1.315 . S
H252 C246 0.929 . S
H253 C250 0.930 . S
H254 C242 0.929 . S
H255 C244 0.929 . S
O256 Co231 2.351 . S
O256 C259 1.244 . S
O257 Co231 2.155 . S
O257 C259 1.240 . S
O258 Co231 2.096 . S
O258 C239 1.247 . S
C259 O256 1.244 . S
C259 O257 1.240 . S
H260 C234 0.931 . S
H261 C243 0.931 . S
H262 C247 0.929 . S
H263 C249 0.930 . S
Co264 N268 2.148 . S
Co264 N274 2.128 . S
Co264 N284 2.194 . S
Co264 O289 2.351 . S
Co264 O290 2.155 . S
Co264 O291 2.096 . S
C265 N268 1.301 . S
C265 N269 1.328 . S
C265 H270 0.930 . S
C266 C267 1.333 . S
C266 N268 1.317 . S
C266 H271 0.930 . S
C267 C266 1.333 . S
C267 N269 1.350 . S
C267 H293 0.931 . S
N268 Co264 2.148 . S
N268 C265 1.301 . S
N268 C266 1.317 . S
N269 C265 1.328 . S
N269 C267 1.350 . S
H270 C265 0.930 . S
H271 C266 0.930 . S
C272 O273 1.224 . S
C272 O291 1.247 . S
O273 C272 1.224 . S
N274 Co264 2.128 . S
N274 C275 1.355 . S
N274 C277 1.311 . S
C275 N274 1.355 . S
C275 C276 1.363 . S
C275 H287 0.929 . S
C276 C275 1.363 . S
C276 N278 1.375 . S
C276 H294 0.931 . S
C277 N274 1.311 . S
C277 N278 1.347 . S
C277 H288 0.929 . S
N278 C276 1.375 . S
N278 C277 1.347 . S
C279 C282 1.365 . S
C279 N284 1.328 . S
C279 H285 0.929 . S
C280 C281 1.362 . S
C280 C283 1.378 . S
C280 H295 0.929 . S
C281 C280 1.362 . S
C281 C282 1.366 . S
C282 C279 1.365 . S
C282 C281 1.366 . S
C282 H296 0.930 . S
C283 C280 1.378 . S
C283 N284 1.315 . S
C283 H286 0.930 . S
N284 Co264 2.194 . S
N284 C279 1.328 . S
N284 C283 1.315 . S
H285 C279 0.929 . S
H286 C283 0.930 . S
H287 C275 0.929 . S
H288 C277 0.929 . S
O289 Co264 2.351 . S
O289 C292 1.244 . S
O290 Co264 2.155 . S
O290 C292 1.240 . S
O291 Co264 2.096 . S
O291 C272 1.247 . S
C292 O289 1.244 . S
C292 O290 1.240 . S
H293 C267 0.931 . S
H294 C276 0.931 . S
H295 C280 0.929 . S
H296 C282 0.930 . S
Co297 N301 2.148 . S
Co297 N307 2.128 . S
Co297 N317 2.194 . S
Co297 O322 2.351 . S
Co297 O323 2.155 . S
Co297 O324 2.096 . S
C298 N301 1.301 . S
C298 N302 1.328 . S
C298 H303 0.930 . S
C299 C300 1.333 . S
C299 N301 1.317 . S
C299 H304 0.930 . S
C300 C299 1.333 . S
C300 N302 1.350 . S
C300 H326 0.931 . S
N301 Co297 2.148 . S
N301 C298 1.301 . S
N301 C299 1.317 . S
N302 C298 1.328 . S
N302 C300 1.350 . S
H303 C298 0.930 . S
H304 C299 0.930 . S
C305 O306 1.224 . S
C305 O324 1.247 . S
O306 C305 1.224 . S
N307 Co297 2.128 . S
N307 C308 1.355 . S
N307 C310 1.311 . S
C308 N307 1.355 . S
C308 C309 1.363 . S
C308 H320 0.929 . S
C309 C308 1.363 . S
C309 N311 1.375 . S
C309 H327 0.931 . S
C310 N307 1.311 . S
C310 N311 1.347 . S
C310 H321 0.929 . S
N311 C309 1.375 . S
N311 C310 1.347 . S
C312 C315 1.365 . S
C312 N317 1.328 . S
C312 H318 0.929 . S
C313 C314 1.362 . S
C313 C316 1.378 . S
C313 H328 0.929 . S
C314 C313 1.362 . S
C314 C315 1.366 . S
C315 C312 1.365 . S
C315 C314 1.366 . S
C315 H329 0.930 . S
C316 C313 1.378 . S
C316 N317 1.315 . S
C316 H319 0.930 . S
N317 Co297 2.194 . S
N317 C312 1.328 . S
N317 C316 1.315 . S
H318 C312 0.929 . S
H319 C316 0.930 . S
H320 C308 0.929 . S
H321 C310 0.929 . S
O322 Co297 2.351 . S
O322 C325 1.244 . S
O323 Co297 2.155 . S
O323 C325 1.240 . S
O324 Co297 2.096 . S
O324 C305 1.247 . S
C325 O322 1.244 . S
C325 O323 1.240 . S
H326 C300 0.931 . S
H327 C309 0.931 . S
H328 C313 0.929 . S
H329 C315 0.930 . S
Co330 N334 2.148 . S
Co330 N340 2.128 . S
Co330 N350 2.194 . S
Co330 O355 2.351 . S
Co330 O356 2.155 . S
Co330 O357 2.096 . S
C331 N334 1.301 . S
C331 N335 1.328 . S
C331 H336 0.930 . S
C332 C333 1.333 . S
C332 N334 1.317 . S
C332 H337 0.930 . S
C333 C332 1.333 . S
C333 N335 1.350 . S
C333 H359 0.931 . S
N334 Co330 2.148 . S
N334 C331 1.301 . S
N334 C332 1.317 . S
N335 C331 1.328 . S
N335 C333 1.350 . S
H336 C331 0.930 . S
H337 C332 0.930 . S
C338 O339 1.224 . S
C338 O357 1.247 . S
O339 C338 1.224 . S
N340 Co330 2.128 . S
N340 C341 1.355 . S
N340 C343 1.311 . S
C341 N340 1.355 . S
C341 C342 1.363 . S
C341 H353 0.929 . S
C342 C341 1.363 . S
C342 N344 1.375 . S
C342 H360 0.931 . S
C343 N340 1.311 . S
C343 N344 1.347 . S
C343 H354 0.929 . S
N344 C342 1.375 . S
N344 C343 1.347 . S
C345 C348 1.365 . S
C345 N350 1.328 . S
C345 H351 0.929 . S
C346 C347 1.362 . S
C346 C349 1.378 . S
C346 H361 0.929 . S
C347 C346 1.362 . S
C347 C348 1.366 . S
C348 C345 1.365 . S
C348 C347 1.366 . S
C348 H362 0.930 . S
C349 C346 1.378 . S
C349 N350 1.315 . S
C349 H352 0.930 . S
N350 Co330 2.194 . S
N350 C345 1.328 . S
N350 C349 1.315 . S
H351 C345 0.929 . S
H352 C349 0.930 . S
H353 C341 0.929 . S
H354 C343 0.929 . S
O355 Co330 2.351 . S
O355 C358 1.244 . S
O356 Co330 2.155 . S
O356 C358 1.240 . S
O357 Co330 2.096 . S
O357 C338 1.247 . S
C358 O355 1.244 . S
C358 O356 1.240 . S
H359 C333 0.931 . S
H360 C342 0.931 . S
H361 C346 0.929 . S
H362 C348 0.930 . S
Co363 N367 2.148 . S
Co363 N373 2.128 . S
Co363 N383 2.194 . S
Co363 O388 2.351 . S
Co363 O389 2.155 . S
Co363 O390 2.096 . S
C364 N367 1.301 . S
C364 N368 1.328 . S
C364 H369 0.930 . S
C365 C366 1.333 . S
C365 N367 1.317 . S
C365 H370 0.930 . S
C366 C365 1.333 . S
C366 N368 1.350 . S
C366 H392 0.931 . S
N367 Co363 2.148 . S
N367 C364 1.301 . S
N367 C365 1.317 . S
N368 C364 1.328 . S
N368 C366 1.350 . S
H369 C364 0.930 . S
H370 C365 0.930 . S
C371 O372 1.224 . S
C371 O390 1.247 . S
O372 C371 1.224 . S
N373 Co363 2.128 . S
N373 C374 1.355 . S
N373 C376 1.311 . S
C374 N373 1.355 . S
C374 C375 1.363 . S
C374 H386 0.929 . S
C375 C374 1.363 . S
C375 N377 1.375 . S
C375 H393 0.931 . S
C376 N373 1.311 . S
C376 N377 1.347 . S
C376 H387 0.929 . S
N377 C375 1.375 . S
N377 C376 1.347 . S
C378 C381 1.365 . S
C378 N383 1.328 . S
C378 H384 0.929 . S
C379 C380 1.362 . S
C379 C382 1.378 . S
C379 H394 0.929 . S
C380 C379 1.362 . S
C380 C381 1.366 . S
C381 C378 1.365 . S
C381 C380 1.366 . S
C381 H395 0.930 . S
C382 C379 1.378 . S
C382 N383 1.315 . S
C382 H385 0.930 . S
N383 Co363 2.194 . S
N383 C378 1.328 . S
N383 C382 1.315 . S
H384 C378 0.929 . S
H385 C382 0.930 . S
H386 C374 0.929 . S
H387 C376 0.929 . S
O388 Co363 2.351 . S
O388 C391 1.244 . S
O389 Co363 2.155 . S
O389 C391 1.240 . S
O390 Co363 2.096 . S
O390 C371 1.247 . S
C391 O388 1.244 . S
C391 O389 1.240 . S
H392 C366 0.931 . S
H393 C375 0.931 . S
H394 C379 0.929 . S
H395 C381 0.930 . S
Co396 N400 2.148 . S
Co396 N406 2.128 . S
Co396 N416 2.194 . S
Co396 O421 2.351 . S
Co396 O422 2.155 . S
Co396 O423 2.096 . S
C397 N400 1.301 . S
C397 N401 1.328 . S
C397 H402 0.930 . S
C398 C399 1.333 . S
C398 N400 1.317 . S
C398 H403 0.930 . S
C399 C398 1.333 . S
C399 N401 1.350 . S
C399 H425 0.931 . S
N400 Co396 2.148 . S
N400 C397 1.301 . S
N400 C398 1.317 . S
N401 C397 1.328 . S
N401 C399 1.350 . S
H402 C397 0.930 . S
H403 C398 0.930 . S
C404 O405 1.224 . S
C404 O423 1.247 . S
O405 C404 1.224 . S
N406 Co396 2.128 . S
N406 C407 1.355 . S
N406 C409 1.311 . S
C407 N406 1.355 . S
C407 C408 1.363 . S
C407 H419 0.929 . S
C408 C407 1.363 . S
C408 N410 1.375 . S
C408 H426 0.931 . S
C409 N406 1.311 . S
C409 N410 1.347 . S
C409 H420 0.929 . S
N410 C408 1.375 . S
N410 C409 1.347 . S
C411 C414 1.365 . S
C411 N416 1.328 . S
C411 H417 0.929 . S
C412 C413 1.362 . S
C412 C415 1.378 . S
C412 H427 0.929 . S
C413 C412 1.362 . S
C413 C414 1.366 . S
C414 C411 1.365 . S
C414 C413 1.366 . S
C414 H428 0.930 . S
C415 C412 1.378 . S
C415 N416 1.315 . S
C415 H418 0.930 . S
N416 Co396 2.194 . S
N416 C411 1.328 . S
N416 C415 1.315 . S
H417 C411 0.929 . S
H418 C415 0.930 . S
H419 C407 0.929 . S
H420 C409 0.929 . S
O421 Co396 2.351 . S
O421 C424 1.244 . S
O422 Co396 2.155 . S
O422 C424 1.240 . S
O423 Co396 2.096 . S
O423 C404 1.247 . S
C424 O421 1.244 . S
C424 O422 1.240 . S
H425 C399 0.931 . S
H426 C408 0.931 . S
H427 C412 0.929 . S
H428 C414 0.930 . S
Co429 N433 2.148 . S
Co429 N439 2.128 . S
Co429 N449 2.194 . S
Co429 O454 2.351 . S
Co429 O455 2.155 . S
Co429 O456 2.096 . S
C430 N433 1.301 . S
C430 N434 1.328 . S
C430 H435 0.930 . S
C431 C432 1.333 . S
C431 N433 1.317 . S
C431 H436 0.930 . S
C432 C431 1.333 . S
C432 N434 1.350 . S
C432 H458 0.931 . S
N433 Co429 2.148 . S
N433 C430 1.301 . S
N433 C431 1.317 . S
N434 C430 1.328 . S
N434 C432 1.350 . S
H435 C430 0.930 . S
H436 C431 0.930 . S
C437 O438 1.224 . S
C437 O456 1.247 . S
O438 C437 1.224 . S
N439 Co429 2.128 . S
N439 C440 1.355 . S
N439 C442 1.311 . S
C440 N439 1.355 . S
C440 C441 1.363 . S
C440 H452 0.929 . S
C441 C440 1.363 . S
C441 N443 1.375 . S
C441 H459 0.931 . S
C442 N439 1.311 . S
C442 N443 1.347 . S
C442 H453 0.929 . S
N443 C441 1.375 . S
N443 C442 1.347 . S
C444 C447 1.365 . S
C444 N449 1.328 . S
C444 H450 0.929 . S
C445 C446 1.362 . S
C445 C448 1.378 . S
C445 H460 0.929 . S
C446 C445 1.362 . S
C446 C447 1.366 . S
C447 C444 1.365 . S
C447 C446 1.366 . S
C447 H461 0.930 . S
C448 C445 1.378 . S
C448 N449 1.315 . S
C448 H451 0.930 . S
N449 Co429 2.194 . S
N449 C444 1.328 . S
N449 C448 1.315 . S
H450 C444 0.929 . S
H451 C448 0.930 . S
H452 C440 0.929 . S
H453 C442 0.929 . S
O454 Co429 2.351 . S
O454 C457 1.244 . S
O455 Co429 2.155 . S
O455 C457 1.240 . S
O456 Co429 2.096 . S
O456 C437 1.247 . S
C457 O454 1.244 . S
C457 O455 1.240 . S
H458 C432 0.931 . S
H459 C441 0.931 . S
H460 C445 0.929 . S
H461 C447 0.930 . S
Co462 N466 2.148 . S
Co462 N472 2.128 . S
Co462 N482 2.194 . S
Co462 O487 2.351 . S
Co462 O488 2.155 . S
Co462 O489 2.096 . S
C463 N466 1.301 . S
C463 N467 1.328 . S
C463 H468 0.930 . S
C464 C465 1.333 . S
C464 N466 1.317 . S
C464 H469 0.930 . S
C465 C464 1.333 . S
C465 N467 1.350 . S
C465 H491 0.931 . S
N466 Co462 2.148 . S
N466 C463 1.301 . S
N466 C464 1.317 . S
N467 C463 1.328 . S
N467 C465 1.350 . S
H468 C463 0.930 . S
H469 C464 0.930 . S
C470 O471 1.224 . S
C470 O489 1.247 . S
O471 C470 1.224 . S
N472 Co462 2.128 . S
N472 C473 1.355 . S
N472 C475 1.311 . S
C473 N472 1.355 . S
C473 C474 1.363 . S
C473 H485 0.929 . S
C474 C473 1.363 . S
C474 N476 1.375 . S
C474 H492 0.931 . S
C475 N472 1.311 . S
C475 N476 1.347 . S
C475 H486 0.929 . S
N476 C474 1.375 . S
N476 C475 1.347 . S
C477 C480 1.365 . S
C477 N482 1.328 . S
C477 H483 0.929 . S
C478 C479 1.362 . S
C478 C481 1.378 . S
C478 H493 0.929 . S
C479 C478 1.362 . S
C479 C480 1.366 . S
C480 C477 1.365 . S
C480 C479 1.366 . S
C480 H494 0.930 . S
C481 C478 1.378 . S
C481 N482 1.315 . S
C481 H484 0.930 . S
N482 Co462 2.194 . S
N482 C477 1.328 . S
N482 C481 1.315 . S
H483 C477 0.929 . S
H484 C481 0.930 . S
H485 C473 0.929 . S
H486 C475 0.929 . S
O487 Co462 2.351 . S
O487 C490 1.244 . S
O488 Co462 2.155 . S
O488 C490 1.240 . S
O489 Co462 2.096 . S
O489 C470 1.247 . S
C490 O487 1.244 . S
C490 O488 1.240 . S
H491 C465 0.931 . S
H492 C474 0.931 . S
H493 C478 0.929 . S
H494 C480 0.930 . S
Co495 N499 2.148 . S
Co495 N505 2.128 . S
Co495 N515 2.194 . S
Co495 O520 2.351 . S
Co495 O521 2.155 . S
Co495 O522 2.096 . S
C496 N499 1.301 . S
C496 N500 1.328 . S
C496 H501 0.930 . S
C497 C498 1.333 . S
C497 N499 1.317 . S
C497 H502 0.930 . S
C498 C497 1.333 . S
C498 N500 1.350 . S
C498 H524 0.931 . S
N499 Co495 2.148 . S
N499 C496 1.301 . S
N499 C497 1.317 . S
N500 C496 1.328 . S
N500 C498 1.350 . S
H501 C496 0.930 . S
H502 C497 0.930 . S
C503 O504 1.224 . S
C503 O522 1.247 . S
O504 C503 1.224 . S
N505 Co495 2.128 . S
N505 C506 1.355 . S
N505 C508 1.311 . S
C506 N505 1.355 . S
C506 C507 1.363 . S
C506 H518 0.929 . S
C507 C506 1.363 . S
C507 N509 1.375 . S
C507 H525 0.931 . S
C508 N505 1.311 . S
C508 N509 1.347 . S
C508 H519 0.929 . S
N509 C507 1.375 . S
N509 C508 1.347 . S
C510 C513 1.365 . S
C510 N515 1.328 . S
C510 H516 0.929 . S
C511 C512 1.362 . S
C511 C514 1.378 . S
C511 H526 0.929 . S
C512 C511 1.362 . S
C512 C513 1.366 . S
C513 C510 1.365 . S
C513 C512 1.366 . S
C513 H527 0.930 . S
C514 C511 1.378 . S
C514 N515 1.315 . S
C514 H517 0.930 . S
N515 Co495 2.194 . S
N515 C510 1.328 . S
N515 C514 1.315 . S
H516 C510 0.929 . S
H517 C514 0.930 . S
H518 C506 0.929 . S
H519 C508 0.929 . S
O520 Co495 2.351 . S
O520 C523 1.244 . S
O521 Co495 2.155 . S
O521 C523 1.240 . S
O522 Co495 2.096 . S
O522 C503 1.247 . S
C523 O520 1.244 . S
C523 O521 1.240 . S
H524 C498 0.931 . S
H525 C507 0.931 . S
H526 C511 0.929 . S
H527 C513 0.930 . S
Co528 N532 2.148 . S
Co528 N538 2.128 . S
Co528 N548 2.194 . S
Co528 O553 2.351 . S
Co528 O554 2.155 . S
Co528 O555 2.096 . S
C529 N532 1.301 . S
C529 N533 1.328 . S
C529 H534 0.930 . S
C530 C531 1.333 . S
C530 N532 1.317 . S
C530 H535 0.930 . S
C531 C530 1.333 . S
C531 N533 1.350 . S
C531 H557 0.931 . S
N532 Co528 2.148 . S
N532 C529 1.301 . S
N532 C530 1.317 . S
N533 C529 1.328 . S
N533 C531 1.350 . S
H534 C529 0.930 . S
H535 C530 0.930 . S
C536 O537 1.224 . S
C536 O555 1.247 . S
O537 C536 1.224 . S
N538 Co528 2.128 . S
N538 C539 1.355 . S
N538 C541 1.311 . S
C539 N538 1.355 . S
C539 C540 1.363 . S
C539 H551 0.929 . S
C540 C539 1.363 . S
C540 N542 1.375 . S
C540 H558 0.931 . S
C541 N538 1.311 . S
C541 N542 1.347 . S
C541 H552 0.929 . S
N542 C540 1.375 . S
N542 C541 1.347 . S
C543 C546 1.365 . S
C543 N548 1.328 . S
C543 H549 0.929 . S
C544 C545 1.362 . S
C544 C547 1.378 . S
C544 H559 0.929 . S
C545 C544 1.362 . S
C545 C546 1.366 . S
C546 C543 1.365 . S
C546 C545 1.366 . S
C546 H560 0.930 . S
C547 C544 1.378 . S
C547 N548 1.315 . S
C547 H550 0.930 . S
N548 Co528 2.194 . S
N548 C543 1.328 . S
N548 C547 1.315 . S
H549 C543 0.929 . S
H550 C547 0.930 . S
H551 C539 0.929 . S
H552 C541 0.929 . S
O553 Co528 2.351 . S
O553 C556 1.244 . S
O554 Co528 2.155 . S
O554 C556 1.240 . S
O555 Co528 2.096 . S
O555 C536 1.247 . S
C556 O553 1.244 . S
C556 O554 1.240 . S
H557 C531 0.931 . S
H558 C540 0.931 . S
H559 C544 0.929 . S
H560 C546 0.930 . S
Co561 N565 2.148 . S
Co561 N571 2.128 . S
Co561 N581 2.194 . S
Co561 O586 2.351 . S
Co561 O587 2.155 . S
Co561 O588 2.096 . S
C562 N565 1.301 . S
C562 N566 1.328 . S
C562 H567 0.930 . S
C563 C564 1.333 . S
C563 N565 1.317 . S
C563 H568 0.930 . S
C564 C563 1.333 . S
C564 N566 1.350 . S
C564 H590 0.931 . S
N565 Co561 2.148 . S
N565 C562 1.301 . S
N565 C563 1.317 . S
N566 C562 1.328 . S
N566 C564 1.350 . S
H567 C562 0.930 . S
H568 C563 0.930 . S
C569 O570 1.224 . S
C569 O588 1.247 . S
O570 C569 1.224 . S
N571 Co561 2.128 . S
N571 C572 1.355 . S
N571 C574 1.311 . S
C572 N571 1.355 . S
C572 C573 1.363 . S
C572 H584 0.929 . S
C573 C572 1.363 . S
C573 N575 1.375 . S
C573 H591 0.931 . S
C574 N571 1.311 . S
C574 N575 1.347 . S
C574 H585 0.929 . S
N575 C573 1.375 . S
N575 C574 1.347 . S
C576 C579 1.365 . S
C576 N581 1.328 . S
C576 H582 0.929 . S
C577 C578 1.362 . S
C577 C580 1.378 . S
C577 H592 0.929 . S
C578 C577 1.362 . S
C578 C579 1.366 . S
C579 C576 1.365 . S
C579 C578 1.366 . S
C579 H593 0.930 . S
C580 C577 1.378 . S
C580 N581 1.315 . S
C580 H583 0.930 . S
N581 Co561 2.194 . S
N581 C576 1.328 . S
N581 C580 1.315 . S
H582 C576 0.929 . S
H583 C580 0.930 . S
H584 C572 0.929 . S
H585 C574 0.929 . S
O586 Co561 2.351 . S
O586 C589 1.244 . S
O587 Co561 2.155 . S
O587 C589 1.240 . S
O588 Co561 2.096 . S
O588 C569 1.247 . S
C589 O586 1.244 . S
C589 O587 1.240 . S
H590 C564 0.931 . S
H591 C573 0.931 . S
H592 C577 0.929 . S
H593 C579 0.930 . S
C594 C595 1.387 . S
C594 H598 0.950 . S
C594 C603 1.390 . S
C595 C594 1.387 . S
C595 C597 1.387 . S
H596 C603 0.950 . S
C597 C595 1.387 . S
C597 C599 1.390 . S
C597 H601 0.950 . S
H598 C594 0.950 . S
C599 C597 1.390 . S
C599 C600 1.387 . S
C599 H602 0.950 . S
C600 C599 1.387 . S
C600 C603 1.387 . S
H601 C597 0.950 . S
H602 C599 0.950 . S
C603 C594 1.390 . S
C603 H596 0.950 . S
C603 C600 1.387 . S
C604 C605 1.387 . S
C604 H608 0.950 . S
C604 C613 1.390 . S
C605 C604 1.387 . S
C605 C607 1.387 . S
H606 C613 0.950 . S
C607 C605 1.387 . S
C607 C609 1.390 . S
C607 H611 0.950 . S
H608 C604 0.950 . S
C609 C607 1.390 . S
C609 C610 1.387 . S
C609 H612 0.950 . S
C610 C609 1.387 . S
C610 C613 1.387 . S
H611 C607 0.950 . S
H612 C609 0.950 . S
C613 C604 1.390 . S
C613 H606 0.950 . S
C613 C610 1.387 . S
C614 C615 1.387 . S
C614 H618 0.950 . S
C614 C623 1.390 . S
C615 C614 1.387 . S
C615 C617 1.387 . S
H616 C623 0.950 . S
C617 C615 1.387 . S
C617 C619 1.390 . S
C617 H621 0.950 . S
H618 C614 0.950 . S
C619 C617 1.390 . S
C619 C620 1.387 . S
C619 H622 0.950 . S
C620 C619 1.387 . S
C620 C623 1.387 . S
H621 C617 0.950 . S
H622 C619 0.950 . S
C623 C614 1.390 . S
C623 H616 0.950 . S
C623 C620 1.387 . S
C624 C625 1.387 . S
C624 H628 0.950 . S
C624 C633 1.390 . S
C625 C624 1.387 . S
C625 C627 1.387 . S
H626 C633 0.950 . S
C627 C625 1.387 . S
C627 C629 1.390 . S
C627 H631 0.950 . S
H628 C624 0.950 . S
C629 C627 1.390 . S
C629 C630 1.387 . S
C629 H632 0.950 . S
C630 C629 1.387 . S
C630 C633 1.387 . S
H631 C627 0.950 . S
H632 C629 0.950 . S
C633 C624 1.390 . S
C633 H626 0.950 . S
C633 C630 1.387 . S
C634 C635 1.387 . S
C634 H638 0.950 . S
C634 C643 1.390 . S
C635 C634 1.387 . S
C635 C637 1.387 . S
H636 C643 0.950 . S
C637 C635 1.387 . S
C637 C639 1.390 . S
C637 H641 0.950 . S
H638 C634 0.950 . S
C639 C637 1.390 . S
C639 C640 1.387 . S
C639 H642 0.950 . S
C640 C639 1.387 . S
C640 C643 1.387 . S
H641 C637 0.950 . S
H642 C639 0.950 . S
C643 C634 1.390 . S
C643 H636 0.950 . S
C643 C640 1.387 . S
C644 C645 1.387 . S
C644 H648 0.950 . S
C644 C653 1.390 . S
C645 C644 1.387 . S
C645 C647 1.387 . S
H646 C653 0.950 . S
C647 C645 1.387 . S
C647 C649 1.390 . S
C647 H651 0.950 . S
H648 C644 0.950 . S
C649 C647 1.390 . S
C649 C650 1.387 . S
C649 H652 0.950 . S
C650 C649 1.387 . S
C650 C653 1.387 . S
H651 C647 0.950 . S
H652 C649 0.950 . S
C653 C644 1.390 . S
C653 H646 0.950 . S
C653 C650 1.387 . S
C654 C655 1.387 . S
C654 H658 0.950 . S
C654 C663 1.390 . S
C655 C654 1.387 . S
C655 C657 1.387 . S
H656 C663 0.950 . S
C657 C655 1.387 . S
C657 C659 1.390 . S
C657 H661 0.950 . S
H658 C654 0.950 . S
C659 C657 1.390 . S
C659 C660 1.387 . S
C659 H662 0.950 . S
C660 C659 1.387 . S
C660 C663 1.387 . S
H661 C657 0.950 . S
H662 C659 0.950 . S
C663 C654 1.390 . S
C663 H656 0.950 . S
C663 C660 1.387 . S
C664 C665 1.387 . S
C664 H668 0.950 . S
C664 C673 1.390 1_565 S
C665 C664 1.387 . S
C665 C667 1.387 . S
H666 C673 0.950 . S
C667 C665 1.387 . S
C667 C669 1.390 1_565 S
C667 H671 0.950 . S
H668 C664 0.950 . S
C669 C667 1.390 1_545 S
C669 C670 1.387 . S
C669 H672 0.950 . S
C670 C669 1.387 . S
C670 C673 1.387 . S
H671 C667 0.950 . S
H672 C669 0.950 . S
C673 C664 1.390 1_545 S
C673 H666 0.950 . S
C673 C670 1.387 . S
C674 C675 1.387 1_655 S
C674 H678 0.950 . S
C674 C683 1.390 . S
C675 C674 1.387 1_455 S
C675 C677 1.387 . S
H676 C683 0.950 . S
C677 C675 1.387 . S
C677 C679 1.390 . S
C677 H681 0.950 . S
H678 C674 0.950 . S
C679 C677 1.390 . S
C679 C680 1.387 1_455 S
C679 H682 0.950 . S
C680 C679 1.387 1_655 S
C680 C683 1.387 . S
H681 C677 0.950 . S
H682 C679 0.950 . S
C683 C674 1.390 . S
C683 H676 0.950 . S
C683 C680 1.387 . S
C684 C685 1.387 . S
C684 H688 0.950 . S
C684 C693 1.390 . S
C685 C684 1.387 . S
C685 C687 1.387 . S
H686 C693 0.950 . S
C687 C685 1.387 . S
C687 C689 1.390 . S
C687 H691 0.950 . S
H688 C684 0.950 . S
C689 C687 1.390 . S
C689 C690 1.387 . S
C689 H692 0.950 . S
C690 C689 1.387 . S
C690 C693 1.387 . S
H691 C687 0.950 . S
H692 C689 0.950 . S
C693 C684 1.390 . S
C693 H686 0.950 . S
C693 C690 1.387 . S
C694 C695 1.387 . S
C694 H698 0.950 . S
C694 C703 1.390 . S
C695 C694 1.387 . S
C695 C697 1.387 . S
H696 C703 0.950 . S
C697 C695 1.387 . S
C697 C699 1.390 . S
C697 H701 0.950 . S
H698 C694 0.950 . S
C699 C697 1.390 . S
C699 C700 1.387 . S
C699 H702 0.950 . S
C700 C699 1.387 . S
C700 C703 1.387 . S
H701 C697 0.950 . S
H702 C699 0.950 . S
C703 C694 1.390 . S
C703 H696 0.950 . S
C703 C700 1.387 . S
C704 C705 1.387 . S
C704 H708 0.950 . S
C704 C713 1.390 . S
C705 C704 1.387 . S
C705 C707 1.387 . S
H706 C713 0.950 . S
C707 C705 1.387 . S
C707 C709 1.390 . S
C707 H711 0.950 . S
H708 C704 0.950 . S
C709 C707 1.390 . S
C709 C710 1.387 . S
C709 H712 0.950 . S
C710 C709 1.387 . S
C710 C713 1.387 . S
H711 C707 0.950 . S
H712 C709 0.950 . S
C713 C704 1.390 . S
C713 H706 0.950 . S
C713 C710 1.387 . S
C714 C715 1.387 . S
C714 H718 0.950 . S
C714 C723 1.390 . S
C715 C714 1.387 . S
C715 C717 1.387 . S
H716 C723 0.950 . S
C717 C715 1.387 . S
C717 C719 1.390 . S
C717 H721 0.950 . S
H718 C714 0.950 . S
C719 C717 1.390 . S
C719 C720 1.387 . S
C719 H722 0.950 . S
C720 C719 1.387 . S
C720 C723 1.387 . S
H721 C717 0.950 . S
H722 C719 0.950 . S
C723 C714 1.390 . S
C723 H716 0.950 . S
C723 C720 1.387 . S
C724 C725 1.387 . S
C724 H728 0.950 . S
C724 C733 1.390 . S
C725 C724 1.387 . S
C725 C727 1.387 . S
H726 C733 0.950 . S
C727 C725 1.387 . S
C727 C729 1.390 . S
C727 H731 0.950 . S
H728 C724 0.950 . S
C729 C727 1.390 . S
C729 C730 1.387 . S
C729 H732 0.950 . S
C730 C729 1.387 . S
C730 C733 1.387 . S
H731 C727 0.950 . S
H732 C729 0.950 . S
C733 C724 1.390 . S
C733 H726 0.950 . S
C733 C730 1.387 . S
C734 C735 1.387 . S
C734 H738 0.950 . S
C734 C743 1.390 . S
C735 C734 1.387 . S
C735 C737 1.387 . S
H736 C743 0.950 . S
C737 C735 1.387 . S
C737 C739 1.390 . S
C737 H741 0.950 . S
H738 C734 0.950 . S
C739 C737 1.390 . S
C739 C740 1.387 . S
C739 H742 0.950 . S
C740 C739 1.387 . S
C740 C743 1.387 . S
H741 C737 0.950 . S
H742 C739 0.950 . S
C743 C734 1.390 . S
C743 H736 0.950 . S
C743 C740 1.387 . S
C744 C745 1.387 . S
C744 H748 0.950 . S
C744 C753 1.390 1_655 S
C745 C744 1.387 . S
C745 C747 1.387 1_554 S
H746 C753 0.950 . S
C747 C745 1.387 1_556 S
C747 C749 1.390 1_655 S
C747 H751 0.950 . S
H748 C744 0.950 . S
C749 C747 1.390 1_455 S
C749 C750 1.387 . S
C749 H752 0.950 . S
C750 C749 1.387 . S
C750 C753 1.387 1_556 S
H751 C747 0.950 . S
H752 C749 0.950 . S
C753 C744 1.390 1_455 S
C753 H746 0.950 . S
C753 C750 1.387 1_554 S
C754 C755 1.387 . S
C754 H758 0.950 . S
C754 C763 1.392 . S
C755 C754 1.387 . S
C755 C757 1.386 1_556 S
H756 C763 0.950 . S
C757 C755 1.386 1_554 S
C757 C759 1.392 . S
C757 H761 0.950 . S
H758 C754 0.950 . S
C759 C757 1.392 . S
C759 C760 1.387 . S
C759 H762 0.950 . S
C760 C759 1.387 . S
C760 C763 1.386 1_554 S
H761 C757 0.950 . S
H762 C759 0.950 . S
C763 C754 1.392 . S
C763 H756 0.950 . S
C763 C760 1.386 1_556 S
C764 C765 1.387 . S
C764 H768 0.950 . S
C764 C773 1.390 1_544 S
C765 C764 1.387 . S
C765 C767 1.387 . S
H766 C773 0.950 . S
C767 C765 1.387 . S
C767 C769 1.390 1_544 S
C767 H771 0.950 . S
H768 C764 0.950 . S
C769 C767 1.390 1_566 S
C769 C770 1.387 . S
C769 H772 0.950 . S
C770 C769 1.387 . S
C770 C773 1.387 . S
H771 C767 0.950 . S
H772 C769 0.950 . S
C773 C764 1.390 1_566 S
C773 H766 0.950 . S
C773 C770 1.387 . S
C774 C775 1.387 1_655 S
C774 H778 0.950 . S
C774 C783 1.390 . S
C775 C774 1.387 1_455 S
C775 C777 1.387 1_554 S
H776 C783 0.950 . S
C777 C775 1.387 1_556 S
C777 C779 1.390 . S
C777 H781 0.950 . S
H778 C774 0.950 . S
C779 C777 1.390 . S
C779 C780 1.387 1_455 S
C779 H782 0.950 . S
C780 C779 1.387 1_655 S
C780 C783 1.387 1_556 S
H781 C777 0.950 . S
H782 C779 0.950 . S
C783 C774 1.390 . S
C783 H776 0.950 . S
C783 C780 1.387 1_554 S
C784 C785 1.387 . S
C784 H788 0.950 . S
C784 C793 1.393 . S
C785 C784 1.387 . S
C785 C787 1.385 1_556 S
H786 C793 0.950 . S
C787 C785 1.385 1_554 S
C787 C789 1.393 . S
C787 H791 0.950 . S
H788 C784 0.950 . S
C789 C787 1.393 . S
C789 C790 1.387 . S
C789 H792 0.950 . S
C790 C789 1.387 . S
C790 C793 1.385 1_554 S
H791 C787 0.950 . S
H792 C789 0.950 . S
C793 C784 1.393 . S
C793 H786 0.950 . S
C793 C790 1.385 1_556 S
C794 C795 1.387 . S
C794 H798 0.950 . S
C794 C803 1.390 1_546 S
C795 C794 1.387 . S
C795 C797 1.387 . S
H796 C803 0.950 . S
C797 C795 1.387 . S
C797 C799 1.390 1_546 S
C797 H801 0.950 . S
H798 C794 0.950 . S
C799 C797 1.390 1_564 S
C799 C800 1.387 . S
C799 H802 0.950 . S
C800 C799 1.387 . S
C800 C803 1.387 . S
H801 C797 0.950 . S
H802 C799 0.950 . S
C803 C794 1.390 1_564 S
C803 H796 0.950 . S
C803 C800 1.387 . S
C804 C805 1.387 . S
C804 H808 0.950 . S
C804 C813 1.390 . S
C805 C804 1.387 . S
C805 C807 1.387 . S
H806 C813 0.950 . S
C807 C805 1.387 . S
C807 C809 1.390 . S
C807 H811 0.950 . S
H808 C804 0.950 . S
C809 C807 1.390 . S
C809 C810 1.387 . S
C809 H812 0.950 . S
C810 C809 1.387 . S
C810 C813 1.387 . S
H811 C807 0.950 . S
H812 C809 0.950 . S
C813 C804 1.390 . S
C813 H806 0.950 . S
C813 C810 1.387 . S
C814 C815 1.387 . S
C814 H818 0.950 . S
C814 C823 1.390 . S
C815 C814 1.387 . S
C815 C817 1.387 . S
H816 C823 0.950 . S
C817 C815 1.387 . S
C817 C819 1.390 . S
C817 H821 0.950 . S
H818 C814 0.950 . S
C819 C817 1.390 . S
C819 C820 1.387 . S
C819 H822 0.950 . S
C820 C819 1.387 . S
C820 C823 1.387 . S
H821 C817 0.950 . S
H822 C819 0.950 . S
C823 C814 1.390 . S
C823 H816 0.950 . S
C823 C820 1.387 . S
C824 C825 1.387 . S
C824 H828 0.950 . S
C824 C833 1.390 . S
C825 C824 1.387 . S
C825 C827 1.387 . S
H826 C833 0.950 . S
C827 C825 1.387 . S
C827 C829 1.390 . S
C827 H831 0.950 . S
H828 C824 0.950 . S
C829 C827 1.390 . S
C829 C830 1.387 . S
C829 H832 0.950 . S
C830 C829 1.387 . S
C830 C833 1.387 . S
H831 C827 0.950 . S
H832 C829 0.950 . S
C833 C824 1.390 . S
C833 H826 0.950 . S
C833 C830 1.387 . S
C834 C835 1.387 . S
C834 H838 0.950 . S
C834 C843 1.390 . S
C835 C834 1.387 . S
C835 C837 1.387 . S
H836 C843 0.950 . S
C837 C835 1.387 . S
C837 C839 1.390 . S
C837 H841 0.950 . S
H838 C834 0.950 . S
C839 C837 1.390 . S
C839 C840 1.387 . S
C839 H842 0.950 . S
C840 C839 1.387 . S
C840 C843 1.387 . S
H841 C837 0.950 . S
H842 C839 0.950 . S
C843 C834 1.390 . S
C843 H836 0.950 . S
C843 C840 1.387 . S
C844 C845 1.387 . S
C844 H848 0.950 . S
C844 C853 1.390 . S
C845 C844 1.387 . S
C845 C847 1.387 . S
H846 C853 0.950 . S
C847 C845 1.387 . S
C847 C849 1.390 . S
C847 H851 0.950 . S
H848 C844 0.950 . S
C849 C847 1.390 . S
C849 C850 1.387 . S
C849 H852 0.950 . S
C850 C849 1.387 . S
C850 C853 1.387 . S
H851 C847 0.950 . S
H852 C849 0.950 . S
C853 C844 1.390 . S
C853 H846 0.950 . S
C853 C850 1.387 . S
C854 C855 1.387 . S
C854 H858 0.950 . S
C854 C863 1.390 . S
C855 C854 1.387 . S
C855 C857 1.387 . S
H856 C863 0.950 . S
C857 C855 1.387 . S
C857 C859 1.390 . S
C857 H861 0.950 . S
H858 C854 0.950 . S
C859 C857 1.390 . S
C859 C860 1.387 . S
C859 H862 0.950 . S
C860 C859 1.387 . S
C860 C863 1.387 . S
H861 C857 0.950 . S
H862 C859 0.950 . S
C863 C854 1.390 . S
C863 H856 0.950 . S
C863 C860 1.387 . S
C864 C865 1.387 . S
C864 H868 0.950 . S
C864 C873 1.390 . S
C865 C864 1.387 . S
C865 C867 1.387 . S
H866 C873 0.950 . S
C867 C865 1.387 . S
C867 C869 1.390 . S
C867 H871 0.950 . S
H868 C864 0.950 . S
C869 C867 1.390 . S
C869 C870 1.387 . S
C869 H872 0.950 . S
C870 C869 1.387 . S
C870 C873 1.387 . S
H871 C867 0.950 . S
H872 C869 0.950 . S
C873 C864 1.390 . S
C873 H866 0.950 . S
C873 C870 1.387 . S
C874 C875 1.387 . S
C874 H878 0.950 . S
C874 C883 1.390 . S
C875 C874 1.387 . S
C875 C877 1.387 . S
H876 C883 0.953 . S
C877 C875 1.387 . S
C877 C879 1.390 . S
C877 H881 0.950 . S
H878 C874 0.950 . S
C879 C877 1.390 . S
C879 C880 1.387 1_545 S
C879 H882 0.950 . S
C880 C879 1.387 1_565 S
C880 C883 1.387 1_565 S
H881 C877 0.950 . S
H882 C879 0.950 . S
C883 C874 1.390 . S
C883 H876 0.953 . S
C883 C880 1.387 1_545 S
C884 C885 1.387 . S
C884 H888 0.950 . S
C884 C893 1.390 . S
C885 C884 1.387 . S
C885 C887 1.387 . S
H886 C893 0.950 1_455 S
C887 C885 1.387 . S
C887 C889 1.390 . S
C887 H891 0.950 . S
H888 C884 0.950 . S
C889 C887 1.390 . S
C889 C890 1.387 1_655 S
C889 H892 0.950 . S
C890 C889 1.387 1_455 S
C890 C893 1.387 1_455 S
H891 C887 0.950 . S
H892 C889 0.950 . S
C893 C884 1.390 . S
C893 H886 0.950 1_655 S
C893 C890 1.387 1_655 S
C894 C895 1.387 . S
C894 H898 0.950 . S
C894 C903 1.390 . S
C895 C894 1.387 . S
C895 C897 1.387 . S
H896 C903 0.950 . S
C897 C895 1.387 . S
C897 C899 1.390 . S
C897 H901 0.950 . S
H898 C894 0.950 . S
C899 C897 1.390 . S
C899 C900 1.387 . S
C899 H902 0.950 . S
C900 C899 1.387 . S
C900 C903 1.387 . S
H901 C897 0.950 . S
H902 C899 0.950 . S
C903 C894 1.390 . S
C903 H896 0.950 . S
C903 C900 1.387 . S
C904 C905 1.387 1_565 S
C904 H908 0.950 1_565 S
C904 C913 1.390 . S
C905 C904 1.387 1_545 S
C905 C907 1.387 1_545 S
H906 C913 0.950 . S
C907 C905 1.387 1_565 S
C907 C909 1.390 . S
C907 H911 0.950 . S
H908 C904 0.950 1_545 S
C909 C907 1.390 . S
C909 C910 1.387 . S
C909 H912 0.950 . S
C910 C909 1.387 . S
C910 C913 1.387 . S
H911 C907 0.950 . S
H912 C909 0.950 . S
C913 C904 1.390 . S
C913 H906 0.950 . S
C913 C910 1.387 . S
C914 C915 1.387 . S
C914 H918 0.950 . S
C914 C923 1.390 . S
C915 C914 1.387 . S
C915 C917 1.387 . S
H916 C923 0.950 . S
C917 C915 1.387 . S
C917 C919 1.390 . S
C917 H921 0.950 . S
H918 C914 0.950 . S
C919 C917 1.390 . S
C919 C920 1.387 1_455 S
C919 H922 0.950 . S
C920 C919 1.387 1_655 S
C920 C923 1.387 1_655 S
H921 C917 0.950 . S
H922 C919 0.950 . S
C923 C914 1.390 . S
C923 H916 0.950 . S
C923 C920 1.387 1_455 S
C924 C925 1.387 . S
C924 H928 0.950 . S
C924 C933 1.390 . S
C925 C924 1.387 . S
C925 C927 1.387 . S
H926 C933 0.950 . S
C927 C925 1.387 . S
C927 C929 1.390 . S
C927 H931 0.950 . S
H928 C924 0.950 . S
C929 C927 1.390 . S
C929 C930 1.387 . S
C929 H932 0.950 . S
C930 C929 1.387 . S
C930 C933 1.387 . S
H931 C927 0.950 . S
H932 C929 0.950 . S
C933 C924 1.390 . S
C933 H926 0.950 . S
C933 C930 1.387 . S
C934 C935 1.387 . S
C934 H938 0.950 . S
C934 C943 1.390 . S
C935 C934 1.387 . S
C935 C937 1.387 . S
H936 C943 0.950 . S
C937 C935 1.387 . S
C937 C939 1.390 . S
C937 H941 0.950 . S
H938 C934 0.950 . S
C939 C937 1.390 . S
C939 C940 1.387 . S
C939 H942 0.950 . S
C940 C939 1.387 . S
C940 C943 1.387 . S
H941 C937 0.950 . S
H942 C939 0.950 . S
C943 C934 1.390 . S
C943 H936 0.950 . S
C943 C940 1.387 . S
C944 C945 1.387 . S
C944 H948 0.950 . S
C944 C953 1.390 . S
C945 C944 1.387 . S
C945 C947 1.387 . S
H946 C953 0.950 . S
C947 C945 1.387 . S
C947 C949 1.390 . S
C947 H951 0.950 . S
H948 C944 0.950 . S
C949 C947 1.390 . S
C949 C950 1.387 . S
C949 H952 0.950 . S
C950 C949 1.387 . S
C950 C953 1.387 . S
H951 C947 0.950 . S
H952 C949 0.950 . S
C953 C944 1.390 . S
C953 H946 0.950 . S
C953 C950 1.387 . S
C954 C955 1.387 . S
C954 H958 0.950 . S
C954 C963 1.390 . S
C955 C954 1.387 . S
C955 C957 1.387 . S
H956 C963 0.950 . S
C957 C955 1.387 . S
C957 C959 1.390 . S
C957 H961 0.950 . S
H958 C954 0.950 . S
C959 C957 1.390 . S
C959 C960 1.387 . S
C959 H962 0.950 . S
C960 C959 1.387 . S
C960 C963 1.387 . S
H961 C957 0.950 . S
H962 C959 0.950 . S
C963 C954 1.390 . S
C963 H956 0.950 . S
C963 C960 1.387 . S
C964 C965 1.387 . S
C964 H968 0.950 . S
C964 C973 1.390 . S
C965 C964 1.387 . S
C965 C967 1.387 . S
H966 C973 0.950 . S
C967 C965 1.387 . S
C967 C969 1.390 . S
C967 H971 0.950 . S
H968 C964 0.950 . S
C969 C967 1.390 . S
C969 C970 1.387 . S
C969 H972 0.950 . S
C970 C969 1.387 . S
C970 C973 1.387 . S
H971 C967 0.950 . S
H972 C969 0.950 . S
C973 C964 1.390 . S
C973 H966 0.950 . S
C973 C970 1.387 . S
C974 C975 1.387 . S
C974 H978 0.950 . S
C974 C983 1.390 . S
C975 C974 1.387 . S
C975 C977 1.387 . S
H976 C983 0.950 . S
C977 C975 1.387 . S
C977 C979 1.390 . S
C977 H981 0.950 . S
H978 C974 0.950 . S
C979 C977 1.390 . S
C979 C980 1.387 . S
C979 H982 0.950 . S
C980 C979 1.387 . S
C980 C983 1.387 . S
H981 C977 0.950 . S
H982 C979 0.950 . S
C983 C974 1.390 . S
C983 H976 0.950 . S
C983 C980 1.387 . S
C984 C985 1.387 . S
C984 H988 0.950 . S
C984 C993 1.390 . S
C985 C984 1.387 . S
C985 C987 1.387 . S
H986 C993 0.950 . S
C987 C985 1.387 . S
C987 C989 1.390 . S
C987 H991 0.950 . S
H988 C984 0.950 . S
C989 C987 1.390 . S
C989 C990 1.387 . S
C989 H992 0.950 . S
C990 C989 1.387 . S
C990 C993 1.387 . S
H991 C987 0.950 . S
H992 C989 0.950 . S
C993 C984 1.390 . S
C993 H986 0.950 . S
C993 C990 1.387 . S
C994 C995 1.387 . S
C994 H998 0.950 . S
C994 C1003 1.390 . S
C995 C994 1.387 . S
C995 C997 1.387 . S
H996 C1003 0.950 . S
C997 C995 1.387 . S
C997 C999 1.390 . S
C997 H1001 0.950 . S
H998 C994 0.950 . S
C999 C997 1.390 . S
C999 C1000 1.387 . S
C999 H1002 0.950 . S
C1000 C999 1.387 . S
C1000 C1003 1.387 . S
H1001 C997 0.950 . S
H1002 C999 0.950 . S
C1003 C994 1.390 . S
C1003 H996 0.950 . S
C1003 C1000 1.387 . S
C1004 C1005 1.387 . S
C1004 H1008 0.950 . S
C1004 C1013 1.390 . S
C1005 C1004 1.387 . S
C1005 C1007 1.387 . S
H1006 C1013 0.950 . S
C1007 C1005 1.387 . S
C1007 C1009 1.390 . S
C1007 H1011 0.950 . S
H1008 C1004 0.950 . S
C1009 C1007 1.390 . S
C1009 C1010 1.387 . S
C1009 H1012 0.950 . S
C1010 C1009 1.387 . S
C1010 C1013 1.387 . S
H1011 C1007 0.950 . S
H1012 C1009 0.950 . S
C1013 C1004 1.390 . S
C1013 H1006 0.950 . S
C1013 C1010 1.387 . S
C1014 C1015 1.387 . S
C1014 H1018 0.950 . S
C1014 C1023 1.390 . S
C1015 C1014 1.387 . S
C1015 C1017 1.387 . S
H1016 C1023 0.950 . S
C1017 C1015 1.387 . S
C1017 C1019 1.390 . S
C1017 H1021 0.950 . S
H1018 C1014 0.950 . S
C1019 C1017 1.390 . S
C1019 C1020 1.387 . S
C1019 H1022 0.950 . S
C1020 C1019 1.387 . S
C1020 C1023 1.387 . S
H1021 C1017 0.950 . S
H1022 C1019 0.950 . S
C1023 C1014 1.390 . S
C1023 H1016 0.950 . S
C1023 C1020 1.387 . S
C1024 C1025 1.387 . S
C1024 H1028 0.950 . S
C1024 C1033 1.390 . S
C1025 C1024 1.387 . S
C1025 C1027 1.387 . S
H1026 C1033 0.950 . S
C1027 C1025 1.387 . S
C1027 C1029 1.390 . S
C1027 H1031 0.950 . S
H1028 C1024 0.950 . S
C1029 C1027 1.390 . S
C1029 C1030 1.387 . S
C1029 H1032 0.950 . S
C1030 C1029 1.387 . S
C1030 C1033 1.387 . S
H1031 C1027 0.950 . S
H1032 C1029 0.950 . S
C1033 C1024 1.390 . S
C1033 H1026 0.950 . S
C1033 C1030 1.387 . S
C1034 C1035 1.387 . S
C1034 H1038 0.950 . S
C1034 C1043 1.390 . S
C1035 C1034 1.387 . S
C1035 C1037 1.387 . S
H1036 C1043 0.950 . S
C1037 C1035 1.387 . S
C1037 C1039 1.390 . S
C1037 H1041 0.950 . S
H1038 C1034 0.950 . S
C1039 C1037 1.390 . S
C1039 C1040 1.387 . S
C1039 H1042 0.950 . S
C1040 C1039 1.387 . S
C1040 C1043 1.387 . S
H1041 C1037 0.950 . S
H1042 C1039 0.950 . S
C1043 C1034 1.390 . S
C1043 H1036 0.950 . S
C1043 C1040 1.387 . S
C595 N302 1.338 . S
C600 N5 1.338 . S
C605 N335 1.333 . S
C610 N38 1.333 . S
C615 N368 1.338 . S
C620 N71 1.338 . S
C625 N104 1.333 . S
C630 N401 1.335 . S
C635 N434 1.333 . S
C640 N137 1.333 . S
C645 N467 1.333 . S
C650 N170 1.334 . S
C655 N203 1.337 . S
C660 N500 1.338 . S
C665 N533 1.333 . S
C670 N236 1.333 . S
C675 N566 1.338 . S
C680 N269 1.338 . S
C685 C589 1.892 . S
C690 C28 1.892 . S
C695 C523 1.892 . S
C700 C61 1.891 . S
C705 C94 1.892 . S
C710 C556 1.892 . S
C715 C259 1.892 . S
C720 C127 1.892 . S
C725 C292 1.891 . S
C730 C160 1.892 . S
C735 C193 1.891 . S
C740 C226 1.891 . S
C745 C325 1.892 . S
C750 C457 1.891 . S
C755 C490 1.892 . S
C760 C358 1.892 . S
C765 C391 1.891 . S
C770 C424 1.891 . S
C775 C17 1.543 . S
C780 C149 1.542 . S
C785 C182 1.543 . S
C790 C50 1.543 . S
C795 C116 1.543 . S
C800 C83 1.543 . S
C805 C347 1.543 . S
C810 C215 1.543 . S
C815 C248 1.543 . S
C820 C380 1.543 . S
C825 C314 1.543 . S
C830 C281 1.543 . S
C835 C413 1.539 . S
C840 C545 1.539 . S
C845 C578 1.543 . S
C850 C446 1.543 . S
C855 C479 1.543 . S
C860 C512 1.543 . S
C865 C74 1.285 . S
C870 N14 1.334 . S
C875 C8 1.287 . S
C880 N47 1.333 . S
C885 C41 1.286 . S
C890 N80 1.334 . S
C895 C140 1.286 . S
C900 N113 1.335 . S
C905 N146 1.333 . S
C910 C173 1.286 . S
C915 C107 1.285 . S
C920 N179 1.334 . S
C925 C272 1.286 . S
C930 N212 1.335 . S
C935 C206 1.286 . S
C940 N245 1.333 . S
C945 N278 1.334 . S
C950 C239 1.286 . S
C955 N311 1.334 . S
C960 C338 1.285 . S
C965 C371 1.285 . S
C970 N344 1.334 . S
C975 C305 1.286 . S
C980 N377 1.333 . S
C985 N410 1.334 . S
C990 C470 1.287 . S
C995 C404 1.287 . S
C1000 N443 1.333 . S
C1005 C437 1.287 . S
C1010 N476 1.334 . S
C1015 C536 1.285 . S
C1020 N509 1.334 . S
C1025 C569 1.288 . S
C1030 N542 1.334 . S
C1035 C503 1.287 . S
C1040 N575 1.334 . S
