# Generated by pormake.
# Topology wme, (6)-cn, num edge types: 1
# Building blocks:
#     Node 0, Type 0, BuildingBlock: NUHQIS_clean_sbu_0, # of connection points: 6
#     Node 1, Type 0, BuildingBlock: NUHQIS_clean_sbu_0, # of connection points: 6
#     Node 2, Type 0, BuildingBlock: NUHQIS_clean_sbu_0, # of connection points: 6
#     Node 3, Type 0, BuildingBlock: NUHQIS_clean_sbu_0, # of connection points: 6
#     Node 4, Type 0, BuildingBlock: NUHQIS_clean_sbu_0, # of connection points: 6
#     Node 5, Type 0, BuildingBlock: NUHQIS_clean_sbu_0, # of connection points: 6
#     Node 6, Type 0, BuildingBlock: NUHQIS_clean_sbu_0, # of connection points: 6
#     Node 7, Type 0, BuildingBlock: NUHQIS_clean_sbu_0, # of connection points: 6
#     Node 8, Type 0, BuildingBlock: NUHQIS_clean_sbu_0, # of connection points: 6
#     Node 9, Type 0, BuildingBlock: NUHQIS_clean_sbu_0, # of connection points: 6
#     Node 10, Type 0, BuildingBlock: NUHQIS_clean_sbu_0, # of connection points: 6
#     Node 11, Type 0, BuildingBlock: NUHQIS_clean_sbu_0, # of connection points: 6
#     Edge 12, Type (0, 0), BuildingBlock: KIFKEQ_clean_linker_1, # of connection points: 2
#     Edge 13, Type (0, 0), BuildingBlock: KIFKEQ_clean_linker_1, # of connection points: 2
#     Edge 14, Type (0, 0), BuildingBlock: KIFKEQ_clean_linker_1, # of connection points: 2
#     Edge 15, Type (0, 0), BuildingBlock: KIFKEQ_clean_linker_1, # of connection points: 2
#     Edge 16, Type (0, 0), BuildingBlock: KIFKEQ_clean_linker_1, # of connection points: 2
#     Edge 17, Type (0, 0), BuildingBlock: KIFKEQ_clean_linker_1, # of connection points: 2
#     Edge 18, Type (0, 0), BuildingBlock: KIFKEQ_clean_linker_1, # of connection points: 2
#     Edge 19, Type (0, 0), BuildingBlock: KIFKEQ_clean_linker_1, # of connection points: 2
#     Edge 20, Type (0, 0), BuildingBlock: KIFKEQ_clean_linker_1, # of connection points: 2
#     Edge 21, Type (0, 0), BuildingBlock: KIFKEQ_clean_linker_1, # of connection points: 2
#     Edge 22, Type (0, 0), BuildingBlock: KIFKEQ_clean_linker_1, # of connection points: 2
#     Edge 23, Type (0, 0), BuildingBlock: KIFKEQ_clean_linker_1, # of connection points: 2
#     Edge 24, Type (0, 0), BuildingBlock: KIFKEQ_clean_linker_1, # of connection points: 2
#     Edge 25, Type (0, 0), BuildingBlock: KIFKEQ_clean_linker_1, # of connection points: 2
#     Edge 26, Type (0, 0), BuildingBlock: KIFKEQ_clean_linker_1, # of connection points: 2
#     Edge 27, Type (0, 0), BuildingBlock: KIFKEQ_clean_linker_1, # of connection points: 2
#     Edge 28, Type (0, 0), BuildingBlock: KIFKEQ_clean_linker_1, # of connection points: 2
#     Edge 29, Type (0, 0), BuildingBlock: KIFKEQ_clean_linker_1, # of connection points: 2
#     Edge 30, Type (0, 0), BuildingBlock: KIFKEQ_clean_linker_1, # of connection points: 2
#     Edge 31, Type (0, 0), BuildingBlock: KIFKEQ_clean_linker_1, # of connection points: 2
#     Edge 32, Type (0, 0), BuildingBlock: KIFKEQ_clean_linker_1, # of connection points: 2
#     Edge 33, Type (0, 0), BuildingBlock: KIFKEQ_clean_linker_1, # of connection points: 2
#     Edge 34, Type (0, 0), BuildingBlock: KIFKEQ_clean_linker_1, # of connection points: 2
#     Edge 35, Type (0, 0), BuildingBlock: KIFKEQ_clean_linker_1, # of connection points: 2
#     Edge 36, Type (0, 0), BuildingBlock: KIFKEQ_clean_linker_1, # of connection points: 2
#     Edge 37, Type (0, 0), BuildingBlock: KIFKEQ_clean_linker_1, # of connection points: 2
#     Edge 38, Type (0, 0), BuildingBlock: KIFKEQ_clean_linker_1, # of connection points: 2
#     Edge 39, Type (0, 0), BuildingBlock: KIFKEQ_clean_linker_1, # of connection points: 2
#     Edge 40, Type (0, 0), BuildingBlock: KIFKEQ_clean_linker_1, # of connection points: 2
#     Edge 41, Type (0, 0), BuildingBlock: KIFKEQ_clean_linker_1, # of connection points: 2
#     Edge 42, Type (0, 0), BuildingBlock: KIFKEQ_clean_linker_1, # of connection points: 2
#     Edge 43, Type (0, 0), BuildingBlock: KIFKEQ_clean_linker_1, # of connection points: 2
#     Edge 44, Type (0, 0), BuildingBlock: KIFKEQ_clean_linker_1, # of connection points: 2
#     Edge 45, Type (0, 0), BuildingBlock: KIFKEQ_clean_linker_1, # of connection points: 2
#     Edge 46, Type (0, 0), BuildingBlock: KIFKEQ_clean_linker_1, # of connection points: 2
#     Edge 47, Type (0, 0), BuildingBlock: KIFKEQ_clean_linker_1, # of connection points: 2
# Relax obj value: 0.087
# Max RMSD: 0.187
# Mean RMSD: 0.187
data_MOF--net-wme--node1-NUHQIS_clean_sbu_0--edge1-KIFKEQ_clean_linker_1
_symmetry_space_group_name_H-M    P1
_symmetry_Int_Tables_number       1
_symmetry_cell_setting            triclinic
loop_
_symmetry_equiv_pos_as_xyz
'x, y, z'
_cell_length_a     40.413505
_cell_length_b     40.4349
_cell_length_c     54.008718
_cell_angle_alpha  90.250482
_cell_angle_beta   89.914831
_cell_angle_gamma 120.03699
loop_
_atom_site_label
_atom_site_type_symbol
_atom_site_fract_x
_atom_site_fract_y
_atom_site_fract_z
_atom_type_partial_charge
Tb0 Tb 0.24227 0.38229 0.11577 0.0
Eu1 Eu 0.27197 0.32851 0.14444 0.0
C2 C 0.26176 0.32598 0.08582 0.0
C3 C 0.18384 0.30181 0.13561 0.0
C4 C 0.20649 0.45028 0.10255 0.0
C5 C 0.17789 0.48857 0.09091 0.0
C6 C 0.1886 0.46146 0.08493 0.0
C7 C 0.21231 0.46565 0.12659 0.0
C8 C 0.20176 0.49289 0.13257 0.0
C9 C 0.18504 0.50527 0.11466 0.0
C10 C 0.2217 0.42525 0.09497 0.0
O11 O 0.25395 0.40495 0.15363 0.0
O12 O 0.26089 0.35906 0.17476 0.0
O13 O 0.32204 0.38954 0.14453 0.0
O14 O 0.30301 0.40578 0.10905 0.0
C15 C 0.25816 0.39002 0.17422 0.0
O16 O 0.2615 0.28635 0.173 0.0
O17 O 0.30914 0.30389 0.14784 0.0
O18 O 0.28235 0.32585 0.10441 0.0
O19 O 0.24003 0.34182 0.08732 0.0
O20 O 0.19335 0.33794 0.13555 0.0
O21 O 0.21002 0.29185 0.1332 0.0
C22 C 0.32885 0.41367 0.12627 0.0
O23 O 0.25649 0.43619 0.10204 0.0
O24 O 0.19942 0.38851 0.0976 0.0
C25 C 0.27576 0.23904 0.16051 0.0
C26 C 0.24971 0.16026 0.1533 0.0
C27 C 0.267 0.17866 0.17577 0.0
C28 C 0.2799 0.21759 0.17929 0.0
C29 C 0.25823 0.22092 0.13815 0.0
C30 C 0.24548 0.182 0.13453 0.0
C31 C 0.28802 0.27966 0.16492 0.0
H32 H 0.1655 0.49764 0.07656 0.0
H33 H 0.184 0.45012 0.06625 0.0
H34 H 0.226 0.45739 0.14054 0.0
H35 H 0.20724 0.50472 0.15113 0.0
H36 H 0.27014 0.16289 0.19085 0.0
H37 H 0.29283 0.23089 0.19682 0.0
H38 H 0.25429 0.23687 0.12352 0.0
H39 H 0.23275 0.1691 0.1169 0.0
Tb40 Tb 0.87362 0.21541 0.61535 0.0
Eu41 Eu 0.95958 0.25242 0.64003 0.0
C42 C 0.94749 0.2401 0.58316 0.0
C43 C 0.90523 0.16271 0.63063 0.0
C44 C 0.76911 0.18009 0.60238 0.0
C45 C 0.70621 0.1646 0.5875 0.0
C46 C 0.74295 0.17081 0.58296 0.0
C47 C 0.75797 0.18307 0.62657 0.0
C48 C 0.72104 0.17676 0.63117 0.0
C49 C 0.69471 0.16755 0.61164 0.0
C50 C 0.80706 0.18488 0.59692 0.0
O51 O 0.86583 0.20904 0.65573 0.0
O52 O 0.92388 0.2577 0.66945 0.0
O53 O 0.95188 0.30207 0.62723 0.0
O54 O 0.88626 0.27108 0.62832 0.0
C55 C 0.88781 0.23269 0.6733 0.0
O56 O 0.99817 0.25387 0.66892 0.0
O57 O 1.02107 0.29093 0.63699 0.0
O58 O 0.96158 0.23162 0.60217 0.0
O59 O 0.91612 0.24224 0.5855 0.0
O60 O 0.88992 0.17201 0.61253 0.0
O61 O 0.92819 0.18852 0.64667 0.0
C62 C 0.91946 0.30269 0.62716 0.0
O63 O 0.83443 0.21916 0.59144 0.0
O64 O 0.81891 0.16743 0.61156 0.0
C65 C 0.05612 0.26261 0.65231 0.0
C66 C 0.1064 0.23361 0.6456 0.0
C67 C 0.10086 0.24485 0.66923 0.0
C68 C 0.07605 0.2593 0.67252 0.0
C69 C 0.06133 0.25106 0.62872 0.0
C70 C 0.08636 0.23694 0.62539 0.0
C71 C 1.02876 0.27636 0.6562 0.0
H72 H 0.68662 0.15704 0.57206 0.0
H73 H 0.75086 0.16803 0.56421 0.0
H74 H 0.77775 0.19015 0.64187 0.0
H75 H 0.7133 0.17966 0.64993 0.0
H76 H 0.11614 0.24298 0.68512 0.0
H77 H 0.07228 0.26776 0.69089 0.0
H78 H 0.04589 0.25269 0.61283 0.0
H79 H 0.08963 0.22813 0.60701 0.0
Tb80 Tb 0.6838 0.86299 0.11412 0.0
Eu81 Eu 0.73837 0.94749 0.14255 0.0
C82 C 0.74065 0.9381 0.08351 0.0
C83 C 0.76546 0.88669 0.13328 0.0
C84 C 0.61389 0.75813 0.10321 0.0
C85 C 0.58511 0.68958 0.0957 0.0
C86 C 0.61254 0.72746 0.09001 0.0
C87 C 0.58804 0.75006 0.12285 0.0
C88 C 0.56039 0.71224 0.12838 0.0
C89 C 0.55808 0.6815 0.11459 0.0
C90 C 0.6399 0.79799 0.09489 0.0
O91 O 0.66047 0.85473 0.15168 0.0
O92 O 0.70967 0.90531 0.17273 0.0
O93 O 0.67719 0.93601 0.14175 0.0
O94 O 0.66176 0.90093 0.10609 0.0
C95 C 0.67699 0.87312 0.1723 0.0
O96 O 0.78086 0.98021 0.17098 0.0
O97 O 0.76075 1.0089 0.14659 0.0
O98 O 0.74384 0.9599 0.10239 0.0
O99 O 0.72247 0.90029 0.0847 0.0
O100 O 0.72928 0.85999 0.13371 0.0
O101 O 0.77533 0.92278 0.13097 0.0
C102 C 0.65377 0.91928 0.12299 0.0
O103 O 0.62975 0.82304 0.10043 0.0
O104 O 0.6766 0.81209 0.09775 0.0
C105 C 0.82589 0.04348 0.15966 0.0
C106 C 0.90386 0.09968 0.15351 0.0
C107 C 0.88816 0.08784 0.1773 0.0
C108 C 0.84963 0.06012 0.18032 0.0
C109 C 0.84134 0.05523 0.13584 0.0
C110 C 0.87987 0.08317 0.13281 0.0
C111 C 0.78574 1.01297 0.16343 0.0
H112 H 0.58402 0.66671 0.08458 0.0
H113 H 0.63199 0.73285 0.07474 0.0
H114 H 0.58846 0.77301 0.13352 0.0
H115 H 0.5404 0.70708 0.14326 0.0
H116 H 0.90562 0.10024 0.19366 0.0
H117 H 0.83839 0.05145 0.19886 0.0
H118 H 0.82376 0.04256 0.11957 0.0
H119 H 0.89107 0.09128 0.11422 0.0
Tb120 Tb 0.84836 0.67134 0.60876 0.0
Eu121 Eu 0.80601 0.71818 0.62929 0.0
C122 C 0.80908 0.70246 0.57426 0.0
C123 C 0.89662 0.75976 0.61877 0.0
C124 C 0.88326 0.60127 0.59682 0.0
C125 C 0.8855 0.54635 0.5801 0.0
C126 C 0.88025 0.57776 0.57675 0.0
C127 C 0.89119 0.59244 0.62047 0.0
C128 C 0.8967 0.56116 0.62381 0.0
C129 C 0.89419 0.53785 0.60363 0.0
C130 C 0.88132 0.63642 0.59226 0.0
O131 O 0.83756 0.65749 0.64824 0.0
O132 O 0.83649 0.7111 0.66136 0.0
O133 O 0.76195 0.65592 0.63591 0.0
O134 O 0.78833 0.62778 0.61147 0.0
C135 C 0.83871 0.68049 0.66605 0.0
O136 O 0.78604 0.74355 0.65724 0.0
O137 O 0.77831 0.75012 0.61821 0.0
O138 O 0.78452 0.69218 0.59221 0.0
O139 O 0.84208 0.70451 0.57858 0.0
O140 O 0.89444 0.72642 0.62043 0.0
O141 O 0.86587 0.76303 0.61744 0.0
C142 C 0.76011 0.62576 0.62491 0.0
O143 O 0.84981 0.6326 0.58294 0.0
O144 O 0.89532 0.66274 0.60935 0.0
C145 C 0.79066 0.80196 0.64387 0.0
C146 C 0.8205 0.88179 0.64396 0.0
C147 C 0.84087 0.86608 0.65521 0.0
C148 C 0.82623 0.82645 0.65497 0.0
C149 C 0.76983 0.81758 0.63341 0.0
C150 C 0.78462 0.85707 0.63336 0.0
C151 C 0.77631 0.76069 0.64073 0.0
H152 H 0.88366 0.52925 0.56411 0.0
H153 H 0.87458 0.58415 0.5583 0.0
H154 H 0.8937 0.60999 0.63636 0.0
H155 H 0.90278 0.55512 0.64223 0.0
H156 H 0.8687 0.88451 0.66336 0.0
H157 H 0.84312 0.81511 0.66285 0.0
H158 H 0.74249 0.79925 0.62461 0.0
H159 H 0.76814 0.86835 0.62478 0.0
Tb160 Tb 0.20721 0.83034 0.11056 0.0
Eu161 Eu 0.11943 0.79268 0.13378 0.0
C162 C 0.13417 0.79539 0.07723 0.0
C163 C 0.17492 0.88232 0.12694 0.0
C164 C 0.31197 0.86765 0.09787 0.0
C165 C 0.38115 0.90898 0.09637 0.0
C166 C 0.34433 0.90221 0.09114 0.0
C167 C 0.31704 0.84004 0.1103 0.0
C168 C 0.35394 0.8467 0.11542 0.0
C169 C 0.38652 0.88122 0.10841 0.0
C170 C 0.27354 0.86125 0.0915 0.0
O171 O 0.21616 0.82004 0.149 0.0
O172 O 0.15777 0.8052 0.16648 0.0
O173 O 0.13257 0.74454 0.13719 0.0
O174 O 0.18699 0.76941 0.11271 0.0
C175 C 0.1932 0.81232 0.16817 0.0
O176 O 0.07993 0.78991 0.16243 0.0
O177 O 0.05756 0.75814 0.1284 0.0
O178 O 0.11629 0.77186 0.09523 0.0
O179 O 0.16722 0.82656 0.08136 0.0
O180 O 0.20315 0.87552 0.12933 0.0
O181 O 0.14007 0.85417 0.12274 0.0
C182 C 0.15977 0.74141 0.12568 0.0
O183 O 0.24662 0.82632 0.08699 0.0
O184 O 0.26098 0.87941 0.10491 0.0
C185 C 1.02158 0.78272 0.14742 0.0
C186 C 0.96706 0.80703 0.14401 0.0
C187 C 0.95561 0.76863 0.14905 0.0
C188 C 0.98259 0.75665 0.15074 0.0
C189 C 1.03328 0.82107 0.14234 0.0
C190 C 1.0063 0.83314 0.14073 0.0
C191 C 0.04949 0.76934 0.14905 0.0
H192 H 0.40546 0.93564 0.0904 0.0
H193 H 0.34113 0.92393 0.08155 0.0
H194 H 0.29254 0.81325 0.11591 0.0
H195 H 0.35696 0.82486 0.12497 0.0
H196 H 0.92576 0.74783 0.15199 0.0
H197 H 0.97297 0.72694 0.15468 0.0
H198 H 0.06324 0.84164 0.13953 0.0
H199 H 1.01614 0.86281 0.13655 0.0
Tb200 Tb 0.39227 0.18825 0.61361 0.0
Eu201 Eu 0.34229 0.1026 0.63878 0.0
C202 C 0.35146 0.1134 0.58172 0.0
C203 C 0.30849 0.15728 0.62922 0.0
C204 C 0.46153 0.29118 0.59962 0.0
C205 C 0.50291 0.35806 0.58911 0.0
C206 C 0.4721 0.32186 0.58344 0.0
C207 C 0.48227 0.29712 0.62162 0.0
C208 C 0.51318 0.33337 0.62732 0.0
C209 C 0.52386 0.36439 0.61115 0.0
C210 C 0.42808 0.25369 0.59362 0.0
O211 O 0.41446 0.19819 0.65145 0.0
O212 O 0.36814 0.14312 0.67052 0.0
O213 O 0.4036 0.11533 0.64244 0.0
O214 O 0.43141 0.16624 0.61514 0.0
C215 C 0.39857 0.17736 0.67134 0.0
O216 O 0.30166 0.06645 0.66709 0.0
O217 O 0.31612 0.0405 0.63705 0.0
O218 O 0.3568 0.09601 0.60017 0.0
O219 O 0.35519 0.14745 0.5849 0.0
O220 O 0.34344 0.18544 0.63206 0.0
O221 O 0.30208 0.12254 0.62535 0.0
C222 C 0.43317 0.14093 0.62955 0.0
O223 O 0.43456 0.22587 0.58877 0.0
O224 O 0.39864 0.24252 0.60805 0.0
C225 C 0.25167 1.0095 0.6503 0.0
C226 C 0.17229 0.9629 0.64144 0.0
C227 C 0.18877 0.95952 0.66356 0.0
C228 C 0.2281 0.98258 0.66791 0.0
C229 C 0.23532 1.01328 0.62832 0.0
C230 C 0.19609 0.9901 0.62388 0.0
C231 C 0.2928 0.03483 0.65538 0.0
H232 H 0.51063 0.38098 0.57601 0.0
H233 H 0.45641 0.31785 0.56638 0.0
H234 H 0.47438 0.27381 0.63445 0.0
H235 H 0.52837 0.3372 0.64456 0.0
H236 H 0.17137 0.93861 0.67735 0.0
H237 H 0.24009 0.97944 0.68507 0.0
H238 H 0.25287 0.03432 0.61462 0.0
H239 H 0.18431 0.99381 0.60681 0.0
Tb240 Tb 0.67609 0.82906 0.40294 0.0
Eu241 Eu 0.73013 0.79802 0.37498 0.0
C242 C 0.7326 0.81081 0.43394 0.0
C243 C 0.75817 0.88661 0.38363 0.0
C244 C 0.60567 0.8635 0.41313 0.0
C245 C 0.57757 0.90413 0.41941 0.0
C246 C 0.60521 0.89405 0.4253 0.0
C247 C 0.57867 0.84407 0.39428 0.0
C248 C 0.55082 0.85388 0.38857 0.0
C249 C 0.54943 0.88358 0.40137 0.0
C250 C 0.632 0.85018 0.42176 0.0
O251 O 0.6536 0.81497 0.36509 0.0
O252 O 0.70183 0.81122 0.34445 0.0
O253 O 0.66867 0.74883 0.37547 0.0
O254 O 0.65335 0.76892 0.41094 0.0
C255 C 0.6699 0.81217 0.34464 0.0
O256 O 0.77256 0.80668 0.34682 0.0
O257 O 0.75169 0.75825 0.37157 0.0
O258 O 0.73536 0.79161 0.41526 0.0
O259 O 0.71477 0.83074 0.43249 0.0
O260 O 0.72213 0.87767 0.38381 0.0
O261 O 0.76775 0.86011 0.38563 0.0
C262 C 0.6451 0.74248 0.39406 0.0
O263 O 0.62209 0.8149 0.41668 0.0
O264 O 0.66865 0.87292 0.4188 0.0
C265 C 0.81689 0.78795 0.35889 0.0
C266 C 0.8946 0.80929 0.36579 0.0
C267 C 0.87923 0.80499 0.34184 0.0
C268 C 0.84082 0.79439 0.33846 0.0
C269 C 0.83201 0.79204 0.38286 0.0
C270 C 0.87041 0.80242 0.38627 0.0
C271 C 0.77694 0.77867 0.35475 0.0
H272 H 0.57722 0.92696 0.42975 0.0
H273 H 0.62554 0.9094 0.43995 0.0
H274 H 0.57834 0.82054 0.3844 0.0
H275 H 0.52995 0.83778 0.37435 0.0
H276 H 0.89685 0.80958 0.32566 0.0
H277 H 0.82983 0.79152 0.3198 0.0
H278 H 0.81427 0.78761 0.39896 0.0
H279 H 0.88137 0.80587 0.40497 0.0
Tb280 Tb 0.87456 0.67558 0.90354 0.0
Eu281 Eu 0.95935 0.7219 0.87692 0.0
C282 C 0.95022 0.72617 0.93409 0.0
C283 C 0.90653 0.75883 0.88609 0.0
C284 C 0.77025 0.60754 0.91722 0.0
C285 C 0.70623 0.56229 0.93164 0.0
C286 C 0.74291 0.59307 0.93614 0.0
C287 C 0.76031 0.59079 0.89355 0.0
C288 C 0.72345 0.55991 0.88899 0.0
C289 C 0.69594 0.54513 0.90803 0.0
C290 C 0.80829 0.64083 0.92252 0.0
O291 O 0.86537 0.67244 0.8632 0.0
O292 O 0.92186 0.67863 0.84908 0.0
O293 O 0.95208 0.66544 0.89106 0.0
O294 O 0.88638 0.63134 0.89189 0.0
C295 C 0.88601 0.66873 0.84556 0.0
O296 O 0.99612 0.75643 0.84654 0.0
O297 O 1.02107 0.74559 0.87881 0.0
O298 O 0.96356 0.74711 0.91429 0.0
O299 O 0.91803 0.69308 0.93306 0.0
O300 O 0.8921 0.73579 0.90504 0.0
O301 O 0.92743 0.75363 0.8696 0.0
C302 C 0.91951 0.63268 0.89259 0.0
O303 O 0.8356 0.63394 0.92821 0.0
O304 O 0.82018 0.66967 0.90747 0.0
C305 C 0.05524 0.80704 0.8607 0.0
C306 C 0.10748 0.88664 0.86405 0.0
C307 C 0.10494 0.86599 0.84233 0.0
C308 C 0.07917 0.82663 0.84072 0.0
C309 C 0.05719 0.82752 0.88225 0.0
C310 C 0.08313 0.86677 0.88397 0.0
C311 C 1.02754 0.76568 0.85864 0.0
H312 H 0.68576 0.55217 0.94667 0.0
H313 H 0.74988 0.60578 0.95446 0.0
H314 H 0.78099 0.6016 0.87864 0.0
H315 H 0.71672 0.54721 0.87067 0.0
H316 H 0.12263 0.88026 0.82642 0.0
H317 H 0.07779 0.81151 0.82379 0.0
H318 H 0.03869 0.81313 0.89782 0.0
H319 H 0.08446 0.88137 0.90112 0.0
Tb320 Tb 0.23471 0.86565 0.40286 0.0
Eu321 Eu 0.26082 0.94729 0.37265 0.0
C322 C 0.25417 0.94212 0.43228 0.0
C323 C 0.17422 0.88722 0.38556 0.0
C324 C 0.20099 0.76213 0.41518 0.0
C325 C 0.17333 0.69502 0.42613 0.0
C326 C 0.18456 0.73278 0.43274 0.0
C327 C 0.2049 0.75292 0.39064 0.0
C328 C 0.19386 0.71519 0.38403 0.0
C329 C 0.17851 0.6858 0.40179 0.0
C330 C 0.21645 0.80229 0.42316 0.0
O331 O 0.24623 0.85556 0.3648 0.0
O332 O 0.23876 0.90113 0.34404 0.0
O333 O 0.31081 0.936 0.37158 0.0
O334 O 0.29518 0.90499 0.40859 0.0
C335 C 0.24092 0.86991 0.34439 0.0
O336 O 0.24782 0.9777 0.3444 0.0
O337 O 0.299 1.00844 0.36664 0.0
O338 O 0.27037 0.96268 0.41255 0.0
O339 O 0.2354 0.90429 0.43203 0.0
O340 O 0.18366 0.8605 0.38555 0.0
O341 O 0.20056 0.92349 0.38679 0.0
C342 C 0.31964 0.92126 0.39045 0.0
O343 O 0.25061 0.8265 0.41524 0.0
O344 O 0.19372 0.81641 0.42182 0.0
C345 C 0.26542 0.04088 0.35577 0.0
C346 C 0.24151 0.09504 0.36451 0.0
C347 C 0.24295 0.08274 0.34029 0.0
C348 C 0.2548 0.05602 0.336 0.0
C349 C 0.26405 0.05305 0.37998 0.0
C350 C 0.25237 0.0799 0.38429 0.0
C351 C 0.27588 1.01112 0.35094 0.0
H352 H 0.16204 0.67334 0.44037 0.0
H353 H 0.18142 0.73925 0.45179 0.0
H354 H 0.21739 0.77505 0.37672 0.0
H355 H 0.19782 0.70911 0.36506 0.0
H356 H 0.23528 0.09408 0.32458 0.0
H357 H 0.25542 0.04695 0.31718 0.0
H358 H 0.27165 0.04154 0.3956 0.0
H359 H 0.25121 0.0883 0.4032 0.0
Tb360 Tb 0.39439 0.21804 0.90279 0.0
Eu361 Eu 0.34555 0.25419 0.87675 0.0
C362 C 0.35139 0.25041 0.93398 0.0
C363 C 0.31164 0.1653 0.88496 0.0
C364 C 0.46311 0.1842 0.91894 0.0
C365 C 0.50989 0.16823 0.93426 0.0
C366 C 0.47841 0.17312 0.93831 0.0
C367 C 0.47972 0.1903 0.89531 0.0
C368 C 0.51125 0.1853 0.8912 0.0
C369 C 0.52682 0.17431 0.91068 0.0
C370 C 0.42928 0.18815 0.92369 0.0
O371 O 0.4181 0.23082 0.86533 0.0
O372 O 0.37343 0.24135 0.84544 0.0
O373 O 0.40703 0.30301 0.87443 0.0
O374 O 0.43338 0.27934 0.9024 0.0
C375 C 0.40342 0.23681 0.84519 0.0
O376 O 0.30477 0.2492 0.84835 0.0
O377 O 0.32045 0.29109 0.87761 0.0
O378 O 0.35751 0.27368 0.91574 0.0
O379 O 0.35566 0.22042 0.93077 0.0
O380 O 0.34682 0.17244 0.88306 0.0
O381 O 0.30485 0.19335 0.88896 0.0
C382 C 0.4359 0.30686 0.88812 0.0
O383 O 0.43548 0.22233 0.92861 0.0
O384 O 0.40069 0.17016 0.90854 0.0
C385 C 0.25571 0.25779 0.86495 0.0
C386 C 0.17667 0.22635 0.87445 0.0
C387 C 0.19278 0.24517 0.85198 0.0
C388 C 0.23193 0.26078 0.84731 0.0
C389 C 0.23973 0.2387 0.88729 0.0
C390 C 0.20069 0.22332 0.89203 0.0
C391 C 0.29664 0.27284 0.85959 0.0
H392 H 0.52072 0.15926 0.94961 0.0
H393 H 0.46583 0.16801 0.95663 0.0
H394 H 0.46831 0.19887 0.88008 0.0
H395 H 0.52379 0.19063 0.87289 0.0
H396 H 0.17521 0.24836 0.83815 0.0
H397 H 0.24363 0.27509 0.82989 0.0
H398 H 0.25744 0.2355 0.90102 0.0
H399 H 0.1892 0.20862 0.90937 0.0
Tb400 Tb 0.19883 0.38441 0.404 0.0
Eu401 Eu 0.1143 0.33346 0.37611 0.0
C402 C 0.12139 0.34182 0.43376 0.0
C403 C 0.16948 0.3007 0.38727 0.0
C404 C 0.30252 0.45268 0.41857 0.0
C405 C 0.37168 0.48097 0.42158 0.0
C406 C 0.33467 0.45114 0.42673 0.0
C407 C 0.30804 0.48446 0.40478 0.0
C408 C 0.3451 0.51447 0.39975 0.0
C409 C 0.37745 0.51324 0.40822 0.0
C410 C 0.26379 0.42104 0.4249 0.0
O411 O 0.21096 0.40608 0.36608 0.0
O412 O 0.15658 0.36066 0.34557 0.0
O413 O 0.12687 0.39472 0.37281 0.0
O414 O 0.17619 0.42302 0.40146 0.0
C415 C 0.19112 0.3907 0.34567 0.0
O416 O 0.07966 0.29267 0.3472 0.0
O417 O 0.05225 0.30847 0.37555 0.0
O418 O 0.10495 0.34645 0.41443 0.0
O419 O 0.15677 0.34825 0.4324 0.0
O420 O 0.19753 0.33599 0.38556 0.0
O421 O 0.1343 0.29364 0.39019 0.0
C422 C 0.15126 0.42429 0.38634 0.0
O423 O 0.23666 0.42927 0.42741 0.0
O424 O 0.2519 0.38922 0.41278 0.0
C425 C 1.01829 0.2448 0.36027 0.0
C426 C 0.96262 0.16641 0.36553 0.0
C427 C 0.96642 0.18576 0.34312 0.0
C428 C 0.9939 0.22447 0.34057 0.0
C429 C 1.015 0.2257 0.38261 0.0
C430 C 0.98741 0.18697 0.38523 0.0
C431 C 0.04729 0.28557 0.35706 0.0
H432 H 0.39579 0.47917 0.42865 0.0
H433 H 0.33116 0.42693 0.43737 0.0
H434 H 0.28375 0.48623 0.39802 0.0
H435 H 0.34842 0.53862 0.38916 0.0
H436 H 0.94846 0.17089 0.32737 0.0
H437 H 0.99617 0.23853 0.3231 0.0
H438 H 1.03368 0.24076 0.39806 0.0
H439 H 0.98518 0.17332 0.40284 0.0
Tb440 Tb 0.85316 0.1949 0.91011 0.0
Eu441 Eu 0.81098 0.10593 0.88895 0.0
C442 C 0.81451 0.12382 0.94419 0.0
C443 C 0.90172 0.15543 0.89935 0.0
C444 C 0.88709 0.29934 0.92295 0.0
C445 C 0.89393 0.35822 0.94016 0.0
C446 C 0.88928 0.32179 0.94344 0.0
C447 C 0.88908 0.31381 0.89901 0.0
C448 C 0.89399 0.35039 0.89572 0.0
C449 C 0.89674 0.37319 0.91627 0.0
C450 C 0.88586 0.26254 0.92707 0.0
O451 O 0.84148 0.19826 0.87084 0.0
O452 O 0.84171 0.14443 0.85738 0.0
O453 O 0.76635 0.12366 0.88317 0.0
O454 O 0.79303 0.17794 0.90789 0.0
C455 C 0.8429 0.17681 0.85286 0.0
O456 O 0.79109 0.06158 0.86022 0.0
O457 O 0.78456 0.04597 0.89895 0.0
O458 O 0.78976 0.1093 0.92633 0.0
O459 O 0.84732 0.15504 0.93989 0.0
O460 O 0.89935 0.1865 0.89792 0.0
O461 O 0.87104 0.12134 0.90074 0.0
C462 C 0.76462 0.15181 0.8945 0.0
O463 O 0.85473 0.23448 0.93649 0.0
O464 O 0.89964 0.25076 0.90952 0.0
C465 C 0.79912 1.00961 0.87198 0.0
C466 C 0.82892 0.95968 0.86967 0.0
C467 C 0.79097 0.94714 0.86245 0.0
C468 C 0.77616 0.97191 0.8637 0.0
C469 C 0.8374 1.02264 0.87824 0.0
C470 C 0.85215 0.99793 0.87714 0.0
C471 C 0.78243 0.03425 0.87617 0.0
H472 H 0.89626 0.37506 0.95641 0.0
H473 H 0.88817 0.31143 0.96206 0.0
H474 H 0.88743 0.29712 0.88283 0.0
H475 H 0.89546 0.36076 0.87706 0.0
H476 H 0.77226 0.91778 0.85681 0.0
H477 H 0.74648 0.96128 0.85894 0.0
H478 H 0.85555 0.05163 0.88471 0.0
H479 H 0.88161 1.0086 0.88252 0.0
H480 H 0.12489 0.9096 0.13359 0.0
H481 H 0.24482 0.94646 0.12583 0.0
H482 H 0.14126 0.97621 0.14009 0.0
H483 H 0.26093 1.01225 0.1315 0.0
H484 H 0.2842 0.12058 0.16936 0.0
H485 H 0.26365 0.05356 0.16338 0.0
H486 H 0.16631 0.03859 0.1212 0.0
H487 H 0.18581 0.1056 0.12842 0.0
C488 C 0.15463 0.93184 0.13306 0.0
C489 C 0.1835 0.92253 0.12948 0.0
C490 C 0.16406 0.97007 0.13669 0.0
C491 C 0.20254 0.99977 0.1367 0.0
C492 C 0.2311 0.99028 0.13234 0.0
C493 C 0.22176 0.95235 0.12892 0.0
C494 C 0.25807 0.10303 0.15912 0.0
C495 C 0.23676 0.11882 0.14941 0.0
C496 C 0.24651 0.06451 0.15536 0.0
C497 C 0.21345 0.04048 0.14154 0.0
C498 C 0.1918 0.05606 0.13204 0.0
C499 C 0.2033 0.0947 0.13592 0.0
H500 H 0.31381 0.22671 0.62516 0.0
H501 H 0.23148 0.10721 0.6358 0.0
H502 H 0.26312 0.24224 0.62803 0.0
H503 H 0.18028 0.12307 0.63882 0.0
H504 H 0.11471 0.182 0.67391 0.0
H505 H 0.16139 0.16069 0.66866 0.0
H506 H 0.20574 0.23114 0.6036 0.0
H507 H 0.15952 0.25268 0.60895 0.0
C508 C 0.28482 0.20366 0.62808 0.0
C509 C 0.27673 0.16568 0.63031 0.0
C510 C 0.25571 0.2126 0.62956 0.0
C511 C 0.21769 0.1839 0.63357 0.0
C512 C 0.20939 0.14582 0.63582 0.0
C513 C 0.23862 0.13673 0.63398 0.0
C514 C 0.13444 0.19289 0.65849 0.0
C515 C 0.13354 0.2192 0.64192 0.0
C516 C 0.16088 0.18038 0.65535 0.0
C517 C 0.1873 0.19431 0.63576 0.0
C518 C 0.18593 0.2201 0.61898 0.0
C519 C 0.15929 0.23226 0.62196 0.0
H520 H 0.96545 0.10546 0.17866 0.0
H521 H 0.93579 0.16013 0.1213 0.0
H522 H 1.03273 0.15397 0.17429 0.0
H523 H 1.00323 0.20822 0.11656 0.0
H524 H 0.12125 0.31125 0.13574 0.0
H525 H 0.05412 0.26236 0.13972 0.0
H526 H 0.08615 0.17551 0.14487 0.0
H527 H 0.15342 0.22446 0.14109 0.0
C528 C 0.97326 0.12787 0.16514 0.0
C529 C 0.94511 0.12892 0.1504 0.0
C530 C 1.01192 0.15548 0.16245 0.0
C531 C 1.02348 0.18507 0.14508 0.0
C532 C 0.99534 0.18607 0.13029 0.0
C533 C 0.95669 0.15827 0.13284 0.0
C534 C 0.11407 0.28175 0.13775 0.0
C535 C 0.14288 0.27189 0.13812 0.0
C536 C 0.07548 0.25365 0.13986 0.0
C537 C 0.06464 0.21494 0.14258 0.0
C538 C 0.09346 0.20507 0.14305 0.0
C539 C 0.13206 0.23316 0.14075 0.0
H540 H 0.8523 0.93557 0.68091 0.0
H541 H 0.82619 0.92275 0.60284 0.0
H542 H 0.87503 1.00409 0.67802 0.0
H543 H 0.85006 0.99098 0.5996 0.0
H544 H 0.84845 0.10112 0.60676 0.0
H545 H 0.83054 0.03461 0.61056 0.0
H546 H 0.92239 0.06539 0.66288 0.0
H547 H 0.93952 0.13251 0.65972 0.0
C548 C 0.85194 0.94756 0.66309 0.0
C549 C 0.83696 0.9238 0.64218 0.0
C550 C 0.8651 0.98684 0.66137 0.0
C551 C 0.86395 1.00319 0.63863 0.0
C552 C 0.8504 0.97941 0.61757 0.0
C553 C 0.83684 0.94026 0.61937 0.0
C554 C 0.86506 0.09389 0.61901 0.0
C555 C 0.89559 0.12227 0.63283 0.0
C556 C 0.85488 0.05557 0.62109 0.0
C557 C 0.87522 0.0444 0.63682 0.0
C558 C 0.90583 0.0728 0.65073 0.0
C559 C 0.91582 0.11133 0.64882 0.0
H560 H 0.97165 0.87284 0.16214 0.0
H561 H 0.89678 0.76978 0.12156 0.0
H562 H 0.92363 0.89247 0.15986 0.0
H563 H 0.84898 0.78949 0.11904 0.0
H564 H 0.75563 0.81542 0.14104 0.0
H565 H 0.80437 0.79706 0.14388 0.0
H566 H 0.8922 0.91443 0.13231 0.0
H567 H 0.84337 0.93299 0.13012 0.0
C568 C 0.94511 0.85453 0.15251 0.0
C569 C 0.9381 0.81961 0.14214 0.0
C570 C 0.91752 0.86582 0.15117 0.0
C571 C 0.88219 0.84255 0.13936 0.0
C572 C 0.87543 0.80784 0.12874 0.0
C573 C 0.90294 0.79652 0.13016 0.0
C574 C 0.78533 0.8374 0.13915 0.0
C575 C 0.79546 0.87572 0.13533 0.0
C576 C 0.81336 0.82679 0.14061 0.0
C577 C 0.85239 0.85416 0.1382 0.0
C578 C 0.86254 0.89258 0.13455 0.0
C579 C 0.83446 0.90322 0.13316 0.0
H580 H 0.96167 0.76386 0.60205 0.0
H581 H 0.91958 0.83239 0.63624 0.0
H582 H 1.02687 0.8164 0.60604 0.0
H583 H 0.98573 0.8856 0.64039 0.0
H584 H 0.112 0.94202 0.67333 0.0
H585 H 0.0442 0.89703 0.66566 0.0
H586 H 0.07061 0.88189 0.59045 0.0
H587 H 0.13825 0.92624 0.59818 0.0
C588 C 0.96636 0.7904 0.61021 0.0
C589 C 0.93545 0.79392 0.61891 0.0
C590 C 1.00381 0.82064 0.61236 0.0
C591 C 1.01156 0.8552 0.62354 0.0
C592 C 0.98063 0.85921 0.6318 0.0
C593 C 0.94282 0.82893 0.62926 0.0
C594 C 0.1033 0.92914 0.65515 0.0
C595 C 0.13065 0.93753 0.63643 0.0
C596 C 0.0644 0.90373 0.65067 0.0
C597 C 0.05202 0.88581 0.62746 0.0
C598 C 0.07924 0.89502 0.60858 0.0
C599 C 0.11801 0.92063 0.61298 0.0
H600 H 0.14385 0.93409 0.3796 0.0
H601 H 0.11154 0.81525 0.38662 0.0
H602 H 0.07663 0.91569 0.3755 0.0
H603 H 0.04443 0.79694 0.3823 0.0
H604 H 0.92587 0.78134 0.39897 0.0
H605 H 0.99319 0.80074 0.4045 0.0
H606 H 1.02376 0.8831 0.34576 0.0
H607 H 0.95661 0.86433 0.34061 0.0
C608 C 0.12247 0.90404 0.3803 0.0
C609 C 0.13323 0.87618 0.38345 0.0
C610 C 0.08389 0.89348 0.3778 0.0
C611 C 0.05505 0.85481 0.37855 0.0
C612 C 0.06582 0.827 0.38191 0.0
C613 C 0.10438 0.83752 0.38425 0.0
C614 C 0.94698 0.80381 0.38738 0.0
C615 C 0.93574 0.82121 0.36932 0.0
C616 C 0.98556 0.81469 0.39039 0.0
C617 C 1.01396 0.84347 0.37556 0.0
C618 C 1.00274 0.86109 0.35766 0.0
C619 C 0.96416 0.85003 0.35452 0.0
H620 H 0.09946 0.94295 0.88758 0.0
H621 H 0.18033 0.92544 0.8453 0.0
H622 H 0.14741 1.01017 0.89293 0.0
H623 H 0.22719 0.99279 0.84933 0.0
H624 H 0.31763 0.10129 0.88507 0.0
H625 H 0.26766 0.03543 0.87996 0.0
H626 H 0.18383 0.07143 0.87317 0.0
H627 H 0.23432 0.13803 0.87915 0.0
C628 C 0.12737 0.95335 0.87934 0.0
C629 C 0.13593 0.9284 0.86614 0.0
C630 C 0.15475 0.99213 0.88213 0.0
C631 C 0.19142 1.00708 0.87175 0.0
C632 C 0.19957 0.98232 0.85803 0.0
C633 C 0.17236 0.9436 0.85538 0.0
C634 C 0.28858 0.09535 0.88249 0.0
C635 C 0.2801 0.1251 0.88237 0.0
C636 C 0.25982 0.0574 0.87936 0.0
C637 C 0.2216 0.04788 0.87576 0.0
C638 C 0.21289 0.07758 0.87603 0.0
C639 C 0.24183 0.11579 0.87936 0.0
H640 H 0.11935 0.2231 0.3835 0.0
H641 H 0.23977 0.30675 0.38609 0.0
H642 H 0.13512 0.17218 0.37911 0.0
H643 H 0.25534 0.25631 0.38148 0.0
H644 H 0.27198 0.15553 0.39699 0.0
H645 H 0.25257 0.20303 0.40389 0.0
H646 H 0.16384 0.14777 0.34885 0.0
H647 H 0.1826 0.09954 0.34242 0.0
C648 C 0.14912 0.23066 0.38319 0.0
C649 C 0.17823 0.26911 0.38514 0.0
C650 C 0.15818 0.20149 0.38053 0.0
C651 C 0.19655 0.21006 0.38 0.0
C652 C 0.22551 0.24849 0.38217 0.0
C653 C 0.2165 0.27753 0.38465 0.0
C654 C 0.24803 0.15318 0.38655 0.0
C655 C 0.22901 0.12368 0.36907 0.0
C656 C 0.23711 0.18068 0.39034 0.0
C657 C 0.20672 0.17944 0.37684 0.0
C658 C 0.18717 0.14952 0.35971 0.0
C659 C 0.19825 0.1221 0.35581 0.0
H660 H 0.1155 0.18621 0.84326 0.0
H661 H 0.14394 0.23113 0.91771 0.0
H662 H 0.04801 0.16415 0.85144 0.0
H663 H 0.0766 0.20856 0.92596 0.0
H664 H 0.96728 0.21697 0.91509 0.0
H665 H 1.03237 0.22959 0.91053 0.0
H666 H 0.9903 0.11827 0.87734 0.0
H667 H 0.92435 0.10546 0.88199 0.0
C668 C 0.10734 0.1912 0.8614 0.0
C669 C 0.13522 0.21072 0.87976 0.0
C670 C 0.06862 0.17814 0.86617 0.0
C671 C 0.05693 0.18466 0.88933 0.0
C672 C 0.08469 0.20331 0.90786 0.0
C673 C 0.12329 0.21604 0.90317 0.0
C674 C 0.97174 0.19491 0.90705 0.0
C675 C 0.9406 0.16022 0.89884 0.0
C676 C 1.00914 0.2021 0.90458 0.0
C677 C 1.0166 0.17499 0.89356 0.0
C678 C 0.98545 0.13982 0.88578 0.0
C679 C 0.94772 0.13234 0.88862 0.0
H680 H 0.88949 0.129 0.34689 0.0
H681 H 0.96788 0.10986 0.39044 0.0
H682 H 0.8414 0.06186 0.35061 0.0
H683 H 0.91897 0.04298 0.39527 0.0
H684 H 0.83566 0.91647 0.37826 0.0
H685 H 0.88489 0.98339 0.3737 0.0
H686 H 0.79862 1.01634 0.37936 0.0
H687 H 0.74946 0.94956 0.38319 0.0
C688 C 0.89659 0.11053 0.35725 0.0
C689 C 0.93282 0.12514 0.36828 0.0
C690 C 0.86869 0.07195 0.35968 0.0
C691 C 0.87603 0.04672 0.37334 0.0
C692 C 0.91227 0.06129 0.38439 0.0
C693 C 0.94025 0.09991 0.38189 0.0
C694 C 0.82717 0.93798 0.3785 0.0
C695 C 0.78846 0.92744 0.38101 0.0
C696 C 0.85551 0.97649 0.37603 0.0
C697 C 0.84593 1.00555 0.3761 0.0
C698 C 0.80718 0.9949 0.37876 0.0
C699 C 0.77889 0.95645 0.38112 0.0
H700 H 0.87597 0.78547 0.92048 0.0
H701 H 0.91818 0.80372 0.84533 0.0
H702 H 0.85959 0.8354 0.91561 0.0
H703 H 0.90168 0.85395 0.8405 0.0
H704 H 0.82005 0.90528 0.83553 0.0
H705 H 0.84136 0.85843 0.83896 0.0
H706 H 0.8921 0.90592 0.91002 0.0
H707 H 0.87044 0.95222 0.90679 0.0
C708 C 0.88196 0.80026 0.90294 0.0
C709 C 0.89841 0.79057 0.88329 0.0
C710 C 0.87272 0.82904 0.9002 0.0
C711 C 0.87936 0.84865 0.87768 0.0
C712 C 0.89598 0.83914 0.85803 0.0
C713 C 0.90565 0.81057 0.86085 0.0
C714 C 0.83581 0.9057 0.85185 0.0
C715 C 0.84353 0.93246 0.87088 0.0
C716 C 0.84829 0.87912 0.85371 0.0
C717 C 0.86832 0.87843 0.8748 0.0
C718 C 0.87646 0.90552 0.89365 0.0
C719 C 0.86434 0.93228 0.89168 0.0
H720 H 0.22107 0.73242 0.11708 0.0
H721 H 0.10174 0.6686 0.13737 0.0
H722 H 0.22428 0.67415 0.11716 0.0
H723 H 0.10512 0.60952 0.13749 0.0
H724 H 0.12322 0.51233 0.10087 0.0
H725 H 0.11487 0.56789 0.10623 0.0
H726 H 0.22156 0.62609 0.14626 0.0
H727 H 0.23034 0.5712 0.14048 0.0
C728 C 0.19541 0.70591 0.12165 0.0
C729 C 0.16103 0.70528 0.1271 0.0
C730 C 0.1974 0.67243 0.12189 0.0
C731 C 0.16503 0.63711 0.12742 0.0
C732 C 0.13055 0.63628 0.13304 0.0
C733 C 0.12866 0.67011 0.13311 0.0
C734 C 0.1448 0.53693 0.11092 0.0
C735 C 0.17759 0.53728 0.1201 0.0
C736 C 0.13981 0.56862 0.1142 0.0
C737 C 0.16766 0.60157 0.12652 0.0
C738 C 0.19973 0.60135 0.13644 0.0
C739 C 0.20459 0.56966 0.13332 0.0
H740 H 0.65631 0.19316 0.58335 0.0
H741 H 0.6447 0.12934 0.64988 0.0
H742 H 0.5928 0.18401 0.58968 0.0
H743 H 0.58093 0.12114 0.65668 0.0
H744 H 0.45044 0.08445 0.64141 0.0
H745 H 0.51365 0.08934 0.63875 0.0
H746 H 0.56407 0.20818 0.61876 0.0
H747 H 0.50203 0.20329 0.62102 0.0
C748 C 0.64014 0.177 0.59931 0.0
C749 C 0.65574 0.16198 0.61607 0.0
C750 C 0.60377 0.17207 0.6031 0.0
C751 C 0.5818 0.15209 0.62382 0.0
C752 C 0.59703 0.13654 0.64049 0.0
C753 C 0.63372 0.14162 0.63673 0.0
C754 C 0.47518 0.1116 0.63668 0.0
C755 C 0.471 0.14321 0.63092 0.0
C756 C 0.51135 0.11445 0.63519 0.0
C757 C 0.54381 0.14898 0.628 0.0
C758 C 0.53963 0.18087 0.62362 0.0
C759 C 0.50388 0.17802 0.62499 0.0
H760 H 0.561 0.61481 0.11678 0.0
H761 H 0.48239 0.65756 0.12144 0.0
H762 H 0.5073 0.54919 0.12095 0.0
H763 H 0.42915 0.5924 0.12556 0.0
H764 H 0.34402 0.47324 0.09601 0.0
H765 H 0.40004 0.53653 0.09505 0.0
H766 H 0.45248 0.50452 0.15251 0.0
H767 H 0.39543 0.44031 0.15386 0.0
C768 C 0.53235 0.61026 0.11883 0.0
C769 C 0.52608 0.64155 0.11875 0.0
C770 C 0.50166 0.57271 0.1214 0.0
C771 C 0.46394 0.56556 0.12348 0.0
C772 C 0.45782 0.59689 0.12383 0.0
C773 C 0.48843 0.63431 0.12165 0.0
C774 C 0.36742 0.47926 0.10843 0.0
C775 C 0.365 0.45136 0.12504 0.0
C776 C 0.39954 0.51584 0.10794 0.0
C777 C 0.43062 0.52575 0.12382 0.0
C778 C 0.42897 0.49771 0.14001 0.0
C779 C 0.39629 0.46098 0.1408 0.0
H780 H 0.94936 0.53432 0.63143 0.0
H781 H 0.85314 0.46626 0.58351 0.0
H782 H 0.95819 0.4792 0.63762 0.0
H783 H 0.86242 0.41174 0.58928 0.0
H784 H 0.8572 0.31172 0.62957 0.0
H785 H 0.85365 0.36914 0.62408 0.0
H786 H 0.9761 0.43484 0.61503 0.0
H787 H 0.97994 0.37651 0.62068 0.0
C788 C 0.9301 0.50764 0.62223 0.0
C789 C 0.90038 0.5047 0.60707 0.0
C790 C 0.93545 0.47621 0.62557 0.0
C791 C 0.91093 0.441 0.61406 0.0
C792 C 0.88159 0.4383 0.59866 0.0
C793 C 0.87644 0.46969 0.59518 0.0
C794 C 0.88361 0.33824 0.62647 0.0
C795 C 0.91893 0.33921 0.62539 0.0
C796 C 0.88144 0.37128 0.62318 0.0
C797 C 0.91446 0.40654 0.61874 0.0
C798 C 0.95009 0.40806 0.61842 0.0
C799 C 0.95229 0.37466 0.62162 0.0
H800 H 0.62159 0.94853 0.1554 0.0
H801 H 0.60073 0.88698 0.08625 0.0
H802 H 0.55717 0.9403 0.15331 0.0
H803 H 0.53722 0.87897 0.08428 0.0
H804 H 0.41198 0.83039 0.10226 0.0
H805 H 0.47681 0.84171 0.10697 0.0
H806 H 0.51586 0.95854 0.12833 0.0
H807 H 0.45059 0.947 0.1241 0.0
C808 C 0.60358 0.93369 0.13966 0.0
C809 C 0.61649 0.91835 0.12107 0.0
C810 C 0.56666 0.92895 0.13846 0.0
C811 C 0.54178 0.90846 0.1188 0.0
C812 C 0.55523 0.89419 0.09995 0.0
C813 C 0.59195 0.89911 0.10103 0.0
C814 C 0.4342 0.85836 0.10831 0.0
C815 C 0.42594 0.88778 0.11271 0.0
C816 C 0.47153 0.86499 0.11076 0.0
C817 C 0.5017 0.90117 0.11781 0.0
C818 C 0.49333 0.93033 0.12294 0.0
C819 C 0.45595 0.92378 0.12029 0.0
H820 H 0.75221 0.55674 0.61286 0.0
H821 H 0.68794 0.60812 0.64062 0.0
H822 H 0.69469 0.49468 0.61235 0.0
H823 H 0.62978 0.54507 0.64047 0.0
H824 H 0.53027 0.43461 0.60375 0.0
H825 H 0.58636 0.49762 0.61 0.0
H826 H 0.64846 0.44485 0.63865 0.0
H827 H 0.59294 0.38189 0.63156 0.0
C828 C 0.72581 0.55483 0.61907 0.0
C829 C 0.7248 0.58767 0.62665 0.0
C830 C 0.69274 0.51897 0.61898 0.0
C831 C 0.65749 0.5147 0.62641 0.0
C832 C 0.65642 0.54738 0.63443 0.0
C833 C 0.68978 0.58347 0.63468 0.0
C834 C 0.55592 0.43642 0.61133 0.0
C835 C 0.5571 0.40301 0.61688 0.0
C836 C 0.58796 0.47263 0.61522 0.0
C837 C 0.62209 0.47642 0.6247 0.0
C838 C 0.62284 0.44305 0.63101 0.0
C839 C 0.59082 0.40687 0.62717 0.0
H840 H 0.33748 0.8806 0.42229 0.0
H841 H 0.3838 0.95778 0.36031 0.0
H842 H 0.39354 0.87346 0.42287 0.0
H843 H 0.44102 0.95084 0.36128 0.0
H844 H 0.55234 0.95297 0.39659 0.0
H845 H 0.49846 0.96461 0.3923 0.0
H846 H 0.41997 0.84309 0.39275 0.0
H847 H 0.47336 0.83144 0.39694 0.0
C848 C 0.35977 0.89644 0.40886 0.0
C849 C 0.35588 0.91984 0.39121 0.0
C850 C 0.39192 0.89206 0.40914 0.0
C851 C 0.42163 0.91129 0.39202 0.0
C852 C 0.41857 0.93566 0.37474 0.0
C853 C 0.38581 0.93959 0.37417 0.0
C854 C 0.52357 0.92876 0.39562 0.0
C855 C 0.51725 0.89124 0.39713 0.0
C856 C 0.49277 0.93545 0.39297 0.0
C857 C 0.45493 0.90479 0.39227 0.0
C858 C 0.44875 0.86735 0.39337 0.0
C859 C 0.47942 0.86067 0.39561 0.0
H860 H 0.64862 0.52872 0.86741 0.0
H861 H 0.65486 0.48482 0.93895 0.0
H862 H 0.58528 0.47246 0.86072 0.0
H863 H 0.5917 0.42984 0.93265 0.0
H864 H 0.50376 0.31583 0.90343 0.0
H865 H 0.56505 0.37361 0.90655 0.0
H866 H 0.51668 0.43849 0.87583 0.0
H867 H 0.45418 0.37949 0.87232 0.0
C868 C 0.63655 0.50716 0.8817 0.0
C869 C 0.65702 0.51138 0.90372 0.0
C870 C 0.60006 0.47515 0.87797 0.0
C871 C 0.58341 0.44645 0.89606 0.0
C872 C 0.60376 0.45105 0.91814 0.0
C873 C 0.63995 0.4829 0.92189 0.0
C874 C 0.50579 0.34227 0.89733 0.0
C875 C 0.4736 0.34293 0.88802 0.0
C876 C 0.54117 0.37559 0.89921 0.0
C877 C 0.54577 0.41093 0.89195 0.0
C878 C 0.51409 0.4117 0.88165 0.0
C879 C 0.47828 0.37796 0.87969 0.0
H880 H 0.1175 0.61674 0.41624 0.0
H881 H 0.22147 0.66532 0.37325 0.0
H882 H 0.10826 0.55276 0.40918 0.0
H883 H 0.21184 0.60159 0.3659 0.0
H884 H 0.21293 0.49434 0.39369 0.0
H885 H 0.21635 0.55596 0.39434 0.0
H886 H 0.09632 0.50163 0.3763 0.0
H887 H 0.09285 0.43901 0.37552 0.0
C888 C 0.13818 0.61379 0.40509 0.0
C889 C 0.17039 0.64635 0.39546 0.0
C890 C 0.13265 0.57706 0.40084 0.0
C891 C 0.15941 0.57204 0.38709 0.0
C892 C 0.19083 0.60445 0.37676 0.0
C893 C 0.19619 0.64103 0.38081 0.0
C894 C 0.18717 0.49534 0.38971 0.0
C895 C 0.15252 0.46162 0.38468 0.0
C896 C 0.18925 0.53084 0.3899 0.0
C897 C 0.15666 0.53385 0.38533 0.0
C898 C 0.12192 0.50023 0.37999 0.0
C899 C 0.11996 0.46445 0.37939 0.0
H900 H 0.75738 0.21308 0.90694 0.0
H901 H 0.69176 0.09726 0.87951 0.0
H902 H 0.69992 0.21753 0.90907 0.0
H903 H 0.63339 0.10175 0.88197 0.0
H904 H 0.54296 0.14127 0.87118 0.0
H905 H 0.59971 0.13499 0.86508 0.0
H906 H 0.64401 0.19028 0.93559 0.0
H907 H 0.58833 0.19753 0.94131 0.0
C908 C 0.73064 0.18841 0.90134 0.0
C909 C 0.72925 0.15455 0.89337 0.0
C910 C 0.69755 0.191 0.90267 0.0
C911 C 0.66187 0.1598 0.89615 0.0
C912 C 0.66046 0.12634 0.88714 0.0
C913 C 0.69386 0.12372 0.88577 0.0
C914 C 0.565 0.15233 0.88527 0.0
C915 C 0.56104 0.16997 0.90673 0.0
C916 C 0.59731 0.14835 0.88188 0.0
C917 C 0.62654 0.16229 0.89977 0.0
C918 C 0.62235 0.17965 0.92126 0.0
C919 C 0.59014 0.18346 0.92467 0.0
H920 H 0.40236 0.58975 0.41196 0.0
H921 H 0.44233 0.51115 0.39515 0.0
H922 H 0.46722 0.64329 0.40734 0.0
H923 H 0.50761 0.56497 0.39094 0.0
H924 H 0.61392 0.67956 0.36276 0.0
H925 H 0.54947 0.62331 0.36476 0.0
H926 H 0.52695 0.66811 0.43134 0.0
H927 H 0.59049 0.72363 0.42947 0.0
C928 C 0.42489 0.58385 0.40703 0.0
C929 C 0.41698 0.54602 0.40401 0.0
C930 C 0.46222 0.61459 0.40463 0.0
C931 C 0.49277 0.60847 0.39898 0.0
C932 C 0.48479 0.57073 0.39523 0.0
C933 C 0.4474 0.53988 0.39786 0.0
C934 C 0.59532 0.67716 0.37794 0.0
C935 C 0.60758 0.70633 0.39589 0.0
C936 C 0.55839 0.64493 0.37909 0.0
C937 C 0.53281 0.64142 0.39805 0.0
C938 C 0.54553 0.67016 0.41623 0.0
C939 C 0.58228 0.70198 0.41521 0.0
H940 H 0.85687 0.56215 0.89807 0.0
H941 H 0.98006 0.61866 0.89308 0.0
H942 H 0.85378 0.50138 0.9036 0.0
H943 H 0.97672 0.55676 0.89887 0.0
H944 H 0.94445 0.4288 0.88358 0.0
H945 H 0.95245 0.49247 0.87772 0.0
H946 H 0.87061 0.47002 0.93592 0.0
H947 H 0.862 0.40643 0.9414 0.0
C948 C 0.88347 0.56176 0.89813 0.0
C949 C 0.91883 0.59564 0.89519 0.0
C950 C 0.8816 0.52669 0.90149 0.0
C951 C 0.91497 0.52414 0.90197 0.0
C952 C 0.95044 0.55776 0.89854 0.0
C953 C 0.95238 0.59322 0.89531 0.0
C954 C 0.92803 0.43743 0.89503 0.0
C955 C 0.9024 0.41235 0.91288 0.0
C956 C 0.93297 0.47408 0.89185 0.0
C957 C 0.91209 0.48633 0.90627 0.0
C958 C 0.88686 0.46139 0.92431 0.0
C959 C 0.88214 0.42498 0.9276 0.0
H960 H 0.15231 0.38659 0.30391 0.0
H961 H 0.26689 0.43213 0.33238 0.0
H962 H 0.17705 0.40253 0.26217 0.0
H963 H 0.29208 0.44881 0.29013 0.0
H964 H 0.29526 0.38863 0.21546 0.0
H965 H 0.28652 0.40456 0.25734 0.0
H966 H 0.21506 0.44778 0.22987 0.0
H967 H 0.22351 0.43109 0.18754 0.0
C968 C 0.18297 0.40075 0.30126 0.0
C969 C 0.20762 0.4072 0.32132 0.0
C970 C 0.19724 0.41044 0.27729 0.0
C971 C 0.23653 0.42665 0.27275 0.0
C972 C 0.26158 0.43596 0.29305 0.0
C973 C 0.24723 0.42648 0.31721 0.0
C974 C 0.2783 0.40228 0.21827 0.0
C975 C 0.25925 0.40775 0.19836 0.0
C976 C 0.2737 0.4119 0.2423 0.0
C977 C 0.24971 0.42702 0.24702 0.0
C978 C 0.23337 0.43571 0.22682 0.0
C979 C 0.23825 0.42629 0.2026 0.0
H980 H 0.82084 0.17536 0.69273 0.0
H981 H 0.9219 0.28204 0.71184 0.0
H982 H 0.80316 0.16464 0.73646 0.0
H983 H 0.90466 0.27091 0.75533 0.0
H984 H 0.85717 0.2458 0.83354 0.0
H985 H 0.8603 0.26231 0.78957 0.0
H986 H 0.83365 0.14806 0.7694 0.0
H987 H 0.83017 0.1316 0.81263 0.0
C988 C 0.8389 0.19683 0.70615 0.0
C989 C 0.87317 0.22911 0.69886 0.0
C990 C 0.82887 0.19064 0.7312 0.0
C991 C 0.85286 0.21667 0.74938 0.0
C992 C 0.88549 0.25039 0.74183 0.0
C993 C 0.89555 0.25654 0.71686 0.0
C994 C 0.85172 0.22424 0.81965 0.0
C995 C 0.8439 0.18758 0.82661 0.0
C996 C 0.85347 0.23365 0.79452 0.0
C997 C 0.84695 0.20638 0.77601 0.0
C998 C 0.83811 0.16953 0.78312 0.0
C999 C 0.83667 0.16029 0.80802 0.0
H1000 H 0.63153 0.79815 0.18606 0.0
H1001 H 0.68132 0.91405 0.21304 0.0
H1002 H 0.61244 0.77457 0.22848 0.0
H1003 H 0.66271 0.89089 0.25494 0.0
H1004 H 0.63001 0.84722 0.32988 0.0
H1005 H 0.61476 0.8546 0.28699 0.0
H1006 H 0.65621 0.78018 0.26208 0.0
H1007 H 0.67101 0.77279 0.30448 0.0
C1008 C 0.63748 0.81846 0.20093 0.0
C1009 C 0.65867 0.85788 0.19644 0.0
C1010 C 0.62663 0.80504 0.22516 0.0
C1011 C 0.63636 0.83089 0.24511 0.0
C1012 C 0.65443 0.87015 0.24008 0.0
C1013 C 0.66561 0.88347 0.21606 0.0
C1014 C 0.63468 0.8316 0.31524 0.0
C1015 C 0.65247 0.81019 0.32032 0.0
C1016 C 0.62606 0.83584 0.29073 0.0
C1017 C 0.63471 0.81832 0.2711 0.0
C1018 C 0.64892 0.79387 0.27668 0.0
C1019 C 0.65787 0.79001 0.30099 0.0
H1020 H 0.85087 0.62443 0.68546 0.0
H1021 H 0.83023 0.7159 0.70642 0.0
H1022 H 0.85454 0.61136 0.72939 0.0
H1023 H 0.83429 0.7032 0.74964 0.0
H1024 H 0.82042 0.66294 0.82646 0.0
H1025 H 0.80253 0.65704 0.78279 0.0
H1026 H 0.89983 0.64516 0.76345 0.0
H1027 H 0.91722 0.65019 0.8069 0.0
C1028 C 0.847 0.64161 0.69934 0.0
C1029 C 0.84062 0.67141 0.69237 0.0
C1030 C 0.84906 0.63412 0.72447 0.0
C1031 C 0.84437 0.65605 0.74301 0.0
C1032 C 0.83725 0.68524 0.73591 0.0
C1033 C 0.83545 0.69285 0.711 0.0
C1034 C 0.83744 0.65815 0.81295 0.0
C1035 C 0.87066 0.65783 0.82011 0.0
C1036 C 0.82733 0.65498 0.78793 0.0
C1037 C 0.85017 0.65131 0.76963 0.0
C1038 C 0.88157 0.64786 0.77704 0.0
C1039 C 0.89171 0.6511 0.80199 0.0
H1040 H 0.26204 0.86229 0.18947 0.0
H1041 H 0.15426 0.7601 0.20337 0.0
H1042 H 0.27669 0.868 0.23389 0.0
H1043 H 0.16921 0.76486 0.24736 0.0
H1044 H 0.17593 0.83319 0.31839 0.0
H1045 H 0.16863 0.81149 0.27562 0.0
H1046 H 0.28784 0.84304 0.27356 0.0
H1047 H 0.29481 0.86482 0.31688 0.0
C1048 C 0.2422 0.84037 0.20193 0.0
C1049 C 0.20678 0.8112 0.19324 0.0
C1050 C 0.25056 0.84351 0.22732 0.0
C1051 C 0.2237 0.81725 0.24418 0.0
C1052 C 0.19004 0.78601 0.23493 0.0
C1053 C 0.18153 0.78322 0.20977 0.0
C1054 C 0.20019 0.83434 0.30897 0.0
C1055 C 0.2357 0.85005 0.32076 0.0
C1056 C 0.19611 0.82188 0.28451 0.0
C1057 C 0.22767 0.82541 0.27118 0.0
C1058 C 0.26306 0.83999 0.28336 0.0
C1059 C 0.26699 0.85207 0.3081 0.0
H1060 H 0.4037 0.27734 0.80547 0.0
H1061 H 0.44109 0.19967 0.82968 0.0
H1062 H 0.41797 0.26979 0.76295 0.0
H1063 H 0.45611 0.1924 0.78667 0.0
H1064 H 0.39205 0.13553 0.71194 0.0
H1065 H 0.40925 0.15776 0.75417 0.0
H1066 H 0.4607 0.27468 0.72932 0.0
H1067 H 0.44275 0.25207 0.68655 0.0
C1068 C 0.41588 0.25929 0.80171 0.0
C1069 C 0.42036 0.23827 0.82074 0.0
C1070 C 0.42457 0.25537 0.77731 0.0
C1071 C 0.43773 0.23012 0.77135 0.0
C1072 C 0.44553 0.21171 0.7907 0.0
C1073 C 0.43706 0.21592 0.81529 0.0
C1074 C 0.40753 0.16605 0.71537 0.0
C1075 C 0.41515 0.19207 0.69604 0.0
C1076 C 0.41796 0.17884 0.73961 0.0
C1077 C 0.43612 0.21799 0.74518 0.0
C1078 C 0.44638 0.24427 0.7256 0.0
C1079 C 0.43615 0.23139 0.70115 0.0
H1080 H 0.35805 0.31748 0.94857 0.0
H1081 H 0.30972 0.19993 0.9713 0.0
H1082 H 0.32872 0.33013 0.98363 0.0
H1083 H 0.2795 0.21263 1.00676 0.0
H1084 H 0.27974 0.27011 0.08204 0.0
H1085 H 0.29705 0.24788 0.04523 0.0
H1086 H 0.26792 0.31761 1.00007 0.0
H1087 H 0.25138 0.3409 0.03747 0.0
C1088 C 0.34102 0.29418 0.9611 0.0
C1089 C 0.33624 0.25761 0.95712 0.0
C1090 C 0.32375 0.30141 0.98109 0.0
C1091 C 0.30107 0.2723 0.99779 0.0
C1092 C 0.29679 0.23574 0.9942 0.0
C1093 C 0.31427 0.22846 0.97403 0.0
C1094 C 0.27651 0.28044 0.06424 0.0
C1095 C 0.26486 0.30789 0.06269 0.0
C1096 C 0.28615 0.26732 0.04307 0.0
C1097 C 0.28445 0.2813 0.01969 0.0
C1098 C 0.27026 0.30682 0.01791 0.0
C1099 C 0.26043 0.31994 0.03925 0.0
H1100 H 0.14216 0.33446 0.48161 0.0
H1101 H 0.04502 0.31391 0.43682 0.0
H1102 H 0.09986 0.30966 0.51785 0.0
H1103 H 1.00358 0.28874 0.47213 0.0
H1104 H 0.94382 0.28196 0.54449 0.0
H1105 H 0.98774 0.30801 0.50955 0.0
H1106 H 0.04815 0.25169 0.53528 0.0
H1107 H 1.00494 0.22657 0.57044 0.0
C1108 C 0.112 0.32467 0.47945 0.0
C1109 C 0.09729 0.32667 0.45632 0.0
C1110 C 0.08768 0.31029 0.50014 0.0
C1111 C 0.04823 0.29753 0.498 0.0
C1112 C 1.03378 0.29914 0.47475 0.0
C1113 C 0.05783 0.31352 0.45434 0.0
C1114 C 0.96613 0.27473 0.54248 0.0
C1115 C 0.97069 0.25206 0.56019 0.0
C1116 C 0.99147 0.28974 0.52248 0.0
C1117 C 1.02175 0.28213 0.5196 0.0
C1118 C 1.02574 0.25881 0.53711 0.0
C1119 C 1.0006 0.24403 0.55714 0.0
H1120 H 0.71135 0.92153 0.03617 0.0
H1121 H 0.80821 1.00311 0.07904 0.0
H1122 H 0.7329 0.96642 1.00139 0.0
H1123 H 0.82898 0.04822 0.04509 0.0
H1124 H 0.86696 0.11776 0.97349 0.0
H1125 H 0.85319 0.06832 1.00445 0.0
H1126 H 0.73212 1.02435 0.99442 0.0
H1127 H 0.74595 0.07279 0.96335 0.0
C1128 C 0.7378 0.94851 0.03787 0.0
C1129 C 0.75797 0.95893 0.0603 0.0
C1130 C 0.74987 0.97458 0.01816 0.0
C1131 C 0.78228 1.01145 0.02059 0.0
C1132 C 0.80403 1.02029 0.04238 0.0
C1133 C 0.79202 0.99438 0.06193 0.0
C1134 C 0.8375 0.09793 0.97832 0.0
C1135 C 0.80757 0.09929 0.96611 0.0
C1136 C 0.82951 0.06934 0.99588 0.0
C1137 C 0.79143 0.04169 1.00164 0.0
C1138 C 0.76172 0.04421 0.98998 0.0
C1139 C 0.76968 0.07247 0.97244 0.0
H1140 H 0.74011 0.6846 0.55557 0.0
H1141 H 0.86089 0.76028 0.54424 0.0
H1142 H 0.72561 0.7183 0.52421 0.0
H1143 H 0.84645 0.79506 0.51298 0.0
H1144 H 0.8002 0.81348 0.43838 0.0
H1145 H 0.82151 0.78996 0.47251 0.0
H1146 H 0.72606 0.77657 0.51642 0.0
H1147 H 0.70394 0.79903 0.48144 0.0
C1148 C 0.76365 0.70839 0.54617 0.0
C1149 C 0.80167 0.71959 0.55226 0.0
C1150 C 0.75531 0.72818 0.52845 0.0
C1151 C 0.78475 0.76004 0.51633 0.0
C1152 C 0.82296 0.77063 0.52188 0.0
C1153 C 0.83133 0.75054 0.53963 0.0
C1154 C 0.78425 0.80637 0.45556 0.0
C1155 C 0.75021 0.80777 0.4572 0.0
C1156 C 0.79658 0.79295 0.47522 0.0
C1157 C 0.77519 0.78055 0.49715 0.0
C1158 C 0.74278 0.78499 0.49955 0.0
C1159 C 0.73038 0.79849 0.47973 0.0
H1160 H 1.01716 0.79304 0.94051 0.0
H1161 H 0.94044 0.68807 0.97823 0.0
H1162 H 0.06336 0.81058 0.97346 0.0
H1163 H 0.98619 0.70681 0.01231 0.0
H1164 H 0.09011 0.72693 0.05535 0.0
H1165 H 0.04497 0.71156 0.02157 0.0
H1166 H 0.08158 0.83151 0.01397 0.0
H1167 H 0.12818 0.84675 0.04721 0.0
C1168 C 1.00976 0.77385 0.95608 0.0
C1169 C 0.97507 0.73878 0.95648 0.0
C1170 C 1.03639 0.78419 0.9752 0.0
C1171 C 1.02903 0.76006 0.99559 0.0
C1172 C 0.99345 0.72578 0.99663 0.0
C1173 C 0.96686 0.71517 0.97724 0.0
C1174 C 0.08906 0.75007 0.04604 0.0
C1175 C 0.11289 0.78806 0.05371 0.0
C1176 C 0.06265 0.74122 0.02693 0.0
C1177 C 0.05879 0.77009 0.0152 0.0
C1178 C 0.08375 0.8084 0.02234 0.0
C1179 C 0.11071 0.8173 0.0413 0.0
H1180 H 0.25464 0.92031 0.48059 0.0
H1181 H 0.26608 1.01402 0.43623 0.0
H1182 H 0.27459 0.96194 0.51722 0.0
H1183 H 0.28713 0.05559 0.47214 0.0
H1184 H 0.30476 0.11768 0.54624 0.0
H1185 H 0.27388 0.07319 0.5116 0.0
H1186 H 0.33461 1.01421 0.53087 0.0
H1187 H 0.36439 0.05771 0.56537 0.0
C1188 C 0.26079 0.9495 0.47873 0.0
C1189 C 0.25939 0.96399 0.45545 0.0
C1190 C 0.27265 0.97355 0.49961 0.0
C1191 C 0.2832 1.01244 0.49756 0.0
C1192 C 0.27922 0.02596 0.47454 0.0
C1193 C 0.26744 1.00207 0.45383 0.0
C1194 C 0.31182 0.09553 0.54274 0.0
C1195 C 0.33699 0.09122 0.55848 0.0
C1196 C 0.29397 0.06984 0.52305 0.0
C1197 C 0.30118 0.03955 0.51869 0.0
C1198 C 0.32737 0.0363 0.53405 0.0
C1199 C 0.34491 0.06167 0.55366 0.0
loop_
_geom_bond_atom_site_label_1
_geom_bond_atom_site_label_2
_geom_bond_distance
_geom_bond_site_symmetry_2
_ccdc_geom_bond_type
Tb0 C10 2.825 . S
Tb0 O11 2.347 . S
Tb0 O14 2.366 . S
Tb0 O19 2.418 . S
Tb0 O20 2.384 . S
Tb0 O23 2.479 . S
Tb0 O24 2.471 . S
Eu1 O12 2.418 . S
Eu1 O13 2.384 . S
Eu1 O16 2.479 . S
Eu1 O17 2.471 . S
Eu1 O18 2.347 . S
Eu1 O21 2.366 . S
Eu1 C31 2.825 . S
C2 O18 1.259 . S
C2 O19 1.265 . S
C3 O20 1.255 . S
C3 O21 1.265 . S
C4 C6 1.380 . S
C4 C7 1.374 . S
C4 C10 1.507 . S
C5 C6 1.384 . S
C5 C9 1.387 . S
C5 H32 0.930 . S
C6 C4 1.380 . S
C6 C5 1.384 . S
C6 H33 0.931 . S
C7 C4 1.374 . S
C7 C8 1.390 . S
C7 H34 0.930 . S
C8 C7 1.390 . S
C8 C9 1.391 . S
C8 H35 0.930 . S
C9 C5 1.387 . S
C9 C8 1.391 . S
C10 Tb0 2.825 . S
C10 C4 1.507 . S
C10 O23 1.238 . S
C10 O24 1.247 . S
O11 Tb0 2.347 . S
O11 C15 1.259 . S
O12 Eu1 2.418 . S
O12 C15 1.265 . S
O13 Eu1 2.384 . S
O13 C22 1.255 . S
O14 Tb0 2.366 . S
O14 C22 1.265 . S
C15 O11 1.259 . S
C15 O12 1.265 . S
O16 Eu1 2.479 . S
O16 C31 1.238 . S
O17 Eu1 2.471 . S
O17 C31 1.247 . S
O18 Eu1 2.347 . S
O18 C2 1.259 . S
O19 Tb0 2.418 . S
O19 C2 1.265 . S
O20 Tb0 2.384 . S
O20 C3 1.255 . S
O21 Eu1 2.366 . S
O21 C3 1.265 . S
C22 O13 1.255 . S
C22 O14 1.265 . S
O23 Tb0 2.479 . S
O23 C10 1.238 . S
O24 Tb0 2.471 . S
O24 C10 1.247 . S
C25 C28 1.380 . S
C25 C29 1.374 . S
C25 C31 1.507 . S
C26 C27 1.387 . S
C26 C30 1.391 . S
C27 C26 1.387 . S
C27 C28 1.384 . S
C27 H36 0.930 . S
C28 C25 1.380 . S
C28 C27 1.384 . S
C28 H37 0.931 . S
C29 C25 1.374 . S
C29 C30 1.390 . S
C29 H38 0.930 . S
C30 C26 1.391 . S
C30 C29 1.390 . S
C30 H39 0.930 . S
C31 Eu1 2.825 . S
C31 O16 1.238 . S
C31 O17 1.247 . S
C31 C25 1.507 . S
H32 C5 0.930 . S
H33 C6 0.931 . S
H34 C7 0.930 . S
H35 C8 0.930 . S
H36 C27 0.930 . S
H37 C28 0.931 . S
H38 C29 0.930 . S
H39 C30 0.930 . S
Tb40 C50 2.825 . S
Tb40 O51 2.347 . S
Tb40 O54 2.366 . S
Tb40 O59 2.418 . S
Tb40 O60 2.384 . S
Tb40 O63 2.479 . S
Tb40 O64 2.471 . S
Eu41 O52 2.418 . S
Eu41 O53 2.384 . S
Eu41 O56 2.479 . S
Eu41 O57 2.471 . S
Eu41 O58 2.347 . S
Eu41 O61 2.366 . S
Eu41 C71 2.825 . S
C42 O58 1.259 . S
C42 O59 1.265 . S
C43 O60 1.255 . S
C43 O61 1.265 . S
C44 C46 1.380 . S
C44 C47 1.374 . S
C44 C50 1.507 . S
C45 C46 1.384 . S
C45 C49 1.387 . S
C45 H72 0.930 . S
C46 C44 1.380 . S
C46 C45 1.384 . S
C46 H73 0.931 . S
C47 C44 1.374 . S
C47 C48 1.390 . S
C47 H74 0.930 . S
C48 C47 1.390 . S
C48 C49 1.391 . S
C48 H75 0.930 . S
C49 C45 1.387 . S
C49 C48 1.391 . S
C50 Tb40 2.825 . S
C50 C44 1.507 . S
C50 O63 1.238 . S
C50 O64 1.247 . S
O51 Tb40 2.347 . S
O51 C55 1.259 . S
O52 Eu41 2.418 . S
O52 C55 1.265 . S
O53 Eu41 2.384 . S
O53 C62 1.255 . S
O54 Tb40 2.366 . S
O54 C62 1.265 . S
C55 O51 1.259 . S
C55 O52 1.265 . S
O56 Eu41 2.479 . S
O56 C71 1.238 . S
O57 Eu41 2.471 . S
O57 C71 1.247 . S
O58 Eu41 2.347 . S
O58 C42 1.259 . S
O59 Tb40 2.418 . S
O59 C42 1.265 . S
O60 Tb40 2.384 . S
O60 C43 1.255 . S
O61 Eu41 2.366 . S
O61 C43 1.265 . S
C62 O53 1.255 . S
C62 O54 1.265 . S
O63 Tb40 2.479 . S
O63 C50 1.238 . S
O64 Tb40 2.471 . S
O64 C50 1.247 . S
C65 C68 1.380 . S
C65 C69 1.374 . S
C65 C71 1.507 1_455 S
C66 C67 1.387 . S
C66 C70 1.391 . S
C67 C66 1.387 . S
C67 C68 1.384 . S
C67 H76 0.930 . S
C68 C65 1.380 . S
C68 C67 1.384 . S
C68 H77 0.931 . S
C69 C65 1.374 . S
C69 C70 1.390 . S
C69 H78 0.925 1_455 S
C70 C66 1.391 . S
C70 C69 1.390 . S
C70 H79 0.930 . S
C71 Eu41 2.825 . S
C71 O56 1.238 . S
C71 O57 1.247 . S
C71 C65 1.507 1_655 S
H72 C45 0.930 . S
H73 C46 0.931 . S
H74 C47 0.930 . S
H75 C48 0.930 . S
H76 C67 0.930 . S
H77 C68 0.931 . S
H78 C69 0.925 1_655 S
H79 C70 0.930 . S
Tb80 C90 2.825 . S
Tb80 O91 2.347 . S
Tb80 O94 2.366 . S
Tb80 O99 2.418 . S
Tb80 O100 2.384 . S
Tb80 O103 2.479 . S
Tb80 O104 2.471 . S
Eu81 O92 2.418 . S
Eu81 O93 2.384 . S
Eu81 O96 2.479 . S
Eu81 O97 2.471 . S
Eu81 O98 2.347 . S
Eu81 O101 2.366 . S
Eu81 C111 2.825 . S
C82 O98 1.259 . S
C82 O99 1.265 . S
C83 O100 1.255 . S
C83 O101 1.265 . S
C84 C86 1.380 . S
C84 C87 1.374 . S
C84 C90 1.507 . S
C85 C86 1.384 . S
C85 C89 1.387 . S
C85 H112 0.930 . S
C86 C84 1.380 . S
C86 C85 1.384 . S
C86 H113 0.931 . S
C87 C84 1.374 . S
C87 C88 1.390 . S
C87 H114 0.930 . S
C88 C87 1.390 . S
C88 C89 1.391 . S
C88 H115 0.930 . S
C89 C85 1.387 . S
C89 C88 1.391 . S
C90 Tb80 2.825 . S
C90 C84 1.507 . S
C90 O103 1.238 . S
C90 O104 1.247 . S
O91 Tb80 2.347 . S
O91 C95 1.259 . S
O92 Eu81 2.418 . S
O92 C95 1.265 . S
O93 Eu81 2.384 . S
O93 C102 1.255 . S
O94 Tb80 2.366 . S
O94 C102 1.265 . S
C95 O91 1.259 . S
C95 O92 1.265 . S
O96 Eu81 2.479 . S
O96 C111 1.238 . S
O97 Eu81 2.471 . S
O97 C111 1.247 . S
O98 Eu81 2.347 . S
O98 C82 1.259 . S
O99 Tb80 2.418 . S
O99 C82 1.265 . S
O100 Tb80 2.384 . S
O100 C83 1.255 . S
O101 Eu81 2.366 . S
O101 C83 1.265 . S
C102 O93 1.255 . S
C102 O94 1.265 . S
O103 Tb80 2.479 . S
O103 C90 1.238 . S
O104 Tb80 2.471 . S
O104 C90 1.247 . S
C105 C108 1.380 . S
C105 C109 1.374 . S
C105 C111 1.507 1_545 S
C106 C107 1.387 . S
C106 C110 1.391 . S
C107 C106 1.387 . S
C107 C108 1.384 . S
C107 H116 0.930 . S
C108 C105 1.380 . S
C108 C107 1.384 . S
C108 H117 0.931 . S
C109 C105 1.374 . S
C109 C110 1.390 . S
C109 H118 0.927 1_545 S
C110 C106 1.391 . S
C110 C109 1.390 . S
C110 H119 0.930 . S
C111 Eu81 2.825 . S
C111 O96 1.238 . S
C111 O97 1.247 . S
C111 C105 1.507 1_565 S
H112 C85 0.930 . S
H113 C86 0.931 . S
H114 C87 0.930 . S
H115 C88 0.930 . S
H116 C107 0.930 . S
H117 C108 0.931 . S
H118 C109 0.927 1_565 S
H119 C110 0.930 . S
Tb120 C130 2.825 . S
Tb120 O131 2.347 . S
Tb120 O134 2.366 . S
Tb120 O139 2.418 . S
Tb120 O140 2.384 . S
Tb120 O143 2.479 . S
Tb120 O144 2.471 . S
Eu121 O132 2.418 . S
Eu121 O133 2.384 . S
Eu121 O136 2.479 . S
Eu121 O137 2.471 . S
Eu121 O138 2.347 . S
Eu121 O141 2.366 . S
Eu121 C151 2.825 . S
C122 O138 1.259 . S
C122 O139 1.265 . S
C123 O140 1.255 . S
C123 O141 1.265 . S
C124 C126 1.380 . S
C124 C127 1.374 . S
C124 C130 1.507 . S
C125 C126 1.384 . S
C125 C129 1.387 . S
C125 H152 0.930 . S
C126 C124 1.380 . S
C126 C125 1.384 . S
C126 H153 0.931 . S
C127 C124 1.374 . S
C127 C128 1.390 . S
C127 H154 0.930 . S
C128 C127 1.390 . S
C128 C129 1.391 . S
C128 H155 0.930 . S
C129 C125 1.387 . S
C129 C128 1.391 . S
C130 Tb120 2.825 . S
C130 C124 1.507 . S
C130 O143 1.238 . S
C130 O144 1.247 . S
O131 Tb120 2.347 . S
O131 C135 1.259 . S
O132 Eu121 2.418 . S
O132 C135 1.265 . S
O133 Eu121 2.384 . S
O133 C142 1.255 . S
O134 Tb120 2.366 . S
O134 C142 1.265 . S
C135 O131 1.259 . S
C135 O132 1.265 . S
O136 Eu121 2.479 . S
O136 C151 1.238 . S
O137 Eu121 2.471 . S
O137 C151 1.247 . S
O138 Eu121 2.347 . S
O138 C122 1.259 . S
O139 Tb120 2.418 . S
O139 C122 1.265 . S
O140 Tb120 2.384 . S
O140 C123 1.255 . S
O141 Eu121 2.366 . S
O141 C123 1.265 . S
C142 O133 1.255 . S
C142 O134 1.265 . S
O143 Tb120 2.479 . S
O143 C130 1.238 . S
O144 Tb120 2.471 . S
O144 C130 1.247 . S
C145 C148 1.380 . S
C145 C149 1.374 . S
C145 C151 1.507 . S
C146 C147 1.387 . S
C146 C150 1.391 . S
C147 C146 1.387 . S
C147 C148 1.384 . S
C147 H156 0.930 . S
C148 C145 1.380 . S
C148 C147 1.384 . S
C148 H157 0.931 . S
C149 C145 1.374 . S
C149 C150 1.390 . S
C149 H158 0.930 . S
C150 C146 1.391 . S
C150 C149 1.390 . S
C150 H159 0.930 . S
C151 Eu121 2.825 . S
C151 O136 1.238 . S
C151 O137 1.247 . S
C151 C145 1.507 . S
H152 C125 0.930 . S
H153 C126 0.931 . S
H154 C127 0.930 . S
H155 C128 0.930 . S
H156 C147 0.930 . S
H157 C148 0.931 . S
H158 C149 0.930 . S
H159 C150 0.930 . S
Tb160 C170 2.825 . S
Tb160 O171 2.347 . S
Tb160 O174 2.366 . S
Tb160 O179 2.418 . S
Tb160 O180 2.384 . S
Tb160 O183 2.479 . S
Tb160 O184 2.471 . S
Eu161 O172 2.418 . S
Eu161 O173 2.384 . S
Eu161 O176 2.479 . S
Eu161 O177 2.471 . S
Eu161 O178 2.347 . S
Eu161 O181 2.366 . S
Eu161 C191 2.825 . S
C162 O178 1.259 . S
C162 O179 1.265 . S
C163 O180 1.255 . S
C163 O181 1.265 . S
C164 C166 1.380 . S
C164 C167 1.374 . S
C164 C170 1.507 . S
C165 C166 1.384 . S
C165 C169 1.387 . S
C165 H192 0.930 . S
C166 C164 1.380 . S
C166 C165 1.384 . S
C166 H193 0.931 . S
C167 C164 1.374 . S
C167 C168 1.390 . S
C167 H194 0.930 . S
C168 C167 1.390 . S
C168 C169 1.391 . S
C168 H195 0.930 . S
C169 C165 1.387 . S
C169 C168 1.391 . S
C170 Tb160 2.825 . S
C170 C164 1.507 . S
C170 O183 1.238 . S
C170 O184 1.247 . S
O171 Tb160 2.347 . S
O171 C175 1.259 . S
O172 Eu161 2.418 . S
O172 C175 1.265 . S
O173 Eu161 2.384 . S
O173 C182 1.255 . S
O174 Tb160 2.366 . S
O174 C182 1.265 . S
C175 O171 1.259 . S
C175 O172 1.265 . S
O176 Eu161 2.479 . S
O176 C191 1.238 . S
O177 Eu161 2.471 . S
O177 C191 1.247 . S
O178 Eu161 2.347 . S
O178 C162 1.259 . S
O179 Tb160 2.418 . S
O179 C162 1.265 . S
O180 Tb160 2.384 . S
O180 C163 1.255 . S
O181 Eu161 2.366 . S
O181 C163 1.265 . S
C182 O173 1.255 . S
C182 O174 1.265 . S
O183 Tb160 2.479 . S
O183 C170 1.238 . S
O184 Tb160 2.471 . S
O184 C170 1.247 . S
C185 C188 1.380 . S
C185 C189 1.374 . S
C185 C191 1.507 1_655 S
C186 C187 1.387 . S
C186 C190 1.391 . S
C187 C186 1.387 . S
C187 C188 1.384 . S
C187 H196 0.930 . S
C188 C185 1.380 . S
C188 C187 1.384 . S
C188 H197 0.931 . S
C189 C185 1.374 . S
C189 C190 1.390 . S
C189 H198 0.925 1_655 S
C190 C186 1.391 . S
C190 C189 1.390 . S
C190 H199 0.930 . S
C191 Eu161 2.825 . S
C191 O176 1.238 . S
C191 O177 1.247 . S
C191 C185 1.507 1_455 S
H192 C165 0.930 . S
H193 C166 0.931 . S
H194 C167 0.930 . S
H195 C168 0.930 . S
H196 C187 0.930 . S
H197 C188 0.931 . S
H198 C189 0.925 1_455 S
H199 C190 0.930 . S
Tb200 C210 2.825 . S
Tb200 O211 2.347 . S
Tb200 O214 2.366 . S
Tb200 O219 2.418 . S
Tb200 O220 2.384 . S
Tb200 O223 2.479 . S
Tb200 O224 2.471 . S
Eu201 O212 2.418 . S
Eu201 O213 2.384 . S
Eu201 O216 2.479 . S
Eu201 O217 2.471 . S
Eu201 O218 2.347 . S
Eu201 O221 2.366 . S
Eu201 C231 2.825 . S
C202 O218 1.259 . S
C202 O219 1.265 . S
C203 O220 1.255 . S
C203 O221 1.265 . S
C204 C206 1.380 . S
C204 C207 1.374 . S
C204 C210 1.507 . S
C205 C206 1.384 . S
C205 C209 1.387 . S
C205 H232 0.930 . S
C206 C204 1.380 . S
C206 C205 1.384 . S
C206 H233 0.931 . S
C207 C204 1.374 . S
C207 C208 1.390 . S
C207 H234 0.930 . S
C208 C207 1.390 . S
C208 C209 1.391 . S
C208 H235 0.930 . S
C209 C205 1.387 . S
C209 C208 1.391 . S
C210 Tb200 2.825 . S
C210 C204 1.507 . S
C210 O223 1.238 . S
C210 O224 1.247 . S
O211 Tb200 2.347 . S
O211 C215 1.259 . S
O212 Eu201 2.418 . S
O212 C215 1.265 . S
O213 Eu201 2.384 . S
O213 C222 1.255 . S
O214 Tb200 2.366 . S
O214 C222 1.265 . S
C215 O211 1.259 . S
C215 O212 1.265 . S
O216 Eu201 2.479 . S
O216 C231 1.238 . S
O217 Eu201 2.471 . S
O217 C231 1.247 . S
O218 Eu201 2.347 . S
O218 C202 1.259 . S
O219 Tb200 2.418 . S
O219 C202 1.265 . S
O220 Tb200 2.384 . S
O220 C203 1.255 . S
O221 Eu201 2.366 . S
O221 C203 1.265 . S
C222 O213 1.255 . S
C222 O214 1.265 . S
O223 Tb200 2.479 . S
O223 C210 1.238 . S
O224 Tb200 2.471 . S
O224 C210 1.247 . S
C225 C228 1.380 . S
C225 C229 1.374 . S
C225 C231 1.507 1_565 S
C226 C227 1.387 . S
C226 C230 1.391 . S
C227 C226 1.387 . S
C227 C228 1.384 . S
C227 H236 0.930 . S
C228 C225 1.380 . S
C228 C227 1.384 . S
C228 H237 0.931 . S
C229 C225 1.374 . S
C229 C230 1.390 . S
C229 H238 0.927 1_565 S
C230 C226 1.391 . S
C230 C229 1.390 . S
C230 H239 0.930 . S
C231 Eu201 2.825 . S
C231 O216 1.238 . S
C231 O217 1.247 . S
C231 C225 1.507 1_545 S
H232 C205 0.930 . S
H233 C206 0.931 . S
H234 C207 0.930 . S
H235 C208 0.930 . S
H236 C227 0.930 . S
H237 C228 0.931 . S
H238 C229 0.927 1_545 S
H239 C230 0.930 . S
Tb240 C250 2.825 . S
Tb240 O251 2.347 . S
Tb240 O254 2.366 . S
Tb240 O259 2.418 . S
Tb240 O260 2.384 . S
Tb240 O263 2.479 . S
Tb240 O264 2.471 . S
Eu241 O252 2.418 . S
Eu241 O253 2.384 . S
Eu241 O256 2.479 . S
Eu241 O257 2.471 . S
Eu241 O258 2.347 . S
Eu241 O261 2.366 . S
Eu241 C271 2.825 . S
C242 O258 1.259 . S
C242 O259 1.265 . S
C243 O260 1.255 . S
C243 O261 1.265 . S
C244 C246 1.380 . S
C244 C247 1.374 . S
C244 C250 1.507 . S
C245 C246 1.384 . S
C245 C249 1.387 . S
C245 H272 0.930 . S
C246 C244 1.380 . S
C246 C245 1.384 . S
C246 H273 0.931 . S
C247 C244 1.374 . S
C247 C248 1.390 . S
C247 H274 0.930 . S
C248 C247 1.390 . S
C248 C249 1.391 . S
C248 H275 0.930 . S
C249 C245 1.387 . S
C249 C248 1.391 . S
C250 Tb240 2.825 . S
C250 C244 1.507 . S
C250 O263 1.238 . S
C250 O264 1.247 . S
O251 Tb240 2.347 . S
O251 C255 1.259 . S
O252 Eu241 2.418 . S
O252 C255 1.265 . S
O253 Eu241 2.384 . S
O253 C262 1.255 . S
O254 Tb240 2.366 . S
O254 C262 1.265 . S
C255 O251 1.259 . S
C255 O252 1.265 . S
O256 Eu241 2.479 . S
O256 C271 1.238 . S
O257 Eu241 2.471 . S
O257 C271 1.247 . S
O258 Eu241 2.347 . S
O258 C242 1.259 . S
O259 Tb240 2.418 . S
O259 C242 1.265 . S
O260 Tb240 2.384 . S
O260 C243 1.255 . S
O261 Eu241 2.366 . S
O261 C243 1.265 . S
C262 O253 1.255 . S
C262 O254 1.265 . S
O263 Tb240 2.479 . S
O263 C250 1.238 . S
O264 Tb240 2.471 . S
O264 C250 1.247 . S
C265 C268 1.380 . S
C265 C269 1.374 . S
C265 C271 1.507 . S
C266 C267 1.387 . S
C266 C270 1.391 . S
C267 C266 1.387 . S
C267 C268 1.384 . S
C267 H276 0.930 . S
C268 C265 1.380 . S
C268 C267 1.384 . S
C268 H277 0.931 . S
C269 C265 1.374 . S
C269 C270 1.390 . S
C269 H278 0.930 . S
C270 C266 1.391 . S
C270 C269 1.390 . S
C270 H279 0.930 . S
C271 Eu241 2.825 . S
C271 O256 1.238 . S
C271 O257 1.247 . S
C271 C265 1.507 . S
H272 C245 0.930 . S
H273 C246 0.931 . S
H274 C247 0.930 . S
H275 C248 0.930 . S
H276 C267 0.930 . S
H277 C268 0.931 . S
H278 C269 0.930 . S
H279 C270 0.930 . S
Tb280 C290 2.825 . S
Tb280 O291 2.347 . S
Tb280 O294 2.366 . S
Tb280 O299 2.418 . S
Tb280 O300 2.384 . S
Tb280 O303 2.479 . S
Tb280 O304 2.471 . S
Eu281 O292 2.418 . S
Eu281 O293 2.384 . S
Eu281 O296 2.479 . S
Eu281 O297 2.471 . S
Eu281 O298 2.347 . S
Eu281 O301 2.366 . S
Eu281 C311 2.825 . S
C282 O298 1.259 . S
C282 O299 1.265 . S
C283 O300 1.255 . S
C283 O301 1.265 . S
C284 C286 1.380 . S
C284 C287 1.374 . S
C284 C290 1.507 . S
C285 C286 1.384 . S
C285 C289 1.387 . S
C285 H312 0.930 . S
C286 C284 1.380 . S
C286 C285 1.384 . S
C286 H313 0.931 . S
C287 C284 1.374 . S
C287 C288 1.390 . S
C287 H314 0.930 . S
C288 C287 1.390 . S
C288 C289 1.391 . S
C288 H315 0.930 . S
C289 C285 1.387 . S
C289 C288 1.391 . S
C290 Tb280 2.825 . S
C290 C284 1.507 . S
C290 O303 1.238 . S
C290 O304 1.247 . S
O291 Tb280 2.347 . S
O291 C295 1.259 . S
O292 Eu281 2.418 . S
O292 C295 1.265 . S
O293 Eu281 2.384 . S
O293 C302 1.255 . S
O294 Tb280 2.366 . S
O294 C302 1.265 . S
C295 O291 1.259 . S
C295 O292 1.265 . S
O296 Eu281 2.479 . S
O296 C311 1.238 . S
O297 Eu281 2.471 . S
O297 C311 1.247 . S
O298 Eu281 2.347 . S
O298 C282 1.259 . S
O299 Tb280 2.418 . S
O299 C282 1.265 . S
O300 Tb280 2.384 . S
O300 C283 1.255 . S
O301 Eu281 2.366 . S
O301 C283 1.265 . S
C302 O293 1.255 . S
C302 O294 1.265 . S
O303 Tb280 2.479 . S
O303 C290 1.238 . S
O304 Tb280 2.471 . S
O304 C290 1.247 . S
C305 C308 1.380 . S
C305 C309 1.374 . S
C305 C311 1.507 1_455 S
C306 C307 1.387 . S
C306 C310 1.391 . S
C307 C306 1.387 . S
C307 C308 1.384 . S
C307 H316 0.930 . S
C308 C305 1.380 . S
C308 C307 1.384 . S
C308 H317 0.931 . S
C309 C305 1.374 . S
C309 C310 1.390 . S
C309 H318 0.927 1_455 S
C310 C306 1.391 . S
C310 C309 1.390 . S
C310 H319 0.930 . S
C311 Eu281 2.825 . S
C311 O296 1.238 . S
C311 O297 1.247 . S
C311 C305 1.507 1_655 S
H312 C285 0.930 . S
H313 C286 0.931 . S
H314 C287 0.930 . S
H315 C288 0.930 . S
H316 C307 0.930 . S
H317 C308 0.931 . S
H318 C309 0.927 1_655 S
H319 C310 0.930 . S
Tb320 C330 2.825 . S
Tb320 O331 2.347 . S
Tb320 O334 2.366 . S
Tb320 O339 2.418 . S
Tb320 O340 2.384 . S
Tb320 O343 2.479 . S
Tb320 O344 2.471 . S
Eu321 O332 2.418 . S
Eu321 O333 2.384 . S
Eu321 O336 2.479 . S
Eu321 O337 2.471 . S
Eu321 O338 2.347 . S
Eu321 O341 2.366 . S
Eu321 C351 2.825 . S
C322 O338 1.259 . S
C322 O339 1.265 . S
C323 O340 1.255 . S
C323 O341 1.265 . S
C324 C326 1.380 . S
C324 C327 1.374 . S
C324 C330 1.507 . S
C325 C326 1.384 . S
C325 C329 1.387 . S
C325 H352 0.930 . S
C326 C324 1.380 . S
C326 C325 1.384 . S
C326 H353 0.931 . S
C327 C324 1.374 . S
C327 C328 1.390 . S
C327 H354 0.930 . S
C328 C327 1.390 . S
C328 C329 1.391 . S
C328 H355 0.930 . S
C329 C325 1.387 . S
C329 C328 1.391 . S
C330 Tb320 2.825 . S
C330 C324 1.507 . S
C330 O343 1.238 . S
C330 O344 1.247 . S
O331 Tb320 2.347 . S
O331 C335 1.259 . S
O332 Eu321 2.418 . S
O332 C335 1.265 . S
O333 Eu321 2.384 . S
O333 C342 1.255 . S
O334 Tb320 2.366 . S
O334 C342 1.265 . S
C335 O331 1.259 . S
C335 O332 1.265 . S
O336 Eu321 2.479 . S
O336 C351 1.238 . S
O337 Eu321 2.471 . S
O337 C351 1.247 . S
O338 Eu321 2.347 . S
O338 C322 1.259 . S
O339 Tb320 2.418 . S
O339 C322 1.265 . S
O340 Tb320 2.384 . S
O340 C323 1.255 . S
O341 Eu321 2.366 . S
O341 C323 1.265 . S
C342 O333 1.255 . S
C342 O334 1.265 . S
O343 Tb320 2.479 . S
O343 C330 1.238 . S
O344 Tb320 2.471 . S
O344 C330 1.247 . S
C345 C348 1.380 . S
C345 C349 1.374 . S
C345 C351 1.507 1_545 S
C346 C347 1.387 . S
C346 C350 1.391 . S
C347 C346 1.387 . S
C347 C348 1.384 . S
C347 H356 0.930 . S
C348 C345 1.380 . S
C348 C347 1.384 . S
C348 H357 0.931 . S
C349 C345 1.374 . S
C349 C350 1.390 . S
C349 H358 0.925 1_545 S
C350 C346 1.391 . S
C350 C349 1.390 . S
C350 H359 0.930 . S
C351 Eu321 2.825 . S
C351 O336 1.238 . S
C351 O337 1.247 . S
C351 C345 1.507 1_565 S
H352 C325 0.930 . S
H353 C326 0.931 . S
H354 C327 0.930 . S
H355 C328 0.930 . S
H356 C347 0.930 . S
H357 C348 0.931 . S
H358 C349 0.925 1_565 S
H359 C350 0.930 . S
Tb360 C370 2.825 . S
Tb360 O371 2.347 . S
Tb360 O374 2.366 . S
Tb360 O379 2.418 . S
Tb360 O380 2.384 . S
Tb360 O383 2.479 . S
Tb360 O384 2.471 . S
Eu361 O372 2.418 . S
Eu361 O373 2.384 . S
Eu361 O376 2.479 . S
Eu361 O377 2.471 . S
Eu361 O378 2.347 . S
Eu361 O381 2.366 . S
Eu361 C391 2.825 . S
C362 O378 1.259 . S
C362 O379 1.265 . S
C363 O380 1.255 . S
C363 O381 1.265 . S
C364 C366 1.380 . S
C364 C367 1.374 . S
C364 C370 1.507 . S
C365 C366 1.384 . S
C365 C369 1.387 . S
C365 H392 0.930 . S
C366 C364 1.380 . S
C366 C365 1.384 . S
C366 H393 0.931 . S
C367 C364 1.374 . S
C367 C368 1.390 . S
C367 H394 0.930 . S
C368 C367 1.390 . S
C368 C369 1.391 . S
C368 H395 0.930 . S
C369 C365 1.387 . S
C369 C368 1.391 . S
C370 Tb360 2.825 . S
C370 C364 1.507 . S
C370 O383 1.238 . S
C370 O384 1.247 . S
O371 Tb360 2.347 . S
O371 C375 1.259 . S
O372 Eu361 2.418 . S
O372 C375 1.265 . S
O373 Eu361 2.384 . S
O373 C382 1.255 . S
O374 Tb360 2.366 . S
O374 C382 1.265 . S
C375 O371 1.259 . S
C375 O372 1.265 . S
O376 Eu361 2.479 . S
O376 C391 1.238 . S
O377 Eu361 2.471 . S
O377 C391 1.247 . S
O378 Eu361 2.347 . S
O378 C362 1.259 . S
O379 Tb360 2.418 . S
O379 C362 1.265 . S
O380 Tb360 2.384 . S
O380 C363 1.255 . S
O381 Eu361 2.366 . S
O381 C363 1.265 . S
C382 O373 1.255 . S
C382 O374 1.265 . S
O383 Tb360 2.479 . S
O383 C370 1.238 . S
O384 Tb360 2.471 . S
O384 C370 1.247 . S
C385 C388 1.380 . S
C385 C389 1.374 . S
C385 C391 1.507 . S
C386 C387 1.387 . S
C386 C390 1.391 . S
C387 C386 1.387 . S
C387 C388 1.384 . S
C387 H396 0.930 . S
C388 C385 1.380 . S
C388 C387 1.384 . S
C388 H397 0.931 . S
C389 C385 1.374 . S
C389 C390 1.390 . S
C389 H398 0.930 . S
C390 C386 1.391 . S
C390 C389 1.390 . S
C390 H399 0.930 . S
C391 Eu361 2.825 . S
C391 O376 1.238 . S
C391 O377 1.247 . S
C391 C385 1.507 . S
H392 C365 0.930 . S
H393 C366 0.931 . S
H394 C367 0.930 . S
H395 C368 0.930 . S
H396 C387 0.930 . S
H397 C388 0.931 . S
H398 C389 0.930 . S
H399 C390 0.930 . S
Tb400 C410 2.825 . S
Tb400 O411 2.347 . S
Tb400 O414 2.366 . S
Tb400 O419 2.418 . S
Tb400 O420 2.384 . S
Tb400 O423 2.479 . S
Tb400 O424 2.471 . S
Eu401 O412 2.418 . S
Eu401 O413 2.384 . S
Eu401 O416 2.479 . S
Eu401 O417 2.471 . S
Eu401 O418 2.347 . S
Eu401 O421 2.366 . S
Eu401 C431 2.825 . S
C402 O418 1.259 . S
C402 O419 1.265 . S
C403 O420 1.255 . S
C403 O421 1.265 . S
C404 C406 1.380 . S
C404 C407 1.374 . S
C404 C410 1.507 . S
C405 C406 1.384 . S
C405 C409 1.387 . S
C405 H432 0.930 . S
C406 C404 1.380 . S
C406 C405 1.384 . S
C406 H433 0.931 . S
C407 C404 1.374 . S
C407 C408 1.390 . S
C407 H434 0.930 . S
C408 C407 1.390 . S
C408 C409 1.391 . S
C408 H435 0.930 . S
C409 C405 1.387 . S
C409 C408 1.391 . S
C410 Tb400 2.825 . S
C410 C404 1.507 . S
C410 O423 1.238 . S
C410 O424 1.247 . S
O411 Tb400 2.347 . S
O411 C415 1.259 . S
O412 Eu401 2.418 . S
O412 C415 1.265 . S
O413 Eu401 2.384 . S
O413 C422 1.255 . S
O414 Tb400 2.366 . S
O414 C422 1.265 . S
C415 O411 1.259 . S
C415 O412 1.265 . S
O416 Eu401 2.479 . S
O416 C431 1.238 . S
O417 Eu401 2.471 . S
O417 C431 1.247 . S
O418 Eu401 2.347 . S
O418 C402 1.259 . S
O419 Tb400 2.418 . S
O419 C402 1.265 . S
O420 Tb400 2.384 . S
O420 C403 1.255 . S
O421 Eu401 2.366 . S
O421 C403 1.265 . S
C422 O413 1.255 . S
C422 O414 1.265 . S
O423 Tb400 2.479 . S
O423 C410 1.238 . S
O424 Tb400 2.471 . S
O424 C410 1.247 . S
C425 C428 1.380 . S
C425 C429 1.374 . S
C425 C431 1.507 1_655 S
C426 C427 1.387 . S
C426 C430 1.391 . S
C427 C426 1.387 . S
C427 C428 1.384 . S
C427 H436 0.930 . S
C428 C425 1.380 . S
C428 C427 1.384 . S
C428 H437 0.931 . S
C429 C425 1.374 . S
C429 C430 1.390 . S
C429 H438 0.927 1_655 S
C430 C426 1.391 . S
C430 C429 1.390 . S
C430 H439 0.930 . S
C431 Eu401 2.825 . S
C431 O416 1.238 . S
C431 O417 1.247 . S
C431 C425 1.507 1_455 S
H432 C405 0.930 . S
H433 C406 0.931 . S
H434 C407 0.930 . S
H435 C408 0.930 . S
H436 C427 0.930 . S
H437 C428 0.931 . S
H438 C429 0.927 1_455 S
H439 C430 0.930 . S
Tb440 C450 2.825 . S
Tb440 O451 2.347 . S
Tb440 O454 2.366 . S
Tb440 O459 2.418 . S
Tb440 O460 2.384 . S
Tb440 O463 2.479 . S
Tb440 O464 2.471 . S
Eu441 O452 2.418 . S
Eu441 O453 2.384 . S
Eu441 O456 2.479 . S
Eu441 O457 2.471 . S
Eu441 O458 2.347 . S
Eu441 O461 2.366 . S
Eu441 C471 2.825 . S
C442 O458 1.259 . S
C442 O459 1.265 . S
C443 O460 1.255 . S
C443 O461 1.265 . S
C444 C446 1.380 . S
C444 C447 1.374 . S
C444 C450 1.507 . S
C445 C446 1.384 . S
C445 C449 1.387 . S
C445 H472 0.930 . S
C446 C444 1.380 . S
C446 C445 1.384 . S
C446 H473 0.931 . S
C447 C444 1.374 . S
C447 C448 1.390 . S
C447 H474 0.930 . S
C448 C447 1.390 . S
C448 C449 1.391 . S
C448 H475 0.930 . S
C449 C445 1.387 . S
C449 C448 1.391 . S
C450 Tb440 2.825 . S
C450 C444 1.507 . S
C450 O463 1.238 . S
C450 O464 1.247 . S
O451 Tb440 2.347 . S
O451 C455 1.259 . S
O452 Eu441 2.418 . S
O452 C455 1.265 . S
O453 Eu441 2.384 . S
O453 C462 1.255 . S
O454 Tb440 2.366 . S
O454 C462 1.265 . S
C455 O451 1.259 . S
C455 O452 1.265 . S
O456 Eu441 2.479 . S
O456 C471 1.238 . S
O457 Eu441 2.471 . S
O457 C471 1.247 . S
O458 Eu441 2.347 . S
O458 C442 1.259 . S
O459 Tb440 2.418 . S
O459 C442 1.265 . S
O460 Tb440 2.384 . S
O460 C443 1.255 . S
O461 Eu441 2.366 . S
O461 C443 1.265 . S
C462 O453 1.255 . S
C462 O454 1.265 . S
O463 Tb440 2.479 . S
O463 C450 1.238 . S
O464 Tb440 2.471 . S
O464 C450 1.247 . S
C465 C468 1.380 . S
C465 C469 1.374 . S
C465 C471 1.507 1_565 S
C466 C467 1.387 . S
C466 C470 1.391 . S
C467 C466 1.387 . S
C467 C468 1.384 . S
C467 H476 0.930 . S
C468 C465 1.380 . S
C468 C467 1.384 . S
C468 H477 0.931 . S
C469 C465 1.374 . S
C469 C470 1.390 . S
C469 H478 0.925 1_565 S
C470 C466 1.391 . S
C470 C469 1.390 . S
C470 H479 0.930 . S
C471 Eu441 2.825 . S
C471 O456 1.238 . S
C471 O457 1.247 . S
C471 C465 1.507 1_545 S
H472 C445 0.930 . S
H473 C446 0.931 . S
H474 C447 0.930 . S
H475 C448 0.930 . S
H476 C467 0.930 . S
H477 C468 0.931 . S
H478 C469 0.925 1_545 S
H479 C470 0.930 . S
H480 C488 0.950 . S
H481 C493 0.950 . S
H482 C490 0.950 . S
H483 C492 0.950 . S
H484 C494 0.950 . S
H485 C496 0.950 . S
H486 C498 0.950 . S
H487 C499 0.950 . S
C488 H480 0.950 . S
C488 C489 1.386 . S
C488 C490 1.391 . S
C489 C488 1.386 . S
C489 C493 1.393 . S
C490 H482 0.950 . S
C490 C488 1.391 . S
C490 C491 1.400 . S
C491 C490 1.400 . S
C491 C492 1.398 . S
C491 C497 1.491 1_565 S
C492 H483 0.950 . S
C492 C491 1.398 . S
C492 C493 1.391 . S
C493 H481 0.950 . S
C493 C489 1.393 . S
C493 C492 1.391 . S
C494 H484 0.950 . S
C494 C495 1.386 . S
C494 C496 1.391 . S
C495 C494 1.386 . S
C495 C499 1.393 . S
C496 H485 0.950 . S
C496 C494 1.391 . S
C496 C497 1.400 . S
C497 C491 1.491 1_545 S
C497 C496 1.400 . S
C497 C498 1.398 . S
C498 H486 0.950 . S
C498 C497 1.398 . S
C498 C499 1.391 . S
C499 H487 0.950 . S
C499 C495 1.393 . S
C499 C498 1.391 . S
H500 C508 0.950 . S
H501 C513 0.950 . S
H502 C510 0.950 . S
H503 C512 0.950 . S
H504 C514 0.950 . S
H505 C516 0.950 . S
H506 C518 0.950 . S
H507 C519 0.950 . S
C508 H500 0.950 . S
C508 C509 1.386 . S
C508 C510 1.391 . S
C509 C508 1.386 . S
C509 C513 1.393 . S
C510 H502 0.950 . S
C510 C508 1.391 . S
C510 C511 1.400 . S
C511 C510 1.400 . S
C511 C512 1.398 . S
C511 C517 1.491 . S
C512 H503 0.950 . S
C512 C511 1.398 . S
C512 C513 1.391 . S
C513 H501 0.950 . S
C513 C509 1.393 . S
C513 C512 1.391 . S
C514 H504 0.950 . S
C514 C515 1.386 . S
C514 C516 1.391 . S
C515 C514 1.386 . S
C515 C519 1.393 . S
C516 H505 0.950 . S
C516 C514 1.391 . S
C516 C517 1.400 . S
C517 C511 1.491 . S
C517 C516 1.400 . S
C517 C518 1.398 . S
C518 H506 0.950 . S
C518 C517 1.398 . S
C518 C519 1.391 . S
C519 H507 0.950 . S
C519 C515 1.393 . S
C519 C518 1.391 . S
H520 C528 0.950 . S
H521 C533 0.950 . S
H522 C530 0.950 . S
H523 C532 0.950 . S
H524 C534 0.950 . S
H525 C536 0.950 . S
H526 C538 0.950 . S
H527 C539 0.950 . S
C528 H520 0.950 . S
C528 C529 1.386 . S
C528 C530 1.391 . S
C529 C528 1.386 . S
C529 C533 1.393 . S
C530 H522 0.950 . S
C530 C528 1.391 . S
C530 C531 1.400 . S
C531 C530 1.400 . S
C531 C532 1.398 . S
C531 C537 1.491 1_655 S
C532 H523 0.950 . S
C532 C531 1.398 . S
C532 C533 1.391 . S
C533 H521 0.950 . S
C533 C529 1.393 . S
C533 C532 1.391 . S
C534 H524 0.950 . S
C534 C535 1.386 . S
C534 C536 1.391 . S
C535 C534 1.386 . S
C535 C539 1.393 . S
C536 H525 0.950 . S
C536 C534 1.391 . S
C536 C537 1.400 . S
C537 C531 1.491 1_455 S
C537 C536 1.400 . S
C537 C538 1.398 . S
C538 H526 0.950 . S
C538 C537 1.398 . S
C538 C539 1.391 . S
C539 H527 0.950 . S
C539 C535 1.393 . S
C539 C538 1.391 . S
H540 C548 0.950 . S
H541 C553 0.950 . S
H542 C550 0.950 . S
H543 C552 0.950 . S
H544 C554 0.950 . S
H545 C556 0.950 . S
H546 C558 0.950 . S
H547 C559 0.950 . S
C548 H540 0.950 . S
C548 C549 1.386 . S
C548 C550 1.391 . S
C549 C548 1.386 . S
C549 C553 1.393 . S
C550 H542 0.950 . S
C550 C548 1.391 . S
C550 C551 1.400 . S
C551 C550 1.400 . S
C551 C552 1.398 . S
C551 C557 1.491 1_565 S
C552 H543 0.950 . S
C552 C551 1.398 . S
C552 C553 1.391 . S
C553 H541 0.950 . S
C553 C549 1.393 . S
C553 C552 1.391 . S
C554 H544 0.950 . S
C554 C555 1.386 . S
C554 C556 1.391 . S
C555 C554 1.386 . S
C555 C559 1.393 . S
C556 H545 0.950 . S
C556 C554 1.391 . S
C556 C557 1.400 . S
C557 C551 1.491 1_545 S
C557 C556 1.400 . S
C557 C558 1.398 . S
C558 H546 0.950 . S
C558 C557 1.398 . S
C558 C559 1.391 . S
C559 H547 0.950 . S
C559 C555 1.393 . S
C559 C558 1.391 . S
H560 C568 0.950 . S
H561 C573 0.950 . S
H562 C570 0.950 . S
H563 C572 0.950 . S
H564 C574 0.950 . S
H565 C576 0.950 . S
H566 C578 0.950 . S
H567 C579 0.950 . S
C568 H560 0.950 . S
C568 C569 1.386 . S
C568 C570 1.391 . S
C569 C568 1.386 . S
C569 C573 1.393 . S
C570 H562 0.950 . S
C570 C568 1.391 . S
C570 C571 1.400 . S
C571 C570 1.400 . S
C571 C572 1.398 . S
C571 C577 1.491 . S
C572 H563 0.950 . S
C572 C571 1.398 . S
C572 C573 1.391 . S
C573 H561 0.950 . S
C573 C569 1.393 . S
C573 C572 1.391 . S
C574 H564 0.950 . S
C574 C575 1.386 . S
C574 C576 1.391 . S
C575 C574 1.386 . S
C575 C579 1.393 . S
C576 H565 0.950 . S
C576 C574 1.391 . S
C576 C577 1.400 . S
C577 C571 1.491 . S
C577 C576 1.400 . S
C577 C578 1.398 . S
C578 H566 0.950 . S
C578 C577 1.398 . S
C578 C579 1.391 . S
C579 H567 0.950 . S
C579 C575 1.393 . S
C579 C578 1.391 . S
H580 C588 0.950 . S
H581 C593 0.950 . S
H582 C590 0.950 . S
H583 C592 0.950 . S
H584 C594 0.950 . S
H585 C596 0.950 . S
H586 C598 0.950 . S
H587 C599 0.950 . S
C588 H580 0.950 . S
C588 C589 1.386 . S
C588 C590 1.391 . S
C589 C588 1.386 . S
C589 C593 1.393 . S
C590 H582 0.950 . S
C590 C588 1.391 . S
C590 C591 1.400 . S
C591 C590 1.400 . S
C591 C592 1.398 . S
C591 C597 1.491 1_655 S
C592 H583 0.950 . S
C592 C591 1.398 . S
C592 C593 1.391 . S
C593 H581 0.950 . S
C593 C589 1.393 . S
C593 C592 1.391 . S
C594 H584 0.950 . S
C594 C595 1.386 . S
C594 C596 1.391 . S
C595 C594 1.386 . S
C595 C599 1.393 . S
C596 H585 0.950 . S
C596 C594 1.391 . S
C596 C597 1.400 . S
C597 C591 1.491 1_455 S
C597 C596 1.400 . S
C597 C598 1.398 . S
C598 H586 0.950 . S
C598 C597 1.398 . S
C598 C599 1.391 . S
C599 H587 0.950 . S
C599 C595 1.393 . S
C599 C598 1.391 . S
H600 C608 0.950 . S
H601 C613 0.950 . S
H602 C610 0.950 . S
H603 C612 0.950 . S
H604 C614 0.950 . S
H605 C616 0.950 . S
H606 C618 0.950 . S
H607 C619 0.950 . S
C608 H600 0.950 . S
C608 C609 1.386 . S
C608 C610 1.391 . S
C609 C608 1.386 . S
C609 C613 1.393 . S
C610 H602 0.950 . S
C610 C608 1.391 . S
C610 C611 1.400 . S
C611 C610 1.400 . S
C611 C612 1.398 . S
C611 C617 1.491 1_455 S
C612 H603 0.950 . S
C612 C611 1.398 . S
C612 C613 1.391 . S
C613 H601 0.950 . S
C613 C609 1.393 . S
C613 C612 1.391 . S
C614 H604 0.950 . S
C614 C615 1.386 . S
C614 C616 1.391 . S
C615 C614 1.386 . S
C615 C619 1.393 . S
C616 H605 0.950 . S
C616 C614 1.391 . S
C616 C617 1.400 . S
C617 C611 1.491 1_655 S
C617 C616 1.400 . S
C617 C618 1.398 . S
C618 H606 0.950 . S
C618 C617 1.398 . S
C618 C619 1.391 . S
C619 H607 0.950 . S
C619 C615 1.393 . S
C619 C618 1.391 . S
H620 C628 0.950 . S
H621 C633 0.950 . S
H622 C630 0.950 . S
H623 C632 0.950 . S
H624 C634 0.950 . S
H625 C636 0.950 . S
H626 C638 0.950 . S
H627 C639 0.950 . S
C628 H620 0.950 . S
C628 C629 1.386 . S
C628 C630 1.391 . S
C629 C628 1.386 . S
C629 C633 1.393 . S
C630 H622 0.950 . S
C630 C628 1.391 . S
C630 C631 1.400 . S
C631 C630 1.400 . S
C631 C632 1.398 . S
C631 C637 1.491 1_565 S
C632 H623 0.950 . S
C632 C631 1.398 . S
C632 C633 1.391 . S
C633 H621 0.950 . S
C633 C629 1.393 . S
C633 C632 1.391 . S
C634 H624 0.950 . S
C634 C635 1.386 . S
C634 C636 1.391 . S
C635 C634 1.386 . S
C635 C639 1.393 . S
C636 H625 0.950 . S
C636 C634 1.391 . S
C636 C637 1.400 . S
C637 C631 1.491 1_545 S
C637 C636 1.400 . S
C637 C638 1.398 . S
C638 H626 0.950 . S
C638 C637 1.398 . S
C638 C639 1.391 . S
C639 H627 0.950 . S
C639 C635 1.393 . S
C639 C638 1.391 . S
H640 C648 0.950 . S
H641 C653 0.950 . S
H642 C650 0.950 . S
H643 C652 0.950 . S
H644 C654 0.950 . S
H645 C656 0.950 . S
H646 C658 0.950 . S
H647 C659 0.950 . S
C648 H640 0.950 . S
C648 C649 1.386 . S
C648 C650 1.391 . S
C649 C648 1.386 . S
C649 C653 1.393 . S
C650 H642 0.950 . S
C650 C648 1.391 . S
C650 C651 1.400 . S
C651 C650 1.400 . S
C651 C652 1.398 . S
C651 C657 1.491 . S
C652 H643 0.950 . S
C652 C651 1.398 . S
C652 C653 1.391 . S
C653 H641 0.950 . S
C653 C649 1.393 . S
C653 C652 1.391 . S
C654 H644 0.950 . S
C654 C655 1.386 . S
C654 C656 1.391 . S
C655 C654 1.386 . S
C655 C659 1.393 . S
C656 H645 0.950 . S
C656 C654 1.391 . S
C656 C657 1.400 . S
C657 C651 1.491 . S
C657 C656 1.400 . S
C657 C658 1.398 . S
C658 H646 0.950 . S
C658 C657 1.398 . S
C658 C659 1.391 . S
C659 H647 0.950 . S
C659 C655 1.393 . S
C659 C658 1.391 . S
H660 C668 0.950 . S
H661 C673 0.950 . S
H662 C670 0.950 . S
H663 C672 0.950 . S
H664 C674 0.950 . S
H665 C676 0.950 . S
H666 C678 0.950 . S
H667 C679 0.950 . S
C668 H660 0.950 . S
C668 C669 1.386 . S
C668 C670 1.391 . S
C669 C668 1.386 . S
C669 C673 1.393 . S
C670 H662 0.950 . S
C670 C668 1.391 . S
C670 C671 1.400 . S
C671 C670 1.400 . S
C671 C672 1.398 . S
C671 C677 1.491 1_455 S
C672 H663 0.950 . S
C672 C671 1.398 . S
C672 C673 1.391 . S
C673 H661 0.950 . S
C673 C669 1.393 . S
C673 C672 1.391 . S
C674 H664 0.950 . S
C674 C675 1.386 . S
C674 C676 1.391 . S
C675 C674 1.386 . S
C675 C679 1.393 . S
C676 H665 0.950 . S
C676 C674 1.391 . S
C676 C677 1.400 . S
C677 C671 1.491 1_655 S
C677 C676 1.400 . S
C677 C678 1.398 . S
C678 H666 0.950 . S
C678 C677 1.398 . S
C678 C679 1.391 . S
C679 H667 0.950 . S
C679 C675 1.393 . S
C679 C678 1.391 . S
H680 C688 0.950 . S
H681 C693 0.950 . S
H682 C690 0.950 . S
H683 C692 0.950 . S
H684 C694 0.950 . S
H685 C696 0.950 . S
H686 C698 0.950 . S
H687 C699 0.950 . S
C688 H680 0.950 . S
C688 C689 1.386 . S
C688 C690 1.391 . S
C689 C688 1.386 . S
C689 C693 1.393 . S
C690 H682 0.950 . S
C690 C688 1.391 . S
C690 C691 1.400 . S
C691 C690 1.400 . S
C691 C692 1.398 . S
C691 C697 1.491 1_545 S
C692 H683 0.950 . S
C692 C691 1.398 . S
C692 C693 1.391 . S
C693 H681 0.950 . S
C693 C689 1.393 . S
C693 C692 1.391 . S
C694 H684 0.950 . S
C694 C695 1.386 . S
C694 C696 1.391 . S
C695 C694 1.386 . S
C695 C699 1.393 . S
C696 H685 0.950 . S
C696 C694 1.391 . S
C696 C697 1.400 . S
C697 C691 1.491 1_565 S
C697 C696 1.400 . S
C697 C698 1.398 . S
C698 H686 0.950 . S
C698 C697 1.398 . S
C698 C699 1.391 . S
C699 H687 0.950 . S
C699 C695 1.393 . S
C699 C698 1.391 . S
H700 C708 0.950 . S
H701 C713 0.950 . S
H702 C710 0.950 . S
H703 C712 0.950 . S
H704 C714 0.950 . S
H705 C716 0.950 . S
H706 C718 0.950 . S
H707 C719 0.950 . S
C708 H700 0.950 . S
C708 C709 1.386 . S
C708 C710 1.391 . S
C709 C708 1.386 . S
C709 C713 1.393 . S
C710 H702 0.950 . S
C710 C708 1.391 . S
C710 C711 1.400 . S
C711 C710 1.400 . S
C711 C712 1.398 . S
C711 C717 1.491 . S
C712 H703 0.950 . S
C712 C711 1.398 . S
C712 C713 1.391 . S
C713 H701 0.950 . S
C713 C709 1.393 . S
C713 C712 1.391 . S
C714 H704 0.950 . S
C714 C715 1.386 . S
C714 C716 1.391 . S
C715 C714 1.386 . S
C715 C719 1.393 . S
C716 H705 0.950 . S
C716 C714 1.391 . S
C716 C717 1.400 . S
C717 C711 1.491 . S
C717 C716 1.400 . S
C717 C718 1.398 . S
C718 H706 0.950 . S
C718 C717 1.398 . S
C718 C719 1.391 . S
C719 H707 0.950 . S
C719 C715 1.393 . S
C719 C718 1.391 . S
H720 C728 0.950 . S
H721 C733 0.950 . S
H722 C730 0.950 . S
H723 C732 0.950 . S
H724 C734 0.950 . S
H725 C736 0.950 . S
H726 C738 0.950 . S
H727 C739 0.950 . S
C728 H720 0.950 . S
C728 C729 1.386 . S
C728 C730 1.391 . S
C729 C728 1.386 . S
C729 C733 1.393 . S
C730 H722 0.950 . S
C730 C728 1.391 . S
C730 C731 1.400 . S
C731 C730 1.400 . S
C731 C732 1.398 . S
C731 C737 1.491 . S
C732 H723 0.950 . S
C732 C731 1.398 . S
C732 C733 1.391 . S
C733 H721 0.950 . S
C733 C729 1.393 . S
C733 C732 1.391 . S
C734 H724 0.950 . S
C734 C735 1.386 . S
C734 C736 1.391 . S
C735 C734 1.386 . S
C735 C739 1.393 . S
C736 H725 0.950 . S
C736 C734 1.391 . S
C736 C737 1.400 . S
C737 C731 1.491 . S
C737 C736 1.400 . S
C737 C738 1.398 . S
C738 H726 0.950 . S
C738 C737 1.398 . S
C738 C739 1.391 . S
C739 H727 0.950 . S
C739 C735 1.393 . S
C739 C738 1.391 . S
H740 C748 0.950 . S
H741 C753 0.950 . S
H742 C750 0.950 . S
H743 C752 0.950 . S
H744 C754 0.950 . S
H745 C756 0.950 . S
H746 C758 0.950 . S
H747 C759 0.950 . S
C748 H740 0.950 . S
C748 C749 1.386 . S
C748 C750 1.391 . S
C749 C748 1.386 . S
C749 C753 1.393 . S
C750 H742 0.950 . S
C750 C748 1.391 . S
C750 C751 1.400 . S
C751 C750 1.400 . S
C751 C752 1.398 . S
C751 C757 1.491 . S
C752 H743 0.950 . S
C752 C751 1.398 . S
C752 C753 1.391 . S
C753 H741 0.950 . S
C753 C749 1.393 . S
C753 C752 1.391 . S
C754 H744 0.950 . S
C754 C755 1.386 . S
C754 C756 1.391 . S
C755 C754 1.386 . S
C755 C759 1.393 . S
C756 H745 0.950 . S
C756 C754 1.391 . S
C756 C757 1.400 . S
C757 C751 1.491 . S
C757 C756 1.400 . S
C757 C758 1.398 . S
C758 H746 0.950 . S
C758 C757 1.398 . S
C758 C759 1.391 . S
C759 H747 0.950 . S
C759 C755 1.393 . S
C759 C758 1.391 . S
H760 C768 0.950 . S
H761 C773 0.950 . S
H762 C770 0.950 . S
H763 C772 0.950 . S
H764 C774 0.950 . S
H765 C776 0.950 . S
H766 C778 0.950 . S
H767 C779 0.950 . S
C768 H760 0.950 . S
C768 C769 1.386 . S
C768 C770 1.391 . S
C769 C768 1.386 . S
C769 C773 1.393 . S
C770 H762 0.950 . S
C770 C768 1.391 . S
C770 C771 1.400 . S
C771 C770 1.400 . S
C771 C772 1.398 . S
C771 C777 1.491 . S
C772 H763 0.950 . S
C772 C771 1.398 . S
C772 C773 1.391 . S
C773 H761 0.950 . S
C773 C769 1.393 . S
C773 C772 1.391 . S
C774 H764 0.950 . S
C774 C775 1.386 . S
C774 C776 1.391 . S
C775 C774 1.386 . S
C775 C779 1.393 . S
C776 H765 0.950 . S
C776 C774 1.391 . S
C776 C777 1.400 . S
C777 C771 1.491 . S
C777 C776 1.400 . S
C777 C778 1.398 . S
C778 H766 0.950 . S
C778 C777 1.398 . S
C778 C779 1.391 . S
C779 H767 0.950 . S
C779 C775 1.393 . S
C779 C778 1.391 . S
H780 C788 0.950 . S
H781 C793 0.950 . S
H782 C790 0.950 . S
H783 C792 0.950 . S
H784 C794 0.950 . S
H785 C796 0.950 . S
H786 C798 0.950 . S
H787 C799 0.950 . S
C788 H780 0.950 . S
C788 C789 1.386 . S
C788 C790 1.391 . S
C789 C788 1.386 . S
C789 C793 1.393 . S
C790 H782 0.950 . S
C790 C788 1.391 . S
C790 C791 1.400 . S
C791 C790 1.400 . S
C791 C792 1.398 . S
C791 C797 1.491 . S
C792 H783 0.950 . S
C792 C791 1.398 . S
C792 C793 1.391 . S
C793 H781 0.950 . S
C793 C789 1.393 . S
C793 C792 1.391 . S
C794 H784 0.950 . S
C794 C795 1.386 . S
C794 C796 1.391 . S
C795 C794 1.386 . S
C795 C799 1.393 . S
C796 H785 0.950 . S
C796 C794 1.391 . S
C796 C797 1.400 . S
C797 C791 1.491 . S
C797 C796 1.400 . S
C797 C798 1.398 . S
C798 H786 0.950 . S
C798 C797 1.398 . S
C798 C799 1.391 . S
C799 H787 0.950 . S
C799 C795 1.393 . S
C799 C798 1.391 . S
H800 C808 0.950 . S
H801 C813 0.950 . S
H802 C810 0.950 . S
H803 C812 0.950 . S
H804 C814 0.950 . S
H805 C816 0.950 . S
H806 C818 0.950 . S
H807 C819 0.950 . S
C808 H800 0.950 . S
C808 C809 1.386 . S
C808 C810 1.391 . S
C809 C808 1.386 . S
C809 C813 1.393 . S
C810 H802 0.950 . S
C810 C808 1.391 . S
C810 C811 1.400 . S
C811 C810 1.400 . S
C811 C812 1.398 . S
C811 C817 1.491 . S
C812 H803 0.950 . S
C812 C811 1.398 . S
C812 C813 1.391 . S
C813 H801 0.950 . S
C813 C809 1.393 . S
C813 C812 1.391 . S
C814 H804 0.950 . S
C814 C815 1.386 . S
C814 C816 1.391 . S
C815 C814 1.386 . S
C815 C819 1.393 . S
C816 H805 0.950 . S
C816 C814 1.391 . S
C816 C817 1.400 . S
C817 C811 1.491 . S
C817 C816 1.400 . S
C817 C818 1.398 . S
C818 H806 0.950 . S
C818 C817 1.398 . S
C818 C819 1.391 . S
C819 H807 0.950 . S
C819 C815 1.393 . S
C819 C818 1.391 . S
H820 C828 0.950 . S
H821 C833 0.950 . S
H822 C830 0.950 . S
H823 C832 0.950 . S
H824 C834 0.950 . S
H825 C836 0.950 . S
H826 C838 0.950 . S
H827 C839 0.950 . S
C828 H820 0.950 . S
C828 C829 1.386 . S
C828 C830 1.391 . S
C829 C828 1.386 . S
C829 C833 1.393 . S
C830 H822 0.950 . S
C830 C828 1.391 . S
C830 C831 1.400 . S
C831 C830 1.400 . S
C831 C832 1.398 . S
C831 C837 1.491 . S
C832 H823 0.950 . S
C832 C831 1.398 . S
C832 C833 1.391 . S
C833 H821 0.950 . S
C833 C829 1.393 . S
C833 C832 1.391 . S
C834 H824 0.950 . S
C834 C835 1.386 . S
C834 C836 1.391 . S
C835 C834 1.386 . S
C835 C839 1.393 . S
C836 H825 0.950 . S
C836 C834 1.391 . S
C836 C837 1.400 . S
C837 C831 1.491 . S
C837 C836 1.400 . S
C837 C838 1.398 . S
C838 H826 0.950 . S
C838 C837 1.398 . S
C838 C839 1.391 . S
C839 H827 0.950 . S
C839 C835 1.393 . S
C839 C838 1.391 . S
H840 C848 0.950 . S
H841 C853 0.950 . S
H842 C850 0.950 . S
H843 C852 0.950 . S
H844 C854 0.950 . S
H845 C856 0.950 . S
H846 C858 0.950 . S
H847 C859 0.950 . S
C848 H840 0.950 . S
C848 C849 1.386 . S
C848 C850 1.391 . S
C849 C848 1.386 . S
C849 C853 1.393 . S
C850 H842 0.950 . S
C850 C848 1.391 . S
C850 C851 1.400 . S
C851 C850 1.400 . S
C851 C852 1.398 . S
C851 C857 1.491 . S
C852 H843 0.950 . S
C852 C851 1.398 . S
C852 C853 1.391 . S
C853 H841 0.950 . S
C853 C849 1.393 . S
C853 C852 1.391 . S
C854 H844 0.950 . S
C854 C855 1.386 . S
C854 C856 1.391 . S
C855 C854 1.386 . S
C855 C859 1.393 . S
C856 H845 0.950 . S
C856 C854 1.391 . S
C856 C857 1.400 . S
C857 C851 1.491 . S
C857 C856 1.400 . S
C857 C858 1.398 . S
C858 H846 0.950 . S
C858 C857 1.398 . S
C858 C859 1.391 . S
C859 H847 0.950 . S
C859 C855 1.393 . S
C859 C858 1.391 . S
H860 C868 0.950 . S
H861 C873 0.950 . S
H862 C870 0.950 . S
H863 C872 0.950 . S
H864 C874 0.950 . S
H865 C876 0.950 . S
H866 C878 0.950 . S
H867 C879 0.950 . S
C868 H860 0.950 . S
C868 C869 1.386 . S
C868 C870 1.391 . S
C869 C868 1.386 . S
C869 C873 1.393 . S
C870 H862 0.950 . S
C870 C868 1.391 . S
C870 C871 1.400 . S
C871 C870 1.400 . S
C871 C872 1.398 . S
C871 C877 1.491 . S
C872 H863 0.950 . S
C872 C871 1.398 . S
C872 C873 1.391 . S
C873 H861 0.950 . S
C873 C869 1.393 . S
C873 C872 1.391 . S
C874 H864 0.950 . S
C874 C875 1.386 . S
C874 C876 1.391 . S
C875 C874 1.386 . S
C875 C879 1.393 . S
C876 H865 0.950 . S
C876 C874 1.391 . S
C876 C877 1.400 . S
C877 C871 1.491 . S
C877 C876 1.400 . S
C877 C878 1.398 . S
C878 H866 0.950 . S
C878 C877 1.398 . S
C878 C879 1.391 . S
C879 H867 0.950 . S
C879 C875 1.393 . S
C879 C878 1.391 . S
H880 C888 0.950 . S
H881 C893 0.950 . S
H882 C890 0.950 . S
H883 C892 0.950 . S
H884 C894 0.950 . S
H885 C896 0.950 . S
H886 C898 0.950 . S
H887 C899 0.950 . S
C888 H880 0.950 . S
C888 C889 1.386 . S
C888 C890 1.391 . S
C889 C888 1.386 . S
C889 C893 1.393 . S
C890 H882 0.950 . S
C890 C888 1.391 . S
C890 C891 1.400 . S
C891 C890 1.400 . S
C891 C892 1.398 . S
C891 C897 1.491 . S
C892 H883 0.950 . S
C892 C891 1.398 . S
C892 C893 1.391 . S
C893 H881 0.950 . S
C893 C889 1.393 . S
C893 C892 1.391 . S
C894 H884 0.950 . S
C894 C895 1.386 . S
C894 C896 1.391 . S
C895 C894 1.386 . S
C895 C899 1.393 . S
C896 H885 0.950 . S
C896 C894 1.391 . S
C896 C897 1.400 . S
C897 C891 1.491 . S
C897 C896 1.400 . S
C897 C898 1.398 . S
C898 H886 0.950 . S
C898 C897 1.398 . S
C898 C899 1.391 . S
C899 H887 0.950 . S
C899 C895 1.393 . S
C899 C898 1.391 . S
H900 C908 0.950 . S
H901 C913 0.950 . S
H902 C910 0.950 . S
H903 C912 0.950 . S
H904 C914 0.950 . S
H905 C916 0.950 . S
H906 C918 0.950 . S
H907 C919 0.950 . S
C908 H900 0.950 . S
C908 C909 1.386 . S
C908 C910 1.391 . S
C909 C908 1.386 . S
C909 C913 1.393 . S
C910 H902 0.950 . S
C910 C908 1.391 . S
C910 C911 1.400 . S
C911 C910 1.400 . S
C911 C912 1.398 . S
C911 C917 1.491 . S
C912 H903 0.950 . S
C912 C911 1.398 . S
C912 C913 1.391 . S
C913 H901 0.950 . S
C913 C909 1.393 . S
C913 C912 1.391 . S
C914 H904 0.950 . S
C914 C915 1.386 . S
C914 C916 1.391 . S
C915 C914 1.386 . S
C915 C919 1.393 . S
C916 H905 0.950 . S
C916 C914 1.391 . S
C916 C917 1.400 . S
C917 C911 1.491 . S
C917 C916 1.400 . S
C917 C918 1.398 . S
C918 H906 0.950 . S
C918 C917 1.398 . S
C918 C919 1.391 . S
C919 H907 0.950 . S
C919 C915 1.393 . S
C919 C918 1.391 . S
H920 C928 0.950 . S
H921 C933 0.950 . S
H922 C930 0.950 . S
H923 C932 0.950 . S
H924 C934 0.950 . S
H925 C936 0.950 . S
H926 C938 0.950 . S
H927 C939 0.950 . S
C928 H920 0.950 . S
C928 C929 1.386 . S
C928 C930 1.391 . S
C929 C928 1.386 . S
C929 C933 1.393 . S
C930 H922 0.950 . S
C930 C928 1.391 . S
C930 C931 1.400 . S
C931 C930 1.400 . S
C931 C932 1.398 . S
C931 C937 1.491 . S
C932 H923 0.950 . S
C932 C931 1.398 . S
C932 C933 1.391 . S
C933 H921 0.950 . S
C933 C929 1.393 . S
C933 C932 1.391 . S
C934 H924 0.950 . S
C934 C935 1.386 . S
C934 C936 1.391 . S
C935 C934 1.386 . S
C935 C939 1.393 . S
C936 H925 0.950 . S
C936 C934 1.391 . S
C936 C937 1.400 . S
C937 C931 1.491 . S
C937 C936 1.400 . S
C937 C938 1.398 . S
C938 H926 0.950 . S
C938 C937 1.398 . S
C938 C939 1.391 . S
C939 H927 0.950 . S
C939 C935 1.393 . S
C939 C938 1.391 . S
H940 C948 0.950 . S
H941 C953 0.950 . S
H942 C950 0.950 . S
H943 C952 0.950 . S
H944 C954 0.950 . S
H945 C956 0.950 . S
H946 C958 0.950 . S
H947 C959 0.950 . S
C948 H940 0.950 . S
C948 C949 1.386 . S
C948 C950 1.391 . S
C949 C948 1.386 . S
C949 C953 1.393 . S
C950 H942 0.950 . S
C950 C948 1.391 . S
C950 C951 1.400 . S
C951 C950 1.400 . S
C951 C952 1.398 . S
C951 C957 1.491 . S
C952 H943 0.950 . S
C952 C951 1.398 . S
C952 C953 1.391 . S
C953 H941 0.950 . S
C953 C949 1.393 . S
C953 C952 1.391 . S
C954 H944 0.950 . S
C954 C955 1.386 . S
C954 C956 1.391 . S
C955 C954 1.386 . S
C955 C959 1.393 . S
C956 H945 0.950 . S
C956 C954 1.391 . S
C956 C957 1.400 . S
C957 C951 1.491 . S
C957 C956 1.400 . S
C957 C958 1.398 . S
C958 H946 0.950 . S
C958 C957 1.398 . S
C958 C959 1.391 . S
C959 H947 0.950 . S
C959 C955 1.393 . S
C959 C958 1.391 . S
H960 C968 0.950 . S
H961 C973 0.950 . S
H962 C970 0.950 . S
H963 C972 0.950 . S
H964 C974 0.950 . S
H965 C976 0.950 . S
H966 C978 0.950 . S
H967 C979 0.950 . S
C968 H960 0.950 . S
C968 C969 1.386 . S
C968 C970 1.391 . S
C969 C968 1.386 . S
C969 C973 1.393 . S
C970 H962 0.950 . S
C970 C968 1.391 . S
C970 C971 1.400 . S
C971 C970 1.400 . S
C971 C972 1.398 . S
C971 C977 1.491 . S
C972 H963 0.950 . S
C972 C971 1.398 . S
C972 C973 1.391 . S
C973 H961 0.950 . S
C973 C969 1.393 . S
C973 C972 1.391 . S
C974 H964 0.950 . S
C974 C975 1.386 . S
C974 C976 1.391 . S
C975 C974 1.386 . S
C975 C979 1.393 . S
C976 H965 0.950 . S
C976 C974 1.391 . S
C976 C977 1.400 . S
C977 C971 1.491 . S
C977 C976 1.400 . S
C977 C978 1.398 . S
C978 H966 0.950 . S
C978 C977 1.398 . S
C978 C979 1.391 . S
C979 H967 0.950 . S
C979 C975 1.393 . S
C979 C978 1.391 . S
H980 C988 0.950 . S
H981 C993 0.950 . S
H982 C990 0.950 . S
H983 C992 0.950 . S
H984 C994 0.950 . S
H985 C996 0.950 . S
H986 C998 0.950 . S
H987 C999 0.950 . S
C988 H980 0.950 . S
C988 C989 1.386 . S
C988 C990 1.391 . S
C989 C988 1.386 . S
C989 C993 1.393 . S
C990 H982 0.950 . S
C990 C988 1.391 . S
C990 C991 1.400 . S
C991 C990 1.400 . S
C991 C992 1.398 . S
C991 C997 1.491 . S
C992 H983 0.950 . S
C992 C991 1.398 . S
C992 C993 1.391 . S
C993 H981 0.950 . S
C993 C989 1.393 . S
C993 C992 1.391 . S
C994 H984 0.950 . S
C994 C995 1.386 . S
C994 C996 1.391 . S
C995 C994 1.386 . S
C995 C999 1.393 . S
C996 H985 0.950 . S
C996 C994 1.391 . S
C996 C997 1.400 . S
C997 C991 1.491 . S
C997 C996 1.400 . S
C997 C998 1.398 . S
C998 H986 0.950 . S
C998 C997 1.398 . S
C998 C999 1.391 . S
C999 H987 0.950 . S
C999 C995 1.393 . S
C999 C998 1.391 . S
H1000 C1008 0.950 . S
H1001 C1013 0.950 . S
H1002 C1010 0.950 . S
H1003 C1012 0.950 . S
H1004 C1014 0.950 . S
H1005 C1016 0.950 . S
H1006 C1018 0.950 . S
H1007 C1019 0.950 . S
C1008 H1000 0.950 . S
C1008 C1009 1.386 . S
C1008 C1010 1.391 . S
C1009 C1008 1.386 . S
C1009 C1013 1.393 . S
C1010 H1002 0.950 . S
C1010 C1008 1.391 . S
C1010 C1011 1.400 . S
C1011 C1010 1.400 . S
C1011 C1012 1.398 . S
C1011 C1017 1.491 . S
C1012 H1003 0.950 . S
C1012 C1011 1.398 . S
C1012 C1013 1.391 . S
C1013 H1001 0.950 . S
C1013 C1009 1.393 . S
C1013 C1012 1.391 . S
C1014 H1004 0.950 . S
C1014 C1015 1.386 . S
C1014 C1016 1.391 . S
C1015 C1014 1.386 . S
C1015 C1019 1.393 . S
C1016 H1005 0.950 . S
C1016 C1014 1.391 . S
C1016 C1017 1.400 . S
C1017 C1011 1.491 . S
C1017 C1016 1.400 . S
C1017 C1018 1.398 . S
C1018 H1006 0.950 . S
C1018 C1017 1.398 . S
C1018 C1019 1.391 . S
C1019 H1007 0.950 . S
C1019 C1015 1.393 . S
C1019 C1018 1.391 . S
H1020 C1028 0.950 . S
H1021 C1033 0.950 . S
H1022 C1030 0.950 . S
H1023 C1032 0.950 . S
H1024 C1034 0.950 . S
H1025 C1036 0.950 . S
H1026 C1038 0.950 . S
H1027 C1039 0.950 . S
C1028 H1020 0.950 . S
C1028 C1029 1.386 . S
C1028 C1030 1.391 . S
C1029 C1028 1.386 . S
C1029 C1033 1.393 . S
C1030 H1022 0.950 . S
C1030 C1028 1.391 . S
C1030 C1031 1.400 . S
C1031 C1030 1.400 . S
C1031 C1032 1.398 . S
C1031 C1037 1.491 . S
C1032 H1023 0.950 . S
C1032 C1031 1.398 . S
C1032 C1033 1.391 . S
C1033 H1021 0.950 . S
C1033 C1029 1.393 . S
C1033 C1032 1.391 . S
C1034 H1024 0.950 . S
C1034 C1035 1.386 . S
C1034 C1036 1.391 . S
C1035 C1034 1.386 . S
C1035 C1039 1.393 . S
C1036 H1025 0.950 . S
C1036 C1034 1.391 . S
C1036 C1037 1.400 . S
C1037 C1031 1.491 . S
C1037 C1036 1.400 . S
C1037 C1038 1.398 . S
C1038 H1026 0.950 . S
C1038 C1037 1.398 . S
C1038 C1039 1.391 . S
C1039 H1027 0.950 . S
C1039 C1035 1.393 . S
C1039 C1038 1.391 . S
H1040 C1048 0.950 . S
H1041 C1053 0.950 . S
H1042 C1050 0.950 . S
H1043 C1052 0.950 . S
H1044 C1054 0.950 . S
H1045 C1056 0.950 . S
H1046 C1058 0.950 . S
H1047 C1059 0.950 . S
C1048 H1040 0.950 . S
C1048 C1049 1.386 . S
C1048 C1050 1.391 . S
C1049 C1048 1.386 . S
C1049 C1053 1.393 . S
C1050 H1042 0.950 . S
C1050 C1048 1.391 . S
C1050 C1051 1.400 . S
C1051 C1050 1.400 . S
C1051 C1052 1.398 . S
C1051 C1057 1.491 . S
C1052 H1043 0.950 . S
C1052 C1051 1.398 . S
C1052 C1053 1.391 . S
C1053 H1041 0.950 . S
C1053 C1049 1.393 . S
C1053 C1052 1.391 . S
C1054 H1044 0.950 . S
C1054 C1055 1.386 . S
C1054 C1056 1.391 . S
C1055 C1054 1.386 . S
C1055 C1059 1.393 . S
C1056 H1045 0.950 . S
C1056 C1054 1.391 . S
C1056 C1057 1.400 . S
C1057 C1051 1.491 . S
C1057 C1056 1.400 . S
C1057 C1058 1.398 . S
C1058 H1046 0.950 . S
C1058 C1057 1.398 . S
C1058 C1059 1.391 . S
C1059 H1047 0.950 . S
C1059 C1055 1.393 . S
C1059 C1058 1.391 . S
H1060 C1068 0.950 . S
H1061 C1073 0.950 . S
H1062 C1070 0.950 . S
H1063 C1072 0.950 . S
H1064 C1074 0.950 . S
H1065 C1076 0.950 . S
H1066 C1078 0.950 . S
H1067 C1079 0.950 . S
C1068 H1060 0.950 . S
C1068 C1069 1.386 . S
C1068 C1070 1.391 . S
C1069 C1068 1.386 . S
C1069 C1073 1.393 . S
C1070 H1062 0.950 . S
C1070 C1068 1.391 . S
C1070 C1071 1.400 . S
C1071 C1070 1.400 . S
C1071 C1072 1.398 . S
C1071 C1077 1.491 . S
C1072 H1063 0.950 . S
C1072 C1071 1.398 . S
C1072 C1073 1.391 . S
C1073 H1061 0.950 . S
C1073 C1069 1.393 . S
C1073 C1072 1.391 . S
C1074 H1064 0.950 . S
C1074 C1075 1.386 . S
C1074 C1076 1.391 . S
C1075 C1074 1.386 . S
C1075 C1079 1.393 . S
C1076 H1065 0.950 . S
C1076 C1074 1.391 . S
C1076 C1077 1.400 . S
C1077 C1071 1.491 . S
C1077 C1076 1.400 . S
C1077 C1078 1.398 . S
C1078 H1066 0.950 . S
C1078 C1077 1.398 . S
C1078 C1079 1.391 . S
C1079 H1067 0.950 . S
C1079 C1075 1.393 . S
C1079 C1078 1.391 . S
H1080 C1088 0.950 . S
H1081 C1093 0.950 . S
H1082 C1090 0.950 . S
H1083 C1092 0.950 1_554 S
H1084 C1094 0.950 . S
H1085 C1096 0.950 . S
H1086 C1098 0.950 1_556 S
H1087 C1099 0.950 . S
C1088 H1080 0.950 . S
C1088 C1089 1.386 . S
C1088 C1090 1.391 . S
C1089 C1088 1.386 . S
C1089 C1093 1.393 . S
C1090 H1082 0.950 . S
C1090 C1088 1.391 . S
C1090 C1091 1.400 . S
C1091 C1090 1.400 . S
C1091 C1092 1.398 . S
C1091 C1097 1.491 1_556 S
C1092 H1083 0.950 1_556 S
C1092 C1091 1.398 . S
C1092 C1093 1.391 . S
C1093 H1081 0.950 . S
C1093 C1089 1.393 . S
C1093 C1092 1.391 . S
C1094 H1084 0.950 . S
C1094 C1095 1.386 . S
C1094 C1096 1.391 . S
C1095 C1094 1.386 . S
C1095 C1099 1.393 . S
C1096 H1085 0.950 . S
C1096 C1094 1.391 . S
C1096 C1097 1.400 . S
C1097 C1091 1.491 1_554 S
C1097 C1096 1.400 . S
C1097 C1098 1.398 . S
C1098 H1086 0.950 1_554 S
C1098 C1097 1.398 . S
C1098 C1099 1.391 . S
C1099 H1087 0.950 . S
C1099 C1095 1.393 . S
C1099 C1098 1.391 . S
H1100 C1108 0.950 . S
H1101 C1113 0.950 . S
H1102 C1110 0.950 1_655 S
H1103 C1112 0.950 . S
H1104 C1114 0.950 . S
H1105 C1116 0.950 1_455 S
H1106 C1118 0.950 . S
H1107 C1119 0.950 . S
C1108 H1100 0.950 . S
C1108 C1109 1.386 . S
C1108 C1110 1.391 . S
C1109 C1108 1.386 . S
C1109 C1113 1.393 . S
C1110 H1102 0.950 1_455 S
C1110 C1108 1.391 . S
C1110 C1111 1.400 . S
C1111 C1110 1.400 . S
C1111 C1112 1.398 . S
C1111 C1117 1.491 1_455 S
C1112 H1103 0.950 . S
C1112 C1111 1.398 . S
C1112 C1113 1.391 . S
C1113 H1101 0.950 . S
C1113 C1109 1.393 . S
C1113 C1112 1.391 . S
C1114 H1104 0.950 . S
C1114 C1115 1.386 . S
C1114 C1116 1.391 . S
C1115 C1114 1.386 . S
C1115 C1119 1.393 . S
C1116 H1105 0.950 1_655 S
C1116 C1114 1.391 . S
C1116 C1117 1.400 . S
C1117 C1111 1.491 1_655 S
C1117 C1116 1.400 . S
C1117 C1118 1.398 . S
C1118 H1106 0.950 . S
C1118 C1117 1.398 . S
C1118 C1119 1.391 . S
C1119 H1107 0.950 . S
C1119 C1115 1.393 . S
C1119 C1118 1.391 . S
H1120 C1128 0.950 . S
H1121 C1133 0.950 . S
H1122 C1130 0.950 . S
H1123 C1132 0.950 . S
H1124 C1134 0.950 . S
H1125 C1136 0.950 . S
H1126 C1138 0.950 . S
H1127 C1139 0.950 . S
C1128 H1120 0.950 . S
C1128 C1129 1.386 . S
C1128 C1130 1.391 . S
C1129 C1128 1.386 . S
C1129 C1133 1.393 . S
C1130 H1122 0.950 . S
C1130 C1128 1.391 . S
C1130 C1131 1.400 . S
C1131 C1130 1.400 . S
C1131 C1132 1.398 . S
C1131 C1137 1.491 1_564 S
C1132 H1123 0.950 . S
C1132 C1131 1.398 . S
C1132 C1133 1.391 . S
C1133 H1121 0.950 . S
C1133 C1129 1.393 . S
C1133 C1132 1.391 . S
C1134 H1124 0.950 . S
C1134 C1135 1.386 . S
C1134 C1136 1.391 . S
C1135 C1134 1.386 . S
C1135 C1139 1.393 . S
C1136 H1125 0.950 . S
C1136 C1134 1.391 . S
C1136 C1137 1.400 . S
C1137 C1131 1.491 1_546 S
C1137 C1136 1.400 . S
C1137 C1138 1.398 . S
C1138 H1126 0.950 . S
C1138 C1137 1.398 . S
C1138 C1139 1.391 . S
C1139 H1127 0.950 . S
C1139 C1135 1.393 . S
C1139 C1138 1.391 . S
H1140 C1148 0.950 . S
H1141 C1153 0.950 . S
H1142 C1150 0.950 . S
H1143 C1152 0.950 . S
H1144 C1154 0.950 . S
H1145 C1156 0.950 . S
H1146 C1158 0.950 . S
H1147 C1159 0.950 . S
C1148 H1140 0.950 . S
C1148 C1149 1.386 . S
C1148 C1150 1.391 . S
C1149 C1148 1.386 . S
C1149 C1153 1.393 . S
C1150 H1142 0.950 . S
C1150 C1148 1.391 . S
C1150 C1151 1.400 . S
C1151 C1150 1.400 . S
C1151 C1152 1.398 . S
C1151 C1157 1.491 . S
C1152 H1143 0.950 . S
C1152 C1151 1.398 . S
C1152 C1153 1.391 . S
C1153 H1141 0.950 . S
C1153 C1149 1.393 . S
C1153 C1152 1.391 . S
C1154 H1144 0.950 . S
C1154 C1155 1.386 . S
C1154 C1156 1.391 . S
C1155 C1154 1.386 . S
C1155 C1159 1.393 . S
C1156 H1145 0.950 . S
C1156 C1154 1.391 . S
C1156 C1157 1.400 . S
C1157 C1151 1.491 . S
C1157 C1156 1.400 . S
C1157 C1158 1.398 . S
C1158 H1146 0.950 . S
C1158 C1157 1.398 . S
C1158 C1159 1.391 . S
C1159 H1147 0.950 . S
C1159 C1155 1.393 . S
C1159 C1158 1.391 . S
H1160 C1168 0.950 . S
H1161 C1173 0.950 . S
H1162 C1170 0.950 1_455 S
H1163 C1172 0.950 . S
H1164 C1174 0.950 . S
H1165 C1176 0.950 1_655 S
H1166 C1178 0.950 . S
H1167 C1179 0.950 . S
C1168 H1160 0.950 . S
C1168 C1169 1.386 . S
C1168 C1170 1.391 . S
C1169 C1168 1.386 . S
C1169 C1173 1.393 . S
C1170 H1162 0.950 1_655 S
C1170 C1168 1.391 . S
C1170 C1171 1.400 . S
C1171 C1170 1.400 . S
C1171 C1172 1.398 1_556 S
C1171 C1177 1.491 1_656 S
C1172 H1163 0.950 . S
C1172 C1171 1.398 1_554 S
C1172 C1173 1.391 1_554 S
C1173 H1161 0.950 . S
C1173 C1169 1.393 . S
C1173 C1172 1.391 1_556 S
C1174 H1164 0.950 . S
C1174 C1175 1.386 . S
C1174 C1176 1.391 . S
C1175 C1174 1.386 . S
C1175 C1179 1.393 . S
C1176 H1165 0.950 1_455 S
C1176 C1174 1.391 . S
C1176 C1177 1.400 . S
C1177 C1171 1.491 1_454 S
C1177 C1176 1.400 . S
C1177 C1178 1.398 1_554 S
C1178 H1166 0.950 . S
C1178 C1177 1.398 1_556 S
C1178 C1179 1.391 1_556 S
C1179 H1167 0.950 . S
C1179 C1175 1.393 . S
C1179 C1178 1.391 1_554 S
H1180 C1188 0.950 . S
H1181 C1193 0.950 . S
H1182 C1190 0.950 . S
H1183 C1192 0.950 . S
H1184 C1194 0.950 . S
H1185 C1196 0.950 . S
H1186 C1198 0.950 . S
H1187 C1199 0.950 . S
C1188 H1180 0.950 . S
C1188 C1189 1.386 . S
C1188 C1190 1.391 . S
C1189 C1188 1.386 . S
C1189 C1193 1.393 . S
C1190 H1182 0.950 . S
C1190 C1188 1.391 . S
C1190 C1191 1.400 . S
C1191 C1190 1.400 . S
C1191 C1192 1.398 . S
C1191 C1197 1.491 1_565 S
C1192 H1183 0.950 . S
C1192 C1191 1.398 . S
C1192 C1193 1.391 . S
C1193 H1181 0.950 . S
C1193 C1189 1.393 . S
C1193 C1192 1.391 . S
C1194 H1184 0.950 . S
C1194 C1195 1.386 . S
C1194 C1196 1.391 . S
C1195 C1194 1.386 . S
C1195 C1199 1.393 . S
C1196 H1185 0.950 . S
C1196 C1194 1.391 . S
C1196 C1197 1.400 . S
C1197 C1191 1.491 1_545 S
C1197 C1196 1.400 . S
C1197 C1198 1.398 . S
C1198 H1186 0.950 . S
C1198 C1197 1.398 . S
C1198 C1199 1.391 . S
C1199 H1187 0.950 . S
C1199 C1195 1.393 . S
C1199 C1198 1.391 . S
C489 C163 1.295 . S
C495 C26 1.307 . S
C509 C203 1.307 . S
C515 C66 1.312 . S
C529 C106 1.309 . S
C535 C3 1.290 . S
C549 C146 1.312 . S
C555 C43 1.293 . S
C569 C186 1.309 . S
C575 C83 1.305 . S
C589 C123 1.307 . S
C595 C226 1.311 . S
C609 C323 1.290 . S
C615 C266 1.310 . S
C629 C306 1.307 . S
C635 C363 1.299 . S
C649 C403 1.290 . S
C655 C346 1.309 . S
C669 C386 1.311 . S
C675 C443 1.290 . S
C689 C426 1.313 . S
C695 C243 1.294 . S
C709 C283 1.306 . S
C715 C466 1.310 . S
C729 C182 1.753 . S
C735 C9 1.718 . S
C749 C49 1.699 . S
C755 C222 1.745 . S
C769 C89 1.700 . S
C775 C22 1.744 . S
C789 C129 1.715 . S
C795 C62 1.750 . S
C809 C102 1.744 . S
C815 C169 1.699 . S
C829 C142 1.753 . S
C835 C209 1.718 . S
C849 C342 1.753 . S
C855 C249 1.718 . S
C869 C289 1.712 . S
C875 C382 1.749 . S
C889 C329 1.707 . S
C895 C422 1.746 . S
C909 C462 1.748 . S
C915 C369 1.703 . S
C929 C409 1.717 . S
C935 C262 1.753 . S
C949 C302 1.747 . S
C955 C449 1.702 . S
C969 C415 1.651 . S
C975 C15 1.641 . S
C989 C55 1.648 . S
C995 C455 1.662 . S
C1009 C95 1.644 . S
C1015 C255 1.657 . S
C1029 C135 1.645 . S
C1035 C295 1.658 . S
C1049 C175 1.644 . S
C1055 C335 1.656 . S
C1069 C375 1.665 . S
C1075 C215 1.653 . S
C1089 C362 2.138 . S
C1095 C2 2.139 . S
C1109 C402 2.142 . S
C1115 C42 2.143 . S
C1129 C82 2.137 . S
C1135 C442 2.137 . S
C1149 C122 2.137 . S
C1155 C242 2.138 . S
C1169 C282 2.141 . S
C1175 C162 2.142 . S
C1189 C322 2.137 . S
C1195 C202 2.137 . S
