# Generated by pormake.
# Topology ske, (6)-cn, num edge types: 1
# Building blocks:
#     Node 0, Type 0, BuildingBlock: BETFAJ_clean_sbu_0, # of connection points: 6
#     Node 1, Type 0, BuildingBlock: BETFAJ_clean_sbu_0, # of connection points: 6
#     Node 2, Type 0, BuildingBlock: BETFAJ_clean_sbu_0, # of connection points: 6
#     Node 3, Type 0, BuildingBlock: BETFAJ_clean_sbu_0, # of connection points: 6
#     Node 4, Type 0, BuildingBlock: BETFAJ_clean_sbu_0, # of connection points: 6
#     Node 5, Type 0, BuildingBlock: BETFAJ_clean_sbu_0, # of connection points: 6
#     Node 6, Type 0, BuildingBlock: BETFAJ_clean_sbu_0, # of connection points: 6
#     Node 7, Type 0, BuildingBlock: BETFAJ_clean_sbu_0, # of connection points: 6
#     Edge 8, Type (0, 0), BuildingBlock: XUDNAN_clean_linker_2, # of connection points: 2
#     Edge 9, Type (0, 0), BuildingBlock: XUDNAN_clean_linker_2, # of connection points: 2
#     Edge 10, Type (0, 0), BuildingBlock: XUDNAN_clean_linker_2, # of connection points: 2
#     Edge 11, Type (0, 0), BuildingBlock: XUDNAN_clean_linker_2, # of connection points: 2
#     Edge 12, Type (0, 0), BuildingBlock: XUDNAN_clean_linker_2, # of connection points: 2
#     Edge 13, Type (0, 0), BuildingBlock: XUDNAN_clean_linker_2, # of connection points: 2
#     Edge 14, Type (0, 0), BuildingBlock: XUDNAN_clean_linker_2, # of connection points: 2
#     Edge 15, Type (0, 0), BuildingBlock: XUDNAN_clean_linker_2, # of connection points: 2
#     Edge 16, Type (0, 0), BuildingBlock: XUDNAN_clean_linker_2, # of connection points: 2
#     Edge 17, Type (0, 0), BuildingBlock: XUDNAN_clean_linker_2, # of connection points: 2
#     Edge 18, Type (0, 0), BuildingBlock: XUDNAN_clean_linker_2, # of connection points: 2
#     Edge 19, Type (0, 0), BuildingBlock: XUDNAN_clean_linker_2, # of connection points: 2
#     Edge 20, Type (0, 0), BuildingBlock: XUDNAN_clean_linker_2, # of connection points: 2
#     Edge 21, Type (0, 0), BuildingBlock: XUDNAN_clean_linker_2, # of connection points: 2
#     Edge 22, Type (0, 0), BuildingBlock: XUDNAN_clean_linker_2, # of connection points: 2
#     Edge 23, Type (0, 0), BuildingBlock: XUDNAN_clean_linker_2, # of connection points: 2
#     Edge 24, Type (0, 0), BuildingBlock: XUDNAN_clean_linker_2, # of connection points: 2
#     Edge 25, Type (0, 0), BuildingBlock: XUDNAN_clean_linker_2, # of connection points: 2
#     Edge 26, Type (0, 0), BuildingBlock: XUDNAN_clean_linker_2, # of connection points: 2
#     Edge 27, Type (0, 0), BuildingBlock: XUDNAN_clean_linker_2, # of connection points: 2
#     Edge 28, Type (0, 0), BuildingBlock: XUDNAN_clean_linker_2, # of connection points: 2
#     Edge 29, Type (0, 0), BuildingBlock: XUDNAN_clean_linker_2, # of connection points: 2
#     Edge 30, Type (0, 0), BuildingBlock: XUDNAN_clean_linker_2, # of connection points: 2
#     Edge 31, Type (0, 0), BuildingBlock: XUDNAN_clean_linker_2, # of connection points: 2
# Relax obj value: 0.206
# Max RMSD: 0.207
# Mean RMSD: 0.201
data_MOF--net-ske--node1-BETFAJ_clean_sbu_0--edge1-XUDNAN_clean_linker_2
_symmetry_space_group_name_H-M    P1
_symmetry_Int_Tables_number       1
_symmetry_cell_setting            triclinic
loop_
_symmetry_equiv_pos_as_xyz
'x, y, z'
_cell_length_a     103.16636
_cell_length_b     29.487433
_cell_length_c     15.625275
_cell_angle_alpha  90.130917
_cell_angle_beta   90.042339
_cell_angle_gamma 84.589304
loop_
_atom_site_label
_atom_site_type_symbol
_atom_site_fract_x
_atom_site_fract_y
_atom_site_fract_z
_atom_type_partial_charge
Sm0 Sm 0.15812 0.24985 0.50745 0.0
Sm1 Sm 0.12956 0.25116 0.51561 0.0
C2 C 0.1833 0.26186 0.51814 0.0
C3 C 0.19529 0.26279 0.57023 0.0
C4 C 0.19869 0.30409 0.6046 0.0
C5 C 0.21108 0.30727 0.63892 0.0
C6 C 0.22045 0.26935 0.639 0.0
C7 C 0.21683 0.22737 0.6089 0.0
C8 C 0.2044 0.22417 0.57461 0.0
C9 C 0.14951 0.16372 0.49596 0.0
C10 C 0.14405 0.24858 0.69623 0.0
C11 C 0.10463 0.23607 0.50983 0.0
C12 C 0.09151 0.23999 0.47138 0.0
C13 C 0.08421 0.20228 0.47564 0.0
C14 C 0.07103 0.20642 0.45356 0.0
C15 C 0.06483 0.24848 0.42661 0.0
C16 C 0.0723 0.28591 0.41918 0.0
C17 C 0.08552 0.28174 0.44153 0.0
C18 C 0.13805 0.3365 0.5327 0.0
C19 C 0.1434 0.25614 0.32552 0.0
O20 O 0.17401 0.29499 0.52624 0.0
O21 O 0.17893 0.22261 0.50188 0.0
O22 O 0.14517 0.19459 0.5476 0.0
O23 O 0.15867 0.17812 0.44967 0.0
O24 O 0.15423 0.26017 0.65313 0.0
O25 O 0.13374 0.236 0.6566 0.0
O26 O 0.11386 0.20747 0.47785 0.0
O27 O 0.10889 0.27253 0.5432 0.0
O28 O 0.14248 0.30714 0.47823 0.0
O29 O 0.12885 0.3216 0.5779 0.0
O30 O 0.13276 0.24952 0.36887 0.0
O31 O 0.15446 0.26182 0.36426 0.0
H32 H 0.19198 0.33459 0.60171 0.0
H33 H 0.21346 0.33992 0.66315 0.0
H34 H 0.22382 0.19756 0.60753 0.0
H35 H 0.20216 0.19192 0.54774 0.0
H36 H 0.08861 0.16987 0.49921 0.0
H37 H 0.06564 0.17675 0.45878 0.0
H38 H 0.06782 0.31891 0.39938 0.0
H39 H 0.0909 0.31149 0.43835 0.0
Sm40 Sm 0.8726 0.25478 0.51965 0.0
Sm41 Sm 0.90506 0.2536 0.51532 0.0
C42 C 0.84875 0.22894 0.52512 0.0
C43 C 0.83588 0.24007 0.56587 0.0
C44 C 0.83036 0.20675 0.61425 0.0
C45 C 0.81786 0.21536 0.64893 0.0
C46 C 0.81055 0.25751 0.63557 0.0
C47 C 0.81615 0.29088 0.58716 0.0
C48 C 0.82868 0.28238 0.5531 0.0
C49 C 0.8808 0.34192 0.53067 0.0
C50 C 0.88879 0.25844 0.70122 0.0
C51 C 0.92894 0.27926 0.51493 0.0
C52 C 0.94236 0.27223 0.48118 0.0
C53 C 0.94767 0.30921 0.44293 0.0
C54 C 0.96078 0.30622 0.41966 0.0
C55 C 0.96895 0.26591 0.43343 0.0
C56 C 0.96351 0.22828 0.46968 0.0
C57 C 0.95035 0.23142 0.49354 0.0
C58 C 0.897 0.16672 0.50336 0.0
C59 C 0.88839 0.25483 0.33349 0.0
O60 O 0.85826 0.21084 0.57369 0.0
O61 O 0.85255 0.25766 0.46834 0.0
O62 O 0.88758 0.30423 0.52454 0.0
O63 O 0.8686 0.33407 0.53318 0.0
O64 O 0.87765 0.25228 0.66257 0.0
O65 O 0.89986 0.26298 0.6599 0.0
O66 O 0.91976 0.29639 0.46301 0.0
O67 O 0.92502 0.24954 0.56929 0.0
O68 O 0.89007 0.20392 0.51164 0.0
O69 O 0.90913 0.17501 0.49888 0.0
O70 O 0.89967 0.26015 0.37149 0.0
O71 O 0.87751 0.24863 0.37554 0.0
H72 H 0.83568 0.17377 0.62467 0.0
H73 H 0.81398 0.18906 0.68677 0.0
H74 H 0.81078 0.32346 0.57412 0.0
H75 H 0.83262 0.30876 0.51573 0.0
H76 H 0.94176 0.34119 0.43363 0.0
H77 H 0.96458 0.33628 0.39365 0.0
H78 H 0.96943 0.19647 0.48022 0.0
H79 H 0.94652 0.2023 0.52308 0.0
Sm80 Sm 0.12852 0.75159 0.52337 0.0
Sm81 Sm 0.15989 0.7495 0.52465 0.0
C82 C 0.10399 0.73199 0.5331 0.0
C83 C 0.09071 0.73961 0.56909 0.0
C84 C 0.08382 0.70174 0.58534 0.0
C85 C 0.07057 0.70734 0.60588 0.0
C86 C 0.06387 0.7511 0.61062 0.0
C87 C 0.07092 0.78915 0.59718 0.0
C88 C 0.0842 0.78349 0.5766 0.0
C89 C 0.13816 0.83588 0.51563 0.0
C90 C 0.14391 0.7536 0.70988 0.0
C91 C 0.18393 0.77411 0.51717 0.0
C92 C 0.19682 0.76381 0.47562 0.0
C93 C 0.2022 0.79771 0.42779 0.0
C94 C 0.21474 0.79003 0.39307 0.0
C95 C 0.22227 0.74822 0.4057 0.0
C96 C 0.21682 0.71429 0.45366 0.0
C97 C 0.20426 0.72188 0.48786 0.0
C98 C 0.15226 0.66164 0.5068 0.0
C99 C 0.1439 0.74794 0.34162 0.0
O100 O 0.11335 0.71054 0.57844 0.0
O101 O 0.10797 0.76337 0.48295 0.0
O102 O 0.14308 0.80194 0.55774 0.0
O103 O 0.12707 0.82714 0.48297 0.0
O104 O 0.13275 0.75234 0.6681 0.0
O105 O 0.15532 0.75434 0.6706 0.0
O106 O 0.17436 0.79293 0.47009 0.0
O107 O 0.18018 0.74475 0.57282 0.0
O108 O 0.14527 0.69887 0.51048 0.0
O109 O 0.16433 0.67043 0.51249 0.0
O110 O 0.15439 0.76 0.38154 0.0
O111 O 0.13364 0.73563 0.38302 0.0
H112 H 0.08861 0.66756 0.57921 0.0
H113 H 0.06553 0.6773 0.61707 0.0
H114 H 0.06609 0.82337 0.5993 0.0
H115 H 0.08924 0.81334 0.56368 0.0
H116 H 0.19673 0.83048 0.41792 0.0
H117 H 0.21849 0.81679 0.35574 0.0
H118 H 0.22234 0.68193 0.4663 0.0
H119 H 0.20048 0.6951 0.52497 0.0
Sm120 Sm 0.90314 0.75296 0.52668 0.0
Sm121 Sm 0.8741 0.75883 0.52509 0.0
C122 C 0.92813 0.76645 0.51342 0.0
C123 C 0.94146 0.76395 0.55007 0.0
C124 C 0.94694 0.80481 0.5668 0.0
C125 C 0.95999 0.80467 0.59049 0.0
C126 C 0.96799 0.76354 0.59899 0.0
C127 C 0.96243 0.72236 0.58385 0.0
C128 C 0.94931 0.72255 0.55932 0.0
C129 C 0.89383 0.66891 0.55473 0.0
C130 C 0.88803 0.75162 0.70832 0.0
C131 C 0.84841 0.7611 0.51 0.0
C132 C 0.83618 0.75281 0.46525 0.0
C133 C 0.83214 0.70891 0.45612 0.0
C134 C 0.81961 0.70303 0.42574 0.0
C135 C 0.81078 0.74092 0.40492 0.0
C136 C 0.81508 0.78466 0.41128 0.0
C137 C 0.82762 0.79045 0.44092 0.0
C138 C 0.88469 0.84174 0.54092 0.0
C139 C 0.88875 0.7473 0.34045 0.0
O140 O 0.91929 0.79664 0.5453 0.0
O141 O 0.92339 0.72921 0.48675 0.0
O142 O 0.88916 0.69834 0.50124 0.0
O143 O 0.90376 0.68364 0.5933 0.0
O144 O 0.89798 0.76838 0.66991 0.0
O145 O 0.87838 0.73777 0.66308 0.0
O146 O 0.85552 0.72746 0.54695 0.0
O147 O 0.8552 0.79295 0.48088 0.0
O148 O 0.88822 0.80977 0.49062 0.0
O149 O 0.87546 0.82976 0.58963 0.0
O150 O 0.87791 0.7432 0.38323 0.0
O151 O 0.89969 0.75465 0.37985 0.0
H152 H 0.94122 0.83727 0.5586 0.0
H153 H 0.96387 0.83721 0.59919 0.0
H154 H 0.96821 0.68996 0.59044 0.0
H155 H 0.94541 0.69043 0.54605 0.0
H156 H 0.83849 0.67921 0.47463 0.0
H157 H 0.81678 0.66872 0.42003 0.0
H158 H 0.8086 0.81474 0.39714 0.0
H159 H 0.83041 0.82476 0.44838 0.0
Sm160 Sm 0.65865 0.75619 0.04379 0.0
Sm161 Sm 0.62997 0.75592 0.05189 0.0
C162 C 0.68356 0.77189 0.0572 0.0
C163 C 0.69563 0.76385 0.10875 0.0
C164 C 0.70248 0.80102 0.13157 0.0
C165 C 0.71459 0.79426 0.17263 0.0
C166 C 0.72018 0.75003 0.19163 0.0
C167 C 0.71319 0.71284 0.16955 0.0
C168 C 0.70106 0.71964 0.12887 0.0
C169 C 0.6504 0.66979 0.03882 0.0
C170 C 0.64453 0.74928 0.23196 0.0
C171 C 0.60494 0.74141 0.04587 0.0
C172 C 0.59139 0.74996 1.01366 0.0
C173 C 0.58682 0.72223 0.94912 0.0
C174 C 0.57354 0.72461 0.9292 0.0
C175 C 0.56446 0.75466 0.97356 0.0
C176 C 0.56911 0.78334 0.03637 0.0
C177 C 0.58238 0.78093 0.0563 0.0
C178 C 0.63856 0.84241 0.04985 0.0
C179 C 0.64411 0.75264 0.86353 0.0
O180 O 0.67401 0.79971 0.0875 0.0
O181 O 0.67952 0.73732 1.01576 0.0
O182 O 0.64592 0.70157 0.08753 0.0
O183 O 0.65989 0.68233 0.99309 0.0
O184 O 0.65436 0.76533 0.19104 0.0
O185 O 0.63482 0.73473 0.18861 0.0
O186 O 0.61385 0.71902 0.99851 0.0
O187 O 0.60958 0.77156 0.0959 0.0
O188 O 0.64272 0.80946 1.00328 0.0
O189 O 0.62922 0.83084 0.09785 0.0
O190 O 0.63437 0.7398 0.9096 0.0
O191 O 0.65413 0.76929 0.90078 0.0
H192 H 0.69856 0.83542 0.11623 0.0
H193 H 0.71954 0.82379 0.18961 0.0
H194 H 0.71722 0.67822 0.18177 0.0
H195 H 0.69608 0.6902 0.11159 0.0
H196 H 0.59344 0.69734 0.91621 0.0
H197 H 0.57033 0.70153 0.8813 0.0
H198 H 0.56245 0.80734 0.07105 0.0
H199 H 0.58552 0.80232 0.1073 0.0
Sm200 Sm 0.37427 0.7599 0.04328 0.0
Sm201 Sm 0.40307 0.75325 0.05354 0.0
C202 C 0.34869 0.75495 0.05437 0.0
C203 C 0.33691 0.75246 0.10802 0.0
C204 C 0.33483 0.71313 0.15467 0.0
C205 C 0.32274 0.70866 0.19299 0.0
C206 C 0.31238 0.74319 0.18497 0.0
C207 C 0.31471 0.78344 0.1418 0.0
C208 C 0.32682 0.78794 0.10375 0.0
C209 C 0.38466 0.84258 0.02956 0.0
C210 C 0.38839 0.7593 0.23223 0.0
C211 C 0.42829 0.76469 0.04972 0.0
C212 C 0.44189 0.75777 1.01845 0.0
C213 C 0.44595 0.77929 0.94423 0.0
C214 C 0.45923 0.77781 0.92375 0.0
C215 C 0.46872 0.75512 0.97741 0.0
C216 C 0.46456 0.73271 0.05031 0.0
C217 C 0.45134 0.73409 0.07054 0.0
C218 C 0.39326 0.66988 0.06792 0.0
C219 C 0.3892 0.75109 0.86219 0.0
O220 O 0.35719 0.71919 0.04838 0.0
O221 O 0.35403 0.79334 0.05184 0.0
O222 O 0.3881 0.81194 0.08344 0.0
O223 O 0.37561 0.82983 0.97989 0.0
O224 O 0.37822 0.74753 0.18894 0.0
O225 O 0.39863 0.77212 0.19231 0.0
O226 O 0.41951 0.79108 1.00814 0.0
O227 O 0.42347 0.7318 0.09148 0.0
O228 O 0.38926 0.70024 1.01452 0.0
O229 O 0.40282 0.68245 0.113 0.0
O230 O 0.39993 0.75506 0.9069 0.0
O231 O 0.37785 0.74847 0.89958 0.0
H232 H 0.34238 0.68512 0.15928 0.0
H233 H 0.32143 0.67757 0.22733 0.0
H234 H 0.307 0.81062 0.13358 0.0
H235 H 0.32809 0.8185 0.06756 0.0
H236 H 0.43893 0.79838 0.90338 0.0
H237 H 0.46208 0.79578 0.86747 0.0
H238 H 0.47155 0.71433 0.09239 0.0
H239 H 0.44854 0.71772 0.12881 0.0
Sm240 Sm 0.63045 0.25994 0.99684 0.0
Sm241 Sm 0.65915 0.25183 1.00192 0.0
C242 C 0.60521 0.25542 1.01644 0.0
C243 C 0.59108 0.25297 0.0274 0.0
C244 C 0.58607 0.21061 0.03566 0.0
C245 C 0.57277 0.20815 0.04861 0.0
C246 C 0.56416 0.24803 0.05478 0.0
C247 C 0.5692 0.29046 0.04542 0.0
C248 C 0.58252 0.29288 0.03163 0.0
C249 C 0.64106 0.34241 0.99529 0.0
C250 C 0.64506 0.25091 0.18363 0.0
C251 C 0.68437 0.26177 0.98762 0.0
C252 C 0.69603 0.26095 0.93215 0.0
C253 C 0.69814 0.29839 0.88024 0.0
C254 C 0.71021 0.30134 0.84121 0.0
C255 C 0.7205 0.26713 0.85361 0.0
C256 C 0.71815 0.22841 0.90138 0.0
C257 C 0.70605 0.22544 0.94045 0.0
C258 C 0.64895 0.16909 1.00989 0.0
C259 C 0.64394 0.25098 0.81453 0.0
O260 O 0.61374 0.22034 0.02867 0.0
O261 O 0.6101 0.29272 0.99289 0.0
O262 O 0.64454 0.30924 0.04335 0.0
O263 O 0.63183 0.33236 0.94441 0.0
O264 O 0.63481 0.24325 0.13746 0.0
O265 O 0.65579 0.26218 0.14684 0.0
O266 O 0.6752 0.29533 0.9791 0.0
O267 O 0.67989 0.22312 1.00738 0.0
O268 O 0.64507 0.20121 0.96 0.0
O269 O 0.65864 0.17972 0.05638 0.0
O270 O 0.65468 0.26071 0.85472 0.0
O271 O 0.63352 0.2427 0.85779 0.0
H272 H 0.59244 0.17926 0.03212 0.0
H273 H 0.56924 0.17481 0.05345 0.0
H274 H 0.56291 0.32189 0.05065 0.0
H275 H 0.58614 0.32605 0.02581 0.0
H276 H 0.69066 0.32643 0.87256 0.0
H277 H 0.71162 0.33123 0.8034 0.0
H278 H 0.72587 0.20155 0.91264 0.0
H279 H 0.70476 0.19635 0.98074 0.0
Sm280 Sm 0.40207 0.25517 1.0002 0.0
Sm281 Sm 0.37131 0.25898 0.99916 0.0
C282 C 0.42723 0.25929 0.0223 0.0
C283 C 0.44146 0.2579 0.03441 0.0
C284 C 0.44783 0.29788 0.03803 0.0
C285 C 0.46133 0.29548 0.05166 0.0
C286 C 0.46866 0.253 0.06143 0.0
C287 C 0.46221 0.21316 0.05533 0.0
C288 C 0.4488 0.2156 0.04259 0.0
C289 C 0.39153 0.17241 0.98757 0.0
C290 C 0.38607 0.25743 0.18363 0.0
C291 C 0.34738 0.23432 0.98725 0.0
C292 C 0.33485 0.24412 0.94217 0.0
C293 C 0.32885 0.20789 0.90584 0.0
C294 C 0.3167 0.21551 0.86609 0.0
C295 C 0.31024 0.25965 0.86206 0.0
C296 C 0.31634 0.29598 0.89828 0.0
C297 C 0.32854 0.28835 0.93758 0.0
C298 C 0.37881 0.34731 0.99302 0.0
C299 C 0.38771 0.25632 0.81606 0.0
O300 O 0.41988 0.29387 0.99018 0.0
O301 O 0.42111 0.22412 0.0435 0.0
O302 O 0.38753 0.2054 0.03509 0.0
O303 O 0.40143 0.18287 0.94299 0.0
O304 O 0.39668 0.26862 0.14393 0.0
O305 O 0.37573 0.24658 0.14106 0.0
O306 O 0.35716 0.21533 0.94219 0.0
O307 O 0.3508 0.26434 0.04309 0.0
O308 O 0.38595 0.31039 0.99356 0.0
O309 O 0.36677 0.33803 0.99541 0.0
O310 O 0.37715 0.24708 0.85815 0.0
O311 O 0.39836 0.26706 0.85565 0.0
H312 H 0.44238 0.33092 0.03163 0.0
H313 H 0.46596 0.32685 0.05628 0.0
H314 H 0.46753 0.1798 0.05991 0.0
H315 H 0.4442 0.18412 0.03879 0.0
H316 H 0.33356 0.17348 0.90866 0.0
H317 H 0.31243 0.18682 0.83783 0.0
H318 H 0.3116 0.33034 0.89761 0.0
H319 H 0.33294 0.31695 0.96511 0.0
H320 H 0.23744 0.21041 0.7331 0.0
H321 H 0.23463 0.34014 0.59999 0.0
H322 H 0.25717 0.35067 0.64114 0.0
H323 H 0.25656 0.24382 0.90927 0.0
H324 H 0.26646 0.19022 0.91645 0.0
H325 H 0.25011 0.19196 0.87531 0.0
H326 H 0.2588 0.15196 0.73627 0.0
H327 H 0.27518 0.15007 0.77707 0.0
H328 H 0.27122 0.17636 0.67517 0.0
H329 H 0.27978 0.348 0.69583 0.0
H330 H 0.30131 0.33264 0.76304 0.0
H331 H 0.28975 0.20525 0.86389 0.0
C332 C 0.2416 0.24087 0.71216 0.0
C333 C 0.23416 0.27474 0.66418 0.0
C334 C 0.23998 0.31419 0.63841 0.0
C335 C 0.25284 0.32033 0.66078 0.0
C336 C 0.25984 0.28663 0.70859 0.0
C337 C 0.25448 0.24761 0.734 0.0
C338 C 0.26417 0.21713 0.78623 0.0
C339 C 0.25902 0.21041 0.87722 0.0
C340 C 0.26754 0.17116 0.74096 0.0
C341 C 0.27572 0.24549 0.78676 0.0
C342 C 0.27299 0.28525 0.74105 0.0
C343 C 0.28204 0.31706 0.73216 0.0
C344 C 0.29423 0.30817 0.7713 0.0
C345 C 0.29728 0.26794 0.81961 0.0
C346 C 0.28784 0.23614 0.82686 0.0
H347 H 0.73883 0.20379 0.78087 0.0
H348 H 0.73257 0.34553 0.85963 0.0
H349 H 0.7547 0.35779 0.81229 0.0
H350 H 0.77254 0.18627 0.84732 0.0
H351 H 0.77752 0.1502 0.75766 0.0
H352 H 0.76106 0.15214 0.79702 0.0
H353 H 0.75229 0.17375 0.64579 0.0
H354 H 0.76871 0.17185 0.60596 0.0
H355 H 0.75775 0.22267 0.59252 0.0
H356 H 0.77743 0.35508 0.76029 0.0
H357 H 0.79952 0.33804 0.70273 0.0
H358 H 0.79133 0.19843 0.65331 0.0
C359 C 0.74214 0.23735 0.78833 0.0
C360 C 0.73386 0.27385 0.82309 0.0
C361 C 0.73857 0.31728 0.83146 0.0
C362 C 0.75118 0.32453 0.80545 0.0
C363 C 0.75905 0.28802 0.77132 0.0
C364 C 0.75475 0.24528 0.76246 0.0
C365 C 0.76525 0.21212 0.72306 0.0
C366 C 0.76933 0.17287 0.78498 0.0
C367 C 0.76073 0.19405 0.63669 0.0
C368 C 0.77608 0.24305 0.71142 0.0
C369 C 0.77226 0.28659 0.74004 0.0
C370 C 0.78053 0.3212 0.737 0.0
C371 C 0.79305 0.31121 0.70346 0.0
C372 C 0.79723 0.267 0.67246 0.0
C373 C 0.78856 0.23249 0.67699 0.0
H374 H 0.2938 0.80552 0.25956 0.0
H375 H 0.30044 0.66421 0.17826 0.0
H376 H 0.27843 0.65094 0.22628 0.0
H377 H 0.27496 0.78574 0.44753 0.0
H378 H 0.26382 0.83611 0.43427 0.0
H379 H 0.28022 0.835 0.39428 0.0
H380 H 0.27134 0.85629 0.24319 0.0
H381 H 0.25492 0.85747 0.28274 0.0
H382 H 0.26 0.82164 0.19297 0.0
H383 H 0.25574 0.65244 0.27966 0.0
H384 H 0.23365 0.66832 0.33787 0.0
H385 H 0.24127 0.80847 0.38735 0.0
C386 C 0.29062 0.77181 0.25151 0.0
C387 C 0.29903 0.73576 0.21593 0.0
C388 C 0.29441 0.69217 0.20713 0.0
C389 C 0.28184 0.68434 0.23349 0.0
C390 C 0.27387 0.72041 0.2683 0.0
C391 C 0.27803 0.76332 0.27745 0.0
C392 C 0.26741 0.79601 0.31709 0.0
C393 C 0.27187 0.81428 0.40343 0.0
C394 C 0.26317 0.83516 0.25529 0.0
C395 C 0.25668 0.76458 0.32883 0.0
C396 C 0.26066 0.72122 0.2999 0.0
C397 C 0.25253 0.68619 0.30311 0.0
C398 C 0.23999 0.69553 0.33706 0.0
C399 C 0.23563 0.73954 0.36835 0.0
C400 C 0.24417 0.77453 0.36357 0.0
H401 H 0.74192 0.79737 0.16816 0.0
H402 H 0.72804 0.68583 0.31258 0.0
H403 H 0.74958 0.6714 0.38022 0.0
H404 H 0.77427 0.7466 0.13082 0.0
H405 H 0.78188 0.79867 0.14513 0.0
H406 H 0.76535 0.80068 0.10729 0.0
H407 H 0.75784 0.85505 0.23173 0.0
H408 H 0.77436 0.85318 0.26994 0.0
H409 H 0.76163 0.83822 0.34043 0.0
H410 H 0.77246 0.66866 0.433 0.0
H411 H 0.79526 0.67816 0.4686 0.0
H412 H 0.79466 0.79122 0.29015 0.0
C413 C 0.74333 0.77023 0.21472 0.0
C414 C 0.73319 0.74254 0.23427 0.0
C415 C 0.73562 0.70702 0.29491 0.0
C416 C 0.74783 0.69873 0.33434 0.0
C417 C 0.75756 0.72639 0.31325 0.0
C418 C 0.75547 0.76156 0.25518 0.0
C419 C 0.76766 0.78616 0.24422 0.0
C420 C 0.77258 0.7828 0.15134 0.0
C421 C 0.76522 0.83611 0.27333 0.0
C422 C 0.77693 0.75888 0.30447 0.0
C423 C 0.77086 0.72472 0.34377 0.0
C424 C 0.77735 0.69513 0.40227 0.0
C425 C 0.7904 0.70054 0.42137 0.0
C426 C 0.79695 0.73508 0.38164 0.0
C427 C 0.79002 0.76461 0.32233 0.0
H428 H 0.12394 0.91601 0.47445 0.0
H429 H 0.1615 0.86187 0.57361 0.0
H430 H 0.16815 0.94033 0.58456 0.0
H431 H 0.13481 0.00597 0.34926 0.0
H432 H 0.12101 0.04596 0.37426 0.0
H433 H 0.11931 0.98575 0.37478 0.0
H434 H 0.11082 0.9919 0.53078 0.0
H435 H 0.11253 0.05216 0.53075 0.0
H436 H 0.12051 0.01622 0.61191 0.0
H437 H 0.17095 0.02471 0.57831 0.0
H438 H 0.16961 0.10829 0.55866 0.0
H439 H 0.12974 0.10829 0.47157 0.0
C440 C 0.13358 0.92063 0.49841 0.0
C441 C 0.14227 0.88274 0.52249 0.0
C442 C 0.15473 0.89031 0.55435 0.0
C443 C 0.15856 0.93478 0.56098 0.0
C444 C 0.14973 0.97139 0.53682 0.0
C445 C 0.13746 0.96478 0.50679 0.0
C446 C 0.12977 0.00987 0.48559 0.0
C447 C 0.12601 0.012 0.39031 0.0
C448 C 0.11769 0.01801 0.5432 0.0
C449 C 0.13972 0.043 0.50666 0.0
C450 C 0.15117 0.02002 0.53618 0.0
C451 C 0.16199 0.04298 0.55623 0.0
C452 C 0.16114 0.09039 0.54497 0.0
C453 C 0.14954 0.11456 0.51474 0.0
C454 C 0.13864 0.09062 0.49626 0.0
H455 H 0.86761 0.42155 0.58534 0.0
H456 H 0.90431 0.36696 0.47503 0.0
H457 H 0.91138 0.44474 0.4669 0.0
H458 H 0.86303 0.52337 0.46315 0.0
H459 H 0.85654 0.55861 0.55038 0.0
H460 H 0.85455 0.49858 0.54957 0.0
H461 H 0.8655 0.48971 0.69864 0.0
H462 H 0.86741 0.54983 0.70023 0.0
H463 H 0.88139 0.50905 0.71443 0.0
H464 H 0.91412 0.52892 0.46729 0.0
H465 H 0.91302 0.61262 0.48398 0.0
H466 H 0.87449 0.61361 0.5945 0.0
C467 C 0.87717 0.42599 0.55994 0.0
C468 C 0.88549 0.38807 0.53117 0.0
C469 C 0.89791 0.39527 0.49859 0.0
C470 C 0.90194 0.43945 0.49315 0.0
C471 C 0.89345 0.47615 0.52129 0.0
C472 C 0.88138 0.46985 0.55501 0.0
C473 C 0.87422 0.51499 0.58233 0.0
C474 C 0.86132 0.52443 0.5334 0.0
C475 C 0.872 0.51595 0.67968 0.0
C476 C 0.88398 0.54791 0.55644 0.0
C477 C 0.89503 0.52465 0.52177 0.0
C478 C 0.90552 0.54737 0.49441 0.0
C479 C 0.9048 0.59488 0.50394 0.0
C480 C 0.89365 0.61939 0.53988 0.0
C481 C 0.88305 0.59565 0.56582 0.0
H482 H 0.87922 0.91872 0.64207 0.0
H483 H 0.89504 0.87315 0.39579 0.0
H484 H 0.89751 0.95245 0.35578 0.0
H485 H 0.8617 0.02442 0.57185 0.0
H486 H 0.86601 0.05695 0.66367 0.0
H487 H 0.86484 0.99657 0.67338 0.0
H488 H 0.88844 0.98521 0.73121 0.0
H489 H 0.88963 0.04559 0.72291 0.0
H490 H 0.90143 0.00611 0.67003 0.0
H491 H 0.8986 0.03531 0.34115 0.0
H492 H 0.90074 0.11742 0.35972 0.0
H493 H 0.88485 0.1123 0.61573 0.0
C494 C 0.88318 0.92562 0.5798 0.0
C495 C 0.88683 0.88971 0.52177 0.0
C496 C 0.89215 0.89998 0.44132 0.0
C497 C 0.89352 0.94502 0.41766 0.0
C498 C 0.88968 0.97967 0.47544 0.0
C499 C 0.88484 0.97069 0.55547 0.0
C500 C 0.88234 0.01447 0.60709 0.0
C501 C 0.86786 0.02363 0.63035 0.0
C502 C 0.89097 0.01274 0.68756 0.0
C503 C 0.88641 0.04931 0.54312 0.0
C504 C 0.89051 0.02823 0.46741 0.0
C505 C 0.89532 0.05233 0.39974 0.0
C506 C 0.89641 0.09896 0.41055 0.0
C507 C 0.89264 0.1212 0.488 0.0
C508 C 0.88736 0.09629 0.55474 0.0
H509 H 0.14768 0.59406 0.3916 0.0
H510 H 0.14847 0.62584 0.66223 0.0
H511 H 0.14571 0.54546 0.69677 0.0
H512 H 0.12299 0.50965 0.41095 0.0
H513 H 0.13045 0.47364 0.32783 0.0
H514 H 0.13159 0.53424 0.32492 0.0
H515 H 0.1567 0.5196 0.31718 0.0
H516 H 0.15565 0.45903 0.3218 0.0
H517 H 0.16532 0.48617 0.39941 0.0
H518 H 0.144 0.46187 0.7026 0.0
H519 H 0.14136 0.3804 0.68035 0.0
H520 H 0.14185 0.4 0.40551 0.0
C521 C 0.14691 0.5841 0.45793 0.0
C522 C 0.14804 0.61609 0.52456 0.0
C523 C 0.14734 0.60191 0.61061 0.0
C524 C 0.14589 0.5563 0.63069 0.0
C525 C 0.14509 0.52524 0.56385 0.0
C526 C 0.14533 0.53852 0.47914 0.0
C527 C 0.14426 0.49792 0.41997 0.0
C528 C 0.13157 0.50423 0.36783 0.0
C529 C 0.1562 0.49024 0.36113 0.0
C530 C 0.14386 0.45952 0.48464 0.0
C531 C 0.14426 0.4764 0.56721 0.0
C532 C 0.14367 0.4483 0.63831 0.0
C533 C 0.14223 0.40204 0.62506 0.0
C534 C 0.14158 0.38386 0.5415 0.0
C535 C 0.14263 0.41284 0.47012 0.0
H536 H 0.65346 0.60257 0.91818 0.0
H537 H 0.64116 0.62906 0.18027 0.0
H538 H 0.63819 0.5473 0.19906 0.0
H539 H 0.63006 0.52074 0.87442 0.0
H540 H 0.64105 0.48587 0.8064 0.0
H541 H 0.64248 0.54612 0.81497 0.0
H542 H 0.66666 0.5293 0.85955 0.0
H543 H 0.66526 0.469 0.852 0.0
H544 H 0.67074 0.49303 0.95025 0.0
H545 H 0.63828 0.46162 0.19199 0.0
H546 H 0.63775 0.38036 0.15292 0.0
H547 H 0.64767 0.41098 0.89125 0.0
C548 C 0.65012 0.59104 0.97939 0.0
C549 C 0.64768 0.6218 0.04817 0.0
C550 C 0.64311 0.60588 0.12695 0.0
C551 C 0.64147 0.55954 0.13828 0.0
C552 C 0.64418 0.52985 0.06959 0.0
C553 C 0.64811 0.54513 0.99108 0.0
C554 C 0.64977 0.50659 0.92644 0.0
C555 C 0.64027 0.51536 0.85111 0.0
C556 C 0.66395 0.49905 0.89524 0.0
C557 C 0.64625 0.46715 0.98095 0.0
C558 C 0.64331 0.48114 0.06383 0.0
C559 C 0.64038 0.45043 0.12706 0.0
C560 C 0.64019 0.40441 0.10452 0.0
C561 C 0.64261 0.38987 1.01922 0.0
C562 C 0.6457 0.42156 0.95677 0.0
H563 H 0.3861 0.90636 0.9039 0.0
H564 H 0.38815 0.88798 0.17889 0.0
H565 H 0.3894 0.97086 0.19792 0.0
H566 H 0.40963 0.99225 0.89807 0.0
H567 H 0.40138 0.02354 0.81181 0.0
H568 H 0.4005 0.96299 0.82047 0.0
H569 H 0.37531 0.97592 0.82053 0.0
H570 H 0.3761 0.03655 0.81298 0.0
H571 H 0.36721 0.01336 0.89924 0.0
H572 H 0.38822 0.05669 0.18691 0.0
H573 H 0.38896 0.13748 0.14684 0.0
H574 H 0.39035 0.09958 0.87852 0.0
C575 C 0.38694 0.91988 0.96797 0.0
C576 C 0.38695 0.89102 0.04006 0.0
C577 C 0.38817 0.9096 0.12293 0.0
C578 C 0.3888 0.95663 0.1343 0.0
C579 C 0.38851 0.9844 0.06199 0.0
C580 C 0.38798 0.96657 0.98031 0.0
C581 C 0.38844 0.00361 0.91332 0.0
C582 C 0.40072 0.99509 0.85764 0.0
C583 C 0.37603 0.00757 0.85828 0.0
C584 C 0.38907 0.04519 0.97001 0.0
C585 C 0.38885 0.03341 0.0556 0.0
C586 C 0.38862 0.06618 0.12016 0.0
C587 C 0.38893 0.112 0.09678 0.0
C588 C 0.38977 0.1246 1.00968 0.0
C589 C 0.3898 0.09072 0.94557 0.0
H590 H 0.38423 0.41846 0.88889 0.0
H591 H 0.38148 0.37762 0.1539 0.0
H592 H 0.38424 0.45636 0.20051 0.0
H593 H 0.40901 0.50082 0.9288 0.0
H594 H 0.40224 0.53992 0.84843 0.0
H595 H 0.40097 0.47968 0.83649 0.0
H596 H 0.37597 0.49555 0.82181 0.0
H597 H 0.37713 0.5557 0.83532 0.0
H598 H 0.36683 0.52638 0.90532 0.0
H599 H 0.38627 0.53921 0.21866 0.0
H600 H 0.38919 0.62119 0.20858 0.0
H601 H 0.39027 0.61103 0.93182 0.0
C602 C 0.38454 0.42612 0.95663 0.0
C603 C 0.38284 0.39211 1.01823 0.0
C604 C 0.383 0.40321 0.1062 0.0
C605 C 0.38448 0.44784 0.13309 0.0
C606 C 0.38584 0.48099 0.07108 0.0
C607 C 0.38613 0.47069 0.98469 0.0
C608 C 0.38771 0.5131 0.93178 0.0
C609 C 0.40076 0.50808 0.88352 0.0
C610 C 0.37622 0.52327 0.86992 0.0
C611 C 0.38774 0.54907 1.00177 0.0
C612 C 0.38679 0.52945 0.08159 0.0
C613 C 0.38701 0.55496 0.1566 0.0
C614 C 0.38861 0.60149 0.15028 0.0
C615 C 0.38973 0.62243 0.06968 0.0
C616 C 0.3891 0.59602 0.99421 0.0
H617 H 0.65203 0.10142 0.12872 0.0
H618 H 0.63843 0.13002 0.87006 0.0
H619 H 0.63483 0.04871 0.8507 0.0
H620 H 0.66863 0.99183 0.08997 0.0
H621 H 0.6637 0.96743 0.18906 0.0
H622 H 0.66526 0.02766 0.18245 0.0
H623 H 0.64141 0.04514 0.23368 0.0
H624 H 0.63984 0.98497 0.24139 0.0
H625 H 0.62852 0.02061 0.17706 0.0
H626 H 0.63453 0.96286 0.85642 0.0
H627 H 0.63409 0.88139 0.89411 0.0
H628 H 0.64579 0.91038 0.15333 0.0
C629 C 0.64822 0.09053 0.06822 0.0
C630 C 0.6456 0.12173 1.00056 0.0
C631 C 0.64049 0.10654 0.92262 0.0
C632 C 0.63849 0.06044 0.91095 0.0
C633 C 0.64142 0.03028 0.97846 0.0
C634 C 0.6459 0.04491 0.05622 0.0
C635 C 0.64786 0.00601 0.11958 0.0
C636 C 0.66221 0.99776 0.14685 0.0
C637 C 0.63887 0.01471 0.19753 0.0
C638 C 0.64385 0.96707 0.0653 0.0
C639 C 0.64041 0.9816 0.98353 0.0
C640 C 0.637 0.95129 0.92058 0.0
C641 C 0.63683 0.90518 0.94232 0.0
C642 C 0.63978 0.89015 0.02663 0.0
C643 C 0.64336 0.92139 0.08871 0.0
H644 H 0.15613 0.20429 0.19877 0.0
H645 H 0.12834 0.3216 0.24279 0.0
H646 H 0.12613 0.33338 0.08656 0.0
H647 H 0.17211 0.24461 1.01218 0.0
H648 H 0.17318 0.19071 0.95674 0.0
H649 H 0.17305 0.19216 0.07199 0.0
H650 H 0.15327 0.14424 0.07335 0.0
H651 H 0.15334 0.14267 0.95806 0.0
H652 H 0.13879 0.1639 1.01453 0.0
H653 H 0.12649 0.33187 0.92755 0.0
H654 H 0.12917 0.3165 0.77263 0.0
H655 H 0.15645 0.19931 0.82769 0.0
C656 C 0.14967 0.23256 0.17499 0.0
C657 C 0.14242 0.26236 0.23211 0.0
C658 C 0.13391 0.29854 0.19954 0.0
C659 C 0.13263 0.30549 0.11114 0.0
C660 C 0.13979 0.27544 0.05614 0.0
C661 C 0.14807 0.23942 0.08642 0.0
C662 C 0.15406 0.21089 1.01273 0.0
C663 C 0.16899 0.20955 1.0135 0.0
C664 C 0.1496 0.16256 1.01482 0.0
C665 C 0.14823 0.23751 0.93659 0.0
C666 C 0.13992 0.27433 0.96348 0.0
C667 C 0.13301 0.3033 0.90568 0.0
C668 C 0.13459 0.29438 0.81803 0.0
C669 C 0.1431 0.25718 0.78896 0.0
C670 C 0.15004 0.22839 0.84879 0.0
H671 H 0.90196 0.20695 0.20293 0.0
H672 H 0.87212 0.31741 0.2527 0.0
H673 H 0.86977 0.3315 0.09747 0.0
H674 H 0.91719 0.25392 1.0209 0.0
H675 H 0.91919 0.20137 0.96105 0.0
H676 H 0.91885 0.20009 0.07629 0.0
H677 H 0.89994 0.14833 0.07169 0.0
H678 H 0.90027 0.14932 0.95638 0.0
H679 H 0.88537 0.16658 1.0126 0.0
H680 H 0.87038 0.33394 0.93899 0.0
H681 H 0.87326 0.32255 0.78333 0.0
H682 H 0.90247 0.2098 0.83006 0.0
C683 C 0.89502 0.23422 0.18069 0.0
C684 C 0.88729 0.26153 0.23963 0.0
C685 C 0.87811 0.29625 0.20851 0.0
C686 C 0.87674 0.30454 0.12052 0.0
C687 C 0.88445 0.27722 0.06389 0.0
C688 C 0.89329 0.24232 0.09222 0.0
C689 C 0.8998 0.21667 1.01652 0.0
C690 C 0.91464 0.21813 1.01886 0.0
C691 C 0.89613 0.1673 1.01418 0.0
C692 C 0.89367 0.244 0.94175 0.0
C693 C 0.88472 0.27838 0.97109 0.0
C694 C 0.87739 0.30726 0.91522 0.0
C695 C 0.87909 0.3006 0.82699 0.0
C696 C 0.88817 0.26579 0.79496 0.0
C697 C 0.89565 0.23727 0.85309 0.0
H698 H 0.15874 0.70558 0.21112 0.0
H699 H 0.12606 0.80537 0.2622 0.0
H700 H 0.12327 0.81915 0.10711 0.0
H701 H 0.17221 0.75937 0.02929 0.0
H702 H 0.17583 0.70743 0.96924 0.0
H703 H 0.17559 0.70591 0.08448 0.0
H704 H 0.15865 0.64656 0.08005 0.0
H705 H 0.15887 0.64775 0.96474 0.0
H706 H 0.14371 0.65924 1.02138 0.0
H707 H 0.12365 0.8218 0.94911 0.0
H708 H 0.12664 0.81169 0.7936 0.0
H709 H 0.15898 0.70947 0.83839 0.0
C710 C 0.15109 0.73049 0.18914 0.0
C711 C 0.14266 0.75484 0.2482 0.0
C712 C 0.13259 0.78652 0.21768 0.0
C713 C 0.13096 0.7946 0.12985 0.0
C714 C 0.13936 0.77014 0.07298 0.0
C715 C 0.14914 0.73832 0.10088 0.0
C716 C 0.1563 0.71517 0.025 0.0
C717 C 0.17085 0.72244 0.02715 0.0
C718 C 0.15426 0.66416 0.02267 0.0
C719 C 0.14936 0.74032 0.9505 0.0
C720 C 0.13952 0.77145 0.9803 0.0
C721 C 0.13133 0.79764 0.92494 0.0
C722 C 0.13309 0.79161 0.83669 0.0
C723 C 0.14306 0.76006 0.80397 0.0
C724 C 0.15141 0.73436 0.86173 0.0
H725 H 0.90032 0.7969 0.83889 0.0
H726 H 0.87483 0.69033 0.79134 0.0
H727 H 0.8731 0.67744 0.94546 0.0
H728 H 0.91752 0.7442 0.02181 0.0
H729 H 0.9179 0.79645 0.08152 0.0
H730 H 0.91756 0.79772 0.96623 0.0
H731 H 0.897 0.8552 0.97039 0.0
H732 H 0.8973 0.85413 0.08569 0.0
H733 H 0.88289 0.84107 0.02899 0.0
H734 H 0.87328 0.67615 0.10136 0.0
H735 H 0.87545 0.68682 0.25662 0.0
H736 H 0.90105 0.79313 0.21257 0.0
C737 C 0.8945 0.77063 0.8612 0.0
C738 C 0.88773 0.74459 0.80252 0.0
C739 C 0.88005 0.71098 0.83445 0.0
C740 C 0.87902 0.7032 0.92217 0.0
C741 C 0.88567 0.72939 0.97818 0.0
C742 C 0.89323 0.76258 0.94975 0.0
C743 C 0.89891 0.78663 0.02562 0.0
C744 C 0.91387 0.78088 0.02366 0.0
C745 C 0.89372 0.83726 0.02778 0.0
C746 C 0.89359 0.76083 0.1003 0.0
C747 C 0.88587 0.72834 0.07059 0.0
C748 C 0.87936 0.70125 0.12565 0.0
C749 C 0.88064 0.70761 0.21377 0.0
C750 C 0.88848 0.74044 0.24659 0.0
C751 C 0.89517 0.76719 0.18908 0.0
H752 H 0.65548 0.79948 0.36063 0.0
H753 H 0.63331 0.68353 0.31583 0.0
H754 H 0.63145 0.67216 0.47045 0.0
H755 H 0.67322 0.75464 0.54898 0.0
H756 H 0.67203 0.80831 0.6053 0.0
H757 H 0.67213 0.80734 0.48998 0.0
H758 H 0.65037 0.85872 0.48757 0.0
H759 H 0.65018 0.85982 0.60289 0.0
H760 H 0.63653 0.84116 0.54487 0.0
H761 H 0.63099 0.67374 0.62629 0.0
H762 H 0.63237 0.68739 0.78094 0.0
H763 H 0.65504 0.80169 0.73398 0.0
C764 C 0.65043 0.77136 0.38374 0.0
C765 C 0.64461 0.74223 0.3259 0.0
C766 C 0.63784 0.70636 0.35856 0.0
C767 C 0.63673 0.69951 0.44648 0.0
C768 C 0.64238 0.72891 0.50177 0.0
C769 C 0.64909 0.76417 0.47243 0.0
C770 C 0.65375 0.79149 0.54745 0.0
C771 C 0.66867 0.79035 0.54795 0.0
C772 C 0.64733 0.84071 0.54556 0.0
C773 C 0.64882 0.76528 0.62287 0.0
C774 C 0.64217 0.72966 0.59413 0.0
C775 C 0.63622 0.70135 0.64987 0.0
C776 C 0.63702 0.70953 0.7377 0.0
C777 C 0.64381 0.7455 0.76965 0.0
C778 C 0.6499 0.77362 0.71136 0.0
H779 H 0.37308 0.79055 0.73559 0.0
H780 H 0.40813 0.69999 0.77772 0.0
H781 H 0.411 0.6907 0.62181 0.0
H782 H 0.36105 0.736 0.54789 0.0
H783 H 0.356 0.78838 0.49282 0.0
H784 H 0.35621 0.78707 0.60809 0.0
H785 H 0.37121 0.85266 0.61041 0.0
H786 H 0.37104 0.85421 0.49512 0.0
H787 H 0.38631 0.84655 0.55174 0.0
H788 H 0.4107 0.69252 0.46418 0.0
H789 H 0.4073 0.70573 0.30961 0.0
H790 H 0.37249 0.79539 0.36357 0.0
C791 C 0.38126 0.76844 0.71154 0.0
C792 C 0.39037 0.74566 0.76839 0.0
C793 C 0.40109 0.71777 0.73508 0.0
C794 C 0.40278 0.71221 0.64672 0.0
C795 C 0.39376 0.73534 0.59219 0.0
C796 C 0.38325 0.76322 0.62279 0.0
C797 C 0.37548 0.78598 0.54911 0.0
C798 C 0.36134 0.77358 0.54954 0.0
C799 C 0.37604 0.83792 0.55178 0.0
C800 C 0.38299 0.76505 0.47272 0.0
C801 C 0.39359 0.73644 0.49967 0.0
C802 C 0.4024 0.71458 0.44216 0.0
C803 C 0.40039 0.72228 0.35464 0.0
C804 C 0.38957 0.75104 0.32512 0.0
C805 C 0.38069 0.77254 0.38478 0.0
H806 H 0.6616 0.27715 0.31338 0.0
H807 H 0.6259 0.21317 0.26708 0.0
H808 H 0.62266 0.20593 0.42055 0.0
H809 H 0.67188 0.20756 0.50086 0.0
H810 H 0.67805 0.25375 0.55919 0.0
H811 H 0.67823 0.25372 0.44381 0.0
H812 H 0.66519 0.33317 0.44305 0.0
H813 H 0.66497 0.33341 0.55837 0.0
H814 H 0.6499 0.34133 0.49945 0.0
H815 H 0.6224 0.20606 0.57327 0.0
H816 H 0.62508 0.21333 0.72706 0.0
H817 H 0.66097 0.27724 0.68771 0.0
C818 C 0.65319 0.26133 0.33588 0.0
C819 C 0.64399 0.24587 0.27758 0.0
C820 C 0.63306 0.2256 0.30965 0.0
C821 C 0.63112 0.22114 0.39712 0.0
C822 C 0.64018 0.2369 0.45263 0.0
C823 C 0.65103 0.25653 0.42435 0.0
C824 C 0.65897 0.27104 0.50034 0.0
C825 C 0.67259 0.24496 0.50106 0.0
C826 C 0.6598 0.32282 0.50027 0.0
C827 C 0.65076 0.25665 0.57477 0.0
C828 C 0.64002 0.23698 0.54445 0.0
C829 C 0.63077 0.22128 0.59823 0.0
C830 C 0.63241 0.22581 0.686 0.0
C831 C 0.64324 0.24607 0.72023 0.0
C832 C 0.65263 0.26147 0.66364 0.0
H833 H 0.39711 0.30754 0.3121 0.0
H834 H 0.37481 0.19195 0.26784 0.0
H835 H 0.37378 0.17875 0.42268 0.0
H836 H 0.41579 0.26243 0.49507 0.0
H837 H 0.41461 0.31543 0.55356 0.0
H838 H 0.4141 0.31583 0.43827 0.0
H839 H 0.39208 0.36575 0.44231 0.0
H840 H 0.39254 0.36559 0.55762 0.0
H841 H 0.37871 0.34659 0.50213 0.0
H842 H 0.37452 0.17775 0.57892 0.0
H843 H 0.37659 0.18999 0.73361 0.0
H844 H 0.39828 0.30661 0.68597 0.0
C845 C 0.39214 0.27927 0.33539 0.0
C846 C 0.38607 0.25064 0.27774 0.0
C847 C 0.37946 0.21446 0.31057 0.0
C848 C 0.37885 0.20654 0.39854 0.0
C849 C 0.38479 0.23535 0.45371 0.0
C850 C 0.39123 0.27122 0.42415 0.0
C851 C 0.39617 0.298 0.49912 0.0
C852 C 0.41105 0.29789 0.49632 0.0
C853 C 0.38948 0.34688 0.50035 0.0
C854 C 0.39181 0.27061 0.57479 0.0
C855 C 0.38517 0.23491 0.5462 0.0
C856 C 0.37973 0.20547 0.60226 0.0
C857 C 0.38094 0.2128 0.69014 0.0
C858 C 0.38762 0.2491 0.722 0.0
C859 C 0.39328 0.27819 0.66343 0.0
H860 H 0.04542 0.21208 0.5173 0.0
H861 H 0.05187 0.29695 0.29755 0.0
H862 H 0.02816 0.30756 0.27192 0.0
H863 H 0.0183 0.1566 0.42478 0.0
H864 H 1.00973 0.15577 0.52516 0.0
H865 H 0.02726 0.15305 0.52401 0.0
H866 H 0.02645 0.22354 0.62384 0.0
H867 H 1.00894 0.22646 0.62528 0.0
H868 H 0.01695 0.27537 0.59272 0.0
H869 H 1.00381 0.30983 0.27114 0.0
H870 H 0.98043 0.30645 0.29837 0.0
H871 H 0.98974 0.22188 0.52155 0.0
C872 C 0.04188 0.23226 0.46283 0.0
C873 C 0.05056 0.25357 0.40921 0.0
C874 C 0.04545 0.2806 0.33994 0.0
C875 C 0.032 0.28654 0.32447 0.0
C876 C 0.02375 0.26515 0.37865 0.0
C877 C 0.02849 0.23856 0.44648 0.0
C878 C 0.01748 0.22073 0.49692 0.0
C879 C 0.01824 0.16844 0.49242 0.0
C880 C 0.01746 0.23756 0.5902 0.0
C881 C 1.00581 0.24223 0.44782 0.0
C882 C 1.00967 0.26721 0.37925 0.0
C883 C 1.00067 0.29046 0.32479 0.0
C884 C 0.98738 0.28859 0.34132 0.0
C885 C 0.98312 0.26422 0.41263 0.0
C886 C 0.99256 0.24034 0.46584 0.0
H887 H 0.98914 0.70617 0.54165 0.0
H888 H 0.97904 0.82312 0.70641 0.0
H889 H 1.00227 0.83062 0.73062 0.0
H890 H 0.01752 0.66057 0.67337 0.0
H891 H 0.02678 0.64032 0.58088 0.0
H892 H 1.00926 0.64242 0.57941 0.0
H893 H 1.00865 0.69193 0.44253 0.0
H894 H 0.02613 0.69016 0.4438 0.0
H895 H 1.0164 0.74426 0.44313 0.0
H896 H 0.02651 0.82922 0.72987 0.0
H897 H 0.05026 0.81668 0.70883 0.0
H898 H 0.04492 0.6993 0.54864 0.0
C899 C 0.99175 0.73274 0.58443 0.0
C900 C 0.98211 0.76442 0.62099 0.0
C901 C 0.98612 0.79902 0.67565 0.0
C902 C 0.99934 0.80337 0.69062 0.0
C903 C 1.00854 0.77232 0.65213 0.0
C904 C 1.00496 0.73724 0.60118 0.0
C905 C 0.01689 0.70894 0.56662 0.0
C906 C 0.01765 0.66017 0.60219 0.0
C907 C 0.01702 0.70886 0.46818 0.0
C908 C 0.02767 0.73488 0.60314 0.0
C909 C 0.02263 0.771 0.65306 0.0
C910 C 0.03059 0.8008 0.69148 0.0
C911 C 0.04408 0.79361 0.67852 0.0
C912 C 0.04954 0.75703 0.62705 0.0
C913 C 0.04114 0.72715 0.58953 0.0
H914 H 0.54421 0.76338 0.08958 0.0
H915 H 0.55236 0.7465 0.81815 0.0
H916 H 0.52888 0.74505 0.78964 0.0
H917 H 0.5185 0.69092 0.10006 0.0
H918 H 0.50887 0.72632 0.17504 0.0
H919 H 0.52632 0.7265 0.17432 0.0
H920 H 0.52397 0.814 0.15321 0.0
H921 H 0.50651 0.81412 0.15428 0.0
H922 H 0.51446 0.83833 0.06492 0.0
H923 H 0.50441 0.74534 0.79046 0.0
H924 H 0.48091 0.74598 0.82113 0.0
H925 H 0.48868 0.76476 0.09137 0.0
C926 C 0.54108 0.76001 0.02392 0.0
C927 C 0.55022 0.7551 0.95609 0.0
C928 C 0.54563 0.7498 0.8714 0.0
C929 C 0.53228 0.74922 0.85445 0.0
C930 C 0.52358 0.7541 0.92274 0.0
C931 C 0.52779 0.75945 1.0058 0.0
C932 C 0.51643 0.76361 0.06778 0.0
C933 C 0.5176 0.7245 0.13313 0.0
C934 C 0.51528 0.8103 0.11267 0.0
C935 C 0.50519 0.75943 1.00661 0.0
C936 C 0.50951 0.75416 0.92322 0.0
C937 C 0.50092 0.74958 0.85552 0.0
C938 C 0.48756 0.75024 0.87352 0.0
C939 C 0.48289 0.75532 0.95862 0.0
C940 C 0.49191 0.76016 0.02573 0.0
H941 H 0.48719 0.30533 0.99517 0.0
H942 H 0.48248 0.1927 0.16779 0.0
H943 H 0.50619 0.18152 0.1879 0.0
H944 H 0.51565 0.25985 0.89294 0.0
H945 H 0.52328 0.31233 0.8883 0.0
H946 H 0.50581 0.31374 0.89059 0.0
H947 H 0.50505 0.36615 0.02411 0.0
H948 H 0.52255 0.36505 0.02205 0.0
H949 H 0.51445 0.34835 0.11748 0.0
H950 H 0.5302 0.17947 0.18463 0.0
H951 H 0.5534 0.18765 0.16021 0.0
H952 H 0.54295 0.30178 0.99024 0.0
C953 C 0.49111 0.27889 0.0385 0.0
C954 C 0.48291 0.2495 0.07888 0.0
C955 C 0.48852 0.21502 0.13439 0.0
C956 C 0.50199 0.20862 0.147 0.0
C957 C 0.50977 0.23747 0.10498 0.0
C958 C 0.50459 0.27226 0.05261 0.0
C959 C 0.51527 0.29776 1.01396 0.0
C960 C 0.51498 0.29576 0.91562 0.0
C961 C 0.51427 0.34726 0.04633 0.0
C962 C 0.52724 0.27051 0.05002 0.0
C963 C 0.52379 0.23636 0.10331 0.0
C964 C 0.53305 0.20616 0.1432 0.0
C965 C 0.54622 0.21082 0.12811 0.0
C966 C 0.55008 0.24504 0.07251 0.0
C967 C 0.54039 0.27553 0.03371 0.0
loop_
_geom_bond_atom_site_label_1
_geom_bond_atom_site_label_2
_geom_bond_distance
_geom_bond_site_symmetry_2
_ccdc_geom_bond_type
Sm0 C2 2.846 . S
Sm0 O20 2.543 . S
Sm0 O21 2.450 . S
Sm0 O22 2.681 . S
Sm0 O23 2.464 . S
Sm0 O24 2.396 . S
Sm0 O28 2.386 . S
Sm0 O31 2.408 . S
Sm1 C11 2.846 . S
Sm1 O22 2.386 . S
Sm1 O25 2.408 . S
Sm1 O26 2.543 . S
Sm1 O27 2.450 . S
Sm1 O28 2.681 . S
Sm1 O29 2.464 . S
Sm1 O30 2.396 . S
C2 Sm0 2.846 . S
C2 C3 1.506 . S
C2 O20 1.261 . S
C2 O21 1.242 . S
C3 C2 1.506 . S
C3 C4 1.358 . S
C3 C8 1.382 . S
C4 C3 1.358 . S
C4 C5 1.385 . S
C4 H32 0.930 . S
C5 C4 1.385 . S
C5 C6 1.395 . S
C5 H33 0.929 . S
C6 C5 1.395 . S
C6 C7 1.335 . S
C7 C6 1.335 . S
C7 C8 1.398 . S
C7 H34 0.930 . S
C8 C3 1.382 . S
C8 C7 1.398 . S
C8 H35 0.929 . S
C9 O22 1.271 . S
C9 O23 1.251 . S
C10 O24 1.252 . S
C10 O25 1.272 . S
C11 Sm1 2.846 . S
C11 C12 1.506 . S
C11 O26 1.261 . S
C11 O27 1.242 . S
C12 C11 1.506 . S
C12 C13 1.358 . S
C12 C17 1.382 . S
C13 C12 1.358 . S
C13 C14 1.385 . S
C13 H36 0.930 . S
C14 C13 1.385 . S
C14 C15 1.395 . S
C14 H37 0.929 . S
C15 C14 1.395 . S
C15 C16 1.335 . S
C16 C15 1.335 . S
C16 C17 1.398 . S
C16 H38 0.930 . S
C17 C12 1.382 . S
C17 C16 1.398 . S
C17 H39 0.929 . S
C18 O28 1.271 . S
C18 O29 1.251 . S
C19 O30 1.252 . S
C19 O31 1.272 . S
O20 Sm0 2.543 . S
O20 C2 1.261 . S
O21 Sm0 2.450 . S
O21 C2 1.242 . S
O22 Sm0 2.681 . S
O22 Sm1 2.386 . S
O22 C9 1.271 . S
O23 Sm0 2.464 . S
O23 C9 1.251 . S
O24 Sm0 2.396 . S
O24 C10 1.252 . S
O25 Sm1 2.408 . S
O25 C10 1.272 . S
O26 Sm1 2.543 . S
O26 C11 1.261 . S
O27 Sm1 2.450 . S
O27 C11 1.242 . S
O28 Sm0 2.386 . S
O28 Sm1 2.681 . S
O28 C18 1.271 . S
O29 Sm1 2.464 . S
O29 C18 1.251 . S
O30 Sm1 2.396 . S
O30 C19 1.252 . S
O31 Sm0 2.408 . S
O31 C19 1.272 . S
H32 C4 0.930 . S
H33 C5 0.929 . S
H34 C7 0.930 . S
H35 C8 0.929 . S
H36 C13 0.930 . S
H37 C14 0.929 . S
H38 C16 0.930 . S
H39 C17 0.929 . S
Sm40 C42 2.846 . S
Sm40 O60 2.543 . S
Sm40 O61 2.450 . S
Sm40 O62 2.681 . S
Sm40 O63 2.464 . S
Sm40 O64 2.396 . S
Sm40 O68 2.386 . S
Sm40 O71 2.408 . S
Sm41 C51 2.846 . S
Sm41 O62 2.386 . S
Sm41 O65 2.408 . S
Sm41 O66 2.543 . S
Sm41 O67 2.450 . S
Sm41 O68 2.681 . S
Sm41 O69 2.464 . S
Sm41 O70 2.396 . S
C42 Sm40 2.846 . S
C42 C43 1.506 . S
C42 O60 1.261 . S
C42 O61 1.242 . S
C43 C42 1.506 . S
C43 C44 1.358 . S
C43 C48 1.382 . S
C44 C43 1.358 . S
C44 C45 1.385 . S
C44 H72 0.930 . S
C45 C44 1.385 . S
C45 C46 1.395 . S
C45 H73 0.929 . S
C46 C45 1.395 . S
C46 C47 1.335 . S
C47 C46 1.335 . S
C47 C48 1.398 . S
C47 H74 0.930 . S
C48 C43 1.382 . S
C48 C47 1.398 . S
C48 H75 0.929 . S
C49 O62 1.271 . S
C49 O63 1.251 . S
C50 O64 1.252 . S
C50 O65 1.272 . S
C51 Sm41 2.846 . S
C51 C52 1.506 . S
C51 O66 1.261 . S
C51 O67 1.242 . S
C52 C51 1.506 . S
C52 C53 1.358 . S
C52 C57 1.382 . S
C53 C52 1.358 . S
C53 C54 1.385 . S
C53 H76 0.930 . S
C54 C53 1.385 . S
C54 C55 1.395 . S
C54 H77 0.929 . S
C55 C54 1.395 . S
C55 C56 1.335 . S
C56 C55 1.335 . S
C56 C57 1.398 . S
C56 H78 0.930 . S
C57 C52 1.382 . S
C57 C56 1.398 . S
C57 H79 0.929 . S
C58 O68 1.271 . S
C58 O69 1.251 . S
C59 O70 1.252 . S
C59 O71 1.272 . S
O60 Sm40 2.543 . S
O60 C42 1.261 . S
O61 Sm40 2.450 . S
O61 C42 1.242 . S
O62 Sm40 2.681 . S
O62 Sm41 2.386 . S
O62 C49 1.271 . S
O63 Sm40 2.464 . S
O63 C49 1.251 . S
O64 Sm40 2.396 . S
O64 C50 1.252 . S
O65 Sm41 2.408 . S
O65 C50 1.272 . S
O66 Sm41 2.543 . S
O66 C51 1.261 . S
O67 Sm41 2.450 . S
O67 C51 1.242 . S
O68 Sm40 2.386 . S
O68 Sm41 2.681 . S
O68 C58 1.271 . S
O69 Sm41 2.464 . S
O69 C58 1.251 . S
O70 Sm41 2.396 . S
O70 C59 1.252 . S
O71 Sm40 2.408 . S
O71 C59 1.272 . S
H72 C44 0.930 . S
H73 C45 0.929 . S
H74 C47 0.930 . S
H75 C48 0.929 . S
H76 C53 0.930 . S
H77 C54 0.929 . S
H78 C56 0.930 . S
H79 C57 0.929 . S
Sm80 C82 2.846 . S
Sm80 O100 2.543 . S
Sm80 O101 2.450 . S
Sm80 O102 2.681 . S
Sm80 O103 2.464 . S
Sm80 O104 2.396 . S
Sm80 O108 2.386 . S
Sm80 O111 2.408 . S
Sm81 C91 2.846 . S
Sm81 O102 2.386 . S
Sm81 O105 2.408 . S
Sm81 O106 2.543 . S
Sm81 O107 2.450 . S
Sm81 O108 2.681 . S
Sm81 O109 2.464 . S
Sm81 O110 2.396 . S
C82 Sm80 2.846 . S
C82 C83 1.506 . S
C82 O100 1.261 . S
C82 O101 1.242 . S
C83 C82 1.506 . S
C83 C84 1.358 . S
C83 C88 1.382 . S
C84 C83 1.358 . S
C84 C85 1.385 . S
C84 H112 0.930 . S
C85 C84 1.385 . S
C85 C86 1.395 . S
C85 H113 0.929 . S
C86 C85 1.395 . S
C86 C87 1.335 . S
C87 C86 1.335 . S
C87 C88 1.398 . S
C87 H114 0.930 . S
C88 C83 1.382 . S
C88 C87 1.398 . S
C88 H115 0.929 . S
C89 O102 1.271 . S
C89 O103 1.251 . S
C90 O104 1.252 . S
C90 O105 1.272 . S
C91 Sm81 2.846 . S
C91 C92 1.506 . S
C91 O106 1.261 . S
C91 O107 1.242 . S
C92 C91 1.506 . S
C92 C93 1.358 . S
C92 C97 1.382 . S
C93 C92 1.358 . S
C93 C94 1.385 . S
C93 H116 0.930 . S
C94 C93 1.385 . S
C94 C95 1.395 . S
C94 H117 0.929 . S
C95 C94 1.395 . S
C95 C96 1.335 . S
C96 C95 1.335 . S
C96 C97 1.398 . S
C96 H118 0.930 . S
C97 C92 1.382 . S
C97 C96 1.398 . S
C97 H119 0.929 . S
C98 O108 1.271 . S
C98 O109 1.251 . S
C99 O110 1.252 . S
C99 O111 1.272 . S
O100 Sm80 2.543 . S
O100 C82 1.261 . S
O101 Sm80 2.450 . S
O101 C82 1.242 . S
O102 Sm80 2.681 . S
O102 Sm81 2.386 . S
O102 C89 1.271 . S
O103 Sm80 2.464 . S
O103 C89 1.251 . S
O104 Sm80 2.396 . S
O104 C90 1.252 . S
O105 Sm81 2.408 . S
O105 C90 1.272 . S
O106 Sm81 2.543 . S
O106 C91 1.261 . S
O107 Sm81 2.450 . S
O107 C91 1.242 . S
O108 Sm80 2.386 . S
O108 Sm81 2.681 . S
O108 C98 1.271 . S
O109 Sm81 2.464 . S
O109 C98 1.251 . S
O110 Sm81 2.396 . S
O110 C99 1.252 . S
O111 Sm80 2.408 . S
O111 C99 1.272 . S
H112 C84 0.930 . S
H113 C85 0.929 . S
H114 C87 0.930 . S
H115 C88 0.929 . S
H116 C93 0.930 . S
H117 C94 0.929 . S
H118 C96 0.930 . S
H119 C97 0.929 . S
Sm120 C122 2.846 . S
Sm120 O140 2.543 . S
Sm120 O141 2.450 . S
Sm120 O142 2.681 . S
Sm120 O143 2.464 . S
Sm120 O144 2.396 . S
Sm120 O148 2.386 . S
Sm120 O151 2.408 . S
Sm121 C131 2.846 . S
Sm121 O142 2.386 . S
Sm121 O145 2.408 . S
Sm121 O146 2.543 . S
Sm121 O147 2.450 . S
Sm121 O148 2.681 . S
Sm121 O149 2.464 . S
Sm121 O150 2.396 . S
C122 Sm120 2.846 . S
C122 C123 1.506 . S
C122 O140 1.261 . S
C122 O141 1.242 . S
C123 C122 1.506 . S
C123 C124 1.358 . S
C123 C128 1.382 . S
C124 C123 1.358 . S
C124 C125 1.385 . S
C124 H152 0.930 . S
C125 C124 1.385 . S
C125 C126 1.395 . S
C125 H153 0.929 . S
C126 C125 1.395 . S
C126 C127 1.335 . S
C127 C126 1.335 . S
C127 C128 1.398 . S
C127 H154 0.930 . S
C128 C123 1.382 . S
C128 C127 1.398 . S
C128 H155 0.929 . S
C129 O142 1.271 . S
C129 O143 1.251 . S
C130 O144 1.252 . S
C130 O145 1.272 . S
C131 Sm121 2.846 . S
C131 C132 1.506 . S
C131 O146 1.261 . S
C131 O147 1.242 . S
C132 C131 1.506 . S
C132 C133 1.358 . S
C132 C137 1.382 . S
C133 C132 1.358 . S
C133 C134 1.385 . S
C133 H156 0.930 . S
C134 C133 1.385 . S
C134 C135 1.395 . S
C134 H157 0.929 . S
C135 C134 1.395 . S
C135 C136 1.335 . S
C136 C135 1.335 . S
C136 C137 1.398 . S
C136 H158 0.930 . S
C137 C132 1.382 . S
C137 C136 1.398 . S
C137 H159 0.929 . S
C138 O148 1.271 . S
C138 O149 1.251 . S
C139 O150 1.252 . S
C139 O151 1.272 . S
O140 Sm120 2.543 . S
O140 C122 1.261 . S
O141 Sm120 2.450 . S
O141 C122 1.242 . S
O142 Sm120 2.681 . S
O142 Sm121 2.386 . S
O142 C129 1.271 . S
O143 Sm120 2.464 . S
O143 C129 1.251 . S
O144 Sm120 2.396 . S
O144 C130 1.252 . S
O145 Sm121 2.408 . S
O145 C130 1.272 . S
O146 Sm121 2.543 . S
O146 C131 1.261 . S
O147 Sm121 2.450 . S
O147 C131 1.242 . S
O148 Sm120 2.386 . S
O148 Sm121 2.681 . S
O148 C138 1.271 . S
O149 Sm121 2.464 . S
O149 C138 1.251 . S
O150 Sm121 2.396 . S
O150 C139 1.252 . S
O151 Sm120 2.408 . S
O151 C139 1.272 . S
H152 C124 0.930 . S
H153 C125 0.929 . S
H154 C127 0.930 . S
H155 C128 0.929 . S
H156 C133 0.930 . S
H157 C134 0.929 . S
H158 C136 0.930 . S
H159 C137 0.929 . S
Sm160 C162 2.846 1_556 S
Sm160 O180 2.543 1_556 S
Sm160 O181 2.450 1_556 S
Sm160 O182 2.681 . S
Sm160 O183 2.464 . S
Sm160 O184 2.396 1_556 S
Sm160 O188 2.386 1_556 S
Sm160 O191 2.408 . S
Sm161 C171 2.846 1_554 S
Sm161 O182 2.386 1_554 S
Sm161 O185 2.408 . S
Sm161 O186 2.543 1_554 S
Sm161 O187 2.450 1_554 S
Sm161 O188 2.681 . S
Sm161 O189 2.464 . S
Sm161 O190 2.396 1_554 S
C162 Sm160 2.846 1_554 S
C162 C163 1.506 . S
C162 O180 1.261 . S
C162 O181 1.242 . S
C163 C162 1.506 . S
C163 C164 1.358 . S
C163 C168 1.382 . S
C164 C163 1.358 . S
C164 C165 1.385 . S
C164 H192 0.930 . S
C165 C164 1.385 . S
C165 C166 1.395 . S
C165 H193 0.929 . S
C166 C165 1.395 . S
C166 C167 1.335 . S
C167 C166 1.335 . S
C167 C168 1.398 . S
C167 H194 0.930 . S
C168 C163 1.382 . S
C168 C167 1.398 . S
C168 H195 0.929 . S
C169 O182 1.271 . S
C169 O183 1.251 . S
C170 O184 1.252 . S
C170 O185 1.272 . S
C171 Sm161 2.846 1_556 S
C171 C172 1.506 . S
C171 O186 1.261 . S
C171 O187 1.242 . S
C172 C171 1.506 . S
C172 C173 1.358 . S
C172 C177 1.382 . S
C173 C172 1.358 . S
C173 C174 1.385 . S
C173 H196 0.930 . S
C174 C173 1.385 . S
C174 C175 1.395 . S
C174 H197 0.929 . S
C175 C174 1.395 . S
C175 C176 1.335 . S
C176 C175 1.335 . S
C176 C177 1.398 . S
C176 H198 0.930 . S
C177 C172 1.382 . S
C177 C176 1.398 . S
C177 H199 0.929 . S
C178 O188 1.271 . S
C178 O189 1.251 . S
C179 O190 1.252 . S
C179 O191 1.272 . S
O180 Sm160 2.543 1_554 S
O180 C162 1.261 . S
O181 Sm160 2.450 1_554 S
O181 C162 1.242 . S
O182 Sm160 2.681 . S
O182 Sm161 2.386 1_556 S
O182 C169 1.271 . S
O183 Sm160 2.464 . S
O183 C169 1.251 . S
O184 Sm160 2.396 1_554 S
O184 C170 1.252 . S
O185 Sm161 2.408 . S
O185 C170 1.272 . S
O186 Sm161 2.543 1_556 S
O186 C171 1.261 . S
O187 Sm161 2.450 1_556 S
O187 C171 1.242 . S
O188 Sm160 2.386 1_554 S
O188 Sm161 2.681 . S
O188 C178 1.271 . S
O189 Sm161 2.464 . S
O189 C178 1.251 . S
O190 Sm161 2.396 1_556 S
O190 C179 1.252 . S
O191 Sm160 2.408 . S
O191 C179 1.272 . S
H192 C164 0.930 . S
H193 C165 0.929 . S
H194 C167 0.930 . S
H195 C168 0.929 . S
H196 C173 0.930 . S
H197 C174 0.929 . S
H198 C176 0.930 . S
H199 C177 0.929 . S
Sm200 C202 2.846 1_556 S
Sm200 O220 2.543 1_556 S
Sm200 O221 2.450 1_556 S
Sm200 O222 2.681 . S
Sm200 O223 2.464 . S
Sm200 O224 2.396 1_556 S
Sm200 O228 2.386 1_556 S
Sm200 O231 2.408 . S
Sm201 C211 2.846 1_554 S
Sm201 O222 2.386 1_554 S
Sm201 O225 2.408 . S
Sm201 O226 2.543 1_554 S
Sm201 O227 2.450 1_554 S
Sm201 O228 2.681 . S
Sm201 O229 2.464 . S
Sm201 O230 2.396 1_554 S
C202 Sm200 2.846 1_554 S
C202 C203 1.506 . S
C202 O220 1.261 . S
C202 O221 1.242 . S
C203 C202 1.506 . S
C203 C204 1.358 . S
C203 C208 1.382 . S
C204 C203 1.358 . S
C204 C205 1.385 . S
C204 H232 0.930 . S
C205 C204 1.385 . S
C205 C206 1.395 . S
C205 H233 0.929 . S
C206 C205 1.395 . S
C206 C207 1.335 . S
C207 C206 1.335 . S
C207 C208 1.398 . S
C207 H234 0.930 . S
C208 C203 1.382 . S
C208 C207 1.398 . S
C208 H235 0.929 . S
C209 O222 1.271 . S
C209 O223 1.251 . S
C210 O224 1.252 . S
C210 O225 1.272 . S
C211 Sm201 2.846 1_556 S
C211 C212 1.506 . S
C211 O226 1.261 . S
C211 O227 1.242 . S
C212 C211 1.506 . S
C212 C213 1.358 . S
C212 C217 1.382 . S
C213 C212 1.358 . S
C213 C214 1.385 . S
C213 H236 0.930 . S
C214 C213 1.385 . S
C214 C215 1.395 . S
C214 H237 0.929 . S
C215 C214 1.395 . S
C215 C216 1.335 . S
C216 C215 1.335 . S
C216 C217 1.398 . S
C216 H238 0.930 . S
C217 C212 1.382 . S
C217 C216 1.398 . S
C217 H239 0.929 . S
C218 O228 1.271 . S
C218 O229 1.251 . S
C219 O230 1.252 . S
C219 O231 1.272 . S
O220 Sm200 2.543 1_554 S
O220 C202 1.261 . S
O221 Sm200 2.450 1_554 S
O221 C202 1.242 . S
O222 Sm200 2.681 . S
O222 Sm201 2.386 1_556 S
O222 C209 1.271 . S
O223 Sm200 2.464 . S
O223 C209 1.251 . S
O224 Sm200 2.396 1_554 S
O224 C210 1.252 . S
O225 Sm201 2.408 . S
O225 C210 1.272 . S
O226 Sm201 2.543 1_556 S
O226 C211 1.261 . S
O227 Sm201 2.450 1_556 S
O227 C211 1.242 . S
O228 Sm200 2.386 1_554 S
O228 Sm201 2.681 . S
O228 C218 1.271 . S
O229 Sm201 2.464 . S
O229 C218 1.251 . S
O230 Sm201 2.396 1_556 S
O230 C219 1.252 . S
O231 Sm200 2.408 . S
O231 C219 1.272 . S
H232 C204 0.930 . S
H233 C205 0.929 . S
H234 C207 0.930 . S
H235 C208 0.929 . S
H236 C213 0.930 . S
H237 C214 0.929 . S
H238 C216 0.930 . S
H239 C217 0.929 . S
Sm240 C242 2.846 1_556 S
Sm240 O260 2.543 1_556 S
Sm240 O261 2.450 1_556 S
Sm240 O262 2.681 . S
Sm240 O263 2.464 . S
Sm240 O264 2.396 1_556 S
Sm240 O268 2.386 1_556 S
Sm240 O271 2.408 . S
Sm241 C251 2.846 1_554 S
Sm241 O262 2.386 1_554 S
Sm241 O265 2.408 . S
Sm241 O266 2.543 1_554 S
Sm241 O267 2.450 1_554 S
Sm241 O268 2.681 . S
Sm241 O269 2.464 . S
Sm241 O270 2.396 1_554 S
C242 Sm240 2.846 1_554 S
C242 C243 1.506 . S
C242 O260 1.261 . S
C242 O261 1.242 . S
C243 C242 1.506 . S
C243 C244 1.358 . S
C243 C248 1.382 . S
C244 C243 1.358 . S
C244 C245 1.385 . S
C244 H272 0.930 . S
C245 C244 1.385 . S
C245 C246 1.395 . S
C245 H273 0.929 . S
C246 C245 1.395 . S
C246 C247 1.335 . S
C247 C246 1.335 . S
C247 C248 1.398 . S
C247 H274 0.930 . S
C248 C243 1.382 . S
C248 C247 1.398 . S
C248 H275 0.929 . S
C249 O262 1.271 . S
C249 O263 1.251 . S
C250 O264 1.252 . S
C250 O265 1.272 . S
C251 Sm241 2.846 1_556 S
C251 C252 1.506 . S
C251 O266 1.261 . S
C251 O267 1.242 . S
C252 C251 1.506 . S
C252 C253 1.358 . S
C252 C257 1.382 . S
C253 C252 1.358 . S
C253 C254 1.385 . S
C253 H276 0.930 . S
C254 C253 1.385 . S
C254 C255 1.395 . S
C254 H277 0.929 . S
C255 C254 1.395 . S
C255 C256 1.335 . S
C256 C255 1.335 . S
C256 C257 1.398 . S
C256 H278 0.930 . S
C257 C252 1.382 . S
C257 C256 1.398 . S
C257 H279 0.929 . S
C258 O268 1.271 . S
C258 O269 1.251 . S
C259 O270 1.252 . S
C259 O271 1.272 . S
O260 Sm240 2.543 1_554 S
O260 C242 1.261 . S
O261 Sm240 2.450 1_554 S
O261 C242 1.242 . S
O262 Sm240 2.681 . S
O262 Sm241 2.386 1_556 S
O262 C249 1.271 . S
O263 Sm240 2.464 . S
O263 C249 1.251 . S
O264 Sm240 2.396 1_554 S
O264 C250 1.252 . S
O265 Sm241 2.408 . S
O265 C250 1.272 . S
O266 Sm241 2.543 1_556 S
O266 C251 1.261 . S
O267 Sm241 2.450 1_556 S
O267 C251 1.242 . S
O268 Sm240 2.386 1_554 S
O268 Sm241 2.681 . S
O268 C258 1.271 . S
O269 Sm241 2.464 . S
O269 C258 1.251 . S
O270 Sm241 2.396 1_556 S
O270 C259 1.252 . S
O271 Sm240 2.408 . S
O271 C259 1.272 . S
H272 C244 0.930 . S
H273 C245 0.929 . S
H274 C247 0.930 . S
H275 C248 0.929 . S
H276 C253 0.930 . S
H277 C254 0.929 . S
H278 C256 0.930 . S
H279 C257 0.929 . S
Sm280 C282 2.846 1_556 S
Sm280 O300 2.543 1_556 S
Sm280 O301 2.450 1_556 S
Sm280 O302 2.681 . S
Sm280 O303 2.464 . S
Sm280 O304 2.396 1_556 S
Sm280 O308 2.386 1_556 S
Sm280 O311 2.408 . S
Sm281 C291 2.846 1_554 S
Sm281 O302 2.386 1_554 S
Sm281 O305 2.408 . S
Sm281 O306 2.543 1_554 S
Sm281 O307 2.450 1_554 S
Sm281 O308 2.681 . S
Sm281 O309 2.464 . S
Sm281 O310 2.396 1_554 S
C282 Sm280 2.846 1_554 S
C282 C283 1.506 . S
C282 O300 1.261 . S
C282 O301 1.242 . S
C283 C282 1.506 . S
C283 C284 1.358 . S
C283 C288 1.382 . S
C284 C283 1.358 . S
C284 C285 1.385 . S
C284 H312 0.930 . S
C285 C284 1.385 . S
C285 C286 1.395 . S
C285 H313 0.929 . S
C286 C285 1.395 . S
C286 C287 1.335 . S
C287 C286 1.335 . S
C287 C288 1.398 . S
C287 H314 0.930 . S
C288 C283 1.382 . S
C288 C287 1.398 . S
C288 H315 0.929 . S
C289 O302 1.271 . S
C289 O303 1.251 . S
C290 O304 1.252 . S
C290 O305 1.272 . S
C291 Sm281 2.846 1_556 S
C291 C292 1.506 . S
C291 O306 1.261 . S
C291 O307 1.242 . S
C292 C291 1.506 . S
C292 C293 1.358 . S
C292 C297 1.382 . S
C293 C292 1.358 . S
C293 C294 1.385 . S
C293 H316 0.930 . S
C294 C293 1.385 . S
C294 C295 1.395 . S
C294 H317 0.929 . S
C295 C294 1.395 . S
C295 C296 1.335 . S
C296 C295 1.335 . S
C296 C297 1.398 . S
C296 H318 0.930 . S
C297 C292 1.382 . S
C297 C296 1.398 . S
C297 H319 0.929 . S
C298 O308 1.271 . S
C298 O309 1.251 . S
C299 O310 1.252 . S
C299 O311 1.272 . S
O300 Sm280 2.543 1_554 S
O300 C282 1.261 . S
O301 Sm280 2.450 1_554 S
O301 C282 1.242 . S
O302 Sm280 2.681 . S
O302 Sm281 2.386 1_556 S
O302 C289 1.271 . S
O303 Sm280 2.464 . S
O303 C289 1.251 . S
O304 Sm280 2.396 1_554 S
O304 C290 1.252 . S
O305 Sm281 2.408 . S
O305 C290 1.272 . S
O306 Sm281 2.543 1_556 S
O306 C291 1.261 . S
O307 Sm281 2.450 1_556 S
O307 C291 1.242 . S
O308 Sm280 2.386 1_554 S
O308 Sm281 2.681 . S
O308 C298 1.271 . S
O309 Sm281 2.464 . S
O309 C298 1.251 . S
O310 Sm281 2.396 1_556 S
O310 C299 1.252 . S
O311 Sm280 2.408 . S
O311 C299 1.272 . S
H312 C284 0.930 . S
H313 C285 0.929 . S
H314 C287 0.930 . S
H315 C288 0.929 . S
H316 C293 0.930 . S
H317 C294 0.929 . S
H318 C296 0.930 . S
H319 C297 0.929 . S
H320 C332 0.930 . S
H321 C334 0.930 . S
H322 C335 0.930 . S
H323 C339 0.959 . S
H324 C339 0.959 . S
H325 C339 0.961 . S
H326 C340 0.960 . S
H327 C340 0.961 . S
H328 C340 0.959 . S
H329 C343 0.929 . S
H330 C344 0.931 . S
H331 C346 0.930 . S
C332 H320 0.930 . S
C332 C333 1.399 . S
C332 C337 1.399 . S
C333 C332 1.399 . S
C333 C334 1.376 . S
C334 H321 0.930 . S
C334 C333 1.376 . S
C334 C335 1.388 . S
C335 H322 0.930 . S
C335 C334 1.388 . S
C335 C336 1.390 . S
C336 C335 1.390 . S
C336 C337 1.394 . S
C336 C342 1.465 . S
C337 C332 1.399 . S
C337 C336 1.394 . S
C337 C338 1.516 . S
C338 C337 1.516 . S
C338 C339 1.502 . S
C338 C340 1.561 . S
C338 C341 1.526 . S
C339 H323 0.959 . S
C339 H324 0.959 . S
C339 H325 0.961 . S
C339 C338 1.502 . S
C340 H326 0.960 . S
C340 H327 0.961 . S
C340 H328 0.959 . S
C340 C338 1.561 . S
C341 C338 1.526 . S
C341 C342 1.396 . S
C341 C346 1.390 . S
C342 C336 1.465 . S
C342 C341 1.396 . S
C342 C343 1.399 . S
C343 H329 0.929 . S
C343 C342 1.399 . S
C343 C344 1.385 . S
C344 H330 0.931 . S
C344 C343 1.385 . S
C344 C345 1.389 . S
C345 C344 1.389 . S
C345 C346 1.387 . S
C346 H331 0.930 . S
C346 C341 1.390 . S
C346 C345 1.387 . S
H347 C359 0.930 . S
H348 C361 0.930 . S
H349 C362 0.930 . S
H350 C366 0.959 . S
H351 C366 0.959 . S
H352 C366 0.961 . S
H353 C367 0.960 . S
H354 C367 0.961 . S
H355 C367 0.959 . S
H356 C370 0.929 . S
H357 C371 0.931 . S
H358 C373 0.930 . S
C359 H347 0.930 . S
C359 C360 1.399 . S
C359 C364 1.399 . S
C360 C359 1.399 . S
C360 C361 1.376 . S
C361 H348 0.930 . S
C361 C360 1.376 . S
C361 C362 1.388 . S
C362 H349 0.930 . S
C362 C361 1.388 . S
C362 C363 1.390 . S
C363 C362 1.390 . S
C363 C364 1.394 . S
C363 C369 1.465 . S
C364 C359 1.399 . S
C364 C363 1.394 . S
C364 C365 1.516 . S
C365 C364 1.516 . S
C365 C366 1.502 . S
C365 C367 1.561 . S
C365 C368 1.526 . S
C366 H350 0.959 . S
C366 H351 0.959 . S
C366 H352 0.961 . S
C366 C365 1.502 . S
C367 H353 0.960 . S
C367 H354 0.961 . S
C367 H355 0.959 . S
C367 C365 1.561 . S
C368 C365 1.526 . S
C368 C369 1.396 . S
C368 C373 1.390 . S
C369 C363 1.465 . S
C369 C368 1.396 . S
C369 C370 1.399 . S
C370 H356 0.929 . S
C370 C369 1.399 . S
C370 C371 1.385 . S
C371 H357 0.931 . S
C371 C370 1.385 . S
C371 C372 1.389 . S
C372 C371 1.389 . S
C372 C373 1.387 . S
C373 H358 0.930 . S
C373 C368 1.390 . S
C373 C372 1.387 . S
H374 C386 0.930 . S
H375 C388 0.930 . S
H376 C389 0.930 . S
H377 C393 0.959 . S
H378 C393 0.959 . S
H379 C393 0.961 . S
H380 C394 0.960 . S
H381 C394 0.961 . S
H382 C394 0.959 . S
H383 C397 0.929 . S
H384 C398 0.931 . S
H385 C400 0.930 . S
C386 H374 0.930 . S
C386 C387 1.399 . S
C386 C391 1.399 . S
C387 C386 1.399 . S
C387 C388 1.376 . S
C388 H375 0.930 . S
C388 C387 1.376 . S
C388 C389 1.388 . S
C389 H376 0.930 . S
C389 C388 1.388 . S
C389 C390 1.390 . S
C390 C389 1.390 . S
C390 C391 1.394 . S
C390 C396 1.465 . S
C391 C386 1.399 . S
C391 C390 1.394 . S
C391 C392 1.516 . S
C392 C391 1.516 . S
C392 C393 1.502 . S
C392 C394 1.561 . S
C392 C395 1.526 . S
C393 H377 0.959 . S
C393 H378 0.959 . S
C393 H379 0.961 . S
C393 C392 1.502 . S
C394 H380 0.960 . S
C394 H381 0.961 . S
C394 H382 0.959 . S
C394 C392 1.561 . S
C395 C392 1.526 . S
C395 C396 1.396 . S
C395 C400 1.390 . S
C396 C390 1.465 . S
C396 C395 1.396 . S
C396 C397 1.399 . S
C397 H383 0.929 . S
C397 C396 1.399 . S
C397 C398 1.385 . S
C398 H384 0.931 . S
C398 C397 1.385 . S
C398 C399 1.389 . S
C399 C398 1.389 . S
C399 C400 1.387 . S
C400 H385 0.930 . S
C400 C395 1.390 . S
C400 C399 1.387 . S
H401 C413 0.930 . S
H402 C415 0.930 . S
H403 C416 0.930 . S
H404 C420 0.959 . S
H405 C420 0.959 . S
H406 C420 0.961 . S
H407 C421 0.960 . S
H408 C421 0.961 . S
H409 C421 0.959 . S
H410 C424 0.929 . S
H411 C425 0.931 . S
H412 C427 0.930 . S
C413 H401 0.930 . S
C413 C414 1.399 . S
C413 C418 1.399 . S
C414 C413 1.399 . S
C414 C415 1.376 . S
C415 H402 0.930 . S
C415 C414 1.376 . S
C415 C416 1.388 . S
C416 H403 0.930 . S
C416 C415 1.388 . S
C416 C417 1.390 . S
C417 C416 1.390 . S
C417 C418 1.394 . S
C417 C423 1.465 . S
C418 C413 1.399 . S
C418 C417 1.394 . S
C418 C419 1.516 . S
C419 C418 1.516 . S
C419 C420 1.502 . S
C419 C421 1.561 . S
C419 C422 1.526 . S
C420 H404 0.959 . S
C420 H405 0.959 . S
C420 H406 0.961 . S
C420 C419 1.502 . S
C421 H407 0.960 . S
C421 H408 0.961 . S
C421 H409 0.959 . S
C421 C419 1.561 . S
C422 C419 1.526 . S
C422 C423 1.396 . S
C422 C427 1.390 . S
C423 C417 1.465 . S
C423 C422 1.396 . S
C423 C424 1.399 . S
C424 H410 0.929 . S
C424 C423 1.399 . S
C424 C425 1.385 . S
C425 H411 0.931 . S
C425 C424 1.385 . S
C425 C426 1.389 . S
C426 C425 1.389 . S
C426 C427 1.387 . S
C427 H412 0.930 . S
C427 C422 1.390 . S
C427 C426 1.387 . S
H428 C440 0.930 . S
H429 C442 0.930 . S
H430 C443 0.930 . S
H431 C447 0.959 . S
H432 C447 0.959 1_545 S
H433 C447 0.961 . S
H434 C448 0.960 1_565 S
H435 C448 0.961 . S
H436 C448 0.959 . S
H437 C451 0.929 . S
H438 C452 0.931 . S
H439 C454 0.930 . S
C440 H428 0.930 . S
C440 C441 1.399 . S
C440 C445 1.399 . S
C441 C440 1.399 . S
C441 C442 1.376 . S
C442 H429 0.930 . S
C442 C441 1.376 . S
C442 C443 1.388 . S
C443 H430 0.930 . S
C443 C442 1.388 . S
C443 C444 1.390 . S
C444 C443 1.390 . S
C444 C445 1.394 . S
C444 C450 1.465 1_565 S
C445 C440 1.399 . S
C445 C444 1.394 . S
C445 C446 1.516 1_565 S
C446 C445 1.516 1_545 S
C446 C447 1.502 1_545 S
C446 C448 1.561 . S
C446 C449 1.526 . S
C447 H431 0.959 . S
C447 H432 0.959 1_565 S
C447 H433 0.961 . S
C447 C446 1.502 1_565 S
C448 H434 0.960 1_545 S
C448 H435 0.961 . S
C448 H436 0.959 . S
C448 C446 1.561 . S
C449 C446 1.526 . S
C449 C450 1.396 . S
C449 C454 1.390 . S
C450 C444 1.465 1_545 S
C450 C449 1.396 . S
C450 C451 1.399 . S
C451 H437 0.929 . S
C451 C450 1.399 . S
C451 C452 1.385 . S
C452 H438 0.931 . S
C452 C451 1.385 . S
C452 C453 1.389 . S
C453 C452 1.389 . S
C453 C454 1.387 . S
C454 H439 0.930 . S
C454 C449 1.390 . S
C454 C453 1.387 . S
H455 C467 0.930 . S
H456 C469 0.930 . S
H457 C470 0.930 . S
H458 C474 0.959 . S
H459 C474 0.959 . S
H460 C474 0.961 . S
H461 C475 0.960 . S
H462 C475 0.961 . S
H463 C475 0.959 . S
H464 C478 0.929 . S
H465 C479 0.931 . S
H466 C481 0.930 . S
C467 H455 0.930 . S
C467 C468 1.399 . S
C467 C472 1.399 . S
C468 C467 1.399 . S
C468 C469 1.376 . S
C469 H456 0.930 . S
C469 C468 1.376 . S
C469 C470 1.388 . S
C470 H457 0.930 . S
C470 C469 1.388 . S
C470 C471 1.390 . S
C471 C470 1.390 . S
C471 C472 1.394 . S
C471 C477 1.465 . S
C472 C467 1.399 . S
C472 C471 1.394 . S
C472 C473 1.516 . S
C473 C472 1.516 . S
C473 C474 1.502 . S
C473 C475 1.561 . S
C473 C476 1.526 . S
C474 H458 0.959 . S
C474 H459 0.959 . S
C474 H460 0.961 . S
C474 C473 1.502 . S
C475 H461 0.960 . S
C475 H462 0.961 . S
C475 H463 0.959 . S
C475 C473 1.561 . S
C476 C473 1.526 . S
C476 C477 1.396 . S
C476 C481 1.390 . S
C477 C471 1.465 . S
C477 C476 1.396 . S
C477 C478 1.399 . S
C478 H464 0.929 . S
C478 C477 1.399 . S
C478 C479 1.385 . S
C479 H465 0.931 . S
C479 C478 1.385 . S
C479 C480 1.389 . S
C480 C479 1.389 . S
C480 C481 1.387 . S
C481 H466 0.930 . S
C481 C476 1.390 . S
C481 C480 1.387 . S
H482 C494 0.930 . S
H483 C496 0.930 . S
H484 C497 0.930 . S
H485 C501 0.959 . S
H486 C501 0.959 . S
H487 C501 0.961 . S
H488 C502 0.960 1_565 S
H489 C502 0.961 . S
H490 C502 0.959 . S
H491 C505 0.929 . S
H492 C506 0.931 . S
H493 C508 0.930 . S
C494 H482 0.930 . S
C494 C495 1.399 . S
C494 C499 1.399 . S
C495 C494 1.399 . S
C495 C496 1.376 . S
C496 H483 0.930 . S
C496 C495 1.376 . S
C496 C497 1.388 . S
C497 H484 0.930 . S
C497 C496 1.388 . S
C497 C498 1.390 . S
C498 C497 1.390 . S
C498 C499 1.394 . S
C498 C504 1.465 1_565 S
C499 C494 1.399 . S
C499 C498 1.394 . S
C499 C500 1.516 1_565 S
C500 C499 1.516 1_545 S
C500 C501 1.502 . S
C500 C502 1.561 . S
C500 C503 1.526 . S
C501 H485 0.959 . S
C501 H486 0.959 . S
C501 H487 0.961 . S
C501 C500 1.502 . S
C502 H488 0.960 1_545 S
C502 H489 0.961 . S
C502 H490 0.959 . S
C502 C500 1.561 . S
C503 C500 1.526 . S
C503 C504 1.396 . S
C503 C508 1.390 . S
C504 C498 1.465 1_545 S
C504 C503 1.396 . S
C504 C505 1.399 . S
C505 H491 0.929 . S
C505 C504 1.399 . S
C505 C506 1.385 . S
C506 H492 0.931 . S
C506 C505 1.385 . S
C506 C507 1.389 . S
C507 C506 1.389 . S
C507 C508 1.387 . S
C508 H493 0.930 . S
C508 C503 1.390 . S
C508 C507 1.387 . S
H509 C521 0.930 . S
H510 C523 0.930 . S
H511 C524 0.930 . S
H512 C528 0.959 . S
H513 C528 0.959 . S
H514 C528 0.961 . S
H515 C529 0.960 . S
H516 C529 0.961 . S
H517 C529 0.959 . S
H518 C532 0.929 . S
H519 C533 0.931 . S
H520 C535 0.930 . S
C521 H509 0.930 . S
C521 C522 1.399 . S
C521 C526 1.399 . S
C522 C521 1.399 . S
C522 C523 1.376 . S
C523 H510 0.930 . S
C523 C522 1.376 . S
C523 C524 1.388 . S
C524 H511 0.930 . S
C524 C523 1.388 . S
C524 C525 1.390 . S
C525 C524 1.390 . S
C525 C526 1.394 . S
C525 C531 1.465 . S
C526 C521 1.399 . S
C526 C525 1.394 . S
C526 C527 1.516 . S
C527 C526 1.516 . S
C527 C528 1.502 . S
C527 C529 1.561 . S
C527 C530 1.526 . S
C528 H512 0.959 . S
C528 H513 0.959 . S
C528 H514 0.961 . S
C528 C527 1.502 . S
C529 H515 0.960 . S
C529 H516 0.961 . S
C529 H517 0.959 . S
C529 C527 1.561 . S
C530 C527 1.526 . S
C530 C531 1.396 . S
C530 C535 1.390 . S
C531 C525 1.465 . S
C531 C530 1.396 . S
C531 C532 1.399 . S
C532 H518 0.929 . S
C532 C531 1.399 . S
C532 C533 1.385 . S
C533 H519 0.931 . S
C533 C532 1.385 . S
C533 C534 1.389 . S
C534 C533 1.389 . S
C534 C535 1.387 . S
C535 H520 0.930 . S
C535 C530 1.390 . S
C535 C534 1.387 . S
H536 C548 0.930 . S
H537 C550 0.930 . S
H538 C551 0.930 . S
H539 C555 0.959 . S
H540 C555 0.959 . S
H541 C555 0.961 . S
H542 C556 0.960 . S
H543 C556 0.961 . S
H544 C556 0.959 . S
H545 C559 0.929 . S
H546 C560 0.931 . S
H547 C562 0.930 . S
C548 H536 0.930 . S
C548 C549 1.399 1_556 S
C548 C553 1.399 . S
C549 C548 1.399 1_554 S
C549 C550 1.376 . S
C550 H537 0.930 . S
C550 C549 1.376 . S
C550 C551 1.388 . S
C551 H538 0.930 . S
C551 C550 1.388 . S
C551 C552 1.390 . S
C552 C551 1.390 . S
C552 C553 1.394 1_554 S
C552 C558 1.465 . S
C553 C548 1.399 . S
C553 C552 1.394 1_556 S
C553 C554 1.516 . S
C554 C553 1.516 . S
C554 C555 1.502 . S
C554 C556 1.561 . S
C554 C557 1.526 . S
C555 H539 0.959 . S
C555 H540 0.959 . S
C555 H541 0.961 . S
C555 C554 1.502 . S
C556 H542 0.960 . S
C556 H543 0.961 . S
C556 H544 0.959 . S
C556 C554 1.561 . S
C557 C554 1.526 . S
C557 C558 1.396 1_556 S
C557 C562 1.390 . S
C558 C552 1.465 . S
C558 C557 1.396 1_554 S
C558 C559 1.399 . S
C559 H545 0.929 . S
C559 C558 1.399 . S
C559 C560 1.385 . S
C560 H546 0.931 . S
C560 C559 1.385 . S
C560 C561 1.389 . S
C561 C560 1.389 . S
C561 C562 1.387 1_554 S
C562 H547 0.930 . S
C562 C557 1.390 . S
C562 C561 1.387 1_556 S
H563 C575 0.930 . S
H564 C577 0.930 . S
H565 C578 0.930 . S
H566 C582 0.959 . S
H567 C582 0.959 1_545 S
H568 C582 0.961 . S
H569 C583 0.960 1_565 S
H570 C583 0.961 . S
H571 C583 0.959 . S
H572 C586 0.929 . S
H573 C587 0.931 . S
H574 C589 0.930 . S
C575 H563 0.930 . S
C575 C576 1.399 1_556 S
C575 C580 1.399 . S
C576 C575 1.399 1_554 S
C576 C577 1.376 . S
C577 H564 0.930 . S
C577 C576 1.376 . S
C577 C578 1.388 . S
C578 H565 0.930 . S
C578 C577 1.388 . S
C578 C579 1.390 . S
C579 C578 1.390 . S
C579 C580 1.394 1_554 S
C579 C585 1.465 1_565 S
C580 C575 1.399 . S
C580 C579 1.394 1_556 S
C580 C581 1.516 1_565 S
C581 C580 1.516 1_545 S
C581 C582 1.502 1_545 S
C581 C583 1.561 . S
C581 C584 1.526 . S
C582 H566 0.959 . S
C582 H567 0.959 1_565 S
C582 H568 0.961 . S
C582 C581 1.502 1_565 S
C583 H569 0.960 1_545 S
C583 H570 0.961 . S
C583 H571 0.959 . S
C583 C581 1.561 . S
C584 C581 1.526 . S
C584 C585 1.396 1_556 S
C584 C589 1.390 . S
C585 C579 1.465 1_545 S
C585 C584 1.396 1_554 S
C585 C586 1.399 . S
C586 H572 0.929 . S
C586 C585 1.399 . S
C586 C587 1.385 . S
C587 H573 0.931 . S
C587 C586 1.385 . S
C587 C588 1.389 . S
C588 C587 1.389 . S
C588 C589 1.387 1_554 S
C589 H574 0.930 . S
C589 C584 1.390 . S
C589 C588 1.387 1_556 S
H590 C602 0.930 . S
H591 C604 0.930 . S
H592 C605 0.930 . S
H593 C609 0.959 . S
H594 C609 0.959 . S
H595 C609 0.961 . S
H596 C610 0.960 . S
H597 C610 0.961 . S
H598 C610 0.959 . S
H599 C613 0.929 . S
H600 C614 0.931 . S
H601 C616 0.930 . S
C602 H590 0.930 . S
C602 C603 1.399 1_556 S
C602 C607 1.399 . S
C603 C602 1.399 1_554 S
C603 C604 1.376 . S
C604 H591 0.930 . S
C604 C603 1.376 . S
C604 C605 1.388 . S
C605 H592 0.930 . S
C605 C604 1.388 . S
C605 C606 1.390 . S
C606 C605 1.390 . S
C606 C607 1.394 1_554 S
C606 C612 1.465 . S
C607 C602 1.399 . S
C607 C606 1.394 1_556 S
C607 C608 1.516 . S
C608 C607 1.516 . S
C608 C609 1.502 . S
C608 C610 1.561 . S
C608 C611 1.526 . S
C609 H593 0.959 . S
C609 H594 0.959 . S
C609 H595 0.961 . S
C609 C608 1.502 . S
C610 H596 0.960 . S
C610 H597 0.961 . S
C610 H598 0.959 . S
C610 C608 1.561 . S
C611 C608 1.526 . S
C611 C612 1.396 1_556 S
C611 C616 1.390 . S
C612 C606 1.465 . S
C612 C611 1.396 1_554 S
C612 C613 1.399 . S
C613 H599 0.929 . S
C613 C612 1.399 . S
C613 C614 1.385 . S
C614 H600 0.931 . S
C614 C613 1.385 . S
C614 C615 1.389 . S
C615 C614 1.389 . S
C615 C616 1.387 1_554 S
C616 H601 0.930 . S
C616 C611 1.390 . S
C616 C615 1.387 1_556 S
H617 C629 0.930 . S
H618 C631 0.930 . S
H619 C632 0.930 . S
H620 C636 0.959 . S
H621 C636 0.959 . S
H622 C636 0.961 1_545 S
H623 C637 0.959 . S
H624 C637 0.962 1_565 S
H625 C637 0.959 . S
H626 C640 0.929 . S
H627 C641 0.931 . S
H628 C643 0.930 . S
C629 H617 0.930 . S
C629 C630 1.399 1_554 S
C629 C634 1.399 . S
C630 C629 1.399 1_556 S
C630 C631 1.376 . S
C631 H618 0.930 . S
C631 C630 1.376 . S
C631 C632 1.388 . S
C632 H619 0.930 . S
C632 C631 1.388 . S
C632 C633 1.390 . S
C633 C632 1.390 . S
C633 C634 1.394 1_556 S
C633 C639 1.465 1_545 S
C634 C629 1.399 . S
C634 C633 1.394 1_554 S
C634 C635 1.516 1_545 S
C635 C634 1.516 1_565 S
C635 C636 1.502 . S
C635 C637 1.561 1_565 S
C635 C638 1.526 . S
C636 H620 0.959 . S
C636 H621 0.959 . S
C636 H622 0.961 1_565 S
C636 C635 1.502 . S
C637 H623 0.959 . S
C637 H624 0.962 1_545 S
C637 H625 0.959 . S
C637 C635 1.561 1_545 S
C638 C635 1.526 . S
C638 C639 1.396 1_554 S
C638 C643 1.390 . S
C639 C633 1.465 1_565 S
C639 C638 1.396 1_556 S
C639 C640 1.399 . S
C640 H626 0.929 . S
C640 C639 1.399 . S
C640 C641 1.385 . S
C641 H627 0.931 . S
C641 C640 1.385 . S
C641 C642 1.389 . S
C642 C641 1.389 . S
C642 C643 1.387 1_556 S
C643 H628 0.930 . S
C643 C638 1.390 . S
C643 C642 1.387 1_554 S
H644 C656 0.930 . S
H645 C658 0.930 . S
H646 C659 0.930 . S
H647 C663 0.959 . S
H648 C663 0.959 . S
H649 C663 0.961 . S
H650 C664 0.960 . S
H651 C664 0.961 . S
H652 C664 0.959 . S
H653 C667 0.929 . S
H654 C668 0.931 . S
H655 C670 0.930 . S
C656 H644 0.930 . S
C656 C657 1.399 . S
C656 C661 1.399 . S
C657 C656 1.399 . S
C657 C658 1.376 . S
C658 H645 0.930 . S
C658 C657 1.376 . S
C658 C659 1.388 . S
C659 H646 0.930 . S
C659 C658 1.388 . S
C659 C660 1.390 1_554 S
C660 C659 1.390 1_556 S
C660 C661 1.394 1_556 S
C660 C666 1.465 . S
C661 C656 1.399 . S
C661 C660 1.394 1_554 S
C661 C662 1.516 1_554 S
C662 C661 1.516 1_556 S
C662 C663 1.502 . S
C662 C664 1.561 . S
C662 C665 1.526 . S
C663 H647 0.959 . S
C663 H648 0.959 . S
C663 H649 0.961 . S
C663 C662 1.502 . S
C664 H650 0.960 . S
C664 H651 0.961 . S
C664 H652 0.959 . S
C664 C662 1.561 . S
C665 C662 1.526 . S
C665 C666 1.396 . S
C665 C670 1.390 . S
C666 C660 1.465 . S
C666 C665 1.396 . S
C666 C667 1.399 . S
C667 H653 0.929 . S
C667 C666 1.399 . S
C667 C668 1.385 . S
C668 H654 0.931 . S
C668 C667 1.385 . S
C668 C669 1.389 . S
C669 C668 1.389 . S
C669 C670 1.387 . S
C670 H655 0.930 . S
C670 C665 1.390 . S
C670 C669 1.387 . S
H671 C683 0.930 . S
H672 C685 0.930 . S
H673 C686 0.930 . S
H674 C690 0.959 . S
H675 C690 0.959 . S
H676 C690 0.961 . S
H677 C691 0.960 . S
H678 C691 0.961 . S
H679 C691 0.959 . S
H680 C694 0.929 . S
H681 C695 0.931 . S
H682 C697 0.930 . S
C683 H671 0.930 . S
C683 C684 1.399 . S
C683 C688 1.399 . S
C684 C683 1.399 . S
C684 C685 1.376 . S
C685 H672 0.930 . S
C685 C684 1.376 . S
C685 C686 1.388 . S
C686 H673 0.930 . S
C686 C685 1.388 . S
C686 C687 1.390 1_554 S
C687 C686 1.390 1_556 S
C687 C688 1.394 1_556 S
C687 C693 1.465 . S
C688 C683 1.399 . S
C688 C687 1.394 1_554 S
C688 C689 1.516 1_554 S
C689 C688 1.516 1_556 S
C689 C690 1.502 . S
C689 C691 1.561 . S
C689 C692 1.526 . S
C690 H674 0.959 . S
C690 H675 0.959 . S
C690 H676 0.961 . S
C690 C689 1.502 . S
C691 H677 0.960 . S
C691 H678 0.961 . S
C691 H679 0.959 . S
C691 C689 1.561 . S
C692 C689 1.526 . S
C692 C693 1.396 . S
C692 C697 1.390 . S
C693 C687 1.465 . S
C693 C692 1.396 . S
C693 C694 1.399 . S
C694 H680 0.929 . S
C694 C693 1.399 . S
C694 C695 1.385 . S
C695 H681 0.931 . S
C695 C694 1.385 . S
C695 C696 1.389 . S
C696 C695 1.389 . S
C696 C697 1.387 . S
C697 H682 0.930 . S
C697 C692 1.390 . S
C697 C696 1.387 . S
H698 C710 0.930 . S
H699 C712 0.930 . S
H700 C713 0.930 . S
H701 C717 0.959 . S
H702 C717 0.959 . S
H703 C717 0.961 . S
H704 C718 0.960 . S
H705 C718 0.961 . S
H706 C718 0.959 . S
H707 C721 0.929 . S
H708 C722 0.931 . S
H709 C724 0.930 . S
C710 H698 0.930 . S
C710 C711 1.399 . S
C710 C715 1.399 . S
C711 C710 1.399 . S
C711 C712 1.376 . S
C712 H699 0.930 . S
C712 C711 1.376 . S
C712 C713 1.388 . S
C713 H700 0.930 . S
C713 C712 1.388 . S
C713 C714 1.390 . S
C714 C713 1.390 . S
C714 C715 1.394 . S
C714 C720 1.465 . S
C715 C710 1.399 . S
C715 C714 1.394 . S
C715 C716 1.516 . S
C716 C715 1.516 . S
C716 C717 1.502 . S
C716 C718 1.561 . S
C716 C719 1.526 1_554 S
C717 H701 0.959 . S
C717 H702 0.959 . S
C717 H703 0.961 . S
C717 C716 1.502 . S
C718 H704 0.960 . S
C718 H705 0.961 . S
C718 H706 0.959 . S
C718 C716 1.561 . S
C719 C716 1.526 1_556 S
C719 C720 1.396 1_556 S
C719 C724 1.390 . S
C720 C714 1.465 . S
C720 C719 1.396 1_554 S
C720 C721 1.399 1_554 S
C721 H707 0.929 . S
C721 C720 1.399 1_556 S
C721 C722 1.385 . S
C722 H708 0.931 . S
C722 C721 1.385 . S
C722 C723 1.389 . S
C723 C722 1.389 . S
C723 C724 1.387 . S
C724 H709 0.930 . S
C724 C719 1.390 . S
C724 C723 1.387 . S
H725 C737 0.930 . S
H726 C739 0.930 . S
H727 C740 0.930 . S
H728 C744 0.959 . S
H729 C744 0.959 . S
H730 C744 0.961 . S
H731 C745 0.960 . S
H732 C745 0.961 . S
H733 C745 0.959 . S
H734 C748 0.929 . S
H735 C749 0.931 . S
H736 C751 0.930 . S
C737 H725 0.930 . S
C737 C738 1.399 . S
C737 C742 1.399 . S
C738 C737 1.399 . S
C738 C739 1.376 . S
C739 H726 0.930 . S
C739 C738 1.376 . S
C739 C740 1.388 . S
C740 H727 0.930 . S
C740 C739 1.388 . S
C740 C741 1.390 1_556 S
C741 C740 1.390 1_554 S
C741 C742 1.394 1_554 S
C741 C747 1.465 . S
C742 C737 1.399 . S
C742 C741 1.394 1_556 S
C742 C743 1.516 1_556 S
C743 C742 1.516 1_554 S
C743 C744 1.502 . S
C743 C745 1.561 . S
C743 C746 1.526 . S
C744 H728 0.959 . S
C744 H729 0.959 . S
C744 H730 0.961 . S
C744 C743 1.502 . S
C745 H731 0.960 . S
C745 H732 0.961 . S
C745 H733 0.959 . S
C745 C743 1.561 . S
C746 C743 1.526 . S
C746 C747 1.396 . S
C746 C751 1.390 . S
C747 C741 1.465 . S
C747 C746 1.396 . S
C747 C748 1.399 . S
C748 H734 0.929 . S
C748 C747 1.399 . S
C748 C749 1.385 . S
C749 H735 0.931 . S
C749 C748 1.385 . S
C749 C750 1.389 . S
C750 C749 1.389 . S
C750 C751 1.387 . S
C751 H736 0.930 . S
C751 C746 1.390 . S
C751 C750 1.387 . S
H752 C764 0.930 . S
H753 C766 0.930 . S
H754 C767 0.930 . S
H755 C771 0.959 . S
H756 C771 0.959 . S
H757 C771 0.961 . S
H758 C772 0.960 . S
H759 C772 0.961 . S
H760 C772 0.959 . S
H761 C775 0.929 . S
H762 C776 0.931 . S
H763 C778 0.930 . S
C764 H752 0.930 . S
C764 C765 1.399 . S
C764 C769 1.399 . S
C765 C764 1.399 . S
C765 C766 1.376 . S
C766 H753 0.930 . S
C766 C765 1.376 . S
C766 C767 1.388 . S
C767 H754 0.930 . S
C767 C766 1.388 . S
C767 C768 1.390 . S
C768 C767 1.390 . S
C768 C769 1.394 . S
C768 C774 1.465 . S
C769 C764 1.399 . S
C769 C768 1.394 . S
C769 C770 1.516 . S
C770 C769 1.516 . S
C770 C771 1.502 . S
C770 C772 1.561 . S
C770 C773 1.526 . S
C771 H755 0.959 . S
C771 H756 0.959 . S
C771 H757 0.961 . S
C771 C770 1.502 . S
C772 H758 0.960 . S
C772 H759 0.961 . S
C772 H760 0.959 . S
C772 C770 1.561 . S
C773 C770 1.526 . S
C773 C774 1.396 . S
C773 C778 1.390 . S
C774 C768 1.465 . S
C774 C773 1.396 . S
C774 C775 1.399 . S
C775 H761 0.929 . S
C775 C774 1.399 . S
C775 C776 1.385 . S
C776 H762 0.931 . S
C776 C775 1.385 . S
C776 C777 1.389 . S
C777 C776 1.389 . S
C777 C778 1.387 . S
C778 H763 0.930 . S
C778 C773 1.390 . S
C778 C777 1.387 . S
H779 C791 0.930 . S
H780 C793 0.930 . S
H781 C794 0.930 . S
H782 C798 0.959 . S
H783 C798 0.959 . S
H784 C798 0.961 . S
H785 C799 0.960 . S
H786 C799 0.961 . S
H787 C799 0.959 . S
H788 C802 0.929 . S
H789 C803 0.931 . S
H790 C805 0.930 . S
C791 H779 0.930 . S
C791 C792 1.399 . S
C791 C796 1.399 . S
C792 C791 1.399 . S
C792 C793 1.376 . S
C793 H780 0.930 . S
C793 C792 1.376 . S
C793 C794 1.388 . S
C794 H781 0.930 . S
C794 C793 1.388 . S
C794 C795 1.390 . S
C795 C794 1.390 . S
C795 C796 1.394 . S
C795 C801 1.465 . S
C796 C791 1.399 . S
C796 C795 1.394 . S
C796 C797 1.516 . S
C797 C796 1.516 . S
C797 C798 1.502 . S
C797 C799 1.561 . S
C797 C800 1.526 . S
C798 H782 0.959 . S
C798 H783 0.959 . S
C798 H784 0.961 . S
C798 C797 1.502 . S
C799 H785 0.960 . S
C799 H786 0.961 . S
C799 H787 0.959 . S
C799 C797 1.561 . S
C800 C797 1.526 . S
C800 C801 1.396 . S
C800 C805 1.390 . S
C801 C795 1.465 . S
C801 C800 1.396 . S
C801 C802 1.399 . S
C802 H788 0.929 . S
C802 C801 1.399 . S
C802 C803 1.385 . S
C803 H789 0.931 . S
C803 C802 1.385 . S
C803 C804 1.389 . S
C804 C803 1.389 . S
C804 C805 1.387 . S
C805 H790 0.930 . S
C805 C800 1.390 . S
C805 C804 1.387 . S
H806 C818 0.930 . S
H807 C820 0.930 . S
H808 C821 0.930 . S
H809 C825 0.959 . S
H810 C825 0.959 . S
H811 C825 0.961 . S
H812 C826 0.960 . S
H813 C826 0.961 . S
H814 C826 0.959 . S
H815 C829 0.929 . S
H816 C830 0.931 . S
H817 C832 0.930 . S
C818 H806 0.930 . S
C818 C819 1.399 . S
C818 C823 1.399 . S
C819 C818 1.399 . S
C819 C820 1.376 . S
C820 H807 0.930 . S
C820 C819 1.376 . S
C820 C821 1.388 . S
C821 H808 0.930 . S
C821 C820 1.388 . S
C821 C822 1.390 . S
C822 C821 1.390 . S
C822 C823 1.394 . S
C822 C828 1.465 . S
C823 C818 1.399 . S
C823 C822 1.394 . S
C823 C824 1.516 . S
C824 C823 1.516 . S
C824 C825 1.502 . S
C824 C826 1.561 . S
C824 C827 1.526 . S
C825 H809 0.959 . S
C825 H810 0.959 . S
C825 H811 0.961 . S
C825 C824 1.502 . S
C826 H812 0.960 . S
C826 H813 0.961 . S
C826 H814 0.959 . S
C826 C824 1.561 . S
C827 C824 1.526 . S
C827 C828 1.396 . S
C827 C832 1.390 . S
C828 C822 1.465 . S
C828 C827 1.396 . S
C828 C829 1.399 . S
C829 H815 0.929 . S
C829 C828 1.399 . S
C829 C830 1.385 . S
C830 H816 0.931 . S
C830 C829 1.385 . S
C830 C831 1.389 . S
C831 C830 1.389 . S
C831 C832 1.387 . S
C832 H817 0.930 . S
C832 C827 1.390 . S
C832 C831 1.387 . S
H833 C845 0.930 . S
H834 C847 0.930 . S
H835 C848 0.930 . S
H836 C852 0.959 . S
H837 C852 0.959 . S
H838 C852 0.961 . S
H839 C853 0.960 . S
H840 C853 0.961 . S
H841 C853 0.959 . S
H842 C856 0.929 . S
H843 C857 0.931 . S
H844 C859 0.930 . S
C845 H833 0.930 . S
C845 C846 1.399 . S
C845 C850 1.399 . S
C846 C845 1.399 . S
C846 C847 1.376 . S
C847 H834 0.930 . S
C847 C846 1.376 . S
C847 C848 1.388 . S
C848 H835 0.930 . S
C848 C847 1.388 . S
C848 C849 1.390 . S
C849 C848 1.390 . S
C849 C850 1.394 . S
C849 C855 1.465 . S
C850 C845 1.399 . S
C850 C849 1.394 . S
C850 C851 1.516 . S
C851 C850 1.516 . S
C851 C852 1.502 . S
C851 C853 1.561 . S
C851 C854 1.526 . S
C852 H836 0.959 . S
C852 H837 0.959 . S
C852 H838 0.961 . S
C852 C851 1.502 . S
C853 H839 0.960 . S
C853 H840 0.961 . S
C853 H841 0.959 . S
C853 C851 1.561 . S
C854 C851 1.526 . S
C854 C855 1.396 . S
C854 C859 1.390 . S
C855 C849 1.465 . S
C855 C854 1.396 . S
C855 C856 1.399 . S
C856 H842 0.929 . S
C856 C855 1.399 . S
C856 C857 1.385 . S
C857 H843 0.931 . S
C857 C856 1.385 . S
C857 C858 1.389 . S
C858 C857 1.389 . S
C858 C859 1.387 . S
C859 H844 0.930 . S
C859 C854 1.390 . S
C859 C858 1.387 . S
H860 C872 0.930 . S
H861 C874 0.930 . S
H862 C875 0.930 . S
H863 C879 0.959 . S
H864 C879 0.959 1_655 S
H865 C879 0.961 . S
H866 C880 0.942 1_455 S
H867 C880 0.977 . S
H868 C880 0.961 . S
H869 C883 0.929 . S
H870 C884 0.931 . S
H871 C886 0.930 . S
C872 H860 0.930 . S
C872 C873 1.399 . S
C872 C877 1.399 . S
C873 C872 1.399 . S
C873 C874 1.376 . S
C874 H861 0.930 . S
C874 C873 1.376 . S
C874 C875 1.388 . S
C875 H862 0.930 . S
C875 C874 1.388 . S
C875 C876 1.390 . S
C876 C875 1.390 . S
C876 C877 1.394 . S
C876 C882 1.465 1_455 S
C877 C872 1.399 . S
C877 C876 1.394 . S
C877 C878 1.548 . S
C878 C877 1.548 . S
C878 C879 1.501 . S
C878 C880 1.562 1_455 S
C878 C881 1.494 1_455 S
C879 H863 0.959 . S
C879 H864 0.959 1_455 S
C879 H865 0.961 . S
C879 C878 1.501 . S
C880 H866 0.942 1_655 S
C880 H867 0.977 . S
C880 H868 0.961 . S
C880 C878 1.562 1_655 S
C881 C878 1.494 1_655 S
C881 C882 1.396 . S
C881 C886 1.390 . S
C882 C876 1.465 1_655 S
C882 C881 1.396 . S
C882 C883 1.399 . S
C883 H869 0.929 . S
C883 C882 1.399 . S
C883 C884 1.385 . S
C884 H870 0.931 . S
C884 C883 1.385 . S
C884 C885 1.389 . S
C885 C884 1.389 . S
C885 C886 1.387 . S
C886 H871 0.930 . S
C886 C881 1.390 . S
C886 C885 1.387 . S
H887 C899 0.930 . S
H888 C901 0.930 . S
H889 C902 0.930 . S
H890 C906 0.959 . S
H891 C906 0.959 . S
H892 C906 0.961 1_655 S
H893 C907 0.960 1_655 S
H894 C907 0.961 . S
H895 C907 0.959 . S
H896 C910 0.929 . S
H897 C911 0.931 . S
H898 C913 0.930 . S
C899 H887 0.930 . S
C899 C900 1.399 . S
C899 C904 1.399 . S
C900 C899 1.399 . S
C900 C901 1.376 . S
C901 H888 0.930 . S
C901 C900 1.376 . S
C901 C902 1.388 . S
C902 H889 0.930 . S
C902 C901 1.388 . S
C902 C903 1.390 . S
C903 C902 1.390 . S
C903 C904 1.394 . S
C903 C909 1.465 1_655 S
C904 C899 1.399 . S
C904 C903 1.394 . S
C904 C905 1.516 1_655 S
C905 C904 1.516 1_455 S
C905 C906 1.502 . S
C905 C907 1.561 . S
C905 C908 1.526 . S
C906 H890 0.959 . S
C906 H891 0.959 . S
C906 H892 0.961 1_455 S
C906 C905 1.502 . S
C907 H893 0.960 1_455 S
C907 H894 0.961 . S
C907 H895 0.959 . S
C907 C905 1.561 . S
C908 C905 1.526 . S
C908 C909 1.396 . S
C908 C913 1.390 . S
C909 C903 1.465 1_455 S
C909 C908 1.396 . S
C909 C910 1.399 . S
C910 H896 0.929 . S
C910 C909 1.399 . S
C910 C911 1.385 . S
C911 H897 0.931 . S
C911 C910 1.385 . S
C911 C912 1.389 . S
C912 C911 1.389 . S
C912 C913 1.387 . S
C913 H898 0.930 . S
C913 C908 1.390 . S
C913 C912 1.387 . S
H914 C926 0.930 . S
H915 C928 0.930 . S
H916 C929 0.930 . S
H917 C933 0.959 . S
H918 C933 0.959 . S
H919 C933 0.961 . S
H920 C934 0.960 . S
H921 C934 0.961 . S
H922 C934 0.959 . S
H923 C937 0.929 . S
H924 C938 0.931 . S
H925 C940 0.930 . S
C926 H914 0.930 . S
C926 C927 1.399 . S
C926 C931 1.399 . S
C927 C926 1.399 . S
C927 C928 1.376 . S
C928 H915 0.930 . S
C928 C927 1.376 . S
C928 C929 1.388 . S
C929 H916 0.930 . S
C929 C928 1.388 . S
C929 C930 1.390 . S
C930 C929 1.390 . S
C930 C931 1.394 . S
C930 C936 1.465 . S
C931 C926 1.399 . S
C931 C930 1.394 . S
C931 C932 1.516 . S
C932 C931 1.516 . S
C932 C933 1.502 . S
C932 C934 1.561 . S
C932 C935 1.526 . S
C933 H917 0.959 . S
C933 H918 0.959 . S
C933 H919 0.961 . S
C933 C932 1.502 . S
C934 H920 0.960 . S
C934 H921 0.961 . S
C934 H922 0.959 . S
C934 C932 1.561 . S
C935 C932 1.526 . S
C935 C936 1.396 . S
C935 C940 1.390 . S
C936 C930 1.465 . S
C936 C935 1.396 . S
C936 C937 1.399 . S
C937 H923 0.929 . S
C937 C936 1.399 . S
C937 C938 1.385 . S
C938 H924 0.931 . S
C938 C937 1.385 . S
C938 C939 1.389 . S
C939 C938 1.389 . S
C939 C940 1.387 . S
C940 H925 0.930 . S
C940 C935 1.390 . S
C940 C939 1.387 . S
H941 C953 0.930 . S
H942 C955 0.930 . S
H943 C956 0.930 . S
H944 C960 0.959 . S
H945 C960 0.959 . S
H946 C960 0.961 . S
H947 C961 0.960 . S
H948 C961 0.961 . S
H949 C961 0.959 . S
H950 C964 0.929 . S
H951 C965 0.931 . S
H952 C967 0.930 . S
C953 H941 0.930 . S
C953 C954 1.399 . S
C953 C958 1.399 . S
C954 C953 1.399 . S
C954 C955 1.376 . S
C955 H942 0.930 . S
C955 C954 1.376 . S
C955 C956 1.388 . S
C956 H943 0.930 . S
C956 C955 1.388 . S
C956 C957 1.390 . S
C957 C956 1.390 . S
C957 C958 1.394 . S
C957 C963 1.465 . S
C958 C953 1.399 . S
C958 C957 1.394 . S
C958 C959 1.516 . S
C959 C958 1.516 . S
C959 C960 1.502 . S
C959 C961 1.561 . S
C959 C962 1.526 . S
C960 H944 0.959 . S
C960 H945 0.959 . S
C960 H946 0.961 . S
C960 C959 1.502 . S
C961 H947 0.960 . S
C961 H948 0.961 . S
C961 H949 0.959 . S
C961 C959 1.561 . S
C962 C959 1.526 . S
C962 C963 1.396 . S
C962 C967 1.390 . S
C963 C957 1.465 . S
C963 C962 1.396 . S
C963 C964 1.399 . S
C964 H950 0.929 . S
C964 C963 1.399 . S
C964 C965 1.385 . S
C965 H951 0.931 . S
C965 C964 1.385 . S
C965 C966 1.389 . S
C966 C965 1.389 . S
C966 C967 1.387 . S
C967 H952 0.930 . S
C967 C962 1.390 . S
C967 C966 1.387 . S
C333 C6 1.657 . S
C345 C295 1.680 . S
C360 C255 1.675 . S
C372 C46 1.670 . S
C387 C206 1.661 . S
C399 C95 1.676 . S
C414 C166 1.685 . S
C426 C135 1.659 . S
C441 C89 1.591 . S
C453 C9 1.535 . S
C468 C49 1.602 . S
C480 C129 1.513 . S
C495 C138 1.581 . S
C507 C58 1.561 . S
C522 C98 1.554 . S
C534 C18 1.548 . S
C549 C169 1.437 1_554 S
C561 C249 1.437 1_554 S
C576 C209 1.423 1_554 S
C588 C289 1.450 1_554 S
C603 C298 1.404 . S
C615 C218 1.449 . S
C630 C258 1.466 1_556 S
C642 C178 1.422 1_556 S
C657 C19 2.066 . S
C669 C10 2.061 . S
C684 C59 2.052 . S
C696 C50 2.058 . S
C711 C99 2.051 . S
C723 C90 2.059 . S
C738 C130 2.032 . S
C750 C139 2.081 . S
C765 C170 2.033 . S
C777 C179 2.078 . S
C792 C219 2.069 . S
C804 C210 2.057 . S
C819 C250 2.083 . S
C831 C259 2.032 . S
C846 C290 2.034 . S
C858 C299 2.078 . S
C873 C15 2.315 . S
C885 C55 2.322 . S
C900 C126 2.307 . S
C912 C86 2.310 . S
C927 C175 2.325 . S
C939 C215 2.327 . S
C954 C286 2.323 . S
C966 C246 2.321 . S
