# Generated by pormake.
# Topology uom, (4)-cn, num edge types: 1
# Building blocks:
#     Node 0, Type 0, BuildingBlock: MUDLON_clean_sbu_0, # of connection points: 4
#     Node 1, Type 0, BuildingBlock: MUDLON_clean_sbu_0, # of connection points: 4
#     Node 2, Type 0, BuildingBlock: MUDLON_clean_sbu_0, # of connection points: 4
#     Node 3, Type 0, BuildingBlock: MUDLON_clean_sbu_0, # of connection points: 4
#     Node 4, Type 0, BuildingBlock: MUDLON_clean_sbu_0, # of connection points: 4
#     Node 5, Type 0, BuildingBlock: MUDLON_clean_sbu_0, # of connection points: 4
#     Edge 6, Type (0, 0), BuildingBlock: ZUJKAS_clean_linker_0, # of connection points: 2
#     Edge 7, Type (0, 0), BuildingBlock: ZUJKAS_clean_linker_0, # of connection points: 2
#     Edge 8, Type (0, 0), BuildingBlock: ZUJKAS_clean_linker_0, # of connection points: 2
#     Edge 9, Type (0, 0), BuildingBlock: ZUJKAS_clean_linker_0, # of connection points: 2
#     Edge 10, Type (0, 0), BuildingBlock: ZUJKAS_clean_linker_0, # of connection points: 2
#     Edge 11, Type (0, 0), BuildingBlock: ZUJKAS_clean_linker_0, # of connection points: 2
#     Edge 12, Type (0, 0), BuildingBlock: ZUJKAS_clean_linker_0, # of connection points: 2
#     Edge 13, Type (0, 0), BuildingBlock: ZUJKAS_clean_linker_0, # of connection points: 2
#     Edge 14, Type (0, 0), BuildingBlock: ZUJKAS_clean_linker_0, # of connection points: 2
#     Edge 15, Type (0, 0), BuildingBlock: ZUJKAS_clean_linker_0, # of connection points: 2
#     Edge 16, Type (0, 0), BuildingBlock: ZUJKAS_clean_linker_0, # of connection points: 2
#     Edge 17, Type (0, 0), BuildingBlock: ZUJKAS_clean_linker_0, # of connection points: 2
# Relax obj value: 0.094
# Max RMSD: 0.084
# Mean RMSD: 0.084
data_MOF--net-uom--node1-MUDLON_clean_sbu_0--edge1-ZUJKAS_clean_linker_0
_symmetry_space_group_name_H-M    P1
_symmetry_Int_Tables_number       1
_symmetry_cell_setting            triclinic
loop_
_symmetry_equiv_pos_as_xyz
'x, y, z'
_cell_length_a     38.233796
_cell_length_b     38.494015
_cell_length_c     51.61209
_cell_angle_alpha  89.931384
_cell_angle_beta   89.851993
_cell_angle_gamma 119.8852
loop_
_atom_site_label
_atom_site_type_symbol
_atom_site_fract_x
_atom_site_fract_y
_atom_site_fract_z
_atom_type_partial_charge
Mg0 Mg 0.25288 0.00382 0.08431 0.0
C1 C 0.26602 0.00676 0.14362 0.0
O2 O 0.2936 0.99747 0.13716 0.0
C3 C 0.22111 0.94685 0.04043 0.0
O4 O 0.25775 0.9733 0.03288 0.0
C5 C 0.32367 0.99025 0.0787 0.0
O6 O 0.29421 0.95345 0.08275 0.0
O7 O 0.31535 0.01841 0.07777 0.0
O8 O 0.24344 0.00822 0.12604 0.0
O9 O 0.23678 0.0442 0.06524 0.0
C10 C 0.22459 0.06396 0.07849 0.0
O11 O 0.23129 0.06749 0.10355 0.0
O12 O 0.2104 0.94914 0.0635 0.0
Mg13 Mg 0.3008 0.27219 0.4139 0.0
C14 C 0.27345 0.24414 0.47111 0.0
O15 O 0.24915 0.20903 0.46079 0.0
C16 C 0.29019 0.19632 0.38927 0.0
O17 O 0.256 0.18166 0.40212 0.0
C18 C 0.37967 0.34308 0.3989 0.0
O19 O 0.38955 0.31506 0.40115 0.0
O20 O 0.34301 0.33366 0.40235 0.0
O21 O 0.29826 0.27257 0.45653 0.0
O22 O 0.24079 0.25004 0.39845 0.0
C23 C 0.20995 0.24211 0.41204 0.0
O24 O 0.2149 0.25559 0.43589 0.0
O25 O 0.31725 0.23263 0.39318 0.0
Mg26 Mg 0.09262 0.32216 0.7537 0.0
C27 C 0.08893 0.33062 0.81309 0.0
O28 O 0.09523 0.36639 0.80686 0.0
C29 C 0.14386 0.3419 0.70724 0.0
O30 O 0.11572 0.35043 0.70087 0.0
C31 C 0.10663 0.4062 0.74749 0.0
O32 O 0.14389 0.41405 0.75101 0.0
O33 O 0.07839 0.36983 0.74739 0.0
O34 O 0.08979 0.30809 0.79532 0.0
O35 O 0.04944 0.26624 0.73589 0.0
C36 C 0.02625 0.23597 0.74964 0.0
O37 O 0.02124 0.24131 0.77421 0.0
O38 O 0.14522 0.33207 0.73067 0.0
Mg39 Mg 0.81751 0.0896 0.08178 0.0
C40 C 0.80861 0.09221 0.14191 0.0
O41 O 0.78567 0.1077 0.13643 0.0
C42 C 0.89411 0.15431 0.05678 0.0
O43 O 0.90864 0.13464 0.06941 0.0
C44 C 0.72575 0.04857 0.08804 0.0
O45 O 0.73291 0.02948 0.10654 0.0
O46 O 0.75504 0.07391 0.07422 0.0
O47 O 0.82657 0.08521 0.12356 0.0
O48 O 0.83612 0.05122 0.06266 0.0
C49 C 0.84909 0.03222 0.07597 0.0
O50 O 0.84147 0.02778 0.10096 0.0
O51 O 0.85761 0.14522 0.06087 0.0
Mg52 Mg 0.77423 0.82718 0.41269 0.0
C53 C 0.77268 0.79585 0.46574 0.0
O54 O 0.76363 0.76512 0.4506 0.0
C55 C 0.78544 0.90325 0.38765 0.0
O56 O 0.81956 0.91774 0.4004 0.0
C57 C 0.69462 0.7548 0.40324 0.0
O58 O 0.68443 0.7809 0.41136 0.0
O59 O 0.7319 0.76599 0.40092 0.0
O60 O 0.77745 0.82809 0.45542 0.0
O61 O 0.83496 0.84962 0.39803 0.0
C62 C 0.86466 0.86358 0.41352 0.0
O63 O 0.85764 0.85615 0.43841 0.0
O64 O 0.75827 0.86695 0.39166 0.0
Mg65 Mg 0.98461 0.78022 0.7519 0.0
C66 C 0.99134 0.81138 0.80753 0.0
O67 O 0.99456 0.84258 0.79505 0.0
C68 C 0.93765 0.75397 0.70408 0.0
O69 O 0.97406 0.7613 0.69784 0.0
C70 C 0.99234 0.70922 0.74223 0.0
O71 O 0.95382 0.69481 0.74725 0.0
O72 O 0.0154 0.74709 0.74194 0.0
O73 O 0.98327 0.77995 0.79472 0.0
O74 O 0.01304 0.84263 0.73935 0.0
C75 C 0.9866 0.85347 0.73765 0.0
O76 O 0.94931 0.82784 0.74448 0.0
O77 O 0.92969 0.75511 0.72798 0.0
H78 H 0.23271 0.05162 0.16014 0.0
H79 H 0.23849 0.08122 0.20291 0.0
H80 H 0.30194 0.02225 0.23079 0.0
H81 H 0.29795 0.99416 0.18769 0.0
H82 H 0.21312 0.05432 0.24913 0.0
H83 H 0.37986 0.13334 0.25224 0.0
H84 H 0.35202 0.10869 0.22345 0.0
H85 H 0.35863 0.08028 0.24882 0.0
C86 C 0.24775 0.04478 0.1754 0.0
C87 C 0.26519 0.02077 0.17038 0.0
C88 C 0.25112 0.06182 0.19991 0.0
C89 C 0.27166 0.055 0.22009 0.0
C90 C 0.28726 0.02931 0.21543 0.0
H91 H 0.24631 0.11567 0.38048 0.0
H92 H 0.24337 0.07999 0.34064 0.0
C93 C 0.28454 0.01284 0.1908 0.0
C94 C 0.27661 0.07475 0.24586 0.0
H95 H 0.34649 0.13252 0.29135 0.0
C96 C 0.24234 0.07149 0.25829 0.0
C97 C 0.3148 0.09791 0.25778 0.0
C98 C 0.35344 0.10567 0.24476 0.0
C99 C 0.24506 0.09039 0.28214 0.0
C100 C 0.28299 0.11202 0.29462 0.0
C101 C 0.3173 0.11549 0.28212 0.0
C102 C 0.28796 0.13268 0.32003 0.0
C103 C 0.20732 0.08806 0.29315 0.0
C104 C 0.3161 0.17374 0.32262 0.0
C105 C 0.31874 0.19401 0.34574 0.0
C106 C 0.29301 0.17374 0.36675 0.0
C107 C 0.26633 0.13227 0.3646 0.0
C108 C 0.26424 0.11189 0.34166 0.0
H109 H 0.18448 0.08157 0.27785 0.0
H110 H 0.19364 0.0634 0.30758 0.0
H111 H 0.21407 0.11645 0.30286 0.0
H112 H 0.33507 0.19053 0.3064 0.0
H113 H 0.3395 0.22597 0.34665 0.0
H114 H 0.22051 0.19177 0.50722 0.0
H115 H 0.20493 0.20751 0.55016 0.0
H116 H 0.29606 0.33133 0.53983 0.0
H117 H 0.31237 0.31578 0.49707 0.0
H118 H 0.29433 0.30393 0.59035 0.0
H119 H 0.14093 0.26576 0.55789 0.0
H120 H 0.15209 0.2259 0.55433 0.0
H121 H 0.17967 0.27104 0.53557 0.0
C122 C 0.23765 0.22228 0.51417 0.0
C123 C 0.26748 0.25254 0.49848 0.0
C124 C 0.22851 0.23128 0.53872 0.0
C125 C 0.24872 0.27079 0.54807 0.0
C126 C 0.27988 0.30067 0.53303 0.0
H127 H 0.15729 0.37352 0.6587 0.0
H128 H 0.18645 0.35748 0.62172 0.0
C129 C 0.28914 0.29169 0.50851 0.0
C130 C 0.236 0.28147 0.57279 0.0
H131 H 0.15628 0.28286 0.60188 0.0
C132 C 0.26412 0.29924 0.59293 0.0
C133 C 0.19672 0.27588 0.57607 0.0
C134 C 0.16566 0.25896 0.55477 0.0
C135 C 0.25398 0.3114 0.61619 0.0
C136 C 0.21452 0.30527 0.61955 0.0
C137 C 0.18647 0.28742 0.59942 0.0
C138 C 0.20176 0.31858 0.64315 0.0
C139 C 0.2859 0.33172 0.63665 0.0
C140 C 0.2015 0.30296 0.66787 0.0
C141 C 0.18504 0.31246 0.68929 0.0
C142 C 0.16811 0.33738 0.68629 0.0
C143 C 0.16996 0.35417 0.66175 0.0
C144 C 0.18655 0.34491 0.6405 0.0
H145 H 0.31672 0.3428 0.62871 0.0
H146 H 0.28437 0.35733 0.6453 0.0
H147 H 0.28081 0.30995 0.65234 0.0
H148 H 0.21238 0.28204 0.67041 0.0
H149 H 0.18365 0.29862 0.70784 0.0
H150 H 0.86486 0.17437 1.0143 0.0
H151 H 0.9013 0.2068 0.97442 0.0
H152 H 0.01222 0.22595 1.00883 0.0
H153 H 0.9755 0.19167 0.04824 0.0
H154 H 0.95873 0.27638 0.96028 0.0
H155 H 0.01433 0.16994 0.94512 0.0
H156 H 0.97838 0.16275 0.97015 0.0
H157 H 0.03152 0.19613 0.97521 0.0
C158 C 0.89711 0.18588 1.0135 0.0
C159 C 0.91719 0.18014 0.03444 0.0
C160 C 0.91797 0.20435 0.99059 0.0
C161 C 0.95947 0.21787 0.98814 0.0
C162 C 0.98001 0.21449 1.0097 0.0
H163 H 0.09909 0.37301 0.85771 0.0
H164 H 0.07048 0.34688 0.90056 0.0
C165 C 0.95904 0.19532 0.03242 0.0
C166 C 0.98088 0.23489 0.96297 0.0
H167 H 0.04163 0.22683 0.91738 0.0
C168 C 0.97676 0.26542 0.9509 0.0
C169 C 1.00386 0.22021 0.95026 0.0
C170 C 1.00695 0.18518 0.9607 0.0
C171 C 0.99493 0.28169 0.92679 0.0
C172 C 0.01947 0.26832 0.91468 0.0
C173 C 0.02342 0.23765 0.92668 0.0
C174 C 0.03993 0.28449 0.88912 0.0
C175 C 0.98623 0.31198 0.91419 0.0
C176 C 0.03475 0.25828 0.86863 0.0
C177 C 0.05224 0.27317 0.84428 0.0
C178 C 0.07499 0.3147 0.83972 0.0
C179 C 0.08139 0.34088 0.86046 0.0
C180 C 0.06457 0.32593 0.88495 0.0
H181 H 0.95766 0.30931 0.92157 0.0
H182 H 0.01093 0.34262 0.91877 0.0
H183 H 0.984 0.3084 0.89281 0.0
H184 H 0.01622 0.22618 0.87123 0.0
H185 H 0.04659 0.25212 0.82876 0.0
H186 H 0.78132 0.1092 0.18671 0.0
H187 H 0.77812 0.08217 0.23017 0.0
H188 H 0.83152 0.0142 0.20099 0.0
H189 H 0.83623 0.04225 0.15783 0.0
H190 H 0.73774 0.00873 0.24794 0.0
H191 H 0.8995 0.06153 0.26338 0.0
H192 H 0.88199 0.07925 0.23682 0.0
H193 H 0.88156 0.03233 0.23442 0.0
C194 C 0.793 0.089 0.18963 0.0
C195 C 0.80939 0.07825 0.16875 0.0
C196 C 0.791 0.0734 0.21452 0.0
C197 C 0.80515 0.04652 0.21915 0.0
C198 C 0.82148 0.03574 0.19828 0.0
H199 H 0.73322 0.87517 0.34649 0.0
H200 H 0.73642 0.91117 0.30671 0.0
C201 C 0.82397 0.05171 0.17347 0.0
C202 C 0.8012 0.02843 0.24544 0.0
H203 H 0.85337 0.00972 0.29187 0.0
C204 C 0.76316 0.0093 0.25763 0.0
C205 C 0.83434 0.02958 0.25848 0.0
C206 C 0.87669 0.05216 0.24772 0.0
C207 C 0.75718 0.9906 0.28201 0.0
C208 C 0.78986 0.98981 0.29435 0.0
C209 C 0.82808 0.00977 0.28244 0.0
C210 C 0.78537 0.96844 0.31947 0.0
C211 C 0.71599 0.97255 0.29441 0.0
C212 C 0.81195 0.9882 0.34005 0.0
C213 C 0.81061 0.96743 0.36269 0.0
C214 C 0.78246 0.92637 0.36544 0.0
C215 C 0.75487 0.9069 0.34524 0.0
C216 C 0.7566 0.92758 0.32243 0.0
H217 H 0.69907 0.98716 0.28724 0.0
H218 H 0.69832 0.94032 0.28934 0.0
H219 H 0.7181 0.97527 0.31584 0.0
H220 H 0.83446 0.01963 0.33838 0.0
H221 H 0.83243 0.98337 0.37778 0.0
H222 H 0.87617 0.77182 0.70619 0.0
H223 H 0.84093 0.7806 0.66916 0.0
H224 H 0.90344 0.74205 0.61728 0.0
H225 H 0.93888 0.73383 0.65389 0.0
H226 H 0.91049 0.81385 0.60256 0.0
H227 H 0.7499 0.70152 0.62198 0.0
H228 H 0.77624 0.73573 0.64793 0.0
H229 H 0.79103 0.70015 0.63813 0.0
C230 C 0.88153 0.76419 0.68696 0.0
C231 C 0.91028 0.75202 0.68301 0.0
C232 C 0.86143 0.76932 0.66577 0.0
C233 C 0.86945 0.76196 0.64034 0.0
C234 C 0.89681 0.74812 0.63663 0.0
H235 H 0.75888 0.72928 0.49264 0.0
H236 H 0.78018 0.72511 0.5364 0.0
C237 C 0.91695 0.74324 0.65765 0.0
C238 C 0.85181 0.77096 0.61726 0.0
H239 H 0.76356 0.74257 0.58504 0.0
C240 C 0.87831 0.7985 0.59884 0.0
C241 C 0.80985 0.75087 0.61233 0.0
C242 C 0.77998 0.72016 0.63098 0.0
C243 C 0.86425 0.80565 0.57539 0.0
C244 C 0.8223 0.7853 0.5703 0.0
C245 C 0.79567 0.75847 0.58901 0.0
C246 C 0.80601 0.78826 0.54462 0.0
C247 C 0.89468 0.83349 0.55574 0.0
C248 C 0.81233 0.82506 0.53471 0.0
C249 C 0.80022 0.82763 0.50941 0.0
C250 C 0.78142 0.79339 0.4936 0.0
C251 C 0.77352 0.75638 0.5041 0.0
C252 C 0.78558 0.75386 0.52925 0.0
H253 H 0.92578 0.84015 0.56038 0.0
H254 H 0.88694 0.8204 0.53601 0.0
H255 H 0.89454 0.86224 0.5555 0.0
H256 H 0.82736 0.85194 0.54634 0.0
H257 H 0.80667 0.85657 0.50199 0.0
H258 H 0.13844 0.91314 0.04052 0.0
H259 H 0.09288 0.88125 1.00382 0.0
H260 H 0.19195 0.88946 0.95881 0.0
H261 H 0.23756 0.92217 0.99503 0.0
H262 H 0.15477 0.92126 0.9333 0.0
H263 H 0.03913 0.77219 0.97 0.0
H264 H 0.04514 0.81297 0.98995 0.0
H265 H 0.08614 0.80296 0.98665 0.0
C266 C 0.15023 0.9071 1.02305 0.0
C267 C 0.19167 0.92024 1.02071 0.0
C268 C 0.1241 0.88877 1.00203 0.0
C269 C 0.13879 0.88264 0.97845 0.0
C270 C 0.17976 0.89385 0.97669 0.0
H271 H 0.01159 0.7636 0.83625 0.0
H272 H 0.0443 0.77878 0.87884 0.0
C273 C 0.20585 0.91248 0.99749 0.0
C274 C 0.11303 0.86864 0.95474 0.0
H275 H 0.02521 0.79295 0.92955 0.0
C276 C 0.12653 0.89309 0.93254 0.0
C277 C 0.07623 0.83176 0.95352 0.0
C278 C 0.06091 0.80323 0.97621 0.0
C279 C 0.10443 0.88199 0.90937 0.0
C280 C 0.06702 0.84575 0.90835 0.0
C281 C 0.0536 0.82094 0.93039 0.0
C282 C 0.04207 0.83336 0.88432 0.0
C283 C 0.12189 0.90893 0.88599 0.0
C284 C 0.02832 0.85798 0.87368 0.0
C285 C 0.00986 0.84952 0.84934 0.0
C286 C 1.00421 0.81592 0.83513 0.0
C287 C 0.01543 0.78971 0.84662 0.0
C288 C 0.03422 0.79839 0.87098 0.0
H289 H 0.15494 0.92934 0.88787 0.0
H290 H 0.11615 0.89114 0.86799 0.0
H291 H 0.10751 0.92771 0.88398 0.0
H292 H 0.03316 0.88462 0.88383 0.0
H293 H 1.00127 0.87016 0.84126 0.0
H294 H 0.18836 0.04224 0.03086 0.0
H295 H 0.12594 0.04021 1.01783 0.0
H296 H 0.12619 0.09916 0.08888 0.0
H297 H 0.18865 0.10175 0.10193 0.0
H298 H 0.05674 0.99737 0.04555 0.0
H299 H 0.09005 0.15397 0.03711 0.0
H300 H 0.12918 0.14066 0.0366 0.0
H301 H 0.10884 0.1458 0.06694 0.0
C302 C 0.17591 0.05601 0.04334 0.0
C303 C 0.19337 0.07187 0.06758 0.0
C304 C 0.14009 0.05465 0.03588 0.0
C305 C 0.12141 0.06961 0.05232 0.0
C306 C 0.14035 0.08804 0.07564 0.0
H307 H 0.88472 0.99385 0.09889 0.0
H308 H 0.94876 0.99889 0.08674 0.0
C309 C 0.17606 0.08933 0.08315 0.0
C310 C 0.07971 0.0611 0.04713 0.0
H311 H 0.02078 0.10458 0.04742 0.0
C312 C 0.04894 0.02088 0.04538 0.0
C313 C 0.06948 0.09169 0.04653 0.0
C314 C 0.10123 0.13546 0.04661 0.0
C315 C 1.00812 0.01036 0.04489 0.0
C316 C 0.99782 0.04082 0.04658 0.0
C317 C 0.02863 0.08114 0.04644 0.0
C318 C 0.95576 0.03171 0.0512 0.0
C319 C 0.97642 0.96667 0.04323 0.0
C320 C 0.93793 0.04784 0.03504 0.0
C321 C 0.90118 0.04499 0.04196 0.0
C322 C 0.88193 0.02647 0.0654 0.0
C323 C 0.89866 0.00822 0.0807 0.0
C324 C 0.93527 0.01095 0.07371 0.0
H325 H 0.98829 0.9491 0.03324 0.0
H326 H 0.96731 0.95433 0.06311 0.0
H327 H 0.94923 0.9625 0.0328 0.0
H328 H 0.95331 0.06413 1.01764 0.0
H329 H 0.88929 0.05957 1.02976 0.0
H330 H 0.88334 0.9035 0.36709 0.0
H331 H 0.94346 0.96764 0.35722 0.0
H332 H 0.99488 0.96409 0.43075 0.0
H333 H 0.93499 0.89999 0.44082 0.0
H334 H 0.96499 0.03487 0.38884 0.0
H335 H 0.09069 1.00289 0.38022 0.0
H336 H 0.03842 0.96451 0.3769 0.0
H337 H 0.06 0.98095 0.40853 0.0
C338 C 0.90795 0.91569 0.38084 0.0
C339 C 0.90428 0.89671 0.40485 0.0
C340 C 0.9422 0.95247 0.37519 0.0
C341 C 0.9736 0.97053 0.39322 0.0
C342 C 0.97121 0.95039 0.41641 0.0
H343 H 0.13872 0.20747 0.43908 0.0
H344 H 0.07854 0.14347 0.42957 0.0
C345 C 0.93688 0.91377 0.42217 0.0
C346 C 1.00651 0.01233 0.38939 0.0
H347 H 0.10894 0.07103 0.38928 0.0
C348 C 0.99649 0.04281 0.38848 0.0
C349 C 0.04748 0.02255 0.38869 0.0
C350 C 0.05987 0.99099 0.38838 0.0
C351 C 0.02648 0.08339 0.38828 0.0
C352 C 0.06744 0.09361 0.38923 0.0
C353 C 0.07746 0.06311 0.38874 0.0
C354 C 0.10042 0.13547 0.3926 0.0
C355 C 0.0141 0.11494 0.38747 0.0
C356 C 0.13227 0.15264 0.3747 0.0
C357 C 0.16672 0.18926 0.38006 0.0
C358 C 0.17016 0.20911 0.40363 0.0
C359 C 0.13707 0.19308 0.42074 0.0
C360 C 0.10255 0.15648 0.4153 0.0
H361 H 0.98348 0.10298 0.3791 0.0
H362 H 0.01345 0.12506 0.4075 0.0
H363 H 0.03582 0.14136 0.37593 0.0
H364 H 0.13122 0.13685 0.35709 0.0
H365 H 0.19159 0.20072 0.3664 0.0
H366 H 0.98 0.16425 0.77419 0.0
H367 H 0.97709 0.10081 0.76422 0.0
H368 H 0.04806 0.15304 0.6952 0.0
H369 H 0.0504 0.21633 0.70463 0.0
H370 H 0.9896 0.07375 0.68837 0.0
H371 H 0.07832 0.09281 0.77716 0.0
H372 H 0.03241 0.0932 0.78374 0.0
H373 H 0.07102 0.13227 0.76414 0.0
C374 C 0.99419 0.16202 0.75656 0.0
C375 C 0.01599 0.19557 0.74046 0.0
C376 C 0.99282 0.12585 0.75103 0.0
C377 C 0.01355 0.12274 0.72946 0.0
C378 C 0.03236 0.15503 0.71214 0.0
H379 H 0.06128 0.92179 0.73455 0.0
H380 H 0.07465 0.99045 0.72685 0.0
C381 C 0.03351 0.19116 0.71755 0.0
C382 C 0.01758 0.08671 0.72596 0.0
H383 H 0.04762 0.02808 0.75743 0.0
C384 C 1.00266 0.06393 0.70332 0.0
C385 C 0.03601 0.07474 0.74504 0.0
C386 C 0.05577 0.09977 0.76875 0.0
C387 C 1.00323 0.028 0.70007 0.0
C388 C 0.01836 0.01423 0.72022 0.0
C389 C 0.03567 0.0384 0.74207 0.0
C390 C 0.01197 0.97295 0.72072 0.0
C391 C 0.98711 0.00492 0.67522 0.0
C392 C 0.97253 0.94049 0.71958 0.0
C393 C 0.96494 0.90166 0.72394 0.0
C394 C 0.99657 0.89433 0.72985 0.0
C395 C 0.03636 0.92658 0.73 0.0
C396 C 0.04398 0.96572 0.72563 0.0
H397 H 0.99171 0.02543 0.65876 0.0
H398 H 1.00179 0.98705 0.67047 0.0
H399 H 0.95416 0.98424 0.67728 0.0
H400 H 0.94722 0.94527 0.71655 0.0
H401 H 0.93392 0.87746 0.72352 0.0
H402 H 0.69942 0.08105 0.05074 0.0
H403 H 0.63235 0.07413 0.04687 0.0
H404 H 0.59197 0.99647 0.11373 0.0
H405 H 0.65876 1.0032 0.11782 0.0
H406 H 0.55494 1.003 0.04122 0.0
H407 H 0.56531 0.08591 0.13145 0.0
H408 H 0.60897 0.08865 0.11587 0.0
H409 H 0.57628 0.04594 0.13546 0.0
C410 C 0.67625 0.06239 0.06459 0.0
C411 C 0.6846 0.04282 0.08467 0.0
C412 C 0.63794 0.05848 0.06233 0.0
C413 C 0.60736 0.0353 0.08024 0.0
C414 C 0.61532 0.01507 0.09996 0.0
H415 H 0.34972 0.93592 0.07634 0.0
H416 H 0.41911 0.94907 0.07483 0.0
C417 C 0.65351 0.01878 0.10216 0.0
C418 C 0.56706 0.03207 0.07835 0.0
H419 H 0.50086 0.05101 0.11148 0.0
C420 C 0.54318 0.0137 0.05649 0.0
C421 C 0.552 0.04657 0.09812 0.0
C422 C 0.57704 0.06822 0.12147 0.0
C423 C 0.5041 0.00826 0.05429 0.0
C424 C 0.4884 0.02125 0.07457 0.0
C425 C 0.5128 0.0408 0.09603 0.0
C426 C 0.44625 0.0136 0.07436 0.0
C427 C 0.47995 0.98872 1.03024 0.0
C428 C 0.43834 0.04553 0.07496 0.0
C429 C 0.39854 0.03812 0.07584 0.0
C430 C 0.36591 0.99858 0.07646 0.0
C431 C 0.37404 0.96673 0.0758 0.0
C432 C 0.41375 0.97417 0.07478 0.0
H433 H 0.49963 0.9904 1.01385 0.0
H434 H 0.4586 0.95662 0.03434 0.0
H435 H 0.46214 1.00297 1.02422 0.0
H436 H 0.46299 0.0762 0.07482 0.0
H437 H 0.39338 0.06333 0.07645 0.0
H438 H 0.61296 0.72292 0.40576 0.0
H439 H 0.56077 0.65275 0.40124 0.0
H440 H 0.65198 0.62077 0.38568 0.0
H441 H 0.70465 0.69105 0.39046 0.0
H442 H 0.54188 0.59864 0.35952 0.0
H443 H 0.58859 0.54868 0.44741 0.0
H444 H 0.60618 0.60081 0.44055 0.0
H445 H 0.62772 0.57501 0.42379 0.0
C446 C 0.62203 0.70106 0.40128 0.0
C447 C 0.66305 0.71259 0.39867 0.0
C448 C 0.59209 0.66094 0.39865 0.0
C449 C 0.60251 0.63148 0.3935 0.0
C450 C 0.64334 0.64297 0.3901 0.0
H451 H 0.45958 0.37159 0.38897 0.0
H452 H 0.51316 0.44137 0.38523 0.0
C453 C 0.67337 0.68317 0.39271 0.0
C454 C 0.57055 0.58871 0.3923 0.0
H455 H 0.53562 0.49858 0.4228 0.0
C456 C 0.5405 0.5767 0.37331 0.0
C457 C 0.56878 0.56021 0.41036 0.0
C458 C 0.59929 0.57172 0.43184 0.0
C459 C 0.5089 0.53679 0.37174 0.0
C460 C 0.50695 0.50837 0.38995 0.0
C461 C 0.5372 0.52038 0.40881 0.0
C462 C 0.47364 0.46605 0.39014 0.0
C463 C 0.47829 0.52532 0.35035 0.0
C464 C 0.43347 0.45664 0.39401 0.0
C465 C 0.40262 0.41665 0.39607 0.0
C466 C 0.41147 0.38534 0.39456 0.0
C467 C 0.45165 0.39491 0.39025 0.0
C468 C 0.48238 0.43482 0.38812 0.0
H469 H 0.49011 0.54714 0.33406 0.0
H470 H 0.46919 0.49503 0.34273 0.0
H471 H 0.45099 0.52491 0.35811 0.0
H472 H 0.42609 0.48023 0.39618 0.0
H473 H 0.37205 0.41034 0.39954 0.0
H474 H 0.07143 0.72664 0.73956 0.0
H475 H 0.09604 0.67872 0.73655 0.0
H476 H 0.97339 0.58094 0.73427 0.0
H477 H 0.94869 0.62818 0.73706 0.0
H478 H 0.07897 0.61606 0.77202 0.0
H479 H 0.02628 0.55584 0.67355 0.0
H480 H 0.03035 0.60223 0.68456 0.0
H481 H 0.98744 0.55501 0.6936 0.0
C482 C 0.04977 0.69496 0.73806 0.0
C483 C 1.0081 0.68127 0.73852 0.0
C484 C 0.06386 0.66764 0.7364 0.0
C485 C 0.03654 0.62628 0.73482 0.0
C486 C 0.99503 0.61271 0.73493 0.0
H487 H 0.03282 0.40102 0.74209 0.0
H488 H 0.01855 0.45618 0.73844 0.0
C489 C 0.98097 0.63985 0.7367 0.0
C490 C 0.0509 0.59683 0.73471 0.0
H491 H 0.0442 0.51725 0.70119 0.0
C492 C 0.07192 0.5948 0.75638 0.0
C493 C 0.04146 0.56899 0.71434 0.0
C494 C 0.02047 0.57077 0.69008 0.0
C495 C 0.08231 0.56467 0.75872 0.0
C496 C 0.07205 0.53627 0.7386 0.0
C497 C 0.05187 0.5389 0.71665 0.0
C498 C 0.0811 0.50299 0.74026 0.0
C499 C 0.10272 0.56255 0.78318 0.0
C500 C 0.12104 0.51094 0.74207 0.0
C501 C 0.12929 0.47949 0.74423 0.0
C502 C 0.09776 0.4394 0.74443 0.0
C503 C 0.05781 0.43151 0.74207 0.0
C504 C 0.0496 0.46301 0.73995 0.0
H505 H 0.09963 0.5802 0.79914 0.0
H506 H 0.09001 0.53106 0.78978 0.0
H507 H 0.13537 0.57496 0.77928 0.0
H508 H 0.14588 0.54151 0.7418 0.0
H509 H 0.16042 0.48668 0.74582 0.0
loop_
_geom_bond_atom_site_label_1
_geom_bond_atom_site_label_2
_geom_bond_distance
_geom_bond_site_symmetry_2
_ccdc_geom_bond_type
Mg0 O7 2.141 . S
Mg0 O8 2.048 . S
Mg0 O9 2.048 . S
Mg0 O12 2.141 . S
C1 O2 1.313 . S
C1 O8 1.195 . S
O2 C1 1.313 . S
C3 O4 1.245 . S
C3 O12 1.289 1_565 S
O4 C3 1.245 . S
C5 O6 1.245 1_545 S
C5 O7 1.289 . S
O6 C5 1.245 1_565 S
O7 Mg0 2.141 . S
O7 C5 1.289 . S
O8 Mg0 2.048 . S
O8 C1 1.195 . S
O9 Mg0 2.048 . S
O9 C10 1.195 . S
C10 O9 1.195 . S
C10 O11 1.313 1_545 S
O11 C10 1.313 1_565 S
O12 Mg0 2.141 . S
O12 C3 1.289 1_545 S
Mg13 O20 2.141 . S
Mg13 O21 2.048 . S
Mg13 O22 2.048 . S
Mg13 O25 2.141 . S
C14 O15 1.313 . S
C14 O21 1.195 . S
O15 C14 1.313 . S
C16 O17 1.245 . S
C16 O25 1.289 . S
O17 C16 1.245 . S
C18 O19 1.245 . S
C18 O20 1.289 . S
O19 C18 1.245 . S
O20 Mg13 2.141 . S
O20 C18 1.289 . S
O21 Mg13 2.048 . S
O21 C14 1.195 . S
O22 Mg13 2.048 . S
O22 C23 1.195 . S
C23 O22 1.195 . S
C23 O24 1.313 . S
O24 C23 1.313 . S
O25 Mg13 2.141 . S
O25 C16 1.289 . S
Mg26 O33 2.141 . S
Mg26 O34 2.043 1_455 S
Mg26 O35 2.048 . S
Mg26 O38 2.141 . S
C27 O28 1.313 . S
C27 O34 1.191 1_455 S
O28 C27 1.313 . S
C29 O30 1.245 . S
C29 O38 1.289 . S
O30 C29 1.245 . S
C31 O32 1.245 . S
C31 O33 1.289 . S
O32 C31 1.245 . S
O33 Mg26 2.141 . S
O33 C31 1.289 . S
O34 Mg26 2.043 1_655 S
O34 C27 1.191 1_655 S
O35 Mg26 2.048 . S
O35 C36 1.195 . S
C36 O35 1.195 . S
C36 O37 1.313 . S
O37 C36 1.313 . S
O38 Mg26 2.141 . S
O38 C29 1.289 . S
Mg39 O46 2.141 . S
Mg39 O47 2.048 . S
Mg39 O48 2.048 . S
Mg39 O51 2.141 . S
C40 O41 1.313 . S
C40 O47 1.195 . S
O41 C40 1.313 . S
C42 O43 1.245 . S
C42 O51 1.289 . S
O43 C42 1.245 . S
C44 O45 1.245 . S
C44 O46 1.289 . S
O45 C44 1.245 . S
O46 Mg39 2.141 . S
O46 C44 1.289 . S
O47 Mg39 2.048 . S
O47 C40 1.195 . S
O48 Mg39 2.048 . S
O48 C49 1.195 . S
C49 O48 1.195 . S
C49 O50 1.313 . S
O50 C49 1.313 . S
O51 Mg39 2.141 . S
O51 C42 1.289 . S
Mg52 O59 2.141 . S
Mg52 O60 2.048 . S
Mg52 O61 2.048 . S
Mg52 O64 2.141 . S
C53 O54 1.313 . S
C53 O60 1.195 . S
O54 C53 1.313 . S
C55 O56 1.245 . S
C55 O64 1.289 . S
O56 C55 1.245 . S
C57 O58 1.245 . S
C57 O59 1.289 . S
O58 C57 1.245 . S
O59 Mg52 2.141 . S
O59 C57 1.289 . S
O60 Mg52 2.048 . S
O60 C53 1.195 . S
O61 Mg52 2.048 . S
O61 C62 1.195 . S
C62 O61 1.195 . S
C62 O63 1.313 . S
O63 C62 1.313 . S
O64 Mg52 2.141 . S
O64 C55 1.289 . S
Mg65 O72 2.141 . S
Mg65 O73 2.048 . S
Mg65 O74 2.048 . S
Mg65 O77 2.141 . S
C66 O67 1.313 . S
C66 O73 1.195 . S
O67 C66 1.313 . S
C68 O69 1.245 . S
C68 O77 1.289 1_655 S
O69 C68 1.245 . S
C70 O71 1.245 1_455 S
C70 O72 1.289 . S
O71 C70 1.245 1_655 S
O72 Mg65 2.141 . S
O72 C70 1.289 . S
O73 Mg65 2.048 . S
O73 C66 1.195 . S
O74 Mg65 2.048 . S
O74 C75 1.195 . S
C75 O74 1.195 . S
C75 O76 1.313 1_455 S
O76 C75 1.313 1_655 S
O77 Mg65 2.141 . S
O77 C68 1.289 1_455 S
H78 C86 0.929 . S
H79 C88 0.930 . S
H80 C90 0.930 . S
H81 C93 0.929 . S
H82 C96 0.930 . S
H83 C98 0.960 . S
H84 C98 0.960 . S
H85 C98 0.960 . S
C86 H78 0.929 . S
C86 C87 1.377 . S
C86 C88 1.384 . S
C87 C86 1.377 . S
C87 C93 1.390 . S
C88 H79 0.930 . S
C88 C86 1.384 . S
C88 C89 1.372 . S
C89 C88 1.372 . S
C89 C90 1.400 . S
C89 C94 1.490 . S
C90 H80 0.930 . S
C90 C89 1.400 . S
C90 C93 1.386 . S
H91 C107 0.930 . S
H92 C108 0.931 . S
C93 H81 0.929 . S
C93 C87 1.390 . S
C93 C90 1.386 . S
C94 C89 1.490 . S
C94 C96 1.395 . S
C94 C97 1.403 . S
H95 C101 0.930 . S
C96 H82 0.930 . S
C96 C94 1.395 . S
C96 C99 1.403 . S
C97 C94 1.403 . S
C97 C98 1.524 . S
C97 C101 1.400 . S
C98 H83 0.960 . S
C98 H84 0.960 . S
C98 H85 0.960 . S
C98 C97 1.524 . S
C99 C96 1.403 . S
C99 C100 1.392 . S
C99 C103 1.495 . S
C100 C99 1.392 . S
C100 C101 1.385 . S
C100 C102 1.478 . S
C101 H95 0.930 . S
C101 C97 1.400 . S
C101 C100 1.385 . S
C102 C100 1.478 . S
C102 C104 1.381 . S
C102 C108 1.383 . S
C103 C99 1.495 . S
C103 H109 0.959 . S
C103 H110 0.961 . S
C103 H111 0.960 . S
C104 C102 1.381 . S
C104 C105 1.394 . S
C104 H112 0.930 . S
C105 C104 1.394 . S
C105 C106 1.383 . S
C105 H113 0.929 . S
C106 C105 1.383 . S
C106 C107 1.377 . S
C107 H91 0.930 . S
C107 C106 1.377 . S
C107 C108 1.379 . S
C108 H92 0.931 . S
C108 C102 1.383 . S
C108 C107 1.379 . S
H109 C103 0.959 . S
H110 C103 0.961 . S
H111 C103 0.960 . S
H112 C104 0.930 . S
H113 C105 0.929 . S
H114 C122 0.929 . S
H115 C124 0.930 . S
H116 C126 0.930 . S
H117 C129 0.929 . S
H118 C132 0.930 . S
H119 C134 0.960 . S
H120 C134 0.960 . S
H121 C134 0.960 . S
C122 H114 0.929 . S
C122 C123 1.377 . S
C122 C124 1.384 . S
C123 C122 1.377 . S
C123 C129 1.390 . S
C124 H115 0.930 . S
C124 C122 1.384 . S
C124 C125 1.372 . S
C125 C124 1.372 . S
C125 C126 1.400 . S
C125 C130 1.490 . S
C126 H116 0.930 . S
C126 C125 1.400 . S
C126 C129 1.386 . S
H127 C143 0.930 . S
H128 C144 0.931 . S
C129 H117 0.929 . S
C129 C123 1.390 . S
C129 C126 1.386 . S
C130 C125 1.490 . S
C130 C132 1.395 . S
C130 C133 1.403 . S
H131 C137 0.930 . S
C132 H118 0.930 . S
C132 C130 1.395 . S
C132 C135 1.403 . S
C133 C130 1.403 . S
C133 C134 1.524 . S
C133 C137 1.400 . S
C134 H119 0.960 . S
C134 H120 0.960 . S
C134 H121 0.960 . S
C134 C133 1.524 . S
C135 C132 1.403 . S
C135 C136 1.392 . S
C135 C139 1.495 . S
C136 C135 1.392 . S
C136 C137 1.385 . S
C136 C138 1.478 . S
C137 H131 0.930 . S
C137 C133 1.400 . S
C137 C136 1.385 . S
C138 C136 1.478 . S
C138 C140 1.381 . S
C138 C144 1.383 . S
C139 C135 1.495 . S
C139 H145 0.959 . S
C139 H146 0.961 . S
C139 H147 0.960 . S
C140 C138 1.381 . S
C140 C141 1.394 . S
C140 H148 0.930 . S
C141 C140 1.394 . S
C141 C142 1.383 . S
C141 H149 0.929 . S
C142 C141 1.383 . S
C142 C143 1.377 . S
C143 H127 0.930 . S
C143 C142 1.377 . S
C143 C144 1.379 . S
C144 H128 0.931 . S
C144 C138 1.383 . S
C144 C143 1.379 . S
H145 C139 0.959 . S
H146 C139 0.961 . S
H147 C139 0.960 . S
H148 C140 0.930 . S
H149 C141 0.929 . S
H150 C158 0.929 . S
H151 C160 0.930 . S
H152 C162 0.930 . S
H153 C165 0.929 . S
H154 C168 0.930 . S
H155 C170 0.960 . S
H156 C170 0.960 . S
H157 C170 0.960 . S
C158 H150 0.929 . S
C158 C159 1.377 . S
C158 C160 1.384 . S
C159 C158 1.377 . S
C159 C165 1.390 . S
C160 H151 0.930 . S
C160 C158 1.384 . S
C160 C161 1.372 . S
C161 C160 1.372 . S
C161 C162 1.400 . S
C161 C166 1.490 . S
C162 H152 0.930 . S
C162 C161 1.400 . S
C162 C165 1.386 . S
H163 C179 0.930 . S
H164 C180 0.931 . S
C165 H153 0.929 . S
C165 C159 1.390 . S
C165 C162 1.386 . S
C166 C161 1.490 . S
C166 C168 1.395 . S
C166 C169 1.403 . S
H167 C173 0.930 . S
C168 H154 0.930 . S
C168 C166 1.395 . S
C168 C171 1.403 . S
C169 C166 1.403 . S
C169 C170 1.524 . S
C169 C173 1.400 . S
C170 H155 0.960 . S
C170 H156 0.960 . S
C170 H157 0.960 . S
C170 C169 1.524 . S
C171 C168 1.403 . S
C171 C172 1.392 . S
C171 C175 1.495 . S
C172 C171 1.392 . S
C172 C173 1.385 . S
C172 C174 1.478 . S
C173 H167 0.930 . S
C173 C169 1.400 . S
C173 C172 1.385 . S
C174 C172 1.478 . S
C174 C176 1.381 . S
C174 C180 1.383 . S
C175 C171 1.495 . S
C175 H181 0.959 . S
C175 H182 0.961 . S
C175 H183 0.960 . S
C176 C174 1.381 . S
C176 C177 1.394 . S
C176 H184 0.930 . S
C177 C176 1.394 . S
C177 C178 1.383 . S
C177 H185 0.929 . S
C178 C177 1.383 . S
C178 C179 1.377 1_655 S
C179 H163 0.930 . S
C179 C178 1.377 1_455 S
C179 C180 1.379 1_455 S
C180 H164 0.931 . S
C180 C174 1.383 . S
C180 C179 1.379 1_655 S
H181 C175 0.959 . S
H182 C175 0.961 . S
H183 C175 0.960 . S
H184 C176 0.930 . S
H185 C177 0.929 . S
H186 C194 0.929 . S
H187 C196 0.930 . S
H188 C198 0.930 . S
H189 C201 0.929 . S
H190 C204 0.930 . S
H191 C206 0.960 . S
H192 C206 0.960 . S
H193 C206 0.960 . S
C194 H186 0.929 . S
C194 C195 1.377 . S
C194 C196 1.384 . S
C195 C194 1.377 . S
C195 C201 1.390 1_545 S
C196 H187 0.930 . S
C196 C194 1.384 . S
C196 C197 1.372 1_545 S
C197 C196 1.372 1_565 S
C197 C198 1.400 . S
C197 C202 1.490 . S
C198 H188 0.930 . S
C198 C197 1.400 . S
C198 C201 1.386 . S
H199 C215 0.930 . S
H200 C216 0.931 . S
C201 H189 0.929 . S
C201 C195 1.390 1_565 S
C201 C198 1.386 . S
C202 C197 1.490 . S
C202 C204 1.395 . S
C202 C205 1.403 . S
H203 C209 0.930 . S
C204 H190 0.930 . S
C204 C202 1.395 . S
C204 C207 1.403 . S
C205 C202 1.403 . S
C205 C206 1.524 . S
C205 C209 1.400 . S
C206 H191 0.960 . S
C206 H192 0.960 . S
C206 H193 0.960 . S
C206 C205 1.524 . S
C207 C204 1.403 . S
C207 C208 1.392 . S
C207 C211 1.495 . S
C208 C207 1.392 . S
C208 C209 1.385 . S
C208 C210 1.478 . S
C209 H203 0.930 . S
C209 C205 1.400 . S
C209 C208 1.385 . S
C210 C208 1.478 . S
C210 C212 1.381 . S
C210 C216 1.383 . S
C211 C207 1.495 . S
C211 H217 0.959 . S
C211 H218 0.961 . S
C211 H219 0.960 . S
C212 C210 1.381 . S
C212 C213 1.394 . S
C212 H220 0.930 . S
C213 C212 1.394 . S
C213 C214 1.383 . S
C213 H221 0.929 . S
C214 C213 1.383 . S
C214 C215 1.377 . S
C215 H199 0.930 . S
C215 C214 1.377 . S
C215 C216 1.379 . S
C216 H200 0.931 . S
C216 C210 1.383 . S
C216 C215 1.379 . S
H217 C211 0.959 . S
H218 C211 0.961 . S
H219 C211 0.960 . S
H220 C212 0.930 . S
H221 C213 0.929 . S
H222 C230 0.929 . S
H223 C232 0.930 . S
H224 C234 0.930 . S
H225 C237 0.929 . S
H226 C240 0.930 . S
H227 C242 0.960 . S
H228 C242 0.960 . S
H229 C242 0.960 . S
C230 H222 0.929 . S
C230 C231 1.377 . S
C230 C232 1.384 . S
C231 C230 1.377 . S
C231 C237 1.390 . S
C232 H223 0.930 . S
C232 C230 1.384 . S
C232 C233 1.372 . S
C233 C232 1.372 . S
C233 C234 1.400 . S
C233 C238 1.490 . S
C234 H224 0.930 . S
C234 C233 1.400 . S
C234 C237 1.386 . S
H235 C251 0.930 . S
H236 C252 0.931 . S
C237 H225 0.929 . S
C237 C231 1.390 . S
C237 C234 1.386 . S
C238 C233 1.490 . S
C238 C240 1.395 . S
C238 C241 1.403 . S
H239 C245 0.930 . S
C240 H226 0.930 . S
C240 C238 1.395 . S
C240 C243 1.403 . S
C241 C238 1.403 . S
C241 C242 1.524 . S
C241 C245 1.400 . S
C242 H227 0.960 . S
C242 H228 0.960 . S
C242 H229 0.960 . S
C242 C241 1.524 . S
C243 C240 1.403 . S
C243 C244 1.392 . S
C243 C247 1.495 . S
C244 C243 1.392 . S
C244 C245 1.385 . S
C244 C246 1.478 . S
C245 H239 0.930 . S
C245 C241 1.400 . S
C245 C244 1.385 . S
C246 C244 1.478 . S
C246 C248 1.381 . S
C246 C252 1.383 . S
C247 C243 1.495 . S
C247 H253 0.959 . S
C247 H254 0.961 . S
C247 H255 0.960 . S
C248 C246 1.381 . S
C248 C249 1.394 . S
C248 H256 0.930 . S
C249 C248 1.394 . S
C249 C250 1.383 . S
C249 H257 0.929 . S
C250 C249 1.383 . S
C250 C251 1.377 . S
C251 H235 0.930 . S
C251 C250 1.377 . S
C251 C252 1.379 . S
C252 H236 0.931 . S
C252 C246 1.383 . S
C252 C251 1.379 . S
H253 C247 0.959 . S
H254 C247 0.961 . S
H255 C247 0.960 . S
H256 C248 0.930 . S
H257 C249 0.929 . S
H258 C266 0.929 . S
H259 C268 0.930 . S
H260 C270 0.930 . S
H261 C273 0.929 . S
H262 C276 0.930 . S
H263 C278 0.960 . S
H264 C278 0.960 . S
H265 C278 0.960 . S
C266 H258 0.929 . S
C266 C267 1.377 . S
C266 C268 1.384 . S
C267 C266 1.377 . S
C267 C273 1.390 . S
C268 H259 0.930 . S
C268 C266 1.384 . S
C268 C269 1.372 . S
C269 C268 1.372 . S
C269 C270 1.400 . S
C269 C274 1.490 . S
C270 H260 0.930 . S
C270 C269 1.400 . S
C270 C273 1.386 . S
H271 C287 0.930 . S
H272 C288 0.931 . S
C273 H261 0.929 . S
C273 C267 1.390 . S
C273 C270 1.386 . S
C274 C269 1.490 . S
C274 C276 1.395 . S
C274 C277 1.403 . S
H275 C281 0.930 . S
C276 H262 0.930 . S
C276 C274 1.395 . S
C276 C279 1.403 . S
C277 C274 1.403 . S
C277 C278 1.524 . S
C277 C281 1.400 . S
C278 H263 0.960 . S
C278 H264 0.960 . S
C278 H265 0.960 . S
C278 C277 1.524 . S
C279 C276 1.403 . S
C279 C280 1.392 . S
C279 C283 1.495 . S
C280 C279 1.392 . S
C280 C281 1.385 . S
C280 C282 1.478 . S
C281 H275 0.930 . S
C281 C277 1.400 . S
C281 C280 1.385 . S
C282 C280 1.478 . S
C282 C284 1.381 . S
C282 C288 1.383 . S
C283 C279 1.495 . S
C283 H289 0.959 . S
C283 H290 0.961 . S
C283 H291 0.960 . S
C284 C282 1.381 . S
C284 C285 1.394 . S
C284 H292 0.930 . S
C285 C284 1.394 . S
C285 C286 1.383 . S
C285 H293 0.929 . S
C286 C285 1.383 . S
C286 C287 1.377 . S
C287 H271 0.930 . S
C287 C286 1.377 . S
C287 C288 1.379 . S
C288 H272 0.931 . S
C288 C282 1.383 . S
C288 C287 1.379 . S
H289 C283 0.959 . S
H290 C283 0.961 . S
H291 C283 0.960 . S
H292 C284 0.930 . S
H293 C285 0.929 . S
H294 C302 0.929 1_565 S
H295 C304 0.930 1_565 S
H296 C306 0.930 . S
H297 C309 0.929 . S
H298 C312 0.930 1_565 S
H299 C314 0.960 . S
H300 C314 0.960 . S
H301 C314 0.960 . S
C302 H294 0.929 1_545 S
C302 C303 1.377 . S
C302 C304 1.384 . S
C303 C302 1.377 . S
C303 C309 1.390 . S
C304 H295 0.930 1_545 S
C304 C302 1.384 . S
C304 C305 1.372 . S
C305 C304 1.372 . S
C305 C306 1.400 . S
C305 C310 1.490 . S
C306 H296 0.930 . S
C306 C305 1.400 . S
C306 C309 1.386 . S
H307 C323 0.930 . S
H308 C324 0.931 . S
C309 H297 0.929 . S
C309 C303 1.390 . S
C309 C306 1.386 . S
C310 C305 1.490 . S
C310 C312 1.395 . S
C310 C313 1.403 . S
H311 C317 0.930 . S
C312 H298 0.930 1_545 S
C312 C310 1.395 . S
C312 C315 1.403 1_455 S
C313 C310 1.403 . S
C313 C314 1.524 . S
C313 C317 1.400 . S
C314 H299 0.960 . S
C314 H300 0.960 . S
C314 H301 0.960 . S
C314 C313 1.524 . S
C315 C312 1.403 1_655 S
C315 C316 1.392 . S
C315 C319 1.495 1_545 S
C316 C315 1.392 . S
C316 C317 1.385 1_655 S
C316 C318 1.478 . S
C317 H311 0.930 . S
C317 C313 1.400 . S
C317 C316 1.385 1_455 S
C318 C316 1.478 . S
C318 C320 1.381 . S
C318 C324 1.383 . S
C319 C315 1.495 1_565 S
C319 H325 0.959 . S
C319 H326 0.961 . S
C319 H327 0.960 . S
C320 C318 1.381 . S
C320 C321 1.394 . S
C320 H328 0.930 1_545 S
C321 C320 1.394 . S
C321 C322 1.383 . S
C321 H329 0.929 . S
C322 C321 1.383 . S
C322 C323 1.377 . S
C323 H307 0.930 . S
C323 C322 1.377 . S
C323 C324 1.379 . S
C324 H308 0.931 . S
C324 C318 1.383 . S
C324 C323 1.379 . S
H325 C319 0.959 . S
H326 C319 0.961 . S
H327 C319 0.960 . S
H328 C320 0.930 1_565 S
H329 C321 0.929 . S
H330 C338 0.929 . S
H331 C340 0.930 . S
H332 C342 0.930 . S
H333 C345 0.929 . S
H334 C348 0.930 . S
H335 C350 0.960 . S
H336 C350 0.960 . S
H337 C350 0.960 . S
C338 H330 0.929 . S
C338 C339 1.377 . S
C338 C340 1.384 . S
C339 C338 1.377 . S
C339 C345 1.390 . S
C340 H331 0.930 . S
C340 C338 1.384 . S
C340 C341 1.372 . S
C341 C340 1.372 . S
C341 C342 1.400 . S
C341 C346 1.490 1_565 S
C342 H332 0.930 . S
C342 C341 1.400 . S
C342 C345 1.386 . S
H343 C359 0.930 . S
H344 C360 0.931 . S
C345 H333 0.929 . S
C345 C339 1.390 . S
C345 C342 1.386 . S
C346 C341 1.490 1_545 S
C346 C348 1.395 . S
C346 C349 1.403 1_655 S
H347 C353 0.930 . S
C348 H334 0.930 . S
C348 C346 1.395 . S
C348 C351 1.403 1_655 S
C349 C346 1.403 1_455 S
C349 C350 1.524 1_545 S
C349 C353 1.400 . S
C350 H335 0.960 . S
C350 H336 0.960 . S
C350 H337 0.960 . S
C350 C349 1.524 1_565 S
C351 C348 1.403 1_455 S
C351 C352 1.392 . S
C351 C355 1.495 . S
C352 C351 1.392 . S
C352 C353 1.385 . S
C352 C354 1.478 . S
C353 H347 0.930 . S
C353 C349 1.400 . S
C353 C352 1.385 . S
C354 C352 1.478 . S
C354 C356 1.381 . S
C354 C360 1.383 . S
C355 C351 1.495 . S
C355 H361 0.959 . S
C355 H362 0.961 . S
C355 H363 0.960 . S
C356 C354 1.381 . S
C356 C357 1.394 . S
C356 H364 0.930 . S
C357 C356 1.394 . S
C357 C358 1.383 . S
C357 H365 0.929 . S
C358 C357 1.383 . S
C358 C359 1.377 . S
C359 H343 0.930 . S
C359 C358 1.377 . S
C359 C360 1.379 . S
C360 H344 0.931 . S
C360 C354 1.383 . S
C360 C359 1.379 . S
H361 C355 0.959 . S
H362 C355 0.961 . S
H363 C355 0.960 . S
H364 C356 0.930 . S
H365 C357 0.929 . S
H366 C374 0.929 1_655 S
H367 C376 0.929 1_655 S
H368 C378 0.930 . S
H369 C381 0.929 . S
H370 C384 0.937 . S
H371 C386 0.960 . S
H372 C386 0.960 . S
H373 C386 0.960 . S
C374 H366 0.929 1_455 S
C374 C375 1.377 . S
C374 C376 1.383 . S
C375 C374 1.377 . S
C375 C381 1.390 . S
C376 H367 0.929 1_455 S
C376 C374 1.383 . S
C376 C377 1.374 . S
C377 C376 1.374 . S
C377 C378 1.400 . S
C377 C382 1.490 . S
C378 H368 0.930 . S
C378 C377 1.400 . S
C378 C381 1.386 . S
H379 C395 0.930 . S
H380 C396 0.931 . S
C381 H369 0.929 . S
C381 C375 1.390 . S
C381 C378 1.386 . S
C382 C377 1.490 . S
C382 C384 1.395 . S
C382 C385 1.403 . S
H383 C389 0.930 . S
C384 H370 0.937 . S
C384 C382 1.395 . S
C384 C387 1.403 . S
C385 C382 1.403 . S
C385 C386 1.524 . S
C385 C389 1.400 . S
C386 H371 0.960 . S
C386 H372 0.960 . S
C386 H373 0.960 . S
C386 C385 1.524 . S
C387 C384 1.403 . S
C387 C388 1.392 . S
C387 C391 1.495 1_445 S
C388 C387 1.392 . S
C388 C389 1.385 . S
C388 C390 1.478 1_545 S
C389 H383 0.930 . S
C389 C385 1.400 . S
C389 C388 1.385 . S
C390 C388 1.478 1_565 S
C390 C392 1.381 1_455 S
C390 C396 1.383 . S
C391 C387 1.495 1_665 S
C391 H397 0.959 1_565 S
C391 H398 0.961 1_655 S
C391 H399 0.960 . S
C392 C390 1.381 1_655 S
C392 C393 1.394 . S
C392 H400 0.930 . S
C393 C392 1.394 . S
C393 C394 1.383 1_655 S
C393 H401 0.929 . S
C394 C393 1.383 1_455 S
C394 C395 1.377 . S
C395 H379 0.930 . S
C395 C394 1.377 . S
C395 C396 1.379 . S
C396 H380 0.931 . S
C396 C390 1.383 . S
C396 C395 1.379 . S
H397 C391 0.959 1_545 S
H398 C391 0.961 1_455 S
H399 C391 0.960 . S
H400 C392 0.930 . S
H401 C393 0.929 . S
H402 C410 0.929 . S
H403 C412 0.930 . S
H404 C414 0.930 . S
H405 C417 0.929 . S
H406 C420 0.930 . S
H407 C422 0.960 . S
H408 C422 0.960 . S
H409 C422 0.960 . S
C410 H402 0.929 . S
C410 C411 1.377 . S
C410 C412 1.384 . S
C411 C410 1.377 . S
C411 C417 1.390 . S
C412 H403 0.930 . S
C412 C410 1.384 . S
C412 C413 1.372 . S
C413 C412 1.372 . S
C413 C414 1.400 . S
C413 C418 1.490 . S
C414 H404 0.930 . S
C414 C413 1.400 . S
C414 C417 1.386 . S
H415 C431 0.930 . S
H416 C432 0.931 . S
C417 H405 0.929 . S
C417 C411 1.390 . S
C417 C414 1.386 . S
C418 C413 1.490 . S
C418 C420 1.395 . S
C418 C421 1.403 . S
H419 C425 0.930 . S
C420 H406 0.930 . S
C420 C418 1.395 . S
C420 C423 1.403 . S
C421 C418 1.403 . S
C421 C422 1.524 . S
C421 C425 1.400 . S
C422 H407 0.960 . S
C422 H408 0.960 . S
C422 H409 0.960 . S
C422 C421 1.524 . S
C423 C420 1.403 . S
C423 C424 1.392 . S
C423 C427 1.495 1_545 S
C424 C423 1.392 . S
C424 C425 1.385 . S
C424 C426 1.478 . S
C425 H419 0.930 . S
C425 C421 1.400 . S
C425 C424 1.385 . S
C426 C424 1.478 . S
C426 C428 1.381 . S
C426 C432 1.383 . S
C427 C423 1.495 1_565 S
C427 H433 0.959 . S
C427 H434 0.961 . S
C427 H435 0.977 . S
C428 C426 1.381 . S
C428 C429 1.394 . S
C428 H436 0.930 . S
C429 C428 1.394 . S
C429 C430 1.383 . S
C429 H437 0.929 . S
C430 C429 1.383 . S
C430 C431 1.377 . S
C431 H415 0.930 . S
C431 C430 1.377 . S
C431 C432 1.379 . S
C432 H416 0.931 . S
C432 C426 1.383 . S
C432 C431 1.379 . S
H433 C427 0.959 . S
H434 C427 0.961 . S
H435 C427 0.977 . S
H436 C428 0.930 . S
H437 C429 0.929 . S
H438 C446 0.929 . S
H439 C448 0.930 . S
H440 C450 0.930 . S
H441 C453 0.929 . S
H442 C456 0.930 . S
H443 C458 0.960 . S
H444 C458 0.960 . S
H445 C458 0.960 . S
C446 H438 0.929 . S
C446 C447 1.377 . S
C446 C448 1.384 . S
C447 C446 1.377 . S
C447 C453 1.390 . S
C448 H439 0.930 . S
C448 C446 1.384 . S
C448 C449 1.372 . S
C449 C448 1.372 . S
C449 C450 1.400 . S
C449 C454 1.490 . S
C450 H440 0.930 . S
C450 C449 1.400 . S
C450 C453 1.386 . S
H451 C467 0.930 . S
H452 C468 0.931 . S
C453 H441 0.929 . S
C453 C447 1.390 . S
C453 C450 1.386 . S
C454 C449 1.490 . S
C454 C456 1.395 . S
C454 C457 1.403 . S
H455 C461 0.930 . S
C456 H442 0.930 . S
C456 C454 1.395 . S
C456 C459 1.403 . S
C457 C454 1.403 . S
C457 C458 1.524 . S
C457 C461 1.400 . S
C458 H443 0.960 . S
C458 H444 0.960 . S
C458 H445 0.960 . S
C458 C457 1.524 . S
C459 C456 1.403 . S
C459 C460 1.392 . S
C459 C463 1.495 . S
C460 C459 1.392 . S
C460 C461 1.385 . S
C460 C462 1.478 . S
C461 H455 0.930 . S
C461 C457 1.400 . S
C461 C460 1.385 . S
C462 C460 1.478 . S
C462 C464 1.381 . S
C462 C468 1.383 . S
C463 C459 1.495 . S
C463 H469 0.959 . S
C463 H470 0.961 . S
C463 H471 0.960 . S
C464 C462 1.381 . S
C464 C465 1.394 . S
C464 H472 0.930 . S
C465 C464 1.394 . S
C465 C466 1.383 . S
C465 H473 0.929 . S
C466 C465 1.383 . S
C466 C467 1.377 . S
C467 H451 0.930 . S
C467 C466 1.377 . S
C467 C468 1.379 . S
C468 H452 0.931 . S
C468 C462 1.383 . S
C468 C467 1.379 . S
H469 C463 0.959 . S
H470 C463 0.961 . S
H471 C463 0.960 . S
H472 C464 0.930 . S
H473 C465 0.929 . S
H474 C482 0.929 . S
H475 C484 0.930 . S
H476 C486 0.930 . S
H477 C489 0.929 . S
H478 C492 0.930 . S
H479 C494 0.960 . S
H480 C494 0.960 . S
H481 C494 0.960 . S
C482 H474 0.929 . S
C482 C483 1.377 . S
C482 C484 1.384 . S
C483 C482 1.377 . S
C483 C489 1.390 1_455 S
C484 H475 0.930 . S
C484 C482 1.384 . S
C484 C485 1.372 . S
C485 C484 1.372 . S
C485 C486 1.400 1_455 S
C485 C490 1.490 . S
C486 H476 0.930 . S
C486 C485 1.400 1_655 S
C486 C489 1.386 . S
H487 C503 0.930 1_655 S
H488 C504 0.931 1_655 S
C489 H477 0.929 . S
C489 C483 1.390 1_655 S
C489 C486 1.386 . S
C490 C485 1.490 . S
C490 C492 1.395 . S
C490 C493 1.403 . S
H491 C497 0.930 . S
C492 H478 0.930 . S
C492 C490 1.395 . S
C492 C495 1.403 . S
C493 C490 1.403 . S
C493 C494 1.524 . S
C493 C497 1.400 . S
C494 H479 0.960 . S
C494 H480 0.960 . S
C494 H481 0.960 . S
C494 C493 1.524 . S
C495 C492 1.403 . S
C495 C496 1.392 . S
C495 C499 1.495 . S
C496 C495 1.392 . S
C496 C497 1.385 . S
C496 C498 1.478 . S
C497 H491 0.930 . S
C497 C493 1.400 . S
C497 C496 1.385 . S
C498 C496 1.478 . S
C498 C500 1.381 . S
C498 C504 1.383 . S
C499 C495 1.495 . S
C499 H505 0.959 . S
C499 H506 0.961 . S
C499 H507 0.960 . S
C500 C498 1.381 . S
C500 C501 1.394 . S
C500 H508 0.930 . S
C501 C500 1.394 . S
C501 C502 1.383 . S
C501 H509 0.929 . S
C502 C501 1.383 . S
C502 C503 1.377 . S
C503 H487 0.930 1_455 S
C503 C502 1.377 . S
C503 C504 1.379 . S
C504 H488 0.931 1_455 S
C504 C498 1.383 . S
C504 C503 1.379 . S
H505 C499 0.959 . S
H506 C499 0.961 . S
H507 C499 0.960 . S
H508 C500 0.930 . S
H509 C501 0.929 . S
C87 C1 1.749 . S
C106 C16 1.743 . S
C123 C14 1.745 . S
C142 C29 1.727 . S
C159 C42 1.748 1_556 S
C178 C27 1.758 1_655 S
C195 C40 1.745 . S
C214 C55 1.733 . S
C231 C68 1.742 . S
C250 C53 1.733 . S
C267 C3 1.742 1_556 S
C286 C66 1.734 . S
C303 C10 0.854 . S
C322 C49 0.850 . S
C339 C62 0.854 . S
C358 C23 0.852 . S
C375 C36 0.851 . S
C394 C75 0.859 . S
C411 C44 1.429 . S
C430 C5 1.423 . S
C447 C57 1.429 . S
C466 C18 1.435 . S
C483 C70 1.432 . S
C502 C31 1.425 . S
