# Generated by pormake.
# Topology lcs, (4)-cn, num edge types: 1
# Building blocks:
#     Node 0, Type 0, BuildingBlock: GALJAG_clean_sbu_0, # of connection points: 4
#     Node 1, Type 0, BuildingBlock: GALJAG_clean_sbu_0, # of connection points: 4
#     Node 2, Type 0, BuildingBlock: GALJAG_clean_sbu_0, # of connection points: 4
#     Node 3, Type 0, BuildingBlock: GALJAG_clean_sbu_0, # of connection points: 4
#     Node 4, Type 0, BuildingBlock: GALJAG_clean_sbu_0, # of connection points: 4
#     Node 5, Type 0, BuildingBlock: GALJAG_clean_sbu_0, # of connection points: 4
#     Node 6, Type 0, BuildingBlock: GALJAG_clean_sbu_0, # of connection points: 4
#     Node 7, Type 0, BuildingBlock: GALJAG_clean_sbu_0, # of connection points: 4
#     Node 8, Type 0, BuildingBlock: GALJAG_clean_sbu_0, # of connection points: 4
#     Node 9, Type 0, BuildingBlock: GALJAG_clean_sbu_0, # of connection points: 4
#     Node 10, Type 0, BuildingBlock: GALJAG_clean_sbu_0, # of connection points: 4
#     Node 11, Type 0, BuildingBlock: GALJAG_clean_sbu_0, # of connection points: 4
#     Node 12, Type 0, BuildingBlock: GALJAG_clean_sbu_0, # of connection points: 4
#     Node 13, Type 0, BuildingBlock: GALJAG_clean_sbu_0, # of connection points: 4
#     Node 14, Type 0, BuildingBlock: GALJAG_clean_sbu_0, # of connection points: 4
#     Node 15, Type 0, BuildingBlock: GALJAG_clean_sbu_0, # of connection points: 4
#     Node 16, Type 0, BuildingBlock: GALJAG_clean_sbu_0, # of connection points: 4
#     Node 17, Type 0, BuildingBlock: GALJAG_clean_sbu_0, # of connection points: 4
#     Node 18, Type 0, BuildingBlock: GALJAG_clean_sbu_0, # of connection points: 4
#     Node 19, Type 0, BuildingBlock: GALJAG_clean_sbu_0, # of connection points: 4
#     Node 20, Type 0, BuildingBlock: GALJAG_clean_sbu_0, # of connection points: 4
#     Node 21, Type 0, BuildingBlock: GALJAG_clean_sbu_0, # of connection points: 4
#     Node 22, Type 0, BuildingBlock: GALJAG_clean_sbu_0, # of connection points: 4
#     Node 23, Type 0, BuildingBlock: GALJAG_clean_sbu_0, # of connection points: 4
#     Edge 24, Type (0, 0), BuildingBlock: KIFKEQ_clean_linker_1, # of connection points: 2
#     Edge 25, Type (0, 0), BuildingBlock: KIFKEQ_clean_linker_1, # of connection points: 2
#     Edge 26, Type (0, 0), BuildingBlock: KIFKEQ_clean_linker_1, # of connection points: 2
#     Edge 27, Type (0, 0), BuildingBlock: KIFKEQ_clean_linker_1, # of connection points: 2
#     Edge 28, Type (0, 0), BuildingBlock: KIFKEQ_clean_linker_1, # of connection points: 2
#     Edge 29, Type (0, 0), BuildingBlock: KIFKEQ_clean_linker_1, # of connection points: 2
#     Edge 30, Type (0, 0), BuildingBlock: KIFKEQ_clean_linker_1, # of connection points: 2
#     Edge 31, Type (0, 0), BuildingBlock: KIFKEQ_clean_linker_1, # of connection points: 2
#     Edge 32, Type (0, 0), BuildingBlock: KIFKEQ_clean_linker_1, # of connection points: 2
#     Edge 33, Type (0, 0), BuildingBlock: KIFKEQ_clean_linker_1, # of connection points: 2
#     Edge 34, Type (0, 0), BuildingBlock: KIFKEQ_clean_linker_1, # of connection points: 2
#     Edge 35, Type (0, 0), BuildingBlock: KIFKEQ_clean_linker_1, # of connection points: 2
#     Edge 36, Type (0, 0), BuildingBlock: KIFKEQ_clean_linker_1, # of connection points: 2
#     Edge 37, Type (0, 0), BuildingBlock: KIFKEQ_clean_linker_1, # of connection points: 2
#     Edge 38, Type (0, 0), BuildingBlock: KIFKEQ_clean_linker_1, # of connection points: 2
#     Edge 39, Type (0, 0), BuildingBlock: KIFKEQ_clean_linker_1, # of connection points: 2
#     Edge 40, Type (0, 0), BuildingBlock: KIFKEQ_clean_linker_1, # of connection points: 2
#     Edge 41, Type (0, 0), BuildingBlock: KIFKEQ_clean_linker_1, # of connection points: 2
#     Edge 42, Type (0, 0), BuildingBlock: KIFKEQ_clean_linker_1, # of connection points: 2
#     Edge 43, Type (0, 0), BuildingBlock: KIFKEQ_clean_linker_1, # of connection points: 2
#     Edge 44, Type (0, 0), BuildingBlock: KIFKEQ_clean_linker_1, # of connection points: 2
#     Edge 45, Type (0, 0), BuildingBlock: KIFKEQ_clean_linker_1, # of connection points: 2
#     Edge 46, Type (0, 0), BuildingBlock: KIFKEQ_clean_linker_1, # of connection points: 2
#     Edge 47, Type (0, 0), BuildingBlock: KIFKEQ_clean_linker_1, # of connection points: 2
#     Edge 48, Type (0, 0), BuildingBlock: KIFKEQ_clean_linker_1, # of connection points: 2
#     Edge 49, Type (0, 0), BuildingBlock: KIFKEQ_clean_linker_1, # of connection points: 2
#     Edge 50, Type (0, 0), BuildingBlock: KIFKEQ_clean_linker_1, # of connection points: 2
#     Edge 51, Type (0, 0), BuildingBlock: KIFKEQ_clean_linker_1, # of connection points: 2
#     Edge 52, Type (0, 0), BuildingBlock: KIFKEQ_clean_linker_1, # of connection points: 2
#     Edge 53, Type (0, 0), BuildingBlock: KIFKEQ_clean_linker_1, # of connection points: 2
#     Edge 54, Type (0, 0), BuildingBlock: KIFKEQ_clean_linker_1, # of connection points: 2
#     Edge 55, Type (0, 0), BuildingBlock: KIFKEQ_clean_linker_1, # of connection points: 2
#     Edge 56, Type (0, 0), BuildingBlock: KIFKEQ_clean_linker_1, # of connection points: 2
#     Edge 57, Type (0, 0), BuildingBlock: KIFKEQ_clean_linker_1, # of connection points: 2
#     Edge 58, Type (0, 0), BuildingBlock: KIFKEQ_clean_linker_1, # of connection points: 2
#     Edge 59, Type (0, 0), BuildingBlock: KIFKEQ_clean_linker_1, # of connection points: 2
#     Edge 60, Type (0, 0), BuildingBlock: KIFKEQ_clean_linker_1, # of connection points: 2
#     Edge 61, Type (0, 0), BuildingBlock: KIFKEQ_clean_linker_1, # of connection points: 2
#     Edge 62, Type (0, 0), BuildingBlock: KIFKEQ_clean_linker_1, # of connection points: 2
#     Edge 63, Type (0, 0), BuildingBlock: KIFKEQ_clean_linker_1, # of connection points: 2
#     Edge 64, Type (0, 0), BuildingBlock: KIFKEQ_clean_linker_1, # of connection points: 2
#     Edge 65, Type (0, 0), BuildingBlock: KIFKEQ_clean_linker_1, # of connection points: 2
#     Edge 66, Type (0, 0), BuildingBlock: KIFKEQ_clean_linker_1, # of connection points: 2
#     Edge 67, Type (0, 0), BuildingBlock: KIFKEQ_clean_linker_1, # of connection points: 2
#     Edge 68, Type (0, 0), BuildingBlock: KIFKEQ_clean_linker_1, # of connection points: 2
#     Edge 69, Type (0, 0), BuildingBlock: KIFKEQ_clean_linker_1, # of connection points: 2
#     Edge 70, Type (0, 0), BuildingBlock: KIFKEQ_clean_linker_1, # of connection points: 2
#     Edge 71, Type (0, 0), BuildingBlock: KIFKEQ_clean_linker_1, # of connection points: 2
# Relax obj value: 0.033
# Max RMSD: 0.061
# Mean RMSD: 0.060
data_MOF--net-lcs--node1-GALJAG_clean_sbu_0--edge1-KIFKEQ_clean_linker_1
_symmetry_space_group_name_H-M    P1
_symmetry_Int_Tables_number       1
_symmetry_cell_setting            triclinic
loop_
_symmetry_equiv_pos_as_xyz
'x, y, z'
_cell_length_a     50.515426
_cell_length_b     50.51734
_cell_length_c     50.517692
_cell_angle_alpha  90.123053
_cell_angle_beta   90.120499
_cell_angle_gamma 90.078904
loop_
_atom_site_label
_atom_site_type_symbol
_atom_site_fract_x
_atom_site_fract_y
_atom_site_fract_z
_atom_type_partial_charge
In0 In 1.00043 0.25211 0.37655 0.0
O1 O 0.02665 0.24485 0.41283 0.0
O2 O 0.03955 0.2299 0.37565 0.0
C3 C 0.95653 0.27193 0.39988 0.0
C4 C 0.02192 0.29539 0.3538 0.0
C5 C 0.98068 0.20886 0.35183 0.0
O6 O 0.97327 0.25827 0.41241 0.0
O7 O 0.9619 0.27537 0.37579 0.0
O8 O 0.9885 0.22902 0.33932 0.0
O9 O 0.98264 0.21067 0.37667 0.0
C10 C 0.04414 0.23233 0.4001 0.0
O11 O 0.01125 0.27711 0.3404 0.0
O12 O 0.02186 0.29168 0.37848 0.0
In13 In 0.00136 0.75229 0.62568 0.0
O14 O 0.02702 0.74207 0.58988 0.0
O15 O 0.04154 0.73213 0.62814 0.0
C16 C 0.95738 0.77031 0.60088 0.0
C17 C 0.98243 0.70833 0.6492 0.0
C18 C 0.02128 0.79606 0.64949 0.0
O19 O 0.97831 0.76464 0.58853 0.0
O20 O 0.95868 0.76687 0.62553 0.0
O21 O 0.01122 0.77724 0.66241 0.0
O22 O 0.02114 0.79282 0.62477 0.0
C23 C 0.04541 0.73196 0.60347 0.0
O24 O 0.98748 0.72929 0.66192 0.0
O25 O 0.98689 0.70957 0.62465 0.0
In26 In 0.50253 0.75274 0.87619 0.0
O27 O 0.52905 0.74547 0.91248 0.0
O28 O 0.54232 0.73187 0.87503 0.0
C29 C 0.45803 0.77161 0.89873 0.0
C30 C 0.52159 0.7966 0.85237 0.0
C31 C 0.48174 0.70898 0.85345 0.0
O32 O 0.47641 0.76121 0.91216 0.0
O33 O 0.46221 0.77244 0.87411 0.0
O34 O 0.4915 0.72765 0.84002 0.0
O35 O 0.48247 0.71247 0.87817 0.0
C36 C 0.54691 0.73383 0.89947 0.0
O37 O 0.51624 0.77569 0.83968 0.0
O38 O 0.51737 0.79531 0.87693 0.0
In39 In 0.50187 0.25008 0.12825 0.0
O40 O 0.52386 0.2364 0.09107 0.0
O41 O 0.5455 0.2391 0.12711 0.0
C42 C 0.45724 0.26792 0.10478 0.0
C43 C 0.48433 0.20644 0.15382 0.0
C44 C 0.52106 0.29403 0.15191 0.0
O45 O 0.47693 0.25998 0.09162 0.0
O46 O 0.46008 0.26664 0.12954 0.0
O47 O 0.51946 0.27205 0.16367 0.0
O48 O 0.51305 0.2938 0.12822 0.0
C49 C 0.54578 0.23348 0.10278 0.0
O50 O 0.48576 0.22881 0.16484 0.0
O51 O 0.4918 0.20608 0.13005 0.0
In52 In 0.00253 0.75217 0.12937 0.0
O53 O 0.01348 0.72663 0.16515 0.0
O54 O 0.02196 0.71165 0.12676 0.0
C55 C 0.98383 0.79577 0.15408 0.0
C56 C 0.04679 0.77121 0.10637 0.0
C57 C 0.95792 0.73381 0.10597 0.0
O58 O 0.99057 0.77519 0.16654 0.0
O59 O 0.98648 0.79426 0.1293 0.0
O60 O 0.97588 0.74547 0.09312 0.0
O61 O 0.9625 0.73156 0.13039 0.0
C62 C 0.02282 0.70794 0.15143 0.0
O63 O 0.02837 0.76051 0.09318 0.0
O64 O 0.04282 0.77225 0.13101 0.0
In65 In 0.50188 0.75079 0.37663 0.0
O66 O 0.47964 0.73698 0.41358 0.0
O67 O 0.46037 0.73325 0.37632 0.0
C68 C 0.54411 0.77377 0.40014 0.0
C69 C 0.5227 0.70778 0.35237 0.0
C70 C 0.48097 0.79411 0.35363 0.0
O71 O 0.52683 0.76118 0.41307 0.0
O72 O 0.53996 0.77485 0.37554 0.0
O73 O 0.49444 0.77737 0.34083 0.0
O74 O 0.47819 0.78899 0.37792 0.0
C75 C 0.45915 0.72997 0.40102 0.0
O76 O 0.50796 0.72396 0.34038 0.0
O77 O 0.52681 0.71331 0.37634 0.0
In78 In 0.50064 0.25182 0.62488 0.0
O79 O 0.5109 0.22708 0.66152 0.0
O80 O 0.51753 0.21012 0.62362 0.0
C81 C 0.48442 0.29566 0.65092 0.0
C82 C 0.54428 0.27115 0.60103 0.0
C83 C 0.45689 0.23455 0.5989 0.0
O84 O 0.48582 0.27329 0.66197 0.0
O85 O 0.49134 0.29586 0.62696 0.0
O86 O 0.47936 0.23557 0.58814 0.0
O87 O 0.45649 0.2423 0.6226 0.0
C88 C 0.51894 0.20739 0.64838 0.0
O89 O 0.52213 0.26967 0.58947 0.0
O90 O 0.54438 0.26294 0.62462 0.0
In91 In 0.00145 0.2521 0.87787 0.0
O92 O 0.98034 0.2359 0.91445 0.0
O93 O 0.95886 0.23741 0.87826 0.0
C94 C 0.04507 0.27244 0.90137 0.0
C95 C 0.01892 0.20764 0.85395 0.0
C96 C 0.98288 0.29626 0.85425 0.0
O97 O 0.02343 0.26966 0.91351 0.0
O98 O 0.04461 0.26508 0.87751 0.0
O99 O 0.99525 0.27863 0.84156 0.0
O100 O 0.98008 0.29158 0.87858 0.0
C101 C 0.95878 0.23154 0.90251 0.0
O102 O 0.00749 0.2259 0.84126 0.0
O103 O 0.02126 0.21184 0.87846 0.0
In104 In 0.37649 1.00071 0.25232 0.0
O105 O 0.33995 0.01494 0.2748 0.0
O106 O 0.37685 0.01481 0.29516 0.0
C107 C 0.35366 0.98172 0.20762 0.0
C108 C 0.40173 0.0446 0.23504 0.0
C109 C 0.39884 0.95657 0.2723 0.0
O110 O 0.34024 0.99012 0.22692 0.0
O111 O 0.37835 0.98295 0.21092 0.0
O112 O 0.41236 0.9758 0.26383 0.0
O113 O 0.37409 0.95963 0.27069 0.0
C114 C 0.35238 0.0197 0.29601 0.0
O115 O 0.41382 0.02343 0.24034 0.0
O116 O 0.37706 0.04362 0.23852 0.0
In117 In 0.25038 0.12647 0.50126 0.0
O118 O 0.2333 0.09058 0.52313 0.0
O119 O 0.24048 0.12552 0.54531 0.0
C120 C 0.27008 0.10224 0.45789 0.0
C121 C 0.20606 0.15004 0.48276 0.0
C122 C 0.29447 0.15215 0.51741 0.0
O123 O 0.26787 0.09063 0.4799 0.0
O124 O 0.26237 0.12598 0.4578 0.0
O125 O 0.27288 0.16402 0.51316 0.0
O126 O 0.29377 0.12751 0.51339 0.0
C127 C 0.23231 0.10196 0.54534 0.0
O128 O 0.2253 0.16311 0.49202 0.0
O129 O 0.20918 0.12528 0.48303 0.0
In130 In 0.12623 0.00258 0.75187 0.0
O131 O 0.08973 0.02892 0.75786 0.0
O132 O 0.12629 0.04167 0.77428 0.0
C133 C 0.10345 0.9584 0.73217 0.0
C134 C 0.15051 0.02251 0.70868 0.0
C135 C 0.1492 0.98143 0.79527 0.0
O136 O 0.09041 0.97584 0.74445 0.0
O137 O 0.12785 0.96326 0.72994 0.0
O138 O 0.16254 0.99158 0.77676 0.0
O139 O 0.12448 0.98192 0.79178 0.0
C140 C 0.10202 0.04635 0.77096 0.0
O141 O 0.16308 0.01629 0.72938 0.0
O142 O 0.12585 0.01881 0.70989 0.0
In143 In 0.25166 0.87583 0.00119 0.0
O144 O 0.2257 0.83942 0.00904 0.0
O145 O 0.21452 0.87603 0.0265 0.0
C146 C 0.29408 0.85177 0.97935 0.0
C147 C 0.22986 0.89961 0.95855 0.0
C148 C 0.27353 0.90025 0.04356 0.0
O149 O 0.27777 0.83949 0.99375 0.0
O150 O 0.28886 0.87593 0.97596 0.0
O151 O 0.25854 0.9122 0.02753 0.0
O152 O 0.27754 0.87622 0.03808 0.0
C153 C 0.20939 0.85179 0.02338 0.0
O154 O 0.24448 0.91191 0.97474 0.0
O155 O 0.22618 0.87554 0.964 0.0
In156 In 0.25335 0.37591 0.0015 0.0
O157 O 0.24584 0.41153 0.02844 0.0
O158 O 0.23175 0.37384 0.04085 0.0
C159 C 0.27388 0.40018 0.95845 0.0
C160 C 0.29587 0.35153 0.02272 0.0
C161 C 0.20953 0.35281 0.98116 0.0
O162 O 0.26088 0.4126 0.97578 0.0
O163 O 0.27643 0.3758 0.96291 0.0
O164 O 0.22961 0.33966 0.98808 0.0
O165 O 0.21165 0.37748 0.98437 0.0
C166 C 0.23383 0.39824 0.04587 0.0
O167 O 0.27809 0.33903 0.01028 0.0
O168 O 0.29213 0.37615 0.02446 0.0
In169 In 0.75207 0.12704 0.00333 0.0
O170 O 0.76343 0.08934 0.02563 0.0
O171 O 0.76392 0.12573 0.04682 0.0
C172 C 0.73441 0.10388 0.95838 0.0
C173 C 0.70842 0.15161 0.02192 0.0
C174 C 0.79649 0.15145 0.98597 0.0
O175 O 0.74187 0.0906 0.97818 0.0
O176 O 0.736 0.12862 0.9613 0.0
O177 O 0.77451 0.16312 0.98759 0.0
O178 O 0.79612 0.12763 0.99326 0.0
C179 C 0.76766 0.10105 0.04734 0.0
O180 O 0.73063 0.163 0.0204 0.0
O181 O 0.70829 0.12785 0.01417 0.0
In182 In 0.12812 0.50094 0.25153 0.0
O183 O 0.16449 0.49321 0.22567 0.0
O184 O 0.12786 0.47597 0.21404 0.0
C185 C 0.15239 0.52279 0.29397 0.0
C186 C 0.1041 0.54353 0.22995 0.0
C187 C 0.10404 0.45845 0.27324 0.0
O188 O 0.1646 0.50845 0.27753 0.0
O189 O 0.12819 0.52614 0.28885 0.0
O190 O 0.09184 0.47461 0.25861 0.0
O191 O 0.12814 0.46384 0.27692 0.0
C192 C 0.15213 0.47908 0.20909 0.0
O193 O 0.09195 0.52739 0.24464 0.0
O194 O 0.12813 0.53805 0.2261 0.0
In195 In 0.75116 0.87806 0.50222 0.0
O196 O 0.74397 0.9145 0.52849 0.0
O197 O 0.73024 0.87728 0.5421 0.0
C198 C 0.76895 0.9024 0.45826 0.0
C199 C 0.79483 0.85266 0.52019 0.0
C200 C 0.7073 0.85565 0.48135 0.0
O201 O 0.76263 0.91498 0.47894 0.0
O202 O 0.76634 0.87759 0.45981 0.0
O203 O 0.72655 0.84212 0.48977 0.0
O204 O 0.71024 0.88038 0.48341 0.0
C205 C 0.73221 0.90176 0.54641 0.0
O206 O 0.7729 0.84111 0.51704 0.0
O207 O 0.79472 0.87687 0.51429 0.0
In208 In 0.87546 0.0015 0.25238 0.0
O209 O 0.83879 0.01873 0.23207 0.0
O210 O 0.87132 0.00773 0.20789 0.0
C211 C 0.84874 0.98526 0.29575 0.0
C212 C 0.90252 0.95818 0.23628 0.0
C213 C 0.90178 0.04531 0.26866 0.0
O214 O 0.8394 0.98305 0.27266 0.0
O215 O 0.87131 0.99587 0.29693 0.0
O216 O 0.91129 0.02233 0.27099 0.0
O217 O 0.87925 0.04615 0.25792 0.0
C218 C 0.84832 0.01731 0.20903 0.0
O219 O 0.91178 0.9813 0.23425 0.0
O220 O 0.87987 0.95696 0.24661 0.0
In221 In 0.25203 0.62715 0.50241 0.0
O222 O 0.25992 0.59085 0.52818 0.0
O223 O 0.27202 0.62858 0.5427 0.0
C224 C 0.23328 0.60391 0.45784 0.0
C225 C 0.20872 0.65038 0.52332 0.0
C226 C 0.29607 0.65087 0.48358 0.0
O227 O 0.24466 0.59089 0.47586 0.0
O228 O 0.23141 0.62835 0.4624 0.0
O229 O 0.27506 0.66351 0.48831 0.0
O230 O 0.29483 0.62641 0.48834 0.0
C231 C 0.27074 0.60394 0.54663 0.0
O232 O 0.22763 0.66359 0.51372 0.0
O233 O 0.21172 0.62562 0.52238 0.0
In234 In 0.3779 0.5015 0.7517 0.0
O235 O 0.34144 0.50746 0.72511 0.0
O236 O 0.37776 0.52484 0.71325 0.0
C237 C 0.35521 0.48199 0.79584 0.0
C238 C 0.40249 0.45827 0.73198 0.0
C239 C 0.40097 0.54478 0.77311 0.0
O240 O 0.34203 0.49371 0.77811 0.0
O241 O 0.37969 0.48015 0.79122 0.0
O242 O 0.41411 0.52706 0.76137 0.0
O243 O 0.37638 0.54058 0.77409 0.0
C244 C 0.3536 0.52123 0.70821 0.0
O245 O 0.41496 0.47886 0.7388 0.0
O246 O 0.37775 0.45959 0.73495 0.0
In247 In 0.6264 0.00357 0.75224 0.0
O248 O 0.66228 0.99692 0.72557 0.0
O249 O 0.62504 0.98176 0.71285 0.0
C250 C 0.65116 0.02342 0.79555 0.0
C251 C 0.60221 0.046 0.73063 0.0
C252 C 0.60232 0.96017 0.77222 0.0
O253 O 0.66283 0.00874 0.77908 0.0
O254 O 0.62726 0.02799 0.79014 0.0
O255 O 0.5898 0.9811 0.76684 0.0
O256 O 0.62681 0.96124 0.76766 0.0
C257 C 0.64941 0.98444 0.70806 0.0
O258 O 0.58953 0.02795 0.74235 0.0
O259 O 0.62692 0.04255 0.72976 0.0
In260 In 0.75303 0.6277 0.00101 0.0
O261 O 0.7463 0.59138 0.02726 0.0
O262 O 0.72765 0.62746 0.03815 0.0
C263 C 0.77456 0.6035 0.95843 0.0
C264 C 0.71036 0.65184 0.97967 0.0
C265 C 0.79547 0.65201 0.02287 0.0
O266 O 0.76018 0.59133 0.97481 0.0
O267 O 0.77804 0.62769 0.9636 0.0
O268 O 0.77904 0.66419 0.0085 0.0
O269 O 0.79038 0.62781 0.0262 0.0
C270 C 0.73156 0.6034 0.04347 0.0
O271 O 0.727 0.6641 0.99383 0.0
O272 O 0.7154 0.62764 0.97621 0.0
In273 In 0.87834 0.50201 0.75125 0.0
O274 O 0.91476 0.52422 0.73593 0.0
O275 O 0.87794 0.54447 0.7363 0.0
C276 C 0.90181 0.4589 0.77222 0.0
C277 C 0.85594 0.52104 0.79582 0.0
C278 C 0.85387 0.48263 0.70762 0.0
O279 O 0.91494 0.47779 0.76245 0.0
O280 O 0.87703 0.46188 0.77147 0.0
O281 O 0.84177 0.49621 0.72474 0.0
O282 O 0.87803 0.47897 0.71256 0.0
C283 C 0.9023 0.5453 0.73104 0.0
O284 O 0.84261 0.50966 0.7779 0.0
O285 O 0.88044 0.52271 0.7912 0.0
In286 In 0.75058 0.37771 0.50136 0.0
O287 O 0.72772 0.34078 0.51442 0.0
O288 O 0.70777 0.37767 0.51551 0.0
C289 C 0.79445 0.35473 0.48146 0.0
C290 C 0.73171 0.40144 0.45739 0.0
C291 C 0.7702 0.40135 0.54535 0.0
O292 O 0.77509 0.34146 0.49005 0.0
O293 O 0.79163 0.37952 0.48288 0.0
O294 O 0.76126 0.41441 0.52605 0.0
O295 O 0.76918 0.3766 0.54241 0.0
C296 C 0.70667 0.35312 0.51963 0.0
O297 O 0.73635 0.41401 0.47853 0.0
O298 O 0.73661 0.37697 0.45843 0.0
In299 In 0.62749 0.5016 0.25008 0.0
O300 O 0.59142 0.52626 0.26157 0.0
O301 O 0.6296 0.54286 0.26817 0.0
C302 C 0.60282 0.45754 0.23209 0.0
C303 C 0.65066 0.52089 0.20589 0.0
C304 C 0.65128 0.48283 0.29408 0.0
O305 O 0.59047 0.47861 0.23726 0.0
O306 O 0.62742 0.45873 0.23607 0.0
O307 O 0.6638 0.48716 0.27291 0.0
O308 O 0.62687 0.48804 0.29305 0.0
C309 C 0.60484 0.54572 0.26984 0.0
O310 O 0.66393 0.51249 0.22531 0.0
O311 O 0.62594 0.51947 0.20881 0.0
H312 H 0.05425 0.4391 0.26383 0.0
H313 H 0.12539 0.42442 0.30904 0.0
H314 H 0.03384 0.39964 0.28313 0.0
H315 H 0.10509 0.38508 0.32817 0.0
H316 H 0.04935 0.33468 0.37864 0.0
H317 H 0.06846 0.37441 0.35905 0.0
H318 H 0.0397 0.3502 0.28214 0.0
H319 H 0.0204 0.31038 0.30181 0.0
C320 C 0.06549 0.42747 0.27789 0.0
C321 C 0.09139 0.43485 0.28497 0.0
C322 C 0.05388 0.40482 0.28881 0.0
C323 C 0.06786 0.3893 0.30718 0.0
C324 C 0.09372 0.3968 0.31429 0.0
C325 C 0.10538 0.41926 0.30324 0.0
C326 C 0.0471 0.33782 0.35755 0.0
C327 C 0.03345 0.31939 0.34173 0.0
C328 C 0.05813 0.36052 0.34632 0.0
C329 C 0.05563 0.36538 0.31905 0.0
C330 C 0.04174 0.34708 0.30325 0.0
C331 C 0.03086 0.32423 0.31447 0.0
H332 H 0.90816 0.77556 0.62208 0.0
H333 H 0.95242 0.78844 0.55017 0.0
H334 H 0.86869 0.79403 0.60112 0.0
H335 H 0.91288 0.80718 0.52927 0.0
H336 H 0.84572 0.87047 0.51905 0.0
H337 H 0.88505 0.84895 0.53722 0.0
H338 H 0.83707 0.78306 0.56284 0.0
H339 H 0.79769 0.80446 0.5444 0.0
C340 C 0.90941 0.78225 0.60176 0.0
C341 C 0.93336 0.78062 0.58776 0.0
C342 C 0.88679 0.79268 0.58974 0.0
C343 C 0.88776 0.80203 0.5636 0.0
C344 C 0.91167 0.80025 0.54952 0.0
C345 C 0.93422 0.78946 0.56143 0.0
C346 C 0.8436 0.85133 0.52843 0.0
C347 C 0.81866 0.83915 0.53038 0.0
C348 C 0.86612 0.83896 0.53868 0.0
C349 C 0.86408 0.81436 0.55143 0.0
C350 C 0.83915 0.8021 0.55323 0.0
C351 C 0.81668 0.81429 0.54261 0.0
H352 H 0.37794 0.58082 0.80585 0.0
H353 H 0.45158 0.56281 0.76646 0.0
H354 H 0.39786 0.62056 0.82498 0.0
H355 H 0.4715 0.60276 0.78557 0.0
H356 H 0.48454 0.69304 0.80176 0.0
H357 H 0.46543 0.65298 0.78207 0.0
H358 H 0.43404 0.63065 0.85826 0.0
H359 H 0.45317 0.6705 0.87795 0.0
C360 C 0.39838 0.58537 0.80128 0.0
C361 C 0.41323 0.56871 0.78471 0.0
C362 C 0.4098 0.60804 0.81232 0.0
C363 C 0.43622 0.61471 0.80677 0.0
C364 C 0.45104 0.59818 0.79001 0.0
C365 C 0.43969 0.57527 0.77922 0.0
C366 C 0.47356 0.67955 0.81427 0.0
C367 C 0.4703 0.68489 0.84137 0.0
C368 C 0.46277 0.65658 0.80304 0.0
C369 C 0.44823 0.63876 0.81865 0.0
C370 C 0.44495 0.64417 0.84573 0.0
C371 C 0.45599 0.66692 0.857 0.0
H372 H 0.54977 0.21248 0.05302 0.0
H373 H 0.5959 0.2316 0.12259 0.0
H374 H 0.58923 0.19384 0.03206 0.0
H375 H 0.63522 0.213 0.10169 0.0
H376 H 0.70515 0.20019 0.04545 0.0
H377 H 0.66574 0.22154 0.06361 0.0
H378 H 0.61839 0.15429 0.03989 0.0
H379 H 0.65774 0.13295 0.02172 0.0
C380 C 0.56836 0.21285 0.06374 0.0
C381 C 0.56976 0.22342 0.08945 0.0
C382 C 0.59089 0.20207 0.05182 0.0
C383 C 0.61529 0.20195 0.06526 0.0
C384 C 0.61676 0.21305 0.09074 0.0
C385 C 0.59421 0.22356 0.10275 0.0
C386 C 0.6863 0.19003 0.04404 0.0
C387 C 0.68452 0.16488 0.03226 0.0
C388 C 0.66379 0.2022 0.05451 0.0
C389 C 0.639 0.18957 0.05317 0.0
C390 C 0.63717 0.16461 0.04097 0.0
C391 C 0.65972 0.15234 0.03072 0.0
H392 H 0.0549 0.56353 0.24048 0.0
H393 H 0.12493 0.57716 0.19349 0.0
H394 H 0.03459 0.60326 0.22165 0.0
H395 H 0.10471 0.61675 0.17478 0.0
H396 H 0.04821 0.66793 0.12578 0.0
H397 H 0.06708 0.62784 0.14483 0.0
H398 H 0.04165 0.65273 0.22255 0.0
H399 H 0.02263 0.69294 0.20344 0.0
C400 C 0.06591 0.57498 0.22611 0.0
C401 C 0.09147 0.56724 0.21841 0.0
C402 C 0.05436 0.59778 0.21547 0.0
C403 C 0.06806 0.61308 0.19672 0.0
C404 C 0.09356 0.6052 0.18897 0.0
C405 C 0.10518 0.5826 0.19977 0.0
C406 C 0.04661 0.66485 0.14693 0.0
C407 C 0.03401 0.6836 0.16314 0.0
C408 C 0.05752 0.64195 0.15784 0.0
C409 C 0.0559 0.63718 0.18519 0.0
C410 C 0.04301 0.65578 0.20138 0.0
C411 C 0.03227 0.67885 0.19047 0.0
H412 H 0.56264 0.76655 0.45048 0.0
H413 H 0.5787 0.80848 0.37782 0.0
H414 H 0.6022 0.78628 0.47058 0.0
H415 H 0.61803 0.82828 0.39795 0.0
H416 H 0.66772 0.88051 0.45451 0.0
H417 H 0.6279 0.86072 0.43532 0.0
H418 H 0.65245 0.78387 0.46333 0.0
H419 H 0.69246 0.80364 0.48242 0.0
C420 C 0.57456 0.78004 0.43887 0.0
C421 C 0.56761 0.78601 0.41261 0.0
C422 C 0.59724 0.79119 0.45031 0.0
C423 C 0.61313 0.8088 0.43581 0.0
C424 C 0.60601 0.81494 0.40964 0.0
C425 C 0.58357 0.80353 0.39811 0.0
C426 C 0.66461 0.8594 0.45658 0.0
C427 C 0.68319 0.8436 0.46991 0.0
C428 C 0.64189 0.84808 0.44551 0.0
C429 C 0.63712 0.82078 0.44785 0.0
C430 C 0.65556 0.805 0.46143 0.0
C431 C 0.67848 0.81628 0.47221 0.0
H432 H 0.45864 0.2986 0.69833 0.0
H433 H 0.4876 0.3467 0.63398 0.0
H434 H 0.43989 0.33808 0.71929 0.0
H435 H 0.46905 0.3861 0.65502 0.0
H436 H 0.45366 0.45341 0.71521 0.0
H437 H 0.47504 0.41393 0.69695 0.0
H438 H 0.4025 0.36983 0.70699 0.0
H439 H 0.38107 0.40924 0.725 0.0
C440 C 0.46119 0.31762 0.6888 0.0
C441 C 0.47449 0.31959 0.6645 0.0
C442 C 0.45037 0.34016 0.70072 0.0
C443 C 0.45299 0.36511 0.68874 0.0
C444 C 0.46691 0.36715 0.66479 0.0
C445 C 0.4774 0.34459 0.6527 0.0
C446 C 0.44234 0.43525 0.71356 0.0
C447 C 0.41569 0.4344 0.72144 0.0
C448 C 0.45453 0.41272 0.70306 0.0
C449 C 0.44043 0.38883 0.70062 0.0
C450 C 0.41391 0.38791 0.70889 0.0
C451 C 0.40162 0.4105 0.71903 0.0
H452 H 0.90885 0.22744 0.88252 0.0
H453 H 0.9554 0.21091 0.95237 0.0
H454 H 0.86976 0.20904 0.90407 0.0
H455 H 0.91618 0.19241 0.97394 0.0
H456 H 0.84692 0.13228 0.98648 0.0
H457 H 0.88643 0.15255 0.96736 0.0
H458 H 0.83991 0.21977 0.94258 0.0
H459 H 0.80038 0.19953 0.96175 0.0
C460 C 0.91071 0.2199 0.9025 0.0
C461 C 0.93517 0.22057 0.91577 0.0
C462 C 0.88829 0.20953 0.91488 0.0
C463 C 0.88993 0.19936 0.94069 0.0
C464 C 0.91441 0.19997 0.95397 0.0
C465 C 0.93679 0.21063 0.94167 0.0
C466 C 0.84518 0.15146 0.97709 0.0
C467 C 0.82057 0.16431 0.97553 0.0
C468 C 0.86781 0.1631 0.96627 0.0
C469 C 0.86621 0.18769 0.95343 0.0
C470 C 0.84165 0.20068 0.95215 0.0
C471 C 0.81908 0.18917 0.96323 0.0
H472 H 0.29499 0.05438 0.45495 0.0
H473 H 0.27021 0.12079 0.40726 0.0
H474 H 0.31419 0.03343 0.41575 0.0
H475 H 0.28931 0.0998 0.36811 0.0
H476 H 0.30246 0.03994 0.30024 0.0
H477 H 0.2817 0.05915 0.33954 0.0
H478 H 0.35244 0.04322 0.38488 0.0
H479 H 0.37324 0.02413 0.34562 0.0
C480 C 0.29357 0.06444 0.43609 0.0
C481 C 0.28115 0.08923 0.43416 0.0
C482 C 0.30465 0.05251 0.4137 0.0
C483 C 0.30323 0.065 0.3889 0.0
C484 C 0.29048 0.08962 0.38693 0.0
C485 C 0.27968 0.10168 0.40936 0.0
C486 C 0.31351 0.04046 0.31863 0.0
C487 C 0.33947 0.03059 0.31988 0.0
C488 C 0.30169 0.05156 0.34106 0.0
C489 C 0.31547 0.05267 0.36524 0.0
C490 C 0.34128 0.04241 0.36656 0.0
C491 C 0.35321 0.03162 0.34407 0.0
H492 H 0.20144 0.04014 0.70365 0.0
H493 H 0.12882 0.02888 0.65973 0.0
H494 H 0.22247 0.05838 0.66402 0.0
H495 H 0.14986 0.04692 0.62021 0.0
H496 H 0.20571 0.055 0.54878 0.0
H497 H 0.18685 0.03474 0.58846 0.0
H498 H 0.21651 0.09964 0.63578 0.0
H499 H 0.23524 0.11996 0.59615 0.0
C500 C 0.19003 0.04149 0.68553 0.0
C501 C 0.16349 0.03316 0.68477 0.0
C502 C 0.20201 0.05199 0.66291 0.0
C503 C 0.18779 0.054 0.63905 0.0
C504 C 0.16137 0.04535 0.63826 0.0
C505 C 0.14929 0.03518 0.66092 0.0
C506 C 0.2083 0.06485 0.56768 0.0
C507 C 0.22187 0.08908 0.56939 0.0
C508 C 0.19742 0.05333 0.59034 0.0
C509 C 0.2002 0.06565 0.61517 0.0
C510 C 0.21426 0.0896 0.61693 0.0
C511 C 0.22484 0.10128 0.59424 0.0
H512 H 0.20131 0.98265 0.81017 0.0
H513 H 0.12446 0.95424 0.83456 0.0
H514 H 0.2211 0.96331 0.84995 0.0
H515 H 0.14418 0.93505 0.87421 0.0
H516 H 0.19412 0.87809 0.92431 0.0
H517 H 0.17507 0.89823 0.88481 0.0
H518 H 0.22019 0.96946 0.89949 0.0
H519 H 0.23939 0.94923 0.93911 0.0
C520 C 0.18867 0.9723 0.82403 0.0
C521 C 0.16136 0.96989 0.81924 0.0
C522 C 0.19996 0.96137 0.84685 0.0
C523 C 0.18419 0.94762 0.86515 0.0
C524 C 0.15688 0.94528 0.86032 0.0
C525 C 0.14558 0.95637 0.83767 0.0
C526 C 0.19995 0.89806 0.91914 0.0
C527 C 0.2182 0.91212 0.93482 0.0
C528 C 0.18895 0.90963 0.89659 0.0
C529 C 0.1961 0.93543 0.88908 0.0
C530 C 0.21448 0.94946 0.90467 0.0
C531 C 0.22533 0.93795 0.92741 0.0
H532 H 0.31086 0.87998 0.07667 0.0
H533 H 0.2625 0.94927 0.06388 0.0
H534 H 0.32988 0.90049 0.11609 0.0
H535 H 0.28163 0.96985 0.1035 0.0
H536 H 0.30133 0.98133 0.19341 0.0
H537 H 0.28174 0.96243 0.15318 0.0
H538 H 0.35943 0.93887 0.1266 0.0
H539 H 0.37895 0.95766 0.16664 0.0
C540 C 0.30434 0.89963 0.08226 0.0
C541 C 0.28523 0.91305 0.06717 0.0
C542 C 0.31532 0.91141 0.10477 0.0
C543 C 0.30728 0.93679 0.11284 0.0
C544 C 0.28805 0.95019 0.09784 0.0
C545 C 0.27724 0.93849 0.07511 0.0
C546 C 0.31418 0.97216 0.17892 0.0
C547 C 0.34164 0.97088 0.18319 0.0
C548 C 0.303 0.96149 0.15586 0.0
C549 C 0.31906 0.9491 0.13682 0.0
C550 C 0.34653 0.94803 0.14106 0.0
C551 C 0.35771 0.95889 0.16394 0.0
H552 H 0.33094 0.37259 0.05787 0.0
H553 H 0.31368 0.30118 0.01389 0.0
H554 H 0.36969 0.35135 0.0774 0.0
H555 H 0.35273 0.27997 0.03335 0.0
H556 H 0.44319 0.267 0.05241 0.0
H557 H 0.40359 0.28643 0.03218 0.0
H558 H 0.37746 0.31291 0.10911 0.0
H559 H 0.41675 0.29343 0.12932 0.0
C560 C 0.33546 0.35236 0.05235 0.0
C561 C 0.31928 0.33851 0.03441 0.0
C562 C 0.35756 0.34019 0.06362 0.0
C563 C 0.36414 0.31402 0.05691 0.0
C564 C 0.34815 0.30022 0.03873 0.0
C565 C 0.32578 0.31229 0.02773 0.0
C566 C 0.4289 0.27687 0.06497 0.0
C567 C 0.43307 0.27877 0.09242 0.0
C568 C 0.40623 0.28786 0.05342 0.0
C569 C 0.38757 0.30125 0.06909 0.0
C570 C 0.39167 0.30293 0.09654 0.0
C571 C 0.4141 0.29167 0.1081 0.0
H572 H 0.96983 0.80166 0.206 0.0
H573 H 0.97459 0.84401 0.13197 0.0
H574 H 0.95181 0.8412 0.22742 0.0
H575 H 0.95662 0.88343 0.15335 0.0
H576 H 0.94769 0.95624 0.20668 0.0
H577 H 0.96895 0.91698 0.18795 0.0
H578 H 0.90971 0.86739 0.22442 0.0
H579 H 0.8885 0.90655 0.24314 0.0
C580 C 0.96711 0.81943 0.19435 0.0
C581 C 0.97354 0.81975 0.16731 0.0
C582 C 0.95672 0.84201 0.20657 0.0
C583 C 0.95285 0.86541 0.19206 0.0
C584 C 0.95967 0.86579 0.16511 0.0
C585 C 0.96979 0.84317 0.15284 0.0
C586 C 0.93935 0.93693 0.21084 0.0
C587 C 0.9164 0.93445 0.22629 0.0
C588 C 0.95143 0.91449 0.20002 0.0
C589 C 0.94094 0.88913 0.20467 0.0
C590 C 0.91838 0.88664 0.2207 0.0
C591 C 0.90617 0.90908 0.2313 0.0
H592 H 0.19333 0.70215 0.52008 0.0
H593 H 0.17032 0.62651 0.55253 0.0
H594 H 0.15366 0.72236 0.53921 0.0
H595 H 0.13091 0.64675 0.57178 0.0
H596 H 0.08213 0.70063 0.62738 0.0
H597 H 0.12179 0.68126 0.60773 0.0
H598 H 0.103 0.71831 0.5331 0.0
H599 H 0.06308 0.73755 0.5527 0.0
C600 C 0.17983 0.68988 0.53132 0.0
C601 C 0.1849 0.66278 0.53485 0.0
C602 C 0.1571 0.70141 0.54213 0.0
C603 C 0.13928 0.68611 0.557 0.0
C604 C 0.14444 0.65904 0.5606 0.0
C605 C 0.16693 0.64746 0.54949 0.0
C606 C 0.08647 0.70466 0.60679 0.0
C607 C 0.06951 0.72055 0.59154 0.0
C608 C 0.10909 0.69349 0.59553 0.0
C609 C 0.11542 0.69828 0.5689 0.0
C610 C 0.09866 0.71445 0.55372 0.0
C611 C 0.07578 0.72533 0.56489 0.0
H612 H 0.9619 0.70371 0.69889 0.0
H613 H 0.97917 0.65865 0.62825 0.0
H614 H 0.94336 0.66403 0.7195 0.0
H615 H 0.96089 0.61895 0.64901 0.0
H616 H 0.95111 0.54917 0.70814 0.0
H617 H 0.97155 0.58867 0.68885 0.0
H618 H 0.90273 0.63462 0.70996 0.0
H619 H 0.88219 0.59519 0.72893 0.0
C620 C 0.96185 0.68531 0.68784 0.0
C621 C 0.97189 0.68425 0.66195 0.0
C622 C 0.95117 0.66266 0.69959 0.0
C623 C 0.95071 0.63847 0.68583 0.0
C624 C 0.96119 0.63731 0.66012 0.0
C625 C 0.9715 0.66004 0.64822 0.0
C626 C 0.94042 0.56773 0.7087 0.0
C627 C 0.91506 0.56913 0.71997 0.0
C628 C 0.95205 0.59026 0.69758 0.0
C629 C 0.9387 0.61465 0.69797 0.0
C630 C 0.91353 0.6161 0.7096 0.0
C631 C 0.90174 0.59353 0.72032 0.0
H632 H 0.16668 0.1262 0.45467 0.0
H633 H 0.19126 0.20206 0.48583 0.0
H634 H 0.12754 0.1467 0.43521 0.0
H635 H 0.15185 0.2226 0.46638 0.0
H636 H 0.06205 0.24016 0.45069 0.0
H637 H 0.10137 0.22076 0.47142 0.0
H638 H 0.11921 0.17965 0.3986 0.0
H639 H 0.08013 0.19903 0.3779 0.0
C640 C 0.16366 0.14725 0.45744 0.0
C641 C 0.18205 0.16255 0.47172 0.0
C642 C 0.14132 0.15899 0.44619 0.0
C643 C 0.13672 0.18625 0.44921 0.0
C644 C 0.15485 0.20151 0.46388 0.0
C645 C 0.17742 0.1898 0.47489 0.0
C646 C 0.07442 0.22702 0.43914 0.0
C647 C 0.068 0.22105 0.41271 0.0
C648 C 0.09696 0.21604 0.45095 0.0
C649 C 0.11326 0.19863 0.43663 0.0
C650 C 0.10684 0.19278 0.41019 0.0
C651 C 0.08454 0.20397 0.39831 0.0
H652 H 0.62412 0.40834 0.227 0.0
H653 H 0.55215 0.45249 0.21369 0.0
H654 H 0.60321 0.36876 0.20861 0.0
H655 H 0.53124 0.4128 0.19514 0.0
H656 H 0.51939 0.34467 0.13341 0.0
H657 H 0.53809 0.38433 0.15406 0.0
H658 H 0.56571 0.3373 0.2198 0.0
H659 H 0.54692 0.29763 0.19924 0.0
C660 C 0.6038 0.40955 0.22022 0.0
C661 C 0.58976 0.43349 0.22173 0.0
C662 C 0.5918 0.38687 0.20984 0.0
C663 C 0.56562 0.38774 0.20046 0.0
C664 C 0.55152 0.41165 0.20206 0.0
C665 C 0.56343 0.43429 0.21277 0.0
C666 C 0.52937 0.34283 0.15232 0.0
C667 C 0.53178 0.31807 0.1647 0.0
C668 C 0.53992 0.36554 0.16419 0.0
C669 C 0.55336 0.36386 0.1885 0.0
C670 C 0.55563 0.33911 0.20095 0.0
C671 C 0.54479 0.31646 0.18924 0.0
H672 H 0.3284 0.87337 0.94402 0.0
H673 H 0.31316 0.80185 0.98818 0.0
H674 H 0.36775 0.85321 0.92485 0.0
H675 H 0.35266 0.78155 0.96882 0.0
H676 H 0.44235 0.76878 0.95049 0.0
H677 H 0.40218 0.78738 0.97013 0.0
H678 H 0.37842 0.81687 0.89351 0.0
H679 H 0.41847 0.79848 0.87396 0.0
C680 C 0.33343 0.8533 0.94958 0.0
C681 C 0.31768 0.83917 0.96757 0.0
C682 C 0.3559 0.84171 0.93849 0.0
C683 C 0.36326 0.81577 0.94527 0.0
C684 C 0.34758 0.80164 0.96338 0.0
C685 C 0.32491 0.81319 0.97433 0.0
C686 C 0.4285 0.7792 0.93787 0.0
C687 C 0.43359 0.78227 0.91072 0.0
C688 C 0.40545 0.7897 0.94908 0.0
C689 C 0.38721 0.80366 0.93337 0.0
C690 C 0.39226 0.8065 0.90618 0.0
C691 C 0.41515 0.79586 0.89497 0.0
H692 H 0.95396 0.44442 0.77029 0.0
H693 H 0.87773 0.41952 0.79986 0.0
H694 H 0.97429 0.40487 0.78957 0.0
H695 H 0.89801 0.38021 0.8191 0.0
H696 H 0.94941 0.33204 0.87637 0.0
H697 H 0.93044 0.3714 0.85602 0.0
H698 H 0.97255 0.35445 0.78366 0.0
H699 H 0.99159 0.31478 0.80407 0.0
C700 C 0.94158 0.43052 0.78089 0.0
C701 C 0.91429 0.43508 0.78366 0.0
C702 C 0.95318 0.40785 0.79177 0.0
C703 C 0.93773 0.38954 0.80589 0.0
C704 C 0.91044 0.39413 0.80856 0.0
C705 C 0.89883 0.41658 0.79746 0.0
C706 C 0.95468 0.3367 0.85613 0.0
C707 C 0.97193 0.32031 0.84177 0.0
C708 C 0.94371 0.35917 0.84445 0.0
C709 C 0.94995 0.36592 0.81824 0.0
C710 C 0.96754 0.34977 0.80396 0.0
C711 C 0.9783 0.32705 0.81558 0.0
H712 H 0.34418 0.1318 0.52164 0.0
H713 H 0.299 0.20306 0.5353 0.0
H714 H 0.38356 0.15333 0.53973 0.0
H715 H 0.3385 0.22461 0.55347 0.0
H716 H 0.4058 0.23678 0.61592 0.0
H717 H 0.36658 0.2183 0.59438 0.0
H718 H 0.41493 0.19079 0.52954 0.0
H719 H 0.45423 0.20934 0.55109 0.0
C720 C 0.34272 0.15212 0.52836 0.0
C721 C 0.31851 0.16574 0.52714 0.0
C722 C 0.3653 0.16448 0.53857 0.0
C723 C 0.36408 0.19063 0.54802 0.0
C724 C 0.33994 0.20436 0.54651 0.0
C725 C 0.3174 0.19208 0.53602 0.0
C726 C 0.40803 0.22693 0.59699 0.0
C727 C 0.43307 0.22442 0.58521 0.0
C728 C 0.38556 0.2165 0.58459 0.0
C729 C 0.38772 0.2031 0.5603 0.0
C730 C 0.41273 0.20085 0.54836 0.0
C731 C 0.43518 0.21155 0.56063 0.0
H732 H 0.55971 0.67459 0.37293 0.0
H733 H 0.51219 0.68783 0.30301 0.0
H734 H 0.57934 0.63568 0.3522 0.0
H735 H 0.53192 0.64871 0.28221 0.0
H736 H 0.55247 0.55924 0.26993 0.0
H737 H 0.53235 0.5989 0.28915 0.0
H738 H 0.60956 0.62621 0.31397 0.0
H739 H 0.62966 0.58668 0.2948 0.0
C740 C 0.55347 0.66918 0.35311 0.0
C741 C 0.53444 0.68425 0.33957 0.0
C742 C 0.56482 0.64698 0.3412 0.0
C743 C 0.55722 0.63922 0.31557 0.0
C744 C 0.53802 0.65416 0.30206 0.0
C745 C 0.52684 0.67658 0.3139 0.0
C746 C 0.56512 0.57377 0.27944 0.0
C747 C 0.59261 0.56985 0.28095 0.0
C748 C 0.55362 0.59651 0.29029 0.0
C749 C 0.56939 0.61559 0.3031 0.0
C750 C 0.5969 0.6117 0.30445 0.0
C751 C 0.6084 0.58913 0.29338 0.0
H752 H 0.06215 0.76758 0.05458 0.0
H753 H 0.08623 0.7991 0.13047 0.0
H754 H 0.10197 0.7863 0.03436 0.0
H755 H 0.12595 0.81764 0.11033 0.0
H756 H 0.17505 0.87373 0.05851 0.0
H757 H 0.13603 0.85348 0.0783 0.0
H758 H 0.15154 0.7811 0.03544 0.0
H759 H 0.19071 0.80147 0.01546 0.0
C760 C 0.07597 0.77843 0.06693 0.0
C761 C 0.07104 0.78196 0.09407 0.0
C762 C 0.09882 0.789 0.0554 0.0
C763 C 0.11703 0.80351 0.07076 0.0
C764 C 0.11213 0.80683 0.09793 0.0
C765 C 0.08945 0.7961 0.10948 0.0
C766 C 0.17018 0.85348 0.05332 0.0
C767 C 0.18595 0.83916 0.03547 0.0
C768 C 0.1479 0.84184 0.06476 0.0
C769 C 0.14077 0.81568 0.05848 0.0
C770 C 0.15646 0.80137 0.0405 0.0
C771 C 0.17893 0.81296 0.02919 0.0
H772 H 0.70088 0.87892 0.58366 0.0
H773 H 0.7381 0.95307 0.563 0.0
H774 H 0.68129 0.89963 0.62258 0.0
H775 H 0.71838 0.97387 0.6021 0.0
H776 H 0.70051 0.99065 0.69131 0.0
H777 H 0.72113 0.9712 0.65202 0.0
H778 H 0.64691 0.93392 0.63136 0.0
H779 H 0.62637 0.95322 0.67053 0.0
C780 C 0.70492 0.89965 0.58747 0.0
C781 C 0.72097 0.9144 0.57027 0.0
C782 C 0.69357 0.91154 0.60968 0.0
C783 C 0.6982 0.9384 0.61531 0.0
C784 C 0.7146 0.95309 0.59833 0.0
C785 C 0.72578 0.94123 0.57592 0.0
C786 C 0.68862 0.97836 0.67831 0.0
C787 C 0.66186 0.97337 0.68402 0.0
C788 C 0.70038 0.96735 0.65578 0.0
C789 C 0.68565 0.95095 0.63871 0.0
C790 C 0.65884 0.9462 0.64434 0.0
C791 C 0.64705 0.95736 0.6667 0.0
H792 H 0.80404 0.95483 0.29765 0.0
H793 H 0.86273 0.99252 0.34738 0.0
H794 H 0.7831 0.93581 0.33688 0.0
H795 H 0.84184 0.97351 0.38651 0.0
H796 H 0.78215 0.95448 0.45217 0.0
H797 H 0.79974 0.97595 0.41258 0.0
H798 H 0.79585 0.90155 0.37048 0.0
H799 H 0.77825 0.8801 0.40999 0.0
C800 C 0.81233 0.9592 0.31696 0.0
C801 C 0.83505 0.97509 0.31947 0.0
C802 C 0.80044 0.94821 0.33938 0.0
C803 C 0.81089 0.95312 0.36474 0.0
C804 C 0.83321 0.96956 0.36726 0.0
C805 C 0.84524 0.98034 0.34484 0.0
C806 C 0.78496 0.94276 0.43442 0.0
C807 C 0.77891 0.9156 0.43418 0.0
C808 C 0.79512 0.95502 0.41182 0.0
C809 C 0.79915 0.94043 0.38845 0.0
C810 C 0.79268 0.91336 0.38811 0.0
C811 C 0.78277 0.90106 0.41077 0.0
H812 H 0.77327 0.12145 0.097 0.0
H813 H 0.7834 0.04951 0.0518 0.0
H814 H 0.79087 0.09944 0.1362 0.0
H815 H 0.80094 0.02742 0.09113 0.0
H816 H 0.86342 0.01255 0.15748 0.0
H817 H 0.84192 0.03135 0.11854 0.0
H818 H 0.78013 0.06339 0.16808 0.0
H819 H 0.80173 0.04466 0.20713 0.0
C820 C 0.77909 0.10087 0.0955 0.0
C821 C 0.77705 0.08722 0.07132 0.0
C822 C 0.78901 0.08823 0.11799 0.0
C823 C 0.7973 0.06171 0.11674 0.0
C824 C 0.79492 0.04794 0.09263 0.0
C825 C 0.78478 0.06054 0.07016 0.0
C826 C 0.84513 0.02343 0.16003 0.0
C827 C 0.8343 0.02722 0.18535 0.0
C828 C 0.83274 0.03407 0.13771 0.0
C829 C 0.80937 0.04889 0.14026 0.0
C830 C 0.79827 0.05227 0.16555 0.0
C831 C 0.81056 0.04144 0.18786 0.0
H832 H 0.70009 0.01138 0.81561 0.0
H833 H 0.63165 0.06078 0.82899 0.0
H834 H 0.72141 0.03044 0.85493 0.0
H835 H 0.6529 0.07975 0.86803 0.0
H836 H 0.71147 0.12889 0.91662 0.0
H837 H 0.69234 0.10897 0.87695 0.0
H838 H 0.71417 0.03135 0.90511 0.0
H839 H 0.73336 0.05133 0.94503 0.0
C840 C 0.68964 0.02629 0.82693 0.0
C841 C 0.66425 0.03465 0.81923 0.0
C842 C 0.70177 0.03708 0.84946 0.0
C843 C 0.68884 0.05664 0.86443 0.0
C844 C 0.66346 0.06493 0.85668 0.0
C845 C 0.65125 0.05397 0.8344 0.0
C846 C 0.7123 0.10759 0.91433 0.0
C847 C 0.72381 0.09165 0.93397 0.0
C848 C 0.70124 0.09619 0.89167 0.0
C849 C 0.70166 0.06862 0.88803 0.0
C850 C 0.71372 0.05268 0.90736 0.0
C851 C 0.72456 0.06409 0.93023 0.0
H852 H 0.56336 0.73794 0.95106 0.0
H853 H 0.58528 0.70499 0.87524 0.0
H854 H 0.60323 0.71871 0.97089 0.0
H855 H 0.62498 0.68603 0.89493 0.0
H856 H 0.6746 0.62999 0.9457 0.0
H857 H 0.63518 0.65048 0.92694 0.0
H858 H 0.65284 0.72291 0.96902 0.0
H859 H 0.69237 0.70228 0.98802 0.0
C860 C 0.57672 0.72668 0.93865 0.0
C861 C 0.57116 0.72288 0.91164 0.0
C862 C 0.59958 0.71581 0.94995 0.0
C863 C 0.61716 0.70076 0.93448 0.0
C864 C 0.61164 0.69721 0.90744 0.0
C865 C 0.58896 0.70819 0.89614 0.0
C866 C 0.67011 0.6503 0.95095 0.0
C867 C 0.68661 0.66456 0.96826 0.0
C868 C 0.64759 0.66207 0.9401 0.0
C869 C 0.64096 0.68834 0.94643 0.0
C870 C 0.65734 0.70257 0.96395 0.0
C871 C 0.68003 0.69082 0.97468 0.0
H872 H 0.05112 0.0634 0.76322 0.0
H873 H 0.12395 0.08307 0.80376 0.0
H874 H 0.02995 0.10244 0.78273 0.0
H875 H 0.1029 0.1219 0.82309 0.0
H876 H 0.04818 0.16894 0.87709 0.0
H877 H 0.06737 0.1299 0.85631 0.0
H878 H 0.03322 0.15265 0.78132 0.0
H879 H 0.01383 0.19192 0.80221 0.0
C880 C 0.0626 0.07608 0.77622 0.0
C881 C 0.08915 0.07015 0.78206 0.0
C882 C 0.05053 0.09846 0.78727 0.0
C883 C 0.06474 0.11511 0.80454 0.0
C884 C 0.09135 0.10924 0.81013 0.0
C885 C 0.10343 0.08707 0.79895 0.0
C886 C 0.04466 0.1656 0.85619 0.0
C887 C 0.02958 0.18354 0.84125 0.0
C888 C 0.05577 0.14331 0.84427 0.0
C889 C 0.05194 0.13833 0.81716 0.0
C890 C 0.03638 0.15594 0.80228 0.0
C891 C 0.0254 0.17844 0.8142 0.0
H892 H 0.92211 0.3071 0.37812 0.0
H893 H 0.93718 0.26281 0.44962 0.0
H894 H 0.88306 0.3268 0.39847 0.0
H895 H 0.89791 0.28258 0.47001 0.0
H896 H 0.80837 0.30248 0.48267 0.0
H897 H 0.84785 0.28202 0.46351 0.0
H898 H 0.874 0.35852 0.43589 0.0
H899 H 0.83468 0.37898 0.45506 0.0
C900 C 0.91705 0.30155 0.39818 0.0
C901 C 0.93271 0.28344 0.41231 0.0
C902 C 0.89478 0.31294 0.40987 0.0
C903 C 0.88751 0.30629 0.43584 0.0
C904 C 0.90297 0.28793 0.44989 0.0
C905 C 0.92548 0.27672 0.43828 0.0
C906 C 0.8226 0.3149 0.47255 0.0
C907 C 0.81843 0.34231 0.47029 0.0
C908 C 0.84523 0.30322 0.46172 0.0
C909 C 0.86393 0.31868 0.44816 0.0
C910 C 0.85978 0.34609 0.44601 0.0
C911 C 0.83734 0.3578 0.45708 0.0
H912 H 0.55292 0.95587 0.79376 0.0
H913 H 0.62277 0.91043 0.77485 0.0
H914 H 0.53226 0.91617 0.81241 0.0
H915 H 0.60199 0.87079 0.79314 0.0
H916 H 0.5428 0.80122 0.80291 0.0
H917 H 0.56152 0.84101 0.78254 0.0
H918 H 0.54254 0.88607 0.85267 0.0
H919 H 0.52417 0.84631 0.87318 0.0
C920 C 0.56378 0.93739 0.79347 0.0
C921 C 0.58946 0.93622 0.78294 0.0
C922 C 0.55201 0.91475 0.8042 0.0
C923 C 0.56555 0.89046 0.80415 0.0
C924 C 0.59105 0.88923 0.79322 0.0
C925 C 0.60297 0.91193 0.78291 0.0
C926 C 0.54257 0.81965 0.81391 0.0
C927 C 0.53213 0.82069 0.83964 0.0
C928 C 0.55334 0.84235 0.80231 0.0
C929 C 0.55343 0.86657 0.81606 0.0
C930 C 0.54252 0.86769 0.84157 0.0
C931 C 0.53216 0.84492 0.85334 0.0
H932 H 0.96972 0.16116 0.37432 0.0
H933 H 0.96831 0.20236 0.2995 0.0
H934 H 0.95224 0.12151 0.35278 0.0
H935 H 0.95074 0.1626 0.27792 0.0
H936 H 0.88785 0.09676 0.26053 0.0
H937 H 0.90827 0.13632 0.27958 0.0
H938 H 0.96628 0.08757 0.31905 0.0
H939 H 0.94587 0.04794 0.29996 0.0
C940 C 0.96571 0.16172 0.35325 0.0
C941 C 0.97031 0.18487 0.33859 0.0
C942 C 0.95588 0.13896 0.3409 0.0
C943 C 0.95019 0.13895 0.31366 0.0
C944 C 0.95479 0.16211 0.29898 0.0
C945 C 0.96491 0.18481 0.3113 0.0
C946 C 0.90509 0.09451 0.27311 0.0
C947 C 0.91523 0.06927 0.27883 0.0
C948 C 0.91684 0.11716 0.2839 0.0
C949 C 0.93881 0.11502 0.30087 0.0
C950 C 0.94921 0.08978 0.30624 0.0
C951 C 0.93762 0.06714 0.29521 0.0
H952 H 0.6241 0.08193 0.69709 0.0
H953 H 0.55135 0.06307 0.73773 0.0
H954 H 0.60311 0.12076 0.67753 0.0
H955 H 0.53039 0.10222 0.71826 0.0
H956 H 0.51689 0.1928 0.7005 0.0
H957 H 0.53632 0.15325 0.72076 0.0
H958 H 0.56555 0.1285 0.6444 0.0
H959 H 0.546 0.16771 0.62413 0.0
C960 C 0.60363 0.08611 0.70186 0.0
C961 C 0.58933 0.06945 0.71888 0.0
C962 C 0.5916 0.10827 0.69058 0.0
C963 C 0.56513 0.11444 0.69636 0.0
C964 C 0.55088 0.09797 0.71361 0.0
C965 C 0.56281 0.07554 0.72462 0.0
C966 C 0.52738 0.17883 0.68807 0.0
C967 C 0.52997 0.18333 0.66076 0.0
C968 C 0.53837 0.15619 0.69963 0.0
C969 C 0.55249 0.13791 0.68414 0.0
C970 C 0.55496 0.14239 0.65683 0.0
C971 C 0.54367 0.16477 0.64523 0.0
H972 H 0.20324 0.30199 0.96369 0.0
H973 H 0.16124 0.37569 0.97415 0.0
H974 H 0.1632 0.28183 0.94506 0.0
H975 H 0.12123 0.35544 0.9558 0.0
H976 H 0.04883 0.29916 0.9483 0.0
H977 H 0.08873 0.31815 0.96843 0.0
H978 H 0.13536 0.28927 0.90296 0.0
H979 H 0.09553 0.27055 0.88269 0.0
C980 C 0.18544 0.31382 0.96209 0.0
C981 C 0.18535 0.34041 0.97029 0.0
C982 C 0.16261 0.30233 0.95137 0.0
C983 C 0.13916 0.3171 0.94904 0.0
C984 C 0.13898 0.34357 0.95759 0.0
C985 C 0.16191 0.35517 0.96793 0.0
C986 C 0.06762 0.29684 0.93827 0.0
C987 C 0.0691 0.28345 0.91392 0.0
C988 C 0.09039 0.30778 0.94972 0.0
C989 C 0.11508 0.30513 0.93723 0.0
C990 C 0.1166 0.29139 0.91309 0.0
C991 C 0.0938 0.28083 0.90145 0.0
H992 H 0.40978 0.72466 0.38002 0.0
H993 H 0.45486 0.71094 0.45143 0.0
H994 H 0.37031 0.70665 0.40134 0.0
H995 H 0.41532 0.69251 0.47262 0.0
H996 H 0.34603 0.63071 0.48278 0.0
H997 H 0.38578 0.65091 0.46396 0.0
H998 H 0.3402 0.71941 0.44116 0.0
H999 H 0.30045 0.69941 0.46035 0.0
C1000 C 0.41124 0.71776 0.40026 0.0
C1001 C 0.43538 0.71914 0.41408 0.0
C1002 C 0.38863 0.70762 0.41248 0.0
C1003 C 0.38981 0.69826 0.4386 0.0
C1004 C 0.41396 0.69952 0.45242 0.0
C1005 C 0.4365 0.71011 0.44034 0.0
C1006 C 0.34454 0.65015 0.47387 0.0
C1007 C 0.32017 0.66349 0.47295 0.0
C1008 C 0.36729 0.66173 0.46325 0.0
C1009 C 0.36599 0.68667 0.45111 0.0
C1010 C 0.34166 0.70008 0.4503 0.0
C1011 C 0.31898 0.6887 0.46134 0.0
H1012 H 0.80438 0.51734 0.8119 0.0
H1013 H 0.88041 0.54944 0.83468 0.0
H1014 H 0.78454 0.53659 0.85167 0.0
H1015 H 0.86066 0.56848 0.87438 0.0
H1016 H 0.80946 0.62501 0.92357 0.0
H1017 H 0.82887 0.60429 0.88457 0.0
H1018 H 0.78585 0.53226 0.90107 0.0
H1019 H 0.76623 0.55312 0.94016 0.0
C1020 C 0.81685 0.52841 0.82545 0.0
C1021 C 0.84392 0.53197 0.82014 0.0
C1022 C 0.80553 0.5393 0.84826 0.0
C1023 C 0.82103 0.55413 0.86609 0.0
C1024 C 0.84814 0.55744 0.86085 0.0
C1025 C 0.85947 0.54643 0.83817 0.0
C1026 C 0.80415 0.60475 0.9189 0.0
C1027 C 0.78635 0.59067 0.93493 0.0
C1028 C 0.81538 0.59284 0.89664 0.0
C1029 C 0.80895 0.56662 0.8898 0.0
C1030 C 0.79102 0.55256 0.90574 0.0
C1031 C 0.77991 0.56444 0.92817 0.0
H1032 H 0.70304 0.52107 0.19214 0.0
H1033 H 0.62572 0.54571 0.16516 0.0
H1034 H 0.72294 0.54034 0.1524 0.0
H1035 H 0.64555 0.5649 0.12563 0.0
H1036 H 0.69477 0.62388 0.07696 0.0
H1037 H 0.67562 0.6032 0.11608 0.0
H1038 H 0.72294 0.53338 0.10249 0.0
H1039 H 0.74219 0.55412 0.06318 0.0
C1040 C 0.69032 0.53054 0.17771 0.0
C1041 C 0.66285 0.53196 0.18177 0.0
C1042 C 0.70168 0.54143 0.15493 0.0
C1043 C 0.68579 0.55419 0.13599 0.0
C1044 C 0.65831 0.55544 0.14003 0.0
C1045 C 0.64696 0.54435 0.16261 0.0
C1046 C 0.70108 0.60411 0.08228 0.0
C1047 C 0.71993 0.59059 0.067 0.0
C1048 C 0.69002 0.59223 0.10461 0.0
C1049 C 0.69775 0.56666 0.11229 0.0
C1050 C 0.71677 0.55318 0.09713 0.0
C1051 C 0.72765 0.56498 0.07458 0.0
H1052 H 0.72913 0.38091 0.4075 0.0
H1053 H 0.71015 0.45077 0.45309 0.0
H1054 H 0.71062 0.40164 0.3679 0.0
H1055 H 0.69139 0.47137 0.41347 0.0
H1056 H 0.63084 0.48065 0.34391 0.0
H1057 H 0.65133 0.46184 0.38349 0.0
H1058 H 0.72072 0.44156 0.33805 0.0
H1059 H 0.70034 0.46063 0.29844 0.0
C1060 C 0.72104 0.40071 0.40903 0.0
C1061 C 0.72104 0.41423 0.43336 0.0
C1062 C 0.71059 0.4126 0.38635 0.0
C1063 C 0.69958 0.43809 0.38765 0.0
C1064 C 0.69961 0.45163 0.41198 0.0
C1065 C 0.71043 0.43989 0.43459 0.0
C1066 C 0.65052 0.47228 0.3424 0.0
C1067 C 0.664 0.47207 0.31811 0.0
C1068 C 0.66227 0.46165 0.36507 0.0
C1069 C 0.68759 0.45025 0.3638 0.0
C1070 C 0.70111 0.45008 0.33952 0.0
C1071 C 0.6895 0.46108 0.31692 0.0
H1072 H 0.80397 0.4926 0.6888 0.0
H1073 H 0.87479 0.44761 0.67257 0.0
H1074 H 0.78291 0.47349 0.64936 0.0
H1075 H 0.8538 0.42859 0.63342 0.0
H1076 H 0.7964 0.37703 0.58556 0.0
H1077 H 0.81588 0.39731 0.62488 0.0
H1078 H 0.78886 0.47407 0.59896 0.0
H1079 H 0.76931 0.45372 0.55938 0.0
C1080 C 0.81501 0.47867 0.67682 0.0
C1081 C 0.84098 0.47153 0.68378 0.0
C1082 C 0.80302 0.46786 0.65422 0.0
C1083 C 0.8167 0.44948 0.63843 0.0
C1084 C 0.84268 0.44247 0.64539 0.0
C1085 C 0.85473 0.45346 0.66774 0.0
C1086 C 0.79456 0.39822 0.58825 0.0
C1087 C 0.78142 0.41382 0.56937 0.0
C1088 C 0.80581 0.40984 0.6107 0.0
C1089 C 0.80396 0.43727 0.6149 0.0
C1090 C 0.79042 0.45285 0.59627 0.0
C1091 C 0.77938 0.44124 0.5736 0.0
H1092 H 0.38104 0.09406 0.22984 0.0
H1093 H 0.45266 0.04909 0.21756 0.0
H1094 H 0.40256 0.13333 0.21171 0.0
H1095 H 0.47416 0.08844 0.19928 0.0
H1096 H 0.48628 0.15537 0.13653 0.0
H1097 H 0.46763 0.11623 0.15786 0.0
H1098 H 0.44034 0.16471 0.22277 0.0
H1099 H 0.45912 0.20392 0.20149 0.0
C1100 C 0.40142 0.09261 0.22337 0.0
C1101 C 0.41517 0.06852 0.22503 0.0
C1102 C 0.41377 0.11512 0.21314 0.0
C1103 C 0.44001 0.11391 0.20409 0.0
C1104 C 0.45385 0.08986 0.20595 0.0
C1105 C 0.44159 0.06741 0.2165 0.0
C1106 C 0.47644 0.15764 0.15543 0.0
C1107 C 0.47407 0.18268 0.16733 0.0
C1108 C 0.46591 0.13523 0.16769 0.0
C1109 C 0.45253 0.13747 0.19194 0.0
C1110 C 0.4504 0.16248 0.20398 0.0
C1111 C 0.46122 0.18486 0.19187 0.0
H1112 H 0.05007 0.83494 0.62594 0.0
H1113 H 0.01837 0.81091 0.70153 0.0
H1114 H 0.06967 0.87404 0.64659 0.0
H1115 H 0.038 0.85022 0.72223 0.0
H1116 H 0.05308 0.94003 0.73973 0.0
H1117 H 0.03281 0.90043 0.72028 0.0
H1118 H 0.10593 0.88297 0.67978 0.0
H1119 H 0.12619 0.92238 0.69919 0.0
C1120 C 0.04725 0.83805 0.64697 0.0
C1121 C 0.03273 0.81987 0.66214 0.0
C1122 C 0.05859 0.86035 0.6588 0.0
C1123 C 0.05542 0.86511 0.68602 0.0
C1124 C 0.0406 0.84711 0.70117 0.0
C1125 C 0.02949 0.82459 0.68936 0.0
C1126 C 0.0648 0.92768 0.72671 0.0
C1127 C 0.09118 0.93431 0.72091 0.0
C1128 C 0.05325 0.90498 0.71571 0.0
C1129 C 0.06778 0.8887 0.69846 0.0
C1130 C 0.09419 0.89531 0.69279 0.0
C1131 C 0.10581 0.91779 0.704 0.0
H1132 H 0.48981 0.81348 0.30393 0.0
H1133 H 0.44548 0.82822 0.37548 0.0
H1134 H 0.47002 0.85277 0.28368 0.0
H1135 H 0.4257 0.86733 0.35523 0.0
H1136 H 0.37407 0.91644 0.29841 0.0
H1137 H 0.39413 0.87692 0.31763 0.0
H1138 H 0.47101 0.90268 0.29069 0.0
H1139 H 0.45097 0.94233 0.2715 0.0
C1140 C 0.47585 0.8251 0.3153 0.0
C1141 C 0.46917 0.81781 0.34127 0.0
C1142 C 0.46464 0.84762 0.30377 0.0
C1143 C 0.44629 0.86304 0.31788 0.0
C1144 C 0.43958 0.85566 0.34381 0.0
C1145 C 0.45101 0.83336 0.35543 0.0
C1146 C 0.39525 0.91365 0.29656 0.0
C1147 C 0.41097 0.93248 0.28351 0.0
C1148 C 0.40673 0.8911 0.30765 0.0
C1149 C 0.43412 0.88677 0.30568 0.0
C1150 C 0.44981 0.90543 0.29232 0.0
C1151 C 0.43837 0.92816 0.28148 0.0
H1152 H 0.83061 0.63026 0.05736 0.0
H1153 H 0.81351 0.70255 0.01516 0.0
H1154 H 0.86962 0.65088 0.07701 0.0
H1155 H 0.85264 0.72333 0.03505 0.0
H1156 H 0.94191 0.73831 0.05434 0.0
H1157 H 0.90218 0.71927 0.03393 0.0
H1158 H 0.87944 0.68634 0.10938 0.0
H1159 H 0.91905 0.70513 0.12965 0.0
C1160 C 0.83516 0.6506 0.05233 0.0
C1161 C 0.81898 0.66482 0.03478 0.0
C1162 C 0.85744 0.66245 0.06369 0.0
C1163 C 0.86414 0.68876 0.05766 0.0
C1164 C 0.84807 0.70296 0.03992 0.0
C1165 C 0.82562 0.69113 0.02867 0.0
C1166 C 0.92836 0.72706 0.06653 0.0
C1167 C 0.93363 0.72311 0.09355 0.0
C1168 C 0.90557 0.71629 0.05489 0.0
C1169 C 0.88777 0.70121 0.07003 0.0
C1170 C 0.89296 0.69756 0.09712 0.0
C1171 C 0.91559 0.70844 0.10875 0.0
H1172 H 0.54724 0.29711 0.55383 0.0
H1173 H 0.59515 0.26967 0.61914 0.0
H1174 H 0.58661 0.31603 0.53305 0.0
H1175 H 0.6345 0.28851 0.59829 0.0
H1176 H 0.70192 0.30256 0.53818 0.0
H1177 H 0.66251 0.28171 0.55709 0.0
H1178 H 0.61817 0.35351 0.54388 0.0
H1179 H 0.65749 0.37437 0.52511 0.0
C1180 C 0.56619 0.29504 0.56367 0.0
C1181 C 0.56814 0.28199 0.58812 0.0
C1182 C 0.58868 0.30595 0.55184 0.0
C1183 C 0.61359 0.30373 0.56407 0.0
C1184 C 0.61559 0.2903 0.58831 0.0
C1185 C 0.59306 0.27966 0.6003 0.0
C1186 C 0.68371 0.31382 0.53923 0.0
C1187 C 0.68275 0.34009 0.53022 0.0
C1188 C 0.66123 0.30194 0.55015 0.0
C1189 C 0.63731 0.316 0.55194 0.0
C1190 C 0.63628 0.34212 0.54252 0.0
C1191 C 0.65881 0.3541 0.53191 0.0
H1192 H 0.20428 0.37392 0.08372 0.0
H1193 H 0.23845 0.44949 0.06292 0.0
H1194 H 0.18537 0.39348 0.12356 0.0
H1195 H 0.2193 0.46916 0.10282 0.0
H1196 H 0.20278 0.48644 0.19143 0.0
H1197 H 0.22332 0.46694 0.15213 0.0
H1198 H 0.15037 0.42589 0.13423 0.0
H1199 H 0.12997 0.44515 0.17346 0.0
C1200 C 0.20776 0.39472 0.08767 0.0
C1201 C 0.22278 0.4102 0.07017 0.0
C1202 C 0.19682 0.40595 0.11043 0.0
C1203 C 0.20077 0.43288 0.11627 0.0
C1204 C 0.2161 0.4483 0.09895 0.0
C1205 C 0.22693 0.43708 0.07605 0.0
C1206 C 0.19119 0.4732 0.1791 0.0
C1207 C 0.1648 0.46727 0.18553 0.0
C1208 C 0.20289 0.46218 0.15654 0.0
C1209 C 0.18847 0.44484 0.14013 0.0
C1210 C 0.16209 0.43891 0.14666 0.0
C1211 C 0.15037 0.45005 0.16906 0.0
H1212 H 0.30399 0.48712 0.8126 0.0
H1213 H 0.37909 0.45215 0.83377 0.0
H1214 H 0.284 0.46808 0.85237 0.0
H1215 H 0.35918 0.43328 0.87341 0.0
H1216 H 0.30656 0.37782 0.92208 0.0
H1217 H 0.32586 0.39836 0.88302 0.0
H1218 H 0.28666 0.47186 0.90216 0.0
H1219 H 0.26717 0.45118 0.94141 0.0
C1220 C 0.31622 0.47544 0.82578 0.0
C1221 C 0.34307 0.47103 0.82004 0.0
C1222 C 0.30482 0.46468 0.84859 0.0
C1223 C 0.32002 0.44912 0.86593 0.0
C1224 C 0.34691 0.44493 0.86025 0.0
C1225 C 0.35832 0.45583 0.83761 0.0
C1226 C 0.30205 0.39836 0.91799 0.0
C1227 C 0.2854 0.41292 0.93482 0.0
C1228 C 0.31321 0.41016 0.89569 0.0
C1229 C 0.30785 0.43674 0.88959 0.0
C1230 C 0.29099 0.45128 0.90628 0.0
C1231 C 0.27996 0.4395 0.92879 0.0
H1232 H 0.26741 0.55199 0.56158 0.0
H1233 H 0.29857 0.62784 0.5862 0.0
H1234 H 0.28668 0.53148 0.60103 0.0
H1235 H 0.31766 0.60742 0.62551 0.0
H1236 H 0.37498 0.55586 0.67313 0.0
H1237 H 0.35404 0.57541 0.63434 0.0
H1238 H 0.28219 0.53215 0.65091 0.0
H1239 H 0.30325 0.51243 0.68991 0.0
C1240 C 0.27827 0.56428 0.57545 0.0
C1241 C 0.28159 0.59149 0.57076 0.0
C1242 C 0.28917 0.55257 0.59808 0.0
C1243 C 0.30378 0.56783 0.61627 0.0
C1244 C 0.3068 0.59509 0.61167 0.0
C1245 C 0.29576 0.6068 0.58922 0.0
C1246 C 0.35472 0.55048 0.66851 0.0
C1247 C 0.34072 0.53266 0.68457 0.0
C1248 C 0.34269 0.56179 0.64638 0.0
C1249 C 0.31644 0.5554 0.63967 0.0
C1250 C 0.3025 0.53731 0.65553 0.0
C1251 C 0.31449 0.52614 0.67788 0.0
H1252 H 0.20253 0.51412 0.31272 0.0
H1253 H 0.13087 0.55785 0.32867 0.0
H1254 H 0.22307 0.5335 0.35224 0.0
H1255 H 0.15126 0.57701 0.36804 0.0
H1256 H 0.2058 0.62829 0.41853 0.0
H1257 H 0.18731 0.60854 0.37853 0.0
H1258 H 0.21799 0.53227 0.40177 0.0
H1259 H 0.23676 0.55215 0.44191 0.0
C1260 C 0.1912 0.52787 0.32464 0.0
C1261 C 0.16513 0.53453 0.3176 0.0
C1262 C 0.20289 0.53882 0.34732 0.0
C1263 C 0.1888 0.55682 0.36318 0.0
C1264 C 0.16274 0.56345 0.35604 0.0
C1265 C 0.15102 0.55238 0.33355 0.0
C1266 C 0.20866 0.60731 0.41511 0.0
C1267 C 0.22263 0.59174 0.43341 0.0
C1268 C 0.19796 0.59599 0.39225 0.0
C1269 C 0.20108 0.56884 0.38708 0.0
C1270 C 0.21545 0.55329 0.40515 0.0
C1271 C 0.22605 0.56463 0.42817 0.0
loop_
_geom_bond_atom_site_label_1
_geom_bond_atom_site_label_2
_geom_bond_distance
_geom_bond_site_symmetry_2
_ccdc_geom_bond_type
In0 O1 2.294 . S
In0 O2 2.326 . S
In0 O6 2.266 1_455 S
In0 O7 2.326 1_455 S
In0 O8 2.266 1_455 S
In0 O9 2.326 1_455 S
In0 O11 2.294 . S
In0 O12 2.326 . S
O1 In0 2.294 . S
O1 C10 1.240 . S
O2 In0 2.326 . S
O2 C10 1.252 . S
C3 O6 1.252 . S
C3 O7 1.260 . S
C4 O11 1.240 . S
C4 O12 1.252 . S
C5 O8 1.252 . S
C5 O9 1.260 . S
O6 In0 2.266 1_655 S
O6 C3 1.252 . S
O7 In0 2.326 1_655 S
O7 C3 1.260 . S
O8 In0 2.266 1_655 S
O8 C5 1.252 . S
O9 In0 2.326 1_655 S
O9 C5 1.260 . S
C10 O1 1.240 . S
C10 O2 1.252 . S
O11 In0 2.294 . S
O11 C4 1.240 . S
O12 In0 2.326 . S
O12 C4 1.252 . S
In13 O14 2.294 . S
In13 O15 2.326 . S
In13 O19 2.266 1_455 S
In13 O20 2.326 1_455 S
In13 O21 2.266 . S
In13 O22 2.326 . S
In13 O24 2.294 1_455 S
In13 O25 2.326 1_455 S
O14 In13 2.294 . S
O14 C23 1.240 . S
O15 In13 2.326 . S
O15 C23 1.252 . S
C16 O19 1.252 . S
C16 O20 1.260 . S
C17 O24 1.240 . S
C17 O25 1.252 . S
C18 O21 1.252 . S
C18 O22 1.260 . S
O19 In13 2.266 1_655 S
O19 C16 1.252 . S
O20 In13 2.326 1_655 S
O20 C16 1.260 . S
O21 In13 2.266 . S
O21 C18 1.252 . S
O22 In13 2.326 . S
O22 C18 1.260 . S
C23 O14 1.240 . S
C23 O15 1.252 . S
O24 In13 2.294 1_655 S
O24 C17 1.240 . S
O25 In13 2.326 1_655 S
O25 C17 1.252 . S
In26 O27 2.294 . S
In26 O28 2.326 . S
In26 O32 2.266 . S
In26 O33 2.326 . S
In26 O34 2.266 . S
In26 O35 2.326 . S
In26 O37 2.294 . S
In26 O38 2.326 . S
O27 In26 2.294 . S
O27 C36 1.240 . S
O28 In26 2.326 . S
O28 C36 1.252 . S
C29 O32 1.252 . S
C29 O33 1.260 . S
C30 O37 1.240 . S
C30 O38 1.252 . S
C31 O34 1.252 . S
C31 O35 1.260 . S
O32 In26 2.266 . S
O32 C29 1.252 . S
O33 In26 2.326 . S
O33 C29 1.260 . S
O34 In26 2.266 . S
O34 C31 1.252 . S
O35 In26 2.326 . S
O35 C31 1.260 . S
C36 O27 1.240 . S
C36 O28 1.252 . S
O37 In26 2.294 . S
O37 C30 1.240 . S
O38 In26 2.326 . S
O38 C30 1.252 . S
In39 O40 2.294 . S
In39 O41 2.326 . S
In39 O45 2.266 . S
In39 O46 2.326 . S
In39 O47 2.266 . S
In39 O48 2.326 . S
In39 O50 2.294 . S
In39 O51 2.326 . S
O40 In39 2.294 . S
O40 C49 1.240 . S
O41 In39 2.326 . S
O41 C49 1.252 . S
C42 O45 1.252 . S
C42 O46 1.260 . S
C43 O50 1.240 . S
C43 O51 1.252 . S
C44 O47 1.252 . S
C44 O48 1.260 . S
O45 In39 2.266 . S
O45 C42 1.252 . S
O46 In39 2.326 . S
O46 C42 1.260 . S
O47 In39 2.266 . S
O47 C44 1.252 . S
O48 In39 2.326 . S
O48 C44 1.260 . S
C49 O40 1.240 . S
C49 O41 1.252 . S
O50 In39 2.294 . S
O50 C43 1.240 . S
O51 In39 2.326 . S
O51 C43 1.252 . S
In52 O53 2.294 . S
In52 O54 2.326 . S
In52 O58 2.266 1_455 S
In52 O59 2.326 1_455 S
In52 O60 2.266 1_455 S
In52 O61 2.326 1_455 S
In52 O63 2.294 . S
In52 O64 2.326 . S
O53 In52 2.294 . S
O53 C62 1.240 . S
O54 In52 2.326 . S
O54 C62 1.252 . S
C55 O58 1.252 . S
C55 O59 1.260 . S
C56 O63 1.240 . S
C56 O64 1.252 . S
C57 O60 1.252 . S
C57 O61 1.260 . S
O58 In52 2.266 1_655 S
O58 C55 1.252 . S
O59 In52 2.326 1_655 S
O59 C55 1.260 . S
O60 In52 2.266 1_655 S
O60 C57 1.252 . S
O61 In52 2.326 1_655 S
O61 C57 1.260 . S
C62 O53 1.240 . S
C62 O54 1.252 . S
O63 In52 2.294 . S
O63 C56 1.240 . S
O64 In52 2.326 . S
O64 C56 1.252 . S
In65 O66 2.294 . S
In65 O67 2.326 . S
In65 O71 2.266 . S
In65 O72 2.326 . S
In65 O73 2.266 . S
In65 O74 2.326 . S
In65 O76 2.294 . S
In65 O77 2.326 . S
O66 In65 2.294 . S
O66 C75 1.240 . S
O67 In65 2.326 . S
O67 C75 1.252 . S
C68 O71 1.252 . S
C68 O72 1.260 . S
C69 O76 1.240 . S
C69 O77 1.252 . S
C70 O73 1.252 . S
C70 O74 1.260 . S
O71 In65 2.266 . S
O71 C68 1.252 . S
O72 In65 2.326 . S
O72 C68 1.260 . S
O73 In65 2.266 . S
O73 C70 1.252 . S
O74 In65 2.326 . S
O74 C70 1.260 . S
C75 O66 1.240 . S
C75 O67 1.252 . S
O76 In65 2.294 . S
O76 C69 1.240 . S
O77 In65 2.326 . S
O77 C69 1.252 . S
In78 O79 2.294 . S
In78 O80 2.326 . S
In78 O84 2.266 . S
In78 O85 2.326 . S
In78 O86 2.266 . S
In78 O87 2.326 . S
In78 O89 2.294 . S
In78 O90 2.326 . S
O79 In78 2.294 . S
O79 C88 1.240 . S
O80 In78 2.326 . S
O80 C88 1.252 . S
C81 O84 1.252 . S
C81 O85 1.260 . S
C82 O89 1.240 . S
C82 O90 1.252 . S
C83 O86 1.252 . S
C83 O87 1.260 . S
O84 In78 2.266 . S
O84 C81 1.252 . S
O85 In78 2.326 . S
O85 C81 1.260 . S
O86 In78 2.266 . S
O86 C83 1.252 . S
O87 In78 2.326 . S
O87 C83 1.260 . S
C88 O79 1.240 . S
C88 O80 1.252 . S
O89 In78 2.294 . S
O89 C82 1.240 . S
O90 In78 2.326 . S
O90 C82 1.252 . S
In91 O92 2.278 1_455 S
In91 O93 2.300 1_455 S
In91 O97 2.282 . S
In91 O98 2.352 . S
In91 O99 2.261 1_455 S
In91 O100 2.314 1_455 S
In91 O102 2.300 . S
In91 O103 2.338 . S
O92 In91 2.278 1_655 S
O92 C101 1.240 . S
O93 In91 2.300 1_655 S
O93 C101 1.252 . S
C94 O97 1.252 . S
C94 O98 1.260 . S
C95 O102 1.240 . S
C95 O103 1.252 . S
C96 O99 1.252 . S
C96 O100 1.260 . S
O97 In91 2.282 . S
O97 C94 1.252 . S
O98 In91 2.352 . S
O98 C94 1.260 . S
O99 In91 2.261 1_655 S
O99 C96 1.252 . S
O100 In91 2.314 1_655 S
O100 C96 1.260 . S
C101 O92 1.240 . S
C101 O93 1.252 . S
O102 In91 2.300 . S
O102 C95 1.240 . S
O103 In91 2.338 . S
O103 C95 1.252 . S
In104 O105 2.294 . S
In104 O106 2.326 . S
In104 O110 2.266 1_545 S
In104 O111 2.326 1_545 S
In104 O112 2.266 1_545 S
In104 O113 2.326 1_545 S
In104 O115 2.294 . S
In104 O116 2.326 . S
O105 In104 2.294 . S
O105 C114 1.240 . S
O106 In104 2.326 . S
O106 C114 1.252 . S
C107 O110 1.252 . S
C107 O111 1.260 . S
C108 O115 1.240 . S
C108 O116 1.252 . S
C109 O112 1.252 . S
C109 O113 1.260 . S
O110 In104 2.266 1_565 S
O110 C107 1.252 . S
O111 In104 2.326 1_565 S
O111 C107 1.260 . S
O112 In104 2.266 1_565 S
O112 C109 1.252 . S
O113 In104 2.326 1_565 S
O113 C109 1.260 . S
C114 O105 1.240 . S
C114 O106 1.252 . S
O115 In104 2.294 . S
O115 C108 1.240 . S
O116 In104 2.326 . S
O116 C108 1.252 . S
In117 O118 2.294 . S
In117 O119 2.326 . S
In117 O123 2.266 . S
In117 O124 2.326 . S
In117 O125 2.266 . S
In117 O126 2.326 . S
In117 O128 2.294 . S
In117 O129 2.326 . S
O118 In117 2.294 . S
O118 C127 1.240 . S
O119 In117 2.326 . S
O119 C127 1.252 . S
C120 O123 1.252 . S
C120 O124 1.260 . S
C121 O128 1.240 . S
C121 O129 1.252 . S
C122 O125 1.252 . S
C122 O126 1.260 . S
O123 In117 2.266 . S
O123 C120 1.252 . S
O124 In117 2.326 . S
O124 C120 1.260 . S
O125 In117 2.266 . S
O125 C122 1.252 . S
O126 In117 2.326 . S
O126 C122 1.260 . S
C127 O118 1.240 . S
C127 O119 1.252 . S
O128 In117 2.294 . S
O128 C121 1.240 . S
O129 In117 2.326 . S
O129 C121 1.252 . S
In130 O131 2.294 . S
In130 O132 2.326 . S
In130 O136 2.266 1_545 S
In130 O137 2.326 1_545 S
In130 O138 2.266 1_545 S
In130 O139 2.326 1_545 S
In130 O141 2.294 . S
In130 O142 2.326 . S
O131 In130 2.294 . S
O131 C140 1.240 . S
O132 In130 2.326 . S
O132 C140 1.252 . S
C133 O136 1.252 . S
C133 O137 1.260 . S
C134 O141 1.240 . S
C134 O142 1.252 . S
C135 O138 1.252 . S
C135 O139 1.260 . S
O136 In130 2.266 1_565 S
O136 C133 1.252 . S
O137 In130 2.326 1_565 S
O137 C133 1.260 . S
O138 In130 2.266 1_565 S
O138 C135 1.252 . S
O139 In130 2.326 1_565 S
O139 C135 1.260 . S
C140 O131 1.240 . S
C140 O132 1.252 . S
O141 In130 2.294 . S
O141 C134 1.240 . S
O142 In130 2.326 . S
O142 C134 1.252 . S
In143 O144 2.300 . S
In143 O145 2.338 . S
In143 O149 2.261 1_554 S
In143 O150 2.314 1_554 S
In143 O151 2.282 . S
In143 O152 2.352 . S
In143 O154 2.278 1_554 S
In143 O155 2.300 1_554 S
O144 In143 2.300 . S
O144 C153 1.240 . S
O145 In143 2.338 . S
O145 C153 1.252 . S
C146 O149 1.252 . S
C146 O150 1.260 . S
C147 O154 1.240 . S
C147 O155 1.252 . S
C148 O151 1.252 . S
C148 O152 1.260 . S
O149 In143 2.261 1_556 S
O149 C146 1.252 . S
O150 In143 2.314 1_556 S
O150 C146 1.260 . S
O151 In143 2.282 . S
O151 C148 1.252 . S
O152 In143 2.352 . S
O152 C148 1.260 . S
C153 O144 1.240 . S
C153 O145 1.252 . S
O154 In143 2.278 1_556 S
O154 C147 1.240 . S
O155 In143 2.300 1_556 S
O155 C147 1.252 . S
In156 O157 2.294 . S
In156 O158 2.326 . S
In156 O162 2.266 1_554 S
In156 O163 2.326 1_554 S
In156 O164 2.266 1_554 S
In156 O165 2.326 1_554 S
In156 O167 2.294 . S
In156 O168 2.326 . S
O157 In156 2.294 . S
O157 C166 1.240 . S
O158 In156 2.326 . S
O158 C166 1.252 . S
C159 O162 1.252 . S
C159 O163 1.260 . S
C160 O167 1.240 . S
C160 O168 1.252 . S
C161 O164 1.252 . S
C161 O165 1.260 . S
O162 In156 2.266 1_556 S
O162 C159 1.252 . S
O163 In156 2.326 1_556 S
O163 C159 1.260 . S
O164 In156 2.266 1_556 S
O164 C161 1.252 . S
O165 In156 2.326 1_556 S
O165 C161 1.260 . S
C166 O157 1.240 . S
C166 O158 1.252 . S
O167 In156 2.294 . S
O167 C160 1.240 . S
O168 In156 2.326 . S
O168 C160 1.252 . S
In169 O170 2.294 . S
In169 O171 2.326 . S
In169 O175 2.266 1_554 S
In169 O176 2.326 1_554 S
In169 O177 2.266 1_554 S
In169 O178 2.326 1_554 S
In169 O180 2.294 . S
In169 O181 2.326 . S
O170 In169 2.294 . S
O170 C179 1.240 . S
O171 In169 2.326 . S
O171 C179 1.252 . S
C172 O175 1.252 . S
C172 O176 1.260 . S
C173 O180 1.240 . S
C173 O181 1.252 . S
C174 O177 1.252 . S
C174 O178 1.260 . S
O175 In169 2.266 1_556 S
O175 C172 1.252 . S
O176 In169 2.326 1_556 S
O176 C172 1.260 . S
O177 In169 2.266 1_556 S
O177 C174 1.252 . S
O178 In169 2.326 1_556 S
O178 C174 1.260 . S
C179 O170 1.240 . S
C179 O171 1.252 . S
O180 In169 2.294 . S
O180 C173 1.240 . S
O181 In169 2.326 . S
O181 C173 1.252 . S
In182 O183 2.294 . S
In182 O184 2.326 . S
In182 O188 2.266 . S
In182 O189 2.326 . S
In182 O190 2.266 . S
In182 O191 2.326 . S
In182 O193 2.294 . S
In182 O194 2.326 . S
O183 In182 2.294 . S
O183 C192 1.240 . S
O184 In182 2.326 . S
O184 C192 1.252 . S
C185 O188 1.252 . S
C185 O189 1.260 . S
C186 O193 1.240 . S
C186 O194 1.252 . S
C187 O190 1.252 . S
C187 O191 1.260 . S
O188 In182 2.266 . S
O188 C185 1.252 . S
O189 In182 2.326 . S
O189 C185 1.260 . S
O190 In182 2.266 . S
O190 C187 1.252 . S
O191 In182 2.326 . S
O191 C187 1.260 . S
C192 O183 1.240 . S
C192 O184 1.252 . S
O193 In182 2.294 . S
O193 C186 1.240 . S
O194 In182 2.326 . S
O194 C186 1.252 . S
In195 O196 2.294 . S
In195 O197 2.326 . S
In195 O201 2.266 . S
In195 O202 2.326 . S
In195 O203 2.266 . S
In195 O204 2.326 . S
In195 O206 2.294 . S
In195 O207 2.326 . S
O196 In195 2.294 . S
O196 C205 1.240 . S
O197 In195 2.326 . S
O197 C205 1.252 . S
C198 O201 1.252 . S
C198 O202 1.260 . S
C199 O206 1.240 . S
C199 O207 1.252 . S
C200 O203 1.252 . S
C200 O204 1.260 . S
O201 In195 2.266 . S
O201 C198 1.252 . S
O202 In195 2.326 . S
O202 C198 1.260 . S
O203 In195 2.266 . S
O203 C200 1.252 . S
O204 In195 2.326 . S
O204 C200 1.260 . S
C205 O196 1.240 . S
C205 O197 1.252 . S
O206 In195 2.294 . S
O206 C199 1.240 . S
O207 In195 2.326 . S
O207 C199 1.252 . S
In208 O209 2.300 . S
In208 O210 2.338 . S
In208 O214 2.261 1_545 S
In208 O215 2.314 1_545 S
In208 O216 2.282 . S
In208 O217 2.352 . S
In208 O219 2.278 1_545 S
In208 O220 2.300 1_545 S
O209 In208 2.300 . S
O209 C218 1.240 . S
O210 In208 2.338 . S
O210 C218 1.252 . S
C211 O214 1.252 . S
C211 O215 1.260 . S
C212 O219 1.240 . S
C212 O220 1.252 . S
C213 O216 1.252 . S
C213 O217 1.260 . S
O214 In208 2.261 1_565 S
O214 C211 1.252 . S
O215 In208 2.314 1_565 S
O215 C211 1.260 . S
O216 In208 2.282 . S
O216 C213 1.252 . S
O217 In208 2.352 . S
O217 C213 1.260 . S
C218 O209 1.240 . S
C218 O210 1.252 . S
O219 In208 2.278 1_565 S
O219 C212 1.240 . S
O220 In208 2.300 1_565 S
O220 C212 1.252 . S
In221 O222 2.294 . S
In221 O223 2.326 . S
In221 O227 2.266 . S
In221 O228 2.326 . S
In221 O229 2.266 . S
In221 O230 2.326 . S
In221 O232 2.294 . S
In221 O233 2.326 . S
O222 In221 2.294 . S
O222 C231 1.240 . S
O223 In221 2.326 . S
O223 C231 1.252 . S
C224 O227 1.252 . S
C224 O228 1.260 . S
C225 O232 1.240 . S
C225 O233 1.252 . S
C226 O229 1.252 . S
C226 O230 1.260 . S
O227 In221 2.266 . S
O227 C224 1.252 . S
O228 In221 2.326 . S
O228 C224 1.260 . S
O229 In221 2.266 . S
O229 C226 1.252 . S
O230 In221 2.326 . S
O230 C226 1.260 . S
C231 O222 1.240 . S
C231 O223 1.252 . S
O232 In221 2.294 . S
O232 C225 1.240 . S
O233 In221 2.326 . S
O233 C225 1.252 . S
In234 O235 2.294 . S
In234 O236 2.326 . S
In234 O240 2.266 . S
In234 O241 2.326 . S
In234 O242 2.266 . S
In234 O243 2.326 . S
In234 O245 2.294 . S
In234 O246 2.326 . S
O235 In234 2.294 . S
O235 C244 1.240 . S
O236 In234 2.326 . S
O236 C244 1.252 . S
C237 O240 1.252 . S
C237 O241 1.260 . S
C238 O245 1.240 . S
C238 O246 1.252 . S
C239 O242 1.252 . S
C239 O243 1.260 . S
O240 In234 2.266 . S
O240 C237 1.252 . S
O241 In234 2.326 . S
O241 C237 1.260 . S
O242 In234 2.266 . S
O242 C239 1.252 . S
O243 In234 2.326 . S
O243 C239 1.260 . S
C244 O235 1.240 . S
C244 O236 1.252 . S
O245 In234 2.294 . S
O245 C238 1.240 . S
O246 In234 2.326 . S
O246 C238 1.252 . S
In247 O248 2.294 1_545 S
In247 O249 2.326 1_545 S
In247 O253 2.266 . S
In247 O254 2.326 . S
In247 O255 2.266 1_545 S
In247 O256 2.326 1_545 S
In247 O258 2.294 . S
In247 O259 2.326 . S
O248 In247 2.294 1_565 S
O248 C257 1.240 . S
O249 In247 2.326 1_565 S
O249 C257 1.252 . S
C250 O253 1.252 . S
C250 O254 1.260 . S
C251 O258 1.240 . S
C251 O259 1.252 . S
C252 O255 1.252 . S
C252 O256 1.260 . S
O253 In247 2.266 . S
O253 C250 1.252 . S
O254 In247 2.326 . S
O254 C250 1.260 . S
O255 In247 2.266 1_565 S
O255 C252 1.252 . S
O256 In247 2.326 1_565 S
O256 C252 1.260 . S
C257 O248 1.240 . S
C257 O249 1.252 . S
O258 In247 2.294 . S
O258 C251 1.240 . S
O259 In247 2.326 . S
O259 C251 1.252 . S
In260 O261 2.294 . S
In260 O262 2.326 . S
In260 O266 2.266 1_554 S
In260 O267 2.326 1_554 S
In260 O268 2.266 . S
In260 O269 2.326 . S
In260 O271 2.294 1_554 S
In260 O272 2.326 1_554 S
O261 In260 2.294 . S
O261 C270 1.240 . S
O262 In260 2.326 . S
O262 C270 1.252 . S
C263 O266 1.252 . S
C263 O267 1.260 . S
C264 O271 1.240 . S
C264 O272 1.252 . S
C265 O268 1.252 . S
C265 O269 1.260 . S
O266 In260 2.266 1_556 S
O266 C263 1.252 . S
O267 In260 2.326 1_556 S
O267 C263 1.260 . S
O268 In260 2.266 . S
O268 C265 1.252 . S
O269 In260 2.326 . S
O269 C265 1.260 . S
C270 O261 1.240 . S
C270 O262 1.252 . S
O271 In260 2.294 1_556 S
O271 C264 1.240 . S
O272 In260 2.326 1_556 S
O272 C264 1.252 . S
In273 O274 2.294 . S
In273 O275 2.326 . S
In273 O279 2.266 . S
In273 O280 2.326 . S
In273 O281 2.266 . S
In273 O282 2.326 . S
In273 O284 2.294 . S
In273 O285 2.326 . S
O274 In273 2.294 . S
O274 C283 1.240 . S
O275 In273 2.326 . S
O275 C283 1.252 . S
C276 O279 1.252 . S
C276 O280 1.260 . S
C277 O284 1.240 . S
C277 O285 1.252 . S
C278 O281 1.252 . S
C278 O282 1.260 . S
O279 In273 2.266 . S
O279 C276 1.252 . S
O280 In273 2.326 . S
O280 C276 1.260 . S
O281 In273 2.266 . S
O281 C278 1.252 . S
O282 In273 2.326 . S
O282 C278 1.260 . S
C283 O274 1.240 . S
C283 O275 1.252 . S
O284 In273 2.294 . S
O284 C277 1.240 . S
O285 In273 2.326 . S
O285 C277 1.252 . S
In286 O287 2.294 . S
In286 O288 2.326 . S
In286 O292 2.266 . S
In286 O293 2.326 . S
In286 O294 2.266 . S
In286 O295 2.326 . S
In286 O297 2.294 . S
In286 O298 2.326 . S
O287 In286 2.294 . S
O287 C296 1.240 . S
O288 In286 2.326 . S
O288 C296 1.252 . S
C289 O292 1.252 . S
C289 O293 1.260 . S
C290 O297 1.240 . S
C290 O298 1.252 . S
C291 O294 1.252 . S
C291 O295 1.260 . S
O292 In286 2.266 . S
O292 C289 1.252 . S
O293 In286 2.326 . S
O293 C289 1.260 . S
O294 In286 2.266 . S
O294 C291 1.252 . S
O295 In286 2.326 . S
O295 C291 1.260 . S
C296 O287 1.240 . S
C296 O288 1.252 . S
O297 In286 2.294 . S
O297 C290 1.240 . S
O298 In286 2.326 . S
O298 C290 1.252 . S
In299 O300 2.294 . S
In299 O301 2.326 . S
In299 O305 2.266 . S
In299 O306 2.326 . S
In299 O307 2.266 . S
In299 O308 2.326 . S
In299 O310 2.294 . S
In299 O311 2.326 . S
O300 In299 2.294 . S
O300 C309 1.240 . S
O301 In299 2.326 . S
O301 C309 1.252 . S
C302 O305 1.252 . S
C302 O306 1.260 . S
C303 O310 1.240 . S
C303 O311 1.252 . S
C304 O307 1.252 . S
C304 O308 1.260 . S
O305 In299 2.266 . S
O305 C302 1.252 . S
O306 In299 2.326 . S
O306 C302 1.260 . S
O307 In299 2.266 . S
O307 C304 1.252 . S
O308 In299 2.326 . S
O308 C304 1.260 . S
C309 O300 1.240 . S
C309 O301 1.252 . S
O310 In299 2.294 . S
O310 C303 1.240 . S
O311 In299 2.326 . S
O311 C303 1.252 . S
H312 C320 0.950 . S
H313 C325 0.950 . S
H314 C322 0.950 . S
H315 C324 0.950 . S
H316 C326 0.950 . S
H317 C328 0.950 . S
H318 C330 0.950 . S
H319 C331 0.950 . S
C320 H312 0.950 . S
C320 C321 1.386 . S
C320 C322 1.391 . S
C321 C320 1.386 . S
C321 C325 1.393 . S
C322 H314 0.950 . S
C322 C320 1.391 . S
C322 C323 1.400 . S
C323 C322 1.400 . S
C323 C324 1.398 . S
C323 C329 1.491 . S
C324 H315 0.950 . S
C324 C323 1.398 . S
C324 C325 1.391 . S
C325 H313 0.950 . S
C325 C321 1.393 . S
C325 C324 1.391 . S
C326 H316 0.950 . S
C326 C327 1.386 . S
C326 C328 1.391 . S
C327 C326 1.386 . S
C327 C331 1.393 . S
C328 H317 0.950 . S
C328 C326 1.391 . S
C328 C329 1.400 . S
C329 C323 1.491 . S
C329 C328 1.400 . S
C329 C330 1.398 . S
C330 H318 0.950 . S
C330 C329 1.398 . S
C330 C331 1.391 . S
C331 H319 0.950 . S
C331 C327 1.393 . S
C331 C330 1.391 . S
H332 C340 0.950 . S
H333 C345 0.950 . S
H334 C342 0.950 . S
H335 C344 0.950 . S
H336 C346 0.950 . S
H337 C348 0.950 . S
H338 C350 0.950 . S
H339 C351 0.950 . S
C340 H332 0.950 . S
C340 C341 1.386 . S
C340 C342 1.391 . S
C341 C340 1.386 . S
C341 C345 1.393 . S
C342 H334 0.950 . S
C342 C340 1.391 . S
C342 C343 1.400 . S
C343 C342 1.400 . S
C343 C344 1.398 . S
C343 C349 1.491 . S
C344 H335 0.950 . S
C344 C343 1.398 . S
C344 C345 1.391 . S
C345 H333 0.950 . S
C345 C341 1.393 . S
C345 C344 1.391 . S
C346 H336 0.950 . S
C346 C347 1.386 . S
C346 C348 1.391 . S
C347 C346 1.386 . S
C347 C351 1.393 . S
C348 H337 0.950 . S
C348 C346 1.391 . S
C348 C349 1.400 . S
C349 C343 1.491 . S
C349 C348 1.400 . S
C349 C350 1.398 . S
C350 H338 0.950 . S
C350 C349 1.398 . S
C350 C351 1.391 . S
C351 H339 0.950 . S
C351 C347 1.393 . S
C351 C350 1.391 . S
H352 C360 0.950 . S
H353 C365 0.950 . S
H354 C362 0.950 . S
H355 C364 0.950 . S
H356 C366 0.950 . S
H357 C368 0.950 . S
H358 C370 0.950 . S
H359 C371 0.950 . S
C360 H352 0.950 . S
C360 C361 1.386 . S
C360 C362 1.391 . S
C361 C360 1.386 . S
C361 C365 1.393 . S
C362 H354 0.950 . S
C362 C360 1.391 . S
C362 C363 1.400 . S
C363 C362 1.400 . S
C363 C364 1.398 . S
C363 C369 1.491 . S
C364 H355 0.950 . S
C364 C363 1.398 . S
C364 C365 1.391 . S
C365 H353 0.950 . S
C365 C361 1.393 . S
C365 C364 1.391 . S
C366 H356 0.950 . S
C366 C367 1.386 . S
C366 C368 1.391 . S
C367 C366 1.386 . S
C367 C371 1.393 . S
C368 H357 0.950 . S
C368 C366 1.391 . S
C368 C369 1.400 . S
C369 C363 1.491 . S
C369 C368 1.400 . S
C369 C370 1.398 . S
C370 H358 0.950 . S
C370 C369 1.398 . S
C370 C371 1.391 . S
C371 H359 0.950 . S
C371 C367 1.393 . S
C371 C370 1.391 . S
H372 C380 0.950 . S
H373 C385 0.950 . S
H374 C382 0.950 . S
H375 C384 0.950 . S
H376 C386 0.950 . S
H377 C388 0.950 . S
H378 C390 0.950 . S
H379 C391 0.950 . S
C380 H372 0.950 . S
C380 C381 1.386 . S
C380 C382 1.391 . S
C381 C380 1.386 . S
C381 C385 1.393 . S
C382 H374 0.950 . S
C382 C380 1.391 . S
C382 C383 1.400 . S
C383 C382 1.400 . S
C383 C384 1.398 . S
C383 C389 1.491 . S
C384 H375 0.950 . S
C384 C383 1.398 . S
C384 C385 1.391 . S
C385 H373 0.950 . S
C385 C381 1.393 . S
C385 C384 1.391 . S
C386 H376 0.950 . S
C386 C387 1.386 . S
C386 C388 1.391 . S
C387 C386 1.386 . S
C387 C391 1.393 . S
C388 H377 0.950 . S
C388 C386 1.391 . S
C388 C389 1.400 . S
C389 C383 1.491 . S
C389 C388 1.400 . S
C389 C390 1.398 . S
C390 H378 0.950 . S
C390 C389 1.398 . S
C390 C391 1.391 . S
C391 H379 0.950 . S
C391 C387 1.393 . S
C391 C390 1.391 . S
H392 C400 0.950 . S
H393 C405 0.950 . S
H394 C402 0.950 . S
H395 C404 0.950 . S
H396 C406 0.950 . S
H397 C408 0.950 . S
H398 C410 0.950 . S
H399 C411 0.950 . S
C400 H392 0.950 . S
C400 C401 1.386 . S
C400 C402 1.391 . S
C401 C400 1.386 . S
C401 C405 1.393 . S
C402 H394 0.950 . S
C402 C400 1.391 . S
C402 C403 1.400 . S
C403 C402 1.400 . S
C403 C404 1.398 . S
C403 C409 1.491 . S
C404 H395 0.950 . S
C404 C403 1.398 . S
C404 C405 1.391 . S
C405 H393 0.950 . S
C405 C401 1.393 . S
C405 C404 1.391 . S
C406 H396 0.950 . S
C406 C407 1.386 . S
C406 C408 1.391 . S
C407 C406 1.386 . S
C407 C411 1.393 . S
C408 H397 0.950 . S
C408 C406 1.391 . S
C408 C409 1.400 . S
C409 C403 1.491 . S
C409 C408 1.400 . S
C409 C410 1.398 . S
C410 H398 0.950 . S
C410 C409 1.398 . S
C410 C411 1.391 . S
C411 H399 0.950 . S
C411 C407 1.393 . S
C411 C410 1.391 . S
H412 C420 0.950 . S
H413 C425 0.950 . S
H414 C422 0.950 . S
H415 C424 0.950 . S
H416 C426 0.950 . S
H417 C428 0.950 . S
H418 C430 0.950 . S
H419 C431 0.950 . S
C420 H412 0.950 . S
C420 C421 1.386 . S
C420 C422 1.391 . S
C421 C420 1.386 . S
C421 C425 1.393 . S
C422 H414 0.950 . S
C422 C420 1.391 . S
C422 C423 1.400 . S
C423 C422 1.400 . S
C423 C424 1.398 . S
C423 C429 1.491 . S
C424 H415 0.950 . S
C424 C423 1.398 . S
C424 C425 1.391 . S
C425 H413 0.950 . S
C425 C421 1.393 . S
C425 C424 1.391 . S
C426 H416 0.950 . S
C426 C427 1.386 . S
C426 C428 1.391 . S
C427 C426 1.386 . S
C427 C431 1.393 . S
C428 H417 0.950 . S
C428 C426 1.391 . S
C428 C429 1.400 . S
C429 C423 1.491 . S
C429 C428 1.400 . S
C429 C430 1.398 . S
C430 H418 0.950 . S
C430 C429 1.398 . S
C430 C431 1.391 . S
C431 H419 0.950 . S
C431 C427 1.393 . S
C431 C430 1.391 . S
H432 C440 0.950 . S
H433 C445 0.950 . S
H434 C442 0.950 . S
H435 C444 0.950 . S
H436 C446 0.950 . S
H437 C448 0.950 . S
H438 C450 0.950 . S
H439 C451 0.950 . S
C440 H432 0.950 . S
C440 C441 1.386 . S
C440 C442 1.391 . S
C441 C440 1.386 . S
C441 C445 1.393 . S
C442 H434 0.950 . S
C442 C440 1.391 . S
C442 C443 1.400 . S
C443 C442 1.400 . S
C443 C444 1.398 . S
C443 C449 1.491 . S
C444 H435 0.950 . S
C444 C443 1.398 . S
C444 C445 1.391 . S
C445 H433 0.950 . S
C445 C441 1.393 . S
C445 C444 1.391 . S
C446 H436 0.950 . S
C446 C447 1.386 . S
C446 C448 1.391 . S
C447 C446 1.386 . S
C447 C451 1.393 . S
C448 H437 0.950 . S
C448 C446 1.391 . S
C448 C449 1.400 . S
C449 C443 1.491 . S
C449 C448 1.400 . S
C449 C450 1.398 . S
C450 H438 0.950 . S
C450 C449 1.398 . S
C450 C451 1.391 . S
C451 H439 0.950 . S
C451 C447 1.393 . S
C451 C450 1.391 . S
H452 C460 0.950 . S
H453 C465 0.950 . S
H454 C462 0.950 . S
H455 C464 0.950 . S
H456 C466 0.950 . S
H457 C468 0.950 . S
H458 C470 0.950 . S
H459 C471 0.950 . S
C460 H452 0.950 . S
C460 C461 1.386 . S
C460 C462 1.391 . S
C461 C460 1.386 . S
C461 C465 1.393 . S
C462 H454 0.950 . S
C462 C460 1.391 . S
C462 C463 1.400 . S
C463 C462 1.400 . S
C463 C464 1.398 . S
C463 C469 1.491 . S
C464 H455 0.950 . S
C464 C463 1.398 . S
C464 C465 1.391 . S
C465 H453 0.950 . S
C465 C461 1.393 . S
C465 C464 1.391 . S
C466 H456 0.950 . S
C466 C467 1.386 . S
C466 C468 1.391 . S
C467 C466 1.386 . S
C467 C471 1.393 . S
C468 H457 0.950 . S
C468 C466 1.391 . S
C468 C469 1.400 . S
C469 C463 1.491 . S
C469 C468 1.400 . S
C469 C470 1.398 . S
C470 H458 0.950 . S
C470 C469 1.398 . S
C470 C471 1.391 . S
C471 H459 0.950 . S
C471 C467 1.393 . S
C471 C470 1.391 . S
H472 C480 0.950 . S
H473 C485 0.950 . S
H474 C482 0.950 . S
H475 C484 0.950 . S
H476 C486 0.950 . S
H477 C488 0.950 . S
H478 C490 0.950 . S
H479 C491 0.950 . S
C480 H472 0.950 . S
C480 C481 1.386 . S
C480 C482 1.391 . S
C481 C480 1.386 . S
C481 C485 1.393 . S
C482 H474 0.950 . S
C482 C480 1.391 . S
C482 C483 1.400 . S
C483 C482 1.400 . S
C483 C484 1.398 . S
C483 C489 1.491 . S
C484 H475 0.950 . S
C484 C483 1.398 . S
C484 C485 1.391 . S
C485 H473 0.950 . S
C485 C481 1.393 . S
C485 C484 1.391 . S
C486 H476 0.950 . S
C486 C487 1.386 . S
C486 C488 1.391 . S
C487 C486 1.386 . S
C487 C491 1.393 . S
C488 H477 0.950 . S
C488 C486 1.391 . S
C488 C489 1.400 . S
C489 C483 1.491 . S
C489 C488 1.400 . S
C489 C490 1.398 . S
C490 H478 0.950 . S
C490 C489 1.398 . S
C490 C491 1.391 . S
C491 H479 0.950 . S
C491 C487 1.393 . S
C491 C490 1.391 . S
H492 C500 0.950 . S
H493 C505 0.950 . S
H494 C502 0.950 . S
H495 C504 0.950 . S
H496 C506 0.950 . S
H497 C508 0.950 . S
H498 C510 0.950 . S
H499 C511 0.950 . S
C500 H492 0.950 . S
C500 C501 1.386 . S
C500 C502 1.391 . S
C501 C500 1.386 . S
C501 C505 1.393 . S
C502 H494 0.950 . S
C502 C500 1.391 . S
C502 C503 1.400 . S
C503 C502 1.400 . S
C503 C504 1.398 . S
C503 C509 1.491 . S
C504 H495 0.950 . S
C504 C503 1.398 . S
C504 C505 1.391 . S
C505 H493 0.950 . S
C505 C501 1.393 . S
C505 C504 1.391 . S
C506 H496 0.950 . S
C506 C507 1.386 . S
C506 C508 1.391 . S
C507 C506 1.386 . S
C507 C511 1.393 . S
C508 H497 0.950 . S
C508 C506 1.391 . S
C508 C509 1.400 . S
C509 C503 1.491 . S
C509 C508 1.400 . S
C509 C510 1.398 . S
C510 H498 0.950 . S
C510 C509 1.398 . S
C510 C511 1.391 . S
C511 H499 0.950 . S
C511 C507 1.393 . S
C511 C510 1.391 . S
H512 C520 0.950 . S
H513 C525 0.950 . S
H514 C522 0.950 . S
H515 C524 0.950 . S
H516 C526 0.950 . S
H517 C528 0.950 . S
H518 C530 0.950 . S
H519 C531 0.950 . S
C520 H512 0.950 . S
C520 C521 1.386 . S
C520 C522 1.391 . S
C521 C520 1.386 . S
C521 C525 1.393 . S
C522 H514 0.950 . S
C522 C520 1.391 . S
C522 C523 1.400 . S
C523 C522 1.400 . S
C523 C524 1.398 . S
C523 C529 1.491 . S
C524 H515 0.950 . S
C524 C523 1.398 . S
C524 C525 1.391 . S
C525 H513 0.950 . S
C525 C521 1.393 . S
C525 C524 1.391 . S
C526 H516 0.950 . S
C526 C527 1.386 . S
C526 C528 1.391 . S
C527 C526 1.386 . S
C527 C531 1.393 . S
C528 H517 0.950 . S
C528 C526 1.391 . S
C528 C529 1.400 . S
C529 C523 1.491 . S
C529 C528 1.400 . S
C529 C530 1.398 . S
C530 H518 0.950 . S
C530 C529 1.398 . S
C530 C531 1.391 . S
C531 H519 0.950 . S
C531 C527 1.393 . S
C531 C530 1.391 . S
H532 C540 0.950 . S
H533 C545 0.950 . S
H534 C542 0.950 . S
H535 C544 0.950 . S
H536 C546 0.950 . S
H537 C548 0.950 . S
H538 C550 0.950 . S
H539 C551 0.950 . S
C540 H532 0.950 . S
C540 C541 1.386 . S
C540 C542 1.391 . S
C541 C540 1.386 . S
C541 C545 1.393 . S
C542 H534 0.950 . S
C542 C540 1.391 . S
C542 C543 1.400 . S
C543 C542 1.400 . S
C543 C544 1.398 . S
C543 C549 1.491 . S
C544 H535 0.950 . S
C544 C543 1.398 . S
C544 C545 1.391 . S
C545 H533 0.950 . S
C545 C541 1.393 . S
C545 C544 1.391 . S
C546 H536 0.950 . S
C546 C547 1.386 . S
C546 C548 1.391 . S
C547 C546 1.386 . S
C547 C551 1.393 . S
C548 H537 0.950 . S
C548 C546 1.391 . S
C548 C549 1.400 . S
C549 C543 1.491 . S
C549 C548 1.400 . S
C549 C550 1.398 . S
C550 H538 0.950 . S
C550 C549 1.398 . S
C550 C551 1.391 . S
C551 H539 0.950 . S
C551 C547 1.393 . S
C551 C550 1.391 . S
H552 C560 0.950 . S
H553 C565 0.950 . S
H554 C562 0.950 . S
H555 C564 0.950 . S
H556 C566 0.950 . S
H557 C568 0.950 . S
H558 C570 0.950 . S
H559 C571 0.950 . S
C560 H552 0.950 . S
C560 C561 1.386 . S
C560 C562 1.391 . S
C561 C560 1.386 . S
C561 C565 1.393 . S
C562 H554 0.950 . S
C562 C560 1.391 . S
C562 C563 1.400 . S
C563 C562 1.400 . S
C563 C564 1.398 . S
C563 C569 1.491 . S
C564 H555 0.950 . S
C564 C563 1.398 . S
C564 C565 1.391 . S
C565 H553 0.950 . S
C565 C561 1.393 . S
C565 C564 1.391 . S
C566 H556 0.950 . S
C566 C567 1.386 . S
C566 C568 1.391 . S
C567 C566 1.386 . S
C567 C571 1.393 . S
C568 H557 0.950 . S
C568 C566 1.391 . S
C568 C569 1.400 . S
C569 C563 1.491 . S
C569 C568 1.400 . S
C569 C570 1.398 . S
C570 H558 0.950 . S
C570 C569 1.398 . S
C570 C571 1.391 . S
C571 H559 0.950 . S
C571 C567 1.393 . S
C571 C570 1.391 . S
H572 C580 0.950 . S
H573 C585 0.950 . S
H574 C582 0.950 . S
H575 C584 0.950 . S
H576 C586 0.950 . S
H577 C588 0.950 . S
H578 C590 0.950 . S
H579 C591 0.950 . S
C580 H572 0.950 . S
C580 C581 1.386 . S
C580 C582 1.391 . S
C581 C580 1.386 . S
C581 C585 1.393 . S
C582 H574 0.950 . S
C582 C580 1.391 . S
C582 C583 1.400 . S
C583 C582 1.400 . S
C583 C584 1.398 . S
C583 C589 1.491 . S
C584 H575 0.950 . S
C584 C583 1.398 . S
C584 C585 1.391 . S
C585 H573 0.950 . S
C585 C581 1.393 . S
C585 C584 1.391 . S
C586 H576 0.950 . S
C586 C587 1.386 . S
C586 C588 1.391 . S
C587 C586 1.386 . S
C587 C591 1.393 . S
C588 H577 0.950 . S
C588 C586 1.391 . S
C588 C589 1.400 . S
C589 C583 1.491 . S
C589 C588 1.400 . S
C589 C590 1.398 . S
C590 H578 0.950 . S
C590 C589 1.398 . S
C590 C591 1.391 . S
C591 H579 0.950 . S
C591 C587 1.393 . S
C591 C590 1.391 . S
H592 C600 0.950 . S
H593 C605 0.950 . S
H594 C602 0.950 . S
H595 C604 0.950 . S
H596 C606 0.950 . S
H597 C608 0.950 . S
H598 C610 0.950 . S
H599 C611 0.950 . S
C600 H592 0.950 . S
C600 C601 1.386 . S
C600 C602 1.391 . S
C601 C600 1.386 . S
C601 C605 1.393 . S
C602 H594 0.950 . S
C602 C600 1.391 . S
C602 C603 1.400 . S
C603 C602 1.400 . S
C603 C604 1.398 . S
C603 C609 1.491 . S
C604 H595 0.950 . S
C604 C603 1.398 . S
C604 C605 1.391 . S
C605 H593 0.950 . S
C605 C601 1.393 . S
C605 C604 1.391 . S
C606 H596 0.950 . S
C606 C607 1.386 . S
C606 C608 1.391 . S
C607 C606 1.386 . S
C607 C611 1.393 . S
C608 H597 0.950 . S
C608 C606 1.391 . S
C608 C609 1.400 . S
C609 C603 1.491 . S
C609 C608 1.400 . S
C609 C610 1.398 . S
C610 H598 0.950 . S
C610 C609 1.398 . S
C610 C611 1.391 . S
C611 H599 0.950 . S
C611 C607 1.393 . S
C611 C610 1.391 . S
H612 C620 0.950 . S
H613 C625 0.950 . S
H614 C622 0.950 . S
H615 C624 0.950 . S
H616 C626 0.950 . S
H617 C628 0.950 . S
H618 C630 0.950 . S
H619 C631 0.950 . S
C620 H612 0.950 . S
C620 C621 1.386 . S
C620 C622 1.391 . S
C621 C620 1.386 . S
C621 C625 1.393 . S
C622 H614 0.950 . S
C622 C620 1.391 . S
C622 C623 1.400 . S
C623 C622 1.400 . S
C623 C624 1.398 . S
C623 C629 1.491 . S
C624 H615 0.950 . S
C624 C623 1.398 . S
C624 C625 1.391 . S
C625 H613 0.950 . S
C625 C621 1.393 . S
C625 C624 1.391 . S
C626 H616 0.950 . S
C626 C627 1.386 . S
C626 C628 1.391 . S
C627 C626 1.386 . S
C627 C631 1.393 . S
C628 H617 0.950 . S
C628 C626 1.391 . S
C628 C629 1.400 . S
C629 C623 1.491 . S
C629 C628 1.400 . S
C629 C630 1.398 . S
C630 H618 0.950 . S
C630 C629 1.398 . S
C630 C631 1.391 . S
C631 H619 0.950 . S
C631 C627 1.393 . S
C631 C630 1.391 . S
H632 C640 0.950 . S
H633 C645 0.950 . S
H634 C642 0.950 . S
H635 C644 0.950 . S
H636 C646 0.950 . S
H637 C648 0.950 . S
H638 C650 0.950 . S
H639 C651 0.950 . S
C640 H632 0.950 . S
C640 C641 1.386 . S
C640 C642 1.391 . S
C641 C640 1.386 . S
C641 C645 1.393 . S
C642 H634 0.950 . S
C642 C640 1.391 . S
C642 C643 1.400 . S
C643 C642 1.400 . S
C643 C644 1.398 . S
C643 C649 1.491 . S
C644 H635 0.950 . S
C644 C643 1.398 . S
C644 C645 1.391 . S
C645 H633 0.950 . S
C645 C641 1.393 . S
C645 C644 1.391 . S
C646 H636 0.950 . S
C646 C647 1.386 . S
C646 C648 1.391 . S
C647 C646 1.386 . S
C647 C651 1.393 . S
C648 H637 0.950 . S
C648 C646 1.391 . S
C648 C649 1.400 . S
C649 C643 1.491 . S
C649 C648 1.400 . S
C649 C650 1.398 . S
C650 H638 0.950 . S
C650 C649 1.398 . S
C650 C651 1.391 . S
C651 H639 0.950 . S
C651 C647 1.393 . S
C651 C650 1.391 . S
H652 C660 0.950 . S
H653 C665 0.950 . S
H654 C662 0.950 . S
H655 C664 0.950 . S
H656 C666 0.950 . S
H657 C668 0.950 . S
H658 C670 0.950 . S
H659 C671 0.950 . S
C660 H652 0.950 . S
C660 C661 1.386 . S
C660 C662 1.391 . S
C661 C660 1.386 . S
C661 C665 1.393 . S
C662 H654 0.950 . S
C662 C660 1.391 . S
C662 C663 1.400 . S
C663 C662 1.400 . S
C663 C664 1.398 . S
C663 C669 1.491 . S
C664 H655 0.950 . S
C664 C663 1.398 . S
C664 C665 1.391 . S
C665 H653 0.950 . S
C665 C661 1.393 . S
C665 C664 1.391 . S
C666 H656 0.950 . S
C666 C667 1.386 . S
C666 C668 1.391 . S
C667 C666 1.386 . S
C667 C671 1.393 . S
C668 H657 0.950 . S
C668 C666 1.391 . S
C668 C669 1.400 . S
C669 C663 1.491 . S
C669 C668 1.400 . S
C669 C670 1.398 . S
C670 H658 0.950 . S
C670 C669 1.398 . S
C670 C671 1.391 . S
C671 H659 0.950 . S
C671 C667 1.393 . S
C671 C670 1.391 . S
H672 C680 0.950 . S
H673 C685 0.950 1_554 S
H674 C682 0.950 . S
H675 C684 0.950 . S
H676 C686 0.950 . S
H677 C688 0.950 . S
H678 C690 0.950 . S
H679 C691 0.950 . S
C680 H672 0.950 . S
C680 C681 1.386 . S
C680 C682 1.391 . S
C681 C680 1.386 . S
C681 C685 1.393 . S
C682 H674 0.950 . S
C682 C680 1.391 . S
C682 C683 1.400 . S
C683 C682 1.400 . S
C683 C684 1.398 . S
C683 C689 1.491 . S
C684 H675 0.950 . S
C684 C683 1.398 . S
C684 C685 1.391 . S
C685 H673 0.950 1_556 S
C685 C681 1.393 . S
C685 C684 1.391 . S
C686 H676 0.950 . S
C686 C687 1.386 . S
C686 C688 1.391 . S
C687 C686 1.386 . S
C687 C691 1.393 . S
C688 H677 0.950 . S
C688 C686 1.391 . S
C688 C689 1.400 . S
C689 C683 1.491 . S
C689 C688 1.400 . S
C689 C690 1.398 . S
C690 H678 0.950 . S
C690 C689 1.398 . S
C690 C691 1.391 . S
C691 H679 0.950 . S
C691 C687 1.393 . S
C691 C690 1.391 . S
H692 C700 0.950 . S
H693 C705 0.950 . S
H694 C702 0.950 . S
H695 C704 0.950 . S
H696 C706 0.950 . S
H697 C708 0.950 . S
H698 C710 0.950 . S
H699 C711 0.950 1_455 S
C700 H692 0.950 . S
C700 C701 1.386 . S
C700 C702 1.391 . S
C701 C700 1.386 . S
C701 C705 1.393 . S
C702 H694 0.950 . S
C702 C700 1.391 . S
C702 C703 1.400 . S
C703 C702 1.400 . S
C703 C704 1.398 . S
C703 C709 1.491 . S
C704 H695 0.950 . S
C704 C703 1.398 . S
C704 C705 1.391 . S
C705 H693 0.950 . S
C705 C701 1.393 . S
C705 C704 1.391 . S
C706 H696 0.950 . S
C706 C707 1.386 . S
C706 C708 1.391 . S
C707 C706 1.386 . S
C707 C711 1.393 . S
C708 H697 0.950 . S
C708 C706 1.391 . S
C708 C709 1.400 . S
C709 C703 1.491 . S
C709 C708 1.400 . S
C709 C710 1.398 . S
C710 H698 0.950 . S
C710 C709 1.398 . S
C710 C711 1.391 . S
C711 H699 0.950 1_655 S
C711 C707 1.393 . S
C711 C710 1.391 . S
H712 C720 0.950 . S
H713 C725 0.950 . S
H714 C722 0.950 . S
H715 C724 0.950 . S
H716 C726 0.950 . S
H717 C728 0.950 . S
H718 C730 0.950 . S
H719 C731 0.950 . S
C720 H712 0.950 . S
C720 C721 1.386 . S
C720 C722 1.391 . S
C721 C720 1.386 . S
C721 C725 1.393 . S
C722 H714 0.950 . S
C722 C720 1.391 . S
C722 C723 1.400 . S
C723 C722 1.400 . S
C723 C724 1.398 . S
C723 C729 1.491 . S
C724 H715 0.950 . S
C724 C723 1.398 . S
C724 C725 1.391 . S
C725 H713 0.950 . S
C725 C721 1.393 . S
C725 C724 1.391 . S
C726 H716 0.950 . S
C726 C727 1.386 . S
C726 C728 1.391 . S
C727 C726 1.386 . S
C727 C731 1.393 . S
C728 H717 0.950 . S
C728 C726 1.391 . S
C728 C729 1.400 . S
C729 C723 1.491 . S
C729 C728 1.400 . S
C729 C730 1.398 . S
C730 H718 0.950 . S
C730 C729 1.398 . S
C730 C731 1.391 . S
C731 H719 0.950 . S
C731 C727 1.393 . S
C731 C730 1.391 . S
H732 C740 0.950 . S
H733 C745 0.950 . S
H734 C742 0.950 . S
H735 C744 0.950 . S
H736 C746 0.950 . S
H737 C748 0.950 . S
H738 C750 0.950 . S
H739 C751 0.950 . S
C740 H732 0.950 . S
C740 C741 1.386 . S
C740 C742 1.391 . S
C741 C740 1.386 . S
C741 C745 1.393 . S
C742 H734 0.950 . S
C742 C740 1.391 . S
C742 C743 1.400 . S
C743 C742 1.400 . S
C743 C744 1.398 . S
C743 C749 1.491 . S
C744 H735 0.950 . S
C744 C743 1.398 . S
C744 C745 1.391 . S
C745 H733 0.950 . S
C745 C741 1.393 . S
C745 C744 1.391 . S
C746 H736 0.950 . S
C746 C747 1.386 . S
C746 C748 1.391 . S
C747 C746 1.386 . S
C747 C751 1.393 . S
C748 H737 0.950 . S
C748 C746 1.391 . S
C748 C749 1.400 . S
C749 C743 1.491 . S
C749 C748 1.400 . S
C749 C750 1.398 . S
C750 H738 0.950 . S
C750 C749 1.398 . S
C750 C751 1.391 . S
C751 H739 0.950 . S
C751 C747 1.393 . S
C751 C750 1.391 . S
H752 C760 0.950 . S
H753 C765 0.950 . S
H754 C762 0.950 . S
H755 C764 0.950 . S
H756 C766 0.950 . S
H757 C768 0.950 . S
H758 C770 0.950 . S
H759 C771 0.950 . S
C760 H752 0.950 . S
C760 C761 1.386 . S
C760 C762 1.391 . S
C761 C760 1.386 . S
C761 C765 1.393 . S
C762 H754 0.950 . S
C762 C760 1.391 . S
C762 C763 1.400 . S
C763 C762 1.400 . S
C763 C764 1.398 . S
C763 C769 1.491 . S
C764 H755 0.950 . S
C764 C763 1.398 . S
C764 C765 1.391 . S
C765 H753 0.950 . S
C765 C761 1.393 . S
C765 C764 1.391 . S
C766 H756 0.950 . S
C766 C767 1.386 . S
C766 C768 1.391 . S
C767 C766 1.386 . S
C767 C771 1.393 . S
C768 H757 0.950 . S
C768 C766 1.391 . S
C768 C769 1.400 . S
C769 C763 1.491 . S
C769 C768 1.400 . S
C769 C770 1.398 . S
C770 H758 0.950 . S
C770 C769 1.398 . S
C770 C771 1.391 . S
C771 H759 0.950 . S
C771 C767 1.393 . S
C771 C770 1.391 . S
H772 C780 0.950 . S
H773 C785 0.950 . S
H774 C782 0.950 . S
H775 C784 0.950 . S
H776 C786 0.950 . S
H777 C788 0.950 . S
H778 C790 0.950 . S
H779 C791 0.950 . S
C780 H772 0.950 . S
C780 C781 1.386 . S
C780 C782 1.391 . S
C781 C780 1.386 . S
C781 C785 1.393 . S
C782 H774 0.950 . S
C782 C780 1.391 . S
C782 C783 1.400 . S
C783 C782 1.400 . S
C783 C784 1.398 . S
C783 C789 1.491 . S
C784 H775 0.950 . S
C784 C783 1.398 . S
C784 C785 1.391 . S
C785 H773 0.950 . S
C785 C781 1.393 . S
C785 C784 1.391 . S
C786 H776 0.950 . S
C786 C787 1.386 . S
C786 C788 1.391 . S
C787 C786 1.386 . S
C787 C791 1.393 . S
C788 H777 0.950 . S
C788 C786 1.391 . S
C788 C789 1.400 . S
C789 C783 1.491 . S
C789 C788 1.400 . S
C789 C790 1.398 . S
C790 H778 0.950 . S
C790 C789 1.398 . S
C790 C791 1.391 . S
C791 H779 0.950 . S
C791 C787 1.393 . S
C791 C790 1.391 . S
H792 C800 0.950 . S
H793 C805 0.950 1_545 S
H794 C802 0.950 . S
H795 C804 0.950 . S
H796 C806 0.950 . S
H797 C808 0.950 . S
H798 C810 0.950 . S
H799 C811 0.950 . S
C800 H792 0.950 . S
C800 C801 1.386 . S
C800 C802 1.391 . S
C801 C800 1.386 . S
C801 C805 1.393 . S
C802 H794 0.950 . S
C802 C800 1.391 . S
C802 C803 1.400 . S
C803 C802 1.400 . S
C803 C804 1.398 . S
C803 C809 1.491 . S
C804 H795 0.950 . S
C804 C803 1.398 . S
C804 C805 1.391 . S
C805 H793 0.950 1_565 S
C805 C801 1.393 . S
C805 C804 1.391 . S
C806 H796 0.950 . S
C806 C807 1.386 . S
C806 C808 1.391 . S
C807 C806 1.386 . S
C807 C811 1.393 . S
C808 H797 0.950 . S
C808 C806 1.391 . S
C808 C809 1.400 . S
C809 C803 1.491 . S
C809 C808 1.400 . S
C809 C810 1.398 . S
C810 H798 0.950 . S
C810 C809 1.398 . S
C810 C811 1.391 . S
C811 H799 0.950 . S
C811 C807 1.393 . S
C811 C810 1.391 . S
H812 C820 0.950 . S
H813 C825 0.950 . S
H814 C822 0.950 . S
H815 C824 0.950 . S
H816 C826 0.950 . S
H817 C828 0.950 . S
H818 C830 0.950 . S
H819 C831 0.950 . S
C820 H812 0.950 . S
C820 C821 1.386 . S
C820 C822 1.391 . S
C821 C820 1.386 . S
C821 C825 1.393 . S
C822 H814 0.950 . S
C822 C820 1.391 . S
C822 C823 1.400 . S
C823 C822 1.400 . S
C823 C824 1.398 . S
C823 C829 1.491 . S
C824 H815 0.950 . S
C824 C823 1.398 . S
C824 C825 1.391 . S
C825 H813 0.950 . S
C825 C821 1.393 . S
C825 C824 1.391 . S
C826 H816 0.950 . S
C826 C827 1.386 . S
C826 C828 1.391 . S
C827 C826 1.386 . S
C827 C831 1.393 . S
C828 H817 0.950 . S
C828 C826 1.391 . S
C828 C829 1.400 . S
C829 C823 1.491 . S
C829 C828 1.400 . S
C829 C830 1.398 . S
C830 H818 0.950 . S
C830 C829 1.398 . S
C830 C831 1.391 . S
C831 H819 0.950 . S
C831 C827 1.393 . S
C831 C830 1.391 . S
H832 C840 0.950 1_565 S
H833 C845 0.950 . S
H834 C842 0.950 . S
H835 C844 0.950 . S
H836 C846 0.950 . S
H837 C848 0.950 . S
H838 C850 0.950 . S
H839 C851 0.950 . S
C840 H832 0.950 1_545 S
C840 C841 1.386 . S
C840 C842 1.391 . S
C841 C840 1.386 . S
C841 C845 1.393 . S
C842 H834 0.950 . S
C842 C840 1.391 . S
C842 C843 1.400 . S
C843 C842 1.400 . S
C843 C844 1.398 . S
C843 C849 1.491 . S
C844 H835 0.950 . S
C844 C843 1.398 . S
C844 C845 1.391 . S
C845 H833 0.950 . S
C845 C841 1.393 . S
C845 C844 1.391 . S
C846 H836 0.950 . S
C846 C847 1.386 . S
C846 C848 1.391 . S
C847 C846 1.386 . S
C847 C851 1.393 . S
C848 H837 0.950 . S
C848 C846 1.391 . S
C848 C849 1.400 . S
C849 C843 1.491 . S
C849 C848 1.400 . S
C849 C850 1.398 . S
C850 H838 0.950 . S
C850 C849 1.398 . S
C850 C851 1.391 . S
C851 H839 0.950 . S
C851 C847 1.393 . S
C851 C850 1.391 . S
H852 C860 0.950 . S
H853 C865 0.950 . S
H854 C862 0.950 . S
H855 C864 0.950 . S
H856 C866 0.950 . S
H857 C868 0.950 . S
H858 C870 0.950 . S
H859 C871 0.950 1_554 S
C860 H852 0.950 . S
C860 C861 1.386 . S
C860 C862 1.391 . S
C861 C860 1.386 . S
C861 C865 1.393 . S
C862 H854 0.950 . S
C862 C860 1.391 . S
C862 C863 1.400 . S
C863 C862 1.400 . S
C863 C864 1.398 . S
C863 C869 1.491 . S
C864 H855 0.950 . S
C864 C863 1.398 . S
C864 C865 1.391 . S
C865 H853 0.950 . S
C865 C861 1.393 . S
C865 C864 1.391 . S
C866 H856 0.950 . S
C866 C867 1.386 . S
C866 C868 1.391 . S
C867 C866 1.386 . S
C867 C871 1.393 . S
C868 H857 0.950 . S
C868 C866 1.391 . S
C868 C869 1.400 . S
C869 C863 1.491 . S
C869 C868 1.400 . S
C869 C870 1.398 . S
C870 H858 0.950 . S
C870 C869 1.398 . S
C870 C871 1.391 . S
C871 H859 0.950 1_556 S
C871 C867 1.393 . S
C871 C870 1.391 . S
H872 C880 0.950 . S
H873 C885 0.950 . S
H874 C882 0.950 . S
H875 C884 0.950 . S
H876 C886 0.950 . S
H877 C888 0.950 . S
H878 C890 0.950 . S
H879 C891 0.950 1_655 S
C880 H872 0.950 . S
C880 C881 1.386 . S
C880 C882 1.391 . S
C881 C880 1.386 . S
C881 C885 1.393 . S
C882 H874 0.950 . S
C882 C880 1.391 . S
C882 C883 1.400 . S
C883 C882 1.400 . S
C883 C884 1.398 . S
C883 C889 1.491 . S
C884 H875 0.950 . S
C884 C883 1.398 . S
C884 C885 1.391 . S
C885 H873 0.950 . S
C885 C881 1.393 . S
C885 C884 1.391 . S
C886 H876 0.950 . S
C886 C887 1.386 . S
C886 C888 1.391 . S
C887 C886 1.386 . S
C887 C891 1.393 . S
C888 H877 0.950 . S
C888 C886 1.391 . S
C888 C889 1.400 . S
C889 C883 1.491 . S
C889 C888 1.400 . S
C889 C890 1.398 . S
C890 H878 0.950 . S
C890 C889 1.398 . S
C890 C891 1.391 . S
C891 H879 0.950 1_455 S
C891 C887 1.393 . S
C891 C890 1.391 . S
H892 C900 0.950 . S
H893 C905 0.950 . S
H894 C902 0.950 . S
H895 C904 0.950 . S
H896 C906 0.950 . S
H897 C908 0.950 . S
H898 C910 0.950 . S
H899 C911 0.950 . S
C900 H892 0.950 . S
C900 C901 1.386 . S
C900 C902 1.391 . S
C901 C900 1.386 . S
C901 C905 1.393 . S
C902 H894 0.950 . S
C902 C900 1.391 . S
C902 C903 1.400 . S
C903 C902 1.400 . S
C903 C904 1.398 . S
C903 C909 1.491 . S
C904 H895 0.950 . S
C904 C903 1.398 . S
C904 C905 1.391 . S
C905 H893 0.950 . S
C905 C901 1.393 . S
C905 C904 1.391 . S
C906 H896 0.950 . S
C906 C907 1.386 . S
C906 C908 1.391 . S
C907 C906 1.386 . S
C907 C911 1.393 . S
C908 H897 0.950 . S
C908 C906 1.391 . S
C908 C909 1.400 . S
C909 C903 1.491 . S
C909 C908 1.400 . S
C909 C910 1.398 . S
C910 H898 0.950 . S
C910 C909 1.398 . S
C910 C911 1.391 . S
C911 H899 0.950 . S
C911 C907 1.393 . S
C911 C910 1.391 . S
H912 C920 0.950 . S
H913 C925 0.950 . S
H914 C922 0.950 . S
H915 C924 0.950 . S
H916 C926 0.950 . S
H917 C928 0.950 . S
H918 C930 0.950 . S
H919 C931 0.950 . S
C920 H912 0.950 . S
C920 C921 1.386 . S
C920 C922 1.391 . S
C921 C920 1.386 . S
C921 C925 1.393 . S
C922 H914 0.950 . S
C922 C920 1.391 . S
C922 C923 1.400 . S
C923 C922 1.400 . S
C923 C924 1.398 . S
C923 C929 1.491 . S
C924 H915 0.950 . S
C924 C923 1.398 . S
C924 C925 1.391 . S
C925 H913 0.950 . S
C925 C921 1.393 . S
C925 C924 1.391 . S
C926 H916 0.950 . S
C926 C927 1.386 . S
C926 C928 1.391 . S
C927 C926 1.386 . S
C927 C931 1.393 . S
C928 H917 0.950 . S
C928 C926 1.391 . S
C928 C929 1.400 . S
C929 C923 1.491 . S
C929 C928 1.400 . S
C929 C930 1.398 . S
C930 H918 0.950 . S
C930 C929 1.398 . S
C930 C931 1.391 . S
C931 H919 0.950 . S
C931 C927 1.393 . S
C931 C930 1.391 . S
H932 C940 0.950 . S
H933 C945 0.950 . S
H934 C942 0.950 . S
H935 C944 0.950 . S
H936 C946 0.950 . S
H937 C948 0.950 . S
H938 C950 0.950 . S
H939 C951 0.950 . S
C940 H932 0.950 . S
C940 C941 1.386 . S
C940 C942 1.391 . S
C941 C940 1.386 . S
C941 C945 1.393 . S
C942 H934 0.950 . S
C942 C940 1.391 . S
C942 C943 1.400 . S
C943 C942 1.400 . S
C943 C944 1.398 . S
C943 C949 1.491 . S
C944 H935 0.950 . S
C944 C943 1.398 . S
C944 C945 1.391 . S
C945 H933 0.950 . S
C945 C941 1.393 . S
C945 C944 1.391 . S
C946 H936 0.950 . S
C946 C947 1.386 . S
C946 C948 1.391 . S
C947 C946 1.386 . S
C947 C951 1.393 . S
C948 H937 0.950 . S
C948 C946 1.391 . S
C948 C949 1.400 . S
C949 C943 1.491 . S
C949 C948 1.400 . S
C949 C950 1.398 . S
C950 H938 0.950 . S
C950 C949 1.398 . S
C950 C951 1.391 . S
C951 H939 0.950 . S
C951 C947 1.393 . S
C951 C950 1.391 . S
H952 C960 0.950 . S
H953 C965 0.950 . S
H954 C962 0.950 . S
H955 C964 0.950 . S
H956 C966 0.950 . S
H957 C968 0.950 . S
H958 C970 0.950 . S
H959 C971 0.950 . S
C960 H952 0.950 . S
C960 C961 1.386 . S
C960 C962 1.391 . S
C961 C960 1.386 . S
C961 C965 1.393 . S
C962 H954 0.950 . S
C962 C960 1.391 . S
C962 C963 1.400 . S
C963 C962 1.400 . S
C963 C964 1.398 . S
C963 C969 1.491 . S
C964 H955 0.950 . S
C964 C963 1.398 . S
C964 C965 1.391 . S
C965 H953 0.950 . S
C965 C961 1.393 . S
C965 C964 1.391 . S
C966 H956 0.950 . S
C966 C967 1.386 . S
C966 C968 1.391 . S
C967 C966 1.386 . S
C967 C971 1.393 . S
C968 H957 0.950 . S
C968 C966 1.391 . S
C968 C969 1.400 . S
C969 C963 1.491 . S
C969 C968 1.400 . S
C969 C970 1.398 . S
C970 H958 0.950 . S
C970 C969 1.398 . S
C970 C971 1.391 . S
C971 H959 0.950 . S
C971 C967 1.393 . S
C971 C970 1.391 . S
H972 C980 0.950 . S
H973 C985 0.950 . S
H974 C982 0.950 . S
H975 C984 0.950 . S
H976 C986 0.950 . S
H977 C988 0.950 . S
H978 C990 0.950 . S
H979 C991 0.950 . S
C980 H972 0.950 . S
C980 C981 1.386 . S
C980 C982 1.391 . S
C981 C980 1.386 . S
C981 C985 1.393 . S
C982 H974 0.950 . S
C982 C980 1.391 . S
C982 C983 1.400 . S
C983 C982 1.400 . S
C983 C984 1.398 . S
C983 C989 1.491 . S
C984 H975 0.950 . S
C984 C983 1.398 . S
C984 C985 1.391 . S
C985 H973 0.950 . S
C985 C981 1.393 . S
C985 C984 1.391 . S
C986 H976 0.950 . S
C986 C987 1.386 . S
C986 C988 1.391 . S
C987 C986 1.386 . S
C987 C991 1.393 . S
C988 H977 0.950 . S
C988 C986 1.391 . S
C988 C989 1.400 . S
C989 C983 1.491 . S
C989 C988 1.400 . S
C989 C990 1.398 . S
C990 H978 0.950 . S
C990 C989 1.398 . S
C990 C991 1.391 . S
C991 H979 0.950 . S
C991 C987 1.393 . S
C991 C990 1.391 . S
H992 C1000 0.950 . S
H993 C1005 0.950 . S
H994 C1002 0.950 . S
H995 C1004 0.950 . S
H996 C1006 0.950 . S
H997 C1008 0.950 . S
H998 C1010 0.950 . S
H999 C1011 0.950 . S
C1000 H992 0.950 . S
C1000 C1001 1.386 . S
C1000 C1002 1.391 . S
C1001 C1000 1.386 . S
C1001 C1005 1.393 . S
C1002 H994 0.950 . S
C1002 C1000 1.391 . S
C1002 C1003 1.400 . S
C1003 C1002 1.400 . S
C1003 C1004 1.398 . S
C1003 C1009 1.491 . S
C1004 H995 0.950 . S
C1004 C1003 1.398 . S
C1004 C1005 1.391 . S
C1005 H993 0.950 . S
C1005 C1001 1.393 . S
C1005 C1004 1.391 . S
C1006 H996 0.950 . S
C1006 C1007 1.386 . S
C1006 C1008 1.391 . S
C1007 C1006 1.386 . S
C1007 C1011 1.393 . S
C1008 H997 0.950 . S
C1008 C1006 1.391 . S
C1008 C1009 1.400 . S
C1009 C1003 1.491 . S
C1009 C1008 1.400 . S
C1009 C1010 1.398 . S
C1010 H998 0.950 . S
C1010 C1009 1.398 . S
C1010 C1011 1.391 . S
C1011 H999 0.950 . S
C1011 C1007 1.393 . S
C1011 C1010 1.391 . S
H1012 C1020 0.950 . S
H1013 C1025 0.950 . S
H1014 C1022 0.950 . S
H1015 C1024 0.950 . S
H1016 C1026 0.950 . S
H1017 C1028 0.950 . S
H1018 C1030 0.950 . S
H1019 C1031 0.950 . S
C1020 H1012 0.950 . S
C1020 C1021 1.386 . S
C1020 C1022 1.391 . S
C1021 C1020 1.386 . S
C1021 C1025 1.393 . S
C1022 H1014 0.950 . S
C1022 C1020 1.391 . S
C1022 C1023 1.400 . S
C1023 C1022 1.400 . S
C1023 C1024 1.398 . S
C1023 C1029 1.491 . S
C1024 H1015 0.950 . S
C1024 C1023 1.398 . S
C1024 C1025 1.391 . S
C1025 H1013 0.950 . S
C1025 C1021 1.393 . S
C1025 C1024 1.391 . S
C1026 H1016 0.950 . S
C1026 C1027 1.386 . S
C1026 C1028 1.391 . S
C1027 C1026 1.386 . S
C1027 C1031 1.393 . S
C1028 H1017 0.950 . S
C1028 C1026 1.391 . S
C1028 C1029 1.400 . S
C1029 C1023 1.491 . S
C1029 C1028 1.400 . S
C1029 C1030 1.398 . S
C1030 H1018 0.950 . S
C1030 C1029 1.398 . S
C1030 C1031 1.391 . S
C1031 H1019 0.950 . S
C1031 C1027 1.393 . S
C1031 C1030 1.391 . S
H1032 C1040 0.950 . S
H1033 C1045 0.950 . S
H1034 C1042 0.950 . S
H1035 C1044 0.950 . S
H1036 C1046 0.950 . S
H1037 C1048 0.950 . S
H1038 C1050 0.950 . S
H1039 C1051 0.950 . S
C1040 H1032 0.950 . S
C1040 C1041 1.386 . S
C1040 C1042 1.391 . S
C1041 C1040 1.386 . S
C1041 C1045 1.393 . S
C1042 H1034 0.950 . S
C1042 C1040 1.391 . S
C1042 C1043 1.400 . S
C1043 C1042 1.400 . S
C1043 C1044 1.398 . S
C1043 C1049 1.491 . S
C1044 H1035 0.950 . S
C1044 C1043 1.398 . S
C1044 C1045 1.391 . S
C1045 H1033 0.950 . S
C1045 C1041 1.393 . S
C1045 C1044 1.391 . S
C1046 H1036 0.950 . S
C1046 C1047 1.386 . S
C1046 C1048 1.391 . S
C1047 C1046 1.386 . S
C1047 C1051 1.393 . S
C1048 H1037 0.950 . S
C1048 C1046 1.391 . S
C1048 C1049 1.400 . S
C1049 C1043 1.491 . S
C1049 C1048 1.400 . S
C1049 C1050 1.398 . S
C1050 H1038 0.950 . S
C1050 C1049 1.398 . S
C1050 C1051 1.391 . S
C1051 H1039 0.950 . S
C1051 C1047 1.393 . S
C1051 C1050 1.391 . S
H1052 C1060 0.950 . S
H1053 C1065 0.950 . S
H1054 C1062 0.950 . S
H1055 C1064 0.950 . S
H1056 C1066 0.950 . S
H1057 C1068 0.950 . S
H1058 C1070 0.950 . S
H1059 C1071 0.950 . S
C1060 H1052 0.950 . S
C1060 C1061 1.386 . S
C1060 C1062 1.391 . S
C1061 C1060 1.386 . S
C1061 C1065 1.393 . S
C1062 H1054 0.950 . S
C1062 C1060 1.391 . S
C1062 C1063 1.400 . S
C1063 C1062 1.400 . S
C1063 C1064 1.398 . S
C1063 C1069 1.491 . S
C1064 H1055 0.950 . S
C1064 C1063 1.398 . S
C1064 C1065 1.391 . S
C1065 H1053 0.950 . S
C1065 C1061 1.393 . S
C1065 C1064 1.391 . S
C1066 H1056 0.950 . S
C1066 C1067 1.386 . S
C1066 C1068 1.391 . S
C1067 C1066 1.386 . S
C1067 C1071 1.393 . S
C1068 H1057 0.950 . S
C1068 C1066 1.391 . S
C1068 C1069 1.400 . S
C1069 C1063 1.491 . S
C1069 C1068 1.400 . S
C1069 C1070 1.398 . S
C1070 H1058 0.950 . S
C1070 C1069 1.398 . S
C1070 C1071 1.391 . S
C1071 H1059 0.950 . S
C1071 C1067 1.393 . S
C1071 C1070 1.391 . S
H1072 C1080 0.950 . S
H1073 C1085 0.950 . S
H1074 C1082 0.950 . S
H1075 C1084 0.950 . S
H1076 C1086 0.950 . S
H1077 C1088 0.950 . S
H1078 C1090 0.950 . S
H1079 C1091 0.950 . S
C1080 H1072 0.950 . S
C1080 C1081 1.386 . S
C1080 C1082 1.391 . S
C1081 C1080 1.386 . S
C1081 C1085 1.393 . S
C1082 H1074 0.950 . S
C1082 C1080 1.391 . S
C1082 C1083 1.400 . S
C1083 C1082 1.400 . S
C1083 C1084 1.398 . S
C1083 C1089 1.491 . S
C1084 H1075 0.950 . S
C1084 C1083 1.398 . S
C1084 C1085 1.391 . S
C1085 H1073 0.950 . S
C1085 C1081 1.393 . S
C1085 C1084 1.391 . S
C1086 H1076 0.950 . S
C1086 C1087 1.386 . S
C1086 C1088 1.391 . S
C1087 C1086 1.386 . S
C1087 C1091 1.393 . S
C1088 H1077 0.950 . S
C1088 C1086 1.391 . S
C1088 C1089 1.400 . S
C1089 C1083 1.491 . S
C1089 C1088 1.400 . S
C1089 C1090 1.398 . S
C1090 H1078 0.950 . S
C1090 C1089 1.398 . S
C1090 C1091 1.391 . S
C1091 H1079 0.950 . S
C1091 C1087 1.393 . S
C1091 C1090 1.391 . S
H1092 C1100 0.950 . S
H1093 C1105 0.950 . S
H1094 C1102 0.950 . S
H1095 C1104 0.950 . S
H1096 C1106 0.950 . S
H1097 C1108 0.950 . S
H1098 C1110 0.950 . S
H1099 C1111 0.950 . S
C1100 H1092 0.950 . S
C1100 C1101 1.386 . S
C1100 C1102 1.391 . S
C1101 C1100 1.386 . S
C1101 C1105 1.393 . S
C1102 H1094 0.950 . S
C1102 C1100 1.391 . S
C1102 C1103 1.400 . S
C1103 C1102 1.400 . S
C1103 C1104 1.398 . S
C1103 C1109 1.491 . S
C1104 H1095 0.950 . S
C1104 C1103 1.398 . S
C1104 C1105 1.391 . S
C1105 H1093 0.950 . S
C1105 C1101 1.393 . S
C1105 C1104 1.391 . S
C1106 H1096 0.950 . S
C1106 C1107 1.386 . S
C1106 C1108 1.391 . S
C1107 C1106 1.386 . S
C1107 C1111 1.393 . S
C1108 H1097 0.950 . S
C1108 C1106 1.391 . S
C1108 C1109 1.400 . S
C1109 C1103 1.491 . S
C1109 C1108 1.400 . S
C1109 C1110 1.398 . S
C1110 H1098 0.950 . S
C1110 C1109 1.398 . S
C1110 C1111 1.391 . S
C1111 H1099 0.950 . S
C1111 C1107 1.393 . S
C1111 C1110 1.391 . S
H1112 C1120 0.950 . S
H1113 C1125 0.950 . S
H1114 C1122 0.950 . S
H1115 C1124 0.950 . S
H1116 C1126 0.950 . S
H1117 C1128 0.950 . S
H1118 C1130 0.950 . S
H1119 C1131 0.950 . S
C1120 H1112 0.950 . S
C1120 C1121 1.386 . S
C1120 C1122 1.391 . S
C1121 C1120 1.386 . S
C1121 C1125 1.393 . S
C1122 H1114 0.950 . S
C1122 C1120 1.391 . S
C1122 C1123 1.400 . S
C1123 C1122 1.400 . S
C1123 C1124 1.398 . S
C1123 C1129 1.491 . S
C1124 H1115 0.950 . S
C1124 C1123 1.398 . S
C1124 C1125 1.391 . S
C1125 H1113 0.950 . S
C1125 C1121 1.393 . S
C1125 C1124 1.391 . S
C1126 H1116 0.950 . S
C1126 C1127 1.386 . S
C1126 C1128 1.391 . S
C1127 C1126 1.386 . S
C1127 C1131 1.393 . S
C1128 H1117 0.950 . S
C1128 C1126 1.391 . S
C1128 C1129 1.400 . S
C1129 C1123 1.491 . S
C1129 C1128 1.400 . S
C1129 C1130 1.398 . S
C1130 H1118 0.950 . S
C1130 C1129 1.398 . S
C1130 C1131 1.391 . S
C1131 H1119 0.950 . S
C1131 C1127 1.393 . S
C1131 C1130 1.391 . S
H1132 C1140 0.950 . S
H1133 C1145 0.950 . S
H1134 C1142 0.950 . S
H1135 C1144 0.950 . S
H1136 C1146 0.950 . S
H1137 C1148 0.950 . S
H1138 C1150 0.950 . S
H1139 C1151 0.950 . S
C1140 H1132 0.950 . S
C1140 C1141 1.386 . S
C1140 C1142 1.391 . S
C1141 C1140 1.386 . S
C1141 C1145 1.393 . S
C1142 H1134 0.950 . S
C1142 C1140 1.391 . S
C1142 C1143 1.400 . S
C1143 C1142 1.400 . S
C1143 C1144 1.398 . S
C1143 C1149 1.491 . S
C1144 H1135 0.950 . S
C1144 C1143 1.398 . S
C1144 C1145 1.391 . S
C1145 H1133 0.950 . S
C1145 C1141 1.393 . S
C1145 C1144 1.391 . S
C1146 H1136 0.950 . S
C1146 C1147 1.386 . S
C1146 C1148 1.391 . S
C1147 C1146 1.386 . S
C1147 C1151 1.393 . S
C1148 H1137 0.950 . S
C1148 C1146 1.391 . S
C1148 C1149 1.400 . S
C1149 C1143 1.491 . S
C1149 C1148 1.400 . S
C1149 C1150 1.398 . S
C1150 H1138 0.950 . S
C1150 C1149 1.398 . S
C1150 C1151 1.391 . S
C1151 H1139 0.950 . S
C1151 C1147 1.393 . S
C1151 C1150 1.391 . S
H1152 C1160 0.950 . S
H1153 C1165 0.950 1_556 S
H1154 C1162 0.950 . S
H1155 C1164 0.950 . S
H1156 C1166 0.950 . S
H1157 C1168 0.950 . S
H1158 C1170 0.950 . S
H1159 C1171 0.950 . S
C1160 H1152 0.950 . S
C1160 C1161 1.386 . S
C1160 C1162 1.391 . S
C1161 C1160 1.386 . S
C1161 C1165 1.393 . S
C1162 H1154 0.950 . S
C1162 C1160 1.391 . S
C1162 C1163 1.400 . S
C1163 C1162 1.400 . S
C1163 C1164 1.398 . S
C1163 C1169 1.491 . S
C1164 H1155 0.950 . S
C1164 C1163 1.398 . S
C1164 C1165 1.391 . S
C1165 H1153 0.950 1_554 S
C1165 C1161 1.393 . S
C1165 C1164 1.391 . S
C1166 H1156 0.950 . S
C1166 C1167 1.386 . S
C1166 C1168 1.391 . S
C1167 C1166 1.386 . S
C1167 C1171 1.393 . S
C1168 H1157 0.950 . S
C1168 C1166 1.391 . S
C1168 C1169 1.400 . S
C1169 C1163 1.491 . S
C1169 C1168 1.400 . S
C1169 C1170 1.398 . S
C1170 H1158 0.950 . S
C1170 C1169 1.398 . S
C1170 C1171 1.391 . S
C1171 H1159 0.950 . S
C1171 C1167 1.393 . S
C1171 C1170 1.391 . S
H1172 C1180 0.950 . S
H1173 C1185 0.950 . S
H1174 C1182 0.950 . S
H1175 C1184 0.950 . S
H1176 C1186 0.950 . S
H1177 C1188 0.950 . S
H1178 C1190 0.950 . S
H1179 C1191 0.950 . S
C1180 H1172 0.950 . S
C1180 C1181 1.386 . S
C1180 C1182 1.391 . S
C1181 C1180 1.386 . S
C1181 C1185 1.393 . S
C1182 H1174 0.950 . S
C1182 C1180 1.391 . S
C1182 C1183 1.400 . S
C1183 C1182 1.400 . S
C1183 C1184 1.398 . S
C1183 C1189 1.491 . S
C1184 H1175 0.950 . S
C1184 C1183 1.398 . S
C1184 C1185 1.391 . S
C1185 H1173 0.950 . S
C1185 C1181 1.393 . S
C1185 C1184 1.391 . S
C1186 H1176 0.950 . S
C1186 C1187 1.386 . S
C1186 C1188 1.391 . S
C1187 C1186 1.386 . S
C1187 C1191 1.393 . S
C1188 H1177 0.950 . S
C1188 C1186 1.391 . S
C1188 C1189 1.400 . S
C1189 C1183 1.491 . S
C1189 C1188 1.400 . S
C1189 C1190 1.398 . S
C1190 H1178 0.950 . S
C1190 C1189 1.398 . S
C1190 C1191 1.391 . S
C1191 H1179 0.950 . S
C1191 C1187 1.393 . S
C1191 C1190 1.391 . S
H1192 C1200 0.950 . S
H1193 C1205 0.950 . S
H1194 C1202 0.950 . S
H1195 C1204 0.950 . S
H1196 C1206 0.950 . S
H1197 C1208 0.950 . S
H1198 C1210 0.950 . S
H1199 C1211 0.950 . S
C1200 H1192 0.950 . S
C1200 C1201 1.386 . S
C1200 C1202 1.391 . S
C1201 C1200 1.386 . S
C1201 C1205 1.393 . S
C1202 H1194 0.950 . S
C1202 C1200 1.391 . S
C1202 C1203 1.400 . S
C1203 C1202 1.400 . S
C1203 C1204 1.398 . S
C1203 C1209 1.491 . S
C1204 H1195 0.950 . S
C1204 C1203 1.398 . S
C1204 C1205 1.391 . S
C1205 H1193 0.950 . S
C1205 C1201 1.393 . S
C1205 C1204 1.391 . S
C1206 H1196 0.950 . S
C1206 C1207 1.386 . S
C1206 C1208 1.391 . S
C1207 C1206 1.386 . S
C1207 C1211 1.393 . S
C1208 H1197 0.950 . S
C1208 C1206 1.391 . S
C1208 C1209 1.400 . S
C1209 C1203 1.491 . S
C1209 C1208 1.400 . S
C1209 C1210 1.398 . S
C1210 H1198 0.950 . S
C1210 C1209 1.398 . S
C1210 C1211 1.391 . S
C1211 H1199 0.950 . S
C1211 C1207 1.393 . S
C1211 C1210 1.391 . S
H1212 C1220 0.950 . S
H1213 C1225 0.950 . S
H1214 C1222 0.950 . S
H1215 C1224 0.950 . S
H1216 C1226 0.950 . S
H1217 C1228 0.950 . S
H1218 C1230 0.950 . S
H1219 C1231 0.950 . S
C1220 H1212 0.950 . S
C1220 C1221 1.386 . S
C1220 C1222 1.391 . S
C1221 C1220 1.386 . S
C1221 C1225 1.393 . S
C1222 H1214 0.950 . S
C1222 C1220 1.391 . S
C1222 C1223 1.400 . S
C1223 C1222 1.400 . S
C1223 C1224 1.398 . S
C1223 C1229 1.491 . S
C1224 H1215 0.950 . S
C1224 C1223 1.398 . S
C1224 C1225 1.391 . S
C1225 H1213 0.950 . S
C1225 C1221 1.393 . S
C1225 C1224 1.391 . S
C1226 H1216 0.950 . S
C1226 C1227 1.386 . S
C1226 C1228 1.391 . S
C1227 C1226 1.386 . S
C1227 C1231 1.393 . S
C1228 H1217 0.950 . S
C1228 C1226 1.391 . S
C1228 C1229 1.400 . S
C1229 C1223 1.491 . S
C1229 C1228 1.400 . S
C1229 C1230 1.398 . S
C1230 H1218 0.950 . S
C1230 C1229 1.398 . S
C1230 C1231 1.391 . S
C1231 H1219 0.950 . S
C1231 C1227 1.393 . S
C1231 C1230 1.391 . S
H1232 C1240 0.950 . S
H1233 C1245 0.950 . S
H1234 C1242 0.950 . S
H1235 C1244 0.950 . S
H1236 C1246 0.950 . S
H1237 C1248 0.950 . S
H1238 C1250 0.950 . S
H1239 C1251 0.950 . S
C1240 H1232 0.950 . S
C1240 C1241 1.386 . S
C1240 C1242 1.391 . S
C1241 C1240 1.386 . S
C1241 C1245 1.393 . S
C1242 H1234 0.950 . S
C1242 C1240 1.391 . S
C1242 C1243 1.400 . S
C1243 C1242 1.400 . S
C1243 C1244 1.398 . S
C1243 C1249 1.491 . S
C1244 H1235 0.950 . S
C1244 C1243 1.398 . S
C1244 C1245 1.391 . S
C1245 H1233 0.950 . S
C1245 C1241 1.393 . S
C1245 C1244 1.391 . S
C1246 H1236 0.950 . S
C1246 C1247 1.386 . S
C1246 C1248 1.391 . S
C1247 C1246 1.386 . S
C1247 C1251 1.393 . S
C1248 H1237 0.950 . S
C1248 C1246 1.391 . S
C1248 C1249 1.400 . S
C1249 C1243 1.491 . S
C1249 C1248 1.400 . S
C1249 C1250 1.398 . S
C1250 H1238 0.950 . S
C1250 C1249 1.398 . S
C1250 C1251 1.391 . S
C1251 H1239 0.950 . S
C1251 C1247 1.393 . S
C1251 C1250 1.391 . S
H1252 C1260 0.950 . S
H1253 C1265 0.950 . S
H1254 C1262 0.950 . S
H1255 C1264 0.950 . S
H1256 C1266 0.950 . S
H1257 C1268 0.950 . S
H1258 C1270 0.950 . S
H1259 C1271 0.950 . S
C1260 H1252 0.950 . S
C1260 C1261 1.386 . S
C1260 C1262 1.391 . S
C1261 C1260 1.386 . S
C1261 C1265 1.393 . S
C1262 H1254 0.950 . S
C1262 C1260 1.391 . S
C1262 C1263 1.400 . S
C1263 C1262 1.400 . S
C1263 C1264 1.398 . S
C1263 C1269 1.491 . S
C1264 H1255 0.950 . S
C1264 C1263 1.398 . S
C1264 C1265 1.391 . S
C1265 H1253 0.950 . S
C1265 C1261 1.393 . S
C1265 C1264 1.391 . S
C1266 H1256 0.950 . S
C1266 C1267 1.386 . S
C1266 C1268 1.391 . S
C1267 C1266 1.386 . S
C1267 C1271 1.393 . S
C1268 H1257 0.950 . S
C1268 C1266 1.391 . S
C1268 C1269 1.400 . S
C1269 C1263 1.491 . S
C1269 C1268 1.400 . S
C1269 C1270 1.398 . S
C1270 H1258 0.950 . S
C1270 C1269 1.398 . S
C1270 C1271 1.391 . S
C1271 H1259 0.950 . S
C1271 C1267 1.393 . S
C1271 C1270 1.391 . S
C321 C187 1.893 . S
C327 C4 1.893 . S
C341 C16 1.893 . S
C347 C199 1.891 . S
C361 C239 1.898 . S
C367 C31 1.899 . S
C381 C49 1.876 . S
C387 C173 1.878 . S
C401 C186 1.878 . S
C407 C62 1.877 . S
C421 C68 1.898 . S
C427 C200 1.898 . S
C441 C81 1.892 . S
C447 C238 1.893 . S
C461 C101 1.892 . S
C467 C174 1.892 . S
C481 C120 1.892 . S
C487 C114 1.893 . S
C501 C134 1.876 . S
C507 C127 1.877 . S
C521 C135 1.893 . S
C527 C147 1.893 . S
C541 C148 1.898 . S
C547 C107 1.898 . S
C561 C160 1.891 . S
C567 C42 1.893 . S
C581 C55 1.892 . S
C587 C212 1.892 . S
C601 C225 1.877 . S
C607 C23 1.878 . S
C621 C17 1.202 . S
C627 C283 1.202 . S
C641 C121 1.202 . S
C647 C10 1.202 . S
C661 C302 1.207 . S
C667 C44 1.204 . S
C681 C146 1.217 . S
C687 C29 1.219 . S
C701 C276 1.215 . S
C707 C96 1.218 . S
C721 C122 1.207 . S
C727 C83 1.204 . S
C741 C69 1.202 . S
C747 C309 1.202 . S
C761 C56 1.202 . S
C767 C153 1.202 . S
C781 C205 1.202 . S
C787 C257 1.202 . S
C801 C211 1.216 . S
C807 C198 1.219 . S
C821 C179 1.202 . S
C827 C218 1.202 . S
C841 C250 1.206 . S
C847 C172 1.204 . S
C861 C36 1.202 . S
C867 C264 1.202 . S
C881 C140 1.202 . S
C887 C95 1.202 . S
C901 C3 1.219 . S
C907 C289 1.216 . S
C921 C252 1.892 . S
C927 C30 1.893 . S
C941 C5 1.899 . S
C947 C213 1.898 . S
C961 C251 1.876 . S
C967 C88 1.875 . S
C981 C161 1.898 . S
C987 C94 1.899 . S
C1001 C75 1.892 . S
C1007 C226 1.892 . S
C1021 C277 1.892 . S
C1027 C263 1.893 . S
C1041 C303 1.878 . S
C1047 C270 1.877 . S
C1061 C290 1.893 . S
C1067 C304 1.892 . S
C1081 C278 1.899 . S
C1087 C291 1.898 . S
C1101 C108 1.202 . S
C1107 C43 1.202 . S
C1121 C18 1.207 . S
C1127 C133 1.206 . S
C1141 C70 1.216 . S
C1147 C109 1.216 . S
C1161 C265 1.206 . S
C1167 C57 1.207 . S
C1181 C82 1.202 . S
C1187 C296 1.202 . S
C1201 C166 1.202 . S
C1207 C192 1.202 . S
C1221 C237 1.216 . S
C1227 C159 1.217 . S
C1241 C231 1.202 . S
C1247 C244 1.202 . S
C1261 C185 1.206 . S
C1267 C224 1.204 . S
