# Generated by pormake.
# Topology tfs, (6)-cn, num edge types: 1
# Building blocks:
#     Node 0, Type 0, BuildingBlock: BETDAH_clean_sbu_0, # of connection points: 6
#     Node 1, Type 0, BuildingBlock: BETDAH_clean_sbu_0, # of connection points: 6
#     Node 2, Type 0, BuildingBlock: BETDAH_clean_sbu_0, # of connection points: 6
#     Node 3, Type 0, BuildingBlock: BETDAH_clean_sbu_0, # of connection points: 6
#     Node 4, Type 0, BuildingBlock: BETDAH_clean_sbu_0, # of connection points: 6
#     Node 5, Type 0, BuildingBlock: BETDAH_clean_sbu_0, # of connection points: 6
#     Edge 6, Type (0, 0), BuildingBlock: AJUNOK_clean_linker_0, # of connection points: 2
#     Edge 7, Type (0, 0), BuildingBlock: AJUNOK_clean_linker_0, # of connection points: 2
#     Edge 8, Type (0, 0), BuildingBlock: AJUNOK_clean_linker_0, # of connection points: 2
#     Edge 9, Type (0, 0), BuildingBlock: AJUNOK_clean_linker_0, # of connection points: 2
#     Edge 10, Type (0, 0), BuildingBlock: AJUNOK_clean_linker_0, # of connection points: 2
#     Edge 11, Type (0, 0), BuildingBlock: AJUNOK_clean_linker_0, # of connection points: 2
#     Edge 12, Type (0, 0), BuildingBlock: AJUNOK_clean_linker_0, # of connection points: 2
#     Edge 13, Type (0, 0), BuildingBlock: AJUNOK_clean_linker_0, # of connection points: 2
#     Edge 14, Type (0, 0), BuildingBlock: AJUNOK_clean_linker_0, # of connection points: 2
#     Edge 15, Type (0, 0), BuildingBlock: AJUNOK_clean_linker_0, # of connection points: 2
#     Edge 16, Type (0, 0), BuildingBlock: AJUNOK_clean_linker_0, # of connection points: 2
#     Edge 17, Type (0, 0), BuildingBlock: AJUNOK_clean_linker_0, # of connection points: 2
#     Edge 18, Type (0, 0), BuildingBlock: AJUNOK_clean_linker_0, # of connection points: 2
#     Edge 19, Type (0, 0), BuildingBlock: AJUNOK_clean_linker_0, # of connection points: 2
#     Edge 20, Type (0, 0), BuildingBlock: AJUNOK_clean_linker_0, # of connection points: 2
#     Edge 21, Type (0, 0), BuildingBlock: AJUNOK_clean_linker_0, # of connection points: 2
#     Edge 22, Type (0, 0), BuildingBlock: AJUNOK_clean_linker_0, # of connection points: 2
#     Edge 23, Type (0, 0), BuildingBlock: AJUNOK_clean_linker_0, # of connection points: 2
# Relax obj value: 0.602
# Max RMSD: 0.479
# Mean RMSD: 0.367
data_MOF--net-tfs--node1-BETDAH_clean_sbu_0--edge1-AJUNOK_clean_linker_0
_symmetry_space_group_name_H-M    P1
_symmetry_Int_Tables_number       1
_symmetry_cell_setting            triclinic
loop_
_symmetry_equiv_pos_as_xyz
'x, y, z'
_cell_length_a     44.630053
_cell_length_b     41.435391
_cell_length_c     9.7977208
_cell_angle_alpha  97.65287
_cell_angle_beta   91.225126
_cell_angle_gamma 129.2959
loop_
_atom_site_label
_atom_site_type_symbol
_atom_site_fract_x
_atom_site_fract_y
_atom_site_fract_z
_atom_type_partial_charge
Ho0 Ho 0.34437 0.4615 0.47049 0.0
Ho1 Ho 0.32219 0.52084 0.44783 0.0
C2 C 0.25347 0.42204 0.45003 0.0
C3 C 0.36508 0.42022 0.55404 0.0
C4 C 0.38639 0.40369 0.5313 0.0
C5 C 0.39855 0.39546 0.64565 0.0
C6 C 0.41494 0.37559 0.62739 0.0
C7 C 0.41956 0.3633 0.49387 0.0
C8 C 0.40803 0.37236 0.37947 0.0
C9 C 0.39146 0.39211 0.39781 0.0
C10 C 0.32525 0.46401 0.21381 0.0
C11 C 0.41328 0.56414 0.46067 0.0
C12 C 0.30028 0.56337 0.39736 0.0
C13 C 0.31206 0.605 0.4602 0.0
C14 C 0.3058 0.62654 0.38092 0.0
C15 C 0.31474 0.66482 0.44199 0.0
C16 C 0.32979 0.68198 0.58377 0.0
C17 C 0.3372 0.66101 0.66172 0.0
C18 C 0.32852 0.62296 0.60049 0.0
C19 C 0.34391 0.5191 0.70218 0.0
O20 O 0.28052 0.42192 0.5105 0.0
O21 O 0.26408 0.45408 0.38954 0.0
O22 O 0.38503 0.46106 0.59663 0.0
O23 O 0.33391 0.40281 0.46598 0.0
O24 O 0.32455 0.43373 0.24076 0.0
O25 O 0.34243 0.49335 0.31697 0.0
O26 O 0.38572 0.56636 0.42826 0.0
O27 O 0.40498 0.52857 0.48849 0.0
O28 O 0.28303 0.53434 0.47505 0.0
O29 O 0.32589 0.56411 0.33157 0.0
O30 O 0.34825 0.55129 0.67273 0.0
O31 O 0.32414 0.48879 0.60202 0.0
H32 H 0.39474 0.40378 0.74964 0.0
H33 H 0.42428 0.37015 0.71821 0.0
H34 H 0.4112 0.36347 0.27512 0.0
H35 H 0.38203 0.39767 0.30755 0.0
H36 H 0.29332 0.61336 0.27239 0.0
H37 H 0.30879 0.68035 0.37953 0.0
H38 H 0.34939 0.67388 0.77054 0.0
H39 H 0.33403 0.6072 0.6635 0.0
Ho40 Ho 0.89366 0.18159 0.44069 0.0
Ho41 Ho 0.81105 0.15621 0.34296 0.0
C42 C 0.81153 0.08424 0.42094 0.0
C43 C 0.9602 0.20508 0.54761 0.0
C44 C 1.00266 0.23648 0.52871 0.0
C45 C 1.0248 0.22316 0.51137 0.0
C46 C 0.06485 0.25199 0.49734 0.0
C47 C 0.08442 0.29542 0.50106 0.0
C48 C 0.06201 0.30861 0.51632 0.0
C49 C 1.02188 0.2797 0.53024 0.0
C50 C 0.87349 0.16648 0.16506 0.0
C51 C 0.8927 0.2515 0.33809 0.0
C52 C 0.75118 0.14488 0.22529 0.0
C53 C 0.72876 0.16061 0.24548 0.0
C54 C 0.73327 0.18891 0.16559 0.0
C55 C 0.70907 0.19979 0.17191 0.0
C56 C 0.67818 0.1813 0.25369 0.0
C57 C 0.67474 0.15404 0.33707 0.0
C58 C 0.69999 0.14457 0.33489 0.0
C59 C 0.83292 0.17701 0.61969 0.0
O60 O 0.84778 0.11476 0.4878 0.0
O61 O 0.79466 0.09214 0.33339 0.0
O62 O 0.94367 0.21991 0.60314 0.0
O63 O 0.93664 0.17243 0.44616 0.0
O64 O 0.90904 0.19119 0.22666 0.0
O65 O 0.85009 0.14686 0.25051 0.0
O66 O 0.85454 0.22189 0.30011 0.0
O67 O 0.91352 0.24521 0.41025 0.0
O68 O 0.74859 0.12189 0.31128 0.0
O69 O 0.7864 0.17046 0.1912 0.0
O70 O 0.7971 0.15297 0.56153 0.0
O71 O 0.85544 0.19308 0.52924 0.0
H72 H 1.01106 0.19017 0.5089 0.0
H73 H 0.08037 0.23998 0.48189 0.0
H74 H 0.07567 0.3416 0.51975 0.0
H75 H 1.00597 0.29133 0.54298 0.0
H76 H 0.75538 0.20244 0.09661 0.0
H77 H 0.71497 0.22295 0.11227 0.0
H78 H 0.6517 0.13873 0.40177 0.0
H79 H 0.69583 0.12317 0.39976 0.0
Ho80 Ho 0.66184 0.80815 0.45535 0.0
Ho81 Ho 0.61193 0.8344 0.54844 0.0
C82 C 0.70414 0.90891 0.52534 0.0
C83 C 0.6936 0.78191 0.31743 0.0
C84 C 0.70023 0.75122 0.30776 0.0
C85 C 0.71348 0.74433 0.1879 0.0
C86 C 0.72876 0.7235 0.18683 0.0
C87 C 0.73121 0.70944 0.30612 0.0
C88 C 0.71512 0.71349 0.42251 0.0
C89 C 0.69983 0.73437 0.42353 0.0
C90 C 0.65445 0.81483 0.72562 0.0
C91 C 0.56478 0.7341 0.46014 0.0
C92 C 0.5866 0.86225 0.71901 0.0
C93 C 0.60542 0.89922 0.83149 0.0
C94 C 0.58217 0.90363 0.91058 0.0
C95 C 0.59947 0.94009 0.01097 0.0
C96 C 0.6403 0.97301 0.03199 0.0
C97 C 0.66375 0.96745 0.95853 0.0
C98 C 0.64635 0.9302 0.86106 0.0
C99 C 0.61737 0.82537 0.2777 0.0
O100 O 0.70375 0.87942 0.44937 0.0
O101 O 0.67434 0.89717 0.59366 0.0
O102 O 0.65833 0.76789 0.27724 0.0
O103 O 0.71122 0.81142 0.43006 0.0
O104 O 0.68583 0.82343 0.68353 0.0
O105 O 0.62967 0.80122 0.62436 0.0
O106 O 0.56338 0.76479 0.50068 0.0
O107 O 0.59837 0.74275 0.43151 0.0
O108 O 0.59053 0.83472 0.74279 0.0
O109 O 0.59162 0.86978 0.59185 0.0
O110 O 0.58642 0.81782 0.32218 0.0
O111 O 0.6432 0.84003 0.37676 0.0
H112 H 0.71424 0.75736 0.09793 0.0
H113 H 0.74095 0.72085 0.09581 0.0
H114 H 0.71596 0.70219 0.51488 0.0
H115 H 0.68973 0.7394 0.51714 0.0
H116 H 0.55059 0.87964 0.8912 0.0
H117 H 0.58064 0.94404 0.06422 0.0
H118 H 0.69515 0.99261 0.9717 0.0
H119 H 0.66483 0.92638 0.80583 0.0
Ho120 Ho 0.9284 0.59799 0.17238 0.0
Ho121 Ho 0.95032 0.54188 0.06145 0.0
C122 C 1.01382 0.62831 0.26857 0.0
C123 C 0.9127 0.64203 0.31179 0.0
C124 C 0.88309 0.64743 0.30563 0.0
C125 C 0.86538 0.64536 0.42445 0.0
C126 C 0.8384 0.65205 0.42502 0.0
C127 C 0.82887 0.66141 0.30706 0.0
C128 C 0.8456 0.66203 0.18628 0.0
C129 C 0.87251 0.65508 0.18545 0.0
C130 C 0.94261 0.59803 0.90577 0.0
C131 C 0.86405 0.51094 0.97217 0.0
C132 C 0.96284 0.49335 0.93461 0.0
C133 C 0.96981 0.46658 -0.01343 0.0
C134 C 0.95818 0.42986 0.8984 0.0
C135 C 0.95439 0.39819 0.9536 0.0
C136 C 0.96178 0.40257 0.09815 0.0
C137 C 0.97672 0.44103 0.18478 0.0
C138 C 0.98079 0.47285 0.12926 0.0
C139 C 0.93169 0.53732 0.32344 0.0
O140 O 0.98565 0.62932 0.29683 0.0
O141 O 1.0094 0.60171 0.16227 0.0
O142 O 0.90037 0.60536 0.33531 0.0
O143 O 0.93716 0.65624 0.21985 0.0
O144 O 0.9191 0.60367 0.95398 0.0
O145 O 0.96062 0.59729 0.00498 0.0
O146 O 0.89175 0.5096 0.93615 0.0
O147 O 0.87 0.53856 0.07801 0.0
O148 O 0.99023 0.53455 0.97182 0.0
O149 O 0.928 0.48091 0.94644 0.0
O150 O 0.95499 0.53123 0.27795 0.0
O151 O 0.91663 0.54112 0.22333 0.0
H152 H 0.87277 0.63898 0.5177 0.0
H153 H 0.82525 0.65029 0.51839 0.0
H154 H 0.83871 0.66907 0.09376 0.0
H155 H 0.88539 0.65632 0.09179 0.0
H156 H 0.9494 0.42433 0.78818 0.0
H157 H 0.94306 0.36895 0.88433 0.0
H158 H 0.9822 0.44516 0.29651 0.0
H159 H 0.98987 0.50099 0.19921 0.0
Ho160 Ho 0.31507 0.87443 0.95908 0.0
Ho161 Ho 0.40531 0.93527 0.93248 0.0
C162 C 0.36494 0.9749 0.02394 0.0
C163 C 0.24439 0.8272 0.01077 0.0
C164 C 0.20848 0.79087 0.92066 0.0
C165 C 0.17729 0.79091 0.90525 0.0
C166 C 0.14618 0.76208 0.79959 0.0
C167 C 0.1454 0.73221 0.70842 0.0
C168 C 0.17576 0.73077 0.72849 0.0
C169 C 0.20733 0.76021 0.83311 0.0
C170 C 0.33384 0.89022 0.706 0.0
C171 C 0.35219 0.83305 0.83757 0.0
C172 C 0.47582 0.98475 0.87538 0.0
C173 C 0.51328 1.00916 0.96503 0.0
C174 C 0.51627 0.99228 0.07382 0.0
C175 C 0.55259 1.01135 0.14514 0.0
C176 C 0.58692 0.04843 0.11137 0.0
C177 C 0.58297 0.06857 0.01588 0.0
C178 C 0.54636 0.04863 0.9414 0.0
C179 C 0.38695 0.92024 0.18733 0.0
O180 O 0.33624 0.939 0.06264 0.0
O181 O 0.39036 0.97757 0.94828 0.0
O182 O 0.26921 0.82222 0.0515 0.0
O183 O 0.26124 0.86344 0.97082 0.0
O184 O 0.30074 0.85567 0.72528 0.0
O185 O 0.35245 0.9156 0.8179 0.0
O186 O 0.38314 0.87105 0.81727 0.0
O187 O 0.32466 0.82759 0.90734 0.0
O188 O 0.45577 0.99732 0.90108 0.0
O189 O 0.45421 0.94332 0.85544 0.0
O190 O 0.42072 0.95342 0.16622 0.0
O191 O 0.3681 0.89475 0.07561 0.0
H192 H 0.17799 0.81473 0.97041 0.0
H193 H 0.12336 0.76421 0.78631 0.0
H194 H 0.17543 0.70741 0.66229 0.0
H195 H 0.2314 0.75993 0.84207 0.0
H196 H 0.49081 0.96254 0.09724 0.0
H197 H 0.55345 0.99391 0.21567 0.0
H198 H 0.6085 0.09773 -0.01005 0.0
H199 H 0.54423 0.06291 0.8609 0.0
Ho200 Ho 0.49454 0.2071 0.34339 0.0
Ho201 Ho 0.56769 0.29717 0.31345 0.0
C202 C 0.49496 0.28748 0.40181 0.0
C203 C 0.43362 0.13894 0.4133 0.0
C204 C 0.41266 0.12517 0.53388 0.0
C205 C 0.42849 0.15195 0.66492 0.0
C206 C 0.41331 0.13508 0.78404 0.0
C207 C 0.38207 0.0913 0.77289 0.0
C208 C 0.36385 0.06581 0.63968 0.0
C209 C 0.37918 0.08261 0.52126 0.0
C210 C 0.50385 0.22267 0.08375 0.0
C211 C 0.57181 0.22094 0.27632 0.0
C212 C 0.62409 0.36057 0.21474 0.0
C213 C 0.64975 0.36553 0.11241 0.0
C214 C 0.64521 0.37301 -0.0193 0.0
C215 C 0.67264 0.38354 0.89014 0.0
C216 C 0.7054 0.3877 0.93184 0.0
C217 C 0.70742 0.37563 0.05701 0.0
C218 C 0.67989 0.36469 0.14661 0.0
C219 C 0.55873 0.28128 0.5734 0.0
O220 O 0.48179 0.25077 0.43614 0.0
O221 O 0.52607 0.30926 0.33758 0.0
O222 O 0.43205 0.16386 0.35085 0.0
O223 O 0.46855 0.15052 0.42774 0.0
O224 O 0.48896 0.18601 0.11278 0.0
O225 O 0.5106 0.24736 0.19113 0.0
O226 O 0.58374 0.25624 0.23552 0.0
O227 O 0.54006 0.19868 0.33871 0.0
O228 O 0.62878 0.35239 0.33454 0.0
O229 O 0.58741 0.33838 0.1646 0.0
O230 O 0.57386 0.31836 0.54587 0.0
O231 O 0.55153 0.25665 0.46501 0.0
H232 H 0.45403 0.18513 0.67568 0.0
H233 H 0.42767 0.15557 0.8851 0.0
H234 H 0.34016 0.03191 0.6268 0.0
H235 H 0.3666 0.06156 0.4206 0.0
H236 H 0.62165 0.37292 0.95069 0.0
H237 H 0.67004 0.39193 0.79306 0.0
H238 H 0.73236 0.37858 0.09247 0.0
H239 H 0.68367 0.35808 0.24593 0.0
C240 C 0.48544 0.33971 0.36816 0.0
C241 C 0.47465 0.30542 0.43042 0.0
C242 C 0.4674 0.3577 0.38884 0.0
C243 C 0.43772 0.34269 0.47378 0.0
H244 H 0.50807 0.35296 0.30126 0.0
H245 H 0.47723 0.3841 0.33879 0.0
S246 S 0.3976 0.25319 0.66017 0.0
N247 N 0.43164 0.25689 0.58039 0.0
N248 N 0.39768 0.29068 0.61939 0.0
C249 C 0.42646 0.30842 0.53719 0.0
C250 C 0.44479 0.28979 0.51528 0.0
C251 C 0.18194 0.38714 0.38984 0.0
C252 C 0.21046 0.38797 0.46046 0.0
C253 C 0.14179 0.35744 0.40323 0.0
C254 C 0.12771 0.32669 0.48777 0.0
H255 H 0.19062 0.40991 0.32354 0.0
H256 H 0.12152 0.35848 0.34561 0.0
S257 S 0.18981 0.31579 0.70101 0.0
N258 N 0.22114 0.35525 0.62148 0.0
N259 N 0.14641 0.30019 0.64748 0.0
C260 C 0.15586 0.3271 0.55918 0.0
C261 C 0.19682 0.35738 0.54546 0.0
C262 C 0.79441 1.0129 0.42779 0.0
C263 C 0.7865 0.0409 0.45761 0.0
C264 C 0.76836 0.97071 0.45265 0.0
C265 C 0.73379 0.95505 0.51158 0.0
H266 H 0.82021 0.02318 0.38084 0.0
H267 H 0.77515 0.95005 0.42373 0.0
S268 S 0.70157 1.01749 0.61671 0.0
N269 N 0.7425 0.05056 0.55239 0.0
N270 N 0.69469 0.97304 0.60324 0.0
C271 C 0.7266 0.98369 0.54573 0.0
C272 C 0.75257 0.026 0.51766 0.0
C273 C 0.77193 0.65342 0.20399 0.0
C274 C 0.80281 0.67221 0.3119 0.0
C275 C 0.74808 0.66461 0.20453 0.0
C276 C 0.75417 0.6949 0.31319 0.0
H277 H 0.76625 0.63 0.1183 0.0
H278 H 0.72489 0.64972 0.11877 0.0
S279 S 0.8327 0.75546 0.61513 0.0
N280 N 0.83915 0.72389 0.52705 0.0
N281 N 0.79435 0.74472 0.52829 0.0
C282 C 0.78489 0.71382 0.4217 0.0
C283 C 0.80918 0.70254 0.42099 0.0
C284 C 0.07464 0.68464 0.62057 0.0
C285 C 0.11267 0.70309 0.59339 0.0
C286 C 0.04345 0.66106 0.51373 0.0
C287 C 0.04848 0.65344 0.37525 0.0
H288 H 0.06891 0.68907 0.72541 0.0
H289 H 1.01501 0.64875 0.54081 0.0
S290 S 0.14199 0.69405 0.2475 0.0
N291 N 0.15401 0.71274 0.41678 0.0
N292 N 0.09414 0.66556 0.2158 0.0
C293 C 0.086 0.67029 0.34615 0.0
C294 C 0.11836 0.69564 0.45533 0.0
C295 C 0.39953 0.0506 0.05051 0.0
C296 C 0.36318 1.00917 0.02712 0.0
C297 C 0.40575 0.08047 -0.02083 0.0
C298 C 0.37462 0.07002 0.8934 0.0
H299 H 0.42489 0.05719 0.10414 0.0
H300 H 0.4354 0.10893 0.97814 0.0
S301 S 0.25902 0.97491 0.87267 0.0
N302 N 0.30949 1.01052 0.90093 0.0
N303 N 0.30234 0.02101 0.85912 0.0
C304 C 0.3342 0.02924 0.90485 0.0
C305 C 0.32739 0.99628 0.96247 0.0
C306 C 0.36491 0.7947 0.65937 0.0
C307 C 0.34741 0.79483 0.7773 0.0
C308 C 0.35907 0.75816 0.59697 0.0
C309 C 0.33616 0.72063 0.65166 0.0
H310 H 0.38259 0.82275 0.61305 0.0
H311 H 0.37275 0.75933 0.50561 0.0
S312 S 0.28434 0.70425 0.9595 0.0
N313 N 0.30637 0.75388 0.94662 0.0
N314 N 0.29582 0.68575 0.83006 0.0
C315 C 0.31891 0.72048 0.77022 0.0
C316 C 0.3244 0.75738 0.83271 0.0
C317 C 0.60727 0.19901 0.38014 0.0
C318 C 0.59712 0.20883 0.26487 0.0
C319 C 0.63344 0.19067 0.37575 0.0
C320 C 0.65004 0.19045 0.25435 0.0
H321 H 0.5959 0.19915 0.4766 0.0
H322 H 0.64118 0.1852 0.47026 0.0
S323 S 0.62897 0.20983 0.91813 0.0
N324 N 0.60444 0.21663 0.02447 0.0
N325 N 0.65053 0.19741 0.01066 0.0
C326 C 0.63871 0.19878 0.13636 0.0
C327 C 0.61312 0.20876 0.14296 0.0
C328 C 0.52047 0.65197 0.40335 0.0
C329 C 0.52756 0.68951 0.46569 0.0
C330 C 0.48447 0.61079 0.4072 0.0
C331 C 0.45442 0.60559 0.47535 0.0
H332 H 0.54234 0.65436 0.34789 0.0
H333 H 0.47961 0.58307 0.35202 0.0
S334 S 0.45885 0.69218 0.66867 0.0
N335 N 0.50083 0.71696 0.60653 0.0
N336 N 0.43567 0.64126 0.61597 0.0
C337 C 0.46202 0.64261 0.5434 0.0
C338 C 0.49775 0.68395 0.53802 0.0
C339 C 0.90801 0.32749 0.11487 0.0
C340 C 0.94683 0.36462 0.15894 0.0
C341 C 0.89115 0.29185 0.17537 0.0
C342 C 0.91228 0.29137 0.28303 0.0
H343 H 0.89001 0.32616 0.03445 0.0
H344 H 0.86113 0.26424 0.13552 0.0
S345 S 1.01578 0.38021 0.43303 0.0
N346 N 1.00661 0.39886 0.31454 0.0
N347 N 0.97487 0.33128 0.42863 0.0
C348 C 0.95147 0.32813 0.3272 0.0
C349 C 0.96868 0.36488 0.26556 0.0
C350 C 0.64596 0.06278 0.0302 0.0
C351 C 0.62456 0.05711 0.14184 0.0
C352 C 0.66162 0.04233 0.01038 0.0
C353 C 0.65547 1.01554 0.10044 0.0
H354 H 0.64477 0.07622 0.94491 0.0
H355 H 0.67119 0.04068 0.91085 0.0
S356 S 0.62465 1.01369 0.44827 0.0
N357 N 0.61679 0.04203 0.37637 0.0
N358 N 0.64332 1.00039 0.33286 0.0
C359 C 0.6449 0.0203 0.23043 0.0
C360 C 0.63006 0.04217 0.25272 0.0
C361 C 0.80692 0.43587 0.8741 0.0
C362 C 0.82403 0.47886 0.89994 0.0
C363 C 0.7662 0.40415 0.85945 0.0
C364 C 0.74195 0.41491 0.87057 0.0
H365 H 0.82492 0.42688 0.88209 0.0
H366 H 0.75406 0.37167 0.85737 0.0
S367 S 0.7732 0.52274 0.89332 0.0
N368 N 0.81421 0.53021 0.90195 0.0
N369 N 0.73783 0.47093 0.87452 0.0
C370 C 0.75873 0.45735 0.87155 0.0
C371 C 0.79999 0.48945 0.88728 0.0
C372 C 0.35313 0.47675 -0.00406 0.0
C373 C 0.32629 0.47363 0.0773 0.0
C374 C 0.36115 0.49503 0.87834 0.0
C375 C 0.34262 0.51055 0.8405 0.0
H376 H 0.3689 0.46637 0.02588 0.0
H377 H 0.38175 0.49687 0.81635 0.0
S378 S 0.26858 0.50747 0.01671 0.0
N379 N 0.2805 0.48619 0.11235 0.0
N380 N 0.29532 0.52026 0.88826 0.0
C381 C 0.31565 0.50746 0.92077 0.0
C382 C 0.30746 0.48887 0.04033 0.0
C383 C 0.8254 0.13939 0.95693 0.0
C384 C 0.86326 0.17056 0.02868 0.0
C385 C 0.81576 0.14237 0.82516 0.0
C386 C 0.84368 0.17656 0.76131 0.0
H387 H 0.80332 0.11227 0.00175 0.0
H388 H 0.78637 0.11729 0.77214 0.0
S389 S 0.94479 0.27011 0.91642 0.0
N390 N 0.92774 0.2391 0.03306 0.0
N391 N 0.90886 0.2447 0.78608 0.0
C392 C 0.88099 0.20895 0.83465 0.0
C393 C 0.89099 0.20592 0.96841 0.0
C394 C 0.66295 0.8544 0.10374 0.0
C395 C 0.62499 0.82293 0.13436 0.0
C396 C 0.67318 0.85089 0.97209 0.0
C397 C 0.64572 0.81573 0.86811 0.0
H398 H 0.6849 0.88203 0.18219 0.0
H399 H 0.70224 0.87623 0.95058 0.0
S400 S 0.54429 0.72248 0.90199 0.0
N401 N 0.56111 0.7544 0.05498 0.0
N402 N 0.58008 0.74731 0.80621 0.0
C403 C 0.60797 0.7836 0.89848 0.0
C404 C 0.59757 0.78737 0.03218 0.0
C405 C 0.96698 0.57933 0.70952 0.0
C406 C 0.93871 0.58136 0.75754 0.0
C407 C 0.96367 0.56357 0.56928 0.0
C408 C 0.93201 0.54939 0.47241 0.0
H409 H 0.99217 0.59068 0.78011 0.0
H410 H 0.9868 0.56385 0.53584 0.0
S411 S 0.84617 0.53976 0.55101 0.0
N412 N 0.87562 0.56314 0.69999 0.0
N413 N 0.86884 0.53176 0.43838 0.0
C414 C 0.90231 0.54861 0.52071 0.0
C415 C 0.90589 0.56522 0.66282 0.0
C416 C 0.39878 0.92778 0.43597 0.0
C417 C 0.37213 0.91468 0.31953 0.0
C418 C 0.38659 0.91927 0.56297 0.0
C419 C 0.34794 0.89891 0.57386 0.0
H420 H 0.42901 0.94273 0.42595 0.0
H421 H 0.40704 0.92814 0.65075 0.0
S422 S 0.26069 0.8734 0.32125 0.0
N423 N 0.30255 0.88574 0.40132 0.0
N424 N 0.28756 0.87937 0.45908 0.0
C425 C 0.32161 0.89056 0.44965 0.0
C426 C 0.33215 0.89637 0.3167 0.0
C427 C 0.52444 0.2731 0.92472 0.0
C428 C 0.51698 0.23627 0.95185 0.0
C429 C 0.53928 0.28855 0.80366 0.0
C430 C 0.54657 0.26722 0.70567 0.0
H431 H 0.51862 0.29005 -0.00257 0.0
H432 H 0.5442 0.3167 0.78534 0.0
S433 S 0.53172 0.16926 0.72813 0.0
N434 N 0.51781 0.17884 0.87178 0.0
N435 N 0.54576 0.20772 0.64373 0.0
C436 C 0.5392 0.23031 0.73167 0.0
C437 C 0.52419 0.2147 0.85487 0.0
loop_
_geom_bond_atom_site_label_1
_geom_bond_atom_site_label_2
_geom_bond_distance
_geom_bond_site_symmetry_2
_ccdc_geom_bond_type
Ho0 C3 2.811 . S
Ho0 O20 2.322 . S
Ho0 O22 2.378 . S
Ho0 O23 2.524 . S
Ho0 O24 2.381 . S
Ho0 O25 2.669 . S
Ho0 O27 2.346 . S
Ho0 O31 2.305 1_556 S
Ho1 C12 2.811 1_556 S
Ho1 O21 2.346 . S
Ho1 O25 2.305 . S
Ho1 O26 2.322 1_556 S
Ho1 O28 2.378 1_556 S
Ho1 O29 2.524 . S
Ho1 O30 2.381 1_556 S
Ho1 O31 2.669 1_556 S
C2 O20 1.259 . S
C2 O21 1.268 . S
C3 Ho0 2.811 . S
C3 C4 1.488 . S
C3 O22 1.215 . S
C3 O23 1.289 . S
C4 C3 1.488 . S
C4 C5 1.348 . S
C4 C9 1.413 . S
C5 C4 1.348 . S
C5 C6 1.442 . S
C5 H32 0.930 1_556 S
C6 C5 1.442 . S
C6 C7 1.381 . S
C6 H33 0.931 . S
C7 C6 1.381 . S
C7 C8 1.321 . S
C8 C7 1.321 . S
C8 C9 1.403 . S
C8 H34 0.934 . S
C9 C4 1.413 . S
C9 C8 1.403 . S
C9 H35 0.930 . S
C10 O24 1.275 . S
C10 O25 1.256 . S
C11 O26 1.259 . S
C11 O27 1.268 1_554 S
C12 Ho1 2.811 1_554 S
C12 C13 1.488 . S
C12 O28 1.215 . S
C12 O29 1.289 1_554 S
C13 C12 1.488 . S
C13 C14 1.348 1_554 S
C13 C18 1.413 . S
C14 C13 1.348 1_556 S
C14 C15 1.442 . S
C14 H36 0.930 . S
C15 C14 1.442 . S
C15 C16 1.381 1_556 S
C15 H37 0.931 . S
C16 C15 1.381 1_554 S
C16 C17 1.321 . S
C17 C16 1.321 . S
C17 C18 1.403 . S
C17 H38 0.934 . S
C18 C13 1.413 . S
C18 C17 1.403 . S
C18 H39 0.930 . S
C19 O30 1.275 . S
C19 O31 1.256 . S
O20 Ho0 2.322 . S
O20 C2 1.259 . S
O21 Ho1 2.346 . S
O21 C2 1.268 . S
O22 Ho0 2.378 . S
O22 C3 1.215 . S
O23 Ho0 2.524 . S
O23 C3 1.289 . S
O24 Ho0 2.381 . S
O24 C10 1.275 . S
O25 Ho0 2.669 . S
O25 Ho1 2.305 . S
O25 C10 1.256 . S
O26 Ho1 2.322 1_554 S
O26 C11 1.259 . S
O27 Ho0 2.346 . S
O27 C11 1.268 1_556 S
O28 Ho1 2.378 1_554 S
O28 C12 1.215 . S
O29 Ho1 2.524 . S
O29 C12 1.289 1_556 S
O30 Ho1 2.381 1_554 S
O30 C19 1.275 . S
O31 Ho0 2.305 1_554 S
O31 Ho1 2.669 1_554 S
O31 C19 1.256 . S
H32 C5 0.930 1_554 S
H33 C6 0.931 . S
H34 C8 0.934 . S
H35 C9 0.930 . S
H36 C14 0.930 . S
H37 C15 0.931 . S
H38 C17 0.934 . S
H39 C18 0.930 . S
Ho40 C43 2.811 . S
Ho40 O60 2.322 . S
Ho40 O62 2.378 . S
Ho40 O63 2.524 . S
Ho40 O64 2.381 1_554 S
Ho40 O65 2.669 1_554 S
Ho40 O67 2.346 . S
Ho40 O71 2.305 . S
Ho41 C52 2.811 1_554 S
Ho41 O61 2.346 . S
Ho41 O65 2.305 1_554 S
Ho41 O66 2.322 . S
Ho41 O68 2.378 . S
Ho41 O69 2.524 1_554 S
Ho41 O70 2.381 . S
Ho41 O71 2.669 . S
C42 O60 1.259 . S
C42 O61 1.268 . S
C43 Ho40 2.811 . S
C43 C44 1.488 . S
C43 O62 1.215 . S
C43 O63 1.289 . S
C44 C43 1.488 . S
C44 C45 1.348 . S
C44 C49 1.413 1_655 S
C45 C44 1.348 . S
C45 C46 1.442 1_655 S
C45 H72 0.930 . S
C46 C45 1.442 1_455 S
C46 C47 1.381 . S
C46 H73 0.931 . S
C47 C46 1.381 . S
C47 C48 1.321 . S
C48 C47 1.321 . S
C48 C49 1.403 . S
C48 H74 0.934 . S
C49 C44 1.413 1_455 S
C49 C48 1.403 . S
C49 H75 0.930 . S
C50 O64 1.275 . S
C50 O65 1.256 . S
C51 O66 1.259 . S
C51 O67 1.268 . S
C52 Ho41 2.811 1_556 S
C52 C53 1.488 . S
C52 O68 1.215 1_556 S
C52 O69 1.289 . S
C53 C52 1.488 . S
C53 C54 1.348 . S
C53 C58 1.413 . S
C54 C53 1.348 . S
C54 C55 1.442 . S
C54 H76 0.930 . S
C55 C54 1.442 . S
C55 C56 1.381 . S
C55 H77 0.931 . S
C56 C55 1.381 . S
C56 C57 1.321 . S
C57 C56 1.321 . S
C57 C58 1.403 . S
C57 H78 0.931 1_556 S
C58 C53 1.413 . S
C58 C57 1.403 . S
C58 H79 0.930 1_556 S
C59 O70 1.275 . S
C59 O71 1.256 . S
O60 Ho40 2.322 . S
O60 C42 1.259 . S
O61 Ho41 2.346 . S
O61 C42 1.268 . S
O62 Ho40 2.378 . S
O62 C43 1.215 . S
O63 Ho40 2.524 . S
O63 C43 1.289 . S
O64 Ho40 2.381 1_556 S
O64 C50 1.275 . S
O65 Ho40 2.669 1_556 S
O65 Ho41 2.305 1_556 S
O65 C50 1.256 . S
O66 Ho41 2.322 . S
O66 C51 1.259 . S
O67 Ho40 2.346 . S
O67 C51 1.268 . S
O68 Ho41 2.378 . S
O68 C52 1.215 1_554 S
O69 Ho41 2.524 1_556 S
O69 C52 1.289 . S
O70 Ho41 2.381 . S
O70 C59 1.275 . S
O71 Ho40 2.305 . S
O71 Ho41 2.669 . S
O71 C59 1.256 . S
H72 C45 0.930 . S
H73 C46 0.931 . S
H74 C48 0.934 . S
H75 C49 0.930 . S
H76 C54 0.930 . S
H77 C55 0.931 . S
H78 C57 0.931 1_554 S
H79 C58 0.930 1_554 S
Ho80 C83 2.811 . S
Ho80 O100 2.322 1_556 S
Ho80 O102 2.378 1_556 S
Ho80 O103 2.524 . S
Ho80 O104 2.381 1_556 S
Ho80 O105 2.669 1_556 S
Ho80 O107 2.346 1_556 S
Ho80 O111 2.305 . S
Ho81 C92 2.811 . S
Ho81 O101 2.346 1_554 S
Ho81 O105 2.305 . S
Ho81 O106 2.322 1_554 S
Ho81 O108 2.378 1_554 S
Ho81 O109 2.524 . S
Ho81 O110 2.381 1_554 S
Ho81 O111 2.669 1_554 S
C82 O100 1.259 1_556 S
C82 O101 1.268 . S
C83 Ho80 2.811 . S
C83 C84 1.488 . S
C83 O102 1.215 1_556 S
C83 O103 1.289 . S
C84 C83 1.488 . S
C84 C85 1.348 . S
C84 C89 1.413 . S
C85 C84 1.348 . S
C85 C86 1.442 . S
C85 H112 0.930 . S
C86 C85 1.442 . S
C86 C87 1.381 . S
C86 H113 0.931 . S
C87 C86 1.381 . S
C87 C88 1.321 . S
C88 C87 1.321 . S
C88 C89 1.403 . S
C88 H114 0.934 . S
C89 C84 1.413 . S
C89 C88 1.403 . S
C89 H115 0.930 1_556 S
C90 O104 1.275 . S
C90 O105 1.256 . S
C91 O106 1.259 1_554 S
C91 O107 1.268 . S
C92 Ho81 2.811 . S
C92 C93 1.488 . S
C92 O108 1.215 1_554 S
C92 O109 1.289 . S
C93 C92 1.488 . S
C93 C94 1.348 . S
C93 C98 1.413 . S
C94 C93 1.348 . S
C94 C95 1.442 . S
C94 H116 0.930 . S
C95 C94 1.442 . S
C95 C96 1.381 . S
C95 H117 0.931 . S
C96 C95 1.381 . S
C96 C97 1.321 . S
C97 C96 1.321 . S
C97 C98 1.403 . S
C97 H118 0.934 . S
C98 C93 1.413 . S
C98 C97 1.403 . S
C98 H119 0.930 1_554 S
C99 O110 1.275 . S
C99 O111 1.256 . S
O100 Ho80 2.322 1_554 S
O100 C82 1.259 1_554 S
O101 Ho81 2.346 1_556 S
O101 C82 1.268 . S
O102 Ho80 2.378 1_554 S
O102 C83 1.215 1_554 S
O103 Ho80 2.524 . S
O103 C83 1.289 . S
O104 Ho80 2.381 1_554 S
O104 C90 1.275 . S
O105 Ho80 2.669 1_554 S
O105 Ho81 2.305 . S
O105 C90 1.256 . S
O106 Ho81 2.322 1_556 S
O106 C91 1.259 1_556 S
O107 Ho80 2.346 1_554 S
O107 C91 1.268 . S
O108 Ho81 2.378 1_556 S
O108 C92 1.215 1_556 S
O109 Ho81 2.524 . S
O109 C92 1.289 . S
O110 Ho81 2.381 1_556 S
O110 C99 1.275 . S
O111 Ho80 2.305 . S
O111 Ho81 2.669 1_556 S
O111 C99 1.256 . S
H112 C85 0.930 . S
H113 C86 0.931 . S
H114 C88 0.934 . S
H115 C89 0.930 1_554 S
H116 C94 0.930 . S
H117 C95 0.931 . S
H118 C97 0.934 . S
H119 C98 0.930 1_556 S
Ho120 C123 2.811 . S
Ho120 O140 2.322 . S
Ho120 O142 2.378 1_554 S
Ho120 O143 2.524 . S
Ho120 O144 2.381 1_554 S
Ho120 O145 2.669 1_554 S
Ho120 O147 2.346 1_554 S
Ho120 O151 2.305 . S
Ho121 C132 2.811 . S
Ho121 O141 2.346 1_556 S
Ho121 O145 2.305 . S
Ho121 O146 2.322 . S
Ho121 O148 2.378 1_556 S
Ho121 O149 2.524 . S
Ho121 O150 2.381 1_556 S
Ho121 O151 2.669 1_556 S
C122 O140 1.259 . S
C122 O141 1.268 . S
C123 Ho120 2.811 . S
C123 C124 1.488 . S
C123 O142 1.215 1_554 S
C123 O143 1.289 . S
C124 C123 1.488 . S
C124 C125 1.348 . S
C124 C129 1.413 . S
C125 C124 1.348 . S
C125 C126 1.442 . S
C125 H152 0.930 . S
C126 C125 1.442 . S
C126 C127 1.381 . S
C126 H153 0.931 . S
C127 C126 1.381 . S
C127 C128 1.321 . S
C128 C127 1.321 . S
C128 C129 1.403 . S
C128 H154 0.934 . S
C129 C124 1.413 . S
C129 C128 1.403 . S
C129 H155 0.930 1_554 S
C130 O144 1.275 . S
C130 O145 1.256 . S
C131 O146 1.259 . S
C131 O147 1.268 . S
C132 Ho121 2.811 . S
C132 C133 1.488 . S
C132 O148 1.215 1_556 S
C132 O149 1.289 . S
C133 C132 1.488 . S
C133 C134 1.348 . S
C133 C138 1.413 . S
C134 C133 1.348 . S
C134 C135 1.442 . S
C134 H156 0.930 . S
C135 C134 1.442 . S
C135 C136 1.381 . S
C135 H157 0.931 . S
C136 C135 1.381 . S
C136 C137 1.321 . S
C137 C136 1.321 . S
C137 C138 1.403 . S
C137 H158 0.934 . S
C138 C133 1.413 . S
C138 C137 1.403 . S
C138 H159 0.930 1_556 S
C139 O150 1.275 . S
C139 O151 1.256 . S
O140 Ho120 2.322 . S
O140 C122 1.259 . S
O141 Ho121 2.346 1_554 S
O141 C122 1.268 . S
O142 Ho120 2.378 1_556 S
O142 C123 1.215 1_556 S
O143 Ho120 2.524 . S
O143 C123 1.289 . S
O144 Ho120 2.381 1_556 S
O144 C130 1.275 . S
O145 Ho120 2.669 1_556 S
O145 Ho121 2.305 . S
O145 C130 1.256 . S
O146 Ho121 2.322 . S
O146 C131 1.259 . S
O147 Ho120 2.346 1_556 S
O147 C131 1.268 . S
O148 Ho121 2.378 1_554 S
O148 C132 1.215 1_554 S
O149 Ho121 2.524 . S
O149 C132 1.289 . S
O150 Ho121 2.381 1_554 S
O150 C139 1.275 . S
O151 Ho120 2.305 . S
O151 Ho121 2.669 1_554 S
O151 C139 1.256 . S
H152 C125 0.930 . S
H153 C126 0.931 . S
H154 C128 0.934 . S
H155 C129 0.930 1_556 S
H156 C134 0.930 . S
H157 C135 0.931 . S
H158 C137 0.934 . S
H159 C138 0.930 1_554 S
Ho160 C163 2.811 . S
Ho160 O180 2.322 . S
Ho160 O182 2.378 . S
Ho160 O183 2.524 1_556 S
Ho160 O184 2.381 . S
Ho160 O185 2.669 . S
Ho160 O187 2.346 . S
Ho160 O191 2.305 1_556 S
Ho161 C172 2.811 . S
Ho161 O181 2.346 . S
Ho161 O185 2.305 1_554 S
Ho161 O186 2.322 . S
Ho161 O188 2.378 . S
Ho161 O189 2.524 1_554 S
Ho161 O190 2.381 . S
Ho161 O191 2.669 . S
C162 O180 1.259 . S
C162 O181 1.268 1_556 S
C163 Ho160 2.811 . S
C163 C164 1.488 . S
C163 O182 1.215 . S
C163 O183 1.289 1_556 S
C164 C163 1.488 . S
C164 C165 1.348 . S
C164 C169 1.413 . S
C165 C164 1.348 . S
C165 C166 1.442 . S
C165 H192 0.930 1_556 S
C166 C165 1.442 . S
C166 C167 1.381 . S
C166 H193 0.931 1_556 S
C167 C166 1.381 . S
C167 C168 1.321 . S
C168 C167 1.321 . S
C168 C169 1.403 . S
C168 H194 0.934 . S
C169 C164 1.413 . S
C169 C168 1.403 . S
C169 H195 0.930 . S
C170 O184 1.275 . S
C170 O185 1.256 . S
C171 O186 1.259 . S
C171 O187 1.268 1_554 S
C172 Ho161 2.811 . S
C172 C173 1.488 . S
C172 O188 1.215 . S
C172 O189 1.289 1_554 S
C173 C172 1.488 . S
C173 C174 1.348 . S
C173 C178 1.413 . S
C174 C173 1.348 . S
C174 C175 1.442 . S
C174 H196 0.930 1_554 S
C175 C174 1.442 . S
C175 C176 1.381 . S
C175 H197 0.931 1_554 S
C176 C175 1.381 . S
C176 C177 1.321 . S
C177 C176 1.321 . S
C177 C178 1.403 . S
C177 H198 0.934 . S
C178 C173 1.413 . S
C178 C177 1.403 . S
C178 H199 0.930 . S
C179 O190 1.275 . S
C179 O191 1.256 . S
O180 Ho160 2.322 . S
O180 C162 1.259 . S
O181 Ho161 2.346 . S
O181 C162 1.268 1_554 S
O182 Ho160 2.378 . S
O182 C163 1.215 . S
O183 Ho160 2.524 1_554 S
O183 C163 1.289 1_554 S
O184 Ho160 2.381 . S
O184 C170 1.275 . S
O185 Ho160 2.669 . S
O185 Ho161 2.305 1_556 S
O185 C170 1.256 . S
O186 Ho161 2.322 . S
O186 C171 1.259 . S
O187 Ho160 2.346 . S
O187 C171 1.268 1_556 S
O188 Ho161 2.378 . S
O188 C172 1.215 . S
O189 Ho161 2.524 1_556 S
O189 C172 1.289 1_556 S
O190 Ho161 2.381 . S
O190 C179 1.275 . S
O191 Ho160 2.305 1_554 S
O191 Ho161 2.669 . S
O191 C179 1.256 . S
H192 C165 0.930 1_554 S
H193 C166 0.931 1_554 S
H194 C168 0.934 . S
H195 C169 0.930 . S
H196 C174 0.930 1_556 S
H197 C175 0.931 1_556 S
H198 C177 0.934 . S
H199 C178 0.930 . S
Ho200 C203 2.811 1_556 S
Ho200 O220 2.322 . S
Ho200 O222 2.378 . S
Ho200 O223 2.524 1_556 S
Ho200 O224 2.381 . S
Ho200 O225 2.669 . S
Ho200 O227 2.346 . S
Ho200 O231 2.305 1_556 S
Ho201 C212 2.811 1_554 S
Ho201 O221 2.346 . S
Ho201 O225 2.305 1_554 S
Ho201 O226 2.322 . S
Ho201 O228 2.378 . S
Ho201 O229 2.524 1_554 S
Ho201 O230 2.381 . S
Ho201 O231 2.669 . S
C202 O220 1.259 1_554 S
C202 O221 1.268 . S
C203 Ho200 2.811 1_554 S
C203 C204 1.488 . S
C203 O222 1.215 1_554 S
C203 O223 1.289 . S
C204 C203 1.488 . S
C204 C205 1.348 . S
C204 C209 1.413 1_544 S
C205 C204 1.348 . S
C205 C206 1.442 1_545 S
C205 H232 0.930 . S
C206 C205 1.442 1_565 S
C206 C207 1.381 . S
C206 H233 0.931 . S
C207 C206 1.381 . S
C207 C208 1.321 1_554 S
C208 C207 1.321 1_556 S
C208 C209 1.403 . S
C208 H234 0.934 . S
C209 C204 1.413 1_566 S
C209 C208 1.403 . S
C209 H235 0.930 . S
C210 O224 1.275 . S
C210 O225 1.256 . S
C211 O226 1.259 1_556 S
C211 O227 1.268 . S
C212 Ho201 2.811 1_556 S
C212 C213 1.488 . S
C212 O228 1.215 1_556 S
C212 O229 1.289 . S
C213 C212 1.488 . S
C213 C214 1.348 . S
C213 C218 1.413 1_556 S
C214 C213 1.348 . S
C214 C215 1.442 . S
C214 H236 0.930 . S
C215 C214 1.442 . S
C215 C216 1.381 . S
C215 H237 0.931 . S
C216 C215 1.381 . S
C216 C217 1.321 1_556 S
C217 C216 1.321 1_554 S
C217 C218 1.403 . S
C217 H238 0.934 . S
C218 C213 1.413 1_554 S
C218 C217 1.403 . S
C218 H239 0.930 . S
C219 O230 1.275 . S
C219 O231 1.256 . S
O220 Ho200 2.322 . S
O220 C202 1.259 1_556 S
O221 Ho201 2.346 . S
O221 C202 1.268 . S
O222 Ho200 2.378 . S
O222 C203 1.215 1_556 S
O223 Ho200 2.524 1_554 S
O223 C203 1.289 . S
O224 Ho200 2.381 . S
O224 C210 1.275 . S
O225 Ho200 2.669 . S
O225 Ho201 2.305 1_556 S
O225 C210 1.256 . S
O226 Ho201 2.322 . S
O226 C211 1.259 1_554 S
O227 Ho200 2.346 . S
O227 C211 1.268 . S
O228 Ho201 2.378 . S
O228 C212 1.215 1_554 S
O229 Ho201 2.524 1_556 S
O229 C212 1.289 . S
O230 Ho201 2.381 . S
O230 C219 1.275 . S
O231 Ho200 2.305 1_554 S
O231 Ho201 2.669 . S
O231 C219 1.256 . S
H232 C205 0.930 . S
H233 C206 0.931 . S
H234 C208 0.934 . S
H235 C209 0.930 . S
H236 C214 0.930 . S
H237 C215 0.931 . S
H238 C217 0.934 . S
H239 C218 0.930 . S
C240 C241 1.369 . S
C240 C242 1.419 . S
C240 H244 0.930 . S
C241 C240 1.369 . S
C241 C250 1.429 . S
C242 C240 1.419 . S
C242 C243 1.363 . S
C242 H245 0.929 . S
C243 C242 1.363 . S
C243 C249 1.428 . S
H244 C240 0.930 . S
H245 C242 0.929 . S
S246 N247 1.613 . S
S246 N248 1.610 . S
N247 S246 1.613 . S
N247 C250 1.350 . S
N248 S246 1.610 . S
N248 C249 1.351 . S
C249 C243 1.428 . S
C249 N248 1.351 . S
C249 C250 1.434 . S
C250 C241 1.429 . S
C250 N247 1.350 . S
C250 C249 1.434 . S
C251 C252 1.369 . S
C251 C253 1.419 . S
C251 H255 0.930 . S
C252 C251 1.369 . S
C252 C261 1.429 . S
C253 C251 1.419 . S
C253 C254 1.363 . S
C253 H256 0.929 . S
C254 C253 1.363 . S
C254 C260 1.428 . S
H255 C251 0.930 . S
H256 C253 0.929 . S
S257 N258 1.613 . S
S257 N259 1.610 . S
N258 S257 1.613 . S
N258 C261 1.350 . S
N259 S257 1.610 . S
N259 C260 1.351 . S
C260 C254 1.428 . S
C260 N259 1.351 . S
C260 C261 1.434 . S
C261 C252 1.429 . S
C261 N258 1.350 . S
C261 C260 1.434 . S
C262 C263 1.369 . S
C262 C264 1.419 . S
C262 H266 0.930 . S
C263 C262 1.369 . S
C263 C272 1.429 . S
C264 C262 1.419 . S
C264 C265 1.363 . S
C264 H267 0.929 . S
C265 C264 1.363 . S
C265 C271 1.428 . S
H266 C262 0.930 . S
H267 C264 0.929 . S
S268 N269 1.613 . S
S268 N270 1.610 . S
N269 S268 1.613 . S
N269 C272 1.350 . S
N270 S268 1.610 . S
N270 C271 1.351 . S
C271 C265 1.428 . S
C271 N270 1.351 . S
C271 C272 1.434 . S
C272 C263 1.429 . S
C272 N269 1.350 . S
C272 C271 1.434 . S
C273 C274 1.369 . S
C273 C275 1.419 . S
C273 H277 0.930 . S
C274 C273 1.369 . S
C274 C283 1.429 . S
C275 C273 1.419 . S
C275 C276 1.363 . S
C275 H278 0.929 . S
C276 C275 1.363 . S
C276 C282 1.428 . S
H277 C273 0.930 . S
H278 C275 0.929 . S
S279 N280 1.613 . S
S279 N281 1.610 . S
N280 S279 1.613 . S
N280 C283 1.350 . S
N281 S279 1.610 . S
N281 C282 1.351 . S
C282 C276 1.428 . S
C282 N281 1.351 . S
C282 C283 1.434 . S
C283 C274 1.429 . S
C283 N280 1.350 . S
C283 C282 1.434 . S
C284 C285 1.369 1_655 S
C284 C286 1.419 . S
C284 H288 0.930 . S
C285 C284 1.369 1_455 S
C285 C294 1.429 . S
C286 C284 1.419 . S
C286 C287 1.363 . S
C286 H289 0.929 . S
C287 C286 1.363 . S
C287 C293 1.428 1_655 S
H288 C284 0.930 . S
H289 C286 0.929 . S
S290 N291 1.613 . S
S290 N292 1.610 . S
N291 S290 1.613 . S
N291 C294 1.350 . S
N292 S290 1.610 . S
N292 C293 1.351 . S
C293 C287 1.428 1_455 S
C293 N292 1.351 . S
C293 C294 1.434 . S
C294 C285 1.429 . S
C294 N291 1.350 . S
C294 C293 1.434 . S
C295 C296 1.369 . S
C295 C297 1.419 . S
C295 H299 0.917 1_565 S
C296 C295 1.369 . S
C296 C305 1.429 . S
C297 C295 1.419 . S
C297 C298 1.363 . S
C297 H300 0.929 . S
C298 C297 1.363 . S
C298 C304 1.428 . S
H299 C295 0.917 1_545 S
H300 C297 0.929 . S
S301 N302 1.613 . S
S301 N303 1.610 . S
N302 S301 1.613 . S
N302 C305 1.350 . S
N303 S301 1.610 . S
N303 C304 1.351 . S
C304 C298 1.428 . S
C304 N303 1.351 . S
C304 C305 1.434 . S
C305 C296 1.429 . S
C305 N302 1.350 . S
C305 C304 1.434 . S
C306 C307 1.369 . S
C306 C308 1.419 . S
C306 H310 0.930 . S
C307 C306 1.369 . S
C307 C316 1.429 . S
C308 C306 1.419 . S
C308 C309 1.363 . S
C308 H311 0.929 . S
C309 C308 1.363 . S
C309 C315 1.428 . S
H310 C306 0.930 . S
H311 C308 0.929 . S
S312 N313 1.613 . S
S312 N314 1.610 . S
N313 S312 1.613 . S
N313 C316 1.350 . S
N314 S312 1.610 . S
N314 C315 1.351 . S
C315 C309 1.428 . S
C315 N314 1.351 . S
C315 C316 1.434 . S
C316 C307 1.429 . S
C316 N313 1.350 . S
C316 C315 1.434 . S
C317 C318 1.369 . S
C317 C319 1.419 . S
C317 H321 0.930 1_556 S
C318 C317 1.369 . S
C318 C327 1.429 . S
C319 C317 1.419 . S
C319 C320 1.363 . S
C319 H322 0.929 1_556 S
C320 C319 1.363 . S
C320 C326 1.428 . S
H321 C317 0.930 1_554 S
H322 C319 0.929 1_554 S
S323 N324 1.613 . S
S323 N325 1.610 . S
N324 S323 1.613 . S
N324 C327 1.350 . S
N325 S323 1.610 . S
N325 C326 1.351 . S
C326 C320 1.428 . S
C326 N325 1.351 . S
C326 C327 1.434 . S
C327 C318 1.429 . S
C327 N324 1.350 . S
C327 C326 1.434 . S
C328 C329 1.369 1_556 S
C328 C330 1.419 . S
C328 H332 0.930 . S
C329 C328 1.369 1_554 S
C329 C338 1.429 . S
C330 C328 1.419 . S
C330 C331 1.363 1_556 S
C330 H333 0.929 . S
C331 C330 1.363 1_554 S
C331 C337 1.428 . S
H332 C328 0.930 . S
H333 C330 0.929 . S
S334 N335 1.613 . S
S334 N336 1.610 . S
N335 S334 1.613 . S
N335 C338 1.350 . S
N336 S334 1.610 . S
N336 C337 1.351 . S
C337 C331 1.428 . S
C337 N336 1.351 . S
C337 C338 1.434 . S
C338 C329 1.429 . S
C338 N335 1.350 . S
C338 C337 1.434 . S
C339 C340 1.369 . S
C339 C341 1.419 . S
C339 H343 0.930 . S
C340 C339 1.369 . S
C340 C349 1.429 . S
C341 C339 1.419 . S
C341 C342 1.363 . S
C341 H344 0.929 1_556 S
C342 C341 1.363 . S
C342 C348 1.428 . S
H343 C339 0.930 . S
H344 C341 0.929 1_554 S
S345 N346 1.613 . S
S345 N347 1.610 . S
N346 S345 1.613 . S
N346 C349 1.350 . S
N347 S345 1.610 . S
N347 C348 1.351 . S
C348 C342 1.428 . S
C348 N347 1.351 . S
C348 C349 1.434 . S
C349 C340 1.429 . S
C349 N346 1.350 . S
C349 C348 1.434 . S
C350 C351 1.369 . S
C350 C352 1.419 . S
C350 H354 0.930 1_554 S
C351 C350 1.369 . S
C351 C360 1.429 . S
C352 C350 1.419 . S
C352 C353 1.363 . S
C352 H355 0.929 . S
C353 C352 1.363 . S
C353 C359 1.428 . S
H354 C350 0.930 1_556 S
H355 C352 0.929 . S
S356 N357 1.613 . S
S356 N358 1.610 . S
N357 S356 1.613 . S
N357 C360 1.350 . S
N358 S356 1.610 . S
N358 C359 1.351 . S
C359 C353 1.428 . S
C359 N358 1.351 . S
C359 C360 1.434 . S
C360 C351 1.429 . S
C360 N357 1.350 . S
C360 C359 1.434 . S
C361 C362 1.369 . S
C361 C363 1.419 . S
C361 H365 0.930 . S
C362 C361 1.369 . S
C362 C371 1.429 . S
C363 C361 1.419 . S
C363 C364 1.363 . S
C363 H366 0.929 . S
C364 C363 1.363 . S
C364 C370 1.428 . S
H365 C361 0.930 . S
H366 C363 0.929 . S
S367 N368 1.613 . S
S367 N369 1.610 . S
N368 S367 1.613 . S
N368 C371 1.350 . S
N369 S367 1.610 . S
N369 C370 1.351 . S
C370 C364 1.428 . S
C370 N369 1.351 . S
C370 C371 1.434 . S
C371 C362 1.429 . S
C371 N368 1.350 . S
C371 C370 1.434 . S
C372 C373 1.369 . S
C372 C374 1.419 . S
C372 H376 0.930 . S
C373 C372 1.369 . S
C373 C382 1.429 . S
C374 C372 1.419 . S
C374 C375 1.363 . S
C374 H377 0.929 . S
C375 C374 1.363 . S
C375 C381 1.428 . S
H376 C372 0.930 . S
H377 C374 0.929 . S
S378 N379 1.613 . S
S378 N380 1.610 . S
N379 S378 1.613 . S
N379 C382 1.350 . S
N380 S378 1.610 . S
N380 C381 1.351 . S
C381 C375 1.428 . S
C381 N380 1.351 . S
C381 C382 1.434 . S
C382 C373 1.429 . S
C382 N379 1.350 . S
C382 C381 1.434 . S
C383 C384 1.369 . S
C383 C385 1.419 . S
C383 H387 0.930 . S
C384 C383 1.369 . S
C384 C393 1.429 . S
C385 C383 1.419 . S
C385 C386 1.363 . S
C385 H388 0.929 . S
C386 C385 1.363 . S
C386 C392 1.428 . S
H387 C383 0.930 . S
H388 C385 0.929 . S
S389 N390 1.613 . S
S389 N391 1.610 . S
N390 S389 1.613 . S
N390 C393 1.350 . S
N391 S389 1.610 . S
N391 C392 1.351 . S
C392 C386 1.428 . S
C392 N391 1.351 . S
C392 C393 1.434 . S
C393 C384 1.429 . S
C393 N390 1.350 . S
C393 C392 1.434 . S
C394 C395 1.369 . S
C394 C396 1.419 . S
C394 H398 0.930 . S
C395 C394 1.369 . S
C395 C404 1.429 . S
C396 C394 1.419 . S
C396 C397 1.363 . S
C396 H399 0.929 . S
C397 C396 1.363 . S
C397 C403 1.428 . S
H398 C394 0.930 . S
H399 C396 0.929 . S
S400 N401 1.613 . S
S400 N402 1.610 . S
N401 S400 1.613 . S
N401 C404 1.350 . S
N402 S400 1.610 . S
N402 C403 1.351 . S
C403 C397 1.428 . S
C403 N402 1.351 . S
C403 C404 1.434 . S
C404 C395 1.429 . S
C404 N401 1.350 . S
C404 C403 1.434 . S
C405 C406 1.369 . S
C405 C407 1.419 . S
C405 H409 0.930 . S
C406 C405 1.369 . S
C406 C415 1.429 . S
C407 C405 1.419 . S
C407 C408 1.363 . S
C407 H410 0.929 . S
C408 C407 1.363 . S
C408 C414 1.428 . S
H409 C405 0.930 . S
H410 C407 0.929 . S
S411 N412 1.613 . S
S411 N413 1.610 . S
N412 S411 1.613 . S
N412 C415 1.350 . S
N413 S411 1.610 . S
N413 C414 1.351 . S
C414 C408 1.428 . S
C414 N413 1.351 . S
C414 C415 1.434 . S
C415 C406 1.429 . S
C415 N412 1.350 . S
C415 C414 1.434 . S
C416 C417 1.369 . S
C416 C418 1.419 . S
C416 H420 0.930 . S
C417 C416 1.369 . S
C417 C426 1.429 . S
C418 C416 1.419 . S
C418 C419 1.363 . S
C418 H421 0.929 . S
C419 C418 1.363 . S
C419 C425 1.428 . S
H420 C416 0.930 . S
H421 C418 0.929 . S
S422 N423 1.613 . S
S422 N424 1.610 . S
N423 S422 1.613 . S
N423 C426 1.350 . S
N424 S422 1.610 . S
N424 C425 1.351 . S
C425 C419 1.428 . S
C425 N424 1.351 . S
C425 C426 1.434 . S
C426 C417 1.429 . S
C426 N423 1.350 . S
C426 C425 1.434 . S
C427 C428 1.369 . S
C427 C429 1.419 . S
C427 H431 0.930 . S
C428 C427 1.369 . S
C428 C437 1.429 . S
C429 C427 1.419 . S
C429 C430 1.363 . S
C429 H432 0.929 . S
C430 C429 1.363 . S
C430 C436 1.428 . S
H431 C427 0.930 . S
H432 C429 0.929 . S
S433 N434 1.613 . S
S433 N435 1.610 . S
N434 S433 1.613 . S
N434 C437 1.350 . S
N435 S433 1.610 . S
N435 C436 1.351 . S
C436 C430 1.428 . S
C436 N435 1.351 . S
C436 C437 1.434 . S
C437 C428 1.429 . S
C437 N434 1.350 . S
C437 C436 1.434 . S
C241 C202 3.701 . S
C243 C7 3.574 . S
C252 C2 3.762 . S
C254 C47 3.446 . S
C263 C42 3.208 . S
C265 C82 3.188 1_545 S
C274 C127 2.350 . S
C276 C87 2.156 . S
C285 C167 3.044 . S
C287 C122 3.611 . S
C296 C162 2.942 . S
C298 C207 2.782 . S
C307 C171 2.603 . S
C309 C16 2.495 . S
C318 C211 3.143 . S
C320 C56 3.103 . S
C329 C91 3.689 . S
C331 C11 3.711 . S
C340 C136 1.920 . S
C342 C51 2.082 1_556 S
C351 C176 0.772 . S
C353 C96 0.776 . S
C362 C131 1.151 . S
C364 C216 1.189 . S
C373 C10 0.853 . S
C375 C19 0.847 . S
C384 C50 0.927 . S
C386 C59 0.940 . S
C395 C99 0.966 . S
C397 C90 0.960 . S
C406 C130 0.792 . S
C408 C139 0.789 . S
C417 C179 1.026 . S
C419 C170 1.009 . S
C428 C210 0.959 . S
C430 C219 0.967 . S
