# Generated by pormake.
# Topology nbo, (4)-cn, num edge types: 1
# Building blocks:
#     Node 0, Type 0, BuildingBlock: MUDLON_clean_sbu_0, # of connection points: 4
#     Node 1, Type 0, BuildingBlock: MUDLON_clean_sbu_0, # of connection points: 4
#     Node 2, Type 0, BuildingBlock: MUDLON_clean_sbu_0, # of connection points: 4
#     Node 3, Type 0, BuildingBlock: MUDLON_clean_sbu_0, # of connection points: 4
#     Node 4, Type 0, BuildingBlock: MUDLON_clean_sbu_0, # of connection points: 4
#     Node 5, Type 0, BuildingBlock: MUDLON_clean_sbu_0, # of connection points: 4
#     Edge 6, Type (0, 0), BuildingBlock: UKIBUN_clean_linker_0, # of connection points: 2
#     Edge 7, Type (0, 0), BuildingBlock: UKIBUN_clean_linker_0, # of connection points: 2
#     Edge 8, Type (0, 0), BuildingBlock: UKIBUN_clean_linker_0, # of connection points: 2
#     Edge 9, Type (0, 0), BuildingBlock: UKIBUN_clean_linker_0, # of connection points: 2
#     Edge 10, Type (0, 0), BuildingBlock: UKIBUN_clean_linker_0, # of connection points: 2
#     Edge 11, Type (0, 0), BuildingBlock: UKIBUN_clean_linker_0, # of connection points: 2
#     Edge 12, Type (0, 0), BuildingBlock: UKIBUN_clean_linker_0, # of connection points: 2
#     Edge 13, Type (0, 0), BuildingBlock: UKIBUN_clean_linker_0, # of connection points: 2
#     Edge 14, Type (0, 0), BuildingBlock: UKIBUN_clean_linker_0, # of connection points: 2
#     Edge 15, Type (0, 0), BuildingBlock: UKIBUN_clean_linker_0, # of connection points: 2
#     Edge 16, Type (0, 0), BuildingBlock: UKIBUN_clean_linker_0, # of connection points: 2
#     Edge 17, Type (0, 0), BuildingBlock: UKIBUN_clean_linker_0, # of connection points: 2
# Relax obj value: 0.000
# Max RMSD: 0.009
# Mean RMSD: 0.009
data_MOF--net-nbo--node1-MUDLON_clean_sbu_0--edge1-UKIBUN_clean_linker_0
_symmetry_space_group_name_H-M    P1
_symmetry_Int_Tables_number       1
_symmetry_cell_setting            triclinic
loop_
_symmetry_equiv_pos_as_xyz
'x, y, z'
_cell_length_a     50.423858
_cell_length_b     50.403571
_cell_length_c     50.428291
_cell_angle_alpha  91.070432
_cell_angle_beta   91.128638
_cell_angle_gamma 91.192334
loop_
_atom_site_label
_atom_site_type_symbol
_atom_site_fract_x
_atom_site_fract_y
_atom_site_fract_z
_atom_type_partial_charge
Mg0 Mg 0.00947 0.00851 0.5361 0.0
C1 C 0.01158 0.06662 0.5144 0.0
O2 O 0.01122 0.05325 0.4918 0.0
C3 C 0.00991 0.95076 0.51476 0.0
O4 O 0.00884 0.96379 0.49246 0.0
C5 C 0.95109 0.01164 0.5145 0.0
O6 O 0.96399 0.0166 0.49273 0.0
O7 O 0.96396 0.00747 0.53587 0.0
O8 O 0.0107 0.05414 0.53606 0.0
O9 O 0.0544 0.00837 0.53651 0.0
C10 C 0.06799 0.013 0.51613 0.0
O11 O 0.05611 0.01854 0.49356 0.0
O12 O 0.00979 0.96354 0.53667 0.0
Mg13 Mg 0.50138 0.00838 0.00853 0.0
C14 C 0.52107 0.06822 0.01243 0.0
O15 O 0.54464 0.0578 0.01065 0.0
C16 C 0.52226 0.95099 0.01082 0.0
O17 O 0.5437 0.96453 0.01849 0.0
C18 C 0.52231 0.011 0.95089 0.0
O19 O 0.54478 0.00835 0.96407 0.0
O20 O 0.50072 0.01183 0.9634 0.0
O21 O 0.50046 0.05331 0.01245 0.0
O22 O 0.50185 0.0052 0.05361 0.0
C23 C 0.52231 0.01256 0.06714 0.0
O24 O 0.54343 0.02129 0.05491 0.0
O25 O 0.50143 0.96335 0.00461 0.0
Mg26 Mg 0.00893 0.53648 0.00866 0.0
C27 C 0.06672 0.51484 0.01227 0.0
O28 O 0.05331 0.49307 0.01766 0.0
C29 C 0.95055 0.5159 0.01095 0.0
O30 O 0.96298 0.49325 0.01124 0.0
C31 C 0.01095 0.51612 0.95007 0.0
O32 O 0.01465 0.49359 0.96215 0.0
O33 O 0.00736 0.53708 0.96377 0.0
O34 O 0.0543 0.53596 0.0075 0.0
O35 O 0.01021 0.53687 0.05384 0.0
C36 C 0.01257 0.51595 0.06728 0.0
O37 O 0.01424 0.49286 0.055 0.0
O38 O 0.96401 0.53739 0.00956 0.0
Mg39 Mg 0.50869 0.50882 0.02731 0.0
C40 C 0.51207 0.56567 0.01375 0.0
O41 O 0.51128 0.55351 0.99048 0.0
C42 C 0.51093 0.45215 0.0139 0.0
O43 O 0.51515 0.46402 0.99135 0.0
C44 C 0.45181 0.5115 0.01376 0.0
O45 O 0.46353 0.51541 0.99109 0.0
O46 O 0.46612 0.50802 0.03438 0.0
O47 O 0.51144 0.55181 0.03457 0.0
O48 O 0.55127 0.50687 0.03459 0.0
C49 C 0.5668 0.5123 0.01578 0.0
O50 O 0.55695 0.5188 0.99257 0.0
O51 O 0.50718 0.46638 0.03449 0.0
Mg52 Mg 0.00963 0.50949 0.50812 0.0
C53 C 0.02306 0.56669 0.51266 0.0
O54 O 0.04547 0.55564 0.5195 0.0
C55 C 0.023 0.45248 0.51116 0.0
O56 O 0.04561 0.46466 0.51741 0.0
C57 C 0.02305 0.51099 0.45161 0.0
O58 O 0.04631 0.50905 0.46352 0.0
O59 O 0.00233 0.51158 0.46553 0.0
O60 O 0.0031 0.5519 0.50646 0.0
O61 O 0.00253 0.51191 0.55087 0.0
C62 C 0.02307 0.5125 0.56599 0.0
O63 O 0.04662 0.51181 0.55539 0.0
O64 O 0.00291 0.4664 0.50572 0.0
Mg65 Mg 0.5092 0.02851 0.50848 0.0
C66 C 0.5659 0.01458 0.51213 0.0
O67 O 0.5535 0.9918 0.51575 0.0
C68 C 0.45178 0.01553 0.51083 0.0
O69 O 0.4628 0.99223 0.51278 0.0
C70 C 0.51055 0.01434 0.45174 0.0
O71 O 0.50868 0.99133 0.46345 0.0
O72 O 0.51106 0.03541 0.466 0.0
O73 O 0.55214 0.03516 0.50878 0.0
O74 O 0.50992 0.03562 0.55137 0.0
C75 C 0.5126 0.01554 0.56605 0.0
O76 O 0.51445 0.99193 0.55486 0.0
O77 O 0.46671 0.03589 0.50791 0.0
C78 C 0.02985 0.10994 0.53279 0.0
C79 C 0.01339 0.09586 0.51436 0.0
C80 C 0.03326 0.1375 0.53095 0.0
C81 C 0.04698 0.2462 0.51935 0.0
C82 C 0.0049 0.40903 0.49223 0.0
C83 C 0.02163 0.42312 0.51043 0.0
C84 C 0.0061 0.38128 0.49003 0.0
C85 C 0.01495 0.27174 0.48218 0.0
H86 H 0.04081 0.09953 0.54793 0.0
H87 H 0.04664 0.14799 0.54479 0.0
H88 H 0.05919 0.23653 0.53406 0.0
H89 H 0.99167 0.41948 0.47907 0.0
H90 H 0.99366 0.37075 0.47538 0.0
H91 H 0.0022 0.28142 0.46794 0.0
C92 C -0.00041 0.10986 0.49482 0.0
C93 C 0.00264 0.1374 0.4933 0.0
C94 C 0.01469 0.24401 0.48307 0.0
C95 C 0.03865 0.4089 0.52712 0.0
C96 C 0.03957 0.38125 0.52515 0.0
C97 C 0.04725 0.27394 0.51846 0.0
C98 C 0.01992 0.15124 0.51096 0.0
C99 C 0.02438 0.17935 0.50802 0.0
C100 C 0.02766 0.20288 0.50502 0.0
C101 C 0.03025 0.23119 0.50206 0.0
H102 H 0.98655 0.09944 0.48062 0.0
H103 H 0.99194 0.14781 0.47797 0.0
H104 H 0.00173 0.23265 0.46952 0.0
H105 H 0.0515 0.41922 0.54155 0.0
H106 H 0.05305 0.37077 0.53805 0.0
H107 H 0.05966 0.28532 0.5325 0.0
C108 C 0.02374 0.36738 0.50624 0.0
C109 C 0.02615 0.33901 0.50327 0.0
C110 C 0.0287 0.31529 0.50135 0.0
C111 C 0.03078 0.2868 0.50026 0.0
C112 C 0.90838 0.033 0.50354 0.0
C113 C 0.92191 0.01138 0.51397 0.0
C114 C 0.88072 0.03214 0.50093 0.0
C115 C 0.7735 0.02974 0.48669 0.0
C116 C 0.60972 0.9928 0.51691 0.0
C117 C 0.59521 0.01538 0.51032 0.0
C118 C 0.6371 0.99233 0.51349 0.0
C119 C 0.74303 0.98586 0.50222 0.0
H120 H 0.91924 0.05048 0.49724 0.0
H121 H 0.87062 0.04896 0.49267 0.0
H122 H 0.7851 0.04697 0.48098 0.0
H123 H 0.59987 0.97527 0.52444 0.0
H124 H 0.64777 0.97458 0.51845 0.0
H125 H 0.73144 0.96889 0.50863 0.0
C126 C 0.9074 0.98908 0.52236 0.0
C127 C 0.87973 0.98803 0.51927 0.0
C128 C 0.77074 0.98485 0.50308 0.0
C129 C 0.60889 0.03781 0.50086 0.0
C130 C 0.6364 0.03726 0.49736 0.0
C131 C 0.7458 0.03074 0.48583 0.0
C132 C 0.86637 0.00943 0.50821 0.0
C133 C 0.8381 0.00789 0.5036 0.0
C134 C 0.81444 0.00709 0.49954 0.0
C135 C 0.78604 0.007 0.49585 0.0
H136 H 0.91753 0.97214 0.53032 0.0
H137 H 0.86884 0.97036 0.52504 0.0
H138 H 0.7802 0.96713 0.51012 0.0
H139 H 0.59831 0.05551 0.49562 0.0
H140 H 0.64658 0.05454 0.48967 0.0
H141 H 0.73637 0.04873 0.47947 0.0
C142 C 0.65049 0.01438 0.50339 0.0
C143 C 0.67863 0.01322 0.49919 0.0
C144 C 0.70217 0.0112 0.49606 0.0
C145 C 0.7305 0.00901 0.4941 0.0
C146 C 0.03749 0.61145 0.52944 0.0
C147 C 0.0218 0.59582 0.51164 0.0
C148 C 0.0386 0.63901 0.52723 0.0
C149 C 0.04697 0.74572 0.5208 0.0
C150 C 0.00048 0.9064 0.49369 0.0
C151 C 0.01254 0.92174 0.51426 0.0
C152 C 0.00417 0.87903 0.49226 0.0
C153 C 0.01734 0.77319 0.48309 0.0
H154 H 0.04915 0.60232 0.54492 0.0
H155 H 0.05103 0.65068 0.54101 0.0
H156 H 0.0582 0.73527 0.53572 0.0
H157 H 0.98825 0.91559 0.47869 0.0
H158 H 0.99476 0.8675 0.4762 0.0
H159 H 0.0055 0.78361 0.46863 0.0
C160 C 0.00658 0.60826 0.492 0.0
C161 C 0.00801 0.6359 0.48956 0.0
C162 C 0.01757 0.74546 0.48213 0.0
C163 C 0.02799 0.90923 0.53369 0.0
C164 C 0.03202 0.88189 0.53199 0.0
C165 C 0.04675 0.77345 0.52176 0.0
C166 C 0.02432 0.65126 0.50697 0.0
C167 C 0.02692 0.67951 0.50394 0.0
C168 C 0.02968 0.7032 0.50214 0.0
C169 C 0.03194 0.73166 0.5013 0.0
H170 H 0.99445 0.5966 0.47795 0.0
H171 H 0.99679 0.64519 0.47385 0.0
H172 H 0.0059 0.73481 0.46694 0.0
H173 H 0.03762 0.9207 0.54966 0.0
H174 H 0.04451 0.87262 0.54673 0.0
H175 H 0.0578 0.78409 0.5374 0.0
C176 C 0.02032 0.8668 0.51111 0.0
C177 C 0.02516 0.83887 0.50866 0.0
C178 C 0.02879 0.81544 0.506 0.0
C179 C 0.03149 0.7872 0.50324 0.0
C180 C 0.40806 0.99675 0.52473 0.0
C181 C 0.42275 0.01787 0.51397 0.0
C182 C 0.38086 0.99891 0.52878 0.0
C183 C 0.27492 0.00288 0.54393 0.0
C184 C 0.11134 0.03605 0.50963 0.0
C185 C 0.097 0.01392 0.51853 0.0
C186 C 0.1388 0.03788 0.5138 0.0
C187 C 0.24569 0.04585 0.52597 0.0
H188 H 0.41763 0.97863 0.53046 0.0
H189 H 0.37003 0.98248 0.53735 0.0
H190 H 0.28601 0.98598 0.5506 0.0
H191 H 0.10122 0.05223 0.5002 0.0
H192 H 0.14958 0.05532 0.50728 0.0
H193 H 0.23455 0.06243 0.5186 0.0
C194 C 0.4095 0.0411 0.50696 0.0
C195 C 0.38216 0.04314 0.51083 0.0
C196 C 0.27338 0.04676 0.52509 0.0
C197 C 0.11042 0.99337 0.53111 0.0
C198 C 0.13794 0.99498 0.53482 0.0
C199 C 0.24721 0.00197 0.54481 0.0
C200 C 0.36784 0.02212 0.52196 0.0
C201 C 0.3398 0.02412 0.52633 0.0
C202 C 0.31633 0.025 0.5303 0.0
C203 C 0.28804 0.0251 0.53365 0.0
H204 H 0.42022 0.05762 0.49846 0.0
H205 H 0.37225 0.06114 0.50527 0.0
H206 H 0.28329 0.06404 0.51708 0.0
H207 H 0.09962 0.97609 0.53798 0.0
H208 H 0.14809 0.97889 0.54439 0.0
H209 H 0.23724 0.98438 0.55212 0.0
C210 C 0.15214 0.01738 0.52644 0.0
C211 C 0.1804 0.01925 0.5305 0.0
C212 C 0.20409 0.02125 0.53369 0.0
C213 C 0.23254 0.02328 0.53543 0.0
C214 C 0.52733 0.03523 0.41018 0.0
C215 C 0.51271 0.01505 0.42257 0.0
C216 C 0.53141 0.03388 0.38275 0.0
C217 C 0.54647 0.02374 0.27398 0.0
C218 C 0.50815 0.99126 0.10912 0.0
C219 C 0.52248 0.01134 0.09631 0.0
C220 C 0.50972 0.98927 0.13674 0.0
C221 C 0.51909 0.98277 0.24613 0.0
H222 H 0.53638 0.05144 0.42176 0.0
H223 H 0.54333 0.04916 0.37356 0.0
H224 H 0.55683 0.0399 0.28453 0.0
H225 H 0.4964 0.97668 0.09774 0.0
H226 H 0.4991 0.97328 0.14627 0.0
H227 H 0.50813 0.96703 0.23552 0.0
C228 C 0.50138 0.99422 0.40696 0.0
C229 C 0.50518 0.99308 0.37963 0.0
C230 C 0.5188 0.9838 0.27386 0.0
C231 C 0.53755 0.02997 0.1116 0.0
C232 C 0.53877 0.0282 0.13921 0.0
C233 C 0.54676 0.02271 0.24626 0.0
C234 C 0.52063 0.01258 0.36751 0.0
C235 C 0.52563 0.01027 0.33954 0.0
C236 C 0.52925 0.00744 0.31609 0.0
C237 C 0.53203 0.00462 0.28782 0.0
H238 H 0.48978 0.97858 0.41596 0.0
H239 H 0.49647 0.97668 0.36804 0.0
H240 H 0.50761 0.96884 0.28433 0.0
H241 H 0.54839 0.04589 0.10219 0.0
H242 H 0.55058 0.04269 0.15067 0.0
H243 H 0.55733 0.03809 0.23576 0.0
C244 C 0.52529 0.00756 0.1518 0.0
C245 C 0.5279 0.00495 0.18008 0.0
C246 C 0.53045 0.00325 0.2038 0.0
C247 C 0.5326 0.00254 0.23226 0.0
C248 C 0.02898 0.49883 0.11062 0.0
C249 C 0.01481 0.51784 0.09644 0.0
C250 C 0.03242 0.50147 0.13811 0.0
C251 C 0.0459 0.50883 0.24516 0.0
C252 C 0.00756 0.53255 0.40991 0.0
C253 C 0.02159 0.51238 0.4225 0.0
C254 C 0.00929 0.53564 0.38243 0.0
C255 C 0.01952 0.54753 0.27449 0.0
H256 H 0.03797 0.4823 0.10041 0.0
H257 H 0.0438 0.48688 0.14868 0.0
H258 H 0.05585 0.49354 0.23397 0.0
H259 H 0.99626 0.54655 0.42143 0.0
H260 H -0.00091 0.55181 0.37306 0.0
H261 H 0.00893 0.56239 0.28563 0.0
C262 C 0.00357 0.53916 0.11029 0.0
C263 C 0.00675 0.54159 0.13784 0.0
C264 C 0.01911 0.54823 0.24679 0.0
C265 C 0.03638 0.49472 0.40718 0.0
C266 C 0.03772 0.49753 0.37974 0.0
C267 C 0.04631 0.50813 0.27288 0.0
C268 C 0.02147 0.52293 0.15175 0.0
C269 C 0.02539 0.52572 0.17999 0.0
C270 C 0.02895 0.52761 0.20364 0.0
C271 C 0.03186 0.52859 0.23206 0.0
H272 H 0.99231 0.55392 0.09984 0.0
H273 H 0.99794 0.55813 0.14821 0.0
H274 H 0.00819 0.5636 0.23688 0.0
H275 H 0.0472 0.47894 0.41652 0.0
H276 H 0.04945 0.48384 0.36829 0.0
H277 H 0.05658 0.49231 0.28276 0.0
C278 C 0.02469 0.51833 0.36736 0.0
C279 C 0.02769 0.52212 0.33934 0.0
C280 C 0.03054 0.52483 0.31586 0.0
C281 C 0.03266 0.52718 0.28758 0.0
C282 C 0.52961 -7e-05 0.60972 0.0
C283 C 0.51513 0.01851 0.59522 0.0
C284 C 0.53274 0.0027 0.63722 0.0
C285 C 0.54584 0.00963 0.7442 0.0
C286 C 0.50769 0.03259 0.90901 0.0
C287 C 0.5223 0.01296 0.92181 0.0
C288 C 0.50938 0.03556 0.88154 0.0
C289 C 0.51873 0.04757 0.77381 0.0
H290 H 0.53897 0.98348 0.59974 0.0
H291 H 0.5443 0.98835 0.64794 0.0
H292 H 0.55612 0.99463 0.73293 0.0
H293 H 0.49572 0.04614 0.92034 0.0
H294 H 0.49861 0.05128 0.87203 0.0
H295 H 0.50788 0.06214 0.78506 0.0
C296 C 0.50337 0.03967 0.60886 0.0
C297 C 0.50622 0.04222 0.63651 0.0
C298 C 0.51814 0.04835 0.74611 0.0
C299 C 0.53776 0.99572 0.9067 0.0
C300 C 0.53904 0.99838 0.87922 0.0
C301 C 0.54644 0.00885 0.77193 0.0
C302 C 0.52117 0.02389 0.6507 0.0
C303 C 0.52478 0.02666 0.67904 0.0
C304 C 0.52826 0.02827 0.70275 0.0
C305 C 0.53125 0.02909 0.73122 0.0
H306 H 0.49181 0.05405 0.59821 0.0
H307 H 0.49691 0.05855 0.64675 0.0
H308 H 0.50682 0.06351 0.73632 0.0
H309 H 0.54887 0.98023 0.91618 0.0
H310 H 0.55113 0.98494 0.86787 0.0
H311 H 0.55717 0.99326 0.78172 0.0
C312 C 0.5253 0.01863 0.86664 0.0
C313 C 0.52805 0.02229 0.83858 0.0
C314 C 0.5306 0.02505 0.81507 0.0
C315 C 0.53244 0.02751 0.78677 0.0
C316 C 0.03611 0.49551 0.61015 0.0
C317 C 0.02117 0.51325 0.59512 0.0
C318 C 0.03747 0.49797 0.63778 0.0
C319 C 0.04653 0.50826 0.74573 0.0
C320 C 0.00232 0.53901 0.90731 0.0
C321 C 0.01343 0.51777 0.92106 0.0
C322 C 0.00614 0.54151 0.88009 0.0
C323 C 0.01899 0.54808 0.77229 0.0
H324 H 0.04713 0.48001 0.60043 0.0
H325 H 0.04938 0.48426 0.64897 0.0
H326 H 0.05694 0.49255 0.73565 0.0
H327 H 0.99076 0.55371 0.9176 0.0
H328 H 0.99742 0.55799 0.8698 0.0
H329 H 0.00793 0.56333 0.78236 0.0
C330 C 0.00697 0.53311 0.6082 0.0
C331 C 0.0087 0.53583 0.63592 0.0
C332 C 0.01929 0.54734 0.74457 0.0
C333 C 0.02816 0.49895 0.90707 0.0
C334 C 0.03219 0.50165 0.87991 0.0
C335 C 0.04623 0.50901 0.77346 0.0
C336 C 0.0243 0.5185 0.65072 0.0
C337 C 0.02747 0.52209 0.67903 0.0
C338 C 0.0304 0.52473 0.70274 0.0
C339 C 0.0326 0.52713 0.73121 0.0
H340 H 0.99559 0.5472 0.59697 0.0
H341 H 0.99839 0.5518 0.64572 0.0
H342 H 0.00848 0.56205 0.73359 0.0
H343 H 0.03715 0.48254 0.91722 0.0
H344 H 0.04395 0.48718 0.86951 0.0
H345 H 0.05639 0.49385 0.78446 0.0
C346 C 0.0213 0.52299 0.8664 0.0
C347 C 0.0255 0.52567 0.83846 0.0
C348 C 0.02921 0.52763 0.81505 0.0
C349 C 0.03204 0.52863 0.78677 0.0
C350 C 0.11015 0.49721 0.02745 0.0
C351 C 0.09589 0.51433 0.01106 0.0
C352 C 0.1376 0.49524 0.0252 0.0
C353 C 0.24352 0.4836 0.01805 0.0
C354 C 0.4079 0.52466 0.99552 0.0
C355 C 0.42251 0.51067 0.0145 0.0
C356 C 0.38028 0.52223 0.99407 0.0
C357 C 0.27361 0.51386 0.98315 0.0
H358 H 0.10003 0.48524 0.04191 0.0
H359 H 0.14824 0.4818 0.0379 0.0
H360 H 0.23208 0.47209 0.03191 0.0
H361 H 0.41788 0.53727 0.98152 0.0
H362 H 0.36948 0.53298 0.97905 0.0
H363 H 0.28507 0.52594 0.96979 0.0
C364 C 0.10963 0.52997 0.99283 0.0
C365 C 0.13709 0.52767 0.99032 0.0
C366 C 0.2459 0.51477 0.98207 0.0
C367 C 0.40886 0.4948 0.03264 0.0
C368 C 0.38112 0.49213 0.03096 0.0
C369 C 0.27122 0.48268 0.01912 0.0
C370 C 0.15107 0.51005 0.00628 0.0
C371 C 0.1791 0.5067 0.00304 0.0
C372 C 0.20257 0.50334 0.00091 0.0
C373 C 0.23082 0.50008 -9e-05 0.0
H374 H 0.09904 0.54325 0.97993 0.0
H375 H 0.14731 0.53931 0.97567 0.0
H376 H 0.23631 0.52754 0.96791 0.0
H377 H 0.41964 0.48372 0.0474 0.0
H378 H 0.37091 0.47924 0.04456 0.0
H379 H 0.28081 0.47047 0.03378 0.0
C380 C 0.36684 0.50556 0.01138 0.0
C381 C 0.3385 0.50195 0.00849 0.0
C382 C 0.31479 0.49961 0.00524 0.0
C383 C 0.28635 0.49824 0.00206 0.0
C384 C 0.49605 0.40921 0.03423 0.0
C385 C 0.50998 0.42282 0.01457 0.0
C386 C 0.49334 0.38146 0.03289 0.0
C387 C 0.4829 0.2718 0.02266 0.0
C388 C 0.53053 0.11161 0.99162 0.0
C389 C 0.51804 0.09706 0.01145 0.0
C390 C 0.52581 0.13868 0.98916 0.0
C391 C 0.51056 0.24585 0.98253 0.0
H392 H 0.48653 0.42 0.05007 0.0
H393 H 0.48196 0.37128 0.04776 0.0
H394 H 0.47244 0.28165 0.0385 0.0
H395 H 0.54327 0.10188 0.97755 0.0
H396 H 0.53522 0.14958 0.97345 0.0
H397 H 0.52165 0.236 0.96716 0.0
C398 C 0.52207 0.40814 0.99432 0.0
C399 C 0.51956 0.38052 0.99316 0.0
C400 C 0.51009 0.27359 0.98356 0.0
C401 C 0.50115 0.10993 0.0291 0.0
C402 C 0.49683 0.13711 0.02695 0.0
C403 C 0.48337 0.24409 0.02163 0.0
C404 C 0.50477 0.36713 0.01209 0.0
C405 C 0.50103 0.33879 0.00963 0.0
C406 C 0.49846 0.31508 0.00674 0.0
C407 C 0.49667 0.28662 0.00394 0.0
H408 H 0.53324 0.41804 0.97913 0.0
H409 H 0.52877 0.36967 0.97715 0.0
H410 H 0.5208 0.28482 0.96894 0.0
H411 H 0.49137 0.09897 0.04454 0.0
H412 H 0.48392 0.14685 0.04084 0.0
H413 H 0.47331 0.23288 0.03671 0.0
C414 C 0.50894 0.15148 0.0068 0.0
C415 C 0.5044 0.1794 0.00449 0.0
C416 C 0.50054 0.2028 0.00261 0.0
C417 C 0.49759 0.23108 0.00185 0.0
C418 C 0.90676 0.49303 0.01803 0.0
C419 C 0.92146 0.51657 0.01396 0.0
C420 C 0.87952 0.49386 0.02244 0.0
C421 C 0.77353 0.49428 0.03849 0.0
C422 C 0.60998 0.5369 0.0188 0.0
C423 C 0.59565 0.51283 0.02024 0.0
C424 C 0.6375 0.53756 0.02283 0.0
C425 C 0.74517 0.54128 0.03482 0.0
H426 H 0.91633 0.47399 0.01821 0.0
H427 H 0.86857 0.47554 0.02582 0.0
H428 H 0.78431 0.47594 0.03954 0.0
H429 H 0.59984 0.5552 0.01483 0.0
H430 H 0.64827 0.55634 0.0219 0.0
H431 H 0.73436 0.55954 0.03303 0.0
C432 C 0.90821 0.54089 0.01379 0.0
C433 C 0.88096 0.54166 0.01818 0.0
C434 C 0.77288 0.54212 0.03421 0.0
C435 C 0.60912 0.48934 0.02536 0.0
C436 C 0.63672 0.48994 0.02897 0.0
C437 C 0.74582 0.49343 0.03909 0.0
C438 C 0.86663 0.51818 0.02279 0.0
C439 C 0.83871 0.51896 0.02787 0.0
C440 C 0.81531 0.51909 0.03218 0.0
C441 C 0.78708 0.51858 0.03559 0.0
H442 H 0.91893 0.55936 0.01058 0.0
H443 H 0.87115 0.56059 0.01821 0.0
H444 H 0.78315 0.56102 0.03195 0.0
H445 H 0.59836 0.47055 0.02615 0.0
H446 H 0.64693 0.47161 0.03259 0.0
H447 H 0.73553 0.47445 0.04062 0.0
C448 C 0.65094 0.51408 0.0279 0.0
C449 C 0.67931 0.51479 0.03168 0.0
C450 C 0.70307 0.51573 0.03479 0.0
C451 C 0.73157 0.51688 0.03681 0.0
C452 C 0.52988 0.6089 0.0333 0.0
C453 C 0.51324 0.59497 0.01493 0.0
C454 C 0.53329 0.63652 0.03156 0.0
C455 C 0.5471 0.74518 0.01936 0.0
C456 C 0.50556 0.90743 0.9918 0.0
C457 C 0.52237 0.92174 0.00973 0.0
C458 C 0.50678 0.87976 0.9899 0.0
C459 C 0.51499 0.77074 0.98226 0.0
H460 H 0.54111 0.59837 0.04815 0.0
H461 H 0.54689 0.64694 0.04525 0.0
H462 H 0.55933 0.73551 0.03405 0.0
H463 H 0.49203 0.91765 0.97875 0.0
H464 H 0.49417 0.86906 0.97551 0.0
H465 H 0.50222 0.78046 0.96807 0.0
C466 C 0.49913 0.60917 0.99575 0.0
C467 C 0.50223 0.63668 0.99429 0.0
C468 C 0.51464 0.74302 0.9832 0.0
C469 C 0.53963 0.90788 0.02644 0.0
C470 C 0.54056 0.88022 0.02478 0.0
C471 C 0.54744 0.77288 0.01842 0.0
C472 C 0.5198 0.65038 0.01174 0.0
C473 C 0.52438 0.67845 0.0086 0.0
C474 C 0.52762 0.70193 0.00529 0.0
C475 C 0.53026 0.7302 0.00216 0.0
H476 H 0.48598 0.59889 0.98156 0.0
H477 H 0.49142 0.64716 0.97909 0.0
H478 H 0.5016 0.73167 0.96972 0.0
H479 H 0.55241 0.91842 0.04078 0.0
H480 H 0.5541 0.86987 0.03773 0.0
H481 H 0.55993 0.78426 0.0324 0.0
C482 C 0.52454 0.86615 0.00616 0.0
C483 C 0.52682 0.83785 0.00337 0.0
C484 C 0.52906 0.81415 0.00138 0.0
C485 C 0.53095 0.78573 0.00026 0.0
loop_
_geom_bond_atom_site_label_1
_geom_bond_atom_site_label_2
_geom_bond_distance
_geom_bond_site_symmetry_2
_ccdc_geom_bond_type
Mg0 O7 2.141 1_455 S
Mg0 O8 2.048 . S
Mg0 O9 2.048 . S
Mg0 O12 2.141 1_545 S
C1 O2 1.313 . S
C1 O8 1.195 . S
O2 C1 1.313 . S
C3 O4 1.245 . S
C3 O12 1.289 . S
O4 C3 1.245 . S
C5 O6 1.245 . S
C5 O7 1.289 . S
O6 C5 1.245 . S
O7 Mg0 2.141 1_655 S
O7 C5 1.289 . S
O8 Mg0 2.048 . S
O8 C1 1.195 . S
O9 Mg0 2.048 . S
O9 C10 1.195 . S
C10 O9 1.195 . S
C10 O11 1.313 . S
O11 C10 1.313 . S
O12 Mg0 2.141 1_565 S
O12 C3 1.289 . S
Mg13 O20 2.141 1_554 S
Mg13 O21 2.048 . S
Mg13 O22 2.048 . S
Mg13 O25 2.141 1_545 S
C14 O15 1.313 . S
C14 O21 1.195 . S
O15 C14 1.313 . S
C16 O17 1.245 . S
C16 O25 1.289 . S
O17 C16 1.245 . S
C18 O19 1.245 . S
C18 O20 1.289 . S
O19 C18 1.245 . S
O20 Mg13 2.141 1_556 S
O20 C18 1.289 . S
O21 Mg13 2.048 . S
O21 C14 1.195 . S
O22 Mg13 2.048 . S
O22 C23 1.195 . S
C23 O22 1.195 . S
C23 O24 1.313 . S
O24 C23 1.313 . S
O25 Mg13 2.141 1_565 S
O25 C16 1.289 . S
Mg26 O33 2.141 1_554 S
Mg26 O34 2.048 . S
Mg26 O35 2.048 . S
Mg26 O38 2.141 1_455 S
C27 O28 1.313 . S
C27 O34 1.195 . S
O28 C27 1.313 . S
C29 O30 1.245 . S
C29 O38 1.289 . S
O30 C29 1.245 . S
C31 O32 1.245 . S
C31 O33 1.289 . S
O32 C31 1.245 . S
O33 Mg26 2.141 1_556 S
O33 C31 1.289 . S
O34 Mg26 2.048 . S
O34 C27 1.195 . S
O35 Mg26 2.048 . S
O35 C36 1.195 . S
C36 O35 1.195 . S
C36 O37 1.313 . S
O37 C36 1.313 . S
O38 Mg26 2.141 1_655 S
O38 C29 1.289 . S
Mg39 O46 2.141 . S
Mg39 O47 2.048 . S
Mg39 O48 2.048 . S
Mg39 O51 2.141 . S
C40 O41 1.313 1_554 S
C40 O47 1.195 . S
O41 C40 1.313 1_556 S
C42 O43 1.245 1_554 S
C42 O51 1.289 . S
O43 C42 1.245 1_556 S
C44 O45 1.245 1_554 S
C44 O46 1.289 . S
O45 C44 1.245 1_556 S
O46 Mg39 2.141 . S
O46 C44 1.289 . S
O47 Mg39 2.048 . S
O47 C40 1.195 . S
O48 Mg39 2.048 . S
O48 C49 1.195 . S
C49 O48 1.195 . S
C49 O50 1.313 1_554 S
O50 C49 1.313 1_556 S
O51 Mg39 2.141 . S
O51 C42 1.289 . S
Mg52 O59 2.141 . S
Mg52 O60 2.048 . S
Mg52 O61 2.048 . S
Mg52 O64 2.141 . S
C53 O54 1.313 . S
C53 O60 1.195 . S
O54 C53 1.313 . S
C55 O56 1.245 . S
C55 O64 1.289 . S
O56 C55 1.245 . S
C57 O58 1.245 . S
C57 O59 1.289 . S
O58 C57 1.245 . S
O59 Mg52 2.141 . S
O59 C57 1.289 . S
O60 Mg52 2.048 . S
O60 C53 1.195 . S
O61 Mg52 2.048 . S
O61 C62 1.195 . S
C62 O61 1.195 . S
C62 O63 1.313 . S
O63 C62 1.313 . S
O64 Mg52 2.141 . S
O64 C55 1.289 . S
Mg65 O72 2.141 . S
Mg65 O73 2.048 . S
Mg65 O74 2.048 . S
Mg65 O77 2.141 . S
C66 O67 1.313 1_545 S
C66 O73 1.195 . S
O67 C66 1.313 1_565 S
C68 O69 1.245 1_545 S
C68 O77 1.289 . S
O69 C68 1.245 1_565 S
C70 O71 1.245 1_545 S
C70 O72 1.289 . S
O71 C70 1.245 1_565 S
O72 Mg65 2.141 . S
O72 C70 1.289 . S
O73 Mg65 2.048 . S
O73 C66 1.195 . S
O74 Mg65 2.048 . S
O74 C75 1.195 . S
C75 O74 1.195 . S
C75 O76 1.313 1_545 S
O76 C75 1.313 1_565 S
O77 Mg65 2.141 . S
O77 C68 1.289 . S
C78 C79 1.420 . S
C78 C80 1.385 . S
C78 H86 0.928 . S
C79 C78 1.420 . S
C79 C92 1.405 1_455 S
C80 C78 1.385 . S
C80 H87 0.929 . S
C80 C98 1.407 . S
C81 H88 0.928 . S
C81 C97 1.374 . S
C81 C101 1.388 . S
C82 C83 1.420 . S
C82 C84 1.385 . S
C82 H89 0.928 1_455 S
C83 C82 1.420 . S
C83 C95 1.420 . S
C84 C82 1.385 . S
C84 H90 0.929 1_455 S
C84 C108 1.407 . S
C85 H91 0.928 . S
C85 C94 1.374 . S
C85 C111 1.388 . S
H86 C78 0.928 . S
H87 C80 0.929 . S
H88 C81 0.928 . S
H89 C82 0.928 1_655 S
H90 C84 0.929 1_655 S
H91 C85 0.928 . S
C92 C79 1.405 1_655 S
C92 C93 1.382 1_655 S
C92 H102 0.947 . S
C93 C92 1.382 1_455 S
C93 C98 1.407 . S
C93 H103 0.929 1_455 S
C94 C85 1.374 . S
C94 C101 1.388 . S
C94 H104 0.928 . S
C95 C83 1.420 . S
C95 C96 1.385 . S
C95 H105 0.928 . S
C96 C95 1.385 . S
C96 H106 0.929 . S
C96 C108 1.407 . S
C97 C81 1.374 . S
C97 H107 0.928 . S
C97 C111 1.388 . S
C98 C80 1.407 . S
C98 C93 1.407 . S
C98 C99 1.428 . S
C99 C98 1.428 . S
C99 C100 1.230 . S
C100 C99 1.230 . S
C100 C101 1.405 . S
C101 C81 1.388 . S
C101 C94 1.388 . S
C101 C100 1.405 . S
H102 C92 0.947 . S
H103 C93 0.929 1_655 S
H104 C94 0.928 . S
H105 C95 0.928 . S
H106 C96 0.929 . S
H107 C97 0.928 . S
C108 C84 1.407 . S
C108 C96 1.407 . S
C108 C109 1.428 . S
C109 C108 1.428 . S
C109 C110 1.230 . S
C110 C109 1.230 . S
C110 C111 1.405 . S
C111 C85 1.388 . S
C111 C97 1.388 . S
C111 C110 1.405 . S
C112 C113 1.420 . S
C112 C114 1.385 . S
C112 H120 0.928 . S
C113 C112 1.420 . S
C113 C126 1.420 1_545 S
C114 C112 1.385 . S
C114 H121 0.929 . S
C114 C132 1.407 . S
C115 H122 0.928 . S
C115 C131 1.374 . S
C115 C135 1.388 . S
C116 C117 1.420 1_565 S
C116 C118 1.385 . S
C116 H123 0.928 . S
C117 C116 1.420 1_545 S
C117 C129 1.420 . S
C118 C116 1.385 . S
C118 H124 0.929 . S
C118 C142 1.407 1_565 S
C119 H125 0.928 . S
C119 C128 1.374 . S
C119 C145 1.388 1_565 S
H120 C112 0.928 . S
H121 C114 0.929 . S
H122 C115 0.928 . S
H123 C116 0.928 . S
H124 C118 0.929 . S
H125 C119 0.928 . S
C126 C113 1.420 1_565 S
C126 C127 1.385 . S
C126 H136 0.928 . S
C127 C126 1.385 . S
C127 C132 1.407 1_565 S
C127 H137 0.929 . S
C128 C119 1.374 . S
C128 C135 1.388 1_565 S
C128 H138 0.928 . S
C129 C117 1.420 . S
C129 C130 1.385 . S
C129 H139 0.928 . S
C130 C129 1.385 . S
C130 H140 0.929 . S
C130 C142 1.407 . S
C131 C115 1.374 . S
C131 H141 0.928 . S
C131 C145 1.388 . S
C132 C114 1.407 . S
C132 C127 1.407 1_545 S
C132 C133 1.428 . S
C133 C132 1.428 . S
C133 C134 1.230 . S
C134 C133 1.230 . S
C134 C135 1.405 . S
C135 C115 1.388 . S
C135 C128 1.388 1_545 S
C135 C134 1.405 . S
H136 C126 0.928 . S
H137 C127 0.929 . S
H138 C128 0.928 . S
H139 C129 0.928 . S
H140 C130 0.929 . S
H141 C131 0.928 . S
C142 C118 1.407 1_545 S
C142 C130 1.407 . S
C142 C143 1.428 . S
C143 C142 1.428 . S
C143 C144 1.230 . S
C144 C143 1.230 . S
C144 C145 1.405 . S
C145 C119 1.388 1_545 S
C145 C131 1.388 . S
C145 C144 1.405 . S
C146 C147 1.420 . S
C146 C148 1.385 . S
C146 H154 0.928 . S
C147 C146 1.420 . S
C147 C160 1.420 . S
C148 C146 1.385 . S
C148 H155 0.929 . S
C148 C166 1.407 . S
C149 H156 0.928 . S
C149 C165 1.374 . S
C149 C169 1.388 . S
C150 C151 1.439 . S
C150 C152 1.392 . S
C150 H157 0.905 1_455 S
C151 C150 1.439 . S
C151 C163 1.420 . S
C152 C150 1.392 . S
C152 H158 0.929 1_455 S
C152 C176 1.407 . S
C153 H159 0.928 . S
C153 C162 1.374 . S
C153 C179 1.388 . S
H154 C146 0.928 . S
H155 C148 0.929 . S
H156 C149 0.928 . S
H157 C150 0.905 1_655 S
H158 C152 0.929 1_655 S
H159 C153 0.928 . S
C160 C147 1.420 . S
C160 C161 1.385 . S
C160 H170 0.928 1_455 S
C161 C160 1.385 . S
C161 C166 1.407 . S
C161 H171 0.937 . S
C162 C153 1.374 . S
C162 C169 1.388 . S
C162 H172 0.928 . S
C163 C151 1.420 . S
C163 C164 1.385 . S
C163 H173 0.928 . S
C164 C163 1.385 . S
C164 H174 0.929 . S
C164 C176 1.407 . S
C165 C149 1.374 . S
C165 H175 0.928 . S
C165 C179 1.388 . S
C166 C148 1.407 . S
C166 C161 1.407 . S
C166 C167 1.428 . S
C167 C166 1.428 . S
C167 C168 1.230 . S
C168 C167 1.230 . S
C168 C169 1.405 . S
C169 C149 1.388 . S
C169 C162 1.388 . S
C169 C168 1.405 . S
H170 C160 0.928 1_655 S
H171 C161 0.937 . S
H172 C162 0.928 . S
H173 C163 0.928 . S
H174 C164 0.929 . S
H175 C165 0.928 . S
C176 C152 1.407 . S
C176 C164 1.407 . S
C176 C177 1.428 . S
C177 C176 1.428 . S
C177 C178 1.230 . S
C178 C177 1.230 . S
C178 C179 1.405 . S
C179 C153 1.388 . S
C179 C165 1.388 . S
C179 C178 1.405 . S
C180 C181 1.420 1_565 S
C180 C182 1.387 . S
C180 H188 0.928 . S
C181 C180 1.420 1_545 S
C181 C194 1.420 . S
C182 C180 1.387 . S
C182 H189 0.955 . S
C182 C200 1.380 1_565 S
C183 H190 0.928 1_545 S
C183 C199 1.374 . S
C183 C203 1.388 . S
C184 C185 1.420 . S
C184 C186 1.385 . S
C184 H191 0.928 . S
C185 C184 1.420 . S
C185 C197 1.420 1_545 S
C186 C184 1.385 . S
C186 H192 0.929 . S
C186 C210 1.407 . S
C187 H193 0.928 . S
C187 C196 1.374 . S
C187 C213 1.388 . S
H188 C180 0.928 . S
H189 C182 0.955 . S
H190 C183 0.928 1_565 S
H191 C184 0.928 . S
H192 C186 0.929 . S
H193 C187 0.928 . S
C194 C181 1.420 . S
C194 C195 1.385 . S
C194 H204 0.928 . S
C195 C194 1.385 . S
C195 C200 1.407 . S
C195 H205 0.929 . S
C196 C187 1.374 . S
C196 C203 1.388 . S
C196 H206 0.928 . S
C197 C185 1.420 1_565 S
C197 C198 1.385 . S
C197 H207 0.928 . S
C198 C197 1.385 . S
C198 H208 0.929 . S
C198 C210 1.407 1_565 S
C199 C183 1.374 . S
C199 H209 0.928 1_545 S
C199 C213 1.388 . S
C200 C182 1.380 1_545 S
C200 C195 1.407 . S
C200 C201 1.428 . S
C201 C200 1.428 . S
C201 C202 1.230 . S
C202 C201 1.230 . S
C202 C203 1.405 . S
C203 C183 1.388 . S
C203 C196 1.388 . S
C203 C202 1.405 . S
H204 C194 0.928 . S
H205 C195 0.929 . S
H206 C196 0.928 . S
H207 C197 0.928 . S
H208 C198 0.929 . S
H209 C199 0.928 1_565 S
C210 C186 1.407 . S
C210 C198 1.407 1_545 S
C210 C211 1.428 . S
C211 C210 1.428 . S
C211 C212 1.230 . S
C212 C211 1.230 . S
C212 C213 1.405 . S
C213 C187 1.388 . S
C213 C199 1.388 . S
C213 C212 1.405 . S
C214 C215 1.420 . S
C214 C216 1.385 . S
C214 H222 0.928 . S
C215 C214 1.420 . S
C215 C228 1.420 1_545 S
C216 C214 1.385 . S
C216 H223 0.929 . S
C216 C234 1.407 . S
C217 H224 0.928 . S
C217 C233 1.374 . S
C217 C237 1.388 . S
C218 C219 1.420 1_565 S
C218 C220 1.385 . S
C218 H225 0.928 . S
C219 C218 1.420 1_545 S
C219 C231 1.420 . S
C220 C218 1.385 . S
C220 H226 0.929 . S
C220 C244 1.407 1_565 S
C221 H227 0.928 . S
C221 C230 1.374 . S
C221 C247 1.388 1_565 S
H222 C214 0.928 . S
H223 C216 0.929 . S
H224 C217 0.928 . S
H225 C218 0.928 . S
H226 C220 0.929 . S
H227 C221 0.928 . S
C228 C215 1.420 1_565 S
C228 C229 1.385 . S
C228 H238 0.928 . S
C229 C228 1.385 . S
C229 C234 1.407 1_565 S
C229 H239 0.929 . S
C230 C221 1.374 . S
C230 C237 1.388 1_565 S
C230 H240 0.928 . S
C231 C219 1.420 . S
C231 C232 1.385 . S
C231 H241 0.928 . S
C232 C231 1.385 . S
C232 H242 0.929 . S
C232 C244 1.407 . S
C233 C217 1.374 . S
C233 H243 0.928 . S
C233 C247 1.388 . S
C234 C216 1.407 . S
C234 C229 1.407 1_545 S
C234 C235 1.428 . S
C235 C234 1.428 . S
C235 C236 1.230 . S
C236 C235 1.230 . S
C236 C237 1.405 . S
C237 C217 1.388 . S
C237 C230 1.388 1_545 S
C237 C236 1.405 . S
H238 C228 0.928 . S
H239 C229 0.929 . S
H240 C230 0.928 . S
H241 C231 0.928 . S
H242 C232 0.929 . S
H243 C233 0.928 . S
C244 C220 1.407 1_545 S
C244 C232 1.407 . S
C244 C245 1.428 . S
C245 C244 1.428 . S
C245 C246 1.230 . S
C246 C245 1.230 . S
C246 C247 1.405 . S
C247 C221 1.388 1_545 S
C247 C233 1.388 . S
C247 C246 1.405 . S
C248 C249 1.420 . S
C248 C250 1.385 . S
C248 H256 0.928 . S
C249 C248 1.420 . S
C249 C262 1.420 . S
C250 C248 1.385 . S
C250 H257 0.929 . S
C250 C268 1.407 . S
C251 H258 0.928 . S
C251 C267 1.374 . S
C251 C271 1.388 . S
C252 C253 1.420 . S
C252 C254 1.385 . S
C252 H259 0.911 1_455 S
C253 C252 1.420 . S
C253 C265 1.420 . S
C254 C252 1.385 . S
C254 H260 0.929 . S
C254 C278 1.407 . S
C255 H261 0.928 . S
C255 C264 1.374 . S
C255 C281 1.388 . S
H256 C248 0.928 . S
H257 C250 0.929 . S
H258 C251 0.928 . S
H259 C252 0.911 1_655 S
H260 C254 0.929 . S
H261 C255 0.928 . S
C262 C249 1.420 . S
C262 C263 1.385 . S
C262 H272 0.928 1_455 S
C263 C262 1.385 . S
C263 C268 1.407 . S
C263 H273 0.929 1_455 S
C264 C255 1.374 . S
C264 C271 1.388 . S
C264 H274 0.928 . S
C265 C253 1.420 . S
C265 C266 1.385 . S
C265 H275 0.928 . S
C266 C265 1.385 . S
C266 H276 0.929 . S
C266 C278 1.407 . S
C267 C251 1.374 . S
C267 H277 0.928 . S
C267 C281 1.388 . S
C268 C250 1.407 . S
C268 C263 1.407 . S
C268 C269 1.428 . S
C269 C268 1.428 . S
C269 C270 1.230 . S
C270 C269 1.230 . S
C270 C271 1.405 . S
C271 C251 1.388 . S
C271 C264 1.388 . S
C271 C270 1.405 . S
H272 C262 0.928 1_655 S
H273 C263 0.929 1_655 S
H274 C264 0.928 . S
H275 C265 0.928 . S
H276 C266 0.929 . S
H277 C267 0.928 . S
C278 C254 1.407 . S
C278 C266 1.407 . S
C278 C279 1.428 . S
C279 C278 1.428 . S
C279 C280 1.230 . S
C280 C279 1.230 . S
C280 C281 1.405 . S
C281 C255 1.388 . S
C281 C267 1.388 . S
C281 C280 1.405 . S
C282 C283 1.420 . S
C282 C284 1.385 . S
C282 H290 0.928 1_545 S
C283 C282 1.420 . S
C283 C296 1.420 . S
C284 C282 1.385 . S
C284 H291 0.929 1_545 S
C284 C302 1.407 . S
C285 H292 0.928 1_545 S
C285 C301 1.374 . S
C285 C305 1.388 . S
C286 C287 1.420 . S
C286 C288 1.385 . S
C286 H293 0.928 . S
C287 C286 1.420 . S
C287 C299 1.420 1_545 S
C288 C286 1.385 . S
C288 H294 0.929 . S
C288 C312 1.407 . S
C289 H295 0.928 . S
C289 C298 1.374 . S
C289 C315 1.388 . S
H290 C282 0.928 1_565 S
H291 C284 0.929 1_565 S
H292 C285 0.928 1_565 S
H293 C286 0.928 . S
H294 C288 0.929 . S
H295 C289 0.928 . S
C296 C283 1.420 . S
C296 C297 1.385 . S
C296 H306 0.928 . S
C297 C296 1.385 . S
C297 C302 1.407 . S
C297 H307 0.929 . S
C298 C289 1.374 . S
C298 C305 1.388 . S
C298 H308 0.928 . S
C299 C287 1.420 1_565 S
C299 C300 1.385 . S
C299 H309 0.928 . S
C300 C299 1.385 . S
C300 H310 0.929 . S
C300 C312 1.407 1_565 S
C301 C285 1.374 . S
C301 H311 0.928 1_545 S
C301 C315 1.388 . S
C302 C284 1.407 . S
C302 C297 1.407 . S
C302 C303 1.428 . S
C303 C302 1.428 . S
C303 C304 1.230 . S
C304 C303 1.230 . S
C304 C305 1.405 . S
C305 C285 1.388 . S
C305 C298 1.388 . S
C305 C304 1.405 . S
H306 C296 0.928 . S
H307 C297 0.929 . S
H308 C298 0.928 . S
H309 C299 0.928 . S
H310 C300 0.929 . S
H311 C301 0.928 1_565 S
C312 C288 1.407 . S
C312 C300 1.407 1_545 S
C312 C313 1.428 . S
C313 C312 1.428 . S
C313 C314 1.230 . S
C314 C313 1.230 . S
C314 C315 1.405 . S
C315 C289 1.388 . S
C315 C301 1.388 . S
C315 C314 1.405 . S
C316 C317 1.420 . S
C316 C318 1.385 . S
C316 H324 0.928 . S
C317 C316 1.420 . S
C317 C330 1.420 . S
C318 C316 1.385 . S
C318 H325 0.929 . S
C318 C336 1.407 . S
C319 H326 0.928 . S
C319 C335 1.374 . S
C319 C339 1.388 . S
C320 C321 1.420 . S
C320 C322 1.385 . S
C320 H327 0.928 1_455 S
C321 C320 1.420 . S
C321 C333 1.420 . S
C322 C320 1.385 . S
C322 H328 0.929 1_455 S
C322 C346 1.407 . S
C323 H329 0.928 . S
C323 C332 1.374 . S
C323 C349 1.388 . S
H324 C316 0.928 . S
H325 C318 0.929 . S
H326 C319 0.928 . S
H327 C320 0.928 1_655 S
H328 C322 0.929 1_655 S
H329 C323 0.928 . S
C330 C317 1.420 . S
C330 C331 1.385 . S
C330 H340 0.928 1_455 S
C331 C330 1.385 . S
C331 C336 1.407 . S
C331 H341 0.929 . S
C332 C323 1.374 . S
C332 C339 1.388 . S
C332 H342 0.928 . S
C333 C321 1.420 . S
C333 C334 1.385 . S
C333 H343 0.928 . S
C334 C333 1.385 . S
C334 H344 0.929 . S
C334 C346 1.407 . S
C335 C319 1.374 . S
C335 H345 0.928 . S
C335 C349 1.388 . S
C336 C318 1.407 . S
C336 C331 1.407 . S
C336 C337 1.428 . S
C337 C336 1.428 . S
C337 C338 1.230 . S
C338 C337 1.230 . S
C338 C339 1.405 . S
C339 C319 1.388 . S
C339 C332 1.388 . S
C339 C338 1.405 . S
H340 C330 0.928 1_655 S
H341 C331 0.929 . S
H342 C332 0.928 . S
H343 C333 0.928 . S
H344 C334 0.929 . S
H345 C335 0.928 . S
C346 C322 1.407 . S
C346 C334 1.407 . S
C346 C347 1.428 . S
C347 C346 1.428 . S
C347 C348 1.230 . S
C348 C347 1.230 . S
C348 C349 1.405 . S
C349 C323 1.388 . S
C349 C335 1.388 . S
C349 C348 1.405 . S
C350 C351 1.420 . S
C350 C352 1.385 . S
C350 H358 0.928 . S
C351 C350 1.420 . S
C351 C364 1.420 1_554 S
C352 C350 1.385 . S
C352 H359 0.929 . S
C352 C370 1.407 . S
C353 H360 0.928 . S
C353 C369 1.374 . S
C353 C373 1.388 . S
C354 C355 1.420 1_556 S
C354 C356 1.385 . S
C354 H361 0.928 . S
C355 C354 1.420 1_554 S
C355 C367 1.420 . S
C356 C354 1.385 . S
C356 H362 0.929 . S
C356 C380 1.407 1_556 S
C357 H363 0.928 . S
C357 C366 1.374 . S
C357 C383 1.388 1_556 S
H358 C350 0.928 . S
H359 C352 0.929 . S
H360 C353 0.928 . S
H361 C354 0.928 . S
H362 C356 0.929 . S
H363 C357 0.928 . S
C364 C351 1.420 1_556 S
C364 C365 1.385 . S
C364 H374 0.928 . S
C365 C364 1.385 . S
C365 C370 1.407 1_556 S
C365 H375 0.929 . S
C366 C357 1.374 . S
C366 C373 1.388 1_556 S
C366 H376 0.928 . S
C367 C355 1.420 . S
C367 C368 1.385 . S
C367 H377 0.928 . S
C368 C367 1.385 . S
C368 H378 0.929 . S
C368 C380 1.407 . S
C369 C353 1.374 . S
C369 H379 0.928 . S
C369 C383 1.388 . S
C370 C352 1.407 . S
C370 C365 1.407 1_554 S
C370 C371 1.428 . S
C371 C370 1.428 . S
C371 C372 1.230 . S
C372 C371 1.230 . S
C372 C373 1.405 . S
C373 C353 1.388 . S
C373 C366 1.388 1_554 S
C373 C372 1.405 . S
H374 C364 0.928 . S
H375 C365 0.929 . S
H376 C366 0.928 . S
H377 C367 0.928 . S
H378 C368 0.929 . S
H379 C369 0.928 . S
C380 C356 1.407 1_554 S
C380 C368 1.407 . S
C380 C381 1.428 . S
C381 C380 1.428 . S
C381 C382 1.230 . S
C382 C381 1.230 . S
C382 C383 1.405 . S
C383 C357 1.388 1_554 S
C383 C369 1.388 . S
C383 C382 1.405 . S
C384 C385 1.420 . S
C384 C386 1.385 . S
C384 H392 0.928 . S
C385 C384 1.420 . S
C385 C398 1.420 1_554 S
C386 C384 1.385 . S
C386 H393 0.929 . S
C386 C404 1.407 . S
C387 H394 0.928 . S
C387 C403 1.374 . S
C387 C407 1.388 . S
C388 C389 1.420 1_556 S
C388 C390 1.385 . S
C388 H395 0.928 . S
C389 C388 1.420 1_554 S
C389 C401 1.420 . S
C390 C388 1.385 . S
C390 H396 0.929 . S
C390 C414 1.407 1_556 S
C391 H397 0.928 . S
C391 C400 1.374 . S
C391 C417 1.388 1_556 S
H392 C384 0.928 . S
H393 C386 0.929 . S
H394 C387 0.928 . S
H395 C388 0.928 . S
H396 C390 0.929 . S
H397 C391 0.928 . S
C398 C385 1.420 1_556 S
C398 C399 1.385 . S
C398 H408 0.928 . S
C399 C398 1.385 . S
C399 C404 1.407 1_556 S
C399 H409 0.929 . S
C400 C391 1.374 . S
C400 C407 1.388 1_556 S
C400 H410 0.928 . S
C401 C389 1.420 . S
C401 C402 1.385 . S
C401 H411 0.928 . S
C402 C401 1.385 . S
C402 H412 0.929 . S
C402 C414 1.407 . S
C403 C387 1.374 . S
C403 H413 0.928 . S
C403 C417 1.388 . S
C404 C386 1.407 . S
C404 C399 1.407 1_554 S
C404 C405 1.428 . S
C405 C404 1.428 . S
C405 C406 1.230 . S
C406 C405 1.230 . S
C406 C407 1.405 . S
C407 C387 1.388 . S
C407 C400 1.388 1_554 S
C407 C406 1.405 . S
H408 C398 0.928 . S
H409 C399 0.929 . S
H410 C400 0.928 . S
H411 C401 0.928 . S
H412 C402 0.929 . S
H413 C403 0.928 . S
C414 C390 1.407 1_554 S
C414 C402 1.407 . S
C414 C415 1.428 . S
C415 C414 1.428 . S
C415 C416 1.230 . S
C416 C415 1.230 . S
C416 C417 1.405 . S
C417 C391 1.388 1_554 S
C417 C403 1.388 . S
C417 C416 1.405 . S
C418 C419 1.420 . S
C418 C420 1.385 . S
C418 H426 0.928 . S
C419 C418 1.420 . S
C419 C432 1.420 . S
C420 C418 1.385 . S
C420 H427 0.929 . S
C420 C438 1.407 . S
C421 H428 0.928 . S
C421 C437 1.374 . S
C421 C441 1.388 . S
C422 C423 1.420 . S
C422 C424 1.385 . S
C422 H429 0.928 . S
C423 C422 1.420 . S
C423 C435 1.420 . S
C424 C422 1.385 . S
C424 H430 0.929 . S
C424 C448 1.407 . S
C425 H431 0.928 . S
C425 C434 1.374 . S
C425 C451 1.388 . S
H426 C418 0.928 . S
H427 C420 0.929 . S
H428 C421 0.928 . S
H429 C422 0.928 . S
H430 C424 0.929 . S
H431 C425 0.928 . S
C432 C419 1.420 . S
C432 C433 1.385 . S
C432 H442 0.928 . S
C433 C432 1.385 . S
C433 C438 1.407 . S
C433 H443 0.929 . S
C434 C425 1.374 . S
C434 C441 1.388 . S
C434 H444 0.928 . S
C435 C423 1.420 . S
C435 C436 1.385 . S
C435 H445 0.928 . S
C436 C435 1.385 . S
C436 H446 0.929 . S
C436 C448 1.407 . S
C437 C421 1.374 . S
C437 H447 0.928 . S
C437 C451 1.388 . S
C438 C420 1.407 . S
C438 C433 1.407 . S
C438 C439 1.428 . S
C439 C438 1.428 . S
C439 C440 1.230 . S
C440 C439 1.230 . S
C440 C441 1.405 . S
C441 C421 1.388 . S
C441 C434 1.388 . S
C441 C440 1.405 . S
H442 C432 0.928 . S
H443 C433 0.929 . S
H444 C434 0.928 . S
H445 C435 0.928 . S
H446 C436 0.929 . S
H447 C437 0.928 . S
C448 C424 1.407 . S
C448 C436 1.407 . S
C448 C449 1.428 . S
C449 C448 1.428 . S
C449 C450 1.230 . S
C450 C449 1.230 . S
C450 C451 1.405 . S
C451 C425 1.388 . S
C451 C437 1.388 . S
C451 C450 1.405 . S
C452 C453 1.420 . S
C452 C454 1.385 . S
C452 H460 0.928 . S
C453 C452 1.420 . S
C453 C466 1.420 1_554 S
C454 C452 1.385 . S
C454 H461 0.929 . S
C454 C472 1.407 . S
C455 H462 0.928 . S
C455 C471 1.374 . S
C455 C475 1.388 . S
C456 C457 1.420 1_556 S
C456 C458 1.385 . S
C456 H463 0.928 . S
C457 C456 1.420 1_554 S
C457 C469 1.420 . S
C458 C456 1.385 . S
C458 H464 0.929 . S
C458 C482 1.407 1_556 S
C459 H465 0.928 . S
C459 C468 1.374 . S
C459 C485 1.388 1_556 S
H460 C452 0.928 . S
H461 C454 0.929 . S
H462 C455 0.928 . S
H463 C456 0.928 . S
H464 C458 0.929 . S
H465 C459 0.928 . S
C466 C453 1.420 1_556 S
C466 C467 1.385 . S
C466 H476 0.928 . S
C467 C466 1.385 . S
C467 C472 1.407 1_556 S
C467 H477 0.929 . S
C468 C459 1.374 . S
C468 C475 1.388 1_556 S
C468 H478 0.928 . S
C469 C457 1.420 . S
C469 C470 1.385 . S
C469 H479 0.928 . S
C470 C469 1.385 . S
C470 H480 0.929 . S
C470 C482 1.407 . S
C471 C455 1.374 . S
C471 H481 0.928 . S
C471 C485 1.388 . S
C472 C454 1.407 . S
C472 C467 1.407 1_554 S
C472 C473 1.428 . S
C473 C472 1.428 . S
C473 C474 1.230 . S
C474 C473 1.230 . S
C474 C475 1.405 . S
C475 C455 1.388 . S
C475 C468 1.388 1_554 S
C475 C474 1.405 . S
H476 C466 0.928 . S
H477 C467 0.929 . S
H478 C468 0.928 . S
H479 C469 0.928 . S
H480 C470 0.929 . S
H481 C471 0.928 . S
C482 C458 1.407 1_554 S
C482 C470 1.407 . S
C482 C483 1.428 . S
C483 C482 1.428 . S
C483 C484 1.230 . S
C484 C483 1.230 . S
C484 C485 1.405 . S
C485 C459 1.388 1_554 S
C485 C471 1.388 . S
C485 C484 1.405 . S
C79 C1 1.488 . S
C83 C55 1.487 . S
C113 C5 1.482 . S
C117 C66 1.492 . S
C147 C53 1.493 . S
C151 C3 1.485 . S
C181 C68 1.492 . S
C185 C10 1.496 . S
C215 C70 1.485 . S
C219 C23 1.493 . S
C249 C36 1.494 . S
C253 C57 1.488 . S
C283 C75 1.494 . S
C287 C18 1.488 . S
C317 C62 1.491 . S
C321 C31 1.493 . S
C351 C27 1.490 . S
C355 C44 1.483 . S
C385 C42 1.484 . S
C389 C14 1.500 . S
C419 C29 1.490 . S
C423 C49 1.497 . S
C453 C40 1.488 . S
C457 C16 1.487 . S
