# Generated by pormake.
# Topology snk, (6)-cn, num edge types: 1
# Building blocks:
#     Node 0, Type 0, BuildingBlock: BETGAK_clean_sbu_0, # of connection points: 6
#     Node 1, Type 0, BuildingBlock: BETGAK_clean_sbu_0, # of connection points: 6
#     Node 2, Type 0, BuildingBlock: BETGAK_clean_sbu_0, # of connection points: 6
#     Node 3, Type 0, BuildingBlock: BETGAK_clean_sbu_0, # of connection points: 6
#     Node 4, Type 0, BuildingBlock: BETGAK_clean_sbu_0, # of connection points: 6
#     Node 5, Type 0, BuildingBlock: BETGAK_clean_sbu_0, # of connection points: 6
#     Node 6, Type 0, BuildingBlock: BETGAK_clean_sbu_0, # of connection points: 6
#     Node 7, Type 0, BuildingBlock: BETGAK_clean_sbu_0, # of connection points: 6
#     Edge 8, Type (0, 0), BuildingBlock: AJUNOK_clean_linker_0, # of connection points: 2
#     Edge 9, Type (0, 0), BuildingBlock: AJUNOK_clean_linker_0, # of connection points: 2
#     Edge 10, Type (0, 0), BuildingBlock: AJUNOK_clean_linker_0, # of connection points: 2
#     Edge 11, Type (0, 0), BuildingBlock: AJUNOK_clean_linker_0, # of connection points: 2
#     Edge 12, Type (0, 0), BuildingBlock: AJUNOK_clean_linker_0, # of connection points: 2
#     Edge 13, Type (0, 0), BuildingBlock: AJUNOK_clean_linker_0, # of connection points: 2
#     Edge 14, Type (0, 0), BuildingBlock: AJUNOK_clean_linker_0, # of connection points: 2
#     Edge 15, Type (0, 0), BuildingBlock: AJUNOK_clean_linker_0, # of connection points: 2
#     Edge 16, Type (0, 0), BuildingBlock: AJUNOK_clean_linker_0, # of connection points: 2
#     Edge 17, Type (0, 0), BuildingBlock: AJUNOK_clean_linker_0, # of connection points: 2
#     Edge 18, Type (0, 0), BuildingBlock: AJUNOK_clean_linker_0, # of connection points: 2
#     Edge 19, Type (0, 0), BuildingBlock: AJUNOK_clean_linker_0, # of connection points: 2
#     Edge 20, Type (0, 0), BuildingBlock: AJUNOK_clean_linker_0, # of connection points: 2
#     Edge 21, Type (0, 0), BuildingBlock: AJUNOK_clean_linker_0, # of connection points: 2
#     Edge 22, Type (0, 0), BuildingBlock: AJUNOK_clean_linker_0, # of connection points: 2
#     Edge 23, Type (0, 0), BuildingBlock: AJUNOK_clean_linker_0, # of connection points: 2
#     Edge 24, Type (0, 0), BuildingBlock: AJUNOK_clean_linker_0, # of connection points: 2
#     Edge 25, Type (0, 0), BuildingBlock: AJUNOK_clean_linker_0, # of connection points: 2
#     Edge 26, Type (0, 0), BuildingBlock: AJUNOK_clean_linker_0, # of connection points: 2
#     Edge 27, Type (0, 0), BuildingBlock: AJUNOK_clean_linker_0, # of connection points: 2
#     Edge 28, Type (0, 0), BuildingBlock: AJUNOK_clean_linker_0, # of connection points: 2
#     Edge 29, Type (0, 0), BuildingBlock: AJUNOK_clean_linker_0, # of connection points: 2
#     Edge 30, Type (0, 0), BuildingBlock: AJUNOK_clean_linker_0, # of connection points: 2
#     Edge 31, Type (0, 0), BuildingBlock: AJUNOK_clean_linker_0, # of connection points: 2
# Relax obj value: 0.122
# Max RMSD: 0.192
# Mean RMSD: 0.150
data_MOF--net-snk--node1-BETGAK_clean_sbu_0--edge1-AJUNOK_clean_linker_0
_symmetry_space_group_name_H-M    P1
_symmetry_Int_Tables_number       1
_symmetry_cell_setting            triclinic
loop_
_symmetry_equiv_pos_as_xyz
'x, y, z'
_cell_length_a     26.375561
_cell_length_b     26.340743
_cell_length_c     20.844153
_cell_angle_alpha  84.034373
_cell_angle_beta   96.248936
_cell_angle_gamma 89.398912
loop_
_atom_site_label
_atom_site_type_symbol
_atom_site_fract_x
_atom_site_fract_y
_atom_site_fract_z
_atom_type_partial_charge
La0 La 1.00471 0.99015 0.47848 0.0
La1 La 0.04609 0.04243 0.59506 0.0
C2 C 0.97091 0.96521 0.36832 0.0
C3 C 0.97935 0.97838 0.30003 0.0
C4 C 0.97105 0.94131 0.25665 0.0
C5 C 0.98089 0.95174 0.19213 0.0
C6 C 0.99903 0.99959 0.16976 0.0
C7 C 1.00714 0.03686 0.21332 0.0
C8 C 0.99742 0.02633 0.27804 0.0
C9 C 0.06926 0.9353 0.56429 0.0
C10 C 0.09424 0.06998 0.46783 0.0
C11 C 0.08212 0.06464 0.7057 0.0
C12 C 0.07133 0.05351 0.77354 0.0
C13 C 0.07779 0.09204 0.81512 0.0
C14 C 0.06589 0.08349 0.879 0.0
C15 C 0.04696 0.03624 0.90241 0.0
C16 C 0.04137 0.99729 0.86095 0.0
C17 C 0.05341 1.00586 0.79697 0.0
C18 C 0.97902 0.09668 0.5115 0.0
C19 C 0.95424 0.96389 0.60488 0.0
O20 O 1.00909 0.94178 0.40528 0.0
O21 O 0.94956 1.0003 0.39727 0.0
O22 O 0.03077 0.91709 0.53082 0.0
O23 O 0.07247 0.98225 0.54623 0.0
O24 O 0.05443 0.04845 0.43828 0.0
O25 O 0.10374 0.06626 0.53174 0.0
O26 O 0.04748 0.09232 0.66749 0.0
O27 O 0.09945 0.02686 0.67748 0.0
O28 O 1.01772 0.11554 0.54401 0.0
O29 O 0.97753 0.04945 0.52863 0.0
O30 O 0.99267 0.98726 0.63524 0.0
O31 O 0.9469 0.96646 0.5408 0.0
H32 H 0.95734 0.90402 0.27288 0.0
H33 H 0.97416 0.9224 0.1596 0.0
H34 H 1.02193 0.07376 0.19766 0.0
H35 H 1.00451 0.05534 0.31094 0.0
H36 H 0.09183 0.12897 0.79801 0.0
H37 H 0.07178 0.11379 0.91023 0.0
H38 H 0.02695 0.96047 0.87773 0.0
H39 H 0.04842 0.97547 0.76577 0.0
La40 La 0.24561 0.7438 0.85386 0.0
La41 La 0.29191 0.79129 0.73623 0.0
C42 C 0.22891 0.70464 0.96528 0.0
C43 C 0.23744 0.71825 1.03245 0.0
C44 C 0.19855 0.71005 0.07295 0.0
C45 C 0.20486 0.7237 0.13632 0.0
C46 C 0.25032 0.74582 0.16043 0.0
C47 C 0.28955 0.75354 0.12005 0.0
C48 C 0.2831 0.74013 0.05644 0.0
C49 C 0.1877 0.81366 0.7792 0.0
C50 C 0.32311 0.83641 0.86506 0.0
C51 C 0.31098 0.82949 0.62533 0.0
C52 C 0.2991 0.81934 0.55719 0.0
C53 C 0.33661 0.82794 0.51477 0.0
C54 C 0.32741 0.81707 0.4504 0.0
C55 C 0.28035 0.79759 0.42707 0.0
C56 C 0.24261 0.78918 0.46959 0.0
C57 C 0.25193 0.7999 0.53422 0.0
C58 C 0.34898 0.7212 0.81196 0.0
C59 C 0.2138 0.69999 0.72424 0.0
O60 O 0.19584 0.73345 0.92611 0.0
O61 O 0.26919 0.69387 0.93732 0.0
O62 O 0.17083 0.77375 0.81106 0.0
O63 O 0.23544 0.8151 0.79292 0.0
O64 O 0.3027 0.79564 0.89403 0.0
O65 O 0.31716 0.84752 0.80134 0.0
O66 O 0.34019 0.79535 0.66217 0.0
O67 O 0.27341 0.84507 0.65503 0.0
O68 O 0.36631 0.76184 0.78216 0.0
O69 O 0.30149 0.71989 0.79676 0.0
O70 O 0.23317 0.74154 0.69586 0.0
O71 O 0.22097 0.68777 0.78781 0.0
H72 H 0.16313 0.69314 0.05545 0.0
H73 H 0.17438 0.71645 0.16672 0.0
H74 H 0.32496 0.77056 0.13745 0.0
H75 H 0.31366 0.74708 1.02609 0.0
H76 H 0.37329 0.84276 0.53165 0.0
H77 H 0.35709 0.82405 0.4187 0.0
H78 H 0.20631 0.77339 0.45322 0.0
H79 H 0.22253 0.79253 0.56627 0.0
La80 La 0.53998 0.98899 0.09918 0.0
La81 La 0.5064 0.05187 0.9719 0.0
C82 C 0.56917 0.95719 0.21642 0.0
C83 C 0.56174 0.97068 0.28188 0.0
C84 C 0.56271 0.9318 0.33338 0.0
C85 C 0.55555 0.9433 0.39589 0.0
C86 C 0.54749 0.99409 0.40832 0.0
C87 C 0.54633 0.03303 0.35643 0.0
C88 C 0.55353 0.02147 0.29383 0.0
C89 C 0.47238 0.94547 1.02112 0.0
C90 C 0.45448 0.07685 0.09114 0.0
C91 C 0.47918 0.08361 0.85422 0.0
C92 C 0.48892 0.06895 0.79005 0.0
C93 C 0.49019 0.10698 0.73795 0.0
C94 C 0.50029 0.09424 0.67695 0.0
C95 C 0.50957 0.04313 0.66684 0.0
C96 C 0.50784 1.00498 0.71911 0.0
C97 C 0.49764 0.01776 0.78014 0.0
C98 C 0.57371 0.09497 0.05087 0.0
C99 C 0.59093 0.96331 0.97936 0.0
O100 O 0.52937 0.94007 0.18299 0.0
O101 O 0.59453 0.98915 0.18043 0.0
O102 O 0.50874 0.92124 0.0594 0.0
O103 O 0.4731 0.99221 1.02969 0.0
O104 O 0.49151 0.04914 0.12666 0.0
O105 O 0.44845 0.07892 1.02705 0.0
O106 O 0.5181 0.10117 0.88887 0.0
O107 O 0.4529 0.05203 0.88952 0.0
O108 O 0.53733 0.11946 1.01289 0.0
O109 O 0.57303 0.04847 0.04139 0.0
O110 O 0.55419 0.99139 0.94396 0.0
O111 O 0.59721 0.96154 0.04338 0.0
H112 H 0.5688 0.89235 0.32517 0.0
H113 H 0.55553 0.91228 0.43431 0.0
H114 H 0.54029 0.07252 0.36439 0.0
H115 H 0.55276 0.05217 0.25487 0.0
H116 H 0.48356 0.14669 0.74453 0.0
H117 H 0.50146 0.1245 0.63779 0.0
H118 H 0.51378 0.96517 0.71266 0.0
H119 H 0.49653 0.98766 0.8195 0.0
La120 La 0.23902 0.28406 0.22371 0.0
La121 La 0.30388 0.25051 0.351 0.0
C122 C 0.20778 0.31221 0.10631 0.0
C123 C 0.2224 0.30276 0.04157 0.0
C124 C 0.19352 0.26965 1.00403 0.0
C125 C 0.2064 0.26053 0.94279 0.0
C126 C 0.24867 0.28405 0.91778 0.0
C127 C 0.27725 0.31764 0.95478 0.0
C128 C 0.264 0.32726 1.01573 0.0
C129 C 0.19763 0.21604 0.30247 0.0
C130 C 0.32773 0.19972 0.22977 0.0
C131 C 0.33505 0.22229 0.46846 0.0
C132 C 0.32127 0.2316 0.53349 0.0
C133 C 0.35389 0.25988 0.57342 0.0
C134 C 0.34252 0.268 0.63562 0.0
C135 C 0.29855 0.24742 0.65984 0.0
C136 C 0.26566 0.21939 0.61973 0.0
C137 C 0.27691 0.21145 0.55731 0.0
C138 C 0.34531 0.31761 0.27172 0.0
C139 C 0.21484 0.33552 0.3436 0.0
O140 O 0.18972 0.27332 0.14035 0.0
O141 O 0.23869 0.33886 0.14262 0.0
O142 O 0.17231 0.25188 0.26447 0.0
O143 O 0.24405 0.21741 0.29304 0.0
O144 O 0.29881 0.23622 0.19528 0.0
O145 O 0.33182 0.1937 0.29406 0.0
O146 O 0.35356 0.26086 0.43439 0.0
O147 O 0.30328 0.19646 0.43241 0.0
O148 O 0.37115 0.28352 0.31182 0.0
O149 O 0.29902 0.31646 0.28138 0.0
O150 O 0.24392 0.29943 0.37915 0.0
O151 O 0.21217 0.34137 0.27956 0.0
H152 H 0.1608 0.25076 1.02202 0.0
H153 H 0.18364 0.23456 0.91522 0.0
H154 H 0.30938 0.33713 0.93607 0.0
H155 H 0.28616 0.3542 0.04218 0.0
H156 H 0.38838 0.27576 0.55651 0.0
H157 H 0.36802 0.2908 0.66457 0.0
H158 H 0.23155 0.20295 0.63701 0.0
H159 H 0.25099 0.18925 0.52802 0.0
La160 La 0.74862 0.24361 0.34984 0.0
La161 La 0.79513 0.29171 0.2326 0.0
C162 C 0.73151 0.20365 0.46072 0.0
C163 C 0.7401 0.21579 0.52856 0.0
C164 C 0.70001 0.20986 0.56756 0.0
C165 C 0.70659 0.22149 0.63183 0.0
C166 C 0.75364 0.23886 0.65865 0.0
C167 C 0.79374 0.24511 0.61933 0.0
C168 C 0.78706 0.23372 0.55483 0.0
C169 C 0.69183 0.315 0.27633 0.0
C170 C 0.82659 0.3357 0.36224 0.0
C171 C 0.81302 0.32992 0.12126 0.0
C172 C 0.80167 0.31765 0.0538 0.0
C173 C 0.84022 0.3224 1.01239 0.0
C174 C 0.83127 0.30955 0.94881 0.0
C175 C 0.78349 0.29165 0.92531 0.0
C176 C 0.74461 0.28753 0.96666 0.0
C177 C 0.75367 0.30019 1.03046 0.0
C178 C 0.85189 0.22091 0.30716 0.0
C179 C 0.71642 0.2007 0.21984 0.0
O180 O 0.6989 0.23344 0.42214 0.0
O181 O 0.77161 0.19264 0.43252 0.0
O182 O 0.67419 0.27476 0.30667 0.0
O183 O 0.73951 0.3155 0.29031 0.0
O184 O 0.80618 0.29469 0.39069 0.0
O185 O 0.82053 0.34742 0.29856 0.0
O186 O 0.84402 0.29799 0.15912 0.0
O187 O 0.77466 0.34411 0.15058 0.0
O188 O 0.86943 0.26144 0.27736 0.0
O189 O 0.80432 0.21993 0.29225 0.0
O190 O 0.73629 0.24211 0.19183 0.0
O191 O 0.72338 0.1882 0.28332 0.0
H192 H 0.66336 0.19651 0.54809 0.0
H193 H 0.67457 0.21752 0.66025 0.0
H194 H 0.83044 0.25842 0.63865 0.0
H195 H 0.81855 0.23896 0.52566 0.0
H196 H 0.87754 0.33564 1.0295 0.0
H197 H 0.86203 0.3129 0.91827 0.0
H198 H 0.70709 0.27484 0.94957 0.0
H199 H 0.72322 0.29618 0.06146 0.0
La200 La 0.73502 0.78011 0.72315 0.0
La201 La 0.80415 0.75321 0.84759 0.0
C202 C 0.6964 0.79849 0.60612 0.0
C203 C 0.71269 0.79282 0.54123 0.0
C204 C 0.69478 0.82763 0.48769 0.0
C205 C 0.70896 0.82195 0.42577 0.0
C206 C 0.74163 0.78145 0.41617 0.0
C207 C 0.75919 0.74646 0.46987 0.0
C208 C 0.74489 0.75204 0.53159 0.0
C209 C 0.69648 0.71561 0.80908 0.0
C210 C 0.82839 0.70024 0.73035 0.0
C211 C 0.83888 0.73285 0.96576 0.0
C212 C 0.823 0.7404 1.0306 0.0
C213 C 0.84986 0.77437 0.06882 0.0
C214 C 0.83687 0.78118 0.1308 0.0
C215 C 0.79699 0.75373 0.15667 0.0
C216 C 0.76968 0.72006 0.11822 0.0
C217 C 0.78259 0.71333 0.05598 0.0
C218 C 0.8432 0.81741 0.76118 0.0
C219 C 0.71371 0.83536 0.84115 0.0
O220 O 0.69053 0.75606 0.64278 0.0
O221 O 0.71914 0.83288 0.63948 0.0
O222 O 0.67048 0.75024 0.77016 0.0
O223 O 0.74243 0.71613 0.79721 0.0
O224 O 0.79798 0.73542 0.69531 0.0
O225 O 0.83201 0.69437 0.79442 0.0
O226 O 0.84984 0.77395 0.92953 0.0
O227 O 0.81342 0.7007 0.93151 0.0
O228 O 0.86966 0.78511 0.80316 0.0
O229 O 0.79715 0.81666 0.77275 0.0
O230 O 0.74293 0.79919 0.87552 0.0
O231 O 0.70865 0.83997 0.77688 0.0
H232 H 0.66967 0.85919 0.49374 0.0
H233 H 0.69472 0.8495 0.38543 0.0
H234 H 0.78342 0.71418 0.46401 0.0
H235 H 0.75878 0.72418 0.57168 0.0
H236 H 0.88115 0.79576 0.05074 0.0
H237 H 0.85788 0.80837 0.15829 0.0
H238 H 0.73873 0.69837 0.13667 0.0
H239 H 0.76107 0.68674 1.02802 0.0
La240 La 0.50021 0.49042 0.9843 0.0
La241 La 0.54384 0.54298 0.0989 0.0
C242 C 0.46501 0.46833 0.87333 0.0
C243 C 0.47807 0.47856 0.80589 0.0
C244 C 0.51571 0.4489 0.7833 0.0
C245 C 0.52727 0.45796 0.71935 0.0
C246 C 0.50143 0.49677 0.67647 0.0
C247 C 0.4633 0.52598 0.69861 0.0
C248 C 0.45172 0.51697 0.76269 0.0
C249 C 0.56851 0.43661 0.06612 0.0
C250 C 0.59148 0.56908 0.97172 0.0
C251 C 0.5792 0.56386 0.21026 0.0
C252 C 0.56652 0.55199 0.27764 0.0
C253 C 0.52865 0.5804 0.30165 0.0
C254 C 0.51819 0.5703 0.36596 0.0
C255 C 0.54563 0.53192 0.40784 0.0
C256 C 0.58303 0.50305 0.38374 0.0
C257 C 0.59353 0.51313 0.31937 0.0
C258 C 0.47551 0.59697 1.01718 0.0
C259 C 0.45268 0.46396 0.11218 0.0
O260 O 0.49684 0.43901 0.91381 0.0
O261 O 0.4485 0.50711 0.90032 0.0
O262 O 0.52922 0.41759 1.03512 0.0
O263 O 0.56995 0.48373 0.04826 0.0
O264 O 0.55153 0.54704 0.94294 0.0
O265 O 0.60133 0.5661 1.0355 0.0
O266 O 0.54702 0.59347 0.17061 0.0
O267 O 0.59609 0.52591 0.1821 0.0
O268 O 0.51496 0.61584 0.04817 0.0
O269 O 0.47393 0.54978 1.03499 0.0
O270 O 0.49195 0.48731 0.14046 0.0
O271 O 0.44343 0.46629 0.04827 0.0
H272 H 0.53616 0.41838 0.81483 0.0
H273 H 0.55598 0.43406 0.70314 0.0
H274 H 0.44271 0.55607 0.66645 0.0
H275 H 0.42206 0.54001 0.77838 0.0
H276 H 0.50733 0.61086 0.27103 0.0
H277 H 0.48929 0.59323 0.38336 0.0
H278 H 0.60412 0.4726 0.41466 0.0
H279 H 0.62303 0.49067 0.3024 0.0
La280 La 0.04012 0.48767 0.60144 0.0
La281 La 1.00528 0.55117 0.47505 0.0
C282 C 0.07008 0.45925 0.71915 0.0
C283 C 0.05955 0.47402 0.78328 0.0
C284 C 1.01222 0.46465 0.80711 0.0
C285 C 1.00359 0.47774 0.86847 0.0
C286 C 0.04187 0.50078 0.90715 0.0
C287 C 0.08911 0.51021 0.88333 0.0
C288 C 0.09787 0.49686 0.82214 0.0
C289 C 0.97171 0.44446 0.52455 0.0
C290 C 0.95384 0.57536 0.59433 0.0
C291 C 0.97757 0.58246 0.35747 0.0
C292 C 0.98847 0.56958 0.29258 0.0
C293 C 0.03484 0.5826 0.26814 0.0
C294 C 0.04368 0.572 0.20582 0.0
C295 C 1.00634 0.54837 0.16637 0.0
C296 C 0.96024 0.53487 0.19106 0.0
C297 C 0.95131 0.54559 0.25331 0.0
C298 C 0.07314 0.59391 0.55336 0.0
C299 C 0.08962 0.4621 0.48064 0.0
O300 O 0.03352 0.4374 0.6851 0.0
O301 O 0.09362 0.49266 0.68285 0.0
O302 O 1.00811 0.42001 0.56263 0.0
O303 O 0.97257 0.49127 0.53308 0.0
O304 O 0.98942 0.54581 0.62993 0.0
O305 O 0.9481 0.57885 0.53024 0.0
O306 O 1.01433 0.60252 0.39325 0.0
O307 O 0.95281 0.54881 0.3919 0.0
O308 O 0.03652 0.6185 0.51601 0.0
O309 O 0.07252 0.54746 0.54344 0.0
O310 O 0.05327 0.49147 0.44663 0.0
O311 O 0.0966 0.45901 0.54481 0.0
H312 H 0.98182 0.44706 0.77856 0.0
H313 H 0.96679 0.47016 0.88558 0.0
H314 H 0.1196 0.52715 0.91251 0.0
H315 H 0.13483 0.50413 0.8053 0.0
H316 H 0.06439 0.60108 0.29698 0.0
H317 H 0.08003 0.58184 0.18876 0.0
H318 H 0.93069 0.51675 0.16174 0.0
H319 H 0.91508 0.53545 0.27057 0.0
C320 C 0.09675 0.14867 0.3929 0.0
C321 C 0.12295 0.10623 0.428 0.0
C322 C 0.12172 0.18405 0.35335 0.0
C323 C 0.17362 0.1775 0.34573 0.0
H324 H 0.05655 0.15464 0.39616 0.0
H325 H 0.09989 0.21662 0.32813 0.0
S326 S 0.25749 0.06834 0.42077 0.0
N327 N 0.2026 0.05761 0.45063 0.0
N328 N 0.24906 0.12201 0.37185 0.0
C329 C 0.19989 0.13393 0.37872 0.0
C330 C 0.17465 0.09874 0.42097 0.0
C331 C 0.14768 0.92062 0.64473 0.0
C332 C 0.09814 0.90669 0.62193 0.0
C333 C 0.17624 0.89123 0.69692 0.0
C334 C 0.15616 0.84704 0.72789 0.0
H335 H 0.16489 0.95369 0.62118 0.0
H336 H 0.21443 0.90293 0.71267 0.0
S337 S 0.02537 0.79859 0.69198 0.0
N338 N 0.02853 0.84862 0.63806 0.0
N339 N 0.08149 0.79413 0.73596 0.0
C340 C 0.1056 0.83449 0.70757 0.0
C341 C 0.07686 0.864 0.65442 0.0
C342 C 0.40082 0.84021 0.94232 0.0
C343 C 0.35911 0.86591 0.90479 0.0
C344 C 0.43721 0.86665 0.97906 0.0
C345 C 0.43245 0.91968 0.98137 0.0
H346 H 0.40587 0.79936 0.94245 0.0
H347 H 0.46932 0.84516 1.00602 0.0
S348 S 0.32565 1.00328 0.89857 0.0
N349 N 0.31303 0.94649 0.87443 0.0
N350 N 0.37919 0.9959 0.94805 0.0
C351 C 0.38943 0.9455 0.94629 0.0
C352 C 0.35328 0.91867 0.90683 0.0
C353 C 0.43065 0.1092 0.19267 0.0
C354 C 0.41998 0.10678 0.12526 0.0
C355 C 0.39998 0.13825 0.22644 0.0
C356 C 0.35743 0.16621 0.19419 0.0
H357 H 0.46345 0.08909 0.21984 0.0
H358 H 0.41049 0.13965 0.27793 0.0
S359 S 0.30988 0.16923 1.01909 0.0
N360 N 0.36176 0.13253 1.02828 0.0
N361 N 0.30398 0.18702 0.09154 0.0
C362 C 0.34533 0.16304 0.12708 0.0
C363 C 0.37662 0.1334 0.09269 0.0
C364 C 0.93247 0.92252 0.71217 0.0
C365 C 0.9213 0.93054 0.64413 0.0
C366 C 0.90596 0.88676 0.74973 0.0
C367 C 0.86668 0.85824 0.72099 0.0
H368 H 0.96292 0.94283 0.73674 0.0
H369 H 0.9168 0.88087 0.80166 0.0
S370 S 0.82281 0.86358 0.5454 0.0
N371 N 0.8677 0.90652 0.54992 0.0
N372 N 0.81879 0.83916 0.62084 0.0
C373 C 0.85447 0.86629 0.65352 0.0
C374 C 0.88149 0.90254 0.61503 0.0
C375 C 0.95944 0.17536 0.43593 0.0
C376 C 0.94462 0.12657 0.45992 0.0
C377 C 0.9295 0.20468 0.38571 0.0
C378 C 0.88249 0.18732 0.35885 0.0
H379 H 0.99487 0.19106 0.45565 0.0
H380 H 0.9432 0.24168 0.3684 0.0
S381 S 0.82468 0.06322 0.40636 0.0
N382 N 0.87887 0.06263 0.45445 0.0
N383 N 0.82212 0.11822 0.35996 0.0
C384 C 0.86659 0.13889 0.38284 0.0
C385 C 0.89764 0.1085 0.43362 0.0
C386 C 0.63802 0.19702 0.14381 0.0
C387 C 0.68088 0.17158 0.17906 0.0
C388 C 0.60355 0.17145 0.10328 0.0
C389 C 0.61137 0.11973 0.09499 0.0
H390 H 0.6309 0.23704 0.14788 0.0
H391 H 0.57061 0.19264 0.07795 0.0
S392 S 0.72183 0.03785 0.1706 0.0
N393 N 0.73111 0.09283 0.20128 0.0
N394 N 0.66832 0.04538 0.12104 0.0
C395 C 0.65527 0.09426 0.12832 0.0
C396 C 0.68957 0.12006 0.17141 0.0
C397 C 0.64846 0.90497 0.84354 0.0
C398 C 0.68455 0.8694 0.87709 0.0
C399 C 0.61908 0.93568 0.87704 0.0
C400 C 0.62452 0.9321 0.94548 0.0
H401 H 0.64227 0.9088 0.79101 0.0
H402 H 0.59159 0.96216 0.84874 0.0
S403 S 0.71561 0.84691 0.05662 0.0
N404 N 0.72562 0.83397 0.98327 0.0
N405 N 0.67014 0.89132 0.0455 0.0
C406 C 0.66125 0.89751 0.97963 0.0
C407 C 0.69126 0.86627 0.94566 0.0
C408 C 0.59371 0.64467 0.89178 0.0
C409 C 0.62037 0.60461 0.93127 0.0
C410 C 0.6192 0.68041 0.85347 0.0
C411 C 0.67226 0.67657 0.85145 0.0
H412 H 0.55278 0.64884 0.89113 0.0
H413 H 0.59684 0.71117 0.82482 0.0
S414 S 0.75852 0.57455 0.94082 0.0
N415 N 0.70203 0.56136 0.96499 0.0
N416 N 0.74983 0.62626 0.88837 0.0
C417 C 0.69919 0.63535 0.88902 0.0
C418 C 0.67326 0.59989 0.93013 0.0
C419 C 0.61278 0.333 0.20056 0.0
C420 C 0.66121 0.34879 0.22486 0.0
C421 C 0.58349 0.36181 0.14924 0.0
C422 C 0.60107 0.40804 0.12059 0.0
H423 H 0.59753 0.2975 0.22059 0.0
H424 H 0.54659 0.34766 0.13202 0.0
S425 S 0.72378 0.46839 0.16921 0.0
N426 N 0.72415 0.41545 0.21936 0.0
N427 N 0.6696 0.46907 0.12113 0.0
C428 C 0.64897 0.42504 0.14521 0.0
C429 C 0.67886 0.39562 0.19791 0.0
C430 C 0.93856 0.3661 0.47945 0.0
C431 C 0.93276 0.41887 0.48305 0.0
C432 C 0.90334 0.33974 0.44095 0.0
C433 C 0.86187 0.36529 0.40279 0.0
H434 H 0.97056 0.3447 0.50682 0.0
H435 H 0.90903 0.29904 0.44042 0.0
S436 S 0.82577 0.50178 0.39933 0.0
N437 N 0.87853 0.49451 0.4503 0.0
N438 N 0.81476 0.44538 0.37318 0.0
C439 C 0.855 0.4178 0.40601 0.0
C440 C 0.88988 0.44449 0.44736 0.0
C441 C 0.87686 0.61934 0.72235 0.0
C442 C 0.86106 0.66897 0.69591 0.0
C443 C 0.90668 0.58893 0.68891 0.0
C444 C 0.92125 0.60711 0.62785 0.0
H445 H 0.86564 0.60367 0.76872 0.0
H446 H 0.91801 0.55079 0.71072 0.0
S447 S 0.89669 0.737 0.54271 0.0
N448 N 0.86712 0.73673 0.60852 0.0
N449 N 0.92213 0.67923 0.5454 0.0
C450 C 0.90691 0.65704 0.60179 0.0
C451 C 0.87707 0.68809 0.63596 0.0
C452 C 0.36191 0.36024 0.16422 0.0
C453 C 0.36864 0.35832 0.23203 0.0
C454 C 0.38748 0.39607 0.12554 0.0
C455 C 0.42121 0.43086 0.15363 0.0
H456 H 0.33849 0.33238 0.14117 0.0
H457 H 0.38219 0.39506 0.07343 0.0
S458 S 0.45 0.44162 0.33043 0.0
N459 N 0.40973 0.39418 0.3263 0.0
N460 N 0.45798 0.46182 0.25459 0.0
C461 C 0.42721 0.42976 0.22193 0.0
C462 C 0.40107 0.39323 0.26094 0.0
C463 C 0.45727 0.67459 0.93928 0.0
C464 C 0.4415 0.62657 0.96485 0.0
C465 C 0.42737 0.70401 0.88911 0.0
C466 C 0.37971 0.68736 0.86335 0.0
H467 H 0.4934 0.68962 0.95781 0.0
H468 H 0.44161 0.74056 0.87096 0.0
S469 S 0.32029 0.56461 0.91337 0.0
N470 N 0.37467 0.56371 0.96111 0.0
N471 N 0.31836 0.61914 0.86605 0.0
C472 C 0.36324 0.63937 0.88824 0.0
C473 C 0.39406 0.60904 0.93934 0.0
C474 C 0.13509 0.69541 0.64924 0.0
C475 C 0.17852 0.67048 0.68372 0.0
C476 C 0.10118 0.66977 0.60816 0.0
C477 C 0.1102 0.61854 0.59836 0.0
H478 H 0.12723 0.73516 0.65413 0.0
H479 H 0.06776 0.69057 0.58347 0.0
S480 S 0.22247 0.53828 0.67163 0.0
N481 N 0.2305 0.59278 0.70381 0.0
N482 N 0.16882 0.54532 0.62228 0.0
C483 C 0.15464 0.59361 0.63097 0.0
C484 C 0.18835 0.61942 0.67474 0.0
C485 C 0.19261 0.37017 0.44479 0.0
C486 C 0.18348 0.36926 0.37702 0.0
C487 C 0.16253 0.40056 0.47791 0.0
C488 C 0.12197 0.43112 0.44464 0.0
H489 H 0.22326 0.34718 0.47276 0.0
H490 H 0.17109 0.3998 0.53002 0.0
S491 S 0.08114 0.44127 0.26684 0.0
N492 N 0.13036 0.40104 0.27789 0.0
N493 N 0.07389 0.4579 0.33945 0.0
C494 C 0.11245 0.43055 0.37666 0.0
C495 C 0.14316 0.39974 0.34306 0.0
C496 C 0.05188 0.98339 1.01027 0.0
C497 C 0.03361 0.02749 0.97015 0.0
C498 C 0.04054 0.97474 0.07466 0.0
C499 C 1.01051 1.00985 0.10142 0.0
H500 H 0.07578 0.95569 0.99206 0.0
H501 H 0.05596 0.94056 0.10402 0.0
S502 S 0.94972 0.12904 1.01513 0.0
N503 N 0.9815 0.1052 0.96071 0.0
N504 N 0.96039 0.08896 0.08177 0.0
C505 C 0.99139 0.05372 0.06159 0.0
C506 C 1.00286 0.06251 0.996 0.0
C507 C 0.30804 0.7554 0.33389 0.0
C508 C 0.27154 0.78495 0.35891 0.0
C509 C 0.30101 0.74319 0.26966 0.0
C510 C 0.25717 0.75999 0.22798 0.0
H511 H 0.34211 0.74111 0.36447 0.0
H512 H 0.3298 0.71981 0.25274 0.0
S513 S 0.15217 0.84187 0.26804 0.0
N514 N 0.19129 0.83299 0.33589 0.0
N515 N 0.178 0.80996 0.21518 0.0
C516 C 0.22066 0.79009 0.25208 0.0
C517 C 0.22785 0.80256 0.3175 0.0
C518 C 0.48925 0.05068 0.54548 0.0
C519 C 0.52024 0.02992 0.60159 0.0
C520 C 0.49848 0.03912 0.48344 0.0
C521 C 0.53913 1.00632 0.47481 0.0
H522 H 0.4571 0.07562 0.54959 0.0
H523 H 0.47306 0.05546 0.44194 0.0
S524 S 0.6341 0.94513 0.60534 0.0
N525 N 0.59491 0.97699 0.64405 0.0
N526 N 0.61233 0.95537 0.52767 0.0
C527 C 0.57086 0.98581 0.53043 0.0
C528 C 0.56141 0.99755 0.59365 0.0
C529 C 0.22514 0.28 0.79852 0.0
C530 C 0.26229 0.2741 0.85273 0.0
C531 C 0.23712 0.27114 0.73655 0.0
C532 C 0.28666 0.2557 0.7264 0.0
H533 H 0.18665 0.29231 0.80389 0.0
H534 H 0.20748 0.27716 0.69609 0.0
S535 S 0.39636 0.22982 0.85376 0.0
N536 N 0.34985 0.24921 0.89301 0.0
N537 N 0.37217 0.23142 0.77707 0.0
C538 C 0.32387 0.24858 0.78059 0.0
C539 C 0.31175 0.25804 0.84355 0.0
C540 C 0.79007 0.31031 0.80599 0.0
C541 C 0.77463 0.27753 0.8577 0.0
C542 C 0.78323 0.29749 0.742 0.0
C543 C 0.76065 0.25136 0.72709 0.0
H544 H 0.80724 0.34644 0.81496 0.0
H545 H 0.7952 0.32423 0.70377 0.0
S546 S 0.71675 0.15061 0.84534 0.0
N547 N 0.73777 0.19586 0.89 0.0
N548 N 0.72491 0.17174 0.76984 0.0
C549 C 0.74538 0.21803 0.77839 0.0
C550 C 0.75234 0.23111 0.84358 0.0
C551 C 0.71942 0.77654 0.29617 0.0
C552 C 0.75668 0.77514 0.35022 0.0
C553 C 0.73261 0.76913 0.23409 0.0
C554 C 0.78369 0.7606 0.22329 0.0
H555 H 0.6796 0.78271 0.30206 0.0
H556 H 0.70258 0.77065 0.19407 0.0
S557 S 0.89587 0.75406 0.3483 0.0
N558 N 0.847 0.7655 0.38829 0.0
N559 N 0.87164 0.75069 0.27245 0.0
C560 C 0.82131 0.75933 0.2769 0.0
C561 C 0.80786 0.76673 0.34003 0.0
C562 C 0.47426 0.50909 0.55679 0.0
C563 C 0.51362 0.50611 0.60842 0.0
C564 C 0.48495 0.51716 0.4921 0.0
C565 C 0.53538 0.52256 0.47667 0.0
H566 H 0.43494 0.50449 0.56644 0.0
H567 H 0.45352 0.51871 0.45383 0.0
S568 S 0.65168 0.52196 0.59417 0.0
N569 N 0.6047 0.51187 0.63992 0.0
N570 N 0.62477 0.52712 0.51838 0.0
C571 C 0.57501 0.52031 0.52786 0.0
C572 C 0.56414 0.51209 0.59369 0.0
C573 C 1.01376 0.47727 1.01743 0.0
C574 C 0.03278 0.51402 0.97272 0.0
C575 C 1.00537 0.48867 0.07979 0.0
C576 C 1.01551 0.53732 0.09985 0.0
H577 H 1.00597 0.43914 1.00439 0.0
H578 H 0.99142 0.45893 0.11288 0.0
S579 S 0.06131 0.64834 0.999 0.0
N580 N 0.05884 0.6018 0.95152 0.0
N581 N 0.04274 0.62341 0.06841 0.0
C582 C 0.03377 0.57465 0.0552 0.0
C583 C 0.04245 0.56297 0.99178 0.0
loop_
_geom_bond_atom_site_label_1
_geom_bond_atom_site_label_2
_geom_bond_distance
_geom_bond_site_symmetry_2
_ccdc_geom_bond_type
La0 C2 2.928 1_655 S
La0 O20 2.521 1_655 S
La0 O21 2.628 1_565 S
La0 O22 2.554 1_655 S
La0 O23 2.757 1_655 S
La0 O24 2.470 1_665 S
La0 O29 2.482 1_565 S
La0 O31 2.503 . S
La1 C11 2.928 1_455 S
La1 O23 2.482 1_545 S
La1 O25 2.503 . S
La1 O26 2.521 1_455 S
La1 O27 2.628 1_545 S
La1 O28 2.554 1_455 S
La1 O29 2.757 1_455 S
La1 O30 2.470 1_445 S
C2 La0 2.928 1_455 S
C2 C3 1.503 . S
C2 O20 1.261 . S
C2 O21 1.243 1_465 S
C3 C2 1.503 . S
C3 C4 1.394 . S
C3 C8 1.373 1_565 S
C4 C3 1.394 . S
C4 C5 1.380 . S
C4 H32 0.930 . S
C5 C4 1.380 . S
C5 C6 1.376 . S
C5 H33 0.930 . S
C6 C5 1.376 . S
C6 C7 1.370 1_565 S
C7 C6 1.370 1_545 S
C7 C8 1.396 . S
C7 H34 0.929 . S
C8 C3 1.373 1_545 S
C8 C7 1.396 . S
C8 H35 0.929 1_455 S
C9 O22 1.240 . S
C9 O23 1.289 . S
C10 O24 1.258 . S
C10 O25 1.256 . S
C11 La1 2.928 1_655 S
C11 C12 1.503 . S
C11 O26 1.261 . S
C11 O27 1.243 1_645 S
C12 C11 1.503 . S
C12 C13 1.394 . S
C12 C17 1.373 1_545 S
C13 C12 1.394 . S
C13 C14 1.380 . S
C13 H36 0.930 . S
C14 C13 1.380 . S
C14 C15 1.376 . S
C14 H37 0.930 . S
C15 C14 1.376 . S
C15 C16 1.370 1_545 S
C16 C15 1.370 1_565 S
C16 C17 1.396 . S
C16 H38 0.929 . S
C17 C12 1.373 1_565 S
C17 C16 1.396 . S
C17 H39 0.929 1_655 S
C18 O28 1.240 . S
C18 O29 1.289 . S
C19 O30 1.258 . S
C19 O31 1.256 . S
O20 La0 2.521 1_455 S
O20 C2 1.261 . S
O21 La0 2.628 1_545 S
O21 C2 1.243 1_645 S
O22 La0 2.554 1_455 S
O22 C9 1.240 . S
O23 La0 2.757 1_455 S
O23 La1 2.482 1_565 S
O23 C9 1.289 . S
O24 La0 2.470 1_445 S
O24 C10 1.258 . S
O25 La1 2.503 . S
O25 C10 1.256 . S
O26 La1 2.521 1_655 S
O26 C11 1.261 . S
O27 La1 2.628 1_565 S
O27 C11 1.243 1_465 S
O28 La1 2.554 1_655 S
O28 C18 1.240 . S
O29 La0 2.482 1_545 S
O29 La1 2.757 1_655 S
O29 C18 1.289 . S
O30 La1 2.470 1_665 S
O30 C19 1.258 . S
O31 La0 2.503 . S
O31 C19 1.256 . S
H32 C4 0.930 . S
H33 C5 0.930 . S
H34 C7 0.929 . S
H35 C8 0.929 1_655 S
H36 C13 0.930 . S
H37 C14 0.930 . S
H38 C16 0.929 . S
H39 C17 0.929 1_455 S
La40 C42 2.928 . S
La40 O60 2.521 . S
La40 O61 2.628 . S
La40 O62 2.554 . S
La40 O63 2.757 . S
La40 O64 2.470 . S
La40 O69 2.482 . S
La40 O71 2.503 . S
La41 C51 2.928 . S
La41 O63 2.482 . S
La41 O65 2.503 . S
La41 O66 2.521 . S
La41 O67 2.628 . S
La41 O68 2.554 . S
La41 O69 2.757 . S
La41 O70 2.470 . S
C42 La40 2.928 . S
C42 C43 1.503 1_556 S
C42 O60 1.261 . S
C42 O61 1.243 . S
C43 C42 1.503 1_554 S
C43 C44 1.394 . S
C43 C48 1.373 . S
C44 C43 1.394 . S
C44 C45 1.380 . S
C44 H72 0.930 1_554 S
C45 C44 1.380 . S
C45 C46 1.376 . S
C45 H73 0.930 . S
C46 C45 1.376 . S
C46 C47 1.370 . S
C47 C46 1.370 . S
C47 C48 1.396 . S
C47 H74 0.929 . S
C48 C43 1.373 . S
C48 C47 1.396 . S
C48 H75 0.929 . S
C49 O62 1.240 . S
C49 O63 1.289 . S
C50 O64 1.258 . S
C50 O65 1.256 . S
C51 La41 2.928 . S
C51 C52 1.503 . S
C51 O66 1.261 . S
C51 O67 1.243 . S
C52 C51 1.503 . S
C52 C53 1.394 . S
C52 C57 1.373 . S
C53 C52 1.394 . S
C53 C54 1.380 . S
C53 H76 0.930 . S
C54 C53 1.380 . S
C54 C55 1.376 . S
C54 H77 0.930 . S
C55 C54 1.376 . S
C55 C56 1.370 . S
C56 C55 1.370 . S
C56 C57 1.396 . S
C56 H78 0.929 . S
C57 C52 1.373 . S
C57 C56 1.396 . S
C57 H79 0.929 . S
C58 O68 1.240 . S
C58 O69 1.289 . S
C59 O70 1.258 . S
C59 O71 1.256 . S
O60 La40 2.521 . S
O60 C42 1.261 . S
O61 La40 2.628 . S
O61 C42 1.243 . S
O62 La40 2.554 . S
O62 C49 1.240 . S
O63 La40 2.757 . S
O63 La41 2.482 . S
O63 C49 1.289 . S
O64 La40 2.470 . S
O64 C50 1.258 . S
O65 La41 2.503 . S
O65 C50 1.256 . S
O66 La41 2.521 . S
O66 C51 1.261 . S
O67 La41 2.628 . S
O67 C51 1.243 . S
O68 La41 2.554 . S
O68 C58 1.240 . S
O69 La40 2.482 . S
O69 La41 2.757 . S
O69 C58 1.289 . S
O70 La41 2.470 . S
O70 C59 1.258 . S
O71 La40 2.503 . S
O71 C59 1.256 . S
H72 C44 0.930 1_556 S
H73 C45 0.930 . S
H74 C47 0.929 . S
H75 C48 0.929 . S
H76 C53 0.930 . S
H77 C54 0.930 . S
H78 C56 0.929 . S
H79 C57 0.929 . S
La80 C82 2.928 . S
La80 O100 2.521 . S
La80 O101 2.628 . S
La80 O102 2.554 . S
La80 O103 2.757 1_554 S
La80 O104 2.470 1_565 S
La80 O109 2.482 1_565 S
La80 O111 2.503 . S
La81 C91 2.928 . S
La81 O103 2.482 1_545 S
La81 O105 2.503 . S
La81 O106 2.521 . S
La81 O107 2.628 . S
La81 O108 2.554 . S
La81 O109 2.757 1_556 S
La81 O110 2.470 1_545 S
C82 La80 2.928 . S
C82 C83 1.503 . S
C82 O100 1.261 . S
C82 O101 1.243 . S
C83 C82 1.503 . S
C83 C84 1.394 . S
C83 C88 1.373 . S
C84 C83 1.394 . S
C84 C85 1.380 . S
C84 H112 0.930 . S
C85 C84 1.380 . S
C85 C86 1.376 . S
C85 H113 0.930 . S
C86 C85 1.376 . S
C86 C87 1.370 . S
C87 C86 1.370 . S
C87 C88 1.396 . S
C87 H114 0.929 1_565 S
C88 C83 1.373 . S
C88 C87 1.396 . S
C88 H115 0.929 1_565 S
C89 O102 1.240 1_556 S
C89 O103 1.289 . S
C90 O104 1.258 . S
C90 O105 1.256 1_554 S
C91 La81 2.928 . S
C91 C92 1.503 . S
C91 O106 1.261 . S
C91 O107 1.243 . S
C92 C91 1.503 . S
C92 C93 1.394 . S
C92 C97 1.373 . S
C93 C92 1.394 . S
C93 C94 1.380 . S
C93 H116 0.930 . S
C94 C93 1.380 . S
C94 C95 1.376 . S
C94 H117 0.930 . S
C95 C94 1.376 . S
C95 C96 1.370 . S
C96 C95 1.370 . S
C96 C97 1.396 . S
C96 H118 0.929 1_545 S
C97 C92 1.373 . S
C97 C96 1.396 . S
C97 H119 0.929 1_545 S
C98 O108 1.240 1_554 S
C98 O109 1.289 . S
C99 O110 1.258 . S
C99 O111 1.256 1_556 S
O100 La80 2.521 . S
O100 C82 1.261 . S
O101 La80 2.628 . S
O101 C82 1.243 . S
O102 La80 2.554 . S
O102 C89 1.240 1_554 S
O103 La80 2.757 1_556 S
O103 La81 2.482 1_565 S
O103 C89 1.289 . S
O104 La80 2.470 1_545 S
O104 C90 1.258 . S
O105 La81 2.503 . S
O105 C90 1.256 1_556 S
O106 La81 2.521 . S
O106 C91 1.261 . S
O107 La81 2.628 . S
O107 C91 1.243 . S
O108 La81 2.554 . S
O108 C98 1.240 1_556 S
O109 La80 2.482 1_545 S
O109 La81 2.757 1_554 S
O109 C98 1.289 . S
O110 La81 2.470 1_565 S
O110 C99 1.258 . S
O111 La80 2.503 . S
O111 C99 1.256 1_554 S
H112 C84 0.930 . S
H113 C85 0.930 . S
H114 C87 0.929 1_545 S
H115 C88 0.929 1_545 S
H116 C93 0.930 . S
H117 C94 0.930 . S
H118 C96 0.929 1_565 S
H119 C97 0.929 1_565 S
La120 C122 2.928 . S
La120 O140 2.521 . S
La120 O141 2.628 . S
La120 O142 2.554 . S
La120 O143 2.757 . S
La120 O144 2.470 . S
La120 O149 2.482 . S
La120 O151 2.503 . S
La121 C131 2.928 . S
La121 O143 2.482 . S
La121 O145 2.503 . S
La121 O146 2.521 . S
La121 O147 2.628 . S
La121 O148 2.554 . S
La121 O149 2.757 . S
La121 O150 2.470 . S
C122 La120 2.928 . S
C122 C123 1.503 1_554 S
C122 O140 1.261 . S
C122 O141 1.243 . S
C123 C122 1.503 1_556 S
C123 C124 1.394 . S
C123 C128 1.373 . S
C124 C123 1.394 . S
C124 C125 1.380 . S
C124 H152 0.930 . S
C125 C124 1.380 . S
C125 C126 1.376 . S
C125 H153 0.930 . S
C126 C125 1.376 . S
C126 C127 1.370 . S
C127 C126 1.370 . S
C127 C128 1.396 . S
C127 H154 0.929 . S
C128 C123 1.373 . S
C128 C127 1.396 . S
C128 H155 0.929 . S
C129 O142 1.240 . S
C129 O143 1.289 . S
C130 O144 1.258 . S
C130 O145 1.256 . S
C131 La121 2.928 . S
C131 C132 1.503 . S
C131 O146 1.261 . S
C131 O147 1.243 . S
C132 C131 1.503 . S
C132 C133 1.394 . S
C132 C137 1.373 . S
C133 C132 1.394 . S
C133 C134 1.380 . S
C133 H156 0.930 . S
C134 C133 1.380 . S
C134 C135 1.376 . S
C134 H157 0.930 . S
C135 C134 1.376 . S
C135 C136 1.370 . S
C136 C135 1.370 . S
C136 C137 1.396 . S
C136 H158 0.929 . S
C137 C132 1.373 . S
C137 C136 1.396 . S
C137 H159 0.929 . S
C138 O148 1.240 . S
C138 O149 1.289 . S
C139 O150 1.258 . S
C139 O151 1.256 . S
O140 La120 2.521 . S
O140 C122 1.261 . S
O141 La120 2.628 . S
O141 C122 1.243 . S
O142 La120 2.554 . S
O142 C129 1.240 . S
O143 La120 2.757 . S
O143 La121 2.482 . S
O143 C129 1.289 . S
O144 La120 2.470 . S
O144 C130 1.258 . S
O145 La121 2.503 . S
O145 C130 1.256 . S
O146 La121 2.521 . S
O146 C131 1.261 . S
O147 La121 2.628 . S
O147 C131 1.243 . S
O148 La121 2.554 . S
O148 C138 1.240 . S
O149 La120 2.482 . S
O149 La121 2.757 . S
O149 C138 1.289 . S
O150 La121 2.470 . S
O150 C139 1.258 . S
O151 La120 2.503 . S
O151 C139 1.256 . S
H152 C124 0.930 . S
H153 C125 0.930 . S
H154 C127 0.929 . S
H155 C128 0.929 . S
H156 C133 0.930 . S
H157 C134 0.930 . S
H158 C136 0.929 . S
H159 C137 0.929 . S
La160 C162 2.928 . S
La160 O180 2.521 . S
La160 O181 2.628 . S
La160 O182 2.554 . S
La160 O183 2.757 . S
La160 O184 2.470 . S
La160 O189 2.482 . S
La160 O191 2.503 . S
La161 C171 2.928 . S
La161 O183 2.482 . S
La161 O185 2.503 . S
La161 O186 2.521 . S
La161 O187 2.628 . S
La161 O188 2.554 . S
La161 O189 2.757 . S
La161 O190 2.470 . S
C162 La160 2.928 . S
C162 C163 1.503 . S
C162 O180 1.261 . S
C162 O181 1.243 . S
C163 C162 1.503 . S
C163 C164 1.394 . S
C163 C168 1.373 . S
C164 C163 1.394 . S
C164 C165 1.380 . S
C164 H192 0.930 . S
C165 C164 1.380 . S
C165 C166 1.376 . S
C165 H193 0.930 . S
C166 C165 1.376 . S
C166 C167 1.370 . S
C167 C166 1.370 . S
C167 C168 1.396 . S
C167 H194 0.929 . S
C168 C163 1.373 . S
C168 C167 1.396 . S
C168 H195 0.929 . S
C169 O182 1.240 . S
C169 O183 1.289 . S
C170 O184 1.258 . S
C170 O185 1.256 . S
C171 La161 2.928 . S
C171 C172 1.503 1_554 S
C171 O186 1.261 . S
C171 O187 1.243 . S
C172 C171 1.503 1_556 S
C172 C173 1.394 . S
C172 C177 1.373 . S
C173 C172 1.394 . S
C173 C174 1.380 . S
C173 H196 0.930 1_556 S
C174 C173 1.380 . S
C174 C175 1.376 . S
C174 H197 0.930 . S
C175 C174 1.376 . S
C175 C176 1.370 . S
C176 C175 1.370 . S
C176 C177 1.396 . S
C176 H198 0.929 . S
C177 C172 1.373 . S
C177 C176 1.396 . S
C177 H199 0.929 . S
C178 O188 1.240 . S
C178 O189 1.289 . S
C179 O190 1.258 . S
C179 O191 1.256 . S
O180 La160 2.521 . S
O180 C162 1.261 . S
O181 La160 2.628 . S
O181 C162 1.243 . S
O182 La160 2.554 . S
O182 C169 1.240 . S
O183 La160 2.757 . S
O183 La161 2.482 . S
O183 C169 1.289 . S
O184 La160 2.470 . S
O184 C170 1.258 . S
O185 La161 2.503 . S
O185 C170 1.256 . S
O186 La161 2.521 . S
O186 C171 1.261 . S
O187 La161 2.628 . S
O187 C171 1.243 . S
O188 La161 2.554 . S
O188 C178 1.240 . S
O189 La160 2.482 . S
O189 La161 2.757 . S
O189 C178 1.289 . S
O190 La161 2.470 . S
O190 C179 1.258 . S
O191 La160 2.503 . S
O191 C179 1.256 . S
H192 C164 0.930 . S
H193 C165 0.930 . S
H194 C167 0.929 . S
H195 C168 0.929 . S
H196 C173 0.930 1_554 S
H197 C174 0.930 . S
H198 C176 0.929 . S
H199 C177 0.929 . S
La200 C202 2.928 . S
La200 O220 2.521 . S
La200 O221 2.628 . S
La200 O222 2.554 . S
La200 O223 2.757 . S
La200 O224 2.470 . S
La200 O229 2.482 . S
La200 O231 2.503 . S
La201 C211 2.928 . S
La201 O223 2.482 . S
La201 O225 2.503 . S
La201 O226 2.521 . S
La201 O227 2.628 . S
La201 O228 2.554 . S
La201 O229 2.757 . S
La201 O230 2.470 . S
C202 La200 2.928 . S
C202 C203 1.503 . S
C202 O220 1.261 . S
C202 O221 1.243 . S
C203 C202 1.503 . S
C203 C204 1.394 . S
C203 C208 1.373 . S
C204 C203 1.394 . S
C204 C205 1.380 . S
C204 H232 0.930 . S
C205 C204 1.380 . S
C205 C206 1.376 . S
C205 H233 0.930 . S
C206 C205 1.376 . S
C206 C207 1.370 . S
C207 C206 1.370 . S
C207 C208 1.396 . S
C207 H234 0.929 . S
C208 C203 1.373 . S
C208 C207 1.396 . S
C208 H235 0.929 . S
C209 O222 1.240 . S
C209 O223 1.289 . S
C210 O224 1.258 . S
C210 O225 1.256 . S
C211 La201 2.928 . S
C211 C212 1.503 1_556 S
C211 O226 1.261 . S
C211 O227 1.243 . S
C212 C211 1.503 1_554 S
C212 C213 1.394 . S
C212 C217 1.373 . S
C213 C212 1.394 . S
C213 C214 1.380 . S
C213 H236 0.930 . S
C214 C213 1.380 . S
C214 C215 1.376 . S
C214 H237 0.930 . S
C215 C214 1.376 . S
C215 C216 1.370 . S
C216 C215 1.370 . S
C216 C217 1.396 . S
C216 H238 0.929 . S
C217 C212 1.373 . S
C217 C216 1.396 . S
C217 H239 0.929 . S
C218 O228 1.240 . S
C218 O229 1.289 . S
C219 O230 1.258 . S
C219 O231 1.256 . S
O220 La200 2.521 . S
O220 C202 1.261 . S
O221 La200 2.628 . S
O221 C202 1.243 . S
O222 La200 2.554 . S
O222 C209 1.240 . S
O223 La200 2.757 . S
O223 La201 2.482 . S
O223 C209 1.289 . S
O224 La200 2.470 . S
O224 C210 1.258 . S
O225 La201 2.503 . S
O225 C210 1.256 . S
O226 La201 2.521 . S
O226 C211 1.261 . S
O227 La201 2.628 . S
O227 C211 1.243 . S
O228 La201 2.554 . S
O228 C218 1.240 . S
O229 La200 2.482 . S
O229 La201 2.757 . S
O229 C218 1.289 . S
O230 La201 2.470 . S
O230 C219 1.258 . S
O231 La200 2.503 . S
O231 C219 1.256 . S
H232 C204 0.930 . S
H233 C205 0.930 . S
H234 C207 0.929 . S
H235 C208 0.929 . S
H236 C213 0.930 . S
H237 C214 0.930 . S
H238 C216 0.929 . S
H239 C217 0.929 . S
La240 C242 2.928 . S
La240 O260 2.521 . S
La240 O261 2.628 . S
La240 O262 2.554 . S
La240 O263 2.757 1_556 S
La240 O264 2.470 . S
La240 O269 2.482 . S
La240 O271 2.503 1_556 S
La241 C251 2.928 . S
La241 O263 2.482 . S
La241 O265 2.503 1_554 S
La241 O266 2.521 . S
La241 O267 2.628 . S
La241 O268 2.554 . S
La241 O269 2.757 1_554 S
La241 O270 2.470 . S
C242 La240 2.928 . S
C242 C243 1.503 . S
C242 O260 1.261 . S
C242 O261 1.243 . S
C243 C242 1.503 . S
C243 C244 1.394 . S
C243 C248 1.373 . S
C244 C243 1.394 . S
C244 C245 1.380 . S
C244 H272 0.930 . S
C245 C244 1.380 . S
C245 C246 1.376 . S
C245 H273 0.930 . S
C246 C245 1.376 . S
C246 C247 1.370 . S
C247 C246 1.370 . S
C247 C248 1.396 . S
C247 H274 0.929 . S
C248 C243 1.373 . S
C248 C247 1.396 . S
C248 H275 0.929 . S
C249 O262 1.240 1_554 S
C249 O263 1.289 . S
C250 O264 1.258 . S
C250 O265 1.256 . S
C251 La241 2.928 . S
C251 C252 1.503 . S
C251 O266 1.261 . S
C251 O267 1.243 . S
C252 C251 1.503 . S
C252 C253 1.394 . S
C252 C257 1.373 . S
C253 C252 1.394 . S
C253 C254 1.380 . S
C253 H276 0.930 . S
C254 C253 1.380 . S
C254 C255 1.376 . S
C254 H277 0.930 . S
C255 C254 1.376 . S
C255 C256 1.370 . S
C256 C255 1.370 . S
C256 C257 1.396 . S
C256 H278 0.929 . S
C257 C252 1.373 . S
C257 C256 1.396 . S
C257 H279 0.929 . S
C258 O268 1.240 1_556 S
C258 O269 1.289 . S
C259 O270 1.258 . S
C259 O271 1.256 . S
O260 La240 2.521 . S
O260 C242 1.261 . S
O261 La240 2.628 . S
O261 C242 1.243 . S
O262 La240 2.554 . S
O262 C249 1.240 1_556 S
O263 La240 2.757 1_554 S
O263 La241 2.482 . S
O263 C249 1.289 . S
O264 La240 2.470 . S
O264 C250 1.258 . S
O265 La241 2.503 1_556 S
O265 C250 1.256 . S
O266 La241 2.521 . S
O266 C251 1.261 . S
O267 La241 2.628 . S
O267 C251 1.243 . S
O268 La241 2.554 . S
O268 C258 1.240 1_554 S
O269 La240 2.482 . S
O269 La241 2.757 1_556 S
O269 C258 1.289 . S
O270 La241 2.470 . S
O270 C259 1.258 . S
O271 La240 2.503 1_554 S
O271 C259 1.256 . S
H272 C244 0.930 . S
H273 C245 0.930 . S
H274 C247 0.929 . S
H275 C248 0.929 . S
H276 C253 0.930 . S
H277 C254 0.930 . S
H278 C256 0.929 . S
H279 C257 0.929 . S
La280 C282 2.928 1_455 S
La280 O300 2.521 1_455 S
La280 O301 2.628 . S
La280 O302 2.554 1_455 S
La280 O303 2.757 1_455 S
La280 O304 2.470 1_455 S
La280 O309 2.482 . S
La280 O311 2.503 . S
La281 C291 2.928 1_655 S
La281 O303 2.482 . S
La281 O305 2.503 . S
La281 O306 2.521 1_655 S
La281 O307 2.628 . S
La281 O308 2.554 1_655 S
La281 O309 2.757 1_655 S
La281 O310 2.470 1_655 S
C282 La280 2.928 1_655 S
C282 C283 1.503 . S
C282 O300 1.261 . S
C282 O301 1.243 1_655 S
C283 C282 1.503 . S
C283 C284 1.394 . S
C283 C288 1.373 . S
C284 C283 1.394 . S
C284 C285 1.380 . S
C284 H312 0.930 . S
C285 C284 1.380 . S
C285 C286 1.376 . S
C285 H313 0.930 . S
C286 C285 1.376 . S
C286 C287 1.370 . S
C287 C286 1.370 . S
C287 C288 1.396 . S
C287 H314 0.929 . S
C288 C283 1.373 . S
C288 C287 1.396 . S
C288 H315 0.929 1_655 S
C289 O302 1.240 . S
C289 O303 1.289 . S
C290 O304 1.258 . S
C290 O305 1.256 . S
C291 La281 2.928 1_455 S
C291 C292 1.503 . S
C291 O306 1.261 . S
C291 O307 1.243 1_455 S
C292 C291 1.503 . S
C292 C293 1.394 . S
C292 C297 1.373 . S
C293 C292 1.394 . S
C293 C294 1.380 . S
C293 H316 0.930 . S
C294 C293 1.380 . S
C294 C295 1.376 . S
C294 H317 0.930 . S
C295 C294 1.376 . S
C295 C296 1.370 . S
C296 C295 1.370 . S
C296 C297 1.396 . S
C296 H318 0.929 . S
C297 C292 1.373 . S
C297 C296 1.396 . S
C297 H319 0.929 1_455 S
C298 O308 1.240 . S
C298 O309 1.289 . S
C299 O310 1.258 . S
C299 O311 1.256 . S
O300 La280 2.521 1_655 S
O300 C282 1.261 . S
O301 La280 2.628 . S
O301 C282 1.243 1_455 S
O302 La280 2.554 1_655 S
O302 C289 1.240 . S
O303 La280 2.757 1_655 S
O303 La281 2.482 . S
O303 C289 1.289 . S
O304 La280 2.470 1_655 S
O304 C290 1.258 . S
O305 La281 2.503 . S
O305 C290 1.256 . S
O306 La281 2.521 1_455 S
O306 C291 1.261 . S
O307 La281 2.628 . S
O307 C291 1.243 1_655 S
O308 La281 2.554 1_455 S
O308 C298 1.240 . S
O309 La280 2.482 . S
O309 La281 2.757 1_455 S
O309 C298 1.289 . S
O310 La281 2.470 1_455 S
O310 C299 1.258 . S
O311 La280 2.503 . S
O311 C299 1.256 . S
H312 C284 0.930 . S
H313 C285 0.930 . S
H314 C287 0.929 . S
H315 C288 0.929 1_455 S
H316 C293 0.930 . S
H317 C294 0.930 . S
H318 C296 0.929 . S
H319 C297 0.929 1_655 S
C320 C321 1.369 . S
C320 C322 1.419 . S
C320 H324 0.930 . S
C321 C320 1.369 . S
C321 C330 1.429 . S
C322 C320 1.419 . S
C322 C323 1.363 . S
C322 H325 0.929 . S
C323 C322 1.363 . S
C323 C329 1.428 . S
H324 C320 0.930 . S
H325 C322 0.929 . S
S326 N327 1.613 . S
S326 N328 1.610 . S
N327 S326 1.613 . S
N327 C330 1.350 . S
N328 S326 1.610 . S
N328 C329 1.351 . S
C329 C323 1.428 . S
C329 N328 1.351 . S
C329 C330 1.434 . S
C330 C321 1.429 . S
C330 N327 1.350 . S
C330 C329 1.434 . S
C331 C332 1.369 . S
C331 C333 1.419 . S
C331 H335 0.930 . S
C332 C331 1.369 . S
C332 C341 1.429 . S
C333 C331 1.419 . S
C333 C334 1.363 . S
C333 H336 0.929 . S
C334 C333 1.363 . S
C334 C340 1.428 . S
H335 C331 0.930 . S
H336 C333 0.929 . S
S337 N338 1.613 . S
S337 N339 1.610 . S
N338 S337 1.613 . S
N338 C341 1.350 . S
N339 S337 1.610 . S
N339 C340 1.351 . S
C340 C334 1.428 . S
C340 N339 1.351 . S
C340 C341 1.434 . S
C341 C332 1.429 . S
C341 N338 1.350 . S
C341 C340 1.434 . S
C342 C343 1.369 . S
C342 C344 1.419 . S
C342 H346 0.930 . S
C343 C342 1.369 . S
C343 C352 1.429 . S
C344 C342 1.419 . S
C344 C345 1.363 . S
C344 H347 0.929 . S
C345 C344 1.363 . S
C345 C351 1.428 . S
H346 C342 0.930 . S
H347 C344 0.929 . S
S348 N349 1.613 . S
S348 N350 1.610 . S
N349 S348 1.613 . S
N349 C352 1.350 . S
N350 S348 1.610 . S
N350 C351 1.351 . S
C351 C345 1.428 . S
C351 N350 1.351 . S
C351 C352 1.434 . S
C352 C343 1.429 . S
C352 N349 1.350 . S
C352 C351 1.434 . S
C353 C354 1.369 . S
C353 C355 1.419 . S
C353 H357 0.930 . S
C354 C353 1.369 . S
C354 C363 1.429 . S
C355 C353 1.419 . S
C355 C356 1.363 . S
C355 H358 0.929 . S
C356 C355 1.363 . S
C356 C362 1.428 . S
H357 C353 0.930 . S
H358 C355 0.929 . S
S359 N360 1.613 1_556 S
S359 N361 1.610 1_556 S
N360 S359 1.613 1_554 S
N360 C363 1.350 . S
N361 S359 1.610 1_554 S
N361 C362 1.351 . S
C362 C356 1.428 . S
C362 N361 1.351 . S
C362 C363 1.434 . S
C363 C354 1.429 . S
C363 N360 1.350 . S
C363 C362 1.434 . S
C364 C365 1.369 . S
C364 C366 1.419 . S
C364 H368 0.930 . S
C365 C364 1.369 . S
C365 C374 1.429 . S
C366 C364 1.419 . S
C366 C367 1.363 . S
C366 H369 0.929 . S
C367 C366 1.363 . S
C367 C373 1.428 . S
H368 C364 0.930 . S
H369 C366 0.929 . S
S370 N371 1.613 . S
S370 N372 1.610 . S
N371 S370 1.613 . S
N371 C374 1.350 . S
N372 S370 1.610 . S
N372 C373 1.351 . S
C373 C367 1.428 . S
C373 N372 1.351 . S
C373 C374 1.434 . S
C374 C365 1.429 . S
C374 N371 1.350 . S
C374 C373 1.434 . S
C375 C376 1.369 . S
C375 C377 1.419 . S
C375 H379 0.930 . S
C376 C375 1.369 . S
C376 C385 1.429 . S
C377 C375 1.419 . S
C377 C378 1.363 . S
C377 H380 0.929 . S
C378 C377 1.363 . S
C378 C384 1.428 . S
H379 C375 0.930 . S
H380 C377 0.929 . S
S381 N382 1.613 . S
S381 N383 1.610 . S
N382 S381 1.613 . S
N382 C385 1.350 . S
N383 S381 1.610 . S
N383 C384 1.351 . S
C384 C378 1.428 . S
C384 N383 1.351 . S
C384 C385 1.434 . S
C385 C376 1.429 . S
C385 N382 1.350 . S
C385 C384 1.434 . S
C386 C387 1.369 . S
C386 C388 1.419 . S
C386 H390 0.930 . S
C387 C386 1.369 . S
C387 C396 1.429 . S
C388 C386 1.419 . S
C388 C389 1.363 . S
C388 H391 0.929 . S
C389 C388 1.363 . S
C389 C395 1.428 . S
H390 C386 0.930 . S
H391 C388 0.929 . S
S392 N393 1.613 . S
S392 N394 1.610 . S
N393 S392 1.613 . S
N393 C396 1.350 . S
N394 S392 1.610 . S
N394 C395 1.351 . S
C395 C389 1.428 . S
C395 N394 1.351 . S
C395 C396 1.434 . S
C396 C387 1.429 . S
C396 N393 1.350 . S
C396 C395 1.434 . S
C397 C398 1.369 . S
C397 C399 1.419 . S
C397 H401 0.930 . S
C398 C397 1.369 . S
C398 C407 1.429 . S
C399 C397 1.419 . S
C399 C400 1.363 . S
C399 H402 0.929 . S
C400 C399 1.363 . S
C400 C406 1.428 . S
H401 C397 0.930 . S
H402 C399 0.929 . S
S403 N404 1.613 . S
S403 N405 1.610 . S
N404 S403 1.613 . S
N404 C407 1.350 . S
N405 S403 1.610 . S
N405 C406 1.351 . S
C406 C400 1.428 . S
C406 N405 1.351 . S
C406 C407 1.434 . S
C407 C398 1.429 . S
C407 N404 1.350 . S
C407 C406 1.434 . S
C408 C409 1.369 . S
C408 C410 1.419 . S
C408 H412 0.930 . S
C409 C408 1.369 . S
C409 C418 1.429 . S
C410 C408 1.419 . S
C410 C411 1.363 . S
C410 H413 0.929 . S
C411 C410 1.363 . S
C411 C417 1.428 . S
H412 C408 0.930 . S
H413 C410 0.929 . S
S414 N415 1.613 . S
S414 N416 1.610 . S
N415 S414 1.613 . S
N415 C418 1.350 . S
N416 S414 1.610 . S
N416 C417 1.351 . S
C417 C411 1.428 . S
C417 N416 1.351 . S
C417 C418 1.434 . S
C418 C409 1.429 . S
C418 N415 1.350 . S
C418 C417 1.434 . S
C419 C420 1.369 . S
C419 C421 1.419 . S
C419 H423 0.930 . S
C420 C419 1.369 . S
C420 C429 1.429 . S
C421 C419 1.419 . S
C421 C422 1.363 . S
C421 H424 0.929 . S
C422 C421 1.363 . S
C422 C428 1.428 . S
H423 C419 0.930 . S
H424 C421 0.929 . S
S425 N426 1.613 . S
S425 N427 1.610 . S
N426 S425 1.613 . S
N426 C429 1.350 . S
N427 S425 1.610 . S
N427 C428 1.351 . S
C428 C422 1.428 . S
C428 N427 1.351 . S
C428 C429 1.434 . S
C429 C420 1.429 . S
C429 N426 1.350 . S
C429 C428 1.434 . S
C430 C431 1.369 . S
C430 C432 1.419 . S
C430 H434 0.930 . S
C431 C430 1.369 . S
C431 C440 1.429 . S
C432 C430 1.419 . S
C432 C433 1.363 . S
C432 H435 0.929 . S
C433 C432 1.363 . S
C433 C439 1.428 . S
H434 C430 0.930 . S
H435 C432 0.929 . S
S436 N437 1.613 . S
S436 N438 1.610 . S
N437 S436 1.613 . S
N437 C440 1.350 . S
N438 S436 1.610 . S
N438 C439 1.351 . S
C439 C433 1.428 . S
C439 N438 1.351 . S
C439 C440 1.434 . S
C440 C431 1.429 . S
C440 N437 1.350 . S
C440 C439 1.434 . S
C441 C442 1.369 . S
C441 C443 1.419 . S
C441 H445 0.930 . S
C442 C441 1.369 . S
C442 C451 1.429 . S
C443 C441 1.419 . S
C443 C444 1.363 . S
C443 H446 0.929 . S
C444 C443 1.363 . S
C444 C450 1.428 . S
H445 C441 0.930 . S
H446 C443 0.929 . S
S447 N448 1.613 . S
S447 N449 1.610 . S
N448 S447 1.613 . S
N448 C451 1.350 . S
N449 S447 1.610 . S
N449 C450 1.351 . S
C450 C444 1.428 . S
C450 N449 1.351 . S
C450 C451 1.434 . S
C451 C442 1.429 . S
C451 N448 1.350 . S
C451 C450 1.434 . S
C452 C453 1.369 . S
C452 C454 1.419 . S
C452 H456 0.930 . S
C453 C452 1.369 . S
C453 C462 1.429 . S
C454 C452 1.419 . S
C454 C455 1.363 . S
C454 H457 0.929 . S
C455 C454 1.363 . S
C455 C461 1.428 . S
H456 C452 0.930 . S
H457 C454 0.929 . S
S458 N459 1.613 . S
S458 N460 1.610 . S
N459 S458 1.613 . S
N459 C462 1.350 . S
N460 S458 1.610 . S
N460 C461 1.351 . S
C461 C455 1.428 . S
C461 N460 1.351 . S
C461 C462 1.434 . S
C462 C453 1.429 . S
C462 N459 1.350 . S
C462 C461 1.434 . S
C463 C464 1.369 . S
C463 C465 1.419 . S
C463 H467 0.930 . S
C464 C463 1.369 . S
C464 C473 1.429 . S
C465 C463 1.419 . S
C465 C466 1.363 . S
C465 H468 0.929 . S
C466 C465 1.363 . S
C466 C472 1.428 . S
H467 C463 0.930 . S
H468 C465 0.929 . S
S469 N470 1.613 . S
S469 N471 1.610 . S
N470 S469 1.613 . S
N470 C473 1.350 . S
N471 S469 1.610 . S
N471 C472 1.351 . S
C472 C466 1.428 . S
C472 N471 1.351 . S
C472 C473 1.434 . S
C473 C464 1.429 . S
C473 N470 1.350 . S
C473 C472 1.434 . S
C474 C475 1.369 . S
C474 C476 1.419 . S
C474 H478 0.930 . S
C475 C474 1.369 . S
C475 C484 1.429 . S
C476 C474 1.419 . S
C476 C477 1.363 . S
C476 H479 0.929 . S
C477 C476 1.363 . S
C477 C483 1.428 . S
H478 C474 0.930 . S
H479 C476 0.929 . S
S480 N481 1.613 . S
S480 N482 1.610 . S
N481 S480 1.613 . S
N481 C484 1.350 . S
N482 S480 1.610 . S
N482 C483 1.351 . S
C483 C477 1.428 . S
C483 N482 1.351 . S
C483 C484 1.434 . S
C484 C475 1.429 . S
C484 N481 1.350 . S
C484 C483 1.434 . S
C485 C486 1.369 . S
C485 C487 1.419 . S
C485 H489 0.930 . S
C486 C485 1.369 . S
C486 C495 1.429 . S
C487 C485 1.419 . S
C487 C488 1.363 . S
C487 H490 0.929 . S
C488 C487 1.363 . S
C488 C494 1.428 . S
H489 C485 0.930 . S
H490 C487 0.929 . S
S491 N492 1.613 . S
S491 N493 1.610 . S
N492 S491 1.613 . S
N492 C495 1.350 . S
N493 S491 1.610 . S
N493 C494 1.351 . S
C494 C488 1.428 . S
C494 N493 1.351 . S
C494 C495 1.434 . S
C495 C486 1.429 . S
C495 N492 1.350 . S
C495 C494 1.434 . S
C496 C497 1.369 1_465 S
C496 C498 1.419 1_556 S
C496 H500 0.930 . S
C497 C496 1.369 1_645 S
C497 C506 1.429 . S
C498 C496 1.419 1_554 S
C498 C499 1.363 . S
C498 H501 0.929 . S
C499 C498 1.363 . S
C499 C505 1.428 1_465 S
H500 C496 0.930 . S
H501 C498 0.929 . S
S502 N503 1.613 1_554 S
S502 N504 1.610 . S
N503 S502 1.613 1_556 S
N503 C506 1.350 . S
N504 S502 1.610 . S
N504 C505 1.351 . S
C505 C499 1.428 1_645 S
C505 N504 1.351 . S
C505 C506 1.434 1_554 S
C506 C497 1.429 . S
C506 N503 1.350 . S
C506 C505 1.434 1_556 S
C507 C508 1.369 . S
C507 C509 1.419 . S
C507 H511 0.930 . S
C508 C507 1.369 . S
C508 C517 1.429 . S
C509 C507 1.419 . S
C509 C510 1.363 . S
C509 H512 0.929 . S
C510 C509 1.363 . S
C510 C516 1.428 . S
H511 C507 0.930 . S
H512 C509 0.929 . S
S513 N514 1.613 . S
S513 N515 1.610 . S
N514 S513 1.613 . S
N514 C517 1.350 . S
N515 S513 1.610 . S
N515 C516 1.351 . S
C516 C510 1.428 . S
C516 N515 1.351 . S
C516 C517 1.434 . S
C517 C508 1.429 . S
C517 N514 1.350 . S
C517 C516 1.434 . S
C518 C519 1.369 . S
C518 C520 1.419 . S
C518 H522 0.930 . S
C519 C518 1.369 . S
C519 C528 1.429 1_545 S
C520 C518 1.419 . S
C520 C521 1.363 1_545 S
C520 H523 0.929 . S
C521 C520 1.363 1_565 S
C521 C527 1.428 . S
H522 C518 0.930 . S
H523 C520 0.929 . S
S524 N525 1.613 . S
S524 N526 1.610 . S
N525 S524 1.613 . S
N525 C528 1.350 . S
N526 S524 1.610 . S
N526 C527 1.351 . S
C527 C521 1.428 . S
C527 N526 1.351 . S
C527 C528 1.434 . S
C528 C519 1.429 1_565 S
C528 N525 1.350 . S
C528 C527 1.434 . S
C529 C530 1.369 . S
C529 C531 1.419 . S
C529 H533 0.930 . S
C530 C529 1.369 . S
C530 C539 1.429 . S
C531 C529 1.419 . S
C531 C532 1.363 . S
C531 H534 0.929 . S
C532 C531 1.363 . S
C532 C538 1.428 . S
H533 C529 0.930 . S
H534 C531 0.929 . S
S535 N536 1.613 . S
S535 N537 1.610 . S
N536 S535 1.613 . S
N536 C539 1.350 . S
N537 S535 1.610 . S
N537 C538 1.351 . S
C538 C532 1.428 . S
C538 N537 1.351 . S
C538 C539 1.434 . S
C539 C530 1.429 . S
C539 N536 1.350 . S
C539 C538 1.434 . S
C540 C541 1.369 . S
C540 C542 1.419 . S
C540 H544 0.930 . S
C541 C540 1.369 . S
C541 C550 1.429 . S
C542 C540 1.419 . S
C542 C543 1.363 . S
C542 H545 0.929 . S
C543 C542 1.363 . S
C543 C549 1.428 . S
H544 C540 0.930 . S
H545 C542 0.929 . S
S546 N547 1.613 . S
S546 N548 1.610 . S
N547 S546 1.613 . S
N547 C550 1.350 . S
N548 S546 1.610 . S
N548 C549 1.351 . S
C549 C543 1.428 . S
C549 N548 1.351 . S
C549 C550 1.434 . S
C550 C541 1.429 . S
C550 N547 1.350 . S
C550 C549 1.434 . S
C551 C552 1.369 . S
C551 C553 1.419 . S
C551 H555 0.930 . S
C552 C551 1.369 . S
C552 C561 1.429 . S
C553 C551 1.419 . S
C553 C554 1.363 . S
C553 H556 0.929 . S
C554 C553 1.363 . S
C554 C560 1.428 . S
H555 C551 0.930 . S
H556 C553 0.929 . S
S557 N558 1.613 . S
S557 N559 1.610 . S
N558 S557 1.613 . S
N558 C561 1.350 . S
N559 S557 1.610 . S
N559 C560 1.351 . S
C560 C554 1.428 . S
C560 N559 1.351 . S
C560 C561 1.434 . S
C561 C552 1.429 . S
C561 N558 1.350 . S
C561 C560 1.434 . S
C562 C563 1.369 . S
C562 C564 1.419 . S
C562 H566 0.930 . S
C563 C562 1.369 . S
C563 C572 1.429 . S
C564 C562 1.419 . S
C564 C565 1.363 . S
C564 H567 0.929 . S
C565 C564 1.363 . S
C565 C571 1.428 . S
H566 C562 0.930 . S
H567 C564 0.929 . S
S568 N569 1.613 . S
S568 N570 1.610 . S
N569 S568 1.613 . S
N569 C572 1.350 . S
N570 S568 1.610 . S
N570 C571 1.351 . S
C571 C565 1.428 . S
C571 N570 1.351 . S
C571 C572 1.434 . S
C572 C563 1.429 . S
C572 N569 1.350 . S
C572 C571 1.434 . S
C573 C574 1.369 1_454 S
C573 C575 1.419 . S
C573 H577 0.930 . S
C574 C573 1.369 1_656 S
C574 C583 1.429 . S
C575 C573 1.419 . S
C575 C576 1.363 . S
C575 H578 0.929 . S
C576 C575 1.363 . S
C576 C582 1.428 1_454 S
H577 C573 0.930 . S
H578 C575 0.929 . S
S579 N580 1.613 . S
S579 N581 1.610 . S
N580 S579 1.613 . S
N580 C583 1.350 . S
N581 S579 1.610 . S
N581 C582 1.351 . S
C582 C576 1.428 1_656 S
C582 N581 1.351 . S
C582 C583 1.434 . S
C583 C574 1.429 . S
C583 N580 1.350 . S
C583 C582 1.434 . S
C321 C10 1.565 . S
C323 C129 1.549 . S
C332 C9 1.048 . S
C334 C49 1.047 . S
C343 C50 1.565 . S
C345 C89 1.555 . S
C354 C90 1.981 . S
C356 C130 1.978 . S
C365 C19 1.565 . S
C367 C218 1.553 . S
C376 C18 1.049 . S
C378 C178 1.048 . S
C387 C179 1.565 . S
C389 C98 1.548 . S
C398 C219 1.982 . S
C400 C99 1.985 . S
C409 C250 1.565 . S
C411 C209 1.554 . S
C420 C169 1.049 . S
C422 C249 1.048 . S
C431 C289 1.553 . S
C433 C170 1.566 . S
C442 C210 1.982 . S
C444 C290 1.982 . S
C453 C138 1.551 . S
C455 C259 1.565 . S
C464 C258 1.049 . S
C466 C58 1.050 . S
C475 C59 1.565 . S
C477 C298 1.551 . S
C486 C139 1.981 . S
C488 C299 1.980 . S
C497 C15 1.504 . S
C499 C6 1.498 . S
C508 C55 1.496 . S
C510 C46 1.505 . S
C519 C95 1.917 . S
C521 C86 1.915 . S
C530 C126 1.910 . S
C532 C135 1.919 . S
C541 C175 1.506 . S
C543 C166 1.497 . S
C552 C206 1.910 . S
C554 C215 1.920 . S
C563 C246 1.504 . S
C565 C255 1.498 . S
C574 C286 1.912 . S
C576 C295 1.918 . S
