# Generated by pormake.
# Topology vcq, (7)-cn, num edge types: 1
# Building blocks:
#     Node 0, Type 0, BuildingBlock: HICVOG_clean_sbu_0, # of connection points: 7
#     Node 1, Type 0, BuildingBlock: HICVOG_clean_sbu_0, # of connection points: 7
#     Node 2, Type 0, BuildingBlock: HICVOG_clean_sbu_0, # of connection points: 7
#     Node 3, Type 0, BuildingBlock: HICVOG_clean_sbu_0, # of connection points: 7
#     Node 4, Type 0, BuildingBlock: HICVOG_clean_sbu_0, # of connection points: 7
#     Node 5, Type 0, BuildingBlock: HICVOG_clean_sbu_0, # of connection points: 7
#     Node 6, Type 0, BuildingBlock: HICVOG_clean_sbu_0, # of connection points: 7
#     Node 7, Type 0, BuildingBlock: HICVOG_clean_sbu_0, # of connection points: 7
#     Node 8, Type 0, BuildingBlock: HICVOG_clean_sbu_0, # of connection points: 7
#     Node 9, Type 0, BuildingBlock: HICVOG_clean_sbu_0, # of connection points: 7
#     Node 10, Type 0, BuildingBlock: HICVOG_clean_sbu_0, # of connection points: 7
#     Node 11, Type 0, BuildingBlock: HICVOG_clean_sbu_0, # of connection points: 7
#     Node 12, Type 0, BuildingBlock: HICVOG_clean_sbu_0, # of connection points: 7
#     Node 13, Type 0, BuildingBlock: HICVOG_clean_sbu_0, # of connection points: 7
#     Node 14, Type 0, BuildingBlock: HICVOG_clean_sbu_0, # of connection points: 7
#     Node 15, Type 0, BuildingBlock: HICVOG_clean_sbu_0, # of connection points: 7
#     Edge 16, Type (0, 0), None
#     Edge 17, Type (0, 0), None
#     Edge 18, Type (0, 0), None
#     Edge 19, Type (0, 0), None
#     Edge 20, Type (0, 0), None
#     Edge 21, Type (0, 0), None
#     Edge 22, Type (0, 0), None
#     Edge 23, Type (0, 0), None
#     Edge 24, Type (0, 0), None
#     Edge 25, Type (0, 0), None
#     Edge 26, Type (0, 0), None
#     Edge 27, Type (0, 0), None
#     Edge 28, Type (0, 0), None
#     Edge 29, Type (0, 0), None
#     Edge 30, Type (0, 0), None
#     Edge 31, Type (0, 0), None
#     Edge 32, Type (0, 0), None
#     Edge 33, Type (0, 0), None
#     Edge 34, Type (0, 0), None
#     Edge 35, Type (0, 0), None
#     Edge 36, Type (0, 0), None
#     Edge 37, Type (0, 0), None
#     Edge 38, Type (0, 0), None
#     Edge 39, Type (0, 0), None
#     Edge 40, Type (0, 0), None
#     Edge 41, Type (0, 0), None
#     Edge 42, Type (0, 0), None
#     Edge 43, Type (0, 0), None
#     Edge 44, Type (0, 0), None
#     Edge 45, Type (0, 0), None
#     Edge 46, Type (0, 0), None
#     Edge 47, Type (0, 0), None
#     Edge 48, Type (0, 0), None
#     Edge 49, Type (0, 0), None
#     Edge 50, Type (0, 0), None
#     Edge 51, Type (0, 0), None
#     Edge 52, Type (0, 0), None
#     Edge 53, Type (0, 0), None
#     Edge 54, Type (0, 0), None
#     Edge 55, Type (0, 0), None
#     Edge 56, Type (0, 0), None
#     Edge 57, Type (0, 0), None
#     Edge 58, Type (0, 0), None
#     Edge 59, Type (0, 0), None
#     Edge 60, Type (0, 0), None
#     Edge 61, Type (0, 0), None
#     Edge 62, Type (0, 0), None
#     Edge 63, Type (0, 0), None
#     Edge 64, Type (0, 0), None
#     Edge 65, Type (0, 0), None
#     Edge 66, Type (0, 0), None
#     Edge 67, Type (0, 0), None
#     Edge 68, Type (0, 0), None
#     Edge 69, Type (0, 0), None
#     Edge 70, Type (0, 0), None
#     Edge 71, Type (0, 0), None
# Relax obj value: 0.334
# Max RMSD: 0.291
# Mean RMSD: 0.291
data_MOF--net-vcq--node1-HICVOG_clean_sbu_0--edge1-none
_symmetry_space_group_name_H-M    P1
_symmetry_Int_Tables_number       1
_symmetry_cell_setting            triclinic
loop_
_symmetry_equiv_pos_as_xyz
'x, y, z'
_cell_length_a     48.236468
_cell_length_b     15.636625
_cell_length_c     11.957168
_cell_angle_alpha  90.002777
_cell_angle_beta   89.991885
_cell_angle_gamma 89.987173
loop_
_atom_site_label
_atom_site_type_symbol
_atom_site_fract_x
_atom_site_fract_y
_atom_site_fract_z
_atom_type_partial_charge
Zn0 Zn 0.15975 0.46533 0.29129 0.0
C1 C 0.12631 0.40762 0.58701 0.0
N2 N 0.13034 0.49098 0.61233 0.0
C3 C 0.13644 0.52642 0.51192 0.0
N4 N 0.13657 0.46654 0.4294 0.0
N5 N 0.12917 0.39357 0.47677 0.0
C6 C 0.13079 0.16378 0.42117 0.0
O7 O 0.15212 0.21599 0.41776 0.0
O8 O 0.15873 0.57731 0.21158 0.0
Zn9 Zn 0.10645 0.31437 0.39642 0.0
N10 N 0.19784 0.44881 0.33952 0.0
C11 C 0.23147 0.42947 0.48313 0.0
C12 C 0.20394 0.43873 0.44983 0.0
C13 C 0.21823 0.44896 0.26097 0.0
N14 N 0.25184 0.43045 0.40484 0.0
C15 C 0.24608 0.43977 0.29403 0.0
O16 O 0.12138 0.29009 0.25092 0.0
C17 C 0.13627 0.30799 0.16855 0.0
O18 O 0.15207 0.37314 0.16971 0.0
H19 H 0.18768 0.43808 0.5118 0.0
H20 H 0.21268 0.45721 0.17392 0.0
C21 C 0.04699 0.34771 0.42307 0.0
C22 C 0.02149 0.37892 0.38311 0.0
C23 C 0.04424 0.43908 0.22644 0.0
C24 C 0.06948 0.40863 0.26646 0.0
N25 N 0.07036 0.36205 0.36246 0.0
N26 N 0.0208 0.42341 0.28546 0.0
H27 H 0.0482 0.31183 0.50037 0.0
C28 C 0.13882 0.59352 0.14575 0.0
O29 O 0.1182 0.5393 0.13791 0.0
O30 O 0.10705 0.19356 0.44716 0.0
H31 H 0.08819 0.41951 0.21923 0.0
H32 H 0.23664 0.42163 0.57059 0.0
H33 H 0.04326 0.47457 0.14888 0.0
Zn34 Zn 0.35526 0.68271 0.79142 0.0
C35 C 0.38861 0.74044 0.08723 0.0
N36 N 0.38458 0.65707 0.11253 0.0
C37 C 0.37852 0.62162 0.0121 0.0
N38 N 0.3784 0.6815 0.92959 0.0
N39 N 0.38578 0.75448 0.977 0.0
C40 C 0.38419 0.98429 0.92135 0.0
O41 O 0.36286 0.93212 0.91786 0.0
O42 O 0.35626 0.57071 0.71177 0.0
Zn43 Zn 0.40853 0.83366 0.8968 0.0
N44 N 0.31716 0.69932 0.83954 0.0
C45 C 0.2835 0.71868 0.98308 0.0
C46 C 0.31104 0.70943 0.94984 0.0
C47 C 0.29678 0.69917 0.76094 0.0
N48 N 0.26315 0.71768 0.90475 0.0
C49 C 0.26894 0.70835 0.79395 0.0
O50 O 0.39364 0.85782 0.75127 0.0
C51 C 0.3788 0.83995 0.66877 0.0
O52 O 0.36299 0.77481 0.66977 0.0
H53 H 0.32729 0.71008 0.01184 0.0
H54 H 0.30235 0.69089 0.67391 0.0
C55 C 0.468 0.80068 0.92346 0.0
C56 C 0.49352 0.76947 0.88356 0.0
C57 C 0.47077 0.7086 0.72738 0.0
C58 C 0.44552 0.73906 0.76733 0.0
N59 N 0.44463 0.78598 0.86304 0.0
N60 N 0.49421 0.72462 0.78619 0.0
H61 H 0.46679 0.83684 1.00053 0.0
C62 C 0.37616 0.55457 0.64583 0.0
O63 O 0.39675 0.60887 0.63788 0.0
O64 O 0.40791 0.95449 0.94747 0.0
H65 H 0.42681 0.72794 0.72025 0.0
H66 H 0.27832 0.72652 0.07053 0.0
H67 H 0.47175 0.67283 0.65003 0.0
Zn68 Zn 0.15982 0.68187 0.71369 0.0
C69 C 0.12636 0.7397 0.41799 0.0
N70 N 0.13032 0.65629 0.39269 0.0
C71 C 0.13643 0.62084 0.49309 0.0
N72 N 0.13666 0.68076 0.57556 0.0
N73 N 0.12931 0.75378 0.52817 0.0
C74 C 0.13101 0.98365 0.58377 0.0
O75 O 0.15233 0.93142 0.58735 0.0
O76 O 0.15884 0.56981 0.79325 0.0
Zn77 Zn 0.10662 0.83311 0.60843 0.0
N78 N 0.19791 0.69853 0.66548 0.0
C79 C 0.23155 0.71782 0.52184 0.0
C80 C 0.20402 0.70837 0.55513 0.0
C81 C 0.21829 0.69879 0.74407 0.0
N82 N 0.2519 0.71724 0.60019 0.0
C83 C 0.24612 0.70814 0.71102 0.0
O84 O 0.12153 0.85722 0.75393 0.0
C85 C 0.13636 0.83923 0.83643 0.0
O86 O 0.15211 0.77396 0.83543 0.0
H87 H 0.18777 0.70868 0.49312 0.0
H88 H 0.21273 0.69072 0.83114 0.0
C89 C 0.04714 0.80064 0.58195 0.0
C90 C 0.02161 0.76953 0.62178 0.0
C91 C 0.04435 0.70814 0.77766 0.0
C92 C 0.06962 0.7385 0.73776 0.0
N93 N 0.07052 0.78563 0.64223 0.0
N94 N 0.02091 0.72446 0.71897 0.0
H95 H 0.04837 0.83696 0.50501 0.0
C96 C 0.13895 0.55367 0.85925 0.0
O97 O 0.11836 0.60798 0.8673 0.0
O98 O 0.10728 0.9539 0.55768 0.0
H99 H 0.08833 0.72714 0.78475 0.0
H100 H 0.23672 0.72548 0.43436 0.0
H101 H 0.04336 0.67221 0.85487 0.0
Zn102 Zn 0.35522 0.46604 0.21383 0.0
C103 C 0.38865 0.40838 0.91805 0.0
N104 N 0.38465 0.49177 0.8928 0.0
C105 C 0.37856 0.52719 0.99324 0.0
N106 N 0.37838 0.46727 0.0757 0.0
N107 N 0.38576 0.39429 0.02826 0.0
C108 C 0.38417 0.16447 0.08384 0.0
O109 O 0.36283 0.21667 0.08735 0.0
O110 O 0.3562 0.57804 0.29351 0.0
Zn111 Zn 0.4085 0.31505 0.10842 0.0
N112 N 0.31713 0.44941 0.16565 0.0
C113 C 0.2835 0.43025 0.02197 0.0
C114 C 0.31103 0.43959 0.0553 0.0
C115 C 0.29674 0.44921 0.24422 0.0
N116 N 0.26314 0.43088 0.10029 0.0
C117 C 0.2689 0.43995 0.21114 0.0
O118 O 0.39362 0.29087 0.25397 0.0
C119 C 0.37877 0.30877 0.33647 0.0
O120 O 0.36296 0.37392 0.33545 0.0
H121 H 0.32729 0.43922 0.9933 0.0
H122 H 0.30229 0.45726 0.3313 0.0
C123 C 0.46797 0.34797 0.08168 0.0
C124 C 0.49348 0.37913 0.12156 0.0
C125 C 0.47074 0.43997 0.27782 0.0
C126 C 0.44548 0.40955 0.23789 0.0
N127 N 0.44459 0.36267 0.14215 0.0
N128 N 0.49418 0.42395 0.21896 0.0
H129 H 0.46675 0.31184 0.00458 0.0
C130 C 0.37613 0.59418 0.3593 0.0
O131 O 0.39673 0.53989 0.36707 0.0
O132 O 0.40789 0.19424 0.05769 0.0
H133 H 0.42677 0.42067 0.28502 0.0
H134 H 0.27834 0.42262 0.93448 0.0
H135 H 0.47172 0.47571 0.35519 0.0
Zn136 Zn 0.85644 0.69166 0.71757 0.0
C137 C 0.87665 0.74294 0.42205 0.0
N138 N 0.87039 0.66122 0.39594 0.0
C139 C 0.8706 0.62252 0.49651 0.0
N140 N 0.87713 0.67832 0.57959 0.0
N141 N 0.88271 0.75199 0.53128 0.0
C142 C 0.87901 0.9698 0.59913 0.0
O143 O 0.86065 0.91139 0.62628 0.0
O144 O 0.85957 0.58677 0.81382 0.0
Zn145 Zn 0.91062 0.82659 0.5947 0.0
N146 N 0.81766 0.70862 0.67183 0.0
C147 C 0.7845 0.73707 0.528 0.0
C148 C 0.81182 0.72891 0.56349 0.0
C149 C 0.79679 0.69981 0.7473 0.0
N150 N 0.76376 0.72789 0.60312 0.0
C151 C 0.76909 0.71026 0.71231 0.0
O152 O 0.91061 0.84003 0.76471 0.0
C153 C 0.89019 0.84061 0.83237 0.0
O154 O 0.86871 0.79437 0.8156 0.0
H155 H 0.82794 0.73943 0.50405 0.0
H156 H 0.80181 0.68538 0.83351 0.0
C157 C 0.97063 0.79772 0.60154 0.0
C158 C 0.99641 0.77553 0.55424 0.0
C159 C 0.9743 0.74382 0.38302 0.0
C160 C 0.94883 0.76457 0.4304 0.0
N161 N 0.94732 0.79349 0.5375 0.0
N162 N 0.99753 0.74997 0.4458 0.0
H163 H 0.96913 0.81788 0.68796 0.0
C164 C 0.88229 0.56642 0.8607 0.0
O165 O 0.90459 0.61246 0.84217 0.0
O166 O 0.90218 0.94681 0.55869 0.0
H167 H 0.93055 0.7577 0.38125 0.0
H168 H 0.77981 0.7522 0.44175 0.0
H169 H 0.97557 0.72225 0.29719 0.0
Zn170 Zn 0.60448 0.32302 0.09455 0.0
C171 C 0.64482 0.52695 0.99666 0.0
N172 N 0.64508 0.48816 0.89613 0.0
C173 C 0.63859 0.40661 0.92218 0.0
N174 N 0.63234 0.39787 0.03126 0.0
N175 N 0.63803 0.4714 0.07976 0.0
C176 C 0.63289 0.58296 0.36076 0.0
O177 O 0.6106 0.5369 0.3422 0.0
O178 O 0.61299 0.20286 0.05833 0.0
Zn179 Zn 0.65865 0.45757 0.21785 0.0
N180 N 0.5678 0.35607 0.0373 0.0
C181 C 0.54084 0.40652 0.88322 0.0
C182 C 0.56632 0.38576 0.93055 0.0
C183 C 0.54446 0.3512 0.10113 0.0
N184 N 0.51759 0.39975 0.94579 0.0
C185 C 0.51869 0.3735 0.05395 0.0
O186 O 0.64623 0.35512 0.31593 0.0
C187 C 0.62475 0.30885 0.33251 0.0
O188 O 0.60441 0.30927 0.26453 0.0
H189 H 0.58462 0.39326 0.88165 0.0
H190 H 0.54595 0.33053 0.18735 0.0
C191 C 0.71827 0.44971 0.2475 0.0
C192 C 0.74596 0.43862 0.2127 0.0
C193 C 0.73052 0.40924 0.02913 0.0
C194 C 0.70321 0.41795 0.06453 0.0
N195 N 0.69739 0.43987 0.17235 0.0
N196 N 0.75127 0.41943 0.10394 0.0
H197 H 0.71327 0.46539 0.33336 0.0
C198 C 0.63613 0.17987 0.09906 0.0
O199 O 0.65445 0.2383 0.12652 0.0
O200 O 0.65562 0.56255 0.31401 0.0
H201 H 0.68706 0.40651 0.00549 0.0
H202 H 0.53959 0.42863 0.79763 0.0
H203 H 0.73519 0.39288 0.94323 0.0
Zn204 Zn 0.85629 0.45912 0.28782 0.0
C205 C 0.87658 0.4077 0.58326 0.0
N206 N 0.87045 0.48951 0.60947 0.0
C207 C 0.87064 0.52821 0.50891 0.0
N208 N 0.87703 0.47232 0.42571 0.0
N209 N 0.88255 0.39859 0.47397 0.0
C210 C 0.87881 0.18073 0.40598 0.0
O211 O 0.86046 0.23915 0.37882 0.0
O212 O 0.85945 0.56399 0.19157 0.0
Zn213 Zn 0.91045 0.32394 0.41054 0.0
N214 N 0.8175 0.44239 0.33372 0.0
C215 C 0.78432 0.41543 0.47801 0.0
C216 C 0.81164 0.42351 0.44249 0.0
C217 C 0.79665 0.44996 0.25795 0.0
N218 N 0.76361 0.4234 0.4026 0.0
C219 C 0.76895 0.43968 0.29307 0.0
O220 O 0.91046 0.3107 0.24052 0.0
C221 C 0.89004 0.3101 0.17288 0.0
O222 O 0.86854 0.35632 0.18971 0.0
H223 H 0.82774 0.41405 0.5023 0.0
H224 H 0.80168 0.46329 0.17145 0.0
C225 C 0.97047 0.35167 0.4038 0.0
C226 C 0.99628 0.37369 0.45084 0.0
C227 C 0.97422 0.40705 0.62165 0.0
C228 C 0.94871 0.38656 0.57447 0.0
N229 N 0.94716 0.35685 0.46773 0.0
N230 N 0.99745 0.39998 0.55897 0.0
H231 H 0.96894 0.33094 0.31762 0.0
C232 C 0.88217 0.58421 0.14461 0.0
O233 O 0.90445 0.53804 0.16309 0.0
O234 O 0.90198 0.20371 0.44641 0.0
H235 H 0.93043 0.39425 0.62351 0.0
H236 H 0.77962 0.40135 0.56456 0.0
H237 H 0.97552 0.42918 0.70722 0.0
Zn238 Zn 0.60455 0.8253 0.91053 0.0
C239 C 0.64475 0.62132 0.00879 0.0
N240 N 0.64497 0.66012 0.10931 0.0
C241 C 0.63857 0.74173 0.08314 0.0
N242 N 0.63242 0.7505 0.97398 0.0
N243 N 0.63809 0.67691 0.92557 0.0
C244 C 0.63295 0.56536 0.64461 0.0
O245 O 0.61067 0.61152 0.66324 0.0
O246 O 0.61303 0.94551 0.9465 0.0
Zn247 Zn 0.65877 0.69059 0.78756 0.0
N248 N 0.56784 0.79239 0.9678 0.0
C249 C 0.54085 0.74234 0.12201 0.0
C250 C 0.56634 0.76294 0.07465 0.0
C251 C 0.54452 0.79722 0.90392 0.0
N252 N 0.51761 0.74906 0.05939 0.0
C253 C 0.51873 0.77509 0.95115 0.0
O254 O 0.64641 0.7932 0.68951 0.0
C255 C 0.6249 0.83935 0.67277 0.0
O256 O 0.6045 0.83873 0.74052 0.0
H257 H 0.58463 0.7555 0.12362 0.0
H258 H 0.54601 0.81772 0.81764 0.0
C259 C 0.71841 0.69929 0.75774 0.0
C260 C 0.74609 0.71017 0.79269 0.0
C261 C 0.73066 0.73709 0.97692 0.0
C262 C 0.70335 0.72852 0.94147 0.0
N263 N 0.69753 0.70795 0.8332 0.0
N264 N 0.7514 0.72805 0.90182 0.0
H265 H 0.71341 0.68468 0.67157 0.0
C266 C 0.63619 0.96853 0.90594 0.0
O267 O 0.65454 0.91013 0.87869 0.0
O268 O 0.65569 0.58567 0.69133 0.0
H269 H 0.68721 0.73898 1.00088 0.0
H270 H 0.53958 0.72039 0.20767 0.0
H271 H 0.73533 0.75244 0.06313 0.0
Zn272 Zn 0.65976 0.96596 0.29136 0.0
C273 C 0.62641 0.90808 0.58714 0.0
N274 N 0.63039 0.99146 0.61248 0.0
C275 C 0.63646 1.02695 0.51207 0.0
N276 N 0.6366 0.96709 0.42952 0.0
N277 N 0.62925 0.89407 0.47689 0.0
C278 C 0.63091 0.66425 0.42137 0.0
O279 O 0.65224 0.71643 0.41778 0.0
O280 O 0.65874 0.07799 0.21175 0.0
Zn281 Zn 0.60655 0.81482 0.3966 0.0
N282 N 0.69786 0.94943 0.33953 0.0
C283 C 0.7315 0.93009 0.48311 0.0
C284 C 0.70396 0.93935 0.44984 0.0
C285 C 0.71824 0.94956 0.26096 0.0
N286 N 0.75186 0.93105 0.4048 0.0
C287 C 0.74609 0.94038 0.294 0.0
O288 O 0.62146 0.79058 0.25107 0.0
C289 C 0.63631 0.80857 0.16862 0.0
O290 O 0.65208 0.87379 0.16971 0.0
H291 H 0.68771 0.93871 0.51183 0.0
H292 H 0.71269 0.95781 0.17392 0.0
C293 C 0.54707 0.84775 0.42319 0.0
C294 C 0.52156 0.87895 0.3833 0.0
C295 C 0.54431 0.93977 0.22708 0.0
C296 C 0.56957 0.90933 0.26703 0.0
N297 N 0.57045 0.86243 0.36276 0.0
N298 N 0.52087 0.92378 0.28591 0.0
H299 H 0.54829 0.81162 0.50028 0.0
C300 C 0.63886 0.09416 0.14574 0.0
O301 O 0.61826 1.03989 0.13766 0.0
O302 O 0.60718 0.69403 0.44741 0.0
H303 H 0.58828 0.92045 0.21994 0.0
H304 H 0.73667 0.92225 0.57057 0.0
H305 H 0.54333 0.97552 0.14972 0.0
Zn306 Zn 0.85526 0.18356 0.79137 0.0
C307 C 0.88851 0.24138 0.08723 0.0
N308 N 0.88452 0.158 0.11254 0.0
C309 C 0.87849 0.12252 0.01208 0.0
N310 N 0.87839 0.18239 0.92954 0.0
N311 N 0.88574 0.25539 0.97696 0.0
C312 C 0.88424 0.48518 0.92146 0.0
O313 O 0.86288 0.43308 0.91797 0.0
O314 O 0.85631 1.0716 0.71165 0.0
Zn315 Zn 0.90852 0.33453 0.89677 0.0
N316 N 0.81715 0.19999 0.83946 0.0
C317 C 0.78348 0.219 0.98305 0.0
C318 C 0.81102 0.20993 0.94978 0.0
C319 C 0.79677 0.19985 0.76086 0.0
N320 N 0.76313 0.21801 0.90472 0.0
C321 C 0.76892 0.20887 0.79389 0.0
O322 O 0.89363 0.35879 0.75124 0.0
C323 C 0.87878 0.34089 0.66878 0.0
O324 O 0.86298 0.27574 0.66981 0.0
H325 H 0.82727 0.21058 0.01179 0.0
H326 H 0.80234 0.19171 0.67381 0.0
C327 C 0.96798 0.30115 0.92351 0.0
C328 C 0.99349 0.26994 0.88352 0.0
C329 C 0.97074 0.20972 0.7269 0.0
C330 C 0.94549 0.24018 0.76693 0.0
N331 N 0.94461 0.28678 0.86292 0.0
N332 N 0.99418 0.22542 0.78589 0.0
H333 H 0.96677 0.33705 1.00079 0.0
C334 C 0.87624 1.05549 0.64583 0.0
O335 O 0.89683 0.10978 0.63799 0.0
O336 O 0.90795 0.45533 0.94752 0.0
H337 H 0.92679 0.2293 0.71971 0.0
H338 H 0.77829 0.22669 0.07052 0.0
H339 H 0.97172 0.17422 0.64934 0.0
Zn340 Zn 0.6598 0.18247 0.71379 0.0
C341 C 0.62628 0.24018 0.4182 0.0
N342 N 0.63025 0.15679 0.39289 0.0
C343 C 0.63639 0.12137 0.49327 0.0
N344 N 0.63661 0.18129 0.57575 0.0
N345 N 0.62921 0.25428 0.52839 0.0
C346 C 0.63094 0.48409 0.58398 0.0
O347 O 0.65226 0.43183 0.58751 0.0
O348 O 0.65882 1.07045 0.79344 0.0
Zn349 Zn 0.60654 0.33361 0.60877 0.0
N350 N 0.69788 0.19911 0.6655 0.0
C351 C 0.73151 0.21849 0.52184 0.0
C352 C 0.70398 0.20902 0.55515 0.0
C353 C 0.71826 0.19931 0.74406 0.0
N354 N 0.75187 0.21788 0.60015 0.0
C355 C 0.7461 0.20869 0.71098 0.0
O356 O 0.62145 0.35782 0.75428 0.0
C357 C 0.63632 0.33981 0.83666 0.0
O358 O 0.65211 0.27461 0.83546 0.0
H359 H 0.68772 0.20938 0.49317 0.0
H360 H 0.71271 0.1912 0.83113 0.0
C361 C 0.54707 0.30078 0.5821 0.0
C362 C 0.52154 0.26966 0.62196 0.0
C363 C 0.54426 0.20896 0.77836 0.0
C364 C 0.56952 0.23932 0.73844 0.0
N365 N 0.57043 0.28612 0.64263 0.0
N366 N 0.52083 0.22493 0.71943 0.0
H367 H 0.5483 0.33683 0.50495 0.0
C368 C 0.63891 1.05424 0.85928 0.0
O369 O 0.61829 0.10846 0.86715 0.0
O370 O 0.6072 0.4544 0.55798 0.0
H371 H 0.58822 0.22819 0.7856 0.0
H372 H 0.73667 0.22622 0.43436 0.0
H373 H 0.54325 0.17329 0.85578 0.0
Zn374 Zn 0.85521 0.9669 0.2138 0.0
C375 C 0.88864 0.90929 0.91805 0.0
N376 N 0.88465 0.99268 0.89279 0.0
C377 C 0.87856 1.0281 0.99324 0.0
N378 N 0.87839 0.96818 0.0757 0.0
N379 N 0.88577 0.8952 0.02826 0.0
C380 C 0.88415 0.66544 0.08386 0.0
O381 O 0.86282 0.71767 0.08743 0.0
O382 O 0.85615 0.0789 0.29343 0.0
Zn383 Zn 0.90852 0.81596 0.10839 0.0
N384 N 0.81713 0.95013 0.1656 0.0
C385 C 0.78351 0.93081 0.02194 0.0
C386 C 0.81104 0.94025 0.05525 0.0
C387 C 0.79675 0.94991 0.24417 0.0
N388 N 0.76315 0.93143 0.10026 0.0
C389 C 0.76891 0.94056 0.21109 0.0
O390 O 0.89365 0.79185 0.25398 0.0
C391 C 0.87881 0.80975 0.3365 0.0
O392 O 0.86298 0.87485 0.33548 0.0
H393 H 0.82729 0.9399 0.99325 0.0
H394 H 0.80229 0.95802 0.33124 0.0
C395 C 0.968 0.84852 0.08169 0.0
C396 C 0.99352 0.87966 0.12148 0.0
C397 C 0.97078 0.94109 0.27736 0.0
C398 C 0.94552 0.91068 0.23751 0.0
N399 N 0.94462 0.86353 0.142 0.0
N400 N 0.99423 0.92477 0.21865 0.0
H401 H 0.96677 0.81216 0.00478 0.0
C402 C 0.87606 0.09504 0.35931 0.0
O403 O 0.89666 1.04076 0.36719 0.0
O404 O 0.90788 0.69514 0.0577 0.0
H405 H 0.92681 0.92202 0.28452 0.0
H406 H 0.77835 0.92313 0.93445 0.0
H407 H 0.97177 0.97704 0.35455 0.0
Zn408 Zn 0.35638 0.19078 0.71759 0.0
C409 C 0.37661 0.24197 0.42202 0.0
N410 N 0.37035 0.16024 0.39592 0.0
C411 C 0.37054 0.12156 0.4965 0.0
N412 N 0.37706 0.17738 0.57958 0.0
N413 N 0.38265 0.25104 0.53124 0.0
C414 C 0.37891 0.46889 0.5991 0.0
O415 O 0.36056 0.41049 0.62638 0.0
O416 O 0.3595 0.08587 0.8138 0.0
Zn417 Zn 0.41054 0.32571 0.59458 0.0
N418 N 0.31761 0.20785 0.67186 0.0
C419 C 0.28445 0.2363 0.52799 0.0
C420 C 0.31177 0.22804 0.56348 0.0
C421 C 0.29674 0.19922 0.74736 0.0
N422 N 0.26372 0.22729 0.60313 0.0
C423 C 0.26904 0.20975 0.71235 0.0
O424 O 0.41055 0.33918 0.76457 0.0
C425 C 0.39017 0.3397 0.83236 0.0
O426 O 0.36868 0.29347 0.81567 0.0
H427 H 0.3279 0.23841 0.50401 0.0
H428 H 0.30174 0.18487 0.83359 0.0
C429 C 0.47055 0.29741 0.6014 0.0
C430 C 0.49635 0.27527 0.55428 0.0
C431 C 0.47428 0.24269 0.38325 0.0
C432 C 0.44878 0.26333 0.43049 0.0
N433 N 0.44724 0.29269 0.53739 0.0
N434 N 0.4975 0.24931 0.446 0.0
H435 H 0.46903 0.31787 0.68769 0.0
C436 C 0.38223 1.06554 0.86065 0.0
O437 O 0.40452 0.11162 0.84211 0.0
O438 O 0.40207 0.44591 0.55856 0.0
H439 H 0.4305 0.25605 0.38138 0.0
H440 H 0.27977 0.25136 0.44171 0.0
H441 H 0.47558 0.22081 0.29757 0.0
Zn442 Zn 0.15869 0.95724 0.21763 0.0
C443 C 0.13856 0.90603 0.92197 0.0
N444 N 0.14494 0.98767 0.89587 0.0
C445 C 0.14473 1.02643 0.9964 0.0
N446 N 0.13808 0.97072 0.07948 0.0
N447 N 0.13245 0.89709 0.03116 0.0
C448 C 0.13609 0.67922 0.09905 0.0
O449 O 0.15445 0.73756 0.12632 0.0
O450 O 0.15554 1.06219 0.3138 0.0
Zn451 Zn 0.10451 0.82252 0.09453 0.0
N452 N 0.19746 0.93994 0.17214 0.0
C453 C 0.23062 0.91037 0.02864 0.0
C454 C 0.2033 0.91886 0.06404 0.0
C455 C 0.21833 0.94918 0.2475 0.0
N456 N 0.25135 0.91997 0.10365 0.0
C457 C 0.24602 0.93835 0.21263 0.0
O458 O 0.10447 0.80895 0.26452 0.0
C459 C 0.12485 0.8084 0.33232 0.0
O460 O 0.14634 0.85462 0.31566 0.0
H461 H 0.18717 0.90794 0.00476 0.0
H462 H 0.21331 0.9642 0.33354 0.0
C463 C 0.0445 0.85138 0.10125 0.0
C464 C 0.01874 0.87366 0.05394 0.0
C465 C 0.04088 0.90561 0.88287 0.0
C466 C 0.06635 0.88481 0.93026 0.0
N467 N 0.06783 0.8557 0.03728 0.0
N468 N 0.01764 0.89937 0.94557 0.0
H469 H 0.04598 0.83111 0.18762 0.0
C470 C 0.1328 0.08251 0.36052 0.0
O471 O 0.11052 1.03638 0.34192 0.0
O472 O 0.11294 0.70227 0.0585 0.0
H473 H 0.08464 0.89178 0.88119 0.0
H474 H 0.23531 0.89464 0.94255 0.0
H475 H 0.03963 0.92731 0.7971 0.0
Zn476 Zn 0.35635 0.9581 0.28778 0.0
C477 C 0.37663 0.90678 0.58326 0.0
N478 N 0.37041 0.98853 0.60944 0.0
C479 C 0.3706 1.02724 0.50888 0.0
N480 N 0.37706 0.9714 0.42571 0.0
N481 N 0.38263 0.89771 0.47399 0.0
C482 C 0.37889 0.67987 0.40598 0.0
O483 O 0.36053 0.73828 0.37884 0.0
O484 O 0.35948 1.06298 0.19151 0.0
Zn485 Zn 0.41053 0.82306 0.41052 0.0
N486 N 0.31757 0.94121 0.33361 0.0
C487 C 0.2844 0.91339 0.47765 0.0
C488 C 0.31172 0.9216 0.44217 0.0
C489 C 0.29671 0.94933 0.25798 0.0
N490 N 0.26368 0.9219 0.40238 0.0
C491 C 0.26902 0.93888 0.29302 0.0
O492 O 0.41054 0.80978 0.24051 0.0
C493 C 0.39013 0.80916 0.17287 0.0
O494 O 0.36862 0.85533 0.1897 0.0
H495 H 0.32783 0.91167 0.50181 0.0
H496 H 0.30173 0.96322 0.17163 0.0
C497 C 0.47055 0.85127 0.40375 0.0
C498 C 0.49635 0.87334 0.45093 0.0
C499 C 0.47426 0.90589 0.62195 0.0
C500 C 0.44877 0.8853 0.57466 0.0
N501 N 0.44724 0.856 0.46774 0.0
N502 N 0.49749 0.89925 0.55922 0.0
H503 H 0.46905 0.83085 0.31744 0.0
C504 C 0.38221 0.08324 0.14458 0.0
O505 O 0.40449 1.03711 0.16307 0.0
O506 O 0.40207 0.70283 0.44637 0.0
H507 H 0.43049 0.89261 0.62376 0.0
H508 H 0.2797 0.89876 0.56406 0.0
H509 H 0.47554 0.92773 0.70765 0.0
Zn510 Zn 0.10453 0.32488 0.91058 0.0
C511 C 0.14468 0.12078 0.00863 0.0
N512 N 0.14491 0.15954 0.10917 0.0
C513 C 0.13852 0.24116 0.08306 0.0
N514 N 0.13237 0.24999 0.97391 0.0
N515 N 0.13804 0.17642 0.92544 0.0
C516 C 0.13298 1.06493 0.64441 0.0
O517 O 0.11069 0.11103 0.66296 0.0
O518 O 0.11306 0.44505 0.94659 0.0
Zn519 Zn 0.15872 0.1902 0.78746 0.0
N520 N 0.06782 0.29203 0.96788 0.0
C521 C 0.0408 0.24152 0.12177 0.0
C522 C 0.0663 0.26208 0.0745 0.0
C523 C 0.04449 0.29733 0.90409 0.0
N524 N 0.01756 0.24871 0.05924 0.0
C525 C 0.01869 0.2752 0.95118 0.0
O526 O 0.14633 0.29277 0.68935 0.0
C527 C 0.12482 0.33891 0.67268 0.0
O528 O 0.10445 0.33838 0.74058 0.0
H529 H 0.0846 0.25422 0.12337 0.0
H530 H 0.046 0.31819 0.81796 0.0
C531 C 0.21835 0.19892 0.75774 0.0
C532 C 0.24604 0.2098 0.79271 0.0
C533 C 0.23059 0.23692 0.97688 0.0
C534 C 0.20328 0.22833 0.94141 0.0
N535 N 0.19747 0.20767 0.83316 0.0
N536 N 0.25134 0.22778 0.90181 0.0
H537 H 0.21336 0.18421 0.67159 0.0
C538 C 0.13621 0.46797 0.90595 0.0
O539 O 0.15454 0.40952 0.87856 0.0
O540 O 0.15571 0.08527 0.69123 0.0
H541 H 0.18714 0.23883 1.00078 0.0
H542 H 0.03952 0.21922 0.20727 0.0
H543 H 0.23525 0.25234 0.06307 0.0
loop_
_geom_bond_atom_site_label_1
_geom_bond_atom_site_label_2
_geom_bond_distance
_geom_bond_site_symmetry_2
_ccdc_geom_bond_type
Zn0 N4 2.020 . S
Zn0 O8 2.019 . S
Zn0 N10 2.119 . S
Zn0 O18 1.975 . S
C1 N2 1.334 . S
C1 N5 1.336 . S
N2 C1 1.334 . S
N2 C3 1.334 . S
C3 N2 1.334 . S
C3 N4 1.336 . S
N4 Zn0 2.020 . S
N4 C3 1.336 . S
N4 N5 1.354 . S
N5 C1 1.336 . S
N5 N4 1.354 . S
N5 Zn9 2.020 . S
C6 O7 1.244 . S
C6 O30 1.257 . S
O7 C6 1.244 . S
O8 Zn0 2.019 . S
O8 C28 1.257 . S
Zn9 N5 2.020 . S
Zn9 O16 1.975 . S
Zn9 N25 2.119 . S
Zn9 O30 2.019 . S
N10 Zn0 2.119 . S
N10 C12 1.334 . S
N10 C13 1.328 . S
C11 C12 1.391 . S
C11 N14 1.329 . S
C11 H32 0.930 . S
C12 N10 1.334 . S
C12 C11 1.391 . S
C12 H19 0.930 . S
C13 N10 1.328 . S
C13 C15 1.392 . S
C13 H20 0.930 . S
N14 C11 1.329 . S
N14 C15 1.331 . S
C15 C13 1.392 . S
C15 N14 1.331 . S
O16 Zn9 1.975 . S
O16 C17 1.252 . S
C17 O16 1.252 . S
C17 O18 1.252 . S
O18 Zn0 1.975 . S
O18 C17 1.252 . S
H19 C12 0.930 . S
H20 C13 0.930 . S
C21 C22 1.392 . S
C21 N25 1.328 . S
C21 H27 0.930 . S
C22 C21 1.392 . S
C22 N26 1.331 . S
C23 C24 1.391 . S
C23 N26 1.329 . S
C23 H33 0.930 . S
C24 C23 1.391 . S
C24 N25 1.334 . S
C24 H31 0.930 . S
N25 Zn9 2.119 . S
N25 C21 1.328 . S
N25 C24 1.334 . S
N26 C22 1.331 . S
N26 C23 1.329 . S
H27 C21 0.930 . S
C28 O8 1.257 . S
C28 O29 1.244 . S
O29 C28 1.244 . S
O30 C6 1.257 . S
O30 Zn9 2.019 . S
H31 C24 0.930 . S
H32 C11 0.930 . S
H33 C23 0.930 . S
Zn34 N38 2.020 . S
Zn34 O42 2.019 . S
Zn34 N44 2.119 . S
Zn34 O52 1.975 . S
C35 N36 1.334 . S
C35 N39 1.336 1_554 S
N36 C35 1.334 . S
N36 C37 1.334 . S
C37 N36 1.334 . S
C37 N38 1.336 1_554 S
N38 Zn34 2.020 . S
N38 C37 1.336 1_556 S
N38 N39 1.354 . S
N39 C35 1.336 1_556 S
N39 N38 1.354 . S
N39 Zn43 2.020 . S
C40 O41 1.244 . S
C40 O64 1.257 . S
O41 C40 1.244 . S
O42 Zn34 2.019 . S
O42 C62 1.257 . S
Zn43 N39 2.020 . S
Zn43 O50 1.975 . S
Zn43 N59 2.119 . S
Zn43 O64 2.019 . S
N44 Zn34 2.119 . S
N44 C46 1.334 . S
N44 C47 1.328 . S
C45 C46 1.391 . S
C45 N48 1.329 . S
C45 H66 0.930 . S
C46 N44 1.334 . S
C46 C45 1.391 . S
C46 H53 0.930 . S
C47 N44 1.328 . S
C47 C49 1.392 . S
C47 H54 0.930 . S
N48 C45 1.329 . S
N48 C49 1.331 . S
C49 C47 1.392 . S
C49 N48 1.331 . S
O50 Zn43 1.975 . S
O50 C51 1.252 . S
C51 O50 1.252 . S
C51 O52 1.252 . S
O52 Zn34 1.975 . S
O52 C51 1.252 . S
H53 C46 0.930 . S
H54 C47 0.930 . S
C55 C56 1.392 . S
C55 N59 1.328 . S
C55 H61 0.930 . S
C56 C55 1.392 . S
C56 N60 1.331 . S
C57 C58 1.391 . S
C57 N60 1.329 . S
C57 H67 0.930 . S
C58 C57 1.391 . S
C58 N59 1.334 . S
C58 H65 0.930 . S
N59 Zn43 2.119 . S
N59 C55 1.328 . S
N59 C58 1.334 . S
N60 C56 1.331 . S
N60 C57 1.329 . S
H61 C55 0.930 . S
C62 O42 1.257 . S
C62 O63 1.244 . S
O63 C62 1.244 . S
O64 C40 1.257 . S
O64 Zn43 2.019 . S
H65 C58 0.930 . S
H66 C45 0.930 . S
H67 C57 0.930 . S
Zn68 N72 2.020 . S
Zn68 O76 2.019 . S
Zn68 N78 2.119 . S
Zn68 O86 1.975 . S
C69 N70 1.334 . S
C69 N73 1.336 . S
N70 C69 1.334 . S
N70 C71 1.334 . S
C71 N70 1.334 . S
C71 N72 1.336 . S
N72 Zn68 2.020 . S
N72 C71 1.336 . S
N72 N73 1.354 . S
N73 C69 1.336 . S
N73 N72 1.354 . S
N73 Zn77 2.020 . S
C74 O75 1.244 . S
C74 O98 1.257 . S
O75 C74 1.244 . S
O76 Zn68 2.019 . S
O76 C96 1.257 . S
Zn77 N73 2.020 . S
Zn77 O84 1.975 . S
Zn77 N93 2.119 . S
Zn77 O98 2.019 . S
N78 Zn68 2.119 . S
N78 C80 1.334 . S
N78 C81 1.328 . S
C79 C80 1.391 . S
C79 N82 1.329 . S
C79 H100 0.930 . S
C80 N78 1.334 . S
C80 C79 1.391 . S
C80 H87 0.930 . S
C81 N78 1.328 . S
C81 C83 1.392 . S
C81 H88 0.930 . S
N82 C79 1.329 . S
N82 C83 1.331 . S
C83 C81 1.392 . S
C83 N82 1.331 . S
O84 Zn77 1.975 . S
O84 C85 1.252 . S
C85 O84 1.252 . S
C85 O86 1.252 . S
O86 Zn68 1.975 . S
O86 C85 1.252 . S
H87 C80 0.930 . S
H88 C81 0.930 . S
C89 C90 1.392 . S
C89 N93 1.328 . S
C89 H95 0.930 . S
C90 C89 1.392 . S
C90 N94 1.331 . S
C91 C92 1.391 . S
C91 N94 1.329 . S
C91 H101 0.930 . S
C92 C91 1.391 . S
C92 N93 1.334 . S
C92 H99 0.930 . S
N93 Zn77 2.119 . S
N93 C89 1.328 . S
N93 C92 1.334 . S
N94 C90 1.331 . S
N94 C91 1.329 . S
H95 C89 0.930 . S
C96 O76 1.257 . S
C96 O97 1.244 . S
O97 C96 1.244 . S
O98 C74 1.257 . S
O98 Zn77 2.019 . S
H99 C92 0.930 . S
H100 C79 0.930 . S
H101 C91 0.930 . S
Zn102 N106 2.020 . S
Zn102 O110 2.019 . S
Zn102 N112 2.119 . S
Zn102 O120 1.975 . S
C103 N104 1.334 . S
C103 N107 1.336 1_556 S
N104 C103 1.334 . S
N104 C105 1.334 . S
C105 N104 1.334 . S
C105 N106 1.336 1_556 S
N106 Zn102 2.020 . S
N106 C105 1.336 1_554 S
N106 N107 1.354 . S
N107 C103 1.336 1_554 S
N107 N106 1.354 . S
N107 Zn111 2.020 . S
C108 O109 1.244 . S
C108 O132 1.257 . S
O109 C108 1.244 . S
O110 Zn102 2.019 . S
O110 C130 1.257 . S
Zn111 N107 2.020 . S
Zn111 O118 1.975 . S
Zn111 N127 2.119 . S
Zn111 O132 2.019 . S
N112 Zn102 2.119 . S
N112 C114 1.334 . S
N112 C115 1.328 . S
C113 C114 1.391 . S
C113 N116 1.329 . S
C113 H134 0.930 . S
C114 N112 1.334 . S
C114 C113 1.391 . S
C114 H121 0.930 . S
C115 N112 1.328 . S
C115 C117 1.392 . S
C115 H122 0.930 . S
N116 C113 1.329 . S
N116 C117 1.331 . S
C117 C115 1.392 . S
C117 N116 1.331 . S
O118 Zn111 1.975 . S
O118 C119 1.252 . S
C119 O118 1.252 . S
C119 O120 1.252 . S
O120 Zn102 1.975 . S
O120 C119 1.252 . S
H121 C114 0.930 . S
H122 C115 0.930 . S
C123 C124 1.392 . S
C123 N127 1.328 . S
C123 H129 0.930 . S
C124 C123 1.392 . S
C124 N128 1.331 . S
C125 C126 1.391 . S
C125 N128 1.329 . S
C125 H135 0.930 . S
C126 C125 1.391 . S
C126 N127 1.334 . S
C126 H133 0.930 . S
N127 Zn111 2.119 . S
N127 C123 1.328 . S
N127 C126 1.334 . S
N128 C124 1.331 . S
N128 C125 1.329 . S
H129 C123 0.930 . S
C130 O110 1.257 . S
C130 O131 1.244 . S
O131 C130 1.244 . S
O132 C108 1.257 . S
O132 Zn111 2.019 . S
H133 C126 0.930 . S
H134 C113 0.930 . S
H135 C125 0.930 . S
Zn136 N140 2.020 . S
Zn136 O144 2.019 . S
Zn136 N146 2.119 . S
Zn136 O154 1.975 . S
C137 N138 1.334 . S
C137 N141 1.336 . S
N138 C137 1.334 . S
N138 C139 1.334 . S
C139 N138 1.334 . S
C139 N140 1.336 . S
N140 Zn136 2.020 . S
N140 C139 1.336 . S
N140 N141 1.354 . S
N141 C137 1.336 . S
N141 N140 1.354 . S
N141 Zn145 2.020 . S
C142 O143 1.244 . S
C142 O166 1.257 . S
O143 C142 1.244 . S
O144 Zn136 2.019 . S
O144 C164 1.257 . S
Zn145 N141 2.020 . S
Zn145 O152 1.975 . S
Zn145 N161 2.119 . S
Zn145 O166 2.019 . S
N146 Zn136 2.119 . S
N146 C148 1.334 . S
N146 C149 1.328 . S
C147 C148 1.391 . S
C147 N150 1.329 . S
C147 H168 0.930 . S
C148 N146 1.334 . S
C148 C147 1.391 . S
C148 H155 0.930 . S
C149 N146 1.328 . S
C149 C151 1.392 . S
C149 H156 0.930 . S
N150 C147 1.329 . S
N150 C151 1.331 . S
C151 C149 1.392 . S
C151 N150 1.331 . S
O152 Zn145 1.975 . S
O152 C153 1.252 . S
C153 O152 1.252 . S
C153 O154 1.252 . S
O154 Zn136 1.975 . S
O154 C153 1.252 . S
H155 C148 0.930 . S
H156 C149 0.930 . S
C157 C158 1.392 . S
C157 N161 1.328 . S
C157 H163 0.930 . S
C158 C157 1.392 . S
C158 N162 1.331 . S
C159 C160 1.391 . S
C159 N162 1.329 . S
C159 H169 0.930 . S
C160 C159 1.391 . S
C160 N161 1.334 . S
C160 H167 0.930 . S
N161 Zn145 2.119 . S
N161 C157 1.328 . S
N161 C160 1.334 . S
N162 C158 1.331 . S
N162 C159 1.329 . S
H163 C157 0.930 . S
C164 O144 1.257 . S
C164 O165 1.244 . S
O165 C164 1.244 . S
O166 C142 1.257 . S
O166 Zn145 2.019 . S
H167 C160 0.930 . S
H168 C147 0.930 . S
H169 C159 0.930 . S
Zn170 N174 2.020 . S
Zn170 O178 2.019 . S
Zn170 N180 2.119 . S
Zn170 O188 1.975 . S
C171 N172 1.334 . S
C171 N175 1.336 1_556 S
N172 C171 1.334 . S
N172 C173 1.334 . S
C173 N172 1.334 . S
C173 N174 1.336 1_556 S
N174 Zn170 2.020 . S
N174 C173 1.336 1_554 S
N174 N175 1.354 . S
N175 C171 1.336 1_554 S
N175 N174 1.354 . S
N175 Zn179 2.020 . S
C176 O177 1.244 . S
C176 O200 1.257 . S
O177 C176 1.244 . S
O178 Zn170 2.019 . S
O178 C198 1.257 . S
Zn179 N175 2.020 . S
Zn179 O186 1.975 . S
Zn179 N195 2.119 . S
Zn179 O200 2.019 . S
N180 Zn170 2.119 . S
N180 C182 1.334 . S
N180 C183 1.328 . S
C181 C182 1.391 . S
C181 N184 1.329 . S
C181 H202 0.930 . S
C182 N180 1.334 . S
C182 C181 1.391 . S
C182 H189 0.930 . S
C183 N180 1.328 . S
C183 C185 1.392 . S
C183 H190 0.930 . S
N184 C181 1.329 . S
N184 C185 1.331 . S
C185 C183 1.392 . S
C185 N184 1.331 . S
O186 Zn179 1.975 . S
O186 C187 1.252 . S
C187 O186 1.252 . S
C187 O188 1.252 . S
O188 Zn170 1.975 . S
O188 C187 1.252 . S
H189 C182 0.930 . S
H190 C183 0.930 . S
C191 C192 1.392 . S
C191 N195 1.328 . S
C191 H197 0.930 . S
C192 C191 1.392 . S
C192 N196 1.331 . S
C193 C194 1.391 . S
C193 N196 1.329 . S
C193 H203 0.930 . S
C194 C193 1.391 . S
C194 N195 1.334 . S
C194 H201 0.930 . S
N195 Zn179 2.119 . S
N195 C191 1.328 . S
N195 C194 1.334 . S
N196 C192 1.331 . S
N196 C193 1.329 . S
H197 C191 0.930 . S
C198 O178 1.257 . S
C198 O199 1.244 . S
O199 C198 1.244 . S
O200 C176 1.257 . S
O200 Zn179 2.019 . S
H201 C194 0.930 . S
H202 C181 0.930 . S
H203 C193 0.930 . S
Zn204 N208 2.020 . S
Zn204 O212 2.019 . S
Zn204 N214 2.119 . S
Zn204 O222 1.975 . S
C205 N206 1.334 . S
C205 N209 1.336 . S
N206 C205 1.334 . S
N206 C207 1.334 . S
C207 N206 1.334 . S
C207 N208 1.336 . S
N208 Zn204 2.020 . S
N208 C207 1.336 . S
N208 N209 1.354 . S
N209 C205 1.336 . S
N209 N208 1.354 . S
N209 Zn213 2.020 . S
C210 O211 1.244 . S
C210 O234 1.257 . S
O211 C210 1.244 . S
O212 Zn204 2.019 . S
O212 C232 1.257 . S
Zn213 N209 2.020 . S
Zn213 O220 1.975 . S
Zn213 N229 2.119 . S
Zn213 O234 2.019 . S
N214 Zn204 2.119 . S
N214 C216 1.334 . S
N214 C217 1.328 . S
C215 C216 1.391 . S
C215 N218 1.329 . S
C215 H236 0.930 . S
C216 N214 1.334 . S
C216 C215 1.391 . S
C216 H223 0.930 . S
C217 N214 1.328 . S
C217 C219 1.392 . S
C217 H224 0.930 . S
N218 C215 1.329 . S
N218 C219 1.331 . S
C219 C217 1.392 . S
C219 N218 1.331 . S
O220 Zn213 1.975 . S
O220 C221 1.252 . S
C221 O220 1.252 . S
C221 O222 1.252 . S
O222 Zn204 1.975 . S
O222 C221 1.252 . S
H223 C216 0.930 . S
H224 C217 0.930 . S
C225 C226 1.392 . S
C225 N229 1.328 . S
C225 H231 0.930 . S
C226 C225 1.392 . S
C226 N230 1.331 . S
C227 C228 1.391 . S
C227 N230 1.329 . S
C227 H237 0.930 . S
C228 C227 1.391 . S
C228 N229 1.334 . S
C228 H235 0.930 . S
N229 Zn213 2.119 . S
N229 C225 1.328 . S
N229 C228 1.334 . S
N230 C226 1.331 . S
N230 C227 1.329 . S
H231 C225 0.930 . S
C232 O212 1.257 . S
C232 O233 1.244 . S
O233 C232 1.244 . S
O234 C210 1.257 . S
O234 Zn213 2.019 . S
H235 C228 0.930 . S
H236 C215 0.930 . S
H237 C227 0.930 . S
Zn238 N242 2.020 . S
Zn238 O246 2.019 . S
Zn238 N248 2.119 . S
Zn238 O256 1.975 . S
C239 N240 1.334 . S
C239 N243 1.336 1_554 S
N240 C239 1.334 . S
N240 C241 1.334 . S
C241 N240 1.334 . S
C241 N242 1.336 1_554 S
N242 Zn238 2.020 . S
N242 C241 1.336 1_556 S
N242 N243 1.354 . S
N243 C239 1.336 1_556 S
N243 N242 1.354 . S
N243 Zn247 2.020 . S
C244 O245 1.244 . S
C244 O268 1.257 . S
O245 C244 1.244 . S
O246 Zn238 2.019 . S
O246 C266 1.257 . S
Zn247 N243 2.020 . S
Zn247 O254 1.975 . S
Zn247 N263 2.119 . S
Zn247 O268 2.019 . S
N248 Zn238 2.119 . S
N248 C250 1.334 . S
N248 C251 1.328 . S
C249 C250 1.391 . S
C249 N252 1.329 . S
C249 H270 0.930 . S
C250 N248 1.334 . S
C250 C249 1.391 . S
C250 H257 0.930 . S
C251 N248 1.328 . S
C251 C253 1.392 . S
C251 H258 0.930 . S
N252 C249 1.329 . S
N252 C253 1.331 . S
C253 C251 1.392 . S
C253 N252 1.331 . S
O254 Zn247 1.975 . S
O254 C255 1.252 . S
C255 O254 1.252 . S
C255 O256 1.252 . S
O256 Zn238 1.975 . S
O256 C255 1.252 . S
H257 C250 0.930 . S
H258 C251 0.930 . S
C259 C260 1.392 . S
C259 N263 1.328 . S
C259 H265 0.930 . S
C260 C259 1.392 . S
C260 N264 1.331 . S
C261 C262 1.391 . S
C261 N264 1.329 . S
C261 H271 0.930 . S
C262 C261 1.391 . S
C262 N263 1.334 . S
C262 H269 0.930 . S
N263 Zn247 2.119 . S
N263 C259 1.328 . S
N263 C262 1.334 . S
N264 C260 1.331 . S
N264 C261 1.329 . S
H265 C259 0.930 . S
C266 O246 1.257 . S
C266 O267 1.244 . S
O267 C266 1.244 . S
O268 C244 1.257 . S
O268 Zn247 2.019 . S
H269 C262 0.930 . S
H270 C249 0.930 . S
H271 C261 0.930 . S
Zn272 N276 2.020 . S
Zn272 O280 2.019 1_565 S
Zn272 N282 2.119 . S
Zn272 O290 1.975 . S
C273 N274 1.334 . S
C273 N277 1.336 . S
N274 C273 1.334 . S
N274 C275 1.334 . S
C275 N274 1.334 . S
C275 N276 1.336 . S
N276 Zn272 2.020 . S
N276 C275 1.336 . S
N276 N277 1.354 . S
N277 C273 1.336 . S
N277 N276 1.354 . S
N277 Zn281 2.020 . S
C278 O279 1.244 . S
C278 O302 1.257 . S
O279 C278 1.244 . S
O280 Zn272 2.019 1_545 S
O280 C300 1.257 . S
Zn281 N277 2.020 . S
Zn281 O288 1.975 . S
Zn281 N297 2.119 . S
Zn281 O302 2.019 . S
N282 Zn272 2.119 . S
N282 C284 1.334 . S
N282 C285 1.328 . S
C283 C284 1.391 . S
C283 N286 1.329 . S
C283 H304 0.930 . S
C284 N282 1.334 . S
C284 C283 1.391 . S
C284 H291 0.930 . S
C285 N282 1.328 . S
C285 C287 1.392 . S
C285 H292 0.930 . S
N286 C283 1.329 . S
N286 C287 1.331 . S
C287 C285 1.392 . S
C287 N286 1.331 . S
O288 Zn281 1.975 . S
O288 C289 1.252 . S
C289 O288 1.252 . S
C289 O290 1.252 . S
O290 Zn272 1.975 . S
O290 C289 1.252 . S
H291 C284 0.930 . S
H292 C285 0.930 . S
C293 C294 1.392 . S
C293 N297 1.328 . S
C293 H299 0.930 . S
C294 C293 1.392 . S
C294 N298 1.331 . S
C295 C296 1.391 . S
C295 N298 1.329 . S
C295 H305 0.930 . S
C296 C295 1.391 . S
C296 N297 1.334 . S
C296 H303 0.930 . S
N297 Zn281 2.119 . S
N297 C293 1.328 . S
N297 C296 1.334 . S
N298 C294 1.331 . S
N298 C295 1.329 . S
H299 C293 0.930 . S
C300 O280 1.257 . S
C300 O301 1.244 . S
O301 C300 1.244 . S
O302 C278 1.257 . S
O302 Zn281 2.019 . S
H303 C296 0.930 . S
H304 C283 0.930 . S
H305 C295 0.930 . S
Zn306 N310 2.020 . S
Zn306 O314 2.019 1_545 S
Zn306 N316 2.119 . S
Zn306 O324 1.975 . S
C307 N308 1.334 . S
C307 N311 1.336 1_554 S
N308 C307 1.334 . S
N308 C309 1.334 . S
C309 N308 1.334 . S
C309 N310 1.336 1_554 S
N310 Zn306 2.020 . S
N310 C309 1.336 1_556 S
N310 N311 1.354 . S
N311 C307 1.336 1_556 S
N311 N310 1.354 . S
N311 Zn315 2.020 . S
C312 O313 1.244 . S
C312 O336 1.257 . S
O313 C312 1.244 . S
O314 Zn306 2.019 1_565 S
O314 C334 1.257 . S
Zn315 N311 2.020 . S
Zn315 O322 1.975 . S
Zn315 N331 2.119 . S
Zn315 O336 2.019 . S
N316 Zn306 2.119 . S
N316 C318 1.334 . S
N316 C319 1.328 . S
C317 C318 1.391 . S
C317 N320 1.329 . S
C317 H338 0.930 . S
C318 N316 1.334 . S
C318 C317 1.391 . S
C318 H325 0.930 . S
C319 N316 1.328 . S
C319 C321 1.392 . S
C319 H326 0.930 . S
N320 C317 1.329 . S
N320 C321 1.331 . S
C321 C319 1.392 . S
C321 N320 1.331 . S
O322 Zn315 1.975 . S
O322 C323 1.252 . S
C323 O322 1.252 . S
C323 O324 1.252 . S
O324 Zn306 1.975 . S
O324 C323 1.252 . S
H325 C318 0.930 . S
H326 C319 0.930 . S
C327 C328 1.392 . S
C327 N331 1.328 . S
C327 H333 0.930 . S
C328 C327 1.392 . S
C328 N332 1.331 . S
C329 C330 1.391 . S
C329 N332 1.329 . S
C329 H339 0.930 . S
C330 C329 1.391 . S
C330 N331 1.334 . S
C330 H337 0.930 . S
N331 Zn315 2.119 . S
N331 C327 1.328 . S
N331 C330 1.334 . S
N332 C328 1.331 . S
N332 C329 1.329 . S
H333 C327 0.930 . S
C334 O314 1.257 . S
C334 O335 1.244 . S
O335 C334 1.244 . S
O336 C312 1.257 . S
O336 Zn315 2.019 . S
H337 C330 0.930 . S
H338 C317 0.930 . S
H339 C329 0.930 . S
Zn340 N344 2.020 . S
Zn340 O348 2.019 1_545 S
Zn340 N350 2.119 . S
Zn340 O358 1.975 . S
C341 N342 1.334 . S
C341 N345 1.336 . S
N342 C341 1.334 . S
N342 C343 1.334 . S
C343 N342 1.334 . S
C343 N344 1.336 . S
N344 Zn340 2.020 . S
N344 C343 1.336 . S
N344 N345 1.354 . S
N345 C341 1.336 . S
N345 N344 1.354 . S
N345 Zn349 2.020 . S
C346 O347 1.244 . S
C346 O370 1.257 . S
O347 C346 1.244 . S
O348 Zn340 2.019 1_565 S
O348 C368 1.257 . S
Zn349 N345 2.020 . S
Zn349 O356 1.975 . S
Zn349 N365 2.119 . S
Zn349 O370 2.019 . S
N350 Zn340 2.119 . S
N350 C352 1.334 . S
N350 C353 1.328 . S
C351 C352 1.391 . S
C351 N354 1.329 . S
C351 H372 0.930 . S
C352 N350 1.334 . S
C352 C351 1.391 . S
C352 H359 0.930 . S
C353 N350 1.328 . S
C353 C355 1.392 . S
C353 H360 0.930 . S
N354 C351 1.329 . S
N354 C355 1.331 . S
C355 C353 1.392 . S
C355 N354 1.331 . S
O356 Zn349 1.975 . S
O356 C357 1.252 . S
C357 O356 1.252 . S
C357 O358 1.252 . S
O358 Zn340 1.975 . S
O358 C357 1.252 . S
H359 C352 0.930 . S
H360 C353 0.930 . S
C361 C362 1.392 . S
C361 N365 1.328 . S
C361 H367 0.930 . S
C362 C361 1.392 . S
C362 N366 1.331 . S
C363 C364 1.391 . S
C363 N366 1.329 . S
C363 H373 0.930 . S
C364 C363 1.391 . S
C364 N365 1.334 . S
C364 H371 0.930 . S
N365 Zn349 2.119 . S
N365 C361 1.328 . S
N365 C364 1.334 . S
N366 C362 1.331 . S
N366 C363 1.329 . S
H367 C361 0.930 . S
C368 O348 1.257 . S
C368 O369 1.244 . S
O369 C368 1.244 . S
O370 C346 1.257 . S
O370 Zn349 2.019 . S
H371 C364 0.930 . S
H372 C351 0.930 . S
H373 C363 0.930 . S
Zn374 N378 2.020 . S
Zn374 O382 2.019 1_565 S
Zn374 N384 2.119 . S
Zn374 O392 1.975 . S
C375 N376 1.334 . S
C375 N379 1.336 1_556 S
N376 C375 1.334 . S
N376 C377 1.334 . S
C377 N376 1.334 . S
C377 N378 1.336 1_556 S
N378 Zn374 2.020 . S
N378 C377 1.336 1_554 S
N378 N379 1.354 . S
N379 C375 1.336 1_554 S
N379 N378 1.354 . S
N379 Zn383 2.020 . S
C380 O381 1.244 . S
C380 O404 1.257 . S
O381 C380 1.244 . S
O382 Zn374 2.019 1_545 S
O382 C402 1.257 . S
Zn383 N379 2.020 . S
Zn383 O390 1.975 . S
Zn383 N399 2.119 . S
Zn383 O404 2.019 . S
N384 Zn374 2.119 . S
N384 C386 1.334 . S
N384 C387 1.328 . S
C385 C386 1.391 . S
C385 N388 1.329 . S
C385 H406 0.930 . S
C386 N384 1.334 . S
C386 C385 1.391 . S
C386 H393 0.930 . S
C387 N384 1.328 . S
C387 C389 1.392 . S
C387 H394 0.930 . S
N388 C385 1.329 . S
N388 C389 1.331 . S
C389 C387 1.392 . S
C389 N388 1.331 . S
O390 Zn383 1.975 . S
O390 C391 1.252 . S
C391 O390 1.252 . S
C391 O392 1.252 . S
O392 Zn374 1.975 . S
O392 C391 1.252 . S
H393 C386 0.930 . S
H394 C387 0.930 . S
C395 C396 1.392 . S
C395 N399 1.328 . S
C395 H401 0.930 . S
C396 C395 1.392 . S
C396 N400 1.331 . S
C397 C398 1.391 . S
C397 N400 1.329 . S
C397 H407 0.930 . S
C398 C397 1.391 . S
C398 N399 1.334 . S
C398 H405 0.930 . S
N399 Zn383 2.119 . S
N399 C395 1.328 . S
N399 C398 1.334 . S
N400 C396 1.331 . S
N400 C397 1.329 . S
H401 C395 0.930 . S
C402 O382 1.257 . S
C402 O403 1.244 . S
O403 C402 1.244 . S
O404 C380 1.257 . S
O404 Zn383 2.019 . S
H405 C398 0.930 . S
H406 C385 0.930 . S
H407 C397 0.930 . S
Zn408 N412 2.020 . S
Zn408 O416 2.019 1_545 S
Zn408 N418 2.119 . S
Zn408 O426 1.975 . S
C409 N410 1.334 . S
C409 N413 1.336 . S
N410 C409 1.334 . S
N410 C411 1.334 . S
C411 N410 1.334 . S
C411 N412 1.336 . S
N412 Zn408 2.020 . S
N412 C411 1.336 . S
N412 N413 1.354 . S
N413 C409 1.336 . S
N413 N412 1.354 . S
N413 Zn417 2.020 . S
C414 O415 1.244 . S
C414 O438 1.257 . S
O415 C414 1.244 . S
O416 Zn408 2.019 1_565 S
O416 C436 1.257 . S
Zn417 N413 2.020 . S
Zn417 O424 1.975 . S
Zn417 N433 2.119 . S
Zn417 O438 2.019 . S
N418 Zn408 2.119 . S
N418 C420 1.334 . S
N418 C421 1.328 . S
C419 C420 1.391 . S
C419 N422 1.329 . S
C419 H440 0.930 . S
C420 N418 1.334 . S
C420 C419 1.391 . S
C420 H427 0.930 . S
C421 N418 1.328 . S
C421 C423 1.392 . S
C421 H428 0.930 . S
N422 C419 1.329 . S
N422 C423 1.331 . S
C423 C421 1.392 . S
C423 N422 1.331 . S
O424 Zn417 1.975 . S
O424 C425 1.252 . S
C425 O424 1.252 . S
C425 O426 1.252 . S
O426 Zn408 1.975 . S
O426 C425 1.252 . S
H427 C420 0.930 . S
H428 C421 0.930 . S
C429 C430 1.392 . S
C429 N433 1.328 . S
C429 H435 0.930 . S
C430 C429 1.392 . S
C430 N434 1.331 . S
C431 C432 1.391 . S
C431 N434 1.329 . S
C431 H441 0.930 . S
C432 C431 1.391 . S
C432 N433 1.334 . S
C432 H439 0.930 . S
N433 Zn417 2.119 . S
N433 C429 1.328 . S
N433 C432 1.334 . S
N434 C430 1.331 . S
N434 C431 1.329 . S
H435 C429 0.930 . S
C436 O416 1.257 . S
C436 O437 1.244 . S
O437 C436 1.244 . S
O438 C414 1.257 . S
O438 Zn417 2.019 . S
H439 C432 0.930 . S
H440 C419 0.930 . S
H441 C431 0.930 . S
Zn442 N446 2.020 . S
Zn442 O450 2.019 1_565 S
Zn442 N452 2.119 . S
Zn442 O460 1.975 . S
C443 N444 1.334 . S
C443 N447 1.336 1_556 S
N444 C443 1.334 . S
N444 C445 1.334 . S
C445 N444 1.334 . S
C445 N446 1.336 1_556 S
N446 Zn442 2.020 . S
N446 C445 1.336 1_554 S
N446 N447 1.354 . S
N447 C443 1.336 1_554 S
N447 N446 1.354 . S
N447 Zn451 2.020 . S
C448 O449 1.244 . S
C448 O472 1.257 . S
O449 C448 1.244 . S
O450 Zn442 2.019 1_545 S
O450 C470 1.257 . S
Zn451 N447 2.020 . S
Zn451 O458 1.975 . S
Zn451 N467 2.119 . S
Zn451 O472 2.019 . S
N452 Zn442 2.119 . S
N452 C454 1.334 . S
N452 C455 1.328 . S
C453 C454 1.391 . S
C453 N456 1.329 . S
C453 H474 0.930 . S
C454 N452 1.334 . S
C454 C453 1.391 . S
C454 H461 0.930 . S
C455 N452 1.328 . S
C455 C457 1.392 . S
C455 H462 0.930 . S
N456 C453 1.329 . S
N456 C457 1.331 . S
C457 C455 1.392 . S
C457 N456 1.331 . S
O458 Zn451 1.975 . S
O458 C459 1.252 . S
C459 O458 1.252 . S
C459 O460 1.252 . S
O460 Zn442 1.975 . S
O460 C459 1.252 . S
H461 C454 0.930 . S
H462 C455 0.930 . S
C463 C464 1.392 . S
C463 N467 1.328 . S
C463 H469 0.930 . S
C464 C463 1.392 . S
C464 N468 1.331 . S
C465 C466 1.391 . S
C465 N468 1.329 . S
C465 H475 0.930 . S
C466 C465 1.391 . S
C466 N467 1.334 . S
C466 H473 0.930 . S
N467 Zn451 2.119 . S
N467 C463 1.328 . S
N467 C466 1.334 . S
N468 C464 1.331 . S
N468 C465 1.329 . S
H469 C463 0.930 . S
C470 O450 1.257 . S
C470 O471 1.244 . S
O471 C470 1.244 . S
O472 C448 1.257 . S
O472 Zn451 2.019 . S
H473 C466 0.930 . S
H474 C453 0.930 . S
H475 C465 0.930 . S
Zn476 N480 2.020 . S
Zn476 O484 2.019 1_565 S
Zn476 N486 2.119 . S
Zn476 O494 1.975 . S
C477 N478 1.334 . S
C477 N481 1.336 . S
N478 C477 1.334 . S
N478 C479 1.334 . S
C479 N478 1.334 . S
C479 N480 1.336 . S
N480 Zn476 2.020 . S
N480 C479 1.336 . S
N480 N481 1.354 . S
N481 C477 1.336 . S
N481 N480 1.354 . S
N481 Zn485 2.020 . S
C482 O483 1.244 . S
C482 O506 1.257 . S
O483 C482 1.244 . S
O484 Zn476 2.019 1_545 S
O484 C504 1.257 . S
Zn485 N481 2.020 . S
Zn485 O492 1.975 . S
Zn485 N501 2.119 . S
Zn485 O506 2.019 . S
N486 Zn476 2.119 . S
N486 C488 1.334 . S
N486 C489 1.328 . S
C487 C488 1.391 . S
C487 N490 1.329 . S
C487 H508 0.930 . S
C488 N486 1.334 . S
C488 C487 1.391 . S
C488 H495 0.930 . S
C489 N486 1.328 . S
C489 C491 1.392 . S
C489 H496 0.930 . S
N490 C487 1.329 . S
N490 C491 1.331 . S
C491 C489 1.392 . S
C491 N490 1.331 . S
O492 Zn485 1.975 . S
O492 C493 1.252 . S
C493 O492 1.252 . S
C493 O494 1.252 . S
O494 Zn476 1.975 . S
O494 C493 1.252 . S
H495 C488 0.930 . S
H496 C489 0.930 . S
C497 C498 1.392 . S
C497 N501 1.328 . S
C497 H503 0.930 . S
C498 C497 1.392 . S
C498 N502 1.331 . S
C499 C500 1.391 . S
C499 N502 1.329 . S
C499 H509 0.930 . S
C500 C499 1.391 . S
C500 N501 1.334 . S
C500 H507 0.930 . S
N501 Zn485 2.119 . S
N501 C497 1.328 . S
N501 C500 1.334 . S
N502 C498 1.331 . S
N502 C499 1.329 . S
H503 C497 0.930 . S
C504 O484 1.257 . S
C504 O505 1.244 . S
O505 C504 1.244 . S
O506 C482 1.257 . S
O506 Zn485 2.019 . S
H507 C500 0.930 . S
H508 C487 0.930 . S
H509 C499 0.930 . S
Zn510 N514 2.020 . S
Zn510 O518 2.019 . S
Zn510 N520 2.119 . S
Zn510 O528 1.975 . S
C511 N512 1.334 . S
C511 N515 1.336 1_554 S
N512 C511 1.334 . S
N512 C513 1.334 . S
C513 N512 1.334 . S
C513 N514 1.336 1_554 S
N514 Zn510 2.020 . S
N514 C513 1.336 1_556 S
N514 N515 1.354 . S
N515 C511 1.336 1_556 S
N515 N514 1.354 . S
N515 Zn519 2.020 . S
C516 O517 1.244 . S
C516 O540 1.257 . S
O517 C516 1.244 . S
O518 Zn510 2.019 . S
O518 C538 1.257 . S
Zn519 N515 2.020 . S
Zn519 O526 1.975 . S
Zn519 N535 2.119 . S
Zn519 O540 2.019 1_545 S
N520 Zn510 2.119 . S
N520 C522 1.334 . S
N520 C523 1.328 . S
C521 C522 1.391 . S
C521 N524 1.329 . S
C521 H542 0.930 . S
C522 N520 1.334 . S
C522 C521 1.391 . S
C522 H529 0.930 . S
C523 N520 1.328 . S
C523 C525 1.392 . S
C523 H530 0.930 . S
N524 C521 1.329 . S
N524 C525 1.331 . S
C525 C523 1.392 . S
C525 N524 1.331 . S
O526 Zn519 1.975 . S
O526 C527 1.252 . S
C527 O526 1.252 . S
C527 O528 1.252 . S
O528 Zn510 1.975 . S
O528 C527 1.252 . S
H529 C522 0.930 . S
H530 C523 0.930 . S
C531 C532 1.392 . S
C531 N535 1.328 . S
C531 H537 0.930 . S
C532 C531 1.392 . S
C532 N536 1.331 . S
C533 C534 1.391 . S
C533 N536 1.329 . S
C533 H543 0.930 . S
C534 C533 1.391 . S
C534 N535 1.334 . S
C534 H541 0.930 . S
N535 Zn519 2.119 . S
N535 C531 1.328 . S
N535 C534 1.334 . S
N536 C532 1.331 . S
N536 C533 1.329 . S
H537 C531 0.930 . S
C538 O518 1.257 . S
C538 O539 1.244 . S
O539 C538 1.244 . S
O540 C516 1.257 . S
O540 Zn519 2.019 1_565 S
H541 C534 0.930 . S
H542 C521 0.930 . S
H543 C533 0.930 . S
C513 C17 2.276 . S
C477 C51 2.276 . S
C443 C85 2.276 . S
C409 C119 2.276 . S
C153 C375 2.276 . S
C341 C187 2.276 . S
C221 C307 2.276 . S
C273 C255 2.276 . S
C289 C241 2.276 . S
C323 C205 2.276 . S
C357 C173 2.276 . S
C391 C137 2.276 . S
C103 C425 2.276 . S
C69 C459 2.276 . S
C35 C493 2.276 . S
C1 C527 2.276 . S
C22 C226 1.709 1_455 S
C253 C56 1.709 . S
C158 C90 1.709 1_655 S
C124 C185 1.709 . S
C498 C294 1.709 . S
C328 C525 1.709 1_655 S
C430 C362 1.709 . S
C396 C464 1.709 1_655 S
C117 C15 1.655 . S
C83 C49 1.655 . S
C260 C151 1.655 . S
C192 C219 1.655 . S
C389 C287 1.655 . S
C355 C321 1.655 . S
C423 C532 1.655 . S
C491 C457 1.655 . S
C3 C71 3.347 . S
C37 C105 3.347 1_554 S
C139 C207 3.347 . S
C239 C171 3.347 1_554 S
C275 C343 3.347 1_565 S
C377 C309 3.347 1_566 S
C411 C479 3.347 1_545 S
C445 C511 3.347 1_566 S
C6 C470 1.708 . S
C436 C40 1.709 . S
C516 C74 1.708 . S
C108 C504 1.709 . S
C142 C334 1.708 . S
C198 C300 1.709 . S
C402 C210 1.708 . S
C266 C368 1.709 . S
C278 C176 1.708 . S
C164 C312 1.709 . S
C346 C244 1.708 . S
C232 C380 1.709 . S
C62 C414 1.708 . S
C448 C28 1.709 . S
C482 C130 1.708 . S
C538 C96 1.709 . S
