# Generated by pormake.
# Topology uka, (4)-cn, num edge types: 1
# Building blocks:
#     Node 0, Type 0, BuildingBlock: NAHDIM_clean_sbu_0, # of connection points: 4
#     Node 1, Type 0, BuildingBlock: NAHDIM_clean_sbu_0, # of connection points: 4
#     Node 2, Type 0, BuildingBlock: NAHDIM_clean_sbu_0, # of connection points: 4
#     Node 3, Type 0, BuildingBlock: NAHDIM_clean_sbu_0, # of connection points: 4
#     Node 4, Type 0, BuildingBlock: NAHDIM_clean_sbu_0, # of connection points: 4
#     Node 5, Type 0, BuildingBlock: NAHDIM_clean_sbu_0, # of connection points: 4
#     Node 6, Type 0, BuildingBlock: NAHDIM_clean_sbu_0, # of connection points: 4
#     Node 7, Type 0, BuildingBlock: NAHDIM_clean_sbu_0, # of connection points: 4
#     Node 8, Type 0, BuildingBlock: NAHDIM_clean_sbu_0, # of connection points: 4
#     Node 9, Type 0, BuildingBlock: NAHDIM_clean_sbu_0, # of connection points: 4
#     Node 10, Type 0, BuildingBlock: NAHDIM_clean_sbu_0, # of connection points: 4
#     Node 11, Type 0, BuildingBlock: NAHDIM_clean_sbu_0, # of connection points: 4
#     Node 12, Type 0, BuildingBlock: NAHDIM_clean_sbu_0, # of connection points: 4
#     Node 13, Type 0, BuildingBlock: NAHDIM_clean_sbu_0, # of connection points: 4
#     Node 14, Type 0, BuildingBlock: NAHDIM_clean_sbu_0, # of connection points: 4
#     Node 15, Type 0, BuildingBlock: NAHDIM_clean_sbu_0, # of connection points: 4
#     Node 16, Type 0, BuildingBlock: NAHDIM_clean_sbu_0, # of connection points: 4
#     Node 17, Type 0, BuildingBlock: NAHDIM_clean_sbu_0, # of connection points: 4
#     Node 18, Type 0, BuildingBlock: NAHDIM_clean_sbu_0, # of connection points: 4
#     Node 19, Type 0, BuildingBlock: NAHDIM_clean_sbu_0, # of connection points: 4
#     Node 20, Type 0, BuildingBlock: NAHDIM_clean_sbu_0, # of connection points: 4
#     Node 21, Type 0, BuildingBlock: NAHDIM_clean_sbu_0, # of connection points: 4
#     Node 22, Type 0, BuildingBlock: NAHDIM_clean_sbu_0, # of connection points: 4
#     Node 23, Type 0, BuildingBlock: NAHDIM_clean_sbu_0, # of connection points: 4
#     Node 24, Type 0, BuildingBlock: NAHDIM_clean_sbu_0, # of connection points: 4
#     Node 25, Type 0, BuildingBlock: NAHDIM_clean_sbu_0, # of connection points: 4
#     Node 26, Type 0, BuildingBlock: NAHDIM_clean_sbu_0, # of connection points: 4
#     Node 27, Type 0, BuildingBlock: NAHDIM_clean_sbu_0, # of connection points: 4
#     Node 28, Type 0, BuildingBlock: NAHDIM_clean_sbu_0, # of connection points: 4
#     Node 29, Type 0, BuildingBlock: NAHDIM_clean_sbu_0, # of connection points: 4
#     Node 30, Type 0, BuildingBlock: NAHDIM_clean_sbu_0, # of connection points: 4
#     Node 31, Type 0, BuildingBlock: NAHDIM_clean_sbu_0, # of connection points: 4
#     Edge 32, Type (0, 0), BuildingBlock: UVAHIK_clean_linker_0, # of connection points: 2
#     Edge 33, Type (0, 0), BuildingBlock: UVAHIK_clean_linker_0, # of connection points: 2
#     Edge 34, Type (0, 0), BuildingBlock: UVAHIK_clean_linker_0, # of connection points: 2
#     Edge 35, Type (0, 0), BuildingBlock: UVAHIK_clean_linker_0, # of connection points: 2
#     Edge 36, Type (0, 0), BuildingBlock: UVAHIK_clean_linker_0, # of connection points: 2
#     Edge 37, Type (0, 0), BuildingBlock: UVAHIK_clean_linker_0, # of connection points: 2
#     Edge 38, Type (0, 0), BuildingBlock: UVAHIK_clean_linker_0, # of connection points: 2
#     Edge 39, Type (0, 0), BuildingBlock: UVAHIK_clean_linker_0, # of connection points: 2
#     Edge 40, Type (0, 0), BuildingBlock: UVAHIK_clean_linker_0, # of connection points: 2
#     Edge 41, Type (0, 0), BuildingBlock: UVAHIK_clean_linker_0, # of connection points: 2
#     Edge 42, Type (0, 0), BuildingBlock: UVAHIK_clean_linker_0, # of connection points: 2
#     Edge 43, Type (0, 0), BuildingBlock: UVAHIK_clean_linker_0, # of connection points: 2
#     Edge 44, Type (0, 0), BuildingBlock: UVAHIK_clean_linker_0, # of connection points: 2
#     Edge 45, Type (0, 0), BuildingBlock: UVAHIK_clean_linker_0, # of connection points: 2
#     Edge 46, Type (0, 0), BuildingBlock: UVAHIK_clean_linker_0, # of connection points: 2
#     Edge 47, Type (0, 0), BuildingBlock: UVAHIK_clean_linker_0, # of connection points: 2
#     Edge 48, Type (0, 0), BuildingBlock: UVAHIK_clean_linker_0, # of connection points: 2
#     Edge 49, Type (0, 0), BuildingBlock: UVAHIK_clean_linker_0, # of connection points: 2
#     Edge 50, Type (0, 0), BuildingBlock: UVAHIK_clean_linker_0, # of connection points: 2
#     Edge 51, Type (0, 0), BuildingBlock: UVAHIK_clean_linker_0, # of connection points: 2
#     Edge 52, Type (0, 0), BuildingBlock: UVAHIK_clean_linker_0, # of connection points: 2
#     Edge 53, Type (0, 0), BuildingBlock: UVAHIK_clean_linker_0, # of connection points: 2
#     Edge 54, Type (0, 0), BuildingBlock: UVAHIK_clean_linker_0, # of connection points: 2
#     Edge 55, Type (0, 0), BuildingBlock: UVAHIK_clean_linker_0, # of connection points: 2
#     Edge 56, Type (0, 0), BuildingBlock: UVAHIK_clean_linker_0, # of connection points: 2
#     Edge 57, Type (0, 0), BuildingBlock: UVAHIK_clean_linker_0, # of connection points: 2
#     Edge 58, Type (0, 0), BuildingBlock: UVAHIK_clean_linker_0, # of connection points: 2
#     Edge 59, Type (0, 0), BuildingBlock: UVAHIK_clean_linker_0, # of connection points: 2
#     Edge 60, Type (0, 0), BuildingBlock: UVAHIK_clean_linker_0, # of connection points: 2
#     Edge 61, Type (0, 0), BuildingBlock: UVAHIK_clean_linker_0, # of connection points: 2
#     Edge 62, Type (0, 0), BuildingBlock: UVAHIK_clean_linker_0, # of connection points: 2
#     Edge 63, Type (0, 0), BuildingBlock: UVAHIK_clean_linker_0, # of connection points: 2
#     Edge 64, Type (0, 0), BuildingBlock: UVAHIK_clean_linker_0, # of connection points: 2
#     Edge 65, Type (0, 0), BuildingBlock: UVAHIK_clean_linker_0, # of connection points: 2
#     Edge 66, Type (0, 0), BuildingBlock: UVAHIK_clean_linker_0, # of connection points: 2
#     Edge 67, Type (0, 0), BuildingBlock: UVAHIK_clean_linker_0, # of connection points: 2
#     Edge 68, Type (0, 0), BuildingBlock: UVAHIK_clean_linker_0, # of connection points: 2
#     Edge 69, Type (0, 0), BuildingBlock: UVAHIK_clean_linker_0, # of connection points: 2
#     Edge 70, Type (0, 0), BuildingBlock: UVAHIK_clean_linker_0, # of connection points: 2
#     Edge 71, Type (0, 0), BuildingBlock: UVAHIK_clean_linker_0, # of connection points: 2
#     Edge 72, Type (0, 0), BuildingBlock: UVAHIK_clean_linker_0, # of connection points: 2
#     Edge 73, Type (0, 0), BuildingBlock: UVAHIK_clean_linker_0, # of connection points: 2
#     Edge 74, Type (0, 0), BuildingBlock: UVAHIK_clean_linker_0, # of connection points: 2
#     Edge 75, Type (0, 0), BuildingBlock: UVAHIK_clean_linker_0, # of connection points: 2
#     Edge 76, Type (0, 0), BuildingBlock: UVAHIK_clean_linker_0, # of connection points: 2
#     Edge 77, Type (0, 0), BuildingBlock: UVAHIK_clean_linker_0, # of connection points: 2
#     Edge 78, Type (0, 0), BuildingBlock: UVAHIK_clean_linker_0, # of connection points: 2
#     Edge 79, Type (0, 0), BuildingBlock: UVAHIK_clean_linker_0, # of connection points: 2
#     Edge 80, Type (0, 0), BuildingBlock: UVAHIK_clean_linker_0, # of connection points: 2
#     Edge 81, Type (0, 0), BuildingBlock: UVAHIK_clean_linker_0, # of connection points: 2
#     Edge 82, Type (0, 0), BuildingBlock: UVAHIK_clean_linker_0, # of connection points: 2
#     Edge 83, Type (0, 0), BuildingBlock: UVAHIK_clean_linker_0, # of connection points: 2
#     Edge 84, Type (0, 0), BuildingBlock: UVAHIK_clean_linker_0, # of connection points: 2
#     Edge 85, Type (0, 0), BuildingBlock: UVAHIK_clean_linker_0, # of connection points: 2
#     Edge 86, Type (0, 0), BuildingBlock: UVAHIK_clean_linker_0, # of connection points: 2
#     Edge 87, Type (0, 0), BuildingBlock: UVAHIK_clean_linker_0, # of connection points: 2
#     Edge 88, Type (0, 0), BuildingBlock: UVAHIK_clean_linker_0, # of connection points: 2
#     Edge 89, Type (0, 0), BuildingBlock: UVAHIK_clean_linker_0, # of connection points: 2
#     Edge 90, Type (0, 0), BuildingBlock: UVAHIK_clean_linker_0, # of connection points: 2
#     Edge 91, Type (0, 0), BuildingBlock: UVAHIK_clean_linker_0, # of connection points: 2
#     Edge 92, Type (0, 0), BuildingBlock: UVAHIK_clean_linker_0, # of connection points: 2
#     Edge 93, Type (0, 0), BuildingBlock: UVAHIK_clean_linker_0, # of connection points: 2
#     Edge 94, Type (0, 0), BuildingBlock: UVAHIK_clean_linker_0, # of connection points: 2
#     Edge 95, Type (0, 0), BuildingBlock: UVAHIK_clean_linker_0, # of connection points: 2
# Relax obj value: 0.248
# Max RMSD: 0.250
# Mean RMSD: 0.250
data_MOF--net-uka--node1-NAHDIM_clean_sbu_0--edge1-UVAHIK_clean_linker_0
_symmetry_space_group_name_H-M    P1
_symmetry_Int_Tables_number       1
_symmetry_cell_setting            triclinic
loop_
_symmetry_equiv_pos_as_xyz
'x, y, z'
_cell_length_a     76.874306
_cell_length_b     76.817928
_cell_length_c     52.929741
_cell_angle_alpha  90.025151
_cell_angle_beta   90.039668
_cell_angle_gamma 90.002479
loop_
_atom_site_label
_atom_site_type_symbol
_atom_site_fract_x
_atom_site_fract_y
_atom_site_fract_z
_atom_type_partial_charge
C0 C 0.16696 0.21354 0.23666 0.0
O1 O 0.15877 0.20242 0.25127 0.0
O2 O 0.12072 0.2097 0.24639 0.0
Zn3 Zn 0.13352 0.23101 0.23462 0.0
O4 O 0.122 0.24218 0.20455 0.0
C5 C 0.13592 0.24281 0.28588 0.0
O6 O 0.14035 0.2265 0.28966 0.0
O7 O 0.15861 0.22619 0.22708 0.0
C8 C 0.1252 0.25822 0.20094 0.0
O9 O 0.13599 0.26623 0.2163 0.0
C10 C 0.1042 0.20978 0.24633 0.0
O11 O 0.096 0.22295 0.2359 0.0
O12 O 0.13259 0.24789 0.26355 0.0
C13 C 0.00339 0.89256 0.51129 0.0
O14 O 0.01287 0.88403 0.52784 0.0
O15 O 0.01491 0.84791 0.50723 0.0
Zn16 Zn 0.99194 0.85811 0.49675 0.0
O17 O 0.98479 0.85013 0.46203 0.0
C18 C 0.97767 0.84946 0.54539 0.0
O19 O 0.99303 0.85467 0.55321 0.0
O20 O 0.99348 0.88414 0.49646 0.0
C21 C 0.97474 0.83717 0.4589 0.0
O22 O 0.96946 0.82834 0.47872 0.0
C23 C 0.01794 0.83174 0.50496 0.0
O24 O 0.00637 0.82182 0.49371 0.0
O25 O 0.97406 0.85029 0.52199 0.0
C26 C 0.3239 0.71513 0.79067 0.0
O27 O 0.33019 0.7204 0.81246 0.0
O28 O 0.3623 0.74398 0.78231 0.0
Zn29 Zn 0.35949 0.7182 0.777 0.0
O30 O 0.37305 0.70979 0.74693 0.0
C31 C 0.36351 0.69127 0.81537 0.0
O32 O 0.35267 0.68233 0.80121 0.0
O33 O 0.3342 0.71303 0.77217 0.0
C34 C 0.38914 0.70621 0.74868 0.0
O35 O 0.39704 0.70824 0.77051 0.0
C36 C 0.37369 0.75345 0.77166 0.0
O37 O 0.38427 0.74648 0.75502 0.0
O38 O 0.3681 0.70642 0.80847 0.0
C39 C 0.53723 0.08818 0.04289 0.0
O40 O 0.53169 0.0955 0.06383 0.0
O41 O 0.52595 0.13155 0.04896 0.0
Zn42 Zn 0.54803 0.12297 0.03313 0.0
O43 O 0.55171 0.13539 0.00022 0.0
C44 C 0.56557 0.12962 0.08013 0.0
O45 O 0.55066 0.12441 0.08958 0.0
O46 O 0.54558 0.09733 0.02701 0.0
C47 C 0.55034 0.15187 -0.00045 0.0
O48 O 0.5464 0.16029 0.02039 0.0
C49 C 0.51169 0.13292 0.037 0.0
O50 O 0.51116 0.12893 0.01287 0.0
O51 O 0.56781 0.12906 0.05635 0.0
C52 C 0.14479 0.75538 0.23054 0.0
O53 O 0.13748 0.75781 0.20837 0.0
O54 O 0.10802 0.78807 0.24026 0.0
Zn55 Zn 0.11026 0.76243 0.24664 0.0
O56 O 0.09696 0.754 0.27701 0.0
C57 C 0.085 0.75217 0.21009 0.0
O58 O 0.0753 0.76264 0.22377 0.0
O59 O 0.13554 0.75662 0.25033 0.0
C60 C 0.09588 0.73751 0.27836 0.0
O61 O 0.10366 0.72808 0.261 0.0
C62 C 0.09672 0.79836 0.24938 0.0
O63 O 0.0853 0.79245 0.26572 0.0
O64 O 0.10082 0.74998 0.21619 0.0
C65 C 0.5155 0.90597 0.46164 0.0
O66 O 0.51559 0.89723 0.44031 0.0
O67 O 0.48473 0.8651 0.47886 0.0
Zn68 Zn 0.50957 0.87218 0.4855 0.0
O69 O 0.51628 0.86517 0.52064 0.0
C70 C 0.52043 0.85529 0.43915 0.0
O71 O 0.50496 0.86003 0.43116 0.0
O72 O 0.51304 0.89799 0.48235 0.0
C73 C 0.51665 0.84921 0.52687 0.0
O74 O 0.51213 0.83738 0.51017 0.0
C75 C 0.47419 0.87406 0.46569 0.0
O76 O 0.47918 0.8892 0.45679 0.0
O77 O 0.5252 0.85936 0.46138 0.0
C78 C 0.31818 0.24128 0.70336 0.0
O79 O 0.32386 0.23261 0.68363 0.0
O80 O 0.36153 0.23347 0.68914 0.0
Zn81 Zn 0.35183 0.25658 0.69974 0.0
O82 O 0.3669 0.26693 0.7268 0.0
C83 C 0.35086 0.26617 0.64735 0.0
O84 O 0.34864 0.24933 0.64454 0.0
O85 O 0.32783 0.25286 0.71325 0.0
C86 C 0.38326 0.26785 0.7237 0.0
O87 O 0.3901 0.2619 0.70266 0.0
C88 C 0.36709 0.22183 0.70413 0.0
O89 O 0.36709 0.22479 0.72858 0.0
O90 O 0.35185 0.27248 0.66952 0.0
C91 C 0.93496 0.08409 0.969 0.0
O92 O 0.93426 0.09444 0.94927 0.0
O93 O 0.95884 0.12514 0.99503 0.0
Zn94 Zn 0.93405 0.11649 0.99615 0.0
O95 O 0.92379 0.12281 0.02979 0.0
C96 C 0.90514 0.13193 0.96813 0.0
O97 O 0.89553 0.12695 0.98733 0.0
O98 O 0.93406 0.09064 0.99101 0.0
C99 C 0.92657 0.13813 0.03791 0.0
O100 O 0.93552 0.14899 0.02382 0.0
C101 C 0.97196 0.11533 0.99163 0.0
O102 O 0.96973 0.09845 0.98949 0.0
O103 O 0.92131 0.12857 0.96815 0.0
C104 C 0.83055 0.71972 0.72938 0.0
O105 O 0.84362 0.72695 0.74148 0.0
O106 O 0.87016 0.723 0.69115 0.0
Zn107 Zn 0.85854 0.70205 0.70634 0.0
O108 O 0.86995 0.69498 0.73885 0.0
C109 C 0.85347 0.68528 0.65915 0.0
O110 O 0.84475 0.69971 0.65496 0.0
O111 O 0.83368 0.70807 0.71298 0.0
C112 C 0.88594 0.69091 0.74023 0.0
O113 O 0.8955 0.69127 0.71966 0.0
C114 C 0.88011 0.73367 0.70245 0.0
O115 O 0.88358 0.73145 0.72654 0.0
O116 O 0.86021 0.68286 0.6808 0.0
C117 C 0.00698 0.07866 0.48594 0.0
O118 O -0.00279 0.08576 0.46836 0.0
O119 O 0.98449 0.11756 0.49661 0.0
Zn120 Zn 0.01034 0.11411 0.49952 0.0
O121 O 0.01976 0.12562 0.53069 0.0
C122 C 0.01369 0.12669 0.44834 0.0
O123 O -0.00322 0.12428 0.44825 0.0
O124 O 0.01453 0.08846 0.50188 0.0
C125 C 0.01554 0.1409 0.53753 0.0
O126 O 0.00463 0.14992 0.5236 0.0
C127 C 0.97363 0.11922 0.51454 0.0
O128 O 0.97911 0.1194 0.53805 0.0
O129 O 0.02229 0.12337 0.46831 0.0
C130 C 0.67024 0.30937 0.23551 0.0
O131 O 0.65579 0.30654 0.24809 0.0
O132 O 0.64069 0.28847 0.18726 0.0
Zn133 Zn 0.64568 0.3134 0.19636 0.0
O134 O 0.62771 0.32215 0.22084 0.0
C135 C 0.65082 0.32012 0.14416 0.0
O136 O 0.65862 0.30495 0.14588 0.0
O137 O 0.6693 0.31366 0.21236 0.0
C138 C 0.61162 0.31895 0.21787 0.0
O139 O 0.60652 0.31029 0.19778 0.0
C140 C 0.6344 0.27696 0.20187 0.0
O141 O 0.63017 0.28114 0.22513 0.0
O142 O 0.64486 0.32717 0.1641 0.0
C143 C 0.46542 0.92402 0.96603 0.0
O144 O 0.47088 0.91667 0.94507 0.0
O145 O 0.47766 0.87913 0.96848 0.0
Zn146 Zn 0.45407 0.88936 0.97553 0.0
O147 O 0.44437 0.87757 0.00627 0.0
C148 C 0.44455 0.88224 0.92392 0.0
O149 O 0.46137 0.88398 0.92042 0.0
O150 O 0.45697 0.91493 0.98187 0.0
C151 C 0.44601 0.86114 0.0079 0.0
O152 O 0.45373 0.85268 0.98947 0.0
C153 C 0.49149 0.88466 0.97892 0.0
O154 O 0.49059 0.89747 0.99532 0.0
O155 O 0.43831 0.88454 0.94592 0.0
C156 C 0.83955 0.29378 0.74651 0.0
O157 O 0.84961 0.28246 0.73498 0.0
O158 O 0.87315 0.27543 0.78808 0.0
Zn159 Zn 0.87114 0.29921 0.77217 0.0
O160 O 0.88604 0.30039 0.74108 0.0
C161 C 0.87567 0.31748 0.81982 0.0
O162 O 0.86362 0.30674 0.82798 0.0
O163 O 0.84615 0.30357 0.76332 0.0
C164 C 0.90219 0.29716 0.74313 0.0
O165 O 0.90845 0.29266 0.7653 0.0
C166 C 0.86038 0.26874 0.79986 0.0
O167 O 0.84565 0.27737 0.80123 0.0
O168 O 0.88024 0.3169 0.79677 0.0
C169 C 0.50092 0.0873 0.50684 0.0
O170 O 0.50741 0.09293 0.5283 0.0
O171 O 0.50604 0.13006 0.5269 0.0
Zn172 Zn 0.48542 0.12098 0.50784 0.0
O173 O 0.47959 0.13741 0.47949 0.0
C174 C 0.46734 0.11499 0.55476 0.0
O175 O 0.48268 0.10936 0.56202 0.0
O176 O 0.49086 0.09717 0.49427 0.0
C177 C 0.46989 0.15049 0.48371 0.0
O178 O 0.46392 0.15309 0.50666 0.0
C179 C 0.52038 0.13403 0.5165 0.0
O180 O 0.52196 0.13262 0.49187 0.0
O181 O 0.46529 0.11997 0.53205 0.0
C182 C 0.67399 0.72718 0.28746 0.0
O183 O 0.6666 0.73502 0.30673 0.0
O184 O 0.63196 0.7225 0.30962 0.0
Zn185 Zn 0.6459 0.70304 0.29453 0.0
O186 O 0.6319 0.69156 0.26724 0.0
C187 C 0.65715 0.69117 0.34316 0.0
O188 O 0.66283 0.70726 0.34475 0.0
O189 O 0.66773 0.71289 0.27946 0.0
C190 C 0.61732 0.68453 0.27209 0.0
O191 O 0.61156 0.68453 0.29546 0.0
C192 C 0.62108 0.73168 0.29744 0.0
O193 O 0.61838 0.7285 0.27336 0.0
O194 O 0.65048 0.686 0.32251 0.0
C195 C 0.03442 0.92909 0.97447 0.0
O196 O 0.03279 0.91572 0.95916 0.0
O197 O 0.02407 0.89257 0.0178 0.0
Zn198 Zn 0.04706 0.90294 0.00821 0.0
O199 O 0.05811 0.88783 0.98177 0.0
C200 C 0.05448 0.91043 0.05941 0.0
O201 O 0.03923 0.91802 0.05717 0.0
O202 O 0.0416 0.9269 0.99586 0.0
C203 C 0.06315 0.87278 0.98852 0.0
O204 O 0.06181 0.86831 0.0124 0.0
C205 C 0.01466 0.88332 0.00333 0.0
O206 O 0.02016 0.87958 0.98047 0.0
O207 O 0.06136 0.90359 0.03996 0.0
C208 C 0.65488 0.77731 0.76996 0.0
O209 O 0.64212 0.76972 0.75762 0.0
O210 O 0.61597 0.76982 0.80747 0.0
Zn211 Zn 0.62594 0.79213 0.79381 0.0
O212 O 0.6137 0.79895 0.7618 0.0
C213 C 0.62553 0.8073 0.84301 0.0
O214 O 0.63295 0.79241 0.84878 0.0
O215 O 0.65122 0.78834 0.78703 0.0
C216 C 0.5978 0.80344 0.76241 0.0
O217 O 0.58962 0.80368 0.7842 0.0
C218 C 0.60628 0.75943 0.79517 0.0
O219 O 0.6023 0.76295 0.77158 0.0
O220 O 0.62209 0.81055 0.82001 0.0
C221 C 0.49383 0.40412 0.97869 0.0
O222 O 0.49589 0.39519 -0.00035 0.0
O223 O 0.52112 0.36351 0.96272 0.0
Zn224 Zn 0.49586 0.37002 0.958 0.0
O225 O 0.48623 0.35984 0.92603 0.0
C226 C 0.46605 0.36281 0.98908 0.0
O227 O 0.45791 0.37103 0.9708 0.0
O228 O 0.4932 0.39603 0.95776 0.0
C229 C 0.48457 0.34343 0.92414 0.0
O230 O 0.48977 0.33351 0.9429 0.0
C231 C 0.53316 0.37485 0.96399 0.0
O232 O 0.52937 0.39135 0.9606 0.0
O233 O 0.48239 0.36059 0.98752 0.0
C234 C 0.8264 0.22146 0.30428 0.0
O235 O 0.84067 0.22492 0.2916 0.0
O236 O 0.86628 0.21842 0.34068 0.0
Zn237 Zn 0.85031 0.19947 0.32815 0.0
O238 O 0.85967 0.18924 0.29576 0.0
C239 C 0.84298 0.18356 0.37656 0.0
O240 O 0.83496 0.19833 0.3811 0.0
O241 O 0.82689 0.21003 0.32161 0.0
C242 C 0.8715 0.19692 0.28321 0.0
O243 O 0.87789 0.21165 0.29173 0.0
C244 C 0.86048 0.23129 0.35321 0.0
O245 O 0.84375 0.23225 0.35805 0.0
O246 O 0.84957 0.18097 0.35486 0.0
C247 C 0.003 0.57316 0.46801 0.0
O248 O 0.99253 0.58245 0.45377 0.0
O249 O 0.98046 0.60766 0.50567 0.0
Zn250 Zn 0.00562 0.60499 0.49651 0.0
O251 O 0.01239 0.62108 0.4683 0.0
C252 C 0.01519 0.60389 0.54843 0.0
O253 O 0.00198 0.59305 0.549 0.0
O254 O 0.01021 0.58023 0.48701 0.0
C255 C 0.01216 0.63747 0.47156 0.0
O256 O 0.00708 0.64375 0.49345 0.0
C257 C 0.96843 0.61371 0.49176 0.0
O258 O 0.97205 0.6188 0.46866 0.0
O259 O 0.01956 0.6107 0.52749 0.0
C260 C 0.6552 0.26475 0.74397 0.0
O261 O 0.64418 0.27557 0.75462 0.0
O262 O 0.61204 0.26576 0.71346 0.0
Zn263 Zn 0.62397 0.24609 0.73141 0.0
O264 O 0.61405 0.24141 0.76585 0.0
C265 C 0.62692 0.22447 0.68788 0.0
O266 O 0.63719 0.23721 0.68066 0.0
O267 O 0.64946 0.25108 0.73334 0.0
C268 C 0.5987 0.23539 0.76761 0.0
O269 O 0.58948 0.23323 0.74692 0.0
C270 C 0.60041 0.27595 0.72196 0.0
O271 O 0.59541 0.27459 0.7456 0.0
O272 O 0.62014 0.22506 0.70974 0.0
C273 C 0.03912 0.42741 0.96697 0.0
O274 O 0.03142 0.42112 0.94678 0.0
O275 O 0.02608 0.38529 0.95671 0.0
Zn276 Zn 0.04937 0.39206 0.97085 0.0
O277 O 0.05472 0.37757 0.00142 0.0
C278 C 0.06465 0.38917 0.92113 0.0
O279 O 0.05029 0.39704 0.91402 0.0
O280 O 0.04855 0.41738 0.98027 0.0
C281 C 0.05275 0.36116 0.00035 0.0
O282 O 0.04679 0.35413 0.97942 0.0
C283 C 0.01251 0.38311 0.97003 0.0
O284 O 0.01351 0.38473 0.9947 0.0
O285 O 0.06738 0.38668 0.94454 0.0
C286 C 0.82629 0.79855 0.17606 0.0
O287 O 0.83296 0.79122 0.15585 0.0
O288 O 0.86571 0.77687 0.17908 0.0
Zn289 Zn 0.86206 0.80215 0.18716 0.0
O290 O 0.87487 0.80799 0.21912 0.0
C291 C 0.873 0.8108 0.13655 0.0
O292 O 0.86709 0.79514 0.1315 0.0
O293 O 0.83646 0.80546 0.19211 0.0
C294 C 0.89053 0.80299 0.22166 0.0
O295 O 0.89792 0.79426 0.2032 0.0
C296 C 0.86522 0.76503 0.19583 0.0
O297 O 0.86276 0.76932 0.21959 0.0
O298 O 0.87162 0.81674 0.15889 0.0
C299 C 0.50353 0.58988 0.50956 0.0
O300 O 0.51585 0.59629 0.52405 0.0
O301 O 0.52586 0.62841 0.48931 0.0
Zn302 Zn 0.50019 0.6255 0.49465 0.0
O303 O 0.49176 0.63666 0.5267 0.0
C304 C 0.49276 0.63442 0.44267 0.0
O305 O 0.50756 0.62641 0.43835 0.0
O306 O 0.49486 0.60008 0.49552 0.0
C307 C 0.47536 0.63798 0.52898 0.0
O308 O 0.46536 0.63209 0.51074 0.0
C309 C 0.5367 0.63518 0.50454 0.0
O310 O 0.53126 0.64138 0.52627 0.0
O311 O 0.48729 0.6358 0.46523 0.0
C312 C 0.35256 0.23027 0.23676 0.0
O313 O 0.36318 0.21811 0.24493 0.0
O314 O 0.39232 0.26869 0.20937 0.0
Zn315 Zn 0.38483 0.24666 0.22678 0.0
O316 O 0.39521 0.24452 0.26152 0.0
C317 C 0.38809 0.22373 0.18392 0.0
O318 O 0.37527 0.23321 0.17497 0.0
O319 O 0.35888 0.24441 0.22837 0.0
C320 C 0.41103 0.23985 0.26324 0.0
O321 O 0.42013 0.23777 0.24245 0.0
C322 C 0.38229 0.27671 0.19424 0.0
O323 O 0.36615 0.27138 0.19166 0.0
O324 O 0.39397 0.22693 0.20586 0.0
C325 C 0.50838 0.59071 0.98223 0.0
O326 O 0.50562 0.59974 0.96156 0.0
O327 O 0.48713 0.63408 0.00084 0.0
Zn328 Zn 0.51149 0.62485 0.00453 0.0
O329 O 0.52227 0.63239 0.03721 0.0
C330 C 0.51889 0.63898 0.95517 0.0
O331 O 0.50219 0.63624 0.95176 0.0
O332 O 0.51139 0.59869 0.00281 0.0
C333 C 0.516 0.62873 0.05876 0.0
O334 O 0.50137 0.61994 0.06018 0.0
C335 C 0.47359 0.6246 0.00188 0.0
O336 O 0.47513 0.60811 0.008 0.0
O337 O 0.52584 0.63485 0.97614 0.0
C338 C 0.1412 0.71938 0.74039 0.0
O339 O 0.13577 0.71735 0.71704 0.0
O340 O 0.09097 0.71044 0.7438 0.0
Zn341 Zn 0.10603 0.73158 0.74901 0.0
O342 O 0.09707 0.74664 0.77707 0.0
C343 C 0.10237 0.73847 0.69572 0.0
O344 O 0.10023 0.72152 0.69478 0.0
O345 O 0.1307 0.72503 0.757 0.0
C346 C 0.1001 0.74304 0.80007 0.0
O347 O 0.10845 0.72862 0.80564 0.0
C348 C 0.09634 0.69486 0.74585 0.0
O349 O 0.11214 0.69195 0.75433 0.0
O350 O 0.10537 0.74569 0.71691 0.0
C351 C 0.01189 0.38733 0.46201 0.0
O352 O 0.00472 0.37754 0.44451 0.0
O353 O 0.04202 0.34398 0.47577 0.0
Zn354 Zn 0.01891 0.35412 0.48585 0.0
O355 O 0.01293 0.34826 0.52177 0.0
C356 C 0.98457 0.34557 0.46881 0.0
O357 O 0.98022 0.35596 0.4875 0.0
O358 O 0.01878 0.38016 0.48122 0.0
C359 C 0.00938 0.33254 0.52722 0.0
O360 O 0.01106 0.32055 0.50967 0.0
C361 C 0.0497 0.35022 0.45655 0.0
O362 O 0.04279 0.36365 0.44491 0.0
O363 O 0.00057 0.34306 0.4641 0.0
C364 C 0.33082 0.74807 0.24339 0.0
O365 O 0.34015 0.74684 0.22268 0.0
O366 O 0.37647 0.73547 0.27796 0.0
Zn367 Zn 0.36377 0.75689 0.26631 0.0
O368 O 0.37282 0.76586 0.23317 0.0
C369 C 0.36538 0.77137 0.31583 0.0
O370 O 0.3599 0.75568 0.3217 0.0
O371 O 0.33824 0.75202 0.26405 0.0
C372 C 0.38745 0.77351 0.23234 0.0
O373 O 0.39671 0.77487 0.25313 0.0
C374 C 0.38906 0.72798 0.26684 0.0
O375 O 0.3943 0.73374 0.24476 0.0
O376 O 0.36765 0.77521 0.29272 0.0
C377 C 0.97877 0.59547 0.04424 0.0
O378 O 0.98577 0.60527 0.06186 0.0
O379 O 0.97681 0.6429 0.04356 0.0
Zn380 Zn 0.95882 0.62651 0.02983 0.0
O381 O 0.95267 0.63302 0.99423 0.0
C382 C 0.93792 0.62564 0.07491 0.0
O383 O 0.95182 0.61816 0.08445 0.0
O384 O 0.96726 0.60184 0.02969 0.0
C385 C 0.95323 0.64859 0.98621 0.0
O386 O 0.95815 0.66108 0.00162 0.0
C387 C 0.99288 0.64332 0.03806 0.0
O388 O -0.00078 0.63207 0.02179 0.0
O389 O 0.93768 0.62944 0.05155 0.0
C390 C 0.15266 0.20657 0.81537 0.0
O391 O 0.14755 0.21669 0.83396 0.0
O392 O 0.11359 0.22904 0.81428 0.0
Zn393 Zn 0.11611 0.20331 0.8085 0.0
O394 O 0.10263 0.1958 0.77788 0.0
C395 C 0.10647 0.19746 0.86045 0.0
O396 O 0.11174 0.21363 0.86309 0.0
O397 O 0.1413 0.19864 0.80228 0.0
C398 C 0.08812 0.20241 0.77149 0.0
O399 O 0.08126 0.21476 0.78547 0.0
C400 C 0.11437 0.24043 0.79692 0.0
O401 O 0.11614 0.23549 0.77329 0.0
O402 O 0.10751 0.19022 0.8389 0.0
C403 C 0.48378 0.4057 0.4724 0.0
O404 O 0.47126 0.39954 0.45803 0.0
O405 O 0.46755 0.36257 0.48385 0.0
Zn406 Zn 0.4924 0.36949 0.47811 0.0
O407 O 0.50094 0.36306 0.44344 0.0
C408 C 0.50253 0.36121 0.52791 0.0
O409 O 0.48864 0.3707 0.53235 0.0
O410 O 0.49442 0.39522 0.48263 0.0
C411 C 0.50904 0.34894 0.43921 0.0
O412 O 0.51141 0.33788 0.45782 0.0
C413 C 0.4616 0.3476 0.4785 0.0
O414 O 0.47175 0.33624 0.46723 0.0
O415 O 0.50704 0.35845 0.50516 0.0
C416 C 0.04083 0.13371 0.42409 0.0
C417 C 0.02257 0.13315 0.42539 0.0
C418 C 0.04913 0.13991 0.40239 0.0
C419 C 0.04219 0.16881 0.34843 0.0
H420 H 0.08249 0.14557 0.3201 0.0
C421 C 0.07622 0.1965 0.26082 0.0
C422 C 0.09447 0.19705 0.26178 0.0
C423 C 0.06687 0.18646 0.27812 0.0
C424 C 0.07133 0.15229 0.32788 0.0
H425 H -0.00127 0.13854 0.40485 0.0
H426 H 0.01325 0.14949 0.36713 0.0
H427 H 0.06743 0.13272 0.35619 0.0
H428 H 0.11727 0.1868 0.28084 0.0
H429 H 0.101 0.16964 0.31133 0.0
H430 H 0.04631 0.18867 0.32088 0.0
C431 C 0.02111 0.14516 0.38291 0.0
C432 C 0.06271 0.14491 0.34853 0.0
C433 C 0.01281 0.13883 0.4045 0.0
C434 C 0.10321 0.18663 0.27954 0.0
C435 C 0.09385 0.17672 0.297 0.0
C436 C 0.05087 0.17626 0.32796 0.0
C437 C 0.03935 0.14582 0.38166 0.0
C438 C 0.04813 0.15317 0.35911 0.0
C439 C 0.07555 0.17687 0.29694 0.0
C440 C 0.06564 0.16817 0.31752 0.0
H441 H 0.04872 0.12939 0.43984 0.0
H442 H 0.06321 0.14044 0.40205 0.0
H443 H 0.03113 0.1756 0.35641 0.0
H444 H 0.06912 0.20426 0.24719 0.0
H445 H 0.0528 0.18655 0.27713 0.0
C446 C 0.0436 0.83409 0.53392 0.0
C447 C 0.03282 0.82383 0.51845 0.0
C448 C 0.05586 0.8263 0.54979 0.0
C449 C 0.07836 0.78476 0.5647 0.0
H450 H 0.07372 0.80056 0.63395 0.0
C451 C 0.09375 0.74144 0.65037 0.0
C452 C 0.09981 0.74915 0.67278 0.0
C453 C 0.08959 0.7517 0.62945 0.0
C454 C 0.07555 0.79619 0.61468 0.0
H455 H 0.02731 0.79744 0.50618 0.0
H456 H 0.04859 0.78386 0.53398 0.0
H457 H 0.05959 0.81667 0.60027 0.0
H458 H 0.10727 0.77357 0.69032 0.0
H459 H 0.10028 0.79145 0.65363 0.0
H460 H 0.09394 0.76396 0.5793 0.0
C461 C 0.04764 0.79793 0.53379 0.0
C462 C 0.06741 0.80544 0.59533 0.0
C463 C 0.03535 0.80571 0.51796 0.0
C464 C 0.10245 0.76725 0.67341 0.0
C465 C 0.09837 0.7775 0.65242 0.0
C466 C 0.08658 0.77553 0.58408 0.0
C467 C 0.05763 0.8081 0.55045 0.0
C468 C 0.06838 0.79961 0.5702 0.0
C469 C 0.0915 0.76989 0.6304 0.0
C470 C 0.0849 0.78089 0.60938 0.0
H471 H 0.04208 0.8481 0.53461 0.0
H472 H 0.06356 0.83448 0.56216 0.0
H473 H 0.07951 0.78009 0.54546 0.0
H474 H 0.09159 0.72753 0.64923 0.0
H475 H 0.08413 0.7454 0.61294 0.0
C476 C 0.41559 0.87242 0.90745 0.0
C477 C 0.43343 0.87533 0.90342 0.0
C478 C 0.40567 0.86354 0.88947 0.0
C479 C 0.40604 0.84576 0.82387 0.0
H480 H 0.37968 0.80824 0.85435 0.0
C481 C 0.39164 0.7806 0.7742 0.0
C482 C 0.37642 0.77149 0.78056 0.0
C483 C 0.39545 0.79653 0.78571 0.0
C484 C 0.38661 0.81885 0.84539 0.0
H485 H 0.45454 0.87227 0.87658 0.0
H486 H 0.43734 0.85653 0.84552 0.0
H487 H 0.39193 0.83079 0.88096 0.0
H488 H 0.35254 0.77262 0.80233 0.0
H489 H 0.35905 0.80052 0.82207 0.0
H490 H 0.40122 0.83329 0.78831 0.0
C491 C 0.43094 0.86123 0.86241 0.0
C492 C 0.39366 0.83182 0.86071 0.0
C493 C 0.44085 0.87016 0.88035 0.0
C494 C 0.36451 0.7792 0.79731 0.0
C495 C 0.36826 0.79516 0.80869 0.0
C496 C 0.39896 0.83274 0.80849 0.0
C497 C 0.41337 0.85734 0.86712 0.0
C498 C 0.40381 0.84521 0.85023 0.0
C499 C 0.38406 0.80371 0.8037 0.0
C500 C 0.38951 0.81891 0.81917 0.0
H501 H 0.40943 0.87642 0.92491 0.0
H502 H 0.39208 0.86102 0.89345 0.0
H503 H 0.4136 0.85604 0.81519 0.0
H504 H 0.40106 0.77504 0.7613 0.0
H505 H 0.4078 0.80269 0.78157 0.0
C506 C 0.41064 0.20074 0.17753 0.0
C507 C 0.39668 0.21051 0.16792 0.0
C508 C 0.41988 0.18941 0.1619 0.0
C509 C 0.43121 0.18339 0.09535 0.0
H510 H 0.45181 0.14064 0.12036 0.0
C511 C 0.48076 0.14335 0.03696 0.0
C512 C 0.49595 0.13901 0.05034 0.0
C513 C 0.46616 0.14971 0.04976 0.0
C514 C 0.44612 0.15254 0.11311 0.0
H515 H 0.38096 0.21547 0.13464 0.0
H516 H 0.39708 0.19555 0.10733 0.0
H517 H 0.43007 0.15577 0.14579 0.0
H518 H 0.5076 0.1375 0.08765 0.0
H519 H 0.48224 0.14857 0.10983 0.0
H520 H 0.44762 0.18038 0.06298 0.0
C521 C 0.40099 0.19685 0.1269 0.0
C522 C 0.4337 0.16121 0.12766 0.0
C523 C 0.39172 0.2082 0.14257 0.0
C524 C 0.49612 0.14078 0.07676 0.0
C525 C 0.48153 0.14697 0.08952 0.0
C526 C 0.4436 0.17467 0.08075 0.0
C527 C 0.41536 0.18757 0.1363 0.0
C528 C 0.42648 0.177 0.11927 0.0
C529 C 0.46644 0.15165 0.07616 0.0
C530 C 0.45153 0.15944 0.08983 0.0
H531 H 0.41479 0.20218 0.19698 0.0
H532 H 0.43102 0.18265 0.16969 0.0
H533 H 0.42605 0.19561 0.08845 0.0
H534 H 0.48022 0.1421 0.01659 0.0
H535 H 0.45466 0.15314 0.03901 0.0
C536 C 0.08126 0.82707 0.24562 0.0
C537 C 0.09516 0.81614 0.23884 0.0
C538 C 0.07851 0.84277 0.23279 0.0
C539 C 0.0981 0.87287 0.18485 0.0
H540 H 0.05031 0.87742 0.16244 0.0
C541 C 0.07773 0.89813 0.08734 0.0
C542 C 0.06191 0.90711 0.08475 0.0
C543 C 0.0832 0.89226 0.11102 0.0
C544 C 0.06366 0.87666 0.1689 0.0
H545 H 0.11777 0.81373 0.21454 0.0
H546 H 0.11277 0.84064 0.19194 0.0
H547 H 0.05728 0.85733 0.19631 0.0
H548 H 0.04013 0.91822 0.10528 0.0
H549 H 0.04968 0.90787 0.14659 0.0
H550 H 0.10452 0.89145 0.15611 0.0
C551 C 0.10407 0.83735 0.2073 0.0
C552 C 0.06768 0.86513 0.18843 0.0
C553 C 0.10685 0.82176 0.22014 0.0
C554 C 0.05232 0.9112 0.10658 0.0
C555 C 0.05774 0.90523 0.13024 0.0
C556 C 0.09409 0.88431 0.16515 0.0
C557 C 0.08957 0.84781 0.21291 0.0
C558 C 0.08503 0.86262 0.19603 0.0
C559 C 0.07294 0.8952 0.13257 0.0
C560 C 0.0769 0.88588 0.15643 0.0
H561 H 0.07211 0.8232 0.26011 0.0
H562 H 0.06738 0.85066 0.23788 0.0
H563 H 0.11155 0.87154 0.19061 0.0
H564 H 0.08547 0.89486 0.07091 0.0
H565 H 0.09491 0.88446 0.11216 0.0
C566 C 0.37602 0.80068 0.32961 0.0
C567 C 0.37066 0.78372 0.33584 0.0
C568 C 0.38288 0.81169 0.34811 0.0
C569 C 0.40748 0.80885 0.40639 0.0
H570 H 0.40011 0.85873 0.40968 0.0
C571 C 0.45129 0.85103 0.46872 0.0
C572 C 0.45765 0.86621 0.45719 0.0
C573 C 0.4371 0.84217 0.45841 0.0
C574 C 0.40236 0.84483 0.40895 0.0
H575 H 0.3674 0.76536 0.36662 0.0
H576 H 0.37953 0.78457 0.39887 0.0
H577 H 0.38146 0.84086 0.3827 0.0
H578 H 0.45354 0.88455 0.42662 0.0
H579 H 0.42922 0.86884 0.40815 0.0
H580 H 0.4289 0.81273 0.43137 0.0
C581 C 0.3785 0.78927 0.37963 0.0
C582 C 0.39164 0.83461 0.39357 0.0
C583 C 0.37152 0.77831 0.36117 0.0
C584 C 0.44894 0.87288 0.43597 0.0
C585 C 0.43489 0.8639 0.42545 0.0
C586 C 0.41828 0.81905 0.42154 0.0
C587 C 0.38461 0.80592 0.37317 0.0
C588 C 0.39432 0.81656 0.39179 0.0
C589 C 0.42911 0.84816 0.43612 0.0
C590 C 0.4161 0.83722 0.42263 0.0
H591 H 0.37545 0.80527 0.31028 0.0
H592 H 0.38762 0.82439 0.34253 0.0
H593 H 0.41004 0.79501 0.40511 0.0
H594 H 0.4576 0.84569 0.4853 0.0
H595 H 0.43273 0.83031 0.46748 0.0
C596 C 0.38369 0.19387 0.70877 0.0
C597 C 0.3739 0.20534 0.69374 0.0
C598 C 0.39119 0.17898 0.69812 0.0
C599 C 0.39039 0.15058 0.64129 0.0
H600 H 0.44011 0.14708 0.6523 0.0
C601 C 0.43782 0.1261 0.5663 0.0
C602 C 0.45349 0.11813 0.57359 0.0
C603 C 0.42592 0.13168 0.58448 0.0
C604 C 0.42617 0.1475 0.64941 0.0
H605 H 0.36355 0.20975 0.65612 0.0
H606 H 0.37661 0.18395 0.63764 0.0
H607 H 0.42291 0.16645 0.67863 0.0
H608 H 0.4683 0.1085 0.60558 0.0
H609 H 0.44741 0.11814 0.63732 0.0
H610 H 0.3938 0.13218 0.61131 0.0
C611 C 0.37846 0.18634 0.65763 0.0
C612 C 0.4163 0.15864 0.66453 0.0
C613 C 0.37113 0.20125 0.66818 0.0
C614 C 0.45643 0.11477 0.59935 0.0
C615 C 0.4445 0.12035 0.61756 0.0
C616 C 0.40025 0.13939 0.6262 0.0
C617 C 0.38883 0.17521 0.67234 0.0
C618 C 0.39844 0.1608 0.65997 0.0
C619 C 0.42939 0.12938 0.61035 0.0
C620 C 0.41836 0.13824 0.62946 0.0
H621 H 0.386 0.19666 0.72856 0.0
H622 H 0.39906 0.17057 0.70991 0.0
H623 H 0.37657 0.15177 0.63765 0.0
H624 H 0.4351 0.12882 0.54661 0.0
H625 H 0.41451 0.13874 0.57824 0.0
C626 C 0.09334 0.17073 0.87954 0.0
C627 C 0.09755 0.18848 0.88145 0.0
C628 C 0.08306 0.16274 0.89793 0.0
C629 C 0.0479 0.17371 0.94011 0.0
H630 H 0.05391 0.12676 0.96553 0.0
C631 C 0.9926 0.14044 0.99402 0.0
C632 C 0.98925 0.12311 0.98716 0.0
C633 C 0.00823 0.14841 0.98716 0.0
C634 C 0.05199 0.13986 0.9585 0.0
H635 H 0.09509 0.21155 0.90486 0.0
H636 H 0.07689 0.19762 0.93678 0.0
H637 H 0.07746 0.14067 0.94201 0.0
H638 H -9e-05 0.10027 0.96873 0.0
H639 H 0.02679 0.1143 0.95586 0.0
H640 H 0.02217 0.1727 0.95497 0.0
C641 C 0.08156 0.18993 0.92102 0.0
C642 C 0.06552 0.14782 0.94516 0.0
C643 C 0.092 0.19787 0.90277 0.0
C644 C 0.00213 0.11365 0.97432 0.0
C645 C 0.01764 0.1217 0.96709 0.0
C646 C 0.03432 0.16569 0.95311 0.0
C647 C 0.07666 0.1724 0.91846 0.0
C648 C 0.06346 0.1647 0.93545 0.0
C649 C 0.02072 0.13932 0.97288 0.0
C650 C 0.03603 0.14852 0.96203 0.0
H651 H 0.09751 0.16312 0.86341 0.0
H652 H 0.07937 0.14924 0.89539 0.0
H653 H 0.04586 0.18664 0.93251 0.0
H654 H 0.98299 0.14798 0.00423 0.0
H655 H 0.01031 0.16186 0.9925 0.0
C656 C 0.96991 0.83877 0.58867 0.0
C657 C 0.96545 0.84097 0.56311 0.0
C658 C 0.95918 0.82916 0.60479 0.0
C659 C 0.92728 0.79386 0.6021 0.0
H660 H 0.91808 0.8059 0.67199 0.0
C661 C 0.88271 0.75155 0.66325 0.0
C662 C 0.88822 0.74801 0.68804 0.0
C663 C 0.89095 0.76435 0.64891 0.0
C664 C 0.92067 0.8023 0.65257 0.0
H665 H 0.9458 0.83552 0.53472 0.0
H666 H 0.92708 0.81886 0.56286 0.0
H667 H 0.93447 0.82604 0.64526 0.0
H668 H 0.9064 0.75546 0.71748 0.0
H669 H 0.92106 0.77762 0.69218 0.0
H670 H 0.91391 0.77003 0.60934 0.0
C671 C 0.939 0.82435 0.57034 0.0
C672 C 0.93001 0.81384 0.63727 0.0
C673 C 0.94969 0.83398 0.55426 0.0
C674 C 0.90185 0.75789 0.69843 0.0
C675 C 0.91019 0.77065 0.68398 0.0
C676 C 0.91804 0.78233 0.61736 0.0
C677 C 0.94381 0.82152 0.59563 0.0
C678 C 0.9334 0.80972 0.61186 0.0
C679 C 0.90499 0.77383 0.65891 0.0
C680 C 0.9146 0.78639 0.64277 0.0
H681 H 0.98195 0.84402 0.5961 0.0
H682 H 0.96329 0.82711 0.62414 0.0
H683 H 0.93001 0.79013 0.58277 0.0
H684 H 0.87211 0.74432 0.65477 0.0
H685 H 0.88637 0.76672 0.62986 0.0
C686 C 0.94342 0.12894 0.52569 0.0
C687 C 0.95499 0.12115 0.50853 0.0
C688 C 0.92612 0.13208 0.51871 0.0
C689 C 0.89253 0.12108 0.47094 0.0
H690 H 0.88078 0.17009 0.47401 0.0
C691 C 0.85669 0.15625 0.39259 0.0
C692 C 0.84746 0.17166 0.39754 0.0
C693 C 0.86426 0.14687 0.41228 0.0
C694 C 0.88346 0.15625 0.47356 0.0
H695 H 0.95734 0.10961 0.47127 0.0
H696 H 0.92731 0.11494 0.45924 0.0
H697 H 0.90517 0.15916 0.49851 0.0
H698 H 0.83741 0.18833 0.42725 0.0
H699 H 0.85057 0.17181 0.46172 0.0
H700 H 0.87135 0.11833 0.44499 0.0
C701 C 0.9315 0.11864 0.47804 0.0
C702 C 0.89751 0.15 0.48762 0.0
C703 C 0.94877 0.11577 0.48483 0.0
C704 C 0.84462 0.17661 0.42278 0.0
C705 C 0.85222 0.1672 0.44253 0.0
C706 C 0.8784 0.1273 0.45702 0.0
C707 C 0.92008 0.12715 0.49466 0.0
C708 C 0.90271 0.13255 0.48543 0.0
C709 C 0.86275 0.15265 0.4374 0.0
C710 C 0.87428 0.14514 0.45714 0.0
H711 H 0.94788 0.13319 0.5441 0.0
H712 H 0.91757 0.13868 0.53185 0.0
H713 H 0.89611 0.10749 0.46926 0.0
H714 H 0.85898 0.15198 0.37337 0.0
H715 H 0.87238 0.13583 0.40752 0.0
C716 C 0.57391 0.14329 0.12134 0.0
C717 C 0.57805 0.1393 0.09612 0.0
C718 C 0.58385 0.15533 0.13489 0.0
C719 C 0.60966 0.19393 0.12151 0.0
H720 H 0.61851 0.19406 0.19364 0.0
C721 C 0.63907 0.2539 0.16934 0.0
C722 C 0.63144 0.25916 0.19221 0.0
C723 C 0.63554 0.23751 0.15924 0.0
C724 C 0.61604 0.19424 0.1735 0.0
H725 H 0.59686 0.14352 0.06619 0.0
H726 H 0.61429 0.16438 0.08993 0.0
H727 H 0.60759 0.16762 0.17328 0.0
H728 H 0.61457 0.25114 0.22288 0.0
H729 H 0.60795 0.22265 0.20484 0.0
H730 H 0.61735 0.22059 0.12164 0.0
C731 C 0.60312 0.15849 0.09902 0.0
C732 C 0.60986 0.17908 0.16185 0.0
C733 C 0.59318 0.14648 0.08547 0.0
C734 C 0.62063 0.24746 0.2052 0.0
C735 C 0.61694 0.23108 0.19494 0.0
C736 C 0.61573 0.20904 0.13312 0.0
C737 C 0.59815 0.16358 0.12348 0.0
C738 C 0.60644 0.17884 0.13575 0.0
C739 C 0.62412 0.22604 0.1716 0.0
C740 C 0.61883 0.20946 0.15929 0.0
H741 H 0.5624 0.1379 0.13017 0.0
H742 H 0.57965 0.159 0.15367 0.0
H743 H 0.60679 0.19432 0.10148 0.0
H744 H 0.64767 0.26253 0.15905 0.0
H745 H 0.6416 0.23392 0.14153 0.0
C746 C 0.52409 0.88566 0.97804 0.0
C747 C 0.50848 0.8772 0.97166 0.0
C748 C 0.54006 0.87907 0.96972 0.0
C749 C 0.56102 0.83937 0.94493 0.0
H750 H 0.5912 0.87107 0.90848 0.0
C751 C 0.6094 0.83393 0.85677 0.0
C752 C 0.61836 0.81859 0.8631 0.0
C753 C 0.59984 0.8429 0.87503 0.0
C754 C 0.58299 0.8621 0.91881 0.0
H755 H 0.49736 0.85494 0.95224 0.0
H756 H 0.52513 0.84344 0.93788 0.0
H757 H 0.56617 0.8825 0.93166 0.0
H758 H 0.62558 0.80149 0.894 0.0
H759 H 0.6089 0.81721 0.92589 0.0
H760 H 0.57719 0.81888 0.93107 0.0
C761 C 0.52508 0.85511 0.94937 0.0
C762 C 0.56875 0.86864 0.93222 0.0
C763 C 0.50916 0.86178 0.95743 0.0
C764 C 0.61867 0.81317 0.88845 0.0
C765 C 0.60907 0.82213 0.90672 0.0
C766 C 0.57527 0.83284 0.93166 0.0
C767 C 0.54068 0.86377 0.95518 0.0
C768 C 0.55731 0.85726 0.94469 0.0
C769 C 0.59905 0.83671 0.89999 0.0
C770 C 0.58609 0.84407 0.91778 0.0
H771 H 0.52397 0.89759 0.98897 0.0
H772 H 0.5519 0.88596 0.97451 0.0
H773 H 0.55252 0.83033 0.95463 0.0
H774 H 0.60899 0.83852 0.83743 0.0
H775 H 0.59218 0.85402 0.86917 0.0
C776 C 0.84871 0.24538 0.8281 0.0
C777 C 0.86239 0.25201 0.81336 0.0
C778 C 0.85097 0.23021 0.84228 0.0
C779 C 0.87915 0.19152 0.84994 0.0
H780 H 0.86472 0.19406 0.92004 0.0
C781 C 0.90823 0.14802 0.92736 0.0
C782 C 0.89766 0.14257 0.94752 0.0
C783 C 0.90176 0.15926 0.90894 0.0
C784 C 0.86852 0.19295 0.90041 0.0
H785 H 0.88899 0.24761 0.80128 0.0
H786 H 0.89297 0.22121 0.82616 0.0
H787 H 0.85737 0.21767 0.8913 0.0
H788 H 0.87174 0.14408 0.96355 0.0
H789 H 0.86036 0.16366 0.93115 0.0
H790 H 0.89062 0.16695 0.8592 0.0
C791 C 0.88044 0.22766 0.8266 0.0
C792 C 0.86433 0.20651 0.88393 0.0
C793 C 0.8782 0.24286 0.81247 0.0
C794 C 0.88025 0.14812 0.94834 0.0
C795 C 0.87375 0.1594 0.92985 0.0
C796 C 0.8833 0.17792 0.8664 0.0
C797 C 0.86694 0.22133 0.84195 0.0
C798 C 0.8699 0.2061 0.85865 0.0
C799 C 0.88453 0.16532 0.91018 0.0
C800 C 0.87835 0.17865 0.89195 0.0
H801 H 0.83632 0.25206 0.82909 0.0
H802 H 0.84026 0.22553 0.8537 0.0
H803 H 0.88337 0.19071 0.83045 0.0
H804 H 0.9217 0.14396 0.92611 0.0
H805 H 0.91049 0.16373 0.89426 0.0
C806 C 0.62762 0.2111 0.64471 0.0
C807 C 0.62141 0.21093 0.66968 0.0
C808 C 0.62063 0.1998 0.62666 0.0
C809 C 0.5922 0.16094 0.61847 0.0
H810 H 0.57855 0.18404 0.55639 0.0
C811 C 0.53391 0.13931 0.5587 0.0
C812 C 0.53505 0.14012 0.53223 0.0
C813 C 0.54744 0.14551 0.57377 0.0
C814 C 0.58255 0.17727 0.57338 0.0
H815 H 0.60374 0.19809 0.69564 0.0
H816 H 0.59141 0.17864 0.66417 0.0
H817 H 0.59749 0.19901 0.58618 0.0
H818 H 0.55146 0.14773 0.50079 0.0
H819 H 0.57512 0.15877 0.52728 0.0
H820 H 0.57658 0.13949 0.60605 0.0
C821 C 0.60179 0.18734 0.6585 0.0
C822 C 0.59344 0.18583 0.59046 0.0
C823 C 0.60878 0.19859 0.67654 0.0
C824 C 0.55017 0.14699 0.52113 0.0
C825 C 0.56369 0.15333 0.53627 0.0
C826 C 0.58125 0.15241 0.60142 0.0
C827 C 0.60731 0.18812 0.63321 0.0
C828 C 0.59801 0.17795 0.61351 0.0
C829 C 0.56239 0.15276 0.56275 0.0
C830 C 0.57595 0.16067 0.57902 0.0
H831 H 0.63745 0.22036 0.63887 0.0
H832 H 0.62536 0.20053 0.60741 0.0
H833 H 0.59574 0.15439 0.63584 0.0
H834 H 0.52247 0.13403 0.56786 0.0
H835 H 0.54594 0.14513 0.59411 0.0
C836 C 0.61607 0.75037 0.33534 0.0
C837 C 0.61145 0.74565 0.31058 0.0
C838 C 0.60675 0.76315 0.34823 0.0
C839 C 0.57588 0.79963 0.33935 0.0
H840 H 0.56609 0.79127 0.41019 0.0
C841 C 0.52679 0.84013 0.39826 0.0
C842 C 0.53179 0.84444 0.42304 0.0
C843 C 0.53705 0.82899 0.38362 0.0
C844 C 0.56889 0.79389 0.39049 0.0
H845 H 0.59358 0.75082 0.27977 0.0
H846 H 0.57704 0.77297 0.30252 0.0
H847 H 0.58273 0.76997 0.38629 0.0
H848 H 0.55173 0.84084 0.45163 0.0
H849 H 0.56958 0.82144 0.42609 0.0
H850 H 0.56171 0.82348 0.34364 0.0
C851 C 0.58805 0.76695 0.31182 0.0
C852 C 0.57845 0.7817 0.37679 0.0
C853 C 0.59746 0.75419 0.29883 0.0
C854 C 0.54746 0.83772 0.43265 0.0
C855 C 0.55765 0.82653 0.41808 0.0
C856 C 0.56621 0.81181 0.35307 0.0
C857 C 0.5925 0.77145 0.33676 0.0
C858 C 0.58215 0.78445 0.35109 0.0
C859 C 0.55244 0.82187 0.39355 0.0
C860 C 0.5627 0.80909 0.37881 0.0
H861 H 0.62691 0.74416 0.34486 0.0
H862 H 0.61076 0.76655 0.36723 0.0
H863 H 0.57867 0.80223 0.31965 0.0
H864 H 0.51481 0.84512 0.39028 0.0
H865 H 0.53266 0.82553 0.36483 0.0
C866 C 0.8857 0.81348 0.09316 0.0
C867 C 0.88312 0.82048 0.11741 0.0
C868 C 0.89703 0.82154 0.07616 0.0
C869 C 0.92221 0.86219 0.06475 0.0
H870 H 0.95524 0.8309 0.03303 0.0
C871 C 0.99071 0.88333 0.03515 0.0
C872 C -0.00244 0.87707 0.01228 0.0
C873 C 0.97471 0.87736 0.04399 0.0
C874 C 0.94594 0.83981 0.04136 0.0
H875 H 0.88972 0.84191 0.14237 0.0
H876 H 0.90963 0.85576 0.11298 0.0
H877 H 0.93027 0.81898 0.05544 0.0
H878 H 0.99291 0.85977 0.98058 0.0
H879 H 0.96491 0.84916 0.99629 0.0
H880 H 0.93836 0.88298 0.05152 0.0
C881 C 0.90278 0.84417 0.1069 0.0
C882 C 0.9316 0.83299 0.05417 0.0
C883 C 0.89143 0.83615 0.12385 0.0
C884 C 0.98797 0.86481 -0.0017 0.0
C885 C 0.97199 0.85871 0.00729 0.0
C886 C 0.93659 0.86899 0.05205 0.0
C887 C 0.90603 0.83675 0.08307 0.0
C888 C 0.9198 0.84409 0.06655 0.0
C889 C 0.96523 0.86491 0.03026 0.0
C890 C 0.94882 0.85785 0.04076 0.0
H891 H 0.87938 0.80148 0.08754 0.0
H892 H 0.89904 0.81564 0.0578 0.0
H893 H 0.91318 0.8711 0.07367 0.0
H894 H -0.00226 0.89281 0.04637 0.0
H895 H 0.96996 0.88217 0.06195 0.0
C896 C 0.54592 0.6542 0.94076 0.0
C897 C 0.52921 0.6478 0.93539 0.0
C898 C 0.55507 0.66377 0.92268 0.0
C899 C 0.54742 0.69057 0.86591 0.0
H900 H 0.59776 0.68952 0.86135 0.0
C901 C 0.58529 0.73449 0.7967 0.0
C902 C 0.59888 0.744 0.8079 0.0
C903 C 0.57751 0.72067 0.80964 0.0
C904 C 0.58369 0.68993 0.86243 0.0
H905 H 0.50933 0.64565 0.90645 0.0
H906 H 0.52546 0.66195 0.87472 0.0
H907 H 0.58277 0.66871 0.88856 0.0
H908 H 0.61541 0.74607 0.84103 0.0
H909 H 0.60189 0.72194 0.86349 0.0
H910 H 0.54838 0.71189 0.83993 0.0
C911 C 0.53133 0.66 0.89311 0.0
C912 C 0.5751 0.67807 0.87807 0.0
C913 C 0.52211 0.65057 0.91126 0.0
C914 C 0.60492 0.73904 0.83191 0.0
C915 C 0.59726 0.72514 0.84472 0.0
C916 C 0.556 0.70232 0.85013 0.0
C917 C 0.54778 0.667 0.89875 0.0
C918 C 0.55688 0.67846 0.88036 0.0
C919 C 0.58331 0.71598 0.83389 0.0
C920 C 0.57423 0.70233 0.84858 0.0
H921 H 0.55173 0.65232 0.9592 0.0
H922 H 0.5676 0.66914 0.92784 0.0
H923 H 0.53341 0.69146 0.86748 0.0
H924 H 0.58037 0.73797 0.7782 0.0
H925 H 0.56686 0.71374 0.80079 0.0
C926 C 0.64676 0.3165 0.09762 0.0
C927 C 0.64611 0.32723 0.11913 0.0
C928 C 0.63929 0.32196 0.07491 0.0
C929 C 0.62189 0.35904 0.03915 0.0
H930 H 0.58445 0.32752 0.02138 0.0
C931 C 0.5608 0.38189 0.98642 0.0
C932 C 0.55056 0.36981 0.97321 0.0
C933 C 0.57596 0.37658 -0.00129 0.0
C934 C 0.59508 0.33633 0.02538 0.0
H935 H 0.63852 0.35265 0.13313 0.0
H936 H 0.62574 0.36229 0.09323 0.0
H937 H 0.60574 0.31879 0.05265 0.0
H938 H 0.54885 0.34305 0.96058 0.0
H939 H 0.57584 0.3339 0.98081 0.0
H940 H 0.61127 0.37664 0.01192 0.0
C941 C 0.63189 0.34962 0.09406 0.0
C942 C 0.60727 0.33131 0.04348 0.0
C943 C 0.63911 0.34406 0.11692 0.0
C944 C 0.5564 0.35258 0.97096 0.0
C945 C 0.57181 0.34733 0.98275 0.0
C946 C 0.60989 0.36396 0.0206 0.0
C947 C 0.63135 0.33836 0.07317 0.0
C948 C 0.62046 0.34279 0.05105 0.0
C949 C 0.58145 0.3591 0.99764 0.0
C950 C 0.59596 0.3529 0.01406 0.0
H951 H 0.6521 0.30347 0.09868 0.0
H952 H 0.63908 0.31309 0.05899 0.0
H953 H 0.63205 0.36807 0.0446 0.0
H954 H 0.55657 0.39527 0.98856 0.0
H955 H 0.58279 0.38603 0.0102 0.0
C956 C 0.89032 0.2441 0.35713 0.0
C957 C 0.87248 0.2448 0.3628 0.0
C958 C 0.90172 0.25657 0.36686 0.0
C959 C 0.90624 0.28735 0.41946 0.0
H960 H 0.94373 0.30645 0.37908 0.0
C961 C 0.95335 0.33877 0.45952 0.0
C962 C 0.97107 0.33617 0.4543 0.0
C963 C 0.94066 0.32912 0.44682 0.0
C964 C 0.9334 0.30114 0.39064 0.0
H965 H 0.85255 0.25935 0.38274 0.0
H966 H 0.87247 0.28114 0.39966 0.0
H967 H 0.92275 0.28667 0.35969 0.0
H968 H 0.98938 0.32169 0.43121 0.0
H969 H 0.96729 0.3047 0.40937 0.0
H970 H 0.91703 0.30149 0.45054 0.0
C971 C 0.87765 0.27083 0.38789 0.0
C972 C 0.92139 0.28982 0.37953 0.0
C973 C 0.86624 0.25839 0.3781 0.0
C974 C 0.97583 0.32402 0.43568 0.0
C975 C 0.96315 0.31435 0.42302 0.0
C976 C 0.91826 0.29862 0.43058 0.0
C977 C 0.89553 0.26999 0.38252 0.0
C978 C 0.90778 0.28269 0.39389 0.0
C979 C 0.94543 0.31664 0.42865 0.0
C980 C 0.93207 0.30552 0.41637 0.0
H981 H 0.89554 0.2338 0.34538 0.0
H982 H 0.91546 0.25546 0.36261 0.0
H983 H 0.89604 0.28187 0.43111 0.0
H984 H 0.94925 0.34811 0.47366 0.0
H985 H 0.9271 0.33137 0.45132 0.0
C986 C 0.86793 0.65854 0.64224 0.0
C987 C 0.8577 0.67341 0.63803 0.0
C988 C 0.87429 0.64887 0.62191 0.0
C989 C 0.88785 0.65619 0.55707 0.0
H990 H 0.89798 0.60677 0.55913 0.0
C991 C 0.93828 0.62625 0.48988 0.0
C992 C 0.95091 0.61636 0.50263 0.0
C993 C 0.92256 0.63042 0.50174 0.0
C994 C 0.89518 0.62057 0.5582 0.0
H995 H 0.84498 0.689 0.60925 0.0
H996 H 0.85611 0.67207 0.57375 0.0
H997 H 0.87738 0.61921 0.58926 0.0
H998 H 0.95649 0.60213 0.53712 0.0
H999 H 0.92935 0.60955 0.55778 0.0
H1000 H 0.90632 0.65779 0.52702 0.0
C1001 C 0.85938 0.66805 0.59278 0.0
C1002 C 0.88339 0.62768 0.57544 0.0
C1003 C 0.85297 0.6777 0.61313 0.0
C1004 C 0.9471 0.60989 0.52683 0.0
C1005 C 0.93142 0.614 0.53861 0.0
C1006 C 0.89966 0.64909 0.53989 0.0
C1007 C 0.87057 0.65387 0.59693 0.0
C1008 C 0.8801 0.64567 0.57565 0.0
C1009 C 0.91915 0.62469 0.52649 0.0
C1010 C 0.90397 0.63133 0.54091 0.0
H1011 H 0.87173 0.65481 0.66119 0.0
H1012 H 0.883 0.63811 0.62578 0.0
H1013 H 0.88576 0.67013 0.55687 0.0
H1014 H 0.94079 0.63133 0.47115 0.0
H1015 H 0.91327 0.63854 0.49183 0.0
C1016 C 0.50733 0.35655 0.5742 0.0
C1017 C 0.51287 0.35414 0.54914 0.0
C1018 C 0.5171 0.34998 0.59431 0.0
C1019 C 0.56119 0.3351 0.61125 0.0
H1020 H 0.53767 0.3101 0.66493 0.0
C1021 C 0.59706 0.28916 0.67912 0.0
C1022 C 0.59157 0.28805 0.7044 0.0
C1023 C 0.58794 0.29931 0.66178 0.0
C1024 C 0.54442 0.31732 0.65036 0.0
H1025 H 0.53306 0.34299 0.52552 0.0
H1026 H 0.55008 0.33146 0.56064 0.0
H1027 H 0.52065 0.32358 0.63133 0.0
H1028 H 0.57254 0.29729 0.7315 0.0
H1029 H 0.55664 0.31524 0.70113 0.0
H1030 H 0.58497 0.3287 0.63009 0.0
C1031 C 0.53825 0.33858 0.56473 0.0
C1032 C 0.53467 0.325 0.63106 0.0
C1033 C 0.52843 0.34507 0.54461 0.0
C1034 C 0.57706 0.29782 0.71214 0.0
C1035 C 0.5679 0.30801 0.69472 0.0
C1036 C 0.57094 0.32748 0.63058 0.0
C1037 C 0.53268 0.34094 0.5898 0.0
C1038 C 0.54297 0.33373 0.61109 0.0
C1039 C 0.57311 0.30867 0.66925 0.0
C1040 C 0.56269 0.31825 0.65014 0.0
H1041 H 0.49541 0.3635 0.57835 0.0
H1042 H 0.51256 0.35213 0.61343 0.0
H1043 H 0.56793 0.34202 0.59636 0.0
H1044 H 0.60819 0.28182 0.67249 0.0
H1045 H 0.59218 0.29933 0.64227 0.0
C1046 C 0.99424 0.38056 0.9312 0.0
C1047 C 0.99576 0.37914 0.95758 0.0
C1048 C 0.97857 0.37669 0.91918 0.0
C1049 C 0.93954 0.35033 0.92585 0.0
H1050 H 0.92317 0.37822 0.86957 0.0
C1051 C 0.88223 0.32763 0.86386 0.0
C1052 C 0.88544 0.32856 0.83776 0.0
C1053 C 0.89295 0.33648 0.88094 0.0
C1054 C 0.92758 0.37028 0.88522 0.0
H1055 H 0.98198 0.37269 0.99207 0.0
H1056 H 0.95453 0.36567 0.97087 0.0
H1057 H 0.94745 0.38856 0.89522 0.0
H1058 H 0.90187 0.34022 0.80904 0.0
H1059 H 0.92062 0.35537 0.83868 0.0
H1060 H 0.92022 0.33168 0.91524 0.0
C1061 C 0.96553 0.36983 0.9596 0.0
C1062 C 0.94146 0.37621 0.89991 0.0
C1063 C 0.98121 0.37388 0.97171 0.0
C1064 C 0.89905 0.33918 0.82903 0.0
C1065 C 0.90974 0.34799 0.84606 0.0
C1066 C 0.92571 0.34434 0.91107 0.0
C1067 C 0.96408 0.37119 0.9332 0.0
C1068 C 0.94787 0.36608 0.91995 0.0
C1069 C 0.90707 0.34644 0.87224 0.0
C1070 C 0.91988 0.35403 0.89016 0.0
H1071 H 0.00519 0.38463 0.91976 0.0
H1072 H 0.97793 0.3776 0.89877 0.0
H1073 H 0.9443 0.34219 0.94105 0.0
H1074 H 0.87178 0.31963 0.87119 0.0
H1075 H 0.89041 0.33521 0.90098 0.0
C1076 C 0.91097 0.64316 0.08184 0.0
C1077 C 0.92429 0.63268 0.09178 0.0
C1078 C 0.9002 0.65273 0.09786 0.0
C1079 C 0.90285 0.67328 0.16006 0.0
H1080 H 0.85716 0.69023 0.14113 0.0
C1081 C 0.87227 0.73403 0.20649 0.0
C1082 C 0.86769 0.74666 0.18847 0.0
C1083 C 0.87568 0.71689 0.19901 0.0
C1084 C 0.86985 0.68549 0.14679 0.0
H1085 H 0.9356 0.62263 0.12638 0.0
H1086 H 0.91653 0.6391 0.15441 0.0
H1087 H 0.86893 0.66434 0.12052 0.0
H1088 H 0.86228 0.75113 0.14877 0.0
H1089 H 0.8681 0.72128 0.13582 0.0
H1090 H 0.90396 0.69478 0.18573 0.0
C1091 C 0.91474 0.64029 0.13419 0.0
C1092 C 0.87662 0.67072 0.13496 0.0
C1093 C 0.92561 0.63078 0.11812 0.0
C1094 C 0.8659 0.74171 0.16306 0.0
C1095 C 0.86906 0.72457 0.15568 0.0
C1096 C 0.89599 0.68794 0.17206 0.0
C1097 C 0.90239 0.65193 0.12422 0.0
C1098 C 0.89353 0.66489 0.14066 0.0
C1099 C 0.87426 0.71206 0.17349 0.0
C1100 C 0.87975 0.69459 0.16478 0.0
H1101 H 0.90951 0.64484 0.06163 0.0
H1102 H 0.89097 0.66164 0.08941 0.0
H1103 H 0.91598 0.66933 0.16478 0.0
H1104 H 0.87372 0.73749 0.22622 0.0
H1105 H 0.87968 0.70748 0.2131 0.0
C1106 C 0.64626 0.66453 0.36516 0.0
C1107 C 0.65474 0.68071 0.36637 0.0
C1108 C 0.64018 0.65657 0.38714 0.0
C1109 C 0.623 0.67082 0.44752 0.0
H1110 H 0.61308 0.62162 0.45502 0.0
C1111 C 0.56665 0.6477 0.51015 0.0
C1112 C 0.55512 0.63683 0.49688 0.0
C1113 C 0.58349 0.6506 0.50102 0.0
C1114 C 0.61585 0.6354 0.45334 0.0
H1115 H 0.66529 0.70022 0.3918 0.0
H1116 H 0.65476 0.68621 0.4302 0.0
H1117 H 0.63597 0.63102 0.42608 0.0
H1118 H 0.55257 0.61957 0.4646 0.0
H1119 H 0.58168 0.62473 0.44866 0.0
H1120 H 0.60226 0.6753 0.47356 0.0
C1121 C 0.65248 0.67989 0.4122 0.0
C1122 C 0.62895 0.64077 0.43678 0.0
C1123 C 0.65857 0.68787 0.39018 0.0
C1124 C 0.56107 0.62816 0.47517 0.0
C1125 C 0.57788 0.63095 0.46617 0.0
C1126 C 0.60994 0.66545 0.46407 0.0
C1127 C 0.64249 0.66459 0.4108 0.0
C1128 C 0.6321 0.65859 0.43281 0.0
C1129 C 0.58914 0.64255 0.4786 0.0
C1130 C 0.60567 0.64773 0.46624 0.0
H1131 H 0.64325 0.65857 0.34713 0.0
H1132 H 0.63246 0.64484 0.38529 0.0
H1133 H 0.62493 0.68465 0.44478 0.0
H1134 H 0.56247 0.65449 0.52703 0.0
H1135 H 0.59193 0.65952 0.51109 0.0
C1136 C 0.43818 0.35768 0.01251 0.0
C1137 C 0.45641 0.35648 0.01145 0.0
C1138 C 0.42911 0.35158 0.03361 0.0
C1139 C 0.43456 0.34003 0.10092 0.0
H1140 H 0.39437 0.31056 0.0896 0.0
C1141 C 0.40739 0.29349 0.17651 0.0
C1142 C 0.38943 0.29005 0.17695 0.0
C1143 C 0.41451 0.30422 0.15791 0.0
C1144 C 0.40535 0.31904 0.09318 0.0
H1145 H 0.47943 0.3481 0.03186 0.0
H1146 H 0.4636 0.3374 0.06856 0.0
H1147 H 0.40879 0.32418 0.05377 0.0
H1148 H 0.36473 0.29607 0.15915 0.0
H1149 H 0.37713 0.31508 0.12696 0.0
H1150 H 0.43127 0.33471 0.14032 0.0
C1151 C 0.45633 0.3432 0.05318 0.0
C1152 C 0.41364 0.32681 0.0726 0.0
C1153 C 0.46538 0.34921 0.03205 0.0
C1154 C 0.37864 0.29834 0.15921 0.0
C1155 C 0.38576 0.30914 0.14065 0.0
C1156 C 0.42622 0.33232 0.12153 0.0
C1157 C 0.43809 0.34425 0.05416 0.0
C1158 C 0.42851 0.33715 0.0762 0.0
C1159 C 0.40383 0.31185 0.13938 0.0
C1160 C 0.41168 0.3215 0.11787 0.0
H1161 H 0.43088 0.36326 0.99699 0.0
H1162 H 0.41506 0.35268 0.03392 0.0
H1163 H 0.44583 0.34817 0.10431 0.0
H1164 H 0.41609 0.28732 0.1899 0.0
H1165 H 0.42849 0.30587 0.15738 0.0
C1166 C 0.45548 0.64899 0.98504 0.0
C1167 C 0.457 0.63134 0.99167 0.0
C1168 C 0.44113 0.65485 0.97132 0.0
C1169 C 0.41069 0.63847 0.92438 0.0
H1170 H 0.39113 0.68485 0.92966 0.0
C1171 C 0.36608 0.6669 0.84677 0.0
C1172 C 0.37047 0.68387 0.83911 0.0
C1173 C 0.37319 0.65985 0.86885 0.0
C1174 C 0.39647 0.67186 0.92794 0.0
H1175 H 0.44404 0.60626 0.99069 0.0
H1176 H 0.41892 0.61656 0.9667 0.0
H1177 H 0.40941 0.67363 0.9637 0.0
H1178 H 0.38545 0.70685 0.84894 0.0
H1179 H 0.39796 0.69451 0.88706 0.0
H1180 H 0.3984 0.63695 0.88819 0.0
C1181 C 0.42896 0.62578 0.97189 0.0
C1182 C 0.4069 0.66543 0.94745 0.0
C1183 C 0.4433 0.61992 0.98575 0.0
C1184 C 0.3818 0.69374 0.85426 0.0
C1185 C 0.38886 0.68672 0.87629 0.0
C1186 C 0.40029 0.64491 0.90486 0.0
C1187 C 0.428 0.6432 0.96387 0.0
C1188 C 0.41454 0.64887 0.94553 0.0
C1189 C 0.38477 0.66965 0.88375 0.0
C1190 C 0.39351 0.66188 0.90608 0.0
H1191 H 0.46577 0.65815 0.98941 0.0
H1192 H 0.44087 0.66832 0.96527 0.0
H1193 H 0.41655 0.62574 0.92217 0.0
H1194 H 0.35732 0.659 0.83558 0.0
H1195 H 0.36969 0.6467 0.87421 0.0
C1196 C 0.06963 0.68401 0.72399 0.0
C1197 C 0.08623 0.68065 0.734 0.0
C1198 C 0.06136 0.67174 0.70869 0.0
C1199 C 0.07304 0.63754 0.66423 0.0
H1200 H 0.02306 0.63172 0.65915 0.0
C1201 C 0.01814 0.60294 0.59557 0.0
C1202 C 0.02423 0.60885 0.57204 0.0
C1203 C 0.02603 0.6085 0.61796 0.0
C1204 C 0.03706 0.63297 0.66051 0.0
H1205 H 0.10658 0.66122 0.73739 0.0
H1206 H 0.09206 0.63973 0.7107 0.0
H1207 H 0.03544 0.64654 0.6958 0.0
H1208 H 0.04368 0.62484 0.55354 0.0
H1209 H 0.05738 0.63458 0.59255 0.0
H1210 H 0.07465 0.62433 0.6287 0.0
C1211 C 0.08558 0.65199 0.71443 0.0
C1212 C 0.04413 0.64158 0.68139 0.0
C1213 C 0.09384 0.66426 0.72984 0.0
C1214 C 0.03866 0.62005 0.57135 0.0
C1215 C 0.0466 0.62554 0.59371 0.0
C1216 C 0.06597 0.62899 0.64333 0.0
C1217 C 0.06952 0.65584 0.70303 0.0
C1218 C 0.06217 0.64434 0.68316 0.0
C1219 C 0.04024 0.61999 0.61727 0.0
C1220 C 0.04788 0.62701 0.64093 0.0
H1221 H 0.06336 0.69648 0.72693 0.0
H1222 H 0.04905 0.67518 0.70006 0.0
H1223 H 0.08698 0.63959 0.66488 0.0
H1224 H 0.00706 0.59426 0.59675 0.0
H1225 H 0.02095 0.60389 0.63583 0.0
C1226 C 0.07142 0.32586 0.45634 0.0
C1227 C 0.06478 0.34113 0.44533 0.0
C1228 C 0.08401 0.316 0.44378 0.0
C1229 C 0.11421 0.3161 0.38853 0.0
H1230 H 0.10225 0.26712 0.38533 0.0
C1231 C 0.12914 0.27229 0.30335 0.0
C1232 C 0.13334 0.25472 0.30748 0.0
C1233 C 0.12504 0.28317 0.32362 0.0
C1234 C 0.10604 0.28068 0.38638 0.0
H1235 H 0.06697 0.3586 0.41328 0.0
H1236 H 0.08855 0.34129 0.39121 0.0
H1237 H 0.08753 0.28586 0.41546 0.0
H1238 H 0.13736 0.23499 0.33623 0.0
H1239 H 0.13011 0.25402 0.37165 0.0
H1240 H 0.13213 0.31096 0.35844 0.0
C1241 C 0.08425 0.33698 0.40966 0.0
C1242 C 0.09761 0.29145 0.40372 0.0
C1243 C 0.07174 0.34686 0.42225 0.0
C1244 C 0.13408 0.24844 0.3324 0.0
C1245 C 0.12988 0.25931 0.35268 0.0
C1246 C 0.12259 0.30533 0.37107 0.0
C1247 C 0.09018 0.32117 0.41992 0.0
C1248 C 0.10124 0.30939 0.40452 0.0
C1249 C 0.12499 0.27669 0.34845 0.0
C1250 C 0.11824 0.2876 0.36937 0.0
H1251 H 0.06644 0.32119 0.47424 0.0
H1252 H 0.08853 0.30404 0.4524 0.0
H1253 H 0.11753 0.3298 0.38898 0.0
H1254 H 0.12853 0.27755 0.28438 0.0
H1255 H 0.12113 0.29645 0.31971 0.0
C1256 C 0.46542 0.64775 0.42592 0.0
C1257 C 0.48231 0.64145 0.42153 0.0
C1258 C 0.45544 0.65431 0.40608 0.0
C1259 C 0.459 0.67452 0.34391 0.0
H1260 H 0.40974 0.66393 0.33992 0.0
C1261 C 0.41443 0.70752 0.27026 0.0
C1262 C 0.39884 0.71418 0.28021 0.0
C1263 C 0.42454 0.69589 0.28436 0.0
C1264 C 0.42347 0.66705 0.34081 0.0
H1265 H 0.50197 0.63707 0.39282 0.0
H1266 H 0.4845 0.64875 0.3581 0.0
H1267 H 0.42786 0.649 0.37094 0.0
H1268 H 0.38127 0.71327 0.31227 0.0
H1269 H 0.39889 0.69327 0.3368 0.0
H1270 H 0.45452 0.69304 0.31444 0.0
C1271 C 0.47904 0.64856 0.37696 0.0
C1272 C 0.43383 0.6585 0.35856 0.0
C1273 C 0.489 0.64185 0.39682 0.0
C1274 C 0.39322 0.70842 0.30404 0.0
C1275 C 0.40329 0.69682 0.31806 0.0
C1276 C 0.44861 0.68315 0.32621 0.0
C1277 C 0.46214 0.65483 0.3814 0.0
C1278 C 0.45162 0.66244 0.36068 0.0
C1279 C 0.41922 0.69065 0.30861 0.0
C1280 C 0.43064 0.67981 0.32488 0.0
H1281 H 0.45987 0.64762 0.44473 0.0
H1282 H 0.44256 0.65929 0.41015 0.0
H1283 H 0.47265 0.67791 0.34524 0.0
H1284 H 0.41909 0.71166 0.25192 0.0
H1285 H 0.43665 0.6912 0.27643 0.0
C1286 C -0.00312 0.66956 0.06523 0.0
C1287 C 0.00428 0.65607 0.05087 0.0
C1288 C 0.00741 0.68114 0.07854 0.0
C1289 C 0.04989 0.68419 0.10879 0.0
H1290 H 0.03827 0.73322 0.11352 0.0
C1291 C 0.08773 0.73125 0.17395 0.0
C1292 C 0.07744 0.7426 0.18847 0.0
C1293 C 0.08039 0.72171 0.15414 0.0
C1294 C 0.04163 0.71955 0.11249 0.0
H1295 H 0.02856 0.64436 0.0388 0.0
H1296 H 0.04705 0.66466 0.06234 0.0
H1297 H 0.02267 0.71469 0.08371 0.0
H1298 H 0.05143 0.75304 0.19334 0.0
H1299 H 0.03859 0.73625 0.15909 0.0
H1300 H 0.06846 0.6889 0.13813 0.0
C1301 C 0.03306 0.66617 0.06325 0.0
C1302 C 0.03273 0.70896 0.09538 0.0
C1303 C 0.02249 0.65462 0.04971 0.0
C1304 C 0.05973 0.74443 0.1825 0.0
C1305 C 0.05239 0.73489 0.16273 0.0
C1306 C 0.05876 0.69478 0.12598 0.0
C1307 C 0.02559 0.67948 0.07793 0.0
C1308 C 0.03651 0.6911 0.09374 0.0
C1309 C 0.0626 0.72333 0.14843 0.0
C1310 C 0.05447 0.7125 0.1284 0.0
H1311 H 0.9829 0.67107 0.06648 0.0
H1312 H 0.00126 0.6911 0.08995 0.0
H1313 H 0.05296 0.67044 0.10814 0.0
H1314 H 0.10145 0.72961 0.178 0.0
H1315 H 0.08864 0.71306 0.14331 0.0
C1316 C 0.11731 0.26439 0.82835 0.0
C1317 C 0.1135 0.25906 0.80358 0.0
C1318 C 0.116 0.28186 0.83517 0.0
C1319 C 0.09119 0.32025 0.82136 0.0
H1320 H 0.12468 0.34278 0.8654 0.0
C1321 C 0.0718 0.38133 0.87634 0.0
C1322 C 0.0757 0.38027 0.90225 0.0
C1323 C 0.08007 0.37032 0.85905 0.0
C1324 C 0.11519 0.33671 0.8531 0.0
H1325 H 0.10564 0.26784 0.76636 0.0
H1326 H 0.10281 0.29853 0.77861 0.0
H1327 H 0.13226 0.31543 0.84463 0.0
H1328 H 0.09235 0.36785 0.93002 0.0
H1329 H 0.10634 0.34847 0.90023 0.0
H1330 H 0.07362 0.34067 0.83115 0.0
C1331 C 0.10702 0.28912 0.79257 0.0
C1332 C 0.11958 0.3211 0.84114 0.0
C1333 C 0.10864 0.27161 0.7856 0.0
C1334 C 0.08896 0.36895 0.91022 0.0
C1335 C 0.09711 0.35788 0.89301 0.0
C1336 C 0.08671 0.33574 0.83356 0.0
C1337 C 0.11062 0.29436 0.81747 0.0
C1338 C 0.10739 0.31244 0.82589 0.0
C1339 C 0.09232 0.35798 0.86735 0.0
C1340 C 0.09843 0.34381 0.85034 0.0
H1341 H 0.1212 0.25502 0.84258 0.0
H1342 H 0.1186 0.28552 0.85459 0.0
H1343 H 0.08151 0.31376 0.80982 0.0
H1344 H 0.06179 0.39007 0.86954 0.0
H1345 H 0.07633 0.371 0.83935 0.0
C1346 C 0.43441 0.35402 0.5027 0.0
C1347 C 0.44441 0.34228 0.4884 0.0
C1348 C 0.41961 0.34833 0.51554 0.0
C1349 C 0.38853 0.31182 0.52321 0.0
H1350 H 0.39144 0.32394 0.59419 0.0
C1351 C 0.35961 0.26946 0.60215 0.0
C1352 C 0.35497 0.27718 0.62525 0.0
C1353 C 0.36629 0.27958 0.5825 0.0
C1354 C 0.39004 0.32072 0.57438 0.0
H1355 H 0.44595 0.31569 0.47477 0.0
H1356 H 0.42014 0.30575 0.49733 0.0
H1357 H 0.4107 0.33791 0.56423 0.0
H1358 H 0.3522 0.30171 0.6451 0.0
H1359 H 0.3633 0.31946 0.61053 0.0
H1360 H 0.36807 0.2943 0.53354 0.0
C1361 C 0.42374 0.31936 0.49856 0.0
C1362 C 0.40117 0.32873 0.55716 0.0
C1363 C 0.43859 0.32503 0.48575 0.0
C1364 C 0.35591 0.29536 0.62764 0.0
C1365 C 0.36237 0.30551 0.60786 0.0
C1366 C 0.37724 0.30389 0.54044 0.0
C1367 C 0.41445 0.33082 0.51427 0.0
C1368 C 0.40084 0.32406 0.53151 0.0
C1369 C 0.36827 0.29767 0.5854 0.0
C1370 C 0.37818 0.30791 0.56637 0.0
H1371 H 0.43841 0.36745 0.50492 0.0
H1372 H 0.41255 0.35751 0.52721 0.0
H1373 H 0.38788 0.30811 0.50348 0.0
H1374 H 0.35903 0.25547 0.59969 0.0
H1375 H 0.37083 0.27302 0.56564 0.0
C1376 C 0.32243 0.23924 0.22447 0.0
C1377 C 0.33358 0.22722 0.23621 0.0
C1378 C 0.30456 0.23609 0.22323 0.0
C1379 C 0.26939 0.21186 0.25399 0.0
H1380 H 0.24446 0.22117 0.19172 0.0
C1381 C 0.19569 0.19918 0.24503 0.0
C1382 C 0.18603 0.21248 0.23337 0.0
C1383 C 0.21385 0.19914 0.24369 0.0
C1384 C 0.25121 0.21861 0.2093 0.0
H1385 H 0.33473 0.20251 0.25602 0.0
H1386 H 0.30348 0.19708 0.25394 0.0
H1387 H 0.27593 0.22503 0.19322 0.0
H1388 H 0.18786 0.23585 0.21048 0.0
H1389 H 0.21941 0.23592 0.20849 0.0
H1390 H 0.24466 0.20585 0.27029 0.0
C1391 C 0.30858 0.20895 0.24577 0.0
C1392 C 0.26923 0.22082 0.21014 0.0
C1393 C 0.32648 0.21205 0.24688 0.0
C1394 C 0.19489 0.2254 0.21967 0.0
C1395 C 0.21301 0.22538 0.21839 0.0
C1396 C 0.25135 0.20972 0.25319 0.0
C1397 C 0.29746 0.2209 0.23382 0.0
C1398 C 0.27847 0.21767 0.23258 0.0
C1399 C 0.22273 0.2124 0.23068 0.0
C1400 C 0.24202 0.21329 0.23092 0.0
H1401 H 0.32749 0.25105 0.21606 0.0
H1402 H 0.29627 0.24565 0.21421 0.0
H1403 H 0.27615 0.20949 0.27162 0.0
H1404 H 0.18925 0.18899 0.25563 0.0
H1405 H 0.22095 0.18881 0.25305 0.0
C1406 C 0.99512 0.92061 0.49061 0.0
C1407 C 0.00459 0.91171 0.50929 0.0
C1408 C -0.00348 0.93863 0.48819 0.0
C1409 C 0.00854 0.97822 0.52292 0.0
H1410 H 0.01201 -0.00176 0.45584 0.0
C1411 C 0.01866 0.05187 0.50691 0.0
C1412 C 0.00845 0.05954 0.48789 0.0
C1413 C 0.01941 0.03378 0.50935 0.0
C1414 C 0.01091 0.99286 0.47468 0.0
H1415 H 0.02284 0.91478 0.54027 0.0
H1416 H 0.02529 0.94634 0.53599 0.0
H1417 H 0.01083 0.96671 0.46076 0.0
H1418 H 0.9912 0.05425 0.45634 0.0
H1419 H 0.99237 0.02274 0.46079 0.0
H1420 H 0.00838 0.00438 0.53683 0.0
C1421 C 0.01672 0.93933 0.52331 0.0
C1422 C 0.01024 0.97481 0.47749 0.0
C1423 C 0.01537 0.92125 0.52569 0.0
C1424 C -0.00077 0.04875 0.47115 0.0
C1425 C -3e-05 0.03068 0.47361 0.0
C1426 C 0.00918 0.99629 0.5201 0.0
C1427 C 0.00738 0.94817 0.50443 0.0
C1428 C 0.00887 0.96731 0.50162 0.0
C1429 C 0.00998 0.02299 0.49283 0.0
C1430 C 0.0102 0.0038 0.49593 0.0
H1431 H 0.98665 0.91366 0.47772 0.0
H1432 H 0.98895 0.94512 0.47372 0.0
H1433 H 0.00731 0.97281 0.54173 0.0
H1434 H 0.02597 0.05982 0.52005 0.0
H1435 H 0.02742 0.02823 0.52415 0.0
C1436 C 0.29355 0.71505 0.80772 0.0
C1437 C 0.305 0.71247 0.78738 0.0
C1438 C 0.27561 0.71354 0.80425 0.0
C1439 C 0.24195 0.69644 0.76072 0.0
H1440 H 0.21363 0.73309 0.78978 0.0
C1441 C 0.17158 0.7109 0.72862 0.0
C1442 C 0.1595 0.71583 0.74719 0.0
C1443 C 0.18909 0.70859 0.73486 0.0
C1444 C 0.2213 0.7226 0.78186 0.0
H1445 H 0.30663 0.70579 0.7476 0.0
H1446 H 0.27532 0.70338 0.7415 0.0
H1447 H 0.24469 0.73234 0.79848 0.0
H1448 H 0.15617 0.72158 0.78706 0.0
H1449 H 0.18666 0.71741 0.79794 0.0
H1450 H 0.21852 0.6869 0.74373 0.0
C1451 C 0.28021 0.70638 0.76019 0.0
C1452 C 0.23911 0.72216 0.78686 0.0
C1453 C 0.29816 0.70788 0.76366 0.0
C1454 C 0.16518 0.71792 0.77225 0.0
C1455 C 0.18266 0.7156 0.77848 0.0
C1456 C 0.22411 0.69687 0.7557 0.0
C1457 C 0.26874 0.70943 0.78037 0.0
C1458 C 0.24966 0.70917 0.77618 0.0
C1459 C 0.19486 0.71116 0.7598 0.0
C1460 C 0.21362 0.71005 0.76607 0.0
H1461 H 0.29842 0.71848 0.82628 0.0
H1462 H 0.2671 0.71571 0.82025 0.0
H1463 H 0.24972 0.68613 0.75248 0.0
H1464 H 0.16761 0.70918 0.70914 0.0
H1465 H 0.1982 0.70534 0.71999 0.0
C1466 C 0.53606 0.06306 0.0128 0.0
C1467 C 0.53178 0.07028 0.03639 0.0
C1468 C 0.52926 0.04696 0.00552 0.0
C1469 C 0.49203 0.01826 0.01808 0.0
H1470 H 0.5191 0.98406 0.98128 0.0
C1471 C 0.46696 0.94899 0.99633 0.0
C1472 C 0.47116 0.94179 0.97269 0.0
C1473 C 0.47394 0.96499 0.00371 0.0
C1474 C 0.51131 0.99358 0.99126 0.0
H1475 H 0.51765 0.06593 0.07131 0.0
H1476 H 0.50597 0.03775 0.05869 0.0
H1477 H 0.533 0.01078 0.99587 0.0
H1478 H 0.48541 0.94606 0.93786 0.0
H1479 H 0.4974 0.97408 0.95065 0.0
H1480 H 0.47034 0.00109 0.01345 0.0
C1481 C 0.51432 0.04468 0.04565 0.0
C1482 C 0.51929 0.00886 -0.00033 0.0
C1483 C 0.52112 0.06077 0.05294 0.0
C1484 C 0.48198 0.95121 0.95624 0.0
C1485 C 0.48897 0.9672 0.96364 0.0
C1486 C 0.48405 0.003 0.00966 0.0
C1487 C 0.51805 0.03776 0.02168 0.0
C1488 C 0.50973 0.02135 0.01319 0.0
C1489 C 0.48526 0.97412 0.98762 0.0
C1490 C 0.49361 0.9905 0.99615 0.0
H1491 H 0.54423 0.07006 -0.0004 0.0
H1492 H 0.53228 0.04202 0.98686 0.0
H1493 H 0.48424 0.02779 0.02805 0.0
H1494 H 0.45868 0.94206 0.00946 0.0
H1495 H 0.47094 0.96991 0.02238 0.0
C1496 C 0.17176 0.75068 0.25617 0.0
C1497 C 0.16366 0.75197 0.23243 0.0
C1498 C 0.18973 0.74831 0.25793 0.0
C1499 C 0.22844 0.73436 0.222 0.0
H1500 H 0.25314 0.76398 0.26929 0.0
C1501 C 0.30299 0.74416 0.21939 0.0
C1502 C 0.31173 0.74586 0.24257 0.0
C1503 C 0.28484 0.74323 0.21865 0.0
C1504 C 0.24644 0.7554 0.25627 0.0
H1505 H 0.16799 0.75131 0.19193 0.0
H1506 H 0.19937 0.74727 0.19504 0.0
H1507 H 0.22155 0.76523 0.26725 0.0
H1508 H 0.30835 0.74722 0.28324 0.0
H1509 H 0.27677 0.74531 0.28196 0.0
H1510 H 0.25339 0.72462 0.2109 0.0
C1511 C 0.1918 0.74798 0.21227 0.0
C1512 C 0.22833 0.75614 0.2551 0.0
C1513 C 0.17384 0.75041 0.2105 0.0
C1514 C 0.302 0.74608 0.26504 0.0
C1515 C 0.28389 0.74507 0.2643 0.0
C1516 C 0.24658 0.73358 0.22323 0.0
C1517 C 0.19996 0.74712 0.236 0.0
C1518 C 0.21914 0.7457 0.23786 0.0
C1519 C 0.27508 0.74392 0.24109 0.0
C1520 C 0.25578 0.74417 0.24029 0.0
H1521 H 0.16427 0.75174 0.27343 0.0
H1522 H 0.19563 0.74747 0.27647 0.0
H1523 H 0.22167 0.72602 0.20872 0.0
H1524 H 0.31012 0.74397 0.20175 0.0
H1525 H 0.27844 0.74251 0.20044 0.0
C1526 C 0.52168 0.9338 0.48414 0.0
C1527 C 0.51733 0.92508 0.46168 0.0
C1528 C 0.52251 0.95192 0.48476 0.0
C1529 C 0.50345 0.98995 0.456 0.0
H1530 H 0.54032 0.01463 0.49093 0.0
C1531 C 0.49988 0.06405 0.47363 0.0
C1532 C 0.50498 0.06957 0.49785 0.0
C1533 C 0.50339 0.04708 0.46556 0.0
C1534 C 0.52987 0.00793 0.48125 0.0
H1535 H 0.51077 0.92843 0.42212 0.0
H1536 H 0.51187 0.96031 0.4234 0.0
H1537 H 0.54309 0.98343 0.48334 0.0
H1538 H 0.51785 0.0617 0.5325 0.0
H1539 H 0.5235 0.03209 0.51878 0.0
H1540 H 0.48978 0.01416 0.45502 0.0
C1541 C 0.51474 0.95302 0.44042 0.0
C1542 C 0.53152 0.99011 0.4768 0.0
C1543 C 0.51417 0.93483 0.43969 0.0
C1544 C 0.51382 0.05788 0.51369 0.0
C1545 C 0.51719 0.04091 0.50571 0.0
C1546 C 0.5017 0.00775 0.4607 0.0
C1547 C 0.51881 0.9617 0.46302 0.0
C1548 C 0.51816 0.9809 0.46463 0.0
C1549 C 0.51196 0.03526 0.4816 0.0
C1550 C 0.51472 0.01687 0.47391 0.0
H1551 H 0.52426 0.92663 0.50136 0.0
H1552 H 0.5255 0.95831 0.5025 0.0
H1553 H 0.49289 0.98309 0.44678 0.0
H1554 H 0.49315 0.07281 0.46092 0.0
H1555 H 0.49937 0.04322 0.44676 0.0
C1556 C 0.18311 0.21779 0.81862 0.0
C1557 C 0.17104 0.20647 0.80731 0.0
C1558 C 0.19984 0.2195 0.80868 0.0
C1559 C 0.22277 0.21458 0.74843 0.0
H1560 H 0.264 0.22243 0.7891 0.0
C1561 C 0.29091 0.22354 0.70467 0.0
C1562 C 0.30132 0.23679 0.71501 0.0
C1563 C 0.27536 0.21874 0.71635 0.0
C1564 C 0.25256 0.22038 0.77752 0.0
H1565 H 0.1674 0.18723 0.77773 0.0
H1566 H 0.19668 0.19005 0.76064 0.0
H1567 H 0.23658 0.21497 0.80969 0.0
H1568 H 0.30347 0.25555 0.74554 0.0
H1569 H 0.27623 0.24729 0.76573 0.0
H1570 H 0.23866 0.22019 0.7163 0.0
C1571 C 0.19308 0.19788 0.77684 0.0
C1572 C 0.23689 0.21609 0.7893 0.0
C1573 C 0.17634 0.19619 0.78673 0.0
C1574 C 0.29577 0.24526 0.73711 0.0
C1575 C 0.28023 0.24044 0.74881 0.0
C1576 C 0.23843 0.21885 0.73666 0.0
C1577 C 0.20485 0.20989 0.78728 0.0
C1578 C 0.22179 0.21328 0.77488 0.0
C1579 C 0.26991 0.22707 0.73862 0.0
C1580 C 0.25345 0.22195 0.7511 0.0
H1581 H 0.17944 0.22588 0.83451 0.0
H1582 H 0.20857 0.22895 0.81706 0.0
H1583 H 0.2113 0.21282 0.73681 0.0
H1584 H 0.29486 0.21672 0.6877 0.0
H1585 H 0.26774 0.2083 0.70818 0.0
C1586 C 0.94404 0.0556 0.98741 0.0
C1587 C 0.94028 0.06571 0.96599 0.0
C1588 C 0.95184 0.03931 0.98488 0.0
C1589 C 0.97982 0.01504 0.94082 0.0
H1590 H 0.97342 0.97854 0.99054 0.0
C1591 C 0.0173 0.94846 0.94552 0.0
C1592 C 0.0249 0.94541 0.96929 0.0
C1593 C 0.00617 0.96267 0.94191 0.0
C1594 C 0.97527 0.98862 0.97649 0.0
H1595 H 0.94063 0.06612 0.92501 0.0
H1596 H 0.95388 0.0374 0.92057 0.0
H1597 H 0.95329 0.00305 0.9895 0.0
H1598 H 0.02738 0.95529 0.00759 0.0
H1599 H 0.00778 0.9798 0.00131 0.0
H1600 H 0.00187 0.00035 0.92789 0.0
C1601 C 0.95121 0.0423 0.93936 0.0
C1602 C 0.96381 0.00268 0.97592 0.0
C1603 C 0.94349 0.0587 0.9419 0.0
C1604 C 0.02174 0.95723 0.98904 0.0
C1605 C 0.01044 0.9712 0.98554 0.0
C1606 C 0.99114 0.00078 0.94115 0.0
C1607 C 0.95592 0.03263 0.96086 0.0
C1608 C 0.96628 0.01636 0.95864 0.0
C1609 C 0.00229 0.97381 0.96214 0.0
C1610 C 0.98924 0.98777 0.9595 0.0
H1611 H 0.94175 0.06059 0.00626 0.0
H1612 H 0.95546 0.0324 0.00191 0.0
H1613 H 0.98224 0.0254 0.92742 0.0
H1614 H 0.01952 0.93959 0.92994 0.0
H1615 H 5e-05 0.96453 0.92367 0.0
C1616 C 0.79862 0.71825 0.72049 0.0
C1617 C 0.81253 0.72546 0.7342 0.0
C1618 C 0.78164 0.724 0.72458 0.0
C1619 C 0.75673 0.7612 0.74941 0.0
H1620 H 0.71882 0.72793 0.75156 0.0
C1621 C 0.68677 0.77976 0.77896 0.0
C1622 C 0.67311 0.77233 0.76499 0.0
C1623 C 0.70391 0.77438 0.77503 0.0
C1624 C 0.72925 0.73739 0.75072 0.0
H1625 H 0.8195 0.74423 0.76314 0.0
H1626 H 0.7898 0.75413 0.77046 0.0
H1627 H 0.74851 0.71763 0.74552 0.0
H1628 H 0.66674 0.75372 0.73553 0.0
H1629 H 0.69665 0.74448 0.72853 0.0
H1630 H 0.73744 0.78096 0.75465 0.0
C1631 C 0.79208 0.74419 0.75631 0.0
C1632 C 0.74625 0.7315 0.74728 0.0
C1633 C 0.80908 0.73845 0.75222 0.0
C1634 C 0.67696 0.75965 0.7467 0.0
C1635 C 0.69408 0.75426 0.74279 0.0
C1636 C 0.73972 0.7671 0.75288 0.0
C1637 C 0.77819 0.73707 0.74247 0.0
C1638 C 0.76017 0.74334 0.74652 0.0
C1639 C 0.70772 0.76146 0.75706 0.0
C1640 C 0.7258 0.75526 0.75349 0.0
H1641 H 0.80086 0.70826 0.70641 0.0
H1642 H 0.77123 0.7184 0.71341 0.0
H1643 H 0.76716 0.77066 0.74855 0.0
H1644 H 0.68422 0.78955 0.79322 0.0
H1645 H 0.71414 0.78006 0.78646 0.0
C1646 C 0.7026 0.30619 0.23277 0.0
C1647 C 0.68718 0.3048 0.24689 0.0
C1648 C 0.71817 0.29939 0.24214 0.0
C1649 C 0.73305 0.26461 0.28352 0.0
H1650 H 0.77846 0.28568 0.27464 0.0
C1651 C 0.79606 0.23032 0.31573 0.0
C1652 C 0.8104 0.23153 0.29939 0.0
C1653 C 0.78122 0.24041 0.31151 0.0
C1654 C 0.76588 0.27957 0.27705 0.0
H1655 H 0.67625 0.29623 0.28259 0.0
H1656 H 0.70344 0.2844 0.29888 0.0
H1657 H 0.75236 0.30223 0.26397 0.0
H1658 H 0.82037 0.24408 0.26566 0.0
H1659 H 0.79437 0.26131 0.25794 0.0
H1660 H 0.74647 0.24177 0.29582 0.0
C1661 C 0.70341 0.29053 0.28045 0.0
C1662 C 0.75096 0.28908 0.27105 0.0
C1663 C 0.68786 0.29739 0.27115 0.0
C1664 C 0.80956 0.24291 0.27866 0.0
C1665 C 0.79471 0.2529 0.27436 0.0
C1666 C 0.74796 0.25507 0.28938 0.0
C1667 C 0.71859 0.29103 0.26574 0.0
C1668 C 0.73441 0.28163 0.274 0.0
C1669 C 0.78039 0.25184 0.29079 0.0
C1670 C 0.76455 0.26236 0.28594 0.0
H1671 H 0.70252 0.31187 0.21405 0.0
H1672 H 0.72966 0.29988 0.23033 0.0
H1673 H 0.72047 0.25842 0.28559 0.0
H1674 H 0.79638 0.22176 0.33199 0.0
H1675 H 0.77049 0.23942 0.32468 0.0
C1676 C 0.68541 0.25802 0.72956 0.0
C1677 C 0.67404 0.2686 0.74356 0.0
C1678 C 0.70317 0.26169 0.7288 0.0
C1679 C 0.73526 0.29675 0.73998 0.0
H1680 H 0.76772 0.25815 0.74279 0.0
C1681 C 0.80949 0.30433 0.75656 0.0
C1682 C 0.82052 0.29333 0.74262 0.0
C1683 C 0.79143 0.30244 0.75504 0.0
C1684 C 0.75882 0.26906 0.74166 0.0
H1685 H 0.67239 0.29132 0.76779 0.0
H1686 H 0.70352 0.29753 0.76687 0.0
H1687 H 0.73662 0.25244 0.74426 0.0
H1688 H 0.82124 0.27232 0.71521 0.0
H1689 H 0.78977 0.2691 0.71254 0.0
H1690 H 0.75763 0.31335 0.73782 0.0
C1691 C 0.69863 0.28656 0.75613 0.0
C1692 C 0.74099 0.26579 0.74251 0.0
C1693 C 0.68081 0.28294 0.7568 0.0
C1694 C 0.81312 0.28093 0.72632 0.0
C1695 C 0.7951 0.279 0.72489 0.0
C1696 C 0.75315 0.30002 0.73927 0.0
C1697 C 0.71001 0.27596 0.74214 0.0
C1698 C 0.72899 0.27958 0.74158 0.0
C1699 C 0.78409 0.28948 0.73964 0.0
C1700 C 0.76509 0.28619 0.74 0.0
H1701 H 0.6806 0.24695 0.71898 0.0
H1702 H 0.71151 0.25343 0.71748 0.0
H1703 H 0.72636 0.30764 0.73891 0.0
H1704 H 0.81479 0.31403 0.76927 0.0
H1705 H 0.78326 0.31064 0.76671 0.0
C1706 C 0.80093 0.80214 0.20524 0.0
C1707 C 0.80781 0.7957 0.18248 0.0
C1708 C 0.78455 0.79678 0.21354 0.0
C1709 C 0.7569 0.75864 0.20929 0.0
H1710 H 0.72285 0.78714 0.24403 0.0
C1711 C 0.69425 0.72917 0.25063 0.0
C1712 C 0.68868 0.7355 0.27419 0.0
C1713 C 0.70766 0.73747 0.23758 0.0
C1714 C 0.73232 0.77899 0.23459 0.0
H1715 H 0.80232 0.7797 0.14961 0.0
H1716 H 0.77374 0.77036 0.16417 0.0
H1717 H 0.74773 0.80096 0.22348 0.0
H1718 H 0.69294 0.75535 0.30268 0.0
H1719 H 0.7167 0.76951 0.28028 0.0
H1720 H 0.74201 0.73664 0.22105 0.0
C1721 C 0.78114 0.77936 0.17571 0.0
C1722 C 0.74649 0.78692 0.22272 0.0
C1723 C 0.79747 0.78478 0.16734 0.0
C1724 C 0.6969 0.7502 0.28452 0.0
C1725 C 0.71042 0.75841 0.27157 0.0
C1726 C 0.74285 0.75071 0.2213 0.0
C1727 C 0.77478 0.78484 0.19927 0.0
C1728 C 0.75896 0.7768 0.2101 0.0
C1729 C 0.71592 0.75218 0.2479 0.0
C1730 C 0.73046 0.76077 0.23427 0.0
H1731 H 0.80854 0.81065 0.21727 0.0
H1732 H 0.77998 0.80118 0.23182 0.0
H1733 H 0.7665 0.75048 0.20012 0.0
H1734 H 0.68806 0.71796 0.24205 0.0
H1735 H 0.71139 0.73247 0.21924 0.0
C1736 C 0.49598 0.43224 0.00229 0.0
C1737 C 0.49379 0.42335 0.9793 0.0
C1738 C 0.497 0.45038 0.00275 0.0
C1739 C 0.48667 0.48978 0.96599 0.0
H1740 H 0.52286 0.51082 0.00697 0.0
C1741 C 0.50389 0.56267 0.95906 0.0
C1742 C 0.50711 0.57152 0.98182 0.0
C1743 C 0.50217 0.54458 0.95877 0.0
C1744 C 0.51256 0.50516 0.99566 0.0
H1745 H 0.49055 0.42652 0.93883 0.0
H1746 H 0.49239 0.45821 0.93967 0.0
H1747 H 0.51946 0.47928 0.00667 0.0
H1748 H 0.51112 0.56833 0.02214 0.0
H1749 H 0.50795 0.53678 0.02167 0.0
H1750 H 0.47975 0.51567 0.955 0.0
C1751 C 0.49321 0.45114 0.95734 0.0
C1752 C 0.51061 0.4871 0.9955 0.0
C1753 C 0.49224 0.43299 0.95685 0.0
C1754 C 0.50871 0.56189 0.00427 0.0
C1755 C 0.50697 0.5438 0.00398 0.0
C1756 C 0.48859 0.50785 0.96619 0.0
C1757 C 0.4958 0.46001 0.98026 0.0
C1758 C 0.49766 0.47922 0.98065 0.0
C1759 C 0.50362 0.53495 0.98125 0.0
C1760 C 0.50157 0.51575 0.98101 0.0
H1761 H 0.49716 0.4252 0.01993 0.0
H1762 H 0.49875 0.45688 0.02074 0.0
H1763 H 0.47643 0.48408 0.9546 0.0
H1764 H 0.50264 0.56971 0.94142 0.0
H1765 H 0.49985 0.53811 0.9409 0.0
C1766 C 0.00326 0.41454 0.43919 0.0
C1767 C 0.0121 0.40647 0.45928 0.0
C1768 C 0.00324 0.43266 0.43687 0.0
C1769 C 0.02684 0.47211 0.45691 0.0
H1770 H 0.98289 0.49548 0.44499 0.0
C1771 C 0.01638 0.54451 0.47901 0.0
C1772 C 0.00566 0.55441 0.46302 0.0
C1773 C 0.01816 0.52662 0.47536 0.0
C1774 C 0.99532 0.48917 0.44787 0.0
H1775 H 0.028 0.41105 0.49252 0.0
H1776 H 0.0279 0.44263 0.4885 0.0
H1777 H 0.9841 0.46377 0.44456 0.0
H1778 H 0.98878 0.55339 0.43018 0.0
H1779 H 0.99203 0.52208 0.42366 0.0
H1780 H 0.03804 0.49748 0.46056 0.0
C1781 C 0.02111 0.43495 0.47443 0.0
C1782 C 0.99601 0.471 0.44767 0.0
C1783 C 0.02106 0.41686 0.47683 0.0
C1784 C -0.00292 0.5461 0.4429 0.0
C1785 C -0.00113 0.52816 0.43924 0.0
C1786 C 0.02618 0.49027 0.45703 0.0
C1787 C 0.01215 0.44305 0.4545 0.0
C1788 C 0.01171 0.46229 0.45264 0.0
C1789 C 0.00929 0.5182 0.4556 0.0
C1790 C 0.01035 0.499 0.45297 0.0
H1791 H 0.99625 0.4069 0.42533 0.0
H1792 H -0.00367 0.43855 0.42121 0.0
H1793 H 0.03919 0.46574 0.46036 0.0
H1794 H 0.02317 0.55049 0.49471 0.0
H1795 H 0.02608 0.5193 0.48854 0.0
C1796 C 0.02244 0.45512 0.96297 0.0
C1797 C 0.03506 0.44522 0.9757 0.0
C1798 C 0.01711 0.47116 0.97255 0.0
C1799 C 0.02914 0.50729 0.01395 0.0
H1800 H 0.97925 0.51463 0.01686 0.0
C1801 C -0.00148 0.5704 0.0545 0.0
C1802 C 0.98491 0.57747 0.04002 0.0
C1803 C 0.00483 0.55369 0.04932 0.0
C1804 C 0.99321 0.51284 0.01603 0.0
H1805 H 0.05257 0.44475 0.00788 0.0
H1806 H 0.04331 0.47301 0.02449 0.0
H1807 H 0.9906 0.48694 0.00174 0.0
H1808 H 0.9671 0.57245 0.009 0.0
H1809 H 0.97819 0.54361 -0.00016 0.0
H1810 H 0.03174 0.53341 0.02761 0.0
C1811 C 0.03752 0.46822 0.00717 0.0
C1812 C -0.0003 0.49699 0.00738 0.0
C1813 C 0.04278 0.45206 0.99768 0.0
C1814 C 0.97756 0.5674 0.02059 0.0
C1815 C 0.98385 0.55078 0.01543 0.0
C1816 C 0.02263 0.52325 0.02246 0.0
C1817 C 0.02437 0.47772 0.99496 0.0
C1818 C 0.0177 0.49417 0.0058 0.0
C1819 C -0.00239 0.54374 0.02961 0.0
C1820 C 0.00459 0.5263 0.02313 0.0
H1821 H 0.01629 0.45029 0.94594 0.0
H1822 H 0.00716 0.47837 0.96253 0.0
H1823 H 0.04308 0.50543 0.01286 0.0
H1824 H 0.00445 0.57783 0.06962 0.0
H1825 H 0.01535 0.54855 0.06073 0.0
C1826 C 0.47403 0.43645 0.46543 0.0
C1827 C 0.48538 0.42459 0.47711 0.0
C1828 C 0.47557 0.4543 0.47009 0.0
C1829 C 0.50684 0.48726 0.49255 0.0
H1830 H 0.46561 0.51566 0.50173 0.0
C1831 C 0.51099 0.55934 0.52203 0.0
C1832 C 0.50043 0.57092 0.50838 0.0
C1833 C 0.50866 0.54137 0.51969 0.0
C1834 C 0.47723 0.5079 0.49903 0.0
H1835 H 0.50716 0.42213 0.503 0.0
H1836 H 0.5097 0.45317 0.51129 0.0
H1837 H 0.46256 0.48444 0.4943 0.0
H1838 H 0.47884 0.57276 0.48204 0.0
H1839 H 0.47487 0.54146 0.47786 0.0
H1840 H 0.5215 0.51071 0.49717 0.0
C1841 C 0.49978 0.44873 0.49825 0.0
C1842 C 0.47549 0.49005 0.49472 0.0
C1843 C 0.49826 0.43093 0.49358 0.0
C1844 C 0.48722 0.56419 0.49281 0.0
C1845 C 0.48486 0.54625 0.49052 0.0
C1846 C 0.50858 0.5051 0.49689 0.0
C1847 C 0.48848 0.46062 0.48654 0.0
C1848 C 0.49028 0.47955 0.49135 0.0
C1849 C 0.49568 0.53465 0.50371 0.0
C1850 C 0.49379 0.51561 0.50008 0.0
H1851 H 0.46399 0.43199 0.45261 0.0
H1852 H 0.4668 0.46316 0.46053 0.0
H1853 H 0.51847 0.47957 0.48963 0.0
H1854 H 0.52124 0.56411 0.53425 0.0
H1855 H 0.51705 0.53274 0.53033 0.0
C1856 C 0.05525 0.33197 0.02114 0.0
C1857 C 0.05797 0.35005 0.02188 0.0
C1858 C 0.06092 0.32139 0.041 0.0
C1859 C 0.07538 0.3229 0.1079 0.0
H1860 H 0.09804 0.27924 0.0914 0.0
C1861 C 0.11857 0.28611 0.17868 0.0
C1862 C 0.11657 0.26796 0.18036 0.0
C1863 C 0.11022 0.2955 0.15965 0.0
C1864 C 0.09155 0.29129 0.09631 0.0
H1865 H 0.06859 0.37125 0.04418 0.0
H1866 H 0.07873 0.35283 0.07851 0.0
H1867 H 0.08541 0.29688 0.05774 0.0
H1868 H 0.10431 0.24541 0.16326 0.0
H1869 H 0.08979 0.26188 0.12978 0.0
H1870 H 0.08192 0.31749 0.14641 0.0
C1871 C 0.07196 0.3468 0.06283 0.0
C1872 C 0.08428 0.30139 0.07705 0.0
C1873 C 0.06623 0.35737 0.04305 0.0
C1874 C 0.10611 0.25938 0.16245 0.0
C1875 C 0.09786 0.26878 0.14325 0.0
C1876 C 0.08274 0.31286 0.12711 0.0
C1877 C 0.06948 0.32867 0.06198 0.0
C1878 C 0.07628 0.31742 0.08259 0.0
C1879 C 0.09976 0.28695 0.14175 0.0
C1880 C 0.09107 0.29705 0.12149 0.0
H1881 H 0.04884 0.32593 0.00515 0.0
H1882 H 0.05858 0.30751 0.0399 0.0
H1883 H 0.06902 0.335 0.11289 0.0
H1884 H 0.12653 0.29313 0.19216 0.0
H1885 H 0.11213 0.30945 0.15875 0.0
C1886 C 0.8929 0.8173 0.26403 0.0
C1887 C 0.90018 0.80662 0.24525 0.0
C1888 C 0.90195 0.82059 0.28642 0.0
C1889 C 0.93596 0.8027 0.32753 0.0
H1890 H 0.93732 0.84944 0.35523 0.0
C1891 C 0.95758 0.81807 0.42976 0.0
C1892 C 0.96809 0.83282 0.43345 0.0
C1893 C 0.95042 0.81453 0.40604 0.0
C1894 C 0.93717 0.83634 0.34762 0.0
H1895 H 0.92266 0.79099 0.23523 0.0
H1896 H 0.93843 0.79671 0.27441 0.0
H1897 H 0.92262 0.84417 0.31506 0.0
H1898 H 0.97965 0.85523 0.41498 0.0
H1899 H 0.96711 0.84905 0.37359 0.0
H1900 H 0.95049 0.79488 0.36016 0.0
C1901 C 0.92569 0.80248 0.27181 0.0
C1902 C 0.92861 0.8333 0.32477 0.0
C1903 C 0.9167 0.79929 0.24933 0.0
C1904 C 0.97158 0.84377 0.41279 0.0
C1905 C 0.96432 0.8403 0.38912 0.0
C1906 C 0.94442 0.80572 0.35049 0.0
C1907 C 0.91841 0.81316 0.29058 0.0
C1908 C 0.92786 0.81644 0.31453 0.0
C1909 C 0.95353 0.82574 0.38556 0.0
C1910 C 0.94507 0.82257 0.36081 0.0
H1911 H 0.8802 0.82314 0.26148 0.0
H1912 H 0.89594 0.82872 0.30067 0.0
H1913 H 0.93547 0.78955 0.32018 0.0
H1914 H 0.95465 0.80936 0.44528 0.0
H1915 H 0.94203 0.8033 0.40391 0.0
C1916 C 0.39016 0.69683 0.70344 0.0
C1917 C 0.39887 0.70004 0.72631 0.0
C1918 C 0.39929 0.69095 0.6823 0.0
C1919 C 0.44012 0.66924 0.66341 0.0
H1920 H 0.42757 0.68647 0.59699 0.0
C1921 C 0.47787 0.65071 0.57252 0.0
C1922 C 0.46753 0.64598 0.5517 0.0
C1923 C 0.47028 0.65807 0.59402 0.0
C1924 C 0.43115 0.68147 0.61541 0.0
H1925 H 0.42403 0.69971 0.7449 0.0
H1926 H 0.44002 0.68969 0.70785 0.0
H1927 H 0.41293 0.69801 0.63422 0.0
H1928 H 0.44116 0.64537 0.53706 0.0
H1929 H 0.42799 0.65819 0.57449 0.0
H1930 H 0.45835 0.65268 0.64446 0.0
C1931 C 0.42608 0.69147 0.70638 0.0
C1932 C 0.42274 0.68804 0.63673 0.0
C1933 C 0.41693 0.6973 0.72757 0.0
C1934 C 0.4495 0.64887 0.55276 0.0
C1935 C 0.44195 0.65633 0.57414 0.0
C1936 C 0.4486 0.66271 0.64205 0.0
C1937 C 0.41736 0.68822 0.68349 0.0
C1938 C 0.42697 0.68185 0.66097 0.0
C1939 C 0.45225 0.66098 0.59502 0.0
C1940 C 0.44404 0.66861 0.61781 0.0
H1941 H 0.37624 0.69873 0.70186 0.0
H1942 H 0.39212 0.6883 0.66511 0.0
H1943 H 0.44355 0.66403 0.68176 0.0
H1944 H 0.49181 0.64864 0.57227 0.0
H1945 H 0.47855 0.66165 0.60978 0.0
C1946 C 0.60252 0.22965 0.81387 0.0
C1947 C 0.59185 0.22954 0.79229 0.0
C1948 C 0.59653 0.22275 0.83668 0.0
C1949 C 0.57822 0.21411 0.88588 0.0
H1950 H 0.55267 0.17065 0.882 0.0
C1951 C 0.5515 0.17964 0.9748 0.0
C1952 C 0.55352 0.16147 0.97577 0.0
C1953 C 0.55489 0.18875 0.95249 0.0
C1954 C 0.55986 0.18274 0.88342 0.0
H1955 H 0.56626 0.22277 0.77804 0.0
H1956 H 0.55573 0.21099 0.81794 0.0
H1957 H 0.56111 0.18549 0.84328 0.0
H1958 H 0.5606 0.1386 0.95403 0.0
H1959 H 0.56676 0.15449 0.91529 0.0
H1960 H 0.57753 0.211 0.92603 0.0
C1961 C 0.56885 0.21608 0.81709 0.0
C1962 C 0.5645 0.19138 0.86122 0.0
C1963 C 0.57486 0.22293 0.79425 0.0
C1964 C 0.55886 0.15259 0.9539 0.0
C1965 C 0.56229 0.16169 0.93163 0.0
C1966 C 0.5736 0.20545 0.9081 0.0
C1967 C 0.57972 0.21565 0.83846 0.0
C1968 C 0.57388 0.20708 0.86216 0.0
C1969 C 0.56041 0.17989 0.93067 0.0
C1970 C 0.56453 0.18957 0.90712 0.0
H1971 H 0.61569 0.23463 0.81299 0.0
H1972 H 0.60532 0.22245 0.85268 0.0
H1973 H 0.58527 0.22628 0.88728 0.0
H1974 H 0.54733 0.18687 0.99129 0.0
H1975 H 0.5531 0.20274 0.9523 0.0
C1976 C 0.02415 0.64244 0.42823 0.0
C1977 C 0.01827 0.64926 0.45132 0.0
C1978 C 0.03062 0.65343 0.40947 0.0
C1979 C 0.05031 0.69665 0.40037 0.0
H1980 H 0.04138 0.68679 0.32969 0.0
C1981 C 0.07824 0.7385 0.31834 0.0
C1982 C 0.08567 0.7289 0.29847 0.0
C1983 C 0.06854 0.7301 0.33712 0.0
C1984 C 0.04403 0.68967 0.34935 0.0
H1985 H 0.01425 0.67306 0.47263 0.0
H1986 H 0.02542 0.6923 0.43972 0.0
H1987 H 0.02673 0.66975 0.36216 0.0
H1988 H 0.08872 0.70298 0.28271 0.0
H1989 H 0.07192 0.68844 0.31532 0.0
H1990 H 0.06781 0.71646 0.38743 0.0
C1991 C 0.02522 0.6784 0.43628 0.0
C1992 C 0.03567 0.6799 0.36795 0.0
C1993 C 0.01873 0.66738 0.45508 0.0
C1994 C 0.08317 0.71079 0.29773 0.0
C1995 C 0.07342 0.70245 0.31632 0.0
C1996 C 0.05865 0.70648 0.38172 0.0
C1997 C 0.03134 0.67153 0.41332 0.0
C1998 C 0.03897 0.68303 0.39367 0.0
C1999 C 0.06597 0.71199 0.3362 0.0
C2000 C 0.05587 0.70284 0.35602 0.0
H2001 H 0.02401 0.62854 0.42472 0.0
H2002 H 0.03547 0.64768 0.39217 0.0
H2003 H 0.05327 0.69929 0.42001 0.0
H2004 H 0.07992 0.75248 0.31941 0.0
H2005 H 0.06288 0.73779 0.35218 0.0
C2006 C 0.57077 0.81218 0.73918 0.0
C2007 C 0.58853 0.80785 0.73878 0.0
C2008 C 0.56199 0.81615 0.71678 0.0
C2009 C 0.54967 0.83404 0.66874 0.0
H2010 H 0.55958 0.8075 0.60809 0.0
C2011 C 0.52866 0.85671 0.56948 0.0
C2012 C 0.523 0.84403 0.55216 0.0
C2013 C 0.53547 0.85182 0.59288 0.0
C2014 C 0.55651 0.81492 0.62491 0.0
H2015 H 0.61103 0.80437 0.71455 0.0
H2016 H 0.59578 0.8115 0.67558 0.0
H2017 H 0.57366 0.79962 0.64771 0.0
H2018 H 0.51968 0.8163 0.54608 0.0
H2019 H 0.53143 0.80779 0.58708 0.0
H2020 H 0.53237 0.84923 0.64597 0.0
C2021 C 0.58856 0.81157 0.69315 0.0
C2022 C 0.56475 0.81054 0.64755 0.0
C2023 C 0.59733 0.8076 0.71552 0.0
C2024 C 0.524 0.82638 0.55895 0.0
C2025 C 0.53082 0.8215 0.58238 0.0
C2026 C 0.54143 0.83843 0.64609 0.0
C2027 C 0.57079 0.81586 0.69351 0.0
C2028 C 0.56154 0.82014 0.66967 0.0
C2029 C 0.53678 0.83416 0.59951 0.0
C2030 C 0.54486 0.829 0.62387 0.0
H2031 H 0.5636 0.81243 0.75678 0.0
H2032 H 0.54825 0.81922 0.71766 0.0
H2033 H 0.54701 0.84179 0.6854 0.0
H2034 H 0.5281 0.87043 0.56483 0.0
H2035 H 0.54015 0.86189 0.6055 0.0
C2036 C 0.41257 0.27621 0.74056 0.0
C2037 C 0.39441 0.27563 0.7435 0.0
C2038 C 0.42307 0.28365 0.75924 0.0
C2039 C 0.4216 0.31434 0.81274 0.0
H2040 H 0.46436 0.29159 0.83331 0.0
C2041 C 0.4694 0.34642 0.88247 0.0
C2042 C 0.47593 0.33572 0.90181 0.0
C2043 C 0.46036 0.33922 0.8621 0.0
C2044 C 0.45242 0.29806 0.82782 0.0
H2045 H 0.37303 0.28235 0.76842 0.0
H2046 H 0.39134 0.29522 0.80102 0.0
H2047 H 0.44646 0.27862 0.80012 0.0
H2048 H 0.47843 0.309 0.9146 0.0
H2049 H 0.46255 0.29646 0.87911 0.0
H2050 H 0.42732 0.33358 0.84076 0.0
C2051 C 0.39745 0.2901 0.78415 0.0
C2052 C 0.44227 0.29073 0.80865 0.0
C2053 C 0.38697 0.28262 0.76553 0.0
C2054 C 0.47357 0.31762 0.90002 0.0
C2055 C 0.46455 0.31041 0.87961 0.0
C2056 C 0.43177 0.3217 0.83182 0.0
C2057 C 0.41561 0.29073 0.78121 0.0
C2058 C 0.42668 0.29873 0.80104 0.0
C2059 C 0.45768 0.32115 0.86058 0.0
C2060 C 0.44724 0.3136 0.83967 0.0
H2061 H 0.41871 0.27095 0.7238 0.0
H2062 H 0.43701 0.28409 0.75633 0.0
H2063 H 0.40975 0.32092 0.8071 0.0
H2064 H 0.47105 0.36042 0.88321 0.0
H2065 H 0.45542 0.34781 0.84754 0.0
C2066 C 0.87132 0.17365 0.24994 0.0
C2067 C 0.87755 0.18973 0.25883 0.0
C2068 C 0.87679 0.16713 0.22659 0.0
C2069 C 0.91144 0.17198 0.17844 0.0
H2070 H 0.87762 0.15055 0.13377 0.0
C2071 C 0.92537 0.15972 0.07321 0.0
C2072 C 0.92046 0.14349 0.06322 0.0
C2073 C 0.92013 0.16464 0.09742 0.0
C2074 C 0.88724 0.15633 0.14616 0.0
H2075 H 0.89443 0.21157 0.25018 0.0
H2076 H 0.90372 0.20037 0.20939 0.0
H2077 H 0.86865 0.16035 0.17566 0.0
H2078 H 0.90598 0.1198 0.07067 0.0
H2079 H 0.89676 0.12847 0.11302 0.0
H2080 H 0.92995 0.16822 0.14877 0.0
C2081 C 0.89485 0.19262 0.22061 0.0
C2082 C 0.88212 0.16192 0.17017 0.0
C2083 C 0.88944 0.1991 0.24396 0.0
C2084 C 0.90998 0.13238 0.07784 0.0
C2085 C 0.90464 0.13737 0.10204 0.0
C2086 C 0.91652 0.16648 0.15442 0.0
C2087 C 0.88857 0.17658 0.21161 0.0
C2088 C 0.89414 0.16994 0.18652 0.0
C2089 C 0.90978 0.15349 0.11213 0.0
C2090 C 0.90445 0.15874 0.13795 0.0
H2091 H 0.86219 0.16608 0.26099 0.0
H2092 H 0.87187 0.15463 0.22037 0.0
H2093 H 0.9211 0.17778 0.19073 0.0
H2094 H 0.9334 0.16859 0.06243 0.0
H2095 H 0.92408 0.17725 0.10456 0.0
C2096 C 0.9483 0.66977 0.95089 0.0
C2097 C 0.94782 0.65261 0.96003 0.0
C2098 C 0.9426 0.67357 0.92641 0.0
C2099 C 0.91386 0.65668 0.87664 0.0
H2100 H 0.93826 0.68942 0.83362 0.0
C2101 C 0.88312 0.68499 0.7865 0.0
C2102 C 0.89366 0.68616 0.76488 0.0
C2103 C 0.89031 0.68058 0.80984 0.0
C2104 C 0.93139 0.68015 0.84535 0.0
H2105 H 0.94134 0.6259 0.95044 0.0
H2106 H 0.93148 0.63253 0.9078 0.0
H2107 H 0.95019 0.68214 0.87512 0.0
H2108 H 0.92006 0.68366 0.75084 0.0
H2109 H 0.93262 0.6759 0.79174 0.0
H2110 H 0.89511 0.6546 0.84692 0.0
C2111 C 0.93606 0.64308 0.91964 0.0
C2112 C 0.93812 0.67612 0.86919 0.0
C2113 C 0.9418 0.63928 0.94405 0.0
C2114 C 0.91158 0.68286 0.76714 0.0
C2115 C 0.9188 0.67851 0.79057 0.0
C2116 C 0.9071 0.66076 0.8529 0.0
C2117 C 0.93626 0.66028 0.91062 0.0
C2118 C 0.92939 0.66437 0.88511 0.0
C2119 C 0.90822 0.67729 0.81215 0.0
C2120 C 0.91574 0.6726 0.83704 0.0
H2121 H 0.95288 0.68033 0.96272 0.0
H2122 H 0.94275 0.68697 0.92007 0.0
H2123 H 0.90674 0.64771 0.88856 0.0
H2124 H 0.86927 0.6875 0.78544 0.0
H2125 H 0.88186 0.67997 0.82619 0.0
C2126 C 0.06488 0.2054 0.73848 0.0
C2127 C 0.07931 0.19639 0.74823 0.0
C2128 C 0.05688 0.19983 0.71614 0.0
C2129 C 0.05144 0.16133 0.67566 0.0
H2130 H 0.04157 0.19456 0.6224 0.0
C2131 C 0.03527 0.13904 0.57496 0.0
C2132 C 0.02235 0.14806 0.56151 0.0
C2133 C 0.0414 0.14539 0.59799 0.0
C2134 C 0.044 0.18515 0.63721 0.0
H2135 H 0.09658 0.17441 0.74233 0.0
H2136 H 0.08258 0.16469 0.70355 0.0
H2137 H 0.05337 0.20475 0.66265 0.0
H2138 H 0.0058 0.17093 0.56163 0.0
H2139 H 0.01632 0.18191 0.60216 0.0
H2140 H 0.04207 0.14172 0.65046 0.0
C2141 C 0.0774 0.176 0.71319 0.0
C2142 C 0.05077 0.19099 0.66024 0.0
C2143 C 0.08548 0.18164 0.73534 0.0
C2144 C 0.0158 0.1637 0.5715 0.0
C2145 C 0.02188 0.17003 0.59468 0.0
C2146 C 0.04458 0.15551 0.65275 0.0
C2147 C 0.06306 0.18506 0.70331 0.0
C2148 C 0.05479 0.1791 0.67954 0.0
C2149 C 0.03467 0.16087 0.60827 0.0
C2150 C 0.04103 0.1673 0.6331 0.0
H2151 H 0.05984 0.21683 0.74795 0.0
H2152 H 0.04577 0.20699 0.70901 0.0
H2153 H 0.05413 0.15191 0.69037 0.0
H2154 H 0.0407 0.12702 0.56771 0.0
H2155 H 0.05152 0.1382 0.60767 0.0
C2156 C 0.51567 0.35823 0.39489 0.0
C2157 C 0.51677 0.34562 0.41407 0.0
C2158 C 0.52401 0.35565 0.37175 0.0
C2159 C 0.54372 0.32203 0.33083 0.0
H2160 H 0.57106 0.36056 0.30503 0.0
C2161 C 0.58178 0.31771 0.23687 0.0
C2162 C 0.59907 0.32364 0.23791 0.0
C2163 C 0.5703 0.32112 0.25674 0.0
C2164 C 0.56349 0.34969 0.312 0.0
H2165 H 0.52704 0.32017 0.42368 0.0
H2166 H 0.54164 0.3157 0.38332 0.0
H2167 H 0.55346 0.36456 0.34291 0.0
H2168 H 0.61772 0.3382 0.26032 0.0
H2169 H 0.59771 0.34414 0.2949 0.0
H2170 H 0.55416 0.30703 0.3003 0.0
C2171 C 0.53424 0.32754 0.38614 0.0
C2172 C 0.55327 0.35202 0.33354 0.0
C2173 C 0.52595 0.33015 0.40932 0.0
C2174 C 0.60449 0.33344 0.25891 0.0
C2175 C 0.593 0.33693 0.27868 0.0
C2176 C 0.55388 0.31972 0.3092 0.0
C2177 C 0.53356 0.34037 0.36724 0.0
C2178 C 0.54345 0.33816 0.34338 0.0
C2179 C 0.57584 0.33064 0.27796 0.0
C2180 C 0.56405 0.33346 0.29976 0.0
H2181 H 0.50863 0.37028 0.39788 0.0
H2182 H 0.52307 0.36568 0.35743 0.0
H2183 H 0.53617 0.31116 0.33784 0.0
H2184 H 0.57719 0.31013 0.22094 0.0
H2185 H 0.5571 0.31626 0.25556 0.0
C2186 C 0.44309 0.83384 0.03331 0.0
C2187 C 0.43962 0.85169 0.03038 0.0
C2188 C 0.43734 0.82493 0.05472 0.0
C2189 C 0.40504 0.82668 0.1058 0.0
H2190 H 0.43669 0.79533 0.1403 0.0
C2191 C 0.38289 0.7818 0.18706 0.0
C2192 C 0.39368 0.78135 0.20849 0.0
C2193 C 0.38849 0.78987 0.16487 0.0
C2194 C 0.42773 0.80408 0.13091 0.0
H2195 H 0.42724 0.87415 0.04754 0.0
H2196 H 0.41718 0.85855 0.08493 0.0
H2197 H 0.44639 0.81073 0.1025 0.0
H2198 H 0.41895 0.78875 0.2233 0.0
H2199 H 0.42873 0.80281 0.18452 0.0
H2200 H 0.38645 0.82018 0.13438 0.0
C2201 C 0.42428 0.85146 0.07057 0.0
C2202 C 0.43323 0.81277 0.10916 0.0
C2203 C 0.43013 0.8604 0.04923 0.0
C2204 C 0.41032 0.78888 0.20713 0.0
C2205 C 0.41596 0.79685 0.18488 0.0
C2206 C 0.39951 0.81789 0.12745 0.0
C2207 C 0.4279 0.83365 0.07359 0.0
C2208 C 0.42196 0.82422 0.09644 0.0
C2209 C 0.40505 0.79756 0.16359 0.0
C2210 C 0.41082 0.80656 0.14029 0.0
H2211 H 0.45035 0.82673 0.01912 0.0
H2212 H 0.44016 0.81116 0.05641 0.0
H2213 H 0.39603 0.83531 0.09627 0.0
H2214 H 0.37 0.77609 0.18748 0.0
H2215 H 0.37988 0.79004 0.14866 0.0
C2216 C 0.99602 0.31105 0.557 0.0
C2217 C 0.00133 0.32819 0.5518 0.0
C2218 C 0.9867 0.30726 0.57898 0.0
C2219 C 0.9576 0.32832 0.6246 0.0
H2220 H 0.9642 0.28602 0.66342 0.0
C2221 C 0.90744 0.30535 0.69798 0.0
C2222 C 0.91394 0.29941 0.72125 0.0
C2223 C 0.91867 0.30836 0.67771 0.0
C2224 C 0.96227 0.29794 0.65285 0.0
H2225 H 0.00169 0.35465 0.56615 0.0
H2226 H 0.98555 0.34799 0.60458 0.0
H2227 H 0.98378 0.29257 0.62832 0.0
H2228 H 0.9373 0.29161 0.74131 0.0
H2229 H 0.9569 0.29693 0.70592 0.0
H2230 H 0.93621 0.33378 0.64915 0.0
C2231 C 0.98837 0.33754 0.59146 0.0
C2232 C 0.97339 0.30161 0.63265 0.0
C2233 C -0.00229 0.34133 0.56952 0.0
C2234 C 0.93187 0.29619 0.72364 0.0
C2235 C 0.9431 0.29916 0.70333 0.0
C2236 C 0.94646 0.32462 0.6447 0.0
C2237 C 0.98246 0.32053 0.59619 0.0
C2238 C 0.97115 0.31683 0.61827 0.0
C2239 C 0.93664 0.30546 0.68023 0.0
C2240 C 0.94862 0.30936 0.65899 0.0
H2241 H -0.0014 0.30062 0.54375 0.0
H2242 H 0.98223 0.29405 0.58198 0.0
H2243 H 0.95538 0.34004 0.6137 0.0
H2244 H 0.89369 0.30789 0.69546 0.0
H2245 H 0.91326 0.31295 0.66002 0.0
C2246 C 0.43462 0.22627 0.2891 0.0
C2247 C 0.41849 0.23482 0.28795 0.0
C2248 C 0.4409 0.21982 0.312 0.0
C2249 C 0.42517 0.20553 0.37452 0.0
H2250 H 0.4745 0.20269 0.38941 0.0
C2251 C 0.45165 0.17471 0.46639 0.0
C2252 C 0.46493 0.16236 0.46293 0.0
C2253 C 0.44649 0.18548 0.44647 0.0
C2254 C 0.46069 0.20337 0.38544 0.0
H2255 H 0.39668 0.24409 0.31019 0.0
H2256 H 0.40785 0.23322 0.35033 0.0
H2257 H 0.46465 0.21889 0.35241 0.0
H2258 H 0.48351 0.15191 0.43608 0.0
H2259 H 0.47456 0.1708 0.40136 0.0
H2260 H 0.42126 0.18997 0.40758 0.0
C2261 C 0.41546 0.2311 0.33339 0.0
C2262 C 0.45503 0.21261 0.36423 0.0
C2263 C 0.4091 0.23744 0.31041 0.0
C2264 C 0.4732 0.16126 0.43932 0.0
C2265 C 0.46817 0.17215 0.41949 0.0
C2266 C 0.43082 0.19644 0.39585 0.0
C2267 C 0.43126 0.22189 0.33439 0.0
C2268 C 0.43722 0.21354 0.35825 0.0
C2269 C 0.45465 0.18424 0.4228 0.0
C2270 C 0.44864 0.19503 0.40129 0.0
H2271 H 0.44216 0.22399 0.27214 0.0
H2272 H 0.45299 0.2126 0.31193 0.0
H2273 H 0.41138 0.2057 0.37031 0.0
H2274 H 0.44503 0.1759 0.48436 0.0
H2275 H 0.43611 0.19477 0.44957 0.0
C2276 C 0.54202 0.64169 0.07995 0.0
C2277 C 0.52561 0.63373 0.08188 0.0
C2278 C 0.55147 0.64593 0.10159 0.0
C2279 C 0.54719 0.65511 0.16926 0.0
H2280 H 0.59672 0.64548 0.17004 0.0
C2281 C 0.59049 0.66934 0.25646 0.0
C2282 C 0.60671 0.67706 0.25143 0.0
C2283 C 0.58031 0.66275 0.23674 0.0
C2284 C 0.58293 0.64838 0.17005 0.0
H2285 H 0.50616 0.62419 0.10813 0.0
H2286 H 0.52274 0.6317 0.14607 0.0
H2287 H 0.57928 0.6366 0.13381 0.0
H2288 H 0.62497 0.68384 0.22177 0.0
H2289 H 0.60718 0.67258 0.1875 0.0
H2290 H 0.55091 0.6672 0.20531 0.0
C2291 C 0.52821 0.63466 0.12772 0.0
C2292 C 0.57294 0.64328 0.14931 0.0
C2293 C 0.51876 0.63031 0.106 0.0
C2294 C 0.61258 0.67791 0.22633 0.0
C2295 C 0.60241 0.67135 0.20667 0.0
C2296 C 0.5572 0.66028 0.19001 0.0
C2297 C 0.54473 0.64238 0.12569 0.0
C2298 C 0.55502 0.64681 0.14852 0.0
C2299 C 0.58614 0.66373 0.21161 0.0
C2300 C 0.57524 0.6572 0.19046 0.0
H2301 H 0.54768 0.64456 0.06168 0.0
H2302 H 0.56404 0.65213 0.09943 0.0
H2303 H 0.53342 0.65812 0.16908 0.0
H2304 H 0.58561 0.66845 0.2756 0.0
H2305 H 0.56792 0.6568 0.2412 0.0
C2306 C 0.09901 0.75201 0.84561 0.0
C2307 C 0.09563 0.75573 0.82007 0.0
C2308 C 0.09581 0.76449 0.86427 0.0
C2309 C 0.09174 0.81178 0.87292 0.0
H2310 H 0.06923 0.79959 0.936 0.0
C2311 C 0.06742 0.86352 0.94358 0.0
C2312 C 0.06888 0.85989 0.96951 0.0
C2313 C 0.07155 0.85083 0.92564 0.0
C2314 C 0.07577 0.80317 0.91865 0.0
H2315 H 0.08588 0.77536 0.79418 0.0
H2316 H 0.08028 0.79706 0.82673 0.0
H2317 H 0.07431 0.77714 0.90425 0.0
H2318 H 0.07638 0.84031 0.99695 0.0
H2319 H 0.08391 0.8183 0.96566 0.0
H2320 H 0.0933 0.83776 0.88728 0.0
C2321 C 0.08558 0.78456 0.83228 0.0
C2322 C 0.07863 0.79031 0.90045 0.0
C2323 C 0.08868 0.77207 0.81366 0.0
C2324 C 0.07501 0.84348 0.97711 0.0
C2325 C 0.07922 0.83082 0.95918 0.0
C2326 C 0.08896 0.82462 0.89116 0.0
C2327 C 0.08927 0.78097 0.85774 0.0
C2328 C 0.08653 0.79451 0.87732 0.0
C2329 C 0.07731 0.83426 0.93324 0.0
C2330 C 0.08085 0.82049 0.91419 0.0
H2331 H 0.10438 0.73955 0.85117 0.0
H2332 H 0.09887 0.76139 0.88373 0.0
H2333 H 0.09813 0.81534 0.85544 0.0
H2334 H 0.06266 0.87602 0.9371 0.0
H2335 H 0.06973 0.85386 0.90584 0.0
loop_
_geom_bond_atom_site_label_1
_geom_bond_atom_site_label_2
_geom_bond_distance
_geom_bond_site_symmetry_2
_ccdc_geom_bond_type
C0 O1 1.160 . S
C0 O7 1.185 . S
O1 C0 1.160 . S
O2 Zn3 1.899 . S
O2 C10 1.284 . S
Zn3 O2 1.899 . S
Zn3 O4 2.032 . S
Zn3 O7 2.086 . S
Zn3 O12 1.977 . S
O4 Zn3 2.032 . S
O4 C8 1.278 . S
C5 O6 1.203 . S
C5 O12 1.267 . S
O6 C5 1.203 . S
O7 C0 1.185 . S
O7 Zn3 2.086 . S
C8 O4 1.278 . S
C8 O9 1.211 . S
O9 C8 1.211 . S
C10 O2 1.284 . S
C10 O11 1.273 . S
O11 C10 1.273 . S
O12 Zn3 1.977 . S
O12 C5 1.267 . S
C13 O14 1.160 . S
C13 O20 1.185 . S
O14 C13 1.160 . S
O15 Zn16 1.899 . S
O15 C23 1.284 1_655 S
Zn16 O15 1.899 . S
Zn16 O17 2.032 . S
Zn16 O20 2.086 . S
Zn16 O25 1.977 . S
O17 Zn16 2.032 . S
O17 C21 1.278 . S
C18 O19 1.203 . S
C18 O25 1.267 . S
O19 C18 1.203 . S
O20 C13 1.185 . S
O20 Zn16 2.086 . S
C21 O17 1.278 . S
C21 O22 1.211 . S
O22 C21 1.211 . S
C23 O15 1.284 1_455 S
C23 O24 1.273 1_455 S
O24 C23 1.273 1_655 S
O25 Zn16 1.977 . S
O25 C18 1.267 . S
C26 O27 1.160 . S
C26 O33 1.185 . S
O27 C26 1.160 . S
O28 Zn29 1.899 . S
O28 C36 1.284 . S
Zn29 O28 1.899 . S
Zn29 O30 2.032 . S
Zn29 O33 2.086 . S
Zn29 O38 1.977 . S
O30 Zn29 2.032 . S
O30 C34 1.278 . S
C31 O32 1.203 . S
C31 O38 1.267 . S
O32 C31 1.203 . S
O33 C26 1.185 . S
O33 Zn29 2.086 . S
C34 O30 1.278 . S
C34 O35 1.211 . S
O35 C34 1.211 . S
C36 O28 1.284 . S
C36 O37 1.273 . S
O37 C36 1.273 . S
O38 Zn29 1.977 . S
O38 C31 1.267 . S
C39 O40 1.160 . S
C39 O46 1.185 . S
O40 C39 1.160 . S
O41 Zn42 1.899 . S
O41 C49 1.284 . S
Zn42 O41 1.899 . S
Zn42 O43 2.032 1_554 S
Zn42 O46 2.086 . S
Zn42 O51 1.977 . S
O43 Zn42 2.032 1_556 S
O43 C47 1.278 . S
C44 O45 1.203 . S
C44 O51 1.267 . S
O45 C44 1.203 . S
O46 C39 1.185 . S
O46 Zn42 2.086 . S
C47 O43 1.278 . S
C47 O48 1.211 . S
O48 C47 1.211 . S
C49 O41 1.284 . S
C49 O50 1.273 . S
O50 C49 1.273 . S
O51 Zn42 1.977 . S
O51 C44 1.267 . S
C52 O53 1.160 . S
C52 O59 1.185 . S
O53 C52 1.160 . S
O54 Zn55 1.899 . S
O54 C62 1.284 . S
Zn55 O54 1.899 . S
Zn55 O56 2.032 . S
Zn55 O59 2.086 . S
Zn55 O64 1.977 . S
O56 Zn55 2.032 . S
O56 C60 1.278 . S
C57 O58 1.203 . S
C57 O64 1.267 . S
O58 C57 1.203 . S
O59 C52 1.185 . S
O59 Zn55 2.086 . S
C60 O56 1.278 . S
C60 O61 1.211 . S
O61 C60 1.211 . S
C62 O54 1.284 . S
C62 O63 1.273 . S
O63 C62 1.273 . S
O64 Zn55 1.977 . S
O64 C57 1.267 . S
C65 O66 1.160 . S
C65 O72 1.185 . S
O66 C65 1.160 . S
O67 Zn68 1.899 . S
O67 C75 1.284 . S
Zn68 O67 1.899 . S
Zn68 O69 2.032 . S
Zn68 O72 2.086 . S
Zn68 O77 1.977 . S
O69 Zn68 2.032 . S
O69 C73 1.278 . S
C70 O71 1.203 . S
C70 O77 1.267 . S
O71 C70 1.203 . S
O72 C65 1.185 . S
O72 Zn68 2.086 . S
C73 O69 1.278 . S
C73 O74 1.211 . S
O74 C73 1.211 . S
C75 O67 1.284 . S
C75 O76 1.273 . S
O76 C75 1.273 . S
O77 Zn68 1.977 . S
O77 C70 1.267 . S
C78 O79 1.160 . S
C78 O85 1.185 . S
O79 C78 1.160 . S
O80 Zn81 1.899 . S
O80 C88 1.284 . S
Zn81 O80 1.899 . S
Zn81 O82 2.032 . S
Zn81 O85 2.086 . S
Zn81 O90 1.977 . S
O82 Zn81 2.032 . S
O82 C86 1.278 . S
C83 O84 1.203 . S
C83 O90 1.267 . S
O84 C83 1.203 . S
O85 C78 1.185 . S
O85 Zn81 2.086 . S
C86 O82 1.278 . S
C86 O87 1.211 . S
O87 C86 1.211 . S
C88 O80 1.284 . S
C88 O89 1.273 . S
O89 C88 1.273 . S
O90 Zn81 1.977 . S
O90 C83 1.267 . S
C91 O92 1.160 . S
C91 O98 1.185 . S
O92 C91 1.160 . S
O93 Zn94 1.899 . S
O93 C101 1.284 1_655 S
Zn94 O93 1.899 . S
Zn94 O95 2.032 1_556 S
Zn94 O98 2.086 . S
Zn94 O103 1.977 . S
O95 Zn94 2.032 1_554 S
O95 C99 1.278 . S
C96 O97 1.203 . S
C96 O103 1.267 . S
O97 C96 1.203 . S
O98 C91 1.185 . S
O98 Zn94 2.086 . S
C99 O95 1.278 . S
C99 O100 1.211 . S
O100 C99 1.211 . S
C101 O93 1.284 1_455 S
C101 O102 1.273 1_455 S
O102 C101 1.273 1_655 S
O103 Zn94 1.977 . S
O103 C96 1.267 . S
C104 O105 1.160 . S
C104 O111 1.185 . S
O105 C104 1.160 . S
O106 Zn107 1.899 . S
O106 C114 1.284 . S
Zn107 O106 1.899 . S
Zn107 O108 2.032 . S
Zn107 O111 2.086 . S
Zn107 O116 1.977 . S
O108 Zn107 2.032 . S
O108 C112 1.278 . S
C109 O110 1.203 . S
C109 O116 1.267 . S
O110 C109 1.203 . S
O111 C104 1.185 . S
O111 Zn107 2.086 . S
C112 O108 1.278 . S
C112 O113 1.211 . S
O113 C112 1.211 . S
C114 O106 1.284 . S
C114 O115 1.273 . S
O115 C114 1.273 . S
O116 Zn107 1.977 . S
O116 C109 1.267 . S
C117 O118 1.160 . S
C117 O124 1.185 . S
O118 C117 1.160 . S
O119 Zn120 1.899 . S
O119 C127 1.284 1_455 S
Zn120 O119 1.899 . S
Zn120 O121 2.032 . S
Zn120 O124 2.086 . S
Zn120 O129 1.977 . S
O121 Zn120 2.032 . S
O121 C125 1.278 . S
C122 O123 1.203 . S
C122 O129 1.267 . S
O123 C122 1.203 . S
O124 C117 1.185 . S
O124 Zn120 2.086 . S
C125 O121 1.278 . S
C125 O126 1.211 . S
O126 C125 1.211 . S
C127 O119 1.284 1_655 S
C127 O128 1.273 1_655 S
O128 C127 1.273 1_455 S
O129 Zn120 1.977 . S
O129 C122 1.267 . S
C130 O131 1.160 . S
C130 O137 1.185 . S
O131 C130 1.160 . S
O132 Zn133 1.899 . S
O132 C140 1.284 . S
Zn133 O132 1.899 . S
Zn133 O134 2.032 . S
Zn133 O137 2.086 . S
Zn133 O142 1.977 . S
O134 Zn133 2.032 . S
O134 C138 1.278 . S
C135 O136 1.203 . S
C135 O142 1.267 . S
O136 C135 1.203 . S
O137 C130 1.185 . S
O137 Zn133 2.086 . S
C138 O134 1.278 . S
C138 O139 1.211 . S
O139 C138 1.211 . S
C140 O132 1.284 . S
C140 O141 1.273 . S
O141 C140 1.273 . S
O142 Zn133 1.977 . S
O142 C135 1.267 . S
C143 O144 1.160 . S
C143 O150 1.185 . S
O144 C143 1.160 . S
O145 Zn146 1.899 . S
O145 C153 1.284 . S
Zn146 O145 1.899 . S
Zn146 O147 2.032 1_556 S
Zn146 O150 2.086 . S
Zn146 O155 1.977 . S
O147 Zn146 2.032 1_554 S
O147 C151 1.278 . S
C148 O149 1.203 . S
C148 O155 1.267 . S
O149 C148 1.203 . S
O150 C143 1.185 . S
O150 Zn146 2.086 . S
C151 O147 1.278 . S
C151 O152 1.211 . S
O152 C151 1.211 . S
C153 O145 1.284 . S
C153 O154 1.273 . S
O154 C153 1.273 . S
O155 Zn146 1.977 . S
O155 C148 1.267 . S
C156 O157 1.160 . S
C156 O163 1.185 . S
O157 C156 1.160 . S
O158 Zn159 1.899 . S
O158 C166 1.284 . S
Zn159 O158 1.899 . S
Zn159 O160 2.032 . S
Zn159 O163 2.086 . S
Zn159 O168 1.977 . S
O160 Zn159 2.032 . S
O160 C164 1.278 . S
C161 O162 1.203 . S
C161 O168 1.267 . S
O162 C161 1.203 . S
O163 C156 1.185 . S
O163 Zn159 2.086 . S
C164 O160 1.278 . S
C164 O165 1.211 . S
O165 C164 1.211 . S
C166 O158 1.284 . S
C166 O167 1.273 . S
O167 C166 1.273 . S
O168 Zn159 1.977 . S
O168 C161 1.267 . S
C169 O170 1.160 . S
C169 O176 1.185 . S
O170 C169 1.160 . S
O171 Zn172 1.899 . S
O171 C179 1.284 . S
Zn172 O171 1.899 . S
Zn172 O173 2.032 . S
Zn172 O176 2.086 . S
Zn172 O181 1.977 . S
O173 Zn172 2.032 . S
O173 C177 1.278 . S
C174 O175 1.203 . S
C174 O181 1.267 . S
O175 C174 1.203 . S
O176 C169 1.185 . S
O176 Zn172 2.086 . S
C177 O173 1.278 . S
C177 O178 1.211 . S
O178 C177 1.211 . S
C179 O171 1.284 . S
C179 O180 1.273 . S
O180 C179 1.273 . S
O181 Zn172 1.977 . S
O181 C174 1.267 . S
C182 O183 1.160 . S
C182 O189 1.185 . S
O183 C182 1.160 . S
O184 Zn185 1.899 . S
O184 C192 1.284 . S
Zn185 O184 1.899 . S
Zn185 O186 2.032 . S
Zn185 O189 2.086 . S
Zn185 O194 1.977 . S
O186 Zn185 2.032 . S
O186 C190 1.278 . S
C187 O188 1.203 . S
C187 O194 1.267 . S
O188 C187 1.203 . S
O189 C182 1.185 . S
O189 Zn185 2.086 . S
C190 O186 1.278 . S
C190 O191 1.211 . S
O191 C190 1.211 . S
C192 O184 1.284 . S
C192 O193 1.273 . S
O193 C192 1.273 . S
O194 Zn185 1.977 . S
O194 C187 1.267 . S
C195 O196 1.160 . S
C195 O202 1.185 . S
O196 C195 1.160 . S
O197 Zn198 1.899 . S
O197 C205 1.284 1_455 S
Zn198 O197 1.899 . S
Zn198 O199 2.032 1_554 S
Zn198 O202 2.086 . S
Zn198 O207 1.977 . S
O199 Zn198 2.032 1_556 S
O199 C203 1.278 . S
C200 O201 1.203 . S
C200 O207 1.267 . S
O201 C200 1.203 . S
O202 C195 1.185 . S
O202 Zn198 2.086 . S
C203 O199 1.278 . S
C203 O204 1.211 . S
O204 C203 1.211 . S
C205 O197 1.284 1_655 S
C205 O206 1.273 1_655 S
O206 C205 1.273 1_455 S
O207 Zn198 1.977 . S
O207 C200 1.267 . S
C208 O209 1.160 . S
C208 O215 1.185 . S
O209 C208 1.160 . S
O210 Zn211 1.899 . S
O210 C218 1.284 . S
Zn211 O210 1.899 . S
Zn211 O212 2.032 . S
Zn211 O215 2.086 . S
Zn211 O220 1.977 . S
O212 Zn211 2.032 . S
O212 C216 1.278 . S
C213 O214 1.203 . S
C213 O220 1.267 . S
O214 C213 1.203 . S
O215 C208 1.185 . S
O215 Zn211 2.086 . S
C216 O212 1.278 . S
C216 O217 1.211 . S
O217 C216 1.211 . S
C218 O210 1.284 . S
C218 O219 1.273 . S
O219 C218 1.273 . S
O220 Zn211 1.977 . S
O220 C213 1.267 . S
C221 O222 1.160 . S
C221 O228 1.185 . S
O222 C221 1.160 . S
O223 Zn224 1.899 . S
O223 C231 1.284 . S
Zn224 O223 1.899 . S
Zn224 O225 2.032 1_554 S
Zn224 O228 2.086 . S
Zn224 O233 1.977 . S
O225 Zn224 2.032 1_556 S
O225 C229 1.278 . S
C226 O227 1.203 . S
C226 O233 1.267 . S
O227 C226 1.203 . S
O228 C221 1.185 . S
O228 Zn224 2.086 . S
C229 O225 1.278 . S
C229 O230 1.211 . S
O230 C229 1.211 . S
C231 O223 1.284 . S
C231 O232 1.273 . S
O232 C231 1.273 . S
O233 Zn224 1.977 . S
O233 C226 1.267 . S
C234 O235 1.160 . S
C234 O241 1.185 . S
O235 C234 1.160 . S
O236 Zn237 1.899 . S
O236 C244 1.284 . S
Zn237 O236 1.899 . S
Zn237 O238 2.032 . S
Zn237 O241 2.086 . S
Zn237 O246 1.977 . S
O238 Zn237 2.032 . S
O238 C242 1.278 . S
C239 O240 1.203 . S
C239 O246 1.267 . S
O240 C239 1.203 . S
O241 C234 1.185 . S
O241 Zn237 2.086 . S
C242 O238 1.278 . S
C242 O243 1.211 . S
O243 C242 1.211 . S
C244 O236 1.284 . S
C244 O245 1.273 . S
O245 C244 1.273 . S
O246 Zn237 1.977 . S
O246 C239 1.267 . S
C247 O248 1.160 . S
C247 O254 1.185 . S
O248 C247 1.160 . S
O249 Zn250 1.899 . S
O249 C257 1.284 1_455 S
Zn250 O249 1.899 . S
Zn250 O251 2.032 . S
Zn250 O254 2.086 . S
Zn250 O259 1.977 . S
O251 Zn250 2.032 . S
O251 C255 1.278 . S
C252 O253 1.203 . S
C252 O259 1.267 . S
O253 C252 1.203 . S
O254 C247 1.185 . S
O254 Zn250 2.086 . S
C255 O251 1.278 . S
C255 O256 1.211 . S
O256 C255 1.211 . S
C257 O249 1.284 1_655 S
C257 O258 1.273 1_655 S
O258 C257 1.273 1_455 S
O259 Zn250 1.977 . S
O259 C252 1.267 . S
C260 O261 1.160 . S
C260 O267 1.185 . S
O261 C260 1.160 . S
O262 Zn263 1.899 . S
O262 C270 1.284 . S
Zn263 O262 1.899 . S
Zn263 O264 2.032 . S
Zn263 O267 2.086 . S
Zn263 O272 1.977 . S
O264 Zn263 2.032 . S
O264 C268 1.278 . S
C265 O266 1.203 . S
C265 O272 1.267 . S
O266 C265 1.203 . S
O267 C260 1.185 . S
O267 Zn263 2.086 . S
C268 O264 1.278 . S
C268 O269 1.211 . S
O269 C268 1.211 . S
C270 O262 1.284 . S
C270 O271 1.273 . S
O271 C270 1.273 . S
O272 Zn263 1.977 . S
O272 C265 1.267 . S
C273 O274 1.160 . S
C273 O280 1.185 . S
O274 C273 1.160 . S
O275 Zn276 1.899 . S
O275 C283 1.284 1_455 S
Zn276 O275 1.899 . S
Zn276 O277 2.032 1_556 S
Zn276 O280 2.086 . S
Zn276 O285 1.977 . S
O277 Zn276 2.032 1_554 S
O277 C281 1.278 . S
C278 O279 1.203 . S
C278 O285 1.267 . S
O279 C278 1.203 . S
O280 C273 1.185 . S
O280 Zn276 2.086 . S
C281 O277 1.278 . S
C281 O282 1.211 . S
O282 C281 1.211 . S
C283 O275 1.284 1_655 S
C283 O284 1.273 1_655 S
O284 C283 1.273 1_455 S
O285 Zn276 1.977 . S
O285 C278 1.267 . S
C286 O287 1.160 . S
C286 O293 1.185 . S
O287 C286 1.160 . S
O288 Zn289 1.899 . S
O288 C296 1.284 . S
Zn289 O288 1.899 . S
Zn289 O290 2.032 . S
Zn289 O293 2.086 . S
Zn289 O298 1.977 . S
O290 Zn289 2.032 . S
O290 C294 1.278 . S
C291 O292 1.203 . S
C291 O298 1.267 . S
O292 C291 1.203 . S
O293 C286 1.185 . S
O293 Zn289 2.086 . S
C294 O290 1.278 . S
C294 O295 1.211 . S
O295 C294 1.211 . S
C296 O288 1.284 . S
C296 O297 1.273 . S
O297 C296 1.273 . S
O298 Zn289 1.977 . S
O298 C291 1.267 . S
C299 O300 1.160 . S
C299 O306 1.185 . S
O300 C299 1.160 . S
O301 Zn302 1.899 . S
O301 C309 1.284 . S
Zn302 O301 1.899 . S
Zn302 O303 2.032 . S
Zn302 O306 2.086 . S
Zn302 O311 1.977 . S
O303 Zn302 2.032 . S
O303 C307 1.278 . S
C304 O305 1.203 . S
C304 O311 1.267 . S
O305 C304 1.203 . S
O306 C299 1.185 . S
O306 Zn302 2.086 . S
C307 O303 1.278 . S
C307 O308 1.211 . S
O308 C307 1.211 . S
C309 O301 1.284 . S
C309 O310 1.273 . S
O310 C309 1.273 . S
O311 Zn302 1.977 . S
O311 C304 1.267 . S
C312 O313 1.160 . S
C312 O319 1.185 . S
O313 C312 1.160 . S
O314 Zn315 1.899 . S
O314 C322 1.284 . S
Zn315 O314 1.899 . S
Zn315 O316 2.032 . S
Zn315 O319 2.086 . S
Zn315 O324 1.977 . S
O316 Zn315 2.032 . S
O316 C320 1.278 . S
C317 O318 1.203 . S
C317 O324 1.267 . S
O318 C317 1.203 . S
O319 C312 1.185 . S
O319 Zn315 2.086 . S
C320 O316 1.278 . S
C320 O321 1.211 . S
O321 C320 1.211 . S
C322 O314 1.284 . S
C322 O323 1.273 . S
O323 C322 1.273 . S
O324 Zn315 1.977 . S
O324 C317 1.267 . S
C325 O326 1.160 . S
C325 O332 1.185 . S
O326 C325 1.160 . S
O327 Zn328 1.899 . S
O327 C335 1.284 . S
Zn328 O327 1.899 . S
Zn328 O329 2.032 1_556 S
Zn328 O332 2.086 . S
Zn328 O337 1.977 . S
O329 Zn328 2.032 1_554 S
O329 C333 1.278 . S
C330 O331 1.203 . S
C330 O337 1.267 . S
O331 C330 1.203 . S
O332 C325 1.185 . S
O332 Zn328 2.086 . S
C333 O329 1.278 . S
C333 O334 1.211 . S
O334 C333 1.211 . S
C335 O327 1.284 . S
C335 O336 1.273 . S
O336 C335 1.273 . S
O337 Zn328 1.977 . S
O337 C330 1.267 . S
C338 O339 1.160 . S
C338 O345 1.185 . S
O339 C338 1.160 . S
O340 Zn341 1.899 . S
O340 C348 1.284 . S
Zn341 O340 1.899 . S
Zn341 O342 2.032 . S
Zn341 O345 2.086 . S
Zn341 O350 1.977 . S
O342 Zn341 2.032 . S
O342 C346 1.278 . S
C343 O344 1.203 . S
C343 O350 1.267 . S
O344 C343 1.203 . S
O345 C338 1.185 . S
O345 Zn341 2.086 . S
C346 O342 1.278 . S
C346 O347 1.211 . S
O347 C346 1.211 . S
C348 O340 1.284 . S
C348 O349 1.273 . S
O349 C348 1.273 . S
O350 Zn341 1.977 . S
O350 C343 1.267 . S
C351 O352 1.160 . S
C351 O358 1.185 . S
O352 C351 1.160 . S
O353 Zn354 1.899 . S
O353 C361 1.284 1_655 S
Zn354 O353 1.899 . S
Zn354 O355 2.032 . S
Zn354 O358 2.086 . S
Zn354 O363 1.977 . S
O355 Zn354 2.032 . S
O355 C359 1.278 . S
C356 O357 1.203 . S
C356 O363 1.267 . S
O357 C356 1.203 . S
O358 C351 1.185 . S
O358 Zn354 2.086 . S
C359 O355 1.278 . S
C359 O360 1.211 . S
O360 C359 1.211 . S
C361 O353 1.284 1_455 S
C361 O362 1.273 1_455 S
O362 C361 1.273 1_655 S
O363 Zn354 1.977 . S
O363 C356 1.267 . S
C364 O365 1.160 . S
C364 O371 1.185 . S
O365 C364 1.160 . S
O366 Zn367 1.899 . S
O366 C374 1.284 . S
Zn367 O366 1.899 . S
Zn367 O368 2.032 . S
Zn367 O371 2.086 . S
Zn367 O376 1.977 . S
O368 Zn367 2.032 . S
O368 C372 1.278 . S
C369 O370 1.203 . S
C369 O376 1.267 . S
O370 C369 1.203 . S
O371 C364 1.185 . S
O371 Zn367 2.086 . S
C372 O368 1.278 . S
C372 O373 1.211 . S
O373 C372 1.211 . S
C374 O366 1.284 . S
C374 O375 1.273 . S
O375 C374 1.273 . S
O376 Zn367 1.977 . S
O376 C369 1.267 . S
C377 O378 1.160 . S
C377 O384 1.185 . S
O378 C377 1.160 . S
O379 Zn380 1.899 . S
O379 C387 1.284 1_655 S
Zn380 O379 1.899 . S
Zn380 O381 2.032 1_554 S
Zn380 O384 2.086 . S
Zn380 O389 1.977 . S
O381 Zn380 2.032 1_556 S
O381 C385 1.278 . S
C382 O383 1.203 . S
C382 O389 1.267 . S
O383 C382 1.203 . S
O384 C377 1.185 . S
O384 Zn380 2.086 . S
C385 O381 1.278 . S
C385 O386 1.211 . S
O386 C385 1.211 . S
C387 O379 1.284 1_455 S
C387 O388 1.273 1_455 S
O388 C387 1.273 1_655 S
O389 Zn380 1.977 . S
O389 C382 1.267 . S
C390 O391 1.160 . S
C390 O397 1.185 . S
O391 C390 1.160 . S
O392 Zn393 1.899 . S
O392 C400 1.284 . S
Zn393 O392 1.899 . S
Zn393 O394 2.032 . S
Zn393 O397 2.086 . S
Zn393 O402 1.977 . S
O394 Zn393 2.032 . S
O394 C398 1.278 . S
C395 O396 1.203 . S
C395 O402 1.267 . S
O396 C395 1.203 . S
O397 C390 1.185 . S
O397 Zn393 2.086 . S
C398 O394 1.278 . S
C398 O399 1.211 . S
O399 C398 1.211 . S
C400 O392 1.284 . S
C400 O401 1.273 . S
O401 C400 1.273 . S
O402 Zn393 1.977 . S
O402 C395 1.267 . S
C403 O404 1.160 . S
C403 O410 1.185 . S
O404 C403 1.160 . S
O405 Zn406 1.899 . S
O405 C413 1.284 . S
Zn406 O405 1.899 . S
Zn406 O407 2.032 . S
Zn406 O410 2.086 . S
Zn406 O415 1.977 . S
O407 Zn406 2.032 . S
O407 C411 1.278 . S
C408 O409 1.203 . S
C408 O415 1.267 . S
O409 C408 1.203 . S
O410 C403 1.185 . S
O410 Zn406 2.086 . S
C411 O407 1.278 . S
C411 O412 1.211 . S
O412 C411 1.211 . S
C413 O405 1.284 . S
C413 O414 1.273 . S
O414 C413 1.273 . S
O415 Zn406 1.977 . S
O415 C408 1.267 . S
C416 C417 1.349 . S
C416 C418 1.327 . S
C416 H441 0.950 . S
C417 C416 1.349 . S
C417 C433 1.349 . S
C418 C416 1.327 . S
C418 C437 1.429 . S
C418 H442 0.950 . S
C419 C436 1.574 . S
C419 C438 1.368 . S
C419 H443 0.949 . S
H420 C424 0.949 . S
C421 C422 1.349 . S
C421 C423 1.327 . S
C421 H444 0.950 . S
C422 C421 1.349 . S
C422 C434 1.349 . S
C423 C421 1.327 . S
C423 C439 1.429 . S
C423 H445 0.950 . S
C424 H420 0.949 . S
C424 C432 1.574 . S
C424 C440 1.368 . S
H425 C433 0.950 . S
H426 C431 0.950 . S
H427 C432 0.949 . S
H428 C434 0.950 . S
H429 C435 0.950 . S
H430 C436 0.949 . S
C431 H426 0.950 . S
C431 C433 1.327 . S
C431 C437 1.429 . S
C432 C424 1.574 . S
C432 H427 0.949 . S
C432 C438 1.368 . S
C433 C417 1.349 . S
C433 H425 0.950 . S
C433 C431 1.327 . S
C434 C422 1.349 . S
C434 H428 0.950 . S
C434 C435 1.327 . S
C435 H429 0.950 . S
C435 C434 1.327 . S
C435 C439 1.429 . S
C436 C419 1.574 . S
C436 H430 0.949 . S
C436 C440 1.368 . S
C437 C418 1.429 . S
C437 C431 1.429 . S
C437 C438 1.523 . S
C438 C419 1.368 . S
C438 C432 1.368 . S
C438 C437 1.523 . S
C439 C423 1.429 . S
C439 C435 1.429 . S
C439 C440 1.523 . S
C440 C424 1.368 . S
C440 C436 1.368 . S
C440 C439 1.523 . S
H441 C416 0.950 . S
H442 C418 0.950 . S
H443 C419 0.949 . S
H444 C421 0.950 . S
H445 C423 0.950 . S
C446 C447 1.349 . S
C446 C448 1.327 . S
C446 H471 0.926 1_455 S
C447 C446 1.349 . S
C447 C463 1.349 . S
C448 C446 1.327 . S
C448 C467 1.429 . S
C448 H472 0.950 . S
C449 C466 1.574 . S
C449 C468 1.368 . S
C449 H473 0.949 . S
H450 C454 0.949 . S
C451 C452 1.349 . S
C451 C453 1.327 . S
C451 H474 0.950 . S
C452 C451 1.349 . S
C452 C464 1.349 . S
C453 C451 1.327 . S
C453 C469 1.429 . S
C453 H475 0.950 . S
C454 H450 0.949 . S
C454 C462 1.574 . S
C454 C470 1.368 . S
H455 C463 0.950 . S
H456 C461 0.950 . S
H457 C462 0.949 . S
H458 C464 0.950 . S
H459 C465 0.950 . S
H460 C466 0.949 . S
C461 H456 0.950 . S
C461 C463 1.327 . S
C461 C467 1.429 . S
C462 C454 1.574 . S
C462 H457 0.949 . S
C462 C468 1.368 . S
C463 C447 1.349 . S
C463 H455 0.950 . S
C463 C461 1.327 . S
C464 C452 1.349 . S
C464 H458 0.950 . S
C464 C465 1.327 . S
C465 H459 0.950 . S
C465 C464 1.327 . S
C465 C469 1.429 . S
C466 C449 1.574 . S
C466 H460 0.949 . S
C466 C470 1.368 . S
C467 C448 1.429 . S
C467 C461 1.429 . S
C467 C468 1.523 . S
C468 C449 1.368 . S
C468 C462 1.368 . S
C468 C467 1.523 . S
C469 C453 1.429 . S
C469 C465 1.429 . S
C469 C470 1.523 . S
C470 C454 1.368 . S
C470 C466 1.368 . S
C470 C469 1.523 . S
H471 C446 0.926 1_655 S
H472 C448 0.950 . S
H473 C449 0.949 . S
H474 C451 0.950 . S
H475 C453 0.950 . S
C476 C477 1.349 . S
C476 C478 1.327 . S
C476 H501 0.950 . S
C477 C476 1.349 . S
C477 C493 1.349 . S
C478 C476 1.327 . S
C478 C497 1.429 . S
C478 H502 0.950 . S
C479 C496 1.574 . S
C479 C498 1.368 . S
C479 H503 0.949 . S
H480 C484 0.949 . S
C481 C482 1.349 . S
C481 C483 1.327 . S
C481 H504 0.950 . S
C482 C481 1.349 . S
C482 C494 1.349 . S
C483 C481 1.327 . S
C483 C499 1.429 . S
C483 H505 0.950 . S
C484 H480 0.949 . S
C484 C492 1.574 . S
C484 C500 1.368 . S
H485 C493 0.950 . S
H486 C491 0.950 . S
H487 C492 0.949 . S
H488 C494 0.950 . S
H489 C495 0.950 . S
H490 C496 0.949 . S
C491 H486 0.950 . S
C491 C493 1.327 . S
C491 C497 1.429 . S
C492 C484 1.574 . S
C492 H487 0.949 . S
C492 C498 1.368 . S
C493 C477 1.349 . S
C493 H485 0.950 . S
C493 C491 1.327 . S
C494 C482 1.349 . S
C494 H488 0.950 . S
C494 C495 1.327 . S
C495 H489 0.950 . S
C495 C494 1.327 . S
C495 C499 1.429 . S
C496 C479 1.574 . S
C496 H490 0.949 . S
C496 C500 1.368 . S
C497 C478 1.429 . S
C497 C491 1.429 . S
C497 C498 1.523 . S
C498 C479 1.368 . S
C498 C492 1.368 . S
C498 C497 1.523 . S
C499 C483 1.429 . S
C499 C495 1.429 . S
C499 C500 1.523 . S
C500 C484 1.368 . S
C500 C496 1.368 . S
C500 C499 1.523 . S
H501 C476 0.950 . S
H502 C478 0.950 . S
H503 C479 0.949 . S
H504 C481 0.950 . S
H505 C483 0.950 . S
C506 C507 1.349 . S
C506 C508 1.327 . S
C506 H531 0.950 . S
C507 C506 1.349 . S
C507 C523 1.349 . S
C508 C506 1.327 . S
C508 C527 1.429 . S
C508 H532 0.950 . S
C509 C526 1.574 . S
C509 C528 1.368 . S
C509 H533 0.949 . S
H510 C514 0.949 . S
C511 C512 1.349 . S
C511 C513 1.327 . S
C511 H534 0.950 . S
C512 C511 1.349 . S
C512 C524 1.349 . S
C513 C511 1.327 . S
C513 C529 1.429 . S
C513 H535 0.950 . S
C514 H510 0.949 . S
C514 C522 1.574 . S
C514 C530 1.368 . S
H515 C523 0.950 . S
H516 C521 0.950 . S
H517 C522 0.949 . S
H518 C524 0.950 . S
H519 C525 0.950 . S
H520 C526 0.949 . S
C521 H516 0.950 . S
C521 C523 1.327 . S
C521 C527 1.429 . S
C522 C514 1.574 . S
C522 H517 0.949 . S
C522 C528 1.368 . S
C523 C507 1.349 . S
C523 H515 0.950 . S
C523 C521 1.327 . S
C524 C512 1.349 . S
C524 H518 0.950 . S
C524 C525 1.327 . S
C525 H519 0.950 . S
C525 C524 1.327 . S
C525 C529 1.429 . S
C526 C509 1.574 . S
C526 H520 0.949 . S
C526 C530 1.368 . S
C527 C508 1.429 . S
C527 C521 1.429 . S
C527 C528 1.523 . S
C528 C509 1.368 . S
C528 C522 1.368 . S
C528 C527 1.523 . S
C529 C513 1.429 . S
C529 C525 1.429 . S
C529 C530 1.523 . S
C530 C514 1.368 . S
C530 C526 1.368 . S
C530 C529 1.523 . S
H531 C506 0.950 . S
H532 C508 0.950 . S
H533 C509 0.949 . S
H534 C511 0.950 . S
H535 C513 0.950 . S
C536 C537 1.349 . S
C536 C538 1.327 . S
C536 H561 0.950 . S
C537 C536 1.349 . S
C537 C553 1.349 . S
C538 C536 1.327 . S
C538 C557 1.429 . S
C538 H562 0.950 . S
C539 C556 1.574 . S
C539 C558 1.368 . S
C539 H563 0.949 . S
H540 C544 0.949 . S
C541 C542 1.349 . S
C541 C543 1.327 . S
C541 H564 0.950 . S
C542 C541 1.349 . S
C542 C554 1.349 . S
C543 C541 1.327 . S
C543 C559 1.429 . S
C543 H565 0.950 . S
C544 H540 0.949 . S
C544 C552 1.574 . S
C544 C560 1.368 . S
H545 C553 0.950 . S
H546 C551 0.950 . S
H547 C552 0.949 . S
H548 C554 0.950 . S
H549 C555 0.950 . S
H550 C556 0.949 . S
C551 H546 0.950 . S
C551 C553 1.327 . S
C551 C557 1.429 . S
C552 C544 1.574 . S
C552 H547 0.949 . S
C552 C558 1.368 . S
C553 C537 1.349 . S
C553 H545 0.950 . S
C553 C551 1.327 . S
C554 C542 1.349 . S
C554 H548 0.950 . S
C554 C555 1.327 . S
C555 H549 0.950 . S
C555 C554 1.327 . S
C555 C559 1.429 . S
C556 C539 1.574 . S
C556 H550 0.949 . S
C556 C560 1.368 . S
C557 C538 1.429 . S
C557 C551 1.429 . S
C557 C558 1.523 . S
C558 C539 1.368 . S
C558 C552 1.368 . S
C558 C557 1.523 . S
C559 C543 1.429 . S
C559 C555 1.429 . S
C559 C560 1.523 . S
C560 C544 1.368 . S
C560 C556 1.368 . S
C560 C559 1.523 . S
H561 C536 0.950 . S
H562 C538 0.950 . S
H563 C539 0.949 . S
H564 C541 0.950 . S
H565 C543 0.950 . S
C566 C567 1.349 . S
C566 C568 1.327 . S
C566 H591 0.950 . S
C567 C566 1.349 . S
C567 C583 1.349 . S
C568 C566 1.327 . S
C568 C587 1.429 . S
C568 H592 0.950 . S
C569 C586 1.574 . S
C569 C588 1.368 . S
C569 H593 0.949 . S
H570 C574 0.949 . S
C571 C572 1.349 . S
C571 C573 1.327 . S
C571 H594 0.950 . S
C572 C571 1.349 . S
C572 C584 1.349 . S
C573 C571 1.327 . S
C573 C589 1.429 . S
C573 H595 0.950 . S
C574 H570 0.949 . S
C574 C582 1.574 . S
C574 C590 1.368 . S
H575 C583 0.950 . S
H576 C581 0.950 . S
H577 C582 0.949 . S
H578 C584 0.950 . S
H579 C585 0.950 . S
H580 C586 0.949 . S
C581 H576 0.950 . S
C581 C583 1.327 . S
C581 C587 1.429 . S
C582 C574 1.574 . S
C582 H577 0.949 . S
C582 C588 1.368 . S
C583 C567 1.349 . S
C583 H575 0.950 . S
C583 C581 1.327 . S
C584 C572 1.349 . S
C584 H578 0.950 . S
C584 C585 1.327 . S
C585 H579 0.950 . S
C585 C584 1.327 . S
C585 C589 1.429 . S
C586 C569 1.574 . S
C586 H580 0.949 . S
C586 C590 1.368 . S
C587 C568 1.429 . S
C587 C581 1.429 . S
C587 C588 1.523 . S
C588 C569 1.368 . S
C588 C582 1.368 . S
C588 C587 1.523 . S
C589 C573 1.429 . S
C589 C585 1.429 . S
C589 C590 1.523 . S
C590 C574 1.368 . S
C590 C586 1.368 . S
C590 C589 1.523 . S
H591 C566 0.950 . S
H592 C568 0.950 . S
H593 C569 0.949 . S
H594 C571 0.950 . S
H595 C573 0.950 . S
C596 C597 1.349 . S
C596 C598 1.327 . S
C596 H621 0.950 . S
C597 C596 1.349 . S
C597 C613 1.349 . S
C598 C596 1.327 . S
C598 C617 1.429 . S
C598 H622 0.950 . S
C599 C616 1.574 . S
C599 C618 1.368 . S
C599 H623 0.949 . S
H600 C604 0.949 . S
C601 C602 1.349 . S
C601 C603 1.327 . S
C601 H624 0.950 . S
C602 C601 1.349 . S
C602 C614 1.349 . S
C603 C601 1.327 . S
C603 C619 1.429 . S
C603 H625 0.950 . S
C604 H600 0.949 . S
C604 C612 1.574 . S
C604 C620 1.368 . S
H605 C613 0.950 . S
H606 C611 0.950 . S
H607 C612 0.949 . S
H608 C614 0.950 . S
H609 C615 0.950 . S
H610 C616 0.949 . S
C611 H606 0.950 . S
C611 C613 1.327 . S
C611 C617 1.429 . S
C612 C604 1.574 . S
C612 H607 0.949 . S
C612 C618 1.368 . S
C613 C597 1.349 . S
C613 H605 0.950 . S
C613 C611 1.327 . S
C614 C602 1.349 . S
C614 H608 0.950 . S
C614 C615 1.327 . S
C615 H609 0.950 . S
C615 C614 1.327 . S
C615 C619 1.429 . S
C616 C599 1.574 . S
C616 H610 0.949 . S
C616 C620 1.368 . S
C617 C598 1.429 . S
C617 C611 1.429 . S
C617 C618 1.523 . S
C618 C599 1.368 . S
C618 C612 1.368 . S
C618 C617 1.523 . S
C619 C603 1.429 . S
C619 C615 1.429 . S
C619 C620 1.523 . S
C620 C604 1.368 . S
C620 C616 1.368 . S
C620 C619 1.523 . S
H621 C596 0.950 . S
H622 C598 0.950 . S
H623 C599 0.949 . S
H624 C601 0.950 . S
H625 C603 0.950 . S
C626 C627 1.349 . S
C626 C628 1.327 . S
C626 H651 0.950 . S
C627 C626 1.349 . S
C627 C643 1.349 . S
C628 C626 1.327 . S
C628 C647 1.429 . S
C628 H652 0.950 . S
C629 C646 1.574 . S
C629 C648 1.368 . S
C629 H653 0.949 . S
H630 C634 0.949 . S
C631 C632 1.349 . S
C631 C633 1.327 . S
C631 H654 0.950 1_455 S
C632 C631 1.349 . S
C632 C644 1.349 . S
C633 C631 1.327 . S
C633 C649 1.429 . S
C633 H655 0.950 . S
C634 H630 0.949 . S
C634 C642 1.574 . S
C634 C650 1.368 . S
H635 C643 0.950 . S
H636 C641 0.950 . S
H637 C642 0.949 . S
H638 C644 0.950 . S
H639 C645 0.950 . S
H640 C646 0.949 . S
C641 H636 0.950 . S
C641 C643 1.327 . S
C641 C647 1.429 . S
C642 C634 1.574 . S
C642 H637 0.949 . S
C642 C648 1.368 . S
C643 C627 1.349 . S
C643 H635 0.950 . S
C643 C641 1.327 . S
C644 C632 1.349 . S
C644 H638 0.950 . S
C644 C645 1.327 . S
C645 H639 0.950 . S
C645 C644 1.327 . S
C645 C649 1.429 . S
C646 C629 1.574 . S
C646 H640 0.949 . S
C646 C650 1.368 . S
C647 C628 1.429 . S
C647 C641 1.429 . S
C647 C648 1.523 . S
C648 C629 1.368 . S
C648 C642 1.368 . S
C648 C647 1.523 . S
C649 C633 1.429 . S
C649 C645 1.429 . S
C649 C650 1.523 . S
C650 C634 1.368 . S
C650 C646 1.368 . S
C650 C649 1.523 . S
H651 C626 0.950 . S
H652 C628 0.950 . S
H653 C629 0.949 . S
H654 C631 0.950 1_655 S
H655 C633 0.950 . S
C656 C657 1.349 . S
C656 C658 1.327 . S
C656 H681 0.950 . S
C657 C656 1.349 . S
C657 C673 1.349 . S
C658 C656 1.327 . S
C658 C677 1.429 . S
C658 H682 0.950 . S
C659 C676 1.574 . S
C659 C678 1.368 . S
C659 H683 0.949 . S
H660 C664 0.949 . S
C661 C662 1.349 . S
C661 C663 1.327 . S
C661 H684 0.950 . S
C662 C661 1.349 . S
C662 C674 1.349 . S
C663 C661 1.327 . S
C663 C679 1.429 . S
C663 H685 0.950 . S
C664 H660 0.949 . S
C664 C672 1.574 . S
C664 C680 1.368 . S
H665 C673 0.950 . S
H666 C671 0.950 . S
H667 C672 0.949 . S
H668 C674 0.950 . S
H669 C675 0.950 . S
H670 C676 0.949 . S
C671 H666 0.950 . S
C671 C673 1.327 . S
C671 C677 1.429 . S
C672 C664 1.574 . S
C672 H667 0.949 . S
C672 C678 1.368 . S
C673 C657 1.349 . S
C673 H665 0.950 . S
C673 C671 1.327 . S
C674 C662 1.349 . S
C674 H668 0.950 . S
C674 C675 1.327 . S
C675 H669 0.950 . S
C675 C674 1.327 . S
C675 C679 1.429 . S
C676 C659 1.574 . S
C676 H670 0.949 . S
C676 C680 1.368 . S
C677 C658 1.429 . S
C677 C671 1.429 . S
C677 C678 1.523 . S
C678 C659 1.368 . S
C678 C672 1.368 . S
C678 C677 1.523 . S
C679 C663 1.429 . S
C679 C675 1.429 . S
C679 C680 1.523 . S
C680 C664 1.368 . S
C680 C676 1.368 . S
C680 C679 1.523 . S
H681 C656 0.950 . S
H682 C658 0.950 . S
H683 C659 0.949 . S
H684 C661 0.950 . S
H685 C663 0.950 . S
C686 C687 1.349 . S
C686 C688 1.327 . S
C686 H711 0.950 . S
C687 C686 1.349 . S
C687 C703 1.349 . S
C688 C686 1.327 . S
C688 C707 1.429 . S
C688 H712 0.950 . S
C689 C706 1.574 . S
C689 C708 1.368 . S
C689 H713 0.949 . S
H690 C694 0.949 . S
C691 C692 1.349 . S
C691 C693 1.327 . S
C691 H714 0.950 . S
C692 C691 1.349 . S
C692 C704 1.349 . S
C693 C691 1.327 . S
C693 C709 1.429 . S
C693 H715 0.950 . S
C694 H690 0.949 . S
C694 C702 1.574 . S
C694 C710 1.368 . S
H695 C703 0.950 . S
H696 C701 0.950 . S
H697 C702 0.949 . S
H698 C704 0.950 . S
H699 C705 0.950 . S
H700 C706 0.949 . S
C701 H696 0.950 . S
C701 C703 1.327 . S
C701 C707 1.429 . S
C702 C694 1.574 . S
C702 H697 0.949 . S
C702 C708 1.368 . S
C703 C687 1.349 . S
C703 H695 0.950 . S
C703 C701 1.327 . S
C704 C692 1.349 . S
C704 H698 0.950 . S
C704 C705 1.327 . S
C705 H699 0.950 . S
C705 C704 1.327 . S
C705 C709 1.429 . S
C706 C689 1.574 . S
C706 H700 0.949 . S
C706 C710 1.368 . S
C707 C688 1.429 . S
C707 C701 1.429 . S
C707 C708 1.523 . S
C708 C689 1.368 . S
C708 C702 1.368 . S
C708 C707 1.523 . S
C709 C693 1.429 . S
C709 C705 1.429 . S
C709 C710 1.523 . S
C710 C694 1.368 . S
C710 C706 1.368 . S
C710 C709 1.523 . S
H711 C686 0.950 . S
H712 C688 0.950 . S
H713 C689 0.949 . S
H714 C691 0.950 . S
H715 C693 0.950 . S
C716 C717 1.349 . S
C716 C718 1.327 . S
C716 H741 0.950 . S
C717 C716 1.349 . S
C717 C733 1.349 . S
C718 C716 1.327 . S
C718 C737 1.429 . S
C718 H742 0.950 . S
C719 C736 1.574 . S
C719 C738 1.368 . S
C719 H743 0.949 . S
H720 C724 0.949 . S
C721 C722 1.349 . S
C721 C723 1.327 . S
C721 H744 0.950 . S
C722 C721 1.349 . S
C722 C734 1.349 . S
C723 C721 1.327 . S
C723 C739 1.429 . S
C723 H745 0.950 . S
C724 H720 0.949 . S
C724 C732 1.574 . S
C724 C740 1.368 . S
H725 C733 0.950 . S
H726 C731 0.950 . S
H727 C732 0.949 . S
H728 C734 0.950 . S
H729 C735 0.950 . S
H730 C736 0.949 . S
C731 H726 0.950 . S
C731 C733 1.327 . S
C731 C737 1.429 . S
C732 C724 1.574 . S
C732 H727 0.949 . S
C732 C738 1.368 . S
C733 C717 1.349 . S
C733 H725 0.950 . S
C733 C731 1.327 . S
C734 C722 1.349 . S
C734 H728 0.950 . S
C734 C735 1.327 . S
C735 H729 0.950 . S
C735 C734 1.327 . S
C735 C739 1.429 . S
C736 C719 1.574 . S
C736 H730 0.949 . S
C736 C740 1.368 . S
C737 C718 1.429 . S
C737 C731 1.429 . S
C737 C738 1.523 . S
C738 C719 1.368 . S
C738 C732 1.368 . S
C738 C737 1.523 . S
C739 C723 1.429 . S
C739 C735 1.429 . S
C739 C740 1.523 . S
C740 C724 1.368 . S
C740 C736 1.368 . S
C740 C739 1.523 . S
H741 C716 0.950 . S
H742 C718 0.950 . S
H743 C719 0.949 . S
H744 C721 0.950 . S
H745 C723 0.950 . S
C746 C747 1.349 . S
C746 C748 1.327 . S
C746 H771 0.950 . S
C747 C746 1.349 . S
C747 C763 1.349 . S
C748 C746 1.327 . S
C748 C767 1.429 . S
C748 H772 0.950 . S
C749 C766 1.574 . S
C749 C768 1.368 . S
C749 H773 0.949 . S
H750 C754 0.949 . S
C751 C752 1.349 . S
C751 C753 1.327 . S
C751 H774 0.950 . S
C752 C751 1.349 . S
C752 C764 1.349 . S
C753 C751 1.327 . S
C753 C769 1.429 . S
C753 H775 0.950 . S
C754 H750 0.949 . S
C754 C762 1.574 . S
C754 C770 1.368 . S
H755 C763 0.950 . S
H756 C761 0.950 . S
H757 C762 0.949 . S
H758 C764 0.950 . S
H759 C765 0.950 . S
H760 C766 0.949 . S
C761 H756 0.950 . S
C761 C763 1.327 . S
C761 C767 1.429 . S
C762 C754 1.574 . S
C762 H757 0.949 . S
C762 C768 1.368 . S
C763 C747 1.349 . S
C763 H755 0.950 . S
C763 C761 1.327 . S
C764 C752 1.349 . S
C764 H758 0.950 . S
C764 C765 1.327 . S
C765 H759 0.950 . S
C765 C764 1.327 . S
C765 C769 1.429 . S
C766 C749 1.574 . S
C766 H760 0.949 . S
C766 C770 1.368 . S
C767 C748 1.429 . S
C767 C761 1.429 . S
C767 C768 1.523 . S
C768 C749 1.368 . S
C768 C762 1.368 . S
C768 C767 1.523 . S
C769 C753 1.429 . S
C769 C765 1.429 . S
C769 C770 1.523 . S
C770 C754 1.368 . S
C770 C766 1.368 . S
C770 C769 1.523 . S
H771 C746 0.950 . S
H772 C748 0.950 . S
H773 C749 0.949 . S
H774 C751 0.950 . S
H775 C753 0.950 . S
C776 C777 1.349 . S
C776 C778 1.327 . S
C776 H801 0.950 . S
C777 C776 1.349 . S
C777 C793 1.349 . S
C778 C776 1.327 . S
C778 C797 1.429 . S
C778 H802 0.950 . S
C779 C796 1.574 . S
C779 C798 1.368 . S
C779 H803 0.949 . S
H780 C784 0.949 . S
C781 C782 1.349 . S
C781 C783 1.327 . S
C781 H804 0.950 . S
C782 C781 1.349 . S
C782 C794 1.349 . S
C783 C781 1.327 . S
C783 C799 1.429 . S
C783 H805 0.950 . S
C784 H780 0.949 . S
C784 C792 1.574 . S
C784 C800 1.368 . S
H785 C793 0.950 . S
H786 C791 0.950 . S
H787 C792 0.949 . S
H788 C794 0.950 . S
H789 C795 0.950 . S
H790 C796 0.949 . S
C791 H786 0.950 . S
C791 C793 1.327 . S
C791 C797 1.429 . S
C792 C784 1.574 . S
C792 H787 0.949 . S
C792 C798 1.368 . S
C793 C777 1.349 . S
C793 H785 0.950 . S
C793 C791 1.327 . S
C794 C782 1.349 . S
C794 H788 0.950 . S
C794 C795 1.327 . S
C795 H789 0.950 . S
C795 C794 1.327 . S
C795 C799 1.429 . S
C796 C779 1.574 . S
C796 H790 0.949 . S
C796 C800 1.368 . S
C797 C778 1.429 . S
C797 C791 1.429 . S
C797 C798 1.523 . S
C798 C779 1.368 . S
C798 C792 1.368 . S
C798 C797 1.523 . S
C799 C783 1.429 . S
C799 C795 1.429 . S
C799 C800 1.523 . S
C800 C784 1.368 . S
C800 C796 1.368 . S
C800 C799 1.523 . S
H801 C776 0.950 . S
H802 C778 0.950 . S
H803 C779 0.949 . S
H804 C781 0.950 . S
H805 C783 0.950 . S
C806 C807 1.349 . S
C806 C808 1.327 . S
C806 H831 0.950 . S
C807 C806 1.349 . S
C807 C823 1.349 . S
C808 C806 1.327 . S
C808 C827 1.429 . S
C808 H832 0.950 . S
C809 C826 1.574 . S
C809 C828 1.368 . S
C809 H833 0.949 . S
H810 C814 0.949 . S
C811 C812 1.349 . S
C811 C813 1.327 . S
C811 H834 0.950 . S
C812 C811 1.349 . S
C812 C824 1.349 . S
C813 C811 1.327 . S
C813 C829 1.429 . S
C813 H835 0.950 . S
C814 H810 0.949 . S
C814 C822 1.574 . S
C814 C830 1.368 . S
H815 C823 0.950 . S
H816 C821 0.950 . S
H817 C822 0.949 . S
H818 C824 0.950 . S
H819 C825 0.950 . S
H820 C826 0.949 . S
C821 H816 0.950 . S
C821 C823 1.327 . S
C821 C827 1.429 . S
C822 C814 1.574 . S
C822 H817 0.949 . S
C822 C828 1.368 . S
C823 C807 1.349 . S
C823 H815 0.950 . S
C823 C821 1.327 . S
C824 C812 1.349 . S
C824 H818 0.950 . S
C824 C825 1.327 . S
C825 H819 0.950 . S
C825 C824 1.327 . S
C825 C829 1.429 . S
C826 C809 1.574 . S
C826 H820 0.949 . S
C826 C830 1.368 . S
C827 C808 1.429 . S
C827 C821 1.429 . S
C827 C828 1.523 . S
C828 C809 1.368 . S
C828 C822 1.368 . S
C828 C827 1.523 . S
C829 C813 1.429 . S
C829 C825 1.429 . S
C829 C830 1.523 . S
C830 C814 1.368 . S
C830 C826 1.368 . S
C830 C829 1.523 . S
H831 C806 0.950 . S
H832 C808 0.950 . S
H833 C809 0.949 . S
H834 C811 0.950 . S
H835 C813 0.950 . S
C836 C837 1.349 . S
C836 C838 1.327 . S
C836 H861 0.950 . S
C837 C836 1.349 . S
C837 C853 1.349 . S
C838 C836 1.327 . S
C838 C857 1.429 . S
C838 H862 0.950 . S
C839 C856 1.574 . S
C839 C858 1.368 . S
C839 H863 0.949 . S
H840 C844 0.949 . S
C841 C842 1.349 . S
C841 C843 1.327 . S
C841 H864 0.950 . S
C842 C841 1.349 . S
C842 C854 1.349 . S
C843 C841 1.327 . S
C843 C859 1.429 . S
C843 H865 0.950 . S
C844 H840 0.949 . S
C844 C852 1.574 . S
C844 C860 1.368 . S
H845 C853 0.950 . S
H846 C851 0.950 . S
H847 C852 0.949 . S
H848 C854 0.950 . S
H849 C855 0.950 . S
H850 C856 0.949 . S
C851 H846 0.950 . S
C851 C853 1.327 . S
C851 C857 1.429 . S
C852 C844 1.574 . S
C852 H847 0.949 . S
C852 C858 1.368 . S
C853 C837 1.349 . S
C853 H845 0.950 . S
C853 C851 1.327 . S
C854 C842 1.349 . S
C854 H848 0.950 . S
C854 C855 1.327 . S
C855 H849 0.950 . S
C855 C854 1.327 . S
C855 C859 1.429 . S
C856 C839 1.574 . S
C856 H850 0.949 . S
C856 C860 1.368 . S
C857 C838 1.429 . S
C857 C851 1.429 . S
C857 C858 1.523 . S
C858 C839 1.368 . S
C858 C852 1.368 . S
C858 C857 1.523 . S
C859 C843 1.429 . S
C859 C855 1.429 . S
C859 C860 1.523 . S
C860 C844 1.368 . S
C860 C856 1.368 . S
C860 C859 1.523 . S
H861 C836 0.950 . S
H862 C838 0.950 . S
H863 C839 0.949 . S
H864 C841 0.950 . S
H865 C843 0.950 . S
C866 C867 1.349 . S
C866 C868 1.327 . S
C866 H891 0.950 . S
C867 C866 1.349 . S
C867 C883 1.349 . S
C868 C866 1.327 . S
C868 C887 1.429 . S
C868 H892 0.950 . S
C869 C886 1.574 . S
C869 C888 1.368 . S
C869 H893 0.949 . S
H870 C874 0.949 . S
C871 C872 1.349 . S
C871 C873 1.327 . S
C871 H894 0.950 . S
C872 C871 1.349 . S
C872 C884 1.349 . S
C873 C871 1.327 . S
C873 C889 1.429 . S
C873 H895 0.950 . S
C874 H870 0.949 . S
C874 C882 1.574 . S
C874 C890 1.368 . S
H875 C883 0.950 . S
H876 C881 0.950 . S
H877 C882 0.949 . S
H878 C884 0.950 . S
H879 C885 0.950 . S
H880 C886 0.949 . S
C881 H876 0.950 . S
C881 C883 1.327 . S
C881 C887 1.429 . S
C882 C874 1.574 . S
C882 H877 0.949 . S
C882 C888 1.368 . S
C883 C867 1.349 . S
C883 H875 0.950 . S
C883 C881 1.327 . S
C884 C872 1.349 . S
C884 H878 0.950 . S
C884 C885 1.327 . S
C885 H879 0.950 . S
C885 C884 1.327 . S
C885 C889 1.429 . S
C886 C869 1.574 . S
C886 H880 0.949 . S
C886 C890 1.368 . S
C887 C868 1.429 . S
C887 C881 1.429 . S
C887 C888 1.523 . S
C888 C869 1.368 . S
C888 C882 1.368 . S
C888 C887 1.523 . S
C889 C873 1.429 . S
C889 C885 1.429 . S
C889 C890 1.523 . S
C890 C874 1.368 . S
C890 C886 1.368 . S
C890 C889 1.523 . S
H891 C866 0.950 . S
H892 C868 0.950 . S
H893 C869 0.949 . S
H894 C871 0.950 . S
H895 C873 0.950 . S
C896 C897 1.349 . S
C896 C898 1.327 . S
C896 H921 0.950 . S
C897 C896 1.349 . S
C897 C913 1.349 . S
C898 C896 1.327 . S
C898 C917 1.429 . S
C898 H922 0.950 . S
C899 C916 1.574 . S
C899 C918 1.368 . S
C899 H923 0.949 . S
H900 C904 0.949 . S
C901 C902 1.349 . S
C901 C903 1.327 . S
C901 H924 0.950 . S
C902 C901 1.349 . S
C902 C914 1.349 . S
C903 C901 1.327 . S
C903 C919 1.429 . S
C903 H925 0.950 . S
C904 H900 0.949 . S
C904 C912 1.574 . S
C904 C920 1.368 . S
H905 C913 0.950 . S
H906 C911 0.950 . S
H907 C912 0.949 . S
H908 C914 0.950 . S
H909 C915 0.950 . S
H910 C916 0.949 . S
C911 H906 0.950 . S
C911 C913 1.327 . S
C911 C917 1.429 . S
C912 C904 1.574 . S
C912 H907 0.949 . S
C912 C918 1.368 . S
C913 C897 1.349 . S
C913 H905 0.950 . S
C913 C911 1.327 . S
C914 C902 1.349 . S
C914 H908 0.950 . S
C914 C915 1.327 . S
C915 H909 0.950 . S
C915 C914 1.327 . S
C915 C919 1.429 . S
C916 C899 1.574 . S
C916 H910 0.949 . S
C916 C920 1.368 . S
C917 C898 1.429 . S
C917 C911 1.429 . S
C917 C918 1.523 . S
C918 C899 1.368 . S
C918 C912 1.368 . S
C918 C917 1.523 . S
C919 C903 1.429 . S
C919 C915 1.429 . S
C919 C920 1.523 . S
C920 C904 1.368 . S
C920 C916 1.368 . S
C920 C919 1.523 . S
H921 C896 0.950 . S
H922 C898 0.950 . S
H923 C899 0.949 . S
H924 C901 0.950 . S
H925 C903 0.950 . S
C926 C927 1.349 . S
C926 C928 1.327 . S
C926 H951 0.950 . S
C927 C926 1.349 . S
C927 C943 1.349 . S
C928 C926 1.327 . S
C928 C947 1.429 . S
C928 H952 0.950 . S
C929 C946 1.574 . S
C929 C948 1.368 . S
C929 H953 0.949 . S
H930 C934 0.949 . S
C931 C932 1.349 . S
C931 C933 1.327 . S
C931 H954 0.950 . S
C932 C931 1.349 . S
C932 C944 1.349 . S
C933 C931 1.327 . S
C933 C949 1.429 . S
C933 H955 0.950 . S
C934 H930 0.949 . S
C934 C942 1.574 . S
C934 C950 1.368 . S
H935 C943 0.950 . S
H936 C941 0.950 . S
H937 C942 0.949 . S
H938 C944 0.950 . S
H939 C945 0.950 . S
H940 C946 0.949 . S
C941 H936 0.950 . S
C941 C943 1.327 . S
C941 C947 1.429 . S
C942 C934 1.574 . S
C942 H937 0.949 . S
C942 C948 1.368 . S
C943 C927 1.349 . S
C943 H935 0.950 . S
C943 C941 1.327 . S
C944 C932 1.349 . S
C944 H938 0.950 . S
C944 C945 1.327 . S
C945 H939 0.950 . S
C945 C944 1.327 . S
C945 C949 1.429 . S
C946 C929 1.574 . S
C946 H940 0.949 . S
C946 C950 1.368 . S
C947 C928 1.429 . S
C947 C941 1.429 . S
C947 C948 1.523 . S
C948 C929 1.368 . S
C948 C942 1.368 . S
C948 C947 1.523 . S
C949 C933 1.429 . S
C949 C945 1.429 . S
C949 C950 1.523 . S
C950 C934 1.368 . S
C950 C946 1.368 . S
C950 C949 1.523 . S
H951 C926 0.950 . S
H952 C928 0.950 . S
H953 C929 0.949 . S
H954 C931 0.950 . S
H955 C933 0.950 . S
C956 C957 1.349 . S
C956 C958 1.327 . S
C956 H981 0.950 . S
C957 C956 1.349 . S
C957 C973 1.349 . S
C958 C956 1.327 . S
C958 C977 1.429 . S
C958 H982 0.950 . S
C959 C976 1.574 . S
C959 C978 1.368 . S
C959 H983 0.949 . S
H960 C964 0.949 . S
C961 C962 1.349 . S
C961 C963 1.327 . S
C961 H984 0.950 . S
C962 C961 1.349 . S
C962 C974 1.349 . S
C963 C961 1.327 . S
C963 C979 1.429 . S
C963 H985 0.950 . S
C964 H960 0.949 . S
C964 C972 1.574 . S
C964 C980 1.368 . S
H965 C973 0.950 . S
H966 C971 0.950 . S
H967 C972 0.949 . S
H968 C974 0.950 . S
H969 C975 0.950 . S
H970 C976 0.949 . S
C971 H966 0.950 . S
C971 C973 1.327 . S
C971 C977 1.429 . S
C972 C964 1.574 . S
C972 H967 0.949 . S
C972 C978 1.368 . S
C973 C957 1.349 . S
C973 H965 0.950 . S
C973 C971 1.327 . S
C974 C962 1.349 . S
C974 H968 0.950 . S
C974 C975 1.327 . S
C975 H969 0.950 . S
C975 C974 1.327 . S
C975 C979 1.429 . S
C976 C959 1.574 . S
C976 H970 0.949 . S
C976 C980 1.368 . S
C977 C958 1.429 . S
C977 C971 1.429 . S
C977 C978 1.523 . S
C978 C959 1.368 . S
C978 C972 1.368 . S
C978 C977 1.523 . S
C979 C963 1.429 . S
C979 C975 1.429 . S
C979 C980 1.523 . S
C980 C964 1.368 . S
C980 C976 1.368 . S
C980 C979 1.523 . S
H981 C956 0.950 . S
H982 C958 0.950 . S
H983 C959 0.949 . S
H984 C961 0.950 . S
H985 C963 0.950 . S
C986 C987 1.349 . S
C986 C988 1.327 . S
C986 H1011 0.950 . S
C987 C986 1.349 . S
C987 C1003 1.349 . S
C988 C986 1.327 . S
C988 C1007 1.429 . S
C988 H1012 0.950 . S
C989 C1006 1.574 . S
C989 C1008 1.368 . S
C989 H1013 0.949 . S
H990 C994 0.949 . S
C991 C992 1.349 . S
C991 C993 1.327 . S
C991 H1014 0.950 . S
C992 C991 1.349 . S
C992 C1004 1.349 . S
C993 C991 1.327 . S
C993 C1009 1.429 . S
C993 H1015 0.950 . S
C994 H990 0.949 . S
C994 C1002 1.574 . S
C994 C1010 1.368 . S
H995 C1003 0.950 . S
H996 C1001 0.950 . S
H997 C1002 0.949 . S
H998 C1004 0.950 . S
H999 C1005 0.950 . S
H1000 C1006 0.949 . S
C1001 H996 0.950 . S
C1001 C1003 1.327 . S
C1001 C1007 1.429 . S
C1002 C994 1.574 . S
C1002 H997 0.949 . S
C1002 C1008 1.368 . S
C1003 C987 1.349 . S
C1003 H995 0.950 . S
C1003 C1001 1.327 . S
C1004 C992 1.349 . S
C1004 H998 0.950 . S
C1004 C1005 1.327 . S
C1005 H999 0.950 . S
C1005 C1004 1.327 . S
C1005 C1009 1.429 . S
C1006 C989 1.574 . S
C1006 H1000 0.949 . S
C1006 C1010 1.368 . S
C1007 C988 1.429 . S
C1007 C1001 1.429 . S
C1007 C1008 1.523 . S
C1008 C989 1.368 . S
C1008 C1002 1.368 . S
C1008 C1007 1.523 . S
C1009 C993 1.429 . S
C1009 C1005 1.429 . S
C1009 C1010 1.523 . S
C1010 C994 1.368 . S
C1010 C1006 1.368 . S
C1010 C1009 1.523 . S
H1011 C986 0.950 . S
H1012 C988 0.950 . S
H1013 C989 0.949 . S
H1014 C991 0.950 . S
H1015 C993 0.950 . S
C1016 C1017 1.349 . S
C1016 C1018 1.327 . S
C1016 H1041 0.950 . S
C1017 C1016 1.349 . S
C1017 C1033 1.349 . S
C1018 C1016 1.327 . S
C1018 C1037 1.429 . S
C1018 H1042 0.950 . S
C1019 C1036 1.574 . S
C1019 C1038 1.368 . S
C1019 H1043 0.949 . S
H1020 C1024 0.949 . S
C1021 C1022 1.349 . S
C1021 C1023 1.327 . S
C1021 H1044 0.950 . S
C1022 C1021 1.349 . S
C1022 C1034 1.349 . S
C1023 C1021 1.327 . S
C1023 C1039 1.429 . S
C1023 H1045 0.950 . S
C1024 H1020 0.949 . S
C1024 C1032 1.574 . S
C1024 C1040 1.368 . S
H1025 C1033 0.950 . S
H1026 C1031 0.950 . S
H1027 C1032 0.949 . S
H1028 C1034 0.950 . S
H1029 C1035 0.950 . S
H1030 C1036 0.949 . S
C1031 H1026 0.950 . S
C1031 C1033 1.327 . S
C1031 C1037 1.429 . S
C1032 C1024 1.574 . S
C1032 H1027 0.949 . S
C1032 C1038 1.368 . S
C1033 C1017 1.349 . S
C1033 H1025 0.950 . S
C1033 C1031 1.327 . S
C1034 C1022 1.349 . S
C1034 H1028 0.950 . S
C1034 C1035 1.327 . S
C1035 H1029 0.950 . S
C1035 C1034 1.327 . S
C1035 C1039 1.429 . S
C1036 C1019 1.574 . S
C1036 H1030 0.949 . S
C1036 C1040 1.368 . S
C1037 C1018 1.429 . S
C1037 C1031 1.429 . S
C1037 C1038 1.523 . S
C1038 C1019 1.368 . S
C1038 C1032 1.368 . S
C1038 C1037 1.523 . S
C1039 C1023 1.429 . S
C1039 C1035 1.429 . S
C1039 C1040 1.523 . S
C1040 C1024 1.368 . S
C1040 C1036 1.368 . S
C1040 C1039 1.523 . S
H1041 C1016 0.950 . S
H1042 C1018 0.950 . S
H1043 C1019 0.949 . S
H1044 C1021 0.950 . S
H1045 C1023 0.950 . S
C1046 C1047 1.349 . S
C1046 C1048 1.327 . S
C1046 H1071 0.950 . S
C1047 C1046 1.349 . S
C1047 C1063 1.349 . S
C1048 C1046 1.327 . S
C1048 C1067 1.429 . S
C1048 H1072 0.950 . S
C1049 C1066 1.574 . S
C1049 C1068 1.368 . S
C1049 H1073 0.949 . S
H1050 C1054 0.949 . S
C1051 C1052 1.349 . S
C1051 C1053 1.327 . S
C1051 H1074 0.950 . S
C1052 C1051 1.349 . S
C1052 C1064 1.349 . S
C1053 C1051 1.327 . S
C1053 C1069 1.429 . S
C1053 H1075 0.950 . S
C1054 H1050 0.949 . S
C1054 C1062 1.574 . S
C1054 C1070 1.368 . S
H1055 C1063 0.950 . S
H1056 C1061 0.950 . S
H1057 C1062 0.949 . S
H1058 C1064 0.950 . S
H1059 C1065 0.950 . S
H1060 C1066 0.949 . S
C1061 H1056 0.950 . S
C1061 C1063 1.327 . S
C1061 C1067 1.429 . S
C1062 C1054 1.574 . S
C1062 H1057 0.949 . S
C1062 C1068 1.368 . S
C1063 C1047 1.349 . S
C1063 H1055 0.950 . S
C1063 C1061 1.327 . S
C1064 C1052 1.349 . S
C1064 H1058 0.950 . S
C1064 C1065 1.327 . S
C1065 H1059 0.950 . S
C1065 C1064 1.327 . S
C1065 C1069 1.429 . S
C1066 C1049 1.574 . S
C1066 H1060 0.949 . S
C1066 C1070 1.368 . S
C1067 C1048 1.429 . S
C1067 C1061 1.429 . S
C1067 C1068 1.523 . S
C1068 C1049 1.368 . S
C1068 C1062 1.368 . S
C1068 C1067 1.523 . S
C1069 C1053 1.429 . S
C1069 C1065 1.429 . S
C1069 C1070 1.523 . S
C1070 C1054 1.368 . S
C1070 C1066 1.368 . S
C1070 C1069 1.523 . S
H1071 C1046 0.950 . S
H1072 C1048 0.950 . S
H1073 C1049 0.949 . S
H1074 C1051 0.950 . S
H1075 C1053 0.950 . S
C1076 C1077 1.349 . S
C1076 C1078 1.327 . S
C1076 H1101 0.950 . S
C1077 C1076 1.349 . S
C1077 C1093 1.349 . S
C1078 C1076 1.327 . S
C1078 C1097 1.429 . S
C1078 H1102 0.950 . S
C1079 C1096 1.574 . S
C1079 C1098 1.368 . S
C1079 H1103 0.949 . S
H1080 C1084 0.949 . S
C1081 C1082 1.349 . S
C1081 C1083 1.327 . S
C1081 H1104 0.950 . S
C1082 C1081 1.349 . S
C1082 C1094 1.349 . S
C1083 C1081 1.327 . S
C1083 C1099 1.429 . S
C1083 H1105 0.950 . S
C1084 H1080 0.949 . S
C1084 C1092 1.574 . S
C1084 C1100 1.368 . S
H1085 C1093 0.950 . S
H1086 C1091 0.950 . S
H1087 C1092 0.949 . S
H1088 C1094 0.950 . S
H1089 C1095 0.950 . S
H1090 C1096 0.949 . S
C1091 H1086 0.950 . S
C1091 C1093 1.327 . S
C1091 C1097 1.429 . S
C1092 C1084 1.574 . S
C1092 H1087 0.949 . S
C1092 C1098 1.368 . S
C1093 C1077 1.349 . S
C1093 H1085 0.950 . S
C1093 C1091 1.327 . S
C1094 C1082 1.349 . S
C1094 H1088 0.950 . S
C1094 C1095 1.327 . S
C1095 H1089 0.950 . S
C1095 C1094 1.327 . S
C1095 C1099 1.429 . S
C1096 C1079 1.574 . S
C1096 H1090 0.949 . S
C1096 C1100 1.368 . S
C1097 C1078 1.429 . S
C1097 C1091 1.429 . S
C1097 C1098 1.523 . S
C1098 C1079 1.368 . S
C1098 C1092 1.368 . S
C1098 C1097 1.523 . S
C1099 C1083 1.429 . S
C1099 C1095 1.429 . S
C1099 C1100 1.523 . S
C1100 C1084 1.368 . S
C1100 C1096 1.368 . S
C1100 C1099 1.523 . S
H1101 C1076 0.950 . S
H1102 C1078 0.950 . S
H1103 C1079 0.949 . S
H1104 C1081 0.950 . S
H1105 C1083 0.950 . S
C1106 C1107 1.349 . S
C1106 C1108 1.327 . S
C1106 H1131 0.950 . S
C1107 C1106 1.349 . S
C1107 C1123 1.349 . S
C1108 C1106 1.327 . S
C1108 C1127 1.429 . S
C1108 H1132 0.950 . S
C1109 C1126 1.574 . S
C1109 C1128 1.368 . S
C1109 H1133 0.949 . S
H1110 C1114 0.949 . S
C1111 C1112 1.349 . S
C1111 C1113 1.327 . S
C1111 H1134 0.950 . S
C1112 C1111 1.349 . S
C1112 C1124 1.349 . S
C1113 C1111 1.327 . S
C1113 C1129 1.429 . S
C1113 H1135 0.950 . S
C1114 H1110 0.949 . S
C1114 C1122 1.574 . S
C1114 C1130 1.368 . S
H1115 C1123 0.950 . S
H1116 C1121 0.950 . S
H1117 C1122 0.949 . S
H1118 C1124 0.950 . S
H1119 C1125 0.950 . S
H1120 C1126 0.949 . S
C1121 H1116 0.950 . S
C1121 C1123 1.327 . S
C1121 C1127 1.429 . S
C1122 C1114 1.574 . S
C1122 H1117 0.949 . S
C1122 C1128 1.368 . S
C1123 C1107 1.349 . S
C1123 H1115 0.950 . S
C1123 C1121 1.327 . S
C1124 C1112 1.349 . S
C1124 H1118 0.950 . S
C1124 C1125 1.327 . S
C1125 H1119 0.950 . S
C1125 C1124 1.327 . S
C1125 C1129 1.429 . S
C1126 C1109 1.574 . S
C1126 H1120 0.949 . S
C1126 C1130 1.368 . S
C1127 C1108 1.429 . S
C1127 C1121 1.429 . S
C1127 C1128 1.523 . S
C1128 C1109 1.368 . S
C1128 C1122 1.368 . S
C1128 C1127 1.523 . S
C1129 C1113 1.429 . S
C1129 C1125 1.429 . S
C1129 C1130 1.523 . S
C1130 C1114 1.368 . S
C1130 C1126 1.368 . S
C1130 C1129 1.523 . S
H1131 C1106 0.950 . S
H1132 C1108 0.950 . S
H1133 C1109 0.949 . S
H1134 C1111 0.950 . S
H1135 C1113 0.950 . S
C1136 C1137 1.349 . S
C1136 C1138 1.327 . S
C1136 H1161 0.950 . S
C1137 C1136 1.349 . S
C1137 C1153 1.349 . S
C1138 C1136 1.327 . S
C1138 C1157 1.429 . S
C1138 H1162 0.950 . S
C1139 C1156 1.574 . S
C1139 C1158 1.368 . S
C1139 H1163 0.949 . S
H1140 C1144 0.949 . S
C1141 C1142 1.349 . S
C1141 C1143 1.327 . S
C1141 H1164 0.950 . S
C1142 C1141 1.349 . S
C1142 C1154 1.349 . S
C1143 C1141 1.327 . S
C1143 C1159 1.429 . S
C1143 H1165 0.950 . S
C1144 H1140 0.949 . S
C1144 C1152 1.574 . S
C1144 C1160 1.368 . S
H1145 C1153 0.950 . S
H1146 C1151 0.950 . S
H1147 C1152 0.949 . S
H1148 C1154 0.950 . S
H1149 C1155 0.950 . S
H1150 C1156 0.949 . S
C1151 H1146 0.950 . S
C1151 C1153 1.327 . S
C1151 C1157 1.429 . S
C1152 C1144 1.574 . S
C1152 H1147 0.949 . S
C1152 C1158 1.368 . S
C1153 C1137 1.349 . S
C1153 H1145 0.950 . S
C1153 C1151 1.327 . S
C1154 C1142 1.349 . S
C1154 H1148 0.950 . S
C1154 C1155 1.327 . S
C1155 H1149 0.950 . S
C1155 C1154 1.327 . S
C1155 C1159 1.429 . S
C1156 C1139 1.574 . S
C1156 H1150 0.949 . S
C1156 C1160 1.368 . S
C1157 C1138 1.429 . S
C1157 C1151 1.429 . S
C1157 C1158 1.523 . S
C1158 C1139 1.368 . S
C1158 C1152 1.368 . S
C1158 C1157 1.523 . S
C1159 C1143 1.429 . S
C1159 C1155 1.429 . S
C1159 C1160 1.523 . S
C1160 C1144 1.368 . S
C1160 C1156 1.368 . S
C1160 C1159 1.523 . S
H1161 C1136 0.950 . S
H1162 C1138 0.950 . S
H1163 C1139 0.949 . S
H1164 C1141 0.950 . S
H1165 C1143 0.950 . S
C1166 C1167 1.349 . S
C1166 C1168 1.327 . S
C1166 H1191 0.950 . S
C1167 C1166 1.349 . S
C1167 C1183 1.349 . S
C1168 C1166 1.327 . S
C1168 C1187 1.429 . S
C1168 H1192 0.950 . S
C1169 C1186 1.574 . S
C1169 C1188 1.368 . S
C1169 H1193 0.949 . S
H1170 C1174 0.949 . S
C1171 C1172 1.349 . S
C1171 C1173 1.327 . S
C1171 H1194 0.950 . S
C1172 C1171 1.349 . S
C1172 C1184 1.349 . S
C1173 C1171 1.327 . S
C1173 C1189 1.429 . S
C1173 H1195 0.950 . S
C1174 H1170 0.949 . S
C1174 C1182 1.574 . S
C1174 C1190 1.368 . S
H1175 C1183 0.950 . S
H1176 C1181 0.950 . S
H1177 C1182 0.949 . S
H1178 C1184 0.950 . S
H1179 C1185 0.950 . S
H1180 C1186 0.949 . S
C1181 H1176 0.950 . S
C1181 C1183 1.327 . S
C1181 C1187 1.429 . S
C1182 C1174 1.574 . S
C1182 H1177 0.949 . S
C1182 C1188 1.368 . S
C1183 C1167 1.349 . S
C1183 H1175 0.950 . S
C1183 C1181 1.327 . S
C1184 C1172 1.349 . S
C1184 H1178 0.950 . S
C1184 C1185 1.327 . S
C1185 H1179 0.950 . S
C1185 C1184 1.327 . S
C1185 C1189 1.429 . S
C1186 C1169 1.574 . S
C1186 H1180 0.949 . S
C1186 C1190 1.368 . S
C1187 C1168 1.429 . S
C1187 C1181 1.429 . S
C1187 C1188 1.523 . S
C1188 C1169 1.368 . S
C1188 C1182 1.368 . S
C1188 C1187 1.523 . S
C1189 C1173 1.429 . S
C1189 C1185 1.429 . S
C1189 C1190 1.523 . S
C1190 C1174 1.368 . S
C1190 C1186 1.368 . S
C1190 C1189 1.523 . S
H1191 C1166 0.950 . S
H1192 C1168 0.950 . S
H1193 C1169 0.949 . S
H1194 C1171 0.950 . S
H1195 C1173 0.950 . S
C1196 C1197 1.349 . S
C1196 C1198 1.327 . S
C1196 H1221 0.950 . S
C1197 C1196 1.349 . S
C1197 C1213 1.349 . S
C1198 C1196 1.327 . S
C1198 C1217 1.429 . S
C1198 H1222 0.950 . S
C1199 C1216 1.574 . S
C1199 C1218 1.368 . S
C1199 H1223 0.949 . S
H1200 C1204 0.949 . S
C1201 C1202 1.349 . S
C1201 C1203 1.327 . S
C1201 H1224 0.950 . S
C1202 C1201 1.349 . S
C1202 C1214 1.349 . S
C1203 C1201 1.327 . S
C1203 C1219 1.429 . S
C1203 H1225 0.950 . S
C1204 H1200 0.949 . S
C1204 C1212 1.574 . S
C1204 C1220 1.368 . S
H1205 C1213 0.950 . S
H1206 C1211 0.950 . S
H1207 C1212 0.949 . S
H1208 C1214 0.950 . S
H1209 C1215 0.950 . S
H1210 C1216 0.949 . S
C1211 H1206 0.950 . S
C1211 C1213 1.327 . S
C1211 C1217 1.429 . S
C1212 C1204 1.574 . S
C1212 H1207 0.949 . S
C1212 C1218 1.368 . S
C1213 C1197 1.349 . S
C1213 H1205 0.950 . S
C1213 C1211 1.327 . S
C1214 C1202 1.349 . S
C1214 H1208 0.950 . S
C1214 C1215 1.327 . S
C1215 H1209 0.950 . S
C1215 C1214 1.327 . S
C1215 C1219 1.429 . S
C1216 C1199 1.574 . S
C1216 H1210 0.949 . S
C1216 C1220 1.368 . S
C1217 C1198 1.429 . S
C1217 C1211 1.429 . S
C1217 C1218 1.523 . S
C1218 C1199 1.368 . S
C1218 C1212 1.368 . S
C1218 C1217 1.523 . S
C1219 C1203 1.429 . S
C1219 C1215 1.429 . S
C1219 C1220 1.523 . S
C1220 C1204 1.368 . S
C1220 C1216 1.368 . S
C1220 C1219 1.523 . S
H1221 C1196 0.950 . S
H1222 C1198 0.950 . S
H1223 C1199 0.949 . S
H1224 C1201 0.950 . S
H1225 C1203 0.950 . S
C1226 C1227 1.349 . S
C1226 C1228 1.327 . S
C1226 H1251 0.950 1_455 S
C1227 C1226 1.349 . S
C1227 C1243 1.349 . S
C1228 C1226 1.327 . S
C1228 C1247 1.429 . S
C1228 H1252 0.950 . S
C1229 C1246 1.574 . S
C1229 C1248 1.368 . S
C1229 H1253 0.949 . S
H1230 C1234 0.949 . S
C1231 C1232 1.349 . S
C1231 C1233 1.327 . S
C1231 H1254 0.950 . S
C1232 C1231 1.349 . S
C1232 C1244 1.349 . S
C1233 C1231 1.327 . S
C1233 C1249 1.429 . S
C1233 H1255 0.950 . S
C1234 H1230 0.949 . S
C1234 C1242 1.574 . S
C1234 C1250 1.368 . S
H1235 C1243 0.950 . S
H1236 C1241 0.950 . S
H1237 C1242 0.949 . S
H1238 C1244 0.950 . S
H1239 C1245 0.950 . S
H1240 C1246 0.949 . S
C1241 H1236 0.950 . S
C1241 C1243 1.327 . S
C1241 C1247 1.429 . S
C1242 C1234 1.574 . S
C1242 H1237 0.949 . S
C1242 C1248 1.368 . S
C1243 C1227 1.349 . S
C1243 H1235 0.950 . S
C1243 C1241 1.327 . S
C1244 C1232 1.349 . S
C1244 H1238 0.950 . S
C1244 C1245 1.327 . S
C1245 H1239 0.950 . S
C1245 C1244 1.327 . S
C1245 C1249 1.429 . S
C1246 C1229 1.574 . S
C1246 H1240 0.949 . S
C1246 C1250 1.368 . S
C1247 C1228 1.429 . S
C1247 C1241 1.429 . S
C1247 C1248 1.523 . S
C1248 C1229 1.368 . S
C1248 C1242 1.368 . S
C1248 C1247 1.523 . S
C1249 C1233 1.429 . S
C1249 C1245 1.429 . S
C1249 C1250 1.523 . S
C1250 C1234 1.368 . S
C1250 C1246 1.368 . S
C1250 C1249 1.523 . S
H1251 C1226 0.950 1_655 S
H1252 C1228 0.950 . S
H1253 C1229 0.949 . S
H1254 C1231 0.950 . S
H1255 C1233 0.950 . S
C1256 C1257 1.349 . S
C1256 C1258 1.327 . S
C1256 H1281 0.950 . S
C1257 C1256 1.349 . S
C1257 C1273 1.349 . S
C1258 C1256 1.327 . S
C1258 C1277 1.429 . S
C1258 H1282 0.950 . S
C1259 C1276 1.574 . S
C1259 C1278 1.368 . S
C1259 H1283 0.949 . S
H1260 C1264 0.949 . S
C1261 C1262 1.349 . S
C1261 C1263 1.327 . S
C1261 H1284 0.950 . S
C1262 C1261 1.349 . S
C1262 C1274 1.349 . S
C1263 C1261 1.327 . S
C1263 C1279 1.429 . S
C1263 H1285 0.950 . S
C1264 H1260 0.949 . S
C1264 C1272 1.574 . S
C1264 C1280 1.368 . S
H1265 C1273 0.950 . S
H1266 C1271 0.950 . S
H1267 C1272 0.949 . S
H1268 C1274 0.950 . S
H1269 C1275 0.950 . S
H1270 C1276 0.949 . S
C1271 H1266 0.950 . S
C1271 C1273 1.327 . S
C1271 C1277 1.429 . S
C1272 C1264 1.574 . S
C1272 H1267 0.949 . S
C1272 C1278 1.368 . S
C1273 C1257 1.349 . S
C1273 H1265 0.950 . S
C1273 C1271 1.327 . S
C1274 C1262 1.349 . S
C1274 H1268 0.950 . S
C1274 C1275 1.327 . S
C1275 H1269 0.950 . S
C1275 C1274 1.327 . S
C1275 C1279 1.429 . S
C1276 C1259 1.574 . S
C1276 H1270 0.949 . S
C1276 C1280 1.368 . S
C1277 C1258 1.429 . S
C1277 C1271 1.429 . S
C1277 C1278 1.523 . S
C1278 C1259 1.368 . S
C1278 C1272 1.368 . S
C1278 C1277 1.523 . S
C1279 C1263 1.429 . S
C1279 C1275 1.429 . S
C1279 C1280 1.523 . S
C1280 C1264 1.368 . S
C1280 C1276 1.368 . S
C1280 C1279 1.523 . S
H1281 C1256 0.950 . S
H1282 C1258 0.950 . S
H1283 C1259 0.949 . S
H1284 C1261 0.950 . S
H1285 C1263 0.950 . S
C1286 C1287 1.349 . S
C1286 C1288 1.327 . S
C1286 H1311 0.950 1_455 S
C1287 C1286 1.349 . S
C1287 C1303 1.349 . S
C1288 C1286 1.327 . S
C1288 C1307 1.429 . S
C1288 H1312 0.950 . S
C1289 C1306 1.574 . S
C1289 C1308 1.368 . S
C1289 H1313 0.949 . S
H1290 C1294 0.949 . S
C1291 C1292 1.349 . S
C1291 C1293 1.327 . S
C1291 H1314 0.950 . S
C1292 C1291 1.349 . S
C1292 C1304 1.349 . S
C1293 C1291 1.327 . S
C1293 C1309 1.429 . S
C1293 H1315 0.950 . S
C1294 H1290 0.949 . S
C1294 C1302 1.574 . S
C1294 C1310 1.368 . S
H1295 C1303 0.950 . S
H1296 C1301 0.950 . S
H1297 C1302 0.949 . S
H1298 C1304 0.950 . S
H1299 C1305 0.950 . S
H1300 C1306 0.949 . S
C1301 H1296 0.950 . S
C1301 C1303 1.327 . S
C1301 C1307 1.429 . S
C1302 C1294 1.574 . S
C1302 H1297 0.949 . S
C1302 C1308 1.368 . S
C1303 C1287 1.349 . S
C1303 H1295 0.950 . S
C1303 C1301 1.327 . S
C1304 C1292 1.349 . S
C1304 H1298 0.950 . S
C1304 C1305 1.327 . S
C1305 H1299 0.950 . S
C1305 C1304 1.327 . S
C1305 C1309 1.429 . S
C1306 C1289 1.574 . S
C1306 H1300 0.949 . S
C1306 C1310 1.368 . S
C1307 C1288 1.429 . S
C1307 C1301 1.429 . S
C1307 C1308 1.523 . S
C1308 C1289 1.368 . S
C1308 C1302 1.368 . S
C1308 C1307 1.523 . S
C1309 C1293 1.429 . S
C1309 C1305 1.429 . S
C1309 C1310 1.523 . S
C1310 C1294 1.368 . S
C1310 C1306 1.368 . S
C1310 C1309 1.523 . S
H1311 C1286 0.950 1_655 S
H1312 C1288 0.950 . S
H1313 C1289 0.949 . S
H1314 C1291 0.950 . S
H1315 C1293 0.950 . S
C1316 C1317 1.349 . S
C1316 C1318 1.327 . S
C1316 H1341 0.950 . S
C1317 C1316 1.349 . S
C1317 C1333 1.349 . S
C1318 C1316 1.327 . S
C1318 C1337 1.429 . S
C1318 H1342 0.950 . S
C1319 C1336 1.574 . S
C1319 C1338 1.368 . S
C1319 H1343 0.949 . S
H1320 C1324 0.949 . S
C1321 C1322 1.349 . S
C1321 C1323 1.327 . S
C1321 H1344 0.950 . S
C1322 C1321 1.349 . S
C1322 C1334 1.349 . S
C1323 C1321 1.327 . S
C1323 C1339 1.429 . S
C1323 H1345 0.950 . S
C1324 H1320 0.949 . S
C1324 C1332 1.574 . S
C1324 C1340 1.368 . S
H1325 C1333 0.950 . S
H1326 C1331 0.950 . S
H1327 C1332 0.949 . S
H1328 C1334 0.950 . S
H1329 C1335 0.950 . S
H1330 C1336 0.949 . S
C1331 H1326 0.950 . S
C1331 C1333 1.327 . S
C1331 C1337 1.429 . S
C1332 C1324 1.574 . S
C1332 H1327 0.949 . S
C1332 C1338 1.368 . S
C1333 C1317 1.349 . S
C1333 H1325 0.950 . S
C1333 C1331 1.327 . S
C1334 C1322 1.349 . S
C1334 H1328 0.950 . S
C1334 C1335 1.327 . S
C1335 H1329 0.950 . S
C1335 C1334 1.327 . S
C1335 C1339 1.429 . S
C1336 C1319 1.574 . S
C1336 H1330 0.949 . S
C1336 C1340 1.368 . S
C1337 C1318 1.429 . S
C1337 C1331 1.429 . S
C1337 C1338 1.523 . S
C1338 C1319 1.368 . S
C1338 C1332 1.368 . S
C1338 C1337 1.523 . S
C1339 C1323 1.429 . S
C1339 C1335 1.429 . S
C1339 C1340 1.523 . S
C1340 C1324 1.368 . S
C1340 C1336 1.368 . S
C1340 C1339 1.523 . S
H1341 C1316 0.950 . S
H1342 C1318 0.950 . S
H1343 C1319 0.949 . S
H1344 C1321 0.950 . S
H1345 C1323 0.950 . S
C1346 C1347 1.349 . S
C1346 C1348 1.327 . S
C1346 H1371 0.950 . S
C1347 C1346 1.349 . S
C1347 C1363 1.349 . S
C1348 C1346 1.327 . S
C1348 C1367 1.429 . S
C1348 H1372 0.950 . S
C1349 C1366 1.574 . S
C1349 C1368 1.368 . S
C1349 H1373 0.949 . S
H1350 C1354 0.949 . S
C1351 C1352 1.349 . S
C1351 C1353 1.327 . S
C1351 H1374 0.950 . S
C1352 C1351 1.349 . S
C1352 C1364 1.349 . S
C1353 C1351 1.327 . S
C1353 C1369 1.429 . S
C1353 H1375 0.950 . S
C1354 H1350 0.949 . S
C1354 C1362 1.574 . S
C1354 C1370 1.368 . S
H1355 C1363 0.950 . S
H1356 C1361 0.950 . S
H1357 C1362 0.949 . S
H1358 C1364 0.950 . S
H1359 C1365 0.950 . S
H1360 C1366 0.949 . S
C1361 H1356 0.950 . S
C1361 C1363 1.327 . S
C1361 C1367 1.429 . S
C1362 C1354 1.574 . S
C1362 H1357 0.949 . S
C1362 C1368 1.368 . S
C1363 C1347 1.349 . S
C1363 H1355 0.950 . S
C1363 C1361 1.327 . S
C1364 C1352 1.349 . S
C1364 H1358 0.950 . S
C1364 C1365 1.327 . S
C1365 H1359 0.950 . S
C1365 C1364 1.327 . S
C1365 C1369 1.429 . S
C1366 C1349 1.574 . S
C1366 H1360 0.949 . S
C1366 C1370 1.368 . S
C1367 C1348 1.429 . S
C1367 C1361 1.429 . S
C1367 C1368 1.523 . S
C1368 C1349 1.368 . S
C1368 C1362 1.368 . S
C1368 C1367 1.523 . S
C1369 C1353 1.429 . S
C1369 C1365 1.429 . S
C1369 C1370 1.523 . S
C1370 C1354 1.368 . S
C1370 C1366 1.368 . S
C1370 C1369 1.523 . S
H1371 C1346 0.950 . S
H1372 C1348 0.950 . S
H1373 C1349 0.949 . S
H1374 C1351 0.950 . S
H1375 C1353 0.950 . S
C1376 C1377 1.349 . S
C1376 C1378 1.327 . S
C1376 H1401 0.950 . S
C1377 C1376 1.349 . S
C1377 C1393 1.349 . S
C1378 C1376 1.327 . S
C1378 C1397 1.429 . S
C1378 H1402 0.950 . S
C1379 C1396 1.574 . S
C1379 C1398 1.368 . S
C1379 H1403 0.949 . S
H1380 C1384 0.949 . S
C1381 C1382 1.349 . S
C1381 C1383 1.327 . S
C1381 H1404 0.950 . S
C1382 C1381 1.349 . S
C1382 C1394 1.349 . S
C1383 C1381 1.327 . S
C1383 C1399 1.429 . S
C1383 H1405 0.950 . S
C1384 H1380 0.949 . S
C1384 C1392 1.574 . S
C1384 C1400 1.368 . S
H1385 C1393 0.950 . S
H1386 C1391 0.950 . S
H1387 C1392 0.949 . S
H1388 C1394 0.950 . S
H1389 C1395 0.950 . S
H1390 C1396 0.949 . S
C1391 H1386 0.950 . S
C1391 C1393 1.327 . S
C1391 C1397 1.429 . S
C1392 C1384 1.574 . S
C1392 H1387 0.949 . S
C1392 C1398 1.368 . S
C1393 C1377 1.349 . S
C1393 H1385 0.950 . S
C1393 C1391 1.327 . S
C1394 C1382 1.349 . S
C1394 H1388 0.950 . S
C1394 C1395 1.327 . S
C1395 H1389 0.950 . S
C1395 C1394 1.327 . S
C1395 C1399 1.429 . S
C1396 C1379 1.574 . S
C1396 H1390 0.949 . S
C1396 C1400 1.368 . S
C1397 C1378 1.429 . S
C1397 C1391 1.429 . S
C1397 C1398 1.523 . S
C1398 C1379 1.368 . S
C1398 C1392 1.368 . S
C1398 C1397 1.523 . S
C1399 C1383 1.429 . S
C1399 C1395 1.429 . S
C1399 C1400 1.523 . S
C1400 C1384 1.368 . S
C1400 C1396 1.368 . S
C1400 C1399 1.523 . S
H1401 C1376 0.950 . S
H1402 C1378 0.950 . S
H1403 C1379 0.949 . S
H1404 C1381 0.950 . S
H1405 C1383 0.950 . S
C1406 C1407 1.349 . S
C1406 C1408 1.327 . S
C1406 H1431 0.950 . S
C1407 C1406 1.349 . S
C1407 C1423 1.349 . S
C1408 C1406 1.327 . S
C1408 C1427 1.429 . S
C1408 H1432 0.950 . S
C1409 C1426 1.574 1_565 S
C1409 C1428 1.368 1_455 S
C1409 H1433 0.949 . S
H1410 C1414 0.949 . S
C1411 C1412 1.349 . S
C1411 C1413 1.327 . S
C1411 H1434 0.950 . S
C1412 C1411 1.349 . S
C1412 C1424 1.349 . S
C1413 C1411 1.327 . S
C1413 C1429 1.429 . S
C1413 H1435 0.950 . S
C1414 H1410 0.949 . S
C1414 C1422 1.574 1_545 S
C1414 C1430 1.368 1_655 S
H1415 C1423 0.950 . S
H1416 C1421 0.950 1_455 S
H1417 C1422 0.949 . S
H1418 C1424 0.950 . S
H1419 C1425 0.950 1_655 S
H1420 C1426 0.949 . S
C1421 H1416 0.950 1_655 S
C1421 C1423 1.327 . S
C1421 C1427 1.429 . S
C1422 C1414 1.574 1_565 S
C1422 H1417 0.949 . S
C1422 C1428 1.368 . S
C1423 C1407 1.349 . S
C1423 H1415 0.950 . S
C1423 C1421 1.327 . S
C1424 C1412 1.349 . S
C1424 H1418 0.950 . S
C1424 C1425 1.327 . S
C1425 H1419 0.950 1_455 S
C1425 C1424 1.327 . S
C1425 C1429 1.429 . S
C1426 C1409 1.574 1_545 S
C1426 H1420 0.949 . S
C1426 C1430 1.368 . S
C1427 C1408 1.429 . S
C1427 C1421 1.429 . S
C1427 C1428 1.523 . S
C1428 C1409 1.368 1_655 S
C1428 C1422 1.368 . S
C1428 C1427 1.523 . S
C1429 C1413 1.429 . S
C1429 C1425 1.429 . S
C1429 C1430 1.523 . S
C1430 C1414 1.368 1_455 S
C1430 C1426 1.368 . S
C1430 C1429 1.523 . S
H1431 C1406 0.950 . S
H1432 C1408 0.950 . S
H1433 C1409 0.949 . S
H1434 C1411 0.950 . S
H1435 C1413 0.950 . S
C1436 C1437 1.349 . S
C1436 C1438 1.327 . S
C1436 H1461 0.950 . S
C1437 C1436 1.349 . S
C1437 C1453 1.349 . S
C1438 C1436 1.327 . S
C1438 C1457 1.429 . S
C1438 H1462 0.950 . S
C1439 C1456 1.574 . S
C1439 C1458 1.368 . S
C1439 H1463 0.949 . S
H1440 C1444 0.949 . S
C1441 C1442 1.349 . S
C1441 C1443 1.327 . S
C1441 H1464 0.950 . S
C1442 C1441 1.349 . S
C1442 C1454 1.349 . S
C1443 C1441 1.327 . S
C1443 C1459 1.429 . S
C1443 H1465 0.950 . S
C1444 H1440 0.949 . S
C1444 C1452 1.574 . S
C1444 C1460 1.368 . S
H1445 C1453 0.950 . S
H1446 C1451 0.950 . S
H1447 C1452 0.949 . S
H1448 C1454 0.950 . S
H1449 C1455 0.950 . S
H1450 C1456 0.949 . S
C1451 H1446 0.950 . S
C1451 C1453 1.327 . S
C1451 C1457 1.429 . S
C1452 C1444 1.574 . S
C1452 H1447 0.949 . S
C1452 C1458 1.368 . S
C1453 C1437 1.349 . S
C1453 H1445 0.950 . S
C1453 C1451 1.327 . S
C1454 C1442 1.349 . S
C1454 H1448 0.950 . S
C1454 C1455 1.327 . S
C1455 H1449 0.950 . S
C1455 C1454 1.327 . S
C1455 C1459 1.429 . S
C1456 C1439 1.574 . S
C1456 H1450 0.949 . S
C1456 C1460 1.368 . S
C1457 C1438 1.429 . S
C1457 C1451 1.429 . S
C1457 C1458 1.523 . S
C1458 C1439 1.368 . S
C1458 C1452 1.368 . S
C1458 C1457 1.523 . S
C1459 C1443 1.429 . S
C1459 C1455 1.429 . S
C1459 C1460 1.523 . S
C1460 C1444 1.368 . S
C1460 C1456 1.368 . S
C1460 C1459 1.523 . S
H1461 C1436 0.950 . S
H1462 C1438 0.950 . S
H1463 C1439 0.949 . S
H1464 C1441 0.950 . S
H1465 C1443 0.950 . S
C1466 C1467 1.338 1_556 S
C1466 C1468 1.330 . S
C1466 H1491 0.958 . S
C1467 C1466 1.338 1_554 S
C1467 C1483 1.349 . S
C1468 C1466 1.330 . S
C1468 C1487 1.429 1_556 S
C1468 H1492 0.950 . S
C1469 C1486 1.574 1_545 S
C1469 C1488 1.368 . S
C1469 H1493 0.949 . S
H1470 C1474 0.949 . S
C1471 C1472 1.338 1_554 S
C1471 C1473 1.330 . S
C1471 H1494 0.958 . S
C1472 C1471 1.338 1_556 S
C1472 C1484 1.349 . S
C1473 C1471 1.330 . S
C1473 C1489 1.429 1_554 S
C1473 H1495 0.950 . S
C1474 H1470 0.949 . S
C1474 C1482 1.574 1_565 S
C1474 C1490 1.368 . S
H1475 C1483 0.950 . S
H1476 C1481 0.950 . S
H1477 C1482 0.949 . S
H1478 C1484 0.950 . S
H1479 C1485 0.950 . S
H1480 C1486 0.949 . S
C1481 H1476 0.950 . S
C1481 C1483 1.327 . S
C1481 C1487 1.429 . S
C1482 C1474 1.574 1_545 S
C1482 H1477 0.949 . S
C1482 C1488 1.368 1_556 S
C1483 C1467 1.349 . S
C1483 H1475 0.950 . S
C1483 C1481 1.327 . S
C1484 C1472 1.349 . S
C1484 H1478 0.950 . S
C1484 C1485 1.327 . S
C1485 H1479 0.950 . S
C1485 C1484 1.327 . S
C1485 C1489 1.429 . S
C1486 C1469 1.574 1_565 S
C1486 H1480 0.949 . S
C1486 C1490 1.368 1_554 S
C1487 C1468 1.429 1_554 S
C1487 C1481 1.429 . S
C1487 C1488 1.523 . S
C1488 C1469 1.368 . S
C1488 C1482 1.368 1_554 S
C1488 C1487 1.523 . S
C1489 C1473 1.429 1_556 S
C1489 C1485 1.429 . S
C1489 C1490 1.523 . S
C1490 C1474 1.368 . S
C1490 C1486 1.368 1_556 S
C1490 C1489 1.523 . S
H1491 C1466 0.958 . S
H1492 C1468 0.950 . S
H1493 C1469 0.949 . S
H1494 C1471 0.958 . S
H1495 C1473 0.950 . S
C1496 C1497 1.349 . S
C1496 C1498 1.327 . S
C1496 H1521 0.950 . S
C1497 C1496 1.349 . S
C1497 C1513 1.349 . S
C1498 C1496 1.327 . S
C1498 C1517 1.429 . S
C1498 H1522 0.950 . S
C1499 C1516 1.574 . S
C1499 C1518 1.368 . S
C1499 H1523 0.949 . S
H1500 C1504 0.949 . S
C1501 C1502 1.349 . S
C1501 C1503 1.327 . S
C1501 H1524 0.950 . S
C1502 C1501 1.349 . S
C1502 C1514 1.349 . S
C1503 C1501 1.327 . S
C1503 C1519 1.429 . S
C1503 H1525 0.950 . S
C1504 H1500 0.949 . S
C1504 C1512 1.574 . S
C1504 C1520 1.368 . S
H1505 C1513 0.950 . S
H1506 C1511 0.950 . S
H1507 C1512 0.949 . S
H1508 C1514 0.950 . S
H1509 C1515 0.950 . S
H1510 C1516 0.949 . S
C1511 H1506 0.950 . S
C1511 C1513 1.327 . S
C1511 C1517 1.429 . S
C1512 C1504 1.574 . S
C1512 H1507 0.949 . S
C1512 C1518 1.368 . S
C1513 C1497 1.349 . S
C1513 H1505 0.950 . S
C1513 C1511 1.327 . S
C1514 C1502 1.349 . S
C1514 H1508 0.950 . S
C1514 C1515 1.327 . S
C1515 H1509 0.950 . S
C1515 C1514 1.327 . S
C1515 C1519 1.429 . S
C1516 C1499 1.574 . S
C1516 H1510 0.949 . S
C1516 C1520 1.368 . S
C1517 C1498 1.429 . S
C1517 C1511 1.429 . S
C1517 C1518 1.523 . S
C1518 C1499 1.368 . S
C1518 C1512 1.368 . S
C1518 C1517 1.523 . S
C1519 C1503 1.429 . S
C1519 C1515 1.429 . S
C1519 C1520 1.523 . S
C1520 C1504 1.368 . S
C1520 C1516 1.368 . S
C1520 C1519 1.523 . S
H1521 C1496 0.950 . S
H1522 C1498 0.950 . S
H1523 C1499 0.949 . S
H1524 C1501 0.950 . S
H1525 C1503 0.950 . S
C1526 C1527 1.349 . S
C1526 C1528 1.327 . S
C1526 H1551 0.950 . S
C1527 C1526 1.349 . S
C1527 C1543 1.349 . S
C1528 C1526 1.327 . S
C1528 C1547 1.429 . S
C1528 H1552 0.950 . S
C1529 C1546 1.574 1_565 S
C1529 C1548 1.368 . S
C1529 H1553 0.949 . S
H1530 C1534 0.949 . S
C1531 C1532 1.349 . S
C1531 C1533 1.327 . S
C1531 H1554 0.950 . S
C1532 C1531 1.349 . S
C1532 C1544 1.349 . S
C1533 C1531 1.327 . S
C1533 C1549 1.429 . S
C1533 H1555 0.950 . S
C1534 H1530 0.949 . S
C1534 C1542 1.574 1_545 S
C1534 C1550 1.368 . S
H1535 C1543 0.950 . S
H1536 C1541 0.950 . S
H1537 C1542 0.949 . S
H1538 C1544 0.950 . S
H1539 C1545 0.950 . S
H1540 C1546 0.949 . S
C1541 H1536 0.950 . S
C1541 C1543 1.327 . S
C1541 C1547 1.429 . S
C1542 C1534 1.574 1_565 S
C1542 H1537 0.949 . S
C1542 C1548 1.368 . S
C1543 C1527 1.349 . S
C1543 H1535 0.950 . S
C1543 C1541 1.327 . S
C1544 C1532 1.349 . S
C1544 H1538 0.950 . S
C1544 C1545 1.327 . S
C1545 H1539 0.950 . S
C1545 C1544 1.327 . S
C1545 C1549 1.429 . S
C1546 C1529 1.574 1_545 S
C1546 H1540 0.949 . S
C1546 C1550 1.368 . S
C1547 C1528 1.429 . S
C1547 C1541 1.429 . S
C1547 C1548 1.523 . S
C1548 C1529 1.368 . S
C1548 C1542 1.368 . S
C1548 C1547 1.523 . S
C1549 C1533 1.429 . S
C1549 C1545 1.429 . S
C1549 C1550 1.523 . S
C1550 C1534 1.368 . S
C1550 C1546 1.368 . S
C1550 C1549 1.523 . S
H1551 C1526 0.950 . S
H1552 C1528 0.950 . S
H1553 C1529 0.949 . S
H1554 C1531 0.950 . S
H1555 C1533 0.950 . S
C1556 C1557 1.349 . S
C1556 C1558 1.327 . S
C1556 H1581 0.950 . S
C1557 C1556 1.349 . S
C1557 C1573 1.349 . S
C1558 C1556 1.327 . S
C1558 C1577 1.429 . S
C1558 H1582 0.950 . S
C1559 C1576 1.574 . S
C1559 C1578 1.368 . S
C1559 H1583 0.949 . S
H1560 C1564 0.949 . S
C1561 C1562 1.349 . S
C1561 C1563 1.327 . S
C1561 H1584 0.950 . S
C1562 C1561 1.349 . S
C1562 C1574 1.349 . S
C1563 C1561 1.327 . S
C1563 C1579 1.429 . S
C1563 H1585 0.950 . S
C1564 H1560 0.949 . S
C1564 C1572 1.574 . S
C1564 C1580 1.368 . S
H1565 C1573 0.950 . S
H1566 C1571 0.950 . S
H1567 C1572 0.949 . S
H1568 C1574 0.950 . S
H1569 C1575 0.950 . S
H1570 C1576 0.949 . S
C1571 H1566 0.950 . S
C1571 C1573 1.327 . S
C1571 C1577 1.429 . S
C1572 C1564 1.574 . S
C1572 H1567 0.949 . S
C1572 C1578 1.368 . S
C1573 C1557 1.349 . S
C1573 H1565 0.950 . S
C1573 C1571 1.327 . S
C1574 C1562 1.349 . S
C1574 H1568 0.950 . S
C1574 C1575 1.327 . S
C1575 H1569 0.950 . S
C1575 C1574 1.327 . S
C1575 C1579 1.429 . S
C1576 C1559 1.574 . S
C1576 H1570 0.949 . S
C1576 C1580 1.368 . S
C1577 C1558 1.429 . S
C1577 C1571 1.429 . S
C1577 C1578 1.523 . S
C1578 C1559 1.368 . S
C1578 C1572 1.368 . S
C1578 C1577 1.523 . S
C1579 C1563 1.429 . S
C1579 C1575 1.429 . S
C1579 C1580 1.523 . S
C1580 C1564 1.368 . S
C1580 C1576 1.368 . S
C1580 C1579 1.523 . S
H1581 C1556 0.950 . S
H1582 C1558 0.950 . S
H1583 C1559 0.949 . S
H1584 C1561 0.950 . S
H1585 C1563 0.950 . S
C1586 C1587 1.349 . S
C1586 C1588 1.327 . S
C1586 H1611 0.950 . S
C1587 C1586 1.349 . S
C1587 C1603 1.349 . S
C1588 C1586 1.327 . S
C1588 C1607 1.429 . S
C1588 H1612 0.950 . S
C1589 C1606 1.574 1_546 S
C1589 C1608 1.368 1_455 S
C1589 H1613 0.949 . S
H1590 C1594 0.949 . S
C1591 C1592 1.349 . S
C1591 C1593 1.327 . S
C1591 H1614 0.950 . S
C1592 C1591 1.349 . S
C1592 C1604 1.349 . S
C1593 C1591 1.327 . S
C1593 C1609 1.429 . S
C1593 H1615 0.950 . S
C1594 H1590 0.949 . S
C1594 C1602 1.574 1_564 S
C1594 C1610 1.368 1_655 S
H1595 C1603 0.950 1_455 S
H1596 C1601 0.954 . S
H1597 C1602 0.949 . S
H1598 C1604 0.950 1_655 S
H1599 C1605 0.954 . S
H1600 C1606 0.949 . S
C1601 H1596 0.954 . S
C1601 C1603 1.326 1_455 S
C1601 C1607 1.426 1_455 S
C1602 C1594 1.574 1_546 S
C1602 H1597 0.949 . S
C1602 C1608 1.368 . S
C1603 C1587 1.349 . S
C1603 H1595 0.950 1_655 S
C1603 C1601 1.326 1_655 S
C1604 C1592 1.349 . S
C1604 H1598 0.950 1_455 S
C1604 C1605 1.326 1_455 S
C1605 H1599 0.954 . S
C1605 C1604 1.326 1_655 S
C1605 C1609 1.426 1_655 S
C1606 C1589 1.574 1_564 S
C1606 H1600 0.949 . S
C1606 C1610 1.368 . S
C1607 C1588 1.429 . S
C1607 C1601 1.426 1_655 S
C1607 C1608 1.523 . S
C1608 C1589 1.368 1_655 S
C1608 C1602 1.368 . S
C1608 C1607 1.523 . S
C1609 C1593 1.429 . S
C1609 C1605 1.426 1_455 S
C1609 C1610 1.523 . S
C1610 C1594 1.368 1_455 S
C1610 C1606 1.368 . S
C1610 C1609 1.523 . S
H1611 C1586 0.950 . S
H1612 C1588 0.950 . S
H1613 C1589 0.949 . S
H1614 C1591 0.950 . S
H1615 C1593 0.950 . S
C1616 C1617 1.349 . S
C1616 C1618 1.327 . S
C1616 H1641 0.950 . S
C1617 C1616 1.349 . S
C1617 C1633 1.349 . S
C1618 C1616 1.327 . S
C1618 C1637 1.429 . S
C1618 H1642 0.950 . S
C1619 C1636 1.574 . S
C1619 C1638 1.368 . S
C1619 H1643 0.949 . S
H1620 C1624 0.949 . S
C1621 C1622 1.349 . S
C1621 C1623 1.327 . S
C1621 H1644 0.950 . S
C1622 C1621 1.349 . S
C1622 C1634 1.349 . S
C1623 C1621 1.327 . S
C1623 C1639 1.429 . S
C1623 H1645 0.950 . S
C1624 H1620 0.949 . S
C1624 C1632 1.574 . S
C1624 C1640 1.368 . S
H1625 C1633 0.950 . S
H1626 C1631 0.950 . S
H1627 C1632 0.949 . S
H1628 C1634 0.950 . S
H1629 C1635 0.950 . S
H1630 C1636 0.949 . S
C1631 H1626 0.950 . S
C1631 C1633 1.327 . S
C1631 C1637 1.429 . S
C1632 C1624 1.574 . S
C1632 H1627 0.949 . S
C1632 C1638 1.368 . S
C1633 C1617 1.349 . S
C1633 H1625 0.950 . S
C1633 C1631 1.327 . S
C1634 C1622 1.349 . S
C1634 H1628 0.950 . S
C1634 C1635 1.327 . S
C1635 H1629 0.950 . S
C1635 C1634 1.327 . S
C1635 C1639 1.429 . S
C1636 C1619 1.574 . S
C1636 H1630 0.949 . S
C1636 C1640 1.368 . S
C1637 C1618 1.429 . S
C1637 C1631 1.429 . S
C1637 C1638 1.523 . S
C1638 C1619 1.368 . S
C1638 C1632 1.368 . S
C1638 C1637 1.523 . S
C1639 C1623 1.429 . S
C1639 C1635 1.429 . S
C1639 C1640 1.523 . S
C1640 C1624 1.368 . S
C1640 C1636 1.368 . S
C1640 C1639 1.523 . S
H1641 C1616 0.950 . S
H1642 C1618 0.950 . S
H1643 C1619 0.949 . S
H1644 C1621 0.950 . S
H1645 C1623 0.950 . S
C1646 C1647 1.349 . S
C1646 C1648 1.327 . S
C1646 H1671 0.950 . S
C1647 C1646 1.349 . S
C1647 C1663 1.349 . S
C1648 C1646 1.327 . S
C1648 C1667 1.429 . S
C1648 H1672 0.950 . S
C1649 C1666 1.574 . S
C1649 C1668 1.368 . S
C1649 H1673 0.949 . S
H1650 C1654 0.949 . S
C1651 C1652 1.349 . S
C1651 C1653 1.327 . S
C1651 H1674 0.950 . S
C1652 C1651 1.349 . S
C1652 C1664 1.349 . S
C1653 C1651 1.327 . S
C1653 C1669 1.429 . S
C1653 H1675 0.950 . S
C1654 H1650 0.949 . S
C1654 C1662 1.574 . S
C1654 C1670 1.368 . S
H1655 C1663 0.950 . S
H1656 C1661 0.950 . S
H1657 C1662 0.949 . S
H1658 C1664 0.950 . S
H1659 C1665 0.950 . S
H1660 C1666 0.949 . S
C1661 H1656 0.950 . S
C1661 C1663 1.327 . S
C1661 C1667 1.429 . S
C1662 C1654 1.574 . S
C1662 H1657 0.949 . S
C1662 C1668 1.368 . S
C1663 C1647 1.349 . S
C1663 H1655 0.950 . S
C1663 C1661 1.327 . S
C1664 C1652 1.349 . S
C1664 H1658 0.950 . S
C1664 C1665 1.327 . S
C1665 H1659 0.950 . S
C1665 C1664 1.327 . S
C1665 C1669 1.429 . S
C1666 C1649 1.574 . S
C1666 H1660 0.949 . S
C1666 C1670 1.368 . S
C1667 C1648 1.429 . S
C1667 C1661 1.429 . S
C1667 C1668 1.523 . S
C1668 C1649 1.368 . S
C1668 C1662 1.368 . S
C1668 C1667 1.523 . S
C1669 C1653 1.429 . S
C1669 C1665 1.429 . S
C1669 C1670 1.523 . S
C1670 C1654 1.368 . S
C1670 C1666 1.368 . S
C1670 C1669 1.523 . S
H1671 C1646 0.950 . S
H1672 C1648 0.950 . S
H1673 C1649 0.949 . S
H1674 C1651 0.950 . S
H1675 C1653 0.950 . S
C1676 C1677 1.349 . S
C1676 C1678 1.327 . S
C1676 H1701 0.950 . S
C1677 C1676 1.349 . S
C1677 C1693 1.349 . S
C1678 C1676 1.327 . S
C1678 C1697 1.429 . S
C1678 H1702 0.950 . S
C1679 C1696 1.574 . S
C1679 C1698 1.368 . S
C1679 H1703 0.949 . S
H1680 C1684 0.949 . S
C1681 C1682 1.349 . S
C1681 C1683 1.327 . S
C1681 H1704 0.950 . S
C1682 C1681 1.349 . S
C1682 C1694 1.349 . S
C1683 C1681 1.327 . S
C1683 C1699 1.429 . S
C1683 H1705 0.950 . S
C1684 H1680 0.949 . S
C1684 C1692 1.574 . S
C1684 C1700 1.368 . S
H1685 C1693 0.950 . S
H1686 C1691 0.950 . S
H1687 C1692 0.949 . S
H1688 C1694 0.950 . S
H1689 C1695 0.950 . S
H1690 C1696 0.949 . S
C1691 H1686 0.950 . S
C1691 C1693 1.327 . S
C1691 C1697 1.429 . S
C1692 C1684 1.574 . S
C1692 H1687 0.949 . S
C1692 C1698 1.368 . S
C1693 C1677 1.349 . S
C1693 H1685 0.950 . S
C1693 C1691 1.327 . S
C1694 C1682 1.349 . S
C1694 H1688 0.950 . S
C1694 C1695 1.327 . S
C1695 H1689 0.950 . S
C1695 C1694 1.327 . S
C1695 C1699 1.429 . S
C1696 C1679 1.574 . S
C1696 H1690 0.949 . S
C1696 C1700 1.368 . S
C1697 C1678 1.429 . S
C1697 C1691 1.429 . S
C1697 C1698 1.523 . S
C1698 C1679 1.368 . S
C1698 C1692 1.368 . S
C1698 C1697 1.523 . S
C1699 C1683 1.429 . S
C1699 C1695 1.429 . S
C1699 C1700 1.523 . S
C1700 C1684 1.368 . S
C1700 C1696 1.368 . S
C1700 C1699 1.523 . S
H1701 C1676 0.950 . S
H1702 C1678 0.950 . S
H1703 C1679 0.949 . S
H1704 C1681 0.950 . S
H1705 C1683 0.950 . S
C1706 C1707 1.349 . S
C1706 C1708 1.327 . S
C1706 H1731 0.950 . S
C1707 C1706 1.349 . S
C1707 C1723 1.349 . S
C1708 C1706 1.327 . S
C1708 C1727 1.429 . S
C1708 H1732 0.950 . S
C1709 C1726 1.574 . S
C1709 C1728 1.368 . S
C1709 H1733 0.949 . S
H1710 C1714 0.949 . S
C1711 C1712 1.349 . S
C1711 C1713 1.327 . S
C1711 H1734 0.950 . S
C1712 C1711 1.349 . S
C1712 C1724 1.349 . S
C1713 C1711 1.327 . S
C1713 C1729 1.429 . S
C1713 H1735 0.950 . S
C1714 H1710 0.949 . S
C1714 C1722 1.574 . S
C1714 C1730 1.368 . S
H1715 C1723 0.950 . S
H1716 C1721 0.950 . S
H1717 C1722 0.949 . S
H1718 C1724 0.950 . S
H1719 C1725 0.950 . S
H1720 C1726 0.949 . S
C1721 H1716 0.950 . S
C1721 C1723 1.327 . S
C1721 C1727 1.429 . S
C1722 C1714 1.574 . S
C1722 H1717 0.949 . S
C1722 C1728 1.368 . S
C1723 C1707 1.349 . S
C1723 H1715 0.950 . S
C1723 C1721 1.327 . S
C1724 C1712 1.349 . S
C1724 H1718 0.950 . S
C1724 C1725 1.327 . S
C1725 H1719 0.950 . S
C1725 C1724 1.327 . S
C1725 C1729 1.429 . S
C1726 C1709 1.574 . S
C1726 H1720 0.949 . S
C1726 C1730 1.368 . S
C1727 C1708 1.429 . S
C1727 C1721 1.429 . S
C1727 C1728 1.523 . S
C1728 C1709 1.368 . S
C1728 C1722 1.368 . S
C1728 C1727 1.523 . S
C1729 C1713 1.429 . S
C1729 C1725 1.429 . S
C1729 C1730 1.523 . S
C1730 C1714 1.368 . S
C1730 C1726 1.368 . S
C1730 C1729 1.523 . S
H1731 C1706 0.950 . S
H1732 C1708 0.950 . S
H1733 C1709 0.949 . S
H1734 C1711 0.950 . S
H1735 C1713 0.950 . S
C1736 C1737 1.349 . S
C1736 C1738 1.327 . S
C1736 H1761 0.950 . S
C1737 C1736 1.349 . S
C1737 C1753 1.349 . S
C1738 C1736 1.327 . S
C1738 C1757 1.429 . S
C1738 H1762 0.950 . S
C1739 C1756 1.574 . S
C1739 C1758 1.368 1_556 S
C1739 H1763 0.949 . S
H1740 C1744 0.949 . S
C1741 C1742 1.349 . S
C1741 C1743 1.327 . S
C1741 H1764 0.950 . S
C1742 C1741 1.349 . S
C1742 C1754 1.349 . S
C1743 C1741 1.327 . S
C1743 C1759 1.429 . S
C1743 H1765 0.950 . S
C1744 H1740 0.949 . S
C1744 C1752 1.574 . S
C1744 C1760 1.368 1_554 S
H1745 C1753 0.950 1_556 S
H1746 C1751 0.950 . S
H1747 C1752 0.949 . S
H1748 C1754 0.950 1_554 S
H1749 C1755 0.950 . S
H1750 C1756 0.949 . S
C1751 H1746 0.950 . S
C1751 C1753 1.327 1_556 S
C1751 C1757 1.429 1_556 S
C1752 C1744 1.574 . S
C1752 H1747 0.949 . S
C1752 C1758 1.368 . S
C1753 C1737 1.349 . S
C1753 H1745 0.950 1_554 S
C1753 C1751 1.327 1_554 S
C1754 C1742 1.349 . S
C1754 H1748 0.950 1_556 S
C1754 C1755 1.327 1_556 S
C1755 H1749 0.950 . S
C1755 C1754 1.327 1_554 S
C1755 C1759 1.429 1_554 S
C1756 C1739 1.574 . S
C1756 H1750 0.949 . S
C1756 C1760 1.368 . S
C1757 C1738 1.429 . S
C1757 C1751 1.429 1_554 S
C1757 C1758 1.523 . S
C1758 C1739 1.368 1_554 S
C1758 C1752 1.368 . S
C1758 C1757 1.523 . S
C1759 C1743 1.429 . S
C1759 C1755 1.429 1_556 S
C1759 C1760 1.523 . S
C1760 C1744 1.368 1_556 S
C1760 C1756 1.368 . S
C1760 C1759 1.523 . S
H1761 C1736 0.950 . S
H1762 C1738 0.950 . S
H1763 C1739 0.949 . S
H1764 C1741 0.950 . S
H1765 C1743 0.950 . S
C1766 C1767 1.349 . S
C1766 C1768 1.327 . S
C1766 H1791 0.950 . S
C1767 C1766 1.349 . S
C1767 C1783 1.349 . S
C1768 C1766 1.327 . S
C1768 C1787 1.429 . S
C1768 H1792 0.950 . S
C1769 C1786 1.574 . S
C1769 C1788 1.368 1_455 S
C1769 H1793 0.949 . S
H1770 C1774 0.949 . S
C1771 C1772 1.349 . S
C1771 C1773 1.327 . S
C1771 H1794 0.950 . S
C1772 C1771 1.349 . S
C1772 C1784 1.349 . S
C1773 C1771 1.327 . S
C1773 C1789 1.429 . S
C1773 H1795 0.950 . S
C1774 H1770 0.949 . S
C1774 C1782 1.574 . S
C1774 C1790 1.368 1_655 S
H1775 C1783 0.950 . S
H1776 C1781 0.950 1_455 S
H1777 C1782 0.949 . S
H1778 C1784 0.950 . S
H1779 C1785 0.950 1_655 S
H1780 C1786 0.949 . S
C1781 H1776 0.950 1_655 S
C1781 C1783 1.327 . S
C1781 C1787 1.429 . S
C1782 C1774 1.574 . S
C1782 H1777 0.949 . S
C1782 C1788 1.368 . S
C1783 C1767 1.349 . S
C1783 H1775 0.950 . S
C1783 C1781 1.327 . S
C1784 C1772 1.349 . S
C1784 H1778 0.950 . S
C1784 C1785 1.327 . S
C1785 H1779 0.950 1_455 S
C1785 C1784 1.327 . S
C1785 C1789 1.429 . S
C1786 C1769 1.574 . S
C1786 H1780 0.949 . S
C1786 C1790 1.368 . S
C1787 C1768 1.429 . S
C1787 C1781 1.429 . S
C1787 C1788 1.523 . S
C1788 C1769 1.368 1_655 S
C1788 C1782 1.368 . S
C1788 C1787 1.523 . S
C1789 C1773 1.429 . S
C1789 C1785 1.429 . S
C1789 C1790 1.523 . S
C1790 C1774 1.368 1_455 S
C1790 C1786 1.368 . S
C1790 C1789 1.523 . S
H1791 C1766 0.950 . S
H1792 C1768 0.950 . S
H1793 C1769 0.949 . S
H1794 C1771 0.950 . S
H1795 C1773 0.950 . S
C1796 C1797 1.349 . S
C1796 C1798 1.327 . S
C1796 H1821 0.950 . S
C1797 C1796 1.349 . S
C1797 C1813 1.349 . S
C1798 C1796 1.327 . S
C1798 C1817 1.429 . S
C1798 H1822 0.950 1_455 S
C1799 C1816 1.574 . S
C1799 C1818 1.368 1_554 S
C1799 H1823 0.949 . S
H1800 C1804 0.949 . S
C1801 C1802 1.349 . S
C1801 C1803 1.327 . S
C1801 H1824 0.950 . S
C1802 C1801 1.349 . S
C1802 C1814 1.349 . S
C1803 C1801 1.327 . S
C1803 C1819 1.429 . S
C1803 H1825 0.950 1_655 S
C1804 H1800 0.949 . S
C1804 C1812 1.574 . S
C1804 C1820 1.368 1_556 S
H1805 C1813 0.950 1_554 S
H1806 C1811 0.950 . S
H1807 C1812 0.949 . S
H1808 C1814 0.950 1_556 S
H1809 C1815 0.950 . S
H1810 C1816 0.949 . S
C1811 H1806 0.950 . S
C1811 C1813 1.327 1_554 S
C1811 C1817 1.429 1_554 S
C1812 C1804 1.574 . S
C1812 H1807 0.949 . S
C1812 C1818 1.368 1_655 S
C1813 C1797 1.349 . S
C1813 H1805 0.950 1_556 S
C1813 C1811 1.327 1_556 S
C1814 C1802 1.349 . S
C1814 H1808 0.950 1_554 S
C1814 C1815 1.327 1_554 S
C1815 H1809 0.950 . S
C1815 C1814 1.327 1_556 S
C1815 C1819 1.429 1_556 S
C1816 C1799 1.574 . S
C1816 H1810 0.949 . S
C1816 C1820 1.368 1_455 S
C1817 C1798 1.429 . S
C1817 C1811 1.429 1_556 S
C1817 C1818 1.523 . S
C1818 C1799 1.368 1_556 S
C1818 C1812 1.368 1_455 S
C1818 C1817 1.523 . S
C1819 C1803 1.429 . S
C1819 C1815 1.429 1_554 S
C1819 C1820 1.523 . S
C1820 C1804 1.368 1_554 S
C1820 C1816 1.368 1_655 S
C1820 C1819 1.523 . S
H1821 C1796 0.950 . S
H1822 C1798 0.950 1_655 S
H1823 C1799 0.949 . S
H1824 C1801 0.950 . S
H1825 C1803 0.950 1_455 S
C1826 C1827 1.349 . S
C1826 C1828 1.327 . S
C1826 H1851 0.950 . S
C1827 C1826 1.349 . S
C1827 C1843 1.349 . S
C1828 C1826 1.327 . S
C1828 C1847 1.429 . S
C1828 H1852 0.950 . S
C1829 C1846 1.574 . S
C1829 C1848 1.368 . S
C1829 H1853 0.949 . S
H1830 C1834 0.949 . S
C1831 C1832 1.349 . S
C1831 C1833 1.327 . S
C1831 H1854 0.950 . S
C1832 C1831 1.349 . S
C1832 C1844 1.349 . S
C1833 C1831 1.327 . S
C1833 C1849 1.429 . S
C1833 H1855 0.950 . S
C1834 H1830 0.949 . S
C1834 C1842 1.574 . S
C1834 C1850 1.368 . S
H1835 C1843 0.950 . S
H1836 C1841 0.950 . S
H1837 C1842 0.949 . S
H1838 C1844 0.950 . S
H1839 C1845 0.950 . S
H1840 C1846 0.949 . S
C1841 H1836 0.950 . S
C1841 C1843 1.327 . S
C1841 C1847 1.429 . S
C1842 C1834 1.574 . S
C1842 H1837 0.949 . S
C1842 C1848 1.368 . S
C1843 C1827 1.349 . S
C1843 H1835 0.950 . S
C1843 C1841 1.327 . S
C1844 C1832 1.349 . S
C1844 H1838 0.950 . S
C1844 C1845 1.327 . S
C1845 H1839 0.950 . S
C1845 C1844 1.327 . S
C1845 C1849 1.429 . S
C1846 C1829 1.574 . S
C1846 H1840 0.949 . S
C1846 C1850 1.368 . S
C1847 C1828 1.429 . S
C1847 C1841 1.429 . S
C1847 C1848 1.523 . S
C1848 C1829 1.368 . S
C1848 C1842 1.368 . S
C1848 C1847 1.523 . S
C1849 C1833 1.429 . S
C1849 C1845 1.429 . S
C1849 C1850 1.523 . S
C1850 C1834 1.368 . S
C1850 C1846 1.368 . S
C1850 C1849 1.523 . S
H1851 C1826 0.950 . S
H1852 C1828 0.950 . S
H1853 C1829 0.949 . S
H1854 C1831 0.950 . S
H1855 C1833 0.950 . S
C1856 C1857 1.349 . S
C1856 C1858 1.327 . S
C1856 H1881 0.950 . S
C1857 C1856 1.349 . S
C1857 C1873 1.349 . S
C1858 C1856 1.327 . S
C1858 C1877 1.429 . S
C1858 H1882 0.950 . S
C1859 C1876 1.574 . S
C1859 C1878 1.368 . S
C1859 H1883 0.949 . S
H1860 C1864 0.949 . S
C1861 C1862 1.349 . S
C1861 C1863 1.327 . S
C1861 H1884 0.950 . S
C1862 C1861 1.349 . S
C1862 C1874 1.349 . S
C1863 C1861 1.327 . S
C1863 C1879 1.429 . S
C1863 H1885 0.950 . S
C1864 H1860 0.949 . S
C1864 C1872 1.574 . S
C1864 C1880 1.368 . S
H1865 C1873 0.950 . S
H1866 C1871 0.950 . S
H1867 C1872 0.949 . S
H1868 C1874 0.950 . S
H1869 C1875 0.950 . S
H1870 C1876 0.949 . S
C1871 H1866 0.950 . S
C1871 C1873 1.327 . S
C1871 C1877 1.429 . S
C1872 C1864 1.574 . S
C1872 H1867 0.949 . S
C1872 C1878 1.368 . S
C1873 C1857 1.349 . S
C1873 H1865 0.950 . S
C1873 C1871 1.327 . S
C1874 C1862 1.349 . S
C1874 H1868 0.950 . S
C1874 C1875 1.327 . S
C1875 H1869 0.950 . S
C1875 C1874 1.327 . S
C1875 C1879 1.429 . S
C1876 C1859 1.574 . S
C1876 H1870 0.949 . S
C1876 C1880 1.368 . S
C1877 C1858 1.429 . S
C1877 C1871 1.429 . S
C1877 C1878 1.523 . S
C1878 C1859 1.368 . S
C1878 C1872 1.368 . S
C1878 C1877 1.523 . S
C1879 C1863 1.429 . S
C1879 C1875 1.429 . S
C1879 C1880 1.523 . S
C1880 C1864 1.368 . S
C1880 C1876 1.368 . S
C1880 C1879 1.523 . S
H1881 C1856 0.950 . S
H1882 C1858 0.950 . S
H1883 C1859 0.949 . S
H1884 C1861 0.950 . S
H1885 C1863 0.950 . S
C1886 C1887 1.349 . S
C1886 C1888 1.327 . S
C1886 H1911 0.950 . S
C1887 C1886 1.349 . S
C1887 C1903 1.349 . S
C1888 C1886 1.327 . S
C1888 C1907 1.429 . S
C1888 H1912 0.950 . S
C1889 C1906 1.574 . S
C1889 C1908 1.368 . S
C1889 H1913 0.949 . S
H1890 C1894 0.949 . S
C1891 C1892 1.349 . S
C1891 C1893 1.327 . S
C1891 H1914 0.950 . S
C1892 C1891 1.349 . S
C1892 C1904 1.349 . S
C1893 C1891 1.327 . S
C1893 C1909 1.429 . S
C1893 H1915 0.950 . S
C1894 H1890 0.949 . S
C1894 C1902 1.574 . S
C1894 C1910 1.368 . S
H1895 C1903 0.950 . S
H1896 C1901 0.950 . S
H1897 C1902 0.949 . S
H1898 C1904 0.950 . S
H1899 C1905 0.950 . S
H1900 C1906 0.949 . S
C1901 H1896 0.950 . S
C1901 C1903 1.327 . S
C1901 C1907 1.429 . S
C1902 C1894 1.574 . S
C1902 H1897 0.949 . S
C1902 C1908 1.368 . S
C1903 C1887 1.349 . S
C1903 H1895 0.950 . S
C1903 C1901 1.327 . S
C1904 C1892 1.349 . S
C1904 H1898 0.950 . S
C1904 C1905 1.327 . S
C1905 H1899 0.950 . S
C1905 C1904 1.327 . S
C1905 C1909 1.429 . S
C1906 C1889 1.574 . S
C1906 H1900 0.949 . S
C1906 C1910 1.368 . S
C1907 C1888 1.429 . S
C1907 C1901 1.429 . S
C1907 C1908 1.523 . S
C1908 C1889 1.368 . S
C1908 C1902 1.368 . S
C1908 C1907 1.523 . S
C1909 C1893 1.429 . S
C1909 C1905 1.429 . S
C1909 C1910 1.523 . S
C1910 C1894 1.368 . S
C1910 C1906 1.368 . S
C1910 C1909 1.523 . S
H1911 C1886 0.950 . S
H1912 C1888 0.950 . S
H1913 C1889 0.949 . S
H1914 C1891 0.950 . S
H1915 C1893 0.950 . S
C1916 C1917 1.349 . S
C1916 C1918 1.327 . S
C1916 H1941 0.950 . S
C1917 C1916 1.349 . S
C1917 C1933 1.349 . S
C1918 C1916 1.327 . S
C1918 C1937 1.429 . S
C1918 H1942 0.950 . S
C1919 C1936 1.574 . S
C1919 C1938 1.368 . S
C1919 H1943 0.949 . S
H1920 C1924 0.949 . S
C1921 C1922 1.349 . S
C1921 C1923 1.327 . S
C1921 H1944 0.950 . S
C1922 C1921 1.349 . S
C1922 C1934 1.349 . S
C1923 C1921 1.327 . S
C1923 C1939 1.429 . S
C1923 H1945 0.950 . S
C1924 H1920 0.949 . S
C1924 C1932 1.574 . S
C1924 C1940 1.368 . S
H1925 C1933 0.950 . S
H1926 C1931 0.950 . S
H1927 C1932 0.949 . S
H1928 C1934 0.950 . S
H1929 C1935 0.950 . S
H1930 C1936 0.949 . S
C1931 H1926 0.950 . S
C1931 C1933 1.327 . S
C1931 C1937 1.429 . S
C1932 C1924 1.574 . S
C1932 H1927 0.949 . S
C1932 C1938 1.368 . S
C1933 C1917 1.349 . S
C1933 H1925 0.950 . S
C1933 C1931 1.327 . S
C1934 C1922 1.349 . S
C1934 H1928 0.950 . S
C1934 C1935 1.327 . S
C1935 H1929 0.950 . S
C1935 C1934 1.327 . S
C1935 C1939 1.429 . S
C1936 C1919 1.574 . S
C1936 H1930 0.949 . S
C1936 C1940 1.368 . S
C1937 C1918 1.429 . S
C1937 C1931 1.429 . S
C1937 C1938 1.523 . S
C1938 C1919 1.368 . S
C1938 C1932 1.368 . S
C1938 C1937 1.523 . S
C1939 C1923 1.429 . S
C1939 C1935 1.429 . S
C1939 C1940 1.523 . S
C1940 C1924 1.368 . S
C1940 C1936 1.368 . S
C1940 C1939 1.523 . S
H1941 C1916 0.950 . S
H1942 C1918 0.950 . S
H1943 C1919 0.949 . S
H1944 C1921 0.950 . S
H1945 C1923 0.950 . S
C1946 C1947 1.349 . S
C1946 C1948 1.327 . S
C1946 H1971 0.950 . S
C1947 C1946 1.349 . S
C1947 C1963 1.349 . S
C1948 C1946 1.327 . S
C1948 C1967 1.429 . S
C1948 H1972 0.950 . S
C1949 C1966 1.574 . S
C1949 C1968 1.368 . S
C1949 H1973 0.949 . S
H1950 C1954 0.949 . S
C1951 C1952 1.349 . S
C1951 C1953 1.327 . S
C1951 H1974 0.950 . S
C1952 C1951 1.349 . S
C1952 C1964 1.349 . S
C1953 C1951 1.327 . S
C1953 C1969 1.429 . S
C1953 H1975 0.950 . S
C1954 H1950 0.949 . S
C1954 C1962 1.574 . S
C1954 C1970 1.368 . S
H1955 C1963 0.950 . S
H1956 C1961 0.950 . S
H1957 C1962 0.949 . S
H1958 C1964 0.950 . S
H1959 C1965 0.950 . S
H1960 C1966 0.949 . S
C1961 H1956 0.950 . S
C1961 C1963 1.327 . S
C1961 C1967 1.429 . S
C1962 C1954 1.574 . S
C1962 H1957 0.949 . S
C1962 C1968 1.368 . S
C1963 C1947 1.349 . S
C1963 H1955 0.950 . S
C1963 C1961 1.327 . S
C1964 C1952 1.349 . S
C1964 H1958 0.950 . S
C1964 C1965 1.327 . S
C1965 H1959 0.950 . S
C1965 C1964 1.327 . S
C1965 C1969 1.429 . S
C1966 C1949 1.574 . S
C1966 H1960 0.949 . S
C1966 C1970 1.368 . S
C1967 C1948 1.429 . S
C1967 C1961 1.429 . S
C1967 C1968 1.523 . S
C1968 C1949 1.368 . S
C1968 C1962 1.368 . S
C1968 C1967 1.523 . S
C1969 C1953 1.429 . S
C1969 C1965 1.429 . S
C1969 C1970 1.523 . S
C1970 C1954 1.368 . S
C1970 C1966 1.368 . S
C1970 C1969 1.523 . S
H1971 C1946 0.950 . S
H1972 C1948 0.950 . S
H1973 C1949 0.949 . S
H1974 C1951 0.950 . S
H1975 C1953 0.950 . S
C1976 C1977 1.349 . S
C1976 C1978 1.327 . S
C1976 H2001 0.950 . S
C1977 C1976 1.349 . S
C1977 C1993 1.349 . S
C1978 C1976 1.327 . S
C1978 C1997 1.429 . S
C1978 H2002 0.950 . S
C1979 C1996 1.574 . S
C1979 C1998 1.368 . S
C1979 H2003 0.949 . S
H1980 C1984 0.949 . S
C1981 C1982 1.349 . S
C1981 C1983 1.327 . S
C1981 H2004 0.950 . S
C1982 C1981 1.349 . S
C1982 C1994 1.349 . S
C1983 C1981 1.327 . S
C1983 C1999 1.429 . S
C1983 H2005 0.950 . S
C1984 H1980 0.949 . S
C1984 C1992 1.574 . S
C1984 C2000 1.368 . S
H1985 C1993 0.950 . S
H1986 C1991 0.950 . S
H1987 C1992 0.949 . S
H1988 C1994 0.950 . S
H1989 C1995 0.950 . S
H1990 C1996 0.949 . S
C1991 H1986 0.950 . S
C1991 C1993 1.327 . S
C1991 C1997 1.429 . S
C1992 C1984 1.574 . S
C1992 H1987 0.949 . S
C1992 C1998 1.368 . S
C1993 C1977 1.349 . S
C1993 H1985 0.950 . S
C1993 C1991 1.327 . S
C1994 C1982 1.349 . S
C1994 H1988 0.950 . S
C1994 C1995 1.327 . S
C1995 H1989 0.950 . S
C1995 C1994 1.327 . S
C1995 C1999 1.429 . S
C1996 C1979 1.574 . S
C1996 H1990 0.949 . S
C1996 C2000 1.368 . S
C1997 C1978 1.429 . S
C1997 C1991 1.429 . S
C1997 C1998 1.523 . S
C1998 C1979 1.368 . S
C1998 C1992 1.368 . S
C1998 C1997 1.523 . S
C1999 C1983 1.429 . S
C1999 C1995 1.429 . S
C1999 C2000 1.523 . S
C2000 C1984 1.368 . S
C2000 C1996 1.368 . S
C2000 C1999 1.523 . S
H2001 C1976 0.950 . S
H2002 C1978 0.950 . S
H2003 C1979 0.949 . S
H2004 C1981 0.950 . S
H2005 C1983 0.950 . S
C2006 C2007 1.349 . S
C2006 C2008 1.327 . S
C2006 H2031 0.950 . S
C2007 C2006 1.349 . S
C2007 C2023 1.349 . S
C2008 C2006 1.327 . S
C2008 C2027 1.429 . S
C2008 H2032 0.950 . S
C2009 C2026 1.574 . S
C2009 C2028 1.368 . S
C2009 H2033 0.949 . S
H2010 C2014 0.949 . S
C2011 C2012 1.349 . S
C2011 C2013 1.327 . S
C2011 H2034 0.950 . S
C2012 C2011 1.349 . S
C2012 C2024 1.349 . S
C2013 C2011 1.327 . S
C2013 C2029 1.429 . S
C2013 H2035 0.950 . S
C2014 H2010 0.949 . S
C2014 C2022 1.574 . S
C2014 C2030 1.368 . S
H2015 C2023 0.950 . S
H2016 C2021 0.950 . S
H2017 C2022 0.949 . S
H2018 C2024 0.950 . S
H2019 C2025 0.950 . S
H2020 C2026 0.949 . S
C2021 H2016 0.950 . S
C2021 C2023 1.327 . S
C2021 C2027 1.429 . S
C2022 C2014 1.574 . S
C2022 H2017 0.949 . S
C2022 C2028 1.368 . S
C2023 C2007 1.349 . S
C2023 H2015 0.950 . S
C2023 C2021 1.327 . S
C2024 C2012 1.349 . S
C2024 H2018 0.950 . S
C2024 C2025 1.327 . S
C2025 H2019 0.950 . S
C2025 C2024 1.327 . S
C2025 C2029 1.429 . S
C2026 C2009 1.574 . S
C2026 H2020 0.949 . S
C2026 C2030 1.368 . S
C2027 C2008 1.429 . S
C2027 C2021 1.429 . S
C2027 C2028 1.523 . S
C2028 C2009 1.368 . S
C2028 C2022 1.368 . S
C2028 C2027 1.523 . S
C2029 C2013 1.429 . S
C2029 C2025 1.429 . S
C2029 C2030 1.523 . S
C2030 C2014 1.368 . S
C2030 C2026 1.368 . S
C2030 C2029 1.523 . S
H2031 C2006 0.950 . S
H2032 C2008 0.950 . S
H2033 C2009 0.949 . S
H2034 C2011 0.950 . S
H2035 C2013 0.950 . S
C2036 C2037 1.349 . S
C2036 C2038 1.327 . S
C2036 H2061 0.950 . S
C2037 C2036 1.349 . S
C2037 C2053 1.349 . S
C2038 C2036 1.327 . S
C2038 C2057 1.429 . S
C2038 H2062 0.950 . S
C2039 C2056 1.574 . S
C2039 C2058 1.368 . S
C2039 H2063 0.949 . S
H2040 C2044 0.949 . S
C2041 C2042 1.349 . S
C2041 C2043 1.327 . S
C2041 H2064 0.950 . S
C2042 C2041 1.349 . S
C2042 C2054 1.349 . S
C2043 C2041 1.327 . S
C2043 C2059 1.429 . S
C2043 H2065 0.950 . S
C2044 H2040 0.949 . S
C2044 C2052 1.574 . S
C2044 C2060 1.368 . S
H2045 C2053 0.950 . S
H2046 C2051 0.950 . S
H2047 C2052 0.949 . S
H2048 C2054 0.950 . S
H2049 C2055 0.950 . S
H2050 C2056 0.949 . S
C2051 H2046 0.950 . S
C2051 C2053 1.327 . S
C2051 C2057 1.429 . S
C2052 C2044 1.574 . S
C2052 H2047 0.949 . S
C2052 C2058 1.368 . S
C2053 C2037 1.349 . S
C2053 H2045 0.950 . S
C2053 C2051 1.327 . S
C2054 C2042 1.349 . S
C2054 H2048 0.950 . S
C2054 C2055 1.327 . S
C2055 H2049 0.950 . S
C2055 C2054 1.327 . S
C2055 C2059 1.429 . S
C2056 C2039 1.574 . S
C2056 H2050 0.949 . S
C2056 C2060 1.368 . S
C2057 C2038 1.429 . S
C2057 C2051 1.429 . S
C2057 C2058 1.523 . S
C2058 C2039 1.368 . S
C2058 C2052 1.368 . S
C2058 C2057 1.523 . S
C2059 C2043 1.429 . S
C2059 C2055 1.429 . S
C2059 C2060 1.523 . S
C2060 C2044 1.368 . S
C2060 C2056 1.368 . S
C2060 C2059 1.523 . S
H2061 C2036 0.950 . S
H2062 C2038 0.950 . S
H2063 C2039 0.949 . S
H2064 C2041 0.950 . S
H2065 C2043 0.950 . S
C2066 C2067 1.349 . S
C2066 C2068 1.327 . S
C2066 H2091 0.950 . S
C2067 C2066 1.349 . S
C2067 C2083 1.349 . S
C2068 C2066 1.327 . S
C2068 C2087 1.429 . S
C2068 H2092 0.950 . S
C2069 C2086 1.574 . S
C2069 C2088 1.368 . S
C2069 H2093 0.949 . S
H2070 C2074 0.949 . S
C2071 C2072 1.349 . S
C2071 C2073 1.327 . S
C2071 H2094 0.950 . S
C2072 C2071 1.349 . S
C2072 C2084 1.349 . S
C2073 C2071 1.327 . S
C2073 C2089 1.429 . S
C2073 H2095 0.950 . S
C2074 H2070 0.949 . S
C2074 C2082 1.574 . S
C2074 C2090 1.368 . S
H2075 C2083 0.950 . S
H2076 C2081 0.950 . S
H2077 C2082 0.949 . S
H2078 C2084 0.950 . S
H2079 C2085 0.950 . S
H2080 C2086 0.949 . S
C2081 H2076 0.950 . S
C2081 C2083 1.327 . S
C2081 C2087 1.429 . S
C2082 C2074 1.574 . S
C2082 H2077 0.949 . S
C2082 C2088 1.368 . S
C2083 C2067 1.349 . S
C2083 H2075 0.950 . S
C2083 C2081 1.327 . S
C2084 C2072 1.349 . S
C2084 H2078 0.950 . S
C2084 C2085 1.327 . S
C2085 H2079 0.950 . S
C2085 C2084 1.327 . S
C2085 C2089 1.429 . S
C2086 C2069 1.574 . S
C2086 H2080 0.949 . S
C2086 C2090 1.368 . S
C2087 C2068 1.429 . S
C2087 C2081 1.429 . S
C2087 C2088 1.523 . S
C2088 C2069 1.368 . S
C2088 C2082 1.368 . S
C2088 C2087 1.523 . S
C2089 C2073 1.429 . S
C2089 C2085 1.429 . S
C2089 C2090 1.523 . S
C2090 C2074 1.368 . S
C2090 C2086 1.368 . S
C2090 C2089 1.523 . S
H2091 C2066 0.950 . S
H2092 C2068 0.950 . S
H2093 C2069 0.949 . S
H2094 C2071 0.950 . S
H2095 C2073 0.950 . S
C2096 C2097 1.349 . S
C2096 C2098 1.327 . S
C2096 H2121 0.950 . S
C2097 C2096 1.349 . S
C2097 C2113 1.349 . S
C2098 C2096 1.327 . S
C2098 C2117 1.429 . S
C2098 H2122 0.950 . S
C2099 C2116 1.574 . S
C2099 C2118 1.368 . S
C2099 H2123 0.949 . S
H2100 C2104 0.949 . S
C2101 C2102 1.349 . S
C2101 C2103 1.327 . S
C2101 H2124 0.950 . S
C2102 C2101 1.349 . S
C2102 C2114 1.349 . S
C2103 C2101 1.327 . S
C2103 C2119 1.429 . S
C2103 H2125 0.950 . S
C2104 H2100 0.949 . S
C2104 C2112 1.574 . S
C2104 C2120 1.368 . S
H2105 C2113 0.950 . S
H2106 C2111 0.950 . S
H2107 C2112 0.949 . S
H2108 C2114 0.950 . S
H2109 C2115 0.950 . S
H2110 C2116 0.949 . S
C2111 H2106 0.950 . S
C2111 C2113 1.327 . S
C2111 C2117 1.429 . S
C2112 C2104 1.574 . S
C2112 H2107 0.949 . S
C2112 C2118 1.368 . S
C2113 C2097 1.349 . S
C2113 H2105 0.950 . S
C2113 C2111 1.327 . S
C2114 C2102 1.349 . S
C2114 H2108 0.950 . S
C2114 C2115 1.327 . S
C2115 H2109 0.950 . S
C2115 C2114 1.327 . S
C2115 C2119 1.429 . S
C2116 C2099 1.574 . S
C2116 H2110 0.949 . S
C2116 C2120 1.368 . S
C2117 C2098 1.429 . S
C2117 C2111 1.429 . S
C2117 C2118 1.523 . S
C2118 C2099 1.368 . S
C2118 C2112 1.368 . S
C2118 C2117 1.523 . S
C2119 C2103 1.429 . S
C2119 C2115 1.429 . S
C2119 C2120 1.523 . S
C2120 C2104 1.368 . S
C2120 C2116 1.368 . S
C2120 C2119 1.523 . S
H2121 C2096 0.950 . S
H2122 C2098 0.950 . S
H2123 C2099 0.949 . S
H2124 C2101 0.950 . S
H2125 C2103 0.950 . S
C2126 C2127 1.349 . S
C2126 C2128 1.327 . S
C2126 H2151 0.950 . S
C2127 C2126 1.349 . S
C2127 C2143 1.349 . S
C2128 C2126 1.327 . S
C2128 C2147 1.429 . S
C2128 H2152 0.950 . S
C2129 C2146 1.574 . S
C2129 C2148 1.368 . S
C2129 H2153 0.949 . S
H2130 C2134 0.949 . S
C2131 C2132 1.349 . S
C2131 C2133 1.327 . S
C2131 H2154 0.950 . S
C2132 C2131 1.349 . S
C2132 C2144 1.349 . S
C2133 C2131 1.327 . S
C2133 C2149 1.429 . S
C2133 H2155 0.950 . S
C2134 H2130 0.949 . S
C2134 C2142 1.574 . S
C2134 C2150 1.368 . S
H2135 C2143 0.950 . S
H2136 C2141 0.950 . S
H2137 C2142 0.949 . S
H2138 C2144 0.950 . S
H2139 C2145 0.950 . S
H2140 C2146 0.949 . S
C2141 H2136 0.950 . S
C2141 C2143 1.327 . S
C2141 C2147 1.429 . S
C2142 C2134 1.574 . S
C2142 H2137 0.949 . S
C2142 C2148 1.368 . S
C2143 C2127 1.349 . S
C2143 H2135 0.950 . S
C2143 C2141 1.327 . S
C2144 C2132 1.349 . S
C2144 H2138 0.950 . S
C2144 C2145 1.327 . S
C2145 H2139 0.950 . S
C2145 C2144 1.327 . S
C2145 C2149 1.429 . S
C2146 C2129 1.574 . S
C2146 H2140 0.949 . S
C2146 C2150 1.368 . S
C2147 C2128 1.429 . S
C2147 C2141 1.429 . S
C2147 C2148 1.523 . S
C2148 C2129 1.368 . S
C2148 C2142 1.368 . S
C2148 C2147 1.523 . S
C2149 C2133 1.429 . S
C2149 C2145 1.429 . S
C2149 C2150 1.523 . S
C2150 C2134 1.368 . S
C2150 C2146 1.368 . S
C2150 C2149 1.523 . S
H2151 C2126 0.950 . S
H2152 C2128 0.950 . S
H2153 C2129 0.949 . S
H2154 C2131 0.950 . S
H2155 C2133 0.950 . S
C2156 C2157 1.349 . S
C2156 C2158 1.327 . S
C2156 H2181 0.950 . S
C2157 C2156 1.349 . S
C2157 C2173 1.349 . S
C2158 C2156 1.327 . S
C2158 C2177 1.429 . S
C2158 H2182 0.950 . S
C2159 C2176 1.574 . S
C2159 C2178 1.368 . S
C2159 H2183 0.949 . S
H2160 C2164 0.949 . S
C2161 C2162 1.349 . S
C2161 C2163 1.327 . S
C2161 H2184 0.950 . S
C2162 C2161 1.349 . S
C2162 C2174 1.349 . S
C2163 C2161 1.327 . S
C2163 C2179 1.429 . S
C2163 H2185 0.950 . S
C2164 H2160 0.949 . S
C2164 C2172 1.574 . S
C2164 C2180 1.368 . S
H2165 C2173 0.950 . S
H2166 C2171 0.950 . S
H2167 C2172 0.949 . S
H2168 C2174 0.950 . S
H2169 C2175 0.950 . S
H2170 C2176 0.949 . S
C2171 H2166 0.950 . S
C2171 C2173 1.327 . S
C2171 C2177 1.429 . S
C2172 C2164 1.574 . S
C2172 H2167 0.949 . S
C2172 C2178 1.368 . S
C2173 C2157 1.349 . S
C2173 H2165 0.950 . S
C2173 C2171 1.327 . S
C2174 C2162 1.349 . S
C2174 H2168 0.950 . S
C2174 C2175 1.327 . S
C2175 H2169 0.950 . S
C2175 C2174 1.327 . S
C2175 C2179 1.429 . S
C2176 C2159 1.574 . S
C2176 H2170 0.949 . S
C2176 C2180 1.368 . S
C2177 C2158 1.429 . S
C2177 C2171 1.429 . S
C2177 C2178 1.523 . S
C2178 C2159 1.368 . S
C2178 C2172 1.368 . S
C2178 C2177 1.523 . S
C2179 C2163 1.429 . S
C2179 C2175 1.429 . S
C2179 C2180 1.523 . S
C2180 C2164 1.368 . S
C2180 C2176 1.368 . S
C2180 C2179 1.523 . S
H2181 C2156 0.950 . S
H2182 C2158 0.950 . S
H2183 C2159 0.949 . S
H2184 C2161 0.950 . S
H2185 C2163 0.950 . S
C2186 C2187 1.349 . S
C2186 C2188 1.327 . S
C2186 H2211 0.950 . S
C2187 C2186 1.349 . S
C2187 C2203 1.349 . S
C2188 C2186 1.327 . S
C2188 C2207 1.429 . S
C2188 H2212 0.950 . S
C2189 C2206 1.574 . S
C2189 C2208 1.368 . S
C2189 H2213 0.949 . S
H2190 C2194 0.949 . S
C2191 C2192 1.349 . S
C2191 C2193 1.327 . S
C2191 H2214 0.950 . S
C2192 C2191 1.349 . S
C2192 C2204 1.349 . S
C2193 C2191 1.327 . S
C2193 C2209 1.429 . S
C2193 H2215 0.950 . S
C2194 H2190 0.949 . S
C2194 C2202 1.574 . S
C2194 C2210 1.368 . S
H2195 C2203 0.950 . S
H2196 C2201 0.950 . S
H2197 C2202 0.949 . S
H2198 C2204 0.950 . S
H2199 C2205 0.950 . S
H2200 C2206 0.949 . S
C2201 H2196 0.950 . S
C2201 C2203 1.327 . S
C2201 C2207 1.429 . S
C2202 C2194 1.574 . S
C2202 H2197 0.949 . S
C2202 C2208 1.368 . S
C2203 C2187 1.349 . S
C2203 H2195 0.950 . S
C2203 C2201 1.327 . S
C2204 C2192 1.349 . S
C2204 H2198 0.950 . S
C2204 C2205 1.327 . S
C2205 H2199 0.950 . S
C2205 C2204 1.327 . S
C2205 C2209 1.429 . S
C2206 C2189 1.574 . S
C2206 H2200 0.949 . S
C2206 C2210 1.368 . S
C2207 C2188 1.429 . S
C2207 C2201 1.429 . S
C2207 C2208 1.523 . S
C2208 C2189 1.368 . S
C2208 C2202 1.368 . S
C2208 C2207 1.523 . S
C2209 C2193 1.429 . S
C2209 C2205 1.429 . S
C2209 C2210 1.523 . S
C2210 C2194 1.368 . S
C2210 C2206 1.368 . S
C2210 C2209 1.523 . S
H2211 C2186 0.950 . S
H2212 C2188 0.950 . S
H2213 C2189 0.949 . S
H2214 C2191 0.950 . S
H2215 C2193 0.950 . S
C2216 C2217 1.349 . S
C2216 C2218 1.327 . S
C2216 H2241 0.950 . S
C2217 C2216 1.349 . S
C2217 C2233 1.349 . S
C2218 C2216 1.327 . S
C2218 C2237 1.429 . S
C2218 H2242 0.950 . S
C2219 C2236 1.574 . S
C2219 C2238 1.368 . S
C2219 H2243 0.949 . S
H2220 C2224 0.949 . S
C2221 C2222 1.349 . S
C2221 C2223 1.327 . S
C2221 H2244 0.950 . S
C2222 C2221 1.349 . S
C2222 C2234 1.349 . S
C2223 C2221 1.327 . S
C2223 C2239 1.429 . S
C2223 H2245 0.950 . S
C2224 H2220 0.949 . S
C2224 C2232 1.574 . S
C2224 C2240 1.368 . S
H2225 C2233 0.950 . S
H2226 C2231 0.950 . S
H2227 C2232 0.949 . S
H2228 C2234 0.950 . S
H2229 C2235 0.950 . S
H2230 C2236 0.949 . S
C2231 H2226 0.950 . S
C2231 C2233 1.327 . S
C2231 C2237 1.429 . S
C2232 C2224 1.574 . S
C2232 H2227 0.949 . S
C2232 C2238 1.368 . S
C2233 C2217 1.349 . S
C2233 H2225 0.950 . S
C2233 C2231 1.327 . S
C2234 C2222 1.349 . S
C2234 H2228 0.950 . S
C2234 C2235 1.327 . S
C2235 H2229 0.950 . S
C2235 C2234 1.327 . S
C2235 C2239 1.429 . S
C2236 C2219 1.574 . S
C2236 H2230 0.949 . S
C2236 C2240 1.368 . S
C2237 C2218 1.429 . S
C2237 C2231 1.429 . S
C2237 C2238 1.523 . S
C2238 C2219 1.368 . S
C2238 C2232 1.368 . S
C2238 C2237 1.523 . S
C2239 C2223 1.429 . S
C2239 C2235 1.429 . S
C2239 C2240 1.523 . S
C2240 C2224 1.368 . S
C2240 C2236 1.368 . S
C2240 C2239 1.523 . S
H2241 C2216 0.950 . S
H2242 C2218 0.950 . S
H2243 C2219 0.949 . S
H2244 C2221 0.950 . S
H2245 C2223 0.950 . S
C2246 C2247 1.349 . S
C2246 C2248 1.327 . S
C2246 H2271 0.950 . S
C2247 C2246 1.349 . S
C2247 C2263 1.349 . S
C2248 C2246 1.327 . S
C2248 C2267 1.429 . S
C2248 H2272 0.950 . S
C2249 C2266 1.574 . S
C2249 C2268 1.368 . S
C2249 H2273 0.949 . S
H2250 C2254 0.949 . S
C2251 C2252 1.349 . S
C2251 C2253 1.327 . S
C2251 H2274 0.950 . S
C2252 C2251 1.349 . S
C2252 C2264 1.349 . S
C2253 C2251 1.327 . S
C2253 C2269 1.429 . S
C2253 H2275 0.950 . S
C2254 H2250 0.949 . S
C2254 C2262 1.574 . S
C2254 C2270 1.368 . S
H2255 C2263 0.950 . S
H2256 C2261 0.950 . S
H2257 C2262 0.949 . S
H2258 C2264 0.950 . S
H2259 C2265 0.950 . S
H2260 C2266 0.949 . S
C2261 H2256 0.950 . S
C2261 C2263 1.327 . S
C2261 C2267 1.429 . S
C2262 C2254 1.574 . S
C2262 H2257 0.949 . S
C2262 C2268 1.368 . S
C2263 C2247 1.349 . S
C2263 H2255 0.950 . S
C2263 C2261 1.327 . S
C2264 C2252 1.349 . S
C2264 H2258 0.950 . S
C2264 C2265 1.327 . S
C2265 H2259 0.950 . S
C2265 C2264 1.327 . S
C2265 C2269 1.429 . S
C2266 C2249 1.574 . S
C2266 H2260 0.949 . S
C2266 C2270 1.368 . S
C2267 C2248 1.429 . S
C2267 C2261 1.429 . S
C2267 C2268 1.523 . S
C2268 C2249 1.368 . S
C2268 C2262 1.368 . S
C2268 C2267 1.523 . S
C2269 C2253 1.429 . S
C2269 C2265 1.429 . S
C2269 C2270 1.523 . S
C2270 C2254 1.368 . S
C2270 C2266 1.368 . S
C2270 C2269 1.523 . S
H2271 C2246 0.950 . S
H2272 C2248 0.950 . S
H2273 C2249 0.949 . S
H2274 C2251 0.950 . S
H2275 C2253 0.950 . S
C2276 C2277 1.349 . S
C2276 C2278 1.327 . S
C2276 H2301 0.950 . S
C2277 C2276 1.349 . S
C2277 C2293 1.349 . S
C2278 C2276 1.327 . S
C2278 C2297 1.429 . S
C2278 H2302 0.950 . S
C2279 C2296 1.574 . S
C2279 C2298 1.368 . S
C2279 H2303 0.949 . S
H2280 C2284 0.949 . S
C2281 C2282 1.349 . S
C2281 C2283 1.327 . S
C2281 H2304 0.950 . S
C2282 C2281 1.349 . S
C2282 C2294 1.349 . S
C2283 C2281 1.327 . S
C2283 C2299 1.429 . S
C2283 H2305 0.950 . S
C2284 H2280 0.949 . S
C2284 C2292 1.574 . S
C2284 C2300 1.368 . S
H2285 C2293 0.950 . S
H2286 C2291 0.950 . S
H2287 C2292 0.949 . S
H2288 C2294 0.950 . S
H2289 C2295 0.950 . S
H2290 C2296 0.949 . S
C2291 H2286 0.950 . S
C2291 C2293 1.327 . S
C2291 C2297 1.429 . S
C2292 C2284 1.574 . S
C2292 H2287 0.949 . S
C2292 C2298 1.368 . S
C2293 C2277 1.349 . S
C2293 H2285 0.950 . S
C2293 C2291 1.327 . S
C2294 C2282 1.349 . S
C2294 H2288 0.950 . S
C2294 C2295 1.327 . S
C2295 H2289 0.950 . S
C2295 C2294 1.327 . S
C2295 C2299 1.429 . S
C2296 C2279 1.574 . S
C2296 H2290 0.949 . S
C2296 C2300 1.368 . S
C2297 C2278 1.429 . S
C2297 C2291 1.429 . S
C2297 C2298 1.523 . S
C2298 C2279 1.368 . S
C2298 C2292 1.368 . S
C2298 C2297 1.523 . S
C2299 C2283 1.429 . S
C2299 C2295 1.429 . S
C2299 C2300 1.523 . S
C2300 C2284 1.368 . S
C2300 C2296 1.368 . S
C2300 C2299 1.523 . S
H2301 C2276 0.950 . S
H2302 C2278 0.950 . S
H2303 C2279 0.949 . S
H2304 C2281 0.950 . S
H2305 C2283 0.950 . S
C2306 C2307 1.349 . S
C2306 C2308 1.327 . S
C2306 H2331 0.950 . S
C2307 C2306 1.349 . S
C2307 C2323 1.349 . S
C2308 C2306 1.327 . S
C2308 C2327 1.429 . S
C2308 H2332 0.950 . S
C2309 C2326 1.574 . S
C2309 C2328 1.368 . S
C2309 H2333 0.949 . S
H2310 C2314 0.949 . S
C2311 C2312 1.349 . S
C2311 C2313 1.327 . S
C2311 H2334 0.950 . S
C2312 C2311 1.349 . S
C2312 C2324 1.349 . S
C2313 C2311 1.327 . S
C2313 C2329 1.429 . S
C2313 H2335 0.950 . S
C2314 H2310 0.949 . S
C2314 C2322 1.574 . S
C2314 C2330 1.368 . S
H2315 C2323 0.950 . S
H2316 C2321 0.950 . S
H2317 C2322 0.949 . S
H2318 C2324 0.950 . S
H2319 C2325 0.950 . S
H2320 C2326 0.949 . S
C2321 H2316 0.950 . S
C2321 C2323 1.327 . S
C2321 C2327 1.429 . S
C2322 C2314 1.574 . S
C2322 H2317 0.949 . S
C2322 C2328 1.368 . S
C2323 C2307 1.349 . S
C2323 H2315 0.950 . S
C2323 C2321 1.327 . S
C2324 C2312 1.349 . S
C2324 H2318 0.950 . S
C2324 C2325 1.327 . S
C2325 H2319 0.950 . S
C2325 C2324 1.327 . S
C2325 C2329 1.429 . S
C2326 C2309 1.574 . S
C2326 H2320 0.949 . S
C2326 C2330 1.368 . S
C2327 C2308 1.429 . S
C2327 C2321 1.429 . S
C2327 C2328 1.523 . S
C2328 C2309 1.368 . S
C2328 C2322 1.368 . S
C2328 C2327 1.523 . S
C2329 C2313 1.429 . S
C2329 C2325 1.429 . S
C2329 C2330 1.523 . S
C2330 C2314 1.368 . S
C2330 C2326 1.368 . S
C2330 C2329 1.523 . S
H2331 C2306 0.950 . S
H2332 C2308 0.950 . S
H2333 C2309 0.949 . S
H2334 C2311 0.950 . S
H2335 C2313 0.950 . S
C417 C122 0.663 . S
C422 C10 0.615 . S
C447 C23 0.615 . S
C452 C343 0.663 . S
C477 C148 0.663 . S
C482 C36 0.615 . S
C507 C317 0.663 . S
C512 C49 0.615 . S
C537 C62 0.615 . S
C542 C200 0.663 . S
C567 C369 0.663 . S
C572 C75 0.615 . S
C597 C88 0.615 . S
C602 C174 0.663 . S
C627 C395 0.663 . S
C632 C101 0.615 . S
C657 C18 0.663 . S
C662 C114 0.615 . S
C687 C127 0.615 . S
C692 C239 0.663 . S
C717 C44 0.663 . S
C722 C140 0.615 . S
C747 C153 0.615 . S
C752 C213 0.663 . S
C777 C166 0.615 . S
C782 C96 0.663 . S
C807 C265 0.663 . S
C812 C179 0.615 . S
C837 C192 0.615 . S
C842 C70 0.663 . S
C867 C291 0.663 . S
C872 C205 0.615 . S
C897 C330 0.663 . S
C902 C218 0.615 . S
C927 C135 0.663 . S
C932 C231 0.615 . S
C957 C244 0.615 . S
C962 C356 0.663 . S
C987 C109 0.663 . S
C992 C257 0.615 . S
C1017 C408 0.663 . S
C1022 C270 0.615 . S
C1047 C283 0.615 . S
C1052 C161 0.663 . S
C1077 C382 0.663 . S
C1082 C296 0.615 . S
C1107 C187 0.663 . S
C1112 C309 0.615 . S
C1137 C226 0.663 . S
C1142 C322 0.615 . S
C1167 C335 0.615 . S
C1172 C31 0.663 . S
C1197 C348 0.615 . S
C1202 C252 0.663 . S
C1227 C361 0.615 . S
C1232 C5 0.663 . S
C1257 C304 0.663 . S
C1262 C374 0.615 . S
C1287 C387 0.615 . S
C1292 C57 0.663 . S
C1317 C400 0.615 . S
C1322 C278 0.663 . S
C1347 C413 0.615 . S
C1352 C83 0.663 . S
C1377 C312 1.147 . S
C1382 C0 1.147 . S
C1407 C13 1.147 . S
C1412 C117 1.147 . S
C1437 C26 1.147 . S
C1442 C338 1.147 . S
C1467 C39 1.147 . S
C1472 C143 1.147 . S
C1497 C52 1.147 . S
C1502 C364 1.147 . S
C1527 C65 1.147 . S
C1532 C169 1.147 . S
C1557 C390 1.147 . S
C1562 C78 1.147 . S
C1587 C91 1.147 . S
C1592 C195 1.147 . S
C1617 C104 1.147 . S
C1622 C208 1.147 . S
C1647 C130 1.147 . S
C1652 C234 1.147 . S
C1677 C260 1.147 . S
C1682 C156 1.147 . S
C1707 C286 1.147 . S
C1712 C182 1.147 . S
C1737 C221 1.147 . S
C1742 C325 1.147 . S
C1767 C351 1.147 . S
C1772 C247 1.147 . S
C1797 C273 1.147 . S
C1802 C377 1.147 . S
C1827 C403 1.147 . S
C1832 C299 1.147 . S
C1857 C281 1.640 . S
C1862 C8 1.640 . S
C1887 C294 1.640 . S
C1892 C21 1.640 . S
C1917 C34 1.640 . S
C1922 C307 1.640 . S
C1947 C268 1.640 . S
C1952 C47 1.640 . S
C1977 C255 1.640 . S
C1982 C60 1.640 . S
C2007 C216 1.640 . S
C2012 C73 1.640 . S
C2037 C86 1.640 . S
C2042 C229 1.640 . S
C2067 C242 1.640 . S
C2072 C99 1.640 . S
C2097 C385 1.640 . S
C2102 C112 1.640 . S
C2127 C398 1.640 . S
C2132 C125 1.640 . S
C2157 C411 1.640 . S
C2162 C138 1.640 . S
C2187 C151 1.640 . S
C2192 C372 1.640 . S
C2217 C359 1.640 . S
C2222 C164 1.640 . S
C2247 C320 1.640 . S
C2252 C177 1.640 . S
C2277 C333 1.640 . S
C2282 C190 1.640 . S
C2307 C346 1.640 . S
C2312 C203 1.640 . S
