# Generated by pormake.
# Topology sml, (6)-cn, num edge types: 1
# Building blocks:
#     Node 0, Type 0, BuildingBlock: KUMBUR_clean_sbu_0, # of connection points: 6
#     Node 1, Type 0, BuildingBlock: KUMBUR_clean_sbu_0, # of connection points: 6
#     Node 2, Type 0, BuildingBlock: KUMBUR_clean_sbu_0, # of connection points: 6
#     Node 3, Type 0, BuildingBlock: KUMBUR_clean_sbu_0, # of connection points: 6
#     Node 4, Type 0, BuildingBlock: KUMBUR_clean_sbu_0, # of connection points: 6
#     Node 5, Type 0, BuildingBlock: KUMBUR_clean_sbu_0, # of connection points: 6
#     Edge 6, Type (0, 0), BuildingBlock: MIFKUJ_clean_linker_0, # of connection points: 2
#     Edge 7, Type (0, 0), BuildingBlock: MIFKUJ_clean_linker_0, # of connection points: 2
#     Edge 8, Type (0, 0), BuildingBlock: MIFKUJ_clean_linker_0, # of connection points: 2
#     Edge 9, Type (0, 0), BuildingBlock: MIFKUJ_clean_linker_0, # of connection points: 2
#     Edge 10, Type (0, 0), BuildingBlock: MIFKUJ_clean_linker_0, # of connection points: 2
#     Edge 11, Type (0, 0), BuildingBlock: MIFKUJ_clean_linker_0, # of connection points: 2
#     Edge 12, Type (0, 0), BuildingBlock: MIFKUJ_clean_linker_0, # of connection points: 2
#     Edge 13, Type (0, 0), BuildingBlock: MIFKUJ_clean_linker_0, # of connection points: 2
#     Edge 14, Type (0, 0), BuildingBlock: MIFKUJ_clean_linker_0, # of connection points: 2
#     Edge 15, Type (0, 0), BuildingBlock: MIFKUJ_clean_linker_0, # of connection points: 2
#     Edge 16, Type (0, 0), BuildingBlock: MIFKUJ_clean_linker_0, # of connection points: 2
#     Edge 17, Type (0, 0), BuildingBlock: MIFKUJ_clean_linker_0, # of connection points: 2
#     Edge 18, Type (0, 0), BuildingBlock: MIFKUJ_clean_linker_0, # of connection points: 2
#     Edge 19, Type (0, 0), BuildingBlock: MIFKUJ_clean_linker_0, # of connection points: 2
#     Edge 20, Type (0, 0), BuildingBlock: MIFKUJ_clean_linker_0, # of connection points: 2
#     Edge 21, Type (0, 0), BuildingBlock: MIFKUJ_clean_linker_0, # of connection points: 2
#     Edge 22, Type (0, 0), BuildingBlock: MIFKUJ_clean_linker_0, # of connection points: 2
#     Edge 23, Type (0, 0), BuildingBlock: MIFKUJ_clean_linker_0, # of connection points: 2
# Relax obj value: 0.026
# Max RMSD: 0.145
# Mean RMSD: 0.145
data_MOF--net-sml--node1-KUMBUR_clean_sbu_0--edge1-MIFKUJ_clean_linker_0
_symmetry_space_group_name_H-M    P1
_symmetry_Int_Tables_number       1
_symmetry_cell_setting            triclinic
loop_
_symmetry_equiv_pos_as_xyz
'x, y, z'
_cell_length_a     44.547285
_cell_length_b     44.53531
_cell_length_c     28.658332
_cell_angle_alpha  89.900247
_cell_angle_beta   90.084329
_cell_angle_gamma 119.80869
loop_
_atom_site_label
_atom_site_type_symbol
_atom_site_fract_x
_atom_site_fract_y
_atom_site_fract_z
_atom_type_partial_charge
Tb0 Tb 0.19265 0.42564 0.97709 0.0
C1 C 0.31271 0.41768 0.06732 0.0
C2 C 0.29546 0.35721 0.05962 0.0
C3 C 0.35653 0.40062 0.06019 0.0
C4 C 0.28705 0.38368 0.06413 0.0
C5 C 0.34781 0.42661 0.06688 0.0
C6 C 0.33035 0.36593 0.05643 0.0
C7 C 0.36262 0.4854 0.08469 0.0
N8 N 0.30309 0.44177 0.07423 0.0
C9 C 0.32739 0.47514 0.08492 0.0
C10 C 0.37293 0.46113 0.07488 0.0
Tb11 Tb 0.24494 0.42303 0.07247 0.0
N12 N 0.2538 0.3765 0.06767 0.0
C13 C 0.22764 0.34286 0.07047 0.0
C14 C 0.26862 0.32282 0.05961 0.0
C15 C 0.2346 0.31562 0.06582 0.0
H16 H 0.31965 0.49411 0.09219 0.0
H17 H 0.21366 0.28908 0.06679 0.0
H18 H 0.33736 0.34601 0.05236 0.0
H19 H 0.38178 0.51201 0.09196 0.0
H20 H 0.20116 0.33669 0.07485 0.0
H21 H 0.20964 0.55448 0.97286 0.0
H22 H 0.27393 0.30169 0.05597 0.0
H23 H 0.12193 0.34819 0.96818 0.0
H24 H 0.22871 0.51135 0.97289 0.0
H25 H 0.05886 0.32422 0.96668 0.0
H26 H 0.38336 0.40696 0.05916 0.0
H27 H 0.14734 0.53568 0.9759 0.0
H28 H 0.08564 0.48665 0.976 0.0
H29 H 0.4002 0.4691 0.07488 0.0
H30 H 0.04464 0.42409 0.97549 0.0
N31 N 0.17778 0.46805 0.97872 0.0
C32 C 0.20141 0.50253 0.97504 0.0
C33 C 0.15552 0.5165 0.97684 0.0
C34 C 0.13132 0.48114 0.97839 0.0
C35 C 0.19071 0.52721 0.97488 0.0
C36 C 0.14346 0.45732 0.97924 0.0
H37 H 0.03438 0.36326 0.97184 0.0
N38 N 0.13349 0.40052 0.9756 0.0
C39 C 0.0759 0.35187 0.96979 0.0
C40 C 0.12044 0.42227 0.97754 0.0
C41 C 0.11178 0.36564 0.97051 0.0
C42 C 0.06217 0.37397 0.97285 0.0
C43 C 0.08451 0.4097 0.97611 0.0
O44 O 0.18065 0.40063 0.91183 0.0
O45 O 0.22523 0.40638 1.0033 0.0
O46 O 0.28068 0.45181 1.01489 0.0
O47 O 0.24647 0.46815 0.9717 0.0
O48 O 0.18401 0.37309 0.96503 0.0
O49 O 0.21274 0.45601 0.91664 0.0
O50 O 0.25856 0.44908 0.13704 0.0
O51 O 0.214 0.44389 0.0455 0.0
O52 O 0.15906 0.40503 0.0377 0.0
O53 O 0.18896 0.38341 0.07978 0.0
O54 O 0.25619 0.4763 0.08395 0.0
O55 O 0.22519 0.39395 0.13409 0.0
C56 C 0.211 0.37652 0.98599 0.0
C57 C 0.18032 0.43371 0.84748 0.0
C58 C 0.17767 0.43899 0.76269 0.0
C59 C 0.19395 0.43513 0.80272 0.0
C60 C 0.14749 0.44132 0.76848 0.0
C61 C 0.15037 0.43622 0.85222 0.0
C62 C 0.13408 0.44002 0.81291 0.0
C63 C 0.27673 0.47063 0.98186 0.0
C64 C 0.19766 0.42954 0.88871 0.0
C65 C 0.07216 0.43319 0.97673 0.0
C66 C 0.09553 0.46885 0.9774 0.0
C67 C 0.23017 0.47421 0.06165 0.0
C68 C 0.26033 0.41663 0.20107 0.0
C69 C 0.2507 0.41939 0.24694 0.0
C70 C 0.26833 0.4157 0.28559 0.0
C71 C 0.29594 0.40951 0.27724 0.0
C72 C 0.28761 0.41002 0.19387 0.0
C73 C 0.30536 0.40661 0.23176 0.0
C74 C 0.16039 0.38496 0.07074 0.0
C75 C 0.24175 0.42073 0.16118 0.0
H76 H 0.21735 0.43353 0.79922 0.0
H77 H 0.13382 0.44354 0.7386 0.0
H78 H 0.13948 0.43514 0.88616 0.0
H79 H 0.11082 0.44174 0.81685 0.0
H80 H 0.22921 0.42394 0.2524 0.0
H81 H 0.3106 0.40728 0.30588 0.0
H82 H 0.29523 0.4075 0.15908 0.0
H83 H 0.32658 0.40177 0.22585 0.0
Tb84 Tb 0.76767 0.18573 0.30342 0.0
C85 C 0.89578 0.30489 0.39084 0.0
C86 C 0.93709 0.28484 0.38723 0.0
C87 C 0.95692 0.34635 0.38122 0.0
C88 C 0.90273 0.27811 0.39068 0.0
C89 C 0.92279 0.33946 0.38754 0.0
C90 C 0.96407 0.31903 0.38104 0.0
C91 C 0.88076 0.35759 0.40204 0.0
N92 N 0.8626 0.29702 0.39759 0.0
C93 C 0.85495 0.32283 0.40543 0.0
C94 C 0.91478 0.36596 0.39233 0.0
Tb95 Tb 0.82147 0.23939 0.39881 0.0
N96 N 0.87589 0.2456 0.39688 0.0
C97 C 0.88213 0.21877 0.40382 0.0
C98 C 0.94336 0.25718 0.39175 0.0
C99 C 0.91582 0.22412 0.40107 0.0
H100 H 0.82863 0.31653 0.41247 0.0
H101 H 0.92044 0.20261 0.40556 0.0
H102 H 0.9906 0.3247 0.37756 0.0
H103 H 0.87439 0.37788 0.40687 0.0
H104 H 0.86129 0.1929 0.4103 0.0
H105 H 0.65968 0.20938 0.30008 0.0
H106 H 0.96938 0.2612 0.38935 0.0
H107 H 0.76912 0.11281 0.28729 0.0
H108 H 0.72076 0.22509 0.29393 0.0
H109 H 0.72784 0.04997 0.28997 0.0
H110 H 0.97804 0.37271 0.37793 0.0
H111 H 0.61476 0.14855 0.31439 0.0
H112 H 0.59941 0.08614 0.32185 0.0
H113 H 0.93477 0.39289 0.38999 0.0
H114 H 0.61795 0.04247 0.31843 0.0
N115 N 0.71126 0.17385 0.30639 0.0
C116 C 0.70168 0.19839 0.3001 0.0
C117 C 0.64166 0.15529 0.31186 0.0
C118 C 0.6513 0.12987 0.31464 0.0
C119 C 0.66692 0.18961 0.3036 0.0
C120 C 0.68669 0.14013 0.31127 0.0
H121 H 0.66583 0.02869 0.30564 0.0
N122 N 0.73103 0.12697 0.30254 0.0
C123 C 0.7188 0.06819 0.29555 0.0
C124 C 0.69693 0.1157 0.30896 0.0
C125 C 0.7421 0.10381 0.29387 0.0
C126 C 0.68385 0.05627 0.30457 0.0
C127 C 0.67239 0.08013 0.31056 0.0
O128 O 0.77906 0.17083 0.23896 0.0
O129 O 0.81874 0.21785 0.33112 0.0
O130 O 0.82964 0.27415 0.33986 0.0
O131 O 0.78069 0.24004 0.29394 0.0
O132 O 0.81188 0.17705 0.2928 0.0
O133 O 0.7595 0.20631 0.24183 0.0
O134 O 0.81013 0.25737 0.46067 0.0
O135 O 0.76986 0.20776 0.37144 0.0
O136 O 0.75707 0.15076 0.36236 0.0
O137 O 0.80412 0.18391 0.41163 0.0
O138 O 0.78037 0.25227 0.40525 0.0
O139 O 0.82718 0.21993 0.46304 0.0
C140 C 0.83482 0.2037 0.31489 0.0
C141 C 0.74589 0.17149 0.17478 0.0
C142 C 0.7371 0.16559 0.09013 0.0
C143 C 0.75887 0.18081 0.12912 0.0
C144 C 0.7021 0.14092 0.098 0.0
C145 C 0.71106 0.14668 0.18155 0.0
C146 C 0.68933 0.1315 0.14333 0.0
C147 C 0.80794 0.27008 0.30554 0.0
C148 C 0.76871 0.18882 0.21483 0.0
C149 C 0.63724 0.06968 0.31664 0.0
C150 C 0.6267 0.09454 0.31867 0.0
C151 C 0.75631 0.22529 0.38494 0.0
C152 C 0.84086 0.25702 0.5277 0.0
C153 C 0.82738 0.24778 0.57312 0.0
C154 C 0.84846 0.26371 0.61245 0.0
C155 C 0.88329 0.28911 0.60516 0.0
C156 C 0.87553 0.28245 0.52143 0.0
C157 C 0.89657 0.29843 0.56002 0.0
C158 C 0.7769 0.15415 0.39861 0.0
C159 C 0.81863 0.23916 0.48743 0.0
H160 H 0.78592 0.19977 0.12416 0.0
H161 H 0.6843 0.12923 0.06916 0.0
H162 H 0.70057 0.13931 0.21627 0.0
H163 H 0.66237 0.11257 0.14884 0.0
H164 H 0.80046 0.22828 0.57763 0.0
H165 H 0.90058 0.30143 0.63431 0.0
H166 H 0.88641 0.28971 0.48685 0.0
H167 H 0.92342 0.31788 0.55496 0.0
Tb168 Tb 0.5761 0.76144 0.6379 0.0
C169 C 0.58436 0.88982 0.72681 0.0
C170 C 0.64436 0.9333 0.71668 0.0
C171 C 0.60013 0.95012 0.71719 0.0
C172 C 0.61841 0.89846 0.7225 0.0
C173 C 0.57475 0.91554 0.72552 0.0
C174 C 0.63494 0.95899 0.71272 0.0
C175 C 0.51657 0.87146 0.74533 0.0
N176 N 0.56091 0.85625 0.73528 0.0
C177 C 0.52751 0.84696 0.74647 0.0
C178 C 0.54018 0.90584 0.73413 0.0
Tb179 Tb 0.58048 0.81736 0.73307 0.0
N180 N 0.62625 0.87284 0.72691 0.0
C181 C 0.6601 0.88085 0.72975 0.0
C182 C 0.67895 0.94132 0.71663 0.0
C183 C 0.68685 0.91505 0.72417 0.0
H184 H 0.50899 0.82039 0.75473 0.0
H185 H 0.71355 0.92104 0.72523 0.0
H186 H 0.65443 0.98586 0.70762 0.0
H187 H 0.48992 0.8638 0.75299 0.0
H188 H 0.66682 0.86094 0.73493 0.0
H189 H 0.44614 0.65163 0.63745 0.0
H190 H 0.69969 0.96774 0.71214 0.0
H191 H 0.65227 0.76548 0.62664 0.0
H192 H 0.4901 0.71317 0.63236 0.0
H193 H 0.67524 0.72529 0.6292 0.0
H194 H 0.59327 0.97027 0.7155 0.0
H195 H 0.46385 0.60746 0.64771 0.0
H196 H 0.51199 0.59345 0.65291 0.0
H197 H 0.53169 0.9248 0.73344 0.0
H198 H 0.57442 0.61347 0.65036 0.0
N199 N 0.53284 0.70464 0.64063 0.0
C200 C 0.49848 0.69442 0.63648 0.0
C201 C 0.48339 0.63456 0.64541 0.0
C202 C 0.5186 0.64495 0.64701 0.0
C203 C 0.47331 0.6594 0.63948 0.0
C204 C 0.54292 0.68057 0.64412 0.0
H205 H 0.63554 0.66262 0.641 0.0
N206 N 0.59998 0.72611 0.6378 0.0
C207 C 0.64776 0.7155 0.63311 0.0
C208 C 0.57778 0.69167 0.64244 0.0
C209 C 0.63459 0.7382 0.63149 0.0
C210 C 0.62528 0.68014 0.63987 0.0
C211 C 0.58973 0.66775 0.644 0.0
O212 O 0.6016 0.77439 0.57301 0.0
O213 O 0.59588 0.81341 0.66347 0.0
O214 O 0.55143 0.82452 0.67605 0.0
O215 O 0.53383 0.77367 0.63324 0.0
O216 O 0.6287 0.80493 0.62474 0.0
O217 O 0.54614 0.75072 0.57682 0.0
O218 O 0.55614 0.8054 0.79885 0.0
O219 O 0.55867 0.76554 0.70639 0.0
O220 O 0.59792 0.7494 0.6985 0.0
O221 O 0.62086 0.80183 0.73794 0.0
O222 O 0.5275 0.77583 0.74716 0.0
O223 O 0.61104 0.82614 0.79315 0.0
C224 C 0.62559 0.82869 0.64571 0.0
C225 C 0.56972 0.73987 0.50924 0.0
C226 C 0.57055 0.73222 0.42467 0.0
C227 C 0.57303 0.75281 0.46353 0.0
C228 C 0.56499 0.69861 0.43266 0.0
C229 C 0.56391 0.70625 0.51608 0.0
C230 C 0.56163 0.6858 0.47798 0.0
C231 C 0.53148 0.80145 0.64426 0.0
C232 C 0.5729 0.76191 0.54934 0.0
C233 C 0.56578 0.6323 0.64874 0.0
C234 C 0.53025 0.62091 0.65023 0.0
C235 C 0.52884 0.7518 0.72418 0.0
C236 C 0.59045 0.83834 0.86232 0.0
C237 C 0.59217 0.82659 0.9074 0.0
C238 C 0.59683 0.84735 0.947 0.0
C239 C 0.5997 0.88003 0.94029 0.0
C240 C 0.59373 0.87109 0.85673 0.0
C241 C 0.5983 0.89176 0.89555 0.0
C242 C 0.61868 0.77134 0.73041 0.0
C243 C 0.585 0.8161 0.82156 0.0
H244 H 0.57714 0.77871 0.45834 0.0
H245 H 0.56367 0.68228 0.40388 0.0
H246 H 0.56127 0.69582 0.55075 0.0
H247 H 0.55737 0.65993 0.4836 0.0
H248 H 0.59018 0.80146 0.91145 0.0
H249 H 0.60248 0.89645 0.9697 0.0
H250 H 0.59263 0.88062 0.82245 0.0
H251 H 0.60054 0.91693 0.891 0.0
Tb252 Tb 0.81206 0.57335 0.97077 0.0
C253 C 0.69949 0.59472 0.06289 0.0
C254 C 0.72078 0.65558 0.05009 0.0
C255 C 0.65886 0.61586 0.05486 0.0
C256 C 0.72668 0.62752 0.0564 0.0
C257 C 0.66523 0.58847 0.06375 0.0
C258 C 0.68666 0.64943 0.04794 0.0
C259 C 0.64686 0.52975 0.08723 0.0
N260 N 0.70696 0.56932 0.07186 0.0
C261 C 0.68137 0.53741 0.08605 0.0
C262 C 0.63866 0.55524 0.07524 0.0
Tb263 Tb 0.7638 0.58308 0.06641 0.0
N264 N 0.75907 0.63214 0.05912 0.0
C265 C 0.78693 0.66498 0.05983 0.0
C266 C 0.74931 0.68898 0.04767 0.0
C267 C 0.78251 0.69373 0.05349 0.0
H268 H 0.68742 0.51743 0.09495 0.0
H269 H 0.80477 0.71953 0.05276 0.0
H270 H 0.68154 0.67055 0.04244 0.0
H271 H 0.62663 0.50417 0.09724 0.0
H272 H 0.81287 0.66942 0.06377 0.0
H273 H 0.77853 0.43869 0.97146 0.0
H274 H 0.74596 0.71125 0.04268 0.0
H275 H 0.88774 0.645 0.95838 0.0
H276 H 0.76688 0.487 0.96569 0.0
H277 H 0.94963 0.66194 0.96059 0.0
H278 H 0.63269 0.61157 0.05471 0.0
H279 H 0.83845 0.4502 0.98204 0.0
H280 H 0.90202 0.49371 0.98707 0.0
H281 H 0.61196 0.54932 0.07635 0.0
H282 H 0.9487 0.55454 0.98382 0.0
N283 N 0.81968 0.52611 0.97429 0.0
C284 C 0.79324 0.49271 0.97017 0.0
C285 C 0.83353 0.47166 0.97955 0.0
C286 C 0.86071 0.50589 0.981 0.0
C287 C 0.7997 0.46507 0.97346 0.0
C288 C 0.85282 0.53281 0.97788 0.0
H289 H 0.96674 0.6175 0.97336 0.0
N290 N 0.87006 0.59164 0.97088 0.0
C291 C 0.93001 0.63509 0.96511 0.0
C292 C 0.879 0.56681 0.97589 0.0
C293 C 0.89494 0.6254 0.9637 0.0
C294 C 0.93957 0.60994 0.97242 0.0
C295 C 0.91392 0.57521 0.97723 0.0
O296 O 0.82773 0.59887 0.90589 0.0
O297 O 0.78256 0.59629 0.99612 0.0
O298 O 0.72521 0.55286 1.01235 0.0
O299 O 0.75661 0.5352 0.96474 0.0
O300 O 0.82424 0.62698 0.95648 0.0
O301 O 0.79164 0.54412 0.90959 0.0
O302 O 0.75079 0.56004 0.13315 0.0
O303 O 0.79035 0.55746 0.0396 0.0
O304 O 0.84653 0.59378 0.03085 0.0
O305 O 0.82029 0.62044 0.06954 0.0
O306 O 0.74845 0.52903 0.08105 0.0
O307 O 0.78968 0.61336 0.12498 0.0
C308 C 0.79804 0.62562 0.97723 0.0
C309 C 0.82699 0.56471 0.84239 0.0
C310 C 0.83507 0.56377 0.75794 0.0
C311 C 0.81911 0.56987 0.79648 0.0
C312 C 0.85933 0.55287 0.76632 0.0
C313 C 0.85116 0.55373 0.84966 0.0
C314 C 0.86727 0.54795 0.81182 0.0
C315 C 0.7274 0.53393 0.97799 0.0
C316 C 0.80954 0.5705 0.88217 0.0
C317 C 0.92201 0.54864 0.98231 0.0
C318 C 0.89543 0.51402 0.9842 0.0
C319 C 0.7725 0.52791 0.05779 0.0
C320 C 0.75852 0.59783 0.19546 0.0
C321 C 0.77062 0.59638 0.24035 0.0
C322 C 0.75841 0.60581 0.27997 0.0
C323 C 0.73382 0.61657 0.27367 0.0
C324 C 0.73416 0.60876 0.19013 0.0
C325 C 0.72187 0.61803 0.2291 0.0
C326 C 0.84713 0.61574 0.0623 0.0
C327 C 0.77208 0.58855 0.15453 0.0
H328 H 0.80015 0.57801 0.79081 0.0
H329 H 0.87249 0.54848 0.73765 0.0
H330 H 0.85752 0.54952 0.88445 0.0
H331 H 0.88599 0.53959 0.81779 0.0
H332 H 0.78984 0.58838 0.24426 0.0
H333 H 0.72336 0.62339 0.30329 0.0
H334 H 0.72472 0.61023 0.15594 0.0
H335 H 0.70294 0.62631 0.22477 0.0
Tb336 Tb 0.23458 0.81445 0.30939 0.0
C337 C 0.10711 0.69438 0.39824 0.0
C338 C 0.06472 0.71292 0.39142 0.0
C339 C 0.04624 0.65158 0.3899 0.0
C340 C 0.09935 0.72058 0.39584 0.0
C341 C 0.08064 0.65949 0.39692 0.0
C342 C 0.03829 0.6783 0.38703 0.0
C343 C 0.12366 0.64326 0.41504 0.0
N344 N 0.14053 0.70323 0.40557 0.0
C345 C 0.14895 0.67831 0.41606 0.0
C346 C 0.08942 0.63376 0.40458 0.0
Tb347 Tb 0.18054 0.76113 0.40486 0.0
N348 N 0.12564 0.75353 0.40068 0.0
C349 C 0.11861 0.78001 0.40513 0.0
C350 C 0.05766 0.74018 0.39312 0.0
C351 C 0.08467 0.77379 0.40093 0.0
H352 H 0.17544 0.68545 0.42368 0.0
H353 H 0.07944 0.79501 0.40328 0.0
H354 H 0.01157 0.67189 0.38297 0.0
H355 H 0.13061 0.62361 0.4221 0.0
H356 H 0.13907 0.80625 0.4105 0.0
H357 H 0.34466 0.79399 0.31093 0.0
H358 H 0.03144 0.73545 0.38973 0.0
H359 H 0.2314 0.88608 0.2891 0.0
H360 H 0.28328 0.77677 0.30339 0.0
H361 H 0.27155 0.94917 0.2899 0.0
H362 H 0.02552 0.62493 0.38813 0.0
H363 H 0.38848 0.85541 0.32371 0.0
H364 H 0.40233 0.91747 0.32862 0.0
H365 H 0.06985 0.60662 0.40393 0.0
H366 H 0.38242 0.95999 0.32243 0.0
N367 N 0.29143 0.82775 0.31349 0.0
C368 C 0.30184 0.80371 0.30881 0.0
C369 C 0.36142 0.848 0.32054 0.0
C370 C 0.35096 0.87284 0.32172 0.0
C371 C 0.33679 0.81335 0.31314 0.0
C372 C 0.3154 0.86173 0.31763 0.0
H373 H 0.33365 0.97209 0.30707 0.0
N374 N 0.27016 0.87338 0.30709 0.0
C375 C 0.28112 0.93154 0.29701 0.0
C376 C 0.30438 0.88551 0.31408 0.0
C377 C 0.25845 0.89577 0.29645 0.0
C378 C 0.31613 0.94438 0.30688 0.0
C379 C 0.3283 0.92126 0.31466 0.0
O380 O 0.22067 0.82629 0.24442 0.0
O381 O 0.18337 0.78153 0.33624 0.0
O382 O 0.1736 0.72569 0.34711 0.0
O383 O 0.22311 0.76049 0.30287 0.0
O384 O 0.18996 0.82223 0.29749 0.0
O385 O 0.24548 0.79552 0.24831 0.0
O386 O 0.19322 0.7458 0.4681 0.0
O387 O 0.23228 0.79333 0.37827 0.0
O388 O 0.24404 0.84999 0.36689 0.0
O389 O 0.19696 0.8166 0.41605 0.0
O390 O 0.22221 0.74935 0.41367 0.0
O391 O 0.17199 0.77986 0.4679 0.0
C392 C 0.16708 0.79526 0.31915 0.0
C393 C 0.25522 0.82908 0.18036 0.0
C394 C 0.26364 0.83469 0.09569 0.0
C395 C 0.243 0.81752 0.13488 0.0
C396 C 0.2965 0.86384 0.10298 0.0
C397 C 0.28812 0.85802 0.18663 0.0
C398 C 0.30856 0.87533 0.14811 0.0
C399 C 0.19607 0.72999 0.31368 0.0
C400 C 0.23355 0.81043 0.22079 0.0
C401 C 0.3636 0.93261 0.32137 0.0
C402 C 0.37493 0.9084 0.32493 0.0
C403 C 0.24613 0.77634 0.39318 0.0
C404 C 0.16046 0.74395 0.53381 0.0
C405 C 0.17278 0.75499 0.57938 0.0
C406 C 0.15202 0.73773 0.61842 0.0
C407 C 0.11889 0.70904 0.61089 0.0
C408 C 0.12727 0.71552 0.52728 0.0
C409 C 0.10669 0.69811 0.56566 0.0
C410 C 0.22385 0.84651 0.40264 0.0
C411 C 0.18238 0.76264 0.49361 0.0
H412 H 0.21773 0.79486 0.13014 0.0
H413 H 0.31281 0.87805 0.07375 0.0
H414 H 0.29805 0.86718 0.22119 0.0
H415 H 0.33388 0.89777 0.15323 0.0
H416 H 0.19824 0.77734 0.58432 0.0
H417 H 0.10247 0.69477 0.64 0.0
H418 H 0.1172 0.70681 0.49265 0.0
H419 H 0.08115 0.67605 0.56034 0.0
Tb420 Tb 0.42801 0.24134 0.63246 0.0
C421 C 0.41978 0.11377 0.72192 0.0
C422 C 0.35946 0.07078 0.7131 0.0
C423 C 0.40315 0.05322 0.71282 0.0
C424 C 0.38578 0.10552 0.7183 0.0
C425 C 0.42892 0.08771 0.72068 0.0
C426 C 0.36842 0.04477 0.70895 0.0
C427 C 0.48742 0.13124 0.74022 0.0
N428 N 0.44364 0.14725 0.73012 0.0
C429 C 0.47694 0.1561 0.74131 0.0
C430 C 0.46342 0.09696 0.72912 0.0
Tb431 Tb 0.42466 0.1866 0.72842 0.0
N432 N 0.37837 0.13141 0.723 0.0
C433 C 0.34469 0.12382 0.72671 0.0
C434 C 0.325 0.06316 0.71391 0.0
C435 C 0.31759 0.08973 0.72172 0.0
H436 H 0.49572 0.18261 0.74946 0.0
H437 H 0.29101 0.08405 0.72345 0.0
H438 H 0.34863 0.01796 0.70429 0.0
H439 H 0.51399 0.13854 0.74783 0.0
H440 H 0.33838 0.14399 0.73212 0.0
H441 H 0.55719 0.35191 0.63076 0.0
H442 H 0.30399 0.03682 0.70989 0.0
H443 H 0.35115 0.23564 0.619 0.0
H444 H 0.51384 0.29011 0.6313 0.0
H445 H 0.32765 0.2752 0.61419 0.0
H446 H 0.40964 0.03282 0.71114 0.0
H447 H 0.5387 0.39572 0.63082 0.0
H448 H 0.49006 0.40917 0.62875 0.0
H449 H 0.47154 0.07772 0.7285 0.0
H450 H 0.42766 0.38839 0.62545 0.0
N451 N 0.47064 0.2983 0.63485 0.0
C452 C 0.50512 0.30873 0.63232 0.0
C453 C 0.51942 0.36859 0.63245 0.0
C454 C 0.48412 0.35789 0.63308 0.0
C455 C 0.52995 0.3439 0.63197 0.0
C456 C 0.46012 0.32213 0.63429 0.0
H457 H 0.36684 0.33844 0.61968 0.0
N458 N 0.40331 0.27586 0.62895 0.0
C459 C 0.35515 0.28548 0.61903 0.0
C460 C 0.42517 0.3105 0.63111 0.0
C461 C 0.36866 0.26311 0.62171 0.0
C462 C 0.37732 0.32115 0.6223 0.0
C463 C 0.41288 0.33412 0.62769 0.0
O464 O 0.40329 0.2275 0.56697 0.0
O465 O 0.40858 0.18963 0.65888 0.0
O466 O 0.45344 0.17918 0.67152 0.0
O467 O 0.47074 0.22985 0.62855 0.0
O468 O 0.37545 0.1978 0.62019 0.0
O469 O 0.45872 0.25186 0.57228 0.0
O470 O 0.44995 0.19786 0.79354 0.0
O471 O 0.44557 0.23835 0.70154 0.0
O472 O 0.40562 0.25387 0.69169 0.0
O473 O 0.385 0.20305 0.73502 0.0
O474 O 0.47766 0.22853 0.74111 0.0
O475 O 0.39503 0.17779 0.78926 0.0
C476 C 0.37868 0.17428 0.64165 0.0
C477 C 0.43582 0.26162 0.50312 0.0
C478 C 0.43685 0.26865 0.41827 0.0
C479 C 0.43351 0.24834 0.4579 0.0
C480 C 0.4421 0.30225 0.42487 0.0
C481 C 0.44139 0.29526 0.5086 0.0
C482 C 0.4444 0.31539 0.4697 0.0
C483 C 0.47333 0.20225 0.63973 0.0
C484 C 0.4323 0.24008 0.54408 0.0
C485 C 0.43654 0.36979 0.62819 0.0
C486 C 0.47211 0.38165 0.63044 0.0
C487 C 0.47564 0.25246 0.71865 0.0
C488 C 0.41609 0.16413 0.85683 0.0
C489 C 0.41662 0.17594 0.90248 0.0
C490 C 0.41168 0.15439 0.94126 0.0
C491 C 0.40632 0.12087 0.93332 0.0
C492 C 0.4104 0.13056 0.84988 0.0
C493 C 0.40561 0.10911 0.88798 0.0
C494 C 0.38603 0.23283 0.7253 0.0
C495 C 0.42139 0.18709 0.81695 0.0
H496 H 0.42961 0.22245 0.45368 0.0
H497 H 0.44405 0.31834 0.39535 0.0
H498 H 0.44339 0.30601 0.5428 0.0
H499 H 0.44848 0.34127 0.47432 0.0
H500 H 0.42047 0.20173 0.90764 0.0
H501 H 0.40313 0.10381 0.96219 0.0
H502 H 0.40967 0.12093 0.81515 0.0
H503 H 0.40145 0.08329 0.88235 0.0
H504 H 0.38545 0.29381 0.71921 0.0
H505 H 0.35447 0.31417 0.76741 0.0
H506 H 0.31103 0.2199 0.84784 0.0
H507 H 0.34175 0.19875 0.7987 0.0
H508 H 0.28565 0.28839 0.7827 0.0
H509 H 0.30475 0.24412 0.96397 0.0
H510 H 0.34476 0.22905 1.00357 0.0
H511 H 0.42666 0.29643 0.91123 0.0
H512 H 0.38734 0.31233 0.87163 0.0
H513 H 0.18276 0.30978 0.95771 0.0
H514 H 0.21173 0.28204 0.91864 0.0
H515 H 0.30957 0.37629 0.93135 0.0
H516 H 0.28063 0.4045 0.96803 0.0
H517 H 0.30677 0.30608 0.95323 0.0
H518 H 0.28269 0.37165 0.83693 0.0
H519 H 0.24356 0.38808 0.79784 0.0
H520 H 0.17595 0.28212 0.75916 0.0
H521 H 0.21447 0.26502 0.79868 0.0
C522 C 0.36893 0.27694 0.74651 0.0
C523 C 0.36587 0.2443 0.75442 0.0
C524 C 0.35125 0.2888 0.7743 0.0
C525 C 0.33043 0.26869 0.81138 0.0
C526 C 0.32712 0.23601 0.81958 0.0
C527 C 0.34464 0.22391 0.79134 0.0
C528 C 0.31269 0.2825 0.84133 0.0
C529 C 0.2902 0.292 0.82 0.0
C530 C 0.31871 0.28759 0.89006 0.0
C531 C 0.34293 0.27904 0.91445 0.0
C532 C 0.33134 0.25583 0.95226 0.0
C533 C 0.3539 0.24713 0.9747 0.0
C534 C 0.38818 0.26164 0.95978 0.0
C535 C 0.40006 0.28508 0.92262 0.0
C536 C 0.37763 0.29392 0.90014 0.0
C537 C 0.21052 0.3244 0.95271 0.0
C538 C 0.2295 0.35908 0.96721 0.0
C539 C 0.22704 0.30851 0.9306 0.0
C540 C 0.26287 0.32697 0.92271 0.0
C541 C 0.282 0.36139 0.93784 0.0
C542 C 0.26538 0.37749 0.95902 0.0
C543 C 0.27976 0.31158 0.89441 0.0
C544 C 0.30204 0.30195 0.91601 0.0
C545 C 0.2739 0.30662 0.84583 0.0
C546 C 0.25121 0.31701 0.82117 0.0
C547 C 0.25934 0.35183 0.82039 0.0
C548 C 0.23731 0.36128 0.7981 0.0
C549 C 0.20722 0.33612 0.77618 0.0
C550 C 0.19923 0.30154 0.77625 0.0
C551 C 0.22115 0.29197 0.79854 0.0
H552 H 0.19007 0.34337 0.75911 0.0
H553 H 0.40556 0.25477 0.97709 0.0
H554 H 0.10423 0.39392 0.0762 0.0
H555 H 0.0523 0.36203 0.12315 0.0
H556 H 0.09199 0.29854 0.17844 0.0
H557 H 0.14467 0.33062 0.13103 0.0
H558 H 0.0196 0.26147 0.14748 0.0
H559 H 0.09524 0.3588 0.246 0.0
H560 H 0.13425 0.4213 0.25829 0.0
H561 H 0.05166 0.44111 0.22503 0.0
H562 H 0.01225 0.37875 0.21201 0.0
H563 H 0.87968 0.17929 0.30542 0.0
H564 H 0.93814 0.20922 0.27237 0.0
H565 H 0.92802 0.29935 0.24655 0.0
H566 H 0.8709 0.27024 0.28215 0.0
H567 H 0.98944 0.32226 0.26747 0.0
H568 H 0.91651 0.23442 0.15952 0.0
H569 H 0.87494 0.1755 0.13256 0.0
H570 H 0.94717 0.14156 0.1671 0.0
H571 H 0.98902 0.20022 0.19484 0.0
C572 C 0.10206 0.37306 0.09801 0.0
C573 C 0.12875 0.36479 0.09957 0.0
C574 C 0.07229 0.35495 0.12513 0.0
C575 C 0.06829 0.32805 0.15462 0.0
C576 C 0.09457 0.31928 0.15598 0.0
C577 C 0.1247 0.33769 0.12899 0.0
C578 C 0.03657 0.3094 0.18388 0.0
C579 C 0.01325 0.27447 0.17445 0.0
C580 C 0.02763 0.32683 0.21759 0.0
C581 C 0.05083 0.36409 0.22786 0.0
C582 C 0.0854 0.37648 0.24128 0.0
C583 C 0.10759 0.41189 0.24834 0.0
C584 C 0.09545 0.43517 0.24237 0.0
C585 C 0.06102 0.42305 0.22967 0.0
C586 C 0.03872 0.38766 0.22257 0.0
C587 C 0.89029 0.20569 0.29326 0.0
C588 C 0.87102 0.22267 0.29753 0.0
C589 C 0.92361 0.22275 0.27389 0.0
C590 C 0.93767 0.25656 0.25587 0.0
C591 C 0.91826 0.27347 0.2603 0.0
C592 C 0.88541 0.25676 0.28086 0.0
C593 C 0.97187 0.27397 0.23101 0.0
C594 C 0.99574 0.30883 0.24109 0.0
C595 C 0.98074 0.25684 0.19648 0.0
C596 C 0.95571 0.22158 0.17976 0.0
C597 C 0.92342 0.21432 0.16165 0.0
C598 C 0.89983 0.18099 0.1462 0.0
C599 C 0.90837 0.15478 0.14825 0.0
C600 C 0.94057 0.16187 0.16563 0.0
C601 C 0.96424 0.19516 0.18121 0.0
H602 H 0.89007 0.12899 0.13627 0.0
H603 H 0.11272 0.46259 0.2476 0.0
H604 H 0.75253 0.14348 0.48746 0.0
H605 H 0.7288 0.08981 0.53301 0.0
H606 H 0.75453 0.04163 0.42123 0.0
H607 H 0.77644 0.09477 0.37503 0.0
H608 H 0.69566 0.99832 0.44843 0.0
H609 H 0.80018 0.07087 0.53394 0.0
H610 H 0.84131 0.12323 0.57717 0.0
H611 H 0.76367 0.10299 0.6803 0.0
H612 H 0.72191 0.0507 0.6374 0.0
H613 H 0.69415 0.87033 0.62849 0.0
H614 H 0.72281 0.92763 0.59109 0.0
H615 H 0.62448 0.92367 0.5786 0.0
H616 H 0.59601 0.86703 0.61704 0.0
H617 H 0.72193 0.99242 0.6153 0.0
H618 H 0.63095 0.9542 0.45336 0.0
H619 H 0.59412 0.90323 0.4051 0.0
H620 H 0.65064 0.8539 0.45148 0.0
H621 H 0.68909 0.90534 0.49804 0.0
C622 C 0.75345 0.12147 0.47307 0.0
C623 C 0.76644 0.12319 0.42795 0.0
C624 C 0.74001 0.09077 0.49917 0.0
C625 C 0.7402 0.06142 0.48119 0.0
C626 C 0.75387 0.06362 0.43619 0.0
C627 C 0.76654 0.09404 0.40975 0.0
C628 C 0.72485 0.02799 0.50798 0.0
C629 C 0.70153 0.9972 0.48491 0.0
C630 C 0.73246 0.02607 0.55571 0.0
C631 C 0.75781 0.05704 0.58216 0.0
C632 C 0.79183 0.07766 0.56573 0.0
C633 C 0.81526 0.10732 0.59019 0.0
C634 C 0.80507 0.11649 0.63136 0.0
C635 C 0.7715 0.09587 0.64836 0.0
C636 C 0.74796 0.0662 0.62401 0.0
C637 C 0.67881 0.88202 0.61846 0.0
C638 C 0.64297 0.86451 0.62673 0.0
C639 C 0.69518 0.91474 0.59722 0.0
C640 C 0.67581 0.92997 0.58204 0.0
C641 C 0.63997 0.9125 0.59015 0.0
C642 C 0.62374 0.88016 0.61241 0.0
C643 C 0.69277 0.96323 0.5556 0.0
C644 C 0.71618 0.9938 0.57882 0.0
C645 C 0.68566 0.96492 0.50778 0.0
C646 C 0.66243 0.93345 0.4803 0.0
C647 C 0.63557 0.93251 0.45333 0.0
C648 C 0.61451 0.90357 0.42599 0.0
C649 C 0.61972 0.87514 0.42563 0.0
C650 C 0.64639 0.8758 0.45213 0.0
C651 C 0.66789 0.90492 0.47898 0.0
H652 H 0.60326 0.85271 0.40456 0.0
H653 H 0.82318 0.13957 0.65009 0.0
H654 H 0.60588 0.70559 0.74575 0.0
H655 H 0.63862 0.68665 0.79396 0.0
H656 H 0.71122 0.79266 0.82861 0.0
H657 H 0.67782 0.81203 0.78124 0.0
H658 H 0.73484 0.73843 0.78915 0.0
H659 H 0.67348 0.76289 0.90989 0.0
H660 H 0.62094 0.75841 0.94519 0.0
H661 H 0.57472 0.64787 0.95164 0.0
H662 H 0.62674 0.65163 0.91552 0.0
H663 H 0.82806 0.69292 0.94937 0.0
H664 H 0.80009 0.72277 0.91319 0.0
H665 H 0.70123 0.62907 0.92241 0.0
H666 H 0.72901 0.59951 0.95837 0.0
H667 H 0.69329 0.68262 0.9437 0.0
H668 H 0.74604 0.65365 0.82004 0.0
H669 H 0.79316 0.65145 0.77796 0.0
H670 H 0.84992 0.76243 0.77026 0.0
H671 H 0.80326 0.76529 0.81283 0.0
C672 C 0.62877 0.72502 0.76358 0.0
C673 C 0.63925 0.76041 0.75951 0.0
C674 C 0.64739 0.71406 0.79128 0.0
C675 C 0.67723 0.73821 0.81499 0.0
C676 C 0.68815 0.77362 0.81068 0.0
C677 C 0.66904 0.78462 0.78367 0.0
C678 C 0.69711 0.72603 0.84334 0.0
C679 C 0.72633 0.72699 0.82346 0.0
C680 C 0.68503 0.70979 0.88718 0.0
C681 C 0.65387 0.70753 0.90938 0.0
C682 C 0.65196 0.7376 0.91825 0.0
C683 C 0.62228 0.73519 0.93847 0.0
C684 C 0.59445 0.70286 0.95039 0.0
C685 C 0.59626 0.67288 0.94222 0.0
C686 C 0.62585 0.67515 0.92191 0.0
C687 C 0.80033 0.67886 0.94395 0.0
C688 C 0.78069 0.64407 0.95773 0.0
C689 C 0.78434 0.69588 0.9232 0.0
C690 C 0.74845 0.6782 0.91482 0.0
C691 C 0.72885 0.64345 0.92875 0.0
C692 C 0.74482 0.62651 0.94949 0.0
C693 C 0.73146 0.69527 0.88976 0.0
C694 C 0.70244 0.69479 0.90992 0.0
C695 C 0.74323 0.71128 0.84561 0.0
C696 C 0.77137 0.7097 0.82011 0.0
C697 C 0.76871 0.6776 0.80972 0.0
C698 C 0.79529 0.67622 0.78571 0.0
C699 C 0.82457 0.70678 0.77158 0.0
C700 C 0.82726 0.73878 0.78132 0.0
C701 C 0.80074 0.7403 0.80536 0.0
H702 H 0.84512 0.70567 0.75298 0.0
H703 H 0.5716 0.70106 0.96634 0.0
H704 H 0.13054 0.72717 0.29243 0.0
H705 H 0.0738 0.69702 0.25534 0.0
H706 H 0.06599 0.78949 0.2639 0.0
H707 H 0.12335 0.82006 0.30119 0.0
H708 H 1.0007 0.71993 0.28656 0.0
H709 H 0.09008 0.77997 0.1691 0.0
H710 H 0.14546 0.79479 0.1312 0.0
H711 H 0.10754 0.68749 0.10073 0.0
H712 H 0.05215 0.67197 0.13921 0.0
H713 H 0.86645 0.67312 0.11732 0.0
H714 H 0.91881 0.70384 0.16503 0.0
H715 H 0.95106 0.63141 0.12189 0.0
H716 H 0.89962 0.60145 0.07334 0.0
H717 H 0.00393 0.69196 0.11972 0.0
H718 H 0.91453 0.63006 0.23155 0.0
H719 H 0.8588 0.6119 0.27083 0.0
H720 H 0.89526 0.7162 0.31595 0.0
H721 H 0.95082 0.7353 0.2758 0.0
C722 C 0.11653 0.74093 0.28768 0.0
C723 C 0.13114 0.77582 0.30089 0.0
C724 C 0.08405 0.72364 0.2662 0.0
C725 C 0.06553 0.74091 0.25712 0.0
C726 C 0.07966 0.77555 0.27108 0.0
C727 C 0.11244 0.79302 0.29209 0.0
C728 C 0.03325 0.72375 0.22884 0.0
C729 C 1.00127 0.71418 0.24991 0.0
C730 C 0.03404 0.71535 0.18146 0.0
C731 C 0.06708 0.72478 0.15741 0.0
C732 C 0.09364 0.75951 0.15463 0.0
C733 C 0.12503 0.76804 0.133 0.0
C734 C 0.13003 0.74209 0.11365 0.0
C735 C 0.10363 0.70757 0.11577 0.0
C736 C 0.07223 0.69889 0.13745 0.0
C737 C 0.88475 0.66381 0.11796 0.0
C738 C 0.87885 0.63492 0.09122 0.0
C739 C 0.91463 0.68128 0.14552 0.0
C740 C 0.93891 0.66981 0.1477 0.0
C741 C 0.93296 0.64097 0.12089 0.0
C742 C 0.90341 0.62382 0.09299 0.0
C743 C 0.97082 0.68797 0.17708 0.0
C744 C 0.00296 0.69769 0.15629 0.0
C745 C 0.96995 0.69587 0.22491 0.0
C746 C 0.93678 0.68423 0.25008 0.0
C747 C 0.91059 0.64922 0.24946 0.0
C748 C 0.879 0.63875 0.2718 0.0
C749 C 0.87346 0.66289 0.29563 0.0
C750 C 0.89954 0.69755 0.2973 0.0
C751 C 0.93108 0.70824 0.27469 0.0
H752 H 0.84906 0.6547 0.31308 0.0
H753 H 0.15433 0.74873 0.09692 0.0
H754 H 0.40781 0.13548 0.61358 0.0
H755 H 0.37875 0.07855 0.57604 0.0
H756 H 0.28091 0.07566 0.58835 0.0
H757 H 0.31011 0.13308 0.62507 0.0
H758 H 0.27846 0.01174 0.61254 0.0
H759 H 0.3174 0.09738 0.4939 0.0
H760 H 0.3578 0.14786 0.44718 0.0
H761 H 0.41195 0.09501 0.40589 0.0
H762 H 0.37312 0.04493 0.45454 0.0
H763 H 0.22625 0.90623 0.37557 0.0
H764 H 0.24906 0.96026 0.41968 0.0
H765 H 0.26929 0.91171 0.5368 0.0
H766 H 0.24505 0.8573 0.49301 0.0
H767 H 0.30834 0.00222 0.44865 0.0
H768 H 0.27308 0.95174 0.63865 0.0
H769 H 0.2272 0.90158 0.68086 0.0
H770 H 0.15527 0.88544 0.5707 0.0
H771 H 0.20058 0.93574 0.52813 0.0
C772 C 0.38006 0.12249 0.60909 0.0
C773 C 0.36108 0.13839 0.62324 0.0
C774 C 0.36349 0.09002 0.58734 0.0
C775 C 0.32762 0.07279 0.57944 0.0
C776 C 0.30855 0.08836 0.59434 0.0
C777 C 0.32523 0.12114 0.61519 0.0
C778 C 0.31021 0.03933 0.55368 0.0
C779 C 0.28507 0.00957 0.57675 0.0
C780 C 0.31823 0.0367 0.50658 0.0
C781 C 0.34267 0.06754 0.47884 0.0
C782 C 0.33845 0.09679 0.47593 0.0
C783 C 0.36108 0.12537 0.44899 0.0
C784 C 0.38762 0.12477 0.42389 0.0
C785 C 0.39158 0.09558 0.42571 0.0
C786 C 0.36942 0.06718 0.45325 0.0
C787 C 0.23519 0.9071 0.41094 0.0
C788 C 0.23374 0.87769 0.43108 0.0
C789 C 0.24835 0.93801 0.43618 0.0
C790 C 0.26081 0.94035 0.48198 0.0
C791 C 0.25914 0.91066 0.50212 0.0
C792 C 0.24533 0.87953 0.4771 0.0
C793 C 0.27678 0.97418 0.50758 0.0
C794 C 0.30177 0.00416 0.48452 0.0
C795 C 0.26799 0.97717 0.55427 0.0
C796 C 0.24035 0.94729 0.58 0.0
C797 C 0.24743 0.93757 0.62354 0.0
C798 C 0.22154 0.9091 0.6475 0.0
C799 C 0.18838 0.89026 0.62839 0.0
C800 C 0.181 0.89997 0.58538 0.0
C801 C 0.20679 0.92844 0.5613 0.0
H802 H 0.16839 0.86818 0.64695 0.0
H803 H 0.40497 0.14683 0.40279 0.0
H804 H 0.18108 0.4796 0.68855 0.0
H805 H 0.19797 0.477 0.60835 0.0
H806 H 0.22252 0.39816 0.6478 0.0
H807 H 0.20554 0.40058 0.72826 0.0
H808 H 0.2698 0.44329 0.58793 0.0
H809 H 0.14617 0.377 0.59363 0.0
H810 H 0.0872 0.36578 0.61042 0.0
H811 H 0.10216 0.44754 0.51695 0.0
H812 H 0.16144 0.4596 0.50012 0.0
H813 H 0.26603 0.37708 0.36158 0.0
H814 H 0.25284 0.38333 0.44238 0.0
H815 H 0.23386 0.46569 0.40184 0.0
H816 H 0.24776 0.46015 0.32077 0.0
H817 H 0.18425 0.41954 0.46198 0.0
H818 H 0.30821 0.48447 0.45533 0.0
H819 H 0.36661 0.4941 0.43845 0.0
H820 H 0.35017 0.41275 0.53363 0.0
H821 H 0.29144 0.40227 0.55058 0.0
C822 C 0.18993 0.46158 0.68024 0.0
C823 C 0.19128 0.43979 0.71484 0.0
C824 C 0.19966 0.46017 0.63429 0.0
C825 C 0.21079 0.43683 0.62171 0.0
C826 C 0.21379 0.41623 0.65655 0.0
C827 C 0.20412 0.41768 0.70263 0.0
C828 C 0.21839 0.43333 0.57204 0.0
C829 C 0.25093 0.43767 0.56049 0.0
C830 C 0.19404 0.42664 0.53598 0.0
C831 C 0.15838 0.41944 0.54599 0.0
C832 C 0.13699 0.39278 0.57695 0.0
C833 C 0.10349 0.38623 0.58643 0.0
C834 C 0.09097 0.40599 0.56487 0.0
C835 C 0.11191 0.43229 0.53369 0.0
C836 C 0.14546 0.43898 0.52415 0.0
C837 C 0.2594 0.39681 0.36976 0.0
C838 C 0.25835 0.41836 0.33452 0.0
C839 C 0.25176 0.40026 0.41606 0.0
C840 C 0.24284 0.42531 0.42835 0.0
C841 C 0.24077 0.44623 0.39319 0.0
C842 C 0.24857 0.4429 0.34679 0.0
C843 C 0.23564 0.42954 0.47789 0.0
C844 C 0.20315 0.42527 0.48941 0.0
C845 C 0.25995 0.43607 0.51392 0.0
C846 C 0.29529 0.44236 0.50387 0.0
C847 C 0.31693 0.46843 0.47237 0.0
C848 C 0.35011 0.47408 0.46284 0.0
C849 C 0.36206 0.45399 0.48486 0.0
C850 C 0.34087 0.42826 0.51655 0.0
C851 C 0.30764 0.42247 0.52616 0.0
H852 H 0.38776 0.45841 0.47745 0.0
H853 H 0.06502 0.40087 0.57223 0.0
H854 H 0.78519 0.22986 0.05668 0.0
H855 H 0.80441 0.24624 0.97624 0.0
H856 H 0.73753 0.14086 0.93216 0.0
H857 H 0.71951 0.12391 1.01271 0.0
H858 H 0.79651 0.16643 0.88771 0.0
H859 H 0.71561 0.20584 0.91874 0.0
H860 H 0.69276 0.23769 0.96275 0.0
H861 H 0.78604 0.3334 0.9355 0.0
H862 H 0.80968 0.30205 0.89189 0.0
H863 H 0.80136 0.19896 0.64564 0.0
H864 H 0.78076 0.18247 0.72549 0.0
H865 H 0.84509 0.28825 0.76989 0.0
H866 H 0.86391 0.3054 0.68963 0.0
H867 H 0.78691 0.26225 0.81421 0.0
H868 H 0.86839 0.22277 0.78504 0.0
H869 H 0.89152 0.19094 0.74153 0.0
H870 H 0.79717 0.0955 0.76541 0.0
H871 H 0.77335 0.12683 0.80869 0.0
C872 C 0.77487 0.21001 0.03008 0.0
C873 C 0.75034 0.17558 0.0414 0.0
C874 C 0.78564 0.21953 0.98387 0.0
C875 C 0.7719 0.19495 0.9478 0.0
C876 C 0.74832 0.1604 0.95919 0.0
C877 C 0.73773 0.15082 1.00536 0.0
C878 C 0.78162 0.20515 0.89812 0.0
C879 C 0.79401 0.18712 0.87153 0.0
C880 C 0.779 0.23257 0.87703 0.0
C881 C 0.76452 0.25156 0.90234 0.0
C882 C 0.73131 0.23366 0.9223 0.0
C883 C 0.71821 0.25163 0.94716 0.0
C884 C 0.73793 0.28754 0.9519 0.0
C885 C 0.77077 0.30558 0.93172 0.0
C886 C 0.78403 0.28773 0.90692 0.0
C887 C 0.81068 0.21892 0.67211 0.0
C888 C 0.83465 0.25356 0.66093 0.0
C889 C 0.79921 0.20931 0.71806 0.0
C890 C 0.81196 0.23393 0.75417 0.0
C891 C 0.83504 0.26865 0.74289 0.0
C892 C 0.84613 0.27836 0.69689 0.0
C893 C 0.8019 0.22359 0.80379 0.0
C894 C 0.78942 0.24156 0.83038 0.0
C895 C 0.80445 0.19614 0.82493 0.0
C896 C 0.81902 0.17717 0.79983 0.0
C897 C 0.85256 0.19501 0.7809 0.0
C898 C 0.86578 0.17705 0.7563 0.0
C899 C 0.84582 0.14122 0.75073 0.0
C900 C 0.81262 0.12325 0.76985 0.0
C901 C 0.79926 0.14108 0.79445 0.0
H902 H 0.85606 0.12738 0.73155 0.0
H903 H 0.7278 0.30139 0.97128 0.0
H904 H 0.61479 0.79768 0.39114 0.0
H905 H 0.6214 0.81811 0.31043 0.0
H906 H 0.54112 0.71711 0.26687 0.0
H907 H 0.53385 0.69669 0.34734 0.0
H908 H 0.59712 0.74192 0.20946 0.0
H909 H 0.52475 0.78324 0.27457 0.0
H910 H 0.50927 0.81446 0.33203 0.0
H911 H 0.60164 0.90936 0.29839 0.0
H912 H 0.61786 0.87861 0.24099 0.0
H913 H 0.55909 0.7815 0.98333 0.0
H914 H 0.55812 0.76284 0.06371 0.0
H915 H 0.63578 0.8666 0.10123 0.0
H916 H 0.63737 0.88536 0.02077 0.0
H917 H 0.58381 0.84191 0.16244 0.0
H918 H 0.65514 0.80191 0.09455 0.0
H919 H 0.67332 0.77083 0.04068 0.0
H920 H 0.58561 0.67408 0.08097 0.0
H921 H 0.56654 0.7046 0.1346 0.0
C922 C 0.59819 0.77992 0.36454 0.0
C923 C 0.57387 0.74544 0.37591 0.0
C924 C 0.60212 0.79161 0.31831 0.0
C925 C 0.58175 0.76913 0.28248 0.0
C926 C 0.55733 0.73485 0.29378 0.0
C927 C 0.55329 0.7232 0.3399 0.0
C928 C 0.58588 0.78112 0.23313 0.0
C929 C 0.59377 0.7635 0.19901 0.0
C930 C 0.58251 0.80991 0.21974 0.0
C931 C 0.57264 0.82858 0.25373 0.0
C932 C 0.54186 0.81074 0.2796 0.0
C933 C 0.53293 0.82834 0.31211 0.0
C934 C 0.55445 0.86386 0.31883 0.0
C935 C 0.58497 0.88185 0.29307 0.0
C936 C 0.59402 0.86436 0.2605 0.0
C937 C 0.57642 0.80029 1.00832 0.0
C938 C 0.59804 0.83508 0.99528 0.0
C939 C 0.57578 0.78956 0.05448 0.0
C940 C 0.59688 0.8133 0.08871 0.0
C941 C 0.61905 0.84783 0.07563 0.0
C942 C 0.61978 0.85855 0.02951 0.0
C943 C 0.5948 0.80251 0.13843 0.0
C944 C 0.58725 0.82036 0.17272 0.0
C945 C 0.59862 0.77397 0.15197 0.0
C946 C 0.60926 0.75561 0.1184 0.0
C947 C 0.63948 0.77405 0.09155 0.0
C948 C 0.65003 0.75651 0.0612 0.0
C949 C 0.63074 0.7205 0.05763 0.0
C950 C 0.60061 0.70197 0.08396 0.0
C951 C 0.58991 0.71937 0.11433 0.0
H952 H 0.63913 0.70697 0.03441 0.0
H953 H 0.54742 0.87744 0.34393 0.0
H954 H 0.82699 0.61664 0.72217 0.0
H955 H 0.81588 0.62541 0.64097 0.0
H956 H 0.81302 0.53051 0.60192 0.0
H957 H 0.82436 0.52177 0.68278 0.0
H958 H 0.84986 0.57917 0.54029 0.0
H959 H 0.73817 0.53645 0.61155 0.0
H960 H 0.69685 0.53542 0.66962 0.0
H961 H 0.72135 0.63798 0.62896 0.0
H962 H 0.76308 0.63974 0.57093 0.0
H963 H 0.77012 0.55557 0.31695 0.0
H964 H 0.78574 0.55061 0.39727 0.0
H965 H 0.7898 0.64677 0.43198 0.0
H966 H 0.77423 0.65191 0.35176 0.0
H967 H 0.75339 0.59885 0.49562 0.0
H968 H 0.86634 0.64234 0.42627 0.0
H969 H 0.90795 0.64354 0.3685 0.0
H970 H 0.87953 0.53902 0.40384 0.0
H971 H 0.83828 0.53745 0.46259 0.0
C972 C 0.82362 0.59746 0.69637 0.0
C973 C 0.82664 0.56853 0.70903 0.0
C974 C 0.81731 0.60251 0.64988 0.0
C975 C 0.81337 0.57851 0.61515 0.0
C976 C 0.81615 0.54953 0.62786 0.0
C977 C 0.82265 0.54457 0.67419 0.0
C978 C 0.80664 0.5836 0.56554 0.0
C979 C 0.82851 0.58309 0.53056 0.0
C980 C 0.77926 0.58945 0.55261 0.0
C981 C 0.75399 0.58835 0.58722 0.0
C982 C 0.7349 0.55886 0.61521 0.0
C983 C 0.71138 0.55813 0.64807 0.0
C984 C 0.70655 0.58666 0.65307 0.0
C985 C 0.72515 0.61592 0.62509 0.0
C986 C 0.7487 0.61678 0.59216 0.0
C987 C 0.77488 0.57596 0.34144 0.0
C988 C 0.77062 0.604 0.32788 0.0
C989 C 0.78383 0.5731 0.38746 0.0
C990 C 0.78909 0.59839 0.42082 0.0
C991 C 0.78566 0.6268 0.40706 0.0
C992 C 0.77663 0.62963 0.36115 0.0
C993 C 0.79661 0.59447 0.47049 0.0
C994 C 0.77483 0.59511 0.50544 0.0
C995 C 0.82402 0.58872 0.48338 0.0
C996 C 0.84908 0.5897 0.44855 0.0
C997 C 0.86892 0.61959 0.42163 0.0
C998 C 0.89246 0.62036 0.38877 0.0
C999 C 0.89613 0.59127 0.38216 0.0
C1000 C 0.8766 0.56151 0.4089 0.0
C1001 C 0.85331 0.56074 0.44222 0.0
H1002 H 0.9142 0.59186 0.35647 0.0
H1003 H 0.68835 0.58605 0.67855 0.0
H1004 H 0.21689 0.75982 0.65466 0.0
H1005 H 0.23627 0.77679 0.73522 0.0
H1006 H 0.13464 0.75805 0.77276 0.0
H1007 H 0.11549 0.7423 0.69215 0.0
H1008 H 0.18286 0.81582 0.81279 0.0
H1009 H 0.16132 0.69915 0.79818 0.0
H1010 H 0.16774 0.65213 0.7631 0.0
H1011 H 0.2767 0.7078 0.79231 0.0
H1012 H 0.271 0.75539 0.82704 0.0
H1013 H 0.19865 0.81145 0.05917 0.0
H1014 H 0.1796 0.79423 0.97857 0.0
H1015 H 0.28174 0.81414 0.94173 0.0
H1016 H 0.30061 0.83027 0.02238 0.0
H1017 H 0.23361 0.75592 0.90126 0.0
H1018 H 0.25536 0.87245 0.91574 0.0
H1019 H 0.24933 0.91985 0.9503 0.0
H1020 H 0.14038 0.86476 0.92093 0.0
H1021 H 0.14569 0.81679 0.88673 0.0
C1022 C 0.19879 0.75973 0.67993 0.0
C1023 C 0.16453 0.74941 0.66694 0.0
C1024 C 0.20981 0.76911 0.72612 0.0
C1025 C 0.18676 0.76818 0.76035 0.0
C1026 C 0.15286 0.75879 0.74714 0.0
C1027 C 0.14186 0.74948 0.70106 0.0
C1028 C 0.19769 0.77662 0.81001 0.0
C1029 C 0.19355 0.8024 0.83227 0.0
C1030 C 0.21234 0.75967 0.83532 0.0
C1031 C 0.21578 0.73098 0.81479 0.0
C1032 C 0.18669 0.70147 0.79683 0.0
C1033 C 0.19019 0.67471 0.77706 0.0
C1034 C 0.22263 0.67702 0.77537 0.0
C1035 C 0.25161 0.70607 0.79359 0.0
C1036 C 0.24825 0.73293 0.81336 0.0
C1037 C 0.21693 0.81172 0.03407 0.0
C1038 C 0.25127 0.82255 0.04725 0.0
C1039 C 0.20609 0.80219 0.98785 0.0
C1040 C 0.22938 0.8034 0.9538 0.0
C1041 C 0.26334 0.81317 0.96722 0.0
C1042 C 0.27417 0.8227 1.01333 0.0
C1043 C 0.21866 0.79504 0.90406 0.0
C1044 C 0.22288 0.7693 0.88178 0.0
C1045 C 0.20411 0.81205 0.87871 0.0
C1046 C 0.20086 0.84088 0.89912 0.0
C1047 C 0.23007 0.87033 0.91698 0.0
C1048 C 0.22679 0.89732 0.93645 0.0
C1049 C 0.19448 0.89528 0.93793 0.0
C1050 C 0.16539 0.86628 0.91983 0.0
C1051 C 0.16852 0.8392 0.90037 0.0
H1052 H 0.192 0.9162 0.953 0.0
H1053 H 0.22529 0.65627 0.76003 0.0
H1054 H 0.4764 0.30349 0.34267 0.0
H1055 H 0.47052 0.28318 0.2624 0.0
H1056 H 0.38744 0.18298 0.30388 0.0
H1057 H 0.39286 0.2033 0.38453 0.0
H1058 H 0.43169 0.1775 0.2437 0.0
H1059 H 0.36992 0.23979 0.24925 0.0
H1060 H 0.36134 0.28934 0.26566 0.0
H1061 H 0.44349 0.35264 0.17104 0.0
H1062 H 0.45293 0.30359 0.1546 0.0
H1063 H 0.37043 0.11771 1.01497 0.0
H1064 H 0.37415 0.13647 0.09579 0.0
H1065 H 0.45766 0.23768 0.05896 0.0
H1066 H 0.45451 0.21896 0.978 0.0
H1067 H 0.41164 0.24172 0.11709 0.0
H1068 H 0.47416 0.17977 0.11284 0.0
H1069 H 0.48275 0.13023 0.09644 0.0
H1070 H 0.39906 0.06627 0.18862 0.0
H1071 H 0.38962 0.11532 0.20506 0.0
C1072 C 0.45667 0.27718 0.33478 0.0
C1073 C 0.43477 0.2552 0.37005 0.0
C1074 C 0.4534 0.26559 0.28881 0.0
C1075 C 0.4281 0.23176 0.27688 0.0
C1076 C 0.40703 0.20926 0.31222 0.0
C1077 C 0.41026 0.22088 0.35836 0.0
C1078 C 0.42361 0.22016 0.22743 0.0
C1079 C 0.42677 0.19122 0.21612 0.0
C1080 C 0.41795 0.23852 0.19123 0.0
C1081 C 0.41235 0.26809 0.20105 0.0
C1082 C 0.38636 0.26436 0.23225 0.0
C1083 C 0.38131 0.29234 0.2415 0.0
C1084 C 0.40191 0.32414 0.2195 0.0
C1085 C 0.42758 0.328 0.18811 0.0
C1086 C 0.43278 0.30011 0.17879 0.0
C1087 C 0.3898 0.1439 0.02401 0.0
C1088 C 0.41246 0.16666 0.98992 0.0
C1089 C 0.39182 0.15462 0.07029 0.0
C1090 C 0.41657 0.18831 0.08366 0.0
C1091 C 0.43843 0.21151 0.0495 0.0
C1092 C 0.43649 0.20079 1.00314 0.0
C1093 C 0.41988 0.19915 0.13335 0.0
C1094 C 0.41648 0.22795 0.1447 0.0
C1095 C 0.42531 0.18066 0.16958 0.0
C1096 C 0.43094 0.15113 0.15978 0.0
C1097 C 0.45738 0.15506 0.1293 0.0
C1098 C 0.46245 0.12708 0.12005 0.0
C1099 C 0.4414 0.09509 0.14136 0.0
C1100 C 0.4153 0.09104 0.17207 0.0
C1101 C 0.41009 0.11893 0.18139 0.0
H1102 H 0.44537 0.07347 0.13418 0.0
H1103 H 0.39795 0.34577 0.22668 0.0
H1104 H 0.16668 0.45401 0.1008 0.0
H1105 H 0.15113 0.49124 0.14518 0.0
H1106 H 0.24603 0.58095 0.10103 0.0
H1107 H 0.26239 0.54351 0.0594 0.0
H1108 H 0.24206 0.58026 0.19098 0.0
H1109 H 0.15305 0.57389 0.06938 0.0
H1110 H 0.10101 0.53947 0.02115 0.0
H1111 H 0.05079 0.4714 0.13693 0.0
H1112 H 0.10199 0.50652 0.18636 0.0
H1113 H 0.23963 0.72884 0.24778 0.0
H1114 H 0.23552 0.67951 0.20664 0.0
H1115 H 0.14032 0.61173 0.27834 0.0
H1116 H 0.14333 0.66182 0.31851 0.0
H1117 H 0.13697 0.59188 0.18847 0.0
H1118 H 0.21536 0.61611 0.31323 0.0
H1119 H 0.2642 0.65256 0.36523 0.0
H1120 H 0.33457 0.68157 0.24976 0.0
H1121 H 0.28607 0.64579 0.19685 0.0
C1122 C 0.18349 0.48177 0.09918 0.0
C1123 C 0.21553 0.49603 0.07615 0.0
C1124 C 0.17457 0.50315 0.1246 0.0
C1125 C 0.19729 0.53915 0.12654 0.0
C1126 C 0.22809 0.55334 0.10051 0.0
C1127 C 0.23735 0.532 0.07635 0.0
C1128 C 0.1919 0.56193 0.15965 0.0
C1129 C 0.21916 0.58295 0.19 0.0
C1130 C 0.16131 0.56414 0.16102 0.0
C1131 C 0.13129 0.54244 0.13115 0.0
C1132 C 0.13091 0.5515 0.08435 0.0
C1133 C 0.10152 0.53202 0.05696 0.0
C1134 C 0.07275 0.50303 0.07579 0.0
C1135 C 0.07311 0.49377 0.12232 0.0
C1136 C 0.10214 0.51364 0.15016 0.0
C1137 C 0.21764 0.70359 0.25504 0.0
C1138 C 0.19225 0.69937 0.2877 0.0
C1139 C 0.21544 0.67524 0.23144 0.0
C1140 C 0.18815 0.64168 0.24028 0.0
C1141 C 0.16191 0.63731 0.27141 0.0
C1142 C 0.16389 0.66594 0.29481 0.0
C1143 C 0.18807 0.61164 0.21732 0.0
C1144 C 0.15977 0.58901 0.18962 0.0
C1145 C 0.21754 0.60742 0.2191 0.0
C1146 C 0.247 0.62834 0.251 0.0
C1147 C 0.24122 0.63037 0.29886 0.0
C1148 C 0.26885 0.65093 0.32851 0.0
C1149 C 0.30246 0.6694 0.3108 0.0
C1150 C 0.30852 0.66724 0.26343 0.0
C1151 C 0.28097 0.64678 0.2336 0.0
H1152 H 0.32381 0.68535 0.3338 0.0
H1153 H 0.05013 0.48783 0.05437 0.0
H1154 H 0.72261 0.26097 0.38787 0.0
H1155 H 0.66956 0.2459 0.43047 0.0
H1156 H 0.6569 0.14566 0.46309 0.0
H1157 H 0.71006 0.16057 0.4192 0.0
H1158 H 0.59185 0.14624 0.45 0.0
H1159 H 0.6955 0.20266 0.53985 0.0
H1160 H 0.75637 0.24671 0.55389 0.0
H1161 H 0.72993 0.32704 0.54558 0.0
H1162 H 0.66896 0.28352 0.53048 0.0
H1163 H 0.48195 0.145 0.63774 0.0
H1164 H 0.52743 0.13925 0.59735 0.0
H1165 H 0.57124 0.24394 0.54663 0.0
H1166 H 0.52676 0.2501 0.58714 0.0
H1167 H 0.62108 0.23111 0.5784 0.0
H1168 H 0.51848 0.17384 0.48071 0.0
H1169 H 0.45769 0.12969 0.46799 0.0
H1170 H 0.48227 0.04922 0.4931 0.0
H1171 H 0.54325 0.09316 0.50766 0.0
C1172 C 0.70789 0.23529 0.40283 0.0
C1173 C 0.72027 0.21191 0.4002 0.0
C1174 C 0.67764 0.22672 0.42723 0.0
C1175 C 0.65964 0.19493 0.45071 0.0
C1176 C 0.67043 0.17035 0.44527 0.0
C1177 C 0.70073 0.17884 0.42018 0.0
C1178 C 0.63282 0.19007 0.48548 0.0
C1179 C 0.59825 0.16429 0.47868 0.0
C1180 C 0.64121 0.21356 0.52306 0.0
C1181 C 0.67764 0.2398 0.53382 0.0
C1182 C 0.70267 0.22973 0.54083 0.0
C1183 C 0.73721 0.2546 0.54894 0.0
C1184 C 0.74703 0.28965 0.55061 0.0
C1185 C 0.72229 0.29988 0.5443 0.0
C1186 C 0.68771 0.27511 0.53601 0.0
C1187 C 0.50153 0.16691 0.61846 0.0
C1188 C 0.50072 0.19809 0.61604 0.0
C1189 C 0.52739 0.16351 0.59514 0.0
C1190 C 0.55278 0.19116 0.56881 0.0
C1191 C 0.55211 0.2223 0.56686 0.0
C1192 C 0.52641 0.22569 0.58996 0.0
C1193 C 0.57979 0.18812 0.542 0.0
C1194 C 0.61462 0.21251 0.55041 0.0
C1195 C 0.57157 0.16314 0.50638 0.0
C1196 C 0.53531 0.13677 0.4958 0.0
C1197 C 0.5109 0.14673 0.48379 0.0
C1198 C 0.47637 0.12172 0.47626 0.0
C1199 C 0.46604 0.08659 0.47965 0.0
C1200 C 0.49029 0.07643 0.49053 0.0
C1201 C 0.52484 0.10139 0.49855 0.0
H1202 H 0.43927 0.06723 0.47383 0.0
H1203 H 0.7738 0.30887 0.55682 0.0
H1204 H 0.27796 0.5145 0.91423 0.0
H1205 H 0.32627 0.55445 0.86614 0.0
H1206 H 0.39337 0.5256 0.93752 0.0
H1207 H 0.34441 0.48408 0.98537 0.0
H1208 H 0.41757 0.60325 0.92391 0.0
H1209 H 0.37452 0.49543 0.83927 0.0
H1210 H 0.32697 0.44184 0.80572 0.0
H1211 H 0.29966 0.50167 0.71567 0.0
H1212 H 0.3467 0.55566 0.74923 0.0
H1213 H 0.5458 0.7016 0.74509 0.0
H1214 H 0.50745 0.6447 0.77997 0.0
H1215 H 0.42202 0.66412 0.77086 0.0
H1216 H 0.45991 0.72037 0.73464 0.0
H1217 H 0.41482 0.58526 0.75256 0.0
H1218 H 0.42259 0.66993 0.89302 0.0
H1219 H 0.46094 0.73015 0.91858 0.0
H1220 H 0.54998 0.71953 0.89175 0.0
H1221 H 0.51206 0.6588 0.86768 0.0
C1222 C 0.30284 0.51635 0.92003 0.0
C1223 C 0.30714 0.49597 0.95418 0.0
C1224 C 0.33051 0.53935 0.8923 0.0
C1225 C 0.36333 0.5429 0.89811 0.0
C1226 C 0.36817 0.52323 0.93258 0.0
C1227 C 0.3402 0.49964 0.96006 0.0
C1228 C 0.39215 0.56734 0.86763 0.0
C1229 C 0.4177 0.59874 0.88674 0.0
C1230 C 0.39143 0.56207 0.81876 0.0
C1231 C 0.36413 0.52965 0.79692 0.0
C1232 C 0.35834 0.49719 0.8124 0.0
C1233 C 0.33145 0.46673 0.79339 0.0
C1234 C 0.31029 0.46836 0.75861 0.0
C1235 C 0.3161 0.50046 0.74259 0.0
C1236 C 0.34293 0.53101 0.76153 0.0
C1237 C 0.51857 0.69309 0.74864 0.0
C1238 C 0.50563 0.71508 0.7363 0.0
C1239 C 0.4967 0.66064 0.76875 0.0
C1240 C 0.46188 0.65021 0.77785 0.0
C1241 C 0.44868 0.6715 0.7636 0.0
C1242 C 0.47037 0.70366 0.74318 0.0
C1243 C 0.44069 0.62052 0.80916 0.0
C1244 C 0.41589 0.58875 0.79009 0.0
C1245 C 0.44168 0.62546 0.85799 0.0
C1246 C 0.46454 0.65998 0.87849 0.0
C1247 C 0.45033 0.68025 0.89357 0.0
C1248 C 0.47197 0.71444 0.9077 0.0
C1249 C 0.50786 0.72861 0.90676 0.0
C1250 C 0.52218 0.7084 0.89271 0.0
C1251 C 0.50062 0.67406 0.87901 0.0
H1252 H 0.52451 0.75532 0.91657 0.0
H1253 H 0.28941 0.44476 0.74406 0.0
H1254 H 0.79528 0.32096 0.33299 0.0
H1255 H 0.79693 0.36713 0.2843 0.0
H1256 H 0.83598 0.33413 0.1691 0.0
H1257 H 0.8323 0.28679 0.21726 0.0
H1258 H 0.84092 0.42118 0.24156 0.0
H1259 H 0.80859 0.34852 0.06567 0.0
H1260 H 0.78011 0.28854 0.03617 0.0
H1261 H 0.7171 0.25314 0.15933 0.0
H1262 H 0.74496 0.31291 0.18937 0.0
H1263 H 0.83805 0.53955 0.07804 0.0
H1264 H 0.85285 0.49775 0.11123 0.0
H1265 H 0.7452 0.41858 0.1057 0.0
H1266 H 0.7309 0.45974 0.07024 0.0
H1267 H 0.78081 0.38951 0.08863 0.0
H1268 H 0.78691 0.47048 0.20625 0.0
H1269 H 0.80873 0.52792 0.2424 0.0
H1270 H 0.91153 0.54255 0.24498 0.0
H1271 H 0.89039 0.48538 0.20831 0.0
C1272 C 0.80455 0.32397 0.2974 0.0
C1273 C 0.81367 0.30059 0.27862 0.0
C1274 C 0.80555 0.35032 0.26954 0.0
C1275 C 0.81599 0.35392 0.22253 0.0
C1276 C 0.82696 0.33151 0.20474 0.0
C1277 C 0.82519 0.30469 0.23231 0.0
C1278 C 0.81379 0.38002 0.19197 0.0
C1279 C 0.82792 0.41422 0.20801 0.0
C1280 C 0.79664 0.37114 0.14815 0.0
C1281 C 0.77916 0.33516 0.12997 0.0
C1282 C 0.78856 0.32796 0.08635 0.0
C1283 C 0.77252 0.294 0.06953 0.0
C1284 C 0.74681 0.26706 0.09585 0.0
C1285 C 0.73704 0.27402 0.13901 0.0
C1286 C 0.75297 0.30793 0.15596 0.0
C1287 C 0.81784 0.51294 0.08239 0.0
C1288 C 0.78343 0.50264 0.0706 0.0
C1289 C 0.82619 0.48913 0.10207 0.0
C1290 C 0.80007 0.45498 0.11182 0.0
C1291 C 0.76592 0.4446 0.09851 0.0
C1292 C 0.75771 0.46817 0.07835 0.0
C1293 C 0.80728 0.43047 0.13873 0.0
C1294 C 0.79423 0.39658 0.12189 0.0
C1295 C 0.82439 0.43932 0.18252 0.0
C1296 C 0.83714 0.47383 0.2041 0.0
C1297 C 0.81421 0.48607 0.2142 0.0
C1298 C 0.82645 0.51855 0.23482 0.0
C1299 C 0.86151 0.53886 0.2459 0.0
C1300 C 0.8844 0.52679 0.23631 0.0
C1301 C 0.87231 0.49437 0.21562 0.0
H1302 H 0.87094 0.56388 0.26212 0.0
H1303 H 0.73441 0.2408 0.08278 0.0
H1304 H 0.27939 0.7404 0.39918 0.0
H1305 H 0.33289 0.75643 0.44131 0.0
H1306 H 0.34702 0.85807 0.46685 0.0
H1307 H 0.29305 0.842 0.42397 0.0
H1308 H 0.41184 0.85455 0.45087 0.0
H1309 H 0.3124 0.80825 0.54869 0.0
H1310 H 0.25163 0.76769 0.56919 0.0
H1311 H 0.2722 0.68319 0.56818 0.0
H1312 H 0.33299 0.72316 0.54674 0.0
H1313 H 0.52487 0.85981 0.63914 0.0
H1314 H 0.47989 0.86615 0.59788 0.0
H1315 H 0.4323 0.75976 0.55345 0.0
H1316 H 0.47662 0.75323 0.59407 0.0
H1317 H 0.38468 0.77685 0.58789 0.0
H1318 H 0.48237 0.82386 0.48018 0.0
H1319 H 0.54265 0.8648 0.45833 0.0
H1320 H 0.52508 0.95019 0.48072 0.0
H1321 H 0.46469 0.90961 0.50346 0.0
C1322 C 0.29445 0.76652 0.41257 0.0
C1323 C 0.28227 0.79 0.40823 0.0
C1324 C 0.32496 0.77564 0.43667 0.0
C1325 C 0.34365 0.80824 0.4578 0.0
C1326 C 0.33296 0.83279 0.45076 0.0
C1327 C 0.30225 0.82364 0.42623 0.0
C1328 C 0.37133 0.81419 0.49172 0.0
C1329 C 0.40594 0.83819 0.48147 0.0
C1330 C 0.36358 0.79281 0.53165 0.0
C1331 C 0.32726 0.76871 0.54586 0.0
C1332 C 0.30394 0.78099 0.55259 0.0
C1333 C 0.26947 0.75811 0.56438 0.0
C1334 C 0.25805 0.72288 0.56996 0.0
C1335 C 0.2811 0.71049 0.56387 0.0
C1336 C 0.31558 0.73326 0.55194 0.0
C1337 C 0.50466 0.83772 0.62086 0.0
C1338 C 0.50436 0.80594 0.6202 0.0
C1339 C 0.47908 0.84144 0.5971 0.0
C1340 C 0.45269 0.81341 0.57252 0.0
C1341 C 0.45226 0.78171 0.5723 0.0
C1342 C 0.47782 0.77808 0.59552 0.0
C1343 C 0.42541 0.81645 0.54634 0.0
C1344 C 0.39068 0.79393 0.55806 0.0
C1345 C 0.43312 0.8395 0.50826 0.0
C1346 C 0.4692 0.86377 0.49404 0.0
C1347 C 0.49145 0.85138 0.48078 0.0
C1348 C 0.52564 0.87454 0.46817 0.0
C1349 C 0.53776 0.91013 0.46824 0.0
C1350 C 0.51567 0.92262 0.48077 0.0
C1351 C 0.48147 0.89956 0.49352 0.0
H1352 H 0.56421 0.92808 0.4585 0.0
H1353 H 0.23134 0.70521 0.57906 0.0
H1354 H 0.66007 0.49487 1.00876 0.0
H1355 H 0.61005 0.4522 0.96369 0.0
H1356 H 0.67449 0.47651 0.84148 0.0
H1357 H 0.72403 0.51909 0.88596 0.0
H1358 H 0.61104 0.46839 0.82 0.0
H1359 H 0.65866 0.40869 0.90819 0.0
H1360 H 0.67601 0.39139 0.98063 0.0
H1361 H 0.57155 0.34417 0.03103 0.0
H1362 H 0.55371 0.36174 0.95915 0.0
H1363 H 0.54478 0.28686 0.72637 0.0
H1364 H 0.58092 0.34151 0.76697 0.0
H1365 H 0.49169 0.35343 0.78881 0.0
H1366 H 0.45553 0.29904 0.74685 0.0
H1367 H 0.55882 0.34507 0.86583 0.0
H1368 H 0.51519 0.41561 0.78046 0.0
H1369 H 0.50346 0.44107 0.71112 0.0
H1370 H 0.60356 0.46899 0.65575 0.0
H1371 H 0.61564 0.44334 0.72472 0.0
C1372 C 0.66335 0.49157 0.97216 0.0
C1373 C 0.69604 0.51024 0.95107 0.0
C1374 C 0.63483 0.46701 0.94647 0.0
C1375 C 0.63857 0.46099 0.89922 0.0
C1376 C 0.67091 0.48068 0.87781 0.0
C1377 C 0.69931 0.50484 0.90345 0.0
C1378 C 0.60975 0.43295 0.87222 0.0
C1379 C 0.59939 0.44142 0.83028 0.0
C1380 C 0.5943 0.39778 0.88566 0.0
C1381 C 0.60495 0.38691 0.9286 0.0
C1382 C 0.63945 0.39487 0.93489 0.0
C1383 C 0.64937 0.38498 0.97582 0.0
C1384 C 0.62492 0.36679 1.01048 0.0
C1385 C 0.59048 0.35834 1.0042 0.0
C1386 C 0.58045 0.36826 0.96339 0.0
C1387 C 0.53314 0.30182 0.73831 0.0
C1388 C 0.4975 0.28898 0.73286 0.0
C1389 C 0.55377 0.33299 0.76156 0.0
C1390 C 0.53915 0.3518 0.7806 0.0
C1391 C 0.50375 0.33988 0.77346 0.0
C1392 C 0.48306 0.30874 0.74945 0.0
C1393 C 0.56024 0.38052 0.81342 0.0
C1394 C 0.56962 0.37209 0.85629 0.0
C1395 C 0.57479 0.4157 0.80089 0.0
C1396 C 0.56591 0.42684 0.75701 0.0
C1397 C 0.53428 0.42636 0.75289 0.0
C1398 C 0.52776 0.4412 0.71396 0.0
C1399 C 0.55277 0.45669 0.67907 0.0
C1400 C 0.58422 0.457 0.68279 0.0
C1401 C 0.59085 0.4422 0.72167 0.0
H1402 H 0.54774 0.46831 0.64906 0.0
H1403 H 0.63264 0.35915 0.04213 0.0
loop_
_geom_bond_atom_site_label_1
_geom_bond_atom_site_label_2
_geom_bond_distance
_geom_bond_site_symmetry_2
_ccdc_geom_bond_type
Tb0 N31 2.660 . S
Tb0 N38 2.600 . S
Tb0 O44 2.546 . S
Tb0 O45 2.610 . S
Tb0 O47 2.320 . S
Tb0 O48 2.552 . S
Tb0 O49 2.413 . S
Tb0 O51 2.362 1_556 S
Tb0 O52 2.415 1_556 S
Tb0 C64 2.833 . S
C1 C4 1.432 . S
C1 C5 1.414 . S
C1 N8 1.359 . S
C2 C4 1.417 . S
C2 C6 1.432 . S
C2 C14 1.410 . S
C3 C5 1.444 . S
C3 C6 1.317 . S
C3 H26 0.929 . S
C4 C1 1.432 . S
C4 C2 1.417 . S
C4 N12 1.360 . S
C5 C1 1.414 . S
C5 C3 1.444 . S
C5 C10 1.385 . S
C6 C2 1.432 . S
C6 C3 1.317 . S
C6 H18 0.930 . S
C7 C9 1.392 . S
C7 C10 1.370 . S
C7 H19 0.931 . S
N8 C1 1.359 . S
N8 C9 1.327 . S
N8 Tb11 2.600 . S
C9 C7 1.392 . S
C9 N8 1.327 . S
C9 H16 0.930 . S
C10 C5 1.385 . S
C10 C7 1.370 . S
C10 H29 0.930 . S
Tb11 N8 2.600 . S
Tb11 N12 2.660 . S
Tb11 O45 2.362 1_554 S
Tb11 O46 2.421 . S
Tb11 O50 2.546 . S
Tb11 O51 2.610 . S
Tb11 O53 2.320 . S
Tb11 O54 2.552 . S
Tb11 O55 2.413 . S
Tb11 C75 2.833 . S
N12 C4 1.360 . S
N12 Tb11 2.660 . S
N12 C13 1.305 . S
C13 N12 1.305 . S
C13 C15 1.407 . S
C13 H20 0.930 . S
C14 C2 1.410 . S
C14 C15 1.345 . S
C14 H22 0.930 . S
C15 C13 1.407 . S
C15 C14 1.345 . S
C15 H17 0.930 . S
H16 C9 0.930 . S
H17 C15 0.930 . S
H18 C6 0.930 . S
H19 C7 0.931 . S
H20 C13 0.930 . S
H21 C35 0.930 . S
H22 C14 0.930 . S
H23 C41 0.930 . S
H24 C32 0.930 . S
H25 C39 0.931 . S
H26 C3 0.929 . S
H27 C33 0.930 . S
H28 C66 0.930 . S
H29 C10 0.930 . S
H30 C65 0.929 . S
N31 Tb0 2.660 . S
N31 C32 1.305 . S
N31 C36 1.360 . S
C32 H24 0.930 . S
C32 N31 1.305 . S
C32 C35 1.407 . S
C33 H27 0.930 . S
C33 C34 1.410 . S
C33 C35 1.345 . S
C34 C33 1.410 . S
C34 C36 1.417 . S
C34 C66 1.432 . S
C35 H21 0.930 . S
C35 C32 1.407 . S
C35 C33 1.345 . S
C36 N31 1.360 . S
C36 C34 1.417 . S
C36 C40 1.432 . S
H37 C42 0.930 . S
N38 Tb0 2.600 . S
N38 C40 1.359 . S
N38 C41 1.327 . S
C39 H25 0.931 . S
C39 C41 1.392 . S
C39 C42 1.370 . S
C40 C36 1.432 . S
C40 N38 1.359 . S
C40 C43 1.414 . S
C41 H23 0.930 . S
C41 N38 1.327 . S
C41 C39 1.392 . S
C42 H37 0.930 . S
C42 C39 1.370 . S
C42 C43 1.385 . S
C43 C40 1.414 . S
C43 C42 1.385 . S
C43 C65 1.444 . S
O44 Tb0 2.546 . S
O44 C64 1.251 . S
O45 Tb0 2.610 . S
O45 Tb11 2.362 1_556 S
O45 C56 1.283 . S
O46 Tb11 2.421 . S
O46 C63 1.262 1_554 S
O47 Tb0 2.320 . S
O47 C63 1.260 . S
O48 Tb0 2.552 . S
O48 C56 1.243 . S
O49 Tb0 2.413 . S
O49 C64 1.256 . S
O50 Tb11 2.546 . S
O50 C75 1.251 . S
O51 Tb0 2.362 1_554 S
O51 Tb11 2.610 . S
O51 C67 1.283 . S
O52 Tb0 2.415 1_554 S
O52 C74 1.271 . S
O53 Tb11 2.320 . S
O53 C74 1.260 . S
O54 Tb11 2.552 . S
O54 C67 1.243 . S
O55 Tb11 2.413 . S
O55 C75 1.256 . S
C56 O45 1.283 . S
C56 O48 1.243 . S
C57 C59 1.382 . S
C57 C61 1.393 . S
C57 C64 1.500 . S
C58 C59 1.400 . S
C58 C60 1.384 . S
C59 C57 1.382 . S
C59 C58 1.400 . S
C59 H76 0.930 . S
C60 C58 1.384 . S
C60 C62 1.392 . S
C60 H77 0.931 . S
C61 C57 1.393 . S
C61 C62 1.401 . S
C61 H78 0.930 . S
C62 C60 1.392 . S
C62 C61 1.401 . S
C62 H79 0.930 . S
C63 O46 1.262 1_556 S
C63 O47 1.260 . S
C64 Tb0 2.833 . S
C64 O44 1.251 . S
C64 O49 1.256 . S
C64 C57 1.500 . S
C65 H30 0.929 . S
C65 C43 1.444 . S
C65 C66 1.317 . S
C66 H28 0.930 . S
C66 C34 1.432 . S
C66 C65 1.317 . S
C67 O51 1.283 . S
C67 O54 1.243 . S
C68 C69 1.382 . S
C68 C72 1.393 . S
C68 C75 1.500 . S
C69 C68 1.382 . S
C69 C70 1.400 . S
C69 H80 0.930 . S
C70 C69 1.400 . S
C70 C71 1.384 . S
C71 C70 1.384 . S
C71 C73 1.392 . S
C71 H81 0.931 . S
C72 C68 1.393 . S
C72 C73 1.401 . S
C72 H82 0.930 . S
C73 C71 1.392 . S
C73 C72 1.401 . S
C73 H83 0.930 . S
C74 O52 1.271 . S
C74 O53 1.260 . S
C75 Tb11 2.833 . S
C75 O50 1.251 . S
C75 O55 1.256 . S
C75 C68 1.500 . S
H76 C59 0.930 . S
H77 C60 0.931 . S
H78 C61 0.930 . S
H79 C62 0.930 . S
H80 C69 0.930 . S
H81 C71 0.931 . S
H82 C72 0.930 . S
H83 C73 0.930 . S
Tb84 N115 2.660 . S
Tb84 N122 2.600 . S
Tb84 O128 2.546 . S
Tb84 O129 2.610 . S
Tb84 O131 2.320 . S
Tb84 O132 2.552 . S
Tb84 O133 2.413 . S
Tb84 O135 2.362 . S
Tb84 O136 2.421 . S
Tb84 C148 2.833 . S
C85 C88 1.432 . S
C85 C89 1.414 . S
C85 N92 1.359 . S
C86 C88 1.417 . S
C86 C90 1.432 . S
C86 C98 1.410 . S
C87 C89 1.444 . S
C87 C90 1.317 . S
C87 H110 0.929 . S
C88 C85 1.432 . S
C88 C86 1.417 . S
C88 N96 1.360 . S
C89 C85 1.414 . S
C89 C87 1.444 . S
C89 C94 1.385 . S
C90 C86 1.432 . S
C90 C87 1.317 . S
C90 H102 0.930 . S
C91 C93 1.392 . S
C91 C94 1.370 . S
C91 H103 0.931 . S
N92 C85 1.359 . S
N92 C93 1.327 . S
N92 Tb95 2.600 . S
C93 C91 1.392 . S
C93 N92 1.327 . S
C93 H100 0.930 . S
C94 C89 1.385 . S
C94 C91 1.370 . S
C94 H113 0.930 . S
Tb95 N92 2.600 . S
Tb95 N96 2.660 . S
Tb95 O129 2.362 . S
Tb95 O130 2.421 . S
Tb95 O134 2.546 . S
Tb95 O135 2.610 . S
Tb95 O137 2.320 . S
Tb95 O138 2.552 . S
Tb95 O139 2.413 . S
Tb95 C159 2.833 . S
N96 C88 1.360 . S
N96 Tb95 2.660 . S
N96 C97 1.305 . S
C97 N96 1.305 . S
C97 C99 1.407 . S
C97 H104 0.930 . S
C98 C86 1.410 . S
C98 C99 1.345 . S
C98 H106 0.930 . S
C99 C97 1.407 . S
C99 C98 1.345 . S
C99 H101 0.930 . S
H100 C93 0.930 . S
H101 C99 0.930 . S
H102 C90 0.930 . S
H103 C91 0.931 . S
H104 C97 0.930 . S
H105 C119 0.930 . S
H106 C98 0.930 . S
H107 C125 0.930 . S
H108 C116 0.930 . S
H109 C123 0.931 . S
H110 C87 0.929 . S
H111 C117 0.930 . S
H112 C150 0.930 . S
H113 C94 0.930 . S
H114 C149 0.929 . S
N115 Tb84 2.660 . S
N115 C116 1.305 . S
N115 C120 1.360 . S
C116 H108 0.930 . S
C116 N115 1.305 . S
C116 C119 1.407 . S
C117 H111 0.930 . S
C117 C118 1.410 . S
C117 C119 1.345 . S
C118 C117 1.410 . S
C118 C120 1.417 . S
C118 C150 1.432 . S
C119 H105 0.930 . S
C119 C116 1.407 . S
C119 C117 1.345 . S
C120 N115 1.360 . S
C120 C118 1.417 . S
C120 C124 1.432 . S
H121 C126 0.930 . S
N122 Tb84 2.600 . S
N122 C124 1.359 . S
N122 C125 1.327 . S
C123 H109 0.931 . S
C123 C125 1.392 . S
C123 C126 1.370 . S
C124 C120 1.432 . S
C124 N122 1.359 . S
C124 C127 1.414 . S
C125 H107 0.930 . S
C125 N122 1.327 . S
C125 C123 1.392 . S
C126 H121 0.930 . S
C126 C123 1.370 . S
C126 C127 1.385 . S
C127 C124 1.414 . S
C127 C126 1.385 . S
C127 C149 1.444 . S
O128 Tb84 2.546 . S
O128 C148 1.251 . S
O129 Tb84 2.610 . S
O129 Tb95 2.362 . S
O129 C140 1.283 . S
O130 Tb95 2.421 . S
O130 C147 1.262 . S
O131 Tb84 2.320 . S
O131 C147 1.260 . S
O132 Tb84 2.552 . S
O132 C140 1.243 . S
O133 Tb84 2.413 . S
O133 C148 1.256 . S
O134 Tb95 2.546 . S
O134 C159 1.251 . S
O135 Tb84 2.362 . S
O135 Tb95 2.610 . S
O135 C151 1.283 . S
O136 Tb84 2.421 . S
O136 C158 1.262 . S
O137 Tb95 2.320 . S
O137 C158 1.260 . S
O138 Tb95 2.552 . S
O138 C151 1.243 . S
O139 Tb95 2.413 . S
O139 C159 1.256 . S
C140 O129 1.283 . S
C140 O132 1.243 . S
C141 C143 1.382 . S
C141 C145 1.393 . S
C141 C148 1.500 . S
C142 C143 1.400 . S
C142 C144 1.384 . S
C143 C141 1.382 . S
C143 C142 1.400 . S
C143 H160 0.930 . S
C144 C142 1.384 . S
C144 C146 1.392 . S
C144 H161 0.931 . S
C145 C141 1.393 . S
C145 C146 1.401 . S
C145 H162 0.930 . S
C146 C144 1.392 . S
C146 C145 1.401 . S
C146 H163 0.930 . S
C147 O130 1.262 . S
C147 O131 1.260 . S
C148 Tb84 2.833 . S
C148 O128 1.251 . S
C148 O133 1.256 . S
C148 C141 1.500 . S
C149 H114 0.929 . S
C149 C127 1.444 . S
C149 C150 1.317 . S
C150 H112 0.930 . S
C150 C118 1.432 . S
C150 C149 1.317 . S
C151 O135 1.283 . S
C151 O138 1.243 . S
C152 C153 1.382 . S
C152 C156 1.393 . S
C152 C159 1.500 . S
C153 C152 1.382 . S
C153 C154 1.400 . S
C153 H164 0.930 . S
C154 C153 1.400 . S
C154 C155 1.384 . S
C155 C154 1.384 . S
C155 C157 1.392 . S
C155 H165 0.931 . S
C156 C152 1.393 . S
C156 C157 1.401 . S
C156 H166 0.930 . S
C157 C155 1.392 . S
C157 C156 1.401 . S
C157 H167 0.930 . S
C158 O136 1.262 . S
C158 O137 1.260 . S
C159 Tb95 2.833 . S
C159 O134 1.251 . S
C159 O139 1.256 . S
C159 C152 1.500 . S
H160 C143 0.930 . S
H161 C144 0.931 . S
H162 C145 0.930 . S
H163 C146 0.930 . S
H164 C153 0.930 . S
H165 C155 0.931 . S
H166 C156 0.930 . S
H167 C157 0.930 . S
Tb168 N199 2.660 . S
Tb168 N206 2.600 . S
Tb168 O212 2.546 . S
Tb168 O213 2.610 . S
Tb168 O215 2.320 . S
Tb168 O216 2.552 . S
Tb168 O217 2.413 . S
Tb168 O219 2.362 . S
Tb168 O220 2.421 . S
Tb168 C232 2.833 . S
C169 C172 1.432 . S
C169 C173 1.414 . S
C169 N176 1.359 . S
C170 C172 1.417 . S
C170 C174 1.432 . S
C170 C182 1.410 . S
C171 C173 1.444 . S
C171 C174 1.317 . S
C171 H194 0.929 . S
C172 C169 1.432 . S
C172 C170 1.417 . S
C172 N180 1.360 . S
C173 C169 1.414 . S
C173 C171 1.444 . S
C173 C178 1.385 . S
C174 C170 1.432 . S
C174 C171 1.317 . S
C174 H186 0.930 . S
C175 C177 1.392 . S
C175 C178 1.370 . S
C175 H187 0.931 . S
N176 C169 1.359 . S
N176 C177 1.327 . S
N176 Tb179 2.600 . S
C177 C175 1.392 . S
C177 N176 1.327 . S
C177 H184 0.930 . S
C178 C173 1.385 . S
C178 C175 1.370 . S
C178 H197 0.930 . S
Tb179 N176 2.600 . S
Tb179 N180 2.660 . S
Tb179 O213 2.362 . S
Tb179 O214 2.421 . S
Tb179 O218 2.546 . S
Tb179 O219 2.610 . S
Tb179 O221 2.320 . S
Tb179 O222 2.552 . S
Tb179 O223 2.413 . S
Tb179 C243 2.833 . S
N180 C172 1.360 . S
N180 Tb179 2.660 . S
N180 C181 1.305 . S
C181 N180 1.305 . S
C181 C183 1.407 . S
C181 H188 0.930 . S
C182 C170 1.410 . S
C182 C183 1.345 . S
C182 H190 0.930 . S
C183 C181 1.407 . S
C183 C182 1.345 . S
C183 H185 0.930 . S
H184 C177 0.930 . S
H185 C183 0.930 . S
H186 C174 0.930 . S
H187 C175 0.931 . S
H188 C181 0.930 . S
H189 C203 0.930 . S
H190 C182 0.930 . S
H191 C209 0.930 . S
H192 C200 0.930 . S
H193 C207 0.931 . S
H194 C171 0.929 . S
H195 C201 0.930 . S
H196 C234 0.930 . S
H197 C178 0.930 . S
H198 C233 0.929 . S
N199 Tb168 2.660 . S
N199 C200 1.305 . S
N199 C204 1.360 . S
C200 H192 0.930 . S
C200 N199 1.305 . S
C200 C203 1.407 . S
C201 H195 0.930 . S
C201 C202 1.410 . S
C201 C203 1.345 . S
C202 C201 1.410 . S
C202 C204 1.417 . S
C202 C234 1.432 . S
C203 H189 0.930 . S
C203 C200 1.407 . S
C203 C201 1.345 . S
C204 N199 1.360 . S
C204 C202 1.417 . S
C204 C208 1.432 . S
H205 C210 0.930 . S
N206 Tb168 2.600 . S
N206 C208 1.359 . S
N206 C209 1.327 . S
C207 H193 0.931 . S
C207 C209 1.392 . S
C207 C210 1.370 . S
C208 C204 1.432 . S
C208 N206 1.359 . S
C208 C211 1.414 . S
C209 H191 0.930 . S
C209 N206 1.327 . S
C209 C207 1.392 . S
C210 H205 0.930 . S
C210 C207 1.370 . S
C210 C211 1.385 . S
C211 C208 1.414 . S
C211 C210 1.385 . S
C211 C233 1.444 . S
O212 Tb168 2.546 . S
O212 C232 1.251 . S
O213 Tb168 2.610 . S
O213 Tb179 2.362 . S
O213 C224 1.283 . S
O214 Tb179 2.421 . S
O214 C231 1.262 . S
O215 Tb168 2.320 . S
O215 C231 1.260 . S
O216 Tb168 2.552 . S
O216 C224 1.243 . S
O217 Tb168 2.413 . S
O217 C232 1.256 . S
O218 Tb179 2.546 . S
O218 C243 1.251 . S
O219 Tb168 2.362 . S
O219 Tb179 2.610 . S
O219 C235 1.283 . S
O220 Tb168 2.421 . S
O220 C242 1.262 . S
O221 Tb179 2.320 . S
O221 C242 1.260 . S
O222 Tb179 2.552 . S
O222 C235 1.243 . S
O223 Tb179 2.413 . S
O223 C243 1.256 . S
C224 O213 1.283 . S
C224 O216 1.243 . S
C225 C227 1.382 . S
C225 C229 1.393 . S
C225 C232 1.500 . S
C226 C227 1.400 . S
C226 C228 1.384 . S
C227 C225 1.382 . S
C227 C226 1.400 . S
C227 H244 0.930 . S
C228 C226 1.384 . S
C228 C230 1.392 . S
C228 H245 0.931 . S
C229 C225 1.393 . S
C229 C230 1.401 . S
C229 H246 0.930 . S
C230 C228 1.392 . S
C230 C229 1.401 . S
C230 H247 0.930 . S
C231 O214 1.262 . S
C231 O215 1.260 . S
C232 Tb168 2.833 . S
C232 O212 1.251 . S
C232 O217 1.256 . S
C232 C225 1.500 . S
C233 H198 0.929 . S
C233 C211 1.444 . S
C233 C234 1.317 . S
C234 H196 0.930 . S
C234 C202 1.432 . S
C234 C233 1.317 . S
C235 O219 1.283 . S
C235 O222 1.243 . S
C236 C237 1.382 . S
C236 C240 1.393 . S
C236 C243 1.500 . S
C237 C236 1.382 . S
C237 C238 1.400 . S
C237 H248 0.930 . S
C238 C237 1.400 . S
C238 C239 1.384 . S
C239 C238 1.384 . S
C239 C241 1.392 . S
C239 H249 0.931 . S
C240 C236 1.393 . S
C240 C241 1.401 . S
C240 H250 0.930 . S
C241 C239 1.392 . S
C241 C240 1.401 . S
C241 H251 0.930 . S
C242 O220 1.262 . S
C242 O221 1.260 . S
C243 Tb179 2.833 . S
C243 O218 1.251 . S
C243 O223 1.256 . S
C243 C236 1.500 . S
H244 C227 0.930 . S
H245 C228 0.931 . S
H246 C229 0.930 . S
H247 C230 0.930 . S
H248 C237 0.930 . S
H249 C239 0.931 . S
H250 C240 0.930 . S
H251 C241 0.930 . S
Tb252 N283 2.660 . S
Tb252 N290 2.600 . S
Tb252 O296 2.546 . S
Tb252 O297 2.610 . S
Tb252 O299 2.320 . S
Tb252 O300 2.552 . S
Tb252 O301 2.413 . S
Tb252 O303 2.362 1_556 S
Tb252 O304 2.415 1_556 S
Tb252 C316 2.833 . S
C253 C256 1.432 . S
C253 C257 1.414 . S
C253 N260 1.359 . S
C254 C256 1.417 . S
C254 C258 1.432 . S
C254 C266 1.410 . S
C255 C257 1.444 . S
C255 C258 1.317 . S
C255 H278 0.929 . S
C256 C253 1.432 . S
C256 C254 1.417 . S
C256 N264 1.360 . S
C257 C253 1.414 . S
C257 C255 1.444 . S
C257 C262 1.385 . S
C258 C254 1.432 . S
C258 C255 1.317 . S
C258 H270 0.930 . S
C259 C261 1.392 . S
C259 C262 1.370 . S
C259 H271 0.931 . S
N260 C253 1.359 . S
N260 C261 1.327 . S
N260 Tb263 2.600 . S
C261 C259 1.392 . S
C261 N260 1.327 . S
C261 H268 0.930 . S
C262 C257 1.385 . S
C262 C259 1.370 . S
C262 H281 0.930 . S
Tb263 N260 2.600 . S
Tb263 N264 2.660 . S
Tb263 O297 2.362 1_554 S
Tb263 O298 2.421 . S
Tb263 O302 2.546 . S
Tb263 O303 2.610 . S
Tb263 O305 2.320 . S
Tb263 O306 2.552 . S
Tb263 O307 2.413 . S
Tb263 C327 2.833 . S
N264 C256 1.360 . S
N264 Tb263 2.660 . S
N264 C265 1.305 . S
C265 N264 1.305 . S
C265 C267 1.407 . S
C265 H272 0.930 . S
C266 C254 1.410 . S
C266 C267 1.345 . S
C266 H274 0.930 . S
C267 C265 1.407 . S
C267 C266 1.345 . S
C267 H269 0.930 . S
H268 C261 0.930 . S
H269 C267 0.930 . S
H270 C258 0.930 . S
H271 C259 0.931 . S
H272 C265 0.930 . S
H273 C287 0.930 . S
H274 C266 0.930 . S
H275 C293 0.930 . S
H276 C284 0.930 . S
H277 C291 0.931 . S
H278 C255 0.929 . S
H279 C285 0.930 . S
H280 C318 0.930 . S
H281 C262 0.930 . S
H282 C317 0.929 . S
N283 Tb252 2.660 . S
N283 C284 1.305 . S
N283 C288 1.360 . S
C284 H276 0.930 . S
C284 N283 1.305 . S
C284 C287 1.407 . S
C285 H279 0.930 . S
C285 C286 1.410 . S
C285 C287 1.345 . S
C286 C285 1.410 . S
C286 C288 1.417 . S
C286 C318 1.432 . S
C287 H273 0.930 . S
C287 C284 1.407 . S
C287 C285 1.345 . S
C288 N283 1.360 . S
C288 C286 1.417 . S
C288 C292 1.432 . S
H289 C294 0.930 . S
N290 Tb252 2.600 . S
N290 C292 1.359 . S
N290 C293 1.327 . S
C291 H277 0.931 . S
C291 C293 1.392 . S
C291 C294 1.370 . S
C292 C288 1.432 . S
C292 N290 1.359 . S
C292 C295 1.414 . S
C293 H275 0.930 . S
C293 N290 1.327 . S
C293 C291 1.392 . S
C294 H289 0.930 . S
C294 C291 1.370 . S
C294 C295 1.385 . S
C295 C292 1.414 . S
C295 C294 1.385 . S
C295 C317 1.444 . S
O296 Tb252 2.546 . S
O296 C316 1.251 . S
O297 Tb252 2.610 . S
O297 Tb263 2.362 1_556 S
O297 C308 1.283 . S
O298 Tb263 2.421 . S
O298 C315 1.262 1_554 S
O299 Tb252 2.320 . S
O299 C315 1.260 . S
O300 Tb252 2.552 . S
O300 C308 1.243 . S
O301 Tb252 2.413 . S
O301 C316 1.256 . S
O302 Tb263 2.546 . S
O302 C327 1.251 . S
O303 Tb252 2.362 1_554 S
O303 Tb263 2.610 . S
O303 C319 1.283 . S
O304 Tb252 2.415 1_554 S
O304 C326 1.270 . S
O305 Tb263 2.320 . S
O305 C326 1.260 . S
O306 Tb263 2.552 . S
O306 C319 1.243 . S
O307 Tb263 2.413 . S
O307 C327 1.256 . S
C308 O297 1.283 . S
C308 O300 1.243 . S
C309 C311 1.382 . S
C309 C313 1.393 . S
C309 C316 1.500 . S
C310 C311 1.400 . S
C310 C312 1.384 . S
C311 C309 1.382 . S
C311 C310 1.400 . S
C311 H328 0.930 . S
C312 C310 1.384 . S
C312 C314 1.392 . S
C312 H329 0.931 . S
C313 C309 1.393 . S
C313 C314 1.401 . S
C313 H330 0.930 . S
C314 C312 1.392 . S
C314 C313 1.401 . S
C314 H331 0.930 . S
C315 O298 1.262 1_556 S
C315 O299 1.260 . S
C316 Tb252 2.833 . S
C316 O296 1.251 . S
C316 O301 1.256 . S
C316 C309 1.500 . S
C317 H282 0.929 . S
C317 C295 1.444 . S
C317 C318 1.317 . S
C318 H280 0.930 . S
C318 C286 1.432 . S
C318 C317 1.317 . S
C319 O303 1.283 . S
C319 O306 1.243 . S
C320 C321 1.382 . S
C320 C324 1.393 . S
C320 C327 1.500 . S
C321 C320 1.382 . S
C321 C322 1.400 . S
C321 H332 0.930 . S
C322 C321 1.400 . S
C322 C323 1.384 . S
C323 C322 1.384 . S
C323 C325 1.392 . S
C323 H333 0.931 . S
C324 C320 1.393 . S
C324 C325 1.401 . S
C324 H334 0.930 . S
C325 C323 1.392 . S
C325 C324 1.401 . S
C325 H335 0.930 . S
C326 O304 1.270 . S
C326 O305 1.260 . S
C327 Tb263 2.833 . S
C327 O302 1.251 . S
C327 O307 1.256 . S
C327 C320 1.500 . S
H328 C311 0.930 . S
H329 C312 0.931 . S
H330 C313 0.930 . S
H331 C314 0.930 . S
H332 C321 0.930 . S
H333 C323 0.931 . S
H334 C324 0.930 . S
H335 C325 0.930 . S
Tb336 N367 2.660 . S
Tb336 N374 2.600 . S
Tb336 O380 2.546 . S
Tb336 O381 2.610 . S
Tb336 O383 2.320 . S
Tb336 O384 2.552 . S
Tb336 O385 2.413 . S
Tb336 O387 2.362 . S
Tb336 O388 2.421 . S
Tb336 C400 2.833 . S
C337 C340 1.432 . S
C337 C341 1.414 . S
C337 N344 1.359 . S
C338 C340 1.417 . S
C338 C342 1.432 . S
C338 C350 1.410 . S
C339 C341 1.444 . S
C339 C342 1.317 . S
C339 H362 0.929 . S
C340 C337 1.432 . S
C340 C338 1.417 . S
C340 N348 1.360 . S
C341 C337 1.414 . S
C341 C339 1.444 . S
C341 C346 1.385 . S
C342 C338 1.432 . S
C342 C339 1.317 . S
C342 H354 0.930 . S
C343 C345 1.392 . S
C343 C346 1.370 . S
C343 H355 0.931 . S
N344 C337 1.359 . S
N344 C345 1.327 . S
N344 Tb347 2.600 . S
C345 C343 1.392 . S
C345 N344 1.327 . S
C345 H352 0.930 . S
C346 C341 1.385 . S
C346 C343 1.370 . S
C346 H365 0.930 . S
Tb347 N344 2.600 . S
Tb347 N348 2.660 . S
Tb347 O381 2.362 . S
Tb347 O382 2.421 . S
Tb347 O386 2.546 . S
Tb347 O387 2.610 . S
Tb347 O389 2.320 . S
Tb347 O390 2.552 . S
Tb347 O391 2.413 . S
Tb347 C411 2.833 . S
N348 C340 1.360 . S
N348 Tb347 2.660 . S
N348 C349 1.305 . S
C349 N348 1.305 . S
C349 C351 1.407 . S
C349 H356 0.930 . S
C350 C338 1.410 . S
C350 C351 1.345 . S
C350 H358 0.930 . S
C351 C349 1.407 . S
C351 C350 1.345 . S
C351 H353 0.930 . S
H352 C345 0.930 . S
H353 C351 0.930 . S
H354 C342 0.930 . S
H355 C343 0.931 . S
H356 C349 0.930 . S
H357 C371 0.930 . S
H358 C350 0.930 . S
H359 C377 0.930 . S
H360 C368 0.930 . S
H361 C375 0.931 . S
H362 C339 0.929 . S
H363 C369 0.930 . S
H364 C402 0.930 . S
H365 C346 0.930 . S
H366 C401 0.929 . S
N367 Tb336 2.660 . S
N367 C368 1.305 . S
N367 C372 1.360 . S
C368 H360 0.930 . S
C368 N367 1.305 . S
C368 C371 1.407 . S
C369 H363 0.930 . S
C369 C370 1.410 . S
C369 C371 1.345 . S
C370 C369 1.410 . S
C370 C372 1.417 . S
C370 C402 1.432 . S
C371 H357 0.930 . S
C371 C368 1.407 . S
C371 C369 1.345 . S
C372 N367 1.360 . S
C372 C370 1.417 . S
C372 C376 1.432 . S
H373 C378 0.930 . S
N374 Tb336 2.600 . S
N374 C376 1.359 . S
N374 C377 1.327 . S
C375 H361 0.931 . S
C375 C377 1.392 . S
C375 C378 1.370 . S
C376 C372 1.432 . S
C376 N374 1.359 . S
C376 C379 1.414 . S
C377 H359 0.930 . S
C377 N374 1.327 . S
C377 C375 1.392 . S
C378 H373 0.930 . S
C378 C375 1.370 . S
C378 C379 1.385 . S
C379 C376 1.414 . S
C379 C378 1.385 . S
C379 C401 1.444 . S
O380 Tb336 2.546 . S
O380 C400 1.251 . S
O381 Tb336 2.610 . S
O381 Tb347 2.362 . S
O381 C392 1.283 . S
O382 Tb347 2.421 . S
O382 C399 1.262 . S
O383 Tb336 2.320 . S
O383 C399 1.260 . S
O384 Tb336 2.552 . S
O384 C392 1.243 . S
O385 Tb336 2.413 . S
O385 C400 1.256 . S
O386 Tb347 2.546 . S
O386 C411 1.251 . S
O387 Tb336 2.362 . S
O387 Tb347 2.610 . S
O387 C403 1.283 . S
O388 Tb336 2.421 . S
O388 C410 1.262 . S
O389 Tb347 2.320 . S
O389 C410 1.260 . S
O390 Tb347 2.552 . S
O390 C403 1.243 . S
O391 Tb347 2.413 . S
O391 C411 1.256 . S
C392 O381 1.283 . S
C392 O384 1.243 . S
C393 C395 1.382 . S
C393 C397 1.393 . S
C393 C400 1.500 . S
C394 C395 1.400 . S
C394 C396 1.384 . S
C395 C393 1.382 . S
C395 C394 1.400 . S
C395 H412 0.930 . S
C396 C394 1.384 . S
C396 C398 1.392 . S
C396 H413 0.931 . S
C397 C393 1.393 . S
C397 C398 1.401 . S
C397 H414 0.930 . S
C398 C396 1.392 . S
C398 C397 1.401 . S
C398 H415 0.930 . S
C399 O382 1.262 . S
C399 O383 1.260 . S
C400 Tb336 2.833 . S
C400 O380 1.251 . S
C400 O385 1.256 . S
C400 C393 1.500 . S
C401 H366 0.929 . S
C401 C379 1.444 . S
C401 C402 1.317 . S
C402 H364 0.930 . S
C402 C370 1.432 . S
C402 C401 1.317 . S
C403 O387 1.283 . S
C403 O390 1.243 . S
C404 C405 1.382 . S
C404 C408 1.393 . S
C404 C411 1.500 . S
C405 C404 1.382 . S
C405 C406 1.400 . S
C405 H416 0.930 . S
C406 C405 1.400 . S
C406 C407 1.384 . S
C407 C406 1.384 . S
C407 C409 1.392 . S
C407 H417 0.931 . S
C408 C404 1.393 . S
C408 C409 1.401 . S
C408 H418 0.930 . S
C409 C407 1.392 . S
C409 C408 1.401 . S
C409 H419 0.930 . S
C410 O388 1.262 . S
C410 O389 1.260 . S
C411 Tb347 2.833 . S
C411 O386 1.251 . S
C411 O391 1.256 . S
C411 C404 1.500 . S
H412 C395 0.930 . S
H413 C396 0.931 . S
H414 C397 0.930 . S
H415 C398 0.930 . S
H416 C405 0.930 . S
H417 C407 0.931 . S
H418 C408 0.930 . S
H419 C409 0.930 . S
Tb420 N451 2.660 . S
Tb420 N458 2.600 . S
Tb420 O464 2.546 . S
Tb420 O465 2.610 . S
Tb420 O467 2.320 . S
Tb420 O468 2.552 . S
Tb420 O469 2.413 . S
Tb420 O471 2.362 . S
Tb420 O472 2.421 . S
Tb420 C484 2.833 . S
C421 C424 1.432 . S
C421 C425 1.414 . S
C421 N428 1.359 . S
C422 C424 1.417 . S
C422 C426 1.432 . S
C422 C434 1.410 . S
C423 C425 1.444 . S
C423 C426 1.317 . S
C423 H446 0.929 . S
C424 C421 1.432 . S
C424 C422 1.417 . S
C424 N432 1.360 . S
C425 C421 1.414 . S
C425 C423 1.444 . S
C425 C430 1.385 . S
C426 C422 1.432 . S
C426 C423 1.317 . S
C426 H438 0.930 . S
C427 C429 1.392 . S
C427 C430 1.370 . S
C427 H439 0.931 . S
N428 C421 1.359 . S
N428 C429 1.327 . S
N428 Tb431 2.600 . S
C429 C427 1.392 . S
C429 N428 1.327 . S
C429 H436 0.930 . S
C430 C425 1.385 . S
C430 C427 1.370 . S
C430 H449 0.930 . S
Tb431 N428 2.600 . S
Tb431 N432 2.660 . S
Tb431 O465 2.362 . S
Tb431 O466 2.421 . S
Tb431 O470 2.546 . S
Tb431 O471 2.610 . S
Tb431 O473 2.320 . S
Tb431 O474 2.552 . S
Tb431 O475 2.413 . S
Tb431 C495 2.833 . S
N432 C424 1.360 . S
N432 Tb431 2.660 . S
N432 C433 1.305 . S
C433 N432 1.305 . S
C433 C435 1.407 . S
C433 H440 0.930 . S
C434 C422 1.410 . S
C434 C435 1.345 . S
C434 H442 0.930 . S
C435 C433 1.407 . S
C435 C434 1.345 . S
C435 H437 0.930 . S
H436 C429 0.930 . S
H437 C435 0.930 . S
H438 C426 0.930 . S
H439 C427 0.931 . S
H440 C433 0.930 . S
H441 C455 0.930 . S
H442 C434 0.930 . S
H443 C461 0.930 . S
H444 C452 0.930 . S
H445 C459 0.931 . S
H446 C423 0.929 . S
H447 C453 0.930 . S
H448 C486 0.930 . S
H449 C430 0.930 . S
H450 C485 0.929 . S
N451 Tb420 2.660 . S
N451 C452 1.305 . S
N451 C456 1.360 . S
C452 H444 0.930 . S
C452 N451 1.305 . S
C452 C455 1.407 . S
C453 H447 0.930 . S
C453 C454 1.410 . S
C453 C455 1.345 . S
C454 C453 1.410 . S
C454 C456 1.417 . S
C454 C486 1.432 . S
C455 H441 0.930 . S
C455 C452 1.407 . S
C455 C453 1.345 . S
C456 N451 1.360 . S
C456 C454 1.417 . S
C456 C460 1.432 . S
H457 C462 0.930 . S
N458 Tb420 2.600 . S
N458 C460 1.359 . S
N458 C461 1.327 . S
C459 H445 0.931 . S
C459 C461 1.392 . S
C459 C462 1.370 . S
C460 C456 1.432 . S
C460 N458 1.359 . S
C460 C463 1.414 . S
C461 H443 0.930 . S
C461 N458 1.327 . S
C461 C459 1.392 . S
C462 H457 0.930 . S
C462 C459 1.370 . S
C462 C463 1.385 . S
C463 C460 1.414 . S
C463 C462 1.385 . S
C463 C485 1.444 . S
O464 Tb420 2.546 . S
O464 C484 1.251 . S
O465 Tb420 2.610 . S
O465 Tb431 2.362 . S
O465 C476 1.283 . S
O466 Tb431 2.421 . S
O466 C483 1.262 . S
O467 Tb420 2.320 . S
O467 C483 1.260 . S
O468 Tb420 2.552 . S
O468 C476 1.243 . S
O469 Tb420 2.413 . S
O469 C484 1.256 . S
O470 Tb431 2.546 . S
O470 C495 1.251 . S
O471 Tb420 2.362 . S
O471 Tb431 2.610 . S
O471 C487 1.283 . S
O472 Tb420 2.421 . S
O472 C494 1.262 . S
O473 Tb431 2.320 . S
O473 C494 1.260 . S
O474 Tb431 2.552 . S
O474 C487 1.243 . S
O475 Tb431 2.413 . S
O475 C495 1.256 . S
C476 O465 1.283 . S
C476 O468 1.243 . S
C477 C479 1.382 . S
C477 C481 1.393 . S
C477 C484 1.500 . S
C478 C479 1.400 . S
C478 C480 1.384 . S
C479 C477 1.382 . S
C479 C478 1.400 . S
C479 H496 0.930 . S
C480 C478 1.384 . S
C480 C482 1.392 . S
C480 H497 0.931 . S
C481 C477 1.393 . S
C481 C482 1.401 . S
C481 H498 0.930 . S
C482 C480 1.392 . S
C482 C481 1.401 . S
C482 H499 0.930 . S
C483 O466 1.262 . S
C483 O467 1.260 . S
C484 Tb420 2.833 . S
C484 O464 1.251 . S
C484 O469 1.256 . S
C484 C477 1.500 . S
C485 H450 0.929 . S
C485 C463 1.444 . S
C485 C486 1.317 . S
C486 H448 0.930 . S
C486 C454 1.432 . S
C486 C485 1.317 . S
C487 O471 1.283 . S
C487 O474 1.243 . S
C488 C489 1.382 . S
C488 C492 1.393 . S
C488 C495 1.500 . S
C489 C488 1.382 . S
C489 C490 1.400 . S
C489 H500 0.930 . S
C490 C489 1.400 . S
C490 C491 1.384 . S
C491 C490 1.384 . S
C491 C493 1.392 . S
C491 H501 0.931 . S
C492 C488 1.393 . S
C492 C493 1.401 . S
C492 H502 0.930 . S
C493 C491 1.392 . S
C493 C492 1.401 . S
C493 H503 0.930 . S
C494 O472 1.262 . S
C494 O473 1.260 . S
C495 Tb431 2.833 . S
C495 O470 1.251 . S
C495 O475 1.256 . S
C495 C488 1.500 . S
H496 C479 0.930 . S
H497 C480 0.931 . S
H498 C481 0.930 . S
H499 C482 0.930 . S
H500 C489 0.930 . S
H501 C491 0.931 . S
H502 C492 0.930 . S
H503 C493 0.930 . S
H504 C522 0.951 . S
H505 C524 0.951 . S
H506 C526 0.950 . S
H507 C527 0.950 . S
H508 C529 0.950 . S
H509 C532 0.950 . S
H510 C533 0.950 . S
H511 C535 0.950 . S
H512 C536 0.950 . S
H513 C537 0.951 . S
H514 C539 0.951 . S
H515 C541 0.950 . S
H516 C542 0.950 . S
H517 C544 0.950 . S
H518 C547 0.950 . S
H519 C548 0.950 . S
H520 C550 0.950 . S
H521 C551 0.950 . S
C522 H504 0.951 . S
C522 C523 1.366 . S
C522 C524 1.388 . S
C523 C522 1.366 . S
C523 C527 1.385 . S
C524 H505 0.951 . S
C524 C522 1.388 . S
C524 C525 1.366 . S
C525 C524 1.366 . S
C525 C526 1.414 . S
C525 C528 1.499 . S
C526 H506 0.950 . S
C526 C525 1.414 . S
C526 C527 1.374 . S
C527 H507 0.950 . S
C527 C523 1.385 . S
C527 C526 1.374 . S
C528 C525 1.499 . S
C528 C529 1.373 . S
C528 C530 1.389 . S
C529 H508 0.950 . S
C529 C528 1.373 . S
C529 C545 1.377 . S
C530 C528 1.389 . S
C530 C531 1.524 . S
C530 C544 1.377 . S
C531 C530 1.524 . S
C531 C532 1.397 . S
C531 C536 1.363 . S
C532 H509 0.950 . S
C532 C531 1.397 . S
C532 C533 1.334 . S
C533 H510 0.950 . S
C533 C532 1.334 . S
C533 C534 1.287 . S
C534 C533 1.287 . S
C534 C535 1.524 . S
C534 H553 0.913 . S
C535 H511 0.950 . S
C535 C534 1.524 . S
C535 C536 1.415 . S
C536 H512 0.950 . S
C536 C531 1.363 . S
C536 C535 1.415 . S
C537 H513 0.951 . S
C537 C538 1.366 . S
C537 C539 1.388 . S
C538 C537 1.366 . S
C538 C542 1.385 . S
C539 H514 0.951 . S
C539 C537 1.388 . S
C539 C540 1.366 . S
C540 C539 1.366 . S
C540 C541 1.414 . S
C540 C543 1.499 . S
C541 H515 0.950 . S
C541 C540 1.414 . S
C541 C542 1.374 . S
C542 H516 0.950 . S
C542 C538 1.385 . S
C542 C541 1.374 . S
C543 C540 1.499 . S
C543 C544 1.373 . S
C543 C545 1.389 . S
C544 H517 0.950 . S
C544 C530 1.377 . S
C544 C543 1.373 . S
C545 C529 1.377 . S
C545 C543 1.389 . S
C545 C546 1.524 . S
C546 C545 1.524 . S
C546 C547 1.397 . S
C546 C551 1.363 . S
C547 H518 0.950 . S
C547 C546 1.397 . S
C547 C548 1.334 . S
C548 H519 0.950 . S
C548 C547 1.334 . S
C548 C549 1.287 . S
C549 C548 1.287 . S
C549 C550 1.524 . S
C549 H552 0.999 . S
C550 H520 0.950 . S
C550 C549 1.524 . S
C550 C551 1.415 . S
C551 H521 0.950 . S
C551 C546 1.363 . S
C551 C550 1.415 . S
H552 C549 0.999 . S
H553 C534 0.913 . S
H554 C572 0.951 . S
H555 C574 0.951 . S
H556 C576 0.950 . S
H557 C577 0.950 . S
H558 C579 0.950 . S
H559 C582 0.950 . S
H560 C583 0.950 . S
H561 C585 0.950 . S
H562 C586 0.950 1_655 S
H563 C587 0.951 . S
H564 C589 0.951 . S
H565 C591 0.950 . S
H566 C592 0.950 . S
H567 C594 0.950 . S
H568 C597 0.950 . S
H569 C598 0.950 . S
H570 C600 0.950 . S
H571 C601 0.950 1_455 S
C572 H554 0.951 . S
C572 C573 1.366 . S
C572 C574 1.388 . S
C573 C572 1.366 . S
C573 C577 1.385 . S
C574 H555 0.951 . S
C574 C572 1.388 . S
C574 C575 1.366 . S
C575 C574 1.366 . S
C575 C576 1.414 . S
C575 C578 1.499 . S
C576 H556 0.950 . S
C576 C575 1.414 . S
C576 C577 1.374 . S
C577 H557 0.950 . S
C577 C573 1.385 . S
C577 C576 1.374 . S
C578 C575 1.499 . S
C578 C579 1.373 . S
C578 C580 1.389 . S
C579 H558 0.950 . S
C579 C578 1.373 . S
C579 C595 1.377 1_455 S
C580 C578 1.389 . S
C580 C581 1.524 . S
C580 C594 1.377 1_455 S
C581 C580 1.524 . S
C581 C582 1.397 . S
C581 C586 1.363 . S
C582 H559 0.950 . S
C582 C581 1.397 . S
C582 C583 1.334 . S
C583 H560 0.950 . S
C583 C582 1.334 . S
C583 C584 1.287 . S
C584 C583 1.287 . S
C584 C585 1.524 . S
C584 H603 0.913 . S
C585 H561 0.950 . S
C585 C584 1.524 . S
C585 C586 1.415 . S
C586 H562 0.950 1_455 S
C586 C581 1.363 . S
C586 C585 1.415 . S
C587 H563 0.951 . S
C587 C588 1.366 . S
C587 C589 1.388 . S
C588 C587 1.366 . S
C588 C592 1.385 . S
C589 H564 0.951 . S
C589 C587 1.388 . S
C589 C590 1.366 . S
C590 C589 1.366 . S
C590 C591 1.414 . S
C590 C593 1.499 . S
C591 H565 0.950 . S
C591 C590 1.414 . S
C591 C592 1.374 . S
C592 H566 0.950 . S
C592 C588 1.385 . S
C592 C591 1.374 . S
C593 C590 1.499 . S
C593 C594 1.373 . S
C593 C595 1.389 . S
C594 H567 0.950 . S
C594 C580 1.377 1_655 S
C594 C593 1.373 . S
C595 C579 1.377 1_655 S
C595 C593 1.389 . S
C595 C596 1.524 . S
C596 C595 1.524 . S
C596 C597 1.397 . S
C596 C601 1.363 . S
C597 H568 0.950 . S
C597 C596 1.397 . S
C597 C598 1.334 . S
C598 H569 0.950 . S
C598 C597 1.334 . S
C598 C599 1.287 . S
C599 C598 1.287 . S
C599 C600 1.524 . S
C599 H602 0.999 . S
C600 H570 0.950 . S
C600 C599 1.524 . S
C600 C601 1.415 . S
C601 H571 0.950 1_655 S
C601 C596 1.363 . S
C601 C600 1.415 . S
H602 C599 0.999 . S
H603 C584 0.913 . S
H604 C622 0.951 . S
H605 C624 0.951 . S
H606 C626 0.950 . S
H607 C627 0.950 . S
H608 C629 0.950 . S
H609 C632 0.950 . S
H610 C633 0.950 . S
H611 C635 0.950 . S
H612 C636 0.950 . S
H613 C637 0.951 . S
H614 C639 0.951 . S
H615 C641 0.950 . S
H616 C642 0.950 . S
H617 C644 0.950 . S
H618 C647 0.950 . S
H619 C648 0.950 . S
H620 C650 0.950 . S
H621 C651 0.950 . S
C622 H604 0.951 . S
C622 C623 1.366 . S
C622 C624 1.388 . S
C623 C622 1.366 . S
C623 C627 1.385 . S
C624 H605 0.951 . S
C624 C622 1.388 . S
C624 C625 1.366 . S
C625 C624 1.366 . S
C625 C626 1.414 . S
C625 C628 1.499 . S
C626 H606 0.950 . S
C626 C625 1.414 . S
C626 C627 1.374 . S
C627 H607 0.950 . S
C627 C623 1.385 . S
C627 C626 1.374 . S
C628 C625 1.499 . S
C628 C629 1.373 1_545 S
C628 C630 1.389 . S
C629 H608 0.950 . S
C629 C628 1.373 1_565 S
C629 C645 1.377 . S
C630 C628 1.389 . S
C630 C631 1.524 . S
C630 C644 1.377 1_545 S
C631 C630 1.524 . S
C631 C632 1.397 . S
C631 C636 1.363 . S
C632 H609 0.950 . S
C632 C631 1.397 . S
C632 C633 1.334 . S
C633 H610 0.950 . S
C633 C632 1.334 . S
C633 C634 1.287 . S
C634 C633 1.287 . S
C634 C635 1.524 . S
C634 H653 0.913 . S
C635 H611 0.950 . S
C635 C634 1.524 . S
C635 C636 1.415 . S
C636 H612 0.950 . S
C636 C631 1.363 . S
C636 C635 1.415 . S
C637 H613 0.951 . S
C637 C638 1.366 . S
C637 C639 1.388 . S
C638 C637 1.366 . S
C638 C642 1.385 . S
C639 H614 0.951 . S
C639 C637 1.388 . S
C639 C640 1.366 . S
C640 C639 1.366 . S
C640 C641 1.414 . S
C640 C643 1.499 . S
C641 H615 0.950 . S
C641 C640 1.414 . S
C641 C642 1.374 . S
C642 H616 0.950 . S
C642 C638 1.385 . S
C642 C641 1.374 . S
C643 C640 1.499 . S
C643 C644 1.373 . S
C643 C645 1.389 . S
C644 H617 0.950 . S
C644 C630 1.377 1_565 S
C644 C643 1.373 . S
C645 C629 1.377 . S
C645 C643 1.389 . S
C645 C646 1.524 . S
C646 C645 1.524 . S
C646 C647 1.397 . S
C646 C651 1.363 . S
C647 H618 0.950 . S
C647 C646 1.397 . S
C647 C648 1.334 . S
C648 H619 0.950 . S
C648 C647 1.334 . S
C648 C649 1.287 . S
C649 C648 1.287 . S
C649 C650 1.524 . S
C649 H652 0.999 . S
C650 H620 0.950 . S
C650 C649 1.524 . S
C650 C651 1.415 . S
C651 H621 0.950 . S
C651 C646 1.363 . S
C651 C650 1.415 . S
H652 C649 0.999 . S
H653 C634 0.913 . S
H654 C672 0.951 . S
H655 C674 0.951 . S
H656 C676 0.950 . S
H657 C677 0.950 . S
H658 C679 0.950 . S
H659 C682 0.950 . S
H660 C683 0.950 . S
H661 C685 0.950 . S
H662 C686 0.950 . S
H663 C687 0.951 . S
H664 C689 0.951 . S
H665 C691 0.950 . S
H666 C692 0.950 . S
H667 C694 0.950 . S
H668 C697 0.950 . S
H669 C698 0.950 . S
H670 C700 0.950 . S
H671 C701 0.950 . S
C672 H654 0.951 . S
C672 C673 1.366 . S
C672 C674 1.388 . S
C673 C672 1.366 . S
C673 C677 1.385 . S
C674 H655 0.951 . S
C674 C672 1.388 . S
C674 C675 1.366 . S
C675 C674 1.366 . S
C675 C676 1.414 . S
C675 C678 1.499 . S
C676 H656 0.950 . S
C676 C675 1.414 . S
C676 C677 1.374 . S
C677 H657 0.950 . S
C677 C673 1.385 . S
C677 C676 1.374 . S
C678 C675 1.499 . S
C678 C679 1.373 . S
C678 C680 1.389 . S
C679 H658 0.950 . S
C679 C678 1.373 . S
C679 C695 1.377 . S
C680 C678 1.389 . S
C680 C681 1.524 . S
C680 C694 1.377 . S
C681 C680 1.524 . S
C681 C682 1.397 . S
C681 C686 1.363 . S
C682 H659 0.950 . S
C682 C681 1.397 . S
C682 C683 1.334 . S
C683 H660 0.950 . S
C683 C682 1.334 . S
C683 C684 1.287 . S
C684 C683 1.287 . S
C684 C685 1.524 . S
C684 H703 0.913 . S
C685 H661 0.950 . S
C685 C684 1.524 . S
C685 C686 1.415 . S
C686 H662 0.950 . S
C686 C681 1.363 . S
C686 C685 1.415 . S
C687 H663 0.951 . S
C687 C688 1.366 . S
C687 C689 1.388 . S
C688 C687 1.366 . S
C688 C692 1.385 . S
C689 H664 0.951 . S
C689 C687 1.388 . S
C689 C690 1.366 . S
C690 C689 1.366 . S
C690 C691 1.414 . S
C690 C693 1.499 . S
C691 H665 0.950 . S
C691 C690 1.414 . S
C691 C692 1.374 . S
C692 H666 0.950 . S
C692 C688 1.385 . S
C692 C691 1.374 . S
C693 C690 1.499 . S
C693 C694 1.373 . S
C693 C695 1.389 . S
C694 H667 0.950 . S
C694 C680 1.377 . S
C694 C693 1.373 . S
C695 C679 1.377 . S
C695 C693 1.389 . S
C695 C696 1.524 . S
C696 C695 1.524 . S
C696 C697 1.397 . S
C696 C701 1.363 . S
C697 H668 0.950 . S
C697 C696 1.397 . S
C697 C698 1.334 . S
C698 H669 0.950 . S
C698 C697 1.334 . S
C698 C699 1.287 . S
C699 C698 1.287 . S
C699 C700 1.524 . S
C699 H702 0.999 . S
C700 H670 0.950 . S
C700 C699 1.524 . S
C700 C701 1.415 . S
C701 H671 0.950 . S
C701 C696 1.363 . S
C701 C700 1.415 . S
H702 C699 0.999 . S
H703 C684 0.913 . S
H704 C722 0.951 . S
H705 C724 0.951 . S
H706 C726 0.950 . S
H707 C727 0.950 . S
H708 C729 0.950 . S
H709 C732 0.950 . S
H710 C733 0.950 . S
H711 C735 0.950 . S
H712 C736 0.950 . S
H713 C737 0.951 . S
H714 C739 0.951 . S
H715 C741 0.950 . S
H716 C742 0.950 . S
H717 C744 0.957 1_655 S
H718 C747 0.950 . S
H719 C748 0.950 . S
H720 C750 0.950 . S
H721 C751 0.950 . S
C722 H704 0.951 . S
C722 C723 1.366 . S
C722 C724 1.388 . S
C723 C722 1.366 . S
C723 C727 1.385 . S
C724 H705 0.951 . S
C724 C722 1.388 . S
C724 C725 1.366 . S
C725 C724 1.366 . S
C725 C726 1.414 . S
C725 C728 1.499 . S
C726 H706 0.950 . S
C726 C725 1.414 . S
C726 C727 1.374 . S
C727 H707 0.950 . S
C727 C723 1.385 . S
C727 C726 1.374 . S
C728 C725 1.499 . S
C728 C729 1.373 . S
C728 C730 1.389 . S
C729 H708 0.950 . S
C729 C728 1.373 . S
C729 C745 1.377 1_455 S
C730 C728 1.389 . S
C730 C731 1.524 . S
C730 C744 1.401 . S
C731 C730 1.524 . S
C731 C732 1.397 . S
C731 C736 1.363 . S
C732 H709 0.950 . S
C732 C731 1.397 . S
C732 C733 1.334 . S
C733 H710 0.950 . S
C733 C732 1.334 . S
C733 C734 1.287 . S
C734 C733 1.287 . S
C734 C735 1.524 . S
C734 H753 0.913 . S
C735 H711 0.950 . S
C735 C734 1.524 . S
C735 C736 1.415 . S
C736 H712 0.950 . S
C736 C731 1.363 . S
C736 C735 1.415 . S
C737 H713 0.951 . S
C737 C738 1.366 . S
C737 C739 1.388 . S
C738 C737 1.366 . S
C738 C742 1.385 . S
C739 H714 0.951 . S
C739 C737 1.388 . S
C739 C740 1.366 . S
C740 C739 1.366 . S
C740 C741 1.414 . S
C740 C743 1.499 . S
C741 H715 0.950 . S
C741 C740 1.414 . S
C741 C742 1.374 . S
C742 H716 0.950 . S
C742 C738 1.385 . S
C742 C741 1.374 . S
C743 C740 1.499 . S
C743 C744 1.345 1_655 S
C743 C745 1.389 . S
C744 H717 0.957 1_455 S
C744 C730 1.401 . S
C744 C743 1.345 1_455 S
C745 C729 1.377 1_655 S
C745 C743 1.389 . S
C745 C746 1.524 . S
C746 C745 1.524 . S
C746 C747 1.397 . S
C746 C751 1.363 . S
C747 H718 0.950 . S
C747 C746 1.397 . S
C747 C748 1.334 . S
C748 H719 0.950 . S
C748 C747 1.334 . S
C748 C749 1.287 . S
C749 C748 1.287 . S
C749 C750 1.524 . S
C749 H752 0.999 . S
C750 H720 0.950 . S
C750 C749 1.524 . S
C750 C751 1.415 . S
C751 H721 0.950 . S
C751 C746 1.363 . S
C751 C750 1.415 . S
H752 C749 0.999 . S
H753 C734 0.913 . S
H754 C772 0.951 . S
H755 C774 0.951 . S
H756 C776 0.950 . S
H757 C777 0.950 . S
H758 C779 0.950 . S
H759 C782 0.950 . S
H760 C783 0.950 . S
H761 C785 0.950 . S
H762 C786 0.950 1_565 S
H763 C787 0.951 . S
H764 C789 0.951 . S
H765 C791 0.950 . S
H766 C792 0.950 . S
H767 C794 0.950 . S
H768 C797 0.950 . S
H769 C798 0.950 . S
H770 C800 0.950 . S
H771 C801 0.950 1_545 S
C772 H754 0.951 . S
C772 C773 1.366 . S
C772 C774 1.388 . S
C773 C772 1.366 . S
C773 C777 1.385 . S
C774 H755 0.951 . S
C774 C772 1.388 . S
C774 C775 1.366 . S
C775 C774 1.366 . S
C775 C776 1.414 . S
C775 C778 1.499 . S
C776 H756 0.950 . S
C776 C775 1.414 . S
C776 C777 1.374 . S
C777 H757 0.950 . S
C777 C773 1.385 . S
C777 C776 1.374 . S
C778 C775 1.499 . S
C778 C779 1.373 . S
C778 C780 1.389 . S
C779 H758 0.950 . S
C779 C778 1.373 . S
C779 C795 1.377 1_545 S
C780 C778 1.389 . S
C780 C781 1.524 . S
C780 C794 1.377 1_545 S
C781 C780 1.524 . S
C781 C782 1.397 . S
C781 C786 1.363 . S
C782 H759 0.950 . S
C782 C781 1.397 . S
C782 C783 1.334 . S
C783 H760 0.950 . S
C783 C782 1.334 . S
C783 C784 1.287 . S
C784 C783 1.287 . S
C784 C785 1.524 . S
C784 H803 0.913 . S
C785 H761 0.950 . S
C785 C784 1.524 . S
C785 C786 1.415 . S
C786 H762 0.950 1_545 S
C786 C781 1.363 . S
C786 C785 1.415 . S
C787 H763 0.951 . S
C787 C788 1.366 . S
C787 C789 1.388 . S
C788 C787 1.366 . S
C788 C792 1.385 . S
C789 H764 0.951 . S
C789 C787 1.388 . S
C789 C790 1.366 . S
C790 C789 1.366 . S
C790 C791 1.414 . S
C790 C793 1.499 . S
C791 H765 0.950 . S
C791 C790 1.414 . S
C791 C792 1.374 . S
C792 H766 0.950 . S
C792 C788 1.385 . S
C792 C791 1.374 . S
C793 C790 1.499 . S
C793 C794 1.373 . S
C793 C795 1.389 . S
C794 H767 0.950 . S
C794 C780 1.377 1_565 S
C794 C793 1.373 . S
C795 C779 1.377 1_565 S
C795 C793 1.389 . S
C795 C796 1.524 . S
C796 C795 1.524 . S
C796 C797 1.397 . S
C796 C801 1.363 . S
C797 H768 0.950 . S
C797 C796 1.397 . S
C797 C798 1.334 . S
C798 H769 0.950 . S
C798 C797 1.334 . S
C798 C799 1.287 . S
C799 C798 1.287 . S
C799 C800 1.524 . S
C799 H802 0.999 . S
C800 H770 0.950 . S
C800 C799 1.524 . S
C800 C801 1.415 . S
C801 H771 0.950 1_565 S
C801 C796 1.363 . S
C801 C800 1.415 . S
H802 C799 0.999 . S
H803 C784 0.913 . S
H804 C822 0.951 . S
H805 C824 0.951 . S
H806 C826 0.950 . S
H807 C827 0.950 . S
H808 C829 0.950 . S
H809 C832 0.950 . S
H810 C833 0.950 . S
H811 C835 0.950 . S
H812 C836 0.950 . S
H813 C837 0.951 . S
H814 C839 0.951 . S
H815 C841 0.950 . S
H816 C842 0.950 . S
H817 C844 0.950 . S
H818 C847 0.950 . S
H819 C848 0.950 . S
H820 C850 0.950 . S
H821 C851 0.950 . S
C822 H804 0.951 . S
C822 C823 1.366 . S
C822 C824 1.388 . S
C823 C822 1.366 . S
C823 C827 1.385 . S
C824 H805 0.951 . S
C824 C822 1.388 . S
C824 C825 1.366 . S
C825 C824 1.366 . S
C825 C826 1.414 . S
C825 C828 1.499 . S
C826 H806 0.950 . S
C826 C825 1.414 . S
C826 C827 1.374 . S
C827 H807 0.950 . S
C827 C823 1.385 . S
C827 C826 1.374 . S
C828 C825 1.499 . S
C828 C829 1.373 . S
C828 C830 1.389 . S
C829 H808 0.950 . S
C829 C828 1.373 . S
C829 C845 1.377 . S
C830 C828 1.389 . S
C830 C831 1.524 . S
C830 C844 1.377 . S
C831 C830 1.524 . S
C831 C832 1.397 . S
C831 C836 1.363 . S
C832 H809 0.950 . S
C832 C831 1.397 . S
C832 C833 1.334 . S
C833 H810 0.950 . S
C833 C832 1.334 . S
C833 C834 1.287 . S
C834 C833 1.287 . S
C834 C835 1.524 . S
C834 H853 0.913 . S
C835 H811 0.950 . S
C835 C834 1.524 . S
C835 C836 1.415 . S
C836 H812 0.950 . S
C836 C831 1.363 . S
C836 C835 1.415 . S
C837 H813 0.951 . S
C837 C838 1.366 . S
C837 C839 1.388 . S
C838 C837 1.366 . S
C838 C842 1.385 . S
C839 H814 0.951 . S
C839 C837 1.388 . S
C839 C840 1.366 . S
C840 C839 1.366 . S
C840 C841 1.414 . S
C840 C843 1.499 . S
C841 H815 0.950 . S
C841 C840 1.414 . S
C841 C842 1.374 . S
C842 H816 0.950 . S
C842 C838 1.385 . S
C842 C841 1.374 . S
C843 C840 1.499 . S
C843 C844 1.373 . S
C843 C845 1.389 . S
C844 H817 0.950 . S
C844 C830 1.377 . S
C844 C843 1.373 . S
C845 C829 1.377 . S
C845 C843 1.389 . S
C845 C846 1.524 . S
C846 C845 1.524 . S
C846 C847 1.397 . S
C846 C851 1.363 . S
C847 H818 0.950 . S
C847 C846 1.397 . S
C847 C848 1.334 . S
C848 H819 0.950 . S
C848 C847 1.334 . S
C848 C849 1.287 . S
C849 C848 1.287 . S
C849 C850 1.524 . S
C849 H852 0.999 . S
C850 H820 0.950 . S
C850 C849 1.524 . S
C850 C851 1.415 . S
C851 H821 0.950 . S
C851 C846 1.363 . S
C851 C850 1.415 . S
H852 C849 0.999 . S
H853 C834 0.913 . S
H854 C872 0.951 . S
H855 C874 0.951 . S
H856 C876 0.950 . S
H857 C877 0.959 . S
H858 C879 0.950 . S
H859 C882 0.950 . S
H860 C883 0.950 . S
H861 C885 0.950 . S
H862 C886 0.950 . S
H863 C887 0.951 . S
H864 C889 0.951 . S
H865 C891 0.950 . S
H866 C892 0.950 . S
H867 C894 0.950 . S
H868 C897 0.950 . S
H869 C898 0.950 . S
H870 C900 0.950 . S
H871 C901 0.950 . S
C872 H854 0.951 . S
C872 C873 1.366 . S
C872 C874 1.388 1_554 S
C873 C872 1.366 . S
C873 C877 1.395 . S
C874 H855 0.951 . S
C874 C872 1.388 1_556 S
C874 C875 1.366 . S
C875 C874 1.366 . S
C875 C876 1.414 . S
C875 C878 1.499 . S
C876 H856 0.950 . S
C876 C875 1.414 . S
C876 C877 1.355 1_556 S
C877 H857 0.959 . S
C877 C873 1.395 . S
C877 C876 1.355 1_554 S
C878 C875 1.499 . S
C878 C879 1.373 . S
C878 C880 1.389 . S
C879 H858 0.950 . S
C879 C878 1.373 . S
C879 C895 1.377 . S
C880 C878 1.389 . S
C880 C881 1.524 . S
C880 C894 1.377 . S
C881 C880 1.524 . S
C881 C882 1.397 . S
C881 C886 1.363 . S
C882 H859 0.950 . S
C882 C881 1.397 . S
C882 C883 1.334 . S
C883 H860 0.950 . S
C883 C882 1.334 . S
C883 C884 1.287 . S
C884 C883 1.287 . S
C884 C885 1.524 . S
C884 H903 0.913 . S
C885 H861 0.950 . S
C885 C884 1.524 . S
C885 C886 1.415 . S
C886 H862 0.950 . S
C886 C881 1.363 . S
C886 C885 1.415 . S
C887 H863 0.951 . S
C887 C888 1.366 . S
C887 C889 1.388 . S
C888 C887 1.366 . S
C888 C892 1.385 . S
C889 H864 0.951 . S
C889 C887 1.388 . S
C889 C890 1.366 . S
C890 C889 1.366 . S
C890 C891 1.414 . S
C890 C893 1.499 . S
C891 H865 0.950 . S
C891 C890 1.414 . S
C891 C892 1.374 . S
C892 H866 0.950 . S
C892 C888 1.385 . S
C892 C891 1.374 . S
C893 C890 1.499 . S
C893 C894 1.373 . S
C893 C895 1.389 . S
C894 H867 0.950 . S
C894 C880 1.377 . S
C894 C893 1.373 . S
C895 C879 1.377 . S
C895 C893 1.389 . S
C895 C896 1.524 . S
C896 C895 1.524 . S
C896 C897 1.397 . S
C896 C901 1.363 . S
C897 H868 0.950 . S
C897 C896 1.397 . S
C897 C898 1.334 . S
C898 H869 0.950 . S
C898 C897 1.334 . S
C898 C899 1.287 . S
C899 C898 1.287 . S
C899 C900 1.524 . S
C899 H902 0.999 . S
C900 H870 0.950 . S
C900 C899 1.524 . S
C900 C901 1.415 . S
C901 H871 0.950 . S
C901 C896 1.363 . S
C901 C900 1.415 . S
H902 C899 0.999 . S
H903 C884 0.913 . S
H904 C922 0.951 . S
H905 C924 0.951 . S
H906 C926 0.950 . S
H907 C927 0.950 . S
H908 C929 0.950 . S
H909 C932 0.950 . S
H910 C933 0.950 . S
H911 C935 0.950 . S
H912 C936 0.950 . S
H913 C937 0.951 . S
H914 C939 0.951 . S
H915 C941 0.950 . S
H916 C942 0.950 1_556 S
H917 C944 0.950 . S
H918 C947 0.950 . S
H919 C948 0.950 . S
H920 C950 0.950 . S
H921 C951 0.950 . S
C922 H904 0.951 . S
C922 C923 1.366 . S
C922 C924 1.388 . S
C923 C922 1.366 . S
C923 C927 1.385 . S
C924 H905 0.951 . S
C924 C922 1.388 . S
C924 C925 1.366 . S
C925 C924 1.366 . S
C925 C926 1.414 . S
C925 C928 1.499 . S
C926 H906 0.950 . S
C926 C925 1.414 . S
C926 C927 1.374 . S
C927 H907 0.950 . S
C927 C923 1.385 . S
C927 C926 1.374 . S
C928 C925 1.499 . S
C928 C929 1.373 . S
C928 C930 1.389 . S
C929 H908 0.950 . S
C929 C928 1.373 . S
C929 C945 1.377 . S
C930 C928 1.389 . S
C930 C931 1.524 . S
C930 C944 1.377 . S
C931 C930 1.524 . S
C931 C932 1.397 . S
C931 C936 1.363 . S
C932 H909 0.950 . S
C932 C931 1.397 . S
C932 C933 1.334 . S
C933 H910 0.950 . S
C933 C932 1.334 . S
C933 C934 1.287 . S
C934 C933 1.287 . S
C934 C935 1.524 . S
C934 H953 0.913 . S
C935 H911 0.950 . S
C935 C934 1.524 . S
C935 C936 1.415 . S
C936 H912 0.950 . S
C936 C931 1.363 . S
C936 C935 1.415 . S
C937 H913 0.951 . S
C937 C938 1.366 . S
C937 C939 1.388 1_556 S
C938 C937 1.366 . S
C938 C942 1.385 1_556 S
C939 H914 0.951 . S
C939 C937 1.388 1_554 S
C939 C940 1.366 . S
C940 C939 1.366 . S
C940 C941 1.414 . S
C940 C943 1.499 . S
C941 H915 0.950 . S
C941 C940 1.414 . S
C941 C942 1.374 . S
C942 H916 0.950 1_554 S
C942 C938 1.385 1_554 S
C942 C941 1.374 . S
C943 C940 1.499 . S
C943 C944 1.373 . S
C943 C945 1.389 . S
C944 H917 0.950 . S
C944 C930 1.377 . S
C944 C943 1.373 . S
C945 C929 1.377 . S
C945 C943 1.389 . S
C945 C946 1.524 . S
C946 C945 1.524 . S
C946 C947 1.397 . S
C946 C951 1.363 . S
C947 H918 0.950 . S
C947 C946 1.397 . S
C947 C948 1.334 . S
C948 H919 0.950 . S
C948 C947 1.334 . S
C948 C949 1.287 . S
C949 C948 1.287 . S
C949 C950 1.524 . S
C949 H952 0.999 . S
C950 H920 0.950 . S
C950 C949 1.524 . S
C950 C951 1.415 . S
C951 H921 0.950 . S
C951 C946 1.363 . S
C951 C950 1.415 . S
H952 C949 0.999 . S
H953 C934 0.913 . S
H954 C972 0.951 . S
H955 C974 0.951 . S
H956 C976 0.950 . S
H957 C977 0.950 . S
H958 C979 0.950 . S
H959 C982 0.950 . S
H960 C983 0.950 . S
H961 C985 0.950 . S
H962 C986 0.950 . S
H963 C987 0.951 . S
H964 C989 0.951 . S
H965 C991 0.950 . S
H966 C992 0.950 . S
H967 C994 0.950 . S
H968 C997 0.950 . S
H969 C998 0.950 . S
H970 C1000 0.950 . S
H971 C1001 0.950 . S
C972 H954 0.951 . S
C972 C973 1.366 . S
C972 C974 1.388 . S
C973 C972 1.366 . S
C973 C977 1.385 . S
C974 H955 0.951 . S
C974 C972 1.388 . S
C974 C975 1.366 . S
C975 C974 1.366 . S
C975 C976 1.414 . S
C975 C978 1.499 . S
C976 H956 0.950 . S
C976 C975 1.414 . S
C976 C977 1.374 . S
C977 H957 0.950 . S
C977 C973 1.385 . S
C977 C976 1.374 . S
C978 C975 1.499 . S
C978 C979 1.373 . S
C978 C980 1.389 . S
C979 H958 0.950 . S
C979 C978 1.373 . S
C979 C995 1.377 . S
C980 C978 1.389 . S
C980 C981 1.524 . S
C980 C994 1.377 . S
C981 C980 1.524 . S
C981 C982 1.397 . S
C981 C986 1.363 . S
C982 H959 0.950 . S
C982 C981 1.397 . S
C982 C983 1.334 . S
C983 H960 0.950 . S
C983 C982 1.334 . S
C983 C984 1.287 . S
C984 C983 1.287 . S
C984 C985 1.524 . S
C984 H1003 0.913 . S
C985 H961 0.950 . S
C985 C984 1.524 . S
C985 C986 1.415 . S
C986 H962 0.950 . S
C986 C981 1.363 . S
C986 C985 1.415 . S
C987 H963 0.951 . S
C987 C988 1.366 . S
C987 C989 1.388 . S
C988 C987 1.366 . S
C988 C992 1.385 . S
C989 H964 0.951 . S
C989 C987 1.388 . S
C989 C990 1.366 . S
C990 C989 1.366 . S
C990 C991 1.414 . S
C990 C993 1.499 . S
C991 H965 0.950 . S
C991 C990 1.414 . S
C991 C992 1.374 . S
C992 H966 0.950 . S
C992 C988 1.385 . S
C992 C991 1.374 . S
C993 C990 1.499 . S
C993 C994 1.373 . S
C993 C995 1.389 . S
C994 H967 0.950 . S
C994 C980 1.377 . S
C994 C993 1.373 . S
C995 C979 1.377 . S
C995 C993 1.389 . S
C995 C996 1.524 . S
C996 C995 1.524 . S
C996 C997 1.397 . S
C996 C1001 1.363 . S
C997 H968 0.950 . S
C997 C996 1.397 . S
C997 C998 1.334 . S
C998 H969 0.950 . S
C998 C997 1.334 . S
C998 C999 1.287 . S
C999 C998 1.287 . S
C999 C1000 1.524 . S
C999 H1002 0.999 . S
C1000 H970 0.950 . S
C1000 C999 1.524 . S
C1000 C1001 1.415 . S
C1001 H971 0.950 . S
C1001 C996 1.363 . S
C1001 C1000 1.415 . S
H1002 C999 0.999 . S
H1003 C984 0.913 . S
H1004 C1022 0.951 . S
H1005 C1024 0.951 . S
H1006 C1026 0.950 . S
H1007 C1027 0.950 . S
H1008 C1029 0.950 . S
H1009 C1032 0.950 . S
H1010 C1033 0.950 . S
H1011 C1035 0.950 . S
H1012 C1036 0.950 . S
H1013 C1037 0.951 . S
H1014 C1039 0.951 . S
H1015 C1041 0.950 . S
H1016 C1042 0.950 . S
H1017 C1044 0.950 . S
H1018 C1047 0.950 . S
H1019 C1048 0.950 . S
H1020 C1050 0.950 . S
H1021 C1051 0.950 . S
C1022 H1004 0.951 . S
C1022 C1023 1.366 . S
C1022 C1024 1.388 . S
C1023 C1022 1.366 . S
C1023 C1027 1.385 . S
C1024 H1005 0.951 . S
C1024 C1022 1.388 . S
C1024 C1025 1.366 . S
C1025 C1024 1.366 . S
C1025 C1026 1.414 . S
C1025 C1028 1.499 . S
C1026 H1006 0.950 . S
C1026 C1025 1.414 . S
C1026 C1027 1.374 . S
C1027 H1007 0.950 . S
C1027 C1023 1.385 . S
C1027 C1026 1.374 . S
C1028 C1025 1.499 . S
C1028 C1029 1.373 . S
C1028 C1030 1.389 . S
C1029 H1008 0.950 . S
C1029 C1028 1.373 . S
C1029 C1045 1.377 . S
C1030 C1028 1.389 . S
C1030 C1031 1.524 . S
C1030 C1044 1.377 . S
C1031 C1030 1.524 . S
C1031 C1032 1.397 . S
C1031 C1036 1.363 . S
C1032 H1009 0.950 . S
C1032 C1031 1.397 . S
C1032 C1033 1.334 . S
C1033 H1010 0.950 . S
C1033 C1032 1.334 . S
C1033 C1034 1.287 . S
C1034 C1033 1.287 . S
C1034 C1035 1.524 . S
C1034 H1053 0.913 . S
C1035 H1011 0.950 . S
C1035 C1034 1.524 . S
C1035 C1036 1.415 . S
C1036 H1012 0.950 . S
C1036 C1031 1.363 . S
C1036 C1035 1.415 . S
C1037 H1013 0.951 . S
C1037 C1038 1.366 . S
C1037 C1039 1.388 1_554 S
C1038 C1037 1.366 . S
C1038 C1042 1.385 . S
C1039 H1014 0.951 . S
C1039 C1037 1.388 1_556 S
C1039 C1040 1.366 . S
C1040 C1039 1.366 . S
C1040 C1041 1.414 . S
C1040 C1043 1.499 . S
C1041 H1015 0.950 . S
C1041 C1040 1.414 . S
C1041 C1042 1.374 1_556 S
C1042 H1016 0.950 . S
C1042 C1038 1.385 . S
C1042 C1041 1.374 1_554 S
C1043 C1040 1.499 . S
C1043 C1044 1.373 . S
C1043 C1045 1.389 . S
C1044 H1017 0.950 . S
C1044 C1030 1.377 . S
C1044 C1043 1.373 . S
C1045 C1029 1.377 . S
C1045 C1043 1.389 . S
C1045 C1046 1.524 . S
C1046 C1045 1.524 . S
C1046 C1047 1.397 . S
C1046 C1051 1.363 . S
C1047 H1018 0.950 . S
C1047 C1046 1.397 . S
C1047 C1048 1.334 . S
C1048 H1019 0.950 . S
C1048 C1047 1.334 . S
C1048 C1049 1.287 . S
C1049 C1048 1.287 . S
C1049 C1050 1.524 . S
C1049 H1052 0.999 . S
C1050 H1020 0.950 . S
C1050 C1049 1.524 . S
C1050 C1051 1.415 . S
C1051 H1021 0.950 . S
C1051 C1046 1.363 . S
C1051 C1050 1.415 . S
H1052 C1049 0.999 . S
H1053 C1034 0.913 . S
H1054 C1072 0.951 . S
H1055 C1074 0.951 . S
H1056 C1076 0.950 . S
H1057 C1077 0.950 . S
H1058 C1079 0.950 . S
H1059 C1082 0.950 . S
H1060 C1083 0.950 . S
H1061 C1085 0.950 . S
H1062 C1086 0.950 . S
H1063 C1087 0.951 1_556 S
H1064 C1089 0.951 . S
H1065 C1091 0.950 . S
H1066 C1092 0.950 . S
H1067 C1094 0.950 . S
H1068 C1097 0.950 . S
H1069 C1098 0.950 . S
H1070 C1100 0.950 . S
H1071 C1101 0.950 . S
C1072 H1054 0.951 . S
C1072 C1073 1.366 . S
C1072 C1074 1.388 . S
C1073 C1072 1.366 . S
C1073 C1077 1.385 . S
C1074 H1055 0.951 . S
C1074 C1072 1.388 . S
C1074 C1075 1.366 . S
C1075 C1074 1.366 . S
C1075 C1076 1.414 . S
C1075 C1078 1.499 . S
C1076 H1056 0.950 . S
C1076 C1075 1.414 . S
C1076 C1077 1.374 . S
C1077 H1057 0.950 . S
C1077 C1073 1.385 . S
C1077 C1076 1.374 . S
C1078 C1075 1.499 . S
C1078 C1079 1.373 . S
C1078 C1080 1.389 . S
C1079 H1058 0.950 . S
C1079 C1078 1.373 . S
C1079 C1095 1.377 . S
C1080 C1078 1.389 . S
C1080 C1081 1.524 . S
C1080 C1094 1.377 . S
C1081 C1080 1.524 . S
C1081 C1082 1.397 . S
C1081 C1086 1.363 . S
C1082 H1059 0.950 . S
C1082 C1081 1.397 . S
C1082 C1083 1.334 . S
C1083 H1060 0.950 . S
C1083 C1082 1.334 . S
C1083 C1084 1.287 . S
C1084 C1083 1.287 . S
C1084 C1085 1.524 . S
C1084 H1103 0.913 . S
C1085 H1061 0.950 . S
C1085 C1084 1.524 . S
C1085 C1086 1.415 . S
C1086 H1062 0.950 . S
C1086 C1081 1.363 . S
C1086 C1085 1.415 . S
C1087 H1063 0.951 1_554 S
C1087 C1088 1.366 1_554 S
C1087 C1089 1.388 . S
C1088 C1087 1.366 1_556 S
C1088 C1092 1.385 . S
C1089 H1064 0.951 . S
C1089 C1087 1.388 . S
C1089 C1090 1.366 . S
C1090 C1089 1.366 . S
C1090 C1091 1.414 . S
C1090 C1093 1.499 . S
C1091 H1065 0.950 . S
C1091 C1090 1.414 . S
C1091 C1092 1.374 1_554 S
C1092 H1066 0.950 . S
C1092 C1088 1.385 . S
C1092 C1091 1.374 1_556 S
C1093 C1090 1.499 . S
C1093 C1094 1.373 . S
C1093 C1095 1.389 . S
C1094 H1067 0.950 . S
C1094 C1080 1.377 . S
C1094 C1093 1.373 . S
C1095 C1079 1.377 . S
C1095 C1093 1.389 . S
C1095 C1096 1.524 . S
C1096 C1095 1.524 . S
C1096 C1097 1.397 . S
C1096 C1101 1.363 . S
C1097 H1068 0.950 . S
C1097 C1096 1.397 . S
C1097 C1098 1.334 . S
C1098 H1069 0.950 . S
C1098 C1097 1.334 . S
C1098 C1099 1.287 . S
C1099 C1098 1.287 . S
C1099 C1100 1.524 . S
C1099 H1102 0.999 . S
C1100 H1070 0.950 . S
C1100 C1099 1.524 . S
C1100 C1101 1.415 . S
C1101 H1071 0.950 . S
C1101 C1096 1.363 . S
C1101 C1100 1.415 . S
H1102 C1099 0.999 . S
H1103 C1084 0.913 . S
H1104 C1122 0.951 . S
H1105 C1124 0.951 . S
H1106 C1126 0.950 . S
H1107 C1127 0.950 . S
H1108 C1129 0.950 . S
H1109 C1132 0.950 . S
H1110 C1133 0.950 . S
H1111 C1135 0.950 . S
H1112 C1136 0.950 . S
H1113 C1137 0.951 . S
H1114 C1139 0.951 . S
H1115 C1141 0.950 . S
H1116 C1142 0.950 . S
H1117 C1144 0.950 . S
H1118 C1147 0.950 . S
H1119 C1148 0.950 . S
H1120 C1150 0.950 . S
H1121 C1151 0.950 . S
C1122 H1104 0.951 . S
C1122 C1123 1.366 . S
C1122 C1124 1.388 . S
C1123 C1122 1.366 . S
C1123 C1127 1.385 . S
C1124 H1105 0.951 . S
C1124 C1122 1.388 . S
C1124 C1125 1.366 . S
C1125 C1124 1.366 . S
C1125 C1126 1.414 . S
C1125 C1128 1.499 . S
C1126 H1106 0.950 . S
C1126 C1125 1.414 . S
C1126 C1127 1.374 . S
C1127 H1107 0.950 . S
C1127 C1123 1.385 . S
C1127 C1126 1.374 . S
C1128 C1125 1.499 . S
C1128 C1129 1.373 . S
C1128 C1130 1.389 . S
C1129 H1108 0.950 . S
C1129 C1128 1.373 . S
C1129 C1145 1.377 . S
C1130 C1128 1.389 . S
C1130 C1131 1.524 . S
C1130 C1144 1.377 . S
C1131 C1130 1.524 . S
C1131 C1132 1.397 . S
C1131 C1136 1.363 . S
C1132 H1109 0.950 . S
C1132 C1131 1.397 . S
C1132 C1133 1.334 . S
C1133 H1110 0.950 . S
C1133 C1132 1.334 . S
C1133 C1134 1.287 . S
C1134 C1133 1.287 . S
C1134 C1135 1.524 . S
C1134 H1153 0.913 . S
C1135 H1111 0.950 . S
C1135 C1134 1.524 . S
C1135 C1136 1.415 . S
C1136 H1112 0.950 . S
C1136 C1131 1.363 . S
C1136 C1135 1.415 . S
C1137 H1113 0.951 . S
C1137 C1138 1.366 . S
C1137 C1139 1.388 . S
C1138 C1137 1.366 . S
C1138 C1142 1.385 . S
C1139 H1114 0.951 . S
C1139 C1137 1.388 . S
C1139 C1140 1.366 . S
C1140 C1139 1.366 . S
C1140 C1141 1.414 . S
C1140 C1143 1.499 . S
C1141 H1115 0.950 . S
C1141 C1140 1.414 . S
C1141 C1142 1.374 . S
C1142 H1116 0.950 . S
C1142 C1138 1.385 . S
C1142 C1141 1.374 . S
C1143 C1140 1.499 . S
C1143 C1144 1.373 . S
C1143 C1145 1.389 . S
C1144 H1117 0.950 . S
C1144 C1130 1.377 . S
C1144 C1143 1.373 . S
C1145 C1129 1.377 . S
C1145 C1143 1.389 . S
C1145 C1146 1.524 . S
C1146 C1145 1.524 . S
C1146 C1147 1.397 . S
C1146 C1151 1.363 . S
C1147 H1118 0.950 . S
C1147 C1146 1.397 . S
C1147 C1148 1.334 . S
C1148 H1119 0.950 . S
C1148 C1147 1.334 . S
C1148 C1149 1.287 . S
C1149 C1148 1.287 . S
C1149 C1150 1.524 . S
C1149 H1152 0.999 . S
C1150 H1120 0.950 . S
C1150 C1149 1.524 . S
C1150 C1151 1.415 . S
C1151 H1121 0.950 . S
C1151 C1146 1.363 . S
C1151 C1150 1.415 . S
H1152 C1149 0.999 . S
H1153 C1134 0.913 . S
H1154 C1172 0.951 . S
H1155 C1174 0.951 . S
H1156 C1176 0.950 . S
H1157 C1177 0.950 . S
H1158 C1179 0.950 . S
H1159 C1182 0.950 . S
H1160 C1183 0.950 . S
H1161 C1185 0.950 . S
H1162 C1186 0.950 . S
H1163 C1187 0.951 . S
H1164 C1189 0.951 . S
H1165 C1191 0.950 . S
H1166 C1192 0.950 . S
H1167 C1194 0.950 . S
H1168 C1197 0.950 . S
H1169 C1198 0.950 . S
H1170 C1200 0.950 . S
H1171 C1201 0.950 . S
C1172 H1154 0.951 . S
C1172 C1173 1.366 . S
C1172 C1174 1.388 . S
C1173 C1172 1.366 . S
C1173 C1177 1.385 . S
C1174 H1155 0.951 . S
C1174 C1172 1.388 . S
C1174 C1175 1.366 . S
C1175 C1174 1.366 . S
C1175 C1176 1.414 . S
C1175 C1178 1.499 . S
C1176 H1156 0.950 . S
C1176 C1175 1.414 . S
C1176 C1177 1.374 . S
C1177 H1157 0.950 . S
C1177 C1173 1.385 . S
C1177 C1176 1.374 . S
C1178 C1175 1.499 . S
C1178 C1179 1.373 . S
C1178 C1180 1.389 . S
C1179 H1158 0.950 . S
C1179 C1178 1.373 . S
C1179 C1195 1.377 . S
C1180 C1178 1.389 . S
C1180 C1181 1.524 . S
C1180 C1194 1.377 . S
C1181 C1180 1.524 . S
C1181 C1182 1.397 . S
C1181 C1186 1.363 . S
C1182 H1159 0.950 . S
C1182 C1181 1.397 . S
C1182 C1183 1.334 . S
C1183 H1160 0.950 . S
C1183 C1182 1.334 . S
C1183 C1184 1.287 . S
C1184 C1183 1.287 . S
C1184 C1185 1.524 . S
C1184 H1203 0.913 . S
C1185 H1161 0.950 . S
C1185 C1184 1.524 . S
C1185 C1186 1.415 . S
C1186 H1162 0.950 . S
C1186 C1181 1.363 . S
C1186 C1185 1.415 . S
C1187 H1163 0.951 . S
C1187 C1188 1.366 . S
C1187 C1189 1.388 . S
C1188 C1187 1.366 . S
C1188 C1192 1.385 . S
C1189 H1164 0.951 . S
C1189 C1187 1.388 . S
C1189 C1190 1.366 . S
C1190 C1189 1.366 . S
C1190 C1191 1.414 . S
C1190 C1193 1.499 . S
C1191 H1165 0.950 . S
C1191 C1190 1.414 . S
C1191 C1192 1.374 . S
C1192 H1166 0.950 . S
C1192 C1188 1.385 . S
C1192 C1191 1.374 . S
C1193 C1190 1.499 . S
C1193 C1194 1.373 . S
C1193 C1195 1.389 . S
C1194 H1167 0.950 . S
C1194 C1180 1.377 . S
C1194 C1193 1.373 . S
C1195 C1179 1.377 . S
C1195 C1193 1.389 . S
C1195 C1196 1.524 . S
C1196 C1195 1.524 . S
C1196 C1197 1.397 . S
C1196 C1201 1.363 . S
C1197 H1168 0.950 . S
C1197 C1196 1.397 . S
C1197 C1198 1.334 . S
C1198 H1169 0.950 . S
C1198 C1197 1.334 . S
C1198 C1199 1.287 . S
C1199 C1198 1.287 . S
C1199 C1200 1.524 . S
C1199 H1202 0.999 . S
C1200 H1170 0.950 . S
C1200 C1199 1.524 . S
C1200 C1201 1.415 . S
C1201 H1171 0.950 . S
C1201 C1196 1.363 . S
C1201 C1200 1.415 . S
H1202 C1199 0.999 . S
H1203 C1184 0.913 . S
H1204 C1222 0.951 . S
H1205 C1224 0.951 . S
H1206 C1226 0.950 . S
H1207 C1227 0.950 . S
H1208 C1229 0.950 . S
H1209 C1232 0.950 . S
H1210 C1233 0.950 . S
H1211 C1235 0.950 . S
H1212 C1236 0.950 . S
H1213 C1237 0.951 . S
H1214 C1239 0.951 . S
H1215 C1241 0.950 . S
H1216 C1242 0.950 . S
H1217 C1244 0.950 . S
H1218 C1247 0.950 . S
H1219 C1248 0.950 . S
H1220 C1250 0.950 . S
H1221 C1251 0.950 . S
C1222 H1204 0.951 . S
C1222 C1223 1.366 . S
C1222 C1224 1.388 . S
C1223 C1222 1.366 . S
C1223 C1227 1.385 . S
C1224 H1205 0.951 . S
C1224 C1222 1.388 . S
C1224 C1225 1.366 . S
C1225 C1224 1.366 . S
C1225 C1226 1.414 . S
C1225 C1228 1.499 . S
C1226 H1206 0.950 . S
C1226 C1225 1.414 . S
C1226 C1227 1.374 . S
C1227 H1207 0.950 . S
C1227 C1223 1.385 . S
C1227 C1226 1.374 . S
C1228 C1225 1.499 . S
C1228 C1229 1.373 . S
C1228 C1230 1.389 . S
C1229 H1208 0.950 . S
C1229 C1228 1.373 . S
C1229 C1245 1.377 . S
C1230 C1228 1.389 . S
C1230 C1231 1.524 . S
C1230 C1244 1.377 . S
C1231 C1230 1.524 . S
C1231 C1232 1.397 . S
C1231 C1236 1.363 . S
C1232 H1209 0.950 . S
C1232 C1231 1.397 . S
C1232 C1233 1.334 . S
C1233 H1210 0.950 . S
C1233 C1232 1.334 . S
C1233 C1234 1.287 . S
C1234 C1233 1.287 . S
C1234 C1235 1.524 . S
C1234 H1253 0.913 . S
C1235 H1211 0.950 . S
C1235 C1234 1.524 . S
C1235 C1236 1.415 . S
C1236 H1212 0.950 . S
C1236 C1231 1.363 . S
C1236 C1235 1.415 . S
C1237 H1213 0.951 . S
C1237 C1238 1.366 . S
C1237 C1239 1.388 . S
C1238 C1237 1.366 . S
C1238 C1242 1.385 . S
C1239 H1214 0.951 . S
C1239 C1237 1.388 . S
C1239 C1240 1.366 . S
C1240 C1239 1.366 . S
C1240 C1241 1.414 . S
C1240 C1243 1.499 . S
C1241 H1215 0.950 . S
C1241 C1240 1.414 . S
C1241 C1242 1.374 . S
C1242 H1216 0.950 . S
C1242 C1238 1.385 . S
C1242 C1241 1.374 . S
C1243 C1240 1.499 . S
C1243 C1244 1.373 . S
C1243 C1245 1.389 . S
C1244 H1217 0.950 . S
C1244 C1230 1.377 . S
C1244 C1243 1.373 . S
C1245 C1229 1.377 . S
C1245 C1243 1.389 . S
C1245 C1246 1.524 . S
C1246 C1245 1.524 . S
C1246 C1247 1.397 . S
C1246 C1251 1.363 . S
C1247 H1218 0.950 . S
C1247 C1246 1.397 . S
C1247 C1248 1.334 . S
C1248 H1219 0.950 . S
C1248 C1247 1.334 . S
C1248 C1249 1.287 . S
C1249 C1248 1.287 . S
C1249 C1250 1.524 . S
C1249 H1252 0.999 . S
C1250 H1220 0.950 . S
C1250 C1249 1.524 . S
C1250 C1251 1.415 . S
C1251 H1221 0.950 . S
C1251 C1246 1.363 . S
C1251 C1250 1.415 . S
H1252 C1249 0.999 . S
H1253 C1234 0.913 . S
H1254 C1272 0.951 . S
H1255 C1274 0.951 . S
H1256 C1276 0.950 . S
H1257 C1277 0.950 . S
H1258 C1279 0.950 . S
H1259 C1282 0.950 . S
H1260 C1283 0.950 . S
H1261 C1285 0.950 . S
H1262 C1286 0.950 . S
H1263 C1287 0.951 . S
H1264 C1289 0.951 . S
H1265 C1291 0.950 . S
H1266 C1292 0.950 . S
H1267 C1294 0.950 . S
H1268 C1297 0.950 . S
H1269 C1298 0.950 . S
H1270 C1300 0.950 . S
H1271 C1301 0.950 . S
C1272 H1254 0.951 . S
C1272 C1273 1.366 . S
C1272 C1274 1.388 . S
C1273 C1272 1.366 . S
C1273 C1277 1.385 . S
C1274 H1255 0.951 . S
C1274 C1272 1.388 . S
C1274 C1275 1.366 . S
C1275 C1274 1.366 . S
C1275 C1276 1.414 . S
C1275 C1278 1.499 . S
C1276 H1256 0.950 . S
C1276 C1275 1.414 . S
C1276 C1277 1.374 . S
C1277 H1257 0.950 . S
C1277 C1273 1.385 . S
C1277 C1276 1.374 . S
C1278 C1275 1.499 . S
C1278 C1279 1.373 . S
C1278 C1280 1.389 . S
C1279 H1258 0.950 . S
C1279 C1278 1.373 . S
C1279 C1295 1.377 . S
C1280 C1278 1.389 . S
C1280 C1281 1.524 . S
C1280 C1294 1.377 . S
C1281 C1280 1.524 . S
C1281 C1282 1.397 . S
C1281 C1286 1.363 . S
C1282 H1259 0.950 . S
C1282 C1281 1.397 . S
C1282 C1283 1.334 . S
C1283 H1260 0.950 . S
C1283 C1282 1.334 . S
C1283 C1284 1.287 . S
C1284 C1283 1.287 . S
C1284 C1285 1.524 . S
C1284 H1303 0.913 . S
C1285 H1261 0.950 . S
C1285 C1284 1.524 . S
C1285 C1286 1.415 . S
C1286 H1262 0.950 . S
C1286 C1281 1.363 . S
C1286 C1285 1.415 . S
C1287 H1263 0.951 . S
C1287 C1288 1.366 . S
C1287 C1289 1.388 . S
C1288 C1287 1.366 . S
C1288 C1292 1.385 . S
C1289 H1264 0.951 . S
C1289 C1287 1.388 . S
C1289 C1290 1.366 . S
C1290 C1289 1.366 . S
C1290 C1291 1.414 . S
C1290 C1293 1.499 . S
C1291 H1265 0.950 . S
C1291 C1290 1.414 . S
C1291 C1292 1.374 . S
C1292 H1266 0.950 . S
C1292 C1288 1.385 . S
C1292 C1291 1.374 . S
C1293 C1290 1.499 . S
C1293 C1294 1.373 . S
C1293 C1295 1.389 . S
C1294 H1267 0.950 . S
C1294 C1280 1.377 . S
C1294 C1293 1.373 . S
C1295 C1279 1.377 . S
C1295 C1293 1.389 . S
C1295 C1296 1.524 . S
C1296 C1295 1.524 . S
C1296 C1297 1.397 . S
C1296 C1301 1.363 . S
C1297 H1268 0.950 . S
C1297 C1296 1.397 . S
C1297 C1298 1.334 . S
C1298 H1269 0.950 . S
C1298 C1297 1.334 . S
C1298 C1299 1.287 . S
C1299 C1298 1.287 . S
C1299 C1300 1.524 . S
C1299 H1302 0.999 . S
C1300 H1270 0.950 . S
C1300 C1299 1.524 . S
C1300 C1301 1.415 . S
C1301 H1271 0.950 . S
C1301 C1296 1.363 . S
C1301 C1300 1.415 . S
H1302 C1299 0.999 . S
H1303 C1284 0.913 . S
H1304 C1322 0.951 . S
H1305 C1324 0.951 . S
H1306 C1326 0.950 . S
H1307 C1327 0.950 . S
H1308 C1329 0.950 . S
H1309 C1332 0.950 . S
H1310 C1333 0.950 . S
H1311 C1335 0.950 . S
H1312 C1336 0.950 . S
H1313 C1337 0.951 . S
H1314 C1339 0.951 . S
H1315 C1341 0.950 . S
H1316 C1342 0.950 . S
H1317 C1344 0.950 . S
H1318 C1347 0.950 . S
H1319 C1348 0.950 . S
H1320 C1350 0.950 . S
H1321 C1351 0.950 . S
C1322 H1304 0.951 . S
C1322 C1323 1.366 . S
C1322 C1324 1.388 . S
C1323 C1322 1.366 . S
C1323 C1327 1.385 . S
C1324 H1305 0.951 . S
C1324 C1322 1.388 . S
C1324 C1325 1.366 . S
C1325 C1324 1.366 . S
C1325 C1326 1.414 . S
C1325 C1328 1.499 . S
C1326 H1306 0.950 . S
C1326 C1325 1.414 . S
C1326 C1327 1.374 . S
C1327 H1307 0.950 . S
C1327 C1323 1.385 . S
C1327 C1326 1.374 . S
C1328 C1325 1.499 . S
C1328 C1329 1.373 . S
C1328 C1330 1.389 . S
C1329 H1308 0.950 . S
C1329 C1328 1.373 . S
C1329 C1345 1.377 . S
C1330 C1328 1.389 . S
C1330 C1331 1.524 . S
C1330 C1344 1.377 . S
C1331 C1330 1.524 . S
C1331 C1332 1.397 . S
C1331 C1336 1.363 . S
C1332 H1309 0.950 . S
C1332 C1331 1.397 . S
C1332 C1333 1.334 . S
C1333 H1310 0.950 . S
C1333 C1332 1.334 . S
C1333 C1334 1.287 . S
C1334 C1333 1.287 . S
C1334 C1335 1.524 . S
C1334 H1353 0.913 . S
C1335 H1311 0.950 . S
C1335 C1334 1.524 . S
C1335 C1336 1.415 . S
C1336 H1312 0.950 . S
C1336 C1331 1.363 . S
C1336 C1335 1.415 . S
C1337 H1313 0.951 . S
C1337 C1338 1.366 . S
C1337 C1339 1.388 . S
C1338 C1337 1.366 . S
C1338 C1342 1.385 . S
C1339 H1314 0.951 . S
C1339 C1337 1.388 . S
C1339 C1340 1.366 . S
C1340 C1339 1.366 . S
C1340 C1341 1.414 . S
C1340 C1343 1.499 . S
C1341 H1315 0.950 . S
C1341 C1340 1.414 . S
C1341 C1342 1.374 . S
C1342 H1316 0.950 . S
C1342 C1338 1.385 . S
C1342 C1341 1.374 . S
C1343 C1340 1.499 . S
C1343 C1344 1.373 . S
C1343 C1345 1.389 . S
C1344 H1317 0.950 . S
C1344 C1330 1.377 . S
C1344 C1343 1.373 . S
C1345 C1329 1.377 . S
C1345 C1343 1.389 . S
C1345 C1346 1.524 . S
C1346 C1345 1.524 . S
C1346 C1347 1.397 . S
C1346 C1351 1.363 . S
C1347 H1318 0.950 . S
C1347 C1346 1.397 . S
C1347 C1348 1.334 . S
C1348 H1319 0.950 . S
C1348 C1347 1.334 . S
C1348 C1349 1.287 . S
C1349 C1348 1.287 . S
C1349 C1350 1.524 . S
C1349 H1352 0.999 . S
C1350 H1320 0.950 . S
C1350 C1349 1.524 . S
C1350 C1351 1.415 . S
C1351 H1321 0.950 . S
C1351 C1346 1.363 . S
C1351 C1350 1.415 . S
H1352 C1349 0.999 . S
H1353 C1334 0.913 . S
H1354 C1372 0.951 . S
H1355 C1374 0.951 . S
H1356 C1376 0.950 . S
H1357 C1377 0.950 . S
H1358 C1379 0.950 . S
H1359 C1382 0.950 . S
H1360 C1383 0.950 . S
H1361 C1385 0.950 . S
H1362 C1386 0.950 . S
H1363 C1387 0.951 . S
H1364 C1389 0.951 . S
H1365 C1391 0.950 . S
H1366 C1392 0.950 . S
H1367 C1394 0.950 . S
H1368 C1397 0.950 . S
H1369 C1398 0.950 . S
H1370 C1400 0.950 . S
H1371 C1401 0.950 . S
C1372 H1354 0.951 . S
C1372 C1373 1.366 . S
C1372 C1374 1.388 . S
C1373 C1372 1.366 . S
C1373 C1377 1.385 . S
C1374 H1355 0.951 . S
C1374 C1372 1.388 . S
C1374 C1375 1.366 . S
C1375 C1374 1.366 . S
C1375 C1376 1.414 . S
C1375 C1378 1.499 . S
C1376 H1356 0.950 . S
C1376 C1375 1.414 . S
C1376 C1377 1.374 . S
C1377 H1357 0.950 . S
C1377 C1373 1.385 . S
C1377 C1376 1.374 . S
C1378 C1375 1.499 . S
C1378 C1379 1.373 . S
C1378 C1380 1.389 . S
C1379 H1358 0.950 . S
C1379 C1378 1.373 . S
C1379 C1395 1.377 . S
C1380 C1378 1.389 . S
C1380 C1381 1.524 . S
C1380 C1394 1.377 . S
C1381 C1380 1.524 . S
C1381 C1382 1.397 . S
C1381 C1386 1.363 . S
C1382 H1359 0.950 . S
C1382 C1381 1.397 . S
C1382 C1383 1.334 . S
C1383 H1360 0.950 . S
C1383 C1382 1.334 . S
C1383 C1384 1.287 1_556 S
C1384 C1383 1.287 1_554 S
C1384 C1385 1.524 . S
C1384 H1403 0.913 . S
C1385 H1361 0.950 . S
C1385 C1384 1.524 . S
C1385 C1386 1.415 1_554 S
C1386 H1362 0.950 . S
C1386 C1381 1.363 . S
C1386 C1385 1.415 1_556 S
C1387 H1363 0.951 . S
C1387 C1388 1.366 . S
C1387 C1389 1.388 . S
C1388 C1387 1.366 . S
C1388 C1392 1.385 . S
C1389 H1364 0.951 . S
C1389 C1387 1.388 . S
C1389 C1390 1.366 . S
C1390 C1389 1.366 . S
C1390 C1391 1.414 . S
C1390 C1393 1.499 . S
C1391 H1365 0.950 . S
C1391 C1390 1.414 . S
C1391 C1392 1.374 . S
C1392 H1366 0.950 . S
C1392 C1388 1.385 . S
C1392 C1391 1.374 . S
C1393 C1390 1.499 . S
C1393 C1394 1.373 . S
C1393 C1395 1.389 . S
C1394 H1367 0.950 . S
C1394 C1380 1.377 . S
C1394 C1393 1.373 . S
C1395 C1379 1.377 . S
C1395 C1393 1.389 . S
C1395 C1396 1.524 . S
C1396 C1395 1.524 . S
C1396 C1397 1.397 . S
C1396 C1401 1.363 . S
C1397 H1368 0.950 . S
C1397 C1396 1.397 . S
C1397 C1398 1.334 . S
C1398 H1369 0.950 . S
C1398 C1397 1.334 . S
C1398 C1399 1.287 . S
C1399 C1398 1.287 . S
C1399 C1400 1.524 . S
C1399 H1402 0.999 . S
C1400 H1370 0.950 . S
C1400 C1399 1.524 . S
C1400 C1401 1.415 . S
C1401 H1371 0.950 . S
C1401 C1396 1.363 . S
C1401 C1400 1.415 . S
H1402 C1399 0.999 . S
H1403 C1384 0.913 . S
C523 C494 1.431 . S
C538 C56 1.395 . S
C573 C74 1.431 . S
C588 C140 1.395 . S
C623 C158 1.431 . S
C638 C224 1.395 . S
C673 C242 1.431 . S
C688 C308 1.395 . S
C723 C392 1.395 . S
C738 C326 1.431 . S
C773 C476 1.394 . S
C788 C410 1.431 . S
C823 C58 1.315 . S
C838 C70 1.315 . S
C873 C142 1.315 . S
C888 C154 1.315 . S
C923 C226 1.314 . S
C938 C238 1.314 . S
C973 C310 1.314 . S
C988 C322 1.314 . S
C1023 C406 1.315 . S
C1038 C394 1.315 . S
C1073 C478 1.315 . S
C1088 C490 1.315 . S
C1123 C67 1.305 . S
C1138 C399 1.347 . S
C1173 C151 1.306 . S
C1188 C483 1.346 . S
C1223 C63 1.345 . S
C1238 C235 1.307 . S
C1273 C147 1.347 . S
C1288 C319 1.305 . S
C1323 C403 1.306 . S
C1338 C231 1.346 . S
C1373 C315 1.347 . S
C1388 C487 1.305 . S
