# Generated by pormake.
# Topology vby, (6)-cn, num edge types: 1
# Building blocks:
#     Node 0, Type 0, BuildingBlock: FUNLAD_clean_sbu_0, # of connection points: 6
#     Node 1, Type 0, BuildingBlock: FUNLAD_clean_sbu_0, # of connection points: 6
#     Node 2, Type 0, BuildingBlock: FUNLAD_clean_sbu_0, # of connection points: 6
#     Node 3, Type 0, BuildingBlock: FUNLAD_clean_sbu_0, # of connection points: 6
#     Node 4, Type 0, BuildingBlock: FUNLAD_clean_sbu_0, # of connection points: 6
#     Node 5, Type 0, BuildingBlock: FUNLAD_clean_sbu_0, # of connection points: 6
#     Node 6, Type 0, BuildingBlock: FUNLAD_clean_sbu_0, # of connection points: 6
#     Node 7, Type 0, BuildingBlock: FUNLAD_clean_sbu_0, # of connection points: 6
#     Edge 8, Type (0, 0), BuildingBlock: OJICUG_clean_linker_0, # of connection points: 2
#     Edge 9, Type (0, 0), BuildingBlock: OJICUG_clean_linker_0, # of connection points: 2
#     Edge 10, Type (0, 0), BuildingBlock: OJICUG_clean_linker_0, # of connection points: 2
#     Edge 11, Type (0, 0), BuildingBlock: OJICUG_clean_linker_0, # of connection points: 2
#     Edge 12, Type (0, 0), BuildingBlock: OJICUG_clean_linker_0, # of connection points: 2
#     Edge 13, Type (0, 0), BuildingBlock: OJICUG_clean_linker_0, # of connection points: 2
#     Edge 14, Type (0, 0), BuildingBlock: OJICUG_clean_linker_0, # of connection points: 2
#     Edge 15, Type (0, 0), BuildingBlock: OJICUG_clean_linker_0, # of connection points: 2
#     Edge 16, Type (0, 0), BuildingBlock: OJICUG_clean_linker_0, # of connection points: 2
#     Edge 17, Type (0, 0), BuildingBlock: OJICUG_clean_linker_0, # of connection points: 2
#     Edge 18, Type (0, 0), BuildingBlock: OJICUG_clean_linker_0, # of connection points: 2
#     Edge 19, Type (0, 0), BuildingBlock: OJICUG_clean_linker_0, # of connection points: 2
#     Edge 20, Type (0, 0), BuildingBlock: OJICUG_clean_linker_0, # of connection points: 2
#     Edge 21, Type (0, 0), BuildingBlock: OJICUG_clean_linker_0, # of connection points: 2
#     Edge 22, Type (0, 0), BuildingBlock: OJICUG_clean_linker_0, # of connection points: 2
#     Edge 23, Type (0, 0), BuildingBlock: OJICUG_clean_linker_0, # of connection points: 2
#     Edge 24, Type (0, 0), BuildingBlock: OJICUG_clean_linker_0, # of connection points: 2
#     Edge 25, Type (0, 0), BuildingBlock: OJICUG_clean_linker_0, # of connection points: 2
#     Edge 26, Type (0, 0), BuildingBlock: OJICUG_clean_linker_0, # of connection points: 2
#     Edge 27, Type (0, 0), BuildingBlock: OJICUG_clean_linker_0, # of connection points: 2
#     Edge 28, Type (0, 0), BuildingBlock: OJICUG_clean_linker_0, # of connection points: 2
#     Edge 29, Type (0, 0), BuildingBlock: OJICUG_clean_linker_0, # of connection points: 2
#     Edge 30, Type (0, 0), BuildingBlock: OJICUG_clean_linker_0, # of connection points: 2
#     Edge 31, Type (0, 0), BuildingBlock: OJICUG_clean_linker_0, # of connection points: 2
# Relax obj value: 0.040
# Max RMSD: 0.109
# Mean RMSD: 0.104
data_MOF--net-vby--node1-FUNLAD_clean_sbu_0--edge1-OJICUG_clean_linker_0
_symmetry_space_group_name_H-M    P1
_symmetry_Int_Tables_number       1
_symmetry_cell_setting            triclinic
loop_
_symmetry_equiv_pos_as_xyz
'x, y, z'
_cell_length_a     11.243719
_cell_length_b     43.225526
_cell_length_c     35.143606
_cell_angle_alpha  88.830586
_cell_angle_beta   90.087048
_cell_angle_gamma 90.016676
loop_
_atom_site_label
_atom_site_type_symbol
_atom_site_fract_x
_atom_site_fract_y
_atom_site_fract_z
_atom_type_partial_charge
C0 C 0.01384 0.42377 0.02817 0.0
N1 N 0.04225 0.35951 0.11899 0.0
C2 C 0.10398 0.38056 0.1395 0.0
C3 C 0.08912 0.38188 0.17899 0.0
C4 C 0.0086 0.36169 0.19731 0.0
C5 C 0.94837 0.33979 0.17556 0.0
C6 C -0.03278 0.33895 0.13637 0.0
Zn7 Zn 0.04712 0.36011 0.06056 0.0
C8 C 0.80266 0.35495 0.02888 0.0
N9 N 0.04055 0.36101 0.93863 0.0
C10 C 0.09683 0.38268 0.91653 0.0
C11 C -0.02941 0.339 0.92284 0.0
C12 C 0.95315 0.33847 0.88361 0.0
C13 C 0.00882 0.36065 0.85994 0.0
C14 C 0.08227 0.38289 0.8769 0.0
Zn15 Zn 0.04682 0.3613 0.99701 0.0
O16 O 0.02271 0.40856 0.0594 0.0
C17 C 0.2907 0.36657 0.0286 0.0
O18 O 0.02231 0.40969 0.99687 0.0
H19 H 0.92579 0.32211 0.94083 0.0
H20 H 0.16252 0.39684 0.12511 0.0
H21 H 0.15174 0.40004 0.92965 0.0
O22 O 0.23391 0.36535 0.05993 0.0
O23 O 0.23367 0.36655 0.99726 0.0
H24 H 0.91939 0.32228 0.11966 0.0
O25 O 0.07562 0.31301 0.99823 0.0
O26 O 0.07576 0.31172 0.06067 0.0
O27 O 0.85968 0.35617 0.99777 0.0
O28 O 0.85983 0.35502 0.06001 0.0
C29 C 0.09095 0.29806 0.02935 0.0
H30 H 0.13708 0.39913 0.19485 0.0
H31 H 0.88693 0.32352 0.18873 0.0
H32 H 0.89403 0.32122 0.87211 0.0
H33 H 0.12815 0.40024 0.8598 0.0
C34 C 0.9117 0.55468 0.02886 0.0
N35 N 0.88469 0.61739 0.1184 0.0
C36 C 0.82834 0.59573 0.14048 0.0
C37 C 0.84305 0.59549 0.18009 0.0
C38 C 0.91674 0.61768 0.19703 0.0
C39 C -0.0275 0.63986 0.17337 0.0
C40 C 0.95486 0.63936 0.13416 0.0
Zn41 Zn 0.87841 0.61719 0.0601 0.0
C42 C 0.1226 0.62355 0.02826 0.0
N43 N 0.88334 0.61919 0.93835 0.0
C44 C 0.82713 0.59744 0.9174 0.0
C45 C 0.95369 0.64108 0.92148 0.0
C46 C -0.02775 0.64125 0.88228 0.0
C47 C 0.91723 0.61884 0.85983 0.0
C48 C 0.84271 0.59688 0.87789 0.0
Zn49 Zn 0.87814 0.61829 0.99665 0.0
O50 O 0.90292 0.56876 0.06015 0.0
C51 C 0.63456 0.61182 0.02849 0.0
O52 O 0.90301 0.56988 0.99763 0.0
H53 H -0.00157 0.65802 0.93862 0.0
H54 H 0.77327 0.5784 0.12736 0.0
H55 H 0.77199 0.58017 0.93141 0.0
O56 O 0.69157 0.61195 0.05983 0.0
O57 O 0.69139 0.61293 0.99717 0.0
H58 H -0.00031 0.65625 0.11617 0.0
O59 O 0.84906 0.66663 0.99667 0.0
O60 O 0.84966 0.66553 0.05907 0.0
O61 O 0.06538 0.6235 0.99713 0.0
O62 O 0.06561 0.6223 0.05936 0.0
C63 C 0.83424 0.68041 0.02791 0.0
H64 H 0.79713 0.57815 0.19721 0.0
H65 H 0.03181 0.65706 0.18486 0.0
H66 H 0.03202 0.65833 0.86992 0.0
H67 H 0.7971 0.57942 0.86172 0.0
C68 C 0.01413 0.5547 0.52886 0.0
N69 N 0.04193 0.61923 0.43843 0.0
C70 C 0.09829 0.59752 0.41754 0.0
C71 C 0.0828 0.59696 0.37801 0.0
C72 C 0.00821 0.61888 0.35988 0.0
C73 C 0.953 0.64126 0.38227 0.0
C74 C -0.02852 0.64108 0.42149 0.0
Zn75 Zn 0.04735 0.61832 0.49672 0.0
C76 C 0.80323 0.62355 0.52827 0.0
N77 N 0.04168 0.61738 0.61848 0.0
C78 C 0.09782 0.5957 0.64063 0.0
C79 C -0.02836 0.63937 0.63417 0.0
C80 C 0.9539 0.63986 0.67336 0.0
C81 C 0.00942 0.61766 0.69708 0.0
C82 C 0.083 0.59544 0.68022 0.0
Zn83 Zn 0.04775 0.61719 0.56017 0.0
O84 O 0.02253 0.56993 0.49766 0.0
C85 C 0.29125 0.61185 0.52862 0.0
O86 O 0.02316 0.56875 0.56018 0.0
H87 H 0.92695 0.65628 0.61614 0.0
H88 H 0.15353 0.58027 0.4316 0.0
H89 H 0.15276 0.57835 0.62756 0.0
O90 O 0.2341 0.61299 0.49731 0.0
O91 O 0.23457 0.61195 0.55997 0.0
H92 H 0.92664 0.658 0.43859 0.0
O93 O 0.07662 0.66553 0.55915 0.0
O94 O 0.07639 0.66665 0.49675 0.0
O95 O 0.86056 0.6223 0.55936 0.0
O96 O 0.86012 0.62351 0.49713 0.0
C97 C 0.09166 0.68042 0.52798 0.0
H98 H 0.12854 0.57952 0.36189 0.0
H99 H 0.8932 0.65831 0.36984 0.0
H100 H 0.89465 0.65708 0.68478 0.0
H101 H 0.12874 0.57808 0.69739 0.0
C102 C 0.8358 0.29804 0.52844 0.0
N103 N 0.88545 0.36134 0.43792 0.0
C104 C 0.9601 0.3406 0.42173 0.0
C105 C -0.02106 0.34118 0.38252 0.0
C106 C 0.9191 0.36298 0.35947 0.0
C107 C 0.83917 0.38344 0.37659 0.0
C108 C 0.8243 0.38238 0.41619 0.0
Zn109 Zn 0.87952 0.3612 0.49636 0.0
C110 C 0.63603 0.36652 0.52799 0.0
N111 N 0.88525 0.35915 0.61828 0.0
C112 C 0.95551 0.33727 0.63526 0.0
C113 C 0.82888 0.38086 0.63918 0.0
C114 C 0.84416 0.38139 0.67873 0.0
C115 C 0.91853 0.35944 0.6969 0.0
C116 C -0.02628 0.33705 0.67451 0.0
Zn117 Zn 0.87996 0.36016 0.5599 0.0
O118 O 0.85124 0.31283 0.4972 0.0
C119 C 0.12404 0.35496 0.52836 0.0
O120 O 0.85089 0.31187 0.55965 0.0
H121 H 0.77379 0.39814 0.62511 0.0
H122 H 0.00731 0.32389 0.43937 0.0
H123 H 0.00038 0.32035 0.61817 0.0
O124 O 0.06675 0.35624 0.49726 0.0
O125 O 0.06715 0.35496 0.5595 0.0
H126 H 0.76586 0.39875 0.42962 0.0
O127 O 0.90475 0.40851 0.55909 0.0
O128 O 0.90356 0.40969 0.49657 0.0
O129 O 0.6932 0.3655 0.55931 0.0
O130 O 0.69266 0.36631 0.49664 0.0
C131 C 0.91278 0.42375 0.52789 0.0
H132 H 0.03987 0.32471 0.37033 0.0
H133 H 0.79147 0.40061 0.35968 0.0
H134 H 0.7984 0.39884 0.69482 0.0
H135 H 0.03335 0.31997 0.68696 0.0
C136 C 0.51477 0.92402 0.02793 0.0
N137 N 0.54296 0.8595 0.11844 0.0
C138 C 0.59918 0.88124 0.1394 0.0
C139 C 0.5836 0.88179 0.17891 0.0
C140 C 0.50906 0.85984 0.19696 0.0
C141 C 0.45402 0.83743 0.17451 0.0
C142 C 0.47259 0.83761 0.13531 0.0
Zn143 Zn 0.54816 0.8604 0.06014 0.0
C144 C 0.3037 0.85516 0.02853 0.0
N145 N 0.5416 0.86129 0.93839 0.0
C146 C 0.59797 0.88294 0.9163 0.0
C147 C 0.47141 0.83933 0.92263 0.0
C148 C 0.45377 0.83882 0.88342 0.0
C149 C 0.50954 0.86099 0.85976 0.0
C150 C 0.58325 0.88318 0.87669 0.0
Zn151 Zn 0.5479 0.86149 0.99669 0.0
O152 O 0.5234 0.90881 0.05916 0.0
C153 C 0.79174 0.86685 0.0283 0.0
O154 O 0.52349 0.90993 0.99664 0.0
H155 H 0.42657 0.82244 0.94063 0.0
H156 H 0.65434 0.89851 0.12539 0.0
H157 H 0.65305 0.90027 0.92942 0.0
O158 O 0.73492 0.86574 0.05962 0.0
O159 O 0.73473 0.86672 0.99695 0.0
H160 H 0.42784 0.82067 0.11817 0.0
O161 O 0.57657 0.81316 0.99772 0.0
O162 O 0.57716 0.81205 0.06012 0.0
O163 O 0.3607 0.8564 0.99743 0.0
O164 O 0.36092 0.85521 0.05966 0.0
C165 C 0.59196 0.79828 0.02888 0.0
H166 H 0.62922 0.89926 0.19508 0.0
H167 H 0.39424 0.82036 0.18686 0.0
H168 H 0.39444 0.82162 0.87194 0.0
H169 H 0.62918 0.90051 0.85957 0.0
C170 C 0.41364 0.05498 0.02863 0.0
N171 N 0.38703 0.11773 0.11816 0.0
C172 C 0.33054 0.09608 0.14023 0.0
C173 C 0.34491 0.09585 0.17985 0.0
C174 C 0.41839 0.11807 0.19685 0.0
C175 C 0.4743 0.14023 0.17322 0.0
C176 C 0.45704 0.13971 0.13397 0.0
Zn177 Zn 0.38082 0.11746 0.0598 0.0
C178 C 0.62499 0.12378 0.02794 0.0
N179 N 0.38532 0.11925 0.93785 0.0
C180 C 0.32341 0.09822 0.91737 0.0
C181 C 0.46036 0.13979 0.92044 0.0
C182 C 0.479 0.13895 0.88124 0.0
C183 C 0.41856 0.11708 0.85951 0.0
C184 C 0.33807 0.0969 0.87787 0.0
Zn185 Zn 0.38053 0.11865 0.99626 0.0
O186 O 0.40523 0.06905 0.05993 0.0
C187 C 0.13696 0.11221 0.02821 0.0
O188 O 0.40484 0.07019 0.99741 0.0
H189 H 0.50833 0.15644 0.93713 0.0
H190 H 0.27559 0.07874 0.12707 0.0
H191 H 0.26487 0.08196 0.93178 0.0
O192 O 0.19398 0.11222 0.05955 0.0
O193 O 0.19375 0.11343 0.99689 0.0
H194 H 0.50199 0.15659 0.11601 0.0
O195 O 0.352 0.16704 0.99615 0.0
O196 O 0.35213 0.16575 0.05859 0.0
O197 O 0.56783 0.12372 0.9968 0.0
O198 O 0.56797 0.12256 0.05904 0.0
C199 C 0.33684 0.18071 0.02748 0.0
H200 H 0.29886 0.07852 0.19694 0.0
H201 H 0.53344 0.15746 0.18475 0.0
H202 H 0.54044 0.15521 0.86804 0.0
H203 H 0.28996 0.07966 0.86203 0.0
C204 C 0.5129 0.05493 0.52892 0.0
N205 N 0.54044 0.11953 0.43855 0.0
C206 C 0.59701 0.09783 0.41768 0.0
C207 C 0.58195 0.09731 0.37813 0.0
C208 C 0.50759 0.11924 0.35992 0.0
C209 C 0.45217 0.14161 0.38229 0.0
C210 C 0.47017 0.1414 0.42155 0.0
Zn211 Zn 0.54567 0.11852 0.49691 0.0
C212 C 0.30158 0.12371 0.52845 0.0
N213 N 0.54024 0.11734 0.61886 0.0
C214 C 0.60152 0.09631 0.64057 0.0
C215 C 0.46564 0.13808 0.63507 0.0
C216 C 0.44701 0.13752 0.67428 0.0
C217 C 0.507 0.11574 0.69732 0.0
C218 C 0.58685 0.09527 0.68017 0.0
Zn219 Zn 0.54611 0.11748 0.56044 0.0
O220 O 0.52092 0.07017 0.49771 0.0
C221 C 0.78959 0.11217 0.52881 0.0
O222 O 0.5221 0.06898 0.56024 0.0
H223 H 0.41834 0.15478 0.61744 0.0
H224 H 0.65212 0.08057 0.43177 0.0
H225 H 0.65992 0.07994 0.62712 0.0
O226 O 0.73242 0.11319 0.4975 0.0
O227 O 0.73296 0.11237 0.56017 0.0
H228 H 0.42517 0.1583 0.43862 0.0
O229 O 0.57434 0.16585 0.5596 0.0
O230 O 0.57468 0.16681 0.49716 0.0
O231 O 0.35887 0.12243 0.55955 0.0
O232 O 0.35847 0.12371 0.49731 0.0
C233 C 0.58975 0.18064 0.52836 0.0
H234 H 0.62787 0.07988 0.36204 0.0
H235 H 0.39256 0.15868 0.36981 0.0
H236 H 0.38613 0.154 0.6865 0.0
H237 H 0.63465 0.07811 0.69707 0.0
C238 C 0.3346 0.79823 0.52881 0.0
N239 N 0.38453 0.86127 0.43831 0.0
C240 C 0.45458 0.83928 0.42262 0.0
C241 C 0.47234 0.8388 0.38343 0.0
C242 C 0.41683 0.861 0.35971 0.0
C243 C 0.34324 0.88321 0.37657 0.0
C244 C 0.3284 0.88296 0.41616 0.0
Zn245 Zn 0.37845 0.86146 0.49662 0.0
C246 C 0.13496 0.86679 0.52817 0.0
N247 N 0.38427 0.85941 0.61836 0.0
C248 C 0.45473 0.83756 0.6353 0.0
C249 C 0.32791 0.88113 0.63925 0.0
C250 C 0.34342 0.88169 0.67878 0.0
C251 C 0.41802 0.85977 0.69691 0.0
C252 C 0.47322 0.83739 0.67452 0.0
Zn253 Zn 0.37885 0.86032 0.56007 0.0
O254 O 0.34962 0.81311 0.49764 0.0
C255 C 0.62297 0.85511 0.52852 0.0
O256 O 0.34985 0.81199 0.56004 0.0
H257 H 0.27266 0.89837 0.62519 0.0
H258 H 0.49927 0.82237 0.44065 0.0
H259 H 0.49957 0.82064 0.6182 0.0
O260 O 0.56564 0.85636 0.49743 0.0
O261 O 0.56608 0.85515 0.55966 0.0
H262 H 0.27345 0.9003 0.42923 0.0
O263 O 0.40362 0.90871 0.55914 0.0
O264 O 0.40299 0.9099 0.49662 0.0
O265 O 0.1921 0.86564 0.55949 0.0
O266 O 0.19163 0.86669 0.49682 0.0
C267 C 0.41199 0.92395 0.52794 0.0
H268 H 0.5316 0.82158 0.37201 0.0
H269 H 0.2975 0.90058 0.3594 0.0
H270 H 0.29768 0.89913 0.6949 0.0
H271 H 0.53304 0.82034 0.68695 0.0
C272 C 0.48505 0.36218 0.06316 0.0
C273 C 0.42205 0.36478 0.02866 0.0
H274 H 0.65427 0.35651 0.09032 0.0
C275 C 0.48507 0.36327 0.99423 0.0
H276 H 0.43913 0.36298 0.0902 0.0
C277 C 0.60834 0.35927 0.99431 0.0
C278 C 0.67133 0.3567 0.02881 0.0
H279 H 0.43915 0.36492 0.96715 0.0
H280 H 0.6543 0.35845 0.96728 0.0
C281 C 0.60832 0.35817 0.06324 0.0
C282 C 0.31696 0.61922 0.0628 0.0
C283 C 0.25394 0.62178 0.0283 0.0
H284 H 0.48615 0.61353 0.08995 0.0
C285 C 0.31691 0.62027 0.99387 0.0
H286 H 0.27104 0.62005 0.08984 0.0
C287 C 0.44017 0.61622 0.99394 0.0
C288 C 0.5032 0.61362 0.02844 0.0
H289 H 0.27094 0.62193 0.96679 0.0
H290 H 0.48607 0.6154 0.9669 0.0
C291 C 0.44022 0.61517 0.06286 0.0
C292 C 0.60852 0.62028 0.49393 0.0
C293 C 0.6719 0.62179 0.52834 0.0
H294 H 0.43903 0.61542 0.467 0.0
C295 C 0.60927 0.61923 0.56286 0.0
H296 H 0.65417 0.62193 0.46684 0.0
C297 C 0.486 0.6152 0.56295 0.0
C298 C 0.42261 0.61365 0.52854 0.0
H299 H 0.65551 0.62007 0.58988 0.0
H300 H 0.44038 0.61356 0.59005 0.0
C301 C 0.48525 0.61624 0.49403 0.0
C302 C 0.44128 0.36319 0.49367 0.0
C303 C 0.50468 0.36474 0.52808 0.0
H304 H 0.27174 0.35836 0.46675 0.0
C305 C 0.44204 0.36221 0.5626 0.0
H306 H 0.4869 0.36479 0.46658 0.0
C307 C 0.31875 0.35822 0.5627 0.0
C308 C 0.25537 0.3567 0.52829 0.0
H309 H 0.48827 0.36304 0.58963 0.0
H310 H 0.27309 0.3566 0.58979 0.0
C311 C 0.318 0.3592 0.49377 0.0
C312 C -0.01392 0.86351 0.99392 0.0
C313 C 0.9231 0.86505 0.02835 0.0
H314 H 0.15527 0.85864 0.96695 0.0
C315 C -0.01387 0.86246 0.06285 0.0
H316 H 0.94015 0.86515 0.96684 0.0
C317 C 0.1094 0.85843 0.06292 0.0
C318 C 0.17237 0.85692 0.02849 0.0
H319 H 0.94024 0.86328 0.08989 0.0
H320 H 0.15537 0.85677 0.08999 0.0
C321 C 0.10934 0.85948 0.99399 0.0
C322 C 0.94261 0.11659 0.99365 0.0
C323 C 0.00561 0.11399 0.02815 0.0
H324 H 0.77339 0.12224 0.96649 0.0
C325 C 0.94259 0.11549 0.06258 0.0
H326 H -0.01146 0.1158 0.96661 0.0
C327 C 0.81931 0.11948 0.0625 0.0
C328 C 0.75632 0.12205 0.028 0.0
H329 H -0.01149 0.11384 0.08966 0.0
H330 H 0.77335 0.12028 0.08953 0.0
C331 C 0.81933 0.12058 0.99357 0.0
C332 C 0.10687 0.12046 0.4941 0.0
C333 C 0.17025 0.12198 0.52852 0.0
H334 H 0.93735 0.11565 0.46718 0.0
C335 C 0.10762 0.11947 0.56303 0.0
H336 H 0.15253 0.12207 0.46701 0.0
C337 C -0.01566 0.11549 0.56313 0.0
C338 C 0.92094 0.11394 0.52872 0.0
H339 H 0.15387 0.12032 0.59006 0.0
H340 H 0.93872 0.11389 0.59023 0.0
C341 C -0.01642 0.11648 0.49421 0.0
C342 C 0.81693 0.85942 0.49394 0.0
C343 C 0.7543 0.85686 0.52845 0.0
H344 H -0.01418 0.86508 0.46674 0.0
C345 C 0.81769 0.85837 0.56286 0.0
H346 H 0.77068 0.85858 0.46691 0.0
C347 C 0.94096 0.8624 0.56276 0.0
C348 C 0.00359 0.86499 0.52825 0.0
H349 H 0.77203 0.85672 0.58995 0.0
H350 H -0.01282 0.86322 0.58979 0.0
C351 C 0.9402 0.86344 0.49384 0.0
C352 C 0.95005 0.50433 0.06309 0.0
C353 C 0.93621 0.52111 0.02871 0.0
H354 H -0.01383 0.46047 0.0899 0.0
C355 C 0.94927 0.50569 0.99414 0.0
H356 H 0.94091 0.51555 0.09021 0.0
C357 C -0.02438 0.47413 0.99396 0.0
C358 C -0.01057 0.45734 0.02833 0.0
H359 H 0.93949 0.51798 0.96715 0.0
H360 H -0.01525 0.4629 0.96684 0.0
C361 C -0.0236 0.47277 0.06291 0.0
C362 C 0.95026 0.47418 0.49376 0.0
C363 C 0.93701 0.45733 0.5281 0.0
H364 H -0.01426 0.51809 0.46706 0.0
C365 C 0.95037 0.47271 0.56271 0.0
H366 H 0.94086 0.46299 0.46662 0.0
C367 C -0.02351 0.50428 0.56297 0.0
C368 C -0.01022 0.52112 0.52863 0.0
H369 H 0.94102 0.46036 0.58968 0.0
H370 H -0.0141 0.51546 0.59012 0.0
C371 C -0.02361 0.50575 0.49402 0.0
C372 C 0.47758 0.97303 0.06265 0.0
C373 C 0.49049 0.95759 0.02808 0.0
H374 H 0.44248 0.01583 0.08996 0.0
C375 C 0.4768 0.97439 0.9937 0.0
H376 H 0.48725 0.96073 0.08964 0.0
C377 C 0.45073 0.00596 0.99389 0.0
C378 C 0.43784 0.0214 0.02846 0.0
H379 H 0.48585 0.96316 0.96658 0.0
H380 H 0.44107 0.01827 0.9669 0.0
C381 C 0.45151 0.0046 0.06284 0.0
C382 C 0.47557 0.00449 0.56304 0.0
C383 C 0.48876 0.02134 0.52871 0.0
H384 H 0.44024 0.96056 0.58974 0.0
C385 C 0.47546 0.00596 0.49409 0.0
H386 H 0.48492 0.01568 0.59019 0.0
C387 C 0.44946 0.97439 0.49383 0.0
C388 C 0.43624 0.95753 0.52817 0.0
H389 H 0.48477 0.01831 0.46713 0.0
H390 H 0.4401 0.9632 0.46668 0.0
C391 C 0.44956 0.97291 0.56278 0.0
C392 C 0.17822 0.25365 0.99424 0.0
C393 C 0.14683 0.26705 0.02896 0.0
H394 H 0.26567 0.21641 0.96646 0.0
C395 C 0.18328 0.25245 0.06312 0.0
H396 H 0.153 0.26448 0.96736 0.0
C397 C 0.24964 0.22513 0.06258 0.0
C398 C 0.28102 0.21172 0.02787 0.0
H399 H 0.16219 0.26236 0.09036 0.0
H400 H 0.27486 0.21429 0.08946 0.0
C401 C 0.24458 0.22632 0.9937 0.0
C402 C 0.67878 0.75364 0.99409 0.0
C403 C 0.64701 0.76717 0.02869 0.0
H404 H 0.76563 0.71615 0.96665 0.0
C405 C 0.68203 0.75253 0.06299 0.0
H406 H 0.65464 0.7645 0.96712 0.0
C407 C 0.74739 0.72504 0.0627 0.0
C408 C 0.77916 0.71151 0.0281 0.0
H409 H 0.66053 0.76252 0.09014 0.0
H410 H 0.77152 0.71418 0.08967 0.0
C411 C 0.74413 0.72615 0.9938 0.0
C412 C 0.17939 0.72501 0.56272 0.0
C413 C 0.14688 0.71151 0.52815 0.0
H414 H 0.267 0.76246 0.59011 0.0
C415 C 0.18135 0.72616 0.49382 0.0
H416 H 0.1557 0.71415 0.58971 0.0
C417 C 0.24689 0.75363 0.49407 0.0
C418 C 0.2794 0.76713 0.52864 0.0
H419 H 0.15928 0.71618 0.46668 0.0
H420 H 0.27058 0.76449 0.46708 0.0
C421 C 0.24493 0.75248 0.56296 0.0
C422 C 0.74623 0.25354 0.49397 0.0
C423 C 0.7799 0.26702 0.52843 0.0
H424 H 0.65687 0.21624 0.46686 0.0
C425 C 0.74568 0.25249 0.56287 0.0
H426 H 0.76962 0.26433 0.46691 0.0
C427 C 0.67927 0.22515 0.56283 0.0
C428 C 0.64562 0.21167 0.52837 0.0
H429 H 0.76863 0.26245 0.58994 0.0
H430 H 0.65589 0.21436 0.58989 0.0
C431 C 0.67982 0.2262 0.49394 0.0
C432 C 0.86861 0.36383 0.25272 0.0
C433 C -0.01416 0.36352 0.23879 0.0
H434 H 0.75562 0.36434 0.30187 0.0
C435 C 0.08074 0.36422 0.26477 0.0
H436 H 0.7938 0.36357 0.23327 0.0
C437 C 0.05885 0.36434 0.30394 0.0
C438 C 0.94164 0.3643 0.31788 0.0
H439 H 0.17186 0.36389 0.25482 0.0
H440 H 0.13368 0.36442 0.32339 0.0
C441 C 0.84672 0.36449 0.29188 0.0
C442 C 0.94885 0.64584 0.25806 0.0
C443 C 0.93754 0.61772 0.23892 0.0
H444 H -0.01659 0.66829 0.31048 0.0
C445 C 0.95012 0.58986 0.25994 0.0
H446 H 0.93822 0.66777 0.243 0.0
C447 C -0.02611 0.59016 0.29905 0.0
C448 C -0.01405 0.61833 0.31808 0.0
H449 H 0.9434 0.56778 0.2461 0.0
H450 H -0.01864 0.56829 0.31443 0.0
C451 C -0.02661 0.64614 0.29699 0.0
C452 C 0.95177 0.59012 0.79904 0.0
C453 C 0.93963 0.61828 0.81805 0.0
H454 H -0.01751 0.56774 0.74612 0.0
C455 C 0.95231 0.64609 0.79698 0.0
H456 H 0.94421 0.56824 0.8144 0.0
C457 C -0.02293 0.6458 0.75808 0.0
C458 C -0.01155 0.61769 0.73895 0.0
H459 H 0.94224 0.66824 0.81045 0.0
H460 H -0.0122 0.66773 0.74305 0.0
C461 C -0.02427 0.58982 0.75995 0.0
C462 C 0.95294 0.33218 0.75987 0.0
C463 C 0.94053 0.35998 0.73875 0.0
H464 H -0.01245 0.31055 0.81391 0.0
C465 C 0.95239 0.38815 0.7578 0.0
H466 H 0.9431 0.31003 0.74637 0.0
C467 C -0.02419 0.38845 0.79695 0.0
C468 C -0.01178 0.36059 0.81801 0.0
H469 H 0.94503 0.41002 0.74242 0.0
H470 H -0.0176 0.41054 0.81079 0.0
C471 C -0.02293 0.33248 0.79884 0.0
C472 C 0.47452 0.88855 0.25776 0.0
C473 C 0.48665 0.86039 0.23874 0.0
H474 H 0.44379 0.91093 0.31068 0.0
C475 C 0.47396 0.83258 0.25981 0.0
H476 H 0.48209 0.91043 0.2424 0.0
C477 C 0.4492 0.83287 0.2987 0.0
C478 C 0.43782 0.86098 0.31784 0.0
H479 H 0.48403 0.81043 0.24633 0.0
H480 H 0.43846 0.81093 0.31373 0.0
C481 C 0.45055 0.88884 0.29685 0.0
C482 C 0.44977 0.14623 0.25796 0.0
C483 C 0.43873 0.11812 0.23879 0.0
H484 H 0.48338 0.16867 0.31047 0.0
C485 C 0.45098 0.09026 0.25984 0.0
H486 H 0.43941 0.16816 0.24289 0.0
C487 C 0.47413 0.09055 0.299 0.0
C488 C 0.48587 0.11872 0.31807 0.0
H489 H 0.44446 0.06817 0.24599 0.0
H490 H 0.48137 0.06868 0.31439 0.0
C491 C 0.47362 0.14652 0.29695 0.0
C492 C 0.34598 0.11457 0.79212 0.0
C493 C 0.44105 0.11526 0.81803 0.0
H494 H 0.29265 0.11435 0.73353 0.0
C495 C 0.55819 0.11492 0.80403 0.0
H496 H 0.25492 0.11491 0.80213 0.0
C497 C 0.57982 0.11425 0.76486 0.0
C498 C 0.48473 0.11444 0.73892 0.0
H499 H 0.63313 0.11517 0.82343 0.0
H500 H 0.67086 0.11439 0.75481 0.0
C501 C 0.36761 0.11443 0.75294 0.0
C502 C 0.45286 0.83252 0.7598 0.0
C503 C 0.4403 0.86033 0.73871 0.0
H504 H 0.48804 0.81089 0.8138 0.0
C505 C 0.45237 0.8885 0.75773 0.0
H506 H 0.44284 0.81037 0.74632 0.0
C507 C 0.47616 0.8888 0.79685 0.0
C508 C 0.48874 0.86094 0.81787 0.0
H509 H 0.4449 0.91037 0.74234 0.0
H510 H 0.48289 0.91089 0.81068 0.0
C511 C 0.47742 0.83283 0.79873 0.0
loop_
_geom_bond_atom_site_label_1
_geom_bond_atom_site_label_2
_geom_bond_distance
_geom_bond_site_symmetry_2
_ccdc_geom_bond_type
C0 O16 1.251 . S
C0 O18 1.254 1_554 S
N1 C2 1.333 . S
N1 C6 1.307 . S
N1 Zn7 2.020 . S
C2 N1 1.333 . S
C2 C3 1.379 . S
C2 H20 0.952 . S
C3 C2 1.379 . S
C3 C4 1.390 . S
C3 H30 0.949 . S
C4 C3 1.390 . S
C4 C5 1.357 . S
C5 C4 1.357 . S
C5 C6 1.370 . S
C5 H31 0.950 1_455 S
C6 N1 1.307 . S
C6 C5 1.370 . S
C6 H24 0.948 1_455 S
Zn7 N1 2.020 . S
Zn7 O16 2.039 . S
Zn7 O22 2.034 . S
Zn7 O26 2.025 . S
Zn7 O28 2.024 1_455 S
C8 O27 1.246 1_554 S
C8 O28 1.249 . S
N9 C10 1.307 . S
N9 C11 1.333 . S
N9 Zn15 2.020 . S
C10 N9 1.307 . S
C10 C14 1.370 . S
C10 H21 0.948 . S
C11 N9 1.333 . S
C11 C12 1.379 . S
C11 H19 0.952 . S
C12 C11 1.379 . S
C12 C13 1.390 . S
C12 H32 0.949 1_455 S
C13 C12 1.390 . S
C13 C14 1.357 . S
C14 C10 1.370 . S
C14 C13 1.357 . S
C14 H33 0.950 . S
Zn15 N9 2.020 . S
Zn15 O18 2.025 . S
Zn15 O23 2.024 . S
Zn15 O25 2.039 . S
Zn15 O27 2.034 1_455 S
O16 C0 1.251 . S
O16 Zn7 2.039 . S
C17 O22 1.246 . S
C17 O23 1.249 1_554 S
O18 C0 1.254 1_556 S
O18 Zn15 2.025 . S
H19 C11 0.952 . S
H20 C2 0.952 . S
H21 C10 0.948 . S
O22 Zn7 2.034 . S
O22 C17 1.246 . S
O23 Zn15 2.024 . S
O23 C17 1.249 1_556 S
H24 C6 0.948 1_655 S
O25 Zn15 2.039 . S
O25 C29 1.251 1_556 S
O26 Zn7 2.025 . S
O26 C29 1.254 . S
O27 C8 1.246 1_556 S
O27 Zn15 2.034 1_655 S
O28 Zn7 2.024 1_655 S
O28 C8 1.249 . S
C29 O25 1.251 1_554 S
C29 O26 1.254 . S
H30 C3 0.949 . S
H31 C5 0.950 1_655 S
H32 C12 0.949 1_655 S
H33 C14 0.950 . S
C34 O50 1.251 . S
C34 O52 1.254 1_554 S
N35 C36 1.333 . S
N35 C40 1.307 . S
N35 Zn41 2.020 . S
C36 N35 1.333 . S
C36 C37 1.379 . S
C36 H54 0.952 . S
C37 C36 1.379 . S
C37 C38 1.390 . S
C37 H64 0.949 . S
C38 C37 1.390 . S
C38 C39 1.357 . S
C39 C38 1.357 . S
C39 C40 1.370 . S
C39 H65 0.950 1_655 S
C40 N35 1.307 . S
C40 C39 1.370 . S
C40 H58 0.948 1_655 S
Zn41 N35 2.020 . S
Zn41 O50 2.039 . S
Zn41 O56 2.034 . S
Zn41 O60 2.025 . S
Zn41 O62 2.024 1_655 S
C42 O61 1.246 1_554 S
C42 O62 1.249 . S
N43 C44 1.307 . S
N43 C45 1.333 . S
N43 Zn49 2.020 . S
C44 N43 1.307 . S
C44 C48 1.370 . S
C44 H55 0.948 . S
C45 N43 1.333 . S
C45 C46 1.379 . S
C45 H53 0.952 . S
C46 C45 1.379 . S
C46 C47 1.390 . S
C46 H66 0.948 1_655 S
C47 C46 1.390 . S
C47 C48 1.357 . S
C48 C44 1.370 . S
C48 C47 1.357 . S
C48 H67 0.950 . S
Zn49 N43 2.020 . S
Zn49 O52 2.025 . S
Zn49 O57 2.024 . S
Zn49 O59 2.039 . S
Zn49 O61 2.034 1_655 S
O50 C34 1.251 . S
O50 Zn41 2.039 . S
C51 O56 1.246 . S
C51 O57 1.249 1_554 S
O52 C34 1.254 1_556 S
O52 Zn49 2.025 . S
H53 C45 0.952 . S
H54 C36 0.952 . S
H55 C44 0.948 . S
O56 Zn41 2.034 . S
O56 C51 1.246 . S
O57 Zn49 2.024 . S
O57 C51 1.249 1_556 S
H58 C40 0.948 1_455 S
O59 Zn49 2.039 . S
O59 C63 1.251 1_556 S
O60 Zn41 2.025 . S
O60 C63 1.254 . S
O61 C42 1.246 1_556 S
O61 Zn49 2.034 1_455 S
O62 Zn41 2.024 1_455 S
O62 C42 1.249 . S
C63 O59 1.251 1_554 S
C63 O60 1.254 . S
H64 C37 0.949 . S
H65 C39 0.950 1_455 S
H66 C46 0.948 1_455 S
H67 C48 0.950 . S
C68 O84 1.251 . S
C68 O86 1.254 . S
N69 C70 1.333 . S
N69 C74 1.307 . S
N69 Zn75 2.020 . S
C70 N69 1.333 . S
C70 C71 1.379 . S
C70 H88 0.952 . S
C71 C70 1.379 . S
C71 C72 1.390 . S
C71 H98 0.949 . S
C72 C71 1.390 . S
C72 C73 1.357 . S
C73 C72 1.357 . S
C73 C74 1.370 . S
C73 H99 0.950 1_455 S
C74 N69 1.307 . S
C74 C73 1.370 . S
C74 H92 0.948 1_455 S
Zn75 N69 2.020 . S
Zn75 O84 2.039 . S
Zn75 O90 2.034 . S
Zn75 O94 2.025 . S
Zn75 O96 2.024 1_455 S
C76 O95 1.246 . S
C76 O96 1.249 . S
N77 C78 1.307 . S
N77 C79 1.333 . S
N77 Zn83 2.020 . S
C78 N77 1.307 . S
C78 C82 1.370 . S
C78 H89 0.948 . S
C79 N77 1.333 . S
C79 C80 1.379 . S
C79 H87 0.952 . S
C80 C79 1.379 . S
C80 C81 1.390 . S
C80 H100 0.949 1_455 S
C81 C80 1.390 . S
C81 C82 1.357 . S
C82 C78 1.370 . S
C82 C81 1.357 . S
C82 H101 0.950 . S
Zn83 N77 2.020 . S
Zn83 O86 2.025 . S
Zn83 O91 2.024 . S
Zn83 O93 2.039 . S
Zn83 O95 2.034 1_455 S
O84 C68 1.251 . S
O84 Zn75 2.039 . S
C85 O90 1.246 . S
C85 O91 1.249 . S
O86 C68 1.254 . S
O86 Zn83 2.025 . S
H87 C79 0.952 . S
H88 C70 0.952 . S
H89 C78 0.948 . S
O90 Zn75 2.034 . S
O90 C85 1.246 . S
O91 Zn83 2.024 . S
O91 C85 1.249 . S
H92 C74 0.948 1_655 S
O93 Zn83 2.039 . S
O93 C97 1.251 . S
O94 Zn75 2.025 . S
O94 C97 1.254 . S
O95 C76 1.246 . S
O95 Zn83 2.034 1_655 S
O96 Zn75 2.024 1_655 S
O96 C76 1.249 . S
C97 O93 1.251 . S
C97 O94 1.254 . S
H98 C71 0.949 . S
H99 C73 0.950 1_655 S
H100 C80 0.949 1_655 S
H101 C82 0.950 . S
C102 O118 1.251 . S
C102 O120 1.254 . S
N103 C104 1.333 . S
N103 C108 1.307 . S
N103 Zn109 2.020 . S
C104 N103 1.333 . S
C104 C105 1.379 . S
C104 H122 0.952 . S
C105 C104 1.379 . S
C105 C106 1.390 . S
C105 H132 0.949 1_655 S
C106 C105 1.390 . S
C106 C107 1.357 . S
C107 C106 1.357 . S
C107 C108 1.370 . S
C107 H133 0.950 . S
C108 N103 1.307 . S
C108 C107 1.370 . S
C108 H126 0.948 . S
Zn109 N103 2.020 . S
Zn109 O118 2.039 . S
Zn109 O124 2.034 1_655 S
Zn109 O128 2.025 . S
Zn109 O130 2.024 . S
C110 O129 1.246 . S
C110 O130 1.249 . S
N111 C112 1.307 . S
N111 C113 1.333 . S
N111 Zn117 2.020 . S
C112 N111 1.307 . S
C112 C116 1.370 . S
C112 H123 0.948 1_655 S
C113 N111 1.333 . S
C113 C114 1.379 . S
C113 H121 0.952 . S
C114 C113 1.379 . S
C114 C115 1.390 . S
C114 H134 0.949 . S
C115 C114 1.390 . S
C115 C116 1.357 . S
C116 C112 1.370 . S
C116 C115 1.357 . S
C116 H135 0.950 1_655 S
Zn117 N111 2.020 . S
Zn117 O120 2.025 . S
Zn117 O125 2.024 1_655 S
Zn117 O127 2.039 . S
Zn117 O129 2.034 . S
O118 C102 1.251 . S
O118 Zn109 2.039 . S
C119 O124 1.246 . S
C119 O125 1.249 . S
O120 C102 1.254 . S
O120 Zn117 2.025 . S
H121 C113 0.952 . S
H122 C104 0.952 . S
H123 C112 0.948 1_455 S
O124 Zn109 2.034 1_455 S
O124 C119 1.246 . S
O125 Zn117 2.024 1_455 S
O125 C119 1.249 . S
H126 C108 0.948 . S
O127 Zn117 2.039 . S
O127 C131 1.251 . S
O128 Zn109 2.025 . S
O128 C131 1.254 . S
O129 C110 1.246 . S
O129 Zn117 2.034 . S
O130 Zn109 2.024 . S
O130 C110 1.249 . S
C131 O127 1.251 . S
C131 O128 1.254 . S
H132 C105 0.949 1_455 S
H133 C107 0.950 . S
H134 C114 0.949 . S
H135 C116 0.950 1_455 S
C136 O152 1.251 . S
C136 O154 1.254 1_554 S
N137 C138 1.333 . S
N137 C142 1.307 . S
N137 Zn143 2.020 . S
C138 N137 1.333 . S
C138 C139 1.379 . S
C138 H156 0.952 . S
C139 C138 1.379 . S
C139 C140 1.390 . S
C139 H166 0.949 . S
C140 C139 1.390 . S
C140 C141 1.357 . S
C141 C140 1.357 . S
C141 C142 1.370 . S
C141 H167 0.950 . S
C142 N137 1.307 . S
C142 C141 1.370 . S
C142 H160 0.948 . S
Zn143 N137 2.020 . S
Zn143 O152 2.039 . S
Zn143 O158 2.034 . S
Zn143 O162 2.025 . S
Zn143 O164 2.024 . S
C144 O163 1.246 1_554 S
C144 O164 1.249 . S
N145 C146 1.307 . S
N145 C147 1.333 . S
N145 Zn151 2.020 . S
C146 N145 1.307 . S
C146 C150 1.370 . S
C146 H157 0.948 . S
C147 N145 1.333 . S
C147 C148 1.379 . S
C147 H155 0.952 . S
C148 C147 1.379 . S
C148 C149 1.390 . S
C148 H168 0.949 . S
C149 C148 1.390 . S
C149 C150 1.357 . S
C150 C146 1.370 . S
C150 C149 1.357 . S
C150 H169 0.950 . S
Zn151 N145 2.020 . S
Zn151 O154 2.025 . S
Zn151 O159 2.024 . S
Zn151 O161 2.039 . S
Zn151 O163 2.034 . S
O152 C136 1.251 . S
O152 Zn143 2.039 . S
C153 O158 1.246 . S
C153 O159 1.249 1_554 S
O154 C136 1.254 1_556 S
O154 Zn151 2.025 . S
H155 C147 0.952 . S
H156 C138 0.952 . S
H157 C146 0.948 . S
O158 Zn143 2.034 . S
O158 C153 1.246 . S
O159 Zn151 2.024 . S
O159 C153 1.249 1_556 S
H160 C142 0.948 . S
O161 Zn151 2.039 . S
O161 C165 1.251 1_556 S
O162 Zn143 2.025 . S
O162 C165 1.254 . S
O163 C144 1.246 1_556 S
O163 Zn151 2.034 . S
O164 Zn143 2.024 . S
O164 C144 1.249 . S
C165 O161 1.251 1_554 S
C165 O162 1.254 . S
H166 C139 0.949 . S
H167 C141 0.950 . S
H168 C148 0.949 . S
H169 C150 0.950 . S
C170 O186 1.251 . S
C170 O188 1.254 1_554 S
N171 C172 1.333 . S
N171 C176 1.307 . S
N171 Zn177 2.020 . S
C172 N171 1.333 . S
C172 C173 1.379 . S
C172 H190 0.952 . S
C173 C172 1.379 . S
C173 C174 1.390 . S
C173 H200 0.949 . S
C174 C173 1.390 . S
C174 C175 1.357 . S
C175 C174 1.357 . S
C175 C176 1.370 . S
C175 H201 0.950 . S
C176 N171 1.307 . S
C176 C175 1.370 . S
C176 H194 0.948 . S
Zn177 N171 2.020 . S
Zn177 O186 2.039 . S
Zn177 O192 2.034 . S
Zn177 O196 2.025 . S
Zn177 O198 2.024 . S
C178 O197 1.246 1_554 S
C178 O198 1.249 . S
N179 C180 1.307 . S
N179 C181 1.333 . S
N179 Zn185 2.020 . S
C180 N179 1.307 . S
C180 C184 1.370 . S
C180 H191 0.948 . S
C181 N179 1.333 . S
C181 C182 1.379 . S
C181 H189 0.952 . S
C182 C181 1.379 . S
C182 C183 1.390 . S
C182 H202 0.949 . S
C183 C182 1.390 . S
C183 C184 1.357 . S
C184 C180 1.370 . S
C184 C183 1.357 . S
C184 H203 0.950 . S
Zn185 N179 2.020 . S
Zn185 O188 2.025 . S
Zn185 O193 2.024 . S
Zn185 O195 2.039 . S
Zn185 O197 2.034 . S
O186 C170 1.251 . S
O186 Zn177 2.039 . S
C187 O192 1.246 . S
C187 O193 1.249 1_554 S
O188 C170 1.254 1_556 S
O188 Zn185 2.025 . S
H189 C181 0.952 . S
H190 C172 0.952 . S
H191 C180 0.948 . S
O192 Zn177 2.034 . S
O192 C187 1.246 . S
O193 Zn185 2.024 . S
O193 C187 1.249 1_556 S
H194 C176 0.948 . S
O195 Zn185 2.039 . S
O195 C199 1.251 1_556 S
O196 Zn177 2.025 . S
O196 C199 1.254 . S
O197 C178 1.246 1_556 S
O197 Zn185 2.034 . S
O198 Zn177 2.024 . S
O198 C178 1.249 . S
C199 O195 1.251 1_554 S
C199 O196 1.254 . S
H200 C173 0.949 . S
H201 C175 0.950 . S
H202 C182 0.949 . S
H203 C184 0.950 . S
C204 O220 1.251 . S
C204 O222 1.254 . S
N205 C206 1.333 . S
N205 C210 1.307 . S
N205 Zn211 2.020 . S
C206 N205 1.333 . S
C206 C207 1.379 . S
C206 H224 0.952 . S
C207 C206 1.379 . S
C207 C208 1.390 . S
C207 H234 0.949 . S
C208 C207 1.390 . S
C208 C209 1.357 . S
C209 C208 1.357 . S
C209 C210 1.370 . S
C209 H235 0.950 . S
C210 N205 1.307 . S
C210 C209 1.370 . S
C210 H228 0.948 . S
Zn211 N205 2.020 . S
Zn211 O220 2.039 . S
Zn211 O226 2.034 . S
Zn211 O230 2.025 . S
Zn211 O232 2.024 . S
C212 O231 1.246 . S
C212 O232 1.249 . S
N213 C214 1.307 . S
N213 C215 1.333 . S
N213 Zn219 2.020 . S
C214 N213 1.307 . S
C214 C218 1.370 . S
C214 H225 0.948 . S
C215 N213 1.333 . S
C215 C216 1.379 . S
C215 H223 0.952 . S
C216 C215 1.379 . S
C216 C217 1.390 . S
C216 H236 0.949 . S
C217 C216 1.390 . S
C217 C218 1.357 . S
C218 C214 1.370 . S
C218 C217 1.357 . S
C218 H237 0.950 . S
Zn219 N213 2.020 . S
Zn219 O222 2.025 . S
Zn219 O227 2.024 . S
Zn219 O229 2.039 . S
Zn219 O231 2.034 . S
O220 C204 1.251 . S
O220 Zn211 2.039 . S
C221 O226 1.246 . S
C221 O227 1.249 . S
O222 C204 1.254 . S
O222 Zn219 2.025 . S
H223 C215 0.952 . S
H224 C206 0.952 . S
H225 C214 0.948 . S
O226 Zn211 2.034 . S
O226 C221 1.246 . S
O227 Zn219 2.024 . S
O227 C221 1.249 . S
H228 C210 0.948 . S
O229 Zn219 2.039 . S
O229 C233 1.251 . S
O230 Zn211 2.025 . S
O230 C233 1.254 . S
O231 C212 1.246 . S
O231 Zn219 2.034 . S
O232 Zn211 2.024 . S
O232 C212 1.249 . S
C233 O229 1.251 . S
C233 O230 1.254 . S
H234 C207 0.949 . S
H235 C209 0.950 . S
H236 C216 0.949 . S
H237 C218 0.950 . S
C238 O254 1.251 . S
C238 O256 1.254 . S
N239 C240 1.333 . S
N239 C244 1.307 . S
N239 Zn245 2.020 . S
C240 N239 1.333 . S
C240 C241 1.379 . S
C240 H258 0.952 . S
C241 C240 1.379 . S
C241 C242 1.390 . S
C241 H268 0.949 . S
C242 C241 1.390 . S
C242 C243 1.357 . S
C243 C242 1.357 . S
C243 C244 1.370 . S
C243 H269 0.950 . S
C244 N239 1.307 . S
C244 C243 1.370 . S
C244 H262 0.948 . S
Zn245 N239 2.020 . S
Zn245 O254 2.039 . S
Zn245 O260 2.034 . S
Zn245 O264 2.025 . S
Zn245 O266 2.024 . S
C246 O265 1.246 . S
C246 O266 1.249 . S
N247 C248 1.307 . S
N247 C249 1.333 . S
N247 Zn253 2.020 . S
C248 N247 1.307 . S
C248 C252 1.370 . S
C248 H259 0.948 . S
C249 N247 1.333 . S
C249 C250 1.379 . S
C249 H257 0.952 . S
C250 C249 1.379 . S
C250 C251 1.390 . S
C250 H270 0.949 . S
C251 C250 1.390 . S
C251 C252 1.357 . S
C252 C248 1.370 . S
C252 C251 1.357 . S
C252 H271 0.950 . S
Zn253 N247 2.020 . S
Zn253 O256 2.025 . S
Zn253 O261 2.024 . S
Zn253 O263 2.039 . S
Zn253 O265 2.034 . S
O254 C238 1.251 . S
O254 Zn245 2.039 . S
C255 O260 1.246 . S
C255 O261 1.249 . S
O256 C238 1.254 . S
O256 Zn253 2.025 . S
H257 C249 0.952 . S
H258 C240 0.952 . S
H259 C248 0.948 . S
O260 Zn245 2.034 . S
O260 C255 1.246 . S
O261 Zn253 2.024 . S
O261 C255 1.249 . S
H262 C244 0.948 . S
O263 Zn253 2.039 . S
O263 C267 1.251 . S
O264 Zn245 2.025 . S
O264 C267 1.254 . S
O265 C246 1.246 . S
O265 Zn253 2.034 . S
O266 Zn245 2.024 . S
O266 C246 1.249 . S
C267 O263 1.251 . S
C267 O264 1.254 . S
H268 C241 0.949 . S
H269 C243 0.950 . S
H270 C250 0.949 . S
H271 C252 0.950 . S
C272 C273 1.387 . S
C272 H276 0.950 . S
C272 C281 1.390 . S
C273 C272 1.387 . S
C273 C275 1.387 1_554 S
H274 C281 0.950 . S
C275 C273 1.387 1_556 S
C275 C277 1.390 . S
C275 H279 0.950 . S
H276 C272 0.950 . S
C277 C275 1.390 . S
C277 C278 1.387 1_556 S
C277 H280 0.950 . S
C278 C277 1.387 1_554 S
C278 C281 1.387 . S
H279 C275 0.950 . S
H280 C277 0.950 . S
C281 C272 1.390 . S
C281 H274 0.950 . S
C281 C278 1.387 . S
C282 C283 1.387 . S
C282 H286 0.950 . S
C282 C291 1.390 . S
C283 C282 1.387 . S
C283 C285 1.387 1_554 S
H284 C291 0.950 . S
C285 C283 1.387 1_556 S
C285 C287 1.390 . S
C285 H289 0.950 . S
H286 C282 0.950 . S
C287 C285 1.390 . S
C287 C288 1.387 1_556 S
C287 H290 0.950 . S
C288 C287 1.387 1_554 S
C288 C291 1.387 . S
H289 C285 0.950 . S
H290 C287 0.950 . S
C291 C282 1.390 . S
C291 H284 0.950 . S
C291 C288 1.387 . S
C292 C293 1.387 . S
C292 H296 0.950 . S
C292 C301 1.390 . S
C293 C292 1.387 . S
C293 C295 1.387 . S
H294 C301 0.950 . S
C295 C293 1.387 . S
C295 C297 1.390 . S
C295 H299 0.950 . S
H296 C292 0.950 . S
C297 C295 1.390 . S
C297 C298 1.387 . S
C297 H300 0.950 . S
C298 C297 1.387 . S
C298 C301 1.387 . S
H299 C295 0.950 . S
H300 C297 0.950 . S
C301 C292 1.390 . S
C301 H294 0.950 . S
C301 C298 1.387 . S
C302 C303 1.387 . S
C302 H306 0.950 . S
C302 C311 1.390 . S
C303 C302 1.387 . S
C303 C305 1.387 . S
H304 C311 0.950 . S
C305 C303 1.387 . S
C305 C307 1.390 . S
C305 H309 0.950 . S
H306 C302 0.950 . S
C307 C305 1.390 . S
C307 C308 1.387 . S
C307 H310 0.950 . S
C308 C307 1.387 . S
C308 C311 1.387 . S
H309 C305 0.950 . S
H310 C307 0.950 . S
C311 C302 1.390 . S
C311 H304 0.950 . S
C311 C308 1.387 . S
C312 C313 1.387 1_556 S
C312 H316 0.950 . S
C312 C321 1.390 1_655 S
C313 C312 1.387 1_554 S
C313 C315 1.387 . S
H314 C321 0.950 . S
C315 C313 1.387 . S
C315 C317 1.390 1_655 S
C315 H319 0.950 . S
H316 C312 0.950 . S
C317 C315 1.390 1_455 S
C317 C318 1.387 . S
C317 H320 0.950 . S
C318 C317 1.387 . S
C318 C321 1.387 1_554 S
H319 C315 0.950 . S
H320 C317 0.950 . S
C321 C312 1.390 1_455 S
C321 H314 0.950 . S
C321 C318 1.387 1_556 S
C322 C323 1.387 1_556 S
C322 H326 0.950 . S
C322 C331 1.390 1_455 S
C323 C322 1.387 1_554 S
C323 C325 1.387 . S
H324 C331 0.950 . S
C325 C323 1.387 . S
C325 C327 1.390 1_455 S
C325 H329 0.950 . S
H326 C322 0.950 . S
C327 C325 1.390 1_655 S
C327 C328 1.387 . S
C327 H330 0.950 . S
C328 C327 1.387 . S
C328 C331 1.387 1_554 S
H329 C325 0.950 . S
H330 C327 0.950 . S
C331 C322 1.390 1_655 S
C331 H324 0.950 . S
C331 C328 1.387 1_556 S
C332 C333 1.387 . S
C332 H336 0.950 . S
C332 C341 1.390 1_455 S
C333 C332 1.387 . S
C333 C335 1.387 . S
H334 C341 0.950 . S
C335 C333 1.387 . S
C335 C337 1.390 1_455 S
C335 H339 0.950 . S
H336 C332 0.950 . S
C337 C335 1.390 1_655 S
C337 C338 1.387 . S
C337 H340 0.950 . S
C338 C337 1.387 . S
C338 C341 1.387 . S
H339 C335 0.950 . S
H340 C337 0.950 . S
C341 C332 1.390 1_655 S
C341 H334 0.950 . S
C341 C338 1.387 . S
C342 C343 1.387 . S
C342 H346 0.950 . S
C342 C351 1.390 1_655 S
C343 C342 1.387 . S
C343 C345 1.387 . S
H344 C351 0.950 . S
C345 C343 1.387 . S
C345 C347 1.390 1_655 S
C345 H349 0.950 . S
H346 C342 0.950 . S
C347 C345 1.390 1_455 S
C347 C348 1.387 . S
C347 H350 0.950 . S
C348 C347 1.387 . S
C348 C351 1.387 . S
H349 C345 0.950 . S
H350 C347 0.950 . S
C351 C342 1.390 1_455 S
C351 H344 0.950 . S
C351 C348 1.387 . S
C352 C353 1.387 1_455 S
C352 H356 0.950 . S
C352 C361 1.390 . S
C353 C352 1.387 1_655 S
C353 C355 1.387 1_554 S
H354 C361 0.950 . S
C355 C353 1.387 1_556 S
C355 C357 1.390 . S
C355 H359 0.950 . S
H356 C352 0.950 . S
C357 C355 1.390 . S
C357 C358 1.387 1_656 S
C357 H360 0.950 . S
C358 C357 1.387 1_454 S
C358 C361 1.387 . S
H359 C355 0.950 . S
H360 C357 0.950 . S
C361 C352 1.390 . S
C361 H354 0.950 . S
C361 C358 1.387 . S
C362 C363 1.387 . S
C362 H366 0.950 . S
C362 C371 1.390 . S
C363 C362 1.387 . S
C363 C365 1.387 1_655 S
H364 C371 0.950 . S
C365 C363 1.387 1_455 S
C365 C367 1.390 . S
C365 H369 0.950 . S
H366 C362 0.950 . S
C367 C365 1.390 . S
C367 C368 1.387 . S
C367 H370 0.950 . S
C368 C367 1.387 . S
C368 C371 1.387 1_455 S
H369 C365 0.950 . S
H370 C367 0.950 . S
C371 C362 1.390 . S
C371 H364 0.950 . S
C371 C368 1.387 1_655 S
C372 C373 1.387 . S
C372 H376 0.950 . S
C372 C381 1.390 1_565 S
C373 C372 1.387 . S
C373 C375 1.387 1_554 S
H374 C381 0.950 . S
C375 C373 1.387 1_556 S
C375 C377 1.390 1_565 S
C375 H379 0.950 . S
H376 C372 0.950 . S
C377 C375 1.390 1_545 S
C377 C378 1.387 1_556 S
C377 H380 0.950 . S
C378 C377 1.387 1_554 S
C378 C381 1.387 . S
H379 C375 0.950 . S
H380 C377 0.950 . S
C381 C372 1.390 1_545 S
C381 H374 0.950 . S
C381 C378 1.387 . S
C382 C383 1.387 . S
C382 H386 0.950 . S
C382 C391 1.390 1_545 S
C383 C382 1.387 . S
C383 C385 1.387 . S
H384 C391 0.950 . S
C385 C383 1.387 . S
C385 C387 1.390 1_545 S
C385 H389 0.950 . S
H386 C382 0.950 . S
C387 C385 1.390 1_565 S
C387 C388 1.387 . S
C387 H390 0.950 . S
C388 C387 1.387 . S
C388 C391 1.387 . S
H389 C385 0.950 . S
H390 C387 0.950 . S
C391 C382 1.390 1_565 S
C391 H384 0.950 . S
C391 C388 1.387 . S
C392 C393 1.387 1_556 S
C392 H396 0.950 . S
C392 C401 1.390 . S
C393 C392 1.387 1_554 S
C393 C395 1.387 . S
H394 C401 0.950 . S
C395 C393 1.387 . S
C395 C397 1.390 . S
C395 H399 0.950 . S
H396 C392 0.950 . S
C397 C395 1.390 . S
C397 C398 1.387 . S
C397 H400 0.950 . S
C398 C397 1.387 . S
C398 C401 1.387 1_554 S
H399 C395 0.950 . S
H400 C397 0.950 . S
C401 C392 1.390 . S
C401 H394 0.950 . S
C401 C398 1.387 1_556 S
C402 C403 1.387 1_556 S
C402 H406 0.950 . S
C402 C411 1.390 . S
C403 C402 1.387 1_554 S
C403 C405 1.387 . S
H404 C411 0.950 . S
C405 C403 1.387 . S
C405 C407 1.390 . S
C405 H409 0.950 . S
H406 C402 0.950 . S
C407 C405 1.390 . S
C407 C408 1.387 . S
C407 H410 0.950 . S
C408 C407 1.387 . S
C408 C411 1.387 1_554 S
H409 C405 0.950 . S
H410 C407 0.950 . S
C411 C402 1.390 . S
C411 H404 0.950 . S
C411 C408 1.387 1_556 S
C412 C413 1.387 . S
C412 H416 0.950 . S
C412 C421 1.390 . S
C413 C412 1.387 . S
C413 C415 1.387 . S
H414 C421 0.950 . S
C415 C413 1.387 . S
C415 C417 1.390 . S
C415 H419 0.950 . S
H416 C412 0.950 . S
C417 C415 1.390 . S
C417 C418 1.387 . S
C417 H420 0.950 . S
C418 C417 1.387 . S
C418 C421 1.387 . S
H419 C415 0.950 . S
H420 C417 0.950 . S
C421 C412 1.390 . S
C421 H414 0.950 . S
C421 C418 1.387 . S
C422 C423 1.387 . S
C422 H426 0.950 . S
C422 C431 1.390 . S
C423 C422 1.387 . S
C423 C425 1.387 . S
H424 C431 0.950 . S
C425 C423 1.387 . S
C425 C427 1.390 . S
C425 H429 0.950 . S
H426 C422 0.950 . S
C427 C425 1.390 . S
C427 C428 1.387 . S
C427 H430 0.950 . S
C428 C427 1.387 . S
C428 C431 1.387 . S
H429 C425 0.950 . S
H430 C427 0.950 . S
C431 C422 1.390 . S
C431 H424 0.950 . S
C431 C428 1.387 . S
C432 C433 1.387 1_655 S
C432 H436 0.950 . S
C432 C441 1.390 . S
C433 C432 1.387 1_455 S
C433 C435 1.387 . S
H434 C441 0.950 . S
C435 C433 1.387 . S
C435 C437 1.390 . S
C435 H439 0.950 . S
H436 C432 0.950 . S
C437 C435 1.390 . S
C437 C438 1.387 1_455 S
C437 H440 0.950 . S
C438 C437 1.387 1_655 S
C438 C441 1.387 . S
H439 C435 0.950 . S
H440 C437 0.950 . S
C441 C432 1.390 . S
C441 H434 0.950 . S
C441 C438 1.387 . S
C442 C443 1.387 . S
C442 H446 0.950 . S
C442 C451 1.390 . S
C443 C442 1.387 . S
C443 C445 1.387 1_655 S
H444 C451 0.950 . S
C445 C443 1.387 1_455 S
C445 C447 1.390 . S
C445 H449 0.950 . S
H446 C442 0.950 . S
C447 C445 1.390 . S
C447 C448 1.387 . S
C447 H450 0.950 . S
C448 C447 1.387 . S
C448 C451 1.387 1_455 S
H449 C445 0.950 . S
H450 C447 0.950 . S
C451 C442 1.390 . S
C451 H444 0.950 . S
C451 C448 1.387 1_655 S
C452 C453 1.387 . S
C452 H456 0.950 . S
C452 C461 1.390 . S
C453 C452 1.387 . S
C453 C455 1.387 1_655 S
H454 C461 0.950 . S
C455 C453 1.387 1_455 S
C455 C457 1.390 . S
C455 H459 0.950 . S
H456 C452 0.950 . S
C457 C455 1.390 . S
C457 C458 1.387 . S
C457 H460 0.950 . S
C458 C457 1.387 . S
C458 C461 1.387 1_455 S
H459 C455 0.950 . S
H460 C457 0.950 . S
C461 C452 1.390 . S
C461 H454 0.950 . S
C461 C458 1.387 1_655 S
C462 C463 1.387 . S
C462 H466 0.950 . S
C462 C471 1.390 1_655 S
C463 C462 1.387 . S
C463 C465 1.387 . S
H464 C471 0.950 . S
C465 C463 1.387 . S
C465 C467 1.390 1_655 S
C465 H469 0.950 . S
H466 C462 0.950 . S
C467 C465 1.390 1_455 S
C467 C468 1.387 . S
C467 H470 0.950 . S
C468 C467 1.387 . S
C468 C471 1.387 . S
H469 C465 0.950 . S
H470 C467 0.950 . S
C471 C462 1.390 1_455 S
C471 H464 0.950 . S
C471 C468 1.387 . S
C472 C473 1.387 . S
C472 H476 0.950 . S
C472 C481 1.390 . S
C473 C472 1.387 . S
C473 C475 1.387 . S
H474 C481 0.950 . S
C475 C473 1.387 . S
C475 C477 1.390 . S
C475 H479 0.950 . S
H476 C472 0.950 . S
C477 C475 1.390 . S
C477 C478 1.387 . S
C477 H480 0.950 . S
C478 C477 1.387 . S
C478 C481 1.387 . S
H479 C475 0.950 . S
H480 C477 0.950 . S
C481 C472 1.390 . S
C481 H474 0.950 . S
C481 C478 1.387 . S
C482 C483 1.387 . S
C482 H486 0.950 . S
C482 C491 1.390 . S
C483 C482 1.387 . S
C483 C485 1.387 . S
H484 C491 0.950 . S
C485 C483 1.387 . S
C485 C487 1.390 . S
C485 H489 0.950 . S
H486 C482 0.950 . S
C487 C485 1.390 . S
C487 C488 1.387 . S
C487 H490 0.950 . S
C488 C487 1.387 . S
C488 C491 1.387 . S
H489 C485 0.950 . S
H490 C487 0.950 . S
C491 C482 1.390 . S
C491 H484 0.950 . S
C491 C488 1.387 . S
C492 C493 1.387 . S
C492 H496 0.950 . S
C492 C501 1.390 . S
C493 C492 1.387 . S
C493 C495 1.387 . S
H494 C501 0.950 . S
C495 C493 1.387 . S
C495 C497 1.390 . S
C495 H499 0.950 . S
H496 C492 0.950 . S
C497 C495 1.390 . S
C497 C498 1.387 . S
C497 H500 0.950 . S
C498 C497 1.387 . S
C498 C501 1.387 . S
H499 C495 0.950 . S
H500 C497 0.950 . S
C501 C492 1.390 . S
C501 H494 0.950 . S
C501 C498 1.387 . S
C502 C503 1.387 . S
C502 H506 0.950 . S
C502 C511 1.390 . S
C503 C502 1.387 . S
C503 C505 1.387 . S
H504 C511 0.950 . S
C505 C503 1.387 . S
C505 C507 1.390 . S
C505 H509 0.950 . S
H506 C502 0.950 . S
C507 C505 1.390 . S
C507 C508 1.387 . S
C507 H510 0.950 . S
C508 C507 1.387 . S
C508 C511 1.387 . S
H509 C505 0.950 . S
H510 C507 0.950 . S
C511 C502 1.390 . S
C511 H504 0.950 . S
C511 C508 1.387 . S
C273 C17 1.286 . S
C278 C8 1.286 . S
C283 C42 1.286 . S
C288 C51 1.286 . S
C293 C76 1.286 . S
C298 C85 1.286 . S
C303 C110 1.286 . S
C308 C119 1.286 . S
C313 C153 1.285 . S
C318 C144 1.285 . S
C323 C187 1.285 . S
C328 C178 1.285 . S
C333 C212 1.286 . S
C338 C221 1.286 . S
C343 C255 1.286 . S
C348 C246 1.286 . S
C353 C34 1.535 . S
C358 C0 1.537 . S
C363 C131 1.534 . S
C368 C68 1.534 . S
C373 C136 1.537 . S
C378 C170 1.535 . S
C383 C204 1.533 . S
C388 C267 1.533 . S
C393 C29 1.652 . S
C398 C199 1.651 . S
C403 C165 1.652 . S
C408 C63 1.651 . S
C413 C97 1.650 . S
C418 C238 1.650 . S
C423 C102 1.648 . S
C428 C233 1.648 . S
C433 C4 1.572 . S
C438 C106 1.568 . S
C443 C38 1.576 . S
C448 C72 1.582 . S
C453 C47 1.559 . S
C458 C81 1.567 . S
C463 C115 1.567 . S
C468 C13 1.563 . S
C473 C140 1.572 . S
C478 C242 1.568 . S
C483 C174 1.576 . S
C488 C208 1.582 . S
C493 C183 1.559 . S
C498 C217 1.567 . S
C503 C251 1.567 . S
C508 C149 1.563 . S
