# Generated by pormake.
# Topology sra, (4)-cn, num edge types: 1
# Building blocks:
#     Node 0, Type 0, BuildingBlock: QUQFOY_clean_sbu_3, # of connection points: 4
#     Node 1, Type 0, BuildingBlock: QUQFOY_clean_sbu_3, # of connection points: 4
#     Node 2, Type 0, BuildingBlock: QUQFOY_clean_sbu_3, # of connection points: 4
#     Node 3, Type 0, BuildingBlock: QUQFOY_clean_sbu_3, # of connection points: 4
#     Node 4, Type 0, BuildingBlock: QUQFOY_clean_sbu_3, # of connection points: 4
#     Node 5, Type 0, BuildingBlock: QUQFOY_clean_sbu_3, # of connection points: 4
#     Node 6, Type 0, BuildingBlock: QUQFOY_clean_sbu_3, # of connection points: 4
#     Node 7, Type 0, BuildingBlock: QUQFOY_clean_sbu_3, # of connection points: 4
#     Edge 8, Type (0, 0), BuildingBlock: FUNLAD_clean_linker_1, # of connection points: 2
#     Edge 9, Type (0, 0), BuildingBlock: FUNLAD_clean_linker_1, # of connection points: 2
#     Edge 10, Type (0, 0), BuildingBlock: FUNLAD_clean_linker_1, # of connection points: 2
#     Edge 11, Type (0, 0), BuildingBlock: FUNLAD_clean_linker_1, # of connection points: 2
#     Edge 12, Type (0, 0), BuildingBlock: FUNLAD_clean_linker_1, # of connection points: 2
#     Edge 13, Type (0, 0), BuildingBlock: FUNLAD_clean_linker_1, # of connection points: 2
#     Edge 14, Type (0, 0), BuildingBlock: FUNLAD_clean_linker_1, # of connection points: 2
#     Edge 15, Type (0, 0), BuildingBlock: FUNLAD_clean_linker_1, # of connection points: 2
#     Edge 16, Type (0, 0), BuildingBlock: FUNLAD_clean_linker_1, # of connection points: 2
#     Edge 17, Type (0, 0), BuildingBlock: FUNLAD_clean_linker_1, # of connection points: 2
#     Edge 18, Type (0, 0), BuildingBlock: FUNLAD_clean_linker_1, # of connection points: 2
#     Edge 19, Type (0, 0), BuildingBlock: FUNLAD_clean_linker_1, # of connection points: 2
#     Edge 20, Type (0, 0), BuildingBlock: FUNLAD_clean_linker_1, # of connection points: 2
#     Edge 21, Type (0, 0), BuildingBlock: FUNLAD_clean_linker_1, # of connection points: 2
#     Edge 22, Type (0, 0), BuildingBlock: FUNLAD_clean_linker_1, # of connection points: 2
#     Edge 23, Type (0, 0), BuildingBlock: FUNLAD_clean_linker_1, # of connection points: 2
# Relax obj value: 0.028
# Max RMSD: 0.060
# Mean RMSD: 0.060
data_MOF--net-sra--node1-QUQFOY_clean_sbu_3--edge1-FUNLAD_clean_linker_1
_symmetry_space_group_name_H-M    P1
_symmetry_Int_Tables_number       1
_symmetry_cell_setting            triclinic
loop_
_symmetry_equiv_pos_as_xyz
'x, y, z'
_cell_length_a     29.071448
_cell_length_b     55.953548
_cell_length_c     34.840307
_cell_angle_alpha  89.933939
_cell_angle_beta   90.014487
_cell_angle_gamma 89.976648
loop_
_atom_site_label
_atom_site_type_symbol
_atom_site_fract_x
_atom_site_fract_y
_atom_site_fract_z
_atom_type_partial_charge
C0 C 0.11571 0.10691 0.20316 0.0
O1 O 0.09241 0.11142 0.2331 0.0
Cd2 Cd 0.01104 0.11996 0.22918 0.0
O3 O 0.09623 0.10521 0.17067 0.0
Cd4 Cd 0.0193 0.10657 0.14166 0.0
C5 C 0.0138 0.16499 0.16147 0.0
O6 O 0.97107 0.08993 0.19325 0.0
O7 O 0.93679 0.1076 0.14578 0.0
O8 O 0.04548 0.06994 0.11326 0.0
C9 C 0.93374 0.0957 0.17658 0.0
O10 O 0.00623 0.15802 0.19567 0.0
C11 C 0.03198 0.07465 0.07948 0.0
O12 O 0.02309 0.15017 0.1348 0.0
O13 O 0.01316 0.09486 0.07386 0.0
C14 C 0.91841 0.393 0.23122 0.0
O15 O 0.94883 0.3848 0.25379 0.0
Cd16 Cd 0.02779 0.37927 0.23455 0.0
O17 O 0.92902 0.39994 0.19756 0.0
Cd18 Cd -0.00253 0.40424 0.15637 0.0
C19 C 0.01201 0.34447 0.15406 0.0
O20 O 0.05434 0.41533 0.20483 0.0
O21 O 0.08059 0.40597 0.14876 0.0
O22 O 0.97193 0.44383 0.13687 0.0
C23 C 0.08854 0.41346 0.18239 0.0
O24 O 0.02673 0.34638 0.18839 0.0
C25 C 0.9706 0.43898 0.10134 0.0
O26 O -0.00343 0.36252 0.13596 0.0
O27 O 0.98118 0.41785 0.09138 0.0
C28 C 0.09705 0.87786 0.78349 0.0
O29 O 0.06851 0.87109 0.75815 0.0
Cd30 Cd 0.98828 0.86813 0.77307 0.0
O31 O 0.08373 0.8841 0.81674 0.0
Cd32 Cd 0.01454 0.88936 0.85596 0.0
C33 C -0.0012 0.83006 0.85102 0.0
O34 O 0.9694 0.90502 0.80337 0.0
O35 O 0.93118 0.89596 0.85435 0.0
O36 O 0.06024 0.92311 0.87696 0.0
C37 C 0.93137 0.90492 0.82091 0.0
O38 O 0.98487 0.83409 0.81693 0.0
C39 C 0.04388 0.92366 0.91063 0.0
O40 O 0.01487 0.84678 0.8718 0.0
O41 O 0.01482 0.90764 0.91968 0.0
C42 C 0.95857 0.60129 0.73456 0.0
O43 O -0.00672 0.60997 0.71749 0.0
Cd44 Cd 0.06604 0.61338 0.74923 0.0
O45 O 0.96155 0.59357 0.7689 0.0
Cd46 Cd 0.0179 0.58814 0.82077 0.0
C47 C 0.03115 0.64781 0.8257 0.0
O48 O 0.07844 0.57533 0.77863 0.0
O49 O 0.1005 0.58411 0.83593 0.0
O50 O 0.9804 0.55022 0.83463 0.0
C51 C 0.11039 0.57576 0.80313 0.0
O52 O 0.05563 0.64591 0.79551 0.0
C53 C 0.97934 0.55335 0.87065 0.0
O54 O 0.01029 0.62985 0.8397 0.0
O55 O -0.00502 0.57299 0.88344 0.0
C56 C 0.60925 0.60801 0.7104 0.0
O57 O 0.58593 0.61591 0.73841 0.0
Cd58 Cd 0.50441 0.62059 0.73573 0.0
O59 O 0.58983 0.60105 0.6796 0.0
Cd60 Cd 0.51228 0.59611 0.65233 0.0
C61 C 0.49885 0.65598 0.65462 0.0
O62 O 0.47704 0.58327 0.71181 0.0
O63 O 0.4302 0.59138 0.66553 0.0
O64 O 0.53879 0.55829 0.62621 0.0
C65 C 0.43622 0.58361 0.69937 0.0
O66 O 0.49424 0.6538 0.69083 0.0
C67 C 0.52498 0.56251 0.59231 0.0
O68 O 0.50738 0.63798 0.63358 0.0
O69 O 0.50563 0.58249 0.58616 0.0
C70 C 0.43764 0.88468 0.71054 0.0
O71 O 0.46064 0.87893 0.74015 0.0
Cd72 Cd 0.54287 0.87519 0.73995 0.0
O73 O 0.45746 0.88968 0.67907 0.0
Cd74 Cd 0.53471 0.89255 0.65179 0.0
C75 C 0.54724 0.83344 0.66779 0.0
O76 O 0.57232 0.90939 0.70755 0.0
O77 O 0.61704 0.89676 0.66236 0.0
O78 O 0.50691 0.92869 0.6224 0.0
C79 C 0.61271 0.90714 0.6945 0.0
O80 O 0.55476 0.83891 0.70267 0.0
C81 C 0.52029 0.92356 0.58874 0.0
O82 O 0.53621 0.84923 0.64304 0.0
O83 O 0.54007 0.90352 0.58394 0.0
C84 C 0.5628 0.39325 0.26244 0.0
O85 O 0.53062 0.38842 0.23908 0.0
Cd86 Cd 0.45161 0.38222 0.25843 0.0
O87 O 0.55467 0.39564 0.29814 0.0
Cd88 Cd 0.48941 0.39408 0.34303 0.0
C89 C 0.46967 0.33617 0.32177 0.0
O90 O 0.43116 0.41292 0.30267 0.0
O91 O 0.40691 0.39611 0.35471 0.0
O92 O 0.52171 0.42863 0.37484 0.0
C93 C 0.39785 0.40825 0.32497 0.0
O94 O 0.45032 0.34364 0.29125 0.0
C95 C 0.52126 0.41951 0.40822 0.0
O96 O 0.49035 0.35042 0.34447 0.0
O97 O 0.50702 0.39815 0.41134 0.0
C98 C 0.45935 0.10049 0.27632 0.0
O99 O 0.48777 0.10619 0.25018 0.0
Cd100 Cd 0.56832 0.11387 0.26414 0.0
O101 O 0.47243 0.09806 0.31086 0.0
Cd102 Cd 0.54172 0.10094 0.35025 0.0
C103 C 0.55222 0.15931 0.32856 0.0
O104 O 0.59903 0.08418 0.3065 0.0
O105 O 0.62433 0.10173 0.35773 0.0
O106 O 0.51562 0.06444 0.37924 0.0
C107 C 0.63297 0.08995 0.32757 0.0
O108 O 0.5692 0.15225 0.29687 0.0
C109 C 0.51734 0.07192 0.41358 0.0
O110 O 0.53531 0.14462 0.35273 0.0
O111 O 0.52963 0.09347 0.41883 0.0
H112 H -0.00251 0.31943 0.1064 0.0
C113 C 0.01155 0.32087 0.13522 0.0
H114 H 0.04192 0.30253 0.18177 0.0
H115 H 0.93614 0.20998 0.10987 0.0
H116 H 0.86462 0.23142 0.12144 0.0
H117 H 0.86557 0.27382 0.14081 0.0
H118 H 0.93751 0.29511 0.14812 0.0
C119 C 0.02646 0.30118 0.15344 0.0
C120 C 0.02439 0.27701 0.13596 0.0
C121 C 0.98168 0.26496 0.13214 0.0
C122 C 0.98106 0.24032 0.12238 0.0
C123 C 0.93825 0.22857 0.11828 0.0
C124 C 0.89709 0.24067 0.12465 0.0
C125 C 0.89763 0.26456 0.13545 0.0
C126 C 0.9393 0.27663 0.13937 0.0
H127 H 0.00185 0.20217 0.17803 0.0
C128 C 0.01188 0.19083 0.15407 0.0
H129 H 0.03502 0.19051 0.09641 0.0
H130 H 0.11119 0.29579 0.13486 0.0
H131 H 0.18214 0.27422 0.12205 0.0
H132 H 0.18084 0.23114 0.10695 0.0
H133 H 0.10853 0.20938 0.10434 0.0
C134 C 0.02298 0.2011 0.12051 0.0
C135 C 0.02293 0.22764 0.11805 0.0
C136 C 0.06522 0.24013 0.11838 0.0
C137 C 0.06596 0.26489 0.12743 0.0
C138 C 0.10879 0.2769 0.12854 0.0
C139 C 0.1497 0.26475 0.12114 0.0
C140 C 0.14896 0.2405 0.11262 0.0
C141 C 0.1073 0.22821 0.1113 0.0
H142 H 0.03169 0.80067 0.88305 0.0
C143 C 0.00363 0.80504 0.86365 0.0
H144 H 0.95186 0.79223 0.827 0.0
H145 H 0.05062 0.70263 0.76344 0.0
H146 H 0.04426 0.72793 0.70749 0.0
H147 H 0.01832 0.76972 0.71327 0.0
H148 H -0.0022 0.78625 0.77493 0.0
C149 C 0.97975 0.78753 0.8464 0.0
C150 C -0.00216 0.76268 0.84435 0.0
C151 C 0.01129 0.75354 0.80803 0.0
C152 C 0.028 0.72977 0.8049 0.0
C153 C 0.03908 0.72078 0.76794 0.0
C154 C 0.03541 0.73509 0.73538 0.0
C155 C 0.02069 0.75858 0.73862 0.0
C156 C 0.00876 0.76779 0.77435 0.0
H157 H 0.98993 0.67444 0.85712 0.0
C158 C 0.022 0.6717 0.84169 0.0
H159 H 0.08137 0.68748 0.81835 0.0
H160 H 0.97168 0.77389 0.91766 0.0
H161 H 0.98312 0.74953 0.97456 0.0
H162 H 0.01958 0.7098 0.97 0.0
H163 H 0.04381 0.69397 0.9084 0.0
C164 C 0.04942 0.69038 0.83387 0.0
C165 C 0.03287 0.71541 0.83825 0.0
C166 C 0.02102 0.72483 0.87475 0.0
C167 C 0.00224 0.74827 0.87766 0.0
C168 C 0.98789 0.75664 0.91406 0.0
C169 C -0.00599 0.74278 0.94691 0.0
C170 C 0.01437 0.72037 0.94432 0.0
C171 C 0.02782 0.71142 0.90875 0.0
H172 H 0.50264 0.6815 0.60616 0.0
C173 C 0.49807 0.67996 0.63703 0.0
H174 H 0.49104 0.69849 0.68949 0.0
H175 H 0.60192 0.78309 0.60069 0.0
H176 H 0.66593 0.75517 0.59682 0.0
H177 H 0.65566 0.71282 0.61469 0.0
H178 H 0.58164 0.69805 0.63585 0.0
C179 C 0.49623 0.69976 0.65867 0.0
C180 C 0.5016 0.72409 0.64229 0.0
C181 C 0.54549 0.73227 0.63016 0.0
C182 C 0.55194 0.75681 0.62114 0.0
C183 C 0.59576 0.76468 0.60877 0.0
C184 C 0.63261 0.74886 0.60629 0.0
C185 C 0.62679 0.725 0.61624 0.0
C186 C 0.58391 0.71672 0.6282 0.0
H187 H 0.56143 0.7956 0.67883 0.0
C188 C 0.54725 0.80795 0.65778 0.0
H189 H 0.50736 0.81113 0.60726 0.0
H190 H 0.4122 0.7135 0.65966 0.0
H191 H 0.34862 0.74162 0.66347 0.0
H192 H 0.36051 0.78444 0.64969 0.0
H193 H 0.43587 0.79938 0.63169 0.0
C194 C 0.52458 0.79922 0.6273 0.0
C195 C 0.51514 0.77315 0.62561 0.0
C196 C 0.47058 0.76468 0.63488 0.0
C197 C 0.46383 0.74008 0.64328 0.0
C198 C 0.41924 0.7321 0.65344 0.0
C199 C 0.38247 0.74802 0.65562 0.0
C200 C 0.38916 0.77213 0.64782 0.0
C201 C 0.43262 0.78047 0.63758 0.0
H202 H 0.4432 0.29966 0.31522 0.0
C203 C 0.46955 0.31033 0.32924 0.0
H204 H 0.53073 0.30982 0.36189 0.0
H205 H 0.5148 0.20499 0.42645 0.0
H206 H 0.51467 0.22858 0.48487 0.0
H207 H 0.50979 0.27256 0.48217 0.0
H208 H 0.50573 0.29328 0.42107 0.0
C209 C 0.50391 0.29937 0.3481 0.0
C210 C 0.50694 0.27279 0.34968 0.0
C211 C 0.50826 0.26096 0.38571 0.0
C212 C 0.51009 0.23555 0.38732 0.0
C213 C 0.51281 0.22422 0.4236 0.0
C214 C 0.51276 0.23754 0.45736 0.0
C215 C 0.51004 0.26231 0.45584 0.0
C216 C 0.50779 0.27398 0.42054 0.0
H217 H 0.57464 0.19628 0.31976 0.0
C218 C 0.55023 0.18517 0.33531 0.0
H219 H 0.49016 0.18483 0.36948 0.0
H220 H 0.51644 0.28924 0.27546 0.0
H221 H 0.5088 0.2658 0.21747 0.0
H222 H 0.49632 0.22222 0.22081 0.0
H223 H 0.494 0.20183 0.28219 0.0
C224 C 0.51542 0.19559 0.3543 0.0
C225 C 0.50941 0.22204 0.35295 0.0
C226 C 0.50549 0.23388 0.31702 0.0
C227 C 0.50752 0.25919 0.31526 0.0
C228 C 0.51067 0.27027 0.27871 0.0
C229 C 0.50697 0.25697 0.24509 0.0
C230 C 0.5003 0.23244 0.24696 0.0
C231 C 0.49957 0.22094 0.2824 0.0
H232 H 0.38826 0.09108 0.29121 0.0
C233 C 0.40998 0.09774 0.26813 0.0
H234 H 0.41082 0.11318 0.21276 0.0
H235 H 0.20298 0.0627 0.23595 0.0
H236 H 0.24334 0.0249 0.2304 0.0
H237 H 0.3279 0.02372 0.22462 0.0
H238 H 0.37263 0.06037 0.22474 0.0
C239 C 0.39029 0.10512 0.23539 0.0
C240 C 0.33926 0.10583 0.23242 0.0
C241 C 0.31356 0.08431 0.23105 0.0
C242 C 0.26474 0.08504 0.23316 0.0
C243 C 0.24004 0.06323 0.23334 0.0
C244 C 0.26279 0.0414 0.23036 0.0
C245 C 0.31041 0.04073 0.22722 0.0
C246 C 0.33568 0.06187 0.22754 0.0
H247 H 0.18373 0.09875 0.17874 0.0
C248 C 0.166 0.10393 0.20493 0.0
H249 H 0.174 0.11469 0.26266 0.0
H250 H 0.37818 0.15041 0.23411 0.0
H251 H 0.33772 0.18826 0.23754 0.0
H252 H 0.25293 0.18957 0.23972 0.0
H253 H 0.20809 0.15302 0.23876 0.0
C254 C 0.19064 0.10837 0.23666 0.0
C255 C 0.24171 0.10734 0.23554 0.0
C256 C 0.26736 0.12888 0.23587 0.0
C257 C 0.3162 0.12813 0.23421 0.0
C258 C 0.34099 0.14992 0.23505 0.0
C259 C 0.31821 0.17179 0.23702 0.0
C260 C 0.27047 0.17253 0.23827 0.0
C261 C 0.24516 0.1514 0.23772 0.0
H262 H 0.61683 0.39181 0.21786 0.0
C263 C 0.61041 0.39508 0.24814 0.0
H264 H 0.64029 0.40316 0.30204 0.0
H265 H 0.822 0.35423 0.22571 0.0
H266 H 0.78371 0.31729 0.24289 0.0
H267 H 0.70424 0.31755 0.2677 0.0
H268 H 0.6624 0.3548 0.27494 0.0
C269 C 0.64587 0.39969 0.27173 0.0
C270 C 0.69397 0.39961 0.25752 0.0
C271 C 0.71832 0.37775 0.25448 0.0
C272 C 0.76462 0.37769 0.24139 0.0
C273 C 0.7874 0.35547 0.23688 0.0
C274 C 0.76568 0.33408 0.24637 0.0
C275 C 0.72091 0.33422 0.26024 0.0
C276 C 0.69728 0.35573 0.26423 0.0
H277 H 0.8621 0.38813 0.27307 0.0
C278 C 0.87004 0.39365 0.24388 0.0
H279 H 0.84312 0.40585 0.19095 0.0
H280 H 0.65649 0.4444 0.25971 0.0
H281 H 0.69483 0.48155 0.24305 0.0
H282 H 0.77572 0.48163 0.22162 0.0
H283 H 0.81877 0.4446 0.21666 0.0
C284 C 0.83572 0.39983 0.21997 0.0
C285 C 0.78687 0.3996 0.23259 0.0
C286 C 0.76227 0.42142 0.23526 0.0
C287 C 0.71575 0.42142 0.24781 0.0
C288 C 0.69196 0.44344 0.2504 0.0
C289 C 0.71354 0.46488 0.24093 0.0
C290 C 0.75907 0.46492 0.22884 0.0
C291 C 0.78336 0.44352 0.22605 0.0
H292 H 0.16902 0.88497 0.79815 0.0
C293 C 0.14644 0.87885 0.77526 0.0
H294 H 0.14321 0.86578 0.7183 0.0
H295 H 0.34492 0.92137 0.74955 0.0
H296 H 0.29967 0.95777 0.74982 0.0
H297 H 0.21534 0.95636 0.74203 0.0
H298 H 0.1758 0.91842 0.73462 0.0
C299 C 0.1646 0.8727 0.74133 0.0
C300 C 0.21515 0.87395 0.7361 0.0
C301 C 0.23784 0.89633 0.73835 0.0
C302 C 0.28648 0.8972 0.74105 0.0
C303 C 0.30812 0.91969 0.74589 0.0
C304 C 0.28253 0.94074 0.74633 0.0
C305 C 0.23506 0.93994 0.74209 0.0
C306 C 0.21278 0.91805 0.73815 0.0
H307 H 0.36916 0.89198 0.68649 0.0
C308 C 0.38724 0.88511 0.71153 0.0
H309 H 0.38035 0.8684 0.76568 0.0
H310 H 0.1821 0.8284 0.72803 0.0
H311 H 0.22758 0.79212 0.72303 0.0
H312 H 0.31239 0.79373 0.72487 0.0
H313 H 0.35219 0.83157 0.73228 0.0
C314 C 0.36315 0.87651 0.74121 0.0
C315 C 0.31231 0.87574 0.73942 0.0
C316 C 0.28976 0.85348 0.73477 0.0
C317 C 0.24099 0.85258 0.73315 0.0
C318 C 0.21914 0.8301 0.7292 0.0
C319 C 0.24483 0.80915 0.72625 0.0
C320 C 0.29258 0.81005 0.72732 0.0
C321 C 0.31498 0.83189 0.7316 0.0
H322 H 0.67476 0.61243 0.74106 0.0
C323 C 0.65948 0.60705 0.7139 0.0
H324 H 0.67226 0.594 0.65784 0.0
H325 H 0.86576 0.63999 0.73317 0.0
H326 H 0.82859 0.67833 0.72437 0.0
H327 H 0.74986 0.6809 0.69818 0.0
H328 H 0.70761 0.64495 0.68142 0.0
C329 C 0.68671 0.60001 0.68492 0.0
C330 C 0.73715 0.59886 0.69056 0.0
C331 C 0.76224 0.62005 0.698 0.0
C332 C 0.80826 0.61858 0.71135 0.0
C333 C 0.83135 0.63998 0.72146 0.0
C334 C 0.81029 0.66217 0.71675 0.0
C335 C 0.76593 0.66362 0.70215 0.0
C336 C 0.74199 0.64286 0.69288 0.0
H337 H 0.9114 0.60873 0.68625 0.0
C338 C 0.91375 0.60133 0.71505 0.0
H339 H 0.8775 0.58594 0.76154 0.0
H340 H 0.70009 0.55512 0.67358 0.0
H341 H 0.7388 0.51676 0.67803 0.0
H342 H 0.81973 0.51422 0.69904 0.0
H343 H 0.86237 0.55003 0.7159 0.0
C344 C 0.87561 0.59388 0.73309 0.0
C345 C 0.82958 0.5959 0.71529 0.0
C346 C 0.80562 0.57486 0.70483 0.0
C347 C 0.75922 0.57634 0.69239 0.0
C348 C 0.73553 0.55501 0.68304 0.0
C349 C 0.75735 0.53288 0.68544 0.0
C350 C 0.80291 0.53145 0.69729 0.0
C351 C 0.82693 0.55213 0.70695 0.0
H352 H 0.64633 0.91959 0.74743 0.0
C353 C 0.65253 0.91225 0.71906 0.0
H354 H 0.70176 0.8977 0.68111 0.0
H355 H 0.83572 0.9524 0.80759 0.0
H356 H 0.80867 0.98931 0.77846 0.0
H357 H 0.74722 0.98876 0.72957 0.0
H358 H 0.71223 0.95135 0.70974 0.0
C359 C 0.69528 0.90611 0.70867 0.0
C360 C 0.73318 0.90672 0.73701 0.0
C361 C 0.75353 0.92871 0.74775 0.0
C362 C 0.78968 0.92897 0.77517 0.0
C363 C 0.8089 0.95118 0.78614 0.0
C364 C 0.79353 0.97248 0.7698 0.0
C365 C 0.75886 0.97218 0.74234 0.0
C366 C 0.73897 0.9506 0.73131 0.0
H367 H 0.89144 0.91585 0.77033 0.0
C368 C 0.88874 0.91046 0.80025 0.0
H369 H 0.84388 0.90044 0.84516 0.0
H370 H 0.6999 0.86164 0.72358 0.0
H371 H 0.72728 0.82481 0.75234 0.0
H372 H 0.79106 0.82517 0.79907 0.0
H373 H 0.8276 0.86237 0.81746 0.0
C374 C 0.84719 0.90685 0.81583 0.0
C375 C 0.80582 0.9072 0.79104 0.0
C376 C 0.78476 0.88526 0.7809 0.0
C377 C 0.74841 0.88502 0.75373 0.0
C378 C 0.72795 0.86286 0.7439 0.0
C379 C 0.74329 0.84156 0.76022 0.0
C380 C 0.77917 0.84177 0.78653 0.0
C381 C 0.79983 0.86329 0.79684 0.0
H382 H 0.40538 0.57263 0.75436 0.0
C383 C 0.39769 0.57864 0.72534 0.0
H384 H 0.34592 0.58983 0.68678 0.0
H385 H 0.21671 0.53249 0.81202 0.0
H386 H 0.25169 0.49626 0.78677 0.0
H387 H 0.31637 0.4985 0.74102 0.0
H388 H 0.34667 0.53687 0.7205 0.0
C389 C 0.35405 0.58275 0.71505 0.0
C390 C 0.31647 0.58101 0.74356 0.0
C391 C 0.29925 0.5584 0.75493 0.0
C392 C 0.26131 0.5571 0.78048 0.0
C393 C 0.24483 0.53438 0.79189 0.0
C394 C 0.26473 0.5135 0.77779 0.0
C395 C 0.30121 0.51477 0.7521 0.0
C396 C 0.31837 0.5369 0.74064 0.0
H397 H 0.16301 0.56552 0.7614 0.0
C398 C 0.15784 0.57154 0.79077 0.0
H399 H 0.18997 0.58461 0.84096 0.0
H400 H 0.34454 0.62703 0.73026 0.0
H401 H 0.31002 0.66306 0.75616 0.0
H402 H 0.2432 0.66077 0.79967 0.0
H403 H 0.21072 0.62245 0.81771 0.0
C404 C 0.19435 0.57738 0.81226 0.0
C405 C 0.24019 0.57836 0.79374 0.0
C406 C 0.25917 0.60091 0.7842 0.0
C407 C 0.29733 0.60224 0.7589 0.0
C408 C 0.31529 0.62499 0.74919 0.0
C409 C 0.29585 0.64582 0.76388 0.0
C410 C 0.25825 0.64453 0.78838 0.0
C411 C 0.23991 0.6224 0.79847 0.0
H412 H 0.7078 0.09254 0.33493 0.0
C413 C 0.68092 0.08648 0.31552 0.0
H414 H 0.66632 0.07219 0.26067 0.0
H415 H 0.86983 0.1263 0.24519 0.0
H416 H 0.82685 0.16298 0.25457 0.0
H417 H 0.7435 0.16192 0.26778 0.0
H418 H 0.70304 0.12423 0.27268 0.0
C419 C 0.69241 0.07858 0.28049 0.0
C420 C 0.74112 0.07933 0.26757 0.0
C421 C 0.76358 0.10166 0.26274 0.0
C422 C 0.8109 0.10234 0.25276 0.0
C423 C 0.83335 0.12479 0.25081 0.0
C424 C 0.80918 0.14599 0.25643 0.0
C425 C 0.76233 0.14539 0.26405 0.0
C426 C 0.73961 0.12356 0.26713 0.0
H427 H 0.85849 0.09738 0.17714 0.0
C428 C 0.88823 0.09125 0.19336 0.0
H429 H 0.9108 0.07512 0.24505 0.0
H430 H 0.70836 0.03371 0.27454 0.0
H431 H 0.75083 -0.00292 0.26247 0.0
H432 H 0.83203 -0.00162 0.24197 0.0
H433 H 0.87145 0.03633 0.23372 0.0
C434 C 0.88195 0.08178 0.22834 0.0
C435 C 0.83481 0.08079 0.24483 0.0
C436 C 0.81241 0.05851 0.24955 0.0
C437 C 0.76547 0.05777 0.26101 0.0
C438 C 0.7439 0.03528 0.26566 0.0
C439 C 0.76787 0.01413 0.25883 0.0
C440 C 0.8136 0.01487 0.24729 0.0
C441 C 0.8358 0.03675 0.24262 0.0
H442 H 0.16372 0.41249 0.17556 0.0
C443 C 0.13617 0.41637 0.19575 0.0
H444 H 0.1198 0.42636 0.2527 0.0
H445 H 0.32729 0.37676 0.26464 0.0
H446 H 0.28701 0.33965 0.25243 0.0
H447 H 0.20382 0.33952 0.23842 0.0
H448 H 0.1607 0.37656 0.23584 0.0
C449 C 0.14661 0.42196 0.23215 0.0
C450 C 0.19523 0.42183 0.24529 0.0
C451 C 0.2194 0.39987 0.24835 0.0
C452 C 0.2668 0.39985 0.25821 0.0
C453 C 0.29079 0.37779 0.25884 0.0
C454 C 0.26816 0.35633 0.25162 0.0
C455 C 0.22138 0.35627 0.2436 0.0
C456 C 0.19711 0.37771 0.24196 0.0
H457 H 0.32294 0.40619 0.33312 0.0
C458 C 0.34976 0.41244 0.3138 0.0
H459 H 0.3642 0.4281 0.25981 0.0
H460 H 0.15851 0.46681 0.2428 0.0
H461 H 0.19828 0.50393 0.25714 0.0
H462 H 0.28 0.50378 0.27629 0.0
H463 H 0.32259 0.46652 0.28106 0.0
C464 C 0.33812 0.4215 0.27948 0.0
C465 C 0.28931 0.42169 0.26691 0.0
C466 C 0.26501 0.44357 0.26436 0.0
C467 C 0.21783 0.44364 0.25357 0.0
C468 C 0.19435 0.46576 0.25103 0.0
C469 C 0.21676 0.48717 0.25918 0.0
C470 C 0.26279 0.48709 0.26995 0.0
C471 C 0.28682 0.4656 0.27258 0.0
H472 H 0.01022 0.05791 0.02522 0.0
C473 C 0.03386 0.05638 0.04927 0.0
H474 H 0.084 0.03561 0.07742 0.0
H475 H 0.01608 0.93457 0.02781 0.0
H476 H 0.01035 0.933 0.09712 0.0
H477 H 0.02288 0.96913 0.1362 0.0
H478 H 0.04193 0.00686 0.10637 0.0
C479 C 0.06063 0.03692 0.05315 0.0
C480 C 0.05376 0.01526 0.02911 0.0
C481 C 0.04152 0.9934 0.04719 0.0
C482 C 0.03283 0.97274 0.02465 0.0
C483 C 0.02209 0.95096 0.04346 0.0
C484 C 0.01876 0.94977 0.08327 0.0
C485 C 0.02591 0.97009 0.10527 0.0
C486 C 0.03706 0.99168 0.08765 0.0
H487 H 0.08907 0.95199 0.93285 0.0
C488 C 0.05603 0.94322 0.93668 0.0
H489 H 0.99152 0.94396 0.96425 0.0
H490 H 0.08496 0.05283 0.98567 0.0
H491 H 0.0848 0.05535 0.91618 0.0
H492 H 0.05815 0.0214 0.8769 0.0
H493 H 0.03331 0.98454 0.90681 0.0
C494 C 0.02495 0.95242 0.96093 0.0
C495 C 0.03492 0.97413 0.98409 0.0
C496 C 0.04593 -0.00383 0.96596 0.0
C497 C 0.05756 0.01641 0.98857 0.0
C498 C 0.07291 0.03744 0.96986 0.0
C499 C 0.07339 0.03905 0.92998 0.0
C500 C 0.05866 0.0199 0.90788 0.0
C501 C 0.04497 -0.0013 0.92547 0.0
H502 H 0.95445 0.51705 0.88349 0.0
C503 C 0.96479 0.53392 0.89632 0.0
H504 H 0.98033 0.55207 0.94796 0.0
H505 H 0.87565 0.46912 0.04203 0.0
H506 H 0.81191 0.49703 0.03702 0.0
H507 H 0.81791 0.53302 -0.00368 0.0
H508 H 0.88765 0.54124 0.96017 0.0
C509 C 0.96944 0.53551 0.9345 0.0
C510 C 0.96555 0.51391 0.95891 0.0
C511 C 0.92491 0.50959 0.98014 0.0
C512 C 0.92178 0.48908 0.0041 0.0
C513 C 0.88029 0.48478 0.02421 0.0
C514 C 0.84336 0.50057 0.02138 0.0
C515 C 0.84671 0.52082 -0.00158 0.0
C516 C 0.8869 0.52534 0.97788 0.0
H517 H 0.95736 0.47603 0.08328 0.0
C518 C 0.96056 0.45775 0.07304 0.0
H519 H 0.9637 0.43516 0.02465 0.0
H520 H 0.04887 0.5173 0.92226 0.0
H521 H 0.11229 0.48937 0.9269 0.0
H522 H 0.10684 0.45368 0.96828 0.0
H523 H 0.03798 0.44577 0.00525 0.0
C524 C 0.95913 0.45327 0.03525 0.0
C525 C 0.95973 0.47326 0.00722 0.0
C526 C -0.0 0.47729 0.98519 0.0
C527 C 0.00305 0.49775 0.96121 0.0
C528 C 0.04429 0.50183 0.94049 0.0
C529 C 0.08112 0.48598 0.94301 0.0
C530 C 0.07806 0.46591 0.9663 0.0
C531 C 0.03819 0.46157 0.98734 0.0
H532 H 0.52725 0.42575 0.47053 0.0
C533 C 0.53244 0.43376 0.44241 0.0
H534 H 0.54909 0.46526 0.41176 0.0
H535 H 0.45989 0.51241 0.56686 0.0
H536 H 0.38756 0.49832 0.54072 0.0
H537 H 0.38594 0.47301 0.4828 0.0
H538 H 0.4566 0.46126 0.45125 0.0
C539 C 0.54354 0.45697 0.43959 0.0
C540 C 0.5445 0.47259 0.47391 0.0
C541 C 0.5026 0.47995 0.49109 0.0
C542 C 0.50338 0.49545 0.52331 0.0
C543 C 0.46122 0.50151 0.54126 0.0
C544 C 0.41943 0.4934 0.52674 0.0
C545 C 0.41853 0.47909 0.49423 0.0
C546 C 0.45947 0.47238 0.4765 0.0
H547 H 0.51522 0.54921 0.53345 0.0
C548 C 0.529 0.5447 0.56156 0.0
H549 H 0.56126 0.5181 0.59543 0.0
H550 H 0.63059 0.4611 0.44834 0.0
H551 H 0.70305 0.47573 0.47398 0.0
H552 H 0.70433 0.50373 0.52864 0.0
H553 H 0.63322 0.51722 0.55812 0.0
C554 C 0.54644 0.52281 0.5678 0.0
C555 C 0.5459 0.50451 0.53698 0.0
C556 C 0.58777 0.49676 0.52033 0.0
C557 C 0.58705 0.48076 0.48867 0.0
C558 C 0.62928 0.47335 0.47234 0.0
C559 C 0.67106 0.48159 0.48679 0.0
C560 C 0.67178 0.49735 0.51758 0.0
C561 C 0.63073 0.50495 0.53424 0.0
H562 H 0.53022 0.93616 0.52929 0.0
C563 C 0.51565 0.94073 0.55707 0.0
H564 H 0.48144 0.96709 0.58999 0.0
H565 H 0.5863 0.02987 0.45434 0.0
H566 H 0.65638 0.01899 0.4876 0.0
H567 H 0.65455 0.99131 0.54275 0.0
H568 H 0.58269 0.97402 0.56436 0.0
C569 C 0.49695 0.9624 0.56264 0.0
C570 C 0.4975 0.98078 0.53201 0.0
C571 C 0.53964 0.99154 0.52096 0.0
C572 C 0.54039 0.00834 0.49042 0.0
C573 C 0.58333 0.01773 0.47837 0.0
C574 C 0.62396 0.01152 0.49708 0.0
C575 C 0.62295 -0.00412 0.52802 0.0
C576 C 0.58142 0.98596 0.53997 0.0
H577 H 0.51435 0.06236 0.47503 0.0
C578 C 0.50902 0.05572 0.44606 0.0
H579 H 0.49328 0.02572 0.41151 0.0
H580 H 0.41097 0.96405 0.54737 0.0
H581 H 0.34023 0.97613 0.51572 0.0
H582 H 0.34119 0.00632 0.46403 0.0
H583 H 0.41293 0.02457 0.4436 0.0
C584 C 0.49939 0.03254 0.44025 0.0
C585 C 0.49867 0.01518 0.47235 0.0
C586 C 0.45646 0.00484 0.484 0.0
C587 C 0.45587 0.9876 0.51395 0.0
C588 C 0.41331 0.97736 0.5249 0.0
C589 C 0.37247 0.98411 0.50695 0.0
C590 C 0.37302 0.0011 0.47783 0.0
C591 C 0.41442 0.01141 0.46636 0.0
loop_
_geom_bond_atom_site_label_1
_geom_bond_atom_site_label_2
_geom_bond_distance
_geom_bond_site_symmetry_2
_ccdc_geom_bond_type
C0 O1 1.306 . S
C0 O3 1.160 . S
O1 C0 1.306 . S
O1 Cd2 2.228 . S
Cd2 O1 2.228 . S
Cd2 O6 2.273 1_455 S
Cd2 O10 2.277 . S
O3 C0 1.160 . S
O3 Cd4 2.203 . S
Cd4 O3 2.203 . S
Cd4 O6 2.411 1_455 S
Cd4 O7 2.333 1_455 S
Cd4 O8 2.352 . S
Cd4 O12 2.277 . S
Cd4 O13 2.356 . S
C5 O10 1.209 . S
C5 O12 1.226 . S
O6 Cd2 2.273 1_655 S
O6 Cd4 2.411 1_655 S
O6 C9 1.320 . S
O7 Cd4 2.333 1_655 S
O7 C9 1.214 . S
O8 Cd4 2.352 . S
O8 C11 1.258 . S
C9 O6 1.320 . S
C9 O7 1.214 . S
O10 Cd2 2.277 . S
O10 C5 1.209 . S
C11 O8 1.258 . S
C11 O13 1.282 . S
O12 Cd4 2.277 . S
O12 C5 1.226 . S
O13 Cd4 2.356 . S
O13 C11 1.282 . S
C14 O15 1.306 . S
C14 O17 1.160 . S
O15 C14 1.306 . S
O15 Cd16 2.228 1_655 S
Cd16 O15 2.228 1_455 S
Cd16 O20 2.273 . S
Cd16 O24 2.277 . S
O17 C14 1.160 . S
O17 Cd18 2.203 1_655 S
Cd18 O17 2.203 1_455 S
Cd18 O20 2.411 . S
Cd18 O21 2.333 . S
Cd18 O22 2.352 . S
Cd18 O26 2.277 . S
Cd18 O27 2.356 . S
C19 O24 1.209 . S
C19 O26 1.226 . S
O20 Cd16 2.273 . S
O20 Cd18 2.411 . S
O20 C23 1.320 . S
O21 Cd18 2.333 . S
O21 C23 1.214 . S
O22 Cd18 2.352 . S
O22 C25 1.258 . S
C23 O20 1.320 . S
C23 O21 1.214 . S
O24 Cd16 2.277 . S
O24 C19 1.209 . S
C25 O22 1.258 . S
C25 O27 1.282 . S
O26 Cd18 2.277 . S
O26 C19 1.226 . S
O27 Cd18 2.356 . S
O27 C25 1.282 . S
C28 O29 1.306 . S
C28 O31 1.160 . S
O29 C28 1.306 . S
O29 Cd30 2.228 . S
Cd30 O29 2.228 . S
Cd30 O34 2.273 1_455 S
Cd30 O38 2.277 . S
O31 C28 1.160 . S
O31 Cd32 2.203 . S
Cd32 O31 2.203 . S
Cd32 O34 2.411 1_455 S
Cd32 O35 2.333 1_455 S
Cd32 O36 2.352 . S
Cd32 O40 2.277 . S
Cd32 O41 2.356 . S
C33 O38 1.209 . S
C33 O40 1.226 . S
O34 Cd30 2.273 1_655 S
O34 Cd32 2.411 1_655 S
O34 C37 1.320 . S
O35 Cd32 2.333 1_655 S
O35 C37 1.214 . S
O36 Cd32 2.352 . S
O36 C39 1.258 . S
C37 O34 1.320 . S
C37 O35 1.214 . S
O38 Cd30 2.277 . S
O38 C33 1.209 . S
C39 O36 1.258 . S
C39 O41 1.282 . S
O40 Cd32 2.277 . S
O40 C33 1.226 . S
O41 Cd32 2.356 . S
O41 C39 1.282 . S
C42 O43 1.306 . S
C42 O45 1.160 . S
O43 C42 1.306 . S
O43 Cd44 2.228 1_655 S
Cd44 O43 2.228 1_455 S
Cd44 O48 2.273 . S
Cd44 O52 2.277 . S
O45 C42 1.160 . S
O45 Cd46 2.203 1_655 S
Cd46 O45 2.203 1_455 S
Cd46 O48 2.411 . S
Cd46 O49 2.333 . S
Cd46 O50 2.352 . S
Cd46 O54 2.277 . S
Cd46 O55 2.356 . S
C47 O52 1.209 . S
C47 O54 1.226 . S
O48 Cd44 2.273 . S
O48 Cd46 2.411 . S
O48 C51 1.320 . S
O49 Cd46 2.333 . S
O49 C51 1.214 . S
O50 Cd46 2.352 . S
O50 C53 1.258 . S
C51 O48 1.320 . S
C51 O49 1.214 . S
O52 Cd44 2.277 . S
O52 C47 1.209 . S
C53 O50 1.258 . S
C53 O55 1.282 . S
O54 Cd46 2.277 . S
O54 C47 1.226 . S
O55 Cd46 2.356 . S
O55 C53 1.282 . S
C56 O57 1.306 . S
C56 O59 1.160 . S
O57 C56 1.306 . S
O57 Cd58 2.228 . S
Cd58 O57 2.228 . S
Cd58 O62 2.273 . S
Cd58 O66 2.277 . S
O59 C56 1.160 . S
O59 Cd60 2.203 . S
Cd60 O59 2.203 . S
Cd60 O62 2.411 . S
Cd60 O63 2.333 . S
Cd60 O64 2.352 . S
Cd60 O68 2.277 . S
Cd60 O69 2.356 . S
C61 O66 1.209 . S
C61 O68 1.226 . S
O62 Cd58 2.273 . S
O62 Cd60 2.411 . S
O62 C65 1.320 . S
O63 Cd60 2.333 . S
O63 C65 1.214 . S
O64 Cd60 2.352 . S
O64 C67 1.258 . S
C65 O62 1.320 . S
C65 O63 1.214 . S
O66 Cd58 2.277 . S
O66 C61 1.209 . S
C67 O64 1.258 . S
C67 O69 1.282 . S
O68 Cd60 2.277 . S
O68 C61 1.226 . S
O69 Cd60 2.356 . S
O69 C67 1.282 . S
C70 O71 1.306 . S
C70 O73 1.160 . S
O71 C70 1.306 . S
O71 Cd72 2.228 . S
Cd72 O71 2.228 . S
Cd72 O76 2.273 . S
Cd72 O80 2.277 . S
O73 C70 1.160 . S
O73 Cd74 2.203 . S
Cd74 O73 2.203 . S
Cd74 O76 2.411 . S
Cd74 O77 2.333 . S
Cd74 O78 2.352 . S
Cd74 O82 2.277 . S
Cd74 O83 2.356 . S
C75 O80 1.209 . S
C75 O82 1.226 . S
O76 Cd72 2.273 . S
O76 Cd74 2.411 . S
O76 C79 1.320 . S
O77 Cd74 2.333 . S
O77 C79 1.214 . S
O78 Cd74 2.352 . S
O78 C81 1.258 . S
C79 O76 1.320 . S
C79 O77 1.214 . S
O80 Cd72 2.277 . S
O80 C75 1.209 . S
C81 O78 1.258 . S
C81 O83 1.282 . S
O82 Cd74 2.277 . S
O82 C75 1.226 . S
O83 Cd74 2.356 . S
O83 C81 1.282 . S
C84 O85 1.306 . S
C84 O87 1.160 . S
O85 C84 1.306 . S
O85 Cd86 2.228 . S
Cd86 O85 2.228 . S
Cd86 O90 2.273 . S
Cd86 O94 2.277 . S
O87 C84 1.160 . S
O87 Cd88 2.203 . S
Cd88 O87 2.203 . S
Cd88 O90 2.411 . S
Cd88 O91 2.333 . S
Cd88 O92 2.352 . S
Cd88 O96 2.277 . S
Cd88 O97 2.356 . S
C89 O94 1.209 . S
C89 O96 1.226 . S
O90 Cd86 2.273 . S
O90 Cd88 2.411 . S
O90 C93 1.320 . S
O91 Cd88 2.333 . S
O91 C93 1.214 . S
O92 Cd88 2.352 . S
O92 C95 1.258 . S
C93 O90 1.320 . S
C93 O91 1.214 . S
O94 Cd86 2.277 . S
O94 C89 1.209 . S
C95 O92 1.258 . S
C95 O97 1.282 . S
O96 Cd88 2.277 . S
O96 C89 1.226 . S
O97 Cd88 2.356 . S
O97 C95 1.282 . S
C98 O99 1.306 . S
C98 O101 1.160 . S
O99 C98 1.306 . S
O99 Cd100 2.228 . S
Cd100 O99 2.228 . S
Cd100 O104 2.273 . S
Cd100 O108 2.277 . S
O101 C98 1.160 . S
O101 Cd102 2.203 . S
Cd102 O101 2.203 . S
Cd102 O104 2.411 . S
Cd102 O105 2.333 . S
Cd102 O106 2.352 . S
Cd102 O110 2.277 . S
Cd102 O111 2.356 . S
C103 O108 1.209 . S
C103 O110 1.226 . S
O104 Cd100 2.273 . S
O104 Cd102 2.411 . S
O104 C107 1.320 . S
O105 Cd102 2.333 . S
O105 C107 1.214 . S
O106 Cd102 2.352 . S
O106 C109 1.258 . S
C107 O104 1.320 . S
C107 O105 1.214 . S
O108 Cd100 2.277 . S
O108 C103 1.209 . S
C109 O106 1.258 . S
C109 O111 1.282 . S
O110 Cd102 2.277 . S
O110 C103 1.226 . S
O111 Cd102 2.356 . S
O111 C109 1.282 . S
H112 C113 0.951 . S
C113 H112 0.951 . S
C113 C119 1.265 . S
H114 C119 0.950 1_655 S
H115 C123 0.949 1_455 S
H116 C124 0.950 . S
H117 C125 0.951 . S
H118 C126 0.951 . S
C119 C113 1.265 . S
C119 H114 0.950 1_455 S
C119 C120 1.478 . S
C120 C119 1.478 . S
C120 C121 1.397 . S
C120 C137 1.394 . S
C121 C120 1.397 . S
C121 C122 1.438 . S
C121 C126 1.429 1_455 S
C122 C121 1.438 . S
C122 C123 1.428 1_455 S
C122 C135 1.394 . S
C123 H115 0.949 1_655 S
C123 C122 1.428 1_655 S
C123 C124 1.345 . S
C124 H116 0.950 . S
C124 C123 1.345 . S
C124 C125 1.424 . S
C125 H117 0.951 . S
C125 C124 1.424 . S
C125 C126 1.347 . S
C126 H118 0.951 . S
C126 C121 1.429 1_655 S
C126 C125 1.347 . S
H127 C128 0.951 1_655 S
C128 H127 0.951 1_455 S
C128 C134 1.265 . S
H129 C134 0.950 . S
H130 C138 0.949 . S
H131 C139 0.950 . S
H132 C140 0.951 . S
H133 C141 0.951 . S
C134 C128 1.265 . S
C134 H129 0.950 . S
C134 C135 1.478 . S
C135 C122 1.394 . S
C135 C134 1.478 . S
C135 C136 1.397 . S
C136 C135 1.397 . S
C136 C137 1.438 . S
C136 C141 1.429 . S
C137 C120 1.394 . S
C137 C136 1.438 . S
C137 C138 1.428 . S
C138 H130 0.949 . S
C138 C137 1.428 . S
C138 C139 1.345 . S
C139 H131 0.950 . S
C139 C138 1.345 . S
C139 C140 1.424 . S
C140 H132 0.951 . S
C140 C139 1.424 . S
C140 C141 1.347 . S
C141 H133 0.951 . S
C141 C136 1.429 . S
C141 C140 1.347 . S
H142 C143 0.951 . S
C143 H142 0.951 . S
C143 C149 1.277 . S
H144 C149 0.932 1_655 S
H145 C153 0.949 1_455 S
H146 C154 0.950 . S
H147 C155 0.951 . S
H148 C156 0.951 . S
C149 C143 1.277 . S
C149 H144 0.932 1_455 S
C149 C150 1.483 . S
C150 C149 1.483 . S
C150 C151 1.401 . S
C150 C167 1.394 . S
C151 C150 1.401 . S
C151 C152 1.441 . S
C151 C156 1.422 1_455 S
C152 C151 1.441 . S
C152 C153 1.428 1_455 S
C152 C165 1.394 . S
C153 H145 0.949 1_655 S
C153 C152 1.428 1_655 S
C153 C154 1.345 . S
C154 H146 0.950 . S
C154 C153 1.345 . S
C154 C155 1.424 . S
C155 H147 0.951 . S
C155 C154 1.424 . S
C155 C156 1.347 . S
C156 H148 0.951 . S
C156 C151 1.422 1_655 S
C156 C155 1.347 . S
H157 C158 0.951 1_655 S
C158 H157 0.951 1_455 S
C158 C164 1.265 . S
H159 C164 0.950 . S
H160 C168 0.949 . S
H161 C169 0.950 . S
H162 C170 0.951 . S
H163 C171 0.951 . S
C164 C158 1.265 . S
C164 H159 0.950 . S
C164 C165 1.478 . S
C165 C152 1.394 . S
C165 C164 1.478 . S
C165 C166 1.397 . S
C166 C165 1.397 . S
C166 C167 1.438 . S
C166 C171 1.429 . S
C167 C150 1.394 . S
C167 C166 1.438 . S
C167 C168 1.428 . S
C168 H160 0.949 . S
C168 C167 1.428 . S
C168 C169 1.345 . S
C169 H161 0.950 . S
C169 C168 1.345 . S
C169 C170 1.424 . S
C170 H162 0.951 . S
C170 C169 1.424 . S
C170 C171 1.347 . S
C171 H163 0.951 . S
C171 C166 1.429 . S
C171 C170 1.347 . S
H172 C173 0.951 . S
C173 H172 0.951 . S
C173 C179 1.265 . S
H174 C179 0.950 . S
H175 C183 0.949 . S
H176 C184 0.950 . S
H177 C185 0.951 . S
H178 C186 0.951 . S
C179 C173 1.265 . S
C179 H174 0.950 . S
C179 C180 1.478 . S
C180 C179 1.478 . S
C180 C181 1.397 . S
C180 C197 1.394 . S
C181 C180 1.397 . S
C181 C182 1.438 . S
C181 C186 1.429 . S
C182 C181 1.438 . S
C182 C183 1.428 . S
C182 C195 1.394 . S
C183 H175 0.949 . S
C183 C182 1.428 . S
C183 C184 1.345 . S
C184 H176 0.950 . S
C184 C183 1.345 . S
C184 C185 1.424 . S
C185 H177 0.951 . S
C185 C184 1.424 . S
C185 C186 1.347 . S
C186 H178 0.951 . S
C186 C181 1.429 . S
C186 C185 1.347 . S
H187 C188 0.951 . S
C188 H187 0.951 . S
C188 C194 1.265 . S
H189 C194 0.950 . S
H190 C198 0.949 . S
H191 C199 0.950 . S
H192 C200 0.951 . S
H193 C201 0.951 . S
C194 C188 1.265 . S
C194 H189 0.950 . S
C194 C195 1.478 . S
C195 C182 1.394 . S
C195 C194 1.478 . S
C195 C196 1.397 . S
C196 C195 1.397 . S
C196 C197 1.438 . S
C196 C201 1.429 . S
C197 C180 1.394 . S
C197 C196 1.438 . S
C197 C198 1.428 . S
C198 H190 0.949 . S
C198 C197 1.428 . S
C198 C199 1.345 . S
C199 H191 0.950 . S
C199 C198 1.345 . S
C199 C200 1.424 . S
C200 H192 0.951 . S
C200 C199 1.424 . S
C200 C201 1.347 . S
C201 H193 0.951 . S
C201 C196 1.429 . S
C201 C200 1.347 . S
H202 C203 0.951 . S
C203 H202 0.951 . S
C203 C209 1.265 . S
H204 C209 0.950 . S
H205 C213 0.949 . S
H206 C214 0.950 . S
H207 C215 0.951 . S
H208 C216 0.951 . S
C209 C203 1.265 . S
C209 H204 0.950 . S
C209 C210 1.478 . S
C210 C209 1.478 . S
C210 C211 1.397 . S
C210 C227 1.394 . S
C211 C210 1.397 . S
C211 C212 1.438 . S
C211 C216 1.429 . S
C212 C211 1.438 . S
C212 C213 1.428 . S
C212 C225 1.394 . S
C213 H205 0.949 . S
C213 C212 1.428 . S
C213 C214 1.345 . S
C214 H206 0.950 . S
C214 C213 1.345 . S
C214 C215 1.424 . S
C215 H207 0.951 . S
C215 C214 1.424 . S
C215 C216 1.347 . S
C216 H208 0.951 . S
C216 C211 1.429 . S
C216 C215 1.347 . S
H217 C218 0.951 . S
C218 H217 0.951 . S
C218 C224 1.265 . S
H219 C224 0.950 . S
H220 C228 0.949 . S
H221 C229 0.950 . S
H222 C230 0.951 . S
H223 C231 0.951 . S
C224 C218 1.265 . S
C224 H219 0.950 . S
C224 C225 1.478 . S
C225 C212 1.394 . S
C225 C224 1.478 . S
C225 C226 1.397 . S
C226 C225 1.397 . S
C226 C227 1.438 . S
C226 C231 1.429 . S
C227 C210 1.394 . S
C227 C226 1.438 . S
C227 C228 1.428 . S
C228 H220 0.949 . S
C228 C227 1.428 . S
C228 C229 1.345 . S
C229 H221 0.950 . S
C229 C228 1.345 . S
C229 C230 1.424 . S
C230 H222 0.951 . S
C230 C229 1.424 . S
C230 C231 1.347 . S
C231 H223 0.951 . S
C231 C226 1.429 . S
C231 C230 1.347 . S
H232 C233 0.951 . S
C233 H232 0.951 . S
C233 C239 1.265 . S
H234 C239 0.950 . S
H235 C243 0.949 . S
H236 C244 0.950 . S
H237 C245 0.951 . S
H238 C246 0.951 . S
C239 C233 1.265 . S
C239 H234 0.950 . S
C239 C240 1.478 . S
C240 C239 1.478 . S
C240 C241 1.397 . S
C240 C257 1.394 . S
C241 C240 1.397 . S
C241 C242 1.438 . S
C241 C246 1.429 . S
C242 C241 1.438 . S
C242 C243 1.428 . S
C242 C255 1.394 . S
C243 H235 0.949 . S
C243 C242 1.428 . S
C243 C244 1.345 . S
C244 H236 0.950 . S
C244 C243 1.345 . S
C244 C245 1.424 . S
C245 H237 0.951 . S
C245 C244 1.424 . S
C245 C246 1.347 . S
C246 H238 0.951 . S
C246 C241 1.429 . S
C246 C245 1.347 . S
H247 C248 0.951 . S
C248 H247 0.951 . S
C248 C254 1.265 . S
H249 C254 0.950 . S
H250 C258 0.949 . S
H251 C259 0.950 . S
H252 C260 0.951 . S
H253 C261 0.951 . S
C254 C248 1.265 . S
C254 H249 0.950 . S
C254 C255 1.478 . S
C255 C242 1.394 . S
C255 C254 1.478 . S
C255 C256 1.397 . S
C256 C255 1.397 . S
C256 C257 1.438 . S
C256 C261 1.429 . S
C257 C240 1.394 . S
C257 C256 1.438 . S
C257 C258 1.428 . S
C258 H250 0.949 . S
C258 C257 1.428 . S
C258 C259 1.345 . S
C259 H251 0.950 . S
C259 C258 1.345 . S
C259 C260 1.424 . S
C260 H252 0.951 . S
C260 C259 1.424 . S
C260 C261 1.347 . S
C261 H253 0.951 . S
C261 C256 1.429 . S
C261 C260 1.347 . S
H262 C263 0.951 . S
C263 H262 0.951 . S
C263 C269 1.265 . S
H264 C269 0.950 . S
H265 C273 0.949 . S
H266 C274 0.950 . S
H267 C275 0.951 . S
H268 C276 0.951 . S
C269 C263 1.265 . S
C269 H264 0.950 . S
C269 C270 1.478 . S
C270 C269 1.478 . S
C270 C271 1.397 . S
C270 C287 1.394 . S
C271 C270 1.397 . S
C271 C272 1.438 . S
C271 C276 1.429 . S
C272 C271 1.438 . S
C272 C273 1.428 . S
C272 C285 1.394 . S
C273 H265 0.949 . S
C273 C272 1.428 . S
C273 C274 1.345 . S
C274 H266 0.950 . S
C274 C273 1.345 . S
C274 C275 1.424 . S
C275 H267 0.951 . S
C275 C274 1.424 . S
C275 C276 1.347 . S
C276 H268 0.951 . S
C276 C271 1.429 . S
C276 C275 1.347 . S
H277 C278 0.951 . S
C278 H277 0.951 . S
C278 C284 1.265 . S
H279 C284 0.950 . S
H280 C288 0.949 . S
H281 C289 0.950 . S
H282 C290 0.951 . S
H283 C291 0.951 . S
C284 C278 1.265 . S
C284 H279 0.950 . S
C284 C285 1.478 . S
C285 C272 1.394 . S
C285 C284 1.478 . S
C285 C286 1.397 . S
C286 C285 1.397 . S
C286 C287 1.438 . S
C286 C291 1.429 . S
C287 C270 1.394 . S
C287 C286 1.438 . S
C287 C288 1.428 . S
C288 H280 0.949 . S
C288 C287 1.428 . S
C288 C289 1.345 . S
C289 H281 0.950 . S
C289 C288 1.345 . S
C289 C290 1.424 . S
C290 H282 0.951 . S
C290 C289 1.424 . S
C290 C291 1.347 . S
C291 H283 0.951 . S
C291 C286 1.429 . S
C291 C290 1.347 . S
H292 C293 0.951 . S
C293 H292 0.951 . S
C293 C299 1.265 . S
H294 C299 0.950 . S
H295 C303 0.949 . S
H296 C304 0.950 . S
H297 C305 0.951 . S
H298 C306 0.951 . S
C299 C293 1.265 . S
C299 H294 0.950 . S
C299 C300 1.478 . S
C300 C299 1.478 . S
C300 C301 1.397 . S
C300 C317 1.394 . S
C301 C300 1.397 . S
C301 C302 1.438 . S
C301 C306 1.429 . S
C302 C301 1.438 . S
C302 C303 1.428 . S
C302 C315 1.394 . S
C303 H295 0.949 . S
C303 C302 1.428 . S
C303 C304 1.345 . S
C304 H296 0.950 . S
C304 C303 1.345 . S
C304 C305 1.424 . S
C305 H297 0.951 . S
C305 C304 1.424 . S
C305 C306 1.347 . S
C306 H298 0.951 . S
C306 C301 1.429 . S
C306 C305 1.347 . S
H307 C308 0.951 . S
C308 H307 0.951 . S
C308 C314 1.265 . S
H309 C314 0.950 . S
H310 C318 0.949 . S
H311 C319 0.950 . S
H312 C320 0.951 . S
H313 C321 0.951 . S
C314 C308 1.265 . S
C314 H309 0.950 . S
C314 C315 1.478 . S
C315 C302 1.394 . S
C315 C314 1.478 . S
C315 C316 1.397 . S
C316 C315 1.397 . S
C316 C317 1.438 . S
C316 C321 1.429 . S
C317 C300 1.394 . S
C317 C316 1.438 . S
C317 C318 1.428 . S
C318 H310 0.949 . S
C318 C317 1.428 . S
C318 C319 1.345 . S
C319 H311 0.950 . S
C319 C318 1.345 . S
C319 C320 1.424 . S
C320 H312 0.951 . S
C320 C319 1.424 . S
C320 C321 1.347 . S
C321 H313 0.951 . S
C321 C316 1.429 . S
C321 C320 1.347 . S
H322 C323 0.951 . S
C323 H322 0.951 . S
C323 C329 1.265 . S
H324 C329 0.950 . S
H325 C333 0.949 . S
H326 C334 0.950 . S
H327 C335 0.951 . S
H328 C336 0.951 . S
C329 C323 1.265 . S
C329 H324 0.950 . S
C329 C330 1.478 . S
C330 C329 1.478 . S
C330 C331 1.397 . S
C330 C347 1.394 . S
C331 C330 1.397 . S
C331 C332 1.438 . S
C331 C336 1.429 . S
C332 C331 1.438 . S
C332 C333 1.428 . S
C332 C345 1.394 . S
C333 H325 0.949 . S
C333 C332 1.428 . S
C333 C334 1.345 . S
C334 H326 0.950 . S
C334 C333 1.345 . S
C334 C335 1.424 . S
C335 H327 0.951 . S
C335 C334 1.424 . S
C335 C336 1.347 . S
C336 H328 0.951 . S
C336 C331 1.429 . S
C336 C335 1.347 . S
H337 C338 0.951 . S
C338 H337 0.951 . S
C338 C344 1.265 . S
H339 C344 0.950 . S
H340 C348 0.949 . S
H341 C349 0.950 . S
H342 C350 0.951 . S
H343 C351 0.951 . S
C344 C338 1.265 . S
C344 H339 0.950 . S
C344 C345 1.478 . S
C345 C332 1.394 . S
C345 C344 1.478 . S
C345 C346 1.397 . S
C346 C345 1.397 . S
C346 C347 1.438 . S
C346 C351 1.429 . S
C347 C330 1.394 . S
C347 C346 1.438 . S
C347 C348 1.428 . S
C348 H340 0.949 . S
C348 C347 1.428 . S
C348 C349 1.345 . S
C349 H341 0.950 . S
C349 C348 1.345 . S
C349 C350 1.424 . S
C350 H342 0.951 . S
C350 C349 1.424 . S
C350 C351 1.347 . S
C351 H343 0.951 . S
C351 C346 1.429 . S
C351 C350 1.347 . S
H352 C353 0.951 . S
C353 H352 0.951 . S
C353 C359 1.265 . S
H354 C359 0.950 . S
H355 C363 0.949 . S
H356 C364 0.950 . S
H357 C365 0.951 . S
H358 C366 0.951 . S
C359 C353 1.265 . S
C359 H354 0.950 . S
C359 C360 1.478 . S
C360 C359 1.478 . S
C360 C361 1.397 . S
C360 C377 1.394 . S
C361 C360 1.397 . S
C361 C362 1.438 . S
C361 C366 1.429 . S
C362 C361 1.438 . S
C362 C363 1.428 . S
C362 C375 1.394 . S
C363 H355 0.949 . S
C363 C362 1.428 . S
C363 C364 1.345 . S
C364 H356 0.950 . S
C364 C363 1.345 . S
C364 C365 1.424 . S
C365 H357 0.951 . S
C365 C364 1.424 . S
C365 C366 1.347 . S
C366 H358 0.951 . S
C366 C361 1.429 . S
C366 C365 1.347 . S
H367 C368 0.951 . S
C368 H367 0.951 . S
C368 C374 1.265 . S
H369 C374 0.950 . S
H370 C378 0.949 . S
H371 C379 0.950 . S
H372 C380 0.951 . S
H373 C381 0.951 . S
C374 C368 1.265 . S
C374 H369 0.950 . S
C374 C375 1.478 . S
C375 C362 1.394 . S
C375 C374 1.478 . S
C375 C376 1.397 . S
C376 C375 1.397 . S
C376 C377 1.438 . S
C376 C381 1.429 . S
C377 C360 1.394 . S
C377 C376 1.438 . S
C377 C378 1.428 . S
C378 H370 0.949 . S
C378 C377 1.428 . S
C378 C379 1.345 . S
C379 H371 0.950 . S
C379 C378 1.345 . S
C379 C380 1.424 . S
C380 H372 0.951 . S
C380 C379 1.424 . S
C380 C381 1.347 . S
C381 H373 0.951 . S
C381 C376 1.429 . S
C381 C380 1.347 . S
H382 C383 0.951 . S
C383 H382 0.951 . S
C383 C389 1.265 . S
H384 C389 0.950 . S
H385 C393 0.949 . S
H386 C394 0.950 . S
H387 C395 0.951 . S
H388 C396 0.951 . S
C389 C383 1.265 . S
C389 H384 0.950 . S
C389 C390 1.478 . S
C390 C389 1.478 . S
C390 C391 1.397 . S
C390 C407 1.394 . S
C391 C390 1.397 . S
C391 C392 1.438 . S
C391 C396 1.429 . S
C392 C391 1.438 . S
C392 C393 1.428 . S
C392 C405 1.394 . S
C393 H385 0.949 . S
C393 C392 1.428 . S
C393 C394 1.345 . S
C394 H386 0.950 . S
C394 C393 1.345 . S
C394 C395 1.424 . S
C395 H387 0.951 . S
C395 C394 1.424 . S
C395 C396 1.347 . S
C396 H388 0.951 . S
C396 C391 1.429 . S
C396 C395 1.347 . S
H397 C398 0.951 . S
C398 H397 0.951 . S
C398 C404 1.265 . S
H399 C404 0.950 . S
H400 C408 0.949 . S
H401 C409 0.950 . S
H402 C410 0.951 . S
H403 C411 0.951 . S
C404 C398 1.265 . S
C404 H399 0.950 . S
C404 C405 1.478 . S
C405 C392 1.394 . S
C405 C404 1.478 . S
C405 C406 1.397 . S
C406 C405 1.397 . S
C406 C407 1.438 . S
C406 C411 1.429 . S
C407 C390 1.394 . S
C407 C406 1.438 . S
C407 C408 1.428 . S
C408 H400 0.949 . S
C408 C407 1.428 . S
C408 C409 1.345 . S
C409 H401 0.950 . S
C409 C408 1.345 . S
C409 C410 1.424 . S
C410 H402 0.951 . S
C410 C409 1.424 . S
C410 C411 1.347 . S
C411 H403 0.951 . S
C411 C406 1.429 . S
C411 C410 1.347 . S
H412 C413 0.951 . S
C413 H412 0.951 . S
C413 C419 1.265 . S
H414 C419 0.950 . S
H415 C423 0.949 . S
H416 C424 0.950 . S
H417 C425 0.951 . S
H418 C426 0.951 . S
C419 C413 1.265 . S
C419 H414 0.950 . S
C419 C420 1.478 . S
C420 C419 1.478 . S
C420 C421 1.397 . S
C420 C437 1.394 . S
C421 C420 1.397 . S
C421 C422 1.438 . S
C421 C426 1.429 . S
C422 C421 1.438 . S
C422 C423 1.428 . S
C422 C435 1.394 . S
C423 H415 0.949 . S
C423 C422 1.428 . S
C423 C424 1.345 . S
C424 H416 0.950 . S
C424 C423 1.345 . S
C424 C425 1.424 . S
C425 H417 0.951 . S
C425 C424 1.424 . S
C425 C426 1.347 . S
C426 H418 0.951 . S
C426 C421 1.429 . S
C426 C425 1.347 . S
H427 C428 0.951 . S
C428 H427 0.951 . S
C428 C434 1.265 . S
H429 C434 0.950 . S
H430 C438 0.949 . S
H431 C439 0.950 . S
H432 C440 0.951 . S
H433 C441 0.951 . S
C434 C428 1.265 . S
C434 H429 0.950 . S
C434 C435 1.478 . S
C435 C422 1.394 . S
C435 C434 1.478 . S
C435 C436 1.397 . S
C436 C435 1.397 . S
C436 C437 1.438 . S
C436 C441 1.429 . S
C437 C420 1.394 . S
C437 C436 1.438 . S
C437 C438 1.428 . S
C438 H430 0.949 . S
C438 C437 1.428 . S
C438 C439 1.345 . S
C439 H431 0.950 . S
C439 C438 1.345 . S
C439 C440 1.424 . S
C440 H432 0.951 . S
C440 C439 1.424 . S
C440 C441 1.347 . S
C441 H433 0.951 . S
C441 C436 1.429 . S
C441 C440 1.347 . S
H442 C443 0.951 . S
C443 H442 0.951 . S
C443 C449 1.265 . S
H444 C449 0.950 . S
H445 C453 0.949 . S
H446 C454 0.950 . S
H447 C455 0.951 . S
H448 C456 0.951 . S
C449 C443 1.265 . S
C449 H444 0.950 . S
C449 C450 1.478 . S
C450 C449 1.478 . S
C450 C451 1.397 . S
C450 C467 1.394 . S
C451 C450 1.397 . S
C451 C452 1.438 . S
C451 C456 1.429 . S
C452 C451 1.438 . S
C452 C453 1.428 . S
C452 C465 1.394 . S
C453 H445 0.949 . S
C453 C452 1.428 . S
C453 C454 1.345 . S
C454 H446 0.950 . S
C454 C453 1.345 . S
C454 C455 1.424 . S
C455 H447 0.951 . S
C455 C454 1.424 . S
C455 C456 1.347 . S
C456 H448 0.951 . S
C456 C451 1.429 . S
C456 C455 1.347 . S
H457 C458 0.951 . S
C458 H457 0.951 . S
C458 C464 1.265 . S
H459 C464 0.950 . S
H460 C468 0.949 . S
H461 C469 0.950 . S
H462 C470 0.951 . S
H463 C471 0.951 . S
C464 C458 1.265 . S
C464 H459 0.950 . S
C464 C465 1.478 . S
C465 C452 1.394 . S
C465 C464 1.478 . S
C465 C466 1.397 . S
C466 C465 1.397 . S
C466 C467 1.438 . S
C466 C471 1.429 . S
C467 C450 1.394 . S
C467 C466 1.438 . S
C467 C468 1.428 . S
C468 H460 0.949 . S
C468 C467 1.428 . S
C468 C469 1.345 . S
C469 H461 0.950 . S
C469 C468 1.345 . S
C469 C470 1.424 . S
C470 H462 0.951 . S
C470 C469 1.424 . S
C470 C471 1.347 . S
C471 H463 0.951 . S
C471 C466 1.429 . S
C471 C470 1.347 . S
H472 C473 0.951 1_655 S
C473 H472 0.951 1_455 S
C473 C479 1.265 . S
H474 C479 0.950 . S
H475 C483 0.936 1_556 S
H476 C484 0.950 . S
H477 C485 0.951 . S
H478 C486 0.951 . S
C479 C473 1.265 . S
C479 H474 0.950 . S
C479 C480 1.478 . S
C480 C479 1.478 . S
C480 C481 1.397 1_545 S
C480 C497 1.394 1_554 S
C481 C480 1.397 1_565 S
C481 C482 1.438 . S
C481 C486 1.429 . S
C482 C481 1.438 . S
C482 C483 1.428 . S
C482 C495 1.394 1_554 S
C483 H475 0.936 1_554 S
C483 C482 1.428 . S
C483 C484 1.345 . S
C484 H476 0.950 . S
C484 C483 1.345 . S
C484 C485 1.424 . S
C485 H477 0.951 . S
C485 C484 1.424 . S
C485 C486 1.347 . S
C486 H478 0.951 . S
C486 C481 1.429 . S
C486 C485 1.347 . S
H487 C488 0.951 . S
C488 H487 0.951 . S
C488 C494 1.265 1_455 S
H489 C494 0.950 . S
H490 C498 0.936 1_554 S
H491 C499 0.950 . S
H492 C500 0.951 . S
H493 C501 0.951 . S
C494 C488 1.265 1_655 S
C494 H489 0.950 . S
C494 C495 1.478 1_655 S
C495 C482 1.394 1_556 S
C495 C494 1.478 1_455 S
C495 C496 1.397 1_565 S
C496 C495 1.397 1_545 S
C496 C497 1.438 . S
C496 C501 1.429 1_455 S
C497 C480 1.394 1_556 S
C497 C496 1.438 . S
C497 C498 1.428 . S
C498 H490 0.936 1_556 S
C498 C497 1.428 . S
C498 C499 1.345 . S
C499 H491 0.950 . S
C499 C498 1.345 . S
C499 C500 1.424 1_455 S
C500 H492 0.951 . S
C500 C499 1.424 1_655 S
C500 C501 1.347 . S
C501 H493 0.951 . S
C501 C496 1.429 1_655 S
C501 C500 1.347 . S
H502 C503 0.951 1_655 S
C503 H502 0.951 1_455 S
C503 C509 1.265 . S
H504 C509 0.950 . S
H505 C513 0.949 . S
H506 C514 0.950 . S
H507 C515 0.951 . S
H508 C516 0.951 . S
C509 C503 1.265 . S
C509 H504 0.950 . S
C509 C510 1.478 . S
C510 C509 1.478 . S
C510 C511 1.397 1_556 S
C510 C527 1.394 . S
C511 C510 1.397 1_554 S
C511 C512 1.438 . S
C511 C516 1.429 . S
C512 C511 1.438 . S
C512 C513 1.428 . S
C512 C525 1.394 . S
C513 H505 0.949 . S
C513 C512 1.428 . S
C513 C514 1.345 . S
C514 H506 0.950 . S
C514 C513 1.345 . S
C514 C515 1.424 . S
C515 H507 0.951 . S
C515 C514 1.424 . S
C515 C516 1.347 . S
C516 H508 0.951 . S
C516 C511 1.429 . S
C516 C515 1.347 . S
H517 C518 0.951 . S
C518 H517 0.951 . S
C518 C524 1.265 . S
H519 C524 0.950 1_655 S
H520 C528 0.949 . S
H521 C529 0.950 . S
H522 C530 0.951 . S
H523 C531 0.951 . S
C524 C518 1.265 . S
C524 H519 0.950 1_455 S
C524 C525 1.478 . S
C525 C512 1.394 . S
C525 C524 1.478 . S
C525 C526 1.397 1_554 S
C526 C525 1.397 1_556 S
C526 C527 1.438 . S
C526 C531 1.429 . S
C527 C510 1.394 . S
C527 C526 1.438 . S
C527 C528 1.428 . S
C528 H520 0.949 . S
C528 C527 1.428 . S
C528 C529 1.345 . S
C529 H521 0.950 . S
C529 C528 1.345 . S
C529 C530 1.424 . S
C530 H522 0.951 . S
C530 C529 1.424 . S
C530 C531 1.347 . S
C531 H523 0.951 . S
C531 C526 1.429 . S
C531 C530 1.347 . S
H532 C533 0.951 . S
C533 H532 0.951 . S
C533 C539 1.265 . S
H534 C539 0.950 . S
H535 C543 0.949 . S
H536 C544 0.950 . S
H537 C545 0.951 . S
H538 C546 0.951 . S
C539 C533 1.265 . S
C539 H534 0.950 . S
C539 C540 1.478 . S
C540 C539 1.478 . S
C540 C541 1.397 . S
C540 C557 1.394 . S
C541 C540 1.397 . S
C541 C542 1.438 . S
C541 C546 1.429 . S
C542 C541 1.438 . S
C542 C543 1.428 . S
C542 C555 1.394 . S
C543 H535 0.949 . S
C543 C542 1.428 . S
C543 C544 1.345 . S
C544 H536 0.950 . S
C544 C543 1.345 . S
C544 C545 1.424 . S
C545 H537 0.951 . S
C545 C544 1.424 . S
C545 C546 1.347 . S
C546 H538 0.951 . S
C546 C541 1.429 . S
C546 C545 1.347 . S
H547 C548 0.951 . S
C548 H547 0.951 . S
C548 C554 1.265 . S
H549 C554 0.950 . S
H550 C558 0.949 . S
H551 C559 0.950 . S
H552 C560 0.951 . S
H553 C561 0.951 . S
C554 C548 1.265 . S
C554 H549 0.950 . S
C554 C555 1.478 . S
C555 C542 1.394 . S
C555 C554 1.478 . S
C555 C556 1.397 . S
C556 C555 1.397 . S
C556 C557 1.438 . S
C556 C561 1.429 . S
C557 C540 1.394 . S
C557 C556 1.438 . S
C557 C558 1.428 . S
C558 H550 0.949 . S
C558 C557 1.428 . S
C558 C559 1.345 . S
C559 H551 0.950 . S
C559 C558 1.345 . S
C559 C560 1.424 . S
C560 H552 0.951 . S
C560 C559 1.424 . S
C560 C561 1.347 . S
C561 H553 0.951 . S
C561 C556 1.429 . S
C561 C560 1.347 . S
H562 C563 0.951 . S
C563 H562 0.951 . S
C563 C569 1.265 . S
H564 C569 0.950 . S
H565 C573 0.949 . S
H566 C574 0.950 . S
H567 C575 0.951 . S
H568 C576 0.951 . S
C569 C563 1.265 . S
C569 H564 0.950 . S
C569 C570 1.478 . S
C570 C569 1.478 . S
C570 C571 1.397 . S
C570 C587 1.394 . S
C571 C570 1.397 . S
C571 C572 1.438 1_565 S
C571 C576 1.429 . S
C572 C571 1.438 1_545 S
C572 C573 1.428 . S
C572 C585 1.394 . S
C573 H565 0.949 . S
C573 C572 1.428 . S
C573 C574 1.345 . S
C574 H566 0.950 . S
C574 C573 1.345 . S
C574 C575 1.424 . S
C575 H567 0.951 . S
C575 C574 1.424 . S
C575 C576 1.347 1_545 S
C576 H568 0.951 . S
C576 C571 1.429 . S
C576 C575 1.347 1_565 S
H577 C578 0.951 . S
C578 H577 0.951 . S
C578 C584 1.265 . S
H579 C584 0.950 . S
H580 C588 0.949 . S
H581 C589 0.950 . S
H582 C590 0.951 . S
H583 C591 0.951 . S
C584 C578 1.265 . S
C584 H579 0.950 . S
C584 C585 1.478 . S
C585 C572 1.394 . S
C585 C584 1.478 . S
C585 C586 1.397 . S
C586 C585 1.397 . S
C586 C587 1.438 1_545 S
C586 C591 1.429 . S
C587 C570 1.394 . S
C587 C586 1.438 1_565 S
C587 C588 1.428 . S
C588 H580 0.949 . S
C588 C587 1.428 . S
C588 C589 1.345 . S
C589 H581 0.950 . S
C589 C588 1.345 . S
C589 C590 1.424 . S
C590 H582 0.951 . S
C590 C589 1.424 . S
C590 C591 1.347 1_565 S
C591 H583 0.951 . S
C591 C586 1.429 . S
C591 C590 1.347 1_545 S
C113 C19 1.430 . S
C128 C5 1.430 . S
C143 C33 1.429 . S
C158 C47 1.430 . S
C173 C61 1.431 . S
C188 C75 1.429 . S
C203 C89 1.427 . S
C218 C103 1.432 . S
C233 C98 1.411 . S
C248 C0 1.413 . S
C263 C84 1.395 . S
C278 C14 1.404 . S
C293 C28 1.418 . S
C308 C70 1.405 . S
C323 C56 1.406 . S
C338 C42 1.394 . S
C353 C79 1.422 . S
C368 C37 1.419 . S
C383 C65 1.420 . S
C398 C51 1.421 . S
C413 C107 1.385 . S
C428 C9 1.385 . S
C443 C23 1.384 . S
C458 C93 1.386 . S
C473 C11 1.365 . S
C488 C39 1.373 . S
C503 C53 1.377 . S
C518 C25 1.370 . S
C533 C95 1.364 . S
C548 C67 1.371 . S
C563 C81 1.364 . S
C578 C109 1.362 . S
