# Generated by pormake.
# Topology skb, (5)-cn, num edge types: 1
# Building blocks:
#     Node 0, Type 0, BuildingBlock: BEQFEK_clean_sbu_0, # of connection points: 5
#     Node 1, Type 0, BuildingBlock: BEQFEK_clean_sbu_0, # of connection points: 5
#     Node 2, Type 0, BuildingBlock: BEQFEK_clean_sbu_0, # of connection points: 5
#     Node 3, Type 0, BuildingBlock: BEQFEK_clean_sbu_0, # of connection points: 5
#     Node 4, Type 0, BuildingBlock: BEQFEK_clean_sbu_0, # of connection points: 5
#     Node 5, Type 0, BuildingBlock: BEQFEK_clean_sbu_0, # of connection points: 5
#     Node 6, Type 0, BuildingBlock: BEQFEK_clean_sbu_0, # of connection points: 5
#     Node 7, Type 0, BuildingBlock: BEQFEK_clean_sbu_0, # of connection points: 5
#     Node 8, Type 0, BuildingBlock: BEQFEK_clean_sbu_0, # of connection points: 5
#     Node 9, Type 0, BuildingBlock: BEQFEK_clean_sbu_0, # of connection points: 5
#     Node 10, Type 0, BuildingBlock: BEQFEK_clean_sbu_0, # of connection points: 5
#     Node 11, Type 0, BuildingBlock: BEQFEK_clean_sbu_0, # of connection points: 5
#     Node 12, Type 0, BuildingBlock: BEQFEK_clean_sbu_0, # of connection points: 5
#     Node 13, Type 0, BuildingBlock: BEQFEK_clean_sbu_0, # of connection points: 5
#     Node 14, Type 0, BuildingBlock: BEQFEK_clean_sbu_0, # of connection points: 5
#     Node 15, Type 0, BuildingBlock: BEQFEK_clean_sbu_0, # of connection points: 5
#     Edge 16, Type (0, 0), BuildingBlock: TEMPAE_clean_linker_10, # of connection points: 2
#     Edge 17, Type (0, 0), BuildingBlock: TEMPAE_clean_linker_10, # of connection points: 2
#     Edge 18, Type (0, 0), BuildingBlock: TEMPAE_clean_linker_10, # of connection points: 2
#     Edge 19, Type (0, 0), BuildingBlock: TEMPAE_clean_linker_10, # of connection points: 2
#     Edge 20, Type (0, 0), BuildingBlock: TEMPAE_clean_linker_10, # of connection points: 2
#     Edge 21, Type (0, 0), BuildingBlock: TEMPAE_clean_linker_10, # of connection points: 2
#     Edge 22, Type (0, 0), BuildingBlock: TEMPAE_clean_linker_10, # of connection points: 2
#     Edge 23, Type (0, 0), BuildingBlock: TEMPAE_clean_linker_10, # of connection points: 2
#     Edge 24, Type (0, 0), BuildingBlock: TEMPAE_clean_linker_10, # of connection points: 2
#     Edge 25, Type (0, 0), BuildingBlock: TEMPAE_clean_linker_10, # of connection points: 2
#     Edge 26, Type (0, 0), BuildingBlock: TEMPAE_clean_linker_10, # of connection points: 2
#     Edge 27, Type (0, 0), BuildingBlock: TEMPAE_clean_linker_10, # of connection points: 2
#     Edge 28, Type (0, 0), BuildingBlock: TEMPAE_clean_linker_10, # of connection points: 2
#     Edge 29, Type (0, 0), BuildingBlock: TEMPAE_clean_linker_10, # of connection points: 2
#     Edge 30, Type (0, 0), BuildingBlock: TEMPAE_clean_linker_10, # of connection points: 2
#     Edge 31, Type (0, 0), BuildingBlock: TEMPAE_clean_linker_10, # of connection points: 2
#     Edge 32, Type (0, 0), BuildingBlock: TEMPAE_clean_linker_10, # of connection points: 2
#     Edge 33, Type (0, 0), BuildingBlock: TEMPAE_clean_linker_10, # of connection points: 2
#     Edge 34, Type (0, 0), BuildingBlock: TEMPAE_clean_linker_10, # of connection points: 2
#     Edge 35, Type (0, 0), BuildingBlock: TEMPAE_clean_linker_10, # of connection points: 2
#     Edge 36, Type (0, 0), BuildingBlock: TEMPAE_clean_linker_10, # of connection points: 2
#     Edge 37, Type (0, 0), BuildingBlock: TEMPAE_clean_linker_10, # of connection points: 2
#     Edge 38, Type (0, 0), BuildingBlock: TEMPAE_clean_linker_10, # of connection points: 2
#     Edge 39, Type (0, 0), BuildingBlock: TEMPAE_clean_linker_10, # of connection points: 2
#     Edge 40, Type (0, 0), BuildingBlock: TEMPAE_clean_linker_10, # of connection points: 2
#     Edge 41, Type (0, 0), BuildingBlock: TEMPAE_clean_linker_10, # of connection points: 2
#     Edge 42, Type (0, 0), BuildingBlock: TEMPAE_clean_linker_10, # of connection points: 2
#     Edge 43, Type (0, 0), BuildingBlock: TEMPAE_clean_linker_10, # of connection points: 2
#     Edge 44, Type (0, 0), BuildingBlock: TEMPAE_clean_linker_10, # of connection points: 2
#     Edge 45, Type (0, 0), BuildingBlock: TEMPAE_clean_linker_10, # of connection points: 2
#     Edge 46, Type (0, 0), BuildingBlock: TEMPAE_clean_linker_10, # of connection points: 2
#     Edge 47, Type (0, 0), BuildingBlock: TEMPAE_clean_linker_10, # of connection points: 2
#     Edge 48, Type (0, 0), BuildingBlock: TEMPAE_clean_linker_10, # of connection points: 2
#     Edge 49, Type (0, 0), BuildingBlock: TEMPAE_clean_linker_10, # of connection points: 2
#     Edge 50, Type (0, 0), BuildingBlock: TEMPAE_clean_linker_10, # of connection points: 2
#     Edge 51, Type (0, 0), BuildingBlock: TEMPAE_clean_linker_10, # of connection points: 2
#     Edge 52, Type (0, 0), BuildingBlock: TEMPAE_clean_linker_10, # of connection points: 2
#     Edge 53, Type (0, 0), BuildingBlock: TEMPAE_clean_linker_10, # of connection points: 2
#     Edge 54, Type (0, 0), BuildingBlock: TEMPAE_clean_linker_10, # of connection points: 2
#     Edge 55, Type (0, 0), BuildingBlock: TEMPAE_clean_linker_10, # of connection points: 2
# Relax obj value: 0.050
# Max RMSD: 0.094
# Mean RMSD: 0.094
data_MOF--net-skb--node1-BEQFEK_clean_sbu_0--edge1-TEMPAE_clean_linker_10
_symmetry_space_group_name_H-M    P1
_symmetry_Int_Tables_number       1
_symmetry_cell_setting            triclinic
loop_
_symmetry_equiv_pos_as_xyz
'x, y, z'
_cell_length_a     40.845301
_cell_length_b     30.881366
_cell_length_c     77.407502
_cell_angle_alpha  90.003806
_cell_angle_beta   90.033747
_cell_angle_gamma 90.009157
loop_
_atom_site_label
_atom_site_type_symbol
_atom_site_fract_x
_atom_site_fract_y
_atom_site_fract_z
_atom_type_partial_charge
Co0 Co 0.18736 0.03991 0.1032 0.0
Co1 Co 0.18174 0.03685 0.14381 0.0
C2 C 0.2074 0.11515 0.12495 0.0
O3 O 0.20594 0.09643 0.11032 0.0
O4 O 0.19792 0.09633 0.13869 0.0
C5 C 0.22019 0.03791 0.06986 0.0
O6 O 0.24734 0.04269 0.07875 0.0
C7 C 0.20485 0.03802 0.18023 0.0
C8 C 0.16299 0.00733 0.19347 0.0
C9 C 0.19374 0.02487 0.19649 0.0
N10 N 0.18183 0.02811 0.16838 0.0
N11 N 0.15686 0.00998 0.17644 0.0
C12 C 0.23617 0.06066 0.17586 0.0
H13 H 0.23453 0.07661 0.1631 0.0
H14 H 0.25625 0.03654 0.17518 0.0
H15 H 0.24223 0.08513 0.18586 0.0
C16 C 0.21956 0.95477 0.10984 0.0
N17 N 0.20749 0.99305 0.11532 0.0
N18 N 0.20611 0.99276 0.13233 0.0
C19 C 0.21742 0.95444 0.13819 0.0
C20 C 0.22633 0.92907 0.12414 0.0
C21 C 0.2226 0.94216 0.09122 0.0
H22 H 0.19983 0.95073 0.08419 0.0
H23 H 0.24318 0.96032 0.08539 0.0
H24 H 0.22781 0.90721 0.08956 0.0
O25 O 0.13929 0.03851 0.10754 0.0
O26 O 0.13589 0.03167 0.1361 0.0
H27 H 0.18872 0.94242 0.16076 0.0
H28 H 0.22272 0.90592 0.15839 0.0
C29 C 0.21459 0.93985 0.15658 0.0
H30 H 0.22962 0.96125 0.1649 0.0
H31 H 0.13563 0.99919 0.17028 0.0
O32 O 0.19292 0.03532 0.07769 0.0
C33 C 0.1225 0.03364 0.12127 0.0
Co34 Co 0.8124 0.99773 0.10307 0.0
Co35 Co 0.81857 0.99979 0.14363 0.0
C36 C 0.79042 0.92313 0.1247 0.0
O37 O 0.79285 0.94165 0.11007 0.0
O38 O 0.79992 0.94164 0.13853 0.0
C39 C 0.77988 0.99981 0.06951 0.0
O40 O 0.7527 0.99331 0.07819 0.0
C41 C 0.7947 0.00093 0.17957 0.0
C42 C 0.83908 0.02102 0.19378 0.0
C43 C 0.80653 0.00961 0.19613 0.0
N44 N 0.81916 0.00693 0.16819 0.0
N45 N 0.84564 0.01873 0.17678 0.0
C46 C 0.7605 0.98984 0.17424 0.0
H47 H 0.75662 0.99786 0.16041 0.0
H48 H 0.74248 0.00754 0.18232 0.0
H49 H 0.75655 0.95454 0.17589 0.0
C50 C 0.78111 0.08336 0.11006 0.0
N51 N 0.79325 0.04503 0.11543 0.0
N52 N 0.7956 0.04553 0.13242 0.0
C53 C 0.78534 0.08429 0.13835 0.0
C54 C 0.77567 0.10952 0.1244 0.0
C55 C 0.77605 0.09512 0.09148 0.0
H56 H 0.79877 0.08867 0.08407 0.0
H57 H 0.75626 0.0747 0.08609 0.0
H58 H 0.76866 0.12936 0.08978 0.0
O59 O 0.86064 0.99743 0.10729 0.0
O60 O 0.86433 0.00247 0.13589 0.0
H61 H 0.8146 0.09067 0.16118 0.0
H62 H 0.78639 0.13468 0.15795 0.0
C63 C 0.78971 0.09921 0.15662 0.0
H64 H 0.77162 0.08256 0.16498 0.0
H65 H 0.86817 0.02549 0.17103 0.0
O66 O 0.80691 0.0033 0.07755 0.0
C67 C 0.87761 0.00078 0.12104 0.0
Co68 Co 0.18519 0.99541 0.90731 0.0
Co69 Co 0.18406 0.99731 0.86654 0.0
C70 C 0.20833 0.92001 0.88601 0.0
O71 O 0.205 0.93909 0.90048 0.0
O72 O 0.20029 0.93829 0.8719 0.0
C73 C 0.21795 0.00581 0.94024 0.0
O74 O 0.24448 0.01026 0.93082 0.0
C75 C 0.20574 0.99395 0.82964 0.0
C76 C 0.16779 0.0349 0.81753 0.0
C77 C 0.19576 0.01125 0.81385 0.0
N78 N 0.18484 0.00746 0.84201 0.0
N79 N 0.16217 0.03168 0.83459 0.0
C80 C 0.23393 0.96407 0.8329 0.0
H81 H 0.22909 0.9431 0.84417 0.0
H82 H 0.25614 0.98354 0.83572 0.0
H83 H 0.23872 0.9434 0.82145 0.0
C84 C 0.21479 0.08245 0.90103 0.0
N85 N 0.2051 0.04296 0.89555 0.0
N86 N 0.20747 0.04141 0.87858 0.0
C87 C 0.22008 0.0791 0.87284 0.0
C88 C 0.22483 0.1066 0.88683 0.0
C89 C 0.20891 0.09948 0.91888 0.0
H90 H 0.18873 0.0815 0.9252 0.0
H91 H 0.23157 0.09579 0.92665 0.0
H92 H 0.20256 0.13441 0.91853 0.0
O93 O 0.13759 0.99545 0.90214 0.0
O94 O 0.13748 0.00166 0.87348 0.0
H95 H 0.20294 0.09718 0.84776 0.0
H96 H 0.2435 0.11679 0.8528 0.0
C97 C 0.2264 0.0891 0.85423 0.0
H98 H 0.23715 0.06042 0.84779 0.0
H99 H 0.14291 0.04635 0.84124 0.0
O100 O 0.19049 0.99986 0.93286 0.0
C101 C 0.12239 0.99969 0.88786 0.0
Co102 Co 0.81477 0.04355 0.9069 0.0
Co103 Co 0.81582 0.04008 0.86602 0.0
C104 C 0.79223 0.11827 0.88518 0.0
O105 O 0.79544 0.09975 0.89977 0.0
O106 O 0.80013 0.0994 0.87118 0.0
C107 C 0.78215 0.03488 0.93996 0.0
O108 O 0.75548 0.03097 0.93059 0.0
C109 C 0.79307 0.04265 0.82923 0.0
C110 C 0.83054 0.00132 0.81695 0.0
C111 C 0.80249 0.02496 0.81339 0.0
N112 N 0.81435 0.02936 0.84148 0.0
N113 N 0.83674 0.00491 0.83396 0.0
C114 C 0.76503 0.07266 0.83263 0.0
H115 H 0.76998 0.09332 0.84398 0.0
H116 H 0.74275 0.05329 0.83538 0.0
H117 H 0.7603 0.09363 0.82126 0.0
C118 C 0.7841 0.95715 0.90115 0.0
N119 N 0.79431 0.99612 0.89539 0.0
N120 N 0.79216 0.99683 0.8784 0.0
C121 C 0.77931 0.95904 0.87292 0.0
C122 C 0.77401 0.93252 0.88712 0.0
C123 C 0.78964 0.94075 0.91913 0.0
H124 H 0.81012 0.95839 0.92536 0.0
H125 H 0.76702 0.9454 0.92683 0.0
H126 H 0.7954 0.90563 0.91906 0.0
O127 O 0.86228 0.04255 0.90156 0.0
O128 O 0.86246 0.03542 0.87293 0.0
H129 H 0.7975 0.93983 0.8482 0.0
H130 H 0.75711 0.91942 0.85307 0.0
C131 C 0.77373 0.94767 0.85436 0.0
H132 H 0.76273 0.97564 0.84754 0.0
H133 H 0.85619 0.99034 0.84049 0.0
O134 O 0.80965 0.03997 0.93252 0.0
C135 C 0.87751 0.03768 0.88733 0.0
Co136 Co 0.17939 0.54237 0.60374 0.0
Co137 Co 0.18107 0.54072 0.64434 0.0
C138 C 0.20605 0.61693 0.62442 0.0
O139 O 0.19867 0.59926 0.61007 0.0
O140 O 0.20119 0.59772 0.63876 0.0
C141 C 0.20831 0.53918 0.56956 0.0
O142 O 0.23587 0.54797 0.57759 0.0
C143 C 0.20668 0.54133 0.6801 0.0
C144 C 0.16482 0.51349 0.69433 0.0
C145 C 0.19616 0.52987 0.69665 0.0
N146 N 0.18264 0.53203 0.66879 0.0
N147 N 0.15768 0.51558 0.67741 0.0
C148 C 0.23948 0.55801 0.67464 0.0
H149 H 0.2434 0.55207 0.66064 0.0
H150 H 0.25925 0.54214 0.68217 0.0
H151 H 0.24054 0.59346 0.67689 0.0
C152 C 0.21031 0.45613 0.60921 0.0
N153 N 0.2001 0.49489 0.61519 0.0
N154 N 0.20169 0.49478 0.63219 0.0
C155 C 0.21337 0.45622 0.63754 0.0
C156 C 0.21912 0.43034 0.62317 0.0
C157 C 0.20693 0.4419 0.5908 0.0
H158 H 0.18384 0.45467 0.58526 0.0
H159 H 0.22774 0.45495 0.58322 0.0
H160 H 0.20691 0.4061 0.58963 0.0
O161 O 0.13245 0.54265 0.60955 0.0
O162 O 0.13377 0.54014 0.63824 0.0
H163 H 0.19287 0.44128 0.66224 0.0
H164 H 0.23043 0.41245 0.65753 0.0
C165 C 0.21733 0.4437 0.6561 0.0
H166 H 0.23148 0.46902 0.66293 0.0
H167 H 0.13578 0.50561 0.67171 0.0
O168 O 0.18209 0.53564 0.57828 0.0
C169 C 0.11793 0.54103 0.62407 0.0
Co170 Co 0.81161 0.49446 0.60208 0.0
Co171 Co 0.81116 0.49783 0.64296 0.0
C172 C 0.78867 0.41949 0.62363 0.0
O173 O 0.7923 0.43807 0.60908 0.0
O174 O 0.79595 0.43835 0.63773 0.0
C175 C 0.77997 0.50349 0.56871 0.0
O176 O 0.75308 0.50793 0.57784 0.0
C177 C 0.78836 0.49546 0.67974 0.0
C178 C 0.82579 0.53716 0.6919 0.0
C179 C 0.7979 0.51328 0.69554 0.0
N180 N 0.80946 0.50885 0.66744 0.0
N181 N 0.8318 0.53355 0.67489 0.0
C182 C 0.76044 0.4652 0.67641 0.0
H183 H 0.76518 0.44498 0.66491 0.0
H184 H 0.73794 0.48436 0.67394 0.0
H185 H 0.7562 0.44385 0.68773 0.0
C186 C 0.78069 0.58085 0.60762 0.0
N187 N 0.79057 0.54175 0.61342 0.0
N188 N 0.78772 0.54084 0.63038 0.0
C189 C 0.77475 0.57859 0.63578 0.0
C190 C 0.77011 0.60533 0.62159 0.0
C191 C 0.78705 0.59753 0.58976 0.0
H192 H 0.80759 0.57971 0.5837 0.0
H193 H 0.76468 0.59338 0.58181 0.0
H194 H 0.79308 0.63257 0.59003 0.0
O195 O 0.85899 0.49591 0.60783 0.0
O196 O 0.8578 0.503 0.63646 0.0
H197 H 0.79221 0.59791 0.66065 0.0
H198 H 0.75188 0.61801 0.65546 0.0
C199 C 0.76863 0.58986 0.6543 0.0
H200 H 0.75758 0.5618 0.66103 0.0
H201 H 0.85114 0.54823 0.66831 0.0
O202 O 0.8072 0.49797 0.57639 0.0
C203 C 0.87351 0.50098 0.62228 0.0
Co204 Co 0.18646 0.49742 0.40571 0.0
Co205 Co 0.18085 0.49804 0.36523 0.0
C206 C 0.20786 0.42159 0.38432 0.0
O207 O 0.20227 0.43906 0.39892 0.0
O208 O 0.20196 0.44134 0.37022 0.0
C209 C 0.19574 0.47564 0.44174 0.0
O210 O 0.19305 0.43544 0.43637 0.0
C211 C 0.20572 0.50148 0.32969 0.0
C212 C 0.16137 0.51909 0.31494 0.0
C213 C 0.1944 0.50976 0.31303 0.0
N214 N 0.18053 0.5056 0.34074 0.0
N215 N 0.15408 0.51599 0.33184 0.0
C216 C 0.24005 0.49253 0.33542 0.0
H217 H 0.24324 0.50159 0.34919 0.0
H218 H 0.25781 0.51062 0.32732 0.0
H219 H 0.24507 0.45736 0.33416 0.0
C220 C 0.22085 0.57931 0.39882 0.0
N221 N 0.20743 0.54216 0.39314 0.0
N222 N 0.20308 0.54454 0.37633 0.0
C223 C 0.21263 0.58404 0.37083 0.0
C224 C 0.22423 0.60754 0.38494 0.0
C225 C 0.22899 0.58795 0.41736 0.0
H226 H 0.24054 0.55886 0.42314 0.0
H227 H 0.24599 0.61579 0.41869 0.0
H228 H 0.20611 0.5949 0.42457 0.0
O229 O 0.13869 0.50199 0.40172 0.0
O230 O 0.13462 0.49725 0.3731 0.0
H231 H 0.20564 0.63688 0.35271 0.0
H232 H 0.22506 0.58905 0.3441 0.0
C233 C 0.20588 0.601 0.35305 0.0
H234 H 0.18183 0.58902 0.34846 0.0
H235 H 0.13108 0.52122 0.33732 0.0
O236 O 0.19378 0.50629 0.43084 0.0
C237 C 0.12154 0.50047 0.38798 0.0
Co238 Co 0.81164 0.53912 0.40539 0.0
Co239 Co 0.81854 0.53886 0.36476 0.0
C240 C 0.78885 0.61385 0.38385 0.0
O241 O 0.79202 0.59537 0.39846 0.0
O242 O 0.79815 0.59566 0.36994 0.0
C243 C 0.77936 0.53736 0.43905 0.0
O244 O 0.75224 0.54531 0.4305 0.0
C245 C 0.79389 0.53684 0.32899 0.0
C246 C 0.8382 0.5186 0.31437 0.0
C247 C 0.80531 0.52863 0.31233 0.0
N248 N 0.81887 0.53192 0.34016 0.0
N249 N 0.84531 0.52122 0.33132 0.0
C250 C 0.75958 0.54634 0.33459 0.0
H251 H 0.7562 0.53748 0.34838 0.0
H252 H 0.74176 0.5284 0.32647 0.0
H253 H 0.75486 0.58155 0.33325 0.0
C254 C 0.78134 0.45368 0.39804 0.0
N255 N 0.79317 0.49223 0.39278 0.0
N256 N 0.79675 0.49159 0.37586 0.0
C257 C 0.78769 0.45234 0.36987 0.0
C258 C 0.77757 0.427 0.38371 0.0
C259 C 0.77497 0.4423 0.41654 0.0
H260 H 0.75616 0.4645 0.42176 0.0
H261 H 0.76572 0.40881 0.4181 0.0
H262 H 0.79773 0.44658 0.42418 0.0
O263 O 0.85973 0.53879 0.40122 0.0
O264 O 0.86452 0.54022 0.37258 0.0
H265 H 0.81804 0.44772 0.34738 0.0
H266 H 0.79167 0.40167 0.35051 0.0
C267 C 0.79341 0.43737 0.35171 0.0
H268 H 0.77493 0.45241 0.3431 0.0
H269 H 0.86817 0.51541 0.33687 0.0
O270 O 0.80617 0.53288 0.43091 0.0
C271 C 0.87724 0.53941 0.38759 0.0
Co272 Co 0.68307 0.03702 0.60248 0.0
Co273 Co 0.68215 0.03501 0.64332 0.0
C274 C 0.70807 0.11124 0.62441 0.0
O275 O 0.70297 0.09304 0.60988 0.0
O276 O 0.70093 0.09265 0.63858 0.0
C277 C 0.71561 0.028 0.5693 0.0
O278 O 0.7423 0.02294 0.57856 0.0
C279 C 0.70456 0.03748 0.67973 0.0
C280 C 0.66843 0.99442 0.69222 0.0
C281 C 0.69603 0.01917 0.69551 0.0
N282 N 0.683 0.02401 0.66771 0.0
N283 N 0.66129 0.99868 0.67533 0.0
C284 C 0.73418 0.06414 0.67575 0.0
H285 H 0.74217 0.05845 0.66224 0.0
H286 H 0.75451 0.05642 0.68477 0.0
H287 H 0.7279 0.09892 0.67716 0.0
C288 C 0.71239 0.95011 0.60827 0.0
N289 N 0.70263 0.98929 0.614 0.0
N290 N 0.70425 0.98991 0.63101 0.0
C291 C 0.71645 0.95176 0.63653 0.0
C292 C 0.72176 0.9252 0.62234 0.0
C293 C 0.7071 0.93394 0.59023 0.0
H294 H 0.68703 0.95208 0.58388 0.0
H295 H 0.72998 0.93811 0.5827 0.0
H296 H 0.70088 0.89895 0.59024 0.0
O297 O 0.63565 0.03576 0.60771 0.0
O298 O 0.63527 0.0355 0.63647 0.0
H299 H 0.6979 0.93255 0.66117 0.0
H300 H 0.73817 0.91177 0.6564 0.0
C301 C 0.72178 0.94023 0.65509 0.0
H302 H 0.73291 0.968 0.66199 0.0
H303 H 0.64199 0.98348 0.6689 0.0
O304 O 0.68829 0.03377 0.57683 0.0
C305 C 0.62029 0.03524 0.62203 0.0
Co306 Co 0.31337 1.00045 0.60265 0.0
Co307 Co 0.31213 0.00178 0.64329 0.0
C308 C 0.28888 0.92478 0.62433 0.0
O309 O 0.29649 0.94248 0.61001 0.0
O310 O 0.2925 0.94453 0.63862 0.0
C311 C 0.28046 0.00872 0.56968 0.0
O312 O 0.25389 0.01337 0.57906 0.0
C313 C 0.29039 0.99921 0.67977 0.0
C314 C 0.32587 0.04389 0.69192 0.0
C315 C 0.29891 0.01815 0.69543 0.0
N316 N 0.31137 0.01325 0.66759 0.0
N317 N 0.33269 0.03956 0.675 0.0
C318 C 0.26125 0.97136 0.67606 0.0
H319 H 0.2524 0.97717 0.6627 0.0
H320 H 0.24121 0.97781 0.68538 0.0
H321 H 0.2685 0.93683 0.67714 0.0
C322 C 0.28236 0.08664 0.60826 0.0
N323 N 0.29224 0.04748 0.614 0.0
N324 N 0.28995 0.04663 0.63098 0.0
C325 C 0.27702 0.0844 0.63645 0.0
C326 C 0.2721 0.11121 0.62228 0.0
C327 C 0.28843 0.10319 0.59035 0.0
H328 H 0.30883 0.08527 0.58421 0.0
H329 H 0.26593 0.09905 0.5825 0.0
H330 H 0.29455 0.13821 0.59056 0.0
O331 O 0.36026 0.00479 0.60784 0.0
O332 O 0.35952 0.00154 0.63658 0.0
H333 H 0.29364 0.10413 0.66142 0.0
H334 H 0.25296 0.12261 0.6561 0.0
C335 C 0.27037 0.09517 0.65497 0.0
H336 H 0.25985 0.06662 0.66161 0.0
H337 H 0.35151 0.05534 0.66841 0.0
O338 O 0.30795 0.00334 0.57709 0.0
C339 C 0.37502 0.00406 0.62231 0.0
Co340 Co 0.68561 0.99668 0.40572 0.0
Co341 Co 0.68076 0.99929 0.36507 0.0
C342 C 0.70798 0.92226 0.3841 0.0
O343 O 0.70507 0.94057 0.39875 0.0
O344 O 0.69907 0.94102 0.37022 0.0
C345 C 0.71718 0.99738 0.4395 0.0
O346 O 0.74438 0.98994 0.43096 0.0
C347 C 0.70556 0.00086 0.32929 0.0
C348 C 0.66159 0.02154 0.31486 0.0
C349 C 0.69414 0.00994 0.31268 0.0
N350 N 0.68087 0.00684 0.34053 0.0
N351 N 0.65464 0.01899 0.33181 0.0
C352 C 0.73959 0.98942 0.33478 0.0
H353 H 0.74324 0.99728 0.34865 0.0
H354 H 0.75787 0.00702 0.32683 0.0
H355 H 0.74338 0.95409 0.3331 0.0
C356 C 0.71772 0.08197 0.39916 0.0
N357 N 0.70542 0.04389 0.3936 0.0
N358 N 0.70347 0.04472 0.3766 0.0
C359 C 0.71403 0.0835 0.37085 0.0
C360 C 0.72356 0.10838 0.38494 0.0
C361 C 0.72263 0.0932 0.41781 0.0
H362 H 0.74165 0.0717 0.42329 0.0
H363 H 0.73096 0.12702 0.41964 0.0
H364 H 0.69953 0.08776 0.42503 0.0
O365 O 0.6375 0.99678 0.40103 0.0
O366 O 0.63481 0.002 0.3724 0.0
H367 H 0.68525 0.09026 0.34787 0.0
H368 H 0.71326 0.13431 0.35141 0.0
C369 C 0.71002 0.0988 0.35261 0.0
H370 H 0.72833 0.08241 0.3443 0.0
H371 H 0.63202 0.02581 0.33743 0.0
O372 O 0.6904 0.00194 0.43131 0.0
C373 C 0.62101 1.00027 0.38711 0.0
Co374 Co 0.3133 0.04033 0.40693 0.0
Co375 Co 0.31437 0.03485 0.3663 0.0
C376 C 0.29026 0.11394 0.38451 0.0
O377 O 0.29617 0.0972 0.39921 0.0
O378 O 0.29551 0.0933 0.37055 0.0
C379 C 0.28086 0.04059 0.44012 0.0
O380 O 0.25387 0.04401 0.43098 0.0
C381 C 0.29141 0.03584 0.33011 0.0
C382 C 0.32871 0.99509 0.31734 0.0
C383 C 0.30028 0.01828 0.31428 0.0
N384 N 0.31355 0.02343 0.34199 0.0
N385 N 0.33599 0.99954 0.33421 0.0
C386 C 0.26124 0.06129 0.3342 0.0
H387 H 0.25341 0.05498 0.3477 0.0
H388 H 0.2411 0.0531 0.32514 0.0
H389 H 0.26681 0.09632 0.33294 0.0
C390 C 0.28078 0.95446 0.40197 0.0
N391 N 0.29209 0.9925 0.39579 0.0
N392 N 0.29168 0.99112 0.37877 0.0
C393 C 0.27966 0.95255 0.37362 0.0
C394 C 0.27245 0.92792 0.38813 0.0
C395 C 0.27983 0.9429 0.42076 0.0
H396 H 0.3029 0.95315 0.42713 0.0
H397 H 0.25919 0.96023 0.42694 0.0
H398 H 0.27588 0.90783 0.42289 0.0
O399 O 0.36067 0.03783 0.40197 0.0
O400 O 0.36115 0.03266 0.3733 0.0
H401 H 0.30574 0.93501 0.35079 0.0
H402 H 0.26859 0.90493 0.3537 0.0
C403 C 0.28004 0.93719 0.35526 0.0
H404 H 0.2669 0.9608 0.34701 0.0
H405 H 0.35595 0.98551 0.34051 0.0
O406 O 0.30832 0.03805 0.43248 0.0
C407 C 0.37605 0.03415 0.38775 0.0
Co408 Co 0.6873 0.53945 0.10329 0.0
Co409 Co 0.67868 0.53985 0.14378 0.0
C410 C 0.70886 0.61482 0.12487 0.0
O411 O 0.70626 0.59607 0.11028 0.0
O412 O 0.69913 0.59674 0.13872 0.0
C413 C 0.72087 0.53831 0.07 0.0
O414 O 0.74754 0.54716 0.07881 0.0
C415 C 0.70234 0.53798 0.17971 0.0
C416 C 0.65754 0.52059 0.19408 0.0
C417 C 0.69048 0.53013 0.19631 0.0
N418 N 0.67756 0.53333 0.1684 0.0
N419 N 0.65083 0.52314 0.17709 0.0
C420 C 0.73685 0.54684 0.17429 0.0
H421 H 0.74041 0.53798 0.16052 0.0
H422 H 0.75432 0.52852 0.1825 0.0
H423 H 0.74195 0.58196 0.17569 0.0
C424 C 0.71784 0.45454 0.11116 0.0
N425 N 0.70556 0.49301 0.1162 0.0
N426 N 0.70117 0.49251 0.13308 0.0
C427 C 0.71012 0.45337 0.13924 0.0
C428 C 0.72104 0.428 0.12556 0.0
C429 C 0.72508 0.44307 0.09276 0.0
H430 H 0.74359 0.46587 0.08764 0.0
H431 H 0.73504 0.40987 0.09141 0.0
H432 H 0.70251 0.44639 0.08489 0.0
O433 O 0.63906 0.53839 0.10686 0.0
O434 O 0.63295 0.54072 0.13543 0.0
H435 H 0.70498 0.40271 0.1585 0.0
H436 H 0.72189 0.45314 0.16613 0.0
C437 C 0.70359 0.43844 0.15732 0.0
H438 H 0.67889 0.44915 0.16141 0.0
H439 H 0.62804 0.5176 0.1714 0.0
O440 O 0.69387 0.533 0.07789 0.0
C441 C 0.62094 0.53926 0.12025 0.0
Co442 Co 0.31007 0.49874 0.10471 0.0
Co443 Co 0.32024 0.49802 0.145 0.0
C444 C 0.28897 0.42334 0.12623 0.0
O445 O 0.29121 0.44215 0.11164 0.0
O446 O 0.29925 0.44125 0.14002 0.0
C447 C 0.2988 0.4774 0.06903 0.0
O448 O 0.30208 0.43745 0.07461 0.0
C449 C 0.29749 0.50053 0.18089 0.0
C450 C 0.34281 0.51628 0.19515 0.0
C451 C 0.30973 0.50783 0.19744 0.0
N452 N 0.3222 0.50437 0.16953 0.0
N453 N 0.34925 0.51361 0.17813 0.0
C454 C 0.26274 0.49293 0.17557 0.0
H455 H 0.25912 0.50227 0.16186 0.0
H456 H 0.24573 0.51155 0.18393 0.0
H457 H 0.25703 0.45794 0.17683 0.0
C458 C 0.27883 0.58205 0.11285 0.0
N459 N 0.29202 0.54425 0.11794 0.0
N460 N 0.29754 0.54549 0.13468 0.0
C461 C 0.28884 0.58487 0.14072 0.0
C462 C 0.27667 0.60943 0.12705 0.0
C463 C 0.26972 0.59207 0.09455 0.0
H464 H 0.25698 0.56386 0.08876 0.0
H465 H 0.25347 0.62079 0.09375 0.0
H466 H 0.2923 0.59822 0.08697 0.0
O467 O 0.3586 0.49951 0.10767 0.0
O468 O 0.3655 0.49703 0.13618 0.0
H469 H 0.29687 0.63654 0.15924 0.0
H470 H 0.27815 0.58809 0.16769 0.0
C471 C 0.29673 0.60068 0.15853 0.0
H472 H 0.32108 0.58848 0.16256 0.0
H473 H 0.37205 0.51841 0.17237 0.0
O474 O 0.30114 0.50845 0.07975 0.0
C475 C 0.37713 0.49847 0.12093 0.0
Co476 Co 0.68766 0.49987 0.90736 0.0
Co477 Co 0.68483 0.50332 0.86665 0.0
C478 C 0.71176 0.42652 0.88488 0.0
O479 O 0.70769 0.44443 0.89955 0.0
O480 O 0.70353 0.44531 0.87092 0.0
C481 C 0.72133 0.50894 0.94026 0.0
O482 O 0.74763 0.5153 0.93084 0.0
C483 C 0.70515 0.50123 0.82996 0.0
C484 C 0.66838 0.54444 0.81806 0.0
C485 C 0.69569 0.51955 0.81433 0.0
N486 N 0.68438 0.51479 0.84232 0.0
N487 N 0.66228 0.54023 0.83506 0.0
C488 C 0.7349 0.47439 0.83345 0.0
H489 H 0.74366 0.4799 0.84685 0.0
H490 H 0.75474 0.48211 0.82416 0.0
H491 H 0.72844 0.43965 0.83209 0.0
C492 C 0.71603 0.58757 0.90156 0.0
N493 N 0.70639 0.54831 0.89584 0.0
N494 N 0.70759 0.54792 0.87882 0.0
C495 C 0.71938 0.58624 0.87327 0.0
C496 C 0.72484 0.61276 0.88746 0.0
C497 C 0.71115 0.60345 0.91966 0.0
H498 H 0.69164 0.58468 0.9262 0.0
H499 H 0.73437 0.59994 0.92696 0.0
H500 H 0.70435 0.63825 0.91975 0.0
O501 O 0.63996 0.5 0.90277 0.0
O502 O 0.63844 0.50358 0.87412 0.0
H503 H 0.70013 0.60593 0.84883 0.0
H504 H 0.74068 0.62626 0.8533 0.0
C505 C 0.72416 0.59794 0.85468 0.0
H506 H 0.73489 0.57015 0.84764 0.0
H507 H 0.64338 0.55544 0.84181 0.0
O508 O 0.6939 0.50251 0.93292 0.0
C509 C 0.62392 0.50221 0.88867 0.0
Co510 Co 0.31473 0.53669 0.90671 0.0
Co511 Co 0.3192 0.53716 0.86614 0.0
C512 C 0.29126 0.61231 0.88578 0.0
O513 O 0.29478 0.59324 0.90026 0.0
O514 O 0.3 0.59453 0.87168 0.0
C515 C 0.28398 0.53346 0.94075 0.0
O516 O 0.25668 0.54371 0.93274 0.0
C517 C 0.29612 0.53967 0.83002 0.0
C518 C 0.33923 0.51419 0.81614 0.0
C519 C 0.30774 0.52977 0.8135 0.0
N520 N 0.31966 0.53027 0.84159 0.0
N521 N 0.34539 0.51526 0.83319 0.0
C522 C 0.26273 0.55487 0.83517 0.0
H523 H 0.25829 0.5481 0.84906 0.0
H524 H 0.24366 0.53866 0.82725 0.0
H525 H 0.26103 0.59037 0.83317 0.0
C526 C 0.28441 0.45129 0.89963 0.0
N527 N 0.29566 0.49006 0.89428 0.0
N528 N 0.29672 0.49055 0.87726 0.0
C529 C 0.28571 0.45219 0.87127 0.0
C530 C 0.27761 0.42595 0.88524 0.0
C531 C 0.285 0.43671 0.91809 0.0
H532 H 0.30763 0.44843 0.92447 0.0
H533 H 0.26364 0.45071 0.92494 0.0
H534 H 0.28403 0.40094 0.91921 0.0
O535 O 0.36246 0.53668 0.90225 0.0
O536 O 0.36554 0.53623 0.87355 0.0
H537 H 0.30965 0.43889 0.84728 0.0
H538 H 0.27199 0.40884 0.8504 0.0
C539 C 0.28441 0.44032 0.85253 0.0
H540 H 0.27078 0.46553 0.84536 0.0
H541 H 0.36714 0.50554 0.83911 0.0
O542 O 0.31014 0.52886 0.93206 0.0
C543 C 0.37903 0.53619 0.88835 0.0
C544 C 0.18984 0.02641 0.22873 0.0
C545 C 0.20952 0.02767 0.21385 0.0
C546 C 0.20364 0.02632 0.24535 0.0
C547 C 0.23805 0.02839 0.24723 0.0
C548 C 0.2581 0.03052 0.23235 0.0
C549 C 0.24367 0.02919 0.21588 0.0
C550 C 0.18142 0.02285 0.26088 0.0
C551 C 0.29492 0.03327 0.23381 0.0
C552 C 0.27296 0.06117 0.29095 0.0
C553 C 0.28309 0.02111 0.29753 0.0
C554 C 0.25836 0.06414 0.27454 0.0
C555 C 0.25316 0.026 0.26473 0.0
C556 C 0.26278 0.98538 0.27155 0.0
C557 C 0.2781 0.98354 0.28776 0.0
C558 C 0.24923 0.10812 0.26753 0.0
C559 C 0.25691 0.94384 0.26173 0.0
H560 H 0.16345 0.02493 0.22742 0.0
H561 H 0.25947 0.02798 0.20474 0.0
H562 H 0.1872 0.99288 0.26818 0.0
H563 H 0.18557 0.05055 0.26973 0.0
H564 H 0.15512 0.02215 0.25723 0.0
H565 H 0.30681 0.03908 0.22112 0.0
H566 H 0.30196 0.05977 0.24276 0.0
H567 H 0.30467 0.00266 0.23926 0.0
H568 H 0.27736 0.09029 0.29842 0.0
H569 H 0.28592 0.95256 0.29291 0.0
H570 H 0.22274 0.10911 0.26441 0.0
H571 H 0.26275 0.11428 0.25534 0.0
H572 H 0.25481 0.1346 0.27679 0.0
H573 H 0.23059 0.94082 0.25838 0.0
H574 H 0.26437 0.91478 0.26922 0.0
H575 H 0.27082 0.94427 0.24943 0.0
C576 C 0.76351 0.98031 0.21643 0.0
C577 C 0.78945 0.00889 0.2131 0.0
C578 C 0.74788 0.97965 0.23261 0.0
C579 C 0.75893 0.00753 0.24592 0.0
C580 C 0.78552 0.0358 0.24276 0.0
C581 C 0.80036 0.03621 0.22642 0.0
C582 C 0.71952 0.9491 0.23546 0.0
C583 C 0.79828 0.06572 0.25666 0.0
C584 C 0.70111 0.03697 0.28251 0.0
C585 C 0.71155 0.00929 0.29581 0.0
C586 C 0.71613 0.03648 0.26621 0.0
C587 C 0.74242 0.00771 0.26308 0.0
C588 C 0.75305 0.97953 0.27639 0.0
C589 C 0.73726 0.98032 0.29252 0.0
C590 C 0.70383 0.06676 0.25233 0.0
C591 C 0.78108 0.94845 0.27356 0.0
H592 H 0.75573 0.95771 0.20659 0.0
H593 H 0.82053 0.05823 0.22404 0.0
H594 H 0.72534 0.9263 0.2461 0.0
H595 H 0.69748 0.96762 0.2394 0.0
H596 H 0.71351 0.93005 0.2237 0.0
H597 H 0.8197 0.08495 0.25227 0.0
H598 H 0.77869 0.08838 0.26075 0.0
H599 H 0.80553 0.0467 0.2682 0.0
H600 H 0.68114 0.05931 0.28486 0.0
H601 H 0.74469 0.95749 0.30235 0.0
H602 H 0.69627 0.04793 0.24079 0.0
H603 H 0.72376 0.08889 0.24824 0.0
H604 H 0.68271 0.08655 0.25673 0.0
H605 H 0.77499 0.92568 0.26295 0.0
H606 H 0.7869 0.92938 0.28533 0.0
H607 H 0.80331 0.96652 0.26958 0.0
C608 C 0.27785 0.05207 0.72238 0.0
C609 C 0.28245 0.01475 0.71239 0.0
C610 C 0.26316 0.04983 0.73873 0.0
C611 C 0.25356 0.0091 0.74543 0.0
C612 C 0.25838 0.9712 0.73543 0.0
C613 C 0.27258 0.97453 0.71894 0.0
C614 C 0.25791 0.09111 0.74883 0.0
C615 C 0.24907 0.92713 0.74227 0.0
C616 C 0.24486 0.00451 0.79431 0.0
C617 C 0.21083 0.00751 0.79643 0.0
C618 C 0.259 0.00323 0.77777 0.0
C619 C 0.23872 0.0064 0.76298 0.0
C620 C 0.20437 0.00952 0.76502 0.0
C621 C 0.19088 0.00988 0.78169 0.0
C622 C 0.29574 0.99966 0.77615 0.0
C623 C 0.18194 0.01373 0.74959 0.0
H624 H 0.28547 0.0832 0.7173 0.0
H625 H 0.27677 0.94554 0.71136 0.0
H626 H 0.23164 0.09465 0.75218 0.0
H627 H 0.2718 0.0898 0.76114 0.0
H628 H 0.2658 0.12028 0.74154 0.0
H629 H 0.25425 0.90087 0.73285 0.0
H630 H 0.26278 0.92041 0.75436 0.0
H631 H 0.22263 0.9264 0.74552 0.0
H632 H 0.26071 0.00467 0.8055 0.0
H633 H 0.16457 0.01253 0.7832 0.0
H634 H 0.30578 0.0301 0.7707 0.0
H635 H 0.30227 0.9731 0.76713 0.0
H636 H 0.30777 0.99348 0.78878 0.0
H637 H 0.18769 0.04397 0.74247 0.0
H638 H 0.15569 0.01441 0.75335 0.0
H639 H 0.18588 0.98637 0.74055 0.0
C640 C 0.71684 0.98491 0.72249 0.0
C641 C 0.71301 0.02218 0.71237 0.0
C642 C 0.732 0.9868 0.73875 0.0
C643 C 0.74289 0.02719 0.74525 0.0
C644 C 0.73887 0.06505 0.73512 0.0
C645 C 0.72417 0.06204 0.71872 0.0
C646 C 0.73637 0.94553 0.74896 0.0
C647 C 0.74953 0.10881 0.74174 0.0
C648 C 0.75296 0.03267 0.79408 0.0
C649 C 0.78697 0.02845 0.79603 0.0
C650 C 0.73844 0.03405 0.77762 0.0
C651 C 0.75824 0.02959 0.76271 0.0
C652 C 0.79254 0.02505 0.76456 0.0
C653 C 0.80646 0.02475 0.78116 0.0
C654 C 0.70177 0.03921 0.77621 0.0
C655 C 0.81447 0.01935 0.74903 0.0
H656 H 0.70824 0.95405 0.71758 0.0
H657 H 0.72059 0.09104 0.71107 0.0
H658 H 0.76261 0.94085 0.75218 0.0
H659 H 0.7228 0.94775 0.76134 0.0
H660 H 0.72756 0.91658 0.74181 0.0
H661 H 0.74483 0.13508 0.73225 0.0
H662 H 0.73632 0.11645 0.75388 0.0
H663 H 0.77606 0.10835 0.74482 0.0
H664 H 0.73737 0.03347 0.80535 0.0
H665 H 0.83273 0.02113 0.7825 0.0
H666 H 0.69083 0.0091 0.77094 0.0
H667 H 0.6957 0.06582 0.76712 0.0
H668 H 0.69022 0.04625 0.78889 0.0
H669 H 0.80765 0.9893 0.74204 0.0
H670 H 0.84075 0.01738 0.75263 0.0
H671 H 0.81113 0.04671 0.73992 0.0
C672 C 0.23831 0.56209 0.71693 0.0
C673 C 0.21336 0.53194 0.71361 0.0
C674 C 0.25424 0.56338 0.73304 0.0
C675 C 0.24426 0.53485 0.74635 0.0
C676 C 0.21848 0.50526 0.74327 0.0
C677 C 0.20357 0.50396 0.72696 0.0
C678 C 0.28188 0.59513 0.73577 0.0
C679 C 0.20668 0.47481 0.75722 0.0
C680 C 0.30221 0.50542 0.78286 0.0
C681 C 0.29127 0.53223 0.79635 0.0
C682 C 0.28766 0.50674 0.76645 0.0
C683 C 0.26112 0.53513 0.76342 0.0
C684 C 0.25013 0.56268 0.77684 0.0
C685 C 0.26571 0.56144 0.79303 0.0
C686 C 0.30055 0.47743 0.75239 0.0
C687 C 0.22166 0.59314 0.77415 0.0
H688 H 0.24516 0.58532 0.70717 0.0
H689 H 0.18417 0.48072 0.72466 0.0
H690 H 0.27568 0.61776 0.7464 0.0
H691 H 0.3044 0.57756 0.73967 0.0
H692 H 0.28729 0.61432 0.72398 0.0
H693 H 0.18541 0.45505 0.75298 0.0
H694 H 0.22675 0.45262 0.76106 0.0
H695 H 0.19954 0.49347 0.76888 0.0
H696 H 0.32213 0.48296 0.78515 0.0
H697 H 0.25799 0.5839 0.8029 0.0
H698 H 0.30699 0.49677 0.7408 0.0
H699 H 0.2813 0.45406 0.74847 0.0
H700 H 0.32252 0.45895 0.75656 0.0
H701 H 0.22717 0.61605 0.76351 0.0
H702 H 0.2158 0.61205 0.78595 0.0
H703 H 0.1996 0.5745 0.77028 0.0
C704 C 0.80254 0.51353 0.72772 0.0
C705 C 0.78275 0.50957 0.71297 0.0
C706 C 0.78899 0.51323 0.74439 0.0
C707 C 0.75476 0.50843 0.74642 0.0
C708 C 0.73466 0.50363 0.73164 0.0
C709 C 0.74881 0.50496 0.71509 0.0
C710 C 0.81124 0.51924 0.75979 0.0
C711 C 0.69805 0.49819 0.73326 0.0
C712 C 0.72241 0.47639 0.79078 0.0
C713 C 0.71157 0.51632 0.79719 0.0
C714 C 0.73633 0.47319 0.77421 0.0
C715 C 0.73983 0.51094 0.76397 0.0
C716 C 0.72912 0.55137 0.77049 0.0
C717 C 0.71477 0.55345 0.78694 0.0
C718 C 0.74684 0.4294 0.76757 0.0
C719 C 0.73294 0.59251 0.76014 0.0
H720 H 0.82877 0.5174 0.72624 0.0
H721 H 0.733 0.50387 0.70391 0.0
H722 H 0.80447 0.54932 0.76677 0.0
H723 H 0.80821 0.49195 0.76897 0.0
H724 H 0.83744 0.52135 0.75605 0.0
H725 H 0.68625 0.49087 0.72066 0.0
H726 H 0.69229 0.47167 0.74244 0.0
H727 H 0.68709 0.52829 0.73851 0.0
H728 H 0.71928 0.44748 0.79854 0.0
H729 H 0.70639 0.58435 0.7919 0.0
H730 H 0.77331 0.42985 0.76437 0.0
H731 H 0.73341 0.42169 0.75549 0.0
H732 H 0.74232 0.40317 0.7771 0.0
H733 H 0.75907 0.59751 0.75678 0.0
H734 H 0.72404 0.62146 0.76725 0.0
H735 H 0.71915 0.58988 0.74783 0.0
C736 C 0.26596 0.48033 0.21755 0.0
C737 C 0.29242 0.5081 0.21431 0.0
C738 C 0.24997 0.48039 0.23361 0.0
C739 C 0.2611 0.50832 0.24688 0.0
C740 C 0.28814 0.5359 0.24381 0.0
C741 C 0.30345 0.53545 0.22758 0.0
C742 C 0.22122 0.45045 0.2364 0.0
C743 C 0.30091 0.56592 0.25766 0.0
C744 C 0.20237 0.53774 0.28308 0.0
C745 C 0.21239 0.50979 0.29636 0.0
C746 C 0.21802 0.53764 0.26695 0.0
C747 C 0.24437 0.50885 0.26398 0.0
C748 C 0.2546 0.48047 0.2773 0.0
C749 C 0.23829 0.48101 0.29328 0.0
C750 C 0.20623 0.5682 0.25304 0.0
C751 C 0.28258 0.44924 0.27462 0.0
H752 H 0.25808 0.45777 0.2077 0.0
H753 H 0.32404 0.55681 0.22523 0.0
H754 H 0.22662 0.4277 0.24712 0.0
H755 H 0.19932 0.46944 0.2402 0.0
H756 H 0.21519 0.43134 0.22466 0.0
H757 H 0.32243 0.58495 0.25327 0.0
H758 H 0.28137 0.58874 0.26168 0.0
H759 H 0.30802 0.54697 0.26925 0.0
H760 H 0.18224 0.55991 0.28532 0.0
H761 H 0.24539 0.45807 0.30314 0.0
H762 H 0.19847 0.54952 0.24149 0.0
H763 H 0.2265 0.58982 0.24896 0.0
H764 H 0.18537 0.58851 0.2574 0.0
H765 H 0.27657 0.42643 0.26402 0.0
H766 H 0.28818 0.43022 0.28644 0.0
H767 H 0.30493 0.46715 0.27071 0.0
C768 C 0.69708 0.50276 0.22649 0.0
C769 C 0.70792 0.53013 0.21319 0.0
C770 C 0.71235 0.50259 0.24275 0.0
C771 C 0.73922 0.53047 0.24585 0.0
C772 C 0.7502 0.55839 0.23254 0.0
C773 C 0.73424 0.55818 0.21644 0.0
C774 C 0.69971 0.47255 0.25662 0.0
C775 C 0.77877 0.58864 0.23533 0.0
C776 C 0.76163 0.55764 0.29239 0.0
C777 C 0.78755 0.52891 0.29555 0.0
C778 C 0.74552 0.55832 0.27633 0.0
C779 C 0.75595 0.53013 0.26298 0.0
C780 C 0.78236 0.50146 0.26601 0.0
C781 C 0.79779 0.50121 0.28223 0.0
C782 C 0.71747 0.58941 0.2736 0.0
C783 C 0.79438 0.47107 0.25211 0.0
H784 H 0.67663 0.48115 0.22416 0.0
H785 H 0.74201 0.58075 0.20659 0.0
H786 H 0.71936 0.4499 0.26066 0.0
H787 H 0.69251 0.49148 0.26819 0.0
H788 H 0.67828 0.45331 0.25223 0.0
H789 H 0.78471 0.60773 0.22358 0.0
H790 H 0.77323 0.61139 0.24602 0.0
H791 H 0.80077 0.56988 0.23917 0.0
H792 H 0.75432 0.58041 0.30227 0.0
H793 H 0.81793 0.47906 0.2845 0.0
H794 H 0.69516 0.57136 0.2697 0.0
H795 H 0.72341 0.61217 0.26297 0.0
H796 H 0.71183 0.60849 0.2854 0.0
H797 H 0.77427 0.44918 0.24802 0.0
H798 H 0.81539 0.45104 0.25648 0.0
H799 H 0.80199 0.48985 0.24057 0.0
C800 C 0.24443 0.17417 0.11476 0.0
C801 C 0.2196 0.16012 0.1259 0.0
C802 C 0.25596 0.21698 0.11538 0.0
C803 C 0.24146 0.24679 0.12699 0.0
C804 C 0.21611 0.23281 0.13816 0.0
C805 C 0.20589 0.18939 0.13769 0.0
C806 C 0.28375 0.23025 0.10365 0.0
C807 C 0.19933 0.2639 0.15033 0.0
C808 C 0.28802 0.34911 0.13898 0.0
C809 C 0.27558 0.37893 0.12701 0.0
C810 C 0.27724 0.30593 0.13908 0.0
C811 C 0.25264 0.29269 0.12731 0.0
C812 C 0.23924 0.3231 0.11557 0.0
C813 C 0.2513 0.36569 0.11535 0.0
C814 C 0.29285 0.27421 0.15144 0.0
C815 C 0.21225 0.31062 0.10319 0.0
H816 H 0.2552 0.15144 0.10572 0.0
H817 H 0.18645 0.17863 0.14621 0.0
H818 H 0.27533 0.25559 0.09453 0.0
H819 H 0.30397 0.24438 0.1114 0.0
H820 H 0.29352 0.20259 0.09607 0.0
H821 H 0.17959 0.24806 0.15792 0.0
H822 H 0.21738 0.27799 0.15944 0.0
H823 H 0.18855 0.29112 0.14289 0.0
H824 H 0.30705 0.3592 0.14789 0.0
H825 H 0.24153 0.38879 0.10615 0.0
H826 H 0.30439 0.24742 0.14407 0.0
H827 H 0.27397 0.25957 0.15991 0.0
H828 H 0.3118 0.28964 0.1597 0.0
H829 H 0.22133 0.28593 0.09396 0.0
H830 H 0.20297 0.33879 0.09573 0.0
H831 H 0.19154 0.29592 0.11038 0.0
C832 C 0.70897 0.68912 0.1375 0.0
C833 C 0.72186 0.65943 0.12562 0.0
C834 C 0.7195 0.73241 0.13769 0.0
C835 C 0.74434 0.74589 0.12613 0.0
C836 C 0.75812 0.71564 0.11444 0.0
C837 C 0.74627 0.67293 0.11411 0.0
C838 C 0.70345 0.76394 0.14997 0.0
C839 C 0.78538 0.72837 0.10229 0.0
C840 C 0.75314 0.86473 0.11411 0.0
C841 C 0.77768 0.8784 0.12553 0.0
C842 C 0.74148 0.82195 0.11446 0.0
C843 C 0.75558 0.79178 0.12608 0.0
C844 C 0.78058 0.80541 0.13754 0.0
C845 C 0.79092 0.84879 0.13734 0.0
C846 C 0.71404 0.80907 0.10243 0.0
C847 C 0.79694 0.77396 0.14974 0.0
H848 H 0.68982 0.67883 0.14629 0.0
H849 H 0.75637 0.64991 0.10498 0.0
H850 H 0.72202 0.77824 0.15873 0.0
H851 H 0.69233 0.79098 0.14256 0.0
H852 H 0.68411 0.74843 0.15793 0.0
H853 H 0.79477 0.70038 0.09476 0.0
H854 H 0.77656 0.75337 0.09312 0.0
H855 H 0.80596 0.74277 0.10969 0.0
H856 H 0.74277 0.8877 0.10503 0.0
H857 H 0.81016 0.85923 0.14605 0.0
H858 H 0.69358 0.79471 0.10993 0.0
H859 H 0.72272 0.78399 0.09326 0.0
H860 H 0.7045 0.83697 0.0949 0.0
H861 H 0.77859 0.75967 0.15862 0.0
H862 H 0.81646 0.78954 0.15758 0.0
H863 H 0.80792 0.7469 0.14229 0.0
C864 C 0.24502 0.86177 0.89727 0.0
C865 C 0.22076 0.87512 0.88564 0.0
C866 C 0.25687 0.81906 0.89708 0.0
C867 C 0.24319 0.78865 0.88541 0.0
C868 C 0.2183 0.80191 0.87381 0.0
C869 C 0.20783 0.84522 0.87384 0.0
C870 C 0.28422 0.80661 0.90923 0.0
C871 C 0.20234 0.77019 0.86158 0.0
C872 C 0.29087 0.68712 0.87367 0.0
C873 C 0.27818 0.65689 0.8854 0.0
C874 C 0.28003 0.73026 0.8737 0.0
C875 C 0.25502 0.74302 0.8853 0.0
C876 C 0.24151 0.71225 0.89686 0.0
C877 C 0.25372 0.66971 0.89699 0.0
C878 C 0.29583 0.76237 0.86158 0.0
C879 C 0.21404 0.7242 0.909 0.0
H880 H 0.25516 0.88499 0.90632 0.0
H881 H 0.18881 0.85545 0.86496 0.0
H882 H 0.27575 0.78107 0.91824 0.0
H883 H 0.30504 0.79301 0.90179 0.0
H884 H 0.29318 0.83458 0.91693 0.0
H885 H 0.18247 0.78532 0.85385 0.0
H886 H 0.22084 0.75669 0.85259 0.0
H887 H 0.19194 0.74263 0.86896 0.0
H888 H 0.31006 0.67732 0.86482 0.0
H889 H 0.24377 0.64624 0.90599 0.0
H890 H 0.30631 0.78969 0.86908 0.0
H891 H 0.27723 0.77614 0.8527 0.0
H892 H 0.31562 0.7475 0.85372 0.0
H893 H 0.22245 0.74938 0.9182 0.0
H894 H 0.20505 0.69592 0.9165 0.0
H895 H 0.19327 0.73809 0.9016 0.0
C896 C 0.71156 0.35219 0.87242 0.0
C897 C 0.72475 0.38203 0.88415 0.0
C898 C 0.72203 0.30891 0.87232 0.0
C899 C 0.74718 0.2957 0.88377 0.0
C900 C 0.7613 0.32616 0.89526 0.0
C901 C 0.74943 0.36882 0.89555 0.0
C902 C 0.70559 0.2771 0.8603 0.0
C903 C 0.78894 0.3137 0.90723 0.0
C904 C 0.75606 0.17724 0.89616 0.0
C905 C 0.78007 0.16321 0.88453 0.0
C906 C 0.74456 0.22006 0.89578 0.0
C907 C 0.75835 0.24986 0.88392 0.0
C908 C 0.78291 0.23589 0.87228 0.0
C909 C 0.79304 0.19246 0.87251 0.0
C910 C 0.71755 0.23334 0.90799 0.0
C911 C 0.79895 0.26699 0.85983 0.0
H912 H 0.6922 0.36237 0.86373 0.0
H913 H 0.75973 0.39205 0.90454 0.0
H914 H 0.72387 0.26255 0.85145 0.0
H915 H 0.69466 0.25027 0.8679 0.0
H916 H 0.68602 0.29245 0.85242 0.0
H917 H 0.79864 0.34189 0.91453 0.0
H918 H 0.78038 0.28903 0.9166 0.0
H919 H 0.80924 0.29899 0.89973 0.0
H920 H 0.74589 0.15448 0.90538 0.0
H921 H 0.81185 0.18166 0.86362 0.0
H922 H 0.69685 0.24747 0.9006 0.0
H923 H 0.72655 0.25869 0.91696 0.0
H924 H 0.70825 0.20568 0.91575 0.0
H925 H 0.78038 0.28092 0.85098 0.0
H926 H 0.8183 0.2512 0.85196 0.0
H927 H 0.81005 0.29432 0.86708 0.0
C928 C 0.78314 0.85742 0.87624 0.0
C929 C 0.76613 0.88578 0.88713 0.0
C930 C 0.77655 0.81287 0.87638 0.0
C931 C 0.75258 0.79635 0.88781 0.0
C932 C 0.73551 0.82486 0.89896 0.0
C933 C 0.74254 0.86935 0.89848 0.0
C934 C 0.7953 0.78349 0.86433 0.0
C935 C 0.70984 0.80839 0.91135 0.0
C936 C 0.71452 0.68776 0.87676 0.0
C937 C 0.73217 0.65965 0.88748 0.0
C938 C 0.72083 0.73238 0.87679 0.0
C939 C 0.74518 0.74923 0.88794 0.0
C940 C 0.76282 0.72098 0.89896 0.0
C941 C 0.75605 0.67642 0.89859 0.0
C942 C 0.70146 0.76148 0.86489 0.0
C943 C 0.78892 0.73779 0.91104 0.0
H944 H 0.80199 0.87001 0.86777 0.0
H945 H 0.72952 0.89139 0.90695 0.0
H946 H 0.80882 0.75875 0.87188 0.0
H947 H 0.77804 0.76599 0.85573 0.0
H948 H 0.81305 0.80155 0.85619 0.0
H949 H 0.69909 0.83475 0.91929 0.0
H950 H 0.68987 0.79222 0.90407 0.0
H951 H 0.72068 0.78385 0.92011 0.0
H952 H 0.69545 0.6749 0.86848 0.0
H953 H 0.76959 0.65457 0.90691 0.0
H954 H 0.71829 0.77874 0.856 0.0
H955 H 0.68834 0.78643 0.87253 0.0
H956 H 0.68329 0.74324 0.85707 0.0
H957 H 0.80866 0.75366 0.9035 0.0
H958 H 0.79991 0.71166 0.91902 0.0
H959 H 0.77841 0.76265 0.91977 0.0
C960 C 0.28825 0.34994 0.87565 0.0
C961 C 0.2692 0.37929 0.88509 0.0
C962 C 0.28115 0.30548 0.87578 0.0
C963 C 0.25474 0.28998 0.88588 0.0
C964 C 0.23559 0.31951 0.89557 0.0
C965 C 0.24297 0.3639 0.89497 0.0
C966 C 0.30196 0.2751 0.86516 0.0
C967 C 0.20747 0.30418 0.90664 0.0
C968 C 0.21743 0.18094 0.87458 0.0
C969 C 0.23284 0.15343 0.88647 0.0
C970 C 0.2245 0.22538 0.87417 0.0
C971 C 0.24704 0.24288 0.88619 0.0
C972 C 0.26231 0.21533 0.89841 0.0
C973 C 0.25513 0.17084 0.89834 0.0
C974 C 0.20783 0.25361 0.86089 0.0
C975 C 0.28619 0.23286 0.91156 0.0
H976 H 0.30902 0.36172 0.8683 0.0
H977 H 0.22832 0.38667 0.90231 0.0
H978 H 0.314 0.25106 0.8737 0.0
H979 H 0.28632 0.25682 0.85597 0.0
H980 H 0.32115 0.29246 0.85772 0.0
H981 H 0.19537 0.33122 0.91363 0.0
H982 H 0.18893 0.28764 0.8985 0.0
H983 H 0.21635 0.28023 0.91625 0.0
H984 H 0.19949 0.1678 0.8657 0.0
H985 H 0.26702 0.14958 0.90755 0.0
H986 H 0.22646 0.27033 0.85286 0.0
H987 H 0.19317 0.27901 0.86742 0.0
H988 H 0.19143 0.2348 0.85223 0.0
H989 H 0.30742 0.24779 0.9049 0.0
H990 H 0.29536 0.20731 0.92043 0.0
H991 H 0.27434 0.25862 0.91935 0.0
C992 C 0.71215 0.35263 0.11484 0.0
C993 C 0.72869 0.38114 0.12589 0.0
C994 C 0.71947 0.30827 0.11473 0.0
C995 C 0.74333 0.29191 0.12629 0.0
C996 C 0.75947 0.32044 0.13783 0.0
C997 C 0.75207 0.36486 0.13741 0.0
C998 C 0.70194 0.27901 0.10213 0.0
C999 C 0.78465 0.30409 0.15053 0.0
C1000 C 0.74173 0.17091 0.13534 0.0
C1001 C 0.76708 0.15608 0.12472 0.0
C1002 C 0.73399 0.21517 0.13619 0.0
C1003 C 0.75184 0.24507 0.12599 0.0
C1004 C 0.77753 0.23013 0.11526 0.0
C1005 C 0.7851 0.18583 0.11493 0.0
C1006 C 0.70678 0.22994 0.14799 0.0
C1007 C 0.79692 0.26089 0.10408 0.0
H1008 H 0.69346 0.36512 0.10623 0.0
H1009 H 0.76468 0.38697 0.14602 0.0
H1010 H 0.72 0.26277 0.0936 0.0
H1011 H 0.6886 0.25325 0.10921 0.0
H1012 H 0.68419 0.29693 0.09392 0.0
H1013 H 0.79389 0.33017 0.15913 0.0
H1014 H 0.77397 0.27803 0.15862 0.0
H1015 H 0.80569 0.28988 0.14347 0.0
H1016 H 0.72802 0.14781 0.14302 0.0
H1017 H 0.80528 0.17443 0.10706 0.0
H1018 H 0.68707 0.24544 0.14031 0.0
H1019 H 0.71614 0.25463 0.15717 0.0
H1020 H 0.69603 0.20277 0.15549 0.0
H1021 H 0.78021 0.27843 0.09519 0.0
H1022 H 0.81579 0.24395 0.09627 0.0
H1023 H 0.80921 0.28552 0.11225 0.0
C1024 C 0.26128 0.86743 0.13388 0.0
C1025 C 0.23432 0.88237 0.12444 0.0
C1026 C 0.26828 0.82299 0.13491 0.0
C1027 C 0.248 0.79301 0.12611 0.0
C1028 C 0.22074 0.80809 0.11653 0.0
C1029 C 0.21403 0.85261 0.11598 0.0
C1030 C 0.29731 0.80811 0.14543 0.0
C1031 C 0.19873 0.77721 0.10683 0.0
C1032 C 0.28373 0.68337 0.11455 0.0
C1033 C 0.26927 0.65639 0.12695 0.0
C1034 C 0.2769 0.72784 0.1141 0.0
C1035 C 0.25563 0.74592 0.12659 0.0
C1036 C 0.24142 0.71894 0.13936 0.0
C1037 C 0.24827 0.67435 0.13931 0.0
C1038 C 0.29232 0.75541 0.1002 0.0
C1039 C 0.21895 0.73716 0.15302 0.0
H1040 H 0.27673 0.8906 0.14054 0.0
H1041 H 0.19273 0.86421 0.10901 0.0
H1042 H 0.28924 0.78466 0.15542 0.0
H1043 H 0.31508 0.79111 0.13699 0.0
H1044 H 0.31004 0.83545 0.15191 0.0
H1045 H 0.17877 0.79425 0.09983 0.0
H1046 H 0.2133 0.7584 0.09734 0.0
H1047 H 0.18762 0.75368 0.11592 0.0
H1048 H 0.30061 0.66971 0.10524 0.0
H1049 H 0.23712 0.65344 0.14889 0.0
H1050 H 0.30755 0.78114 0.10615 0.0
H1051 H 0.27296 0.77172 0.09252 0.0
H1052 H 0.30792 0.73618 0.09129 0.0
H1053 H 0.23157 0.76337 0.16022 0.0
H1054 H 0.21078 0.71209 0.16236 0.0
H1055 H 0.19703 0.75168 0.14685 0.0
C1056 C 0.24255 0.67446 0.63657 0.0
C1057 C 0.219 0.6616 0.62444 0.0
C1058 C 0.25481 0.717 0.63666 0.0
C1059 C 0.24222 0.74773 0.62478 0.0
C1060 C 0.21797 0.73498 0.61273 0.0
C1061 C 0.20712 0.69185 0.61249 0.0
C1062 C 0.28147 0.72892 0.64931 0.0
C1063 C 0.20311 0.76703 0.60024 0.0
C1064 C 0.25204 0.86711 0.63591 0.0
C1065 C 0.27671 0.87976 0.6244 0.0
C1066 C 0.24026 0.82435 0.63603 0.0
C1067 C 0.25446 0.7932 0.62486 0.0
C1068 C 0.27995 0.80571 0.61351 0.0
C1069 C 0.29032 0.84906 0.61318 0.0
C1070 C 0.21226 0.81271 0.64788 0.0
C1071 C 0.29652 0.77322 0.60185 0.0
H1072 H 0.25183 0.65098 0.64576 0.0
H1073 H 0.1886 0.68204 0.60324 0.0
H1074 H 0.30297 0.74194 0.64225 0.0
H1075 H 0.27276 0.75478 0.65812 0.0
H1076 H 0.2895 0.70083 0.65721 0.0
H1077 H 0.18345 0.75235 0.59223 0.0
H1078 H 0.19272 0.79489 0.60745 0.0
H1079 H 0.22227 0.77999 0.59152 0.0
H1080 H 0.24146 0.89094 0.64455 0.0
H1081 H 0.30971 0.85876 0.60443 0.0
H1082 H 0.21998 0.78711 0.65705 0.0
H1083 H 0.19159 0.79946 0.6402 0.0
H1084 H 0.20334 0.84099 0.65539 0.0
H1085 H 0.30593 0.74568 0.60961 0.0
H1086 H 0.31721 0.78767 0.59453 0.0
H1087 H 0.27861 0.75987 0.59249 0.0
C1088 C 0.791 0.34459 0.63547 0.0
C1089 C 0.77675 0.37447 0.62413 0.0
C1090 C 0.78094 0.30113 0.63559 0.0
C1091 C 0.75514 0.28779 0.62458 0.0
C1092 C 0.74014 0.31821 0.61339 0.0
C1093 C 0.75162 0.36106 0.61304 0.0
C1094 C 0.79831 0.26937 0.64726 0.0
C1095 C 0.71178 0.30562 0.60192 0.0
C1096 C 0.74437 0.16923 0.61266 0.0
C1097 C 0.72107 0.15578 0.6248 0.0
C1098 C 0.75636 0.21185 0.61274 0.0
C1099 C 0.74373 0.24204 0.62481 0.0
C1100 C 0.71993 0.22862 0.63698 0.0
C1101 C 0.70935 0.18539 0.63703 0.0
C1102 C 0.78259 0.22453 0.59997 0.0
C1103 C 0.70507 0.26014 0.64966 0.0
H1104 H 0.81069 0.35498 0.64391 0.0
H1105 H 0.7405 0.38435 0.60435 0.0
H1106 H 0.7808 0.25535 0.65666 0.0
H1107 H 0.80824 0.24216 0.63949 0.0
H1108 H 0.81875 0.28462 0.65452 0.0
H1109 H 0.70185 0.33364 0.59459 0.0
H1110 H 0.71963 0.28048 0.59257 0.0
H1111 H 0.69182 0.29145 0.60983 0.0
H1112 H 0.75357 0.1462 0.60327 0.0
H1113 H 0.69105 0.17506 0.64631 0.0
H1114 H 0.80386 0.23867 0.60689 0.0
H1115 H 0.77312 0.24972 0.59107 0.0
H1116 H 0.79119 0.19656 0.59217 0.0
H1117 H 0.7244 0.27401 0.65807 0.0
H1118 H 0.68623 0.24474 0.65799 0.0
H1119 H 0.69362 0.28747 0.64258 0.0
C1120 C 0.24385 0.36439 0.37167 0.0
C1121 C 0.22011 0.37668 0.38376 0.0
C1122 C 0.2559 0.32177 0.37125 0.0
C1123 C 0.24285 0.29044 0.38273 0.0
C1124 C 0.21817 0.30258 0.39463 0.0
C1125 C 0.20759 0.34579 0.39524 0.0
C1126 C 0.28309 0.31052 0.35884 0.0
C1127 C 0.2028 0.2699 0.40666 0.0
C1128 C 0.25438 0.1712 0.37173 0.0
C1129 C 0.27834 0.159 0.38373 0.0
C1130 C 0.24236 0.21385 0.37132 0.0
C1131 C 0.25562 0.24526 0.3827 0.0
C1132 C 0.28058 0.23322 0.39447 0.0
C1133 C 0.29115 0.19003 0.39507 0.0
C1134 C 0.21493 0.22503 0.35902 0.0
C1135 C 0.29619 0.26598 0.4064 0.0
H1136 H 0.25359 0.38843 0.36284 0.0
H1137 H 0.18892 0.35525 0.40445 0.0
H1138 H 0.30459 0.29823 0.36611 0.0
H1139 H 0.2751 0.28431 0.35 0.0
H1140 H 0.29088 0.33878 0.35096 0.0
H1141 H 0.18231 0.28392 0.41426 0.0
H1142 H 0.19342 0.24187 0.39917 0.0
H1143 H 0.22146 0.25735 0.41579 0.0
H1144 H 0.2444 0.14708 0.36301 0.0
H1145 H 0.30999 0.18064 0.40421 0.0
H1146 H 0.22268 0.25134 0.35018 0.0
H1147 H 0.19353 0.23716 0.36641 0.0
H1148 H 0.20709 0.19678 0.35116 0.0
H1149 H 0.30533 0.29402 0.39884 0.0
H1150 H 0.3169 0.25204 0.41386 0.0
H1151 H 0.27774 0.27848 0.41564 0.0
C1152 C 0.75106 0.67168 0.39442 0.0
C1153 C 0.77586 0.65842 0.38311 0.0
C1154 C 0.73924 0.71439 0.3941 0.0
C1155 C 0.7535 0.74486 0.38267 0.0
C1156 C 0.77876 0.73161 0.37132 0.0
C1157 C 0.78922 0.68831 0.37146 0.0
C1158 C 0.7115 0.72689 0.40599 0.0
C1159 C 0.79534 0.76339 0.35935 0.0
C1160 C 0.7077 0.84816 0.37126 0.0
C1161 C 0.72056 0.87748 0.3833 0.0
C1162 C 0.71787 0.80473 0.37105 0.0
C1163 C 0.74234 0.79076 0.38276 0.0
C1164 C 0.75605 0.82062 0.39463 0.0
C1165 C 0.74455 0.86346 0.39497 0.0
C1166 C 0.70192 0.7736 0.35857 0.0
C1167 C 0.78295 0.80736 0.40694 0.0
H1168 H 0.74062 0.64846 0.40337 0.0
H1169 H 0.80868 0.67816 0.36285 0.0
H1170 H 0.71998 0.75162 0.41536 0.0
H1171 H 0.69126 0.74155 0.39841 0.0
H1172 H 0.70176 0.69874 0.41329 0.0
H1173 H 0.81498 0.74803 0.35155 0.0
H1174 H 0.77715 0.77792 0.35043 0.0
H1175 H 0.80619 0.79024 0.36698 0.0
H1176 H 0.68887 0.85888 0.36235 0.0
H1177 H 0.75462 0.88621 0.40423 0.0
H1178 H 0.69064 0.74639 0.3658 0.0
H1179 H 0.72058 0.75949 0.34983 0.0
H1180 H 0.68273 0.78941 0.35059 0.0
H1181 H 0.77383 0.7821 0.4159 0.0
H1182 H 0.79222 0.83505 0.41469 0.0
H1183 H 0.80369 0.79311 0.39963 0.0
C1184 C 0.74624 0.36362 0.37231 0.0
C1185 C 0.77006 0.3801 0.38353 0.0
C1186 C 0.73905 0.31916 0.37197 0.0
C1187 C 0.75579 0.29078 0.38333 0.0
C1188 C 0.78004 0.30735 0.3946 0.0
C1189 C 0.7872 0.35175 0.39438 0.0
C1190 C 0.71349 0.30257 0.35953 0.0
C1191 C 0.79816 0.27826 0.40704 0.0
C1192 C 0.71457 0.18445 0.39483 0.0
C1193 C 0.73233 0.15488 0.38482 0.0
C1194 C 0.72217 0.22874 0.39458 0.0
C1195 C 0.74754 0.24389 0.38369 0.0
C1196 C 0.76516 0.21418 0.3733 0.0
C1197 C 0.75749 0.16991 0.37411 0.0
C1198 C 0.70309 0.25929 0.40601 0.0
C1199 C 0.79197 0.2292 0.36129 0.0
H1200 H 0.73317 0.38562 0.36384 0.0
H1201 H 0.80624 0.36439 0.40275 0.0
H1202 H 0.724 0.27658 0.35133 0.0
H1203 H 0.69277 0.2882 0.3668 0.0
H1204 H 0.70381 0.32855 0.35101 0.0
H1205 H 0.81605 0.29637 0.41509 0.0
H1206 H 0.78048 0.26179 0.41571 0.0
H1207 H 0.81144 0.25268 0.39983 0.0
H1208 H 0.69452 0.17294 0.40276 0.0
H1209 H 0.77102 0.14695 0.36627 0.0
H1210 H 0.69025 0.28372 0.39798 0.0
H1211 H 0.72007 0.27708 0.41467 0.0
H1212 H 0.68471 0.24213 0.41407 0.0
H1213 H 0.78221 0.25377 0.35219 0.0
H1214 H 0.80266 0.20213 0.35371 0.0
H1215 H 0.81181 0.24492 0.36881 0.0
C1216 C 0.21766 0.68067 0.39835 0.0
C1217 C 0.23193 0.65446 0.38563 0.0
C1218 C 0.22443 0.72513 0.3992 0.0
C1219 C 0.24514 0.74413 0.38667 0.0
C1220 C 0.25923 0.71795 0.37361 0.0
C1221 C 0.25276 0.67326 0.37338 0.0
C1222 C 0.20938 0.75176 0.41351 0.0
C1223 C 0.2809 0.73719 0.35981 0.0
C1224 C 0.23696 0.8655 0.37978 0.0
C1225 C 0.26463 0.88113 0.38845 0.0
C1226 C 0.23053 0.8209 0.37889 0.0
C1227 C 0.25191 0.79144 0.38724 0.0
C1228 C 0.27961 0.80724 0.39626 0.0
C1229 C 0.28591 0.8519 0.39652 0.0
C1230 C 0.20113 0.80527 0.36884 0.0
C1231 C 0.30261 0.77697 0.40562 0.0
H1232 H 0.20084 0.66652 0.40757 0.0
H1233 H 0.26384 0.653 0.36355 0.0
H1234 H 0.22884 0.76894 0.4208 0.0
H1235 H 0.19297 0.77676 0.40795 0.0
H1236 H 0.19503 0.73166 0.42269 0.0
H1237 H 0.28915 0.71262 0.35027 0.0
H1238 H 0.26755 0.76318 0.35284 0.0
H1239 H 0.30279 0.75223 0.3658 0.0
H1240 H 0.22066 0.88824 0.37347 0.0
H1241 H 0.30772 0.86398 0.40289 0.0
H1242 H 0.1842 0.78752 0.37751 0.0
H1243 H 0.20901 0.78229 0.35864 0.0
H1244 H 0.1875 0.8323 0.36267 0.0
H1245 H 0.28877 0.75714 0.41508 0.0
H1246 H 0.32232 0.79461 0.41258 0.0
H1247 H 0.31407 0.75432 0.39629 0.0
C1248 C 0.77985 0.68006 0.63268 0.0
C1249 C 0.76269 0.65218 0.62165 0.0
C1250 C 0.77356 0.72467 0.63271 0.0
C1251 C 0.74967 0.74173 0.62134 0.0
C1252 C 0.7325 0.7137 0.61003 0.0
C1253 C 0.7393 0.66914 0.6103 0.0
C1254 C 0.79248 0.75355 0.6449 0.0
C1255 C 0.70688 0.73075 0.59772 0.0
C1256 C 0.71187 0.85006 0.63298 0.0
C1257 C 0.72938 0.87841 0.6223 0.0
C1258 C 0.71817 0.80544 0.63275 0.0
C1259 C 0.74242 0.78887 0.62149 0.0
C1260 C 0.76001 0.81741 0.61058 0.0
C1261 C 0.75321 0.86194 0.61111 0.0
C1262 C 0.69883 0.77602 0.64452 0.0
C1263 C 0.78606 0.80092 0.59841 0.0
H1264 H 0.79856 0.66703 0.64114 0.0
H1265 H 0.7262 0.64744 0.60172 0.0
H1266 H 0.80596 0.77856 0.63747 0.0
H1267 H 0.77534 0.77074 0.65365 0.0
H1268 H 0.8103 0.73514 0.65288 0.0
H1269 H 0.69606 0.70473 0.58962 0.0
H1270 H 0.68696 0.74672 0.60508 0.0
H1271 H 0.71779 0.75557 0.58911 0.0
H1272 H 0.69287 0.86272 0.64133 0.0
H1273 H 0.76663 0.884 0.60282 0.0
H1274 H 0.71566 0.75837 0.65329 0.0
H1275 H 0.68557 0.7514 0.63676 0.0
H1276 H 0.68077 0.79407 0.65247 0.0
H1277 H 0.80571 0.78454 0.60585 0.0
H1278 H 0.7972 0.82731 0.59063 0.0
H1279 H 0.77545 0.77655 0.58949 0.0
C1280 C 0.25215 0.36794 0.61229 0.0
C1281 C 0.22699 0.38355 0.62286 0.0
C1282 C 0.25951 0.32353 0.61171 0.0
C1283 C 0.24126 0.29423 0.62199 0.0
C1284 C 0.21565 0.30994 0.63259 0.0
C1285 C 0.2087 0.35442 0.63282 0.0
C1286 C 0.28688 0.30799 0.60018 0.0
C1287 C 0.19565 0.27978 0.64375 0.0
C1288 C 0.24102 0.17446 0.61053 0.0
C1289 C 0.26385 0.15793 0.62232 0.0
C1290 C 0.23356 0.21885 0.61017 0.0
C1291 C 0.2493 0.24723 0.62192 0.0
C1292 C 0.27249 0.23063 0.6338 0.0
C1293 C 0.27962 0.18621 0.63377 0.0
C1294 C 0.20881 0.23537 0.59727 0.0
C1295 C 0.28978 0.25981 0.64653 0.0
H1296 H 0.26616 0.39057 0.60455 0.0
H1297 H 0.18876 0.36644 0.64071 0.0
H1298 H 0.30617 0.29222 0.60807 0.0
H1299 H 0.27752 0.28333 0.59099 0.0
H1300 H 0.29818 0.3348 0.59269 0.0
H1301 H 0.17654 0.29718 0.65123 0.0
H1302 H 0.1836 0.25491 0.63559 0.0
H1303 H 0.2119 0.26249 0.65294 0.0
H1304 H 0.22889 0.15255 0.60165 0.0
H1305 H 0.29792 0.17366 0.64259 0.0
H1306 H 0.22005 0.26075 0.58904 0.0
H1307 H 0.18793 0.25052 0.60415 0.0
H1308 H 0.19925 0.20921 0.58881 0.0
H1309 H 0.30366 0.28519 0.63951 0.0
H1310 H 0.30702 0.24173 0.65497 0.0
H1311 H 0.27157 0.27653 0.6548 0.0
C1312 C 0.92967 0.03358 0.13118 0.0
C1313 C 0.91344 0.00543 0.11986 0.0
C1314 C 0.96367 0.03903 0.13035 0.0
C1315 C 0.982 0.01455 0.1183 0.0
C1316 C 0.96573 0.98588 0.10686 0.0
C1317 C 0.93146 0.98225 0.10757 0.0
C1318 C 0.97997 0.07089 0.14241 0.0
C1319 C 0.98459 0.95824 0.09422 0.0
C1320 C 0.06849 0.05192 0.10798 0.0
C1321 C 0.08675 0.02815 0.12001 0.0
C1322 C 0.03428 0.04771 0.10718 0.0
C1323 C 0.0183 0.01788 0.11824 0.0
C1324 C 0.03689 0.99271 0.12997 0.0
C1325 C 0.07084 0.99874 0.13092 0.0
C1326 C 0.01516 0.07611 0.09492 0.0
C1327 C 0.02089 0.95966 0.14161 0.0
H1328 H 0.91563 0.05194 0.14055 0.0
H1329 H 0.91884 0.96036 0.09886 0.0
H1330 H 0.99636 0.05343 0.15147 0.0
H1331 H 0.99536 0.09384 0.13495 0.0
H1332 H 0.96194 0.08972 0.15009 0.0
H1333 H 0.96824 0.93782 0.08614 0.0
H1334 H -0.00043 0.97895 0.08561 0.0
H1335 H 0.00171 0.93681 0.10136 0.0
H1336 H 0.08087 0.07476 0.09959 0.0
H1337 H 0.08509 0.97994 0.14007 0.0
H1338 H 0.99815 0.09703 0.10236 0.0
H1339 H 4e-05 0.05595 0.08615 0.0
H1340 H 0.03132 0.09711 0.08699 0.0
H1341 H 0.00467 0.97619 0.15101 0.0
H1342 H 0.03912 0.94019 0.1489 0.0
H1343 H 0.00538 0.93738 0.13388 0.0
C1344 C 0.06715 0.98077 0.89943 0.0
C1345 C 0.08651 0.00469 0.88796 0.0
C1346 C 0.03293 0.98534 0.89947 0.0
C1347 C 0.01804 0.01575 0.88823 0.0
C1348 C 0.03766 0.04061 0.87689 0.0
C1349 C 0.07164 0.03418 0.87666 0.0
C1350 C 0.01272 0.95722 0.91133 0.0
C1351 C 0.02282 0.07433 0.86512 0.0
C1352 C 0.92856 0.00452 0.87578 0.0
C1353 C 0.91341 0.03259 0.88754 0.0
C1354 C 0.96253 0.99798 0.87614 0.0
C1355 C 0.98188 0.02124 0.88815 0.0
C1356 C 0.96672 0.05021 0.89988 0.0
C1357 C 0.93253 0.05495 0.89963 0.0
C1358 C 0.97765 0.96585 0.86379 0.0
C1359 C 0.98665 0.07662 0.91249 0.0
H1360 H 0.07872 0.95782 0.90809 0.0
H1361 H 0.08672 0.05304 0.86793 0.0
H1362 H -0.00129 0.9777 0.92048 0.0
H1363 H 0.99465 0.93844 0.90367 0.0
H1364 H 0.028 0.93424 0.91887 0.0
H1365 H 0.04167 0.09238 0.85769 0.0
H1366 H 0.0058 0.05873 0.85584 0.0
H1367 H 0.00832 0.09781 0.87281 0.0
H1368 H 0.9137 0.98682 0.86656 0.0
H1369 H 0.9208 0.07683 0.90866 0.0
H1370 H 0.99194 0.94135 0.87108 0.0
H1371 H 0.99491 0.98264 0.85499 0.0
H1372 H 0.95898 0.94886 0.85584 0.0
H1373 H 0.00041 0.05489 0.92129 0.0
H1374 H 0.97118 0.09856 0.92041 0.0
H1375 H 0.00492 0.09639 0.90539 0.0
C1376 C 0.92313 0.5373 0.6339 0.0
C1377 C 0.90927 0.5069 0.62262 0.0
C1378 C 0.95701 0.54449 0.63416 0.0
C1379 C 0.97754 0.51948 0.62333 0.0
C1380 C 0.96367 0.48816 0.61212 0.0
C1381 C 0.92954 0.48283 0.61166 0.0
C1382 C 0.97076 0.57919 0.64584 0.0
C1383 C 0.98488 0.45993 0.6008 0.0
C1384 C 0.06292 0.55913 0.61211 0.0
C1385 C 0.08198 0.53737 0.6244 0.0
C1386 C 0.02875 0.55442 0.61188 0.0
C1387 C 0.01357 0.526 0.6238 0.0
C1388 C 0.03282 0.50374 0.63615 0.0
C1389 C 0.06679 0.51032 0.6365 0.0
C1390 C 0.00892 0.57986 0.59891 0.0
C1391 C 0.01764 0.4722 0.64873 0.0
H1392 H 0.90732 0.55626 0.64223 0.0
H1393 H 0.91873 0.45917 0.60302 0.0
H1394 H 0.98769 0.56459 0.65541 0.0
H1395 H 0.98515 0.60277 0.63813 0.0
H1396 H 0.9513 0.59698 0.65291 0.0
H1397 H 0.97033 0.43596 0.59334 0.0
H1398 H -0.00112 0.48026 0.59159 0.0
H1399 H 0.00297 0.44226 0.60886 0.0
H1400 H 0.07473 0.58019 0.6028 0.0
H1401 H 0.08164 0.49308 0.64586 0.0
H1402 H 0.98978 0.59895 0.60566 0.0
H1403 H 0.99621 0.55743 0.58995 0.0
H1404 H 0.02431 0.60232 0.59119 0.0
H1405 H -0.00054 0.48903 0.65697 0.0
H1406 H 0.03617 0.45668 0.65722 0.0
H1407 H 0.00438 0.4465 0.64155 0.0
C1408 C 0.92722 0.5097 0.40173 0.0
C1409 C 0.91313 0.5364 0.38912 0.0
C1410 C 0.96121 0.50315 0.40228 0.0
C1411 C 0.98153 0.52505 0.39031 0.0
C1412 C 0.96745 0.5534 0.378 0.0
C1413 C 0.93331 0.55808 0.37734 0.0
C1414 C 0.97522 0.47163 0.41524 0.0
C1415 C 0.98839 0.57842 0.3654 0.0
C1416 C 0.0721 0.535 0.40071 0.0
C1417 C 0.08574 0.50497 0.38923 0.0
C1418 C 0.03818 0.54209 0.40116 0.0
C1419 C 0.01745 0.51735 0.3903 0.0
C1420 C 0.03112 0.48591 0.3791 0.0
C1421 C 0.06523 0.48072 0.37844 0.0
C1422 C 0.02463 0.57694 0.41282 0.0
C1423 C 0.00975 0.45789 0.36775 0.0
H1424 H 0.91153 0.49251 0.4107 0.0
H1425 H 0.92235 0.57887 0.36764 0.0
H1426 H 0.98786 0.44493 0.40834 0.0
H1427 H 0.99373 0.48794 0.42345 0.0
H1428 H 0.95608 0.45747 0.42372 0.0
H1429 H 0.97383 0.60169 0.3576 0.0
H1430 H 0.00771 0.59654 0.37244 0.0
H1431 H 0.00087 0.55571 0.35647 0.0
H1432 H 0.0881 0.55411 0.4089 0.0
H1433 H 0.07588 0.45736 0.36962 0.0
H1434 H 0.00654 0.56292 0.42191 0.0
H1435 H 0.0116 0.60158 0.40497 0.0
H1436 H 0.04409 0.59338 0.42042 0.0
H1437 H 0.99077 0.44156 0.37567 0.0
H1438 H 0.02405 0.43283 0.36075 0.0
H1439 H 0.99685 0.47828 0.35812 0.0
C1440 C 0.42584 0.03965 0.61195 0.0
C1441 C 0.41086 0.00868 0.62254 0.0
C1442 C 0.45988 0.04542 0.61218 0.0
C1443 C 0.47943 0.01833 0.62273 0.0
C1444 C 0.46438 0.98652 0.63327 0.0
C1445 C 0.43011 0.98268 0.63331 0.0
C1446 C 0.47488 0.08073 0.60124 0.0
C1447 C 0.48448 0.95607 0.64425 0.0
C1448 C 0.56846 0.00675 0.60947 0.0
C1449 C 0.58429 0.03209 0.62194 0.0
C1450 C 0.53437 0.00128 0.6098 0.0
C1451 C 0.51565 0.02297 0.62253 0.0
C1452 C 0.53151 0.04942 0.63492 0.0
C1453 C 0.56576 0.05301 0.63468 0.0
C1454 C 0.51845 0.97176 0.5967 0.0
C1455 C 0.51229 0.07423 0.64832 0.0
H1456 H 0.41078 0.06008 0.60378 0.0
H1457 H 0.41839 0.95863 0.64143 0.0
H1458 H 0.49002 0.10241 0.60943 0.0
H1459 H 0.49133 0.06634 0.5914 0.0
H1460 H 0.45608 0.10053 0.59452 0.0
H1461 H 0.46906 0.93231 0.6513 0.0
H1462 H 0.50205 0.93812 0.63599 0.0
H1463 H 0.49904 0.97469 0.65379 0.0
H1464 H 0.58287 0.99012 0.59976 0.0
H1465 H 0.57806 0.07274 0.64428 0.0
H1466 H 0.50115 0.99041 0.58854 0.0
H1467 H 0.50407 0.94634 0.60341 0.0
H1468 H 0.53665 0.95582 0.58814 0.0
H1469 H 0.49398 0.09533 0.64189 0.0
H1470 H 0.52826 0.09467 0.65661 0.0
H1471 H 0.49862 0.05144 0.65672 0.0
C1472 C 0.42725 1.00037 0.3768 0.0
C1473 C 0.41192 0.02946 0.38807 0.0
C1474 C 0.46125 0.99418 0.37734 0.0
C1475 C 0.48039 0.01892 0.38897 0.0
C1476 C 0.465 0.04882 0.40022 0.0
C1477 C 0.4308 0.05313 0.39986 0.0
C1478 C 0.47665 0.96106 0.36551 0.0
C1479 C 0.4847 0.07685 0.41237 0.0
C1480 C 0.56667 0.98184 0.40002 0.0
C1481 C 0.58517 0.005 0.38792 0.0
C1482 C 0.5324 0.98569 0.40043 0.0
C1483 C 0.51661 0.01457 0.38889 0.0
C1484 C 0.53539 0.03887 0.37698 0.0
C1485 C 0.56939 0.03319 0.37644 0.0
C1486 C 0.51307 0.95826 0.41294 0.0
C1487 C 0.5196 0.071 0.36485 0.0
H1488 H 0.41253 0.98167 0.36784 0.0
H1489 H 0.41885 0.07574 0.40852 0.0
H1490 H 0.49332 0.97732 0.35625 0.0
H1491 H 0.49161 0.93795 0.37314 0.0
H1492 H 0.45809 0.94252 0.35806 0.0
H1493 H 0.469 0.09887 0.42012 0.0
H1494 H 0.49913 0.05632 0.42132 0.0
H1495 H 0.50238 0.09669 0.40489 0.0
H1496 H 0.57894 0.9599 0.40884 0.0
H1497 H 0.5838 0.0515 0.36721 0.0
H1498 H 0.49538 0.9378 0.40573 0.0
H1499 H 0.49867 0.97923 0.42174 0.0
H1500 H 0.52902 0.93691 0.42085 0.0
H1501 H 0.50283 0.05394 0.35586 0.0
H1502 H 0.53791 0.08916 0.3571 0.0
H1503 H 0.50467 0.09453 0.37228 0.0
C1504 C 0.56427 0.56046 0.12854 0.0
C1505 C 0.58521 0.53551 0.11827 0.0
C1506 C 0.53021 0.55515 0.12755 0.0
C1507 C 0.51698 0.52284 0.11658 0.0
C1508 C 0.53812 0.49769 0.10612 0.0
C1509 C 0.57203 0.50493 0.10686 0.0
C1510 C 0.50842 0.58361 0.13848 0.0
C1511 C 0.52508 0.46193 0.09473 0.0
C1512 C 0.43381 0.48092 0.13053 0.0
C1513 C 0.41293 0.50156 0.11877 0.0
C1514 C 0.46786 0.48619 0.12949 0.0
C1515 C 0.4812 0.514 0.11676 0.0
C1516 C 0.46021 0.53456 0.10472 0.0
C1517 C 0.42628 0.52752 0.10571 0.0
C1518 C 0.48949 0.46261 0.14222 0.0
C1519 C 0.47342 0.56539 0.09129 0.0
H1520 H 0.57459 0.58422 0.13731 0.0
H1521 H 0.58837 0.48528 0.09909 0.0
H1522 H 0.48901 0.59846 0.13037 0.0
H1523 H 0.49607 0.5638 0.14849 0.0
H1524 H 0.52232 0.60985 0.14501 0.0
H1525 H 0.54469 0.44616 0.08703 0.0
H1526 H 0.51303 0.43694 0.10284 0.0
H1527 H 0.50627 0.47477 0.08576 0.0
H1528 H 0.42347 0.46065 0.14058 0.0
H1529 H 0.41008 0.54389 0.09673 0.0
H1530 H 0.50161 0.48627 0.15091 0.0
H1531 H 0.50906 0.44479 0.13528 0.0
H1532 H 0.47551 0.43928 0.15028 0.0
H1533 H 0.48525 0.59337 0.09779 0.0
H1534 H 0.45395 0.57774 0.08256 0.0
H1535 H 0.49245 0.54923 0.08337 0.0
C1536 C 0.43498 0.56766 0.88814 0.0
C1537 C 0.41461 0.53146 0.88938 0.0
C1538 C 0.46916 0.56295 0.88859 0.0
C1539 C 0.48293 0.52099 0.89011 0.0
C1540 C 0.4622 0.48438 0.89145 0.0
C1541 C 0.42816 0.49014 0.89114 0.0
C1542 C 0.4905 0.60272 0.88726 0.0
C1543 C 0.47596 0.43915 0.89292 0.0
C1544 C 0.56959 0.50479 0.87375 0.0
C1545 C 0.58772 0.50522 0.88916 0.0
C1546 C 0.53545 0.50961 0.8739 0.0
C1547 C 0.51903 0.51522 0.88983 0.0
C1548 C 0.53707 0.51532 0.90545 0.0
C1549 C 0.5712 0.51017 0.90493 0.0
C1550 C 0.51698 0.50897 0.85699 0.0
C1551 C 0.52035 0.52137 0.92267 0.0
H1552 H 0.42415 0.59953 0.88675 0.0
H1553 H 0.41206 0.46229 0.89201 0.0
H1554 H 0.50736 0.60438 0.89849 0.0
H1555 H 0.50584 0.60081 0.87546 0.0
H1556 H 0.47593 0.63307 0.88676 0.0
H1557 H 0.45646 0.41426 0.89415 0.0
H1558 H 0.49092 0.43159 0.88135 0.0
H1559 H 0.49234 0.43686 0.90432 0.0
H1560 H 0.58207 0.50091 0.86149 0.0
H1561 H 0.58497 0.5107 0.9169 0.0
H1562 H 0.50393 0.54013 0.85514 0.0
H1563 H 0.49822 0.483 0.85719 0.0
H1564 H 0.53336 0.50359 0.84574 0.0
H1565 H 0.50733 0.5529 0.9229 0.0
H1566 H 0.53788 0.52044 0.93365 0.0
H1567 H 0.50172 0.4957 0.92462 0.0
C1568 C 0.19951 0.98431 0.96973 0.0
C1569 C 0.21964 0.00987 0.95922 0.0
C1570 C 0.20073 0.9879 0.9878 0.0
C1571 C 0.22167 0.01901 0.99549 0.0
C1572 C 0.24178 0.04527 0.98488 0.0
C1573 C 0.24096 0.0398 0.96686 0.0
C1574 C 0.17969 0.95832 0.99866 0.0
C1575 C 0.26356 0.07983 0.99252 0.0
C1576 C 0.19797 0.05538 0.04072 0.0
C1577 C 0.22124 0.03393 0.05089 0.0
C1578 C 0.19846 0.05182 0.02264 0.0
C1579 C 0.22193 0.02468 0.01462 0.0
C1580 C 0.24522 0.00247 0.02491 0.0
C1581 C 0.245 0.00808 0.04293 0.0
C1582 C 0.17395 0.07724 0.01212 0.0
C1583 C 0.26985 0.97202 0.01692 0.0
H1584 H 0.18318 0.96094 0.96379 0.0
H1585 H 0.25629 0.05987 0.9587 0.0
H1586 H 0.19506 0.94105 0.00828 0.0
H1587 H 0.16145 0.97762 0.00595 0.0
H1588 H 0.16643 0.93398 0.99074 0.0
H1589 H 0.27723 0.09805 0.98247 0.0
H1590 H 0.24857 0.10304 1.00009 0.0
H1591 H 0.28144 0.06507 1.00156 0.0
H1592 H 0.17974 0.0756 0.04693 0.0
H1593 H 0.26276 0.99116 0.05086 0.0
H1594 H 0.15744 0.05477 0.00512 0.0
H1595 H 0.18683 0.09704 1.00228 0.0
H1596 H 0.15878 0.09903 0.02026 0.0
H1597 H 0.25691 0.94629 0.00959 0.0
H1598 H 0.28581 0.95648 0.02676 0.0
H1599 H 0.28554 0.98974 0.00762 0.0
C1600 C 0.80032 0.05654 0.9695 0.0
C1601 C 0.78058 0.03058 0.95893 0.0
C1602 C 0.79917 0.05268 0.98758 0.0
C1603 C 0.77878 0.02083 0.9952 0.0
C1604 C 0.7591 0.99415 0.98451 0.0
C1605 C 0.75976 0.99995 0.96651 0.0
C1606 C 0.81967 0.08276 0.99851 0.0
C1607 C 0.73796 0.95879 0.99206 0.0
C1608 C 0.80288 0.98423 0.04037 0.0
C1609 C 0.77909 0.00455 0.05056 0.0
C1610 C 0.80251 0.9883 0.0223 0.0
C1611 C 0.7786 0.01487 0.01432 0.0
C1612 C 0.75482 0.03604 0.02464 0.0
C1613 C 0.75496 0.02988 0.04263 0.0
C1614 C 0.82755 0.96393 0.01176 0.0
C1615 C 0.7297 0.06589 0.01671 0.0
H1616 H 0.81626 0.08044 0.96362 0.0
H1617 H 0.74475 0.97957 0.95829 0.0
H1618 H 0.804 0.09939 0.00816 0.0
H1619 H 0.83827 0.06395 0.00576 0.0
H1620 H 0.83247 0.10764 0.99065 0.0
H1621 H 0.72469 0.94021 0.98195 0.0
H1622 H 0.75336 0.93601 0.99961 0.0
H1623 H 0.71977 0.97285 1.00108 0.0
H1624 H 0.82141 0.9644 0.04655 0.0
H1625 H 0.73678 0.04593 0.05058 0.0
H1626 H 0.8436 0.98707 0.00481 0.0
H1627 H 0.81508 0.94381 1.00186 0.0
H1628 H 0.84316 0.94258 0.01986 0.0
H1629 H 0.7422 0.09202 0.0094 0.0
H1630 H 0.71355 0.08091 0.02657 0.0
H1631 H 0.71424 0.04782 0.00739 0.0
C1632 C 0.17786 0.52579 0.54203 0.0
C1633 C 0.20779 0.53123 0.55067 0.0
C1634 C 0.17681 0.5173 0.52423 0.0
C1635 C 0.20641 0.51383 0.51483 0.0
C1636 C 0.23672 0.51941 0.52345 0.0
C1637 C 0.23705 0.5282 0.54126 0.0
C1638 C 0.14398 0.51185 0.5155 0.0
C1639 C 0.26878 0.51571 0.51387 0.0
C1640 C 0.2022 0.45172 0.4725 0.0
C1641 C 0.19995 0.48537 0.46038 0.0
C1642 C 0.20502 0.46053 0.49023 0.0
C1643 C 0.20549 0.50404 0.49601 0.0
C1644 C 0.20378 0.53816 0.48383 0.0
C1645 C 0.20109 0.52842 0.46617 0.0
C1646 C 0.20693 0.42327 0.50283 0.0
C1647 C 0.20412 0.58497 0.48948 0.0
H1648 H 0.15512 0.52819 0.54917 0.0
H1649 H 0.26028 0.53219 0.54785 0.0
H1650 H 0.14143 0.53567 0.50485 0.0
H1651 H 0.14222 0.4791 0.50968 0.0
H1652 H 0.12322 0.51621 0.5246 0.0
H1653 H 0.29023 0.52123 0.52242 0.0
H1654 H 0.27095 0.48305 0.508 0.0
H1655 H 0.26957 0.53957 0.50316 0.0
H1656 H 0.20147 0.41837 0.46815 0.0
H1657 H 0.19945 0.55467 0.45691 0.0
H1658 H 0.18536 0.42388 0.51153 0.0
H1659 H 0.22905 0.4265 0.51105 0.0
H1660 H 0.20771 0.39136 0.49621 0.0
H1661 H 0.18246 0.59168 0.4977 0.0
H1662 H 0.20384 0.60769 0.47835 0.0
H1663 H 0.2262 0.59161 0.4974 0.0
C1664 C 0.754 0.5082 0.46597 0.0
C1665 C 0.77872 0.53243 0.45801 0.0
C1666 C 0.7538 0.50214 0.48398 0.0
C1667 C 0.77813 0.52234 0.49427 0.0
C1668 C 0.80271 0.54771 0.48624 0.0
C1669 C 0.8031 0.55166 0.46816 0.0
C1670 C 0.72792 0.47353 0.49195 0.0
C1671 C 0.82838 0.57107 0.49675 0.0
C1672 C 0.7591 0.53908 0.54196 0.0
C1673 C 0.77897 0.50765 0.54972 0.0
C1674 C 0.75889 0.54461 0.52393 0.0
C1675 C 0.77802 0.51684 0.51342 0.0
C1676 C 0.79747 0.48427 0.52123 0.0
C1677 C 0.79824 0.48068 0.53933 0.0
C1678 C 0.7388 0.58076 0.51619 0.0
C1679 C 0.81731 0.45304 0.51048 0.0
H1680 H 0.73535 0.49298 0.45806 0.0
H1681 H 0.82208 0.57064 0.46195 0.0
H1682 H 0.73973 0.44717 0.49945 0.0
H1683 H 0.71276 0.49251 0.5011 0.0
H1684 H 0.71156 0.45882 0.48209 0.0
H1685 H 0.84466 0.59139 0.4886 0.0
H1686 H 0.81642 0.5921 0.50651 0.0
H1687 H 0.84367 0.54734 0.50385 0.0
H1688 H 0.74446 0.56022 0.55004 0.0
H1689 H 0.81344 0.45618 0.54536 0.0
H1690 H 0.72022 0.56732 0.50722 0.0
H1691 H 0.75484 0.60251 0.50853 0.0
H1692 H 0.72606 0.6003 0.52618 0.0
H1693 H 0.80129 0.43682 0.50087 0.0
H1694 H 0.82945 0.42787 0.51849 0.0
H1695 H 0.83639 0.47085 0.50319 0.0
C1696 C 0.69851 0.05238 0.53992 0.0
C1697 C 0.71691 0.02431 0.5503 0.0
C1698 C 0.69948 0.0492 0.52182 0.0
C1699 C 0.7182 0.01595 0.51397 0.0
C1700 C 0.73646 0.98712 0.52447 0.0
C1701 C 0.73611 0.99223 0.54251 0.0
C1702 C 0.68062 0.08155 0.5111 0.0
C1703 C 0.75574 0.95027 0.51668 0.0
C1704 C 0.69277 0.98335 0.46848 0.0
C1705 C 0.71771 0.00179 0.45849 0.0
C1706 C 0.69307 0.98682 0.48658 0.0
C1707 C 0.71819 0.01088 0.4948 0.0
C1708 C 0.74313 0.03026 0.48468 0.0
C1709 C 0.74294 0.02471 0.46665 0.0
C1710 C 0.66671 0.96437 0.4969 0.0
C1711 C 0.76963 0.05749 0.49286 0.0
H1712 H 0.68383 0.07738 0.54598 0.0
H1713 H 0.75007 0.97025 0.55058 0.0
H1714 H 0.69717 0.09721 0.5016 0.0
H1715 H 0.66115 0.06479 0.50368 0.0
H1716 H 0.66906 0.10712 0.51914 0.0
H1717 H 0.76789 0.93 0.52666 0.0
H1718 H 0.73925 0.92937 0.5089 0.0
H1719 H 0.77473 0.96307 0.50781 0.0
H1720 H 0.67339 0.96536 0.46214 0.0
H1721 H 0.76205 0.03933 0.45887 0.0
H1722 H 0.65193 0.98861 0.50403 0.0
H1723 H 0.678 0.94262 0.50664 0.0
H1724 H 0.65003 0.94496 0.48862 0.0
H1725 H 0.75843 0.08423 0.5004 0.0
H1726 H 0.78651 0.07162 0.48313 0.0
H1727 H 0.78415 0.03763 0.50201 0.0
C1728 C 0.30285 0.05753 0.46938 0.0
C1729 C 0.27932 0.03695 0.4591 0.0
C1730 C 0.30197 0.05398 0.48745 0.0
C1731 C 0.27777 0.02775 0.49535 0.0
C1732 C 0.25415 0.00647 0.48495 0.0
C1733 C 0.25484 0.01203 0.46694 0.0
C1734 C 0.32689 0.07837 0.49809 0.0
C1735 C 0.2287 0.97701 0.49282 0.0
C1736 C 0.29858 0.98629 0.54028 0.0
C1737 C 0.27888 0.0126 0.55071 0.0
C1738 C 0.29769 0.98999 0.5222 0.0
C1739 C 0.2776 0.02198 0.51446 0.0
C1740 C 0.25791 0.04895 0.52501 0.0
C1741 C 0.25833 0.04335 0.54302 0.0
C1742 C 0.3182 0.95964 0.5114 0.0
C1743 C 0.23707 0.08442 0.51731 0.0
H1744 H 0.32166 0.077 0.46327 0.0
H1745 H 0.23687 0.99574 0.45893 0.0
H1746 H 0.31432 0.09859 0.50791 0.0
H1747 H 0.34279 0.05522 0.50513 0.0
H1748 H 0.34265 0.09962 0.49004 0.0
H1749 H 0.2125 0.96221 0.48291 0.0
H1750 H 0.24093 0.9507 0.50016 0.0
H1751 H 0.21334 0.99529 0.50209 0.0
H1752 H 0.31432 0.96233 0.54626 0.0
H1753 H 0.24337 0.064 0.55114 0.0
H1754 H 0.33704 0.97824 0.50424 0.0
H1755 H 0.30261 0.94311 0.50168 0.0
H1756 H 0.33072 0.93469 0.51936 0.0
H1757 H 0.25273 0.1071 0.50986 0.0
H1758 H 0.22363 0.10308 0.52732 0.0
H1759 H 0.21905 0.07046 0.50815 0.0
C1760 C 0.74856 0.51317 0.04304 0.0
C1761 C 0.72212 0.53395 0.05102 0.0
C1762 C 0.7494 0.50771 0.02501 0.0
C1763 C 0.72382 0.52501 0.01473 0.0
C1764 C 0.69745 0.54694 0.02277 0.0
C1765 C 0.6966 0.55036 0.04086 0.0
C1766 C 0.7773 0.48274 0.017 0.0
C1767 C 0.67027 0.56714 0.01228 0.0
C1768 C 0.74091 0.54545 0.96707 0.0
C1769 C 0.72306 0.51207 0.95925 0.0
C1770 C 0.74122 0.55026 0.98513 0.0
C1771 C 0.72436 0.51987 0.99558 0.0
C1772 C 0.70719 0.48524 0.98768 0.0
C1773 C 0.70616 0.48232 0.96958 0.0
C1774 C 0.75875 0.58854 0.99299 0.0
C1775 C 0.68989 0.45129 0.99834 0.0
H1776 H 0.76813 0.50012 0.05095 0.0
H1777 H 0.67627 0.56672 0.04706 0.0
H1778 H 0.76753 0.45499 0.00948 0.0
H1779 H 0.79093 0.50368 0.00785 0.0
H1780 H 0.79472 0.47023 0.02683 0.0
H1781 H 0.6526 0.58524 0.02045 0.0
H1782 H 0.6807 0.58967 1.00256 0.0
H1783 H 0.65674 0.54168 0.00513 0.0
H1784 H 0.75369 0.56869 0.95903 0.0
H1785 H 0.69254 0.45635 0.96347 0.0
H1786 H 0.77802 0.57727 1.00202 0.0
H1787 H 0.74121 0.60828 1.00059 0.0
H1788 H 0.77027 0.60956 0.98306 0.0
H1789 H 0.70703 0.43727 0.00797 0.0
H1790 H 0.67987 0.42466 0.99027 0.0
H1791 H 0.66944 0.46628 0.00561 0.0
C1792 C 0.31442 0.52112 0.96835 0.0
C1793 C 0.28447 0.52632 0.95969 0.0
C1794 C 0.31555 0.51393 0.98623 0.0
C1795 C 0.28601 0.5115 0.99572 0.0
C1796 C 0.25567 0.51677 0.9871 0.0
C1797 C 0.25527 0.52431 0.96919 0.0
C1798 C 0.34842 0.5088 0.99495 0.0
C1799 C 0.22366 0.51406 0.99678 0.0
C1800 C 0.29089 0.45191 0.03859 0.0
C1801 C 0.29372 0.48622 0.05039 0.0
C1802 C 0.28751 0.45971 0.02081 0.0
C1803 C 0.28706 0.50287 0.01464 0.0
C1804 C 0.28922 0.53767 0.0265 0.0
C1805 C 0.29246 0.52894 0.04423 0.0
C1806 C 0.28513 0.42173 0.00859 0.0
C1807 C 0.28893 0.58413 0.02042 0.0
H1808 H 0.33714 0.52279 0.96114 0.0
H1809 H 0.23202 0.52816 0.9626 0.0
H1810 H 0.35116 0.53329 0.00534 0.0
H1811 H 0.35007 0.47643 1.0011 0.0
H1812 H 0.36914 0.51241 0.98577 0.0
H1813 H 0.20218 0.51924 0.98822 0.0
H1814 H 0.22133 0.48182 1.00299 0.0
H1815 H 0.22311 0.53862 0.00724 0.0
H1816 H 0.29169 0.41881 0.04322 0.0
H1817 H 0.29453 0.55568 0.05324 0.0
H1818 H 0.30664 0.42145 0.99984 0.0
H1819 H 0.26298 0.42482 1.00037 0.0
H1820 H 0.28409 0.39025 0.01551 0.0
H1821 H 0.31058 0.59029 0.01212 0.0
H1822 H 0.28931 0.60749 0.03134 0.0
H1823 H 0.26684 0.59039 0.01246 0.0
loop_
_geom_bond_atom_site_label_1
_geom_bond_atom_site_label_2
_geom_bond_distance
_geom_bond_site_symmetry_2
_ccdc_geom_bond_type
Co0 O3 1.970 . S
Co0 N17 1.989 1_545 S
Co0 O25 1.967 . S
Co0 O32 1.920 . S
Co1 O4 1.966 . S
Co1 N10 2.022 . S
Co1 N18 1.993 1_545 S
Co1 O26 1.941 . S
C2 O3 1.258 . S
C2 O4 1.263 . S
O3 Co0 1.970 . S
O3 C2 1.258 . S
O4 Co1 1.966 . S
O4 C2 1.263 . S
C5 O6 1.235 . S
C5 O32 1.289 . S
O6 C5 1.235 . S
C7 C9 1.400 . S
C7 N10 1.351 . S
C7 C12 1.501 . S
C8 C9 1.387 1_565 S
C8 N11 1.341 . S
C9 C7 1.400 . S
C9 C8 1.387 1_545 S
N10 Co1 2.022 . S
N10 C7 1.351 . S
N10 N11 1.365 1_545 S
N11 C8 1.341 . S
N11 N10 1.365 1_565 S
N11 H31 0.862 . S
C12 C7 1.501 . S
C12 H13 0.961 . S
C12 H14 0.961 . S
C12 H15 0.960 . S
H13 C12 0.961 . S
H14 C12 0.961 . S
H15 C12 0.960 . S
C16 N17 1.342 . S
C16 C20 1.401 . S
C16 C21 1.499 . S
N17 Co0 1.989 1_565 S
N17 C16 1.342 . S
N17 N18 1.388 . S
N18 Co1 1.993 1_565 S
N18 N17 1.388 . S
N18 C19 1.346 . S
C19 N18 1.346 . S
C19 C20 1.396 . S
C19 C29 1.510 . S
C20 C16 1.401 . S
C20 C19 1.396 . S
C21 C16 1.499 . S
C21 H22 0.959 . S
C21 H23 0.960 . S
C21 H24 0.961 . S
H22 C21 0.959 . S
H23 C21 0.960 . S
H24 C21 0.961 . S
O25 Co0 1.967 . S
O25 C33 1.258 . S
O26 Co1 1.941 . S
O26 C33 1.266 . S
H27 C29 0.959 . S
H28 C29 0.961 . S
C29 C19 1.510 . S
C29 H27 0.959 . S
C29 H28 0.961 . S
C29 H30 0.960 . S
H30 C29 0.960 . S
H31 N11 0.862 . S
O32 Co0 1.920 . S
O32 C5 1.289 . S
C33 O25 1.258 . S
C33 O26 1.266 . S
Co34 O37 1.970 1_545 S
Co34 N51 1.989 . S
Co34 O59 1.967 . S
Co34 O66 1.920 . S
Co35 O38 1.966 1_545 S
Co35 N44 2.022 . S
Co35 N52 1.993 . S
Co35 O60 1.941 . S
C36 O37 1.258 . S
C36 O38 1.263 . S
O37 Co34 1.970 1_565 S
O37 C36 1.258 . S
O38 Co35 1.966 1_565 S
O38 C36 1.263 . S
C39 O40 1.235 . S
C39 O66 1.289 . S
O40 C39 1.235 . S
C41 C43 1.400 . S
C41 N44 1.351 . S
C41 C46 1.501 1_545 S
C42 C43 1.387 . S
C42 N45 1.341 . S
C43 C41 1.400 . S
C43 C42 1.387 . S
N44 Co35 2.022 . S
N44 C41 1.351 . S
N44 N45 1.365 . S
N45 C42 1.341 . S
N45 N44 1.365 . S
N45 H65 0.862 . S
C46 C41 1.501 1_565 S
C46 H47 0.961 . S
C46 H48 0.961 . S
C46 H49 0.960 . S
H47 C46 0.961 . S
H48 C46 0.961 . S
H49 C46 0.960 . S
C50 N51 1.342 . S
C50 C54 1.401 . S
C50 C55 1.499 . S
N51 Co34 1.989 . S
N51 C50 1.342 . S
N51 N52 1.388 . S
N52 Co35 1.993 . S
N52 N51 1.388 . S
N52 C53 1.346 . S
C53 N52 1.346 . S
C53 C54 1.396 . S
C53 C63 1.510 . S
C54 C50 1.401 . S
C54 C53 1.396 . S
C55 C50 1.499 . S
C55 H56 0.959 . S
C55 H57 0.960 . S
C55 H58 0.961 . S
H56 C55 0.959 . S
H57 C55 0.960 . S
H58 C55 0.961 . S
O59 Co34 1.967 . S
O59 C67 1.258 . S
O60 Co35 1.941 . S
O60 C67 1.266 . S
H61 C63 0.959 . S
H62 C63 0.961 . S
C63 C53 1.510 . S
C63 H61 0.959 . S
C63 H62 0.961 . S
C63 H64 0.960 . S
H64 C63 0.960 . S
H65 N45 0.862 . S
O66 Co34 1.920 . S
O66 C39 1.289 . S
C67 O59 1.258 . S
C67 O60 1.266 . S
Co68 O71 1.970 1_545 S
Co68 N85 1.989 . S
Co68 O93 1.967 . S
Co68 O100 1.920 . S
Co69 O72 1.966 1_545 S
Co69 N78 2.022 . S
Co69 N86 1.993 . S
Co69 O94 1.941 . S
C70 O71 1.258 . S
C70 O72 1.263 . S
O71 Co68 1.970 1_565 S
O71 C70 1.258 . S
O72 Co69 1.966 1_565 S
O72 C70 1.263 . S
C73 O74 1.235 . S
C73 O100 1.289 . S
O74 C73 1.235 . S
C75 C77 1.400 . S
C75 N78 1.351 . S
C75 C80 1.501 1_545 S
C76 C77 1.387 . S
C76 N79 1.341 . S
C77 C75 1.400 . S
C77 C76 1.387 . S
N78 Co69 2.022 . S
N78 C75 1.351 . S
N78 N79 1.365 . S
N79 C76 1.341 . S
N79 N78 1.365 . S
N79 H99 0.862 . S
C80 C75 1.501 1_565 S
C80 H81 0.961 . S
C80 H82 0.961 . S
C80 H83 0.960 . S
H81 C80 0.961 . S
H82 C80 0.961 . S
H83 C80 0.960 . S
C84 N85 1.342 . S
C84 C88 1.401 . S
C84 C89 1.499 . S
N85 Co68 1.989 . S
N85 C84 1.342 . S
N85 N86 1.388 . S
N86 Co69 1.993 . S
N86 N85 1.388 . S
N86 C87 1.346 . S
C87 N86 1.346 . S
C87 C88 1.396 . S
C87 C97 1.510 . S
C88 C84 1.401 . S
C88 C87 1.396 . S
C89 C84 1.499 . S
C89 H90 0.959 . S
C89 H91 0.960 . S
C89 H92 0.961 . S
H90 C89 0.959 . S
H91 C89 0.960 . S
H92 C89 0.961 . S
O93 Co68 1.967 . S
O93 C101 1.258 . S
O94 Co69 1.941 . S
O94 C101 1.266 . S
H95 C97 0.959 . S
H96 C97 0.961 . S
C97 C87 1.510 . S
C97 H95 0.959 . S
C97 H96 0.961 . S
C97 H98 0.960 . S
H98 C97 0.960 . S
H99 N79 0.862 . S
O100 Co68 1.920 . S
O100 C73 1.289 . S
C101 O93 1.258 . S
C101 O94 1.266 . S
Co102 O105 1.970 . S
Co102 N119 1.989 1_545 S
Co102 O127 1.967 . S
Co102 O134 1.920 . S
Co103 O106 1.966 . S
Co103 N112 2.022 . S
Co103 N120 1.993 1_545 S
Co103 O128 1.941 . S
C104 O105 1.258 . S
C104 O106 1.263 . S
O105 Co102 1.970 . S
O105 C104 1.258 . S
O106 Co103 1.966 . S
O106 C104 1.263 . S
C107 O108 1.235 . S
C107 O134 1.289 . S
O108 C107 1.235 . S
C109 C111 1.400 . S
C109 N112 1.351 . S
C109 C114 1.501 . S
C110 C111 1.387 1_565 S
C110 N113 1.341 . S
C111 C109 1.400 . S
C111 C110 1.387 1_545 S
N112 Co103 2.022 . S
N112 C109 1.351 . S
N112 N113 1.365 1_545 S
N113 C110 1.341 . S
N113 N112 1.365 1_565 S
N113 H133 0.862 . S
C114 C109 1.501 . S
C114 H115 0.961 . S
C114 H116 0.961 . S
C114 H117 0.960 . S
H115 C114 0.961 . S
H116 C114 0.961 . S
H117 C114 0.960 . S
C118 N119 1.342 . S
C118 C122 1.401 . S
C118 C123 1.499 . S
N119 Co102 1.989 1_565 S
N119 C118 1.342 . S
N119 N120 1.388 . S
N120 Co103 1.993 1_565 S
N120 N119 1.388 . S
N120 C121 1.346 . S
C121 N120 1.346 . S
C121 C122 1.396 . S
C121 C131 1.510 . S
C122 C118 1.401 . S
C122 C121 1.396 . S
C123 C118 1.499 . S
C123 H124 0.959 . S
C123 H125 0.960 . S
C123 H126 0.961 . S
H124 C123 0.959 . S
H125 C123 0.960 . S
H126 C123 0.961 . S
O127 Co102 1.967 . S
O127 C135 1.258 . S
O128 Co103 1.941 . S
O128 C135 1.266 . S
H129 C131 0.959 . S
H130 C131 0.961 . S
C131 C121 1.510 . S
C131 H129 0.959 . S
C131 H130 0.961 . S
C131 H132 0.960 . S
H132 C131 0.960 . S
H133 N113 0.862 . S
O134 Co102 1.920 . S
O134 C107 1.289 . S
C135 O127 1.258 . S
C135 O128 1.266 . S
Co136 O139 1.970 . S
Co136 N153 1.989 . S
Co136 O161 1.967 . S
Co136 O168 1.920 . S
Co137 O140 1.966 . S
Co137 N146 2.022 . S
Co137 N154 1.993 . S
Co137 O162 1.941 . S
C138 O139 1.258 . S
C138 O140 1.263 . S
O139 Co136 1.970 . S
O139 C138 1.258 . S
O140 Co137 1.966 . S
O140 C138 1.263 . S
C141 O142 1.235 . S
C141 O168 1.289 . S
O142 C141 1.235 . S
C143 C145 1.400 . S
C143 N146 1.351 . S
C143 C148 1.501 . S
C144 C145 1.387 . S
C144 N147 1.341 . S
C145 C143 1.400 . S
C145 C144 1.387 . S
N146 Co137 2.022 . S
N146 C143 1.351 . S
N146 N147 1.365 . S
N147 C144 1.341 . S
N147 N146 1.365 . S
N147 H167 0.862 . S
C148 C143 1.501 . S
C148 H149 0.961 . S
C148 H150 0.961 . S
C148 H151 0.960 . S
H149 C148 0.961 . S
H150 C148 0.961 . S
H151 C148 0.960 . S
C152 N153 1.342 . S
C152 C156 1.401 . S
C152 C157 1.499 . S
N153 Co136 1.989 . S
N153 C152 1.342 . S
N153 N154 1.388 . S
N154 Co137 1.993 . S
N154 N153 1.388 . S
N154 C155 1.346 . S
C155 N154 1.346 . S
C155 C156 1.396 . S
C155 C165 1.510 . S
C156 C152 1.401 . S
C156 C155 1.396 . S
C157 C152 1.499 . S
C157 H158 0.959 . S
C157 H159 0.960 . S
C157 H160 0.961 . S
H158 C157 0.959 . S
H159 C157 0.960 . S
H160 C157 0.961 . S
O161 Co136 1.967 . S
O161 C169 1.258 . S
O162 Co137 1.941 . S
O162 C169 1.266 . S
H163 C165 0.959 . S
H164 C165 0.961 . S
C165 C155 1.510 . S
C165 H163 0.959 . S
C165 H164 0.961 . S
C165 H166 0.960 . S
H166 C165 0.960 . S
H167 N147 0.862 . S
O168 Co136 1.920 . S
O168 C141 1.289 . S
C169 O161 1.258 . S
C169 O162 1.266 . S
Co170 O173 1.970 . S
Co170 N187 1.989 . S
Co170 O195 1.967 . S
Co170 O202 1.920 . S
Co171 O174 1.966 . S
Co171 N180 2.022 . S
Co171 N188 1.993 . S
Co171 O196 1.941 . S
C172 O173 1.258 . S
C172 O174 1.263 . S
O173 Co170 1.970 . S
O173 C172 1.258 . S
O174 Co171 1.966 . S
O174 C172 1.263 . S
C175 O176 1.235 . S
C175 O202 1.289 . S
O176 C175 1.235 . S
C177 C179 1.400 . S
C177 N180 1.351 . S
C177 C182 1.501 . S
C178 C179 1.387 . S
C178 N181 1.341 . S
C179 C177 1.400 . S
C179 C178 1.387 . S
N180 Co171 2.022 . S
N180 C177 1.351 . S
N180 N181 1.365 . S
N181 C178 1.341 . S
N181 N180 1.365 . S
N181 H201 0.862 . S
C182 C177 1.501 . S
C182 H183 0.961 . S
C182 H184 0.961 . S
C182 H185 0.960 . S
H183 C182 0.961 . S
H184 C182 0.961 . S
H185 C182 0.960 . S
C186 N187 1.342 . S
C186 C190 1.401 . S
C186 C191 1.499 . S
N187 Co170 1.989 . S
N187 C186 1.342 . S
N187 N188 1.388 . S
N188 Co171 1.993 . S
N188 N187 1.388 . S
N188 C189 1.346 . S
C189 N188 1.346 . S
C189 C190 1.396 . S
C189 C199 1.510 . S
C190 C186 1.401 . S
C190 C189 1.396 . S
C191 C186 1.499 . S
C191 H192 0.959 . S
C191 H193 0.960 . S
C191 H194 0.961 . S
H192 C191 0.959 . S
H193 C191 0.960 . S
H194 C191 0.961 . S
O195 Co170 1.967 . S
O195 C203 1.258 . S
O196 Co171 1.941 . S
O196 C203 1.266 . S
H197 C199 0.959 . S
H198 C199 0.961 . S
C199 C189 1.510 . S
C199 H197 0.959 . S
C199 H198 0.961 . S
C199 H200 0.960 . S
H200 C199 0.960 . S
H201 N181 0.862 . S
O202 Co170 1.920 . S
O202 C175 1.289 . S
C203 O195 1.258 . S
C203 O196 1.266 . S
Co204 O207 1.970 . S
Co204 N221 1.989 . S
Co204 O229 1.967 . S
Co204 O236 1.920 . S
Co205 O208 1.966 . S
Co205 N214 2.022 . S
Co205 N222 1.993 . S
Co205 O230 1.941 . S
C206 O207 1.258 . S
C206 O208 1.263 . S
O207 Co204 1.970 . S
O207 C206 1.258 . S
O208 Co205 1.966 . S
O208 C206 1.263 . S
C209 O210 1.235 . S
C209 O236 1.289 . S
O210 C209 1.235 . S
C211 C213 1.400 . S
C211 N214 1.351 . S
C211 C216 1.501 . S
C212 C213 1.387 . S
C212 N215 1.341 . S
C213 C211 1.400 . S
C213 C212 1.387 . S
N214 Co205 2.022 . S
N214 C211 1.351 . S
N214 N215 1.365 . S
N215 C212 1.341 . S
N215 N214 1.365 . S
N215 H235 0.862 . S
C216 C211 1.501 . S
C216 H217 0.961 . S
C216 H218 0.961 . S
C216 H219 0.960 . S
H217 C216 0.961 . S
H218 C216 0.961 . S
H219 C216 0.960 . S
C220 N221 1.342 . S
C220 C224 1.401 . S
C220 C225 1.499 . S
N221 Co204 1.989 . S
N221 C220 1.342 . S
N221 N222 1.388 . S
N222 Co205 1.993 . S
N222 N221 1.388 . S
N222 C223 1.346 . S
C223 N222 1.346 . S
C223 C224 1.396 . S
C223 C233 1.510 . S
C224 C220 1.401 . S
C224 C223 1.396 . S
C225 C220 1.499 . S
C225 H226 0.959 . S
C225 H227 0.960 . S
C225 H228 0.961 . S
H226 C225 0.959 . S
H227 C225 0.960 . S
H228 C225 0.961 . S
O229 Co204 1.967 . S
O229 C237 1.258 . S
O230 Co205 1.941 . S
O230 C237 1.266 . S
H231 C233 0.959 . S
H232 C233 0.961 . S
C233 C223 1.510 . S
C233 H231 0.959 . S
C233 H232 0.961 . S
C233 H234 0.960 . S
H234 C233 0.960 . S
H235 N215 0.862 . S
O236 Co204 1.920 . S
O236 C209 1.289 . S
C237 O229 1.258 . S
C237 O230 1.266 . S
Co238 O241 1.970 . S
Co238 N255 1.989 . S
Co238 O263 1.967 . S
Co238 O270 1.920 . S
Co239 O242 1.966 . S
Co239 N248 2.022 . S
Co239 N256 1.993 . S
Co239 O264 1.941 . S
C240 O241 1.258 . S
C240 O242 1.263 . S
O241 Co238 1.970 . S
O241 C240 1.258 . S
O242 Co239 1.966 . S
O242 C240 1.263 . S
C243 O244 1.235 . S
C243 O270 1.289 . S
O244 C243 1.235 . S
C245 C247 1.400 . S
C245 N248 1.351 . S
C245 C250 1.501 . S
C246 C247 1.387 . S
C246 N249 1.341 . S
C247 C245 1.400 . S
C247 C246 1.387 . S
N248 Co239 2.022 . S
N248 C245 1.351 . S
N248 N249 1.365 . S
N249 C246 1.341 . S
N249 N248 1.365 . S
N249 H269 0.862 . S
C250 C245 1.501 . S
C250 H251 0.961 . S
C250 H252 0.961 . S
C250 H253 0.960 . S
H251 C250 0.961 . S
H252 C250 0.961 . S
H253 C250 0.960 . S
C254 N255 1.342 . S
C254 C258 1.401 . S
C254 C259 1.499 . S
N255 Co238 1.989 . S
N255 C254 1.342 . S
N255 N256 1.388 . S
N256 Co239 1.993 . S
N256 N255 1.388 . S
N256 C257 1.346 . S
C257 N256 1.346 . S
C257 C258 1.396 . S
C257 C267 1.510 . S
C258 C254 1.401 . S
C258 C257 1.396 . S
C259 C254 1.499 . S
C259 H260 0.959 . S
C259 H261 0.960 . S
C259 H262 0.961 . S
H260 C259 0.959 . S
H261 C259 0.960 . S
H262 C259 0.961 . S
O263 Co238 1.967 . S
O263 C271 1.258 . S
O264 Co239 1.941 . S
O264 C271 1.266 . S
H265 C267 0.959 . S
H266 C267 0.961 . S
C267 C257 1.510 . S
C267 H265 0.959 . S
C267 H266 0.961 . S
C267 H268 0.960 . S
H268 C267 0.960 . S
H269 N249 0.862 . S
O270 Co238 1.920 . S
O270 C243 1.289 . S
C271 O263 1.258 . S
C271 O264 1.266 . S
Co272 O275 1.970 . S
Co272 N289 1.989 1_545 S
Co272 O297 1.967 . S
Co272 O304 1.920 . S
Co273 O276 1.966 . S
Co273 N282 2.022 . S
Co273 N290 1.993 1_545 S
Co273 O298 1.941 . S
C274 O275 1.258 . S
C274 O276 1.263 . S
O275 Co272 1.970 . S
O275 C274 1.258 . S
O276 Co273 1.966 . S
O276 C274 1.263 . S
C277 O278 1.235 . S
C277 O304 1.289 . S
O278 C277 1.235 . S
C279 C281 1.400 . S
C279 N282 1.351 . S
C279 C284 1.501 . S
C280 C281 1.387 1_565 S
C280 N283 1.341 . S
C281 C279 1.400 . S
C281 C280 1.387 1_545 S
N282 Co273 2.022 . S
N282 C279 1.351 . S
N282 N283 1.365 1_545 S
N283 C280 1.341 . S
N283 N282 1.365 1_565 S
N283 H303 0.862 . S
C284 C279 1.501 . S
C284 H285 0.961 . S
C284 H286 0.961 . S
C284 H287 0.960 . S
H285 C284 0.961 . S
H286 C284 0.961 . S
H287 C284 0.960 . S
C288 N289 1.342 . S
C288 C292 1.401 . S
C288 C293 1.499 . S
N289 Co272 1.989 1_565 S
N289 C288 1.342 . S
N289 N290 1.388 . S
N290 Co273 1.993 1_565 S
N290 N289 1.388 . S
N290 C291 1.346 . S
C291 N290 1.346 . S
C291 C292 1.396 . S
C291 C301 1.510 . S
C292 C288 1.401 . S
C292 C291 1.396 . S
C293 C288 1.499 . S
C293 H294 0.959 . S
C293 H295 0.960 . S
C293 H296 0.961 . S
H294 C293 0.959 . S
H295 C293 0.960 . S
H296 C293 0.961 . S
O297 Co272 1.967 . S
O297 C305 1.258 . S
O298 Co273 1.941 . S
O298 C305 1.266 . S
H299 C301 0.959 . S
H300 C301 0.961 . S
C301 C291 1.510 . S
C301 H299 0.959 . S
C301 H300 0.961 . S
C301 H302 0.960 . S
H302 C301 0.960 . S
H303 N283 0.862 . S
O304 Co272 1.920 . S
O304 C277 1.289 . S
C305 O297 1.258 . S
C305 O298 1.266 . S
Co306 O309 1.970 1_545 S
Co306 N323 1.989 . S
Co306 O331 1.967 . S
Co306 O338 1.920 . S
Co307 O310 1.966 1_545 S
Co307 N316 2.022 . S
Co307 N324 1.993 . S
Co307 O332 1.941 . S
C308 O309 1.258 . S
C308 O310 1.263 . S
O309 Co306 1.970 1_565 S
O309 C308 1.258 . S
O310 Co307 1.966 1_565 S
O310 C308 1.263 . S
C311 O312 1.235 . S
C311 O338 1.289 . S
O312 C311 1.235 . S
C313 C315 1.400 . S
C313 N316 1.351 . S
C313 C318 1.501 1_545 S
C314 C315 1.387 . S
C314 N317 1.341 . S
C315 C313 1.400 . S
C315 C314 1.387 . S
N316 Co307 2.022 . S
N316 C313 1.351 . S
N316 N317 1.365 . S
N317 C314 1.341 . S
N317 N316 1.365 . S
N317 H337 0.862 . S
C318 C313 1.501 1_565 S
C318 H319 0.961 . S
C318 H320 0.961 . S
C318 H321 0.960 . S
H319 C318 0.961 . S
H320 C318 0.961 . S
H321 C318 0.960 . S
C322 N323 1.342 . S
C322 C326 1.401 . S
C322 C327 1.499 . S
N323 Co306 1.989 . S
N323 C322 1.342 . S
N323 N324 1.388 . S
N324 Co307 1.993 . S
N324 N323 1.388 . S
N324 C325 1.346 . S
C325 N324 1.346 . S
C325 C326 1.396 . S
C325 C335 1.510 . S
C326 C322 1.401 . S
C326 C325 1.396 . S
C327 C322 1.499 . S
C327 H328 0.959 . S
C327 H329 0.960 . S
C327 H330 0.961 . S
H328 C327 0.959 . S
H329 C327 0.960 . S
H330 C327 0.961 . S
O331 Co306 1.967 . S
O331 C339 1.258 . S
O332 Co307 1.941 . S
O332 C339 1.266 . S
H333 C335 0.959 . S
H334 C335 0.961 . S
C335 C325 1.510 . S
C335 H333 0.959 . S
C335 H334 0.961 . S
C335 H336 0.960 . S
H336 C335 0.960 . S
H337 N317 0.862 . S
O338 Co306 1.920 . S
O338 C311 1.289 . S
C339 O331 1.258 . S
C339 O332 1.266 . S
Co340 O343 1.970 1_545 S
Co340 N357 1.989 . S
Co340 O365 1.967 . S
Co340 O372 1.920 . S
Co341 O344 1.966 1_545 S
Co341 N350 2.022 . S
Co341 N358 1.993 . S
Co341 O366 1.941 . S
C342 O343 1.258 . S
C342 O344 1.263 . S
O343 Co340 1.970 1_565 S
O343 C342 1.258 . S
O344 Co341 1.966 1_565 S
O344 C342 1.263 . S
C345 O346 1.235 . S
C345 O372 1.289 . S
O346 C345 1.235 . S
C347 C349 1.400 . S
C347 N350 1.351 . S
C347 C352 1.501 1_545 S
C348 C349 1.387 . S
C348 N351 1.341 . S
C349 C347 1.400 . S
C349 C348 1.387 . S
N350 Co341 2.022 . S
N350 C347 1.351 . S
N350 N351 1.365 . S
N351 C348 1.341 . S
N351 N350 1.365 . S
N351 H371 0.862 . S
C352 C347 1.501 1_565 S
C352 H353 0.961 . S
C352 H354 0.961 . S
C352 H355 0.960 . S
H353 C352 0.961 . S
H354 C352 0.961 . S
H355 C352 0.960 . S
C356 N357 1.342 . S
C356 C360 1.401 . S
C356 C361 1.499 . S
N357 Co340 1.989 . S
N357 C356 1.342 . S
N357 N358 1.388 . S
N358 Co341 1.993 . S
N358 N357 1.388 . S
N358 C359 1.346 . S
C359 N358 1.346 . S
C359 C360 1.396 . S
C359 C369 1.510 . S
C360 C356 1.401 . S
C360 C359 1.396 . S
C361 C356 1.499 . S
C361 H362 0.959 . S
C361 H363 0.960 . S
C361 H364 0.961 . S
H362 C361 0.959 . S
H363 C361 0.960 . S
H364 C361 0.961 . S
O365 Co340 1.967 . S
O365 C373 1.258 . S
O366 Co341 1.941 . S
O366 C373 1.266 . S
H367 C369 0.959 . S
H368 C369 0.961 . S
C369 C359 1.510 . S
C369 H367 0.959 . S
C369 H368 0.961 . S
C369 H370 0.960 . S
H370 C369 0.960 . S
H371 N351 0.862 . S
O372 Co340 1.920 . S
O372 C345 1.289 . S
C373 O365 1.258 . S
C373 O366 1.266 . S
Co374 O377 1.970 . S
Co374 N391 1.989 1_545 S
Co374 O399 1.967 . S
Co374 O406 1.920 . S
Co375 O378 1.966 . S
Co375 N384 2.022 . S
Co375 N392 1.993 1_545 S
Co375 O400 1.941 . S
C376 O377 1.258 . S
C376 O378 1.263 . S
O377 Co374 1.970 . S
O377 C376 1.258 . S
O378 Co375 1.966 . S
O378 C376 1.263 . S
C379 O380 1.235 . S
C379 O406 1.289 . S
O380 C379 1.235 . S
C381 C383 1.400 . S
C381 N384 1.351 . S
C381 C386 1.501 . S
C382 C383 1.387 1_565 S
C382 N385 1.341 . S
C383 C381 1.400 . S
C383 C382 1.387 1_545 S
N384 Co375 2.022 . S
N384 C381 1.351 . S
N384 N385 1.365 1_545 S
N385 C382 1.341 . S
N385 N384 1.365 1_565 S
N385 H405 0.862 . S
C386 C381 1.501 . S
C386 H387 0.961 . S
C386 H388 0.961 . S
C386 H389 0.960 . S
H387 C386 0.961 . S
H388 C386 0.961 . S
H389 C386 0.960 . S
C390 N391 1.342 . S
C390 C394 1.401 . S
C390 C395 1.499 . S
N391 Co374 1.989 1_565 S
N391 C390 1.342 . S
N391 N392 1.388 . S
N392 Co375 1.993 1_565 S
N392 N391 1.388 . S
N392 C393 1.346 . S
C393 N392 1.346 . S
C393 C394 1.396 . S
C393 C403 1.510 . S
C394 C390 1.401 . S
C394 C393 1.396 . S
C395 C390 1.499 . S
C395 H396 0.959 . S
C395 H397 0.960 . S
C395 H398 0.961 . S
H396 C395 0.959 . S
H397 C395 0.960 . S
H398 C395 0.961 . S
O399 Co374 1.967 . S
O399 C407 1.258 . S
O400 Co375 1.941 . S
O400 C407 1.266 . S
H401 C403 0.959 . S
H402 C403 0.961 . S
C403 C393 1.510 . S
C403 H401 0.959 . S
C403 H402 0.961 . S
C403 H404 0.960 . S
H404 C403 0.960 . S
H405 N385 0.862 . S
O406 Co374 1.920 . S
O406 C379 1.289 . S
C407 O399 1.258 . S
C407 O400 1.266 . S
Co408 O411 1.970 . S
Co408 N425 1.989 . S
Co408 O433 1.967 . S
Co408 O440 1.920 . S
Co409 O412 1.966 . S
Co409 N418 2.022 . S
Co409 N426 1.993 . S
Co409 O434 1.941 . S
C410 O411 1.258 . S
C410 O412 1.263 . S
O411 Co408 1.970 . S
O411 C410 1.258 . S
O412 Co409 1.966 . S
O412 C410 1.263 . S
C413 O414 1.235 . S
C413 O440 1.289 . S
O414 C413 1.235 . S
C415 C417 1.400 . S
C415 N418 1.351 . S
C415 C420 1.501 . S
C416 C417 1.387 . S
C416 N419 1.341 . S
C417 C415 1.400 . S
C417 C416 1.387 . S
N418 Co409 2.022 . S
N418 C415 1.351 . S
N418 N419 1.365 . S
N419 C416 1.341 . S
N419 N418 1.365 . S
N419 H439 0.862 . S
C420 C415 1.501 . S
C420 H421 0.961 . S
C420 H422 0.961 . S
C420 H423 0.960 . S
H421 C420 0.961 . S
H422 C420 0.961 . S
H423 C420 0.960 . S
C424 N425 1.342 . S
C424 C428 1.401 . S
C424 C429 1.499 . S
N425 Co408 1.989 . S
N425 C424 1.342 . S
N425 N426 1.388 . S
N426 Co409 1.993 . S
N426 N425 1.388 . S
N426 C427 1.346 . S
C427 N426 1.346 . S
C427 C428 1.396 . S
C427 C437 1.510 . S
C428 C424 1.401 . S
C428 C427 1.396 . S
C429 C424 1.499 . S
C429 H430 0.959 . S
C429 H431 0.960 . S
C429 H432 0.961 . S
H430 C429 0.959 . S
H431 C429 0.960 . S
H432 C429 0.961 . S
O433 Co408 1.967 . S
O433 C441 1.258 . S
O434 Co409 1.941 . S
O434 C441 1.266 . S
H435 C437 0.959 . S
H436 C437 0.961 . S
C437 C427 1.510 . S
C437 H435 0.959 . S
C437 H436 0.961 . S
C437 H438 0.960 . S
H438 C437 0.960 . S
H439 N419 0.862 . S
O440 Co408 1.920 . S
O440 C413 1.289 . S
C441 O433 1.258 . S
C441 O434 1.266 . S
Co442 O445 1.970 . S
Co442 N459 1.989 . S
Co442 O467 1.967 . S
Co442 O474 1.920 . S
Co443 O446 1.966 . S
Co443 N452 2.022 . S
Co443 N460 1.993 . S
Co443 O468 1.941 . S
C444 O445 1.258 . S
C444 O446 1.263 . S
O445 Co442 1.970 . S
O445 C444 1.258 . S
O446 Co443 1.966 . S
O446 C444 1.263 . S
C447 O448 1.235 . S
C447 O474 1.289 . S
O448 C447 1.235 . S
C449 C451 1.400 . S
C449 N452 1.351 . S
C449 C454 1.501 . S
C450 C451 1.387 . S
C450 N453 1.341 . S
C451 C449 1.400 . S
C451 C450 1.387 . S
N452 Co443 2.022 . S
N452 C449 1.351 . S
N452 N453 1.365 . S
N453 C450 1.341 . S
N453 N452 1.365 . S
N453 H473 0.862 . S
C454 C449 1.501 . S
C454 H455 0.961 . S
C454 H456 0.961 . S
C454 H457 0.960 . S
H455 C454 0.961 . S
H456 C454 0.961 . S
H457 C454 0.960 . S
C458 N459 1.342 . S
C458 C462 1.401 . S
C458 C463 1.499 . S
N459 Co442 1.989 . S
N459 C458 1.342 . S
N459 N460 1.388 . S
N460 Co443 1.993 . S
N460 N459 1.388 . S
N460 C461 1.346 . S
C461 N460 1.346 . S
C461 C462 1.396 . S
C461 C471 1.510 . S
C462 C458 1.401 . S
C462 C461 1.396 . S
C463 C458 1.499 . S
C463 H464 0.959 . S
C463 H465 0.960 . S
C463 H466 0.961 . S
H464 C463 0.959 . S
H465 C463 0.960 . S
H466 C463 0.961 . S
O467 Co442 1.967 . S
O467 C475 1.258 . S
O468 Co443 1.941 . S
O468 C475 1.266 . S
H469 C471 0.959 . S
H470 C471 0.961 . S
C471 C461 1.510 . S
C471 H469 0.959 . S
C471 H470 0.961 . S
C471 H472 0.960 . S
H472 C471 0.960 . S
H473 N453 0.862 . S
O474 Co442 1.920 . S
O474 C447 1.289 . S
C475 O467 1.258 . S
C475 O468 1.266 . S
Co476 O479 1.970 . S
Co476 N493 1.989 . S
Co476 O501 1.967 . S
Co476 O508 1.920 . S
Co477 O480 1.966 . S
Co477 N486 2.022 . S
Co477 N494 1.993 . S
Co477 O502 1.941 . S
C478 O479 1.258 . S
C478 O480 1.263 . S
O479 Co476 1.970 . S
O479 C478 1.258 . S
O480 Co477 1.966 . S
O480 C478 1.263 . S
C481 O482 1.235 . S
C481 O508 1.289 . S
O482 C481 1.235 . S
C483 C485 1.400 . S
C483 N486 1.351 . S
C483 C488 1.501 . S
C484 C485 1.387 . S
C484 N487 1.341 . S
C485 C483 1.400 . S
C485 C484 1.387 . S
N486 Co477 2.022 . S
N486 C483 1.351 . S
N486 N487 1.365 . S
N487 C484 1.341 . S
N487 N486 1.365 . S
N487 H507 0.862 . S
C488 C483 1.501 . S
C488 H489 0.961 . S
C488 H490 0.961 . S
C488 H491 0.960 . S
H489 C488 0.961 . S
H490 C488 0.961 . S
H491 C488 0.960 . S
C492 N493 1.342 . S
C492 C496 1.401 . S
C492 C497 1.499 . S
N493 Co476 1.989 . S
N493 C492 1.342 . S
N493 N494 1.388 . S
N494 Co477 1.993 . S
N494 N493 1.388 . S
N494 C495 1.346 . S
C495 N494 1.346 . S
C495 C496 1.396 . S
C495 C505 1.510 . S
C496 C492 1.401 . S
C496 C495 1.396 . S
C497 C492 1.499 . S
C497 H498 0.959 . S
C497 H499 0.960 . S
C497 H500 0.961 . S
H498 C497 0.959 . S
H499 C497 0.960 . S
H500 C497 0.961 . S
O501 Co476 1.967 . S
O501 C509 1.258 . S
O502 Co477 1.941 . S
O502 C509 1.266 . S
H503 C505 0.959 . S
H504 C505 0.961 . S
C505 C495 1.510 . S
C505 H503 0.959 . S
C505 H504 0.961 . S
C505 H506 0.960 . S
H506 C505 0.960 . S
H507 N487 0.862 . S
O508 Co476 1.920 . S
O508 C481 1.289 . S
C509 O501 1.258 . S
C509 O502 1.266 . S
Co510 O513 1.970 . S
Co510 N527 1.989 . S
Co510 O535 1.967 . S
Co510 O542 1.920 . S
Co511 O514 1.966 . S
Co511 N520 2.022 . S
Co511 N528 1.993 . S
Co511 O536 1.941 . S
C512 O513 1.258 . S
C512 O514 1.263 . S
O513 Co510 1.970 . S
O513 C512 1.258 . S
O514 Co511 1.966 . S
O514 C512 1.263 . S
C515 O516 1.235 . S
C515 O542 1.289 . S
O516 C515 1.235 . S
C517 C519 1.400 . S
C517 N520 1.351 . S
C517 C522 1.501 . S
C518 C519 1.387 . S
C518 N521 1.341 . S
C519 C517 1.400 . S
C519 C518 1.387 . S
N520 Co511 2.022 . S
N520 C517 1.351 . S
N520 N521 1.365 . S
N521 C518 1.341 . S
N521 N520 1.365 . S
N521 H541 0.862 . S
C522 C517 1.501 . S
C522 H523 0.961 . S
C522 H524 0.961 . S
C522 H525 0.960 . S
H523 C522 0.961 . S
H524 C522 0.961 . S
H525 C522 0.960 . S
C526 N527 1.342 . S
C526 C530 1.401 . S
C526 C531 1.499 . S
N527 Co510 1.989 . S
N527 C526 1.342 . S
N527 N528 1.388 . S
N528 Co511 1.993 . S
N528 N527 1.388 . S
N528 C529 1.346 . S
C529 N528 1.346 . S
C529 C530 1.396 . S
C529 C539 1.510 . S
C530 C526 1.401 . S
C530 C529 1.396 . S
C531 C526 1.499 . S
C531 H532 0.959 . S
C531 H533 0.960 . S
C531 H534 0.961 . S
H532 C531 0.959 . S
H533 C531 0.960 . S
H534 C531 0.961 . S
O535 Co510 1.967 . S
O535 C543 1.258 . S
O536 Co511 1.941 . S
O536 C543 1.266 . S
H537 C539 0.959 . S
H538 C539 0.961 . S
C539 C529 1.510 . S
C539 H537 0.959 . S
C539 H538 0.961 . S
C539 H540 0.960 . S
H540 C539 0.960 . S
H541 N521 0.862 . S
O542 Co510 1.920 . S
O542 C515 1.289 . S
C543 O535 1.258 . S
C543 O536 1.266 . S
C544 C545 1.392 . S
C544 C546 1.393 1_545 S
C544 H560 0.930 1_545 S
C545 C544 1.392 . S
C545 C549 1.376 . S
C546 C544 1.393 1_565 S
C546 C547 1.369 1_565 S
C546 C550 1.531 . S
C547 C546 1.369 1_545 S
C547 C548 1.410 . S
C547 C555 1.503 . S
C548 C547 1.410 . S
C548 C549 1.392 . S
C548 C551 1.511 . S
C549 C545 1.376 . S
C549 C548 1.392 . S
C549 H561 0.929 . S
C550 C546 1.531 . S
C550 H562 0.960 . S
C550 H563 0.962 1_565 S
C550 H564 0.960 . S
C551 C548 1.511 . S
C551 H565 0.961 . S
C551 H566 0.961 . S
C551 H567 0.961 . S
C552 C553 1.370 . S
C552 C554 1.363 . S
C552 H568 0.931 . S
C553 C552 1.370 . S
C553 C557 1.408 1_545 S
C554 C552 1.363 . S
C554 C555 1.370 . S
C554 C558 1.524 . S
C555 C547 1.503 . S
C555 C554 1.370 . S
C555 C556 1.403 1_545 S
C556 C555 1.403 1_565 S
C556 C557 1.404 . S
C556 C559 1.539 . S
C557 C553 1.408 1_565 S
C557 C556 1.404 . S
C557 H569 0.930 . S
C558 C554 1.524 . S
C558 H570 0.956 . S
C558 H571 0.961 . S
C558 H572 0.961 . S
C559 C556 1.539 . S
C559 H573 0.958 . S
C559 H574 0.961 . S
C559 H575 0.960 . S
H560 C544 0.930 1_565 S
H561 C549 0.929 . S
H562 C550 0.960 . S
H563 C550 0.962 1_545 S
H564 C550 0.960 . S
H565 C551 0.961 . S
H566 C551 0.961 . S
H567 C551 0.961 . S
H568 C552 0.931 . S
H569 C557 0.930 . S
H570 C558 0.956 . S
H571 C558 0.961 . S
H572 C558 0.961 . S
H573 C559 0.958 . S
H574 C559 0.961 . S
H575 C559 0.960 . S
C576 C577 1.391 1_565 S
C576 C578 1.394 . S
C576 H592 0.931 . S
C577 C576 1.391 1_545 S
C577 C581 1.376 . S
C578 C576 1.394 . S
C578 C579 1.369 1_565 S
C578 C582 1.531 . S
C579 C578 1.369 1_545 S
C579 C580 1.410 . S
C579 C587 1.503 . S
C580 C579 1.410 . S
C580 C581 1.392 . S
C580 C583 1.511 . S
C581 C577 1.376 . S
C581 C580 1.392 . S
C581 H593 0.929 . S
C582 C578 1.531 . S
C582 H594 0.960 . S
C582 H595 0.962 . S
C582 H596 0.960 . S
C583 C580 1.511 . S
C583 H597 0.961 . S
C583 H598 0.961 . S
C583 H599 0.961 . S
C584 C585 1.370 . S
C584 C586 1.363 . S
C584 H600 0.931 . S
C585 C584 1.370 . S
C585 C589 1.408 1_545 S
C586 C584 1.363 . S
C586 C587 1.370 . S
C586 C590 1.524 . S
C587 C579 1.503 . S
C587 C586 1.370 . S
C587 C588 1.403 1_545 S
C588 C587 1.403 1_565 S
C588 C589 1.404 . S
C588 C591 1.539 . S
C589 C585 1.408 1_565 S
C589 C588 1.404 . S
C589 H601 0.930 . S
C590 C586 1.524 . S
C590 H602 0.956 . S
C590 H603 0.961 . S
C590 H604 0.961 . S
C591 C588 1.539 . S
C591 H605 0.958 . S
C591 H606 0.961 . S
C591 H607 0.960 . S
H592 C576 0.931 . S
H593 C581 0.929 . S
H594 C582 0.960 . S
H595 C582 0.962 . S
H596 C582 0.960 . S
H597 C583 0.961 . S
H598 C583 0.961 . S
H599 C583 0.961 . S
H600 C584 0.931 . S
H601 C589 0.930 . S
H602 C590 0.956 . S
H603 C590 0.961 . S
H604 C590 0.961 . S
H605 C591 0.958 . S
H606 C591 0.961 . S
H607 C591 0.960 . S
C608 C609 1.391 . S
C608 C610 1.394 . S
C608 H624 0.931 . S
C609 C608 1.391 . S
C609 C613 1.376 1_545 S
C610 C608 1.394 . S
C610 C611 1.369 . S
C610 C614 1.531 . S
C611 C610 1.369 . S
C611 C612 1.410 1_545 S
C611 C619 1.503 . S
C612 C611 1.410 1_565 S
C612 C613 1.392 . S
C612 C615 1.511 . S
C613 C609 1.376 1_565 S
C613 C612 1.392 . S
C613 H625 0.929 . S
C614 C610 1.531 . S
C614 H626 0.960 . S
C614 H627 0.962 . S
C614 H628 0.960 . S
C615 C612 1.511 . S
C615 H629 0.961 . S
C615 H630 0.961 . S
C615 H631 0.961 . S
C616 C617 1.370 . S
C616 C618 1.363 . S
C616 H632 0.931 . S
C617 C616 1.370 . S
C617 C621 1.408 1_545 S
C618 C616 1.363 . S
C618 C619 1.370 . S
C618 C622 1.524 . S
C619 C611 1.503 . S
C619 C618 1.370 . S
C619 C620 1.403 1_545 S
C620 C619 1.403 1_565 S
C620 C621 1.404 . S
C620 C623 1.539 . S
C621 C617 1.408 1_565 S
C621 C620 1.404 . S
C621 H633 0.930 . S
C622 C618 1.524 . S
C622 H634 0.956 . S
C622 H635 0.961 . S
C622 H636 0.961 . S
C623 C620 1.539 . S
C623 H637 0.958 . S
C623 H638 0.961 . S
C623 H639 0.960 . S
H624 C608 0.931 . S
H625 C613 0.929 . S
H626 C614 0.960 . S
H627 C614 0.962 . S
H628 C614 0.960 . S
H629 C615 0.961 . S
H630 C615 0.961 . S
H631 C615 0.961 . S
H632 C616 0.931 . S
H633 C621 0.930 . S
H634 C622 0.956 . S
H635 C622 0.961 . S
H636 C622 0.961 . S
H637 C623 0.958 . S
H638 C623 0.961 . S
H639 C623 0.960 . S
C640 C641 1.391 1_565 S
C640 C642 1.394 . S
C640 H656 0.931 . S
C641 C640 1.391 1_545 S
C641 C645 1.376 . S
C642 C640 1.394 . S
C642 C643 1.369 1_565 S
C642 C646 1.531 . S
C643 C642 1.369 1_545 S
C643 C644 1.410 . S
C643 C651 1.503 . S
C644 C643 1.410 . S
C644 C645 1.392 . S
C644 C647 1.511 . S
C645 C641 1.376 . S
C645 C644 1.392 . S
C645 H657 0.929 . S
C646 C642 1.531 . S
C646 H658 0.960 . S
C646 H659 0.962 . S
C646 H660 0.960 . S
C647 C644 1.511 . S
C647 H661 0.961 . S
C647 H662 0.961 . S
C647 H663 0.961 . S
C648 C649 1.370 . S
C648 C650 1.363 . S
C648 H664 0.931 . S
C649 C648 1.370 . S
C649 C653 1.408 1_545 S
C650 C648 1.363 . S
C650 C651 1.370 . S
C650 C654 1.524 . S
C651 C643 1.503 . S
C651 C650 1.370 . S
C651 C652 1.403 1_545 S
C652 C651 1.403 1_565 S
C652 C653 1.404 . S
C652 C655 1.539 . S
C653 C649 1.408 1_565 S
C653 C652 1.404 . S
C653 H665 0.930 . S
C654 C650 1.524 . S
C654 H666 0.956 . S
C654 H667 0.961 . S
C654 H668 0.961 . S
C655 C652 1.539 . S
C655 H669 0.958 . S
C655 H670 0.961 . S
C655 H671 0.960 . S
H656 C640 0.931 . S
H657 C645 0.929 . S
H658 C646 0.960 . S
H659 C646 0.962 . S
H660 C646 0.960 . S
H661 C647 0.961 . S
H662 C647 0.961 . S
H663 C647 0.961 . S
H664 C648 0.931 . S
H665 C653 0.930 . S
H666 C654 0.956 . S
H667 C654 0.961 . S
H668 C654 0.961 . S
H669 C655 0.958 . S
H670 C655 0.961 . S
H671 C655 0.960 . S
C672 C673 1.391 . S
C672 C674 1.394 . S
C672 H688 0.931 . S
C673 C672 1.391 . S
C673 C677 1.376 . S
C674 C672 1.394 . S
C674 C675 1.369 . S
C674 C678 1.531 . S
C675 C674 1.369 . S
C675 C676 1.410 . S
C675 C683 1.503 . S
C676 C675 1.410 . S
C676 C677 1.392 . S
C676 C679 1.511 . S
C677 C673 1.376 . S
C677 C676 1.392 . S
C677 H689 0.929 . S
C678 C674 1.531 . S
C678 H690 0.960 . S
C678 H691 0.962 . S
C678 H692 0.960 . S
C679 C676 1.511 . S
C679 H693 0.961 . S
C679 H694 0.961 . S
C679 H695 0.961 . S
C680 C681 1.370 . S
C680 C682 1.363 . S
C680 H696 0.931 . S
C681 C680 1.370 . S
C681 C685 1.408 . S
C682 C680 1.363 . S
C682 C683 1.370 . S
C682 C686 1.524 . S
C683 C675 1.503 . S
C683 C682 1.370 . S
C683 C684 1.403 . S
C684 C683 1.403 . S
C684 C685 1.404 . S
C684 C687 1.539 . S
C685 C681 1.408 . S
C685 C684 1.404 . S
C685 H697 0.930 . S
C686 C682 1.524 . S
C686 H698 0.956 . S
C686 H699 0.961 . S
C686 H700 0.961 . S
C687 C684 1.539 . S
C687 H701 0.958 . S
C687 H702 0.961 . S
C687 H703 0.960 . S
H688 C672 0.931 . S
H689 C677 0.929 . S
H690 C678 0.960 . S
H691 C678 0.962 . S
H692 C678 0.960 . S
H693 C679 0.961 . S
H694 C679 0.961 . S
H695 C679 0.961 . S
H696 C680 0.931 . S
H697 C685 0.930 . S
H698 C686 0.956 . S
H699 C686 0.961 . S
H700 C686 0.961 . S
H701 C687 0.958 . S
H702 C687 0.961 . S
H703 C687 0.960 . S
C704 C705 1.391 . S
C704 C706 1.394 . S
C704 H720 0.931 . S
C705 C704 1.391 . S
C705 C709 1.376 . S
C706 C704 1.394 . S
C706 C707 1.369 . S
C706 C710 1.531 . S
C707 C706 1.369 . S
C707 C708 1.410 . S
C707 C715 1.503 . S
C708 C707 1.410 . S
C708 C709 1.392 . S
C708 C711 1.511 . S
C709 C705 1.376 . S
C709 C708 1.392 . S
C709 H721 0.929 . S
C710 C706 1.531 . S
C710 H722 0.960 . S
C710 H723 0.962 . S
C710 H724 0.960 . S
C711 C708 1.511 . S
C711 H725 0.961 . S
C711 H726 0.961 . S
C711 H727 0.961 . S
C712 C713 1.370 . S
C712 C714 1.363 . S
C712 H728 0.931 . S
C713 C712 1.370 . S
C713 C717 1.408 . S
C714 C712 1.363 . S
C714 C715 1.370 . S
C714 C718 1.524 . S
C715 C707 1.503 . S
C715 C714 1.370 . S
C715 C716 1.403 . S
C716 C715 1.403 . S
C716 C717 1.404 . S
C716 C719 1.539 . S
C717 C713 1.408 . S
C717 C716 1.404 . S
C717 H729 0.930 . S
C718 C714 1.524 . S
C718 H730 0.956 . S
C718 H731 0.961 . S
C718 H732 0.961 . S
C719 C716 1.539 . S
C719 H733 0.958 . S
C719 H734 0.961 . S
C719 H735 0.960 . S
H720 C704 0.931 . S
H721 C709 0.929 . S
H722 C710 0.960 . S
H723 C710 0.962 . S
H724 C710 0.960 . S
H725 C711 0.961 . S
H726 C711 0.961 . S
H727 C711 0.961 . S
H728 C712 0.931 . S
H729 C717 0.930 . S
H730 C718 0.956 . S
H731 C718 0.961 . S
H732 C718 0.961 . S
H733 C719 0.958 . S
H734 C719 0.961 . S
H735 C719 0.960 . S
C736 C737 1.391 . S
C736 C738 1.394 . S
C736 H752 0.931 . S
C737 C736 1.391 . S
C737 C741 1.376 . S
C738 C736 1.394 . S
C738 C739 1.369 . S
C738 C742 1.531 . S
C739 C738 1.369 . S
C739 C740 1.410 . S
C739 C747 1.503 . S
C740 C739 1.410 . S
C740 C741 1.392 . S
C740 C743 1.511 . S
C741 C737 1.376 . S
C741 C740 1.392 . S
C741 H753 0.929 . S
C742 C738 1.531 . S
C742 H754 0.960 . S
C742 H755 0.962 . S
C742 H756 0.960 . S
C743 C740 1.511 . S
C743 H757 0.961 . S
C743 H758 0.961 . S
C743 H759 0.961 . S
C744 C745 1.370 . S
C744 C746 1.363 . S
C744 H760 0.931 . S
C745 C744 1.370 . S
C745 C749 1.408 . S
C746 C744 1.363 . S
C746 C747 1.370 . S
C746 C750 1.524 . S
C747 C739 1.503 . S
C747 C746 1.370 . S
C747 C748 1.403 . S
C748 C747 1.403 . S
C748 C749 1.404 . S
C748 C751 1.539 . S
C749 C745 1.408 . S
C749 C748 1.404 . S
C749 H761 0.930 . S
C750 C746 1.524 . S
C750 H762 0.956 . S
C750 H763 0.961 . S
C750 H764 0.961 . S
C751 C748 1.539 . S
C751 H765 0.958 . S
C751 H766 0.961 . S
C751 H767 0.960 . S
H752 C736 0.931 . S
H753 C741 0.929 . S
H754 C742 0.960 . S
H755 C742 0.962 . S
H756 C742 0.960 . S
H757 C743 0.961 . S
H758 C743 0.961 . S
H759 C743 0.961 . S
H760 C744 0.931 . S
H761 C749 0.930 . S
H762 C750 0.956 . S
H763 C750 0.961 . S
H764 C750 0.961 . S
H765 C751 0.958 . S
H766 C751 0.961 . S
H767 C751 0.960 . S
C768 C769 1.391 . S
C768 C770 1.394 . S
C768 H784 0.931 . S
C769 C768 1.391 . S
C769 C773 1.376 . S
C770 C768 1.394 . S
C770 C771 1.369 . S
C770 C774 1.531 . S
C771 C770 1.369 . S
C771 C772 1.410 . S
C771 C779 1.503 . S
C772 C771 1.410 . S
C772 C773 1.392 . S
C772 C775 1.511 . S
C773 C769 1.376 . S
C773 C772 1.392 . S
C773 H785 0.929 . S
C774 C770 1.531 . S
C774 H786 0.960 . S
C774 H787 0.962 . S
C774 H788 0.960 . S
C775 C772 1.511 . S
C775 H789 0.961 . S
C775 H790 0.961 . S
C775 H791 0.961 . S
C776 C777 1.370 . S
C776 C778 1.363 . S
C776 H792 0.931 . S
C777 C776 1.370 . S
C777 C781 1.408 . S
C778 C776 1.363 . S
C778 C779 1.370 . S
C778 C782 1.524 . S
C779 C771 1.503 . S
C779 C778 1.370 . S
C779 C780 1.403 . S
C780 C779 1.403 . S
C780 C781 1.404 . S
C780 C783 1.539 . S
C781 C777 1.408 . S
C781 C780 1.404 . S
C781 H793 0.930 . S
C782 C778 1.524 . S
C782 H794 0.956 . S
C782 H795 0.961 . S
C782 H796 0.961 . S
C783 C780 1.539 . S
C783 H797 0.958 . S
C783 H798 0.961 . S
C783 H799 0.960 . S
H784 C768 0.931 . S
H785 C773 0.929 . S
H786 C774 0.960 . S
H787 C774 0.962 . S
H788 C774 0.960 . S
H789 C775 0.961 . S
H790 C775 0.961 . S
H791 C775 0.961 . S
H792 C776 0.931 . S
H793 C781 0.930 . S
H794 C782 0.956 . S
H795 C782 0.961 . S
H796 C782 0.961 . S
H797 C783 0.958 . S
H798 C783 0.961 . S
H799 C783 0.960 . S
C800 C801 1.391 . S
C800 C802 1.394 . S
C800 H816 0.931 . S
C801 C800 1.391 . S
C801 C805 1.376 . S
C802 C800 1.394 . S
C802 C803 1.369 . S
C802 C806 1.531 . S
C803 C802 1.369 . S
C803 C804 1.410 . S
C803 C811 1.503 . S
C804 C803 1.410 . S
C804 C805 1.392 . S
C804 C807 1.511 . S
C805 C801 1.376 . S
C805 C804 1.392 . S
C805 H817 0.929 . S
C806 C802 1.531 . S
C806 H818 0.960 . S
C806 H819 0.962 . S
C806 H820 0.960 . S
C807 C804 1.511 . S
C807 H821 0.961 . S
C807 H822 0.961 . S
C807 H823 0.961 . S
C808 C809 1.370 . S
C808 C810 1.363 . S
C808 H824 0.931 . S
C809 C808 1.370 . S
C809 C813 1.408 . S
C810 C808 1.363 . S
C810 C811 1.370 . S
C810 C814 1.524 . S
C811 C803 1.503 . S
C811 C810 1.370 . S
C811 C812 1.403 . S
C812 C811 1.403 . S
C812 C813 1.404 . S
C812 C815 1.539 . S
C813 C809 1.408 . S
C813 C812 1.404 . S
C813 H825 0.930 . S
C814 C810 1.524 . S
C814 H826 0.956 . S
C814 H827 0.961 . S
C814 H828 0.961 . S
C815 C812 1.539 . S
C815 H829 0.958 . S
C815 H830 0.961 . S
C815 H831 0.960 . S
H816 C800 0.931 . S
H817 C805 0.929 . S
H818 C806 0.960 . S
H819 C806 0.962 . S
H820 C806 0.960 . S
H821 C807 0.961 . S
H822 C807 0.961 . S
H823 C807 0.961 . S
H824 C808 0.931 . S
H825 C813 0.930 . S
H826 C814 0.956 . S
H827 C814 0.961 . S
H828 C814 0.961 . S
H829 C815 0.958 . S
H830 C815 0.961 . S
H831 C815 0.960 . S
C832 C833 1.391 . S
C832 C834 1.394 . S
C832 H848 0.931 . S
C833 C832 1.391 . S
C833 C837 1.376 . S
C834 C832 1.394 . S
C834 C835 1.369 . S
C834 C838 1.531 . S
C835 C834 1.369 . S
C835 C836 1.410 . S
C835 C843 1.503 . S
C836 C835 1.410 . S
C836 C837 1.392 . S
C836 C839 1.511 . S
C837 C833 1.376 . S
C837 C836 1.392 . S
C837 H849 0.929 . S
C838 C834 1.531 . S
C838 H850 0.960 . S
C838 H851 0.962 . S
C838 H852 0.960 . S
C839 C836 1.511 . S
C839 H853 0.961 . S
C839 H854 0.961 . S
C839 H855 0.961 . S
C840 C841 1.370 . S
C840 C842 1.363 . S
C840 H856 0.931 . S
C841 C840 1.370 . S
C841 C845 1.408 . S
C842 C840 1.363 . S
C842 C843 1.370 . S
C842 C846 1.524 . S
C843 C835 1.503 . S
C843 C842 1.370 . S
C843 C844 1.403 . S
C844 C843 1.403 . S
C844 C845 1.404 . S
C844 C847 1.539 . S
C845 C841 1.408 . S
C845 C844 1.404 . S
C845 H857 0.930 . S
C846 C842 1.524 . S
C846 H858 0.956 . S
C846 H859 0.961 . S
C846 H860 0.961 . S
C847 C844 1.539 . S
C847 H861 0.958 . S
C847 H862 0.961 . S
C847 H863 0.960 . S
H848 C832 0.931 . S
H849 C837 0.929 . S
H850 C838 0.960 . S
H851 C838 0.962 . S
H852 C838 0.960 . S
H853 C839 0.961 . S
H854 C839 0.961 . S
H855 C839 0.961 . S
H856 C840 0.931 . S
H857 C845 0.930 . S
H858 C846 0.956 . S
H859 C846 0.961 . S
H860 C846 0.961 . S
H861 C847 0.958 . S
H862 C847 0.961 . S
H863 C847 0.960 . S
C864 C865 1.391 . S
C864 C866 1.394 . S
C864 H880 0.931 . S
C865 C864 1.391 . S
C865 C869 1.376 . S
C866 C864 1.394 . S
C866 C867 1.369 . S
C866 C870 1.531 . S
C867 C866 1.369 . S
C867 C868 1.410 . S
C867 C875 1.503 . S
C868 C867 1.410 . S
C868 C869 1.392 . S
C868 C871 1.511 . S
C869 C865 1.376 . S
C869 C868 1.392 . S
C869 H881 0.929 . S
C870 C866 1.531 . S
C870 H882 0.960 . S
C870 H883 0.962 . S
C870 H884 0.960 . S
C871 C868 1.511 . S
C871 H885 0.961 . S
C871 H886 0.961 . S
C871 H887 0.961 . S
C872 C873 1.370 . S
C872 C874 1.363 . S
C872 H888 0.931 . S
C873 C872 1.370 . S
C873 C877 1.408 . S
C874 C872 1.363 . S
C874 C875 1.370 . S
C874 C878 1.524 . S
C875 C867 1.503 . S
C875 C874 1.370 . S
C875 C876 1.403 . S
C876 C875 1.403 . S
C876 C877 1.404 . S
C876 C879 1.539 . S
C877 C873 1.408 . S
C877 C876 1.404 . S
C877 H889 0.930 . S
C878 C874 1.524 . S
C878 H890 0.956 . S
C878 H891 0.961 . S
C878 H892 0.961 . S
C879 C876 1.539 . S
C879 H893 0.958 . S
C879 H894 0.961 . S
C879 H895 0.960 . S
H880 C864 0.931 . S
H881 C869 0.929 . S
H882 C870 0.960 . S
H883 C870 0.962 . S
H884 C870 0.960 . S
H885 C871 0.961 . S
H886 C871 0.961 . S
H887 C871 0.961 . S
H888 C872 0.931 . S
H889 C877 0.930 . S
H890 C878 0.956 . S
H891 C878 0.961 . S
H892 C878 0.961 . S
H893 C879 0.958 . S
H894 C879 0.961 . S
H895 C879 0.960 . S
C896 C897 1.391 . S
C896 C898 1.394 . S
C896 H912 0.931 . S
C897 C896 1.391 . S
C897 C901 1.376 . S
C898 C896 1.394 . S
C898 C899 1.369 . S
C898 C902 1.531 . S
C899 C898 1.369 . S
C899 C900 1.410 . S
C899 C907 1.503 . S
C900 C899 1.410 . S
C900 C901 1.392 . S
C900 C903 1.511 . S
C901 C897 1.376 . S
C901 C900 1.392 . S
C901 H913 0.929 . S
C902 C898 1.531 . S
C902 H914 0.960 . S
C902 H915 0.962 . S
C902 H916 0.960 . S
C903 C900 1.511 . S
C903 H917 0.961 . S
C903 H918 0.961 . S
C903 H919 0.961 . S
C904 C905 1.370 . S
C904 C906 1.363 . S
C904 H920 0.931 . S
C905 C904 1.370 . S
C905 C909 1.408 . S
C906 C904 1.363 . S
C906 C907 1.370 . S
C906 C910 1.524 . S
C907 C899 1.503 . S
C907 C906 1.370 . S
C907 C908 1.403 . S
C908 C907 1.403 . S
C908 C909 1.404 . S
C908 C911 1.539 . S
C909 C905 1.408 . S
C909 C908 1.404 . S
C909 H921 0.930 . S
C910 C906 1.524 . S
C910 H922 0.956 . S
C910 H923 0.961 . S
C910 H924 0.961 . S
C911 C908 1.539 . S
C911 H925 0.958 . S
C911 H926 0.961 . S
C911 H927 0.960 . S
H912 C896 0.931 . S
H913 C901 0.929 . S
H914 C902 0.960 . S
H915 C902 0.962 . S
H916 C902 0.960 . S
H917 C903 0.961 . S
H918 C903 0.961 . S
H919 C903 0.961 . S
H920 C904 0.931 . S
H921 C909 0.930 . S
H922 C910 0.956 . S
H923 C910 0.961 . S
H924 C910 0.961 . S
H925 C911 0.958 . S
H926 C911 0.961 . S
H927 C911 0.960 . S
C928 C929 1.391 . S
C928 C930 1.394 . S
C928 H944 0.931 . S
C929 C928 1.391 . S
C929 C933 1.376 . S
C930 C928 1.394 . S
C930 C931 1.369 . S
C930 C934 1.531 . S
C931 C930 1.369 . S
C931 C932 1.410 . S
C931 C939 1.503 . S
C932 C931 1.410 . S
C932 C933 1.392 . S
C932 C935 1.511 . S
C933 C929 1.376 . S
C933 C932 1.392 . S
C933 H945 0.929 . S
C934 C930 1.531 . S
C934 H946 0.960 . S
C934 H947 0.962 . S
C934 H948 0.960 . S
C935 C932 1.511 . S
C935 H949 0.961 . S
C935 H950 0.961 . S
C935 H951 0.961 . S
C936 C937 1.370 . S
C936 C938 1.363 . S
C936 H952 0.931 . S
C937 C936 1.370 . S
C937 C941 1.408 . S
C938 C936 1.363 . S
C938 C939 1.370 . S
C938 C942 1.524 . S
C939 C931 1.503 . S
C939 C938 1.370 . S
C939 C940 1.403 . S
C940 C939 1.403 . S
C940 C941 1.404 . S
C940 C943 1.539 . S
C941 C937 1.408 . S
C941 C940 1.404 . S
C941 H953 0.930 . S
C942 C938 1.524 . S
C942 H954 0.956 . S
C942 H955 0.961 . S
C942 H956 0.961 . S
C943 C940 1.539 . S
C943 H957 0.958 . S
C943 H958 0.961 . S
C943 H959 0.960 . S
H944 C928 0.931 . S
H945 C933 0.929 . S
H946 C934 0.960 . S
H947 C934 0.962 . S
H948 C934 0.960 . S
H949 C935 0.961 . S
H950 C935 0.961 . S
H951 C935 0.961 . S
H952 C936 0.931 . S
H953 C941 0.930 . S
H954 C942 0.956 . S
H955 C942 0.961 . S
H956 C942 0.961 . S
H957 C943 0.958 . S
H958 C943 0.961 . S
H959 C943 0.960 . S
C960 C961 1.391 . S
C960 C962 1.394 . S
C960 H976 0.931 . S
C961 C960 1.391 . S
C961 C965 1.376 . S
C962 C960 1.394 . S
C962 C963 1.369 . S
C962 C966 1.531 . S
C963 C962 1.369 . S
C963 C964 1.410 . S
C963 C971 1.503 . S
C964 C963 1.410 . S
C964 C965 1.392 . S
C964 C967 1.511 . S
C965 C961 1.376 . S
C965 C964 1.392 . S
C965 H977 0.929 . S
C966 C962 1.531 . S
C966 H978 0.960 . S
C966 H979 0.962 . S
C966 H980 0.960 . S
C967 C964 1.511 . S
C967 H981 0.961 . S
C967 H982 0.961 . S
C967 H983 0.961 . S
C968 C969 1.370 . S
C968 C970 1.363 . S
C968 H984 0.931 . S
C969 C968 1.370 . S
C969 C973 1.408 . S
C970 C968 1.363 . S
C970 C971 1.370 . S
C970 C974 1.524 . S
C971 C963 1.503 . S
C971 C970 1.370 . S
C971 C972 1.403 . S
C972 C971 1.403 . S
C972 C973 1.404 . S
C972 C975 1.539 . S
C973 C969 1.408 . S
C973 C972 1.404 . S
C973 H985 0.930 . S
C974 C970 1.524 . S
C974 H986 0.956 . S
C974 H987 0.961 . S
C974 H988 0.961 . S
C975 C972 1.539 . S
C975 H989 0.958 . S
C975 H990 0.961 . S
C975 H991 0.960 . S
H976 C960 0.931 . S
H977 C965 0.929 . S
H978 C966 0.960 . S
H979 C966 0.962 . S
H980 C966 0.960 . S
H981 C967 0.961 . S
H982 C967 0.961 . S
H983 C967 0.961 . S
H984 C968 0.931 . S
H985 C973 0.930 . S
H986 C974 0.956 . S
H987 C974 0.961 . S
H988 C974 0.961 . S
H989 C975 0.958 . S
H990 C975 0.961 . S
H991 C975 0.960 . S
C992 C993 1.391 . S
C992 C994 1.394 . S
C992 H1008 0.931 . S
C993 C992 1.391 . S
C993 C997 1.376 . S
C994 C992 1.394 . S
C994 C995 1.369 . S
C994 C998 1.531 . S
C995 C994 1.369 . S
C995 C996 1.410 . S
C995 C1003 1.503 . S
C996 C995 1.410 . S
C996 C997 1.392 . S
C996 C999 1.511 . S
C997 C993 1.376 . S
C997 C996 1.392 . S
C997 H1009 0.929 . S
C998 C994 1.531 . S
C998 H1010 0.960 . S
C998 H1011 0.962 . S
C998 H1012 0.960 . S
C999 C996 1.511 . S
C999 H1013 0.961 . S
C999 H1014 0.961 . S
C999 H1015 0.961 . S
C1000 C1001 1.370 . S
C1000 C1002 1.363 . S
C1000 H1016 0.931 . S
C1001 C1000 1.370 . S
C1001 C1005 1.408 . S
C1002 C1000 1.363 . S
C1002 C1003 1.370 . S
C1002 C1006 1.524 . S
C1003 C995 1.503 . S
C1003 C1002 1.370 . S
C1003 C1004 1.403 . S
C1004 C1003 1.403 . S
C1004 C1005 1.404 . S
C1004 C1007 1.539 . S
C1005 C1001 1.408 . S
C1005 C1004 1.404 . S
C1005 H1017 0.930 . S
C1006 C1002 1.524 . S
C1006 H1018 0.956 . S
C1006 H1019 0.961 . S
C1006 H1020 0.961 . S
C1007 C1004 1.539 . S
C1007 H1021 0.958 . S
C1007 H1022 0.961 . S
C1007 H1023 0.960 . S
H1008 C992 0.931 . S
H1009 C997 0.929 . S
H1010 C998 0.960 . S
H1011 C998 0.962 . S
H1012 C998 0.960 . S
H1013 C999 0.961 . S
H1014 C999 0.961 . S
H1015 C999 0.961 . S
H1016 C1000 0.931 . S
H1017 C1005 0.930 . S
H1018 C1006 0.956 . S
H1019 C1006 0.961 . S
H1020 C1006 0.961 . S
H1021 C1007 0.958 . S
H1022 C1007 0.961 . S
H1023 C1007 0.960 . S
C1024 C1025 1.391 . S
C1024 C1026 1.394 . S
C1024 H1040 0.931 . S
C1025 C1024 1.391 . S
C1025 C1029 1.376 . S
C1026 C1024 1.394 . S
C1026 C1027 1.369 . S
C1026 C1030 1.531 . S
C1027 C1026 1.369 . S
C1027 C1028 1.410 . S
C1027 C1035 1.503 . S
C1028 C1027 1.410 . S
C1028 C1029 1.392 . S
C1028 C1031 1.511 . S
C1029 C1025 1.376 . S
C1029 C1028 1.392 . S
C1029 H1041 0.929 . S
C1030 C1026 1.531 . S
C1030 H1042 0.960 . S
C1030 H1043 0.962 . S
C1030 H1044 0.960 . S
C1031 C1028 1.511 . S
C1031 H1045 0.961 . S
C1031 H1046 0.961 . S
C1031 H1047 0.961 . S
C1032 C1033 1.370 . S
C1032 C1034 1.363 . S
C1032 H1048 0.931 . S
C1033 C1032 1.370 . S
C1033 C1037 1.408 . S
C1034 C1032 1.363 . S
C1034 C1035 1.370 . S
C1034 C1038 1.524 . S
C1035 C1027 1.503 . S
C1035 C1034 1.370 . S
C1035 C1036 1.403 . S
C1036 C1035 1.403 . S
C1036 C1037 1.404 . S
C1036 C1039 1.539 . S
C1037 C1033 1.408 . S
C1037 C1036 1.404 . S
C1037 H1049 0.930 . S
C1038 C1034 1.524 . S
C1038 H1050 0.956 . S
C1038 H1051 0.961 . S
C1038 H1052 0.961 . S
C1039 C1036 1.539 . S
C1039 H1053 0.958 . S
C1039 H1054 0.961 . S
C1039 H1055 0.960 . S
H1040 C1024 0.931 . S
H1041 C1029 0.929 . S
H1042 C1030 0.960 . S
H1043 C1030 0.962 . S
H1044 C1030 0.960 . S
H1045 C1031 0.961 . S
H1046 C1031 0.961 . S
H1047 C1031 0.961 . S
H1048 C1032 0.931 . S
H1049 C1037 0.930 . S
H1050 C1038 0.956 . S
H1051 C1038 0.961 . S
H1052 C1038 0.961 . S
H1053 C1039 0.958 . S
H1054 C1039 0.961 . S
H1055 C1039 0.960 . S
C1056 C1057 1.391 . S
C1056 C1058 1.394 . S
C1056 H1072 0.931 . S
C1057 C1056 1.391 . S
C1057 C1061 1.376 . S
C1058 C1056 1.394 . S
C1058 C1059 1.369 . S
C1058 C1062 1.531 . S
C1059 C1058 1.369 . S
C1059 C1060 1.410 . S
C1059 C1067 1.503 . S
C1060 C1059 1.410 . S
C1060 C1061 1.392 . S
C1060 C1063 1.511 . S
C1061 C1057 1.376 . S
C1061 C1060 1.392 . S
C1061 H1073 0.929 . S
C1062 C1058 1.531 . S
C1062 H1074 0.960 . S
C1062 H1075 0.962 . S
C1062 H1076 0.960 . S
C1063 C1060 1.511 . S
C1063 H1077 0.961 . S
C1063 H1078 0.961 . S
C1063 H1079 0.961 . S
C1064 C1065 1.370 . S
C1064 C1066 1.363 . S
C1064 H1080 0.931 . S
C1065 C1064 1.370 . S
C1065 C1069 1.408 . S
C1066 C1064 1.363 . S
C1066 C1067 1.370 . S
C1066 C1070 1.524 . S
C1067 C1059 1.503 . S
C1067 C1066 1.370 . S
C1067 C1068 1.403 . S
C1068 C1067 1.403 . S
C1068 C1069 1.404 . S
C1068 C1071 1.539 . S
C1069 C1065 1.408 . S
C1069 C1068 1.404 . S
C1069 H1081 0.930 . S
C1070 C1066 1.524 . S
C1070 H1082 0.956 . S
C1070 H1083 0.961 . S
C1070 H1084 0.961 . S
C1071 C1068 1.539 . S
C1071 H1085 0.958 . S
C1071 H1086 0.961 . S
C1071 H1087 0.960 . S
H1072 C1056 0.931 . S
H1073 C1061 0.929 . S
H1074 C1062 0.960 . S
H1075 C1062 0.962 . S
H1076 C1062 0.960 . S
H1077 C1063 0.961 . S
H1078 C1063 0.961 . S
H1079 C1063 0.961 . S
H1080 C1064 0.931 . S
H1081 C1069 0.930 . S
H1082 C1070 0.956 . S
H1083 C1070 0.961 . S
H1084 C1070 0.961 . S
H1085 C1071 0.958 . S
H1086 C1071 0.961 . S
H1087 C1071 0.960 . S
C1088 C1089 1.391 . S
C1088 C1090 1.394 . S
C1088 H1104 0.931 . S
C1089 C1088 1.391 . S
C1089 C1093 1.376 . S
C1090 C1088 1.394 . S
C1090 C1091 1.369 . S
C1090 C1094 1.531 . S
C1091 C1090 1.369 . S
C1091 C1092 1.410 . S
C1091 C1099 1.503 . S
C1092 C1091 1.410 . S
C1092 C1093 1.392 . S
C1092 C1095 1.511 . S
C1093 C1089 1.376 . S
C1093 C1092 1.392 . S
C1093 H1105 0.929 . S
C1094 C1090 1.531 . S
C1094 H1106 0.960 . S
C1094 H1107 0.962 . S
C1094 H1108 0.960 . S
C1095 C1092 1.511 . S
C1095 H1109 0.961 . S
C1095 H1110 0.961 . S
C1095 H1111 0.961 . S
C1096 C1097 1.370 . S
C1096 C1098 1.363 . S
C1096 H1112 0.931 . S
C1097 C1096 1.370 . S
C1097 C1101 1.408 . S
C1098 C1096 1.363 . S
C1098 C1099 1.370 . S
C1098 C1102 1.524 . S
C1099 C1091 1.503 . S
C1099 C1098 1.370 . S
C1099 C1100 1.403 . S
C1100 C1099 1.403 . S
C1100 C1101 1.404 . S
C1100 C1103 1.539 . S
C1101 C1097 1.408 . S
C1101 C1100 1.404 . S
C1101 H1113 0.930 . S
C1102 C1098 1.524 . S
C1102 H1114 0.956 . S
C1102 H1115 0.961 . S
C1102 H1116 0.961 . S
C1103 C1100 1.539 . S
C1103 H1117 0.958 . S
C1103 H1118 0.961 . S
C1103 H1119 0.960 . S
H1104 C1088 0.931 . S
H1105 C1093 0.929 . S
H1106 C1094 0.960 . S
H1107 C1094 0.962 . S
H1108 C1094 0.960 . S
H1109 C1095 0.961 . S
H1110 C1095 0.961 . S
H1111 C1095 0.961 . S
H1112 C1096 0.931 . S
H1113 C1101 0.930 . S
H1114 C1102 0.956 . S
H1115 C1102 0.961 . S
H1116 C1102 0.961 . S
H1117 C1103 0.958 . S
H1118 C1103 0.961 . S
H1119 C1103 0.960 . S
C1120 C1121 1.391 . S
C1120 C1122 1.394 . S
C1120 H1136 0.931 . S
C1121 C1120 1.391 . S
C1121 C1125 1.376 . S
C1122 C1120 1.394 . S
C1122 C1123 1.369 . S
C1122 C1126 1.531 . S
C1123 C1122 1.369 . S
C1123 C1124 1.410 . S
C1123 C1131 1.503 . S
C1124 C1123 1.410 . S
C1124 C1125 1.392 . S
C1124 C1127 1.511 . S
C1125 C1121 1.376 . S
C1125 C1124 1.392 . S
C1125 H1137 0.929 . S
C1126 C1122 1.531 . S
C1126 H1138 0.960 . S
C1126 H1139 0.962 . S
C1126 H1140 0.960 . S
C1127 C1124 1.511 . S
C1127 H1141 0.961 . S
C1127 H1142 0.961 . S
C1127 H1143 0.961 . S
C1128 C1129 1.370 . S
C1128 C1130 1.363 . S
C1128 H1144 0.931 . S
C1129 C1128 1.370 . S
C1129 C1133 1.408 . S
C1130 C1128 1.363 . S
C1130 C1131 1.370 . S
C1130 C1134 1.524 . S
C1131 C1123 1.503 . S
C1131 C1130 1.370 . S
C1131 C1132 1.403 . S
C1132 C1131 1.403 . S
C1132 C1133 1.404 . S
C1132 C1135 1.539 . S
C1133 C1129 1.408 . S
C1133 C1132 1.404 . S
C1133 H1145 0.930 . S
C1134 C1130 1.524 . S
C1134 H1146 0.956 . S
C1134 H1147 0.961 . S
C1134 H1148 0.961 . S
C1135 C1132 1.539 . S
C1135 H1149 0.958 . S
C1135 H1150 0.961 . S
C1135 H1151 0.960 . S
H1136 C1120 0.931 . S
H1137 C1125 0.929 . S
H1138 C1126 0.960 . S
H1139 C1126 0.962 . S
H1140 C1126 0.960 . S
H1141 C1127 0.961 . S
H1142 C1127 0.961 . S
H1143 C1127 0.961 . S
H1144 C1128 0.931 . S
H1145 C1133 0.930 . S
H1146 C1134 0.956 . S
H1147 C1134 0.961 . S
H1148 C1134 0.961 . S
H1149 C1135 0.958 . S
H1150 C1135 0.961 . S
H1151 C1135 0.960 . S
C1152 C1153 1.391 . S
C1152 C1154 1.394 . S
C1152 H1168 0.931 . S
C1153 C1152 1.391 . S
C1153 C1157 1.376 . S
C1154 C1152 1.394 . S
C1154 C1155 1.369 . S
C1154 C1158 1.531 . S
C1155 C1154 1.369 . S
C1155 C1156 1.410 . S
C1155 C1163 1.503 . S
C1156 C1155 1.410 . S
C1156 C1157 1.392 . S
C1156 C1159 1.511 . S
C1157 C1153 1.376 . S
C1157 C1156 1.392 . S
C1157 H1169 0.929 . S
C1158 C1154 1.531 . S
C1158 H1170 0.960 . S
C1158 H1171 0.962 . S
C1158 H1172 0.960 . S
C1159 C1156 1.511 . S
C1159 H1173 0.961 . S
C1159 H1174 0.961 . S
C1159 H1175 0.961 . S
C1160 C1161 1.370 . S
C1160 C1162 1.363 . S
C1160 H1176 0.931 . S
C1161 C1160 1.370 . S
C1161 C1165 1.408 . S
C1162 C1160 1.363 . S
C1162 C1163 1.370 . S
C1162 C1166 1.524 . S
C1163 C1155 1.503 . S
C1163 C1162 1.370 . S
C1163 C1164 1.403 . S
C1164 C1163 1.403 . S
C1164 C1165 1.404 . S
C1164 C1167 1.539 . S
C1165 C1161 1.408 . S
C1165 C1164 1.404 . S
C1165 H1177 0.930 . S
C1166 C1162 1.524 . S
C1166 H1178 0.956 . S
C1166 H1179 0.961 . S
C1166 H1180 0.961 . S
C1167 C1164 1.539 . S
C1167 H1181 0.958 . S
C1167 H1182 0.961 . S
C1167 H1183 0.960 . S
H1168 C1152 0.931 . S
H1169 C1157 0.929 . S
H1170 C1158 0.960 . S
H1171 C1158 0.962 . S
H1172 C1158 0.960 . S
H1173 C1159 0.961 . S
H1174 C1159 0.961 . S
H1175 C1159 0.961 . S
H1176 C1160 0.931 . S
H1177 C1165 0.930 . S
H1178 C1166 0.956 . S
H1179 C1166 0.961 . S
H1180 C1166 0.961 . S
H1181 C1167 0.958 . S
H1182 C1167 0.961 . S
H1183 C1167 0.960 . S
C1184 C1185 1.391 . S
C1184 C1186 1.394 . S
C1184 H1200 0.931 . S
C1185 C1184 1.391 . S
C1185 C1189 1.376 . S
C1186 C1184 1.394 . S
C1186 C1187 1.369 . S
C1186 C1190 1.531 . S
C1187 C1186 1.369 . S
C1187 C1188 1.410 . S
C1187 C1195 1.503 . S
C1188 C1187 1.410 . S
C1188 C1189 1.392 . S
C1188 C1191 1.511 . S
C1189 C1185 1.376 . S
C1189 C1188 1.392 . S
C1189 H1201 0.929 . S
C1190 C1186 1.531 . S
C1190 H1202 0.960 . S
C1190 H1203 0.962 . S
C1190 H1204 0.960 . S
C1191 C1188 1.511 . S
C1191 H1205 0.961 . S
C1191 H1206 0.961 . S
C1191 H1207 0.961 . S
C1192 C1193 1.370 . S
C1192 C1194 1.363 . S
C1192 H1208 0.931 . S
C1193 C1192 1.370 . S
C1193 C1197 1.408 . S
C1194 C1192 1.363 . S
C1194 C1195 1.370 . S
C1194 C1198 1.524 . S
C1195 C1187 1.503 . S
C1195 C1194 1.370 . S
C1195 C1196 1.403 . S
C1196 C1195 1.403 . S
C1196 C1197 1.404 . S
C1196 C1199 1.539 . S
C1197 C1193 1.408 . S
C1197 C1196 1.404 . S
C1197 H1209 0.930 . S
C1198 C1194 1.524 . S
C1198 H1210 0.956 . S
C1198 H1211 0.961 . S
C1198 H1212 0.961 . S
C1199 C1196 1.539 . S
C1199 H1213 0.958 . S
C1199 H1214 0.961 . S
C1199 H1215 0.960 . S
H1200 C1184 0.931 . S
H1201 C1189 0.929 . S
H1202 C1190 0.960 . S
H1203 C1190 0.962 . S
H1204 C1190 0.960 . S
H1205 C1191 0.961 . S
H1206 C1191 0.961 . S
H1207 C1191 0.961 . S
H1208 C1192 0.931 . S
H1209 C1197 0.930 . S
H1210 C1198 0.956 . S
H1211 C1198 0.961 . S
H1212 C1198 0.961 . S
H1213 C1199 0.958 . S
H1214 C1199 0.961 . S
H1215 C1199 0.960 . S
C1216 C1217 1.391 . S
C1216 C1218 1.394 . S
C1216 H1232 0.931 . S
C1217 C1216 1.391 . S
C1217 C1221 1.376 . S
C1218 C1216 1.394 . S
C1218 C1219 1.369 . S
C1218 C1222 1.531 . S
C1219 C1218 1.369 . S
C1219 C1220 1.410 . S
C1219 C1227 1.503 . S
C1220 C1219 1.410 . S
C1220 C1221 1.392 . S
C1220 C1223 1.511 . S
C1221 C1217 1.376 . S
C1221 C1220 1.392 . S
C1221 H1233 0.929 . S
C1222 C1218 1.531 . S
C1222 H1234 0.960 . S
C1222 H1235 0.962 . S
C1222 H1236 0.960 . S
C1223 C1220 1.511 . S
C1223 H1237 0.961 . S
C1223 H1238 0.961 . S
C1223 H1239 0.961 . S
C1224 C1225 1.370 . S
C1224 C1226 1.363 . S
C1224 H1240 0.931 . S
C1225 C1224 1.370 . S
C1225 C1229 1.408 . S
C1226 C1224 1.363 . S
C1226 C1227 1.370 . S
C1226 C1230 1.524 . S
C1227 C1219 1.503 . S
C1227 C1226 1.370 . S
C1227 C1228 1.403 . S
C1228 C1227 1.403 . S
C1228 C1229 1.404 . S
C1228 C1231 1.539 . S
C1229 C1225 1.408 . S
C1229 C1228 1.404 . S
C1229 H1241 0.930 . S
C1230 C1226 1.524 . S
C1230 H1242 0.956 . S
C1230 H1243 0.961 . S
C1230 H1244 0.961 . S
C1231 C1228 1.539 . S
C1231 H1245 0.958 . S
C1231 H1246 0.961 . S
C1231 H1247 0.960 . S
H1232 C1216 0.931 . S
H1233 C1221 0.929 . S
H1234 C1222 0.960 . S
H1235 C1222 0.962 . S
H1236 C1222 0.960 . S
H1237 C1223 0.961 . S
H1238 C1223 0.961 . S
H1239 C1223 0.961 . S
H1240 C1224 0.931 . S
H1241 C1229 0.930 . S
H1242 C1230 0.956 . S
H1243 C1230 0.961 . S
H1244 C1230 0.961 . S
H1245 C1231 0.958 . S
H1246 C1231 0.961 . S
H1247 C1231 0.960 . S
C1248 C1249 1.391 . S
C1248 C1250 1.394 . S
C1248 H1264 0.931 . S
C1249 C1248 1.391 . S
C1249 C1253 1.376 . S
C1250 C1248 1.394 . S
C1250 C1251 1.369 . S
C1250 C1254 1.531 . S
C1251 C1250 1.369 . S
C1251 C1252 1.410 . S
C1251 C1259 1.503 . S
C1252 C1251 1.410 . S
C1252 C1253 1.392 . S
C1252 C1255 1.511 . S
C1253 C1249 1.376 . S
C1253 C1252 1.392 . S
C1253 H1265 0.929 . S
C1254 C1250 1.531 . S
C1254 H1266 0.960 . S
C1254 H1267 0.962 . S
C1254 H1268 0.960 . S
C1255 C1252 1.511 . S
C1255 H1269 0.961 . S
C1255 H1270 0.961 . S
C1255 H1271 0.961 . S
C1256 C1257 1.370 . S
C1256 C1258 1.363 . S
C1256 H1272 0.931 . S
C1257 C1256 1.370 . S
C1257 C1261 1.408 . S
C1258 C1256 1.363 . S
C1258 C1259 1.370 . S
C1258 C1262 1.524 . S
C1259 C1251 1.503 . S
C1259 C1258 1.370 . S
C1259 C1260 1.403 . S
C1260 C1259 1.403 . S
C1260 C1261 1.404 . S
C1260 C1263 1.539 . S
C1261 C1257 1.408 . S
C1261 C1260 1.404 . S
C1261 H1273 0.930 . S
C1262 C1258 1.524 . S
C1262 H1274 0.956 . S
C1262 H1275 0.961 . S
C1262 H1276 0.961 . S
C1263 C1260 1.539 . S
C1263 H1277 0.958 . S
C1263 H1278 0.961 . S
C1263 H1279 0.960 . S
H1264 C1248 0.931 . S
H1265 C1253 0.929 . S
H1266 C1254 0.960 . S
H1267 C1254 0.962 . S
H1268 C1254 0.960 . S
H1269 C1255 0.961 . S
H1270 C1255 0.961 . S
H1271 C1255 0.961 . S
H1272 C1256 0.931 . S
H1273 C1261 0.930 . S
H1274 C1262 0.956 . S
H1275 C1262 0.961 . S
H1276 C1262 0.961 . S
H1277 C1263 0.958 . S
H1278 C1263 0.961 . S
H1279 C1263 0.960 . S
C1280 C1281 1.391 . S
C1280 C1282 1.394 . S
C1280 H1296 0.931 . S
C1281 C1280 1.391 . S
C1281 C1285 1.376 . S
C1282 C1280 1.394 . S
C1282 C1283 1.369 . S
C1282 C1286 1.531 . S
C1283 C1282 1.369 . S
C1283 C1284 1.410 . S
C1283 C1291 1.503 . S
C1284 C1283 1.410 . S
C1284 C1285 1.392 . S
C1284 C1287 1.511 . S
C1285 C1281 1.376 . S
C1285 C1284 1.392 . S
C1285 H1297 0.929 . S
C1286 C1282 1.531 . S
C1286 H1298 0.960 . S
C1286 H1299 0.962 . S
C1286 H1300 0.960 . S
C1287 C1284 1.511 . S
C1287 H1301 0.961 . S
C1287 H1302 0.961 . S
C1287 H1303 0.961 . S
C1288 C1289 1.370 . S
C1288 C1290 1.363 . S
C1288 H1304 0.931 . S
C1289 C1288 1.370 . S
C1289 C1293 1.408 . S
C1290 C1288 1.363 . S
C1290 C1291 1.370 . S
C1290 C1294 1.524 . S
C1291 C1283 1.503 . S
C1291 C1290 1.370 . S
C1291 C1292 1.403 . S
C1292 C1291 1.403 . S
C1292 C1293 1.404 . S
C1292 C1295 1.539 . S
C1293 C1289 1.408 . S
C1293 C1292 1.404 . S
C1293 H1305 0.930 . S
C1294 C1290 1.524 . S
C1294 H1306 0.956 . S
C1294 H1307 0.961 . S
C1294 H1308 0.961 . S
C1295 C1292 1.539 . S
C1295 H1309 0.958 . S
C1295 H1310 0.961 . S
C1295 H1311 0.960 . S
H1296 C1280 0.931 . S
H1297 C1285 0.929 . S
H1298 C1286 0.960 . S
H1299 C1286 0.962 . S
H1300 C1286 0.960 . S
H1301 C1287 0.961 . S
H1302 C1287 0.961 . S
H1303 C1287 0.961 . S
H1304 C1288 0.931 . S
H1305 C1293 0.930 . S
H1306 C1294 0.956 . S
H1307 C1294 0.961 . S
H1308 C1294 0.961 . S
H1309 C1295 0.958 . S
H1310 C1295 0.961 . S
H1311 C1295 0.960 . S
C1312 C1313 1.391 . S
C1312 C1314 1.394 . S
C1312 H1328 0.931 . S
C1313 C1312 1.391 . S
C1313 C1317 1.376 1_545 S
C1314 C1312 1.394 . S
C1314 C1315 1.369 . S
C1314 C1318 1.531 . S
C1315 C1314 1.369 . S
C1315 C1316 1.410 1_545 S
C1315 C1323 1.503 1_655 S
C1316 C1315 1.410 1_565 S
C1316 C1317 1.392 . S
C1316 C1319 1.511 . S
C1317 C1313 1.376 1_565 S
C1317 C1316 1.392 . S
C1317 H1329 0.929 . S
C1318 C1314 1.531 . S
C1318 H1330 0.938 1_655 S
C1318 H1331 0.962 . S
C1318 H1332 0.960 . S
C1319 C1316 1.511 . S
C1319 H1333 0.961 . S
C1319 H1334 0.961 1_655 S
C1319 H1335 0.961 . S
C1320 C1321 1.370 . S
C1320 C1322 1.363 . S
C1320 H1336 0.931 . S
C1321 C1320 1.370 . S
C1321 C1325 1.408 1_545 S
C1322 C1320 1.363 . S
C1322 C1323 1.370 . S
C1322 C1326 1.524 . S
C1323 C1315 1.503 1_455 S
C1323 C1322 1.370 . S
C1323 C1324 1.403 1_545 S
C1324 C1323 1.403 1_565 S
C1324 C1325 1.404 . S
C1324 C1327 1.539 . S
C1325 C1321 1.408 1_565 S
C1325 C1324 1.404 . S
C1325 H1337 0.930 . S
C1326 C1322 1.524 . S
C1326 H1338 0.956 1_455 S
C1326 H1339 0.961 1_455 S
C1326 H1340 0.961 . S
C1327 C1324 1.539 . S
C1327 H1341 0.958 . S
C1327 H1342 0.961 . S
C1327 H1343 0.960 . S
H1328 C1312 0.931 . S
H1329 C1317 0.929 . S
H1330 C1318 0.938 1_455 S
H1331 C1318 0.962 . S
H1332 C1318 0.960 . S
H1333 C1319 0.961 . S
H1334 C1319 0.961 1_455 S
H1335 C1319 0.961 . S
H1336 C1320 0.931 . S
H1337 C1325 0.930 . S
H1338 C1326 0.956 1_655 S
H1339 C1326 0.961 1_655 S
H1340 C1326 0.961 . S
H1341 C1327 0.958 . S
H1342 C1327 0.961 . S
H1343 C1327 0.960 . S
C1344 C1345 1.391 1_565 S
C1344 C1346 1.394 . S
C1344 H1360 0.931 . S
C1345 C1344 1.391 1_545 S
C1345 C1349 1.376 . S
C1346 C1344 1.394 . S
C1346 C1347 1.369 1_565 S
C1346 C1350 1.531 . S
C1347 C1346 1.369 1_545 S
C1347 C1348 1.410 . S
C1347 C1355 1.503 1_455 S
C1348 C1347 1.410 . S
C1348 C1349 1.392 . S
C1348 C1351 1.511 . S
C1349 C1345 1.376 . S
C1349 C1348 1.392 . S
C1349 H1361 0.929 . S
C1350 C1346 1.531 . S
C1350 H1362 0.960 1_455 S
C1350 H1363 0.962 . S
C1350 H1364 0.960 . S
C1351 C1348 1.511 . S
C1351 H1365 0.961 . S
C1351 H1366 0.961 . S
C1351 H1367 0.961 . S
C1352 C1353 1.370 . S
C1352 C1354 1.363 . S
C1352 H1368 0.931 . S
C1353 C1352 1.370 . S
C1353 C1357 1.408 . S
C1354 C1352 1.363 . S
C1354 C1355 1.370 . S
C1354 C1358 1.524 . S
C1355 C1347 1.503 1_655 S
C1355 C1354 1.370 . S
C1355 C1356 1.403 . S
C1356 C1355 1.403 . S
C1356 C1357 1.404 . S
C1356 C1359 1.539 . S
C1357 C1353 1.408 . S
C1357 C1356 1.404 . S
C1357 H1369 0.930 . S
C1358 C1354 1.524 . S
C1358 H1370 0.956 1_545 S
C1358 H1371 0.961 1_655 S
C1358 H1372 0.961 . S
C1359 C1356 1.539 . S
C1359 H1373 0.958 . S
C1359 H1374 0.961 . S
C1359 H1375 0.960 1_655 S
H1360 C1344 0.931 . S
H1361 C1349 0.929 . S
H1362 C1350 0.960 1_655 S
H1363 C1350 0.962 . S
H1364 C1350 0.960 . S
H1365 C1351 0.961 . S
H1366 C1351 0.961 . S
H1367 C1351 0.961 . S
H1368 C1352 0.931 . S
H1369 C1357 0.930 . S
H1370 C1358 0.956 1_565 S
H1371 C1358 0.961 1_455 S
H1372 C1358 0.961 . S
H1373 C1359 0.958 . S
H1374 C1359 0.961 . S
H1375 C1359 0.960 1_455 S
C1376 C1377 1.391 . S
C1376 C1378 1.394 . S
C1376 H1392 0.931 . S
C1377 C1376 1.391 . S
C1377 C1381 1.376 . S
C1378 C1376 1.394 . S
C1378 C1379 1.369 . S
C1378 C1382 1.531 . S
C1379 C1378 1.369 . S
C1379 C1380 1.410 . S
C1379 C1387 1.503 1_655 S
C1380 C1379 1.410 . S
C1380 C1381 1.392 . S
C1380 C1383 1.511 . S
C1381 C1377 1.376 . S
C1381 C1380 1.392 . S
C1381 H1393 0.929 . S
C1382 C1378 1.531 . S
C1382 H1394 0.960 . S
C1382 H1395 0.962 . S
C1382 H1396 0.960 . S
C1383 C1380 1.511 . S
C1383 H1397 0.961 . S
C1383 H1398 0.961 1_655 S
C1383 H1399 0.961 . S
C1384 C1385 1.370 . S
C1384 C1386 1.363 . S
C1384 H1400 0.931 . S
C1385 C1384 1.370 . S
C1385 C1389 1.408 . S
C1386 C1384 1.363 . S
C1386 C1387 1.370 . S
C1386 C1390 1.524 . S
C1387 C1379 1.503 1_455 S
C1387 C1386 1.370 . S
C1387 C1388 1.403 . S
C1388 C1387 1.403 . S
C1388 C1389 1.404 . S
C1388 C1391 1.539 . S
C1389 C1385 1.408 . S
C1389 C1388 1.404 . S
C1389 H1401 0.930 . S
C1390 C1386 1.524 . S
C1390 H1402 0.956 1_455 S
C1390 H1403 0.961 1_455 S
C1390 H1404 0.961 . S
C1391 C1388 1.539 . S
C1391 H1405 0.958 . S
C1391 H1406 0.961 . S
C1391 H1407 0.960 . S
H1392 C1376 0.931 . S
H1393 C1381 0.929 . S
H1394 C1382 0.960 . S
H1395 C1382 0.962 . S
H1396 C1382 0.960 . S
H1397 C1383 0.961 . S
H1398 C1383 0.961 1_455 S
H1399 C1383 0.961 . S
H1400 C1384 0.931 . S
H1401 C1389 0.930 . S
H1402 C1390 0.956 1_655 S
H1403 C1390 0.961 1_655 S
H1404 C1390 0.961 . S
H1405 C1391 0.958 . S
H1406 C1391 0.961 . S
H1407 C1391 0.960 . S
C1408 C1409 1.391 . S
C1408 C1410 1.394 . S
C1408 H1424 0.931 . S
C1409 C1408 1.391 . S
C1409 C1413 1.376 . S
C1410 C1408 1.394 . S
C1410 C1411 1.369 . S
C1410 C1414 1.531 . S
C1411 C1410 1.369 . S
C1411 C1412 1.410 . S
C1411 C1419 1.503 1_655 S
C1412 C1411 1.410 . S
C1412 C1413 1.392 . S
C1412 C1415 1.511 . S
C1413 C1409 1.376 . S
C1413 C1412 1.392 . S
C1413 H1425 0.929 . S
C1414 C1410 1.531 . S
C1414 H1426 0.960 . S
C1414 H1427 0.962 . S
C1414 H1428 0.960 . S
C1415 C1412 1.511 . S
C1415 H1429 0.961 . S
C1415 H1430 0.961 1_655 S
C1415 H1431 0.961 . S
C1416 C1417 1.370 . S
C1416 C1418 1.363 . S
C1416 H1432 0.931 . S
C1417 C1416 1.370 . S
C1417 C1421 1.408 . S
C1418 C1416 1.363 . S
C1418 C1419 1.370 . S
C1418 C1422 1.524 . S
C1419 C1411 1.503 1_455 S
C1419 C1418 1.370 . S
C1419 C1420 1.403 . S
C1420 C1419 1.403 . S
C1420 C1421 1.404 . S
C1420 C1423 1.539 . S
C1421 C1417 1.408 . S
C1421 C1420 1.404 . S
C1421 H1433 0.930 . S
C1422 C1418 1.524 . S
C1422 H1434 0.956 . S
C1422 H1435 0.961 . S
C1422 H1436 0.961 . S
C1423 C1420 1.539 . S
C1423 H1437 0.958 . S
C1423 H1438 0.961 . S
C1423 H1439 0.960 1_455 S
H1424 C1408 0.931 . S
H1425 C1413 0.929 . S
H1426 C1414 0.960 . S
H1427 C1414 0.962 . S
H1428 C1414 0.960 . S
H1429 C1415 0.961 . S
H1430 C1415 0.961 1_455 S
H1431 C1415 0.961 . S
H1432 C1416 0.931 . S
H1433 C1421 0.930 . S
H1434 C1422 0.956 . S
H1435 C1422 0.961 . S
H1436 C1422 0.961 . S
H1437 C1423 0.958 . S
H1438 C1423 0.961 . S
H1439 C1423 0.960 1_655 S
C1440 C1441 1.391 . S
C1440 C1442 1.394 . S
C1440 H1456 0.931 . S
C1441 C1440 1.391 . S
C1441 C1445 1.376 1_545 S
C1442 C1440 1.394 . S
C1442 C1443 1.369 . S
C1442 C1446 1.531 . S
C1443 C1442 1.369 . S
C1443 C1444 1.410 1_545 S
C1443 C1451 1.503 . S
C1444 C1443 1.410 1_565 S
C1444 C1445 1.392 . S
C1444 C1447 1.511 . S
C1445 C1441 1.376 1_565 S
C1445 C1444 1.392 . S
C1445 H1457 0.929 . S
C1446 C1442 1.531 . S
C1446 H1458 0.960 . S
C1446 H1459 0.962 . S
C1446 H1460 0.960 . S
C1447 C1444 1.511 . S
C1447 H1461 0.961 . S
C1447 H1462 0.961 . S
C1447 H1463 0.961 . S
C1448 C1449 1.370 . S
C1448 C1450 1.363 . S
C1448 H1464 0.931 . S
C1449 C1448 1.370 . S
C1449 C1453 1.408 . S
C1450 C1448 1.363 . S
C1450 C1451 1.370 . S
C1450 C1454 1.524 1_545 S
C1451 C1443 1.503 . S
C1451 C1450 1.370 . S
C1451 C1452 1.403 . S
C1452 C1451 1.403 . S
C1452 C1453 1.404 . S
C1452 C1455 1.539 . S
C1453 C1449 1.408 . S
C1453 C1452 1.404 . S
C1453 H1465 0.930 . S
C1454 C1450 1.524 1_565 S
C1454 H1466 0.956 1_565 S
C1454 H1467 0.961 . S
C1454 H1468 0.961 . S
C1455 C1452 1.539 . S
C1455 H1469 0.958 . S
C1455 H1470 0.961 . S
C1455 H1471 0.960 . S
H1456 C1440 0.931 . S
H1457 C1445 0.929 . S
H1458 C1446 0.960 . S
H1459 C1446 0.962 . S
H1460 C1446 0.960 . S
H1461 C1447 0.961 . S
H1462 C1447 0.961 . S
H1463 C1447 0.961 . S
H1464 C1448 0.931 . S
H1465 C1453 0.930 . S
H1466 C1454 0.956 1_545 S
H1467 C1454 0.961 . S
H1468 C1454 0.961 . S
H1469 C1455 0.958 . S
H1470 C1455 0.961 . S
H1471 C1455 0.960 . S
C1472 C1473 1.391 1_565 S
C1472 C1474 1.394 . S
C1472 H1488 0.931 . S
C1473 C1472 1.391 1_545 S
C1473 C1477 1.376 . S
C1474 C1472 1.394 . S
C1474 C1475 1.369 1_565 S
C1474 C1478 1.531 . S
C1475 C1474 1.369 1_545 S
C1475 C1476 1.410 . S
C1475 C1483 1.503 . S
C1476 C1475 1.410 . S
C1476 C1477 1.392 . S
C1476 C1479 1.511 . S
C1477 C1473 1.376 . S
C1477 C1476 1.392 . S
C1477 H1489 0.929 . S
C1478 C1474 1.531 . S
C1478 H1490 0.960 . S
C1478 H1491 0.962 . S
C1478 H1492 0.960 . S
C1479 C1476 1.511 . S
C1479 H1493 0.961 . S
C1479 H1494 0.961 . S
C1479 H1495 0.961 . S
C1480 C1481 1.370 1_565 S
C1480 C1482 1.363 1_565 S
C1480 H1496 0.931 . S
C1481 C1480 1.370 1_545 S
C1481 C1485 1.408 . S
C1482 C1480 1.363 1_545 S
C1482 C1483 1.370 . S
C1482 C1486 1.524 1_545 S
C1483 C1475 1.503 . S
C1483 C1482 1.370 . S
C1483 C1484 1.403 . S
C1484 C1483 1.403 . S
C1484 C1485 1.404 . S
C1484 C1487 1.539 . S
C1485 C1481 1.408 . S
C1485 C1484 1.404 . S
C1485 H1497 0.930 . S
C1486 C1482 1.524 1_565 S
C1486 H1498 0.956 . S
C1486 H1499 0.961 1_565 S
C1486 H1500 0.961 . S
C1487 C1484 1.539 . S
C1487 H1501 0.958 . S
C1487 H1502 0.961 . S
C1487 H1503 0.960 . S
H1488 C1472 0.931 . S
H1489 C1477 0.929 . S
H1490 C1478 0.960 . S
H1491 C1478 0.962 . S
H1492 C1478 0.960 . S
H1493 C1479 0.961 . S
H1494 C1479 0.961 . S
H1495 C1479 0.961 . S
H1496 C1480 0.931 . S
H1497 C1485 0.930 . S
H1498 C1486 0.956 . S
H1499 C1486 0.961 1_545 S
H1500 C1486 0.961 . S
H1501 C1487 0.958 . S
H1502 C1487 0.961 . S
H1503 C1487 0.960 . S
C1504 C1505 1.391 . S
C1504 C1506 1.394 . S
C1504 H1520 0.931 . S
C1505 C1504 1.391 . S
C1505 C1509 1.376 . S
C1506 C1504 1.394 . S
C1506 C1507 1.369 . S
C1506 C1510 1.531 . S
C1507 C1506 1.369 . S
C1507 C1508 1.410 . S
C1507 C1515 1.503 . S
C1508 C1507 1.410 . S
C1508 C1509 1.392 . S
C1508 C1511 1.511 . S
C1509 C1505 1.376 . S
C1509 C1508 1.392 . S
C1509 H1521 0.929 . S
C1510 C1506 1.531 . S
C1510 H1522 0.960 . S
C1510 H1523 0.962 . S
C1510 H1524 0.960 . S
C1511 C1508 1.511 . S
C1511 H1525 0.961 . S
C1511 H1526 0.961 . S
C1511 H1527 0.961 . S
C1512 C1513 1.370 . S
C1512 C1514 1.363 . S
C1512 H1528 0.931 . S
C1513 C1512 1.370 . S
C1513 C1517 1.408 . S
C1514 C1512 1.363 . S
C1514 C1515 1.370 . S
C1514 C1518 1.524 . S
C1515 C1507 1.503 . S
C1515 C1514 1.370 . S
C1515 C1516 1.403 . S
C1516 C1515 1.403 . S
C1516 C1517 1.404 . S
C1516 C1519 1.539 . S
C1517 C1513 1.408 . S
C1517 C1516 1.404 . S
C1517 H1529 0.930 . S
C1518 C1514 1.524 . S
C1518 H1530 0.956 . S
C1518 H1531 0.961 . S
C1518 H1532 0.961 . S
C1519 C1516 1.539 . S
C1519 H1533 0.958 . S
C1519 H1534 0.961 . S
C1519 H1535 0.960 . S
H1520 C1504 0.931 . S
H1521 C1509 0.929 . S
H1522 C1510 0.960 . S
H1523 C1510 0.962 . S
H1524 C1510 0.960 . S
H1525 C1511 0.961 . S
H1526 C1511 0.961 . S
H1527 C1511 0.961 . S
H1528 C1512 0.931 . S
H1529 C1517 0.930 . S
H1530 C1518 0.956 . S
H1531 C1518 0.961 . S
H1532 C1518 0.961 . S
H1533 C1519 0.958 . S
H1534 C1519 0.961 . S
H1535 C1519 0.960 . S
C1536 C1537 1.391 . S
C1536 C1538 1.394 . S
C1536 H1552 0.931 . S
C1537 C1536 1.391 . S
C1537 C1541 1.376 . S
C1538 C1536 1.394 . S
C1538 C1539 1.369 . S
C1538 C1542 1.531 . S
C1539 C1538 1.369 . S
C1539 C1540 1.410 . S
C1539 C1547 1.503 . S
C1540 C1539 1.410 . S
C1540 C1541 1.392 . S
C1540 C1543 1.511 . S
C1541 C1537 1.376 . S
C1541 C1540 1.392 . S
C1541 H1553 0.929 . S
C1542 C1538 1.531 . S
C1542 H1554 0.960 . S
C1542 H1555 0.962 . S
C1542 H1556 0.960 . S
C1543 C1540 1.511 . S
C1543 H1557 0.961 . S
C1543 H1558 0.961 . S
C1543 H1559 0.961 . S
C1544 C1545 1.370 . S
C1544 C1546 1.363 . S
C1544 H1560 0.931 . S
C1545 C1544 1.370 . S
C1545 C1549 1.408 . S
C1546 C1544 1.363 . S
C1546 C1547 1.370 . S
C1546 C1550 1.524 . S
C1547 C1539 1.503 . S
C1547 C1546 1.370 . S
C1547 C1548 1.403 . S
C1548 C1547 1.403 . S
C1548 C1549 1.404 . S
C1548 C1551 1.539 . S
C1549 C1545 1.408 . S
C1549 C1548 1.404 . S
C1549 H1561 0.930 . S
C1550 C1546 1.524 . S
C1550 H1562 0.956 . S
C1550 H1563 0.961 . S
C1550 H1564 0.961 . S
C1551 C1548 1.539 . S
C1551 H1565 0.958 . S
C1551 H1566 0.961 . S
C1551 H1567 0.960 . S
H1552 C1536 0.931 . S
H1553 C1541 0.929 . S
H1554 C1542 0.960 . S
H1555 C1542 0.962 . S
H1556 C1542 0.960 . S
H1557 C1543 0.961 . S
H1558 C1543 0.961 . S
H1559 C1543 0.961 . S
H1560 C1544 0.931 . S
H1561 C1549 0.930 . S
H1562 C1550 0.956 . S
H1563 C1550 0.961 . S
H1564 C1550 0.961 . S
H1565 C1551 0.958 . S
H1566 C1551 0.961 . S
H1567 C1551 0.960 . S
C1568 C1569 1.391 1_565 S
C1568 C1570 1.394 . S
C1568 H1584 0.931 . S
C1569 C1568 1.391 1_545 S
C1569 C1573 1.376 . S
C1570 C1568 1.394 . S
C1570 C1571 1.369 1_565 S
C1570 C1574 1.531 . S
C1571 C1570 1.369 1_545 S
C1571 C1572 1.410 . S
C1571 C1579 1.503 1_556 S
C1572 C1571 1.410 . S
C1572 C1573 1.392 . S
C1572 C1575 1.511 . S
C1573 C1569 1.376 . S
C1573 C1572 1.392 . S
C1573 H1585 0.929 . S
C1574 C1570 1.531 . S
C1574 H1586 0.960 1_556 S
C1574 H1587 0.962 . S
C1574 H1588 0.960 . S
C1575 C1572 1.511 . S
C1575 H1589 0.961 . S
C1575 H1590 0.961 1_556 S
C1575 H1591 0.961 . S
C1576 C1577 1.370 . S
C1576 C1578 1.363 . S
C1576 H1592 0.931 . S
C1577 C1576 1.370 . S
C1577 C1581 1.408 1_545 S
C1578 C1576 1.363 . S
C1578 C1579 1.370 . S
C1578 C1582 1.524 . S
C1579 C1571 1.503 1_554 S
C1579 C1578 1.370 . S
C1579 C1580 1.403 1_545 S
C1580 C1579 1.403 1_565 S
C1580 C1581 1.404 . S
C1580 C1583 1.539 . S
C1581 C1577 1.408 1_565 S
C1581 C1580 1.404 . S
C1581 H1593 0.930 . S
C1582 C1578 1.524 . S
C1582 H1594 0.969 . S
C1582 H1595 0.961 1_554 S
C1582 H1596 0.961 . S
C1583 C1580 1.539 . S
C1583 H1597 0.958 . S
C1583 H1598 0.961 . S
C1583 H1599 0.998 . S
H1584 C1568 0.931 . S
H1585 C1573 0.929 . S
H1586 C1574 0.960 1_554 S
H1587 C1574 0.962 . S
H1588 C1574 0.960 . S
H1589 C1575 0.961 . S
H1590 C1575 0.961 1_554 S
H1591 C1575 0.961 . S
H1592 C1576 0.931 . S
H1593 C1581 0.930 . S
H1594 C1582 0.969 . S
H1595 C1582 0.961 1_556 S
H1596 C1582 0.961 . S
H1597 C1583 0.958 . S
H1598 C1583 0.961 . S
H1599 C1583 0.998 . S
C1600 C1601 1.391 . S
C1600 C1602 1.394 . S
C1600 H1616 0.931 . S
C1601 C1600 1.391 . S
C1601 C1605 1.376 . S
C1602 C1600 1.394 . S
C1602 C1603 1.369 . S
C1602 C1606 1.531 . S
C1603 C1602 1.369 . S
C1603 C1604 1.410 . S
C1603 C1611 1.503 1_556 S
C1604 C1603 1.410 . S
C1604 C1605 1.392 . S
C1604 C1607 1.511 1_545 S
C1605 C1601 1.376 . S
C1605 C1604 1.392 . S
C1605 H1617 0.929 1_545 S
C1606 C1602 1.531 . S
C1606 H1618 0.960 1_556 S
C1606 H1619 0.962 . S
C1606 H1620 0.960 . S
C1607 C1604 1.511 1_565 S
C1607 H1621 0.961 . S
C1607 H1622 0.961 1_556 S
C1607 H1623 0.961 1_565 S
C1608 C1609 1.370 1_565 S
C1608 C1610 1.363 . S
C1608 H1624 0.931 . S
C1609 C1608 1.370 1_545 S
C1609 C1613 1.408 . S
C1610 C1608 1.363 . S
C1610 C1611 1.370 1_565 S
C1610 C1614 1.524 . S
C1611 C1603 1.503 1_554 S
C1611 C1610 1.370 1_545 S
C1611 C1612 1.403 . S
C1612 C1611 1.403 . S
C1612 C1613 1.404 . S
C1612 C1615 1.539 . S
C1613 C1609 1.408 . S
C1613 C1612 1.404 . S
C1613 H1625 0.930 . S
C1614 C1610 1.524 . S
C1614 H1626 0.970 . S
C1614 H1627 0.961 1_554 S
C1614 H1628 0.961 . S
C1615 C1612 1.539 . S
C1615 H1629 0.958 . S
C1615 H1630 0.961 . S
C1615 H1631 0.996 . S
H1616 C1600 0.931 . S
H1617 C1605 0.929 1_565 S
H1618 C1606 0.960 1_554 S
H1619 C1606 0.962 . S
H1620 C1606 0.960 . S
H1621 C1607 0.961 . S
H1622 C1607 0.961 1_554 S
H1623 C1607 0.961 1_545 S
H1624 C1608 0.931 . S
H1625 C1613 0.930 . S
H1626 C1614 0.970 . S
H1627 C1614 0.961 1_556 S
H1628 C1614 0.961 . S
H1629 C1615 0.958 . S
H1630 C1615 0.961 . S
H1631 C1615 0.996 . S
C1632 C1633 1.391 . S
C1632 C1634 1.394 . S
C1632 H1648 0.931 . S
C1633 C1632 1.391 . S
C1633 C1637 1.376 . S
C1634 C1632 1.394 . S
C1634 C1635 1.369 . S
C1634 C1638 1.531 . S
C1635 C1634 1.369 . S
C1635 C1636 1.410 . S
C1635 C1643 1.503 . S
C1636 C1635 1.410 . S
C1636 C1637 1.392 . S
C1636 C1639 1.511 . S
C1637 C1633 1.376 . S
C1637 C1636 1.392 . S
C1637 H1649 0.929 . S
C1638 C1634 1.531 . S
C1638 H1650 0.960 . S
C1638 H1651 0.962 . S
C1638 H1652 0.960 . S
C1639 C1636 1.511 . S
C1639 H1653 0.961 . S
C1639 H1654 0.961 . S
C1639 H1655 0.961 . S
C1640 C1641 1.370 . S
C1640 C1642 1.363 . S
C1640 H1656 0.931 . S
C1641 C1640 1.370 . S
C1641 C1645 1.408 . S
C1642 C1640 1.363 . S
C1642 C1643 1.370 . S
C1642 C1646 1.524 . S
C1643 C1635 1.503 . S
C1643 C1642 1.370 . S
C1643 C1644 1.403 . S
C1644 C1643 1.403 . S
C1644 C1645 1.404 . S
C1644 C1647 1.539 . S
C1645 C1641 1.408 . S
C1645 C1644 1.404 . S
C1645 H1657 0.930 . S
C1646 C1642 1.524 . S
C1646 H1658 0.956 . S
C1646 H1659 0.961 . S
C1646 H1660 0.961 . S
C1647 C1644 1.539 . S
C1647 H1661 0.958 . S
C1647 H1662 0.961 . S
C1647 H1663 0.960 . S
H1648 C1632 0.931 . S
H1649 C1637 0.929 . S
H1650 C1638 0.960 . S
H1651 C1638 0.962 . S
H1652 C1638 0.960 . S
H1653 C1639 0.961 . S
H1654 C1639 0.961 . S
H1655 C1639 0.961 . S
H1656 C1640 0.931 . S
H1657 C1645 0.930 . S
H1658 C1646 0.956 . S
H1659 C1646 0.961 . S
H1660 C1646 0.961 . S
H1661 C1647 0.958 . S
H1662 C1647 0.961 . S
H1663 C1647 0.960 . S
C1664 C1665 1.391 . S
C1664 C1666 1.394 . S
C1664 H1680 0.931 . S
C1665 C1664 1.391 . S
C1665 C1669 1.376 . S
C1666 C1664 1.394 . S
C1666 C1667 1.369 . S
C1666 C1670 1.531 . S
C1667 C1666 1.369 . S
C1667 C1668 1.410 . S
C1667 C1675 1.503 . S
C1668 C1667 1.410 . S
C1668 C1669 1.392 . S
C1668 C1671 1.511 . S
C1669 C1665 1.376 . S
C1669 C1668 1.392 . S
C1669 H1681 0.929 . S
C1670 C1666 1.531 . S
C1670 H1682 0.960 . S
C1670 H1683 0.962 . S
C1670 H1684 0.960 . S
C1671 C1668 1.511 . S
C1671 H1685 0.961 . S
C1671 H1686 0.961 . S
C1671 H1687 0.961 . S
C1672 C1673 1.370 . S
C1672 C1674 1.363 . S
C1672 H1688 0.931 . S
C1673 C1672 1.370 . S
C1673 C1677 1.408 . S
C1674 C1672 1.363 . S
C1674 C1675 1.370 . S
C1674 C1678 1.524 . S
C1675 C1667 1.503 . S
C1675 C1674 1.370 . S
C1675 C1676 1.403 . S
C1676 C1675 1.403 . S
C1676 C1677 1.404 . S
C1676 C1679 1.539 . S
C1677 C1673 1.408 . S
C1677 C1676 1.404 . S
C1677 H1689 0.930 . S
C1678 C1674 1.524 . S
C1678 H1690 0.956 . S
C1678 H1691 0.961 . S
C1678 H1692 0.961 . S
C1679 C1676 1.539 . S
C1679 H1693 0.958 . S
C1679 H1694 0.961 . S
C1679 H1695 0.960 . S
H1680 C1664 0.931 . S
H1681 C1669 0.929 . S
H1682 C1670 0.960 . S
H1683 C1670 0.962 . S
H1684 C1670 0.960 . S
H1685 C1671 0.961 . S
H1686 C1671 0.961 . S
H1687 C1671 0.961 . S
H1688 C1672 0.931 . S
H1689 C1677 0.930 . S
H1690 C1678 0.956 . S
H1691 C1678 0.961 . S
H1692 C1678 0.961 . S
H1693 C1679 0.958 . S
H1694 C1679 0.961 . S
H1695 C1679 0.960 . S
C1696 C1697 1.391 . S
C1696 C1698 1.394 . S
C1696 H1712 0.931 . S
C1697 C1696 1.391 . S
C1697 C1701 1.376 1_545 S
C1698 C1696 1.394 . S
C1698 C1699 1.369 . S
C1698 C1702 1.531 . S
C1699 C1698 1.369 . S
C1699 C1700 1.410 1_545 S
C1699 C1707 1.503 . S
C1700 C1699 1.410 1_565 S
C1700 C1701 1.392 . S
C1700 C1703 1.511 . S
C1701 C1697 1.376 1_565 S
C1701 C1700 1.392 . S
C1701 H1713 0.929 . S
C1702 C1698 1.531 . S
C1702 H1714 0.960 . S
C1702 H1715 0.962 . S
C1702 H1716 0.960 . S
C1703 C1700 1.511 . S
C1703 H1717 0.961 . S
C1703 H1718 0.961 . S
C1703 H1719 0.961 . S
C1704 C1705 1.370 1_565 S
C1704 C1706 1.363 . S
C1704 H1720 0.931 . S
C1705 C1704 1.370 1_545 S
C1705 C1709 1.408 . S
C1706 C1704 1.363 . S
C1706 C1707 1.370 1_565 S
C1706 C1710 1.524 . S
C1707 C1699 1.503 . S
C1707 C1706 1.370 1_545 S
C1707 C1708 1.403 . S
C1708 C1707 1.403 . S
C1708 C1709 1.404 . S
C1708 C1711 1.539 . S
C1709 C1705 1.408 . S
C1709 C1708 1.404 . S
C1709 H1721 0.930 . S
C1710 C1706 1.524 . S
C1710 H1722 0.956 . S
C1710 H1723 0.961 . S
C1710 H1724 0.961 . S
C1711 C1708 1.539 . S
C1711 H1725 0.958 . S
C1711 H1726 0.961 . S
C1711 H1727 0.960 . S
H1712 C1696 0.931 . S
H1713 C1701 0.929 . S
H1714 C1702 0.960 . S
H1715 C1702 0.962 . S
H1716 C1702 0.960 . S
H1717 C1703 0.961 . S
H1718 C1703 0.961 . S
H1719 C1703 0.961 . S
H1720 C1704 0.931 . S
H1721 C1709 0.930 . S
H1722 C1710 0.956 . S
H1723 C1710 0.961 . S
H1724 C1710 0.961 . S
H1725 C1711 0.958 . S
H1726 C1711 0.961 . S
H1727 C1711 0.960 . S
C1728 C1729 1.391 . S
C1728 C1730 1.394 . S
C1728 H1744 0.931 . S
C1729 C1728 1.391 . S
C1729 C1733 1.376 1_545 S
C1730 C1728 1.394 . S
C1730 C1731 1.369 . S
C1730 C1734 1.531 . S
C1731 C1730 1.369 . S
C1731 C1732 1.410 1_545 S
C1731 C1739 1.503 . S
C1732 C1731 1.410 1_565 S
C1732 C1733 1.392 . S
C1732 C1735 1.511 . S
C1733 C1729 1.376 1_565 S
C1733 C1732 1.392 . S
C1733 H1745 0.929 . S
C1734 C1730 1.531 . S
C1734 H1746 0.960 . S
C1734 H1747 0.962 . S
C1734 H1748 0.960 . S
C1735 C1732 1.511 . S
C1735 H1749 0.961 . S
C1735 H1750 0.961 . S
C1735 H1751 0.961 . S
C1736 C1737 1.370 1_565 S
C1736 C1738 1.363 . S
C1736 H1752 0.931 . S
C1737 C1736 1.370 1_545 S
C1737 C1741 1.408 . S
C1738 C1736 1.363 . S
C1738 C1739 1.370 1_565 S
C1738 C1742 1.524 . S
C1739 C1731 1.503 . S
C1739 C1738 1.370 1_545 S
C1739 C1740 1.403 . S
C1740 C1739 1.403 . S
C1740 C1741 1.404 . S
C1740 C1743 1.539 . S
C1741 C1737 1.408 . S
C1741 C1740 1.404 . S
C1741 H1753 0.930 . S
C1742 C1738 1.524 . S
C1742 H1754 0.956 . S
C1742 H1755 0.961 . S
C1742 H1756 0.961 . S
C1743 C1740 1.539 . S
C1743 H1757 0.958 . S
C1743 H1758 0.961 . S
C1743 H1759 0.960 . S
H1744 C1728 0.931 . S
H1745 C1733 0.929 . S
H1746 C1734 0.960 . S
H1747 C1734 0.962 . S
H1748 C1734 0.960 . S
H1749 C1735 0.961 . S
H1750 C1735 0.961 . S
H1751 C1735 0.961 . S
H1752 C1736 0.931 . S
H1753 C1741 0.930 . S
H1754 C1742 0.956 . S
H1755 C1742 0.961 . S
H1756 C1742 0.961 . S
H1757 C1743 0.958 . S
H1758 C1743 0.961 . S
H1759 C1743 0.960 . S
C1760 C1761 1.391 . S
C1760 C1762 1.394 . S
C1760 H1776 0.931 . S
C1761 C1760 1.391 . S
C1761 C1765 1.376 . S
C1762 C1760 1.394 . S
C1762 C1763 1.369 . S
C1762 C1766 1.531 . S
C1763 C1762 1.369 . S
C1763 C1764 1.410 . S
C1763 C1771 1.503 1_554 S
C1764 C1763 1.410 . S
C1764 C1765 1.392 . S
C1764 C1767 1.511 . S
C1765 C1761 1.376 . S
C1765 C1764 1.392 . S
C1765 H1777 0.929 . S
C1766 C1762 1.531 . S
C1766 H1778 0.960 1_554 S
C1766 H1779 0.962 . S
C1766 H1780 0.960 . S
C1767 C1764 1.511 . S
C1767 H1781 0.961 . S
C1767 H1782 0.961 1_554 S
C1767 H1783 0.961 . S
C1768 C1769 1.370 . S
C1768 C1770 1.363 . S
C1768 H1784 0.931 . S
C1769 C1768 1.370 . S
C1769 C1773 1.408 . S
C1770 C1768 1.363 . S
C1770 C1771 1.370 . S
C1770 C1774 1.524 . S
C1771 C1763 1.503 1_556 S
C1771 C1770 1.370 . S
C1771 C1772 1.403 . S
C1772 C1771 1.403 . S
C1772 C1773 1.404 . S
C1772 C1775 1.539 . S
C1773 C1769 1.408 . S
C1773 C1772 1.404 . S
C1773 H1785 0.930 . S
C1774 C1770 1.524 . S
C1774 H1786 0.956 . S
C1774 H1787 0.939 1_556 S
C1774 H1788 0.961 . S
C1775 C1772 1.539 . S
C1775 H1789 0.958 . S
C1775 H1790 0.961 . S
C1775 H1791 0.952 1_556 S
H1776 C1760 0.931 . S
H1777 C1765 0.929 . S
H1778 C1766 0.960 1_556 S
H1779 C1766 0.962 . S
H1780 C1766 0.960 . S
H1781 C1767 0.961 . S
H1782 C1767 0.961 1_556 S
H1783 C1767 0.961 . S
H1784 C1768 0.931 . S
H1785 C1773 0.930 . S
H1786 C1774 0.956 . S
H1787 C1774 0.939 1_554 S
H1788 C1774 0.961 . S
H1789 C1775 0.958 . S
H1790 C1775 0.961 . S
H1791 C1775 0.952 1_554 S
C1792 C1793 1.391 . S
C1792 C1794 1.394 . S
C1792 H1808 0.931 . S
C1793 C1792 1.391 . S
C1793 C1797 1.376 . S
C1794 C1792 1.394 . S
C1794 C1795 1.369 . S
C1794 C1798 1.531 . S
C1795 C1794 1.369 . S
C1795 C1796 1.410 . S
C1795 C1803 1.503 1_556 S
C1796 C1795 1.410 . S
C1796 C1797 1.392 . S
C1796 C1799 1.511 . S
C1797 C1793 1.376 . S
C1797 C1796 1.392 . S
C1797 H1809 0.929 . S
C1798 C1794 1.531 . S
C1798 H1810 0.960 1_556 S
C1798 H1811 0.962 . S
C1798 H1812 0.960 . S
C1799 C1796 1.511 . S
C1799 H1813 0.961 . S
C1799 H1814 0.961 1_556 S
C1799 H1815 0.961 . S
C1800 C1801 1.370 . S
C1800 C1802 1.363 . S
C1800 H1816 0.931 . S
C1801 C1800 1.370 . S
C1801 C1805 1.408 . S
C1802 C1800 1.363 . S
C1802 C1803 1.370 . S
C1802 C1806 1.524 . S
C1803 C1795 1.503 1_554 S
C1803 C1802 1.370 . S
C1803 C1804 1.403 . S
C1804 C1803 1.403 . S
C1804 C1805 1.404 . S
C1804 C1807 1.539 . S
C1805 C1801 1.408 . S
C1805 C1804 1.404 . S
C1805 H1817 0.930 . S
C1806 C1802 1.524 . S
C1806 H1818 0.968 . S
C1806 H1819 0.961 1_554 S
C1806 H1820 0.961 . S
C1807 C1804 1.539 . S
C1807 H1821 0.958 . S
C1807 H1822 0.961 . S
C1807 H1823 0.999 . S
H1808 C1792 0.931 . S
H1809 C1797 0.929 . S
H1810 C1798 0.960 1_554 S
H1811 C1798 0.962 . S
H1812 C1798 0.960 . S
H1813 C1799 0.961 . S
H1814 C1799 0.961 1_554 S
H1815 C1799 0.961 . S
H1816 C1800 0.931 . S
H1817 C1805 0.930 . S
H1818 C1806 0.968 . S
H1819 C1806 0.961 1_556 S
H1820 C1806 0.961 . S
H1821 C1807 0.958 . S
H1822 C1807 0.961 . S
H1823 C1807 0.999 . S
C545 C9 1.417 . S
C553 C383 1.412 . S
C577 C43 1.410 . S
C585 C349 1.435 . S
C609 C315 1.452 . S
C617 C77 1.416 . S
C641 C281 1.439 . S
C649 C111 1.408 . S
C673 C145 1.401 . S
C681 C519 1.436 . S
C705 C179 1.424 . S
C713 C485 1.410 . S
C737 C451 1.414 . S
C745 C213 1.434 . S
C769 C417 1.423 . S
C777 C247 1.410 . S
C801 C2 2.014 . S
C809 C444 2.018 . S
C833 C410 2.013 . S
C841 C36 2.020 . S
C865 C70 2.014 . S
C873 C512 2.017 . S
C897 C478 2.014 . S
C905 C104 2.020 . S
C929 C122 1.011 . S
C937 C496 1.026 . S
C961 C530 1.017 . S
C969 C88 1.021 . S
C993 C428 1.028 . S
C1001 C54 1.018 . S
C1025 C20 1.017 . S
C1033 C462 1.025 . S
C1057 C138 2.011 . S
C1065 C308 2.020 . S
C1089 C172 2.014 . S
C1097 C274 2.020 . S
C1121 C206 2.011 . S
C1129 C376 2.019 . S
C1153 C240 2.013 . S
C1161 C342 2.018 . S
C1185 C258 1.015 . S
C1193 C360 1.026 . S
C1217 C224 1.026 . S
C1225 C394 1.018 . S
C1249 C190 1.019 . S
C1257 C292 1.020 . S
C1281 C156 1.029 . S
C1289 C326 1.018 . S
C1313 C67 1.608 . S
C1321 C33 1.600 . S
C1345 C101 1.603 . S
C1353 C135 1.608 . S
C1377 C203 1.601 . S
C1385 C169 1.601 . S
C1409 C271 1.589 . S
C1417 C237 1.609 . S
C1441 C339 1.594 . S
C1449 C305 1.604 . S
C1473 C407 1.601 . S
C1481 C373 1.601 . S
C1505 C441 1.606 . S
C1513 C475 1.607 . S
C1537 C543 1.606 . S
C1545 C509 1.607 . S
C1569 C73 1.462 . S
C1577 C5 1.471 . S
C1601 C107 1.461 . S
C1609 C39 1.471 . S
C1633 C141 1.465 . S
C1641 C209 1.473 . S
C1665 C243 1.482 . S
C1673 C175 1.478 . S
C1697 C277 1.457 . S
C1705 C345 1.469 . S
C1729 C379 1.458 . S
C1737 C311 1.469 . S
C1761 C413 1.477 . S
C1769 C481 1.476 . S
C1793 C515 1.462 . S
C1801 C447 1.471 . S
