# Generated by pormake.
# Topology xff, (7)-cn, num edge types: 1
# Building blocks:
#     Node 0, Type 0, BuildingBlock: NUHQUE_clean_sbu_2, # of connection points: 7
#     Node 1, Type 0, BuildingBlock: NUHQUE_clean_sbu_2, # of connection points: 7
#     Node 2, Type 0, BuildingBlock: NUHQUE_clean_sbu_2, # of connection points: 7
#     Node 3, Type 0, BuildingBlock: NUHQUE_clean_sbu_2, # of connection points: 7
#     Node 4, Type 0, BuildingBlock: NUHQUE_clean_sbu_2, # of connection points: 7
#     Node 5, Type 0, BuildingBlock: NUHQUE_clean_sbu_2, # of connection points: 7
#     Node 6, Type 0, BuildingBlock: NUHQUE_clean_sbu_2, # of connection points: 7
#     Node 7, Type 0, BuildingBlock: NUHQUE_clean_sbu_2, # of connection points: 7
#     Node 8, Type 0, BuildingBlock: NUHQUE_clean_sbu_2, # of connection points: 7
#     Node 9, Type 0, BuildingBlock: NUHQUE_clean_sbu_2, # of connection points: 7
#     Node 10, Type 0, BuildingBlock: NUHQUE_clean_sbu_2, # of connection points: 7
#     Node 11, Type 0, BuildingBlock: NUHQUE_clean_sbu_2, # of connection points: 7
#     Node 12, Type 0, BuildingBlock: NUHQUE_clean_sbu_2, # of connection points: 7
#     Node 13, Type 0, BuildingBlock: NUHQUE_clean_sbu_2, # of connection points: 7
#     Node 14, Type 0, BuildingBlock: NUHQUE_clean_sbu_2, # of connection points: 7
#     Node 15, Type 0, BuildingBlock: NUHQUE_clean_sbu_2, # of connection points: 7
#     Edge 16, Type (0, 0), BuildingBlock: ZUJKAS_clean_linker_0, # of connection points: 2
#     Edge 17, Type (0, 0), BuildingBlock: ZUJKAS_clean_linker_0, # of connection points: 2
#     Edge 18, Type (0, 0), BuildingBlock: ZUJKAS_clean_linker_0, # of connection points: 2
#     Edge 19, Type (0, 0), BuildingBlock: ZUJKAS_clean_linker_0, # of connection points: 2
#     Edge 20, Type (0, 0), BuildingBlock: ZUJKAS_clean_linker_0, # of connection points: 2
#     Edge 21, Type (0, 0), BuildingBlock: ZUJKAS_clean_linker_0, # of connection points: 2
#     Edge 22, Type (0, 0), BuildingBlock: ZUJKAS_clean_linker_0, # of connection points: 2
#     Edge 23, Type (0, 0), BuildingBlock: ZUJKAS_clean_linker_0, # of connection points: 2
#     Edge 24, Type (0, 0), BuildingBlock: ZUJKAS_clean_linker_0, # of connection points: 2
#     Edge 25, Type (0, 0), BuildingBlock: ZUJKAS_clean_linker_0, # of connection points: 2
#     Edge 26, Type (0, 0), BuildingBlock: ZUJKAS_clean_linker_0, # of connection points: 2
#     Edge 27, Type (0, 0), BuildingBlock: ZUJKAS_clean_linker_0, # of connection points: 2
#     Edge 28, Type (0, 0), BuildingBlock: ZUJKAS_clean_linker_0, # of connection points: 2
#     Edge 29, Type (0, 0), BuildingBlock: ZUJKAS_clean_linker_0, # of connection points: 2
#     Edge 30, Type (0, 0), BuildingBlock: ZUJKAS_clean_linker_0, # of connection points: 2
#     Edge 31, Type (0, 0), BuildingBlock: ZUJKAS_clean_linker_0, # of connection points: 2
#     Edge 32, Type (0, 0), BuildingBlock: ZUJKAS_clean_linker_0, # of connection points: 2
#     Edge 33, Type (0, 0), BuildingBlock: ZUJKAS_clean_linker_0, # of connection points: 2
#     Edge 34, Type (0, 0), BuildingBlock: ZUJKAS_clean_linker_0, # of connection points: 2
#     Edge 35, Type (0, 0), BuildingBlock: ZUJKAS_clean_linker_0, # of connection points: 2
#     Edge 36, Type (0, 0), BuildingBlock: ZUJKAS_clean_linker_0, # of connection points: 2
#     Edge 37, Type (0, 0), BuildingBlock: ZUJKAS_clean_linker_0, # of connection points: 2
#     Edge 38, Type (0, 0), BuildingBlock: ZUJKAS_clean_linker_0, # of connection points: 2
#     Edge 39, Type (0, 0), BuildingBlock: ZUJKAS_clean_linker_0, # of connection points: 2
#     Edge 40, Type (0, 0), BuildingBlock: ZUJKAS_clean_linker_0, # of connection points: 2
#     Edge 41, Type (0, 0), BuildingBlock: ZUJKAS_clean_linker_0, # of connection points: 2
#     Edge 42, Type (0, 0), BuildingBlock: ZUJKAS_clean_linker_0, # of connection points: 2
#     Edge 43, Type (0, 0), BuildingBlock: ZUJKAS_clean_linker_0, # of connection points: 2
#     Edge 44, Type (0, 0), BuildingBlock: ZUJKAS_clean_linker_0, # of connection points: 2
#     Edge 45, Type (0, 0), BuildingBlock: ZUJKAS_clean_linker_0, # of connection points: 2
#     Edge 46, Type (0, 0), BuildingBlock: ZUJKAS_clean_linker_0, # of connection points: 2
#     Edge 47, Type (0, 0), BuildingBlock: ZUJKAS_clean_linker_0, # of connection points: 2
#     Edge 48, Type (0, 0), BuildingBlock: ZUJKAS_clean_linker_0, # of connection points: 2
#     Edge 49, Type (0, 0), BuildingBlock: ZUJKAS_clean_linker_0, # of connection points: 2
#     Edge 50, Type (0, 0), BuildingBlock: ZUJKAS_clean_linker_0, # of connection points: 2
#     Edge 51, Type (0, 0), BuildingBlock: ZUJKAS_clean_linker_0, # of connection points: 2
#     Edge 52, Type (0, 0), BuildingBlock: ZUJKAS_clean_linker_0, # of connection points: 2
#     Edge 53, Type (0, 0), BuildingBlock: ZUJKAS_clean_linker_0, # of connection points: 2
#     Edge 54, Type (0, 0), BuildingBlock: ZUJKAS_clean_linker_0, # of connection points: 2
#     Edge 55, Type (0, 0), BuildingBlock: ZUJKAS_clean_linker_0, # of connection points: 2
#     Edge 56, Type (0, 0), BuildingBlock: ZUJKAS_clean_linker_0, # of connection points: 2
#     Edge 57, Type (0, 0), BuildingBlock: ZUJKAS_clean_linker_0, # of connection points: 2
#     Edge 58, Type (0, 0), BuildingBlock: ZUJKAS_clean_linker_0, # of connection points: 2
#     Edge 59, Type (0, 0), BuildingBlock: ZUJKAS_clean_linker_0, # of connection points: 2
#     Edge 60, Type (0, 0), BuildingBlock: ZUJKAS_clean_linker_0, # of connection points: 2
#     Edge 61, Type (0, 0), BuildingBlock: ZUJKAS_clean_linker_0, # of connection points: 2
#     Edge 62, Type (0, 0), BuildingBlock: ZUJKAS_clean_linker_0, # of connection points: 2
#     Edge 63, Type (0, 0), BuildingBlock: ZUJKAS_clean_linker_0, # of connection points: 2
#     Edge 64, Type (0, 0), BuildingBlock: ZUJKAS_clean_linker_0, # of connection points: 2
#     Edge 65, Type (0, 0), BuildingBlock: ZUJKAS_clean_linker_0, # of connection points: 2
#     Edge 66, Type (0, 0), BuildingBlock: ZUJKAS_clean_linker_0, # of connection points: 2
#     Edge 67, Type (0, 0), BuildingBlock: ZUJKAS_clean_linker_0, # of connection points: 2
#     Edge 68, Type (0, 0), BuildingBlock: ZUJKAS_clean_linker_0, # of connection points: 2
#     Edge 69, Type (0, 0), BuildingBlock: ZUJKAS_clean_linker_0, # of connection points: 2
#     Edge 70, Type (0, 0), BuildingBlock: ZUJKAS_clean_linker_0, # of connection points: 2
#     Edge 71, Type (0, 0), BuildingBlock: ZUJKAS_clean_linker_0, # of connection points: 2
# Relax obj value: 0.129
# Max RMSD: 0.229
# Mean RMSD: 0.229
data_MOF--net-xff--node1-NUHQUE_clean_sbu_2--edge1-ZUJKAS_clean_linker_0
_symmetry_space_group_name_H-M    P1
_symmetry_Int_Tables_number       1
_symmetry_cell_setting            triclinic
loop_
_symmetry_equiv_pos_as_xyz
'x, y, z'
_cell_length_a     43.514038
_cell_length_b     43.470284
_cell_length_c     86.016299
_cell_angle_alpha  89.793169
_cell_angle_beta   89.580264
_cell_angle_gamma 90.087504
loop_
_atom_site_label
_atom_site_type_symbol
_atom_site_fract_x
_atom_site_fract_y
_atom_site_fract_z
_atom_type_partial_charge
O0 O 0.28506 0.21592 0.06975 0.0
Tb1 Tb 0.28597 0.2008 0.09401 0.0
Eu2 Eu 0.31045 0.1276 0.07871 0.0
C3 C 0.30535 0.23676 0.06522 0.0
O4 O 0.32748 0.2442 0.0748 0.0
C5 C 0.35575 0.18494 0.08889 0.0
O6 O 0.32021 0.10184 0.10119 0.0
C7 C 0.31931 0.09402 0.05408 0.0
C8 C 0.31804 0.11594 0.11469 0.0
O9 O 0.3113 0.14534 0.11483 0.0
C10 C 0.24481 0.14152 0.09371 0.0
C11 C 0.30389 0.07361 0.04267 0.0
C12 C 0.29477 0.08556 0.0281 0.0
C13 C 0.28345 0.06596 0.01654 0.0
C14 C 0.2803 0.03457 0.01967 0.0
C15 C 0.28921 0.02214 0.03396 0.0
C16 C 0.30136 0.04162 0.0454 0.0
O17 O 0.33494 0.19726 0.09811 0.0
O18 O 0.3493 0.16273 0.07899 0.0
O19 O 0.25672 0.24136 0.09629 0.0
O20 O 0.28624 0.22954 0.11487 0.0
C21 C 0.26565 0.24895 0.11011 0.0
O22 O 0.25877 0.13199 0.08102 0.0
O23 O 0.25643 0.1637 0.10212 0.0
O24 O 0.32348 0.08373 0.06832 0.0
O25 O 0.31262 0.12351 0.05356 0.0
H26 H 0.29771 0.1098 0.02548 0.0
H27 H 0.27197 0.01944 1.0106 0.0
H28 H 0.30927 0.03174 0.05624 0.0
O29 O 0.54235 0.52098 0.31202 0.0
Tb30 Tb 0.56593 0.53143 0.33349 0.0
Eu31 Eu 0.64001 0.56673 0.33755 0.0
C32 C 0.53969 0.54077 0.30053 0.0
O33 O 0.55634 0.56599 0.30046 0.0
C34 C 0.57641 0.60599 0.33581 0.0
O35 O 0.67125 0.58013 0.35717 0.0
C36 C 0.66585 0.56367 0.31026 0.0
C37 C 0.65768 0.58201 0.37085 0.0
O38 O 0.6278 0.57767 0.37153 0.0
C39 C 0.62452 0.4969 0.34311 0.0
C40 C 0.68629 0.54843 0.29867 0.0
C41 C 0.67319 0.53625 0.28501 0.0
C42 C 0.692 0.52578 0.27281 0.0
C43 C 0.72385 0.52755 0.27418 0.0
C44 C 0.73746 0.54046 0.28733 0.0
C45 C 0.71871 0.55038 0.29974 0.0
O46 O 0.55976 0.58152 0.33229 0.0
O47 O 0.6058 0.60502 0.33926 0.0
O48 O 0.52294 0.50877 0.33954 0.0
O49 O 0.55195 0.5231 0.35788 0.0
C50 C 0.52591 0.50981 0.35451 0.0
O51 O 0.63452 0.52173 0.34992 0.0
O52 O 0.6043 0.49891 0.33187 0.0
O53 O 0.67824 0.57809 0.32213 0.0
O54 O 0.63879 0.5513 0.31344 0.0
H55 H 0.64845 0.53597 0.28362 0.0
H56 H 0.73824 0.52015 0.26453 0.0
H57 H 0.72929 0.56114 0.30971 0.0
O58 O 0.22535 0.79746 0.56847 0.0
Tb59 Tb 0.2264 0.81357 0.59248 0.0
Eu60 Eu 0.20164 0.88764 0.57682 0.0
C61 C 0.20459 0.77677 0.56458 0.0
O62 O 0.18277 0.76993 0.57465 0.0
C63 C 0.15848 0.83085 0.58748 0.0
O64 O 0.18832 0.91339 0.59899 0.0
C65 C 0.19559 0.91914 0.55122 0.0
C66 C 0.19851 0.90329 0.61249 0.0
O67 O 0.21439 0.87768 0.61271 0.0
C68 C 0.26991 0.87309 0.59111 0.0
C69 C 0.21157 0.94144 0.54075 0.0
C70 C 0.22161 0.93188 0.52583 0.0
C71 C 0.23412 0.95323 0.51517 0.0
C72 C 0.23776 0.98384 0.5198 0.0
C73 C 0.22748 0.99392 0.53435 0.0
C74 C 0.21415 0.97279 0.54479 0.0
O75 O 0.17851 0.82259 0.59802 0.0
O76 O 0.16634 0.84926 0.57595 0.0
O77 O 0.24891 0.76885 0.59447 0.0
O78 O 0.22867 0.7884 0.61458 0.0
C79 C 0.24397 0.76503 0.60924 0.0
O80 O 0.25277 0.8881 0.58108 0.0
O81 O 0.26187 0.84692 0.59769 0.0
O82 O 0.1855 0.92879 0.56483 0.0
O83 O 0.20659 0.89099 0.55168 0.0
H84 H 0.21838 0.90821 0.52226 0.0
H85 H 0.24732 1.00046 0.51165 0.0
H86 H 0.20537 0.98096 0.55584 0.0
O87 O 0.97611 0.48663 0.80993 0.0
Tb88 Tb 0.95399 0.48054 0.83251 0.0
Eu89 Eu 0.87685 0.44469 0.83409 0.0
C90 C 0.98436 0.46326 0.80117 0.0
O91 O 0.97448 0.43554 0.8047 0.0
C92 C 0.94123 0.40593 0.8356 0.0
O93 O 0.84345 0.43267 0.85343 0.0
C94 C 0.85214 0.45038 0.8068 0.0
C95 C 0.85391 0.43536 0.86769 0.0
O96 O 0.8827 0.44341 0.8697 0.0
C97 C 0.89301 0.51386 0.84044 0.0
C98 C 0.82975 0.46572 0.79634 0.0
C99 C 0.84008 0.47704 0.78174 0.0
C100 C 0.8189 0.48702 0.77048 0.0
C101 C 0.78757 0.4869 0.77426 0.0
C102 C 0.77676 0.47459 0.78828 0.0
C103 C 0.79781 0.46447 0.79947 0.0
O104 O 0.95916 0.43053 0.835 0.0
O105 O 0.91101 0.4065 0.83528 0.0
O106 O 0.99712 0.50391 0.83753 0.0
O107 O 0.96756 0.4925 0.8564 0.0
C108 C 0.99374 0.50511 0.85251 0.0
O109 O 0.8829 0.48865 0.84696 0.0
O110 O 0.91585 0.51305 0.83038 0.0
O111 O 0.84134 0.43201 0.81778 0.0
O112 O 0.87738 0.46518 0.81076 0.0
H113 H 0.86434 0.47627 0.77881 0.0
H114 H 0.77098 0.4948 0.76577 0.0
H115 H 0.78924 0.45412 0.81013 0.0
O116 O 0.74009 0.79298 0.95668 0.0
Tb117 Tb 0.72655 0.81046 0.93392 0.0
Eu118 Eu 0.69929 0.88843 0.94509 0.0
C119 C 0.72022 0.78761 0.96799 0.0
O120 O 0.69243 0.79915 0.96713 0.0
C121 C 0.65577 0.82753 0.9382 0.0
O122 O 0.6866 0.91003 0.92177 0.0
C123 C 0.688 0.92507 0.96827 0.0
C124 C 0.70582 0.90981 0.90985 0.0
O125 O 0.73239 0.89609 0.91141 0.0
C126 C 0.76889 0.87015 0.93518 0.0
C127 C 0.70389 0.9446 0.97987 0.0
C128 C 0.71202 0.93236 0.99454 0.0
C129 C 0.72465 0.95138 1.00603 0.0
C130 C 0.7303 0.98235 1.00257 0.0
C131 C 0.72197 0.99505 0.98826 0.0
C132 C 0.70842 0.97628 0.97698 0.0
O133 O 0.67722 0.8124 0.93059 0.0
O134 O 0.66073 0.85329 0.94582 0.0
O135 O 0.73671 0.76224 0.92892 0.0
O136 O 0.7416 0.79526 0.9109 0.0
C137 C 0.74437 0.7664 0.91446 0.0
O138 O 0.75121 0.88408 0.94541 0.0
O139 O 0.75983 0.84567 0.92759 0.0
O140 O 0.68816 0.93427 0.95368 0.0
O141 O 0.69096 0.8951 0.96977 0.0
H142 H 0.70739 0.90843 0.99727 0.0
H143 H 0.74021 0.99713 1.01136 0.0
H144 H 0.70113 0.98646 0.9661 0.0
O145 O 0.47843 0.49073 0.71549 0.0
Tb146 Tb 0.45263 0.48257 0.69439 0.0
Eu147 Eu 0.3776 0.44699 0.68865 0.0
C148 C 0.47954 0.47159 0.72734 0.0
O149 O 0.46039 0.44824 0.72812 0.0
C150 C 0.44147 0.40875 0.69104 0.0
O151 O 0.34393 0.43559 0.66974 0.0
C152 C 0.35302 0.44938 0.71628 0.0
C153 C 0.35509 0.42291 0.65705 0.0
O154 O 0.38438 0.41566 0.65666 0.0
C155 C 0.39439 0.51615 0.68396 0.0
C156 C 0.33181 0.46528 0.72722 0.0
C157 C 0.34356 0.47601 0.74147 0.0
C158 C 0.324 0.48929 0.75261 0.0
C159 C 0.29264 0.49177 0.74952 0.0
C160 C 0.28017 0.48044 0.73572 0.0
C161 C 0.29979 0.46705 0.72455 0.0
O162 O 0.45722 0.43241 0.6965 0.0
O163 O 0.41314 0.41044 0.6859 0.0
O164 O 0.49133 0.51186 0.68808 0.0
O165 O 0.47026 0.48593 0.67023 0.0
C166 C 0.49216 0.50553 0.67337 0.0
O167 O 0.38468 0.49183 0.67663 0.0
O168 O 0.41298 0.51339 0.69585 0.0
O169 O 0.34114 0.43361 0.70473 0.0
O170 O 0.37928 0.46294 0.71269 0.0
H171 H 0.36782 0.4736 0.744 0.0
H172 H 0.27748 0.50113 0.75839 0.0
H173 H 0.29008 0.45778 0.71399 0.0
O174 O 0.77768 0.22373 0.46352 0.0
Tb175 Tb 0.78608 0.20196 0.44127 0.0
Eu176 Eu 0.81964 0.1233 0.44008 0.0
C177 C 0.79883 0.22699 0.4742 0.0
O178 O 0.82509 0.21239 0.47278 0.0
C179 C 0.86024 0.1866 0.44157 0.0
O180 O 0.83282 0.09289 0.41993 0.0
C181 C 0.80496 0.09123 0.46441 0.0
C182 C 0.84523 0.10529 0.4074 0.0
O183 O 0.85265 0.13459 0.40762 0.0
C184 C 0.75381 0.14321 0.43161 0.0
C185 C 0.79656 0.07224 0.4782 0.0
C186 C 0.79069 0.08638 0.49268 0.0
C187 C 0.78371 0.06839 0.50587 0.0
C188 C 0.78099 0.03647 0.50429 0.0
C189 C 0.78613 0.02189 0.49004 0.0
C190 C 0.79468 0.03982 0.47703 0.0
O191 O 0.83628 0.20484 0.43938 0.0
O192 O 0.85862 0.15648 0.44354 0.0
O193 O 0.76456 0.24601 0.43607 0.0
O194 O 0.77478 0.21615 0.41732 0.0
C195 C 0.76313 0.24274 0.42111 0.0
O196 O 0.77976 0.1354 0.42509 0.0
O197 O 0.7538 0.16374 0.44271 0.0
O198 O 0.8237 0.08093 0.45353 0.0
O199 O 0.79437 0.11933 0.46217 0.0
H200 H 0.79251 0.11115 0.49378 0.0
H201 H 0.77498 0.02265 0.51439 0.0
H202 H 0.79912 0.02867 0.46599 0.0
O203 O 0.03656 0.5327 0.21082 0.0
Tb204 Tb 0.05929 0.53976 0.18853 0.0
Eu205 Eu 0.13907 0.57126 0.1911 0.0
C206 C 0.03238 0.5543 0.22126 0.0
O207 O 0.04635 0.58092 0.21965 0.0
C208 C 0.07718 0.61096 0.19051 0.0
O209 O 0.16684 0.58884 0.17061 0.0
C210 C 0.1724 0.55674 0.21465 0.0
C211 C 0.15392 0.58712 0.15686 0.0
O212 O 0.12484 0.57911 0.15609 0.0
C213 C 0.11871 0.50497 0.1816 0.0
C214 C 0.19158 0.54843 0.22815 0.0
C215 C 0.17764 0.53864 0.24217 0.0
C216 C 0.19563 0.53347 0.25539 0.0
C217 C 0.22745 0.53722 0.25448 0.0
C218 C 0.24181 0.54639 0.24063 0.0
C219 C 0.22383 0.55191 0.2274 0.0
O220 O 0.06335 0.58884 0.18273 0.0
O221 O 0.1039 0.607 0.19726 0.0
O222 O 0.01229 0.52847 0.18198 0.0
O223 O 0.04832 0.51805 0.16614 0.0
C224 C 0.01874 0.51675 0.1685 0.0
O225 O 0.12966 0.53065 0.17596 0.0
O226 O 0.09545 0.50547 0.19137 0.0
O227 O 0.18139 0.57713 0.20419 0.0
O228 O 0.14522 0.5442 0.21228 0.0
H229 H 0.15288 0.53616 0.24299 0.0
H230 H 0.24123 0.53278 0.26472 0.0
H231 H 0.23483 0.55946 0.21671 0.0
O232 O 0.77536 0.71962 0.56793 0.0
Tb233 Tb 0.78603 0.70538 0.59174 0.0
Eu234 Eu 0.81375 0.62834 0.58175 0.0
C235 C 0.79726 0.72828 0.55817 0.0
O236 O 0.82586 0.72149 0.56145 0.0
C237 C 0.85788 0.68996 0.58795 0.0
O238 O 0.82493 0.60919 0.60565 0.0
C239 C 0.82646 0.59125 0.55903 0.0
C240 C 0.80507 0.59265 0.61376 0.0
O241 O 0.77815 0.58648 0.6077 0.0
C242 C 0.74678 0.64536 0.59309 0.0
C243 C 0.81169 0.57339 0.54645 0.0
C244 C 0.79961 0.58822 0.53317 0.0
C245 C 0.78789 0.57081 0.52085 0.0
C246 C 0.78864 0.53875 0.52165 0.0
C247 C 0.80132 0.52363 0.53446 0.0
C248 C 0.81235 0.54097 0.54699 0.0
O249 O 0.83565 0.70825 0.59269 0.0
O250 O 0.8538 0.66164 0.58289 0.0
O251 O 0.76091 0.74842 0.59454 0.0
O252 O 0.7844 0.72976 0.61391 0.0
C253 C 0.7673 0.75223 0.60911 0.0
O254 O 0.76215 0.63432 0.5812 0.0
O255 O 0.75802 0.66821 0.60113 0.0
O256 O 0.82237 0.58169 0.57345 0.0
O257 O 0.82644 0.62141 0.55764 0.0
H258 H 0.79957 0.61309 0.53226 0.0
H259 H 0.78003 0.52542 0.51196 0.0
H260 H 0.82265 0.52927 0.5568 0.0
O261 O 0.04321 0.02582 0.8142 0.0
Tb262 Tb 0.06628 0.03066 0.83631 0.0
Eu263 Eu 0.14324 0.06468 0.83189 0.0
C264 C 0.04085 0.04782 0.80377 0.0
O265 O 0.05709 0.07312 0.80518 0.0
C266 C 0.0798 0.10462 0.83613 0.0
O267 O 0.17768 0.07741 0.85038 0.0
C268 C 0.1662 0.05748 0.80417 0.0
C269 C 0.1684 0.09404 0.86229 0.0
O270 O 0.14077 0.10614 0.86196 0.0
C271 C 0.12776 0.99657 0.84261 0.0
C272 C 0.18851 0.04305 0.79328 0.0
C273 C 0.17856 0.03389 0.77836 0.0
C274 C 0.19992 0.02422 0.76694 0.0
C275 C 0.23105 0.02254 0.77096 0.0
C276 C 0.24135 0.03219 0.7855 0.0
C277 C 0.22016 0.04249 0.79667 0.0
O278 O 0.06246 0.08051 0.83958 0.0
O279 O 0.1089 0.10301 0.83198 0.0
O280 O 0.02283 1.00757 0.84119 0.0
O281 O 0.05147 0.01894 0.86017 0.0
C282 C 0.0254 1.0065 0.85619 0.0
O283 O 0.14126 0.02218 0.84662 0.0
O284 O 0.10322 0.99695 0.83381 0.0
O285 O 0.17688 0.07735 0.81435 0.0
O286 O 0.14247 0.04134 0.80932 0.0
H287 H 0.15447 0.03586 0.7754 0.0
H288 H 0.24785 0.01483 0.76245 0.0
H289 H 0.22844 0.05084 0.80774 0.0
O290 O 0.732 0.29621 0.06307 0.0
Tb291 Tb 0.72875 0.31599 0.08622 0.0
Eu292 Eu 0.69397 0.39305 0.0849 0.0
C293 C 0.70856 0.28193 0.05674 0.0
O294 O 0.68152 0.28333 0.06355 0.0
C295 C 0.65547 0.32896 0.08802 0.0
O296 O 0.67883 0.42162 0.10545 0.0
C297 C 0.70022 0.42214 0.0587 0.0
C298 C 0.67644 0.40677 0.11878 0.0
O299 O 0.6803 0.37679 0.11868 0.0
C300 C 0.76306 0.37692 0.09288 0.0
C301 C 0.71443 0.44419 0.04754 0.0
C302 C 0.72446 0.43286 0.03301 0.0
C303 C 0.73308 0.45315 0.02101 0.0
C304 C 0.73287 0.48481 0.02379 0.0
C305 C 0.72319 0.49661 0.0381 0.0
C306 C 0.71383 0.47634 0.05003 0.0
O307 O 0.67989 0.3134 0.09255 0.0
O308 O 0.65659 0.35755 0.08295 0.0
O309 O 0.74827 0.27067 0.09082 0.0
O310 O 0.74712 0.30333 0.10909 0.0
C311 C 0.75502 0.27545 0.10529 0.0
O312 O 0.7377 0.38901 0.0983 0.0
O313 O 0.76211 0.3533 0.08341 0.0
O314 O 0.68322 0.43251 0.0703 0.0
O315 O 0.7141 0.39579 0.06162 0.0
H316 H 0.72381 0.40836 0.03071 0.0
H317 H 0.73949 0.5006 0.01454 0.0
H318 H 0.70516 0.48559 0.06089 0.0
O319 O 0.46803 0.97803 0.31884 0.0
Tb320 Tb 0.45239 0.97602 0.34306 0.0
Eu321 Eu 0.38116 0.95389 0.32688 0.0
C322 C 0.48896 0.95796 0.31434 0.0
O323 O 0.49633 0.93567 0.32395 0.0
C324 C 0.43696 0.9073 0.33647 0.0
O325 O 0.3611 0.94149 0.3506 0.0
C326 C 0.34461 0.9453 0.30346 0.0
C327 C 0.34084 0.95956 0.35747 0.0
O328 O 0.33135 0.98418 0.35002 0.0
C329 C 0.39465 0.0174 0.34269 0.0
C330 C 0.32467 0.96098 0.2919 0.0
C331 C 0.33742 0.97421 0.27821 0.0
C332 C 0.31824 0.98644 0.26666 0.0
C333 C 0.2864 0.98482 0.26862 0.0
C334 C 0.27327 0.97087 0.28176 0.0
C335 C 0.29238 0.95949 0.29354 0.0
O336 O 0.44783 0.92689 0.34667 0.0
O337 O 0.41661 0.91544 0.32592 0.0
O338 O 0.49044 1.00813 0.34606 0.0
O339 O 0.48286 0.97361 0.36317 0.0
C340 C 0.5 0.99685 0.35915 0.0
O341 O 0.38685 1.0054 0.3293 0.0
O342 O 0.41406 1.00295 0.35168 0.0
O343 O 0.33523 0.94375 0.31804 0.0
O344 O 0.37448 0.94924 0.30205 0.0
H345 H 0.36208 0.97472 0.2764 0.0
H346 H 0.27159 0.99358 0.25952 0.0
H347 H 0.28213 0.94818 0.30356 0.0
O348 O 0.23567 0.29636 0.46321 0.0
Tb349 Tb 0.23327 0.31639 0.44 0.0
Eu350 Eu 0.1992 0.3948 0.44048 0.0
C351 C 0.21121 0.28555 0.47047 0.0
O352 O 0.18391 0.2912 0.46477 0.0
C353 C 0.15955 0.3309 0.43811 0.0
O354 O 0.18667 0.4265 0.42077 0.0
C355 C 0.20452 0.42302 0.46682 0.0
C356 C 0.17014 0.41586 0.40923 0.0
O357 O 0.15845 0.38806 0.41034 0.0
C358 C 0.26786 0.37717 0.43203 0.0
C359 C 0.21728 0.44506 0.47824 0.0
C360 C 0.22535 0.43357 0.49301 0.0
C361 C 0.23315 0.45368 0.50507 0.0
C362 C 0.23432 0.48528 0.50214 0.0
C363 C 0.22663 0.49736 0.4876 0.0
C364 C 0.21762 0.47727 0.47562 0.0
O365 O 0.18387 0.31349 0.43533 0.0
O366 O 0.16078 0.36036 0.44157 0.0
O367 O 0.25618 0.2723 0.43631 0.0
O368 O 0.24584 0.29981 0.41665 0.0
C369 C 0.25775 0.27386 0.42125 0.0
O370 O 0.24263 0.38937 0.42665 0.0
O371 O 0.26677 0.35378 0.44174 0.0
O372 O 0.18744 0.43336 0.45536 0.0
O373 O 0.21923 0.39719 0.4637 0.0
H374 H 0.224 0.40907 0.49536 0.0
H375 H 0.24062 0.50084 0.51144 0.0
H376 H 0.21056 0.48665 0.46453 0.0
O377 O 0.97055 0.99563 0.21538 0.0
Tb378 Tb 0.94576 0.98607 0.19415 0.0
Eu379 Eu 0.87088 0.94861 0.18999 0.0
C380 C 0.97138 0.97699 0.22743 0.0
O381 O 0.95232 0.95358 0.22827 0.0
C382 C 0.93596 0.91183 0.19217 0.0
O383 O 0.84076 0.93446 0.17002 0.0
C384 C 0.84346 0.94889 0.217 0.0
C385 C 0.85191 0.94055 0.15608 0.0
O386 O 0.8796 0.95247 0.15494 0.0
C387 C 0.88552 0.01946 0.18479 0.0
C388 C 0.82176 0.96384 0.22814 0.0
C389 C 0.83314 0.97345 0.2427 0.0
C390 C 0.81302 0.9837 0.25443 0.0
C391 C 0.78162 0.9858 0.25132 0.0
C392 C 0.76959 0.97632 0.2371 0.0
C393 C 0.78962 0.96491 0.22551 0.0
O394 O 0.95129 0.93616 0.19713 0.0
O395 O 0.90736 0.91265 0.18729 0.0
O396 O 0.98562 0.01383 0.18796 0.0
O397 O 0.96374 0.9888 0.17004 0.0
C398 C 0.98642 1.00744 0.17325 0.0
O399 O 0.87427 0.99458 0.17855 0.0
O400 O 0.90678 0.01786 0.19556 0.0
O401 O 0.83229 0.93482 0.20472 0.0
O402 O 0.87048 0.96189 0.21446 0.0
H403 H 0.85744 0.97136 0.24519 0.0
H404 H 0.76606 0.99376 0.26037 0.0
H405 H 0.78016 0.95645 0.21472 0.0
O406 O 0.27826 0.71684 0.96386 0.0
Tb407 Tb 0.28257 0.6963 0.9409 0.0
Eu408 Eu 0.31757 0.61855 0.94079 0.0
C409 C 0.3023 0.72681 0.97155 0.0
O410 O 0.32995 0.71966 0.96657 0.0
C411 C 0.35647 0.68303 0.93889 0.0
O412 O 0.33308 0.58992 0.92039 0.0
C413 C 0.3122 0.58891 0.96691 0.0
C414 C 0.33489 0.60451 0.90699 0.0
O415 O 0.3301 0.63436 0.9069 0.0
C416 C 0.24867 0.63613 0.93277 0.0
C417 C 0.29801 0.56723 0.97826 0.0
C418 C 0.28982 0.57879 0.99302 0.0
C419 C 0.27977 0.55899 1.00497 0.0
C420 C 0.27658 0.52759 1.00177 0.0
C421 C 0.28523 0.51536 0.98738 0.0
C422 C 0.29629 0.53516 0.97559 0.0
O423 O 0.33198 0.70002 0.93598 0.0
O424 O 0.35549 0.65349 0.94233 0.0
O425 O 0.26139 0.741 0.93679 0.0
O426 O 0.2674 0.71096 0.91765 0.0
C427 C 0.25745 0.73792 0.92194 0.0
O428 O 0.27389 0.62369 0.92736 0.0
O429 O 0.24981 0.65825 0.94311 0.0
O430 O 0.32779 0.57819 0.95491 0.0
O431 O 0.29911 0.61584 0.9644 0.0
H432 H 0.29279 0.60307 0.99543 0.0
H433 H 0.26823 0.51211 1.01078 0.0
H434 H 0.30387 0.52562 0.9646 0.0
O435 O 0.54344 0.04202 0.71135 0.0
Tb436 Tb 0.5634 0.04112 0.68817 0.0
Eu437 Eu 0.64477 0.071 0.69249 0.0
C438 C 0.52484 0.06458 0.71521 0.0
O439 O 0.5216 0.08778 0.70553 0.0
C440 C 0.58389 0.10982 0.68944 0.0
O441 O 0.67232 0.08784 0.67167 0.0
C442 C 0.67713 0.05784 0.71661 0.0
C443 C 0.65989 0.08445 0.65785 0.0
O444 O 0.63143 0.07455 0.65698 0.0
C445 C 0.62314 1.00427 0.68432 0.0
C446 C 0.69605 0.05039 0.73036 0.0
C447 C 0.68224 0.04036 0.74443 0.0
C448 C 0.70029 0.03572 0.75775 0.0
C449 C 0.73212 0.04008 0.75671 0.0
C450 C 0.7462 0.04977 0.74287 0.0
C451 C 0.72814 0.05477 0.72967 0.0
O452 O 0.57405 0.08783 0.68021 0.0
O453 O 0.60872 0.10614 0.6978 0.0
O454 O 0.5155 0.03426 0.68147 0.0
O455 O 0.55067 0.01463 0.66751 0.0
C456 C 0.52112 0.01787 0.66919 0.0
O457 O 0.6346 0.02939 0.67828 0.0
O458 O 0.59735 1.0052 0.6923 0.0
O459 O 0.68648 0.07758 0.70591 0.0
O460 O 0.65011 0.04507 0.71416 0.0
H461 H 0.65755 0.03727 0.74516 0.0
H462 H 0.74624 0.03563 0.76681 0.0
H463 H 0.739 0.06259 0.71898 0.0
H464 H 0.118 0.44811 0.1958 0.0
H465 H 0.14514 0.40159 0.18696 0.0
H466 H 0.17593 0.45006 0.14585 0.0
H467 H 0.14991 0.49629 0.15469 0.0
H468 H 0.13988 0.367 0.16046 0.0
H469 H 0.25616 0.41834 0.16266 0.0
H470 H 0.22316 0.43636 0.17162 0.0
H471 H 0.23062 0.44109 0.15112 0.0
C472 C 0.13051 0.44867 0.18487 0.0
C473 C 0.13221 0.47588 0.17605 0.0
C474 C 0.14606 0.42221 0.17987 0.0
C475 C 0.16333 0.42272 0.16599 0.0
C476 C 0.16371 0.44948 0.15687 0.0
H477 H 0.22652 0.29329 0.1002 0.0
H478 H 0.20263 0.33399 0.11575 0.0
C479 C 0.1486 0.47583 0.1619 0.0
C480 C 0.18054 0.39532 0.16065 0.0
H481 H 0.25081 0.37294 0.14682 0.0
C482 C 0.16423 0.3681 0.15773 0.0
C483 C 0.21244 0.39669 0.15726 0.0
C484 C 0.23166 0.42461 0.16099 0.0
C485 C 0.17864 0.34285 0.15066 0.0
C486 C 0.20994 0.34508 0.14636 0.0
C487 C 0.22668 0.37157 0.15002 0.0
C488 C 0.22505 0.32087 0.13712 0.0
C489 C 0.16028 0.31415 0.14746 0.0
C490 C 0.246 0.3006 0.14401 0.0
C491 C 0.25975 0.2774 0.13515 0.0
C492 C 0.25271 0.27434 0.11931 0.0
C493 C 0.23218 0.29509 0.11241 0.0
C494 C 0.2185 0.31823 0.12125 0.0
H495 H 0.13761 0.31434 0.15349 0.0
H496 H 0.15634 0.3122 0.13477 0.0
H497 H 0.17327 0.29347 0.1512 0.0
H498 H 0.25133 0.30248 0.15625 0.0
H499 H 0.27545 0.26159 0.14073 0.0
H500 H 0.32648 0.35865 0.43966 0.0
H501 H 0.37521 0.38147 0.43069 0.0
H502 H 0.32516 0.44803 0.4036 0.0
H503 H 0.27683 0.42598 0.41257 0.0
H504 H 0.39715 0.38748 0.40049 0.0
H505 H 0.38453 0.50264 0.427 0.0
H506 H 0.3611 0.47021 0.43286 0.0
H507 H 0.35173 0.49202 0.4157 0.0
C508 C 0.32589 0.37832 0.43191 0.0
C509 C 0.2977 0.39057 0.42695 0.0
C510 C 0.35374 0.39133 0.4268 0.0
C511 C 0.35381 0.41692 0.41676 0.0
C512 C 0.32571 0.4289 0.41169 0.0
H513 H 0.46879 0.49041 0.34744 0.0
H514 H 0.43025 0.46757 0.36469 0.0
C515 C 0.29802 0.41601 0.41676 0.0
C516 C 0.38302 0.43032 0.41079 0.0
H517 H 0.4208 0.4987 0.40572 0.0
C518 C 0.40266 0.41165 0.40191 0.0
C519 C 0.39031 0.46186 0.4127 0.0
C520 C 0.37095 0.48277 0.42272 0.0
C521 C 0.42838 0.42406 0.39416 0.0
C522 C 0.43456 0.45589 0.39533 0.0
C523 C 0.41594 0.47429 0.40485 0.0
C524 C 0.45808 0.47083 0.38533 0.0
C525 C 0.44827 0.40336 0.38431 0.0
C526 C 0.48631 0.48086 0.39134 0.0
C527 C 0.50856 0.49409 0.38145 0.0
C528 C 0.50268 0.4974 0.36548 0.0
C529 C 0.47411 0.48791 0.35967 0.0
C530 C 0.45204 0.47484 0.36949 0.0
H531 H 0.44381 0.37864 0.38676 0.0
H532 H 0.44352 0.40781 0.37185 0.0
H533 H 0.47297 0.40833 0.38633 0.0
H534 H 0.49126 0.478 0.40358 0.0
H535 H 0.53041 0.50121 0.3862 0.0
H536 H 0.24088 0.75779 0.64075 0.0
H537 H 0.26754 0.71893 0.65645 0.0
H538 H 0.30355 0.6776 0.61462 0.0
H539 H 0.27724 0.71637 0.59892 0.0
H540 H 0.26451 0.65249 0.65538 0.0
H541 H 0.38063 0.69757 0.64076 0.0
H542 H 0.34603 0.71966 0.63775 0.0
H543 H 0.35696 0.69022 0.62416 0.0
C544 C 0.25427 0.74022 0.63494 0.0
C545 C 0.25721 0.74011 0.61866 0.0
C546 C 0.2695 0.71814 0.64389 0.0
C547 C 0.28795 0.69586 0.63668 0.0
C548 C 0.28991 0.69504 0.6204 0.0
H549 H 0.38141 0.53176 0.65443 0.0
H550 H 0.35667 0.57855 0.64513 0.0
C551 C 0.27473 0.71705 0.61146 0.0
C552 C 0.30553 0.67353 0.64606 0.0
H553 H 0.37839 0.64771 0.65254 0.0
C554 C 0.28942 0.65175 0.65503 0.0
C555 C 0.33803 0.67278 0.64557 0.0
C556 C 0.3565 0.69647 0.63666 0.0
C557 C 0.30501 0.62819 0.6629 0.0
C558 C 0.33739 0.62676 0.66186 0.0
C559 C 0.35355 0.64916 0.65338 0.0
C560 C 0.3544 0.59991 0.66775 0.0
C561 C 0.28688 0.60401 0.67163 0.0
C562 C 0.36198 0.59696 0.68353 0.0
C563 C 0.37657 0.57025 0.68891 0.0
C564 C 0.3832 0.54624 0.67853 0.0
C565 C 0.37636 0.54987 0.66269 0.0
C566 C 0.36225 0.57652 0.65735 0.0
H567 H 0.26174 0.60832 0.67126 0.0
H568 H 0.29159 0.58101 0.66657 0.0
H569 H 0.29427 0.60337 0.68395 0.0
H570 H 0.35603 0.61497 0.69168 0.0
H571 H 0.38142 0.56782 0.70118 0.0
H572 H 0.23878 0.61138 0.90445 0.0
H573 H 0.19146 0.58979 0.89425 0.0
H574 H 0.14438 0.61199 0.93709 0.0
H575 H 0.19183 0.63515 0.94713 0.0
H576 H 0.16071 0.54192 0.90419 0.0
H577 H 0.08295 0.64317 0.90669 0.0
H578 H 0.12382 0.64648 0.90962 0.0
H579 H 0.0993 0.63232 0.92499 0.0
C580 C 0.21828 0.61201 0.91167 0.0
C581 C 0.21901 0.62496 0.9266 0.0
C582 C 0.19119 0.59957 0.90582 0.0
C583 C 0.16413 0.59935 0.91481 0.0
C584 C 0.16468 0.61248 0.92975 0.0
H585 H 0.98968 0.51313 0.8842 0.0
H586 H 0.02937 0.53468 0.90138 0.0
C587 C 0.19183 0.62557 0.93553 0.0
C588 C 0.13616 0.58412 0.90851 0.0
H589 H 0.06174 0.59668 0.89756 0.0
C590 C 0.13904 0.55393 0.90286 0.0
C591 C 0.10768 0.59956 0.90685 0.0
C592 C 0.1032 0.63225 0.91223 0.0
C593 C 0.11485 0.53929 0.89511 0.0
C594 C 0.08687 0.55511 0.89297 0.0
C595 C 0.08328 0.58464 0.89926 0.0
C596 C 0.06243 0.5425 0.88287 0.0
C597 C 0.11965 0.50721 0.88891 0.0
C598 C 0.06779 0.54016 0.86683 0.0
C599 C 0.04529 0.52815 0.85708 0.0
C600 C 0.01692 0.51814 0.86315 0.0
C601 C 0.01138 0.52064 0.87923 0.0
C602 C 0.03396 0.53294 0.88902 0.0
H603 H 0.13916 0.49546 0.89469 0.0
H604 H 0.09859 0.49305 0.89049 0.0
H605 H 0.12485 0.50855 0.87627 0.0
H606 H 0.08948 0.54769 0.86183 0.0
H607 H 0.05024 0.52656 0.84474 0.0
H608 H 0.91384 0.57327 0.83579 0.0
H609 H 0.89059 0.62069 0.84617 0.0
H610 H 0.81652 0.56744 0.8662 0.0
H611 H 0.83917 0.52053 0.85606 0.0
H612 H 0.82326 0.64361 0.84281 0.0
H613 H 0.85982 0.61536 0.90295 0.0
H614 H 0.87816 0.59899 0.88598 0.0
H615 H 0.84158 0.58462 0.89257 0.0
C616 C 0.89244 0.57181 0.84225 0.0
C617 C 0.87854 0.54314 0.84522 0.0
C618 C 0.87924 0.59882 0.84817 0.0
C619 C 0.85211 0.59733 0.85708 0.0
C620 C 0.83767 0.56894 0.8595 0.0
H621 H 0.73852 0.70452 0.91729 0.0
H622 H 0.76443 0.66513 0.90176 0.0
C623 C 0.85074 0.54214 0.85368 0.0
C624 C 0.83899 0.62493 0.86451 0.0
H625 H 0.82285 0.65487 0.90019 0.0
C626 C 0.82342 0.64648 0.85533 0.0
C627 C 0.83912 0.6282 0.88084 0.0
C628 C 0.85575 0.60572 0.8912 0.0
C629 C 0.80667 0.67061 0.86215 0.0
C630 C 0.8063 0.67356 0.87856 0.0
C631 C 0.82289 0.65251 0.88764 0.0
C632 C 0.78833 0.6976 0.88676 0.0
C633 C 0.78845 0.6917 0.85174 0.0
C634 C 0.79271 0.72893 0.88336 0.0
C635 C 0.77719 0.75137 0.89194 0.0
C636 C 0.75785 0.74281 0.90436 0.0
C637 C 0.7533 0.71158 0.90773 0.0
C638 C 0.76818 0.68915 0.8989 0.0
H639 H 0.78372 0.68089 0.84031 0.0
H640 H 0.76623 0.6982 0.85721 0.0
H641 H 0.80192 0.71298 0.84951 0.0
H642 H 0.80882 0.73613 0.87441 0.0
H643 H 0.78136 0.77541 0.88931 0.0
H644 H 0.53253 0.55101 0.67949 0.0
H645 H 0.57331 0.57144 0.66291 0.0
H646 H 0.54694 0.50923 0.62637 0.0
H647 H 0.50509 0.48907 0.64299 0.0
H648 H 0.62212 0.54125 0.65157 0.0
H649 H 0.5547 0.58962 0.60259 0.0
H650 H 0.53701 0.57798 0.62073 0.0
H651 H 0.54811 0.54958 0.60665 0.0
C652 C 0.53511 0.54183 0.66786 0.0
C653 C 0.51553 0.51845 0.66253 0.0
C654 C 0.55854 0.55353 0.65839 0.0
C655 C 0.56319 0.54212 0.64332 0.0
C656 C 0.5435 0.51887 0.63784 0.0
H657 H 0.7187 0.5933 0.58162 0.0
H658 H 0.67372 0.56629 0.5925 0.0
C659 C 0.51969 0.50724 0.64735 0.0
C660 C 0.58964 0.55398 0.6339 0.0
H661 H 0.6088 0.59373 0.60077 0.0
C662 C 0.61914 0.55252 0.64042 0.0
C663 C 0.58589 0.56868 0.6193 0.0
C664 C 0.55473 0.57186 0.61191 0.0
C665 C 0.64472 0.56592 0.63298 0.0
C666 C 0.64082 0.58128 0.61864 0.0
C667 C 0.61165 0.58188 0.61178 0.0
C668 C 0.66657 0.59854 0.61125 0.0
C669 C 0.67576 0.56403 0.64064 0.0
C670 C 0.67706 0.62585 0.61803 0.0
C671 C 0.70258 0.64132 0.61187 0.0
C672 C 0.71827 0.62984 0.59875 0.0
C673 C 0.70718 0.60284 0.5917 0.0
C674 C 0.68148 0.58737 0.59789 0.0
H675 H 0.67617 0.5465 0.65007 0.0
H676 H 0.69389 0.55841 0.63195 0.0
H677 H 0.68149 0.58671 0.64576 0.0
H678 H 0.66575 0.63494 0.6283 0.0
H679 H 0.71029 0.66207 0.61759 0.0
H680 H 0.75545 0.23942 0.3894 0.0
H681 H 0.73336 0.27918 0.3723 0.0
H682 H 0.7192 0.33799 0.41196 0.0
H683 H 0.74109 0.29879 0.42893 0.0
H684 H 0.67257 0.3086 0.37477 0.0
H685 H 0.7684 0.39178 0.38053 0.0
H686 H 0.77241 0.35144 0.38521 0.0
H687 H 0.75434 0.37718 0.3988 0.0
C688 C 0.74767 0.26089 0.3944 0.0
C689 C 0.75011 0.26608 0.41047 0.0
C690 C 0.73504 0.28351 0.38465 0.0
C691 C 0.72502 0.31168 0.39084 0.0
C692 C 0.72724 0.31665 0.40689 0.0
H693 H 0.64532 0.484 0.3719 0.0
H694 H 0.66901 0.43691 0.38124 0.0
C695 C 0.73967 0.29415 0.41659 0.0
C696 C 0.71182 0.33611 0.38079 0.0
H697 H 0.72092 0.41179 0.37116 0.0
C698 C 0.68328 0.33107 0.37372 0.0
C699 C 0.72593 0.36531 0.37942 0.0
C700 C 0.75711 0.37176 0.38627 0.0
C701 C 0.66751 0.3551 0.36618 0.0
C702 C 0.68103 0.38475 0.36545 0.0
C703 C 0.71037 0.38918 0.3718 0.0
C704 C 0.66433 0.41229 0.35955 0.0
C705 C 0.63586 0.34893 0.35986 0.0
C706 C 0.65315 0.41416 0.34425 0.0
C707 C 0.63893 0.4412 0.33891 0.0
C708 C 0.63635 0.46692 0.34869 0.0
C709 C 0.64716 0.46469 0.36401 0.0
C710 C 0.6608 0.43774 0.36938 0.0
H711 H 0.62608 0.32701 0.3644 0.0
H712 H 0.61987 0.36794 0.36283 0.0
H713 H 0.63725 0.34723 0.34701 0.0
H714 H 0.65612 0.39511 0.33632 0.0
H715 H 0.63106 0.4424 0.327 0.0
H716 H 0.82192 0.35601 0.08692 0.0
H717 H 0.87019 0.37683 0.09737 0.0
H718 H 0.81933 0.44751 0.12129 0.0
H719 H 0.77149 0.42726 0.11105 0.0
H720 H 0.89371 0.44488 0.09614 0.0
H721 H 0.87019 0.39727 0.15508 0.0
H722 H 0.85281 0.38178 0.13776 0.0
H723 H 0.83863 0.41691 0.14605 0.0
C724 C 0.82109 0.37612 0.09431 0.0
C725 C 0.79278 0.3898 0.09822 0.0
C726 C 0.84865 0.38798 0.10024 0.0
C727 C 0.84819 0.41352 0.11019 0.0
C728 C 0.82011 0.42762 0.11373 0.0
H729 H 0.9569 0.52144 0.17082 0.0
H730 H 0.91811 0.49563 0.15518 0.0
C731 C 0.79275 0.41593 0.10784 0.0
C732 C 0.8766 0.42522 0.11749 0.0
H733 H 0.90956 0.43485 0.15299 0.0
C734 C 0.89759 0.44237 0.10852 0.0
C735 C 0.88134 0.42196 0.13364 0.0
C736 C 0.85972 0.40329 0.14373 0.0
C737 C 0.9225 0.45766 0.11547 0.0
C738 C 0.92673 0.45514 0.13174 0.0
C739 C 0.90629 0.43693 0.14054 0.0
C740 C 0.95085 0.47254 0.14018 0.0
C741 C 0.94312 0.47755 0.10545 0.0
C742 C 0.98228 0.46853 0.13686 0.0
C743 C 1.0046 0.4837 0.14571 0.0
C744 C 0.99577 0.50265 0.15816 0.0
C745 C 0.96437 0.50692 0.16131 0.0
C746 C 0.94218 0.49212 0.15239 0.0
H747 H 0.93248 0.48292 0.09405 0.0
H748 H 0.94863 0.4995 0.11139 0.0
H749 H 0.96497 0.4652 0.10319 0.0
H750 H 0.9896 0.45305 0.12773 0.0
H751 H 0.02869 0.47984 0.14314 0.0
H752 H 0.67705 0.99691 0.6689 0.0
H753 H 0.70009 0.94959 0.65975 0.0
H754 H 0.62657 0.89721 0.68098 0.0
H755 H 0.60247 0.94518 0.68996 0.0
H756 H 0.72117 0.89909 0.67509 0.0
H757 H 0.62471 0.86961 0.63562 0.0
H758 H 0.62799 0.90673 0.64476 0.0
H759 H 0.6148 0.87408 0.65581 0.0
C760 C 0.66561 0.97541 0.6717 0.0
C761 C 0.63767 0.97482 0.68003 0.0
C762 C 0.67899 0.94833 0.6665 0.0
C763 C 0.66488 0.91997 0.66954 0.0
C764 C 0.63752 0.919 0.67832 0.0
H765 H 0.76584 0.7544 0.64069 0.0
H766 H 0.7406 0.79324 0.6569 0.0
C767 C 0.62391 0.94633 0.68351 0.0
C768 C 0.67876 0.89196 0.66286 0.0
H769 H 0.6679 0.83744 0.63504 0.0
C770 C 0.70947 0.8853 0.66646 0.0
C771 C 0.66349 0.87447 0.65144 0.0
C772 C 0.63102 0.8816 0.64653 0.0
C773 C 0.72573 0.8623 0.65855 0.0
C774 C 0.71049 0.84492 0.64707 0.0
C775 C 0.67946 0.85083 0.64387 0.0
C776 C 0.72665 0.82176 0.63751 0.0
C777 C 0.75943 0.85799 0.66199 0.0
C778 C 0.72673 0.82469 0.62125 0.0
C779 C 0.74053 0.80228 0.612 0.0
C780 C 0.75473 0.77678 0.6189 0.0
C781 C 0.75526 0.7741 0.63515 0.0
C782 C 0.74099 0.79629 0.64441 0.0
H783 H 0.76929 0.8782 0.66806 0.0
H784 H 0.7623 0.83762 0.66964 0.0
H785 H 0.77283 0.85407 0.65114 0.0
H786 H 0.71583 0.84421 0.6157 0.0
H787 H 0.73988 0.80478 0.59947 0.0
H788 H 0.97136 0.98071 0.84789 0.0
H789 H 0.93067 0.9606 0.8648 0.0
H790 H 0.98414 0.98349 0.90515 0.0
H791 H 0.0253 1.00392 0.88816 0.0
H792 H 0.95601 0.91946 0.90329 0.0
H793 H 0.87338 0.01494 0.89387 0.0
H794 H 0.89229 1.00054 0.87671 0.0
H795 H 0.91442 0.01954 0.89137 0.0
C796 C 0.97452 0.98153 0.86037 0.0
C797 C 1.00148 0.99392 0.86673 0.0
C798 C 0.95118 0.97013 0.87 0.0
C799 C 0.95426 0.97089 0.8862 0.0
C800 C 0.98132 0.98286 0.89265 0.0
H801 H 0.79355 0.92554 0.94455 0.0
H802 H 0.84038 0.95058 0.93471 0.0
C803 C 1.00476 0.99446 0.88297 0.0
C804 C 0.9292 0.95851 0.89619 0.0
H805 H 0.85343 0.96909 0.90525 0.0
C806 C 0.93369 0.93048 0.90394 0.0
C807 C 0.90023 0.97309 0.89709 0.0
C808 C 0.89467 1.00383 0.88944 0.0
C809 C 0.90952 0.91594 0.91205 0.0
C810 C 0.87998 0.92964 0.91223 0.0
C811 C 0.87595 0.95843 0.90506 0.0
C812 C 0.85259 0.91375 0.91898 0.0
C813 C 0.91588 0.88589 0.92024 0.0
C814 C 0.84372 0.88483 0.91337 0.0
C815 C 0.81716 0.8704 0.91902 0.0
C816 C 0.7985 0.88468 0.93033 0.0
C817 C 0.80746 0.91367 0.93598 0.0
C818 C 0.83419 0.92809 0.93032 0.0
H819 H 0.9405 0.88388 0.92341 0.0
H820 H 0.90167 0.88341 0.93095 0.0
H821 H 0.91037 0.86658 0.91232 0.0
H822 H 0.85697 0.87365 0.90431 0.0
H823 H 0.81096 0.84826 0.91423 0.0
H824 H 0.84568 0.0285 0.16107 0.0
H825 H 0.82527 0.0765 0.15126 0.0
H826 H 0.87628 0.1267 0.18572 0.0
H827 H 0.89771 0.0781 0.1956 0.0
H828 H 0.78982 0.11896 0.16593 0.0
H829 H 0.89991 0.17108 0.14547 0.0
H830 H 0.89674 0.13105 0.15088 0.0
H831 H 0.8983 0.16014 0.16563 0.0
C832 C 0.85275 0.04962 0.16666 0.0
C833 C 0.8734 0.04936 0.1792 0.0
C834 C 0.84093 0.07714 0.161 0.0
C835 C 0.84935 0.10523 0.16766 0.0
C836 C 0.86984 0.10528 0.18024 0.0
H837 H 0.77581 0.28343 0.13499 0.0
H838 H 0.79883 0.24421 0.15203 0.0
C839 C 0.88192 0.07752 0.18593 0.0
C840 C 0.83618 0.13402 0.16122 0.0
H841 H 0.85462 0.19903 0.14069 0.0
C842 C 0.80403 0.13668 0.16061 0.0
C843 C 0.85474 0.15701 0.15417 0.0
C844 C 0.88933 0.15474 0.15391 0.0
C845 C 0.78997 0.16115 0.15274 0.0
C846 C 0.8085 0.1836 0.14537 0.0
C847 C 0.84058 0.18175 0.14647 0.0
C848 C 0.79491 0.20748 0.13527 0.0
C849 C 0.75538 0.16244 0.15189 0.0
C850 C 0.78535 0.19966 0.12027 0.0
C851 C 0.77251 0.2219 0.11055 0.0
C852 C 0.76884 0.25231 0.1157 0.0
C853 C 0.77838 0.26013 0.13076 0.0
C854 C 0.79152 0.23785 0.14047 0.0
H855 H 0.74423 0.14609 0.16014 0.0
H856 H 0.74713 0.18607 0.15443 0.0
H857 H 0.74805 0.15655 0.13993 0.0
H858 H 0.78787 0.17631 0.11609 0.0
H859 H 0.76529 0.21522 0.09901 0.0
H860 H 0.69624 0.14558 0.44496 0.0
H861 H 0.64982 0.11864 0.43616 0.0
H862 H 0.70076 0.08144 0.39736 0.0
H863 H 0.7469 0.10743 0.40613 0.0
H864 H 0.61893 0.12324 0.40838 0.0
H865 H 0.66254 1.00475 0.41611 0.0
H866 H 0.68116 0.03774 0.42462 0.0
H867 H 0.68824 0.02785 0.40459 0.0
C868 C 0.69746 0.13157 0.43459 0.0
C869 C 0.72526 0.12835 0.42633 0.0
C870 C 0.67103 0.11618 0.42961 0.0
C871 C 0.67215 0.09742 0.41635 0.0
C872 C 0.69965 0.09499 0.40789 0.0
H873 H 0.54002 0.04156 0.35032 0.0
H874 H 0.58011 0.06541 0.36601 0.0
C875 C 0.72597 0.11008 0.41288 0.0
C876 C 0.6445 0.08113 0.41082 0.0
H877 H 0.61964 0.01072 0.39876 0.0
C878 C 0.61883 0.09857 0.40652 0.0
C879 C 0.64429 0.04888 0.40861 0.0
C880 C 0.67043 0.02869 0.41389 0.0
C881 C 0.59362 0.08481 0.39923 0.0
C882 C 0.59445 0.05296 0.39598 0.0
C883 C 0.61931 0.03523 0.40109 0.0
C884 C 0.57054 0.03798 0.38654 0.0
C885 C 0.56651 0.10454 0.39486 0.0
C886 C 0.55277 0.01385 0.39272 0.0
C887 C 0.53009 0.99993 0.38371 0.0
C888 C 0.52502 0.00997 0.36841 0.0
C889 C 0.54333 0.03361 0.36214 0.0
C890 C 0.56604 0.04738 0.37111 0.0
H891 H 0.56555 0.12593 0.40189 0.0
H892 H 0.5686 0.11129 0.38244 0.0
H893 H 0.54458 0.09177 0.39644 0.0
H894 H 0.55617 1.00612 0.40457 0.0
H895 H 0.51621 0.98172 0.38878 0.0
H896 H 0.35004 0.05285 0.3287 0.0
H897 H 0.3252 0.09918 0.3392 0.0
H898 H 0.37939 0.09137 0.38078 0.0
H899 H 0.40455 0.04588 0.37039 0.0
H900 H 0.29068 0.10736 0.3662 0.0
H901 H 0.39526 0.1798 0.36813 0.0
H902 H 0.39379 0.14423 0.3574 0.0
H903 H 0.40028 0.14383 0.37805 0.0
C904 C 0.35685 0.06121 0.34001 0.0
C905 C 0.37957 0.04578 0.3486 0.0
C906 C 0.34257 0.08762 0.34602 0.0
C907 C 0.35089 0.09916 0.36065 0.0
C908 C 0.37315 0.08346 0.3693 0.0
H909 H 0.28543 0.22099 0.43046 0.0
H910 H 0.30608 0.17978 0.41412 0.0
C911 C 0.38743 0.05725 0.36333 0.0
C912 C 0.33604 0.12715 0.3672 0.0
H913 H 0.35243 0.19669 0.38368 0.0
C914 C 0.3041 0.12712 0.36977 0.0
C915 C 0.35351 0.15306 0.37181 0.0
C916 C 0.38756 0.15543 0.36856 0.0
C917 C 0.2895 0.15163 0.37751 0.0
C918 C 0.30727 0.1767 0.38276 0.0
C919 C 0.33893 0.17731 0.37969 0.0
C920 C 0.29378 0.2015 0.3924 0.0
C921 C 0.25537 0.15028 0.38055 0.0
C922 C 0.28015 0.22743 0.38555 0.0
C923 C 0.26847 0.25119 0.39488 0.0
C924 C 0.27025 0.24927 0.41117 0.0
C925 C 0.28379 0.22316 0.41794 0.0
C926 C 0.29554 0.19957 0.40864 0.0
H927 H 0.2446 0.12948 0.37544 0.0
H928 H 0.25094 0.15029 0.39328 0.0
H929 H 0.24421 0.17105 0.37562 0.0
H930 H 0.27871 0.22932 0.37302 0.0
H931 H 0.25802 0.27098 0.38936 0.0
H932 H 0.02965 0.05 0.17975 0.0
H933 H 0.07154 0.06849 0.1633 0.0
H934 H 0.04142 0.00922 0.12628 0.0
H935 H 0.9985 0.99101 0.14278 0.0
H936 H 0.11866 0.03618 0.15132 0.0
H937 H 0.05257 0.09032 0.10338 0.0
H938 H 0.03476 0.07882 0.12151 0.0
H939 H 0.04411 0.05049 0.10708 0.0
C940 C 0.03165 0.04106 0.16805 0.0
C941 C 0.01066 0.01913 0.16253 0.0
C942 C 0.05574 0.05163 0.15865 0.0
C943 C 0.05962 0.04053 0.14347 0.0
C944 C 0.03861 0.01863 0.13784 0.0
H945 H 0.21429 0.09199 0.081 0.0
H946 H 0.16918 0.06498 0.09177 0.0
C947 C 0.01418 1.00812 0.14728 0.0
C948 C 0.08643 0.05146 0.13404 0.0
H949 H 0.10667 0.09243 0.10146 0.0
C950 C 0.11597 0.04825 0.14036 0.0
C951 C 0.08307 0.06717 0.11969 0.0
C952 C 0.05194 0.0722 0.11252 0.0
C953 C 0.14197 0.06097 0.13299 0.0
C954 C 0.13846 0.07749 0.11894 0.0
C955 C 0.10923 0.07972 0.11225 0.0
C956 C 0.16463 0.09454 0.11181 0.0
C957 C 0.17304 0.05716 0.14044 0.0
C958 C 0.17661 0.12038 0.11937 0.0
C959 C 0.20215 0.13587 0.11327 0.0
C960 C 0.21641 0.12589 0.09943 0.0
C961 C 0.20391 0.10034 0.09166 0.0
C962 C 0.17815 0.08487 0.09778 0.0
H963 H 0.173 0.03841 0.14925 0.0
H964 H 0.19091 0.05216 0.13152 0.0
H965 H 0.17946 0.0789 0.14632 0.0
H966 H 0.16634 0.12839 0.13013 0.0
H967 H 0.21096 0.15547 0.11958 0.0
H968 H 0.24425 0.73454 0.8908 0.0
H969 H 0.22162 0.77512 0.87446 0.0
H970 H 0.21897 0.83597 0.91392 0.0
H971 H 0.24115 0.79571 0.93022 0.0
H972 H 0.1625 0.83134 0.8968 0.0
H973 H 0.26405 0.85639 0.85901 0.0
H974 H 0.25293 0.81673 0.8614 0.0
H975 H 0.26752 0.83766 0.8777 0.0
C976 C 0.23889 0.75663 0.89592 0.0
C977 C 0.24432 0.76197 0.91177 0.0
C978 C 0.22612 0.77979 0.88659 0.0
C979 C 0.2188 0.8086 0.89298 0.0
C980 C 0.2244 0.8139 0.90877 0.0
H981 H 0.18075 0.98843 0.85883 0.0
H982 H 0.20144 0.94081 0.86942 0.0
C983 C 0.23707 0.79086 0.91807 0.0
C984 C 0.20451 0.83321 0.88348 0.0
H985 H 0.21945 0.88566 0.85473 0.0
C986 C 0.17476 0.84301 0.88747 0.0
C987 C 0.22076 0.84856 0.87145 0.0
C988 C 0.25317 0.83958 0.86711 0.0
C989 C 0.161 0.86812 0.87993 0.0
C990 C 0.17729 0.8836 0.86795 0.0
C991 C 0.20688 0.87351 0.8638 0.0
C992 C 0.16507 0.91194 0.86057 0.0
C993 C 0.12969 0.87873 0.88533 0.0
C994 C 0.13788 0.91151 0.85186 0.0
C995 C 0.12582 0.93887 0.84576 0.0
C996 C 0.14082 0.96709 0.84827 0.0
C997 C 0.16844 0.96719 0.8567 0.0
C998 C 0.18043 0.93994 0.86274 0.0
H999 H 0.12284 0.86804 0.89658 0.0
H1000 H 0.12923 0.90413 0.88663 0.0
H1001 H 0.11233 0.87232 0.87652 0.0
H1002 H 0.12588 0.89005 0.84988 0.0
H1003 H 0.10458 0.93796 0.8393 0.0
H1004 H 0.31795 0.8455 0.60596 0.0
H1005 H 0.36282 0.87046 0.61741 0.0
H1006 H 0.33203 0.95829 0.6002 0.0
H1007 H 0.28697 0.93363 0.58867 0.0
H1008 H 0.40356 0.9353 0.59702 0.0
H1009 H 0.34722 0.93769 0.65541 0.0
H1010 H 0.34264 0.9042 0.64333 0.0
H1011 H 0.32525 0.93982 0.63771 0.0
C1012 C 0.32086 0.87008 0.60443 0.0
C1013 C 0.29886 0.88757 0.59638 0.0
C1014 C 0.34651 0.88425 0.61097 0.0
C1015 C 0.35056 0.91613 0.60964 0.0
C1016 C 0.32927 0.93359 0.60123 0.0
H1017 H 0.46137 0.03491 0.66696 0.0
H1018 H 0.42116 0.01101 0.65137 0.0
C1019 C 0.30362 0.91943 0.59462 0.0
C1020 C 0.3761 0.93141 0.6178 0.0
H1021 H 0.39774 0.95639 0.65361 0.0
C1022 C 0.40244 0.94002 0.60938 0.0
C1023 C 0.37422 0.93764 0.63386 0.0
C1024 C 0.34585 0.92953 0.64321 0.0
C1025 C 0.42718 0.95484 0.61667 0.0
C1026 C 0.42564 0.9606 0.63288 0.0
C1027 C 0.39906 0.95195 0.64122 0.0
C1028 C 0.45084 0.97611 0.64147 0.0
C1029 C 0.45427 0.96481 0.60682 0.0
C1030 C 0.48103 0.96463 0.64109 0.0
C1031 C 0.50422 0.97878 0.64973 0.0
C1032 C 0.49738 1.00408 0.65924 0.0
C1033 C 0.46722 0.01543 0.65971 0.0
C1034 C 0.44424 1.00173 0.65082 0.0
H1035 H 0.44787 0.96736 0.5944 0.0
H1036 H 0.46392 0.98697 0.61091 0.0
H1037 H 0.47248 0.94702 0.6075 0.0
H1038 H 0.48659 0.94433 0.63438 0.0
H1039 H 0.52725 0.96937 0.64935 0.0
H1040 H 0.23971 0.98451 0.03102 0.0
H1041 H 0.24082 0.92898 0.02642 0.0
H1042 H 0.33831 0.92811 0.03503 0.0
H1043 H 0.33724 0.98379 0.03966 0.0
H1044 H 0.31917 0.90827 1.00478 0.0
H1045 H 0.25384 0.84812 0.05162 0.0
H1046 H 0.23619 0.8822 0.04384 0.0
H1047 H 0.27151 0.88537 0.05436 0.0
C1048 C 0.26111 0.97219 0.03255 0.0
C1049 C 0.28837 0.98828 0.03577 0.0
C1050 C 0.26172 0.94049 0.02995 0.0
C1051 C 0.2896 0.9244 0.03049 0.0
C1052 C 0.31651 0.94009 0.03472 0.0
H1053 H 0.34643 0.75066 0.99044 0.0
H1054 H 0.34252 0.79664 1.00661 0.0
C1055 C 0.31586 0.97181 0.03746 0.0
C1056 C 0.29146 0.89282 0.02412 0.0
H1057 H 0.26522 0.81917 0.0288 0.0
C1058 C 0.30774 0.8887 1.01015 0.0
C1059 C 0.27596 0.86753 0.03099 0.0
C1060 C 0.25853 0.8708 0.0461 0.0
C1061 C 0.30864 0.86006 1.00273 0.0
C1062 C 0.2934 0.83466 1.00964 0.0
C1063 C 0.27704 0.83868 0.02361 0.0
C1064 C 0.29423 0.80398 1.00221 0.0
C1065 C 0.32514 0.85737 0.98729 0.0
C1066 C 0.268 0.79216 0.99495 0.0
C1067 C 0.2701 0.76575 0.98573 0.0
C1068 C 0.29853 0.75082 0.98361 0.0
C1069 C 0.32426 0.76168 0.99174 0.0
C1070 C 0.32209 0.78797 1.00098 0.0
H1071 H 0.33055 0.88023 0.98214 0.0
H1072 H 0.34705 0.84479 0.98894 0.0
H1073 H 0.31102 0.84418 0.97891 0.0
H1074 H 0.2463 0.80425 0.99576 0.0
H1075 H 0.24984 0.75807 0.97961 0.0
H1076 H 0.98205 0.51766 0.2191 0.0
H1077 H 0.93754 0.51602 0.23635 0.0
H1078 H 0.98256 0.57867 0.2677 0.0
H1079 H 0.02652 0.58211 0.24973 0.0
H1080 H 0.92471 0.49934 0.26412 0.0
H1081 H 0.90666 0.62571 0.26118 0.0
H1082 H 0.93519 0.60662 0.24946 0.0
H1083 H 0.9426 0.61489 0.26961 0.0
C1084 C 0.98263 0.53095 0.22973 0.0
C1085 C 1.00765 0.55031 0.23299 0.0
C1086 C 0.9571 0.52996 0.23963 0.0
C1087 C 0.95617 0.54784 0.2532 0.0
C1088 C 0.98211 0.56556 0.25703 0.0
H1089 H 0.78261 0.51903 0.30686 0.0
H1090 H 0.83855 0.52193 0.30224 0.0
C1091 C 1.00738 0.56729 0.24685 0.0
C1092 C 0.92733 0.54875 0.26268 0.0
H1093 H 0.87111 0.59717 0.27579 0.0
C1094 C 0.9131 0.52077 0.26678 0.0
C1095 C 0.91201 0.57671 0.26612 0.0
C1096 C 0.92471 0.60766 0.26125 0.0
C1097 C 0.88345 0.51986 0.27338 0.0
C1098 C 0.86805 0.54781 0.27664 0.0
C1099 C 0.88302 0.57578 0.2734 0.0
C1100 C 0.83492 0.54878 0.28106 0.0
C1101 C 0.86817 0.48899 0.2758 0.0
C1102 C 0.81447 0.56435 0.27126 0.0
C1103 C 0.78294 0.56323 0.27406 0.0
C1104 C 0.77098 0.54641 0.28669 0.0
C1105 C 0.79135 0.53223 0.29708 0.0
C1106 C 0.8232 0.53352 0.29431 0.0
H1107 H 0.8807 0.47021 0.26974 0.0
H1108 H 0.86759 0.48345 0.28839 0.0
H1109 H 0.84416 0.48937 0.27152 0.0
H1110 H 0.82281 0.57638 0.261 0.0
H1111 H 0.76768 0.57443 0.26591 0.0
H1112 H 0.26442 0.26047 0.48183 0.0
H1113 H 0.26885 0.21517 0.49872 0.0
H1114 H 0.17032 0.21201 0.50384 0.0
H1115 H 0.16553 0.25716 0.48706 0.0
H1116 H 0.23736 0.19865 0.5318 0.0
H1117 H 0.20461 0.1306 0.47969 0.0
H1118 H 0.22191 0.16829 0.47821 0.0
H1119 H 0.18232 0.1645 0.48384 0.0
C1120 C 0.24372 0.25066 0.48687 0.0
C1121 C 0.21458 0.2623 0.48298 0.0
C1122 C 0.24634 0.22481 0.49653 0.0
C1123 C 0.21989 0.21032 0.50243 0.0
C1124 C 0.19096 0.223 0.49939 0.0
H1125 H 0.1778 0.03056 0.53871 0.0
H1126 H 0.17631 0.08631 0.53426 0.0
C1127 C 0.1883 0.24878 0.48977 0.0
C1128 C 0.22202 0.1799 0.51006 0.0
H1129 H 0.2093 0.10368 0.50332 0.0
C1130 C 0.23132 0.17783 0.52562 0.0
C1131 C 0.2143 0.15289 0.50187 0.0
C1132 C 0.20539 0.1539 0.48494 0.0
C1133 C 0.23253 0.14919 0.53329 0.0
C1134 C 0.22419 0.12234 0.52515 0.0
C1135 C 0.21524 0.12448 0.50957 0.0
C1136 C 0.22562 0.09131 0.53217 0.0
C1137 C 0.24228 0.14762 0.55004 0.0
C1138 C 0.25392 0.07605 0.53304 0.0
C1139 C 0.25478 0.04428 0.53551 0.0
C1140 C 0.22736 0.02742 0.53722 0.0
C1141 C 0.19924 0.04316 0.53774 0.0
C1142 C 0.19837 0.07492 0.53511 0.0
H1143 H 0.24531 0.17083 0.55518 0.0
H1144 H 0.22493 0.13468 0.55699 0.0
H1145 H 0.26436 0.13498 0.55087 0.0
H1146 H 0.27513 0.08826 0.53056 0.0
H1147 H 0.27668 0.0325 0.53484 0.0
H1148 H 0.74494 0.43433 0.77114 0.0
H1149 H 0.68966 0.43355 0.76703 0.0
H1150 H 0.67759 0.50025 0.80364 0.0
H1151 H 0.7337 0.50217 0.80717 0.0
H1152 H 0.63945 0.42115 0.7818 0.0
H1153 H 0.6406 0.54634 0.76845 0.0
H1154 H 0.6753 0.52496 0.77187 0.0
H1155 H 0.65152 0.5369 0.78795 0.0
C1156 C 0.73038 0.44824 0.77858 0.0
C1157 C 0.74342 0.46832 0.78945 0.0
C1158 C 0.69875 0.44787 0.77621 0.0
C1159 C 0.67936 0.46744 0.78473 0.0
C1160 C 0.69212 0.48561 0.79659 0.0
H1161 H 0.4846 0.44682 0.75665 0.0
H1162 H 0.52998 0.44748 0.77341 0.0
C1163 C 0.72406 0.48632 0.79882 0.0
C1164 C 0.64652 0.47006 0.7801 0.0
H1165 H 0.59403 0.52034 0.7652 0.0
C1166 C 0.62938 0.44289 0.7783 0.0
C1167 C 0.63349 0.49839 0.77531 0.0
C1168 C 0.6512 0.52828 0.77583 0.0
C1169 C 0.60045 0.44296 0.77113 0.0
C1170 C 0.58743 0.47129 0.76634 0.0
C1171 C 0.60388 0.49864 0.76892 0.0
C1172 C 0.55858 0.47296 0.75712 0.0
C1173 C 0.58526 0.41242 0.76786 0.0
C1174 C 0.5588 0.48856 0.74279 0.0
C1175 C 0.53265 0.48915 0.73351 0.0
C1176 C 0.50571 0.47371 0.73819 0.0
C1177 C 0.50511 0.45873 0.7527 0.0
C1178 C 0.53117 0.45881 0.7622 0.0
H1179 H 0.60184 0.39305 0.76852 0.0
H1180 H 0.56698 0.40813 0.77667 0.0
H1181 H 0.57469 0.41227 0.75616 0.0
H1182 H 0.57954 0.49967 0.73854 0.0
H1183 H 0.53402 0.50074 0.72235 0.0
H1184 H 0.76328 0.25863 0.04625 0.0
H1185 H 0.77063 0.21541 0.02844 0.0
H1186 H 0.67288 0.21121 0.02088 0.0
H1187 H 0.66529 0.2543 0.03867 0.0
H1188 H 0.74242 0.15788 0.03518 0.0
H1189 H 0.70991 0.20025 0.97666 0.0
H1190 H 0.7213 0.22568 0.99218 0.0
H1191 H 0.68317 0.20977 0.99192 0.0
C1192 C 0.74342 0.2491 0.04046 0.0
C1193 C 0.71366 0.25986 0.0439 0.0
C1194 C 0.74767 0.22436 0.03031 0.0
C1195 C 0.72234 0.21032 0.02322 0.0
C1196 C 0.6928 0.22206 0.026 0.0
H1197 H 0.67585 0.03634 0.98433 0.0
H1198 H 0.67878 0.0915 0.99014 0.0
C1199 C 0.68848 0.24658 0.03625 0.0
C1200 C 0.72617 0.18101 0.01468 0.0
H1201 H 0.71239 0.14563 0.98 0.0
C1202 C 0.73636 0.15528 0.02304 0.0
C1203 C 0.71788 0.17769 0.99891 0.0
C1204 C 0.70769 0.20485 0.98932 0.0
C1205 C 0.73744 0.12604 0.01625 0.0
C1206 C 0.72883 0.12258 1.0005 0.0
C1207 C 0.71915 0.14841 0.99202 0.0
C1208 C 0.72811 0.09182 0.99315 0.0
C1209 C 0.74645 0.09887 0.02622 0.0
C1210 C 0.75507 0.07429 0.99196 0.0
C1211 C 0.7534 0.04289 0.98873 0.0
C1212 C 0.72479 0.02871 0.98636 0.0
C1213 C 0.69818 0.0469 0.98591 0.0
C1214 C 0.69983 0.07832 0.98931 0.0
H1215 H 0.74572 0.10443 0.03881 0.0
H1216 H 0.73103 0.07895 0.02413 0.0
H1217 H 0.77026 0.09185 0.02323 0.0
H1218 H 0.77716 0.08441 0.99466 0.0
H1219 H 0.77417 0.02921 0.98921 0.0
H1220 H 0.01171 0.41895 0.7833 0.0
H1221 H 0.05852 0.42409 0.76762 0.0
H1222 H 0.06043 0.5215 0.77684 0.0
H1223 H 0.01394 0.51655 0.79279 0.0
H1224 H 0.07667 0.45895 0.74171 0.0
H1225 H 0.14207 0.49149 0.79437 0.0
H1226 H 0.10349 0.47637 0.79537 0.0
H1227 H 0.10995 0.51609 0.79041 0.0
C1228 C 0.02177 0.44158 0.78181 0.0
C1229 C 0.00924 0.46728 0.78946 0.0
C1230 C 0.04855 0.44446 0.77283 0.0
C1231 C 0.06331 0.47304 0.77134 0.0
C1232 C 0.04975 0.4991 0.77811 0.0
H1233 H 0.24208 0.52962 0.73797 0.0
H1234 H 0.18707 0.52819 0.74397 0.0
C1235 C 0.02303 0.49624 0.78714 0.0
C1236 C 0.09387 0.47516 0.76362 0.0
H1237 H 0.1689 0.49338 0.77043 0.0
C1238 C 0.09686 0.46651 0.74795 0.0
C1239 C 0.12025 0.48466 0.77186 0.0
C1240 C 0.11897 0.4924 0.78896 0.0
C1241 C 0.12548 0.4677 0.74024 0.0
C1242 C 0.15169 0.47759 0.74845 0.0
C1243 C 0.14867 0.48611 0.76411 0.0
C1244 C 0.18282 0.47892 0.7413 0.0
C1245 C 0.12747 0.4588 0.72334 0.0
C1246 C 0.19841 0.45182 0.73718 0.0
C1247 C 0.22993 0.45264 0.73365 0.0
C1248 C 0.24622 0.48053 0.73431 0.0
C1249 C 0.22999 0.50786 0.73726 0.0
C1250 C 0.19862 0.50705 0.74077 0.0
H1251 H 0.10446 0.45798 0.71785 0.0
H1252 H 0.14223 0.47526 0.71678 0.0
H1253 H 0.13803 0.43566 0.72239 0.0
H1254 H 0.18678 0.4298 0.73778 0.0
H1255 H 0.242 0.4312 0.73172 0.0
H1256 H 0.73773 0.9874 0.50008 0.0
H1257 H 0.73795 0.93258 0.50633 0.0
H1258 H 0.82788 0.924 0.48539 0.0
H1259 H 0.82819 0.97945 0.47964 0.0
H1260 H 0.74395 0.87748 0.49198 0.0
H1261 H 0.84459 0.89914 0.52981 0.0
H1262 H 0.82338 0.92987 0.52078 0.0
H1263 H 0.85102 0.90822 0.50968 0.0
C1264 C 0.75731 0.97369 0.49651 0.0
C1265 C 0.78315 0.98779 0.48958 0.0
C1266 C 0.75739 0.94231 0.50008 0.0
C1267 C 0.78329 0.92424 0.49676 0.0
C1268 C 0.80796 0.93764 0.48846 0.0
H1269 H 0.83556 0.74591 0.53452 0.0
H1270 H 0.83039 0.79064 0.5175 0.0
C1271 C 0.80797 0.96923 0.48496 0.0
C1272 C 0.7853 0.89248 0.50332 0.0
H1273 H 0.82596 0.84852 0.52895 0.0
C1274 C 0.76203 0.87105 0.49997 0.0
C1275 C 0.8086 0.88416 0.51396 0.0
C1276 C 0.83316 0.90658 0.51892 0.0
C1277 C 0.76157 0.84158 0.50686 0.0
C1278 C 0.78484 0.83337 0.51752 0.0
C1279 C 0.80825 0.85467 0.5207 0.0
C1280 C 0.78524 0.8033 0.52595 0.0
C1281 C 0.73629 0.81946 0.50261 0.0
C1282 C 0.7612 0.79486 0.53613 0.0
C1283 C 0.76401 0.76901 0.54586 0.0
C1284 C 0.79109 0.75131 0.54572 0.0
C1285 C 0.8144 0.75897 0.53495 0.0
C1286 C 0.81151 0.78463 0.52521 0.0
H1287 H 0.72578 0.82558 0.49128 0.0
H1288 H 0.745 0.7955 0.50199 0.0
H1289 H 0.71797 0.82035 0.51164 0.0
H1290 H 0.74096 0.80918 0.53718 0.0
H1291 H 0.74576 0.76405 0.55413 0.0
H1292 H 0.27504 0.58119 0.26036 0.0
H1293 H 0.33038 0.57985 0.26431 0.0
H1294 H 0.34052 0.51858 0.22525 0.0
H1295 H 0.28447 0.51924 0.22155 0.0
H1296 H 0.36961 0.49674 0.25018 0.0
H1297 H 0.4026 0.6183 0.24288 0.0
H1298 H 0.37125 0.61522 0.25641 0.0
H1299 H 0.36597 0.60373 0.23648 0.0
C1300 C 0.28917 0.56804 0.25238 0.0
C1301 C 0.27559 0.55043 0.24061 0.0
C1302 C 0.32085 0.56743 0.25458 0.0
C1303 C 0.33977 0.54953 0.24493 0.0
C1304 C 0.32639 0.5328 0.23274 0.0
H1305 H 0.53333 0.56662 0.27163 0.0
H1306 H 0.48775 0.56515 0.25505 0.0
C1307 C 0.29449 0.53339 0.23054 0.0
C1308 C 0.37284 0.54615 0.24874 0.0
H1309 H 0.43523 0.58792 0.25988 0.0
C1310 C 0.38425 0.51663 0.25196 0.0
C1311 C 0.39222 0.57194 0.2508 0.0
C1312 C 0.38243 0.60401 0.24628 0.0
C1313 C 0.41376 0.5124 0.25812 0.0
C1314 C 0.43198 0.53849 0.26165 0.0
C1315 C 0.42128 0.56784 0.25746 0.0
C1316 C 0.46101 0.53627 0.27067 0.0
C1317 C 0.42481 0.47995 0.26087 0.0
C1318 C 0.46142 0.52035 0.28491 0.0
C1319 C 0.48767 0.52047 0.29413 0.0
C1320 C 0.51383 0.53738 0.2896 0.0
C1321 C 0.51357 0.55324 0.27535 0.0
C1322 C 0.48749 0.55247 0.26591 0.0
H1323 H 0.41487 0.46392 0.25221 0.0
H1324 H 0.45025 0.47834 0.26023 0.0
H1325 H 0.41699 0.47211 0.27254 0.0
H1326 H 0.44105 0.50875 0.28924 0.0
H1327 H 0.48685 0.50856 0.30522 0.0
H1328 H 0.78101 0.48054 0.55557 0.0
H1329 H 0.78116 0.42422 0.55224 0.0
H1330 H 0.82791 0.43518 0.50815 0.0
H1331 H 0.82831 0.49077 0.51157 0.0
H1332 H 0.7533 0.3921 0.52885 0.0
H1333 H 0.87748 0.36743 0.52793 0.0
H1334 H 0.86214 0.40313 0.5353 0.0
H1335 H 0.86882 0.39819 0.51475 0.0
C1336 C 0.79197 0.47068 0.5454 0.0
C1337 C 0.80469 0.48981 0.53384 0.0
C1338 C 0.79189 0.43866 0.54346 0.0
C1339 C 0.80497 0.42549 0.53005 0.0
C1340 C 0.81836 0.4447 0.51875 0.0
H1341 H 0.76105 0.2766 0.4726 0.0
H1342 H 0.76065 0.32137 0.48937 0.0
C1343 C 0.81836 0.47647 0.52066 0.0
C1344 C 0.8027 0.39203 0.52698 0.0
H1345 H 0.84534 0.33206 0.51344 0.0
C1346 C 0.77345 0.37864 0.52584 0.0
C1347 C 0.82895 0.37426 0.52337 0.0
C1348 C 0.86111 0.38644 0.52558 0.0
C1349 C 0.76966 0.34867 0.52009 0.0
C1350 C 0.7958 0.33206 0.51491 0.0
C1351 C 0.82516 0.34473 0.51717 0.0
C1352 C 0.79337 0.30304 0.50586 0.0
C1353 C 0.73759 0.33551 0.51944 0.0
C1354 C 0.81245 0.27779 0.5092 0.0
C1355 C 0.81351 0.25239 0.49925 0.0
C1356 C 0.79513 0.25156 0.48591 0.0
C1357 C 0.77513 0.27623 0.48293 0.0
C1358 C 0.77464 0.30187 0.49265 0.0
H1359 H 0.72323 0.34434 0.52917 0.0
H1360 H 0.72655 0.3429 0.50846 0.0
H1361 H 0.7377 0.30999 0.51998 0.0
H1362 H 0.82728 0.27816 0.51926 0.0
H1363 H 0.82919 0.23375 0.50179 0.0
H1364 H 0.2753 0.08416 0.78378 0.0
H1365 H 0.33056 0.08685 0.77828 0.0
H1366 H 0.33787 0.98894 0.78577 0.0
H1367 H 0.28227 0.98614 0.79057 0.0
H1368 H 0.38602 0.07152 0.79107 0.0
H1369 H 0.36036 0.99681 0.74041 0.0
H1370 H 0.33053 0.0129 0.75251 0.0
H1371 H 0.35164 0.9797 0.75893 0.0
C1372 C 0.289 0.06347 0.78484 0.0
C1373 C 0.2748 0.03498 0.78767 0.0
C1374 C 0.3205 0.06496 0.78161 0.0
C1375 C 0.33818 0.03797 0.78122 0.0
C1376 C 0.32451 0.00994 0.78565 0.0
H1377 H 0.51404 0.01317 0.73293 0.0
H1378 H 0.47238 1.00545 0.75184 0.0
C1379 C 0.29291 1.00837 0.7886 0.0
C1380 C 0.36955 0.03879 0.77432 0.0
H1381 H 0.41117 0.01364 0.74304 0.0
C1382 C 0.39165 0.05861 0.78067 0.0
C1383 C 0.37679 0.02215 0.76063 0.0
C1384 C 0.35355 1.00191 0.75261 0.0
C1385 C 0.42063 0.06251 0.77359 0.0
C1386 C 0.42754 0.04632 0.75978 0.0
C1387 C 0.40586 0.02579 0.75372 0.0
C1388 C 0.45578 0.05226 0.75051 0.0
C1389 C 0.4435 0.08416 0.78082 0.0
C1390 C 0.46051 0.08126 0.74369 0.0
C1391 C 0.48417 0.08572 0.73284 0.0
C1392 C 0.5035 0.06122 0.72859 0.0
C1393 C 0.49967 0.03257 0.73602 0.0
C1394 C 0.47586 0.02809 0.74681 0.0
H1395 H 0.43864 0.08758 0.7934 0.0
H1396 H 0.46734 0.07546 0.77941 0.0
H1397 H 0.44202 0.10689 0.77497 0.0
H1398 H 0.44491 0.10005 0.74612 0.0
H1399 H 0.48645 0.10803 0.7273 0.0
H1400 H 0.70853 0.78581 0.99937 0.0
H1401 H 0.71403 0.74145 0.01691 0.0
H1402 H 0.74612 0.68664 0.97832 0.0
H1403 H 0.74338 0.73146 0.96134 0.0
H1404 H 0.68666 0.69205 0.01897 0.0
H1405 H 0.80602 0.65701 1.00775 0.0
H1406 H 0.79132 0.69302 1.00053 0.0
H1407 H 0.7864 0.65795 0.98957 0.0
C1408 C 0.71768 0.76447 0.99483 0.0
C1409 C 0.72622 0.76225 0.97911 0.0
C1410 C 0.72063 0.73901 1.00481 0.0
C1411 C 0.73128 0.71052 0.99915 0.0
C1412 C 0.73933 0.70842 0.98332 0.0
H1413 H 0.67639 0.5315 0.02783 0.0
H1414 H 0.67859 0.58624 0.02158 0.0
C1415 C 0.73751 0.7341 0.97352 0.0
C1416 C 0.73159 0.68245 1.00935 0.0
H1417 H 0.77156 0.61634 0.01655 0.0
C1418 C 0.70561 0.67589 0.01865 0.0
C1419 C 0.75644 0.66133 1.00946 0.0
C1420 C 0.7867 0.66796 1.00142 0.0
C1421 C 0.7031 0.64834 0.02721 0.0
C1422 C 0.72651 0.62588 0.02593 0.0
C1423 C 0.75322 0.63314 0.01738 0.0
C1424 C 0.72293 0.59396 0.03223 0.0
C1425 C 0.67531 0.64376 0.03756 0.0
C1426 C 0.74697 0.57966 0.0404 0.0
C1427 C 0.74579 0.5481 0.04382 0.0
C1428 C 0.72042 0.5304 0.03928 0.0
C1429 C 0.69569 0.54494 0.03192 0.0
C1430 C 0.697 0.57632 0.02834 0.0
H1431 H 0.66707 0.6661 0.04223 0.0
H1432 H 0.65636 0.63373 0.03066 0.0
H1433 H 0.68032 0.6282 0.04749 0.0
H1434 H 0.76735 0.59257 0.04344 0.0
H1435 H 0.76553 0.53715 0.04906 0.0
H1436 H 0.02457 0.00885 0.22297 0.0
H1437 H 0.0709 1.00666 0.23852 0.0
H1438 H 0.0242 0.94914 0.27221 0.0
H1439 H 0.97789 0.94982 0.25611 0.0
H1440 H 0.08712 0.02288 0.26635 0.0
H1441 H 0.09549 0.8955 0.26237 0.0
H1442 H 0.06758 0.91717 0.25154 0.0
H1443 H 0.06139 0.90922 0.27188 0.0
C1444 C 0.02393 0.99595 0.23377 0.0
C1445 C 0.99758 0.97925 0.23824 0.0
C1446 C 0.05053 0.99473 0.24268 0.0
C1447 C 0.05137 0.97717 0.2564 0.0
C1448 C 0.02447 0.96205 0.26143 0.0
H1449 H 0.23166 0.99085 0.30364 0.0
H1450 H 0.17524 0.99071 0.30123 0.0
C1451 C 0.99792 0.9627 0.25231 0.0
C1452 C 0.081 0.97383 0.26476 0.0
H1453 H 0.13549 0.92112 0.27497 0.0
C1454 C 0.09755 1.00061 0.26843 0.0
C1455 C 0.09472 0.94473 0.26737 0.0
C1456 C 0.07906 0.91501 0.26298 0.0
C1457 C 0.12792 0.99919 0.27379 0.0
C1458 C 0.14176 0.97012 0.27614 0.0
C1459 C 0.12467 0.94334 0.27331 0.0
C1460 C 0.17516 0.96697 0.27913 0.0
C1461 C 0.14558 0.02881 0.27585 0.0
C1462 C 0.19359 0.95233 0.26796 0.0
C1463 C 0.22543 0.95209 0.26942 0.0
C1464 C 0.23957 0.96646 0.28209 0.0
C1465 C 0.22118 0.97955 0.2938 0.0
C1466 C 0.18909 0.97978 0.29233 0.0
H1467 H 0.13332 0.04888 0.27082 0.0
H1468 H 0.14888 0.03314 0.28843 0.0
H1469 H 0.16861 0.02725 0.27027 0.0
H1470 H 0.18342 0.94221 0.25771 0.0
H1471 H 0.23917 0.94171 0.26028 0.0
H1472 H 0.2585 0.7605 0.55012 0.0
H1473 H 0.26573 0.71892 0.53118 0.0
H1474 H 0.16771 0.70511 0.52958 0.0
H1475 H 0.16038 0.74618 0.54863 0.0
H1476 H 0.243 0.65702 0.53848 0.0
H1477 H 0.19649 0.70163 0.48289 0.0
H1478 H 0.21034 0.72653 0.49811 0.0
H1479 H 0.17317 0.7088 0.49984 0.0
C1480 C 0.23845 0.74926 0.54536 0.0
C1481 C 0.20884 0.7567 0.55082 0.0
C1482 C 0.24263 0.72539 0.5346 0.0
C1483 C 0.21724 0.70906 0.52885 0.0
C1484 C 0.18759 0.71765 0.53365 0.0
H1485 H 0.17682 0.5351 0.48667 0.0
H1486 H 0.17642 0.58945 0.49442 0.0
C1487 C 0.18345 0.74109 0.54458 0.0
C1488 C 0.22164 0.68073 0.51943 0.0
H1489 H 0.20405 0.64736 0.48463 0.0
C1490 C 0.23495 0.65503 0.52662 0.0
C1491 C 0.21076 0.67808 0.50404 0.0
C1492 C 0.19708 0.70526 0.49566 0.0
C1493 C 0.23672 0.62649 0.51905 0.0
C1494 C 0.22556 0.62368 0.50368 0.0
C1495 C 0.21271 0.64954 0.49637 0.0
C1496 C 0.22593 0.59356 0.49547 0.0
C1497 C 0.2493 0.59921 0.52786 0.0
C1498 C 0.25385 0.57843 0.49254 0.0
C1499 C 0.25406 0.54753 0.48804 0.0
C1500 C 0.22636 0.53133 0.48617 0.0
C1501 C 0.19845 0.54728 0.48766 0.0
C1502 C 0.19824 0.57822 0.49225 0.0
H1503 H 0.25032 0.60357 0.54057 0.0
H1504 H 0.23502 0.5784 0.5259 0.0
H1505 H 0.27297 0.59428 0.52369 0.0
H1506 H 0.27549 0.58989 0.49476 0.0
H1507 H 0.27584 0.53557 0.48726 0.0
H1508 H 0.73098 0.02533 0.23614 0.0
H1509 H 0.67665 0.02496 0.24397 0.0
H1510 H 0.67785 0.92587 0.24518 0.0
H1511 H 0.73218 0.92621 0.23726 0.0
H1512 H 0.6173 0.9896 0.23392 0.0
H1513 H 0.66675 0.96107 0.29165 0.0
H1514 H 0.68938 0.97769 0.27608 0.0
H1515 H 0.67942 0.93763 0.27565 0.0
C1516 C 0.71916 1.00348 0.23729 0.0
C1517 C 0.73561 0.97577 0.23584 0.0
C1518 C 0.68819 1.00329 0.24188 0.0
C1519 C 0.67327 0.97541 0.24525 0.0
C1520 C 0.68893 0.94764 0.24257 0.0
H1521 H 0.51657 0.91415 0.29687 0.0
H1522 H 0.55839 0.92125 0.27806 0.0
C1523 C 0.71986 0.94781 0.23788 0.0
C1524 C 0.64346 0.97543 0.25383 0.0
H1525 H 0.6127 0.9608 0.28977 0.0
C1526 C 0.61622 0.98343 0.24613 0.0
C1527 C 0.64222 0.96793 0.26985 0.0
C1528 C 0.67096 0.96082 0.2789 0.0
C1529 C 0.5876 0.98295 0.25397 0.0
C1530 C 0.58636 0.97437 0.26983 0.0
C1531 C 0.6137 0.96718 0.27757 0.0
C1532 C 0.55698 0.97091 0.27861 0.0
C1533 C 0.55872 0.99074 0.24526 0.0
C1534 C 0.54156 0.99656 0.28478 0.0
C1535 C 0.51729 0.99255 0.2955 0.0
C1536 C 0.50847 0.96282 0.30032 0.0
C1537 C 0.52282 0.93732 0.29338 0.0
C1538 C 0.54676 0.94133 0.28264 0.0
H1539 H 0.56337 0.99612 0.23283 0.0
H1540 H 0.54236 0.97115 0.24599 0.0
H1541 H 0.54742 0.01089 0.25074 0.0
H1542 H 0.54938 0.01961 0.28198 0.0
H1543 H 0.50703 0.01264 0.30084 0.0
H1544 H 0.25105 0.25167 0.05094 0.0
H1545 H 0.24324 0.29256 0.03155 0.0
H1546 H 0.34108 0.30782 0.0292 0.0
H1547 H 0.34895 0.26733 0.04851 0.0
H1548 H 0.26142 0.35358 0.03731 0.0
H1549 H 0.31653 0.31145 0.98325 0.0
H1550 H 0.30487 0.28603 0.99889 0.0
H1551 H 0.34029 0.30723 1.0001 0.0
C1552 C 0.27093 0.26305 0.04589 0.0
C1553 C 0.30064 0.25618 0.0512 0.0
C1554 C 0.26643 0.28654 0.03488 0.0
C1555 C 0.2916 0.30311 0.02877 0.0
C1556 C 0.32134 0.29506 0.03348 0.0
H1557 H 0.33446 0.47698 0.98728 0.0
H1558 H 0.33353 0.42256 0.99498 0.0
C1559 C 0.3258 0.27194 0.04459 0.0
C1560 C 0.2869 0.33118 0.01908 0.0
H1561 H 0.30887 0.36607 0.98503 0.0
C1562 C 0.27126 0.35613 0.02575 0.0
C1563 C 0.30006 0.33463 1.00407 0.0
C1564 C 0.31615 0.30832 0.99608 0.0
C1565 C 0.26963 0.38479 0.01818 0.0
C1566 C 0.28333 0.38848 1.00327 0.0
C1567 C 0.29828 0.36327 0.99641 0.0
C1568 C 0.28392 0.41894 0.99523 0.0
C1569 C 0.25462 0.4113 0.02661 0.0
C1570 C 0.25646 0.43445 0.99184 0.0
C1571 C 0.25701 0.46549 0.98744 0.0
C1572 C 0.28505 0.48139 0.98603 0.0
C1573 C 0.3126 0.46507 0.98794 0.0
C1574 C 0.31204 0.43405 0.99249 0.0
H1575 H 0.25187 0.40658 0.03925 0.0
H1576 H 0.26825 0.43275 0.02514 0.0
H1577 H 0.23142 0.41531 0.02174 0.0
H1578 H 0.2345 0.42314 0.99356 0.0
H1579 H 0.23546 0.47772 0.9863 0.0
H1580 H 0.98883 0.01363 0.80596 0.0
H1581 H 0.94459 0.01466 0.78898 0.0
H1582 H 0.99172 0.07811 0.75829 0.0
H1583 H 0.03574 0.07867 0.77599 0.0
H1584 H 0.93772 0.09759 0.76241 0.0
H1585 H 0.92404 0.9745 0.74981 0.0
H1586 H 0.92434 0.97922 0.77045 0.0
H1587 H 0.95804 0.98919 0.7591 0.0
C1588 C 0.99012 0.02737 0.79544 0.0
C1589 C 0.01592 0.0459 0.79223 0.0
C1590 C 0.96479 0.02771 0.78561 0.0
C1591 C 0.96498 0.04572 0.77203 0.0
C1592 C 0.99107 0.06376 0.7686 0.0
H1593 H 0.78921 0.02642 0.72268 0.0
H1594 H 0.8454 0.02824 0.72561 0.0
C1595 C 0.01624 0.06404 0.77868 0.0
C1596 C 0.93671 0.04795 0.76244 0.0
H1597 H 0.87672 1.00505 0.74909 0.0
C1598 C 0.92482 0.07728 0.75915 0.0
C1599 C 0.91995 0.02162 0.75775 0.0
C1600 C 0.93254 0.98943 0.75932 0.0
C1601 C 0.89572 0.08093 0.75248 0.0
C1602 C 0.87753 0.05462 0.74952 0.0
C1603 C 0.89036 0.0253 0.75162 0.0
C1604 C 0.8442 0.05694 0.74614 0.0
C1605 C 0.88452 0.11304 0.74901 0.0
C1606 C 0.82496 0.07275 0.75654 0.0
C1607 C 0.79319 0.07194 0.7548 0.0
C1608 C 0.77985 0.05491 0.74275 0.0
C1609 C 0.799 0.04 0.73195 0.0
C1610 C 0.831 0.04087 0.73369 0.0
H1611 H 0.90403 0.12843 0.74587 0.0
H1612 H 0.86771 0.11326 0.73936 0.0
H1613 H 0.87334 0.12265 0.75956 0.0
H1614 H 0.8344 0.08456 0.76649 0.0
H1615 H 0.7789 0.08362 0.76329 0.0
H1616 H 0.23648 0.10314 1.00717 0.0
H1617 H 0.21996 0.11223 0.98019 0.0
H1618 H 0.29811 0.06106 0.96333 0.0
H1619 H 0.31439 0.05173 0.99018 0.0
H1620 H 0.28053 0.12179 0.94665 0.0
H1621 H 0.18831 0.03372 0.95391 0.0
H1622 H 0.19186 0.06263 0.96875 0.0
H1623 H 0.22174 0.03472 0.96623 0.0
C1624 C 0.25046 0.09462 0.99765 0.0
C1625 C 0.27674 0.07695 1.00064 0.0
C1626 C 0.24096 0.09959 0.98231 0.0
C1627 C 0.25775 0.08712 0.96982 0.0
C1628 C 0.28489 0.07089 0.97281 0.0
H1629 H 0.21125 0.05291 0.8729 0.0
H1630 H 0.23496 0.0517 0.89875 0.0
C1631 C 0.2942 0.06567 0.9881 0.0
C1632 C 0.24603 0.08899 0.95371 0.0
H1633 H 0.19176 0.05883 0.9296 0.0
C1634 C 0.26107 0.10815 0.94291 0.0
C1635 C 0.22096 0.07074 0.94885 0.0
C1636 C 0.20475 0.04909 0.95995 0.0
C1637 C 0.25122 0.10995 0.92739 0.0
C1638 C 0.22592 0.09202 0.92259 0.0
C1639 C 0.21117 0.07254 0.93334 0.0
C1640 C 0.21375 0.09391 0.90656 0.0
C1641 C 0.26784 0.13089 0.91613 0.0
C1642 C 0.19423 0.11816 0.90241 0.0
C1643 C 0.18049 0.11877 0.88776 0.0
C1644 C 0.18629 0.09533 0.8769 0.0
C1645 C 0.20671 0.07156 0.88091 0.0
C1646 C 0.22011 0.07072 0.89569 0.0
H1647 H 0.289 0.14091 0.92122 0.0
H1648 H 0.27413 0.11806 0.90543 0.0
H1649 H 0.25234 0.14995 0.91268 0.0
H1650 H 0.18895 0.13617 0.91068 0.0
H1651 H 0.16478 0.13731 0.88505 0.0
H1652 H 0.67077 0.38072 0.14742 0.0
H1653 H 0.66951 0.40605 0.1726 0.0
H1654 H 0.67394 0.49465 0.15002 0.0
H1655 H 0.67521 0.46928 0.12448 0.0
H1656 H 0.71683 0.44706 0.18358 0.0
H1657 H 0.60131 0.50199 0.18215 0.0
H1658 H 0.61148 0.47054 0.16944 0.0
H1659 H 0.62673 0.50825 0.16583 0.0
C1660 C 0.67114 0.40562 0.1477 0.0
C1661 C 0.673 0.42296 0.13388 0.0
C1662 C 0.67046 0.42006 0.16216 0.0
C1663 C 0.67141 0.4522 0.1632 0.0
C1664 C 0.67275 0.46979 0.14946 0.0
H1665 H 0.67478 0.56192 0.24865 0.0
H1666 H 0.6686 0.54566 0.22152 0.0
C1667 C 0.67351 0.45527 0.13489 0.0
C1668 C 0.6725 0.46668 0.17881 0.0
H1669 H 0.62999 0.50772 0.20508 0.0
C1670 C 0.69791 0.46046 0.18826 0.0
C1671 C 0.64798 0.48445 0.18482 0.0
C1672 C 0.62017 0.4917 0.17513 0.0
C1673 C 0.69926 0.47104 0.20364 0.0
C1674 C 0.67402 0.48748 0.20995 0.0
C1675 C 0.64908 0.4947 0.20032 0.0
C1676 C 0.67326 0.49707 0.22654 0.0
C1677 C 0.72792 0.46471 0.21291 0.0
C1678 C 0.67638 0.47511 0.23847 0.0
C1679 C 0.67989 0.48439 0.25391 0.0
C1680 C 0.67958 0.51571 0.25773 0.0
C1681 C 0.67435 0.53758 0.24599 0.0
C1682 C 0.67111 0.52833 0.2305 0.0
H1683 H 0.74809 0.46057 0.20521 0.0
H1684 H 0.73335 0.48415 0.22077 0.0
H1685 H 0.72433 0.44374 0.22009 0.0
H1686 H 0.67742 0.45083 0.23574 0.0
H1687 H 0.68449 0.46722 0.26275 0.0
H1688 H 0.30065 0.99383 0.37476 0.0
H1689 H 0.28264 0.98449 0.4013 0.0
H1690 H 0.33667 0.90158 0.40339 0.0
H1691 H 0.35522 0.91096 0.37676 0.0
H1692 H 0.25014 0.9341 0.41335 0.0
H1693 H 0.36277 0.94728 0.44281 0.0
H1694 H 0.35668 0.95977 0.42303 0.0
H1695 H 0.36144 0.91962 0.42735 0.0
C1696 C 0.30879 0.97356 0.38081 0.0
C1697 C 0.32949 0.95317 0.37356 0.0
C1698 C 0.29842 0.96826 0.39602 0.0
C1699 C 0.30854 0.94254 0.40446 0.0
C1700 C 0.32895 0.92189 0.39724 0.0
H1701 H 0.26922 0.90524 0.50392 0.0
H1702 H 0.28601 0.89721 0.4768 0.0
C1703 C 0.33939 0.92719 0.38197 0.0
C1704 C 0.29721 0.93748 0.42068 0.0
H1705 H 0.31986 0.93643 0.45869 0.0
C1706 C 0.26544 0.93437 0.42324 0.0
C1707 C 0.31713 0.93753 0.43363 0.0
C1708 C 0.3514 0.94144 0.43167 0.0
C1709 C 0.25301 0.93193 0.43834 0.0
C1710 C 0.27279 0.93336 0.45133 0.0
C1711 C 0.30467 0.93529 0.44876 0.0
C1712 C 0.26071 0.93596 0.46755 0.0
C1713 C 0.21871 0.92798 0.44017 0.0
C1714 C 0.24078 0.96015 0.47139 0.0
C1715 C 0.23104 0.96451 0.48671 0.0
C1716 C 0.2414 0.94516 0.49872 0.0
C1717 C 0.2607 0.92036 0.4949 0.0
C1718 C 0.27045 0.91593 0.47944 0.0
H1719 H 0.2087 0.91631 0.42991 0.0
H1720 H 0.2128 0.91446 0.45076 0.0
H1721 H 0.2078 0.95097 0.44111 0.0
H1722 H 0.23345 0.97639 0.46259 0.0
H1723 H 0.21599 0.98371 0.48924 0.0
H1724 H 0.85949 0.59862 0.62958 0.0
H1725 H 0.87135 0.58002 0.65586 0.0
H1726 H 0.77985 0.54281 0.6602 0.0
H1727 H 0.7677 0.56128 0.63408 0.0
H1728 H 0.83325 0.594 0.68546 0.0
H1729 H 0.84294 0.47017 0.67031 0.0
H1730 H 0.84908 0.50054 0.6562 0.0
H1731 H 0.8108 0.49069 0.66233 0.0
C1732 C 0.84188 0.58646 0.63611 0.0
C1733 C 0.81266 0.58135 0.62965 0.0
C1734 C 0.84872 0.57588 0.65113 0.0
C1735 C 0.82657 0.55982 0.65991 0.0
C1736 C 0.79739 0.55484 0.65354 0.0
H1737 H 0.79144 0.46714 0.7441 0.0
H1738 H 0.79883 0.48578 0.71777 0.0
C1739 C 0.7905 0.56546 0.63859 0.0
C1740 C 0.8335 0.54847 0.67582 0.0
H1741 H 0.84063 0.48244 0.69703 0.0
C1742 C 0.83528 0.56965 0.68805 0.0
C1743 C 0.83615 0.51674 0.67909 0.0
C1744 C 0.83488 0.49309 0.66632 0.0
C1745 C 0.83773 0.55982 0.70362 0.0
C1746 C 0.83947 0.52787 0.70699 0.0
C1747 C 0.8393 0.50688 0.69456 0.0
C1748 C 0.83735 0.51539 0.72318 0.0
C1749 C 0.83649 0.58372 0.71629 0.0
C1750 C 0.85714 0.5249 0.73516 0.0
C1751 C 0.85232 0.51479 0.75056 0.0
C1752 C 0.82791 0.49468 0.75414 0.0
C1753 C 0.80985 0.48342 0.74188 0.0
C1754 C 0.81426 0.49388 0.72671 0.0
H1755 H 0.82812 0.60626 0.71192 0.0
H1756 H 0.82124 0.57617 0.72598 0.0
H1757 H 0.85993 0.58727 0.72096 0.0
H1758 H 0.87589 0.54059 0.7327 0.0
H1759 H 0.86686 0.52357 0.7597 0.0
H1760 H 0.75575 0.8994 0.01514 0.0
H1761 H 0.77166 0.88595 0.04169 0.0
H1762 H 0.72446 0.96602 0.05923 0.0
H1763 H 0.70763 0.97864 0.03308 0.0
H1764 H 0.80846 0.91924 0.0591 0.0
H1765 H 0.69981 0.90501 0.09163 0.0
H1766 H 0.70128 0.90525 0.07064 0.0
H1767 H 0.69971 0.94087 0.08131 0.0
C1768 C 0.74805 0.91349 0.02476 0.0
C1769 C 0.73067 0.94016 0.02205 0.0
C1770 C 0.75724 0.90593 0.03989 0.0
C1771 C 0.74891 0.92473 0.05253 0.0
C1772 C 0.73053 0.95065 0.04982 0.0
H1773 H 0.85432 0.97593 0.13032 0.0
H1774 H 0.82781 0.96828 0.1058 0.0
C1775 C 0.72128 0.95809 0.0348 0.0
C1776 C 0.7622 0.91975 0.0682 0.0
H1777 H 0.74401 0.92105 0.10691 0.0
C1778 C 0.7943 0.91893 0.06953 0.0
C1779 C 0.74384 0.9189 0.08187 0.0
C1780 C 0.70925 0.91721 0.08127 0.0
C1781 C 0.80855 0.9192 0.0841 0.0
C1782 C 0.79022 0.92129 0.09774 0.0
C1783 C 0.7581 0.92006 0.09647 0.0
C1784 C 0.80409 0.92687 0.11321 0.0
C1785 C 0.84318 0.91769 0.08466 0.0
C1786 C 0.79797 0.90735 0.12595 0.0
C1787 C 0.81258 0.91223 0.14024 0.0
C1788 C 0.8337 0.93647 0.14184 0.0
C1789 C 0.83868 0.95663 0.12929 0.0
C1790 C 0.8237 0.95216 0.11522 0.0
H1791 H 0.85267 0.90539 0.0744 0.0
H1792 H 0.85269 0.94139 0.08445 0.0
H1793 H 0.85121 0.90592 0.09536 0.0
H1794 H 0.78254 0.88795 0.12473 0.0
H1795 H 0.80827 0.89647 0.14979 0.0
H1796 H 0.34876 0.45328 0.77534 0.0
H1797 H 0.35414 0.46691 0.80294 0.0
H1798 H 0.32761 0.56019 0.79234 0.0
H1799 H 0.32147 0.54642 0.76498 0.0
H1800 H 0.38713 0.5103 0.81993 0.0
H1801 H 0.26236 0.53366 0.82367 0.0
H1802 H 0.27969 0.51457 0.80721 0.0
H1803 H 0.28064 0.55589 0.80863 0.0
C1804 C 0.34497 0.47686 0.77891 0.0
C1805 C 0.33484 0.49889 0.76811 0.0
C1806 C 0.34778 0.48456 0.79465 0.0
C1807 C 0.34047 0.51436 0.79975 0.0
C1808 C 0.33259 0.53686 0.78874 0.0
H1809 H 0.33563 0.62953 0.878 0.0
H1810 H 0.3378 0.60311 0.85312 0.0
C1811 C 0.32948 0.52913 0.7731 0.0
C1812 C 0.33954 0.5219 0.81658 0.0
H1813 H 0.29307 0.55327 0.84448 0.0
C1814 C 0.36647 0.51924 0.82539 0.0
C1815 C 0.31239 0.53304 0.82378 0.0
C1816 C 0.28206 0.53415 0.81538 0.0
C1817 C 0.36742 0.52934 0.84091 0.0
C1818 C 0.3408 0.54231 0.84772 0.0
C1819 C 0.31353 0.54354 0.83917 0.0
C1820 C 0.34137 0.55757 0.86309 0.0
C1821 C 0.39714 0.52745 0.84975 0.0
C1822 C 0.34279 0.54064 0.87701 0.0
C1823 C 0.34143 0.55576 0.8914 0.0
C1824 C 0.3387 0.588 0.89203 0.0
C1825 C 0.33784 0.60472 0.878 0.0
C1826 C 0.33903 0.58967 0.86373 0.0
H1827 H 0.41639 0.51878 0.84244 0.0
H1828 H 0.40338 0.55049 0.85431 0.0
H1829 H 0.39414 0.51179 0.85987 0.0
H1830 H 0.34429 0.51578 0.87673 0.0
H1831 H 0.34196 0.54221 0.90199 0.0
H1832 H 0.70076 0.12993 0.64922 0.0
H1833 H 0.72566 0.13618 0.62356 0.0
H1834 H 0.6865 0.04986 0.6089 0.0
H1835 H 0.66036 0.04466 0.63395 0.0
H1836 H 0.76598 0.10595 0.60652 0.0
H1837 H 0.65591 0.10326 0.57506 0.0
H1838 H 0.65747 0.1055 0.59596 0.0
H1839 H 0.66054 0.06885 0.58629 0.0
C1840 C 0.6976 0.1124 0.64047 0.0
C1841 C 0.67817 0.08719 0.64338 0.0
C1842 C 0.71176 0.11594 0.62583 0.0
C1843 C 0.70703 0.09406 0.61404 0.0
C1844 C 0.6894 0.06778 0.61748 0.0
H1845 H 0.80968 0.0496 0.53286 0.0
H1846 H 0.79303 0.06187 0.55914 0.0
C1847 C 0.67468 0.06469 0.63185 0.0
C1848 C 0.72006 0.09846 0.59811 0.0
H1849 H 0.70125 0.09366 0.55972 0.0
C1850 C 0.75174 0.10376 0.59628 0.0
C1851 C 0.7015 0.09639 0.58467 0.0
C1852 C 0.66694 0.09355 0.58561 0.0
C1853 C 0.76552 0.10543 0.58145 0.0
C1854 C 0.74727 0.10079 0.56807 0.0
C1855 C 0.71541 0.097 0.5699 0.0
C1856 C 0.76073 0.09712 0.55219 0.0
C1857 C 0.79949 0.11213 0.58033 0.0
C1858 C 0.74824 0.11275 0.53933 0.0
C1859 C 0.75733 0.10518 0.52413 0.0
C1860 C 0.77897 0.08178 0.52158 0.0
C1861 C 0.79284 0.06766 0.53448 0.0
C1862 C 0.78356 0.07494 0.54957 0.0
H1863 H 0.80708 0.12668 0.59019 0.0
H1864 H 0.81242 0.09019 0.58099 0.0
H1865 H 0.80557 0.12399 0.56928 0.0
H1866 H 0.73046 0.12986 0.54102 0.0
H1867 H 0.74607 0.11622 0.51441 0.0
H1868 H 0.20878 0.46085 0.3983 0.0
H1869 H 0.20889 0.48436 0.3723 0.0
H1870 H 0.12801 0.43234 0.3605 0.0
H1871 H 0.12797 0.40836 0.38631 0.0
H1872 H 0.20744 0.44314 0.34228 0.0
H1873 H 0.11401 0.52951 0.34915 0.0
H1874 H 0.13696 0.51641 0.3653 0.0
H1875 H 0.10792 0.4918 0.35743 0.0
C1876 C 0.1907 0.45484 0.39026 0.0
C1877 C 0.16825 0.43287 0.39435 0.0
C1878 C 0.19091 0.46816 0.37542 0.0
C1879 C 0.16836 0.46013 0.36459 0.0
C1880 C 0.14546 0.43892 0.36878 0.0
H1881 H 0.16977 0.47874 0.26379 0.0
H1882 H 0.16031 0.46075 0.29056 0.0
C1883 C 0.14549 0.42526 0.38351 0.0
C1884 C 0.16961 0.47248 0.34857 0.0
H1885 H 0.13402 0.52229 0.3238 0.0
C1886 C 0.19146 0.46047 0.33821 0.0
C1887 C 0.14884 0.49519 0.34342 0.0
C1888 C 0.12563 0.50925 0.35436 0.0
C1889 C 0.19282 0.47035 0.32266 0.0
C1890 C 0.17143 0.49247 0.31737 0.0
C1891 C 0.14998 0.50492 0.32784 0.0
C1892 C 0.17228 0.50418 0.30119 0.0
C1893 C 0.21746 0.45745 0.31211 0.0
C1894 C 0.18048 0.5349 0.29834 0.0
C1895 C 0.18558 0.54515 0.28315 0.0
C1896 C 0.18221 0.52493 0.27058 0.0
C1897 C 0.17199 0.49478 0.27333 0.0
C1898 C 0.16701 0.48445 0.28857 0.0
H1899 H 0.23598 0.44591 0.31877 0.0
H1900 H 0.20707 0.44021 0.30424 0.0
H1901 H 0.2279 0.47589 0.30482 0.0
H1902 H 0.18458 0.55048 0.30792 0.0
H1903 H 0.19387 0.56839 0.28125 0.0
H1904 H 0.72008 0.59065 0.37458 0.0
H1905 H 0.74802 0.59429 0.39932 0.0
H1906 H 0.66248 0.586 0.42457 0.0
H1907 H 0.63459 0.5825 0.40024 0.0
H1908 H 0.73577 0.63814 0.42684 0.0
H1909 H 0.72049 0.51385 0.43986 0.0
H1910 H 0.71791 0.52942 0.4204 0.0
H1911 H 0.6862 0.53331 0.43374 0.0
C1912 C 0.70727 0.58986 0.38542 0.0
C1913 C 0.67512 0.58619 0.38543 0.0
C1914 C 0.72323 0.59197 0.3995 0.0
C1915 C 0.70725 0.59016 0.41372 0.0
C1916 C 0.67521 0.58722 0.41371 0.0
H1917 H 0.72898 0.5728 0.51126 0.0
H1918 H 0.71149 0.58196 0.48466 0.0
C1919 C 0.65932 0.58527 0.39975 0.0
C1920 C 0.72355 0.59029 0.42876 0.0
H1921 H 0.73495 0.54586 0.46094 0.0
C1922 C 0.7361 0.61792 0.43426 0.0
C1923 C 0.72387 0.56383 0.43834 0.0
C1924 C 0.71165 0.53331 0.43278 0.0
C1925 C 0.74759 0.62013 0.44947 0.0
C1926 C 0.74667 0.59394 0.45927 0.0
C1927 C 0.73527 0.56604 0.45348 0.0
C1928 C 0.75641 0.59472 0.47576 0.0
C1929 C 0.75938 0.65068 0.45517 0.0
C1930 C 0.78723 0.60004 0.47971 0.0
C1931 C 0.7971 0.59529 0.495 0.0
C1932 C 0.7763 0.58497 0.50644 0.0
C1933 C 0.74522 0.58137 0.50267 0.0
C1934 C 0.73533 0.58632 0.48747 0.0
H1935 H 0.75257 0.66993 0.4474 0.0
H1936 H 0.75073 0.65543 0.4671 0.0
H1937 H 0.78485 0.65001 0.45559 0.0
H1938 H 0.80401 0.60591 0.47082 0.0
H1939 H 0.82133 0.59738 0.49761 0.0
H1940 H 0.15394 0.94639 0.62005 0.0
H1941 H 0.14551 0.97097 0.64549 0.0
H1942 H 0.22479 0.92384 0.66359 0.0
H1943 H 0.2326 0.89874 0.63865 0.0
H1944 H 0.1776 0.9181 0.68304 0.0
H1945 H 0.18952 0.04121 0.66647 0.0
H1946 H 0.16081 0.02018 0.65601 0.0
H1947 H 0.20068 0.01042 0.6536 0.0
C1948 C 0.16964 0.94152 0.62945 0.0
C1949 C 0.19378 0.92038 0.62732 0.0
C1950 C 0.16492 0.95571 0.64398 0.0
C1951 C 0.18462 0.94947 0.65655 0.0
C1952 C 0.20909 0.92896 0.65421 0.0
H1953 H 0.23005 0.04158 0.74033 0.0
H1954 H 0.2211 0.02431 0.71391 0.0
C1955 C 0.21353 0.91457 0.63987 0.0
C1956 C 0.17961 0.96291 0.67238 0.0
H1957 H 0.17853 0.03038 0.69276 0.0
C1958 C 0.17757 0.94269 0.68514 0.0
C1959 C 0.17969 0.995 0.6752 0.0
C1960 C 0.18304 0.01805 0.66214 0.0
C1961 C 0.17683 0.95341 0.70056 0.0
C1962 C 0.17709 0.98551 0.70342 0.0
C1963 C 0.17805 1.00581 0.69063 0.0
C1964 C 0.18001 0.9983 0.7195 0.0
C1965 C 0.17757 0.93009 0.71361 0.0
C1966 C 0.15932 0.99049 0.73157 0.0
C1967 C 0.16485 0.99983 0.74695 0.0
C1968 C 0.19099 0.01746 0.75051 0.0
C1969 C 0.21024 0.02713 0.73817 0.0
C1970 C 0.20495 0.01753 0.72294 0.0
H1971 H 0.18465 0.90697 0.70945 0.0
H1972 H 0.19366 0.93734 0.72286 0.0
H1973 H 0.15425 0.9279 0.71879 0.0
H1974 H 0.13931 0.97652 0.7292 0.0
H1975 H 0.14936 0.99224 0.75611 0.0
H1976 H 0.77619 0.41067 1.01197 0.0
H1977 H 0.79314 0.39969 0.98519 0.0
H1978 H 0.72362 0.46101 0.96761 0.0
H1979 H 0.70651 0.47164 0.99417 0.0
H1980 H 0.73103 0.40746 0.94956 0.0
H1981 H 0.8418 0.46672 0.96127 0.0
H1982 H 0.83268 0.43501 0.97397 0.0
H1983 H 0.80928 0.469 0.97433 0.0
C1984 C 0.76418 0.42119 1.00234 0.0
C1985 C 0.74034 0.44226 1.00509 0.0
C1986 C 0.77398 0.41513 0.98709 0.0
C1987 C 0.75995 0.42997 0.97443 0.0
C1988 C 0.73485 0.44943 0.97718 0.0
H1989 H 0.8395 0.48193 0.88686 0.0
H1990 H 0.81375 0.47862 0.91219 0.0
C1991 C 0.72519 0.45556 0.99235 0.0
C1992 C 0.77263 0.42742 0.95843 0.0
H1993 H 0.8347 0.44739 0.93611 0.0
C1994 C 0.7538 0.41592 0.94658 0.0
C1995 C 0.80207 0.43909 0.95457 0.0
C1996 C 0.82262 0.45341 0.96664 0.0
C1997 C 0.76353 0.41603 0.93095 0.0
C1998 C 0.79312 0.42749 0.9271 0.0
C1999 C 0.81205 0.43854 0.93903 0.0
C2000 C 0.80471 0.42969 0.91081 0.0
C2001 C 0.7416 0.40496 0.91867 0.0
C2002 C 0.80743 0.40349 0.90133 0.0
C2003 C 0.82153 0.40558 0.88663 0.0
C2004 C 0.83355 0.43376 0.88139 0.0
C2005 C 0.83008 0.46002 0.89065 0.0
C2006 C 0.81557 0.45808 0.90514 0.0
H2007 H 0.71744 0.40489 0.92294 0.0
H2008 H 0.74305 0.41956 0.90807 0.0
H2009 H 0.74766 0.38105 0.9154 0.0
H2010 H 0.79994 0.3812 0.90555 0.0
H2011 H 0.82461 0.38493 0.87979 0.0
H2012 H 0.34997 0.95671 0.24371 0.0
H2013 H 0.35857 0.97523 0.21693 0.0
H2014 H 0.31919 0.06286 0.22931 0.0
H2015 H 0.31075 0.04447 0.2559 0.0
H2016 H 0.311 0.99459 0.19717 0.0
H2017 H 0.39588 0.08809 0.20482 0.0
H2018 H 0.38943 0.0586 0.21933 0.0
H2019 H 0.36389 0.09101 0.21801 0.0
C2020 C 0.34428 0.98027 0.24079 0.0
C2021 C 0.33024 0.99942 0.25188 0.0
C2022 C 0.34887 0.99072 0.22549 0.0
C2023 C 0.33984 0.02056 0.22115 0.0
C2024 C 0.32696 0.04001 0.23243 0.0
H2025 H 0.30612 0.13723 0.14385 0.0
H2026 H 0.31329 0.11097 0.16861 0.0
C2027 C 0.32218 0.02954 0.24763 0.0
C2028 C 0.34122 0.0308 0.20464 0.0
H2029 H 0.36617 0.08974 0.18142 0.0
C2030 C 0.3235 0.01507 0.19361 0.0
C2031 C 0.35747 0.05754 0.20003 0.0
C2032 C 0.37798 0.07463 0.21114 0.0
C2033 C 0.32022 0.02636 0.17835 0.0
C2034 C 0.33554 0.05384 0.17392 0.0
C2035 C 0.35428 0.06878 0.1848 0.0
C2036 C 0.33075 0.0689 0.15853 0.0
C2037 C 0.29913 0.00964 0.16737 0.0
C2038 C 0.33814 0.05404 0.14449 0.0
C2039 C 0.33381 0.06904 0.13017 0.0
C2040 C 0.3224 0.0993 0.12966 0.0
C2041 C 0.31512 0.11401 0.14376 0.0
C2042 C 0.31922 0.09901 0.15798 0.0
H2043 H 0.28401 0.99295 0.17358 0.0
H2044 H 0.28449 0.02614 0.16091 0.0
H2045 H 0.31314 0.9967 0.15879 0.0
H2046 H 0.34763 0.03104 0.1446 0.0
H2047 H 0.33977 0.05709 0.11955 0.0
H2048 H 0.20583 0.47332 0.53169 0.0
H2049 H 0.22178 0.46262 0.55838 0.0
H2050 H 0.28988 0.39889 0.54132 0.0
H2051 H 0.2741 0.40979 0.51446 0.0
H2052 H 0.22859 0.40675 0.57677 0.0
H2053 H 0.33838 0.46802 0.56443 0.0
H2054 H 0.30543 0.47085 0.55189 0.0
H2055 H 0.32936 0.43724 0.55132 0.0
C2056 C 0.22388 0.45664 0.53367 0.0
C2057 C 0.23905 0.44262 0.52106 0.0
C2058 C 0.23286 0.4505 0.5489 0.0
C2059 C 0.25728 0.43036 0.55177 0.0
C2060 C 0.27118 0.41479 0.53928 0.0
H2061 H 0.37031 0.39195 0.63074 0.0
H2062 H 0.34366 0.39229 0.60594 0.0
C2063 C 0.26207 0.42082 0.52399 0.0
C2064 C 0.26978 0.42779 0.56767 0.0
H2065 H 0.33298 0.44511 0.58917 0.0
C2066 C 0.25143 0.41502 0.57953 0.0
C2067 C 0.29932 0.43922 0.57122 0.0
C2068 C 0.31925 0.45488 0.55911 0.0
C2069 C 0.26235 0.4124 0.59483 0.0
C2070 C 0.29218 0.42327 0.5983 0.0
C2071 C 0.31022 0.43654 0.58645 0.0
C2072 C 0.30585 0.42044 0.61398 0.0
C2073 C 0.24221 0.39747 0.60705 0.0
C2074 C 0.29316 0.43579 0.62686 0.0
C2075 C 0.30835 0.43551 0.64118 0.0
C2076 C 0.3366 0.42015 0.64275 0.0
C2077 C 0.34864 0.40407 0.62994 0.0
C2078 C 0.33344 0.40423 0.61573 0.0
H2079 H 0.22317 0.3841 0.6018 0.0
H2080 H 0.25584 0.38193 0.61459 0.0
H2081 H 0.23195 0.41559 0.61451 0.0
H2082 H 0.27218 0.44893 0.6257 0.0
H2083 H 0.29863 0.44832 0.6508 0.0
H2084 H 0.81476 0.05235 0.39965 0.0
H2085 H 0.81378 0.02714 0.37418 0.0
H2086 H 0.87825 0.09401 0.35625 0.0
H2087 H 0.87917 0.11949 0.38157 0.0
H2088 H 0.79677 0.05983 0.34535 0.0
H2089 H 0.91334 1.00792 0.34261 0.0
H2090 H 0.89451 0.01755 0.36074 0.0
H2091 H 0.91148 0.04728 0.34896 0.0
C2092 C 0.82917 0.06134 0.39037 0.0
C2093 C 0.84717 0.08785 0.39264 0.0
C2094 C 0.82849 0.04699 0.37582 0.0
C2095 C 0.8462 0.05854 0.36339 0.0
C2096 C 0.86477 0.08448 0.36575 0.0
H2097 H 0.85829 0.02358 0.2638 0.0
H2098 H 0.86825 0.0405 0.29062 0.0
C2099 C 0.86517 0.09906 0.38021 0.0
C2100 C 0.84365 0.04497 0.34766 0.0
H2101 H 0.88444 1.0077 0.31932 0.0
C2102 C 0.81584 0.04823 0.33969 0.0
C2103 C 0.86867 0.0301 0.34028 0.0
C2104 C 0.89868 0.02521 0.34857 0.0
C2105 C 0.81252 0.03749 0.32442 0.0
C2106 C 0.83754 0.02257 0.31703 0.0
C2107 C 0.86536 0.01923 0.325 0.0
C2108 C 0.83473 0.00984 0.30112 0.0
C2109 C 0.78245 0.04281 0.31619 0.0
C2110 C 0.81367 0.98614 0.29828 0.0
C2111 C 0.80805 0.97654 0.28311 0.0
C2112 C 0.8235 0.99033 0.27045 0.0
C2113 C 0.84614 0.0126 0.27335 0.0
C2114 C 0.85171 0.02232 0.28862 0.0
H2115 H 0.76848 0.06091 0.32195 0.0
H2116 H 0.78645 0.04959 0.30388 0.0
H2117 H 0.76888 0.02117 0.3163 0.0
H2118 H 0.8008 0.97576 0.30777 0.0
H2119 H 0.79077 0.95901 0.2812 0.0
H2120 H 0.2955 0.53103 0.03225 0.0
H2121 H 0.27908 0.54448 0.05841 0.0
H2122 H 0.23704 0.62731 0.04085 0.0
H2123 H 0.25143 0.61267 0.01428 0.0
H2124 H 0.28722 0.58898 0.07831 0.0
H2125 H 0.16449 0.58737 0.06101 0.0
H2126 H 0.19485 0.57546 0.04806 0.0
H2127 H 0.18708 0.61573 0.05092 0.0
C2128 C 0.28244 0.55198 0.03387 0.0
C2129 C 0.27379 0.57019 0.02106 0.0
C2130 C 0.27345 0.55988 0.04892 0.0
C2131 C 0.25602 0.58646 0.0516 0.0
C2132 C 0.2496 0.60614 0.03901 0.0
H2133 H 0.20266 0.62523 0.14962 0.0
H2134 H 0.2298 0.62887 0.12446 0.0
C2135 C 0.25816 0.59794 0.02384 0.0
C2136 C 0.24295 0.59193 0.06737 0.0
H2137 H 0.17493 0.59811 0.08708 0.0
C2138 C 0.26266 0.59116 0.08026 0.0
C2139 C 0.21086 0.59434 0.06992 0.0
C2140 C 0.18804 0.59298 0.05678 0.0
C2141 C 0.25114 0.59165 0.09559 0.0
C2142 C 0.21904 0.5941 0.09809 0.0
C2143 C 0.19953 0.59623 0.08519 0.0
C2144 C 0.20448 0.5916 0.11378 0.0
C2145 C 0.27335 0.58792 0.10885 0.0
C2146 C 0.18103 0.56983 0.11615 0.0
C2147 C 0.16497 0.56853 0.1302 0.0
C2148 C 0.17233 0.58855 0.14239 0.0
C2149 C 0.19659 0.60958 0.14037 0.0
C2150 C 0.21225 0.61145 0.12605 0.0
H2151 H 0.29576 0.57846 0.10487 0.0
H2152 H 0.27776 0.61073 0.11413 0.0
H2153 H 0.26377 0.57247 0.11798 0.0
H2154 H 0.17477 0.55401 0.10699 0.0
H2155 H 0.14674 0.55169 0.13153 0.0
H2156 H 0.74517 0.92181 0.8859 0.0
H2157 H 0.73409 0.94473 0.86076 0.0
H2158 H 0.63866 0.95395 0.87385 0.0
H2159 H 0.64994 0.9318 0.89951 0.0
H2160 H 0.6996 0.92394 0.83857 0.0
H2161 H 0.65455 0.03801 0.85628 0.0
H2162 H 0.67291 0.01225 0.8698 0.0
H2163 H 0.63355 1.00609 0.86434 0.0
C2164 C 0.7218 0.92887 0.88355 0.0
C2165 C 0.69842 0.92485 0.89476 0.0
C2166 C 0.71548 0.94201 0.8691 0.0
C2167 C 0.68556 0.95133 0.86533 0.0
C2168 C 0.66206 0.94755 0.87652 0.0
H2169 H 0.66169 0.98733 0.76477 0.0
H2170 H 0.65062 0.96656 0.79086 0.0
C2171 C 0.66849 0.93467 0.89117 0.0
C2172 C 0.67941 0.96369 0.84943 0.0
H2173 H 0.65391 0.02674 0.82947 0.0
C2174 C 0.68943 0.94637 0.83659 0.0
C2175 C 0.6663 0.99304 0.8468 0.0
C2176 C 0.65646 0.01359 0.86002 0.0
C2177 C 0.68786 0.9579 0.82134 0.0
C2178 C 0.67461 0.98719 0.81868 0.0
C2179 C 0.66364 1.00412 0.83146 0.0
C2180 C 0.67558 1.00217 0.80305 0.0
C2181 C 0.70212 0.93926 0.80838 0.0
C2182 C 0.69111 0.03028 0.80126 0.0
C2183 C 0.69671 0.04244 0.78649 0.0
C2184 C 0.68714 0.02669 0.7731 0.0
C2185 C 0.66936 0.9999 0.77488 0.0
C2186 C 0.66345 0.98781 0.78977 0.0
H2187 H 0.71754 0.92098 0.81288 0.0
H2188 H 0.68368 0.92794 0.80164 0.0
H2189 H 0.71564 0.95418 0.80035 0.0
H2190 H 0.70048 0.04201 0.81126 0.0
H2191 H 0.71017 0.06336 0.78547 0.0
H2192 H 0.59827 0.35441 0.08399 0.0
H2193 H 0.54845 0.32834 0.08451 0.0
H2194 H 0.5935 0.24183 0.09333 0.0
H2195 H 0.64334 0.26775 0.09321 0.0
H2196 H 0.52587 0.28307 0.06621 0.0
H2197 H 0.52916 0.24175 0.12727 0.0
H2198 H 0.55604 0.26981 0.11973 0.0
H2199 H 0.56146 0.22955 0.1158 0.0
C2200 C 0.59765 0.32987 0.08617 0.0
C2201 C 0.62496 0.31331 0.08872 0.0
C2202 C 0.56907 0.31496 0.08643 0.0
C2203 C 0.56705 0.28315 0.08922 0.0
C2204 C 0.59428 0.26649 0.09157 0.0
H2205 H 0.40878 0.16072 0.07632 0.0
H2206 H 0.46044 0.18362 0.0762 0.0
C2207 C 0.62285 0.2814 0.09143 0.0
C2208 C 0.53652 0.26741 0.08934 0.0
H2209 H 0.48824 0.22316 0.11174 0.0
C2210 C 0.51771 0.26996 0.07617 0.0
C2211 C 0.52565 0.25043 0.10238 0.0
C2212 C 0.54397 0.24791 0.11715 0.0
C2213 C 0.48862 0.25582 0.07565 0.0
C2214 C 0.47802 0.23865 0.08859 0.0
C2215 C 0.49663 0.23612 0.10177 0.0
C2216 C 0.44699 0.22436 0.08886 0.0
C2217 C 0.469 0.25965 0.0614 0.0
C2218 C 0.42246 0.23959 0.09612 0.0
C2219 C 0.39301 0.22659 0.09627 0.0
C2220 C 0.38741 0.19803 0.08911 0.0
C2221 C 0.41218 0.18275 0.08189 0.0
C2222 C 0.44172 0.19577 0.08182 0.0
H2223 H 0.48035 0.27407 0.05234 0.0
H2224 H 0.46382 0.23674 0.05638 0.0
H2225 H 0.44676 0.27041 0.06469 0.0
H2226 H 0.42605 0.26174 0.10156 0.0
H2227 H 0.37453 0.23921 0.10181 0.0
H2228 H 0.60346 0.66307 0.33655 0.0
H2229 H 0.57828 0.71334 0.33651 0.0
H2230 H 0.48969 0.66912 0.33474 0.0
H2231 H 0.51458 0.61864 0.33474 0.0
H2232 H 0.53639 0.73825 0.31362 0.0
H2233 H 0.48376 0.72878 0.37255 0.0
H2234 H 0.5151 0.70455 0.36623 0.0
H2235 H 0.47672 0.69697 0.35974 0.0
C2236 C 0.5786 0.66392 0.3362 0.0
C2237 C 0.56109 0.63665 0.3357 0.0
C2238 C 0.56426 0.69275 0.33613 0.0
C2239 C 0.5321 0.69501 0.33578 0.0
C2240 C 0.51453 0.66792 0.33521 0.0
H2241 H 0.41334 0.85557 0.32259 0.0
H2242 H 0.4357 0.80368 0.32212 0.0
C2243 C 0.52885 0.63906 0.33513 0.0
C2244 C 0.51701 0.72573 0.33587 0.0
H2245 H 0.47046 0.77252 0.35756 0.0
C2246 C 0.5219 0.74569 0.3232 0.0
C2247 C 0.49832 0.73554 0.34844 0.0
C2248 C 0.49325 0.71553 0.3626 0.0
C2249 C 0.5083 0.77503 0.32272 0.0
C2250 C 0.48946 0.78468 0.33523 0.0
C2251 C 0.48469 0.76487 0.34793 0.0
C2252 C 0.47565 0.81588 0.33557 0.0
C2253 C 0.51434 0.79586 0.30898 0.0
C2254 C 0.49064 0.83978 0.34337 0.0
C2255 C 0.4779 0.86931 0.34374 0.0
C2256 C 0.44991 0.87563 0.33625 0.0
C2257 C 0.43495 0.85156 0.32842 0.0
C2258 C 0.44765 0.8219 0.32815 0.0
H2259 H 0.52944 0.78494 0.30012 0.0
H2260 H 0.49225 0.80219 0.30346 0.0
H2261 H 0.52534 0.81747 0.31299 0.0
H2262 H 0.51233 0.8356 0.3491 0.0
H2263 H 0.49026 0.88729 0.34975 0.0
H2264 H 0.11486 0.83205 0.56462 0.0
H2265 H 0.06444 0.80688 0.56479 0.0
H2266 H 0.08141 0.77172 0.61084 0.0
H2267 H 0.13189 0.79664 0.61079 0.0
H2268 H 0.05159 0.74044 0.57011 0.0
H2269 H 0.9964 0.81815 0.61324 0.0
H2270 H 0.03024 0.829 0.60223 0.0
H2271 H 0.03344 0.80296 0.61836 0.0
C2272 C 0.10784 0.81913 0.57484 0.0
C2273 C 0.12742 0.81655 0.58774 0.0
C2274 C 0.07907 0.80464 0.57488 0.0
C2275 C 0.06914 0.78761 0.58786 0.0
C2276 C 0.08854 0.78499 0.60075 0.0
H2277 H 0.91269 0.65944 0.59116 0.0
H2278 H 0.96445 0.68183 0.59139 0.0
C2279 C 0.11741 0.79924 0.60069 0.0
C2280 C 0.03849 0.77254 0.58793 0.0
H2281 H 0.9677 0.77508 0.60522 0.0
C2282 C 0.03317 0.74795 0.57776 0.0
C2283 C 0.0145 0.78262 0.59782 0.0
C2284 C 0.01865 0.80977 0.60848 0.0
C2285 C 1.00444 0.73307 0.57724 0.0
C2286 C 0.98052 0.74274 0.58738 0.0
C2287 C 0.98597 0.76746 0.59751 0.0
C2288 C 0.94926 0.7286 0.58729 0.0
C2289 C 0.99988 0.70773 0.56554 0.0
C2290 C 0.92331 0.74741 0.58546 0.0
C2291 C 0.89377 0.73477 0.58576 0.0
C2292 C 0.88942 0.70293 0.58773 0.0
C2293 C 0.91534 0.684 0.58947 0.0
C2294 C 0.94496 0.69678 0.58948 0.0
H2295 H 0.01692 0.70921 0.55588 0.0
H2296 H 1.00297 0.68515 0.57137 0.0
H2297 H 0.97644 0.70848 0.56053 0.0
H2298 H 0.9259 0.77198 0.58375 0.0
H2299 H 0.8743 0.74998 0.58425 0.0
H2300 H 0.10498 0.15954 0.82669 0.0
H2301 H 0.08145 0.21046 0.82721 0.0
H2302 H 0.99884 0.17168 0.84714 0.0
H2303 H 0.02215 0.12048 0.84674 0.0
H2304 H 0.02592 0.22961 0.81252 0.0
H2305 H 0.02071 0.24352 0.87669 0.0
H2306 H 0.04501 0.21538 0.86733 0.0
H2307 H 1.0045 0.20837 0.86943 0.0
C2308 C 0.08187 0.16171 0.8313 0.0
C2309 C 0.06558 0.13574 0.83676 0.0
C2310 C 0.06843 0.19092 0.83153 0.0
C2311 C 0.03854 0.19494 0.83738 0.0
C2312 C 0.02213 0.16917 0.84281 0.0
H2313 H 0.91518 0.35109 0.84436 0.0
H2314 H 0.93913 0.30023 0.84472 0.0
C2315 C 0.03548 0.13987 0.8425 0.0
C2316 C 0.0244 0.22603 0.83749 0.0
H2317 H 0.99602 0.28174 0.86157 0.0
C2318 C 0.0195 0.24107 0.82324 0.0
C2319 C 0.01606 0.24094 0.85149 0.0
C2320 C 0.02202 0.22643 0.86713 0.0
C2321 C 1.00602 0.27042 0.82263 0.0
C2322 C 0.99763 0.28526 0.83662 0.0
C2323 C 1.0025 0.27026 0.85086 0.0
C2324 C 0.98353 0.31631 0.83667 0.0
C2325 C 1.00024 0.28516 0.80702 0.0
C2326 C 1.00073 0.34228 0.83224 0.0
C2327 C 0.9872 0.37149 0.83214 0.0
C2328 C 0.95612 0.37523 0.83636 0.0
C2329 C 0.9391 0.3491 0.84094 0.0
C2330 C 0.95274 0.31999 0.8412 0.0
H2331 H 1.00297 0.26856 0.79732 0.0
H2332 H 0.97672 0.295 0.80662 0.0
H2333 H 0.01682 0.30428 0.80517 0.0
H2334 H 0.02463 0.33993 0.82884 0.0
H2335 H 1.00098 0.39103 0.8285 0.0
H2336 H 0.64019 0.76688 0.93743 0.0
H2337 H 0.58865 0.74417 0.93785 0.0
H2338 H 0.54871 0.83476 0.93982 0.0
H2339 H 0.60042 0.85773 0.93969 0.0
H2340 H 0.53918 0.75553 0.96193 0.0
H2341 H 0.50804 0.78807 0.90142 0.0
H2342 H 0.54745 0.78606 0.90782 0.0
H2343 H 0.5237 0.81775 0.9136 0.0
C2344 C 0.62045 0.78201 0.93787 0.0
C2345 C 0.62436 0.81412 0.93842 0.0
C2346 C 0.59102 0.76897 0.93818 0.0
C2347 C 0.56487 0.78776 0.93872 0.0
C2348 C 0.56862 0.81985 0.93929 0.0
H2349 H 0.36929 0.74429 0.93408 0.0
H2350 H 0.41934 0.76979 0.93453 0.0
C2351 C 0.59813 0.83293 0.93927 0.0
C2352 C 0.53375 0.77359 0.93881 0.0
H2353 H 0.4703 0.76227 0.91634 0.0
C2354 C 0.52406 0.757 0.95199 0.0
C2355 C 0.51408 0.77565 0.92584 0.0
C2356 C 0.52373 0.79266 0.91128 0.0
C2357 C 0.49509 0.74259 0.9526 0.0
C2358 C 0.47558 0.74411 0.93949 0.0
C2359 C 0.48523 0.76099 0.92636 0.0
C2360 C 0.44515 0.7283 0.93914 0.0
C2361 C 0.48543 0.72644 0.9674 0.0
C2362 C 0.4429 0.69632 0.94131 0.0
C2363 C 0.41425 0.68159 0.94108 0.0
C2364 C 0.38712 0.69846 0.93852 0.0
C2365 C 0.38956 0.73044 0.93606 0.0
C2366 C 0.41823 0.74513 0.93633 0.0
H2367 H 0.49857 0.73492 0.97756 0.0
H2368 H 0.46053 0.72966 0.96978 0.0
H2369 H 0.48995 0.70144 0.96625 0.0
H2370 H 0.46337 0.68267 0.94312 0.0
H2371 H 0.41343 0.65696 0.94296 0.0
H2372 H 0.53273 0.12775 0.67326 0.0
H2373 H 0.50828 0.17854 0.67328 0.0
H2374 H 0.57587 0.21135 0.70568 0.0
H2375 H 0.60058 0.16106 0.70564 0.0
H2376 H 0.48367 0.21189 0.69889 0.0
H2377 H 0.57977 0.27513 0.6704 0.0
H2378 H 0.57683 0.2337 0.6701 0.0
H2379 H 0.59072 0.25298 0.68712 0.0
C2380 C 0.54252 0.14583 0.68031 0.0
C2381 C 0.56884 0.14039 0.68931 0.0
C2382 C 0.52846 0.17479 0.68034 0.0
C2383 C 0.54061 0.19882 0.68927 0.0
C2384 C 0.56654 0.19332 0.69844 0.0
H2385 H 0.49505 0.39077 0.70516 0.0
H2386 H 0.5182 0.33946 0.70511 0.0
C2387 C 0.58055 0.16446 0.69844 0.0
C2388 C 0.52595 0.22958 0.68927 0.0
H2389 H 0.5395 0.30532 0.68105 0.0
C2390 C 0.49576 0.23233 0.69491 0.0
C2391 C 0.54189 0.25618 0.68415 0.0
C2392 C 0.574 0.25444 0.67747 0.0
C2393 C 0.48126 0.26111 0.69589 0.0
C2394 C 0.4972 0.28776 0.69075 0.0
C2395 C 0.52736 0.28493 0.68505 0.0
C2396 C 0.48289 0.31875 0.69095 0.0
C2397 C 0.44932 0.26273 0.70281 0.0
C2398 C 0.45565 0.32428 0.68281 0.0
C2399 C 0.44228 0.35345 0.68289 0.0
C2400 C 0.45611 0.37793 0.69094 0.0
C2401 C 0.48376 0.37249 0.69885 0.0
C2402 C 0.49701 0.34316 0.69885 0.0
H2403 H 0.44429 0.24251 0.71035 0.0
H2404 H 0.44619 0.28396 0.70978 0.0
H2405 H 0.43226 0.26289 0.69329 0.0
H2406 H 0.44481 0.30608 0.67625 0.0
H2407 H 0.42119 0.3568 0.6765 0.0
H2408 H 0.10285 0.35865 0.438 0.0
H2409 H 0.05233 0.33381 0.43864 0.0
H2410 H 0.09563 0.24472 0.4381 0.0
H2411 H 0.14622 0.26919 0.43749 0.0
H2412 H 0.02674 0.2902 0.41692 0.0
H2413 H 0.03716 0.24172 0.47651 0.0
H2414 H 0.06157 0.27238 0.46937 0.0
H2415 H 0.0686 0.23338 0.46353 0.0
C2416 C 0.10171 0.33376 0.43801 0.0
C2417 C 0.12874 0.31597 0.43774 0.0
C2418 C 0.07277 0.31961 0.43836 0.0
C2419 C 0.07023 0.28743 0.43864 0.0
C2420 C 0.09707 0.26959 0.43813 0.0
H2421 H 0.91683 0.15864 0.4436 0.0
H2422 H 0.96749 0.18311 0.44268 0.0
C2423 C 0.12601 0.28368 0.43766 0.0
C2424 C 0.03951 0.27248 0.43934 0.0
H2425 H 0.99364 0.22656 0.46204 0.0
C2426 C 0.01942 0.27637 0.4268 0.0
C2427 C 0.03008 0.25437 0.45223 0.0
C2428 C 0.0503 0.25032 0.46626 0.0
C2429 C 0.99036 0.2622 0.42667 0.0
C2430 C 0.98083 0.24419 0.43959 0.0
C2431 C 1.00095 0.2403 0.45214 0.0
C2432 C 0.94997 0.22943 0.44037 0.0
C2433 C 0.97043 0.26605 0.41251 0.0
C2434 C 0.92321 0.24734 0.43968 0.0
C2435 C 0.8942 0.23346 0.44016 0.0
C2436 C 0.89121 0.20127 0.44148 0.0
C2437 C 0.91812 0.18343 0.44252 0.0
C2438 C 0.94716 0.19739 0.44201 0.0
H2439 H 0.98414 0.27298 0.40212 0.0
H2440 H 0.95795 0.24443 0.40983 0.0
H2441 H 0.9532 0.28432 0.41476 0.0
H2442 H 0.92474 0.27216 0.4388 0.0
H2443 H 0.87412 0.24808 0.43948 0.0
H2444 H 0.09681 0.66185 0.20643 0.0
H2445 H 0.07325 0.71282 0.20723 0.0
H2446 H 1.0027 0.68223 0.1759 0.0
H2447 H 0.02569 0.63099 0.17526 0.0
H2448 H 0.06277 0.75448 0.18389 0.0
H2449 H 0.95203 0.71901 0.21079 0.0
H2450 H 0.98504 0.69396 0.21011 0.0
H2451 H 0.96113 0.69853 0.19328 0.0
C2452 C 0.07623 0.66585 0.19972 0.0
C2453 C 0.06311 0.64214 0.19083 0.0
C2454 C 0.06279 0.69508 0.2002 0.0
C2455 C 0.03589 0.70128 0.19185 0.0
C2456 C 0.02301 0.67784 0.18276 0.0
H2457 H 0.91788 0.85885 0.17773 0.0
H2458 H 0.94333 0.8089 0.1778 0.0
C2459 C 0.03634 0.64855 0.18233 0.0
C2460 C 0.02165 0.7324 0.19243 0.0
H2461 H 0.95494 0.77019 0.20112 0.0
C2462 C 0.03924 0.75797 0.18775 0.0
C2463 C 0.99096 0.73696 0.19747 0.0
C2464 C 0.97126 0.71072 0.20334 0.0
C2465 C 0.02676 0.78781 0.18753 0.0
C2466 C 0.99595 0.79236 0.19246 0.0
C2467 C 0.97849 0.76678 0.1973 0.0
C2468 C 0.98104 0.82323 0.19237 0.0
C2469 C 0.04644 0.81397 0.18156 0.0
C2470 C 0.99352 0.84806 0.20065 0.0
C2471 C 0.97914 0.87691 0.20051 0.0
C2472 C 0.95162 0.8814 0.1923 0.0
C2473 C 0.93898 0.85633 0.18421 0.0
C2474 C 0.95353 0.82766 0.18424 0.0
H2475 H 0.06579 0.80556 0.17423 0.0
H2476 H 0.0327 0.8305 0.17463 0.0
H2477 H 0.05641 0.82643 0.19157 0.0
H2478 H 0.01424 0.84509 0.20738 0.0
H2479 H 0.98937 0.89555 0.20701 0.0
loop_
_geom_bond_atom_site_label_1
_geom_bond_atom_site_label_2
_geom_bond_distance
_geom_bond_site_symmetry_2
_ccdc_geom_bond_type
O0 Tb1 2.292 . S
O0 C3 1.255 . S
Tb1 O0 2.292 . S
Tb1 O17 2.326 . S
Tb1 O19 2.500 . S
Tb1 O20 2.473 . S
Tb1 O23 2.324 . S
Eu2 O6 2.292 . S
Eu2 C7 2.852 . S
Eu2 O18 2.324 . S
Eu2 O22 2.326 . S
Eu2 O24 2.500 . S
Eu2 O25 2.473 . S
C3 O0 1.255 . S
C3 O4 1.247 . S
O4 C3 1.247 . S
C5 O17 1.242 . S
C5 O18 1.258 . S
O6 Eu2 2.292 . S
O6 C8 1.255 . S
C7 Eu2 2.852 . S
C7 C11 1.503 . S
C7 O24 1.273 . S
C7 O25 1.257 . S
C8 O6 1.255 . S
C8 O9 1.247 . S
O9 C8 1.247 . S
C10 O22 1.242 . S
C10 O23 1.258 . S
C11 C7 1.503 . S
C11 C12 1.379 . S
C11 C16 1.392 . S
C12 C11 1.379 . S
C12 C13 1.404 . S
C12 H26 0.929 . S
C13 C12 1.404 . S
C13 C14 1.389 . S
C14 C13 1.389 . S
C14 C15 1.399 . S
C14 H27 0.931 . S
C15 C14 1.399 . S
C15 C16 1.390 . S
C16 C11 1.392 . S
C16 C15 1.390 . S
C16 H28 0.929 . S
O17 Tb1 2.326 . S
O17 C5 1.242 . S
O18 Eu2 2.324 . S
O18 C5 1.258 . S
O19 Tb1 2.500 . S
O19 C21 1.273 . S
O20 Tb1 2.473 . S
O20 C21 1.257 . S
C21 O19 1.273 . S
C21 O20 1.257 . S
O22 Eu2 2.326 . S
O22 C10 1.242 . S
O23 Tb1 2.324 . S
O23 C10 1.258 . S
O24 Eu2 2.500 . S
O24 C7 1.273 . S
O25 Eu2 2.473 . S
O25 C7 1.257 . S
H26 C12 0.929 . S
H27 C14 0.931 . S
H28 C16 0.929 . S
O29 Tb30 2.292 . S
O29 C32 1.255 . S
Tb30 O29 2.292 . S
Tb30 O46 2.326 . S
Tb30 O48 2.500 . S
Tb30 O49 2.473 . S
Tb30 O52 2.324 . S
Eu31 O35 2.292 . S
Eu31 C36 2.852 . S
Eu31 O47 2.324 . S
Eu31 O51 2.326 . S
Eu31 O53 2.500 . S
Eu31 O54 2.473 . S
C32 O29 1.255 . S
C32 O33 1.247 . S
O33 C32 1.247 . S
C34 O46 1.242 . S
C34 O47 1.258 . S
O35 Eu31 2.292 . S
O35 C37 1.255 . S
C36 Eu31 2.852 . S
C36 C40 1.503 . S
C36 O53 1.273 . S
C36 O54 1.257 . S
C37 O35 1.255 . S
C37 O38 1.247 . S
O38 C37 1.247 . S
C39 O51 1.242 . S
C39 O52 1.258 . S
C40 C36 1.503 . S
C40 C41 1.379 . S
C40 C45 1.392 . S
C41 C40 1.379 . S
C41 C42 1.404 . S
C41 H55 0.929 . S
C42 C41 1.404 . S
C42 C43 1.389 . S
C43 C42 1.389 . S
C43 C44 1.399 . S
C43 H56 0.931 . S
C44 C43 1.399 . S
C44 C45 1.390 . S
C45 C40 1.392 . S
C45 C44 1.390 . S
C45 H57 0.929 . S
O46 Tb30 2.326 . S
O46 C34 1.242 . S
O47 Eu31 2.324 . S
O47 C34 1.258 . S
O48 Tb30 2.500 . S
O48 C50 1.273 . S
O49 Tb30 2.473 . S
O49 C50 1.257 . S
C50 O48 1.273 . S
C50 O49 1.257 . S
O51 Eu31 2.326 . S
O51 C39 1.242 . S
O52 Tb30 2.324 . S
O52 C39 1.258 . S
O53 Eu31 2.500 . S
O53 C36 1.273 . S
O54 Eu31 2.473 . S
O54 C36 1.257 . S
H55 C41 0.929 . S
H56 C43 0.931 . S
H57 C45 0.929 . S
O58 Tb59 2.292 . S
O58 C61 1.255 . S
Tb59 O58 2.292 . S
Tb59 O75 2.326 . S
Tb59 O77 2.500 . S
Tb59 O78 2.473 . S
Tb59 O81 2.324 . S
Eu60 O64 2.292 . S
Eu60 C65 2.852 . S
Eu60 O76 2.324 . S
Eu60 O80 2.326 . S
Eu60 O82 2.500 . S
Eu60 O83 2.473 . S
C61 O58 1.255 . S
C61 O62 1.247 . S
O62 C61 1.247 . S
C63 O75 1.242 . S
C63 O76 1.258 . S
O64 Eu60 2.292 . S
O64 C66 1.255 . S
C65 Eu60 2.852 . S
C65 C69 1.503 . S
C65 O82 1.273 . S
C65 O83 1.257 . S
C66 O64 1.255 . S
C66 O67 1.247 . S
O67 C66 1.247 . S
C68 O80 1.242 . S
C68 O81 1.258 . S
C69 C65 1.503 . S
C69 C70 1.379 . S
C69 C74 1.392 . S
C70 C69 1.379 . S
C70 C71 1.404 . S
C70 H84 0.929 . S
C71 C70 1.404 . S
C71 C72 1.389 . S
C72 C71 1.389 . S
C72 C73 1.399 . S
C72 H85 0.931 . S
C73 C72 1.399 . S
C73 C74 1.390 . S
C74 C69 1.392 . S
C74 C73 1.390 . S
C74 H86 0.929 . S
O75 Tb59 2.326 . S
O75 C63 1.242 . S
O76 Eu60 2.324 . S
O76 C63 1.258 . S
O77 Tb59 2.500 . S
O77 C79 1.273 . S
O78 Tb59 2.473 . S
O78 C79 1.257 . S
C79 O77 1.273 . S
C79 O78 1.257 . S
O80 Eu60 2.326 . S
O80 C68 1.242 . S
O81 Tb59 2.324 . S
O81 C68 1.258 . S
O82 Eu60 2.500 . S
O82 C65 1.273 . S
O83 Eu60 2.473 . S
O83 C65 1.257 . S
H84 C70 0.929 . S
H85 C72 0.931 . S
H86 C74 0.929 . S
O87 Tb88 2.292 . S
O87 C90 1.255 . S
Tb88 O87 2.292 . S
Tb88 O104 2.326 . S
Tb88 O106 2.500 . S
Tb88 O107 2.473 . S
Tb88 O110 2.324 . S
Eu89 O93 2.292 . S
Eu89 C94 2.852 . S
Eu89 O105 2.324 . S
Eu89 O109 2.326 . S
Eu89 O111 2.500 . S
Eu89 O112 2.473 . S
C90 O87 1.255 . S
C90 O91 1.247 . S
O91 C90 1.247 . S
C92 O104 1.242 . S
C92 O105 1.258 . S
O93 Eu89 2.292 . S
O93 C95 1.255 . S
C94 Eu89 2.852 . S
C94 C98 1.503 . S
C94 O111 1.273 . S
C94 O112 1.257 . S
C95 O93 1.255 . S
C95 O96 1.247 . S
O96 C95 1.247 . S
C97 O109 1.242 . S
C97 O110 1.258 . S
C98 C94 1.503 . S
C98 C99 1.379 . S
C98 C103 1.392 . S
C99 C98 1.379 . S
C99 C100 1.404 . S
C99 H113 0.929 . S
C100 C99 1.404 . S
C100 C101 1.389 . S
C101 C100 1.389 . S
C101 C102 1.399 . S
C101 H114 0.931 . S
C102 C101 1.399 . S
C102 C103 1.390 . S
C103 C98 1.392 . S
C103 C102 1.390 . S
C103 H115 0.929 . S
O104 Tb88 2.326 . S
O104 C92 1.242 . S
O105 Eu89 2.324 . S
O105 C92 1.258 . S
O106 Tb88 2.500 . S
O106 C108 1.273 . S
O107 Tb88 2.473 . S
O107 C108 1.257 . S
C108 O106 1.273 . S
C108 O107 1.257 . S
O109 Eu89 2.326 . S
O109 C97 1.242 . S
O110 Tb88 2.324 . S
O110 C97 1.258 . S
O111 Eu89 2.500 . S
O111 C94 1.273 . S
O112 Eu89 2.473 . S
O112 C94 1.257 . S
H113 C99 0.929 . S
H114 C101 0.931 . S
H115 C103 0.929 . S
O116 Tb117 2.292 . S
O116 C119 1.255 . S
Tb117 O116 2.292 . S
Tb117 O133 2.326 . S
Tb117 O135 2.500 . S
Tb117 O136 2.473 . S
Tb117 O139 2.324 . S
Eu118 O122 2.292 . S
Eu118 C123 2.852 . S
Eu118 O134 2.324 . S
Eu118 O138 2.326 . S
Eu118 O140 2.500 . S
Eu118 O141 2.473 . S
C119 O116 1.255 . S
C119 O120 1.247 . S
O120 C119 1.247 . S
C121 O133 1.242 . S
C121 O134 1.258 . S
O122 Eu118 2.292 . S
O122 C124 1.255 . S
C123 Eu118 2.852 . S
C123 C127 1.503 . S
C123 O140 1.273 . S
C123 O141 1.257 . S
C124 O122 1.255 . S
C124 O125 1.247 . S
O125 C124 1.247 . S
C126 O138 1.242 . S
C126 O139 1.258 . S
C127 C123 1.503 . S
C127 C128 1.379 . S
C127 C132 1.392 . S
C128 C127 1.379 . S
C128 C129 1.404 . S
C128 H142 0.929 . S
C129 C128 1.404 . S
C129 C130 1.389 . S
C130 C129 1.389 . S
C130 C131 1.399 . S
C130 H143 0.931 . S
C131 C130 1.399 . S
C131 C132 1.390 . S
C132 C127 1.392 . S
C132 C131 1.390 . S
C132 H144 0.929 . S
O133 Tb117 2.326 . S
O133 C121 1.242 . S
O134 Eu118 2.324 . S
O134 C121 1.258 . S
O135 Tb117 2.500 . S
O135 C137 1.273 . S
O136 Tb117 2.473 . S
O136 C137 1.257 . S
C137 O135 1.273 . S
C137 O136 1.257 . S
O138 Eu118 2.326 . S
O138 C126 1.242 . S
O139 Tb117 2.324 . S
O139 C126 1.258 . S
O140 Eu118 2.500 . S
O140 C123 1.273 . S
O141 Eu118 2.473 . S
O141 C123 1.257 . S
H142 C128 0.929 . S
H143 C130 0.931 . S
H144 C132 0.929 . S
O145 Tb146 2.292 . S
O145 C148 1.255 . S
Tb146 O145 2.292 . S
Tb146 O162 2.326 . S
Tb146 O164 2.500 . S
Tb146 O165 2.473 . S
Tb146 O168 2.324 . S
Eu147 O151 2.292 . S
Eu147 C152 2.852 . S
Eu147 O163 2.324 . S
Eu147 O167 2.326 . S
Eu147 O169 2.500 . S
Eu147 O170 2.473 . S
C148 O145 1.255 . S
C148 O149 1.247 . S
O149 C148 1.247 . S
C150 O162 1.242 . S
C150 O163 1.258 . S
O151 Eu147 2.292 . S
O151 C153 1.255 . S
C152 Eu147 2.852 . S
C152 C156 1.503 . S
C152 O169 1.273 . S
C152 O170 1.257 . S
C153 O151 1.255 . S
C153 O154 1.247 . S
O154 C153 1.247 . S
C155 O167 1.242 . S
C155 O168 1.258 . S
C156 C152 1.503 . S
C156 C157 1.379 . S
C156 C161 1.392 . S
C157 C156 1.379 . S
C157 C158 1.404 . S
C157 H171 0.929 . S
C158 C157 1.404 . S
C158 C159 1.389 . S
C159 C158 1.389 . S
C159 C160 1.399 . S
C159 H172 0.931 . S
C160 C159 1.399 . S
C160 C161 1.390 . S
C161 C156 1.392 . S
C161 C160 1.390 . S
C161 H173 0.929 . S
O162 Tb146 2.326 . S
O162 C150 1.242 . S
O163 Eu147 2.324 . S
O163 C150 1.258 . S
O164 Tb146 2.500 . S
O164 C166 1.273 . S
O165 Tb146 2.473 . S
O165 C166 1.257 . S
C166 O164 1.273 . S
C166 O165 1.257 . S
O167 Eu147 2.326 . S
O167 C155 1.242 . S
O168 Tb146 2.324 . S
O168 C155 1.258 . S
O169 Eu147 2.500 . S
O169 C152 1.273 . S
O170 Eu147 2.473 . S
O170 C152 1.257 . S
H171 C157 0.929 . S
H172 C159 0.931 . S
H173 C161 0.929 . S
O174 Tb175 2.292 . S
O174 C177 1.255 . S
Tb175 O174 2.292 . S
Tb175 O191 2.326 . S
Tb175 O193 2.500 . S
Tb175 O194 2.473 . S
Tb175 O197 2.324 . S
Eu176 O180 2.292 . S
Eu176 C181 2.852 . S
Eu176 O192 2.324 . S
Eu176 O196 2.326 . S
Eu176 O198 2.500 . S
Eu176 O199 2.473 . S
C177 O174 1.255 . S
C177 O178 1.247 . S
O178 C177 1.247 . S
C179 O191 1.242 . S
C179 O192 1.258 . S
O180 Eu176 2.292 . S
O180 C182 1.255 . S
C181 Eu176 2.852 . S
C181 C185 1.503 . S
C181 O198 1.273 . S
C181 O199 1.257 . S
C182 O180 1.255 . S
C182 O183 1.247 . S
O183 C182 1.247 . S
C184 O196 1.242 . S
C184 O197 1.258 . S
C185 C181 1.503 . S
C185 C186 1.379 . S
C185 C190 1.392 . S
C186 C185 1.379 . S
C186 C187 1.404 . S
C186 H200 0.929 . S
C187 C186 1.404 . S
C187 C188 1.389 . S
C188 C187 1.389 . S
C188 C189 1.399 . S
C188 H201 0.931 . S
C189 C188 1.399 . S
C189 C190 1.390 . S
C190 C185 1.392 . S
C190 C189 1.390 . S
C190 H202 0.929 . S
O191 Tb175 2.326 . S
O191 C179 1.242 . S
O192 Eu176 2.324 . S
O192 C179 1.258 . S
O193 Tb175 2.500 . S
O193 C195 1.273 . S
O194 Tb175 2.473 . S
O194 C195 1.257 . S
C195 O193 1.273 . S
C195 O194 1.257 . S
O196 Eu176 2.326 . S
O196 C184 1.242 . S
O197 Tb175 2.324 . S
O197 C184 1.258 . S
O198 Eu176 2.500 . S
O198 C181 1.273 . S
O199 Eu176 2.473 . S
O199 C181 1.257 . S
H200 C186 0.929 . S
H201 C188 0.931 . S
H202 C190 0.929 . S
O203 Tb204 2.292 . S
O203 C206 1.255 . S
Tb204 O203 2.292 . S
Tb204 O220 2.326 . S
Tb204 O222 2.500 . S
Tb204 O223 2.473 . S
Tb204 O226 2.324 . S
Eu205 O209 2.292 . S
Eu205 C210 2.852 . S
Eu205 O221 2.324 . S
Eu205 O225 2.326 . S
Eu205 O227 2.500 . S
Eu205 O228 2.473 . S
C206 O203 1.255 . S
C206 O207 1.247 . S
O207 C206 1.247 . S
C208 O220 1.242 . S
C208 O221 1.258 . S
O209 Eu205 2.292 . S
O209 C211 1.255 . S
C210 Eu205 2.852 . S
C210 C214 1.503 . S
C210 O227 1.273 . S
C210 O228 1.257 . S
C211 O209 1.255 . S
C211 O212 1.247 . S
O212 C211 1.247 . S
C213 O225 1.242 . S
C213 O226 1.258 . S
C214 C210 1.503 . S
C214 C215 1.379 . S
C214 C219 1.392 . S
C215 C214 1.379 . S
C215 C216 1.404 . S
C215 H229 0.929 . S
C216 C215 1.404 . S
C216 C217 1.389 . S
C217 C216 1.389 . S
C217 C218 1.399 . S
C217 H230 0.931 . S
C218 C217 1.399 . S
C218 C219 1.390 . S
C219 C214 1.392 . S
C219 C218 1.390 . S
C219 H231 0.929 . S
O220 Tb204 2.326 . S
O220 C208 1.242 . S
O221 Eu205 2.324 . S
O221 C208 1.258 . S
O222 Tb204 2.500 . S
O222 C224 1.273 . S
O223 Tb204 2.473 . S
O223 C224 1.257 . S
C224 O222 1.273 . S
C224 O223 1.257 . S
O225 Eu205 2.326 . S
O225 C213 1.242 . S
O226 Tb204 2.324 . S
O226 C213 1.258 . S
O227 Eu205 2.500 . S
O227 C210 1.273 . S
O228 Eu205 2.473 . S
O228 C210 1.257 . S
H229 C215 0.929 . S
H230 C217 0.931 . S
H231 C219 0.929 . S
O232 Tb233 2.292 . S
O232 C235 1.255 . S
Tb233 O232 2.292 . S
Tb233 O249 2.326 . S
Tb233 O251 2.500 . S
Tb233 O252 2.473 . S
Tb233 O255 2.324 . S
Eu234 O238 2.292 . S
Eu234 C239 2.852 . S
Eu234 O250 2.324 . S
Eu234 O254 2.326 . S
Eu234 O256 2.500 . S
Eu234 O257 2.473 . S
C235 O232 1.255 . S
C235 O236 1.247 . S
O236 C235 1.247 . S
C237 O249 1.242 . S
C237 O250 1.258 . S
O238 Eu234 2.292 . S
O238 C240 1.255 . S
C239 Eu234 2.852 . S
C239 C243 1.503 . S
C239 O256 1.273 . S
C239 O257 1.257 . S
C240 O238 1.255 . S
C240 O241 1.247 . S
O241 C240 1.247 . S
C242 O254 1.242 . S
C242 O255 1.258 . S
C243 C239 1.503 . S
C243 C244 1.379 . S
C243 C248 1.392 . S
C244 C243 1.379 . S
C244 C245 1.404 . S
C244 H258 0.929 . S
C245 C244 1.404 . S
C245 C246 1.389 . S
C246 C245 1.389 . S
C246 C247 1.399 . S
C246 H259 0.931 . S
C247 C246 1.399 . S
C247 C248 1.390 . S
C248 C243 1.392 . S
C248 C247 1.390 . S
C248 H260 0.929 . S
O249 Tb233 2.326 . S
O249 C237 1.242 . S
O250 Eu234 2.324 . S
O250 C237 1.258 . S
O251 Tb233 2.500 . S
O251 C253 1.273 . S
O252 Tb233 2.473 . S
O252 C253 1.257 . S
C253 O251 1.273 . S
C253 O252 1.257 . S
O254 Eu234 2.326 . S
O254 C242 1.242 . S
O255 Tb233 2.324 . S
O255 C242 1.258 . S
O256 Eu234 2.500 . S
O256 C239 1.273 . S
O257 Eu234 2.473 . S
O257 C239 1.257 . S
H258 C244 0.929 . S
H259 C246 0.931 . S
H260 C248 0.929 . S
O261 Tb262 2.292 . S
O261 C264 1.255 . S
Tb262 O261 2.292 . S
Tb262 O278 2.326 . S
Tb262 O280 2.500 . S
Tb262 O281 2.473 . S
Tb262 O284 2.324 1_545 S
Eu263 O267 2.292 . S
Eu263 C268 2.852 . S
Eu263 O279 2.324 . S
Eu263 O283 2.326 . S
Eu263 O285 2.500 . S
Eu263 O286 2.473 . S
C264 O261 1.255 . S
C264 O265 1.247 . S
O265 C264 1.247 . S
C266 O278 1.242 . S
C266 O279 1.258 . S
O267 Eu263 2.292 . S
O267 C269 1.255 . S
C268 Eu263 2.852 . S
C268 C272 1.503 . S
C268 O285 1.273 . S
C268 O286 1.257 . S
C269 O267 1.255 . S
C269 O270 1.247 . S
O270 C269 1.247 . S
C271 O283 1.242 1_565 S
C271 O284 1.258 . S
C272 C268 1.503 . S
C272 C273 1.379 . S
C272 C277 1.392 . S
C273 C272 1.379 . S
C273 C274 1.404 . S
C273 H287 0.929 . S
C274 C273 1.404 . S
C274 C275 1.389 . S
C275 C274 1.389 . S
C275 C276 1.399 . S
C275 H288 0.931 . S
C276 C275 1.399 . S
C276 C277 1.390 . S
C277 C272 1.392 . S
C277 C276 1.390 . S
C277 H289 0.929 . S
O278 Tb262 2.326 . S
O278 C266 1.242 . S
O279 Eu263 2.324 . S
O279 C266 1.258 . S
O280 Tb262 2.500 . S
O280 C282 1.273 . S
O281 Tb262 2.473 . S
O281 C282 1.257 . S
C282 O280 1.273 . S
C282 O281 1.257 . S
O283 Eu263 2.326 . S
O283 C271 1.242 1_545 S
O284 Tb262 2.324 1_565 S
O284 C271 1.258 . S
O285 Eu263 2.500 . S
O285 C268 1.273 . S
O286 Eu263 2.473 . S
O286 C268 1.257 . S
H287 C273 0.929 . S
H288 C275 0.931 . S
H289 C277 0.929 . S
O290 Tb291 2.292 . S
O290 C293 1.255 . S
Tb291 O290 2.292 . S
Tb291 O307 2.326 . S
Tb291 O309 2.500 . S
Tb291 O310 2.473 . S
Tb291 O313 2.324 . S
Eu292 O296 2.292 . S
Eu292 C297 2.852 . S
Eu292 O308 2.324 . S
Eu292 O312 2.326 . S
Eu292 O314 2.500 . S
Eu292 O315 2.473 . S
C293 O290 1.255 . S
C293 O294 1.247 . S
O294 C293 1.247 . S
C295 O307 1.242 . S
C295 O308 1.258 . S
O296 Eu292 2.292 . S
O296 C298 1.255 . S
C297 Eu292 2.852 . S
C297 C301 1.503 . S
C297 O314 1.273 . S
C297 O315 1.257 . S
C298 O296 1.255 . S
C298 O299 1.247 . S
O299 C298 1.247 . S
C300 O312 1.242 . S
C300 O313 1.258 . S
C301 C297 1.503 . S
C301 C302 1.379 . S
C301 C306 1.392 . S
C302 C301 1.379 . S
C302 C303 1.404 . S
C302 H316 0.929 . S
C303 C302 1.404 . S
C303 C304 1.389 . S
C304 C303 1.389 . S
C304 C305 1.399 . S
C304 H317 0.931 . S
C305 C304 1.399 . S
C305 C306 1.390 . S
C306 C301 1.392 . S
C306 C305 1.390 . S
C306 H318 0.929 . S
O307 Tb291 2.326 . S
O307 C295 1.242 . S
O308 Eu292 2.324 . S
O308 C295 1.258 . S
O309 Tb291 2.500 . S
O309 C311 1.273 . S
O310 Tb291 2.473 . S
O310 C311 1.257 . S
C311 O309 1.273 . S
C311 O310 1.257 . S
O312 Eu292 2.326 . S
O312 C300 1.242 . S
O313 Tb291 2.324 . S
O313 C300 1.258 . S
O314 Eu292 2.500 . S
O314 C297 1.273 . S
O315 Eu292 2.473 . S
O315 C297 1.257 . S
H316 C302 0.929 . S
H317 C304 0.931 . S
H318 C306 0.929 . S
O319 Tb320 2.292 . S
O319 C322 1.255 . S
Tb320 O319 2.292 . S
Tb320 O336 2.326 . S
Tb320 O338 2.500 . S
Tb320 O339 2.473 . S
Tb320 O342 2.324 1_565 S
Eu321 O325 2.292 . S
Eu321 C326 2.852 . S
Eu321 O337 2.324 . S
Eu321 O341 2.326 . S
Eu321 O343 2.500 . S
Eu321 O344 2.473 . S
C322 O319 1.255 . S
C322 O323 1.247 . S
O323 C322 1.247 . S
C324 O336 1.242 . S
C324 O337 1.258 . S
O325 Eu321 2.292 . S
O325 C327 1.255 . S
C326 Eu321 2.852 . S
C326 C330 1.503 . S
C326 O343 1.273 . S
C326 O344 1.257 . S
C327 O325 1.255 . S
C327 O328 1.247 . S
O328 C327 1.247 . S
C329 O341 1.242 1_545 S
C329 O342 1.258 . S
C330 C326 1.503 . S
C330 C331 1.379 . S
C330 C335 1.392 . S
C331 C330 1.379 . S
C331 C332 1.404 . S
C331 H345 0.929 . S
C332 C331 1.404 . S
C332 C333 1.389 . S
C333 C332 1.389 . S
C333 C334 1.399 . S
C333 H346 0.931 . S
C334 C333 1.399 . S
C334 C335 1.390 . S
C335 C330 1.392 . S
C335 C334 1.390 . S
C335 H347 0.929 . S
O336 Tb320 2.326 . S
O336 C324 1.242 . S
O337 Eu321 2.324 . S
O337 C324 1.258 . S
O338 Tb320 2.500 . S
O338 C340 1.273 . S
O339 Tb320 2.473 . S
O339 C340 1.257 . S
C340 O338 1.273 . S
C340 O339 1.257 . S
O341 Eu321 2.326 . S
O341 C329 1.242 1_565 S
O342 Tb320 2.324 1_545 S
O342 C329 1.258 . S
O343 Eu321 2.500 . S
O343 C326 1.273 . S
O344 Eu321 2.473 . S
O344 C326 1.257 . S
H345 C331 0.929 . S
H346 C333 0.931 . S
H347 C335 0.929 . S
O348 Tb349 2.292 . S
O348 C351 1.255 . S
Tb349 O348 2.292 . S
Tb349 O365 2.326 . S
Tb349 O367 2.500 . S
Tb349 O368 2.473 . S
Tb349 O371 2.324 . S
Eu350 O354 2.292 . S
Eu350 C355 2.852 . S
Eu350 O366 2.324 . S
Eu350 O370 2.326 . S
Eu350 O372 2.500 . S
Eu350 O373 2.473 . S
C351 O348 1.255 . S
C351 O352 1.247 . S
O352 C351 1.247 . S
C353 O365 1.242 . S
C353 O366 1.258 . S
O354 Eu350 2.292 . S
O354 C356 1.255 . S
C355 Eu350 2.852 . S
C355 C359 1.503 . S
C355 O372 1.273 . S
C355 O373 1.257 . S
C356 O354 1.255 . S
C356 O357 1.247 . S
O357 C356 1.247 . S
C358 O370 1.242 . S
C358 O371 1.258 . S
C359 C355 1.503 . S
C359 C360 1.379 . S
C359 C364 1.392 . S
C360 C359 1.379 . S
C360 C361 1.404 . S
C360 H374 0.929 . S
C361 C360 1.404 . S
C361 C362 1.389 . S
C362 C361 1.389 . S
C362 C363 1.399 . S
C362 H375 0.931 . S
C363 C362 1.399 . S
C363 C364 1.390 . S
C364 C359 1.392 . S
C364 C363 1.390 . S
C364 H376 0.929 . S
O365 Tb349 2.326 . S
O365 C353 1.242 . S
O366 Eu350 2.324 . S
O366 C353 1.258 . S
O367 Tb349 2.500 . S
O367 C369 1.273 . S
O368 Tb349 2.473 . S
O368 C369 1.257 . S
C369 O367 1.273 . S
C369 O368 1.257 . S
O370 Eu350 2.326 . S
O370 C358 1.242 . S
O371 Tb349 2.324 . S
O371 C358 1.258 . S
O372 Eu350 2.500 . S
O372 C355 1.273 . S
O373 Eu350 2.473 . S
O373 C355 1.257 . S
H374 C360 0.929 . S
H375 C362 0.931 . S
H376 C364 0.929 . S
O377 Tb378 2.292 . S
O377 C380 1.255 . S
Tb378 O377 2.292 . S
Tb378 O394 2.326 . S
Tb378 O396 2.500 . S
Tb378 O397 2.473 . S
Tb378 O400 2.324 1_565 S
Eu379 O383 2.292 . S
Eu379 C384 2.852 . S
Eu379 O395 2.324 . S
Eu379 O399 2.326 . S
Eu379 O401 2.500 . S
Eu379 O402 2.473 . S
C380 O377 1.255 . S
C380 O381 1.247 . S
O381 C380 1.247 . S
C382 O394 1.242 . S
C382 O395 1.258 . S
O383 Eu379 2.292 . S
O383 C385 1.255 . S
C384 Eu379 2.852 . S
C384 C388 1.503 . S
C384 O401 1.273 . S
C384 O402 1.257 . S
C385 O383 1.255 . S
C385 O386 1.247 . S
O386 C385 1.247 . S
C387 O399 1.242 1_545 S
C387 O400 1.258 . S
C388 C384 1.503 . S
C388 C389 1.379 . S
C388 C393 1.392 . S
C389 C388 1.379 . S
C389 C390 1.404 . S
C389 H403 0.929 . S
C390 C389 1.404 . S
C390 C391 1.389 . S
C391 C390 1.389 . S
C391 C392 1.399 . S
C391 H404 0.931 . S
C392 C391 1.399 . S
C392 C393 1.390 . S
C393 C388 1.392 . S
C393 C392 1.390 . S
C393 H405 0.929 . S
O394 Tb378 2.326 . S
O394 C382 1.242 . S
O395 Eu379 2.324 . S
O395 C382 1.258 . S
O396 Tb378 2.500 . S
O396 C398 1.273 . S
O397 Tb378 2.473 . S
O397 C398 1.257 . S
C398 O396 1.273 . S
C398 O397 1.257 . S
O399 Eu379 2.326 . S
O399 C387 1.242 1_565 S
O400 Tb378 2.324 1_545 S
O400 C387 1.258 . S
O401 Eu379 2.500 . S
O401 C384 1.273 . S
O402 Eu379 2.473 . S
O402 C384 1.257 . S
H403 C389 0.929 . S
H404 C391 0.931 . S
H405 C393 0.929 . S
O406 Tb407 2.292 . S
O406 C409 1.255 . S
Tb407 O406 2.292 . S
Tb407 O423 2.326 . S
Tb407 O425 2.500 . S
Tb407 O426 2.473 . S
Tb407 O429 2.324 . S
Eu408 O412 2.292 . S
Eu408 C413 2.852 . S
Eu408 O424 2.324 . S
Eu408 O428 2.326 . S
Eu408 O430 2.500 . S
Eu408 O431 2.473 . S
C409 O406 1.255 . S
C409 O410 1.247 . S
O410 C409 1.247 . S
C411 O423 1.242 . S
C411 O424 1.258 . S
O412 Eu408 2.292 . S
O412 C414 1.255 . S
C413 Eu408 2.852 . S
C413 C417 1.503 . S
C413 O430 1.273 . S
C413 O431 1.257 . S
C414 O412 1.255 . S
C414 O415 1.247 . S
O415 C414 1.247 . S
C416 O428 1.242 . S
C416 O429 1.258 . S
C417 C413 1.503 . S
C417 C418 1.379 . S
C417 C422 1.392 . S
C418 C417 1.379 . S
C418 C419 1.404 . S
C418 H432 0.929 . S
C419 C418 1.404 . S
C419 C420 1.389 . S
C420 C419 1.389 . S
C420 C421 1.399 . S
C420 H433 0.931 . S
C421 C420 1.399 . S
C421 C422 1.390 . S
C422 C417 1.392 . S
C422 C421 1.390 . S
C422 H434 0.929 . S
O423 Tb407 2.326 . S
O423 C411 1.242 . S
O424 Eu408 2.324 . S
O424 C411 1.258 . S
O425 Tb407 2.500 . S
O425 C427 1.273 . S
O426 Tb407 2.473 . S
O426 C427 1.257 . S
C427 O425 1.273 . S
C427 O426 1.257 . S
O428 Eu408 2.326 . S
O428 C416 1.242 . S
O429 Tb407 2.324 . S
O429 C416 1.258 . S
O430 Eu408 2.500 . S
O430 C413 1.273 . S
O431 Eu408 2.473 . S
O431 C413 1.257 . S
H432 C418 0.929 . S
H433 C420 0.931 . S
H434 C422 0.929 . S
O435 Tb436 2.292 . S
O435 C438 1.255 . S
Tb436 O435 2.292 . S
Tb436 O452 2.326 . S
Tb436 O454 2.500 . S
Tb436 O455 2.473 . S
Tb436 O458 2.324 1_545 S
Eu437 O441 2.292 . S
Eu437 C442 2.852 . S
Eu437 O453 2.324 . S
Eu437 O457 2.326 . S
Eu437 O459 2.500 . S
Eu437 O460 2.473 . S
C438 O435 1.255 . S
C438 O439 1.247 . S
O439 C438 1.247 . S
C440 O452 1.242 . S
C440 O453 1.258 . S
O441 Eu437 2.292 . S
O441 C443 1.255 . S
C442 Eu437 2.852 . S
C442 C446 1.503 . S
C442 O459 1.273 . S
C442 O460 1.257 . S
C443 O441 1.255 . S
C443 O444 1.247 . S
O444 C443 1.247 . S
C445 O457 1.242 1_565 S
C445 O458 1.258 . S
C446 C442 1.503 . S
C446 C447 1.379 . S
C446 C451 1.392 . S
C447 C446 1.379 . S
C447 C448 1.404 . S
C447 H461 0.929 . S
C448 C447 1.404 . S
C448 C449 1.389 . S
C449 C448 1.389 . S
C449 C450 1.399 . S
C449 H462 0.931 . S
C450 C449 1.399 . S
C450 C451 1.390 . S
C451 C446 1.392 . S
C451 C450 1.390 . S
C451 H463 0.929 . S
O452 Tb436 2.326 . S
O452 C440 1.242 . S
O453 Eu437 2.324 . S
O453 C440 1.258 . S
O454 Tb436 2.500 . S
O454 C456 1.273 . S
O455 Tb436 2.473 . S
O455 C456 1.257 . S
C456 O454 1.273 . S
C456 O455 1.257 . S
O457 Eu437 2.326 . S
O457 C445 1.242 1_545 S
O458 Tb436 2.324 1_565 S
O458 C445 1.258 . S
O459 Eu437 2.500 . S
O459 C442 1.273 . S
O460 Eu437 2.473 . S
O460 C442 1.257 . S
H461 C447 0.929 . S
H462 C449 0.931 . S
H463 C451 0.929 . S
H464 C472 0.929 . S
H465 C474 0.930 . S
H466 C476 0.930 . S
H467 C479 0.929 . S
H468 C482 0.930 . S
H469 C484 0.960 . S
H470 C484 0.960 . S
H471 C484 0.960 . S
C472 H464 0.929 . S
C472 C473 1.377 . S
C472 C474 1.384 . S
C473 C472 1.377 . S
C473 C479 1.390 . S
C474 H465 0.930 . S
C474 C472 1.384 . S
C474 C475 1.372 . S
C475 C474 1.372 . S
C475 C476 1.400 . S
C475 C480 1.490 . S
C476 H466 0.930 . S
C476 C475 1.400 . S
C476 C479 1.386 . S
H477 C493 0.930 . S
H478 C494 0.931 . S
C479 H467 0.929 . S
C479 C473 1.390 . S
C479 C476 1.386 . S
C480 C475 1.490 . S
C480 C482 1.395 . S
C480 C483 1.403 . S
H481 C487 0.930 . S
C482 H468 0.930 . S
C482 C480 1.395 . S
C482 C485 1.403 . S
C483 C480 1.403 . S
C483 C484 1.524 . S
C483 C487 1.400 . S
C484 H469 0.960 . S
C484 H470 0.960 . S
C484 H471 0.960 . S
C484 C483 1.524 . S
C485 C482 1.403 . S
C485 C486 1.392 . S
C485 C489 1.495 . S
C486 C485 1.392 . S
C486 C487 1.385 . S
C486 C488 1.478 . S
C487 H481 0.930 . S
C487 C483 1.400 . S
C487 C486 1.385 . S
C488 C486 1.478 . S
C488 C490 1.381 . S
C488 C494 1.383 . S
C489 C485 1.495 . S
C489 H495 0.959 . S
C489 H496 0.961 . S
C489 H497 0.960 . S
C490 C488 1.381 . S
C490 C491 1.394 . S
C490 H498 0.930 . S
C491 C490 1.394 . S
C491 C492 1.383 . S
C491 H499 0.929 . S
C492 C491 1.383 . S
C492 C493 1.377 . S
C493 H477 0.930 . S
C493 C492 1.377 . S
C493 C494 1.379 . S
C494 H478 0.931 . S
C494 C488 1.383 . S
C494 C493 1.379 . S
H495 C489 0.959 . S
H496 C489 0.961 . S
H497 C489 0.960 . S
H498 C490 0.930 . S
H499 C491 0.929 . S
H500 C508 0.929 . S
H501 C510 0.930 . S
H502 C512 0.930 . S
H503 C515 0.929 . S
H504 C518 0.930 . S
H505 C520 0.960 . S
H506 C520 0.960 . S
H507 C520 0.960 . S
C508 H500 0.929 . S
C508 C509 1.377 . S
C508 C510 1.384 . S
C509 C508 1.377 . S
C509 C515 1.390 . S
C510 H501 0.930 . S
C510 C508 1.384 . S
C510 C511 1.372 . S
C511 C510 1.372 . S
C511 C512 1.400 . S
C511 C516 1.490 . S
C512 H502 0.930 . S
C512 C511 1.400 . S
C512 C515 1.386 . S
H513 C529 0.930 . S
H514 C530 0.931 . S
C515 H503 0.929 . S
C515 C509 1.390 . S
C515 C512 1.386 . S
C516 C511 1.490 . S
C516 C518 1.395 . S
C516 C519 1.403 . S
H517 C523 0.930 . S
C518 H504 0.930 . S
C518 C516 1.395 . S
C518 C521 1.403 . S
C519 C516 1.403 . S
C519 C520 1.524 . S
C519 C523 1.400 . S
C520 H505 0.960 . S
C520 H506 0.960 . S
C520 H507 0.960 . S
C520 C519 1.524 . S
C521 C518 1.403 . S
C521 C522 1.392 . S
C521 C525 1.495 . S
C522 C521 1.392 . S
C522 C523 1.385 . S
C522 C524 1.478 . S
C523 H517 0.930 . S
C523 C519 1.400 . S
C523 C522 1.385 . S
C524 C522 1.478 . S
C524 C526 1.381 . S
C524 C530 1.383 . S
C525 C521 1.495 . S
C525 H531 0.959 . S
C525 H532 0.961 . S
C525 H533 0.960 . S
C526 C524 1.381 . S
C526 C527 1.394 . S
C526 H534 0.930 . S
C527 C526 1.394 . S
C527 C528 1.383 . S
C527 H535 0.929 . S
C528 C527 1.383 . S
C528 C529 1.377 . S
C529 H513 0.930 . S
C529 C528 1.377 . S
C529 C530 1.379 . S
C530 H514 0.931 . S
C530 C524 1.383 . S
C530 C529 1.379 . S
H531 C525 0.959 . S
H532 C525 0.961 . S
H533 C525 0.960 . S
H534 C526 0.930 . S
H535 C527 0.929 . S
H536 C544 0.929 . S
H537 C546 0.930 . S
H538 C548 0.930 . S
H539 C551 0.929 . S
H540 C554 0.930 . S
H541 C556 0.960 . S
H542 C556 0.960 . S
H543 C556 0.960 . S
C544 H536 0.929 . S
C544 C545 1.377 . S
C544 C546 1.384 . S
C545 C544 1.377 . S
C545 C551 1.390 . S
C546 H537 0.930 . S
C546 C544 1.384 . S
C546 C547 1.372 . S
C547 C546 1.372 . S
C547 C548 1.400 . S
C547 C552 1.490 . S
C548 H538 0.930 . S
C548 C547 1.400 . S
C548 C551 1.386 . S
H549 C565 0.930 . S
H550 C566 0.931 . S
C551 H539 0.929 . S
C551 C545 1.390 . S
C551 C548 1.386 . S
C552 C547 1.490 . S
C552 C554 1.395 . S
C552 C555 1.403 . S
H553 C559 0.930 . S
C554 H540 0.930 . S
C554 C552 1.395 . S
C554 C557 1.403 . S
C555 C552 1.403 . S
C555 C556 1.524 . S
C555 C559 1.400 . S
C556 H541 0.960 . S
C556 H542 0.960 . S
C556 H543 0.960 . S
C556 C555 1.524 . S
C557 C554 1.403 . S
C557 C558 1.392 . S
C557 C561 1.495 . S
C558 C557 1.392 . S
C558 C559 1.385 . S
C558 C560 1.478 . S
C559 H553 0.930 . S
C559 C555 1.400 . S
C559 C558 1.385 . S
C560 C558 1.478 . S
C560 C562 1.381 . S
C560 C566 1.383 . S
C561 C557 1.495 . S
C561 H567 0.959 . S
C561 H568 0.961 . S
C561 H569 0.960 . S
C562 C560 1.381 . S
C562 C563 1.394 . S
C562 H570 0.930 . S
C563 C562 1.394 . S
C563 C564 1.383 . S
C563 H571 0.929 . S
C564 C563 1.383 . S
C564 C565 1.377 . S
C565 H549 0.930 . S
C565 C564 1.377 . S
C565 C566 1.379 . S
C566 H550 0.931 . S
C566 C560 1.383 . S
C566 C565 1.379 . S
H567 C561 0.959 . S
H568 C561 0.961 . S
H569 C561 0.960 . S
H570 C562 0.930 . S
H571 C563 0.929 . S
H572 C580 0.929 . S
H573 C582 0.930 . S
H574 C584 0.930 . S
H575 C587 0.929 . S
H576 C590 0.930 . S
H577 C592 0.960 . S
H578 C592 0.960 . S
H579 C592 0.960 . S
C580 H572 0.929 . S
C580 C581 1.377 . S
C580 C582 1.384 . S
C581 C580 1.377 . S
C581 C587 1.390 . S
C582 H573 0.930 . S
C582 C580 1.384 . S
C582 C583 1.372 . S
C583 C582 1.372 . S
C583 C584 1.400 . S
C583 C588 1.490 . S
C584 H574 0.930 . S
C584 C583 1.400 . S
C584 C587 1.386 . S
H585 C601 0.930 1_655 S
H586 C602 0.931 . S
C587 H575 0.929 . S
C587 C581 1.390 . S
C587 C584 1.386 . S
C588 C583 1.490 . S
C588 C590 1.395 . S
C588 C591 1.403 . S
H589 C595 0.930 . S
C590 H576 0.930 . S
C590 C588 1.395 . S
C590 C593 1.403 . S
C591 C588 1.403 . S
C591 C592 1.524 . S
C591 C595 1.400 . S
C592 H577 0.960 . S
C592 H578 0.960 . S
C592 H579 0.960 . S
C592 C591 1.524 . S
C593 C590 1.403 . S
C593 C594 1.392 . S
C593 C597 1.495 . S
C594 C593 1.392 . S
C594 C595 1.385 . S
C594 C596 1.478 . S
C595 H589 0.930 . S
C595 C591 1.400 . S
C595 C594 1.385 . S
C596 C594 1.478 . S
C596 C598 1.381 . S
C596 C602 1.383 . S
C597 C593 1.495 . S
C597 H603 0.959 . S
C597 H604 0.961 . S
C597 H605 0.960 . S
C598 C596 1.381 . S
C598 C599 1.394 . S
C598 H606 0.930 . S
C599 C598 1.394 . S
C599 C600 1.383 . S
C599 H607 0.929 . S
C600 C599 1.383 . S
C600 C601 1.377 . S
C601 H585 0.930 1_455 S
C601 C600 1.377 . S
C601 C602 1.379 . S
C602 H586 0.931 . S
C602 C596 1.383 . S
C602 C601 1.379 . S
H603 C597 0.959 . S
H604 C597 0.961 . S
H605 C597 0.960 . S
H606 C598 0.930 . S
H607 C599 0.929 . S
H608 C616 0.929 . S
H609 C618 0.930 . S
H610 C620 0.930 . S
H611 C623 0.929 . S
H612 C626 0.930 . S
H613 C628 0.960 . S
H614 C628 0.960 . S
H615 C628 0.960 . S
C616 H608 0.929 . S
C616 C617 1.377 . S
C616 C618 1.384 . S
C617 C616 1.377 . S
C617 C623 1.390 . S
C618 H609 0.930 . S
C618 C616 1.384 . S
C618 C619 1.372 . S
C619 C618 1.372 . S
C619 C620 1.400 . S
C619 C624 1.490 . S
C620 H610 0.930 . S
C620 C619 1.400 . S
C620 C623 1.386 . S
H621 C637 0.930 . S
H622 C638 0.931 . S
C623 H611 0.929 . S
C623 C617 1.390 . S
C623 C620 1.386 . S
C624 C619 1.490 . S
C624 C626 1.395 . S
C624 C627 1.403 . S
H625 C631 0.930 . S
C626 H612 0.930 . S
C626 C624 1.395 . S
C626 C629 1.403 . S
C627 C624 1.403 . S
C627 C628 1.524 . S
C627 C631 1.400 . S
C628 H613 0.960 . S
C628 H614 0.960 . S
C628 H615 0.960 . S
C628 C627 1.524 . S
C629 C626 1.403 . S
C629 C630 1.392 . S
C629 C633 1.495 . S
C630 C629 1.392 . S
C630 C631 1.385 . S
C630 C632 1.478 . S
C631 H625 0.930 . S
C631 C627 1.400 . S
C631 C630 1.385 . S
C632 C630 1.478 . S
C632 C634 1.381 . S
C632 C638 1.383 . S
C633 C629 1.495 . S
C633 H639 0.959 . S
C633 H640 0.961 . S
C633 H641 0.960 . S
C634 C632 1.381 . S
C634 C635 1.394 . S
C634 H642 0.930 . S
C635 C634 1.394 . S
C635 C636 1.383 . S
C635 H643 0.929 . S
C636 C635 1.383 . S
C636 C637 1.377 . S
C637 H621 0.930 . S
C637 C636 1.377 . S
C637 C638 1.379 . S
C638 H622 0.931 . S
C638 C632 1.383 . S
C638 C637 1.379 . S
H639 C633 0.959 . S
H640 C633 0.961 . S
H641 C633 0.960 . S
H642 C634 0.930 . S
H643 C635 0.929 . S
H644 C652 0.929 . S
H645 C654 0.930 . S
H646 C656 0.930 . S
H647 C659 0.929 . S
H648 C662 0.930 . S
H649 C664 0.960 . S
H650 C664 0.960 . S
H651 C664 0.960 . S
C652 H644 0.929 . S
C652 C653 1.377 . S
C652 C654 1.384 . S
C653 C652 1.377 . S
C653 C659 1.390 . S
C654 H645 0.930 . S
C654 C652 1.384 . S
C654 C655 1.372 . S
C655 C654 1.372 . S
C655 C656 1.400 . S
C655 C660 1.490 . S
C656 H646 0.930 . S
C656 C655 1.400 . S
C656 C659 1.386 . S
H657 C673 0.930 . S
H658 C674 0.931 . S
C659 H647 0.929 . S
C659 C653 1.390 . S
C659 C656 1.386 . S
C660 C655 1.490 . S
C660 C662 1.395 . S
C660 C663 1.403 . S
H661 C667 0.930 . S
C662 H648 0.930 . S
C662 C660 1.395 . S
C662 C665 1.403 . S
C663 C660 1.403 . S
C663 C664 1.524 . S
C663 C667 1.400 . S
C664 H649 0.960 . S
C664 H650 0.960 . S
C664 H651 0.960 . S
C664 C663 1.524 . S
C665 C662 1.403 . S
C665 C666 1.392 . S
C665 C669 1.495 . S
C666 C665 1.392 . S
C666 C667 1.385 . S
C666 C668 1.478 . S
C667 H661 0.930 . S
C667 C663 1.400 . S
C667 C666 1.385 . S
C668 C666 1.478 . S
C668 C670 1.381 . S
C668 C674 1.383 . S
C669 C665 1.495 . S
C669 H675 0.959 . S
C669 H676 0.961 . S
C669 H677 0.960 . S
C670 C668 1.381 . S
C670 C671 1.394 . S
C670 H678 0.930 . S
C671 C670 1.394 . S
C671 C672 1.383 . S
C671 H679 0.929 . S
C672 C671 1.383 . S
C672 C673 1.377 . S
C673 H657 0.930 . S
C673 C672 1.377 . S
C673 C674 1.379 . S
C674 H658 0.931 . S
C674 C668 1.383 . S
C674 C673 1.379 . S
H675 C669 0.959 . S
H676 C669 0.961 . S
H677 C669 0.960 . S
H678 C670 0.930 . S
H679 C671 0.929 . S
H680 C688 0.929 . S
H681 C690 0.930 . S
H682 C692 0.930 . S
H683 C695 0.929 . S
H684 C698 0.930 . S
H685 C700 0.960 . S
H686 C700 0.960 . S
H687 C700 0.960 . S
C688 H680 0.929 . S
C688 C689 1.377 . S
C688 C690 1.384 . S
C689 C688 1.377 . S
C689 C695 1.390 . S
C690 H681 0.930 . S
C690 C688 1.384 . S
C690 C691 1.372 . S
C691 C690 1.372 . S
C691 C692 1.400 . S
C691 C696 1.490 . S
C692 H682 0.930 . S
C692 C691 1.400 . S
C692 C695 1.386 . S
H693 C709 0.930 . S
H694 C710 0.931 . S
C695 H683 0.929 . S
C695 C689 1.390 . S
C695 C692 1.386 . S
C696 C691 1.490 . S
C696 C698 1.395 . S
C696 C699 1.403 . S
H697 C703 0.930 . S
C698 H684 0.930 . S
C698 C696 1.395 . S
C698 C701 1.403 . S
C699 C696 1.403 . S
C699 C700 1.524 . S
C699 C703 1.400 . S
C700 H685 0.960 . S
C700 H686 0.960 . S
C700 H687 0.960 . S
C700 C699 1.524 . S
C701 C698 1.403 . S
C701 C702 1.392 . S
C701 C705 1.495 . S
C702 C701 1.392 . S
C702 C703 1.385 . S
C702 C704 1.478 . S
C703 H697 0.930 . S
C703 C699 1.400 . S
C703 C702 1.385 . S
C704 C702 1.478 . S
C704 C706 1.381 . S
C704 C710 1.383 . S
C705 C701 1.495 . S
C705 H711 0.959 . S
C705 H712 0.961 . S
C705 H713 0.960 . S
C706 C704 1.381 . S
C706 C707 1.394 . S
C706 H714 0.930 . S
C707 C706 1.394 . S
C707 C708 1.383 . S
C707 H715 0.929 . S
C708 C707 1.383 . S
C708 C709 1.377 . S
C709 H693 0.930 . S
C709 C708 1.377 . S
C709 C710 1.379 . S
C710 H694 0.931 . S
C710 C704 1.383 . S
C710 C709 1.379 . S
H711 C705 0.959 . S
H712 C705 0.961 . S
H713 C705 0.960 . S
H714 C706 0.930 . S
H715 C707 0.929 . S
H716 C724 0.929 . S
H717 C726 0.930 . S
H718 C728 0.930 . S
H719 C731 0.929 . S
H720 C734 0.930 . S
H721 C736 0.960 . S
H722 C736 0.960 . S
H723 C736 0.960 . S
C724 H716 0.929 . S
C724 C725 1.377 . S
C724 C726 1.384 . S
C725 C724 1.377 . S
C725 C731 1.390 . S
C726 H717 0.930 . S
C726 C724 1.384 . S
C726 C727 1.372 . S
C727 C726 1.372 . S
C727 C728 1.400 . S
C727 C732 1.490 . S
C728 H718 0.930 . S
C728 C727 1.400 . S
C728 C731 1.386 . S
H729 C745 0.930 . S
H730 C746 0.931 . S
C731 H719 0.929 . S
C731 C725 1.390 . S
C731 C728 1.386 . S
C732 C727 1.490 . S
C732 C734 1.395 . S
C732 C735 1.403 . S
H733 C739 0.930 . S
C734 H720 0.930 . S
C734 C732 1.395 . S
C734 C737 1.403 . S
C735 C732 1.403 . S
C735 C736 1.524 . S
C735 C739 1.400 . S
C736 H721 0.960 . S
C736 H722 0.960 . S
C736 H723 0.960 . S
C736 C735 1.524 . S
C737 C734 1.403 . S
C737 C738 1.392 . S
C737 C741 1.495 . S
C738 C737 1.392 . S
C738 C739 1.385 . S
C738 C740 1.478 . S
C739 H733 0.930 . S
C739 C735 1.400 . S
C739 C738 1.385 . S
C740 C738 1.478 . S
C740 C742 1.381 . S
C740 C746 1.383 . S
C741 C737 1.495 . S
C741 H747 0.959 . S
C741 H748 0.961 . S
C741 H749 0.960 . S
C742 C740 1.381 . S
C742 C743 1.368 1_655 S
C742 H750 0.930 . S
C743 C742 1.368 1_455 S
C743 C744 1.379 1_455 S
C743 H751 0.961 . S
C744 C743 1.379 1_655 S
C744 C745 1.377 . S
C745 H729 0.930 . S
C745 C744 1.377 . S
C745 C746 1.379 . S
C746 H730 0.931 . S
C746 C740 1.383 . S
C746 C745 1.379 . S
H747 C741 0.959 . S
H748 C741 0.961 . S
H749 C741 0.960 . S
H750 C742 0.930 . S
H751 C743 0.961 . S
H752 C760 0.929 . S
H753 C762 0.930 . S
H754 C764 0.930 . S
H755 C767 0.929 . S
H756 C770 0.930 . S
H757 C772 0.960 . S
H758 C772 0.960 . S
H759 C772 0.960 . S
C760 H752 0.929 . S
C760 C761 1.377 . S
C760 C762 1.384 . S
C761 C760 1.377 . S
C761 C767 1.390 . S
C762 H753 0.930 . S
C762 C760 1.384 . S
C762 C763 1.372 . S
C763 C762 1.372 . S
C763 C764 1.400 . S
C763 C768 1.490 . S
C764 H754 0.930 . S
C764 C763 1.400 . S
C764 C767 1.386 . S
H765 C781 0.930 . S
H766 C782 0.931 . S
C767 H755 0.929 . S
C767 C761 1.390 . S
C767 C764 1.386 . S
C768 C763 1.490 . S
C768 C770 1.395 . S
C768 C771 1.403 . S
H769 C775 0.930 . S
C770 H756 0.930 . S
C770 C768 1.395 . S
C770 C773 1.403 . S
C771 C768 1.403 . S
C771 C772 1.524 . S
C771 C775 1.400 . S
C772 H757 0.960 . S
C772 H758 0.960 . S
C772 H759 0.960 . S
C772 C771 1.524 . S
C773 C770 1.403 . S
C773 C774 1.392 . S
C773 C777 1.495 . S
C774 C773 1.392 . S
C774 C775 1.385 . S
C774 C776 1.478 . S
C775 H769 0.930 . S
C775 C771 1.400 . S
C775 C774 1.385 . S
C776 C774 1.478 . S
C776 C778 1.381 . S
C776 C782 1.383 . S
C777 C773 1.495 . S
C777 H783 0.959 . S
C777 H784 0.961 . S
C777 H785 0.960 . S
C778 C776 1.381 . S
C778 C779 1.394 . S
C778 H786 0.930 . S
C779 C778 1.394 . S
C779 C780 1.383 . S
C779 H787 0.929 . S
C780 C779 1.383 . S
C780 C781 1.377 . S
C781 H765 0.930 . S
C781 C780 1.377 . S
C781 C782 1.379 . S
C782 H766 0.931 . S
C782 C776 1.383 . S
C782 C781 1.379 . S
H783 C777 0.959 . S
H784 C777 0.961 . S
H785 C777 0.960 . S
H786 C778 0.930 . S
H787 C779 0.929 . S
H788 C796 0.929 . S
H789 C798 0.930 . S
H790 C800 0.930 . S
H791 C803 0.929 . S
H792 C806 0.930 . S
H793 C808 0.960 . S
H794 C808 0.960 . S
H795 C808 0.960 . S
C796 H788 0.929 . S
C796 C797 1.377 1_565 S
C796 C798 1.384 . S
C797 C796 1.377 1_545 S
C797 C803 1.390 . S
C798 H789 0.930 . S
C798 C796 1.384 . S
C798 C799 1.372 . S
C799 C798 1.372 . S
C799 C800 1.400 1_565 S
C799 C804 1.490 . S
C800 H790 0.930 . S
C800 C799 1.400 1_545 S
C800 C803 1.386 . S
H801 C817 0.930 . S
H802 C818 0.931 . S
C803 H791 0.929 . S
C803 C797 1.390 . S
C803 C800 1.386 . S
C804 C799 1.490 . S
C804 C806 1.395 . S
C804 C807 1.403 . S
H805 C811 0.930 . S
C806 H792 0.930 . S
C806 C804 1.395 . S
C806 C809 1.403 . S
C807 C804 1.403 . S
C807 C808 1.524 1_565 S
C807 C811 1.400 . S
C808 H793 0.960 . S
C808 H794 0.960 . S
C808 H795 0.960 . S
C808 C807 1.524 1_545 S
C809 C806 1.403 . S
C809 C810 1.392 . S
C809 C813 1.495 . S
C810 C809 1.392 . S
C810 C811 1.385 . S
C810 C812 1.478 . S
C811 H805 0.930 . S
C811 C807 1.400 . S
C811 C810 1.385 . S
C812 C810 1.478 . S
C812 C814 1.381 . S
C812 C818 1.383 . S
C813 C809 1.495 . S
C813 H819 0.959 . S
C813 H820 0.961 . S
C813 H821 0.960 . S
C814 C812 1.381 . S
C814 C815 1.394 . S
C814 H822 0.930 . S
C815 C814 1.394 . S
C815 C816 1.383 . S
C815 H823 0.929 . S
C816 C815 1.383 . S
C816 C817 1.377 . S
C817 H801 0.930 . S
C817 C816 1.377 . S
C817 C818 1.379 . S
C818 H802 0.931 . S
C818 C812 1.383 . S
C818 C817 1.379 . S
H819 C813 0.959 . S
H820 C813 0.961 . S
H821 C813 0.960 . S
H822 C814 0.930 . S
H823 C815 0.929 . S
H824 C832 0.929 . S
H825 C834 0.930 . S
H826 C836 0.930 . S
H827 C839 0.929 . S
H828 C842 0.930 . S
H829 C844 0.960 . S
H830 C844 0.960 . S
H831 C844 0.960 . S
C832 H824 0.929 . S
C832 C833 1.377 . S
C832 C834 1.384 . S
C833 C832 1.377 . S
C833 C839 1.390 . S
C834 H825 0.930 . S
C834 C832 1.384 . S
C834 C835 1.372 . S
C835 C834 1.372 . S
C835 C836 1.400 . S
C835 C840 1.490 . S
C836 H826 0.930 . S
C836 C835 1.400 . S
C836 C839 1.386 . S
H837 C853 0.930 . S
H838 C854 0.931 . S
C839 H827 0.929 . S
C839 C833 1.390 . S
C839 C836 1.386 . S
C840 C835 1.490 . S
C840 C842 1.395 . S
C840 C843 1.403 . S
H841 C847 0.930 . S
C842 H828 0.930 . S
C842 C840 1.395 . S
C842 C845 1.403 . S
C843 C840 1.403 . S
C843 C844 1.524 . S
C843 C847 1.400 . S
C844 H829 0.960 . S
C844 H830 0.960 . S
C844 H831 0.960 . S
C844 C843 1.524 . S
C845 C842 1.403 . S
C845 C846 1.392 . S
C845 C849 1.495 . S
C846 C845 1.392 . S
C846 C847 1.385 . S
C846 C848 1.478 . S
C847 H841 0.930 . S
C847 C843 1.400 . S
C847 C846 1.385 . S
C848 C846 1.478 . S
C848 C850 1.381 . S
C848 C854 1.383 . S
C849 C845 1.495 . S
C849 H855 0.959 . S
C849 H856 0.961 . S
C849 H857 0.960 . S
C850 C848 1.381 . S
C850 C851 1.394 . S
C850 H858 0.930 . S
C851 C850 1.394 . S
C851 C852 1.383 . S
C851 H859 0.929 . S
C852 C851 1.383 . S
C852 C853 1.377 . S
C853 H837 0.930 . S
C853 C852 1.377 . S
C853 C854 1.379 . S
C854 H838 0.931 . S
C854 C848 1.383 . S
C854 C853 1.379 . S
H855 C849 0.959 . S
H856 C849 0.961 . S
H857 C849 0.960 . S
H858 C850 0.930 . S
H859 C851 0.929 . S
H860 C868 0.929 . S
H861 C870 0.930 . S
H862 C872 0.930 . S
H863 C875 0.929 . S
H864 C878 0.930 . S
H865 C880 0.945 1_565 S
H866 C880 0.958 1_565 S
H867 C880 0.967 . S
C868 H860 0.929 . S
C868 C869 1.377 . S
C868 C870 1.384 . S
C869 C868 1.377 . S
C869 C875 1.390 . S
C870 H861 0.930 . S
C870 C868 1.384 . S
C870 C871 1.372 . S
C871 C870 1.372 . S
C871 C872 1.400 . S
C871 C876 1.490 . S
C872 H862 0.930 . S
C872 C871 1.400 . S
C872 C875 1.386 . S
H873 C889 0.930 . S
H874 C890 0.931 . S
C875 H863 0.929 . S
C875 C869 1.390 . S
C875 C872 1.386 . S
C876 C871 1.490 . S
C876 C878 1.395 . S
C876 C879 1.403 . S
H877 C883 0.930 1_565 S
C878 H864 0.930 . S
C878 C876 1.395 . S
C878 C881 1.403 . S
C879 C876 1.403 . S
C879 C880 1.534 . S
C879 C883 1.400 . S
C880 H865 0.945 1_545 S
C880 H866 0.958 1_545 S
C880 H867 0.967 . S
C880 C879 1.534 . S
C881 C878 1.403 . S
C881 C882 1.392 . S
C881 C885 1.495 . S
C882 C881 1.392 . S
C882 C883 1.385 . S
C882 C884 1.478 . S
C883 H877 0.930 1_545 S
C883 C879 1.400 . S
C883 C882 1.385 . S
C884 C882 1.478 . S
C884 C886 1.381 . S
C884 C890 1.383 . S
C885 C881 1.495 . S
C885 H891 0.959 . S
C885 H892 0.961 . S
C885 H893 0.960 . S
C886 C884 1.381 . S
C886 C887 1.394 1_545 S
C886 H894 0.930 . S
C887 C886 1.394 1_565 S
C887 C888 1.383 . S
C887 H895 0.929 . S
C888 C887 1.383 . S
C888 C889 1.377 . S
C889 H873 0.930 . S
C889 C888 1.377 . S
C889 C890 1.379 1_565 S
C890 H874 0.931 . S
C890 C884 1.383 . S
C890 C889 1.379 1_545 S
H891 C885 0.959 . S
H892 C885 0.961 . S
H893 C885 0.960 . S
H894 C886 0.930 . S
H895 C887 0.929 . S
H896 C904 0.929 . S
H897 C906 0.930 . S
H898 C908 0.930 . S
H899 C911 0.929 . S
H900 C914 0.930 . S
H901 C916 0.960 . S
H902 C916 0.960 . S
H903 C916 0.960 . S
C904 H896 0.929 . S
C904 C905 1.377 . S
C904 C906 1.384 . S
C905 C904 1.377 . S
C905 C911 1.390 . S
C906 H897 0.930 . S
C906 C904 1.384 . S
C906 C907 1.372 . S
C907 C906 1.372 . S
C907 C908 1.400 . S
C907 C912 1.490 . S
C908 H898 0.930 . S
C908 C907 1.400 . S
C908 C911 1.386 . S
H909 C925 0.930 . S
H910 C926 0.931 . S
C911 H899 0.929 . S
C911 C905 1.390 . S
C911 C908 1.386 . S
C912 C907 1.490 . S
C912 C914 1.395 . S
C912 C915 1.403 . S
H913 C919 0.930 . S
C914 H900 0.930 . S
C914 C912 1.395 . S
C914 C917 1.403 . S
C915 C912 1.403 . S
C915 C916 1.524 . S
C915 C919 1.400 . S
C916 H901 0.960 . S
C916 H902 0.960 . S
C916 H903 0.960 . S
C916 C915 1.524 . S
C917 C914 1.403 . S
C917 C918 1.392 . S
C917 C921 1.495 . S
C918 C917 1.392 . S
C918 C919 1.385 . S
C918 C920 1.478 . S
C919 H913 0.930 . S
C919 C915 1.400 . S
C919 C918 1.385 . S
C920 C918 1.478 . S
C920 C922 1.381 . S
C920 C926 1.383 . S
C921 C917 1.495 . S
C921 H927 0.959 . S
C921 H928 0.961 . S
C921 H929 0.960 . S
C922 C920 1.381 . S
C922 C923 1.394 . S
C922 H930 0.930 . S
C923 C922 1.394 . S
C923 C924 1.383 . S
C923 H931 0.929 . S
C924 C923 1.383 . S
C924 C925 1.377 . S
C925 H909 0.930 . S
C925 C924 1.377 . S
C925 C926 1.379 . S
C926 H910 0.931 . S
C926 C920 1.383 . S
C926 C925 1.379 . S
H927 C921 0.959 . S
H928 C921 0.961 . S
H929 C921 0.960 . S
H930 C922 0.930 . S
H931 C923 0.929 . S
H932 C940 0.929 . S
H933 C942 0.930 . S
H934 C944 0.930 . S
H935 C947 0.929 . S
H936 C950 0.930 . S
H937 C952 0.960 . S
H938 C952 0.960 . S
H939 C952 0.960 . S
C940 H932 0.929 . S
C940 C941 1.377 1_545 S
C940 C942 1.384 . S
C941 C940 1.377 1_565 S
C941 C947 1.390 . S
C942 H933 0.930 . S
C942 C940 1.384 . S
C942 C943 1.372 . S
C943 C942 1.372 . S
C943 C944 1.400 1_545 S
C943 C948 1.490 . S
C944 H934 0.930 . S
C944 C943 1.400 1_565 S
C944 C947 1.386 . S
H945 C961 0.930 . S
H946 C962 0.931 . S
C947 H935 0.929 . S
C947 C941 1.390 . S
C947 C944 1.386 . S
C948 C943 1.490 . S
C948 C950 1.395 . S
C948 C951 1.403 . S
H949 C955 0.930 . S
C950 H936 0.930 . S
C950 C948 1.395 . S
C950 C953 1.403 . S
C951 C948 1.403 . S
C951 C952 1.524 . S
C951 C955 1.400 . S
C952 H937 0.960 . S
C952 H938 0.960 . S
C952 H939 0.960 . S
C952 C951 1.524 . S
C953 C950 1.403 . S
C953 C954 1.392 . S
C953 C957 1.495 . S
C954 C953 1.392 . S
C954 C955 1.385 . S
C954 C956 1.478 . S
C955 H949 0.930 . S
C955 C951 1.400 . S
C955 C954 1.385 . S
C956 C954 1.478 . S
C956 C958 1.381 . S
C956 C962 1.383 . S
C957 C953 1.495 . S
C957 H963 0.959 . S
C957 H964 0.961 . S
C957 H965 0.960 . S
C958 C956 1.381 . S
C958 C959 1.394 . S
C958 H966 0.930 . S
C959 C958 1.394 . S
C959 C960 1.383 . S
C959 H967 0.929 . S
C960 C959 1.383 . S
C960 C961 1.377 . S
C961 H945 0.930 . S
C961 C960 1.377 . S
C961 C962 1.379 . S
C962 H946 0.931 . S
C962 C956 1.383 . S
C962 C961 1.379 . S
H963 C957 0.959 . S
H964 C957 0.961 . S
H965 C957 0.960 . S
H966 C958 0.930 . S
H967 C959 0.929 . S
H968 C976 0.929 . S
H969 C978 0.930 . S
H970 C980 0.930 . S
H971 C983 0.929 . S
H972 C986 0.930 . S
H973 C988 0.960 . S
H974 C988 0.960 . S
H975 C988 0.960 . S
C976 H968 0.929 . S
C976 C977 1.377 . S
C976 C978 1.384 . S
C977 C976 1.377 . S
C977 C983 1.390 . S
C978 H969 0.930 . S
C978 C976 1.384 . S
C978 C979 1.372 . S
C979 C978 1.372 . S
C979 C980 1.400 . S
C979 C984 1.490 . S
C980 H970 0.930 . S
C980 C979 1.400 . S
C980 C983 1.386 . S
H981 C997 0.930 . S
H982 C998 0.931 . S
C983 H971 0.929 . S
C983 C977 1.390 . S
C983 C980 1.386 . S
C984 C979 1.490 . S
C984 C986 1.395 . S
C984 C987 1.403 . S
H985 C991 0.930 . S
C986 H972 0.930 . S
C986 C984 1.395 . S
C986 C989 1.403 . S
C987 C984 1.403 . S
C987 C988 1.524 . S
C987 C991 1.400 . S
C988 H973 0.960 . S
C988 H974 0.960 . S
C988 H975 0.960 . S
C988 C987 1.524 . S
C989 C986 1.403 . S
C989 C990 1.392 . S
C989 C993 1.495 . S
C990 C989 1.392 . S
C990 C991 1.385 . S
C990 C992 1.478 . S
C991 H985 0.930 . S
C991 C987 1.400 . S
C991 C990 1.385 . S
C992 C990 1.478 . S
C992 C994 1.381 . S
C992 C998 1.383 . S
C993 C989 1.495 . S
C993 H999 0.959 . S
C993 H1000 0.961 . S
C993 H1001 0.960 . S
C994 C992 1.381 . S
C994 C995 1.394 . S
C994 H1002 0.930 . S
C995 C994 1.394 . S
C995 C996 1.383 . S
C995 H1003 0.929 . S
C996 C995 1.383 . S
C996 C997 1.377 . S
C997 H981 0.930 . S
C997 C996 1.377 . S
C997 C998 1.379 . S
C998 H982 0.931 . S
C998 C992 1.383 . S
C998 C997 1.379 . S
H999 C993 0.959 . S
H1000 C993 0.961 . S
H1001 C993 0.960 . S
H1002 C994 0.930 . S
H1003 C995 0.929 . S
H1004 C1012 0.929 . S
H1005 C1014 0.930 . S
H1006 C1016 0.930 . S
H1007 C1019 0.929 . S
H1008 C1022 0.930 . S
H1009 C1024 0.960 . S
H1010 C1024 0.960 . S
H1011 C1024 0.960 . S
C1012 H1004 0.929 . S
C1012 C1013 1.377 . S
C1012 C1014 1.384 . S
C1013 C1012 1.377 . S
C1013 C1019 1.390 . S
C1014 H1005 0.930 . S
C1014 C1012 1.384 . S
C1014 C1015 1.372 . S
C1015 C1014 1.372 . S
C1015 C1016 1.400 . S
C1015 C1020 1.490 . S
C1016 H1006 0.930 . S
C1016 C1015 1.400 . S
C1016 C1019 1.386 . S
H1017 C1033 0.930 . S
H1018 C1034 0.931 . S
C1019 H1007 0.929 . S
C1019 C1013 1.390 . S
C1019 C1016 1.386 . S
C1020 C1015 1.490 . S
C1020 C1022 1.395 . S
C1020 C1023 1.403 . S
H1021 C1027 0.930 . S
C1022 H1008 0.930 . S
C1022 C1020 1.395 . S
C1022 C1025 1.403 . S
C1023 C1020 1.403 . S
C1023 C1024 1.524 . S
C1023 C1027 1.400 . S
C1024 H1009 0.960 . S
C1024 H1010 0.960 . S
C1024 H1011 0.960 . S
C1024 C1023 1.524 . S
C1025 C1022 1.403 . S
C1025 C1026 1.392 . S
C1025 C1029 1.495 . S
C1026 C1025 1.392 . S
C1026 C1027 1.385 . S
C1026 C1028 1.478 . S
C1027 H1021 0.930 . S
C1027 C1023 1.400 . S
C1027 C1026 1.385 . S
C1028 C1026 1.478 . S
C1028 C1030 1.381 . S
C1028 C1034 1.383 1_565 S
C1029 C1025 1.495 . S
C1029 H1035 0.959 . S
C1029 H1036 0.961 . S
C1029 H1037 0.960 . S
C1030 C1028 1.381 . S
C1030 C1031 1.394 . S
C1030 H1038 0.930 . S
C1031 C1030 1.394 . S
C1031 C1032 1.383 1_565 S
C1031 H1039 0.929 . S
C1032 C1031 1.383 1_545 S
C1032 C1033 1.377 . S
C1033 H1017 0.930 . S
C1033 C1032 1.377 . S
C1033 C1034 1.379 . S
C1034 H1018 0.931 . S
C1034 C1028 1.383 1_545 S
C1034 C1033 1.379 . S
H1035 C1029 0.959 . S
H1036 C1029 0.961 . S
H1037 C1029 0.960 . S
H1038 C1030 0.930 . S
H1039 C1031 0.929 . S
H1040 C1048 0.929 . S
H1041 C1050 0.930 1_556 S
H1042 C1052 0.930 . S
H1043 C1055 0.929 . S
H1044 C1058 0.930 . S
H1045 C1060 0.960 . S
H1046 C1060 0.960 . S
H1047 C1060 0.960 . S
C1048 H1040 0.929 . S
C1048 C1049 1.377 . S
C1048 C1050 1.384 . S
C1049 C1048 1.377 . S
C1049 C1055 1.390 . S
C1050 H1041 0.930 1_554 S
C1050 C1048 1.384 . S
C1050 C1051 1.372 . S
C1051 C1050 1.372 . S
C1051 C1052 1.400 . S
C1051 C1056 1.490 . S
C1052 H1042 0.930 . S
C1052 C1051 1.400 . S
C1052 C1055 1.386 . S
H1053 C1069 0.930 . S
H1054 C1070 0.931 . S
C1055 H1043 0.929 . S
C1055 C1049 1.390 . S
C1055 C1052 1.386 . S
C1056 C1051 1.490 . S
C1056 C1058 1.395 1_554 S
C1056 C1059 1.403 . S
H1057 C1063 0.930 . S
C1058 H1044 0.930 . S
C1058 C1056 1.395 1_556 S
C1058 C1061 1.403 . S
C1059 C1056 1.403 . S
C1059 C1060 1.524 . S
C1059 C1063 1.400 . S
C1060 H1045 0.960 . S
C1060 H1046 0.960 . S
C1060 H1047 0.960 . S
C1060 C1059 1.524 . S
C1061 C1058 1.403 . S
C1061 C1062 1.392 . S
C1061 C1065 1.495 . S
C1062 C1061 1.392 . S
C1062 C1063 1.385 1_556 S
C1062 C1064 1.478 . S
C1063 H1057 0.930 . S
C1063 C1059 1.400 . S
C1063 C1062 1.385 1_554 S
C1064 C1062 1.478 . S
C1064 C1066 1.381 . S
C1064 C1070 1.383 . S
C1065 C1061 1.495 . S
C1065 H1071 0.959 . S
C1065 H1072 0.961 . S
C1065 H1073 0.960 . S
C1066 C1064 1.381 . S
C1066 C1067 1.394 . S
C1066 H1074 0.930 . S
C1067 C1066 1.394 . S
C1067 C1068 1.383 . S
C1067 H1075 0.929 . S
C1068 C1067 1.383 . S
C1068 C1069 1.377 . S
C1069 H1053 0.930 . S
C1069 C1068 1.377 . S
C1069 C1070 1.379 . S
C1070 H1054 0.931 . S
C1070 C1064 1.383 . S
C1070 C1069 1.379 . S
H1071 C1065 0.959 . S
H1072 C1065 0.961 . S
H1073 C1065 0.960 . S
H1074 C1066 0.930 . S
H1075 C1067 0.929 . S
H1076 C1084 0.929 . S
H1077 C1086 0.930 . S
H1078 C1088 0.930 . S
H1079 C1091 0.929 1_455 S
H1080 C1094 0.930 . S
H1081 C1096 0.960 . S
H1082 C1096 0.960 . S
H1083 C1096 0.960 . S
C1084 H1076 0.929 . S
C1084 C1085 1.377 1_655 S
C1084 C1086 1.384 . S
C1085 C1084 1.377 1_455 S
C1085 C1091 1.390 1_455 S
C1086 H1077 0.930 . S
C1086 C1084 1.384 . S
C1086 C1087 1.372 . S
C1087 C1086 1.372 . S
C1087 C1088 1.400 . S
C1087 C1092 1.490 . S
C1088 H1078 0.930 . S
C1088 C1087 1.400 . S
C1088 C1091 1.386 . S
H1089 C1105 0.930 . S
H1090 C1106 0.931 . S
C1091 H1079 0.929 1_655 S
C1091 C1085 1.390 1_655 S
C1091 C1088 1.386 . S
C1092 C1087 1.490 . S
C1092 C1094 1.395 . S
C1092 C1095 1.403 . S
H1093 C1099 0.930 . S
C1094 H1080 0.930 . S
C1094 C1092 1.395 . S
C1094 C1097 1.403 . S
C1095 C1092 1.403 . S
C1095 C1096 1.524 . S
C1095 C1099 1.400 . S
C1096 H1081 0.960 . S
C1096 H1082 0.960 . S
C1096 H1083 0.960 . S
C1096 C1095 1.524 . S
C1097 C1094 1.403 . S
C1097 C1098 1.392 . S
C1097 C1101 1.495 . S
C1098 C1097 1.392 . S
C1098 C1099 1.385 . S
C1098 C1100 1.478 . S
C1099 H1093 0.930 . S
C1099 C1095 1.400 . S
C1099 C1098 1.385 . S
C1100 C1098 1.478 . S
C1100 C1102 1.381 . S
C1100 C1106 1.383 . S
C1101 C1097 1.495 . S
C1101 H1107 0.959 . S
C1101 H1108 0.961 . S
C1101 H1109 0.960 . S
C1102 C1100 1.381 . S
C1102 C1103 1.394 . S
C1102 H1110 0.930 . S
C1103 C1102 1.394 . S
C1103 C1104 1.383 . S
C1103 H1111 0.929 . S
C1104 C1103 1.383 . S
C1104 C1105 1.377 . S
C1105 H1089 0.930 . S
C1105 C1104 1.377 . S
C1105 C1106 1.379 . S
C1106 H1090 0.931 . S
C1106 C1100 1.383 . S
C1106 C1105 1.379 . S
H1107 C1101 0.959 . S
H1108 C1101 0.961 . S
H1109 C1101 0.960 . S
H1110 C1102 0.930 . S
H1111 C1103 0.929 . S
H1112 C1120 0.929 . S
H1113 C1122 0.930 . S
H1114 C1124 0.930 . S
H1115 C1127 0.929 . S
H1116 C1130 0.930 . S
H1117 C1132 0.960 . S
H1118 C1132 0.960 . S
H1119 C1132 0.960 . S
C1120 H1112 0.929 . S
C1120 C1121 1.377 . S
C1120 C1122 1.384 . S
C1121 C1120 1.377 . S
C1121 C1127 1.390 . S
C1122 H1113 0.930 . S
C1122 C1120 1.384 . S
C1122 C1123 1.372 . S
C1123 C1122 1.372 . S
C1123 C1124 1.400 . S
C1123 C1128 1.490 . S
C1124 H1114 0.930 . S
C1124 C1123 1.400 . S
C1124 C1127 1.386 . S
H1125 C1141 0.930 . S
H1126 C1142 0.931 . S
C1127 H1115 0.929 . S
C1127 C1121 1.390 . S
C1127 C1124 1.386 . S
C1128 C1123 1.490 . S
C1128 C1130 1.395 . S
C1128 C1131 1.403 . S
H1129 C1135 0.930 . S
C1130 H1116 0.930 . S
C1130 C1128 1.395 . S
C1130 C1133 1.403 . S
C1131 C1128 1.403 . S
C1131 C1132 1.524 . S
C1131 C1135 1.400 . S
C1132 H1117 0.960 . S
C1132 H1118 0.960 . S
C1132 H1119 0.960 . S
C1132 C1131 1.524 . S
C1133 C1130 1.403 . S
C1133 C1134 1.392 . S
C1133 C1137 1.495 . S
C1134 C1133 1.392 . S
C1134 C1135 1.385 . S
C1134 C1136 1.478 . S
C1135 H1129 0.930 . S
C1135 C1131 1.400 . S
C1135 C1134 1.385 . S
C1136 C1134 1.478 . S
C1136 C1138 1.381 . S
C1136 C1142 1.383 . S
C1137 C1133 1.495 . S
C1137 H1143 0.959 . S
C1137 H1144 0.961 . S
C1137 H1145 0.960 . S
C1138 C1136 1.381 . S
C1138 C1139 1.394 . S
C1138 H1146 0.930 . S
C1139 C1138 1.394 . S
C1139 C1140 1.383 . S
C1139 H1147 0.929 . S
C1140 C1139 1.383 . S
C1140 C1141 1.377 . S
C1141 H1125 0.930 . S
C1141 C1140 1.377 . S
C1141 C1142 1.379 . S
C1142 H1126 0.931 . S
C1142 C1136 1.383 . S
C1142 C1141 1.379 . S
H1143 C1137 0.959 . S
H1144 C1137 0.961 . S
H1145 C1137 0.960 . S
H1146 C1138 0.930 . S
H1147 C1139 0.929 . S
H1148 C1156 0.929 . S
H1149 C1158 0.930 . S
H1150 C1160 0.930 . S
H1151 C1163 0.929 . S
H1152 C1166 0.930 . S
H1153 C1168 0.960 . S
H1154 C1168 0.960 . S
H1155 C1168 0.960 . S
C1156 H1148 0.929 . S
C1156 C1157 1.377 . S
C1156 C1158 1.384 . S
C1157 C1156 1.377 . S
C1157 C1163 1.390 . S
C1158 H1149 0.930 . S
C1158 C1156 1.384 . S
C1158 C1159 1.372 . S
C1159 C1158 1.372 . S
C1159 C1160 1.400 . S
C1159 C1164 1.490 . S
C1160 H1150 0.930 . S
C1160 C1159 1.400 . S
C1160 C1163 1.386 . S
H1161 C1177 0.930 . S
H1162 C1178 0.931 . S
C1163 H1151 0.929 . S
C1163 C1157 1.390 . S
C1163 C1160 1.386 . S
C1164 C1159 1.490 . S
C1164 C1166 1.395 . S
C1164 C1167 1.403 . S
H1165 C1171 0.930 . S
C1166 H1152 0.930 . S
C1166 C1164 1.395 . S
C1166 C1169 1.403 . S
C1167 C1164 1.403 . S
C1167 C1168 1.524 . S
C1167 C1171 1.400 . S
C1168 H1153 0.960 . S
C1168 H1154 0.960 . S
C1168 H1155 0.960 . S
C1168 C1167 1.524 . S
C1169 C1166 1.403 . S
C1169 C1170 1.392 . S
C1169 C1173 1.495 . S
C1170 C1169 1.392 . S
C1170 C1171 1.385 . S
C1170 C1172 1.478 . S
C1171 H1165 0.930 . S
C1171 C1167 1.400 . S
C1171 C1170 1.385 . S
C1172 C1170 1.478 . S
C1172 C1174 1.381 . S
C1172 C1178 1.383 . S
C1173 C1169 1.495 . S
C1173 H1179 0.959 . S
C1173 H1180 0.961 . S
C1173 H1181 0.960 . S
C1174 C1172 1.381 . S
C1174 C1175 1.394 . S
C1174 H1182 0.930 . S
C1175 C1174 1.394 . S
C1175 C1176 1.383 . S
C1175 H1183 0.929 . S
C1176 C1175 1.383 . S
C1176 C1177 1.377 . S
C1177 H1161 0.930 . S
C1177 C1176 1.377 . S
C1177 C1178 1.379 . S
C1178 H1162 0.931 . S
C1178 C1172 1.383 . S
C1178 C1177 1.379 . S
H1179 C1173 0.959 . S
H1180 C1173 0.961 . S
H1181 C1173 0.960 . S
H1182 C1174 0.930 . S
H1183 C1175 0.929 . S
H1184 C1192 0.929 . S
H1185 C1194 0.930 . S
H1186 C1196 0.930 . S
H1187 C1199 0.929 . S
H1188 C1202 0.930 . S
H1189 C1204 0.960 . S
H1190 C1204 0.960 . S
H1191 C1204 0.960 . S
C1192 H1184 0.929 . S
C1192 C1193 1.377 . S
C1192 C1194 1.384 . S
C1193 C1192 1.377 . S
C1193 C1199 1.390 . S
C1194 H1185 0.930 . S
C1194 C1192 1.384 . S
C1194 C1195 1.372 . S
C1195 C1194 1.372 . S
C1195 C1196 1.400 . S
C1195 C1200 1.490 . S
C1196 H1186 0.930 . S
C1196 C1195 1.400 . S
C1196 C1199 1.386 . S
H1197 C1213 0.930 . S
H1198 C1214 0.931 . S
C1199 H1187 0.929 . S
C1199 C1193 1.390 . S
C1199 C1196 1.386 . S
C1200 C1195 1.490 . S
C1200 C1202 1.395 . S
C1200 C1203 1.403 1_554 S
H1201 C1207 0.930 . S
C1202 H1188 0.930 . S
C1202 C1200 1.395 . S
C1202 C1205 1.403 . S
C1203 C1200 1.403 1_556 S
C1203 C1204 1.524 . S
C1203 C1207 1.400 . S
C1204 H1189 0.960 . S
C1204 H1190 0.960 . S
C1204 H1191 0.960 . S
C1204 C1203 1.524 . S
C1205 C1202 1.403 . S
C1205 C1206 1.392 1_554 S
C1205 C1209 1.495 . S
C1206 C1205 1.392 1_556 S
C1206 C1207 1.385 . S
C1206 C1208 1.478 . S
C1207 H1201 0.930 . S
C1207 C1203 1.400 . S
C1207 C1206 1.385 . S
C1208 C1206 1.478 . S
C1208 C1210 1.381 . S
C1208 C1214 1.383 . S
C1209 C1205 1.495 . S
C1209 H1215 0.959 . S
C1209 H1216 0.961 . S
C1209 H1217 0.960 . S
C1210 C1208 1.381 . S
C1210 C1211 1.394 . S
C1210 H1218 0.930 . S
C1211 C1210 1.394 . S
C1211 C1212 1.383 . S
C1211 H1219 0.929 . S
C1212 C1211 1.383 . S
C1212 C1213 1.377 . S
C1213 H1197 0.930 . S
C1213 C1212 1.377 . S
C1213 C1214 1.379 . S
C1214 H1198 0.931 . S
C1214 C1208 1.383 . S
C1214 C1213 1.379 . S
H1215 C1209 0.959 . S
H1216 C1209 0.961 . S
H1217 C1209 0.960 . S
H1218 C1210 0.930 . S
H1219 C1211 0.929 . S
H1220 C1228 0.936 . S
H1221 C1230 0.930 . S
H1222 C1232 0.930 . S
H1223 C1235 0.929 . S
H1224 C1238 0.930 . S
H1225 C1240 0.960 . S
H1226 C1240 0.960 . S
H1227 C1240 0.960 . S
C1228 H1220 0.936 . S
C1228 C1229 1.377 1_455 S
C1228 C1230 1.384 . S
C1229 C1228 1.377 1_655 S
C1229 C1235 1.390 1_655 S
C1230 H1221 0.930 . S
C1230 C1228 1.384 . S
C1230 C1231 1.372 . S
C1231 C1230 1.372 . S
C1231 C1232 1.400 . S
C1231 C1236 1.490 . S
C1232 H1222 0.930 . S
C1232 C1231 1.400 . S
C1232 C1235 1.386 . S
H1233 C1249 0.930 . S
H1234 C1250 0.931 . S
C1235 H1223 0.929 . S
C1235 C1229 1.390 1_455 S
C1235 C1232 1.386 . S
C1236 C1231 1.490 . S
C1236 C1238 1.395 . S
C1236 C1239 1.403 . S
H1237 C1243 0.930 . S
C1238 H1224 0.930 . S
C1238 C1236 1.395 . S
C1238 C1241 1.403 . S
C1239 C1236 1.403 . S
C1239 C1240 1.524 . S
C1239 C1243 1.400 . S
C1240 H1225 0.960 . S
C1240 H1226 0.960 . S
C1240 H1227 0.960 . S
C1240 C1239 1.524 . S
C1241 C1238 1.403 . S
C1241 C1242 1.392 . S
C1241 C1245 1.495 . S
C1242 C1241 1.392 . S
C1242 C1243 1.385 . S
C1242 C1244 1.478 . S
C1243 H1237 0.930 . S
C1243 C1239 1.400 . S
C1243 C1242 1.385 . S
C1244 C1242 1.478 . S
C1244 C1246 1.381 . S
C1244 C1250 1.383 . S
C1245 C1241 1.495 . S
C1245 H1251 0.959 . S
C1245 H1252 0.961 . S
C1245 H1253 0.960 . S
C1246 C1244 1.381 . S
C1246 C1247 1.394 . S
C1246 H1254 0.930 . S
C1247 C1246 1.394 . S
C1247 C1248 1.383 . S
C1247 H1255 0.929 . S
C1248 C1247 1.383 . S
C1248 C1249 1.377 . S
C1249 H1233 0.930 . S
C1249 C1248 1.377 . S
C1249 C1250 1.379 . S
C1250 H1234 0.931 . S
C1250 C1244 1.383 . S
C1250 C1249 1.379 . S
H1251 C1245 0.959 . S
H1252 C1245 0.961 . S
H1253 C1245 0.960 . S
H1254 C1246 0.930 . S
H1255 C1247 0.929 . S
H1256 C1264 0.929 . S
H1257 C1266 0.930 . S
H1258 C1268 0.930 . S
H1259 C1271 0.929 . S
H1260 C1274 0.930 . S
H1261 C1276 0.960 . S
H1262 C1276 0.960 . S
H1263 C1276 0.960 . S
C1264 H1256 0.929 . S
C1264 C1265 1.377 . S
C1264 C1266 1.384 . S
C1265 C1264 1.377 . S
C1265 C1271 1.390 . S
C1266 H1257 0.930 . S
C1266 C1264 1.384 . S
C1266 C1267 1.372 . S
C1267 C1266 1.372 . S
C1267 C1268 1.400 . S
C1267 C1272 1.490 . S
C1268 H1258 0.930 . S
C1268 C1267 1.400 . S
C1268 C1271 1.386 . S
H1269 C1285 0.930 . S
H1270 C1286 0.931 . S
C1271 H1259 0.929 . S
C1271 C1265 1.390 . S
C1271 C1268 1.386 . S
C1272 C1267 1.490 . S
C1272 C1274 1.395 . S
C1272 C1275 1.403 . S
H1273 C1279 0.930 . S
C1274 H1260 0.930 . S
C1274 C1272 1.395 . S
C1274 C1277 1.403 . S
C1275 C1272 1.403 . S
C1275 C1276 1.524 . S
C1275 C1279 1.400 . S
C1276 H1261 0.960 . S
C1276 H1262 0.960 . S
C1276 H1263 0.960 . S
C1276 C1275 1.524 . S
C1277 C1274 1.403 . S
C1277 C1278 1.392 . S
C1277 C1281 1.495 . S
C1278 C1277 1.392 . S
C1278 C1279 1.385 . S
C1278 C1280 1.478 . S
C1279 H1273 0.930 . S
C1279 C1275 1.400 . S
C1279 C1278 1.385 . S
C1280 C1278 1.478 . S
C1280 C1282 1.381 . S
C1280 C1286 1.383 . S
C1281 C1277 1.495 . S
C1281 H1287 0.959 . S
C1281 H1288 0.961 . S
C1281 H1289 0.960 . S
C1282 C1280 1.381 . S
C1282 C1283 1.394 . S
C1282 H1290 0.930 . S
C1283 C1282 1.394 . S
C1283 C1284 1.383 . S
C1283 H1291 0.929 . S
C1284 C1283 1.383 . S
C1284 C1285 1.377 . S
C1285 H1269 0.930 . S
C1285 C1284 1.377 . S
C1285 C1286 1.379 . S
C1286 H1270 0.931 . S
C1286 C1280 1.383 . S
C1286 C1285 1.379 . S
H1287 C1281 0.959 . S
H1288 C1281 0.961 . S
H1289 C1281 0.960 . S
H1290 C1282 0.930 . S
H1291 C1283 0.929 . S
H1292 C1300 0.929 . S
H1293 C1302 0.930 . S
H1294 C1304 0.930 . S
H1295 C1307 0.929 . S
H1296 C1310 0.930 . S
H1297 C1312 0.960 . S
H1298 C1312 0.960 . S
H1299 C1312 0.960 . S
C1300 H1292 0.929 . S
C1300 C1301 1.377 . S
C1300 C1302 1.384 . S
C1301 C1300 1.377 . S
C1301 C1307 1.390 . S
C1302 H1293 0.930 . S
C1302 C1300 1.384 . S
C1302 C1303 1.372 . S
C1303 C1302 1.372 . S
C1303 C1304 1.400 . S
C1303 C1308 1.490 . S
C1304 H1294 0.930 . S
C1304 C1303 1.400 . S
C1304 C1307 1.386 . S
H1305 C1321 0.930 . S
H1306 C1322 0.931 . S
C1307 H1295 0.929 . S
C1307 C1301 1.390 . S
C1307 C1304 1.386 . S
C1308 C1303 1.490 . S
C1308 C1310 1.395 . S
C1308 C1311 1.403 . S
H1309 C1315 0.930 . S
C1310 H1296 0.930 . S
C1310 C1308 1.395 . S
C1310 C1313 1.403 . S
C1311 C1308 1.403 . S
C1311 C1312 1.524 . S
C1311 C1315 1.400 . S
C1312 H1297 0.960 . S
C1312 H1298 0.960 . S
C1312 H1299 0.960 . S
C1312 C1311 1.524 . S
C1313 C1310 1.403 . S
C1313 C1314 1.392 . S
C1313 C1317 1.495 . S
C1314 C1313 1.392 . S
C1314 C1315 1.385 . S
C1314 C1316 1.478 . S
C1315 H1309 0.930 . S
C1315 C1311 1.400 . S
C1315 C1314 1.385 . S
C1316 C1314 1.478 . S
C1316 C1318 1.381 . S
C1316 C1322 1.383 . S
C1317 C1313 1.495 . S
C1317 H1323 0.959 . S
C1317 H1324 0.961 . S
C1317 H1325 0.960 . S
C1318 C1316 1.381 . S
C1318 C1319 1.394 . S
C1318 H1326 0.930 . S
C1319 C1318 1.394 . S
C1319 C1320 1.383 . S
C1319 H1327 0.929 . S
C1320 C1319 1.383 . S
C1320 C1321 1.377 . S
C1321 H1305 0.930 . S
C1321 C1320 1.377 . S
C1321 C1322 1.379 . S
C1322 H1306 0.931 . S
C1322 C1316 1.383 . S
C1322 C1321 1.379 . S
H1323 C1317 0.959 . S
H1324 C1317 0.961 . S
H1325 C1317 0.960 . S
H1326 C1318 0.930 . S
H1327 C1319 0.929 . S
H1328 C1336 0.929 . S
H1329 C1338 0.930 . S
H1330 C1340 0.930 . S
H1331 C1343 0.929 . S
H1332 C1346 0.930 . S
H1333 C1348 0.960 . S
H1334 C1348 0.960 . S
H1335 C1348 0.960 . S
C1336 H1328 0.929 . S
C1336 C1337 1.377 . S
C1336 C1338 1.384 . S
C1337 C1336 1.377 . S
C1337 C1343 1.390 . S
C1338 H1329 0.930 . S
C1338 C1336 1.384 . S
C1338 C1339 1.372 . S
C1339 C1338 1.372 . S
C1339 C1340 1.400 . S
C1339 C1344 1.490 . S
C1340 H1330 0.930 . S
C1340 C1339 1.400 . S
C1340 C1343 1.386 . S
H1341 C1357 0.930 . S
H1342 C1358 0.931 . S
C1343 H1331 0.929 . S
C1343 C1337 1.390 . S
C1343 C1340 1.386 . S
C1344 C1339 1.490 . S
C1344 C1346 1.395 . S
C1344 C1347 1.403 . S
H1345 C1351 0.930 . S
C1346 H1332 0.930 . S
C1346 C1344 1.395 . S
C1346 C1349 1.403 . S
C1347 C1344 1.403 . S
C1347 C1348 1.524 . S
C1347 C1351 1.400 . S
C1348 H1333 0.960 . S
C1348 H1334 0.960 . S
C1348 H1335 0.960 . S
C1348 C1347 1.524 . S
C1349 C1346 1.403 . S
C1349 C1350 1.392 . S
C1349 C1353 1.495 . S
C1350 C1349 1.392 . S
C1350 C1351 1.385 . S
C1350 C1352 1.478 . S
C1351 H1345 0.930 . S
C1351 C1347 1.400 . S
C1351 C1350 1.385 . S
C1352 C1350 1.478 . S
C1352 C1354 1.381 . S
C1352 C1358 1.383 . S
C1353 C1349 1.495 . S
C1353 H1359 0.959 . S
C1353 H1360 0.961 . S
C1353 H1361 0.960 . S
C1354 C1352 1.381 . S
C1354 C1355 1.394 . S
C1354 H1362 0.930 . S
C1355 C1354 1.394 . S
C1355 C1356 1.383 . S
C1355 H1363 0.929 . S
C1356 C1355 1.383 . S
C1356 C1357 1.377 . S
C1357 H1341 0.930 . S
C1357 C1356 1.377 . S
C1357 C1358 1.379 . S
C1358 H1342 0.931 . S
C1358 C1352 1.383 . S
C1358 C1357 1.379 . S
H1359 C1353 0.959 . S
H1360 C1353 0.961 . S
H1361 C1353 0.960 . S
H1362 C1354 0.930 . S
H1363 C1355 0.929 . S
H1364 C1372 0.929 . S
H1365 C1374 0.930 . S
H1366 C1376 0.932 1_565 S
H1367 C1379 0.929 . S
H1368 C1382 0.930 . S
H1369 C1384 0.960 . S
H1370 C1384 0.960 . S
H1371 C1384 0.960 . S
C1372 H1364 0.929 . S
C1372 C1373 1.377 . S
C1372 C1374 1.384 . S
C1373 C1372 1.377 . S
C1373 C1379 1.390 1_545 S
C1374 H1365 0.930 . S
C1374 C1372 1.384 . S
C1374 C1375 1.372 . S
C1375 C1374 1.372 . S
C1375 C1376 1.397 . S
C1375 C1380 1.490 . S
C1376 H1366 0.932 1_545 S
C1376 C1375 1.397 . S
C1376 C1379 1.386 1_545 S
H1377 C1393 0.930 1_565 S
H1378 C1394 0.931 1_565 S
C1379 H1367 0.929 . S
C1379 C1373 1.390 1_565 S
C1379 C1376 1.386 1_565 S
C1380 C1375 1.490 . S
C1380 C1382 1.395 . S
C1380 C1383 1.403 . S
H1381 C1387 0.930 1_565 S
C1382 H1368 0.930 . S
C1382 C1380 1.395 . S
C1382 C1385 1.403 . S
C1383 C1380 1.403 . S
C1383 C1384 1.524 1_545 S
C1383 C1387 1.400 . S
C1384 H1369 0.960 . S
C1384 H1370 0.960 . S
C1384 H1371 0.960 . S
C1384 C1383 1.524 1_565 S
C1385 C1382 1.403 . S
C1385 C1386 1.392 . S
C1385 C1389 1.495 . S
C1386 C1385 1.392 . S
C1386 C1387 1.385 . S
C1386 C1388 1.478 . S
C1387 H1381 0.930 1_545 S
C1387 C1383 1.400 . S
C1387 C1386 1.385 . S
C1388 C1386 1.478 . S
C1388 C1390 1.381 . S
C1388 C1394 1.383 . S
C1389 C1385 1.495 . S
C1389 H1395 0.959 . S
C1389 H1396 0.961 . S
C1389 H1397 0.960 . S
C1390 C1388 1.381 . S
C1390 C1391 1.394 . S
C1390 H1398 0.930 . S
C1391 C1390 1.394 . S
C1391 C1392 1.383 . S
C1391 H1399 0.929 . S
C1392 C1391 1.383 . S
C1392 C1393 1.377 . S
C1393 H1377 0.930 1_545 S
C1393 C1392 1.377 . S
C1393 C1394 1.379 . S
C1394 H1378 0.931 1_545 S
C1394 C1388 1.383 . S
C1394 C1393 1.379 . S
H1395 C1389 0.959 . S
H1396 C1389 0.961 . S
H1397 C1389 0.960 . S
H1398 C1390 0.930 . S
H1399 C1391 0.929 . S
H1400 C1408 0.929 . S
H1401 C1410 0.930 1_554 S
H1402 C1412 0.930 . S
H1403 C1415 0.929 . S
H1404 C1418 0.930 . S
H1405 C1420 0.960 . S
H1406 C1420 0.960 . S
H1407 C1420 0.960 . S
C1408 H1400 0.929 . S
C1408 C1409 1.377 . S
C1408 C1410 1.384 . S
C1409 C1408 1.377 . S
C1409 C1415 1.390 . S
C1410 H1401 0.930 1_556 S
C1410 C1408 1.384 . S
C1410 C1411 1.372 . S
C1411 C1410 1.372 . S
C1411 C1412 1.400 . S
C1411 C1416 1.490 . S
C1412 H1402 0.930 . S
C1412 C1411 1.400 . S
C1412 C1415 1.386 . S
H1413 C1429 0.930 . S
H1414 C1430 0.931 1_556 S
C1415 H1403 0.929 . S
C1415 C1409 1.390 . S
C1415 C1412 1.386 . S
C1416 C1411 1.490 . S
C1416 C1418 1.395 1_556 S
C1416 C1419 1.403 . S
H1417 C1423 0.930 . S
C1418 H1404 0.930 . S
C1418 C1416 1.395 1_554 S
C1418 C1421 1.403 . S
C1419 C1416 1.403 . S
C1419 C1420 1.524 . S
C1419 C1423 1.400 . S
C1420 H1405 0.960 . S
C1420 H1406 0.960 . S
C1420 H1407 0.960 . S
C1420 C1419 1.524 . S
C1421 C1418 1.403 . S
C1421 C1422 1.392 . S
C1421 C1425 1.495 . S
C1422 C1421 1.392 . S
C1422 C1423 1.385 1_554 S
C1422 C1424 1.478 . S
C1423 H1417 0.930 . S
C1423 C1419 1.400 . S
C1423 C1422 1.385 1_556 S
C1424 C1422 1.478 . S
C1424 C1426 1.381 . S
C1424 C1430 1.383 . S
C1425 C1421 1.495 . S
C1425 H1431 0.959 . S
C1425 H1432 0.961 . S
C1425 H1433 0.960 . S
C1426 C1424 1.381 . S
C1426 C1427 1.394 . S
C1426 H1434 0.930 . S
C1427 C1426 1.394 . S
C1427 C1428 1.383 . S
C1427 H1435 0.929 . S
C1428 C1427 1.383 . S
C1428 C1429 1.377 . S
C1429 H1413 0.930 . S
C1429 C1428 1.377 . S
C1429 C1430 1.379 . S
C1430 H1414 0.931 1_554 S
C1430 C1424 1.383 . S
C1430 C1429 1.379 . S
H1431 C1425 0.959 . S
H1432 C1425 0.961 . S
H1433 C1425 0.960 . S
H1434 C1426 0.930 . S
H1435 C1427 0.929 . S
H1436 C1444 0.929 . S
H1437 C1446 0.930 . S
H1438 C1448 0.930 . S
H1439 C1451 0.929 1_655 S
H1440 C1454 0.919 1_545 S
H1441 C1456 0.960 . S
H1442 C1456 0.960 . S
H1443 C1456 0.960 . S
C1444 H1436 0.929 . S
C1444 C1445 1.377 1_455 S
C1444 C1446 1.384 . S
C1445 C1444 1.377 1_655 S
C1445 C1451 1.390 1_655 S
C1446 H1437 0.930 . S
C1446 C1444 1.384 . S
C1446 C1447 1.372 . S
C1447 C1446 1.372 . S
C1447 C1448 1.400 . S
C1447 C1452 1.490 . S
C1448 H1438 0.930 . S
C1448 C1447 1.400 . S
C1448 C1451 1.386 . S
H1449 C1465 0.930 . S
H1450 C1466 0.931 . S
C1451 H1439 0.929 1_455 S
C1451 C1445 1.390 1_455 S
C1451 C1448 1.386 . S
C1452 C1447 1.490 . S
C1452 C1454 1.407 . S
C1452 C1455 1.403 . S
H1453 C1459 0.930 . S
C1454 H1440 0.919 1_565 S
C1454 C1452 1.407 . S
C1454 C1457 1.402 1_565 S
C1455 C1452 1.403 . S
C1455 C1456 1.524 . S
C1455 C1459 1.400 . S
C1456 H1441 0.960 . S
C1456 H1442 0.960 . S
C1456 H1443 0.960 . S
C1456 C1455 1.524 . S
C1457 C1454 1.402 1_545 S
C1457 C1458 1.392 1_545 S
C1457 C1461 1.495 . S
C1458 C1457 1.392 1_565 S
C1458 C1459 1.385 . S
C1458 C1460 1.478 . S
C1459 H1453 0.930 . S
C1459 C1455 1.400 . S
C1459 C1458 1.385 . S
C1460 C1458 1.478 . S
C1460 C1462 1.381 . S
C1460 C1466 1.383 . S
C1461 C1457 1.495 . S
C1461 H1467 0.959 . S
C1461 H1468 0.961 . S
C1461 H1469 0.960 . S
C1462 C1460 1.381 . S
C1462 C1463 1.394 . S
C1462 H1470 0.930 . S
C1463 C1462 1.394 . S
C1463 C1464 1.383 . S
C1463 H1471 0.929 . S
C1464 C1463 1.383 . S
C1464 C1465 1.377 . S
C1465 H1449 0.930 . S
C1465 C1464 1.377 . S
C1465 C1466 1.379 . S
C1466 H1450 0.931 . S
C1466 C1460 1.383 . S
C1466 C1465 1.379 . S
H1467 C1461 0.959 . S
H1468 C1461 0.961 . S
H1469 C1461 0.960 . S
H1470 C1462 0.930 . S
H1471 C1463 0.929 . S
H1472 C1480 0.929 . S
H1473 C1482 0.930 . S
H1474 C1484 0.930 . S
H1475 C1487 0.929 . S
H1476 C1490 0.930 . S
H1477 C1492 0.960 . S
H1478 C1492 0.960 . S
H1479 C1492 0.960 . S
C1480 H1472 0.929 . S
C1480 C1481 1.377 . S
C1480 C1482 1.384 . S
C1481 C1480 1.377 . S
C1481 C1487 1.390 . S
C1482 H1473 0.930 . S
C1482 C1480 1.384 . S
C1482 C1483 1.372 . S
C1483 C1482 1.372 . S
C1483 C1484 1.400 . S
C1483 C1488 1.490 . S
C1484 H1474 0.930 . S
C1484 C1483 1.400 . S
C1484 C1487 1.386 . S
H1485 C1501 0.930 . S
H1486 C1502 0.931 . S
C1487 H1475 0.929 . S
C1487 C1481 1.390 . S
C1487 C1484 1.386 . S
C1488 C1483 1.490 . S
C1488 C1490 1.395 . S
C1488 C1491 1.403 . S
H1489 C1495 0.930 . S
C1490 H1476 0.930 . S
C1490 C1488 1.395 . S
C1490 C1493 1.403 . S
C1491 C1488 1.403 . S
C1491 C1492 1.524 . S
C1491 C1495 1.400 . S
C1492 H1477 0.960 . S
C1492 H1478 0.960 . S
C1492 H1479 0.960 . S
C1492 C1491 1.524 . S
C1493 C1490 1.403 . S
C1493 C1494 1.392 . S
C1493 C1497 1.495 . S
C1494 C1493 1.392 . S
C1494 C1495 1.385 . S
C1494 C1496 1.478 . S
C1495 H1489 0.930 . S
C1495 C1491 1.400 . S
C1495 C1494 1.385 . S
C1496 C1494 1.478 . S
C1496 C1498 1.381 . S
C1496 C1502 1.383 . S
C1497 C1493 1.495 . S
C1497 H1503 0.959 . S
C1497 H1504 0.961 . S
C1497 H1505 0.960 . S
C1498 C1496 1.381 . S
C1498 C1499 1.394 . S
C1498 H1506 0.930 . S
C1499 C1498 1.394 . S
C1499 C1500 1.383 . S
C1499 H1507 0.929 . S
C1500 C1499 1.383 . S
C1500 C1501 1.377 . S
C1501 H1485 0.930 . S
C1501 C1500 1.377 . S
C1501 C1502 1.379 . S
C1502 H1486 0.931 . S
C1502 C1496 1.383 . S
C1502 C1501 1.379 . S
H1503 C1497 0.959 . S
H1504 C1497 0.961 . S
H1505 C1497 0.960 . S
H1506 C1498 0.930 . S
H1507 C1499 0.929 . S
H1508 C1516 0.929 . S
H1509 C1518 0.930 . S
H1510 C1520 0.930 . S
H1511 C1523 0.929 . S
H1512 C1526 0.930 . S
H1513 C1528 0.960 . S
H1514 C1528 0.960 . S
H1515 C1528 0.960 . S
C1516 H1508 0.929 . S
C1516 C1517 1.377 1_545 S
C1516 C1518 1.384 . S
C1517 C1516 1.377 1_565 S
C1517 C1523 1.390 . S
C1518 H1509 0.930 . S
C1518 C1516 1.384 . S
C1518 C1519 1.372 1_545 S
C1519 C1518 1.372 1_565 S
C1519 C1520 1.400 . S
C1519 C1524 1.490 . S
C1520 H1510 0.930 . S
C1520 C1519 1.400 . S
C1520 C1523 1.386 . S
H1521 C1537 0.930 . S
H1522 C1538 0.931 . S
C1523 H1511 0.929 . S
C1523 C1517 1.390 . S
C1523 C1520 1.386 . S
C1524 C1519 1.490 . S
C1524 C1526 1.395 . S
C1524 C1527 1.403 . S
H1525 C1531 0.930 . S
C1526 H1512 0.930 . S
C1526 C1524 1.395 . S
C1526 C1529 1.403 . S
C1527 C1524 1.403 . S
C1527 C1528 1.524 . S
C1527 C1531 1.400 . S
C1528 H1513 0.960 . S
C1528 H1514 0.960 . S
C1528 H1515 0.960 . S
C1528 C1527 1.524 . S
C1529 C1526 1.403 . S
C1529 C1530 1.392 . S
C1529 C1533 1.495 . S
C1530 C1529 1.392 . S
C1530 C1531 1.385 . S
C1530 C1532 1.478 . S
C1531 H1525 0.930 . S
C1531 C1527 1.400 . S
C1531 C1530 1.385 . S
C1532 C1530 1.478 . S
C1532 C1534 1.381 . S
C1532 C1538 1.383 . S
C1533 C1529 1.495 . S
C1533 H1539 0.959 . S
C1533 H1540 0.961 . S
C1533 H1541 0.960 1_565 S
C1534 C1532 1.381 . S
C1534 C1535 1.394 . S
C1534 H1542 0.930 1_565 S
C1535 C1534 1.394 . S
C1535 C1536 1.383 . S
C1535 H1543 0.929 1_565 S
C1536 C1535 1.383 . S
C1536 C1537 1.377 . S
C1537 H1521 0.930 . S
C1537 C1536 1.377 . S
C1537 C1538 1.379 . S
C1538 H1522 0.931 . S
C1538 C1532 1.383 . S
C1538 C1537 1.379 . S
H1539 C1533 0.959 . S
H1540 C1533 0.961 . S
H1541 C1533 0.960 1_545 S
H1542 C1534 0.930 1_545 S
H1543 C1535 0.929 1_545 S
H1544 C1552 0.929 . S
H1545 C1554 0.930 . S
H1546 C1556 0.930 . S
H1547 C1559 0.929 . S
H1548 C1562 0.930 . S
H1549 C1564 0.960 . S
H1550 C1564 0.960 . S
H1551 C1564 0.960 . S
C1552 H1544 0.929 . S
C1552 C1553 1.377 . S
C1552 C1554 1.384 . S
C1553 C1552 1.377 . S
C1553 C1559 1.390 . S
C1554 H1545 0.930 . S
C1554 C1552 1.384 . S
C1554 C1555 1.372 . S
C1555 C1554 1.372 . S
C1555 C1556 1.400 . S
C1555 C1560 1.490 . S
C1556 H1546 0.930 . S
C1556 C1555 1.400 . S
C1556 C1559 1.386 . S
H1557 C1573 0.930 . S
H1558 C1574 0.931 . S
C1559 H1547 0.929 . S
C1559 C1553 1.390 . S
C1559 C1556 1.386 . S
C1560 C1555 1.490 . S
C1560 C1562 1.395 . S
C1560 C1563 1.403 1_554 S
H1561 C1567 0.930 . S
C1562 H1548 0.930 . S
C1562 C1560 1.395 . S
C1562 C1565 1.403 . S
C1563 C1560 1.403 1_556 S
C1563 C1564 1.524 . S
C1563 C1567 1.400 . S
C1564 H1549 0.960 . S
C1564 H1550 0.960 . S
C1564 H1551 0.960 . S
C1564 C1563 1.524 . S
C1565 C1562 1.403 . S
C1565 C1566 1.392 1_554 S
C1565 C1569 1.495 . S
C1566 C1565 1.392 1_556 S
C1566 C1567 1.385 . S
C1566 C1568 1.478 . S
C1567 H1561 0.930 . S
C1567 C1563 1.400 . S
C1567 C1566 1.385 . S
C1568 C1566 1.478 . S
C1568 C1570 1.381 . S
C1568 C1574 1.383 . S
C1569 C1565 1.495 . S
C1569 H1575 0.959 . S
C1569 H1576 0.961 . S
C1569 H1577 0.960 . S
C1570 C1568 1.381 . S
C1570 C1571 1.394 . S
C1570 H1578 0.930 . S
C1571 C1570 1.394 . S
C1571 C1572 1.383 . S
C1571 H1579 0.929 . S
C1572 C1571 1.383 . S
C1572 C1573 1.377 . S
C1573 H1557 0.930 . S
C1573 C1572 1.377 . S
C1573 C1574 1.379 . S
C1574 H1558 0.931 . S
C1574 C1568 1.383 . S
C1574 C1573 1.379 . S
H1575 C1569 0.959 . S
H1576 C1569 0.961 . S
H1577 C1569 0.960 . S
H1578 C1570 0.930 . S
H1579 C1571 0.929 . S
H1580 C1588 0.929 . S
H1581 C1590 0.930 . S
H1582 C1592 0.930 . S
H1583 C1595 0.929 1_455 S
H1584 C1598 0.930 . S
H1585 C1600 0.960 . S
H1586 C1600 0.960 . S
H1587 C1600 0.960 . S
C1588 H1580 0.929 . S
C1588 C1589 1.377 1_655 S
C1588 C1590 1.384 . S
C1589 C1588 1.377 1_455 S
C1589 C1595 1.390 1_455 S
C1590 H1581 0.930 . S
C1590 C1588 1.384 . S
C1590 C1591 1.372 . S
C1591 C1590 1.372 . S
C1591 C1592 1.400 . S
C1591 C1596 1.490 . S
C1592 H1582 0.930 . S
C1592 C1591 1.400 . S
C1592 C1595 1.386 . S
H1593 C1609 0.930 . S
H1594 C1610 0.931 . S
C1595 H1583 0.929 1_655 S
C1595 C1589 1.390 1_655 S
C1595 C1592 1.386 . S
C1596 C1591 1.490 . S
C1596 C1598 1.395 . S
C1596 C1599 1.403 . S
H1597 C1603 0.930 1_565 S
C1598 H1584 0.930 . S
C1598 C1596 1.395 . S
C1598 C1601 1.403 . S
C1599 C1596 1.403 . S
C1599 C1600 1.524 1_545 S
C1599 C1603 1.400 . S
C1600 H1585 0.960 . S
C1600 H1586 0.960 . S
C1600 H1587 0.960 . S
C1600 C1599 1.524 1_565 S
C1601 C1598 1.403 . S
C1601 C1602 1.392 . S
C1601 C1605 1.495 . S
C1602 C1601 1.392 . S
C1602 C1603 1.385 . S
C1602 C1604 1.478 . S
C1603 H1597 0.930 1_545 S
C1603 C1599 1.400 . S
C1603 C1602 1.385 . S
C1604 C1602 1.478 . S
C1604 C1606 1.381 . S
C1604 C1610 1.383 . S
C1605 C1601 1.495 . S
C1605 H1611 0.959 . S
C1605 H1612 0.961 . S
C1605 H1613 0.960 . S
C1606 C1604 1.381 . S
C1606 C1607 1.394 . S
C1606 H1614 0.930 . S
C1607 C1606 1.394 . S
C1607 C1608 1.383 . S
C1607 H1615 0.929 . S
C1608 C1607 1.383 . S
C1608 C1609 1.377 . S
C1609 H1593 0.930 . S
C1609 C1608 1.377 . S
C1609 C1610 1.379 . S
C1610 H1594 0.931 . S
C1610 C1604 1.383 . S
C1610 C1609 1.379 . S
H1611 C1605 0.959 . S
H1612 C1605 0.961 . S
H1613 C1605 0.960 . S
H1614 C1606 0.930 . S
H1615 C1607 0.929 . S
H1616 C1624 0.929 . S
H1617 C1626 0.930 . S
H1618 C1628 0.930 . S
H1619 C1631 0.929 . S
H1620 C1634 0.930 . S
H1621 C1636 0.960 . S
H1622 C1636 0.960 . S
H1623 C1636 0.960 . S
C1624 H1616 0.929 . S
C1624 C1625 1.377 . S
C1624 C1626 1.384 . S
C1625 C1624 1.377 . S
C1625 C1631 1.390 . S
C1626 H1617 0.930 . S
C1626 C1624 1.384 . S
C1626 C1627 1.372 . S
C1627 C1626 1.372 . S
C1627 C1628 1.400 . S
C1627 C1632 1.490 . S
C1628 H1618 0.930 . S
C1628 C1627 1.400 . S
C1628 C1631 1.386 . S
H1629 C1645 0.930 . S
H1630 C1646 0.931 . S
C1631 H1619 0.929 . S
C1631 C1625 1.390 . S
C1631 C1628 1.386 . S
C1632 C1627 1.490 . S
C1632 C1634 1.395 . S
C1632 C1635 1.403 . S
H1633 C1639 0.930 . S
C1634 H1620 0.930 . S
C1634 C1632 1.395 . S
C1634 C1637 1.403 . S
C1635 C1632 1.403 . S
C1635 C1636 1.524 . S
C1635 C1639 1.400 . S
C1636 H1621 0.960 . S
C1636 H1622 0.960 . S
C1636 H1623 0.960 . S
C1636 C1635 1.524 . S
C1637 C1634 1.403 . S
C1637 C1638 1.392 . S
C1637 C1641 1.495 . S
C1638 C1637 1.392 . S
C1638 C1639 1.385 . S
C1638 C1640 1.478 . S
C1639 H1633 0.930 . S
C1639 C1635 1.400 . S
C1639 C1638 1.385 . S
C1640 C1638 1.478 . S
C1640 C1642 1.381 . S
C1640 C1646 1.383 . S
C1641 C1637 1.495 . S
C1641 H1647 0.959 . S
C1641 H1648 0.961 . S
C1641 H1649 0.960 . S
C1642 C1640 1.381 . S
C1642 C1643 1.394 . S
C1642 H1650 0.930 . S
C1643 C1642 1.394 . S
C1643 C1644 1.383 . S
C1643 H1651 0.929 . S
C1644 C1643 1.383 . S
C1644 C1645 1.377 . S
C1645 H1629 0.930 . S
C1645 C1644 1.377 . S
C1645 C1646 1.379 . S
C1646 H1630 0.931 . S
C1646 C1640 1.383 . S
C1646 C1645 1.379 . S
H1647 C1641 0.959 . S
H1648 C1641 0.961 . S
H1649 C1641 0.960 . S
H1650 C1642 0.930 . S
H1651 C1643 0.929 . S
H1652 C1660 0.929 . S
H1653 C1662 0.930 . S
H1654 C1664 0.930 . S
H1655 C1667 0.929 . S
H1656 C1670 0.930 . S
H1657 C1672 0.960 . S
H1658 C1672 0.960 . S
H1659 C1672 0.960 . S
C1660 H1652 0.929 . S
C1660 C1661 1.377 . S
C1660 C1662 1.384 . S
C1661 C1660 1.377 . S
C1661 C1667 1.390 . S
C1662 H1653 0.930 . S
C1662 C1660 1.384 . S
C1662 C1663 1.372 . S
C1663 C1662 1.372 . S
C1663 C1664 1.400 . S
C1663 C1668 1.490 . S
C1664 H1654 0.930 . S
C1664 C1663 1.400 . S
C1664 C1667 1.386 . S
H1665 C1681 0.930 . S
H1666 C1682 0.931 . S
C1667 H1655 0.929 . S
C1667 C1661 1.390 . S
C1667 C1664 1.386 . S
C1668 C1663 1.490 . S
C1668 C1670 1.395 . S
C1668 C1671 1.403 . S
H1669 C1675 0.930 . S
C1670 H1656 0.930 . S
C1670 C1668 1.395 . S
C1670 C1673 1.403 . S
C1671 C1668 1.403 . S
C1671 C1672 1.524 . S
C1671 C1675 1.400 . S
C1672 H1657 0.960 . S
C1672 H1658 0.960 . S
C1672 H1659 0.960 . S
C1672 C1671 1.524 . S
C1673 C1670 1.403 . S
C1673 C1674 1.392 . S
C1673 C1677 1.495 . S
C1674 C1673 1.392 . S
C1674 C1675 1.385 . S
C1674 C1676 1.478 . S
C1675 H1669 0.930 . S
C1675 C1671 1.400 . S
C1675 C1674 1.385 . S
C1676 C1674 1.478 . S
C1676 C1678 1.381 . S
C1676 C1682 1.383 . S
C1677 C1673 1.495 . S
C1677 H1683 0.959 . S
C1677 H1684 0.961 . S
C1677 H1685 0.960 . S
C1678 C1676 1.381 . S
C1678 C1679 1.394 . S
C1678 H1686 0.930 . S
C1679 C1678 1.394 . S
C1679 C1680 1.383 . S
C1679 H1687 0.929 . S
C1680 C1679 1.383 . S
C1680 C1681 1.377 . S
C1681 H1665 0.930 . S
C1681 C1680 1.377 . S
C1681 C1682 1.379 . S
C1682 H1666 0.931 . S
C1682 C1676 1.383 . S
C1682 C1681 1.379 . S
H1683 C1677 0.959 . S
H1684 C1677 0.961 . S
H1685 C1677 0.960 . S
H1686 C1678 0.930 . S
H1687 C1679 0.929 . S
H1688 C1696 0.929 . S
H1689 C1698 0.930 . S
H1690 C1700 0.930 . S
H1691 C1703 0.929 . S
H1692 C1706 0.930 . S
H1693 C1708 0.960 . S
H1694 C1708 0.960 . S
H1695 C1708 0.960 . S
C1696 H1688 0.929 . S
C1696 C1697 1.377 . S
C1696 C1698 1.384 . S
C1697 C1696 1.377 . S
C1697 C1703 1.390 . S
C1698 H1689 0.930 . S
C1698 C1696 1.384 . S
C1698 C1699 1.372 . S
C1699 C1698 1.372 . S
C1699 C1700 1.400 . S
C1699 C1704 1.490 . S
C1700 H1690 0.930 . S
C1700 C1699 1.400 . S
C1700 C1703 1.386 . S
H1701 C1717 0.930 . S
H1702 C1718 0.931 . S
C1703 H1691 0.929 . S
C1703 C1697 1.390 . S
C1703 C1700 1.386 . S
C1704 C1699 1.490 . S
C1704 C1706 1.395 . S
C1704 C1707 1.403 . S
H1705 C1711 0.930 . S
C1706 H1692 0.930 . S
C1706 C1704 1.395 . S
C1706 C1709 1.403 . S
C1707 C1704 1.403 . S
C1707 C1708 1.524 . S
C1707 C1711 1.400 . S
C1708 H1693 0.960 . S
C1708 H1694 0.960 . S
C1708 H1695 0.960 . S
C1708 C1707 1.524 . S
C1709 C1706 1.403 . S
C1709 C1710 1.392 . S
C1709 C1713 1.495 . S
C1710 C1709 1.392 . S
C1710 C1711 1.385 . S
C1710 C1712 1.478 . S
C1711 H1705 0.930 . S
C1711 C1707 1.400 . S
C1711 C1710 1.385 . S
C1712 C1710 1.478 . S
C1712 C1714 1.381 . S
C1712 C1718 1.383 . S
C1713 C1709 1.495 . S
C1713 H1719 0.959 . S
C1713 H1720 0.961 . S
C1713 H1721 0.960 . S
C1714 C1712 1.381 . S
C1714 C1715 1.394 . S
C1714 H1722 0.930 . S
C1715 C1714 1.394 . S
C1715 C1716 1.383 . S
C1715 H1723 0.929 . S
C1716 C1715 1.383 . S
C1716 C1717 1.377 . S
C1717 H1701 0.930 . S
C1717 C1716 1.377 . S
C1717 C1718 1.379 . S
C1718 H1702 0.931 . S
C1718 C1712 1.383 . S
C1718 C1717 1.379 . S
H1719 C1713 0.959 . S
H1720 C1713 0.961 . S
H1721 C1713 0.960 . S
H1722 C1714 0.930 . S
H1723 C1715 0.929 . S
H1724 C1732 0.929 . S
H1725 C1734 0.930 . S
H1726 C1736 0.930 . S
H1727 C1739 0.929 . S
H1728 C1742 0.930 . S
H1729 C1744 0.960 . S
H1730 C1744 0.960 . S
H1731 C1744 0.960 . S
C1732 H1724 0.929 . S
C1732 C1733 1.377 . S
C1732 C1734 1.384 . S
C1733 C1732 1.377 . S
C1733 C1739 1.390 . S
C1734 H1725 0.930 . S
C1734 C1732 1.384 . S
C1734 C1735 1.372 . S
C1735 C1734 1.372 . S
C1735 C1736 1.400 . S
C1735 C1740 1.490 . S
C1736 H1726 0.930 . S
C1736 C1735 1.400 . S
C1736 C1739 1.386 . S
H1737 C1753 0.930 . S
H1738 C1754 0.931 . S
C1739 H1727 0.929 . S
C1739 C1733 1.390 . S
C1739 C1736 1.386 . S
C1740 C1735 1.490 . S
C1740 C1742 1.395 . S
C1740 C1743 1.403 . S
H1741 C1747 0.930 . S
C1742 H1728 0.930 . S
C1742 C1740 1.395 . S
C1742 C1745 1.403 . S
C1743 C1740 1.403 . S
C1743 C1744 1.524 . S
C1743 C1747 1.400 . S
C1744 H1729 0.960 . S
C1744 H1730 0.960 . S
C1744 H1731 0.960 . S
C1744 C1743 1.524 . S
C1745 C1742 1.403 . S
C1745 C1746 1.392 . S
C1745 C1749 1.495 . S
C1746 C1745 1.392 . S
C1746 C1747 1.385 . S
C1746 C1748 1.478 . S
C1747 H1741 0.930 . S
C1747 C1743 1.400 . S
C1747 C1746 1.385 . S
C1748 C1746 1.478 . S
C1748 C1750 1.381 . S
C1748 C1754 1.383 . S
C1749 C1745 1.495 . S
C1749 H1755 0.959 . S
C1749 H1756 0.961 . S
C1749 H1757 0.960 . S
C1750 C1748 1.381 . S
C1750 C1751 1.394 . S
C1750 H1758 0.930 . S
C1751 C1750 1.394 . S
C1751 C1752 1.383 . S
C1751 H1759 0.929 . S
C1752 C1751 1.383 . S
C1752 C1753 1.377 . S
C1753 H1737 0.930 . S
C1753 C1752 1.377 . S
C1753 C1754 1.379 . S
C1754 H1738 0.931 . S
C1754 C1748 1.383 . S
C1754 C1753 1.379 . S
H1755 C1749 0.959 . S
H1756 C1749 0.961 . S
H1757 C1749 0.960 . S
H1758 C1750 0.930 . S
H1759 C1751 0.929 . S
H1760 C1768 0.929 . S
H1761 C1770 0.930 . S
H1762 C1772 0.930 . S
H1763 C1775 0.929 . S
H1764 C1778 0.930 . S
H1765 C1780 0.960 . S
H1766 C1780 0.960 . S
H1767 C1780 0.960 . S
C1768 H1760 0.929 . S
C1768 C1769 1.377 . S
C1768 C1770 1.384 . S
C1769 C1768 1.377 . S
C1769 C1775 1.390 . S
C1770 H1761 0.930 . S
C1770 C1768 1.384 . S
C1770 C1771 1.372 . S
C1771 C1770 1.372 . S
C1771 C1772 1.400 . S
C1771 C1776 1.490 . S
C1772 H1762 0.930 . S
C1772 C1771 1.400 . S
C1772 C1775 1.386 . S
H1773 C1789 0.930 . S
H1774 C1790 0.931 . S
C1775 H1763 0.929 . S
C1775 C1769 1.390 . S
C1775 C1772 1.386 . S
C1776 C1771 1.490 . S
C1776 C1778 1.395 . S
C1776 C1779 1.403 . S
H1777 C1783 0.930 . S
C1778 H1764 0.930 . S
C1778 C1776 1.395 . S
C1778 C1781 1.403 . S
C1779 C1776 1.403 . S
C1779 C1780 1.524 . S
C1779 C1783 1.400 . S
C1780 H1765 0.960 . S
C1780 H1766 0.960 . S
C1780 H1767 0.960 . S
C1780 C1779 1.524 . S
C1781 C1778 1.403 . S
C1781 C1782 1.392 . S
C1781 C1785 1.495 . S
C1782 C1781 1.392 . S
C1782 C1783 1.385 . S
C1782 C1784 1.478 . S
C1783 H1777 0.930 . S
C1783 C1779 1.400 . S
C1783 C1782 1.385 . S
C1784 C1782 1.478 . S
C1784 C1786 1.381 . S
C1784 C1790 1.383 . S
C1785 C1781 1.495 . S
C1785 H1791 0.959 . S
C1785 H1792 0.961 . S
C1785 H1793 0.960 . S
C1786 C1784 1.381 . S
C1786 C1787 1.394 . S
C1786 H1794 0.930 . S
C1787 C1786 1.394 . S
C1787 C1788 1.383 . S
C1787 H1795 0.929 . S
C1788 C1787 1.383 . S
C1788 C1789 1.377 . S
C1789 H1773 0.930 . S
C1789 C1788 1.377 . S
C1789 C1790 1.379 . S
C1790 H1774 0.931 . S
C1790 C1784 1.383 . S
C1790 C1789 1.379 . S
H1791 C1785 0.959 . S
H1792 C1785 0.961 . S
H1793 C1785 0.960 . S
H1794 C1786 0.930 . S
H1795 C1787 0.929 . S
H1796 C1804 0.929 . S
H1797 C1806 0.930 . S
H1798 C1808 0.930 . S
H1799 C1811 0.929 . S
H1800 C1814 0.930 . S
H1801 C1816 0.960 . S
H1802 C1816 0.960 . S
H1803 C1816 0.960 . S
C1804 H1796 0.929 . S
C1804 C1805 1.377 . S
C1804 C1806 1.384 . S
C1805 C1804 1.377 . S
C1805 C1811 1.390 . S
C1806 H1797 0.930 . S
C1806 C1804 1.384 . S
C1806 C1807 1.372 . S
C1807 C1806 1.372 . S
C1807 C1808 1.400 . S
C1807 C1812 1.490 . S
C1808 H1798 0.930 . S
C1808 C1807 1.400 . S
C1808 C1811 1.386 . S
H1809 C1825 0.930 . S
H1810 C1826 0.931 . S
C1811 H1799 0.929 . S
C1811 C1805 1.390 . S
C1811 C1808 1.386 . S
C1812 C1807 1.490 . S
C1812 C1814 1.395 . S
C1812 C1815 1.403 . S
H1813 C1819 0.930 . S
C1814 H1800 0.930 . S
C1814 C1812 1.395 . S
C1814 C1817 1.403 . S
C1815 C1812 1.403 . S
C1815 C1816 1.524 . S
C1815 C1819 1.400 . S
C1816 H1801 0.960 . S
C1816 H1802 0.960 . S
C1816 H1803 0.960 . S
C1816 C1815 1.524 . S
C1817 C1814 1.403 . S
C1817 C1818 1.392 . S
C1817 C1821 1.495 . S
C1818 C1817 1.392 . S
C1818 C1819 1.385 . S
C1818 C1820 1.478 . S
C1819 H1813 0.930 . S
C1819 C1815 1.400 . S
C1819 C1818 1.385 . S
C1820 C1818 1.478 . S
C1820 C1822 1.381 . S
C1820 C1826 1.383 . S
C1821 C1817 1.495 . S
C1821 H1827 0.959 . S
C1821 H1828 0.961 . S
C1821 H1829 0.960 . S
C1822 C1820 1.381 . S
C1822 C1823 1.394 . S
C1822 H1830 0.930 . S
C1823 C1822 1.394 . S
C1823 C1824 1.383 . S
C1823 H1831 0.929 . S
C1824 C1823 1.383 . S
C1824 C1825 1.377 . S
C1825 H1809 0.930 . S
C1825 C1824 1.377 . S
C1825 C1826 1.379 . S
C1826 H1810 0.931 . S
C1826 C1820 1.383 . S
C1826 C1825 1.379 . S
H1827 C1821 0.959 . S
H1828 C1821 0.961 . S
H1829 C1821 0.960 . S
H1830 C1822 0.930 . S
H1831 C1823 0.929 . S
H1832 C1840 0.929 . S
H1833 C1842 0.930 . S
H1834 C1844 0.930 . S
H1835 C1847 0.929 . S
H1836 C1850 0.930 . S
H1837 C1852 0.960 . S
H1838 C1852 0.960 . S
H1839 C1852 0.960 . S
C1840 H1832 0.929 . S
C1840 C1841 1.377 . S
C1840 C1842 1.384 . S
C1841 C1840 1.377 . S
C1841 C1847 1.390 . S
C1842 H1833 0.930 . S
C1842 C1840 1.384 . S
C1842 C1843 1.372 . S
C1843 C1842 1.372 . S
C1843 C1844 1.400 . S
C1843 C1848 1.490 . S
C1844 H1834 0.930 . S
C1844 C1843 1.400 . S
C1844 C1847 1.386 . S
H1845 C1861 0.930 . S
H1846 C1862 0.931 . S
C1847 H1835 0.929 . S
C1847 C1841 1.390 . S
C1847 C1844 1.386 . S
C1848 C1843 1.490 . S
C1848 C1850 1.395 . S
C1848 C1851 1.403 . S
H1849 C1855 0.930 . S
C1850 H1836 0.930 . S
C1850 C1848 1.395 . S
C1850 C1853 1.403 . S
C1851 C1848 1.403 . S
C1851 C1852 1.524 . S
C1851 C1855 1.400 . S
C1852 H1837 0.960 . S
C1852 H1838 0.960 . S
C1852 H1839 0.960 . S
C1852 C1851 1.524 . S
C1853 C1850 1.403 . S
C1853 C1854 1.392 . S
C1853 C1857 1.495 . S
C1854 C1853 1.392 . S
C1854 C1855 1.385 . S
C1854 C1856 1.478 . S
C1855 H1849 0.930 . S
C1855 C1851 1.400 . S
C1855 C1854 1.385 . S
C1856 C1854 1.478 . S
C1856 C1858 1.381 . S
C1856 C1862 1.383 . S
C1857 C1853 1.495 . S
C1857 H1863 0.959 . S
C1857 H1864 0.961 . S
C1857 H1865 0.960 . S
C1858 C1856 1.381 . S
C1858 C1859 1.394 . S
C1858 H1866 0.930 . S
C1859 C1858 1.394 . S
C1859 C1860 1.383 . S
C1859 H1867 0.929 . S
C1860 C1859 1.383 . S
C1860 C1861 1.377 . S
C1861 H1845 0.930 . S
C1861 C1860 1.377 . S
C1861 C1862 1.379 . S
C1862 H1846 0.931 . S
C1862 C1856 1.383 . S
C1862 C1861 1.379 . S
H1863 C1857 0.959 . S
H1864 C1857 0.961 . S
H1865 C1857 0.960 . S
H1866 C1858 0.930 . S
H1867 C1859 0.929 . S
H1868 C1876 0.929 . S
H1869 C1878 0.930 . S
H1870 C1880 0.930 . S
H1871 C1883 0.929 . S
H1872 C1886 0.930 . S
H1873 C1888 0.960 . S
H1874 C1888 0.960 . S
H1875 C1888 0.960 . S
C1876 H1868 0.929 . S
C1876 C1877 1.377 . S
C1876 C1878 1.384 . S
C1877 C1876 1.377 . S
C1877 C1883 1.390 . S
C1878 H1869 0.930 . S
C1878 C1876 1.384 . S
C1878 C1879 1.372 . S
C1879 C1878 1.372 . S
C1879 C1880 1.400 . S
C1879 C1884 1.490 . S
C1880 H1870 0.930 . S
C1880 C1879 1.400 . S
C1880 C1883 1.386 . S
H1881 C1897 0.930 . S
H1882 C1898 0.931 . S
C1883 H1871 0.929 . S
C1883 C1877 1.390 . S
C1883 C1880 1.386 . S
C1884 C1879 1.490 . S
C1884 C1886 1.395 . S
C1884 C1887 1.403 . S
H1885 C1891 0.930 . S
C1886 H1872 0.930 . S
C1886 C1884 1.395 . S
C1886 C1889 1.403 . S
C1887 C1884 1.403 . S
C1887 C1888 1.524 . S
C1887 C1891 1.400 . S
C1888 H1873 0.960 . S
C1888 H1874 0.960 . S
C1888 H1875 0.960 . S
C1888 C1887 1.524 . S
C1889 C1886 1.403 . S
C1889 C1890 1.392 . S
C1889 C1893 1.495 . S
C1890 C1889 1.392 . S
C1890 C1891 1.385 . S
C1890 C1892 1.478 . S
C1891 H1885 0.930 . S
C1891 C1887 1.400 . S
C1891 C1890 1.385 . S
C1892 C1890 1.478 . S
C1892 C1894 1.381 . S
C1892 C1898 1.383 . S
C1893 C1889 1.495 . S
C1893 H1899 0.959 . S
C1893 H1900 0.961 . S
C1893 H1901 0.960 . S
C1894 C1892 1.381 . S
C1894 C1895 1.394 . S
C1894 H1902 0.930 . S
C1895 C1894 1.394 . S
C1895 C1896 1.383 . S
C1895 H1903 0.929 . S
C1896 C1895 1.383 . S
C1896 C1897 1.377 . S
C1897 H1881 0.930 . S
C1897 C1896 1.377 . S
C1897 C1898 1.379 . S
C1898 H1882 0.931 . S
C1898 C1892 1.383 . S
C1898 C1897 1.379 . S
H1899 C1893 0.959 . S
H1900 C1893 0.961 . S
H1901 C1893 0.960 . S
H1902 C1894 0.930 . S
H1903 C1895 0.929 . S
H1904 C1912 0.929 . S
H1905 C1914 0.930 . S
H1906 C1916 0.930 . S
H1907 C1919 0.929 . S
H1908 C1922 0.930 . S
H1909 C1924 0.960 . S
H1910 C1924 0.960 . S
H1911 C1924 0.960 . S
C1912 H1904 0.929 . S
C1912 C1913 1.377 . S
C1912 C1914 1.384 . S
C1913 C1912 1.377 . S
C1913 C1919 1.390 . S
C1914 H1905 0.930 . S
C1914 C1912 1.384 . S
C1914 C1915 1.372 . S
C1915 C1914 1.372 . S
C1915 C1916 1.400 . S
C1915 C1920 1.490 . S
C1916 H1906 0.930 . S
C1916 C1915 1.400 . S
C1916 C1919 1.386 . S
H1917 C1933 0.930 . S
H1918 C1934 0.931 . S
C1919 H1907 0.929 . S
C1919 C1913 1.390 . S
C1919 C1916 1.386 . S
C1920 C1915 1.490 . S
C1920 C1922 1.395 . S
C1920 C1923 1.403 . S
H1921 C1927 0.930 . S
C1922 H1908 0.930 . S
C1922 C1920 1.395 . S
C1922 C1925 1.403 . S
C1923 C1920 1.403 . S
C1923 C1924 1.524 . S
C1923 C1927 1.400 . S
C1924 H1909 0.960 . S
C1924 H1910 0.960 . S
C1924 H1911 0.960 . S
C1924 C1923 1.524 . S
C1925 C1922 1.403 . S
C1925 C1926 1.392 . S
C1925 C1929 1.495 . S
C1926 C1925 1.392 . S
C1926 C1927 1.385 . S
C1926 C1928 1.478 . S
C1927 H1921 0.930 . S
C1927 C1923 1.400 . S
C1927 C1926 1.385 . S
C1928 C1926 1.478 . S
C1928 C1930 1.381 . S
C1928 C1934 1.383 . S
C1929 C1925 1.495 . S
C1929 H1935 0.959 . S
C1929 H1936 0.961 . S
C1929 H1937 0.960 . S
C1930 C1928 1.381 . S
C1930 C1931 1.394 . S
C1930 H1938 0.930 . S
C1931 C1930 1.394 . S
C1931 C1932 1.383 . S
C1931 H1939 0.929 . S
C1932 C1931 1.383 . S
C1932 C1933 1.377 . S
C1933 H1917 0.930 . S
C1933 C1932 1.377 . S
C1933 C1934 1.379 . S
C1934 H1918 0.931 . S
C1934 C1928 1.383 . S
C1934 C1933 1.379 . S
H1935 C1929 0.959 . S
H1936 C1929 0.961 . S
H1937 C1929 0.960 . S
H1938 C1930 0.930 . S
H1939 C1931 0.929 . S
H1940 C1948 0.929 . S
H1941 C1950 0.930 . S
H1942 C1952 0.930 . S
H1943 C1955 0.929 . S
H1944 C1958 0.930 . S
H1945 C1960 0.960 . S
H1946 C1960 0.960 . S
H1947 C1960 0.960 . S
C1948 H1940 0.929 . S
C1948 C1949 1.377 . S
C1948 C1950 1.384 . S
C1949 C1948 1.377 . S
C1949 C1955 1.390 . S
C1950 H1941 0.930 . S
C1950 C1948 1.384 . S
C1950 C1951 1.372 . S
C1951 C1950 1.372 . S
C1951 C1952 1.400 . S
C1951 C1956 1.490 . S
C1952 H1942 0.930 . S
C1952 C1951 1.400 . S
C1952 C1955 1.386 . S
H1953 C1969 0.930 . S
H1954 C1970 0.931 . S
C1955 H1943 0.929 . S
C1955 C1949 1.390 . S
C1955 C1952 1.386 . S
C1956 C1951 1.490 . S
C1956 C1958 1.395 . S
C1956 C1959 1.403 1_565 S
H1957 C1963 0.930 . S
C1958 H1944 0.930 . S
C1958 C1956 1.395 . S
C1958 C1961 1.403 . S
C1959 C1956 1.403 1_545 S
C1959 C1960 1.524 . S
C1959 C1963 1.400 . S
C1960 H1945 0.960 . S
C1960 H1946 0.960 . S
C1960 H1947 0.960 . S
C1960 C1959 1.524 . S
C1961 C1958 1.403 . S
C1961 C1962 1.392 . S
C1961 C1965 1.495 . S
C1962 C1961 1.392 . S
C1962 C1963 1.385 1_565 S
C1962 C1964 1.478 . S
C1963 H1957 0.930 . S
C1963 C1959 1.400 . S
C1963 C1962 1.385 1_545 S
C1964 C1962 1.478 . S
C1964 C1966 1.381 . S
C1964 C1970 1.383 1_565 S
C1965 C1961 1.495 . S
C1965 H1971 0.959 . S
C1965 H1972 0.961 . S
C1965 H1973 0.960 . S
C1966 C1964 1.381 . S
C1966 C1967 1.394 1_565 S
C1966 H1974 0.930 . S
C1967 C1966 1.394 1_545 S
C1967 C1968 1.383 . S
C1967 H1975 0.929 . S
C1968 C1967 1.383 . S
C1968 C1969 1.377 . S
C1969 H1953 0.930 . S
C1969 C1968 1.377 . S
C1969 C1970 1.379 . S
C1970 H1954 0.931 . S
C1970 C1964 1.383 1_545 S
C1970 C1969 1.379 . S
H1971 C1965 0.959 . S
H1972 C1965 0.961 . S
H1973 C1965 0.960 . S
H1974 C1966 0.930 . S
H1975 C1967 0.929 . S
H1976 C1984 0.929 . S
H1977 C1986 0.930 . S
H1978 C1988 0.930 . S
H1979 C1991 0.929 . S
H1980 C1994 0.930 . S
H1981 C1996 0.960 . S
H1982 C1996 0.960 . S
H1983 C1996 0.960 . S
C1984 H1976 0.929 . S
C1984 C1985 1.377 . S
C1984 C1986 1.384 . S
C1985 C1984 1.377 . S
C1985 C1991 1.390 . S
C1986 H1977 0.930 . S
C1986 C1984 1.384 . S
C1986 C1987 1.372 . S
C1987 C1986 1.372 . S
C1987 C1988 1.400 . S
C1987 C1992 1.490 . S
C1988 H1978 0.930 . S
C1988 C1987 1.400 . S
C1988 C1991 1.386 . S
H1989 C2005 0.930 . S
H1990 C2006 0.931 . S
C1991 H1979 0.929 . S
C1991 C1985 1.390 . S
C1991 C1988 1.386 . S
C1992 C1987 1.490 . S
C1992 C1994 1.395 . S
C1992 C1995 1.403 . S
H1993 C1999 0.930 . S
C1994 H1980 0.930 . S
C1994 C1992 1.395 . S
C1994 C1997 1.403 . S
C1995 C1992 1.403 . S
C1995 C1996 1.524 . S
C1995 C1999 1.400 . S
C1996 H1981 0.960 . S
C1996 H1982 0.960 . S
C1996 H1983 0.960 . S
C1996 C1995 1.524 . S
C1997 C1994 1.403 . S
C1997 C1998 1.392 . S
C1997 C2001 1.495 . S
C1998 C1997 1.392 . S
C1998 C1999 1.385 . S
C1998 C2000 1.478 . S
C1999 H1993 0.930 . S
C1999 C1995 1.400 . S
C1999 C1998 1.385 . S
C2000 C1998 1.478 . S
C2000 C2002 1.381 . S
C2000 C2006 1.383 . S
C2001 C1997 1.495 . S
C2001 H2007 0.959 . S
C2001 H2008 0.961 . S
C2001 H2009 0.960 . S
C2002 C2000 1.381 . S
C2002 C2003 1.394 . S
C2002 H2010 0.930 . S
C2003 C2002 1.394 . S
C2003 C2004 1.383 . S
C2003 H2011 0.929 . S
C2004 C2003 1.383 . S
C2004 C2005 1.377 . S
C2005 H1989 0.930 . S
C2005 C2004 1.377 . S
C2005 C2006 1.379 . S
C2006 H1990 0.931 . S
C2006 C2000 1.383 . S
C2006 C2005 1.379 . S
H2007 C2001 0.959 . S
H2008 C2001 0.961 . S
H2009 C2001 0.960 . S
H2010 C2002 0.930 . S
H2011 C2003 0.929 . S
H2012 C2020 0.929 . S
H2013 C2022 0.930 . S
H2014 C2024 0.930 . S
H2015 C2027 0.929 . S
H2016 C2030 0.930 . S
H2017 C2032 0.960 . S
H2018 C2032 0.960 . S
H2019 C2032 0.960 . S
C2020 H2012 0.929 . S
C2020 C2021 1.377 . S
C2020 C2022 1.384 . S
C2021 C2020 1.377 . S
C2021 C2027 1.390 1_565 S
C2022 H2013 0.930 . S
C2022 C2020 1.384 . S
C2022 C2023 1.372 . S
C2023 C2022 1.372 . S
C2023 C2024 1.400 1_565 S
C2023 C2028 1.490 1_565 S
C2024 H2014 0.930 . S
C2024 C2023 1.400 1_545 S
C2024 C2027 1.386 . S
H2025 C2041 0.930 . S
H2026 C2042 0.931 . S
C2027 H2015 0.929 . S
C2027 C2021 1.390 1_545 S
C2027 C2024 1.386 . S
C2028 C2023 1.490 1_545 S
C2028 C2030 1.395 1_545 S
C2028 C2031 1.403 . S
H2029 C2035 0.930 . S
C2030 H2016 0.930 . S
C2030 C2028 1.395 1_565 S
C2030 C2033 1.403 . S
C2031 C2028 1.403 . S
C2031 C2032 1.524 . S
C2031 C2035 1.400 . S
C2032 H2017 0.960 . S
C2032 H2018 0.960 . S
C2032 H2019 0.960 . S
C2032 C2031 1.524 . S
C2033 C2030 1.403 . S
C2033 C2034 1.392 1_565 S
C2033 C2037 1.495 . S
C2034 C2033 1.392 1_545 S
C2034 C2035 1.385 . S
C2034 C2036 1.478 . S
C2035 H2029 0.930 . S
C2035 C2031 1.400 . S
C2035 C2034 1.385 . S
C2036 C2034 1.478 . S
C2036 C2038 1.381 . S
C2036 C2042 1.383 . S
C2037 C2033 1.495 . S
C2037 H2043 0.959 . S
C2037 H2044 0.961 . S
C2037 H2045 0.960 . S
C2038 C2036 1.381 . S
C2038 C2039 1.394 . S
C2038 H2046 0.930 1_545 S
C2039 C2038 1.394 . S
C2039 C2040 1.383 . S
C2039 H2047 0.929 . S
C2040 C2039 1.383 . S
C2040 C2041 1.377 . S
C2041 H2025 0.930 . S
C2041 C2040 1.377 . S
C2041 C2042 1.379 . S
C2042 H2026 0.931 . S
C2042 C2036 1.383 . S
C2042 C2041 1.379 . S
H2043 C2037 0.959 . S
H2044 C2037 0.961 . S
H2045 C2037 0.960 . S
H2046 C2038 0.930 1_565 S
H2047 C2039 0.929 . S
H2048 C2056 0.929 . S
H2049 C2058 0.930 . S
H2050 C2060 0.930 . S
H2051 C2063 0.929 . S
H2052 C2066 0.930 . S
H2053 C2068 0.960 . S
H2054 C2068 0.960 . S
H2055 C2068 0.960 . S
C2056 H2048 0.929 . S
C2056 C2057 1.377 . S
C2056 C2058 1.384 . S
C2057 C2056 1.377 . S
C2057 C2063 1.390 . S
C2058 H2049 0.930 . S
C2058 C2056 1.384 . S
C2058 C2059 1.372 . S
C2059 C2058 1.372 . S
C2059 C2060 1.400 . S
C2059 C2064 1.490 . S
C2060 H2050 0.930 . S
C2060 C2059 1.400 . S
C2060 C2063 1.386 . S
H2061 C2077 0.930 . S
H2062 C2078 0.931 . S
C2063 H2051 0.929 . S
C2063 C2057 1.390 . S
C2063 C2060 1.386 . S
C2064 C2059 1.490 . S
C2064 C2066 1.395 . S
C2064 C2067 1.403 . S
H2065 C2071 0.930 . S
C2066 H2052 0.930 . S
C2066 C2064 1.395 . S
C2066 C2069 1.403 . S
C2067 C2064 1.403 . S
C2067 C2068 1.524 . S
C2067 C2071 1.400 . S
C2068 H2053 0.960 . S
C2068 H2054 0.960 . S
C2068 H2055 0.960 . S
C2068 C2067 1.524 . S
C2069 C2066 1.403 . S
C2069 C2070 1.392 . S
C2069 C2073 1.495 . S
C2070 C2069 1.392 . S
C2070 C2071 1.385 . S
C2070 C2072 1.478 . S
C2071 H2065 0.930 . S
C2071 C2067 1.400 . S
C2071 C2070 1.385 . S
C2072 C2070 1.478 . S
C2072 C2074 1.381 . S
C2072 C2078 1.383 . S
C2073 C2069 1.495 . S
C2073 H2079 0.959 . S
C2073 H2080 0.961 . S
C2073 H2081 0.960 . S
C2074 C2072 1.381 . S
C2074 C2075 1.394 . S
C2074 H2082 0.930 . S
C2075 C2074 1.394 . S
C2075 C2076 1.383 . S
C2075 H2083 0.929 . S
C2076 C2075 1.383 . S
C2076 C2077 1.377 . S
C2077 H2061 0.930 . S
C2077 C2076 1.377 . S
C2077 C2078 1.379 . S
C2078 H2062 0.931 . S
C2078 C2072 1.383 . S
C2078 C2077 1.379 . S
H2079 C2073 0.959 . S
H2080 C2073 0.961 . S
H2081 C2073 0.960 . S
H2082 C2074 0.930 . S
H2083 C2075 0.929 . S
H2084 C2092 0.929 . S
H2085 C2094 0.930 . S
H2086 C2096 0.930 . S
H2087 C2099 0.929 . S
H2088 C2102 0.930 . S
H2089 C2104 0.960 . S
H2090 C2104 0.960 . S
H2091 C2104 0.960 1_545 S
C2092 H2084 0.929 . S
C2092 C2093 1.377 . S
C2092 C2094 1.384 . S
C2093 C2092 1.377 . S
C2093 C2099 1.390 . S
C2094 H2085 0.930 . S
C2094 C2092 1.384 . S
C2094 C2095 1.372 . S
C2095 C2094 1.372 . S
C2095 C2096 1.400 . S
C2095 C2100 1.490 . S
C2096 H2086 0.930 . S
C2096 C2095 1.400 . S
C2096 C2099 1.386 . S
H2097 C2113 0.930 . S
H2098 C2114 0.931 . S
C2099 H2087 0.929 . S
C2099 C2093 1.390 . S
C2099 C2096 1.386 . S
C2100 C2095 1.490 . S
C2100 C2102 1.395 . S
C2100 C2103 1.403 . S
H2101 C2107 0.930 1_565 S
C2102 H2088 0.930 . S
C2102 C2100 1.395 . S
C2102 C2105 1.403 . S
C2103 C2100 1.403 . S
C2103 C2104 1.524 1_545 S
C2103 C2107 1.400 . S
C2104 H2089 0.960 . S
C2104 H2090 0.960 . S
C2104 H2091 0.960 1_565 S
C2104 C2103 1.524 1_565 S
C2105 C2102 1.403 . S
C2105 C2106 1.392 . S
C2105 C2109 1.495 . S
C2106 C2105 1.392 . S
C2106 C2107 1.385 . S
C2106 C2108 1.478 . S
C2107 H2101 0.930 1_545 S
C2107 C2103 1.400 . S
C2107 C2106 1.385 . S
C2108 C2106 1.478 . S
C2108 C2110 1.381 1_545 S
C2108 C2114 1.383 . S
C2109 C2105 1.495 . S
C2109 H2115 0.959 . S
C2109 H2116 0.961 . S
C2109 H2117 0.960 . S
C2110 C2108 1.381 1_565 S
C2110 C2111 1.394 . S
C2110 H2118 0.930 . S
C2111 C2110 1.394 . S
C2111 C2112 1.383 . S
C2111 H2119 0.929 . S
C2112 C2111 1.383 . S
C2112 C2113 1.377 1_565 S
C2113 H2097 0.930 . S
C2113 C2112 1.377 1_545 S
C2113 C2114 1.379 . S
C2114 H2098 0.931 . S
C2114 C2108 1.383 . S
C2114 C2113 1.379 . S
H2115 C2109 0.959 . S
H2116 C2109 0.961 . S
H2117 C2109 0.960 . S
H2118 C2110 0.930 . S
H2119 C2111 0.929 . S
H2120 C2128 0.929 . S
H2121 C2130 0.930 . S
H2122 C2132 0.930 . S
H2123 C2135 0.929 . S
H2124 C2138 0.930 . S
H2125 C2140 0.960 . S
H2126 C2140 0.960 . S
H2127 C2140 0.960 . S
C2128 H2120 0.929 . S
C2128 C2129 1.377 . S
C2128 C2130 1.384 . S
C2129 C2128 1.377 . S
C2129 C2135 1.390 . S
C2130 H2121 0.930 . S
C2130 C2128 1.384 . S
C2130 C2131 1.372 . S
C2131 C2130 1.372 . S
C2131 C2132 1.400 . S
C2131 C2136 1.490 . S
C2132 H2122 0.930 . S
C2132 C2131 1.400 . S
C2132 C2135 1.386 . S
H2133 C2149 0.930 . S
H2134 C2150 0.931 . S
C2135 H2123 0.929 . S
C2135 C2129 1.390 . S
C2135 C2132 1.386 . S
C2136 C2131 1.490 . S
C2136 C2138 1.395 . S
C2136 C2139 1.403 . S
H2137 C2143 0.930 . S
C2138 H2124 0.930 . S
C2138 C2136 1.395 . S
C2138 C2141 1.403 . S
C2139 C2136 1.403 . S
C2139 C2140 1.524 . S
C2139 C2143 1.400 . S
C2140 H2125 0.960 . S
C2140 H2126 0.960 . S
C2140 H2127 0.960 . S
C2140 C2139 1.524 . S
C2141 C2138 1.403 . S
C2141 C2142 1.392 . S
C2141 C2145 1.495 . S
C2142 C2141 1.392 . S
C2142 C2143 1.385 . S
C2142 C2144 1.478 . S
C2143 H2137 0.930 . S
C2143 C2139 1.400 . S
C2143 C2142 1.385 . S
C2144 C2142 1.478 . S
C2144 C2146 1.381 . S
C2144 C2150 1.383 . S
C2145 C2141 1.495 . S
C2145 H2151 0.959 . S
C2145 H2152 0.961 . S
C2145 H2153 0.960 . S
C2146 C2144 1.381 . S
C2146 C2147 1.394 . S
C2146 H2154 0.930 . S
C2147 C2146 1.394 . S
C2147 C2148 1.383 . S
C2147 H2155 0.929 . S
C2148 C2147 1.383 . S
C2148 C2149 1.377 . S
C2149 H2133 0.930 . S
C2149 C2148 1.377 . S
C2149 C2150 1.379 . S
C2150 H2134 0.931 . S
C2150 C2144 1.383 . S
C2150 C2149 1.379 . S
H2151 C2145 0.959 . S
H2152 C2145 0.961 . S
H2153 C2145 0.960 . S
H2154 C2146 0.930 . S
H2155 C2147 0.929 . S
H2156 C2164 0.929 . S
H2157 C2166 0.930 . S
H2158 C2168 0.930 . S
H2159 C2171 0.929 . S
H2160 C2174 0.930 . S
H2161 C2176 0.960 . S
H2162 C2176 0.960 . S
H2163 C2176 0.960 . S
C2164 H2156 0.929 . S
C2164 C2165 1.377 . S
C2164 C2166 1.384 . S
C2165 C2164 1.377 . S
C2165 C2171 1.390 . S
C2166 H2157 0.930 . S
C2166 C2164 1.384 . S
C2166 C2167 1.372 . S
C2167 C2166 1.372 . S
C2167 C2168 1.400 . S
C2167 C2172 1.490 . S
C2168 H2158 0.930 . S
C2168 C2167 1.400 . S
C2168 C2171 1.386 . S
H2169 C2185 0.930 . S
H2170 C2186 0.931 . S
C2171 H2159 0.929 . S
C2171 C2165 1.390 . S
C2171 C2168 1.386 . S
C2172 C2167 1.490 . S
C2172 C2174 1.395 . S
C2172 C2175 1.404 . S
H2173 C2179 0.930 . S
C2174 H2160 0.930 . S
C2174 C2172 1.395 . S
C2174 C2177 1.403 . S
C2175 C2172 1.404 . S
C2175 C2176 1.523 1_565 S
C2175 C2179 1.400 1_565 S
C2176 H2161 0.960 . S
C2176 H2162 0.960 . S
C2176 H2163 0.960 . S
C2176 C2175 1.523 1_545 S
C2177 C2174 1.403 . S
C2177 C2178 1.392 . S
C2177 C2181 1.495 . S
C2178 C2177 1.392 . S
C2178 C2179 1.385 1_565 S
C2178 C2180 1.478 . S
C2179 H2173 0.930 . S
C2179 C2175 1.400 1_545 S
C2179 C2178 1.385 1_545 S
C2180 C2178 1.478 . S
C2180 C2182 1.381 1_565 S
C2180 C2186 1.383 . S
C2181 C2177 1.495 . S
C2181 H2187 0.959 . S
C2181 H2188 0.961 . S
C2181 H2189 0.960 . S
C2182 C2180 1.381 1_545 S
C2182 C2183 1.394 . S
C2182 H2190 0.930 . S
C2183 C2182 1.394 . S
C2183 C2184 1.383 . S
C2183 H2191 0.929 . S
C2184 C2183 1.383 . S
C2184 C2185 1.377 . S
C2185 H2169 0.930 . S
C2185 C2184 1.377 . S
C2185 C2186 1.379 1_545 S
C2186 H2170 0.931 . S
C2186 C2180 1.383 . S
C2186 C2185 1.379 1_565 S
H2187 C2181 0.959 . S
H2188 C2181 0.961 . S
H2189 C2181 0.960 . S
H2190 C2182 0.930 . S
H2191 C2183 0.929 . S
H2192 C2200 0.929 . S
H2193 C2202 0.930 . S
H2194 C2204 0.930 . S
H2195 C2207 0.929 . S
H2196 C2210 0.930 . S
H2197 C2212 0.960 . S
H2198 C2212 0.960 . S
H2199 C2212 0.960 . S
C2200 H2192 0.929 . S
C2200 C2201 1.377 . S
C2200 C2202 1.384 . S
C2201 C2200 1.377 . S
C2201 C2207 1.390 . S
C2202 H2193 0.930 . S
C2202 C2200 1.384 . S
C2202 C2203 1.372 . S
C2203 C2202 1.372 . S
C2203 C2204 1.400 . S
C2203 C2208 1.490 . S
C2204 H2194 0.930 . S
C2204 C2203 1.400 . S
C2204 C2207 1.386 . S
H2205 C2221 0.930 . S
H2206 C2222 0.931 . S
C2207 H2195 0.929 . S
C2207 C2201 1.390 . S
C2207 C2204 1.386 . S
C2208 C2203 1.490 . S
C2208 C2210 1.395 . S
C2208 C2211 1.403 . S
H2209 C2215 0.930 . S
C2210 H2196 0.930 . S
C2210 C2208 1.395 . S
C2210 C2213 1.403 . S
C2211 C2208 1.403 . S
C2211 C2212 1.524 . S
C2211 C2215 1.400 . S
C2212 H2197 0.960 . S
C2212 H2198 0.960 . S
C2212 H2199 0.960 . S
C2212 C2211 1.524 . S
C2213 C2210 1.403 . S
C2213 C2214 1.392 . S
C2213 C2217 1.495 . S
C2214 C2213 1.392 . S
C2214 C2215 1.385 . S
C2214 C2216 1.478 . S
C2215 H2209 0.930 . S
C2215 C2211 1.400 . S
C2215 C2214 1.385 . S
C2216 C2214 1.478 . S
C2216 C2218 1.381 . S
C2216 C2222 1.383 . S
C2217 C2213 1.495 . S
C2217 H2223 0.959 . S
C2217 H2224 0.961 . S
C2217 H2225 0.960 . S
C2218 C2216 1.381 . S
C2218 C2219 1.394 . S
C2218 H2226 0.930 . S
C2219 C2218 1.394 . S
C2219 C2220 1.383 . S
C2219 H2227 0.929 . S
C2220 C2219 1.383 . S
C2220 C2221 1.377 . S
C2221 H2205 0.930 . S
C2221 C2220 1.377 . S
C2221 C2222 1.379 . S
C2222 H2206 0.931 . S
C2222 C2216 1.383 . S
C2222 C2221 1.379 . S
H2223 C2217 0.959 . S
H2224 C2217 0.961 . S
H2225 C2217 0.960 . S
H2226 C2218 0.930 . S
H2227 C2219 0.929 . S
H2228 C2236 0.929 . S
H2229 C2238 0.930 . S
H2230 C2240 0.930 . S
H2231 C2243 0.929 . S
H2232 C2246 0.930 . S
H2233 C2248 0.960 . S
H2234 C2248 0.960 . S
H2235 C2248 0.960 . S
C2236 H2228 0.929 . S
C2236 C2237 1.377 . S
C2236 C2238 1.384 . S
C2237 C2236 1.377 . S
C2237 C2243 1.390 . S
C2238 H2229 0.930 . S
C2238 C2236 1.384 . S
C2238 C2239 1.372 . S
C2239 C2238 1.372 . S
C2239 C2240 1.400 . S
C2239 C2244 1.490 . S
C2240 H2230 0.930 . S
C2240 C2239 1.400 . S
C2240 C2243 1.386 . S
H2241 C2257 0.930 . S
H2242 C2258 0.931 . S
C2243 H2231 0.929 . S
C2243 C2237 1.390 . S
C2243 C2240 1.386 . S
C2244 C2239 1.490 . S
C2244 C2246 1.395 . S
C2244 C2247 1.403 . S
H2245 C2251 0.930 . S
C2246 H2232 0.930 . S
C2246 C2244 1.395 . S
C2246 C2249 1.403 . S
C2247 C2244 1.403 . S
C2247 C2248 1.524 . S
C2247 C2251 1.400 . S
C2248 H2233 0.960 . S
C2248 H2234 0.960 . S
C2248 H2235 0.960 . S
C2248 C2247 1.524 . S
C2249 C2246 1.403 . S
C2249 C2250 1.392 . S
C2249 C2253 1.495 . S
C2250 C2249 1.392 . S
C2250 C2251 1.385 . S
C2250 C2252 1.478 . S
C2251 H2245 0.930 . S
C2251 C2247 1.400 . S
C2251 C2250 1.385 . S
C2252 C2250 1.478 . S
C2252 C2254 1.381 . S
C2252 C2258 1.383 . S
C2253 C2249 1.495 . S
C2253 H2259 0.959 . S
C2253 H2260 0.961 . S
C2253 H2261 0.960 . S
C2254 C2252 1.381 . S
C2254 C2255 1.394 . S
C2254 H2262 0.930 . S
C2255 C2254 1.394 . S
C2255 C2256 1.383 . S
C2255 H2263 0.929 . S
C2256 C2255 1.383 . S
C2256 C2257 1.377 . S
C2257 H2241 0.930 . S
C2257 C2256 1.377 . S
C2257 C2258 1.379 . S
C2258 H2242 0.931 . S
C2258 C2252 1.383 . S
C2258 C2257 1.379 . S
H2259 C2253 0.959 . S
H2260 C2253 0.961 . S
H2261 C2253 0.960 . S
H2262 C2254 0.930 . S
H2263 C2255 0.929 . S
H2264 C2272 0.929 . S
H2265 C2274 0.930 . S
H2266 C2276 0.930 . S
H2267 C2279 0.929 . S
H2268 C2282 0.930 . S
H2269 C2284 0.960 1_655 S
H2270 C2284 0.960 . S
H2271 C2284 0.960 . S
C2272 H2264 0.929 . S
C2272 C2273 1.377 . S
C2272 C2274 1.384 . S
C2273 C2272 1.377 . S
C2273 C2279 1.390 . S
C2274 H2265 0.930 . S
C2274 C2272 1.384 . S
C2274 C2275 1.372 . S
C2275 C2274 1.372 . S
C2275 C2276 1.400 . S
C2275 C2280 1.490 . S
C2276 H2266 0.930 . S
C2276 C2275 1.400 . S
C2276 C2279 1.386 . S
H2277 C2293 0.930 . S
H2278 C2294 0.931 . S
C2279 H2267 0.929 . S
C2279 C2273 1.390 . S
C2279 C2276 1.386 . S
C2280 C2275 1.490 . S
C2280 C2282 1.395 . S
C2280 C2283 1.403 . S
H2281 C2287 0.930 . S
C2282 H2268 0.930 . S
C2282 C2280 1.395 . S
C2282 C2285 1.403 1_455 S
C2283 C2280 1.403 . S
C2283 C2284 1.524 . S
C2283 C2287 1.400 1_455 S
C2284 H2269 0.960 1_455 S
C2284 H2270 0.960 . S
C2284 H2271 0.960 . S
C2284 C2283 1.524 . S
C2285 C2282 1.403 1_655 S
C2285 C2286 1.392 . S
C2285 C2289 1.495 . S
C2286 C2285 1.392 . S
C2286 C2287 1.385 . S
C2286 C2288 1.478 . S
C2287 H2281 0.930 . S
C2287 C2283 1.400 1_655 S
C2287 C2286 1.385 . S
C2288 C2286 1.478 . S
C2288 C2290 1.381 . S
C2288 C2294 1.383 . S
C2289 C2285 1.495 . S
C2289 H2295 0.959 1_655 S
C2289 H2296 0.961 . S
C2289 H2297 0.960 . S
C2290 C2288 1.381 . S
C2290 C2291 1.394 . S
C2290 H2298 0.930 . S
C2291 C2290 1.394 . S
C2291 C2292 1.383 . S
C2291 H2299 0.929 . S
C2292 C2291 1.383 . S
C2292 C2293 1.377 . S
C2293 H2277 0.930 . S
C2293 C2292 1.377 . S
C2293 C2294 1.379 . S
C2294 H2278 0.931 . S
C2294 C2288 1.383 . S
C2294 C2293 1.379 . S
H2295 C2289 0.959 1_455 S
H2296 C2289 0.961 . S
H2297 C2289 0.960 . S
H2298 C2290 0.930 . S
H2299 C2291 0.929 . S
H2300 C2308 0.929 . S
H2301 C2310 0.930 . S
H2302 C2312 0.906 1_655 S
H2303 C2315 0.929 . S
H2304 C2318 0.930 . S
H2305 C2320 0.960 . S
H2306 C2320 0.960 . S
H2307 C2320 0.960 . S
C2308 H2300 0.929 . S
C2308 C2309 1.377 . S
C2308 C2310 1.384 . S
C2309 C2308 1.377 . S
C2309 C2315 1.390 . S
C2310 H2301 0.930 . S
C2310 C2308 1.384 . S
C2310 C2311 1.372 . S
C2311 C2310 1.372 . S
C2311 C2312 1.400 . S
C2311 C2316 1.490 . S
C2312 H2302 0.906 1_455 S
C2312 C2311 1.400 . S
C2312 C2315 1.386 . S
H2313 C2329 0.930 . S
H2314 C2330 0.931 . S
C2315 H2303 0.929 . S
C2315 C2309 1.390 . S
C2315 C2312 1.386 . S
C2316 C2311 1.490 . S
C2316 C2318 1.394 . S
C2316 C2319 1.403 . S
H2317 C2323 0.930 . S
C2318 H2304 0.930 . S
C2318 C2316 1.394 . S
C2318 C2321 1.404 1_455 S
C2319 C2316 1.403 . S
C2319 C2320 1.524 . S
C2319 C2323 1.401 1_455 S
C2320 H2305 0.960 . S
C2320 H2306 0.960 . S
C2320 H2307 0.960 . S
C2320 C2319 1.524 . S
C2321 C2318 1.404 1_655 S
C2321 C2322 1.392 . S
C2321 C2325 1.495 . S
C2322 C2321 1.392 . S
C2322 C2323 1.384 . S
C2322 C2324 1.478 . S
C2323 H2317 0.930 . S
C2323 C2319 1.401 1_655 S
C2323 C2322 1.384 . S
C2324 C2322 1.478 . S
C2324 C2326 1.381 . S
C2324 C2330 1.383 . S
C2325 C2321 1.495 . S
C2325 H2331 0.959 . S
C2325 H2332 0.961 . S
C2325 H2333 0.960 . S
C2326 C2324 1.381 . S
C2326 C2327 1.394 . S
C2326 H2334 0.930 1_655 S
C2327 C2326 1.394 . S
C2327 C2328 1.383 . S
C2327 H2335 0.929 . S
C2328 C2327 1.383 . S
C2328 C2329 1.377 . S
C2329 H2313 0.930 . S
C2329 C2328 1.377 . S
C2329 C2330 1.379 . S
C2330 H2314 0.931 . S
C2330 C2324 1.383 . S
C2330 C2329 1.379 . S
H2331 C2325 0.959 . S
H2332 C2325 0.961 . S
H2333 C2325 0.960 . S
H2334 C2326 0.930 1_455 S
H2335 C2327 0.929 . S
H2336 C2344 0.929 . S
H2337 C2346 0.930 . S
H2338 C2348 0.930 . S
H2339 C2351 0.929 . S
H2340 C2354 0.930 . S
H2341 C2356 0.960 . S
H2342 C2356 0.960 . S
H2343 C2356 0.960 . S
C2344 H2336 0.929 . S
C2344 C2345 1.377 . S
C2344 C2346 1.384 . S
C2345 C2344 1.377 . S
C2345 C2351 1.390 . S
C2346 H2337 0.930 . S
C2346 C2344 1.384 . S
C2346 C2347 1.372 . S
C2347 C2346 1.372 . S
C2347 C2348 1.400 . S
C2347 C2352 1.490 . S
C2348 H2338 0.930 . S
C2348 C2347 1.400 . S
C2348 C2351 1.386 . S
H2349 C2365 0.930 . S
H2350 C2366 0.931 . S
C2351 H2339 0.929 . S
C2351 C2345 1.390 . S
C2351 C2348 1.386 . S
C2352 C2347 1.490 . S
C2352 C2354 1.395 . S
C2352 C2355 1.403 . S
H2353 C2359 0.930 . S
C2354 H2340 0.930 . S
C2354 C2352 1.395 . S
C2354 C2357 1.403 . S
C2355 C2352 1.403 . S
C2355 C2356 1.524 . S
C2355 C2359 1.400 . S
C2356 H2341 0.960 . S
C2356 H2342 0.960 . S
C2356 H2343 0.960 . S
C2356 C2355 1.524 . S
C2357 C2354 1.403 . S
C2357 C2358 1.392 . S
C2357 C2361 1.495 . S
C2358 C2357 1.392 . S
C2358 C2359 1.385 . S
C2358 C2360 1.478 . S
C2359 H2353 0.930 . S
C2359 C2355 1.400 . S
C2359 C2358 1.385 . S
C2360 C2358 1.478 . S
C2360 C2362 1.381 . S
C2360 C2366 1.383 . S
C2361 C2357 1.495 . S
C2361 H2367 0.959 . S
C2361 H2368 0.961 . S
C2361 H2369 0.960 . S
C2362 C2360 1.381 . S
C2362 C2363 1.394 . S
C2362 H2370 0.930 . S
C2363 C2362 1.394 . S
C2363 C2364 1.383 . S
C2363 H2371 0.929 . S
C2364 C2363 1.383 . S
C2364 C2365 1.377 . S
C2365 H2349 0.930 . S
C2365 C2364 1.377 . S
C2365 C2366 1.379 . S
C2366 H2350 0.931 . S
C2366 C2360 1.383 . S
C2366 C2365 1.379 . S
H2367 C2361 0.959 . S
H2368 C2361 0.961 . S
H2369 C2361 0.960 . S
H2370 C2362 0.930 . S
H2371 C2363 0.929 . S
H2372 C2380 0.929 . S
H2373 C2382 0.930 . S
H2374 C2384 0.930 . S
H2375 C2387 0.929 . S
H2376 C2390 0.930 . S
H2377 C2392 0.960 . S
H2378 C2392 0.960 . S
H2379 C2392 0.960 . S
C2380 H2372 0.929 . S
C2380 C2381 1.377 . S
C2380 C2382 1.384 . S
C2381 C2380 1.377 . S
C2381 C2387 1.390 . S
C2382 H2373 0.930 . S
C2382 C2380 1.384 . S
C2382 C2383 1.372 . S
C2383 C2382 1.372 . S
C2383 C2384 1.400 . S
C2383 C2388 1.490 . S
C2384 H2374 0.930 . S
C2384 C2383 1.400 . S
C2384 C2387 1.386 . S
H2385 C2401 0.930 . S
H2386 C2402 0.931 . S
C2387 H2375 0.929 . S
C2387 C2381 1.390 . S
C2387 C2384 1.386 . S
C2388 C2383 1.490 . S
C2388 C2390 1.395 . S
C2388 C2391 1.403 . S
H2389 C2395 0.930 . S
C2390 H2376 0.930 . S
C2390 C2388 1.395 . S
C2390 C2393 1.403 . S
C2391 C2388 1.403 . S
C2391 C2392 1.524 . S
C2391 C2395 1.400 . S
C2392 H2377 0.960 . S
C2392 H2378 0.960 . S
C2392 H2379 0.960 . S
C2392 C2391 1.524 . S
C2393 C2390 1.403 . S
C2393 C2394 1.392 . S
C2393 C2397 1.495 . S
C2394 C2393 1.392 . S
C2394 C2395 1.385 . S
C2394 C2396 1.478 . S
C2395 H2389 0.930 . S
C2395 C2391 1.400 . S
C2395 C2394 1.385 . S
C2396 C2394 1.478 . S
C2396 C2398 1.381 . S
C2396 C2402 1.383 . S
C2397 C2393 1.495 . S
C2397 H2403 0.959 . S
C2397 H2404 0.961 . S
C2397 H2405 0.960 . S
C2398 C2396 1.381 . S
C2398 C2399 1.394 . S
C2398 H2406 0.930 . S
C2399 C2398 1.394 . S
C2399 C2400 1.383 . S
C2399 H2407 0.929 . S
C2400 C2399 1.383 . S
C2400 C2401 1.377 . S
C2401 H2385 0.930 . S
C2401 C2400 1.377 . S
C2401 C2402 1.379 . S
C2402 H2386 0.931 . S
C2402 C2396 1.383 . S
C2402 C2401 1.379 . S
H2403 C2397 0.959 . S
H2404 C2397 0.961 . S
H2405 C2397 0.960 . S
H2406 C2398 0.930 . S
H2407 C2399 0.929 . S
H2408 C2416 0.929 . S
H2409 C2418 0.930 . S
H2410 C2420 0.930 . S
H2411 C2423 0.929 . S
H2412 C2426 0.930 . S
H2413 C2428 0.960 . S
H2414 C2428 0.960 . S
H2415 C2428 0.960 . S
C2416 H2408 0.929 . S
C2416 C2417 1.377 . S
C2416 C2418 1.384 . S
C2417 C2416 1.377 . S
C2417 C2423 1.390 . S
C2418 H2409 0.930 . S
C2418 C2416 1.384 . S
C2418 C2419 1.372 . S
C2419 C2418 1.372 . S
C2419 C2420 1.400 . S
C2419 C2424 1.490 . S
C2420 H2410 0.930 . S
C2420 C2419 1.400 . S
C2420 C2423 1.386 . S
H2421 C2437 0.930 . S
H2422 C2438 0.931 . S
C2423 H2411 0.929 . S
C2423 C2417 1.390 . S
C2423 C2420 1.386 . S
C2424 C2419 1.490 . S
C2424 C2426 1.395 . S
C2424 C2427 1.403 . S
H2425 C2431 0.930 . S
C2426 H2412 0.930 . S
C2426 C2424 1.395 . S
C2426 C2429 1.403 1_455 S
C2427 C2424 1.403 . S
C2427 C2428 1.524 . S
C2427 C2431 1.400 1_455 S
C2428 H2413 0.960 . S
C2428 H2414 0.960 . S
C2428 H2415 0.960 . S
C2428 C2427 1.524 . S
C2429 C2426 1.403 1_655 S
C2429 C2430 1.392 . S
C2429 C2433 1.495 . S
C2430 C2429 1.392 . S
C2430 C2431 1.385 . S
C2430 C2432 1.478 . S
C2431 H2425 0.930 . S
C2431 C2427 1.400 1_655 S
C2431 C2430 1.385 . S
C2432 C2430 1.478 . S
C2432 C2434 1.381 . S
C2432 C2438 1.383 . S
C2433 C2429 1.495 . S
C2433 H2439 0.959 . S
C2433 H2440 0.961 . S
C2433 H2441 0.960 . S
C2434 C2432 1.381 . S
C2434 C2435 1.394 . S
C2434 H2442 0.930 . S
C2435 C2434 1.394 . S
C2435 C2436 1.383 . S
C2435 H2443 0.929 . S
C2436 C2435 1.383 . S
C2436 C2437 1.377 . S
C2437 H2421 0.930 . S
C2437 C2436 1.377 . S
C2437 C2438 1.379 . S
C2438 H2422 0.931 . S
C2438 C2432 1.383 . S
C2438 C2437 1.379 . S
H2439 C2433 0.959 . S
H2440 C2433 0.961 . S
H2441 C2433 0.960 . S
H2442 C2434 0.930 . S
H2443 C2435 0.929 . S
H2444 C2452 0.929 . S
H2445 C2454 0.930 . S
H2446 C2456 0.930 . S
H2447 C2459 0.929 . S
H2448 C2462 0.930 . S
H2449 C2464 0.960 . S
H2450 C2464 0.960 . S
H2451 C2464 0.960 . S
C2452 H2444 0.929 . S
C2452 C2453 1.377 . S
C2452 C2454 1.384 . S
C2453 C2452 1.377 . S
C2453 C2459 1.390 . S
C2454 H2445 0.930 . S
C2454 C2452 1.384 . S
C2454 C2455 1.372 . S
C2455 C2454 1.372 . S
C2455 C2456 1.400 . S
C2455 C2460 1.490 . S
C2456 H2446 0.930 . S
C2456 C2455 1.400 . S
C2456 C2459 1.386 . S
H2457 C2473 0.930 . S
H2458 C2474 0.931 . S
C2459 H2447 0.929 . S
C2459 C2453 1.390 . S
C2459 C2456 1.386 . S
C2460 C2455 1.490 . S
C2460 C2462 1.395 . S
C2460 C2463 1.403 1_455 S
H2461 C2467 0.930 . S
C2462 H2448 0.930 . S
C2462 C2460 1.395 . S
C2462 C2465 1.403 . S
C2463 C2460 1.403 1_655 S
C2463 C2464 1.524 . S
C2463 C2467 1.400 . S
C2464 H2449 0.960 . S
C2464 H2450 0.960 . S
C2464 H2451 0.960 . S
C2464 C2463 1.524 . S
C2465 C2462 1.403 . S
C2465 C2466 1.392 1_455 S
C2465 C2469 1.495 . S
C2466 C2465 1.392 1_655 S
C2466 C2467 1.385 . S
C2466 C2468 1.478 . S
C2467 H2461 0.930 . S
C2467 C2463 1.400 . S
C2467 C2466 1.385 . S
C2468 C2466 1.478 . S
C2468 C2470 1.381 . S
C2468 C2474 1.383 . S
C2469 C2465 1.495 . S
C2469 H2475 0.959 . S
C2469 H2476 0.961 . S
C2469 H2477 0.960 . S
C2470 C2468 1.381 . S
C2470 C2471 1.394 . S
C2470 H2478 0.930 . S
C2471 C2470 1.394 . S
C2471 C2472 1.383 . S
C2471 H2479 0.929 . S
C2472 C2471 1.383 . S
C2472 C2473 1.377 . S
C2473 H2457 0.930 . S
C2473 C2472 1.377 . S
C2473 C2474 1.379 . S
C2474 H2458 0.931 . S
C2474 C2468 1.383 . S
C2474 C2473 1.379 . S
H2475 C2469 0.959 . S
H2476 C2469 0.961 . S
H2477 C2469 0.960 . S
H2478 C2470 0.930 . S
H2479 C2471 0.929 . S
C473 C213 2.229 . S
C492 C21 2.007 . S
C509 C358 2.228 . S
C528 C50 1.995 . S
C545 C79 2.030 . S
C564 C155 2.235 . S
C581 C416 2.225 . S
C600 C108 2.037 1_455 S
C617 C97 2.225 . S
C636 C137 2.046 . S
C653 C166 2.023 . S
C672 C242 2.227 . S
C689 C195 2.035 . S
C708 C39 2.214 . S
C725 C300 2.225 . S
C744 C224 2.051 1_655 S
C761 C445 2.227 . S
C780 C253 2.054 . S
C797 C282 2.025 1_655 S
C816 C126 2.212 . S
C833 C387 2.226 . S
C852 C311 2.051 . S
C869 C184 2.229 . S
C888 C340 2.004 . S
C905 C329 2.226 . S
C924 C369 2.047 . S
C941 C398 2.023 1_455 S
C960 C10 2.228 . S
C977 C427 2.032 . S
C996 C271 2.212 . S
C1013 C68 2.225 . S
C1032 C456 2.042 . S
C1049 C15 1.262 1_565 S
C1068 C409 1.304 . S
C1085 C206 1.305 . S
C1104 C44 1.272 . S
C1121 C351 1.302 . S
C1140 C73 1.282 1_545 S
C1157 C102 1.255 . S
C1176 C148 1.310 . S
C1193 C293 1.303 . S
C1212 C131 1.233 1_545 S
C1229 C90 1.305 . S
C1248 C160 1.278 . S
C1265 C189 1.253 1_565 S
C1284 C235 1.294 . S
C1301 C218 1.251 . S
C1320 C32 1.292 . S
C1337 C247 1.261 . S
C1356 C177 1.292 . S
C1373 C276 1.252 . S
C1392 C438 1.309 . S
C1409 C119 1.302 . S
C1428 C305 1.259 . S
C1445 C380 1.305 . S
C1464 C334 1.269 . S
C1481 C61 1.303 . S
C1500 C363 1.234 . S
C1517 C392 1.258 . S
C1536 C322 1.302 . S
C1553 C3 1.303 . S
C1572 C421 1.243 . S
C1589 C264 1.302 . S
C1608 C450 1.234 . S
C1625 C13 1.498 1_556 S
C1644 C269 1.443 . S
C1661 C298 1.416 . S
C1680 C42 1.466 . S
C1697 C327 1.421 . S
C1716 C71 1.495 . S
C1733 C240 1.427 . S
C1752 C100 1.498 . S
C1769 C129 1.501 1_554 S
C1788 C385 1.379 . S
C1805 C158 1.492 . S
C1824 C414 1.419 . S
C1841 C443 1.416 . S
C1860 C187 1.499 . S
C1877 C356 1.431 . S
C1896 C216 1.470 . S
C1913 C37 1.430 . S
C1932 C245 1.521 . S
C1949 C66 1.427 . S
C1968 C274 1.498 . S
C1985 C303 1.499 1_556 S
C2004 C95 1.449 . S
C2021 C332 1.502 . S
C2040 C8 1.457 . S
C2057 C361 1.490 . S
C2076 C153 1.450 . S
C2093 C182 1.431 . S
C2112 C390 1.468 . S
C2129 C419 1.491 1_554 S
C2148 C211 1.461 . S
C2165 C124 1.431 . S
C2184 C448 1.478 . S
C2201 C295 2.361 . S
C2220 C5 2.372 . S
C2237 C34 2.361 . S
C2256 C324 2.372 . S
C2273 C63 2.363 . S
C2292 C237 2.354 . S
C2309 C266 2.361 . S
C2328 C92 2.364 . S
C2345 C121 2.365 . S
C2364 C411 2.368 . S
C2381 C440 2.362 . S
C2400 C150 2.350 . S
C2417 C353 2.363 . S
C2436 C179 2.352 . S
C2453 C208 2.367 . S
C2472 C382 2.372 . S
