# Generated by pormake.
# Topology fcq, (5)-cn, num edge types: 1
# Building blocks:
#     Node 0, Type 0, BuildingBlock: BEQFEK_clean_sbu_0, # of connection points: 5
#     Node 1, Type 0, BuildingBlock: BEQFEK_clean_sbu_0, # of connection points: 5
#     Node 2, Type 0, BuildingBlock: BEQFEK_clean_sbu_0, # of connection points: 5
#     Node 3, Type 0, BuildingBlock: BEQFEK_clean_sbu_0, # of connection points: 5
#     Node 4, Type 0, BuildingBlock: BEQFEK_clean_sbu_0, # of connection points: 5
#     Node 5, Type 0, BuildingBlock: BEQFEK_clean_sbu_0, # of connection points: 5
#     Node 6, Type 0, BuildingBlock: BEQFEK_clean_sbu_0, # of connection points: 5
#     Node 7, Type 0, BuildingBlock: BEQFEK_clean_sbu_0, # of connection points: 5
#     Node 8, Type 0, BuildingBlock: BEQFEK_clean_sbu_0, # of connection points: 5
#     Node 9, Type 0, BuildingBlock: BEQFEK_clean_sbu_0, # of connection points: 5
#     Node 10, Type 0, BuildingBlock: BEQFEK_clean_sbu_0, # of connection points: 5
#     Node 11, Type 0, BuildingBlock: BEQFEK_clean_sbu_0, # of connection points: 5
#     Node 12, Type 0, BuildingBlock: BEQFEK_clean_sbu_0, # of connection points: 5
#     Node 13, Type 0, BuildingBlock: BEQFEK_clean_sbu_0, # of connection points: 5
#     Node 14, Type 0, BuildingBlock: BEQFEK_clean_sbu_0, # of connection points: 5
#     Node 15, Type 0, BuildingBlock: BEQFEK_clean_sbu_0, # of connection points: 5
#     Node 16, Type 0, BuildingBlock: BEQFEK_clean_sbu_0, # of connection points: 5
#     Node 17, Type 0, BuildingBlock: BEQFEK_clean_sbu_0, # of connection points: 5
#     Node 18, Type 0, BuildingBlock: BEQFEK_clean_sbu_0, # of connection points: 5
#     Node 19, Type 0, BuildingBlock: BEQFEK_clean_sbu_0, # of connection points: 5
#     Node 20, Type 0, BuildingBlock: BEQFEK_clean_sbu_0, # of connection points: 5
#     Node 21, Type 0, BuildingBlock: BEQFEK_clean_sbu_0, # of connection points: 5
#     Node 22, Type 0, BuildingBlock: BEQFEK_clean_sbu_0, # of connection points: 5
#     Node 23, Type 0, BuildingBlock: BEQFEK_clean_sbu_0, # of connection points: 5
#     Node 24, Type 0, BuildingBlock: BEQFEK_clean_sbu_0, # of connection points: 5
#     Node 25, Type 0, BuildingBlock: BEQFEK_clean_sbu_0, # of connection points: 5
#     Node 26, Type 0, BuildingBlock: BEQFEK_clean_sbu_0, # of connection points: 5
#     Node 27, Type 0, BuildingBlock: BEQFEK_clean_sbu_0, # of connection points: 5
#     Node 28, Type 0, BuildingBlock: BEQFEK_clean_sbu_0, # of connection points: 5
#     Node 29, Type 0, BuildingBlock: BEQFEK_clean_sbu_0, # of connection points: 5
#     Node 30, Type 0, BuildingBlock: BEQFEK_clean_sbu_0, # of connection points: 5
#     Node 31, Type 0, BuildingBlock: BEQFEK_clean_sbu_0, # of connection points: 5
#     Node 32, Type 0, BuildingBlock: BEQFEK_clean_sbu_0, # of connection points: 5
#     Node 33, Type 0, BuildingBlock: BEQFEK_clean_sbu_0, # of connection points: 5
#     Node 34, Type 0, BuildingBlock: BEQFEK_clean_sbu_0, # of connection points: 5
#     Node 35, Type 0, BuildingBlock: BEQFEK_clean_sbu_0, # of connection points: 5
#     Node 36, Type 0, BuildingBlock: BEQFEK_clean_sbu_0, # of connection points: 5
#     Node 37, Type 0, BuildingBlock: BEQFEK_clean_sbu_0, # of connection points: 5
#     Node 38, Type 0, BuildingBlock: BEQFEK_clean_sbu_0, # of connection points: 5
#     Node 39, Type 0, BuildingBlock: BEQFEK_clean_sbu_0, # of connection points: 5
#     Node 40, Type 0, BuildingBlock: BEQFEK_clean_sbu_0, # of connection points: 5
#     Node 41, Type 0, BuildingBlock: BEQFEK_clean_sbu_0, # of connection points: 5
#     Node 42, Type 0, BuildingBlock: BEQFEK_clean_sbu_0, # of connection points: 5
#     Node 43, Type 0, BuildingBlock: BEQFEK_clean_sbu_0, # of connection points: 5
#     Node 44, Type 0, BuildingBlock: BEQFEK_clean_sbu_0, # of connection points: 5
#     Node 45, Type 0, BuildingBlock: BEQFEK_clean_sbu_0, # of connection points: 5
#     Node 46, Type 0, BuildingBlock: BEQFEK_clean_sbu_0, # of connection points: 5
#     Node 47, Type 0, BuildingBlock: BEQFEK_clean_sbu_0, # of connection points: 5
#     Edge 48, Type (0, 0), BuildingBlock: EZIPEK_clean_linker_0, # of connection points: 2
#     Edge 49, Type (0, 0), BuildingBlock: EZIPEK_clean_linker_0, # of connection points: 2
#     Edge 50, Type (0, 0), BuildingBlock: EZIPEK_clean_linker_0, # of connection points: 2
#     Edge 51, Type (0, 0), BuildingBlock: EZIPEK_clean_linker_0, # of connection points: 2
#     Edge 52, Type (0, 0), BuildingBlock: EZIPEK_clean_linker_0, # of connection points: 2
#     Edge 53, Type (0, 0), BuildingBlock: EZIPEK_clean_linker_0, # of connection points: 2
#     Edge 54, Type (0, 0), BuildingBlock: EZIPEK_clean_linker_0, # of connection points: 2
#     Edge 55, Type (0, 0), BuildingBlock: EZIPEK_clean_linker_0, # of connection points: 2
#     Edge 56, Type (0, 0), BuildingBlock: EZIPEK_clean_linker_0, # of connection points: 2
#     Edge 57, Type (0, 0), BuildingBlock: EZIPEK_clean_linker_0, # of connection points: 2
#     Edge 58, Type (0, 0), BuildingBlock: EZIPEK_clean_linker_0, # of connection points: 2
#     Edge 59, Type (0, 0), BuildingBlock: EZIPEK_clean_linker_0, # of connection points: 2
#     Edge 60, Type (0, 0), BuildingBlock: EZIPEK_clean_linker_0, # of connection points: 2
#     Edge 61, Type (0, 0), BuildingBlock: EZIPEK_clean_linker_0, # of connection points: 2
#     Edge 62, Type (0, 0), BuildingBlock: EZIPEK_clean_linker_0, # of connection points: 2
#     Edge 63, Type (0, 0), BuildingBlock: EZIPEK_clean_linker_0, # of connection points: 2
#     Edge 64, Type (0, 0), BuildingBlock: EZIPEK_clean_linker_0, # of connection points: 2
#     Edge 65, Type (0, 0), BuildingBlock: EZIPEK_clean_linker_0, # of connection points: 2
#     Edge 66, Type (0, 0), BuildingBlock: EZIPEK_clean_linker_0, # of connection points: 2
#     Edge 67, Type (0, 0), BuildingBlock: EZIPEK_clean_linker_0, # of connection points: 2
#     Edge 68, Type (0, 0), BuildingBlock: EZIPEK_clean_linker_0, # of connection points: 2
#     Edge 69, Type (0, 0), BuildingBlock: EZIPEK_clean_linker_0, # of connection points: 2
#     Edge 70, Type (0, 0), BuildingBlock: EZIPEK_clean_linker_0, # of connection points: 2
#     Edge 71, Type (0, 0), BuildingBlock: EZIPEK_clean_linker_0, # of connection points: 2
#     Edge 72, Type (0, 0), BuildingBlock: EZIPEK_clean_linker_0, # of connection points: 2
#     Edge 73, Type (0, 0), BuildingBlock: EZIPEK_clean_linker_0, # of connection points: 2
#     Edge 74, Type (0, 0), BuildingBlock: EZIPEK_clean_linker_0, # of connection points: 2
#     Edge 75, Type (0, 0), BuildingBlock: EZIPEK_clean_linker_0, # of connection points: 2
#     Edge 76, Type (0, 0), BuildingBlock: EZIPEK_clean_linker_0, # of connection points: 2
#     Edge 77, Type (0, 0), BuildingBlock: EZIPEK_clean_linker_0, # of connection points: 2
#     Edge 78, Type (0, 0), BuildingBlock: EZIPEK_clean_linker_0, # of connection points: 2
#     Edge 79, Type (0, 0), BuildingBlock: EZIPEK_clean_linker_0, # of connection points: 2
#     Edge 80, Type (0, 0), BuildingBlock: EZIPEK_clean_linker_0, # of connection points: 2
#     Edge 81, Type (0, 0), BuildingBlock: EZIPEK_clean_linker_0, # of connection points: 2
#     Edge 82, Type (0, 0), BuildingBlock: EZIPEK_clean_linker_0, # of connection points: 2
#     Edge 83, Type (0, 0), BuildingBlock: EZIPEK_clean_linker_0, # of connection points: 2
#     Edge 84, Type (0, 0), BuildingBlock: EZIPEK_clean_linker_0, # of connection points: 2
#     Edge 85, Type (0, 0), BuildingBlock: EZIPEK_clean_linker_0, # of connection points: 2
#     Edge 86, Type (0, 0), BuildingBlock: EZIPEK_clean_linker_0, # of connection points: 2
#     Edge 87, Type (0, 0), BuildingBlock: EZIPEK_clean_linker_0, # of connection points: 2
#     Edge 88, Type (0, 0), BuildingBlock: EZIPEK_clean_linker_0, # of connection points: 2
#     Edge 89, Type (0, 0), BuildingBlock: EZIPEK_clean_linker_0, # of connection points: 2
#     Edge 90, Type (0, 0), BuildingBlock: EZIPEK_clean_linker_0, # of connection points: 2
#     Edge 91, Type (0, 0), BuildingBlock: EZIPEK_clean_linker_0, # of connection points: 2
#     Edge 92, Type (0, 0), BuildingBlock: EZIPEK_clean_linker_0, # of connection points: 2
#     Edge 93, Type (0, 0), BuildingBlock: EZIPEK_clean_linker_0, # of connection points: 2
#     Edge 94, Type (0, 0), BuildingBlock: EZIPEK_clean_linker_0, # of connection points: 2
#     Edge 95, Type (0, 0), BuildingBlock: EZIPEK_clean_linker_0, # of connection points: 2
#     Edge 96, Type (0, 0), BuildingBlock: EZIPEK_clean_linker_0, # of connection points: 2
#     Edge 97, Type (0, 0), BuildingBlock: EZIPEK_clean_linker_0, # of connection points: 2
#     Edge 98, Type (0, 0), BuildingBlock: EZIPEK_clean_linker_0, # of connection points: 2
#     Edge 99, Type (0, 0), BuildingBlock: EZIPEK_clean_linker_0, # of connection points: 2
#     Edge 100, Type (0, 0), BuildingBlock: EZIPEK_clean_linker_0, # of connection points: 2
#     Edge 101, Type (0, 0), BuildingBlock: EZIPEK_clean_linker_0, # of connection points: 2
#     Edge 102, Type (0, 0), BuildingBlock: EZIPEK_clean_linker_0, # of connection points: 2
#     Edge 103, Type (0, 0), BuildingBlock: EZIPEK_clean_linker_0, # of connection points: 2
#     Edge 104, Type (0, 0), BuildingBlock: EZIPEK_clean_linker_0, # of connection points: 2
#     Edge 105, Type (0, 0), BuildingBlock: EZIPEK_clean_linker_0, # of connection points: 2
#     Edge 106, Type (0, 0), BuildingBlock: EZIPEK_clean_linker_0, # of connection points: 2
#     Edge 107, Type (0, 0), BuildingBlock: EZIPEK_clean_linker_0, # of connection points: 2
#     Edge 108, Type (0, 0), BuildingBlock: EZIPEK_clean_linker_0, # of connection points: 2
#     Edge 109, Type (0, 0), BuildingBlock: EZIPEK_clean_linker_0, # of connection points: 2
#     Edge 110, Type (0, 0), BuildingBlock: EZIPEK_clean_linker_0, # of connection points: 2
#     Edge 111, Type (0, 0), BuildingBlock: EZIPEK_clean_linker_0, # of connection points: 2
#     Edge 112, Type (0, 0), BuildingBlock: EZIPEK_clean_linker_0, # of connection points: 2
#     Edge 113, Type (0, 0), BuildingBlock: EZIPEK_clean_linker_0, # of connection points: 2
#     Edge 114, Type (0, 0), BuildingBlock: EZIPEK_clean_linker_0, # of connection points: 2
#     Edge 115, Type (0, 0), BuildingBlock: EZIPEK_clean_linker_0, # of connection points: 2
#     Edge 116, Type (0, 0), BuildingBlock: EZIPEK_clean_linker_0, # of connection points: 2
#     Edge 117, Type (0, 0), BuildingBlock: EZIPEK_clean_linker_0, # of connection points: 2
#     Edge 118, Type (0, 0), BuildingBlock: EZIPEK_clean_linker_0, # of connection points: 2
#     Edge 119, Type (0, 0), BuildingBlock: EZIPEK_clean_linker_0, # of connection points: 2
#     Edge 120, Type (0, 0), BuildingBlock: EZIPEK_clean_linker_0, # of connection points: 2
#     Edge 121, Type (0, 0), BuildingBlock: EZIPEK_clean_linker_0, # of connection points: 2
#     Edge 122, Type (0, 0), BuildingBlock: EZIPEK_clean_linker_0, # of connection points: 2
#     Edge 123, Type (0, 0), BuildingBlock: EZIPEK_clean_linker_0, # of connection points: 2
#     Edge 124, Type (0, 0), BuildingBlock: EZIPEK_clean_linker_0, # of connection points: 2
#     Edge 125, Type (0, 0), BuildingBlock: EZIPEK_clean_linker_0, # of connection points: 2
#     Edge 126, Type (0, 0), BuildingBlock: EZIPEK_clean_linker_0, # of connection points: 2
#     Edge 127, Type (0, 0), BuildingBlock: EZIPEK_clean_linker_0, # of connection points: 2
#     Edge 128, Type (0, 0), BuildingBlock: EZIPEK_clean_linker_0, # of connection points: 2
#     Edge 129, Type (0, 0), BuildingBlock: EZIPEK_clean_linker_0, # of connection points: 2
#     Edge 130, Type (0, 0), BuildingBlock: EZIPEK_clean_linker_0, # of connection points: 2
#     Edge 131, Type (0, 0), BuildingBlock: EZIPEK_clean_linker_0, # of connection points: 2
#     Edge 132, Type (0, 0), BuildingBlock: EZIPEK_clean_linker_0, # of connection points: 2
#     Edge 133, Type (0, 0), BuildingBlock: EZIPEK_clean_linker_0, # of connection points: 2
#     Edge 134, Type (0, 0), BuildingBlock: EZIPEK_clean_linker_0, # of connection points: 2
#     Edge 135, Type (0, 0), BuildingBlock: EZIPEK_clean_linker_0, # of connection points: 2
#     Edge 136, Type (0, 0), BuildingBlock: EZIPEK_clean_linker_0, # of connection points: 2
#     Edge 137, Type (0, 0), BuildingBlock: EZIPEK_clean_linker_0, # of connection points: 2
#     Edge 138, Type (0, 0), BuildingBlock: EZIPEK_clean_linker_0, # of connection points: 2
#     Edge 139, Type (0, 0), BuildingBlock: EZIPEK_clean_linker_0, # of connection points: 2
#     Edge 140, Type (0, 0), BuildingBlock: EZIPEK_clean_linker_0, # of connection points: 2
#     Edge 141, Type (0, 0), BuildingBlock: EZIPEK_clean_linker_0, # of connection points: 2
#     Edge 142, Type (0, 0), BuildingBlock: EZIPEK_clean_linker_0, # of connection points: 2
#     Edge 143, Type (0, 0), BuildingBlock: EZIPEK_clean_linker_0, # of connection points: 2
#     Edge 144, Type (0, 0), BuildingBlock: EZIPEK_clean_linker_0, # of connection points: 2
#     Edge 145, Type (0, 0), BuildingBlock: EZIPEK_clean_linker_0, # of connection points: 2
#     Edge 146, Type (0, 0), BuildingBlock: EZIPEK_clean_linker_0, # of connection points: 2
#     Edge 147, Type (0, 0), BuildingBlock: EZIPEK_clean_linker_0, # of connection points: 2
#     Edge 148, Type (0, 0), BuildingBlock: EZIPEK_clean_linker_0, # of connection points: 2
#     Edge 149, Type (0, 0), BuildingBlock: EZIPEK_clean_linker_0, # of connection points: 2
#     Edge 150, Type (0, 0), BuildingBlock: EZIPEK_clean_linker_0, # of connection points: 2
#     Edge 151, Type (0, 0), BuildingBlock: EZIPEK_clean_linker_0, # of connection points: 2
#     Edge 152, Type (0, 0), BuildingBlock: EZIPEK_clean_linker_0, # of connection points: 2
#     Edge 153, Type (0, 0), BuildingBlock: EZIPEK_clean_linker_0, # of connection points: 2
#     Edge 154, Type (0, 0), BuildingBlock: EZIPEK_clean_linker_0, # of connection points: 2
#     Edge 155, Type (0, 0), BuildingBlock: EZIPEK_clean_linker_0, # of connection points: 2
#     Edge 156, Type (0, 0), BuildingBlock: EZIPEK_clean_linker_0, # of connection points: 2
#     Edge 157, Type (0, 0), BuildingBlock: EZIPEK_clean_linker_0, # of connection points: 2
#     Edge 158, Type (0, 0), BuildingBlock: EZIPEK_clean_linker_0, # of connection points: 2
#     Edge 159, Type (0, 0), BuildingBlock: EZIPEK_clean_linker_0, # of connection points: 2
#     Edge 160, Type (0, 0), BuildingBlock: EZIPEK_clean_linker_0, # of connection points: 2
#     Edge 161, Type (0, 0), BuildingBlock: EZIPEK_clean_linker_0, # of connection points: 2
#     Edge 162, Type (0, 0), BuildingBlock: EZIPEK_clean_linker_0, # of connection points: 2
#     Edge 163, Type (0, 0), BuildingBlock: EZIPEK_clean_linker_0, # of connection points: 2
#     Edge 164, Type (0, 0), BuildingBlock: EZIPEK_clean_linker_0, # of connection points: 2
#     Edge 165, Type (0, 0), BuildingBlock: EZIPEK_clean_linker_0, # of connection points: 2
#     Edge 166, Type (0, 0), BuildingBlock: EZIPEK_clean_linker_0, # of connection points: 2
#     Edge 167, Type (0, 0), BuildingBlock: EZIPEK_clean_linker_0, # of connection points: 2
# Relax obj value: 0.410
# Max RMSD: 0.247
# Mean RMSD: 0.247
data_MOF--net-fcq--node1-BEQFEK_clean_sbu_0--edge1-EZIPEK_clean_linker_0
_symmetry_space_group_name_H-M    P1
_symmetry_Int_Tables_number       1
_symmetry_cell_setting            triclinic
loop_
_symmetry_equiv_pos_as_xyz
'x, y, z'
_cell_length_a     53.740309
_cell_length_b     53.591615
_cell_length_c     53.615845
_cell_angle_alpha  90.034386
_cell_angle_beta   89.943512
_cell_angle_gamma 89.980845
loop_
_atom_site_label
_atom_site_type_symbol
_atom_site_fract_x
_atom_site_fract_y
_atom_site_fract_z
_atom_type_partial_charge
Co0 Co 0.18841 0.19492 0.43204 0.0
Co1 Co 0.14554 0.16986 0.4029 0.0
C2 C 0.14864 0.16364 0.45725 0.0
O3 O 0.16862 0.17643 0.45786 0.0
O4 O 0.13673 0.16076 0.43709 0.0
C5 C 0.2071 0.22913 0.46799 0.0
O6 O 0.18357 0.23371 0.47285 0.0
C7 C 0.09509 0.15619 0.38972 0.0
C8 C 0.09808 0.14757 0.34952 0.0
C9 C 0.08157 0.14845 0.36933 0.0
N10 N 0.11876 0.15966 0.3825 0.0
N11 N 0.12047 0.15453 0.35843 0.0
C12 C 0.08548 0.16014 0.41567 0.0
H13 H 0.09425 0.17679 0.42419 0.0
H14 H 0.06495 0.16244 0.41576 0.0
H15 H 0.09028 0.14365 0.42722 0.0
C16 C 0.16887 0.23981 0.40747 0.0
N17 N 0.16915 0.21502 0.41109 0.0
N18 N 0.1495 0.20501 0.40054 0.0
C19 C 0.13505 0.22345 0.39142 0.0
C20 C 0.14683 0.24615 0.39576 0.0
C21 C 0.18916 0.2573 0.41514 0.0
H22 H 0.20736 0.24755 0.41518 0.0
H23 H 0.1853 0.26457 0.43408 0.0
H24 H 0.19 0.27348 0.40225 0.0
O25 O 0.20654 0.17025 0.41311 0.0
O26 O 0.17627 0.14967 0.39383 0.0
H27 H 0.11055 0.2079 0.36412 0.0
H28 H 0.10008 0.23743 0.37664 0.0
C29 C 0.10943 0.21957 0.38117 0.0
H30 H 0.09795 0.20954 0.39505 0.0
H31 H 0.13692 0.15576 0.34813 0.0
O32 O 0.21288 0.21437 0.45044 0.0
C33 C 0.19924 0.15249 0.3993 0.0
Co34 Co 0.43432 0.55761 0.82228 0.0
Co35 Co 0.40748 0.60101 0.85019 0.0
C36 C 0.40046 0.5971 0.79727 0.0
O37 O 0.41375 0.57736 0.79802 0.0
O38 O 0.39719 0.61064 0.81649 0.0
C39 C 0.46847 0.54351 0.78448 0.0
O40 O 0.47194 0.56774 0.78313 0.0
C41 C 0.38408 0.64604 0.87054 0.0
C42 C 0.40355 0.64967 0.90665 0.0
C43 C 0.3873 0.66187 0.89076 0.0
N44 N 0.39832 0.62575 0.87399 0.0
N45 N 0.40938 0.62772 0.89591 0.0
C46 C 0.36855 0.65052 0.84783 0.0
H47 H 0.38077 0.65602 0.83208 0.0
H48 H 0.35465 0.66549 0.85113 0.0
H49 H 0.35886 0.63304 0.84255 0.0
C50 C 0.47846 0.58048 0.84493 0.0
N51 N 0.45369 0.57839 0.84229 0.0
N52 N 0.4429 0.59871 0.85064 0.0
C53 C 0.46072 0.61541 0.85661 0.0
C54 C 0.48382 0.60426 0.85341 0.0
C55 C 0.4967 0.56012 0.83962 0.0
H56 H 0.48758 0.54175 0.84221 0.0
H57 H 0.5036 0.5617 0.82022 0.0
H58 H 0.51298 0.56165 0.85226 0.0
O59 O 0.41158 0.53835 0.84242 0.0
O60 O 0.38836 0.56912 0.85758 0.0
H61 H 0.45508 0.64589 0.88173 0.0
H62 H 0.47133 0.65409 0.8537 0.0
C63 C 0.45599 0.64253 0.86135 0.0
H64 H 0.43815 0.64829 0.85275 0.0
H65 H 0.42208 0.61475 0.90288 0.0
O66 O 0.45439 0.53472 0.80138 0.0
C67 C 0.39233 0.5459 0.85392 0.0
Co68 Co 0.81027 0.30903 0.43824 0.0
Co69 Co 0.84907 0.33547 0.40453 0.0
C70 C 0.84892 0.34169 0.46061 0.0
O71 O 0.83016 0.3274 0.46327 0.0
O72 O 0.85832 0.34577 0.43916 0.0
C73 C 0.78112 0.2861 0.47684 0.0
O74 O 0.79425 0.29959 0.49249 0.0
C75 C 0.89841 0.34939 0.38801 0.0
C76 C 0.8914 0.36463 0.35035 0.0
C77 C 0.90985 0.36063 0.36789 0.0
N78 N 0.87414 0.34703 0.38282 0.0
N79 N 0.87003 0.35599 0.36023 0.0
C80 C 0.91021 0.34157 0.41202 0.0
H81 H 0.90851 0.357 0.42573 0.0
H82 H 0.9005 0.32498 0.41969 0.0
H83 H 0.93027 0.33739 0.40928 0.0
C84 C 0.83186 0.26462 0.41478 0.0
N85 N 0.83033 0.28951 0.41733 0.0
N86 N 0.84659 0.30026 0.40251 0.0
C87 C 0.85905 0.28238 0.3899 0.0
C88 C 0.85002 0.25929 0.39734 0.0
C89 C 0.81697 0.24627 0.42961 0.0
H90 H 0.79699 0.24834 0.42484 0.0
H91 H 0.81916 0.25031 0.44979 0.0
H92 H 0.8228 0.22676 0.42584 0.0
O93 O 0.79068 0.33318 0.41925 0.0
O94 O 0.81747 0.35226 0.39425 0.0
H95 H 0.87393 0.30169 0.3583 0.0
H96 H 0.88493 0.26988 0.36165 0.0
C97 C 0.8797 0.28715 0.37182 0.0
H98 H 0.89617 0.29417 0.38209 0.0
H99 H 0.85255 0.35664 0.35177 0.0
O100 O 0.78567 0.28704 0.45371 0.0
C101 C 0.79551 0.34933 0.40263 0.0
Co102 Co 0.56036 0.94026 0.81571 0.0
Co103 Co 0.58953 0.89938 0.84452 0.0
C104 C 0.59144 0.89962 0.79027 0.0
O105 O 0.57822 0.91939 0.79019 0.0
O106 O 0.59592 0.88804 0.81039 0.0
C107 C 0.52092 0.95255 0.78257 0.0
O108 O 0.51625 0.92852 0.7837 0.0
C109 C 0.6074 0.85151 0.86243 0.0
C110 C 0.61791 0.86001 0.9014 0.0
C111 C 0.61691 0.84104 0.88389 0.0
N112 N 0.60286 0.87571 0.8669 0.0
N113 N 0.60918 0.88074 0.8902 0.0
C114 C 0.60278 0.83864 0.83807 0.0
H115 H 0.58549 0.84573 0.82935 0.0
H116 H 0.60139 0.81813 0.84055 0.0
H117 H 0.61848 0.84269 0.82523 0.0
C118 C 0.51924 0.92079 0.84663 0.0
N119 N 0.54335 0.9215 0.8401 0.0
N120 N 0.55483 0.9023 0.85005 0.0
C121 C 0.53786 0.88762 0.86142 0.0
C122 C 0.51462 0.8988 0.8593 0.0
C123 C 0.50075 0.94084 0.84121 0.0
H124 H 0.51051 0.95897 0.83942 0.0
H125 H 0.49059 0.93652 0.82378 0.0
H126 H 0.48681 0.94198 0.85647 0.0
O127 O 0.58564 0.96075 0.83101 0.0
O128 O 0.60878 0.93149 0.84909 0.0
H129 H 0.55682 0.86389 0.88719 0.0
H130 H 0.5263 0.85279 0.87848 0.0
C131 C 0.54334 0.86223 0.87163 0.0
H132 H 0.55191 0.85059 0.85689 0.0
H133 H 0.60746 0.8983 0.89845 0.0
O134 O 0.53779 0.96183 0.79632 0.0
C135 C 0.60488 0.95419 0.84307 0.0
Co136 Co 0.18564 0.80109 0.06201 0.0
Co137 Co 0.14664 0.83041 0.09309 0.0
C138 C 0.14998 0.83906 0.0392 0.0
O139 O 0.16816 0.82384 0.0385 0.0
O140 O 0.13777 0.84272 0.05925 0.0
C141 C 0.19549 0.76866 0.02229 0.0
O142 O 0.17131 0.77055 0.01947 0.0
C143 C 0.10415 0.85767 0.11381 0.0
C144 C 0.10133 0.84111 0.15143 0.0
C145 C 0.08925 0.85688 0.13493 0.0
N146 N 0.1236 0.84236 0.11729 0.0
N147 N 0.12228 0.8332 0.14014 0.0
C148 C 0.09978 0.87237 0.09049 0.0
H149 H 0.11744 0.88117 0.08446 0.0
H150 H 0.09353 0.85965 0.07541 0.0
H151 H 0.08552 0.88707 0.0934 0.0
C152 C 0.16179 0.7581 0.08547 0.0
N153 N 0.16415 0.78281 0.08207 0.0
N154 N 0.14608 0.79457 0.09372 0.0
C155 C 0.13065 0.77727 0.10368 0.0
C156 C 0.14044 0.75379 0.09901 0.0
C157 C 0.17934 0.73881 0.07558 0.0
H158 H 0.17363 0.73356 0.05642 0.0
H159 H 0.1789 0.72172 0.08726 0.0
H160 H 0.19856 0.7463 0.07512 0.0
O161 O 0.20773 0.82152 0.08184 0.0
O162 O 0.18011 0.84573 0.101 0.0
H163 H 0.10845 0.78404 0.136 0.0
H164 H 0.09279 0.7671 0.11189 0.0
C165 C 0.10602 0.78259 0.11552 0.0
H166 H 0.09813 0.80023 0.10821 0.0
H167 H 0.13499 0.82047 0.14753 0.0
O168 O 0.20561 0.77926 0.04087 0.0
C169 C 0.20256 0.8401 0.09561 0.0
Co170 Co 0.0508 0.55665 0.18055 0.0
Co171 Co 0.08522 0.59057 0.14834 0.0
C172 C 0.08544 0.59239 0.20467 0.0
O173 O 0.0689 0.57549 0.20682 0.0
O174 O 0.0926 0.60012 0.18339 0.0
C175 C 0.01445 0.53604 0.2152 0.0
O176 O 0.01847 0.55609 0.22873 0.0
C177 C 0.10091 0.63944 0.13271 0.0
C178 C 0.12209 0.63243 0.09807 0.0
C179 C 0.11416 0.65114 0.11406 0.0
N180 N 0.10094 0.61484 0.12815 0.0
N181 N 0.11364 0.61067 0.10743 0.0
C182 C 0.08808 0.65148 0.15437 0.0
H183 H 0.10126 0.65261 0.17025 0.0
H184 H 0.0718 0.64018 0.16026 0.0
H185 H 0.08205 0.6707 0.14956 0.0
C186 C 0.01215 0.58132 0.15128 0.0
N187 N 0.03617 0.5772 0.1567 0.0
N188 N 0.05034 0.59076 0.14199 0.0
C189 C 0.03553 0.60389 0.12644 0.0
C190 C 0.01095 0.59839 0.13207 0.0
C191 C 0.99077 0.57021 0.16532 0.0
H192 H 0.99134 0.54961 0.16344 0.0
H193 H 0.99258 0.5749 0.18538 0.0
H194 H 0.97259 0.57713 0.15839 0.0
O195 O 0.07471 0.53408 0.16496 0.0
O196 O 0.10122 0.5571 0.14313 0.0
H197 H 0.06113 0.61471 0.0977 0.0
H198 H 0.02964 0.62601 0.09338 0.0
C199 C 0.04441 0.62212 0.1073 0.0
H200 H 0.04939 0.6399 0.11661 0.0
H201 H 0.11645 0.59302 0.09967 0.0
O202 O 0.02629 0.5337 0.19489 0.0
C203 C 0.09422 0.53606 0.15174 0.0
Co204 Co 0.80001 0.69084 0.07833 0.0
Co205 Co 0.84479 0.65848 0.09636 0.0
C206 C 0.83134 0.66037 0.04268 0.0
O207 O 0.81465 0.67653 0.04745 0.0
O208 O 0.84516 0.65158 0.05986 0.0
C209 C 0.77461 0.72125 0.04567 0.0
O210 O 0.7963 0.72132 0.03438 0.0
C211 C 0.89581 0.63988 0.10115 0.0
C212 C 0.89729 0.63 0.14114 0.0
C213 C 0.91137 0.63086 0.11954 0.0
N214 N 0.87338 0.6442 0.11136 0.0
N215 N 0.87432 0.63808 0.13522 0.0
C216 C 0.90238 0.64513 0.07457 0.0
H217 H 0.89389 0.66301 0.06868 0.0
H218 H 0.92285 0.64584 0.07186 0.0
H219 H 0.8946 0.63013 0.06263 0.0
C220 C 0.82788 0.73074 0.10163 0.0
N221 N 0.8241 0.70637 0.09739 0.0
N222 N 0.84411 0.69362 0.10339 0.0
C223 C 0.86171 0.70986 0.11107 0.0
C224 C 0.85205 0.7339 0.10988 0.0
C225 C 0.80967 0.75083 0.09508 0.0
H226 H 0.79066 0.74511 0.10078 0.0
H227 H 0.80973 0.7537 0.0746 0.0
H228 H 0.81455 0.76869 0.10436 0.0
O229 O 0.78406 0.66319 0.0956 0.0
O230 O 0.81521 0.63967 0.10913 0.0
H231 H 0.8883 0.68922 0.13211 0.0
H232 H 0.89943 0.71933 0.12189 0.0
C233 C 0.88806 0.70289 0.11661 0.0
H234 H 0.89649 0.69405 0.09997 0.0
H235 H 0.85943 0.63995 0.14758 0.0
O236 O 0.77312 0.71337 0.0679 0.0
C237 C 0.79202 0.64374 0.10646 0.0
Co238 Co 0.93687 0.94049 0.17779 0.0
Co239 Co 0.91363 0.89649 0.14799 0.0
C240 C 0.90612 0.90052 0.20266 0.0
O241 O 0.9193 0.92031 0.20356 0.0
O242 O 0.90263 0.88881 0.18229 0.0
C243 C 0.96429 0.96647 0.21545 0.0
O244 O 0.96396 0.94528 0.22774 0.0
C245 C 0.89237 0.84919 0.13132 0.0
C246 C 0.91201 0.84329 0.09557 0.0
C247 C 0.89598 0.832 0.11236 0.0
N248 N 0.90619 0.86943 0.12637 0.0
N249 N 0.91732 0.8661 0.10462 0.0
C250 C 0.87623 0.84638 0.1539 0.0
H251 H 0.88804 0.84215 0.17033 0.0
H252 H 0.86246 0.83115 0.15144 0.0
H253 H 0.86631 0.86416 0.15754 0.0
C254 C 0.98301 0.92057 0.15655 0.0
N255 N 0.95805 0.921 0.15821 0.0
N256 N 0.94885 0.90047 0.14856 0.0
C257 C 0.96789 0.88525 0.14242 0.0
C258 C 0.99013 0.8977 0.14681 0.0
C259 C -0.00036 0.94121 0.1652 0.0
H260 H 0.99119 0.95952 0.1606 0.0
H261 H 0.00174 0.94009 0.18572 0.0
H262 H 0.01832 0.93978 0.15648 0.0
O263 O 0.9116 0.95668 0.1581 0.0
O264 O 0.89465 0.92663 0.13541 0.0
H265 H 0.96507 0.85528 0.11616 0.0
H266 H 0.98131 0.84737 0.14421 0.0
C267 C 0.96528 0.85802 0.13665 0.0
H268 H 0.94785 0.85053 0.14479 0.0
H269 H 0.92951 0.87894 0.09655 0.0
O270 O 0.95508 0.96766 0.19374 0.0
C271 C 0.89573 0.94941 0.14223 0.0
Co272 Co 0.41889 0.19786 0.18974 0.0
Co273 Co 0.39615 0.15262 0.16152 0.0
C274 C 0.45029 0.1609 0.16092 0.0
O275 O 0.44738 0.17884 0.17612 0.0
O276 O 0.43183 0.14817 0.15335 0.0
C277 C 0.45185 0.2142 0.22618 0.0
O278 O 0.45255 0.19027 0.23135 0.0
C279 C 0.38717 0.10094 0.14692 0.0
C280 C 0.34697 0.10112 0.13832 0.0
C281 C 0.36772 0.08586 0.13952 0.0
N282 N 0.37844 0.12423 0.14998 0.0
N283 N 0.35441 0.12426 0.14472 0.0
C284 C 0.41345 0.09314 0.1517 0.0
H285 H 0.42526 0.09932 0.13589 0.0
H286 H 0.4204 0.10228 0.16886 0.0
H287 H 0.41503 0.07258 0.15358 0.0
C288 C 0.39125 0.17681 0.23168 0.0
N289 N 0.39709 0.17741 0.20732 0.0
N290 N 0.39032 0.1564 0.19667 0.0
C291 C 0.38127 0.14105 0.21448 0.0
C292 C 0.38186 0.15343 0.23731 0.0
C293 C 0.39527 0.19794 0.24953 0.0
H294 H 0.39574 0.21598 0.23941 0.0
H295 H 0.41306 0.19541 0.25961 0.0
H296 H 0.38016 0.19826 0.26366 0.0
O297 O 0.40315 0.21426 0.16116 0.0
O298 O 0.38578 0.18239 0.14102 0.0
H299 H 0.35829 0.11337 0.19752 0.0
H300 H 0.37008 0.10448 0.22778 0.0
C301 C 0.37458 0.1143 0.21015 0.0
H302 H 0.39031 0.10461 0.20098 0.0
H303 H 0.34302 0.14 0.14589 0.0
O304 O 0.43565 0.22235 0.21097 0.0
C305 C 0.39087 0.2056 0.14283 0.0
Co306 Co 0.43818 0.31486 0.04286 0.0
Co307 Co 0.39996 0.34309 0.07591 0.0
C308 C 0.40255 0.28695 0.0753 0.0
O309 O 0.41767 0.28739 0.05701 0.0
O310 O 0.39408 0.30715 0.08471 0.0
C311 C 0.46477 0.27818 0.01611 0.0
O312 O 0.44568 0.26394 0.02159 0.0
C313 C 0.35201 0.35837 0.09687 0.0
C314 C 0.35944 0.39762 0.10719 0.0
C315 C 0.3413 0.37931 0.1074 0.0
N316 N 0.37555 0.3639 0.09069 0.0
N317 N 0.3799 0.38739 0.09688 0.0
C318 C 0.34005 0.33358 0.09269 0.0
H319 H 0.3468 0.32549 0.07491 0.0
H320 H 0.31946 0.33522 0.09234 0.0
H321 H 0.34543 0.32085 0.10807 0.0
C322 C 0.41553 0.34322 0.00328 0.0
N323 N 0.41851 0.33854 0.02762 0.0
N324 N 0.40024 0.34854 0.04047 0.0
C325 C 0.38414 0.3591 0.02425 0.0
C326 C 0.39327 0.35584 9e-05 0.0
C327 C 0.43249 0.33342 0.98337 0.0
H328 H 0.45211 0.33692 0.98873 0.0
H329 H 0.42993 0.31295 0.9816 0.0
H330 H 0.42876 0.34241 0.96511 0.0
O331 O 0.45753 0.32911 0.06991 0.0
O332 O 0.43195 0.35197 0.09281 0.0
H333 H 0.36172 0.38505 0.04459 0.0
H334 H 0.34844 0.37559 0.01506 0.0
C335 C 0.35921 0.36923 0.03149 0.0
H336 H 0.34846 0.35456 0.04126 0.0
H337 H 0.39687 0.39643 0.09406 0.0
O338 O 0.46365 0.30141 0.02035 0.0
C339 C 0.45357 0.34346 0.08827 0.0
Co340 Co 0.56517 0.30666 0.18819 0.0
Co341 Co 0.59561 0.34367 0.15597 0.0
C342 C 0.53981 0.33844 0.15147 0.0
O343 O 0.53888 0.32362 0.16986 0.0
O344 O 0.56042 0.34724 0.14369 0.0
C345 C 0.52667 0.28846 0.2183 0.0
O346 O 0.51726 0.31072 0.21434 0.0
C347 C 0.6063 0.39416 0.14181 0.0
C348 C 0.64256 0.39154 0.12256 0.0
C349 C 0.62413 0.40809 0.12981 0.0
N350 N 0.61359 0.37026 0.14172 0.0
N351 N 0.63528 0.3687 0.13017 0.0
C352 C 0.58293 0.40357 0.15365 0.0
H353 H 0.56888 0.40689 0.13888 0.0
H354 H 0.57556 0.38978 0.1672 0.0
H355 H 0.58645 0.42164 0.16317 0.0
C356 C 0.58881 0.33355 0.22904 0.0
N357 N 0.58534 0.32936 0.20463 0.0
N358 N 0.59846 0.34536 0.19149 0.0
C359 C 0.61108 0.36022 0.20744 0.0
C360 C 0.60506 0.35328 0.23159 0.0
C361 C 0.57604 0.31948 0.24947 0.0
H362 H 0.55575 0.32315 0.24854 0.0
H363 H 0.58295 0.32503 0.26816 0.0
H364 H 0.57903 0.29918 0.2468 0.0
O365 O 0.5838 0.28607 0.16392 0.0
O366 O 0.60865 0.31149 0.14275 0.0
H367 H 0.64106 0.38565 0.21572 0.0
H368 H 0.61764 0.39739 0.19488 0.0
C369 C 0.62855 0.38061 0.20004 0.0
H370 H 0.63984 0.37472 0.18377 0.0
H371 H 0.64513 0.3521 0.12758 0.0
O372 O 0.54877 0.28372 0.2114 0.0
C373 C 0.6002 0.28972 0.14715 0.0
Co374 Co 0.55813 0.17925 0.05719 0.0
Co375 Co 0.59222 0.14456 0.08819 0.0
C376 C 0.59688 0.19977 0.0917 0.0
O377 O 0.57918 0.20261 0.07627 0.0
O378 O 0.6051 0.17819 0.09689 0.0
C379 C 0.54918 0.21734 0.02157 0.0
O380 O 0.57354 0.21908 0.02071 0.0
C381 C 0.63983 0.12562 0.10206 0.0
C382 C 0.63155 0.09096 0.12275 0.0
C383 C 0.65074 0.10638 0.11498 0.0
N384 N 0.61518 0.12204 0.10207 0.0
N385 N 0.61022 0.10123 0.11434 0.0
C386 C 0.65269 0.14739 0.09023 0.0
H387 H 0.64171 0.15449 0.07422 0.0
H388 H 0.67164 0.14207 0.08391 0.0
H389 H 0.65451 0.16256 0.10421 0.0
C390 C 0.5778 0.14892 0.01578 0.0
N391 N 0.5759 0.15444 0.04016 0.0
N392 N 0.59044 0.13948 0.05302 0.0
C393 C 0.6024 0.12415 0.03695 0.0
C394 C 0.59492 0.12996 0.01291 0.0
C395 C 0.56432 0.16218 0.99532 0.0
H396 H 0.54516 0.16682 0.00137 0.0
H397 H 0.57442 0.17961 0.9907 0.0
H398 H 0.56342 0.15057 0.9782 0.0
O399 O 0.53514 0.16471 0.08137 0.0
O400 O 0.55933 0.14134 0.10562 0.0
H401 H 0.61516 0.09457 0.06062 0.0
H402 H 0.62503 0.09199 0.02844 0.0
C403 C 0.6215 0.10515 0.04405 0.0
H404 H 0.63919 0.1147 0.04867 0.0
H405 H 0.59231 0.09427 0.1173 0.0
O406 O 0.53899 0.20047 0.03468 0.0
C407 C 0.53821 0.15085 0.10038 0.0
Co408 Co 0.43211 0.8094 0.31204 0.0
Co409 Co 0.39849 0.84628 0.34128 0.0
C410 C 0.45479 0.84617 0.34617 0.0
O411 O 0.4573 0.8283 0.33073 0.0
O412 O 0.43337 0.85502 0.35123 0.0
C413 C 0.45894 0.76767 0.29867 0.0
O414 O 0.45856 0.76485 0.32299 0.0
C415 C 0.38366 0.89645 0.35365 0.0
C416 C 0.34761 0.89149 0.37287 0.0
C417 C 0.36477 0.90931 0.36544 0.0
N418 N 0.37814 0.87206 0.35412 0.0
N419 N 0.35655 0.86913 0.36559 0.0
C420 C 0.40665 0.90715 0.34208 0.0
H421 H 0.41315 0.89512 0.32653 0.0
H422 H 0.40315 0.92638 0.33524 0.0
H423 H 0.42158 0.90794 0.35634 0.0
C424 C 0.40775 0.83309 0.26936 0.0
N425 N 0.41072 0.83023 0.29405 0.0
N426 N 0.39564 0.84544 0.30598 0.0
C427 C 0.3823 0.8584 0.28902 0.0
C428 C 0.38972 0.85099 0.26537 0.0
C429 C 0.42266 0.81958 0.25001 0.0
H430 H 0.44278 0.8219 0.254 0.0
H431 H 0.41858 0.82649 0.23094 0.0
H432 H 0.4183 0.79936 0.25095 0.0
O433 O 0.4137 0.78848 0.33565 0.0
O434 O 0.38849 0.81355 0.35675 0.0
H435 H 0.35201 0.87195 0.31133 0.0
H436 H 0.35092 0.88136 0.27888 0.0
C437 C 0.36331 0.87788 0.29508 0.0
H438 H 0.37289 0.89557 0.29983 0.0
H439 H 0.348 0.85189 0.36855 0.0
O440 O 0.44858 0.78649 0.28893 0.0
C441 C 0.39734 0.79188 0.35241 0.0
Co442 Co 0.05407 0.32135 0.94156 0.0
Co443 Co 0.09703 0.35039 0.91657 0.0
C444 C 0.09094 0.29681 0.90617 0.0
O445 O 0.072 0.29648 0.92051 0.0
O446 O 0.10358 0.31665 0.9029 0.0
C447 C 0.03373 0.28165 0.96871 0.0
O448 O 0.05643 0.27271 0.96737 0.0
C449 C 0.14223 0.36919 0.89301 0.0
C450 C 0.14814 0.40439 0.91374 0.0
C451 C 0.15873 0.38876 0.89611 0.0
N452 N 0.12302 0.37273 0.90857 0.0
N453 N 0.12632 0.3941 0.92044 0.0
C454 C 0.14477 0.34729 0.87587 0.0
H455 H 0.12663 0.34347 0.86682 0.0
H456 H 0.15006 0.33059 0.88687 0.0
H457 H 0.15911 0.35068 0.86136 0.0
C458 C 0.07769 0.33946 0.9871 0.0
N459 N 0.07556 0.33887 0.96216 0.0
N460 N 0.09572 0.3481 0.95191 0.0
C461 C 0.11234 0.35297 0.97009 0.0
C462 C 0.10126 0.34806 0.99297 0.0
C463 C 0.05786 0.33105 0.00482 0.0
H464 H 0.03924 0.33583 0.9973 0.0
H465 H 0.05889 0.31052 0.00703 0.0
H466 H 0.06033 0.33983 0.02341 0.0
O467 O 0.03604 0.34319 0.91969 0.0
O468 O 0.06593 0.36449 0.90087 0.0
H469 H 0.14238 0.37886 0.96597 0.0
H470 H 0.15093 0.3501 0.9807 0.0
C471 C 0.13934 0.3584 0.96571 0.0
H472 H 0.14537 0.35086 0.94743 0.0
H473 H 0.11415 0.40111 0.93392 0.0
O474 O 0.02924 0.30349 0.96088 0.0
C475 C 0.04299 0.35928 0.90385 0.0
Co476 Co 0.5587 0.67865 0.30724 0.0
Co477 Co 0.59431 0.64288 0.33562 0.0
C478 C 0.53905 0.64068 0.34278 0.0
O479 O 0.53571 0.65852 0.32755 0.0
O480 O 0.56072 0.63225 0.34701 0.0
C481 C 0.51824 0.69014 0.27575 0.0
O482 O 0.51338 0.66641 0.27923 0.0
C483 C 0.61149 0.59425 0.35044 0.0
C484 C 0.64835 0.60154 0.36711 0.0
C485 C 0.63115 0.5829 0.36234 0.0
N486 N 0.61655 0.61865 0.34827 0.0
N487 N 0.63869 0.62295 0.35811 0.0
C488 C 0.58795 0.58213 0.3418 0.0
H489 H 0.58028 0.59222 0.32545 0.0
H490 H 0.59128 0.56227 0.33692 0.0
H491 H 0.57406 0.58281 0.35711 0.0
C492 C 0.58455 0.65697 0.26388 0.0
N493 N 0.58096 0.65905 0.2886 0.0
N494 N 0.59601 0.64362 0.30028 0.0
C495 C 0.60947 0.63094 0.28318 0.0
C496 C 0.60248 0.63903 0.25967 0.0
C497 C 0.57091 0.67168 0.24456 0.0
H498 H 0.57045 0.69159 0.25011 0.0
H499 H 0.55154 0.66472 0.24319 0.0
H500 H 0.57985 0.66997 0.22596 0.0
O501 O 0.57644 0.70107 0.32995 0.0
O502 O 0.60251 0.67631 0.35055 0.0
H503 H 0.63916 0.60602 0.27225 0.0
H504 H 0.61849 0.59436 0.29607 0.0
C505 C 0.62822 0.61119 0.28905 0.0
H506 H 0.64097 0.61791 0.30384 0.0
H507 H 0.64695 0.64055 0.35916 0.0
O508 O 0.53785 0.69917 0.2854 0.0
C509 C 0.59308 0.69779 0.34648 0.0
Co510 Co 0.93666 0.17507 0.93747 0.0
Co511 Co 0.89215 0.14922 0.91176 0.0
C512 C 0.89618 0.20274 0.90748 0.0
O513 O 0.91651 0.20108 0.91963 0.0
O514 O 0.88259 0.18371 0.9037 0.0
C515 C 0.95406 0.21147 0.97105 0.0
O516 O 0.93026 0.21532 0.9751 0.0
C517 C 0.84576 0.1319 0.88956 0.0
C518 C 0.84013 0.09615 0.9093 0.0
C519 C 0.82859 0.11304 0.89354 0.0
N520 N 0.8662 0.12683 0.90296 0.0
N521 N 0.86304 0.10506 0.9141 0.0
C522 C 0.84253 0.15473 0.87386 0.0
H523 H 0.86012 0.15875 0.86386 0.0
H524 H 0.83813 0.17091 0.88602 0.0
H525 H 0.82726 0.15228 0.86015 0.0
C526 C 0.91636 0.151 0.98184 0.0
N527 N 0.91707 0.15449 0.95705 0.0
N528 N 0.89614 0.1469 0.94704 0.0
C529 C 0.88041 0.14046 0.96555 0.0
C530 C 0.89287 0.14247 0.98813 0.0
C531 C 0.93742 0.15651 -0.00078 0.0
H532 H 0.95546 0.15514 0.98923 0.0
H533 H 0.93546 0.17564 0.00677 0.0
H534 H 0.93716 0.14335 0.0152 0.0
O535 O 0.95458 0.15638 0.91275 0.0
O536 O 0.92289 0.14141 0.89082 0.0
H537 H 0.84871 0.11663 0.96164 0.0
H538 H 0.84267 0.14489 0.97841 0.0
C539 C 0.85297 0.13685 0.96235 0.0
H540 H 0.8465 0.14585 0.94492 0.0
H541 H 0.87589 0.09708 0.92632 0.0
O542 O 0.96085 0.19359 0.95713 0.0
C543 C 0.94621 0.14499 0.89383 0.0
Co544 Co 0.19311 0.42722 0.19109 0.0
Co545 Co 0.16578 0.39371 0.15243 0.0
C546 C 0.15754 0.44897 0.15459 0.0
O547 O 0.17416 0.4513 0.17129 0.0
O548 O 0.15186 0.42772 0.14555 0.0
C549 C 0.22003 0.468 0.21066 0.0
O550 O 0.21805 0.47686 0.18793 0.0
C551 C 0.14112 0.37498 0.10773 0.0
C552 C 0.15716 0.33711 0.10463 0.0
C553 C 0.14239 0.35429 0.09225 0.0
N554 N 0.15524 0.37059 0.12786 0.0
N555 N 0.16404 0.34761 0.12635 0.0
C556 C 0.12696 0.39866 0.10343 0.0
H557 H 0.11726 0.40419 0.12085 0.0
H558 H 0.14015 0.41377 0.09841 0.0
H559 H 0.11307 0.39648 0.08828 0.0
C560 C 0.23732 0.40543 0.16829 0.0
N561 N 0.2125 0.40685 0.1709 0.0
N562 N 0.20155 0.39419 0.15298 0.0
C563 C 0.21938 0.38503 0.1377 0.0
C564 C 0.24245 0.39162 0.14719 0.0
C565 C 0.25564 0.41907 0.18424 0.0
H566 H 0.25045 0.41711 0.20416 0.0
H567 H 0.25521 0.43917 0.17935 0.0
H568 H 0.27483 0.41198 0.18136 0.0
O569 O 0.16857 0.40886 0.21053 0.0
O570 O 0.15044 0.38249 0.18443 0.0
H571 H 0.2129 0.35219 0.11613 0.0
H572 H 0.23068 0.37545 0.10022 0.0
C573 C 0.21482 0.37256 0.11315 0.0
H574 H 0.19767 0.37997 0.10445 0.0
H575 H 0.17579 0.33957 0.13959 0.0
O576 O 0.21275 0.44599 0.21535 0.0
C577 C 0.15257 0.39202 0.20605 0.0
Co578 Co 0.1914 0.57866 0.30451 0.0
Co579 Co 0.16026 0.60085 0.34651 0.0
C580 C 0.1549 0.54969 0.33989 0.0
O581 O 0.16877 0.55332 0.32085 0.0
O582 O 0.15055 0.56711 0.35533 0.0
C583 C 0.22274 0.53931 0.29002 0.0
O584 O 0.22364 0.53503 0.31413 0.0
C585 C 0.13347 0.61916 0.39035 0.0
C586 C 0.15315 0.65475 0.39698 0.0
C587 C 0.13646 0.6382 0.40768 0.0
N588 N 0.14837 0.62387 0.37076 0.0
N589 N 0.15953 0.64551 0.37454 0.0
C590 C 0.11768 0.59629 0.39281 0.0
H591 H 0.10938 0.59155 0.37446 0.0
H592 H 0.12942 0.58032 0.39869 0.0
H593 H 0.10273 0.59911 0.40683 0.0
C594 C 0.2333 0.5975 0.33264 0.0
N595 N 0.20889 0.59557 0.32811 0.0
N596 N 0.19607 0.60252 0.34771 0.0
C597 C 0.21224 0.60728 0.36637 0.0
C598 C 0.23633 0.60451 0.35727 0.0
C599 C 0.25328 0.59128 0.31416 0.0
H600 H 0.24644 0.59427 0.29488 0.0
H601 H 0.25873 0.57144 0.31617 0.0
H602 H 0.27003 0.60291 0.31756 0.0
O603 O 0.17302 0.60248 0.28484 0.0
O604 O 0.14283 0.60539 0.31257 0.0
H605 H 0.20337 0.6303 0.39769 0.0
H606 H 0.21921 0.60191 0.40559 0.0
C607 C 0.20493 0.61018 0.39313 0.0
H608 H 0.18674 0.60108 0.39651 0.0
H609 H 0.17298 0.65303 0.36266 0.0
O610 O 0.21233 0.55898 0.28206 0.0
C611 C 0.15032 0.60609 0.28993 0.0
Co612 Co 0.80346 0.56196 0.9284 0.0
Co613 Co 0.84157 0.59257 0.89727 0.0
C614 C 0.7867 0.59443 0.88646 0.0
O615 O 0.78231 0.57881 0.90375 0.0
O616 O 0.80884 0.60158 0.88219 0.0
C617 C 0.76427 0.52639 0.93783 0.0
O618 O 0.76249 0.52438 0.91348 0.0
C619 C 0.86538 0.60674 0.85134 0.0
C620 C 0.89912 0.62678 0.86372 0.0
C621 C 0.88582 0.61962 0.8428 0.0
N622 N 0.86629 0.60616 0.87629 0.0
N623 N 0.88658 0.618 0.88367 0.0
C624 C 0.8451 0.59549 0.8359 0.0
H625 H 0.83518 0.58076 0.8465 0.0
H626 H 0.85294 0.58752 0.81846 0.0
H627 H 0.83168 0.61028 0.8306 0.0
C628 C 0.8348 0.52026 0.91154 0.0
N629 N 0.82965 0.54472 0.91304 0.0
N630 N 0.84581 0.5573 0.89954 0.0
C631 C 0.8617 0.54094 0.8888 0.0
C632 C 0.85486 0.51703 0.89584 0.0
C633 C 0.82047 0.50016 0.92439 0.0
H634 H 0.80312 0.49646 0.91387 0.0
H635 H 0.83129 0.48255 0.92538 0.0
H636 H 0.8157 0.5063 0.94354 0.0
O637 O 0.81621 0.58715 0.95183 0.0
O638 O 0.84378 0.60939 0.93036 0.0
H639 H 0.89518 0.53175 0.86852 0.0
H640 H 0.8743 0.55292 0.85297 0.0
C641 C 0.88229 0.54771 0.87129 0.0
H642 H 0.89278 0.56389 0.87872 0.0
H643 H 0.8916 0.62051 0.90232 0.0
O644 O 0.78119 0.53988 0.94741 0.0
C645 C 0.8319 0.60489 0.95042 0.0
Co646 Co 0.80884 0.92777 0.30515 0.0
Co647 Co 0.83833 0.89933 0.34622 0.0
C648 C 0.84343 0.95399 0.34095 0.0
O649 O 0.8276 0.95402 0.3233 0.0
O650 O 0.84983 0.93392 0.35179 0.0
C651 C 0.7707 0.96116 0.28933 0.0
O652 O 0.76613 0.96335 0.3133 0.0
C653 C 0.85551 0.88534 0.39571 0.0
C654 C 0.86536 0.8456 0.39057 0.0
C655 C 0.86452 0.86461 0.40806 0.0
N656 N 0.85117 0.87896 0.37191 0.0
N657 N 0.85714 0.85522 0.3689 0.0
C658 C 0.85084 0.91072 0.40643 0.0
H659 H 0.8354 0.92011 0.39644 0.0
H660 H 0.84651 0.90948 0.42665 0.0
H661 H 0.86782 0.92226 0.4041 0.0
C662 C 0.76695 0.90105 0.32831 0.0
N663 N 0.7913 0.90632 0.32655 0.0
N664 N 0.80294 0.8971 0.34602 0.0
C665 C 0.78588 0.88733 0.36177 0.0
C666 C 0.76247 0.8898 0.35104 0.0
C667 C 0.7483 0.9055 0.30819 0.0
H668 H 0.75776 0.90539 0.28981 0.0
H669 H 0.73889 0.92364 0.31122 0.0
H670 H 0.73378 0.89077 0.30853 0.0
O671 O 0.83308 0.90948 0.28564 0.0
O672 O 0.85371 0.8875 0.31398 0.0
H673 H 0.80451 0.86126 0.38544 0.0
H674 H 0.77464 0.87142 0.39722 0.0
C675 C 0.79168 0.87738 0.38717 0.0
H676 H 0.80107 0.892 0.39829 0.0
H677 H 0.85544 0.84555 0.35208 0.0
O678 O 0.78687 0.9456 0.28183 0.0
C679 C 0.85022 0.89424 0.29143 0.0
Co680 Co 0.67862 0.4329 0.43906 0.0
Co681 Co 0.64965 0.40583 0.39707 0.0
C682 C 0.70497 0.40267 0.40025 0.0
O683 O 0.70516 0.41594 0.41993 0.0
O684 O 0.68488 0.39852 0.38844 0.0
C685 C 0.71623 0.4602 0.46352 0.0
O686 O 0.72814 0.45788 0.44226 0.0
C687 C 0.63681 0.39384 0.34618 0.0
C688 C 0.59903 0.3779 0.34967 0.0
C689 C 0.61764 0.38344 0.33269 0.0
N690 N 0.63005 0.39438 0.37025 0.0
N691 N 0.60743 0.38491 0.37229 0.0
C692 C 0.66121 0.40298 0.33633 0.0
H693 H 0.6677 0.41926 0.34734 0.0
H694 H 0.65966 0.40817 0.31635 0.0
H695 H 0.67521 0.38787 0.33809 0.0
C696 C 0.65499 0.47677 0.4172 0.0
N697 N 0.65776 0.45194 0.41898 0.0
N698 N 0.64485 0.44086 0.40135 0.0
C699 C 0.63332 0.45857 0.38766 0.0
C700 C 0.63961 0.48179 0.39722 0.0
C701 C 0.66893 0.49532 0.43267 0.0
H702 H 0.66585 0.49129 0.45272 0.0
H703 H 0.68912 0.49349 0.42879 0.0
H704 H 0.66301 0.51474 0.42862 0.0
O705 O 0.66091 0.40668 0.45671 0.0
O706 O 0.64174 0.38495 0.42724 0.0
H707 H 0.60523 0.43812 0.36802 0.0
H708 H 0.60778 0.47058 0.35902 0.0
C709 C 0.61835 0.45371 0.36467 0.0
H710 H 0.63101 0.44839 0.34922 0.0
H711 H 0.59782 0.3831 0.38912 0.0
O712 O 0.69386 0.45296 0.46528 0.0
C713 C 0.64787 0.38815 0.44997 0.0
Co714 Co 0.304 0.56289 0.68417 0.0
Co715 Co 0.3391 0.59499 0.65203 0.0
C716 C 0.33971 0.5377 0.65221 0.0
O717 O 0.31913 0.53653 0.66379 0.0
O718 O 0.34964 0.55887 0.64754 0.0
C719 C 0.26661 0.52879 0.7035 0.0
O720 O 0.27086 0.51585 0.68312 0.0
C721 C 0.35666 0.6115 0.60347 0.0
C722 C 0.38038 0.64378 0.61309 0.0
C723 C 0.37171 0.62965 0.59334 0.0
N724 N 0.35629 0.61456 0.62828 0.0
N725 N 0.37048 0.6339 0.63397 0.0
C726 C 0.34247 0.59198 0.58957 0.0
H727 H 0.33009 0.5814 0.60234 0.0
H728 H 0.3313 0.60087 0.57461 0.0
H729 H 0.35576 0.57914 0.58028 0.0
C730 C 0.26558 0.59169 0.65839 0.0
N731 N 0.28954 0.58658 0.66329 0.0
N732 N 0.30398 0.60051 0.64922 0.0
C733 C 0.28938 0.61559 0.63526 0.0
C734 C 0.26467 0.61009 0.64042 0.0
C735 C 0.244 0.57812 0.66966 0.0
H736 H 0.24536 0.55804 0.66486 0.0
H737 H 0.22591 0.58539 0.66287 0.0
H738 H 0.24471 0.57995 0.69024 0.0
O739 O 0.32946 0.57772 0.70685 0.0
O740 O 0.35104 0.60539 0.68504 0.0
H741 H 0.28434 0.64986 0.61496 0.0
H742 H 0.30208 0.62634 0.59911 0.0
C743 C 0.29855 0.63504 0.61752 0.0
H744 H 0.31605 0.64344 0.62448 0.0
H745 H 0.37346 0.64032 0.6521 0.0
O746 O 0.27896 0.54868 0.70689 0.0
C747 C 0.3462 0.59448 0.70548 0.0
Co748 Co 0.81889 0.43403 0.56305 0.0
Co749 Co 0.84884 0.40675 0.60424 0.0
C750 C 0.79505 0.39705 0.59758 0.0
O751 O 0.79408 0.4131 0.58021 0.0
O752 O 0.81533 0.39206 0.60862 0.0
C753 C 0.7804 0.46571 0.54741 0.0
O754 O 0.77626 0.46801 0.57146 0.0
C755 C 0.86062 0.39053 0.65443 0.0
C756 C 0.90148 0.38595 0.65322 0.0
C757 C 0.88096 0.38421 0.66876 0.0
N758 N 0.86861 0.39579 0.6313 0.0
N759 N 0.89304 0.39294 0.63061 0.0
C760 C 0.8341 0.39222 0.66283 0.0
H761 H 0.82463 0.40806 0.65351 0.0
H762 H 0.83288 0.39447 0.68338 0.0
H763 H 0.8243 0.37479 0.65752 0.0
C764 C 0.84 0.47828 0.58711 0.0
N765 N 0.83745 0.45346 0.585 0.0
N766 N 0.84785 0.44243 0.60422 0.0
C767 C 0.85603 0.46017 0.62012 0.0
C768 C 0.85125 0.48348 0.60973 0.0
C769 C 0.8321 0.49672 0.5677 0.0
H770 H 0.83326 0.48823 0.54886 0.0
H771 H 0.81262 0.50252 0.5712 0.0
H772 H 0.844 0.51364 0.56844 0.0
O773 O 0.83982 0.41169 0.54383 0.0
O774 O 0.86295 0.39244 0.57221 0.0
H775 H 0.88447 0.44477 0.64329 0.0
H776 H 0.8698 0.47228 0.65618 0.0
C777 C 0.86661 0.45493 0.64539 0.0
H778 H 0.85361 0.44291 0.65597 0.0
H779 H 0.90396 0.3961 0.61482 0.0
O780 O 0.79944 0.45396 0.53984 0.0
C781 C 0.85632 0.39574 0.54958 0.0
Co782 Co 0.17683 0.06292 0.55547 0.0
Co783 Co 0.14641 0.08941 0.59737 0.0
C784 C 0.20107 0.09695 0.59231 0.0
O785 O 0.202 0.08067 0.57504 0.0
O786 O 0.18066 0.1028 0.60294 0.0
C787 C 0.21585 0.04244 0.52642 0.0
O788 O 0.23007 0.05654 0.54047 0.0
C789 C 0.12987 0.11088 0.64486 0.0
C790 C 0.09293 0.09315 0.6487 0.0
C791 C 0.11026 0.10748 0.66138 0.0
N792 N 0.1247 0.09837 0.6238 0.0
N793 N 0.10226 0.08853 0.62589 0.0
C794 C 0.15322 0.12553 0.64895 0.0
H795 H 0.16881 0.11251 0.65275 0.0
H796 H 0.15123 0.13861 0.66488 0.0
H797 H 0.15787 0.13617 0.63182 0.0
C798 C 0.15637 0.01835 0.5777 0.0
N799 N 0.15755 0.0433 0.57606 0.0
N800 N 0.14667 0.05356 0.59549 0.0
C801 C 0.13894 0.03499 0.61076 0.0
C802 C 0.14457 0.01232 0.59967 0.0
C803 C 0.16863 0.00067 0.55989 0.0
H804 H 0.16273 0.00511 0.54057 0.0
H805 H 0.18911 0.00301 0.56106 0.0
H806 H 0.16392 0.98097 0.56411 0.0
O807 O 0.15772 0.088 0.53776 0.0
O808 O 0.13392 0.10622 0.56631 0.0
H809 H 0.10847 0.03988 0.63586 0.0
H810 H 0.13359 0.02206 0.6485 0.0
C811 C 0.12903 0.03838 0.63662 0.0
H812 H 0.13694 0.05541 0.64523 0.0
H813 H 0.09394 0.07742 0.61226 0.0
O814 O 0.1926 0.04189 0.5301 0.0
C815 C 0.14168 0.10424 0.54393 0.0
Co816 Co 0.68817 0.68507 0.92988 0.0
Co817 Co 0.64613 0.66192 0.89689 0.0
C818 C 0.64938 0.64977 0.95048 0.0
O819 O 0.66842 0.66368 0.95232 0.0
O820 O 0.63789 0.64735 0.92992 0.0
C821 C 0.70046 0.71617 0.97032 0.0
O822 O 0.67622 0.71918 0.97118 0.0
C823 C 0.59977 0.64048 0.87802 0.0
C824 C 0.59641 0.65867 0.84121 0.0
C825 C 0.58381 0.6436 0.85799 0.0
N826 N 0.6205 0.6538 0.87373 0.0
N827 N 0.61872 0.66395 0.85134 0.0
C828 C 0.59526 0.62526 0.90099 0.0
H829 H 0.61222 0.61439 0.90552 0.0
H830 H 0.59115 0.63788 0.91688 0.0
H831 H 0.57943 0.61222 0.89843 0.0
C832 C 0.66766 0.73168 0.90927 0.0
N833 N 0.66793 0.70668 0.91128 0.0
N834 N 0.64846 0.69738 0.89965 0.0
C835 C 0.63429 0.71648 0.89137 0.0
C836 C 0.64625 0.73862 0.89702 0.0
C837 C 0.68723 0.74885 0.91908 0.0
H838 H 0.70505 0.73881 0.92172 0.0
H839 H 0.68074 0.75684 0.93702 0.0
H840 H 0.69022 0.76463 0.90604 0.0
O841 O 0.70762 0.66356 0.90793 0.0
O842 O 0.67804 0.64698 0.88407 0.0
H843 H 0.61106 0.71329 0.85927 0.0
H844 H 0.59733 0.73044 0.88435 0.0
C845 C 0.60909 0.71402 0.87984 0.0
H846 H 0.59972 0.69689 0.88657 0.0
H847 H 0.63225 0.67554 0.8435 0.0
O848 O 0.71008 0.70326 0.95292 0.0
C849 C 0.70081 0.64894 0.89054 0.0
Co850 Co 0.94444 0.06458 0.3143 0.0
Co851 Co 0.90814 0.09932 0.34218 0.0
C852 C 0.90476 0.09575 0.28831 0.0
O853 O 0.92123 0.07873 0.28941 0.0
O854 O 0.89822 0.10777 0.30764 0.0
C855 C 0.97687 0.05343 0.27449 0.0
O856 O 0.976 0.07746 0.26977 0.0
C857 C 0.88763 0.14614 0.35899 0.0
C858 C 0.87219 0.13737 0.39617 0.0
C859 C 0.87589 0.15663 0.37933 0.0
N860 N 0.89092 0.12173 0.36344 0.0
N861 N 0.8815 0.11649 0.38563 0.0
C862 C 0.89655 0.15933 0.33607 0.0
H863 H 0.91347 0.15011 0.32858 0.0
H864 H 0.90051 0.17927 0.34008 0.0
H865 H 0.8818 0.15841 0.32163 0.0
C866 C 0.98218 0.09453 0.33878 0.0
N867 N 0.95839 0.08874 0.33411 0.0
N868 N 0.94349 0.10332 0.34704 0.0
C869 C 0.95774 0.11917 0.36049 0.0
C870 C 0.98255 0.11416 0.35536 0.0
C871 C 0.00409 0.08159 0.32732 0.0
H872 H 0.00085 0.06116 0.32695 0.0
H873 H 0.00642 0.08817 0.30787 0.0
H874 H 0.02152 0.08555 0.33763 0.0
O875 O 0.92696 0.04046 0.33494 0.0
O876 O 0.89518 0.06401 0.34679 0.0
H877 H 0.93298 0.13063 0.38961 0.0
H878 H 0.96315 0.14563 0.39036 0.0
C879 C 0.94812 0.13858 0.37804 0.0
H880 H 0.94059 0.15447 0.3672 0.0
H881 H 0.88191 0.0988 0.39377 0.0
O882 O 0.96831 0.04526 0.29494 0.0
C883 C 0.90503 0.04257 0.34339 0.0
Co884 Co 0.30454 0.81569 0.92774 0.0
Co885 Co 0.34969 0.83976 0.90066 0.0
C886 C 0.34174 0.84843 0.95464 0.0
O887 O 0.32229 0.83477 0.95425 0.0
O888 O 0.35486 0.8519 0.93515 0.0
C889 C 0.27483 0.79259 0.96502 0.0
O890 O 0.29104 0.80216 0.98064 0.0
C891 C 0.3973 0.86194 0.8858 0.0
C892 C 0.40487 0.84152 0.85076 0.0
C893 C 0.41523 0.85821 0.86754 0.0
N894 N 0.3776 0.8475 0.88043 0.0
N895 N 0.38196 0.83589 0.85912 0.0
C896 C 0.39869 0.87895 0.9079 0.0
H897 H 0.38062 0.88867 0.91034 0.0
H898 H 0.40219 0.86775 0.92494 0.0
H899 H 0.41379 0.8929 0.90571 0.0
C900 C 0.32699 0.76976 0.90899 0.0
N901 N 0.32607 0.79478 0.91027 0.0
N902 N 0.34688 0.80428 0.90167 0.0
C903 C 0.36263 0.78532 0.89646 0.0
C904 C 0.35033 0.76289 0.90046 0.0
C905 C 0.30632 0.75281 0.91692 0.0
H906 H 0.2883 0.76018 0.91003 0.0
H907 H 0.30554 0.75216 0.93758 0.0
H908 H 0.3091 0.7336 0.90967 0.0
O909 O 0.28864 0.83931 0.90603 0.0
O910 O 0.31972 0.85715 0.88554 0.0
H911 H 0.39331 0.78808 0.87116 0.0
H912 H 0.40046 0.7724 0.89973 0.0
C913 C 0.38991 0.78822 0.89155 0.0
H914 H 0.39689 0.80595 0.8996 0.0
H915 H 0.36969 0.82327 0.85085 0.0
O916 O 0.27772 0.79552 0.94179 0.0
C917 C 0.29655 0.85507 0.89031 0.0
Co918 Co 0.05398 0.44108 0.31156 0.0
Co919 Co 0.08483 0.40472 0.34526 0.0
C920 C 0.09011 0.40231 0.29094 0.0
O921 O 0.07509 0.4206 0.28844 0.0
O922 O 0.09459 0.39279 0.31217 0.0
C923 C 0.01683 0.45319 0.27414 0.0
O924 O 0.01359 0.42899 0.27194 0.0
C925 C 0.11222 0.36286 0.36636 0.0
C926 C 0.09487 0.35978 0.40358 0.0
C927 C 0.11029 0.34735 0.38695 0.0
N928 N 0.09759 0.38282 0.37008 0.0
N929 N 0.08815 0.38143 0.3928 0.0
C930 C 0.12747 0.3586 0.34338 0.0
H931 H 0.11534 0.35214 0.32796 0.0
H932 H 0.14217 0.34442 0.34668 0.0
H933 H 0.13626 0.37639 0.33765 0.0
C934 C 0.01246 0.41895 0.33965 0.0
N935 N 0.03689 0.42164 0.33507 0.0
N936 N 0.04931 0.40436 0.34724 0.0
C937 C 0.03275 0.38878 0.35812 0.0
C938 C 0.00905 0.3979 0.35395 0.0
C939 C 0.99263 0.43601 0.3304 0.0
H940 H 0.00038 0.45506 0.32849 0.0
H941 H 0.98575 0.42922 0.31215 0.0
H942 H 0.97663 0.43642 0.3435 0.0
O943 O 0.07621 0.46394 0.3282 0.0
O944 O 0.10105 0.43849 0.3494 0.0
H945 H 0.02367 0.35034 0.36564 0.0
H946 H 0.05639 0.35659 0.36148 0.0
C947 C 0.03879 0.36395 0.3693 0.0
H948 H 0.04038 0.36594 0.38982 0.0
H949 H 0.07556 0.39432 0.40019 0.0
O950 O 0.03163 0.46164 0.29057 0.0
C951 C 0.09534 0.46023 0.34158 0.0
Co952 Co 0.68934 0.28962 0.56608 0.0
Co953 Co 0.65302 0.32709 0.59045 0.0
C954 C 0.65696 0.32638 0.53631 0.0
O955 O 0.67353 0.30947 0.53849 0.0
O956 O 0.64581 0.33507 0.55534 0.0
C957 C 0.70089 0.25421 0.52938 0.0
O958 O 0.67757 0.25821 0.52325 0.0
C959 C 0.60719 0.35218 0.60549 0.0
C960 C 0.61515 0.36275 0.64453 0.0
C961 C 0.59691 0.36334 0.62631 0.0
N962 N 0.63053 0.34515 0.61104 0.0
N963 N 0.63526 0.35166 0.63435 0.0
C964 C 0.59475 0.34769 0.58094 0.0
H965 H 0.60106 0.32975 0.57284 0.0
H966 H 0.57419 0.34763 0.58295 0.0
H967 H 0.60005 0.36283 0.56786 0.0
C968 C 0.66062 0.25313 0.59331 0.0
N969 N 0.66614 0.27683 0.58777 0.0
N970 N 0.64905 0.29186 0.59678 0.0
C971 C 0.63106 0.27769 0.60732 0.0
C972 C 0.63781 0.25266 0.60523 0.0
C973 C 0.67605 0.23116 0.58562 0.0
H974 H 0.69611 0.23575 0.58724 0.0
H975 H 0.67202 0.22643 0.5659 0.0
H976 H 0.67179 0.21464 0.59736 0.0
O977 O 0.71287 0.30982 0.58441 0.0
O978 O 0.68795 0.3406 0.59613 0.0
H979 H 0.61041 0.30192 0.63122 0.0
H980 H 0.59497 0.27265 0.62466 0.0
C981 C 0.6068 0.28763 0.61673 0.0
H982 H 0.59662 0.29661 0.60121 0.0
H983 H 0.65205 0.3481 0.64346 0.0
O984 O 0.70887 0.26371 0.54953 0.0
C985 C 0.70977 0.33158 0.59311 0.0
Co986 Co 0.54917 0.04841 0.67959 0.0
Co987 Co 0.5754 0.09132 0.65082 0.0
C988 C 0.58075 0.08651 0.70579 0.0
O989 O 0.56493 0.06882 0.70578 0.0
O990 O 0.58762 0.097 0.68556 0.0
C991 C 0.51528 0.02785 0.71454 0.0
O992 O 0.51589 0.05066 0.72351 0.0
C993 C 0.59735 0.13863 0.63387 0.0
C994 C 0.57762 0.14354 0.59804 0.0
C995 C 0.59343 0.15548 0.61458 0.0
N996 N 0.58381 0.1181 0.62926 0.0
N997 N 0.57275 0.12082 0.60744 0.0
C998 C 0.61365 0.14181 0.65626 0.0
H999 H 0.62292 0.12385 0.66074 0.0
H1000 H 0.60205 0.14715 0.6725 0.0
H1001 H 0.62788 0.15647 0.65308 0.0
C1002 C 0.50491 0.0695 0.65632 0.0
N1003 N 0.52969 0.06844 0.6593 0.0
N1004 N 0.5399 0.08893 0.65056 0.0
C1005 C 0.52153 0.10454 0.64334 0.0
C1006 C 0.49903 0.09242 0.64642 0.0
C1007 C 0.48686 0.04995 0.66459 0.0
H1008 H 0.49539 0.03121 0.66296 0.0
H1009 H 0.48147 0.05352 0.68423 0.0
H1010 H 0.46969 0.05057 0.65312 0.0
O1011 O 0.57483 0.03129 0.66066 0.0
O1012 O 0.592 0.06064 0.63715 0.0
H1013 H 0.52509 0.13365 0.61636 0.0
H1014 H 0.50883 0.1427 0.64395 0.0
C1015 C 0.52475 0.13153 0.63693 0.0
H1016 H 0.54217 0.13897 0.64509 0.0
H1017 H 0.56076 0.10766 0.5996 0.0
O1018 O 0.52887 0.02282 0.69584 0.0
C1019 C 0.59047 0.03801 0.64422 0.0
Co1020 Co 0.31278 0.19757 0.56695 0.0
Co1021 Co 0.34452 0.16264 0.59969 0.0
C1022 C 0.34518 0.15836 0.5439 0.0
O1023 O 0.32919 0.17579 0.54184 0.0
O1024 O 0.35408 0.15247 0.5651 0.0
C1025 C 0.29438 0.22698 0.52732 0.0
O1026 O 0.31394 0.21875 0.51516 0.0
C1027 C 0.38992 0.14196 0.61809 0.0
C1028 C 0.37861 0.12338 0.65314 0.0
C1029 C 0.39871 0.12785 0.63761 0.0
N1030 N 0.36561 0.14577 0.6217 0.0
N1031 N 0.35884 0.13475 0.64269 0.0
C1032 C 0.40428 0.15141 0.59611 0.0
H1033 H 0.39561 0.16866 0.58868 0.0
H1034 H 0.42394 0.15506 0.60129 0.0
H1035 H 0.40405 0.13703 0.5812 0.0
C1036 C 0.34121 0.23599 0.59298 0.0
N1037 N 0.33497 0.21204 0.58929 0.0
N1038 N 0.34794 0.19769 0.60429 0.0
C1039 C 0.36287 0.21231 0.61834 0.0
C1040 C 0.35912 0.23696 0.61139 0.0
C1041 C 0.33105 0.25733 0.57815 0.0
H1042 H 0.31074 0.25885 0.58153 0.0
H1043 H 0.33386 0.2536 0.55798 0.0
H1044 H 0.34011 0.27525 0.58316 0.0
O1045 O 0.28817 0.1766 0.58377 0.0
O1046 O 0.31039 0.14957 0.60564 0.0
H1047 H 0.37255 0.18772 0.64837 0.0
H1048 H 0.38669 0.21837 0.65013 0.0
C1049 C 0.38096 0.20308 0.63739 0.0
H1050 H 0.39779 0.19587 0.62782 0.0
H1051 H 0.3407 0.13474 0.64969 0.0
O1052 O 0.29259 0.223 0.55052 0.0
C1053 C 0.28959 0.15749 0.59768 0.0
Co1054 Co 0.44811 0.44385 0.67914 0.0
Co1055 Co 0.42126 0.40142 0.65005 0.0
C1056 C 0.41586 0.4078 0.70569 0.0
O1057 O 0.432 0.42515 0.70648 0.0
O1058 O 0.40983 0.3975 0.68519 0.0
C1059 C 0.47974 0.46734 0.7147 0.0
O1060 O 0.47887 0.44516 0.72511 0.0
C1061 C 0.40773 0.3498 0.641 0.0
C1062 C 0.39417 0.35065 0.60211 0.0
C1063 C 0.39763 0.33514 0.62244 0.0
N1064 N 0.41004 0.37312 0.6322 0.0
N1065 N 0.402 0.37354 0.60891 0.0
C1066 C 0.4148 0.34187 0.66677 0.0
H1067 H 0.43106 0.35281 0.67335 0.0
H1068 H 0.41913 0.32162 0.6673 0.0
H1069 H 0.39898 0.34553 0.67958 0.0
C1070 C 0.49228 0.4212 0.65563 0.0
N1071 N 0.46753 0.42283 0.65907 0.0
N1072 N 0.45648 0.40444 0.64717 0.0
C1073 C 0.47401 0.39038 0.63586 0.0
C1074 C 0.49718 0.40052 0.64103 0.0
C1075 C 0.511 0.43805 0.66756 0.0
H1076 H 0.50498 0.45774 0.66566 0.0
H1077 H 0.51231 0.4335 0.68769 0.0
H1078 H 0.52969 0.43576 0.65905 0.0
O1079 O 0.42125 0.46059 0.66014 0.0
O1080 O 0.40327 0.43125 0.63709 0.0
H1081 H 0.45454 0.37067 0.60717 0.0
H1082 H 0.48601 0.35983 0.61237 0.0
C1083 C 0.46891 0.36699 0.62153 0.0
H1084 H 0.46165 0.35255 0.63442 0.0
H1085 H 0.40162 0.3895 0.59777 0.0
O1086 O 0.46798 0.47055 0.69444 0.0
C1087 C 0.40487 0.4538 0.64442 0.0
Co1088 Co 0.93515 0.68789 0.68683 0.0
Co1089 Co 0.90159 0.64693 0.66353 0.0
C1090 C 0.95707 0.64797 0.65492 0.0
O1091 O 0.95958 0.66737 0.66845 0.0
O1092 O 0.93581 0.63788 0.65156 0.0
C1093 C 0.97317 0.72047 0.70402 0.0
O1094 O 0.98796 0.70809 0.68894 0.0
C1095 C 0.88249 0.60009 0.64276 0.0
C1096 C 0.8456 0.59789 0.66084 0.0
C1097 C 0.86215 0.5845 0.6462 0.0
N1098 N 0.8785 0.62127 0.65554 0.0
N1099 N 0.85606 0.62019 0.66557 0.0
C1100 C 0.90528 0.59515 0.62746 0.0
H1101 H 0.90999 0.61206 0.61654 0.0
H1102 H 0.92116 0.591 0.64 0.0
H1103 H 0.90246 0.57923 0.61453 0.0
C1104 C 0.91563 0.66772 0.7332 0.0
N1105 N 0.91602 0.66844 0.70816 0.0
N1106 N 0.9028 0.6499 0.69909 0.0
C1107 C 0.89438 0.63607 0.71845 0.0
C1108 C 0.90191 0.64729 0.74045 0.0
C1109 C 0.92972 0.68515 0.74981 0.0
H1110 H 0.94989 0.68373 0.74559 0.0
H1111 H 0.92667 0.68084 0.76983 0.0
H1112 H 0.92372 0.7046 0.74608 0.0
O1113 O 0.91504 0.70603 0.66322 0.0
O1114 O 0.88942 0.67841 0.6465 0.0
H1115 H 0.86149 0.61397 0.71523 0.0
H1116 H 0.88563 0.59967 0.73318 0.0
C1117 C 0.8819 0.61121 0.71642 0.0
H1118 H 0.88859 0.60109 0.69968 0.0
H1119 H 0.84839 0.63423 0.67668 0.0
O1120 O 0.95071 0.71403 0.70648 0.0
C1121 C 0.89761 0.70066 0.64829 0.0
Co1122 Co 0.93748 0.81238 0.55946 0.0
Co1123 Co 0.89772 0.84527 0.5864 0.0
C1124 C 0.89886 0.79064 0.59452 0.0
O1125 O 0.91741 0.78892 0.57983 0.0
O1126 O 0.88841 0.81154 0.59876 0.0
C1127 C 0.95017 0.77457 0.52431 0.0
O1128 O 0.92605 0.7737 0.52047 0.0
C1129 C 0.85362 0.86596 0.61098 0.0
C1130 C 0.85125 0.9031 0.59328 0.0
C1131 C 0.83849 0.88683 0.60877 0.0
N1132 N 0.87383 0.86935 0.59667 0.0
N1133 N 0.87276 0.89195 0.58689 0.0
C1134 C 0.84896 0.84307 0.62628 0.0
H1135 H 0.86635 0.83758 0.63595 0.0
H1136 H 0.84341 0.82747 0.61387 0.0
H1137 H 0.83409 0.84628 0.6403 0.0
C1138 C 0.91622 0.83743 0.51528 0.0
N1139 N 0.9173 0.83351 0.54001 0.0
N1140 N 0.89846 0.84486 0.55083 0.0
C1141 C 0.88369 0.85464 0.53293 0.0
C1142 C 0.89475 0.85046 0.50998 0.0
C1143 C 0.93555 0.82935 0.49702 0.0
H1144 H 0.95374 0.82778 0.50658 0.0
H1145 H 0.93011 0.81115 0.48885 0.0
H1146 H 0.93716 0.84293 0.48151 0.0
O1147 O 0.95826 0.83178 0.5819 0.0
O1148 O 0.93058 0.85586 0.60113 0.0
H1149 H 0.86046 0.88652 0.53833 0.0
H1150 H 0.84601 0.86189 0.52126 0.0
C1151 C 0.85858 0.86596 0.53714 0.0
H1152 H 0.85014 0.85864 0.55452 0.0
H1153 H 0.88608 0.8992 0.57471 0.0
O1154 O 0.95914 0.79096 0.53887 0.0
C1155 C 0.95292 0.84847 0.59788 0.0
Co1156 Co 0.06347 0.81602 0.68899 0.0
Co1157 Co 0.09731 0.85153 0.6586 0.0
C1158 C 0.04202 0.85256 0.65288 0.0
O1159 O 0.03968 0.83515 0.66878 0.0
O1160 O 0.06327 0.86167 0.64786 0.0
C1161 C 0.0246 0.80484 0.7226 0.0
O1162 O 0.01953 0.82862 0.71976 0.0
C1163 C 0.11508 0.89936 0.64231 0.0
C1164 C 0.15209 0.89102 0.62633 0.0
C1165 C 0.13527 0.91011 0.6307 0.0
N1166 N 0.11955 0.87491 0.64478 0.0
N1167 N 0.14172 0.86994 0.63529 0.0
C1168 C 0.09177 0.91212 0.65075 0.0
H1169 H 0.08381 0.90241 0.6672 0.0
H1170 H 0.09547 0.93196 0.65539 0.0
H1171 H 0.07789 0.91148 0.63545 0.0
C1172 C 0.08984 0.83942 0.73099 0.0
N1173 N 0.08597 0.83629 0.70643 0.0
N1174 N 0.10021 0.85183 0.69392 0.0
C1175 C 0.11335 0.8657 0.71034 0.0
C1176 C 0.10694 0.85829 0.73425 0.0
C1177 C 0.07708 0.82498 0.75112 0.0
H1178 H 0.07649 0.80498 0.74592 0.0
H1179 H 0.0578 0.83199 0.75332 0.0
H1180 H 0.0868 0.827 0.76926 0.0
O1181 O 0.0802 0.79328 0.66601 0.0
O1182 O 0.10489 0.81799 0.64378 0.0
H1183 H 0.14367 0.87969 0.68847 0.0
H1184 H 0.14229 0.89194 0.71991 0.0
C1185 C 0.13107 0.88609 0.70355 0.0
H1186 H 0.12045 0.90244 0.69671 0.0
H1187 H 0.14966 0.85217 0.63474 0.0
O1188 O 0.04366 0.79585 0.71185 0.0
C1189 C 0.09574 0.79654 0.64843 0.0
Co1190 Co 0.05393 0.67858 0.55986 0.0
Co1191 Co 0.09806 0.65119 0.58551 0.0
C1192 C 0.08976 0.70599 0.59243 0.0
O1193 O 0.07097 0.70605 0.57794 0.0
O1194 O 0.10199 0.68613 0.59663 0.0
C1195 C 0.02955 0.71089 0.52526 0.0
O1196 O 0.05111 0.72245 0.52491 0.0
C1197 C 0.14974 0.64277 0.59991 0.0
C1198 C 0.15045 0.6022 0.60721 0.0
C1199 C 0.16511 0.62344 0.60717 0.0
N1200 N 0.12685 0.63348 0.59594 0.0
N1201 N 0.12738 0.60922 0.60037 0.0
C1202 C 0.15682 0.66955 0.59646 0.0
H1203 H 0.15089 0.6803 0.61313 0.0
H1204 H 0.14717 0.67743 0.57998 0.0
H1205 H 0.17726 0.6716 0.59421 0.0
C1206 C 0.07677 0.6566 0.51491 0.0
N1207 N 0.07564 0.65975 0.53977 0.0
N1208 N 0.09558 0.64998 0.55007 0.0
C1209 C 0.11082 0.64169 0.53182 0.0
C1210 C 0.09938 0.64579 0.50893 0.0
C1211 C 0.05673 0.66384 0.49695 0.0
H1212 H 0.03818 0.66076 0.50545 0.0
H1213 H 0.05872 0.68382 0.49204 0.0
H1214 H 0.05815 0.65276 0.47951 0.0
O1215 O 0.03787 0.6578 0.5844 0.0
O1216 O 0.06792 0.63627 0.60277 0.0
H1217 H 0.13562 0.61476 0.54752 0.0
H1218 H 0.14634 0.62787 0.51835 0.0
C1219 C 0.13658 0.63199 0.53611 0.0
H1220 H 0.14749 0.64602 0.54661 0.0
H1221 H 0.11201 0.59745 0.59857 0.0
O1222 O 0.02699 0.6924 0.53975 0.0
C1223 C 0.04497 0.64193 0.60039 0.0
Co1224 Co 0.9332 0.31354 0.8184 0.0
Co1225 Co 0.89903 0.35068 0.84669 0.0
C1226 C 0.9552 0.35174 0.85116 0.0
O1227 O 0.95818 0.33333 0.83648 0.0
O1228 O 0.93361 0.36017 0.85594 0.0
C1229 C 0.97195 0.28456 0.79694 0.0
O1230 O 0.9859 0.29532 0.81391 0.0
C1231 C 0.88518 0.40108 0.8577 0.0
C1232 C 0.85116 0.39732 0.88055 0.0
C1233 C 0.86791 0.41452 0.87107 0.0
N1234 N 0.87922 0.37684 0.85925 0.0
N1235 N 0.8588 0.37462 0.87284 0.0
C1236 C 0.90757 0.41107 0.84445 0.0
H1237 H 0.92299 0.41321 0.85804 0.0
H1238 H 0.91363 0.39804 0.82954 0.0
H1239 H 0.90351 0.4297 0.83638 0.0
C1240 C 0.90946 0.3368 0.77527 0.0
N1241 N 0.91174 0.33394 0.80002 0.0
N1242 N 0.89616 0.34897 0.81152 0.0
C1243 C 0.88302 0.36166 0.79422 0.0
C1244 C 0.89129 0.35443 0.77079 0.0
C1245 C 0.92548 0.32394 0.75636 0.0
H1246 H 0.94534 0.32597 0.76164 0.0
H1247 H 0.92267 0.33161 0.73735 0.0
H1248 H 0.92093 0.30374 0.75619 0.0
O1249 O 0.91484 0.29297 0.84236 0.0
O1250 O 0.88944 0.3184 0.86298 0.0
H1251 H 0.85278 0.37537 0.81656 0.0
H1252 H 0.85083 0.38316 0.78369 0.0
C1253 C 0.86357 0.38083 0.7998 0.0
H1254 H 0.8727 0.39901 0.80347 0.0
H1255 H 0.85042 0.35761 0.87728 0.0
O1256 O 0.94916 0.29022 0.79522 0.0
C1257 C 0.89837 0.29671 0.85898 0.0
Co1258 Co 0.55837 0.81388 0.43792 0.0
Co1259 Co 0.59977 0.84291 0.41004 0.0
C1260 C 0.59422 0.78924 0.40129 0.0
O1261 O 0.57599 0.78914 0.41649 0.0
O1262 O 0.6065 0.80907 0.39696 0.0
C1263 C 0.54768 0.77698 0.47269 0.0
O1264 O 0.57197 0.77458 0.4717 0.0
C1265 C 0.64547 0.86081 0.38613 0.0
C1266 C 0.65111 0.89642 0.40615 0.0
C1267 C 0.66242 0.88001 0.38969 0.0
N1268 N 0.62547 0.86528 0.40049 0.0
N1269 N 0.62865 0.88694 0.41184 0.0
C1270 C 0.64841 0.83828 0.36988 0.0
H1271 H 0.63063 0.8344 0.36012 0.0
H1272 H 0.65288 0.82186 0.38164 0.0
H1273 H 0.66348 0.84097 0.35597 0.0
C1274 C 0.58275 0.83585 0.48156 0.0
N1275 N 0.58017 0.83325 0.45677 0.0
N1276 N 0.60011 0.84175 0.44551 0.0
C1277 C 0.61708 0.8479 0.46302 0.0
C1278 C 0.60642 0.84467 0.48638 0.0
C1279 C 0.56293 0.83031 0.50035 0.0
H1280 H 0.54428 0.83159 0.49161 0.0
H1281 H 0.56564 0.81129 0.50798 0.0
H1282 H 0.56412 0.84364 0.51617 0.0
O1283 O 0.53812 0.83418 0.41632 0.0
O1284 O 0.56697 0.85557 0.39574 0.0
H1285 H 0.64677 0.87386 0.45743 0.0
H1286 H 0.65584 0.84569 0.47288 0.0
C1287 C 0.64389 0.85339 0.45786 0.0
H1288 H 0.64957 0.84525 0.43973 0.0
H1289 H 0.61614 0.89448 0.42471 0.0
O1290 O 0.53739 0.79412 0.46001 0.0
C1291 C 0.54419 0.84988 0.39967 0.0
Co1292 Co 0.06293 0.19207 0.804 0.0
Co1293 Co 0.08884 0.15231 0.83716 0.0
C1294 C 0.03354 0.15634 0.83541 0.0
O1295 O 0.03528 0.17248 0.81814 0.0
O1296 O 0.05288 0.14682 0.84535 0.0
C1297 C 0.02926 0.20773 0.76709 0.0
O1298 O 0.02339 0.18394 0.76742 0.0
C1299 C 0.10231 0.10326 0.85771 0.0
C1300 C 0.1422 0.10854 0.86616 0.0
C1301 C 0.12318 0.09114 0.86669 0.0
N1302 N 0.10862 0.12686 0.85206 0.0
N1303 N 0.13245 0.12993 0.85734 0.0
C1304 C 0.07703 0.09236 0.85377 0.0
H1305 H 0.06944 0.09887 0.83572 0.0
H1306 H 0.07754 0.07166 0.85415 0.0
H1307 H 0.06444 0.09906 0.86877 0.0
C1308 C 0.09207 0.16867 0.76492 0.0
N1309 N 0.08632 0.17145 0.78908 0.0
N1310 N 0.09457 0.15225 0.80185 0.0
C1311 C 0.10465 0.13575 0.78568 0.0
C1312 C 0.10308 0.14557 0.7617 0.0
C1313 C 0.08544 0.18697 0.7449 0.0
H1314 H 0.08654 0.20629 0.75226 0.0
H1315 H 0.06621 0.18346 0.73837 0.0
H1316 H 0.09818 0.18498 0.7287 0.0
O1317 O 0.0776 0.2122 0.83037 0.0
O1318 O 0.09915 0.18498 0.85284 0.0
H1319 H 0.12924 0.1118 0.8056 0.0
H1320 H 0.11883 0.09907 0.77617 0.0
C1321 C 0.11321 0.11016 0.79271 0.0
H1322 H 0.09807 0.10025 0.80259 0.0
H1323 H 0.14219 0.14652 0.8544 0.0
O1324 O 0.04759 0.21496 0.78016 0.0
C1325 C 0.09186 0.20724 0.84858 0.0
Co1326 Co 0.44042 0.67675 0.43723 0.0
Co1327 Co 0.39834 0.64475 0.4138 0.0
C1328 C 0.40166 0.69989 0.40448 0.0
O1329 O 0.4209 0.70145 0.41821 0.0
O1330 O 0.39047 0.67915 0.40119 0.0
C1331 C 0.46967 0.71622 0.45625 0.0
O1332 O 0.45448 0.7305 0.44347 0.0
C1333 C 0.35091 0.62691 0.39412 0.0
C1334 C 0.3489 0.58919 0.41069 0.0
C1335 C 0.33533 0.60653 0.39721 0.0
N1336 N 0.37239 0.62215 0.40591 0.0
N1337 N 0.37139 0.59928 0.41507 0.0
C1338 C 0.34545 0.65065 0.38049 0.0
H1339 H 0.36181 0.65601 0.36907 0.0
H1340 H 0.34195 0.66578 0.3942 0.0
H1341 H 0.32898 0.64868 0.36818 0.0
C1342 C 0.41964 0.65743 0.48357 0.0
N1343 N 0.42026 0.65832 0.45854 0.0
N1344 N 0.40134 0.64582 0.44932 0.0
C1345 C 0.38744 0.63731 0.46856 0.0
C1346 C 0.39891 0.64408 0.49064 0.0
C1347 C 0.43757 0.67059 0.50037 0.0
H1348 H 0.45682 0.66462 0.4958 0.0
H1349 H 0.43623 0.691 0.49718 0.0
H1350 H 0.43373 0.66661 0.52032 0.0
O1351 O 0.45807 0.6557 0.41388 0.0
O1352 O 0.4292 0.63159 0.39695 0.0
H1353 H 0.36496 0.60473 0.46461 0.0
H1354 H 0.3511 0.62868 0.48331 0.0
C1355 C 0.36248 0.62519 0.46638 0.0
H1356 H 0.35245 0.63245 0.44989 0.0
H1357 H 0.38563 0.59108 0.42546 0.0
O1358 O 0.46626 0.6929 0.4569 0.0
C1359 C 0.45175 0.63864 0.39879 0.0
Co1360 Co 0.68486 0.93391 0.68645 0.0
Co1361 Co 0.66153 0.89919 0.64603 0.0
C1362 C 0.65044 0.95261 0.6454 0.0
O1363 O 0.66404 0.95537 0.66464 0.0
O1364 O 0.64802 0.93148 0.63491 0.0
C1365 C 0.71706 0.97424 0.69813 0.0
O1366 O 0.72085 0.97466 0.67393 0.0
C1367 C 0.64066 0.87625 0.60122 0.0
C1368 C 0.66179 0.84093 0.59921 0.0
C1369 C 0.64525 0.85578 0.58611 0.0
N1370 N 0.65444 0.87404 0.62196 0.0
N1371 N 0.66644 0.85252 0.62101 0.0
C1372 C 0.62401 0.89792 0.59568 0.0
H1373 H 0.61353 0.90309 0.61273 0.0
H1374 H 0.63546 0.91417 0.58997 0.0
H1375 H 0.61069 0.89344 0.58052 0.0
C1376 C 0.73105 0.91116 0.66777 0.0
N1377 N 0.70613 0.91322 0.66815 0.0
N1378 N 0.69678 0.90195 0.64855 0.0
C1379 C 0.71568 0.89453 0.63373 0.0
C1380 C 0.738 0.89977 0.64565 0.0
C1381 C 0.7479 0.91959 0.68827 0.0
H1382 H 0.7375 0.92132 0.70607 0.0
H1383 H 0.75602 0.93788 0.68336 0.0
H1384 H 0.7635 0.90619 0.69054 0.0
O1385 O 0.66237 0.91442 0.70674 0.0
O1386 O 0.64479 0.88951 0.67859 0.0
H1387 H 0.713 0.86543 0.6065 0.0
H1388 H 0.72841 0.89299 0.59565 0.0
C1389 C 0.71276 0.88609 0.60727 0.0
H1390 H 0.69497 0.89303 0.59949 0.0
H1391 H 0.67898 0.84645 0.63458 0.0
O1392 O 0.70334 0.95741 0.70758 0.0
C1393 C 0.64679 0.89758 0.70093 0.0
Co1394 Co 0.68867 0.07885 0.80144 0.0
Co1395 Co 0.65537 0.09746 0.84549 0.0
C1396 C 0.66165 0.04318 0.83524 0.0
O1397 O 0.67764 0.04784 0.81837 0.0
O1398 O 0.65129 0.06065 0.84757 0.0
C1399 C 0.71967 0.04713 0.77463 0.0
O1400 O 0.72025 0.03501 0.79589 0.0
C1401 C 0.63605 0.10248 0.89643 0.0
C1402 C 0.62487 0.14215 0.89734 0.0
C1403 C 0.62622 0.12075 0.91171 0.0
N1404 N 0.64036 0.11254 0.87388 0.0
N1405 N 0.63343 0.1362 0.87448 0.0
C1406 C 0.64206 0.07617 0.90342 0.0
H1407 H 0.66073 0.07121 0.89624 0.0
H1408 H 0.64147 0.07345 0.92393 0.0
H1409 H 0.62832 0.06351 0.89457 0.0
C1410 C 0.727 0.10541 0.8278 0.0
N1411 N 0.70283 0.10056 0.8241 0.0
N1412 N 0.68994 0.10658 0.84407 0.0
C1413 C 0.70595 0.1148 0.86164 0.0
C1414 C 0.72997 0.1139 0.85199 0.0
C1415 C 0.7472 0.09827 0.80992 0.0
H1416 H 0.74172 0.10352 0.79069 0.0
H1417 H 0.74994 0.07776 0.81047 0.0
H1418 H 0.76501 0.10757 0.81477 0.0
O1419 O 0.65958 0.093 0.78527 0.0
O1420 O 0.6355 0.10767 0.8155 0.0
H1421 H 0.68447 0.13453 0.88867 0.0
H1422 H 0.71514 0.12592 0.89942 0.0
C1423 C 0.69895 0.11981 0.88816 0.0
H1424 H 0.69113 0.10265 0.89655 0.0
H1425 H 0.63508 0.14844 0.85943 0.0
O1426 O 0.71106 0.06915 0.77404 0.0
C1427 C 0.63975 0.1036 0.79248 0.0
Co1428 Co 0.31253 0.05592 0.43924 0.0
Co1429 Co 0.34073 0.08798 0.40022 0.0
C1430 C 0.28552 0.09053 0.40475 0.0
O1431 O 0.2861 0.07264 0.42026 0.0
O1432 O 0.30547 0.09924 0.39528 0.0
C1433 C 0.2774 0.01951 0.45084 0.0
O1434 O 0.27424 0.02055 0.42659 0.0
C1435 C 0.35541 0.11506 0.3548 0.0
C1436 C 0.39363 0.10081 0.34948 0.0
C1437 C 0.37515 0.11475 0.33806 0.0
N1438 N 0.36162 0.10111 0.37467 0.0
N1439 N 0.38478 0.09337 0.37173 0.0
C1440 C 0.33102 0.12819 0.35191 0.0
H1441 H 0.3255 0.13677 0.36993 0.0
H1442 H 0.31654 0.11445 0.34667 0.0
H1443 H 0.33205 0.14281 0.3373 0.0
C1444 C 0.33956 0.01518 0.41538 0.0
N1445 N 0.33447 0.03957 0.41805 0.0
N1446 N 0.3436 0.05211 0.39907 0.0
C1447 C 0.35355 0.03552 0.3828 0.0
C1448 C 0.35149 0.01178 0.39289 0.0
C1449 C 0.33213 0.99519 0.43336 0.0
H1450 H 0.33111 0.0028 0.45256 0.0
H1451 H 0.31371 0.98763 0.42792 0.0
H1452 H 0.34565 0.97954 0.43293 0.0
O1453 O 0.32905 0.08102 0.46004 0.0
O1454 O 0.35224 0.10227 0.43316 0.0
H1455 H 0.38301 0.04466 0.3577 0.0
H1456 H 0.35916 0.02571 0.34424 0.0
C1457 C 0.36262 0.04154 0.35712 0.0
H1458 H 0.3532 0.05844 0.34988 0.0
H1459 H 0.39405 0.08177 0.38431 0.0
O1460 O 0.29472 0.03239 0.46055 0.0
C1461 C 0.34449 0.09839 0.45535 0.0
Co1462 Co 0.2993 0.4323 0.80001 0.0
Co1463 Co 0.3302 0.40622 0.84083 0.0
C1464 C 0.33265 0.4592 0.83956 0.0
O1465 O 0.3188 0.45768 0.82019 0.0
O1466 O 0.33876 0.43984 0.85174 0.0
C1467 C 0.2631 0.46889 0.78565 0.0
O1468 O 0.25904 0.47134 0.80968 0.0
C1469 C 0.35606 0.38627 0.88439 0.0
C1470 C 0.3364 0.35036 0.88908 0.0
C1471 C 0.35275 0.36652 0.90084 0.0
N1472 N 0.34163 0.38231 0.86433 0.0
N1473 N 0.33056 0.36045 0.86689 0.0
C1474 C 0.37193 0.40895 0.88791 0.0
H1475 H 0.38037 0.41443 0.86982 0.0
H1476 H 0.36022 0.42472 0.8944 0.0
H1477 H 0.38677 0.40549 0.90186 0.0
C1478 C 0.25776 0.40721 0.82443 0.0
N1479 N 0.28215 0.41126 0.821 0.0
N1480 N 0.29463 0.40344 0.84051 0.0
C1481 C 0.27817 0.39628 0.85811 0.0
C1482 C 0.25437 0.39812 0.84831 0.0
C1483 C 0.23802 0.41269 0.8056 0.0
H1484 H 0.246 0.41174 0.78654 0.0
H1485 H 0.2303 0.43159 0.80881 0.0
H1486 H 0.22252 0.39912 0.80739 0.0
O1487 O 0.32084 0.4126 0.77874 0.0
O1488 O 0.34831 0.40187 0.80758 0.0
H1489 H 0.28547 0.37184 0.88873 0.0
H1490 H 0.26976 0.40005 0.89722 0.0
C1491 C 0.28447 0.39215 0.88498 0.0
H1492 H 0.30253 0.40096 0.88958 0.0
H1493 H 0.31751 0.35332 0.85436 0.0
O1494 O 0.27768 0.45194 0.77787 0.0
C1495 C 0.34221 0.40468 0.78471 0.0
Co1496 Co 0.18824 0.9419 0.93473 0.0
Co1497 Co 0.15375 0.91441 0.89732 0.0
C1498 C 0.20924 0.90934 0.89461 0.0
O1499 O 0.21203 0.92353 0.91339 0.0
O1500 O 0.18771 0.90495 0.886 0.0
C1501 C 0.22699 0.97537 0.9464 0.0
O1502 O 0.22944 0.97563 0.92205 0.0
C1503 C 0.13755 0.90194 0.84775 0.0
C1504 C 0.10137 0.8833 0.85364 0.0
C1505 C 0.11848 0.88997 0.8355 0.0
N1506 N 0.13224 0.90232 0.87219 0.0
N1507 N 0.11052 0.89128 0.87567 0.0
C1508 C 0.16074 0.91239 0.83637 0.0
H1509 H 0.16768 0.92835 0.84757 0.0
H1510 H 0.15727 0.91845 0.81688 0.0
H1511 H 0.17527 0.89767 0.83606 0.0
C1512 C 0.16044 0.98568 0.91542 0.0
N1513 N 0.16513 0.96102 0.91622 0.0
N1514 N 0.15066 0.94956 0.90008 0.0
C1515 C 0.13657 0.9667 0.88823 0.0
C1516 C 0.14252 0.99009 0.89748 0.0
C1517 C 0.17298 0.0048 0.93132 0.0
H1518 H 0.17496 0.9975 0.95055 0.0
H1519 H 0.1917 0.00878 0.92361 0.0
H1520 H 0.16228 0.0225 0.93181 0.0
O1521 O 0.17118 0.91721 0.95594 0.0
O1522 O 0.1458 0.89743 0.92985 0.0
H1523 H 0.10625 0.94526 0.87366 0.0
H1524 H 0.10648 0.97757 0.86383 0.0
C1525 C 0.11827 0.96108 0.868 0.0
H1526 H 0.12845 0.95569 0.85083 0.0
H1527 H 0.10219 0.88877 0.89309 0.0
O1528 O 0.20911 0.96317 0.956 0.0
C1529 C 0.15495 0.90045 0.95162 0.0
Co1530 Co 0.80132 0.05823 0.18623 0.0
Co1531 Co 0.82934 0.09005 0.14663 0.0
C1532 C 0.83519 0.03499 0.1475 0.0
O1533 O 0.82121 0.03342 0.16671 0.0
O1534 O 0.83901 0.05579 0.13661 0.0
C1535 C 0.76798 0.02127 0.20701 0.0
O1536 O 0.77085 0.00961 0.18565 0.0
C1537 C 0.85433 0.10996 0.10245 0.0
C1538 C 0.83937 0.14835 0.10119 0.0
C1539 C 0.85356 0.13132 0.08791 0.0
N1540 N 0.84051 0.11386 0.12293 0.0
N1541 N 0.83231 0.13711 0.12249 0.0
C1542 C 0.86773 0.08612 0.09689 0.0
H1543 H 0.85407 0.07158 0.09148 0.0
H1544 H 0.88148 0.08853 0.08162 0.0
H1545 H 0.87748 0.07969 0.1139 0.0
C1546 C 0.75778 0.08169 0.16362 0.0
N1547 N 0.78253 0.07908 0.16589 0.0
N1548 N 0.79379 0.09166 0.1481 0.0
C1549 C 0.77619 0.10158 0.13304 0.0
C1550 C 0.75304 0.09583 0.14277 0.0
C1551 C 0.73883 0.06944 0.17996 0.0
H1552 H 0.73782 0.04932 0.17528 0.0
H1553 H 0.72008 0.07771 0.1773 0.0
H1554 H 0.74431 0.07154 0.19973 0.0
O1555 O 0.82399 0.07745 0.20638 0.0
O1556 O 0.84729 0.09749 0.17881 0.0
H1557 H 0.78338 0.1339 0.11094 0.0
H1558 H 0.76485 0.11078 0.09559 0.0
C1559 C 0.78092 0.11353 0.10829 0.0
H1560 H 0.79783 0.10556 0.09955 0.0
H1561 H 0.82081 0.14488 0.13614 0.0
O1562 O 0.77995 0.04134 0.2105 0.0
C1563 C 0.84246 0.09121 0.20121 0.0
Co1564 Co 0.31256 0.9424 0.0658 0.0
Co1565 Co 0.34378 0.90883 0.10128 0.0
C1566 C 0.28747 0.90548 0.09715 0.0
O1567 O 0.28603 0.92445 0.08298 0.0
O1568 O 0.30834 0.89735 0.10501 0.0
C1569 C 0.28428 0.95688 0.0265 0.0
O1570 O 0.28054 0.93268 0.02708 0.0
C1571 C 0.35618 0.89201 0.15102 0.0
C1572 C 0.39291 0.87414 0.14595 0.0
C1573 C 0.37496 0.87982 0.16361 0.0
N1574 N 0.36256 0.8935 0.12688 0.0
N1575 N 0.38451 0.88274 0.12389 0.0
C1576 C 0.33281 0.90256 0.16187 0.0
H1577 H 0.3252 0.91739 0.1496 0.0
H1578 H 0.33637 0.91015 0.1808 0.0
H1579 H 0.31884 0.88742 0.16357 0.0
C1580 C 0.33747 0.98212 0.09282 0.0
N1581 N 0.33362 0.95783 0.08835 0.0
N1582 N 0.34725 0.94427 0.10352 0.0
C1583 C 0.36068 0.95985 0.11807 0.0
C1584 C 0.35468 0.98425 0.11177 0.0
C1585 C 0.32416 0.00282 0.07966 0.0
H1586 H 0.30383 -0.00076 0.08005 0.0
H1587 H 0.32803 0.02124 0.08829 0.0
H1588 H 0.33016 0.00321 0.05986 0.0
O1589 O 0.33015 0.91822 0.04454 0.0
O1590 O 0.35542 0.89585 0.06842 0.0
H1591 H 0.39015 0.93604 0.13065 0.0
H1592 H 0.39097 0.9674 0.14337 0.0
C1593 C 0.37869 0.95176 0.13768 0.0
H1594 H 0.36819 0.94528 0.15426 0.0
H1595 H 0.39382 0.88146 0.10684 0.0
O1596 O 0.29819 0.96683 0.04274 0.0
C1597 C 0.34626 0.90106 0.04714 0.0
Co1598 Co 0.6789 0.55072 0.05824 0.0
Co1599 Co 0.64914 0.58467 0.09469 0.0
C1600 C 0.70588 0.5837 0.0925 0.0
O1601 O 0.70627 0.5654 0.07738 0.0
O1602 O 0.68539 0.59322 0.09996 0.0
C1603 C 0.7113 0.53157 0.02297 0.0
O1604 O 0.72374 0.55136 0.03007 0.0
C1605 C 0.63581 0.60017 0.1448 0.0
C1606 C 0.60171 0.62242 0.13894 0.0
C1607 C 0.61792 0.6139 0.15707 0.0
N1608 N 0.63067 0.60049 0.12034 0.0
N1609 N 0.61027 0.61385 0.11688 0.0
C1610 C 0.65709 0.58652 0.15633 0.0
H1611 H 0.67171 0.60018 0.16148 0.0
H1612 H 0.66481 0.5726 0.14309 0.0
H1613 H 0.65095 0.57708 0.17371 0.0
C1614 C 0.65159 0.51168 0.08362 0.0
N1615 N 0.65628 0.5359 0.07972 0.0
N1616 N 0.64337 0.54957 0.09547 0.0
C1617 C 0.62947 0.53414 0.10975 0.0
C1618 C 0.63454 0.50976 0.10273 0.0
C1619 C 0.66459 0.49081 0.07037 0.0
H1620 H 0.68501 0.49366 0.07145 0.0
H1621 H 0.6598 0.47234 0.07839 0.0
H1622 H 0.65922 0.49106 0.0504 0.0
O1623 O 0.66335 0.57693 0.03766 0.0
O1624 O 0.63833 0.59888 0.06216 0.0
H1625 H 0.59842 0.5274 0.13428 0.0
H1626 H 0.62312 0.54591 0.14723 0.0
C1627 C 0.61222 0.54223 0.13008 0.0
H1628 H 0.60239 0.55955 0.1246 0.0
H1629 H 0.60214 0.61705 0.0995 0.0
O1630 O 0.69116 0.52606 0.0339 0.0
C1631 C 0.64752 0.59431 0.04075 0.0
C1632 C 0.13009 0.31289 0.4119 0.0
C1633 C 0.11897 0.32116 0.3894 0.0
C1634 C 0.12787 0.2807 0.37033 0.0
C1635 C 0.13626 0.27161 0.3936 0.0
N1636 N 0.13659 0.27717 0.43841 0.0
N1637 N 0.09859 0.3086 0.35106 0.0
C1638 C 0.13475 0.2871 0.41503 0.0
C1639 C 0.1153 0.30386 0.36962 0.0
N1640 N 0.13702 0.32948 0.42993 0.0
N1641 N 0.13209 0.26761 0.34889 0.0
H1642 H 0.08692 0.32412 0.35124 0.0
H1643 H 0.0942 0.29551 0.33735 0.0
H1644 H 0.14179 0.25075 0.34858 0.0
H1645 H 0.1279 0.2748 0.33131 0.0
H1646 H 0.14705 0.32414 0.44569 0.0
H1647 H 0.13529 0.34874 0.42786 0.0
H1648 H 0.13362 0.28766 0.45452 0.0
H1649 H 0.13821 0.25803 0.44158 0.0
C1650 C 0.51749 0.62759 0.87619 0.0
C1651 C 0.50864 0.61634 0.85402 0.0
C1652 C 0.54933 0.62216 0.83451 0.0
C1653 C 0.55757 0.63523 0.85596 0.0
N1654 N 0.54594 0.65794 0.89323 0.0
N1655 N 0.51362 0.61132 0.80949 0.0
C1656 C 0.54058 0.6403 0.87565 0.0
C1657 C 0.52377 0.61618 0.83232 0.0
N1658 N 0.50444 0.62549 0.89796 0.0
N1659 N 0.56584 0.61446 0.81671 0.0
H1660 H 0.49459 0.60848 0.80694 0.0
H1661 H 0.52362 0.613 0.7929 0.0
H1662 H 0.58496 0.61743 0.81803 0.0
H1663 H 0.56075 0.60286 0.80196 0.0
H1664 H 0.51148 0.63149 0.91505 0.0
H1665 H 0.48776 0.61565 0.89934 0.0
H1666 H 0.53315 0.66361 0.90673 0.0
H1667 H 0.56194 0.66891 0.8925 0.0
C1668 C 0.8459 0.22046 0.37203 0.0
C1669 C 0.85896 0.23413 0.39043 0.0
C1670 C 0.88506 0.1978 0.39944 0.0
C1671 C 0.87009 0.18334 0.38313 0.0
N1672 N 0.83487 0.1798 0.35551 0.0
N1673 N 0.88956 0.23602 0.42322 0.0
C1674 C 0.85021 0.19441 0.36969 0.0
C1675 C 0.87828 0.22292 0.40448 0.0
N1676 N 0.82955 0.23253 0.35667 0.0
N1677 N 0.90616 0.18775 0.40954 0.0
H1678 H 0.88584 0.2548 0.42679 0.0
H1679 H 0.9015 0.22797 0.43621 0.0
H1680 H 0.91155 0.1693 0.40661 0.0
H1681 H 0.91936 0.19813 0.41922 0.0
H1682 H 0.82121 0.22423 0.34124 0.0
H1683 H 0.82591 0.2516 0.35809 0.0
H1684 H 0.81849 0.18621 0.3474 0.0
H1685 H 0.83748 0.16064 0.35334 0.0
C1686 C 0.45747 0.86662 0.88654 0.0
C1687 C 0.44081 0.86853 0.86602 0.0
C1688 C 0.47482 0.88399 0.84027 0.0
C1689 C 0.48986 0.88682 0.86181 0.0
N1690 N 0.49388 0.88408 0.90654 0.0
N1691 N 0.43285 0.88477 0.82467 0.0
C1692 C 0.48071 0.87916 0.88535 0.0
C1693 C 0.44923 0.87889 0.84322 0.0
N1694 N 0.45195 0.8517 0.90642 0.0
N1695 N 0.48506 0.88517 0.81697 0.0
H1696 H 0.41363 0.88288 0.8266 0.0
H1697 H 0.43822 0.89428 0.80857 0.0
H1698 H 0.50415 0.88704 0.814 0.0
H1699 H 0.47496 0.88128 0.80084 0.0
H1700 H 0.46452 0.84824 0.9208 0.0
H1701 H 0.4361 0.84052 0.90708 0.0
H1702 H 0.48675 0.88085 0.92434 0.0
H1703 H 0.51101 0.89325 0.90633 0.0
C1704 C 0.11399 0.71698 0.08804 0.0
C1705 C 0.13005 0.72903 0.10518 0.0
C1706 C 0.13557 0.69014 0.12831 0.0
C1707 C 0.11898 0.67817 0.11154 0.0
N1708 N 0.08804 0.68107 0.07913 0.0
N1709 N 0.15175 0.72921 0.1444 0.0
C1710 C 0.10684 0.69187 0.09249 0.0
C1711 C 0.13934 0.71627 0.12631 0.0
N1712 N 0.10629 0.72927 0.06708 0.0
N1713 N 0.14865 0.67635 0.14528 0.0
H1714 H 0.1549 0.7484 0.1433 0.0
H1715 H 0.15692 0.72149 0.16144 0.0
H1716 H 0.14662 0.65709 0.14717 0.0
H1717 H 0.16298 0.68358 0.15615 0.0
H1718 H 0.09714 0.72055 0.05235 0.0
H1719 H 0.11032 0.74801 0.06373 0.0
H1720 H 0.07675 0.69088 0.06677 0.0
H1721 H 0.08224 0.66271 0.08196 0.0
C1722 C 0.95536 0.64149 0.12973 0.0
C1723 C 0.93824 0.62534 0.11776 0.0
C1724 C 0.97216 0.59685 0.10697 0.0
C1725 C 0.98802 0.61052 0.12298 0.0
N1726 N 0.99529 0.64564 0.15017 0.0
N1727 N 0.9297 0.58747 0.09496 0.0
C1728 C 0.97995 0.63306 0.13417 0.0
C1729 C 0.94651 0.60315 0.10592 0.0
N1730 N 0.94809 0.66495 0.1366 0.0
N1731 N 0.98172 0.57773 0.09308 0.0
H1732 H 0.91078 0.59156 0.09367 0.0
H1733 H 0.93416 0.5697 0.08851 0.0
H1734 H 0.00053 0.57289 0.09367 0.0
H1735 H 0.97169 0.56826 0.07943 0.0
H1736 H 0.96032 0.67847 0.14323 0.0
H1737 H 0.93019 0.67169 0.1334 0.0
H1738 H 0.98936 0.66035 0.16139 0.0
H1739 H 0.01372 0.64049 0.15333 0.0
C1740 C 0.87413 0.7975 0.08939 0.0
C1741 C 0.88665 0.80601 0.11105 0.0
C1742 C 0.87699 0.76676 0.13222 0.0
C1743 C 0.86603 0.75772 0.11 0.0
N1744 N 0.86224 0.76139 0.06525 0.0
N1745 N 0.90731 0.79509 0.1496 0.0
C1746 C 0.8672 0.77209 0.08783 0.0
C1747 C 0.89033 0.78955 0.13149 0.0
N1748 N 0.86768 0.81373 0.07085 0.0
N1749 N 0.87417 0.75405 0.15411 0.0
H1750 H 0.91866 0.81085 0.14884 0.0
H1751 H 0.91206 0.78265 0.16375 0.0
H1752 H 0.8645 0.73722 0.15537 0.0
H1753 H 0.87974 0.7613 0.17127 0.0
H1754 H 0.85643 0.80858 0.05587 0.0
H1755 H 0.87122 0.83282 0.07169 0.0
H1756 H 0.86489 0.77068 0.04838 0.0
H1757 H 0.8582 0.74245 0.06326 0.0
C1758 C 0.02313 0.87723 0.12081 0.0
C1759 C 0.01566 0.8875 0.14397 0.0
C1760 C 0.05751 0.88046 0.16033 0.0
C1761 C 0.06386 0.8673 0.13825 0.0
N1762 N 0.04859 0.84564 0.10166 0.0
N1763 N 0.02388 0.89134 0.18817 0.0
C1764 C 0.0455 0.86345 0.11962 0.0
C1765 C 0.03228 0.88698 0.16452 0.0
N1766 N 0.00929 0.88099 0.09979 0.0
N1767 N 0.07544 0.88739 0.17698 0.0
H1768 H 0.00514 0.89425 0.19227 0.0
H1769 H 0.03508 0.88912 0.20388 0.0
H1770 H 0.09432 0.88399 0.1741 0.0
H1771 H 0.07171 0.89886 0.19225 0.0
H1772 H 0.01532 0.87537 0.08217 0.0
H1773 H 0.99325 0.89194 0.0996 0.0
H1774 H 0.03465 0.84107 0.08894 0.0
H1775 H 0.06366 0.83339 0.10147 0.0
C1776 C 0.35742 0.13175 0.27122 0.0
C1777 C 0.37996 0.14241 0.26268 0.0
C1778 C 0.39768 0.13809 0.30435 0.0
C1779 C 0.3763 0.12474 0.31221 0.0
N1780 N 0.33969 0.10162 0.29951 0.0
N1781 N 0.42424 0.14706 0.26927 0.0
C1782 C 0.35713 0.11949 0.29468 0.0
C1783 C 0.40096 0.143 0.27867 0.0
N1784 N 0.33629 0.13343 0.25722 0.0
N1785 N 0.41451 0.14684 0.3213 0.0
H1786 H 0.42769 0.14885 0.25021 0.0
H1787 H 0.44027 0.14567 0.28012 0.0
H1788 H 0.41209 0.14504 0.34051 0.0
H1789 H 0.42931 0.15839 0.31628 0.0
H1790 H 0.31893 0.12779 0.26385 0.0
H1791 H 0.3358 0.1424 0.23997 0.0
H1792 H 0.3266 0.09592 0.28635 0.0
H1793 H 0.34025 0.09038 0.31535 0.0
C1794 C 0.37641 0.3373 0.96078 0.0
C1795 C 0.37982 0.35861 0.97608 0.0
C1796 C 0.35954 0.38386 0.94422 0.0
C1797 C 0.36181 0.36385 0.92691 0.0
N1798 N 0.3772 0.32218 0.9185 0.0
N1799 N 0.37742 0.40339 0.98066 0.0
C1800 C 0.3715 0.34065 0.93512 0.0
C1801 C 0.3722 0.38232 0.96736 0.0
N1802 N 0.37743 0.31389 0.97078 0.0
N1803 N 0.34414 0.40353 0.93944 0.0
H1804 H 0.38689 0.40304 0.99763 0.0
H1805 H 0.37409 0.42125 0.9737 0.0
H1806 H 0.33256 0.40412 0.92389 0.0
H1807 H 0.34063 0.41755 0.95247 0.0
H1808 H 0.37319 0.2979 0.96054 0.0
H1809 H 0.37969 0.31079 0.98986 0.0
H1810 H 0.38624 0.3058 0.92377 0.0
H1811 H 0.37564 0.32438 0.89925 0.0
C1812 C 0.59851 0.38529 0.26484 0.0
C1813 C 0.61247 0.36495 0.25536 0.0
C1814 C 0.63135 0.35788 0.29613 0.0
C1815 C 0.61726 0.37813 0.30573 0.0
N1816 N 0.59246 0.4149 0.29854 0.0
N1817 N 0.64644 0.33605 0.25943 0.0
C1818 C 0.60242 0.39309 0.28982 0.0
C1819 C 0.63042 0.3527 0.27021 0.0
N1820 N 0.58073 0.39634 0.25035 0.0
N1821 N 0.64452 0.34284 0.31194 0.0
H1822 H 0.64603 0.33198 0.24039 0.0
H1823 H 0.66148 0.32811 0.26873 0.0
H1824 H 0.64564 0.34596 0.3311 0.0
H1825 H 0.65288 0.3262 0.30643 0.0
H1826 H 0.56781 0.40913 0.25714 0.0
H1827 H 0.57802 0.39173 0.23164 0.0
H1828 H 0.58351 0.42786 0.28721 0.0
H1829 H 0.59501 0.42112 0.31681 0.0
C1830 C 0.63634 0.1317 0.95578 0.0
C1831 C 0.62069 0.11907 0.93867 0.0
C1832 C 0.59339 0.10631 0.97294 0.0
C1833 C 0.6065 0.12262 0.98899 0.0
N1834 N 0.63988 0.15196 0.99594 0.0
N1835 N 0.58388 0.09471 0.93028 0.0
C1836 C 0.62807 0.13536 0.98062 0.0
C1837 C 0.59926 0.10609 0.9471 0.0
N1838 N 0.65928 0.13984 0.94833 0.0
N1839 N 0.57522 0.09126 0.98252 0.0
H1840 H 0.58767 0.09405 0.91121 0.0
H1841 H 0.56658 0.08733 0.93491 0.0
H1842 H 0.57064 0.09124 0.00145 0.0
H1843 H 0.56634 0.07735 0.97232 0.0
H1844 H 0.67256 0.14692 0.96057 0.0
H1845 H 0.66598 0.13725 0.93027 0.0
H1846 H 0.65366 0.16417 0.98981 0.0
H1847 H 0.63491 0.15472 0.01453 0.0
C1848 C 0.39171 0.88935 0.206 0.0
C1849 C 0.37627 0.87445 0.19058 0.0
C1850 C 0.36443 0.84885 0.2265 0.0
C1851 C 0.38249 0.86149 0.24095 0.0
N1852 N 0.41412 0.89311 0.24505 0.0
N1853 N 0.34866 0.83938 0.18519 0.0
C1854 C 0.39617 0.88177 0.23096 0.0
C1855 C 0.36255 0.85418 0.20062 0.0
N1856 N 0.40169 0.91096 0.19685 0.0
N1857 N 0.34906 0.83186 0.23766 0.0
H1858 H 0.3466 0.84288 0.16618 0.0
H1859 H 0.34047 0.8227 0.19079 0.0
H1860 H 0.35018 0.82756 0.25661 0.0
H1861 H 0.33392 0.82363 0.2288 0.0
H1862 H 0.41094 0.92401 0.20783 0.0
H1863 H 0.39901 0.91691 0.17853 0.0
H1864 H 0.4269 0.90584 0.23792 0.0
H1865 H 0.41716 0.88879 0.26377 0.0
C1866 C 0.11958 0.33042 0.05888 0.0
C1867 C 0.13301 0.35193 0.06638 0.0
C1868 C 0.1241 0.37153 0.02635 0.0
C1869 C 0.11298 0.34912 0.01793 0.0
N1870 N 0.1082 0.30464 0.02378 0.0
N1871 N 0.15584 0.38853 0.05305 0.0
C1872 C 0.11315 0.32769 0.03344 0.0
C1873 C 0.13769 0.37121 0.04886 0.0
N1874 N 0.11207 0.31307 0.07595 0.0
N1875 N 0.12107 0.39331 0.0135 0.0
H1876 H 0.1677 0.38773 0.0684 0.0
H1877 H 0.16098 0.40175 0.03974 0.0
H1878 H 0.11017 0.39468 0.99748 0.0
H1879 H 0.12728 0.41043 0.02033 0.0
H1880 H 0.10036 0.29826 0.07134 0.0
H1881 H 0.11524 0.31491 0.09504 0.0
H1882 H 0.11008 0.28828 0.03412 0.0
H1883 H 0.10506 0.30167 0.00481 0.0
C1884 C 0.59476 0.61042 0.22375 0.0
C1885 C 0.60974 0.62903 0.23504 0.0
C1886 C 0.63114 0.63677 0.19554 0.0
C1887 C 0.61605 0.61826 0.18418 0.0
N1888 N 0.58767 0.58365 0.18797 0.0
N1889 N 0.64538 0.65612 0.23396 0.0
C1890 C 0.59914 0.60386 0.19847 0.0
C1891 C 0.62907 0.64092 0.22163 0.0
N1892 N 0.57577 0.59974 0.23696 0.0
N1893 N 0.64663 0.65106 0.18119 0.0
H1894 H 0.6441 0.65955 0.25308 0.0
H1895 H 0.6613 0.66361 0.22585 0.0
H1896 H 0.64889 0.64832 0.16206 0.0
H1897 H 0.65609 0.66666 0.1878 0.0
H1898 H 0.56216 0.58847 0.22896 0.0
H1899 H 0.57283 0.60313 0.25589 0.0
H1900 H 0.57718 0.57081 0.19805 0.0
H1901 H 0.59023 0.57851 0.16938 0.0
C1902 C 0.87052 0.11738 0.02067 0.0
C1903 C 0.88212 0.13996 0.01346 0.0
C1904 C 0.87695 0.15615 0.0557 0.0
C1905 C 0.86297 0.13466 0.06213 0.0
N1906 N 0.83899 0.09947 0.0471 0.0
N1907 N 0.88812 0.18385 0.02206 0.0
C1908 C 0.85749 0.11657 0.04356 0.0
C1909 C 0.88293 0.16033 0.03034 0.0
N1910 N 0.87238 0.09652 0.00613 0.0
N1911 N 0.8853 0.17216 0.07366 0.0
H1912 H 0.89077 0.18799 0.00324 0.0
H1913 H 0.88689 0.19954 0.03352 0.0
H1914 H 0.88244 0.1692 0.09266 0.0
H1915 H 0.89736 0.18689 0.06973 0.0
H1916 H 0.86588 0.07913 0.01192 0.0
H1917 H 0.88255 0.09607 0.98956 0.0
H1918 H 0.8332 0.08725 0.03312 0.0
H1919 H 0.82748 0.09958 0.06276 0.0
C1920 C 0.29872 0.39792 0.10474 0.0
C1921 C 0.31572 0.38191 0.11709 0.0
C1922 C 0.28326 0.36945 0.14657 0.0
C1923 C 0.26721 0.3875 0.13595 0.0
N1924 N 0.26056 0.42177 0.10754 0.0
N1925 N 0.32572 0.35545 0.15211 0.0
C1926 C 0.27516 0.40256 0.11573 0.0
C1927 C 0.30841 0.36839 0.13863 0.0
N1928 N 0.30473 0.40796 0.08208 0.0
N1929 N 0.27434 0.3531 0.16398 0.0
H1930 H 0.34446 0.35456 0.14715 0.0
H1931 H 0.32199 0.34743 0.1694 0.0
H1932 H 0.256 0.3535 0.1704 0.0
H1933 H 0.28443 0.33783 0.17046 0.0
H1934 H 0.29206 0.41762 0.07101 0.0
H1935 H 0.32171 0.4047 0.07322 0.0
H1936 H 0.26663 0.43509 0.09477 0.0
H1937 H 0.24302 0.42562 0.11495 0.0
C1938 C 0.29199 0.62397 0.39633 0.0
C1939 C 0.30879 0.60447 0.39006 0.0
C1940 C 0.27448 0.58177 0.37091 0.0
C1941 C 0.25989 0.60378 0.37149 0.0
N1942 N 0.25596 0.64724 0.3829 0.0
N1943 N 0.3162 0.56557 0.36817 0.0
C1944 C 0.26882 0.62529 0.38388 0.0
C1945 C 0.30009 0.58337 0.37669 0.0
N1946 N 0.29777 0.64072 0.41461 0.0
N1947 N 0.26382 0.55934 0.36527 0.0
H1948 H 0.33539 0.56656 0.37067 0.0
H1949 H 0.31066 0.55117 0.35634 0.0
H1950 H 0.24477 0.55744 0.36202 0.0
H1951 H 0.27341 0.54247 0.36654 0.0
H1952 H 0.2852 0.65407 0.42107 0.0
H1953 H 0.31397 0.63938 0.42522 0.0
H1954 H 0.26316 0.66397 0.38969 0.0
H1955 H 0.23916 0.6492 0.3734 0.0
C1956 C 0.85225 0.45689 0.85985 0.0
C1957 C 0.86762 0.44174 0.87508 0.0
C1958 C 0.87956 0.47792 0.90027 0.0
C1959 C 0.8633 0.4928 0.88578 0.0
N1960 N 0.8383 0.49861 0.84899 0.0
N1961 N 0.89957 0.43777 0.90641 0.0
C1962 C 0.85107 0.48295 0.86453 0.0
C1963 C 0.88258 0.4523 0.89416 0.0
N1964 N 0.83825 0.44614 0.84144 0.0
N1965 N 0.89112 0.48817 0.92055 0.0
H1966 H 0.90151 0.41868 0.90318 0.0
H1967 H 0.91282 0.44473 0.9187 0.0
H1968 H 0.89026 0.50721 0.9246 0.0
H1969 H 0.90081 0.47792 0.93384 0.0
H1970 H 0.82452 0.45544 0.83144 0.0
H1971 H 0.83954 0.42728 0.83674 0.0
H1972 H 0.83072 0.49321 0.83199 0.0
H1973 H 0.83681 0.51774 0.85216 0.0
C1974 C 0.70553 0.86224 0.38323 0.0
C1975 C 0.68831 0.88218 0.38026 0.0
C1976 C 0.72199 0.90837 0.36465 0.0
C1977 C 0.73767 0.88714 0.36292 0.0
N1978 N 0.7426 0.84254 0.36687 0.0
N1979 N 0.67961 0.92296 0.36296 0.0
C1980 C 0.72895 0.86361 0.3711 0.0
C1981 C 0.69637 0.90495 0.36951 0.0
N1982 N 0.7003 0.84273 0.39872 0.0
N1983 N 0.73163 0.93186 0.36248 0.0
H1984 H 0.66043 0.92069 0.36481 0.0
H1985 H 0.68467 0.93892 0.35307 0.0
H1986 H 0.75063 0.93523 0.36038 0.0
H1987 H 0.72111 0.9479 0.36564 0.0
H1988 H 0.71324 0.82885 0.40292 0.0
H1989 H 0.68428 0.84202 0.40965 0.0
H1990 H 0.73577 0.82469 0.3705 0.0
H1991 H 0.75976 0.84279 0.35778 0.0
C1992 C 0.65123 0.51514 0.36662 0.0
C1993 C 0.6354 0.50663 0.38604 0.0
C1994 C 0.61762 0.54836 0.39062 0.0
C1995 C 0.63256 0.5566 0.3704 0.0
N1996 N 0.6598 0.54719 0.3359 0.0
N1997 N 0.60041 0.51321 0.4133 0.0
C1998 C 0.64826 0.53978 0.3574 0.0
C1999 C 0.61755 0.52267 0.39699 0.0
N2000 N 0.66971 0.50002 0.35768 0.0
N2001 N 0.60433 0.56525 0.40437 0.0
H2002 H 0.6 0.49442 0.4184 0.0
H2003 H 0.58532 0.52337 0.42004 0.0
H2004 H 0.60402 0.5843 0.40041 0.0
H2005 H 0.59522 0.56079 0.42092 0.0
H2006 H 0.68369 0.5062 0.34573 0.0
H2007 H 0.67215 0.48162 0.3635 0.0
H2008 H 0.66929 0.53501 0.32412 0.0
H2009 H 0.65818 0.5652 0.32868 0.0
C2010 C 0.23385 0.60841 0.60544 0.0
C2011 C 0.24178 0.61931 0.62817 0.0
C2012 C 0.20003 0.63579 0.63575 0.0
C2013 C 0.19195 0.62453 0.6132 0.0
N2014 N 0.20216 0.60649 0.57331 0.0
N2015 N 0.23502 0.64875 0.66129 0.0
C2016 C 0.20924 0.61291 0.59694 0.0
C2017 C 0.22568 0.63498 0.642 0.0
N2018 N 0.24933 0.59265 0.59271 0.0
N2019 N 0.18306 0.64587 0.65189 0.0
H2020 H 0.25383 0.64835 0.66612 0.0
H2021 H 0.22479 0.66222 0.67084 0.0
H2022 H 0.16405 0.64666 0.64811 0.0
H2023 H 0.18751 0.65182 0.66982 0.0
H2024 H 0.24354 0.58167 0.57777 0.0
H2025 H 0.26773 0.58945 0.59794 0.0
H2026 H 0.21453 0.60012 0.55977 0.0
H2027 H 0.18428 0.60978 0.56649 0.0
C2028 C 0.87858 0.54061 0.64185 0.0
C2029 C 0.85909 0.55816 0.63813 0.0
C2030 C 0.8328 0.52435 0.62291 0.0
C2031 C 0.85389 0.50851 0.62129 0.0
N2032 N 0.89847 0.5038 0.62527 0.0
N2033 N 0.81869 0.5669 0.62008 0.0
C2034 C 0.87732 0.51724 0.62962 0.0
C2035 C 0.83639 0.55011 0.6273 0.0
N2036 N 0.89756 0.54557 0.658 0.0
N2037 N 0.80933 0.51477 0.621 0.0
H2038 H 0.82117 0.58615 0.62126 0.0
H2039 H 0.8028 0.56167 0.61023 0.0
H2040 H 0.80591 0.49569 0.61924 0.0
H2041 H 0.79341 0.52549 0.62402 0.0
H2042 H 0.91111 0.5324 0.66252 0.0
H2043 H 0.89798 0.56155 0.6691 0.0
H2044 H 0.91616 0.51072 0.62929 0.0
H2045 H 0.89849 0.48695 0.61555 0.0
C2046 C 0.12194 0.9719 0.59928 0.0
C2047 C 0.14099 0.98692 0.6096 0.0
C2048 C 0.15495 0.95213 0.63553 0.0
C2049 C 0.13771 0.93643 0.62313 0.0
N2050 N 0.10765 0.93005 0.59029 0.0
N2051 N 0.17794 0.99099 0.63481 0.0
C2052 C 0.1219 0.94595 0.60423 0.0
C2053 C 0.15815 0.97698 0.62703 0.0
N2054 N 0.10376 0.98254 0.58497 0.0
N2055 N 0.16764 0.94356 0.65589 0.0
H2056 H 0.18064 0.00947 0.62936 0.0
H2057 H 0.19261 0.98376 0.64522 0.0
H2058 H 0.16575 0.92543 0.66271 0.0
H2059 H 0.17842 0.955 0.66728 0.0
H2060 H 0.08797 0.97299 0.57904 0.0
H2061 H 0.10331 0.00158 0.58091 0.0
H2062 H 0.09774 0.93563 0.57458 0.0
H2063 H 0.10749 0.91078 0.593 0.0
C2064 C 0.61911 0.77476 0.90862 0.0
C2065 C 0.63757 0.76438 0.89282 0.0
C2066 C 0.64449 0.80499 0.87343 0.0
C2067 C 0.62438 0.81481 0.8875 0.0
N2068 N 0.58923 0.80798 0.91477 0.0
N2069 N 0.66467 0.768 0.85716 0.0
C2070 C 0.61072 0.79942 0.9041 0.0
C2071 C 0.64927 0.77901 0.87424 0.0
N2072 N 0.61012 0.76136 0.92836 0.0
N2073 N 0.6596 0.82059 0.8601 0.0
H2074 H 0.66864 0.74894 0.85728 0.0
H2075 H 0.67171 0.7773 0.84163 0.0
H2076 H 0.65705 0.83988 0.85954 0.0
H2077 H 0.676 0.81475 0.85154 0.0
H2078 H 0.59872 0.76905 0.94209 0.0
H2079 H 0.6156 0.74309 0.93216 0.0
H2080 H 0.57717 0.79661 0.92488 0.0
H2081 H 0.58221 0.82584 0.91164 0.0
C2082 C 0.01355 0.14858 0.35105 0.0
C2083 C 0.00511 0.12716 0.36399 0.0
C2084 C 0.04634 0.12048 0.38167 0.0
C2085 C 0.05492 0.14193 0.36873 0.0
N2086 N 0.04562 0.18009 0.34679 0.0
N2087 N 0.01073 0.09709 0.39671 0.0
C2088 C 0.03815 0.15721 0.35521 0.0
C2089 C 0.02063 0.11472 0.38121 0.0
N2090 N -0.00151 0.15992 0.33394 0.0
N2091 N 0.06288 0.10479 0.39305 0.0
H2092 H 0.99182 0.09261 0.39655 0.0
H2093 H 0.02062 0.08882 0.41121 0.0
H2094 H 0.08203 0.10791 0.39322 0.0
H2095 H 0.05791 0.08756 0.40049 0.0
H2096 H 0.00466 0.17363 0.32165 0.0
H2097 H 0.98002 0.15467 0.33111 0.0
H2098 H 0.03353 0.19305 0.33891 0.0
H2099 H 0.0635 0.18706 0.34975 0.0
C2100 C 0.36616 0.69552 0.9158 0.0
C2101 C 0.37848 0.68796 0.89363 0.0
C2102 C 0.37058 0.72894 0.87532 0.0
C2103 C 0.36066 0.73729 0.89834 0.0
N2104 N 0.35619 0.73034 0.94266 0.0
N2105 N 0.39983 0.70084 0.856 0.0
C2106 C 0.36059 0.72114 0.9193 0.0
C2107 C 0.38291 0.70564 0.87442 0.0
N2108 N 0.35894 0.67829 0.93312 0.0
N2109 N 0.36762 0.74273 0.85411 0.0
H2110 H 0.41074 0.68478 0.85572 0.0
H2111 H 0.40507 0.71415 0.84283 0.0
H2112 H 0.35785 0.75954 0.85371 0.0
H2113 H 0.37268 0.73612 0.83653 0.0
H2114 H 0.34786 0.68281 0.94844 0.0
H2115 H 0.36178 0.65917 0.93087 0.0
H2116 H 0.35806 0.71958 0.95874 0.0
H2117 H 0.35341 0.74928 0.94616 0.0
C2118 C 0.95176 0.3569 0.34812 0.0
C2119 C 0.93603 0.36861 0.36583 0.0
C2120 C 0.9704 0.39523 0.37944 0.0
C2121 C 0.98495 0.38593 0.3595 0.0
N2122 N 0.98899 0.36 0.32287 0.0
N2123 N 0.92897 0.4014 0.39599 0.0
C2124 C 0.97557 0.36723 0.34332 0.0
C2125 C 0.94499 0.38834 0.38105 0.0
N2126 N 0.94417 0.33557 0.33638 0.0
N2127 N 0.98093 0.41062 0.39681 0.0
H2128 H 0.91003 0.3974 0.39726 0.0
H2129 H 0.93395 0.41762 0.40544 0.0
H2130 H -0.00048 0.41618 0.39597 0.0
H2131 H 0.97194 0.41602 0.41317 0.0
H2132 H 0.95583 0.32479 0.32519 0.0
H2133 H 0.92688 0.32733 0.33964 0.0
H2134 H 0.98182 0.34865 0.30885 0.0
H2135 H 0.00677 0.36675 0.31895 0.0
C2136 C 0.60064 0.19857 0.63235 0.0
C2137 C 0.60255 0.18152 0.61209 0.0
C2138 C 0.61793 0.21543 0.58604 0.0
C2139 C 0.62195 0.23016 0.60758 0.0
N2140 N 0.61915 0.23453 0.65231 0.0
N2141 N 0.61781 0.17343 0.57026 0.0
C2142 C 0.61378 0.22149 0.63112 0.0
C2143 C 0.61232 0.18987 0.58895 0.0
N2144 N 0.5854 0.19358 0.65211 0.0
N2145 N 0.61957 0.22581 0.56284 0.0
H2146 H 0.61614 0.15416 0.5722 0.0
H2147 H 0.62691 0.1788 0.55394 0.0
H2148 H 0.6228 0.24483 0.56016 0.0
H2149 H 0.615 0.21606 0.54664 0.0
H2150 H 0.58214 0.20639 0.66638 0.0
H2151 H 0.57379 0.178 0.65262 0.0
H2152 H 0.61557 0.22753 0.6701 0.0
H2153 H 0.62881 0.2514 0.65211 0.0
C2154 C 0.43357 0.10102 0.62291 0.0
C2155 C 0.4242 0.11838 0.64053 0.0
C2156 C 0.46372 0.1179 0.66288 0.0
C2157 C 0.4738 0.10266 0.64375 0.0
N2158 N 0.47003 0.08283 0.60358 0.0
N2159 N 0.43124 0.14683 0.67475 0.0
C2160 C 0.45924 0.0952 0.6231 0.0
C2161 C 0.43948 0.1278 0.65988 0.0
N2162 N 0.41776 0.08939 0.60665 0.0
N2163 N 0.477 0.12231 0.68417 0.0
H2164 H 0.41357 0.15471 0.67306 0.0
H2165 H 0.44263 0.15624 0.68733 0.0
H2166 H 0.49503 0.11566 0.68694 0.0
H2167 H 0.46944 0.13092 0.69987 0.0
H2168 H 0.42317 0.07476 0.59507 0.0
H2169 H 0.39864 0.09272 0.60639 0.0
H2170 H 0.46087 0.0792 0.58686 0.0
H2171 H 0.48886 0.07808 0.60323 0.0
C2172 C 0.36058 0.27629 0.63587 0.0
C2173 C 0.37265 0.25956 0.61942 0.0
C2174 C 0.40495 0.2906 0.61103 0.0
C2175 C 0.39046 0.30859 0.62387 0.0
N2176 N 0.35405 0.31934 0.64803 0.0
N2177 N 0.4061 0.25005 0.59098 0.0
C2178 C 0.36834 0.3016 0.63656 0.0
C2179 C 0.39504 0.26635 0.60719 0.0
N2180 N 0.34163 0.26788 0.65064 0.0
N2181 N 0.42823 0.29673 0.60276 0.0
H2182 H 0.39985 0.23181 0.58841 0.0
H2183 H 0.42065 0.25494 0.57913 0.0
H2184 H 0.43597 0.3144 0.60539 0.0
H2185 H 0.44069 0.28384 0.59533 0.0
H2186 H 0.33344 0.2785 0.66469 0.0
H2187 H 0.33567 0.24934 0.65037 0.0
H2188 H 0.33634 0.31589 0.6551 0.0
H2189 H 0.35914 0.33808 0.64905 0.0
C2190 C 0.53759 0.40115 0.61787 0.0
C2191 C 0.522 0.38971 0.63585 0.0
C2192 C 0.55445 0.35907 0.64514 0.0
C2193 C 0.57104 0.37231 0.62936 0.0
N2194 N 0.5797 0.4078 0.60308 0.0
N2195 N 0.51643 0.36012 0.66933 0.0
C2196 C 0.56295 0.39382 0.61625 0.0
C2197 C 0.53061 0.36924 0.65021 0.0
N2198 N 0.52802 0.41876 0.60213 0.0
N2199 N 0.56115 0.33636 0.65462 0.0
H2200 H 0.49874 0.36688 0.67361 0.0
H2201 H 0.52299 0.3472 0.68226 0.0
H2202 H 0.57841 0.32816 0.65124 0.0
H2203 H 0.54881 0.32461 0.66391 0.0
H2204 H 0.53773 0.42596 0.58694 0.0
H2205 H 0.50953 0.42465 0.60297 0.0
H2206 H 0.57549 0.4251 0.59534 0.0
H2207 H 0.59848 0.40312 0.60161 0.0
C2208 C 0.87776 0.65051 0.77993 0.0
C2209 C 0.89724 0.63908 0.76627 0.0
C2210 C 0.90872 0.61397 0.80258 0.0
C2211 C 0.89063 0.62698 0.81678 0.0
N2212 N 0.86046 0.66013 0.82053 0.0
N2213 N 0.93337 0.61243 0.76469 0.0
C2214 C 0.87581 0.64596 0.80588 0.0
C2215 C 0.91335 0.62147 0.77761 0.0
N2216 N 0.86085 0.66533 0.76793 0.0
N2217 N 0.92086 0.59397 0.81271 0.0
H2218 H 0.9369 0.61697 0.7461 0.0
H2219 H 0.94738 0.60177 0.77281 0.0
H2220 H 0.91819 0.58819 0.8311 0.0
H2221 H 0.93219 0.582 0.80246 0.0
H2222 H 0.84467 0.67201 0.77628 0.0
H2223 H 0.86188 0.6693 0.74891 0.0
H2224 H 0.85118 0.67595 0.81418 0.0
H2225 H 0.85856 0.6574 0.8397 0.0
C2226 C 0.89119 0.87635 0.44459 0.0
C2227 C 0.87101 0.86244 0.43473 0.0
C2228 C 0.86597 0.84081 0.47454 0.0
C2229 C 0.88493 0.85601 0.48487 0.0
N2230 N 0.91185 0.89179 0.48166 0.0
N2231 N 0.83529 0.83606 0.4419 0.0
C2232 C 0.89628 0.87501 0.4705 0.0
C2233 C 0.85719 0.84604 0.45018 0.0
N2234 N 0.90634 0.88972 0.42906 0.0
N2235 N 0.85701 0.8208 0.48756 0.0
H2236 H 0.8279 0.83996 0.42435 0.0
H2237 H 0.82325 0.82598 0.45332 0.0
H2238 H 0.86284 0.81637 0.50557 0.0
H2239 H 0.84526 0.80747 0.47975 0.0
H2240 H 0.92282 0.89809 0.43493 0.0
H2241 H 0.90374 0.89054 0.40981 0.0
H2242 H 0.91877 0.90753 0.4726 0.0
H2243 H 0.91603 0.8912 0.50065 0.0
C2244 C 0.1016 0.89758 0.79279 0.0
C2245 C 0.11744 0.88373 0.80872 0.0
C2246 C 0.13182 0.85868 0.77332 0.0
C2247 C 0.11336 0.87 0.75834 0.0
N2248 N 0.07979 0.89942 0.75328 0.0
N2249 N 0.14655 0.85 0.81512 0.0
C2250 C 0.09816 0.88945 0.76783 0.0
C2251 C 0.13251 0.86413 0.79922 0.0
N2252 N 0.09028 0.91876 0.80142 0.0
N2253 N 0.1486 0.84273 0.76268 0.0
H2254 H 0.14753 0.85337 0.83425 0.0
H2255 H 0.15581 0.8338 0.80976 0.0
H2256 H 0.14836 0.83841 0.74369 0.0
H2257 H 0.164 0.83558 0.77202 0.0
H2258 H 0.08057 0.93111 0.79003 0.0
H2259 H 0.09232 0.92516 0.81969 0.0
H2260 H 0.06606 0.91135 0.76006 0.0
H2261 H 0.07742 0.89471 0.73455 0.0
C2262 C 0.11822 0.62036 0.47411 0.0
C2263 C 0.11022 0.64371 0.48352 0.0
C2264 C 0.11622 0.66231 0.44235 0.0
C2265 C 0.127 0.63975 0.43371 0.0
N2266 N 0.14587 0.60027 0.44498 0.0
N2267 N 0.10936 0.68852 0.47831 0.0
C2268 C 0.13018 0.61951 0.45056 0.0
C2269 C 0.11157 0.66523 0.46817 0.0
N2270 N 0.11406 0.59896 0.48726 0.0
N2271 N 0.10959 0.68065 0.42597 0.0
H2272 H 0.10742 0.69153 0.49744 0.0
H2273 H 0.11229 0.70478 0.46805 0.0
H2274 H 0.11146 0.67878 0.4067 0.0
H2275 H 0.09969 0.69648 0.43141 0.0
H2276 H 0.11765 0.58129 0.47992 0.0
H2277 H 0.10498 0.59876 0.50446 0.0
H2278 H 0.1502 0.58621 0.45769 0.0
H2279 H 0.15689 0.60005 0.42901 0.0
C2280 C 0.87105 0.35484 0.70368 0.0
C2281 C 0.88113 0.37791 0.69555 0.0
C2282 C 0.89516 0.38736 0.73791 0.0
C2283 C 0.88455 0.36457 0.7461 0.0
N2284 N 0.85761 0.32951 0.73868 0.0
N2285 N 0.89709 0.41878 0.70551 0.0
C2286 C 0.87084 0.34929 0.72955 0.0
C2287 C 0.89142 0.39503 0.71287 0.0
N2288 N 0.86284 0.33774 0.68663 0.0
N2289 N 0.90981 0.40103 0.75364 0.0
H2290 H 0.89448 0.4251 0.6873 0.0
H2291 H 0.90221 0.43286 0.71787 0.0
H2292 H 0.91264 0.39632 0.77228 0.0
H2293 H 0.92051 0.41614 0.74779 0.0
H2294 H 0.85784 0.31956 0.69125 0.0
H2295 H 0.86286 0.34103 0.66746 0.0
H2296 H 0.84535 0.31899 0.72795 0.0
H2297 H 0.85715 0.32509 0.75763 0.0
C2298 C 0.61941 0.82591 0.52717 0.0
C2299 C 0.61849 0.84691 0.51111 0.0
C2300 C 0.64109 0.87122 0.5421 0.0
C2301 C 0.63719 0.85203 0.55993 0.0
N2302 N 0.61904 0.81195 0.56996 0.0
N2303 N 0.62501 0.89113 0.50513 0.0
C2304 C 0.62545 0.82949 0.55263 0.0
C2305 C 0.62843 0.87005 0.51901 0.0
N2306 N 0.61538 0.80248 0.51799 0.0
N2307 N 0.65761 0.89002 0.5467 0.0
H2308 H 0.61504 0.8913 0.48845 0.0
H2309 H 0.62999 0.90883 0.51148 0.0
H2310 H 0.66853 0.89063 0.56274 0.0
H2311 H 0.6625 0.90326 0.53332 0.0
H2312 H 0.61795 0.78639 0.52861 0.0
H2313 H 0.61219 0.79901 0.49911 0.0
H2314 H 0.60829 0.79636 0.56562 0.0
H2315 H 0.62225 0.81416 0.589 0.0
C2316 C 0.12771 0.12307 0.72842 0.0
C2317 C 0.10473 0.13213 0.73758 0.0
C2318 C 0.0859 0.12631 0.69669 0.0
C2319 C 0.10829 0.11543 0.68785 0.0
N2320 N 0.14691 0.09495 0.69896 0.0
N2321 N 0.06002 0.13273 0.7329 0.0
C2322 C 0.12824 0.11122 0.70477 0.0
C2323 C 0.08314 0.13054 0.72252 0.0
N2324 N 0.14906 0.12624 0.74181 0.0
N2325 N 0.06777 0.13394 0.68055 0.0
H2326 H 0.0573 0.13464 0.75208 0.0
H2327 H 0.04373 0.12983 0.72276 0.0
H2328 H 0.06971 0.13312 0.66123 0.0
H2329 H 0.05211 0.14384 0.68641 0.0
H2330 H 0.16659 0.12195 0.73463 0.0
H2331 H 0.14938 0.13494 0.75921 0.0
H2332 H 0.16079 0.09 0.7116 0.0
H2333 H 0.14679 0.08419 0.68275 0.0
C2334 C 0.3953 0.61651 0.55543 0.0
C2335 C 0.37798 0.63294 0.56681 0.0
C2336 C 0.37404 0.65663 0.52805 0.0
C2337 C 0.39035 0.63943 0.51636 0.0
N2338 N 0.41325 0.60077 0.51701 0.0
N2339 N 0.34737 0.66567 0.56342 0.0
C2340 C 0.39997 0.61863 0.52948 0.0
C2341 C 0.36632 0.65219 0.55296 0.0
N2342 N 0.40792 0.59949 0.56963 0.0
N2343 N 0.36649 0.67752 0.51552 0.0
H2344 H 0.34132 0.663 0.58172 0.0
H2345 H 0.33632 0.67809 0.55345 0.0
H2346 H 0.3711 0.68097 0.49694 0.0
H2347 H 0.357 0.69223 0.52395 0.0
H2348 H 0.42273 0.58887 0.56299 0.0
H2349 H 0.40489 0.59726 0.58871 0.0
H2350 H 0.41851 0.58384 0.52491 0.0
H2351 H 0.41734 0.60196 0.49802 0.0
C2352 C 0.79463 0.87118 0.61445 0.0
C2353 C 0.81263 0.89028 0.61792 0.0
C2354 C 0.77986 0.91733 0.63415 0.0
C2355 C 0.76356 0.89658 0.63567 0.0
N2356 N 0.75796 0.85196 0.63182 0.0
N2357 N 0.82272 0.93042 0.63606 0.0
C2358 C 0.77167 0.8729 0.62722 0.0
C2359 C 0.80539 0.9131 0.62923 0.0
N2360 N 0.79862 0.85224 0.59789 0.0
N2361 N 0.77092 0.94111 0.63606 0.0
H2362 H 0.84181 0.92751 0.63417 0.0
H2363 H 0.81813 0.9464 0.64618 0.0
H2364 H 0.75199 0.94505 0.63779 0.0
H2365 H 0.78202 0.95678 0.63305 0.0
H2366 H 0.78502 0.83904 0.59361 0.0
H2367 H 0.81413 0.85161 0.58621 0.0
H2368 H 0.76441 0.83411 0.62755 0.0
H2369 H 0.74152 0.85224 0.64216 0.0
C2370 C 0.78651 0.13325 0.8899 0.0
C2371 C 0.80222 0.11235 0.88549 0.0
C2372 C 0.76702 0.09027 0.86724 0.0
C2373 C 0.75354 0.113 0.86623 0.0
N2374 N 0.75135 0.15711 0.87499 0.0
N2375 N 0.80786 0.07169 0.86657 0.0
C2376 C 0.76346 0.13482 0.8772 0.0
C2377 C 0.79258 0.0909 0.87341 0.0
N2378 N 0.79303 0.15099 0.90698 0.0
N2379 N 0.75534 0.0681 0.86269 0.0
H2380 H 0.82701 0.0718 0.86957 0.0
H2381 H 0.80183 0.05683 0.85558 0.0
H2382 H 0.73629 0.06689 0.85915 0.0
H2383 H 0.76401 0.05088 0.86518 0.0
H2384 H 0.78119 0.16549 0.91223 0.0
H2385 H 0.80897 0.14954 0.91795 0.0
H2386 H 0.75923 0.17399 0.88052 0.0
H2387 H 0.73426 0.15892 0.86595 0.0
C2388 C 0.34006 0.97559 0.36559 0.0
C2389 C 0.3575 0.98736 0.38156 0.0
C2390 C 0.38013 0.94814 0.38656 0.0
C2391 C 0.36317 0.93649 0.36994 0.0
N2392 N 0.33093 0.94024 0.33891 0.0
N2393 N 0.39713 0.98697 0.40234 0.0
C2394 C 0.34433 0.95058 0.35795 0.0
C2395 C 0.37863 0.9743 0.3903 0.0
N2396 N 0.3189 0.9879 0.35862 0.0
N2397 N 0.39663 0.93407 0.39992 0.0
H2398 H 0.39639 0.0062 0.40537 0.0
H2399 H 0.41411 0.97894 0.40713 0.0
H2400 H 0.39788 0.91473 0.3983 0.0
H2401 H 0.40758 0.94125 0.41424 0.0
H2402 H 0.30409 0.97926 0.34957 0.0
H2403 H 0.31544 0.00648 0.36327 0.0
H2404 H 0.31865 0.95038 0.32784 0.0
H2405 H 0.33379 0.92203 0.33264 0.0
C2406 C 0.19008 0.41389 0.87227 0.0
C2407 C 0.18372 0.39159 0.88496 0.0
C2408 C 0.22343 0.37303 0.87274 0.0
C2409 C 0.23056 0.39605 0.86195 0.0
N2410 N 0.22382 0.44056 0.85924 0.0
N2411 N 0.19791 0.35325 0.90406 0.0
C2412 C 0.21486 0.41721 0.86406 0.0
C2413 C 0.20145 0.37207 0.88726 0.0
N2414 N 0.17242 0.43149 0.86714 0.0
N2415 N 0.23713 0.35195 0.86859 0.0
H2416 H 0.18276 0.35272 0.91621 0.0
H2417 H 0.2114 0.3398 0.90784 0.0
H2418 H 0.25319 0.35178 0.85765 0.0
H2419 H 0.23123 0.33428 0.87415 0.0
H2420 H 0.17592 0.44693 0.85586 0.0
H2421 H 0.15372 0.4294 0.8719 0.0
H2422 H 0.21355 0.45673 0.86261 0.0
H2423 H 0.24237 0.44392 0.85458 0.0
C2424 C 0.14638 0.02435 0.86597 0.0
C2425 C 0.1349 0.0148 0.88779 0.0
C2426 C 0.11495 0.05515 0.89556 0.0
C2427 C 0.12579 0.06445 0.87328 0.0
N2428 N 0.1466 0.05643 0.83421 0.0
N2429 N 0.10452 0.01885 0.92055 0.0
C2430 C 0.13992 0.04857 0.85753 0.0
C2431 C 0.11791 0.02951 0.90167 0.0
N2432 N 0.16424 0.01073 0.8539 0.0
N2433 N 0.10283 0.07104 0.91141 0.0
H2434 H 0.10646 0.00013 0.92553 0.0
H2435 H 0.09005 0.02787 0.92983 0.0
H2436 H 0.10022 0.08993 0.90754 0.0
H2437 H 0.09693 0.066 0.92921 0.0
H2438 H 0.17539 0.01796 0.83975 0.0
H2439 H 0.16928 0.9927 0.85918 0.0
H2440 H 0.15459 0.04476 0.82089 0.0
H2441 H 0.14201 0.074 0.82729 0.0
C2442 C 0.71417 0.1207 0.14206 0.0
C2443 C 0.72822 0.10069 0.1322 0.0
C2444 C 0.69212 0.08605 0.10865 0.0
C2445 C 0.67735 0.1041 0.1211 0.0
N2446 N 0.67322 0.13672 0.15192 0.0
N2447 N 0.73093 0.06302 0.10773 0.0
C2448 C 0.68809 0.12106 0.13833 0.0
C2449 C 0.71736 0.08305 0.11579 0.0
N2450 N 0.72586 0.13934 0.15493 0.0
N2451 N 0.68221 0.07232 0.08959 0.0
H2452 H 0.74979 0.06079 0.11174 0.0
H2453 H 0.7232 0.04793 0.09827 0.0
H2454 H 0.6637 0.07392 0.08397 0.0
H2455 H 0.69276 0.06079 0.07805 0.0
H2456 H 0.71704 0.15571 0.16053 0.0
H2457 H 0.74504 0.13947 0.158 0.0
H2458 H 0.6797 0.14765 0.1666 0.0
H2459 H 0.65391 0.13727 0.15003 0.0
C2460 C 0.356 0.04243 0.15173 0.0
C2461 C 0.36826 0.05868 0.13486 0.0
C2462 C 0.37947 0.02315 0.1085 0.0
C2463 C 0.36339 0.00793 0.12281 0.0
N2464 N 0.33572 0.00251 0.15779 0.0
N2465 N 0.39094 0.06516 0.0965 0.0
C2466 C 0.35177 0.01727 0.14463 0.0
C2467 C 0.3802 0.04919 0.11323 0.0
N2468 N 0.34878 0.05099 0.17464 0.0
N2469 N 0.39382 0.01258 0.09029 0.0
H2470 H 0.39175 0.0844 0.0992 0.0
H2471 H 0.39747 0.0596 0.07908 0.0
H2472 H 0.39355 0.99345 0.0866 0.0
H2473 H 0.40759 0.0222 0.08057 0.0
H2474 H 0.34192 0.03946 0.18868 0.0
H2475 H 0.35181 0.0693 0.18048 0.0
H2476 H 0.32427 0.00918 0.17198 0.0
H2477 H 0.33281 0.98373 0.15361 0.0
C2478 C 0.63907 0.45079 0.14068 0.0
C2479 C 0.6238 0.43526 0.12574 0.0
C2480 C 0.60859 0.47164 0.10287 0.0
C2481 C 0.62696 0.48625 0.11475 0.0
N2482 N 0.65984 0.49071 0.14494 0.0
N2483 N 0.59427 0.43012 0.09222 0.0
C2484 C 0.64197 0.47623 0.13401 0.0
C2485 C 0.60827 0.4455 0.10696 0.0
N2486 N 0.65051 0.44125 0.16136 0.0
N2487 N 0.59168 0.48291 0.08754 0.0
H2488 H 0.59353 0.41083 0.09467 0.0
H2489 H 0.58466 0.43616 0.0765 0.0
H2490 H 0.5917 0.50214 0.0844 0.0
H2491 H 0.57642 0.47378 0.07985 0.0
H2492 H 0.65983 0.45215 0.17443 0.0
H2493 H 0.64897 0.42257 0.16659 0.0
H2494 H 0.67355 0.48372 0.15673 0.0
H2495 H 0.66169 0.50973 0.14128 0.0
C2496 C 0.25308 0.11179 0.37752 0.0
C2497 C 0.26145 0.10389 0.40143 0.0
C2498 C 0.22258 0.11898 0.41969 0.0
C2499 C 0.21678 0.13136 0.39718 0.0
N2500 N 0.22664 0.14056 0.35447 0.0
N2501 N 0.25614 0.10654 0.44641 0.0
C2502 C 0.23198 0.12793 0.37588 0.0
C2503 C 0.24661 0.10894 0.42286 0.0
N2504 N 0.26474 0.10338 0.35651 0.0
N2505 N 0.20544 0.11786 0.43849 0.0
H2506 H 0.27473 0.10243 0.45005 0.0
H2507 H 0.24645 0.11206 0.46234 0.0
H2508 H 0.18761 0.12536 0.43671 0.0
H2509 H 0.20809 0.10722 0.45455 0.0
H2510 H 0.25831 0.10707 0.33857 0.0
H2511 H 0.27939 0.09062 0.35715 0.0
H2512 H 0.23852 0.14097 0.3391 0.0
H2513 H 0.21073 0.15161 0.35272 0.0
C2514 C 0.3548 0.49728 0.82496 0.0
C2515 C 0.34519 0.48334 0.84517 0.0
C2516 C 0.36395 0.51378 0.87393 0.0
C2517 C 0.3711 0.52841 0.85314 0.0
N2518 N 0.36486 0.53811 0.80969 0.0
N2519 N 0.33662 0.48106 0.8894 0.0
C2520 C 0.36298 0.52173 0.82905 0.0
C2521 C 0.34844 0.49243 0.86995 0.0
N2522 N 0.3595 0.48612 0.80262 0.0
N2523 N 0.37247 0.51986 0.89709 0.0
H2524 H 0.32462 0.46596 0.88693 0.0
H2525 H 0.33695 0.48802 0.90754 0.0
H2526 H 0.38303 0.53591 0.90025 0.0
H2527 H 0.37004 0.50848 0.91265 0.0
H2528 H 0.36798 0.49536 0.78775 0.0
H2529 H 0.35924 0.46679 0.80092 0.0
H2530 H 0.35791 0.53417 0.79195 0.0
H2531 H 0.37087 0.55639 0.8123 0.0
C2532 C 0.72922 0.36368 0.38884 0.0
C2533 C 0.72845 0.38999 0.39278 0.0
C2534 C 0.77391 0.39084 0.39683 0.0
C2535 C 0.77445 0.36459 0.39336 0.0
N2536 N 0.7544 0.32815 0.37672 0.0
N2537 N 0.75044 0.42913 0.39149 0.0
C2538 C 0.75265 0.35185 0.38597 0.0
C2539 C 0.75101 0.40374 0.39365 0.0
N2540 N 0.70814 0.34944 0.39008 0.0
N2541 N 0.79462 0.40325 0.40482 0.0
H2542 H 0.73391 0.43892 0.38849 0.0
H2543 H 0.76642 0.44003 0.38998 0.0
H2544 H 0.81182 0.39466 0.40726 0.0
H2545 H 0.79429 0.42182 0.41058 0.0
H2546 H 0.70855 0.33 0.39043 0.0
H2547 H 0.69037 0.35648 0.39303 0.0
H2548 H 0.73935 0.31867 0.36896 0.0
H2549 H 0.7715 0.3192 0.37434 0.0
C2550 C 0.64765 0.00727 0.86219 0.0
C2551 C 0.6522 0.01723 0.83802 0.0
C2552 C 0.63555 0.97891 0.81976 0.0
C2553 C 0.62558 0.97225 0.84321 0.0
N2554 N 0.62211 0.97951 0.8873 0.0
N2555 N 0.64621 0.01323 0.79314 0.0
C2556 C 0.63184 0.98609 0.86473 0.0
C2557 C 0.64551 0.00307 0.81652 0.0
N2558 N 0.65899 0.01759 0.88246 0.0
N2559 N 0.63465 0.96238 0.80036 0.0
H2560 H 0.6508 0.03168 0.78946 0.0
H2561 H 0.63914 0.00417 0.77747 0.0
H2562 H 0.62733 0.94445 0.80229 0.0
H2563 H 0.6436 0.96552 0.78339 0.0
H2564 H 0.65767 0.01015 0.90036 0.0
H2565 H 0.67201 0.03192 0.88072 0.0
H2566 H 0.62384 0.99051 0.90323 0.0
H2567 H 0.61123 0.96353 0.88962 0.0
C2568 C 0.23174 0.86917 0.07538 0.0
C2569 C 0.22223 0.85921 0.0979 0.0
C2570 C 0.2541 0.88217 0.1213 0.0
C2571 C 0.2654 0.88904 0.09834 0.0
N2572 N 0.26871 0.8822 0.05382 0.0
N2573 N 0.22486 0.85458 0.14244 0.0
C2574 C 0.25526 0.88064 0.07544 0.0
C2575 C 0.23347 0.86532 0.12103 0.0
N2576 N 0.21813 0.86796 0.05388 0.0
N2577 N 0.2627 0.89213 0.14309 0.0
H2578 H 0.20944 0.84275 0.14265 0.0
H2579 H 0.23377 0.85629 0.1596 0.0
H2580 H 0.27767 0.9045 0.14365 0.0
H2581 H 0.25395 0.88957 0.16023 0.0
H2582 H 0.22347 0.87698 0.03749 0.0
H2583 H 0.20024 0.86046 0.05322 0.0
H2584 H 0.26283 0.87418 0.03711 0.0
H2585 H 0.28698 0.88872 0.05317 0.0
C2586 C 0.12725 0.47789 0.17358 0.0
C2587 C 0.14003 0.47006 0.15187 0.0
C2588 C 0.12104 0.50452 0.12844 0.0
C2589 C 0.11109 0.51408 0.15113 0.0
N2590 N 0.11104 0.5128 0.19643 0.0
N2591 N 0.15098 0.47651 0.10885 0.0
C2592 C 0.116 0.50161 0.17402 0.0
C2593 C 0.13744 0.4835 0.12925 0.0
N2594 N 0.12525 0.46235 0.19373 0.0
N2595 N 0.11416 0.51485 0.10622 0.0
H2596 H 0.16255 0.46087 0.10888 0.0
H2597 H 0.15191 0.48701 0.09254 0.0
H2598 H 0.10204 0.53 0.105 0.0
H2599 H 0.11889 0.50724 0.08898 0.0
H2600 H 0.11401 0.46635 0.20909 0.0
H2601 H 0.13245 0.44427 0.19393 0.0
H2602 H 0.11692 0.50541 0.21342 0.0
H2603 H 0.10365 0.53067 0.19814 0.0
C2604 C 0.74676 0.60113 0.07851 0.0
C2605 C 0.72982 0.59635 0.09826 0.0
C2606 C 0.75701 0.61981 0.12664 0.0
C2607 C 0.77446 0.62261 0.10707 0.0
N2608 N 0.78968 0.6078 0.06741 0.0
N2609 N 0.72247 0.59546 0.14266 0.0
C2610 C 0.77071 0.6101 0.0842 0.0
C2611 C 0.73601 0.60397 0.12291 0.0
N2612 N 0.73935 0.59962 0.05418 0.0
N2613 N 0.76029 0.63252 0.14842 0.0
H2614 H 0.70825 0.58244 0.14045 0.0
H2615 H 0.72717 0.5991 0.16115 0.0
H2616 H 0.77614 0.64327 0.15178 0.0
H2617 H 0.74684 0.63323 0.16242 0.0
H2618 H 0.7508 0.60476 0.03934 0.0
H2619 H 0.72091 0.59664 0.04895 0.0
H2620 H 0.78805 0.59718 0.05117 0.0
H2621 H 0.8076 0.61432 0.07098 0.0
C2622 C 0.8884 0.99225 0.12763 0.0
C2623 C 0.87802 0.96868 0.13315 0.0
C2624 C 0.83734 0.9889 0.13811 0.0
C2625 C 0.84935 0.0125 0.13937 0.0
N2626 N 0.88841 0.03531 0.14002 0.0
N2627 N 0.84166 0.94426 0.14369 0.0
C2628 C 0.87539 0.01404 0.13482 0.0
C2629 C 0.85206 0.96675 0.13787 0.0
N2630 N 0.91144 0.99364 0.11701 0.0
N2631 N 0.81198 0.98766 0.13702 0.0
H2632 H 0.85139 0.92749 0.14282 0.0
H2633 H 0.82359 0.94246 0.15053 0.0
H2634 H 0.8008 0.00357 0.13639 0.0
H2635 H 0.80233 0.97106 0.13407 0.0
H2636 H 0.91926 0.01042 0.11107 0.0
H2637 H 0.9213 0.97763 0.11185 0.0
H2638 H 0.90775 0.03628 0.1389 0.0
H2639 H 0.88058 0.05091 0.14855 0.0
C2640 C 0.37044 0.23917 0.11688 0.0
C2641 C 0.3897 0.22157 0.12034 0.0
C2642 C 0.41678 0.24502 0.09236 0.0
C2643 C 0.39732 0.26267 0.08809 0.0
N2644 N 0.35318 0.27069 0.08949 0.0
N2645 N 0.42696 0.20266 0.10399 0.0
C2646 C 0.3733 0.25794 0.09827 0.0
C2647 C 0.41126 0.22267 0.10528 0.0
N2648 N 0.34972 0.23823 0.13156 0.0
N2649 N 0.44102 0.2502 0.08649 0.0
H2650 H 0.42357 0.18602 0.11348 0.0
H2651 H 0.44184 0.20179 0.09152 0.0
H2652 H 0.44719 0.26706 0.07926 0.0
H2653 H 0.45575 0.23871 0.09178 0.0
H2654 H 0.33621 0.25219 0.13166 0.0
H2655 H 0.34685 0.22398 0.14452 0.0
H2656 H 0.33499 0.26693 0.09509 0.0
H2657 H 0.35456 0.2828 0.07434 0.0
C2658 C 0.50701 0.36488 0.13007 0.0
C2659 C 0.51703 0.3411 0.13617 0.0
C2660 C 0.48094 0.32097 0.11744 0.0
C2661 C 0.47313 0.34417 0.10759 0.0
N2662 N 0.47932 0.3884 0.10298 0.0
N2663 N 0.51621 0.29631 0.12976 0.0
C2664 C 0.48625 0.36631 0.11354 0.0
C2665 C 0.50471 0.31905 0.12829 0.0
N2666 N 0.51671 0.38586 0.1407 0.0
N2667 N 0.46545 0.30076 0.11666 0.0
H2668 H 0.5345 0.29402 0.13581 0.0
H2669 H 0.50863 0.2801 0.12214 0.0
H2670 H 0.44734 0.30183 0.10973 0.0
H2671 H 0.46955 0.28392 0.12547 0.0
H2672 H 0.50891 0.40353 0.13858 0.0
H2673 H 0.5312 0.38517 0.15358 0.0
H2674 H 0.48975 0.40471 0.10454 0.0
H2675 H 0.46381 0.38996 0.09138 0.0
C2676 C 0.6071 0.22217 0.13219 0.0
C2677 C 0.60576 0.2221 0.10564 0.0
C2678 C 0.6066 0.26782 0.10549 0.0
C2679 C 0.60805 0.26778 0.13201 0.0
N2680 N 0.61978 0.24517 0.16892 0.0
N2681 N 0.61382 0.24436 0.06749 0.0
C2682 C 0.61198 0.24497 0.14469 0.0
C2683 C 0.60888 0.24481 0.09247 0.0
N2684 N 0.60149 0.20137 0.14584 0.0
N2685 N 0.60112 0.28914 0.09267 0.0
H2686 H 0.61613 0.22769 0.05767 0.0
H2687 H 0.61825 0.26032 0.05731 0.0
H2688 H 0.59874 0.3065 0.10101 0.0
H2689 H 0.59701 0.2892 0.07368 0.0
H2690 H 0.59963 0.20174 0.16519 0.0
H2691 H 0.59618 0.18437 0.1382 0.0
H2692 H 0.62486 0.22901 0.17848 0.0
H2693 H 0.62383 0.26174 0.17834 0.0
C2694 C 0.48746 0.17911 0.13886 0.0
C2695 C 0.47489 0.15779 0.14854 0.0
C2696 C 0.50566 0.13059 0.1281 0.0
C2697 C 0.51852 0.15203 0.11967 0.0
N2698 N 0.52677 0.19595 0.12501 0.0
N2699 N 0.47617 0.11383 0.15804 0.0
C2700 C 0.51111 0.17603 0.12783 0.0
C2701 C 0.48525 0.13362 0.14488 0.0
N2702 N 0.47633 0.20209 0.13837 0.0
N2703 N 0.51235 0.10755 0.11955 0.0
H2704 H 0.46235 0.11588 0.17155 0.0
H2705 H 0.48416 0.09612 0.15757 0.0
H2706 H 0.52747 0.10482 0.10763 0.0
H2707 H 0.50196 0.09151 0.12298 0.0
H2708 H 0.48405 0.21735 0.12914 0.0
H2709 H 0.45824 0.20555 0.14433 0.0
H2710 H 0.52292 0.2136 0.13214 0.0
H2711 H 0.54479 0.19418 0.11796 0.0
C2712 C 0.38979 0.72387 0.36549 0.0
C2713 C 0.39299 0.72302 0.3918 0.0
C2714 C 0.39283 0.76881 0.39348 0.0
C2715 C 0.38979 0.7696 0.36716 0.0
N2716 N 0.37634 0.74837 0.32999 0.0
N2717 N 0.38862 0.74424 0.4312 0.0
C2718 C 0.385 0.7472 0.3539 0.0
C2719 C 0.39142 0.74541 0.4059 0.0
N2720 N 0.39337 0.70303 0.35122 0.0
N2721 N 0.39892 0.78985 0.40651 0.0
H2722 H 0.38694 0.72732 0.44071 0.0
H2723 H 0.38525 0.75989 0.44224 0.0
H2724 H 0.40022 0.80747 0.39848 0.0
H2725 H 0.40442 0.78951 0.42513 0.0
H2726 H 0.39386 0.70348 0.3318 0.0
H2727 H 0.39811 0.68567 0.35848 0.0
H2728 H 0.37058 0.73271 0.32002 0.0
H2729 H 0.3724 0.76533 0.32125 0.0
C2730 C -0.00017 0.365 0.84914 0.0
C2731 C 0.97752 0.36288 0.86326 0.0
C2732 C 0.00071 0.37607 0.90017 0.0
C2733 C 0.02317 0.37005 0.88791 0.0
N2734 N 0.04467 0.36096 0.84934 0.0
N2735 N 0.9574 0.36551 0.90396 0.0
C2736 C 0.02304 0.36581 0.86181 0.0
C2737 C 0.97785 0.36893 0.88916 0.0
N2738 N -0.00124 0.36638 0.82372 0.0
N2739 N 0.00157 0.38708 0.92311 0.0
H2740 H 0.9405 0.35846 0.89776 0.0
H2741 H 0.95797 0.36732 0.9233 0.0
H2742 H 0.01848 0.39192 0.9314 0.0
H2743 H 0.98578 0.39362 0.93234 0.0
H2744 H 0.01429 0.36983 0.8126 0.0
H2745 H 0.9819 0.36693 0.81407 0.0
H2746 H 0.04513 0.35423 0.83111 0.0
H2747 H 0.06215 0.36295 0.85742 0.0
C2748 C 0.60071 0.74293 0.40101 0.0
C2749 C 0.60005 0.76578 0.38763 0.0
C2750 C 0.60565 0.74242 0.34876 0.0
C2751 C 0.60044 0.71987 0.36154 0.0
N2752 N 0.59043 0.69907 0.40039 0.0
N2753 N 0.59832 0.78677 0.34756 0.0
C2754 C 0.59768 0.72007 0.38791 0.0
C2755 C 0.60202 0.76553 0.36117 0.0
N2756 N 0.60438 0.74309 0.42622 0.0
N2757 N 0.61374 0.74169 0.32461 0.0
H2758 H 0.59385 0.80396 0.35541 0.0
H2759 H 0.59705 0.78677 0.32817 0.0
H2760 H 0.61692 0.72492 0.31521 0.0
H2761 H 0.61983 0.75748 0.31505 0.0
H2762 H 0.60701 0.72688 0.43662 0.0
H2763 H 0.6076 0.7595 0.43618 0.0
H2764 H 0.5853 0.69921 0.41914 0.0
H2765 H 0.5875 0.68192 0.39176 0.0
C2766 C 0.96849 0.16762 0.86106 0.0
C2767 C 0.96332 0.14434 0.87227 0.0
C2768 C 0.00068 0.12707 0.85264 0.0
C2769 C 0.00856 0.15166 0.84649 0.0
N2770 N 0.00117 0.19628 0.85047 0.0
N2771 N 0.97442 0.10154 0.87937 0.0
C2772 C 0.99264 0.17225 0.85177 0.0
C2773 C 0.9793 0.12381 0.86808 0.0
N2774 N 0.9507 0.18581 0.86062 0.0
N2775 N 0.01309 0.10698 0.84316 0.0
H2776 H 0.95827 0.09863 0.88982 0.0
H2777 H 0.98683 0.0866 0.87924 0.0
H2778 H 0.02763 0.10897 0.83044 0.0
H2779 H 0.0072 0.08864 0.84567 0.0
H2780 H 0.95283 0.20247 0.85079 0.0
H2781 H 0.93293 0.183 0.86788 0.0
H2782 H 0.99067 0.21156 0.8563 0.0
H2783 H 0.01962 0.20097 0.84685 0.0
C2784 C 0.09373 0.39037 0.24563 0.0
C2785 C 0.10516 0.39415 0.26917 0.0
C2786 C 0.14535 0.38353 0.25064 0.0
C2787 C 0.13503 0.38582 0.22654 0.0
N2788 N 0.09857 0.39358 0.20097 0.0
N2789 N 0.14359 0.40013 0.2922 0.0
C2790 C 0.10888 0.38935 0.22386 0.0
C2791 C 0.13143 0.39186 0.2714 0.0
N2792 N 0.0685 0.38771 0.24406 0.0
N2793 N 0.16894 0.37454 0.2535 0.0
H2794 H 0.13478 0.40951 0.30676 0.0
H2795 H 0.16294 0.40063 0.2935 0.0
H2796 H 0.17946 0.36824 0.23836 0.0
H2797 H 0.17672 0.37091 0.27095 0.0
H2798 H 0.05944 0.38281 0.22759 0.0
H2799 H 0.05698 0.38779 0.25974 0.0
H2800 H 0.08023 0.39948 0.19867 0.0
H2801 H 0.1085 0.3929 0.18433 0.0
C2802 C 0.11149 0.61901 0.2657 0.0
C2803 C 0.13239 0.60305 0.2689 0.0
C2804 C 0.12403 0.58372 0.22838 0.0
C2805 C 0.10169 0.59754 0.22633 0.0
N2806 N 0.0723 0.62641 0.2441 0.0
N2807 N 0.15262 0.5643 0.25658 0.0
C2808 C 0.09475 0.61457 0.24541 0.0
C2809 C 0.137 0.58374 0.25118 0.0
N2810 N 0.10816 0.63886 0.28132 0.0
N2811 N 0.13315 0.57046 0.20855 0.0
H2812 H 0.16128 0.56197 0.27375 0.0
H2813 H 0.15435 0.5486 0.24521 0.0
H2814 H 0.12429 0.56928 0.19133 0.0
H2815 H 0.15084 0.56245 0.20854 0.0
H2816 H 0.09465 0.65251 0.27854 0.0
H2817 H 0.12023 0.64278 0.29603 0.0
H2818 H 0.06502 0.63714 0.25857 0.0
H2819 H 0.06024 0.62414 0.22901 0.0
C2820 C 0.85523 0.6439 0.00544 0.0
C2821 C 0.83211 0.649 0.01732 0.0
C2822 C 0.81045 0.63243 0.98078 0.0
C2823 C 0.83311 0.62257 0.97164 0.0
N2824 N 0.87748 0.61737 0.97631 0.0
N2825 N 0.78731 0.64249 0.01768 0.0
C2826 C 0.85574 0.62801 0.98411 0.0
C2827 C 0.80954 0.642 0.00529 0.0
N2828 N 0.87649 0.65491 0.01394 0.0
N2829 N 0.78974 0.63277 0.96599 0.0
H2830 H 0.78559 0.64667 0.03652 0.0
H2831 H 0.7709 0.63552 0.01002 0.0
H2832 H 0.78991 0.62661 0.94751 0.0
H2833 H 0.77336 0.64186 0.97113 0.0
H2834 H 0.89356 0.65337 0.00484 0.0
H2835 H 0.87636 0.66793 0.02839 0.0
H2836 H 0.89401 0.61867 0.98636 0.0
H2837 H 0.87856 0.60566 0.96081 0.0
C2838 C 0.86729 0.88673 0.22541 0.0
C2839 C 0.89321 0.89211 0.22568 0.0
C2840 C 0.89285 0.89147 0.27141 0.0
C2841 C 0.86693 0.88614 0.2709 0.0
N2842 N 0.83256 0.86894 0.24803 0.0
N2843 N 0.93181 0.89089 0.24855 0.0
C2844 C 0.85542 0.88004 0.24801 0.0
C2845 C 0.9064 0.89153 0.2486 0.0
N2846 N 0.85334 0.89043 0.20442 0.0
N2847 N 0.90432 0.89816 0.29313 0.0
H2848 H 0.9422 0.89017 0.23211 0.0
H2849 H 0.94234 0.88833 0.26467 0.0
H2850 H 0.89566 0.89767 0.31047 0.0
H2851 H 0.92225 0.90554 0.2937 0.0
H2852 H 0.83401 0.88887 0.20428 0.0
H2853 H 0.8604 0.89792 0.18797 0.0
H2854 H 0.82403 0.86239 0.23184 0.0
H2855 H 0.8236 0.86394 0.26459 0.0
C2856 C 0.67095 0.35654 0.47367 0.0
C2857 C 0.64756 0.36691 0.46755 0.0
C2858 C 0.62897 0.34446 0.50272 0.0
C2859 C 0.65326 0.33871 0.51167 0.0
N2860 N 0.69762 0.34591 0.50782 0.0
N2861 N 0.60393 0.37142 0.47617 0.0
C2862 C 0.67439 0.34611 0.49754 0.0
C2863 C 0.62631 0.36089 0.48191 0.0
N2864 N 0.69021 0.35771 0.45706 0.0
N2865 N 0.60863 0.33387 0.5137 0.0
H2866 H 0.60154 0.38272 0.46049 0.0
H2867 H 0.58827 0.36995 0.48754 0.0
H2868 H 0.61012 0.32095 0.52817 0.0
H2869 H 0.59062 0.33594 0.50685 0.0
H2870 H 0.70713 0.34864 0.45997 0.0
H2871 H 0.68821 0.36546 0.43934 0.0
H2872 H 0.71326 0.35306 0.4988 0.0
H2873 H 0.70061 0.34223 0.52658 0.0
C2874 C 0.40001 0.60296 0.75113 0.0
C2875 C 0.38671 0.60256 0.77393 0.0
C2876 C 0.34758 0.60566 0.75069 0.0
C2877 C 0.36061 0.6006 0.72826 0.0
N2878 N 0.39972 0.59164 0.70753 0.0
N2879 N 0.34697 0.60089 0.7954 0.0
C2880 C 0.38703 0.59889 0.72843 0.0
C2881 C 0.36024 0.60362 0.77381 0.0
N2882 N 0.42505 0.60731 0.75121 0.0
N2883 N 0.32313 0.6126 0.74986 0.0
H2884 H 0.35509 0.59871 0.81286 0.0
H2885 H 0.32773 0.59849 0.79571 0.0
H2886 H 0.31347 0.61482 0.73313 0.0
H2887 H 0.31332 0.61876 0.76547 0.0
H2888 H 0.43536 0.61012 0.73498 0.0
H2889 H 0.43496 0.61065 0.76762 0.0
H2890 H 0.41868 0.58758 0.70759 0.0
H2891 H 0.39113 0.5874 0.69065 0.0
C2892 C 0.8619 0.35363 0.52883 0.0
C2893 C 0.86572 0.37987 0.52882 0.0
C2894 C 0.86416 0.38052 0.48325 0.0
C2895 C 0.85916 0.35441 0.48312 0.0
N2896 N 0.86319 0.31525 0.50487 0.0
N2897 N 0.88097 0.41549 0.50651 0.0
C2898 C 0.86139 0.34066 0.50566 0.0
C2899 C 0.87083 0.39215 0.50606 0.0
N2900 N 0.85713 0.34123 0.55055 0.0
N2901 N 0.86029 0.39483 0.4625 0.0
H2902 H 0.88577 0.42422 0.52327 0.0
H2903 H 0.88696 0.42476 0.49051 0.0
H2904 H 0.85372 0.38795 0.44562 0.0
H2905 H 0.86122 0.41425 0.46277 0.0
H2906 H 0.85065 0.32292 0.55105 0.0
H2907 H 0.85863 0.34942 0.56807 0.0
H2908 H 0.8669 0.30438 0.52054 0.0
H2909 H 0.86377 0.30535 0.4881 0.0
C2910 C 0.12697 0.11178 0.50109 0.0
C2911 C 0.13412 0.12207 0.52423 0.0
C2912 C 0.14117 0.16221 0.50353 0.0
C2913 C 0.14036 0.15005 0.48001 0.0
N2914 N 0.13538 0.11112 0.45705 0.0
N2915 N 0.14921 0.15759 0.54763 0.0
C2916 C 0.13348 0.12436 0.47879 0.0
C2917 C 0.14106 0.14761 0.52567 0.0
N2918 N 0.11489 0.08938 0.50054 0.0
N2919 N 0.14178 0.18766 0.50472 0.0
H2920 H 0.14903 0.1479 0.56445 0.0
H2921 H 0.15756 0.1751 0.54879 0.0
H2922 H 0.14099 0.19887 0.48883 0.0
H2923 H 0.14037 0.19752 0.52142 0.0
H2924 H 0.10737 0.08182 0.48429 0.0
H2925 H 0.11013 0.07987 0.51687 0.0
H2926 H 0.133 0.09184 0.45622 0.0
H2927 H 0.14201 0.11841 0.44037 0.0
C2928 C 0.7648 0.63234 0.86799 0.0
C2929 C 0.76482 0.60652 0.87406 0.0
C2930 C 0.71972 0.60713 0.87991 0.0
C2931 C 0.72036 0.63358 0.87846 0.0
N2932 N 0.7403 0.67016 0.86208 0.0
N2933 N 0.74168 0.56836 0.87168 0.0
C2934 C 0.74196 0.64579 0.8694 0.0
C2935 C 0.74189 0.5936 0.87501 0.0
N2936 N 0.7864 0.64404 0.8615 0.0
N2937 N 0.69882 0.59501 0.8879 0.0
H2938 H 0.75796 0.55851 0.86756 0.0
H2939 H 0.72541 0.55789 0.87027 0.0
H2940 H 0.6821 0.60399 0.89182 0.0
H2941 H 0.69842 0.57601 0.89193 0.0
H2942 H 0.78852 0.66332 0.86082 0.0
H2943 H 0.80213 0.63431 0.85569 0.0
H2944 H 0.75474 0.68007 0.85378 0.0
H2945 H 0.72348 0.67993 0.86247 0.0
C2946 C 0.85715 0.99325 0.36319 0.0
C2947 C 0.85979 0.97598 0.34334 0.0
C2948 C 0.89027 0.00296 0.32312 0.0
C2949 C 0.88941 0.01959 0.34394 0.0
N2950 N 0.87509 0.02823 0.38575 0.0
N2951 N 0.88343 0.96109 0.30804 0.0
C2952 C 0.87363 0.01414 0.36456 0.0
C2953 C 0.87783 0.9798 0.32453 0.0
N2954 N 0.83873 0.98986 0.38042 0.0
N2955 N 0.9016 0.00966 0.30123 0.0
H2956 H 0.87459 0.94377 0.30812 0.0
H2957 H 0.89857 0.96184 0.2959 0.0
H2958 H 0.91011 0.02679 0.29808 0.0
H2959 H 0.90002 -0.00071 0.28486 0.0
H2960 H 0.83407 0.0031 0.39386 0.0
H2961 H 0.827 0.97434 0.38019 0.0
H2962 H 0.86578 0.02382 0.40221 0.0
H2963 H 0.88739 0.04316 0.38763 0.0
C2964 C 0.27742 0.89758 0.88372 0.0
C2965 C 0.27741 0.87155 0.87903 0.0
C2966 C 0.23201 0.87119 0.8773 0.0
C2967 C 0.23173 0.89704 0.88374 0.0
N2968 N 0.25388 0.93613 0.88187 0.0
N2969 N 0.25628 0.83696 0.8603 0.0
C2970 C 0.25441 0.91069 0.88311 0.0
C2971 C 0.25513 0.85978 0.87153 0.0
N2972 N 0.29884 0.9095 0.89037 0.0
N2973 N 0.21111 0.85675 0.87898 0.0
H2974 H 0.27331 0.82836 0.85641 0.0
H2975 H 0.24079 0.82812 0.85264 0.0
H2976 H 0.19369 0.86322 0.88432 0.0
H2977 H 0.21152 0.83739 0.8772 0.0
H2978 H 0.29913 0.92768 0.89728 0.0
H2979 H 0.31622 0.90094 0.88987 0.0
H2980 H 0.2698 0.94699 0.87964 0.0
H2981 H 0.23723 0.94603 0.88015 0.0
C2982 C 0.11938 0.49266 0.31943 0.0
C2983 C 0.11371 0.48082 0.34235 0.0
C2984 C 0.1391 0.51206 0.36406 0.0
C2985 C 0.14069 0.52601 0.34153 0.0
N2986 N 0.12445 0.53259 0.29997 0.0
N2987 N 0.11644 0.48034 0.38723 0.0
C2988 C 0.12871 0.51713 0.31976 0.0
C2989 C 0.12321 0.49069 0.36498 0.0
N2990 N 0.11598 0.4805 0.29728 0.0
N2991 N 0.15312 0.51872 0.38421 0.0
H2992 H 0.10502 0.46465 0.38842 0.0
H2993 H 0.12072 0.48834 0.4044 0.0
H2994 H 0.16531 0.53386 0.38395 0.0
H2995 H 0.15433 0.50793 0.40031 0.0
H2996 H 0.12155 0.48806 0.28024 0.0
H2997 H 0.11043 0.46186 0.29628 0.0
H2998 H 0.11421 0.52712 0.28438 0.0
H2999 H 0.12794 0.5517 0.30073 0.0
C3000 C 0.75547 0.38096 0.61724 0.0
C3001 C 0.77448 0.37895 0.59905 0.0
C3002 C 0.75078 0.34734 0.57668 0.0
C3003 C 0.73223 0.3477 0.59581 0.0
N3004 N 0.71982 0.36132 0.63695 0.0
N3005 N 0.7935 0.35566 0.56557 0.0
C3006 C 0.73535 0.36357 0.61689 0.0
C3007 C 0.77319 0.36058 0.58022 0.0
N3008 N 0.75648 0.39966 0.63452 0.0
N3009 N 0.74663 0.33585 0.55426 0.0
H3010 H 0.81032 0.36521 0.56723 0.0
H3011 H 0.79446 0.34042 0.55352 0.0
H3012 H 0.73044 0.32641 0.54964 0.0
H3013 H 0.75837 0.33797 0.53892 0.0
H3014 H 0.74188 0.40385 0.64661 0.0
H3015 H 0.77147 0.41199 0.63566 0.0
H3016 H 0.72252 0.37081 0.65368 0.0
H3017 H 0.70558 0.34813 0.63779 0.0
C3018 C 0.64786 0.99788 0.63463 0.0
C3019 C 0.63585 0.9744 0.63662 0.0
C3020 C 0.59607 0.99499 0.62883 0.0
C3021 C 0.60714 0.01832 0.63419 0.0
N3022 N 0.64458 0.04223 0.64207 0.0
N3023 N 0.59709 0.95111 0.63819 0.0
C3024 C 0.63343 0.02005 0.63643 0.0
C3025 C 0.60959 0.97287 0.63375 0.0
N3026 N 0.67302 -0.0011 0.63117 0.0
N3027 N 0.57222 0.99411 0.62015 0.0
H3028 H 0.60566 0.93471 0.64398 0.0
H3029 H 0.57773 0.95005 0.63872 0.0
H3030 H 0.56207 0.01031 0.61643 0.0
H3031 H 0.56378 0.97764 0.61419 0.0
H3032 H 0.68254 0.01545 0.62761 0.0
H3033 H 0.68388 0.98285 0.62935 0.0
H3034 H 0.66326 0.04363 0.64709 0.0
H3035 H 0.63506 0.0591 0.64307 0.0
C3036 C 0.23431 0.11767 0.61895 0.0
C3037 C 0.22322 0.11308 0.59533 0.0
C3038 C 0.25832 0.13288 0.5746 0.0
C3039 C 0.26777 0.14072 0.59795 0.0
N3040 N 0.26388 0.1426 0.64267 0.0
N3041 N 0.22118 0.12376 0.55146 0.0
C3042 C 0.25555 0.13367 0.62034 0.0
C3043 C 0.23419 0.1229 0.57337 0.0
N3044 N 0.22517 0.10616 0.63974 0.0
N3045 N 0.27272 0.1341 0.55359 0.0
H3046 H 0.20251 0.11862 0.55005 0.0
H3047 H 0.22801 0.13244 0.53547 0.0
H3048 H 0.29118 0.1401 0.55381 0.0
H3049 H 0.26719 0.12646 0.53658 0.0
H3050 H 0.23383 0.107 0.65708 0.0
H3051 H 0.20995 0.09411 0.63916 0.0
H3052 H 0.25432 0.14013 0.65939 0.0
H3053 H 0.27958 0.15396 0.64412 0.0
C3054 C 0.36262 0.46978 0.65408 0.0
C3055 C 0.38437 0.47159 0.63934 0.0
C3056 C 0.37099 0.51318 0.62622 0.0
C3057 C 0.35346 0.51397 0.6462 0.0
N3058 N 0.33714 0.49258 0.68297 0.0
N3059 N 0.40972 0.49543 0.61111 0.0
C3060 C 0.35006 0.49201 0.66098 0.0
C3061 C 0.3887 0.49344 0.62525 0.0
N3062 N 0.35474 0.44714 0.66266 0.0
N3063 N 0.37004 0.53045 0.60759 0.0
H3064 H 0.42225 0.48068 0.60905 0.0
H3065 H 0.41513 0.51204 0.60257 0.0
H3066 H 0.35553 0.54322 0.60622 0.0
H3067 H 0.38146 0.52977 0.59188 0.0
H3068 H 0.33778 0.44474 0.6718 0.0
H3069 H 0.3638 0.43049 0.65836 0.0
H3070 H 0.33444 0.47693 0.69414 0.0
H3071 H 0.33238 0.50892 0.69229 0.0
C3072 C 0.88304 0.74427 0.64615 0.0
C3073 C 0.88758 0.72167 0.63326 0.0
C3074 C 0.88819 0.74508 0.59405 0.0
C3075 C 0.89056 0.76768 0.60774 0.0
N3076 N 0.893 0.78804 0.64814 0.0
N3077 N 0.89442 0.70033 0.59414 0.0
C3078 C 0.8881 0.76728 0.63415 0.0
C3079 C 0.88955 0.72185 0.60687 0.0
N3080 N 0.87495 0.74356 0.67029 0.0
N3081 N 0.88462 0.74587 0.56885 0.0
H3082 H 0.89491 0.68287 0.60263 0.0
H3083 H 0.89924 0.70002 0.57531 0.0
H3084 H 0.88294 0.76265 0.55912 0.0
H3085 H 0.88076 0.73009 0.55818 0.0
H3086 H 0.86953 0.75946 0.68011 0.0
H3087 H 0.87118 0.72672 0.67934 0.0
H3088 H 0.89396 0.78768 0.66755 0.0
H3089 H 0.89873 0.80498 0.64064 0.0
C3090 C 0.99649 0.8616 0.65226 0.0
C3091 C 0.01935 0.86055 0.639 0.0
C3092 C 0.99595 0.86501 0.60009 0.0
C3093 C 0.97378 0.85869 0.61288 0.0
N3094 N 0.95307 0.85005 0.65211 0.0
N3095 N 0.04037 0.85974 0.59869 0.0
C3096 C 0.97384 0.85729 0.63932 0.0
C3097 C 0.01913 0.8625 0.61247 0.0
N3098 N 0.99653 0.86649 0.67726 0.0
N3099 N 0.99478 0.87283 0.57588 0.0
H3100 H 0.05799 0.85702 0.60614 0.0
H3101 H 0.0402 0.858 0.57933 0.0
H3102 H 0.97786 0.87502 0.56656 0.0
H3103 H 0.01016 0.8797 0.56622 0.0
H3104 H 0.9803 0.86923 0.68756 0.0
H3105 H 0.01289 0.87058 0.68693 0.0
H3106 H 0.9533 0.84581 0.67108 0.0
H3107 H 0.93602 0.84648 0.64364 0.0
C3108 C 0.09644 0.77503 0.60635 0.0
C3109 C 0.1014 0.77465 0.63241 0.0
C3110 C 0.10053 0.72905 0.63211 0.0
C3111 C 0.09649 0.72929 0.60588 0.0
N3112 N 0.09889 0.75236 0.56732 0.0
N3113 N 0.11663 0.7516 0.66774 0.0
C3114 C 0.09721 0.75226 0.59274 0.0
C3115 C 0.10651 0.75169 0.64439 0.0
N3116 N 0.08923 0.79655 0.59476 0.0
N3117 N 0.09661 0.7079 0.64582 0.0
H3118 H 0.12147 0.76805 0.677 0.0
H3119 H 0.12265 0.73536 0.67656 0.0
H3120 H 0.09015 0.6912 0.6383 0.0
H3121 H 0.097 0.70773 0.66525 0.0
H3122 H 0.08254 0.79692 0.57652 0.0
H3123 H 0.08794 0.81373 0.60371 0.0
H3124 H 0.10165 0.7686 0.55699 0.0
H3125 H 0.10033 0.73601 0.55683 0.0
C3126 C 0.02532 0.63599 0.64284 0.0
C3127 C 0.02514 0.63158 0.61675 0.0
C3128 C 0.9797 0.63219 0.61641 0.0
C3129 C 0.97964 0.63777 0.64236 0.0
N3130 N 0.00171 0.63527 0.68144 0.0
N3131 N 0.00298 0.61475 0.58178 0.0
C3132 C 0.00229 0.63634 0.65599 0.0
C3133 C 0.00248 0.62548 0.60486 0.0
N3134 N 0.04703 0.64149 0.65483 0.0
N3135 N 0.95897 0.63578 0.60212 0.0
H3136 H 0.01975 0.61008 0.57306 0.0
H3137 H 0.98705 0.60825 0.5728 0.0
H3138 H 0.94233 0.64298 0.60897 0.0
H3139 H 0.9591 0.63422 0.58275 0.0
H3140 H 0.04766 0.64828 0.67304 0.0
H3141 H 0.06439 0.64015 0.64633 0.0
H3142 H 0.01751 0.63225 0.69228 0.0
H3143 H 0.98506 0.63465 0.69146 0.0
C3144 C 0.89371 0.27267 0.89929 0.0
C3145 C 0.88974 0.27462 0.8732 0.0
C3146 C 0.88549 0.22931 0.86998 0.0
C3147 C 0.88962 0.22718 0.89611 0.0
N3148 N 0.88895 0.24717 0.93636 0.0
N3149 N 0.87303 0.25621 0.8359 0.0
C3150 C 0.89076 0.24904 0.91102 0.0
C3151 C 0.88244 0.25335 0.85939 0.0
N3152 N 0.9019 0.29277 0.91262 0.0
N3153 N 0.88659 0.20885 0.8548 0.0
H3154 H 0.87045 0.27377 0.82786 0.0
H3155 H 0.86537 0.24155 0.8257 0.0
H3156 H 0.8899 0.19086 0.8612 0.0
H3157 H 0.8866 0.21004 0.83541 0.0
H3158 H 0.90803 0.29146 0.931 0.0
H3159 H 0.90417 0.31044 0.90487 0.0
H3160 H 0.88765 0.26262 0.94809 0.0
H3161 H 0.88626 0.2301 0.94534 0.0
C3162 C 0.47802 0.86003 0.38524 0.0
C3163 C 0.47748 0.85581 0.359 0.0
C3164 C 0.52315 0.85677 0.35781 0.0
C3165 C 0.52351 0.85991 0.38413 0.0
N3166 N 0.50208 0.87552 0.4202 0.0
N3167 N 0.49903 0.86083 0.31984 0.0
C3168 C 0.50111 0.86569 0.39674 0.0
C3169 C 0.49994 0.85782 0.34512 0.0
N3170 N 0.45741 0.85637 0.39975 0.0
N3171 N 0.5444 0.85113 0.34501 0.0
H3172 H 0.48224 0.86265 0.31022 0.0
H3173 H 0.51474 0.86438 0.30901 0.0
H3174 H 0.56201 0.85112 0.35302 0.0
H3175 H 0.54432 0.84531 0.32646 0.0
H3176 H 0.45802 0.85671 0.41917 0.0
H3177 H 0.44025 0.85056 0.39301 0.0
H3178 H 0.48638 0.88192 0.42968 0.0
H3179 H 0.51901 0.8797 0.42883 0.0
C3180 C 0.10105 0.27405 0.86602 0.0
C3181 C 0.09733 0.27364 0.89227 0.0
C3182 C 0.09464 0.22796 0.89114 0.0
C3183 C 0.09906 0.22844 0.86499 0.0
N3184 N 0.11563 0.25114 0.82995 0.0
N3185 N 0.09942 0.24987 0.93039 0.0
C3186 C 0.10557 0.25127 0.85335 0.0
C3187 C 0.0971 0.25044 0.90503 0.0
N3188 N 0.09815 0.29559 0.8527 0.0
N3189 N 0.0864 0.20676 0.90261 0.0
H3190 H 0.1022 0.26599 0.94096 0.0
H3191 H 0.10141 0.23335 0.94044 0.0
H3192 H 0.08387 0.18984 0.89345 0.0
H3193 H 0.08014 0.20653 0.92102 0.0
H3194 H 0.09834 0.29603 0.83327 0.0
H3195 H 0.09277 0.31249 0.86062 0.0
H3196 H 0.12252 0.26717 0.82137 0.0
H3197 H 0.11959 0.23459 0.82045 0.0
C3198 C 0.4942 0.62845 0.34339 0.0
C3199 C 0.51704 0.63083 0.35649 0.0
C3200 C 0.49457 0.62256 0.39529 0.0
C3201 C 0.47188 0.62797 0.38312 0.0
N3202 N 0.44978 0.63549 0.34455 0.0
N3203 N 0.53845 0.63134 0.39654 0.0
C3204 C 0.47141 0.63011 0.35675 0.0
C3205 C 0.51733 0.62749 0.38286 0.0
N3206 N 0.49439 0.62468 0.3182 0.0
N3207 N 0.49418 0.61383 0.4192 0.0
H3208 H 0.55558 0.63622 0.38902 0.0
H3209 H 0.53843 0.6319 0.41597 0.0
H3210 H 0.47748 0.61025 0.42853 0.0
H3211 H 0.51008 0.6077 0.42849 0.0
H3212 H 0.47835 0.62105 0.30791 0.0
H3213 H 0.51092 0.62239 0.30821 0.0
H3214 H 0.44922 0.64052 0.32579 0.0
H3215 H 0.43253 0.63617 0.35336 0.0
C3216 C 0.63032 0.88677 0.76673 0.0
C3217 C 0.60426 0.8919 0.76686 0.0
C3218 C 0.60449 0.89342 0.72111 0.0
C3219 C 0.63044 0.88846 0.72128 0.0
N3220 N 0.66529 0.87088 0.74299 0.0
N3221 N 0.56563 0.89134 0.74405 0.0
C3222 C 0.64221 0.8815 0.74374 0.0
C3223 C 0.59101 0.89226 0.74395 0.0
N3224 N 0.64441 0.88937 0.78781 0.0
N3225 N 0.59298 0.90086 0.69967 0.0
H3226 H 0.55533 0.88979 0.7605 0.0
H3227 H 0.55509 0.88942 0.72786 0.0
H3228 H 0.60193 0.9014 0.68245 0.0
H3229 H 0.57486 0.90779 0.69931 0.0
H3230 H 0.66376 0.88821 0.78767 0.0
H3231 H 0.63755 0.89549 0.80489 0.0
H3232 H 0.67403 0.86354 0.75872 0.0
H3233 H 0.67429 0.86704 0.72614 0.0
C3234 C 0.5986 0.11776 0.7367 0.0
C3235 C 0.59335 0.09264 0.72973 0.0
C3236 C 0.60889 0.07866 0.77012 0.0
C3237 C 0.61891 0.10257 0.77463 0.0
N3238 N 0.62456 0.14514 0.76185 0.0
N3239 N 0.60071 0.04865 0.73797 0.0
C3240 C 0.61405 0.12233 0.75786 0.0
C3241 C 0.60017 0.07287 0.74604 0.0
N3242 N 0.58828 0.1371 0.72379 0.0
N3243 N 0.60868 0.06111 0.78857 0.0
H3244 H 0.59771 0.04346 0.71949 0.0
H3245 H 0.60762 0.03411 0.74887 0.0
H3246 H 0.6151 0.06483 0.80656 0.0
H3247 H 0.59977 0.04393 0.7866 0.0
H3248 H 0.59009 0.15567 0.72925 0.0
H3249 H 0.57578 0.13441 0.70917 0.0
H3250 H 0.62389 0.15957 0.74885 0.0
H3251 H 0.635 0.14902 0.77781 0.0
C3252 C 0.35652 0.10305 0.49997 0.0
C3253 C 0.3522 0.11464 0.47664 0.0
C3254 C 0.35377 0.15524 0.49783 0.0
C3255 C 0.35138 0.14319 0.52131 0.0
N3256 N 0.34606 0.10393 0.54356 0.0
N3257 N 0.3442 0.15301 0.45392 0.0
C3258 C 0.35201 0.11661 0.52225 0.0
C3259 C 0.35056 0.14115 0.47554 0.0
N3260 N 0.36445 0.07885 0.50085 0.0
N3261 N 0.35922 0.1801 0.4968 0.0
H3262 H 0.34095 0.14387 0.43714 0.0
H3263 H 0.34004 0.172 0.45323 0.0
H3264 H 0.3627 0.19068 0.51277 0.0
H3265 H 0.36311 0.18935 0.48015 0.0
H3266 H 0.36971 0.07013 0.51741 0.0
H3267 H 0.36845 0.06866 0.48473 0.0
H3268 H 0.34411 0.08458 0.54401 0.0
H3269 H 0.34008 0.1124 0.55995 0.0
C3270 C 0.36499 0.42697 0.75053 0.0
C3271 C 0.36163 0.40478 0.76486 0.0
C3272 C 0.39589 0.38475 0.74172 0.0
C3273 C 0.39791 0.40634 0.72659 0.0
N3274 N 0.38186 0.44639 0.71364 0.0
N3275 N 0.37174 0.36165 0.77245 0.0
C3276 C 0.38184 0.42699 0.73028 0.0
C3277 C 0.37663 0.38342 0.76013 0.0
N3278 N 0.35259 0.44849 0.75652 0.0
N3279 N 0.41267 0.36582 0.73871 0.0
H3280 H 0.35768 0.36007 0.78578 0.0
H3281 H 0.3803 0.34473 0.76834 0.0
H3282 H 0.42658 0.36629 0.72512 0.0
H3283 H 0.41391 0.35049 0.75054 0.0
H3284 H 0.35742 0.46599 0.74962 0.0
H3285 H 0.33877 0.4499 0.76997 0.0
H3286 H 0.36891 0.46075 0.71371 0.0
H3287 H 0.39351 0.4474 0.69818 0.0
C3288 C 0.1424 0.89537 0.99618 0.0
C3289 C 0.14739 0.88407 0.97278 0.0
C3290 C 0.14456 0.84302 0.99287 0.0
C3291 C 0.14523 0.85462 0.01667 0.0
N3292 N 0.14959 0.89292 0.04043 0.0
N3293 N 0.15614 0.84632 0.94943 0.0
C3294 C 0.14504 0.88111 0.0183 0.0
C3295 C 0.14888 0.85761 0.97111 0.0
N3296 N 0.13534 0.91983 0.99728 0.0
N3297 N 0.13979 0.81805 0.99108 0.0
H3298 H 0.16039 0.85603 0.93317 0.0
H3299 H 0.1601 0.82732 0.94822 0.0
H3300 H 0.13587 0.80707 0.00667 0.0
H3301 H 0.13703 0.80897 0.97411 0.0
H3302 H 0.1295 0.92838 0.01375 0.0
H3303 H 0.13262 0.93061 0.9813 0.0
H3304 H 0.15207 0.91216 0.04178 0.0
H3305 H 0.15375 0.88359 0.05692 0.0
C3306 C 0.86771 0.07189 0.23427 0.0
C3307 C 0.86133 0.09389 0.22115 0.0
C3308 C 0.88603 0.11829 0.25103 0.0
C3309 C 0.88889 0.09648 0.2658 0.0
N3310 N 0.87426 0.05494 0.27512 0.0
N3311 N 0.86259 0.13874 0.21797 0.0
C3312 C 0.87741 0.07394 0.25846 0.0
C3313 C 0.87011 0.11741 0.22964 0.0
N3314 N 0.86465 0.04894 0.22356 0.0
N3315 N 0.89866 0.1395 0.25718 0.0
H3316 H 0.85121 0.13853 0.20223 0.0
H3317 H 0.86636 0.15654 0.22479 0.0
H3318 H 0.91006 0.14061 0.27289 0.0
H3319 H 0.89914 0.15529 0.24588 0.0
H3320 H 0.8704 0.03248 0.23217 0.0
H3321 H 0.85906 0.04665 0.20506 0.0
H3322 H 0.86415 0.03886 0.27098 0.0
H3323 H 0.87879 0.0568 0.29394 0.0
C3324 C 0.34717 0.85998 0.02403 0.0
C3325 C 0.35231 0.88599 0.02471 0.0
C3326 C 0.35299 0.88725 0.97906 0.0
C3327 C 0.34853 0.86109 0.97836 0.0
N3328 N 0.3498 0.82172 0.00012 0.0
N3329 N 0.36788 0.9223 0.00345 0.0
C3330 C 0.34845 0.84717 0.00086 0.0
C3331 C 0.35803 0.89883 0.00234 0.0
N3332 N 0.33924 0.84771 0.04492 0.0
N3333 N 0.35045 0.90147 0.95805 0.0
H3334 H 0.37193 0.93105 0.02037 0.0
H3335 H 0.37441 0.93182 0.98782 0.0
H3336 H 0.34479 0.89435 0.9409 0.0
H3337 H 0.35149 0.92087 0.95817 0.0
H3338 H 0.33236 0.82954 0.04448 0.0
H3339 H 0.33755 0.8561 0.06235 0.0
H3340 H 0.35199 0.81079 0.01603 0.0
H3341 H 0.35152 0.81178 0.98346 0.0
C3342 C 0.64012 0.6093 0.97279 0.0
C3343 C 0.64144 0.63575 0.97296 0.0
C3344 C 0.64171 0.63583 0.01863 0.0
C3345 C 0.64047 0.60931 0.0185 0.0
N3346 N 0.62893 0.57215 0.99593 0.0
N3347 N 0.63406 0.67391 0.99547 0.0
C3348 C 0.63635 0.59653 0.99567 0.0
C3349 C 0.63893 0.64889 0.99576 0.0
N3350 N 0.64428 0.59616 0.95133 0.0
N3351 N 0.64743 0.64861 0.03993 0.0
H3352 H 0.63161 0.68381 0.97888 0.0
H3353 H 0.62995 0.68411 0.0115 0.0
H3354 H 0.6506 0.64015 0.05708 0.0
H3355 H 0.65114 0.6677 0.04012 0.0
H3356 H 0.64598 0.57681 0.95092 0.0
H3357 H 0.64815 0.60449 0.93423 0.0
H3358 H 0.62373 0.56249 0.97989 0.0
H3359 H 0.62534 0.56257 0.01249 0.0
C3360 C 0.24407 0.25212 0.48444 0.0
C3361 C 0.22605 0.23302 0.48723 0.0
C3362 C 0.25311 0.21024 0.51542 0.0
C3363 C 0.27086 0.22977 0.51369 0.0
N3364 N 0.28215 0.27102 0.50002 0.0
N3365 N 0.21031 0.1977 0.51022 0.0
C3366 C 0.26599 0.25137 0.4993 0.0
C3367 C 0.22947 0.21351 0.50459 0.0
N3368 N 0.24047 0.27043 0.46712 0.0
N3369 N 0.25941 0.18777 0.52575 0.0
H3370 H 0.19272 0.19927 0.50223 0.0
H3371 H 0.21114 0.18466 0.52461 0.0
H3372 H 0.27708 0.18376 0.53267 0.0
H3373 H 0.24799 0.17211 0.52487 0.0
H3374 H 0.25406 0.28332 0.46207 0.0
H3375 H 0.22393 0.27207 0.4571 0.0
H3376 H 0.27857 0.2882 0.4917 0.0
H3377 H 0.29852 0.27066 0.51048 0.0
C3378 C 0.47342 0.53122 0.73943 0.0
C3379 C 0.47869 0.52665 0.76505 0.0
C3380 C 0.49748 0.48636 0.7538 0.0
C3381 C 0.48806 0.48948 0.72942 0.0
N3382 N 0.48281 0.51971 0.69678 0.0
N3383 N 0.49932 0.50175 0.79635 0.0
C3384 C 0.48123 0.51359 0.72143 0.0
C3385 C 0.49221 0.50489 0.77212 0.0
N3386 N 0.45899 0.55096 0.73229 0.0
N3387 N 0.51247 0.46639 0.75875 0.0
H3388 H 0.49745 0.51578 0.80962 0.0
H3389 H 0.50672 0.48532 0.80351 0.0
H3390 H 0.51838 0.45435 0.74462 0.0
H3391 H 0.5211 0.46312 0.77579 0.0
H3392 H 0.45258 0.55324 0.71409 0.0
H3393 H 0.45123 0.56368 0.74472 0.0
H3394 H 0.47974 0.53773 0.69014 0.0
H3395 H 0.4906 0.50755 0.68371 0.0
C3396 C 0.71643 0.25943 0.48633 0.0
C3397 C 0.71983 0.24861 0.51001 0.0
C3398 C 0.76486 0.25256 0.50491 0.0
C3399 C 0.76043 0.2705 0.48595 0.0
N3400 N 0.73111 0.29152 0.45859 0.0
N3401 N 0.74704 0.22813 0.5388 0.0
C3402 C 0.73605 0.27368 0.47611 0.0
C3403 C 0.74416 0.24244 0.51797 0.0
N3404 N 0.69447 0.2564 0.47399 0.0
N3405 N 0.78865 0.24533 0.51024 0.0
H3406 H 0.73176 0.21976 0.54751 0.0
H3407 H 0.76402 0.22499 0.54756 0.0
H3408 H 0.80402 0.25216 0.50048 0.0
H3409 H 0.79305 0.23118 0.52277 0.0
H3410 H 0.69156 0.26287 0.4559 0.0
H3411 H 0.68063 0.24451 0.48073 0.0
H3412 H 0.71307 0.29599 0.453 0.0
H3413 H 0.74454 0.3035 0.45133 0.0
C3414 C 0.49486 0.01093 0.75335 0.0
C3415 C 0.50377 0.00703 0.72889 0.0
C3416 C 0.51218 0.96335 0.73777 0.0
C3417 C 0.50898 0.96862 0.7636 0.0
N3418 N 0.49155 0.99496 0.79558 0.0
N3419 N 0.50443 0.97723 0.69547 0.0
C3420 C 0.49808 0.99161 0.77122 0.0
C3421 C 0.50692 0.98235 0.72027 0.0
N3422 N 0.48244 0.03246 0.75886 0.0
N3423 N 0.52231 0.94132 0.72992 0.0
H3424 H 0.49891 0.99091 0.68279 0.0
H3425 H 0.50463 0.95918 0.68822 0.0
H3426 H 0.52643 0.92654 0.74173 0.0
H3427 H 0.52806 0.93824 0.71161 0.0
H3428 H 0.47474 0.03657 0.77618 0.0
H3429 H 0.47749 0.04517 0.74497 0.0
H3430 H 0.48611 0.01194 0.80326 0.0
H3431 H 0.49151 0.98025 0.80822 0.0
C3432 C 0.23575 0.75222 0.00707 0.0
C3433 C 0.2119 0.76168 0.00128 0.0
C3434 C 0.22852 0.78584 0.96692 0.0
C3435 C 0.25296 0.77899 0.97452 0.0
N3436 N 0.27926 0.74899 0.99528 0.0
N3437 N 0.18485 0.77472 0.96809 0.0
C3438 C 0.25641 0.75978 0.99241 0.0
C3439 C 0.20802 0.77395 0.9784 0.0
N3440 N 0.23849 0.73725 0.02745 0.0
N3441 N 0.22461 0.80498 0.95054 0.0
H3442 H 0.17002 0.76467 0.9756 0.0
H3443 H 0.18135 0.78233 0.95056 0.0
H3444 H 0.23883 0.81542 0.94251 0.0
H3445 H 0.20696 0.81207 0.94671 0.0
H3446 H 0.25563 0.73191 0.03473 0.0
H3447 H 0.22307 0.73069 0.03734 0.0
H3448 H 0.28257 0.73377 0.00686 0.0
H3449 H 0.29453 0.75392 0.98429 0.0
C3450 C 0.99287 0.49214 0.26526 0.0
C3451 C 0.00585 0.47094 0.25607 0.0
C3452 C 0.00635 0.49005 0.21487 0.0
C3453 C 0.00224 0.51353 0.22621 0.0
N3454 N 0.98191 0.53582 0.25933 0.0
N3455 N 0.02398 0.44916 0.22071 0.0
C3456 C 0.99215 0.51423 0.25057 0.0
C3457 C 0.01168 0.46932 0.23028 0.0
N3458 N 0.98096 0.4907 0.28768 0.0
N3459 N 0.00493 0.48763 0.18959 0.0
H3460 H 0.02866 0.43347 0.23111 0.0
H3461 H 0.03105 0.44884 0.20259 0.0
H3462 H -0.001 0.50234 0.17829 0.0
H3463 H 0.00628 0.47047 0.18051 0.0
H3464 H 0.97037 0.50501 0.29538 0.0
H3465 H 0.97965 0.47389 0.29728 0.0
H3466 H 0.97678 0.53871 0.27783 0.0
H3467 H 0.97816 0.55084 0.24753 0.0
C3468 C 0.73066 0.74192 0.99498 0.0
C3469 C 0.71539 0.7205 0.99287 0.0
C3470 C 0.73672 0.70069 0.02774 0.0
C3471 C 0.75198 0.72229 0.03019 0.0
N3472 N 0.75994 0.76536 0.0203 0.0
N3473 N 0.69904 0.68273 0.01102 0.0
C3474 C 0.74775 0.74358 0.01513 0.0
C3475 C 0.71668 0.70111 0.01071 0.0
N3476 N 0.72938 0.76022 0.97733 0.0
N3477 N 0.74246 0.67897 0.03987 0.0
H3478 H 0.68452 0.68184 -0.00179 0.0
H3479 H 0.69748 0.66969 0.02534 0.0
H3480 H 0.7573 0.67689 0.05208 0.0
H3481 H 0.73387 0.66198 0.03602 0.0
H3482 H 0.742 0.7749 0.97608 0.0
H3483 H 0.71622 0.76001 0.96308 0.0
H3484 H 0.75614 0.7822 0.0114 0.0
H3485 H 0.77238 0.76706 0.03514 0.0
C3486 C 0.99652 0.01677 0.25375 0.0
C3487 C 0.97763 0.03523 0.25397 0.0
C3488 C 0.95016 0.00812 0.2301 0.0
C3489 C 0.96938 0.99003 0.22865 0.0
N3490 N 0.01226 0.97853 0.23521 0.0
N3491 N 0.93942 0.05133 0.23634 0.0
C3492 C 0.99309 0.99478 0.23925 0.0
C3493 C 0.95558 0.03195 0.23988 0.0
N3494 N 0.0173 0.02 0.26804 0.0
N3495 N 0.92621 0.00199 0.22399 0.0
H3496 H 0.94252 0.06925 0.24311 0.0
H3497 H 0.92427 0.05033 0.22426 0.0
H3498 H 0.92082 0.98419 0.21829 0.0
H3499 H 0.91112 0.01369 0.22741 0.0
H3500 H 0.03043 0.00606 0.27113 0.0
H3501 H 0.02079 0.03656 0.2777 0.0
H3502 H 0.03056 0.98215 0.24044 0.0
H3503 H 0.01019 0.96212 0.22496 0.0
C3504 C 0.49354 0.22669 0.21168 0.0
C3505 C 0.47433 0.22944 0.22951 0.0
C3506 C 0.49351 0.2681 0.2443 0.0
C3507 C 0.5097 0.2675 0.22337 0.0
N3508 N 0.51997 0.249 0.18333 0.0
N3509 N 0.45514 0.25269 0.26274 0.0
C3510 C 0.50861 0.24743 0.20613 0.0
C3511 C 0.47413 0.25008 0.246 0.0
N3512 N 0.49706 0.20458 0.19948 0.0
N3513 N 0.49683 0.28562 0.2625 0.0
H3514 H 0.44147 0.23906 0.2651 0.0
H3515 H 0.45238 0.26872 0.27338 0.0
H3516 H 0.51105 0.29887 0.26177 0.0
H3517 H 0.48693 0.28569 0.2792 0.0
H3518 H 0.51224 0.20133 0.18779 0.0
H3519 H 0.48669 0.18863 0.20322 0.0
H3520 H 0.51727 0.2358 0.16935 0.0
H3521 H 0.52932 0.26479 0.17698 0.0
C3522 C 0.50692 0.2696 0.03359 0.0
C3523 C 0.48948 0.26658 0.01386 0.0
C3524 C 0.51635 0.23539 0.99429 0.0
C3525 C 0.53341 0.23842 0.01415 0.0
N3526 N 0.54929 0.26394 0.04752 0.0
N3527 N 0.47973 0.25113 0.97285 0.0
C3528 C 0.53029 0.25773 0.03178 0.0
C3529 C 0.49496 0.25098 0.99323 0.0
N3530 N 0.50044 0.28168 0.05514 0.0
N3531 N 0.52028 0.21701 0.97709 0.0
H3532 H 0.46395 0.26243 0.97176 0.0
H3533 H 0.48372 0.24164 0.95637 0.0
H3534 H 0.5367 0.20662 0.97672 0.0
H3535 H 0.50722 0.2117 0.96379 0.0
H3536 H 0.5116 0.28189 0.07102 0.0
H3537 H 0.48288 0.28915 0.0584 0.0
H3538 H 0.54869 0.27939 0.05932 0.0
H3539 H 0.56664 0.25531 0.04682 0.0
C3540 C 0.50627 0.73218 0.2608 0.0
C3541 C 0.49871 0.70785 0.2674 0.0
C3542 C 0.45956 0.72373 0.28368 0.0
C3543 C 0.46993 0.74808 0.28294 0.0
N3544 N 0.50116 0.77664 0.26757 0.0
N3545 N 0.46361 0.68038 0.27089 0.0
C3546 C 0.49232 0.75283 0.26971 0.0
C3547 C 0.47371 0.7035 0.27419 0.0
N3548 N 0.52704 0.73506 0.24643 0.0
N3549 N 0.43676 0.71998 0.29435 0.0
H3550 H 0.47318 0.66628 0.26151 0.0
H3551 H 0.44505 0.67612 0.27445 0.0
H3552 H 0.42537 0.7347 0.30008 0.0
H3553 H 0.42945 0.70242 0.2982 0.0
H3554 H 0.53325 0.75211 0.23955 0.0
H3555 H 0.53667 0.7196 0.23953 0.0
H3556 H 0.51863 0.78106 0.26047 0.0
H3557 H 0.49128 0.79221 0.27374 0.0
C3558 C -0.00328 0.26168 0.9499 0.0
C3559 C 0.01265 0.26439 0.9708 0.0
C3560 C 0.98844 0.2333 0.99377 0.0
C3561 C 0.97162 0.23224 0.97348 0.0
N3562 N 0.95606 0.25 0.93516 0.0
N3563 N 0.02225 0.25572 0.01383 0.0
C3564 C 0.97449 0.24811 0.9526 0.0
C3565 C 0.00811 0.25107 0.99319 0.0
N3566 N 0.00362 0.27053 0.92696 0.0
N3567 N 0.98592 0.21697 0.01315 0.0
H3568 H 0.03696 0.26842 0.01378 0.0
H3569 H 0.01837 0.24835 0.03137 0.0
H3570 H 0.97099 0.20461 0.01448 0.0
H3571 H -0.00088 0.21488 0.0272 0.0
H3572 H 0.99375 0.26669 0.91068 0.0
H3573 H 0.02065 0.27919 0.92351 0.0
H3574 H 0.95622 0.26324 0.92092 0.0
H3575 H 0.93943 0.24017 0.93644 0.0
C3576 C 0.24459 0.49832 0.23655 0.0
C3577 C 0.22205 0.48548 0.2317 0.0
C3578 C 0.2033 0.5031 0.26919 0.0
C3579 C 0.22459 0.51835 0.27242 0.0
N3580 N 0.26493 0.53223 0.25871 0.0
N3581 N 0.178 0.48047 0.23981 0.0
C3582 C 0.24517 0.51643 0.25599 0.0
C3583 C 0.20087 0.48908 0.24708 0.0
N3584 N 0.26539 0.49287 0.22292 0.0
N3585 N 0.1853 0.502 0.28718 0.0
H3586 H 0.17494 0.47105 0.22308 0.0
H3587 H 0.16155 0.48509 0.24902 0.0
H3588 H 0.18628 0.51189 0.30385 0.0
H3589 H 0.17075 0.48917 0.28676 0.0
H3590 H 0.28298 0.49983 0.22707 0.0
H3591 H 0.26533 0.4799 0.2084 0.0
H3592 H 0.27931 0.53369 0.24577 0.0
H3593 H 0.26628 0.54484 0.27349 0.0
C3594 C 0.70686 0.52835 0.97718 0.0
C3595 C 0.71822 0.51961 -0.0007 0.0
C3596 C 0.75226 0.50204 0.97497 0.0
C3597 C 0.74465 0.51689 0.95458 0.0
N3598 N 0.7132 0.54223 0.93473 0.0
N3599 N 0.74957 0.49505 0.01964 0.0
C3600 C 0.72104 0.52875 0.95486 0.0
C3601 C 0.74004 0.50497 -0.00177 0.0
N3602 N 0.68297 0.53702 0.9778 0.0
N3603 N 0.7714 0.48562 0.97188 0.0
H3604 H 0.74012 0.49617 0.03663 0.0
H3605 H 0.76691 0.48645 0.02068 0.0
H3606 H 0.77955 0.48283 0.95443 0.0
H3607 H 0.77726 0.47319 0.98558 0.0
H3608 H 0.6729 0.54152 0.96185 0.0
H3609 H 0.67236 0.53723 0.99407 0.0
H3610 H 0.69799 0.55426 0.93517 0.0
H3611 H 0.72243 0.54207 0.91766 0.0
C3612 C 0.74728 0.98403 0.22734 0.0
C3613 C 0.75589 0.00892 0.22885 0.0
C3614 C 0.76379 0.00468 0.27326 0.0
C3615 C 0.75978 0.97858 0.27099 0.0
N3616 N 0.7393 0.9451 0.24927 0.0
N3617 N 0.75538 0.04518 0.25534 0.0
C3618 C 0.74863 0.96877 0.24903 0.0
C3619 C 0.75838 0.02006 0.25261 0.0
N3620 N 0.73758 0.97543 0.20544 0.0
N3621 N 0.77471 0.01471 0.29397 0.0
H3622 H 0.74958 0.0564 0.24055 0.0
H3623 H 0.75534 0.05404 0.27266 0.0
H3624 H 0.77969 0.00443 0.30963 0.0
H3625 H 0.78058 0.03323 0.2948 0.0
H3626 H 0.73316 0.95687 0.20193 0.0
H3627 H 0.73296 0.98753 0.19093 0.0
H3628 H 0.73058 0.93654 0.23424 0.0
H3629 H 0.73867 0.93461 0.26558 0.0
C3630 C 0.73153 0.44361 0.50397 0.0
C3631 C 0.73047 0.46362 0.48664 0.0
C3632 C 0.75976 0.48765 0.51196 0.0
C3633 C 0.75979 0.46805 0.52966 0.0
N3634 N 0.74082 0.4306 0.54602 0.0
N3635 N 0.73974 0.50626 0.47588 0.0
C3636 C 0.7438 0.44725 0.52693 0.0
C3637 C 0.74339 0.48622 0.49119 0.0
N3638 N 0.72261 0.42048 0.49776 0.0
N3639 N 0.7759 0.50715 0.5147 0.0
H3640 H 0.72789 0.50564 0.46047 0.0
H3641 H 0.74688 0.52396 0.47947 0.0
H3642 H 0.78712 0.5092 0.53044 0.0
H3643 H 0.77892 0.5206 0.50103 0.0
H3644 H 0.72542 0.40467 0.5087 0.0
H3645 H 0.71484 0.41623 0.48047 0.0
H3646 H 0.72751 0.41646 0.54579 0.0
H3647 H 0.74978 0.43236 0.56314 0.0
C3648 C 0.25536 0.52863 0.74879 0.0
C3649 C 0.25286 0.51756 0.72502 0.0
C3650 C 0.24225 0.47808 0.74512 0.0
C3651 C 0.25344 0.48716 0.76735 0.0
N3652 N 0.26999 0.52237 0.79069 0.0
N3653 N 0.23324 0.48521 0.70112 0.0
C3654 C 0.25909 0.51298 0.76968 0.0
C3655 C 0.24263 0.4933 0.72334 0.0
N3656 N 0.25397 0.55392 0.75131 0.0
N3657 N 0.23146 0.45502 0.74514 0.0
H3658 H 0.23033 0.49745 0.68627 0.0
H3659 H 0.22756 0.46701 0.69758 0.0
H3660 H 0.22998 0.44445 0.76139 0.0
H3661 H 0.2225 0.44707 0.72991 0.0
H3662 H 0.25406 0.56286 0.76859 0.0
H3663 H 0.24933 0.56541 0.7363 0.0
H3664 H 0.27708 0.54045 0.79163 0.0
H3665 H 0.27364 0.51191 0.80659 0.0
C3666 C 0.2475 0.01173 0.51193 0.0
C3667 C 0.22707 0.02752 0.50628 0.0
C3668 C 0.23288 0.01863 0.4621 0.0
C3669 C 0.25729 0.01074 0.46752 0.0
N3670 N 0.28582 0.99286 0.49674 0.0
N3671 N 0.19976 0.04594 0.47522 0.0
C3672 C 0.26365 0.00443 0.49228 0.0
C3673 C 0.21904 0.03043 0.48118 0.0
N3674 N 0.25135 0.00405 0.5359 0.0
N3675 N 0.22327 0.01526 0.43882 0.0
H3676 H 0.18945 0.05584 0.48837 0.0
H3677 H 0.19533 0.05059 0.45688 0.0
H3678 H 0.23273 0.00502 0.42524 0.0
H3679 H 0.2049 0.01955 0.43431 0.0
H3680 H 0.26507 0.99134 0.54103 0.0
H3681 H 0.23929 0.00884 0.55042 0.0
H3682 H 0.29323 0.99008 0.51445 0.0
H3683 H 0.29698 0.98646 0.4821 0.0
C3684 C 0.01411 0.7639 0.74093 0.0
C3685 C 0.00559 0.78694 0.73137 0.0
C3686 C 0.9712 0.76669 0.71032 0.0
C3687 C 0.98193 0.74322 0.71648 0.0
N3688 N 0.00811 0.719 0.74374 0.0
N3689 N 0.9695 0.81083 0.72013 0.0
C3690 C 0.00157 0.74164 0.73402 0.0
C3691 C 0.98173 0.78854 0.72066 0.0
N3692 N 0.03496 0.76365 0.75542 0.0
N3693 N 0.95233 0.76837 0.69331 0.0
H3694 H 0.97643 0.82655 0.72926 0.0
H3695 H 0.9513 0.81278 0.71373 0.0
H3696 H 0.94431 0.75293 0.68466 0.0
H3697 H 0.94592 0.78531 0.68627 0.0
H3698 H 0.0441 0.74754 0.76117 0.0
H3699 H 0.04303 0.78025 0.76162 0.0
H3700 H 0.02144 0.71662 0.75759 0.0
H3701 H -0.00116 0.70254 0.73904 0.0
C3702 C 0.00887 0.74476 0.5001 0.0
C3703 C 0.00714 0.72201 0.51326 0.0
C3704 C 0.96368 0.72974 0.52312 0.0
C3705 C 0.96682 0.75474 0.51486 0.0
N3706 N 0.98921 0.78419 0.48947 0.0
N3707 N 0.97959 0.68753 0.52109 0.0
C3708 C 0.98839 0.76156 0.50106 0.0
C3709 C 0.98336 0.71265 0.51941 0.0
N3710 N 0.02952 0.74945 0.48601 0.0
N3711 N 0.94309 0.72272 0.53633 0.0
H3712 H 0.99344 0.67476 0.51622 0.0
H3713 H 0.9621 0.67959 0.52387 0.0
H3714 H 0.92806 0.73444 0.53981 0.0
H3715 H 0.94169 0.70554 0.54534 0.0
H3716 H 0.03235 0.76558 0.47564 0.0
H3717 H 0.04306 0.7358 0.48299 0.0
H3718 H 0.00491 0.79165 0.48093 0.0
H3719 H 0.97346 0.79535 0.48793 0.0
C3720 C 0.01917 0.25172 0.75677 0.0
C3721 C 0.01078 0.2269 0.75973 0.0
C3722 C 0.97271 0.241 0.77949 0.0
C3723 C 0.98273 0.26555 0.78027 0.0
N3724 N 0.01043 0.29593 0.76213 0.0
N3725 N 0.97457 0.20067 0.75911 0.0
C3726 C 0.00431 0.27153 0.7662 0.0
C3727 C 0.98568 0.22249 0.7659 0.0
N3728 N 0.04195 0.25582 0.74627 0.0
N3729 N 0.9522 0.23473 0.7932 0.0
H3730 H 0.98359 0.18778 0.74763 0.0
H3731 H 0.95572 0.1971 0.762 0.0
H3732 H 0.94241 0.24733 0.80426 0.0
H3733 H 0.94612 0.21636 0.79518 0.0
H3734 H 0.05074 0.2731 0.74576 0.0
H3735 H 0.05213 0.24123 0.7383 0.0
H3736 H 0.02517 0.30161 0.75089 0.0
H3737 H -0.00063 0.31064 0.7685 0.0
C3738 C 0.48736 0.74753 0.48554 0.0
C3739 C 0.49123 0.72725 0.46898 0.0
C3740 C 0.53606 0.73251 0.47331 0.0
C3741 C 0.53167 0.7568 0.48236 0.0
N3742 N 0.50464 0.78541 0.50345 0.0
N3743 N 0.51993 0.69997 0.44689 0.0
C3744 C 0.50774 0.76335 0.49112 0.0
C3745 C 0.51578 0.71905 0.46332 0.0
N3746 N 0.46433 0.75154 0.49559 0.0
N3747 N 0.55948 0.72272 0.47374 0.0
H3748 H 0.50581 0.68999 0.43814 0.0
H3749 H 0.5376 0.69543 0.44027 0.0
H3750 H 0.57416 0.73184 0.48259 0.0
H3751 H 0.56342 0.70441 0.46851 0.0
H3752 H 0.46062 0.7651 0.50899 0.0
H3753 H 0.44929 0.73975 0.49201 0.0
H3754 H 0.4874 0.79304 0.50795 0.0
H3755 H 0.5199 0.79622 0.50877 0.0
C3756 C 0.70134 0.01412 0.71483 0.0
C3757 C 0.7212 0.99692 0.71298 0.0
C3758 C 0.74327 0.01867 0.74642 0.0
C3759 C 0.72141 0.03266 0.75131 0.0
N3760 N 0.67785 0.04088 0.74208 0.0
N3761 N 0.76138 0.98237 0.72631 0.0
C3762 C 0.70007 0.03008 0.73577 0.0
C3763 C 0.74246 -0.00076 0.72838 0.0
N3764 N 0.68331 0.01474 0.69686 0.0
N3765 N 0.76473 0.02412 0.75896 0.0
H3766 H 0.76178 0.96885 0.71236 0.0
H3767 H 0.77605 0.98111 0.73892 0.0
H3768 H 0.76578 0.03845 0.77211 0.0
H3769 H 0.78186 0.01604 0.75482 0.0
H3770 H 0.66979 0.02864 0.6959 0.0
H3771 H 0.68335 0.00282 0.6815 0.0
H3772 H 0.66118 0.03683 0.73303 0.0
H3773 H 0.67513 0.05195 0.75775 0.0
C3774 C 0.28451 0.96516 0.98095 0.0
C3775 C 0.27527 0.97122 0.00497 0.0
C3776 C 0.24054 0.9939 0.9865 0.0
C3777 C 0.24728 0.98369 0.96312 0.0
N3778 N 0.28118 0.97163 0.93631 0.0
N3779 N 0.24918 0.99689 0.031 0.0
C3780 C 0.27124 0.97339 0.95968 0.0
C3781 C 0.25502 0.9879 0.00786 0.0
N3782 N 0.30529 0.95063 0.97862 0.0
N3783 N 0.21968 0.00835 0.98796 0.0
H3784 H 0.25959 0.99253 0.04681 0.0
H3785 H 0.23486 0.00943 0.03458 0.0
H3786 H 0.21018 0.01384 0.97191 0.0
H3787 H 0.21218 0.01536 0.00442 0.0
H3788 H 0.31101 0.94273 0.96181 0.0
H3789 H 0.31633 0.94568 0.99384 0.0
H3790 H 0.29917 0.96538 0.93272 0.0
H3791 H 0.27261 0.97956 0.9208 0.0
loop_
_geom_bond_atom_site_label_1
_geom_bond_atom_site_label_2
_geom_bond_distance
_geom_bond_site_symmetry_2
_ccdc_geom_bond_type
Co0 O3 1.970 . S
Co0 N17 1.989 . S
Co0 O25 1.967 . S
Co0 O32 1.920 . S
Co1 O4 1.966 . S
Co1 N10 2.022 . S
Co1 N18 1.993 . S
Co1 O26 1.941 . S
C2 O3 1.258 . S
C2 O4 1.263 . S
O3 Co0 1.970 . S
O3 C2 1.258 . S
O4 Co1 1.966 . S
O4 C2 1.263 . S
C5 O6 1.235 . S
C5 O32 1.289 . S
O6 C5 1.235 . S
C7 C9 1.400 . S
C7 N10 1.351 . S
C7 C12 1.501 . S
C8 C9 1.387 . S
C8 N11 1.341 . S
C9 C7 1.400 . S
C9 C8 1.387 . S
N10 Co1 2.022 . S
N10 C7 1.351 . S
N10 N11 1.365 . S
N11 C8 1.341 . S
N11 N10 1.365 . S
N11 H31 0.862 . S
C12 C7 1.501 . S
C12 H13 0.961 . S
C12 H14 0.961 . S
C12 H15 0.960 . S
H13 C12 0.961 . S
H14 C12 0.961 . S
H15 C12 0.960 . S
C16 N17 1.342 . S
C16 C20 1.401 . S
C16 C21 1.499 . S
N17 Co0 1.989 . S
N17 C16 1.342 . S
N17 N18 1.388 . S
N18 Co1 1.993 . S
N18 N17 1.388 . S
N18 C19 1.346 . S
C19 N18 1.346 . S
C19 C20 1.396 . S
C19 C29 1.510 . S
C20 C16 1.401 . S
C20 C19 1.396 . S
C21 C16 1.499 . S
C21 H22 0.959 . S
C21 H23 0.960 . S
C21 H24 0.961 . S
H22 C21 0.959 . S
H23 C21 0.960 . S
H24 C21 0.961 . S
O25 Co0 1.967 . S
O25 C33 1.258 . S
O26 Co1 1.941 . S
O26 C33 1.266 . S
H27 C29 0.959 . S
H28 C29 0.961 . S
C29 C19 1.510 . S
C29 H27 0.959 . S
C29 H28 0.961 . S
C29 H30 0.960 . S
H30 C29 0.960 . S
H31 N11 0.862 . S
O32 Co0 1.920 . S
O32 C5 1.289 . S
C33 O25 1.258 . S
C33 O26 1.266 . S
Co34 O37 1.970 . S
Co34 N51 1.989 . S
Co34 O59 1.967 . S
Co34 O66 1.920 . S
Co35 O38 1.966 . S
Co35 N44 2.022 . S
Co35 N52 1.993 . S
Co35 O60 1.941 . S
C36 O37 1.258 . S
C36 O38 1.263 . S
O37 Co34 1.970 . S
O37 C36 1.258 . S
O38 Co35 1.966 . S
O38 C36 1.263 . S
C39 O40 1.235 . S
C39 O66 1.289 . S
O40 C39 1.235 . S
C41 C43 1.400 . S
C41 N44 1.351 . S
C41 C46 1.501 . S
C42 C43 1.387 . S
C42 N45 1.341 . S
C43 C41 1.400 . S
C43 C42 1.387 . S
N44 Co35 2.022 . S
N44 C41 1.351 . S
N44 N45 1.365 . S
N45 C42 1.341 . S
N45 N44 1.365 . S
N45 H65 0.862 . S
C46 C41 1.501 . S
C46 H47 0.961 . S
C46 H48 0.961 . S
C46 H49 0.960 . S
H47 C46 0.961 . S
H48 C46 0.961 . S
H49 C46 0.960 . S
C50 N51 1.342 . S
C50 C54 1.401 . S
C50 C55 1.499 . S
N51 Co34 1.989 . S
N51 C50 1.342 . S
N51 N52 1.388 . S
N52 Co35 1.993 . S
N52 N51 1.388 . S
N52 C53 1.346 . S
C53 N52 1.346 . S
C53 C54 1.396 . S
C53 C63 1.510 . S
C54 C50 1.401 . S
C54 C53 1.396 . S
C55 C50 1.499 . S
C55 H56 0.959 . S
C55 H57 0.960 . S
C55 H58 0.961 . S
H56 C55 0.959 . S
H57 C55 0.960 . S
H58 C55 0.961 . S
O59 Co34 1.967 . S
O59 C67 1.258 . S
O60 Co35 1.941 . S
O60 C67 1.266 . S
H61 C63 0.959 . S
H62 C63 0.961 . S
C63 C53 1.510 . S
C63 H61 0.959 . S
C63 H62 0.961 . S
C63 H64 0.960 . S
H64 C63 0.960 . S
H65 N45 0.862 . S
O66 Co34 1.920 . S
O66 C39 1.289 . S
C67 O59 1.258 . S
C67 O60 1.266 . S
Co68 O71 1.970 . S
Co68 N85 1.989 . S
Co68 O93 1.967 . S
Co68 O100 1.920 . S
Co69 O72 1.966 . S
Co69 N78 2.022 . S
Co69 N86 1.993 . S
Co69 O94 1.941 . S
C70 O71 1.258 . S
C70 O72 1.263 . S
O71 Co68 1.970 . S
O71 C70 1.258 . S
O72 Co69 1.966 . S
O72 C70 1.263 . S
C73 O74 1.235 . S
C73 O100 1.289 . S
O74 C73 1.235 . S
C75 C77 1.400 . S
C75 N78 1.351 . S
C75 C80 1.501 . S
C76 C77 1.387 . S
C76 N79 1.341 . S
C77 C75 1.400 . S
C77 C76 1.387 . S
N78 Co69 2.022 . S
N78 C75 1.351 . S
N78 N79 1.365 . S
N79 C76 1.341 . S
N79 N78 1.365 . S
N79 H99 0.862 . S
C80 C75 1.501 . S
C80 H81 0.961 . S
C80 H82 0.961 . S
C80 H83 0.960 . S
H81 C80 0.961 . S
H82 C80 0.961 . S
H83 C80 0.960 . S
C84 N85 1.342 . S
C84 C88 1.401 . S
C84 C89 1.499 . S
N85 Co68 1.989 . S
N85 C84 1.342 . S
N85 N86 1.388 . S
N86 Co69 1.993 . S
N86 N85 1.388 . S
N86 C87 1.346 . S
C87 N86 1.346 . S
C87 C88 1.396 . S
C87 C97 1.510 . S
C88 C84 1.401 . S
C88 C87 1.396 . S
C89 C84 1.499 . S
C89 H90 0.959 . S
C89 H91 0.960 . S
C89 H92 0.961 . S
H90 C89 0.959 . S
H91 C89 0.960 . S
H92 C89 0.961 . S
O93 Co68 1.967 . S
O93 C101 1.258 . S
O94 Co69 1.941 . S
O94 C101 1.266 . S
H95 C97 0.959 . S
H96 C97 0.961 . S
C97 C87 1.510 . S
C97 H95 0.959 . S
C97 H96 0.961 . S
C97 H98 0.960 . S
H98 C97 0.960 . S
H99 N79 0.862 . S
O100 Co68 1.920 . S
O100 C73 1.289 . S
C101 O93 1.258 . S
C101 O94 1.266 . S
Co102 O105 1.970 . S
Co102 N119 1.989 . S
Co102 O127 1.967 . S
Co102 O134 1.920 . S
Co103 O106 1.966 . S
Co103 N112 2.022 . S
Co103 N120 1.993 . S
Co103 O128 1.941 . S
C104 O105 1.258 . S
C104 O106 1.263 . S
O105 Co102 1.970 . S
O105 C104 1.258 . S
O106 Co103 1.966 . S
O106 C104 1.263 . S
C107 O108 1.235 . S
C107 O134 1.289 . S
O108 C107 1.235 . S
C109 C111 1.400 . S
C109 N112 1.351 . S
C109 C114 1.501 . S
C110 C111 1.387 . S
C110 N113 1.341 . S
C111 C109 1.400 . S
C111 C110 1.387 . S
N112 Co103 2.022 . S
N112 C109 1.351 . S
N112 N113 1.365 . S
N113 C110 1.341 . S
N113 N112 1.365 . S
N113 H133 0.862 . S
C114 C109 1.501 . S
C114 H115 0.961 . S
C114 H116 0.961 . S
C114 H117 0.960 . S
H115 C114 0.961 . S
H116 C114 0.961 . S
H117 C114 0.960 . S
C118 N119 1.342 . S
C118 C122 1.401 . S
C118 C123 1.499 . S
N119 Co102 1.989 . S
N119 C118 1.342 . S
N119 N120 1.388 . S
N120 Co103 1.993 . S
N120 N119 1.388 . S
N120 C121 1.346 . S
C121 N120 1.346 . S
C121 C122 1.396 . S
C121 C131 1.510 . S
C122 C118 1.401 . S
C122 C121 1.396 . S
C123 C118 1.499 . S
C123 H124 0.959 . S
C123 H125 0.960 . S
C123 H126 0.961 . S
H124 C123 0.959 . S
H125 C123 0.960 . S
H126 C123 0.961 . S
O127 Co102 1.967 . S
O127 C135 1.258 . S
O128 Co103 1.941 . S
O128 C135 1.266 . S
H129 C131 0.959 . S
H130 C131 0.961 . S
C131 C121 1.510 . S
C131 H129 0.959 . S
C131 H130 0.961 . S
C131 H132 0.960 . S
H132 C131 0.960 . S
H133 N113 0.862 . S
O134 Co102 1.920 . S
O134 C107 1.289 . S
C135 O127 1.258 . S
C135 O128 1.266 . S
Co136 O139 1.970 . S
Co136 N153 1.989 . S
Co136 O161 1.967 . S
Co136 O168 1.920 . S
Co137 O140 1.966 . S
Co137 N146 2.022 . S
Co137 N154 1.993 . S
Co137 O162 1.941 . S
C138 O139 1.258 . S
C138 O140 1.263 . S
O139 Co136 1.970 . S
O139 C138 1.258 . S
O140 Co137 1.966 . S
O140 C138 1.263 . S
C141 O142 1.235 . S
C141 O168 1.289 . S
O142 C141 1.235 . S
C143 C145 1.400 . S
C143 N146 1.351 . S
C143 C148 1.501 . S
C144 C145 1.387 . S
C144 N147 1.341 . S
C145 C143 1.400 . S
C145 C144 1.387 . S
N146 Co137 2.022 . S
N146 C143 1.351 . S
N146 N147 1.365 . S
N147 C144 1.341 . S
N147 N146 1.365 . S
N147 H167 0.862 . S
C148 C143 1.501 . S
C148 H149 0.961 . S
C148 H150 0.961 . S
C148 H151 0.960 . S
H149 C148 0.961 . S
H150 C148 0.961 . S
H151 C148 0.960 . S
C152 N153 1.342 . S
C152 C156 1.401 . S
C152 C157 1.499 . S
N153 Co136 1.989 . S
N153 C152 1.342 . S
N153 N154 1.388 . S
N154 Co137 1.993 . S
N154 N153 1.388 . S
N154 C155 1.346 . S
C155 N154 1.346 . S
C155 C156 1.396 . S
C155 C165 1.510 . S
C156 C152 1.401 . S
C156 C155 1.396 . S
C157 C152 1.499 . S
C157 H158 0.959 . S
C157 H159 0.960 . S
C157 H160 0.961 . S
H158 C157 0.959 . S
H159 C157 0.960 . S
H160 C157 0.961 . S
O161 Co136 1.967 . S
O161 C169 1.258 . S
O162 Co137 1.941 . S
O162 C169 1.266 . S
H163 C165 0.959 . S
H164 C165 0.961 . S
C165 C155 1.510 . S
C165 H163 0.959 . S
C165 H164 0.961 . S
C165 H166 0.960 . S
H166 C165 0.960 . S
H167 N147 0.862 . S
O168 Co136 1.920 . S
O168 C141 1.289 . S
C169 O161 1.258 . S
C169 O162 1.266 . S
Co170 O173 1.970 . S
Co170 N187 1.989 . S
Co170 O195 1.967 . S
Co170 O202 1.920 . S
Co171 O174 1.966 . S
Co171 N180 2.022 . S
Co171 N188 1.993 . S
Co171 O196 1.941 . S
C172 O173 1.258 . S
C172 O174 1.263 . S
O173 Co170 1.970 . S
O173 C172 1.258 . S
O174 Co171 1.966 . S
O174 C172 1.263 . S
C175 O176 1.235 . S
C175 O202 1.289 . S
O176 C175 1.235 . S
C177 C179 1.400 . S
C177 N180 1.351 . S
C177 C182 1.501 . S
C178 C179 1.387 . S
C178 N181 1.341 . S
C179 C177 1.400 . S
C179 C178 1.387 . S
N180 Co171 2.022 . S
N180 C177 1.351 . S
N180 N181 1.365 . S
N181 C178 1.341 . S
N181 N180 1.365 . S
N181 H201 0.862 . S
C182 C177 1.501 . S
C182 H183 0.961 . S
C182 H184 0.961 . S
C182 H185 0.960 . S
H183 C182 0.961 . S
H184 C182 0.961 . S
H185 C182 0.960 . S
C186 N187 1.342 . S
C186 C190 1.401 . S
C186 C191 1.499 . S
N187 Co170 1.989 . S
N187 C186 1.342 . S
N187 N188 1.388 . S
N188 Co171 1.993 . S
N188 N187 1.388 . S
N188 C189 1.346 . S
C189 N188 1.346 . S
C189 C190 1.396 . S
C189 C199 1.510 . S
C190 C186 1.401 . S
C190 C189 1.396 . S
C191 C186 1.499 . S
C191 H192 0.959 . S
C191 H193 0.960 1_455 S
C191 H194 0.944 1_455 S
H192 C191 0.959 . S
H193 C191 0.960 1_655 S
H194 C191 0.944 1_655 S
O195 Co170 1.967 . S
O195 C203 1.258 . S
O196 Co171 1.941 . S
O196 C203 1.266 . S
H197 C199 0.959 . S
H198 C199 0.961 . S
C199 C189 1.510 . S
C199 H197 0.959 . S
C199 H198 0.961 . S
C199 H200 0.960 . S
H200 C199 0.960 . S
H201 N181 0.862 . S
O202 Co170 1.920 . S
O202 C175 1.289 . S
C203 O195 1.258 . S
C203 O196 1.266 . S
Co204 O207 1.970 . S
Co204 N221 1.989 . S
Co204 O229 1.967 . S
Co204 O236 1.920 . S
Co205 O208 1.966 . S
Co205 N214 2.022 . S
Co205 N222 1.993 . S
Co205 O230 1.941 . S
C206 O207 1.258 . S
C206 O208 1.263 . S
O207 Co204 1.970 . S
O207 C206 1.258 . S
O208 Co205 1.966 . S
O208 C206 1.263 . S
C209 O210 1.235 . S
C209 O236 1.289 . S
O210 C209 1.235 . S
C211 C213 1.400 . S
C211 N214 1.351 . S
C211 C216 1.501 . S
C212 C213 1.387 . S
C212 N215 1.341 . S
C213 C211 1.400 . S
C213 C212 1.387 . S
N214 Co205 2.022 . S
N214 C211 1.351 . S
N214 N215 1.365 . S
N215 C212 1.341 . S
N215 N214 1.365 . S
N215 H235 0.862 . S
C216 C211 1.501 . S
C216 H217 0.961 . S
C216 H218 0.961 . S
C216 H219 0.960 . S
H217 C216 0.961 . S
H218 C216 0.961 . S
H219 C216 0.960 . S
C220 N221 1.342 . S
C220 C224 1.401 . S
C220 C225 1.499 . S
N221 Co204 1.989 . S
N221 C220 1.342 . S
N221 N222 1.388 . S
N222 Co205 1.993 . S
N222 N221 1.388 . S
N222 C223 1.346 . S
C223 N222 1.346 . S
C223 C224 1.396 . S
C223 C233 1.510 . S
C224 C220 1.401 . S
C224 C223 1.396 . S
C225 C220 1.499 . S
C225 H226 0.959 . S
C225 H227 0.960 . S
C225 H228 0.961 . S
H226 C225 0.959 . S
H227 C225 0.960 . S
H228 C225 0.961 . S
O229 Co204 1.967 . S
O229 C237 1.258 . S
O230 Co205 1.941 . S
O230 C237 1.266 . S
H231 C233 0.959 . S
H232 C233 0.961 . S
C233 C223 1.510 . S
C233 H231 0.959 . S
C233 H232 0.961 . S
C233 H234 0.960 . S
H234 C233 0.960 . S
H235 N215 0.862 . S
O236 Co204 1.920 . S
O236 C209 1.289 . S
C237 O229 1.258 . S
C237 O230 1.266 . S
Co238 O241 1.970 . S
Co238 N255 1.989 . S
Co238 O263 1.967 . S
Co238 O270 1.920 . S
Co239 O242 1.966 . S
Co239 N248 2.022 . S
Co239 N256 1.993 . S
Co239 O264 1.941 . S
C240 O241 1.258 . S
C240 O242 1.263 . S
O241 Co238 1.970 . S
O241 C240 1.258 . S
O242 Co239 1.966 . S
O242 C240 1.263 . S
C243 O244 1.235 . S
C243 O270 1.289 . S
O244 C243 1.235 . S
C245 C247 1.400 . S
C245 N248 1.351 . S
C245 C250 1.501 . S
C246 C247 1.387 . S
C246 N249 1.341 . S
C247 C245 1.400 . S
C247 C246 1.387 . S
N248 Co239 2.022 . S
N248 C245 1.351 . S
N248 N249 1.365 . S
N249 C246 1.341 . S
N249 N248 1.365 . S
N249 H269 0.862 . S
C250 C245 1.501 . S
C250 H251 0.961 . S
C250 H252 0.961 . S
C250 H253 0.960 . S
H251 C250 0.961 . S
H252 C250 0.961 . S
H253 C250 0.960 . S
C254 N255 1.342 . S
C254 C258 1.401 . S
C254 C259 1.499 . S
N255 Co238 1.989 . S
N255 C254 1.342 . S
N255 N256 1.388 . S
N256 Co239 1.993 . S
N256 N255 1.388 . S
N256 C257 1.346 . S
C257 N256 1.346 . S
C257 C258 1.396 . S
C257 C267 1.510 . S
C258 C254 1.401 . S
C258 C257 1.396 . S
C259 C254 1.499 . S
C259 H260 0.959 . S
C259 H261 0.960 1_655 S
C259 H262 0.944 1_655 S
H260 C259 0.959 . S
H261 C259 0.960 1_455 S
H262 C259 0.944 1_455 S
O263 Co238 1.967 . S
O263 C271 1.258 . S
O264 Co239 1.941 . S
O264 C271 1.266 . S
H265 C267 0.959 . S
H266 C267 0.961 . S
C267 C257 1.510 . S
C267 H265 0.959 . S
C267 H266 0.961 . S
C267 H268 0.960 . S
H268 C267 0.960 . S
H269 N249 0.862 . S
O270 Co238 1.920 . S
O270 C243 1.289 . S
C271 O263 1.258 . S
C271 O264 1.266 . S
Co272 O275 1.970 . S
Co272 N289 1.989 . S
Co272 O297 1.967 . S
Co272 O304 1.920 . S
Co273 O276 1.966 . S
Co273 N282 2.022 . S
Co273 N290 1.993 . S
Co273 O298 1.941 . S
C274 O275 1.258 . S
C274 O276 1.263 . S
O275 Co272 1.970 . S
O275 C274 1.258 . S
O276 Co273 1.966 . S
O276 C274 1.263 . S
C277 O278 1.235 . S
C277 O304 1.289 . S
O278 C277 1.235 . S
C279 C281 1.400 . S
C279 N282 1.351 . S
C279 C284 1.501 . S
C280 C281 1.387 . S
C280 N283 1.341 . S
C281 C279 1.400 . S
C281 C280 1.387 . S
N282 Co273 2.022 . S
N282 C279 1.351 . S
N282 N283 1.365 . S
N283 C280 1.341 . S
N283 N282 1.365 . S
N283 H303 0.862 . S
C284 C279 1.501 . S
C284 H285 0.961 . S
C284 H286 0.961 . S
C284 H287 0.960 . S
H285 C284 0.961 . S
H286 C284 0.961 . S
H287 C284 0.960 . S
C288 N289 1.342 . S
C288 C292 1.401 . S
C288 C293 1.499 . S
N289 Co272 1.989 . S
N289 C288 1.342 . S
N289 N290 1.388 . S
N290 Co273 1.993 . S
N290 N289 1.388 . S
N290 C291 1.346 . S
C291 N290 1.346 . S
C291 C292 1.396 . S
C291 C301 1.510 . S
C292 C288 1.401 . S
C292 C291 1.396 . S
C293 C288 1.499 . S
C293 H294 0.959 . S
C293 H295 0.960 . S
C293 H296 0.961 . S
H294 C293 0.959 . S
H295 C293 0.960 . S
H296 C293 0.961 . S
O297 Co272 1.967 . S
O297 C305 1.258 . S
O298 Co273 1.941 . S
O298 C305 1.266 . S
H299 C301 0.959 . S
H300 C301 0.961 . S
C301 C291 1.510 . S
C301 H299 0.959 . S
C301 H300 0.961 . S
C301 H302 0.960 . S
H302 C301 0.960 . S
H303 N283 0.862 . S
O304 Co272 1.920 . S
O304 C277 1.289 . S
C305 O297 1.258 . S
C305 O298 1.266 . S
Co306 O309 1.970 . S
Co306 N323 1.989 . S
Co306 O331 1.967 . S
Co306 O338 1.920 . S
Co307 O310 1.966 . S
Co307 N316 2.022 . S
Co307 N324 1.993 . S
Co307 O332 1.941 . S
C308 O309 1.258 . S
C308 O310 1.263 . S
O309 Co306 1.970 . S
O309 C308 1.258 . S
O310 Co307 1.966 . S
O310 C308 1.263 . S
C311 O312 1.235 . S
C311 O338 1.289 . S
O312 C311 1.235 . S
C313 C315 1.400 . S
C313 N316 1.351 . S
C313 C318 1.501 . S
C314 C315 1.387 . S
C314 N317 1.341 . S
C315 C313 1.400 . S
C315 C314 1.387 . S
N316 Co307 2.022 . S
N316 C313 1.351 . S
N316 N317 1.365 . S
N317 C314 1.341 . S
N317 N316 1.365 . S
N317 H337 0.862 . S
C318 C313 1.501 . S
C318 H319 0.961 . S
C318 H320 0.961 . S
C318 H321 0.960 . S
H319 C318 0.961 . S
H320 C318 0.961 . S
H321 C318 0.960 . S
C322 N323 1.342 . S
C322 C326 1.401 . S
C322 C327 1.499 . S
N323 Co306 1.989 . S
N323 C322 1.342 . S
N323 N324 1.388 . S
N324 Co307 1.993 . S
N324 N323 1.388 . S
N324 C325 1.346 . S
C325 N324 1.346 . S
C325 C326 1.396 . S
C325 C335 1.510 . S
C326 C322 1.401 . S
C326 C325 1.396 . S
C327 C322 1.499 . S
C327 H328 0.959 . S
C327 H329 0.960 1_554 S
C327 H330 0.944 1_554 S
H328 C327 0.959 . S
H329 C327 0.960 1_556 S
H330 C327 0.944 1_556 S
O331 Co306 1.967 . S
O331 C339 1.258 . S
O332 Co307 1.941 . S
O332 C339 1.266 . S
H333 C335 0.959 . S
H334 C335 0.961 . S
C335 C325 1.510 . S
C335 H333 0.959 . S
C335 H334 0.961 . S
C335 H336 0.960 . S
H336 C335 0.960 . S
H337 N317 0.862 . S
O338 Co306 1.920 . S
O338 C311 1.289 . S
C339 O331 1.258 . S
C339 O332 1.266 . S
Co340 O343 1.970 . S
Co340 N357 1.989 . S
Co340 O365 1.967 . S
Co340 O372 1.920 . S
Co341 O344 1.966 . S
Co341 N350 2.022 . S
Co341 N358 1.993 . S
Co341 O366 1.941 . S
C342 O343 1.258 . S
C342 O344 1.263 . S
O343 Co340 1.970 . S
O343 C342 1.258 . S
O344 Co341 1.966 . S
O344 C342 1.263 . S
C345 O346 1.235 . S
C345 O372 1.289 . S
O346 C345 1.235 . S
C347 C349 1.400 . S
C347 N350 1.351 . S
C347 C352 1.501 . S
C348 C349 1.387 . S
C348 N351 1.341 . S
C349 C347 1.400 . S
C349 C348 1.387 . S
N350 Co341 2.022 . S
N350 C347 1.351 . S
N350 N351 1.365 . S
N351 C348 1.341 . S
N351 N350 1.365 . S
N351 H371 0.862 . S
C352 C347 1.501 . S
C352 H353 0.961 . S
C352 H354 0.961 . S
C352 H355 0.960 . S
H353 C352 0.961 . S
H354 C352 0.961 . S
H355 C352 0.960 . S
C356 N357 1.342 . S
C356 C360 1.401 . S
C356 C361 1.499 . S
N357 Co340 1.989 . S
N357 C356 1.342 . S
N357 N358 1.388 . S
N358 Co341 1.993 . S
N358 N357 1.388 . S
N358 C359 1.346 . S
C359 N358 1.346 . S
C359 C360 1.396 . S
C359 C369 1.510 . S
C360 C356 1.401 . S
C360 C359 1.396 . S
C361 C356 1.499 . S
C361 H362 0.959 . S
C361 H363 0.960 . S
C361 H364 0.961 . S
H362 C361 0.959 . S
H363 C361 0.960 . S
H364 C361 0.961 . S
O365 Co340 1.967 . S
O365 C373 1.258 . S
O366 Co341 1.941 . S
O366 C373 1.266 . S
H367 C369 0.959 . S
H368 C369 0.961 . S
C369 C359 1.510 . S
C369 H367 0.959 . S
C369 H368 0.961 . S
C369 H370 0.960 . S
H370 C369 0.960 . S
H371 N351 0.862 . S
O372 Co340 1.920 . S
O372 C345 1.289 . S
C373 O365 1.258 . S
C373 O366 1.266 . S
Co374 O377 1.970 . S
Co374 N391 1.989 . S
Co374 O399 1.967 . S
Co374 O406 1.920 . S
Co375 O378 1.966 . S
Co375 N384 2.022 . S
Co375 N392 1.993 . S
Co375 O400 1.941 . S
C376 O377 1.258 . S
C376 O378 1.263 . S
O377 Co374 1.970 . S
O377 C376 1.258 . S
O378 Co375 1.966 . S
O378 C376 1.263 . S
C379 O380 1.235 . S
C379 O406 1.289 . S
O380 C379 1.235 . S
C381 C383 1.400 . S
C381 N384 1.351 . S
C381 C386 1.501 . S
C382 C383 1.387 . S
C382 N385 1.341 . S
C383 C381 1.400 . S
C383 C382 1.387 . S
N384 Co375 2.022 . S
N384 C381 1.351 . S
N384 N385 1.365 . S
N385 C382 1.341 . S
N385 N384 1.365 . S
N385 H405 0.862 . S
C386 C381 1.501 . S
C386 H387 0.961 . S
C386 H388 0.961 . S
C386 H389 0.960 . S
H387 C386 0.961 . S
H388 C386 0.961 . S
H389 C386 0.960 . S
C390 N391 1.342 . S
C390 C394 1.401 . S
C390 C395 1.499 . S
N391 Co374 1.989 . S
N391 C390 1.342 . S
N391 N392 1.388 . S
N392 Co375 1.993 . S
N392 N391 1.388 . S
N392 C393 1.346 . S
C393 N392 1.346 . S
C393 C394 1.396 . S
C393 C403 1.510 . S
C394 C390 1.401 . S
C394 C393 1.396 . S
C395 C390 1.499 . S
C395 H396 0.959 . S
C395 H397 0.960 1_554 S
C395 H398 0.944 1_554 S
H396 C395 0.959 . S
H397 C395 0.960 1_556 S
H398 C395 0.944 1_556 S
O399 Co374 1.967 . S
O399 C407 1.258 . S
O400 Co375 1.941 . S
O400 C407 1.266 . S
H401 C403 0.959 . S
H402 C403 0.961 . S
C403 C393 1.510 . S
C403 H401 0.959 . S
C403 H402 0.961 . S
C403 H404 0.960 . S
H404 C403 0.960 . S
H405 N385 0.862 . S
O406 Co374 1.920 . S
O406 C379 1.289 . S
C407 O399 1.258 . S
C407 O400 1.266 . S
Co408 O411 1.970 . S
Co408 N425 1.989 . S
Co408 O433 1.967 . S
Co408 O440 1.920 . S
Co409 O412 1.966 . S
Co409 N418 2.022 . S
Co409 N426 1.993 . S
Co409 O434 1.941 . S
C410 O411 1.258 . S
C410 O412 1.263 . S
O411 Co408 1.970 . S
O411 C410 1.258 . S
O412 Co409 1.966 . S
O412 C410 1.263 . S
C413 O414 1.235 . S
C413 O440 1.289 . S
O414 C413 1.235 . S
C415 C417 1.400 . S
C415 N418 1.351 . S
C415 C420 1.501 . S
C416 C417 1.387 . S
C416 N419 1.341 . S
C417 C415 1.400 . S
C417 C416 1.387 . S
N418 Co409 2.022 . S
N418 C415 1.351 . S
N418 N419 1.365 . S
N419 C416 1.341 . S
N419 N418 1.365 . S
N419 H439 0.862 . S
C420 C415 1.501 . S
C420 H421 0.961 . S
C420 H422 0.961 . S
C420 H423 0.960 . S
H421 C420 0.961 . S
H422 C420 0.961 . S
H423 C420 0.960 . S
C424 N425 1.342 . S
C424 C428 1.401 . S
C424 C429 1.499 . S
N425 Co408 1.989 . S
N425 C424 1.342 . S
N425 N426 1.388 . S
N426 Co409 1.993 . S
N426 N425 1.388 . S
N426 C427 1.346 . S
C427 N426 1.346 . S
C427 C428 1.396 . S
C427 C437 1.510 . S
C428 C424 1.401 . S
C428 C427 1.396 . S
C429 C424 1.499 . S
C429 H430 0.959 . S
C429 H431 0.960 . S
C429 H432 0.961 . S
H430 C429 0.959 . S
H431 C429 0.960 . S
H432 C429 0.961 . S
O433 Co408 1.967 . S
O433 C441 1.258 . S
O434 Co409 1.941 . S
O434 C441 1.266 . S
H435 C437 0.959 . S
H436 C437 0.961 . S
C437 C427 1.510 . S
C437 H435 0.959 . S
C437 H436 0.961 . S
C437 H438 0.960 . S
H438 C437 0.960 . S
H439 N419 0.862 . S
O440 Co408 1.920 . S
O440 C413 1.289 . S
C441 O433 1.258 . S
C441 O434 1.266 . S
Co442 O445 1.970 . S
Co442 N459 1.989 . S
Co442 O467 1.967 . S
Co442 O474 1.920 . S
Co443 O446 1.966 . S
Co443 N452 2.022 . S
Co443 N460 1.993 . S
Co443 O468 1.941 . S
C444 O445 1.258 . S
C444 O446 1.263 . S
O445 Co442 1.970 . S
O445 C444 1.258 . S
O446 Co443 1.966 . S
O446 C444 1.263 . S
C447 O448 1.235 . S
C447 O474 1.289 . S
O448 C447 1.235 . S
C449 C451 1.400 . S
C449 N452 1.351 . S
C449 C454 1.501 . S
C450 C451 1.387 . S
C450 N453 1.341 . S
C451 C449 1.400 . S
C451 C450 1.387 . S
N452 Co443 2.022 . S
N452 C449 1.351 . S
N452 N453 1.365 . S
N453 C450 1.341 . S
N453 N452 1.365 . S
N453 H473 0.862 . S
C454 C449 1.501 . S
C454 H455 0.961 . S
C454 H456 0.961 . S
C454 H457 0.960 . S
H455 C454 0.961 . S
H456 C454 0.961 . S
H457 C454 0.960 . S
C458 N459 1.342 . S
C458 C462 1.401 . S
C458 C463 1.499 . S
N459 Co442 1.989 . S
N459 C458 1.342 . S
N459 N460 1.388 . S
N460 Co443 1.993 . S
N460 N459 1.388 . S
N460 C461 1.346 . S
C461 N460 1.346 . S
C461 C462 1.396 . S
C461 C471 1.510 . S
C462 C458 1.401 . S
C462 C461 1.396 . S
C463 C458 1.499 . S
C463 H464 0.959 . S
C463 H465 0.960 1_556 S
C463 H466 0.944 1_556 S
H464 C463 0.959 . S
H465 C463 0.960 1_554 S
H466 C463 0.944 1_554 S
O467 Co442 1.967 . S
O467 C475 1.258 . S
O468 Co443 1.941 . S
O468 C475 1.266 . S
H469 C471 0.959 . S
H470 C471 0.961 . S
C471 C461 1.510 . S
C471 H469 0.959 . S
C471 H470 0.961 . S
C471 H472 0.960 . S
H472 C471 0.960 . S
H473 N453 0.862 . S
O474 Co442 1.920 . S
O474 C447 1.289 . S
C475 O467 1.258 . S
C475 O468 1.266 . S
Co476 O479 1.970 . S
Co476 N493 1.989 . S
Co476 O501 1.967 . S
Co476 O508 1.920 . S
Co477 O480 1.966 . S
Co477 N486 2.022 . S
Co477 N494 1.993 . S
Co477 O502 1.941 . S
C478 O479 1.258 . S
C478 O480 1.263 . S
O479 Co476 1.970 . S
O479 C478 1.258 . S
O480 Co477 1.966 . S
O480 C478 1.263 . S
C481 O482 1.235 . S
C481 O508 1.289 . S
O482 C481 1.235 . S
C483 C485 1.400 . S
C483 N486 1.351 . S
C483 C488 1.501 . S
C484 C485 1.387 . S
C484 N487 1.341 . S
C485 C483 1.400 . S
C485 C484 1.387 . S
N486 Co477 2.022 . S
N486 C483 1.351 . S
N486 N487 1.365 . S
N487 C484 1.341 . S
N487 N486 1.365 . S
N487 H507 0.862 . S
C488 C483 1.501 . S
C488 H489 0.961 . S
C488 H490 0.961 . S
C488 H491 0.960 . S
H489 C488 0.961 . S
H490 C488 0.961 . S
H491 C488 0.960 . S
C492 N493 1.342 . S
C492 C496 1.401 . S
C492 C497 1.499 . S
N493 Co476 1.989 . S
N493 C492 1.342 . S
N493 N494 1.388 . S
N494 Co477 1.993 . S
N494 N493 1.388 . S
N494 C495 1.346 . S
C495 N494 1.346 . S
C495 C496 1.396 . S
C495 C505 1.510 . S
C496 C492 1.401 . S
C496 C495 1.396 . S
C497 C492 1.499 . S
C497 H498 0.959 . S
C497 H499 0.960 . S
C497 H500 0.961 . S
H498 C497 0.959 . S
H499 C497 0.960 . S
H500 C497 0.961 . S
O501 Co476 1.967 . S
O501 C509 1.258 . S
O502 Co477 1.941 . S
O502 C509 1.266 . S
H503 C505 0.959 . S
H504 C505 0.961 . S
C505 C495 1.510 . S
C505 H503 0.959 . S
C505 H504 0.961 . S
C505 H506 0.960 . S
H506 C505 0.960 . S
H507 N487 0.862 . S
O508 Co476 1.920 . S
O508 C481 1.289 . S
C509 O501 1.258 . S
C509 O502 1.266 . S
Co510 O513 1.970 . S
Co510 N527 1.989 . S
Co510 O535 1.967 . S
Co510 O542 1.920 . S
Co511 O514 1.966 . S
Co511 N520 2.022 . S
Co511 N528 1.993 . S
Co511 O536 1.941 . S
C512 O513 1.258 . S
C512 O514 1.263 . S
O513 Co510 1.970 . S
O513 C512 1.258 . S
O514 Co511 1.966 . S
O514 C512 1.263 . S
C515 O516 1.235 . S
C515 O542 1.289 . S
O516 C515 1.235 . S
C517 C519 1.400 . S
C517 N520 1.351 . S
C517 C522 1.501 . S
C518 C519 1.387 . S
C518 N521 1.341 . S
C519 C517 1.400 . S
C519 C518 1.387 . S
N520 Co511 2.022 . S
N520 C517 1.351 . S
N520 N521 1.365 . S
N521 C518 1.341 . S
N521 N520 1.365 . S
N521 H541 0.862 . S
C522 C517 1.501 . S
C522 H523 0.961 . S
C522 H524 0.961 . S
C522 H525 0.960 . S
H523 C522 0.961 . S
H524 C522 0.961 . S
H525 C522 0.960 . S
C526 N527 1.342 . S
C526 C530 1.401 . S
C526 C531 1.499 . S
N527 Co510 1.989 . S
N527 C526 1.342 . S
N527 N528 1.388 . S
N528 Co511 1.993 . S
N528 N527 1.388 . S
N528 C529 1.346 . S
C529 N528 1.346 . S
C529 C530 1.396 . S
C529 C539 1.510 . S
C530 C526 1.401 . S
C530 C529 1.396 . S
C531 C526 1.499 . S
C531 H532 0.959 . S
C531 H533 0.960 1_556 S
C531 H534 0.944 1_556 S
H532 C531 0.959 . S
H533 C531 0.960 1_554 S
H534 C531 0.944 1_554 S
O535 Co510 1.967 . S
O535 C543 1.258 . S
O536 Co511 1.941 . S
O536 C543 1.266 . S
H537 C539 0.959 . S
H538 C539 0.961 . S
C539 C529 1.510 . S
C539 H537 0.959 . S
C539 H538 0.961 . S
C539 H540 0.960 . S
H540 C539 0.960 . S
H541 N521 0.862 . S
O542 Co510 1.920 . S
O542 C515 1.289 . S
C543 O535 1.258 . S
C543 O536 1.266 . S
Co544 O547 1.970 . S
Co544 N561 1.989 . S
Co544 O569 1.967 . S
Co544 O576 1.920 . S
Co545 O548 1.966 . S
Co545 N554 2.022 . S
Co545 N562 1.993 . S
Co545 O570 1.941 . S
C546 O547 1.258 . S
C546 O548 1.263 . S
O547 Co544 1.970 . S
O547 C546 1.258 . S
O548 Co545 1.966 . S
O548 C546 1.263 . S
C549 O550 1.235 . S
C549 O576 1.289 . S
O550 C549 1.235 . S
C551 C553 1.400 . S
C551 N554 1.351 . S
C551 C556 1.501 . S
C552 C553 1.387 . S
C552 N555 1.341 . S
C553 C551 1.400 . S
C553 C552 1.387 . S
N554 Co545 2.022 . S
N554 C551 1.351 . S
N554 N555 1.365 . S
N555 C552 1.341 . S
N555 N554 1.365 . S
N555 H575 0.862 . S
C556 C551 1.501 . S
C556 H557 0.961 . S
C556 H558 0.961 . S
C556 H559 0.960 . S
H557 C556 0.961 . S
H558 C556 0.961 . S
H559 C556 0.960 . S
C560 N561 1.342 . S
C560 C564 1.401 . S
C560 C565 1.499 . S
N561 Co544 1.989 . S
N561 C560 1.342 . S
N561 N562 1.388 . S
N562 Co545 1.993 . S
N562 N561 1.388 . S
N562 C563 1.346 . S
C563 N562 1.346 . S
C563 C564 1.396 . S
C563 C573 1.510 . S
C564 C560 1.401 . S
C564 C563 1.396 . S
C565 C560 1.499 . S
C565 H566 0.959 . S
C565 H567 0.960 . S
C565 H568 0.961 . S
H566 C565 0.959 . S
H567 C565 0.960 . S
H568 C565 0.961 . S
O569 Co544 1.967 . S
O569 C577 1.258 . S
O570 Co545 1.941 . S
O570 C577 1.266 . S
H571 C573 0.959 . S
H572 C573 0.961 . S
C573 C563 1.510 . S
C573 H571 0.959 . S
C573 H572 0.961 . S
C573 H574 0.960 . S
H574 C573 0.960 . S
H575 N555 0.862 . S
O576 Co544 1.920 . S
O576 C549 1.289 . S
C577 O569 1.258 . S
C577 O570 1.266 . S
Co578 O581 1.970 . S
Co578 N595 1.989 . S
Co578 O603 1.967 . S
Co578 O610 1.920 . S
Co579 O582 1.966 . S
Co579 N588 2.022 . S
Co579 N596 1.993 . S
Co579 O604 1.941 . S
C580 O581 1.258 . S
C580 O582 1.263 . S
O581 Co578 1.970 . S
O581 C580 1.258 . S
O582 Co579 1.966 . S
O582 C580 1.263 . S
C583 O584 1.235 . S
C583 O610 1.289 . S
O584 C583 1.235 . S
C585 C587 1.400 . S
C585 N588 1.351 . S
C585 C590 1.501 . S
C586 C587 1.387 . S
C586 N589 1.341 . S
C587 C585 1.400 . S
C587 C586 1.387 . S
N588 Co579 2.022 . S
N588 C585 1.351 . S
N588 N589 1.365 . S
N589 C586 1.341 . S
N589 N588 1.365 . S
N589 H609 0.862 . S
C590 C585 1.501 . S
C590 H591 0.961 . S
C590 H592 0.961 . S
C590 H593 0.960 . S
H591 C590 0.961 . S
H592 C590 0.961 . S
H593 C590 0.960 . S
C594 N595 1.342 . S
C594 C598 1.401 . S
C594 C599 1.499 . S
N595 Co578 1.989 . S
N595 C594 1.342 . S
N595 N596 1.388 . S
N596 Co579 1.993 . S
N596 N595 1.388 . S
N596 C597 1.346 . S
C597 N596 1.346 . S
C597 C598 1.396 . S
C597 C607 1.510 . S
C598 C594 1.401 . S
C598 C597 1.396 . S
C599 C594 1.499 . S
C599 H600 0.959 . S
C599 H601 0.960 . S
C599 H602 0.961 . S
H600 C599 0.959 . S
H601 C599 0.960 . S
H602 C599 0.961 . S
O603 Co578 1.967 . S
O603 C611 1.258 . S
O604 Co579 1.941 . S
O604 C611 1.266 . S
H605 C607 0.959 . S
H606 C607 0.961 . S
C607 C597 1.510 . S
C607 H605 0.959 . S
C607 H606 0.961 . S
C607 H608 0.960 . S
H608 C607 0.960 . S
H609 N589 0.862 . S
O610 Co578 1.920 . S
O610 C583 1.289 . S
C611 O603 1.258 . S
C611 O604 1.266 . S
Co612 O615 1.970 . S
Co612 N629 1.989 . S
Co612 O637 1.967 . S
Co612 O644 1.920 . S
Co613 O616 1.966 . S
Co613 N622 2.022 . S
Co613 N630 1.993 . S
Co613 O638 1.941 . S
C614 O615 1.258 . S
C614 O616 1.263 . S
O615 Co612 1.970 . S
O615 C614 1.258 . S
O616 Co613 1.966 . S
O616 C614 1.263 . S
C617 O618 1.235 . S
C617 O644 1.289 . S
O618 C617 1.235 . S
C619 C621 1.400 . S
C619 N622 1.351 . S
C619 C624 1.501 . S
C620 C621 1.387 . S
C620 N623 1.341 . S
C621 C619 1.400 . S
C621 C620 1.387 . S
N622 Co613 2.022 . S
N622 C619 1.351 . S
N622 N623 1.365 . S
N623 C620 1.341 . S
N623 N622 1.365 . S
N623 H643 0.862 . S
C624 C619 1.501 . S
C624 H625 0.961 . S
C624 H626 0.961 . S
C624 H627 0.960 . S
H625 C624 0.961 . S
H626 C624 0.961 . S
H627 C624 0.960 . S
C628 N629 1.342 . S
C628 C632 1.401 . S
C628 C633 1.499 . S
N629 Co612 1.989 . S
N629 C628 1.342 . S
N629 N630 1.388 . S
N630 Co613 1.993 . S
N630 N629 1.388 . S
N630 C631 1.346 . S
C631 N630 1.346 . S
C631 C632 1.396 . S
C631 C641 1.510 . S
C632 C628 1.401 . S
C632 C631 1.396 . S
C633 C628 1.499 . S
C633 H634 0.959 . S
C633 H635 0.960 . S
C633 H636 0.961 . S
H634 C633 0.959 . S
H635 C633 0.960 . S
H636 C633 0.961 . S
O637 Co612 1.967 . S
O637 C645 1.258 . S
O638 Co613 1.941 . S
O638 C645 1.266 . S
H639 C641 0.959 . S
H640 C641 0.961 . S
C641 C631 1.510 . S
C641 H639 0.959 . S
C641 H640 0.961 . S
C641 H642 0.960 . S
H642 C641 0.960 . S
H643 N623 0.862 . S
O644 Co612 1.920 . S
O644 C617 1.289 . S
C645 O637 1.258 . S
C645 O638 1.266 . S
Co646 O649 1.970 . S
Co646 N663 1.989 . S
Co646 O671 1.967 . S
Co646 O678 1.920 . S
Co647 O650 1.966 . S
Co647 N656 2.022 . S
Co647 N664 1.993 . S
Co647 O672 1.941 . S
C648 O649 1.258 . S
C648 O650 1.263 . S
O649 Co646 1.970 . S
O649 C648 1.258 . S
O650 Co647 1.966 . S
O650 C648 1.263 . S
C651 O652 1.235 . S
C651 O678 1.289 . S
O652 C651 1.235 . S
C653 C655 1.400 . S
C653 N656 1.351 . S
C653 C658 1.501 . S
C654 C655 1.387 . S
C654 N657 1.341 . S
C655 C653 1.400 . S
C655 C654 1.387 . S
N656 Co647 2.022 . S
N656 C653 1.351 . S
N656 N657 1.365 . S
N657 C654 1.341 . S
N657 N656 1.365 . S
N657 H677 0.862 . S
C658 C653 1.501 . S
C658 H659 0.961 . S
C658 H660 0.961 . S
C658 H661 0.960 . S
H659 C658 0.961 . S
H660 C658 0.961 . S
H661 C658 0.960 . S
C662 N663 1.342 . S
C662 C666 1.401 . S
C662 C667 1.499 . S
N663 Co646 1.989 . S
N663 C662 1.342 . S
N663 N664 1.388 . S
N664 Co647 1.993 . S
N664 N663 1.388 . S
N664 C665 1.346 . S
C665 N664 1.346 . S
C665 C666 1.396 . S
C665 C675 1.510 . S
C666 C662 1.401 . S
C666 C665 1.396 . S
C667 C662 1.499 . S
C667 H668 0.959 . S
C667 H669 0.960 . S
C667 H670 0.961 . S
H668 C667 0.959 . S
H669 C667 0.960 . S
H670 C667 0.961 . S
O671 Co646 1.967 . S
O671 C679 1.258 . S
O672 Co647 1.941 . S
O672 C679 1.266 . S
H673 C675 0.959 . S
H674 C675 0.961 . S
C675 C665 1.510 . S
C675 H673 0.959 . S
C675 H674 0.961 . S
C675 H676 0.960 . S
H676 C675 0.960 . S
H677 N657 0.862 . S
O678 Co646 1.920 . S
O678 C651 1.289 . S
C679 O671 1.258 . S
C679 O672 1.266 . S
Co680 O683 1.970 . S
Co680 N697 1.989 . S
Co680 O705 1.967 . S
Co680 O712 1.920 . S
Co681 O684 1.966 . S
Co681 N690 2.022 . S
Co681 N698 1.993 . S
Co681 O706 1.941 . S
C682 O683 1.258 . S
C682 O684 1.263 . S
O683 Co680 1.970 . S
O683 C682 1.258 . S
O684 Co681 1.966 . S
O684 C682 1.263 . S
C685 O686 1.235 . S
C685 O712 1.289 . S
O686 C685 1.235 . S
C687 C689 1.400 . S
C687 N690 1.351 . S
C687 C692 1.501 . S
C688 C689 1.387 . S
C688 N691 1.341 . S
C689 C687 1.400 . S
C689 C688 1.387 . S
N690 Co681 2.022 . S
N690 C687 1.351 . S
N690 N691 1.365 . S
N691 C688 1.341 . S
N691 N690 1.365 . S
N691 H711 0.862 . S
C692 C687 1.501 . S
C692 H693 0.961 . S
C692 H694 0.961 . S
C692 H695 0.960 . S
H693 C692 0.961 . S
H694 C692 0.961 . S
H695 C692 0.960 . S
C696 N697 1.342 . S
C696 C700 1.401 . S
C696 C701 1.499 . S
N697 Co680 1.989 . S
N697 C696 1.342 . S
N697 N698 1.388 . S
N698 Co681 1.993 . S
N698 N697 1.388 . S
N698 C699 1.346 . S
C699 N698 1.346 . S
C699 C700 1.396 . S
C699 C709 1.510 . S
C700 C696 1.401 . S
C700 C699 1.396 . S
C701 C696 1.499 . S
C701 H702 0.959 . S
C701 H703 0.960 . S
C701 H704 0.961 . S
H702 C701 0.959 . S
H703 C701 0.960 . S
H704 C701 0.961 . S
O705 Co680 1.967 . S
O705 C713 1.258 . S
O706 Co681 1.941 . S
O706 C713 1.266 . S
H707 C709 0.959 . S
H708 C709 0.961 . S
C709 C699 1.510 . S
C709 H707 0.959 . S
C709 H708 0.961 . S
C709 H710 0.960 . S
H710 C709 0.960 . S
H711 N691 0.862 . S
O712 Co680 1.920 . S
O712 C685 1.289 . S
C713 O705 1.258 . S
C713 O706 1.266 . S
Co714 O717 1.970 . S
Co714 N731 1.989 . S
Co714 O739 1.967 . S
Co714 O746 1.920 . S
Co715 O718 1.966 . S
Co715 N724 2.022 . S
Co715 N732 1.993 . S
Co715 O740 1.941 . S
C716 O717 1.258 . S
C716 O718 1.263 . S
O717 Co714 1.970 . S
O717 C716 1.258 . S
O718 Co715 1.966 . S
O718 C716 1.263 . S
C719 O720 1.235 . S
C719 O746 1.289 . S
O720 C719 1.235 . S
C721 C723 1.400 . S
C721 N724 1.351 . S
C721 C726 1.501 . S
C722 C723 1.387 . S
C722 N725 1.341 . S
C723 C721 1.400 . S
C723 C722 1.387 . S
N724 Co715 2.022 . S
N724 C721 1.351 . S
N724 N725 1.365 . S
N725 C722 1.341 . S
N725 N724 1.365 . S
N725 H745 0.862 . S
C726 C721 1.501 . S
C726 H727 0.961 . S
C726 H728 0.961 . S
C726 H729 0.960 . S
H727 C726 0.961 . S
H728 C726 0.961 . S
H729 C726 0.960 . S
C730 N731 1.342 . S
C730 C734 1.401 . S
C730 C735 1.499 . S
N731 Co714 1.989 . S
N731 C730 1.342 . S
N731 N732 1.388 . S
N732 Co715 1.993 . S
N732 N731 1.388 . S
N732 C733 1.346 . S
C733 N732 1.346 . S
C733 C734 1.396 . S
C733 C743 1.510 . S
C734 C730 1.401 . S
C734 C733 1.396 . S
C735 C730 1.499 . S
C735 H736 0.959 . S
C735 H737 0.960 . S
C735 H738 0.961 . S
H736 C735 0.959 . S
H737 C735 0.960 . S
H738 C735 0.961 . S
O739 Co714 1.967 . S
O739 C747 1.258 . S
O740 Co715 1.941 . S
O740 C747 1.266 . S
H741 C743 0.959 . S
H742 C743 0.961 . S
C743 C733 1.510 . S
C743 H741 0.959 . S
C743 H742 0.961 . S
C743 H744 0.960 . S
H744 C743 0.960 . S
H745 N725 0.862 . S
O746 Co714 1.920 . S
O746 C719 1.289 . S
C747 O739 1.258 . S
C747 O740 1.266 . S
Co748 O751 1.970 . S
Co748 N765 1.989 . S
Co748 O773 1.967 . S
Co748 O780 1.920 . S
Co749 O752 1.966 . S
Co749 N758 2.022 . S
Co749 N766 1.993 . S
Co749 O774 1.941 . S
C750 O751 1.258 . S
C750 O752 1.263 . S
O751 Co748 1.970 . S
O751 C750 1.258 . S
O752 Co749 1.966 . S
O752 C750 1.263 . S
C753 O754 1.235 . S
C753 O780 1.289 . S
O754 C753 1.235 . S
C755 C757 1.400 . S
C755 N758 1.351 . S
C755 C760 1.501 . S
C756 C757 1.387 . S
C756 N759 1.341 . S
C757 C755 1.400 . S
C757 C756 1.387 . S
N758 Co749 2.022 . S
N758 C755 1.351 . S
N758 N759 1.365 . S
N759 C756 1.341 . S
N759 N758 1.365 . S
N759 H779 0.862 . S
C760 C755 1.501 . S
C760 H761 0.961 . S
C760 H762 0.961 . S
C760 H763 0.960 . S
H761 C760 0.961 . S
H762 C760 0.961 . S
H763 C760 0.960 . S
C764 N765 1.342 . S
C764 C768 1.401 . S
C764 C769 1.499 . S
N765 Co748 1.989 . S
N765 C764 1.342 . S
N765 N766 1.388 . S
N766 Co749 1.993 . S
N766 N765 1.388 . S
N766 C767 1.346 . S
C767 N766 1.346 . S
C767 C768 1.396 . S
C767 C777 1.510 . S
C768 C764 1.401 . S
C768 C767 1.396 . S
C769 C764 1.499 . S
C769 H770 0.959 . S
C769 H771 0.960 . S
C769 H772 0.961 . S
H770 C769 0.959 . S
H771 C769 0.960 . S
H772 C769 0.961 . S
O773 Co748 1.967 . S
O773 C781 1.258 . S
O774 Co749 1.941 . S
O774 C781 1.266 . S
H775 C777 0.959 . S
H776 C777 0.961 . S
C777 C767 1.510 . S
C777 H775 0.959 . S
C777 H776 0.961 . S
C777 H778 0.960 . S
H778 C777 0.960 . S
H779 N759 0.862 . S
O780 Co748 1.920 . S
O780 C753 1.289 . S
C781 O773 1.258 . S
C781 O774 1.266 . S
Co782 O785 1.970 . S
Co782 N799 1.989 . S
Co782 O807 1.967 . S
Co782 O814 1.920 . S
Co783 O786 1.966 . S
Co783 N792 2.022 . S
Co783 N800 1.993 . S
Co783 O808 1.941 . S
C784 O785 1.258 . S
C784 O786 1.263 . S
O785 Co782 1.970 . S
O785 C784 1.258 . S
O786 Co783 1.966 . S
O786 C784 1.263 . S
C787 O788 1.235 . S
C787 O814 1.289 . S
O788 C787 1.235 . S
C789 C791 1.400 . S
C789 N792 1.351 . S
C789 C794 1.501 . S
C790 C791 1.387 . S
C790 N793 1.341 . S
C791 C789 1.400 . S
C791 C790 1.387 . S
N792 Co783 2.022 . S
N792 C789 1.351 . S
N792 N793 1.365 . S
N793 C790 1.341 . S
N793 N792 1.365 . S
N793 H813 0.862 . S
C794 C789 1.501 . S
C794 H795 0.961 . S
C794 H796 0.961 . S
C794 H797 0.960 . S
H795 C794 0.961 . S
H796 C794 0.961 . S
H797 C794 0.960 . S
C798 N799 1.342 . S
C798 C802 1.401 . S
C798 C803 1.499 . S
N799 Co782 1.989 . S
N799 C798 1.342 . S
N799 N800 1.388 . S
N800 Co783 1.993 . S
N800 N799 1.388 . S
N800 C801 1.346 . S
C801 N800 1.346 . S
C801 C802 1.396 . S
C801 C811 1.510 . S
C802 C798 1.401 . S
C802 C801 1.396 . S
C803 C798 1.499 . S
C803 H804 0.959 . S
C803 H805 0.960 1_545 S
C803 H806 0.944 1_545 S
H804 C803 0.959 . S
H805 C803 0.960 1_565 S
H806 C803 0.944 1_565 S
O807 Co782 1.967 . S
O807 C815 1.258 . S
O808 Co783 1.941 . S
O808 C815 1.266 . S
H809 C811 0.959 . S
H810 C811 0.961 . S
C811 C801 1.510 . S
C811 H809 0.959 . S
C811 H810 0.961 . S
C811 H812 0.960 . S
H812 C811 0.960 . S
H813 N793 0.862 . S
O814 Co782 1.920 . S
O814 C787 1.289 . S
C815 O807 1.258 . S
C815 O808 1.266 . S
Co816 O819 1.970 . S
Co816 N833 1.989 . S
Co816 O841 1.967 . S
Co816 O848 1.920 . S
Co817 O820 1.966 . S
Co817 N826 2.022 . S
Co817 N834 1.993 . S
Co817 O842 1.941 . S
C818 O819 1.258 . S
C818 O820 1.263 . S
O819 Co816 1.970 . S
O819 C818 1.258 . S
O820 Co817 1.966 . S
O820 C818 1.263 . S
C821 O822 1.235 . S
C821 O848 1.289 . S
O822 C821 1.235 . S
C823 C825 1.400 . S
C823 N826 1.351 . S
C823 C828 1.501 . S
C824 C825 1.387 . S
C824 N827 1.341 . S
C825 C823 1.400 . S
C825 C824 1.387 . S
N826 Co817 2.022 . S
N826 C823 1.351 . S
N826 N827 1.365 . S
N827 C824 1.341 . S
N827 N826 1.365 . S
N827 H847 0.862 . S
C828 C823 1.501 . S
C828 H829 0.961 . S
C828 H830 0.961 . S
C828 H831 0.960 . S
H829 C828 0.961 . S
H830 C828 0.961 . S
H831 C828 0.960 . S
C832 N833 1.342 . S
C832 C836 1.401 . S
C832 C837 1.499 . S
N833 Co816 1.989 . S
N833 C832 1.342 . S
N833 N834 1.388 . S
N834 Co817 1.993 . S
N834 N833 1.388 . S
N834 C835 1.346 . S
C835 N834 1.346 . S
C835 C836 1.396 . S
C835 C845 1.510 . S
C836 C832 1.401 . S
C836 C835 1.396 . S
C837 C832 1.499 . S
C837 H838 0.959 . S
C837 H839 0.960 . S
C837 H840 0.961 . S
H838 C837 0.959 . S
H839 C837 0.960 . S
H840 C837 0.961 . S
O841 Co816 1.967 . S
O841 C849 1.258 . S
O842 Co817 1.941 . S
O842 C849 1.266 . S
H843 C845 0.959 . S
H844 C845 0.961 . S
C845 C835 1.510 . S
C845 H843 0.959 . S
C845 H844 0.961 . S
C845 H846 0.960 . S
H846 C845 0.960 . S
H847 N827 0.862 . S
O848 Co816 1.920 . S
O848 C821 1.289 . S
C849 O841 1.258 . S
C849 O842 1.266 . S
Co850 O853 1.970 . S
Co850 N867 1.989 . S
Co850 O875 1.967 . S
Co850 O882 1.920 . S
Co851 O854 1.966 . S
Co851 N860 2.022 . S
Co851 N868 1.993 . S
Co851 O876 1.941 . S
C852 O853 1.258 . S
C852 O854 1.263 . S
O853 Co850 1.970 . S
O853 C852 1.258 . S
O854 Co851 1.966 . S
O854 C852 1.263 . S
C855 O856 1.235 . S
C855 O882 1.289 . S
O856 C855 1.235 . S
C857 C859 1.400 . S
C857 N860 1.351 . S
C857 C862 1.501 . S
C858 C859 1.387 . S
C858 N861 1.341 . S
C859 C857 1.400 . S
C859 C858 1.387 . S
N860 Co851 2.022 . S
N860 C857 1.351 . S
N860 N861 1.365 . S
N861 C858 1.341 . S
N861 N860 1.365 . S
N861 H881 0.862 . S
C862 C857 1.501 . S
C862 H863 0.961 . S
C862 H864 0.961 . S
C862 H865 0.960 . S
H863 C862 0.961 . S
H864 C862 0.961 . S
H865 C862 0.960 . S
C866 N867 1.342 . S
C866 C870 1.401 . S
C866 C871 1.499 . S
N867 Co850 1.989 . S
N867 C866 1.342 . S
N867 N868 1.388 . S
N868 Co851 1.993 . S
N868 N867 1.388 . S
N868 C869 1.346 . S
C869 N868 1.346 . S
C869 C870 1.396 . S
C869 C879 1.510 . S
C870 C866 1.401 . S
C870 C869 1.396 . S
C871 C866 1.499 . S
C871 H872 0.959 . S
C871 H873 0.960 1_655 S
C871 H874 0.944 1_655 S
H872 C871 0.959 . S
H873 C871 0.960 1_455 S
H874 C871 0.944 1_455 S
O875 Co850 1.967 . S
O875 C883 1.258 . S
O876 Co851 1.941 . S
O876 C883 1.266 . S
H877 C879 0.959 . S
H878 C879 0.961 . S
C879 C869 1.510 . S
C879 H877 0.959 . S
C879 H878 0.961 . S
C879 H880 0.960 . S
H880 C879 0.960 . S
H881 N861 0.862 . S
O882 Co850 1.920 . S
O882 C855 1.289 . S
C883 O875 1.258 . S
C883 O876 1.266 . S
Co884 O887 1.970 . S
Co884 N901 1.989 . S
Co884 O909 1.967 . S
Co884 O916 1.920 . S
Co885 O888 1.966 . S
Co885 N894 2.022 . S
Co885 N902 1.993 . S
Co885 O910 1.941 . S
C886 O887 1.258 . S
C886 O888 1.263 . S
O887 Co884 1.970 . S
O887 C886 1.258 . S
O888 Co885 1.966 . S
O888 C886 1.263 . S
C889 O890 1.235 . S
C889 O916 1.289 . S
O890 C889 1.235 . S
C891 C893 1.400 . S
C891 N894 1.351 . S
C891 C896 1.501 . S
C892 C893 1.387 . S
C892 N895 1.341 . S
C893 C891 1.400 . S
C893 C892 1.387 . S
N894 Co885 2.022 . S
N894 C891 1.351 . S
N894 N895 1.365 . S
N895 C892 1.341 . S
N895 N894 1.365 . S
N895 H915 0.862 . S
C896 C891 1.501 . S
C896 H897 0.961 . S
C896 H898 0.961 . S
C896 H899 0.960 . S
H897 C896 0.961 . S
H898 C896 0.961 . S
H899 C896 0.960 . S
C900 N901 1.342 . S
C900 C904 1.401 . S
C900 C905 1.499 . S
N901 Co884 1.989 . S
N901 C900 1.342 . S
N901 N902 1.388 . S
N902 Co885 1.993 . S
N902 N901 1.388 . S
N902 C903 1.346 . S
C903 N902 1.346 . S
C903 C904 1.396 . S
C903 C913 1.510 . S
C904 C900 1.401 . S
C904 C903 1.396 . S
C905 C900 1.499 . S
C905 H906 0.959 . S
C905 H907 0.960 . S
C905 H908 0.961 . S
H906 C905 0.959 . S
H907 C905 0.960 . S
H908 C905 0.961 . S
O909 Co884 1.967 . S
O909 C917 1.258 . S
O910 Co885 1.941 . S
O910 C917 1.266 . S
H911 C913 0.959 . S
H912 C913 0.961 . S
C913 C903 1.510 . S
C913 H911 0.959 . S
C913 H912 0.961 . S
C913 H914 0.960 . S
H914 C913 0.960 . S
H915 N895 0.862 . S
O916 Co884 1.920 . S
O916 C889 1.289 . S
C917 O909 1.258 . S
C917 O910 1.266 . S
Co918 O921 1.970 . S
Co918 N935 1.989 . S
Co918 O943 1.967 . S
Co918 O950 1.920 . S
Co919 O922 1.966 . S
Co919 N928 2.022 . S
Co919 N936 1.993 . S
Co919 O944 1.941 . S
C920 O921 1.258 . S
C920 O922 1.263 . S
O921 Co918 1.970 . S
O921 C920 1.258 . S
O922 Co919 1.966 . S
O922 C920 1.263 . S
C923 O924 1.235 . S
C923 O950 1.289 . S
O924 C923 1.235 . S
C925 C927 1.400 . S
C925 N928 1.351 . S
C925 C930 1.501 . S
C926 C927 1.387 . S
C926 N929 1.341 . S
C927 C925 1.400 . S
C927 C926 1.387 . S
N928 Co919 2.022 . S
N928 C925 1.351 . S
N928 N929 1.365 . S
N929 C926 1.341 . S
N929 N928 1.365 . S
N929 H949 0.862 . S
C930 C925 1.501 . S
C930 H931 0.961 . S
C930 H932 0.961 . S
C930 H933 0.960 . S
H931 C930 0.961 . S
H932 C930 0.961 . S
H933 C930 0.960 . S
C934 N935 1.342 . S
C934 C938 1.401 . S
C934 C939 1.499 . S
N935 Co918 1.989 . S
N935 C934 1.342 . S
N935 N936 1.388 . S
N936 Co919 1.993 . S
N936 N935 1.388 . S
N936 C937 1.346 . S
C937 N936 1.346 . S
C937 C938 1.396 . S
C937 C947 1.510 . S
C938 C934 1.401 . S
C938 C937 1.396 . S
C939 C934 1.499 . S
C939 H940 0.959 . S
C939 H941 0.960 1_455 S
C939 H942 0.944 1_455 S
H940 C939 0.959 . S
H941 C939 0.960 1_655 S
H942 C939 0.944 1_655 S
O943 Co918 1.967 . S
O943 C951 1.258 . S
O944 Co919 1.941 . S
O944 C951 1.266 . S
H945 C947 0.959 . S
H946 C947 0.961 . S
C947 C937 1.510 . S
C947 H945 0.959 . S
C947 H946 0.961 . S
C947 H948 0.960 . S
H948 C947 0.960 . S
H949 N929 0.862 . S
O950 Co918 1.920 . S
O950 C923 1.289 . S
C951 O943 1.258 . S
C951 O944 1.266 . S
Co952 O955 1.970 . S
Co952 N969 1.989 . S
Co952 O977 1.967 . S
Co952 O984 1.920 . S
Co953 O956 1.966 . S
Co953 N962 2.022 . S
Co953 N970 1.993 . S
Co953 O978 1.941 . S
C954 O955 1.258 . S
C954 O956 1.263 . S
O955 Co952 1.970 . S
O955 C954 1.258 . S
O956 Co953 1.966 . S
O956 C954 1.263 . S
C957 O958 1.235 . S
C957 O984 1.289 . S
O958 C957 1.235 . S
C959 C961 1.400 . S
C959 N962 1.351 . S
C959 C964 1.501 . S
C960 C961 1.387 . S
C960 N963 1.341 . S
C961 C959 1.400 . S
C961 C960 1.387 . S
N962 Co953 2.022 . S
N962 C959 1.351 . S
N962 N963 1.365 . S
N963 C960 1.341 . S
N963 N962 1.365 . S
N963 H983 0.862 . S
C964 C959 1.501 . S
C964 H965 0.961 . S
C964 H966 0.961 . S
C964 H967 0.960 . S
H965 C964 0.961 . S
H966 C964 0.961 . S
H967 C964 0.960 . S
C968 N969 1.342 . S
C968 C972 1.401 . S
C968 C973 1.499 . S
N969 Co952 1.989 . S
N969 C968 1.342 . S
N969 N970 1.388 . S
N970 Co953 1.993 . S
N970 N969 1.388 . S
N970 C971 1.346 . S
C971 N970 1.346 . S
C971 C972 1.396 . S
C971 C981 1.510 . S
C972 C968 1.401 . S
C972 C971 1.396 . S
C973 C968 1.499 . S
C973 H974 0.959 . S
C973 H975 0.960 . S
C973 H976 0.961 . S
H974 C973 0.959 . S
H975 C973 0.960 . S
H976 C973 0.961 . S
O977 Co952 1.967 . S
O977 C985 1.258 . S
O978 Co953 1.941 . S
O978 C985 1.266 . S
H979 C981 0.959 . S
H980 C981 0.961 . S
C981 C971 1.510 . S
C981 H979 0.959 . S
C981 H980 0.961 . S
C981 H982 0.960 . S
H982 C981 0.960 . S
H983 N963 0.862 . S
O984 Co952 1.920 . S
O984 C957 1.289 . S
C985 O977 1.258 . S
C985 O978 1.266 . S
Co986 O989 1.970 . S
Co986 N1003 1.989 . S
Co986 O1011 1.967 . S
Co986 O1018 1.920 . S
Co987 O990 1.966 . S
Co987 N996 2.022 . S
Co987 N1004 1.993 . S
Co987 O1012 1.941 . S
C988 O989 1.258 . S
C988 O990 1.263 . S
O989 Co986 1.970 . S
O989 C988 1.258 . S
O990 Co987 1.966 . S
O990 C988 1.263 . S
C991 O992 1.235 . S
C991 O1018 1.289 . S
O992 C991 1.235 . S
C993 C995 1.400 . S
C993 N996 1.351 . S
C993 C998 1.501 . S
C994 C995 1.387 . S
C994 N997 1.341 . S
C995 C993 1.400 . S
C995 C994 1.387 . S
N996 Co987 2.022 . S
N996 C993 1.351 . S
N996 N997 1.365 . S
N997 C994 1.341 . S
N997 N996 1.365 . S
N997 H1017 0.862 . S
C998 C993 1.501 . S
C998 H999 0.961 . S
C998 H1000 0.961 . S
C998 H1001 0.960 . S
H999 C998 0.961 . S
H1000 C998 0.961 . S
H1001 C998 0.960 . S
C1002 N1003 1.342 . S
C1002 C1006 1.401 . S
C1002 C1007 1.499 . S
N1003 Co986 1.989 . S
N1003 C1002 1.342 . S
N1003 N1004 1.388 . S
N1004 Co987 1.993 . S
N1004 N1003 1.388 . S
N1004 C1005 1.346 . S
C1005 N1004 1.346 . S
C1005 C1006 1.396 . S
C1005 C1015 1.510 . S
C1006 C1002 1.401 . S
C1006 C1005 1.396 . S
C1007 C1002 1.499 . S
C1007 H1008 0.959 . S
C1007 H1009 0.960 . S
C1007 H1010 0.961 . S
H1008 C1007 0.959 . S
H1009 C1007 0.960 . S
H1010 C1007 0.961 . S
O1011 Co986 1.967 . S
O1011 C1019 1.258 . S
O1012 Co987 1.941 . S
O1012 C1019 1.266 . S
H1013 C1015 0.959 . S
H1014 C1015 0.961 . S
C1015 C1005 1.510 . S
C1015 H1013 0.959 . S
C1015 H1014 0.961 . S
C1015 H1016 0.960 . S
H1016 C1015 0.960 . S
H1017 N997 0.862 . S
O1018 Co986 1.920 . S
O1018 C991 1.289 . S
C1019 O1011 1.258 . S
C1019 O1012 1.266 . S
Co1020 O1023 1.970 . S
Co1020 N1037 1.989 . S
Co1020 O1045 1.967 . S
Co1020 O1052 1.920 . S
Co1021 O1024 1.966 . S
Co1021 N1030 2.022 . S
Co1021 N1038 1.993 . S
Co1021 O1046 1.941 . S
C1022 O1023 1.258 . S
C1022 O1024 1.263 . S
O1023 Co1020 1.970 . S
O1023 C1022 1.258 . S
O1024 Co1021 1.966 . S
O1024 C1022 1.263 . S
C1025 O1026 1.235 . S
C1025 O1052 1.289 . S
O1026 C1025 1.235 . S
C1027 C1029 1.400 . S
C1027 N1030 1.351 . S
C1027 C1032 1.501 . S
C1028 C1029 1.387 . S
C1028 N1031 1.341 . S
C1029 C1027 1.400 . S
C1029 C1028 1.387 . S
N1030 Co1021 2.022 . S
N1030 C1027 1.351 . S
N1030 N1031 1.365 . S
N1031 C1028 1.341 . S
N1031 N1030 1.365 . S
N1031 H1051 0.862 . S
C1032 C1027 1.501 . S
C1032 H1033 0.961 . S
C1032 H1034 0.961 . S
C1032 H1035 0.960 . S
H1033 C1032 0.961 . S
H1034 C1032 0.961 . S
H1035 C1032 0.960 . S
C1036 N1037 1.342 . S
C1036 C1040 1.401 . S
C1036 C1041 1.499 . S
N1037 Co1020 1.989 . S
N1037 C1036 1.342 . S
N1037 N1038 1.388 . S
N1038 Co1021 1.993 . S
N1038 N1037 1.388 . S
N1038 C1039 1.346 . S
C1039 N1038 1.346 . S
C1039 C1040 1.396 . S
C1039 C1049 1.510 . S
C1040 C1036 1.401 . S
C1040 C1039 1.396 . S
C1041 C1036 1.499 . S
C1041 H1042 0.959 . S
C1041 H1043 0.960 . S
C1041 H1044 0.961 . S
H1042 C1041 0.959 . S
H1043 C1041 0.960 . S
H1044 C1041 0.961 . S
O1045 Co1020 1.967 . S
O1045 C1053 1.258 . S
O1046 Co1021 1.941 . S
O1046 C1053 1.266 . S
H1047 C1049 0.959 . S
H1048 C1049 0.961 . S
C1049 C1039 1.510 . S
C1049 H1047 0.959 . S
C1049 H1048 0.961 . S
C1049 H1050 0.960 . S
H1050 C1049 0.960 . S
H1051 N1031 0.862 . S
O1052 Co1020 1.920 . S
O1052 C1025 1.289 . S
C1053 O1045 1.258 . S
C1053 O1046 1.266 . S
Co1054 O1057 1.970 . S
Co1054 N1071 1.989 . S
Co1054 O1079 1.967 . S
Co1054 O1086 1.920 . S
Co1055 O1058 1.966 . S
Co1055 N1064 2.022 . S
Co1055 N1072 1.993 . S
Co1055 O1080 1.941 . S
C1056 O1057 1.258 . S
C1056 O1058 1.263 . S
O1057 Co1054 1.970 . S
O1057 C1056 1.258 . S
O1058 Co1055 1.966 . S
O1058 C1056 1.263 . S
C1059 O1060 1.235 . S
C1059 O1086 1.289 . S
O1060 C1059 1.235 . S
C1061 C1063 1.400 . S
C1061 N1064 1.351 . S
C1061 C1066 1.501 . S
C1062 C1063 1.387 . S
C1062 N1065 1.341 . S
C1063 C1061 1.400 . S
C1063 C1062 1.387 . S
N1064 Co1055 2.022 . S
N1064 C1061 1.351 . S
N1064 N1065 1.365 . S
N1065 C1062 1.341 . S
N1065 N1064 1.365 . S
N1065 H1085 0.862 . S
C1066 C1061 1.501 . S
C1066 H1067 0.961 . S
C1066 H1068 0.961 . S
C1066 H1069 0.960 . S
H1067 C1066 0.961 . S
H1068 C1066 0.961 . S
H1069 C1066 0.960 . S
C1070 N1071 1.342 . S
C1070 C1074 1.401 . S
C1070 C1075 1.499 . S
N1071 Co1054 1.989 . S
N1071 C1070 1.342 . S
N1071 N1072 1.388 . S
N1072 Co1055 1.993 . S
N1072 N1071 1.388 . S
N1072 C1073 1.346 . S
C1073 N1072 1.346 . S
C1073 C1074 1.396 . S
C1073 C1083 1.510 . S
C1074 C1070 1.401 . S
C1074 C1073 1.396 . S
C1075 C1070 1.499 . S
C1075 H1076 0.959 . S
C1075 H1077 0.960 . S
C1075 H1078 0.961 . S
H1076 C1075 0.959 . S
H1077 C1075 0.960 . S
H1078 C1075 0.961 . S
O1079 Co1054 1.967 . S
O1079 C1087 1.258 . S
O1080 Co1055 1.941 . S
O1080 C1087 1.266 . S
H1081 C1083 0.959 . S
H1082 C1083 0.961 . S
C1083 C1073 1.510 . S
C1083 H1081 0.959 . S
C1083 H1082 0.961 . S
C1083 H1084 0.960 . S
H1084 C1083 0.960 . S
H1085 N1065 0.862 . S
O1086 Co1054 1.920 . S
O1086 C1059 1.289 . S
C1087 O1079 1.258 . S
C1087 O1080 1.266 . S
Co1088 O1091 1.970 . S
Co1088 N1105 1.989 . S
Co1088 O1113 1.967 . S
Co1088 O1120 1.920 . S
Co1089 O1092 1.966 . S
Co1089 N1098 2.022 . S
Co1089 N1106 1.993 . S
Co1089 O1114 1.941 . S
C1090 O1091 1.258 . S
C1090 O1092 1.263 . S
O1091 Co1088 1.970 . S
O1091 C1090 1.258 . S
O1092 Co1089 1.966 . S
O1092 C1090 1.263 . S
C1093 O1094 1.235 . S
C1093 O1120 1.289 . S
O1094 C1093 1.235 . S
C1095 C1097 1.400 . S
C1095 N1098 1.351 . S
C1095 C1100 1.501 . S
C1096 C1097 1.387 . S
C1096 N1099 1.341 . S
C1097 C1095 1.400 . S
C1097 C1096 1.387 . S
N1098 Co1089 2.022 . S
N1098 C1095 1.351 . S
N1098 N1099 1.365 . S
N1099 C1096 1.341 . S
N1099 N1098 1.365 . S
N1099 H1119 0.862 . S
C1100 C1095 1.501 . S
C1100 H1101 0.961 . S
C1100 H1102 0.961 . S
C1100 H1103 0.960 . S
H1101 C1100 0.961 . S
H1102 C1100 0.961 . S
H1103 C1100 0.960 . S
C1104 N1105 1.342 . S
C1104 C1108 1.401 . S
C1104 C1109 1.499 . S
N1105 Co1088 1.989 . S
N1105 C1104 1.342 . S
N1105 N1106 1.388 . S
N1106 Co1089 1.993 . S
N1106 N1105 1.388 . S
N1106 C1107 1.346 . S
C1107 N1106 1.346 . S
C1107 C1108 1.396 . S
C1107 C1117 1.510 . S
C1108 C1104 1.401 . S
C1108 C1107 1.396 . S
C1109 C1104 1.499 . S
C1109 H1110 0.959 . S
C1109 H1111 0.960 . S
C1109 H1112 0.961 . S
H1110 C1109 0.959 . S
H1111 C1109 0.960 . S
H1112 C1109 0.961 . S
O1113 Co1088 1.967 . S
O1113 C1121 1.258 . S
O1114 Co1089 1.941 . S
O1114 C1121 1.266 . S
H1115 C1117 0.959 . S
H1116 C1117 0.961 . S
C1117 C1107 1.510 . S
C1117 H1115 0.959 . S
C1117 H1116 0.961 . S
C1117 H1118 0.960 . S
H1118 C1117 0.960 . S
H1119 N1099 0.862 . S
O1120 Co1088 1.920 . S
O1120 C1093 1.289 . S
C1121 O1113 1.258 . S
C1121 O1114 1.266 . S
Co1122 O1125 1.970 . S
Co1122 N1139 1.989 . S
Co1122 O1147 1.967 . S
Co1122 O1154 1.920 . S
Co1123 O1126 1.966 . S
Co1123 N1132 2.022 . S
Co1123 N1140 1.993 . S
Co1123 O1148 1.941 . S
C1124 O1125 1.258 . S
C1124 O1126 1.263 . S
O1125 Co1122 1.970 . S
O1125 C1124 1.258 . S
O1126 Co1123 1.966 . S
O1126 C1124 1.263 . S
C1127 O1128 1.235 . S
C1127 O1154 1.289 . S
O1128 C1127 1.235 . S
C1129 C1131 1.400 . S
C1129 N1132 1.351 . S
C1129 C1134 1.501 . S
C1130 C1131 1.387 . S
C1130 N1133 1.341 . S
C1131 C1129 1.400 . S
C1131 C1130 1.387 . S
N1132 Co1123 2.022 . S
N1132 C1129 1.351 . S
N1132 N1133 1.365 . S
N1133 C1130 1.341 . S
N1133 N1132 1.365 . S
N1133 H1153 0.862 . S
C1134 C1129 1.501 . S
C1134 H1135 0.961 . S
C1134 H1136 0.961 . S
C1134 H1137 0.960 . S
H1135 C1134 0.961 . S
H1136 C1134 0.961 . S
H1137 C1134 0.960 . S
C1138 N1139 1.342 . S
C1138 C1142 1.401 . S
C1138 C1143 1.499 . S
N1139 Co1122 1.989 . S
N1139 C1138 1.342 . S
N1139 N1140 1.388 . S
N1140 Co1123 1.993 . S
N1140 N1139 1.388 . S
N1140 C1141 1.346 . S
C1141 N1140 1.346 . S
C1141 C1142 1.396 . S
C1141 C1151 1.510 . S
C1142 C1138 1.401 . S
C1142 C1141 1.396 . S
C1143 C1138 1.499 . S
C1143 H1144 0.959 . S
C1143 H1145 0.960 . S
C1143 H1146 0.961 . S
H1144 C1143 0.959 . S
H1145 C1143 0.960 . S
H1146 C1143 0.961 . S
O1147 Co1122 1.967 . S
O1147 C1155 1.258 . S
O1148 Co1123 1.941 . S
O1148 C1155 1.266 . S
H1149 C1151 0.959 . S
H1150 C1151 0.961 . S
C1151 C1141 1.510 . S
C1151 H1149 0.959 . S
C1151 H1150 0.961 . S
C1151 H1152 0.960 . S
H1152 C1151 0.960 . S
H1153 N1133 0.862 . S
O1154 Co1122 1.920 . S
O1154 C1127 1.289 . S
C1155 O1147 1.258 . S
C1155 O1148 1.266 . S
Co1156 O1159 1.970 . S
Co1156 N1173 1.989 . S
Co1156 O1181 1.967 . S
Co1156 O1188 1.920 . S
Co1157 O1160 1.966 . S
Co1157 N1166 2.022 . S
Co1157 N1174 1.993 . S
Co1157 O1182 1.941 . S
C1158 O1159 1.258 . S
C1158 O1160 1.263 . S
O1159 Co1156 1.970 . S
O1159 C1158 1.258 . S
O1160 Co1157 1.966 . S
O1160 C1158 1.263 . S
C1161 O1162 1.235 . S
C1161 O1188 1.289 . S
O1162 C1161 1.235 . S
C1163 C1165 1.400 . S
C1163 N1166 1.351 . S
C1163 C1168 1.501 . S
C1164 C1165 1.387 . S
C1164 N1167 1.341 . S
C1165 C1163 1.400 . S
C1165 C1164 1.387 . S
N1166 Co1157 2.022 . S
N1166 C1163 1.351 . S
N1166 N1167 1.365 . S
N1167 C1164 1.341 . S
N1167 N1166 1.365 . S
N1167 H1187 0.862 . S
C1168 C1163 1.501 . S
C1168 H1169 0.961 . S
C1168 H1170 0.961 . S
C1168 H1171 0.960 . S
H1169 C1168 0.961 . S
H1170 C1168 0.961 . S
H1171 C1168 0.960 . S
C1172 N1173 1.342 . S
C1172 C1176 1.401 . S
C1172 C1177 1.499 . S
N1173 Co1156 1.989 . S
N1173 C1172 1.342 . S
N1173 N1174 1.388 . S
N1174 Co1157 1.993 . S
N1174 N1173 1.388 . S
N1174 C1175 1.346 . S
C1175 N1174 1.346 . S
C1175 C1176 1.396 . S
C1175 C1185 1.510 . S
C1176 C1172 1.401 . S
C1176 C1175 1.396 . S
C1177 C1172 1.499 . S
C1177 H1178 0.959 . S
C1177 H1179 0.960 . S
C1177 H1180 0.961 . S
H1178 C1177 0.959 . S
H1179 C1177 0.960 . S
H1180 C1177 0.961 . S
O1181 Co1156 1.967 . S
O1181 C1189 1.258 . S
O1182 Co1157 1.941 . S
O1182 C1189 1.266 . S
H1183 C1185 0.959 . S
H1184 C1185 0.961 . S
C1185 C1175 1.510 . S
C1185 H1183 0.959 . S
C1185 H1184 0.961 . S
C1185 H1186 0.960 . S
H1186 C1185 0.960 . S
H1187 N1167 0.862 . S
O1188 Co1156 1.920 . S
O1188 C1161 1.289 . S
C1189 O1181 1.258 . S
C1189 O1182 1.266 . S
Co1190 O1193 1.970 . S
Co1190 N1207 1.989 . S
Co1190 O1215 1.967 . S
Co1190 O1222 1.920 . S
Co1191 O1194 1.966 . S
Co1191 N1200 2.022 . S
Co1191 N1208 1.993 . S
Co1191 O1216 1.941 . S
C1192 O1193 1.258 . S
C1192 O1194 1.263 . S
O1193 Co1190 1.970 . S
O1193 C1192 1.258 . S
O1194 Co1191 1.966 . S
O1194 C1192 1.263 . S
C1195 O1196 1.235 . S
C1195 O1222 1.289 . S
O1196 C1195 1.235 . S
C1197 C1199 1.400 . S
C1197 N1200 1.351 . S
C1197 C1202 1.501 . S
C1198 C1199 1.387 . S
C1198 N1201 1.341 . S
C1199 C1197 1.400 . S
C1199 C1198 1.387 . S
N1200 Co1191 2.022 . S
N1200 C1197 1.351 . S
N1200 N1201 1.365 . S
N1201 C1198 1.341 . S
N1201 N1200 1.365 . S
N1201 H1221 0.862 . S
C1202 C1197 1.501 . S
C1202 H1203 0.961 . S
C1202 H1204 0.961 . S
C1202 H1205 0.960 . S
H1203 C1202 0.961 . S
H1204 C1202 0.961 . S
H1205 C1202 0.960 . S
C1206 N1207 1.342 . S
C1206 C1210 1.401 . S
C1206 C1211 1.499 . S
N1207 Co1190 1.989 . S
N1207 C1206 1.342 . S
N1207 N1208 1.388 . S
N1208 Co1191 1.993 . S
N1208 N1207 1.388 . S
N1208 C1209 1.346 . S
C1209 N1208 1.346 . S
C1209 C1210 1.396 . S
C1209 C1219 1.510 . S
C1210 C1206 1.401 . S
C1210 C1209 1.396 . S
C1211 C1206 1.499 . S
C1211 H1212 0.959 . S
C1211 H1213 0.960 . S
C1211 H1214 0.961 . S
H1212 C1211 0.959 . S
H1213 C1211 0.960 . S
H1214 C1211 0.961 . S
O1215 Co1190 1.967 . S
O1215 C1223 1.258 . S
O1216 Co1191 1.941 . S
O1216 C1223 1.266 . S
H1217 C1219 0.959 . S
H1218 C1219 0.961 . S
C1219 C1209 1.510 . S
C1219 H1217 0.959 . S
C1219 H1218 0.961 . S
C1219 H1220 0.960 . S
H1220 C1219 0.960 . S
H1221 N1201 0.862 . S
O1222 Co1190 1.920 . S
O1222 C1195 1.289 . S
C1223 O1215 1.258 . S
C1223 O1216 1.266 . S
Co1224 O1227 1.970 . S
Co1224 N1241 1.989 . S
Co1224 O1249 1.967 . S
Co1224 O1256 1.920 . S
Co1225 O1228 1.966 . S
Co1225 N1234 2.022 . S
Co1225 N1242 1.993 . S
Co1225 O1250 1.941 . S
C1226 O1227 1.258 . S
C1226 O1228 1.263 . S
O1227 Co1224 1.970 . S
O1227 C1226 1.258 . S
O1228 Co1225 1.966 . S
O1228 C1226 1.263 . S
C1229 O1230 1.235 . S
C1229 O1256 1.289 . S
O1230 C1229 1.235 . S
C1231 C1233 1.400 . S
C1231 N1234 1.351 . S
C1231 C1236 1.501 . S
C1232 C1233 1.387 . S
C1232 N1235 1.341 . S
C1233 C1231 1.400 . S
C1233 C1232 1.387 . S
N1234 Co1225 2.022 . S
N1234 C1231 1.351 . S
N1234 N1235 1.365 . S
N1235 C1232 1.341 . S
N1235 N1234 1.365 . S
N1235 H1255 0.862 . S
C1236 C1231 1.501 . S
C1236 H1237 0.961 . S
C1236 H1238 0.961 . S
C1236 H1239 0.960 . S
H1237 C1236 0.961 . S
H1238 C1236 0.961 . S
H1239 C1236 0.960 . S
C1240 N1241 1.342 . S
C1240 C1244 1.401 . S
C1240 C1245 1.499 . S
N1241 Co1224 1.989 . S
N1241 C1240 1.342 . S
N1241 N1242 1.388 . S
N1242 Co1225 1.993 . S
N1242 N1241 1.388 . S
N1242 C1243 1.346 . S
C1243 N1242 1.346 . S
C1243 C1244 1.396 . S
C1243 C1253 1.510 . S
C1244 C1240 1.401 . S
C1244 C1243 1.396 . S
C1245 C1240 1.499 . S
C1245 H1246 0.959 . S
C1245 H1247 0.960 . S
C1245 H1248 0.961 . S
H1246 C1245 0.959 . S
H1247 C1245 0.960 . S
H1248 C1245 0.961 . S
O1249 Co1224 1.967 . S
O1249 C1257 1.258 . S
O1250 Co1225 1.941 . S
O1250 C1257 1.266 . S
H1251 C1253 0.959 . S
H1252 C1253 0.961 . S
C1253 C1243 1.510 . S
C1253 H1251 0.959 . S
C1253 H1252 0.961 . S
C1253 H1254 0.960 . S
H1254 C1253 0.960 . S
H1255 N1235 0.862 . S
O1256 Co1224 1.920 . S
O1256 C1229 1.289 . S
C1257 O1249 1.258 . S
C1257 O1250 1.266 . S
Co1258 O1261 1.970 . S
Co1258 N1275 1.989 . S
Co1258 O1283 1.967 . S
Co1258 O1290 1.920 . S
Co1259 O1262 1.966 . S
Co1259 N1268 2.022 . S
Co1259 N1276 1.993 . S
Co1259 O1284 1.941 . S
C1260 O1261 1.258 . S
C1260 O1262 1.263 . S
O1261 Co1258 1.970 . S
O1261 C1260 1.258 . S
O1262 Co1259 1.966 . S
O1262 C1260 1.263 . S
C1263 O1264 1.235 . S
C1263 O1290 1.289 . S
O1264 C1263 1.235 . S
C1265 C1267 1.400 . S
C1265 N1268 1.351 . S
C1265 C1270 1.501 . S
C1266 C1267 1.387 . S
C1266 N1269 1.341 . S
C1267 C1265 1.400 . S
C1267 C1266 1.387 . S
N1268 Co1259 2.022 . S
N1268 C1265 1.351 . S
N1268 N1269 1.365 . S
N1269 C1266 1.341 . S
N1269 N1268 1.365 . S
N1269 H1289 0.862 . S
C1270 C1265 1.501 . S
C1270 H1271 0.961 . S
C1270 H1272 0.961 . S
C1270 H1273 0.960 . S
H1271 C1270 0.961 . S
H1272 C1270 0.961 . S
H1273 C1270 0.960 . S
C1274 N1275 1.342 . S
C1274 C1278 1.401 . S
C1274 C1279 1.499 . S
N1275 Co1258 1.989 . S
N1275 C1274 1.342 . S
N1275 N1276 1.388 . S
N1276 Co1259 1.993 . S
N1276 N1275 1.388 . S
N1276 C1277 1.346 . S
C1277 N1276 1.346 . S
C1277 C1278 1.396 . S
C1277 C1287 1.510 . S
C1278 C1274 1.401 . S
C1278 C1277 1.396 . S
C1279 C1274 1.499 . S
C1279 H1280 0.959 . S
C1279 H1281 0.960 . S
C1279 H1282 0.961 . S
H1280 C1279 0.959 . S
H1281 C1279 0.960 . S
H1282 C1279 0.961 . S
O1283 Co1258 1.967 . S
O1283 C1291 1.258 . S
O1284 Co1259 1.941 . S
O1284 C1291 1.266 . S
H1285 C1287 0.959 . S
H1286 C1287 0.961 . S
C1287 C1277 1.510 . S
C1287 H1285 0.959 . S
C1287 H1286 0.961 . S
C1287 H1288 0.960 . S
H1288 C1287 0.960 . S
H1289 N1269 0.862 . S
O1290 Co1258 1.920 . S
O1290 C1263 1.289 . S
C1291 O1283 1.258 . S
C1291 O1284 1.266 . S
Co1292 O1295 1.970 . S
Co1292 N1309 1.989 . S
Co1292 O1317 1.967 . S
Co1292 O1324 1.920 . S
Co1293 O1296 1.966 . S
Co1293 N1302 2.022 . S
Co1293 N1310 1.993 . S
Co1293 O1318 1.941 . S
C1294 O1295 1.258 . S
C1294 O1296 1.263 . S
O1295 Co1292 1.970 . S
O1295 C1294 1.258 . S
O1296 Co1293 1.966 . S
O1296 C1294 1.263 . S
C1297 O1298 1.235 . S
C1297 O1324 1.289 . S
O1298 C1297 1.235 . S
C1299 C1301 1.400 . S
C1299 N1302 1.351 . S
C1299 C1304 1.501 . S
C1300 C1301 1.387 . S
C1300 N1303 1.341 . S
C1301 C1299 1.400 . S
C1301 C1300 1.387 . S
N1302 Co1293 2.022 . S
N1302 C1299 1.351 . S
N1302 N1303 1.365 . S
N1303 C1300 1.341 . S
N1303 N1302 1.365 . S
N1303 H1323 0.862 . S
C1304 C1299 1.501 . S
C1304 H1305 0.961 . S
C1304 H1306 0.961 . S
C1304 H1307 0.960 . S
H1305 C1304 0.961 . S
H1306 C1304 0.961 . S
H1307 C1304 0.960 . S
C1308 N1309 1.342 . S
C1308 C1312 1.401 . S
C1308 C1313 1.499 . S
N1309 Co1292 1.989 . S
N1309 C1308 1.342 . S
N1309 N1310 1.388 . S
N1310 Co1293 1.993 . S
N1310 N1309 1.388 . S
N1310 C1311 1.346 . S
C1311 N1310 1.346 . S
C1311 C1312 1.396 . S
C1311 C1321 1.510 . S
C1312 C1308 1.401 . S
C1312 C1311 1.396 . S
C1313 C1308 1.499 . S
C1313 H1314 0.959 . S
C1313 H1315 0.960 . S
C1313 H1316 0.961 . S
H1314 C1313 0.959 . S
H1315 C1313 0.960 . S
H1316 C1313 0.961 . S
O1317 Co1292 1.967 . S
O1317 C1325 1.258 . S
O1318 Co1293 1.941 . S
O1318 C1325 1.266 . S
H1319 C1321 0.959 . S
H1320 C1321 0.961 . S
C1321 C1311 1.510 . S
C1321 H1319 0.959 . S
C1321 H1320 0.961 . S
C1321 H1322 0.960 . S
H1322 C1321 0.960 . S
H1323 N1303 0.862 . S
O1324 Co1292 1.920 . S
O1324 C1297 1.289 . S
C1325 O1317 1.258 . S
C1325 O1318 1.266 . S
Co1326 O1329 1.970 . S
Co1326 N1343 1.989 . S
Co1326 O1351 1.967 . S
Co1326 O1358 1.920 . S
Co1327 O1330 1.966 . S
Co1327 N1336 2.022 . S
Co1327 N1344 1.993 . S
Co1327 O1352 1.941 . S
C1328 O1329 1.258 . S
C1328 O1330 1.263 . S
O1329 Co1326 1.970 . S
O1329 C1328 1.258 . S
O1330 Co1327 1.966 . S
O1330 C1328 1.263 . S
C1331 O1332 1.235 . S
C1331 O1358 1.289 . S
O1332 C1331 1.235 . S
C1333 C1335 1.400 . S
C1333 N1336 1.351 . S
C1333 C1338 1.501 . S
C1334 C1335 1.387 . S
C1334 N1337 1.341 . S
C1335 C1333 1.400 . S
C1335 C1334 1.387 . S
N1336 Co1327 2.022 . S
N1336 C1333 1.351 . S
N1336 N1337 1.365 . S
N1337 C1334 1.341 . S
N1337 N1336 1.365 . S
N1337 H1357 0.862 . S
C1338 C1333 1.501 . S
C1338 H1339 0.961 . S
C1338 H1340 0.961 . S
C1338 H1341 0.960 . S
H1339 C1338 0.961 . S
H1340 C1338 0.961 . S
H1341 C1338 0.960 . S
C1342 N1343 1.342 . S
C1342 C1346 1.401 . S
C1342 C1347 1.499 . S
N1343 Co1326 1.989 . S
N1343 C1342 1.342 . S
N1343 N1344 1.388 . S
N1344 Co1327 1.993 . S
N1344 N1343 1.388 . S
N1344 C1345 1.346 . S
C1345 N1344 1.346 . S
C1345 C1346 1.396 . S
C1345 C1355 1.510 . S
C1346 C1342 1.401 . S
C1346 C1345 1.396 . S
C1347 C1342 1.499 . S
C1347 H1348 0.959 . S
C1347 H1349 0.960 . S
C1347 H1350 0.961 . S
H1348 C1347 0.959 . S
H1349 C1347 0.960 . S
H1350 C1347 0.961 . S
O1351 Co1326 1.967 . S
O1351 C1359 1.258 . S
O1352 Co1327 1.941 . S
O1352 C1359 1.266 . S
H1353 C1355 0.959 . S
H1354 C1355 0.961 . S
C1355 C1345 1.510 . S
C1355 H1353 0.959 . S
C1355 H1354 0.961 . S
C1355 H1356 0.960 . S
H1356 C1355 0.960 . S
H1357 N1337 0.862 . S
O1358 Co1326 1.920 . S
O1358 C1331 1.289 . S
C1359 O1351 1.258 . S
C1359 O1352 1.266 . S
Co1360 O1363 1.970 . S
Co1360 N1377 1.989 . S
Co1360 O1385 1.967 . S
Co1360 O1392 1.920 . S
Co1361 O1364 1.966 . S
Co1361 N1370 2.022 . S
Co1361 N1378 1.993 . S
Co1361 O1386 1.941 . S
C1362 O1363 1.258 . S
C1362 O1364 1.263 . S
O1363 Co1360 1.970 . S
O1363 C1362 1.258 . S
O1364 Co1361 1.966 . S
O1364 C1362 1.263 . S
C1365 O1366 1.235 . S
C1365 O1392 1.289 . S
O1366 C1365 1.235 . S
C1367 C1369 1.400 . S
C1367 N1370 1.351 . S
C1367 C1372 1.501 . S
C1368 C1369 1.387 . S
C1368 N1371 1.341 . S
C1369 C1367 1.400 . S
C1369 C1368 1.387 . S
N1370 Co1361 2.022 . S
N1370 C1367 1.351 . S
N1370 N1371 1.365 . S
N1371 C1368 1.341 . S
N1371 N1370 1.365 . S
N1371 H1391 0.862 . S
C1372 C1367 1.501 . S
C1372 H1373 0.961 . S
C1372 H1374 0.961 . S
C1372 H1375 0.960 . S
H1373 C1372 0.961 . S
H1374 C1372 0.961 . S
H1375 C1372 0.960 . S
C1376 N1377 1.342 . S
C1376 C1380 1.401 . S
C1376 C1381 1.499 . S
N1377 Co1360 1.989 . S
N1377 C1376 1.342 . S
N1377 N1378 1.388 . S
N1378 Co1361 1.993 . S
N1378 N1377 1.388 . S
N1378 C1379 1.346 . S
C1379 N1378 1.346 . S
C1379 C1380 1.396 . S
C1379 C1389 1.510 . S
C1380 C1376 1.401 . S
C1380 C1379 1.396 . S
C1381 C1376 1.499 . S
C1381 H1382 0.959 . S
C1381 H1383 0.960 . S
C1381 H1384 0.961 . S
H1382 C1381 0.959 . S
H1383 C1381 0.960 . S
H1384 C1381 0.961 . S
O1385 Co1360 1.967 . S
O1385 C1393 1.258 . S
O1386 Co1361 1.941 . S
O1386 C1393 1.266 . S
H1387 C1389 0.959 . S
H1388 C1389 0.961 . S
C1389 C1379 1.510 . S
C1389 H1387 0.959 . S
C1389 H1388 0.961 . S
C1389 H1390 0.960 . S
H1390 C1389 0.960 . S
H1391 N1371 0.862 . S
O1392 Co1360 1.920 . S
O1392 C1365 1.289 . S
C1393 O1385 1.258 . S
C1393 O1386 1.266 . S
Co1394 O1397 1.970 . S
Co1394 N1411 1.989 . S
Co1394 O1419 1.967 . S
Co1394 O1426 1.920 . S
Co1395 O1398 1.966 . S
Co1395 N1404 2.022 . S
Co1395 N1412 1.993 . S
Co1395 O1420 1.941 . S
C1396 O1397 1.258 . S
C1396 O1398 1.263 . S
O1397 Co1394 1.970 . S
O1397 C1396 1.258 . S
O1398 Co1395 1.966 . S
O1398 C1396 1.263 . S
C1399 O1400 1.235 . S
C1399 O1426 1.289 . S
O1400 C1399 1.235 . S
C1401 C1403 1.400 . S
C1401 N1404 1.351 . S
C1401 C1406 1.501 . S
C1402 C1403 1.387 . S
C1402 N1405 1.341 . S
C1403 C1401 1.400 . S
C1403 C1402 1.387 . S
N1404 Co1395 2.022 . S
N1404 C1401 1.351 . S
N1404 N1405 1.365 . S
N1405 C1402 1.341 . S
N1405 N1404 1.365 . S
N1405 H1425 0.862 . S
C1406 C1401 1.501 . S
C1406 H1407 0.961 . S
C1406 H1408 0.961 . S
C1406 H1409 0.960 . S
H1407 C1406 0.961 . S
H1408 C1406 0.961 . S
H1409 C1406 0.960 . S
C1410 N1411 1.342 . S
C1410 C1414 1.401 . S
C1410 C1415 1.499 . S
N1411 Co1394 1.989 . S
N1411 C1410 1.342 . S
N1411 N1412 1.388 . S
N1412 Co1395 1.993 . S
N1412 N1411 1.388 . S
N1412 C1413 1.346 . S
C1413 N1412 1.346 . S
C1413 C1414 1.396 . S
C1413 C1423 1.510 . S
C1414 C1410 1.401 . S
C1414 C1413 1.396 . S
C1415 C1410 1.499 . S
C1415 H1416 0.959 . S
C1415 H1417 0.960 . S
C1415 H1418 0.961 . S
H1416 C1415 0.959 . S
H1417 C1415 0.960 . S
H1418 C1415 0.961 . S
O1419 Co1394 1.967 . S
O1419 C1427 1.258 . S
O1420 Co1395 1.941 . S
O1420 C1427 1.266 . S
H1421 C1423 0.959 . S
H1422 C1423 0.961 . S
C1423 C1413 1.510 . S
C1423 H1421 0.959 . S
C1423 H1422 0.961 . S
C1423 H1424 0.960 . S
H1424 C1423 0.960 . S
H1425 N1405 0.862 . S
O1426 Co1394 1.920 . S
O1426 C1399 1.289 . S
C1427 O1419 1.258 . S
C1427 O1420 1.266 . S
Co1428 O1431 1.970 . S
Co1428 N1445 1.989 . S
Co1428 O1453 1.967 . S
Co1428 O1460 1.920 . S
Co1429 O1432 1.966 . S
Co1429 N1438 2.022 . S
Co1429 N1446 1.993 . S
Co1429 O1454 1.941 . S
C1430 O1431 1.258 . S
C1430 O1432 1.263 . S
O1431 Co1428 1.970 . S
O1431 C1430 1.258 . S
O1432 Co1429 1.966 . S
O1432 C1430 1.263 . S
C1433 O1434 1.235 . S
C1433 O1460 1.289 . S
O1434 C1433 1.235 . S
C1435 C1437 1.400 . S
C1435 N1438 1.351 . S
C1435 C1440 1.501 . S
C1436 C1437 1.387 . S
C1436 N1439 1.341 . S
C1437 C1435 1.400 . S
C1437 C1436 1.387 . S
N1438 Co1429 2.022 . S
N1438 C1435 1.351 . S
N1438 N1439 1.365 . S
N1439 C1436 1.341 . S
N1439 N1438 1.365 . S
N1439 H1459 0.862 . S
C1440 C1435 1.501 . S
C1440 H1441 0.961 . S
C1440 H1442 0.961 . S
C1440 H1443 0.960 . S
H1441 C1440 0.961 . S
H1442 C1440 0.961 . S
H1443 C1440 0.960 . S
C1444 N1445 1.342 . S
C1444 C1448 1.401 . S
C1444 C1449 1.499 . S
N1445 Co1428 1.989 . S
N1445 C1444 1.342 . S
N1445 N1446 1.388 . S
N1446 Co1429 1.993 . S
N1446 N1445 1.388 . S
N1446 C1447 1.346 . S
C1447 N1446 1.346 . S
C1447 C1448 1.396 . S
C1447 C1457 1.510 . S
C1448 C1444 1.401 . S
C1448 C1447 1.396 . S
C1449 C1444 1.499 . S
C1449 H1450 0.959 . S
C1449 H1451 0.960 1_545 S
C1449 H1452 0.944 1_545 S
H1450 C1449 0.959 . S
H1451 C1449 0.960 1_565 S
H1452 C1449 0.944 1_565 S
O1453 Co1428 1.967 . S
O1453 C1461 1.258 . S
O1454 Co1429 1.941 . S
O1454 C1461 1.266 . S
H1455 C1457 0.959 . S
H1456 C1457 0.961 . S
C1457 C1447 1.510 . S
C1457 H1455 0.959 . S
C1457 H1456 0.961 . S
C1457 H1458 0.960 . S
H1458 C1457 0.960 . S
H1459 N1439 0.862 . S
O1460 Co1428 1.920 . S
O1460 C1433 1.289 . S
C1461 O1453 1.258 . S
C1461 O1454 1.266 . S
Co1462 O1465 1.970 . S
Co1462 N1479 1.989 . S
Co1462 O1487 1.967 . S
Co1462 O1494 1.920 . S
Co1463 O1466 1.966 . S
Co1463 N1472 2.022 . S
Co1463 N1480 1.993 . S
Co1463 O1488 1.941 . S
C1464 O1465 1.258 . S
C1464 O1466 1.263 . S
O1465 Co1462 1.970 . S
O1465 C1464 1.258 . S
O1466 Co1463 1.966 . S
O1466 C1464 1.263 . S
C1467 O1468 1.235 . S
C1467 O1494 1.289 . S
O1468 C1467 1.235 . S
C1469 C1471 1.400 . S
C1469 N1472 1.351 . S
C1469 C1474 1.501 . S
C1470 C1471 1.387 . S
C1470 N1473 1.341 . S
C1471 C1469 1.400 . S
C1471 C1470 1.387 . S
N1472 Co1463 2.022 . S
N1472 C1469 1.351 . S
N1472 N1473 1.365 . S
N1473 C1470 1.341 . S
N1473 N1472 1.365 . S
N1473 H1493 0.862 . S
C1474 C1469 1.501 . S
C1474 H1475 0.961 . S
C1474 H1476 0.961 . S
C1474 H1477 0.960 . S
H1475 C1474 0.961 . S
H1476 C1474 0.961 . S
H1477 C1474 0.960 . S
C1478 N1479 1.342 . S
C1478 C1482 1.401 . S
C1478 C1483 1.499 . S
N1479 Co1462 1.989 . S
N1479 C1478 1.342 . S
N1479 N1480 1.388 . S
N1480 Co1463 1.993 . S
N1480 N1479 1.388 . S
N1480 C1481 1.346 . S
C1481 N1480 1.346 . S
C1481 C1482 1.396 . S
C1481 C1491 1.510 . S
C1482 C1478 1.401 . S
C1482 C1481 1.396 . S
C1483 C1478 1.499 . S
C1483 H1484 0.959 . S
C1483 H1485 0.960 . S
C1483 H1486 0.961 . S
H1484 C1483 0.959 . S
H1485 C1483 0.960 . S
H1486 C1483 0.961 . S
O1487 Co1462 1.967 . S
O1487 C1495 1.258 . S
O1488 Co1463 1.941 . S
O1488 C1495 1.266 . S
H1489 C1491 0.959 . S
H1490 C1491 0.961 . S
C1491 C1481 1.510 . S
C1491 H1489 0.959 . S
C1491 H1490 0.961 . S
C1491 H1492 0.960 . S
H1492 C1491 0.960 . S
H1493 N1473 0.862 . S
O1494 Co1462 1.920 . S
O1494 C1467 1.289 . S
C1495 O1487 1.258 . S
C1495 O1488 1.266 . S
Co1496 O1499 1.970 . S
Co1496 N1513 1.989 . S
Co1496 O1521 1.967 . S
Co1496 O1528 1.920 . S
Co1497 O1500 1.966 . S
Co1497 N1506 2.022 . S
Co1497 N1514 1.993 . S
Co1497 O1522 1.941 . S
C1498 O1499 1.258 . S
C1498 O1500 1.263 . S
O1499 Co1496 1.970 . S
O1499 C1498 1.258 . S
O1500 Co1497 1.966 . S
O1500 C1498 1.263 . S
C1501 O1502 1.235 . S
C1501 O1528 1.289 . S
O1502 C1501 1.235 . S
C1503 C1505 1.400 . S
C1503 N1506 1.351 . S
C1503 C1508 1.501 . S
C1504 C1505 1.387 . S
C1504 N1507 1.341 . S
C1505 C1503 1.400 . S
C1505 C1504 1.387 . S
N1506 Co1497 2.022 . S
N1506 C1503 1.351 . S
N1506 N1507 1.365 . S
N1507 C1504 1.341 . S
N1507 N1506 1.365 . S
N1507 H1527 0.862 . S
C1508 C1503 1.501 . S
C1508 H1509 0.961 . S
C1508 H1510 0.961 . S
C1508 H1511 0.960 . S
H1509 C1508 0.961 . S
H1510 C1508 0.961 . S
H1511 C1508 0.960 . S
C1512 N1513 1.342 . S
C1512 C1516 1.401 . S
C1512 C1517 1.499 . S
N1513 Co1496 1.989 . S
N1513 C1512 1.342 . S
N1513 N1514 1.388 . S
N1514 Co1497 1.993 . S
N1514 N1513 1.388 . S
N1514 C1515 1.346 . S
C1515 N1514 1.346 . S
C1515 C1516 1.396 . S
C1515 C1525 1.510 . S
C1516 C1512 1.401 . S
C1516 C1515 1.396 . S
C1517 C1512 1.499 . S
C1517 H1518 0.959 . S
C1517 H1519 0.960 1_565 S
C1517 H1520 0.944 1_565 S
H1518 C1517 0.959 . S
H1519 C1517 0.960 1_545 S
H1520 C1517 0.944 1_545 S
O1521 Co1496 1.967 . S
O1521 C1529 1.258 . S
O1522 Co1497 1.941 . S
O1522 C1529 1.266 . S
H1523 C1525 0.959 . S
H1524 C1525 0.961 . S
C1525 C1515 1.510 . S
C1525 H1523 0.959 . S
C1525 H1524 0.961 . S
C1525 H1526 0.960 . S
H1526 C1525 0.960 . S
H1527 N1507 0.862 . S
O1528 Co1496 1.920 . S
O1528 C1501 1.289 . S
C1529 O1521 1.258 . S
C1529 O1522 1.266 . S
Co1530 O1533 1.970 . S
Co1530 N1547 1.989 . S
Co1530 O1555 1.967 . S
Co1530 O1562 1.920 . S
Co1531 O1534 1.966 . S
Co1531 N1540 2.022 . S
Co1531 N1548 1.993 . S
Co1531 O1556 1.941 . S
C1532 O1533 1.258 . S
C1532 O1534 1.263 . S
O1533 Co1530 1.970 . S
O1533 C1532 1.258 . S
O1534 Co1531 1.966 . S
O1534 C1532 1.263 . S
C1535 O1536 1.235 . S
C1535 O1562 1.289 . S
O1536 C1535 1.235 . S
C1537 C1539 1.400 . S
C1537 N1540 1.351 . S
C1537 C1542 1.501 . S
C1538 C1539 1.387 . S
C1538 N1541 1.341 . S
C1539 C1537 1.400 . S
C1539 C1538 1.387 . S
N1540 Co1531 2.022 . S
N1540 C1537 1.351 . S
N1540 N1541 1.365 . S
N1541 C1538 1.341 . S
N1541 N1540 1.365 . S
N1541 H1561 0.862 . S
C1542 C1537 1.501 . S
C1542 H1543 0.961 . S
C1542 H1544 0.961 . S
C1542 H1545 0.960 . S
H1543 C1542 0.961 . S
H1544 C1542 0.961 . S
H1545 C1542 0.960 . S
C1546 N1547 1.342 . S
C1546 C1550 1.401 . S
C1546 C1551 1.499 . S
N1547 Co1530 1.989 . S
N1547 C1546 1.342 . S
N1547 N1548 1.388 . S
N1548 Co1531 1.993 . S
N1548 N1547 1.388 . S
N1548 C1549 1.346 . S
C1549 N1548 1.346 . S
C1549 C1550 1.396 . S
C1549 C1559 1.510 . S
C1550 C1546 1.401 . S
C1550 C1549 1.396 . S
C1551 C1546 1.499 . S
C1551 H1552 0.959 . S
C1551 H1553 0.960 . S
C1551 H1554 0.961 . S
H1552 C1551 0.959 . S
H1553 C1551 0.960 . S
H1554 C1551 0.961 . S
O1555 Co1530 1.967 . S
O1555 C1563 1.258 . S
O1556 Co1531 1.941 . S
O1556 C1563 1.266 . S
H1557 C1559 0.959 . S
H1558 C1559 0.961 . S
C1559 C1549 1.510 . S
C1559 H1557 0.959 . S
C1559 H1558 0.961 . S
C1559 H1560 0.960 . S
H1560 C1559 0.960 . S
H1561 N1541 0.862 . S
O1562 Co1530 1.920 . S
O1562 C1535 1.289 . S
C1563 O1555 1.258 . S
C1563 O1556 1.266 . S
Co1564 O1567 1.970 . S
Co1564 N1581 1.989 . S
Co1564 O1589 1.967 . S
Co1564 O1596 1.920 . S
Co1565 O1568 1.966 . S
Co1565 N1574 2.022 . S
Co1565 N1582 1.993 . S
Co1565 O1590 1.941 . S
C1566 O1567 1.258 . S
C1566 O1568 1.263 . S
O1567 Co1564 1.970 . S
O1567 C1566 1.258 . S
O1568 Co1565 1.966 . S
O1568 C1566 1.263 . S
C1569 O1570 1.235 . S
C1569 O1596 1.289 . S
O1570 C1569 1.235 . S
C1571 C1573 1.400 . S
C1571 N1574 1.351 . S
C1571 C1576 1.501 . S
C1572 C1573 1.387 . S
C1572 N1575 1.341 . S
C1573 C1571 1.400 . S
C1573 C1572 1.387 . S
N1574 Co1565 2.022 . S
N1574 C1571 1.351 . S
N1574 N1575 1.365 . S
N1575 C1572 1.341 . S
N1575 N1574 1.365 . S
N1575 H1595 0.862 . S
C1576 C1571 1.501 . S
C1576 H1577 0.961 . S
C1576 H1578 0.961 . S
C1576 H1579 0.960 . S
H1577 C1576 0.961 . S
H1578 C1576 0.961 . S
H1579 C1576 0.960 . S
C1580 N1581 1.342 . S
C1580 C1584 1.401 . S
C1580 C1585 1.499 . S
N1581 Co1564 1.989 . S
N1581 C1580 1.342 . S
N1581 N1582 1.388 . S
N1582 Co1565 1.993 . S
N1582 N1581 1.388 . S
N1582 C1583 1.346 . S
C1583 N1582 1.346 . S
C1583 C1584 1.396 . S
C1583 C1593 1.510 . S
C1584 C1580 1.401 . S
C1584 C1583 1.396 . S
C1585 C1580 1.499 . S
C1585 H1586 0.959 . S
C1585 H1587 0.960 1_565 S
C1585 H1588 0.944 1_565 S
H1586 C1585 0.959 . S
H1587 C1585 0.960 1_545 S
H1588 C1585 0.944 1_545 S
O1589 Co1564 1.967 . S
O1589 C1597 1.258 . S
O1590 Co1565 1.941 . S
O1590 C1597 1.266 . S
H1591 C1593 0.959 . S
H1592 C1593 0.961 . S
C1593 C1583 1.510 . S
C1593 H1591 0.959 . S
C1593 H1592 0.961 . S
C1593 H1594 0.960 . S
H1594 C1593 0.960 . S
H1595 N1575 0.862 . S
O1596 Co1564 1.920 . S
O1596 C1569 1.289 . S
C1597 O1589 1.258 . S
C1597 O1590 1.266 . S
Co1598 O1601 1.970 . S
Co1598 N1615 1.989 . S
Co1598 O1623 1.967 . S
Co1598 O1630 1.920 . S
Co1599 O1602 1.966 . S
Co1599 N1608 2.022 . S
Co1599 N1616 1.993 . S
Co1599 O1624 1.941 . S
C1600 O1601 1.258 . S
C1600 O1602 1.263 . S
O1601 Co1598 1.970 . S
O1601 C1600 1.258 . S
O1602 Co1599 1.966 . S
O1602 C1600 1.263 . S
C1603 O1604 1.235 . S
C1603 O1630 1.289 . S
O1604 C1603 1.235 . S
C1605 C1607 1.400 . S
C1605 N1608 1.351 . S
C1605 C1610 1.501 . S
C1606 C1607 1.387 . S
C1606 N1609 1.341 . S
C1607 C1605 1.400 . S
C1607 C1606 1.387 . S
N1608 Co1599 2.022 . S
N1608 C1605 1.351 . S
N1608 N1609 1.365 . S
N1609 C1606 1.341 . S
N1609 N1608 1.365 . S
N1609 H1629 0.862 . S
C1610 C1605 1.501 . S
C1610 H1611 0.961 . S
C1610 H1612 0.961 . S
C1610 H1613 0.960 . S
H1611 C1610 0.961 . S
H1612 C1610 0.961 . S
H1613 C1610 0.960 . S
C1614 N1615 1.342 . S
C1614 C1618 1.401 . S
C1614 C1619 1.499 . S
N1615 Co1598 1.989 . S
N1615 C1614 1.342 . S
N1615 N1616 1.388 . S
N1616 Co1599 1.993 . S
N1616 N1615 1.388 . S
N1616 C1617 1.346 . S
C1617 N1616 1.346 . S
C1617 C1618 1.396 . S
C1617 C1627 1.510 . S
C1618 C1614 1.401 . S
C1618 C1617 1.396 . S
C1619 C1614 1.499 . S
C1619 H1620 0.959 . S
C1619 H1621 0.960 . S
C1619 H1622 0.961 . S
H1620 C1619 0.959 . S
H1621 C1619 0.960 . S
H1622 C1619 0.961 . S
O1623 Co1598 1.967 . S
O1623 C1631 1.258 . S
O1624 Co1599 1.941 . S
O1624 C1631 1.266 . S
H1625 C1627 0.959 . S
H1626 C1627 0.961 . S
C1627 C1617 1.510 . S
C1627 H1625 0.959 . S
C1627 H1626 0.961 . S
C1627 H1628 0.960 . S
H1628 C1627 0.960 . S
H1629 N1609 0.862 . S
O1630 Co1598 1.920 . S
O1630 C1603 1.289 . S
C1631 O1623 1.258 . S
C1631 O1624 1.266 . S
C1632 C1633 1.363 . S
C1632 C1638 1.379 . S
C1632 N1640 1.356 . S
C1633 C1632 1.363 . S
C1633 C1639 1.363 . S
C1634 C1635 1.363 . S
C1634 C1639 1.379 . S
C1634 N1641 1.356 . S
C1635 C1634 1.363 . S
C1635 C1638 1.363 . S
N1636 C1638 1.356 . S
N1636 H1648 0.984 . S
N1636 H1649 0.985 . S
N1637 C1639 1.356 . S
N1637 H1642 0.984 . S
N1637 H1643 0.985 . S
C1638 C1632 1.379 . S
C1638 C1635 1.363 . S
C1638 N1636 1.356 . S
C1639 C1633 1.363 . S
C1639 C1634 1.379 . S
C1639 N1637 1.356 . S
N1640 C1632 1.356 . S
N1640 H1646 0.984 . S
N1640 H1647 0.984 . S
N1641 C1634 1.356 . S
N1641 H1644 0.984 . S
N1641 H1645 0.985 . S
H1642 N1637 0.984 . S
H1643 N1637 0.985 . S
H1644 N1641 0.984 . S
H1645 N1641 0.985 . S
H1646 N1640 0.984 . S
H1647 N1640 0.984 . S
H1648 N1636 0.984 . S
H1649 N1636 0.985 . S
C1650 C1651 1.363 . S
C1650 C1656 1.379 . S
C1650 N1658 1.356 . S
C1651 C1650 1.363 . S
C1651 C1657 1.363 . S
C1652 C1653 1.363 . S
C1652 C1657 1.379 . S
C1652 N1659 1.356 . S
C1653 C1652 1.363 . S
C1653 C1656 1.363 . S
N1654 C1656 1.356 . S
N1654 H1666 0.984 . S
N1654 H1667 0.985 . S
N1655 C1657 1.356 . S
N1655 H1660 0.984 . S
N1655 H1661 0.985 . S
C1656 C1650 1.379 . S
C1656 C1653 1.363 . S
C1656 N1654 1.356 . S
C1657 C1651 1.363 . S
C1657 C1652 1.379 . S
C1657 N1655 1.356 . S
N1658 C1650 1.356 . S
N1658 H1664 0.984 . S
N1658 H1665 0.984 . S
N1659 C1652 1.356 . S
N1659 H1662 0.984 . S
N1659 H1663 0.985 . S
H1660 N1655 0.984 . S
H1661 N1655 0.985 . S
H1662 N1659 0.984 . S
H1663 N1659 0.985 . S
H1664 N1658 0.984 . S
H1665 N1658 0.984 . S
H1666 N1654 0.984 . S
H1667 N1654 0.985 . S
C1668 C1669 1.363 . S
C1668 C1674 1.379 . S
C1668 N1676 1.356 . S
C1669 C1668 1.363 . S
C1669 C1675 1.363 . S
C1670 C1671 1.363 . S
C1670 C1675 1.379 . S
C1670 N1677 1.356 . S
C1671 C1670 1.363 . S
C1671 C1674 1.363 . S
N1672 C1674 1.356 . S
N1672 H1684 0.984 . S
N1672 H1685 0.985 . S
N1673 C1675 1.356 . S
N1673 H1678 0.984 . S
N1673 H1679 0.985 . S
C1674 C1668 1.379 . S
C1674 C1671 1.363 . S
C1674 N1672 1.356 . S
C1675 C1669 1.363 . S
C1675 C1670 1.379 . S
C1675 N1673 1.356 . S
N1676 C1668 1.356 . S
N1676 H1682 0.984 . S
N1676 H1683 0.984 . S
N1677 C1670 1.356 . S
N1677 H1680 0.984 . S
N1677 H1681 0.985 . S
H1678 N1673 0.984 . S
H1679 N1673 0.985 . S
H1680 N1677 0.984 . S
H1681 N1677 0.985 . S
H1682 N1676 0.984 . S
H1683 N1676 0.984 . S
H1684 N1672 0.984 . S
H1685 N1672 0.985 . S
C1686 C1687 1.363 . S
C1686 C1692 1.379 . S
C1686 N1694 1.356 . S
C1687 C1686 1.363 . S
C1687 C1693 1.363 . S
C1688 C1689 1.363 . S
C1688 C1693 1.379 . S
C1688 N1695 1.356 . S
C1689 C1688 1.363 . S
C1689 C1692 1.363 . S
N1690 C1692 1.356 . S
N1690 H1702 0.984 . S
N1690 H1703 0.985 . S
N1691 C1693 1.356 . S
N1691 H1696 0.984 . S
N1691 H1697 0.985 . S
C1692 C1686 1.379 . S
C1692 C1689 1.363 . S
C1692 N1690 1.356 . S
C1693 C1687 1.363 . S
C1693 C1688 1.379 . S
C1693 N1691 1.356 . S
N1694 C1686 1.356 . S
N1694 H1700 0.984 . S
N1694 H1701 0.984 . S
N1695 C1688 1.356 . S
N1695 H1698 0.984 . S
N1695 H1699 0.985 . S
H1696 N1691 0.984 . S
H1697 N1691 0.985 . S
H1698 N1695 0.984 . S
H1699 N1695 0.985 . S
H1700 N1694 0.984 . S
H1701 N1694 0.984 . S
H1702 N1690 0.984 . S
H1703 N1690 0.985 . S
C1704 C1705 1.363 . S
C1704 C1710 1.379 . S
C1704 N1712 1.356 . S
C1705 C1704 1.363 . S
C1705 C1711 1.363 . S
C1706 C1707 1.363 . S
C1706 C1711 1.379 . S
C1706 N1713 1.356 . S
C1707 C1706 1.363 . S
C1707 C1710 1.363 . S
N1708 C1710 1.356 . S
N1708 H1720 0.984 . S
N1708 H1721 0.985 . S
N1709 C1711 1.356 . S
N1709 H1714 0.984 . S
N1709 H1715 0.985 . S
C1710 C1704 1.379 . S
C1710 C1707 1.363 . S
C1710 N1708 1.356 . S
C1711 C1705 1.363 . S
C1711 C1706 1.379 . S
C1711 N1709 1.356 . S
N1712 C1704 1.356 . S
N1712 H1718 0.984 . S
N1712 H1719 0.984 . S
N1713 C1706 1.356 . S
N1713 H1716 0.984 . S
N1713 H1717 0.985 . S
H1714 N1709 0.984 . S
H1715 N1709 0.985 . S
H1716 N1713 0.984 . S
H1717 N1713 0.985 . S
H1718 N1712 0.984 . S
H1719 N1712 0.984 . S
H1720 N1708 0.984 . S
H1721 N1708 0.985 . S
C1722 C1723 1.363 . S
C1722 C1728 1.379 . S
C1722 N1730 1.356 . S
C1723 C1722 1.363 . S
C1723 C1729 1.363 . S
C1724 C1725 1.363 . S
C1724 C1729 1.379 . S
C1724 N1731 1.356 . S
C1725 C1724 1.363 . S
C1725 C1728 1.363 . S
N1726 C1728 1.356 1_455 S
N1726 H1738 0.984 . S
N1726 H1739 0.985 . S
N1727 C1729 1.356 . S
N1727 H1732 0.984 . S
N1727 H1733 0.985 . S
C1728 C1722 1.379 . S
C1728 C1725 1.363 . S
C1728 N1726 1.356 1_655 S
C1729 C1723 1.363 . S
C1729 C1724 1.379 . S
C1729 N1727 1.356 . S
N1730 C1722 1.356 . S
N1730 H1736 0.984 . S
N1730 H1737 0.984 . S
N1731 C1724 1.356 . S
N1731 H1734 0.984 1_655 S
N1731 H1735 0.985 . S
H1732 N1727 0.984 . S
H1733 N1727 0.985 . S
H1734 N1731 0.984 1_455 S
H1735 N1731 0.985 . S
H1736 N1730 0.984 . S
H1737 N1730 0.984 . S
H1738 N1726 0.984 . S
H1739 N1726 0.985 . S
C1740 C1741 1.363 . S
C1740 C1746 1.379 . S
C1740 N1748 1.356 . S
C1741 C1740 1.363 . S
C1741 C1747 1.363 . S
C1742 C1743 1.363 . S
C1742 C1747 1.379 . S
C1742 N1749 1.356 . S
C1743 C1742 1.363 . S
C1743 C1746 1.363 . S
N1744 C1746 1.356 . S
N1744 H1756 0.984 . S
N1744 H1757 0.985 . S
N1745 C1747 1.356 . S
N1745 H1750 0.984 . S
N1745 H1751 0.985 . S
C1746 C1740 1.379 . S
C1746 C1743 1.363 . S
C1746 N1744 1.356 . S
C1747 C1741 1.363 . S
C1747 C1742 1.379 . S
C1747 N1745 1.356 . S
N1748 C1740 1.356 . S
N1748 H1754 0.984 . S
N1748 H1755 0.984 . S
N1749 C1742 1.356 . S
N1749 H1752 0.984 . S
N1749 H1753 0.985 . S
H1750 N1745 0.984 . S
H1751 N1745 0.985 . S
H1752 N1749 0.984 . S
H1753 N1749 0.985 . S
H1754 N1748 0.984 . S
H1755 N1748 0.984 . S
H1756 N1744 0.984 . S
H1757 N1744 0.985 . S
C1758 C1759 1.363 . S
C1758 C1764 1.379 . S
C1758 N1766 1.356 1_455 S
C1759 C1758 1.363 . S
C1759 C1765 1.363 . S
C1760 C1761 1.363 . S
C1760 C1765 1.379 . S
C1760 N1767 1.356 . S
C1761 C1760 1.363 . S
C1761 C1764 1.363 . S
N1762 C1764 1.356 . S
N1762 H1774 0.984 . S
N1762 H1775 0.985 . S
N1763 C1765 1.356 . S
N1763 H1768 0.984 1_455 S
N1763 H1769 0.985 . S
C1764 C1758 1.379 . S
C1764 C1761 1.363 . S
C1764 N1762 1.356 . S
C1765 C1759 1.363 . S
C1765 C1760 1.379 . S
C1765 N1763 1.356 . S
N1766 C1758 1.356 1_655 S
N1766 H1772 0.984 . S
N1766 H1773 0.984 . S
N1767 C1760 1.356 . S
N1767 H1770 0.984 . S
N1767 H1771 0.985 . S
H1768 N1763 0.984 1_655 S
H1769 N1763 0.985 . S
H1770 N1767 0.984 . S
H1771 N1767 0.985 . S
H1772 N1766 0.984 . S
H1773 N1766 0.984 . S
H1774 N1762 0.984 . S
H1775 N1762 0.985 . S
C1776 C1777 1.363 . S
C1776 C1782 1.379 . S
C1776 N1784 1.356 . S
C1777 C1776 1.363 . S
C1777 C1783 1.363 . S
C1778 C1779 1.363 . S
C1778 C1783 1.379 . S
C1778 N1785 1.356 . S
C1779 C1778 1.363 . S
C1779 C1782 1.363 . S
N1780 C1782 1.356 . S
N1780 H1792 0.984 . S
N1780 H1793 0.985 . S
N1781 C1783 1.356 . S
N1781 H1786 0.984 . S
N1781 H1787 0.985 . S
C1782 C1776 1.379 . S
C1782 C1779 1.363 . S
C1782 N1780 1.356 . S
C1783 C1777 1.363 . S
C1783 C1778 1.379 . S
C1783 N1781 1.356 . S
N1784 C1776 1.356 . S
N1784 H1790 0.984 . S
N1784 H1791 0.984 . S
N1785 C1778 1.356 . S
N1785 H1788 0.984 . S
N1785 H1789 0.985 . S
H1786 N1781 0.984 . S
H1787 N1781 0.985 . S
H1788 N1785 0.984 . S
H1789 N1785 0.985 . S
H1790 N1784 0.984 . S
H1791 N1784 0.984 . S
H1792 N1780 0.984 . S
H1793 N1780 0.985 . S
C1794 C1795 1.363 . S
C1794 C1800 1.379 . S
C1794 N1802 1.356 . S
C1795 C1794 1.363 . S
C1795 C1801 1.363 . S
C1796 C1797 1.363 . S
C1796 C1801 1.379 . S
C1796 N1803 1.356 . S
C1797 C1796 1.363 . S
C1797 C1800 1.363 . S
N1798 C1800 1.356 . S
N1798 H1810 0.984 . S
N1798 H1811 0.985 . S
N1799 C1801 1.356 1_554 S
N1799 H1804 0.984 . S
N1799 H1805 0.985 . S
C1800 C1794 1.379 . S
C1800 C1797 1.363 . S
C1800 N1798 1.356 . S
C1801 C1795 1.363 . S
C1801 C1796 1.379 . S
C1801 N1799 1.356 1_556 S
N1802 C1794 1.356 . S
N1802 H1808 0.984 . S
N1802 H1809 1.007 . S
N1803 C1796 1.356 . S
N1803 H1806 0.984 . S
N1803 H1807 0.985 . S
H1804 N1799 0.984 . S
H1805 N1799 0.985 . S
H1806 N1803 0.984 . S
H1807 N1803 0.985 . S
H1808 N1802 0.984 . S
H1809 N1802 1.007 . S
H1810 N1798 0.984 . S
H1811 N1798 0.985 . S
C1812 C1813 1.363 . S
C1812 C1818 1.379 . S
C1812 N1820 1.356 . S
C1813 C1812 1.363 . S
C1813 C1819 1.363 . S
C1814 C1815 1.363 . S
C1814 C1819 1.379 . S
C1814 N1821 1.356 . S
C1815 C1814 1.363 . S
C1815 C1818 1.363 . S
N1816 C1818 1.356 . S
N1816 H1828 0.984 . S
N1816 H1829 0.985 . S
N1817 C1819 1.356 . S
N1817 H1822 0.984 . S
N1817 H1823 0.985 . S
C1818 C1812 1.379 . S
C1818 C1815 1.363 . S
C1818 N1816 1.356 . S
C1819 C1813 1.363 . S
C1819 C1814 1.379 . S
C1819 N1817 1.356 . S
N1820 C1812 1.356 . S
N1820 H1826 0.984 . S
N1820 H1827 0.984 . S
N1821 C1814 1.356 . S
N1821 H1824 0.984 . S
N1821 H1825 0.985 . S
H1822 N1817 0.984 . S
H1823 N1817 0.985 . S
H1824 N1821 0.984 . S
H1825 N1821 0.985 . S
H1826 N1820 0.984 . S
H1827 N1820 0.984 . S
H1828 N1816 0.984 . S
H1829 N1816 0.985 . S
C1830 C1831 1.363 . S
C1830 C1836 1.379 . S
C1830 N1838 1.356 . S
C1831 C1830 1.363 . S
C1831 C1837 1.363 . S
C1832 C1833 1.363 . S
C1832 C1837 1.379 . S
C1832 N1839 1.356 . S
C1833 C1832 1.363 . S
C1833 C1836 1.363 . S
N1834 C1836 1.356 1_554 S
N1834 H1846 0.984 1_554 S
N1834 H1847 0.985 . S
N1835 C1837 1.356 . S
N1835 H1840 0.984 . S
N1835 H1841 0.985 . S
C1836 C1830 1.379 . S
C1836 C1833 1.363 . S
C1836 N1834 1.356 1_556 S
C1837 C1831 1.363 . S
C1837 C1832 1.379 . S
C1837 N1835 1.356 . S
N1838 C1830 1.356 . S
N1838 H1844 0.984 . S
N1838 H1845 0.984 . S
N1839 C1832 1.356 . S
N1839 H1842 0.984 1_556 S
N1839 H1843 0.985 . S
H1840 N1835 0.984 . S
H1841 N1835 0.985 . S
H1842 N1839 0.984 1_554 S
H1843 N1839 0.985 . S
H1844 N1838 0.984 . S
H1845 N1838 0.984 . S
H1846 N1834 0.984 1_556 S
H1847 N1834 0.985 . S
C1848 C1849 1.363 . S
C1848 C1854 1.379 . S
C1848 N1856 1.356 . S
C1849 C1848 1.363 . S
C1849 C1855 1.363 . S
C1850 C1851 1.363 . S
C1850 C1855 1.379 . S
C1850 N1857 1.356 . S
C1851 C1850 1.363 . S
C1851 C1854 1.363 . S
N1852 C1854 1.356 . S
N1852 H1864 0.984 . S
N1852 H1865 0.985 . S
N1853 C1855 1.356 . S
N1853 H1858 0.984 . S
N1853 H1859 0.985 . S
C1854 C1848 1.379 . S
C1854 C1851 1.363 . S
C1854 N1852 1.356 . S
C1855 C1849 1.363 . S
C1855 C1850 1.379 . S
C1855 N1853 1.356 . S
N1856 C1848 1.356 . S
N1856 H1862 0.984 . S
N1856 H1863 0.984 . S
N1857 C1850 1.356 . S
N1857 H1860 0.984 . S
N1857 H1861 0.985 . S
H1858 N1853 0.984 . S
H1859 N1853 0.985 . S
H1860 N1857 0.984 . S
H1861 N1857 0.985 . S
H1862 N1856 0.984 . S
H1863 N1856 0.984 . S
H1864 N1852 0.984 . S
H1865 N1852 0.985 . S
C1866 C1867 1.363 . S
C1866 C1872 1.379 . S
C1866 N1874 1.356 . S
C1867 C1866 1.363 . S
C1867 C1873 1.363 . S
C1868 C1869 1.363 . S
C1868 C1873 1.379 . S
C1868 N1875 1.356 1_554 S
C1869 C1868 1.363 . S
C1869 C1872 1.363 . S
N1870 C1872 1.356 . S
N1870 H1882 0.984 . S
N1870 H1883 0.985 1_554 S
N1871 C1873 1.356 . S
N1871 H1876 0.984 . S
N1871 H1877 0.985 . S
C1872 C1866 1.379 . S
C1872 C1869 1.363 . S
C1872 N1870 1.356 . S
C1873 C1867 1.363 . S
C1873 C1868 1.379 . S
C1873 N1871 1.356 . S
N1874 C1866 1.356 . S
N1874 H1880 0.984 . S
N1874 H1881 0.984 . S
N1875 C1868 1.356 1_556 S
N1875 H1878 0.984 . S
N1875 H1879 0.985 . S
H1876 N1871 0.984 . S
H1877 N1871 0.985 . S
H1878 N1875 0.984 . S
H1879 N1875 0.985 . S
H1880 N1874 0.984 . S
H1881 N1874 0.984 . S
H1882 N1870 0.984 . S
H1883 N1870 0.985 1_556 S
C1884 C1885 1.363 . S
C1884 C1890 1.379 . S
C1884 N1892 1.356 . S
C1885 C1884 1.363 . S
C1885 C1891 1.363 . S
C1886 C1887 1.363 . S
C1886 C1891 1.379 . S
C1886 N1893 1.356 . S
C1887 C1886 1.363 . S
C1887 C1890 1.363 . S
N1888 C1890 1.356 . S
N1888 H1900 0.984 . S
N1888 H1901 0.985 . S
N1889 C1891 1.356 . S
N1889 H1894 0.984 . S
N1889 H1895 0.985 . S
C1890 C1884 1.379 . S
C1890 C1887 1.363 . S
C1890 N1888 1.356 . S
C1891 C1885 1.363 . S
C1891 C1886 1.379 . S
C1891 N1889 1.356 . S
N1892 C1884 1.356 . S
N1892 H1898 0.984 . S
N1892 H1899 0.984 . S
N1893 C1886 1.356 . S
N1893 H1896 0.984 . S
N1893 H1897 0.985 . S
H1894 N1889 0.984 . S
H1895 N1889 0.985 . S
H1896 N1893 0.984 . S
H1897 N1893 0.985 . S
H1898 N1892 0.984 . S
H1899 N1892 0.984 . S
H1900 N1888 0.984 . S
H1901 N1888 0.985 . S
C1902 C1903 1.363 . S
C1902 C1908 1.379 . S
C1902 N1910 1.356 1_554 S
C1903 C1902 1.363 . S
C1903 C1909 1.363 . S
C1904 C1905 1.363 . S
C1904 C1909 1.379 . S
C1904 N1911 1.356 . S
C1905 C1904 1.363 . S
C1905 C1908 1.363 . S
N1906 C1908 1.356 . S
N1906 H1918 0.984 . S
N1906 H1919 0.985 . S
N1907 C1909 1.356 . S
N1907 H1912 1.028 . S
N1907 H1913 0.985 . S
C1908 C1902 1.379 . S
C1908 C1905 1.363 . S
C1908 N1906 1.356 . S
C1909 C1903 1.363 . S
C1909 C1904 1.379 . S
C1909 N1907 1.356 . S
N1910 C1902 1.356 1_556 S
N1910 H1916 0.984 . S
N1910 H1917 0.984 . S
N1911 C1904 1.356 . S
N1911 H1914 0.984 . S
N1911 H1915 0.985 . S
H1912 N1907 1.028 . S
H1913 N1907 0.985 . S
H1914 N1911 0.984 . S
H1915 N1911 0.985 . S
H1916 N1910 0.984 . S
H1917 N1910 0.984 . S
H1918 N1906 0.984 . S
H1919 N1906 0.985 . S
C1920 C1921 1.363 . S
C1920 C1926 1.379 . S
C1920 N1928 1.356 . S
C1921 C1920 1.363 . S
C1921 C1927 1.363 . S
C1922 C1923 1.363 . S
C1922 C1927 1.379 . S
C1922 N1929 1.356 . S
C1923 C1922 1.363 . S
C1923 C1926 1.363 . S
N1924 C1926 1.356 . S
N1924 H1936 0.984 . S
N1924 H1937 0.985 . S
N1925 C1927 1.356 . S
N1925 H1930 0.984 . S
N1925 H1931 0.985 . S
C1926 C1920 1.379 . S
C1926 C1923 1.363 . S
C1926 N1924 1.356 . S
C1927 C1921 1.363 . S
C1927 C1922 1.379 . S
C1927 N1925 1.356 . S
N1928 C1920 1.356 . S
N1928 H1934 0.984 . S
N1928 H1935 0.984 . S
N1929 C1922 1.356 . S
N1929 H1932 0.984 . S
N1929 H1933 0.985 . S
H1930 N1925 0.984 . S
H1931 N1925 0.985 . S
H1932 N1929 0.984 . S
H1933 N1929 0.985 . S
H1934 N1928 0.984 . S
H1935 N1928 0.984 . S
H1936 N1924 0.984 . S
H1937 N1924 0.985 . S
C1938 C1939 1.363 . S
C1938 C1944 1.379 . S
C1938 N1946 1.356 . S
C1939 C1938 1.363 . S
C1939 C1945 1.363 . S
C1940 C1941 1.363 . S
C1940 C1945 1.379 . S
C1940 N1947 1.356 . S
C1941 C1940 1.363 . S
C1941 C1944 1.363 . S
N1942 C1944 1.356 . S
N1942 H1954 0.984 . S
N1942 H1955 0.985 . S
N1943 C1945 1.356 . S
N1943 H1948 0.984 . S
N1943 H1949 0.985 . S
C1944 C1938 1.379 . S
C1944 C1941 1.363 . S
C1944 N1942 1.356 . S
C1945 C1939 1.363 . S
C1945 C1940 1.379 . S
C1945 N1943 1.356 . S
N1946 C1938 1.356 . S
N1946 H1952 0.984 . S
N1946 H1953 0.984 . S
N1947 C1940 1.356 . S
N1947 H1950 0.984 . S
N1947 H1951 0.985 . S
H1948 N1943 0.984 . S
H1949 N1943 0.985 . S
H1950 N1947 0.984 . S
H1951 N1947 0.985 . S
H1952 N1946 0.984 . S
H1953 N1946 0.984 . S
H1954 N1942 0.984 . S
H1955 N1942 0.985 . S
C1956 C1957 1.363 . S
C1956 C1962 1.379 . S
C1956 N1964 1.356 . S
C1957 C1956 1.363 . S
C1957 C1963 1.363 . S
C1958 C1959 1.363 . S
C1958 C1963 1.379 . S
C1958 N1965 1.356 . S
C1959 C1958 1.363 . S
C1959 C1962 1.363 . S
N1960 C1962 1.356 . S
N1960 H1972 0.984 . S
N1960 H1973 0.985 . S
N1961 C1963 1.356 . S
N1961 H1966 0.984 . S
N1961 H1967 0.985 . S
C1962 C1956 1.379 . S
C1962 C1959 1.363 . S
C1962 N1960 1.356 . S
C1963 C1957 1.363 . S
C1963 C1958 1.379 . S
C1963 N1961 1.356 . S
N1964 C1956 1.356 . S
N1964 H1970 0.984 . S
N1964 H1971 0.984 . S
N1965 C1958 1.356 . S
N1965 H1968 0.984 . S
N1965 H1969 0.985 . S
H1966 N1961 0.984 . S
H1967 N1961 0.985 . S
H1968 N1965 0.984 . S
H1969 N1965 0.985 . S
H1970 N1964 0.984 . S
H1971 N1964 0.984 . S
H1972 N1960 0.984 . S
H1973 N1960 0.985 . S
C1974 C1975 1.363 . S
C1974 C1980 1.379 . S
C1974 N1982 1.356 . S
C1975 C1974 1.363 . S
C1975 C1981 1.363 . S
C1976 C1977 1.363 . S
C1976 C1981 1.379 . S
C1976 N1983 1.356 . S
C1977 C1976 1.363 . S
C1977 C1980 1.363 . S
N1978 C1980 1.356 . S
N1978 H1990 0.984 . S
N1978 H1991 0.985 . S
N1979 C1981 1.356 . S
N1979 H1984 0.984 . S
N1979 H1985 0.985 . S
C1980 C1974 1.379 . S
C1980 C1977 1.363 . S
C1980 N1978 1.356 . S
C1981 C1975 1.363 . S
C1981 C1976 1.379 . S
C1981 N1979 1.356 . S
N1982 C1974 1.356 . S
N1982 H1988 0.984 . S
N1982 H1989 0.984 . S
N1983 C1976 1.356 . S
N1983 H1986 0.984 . S
N1983 H1987 0.985 . S
H1984 N1979 0.984 . S
H1985 N1979 0.985 . S
H1986 N1983 0.984 . S
H1987 N1983 0.985 . S
H1988 N1982 0.984 . S
H1989 N1982 0.984 . S
H1990 N1978 0.984 . S
H1991 N1978 0.985 . S
C1992 C1993 1.363 . S
C1992 C1998 1.379 . S
C1992 N2000 1.356 . S
C1993 C1992 1.363 . S
C1993 C1999 1.363 . S
C1994 C1995 1.363 . S
C1994 C1999 1.379 . S
C1994 N2001 1.356 . S
C1995 C1994 1.363 . S
C1995 C1998 1.363 . S
N1996 C1998 1.356 . S
N1996 H2008 0.984 . S
N1996 H2009 0.985 . S
N1997 C1999 1.356 . S
N1997 H2002 0.984 . S
N1997 H2003 0.985 . S
C1998 C1992 1.379 . S
C1998 C1995 1.363 . S
C1998 N1996 1.356 . S
C1999 C1993 1.363 . S
C1999 C1994 1.379 . S
C1999 N1997 1.356 . S
N2000 C1992 1.356 . S
N2000 H2006 0.984 . S
N2000 H2007 0.984 . S
N2001 C1994 1.356 . S
N2001 H2004 0.984 . S
N2001 H2005 0.985 . S
H2002 N1997 0.984 . S
H2003 N1997 0.985 . S
H2004 N2001 0.984 . S
H2005 N2001 0.985 . S
H2006 N2000 0.984 . S
H2007 N2000 0.984 . S
H2008 N1996 0.984 . S
H2009 N1996 0.985 . S
C2010 C2011 1.363 . S
C2010 C2016 1.379 . S
C2010 N2018 1.356 . S
C2011 C2010 1.363 . S
C2011 C2017 1.363 . S
C2012 C2013 1.363 . S
C2012 C2017 1.379 . S
C2012 N2019 1.356 . S
C2013 C2012 1.363 . S
C2013 C2016 1.363 . S
N2014 C2016 1.356 . S
N2014 H2026 0.984 . S
N2014 H2027 0.985 . S
N2015 C2017 1.356 . S
N2015 H2020 0.984 . S
N2015 H2021 0.985 . S
C2016 C2010 1.379 . S
C2016 C2013 1.363 . S
C2016 N2014 1.356 . S
C2017 C2011 1.363 . S
C2017 C2012 1.379 . S
C2017 N2015 1.356 . S
N2018 C2010 1.356 . S
N2018 H2024 0.984 . S
N2018 H2025 0.984 . S
N2019 C2012 1.356 . S
N2019 H2022 0.984 . S
N2019 H2023 0.985 . S
H2020 N2015 0.984 . S
H2021 N2015 0.985 . S
H2022 N2019 0.984 . S
H2023 N2019 0.985 . S
H2024 N2018 0.984 . S
H2025 N2018 0.984 . S
H2026 N2014 0.984 . S
H2027 N2014 0.985 . S
C2028 C2029 1.363 . S
C2028 C2034 1.379 . S
C2028 N2036 1.356 . S
C2029 C2028 1.363 . S
C2029 C2035 1.363 . S
C2030 C2031 1.363 . S
C2030 C2035 1.379 . S
C2030 N2037 1.356 . S
C2031 C2030 1.363 . S
C2031 C2034 1.363 . S
N2032 C2034 1.356 . S
N2032 H2044 0.984 . S
N2032 H2045 0.985 . S
N2033 C2035 1.356 . S
N2033 H2038 0.984 . S
N2033 H2039 0.985 . S
C2034 C2028 1.379 . S
C2034 C2031 1.363 . S
C2034 N2032 1.356 . S
C2035 C2029 1.363 . S
C2035 C2030 1.379 . S
C2035 N2033 1.356 . S
N2036 C2028 1.356 . S
N2036 H2042 0.984 . S
N2036 H2043 0.984 . S
N2037 C2030 1.356 . S
N2037 H2040 0.984 . S
N2037 H2041 0.985 . S
H2038 N2033 0.984 . S
H2039 N2033 0.985 . S
H2040 N2037 0.984 . S
H2041 N2037 0.985 . S
H2042 N2036 0.984 . S
H2043 N2036 0.984 . S
H2044 N2032 0.984 . S
H2045 N2032 0.985 . S
C2046 C2047 1.363 . S
C2046 C2052 1.379 . S
C2046 N2054 1.356 . S
C2047 C2046 1.363 . S
C2047 C2053 1.363 . S
C2048 C2049 1.363 . S
C2048 C2053 1.379 . S
C2048 N2055 1.356 . S
C2049 C2048 1.363 . S
C2049 C2052 1.363 . S
N2050 C2052 1.356 . S
N2050 H2062 0.984 . S
N2050 H2063 0.985 . S
N2051 C2053 1.356 1_545 S
N2051 H2056 0.984 . S
N2051 H2057 0.985 . S
C2052 C2046 1.379 . S
C2052 C2049 1.363 . S
C2052 N2050 1.356 . S
C2053 C2047 1.363 . S
C2053 C2048 1.379 . S
C2053 N2051 1.356 1_565 S
N2054 C2046 1.356 . S
N2054 H2060 0.984 . S
N2054 H2061 0.984 1_565 S
N2055 C2048 1.356 . S
N2055 H2058 0.984 . S
N2055 H2059 0.985 . S
H2056 N2051 0.984 . S
H2057 N2051 0.985 . S
H2058 N2055 0.984 . S
H2059 N2055 0.985 . S
H2060 N2054 0.984 . S
H2061 N2054 0.984 1_545 S
H2062 N2050 0.984 . S
H2063 N2050 0.985 . S
C2064 C2065 1.363 . S
C2064 C2070 1.379 . S
C2064 N2072 1.356 . S
C2065 C2064 1.363 . S
C2065 C2071 1.363 . S
C2066 C2067 1.363 . S
C2066 C2071 1.379 . S
C2066 N2073 1.356 . S
C2067 C2066 1.363 . S
C2067 C2070 1.363 . S
N2068 C2070 1.356 . S
N2068 H2080 0.984 . S
N2068 H2081 0.985 . S
N2069 C2071 1.356 . S
N2069 H2074 0.984 . S
N2069 H2075 0.985 . S
C2070 C2064 1.379 . S
C2070 C2067 1.363 . S
C2070 N2068 1.356 . S
C2071 C2065 1.363 . S
C2071 C2066 1.379 . S
C2071 N2069 1.356 . S
N2072 C2064 1.356 . S
N2072 H2078 0.984 . S
N2072 H2079 0.984 . S
N2073 C2066 1.356 . S
N2073 H2076 0.984 . S
N2073 H2077 0.985 . S
H2074 N2069 0.984 . S
H2075 N2069 0.985 . S
H2076 N2073 0.984 . S
H2077 N2073 0.985 . S
H2078 N2072 0.984 . S
H2079 N2072 0.984 . S
H2080 N2068 0.984 . S
H2081 N2068 0.985 . S
C2082 C2083 1.363 . S
C2082 C2088 1.379 . S
C2082 N2090 1.356 1_455 S
C2083 C2082 1.363 . S
C2083 C2089 1.363 . S
C2084 C2085 1.363 . S
C2084 C2089 1.379 . S
C2084 N2091 1.356 . S
C2085 C2084 1.363 . S
C2085 C2088 1.363 . S
N2086 C2088 1.356 . S
N2086 H2098 0.984 . S
N2086 H2099 0.985 . S
N2087 C2089 1.356 . S
N2087 H2092 0.984 1_455 S
N2087 H2093 0.985 . S
C2088 C2082 1.379 . S
C2088 C2085 1.363 . S
C2088 N2086 1.356 . S
C2089 C2083 1.363 . S
C2089 C2084 1.379 . S
C2089 N2087 1.356 . S
N2090 C2082 1.356 1_655 S
N2090 H2096 0.984 . S
N2090 H2097 0.984 . S
N2091 C2084 1.356 . S
N2091 H2094 0.984 . S
N2091 H2095 0.985 . S
H2092 N2087 0.984 1_655 S
H2093 N2087 0.985 . S
H2094 N2091 0.984 . S
H2095 N2091 0.985 . S
H2096 N2090 0.984 . S
H2097 N2090 0.984 . S
H2098 N2086 0.984 . S
H2099 N2086 0.985 . S
C2100 C2101 1.363 . S
C2100 C2106 1.379 . S
C2100 N2108 1.356 . S
C2101 C2100 1.363 . S
C2101 C2107 1.363 . S
C2102 C2103 1.363 . S
C2102 C2107 1.379 . S
C2102 N2109 1.356 . S
C2103 C2102 1.363 . S
C2103 C2106 1.363 . S
N2104 C2106 1.356 . S
N2104 H2116 0.984 . S
N2104 H2117 0.985 . S
N2105 C2107 1.356 . S
N2105 H2110 0.984 . S
N2105 H2111 0.985 . S
C2106 C2100 1.379 . S
C2106 C2103 1.363 . S
C2106 N2104 1.356 . S
C2107 C2101 1.363 . S
C2107 C2102 1.379 . S
C2107 N2105 1.356 . S
N2108 C2100 1.356 . S
N2108 H2114 0.984 . S
N2108 H2115 0.984 . S
N2109 C2102 1.356 . S
N2109 H2112 0.984 . S
N2109 H2113 0.985 . S
H2110 N2105 0.984 . S
H2111 N2105 0.985 . S
H2112 N2109 0.984 . S
H2113 N2109 0.985 . S
H2114 N2108 0.984 . S
H2115 N2108 0.984 . S
H2116 N2104 0.984 . S
H2117 N2104 0.985 . S
C2118 C2119 1.363 . S
C2118 C2124 1.379 . S
C2118 N2126 1.356 . S
C2119 C2118 1.363 . S
C2119 C2125 1.363 . S
C2120 C2121 1.363 . S
C2120 C2125 1.379 . S
C2120 N2127 1.356 . S
C2121 C2120 1.363 . S
C2121 C2124 1.363 . S
N2122 C2124 1.356 1_455 S
N2122 H2134 0.984 . S
N2122 H2135 0.985 . S
N2123 C2125 1.356 . S
N2123 H2128 0.984 . S
N2123 H2129 0.985 . S
C2124 C2118 1.379 . S
C2124 C2121 1.363 . S
C2124 N2122 1.356 1_655 S
C2125 C2119 1.363 . S
C2125 C2120 1.379 . S
C2125 N2123 1.356 . S
N2126 C2118 1.356 . S
N2126 H2132 0.984 . S
N2126 H2133 0.984 . S
N2127 C2120 1.356 . S
N2127 H2130 1.031 . S
N2127 H2131 0.985 . S
H2128 N2123 0.984 . S
H2129 N2123 0.985 . S
H2130 N2127 1.031 . S
H2131 N2127 0.985 . S
H2132 N2126 0.984 . S
H2133 N2126 0.984 . S
H2134 N2122 0.984 . S
H2135 N2122 0.985 . S
C2136 C2137 1.363 . S
C2136 C2142 1.379 . S
C2136 N2144 1.356 . S
C2137 C2136 1.363 . S
C2137 C2143 1.363 . S
C2138 C2139 1.363 . S
C2138 C2143 1.379 . S
C2138 N2145 1.356 . S
C2139 C2138 1.363 . S
C2139 C2142 1.363 . S
N2140 C2142 1.356 . S
N2140 H2152 0.984 . S
N2140 H2153 0.985 . S
N2141 C2143 1.356 . S
N2141 H2146 0.984 . S
N2141 H2147 0.985 . S
C2142 C2136 1.379 . S
C2142 C2139 1.363 . S
C2142 N2140 1.356 . S
C2143 C2137 1.363 . S
C2143 C2138 1.379 . S
C2143 N2141 1.356 . S
N2144 C2136 1.356 . S
N2144 H2150 0.984 . S
N2144 H2151 0.984 . S
N2145 C2138 1.356 . S
N2145 H2148 0.984 . S
N2145 H2149 0.985 . S
H2146 N2141 0.984 . S
H2147 N2141 0.985 . S
H2148 N2145 0.984 . S
H2149 N2145 0.985 . S
H2150 N2144 0.984 . S
H2151 N2144 0.984 . S
H2152 N2140 0.984 . S
H2153 N2140 0.985 . S
C2154 C2155 1.363 . S
C2154 C2160 1.379 . S
C2154 N2162 1.356 . S
C2155 C2154 1.363 . S
C2155 C2161 1.363 . S
C2156 C2157 1.363 . S
C2156 C2161 1.379 . S
C2156 N2163 1.356 . S
C2157 C2156 1.363 . S
C2157 C2160 1.363 . S
N2158 C2160 1.356 . S
N2158 H2170 0.984 . S
N2158 H2171 0.985 . S
N2159 C2161 1.356 . S
N2159 H2164 0.984 . S
N2159 H2165 0.985 . S
C2160 C2154 1.379 . S
C2160 C2157 1.363 . S
C2160 N2158 1.356 . S
C2161 C2155 1.363 . S
C2161 C2156 1.379 . S
C2161 N2159 1.356 . S
N2162 C2154 1.356 . S
N2162 H2168 0.984 . S
N2162 H2169 0.984 . S
N2163 C2156 1.356 . S
N2163 H2166 0.984 . S
N2163 H2167 0.985 . S
H2164 N2159 0.984 . S
H2165 N2159 0.985 . S
H2166 N2163 0.984 . S
H2167 N2163 0.985 . S
H2168 N2162 0.984 . S
H2169 N2162 0.984 . S
H2170 N2158 0.984 . S
H2171 N2158 0.985 . S
C2172 C2173 1.363 . S
C2172 C2178 1.379 . S
C2172 N2180 1.356 . S
C2173 C2172 1.363 . S
C2173 C2179 1.363 . S
C2174 C2175 1.363 . S
C2174 C2179 1.379 . S
C2174 N2181 1.356 . S
C2175 C2174 1.363 . S
C2175 C2178 1.363 . S
N2176 C2178 1.356 . S
N2176 H2188 0.984 . S
N2176 H2189 0.985 . S
N2177 C2179 1.356 . S
N2177 H2182 0.984 . S
N2177 H2183 0.985 . S
C2178 C2172 1.379 . S
C2178 C2175 1.363 . S
C2178 N2176 1.356 . S
C2179 C2173 1.363 . S
C2179 C2174 1.379 . S
C2179 N2177 1.356 . S
N2180 C2172 1.356 . S
N2180 H2186 0.984 . S
N2180 H2187 0.984 . S
N2181 C2174 1.356 . S
N2181 H2184 0.984 . S
N2181 H2185 0.985 . S
H2182 N2177 0.984 . S
H2183 N2177 0.985 . S
H2184 N2181 0.984 . S
H2185 N2181 0.985 . S
H2186 N2180 0.984 . S
H2187 N2180 0.984 . S
H2188 N2176 0.984 . S
H2189 N2176 0.985 . S
C2190 C2191 1.363 . S
C2190 C2196 1.379 . S
C2190 N2198 1.356 . S
C2191 C2190 1.363 . S
C2191 C2197 1.363 . S
C2192 C2193 1.363 . S
C2192 C2197 1.379 . S
C2192 N2199 1.356 . S
C2193 C2192 1.363 . S
C2193 C2196 1.363 . S
N2194 C2196 1.356 . S
N2194 H2206 0.984 . S
N2194 H2207 0.985 . S
N2195 C2197 1.356 . S
N2195 H2200 0.984 . S
N2195 H2201 0.985 . S
C2196 C2190 1.379 . S
C2196 C2193 1.363 . S
C2196 N2194 1.356 . S
C2197 C2191 1.363 . S
C2197 C2192 1.379 . S
C2197 N2195 1.356 . S
N2198 C2190 1.356 . S
N2198 H2204 0.984 . S
N2198 H2205 0.984 . S
N2199 C2192 1.356 . S
N2199 H2202 0.984 . S
N2199 H2203 0.985 . S
H2200 N2195 0.984 . S
H2201 N2195 0.985 . S
H2202 N2199 0.984 . S
H2203 N2199 0.985 . S
H2204 N2198 0.984 . S
H2205 N2198 0.984 . S
H2206 N2194 0.984 . S
H2207 N2194 0.985 . S
C2208 C2209 1.363 . S
C2208 C2214 1.379 . S
C2208 N2216 1.356 . S
C2209 C2208 1.363 . S
C2209 C2215 1.363 . S
C2210 C2211 1.363 . S
C2210 C2215 1.379 . S
C2210 N2217 1.356 . S
C2211 C2210 1.363 . S
C2211 C2214 1.363 . S
N2212 C2214 1.356 . S
N2212 H2224 0.984 . S
N2212 H2225 0.985 . S
N2213 C2215 1.356 . S
N2213 H2218 0.984 . S
N2213 H2219 0.985 . S
C2214 C2208 1.379 . S
C2214 C2211 1.363 . S
C2214 N2212 1.356 . S
C2215 C2209 1.363 . S
C2215 C2210 1.379 . S
C2215 N2213 1.356 . S
N2216 C2208 1.356 . S
N2216 H2222 0.984 . S
N2216 H2223 0.984 . S
N2217 C2210 1.356 . S
N2217 H2220 0.984 . S
N2217 H2221 0.985 . S
H2218 N2213 0.984 . S
H2219 N2213 0.985 . S
H2220 N2217 0.984 . S
H2221 N2217 0.985 . S
H2222 N2216 0.984 . S
H2223 N2216 0.984 . S
H2224 N2212 0.984 . S
H2225 N2212 0.985 . S
C2226 C2227 1.363 . S
C2226 C2232 1.379 . S
C2226 N2234 1.356 . S
C2227 C2226 1.363 . S
C2227 C2233 1.363 . S
C2228 C2229 1.363 . S
C2228 C2233 1.379 . S
C2228 N2235 1.356 . S
C2229 C2228 1.363 . S
C2229 C2232 1.363 . S
N2230 C2232 1.356 . S
N2230 H2242 0.984 . S
N2230 H2243 0.985 . S
N2231 C2233 1.356 . S
N2231 H2236 0.984 . S
N2231 H2237 0.985 . S
C2232 C2226 1.379 . S
C2232 C2229 1.363 . S
C2232 N2230 1.356 . S
C2233 C2227 1.363 . S
C2233 C2228 1.379 . S
C2233 N2231 1.356 . S
N2234 C2226 1.356 . S
N2234 H2240 0.984 . S
N2234 H2241 0.984 . S
N2235 C2228 1.356 . S
N2235 H2238 0.984 . S
N2235 H2239 0.985 . S
H2236 N2231 0.984 . S
H2237 N2231 0.985 . S
H2238 N2235 0.984 . S
H2239 N2235 0.985 . S
H2240 N2234 0.984 . S
H2241 N2234 0.984 . S
H2242 N2230 0.984 . S
H2243 N2230 0.985 . S
C2244 C2245 1.363 . S
C2244 C2250 1.379 . S
C2244 N2252 1.356 . S
C2245 C2244 1.363 . S
C2245 C2251 1.363 . S
C2246 C2247 1.363 . S
C2246 C2251 1.379 . S
C2246 N2253 1.356 . S
C2247 C2246 1.363 . S
C2247 C2250 1.363 . S
N2248 C2250 1.356 . S
N2248 H2260 0.984 . S
N2248 H2261 0.985 . S
N2249 C2251 1.356 . S
N2249 H2254 0.984 . S
N2249 H2255 0.985 . S
C2250 C2244 1.379 . S
C2250 C2247 1.363 . S
C2250 N2248 1.356 . S
C2251 C2245 1.363 . S
C2251 C2246 1.379 . S
C2251 N2249 1.356 . S
N2252 C2244 1.356 . S
N2252 H2258 0.984 . S
N2252 H2259 0.984 . S
N2253 C2246 1.356 . S
N2253 H2256 0.984 . S
N2253 H2257 0.985 . S
H2254 N2249 0.984 . S
H2255 N2249 0.985 . S
H2256 N2253 0.984 . S
H2257 N2253 0.985 . S
H2258 N2252 0.984 . S
H2259 N2252 0.984 . S
H2260 N2248 0.984 . S
H2261 N2248 0.985 . S
C2262 C2263 1.363 . S
C2262 C2268 1.379 . S
C2262 N2270 1.356 . S
C2263 C2262 1.363 . S
C2263 C2269 1.363 . S
C2264 C2265 1.363 . S
C2264 C2269 1.379 . S
C2264 N2271 1.356 . S
C2265 C2264 1.363 . S
C2265 C2268 1.363 . S
N2266 C2268 1.356 . S
N2266 H2278 0.984 . S
N2266 H2279 0.985 . S
N2267 C2269 1.356 . S
N2267 H2272 0.984 . S
N2267 H2273 0.985 . S
C2268 C2262 1.379 . S
C2268 C2265 1.363 . S
C2268 N2266 1.356 . S
C2269 C2263 1.363 . S
C2269 C2264 1.379 . S
C2269 N2267 1.356 . S
N2270 C2262 1.356 . S
N2270 H2276 0.984 . S
N2270 H2277 0.984 . S
N2271 C2264 1.356 . S
N2271 H2274 0.984 . S
N2271 H2275 0.985 . S
H2272 N2267 0.984 . S
H2273 N2267 0.985 . S
H2274 N2271 0.984 . S
H2275 N2271 0.985 . S
H2276 N2270 0.984 . S
H2277 N2270 0.984 . S
H2278 N2266 0.984 . S
H2279 N2266 0.985 . S
C2280 C2281 1.363 . S
C2280 C2286 1.379 . S
C2280 N2288 1.356 . S
C2281 C2280 1.363 . S
C2281 C2287 1.363 . S
C2282 C2283 1.363 . S
C2282 C2287 1.379 . S
C2282 N2289 1.356 . S
C2283 C2282 1.363 . S
C2283 C2286 1.363 . S
N2284 C2286 1.356 . S
N2284 H2296 0.984 . S
N2284 H2297 0.985 . S
N2285 C2287 1.356 . S
N2285 H2290 0.984 . S
N2285 H2291 0.985 . S
C2286 C2280 1.379 . S
C2286 C2283 1.363 . S
C2286 N2284 1.356 . S
C2287 C2281 1.363 . S
C2287 C2282 1.379 . S
C2287 N2285 1.356 . S
N2288 C2280 1.356 . S
N2288 H2294 0.984 . S
N2288 H2295 0.984 . S
N2289 C2282 1.356 . S
N2289 H2292 0.984 . S
N2289 H2293 0.985 . S
H2290 N2285 0.984 . S
H2291 N2285 0.985 . S
H2292 N2289 0.984 . S
H2293 N2289 0.985 . S
H2294 N2288 0.984 . S
H2295 N2288 0.984 . S
H2296 N2284 0.984 . S
H2297 N2284 0.985 . S
C2298 C2299 1.363 . S
C2298 C2304 1.379 . S
C2298 N2306 1.356 . S
C2299 C2298 1.363 . S
C2299 C2305 1.363 . S
C2300 C2301 1.363 . S
C2300 C2305 1.379 . S
C2300 N2307 1.356 . S
C2301 C2300 1.363 . S
C2301 C2304 1.363 . S
N2302 C2304 1.356 . S
N2302 H2314 0.984 . S
N2302 H2315 0.985 . S
N2303 C2305 1.356 . S
N2303 H2308 0.984 . S
N2303 H2309 0.985 . S
C2304 C2298 1.379 . S
C2304 C2301 1.363 . S
C2304 N2302 1.356 . S
C2305 C2299 1.363 . S
C2305 C2300 1.379 . S
C2305 N2303 1.356 . S
N2306 C2298 1.356 . S
N2306 H2312 0.984 . S
N2306 H2313 0.984 . S
N2307 C2300 1.356 . S
N2307 H2310 0.984 . S
N2307 H2311 0.985 . S
H2308 N2303 0.984 . S
H2309 N2303 0.985 . S
H2310 N2307 0.984 . S
H2311 N2307 0.985 . S
H2312 N2306 0.984 . S
H2313 N2306 0.984 . S
H2314 N2302 0.984 . S
H2315 N2302 0.985 . S
C2316 C2317 1.363 . S
C2316 C2322 1.379 . S
C2316 N2324 1.356 . S
C2317 C2316 1.363 . S
C2317 C2323 1.363 . S
C2318 C2319 1.363 . S
C2318 C2323 1.379 . S
C2318 N2325 1.356 . S
C2319 C2318 1.363 . S
C2319 C2322 1.363 . S
N2320 C2322 1.356 . S
N2320 H2332 0.984 . S
N2320 H2333 0.985 . S
N2321 C2323 1.356 . S
N2321 H2326 0.984 . S
N2321 H2327 0.985 . S
C2322 C2316 1.379 . S
C2322 C2319 1.363 . S
C2322 N2320 1.356 . S
C2323 C2317 1.363 . S
C2323 C2318 1.379 . S
C2323 N2321 1.356 . S
N2324 C2316 1.356 . S
N2324 H2330 0.984 . S
N2324 H2331 0.984 . S
N2325 C2318 1.356 . S
N2325 H2328 0.984 . S
N2325 H2329 0.985 . S
H2326 N2321 0.984 . S
H2327 N2321 0.985 . S
H2328 N2325 0.984 . S
H2329 N2325 0.985 . S
H2330 N2324 0.984 . S
H2331 N2324 0.984 . S
H2332 N2320 0.984 . S
H2333 N2320 0.985 . S
C2334 C2335 1.363 . S
C2334 C2340 1.379 . S
C2334 N2342 1.356 . S
C2335 C2334 1.363 . S
C2335 C2341 1.363 . S
C2336 C2337 1.363 . S
C2336 C2341 1.379 . S
C2336 N2343 1.356 . S
C2337 C2336 1.363 . S
C2337 C2340 1.363 . S
N2338 C2340 1.356 . S
N2338 H2350 0.984 . S
N2338 H2351 0.985 . S
N2339 C2341 1.356 . S
N2339 H2344 0.984 . S
N2339 H2345 0.985 . S
C2340 C2334 1.379 . S
C2340 C2337 1.363 . S
C2340 N2338 1.356 . S
C2341 C2335 1.363 . S
C2341 C2336 1.379 . S
C2341 N2339 1.356 . S
N2342 C2334 1.356 . S
N2342 H2348 0.984 . S
N2342 H2349 0.984 . S
N2343 C2336 1.356 . S
N2343 H2346 0.984 . S
N2343 H2347 0.985 . S
H2344 N2339 0.984 . S
H2345 N2339 0.985 . S
H2346 N2343 0.984 . S
H2347 N2343 0.985 . S
H2348 N2342 0.984 . S
H2349 N2342 0.984 . S
H2350 N2338 0.984 . S
H2351 N2338 0.985 . S
C2352 C2353 1.363 . S
C2352 C2358 1.379 . S
C2352 N2360 1.356 . S
C2353 C2352 1.363 . S
C2353 C2359 1.363 . S
C2354 C2355 1.363 . S
C2354 C2359 1.379 . S
C2354 N2361 1.356 . S
C2355 C2354 1.363 . S
C2355 C2358 1.363 . S
N2356 C2358 1.356 . S
N2356 H2368 0.984 . S
N2356 H2369 0.985 . S
N2357 C2359 1.356 . S
N2357 H2362 0.984 . S
N2357 H2363 0.985 . S
C2358 C2352 1.379 . S
C2358 C2355 1.363 . S
C2358 N2356 1.356 . S
C2359 C2353 1.363 . S
C2359 C2354 1.379 . S
C2359 N2357 1.356 . S
N2360 C2352 1.356 . S
N2360 H2366 0.984 . S
N2360 H2367 0.984 . S
N2361 C2354 1.356 . S
N2361 H2364 0.984 . S
N2361 H2365 0.985 . S
H2362 N2357 0.984 . S
H2363 N2357 0.985 . S
H2364 N2361 0.984 . S
H2365 N2361 0.985 . S
H2366 N2360 0.984 . S
H2367 N2360 0.984 . S
H2368 N2356 0.984 . S
H2369 N2356 0.985 . S
C2370 C2371 1.363 . S
C2370 C2376 1.379 . S
C2370 N2378 1.356 . S
C2371 C2370 1.363 . S
C2371 C2377 1.363 . S
C2372 C2373 1.363 . S
C2372 C2377 1.379 . S
C2372 N2379 1.356 . S
C2373 C2372 1.363 . S
C2373 C2376 1.363 . S
N2374 C2376 1.356 . S
N2374 H2386 0.984 . S
N2374 H2387 0.985 . S
N2375 C2377 1.356 . S
N2375 H2380 0.984 . S
N2375 H2381 0.985 . S
C2376 C2370 1.379 . S
C2376 C2373 1.363 . S
C2376 N2374 1.356 . S
C2377 C2371 1.363 . S
C2377 C2372 1.379 . S
C2377 N2375 1.356 . S
N2378 C2370 1.356 . S
N2378 H2384 0.984 . S
N2378 H2385 0.984 . S
N2379 C2372 1.356 . S
N2379 H2382 0.984 . S
N2379 H2383 0.985 . S
H2380 N2375 0.984 . S
H2381 N2375 0.985 . S
H2382 N2379 0.984 . S
H2383 N2379 0.985 . S
H2384 N2378 0.984 . S
H2385 N2378 0.984 . S
H2386 N2374 0.984 . S
H2387 N2374 0.985 . S
C2388 C2389 1.363 . S
C2388 C2394 1.379 . S
C2388 N2396 1.356 1_565 S
C2389 C2388 1.363 . S
C2389 C2395 1.363 . S
C2390 C2391 1.363 . S
C2390 C2395 1.379 . S
C2390 N2397 1.356 . S
C2391 C2390 1.363 . S
C2391 C2394 1.363 . S
N2392 C2394 1.356 . S
N2392 H2404 0.984 . S
N2392 H2405 0.985 . S
N2393 C2395 1.356 . S
N2393 H2398 0.984 1_565 S
N2393 H2399 0.985 . S
C2394 C2388 1.379 . S
C2394 C2391 1.363 . S
C2394 N2392 1.356 . S
C2395 C2389 1.363 . S
C2395 C2390 1.379 . S
C2395 N2393 1.356 . S
N2396 C2388 1.356 1_545 S
N2396 H2402 0.984 . S
N2396 H2403 0.984 . S
N2397 C2390 1.356 . S
N2397 H2400 0.984 . S
N2397 H2401 0.985 . S
H2398 N2393 0.984 1_545 S
H2399 N2393 0.985 . S
H2400 N2397 0.984 . S
H2401 N2397 0.985 . S
H2402 N2396 0.984 . S
H2403 N2396 0.984 . S
H2404 N2392 0.984 . S
H2405 N2392 0.985 . S
C2406 C2407 1.363 . S
C2406 C2412 1.379 . S
C2406 N2414 1.356 . S
C2407 C2406 1.363 . S
C2407 C2413 1.363 . S
C2408 C2409 1.363 . S
C2408 C2413 1.379 . S
C2408 N2415 1.356 . S
C2409 C2408 1.363 . S
C2409 C2412 1.363 . S
N2410 C2412 1.356 . S
N2410 H2422 0.984 . S
N2410 H2423 0.985 . S
N2411 C2413 1.356 . S
N2411 H2416 0.984 . S
N2411 H2417 0.985 . S
C2412 C2406 1.379 . S
C2412 C2409 1.363 . S
C2412 N2410 1.356 . S
C2413 C2407 1.363 . S
C2413 C2408 1.379 . S
C2413 N2411 1.356 . S
N2414 C2406 1.356 . S
N2414 H2420 0.984 . S
N2414 H2421 0.984 . S
N2415 C2408 1.356 . S
N2415 H2418 0.984 . S
N2415 H2419 0.985 . S
H2416 N2411 0.984 . S
H2417 N2411 0.985 . S
H2418 N2415 0.984 . S
H2419 N2415 0.985 . S
H2420 N2414 0.984 . S
H2421 N2414 0.984 . S
H2422 N2410 0.984 . S
H2423 N2410 0.985 . S
C2424 C2425 1.363 . S
C2424 C2430 1.379 . S
C2424 N2432 1.326 1_545 S
C2425 C2424 1.363 . S
C2425 C2431 1.363 . S
C2426 C2427 1.363 . S
C2426 C2431 1.379 . S
C2426 N2433 1.356 . S
C2427 C2426 1.363 . S
C2427 C2430 1.363 . S
N2428 C2430 1.356 . S
N2428 H2440 0.984 . S
N2428 H2441 0.985 . S
N2429 C2431 1.356 . S
N2429 H2434 0.984 1_545 S
N2429 H2435 0.985 . S
C2430 C2424 1.379 . S
C2430 C2427 1.363 . S
C2430 N2428 1.356 . S
C2431 C2425 1.363 . S
C2431 C2426 1.379 . S
C2431 N2429 1.356 . S
N2432 C2424 1.326 1_565 S
N2432 H2438 0.979 1_565 S
N2432 H2439 1.022 . S
N2433 C2426 1.356 . S
N2433 H2436 0.984 . S
N2433 H2437 0.985 . S
H2434 N2429 0.984 1_565 S
H2435 N2429 0.985 . S
H2436 N2433 0.984 . S
H2437 N2433 0.985 . S
H2438 N2432 0.979 1_545 S
H2439 N2432 1.022 . S
H2440 N2428 0.984 . S
H2441 N2428 0.985 . S
C2442 C2443 1.363 . S
C2442 C2448 1.379 . S
C2442 N2450 1.356 . S
C2443 C2442 1.363 . S
C2443 C2449 1.363 . S
C2444 C2445 1.363 . S
C2444 C2449 1.379 . S
C2444 N2451 1.356 . S
C2445 C2444 1.363 . S
C2445 C2448 1.363 . S
N2446 C2448 1.356 . S
N2446 H2458 0.984 . S
N2446 H2459 0.985 . S
N2447 C2449 1.356 . S
N2447 H2452 0.984 . S
N2447 H2453 0.985 . S
C2448 C2442 1.379 . S
C2448 C2445 1.363 . S
C2448 N2446 1.356 . S
C2449 C2443 1.363 . S
C2449 C2444 1.379 . S
C2449 N2447 1.356 . S
N2450 C2442 1.356 . S
N2450 H2456 0.984 . S
N2450 H2457 0.984 . S
N2451 C2444 1.356 . S
N2451 H2454 0.984 . S
N2451 H2455 0.985 . S
H2452 N2447 0.984 . S
H2453 N2447 0.985 . S
H2454 N2451 0.984 . S
H2455 N2451 0.985 . S
H2456 N2450 0.984 . S
H2457 N2450 0.984 . S
H2458 N2446 0.984 . S
H2459 N2446 0.985 . S
C2460 C2461 1.363 . S
C2460 C2466 1.379 . S
C2460 N2468 1.356 . S
C2461 C2460 1.363 . S
C2461 C2467 1.363 . S
C2462 C2463 1.363 . S
C2462 C2467 1.379 . S
C2462 N2469 1.356 . S
C2463 C2462 1.363 . S
C2463 C2466 1.363 . S
N2464 C2466 1.356 1_565 S
N2464 H2476 0.984 . S
N2464 H2477 0.985 . S
N2465 C2467 1.356 . S
N2465 H2470 0.984 . S
N2465 H2471 0.985 . S
C2466 C2460 1.379 . S
C2466 C2463 1.363 . S
C2466 N2464 1.356 1_545 S
C2467 C2461 1.363 . S
C2467 C2462 1.379 . S
C2467 N2465 1.356 . S
N2468 C2460 1.356 . S
N2468 H2474 0.984 . S
N2468 H2475 0.984 . S
N2469 C2462 1.356 . S
N2469 H2472 0.984 1_545 S
N2469 H2473 0.985 . S
H2470 N2465 0.984 . S
H2471 N2465 0.985 . S
H2472 N2469 0.984 1_565 S
H2473 N2469 0.985 . S
H2474 N2468 0.984 . S
H2475 N2468 0.984 . S
H2476 N2464 0.984 . S
H2477 N2464 0.985 . S
C2478 C2479 1.363 . S
C2478 C2484 1.379 . S
C2478 N2486 1.356 . S
C2479 C2478 1.363 . S
C2479 C2485 1.363 . S
C2480 C2481 1.363 . S
C2480 C2485 1.379 . S
C2480 N2487 1.356 . S
C2481 C2480 1.363 . S
C2481 C2484 1.363 . S
N2482 C2484 1.356 . S
N2482 H2494 0.984 . S
N2482 H2495 0.985 . S
N2483 C2485 1.356 . S
N2483 H2488 0.984 . S
N2483 H2489 0.985 . S
C2484 C2478 1.379 . S
C2484 C2481 1.363 . S
C2484 N2482 1.356 . S
C2485 C2479 1.363 . S
C2485 C2480 1.379 . S
C2485 N2483 1.356 . S
N2486 C2478 1.356 . S
N2486 H2492 0.984 . S
N2486 H2493 0.984 . S
N2487 C2480 1.356 . S
N2487 H2490 0.984 . S
N2487 H2491 0.985 . S
H2488 N2483 0.984 . S
H2489 N2483 0.985 . S
H2490 N2487 0.984 . S
H2491 N2487 0.985 . S
H2492 N2486 0.984 . S
H2493 N2486 0.984 . S
H2494 N2482 0.984 . S
H2495 N2482 0.985 . S
C2496 C2497 1.363 . S
C2496 C2502 1.379 . S
C2496 N2504 1.356 . S
C2497 C2496 1.363 . S
C2497 C2503 1.363 . S
C2498 C2499 1.363 . S
C2498 C2503 1.379 . S
C2498 N2505 1.356 . S
C2499 C2498 1.363 . S
C2499 C2502 1.363 . S
N2500 C2502 1.356 . S
N2500 H2512 0.984 . S
N2500 H2513 0.985 . S
N2501 C2503 1.356 . S
N2501 H2506 0.984 . S
N2501 H2507 0.985 . S
C2502 C2496 1.379 . S
C2502 C2499 1.363 . S
C2502 N2500 1.356 . S
C2503 C2497 1.363 . S
C2503 C2498 1.379 . S
C2503 N2501 1.356 . S
N2504 C2496 1.356 . S
N2504 H2510 0.984 . S
N2504 H2511 0.984 . S
N2505 C2498 1.356 . S
N2505 H2508 0.984 . S
N2505 H2509 0.985 . S
H2506 N2501 0.984 . S
H2507 N2501 0.985 . S
H2508 N2505 0.984 . S
H2509 N2505 0.985 . S
H2510 N2504 0.984 . S
H2511 N2504 0.984 . S
H2512 N2500 0.984 . S
H2513 N2500 0.985 . S
C2514 C2515 1.363 . S
C2514 C2520 1.379 . S
C2514 N2522 1.356 . S
C2515 C2514 1.363 . S
C2515 C2521 1.363 . S
C2516 C2517 1.363 . S
C2516 C2521 1.379 . S
C2516 N2523 1.356 . S
C2517 C2516 1.363 . S
C2517 C2520 1.363 . S
N2518 C2520 1.356 . S
N2518 H2530 0.984 . S
N2518 H2531 0.985 . S
N2519 C2521 1.356 . S
N2519 H2524 0.984 . S
N2519 H2525 0.985 . S
C2520 C2514 1.379 . S
C2520 C2517 1.363 . S
C2520 N2518 1.356 . S
C2521 C2515 1.363 . S
C2521 C2516 1.379 . S
C2521 N2519 1.356 . S
N2522 C2514 1.356 . S
N2522 H2528 0.984 . S
N2522 H2529 0.984 . S
N2523 C2516 1.356 . S
N2523 H2526 0.984 . S
N2523 H2527 0.985 . S
H2524 N2519 0.984 . S
H2525 N2519 0.985 . S
H2526 N2523 0.984 . S
H2527 N2523 0.985 . S
H2528 N2522 0.984 . S
H2529 N2522 0.984 . S
H2530 N2518 0.984 . S
H2531 N2518 0.985 . S
C2532 C2533 1.363 . S
C2532 C2538 1.379 . S
C2532 N2540 1.356 . S
C2533 C2532 1.363 . S
C2533 C2539 1.363 . S
C2534 C2535 1.363 . S
C2534 C2539 1.379 . S
C2534 N2541 1.356 . S
C2535 C2534 1.363 . S
C2535 C2538 1.363 . S
N2536 C2538 1.356 . S
N2536 H2548 0.984 . S
N2536 H2549 0.985 . S
N2537 C2539 1.356 . S
N2537 H2542 0.984 . S
N2537 H2543 0.985 . S
C2538 C2532 1.379 . S
C2538 C2535 1.363 . S
C2538 N2536 1.356 . S
C2539 C2533 1.363 . S
C2539 C2534 1.379 . S
C2539 N2537 1.356 . S
N2540 C2532 1.356 . S
N2540 H2546 0.984 . S
N2540 H2547 0.984 . S
N2541 C2534 1.356 . S
N2541 H2544 0.984 . S
N2541 H2545 0.985 . S
H2542 N2537 0.984 . S
H2543 N2537 0.985 . S
H2544 N2541 0.984 . S
H2545 N2541 0.985 . S
H2546 N2540 0.984 . S
H2547 N2540 0.984 . S
H2548 N2536 0.984 . S
H2549 N2536 0.985 . S
C2550 C2551 1.363 . S
C2550 C2556 1.379 1_545 S
C2550 N2558 1.356 . S
C2551 C2550 1.363 . S
C2551 C2557 1.363 . S
C2552 C2553 1.363 . S
C2552 C2557 1.379 1_565 S
C2552 N2559 1.356 . S
C2553 C2552 1.363 . S
C2553 C2556 1.363 . S
N2554 C2556 1.356 . S
N2554 H2566 0.984 . S
N2554 H2567 0.985 . S
N2555 C2557 1.356 . S
N2555 H2560 0.984 . S
N2555 H2561 0.985 . S
C2556 C2550 1.379 1_565 S
C2556 C2553 1.363 . S
C2556 N2554 1.356 . S
C2557 C2551 1.363 . S
C2557 C2552 1.379 1_545 S
C2557 N2555 1.356 . S
N2558 C2550 1.356 . S
N2558 H2564 0.984 . S
N2558 H2565 0.984 . S
N2559 C2552 1.356 . S
N2559 H2562 0.984 . S
N2559 H2563 0.985 . S
H2560 N2555 0.984 . S
H2561 N2555 0.985 . S
H2562 N2559 0.984 . S
H2563 N2559 0.985 . S
H2564 N2558 0.984 . S
H2565 N2558 0.984 . S
H2566 N2554 0.984 . S
H2567 N2554 0.985 . S
C2568 C2569 1.363 . S
C2568 C2574 1.379 . S
C2568 N2576 1.356 . S
C2569 C2568 1.363 . S
C2569 C2575 1.363 . S
C2570 C2571 1.363 . S
C2570 C2575 1.379 . S
C2570 N2577 1.356 . S
C2571 C2570 1.363 . S
C2571 C2574 1.363 . S
N2572 C2574 1.356 . S
N2572 H2584 0.984 . S
N2572 H2585 0.985 . S
N2573 C2575 1.356 . S
N2573 H2578 0.984 . S
N2573 H2579 0.985 . S
C2574 C2568 1.379 . S
C2574 C2571 1.363 . S
C2574 N2572 1.356 . S
C2575 C2569 1.363 . S
C2575 C2570 1.379 . S
C2575 N2573 1.356 . S
N2576 C2568 1.356 . S
N2576 H2582 0.984 . S
N2576 H2583 0.984 . S
N2577 C2570 1.356 . S
N2577 H2580 0.984 . S
N2577 H2581 0.985 . S
H2578 N2573 0.984 . S
H2579 N2573 0.985 . S
H2580 N2577 0.984 . S
H2581 N2577 0.985 . S
H2582 N2576 0.984 . S
H2583 N2576 0.984 . S
H2584 N2572 0.984 . S
H2585 N2572 0.985 . S
C2586 C2587 1.363 . S
C2586 C2592 1.379 . S
C2586 N2594 1.356 . S
C2587 C2586 1.363 . S
C2587 C2593 1.363 . S
C2588 C2589 1.363 . S
C2588 C2593 1.379 . S
C2588 N2595 1.356 . S
C2589 C2588 1.363 . S
C2589 C2592 1.363 . S
N2590 C2592 1.356 . S
N2590 H2602 0.984 . S
N2590 H2603 0.985 . S
N2591 C2593 1.356 . S
N2591 H2596 0.984 . S
N2591 H2597 0.985 . S
C2592 C2586 1.379 . S
C2592 C2589 1.363 . S
C2592 N2590 1.356 . S
C2593 C2587 1.363 . S
C2593 C2588 1.379 . S
C2593 N2591 1.356 . S
N2594 C2586 1.356 . S
N2594 H2600 0.984 . S
N2594 H2601 0.984 . S
N2595 C2588 1.356 . S
N2595 H2598 0.984 . S
N2595 H2599 0.985 . S
H2596 N2591 0.984 . S
H2597 N2591 0.985 . S
H2598 N2595 0.984 . S
H2599 N2595 0.985 . S
H2600 N2594 0.984 . S
H2601 N2594 0.984 . S
H2602 N2590 0.984 . S
H2603 N2590 0.985 . S
C2604 C2605 1.363 . S
C2604 C2610 1.379 . S
C2604 N2612 1.356 . S
C2605 C2604 1.363 . S
C2605 C2611 1.363 . S
C2606 C2607 1.363 . S
C2606 C2611 1.379 . S
C2606 N2613 1.356 . S
C2607 C2606 1.363 . S
C2607 C2610 1.363 . S
N2608 C2610 1.356 . S
N2608 H2620 0.984 . S
N2608 H2621 0.985 . S
N2609 C2611 1.356 . S
N2609 H2614 0.984 . S
N2609 H2615 0.985 . S
C2610 C2604 1.379 . S
C2610 C2607 1.363 . S
C2610 N2608 1.356 . S
C2611 C2605 1.363 . S
C2611 C2606 1.379 . S
C2611 N2609 1.356 . S
N2612 C2604 1.356 . S
N2612 H2618 0.984 . S
N2612 H2619 0.984 . S
N2613 C2606 1.356 . S
N2613 H2616 0.984 . S
N2613 H2617 0.985 . S
H2614 N2609 0.984 . S
H2615 N2609 0.985 . S
H2616 N2613 0.984 . S
H2617 N2613 0.985 . S
H2618 N2612 0.984 . S
H2619 N2612 0.984 . S
H2620 N2608 0.984 . S
H2621 N2608 0.985 . S
C2622 C2623 1.363 . S
C2622 C2628 1.379 1_565 S
C2622 N2630 1.356 . S
C2623 C2622 1.363 . S
C2623 C2629 1.363 . S
C2624 C2625 1.391 . S
C2624 C2629 1.338 1_545 S
C2624 N2631 1.381 . S
C2625 C2624 1.391 . S
C2625 C2628 1.363 . S
N2626 C2628 1.356 . S
N2626 H2638 0.984 . S
N2626 H2639 0.985 . S
N2627 C2629 1.356 . S
N2627 H2632 0.984 . S
N2627 H2633 0.985 . S
C2628 C2622 1.379 1_545 S
C2628 C2625 1.363 . S
C2628 N2626 1.356 . S
C2629 C2623 1.363 . S
C2629 C2624 1.338 1_565 S
C2629 N2627 1.356 . S
N2630 C2622 1.356 . S
N2630 H2636 0.984 . S
N2630 H2637 0.984 . S
N2631 C2624 1.381 . S
N2631 H2634 0.984 . S
N2631 H2635 0.985 . S
H2632 N2627 0.984 . S
H2633 N2627 0.985 . S
H2634 N2631 0.984 . S
H2635 N2631 0.985 . S
H2636 N2630 0.984 . S
H2637 N2630 0.984 . S
H2638 N2626 0.984 . S
H2639 N2626 0.985 . S
C2640 C2641 1.363 . S
C2640 C2646 1.379 . S
C2640 N2648 1.356 . S
C2641 C2640 1.363 . S
C2641 C2647 1.363 . S
C2642 C2643 1.363 . S
C2642 C2647 1.379 . S
C2642 N2649 1.356 . S
C2643 C2642 1.363 . S
C2643 C2646 1.363 . S
N2644 C2646 1.356 . S
N2644 H2656 0.984 . S
N2644 H2657 0.985 . S
N2645 C2647 1.356 . S
N2645 H2650 0.984 . S
N2645 H2651 0.985 . S
C2646 C2640 1.379 . S
C2646 C2643 1.363 . S
C2646 N2644 1.356 . S
C2647 C2641 1.363 . S
C2647 C2642 1.379 . S
C2647 N2645 1.356 . S
N2648 C2640 1.356 . S
N2648 H2654 0.984 . S
N2648 H2655 0.984 . S
N2649 C2642 1.356 . S
N2649 H2652 0.984 . S
N2649 H2653 0.985 . S
H2650 N2645 0.984 . S
H2651 N2645 0.985 . S
H2652 N2649 0.984 . S
H2653 N2649 0.985 . S
H2654 N2648 0.984 . S
H2655 N2648 0.984 . S
H2656 N2644 0.984 . S
H2657 N2644 0.985 . S
C2658 C2659 1.363 . S
C2658 C2664 1.379 . S
C2658 N2666 1.356 . S
C2659 C2658 1.363 . S
C2659 C2665 1.363 . S
C2660 C2661 1.363 . S
C2660 C2665 1.379 . S
C2660 N2667 1.356 . S
C2661 C2660 1.363 . S
C2661 C2664 1.363 . S
N2662 C2664 1.356 . S
N2662 H2674 0.984 . S
N2662 H2675 0.985 . S
N2663 C2665 1.356 . S
N2663 H2668 0.984 . S
N2663 H2669 0.985 . S
C2664 C2658 1.379 . S
C2664 C2661 1.363 . S
C2664 N2662 1.356 . S
C2665 C2659 1.363 . S
C2665 C2660 1.379 . S
C2665 N2663 1.356 . S
N2666 C2658 1.356 . S
N2666 H2672 0.984 . S
N2666 H2673 0.984 . S
N2667 C2660 1.356 . S
N2667 H2670 0.984 . S
N2667 H2671 0.985 . S
H2668 N2663 0.984 . S
H2669 N2663 0.985 . S
H2670 N2667 0.984 . S
H2671 N2667 0.985 . S
H2672 N2666 0.984 . S
H2673 N2666 0.984 . S
H2674 N2662 0.984 . S
H2675 N2662 0.985 . S
C2676 C2677 1.363 . S
C2676 C2682 1.379 . S
C2676 N2684 1.356 . S
C2677 C2676 1.363 . S
C2677 C2683 1.363 . S
C2678 C2679 1.363 . S
C2678 C2683 1.379 . S
C2678 N2685 1.356 . S
C2679 C2678 1.363 . S
C2679 C2682 1.363 . S
N2680 C2682 1.356 . S
N2680 H2692 0.984 . S
N2680 H2693 0.985 . S
N2681 C2683 1.356 . S
N2681 H2686 0.984 . S
N2681 H2687 0.985 . S
C2682 C2676 1.379 . S
C2682 C2679 1.363 . S
C2682 N2680 1.356 . S
C2683 C2677 1.363 . S
C2683 C2678 1.379 . S
C2683 N2681 1.356 . S
N2684 C2676 1.356 . S
N2684 H2690 0.984 . S
N2684 H2691 0.984 . S
N2685 C2678 1.356 . S
N2685 H2688 0.984 . S
N2685 H2689 0.985 . S
H2686 N2681 0.984 . S
H2687 N2681 0.985 . S
H2688 N2685 0.984 . S
H2689 N2685 0.985 . S
H2690 N2684 0.984 . S
H2691 N2684 0.984 . S
H2692 N2680 0.984 . S
H2693 N2680 0.985 . S
C2694 C2695 1.363 . S
C2694 C2700 1.379 . S
C2694 N2702 1.356 . S
C2695 C2694 1.363 . S
C2695 C2701 1.363 . S
C2696 C2697 1.363 . S
C2696 C2701 1.379 . S
C2696 N2703 1.356 . S
C2697 C2696 1.363 . S
C2697 C2700 1.363 . S
N2698 C2700 1.356 . S
N2698 H2710 0.984 . S
N2698 H2711 0.985 . S
N2699 C2701 1.356 . S
N2699 H2704 0.984 . S
N2699 H2705 0.985 . S
C2700 C2694 1.379 . S
C2700 C2697 1.363 . S
C2700 N2698 1.356 . S
C2701 C2695 1.363 . S
C2701 C2696 1.379 . S
C2701 N2699 1.356 . S
N2702 C2694 1.356 . S
N2702 H2708 0.984 . S
N2702 H2709 0.984 . S
N2703 C2696 1.356 . S
N2703 H2706 0.984 . S
N2703 H2707 0.985 . S
H2704 N2699 0.984 . S
H2705 N2699 0.985 . S
H2706 N2703 0.984 . S
H2707 N2703 0.985 . S
H2708 N2702 0.984 . S
H2709 N2702 0.984 . S
H2710 N2698 0.984 . S
H2711 N2698 0.985 . S
C2712 C2713 1.363 . S
C2712 C2718 1.379 . S
C2712 N2720 1.356 . S
C2713 C2712 1.363 . S
C2713 C2719 1.363 . S
C2714 C2715 1.363 . S
C2714 C2719 1.379 . S
C2714 N2721 1.356 . S
C2715 C2714 1.363 . S
C2715 C2718 1.363 . S
N2716 C2718 1.356 . S
N2716 H2728 0.984 . S
N2716 H2729 0.985 . S
N2717 C2719 1.356 . S
N2717 H2722 0.984 . S
N2717 H2723 0.985 . S
C2718 C2712 1.379 . S
C2718 C2715 1.363 . S
C2718 N2716 1.356 . S
C2719 C2713 1.363 . S
C2719 C2714 1.379 . S
C2719 N2717 1.356 . S
N2720 C2712 1.356 . S
N2720 H2726 0.984 . S
N2720 H2727 0.984 . S
N2721 C2714 1.356 . S
N2721 H2724 0.984 . S
N2721 H2725 0.985 . S
H2722 N2717 0.984 . S
H2723 N2717 0.985 . S
H2724 N2721 0.984 . S
H2725 N2721 0.985 . S
H2726 N2720 0.984 . S
H2727 N2720 0.984 . S
H2728 N2716 0.984 . S
H2729 N2716 0.985 . S
C2730 C2731 1.363 . S
C2730 C2736 1.379 1_655 S
C2730 N2738 1.356 . S
C2731 C2730 1.363 . S
C2731 C2737 1.363 . S
C2732 C2733 1.363 . S
C2732 C2737 1.379 1_455 S
C2732 N2739 1.356 . S
C2733 C2732 1.363 . S
C2733 C2736 1.363 . S
N2734 C2736 1.356 . S
N2734 H2746 0.984 . S
N2734 H2747 0.985 . S
N2735 C2737 1.356 . S
N2735 H2740 0.984 . S
N2735 H2741 0.985 . S
C2736 C2730 1.379 1_455 S
C2736 C2733 1.363 . S
C2736 N2734 1.356 . S
C2737 C2731 1.363 . S
C2737 C2732 1.379 1_655 S
C2737 N2735 1.356 . S
N2738 C2730 1.356 . S
N2738 H2744 0.984 . S
N2738 H2745 0.984 . S
N2739 C2732 1.356 . S
N2739 H2742 0.984 . S
N2739 H2743 0.985 . S
H2740 N2735 0.984 . S
H2741 N2735 0.985 . S
H2742 N2739 0.984 . S
H2743 N2739 0.985 . S
H2744 N2738 0.984 . S
H2745 N2738 0.984 . S
H2746 N2734 0.984 . S
H2747 N2734 0.985 . S
C2748 C2749 1.363 . S
C2748 C2754 1.379 . S
C2748 N2756 1.356 . S
C2749 C2748 1.363 . S
C2749 C2755 1.363 . S
C2750 C2751 1.363 . S
C2750 C2755 1.379 . S
C2750 N2757 1.356 . S
C2751 C2750 1.363 . S
C2751 C2754 1.363 . S
N2752 C2754 1.356 . S
N2752 H2764 0.984 . S
N2752 H2765 0.985 . S
N2753 C2755 1.356 . S
N2753 H2758 0.984 . S
N2753 H2759 0.985 . S
C2754 C2748 1.379 . S
C2754 C2751 1.363 . S
C2754 N2752 1.356 . S
C2755 C2749 1.363 . S
C2755 C2750 1.379 . S
C2755 N2753 1.356 . S
N2756 C2748 1.356 . S
N2756 H2762 0.984 . S
N2756 H2763 0.984 . S
N2757 C2750 1.356 . S
N2757 H2760 0.984 . S
N2757 H2761 0.985 . S
H2758 N2753 0.984 . S
H2759 N2753 0.985 . S
H2760 N2757 0.984 . S
H2761 N2757 0.985 . S
H2762 N2756 0.984 . S
H2763 N2756 0.984 . S
H2764 N2752 0.984 . S
H2765 N2752 0.985 . S
C2766 C2767 1.363 . S
C2766 C2772 1.379 1_655 S
C2766 N2774 1.356 . S
C2767 C2766 1.363 . S
C2767 C2773 1.363 . S
C2768 C2769 1.363 . S
C2768 C2773 1.379 1_455 S
C2768 N2775 1.356 . S
C2769 C2768 1.363 . S
C2769 C2772 1.363 . S
N2770 C2772 1.356 . S
N2770 H2782 0.984 . S
N2770 H2783 0.985 . S
N2771 C2773 1.356 . S
N2771 H2776 0.984 . S
N2771 H2777 0.985 . S
C2772 C2766 1.379 1_455 S
C2772 C2769 1.363 . S
C2772 N2770 1.356 . S
C2773 C2767 1.363 . S
C2773 C2768 1.379 1_655 S
C2773 N2771 1.356 . S
N2774 C2766 1.356 . S
N2774 H2780 0.984 . S
N2774 H2781 0.984 . S
N2775 C2768 1.356 . S
N2775 H2778 0.984 . S
N2775 H2779 0.985 . S
H2776 N2771 0.984 . S
H2777 N2771 0.985 . S
H2778 N2775 0.984 . S
H2779 N2775 0.985 . S
H2780 N2774 0.984 . S
H2781 N2774 0.984 . S
H2782 N2770 0.984 . S
H2783 N2770 0.985 . S
C2784 C2785 1.363 . S
C2784 C2790 1.379 . S
C2784 N2792 1.356 . S
C2785 C2784 1.363 . S
C2785 C2791 1.363 . S
C2786 C2787 1.363 . S
C2786 C2791 1.379 . S
C2786 N2793 1.356 . S
C2787 C2786 1.363 . S
C2787 C2790 1.363 . S
N2788 C2790 1.356 . S
N2788 H2800 0.984 . S
N2788 H2801 0.985 . S
N2789 C2791 1.356 . S
N2789 H2794 0.984 . S
N2789 H2795 0.985 . S
C2790 C2784 1.379 . S
C2790 C2787 1.363 . S
C2790 N2788 1.356 . S
C2791 C2785 1.363 . S
C2791 C2786 1.379 . S
C2791 N2789 1.356 . S
N2792 C2784 1.356 . S
N2792 H2798 0.984 . S
N2792 H2799 0.984 . S
N2793 C2786 1.356 . S
N2793 H2796 0.984 . S
N2793 H2797 0.985 . S
H2794 N2789 0.984 . S
H2795 N2789 0.985 . S
H2796 N2793 0.984 . S
H2797 N2793 0.985 . S
H2798 N2792 0.984 . S
H2799 N2792 0.984 . S
H2800 N2788 0.984 . S
H2801 N2788 0.985 . S
C2802 C2803 1.363 . S
C2802 C2808 1.379 . S
C2802 N2810 1.356 . S
C2803 C2802 1.363 . S
C2803 C2809 1.363 . S
C2804 C2805 1.363 . S
C2804 C2809 1.379 . S
C2804 N2811 1.356 . S
C2805 C2804 1.363 . S
C2805 C2808 1.363 . S
N2806 C2808 1.356 . S
N2806 H2818 0.984 . S
N2806 H2819 0.985 . S
N2807 C2809 1.356 . S
N2807 H2812 0.984 . S
N2807 H2813 0.985 . S
C2808 C2802 1.379 . S
C2808 C2805 1.363 . S
C2808 N2806 1.356 . S
C2809 C2803 1.363 . S
C2809 C2804 1.379 . S
C2809 N2807 1.356 . S
N2810 C2802 1.356 . S
N2810 H2816 0.984 . S
N2810 H2817 0.984 . S
N2811 C2804 1.356 . S
N2811 H2814 0.984 . S
N2811 H2815 0.985 . S
H2812 N2807 0.984 . S
H2813 N2807 0.985 . S
H2814 N2811 0.984 . S
H2815 N2811 0.985 . S
H2816 N2810 0.984 . S
H2817 N2810 0.984 . S
H2818 N2806 0.984 . S
H2819 N2806 0.985 . S
C2820 C2821 1.363 . S
C2820 C2826 1.379 1_554 S
C2820 N2828 1.356 . S
C2821 C2820 1.363 . S
C2821 C2827 1.381 . S
C2822 C2823 1.363 . S
C2822 C2827 1.353 1_556 S
C2822 N2829 1.356 . S
C2823 C2822 1.363 . S
C2823 C2826 1.363 . S
N2824 C2826 1.356 . S
N2824 H2836 0.984 . S
N2824 H2837 0.985 . S
N2825 C2827 1.372 . S
N2825 H2830 0.984 . S
N2825 H2831 0.985 . S
C2826 C2820 1.379 1_556 S
C2826 C2823 1.363 . S
C2826 N2824 1.356 . S
C2827 C2821 1.381 . S
C2827 C2822 1.353 1_554 S
C2827 N2825 1.372 . S
N2828 C2820 1.356 . S
N2828 H2834 0.984 . S
N2828 H2835 0.984 . S
N2829 C2822 1.356 . S
N2829 H2832 0.984 . S
N2829 H2833 0.985 . S
H2830 N2825 0.984 . S
H2831 N2825 0.985 . S
H2832 N2829 0.984 . S
H2833 N2829 0.985 . S
H2834 N2828 0.984 . S
H2835 N2828 0.984 . S
H2836 N2824 0.984 . S
H2837 N2824 0.985 . S
C2838 C2839 1.363 . S
C2838 C2844 1.379 . S
C2838 N2846 1.356 . S
C2839 C2838 1.363 . S
C2839 C2845 1.363 . S
C2840 C2841 1.363 . S
C2840 C2845 1.379 . S
C2840 N2847 1.356 . S
C2841 C2840 1.363 . S
C2841 C2844 1.363 . S
N2842 C2844 1.356 . S
N2842 H2854 0.984 . S
N2842 H2855 0.985 . S
N2843 C2845 1.356 . S
N2843 H2848 0.984 . S
N2843 H2849 0.985 . S
C2844 C2838 1.379 . S
C2844 C2841 1.363 . S
C2844 N2842 1.356 . S
C2845 C2839 1.363 . S
C2845 C2840 1.379 . S
C2845 N2843 1.356 . S
N2846 C2838 1.356 . S
N2846 H2852 0.984 . S
N2846 H2853 0.984 . S
N2847 C2840 1.356 . S
N2847 H2850 0.984 . S
N2847 H2851 0.985 . S
H2848 N2843 0.984 . S
H2849 N2843 0.985 . S
H2850 N2847 0.984 . S
H2851 N2847 0.985 . S
H2852 N2846 0.984 . S
H2853 N2846 0.984 . S
H2854 N2842 0.984 . S
H2855 N2842 0.985 . S
C2856 C2857 1.363 . S
C2856 C2862 1.379 . S
C2856 N2864 1.356 . S
C2857 C2856 1.363 . S
C2857 C2863 1.363 . S
C2858 C2859 1.363 . S
C2858 C2863 1.379 . S
C2858 N2865 1.356 . S
C2859 C2858 1.363 . S
C2859 C2862 1.363 . S
N2860 C2862 1.356 . S
N2860 H2872 0.984 . S
N2860 H2873 0.985 . S
N2861 C2863 1.356 . S
N2861 H2866 0.984 . S
N2861 H2867 0.985 . S
C2862 C2856 1.379 . S
C2862 C2859 1.363 . S
C2862 N2860 1.356 . S
C2863 C2857 1.363 . S
C2863 C2858 1.379 . S
C2863 N2861 1.356 . S
N2864 C2856 1.356 . S
N2864 H2870 0.984 . S
N2864 H2871 0.984 . S
N2865 C2858 1.356 . S
N2865 H2868 0.984 . S
N2865 H2869 0.985 . S
H2866 N2861 0.984 . S
H2867 N2861 0.985 . S
H2868 N2865 0.984 . S
H2869 N2865 0.985 . S
H2870 N2864 0.984 . S
H2871 N2864 0.984 . S
H2872 N2860 0.984 . S
H2873 N2860 0.985 . S
C2874 C2875 1.363 . S
C2874 C2880 1.379 . S
C2874 N2882 1.356 . S
C2875 C2874 1.363 . S
C2875 C2881 1.363 . S
C2876 C2877 1.363 . S
C2876 C2881 1.379 . S
C2876 N2883 1.356 . S
C2877 C2876 1.363 . S
C2877 C2880 1.363 . S
N2878 C2880 1.356 . S
N2878 H2890 0.984 . S
N2878 H2891 0.985 . S
N2879 C2881 1.356 . S
N2879 H2884 0.984 . S
N2879 H2885 0.985 . S
C2880 C2874 1.379 . S
C2880 C2877 1.363 . S
C2880 N2878 1.356 . S
C2881 C2875 1.363 . S
C2881 C2876 1.379 . S
C2881 N2879 1.356 . S
N2882 C2874 1.356 . S
N2882 H2888 0.984 . S
N2882 H2889 0.984 . S
N2883 C2876 1.356 . S
N2883 H2886 0.984 . S
N2883 H2887 0.985 . S
H2884 N2879 0.984 . S
H2885 N2879 0.985 . S
H2886 N2883 0.984 . S
H2887 N2883 0.985 . S
H2888 N2882 0.984 . S
H2889 N2882 0.984 . S
H2890 N2878 0.984 . S
H2891 N2878 0.985 . S
C2892 C2893 1.363 . S
C2892 C2898 1.379 . S
C2892 N2900 1.356 . S
C2893 C2892 1.363 . S
C2893 C2899 1.363 . S
C2894 C2895 1.363 . S
C2894 C2899 1.379 . S
C2894 N2901 1.356 . S
C2895 C2894 1.363 . S
C2895 C2898 1.363 . S
N2896 C2898 1.356 . S
N2896 H2908 0.984 . S
N2896 H2909 0.985 . S
N2897 C2899 1.356 . S
N2897 H2902 0.984 . S
N2897 H2903 0.985 . S
C2898 C2892 1.379 . S
C2898 C2895 1.363 . S
C2898 N2896 1.356 . S
C2899 C2893 1.363 . S
C2899 C2894 1.379 . S
C2899 N2897 1.356 . S
N2900 C2892 1.356 . S
N2900 H2906 0.984 . S
N2900 H2907 0.984 . S
N2901 C2894 1.356 . S
N2901 H2904 0.984 . S
N2901 H2905 0.985 . S
H2902 N2897 0.984 . S
H2903 N2897 0.985 . S
H2904 N2901 0.984 . S
H2905 N2901 0.985 . S
H2906 N2900 0.984 . S
H2907 N2900 0.984 . S
H2908 N2896 0.984 . S
H2909 N2896 0.985 . S
C2910 C2911 1.363 . S
C2910 C2916 1.379 . S
C2910 N2918 1.356 . S
C2911 C2910 1.363 . S
C2911 C2917 1.363 . S
C2912 C2913 1.363 . S
C2912 C2917 1.379 . S
C2912 N2919 1.356 . S
C2913 C2912 1.363 . S
C2913 C2916 1.363 . S
N2914 C2916 1.356 . S
N2914 H2926 0.984 . S
N2914 H2927 0.985 . S
N2915 C2917 1.356 . S
N2915 H2920 0.984 . S
N2915 H2921 0.985 . S
C2916 C2910 1.379 . S
C2916 C2913 1.363 . S
C2916 N2914 1.356 . S
C2917 C2911 1.363 . S
C2917 C2912 1.379 . S
C2917 N2915 1.356 . S
N2918 C2910 1.356 . S
N2918 H2924 0.984 . S
N2918 H2925 0.984 . S
N2919 C2912 1.356 . S
N2919 H2922 0.984 . S
N2919 H2923 0.985 . S
H2920 N2915 0.984 . S
H2921 N2915 0.985 . S
H2922 N2919 0.984 . S
H2923 N2919 0.985 . S
H2924 N2918 0.984 . S
H2925 N2918 0.984 . S
H2926 N2914 0.984 . S
H2927 N2914 0.985 . S
C2928 C2929 1.363 . S
C2928 C2934 1.379 . S
C2928 N2936 1.356 . S
C2929 C2928 1.363 . S
C2929 C2935 1.363 . S
C2930 C2931 1.363 . S
C2930 C2935 1.379 . S
C2930 N2937 1.356 . S
C2931 C2930 1.363 . S
C2931 C2934 1.363 . S
N2932 C2934 1.356 . S
N2932 H2944 0.984 . S
N2932 H2945 0.985 . S
N2933 C2935 1.356 . S
N2933 H2938 0.984 . S
N2933 H2939 0.985 . S
C2934 C2928 1.379 . S
C2934 C2931 1.363 . S
C2934 N2932 1.356 . S
C2935 C2929 1.363 . S
C2935 C2930 1.379 . S
C2935 N2933 1.356 . S
N2936 C2928 1.356 . S
N2936 H2942 0.984 . S
N2936 H2943 0.984 . S
N2937 C2930 1.356 . S
N2937 H2940 0.984 . S
N2937 H2941 0.985 . S
H2938 N2933 0.984 . S
H2939 N2933 0.985 . S
H2940 N2937 0.984 . S
H2941 N2937 0.985 . S
H2942 N2936 0.984 . S
H2943 N2936 0.984 . S
H2944 N2932 0.984 . S
H2945 N2932 0.985 . S
C2946 C2947 1.363 . S
C2946 C2952 1.379 1_565 S
C2946 N2954 1.356 . S
C2947 C2946 1.363 . S
C2947 C2953 1.363 . S
C2948 C2949 1.363 . S
C2948 C2953 1.379 1_545 S
C2948 N2955 1.356 . S
C2949 C2948 1.363 . S
C2949 C2952 1.363 . S
N2950 C2952 1.356 . S
N2950 H2962 0.984 . S
N2950 H2963 0.985 . S
N2951 C2953 1.356 . S
N2951 H2956 0.984 . S
N2951 H2957 0.985 . S
C2952 C2946 1.379 1_545 S
C2952 C2949 1.363 . S
C2952 N2950 1.356 . S
C2953 C2947 1.363 . S
C2953 C2948 1.379 1_565 S
C2953 N2951 1.356 . S
N2954 C2946 1.356 . S
N2954 H2960 0.984 . S
N2954 H2961 0.984 . S
N2955 C2948 1.356 . S
N2955 H2958 0.984 . S
N2955 H2959 0.985 . S
H2956 N2951 0.984 . S
H2957 N2951 0.985 . S
H2958 N2955 0.984 . S
H2959 N2955 0.985 . S
H2960 N2954 0.984 . S
H2961 N2954 0.984 . S
H2962 N2950 0.984 . S
H2963 N2950 0.985 . S
C2964 C2965 1.363 . S
C2964 C2970 1.379 . S
C2964 N2972 1.356 . S
C2965 C2964 1.363 . S
C2965 C2971 1.363 . S
C2966 C2967 1.363 . S
C2966 C2971 1.379 . S
C2966 N2973 1.356 . S
C2967 C2966 1.363 . S
C2967 C2970 1.363 . S
N2968 C2970 1.356 . S
N2968 H2980 0.984 . S
N2968 H2981 0.985 . S
N2969 C2971 1.356 . S
N2969 H2974 0.984 . S
N2969 H2975 0.985 . S
C2970 C2964 1.379 . S
C2970 C2967 1.363 . S
C2970 N2968 1.356 . S
C2971 C2965 1.363 . S
C2971 C2966 1.379 . S
C2971 N2969 1.356 . S
N2972 C2964 1.356 . S
N2972 H2978 0.984 . S
N2972 H2979 0.984 . S
N2973 C2966 1.356 . S
N2973 H2976 0.984 . S
N2973 H2977 0.985 . S
H2974 N2969 0.984 . S
H2975 N2969 0.985 . S
H2976 N2973 0.984 . S
H2977 N2973 0.985 . S
H2978 N2972 0.984 . S
H2979 N2972 0.984 . S
H2980 N2968 0.984 . S
H2981 N2968 0.985 . S
C2982 C2983 1.363 . S
C2982 C2988 1.379 . S
C2982 N2990 1.356 . S
C2983 C2982 1.363 . S
C2983 C2989 1.363 . S
C2984 C2985 1.363 . S
C2984 C2989 1.379 . S
C2984 N2991 1.356 . S
C2985 C2984 1.363 . S
C2985 C2988 1.363 . S
N2986 C2988 1.356 . S
N2986 H2998 0.984 . S
N2986 H2999 0.985 . S
N2987 C2989 1.356 . S
N2987 H2992 0.984 . S
N2987 H2993 0.985 . S
C2988 C2982 1.379 . S
C2988 C2985 1.363 . S
C2988 N2986 1.356 . S
C2989 C2983 1.363 . S
C2989 C2984 1.379 . S
C2989 N2987 1.356 . S
N2990 C2982 1.356 . S
N2990 H2996 0.984 . S
N2990 H2997 0.984 . S
N2991 C2984 1.356 . S
N2991 H2994 0.984 . S
N2991 H2995 0.985 . S
H2992 N2987 0.984 . S
H2993 N2987 0.985 . S
H2994 N2991 0.984 . S
H2995 N2991 0.985 . S
H2996 N2990 0.984 . S
H2997 N2990 0.984 . S
H2998 N2986 0.984 . S
H2999 N2986 0.985 . S
C3000 C3001 1.363 . S
C3000 C3006 1.379 . S
C3000 N3008 1.356 . S
C3001 C3000 1.363 . S
C3001 C3007 1.363 . S
C3002 C3003 1.363 . S
C3002 C3007 1.379 . S
C3002 N3009 1.356 . S
C3003 C3002 1.363 . S
C3003 C3006 1.363 . S
N3004 C3006 1.356 . S
N3004 H3016 0.984 . S
N3004 H3017 0.985 . S
N3005 C3007 1.356 . S
N3005 H3010 0.984 . S
N3005 H3011 0.985 . S
C3006 C3000 1.379 . S
C3006 C3003 1.363 . S
C3006 N3004 1.356 . S
C3007 C3001 1.363 . S
C3007 C3002 1.379 . S
C3007 N3005 1.356 . S
N3008 C3000 1.356 . S
N3008 H3014 0.984 . S
N3008 H3015 0.984 . S
N3009 C3002 1.356 . S
N3009 H3012 0.984 . S
N3009 H3013 0.985 . S
H3010 N3005 0.984 . S
H3011 N3005 0.985 . S
H3012 N3009 0.984 . S
H3013 N3009 0.985 . S
H3014 N3008 0.984 . S
H3015 N3008 0.984 . S
H3016 N3004 0.984 . S
H3017 N3004 0.985 . S
C3018 C3019 1.363 . S
C3018 C3024 1.379 1_565 S
C3018 N3026 1.356 . S
C3019 C3018 1.363 . S
C3019 C3025 1.363 . S
C3020 C3021 1.363 . S
C3020 C3025 1.379 1_545 S
C3020 N3027 1.356 . S
C3021 C3020 1.363 . S
C3021 C3024 1.363 . S
N3022 C3024 1.356 . S
N3022 H3034 0.984 . S
N3022 H3035 0.985 . S
N3023 C3025 1.356 . S
N3023 H3028 0.984 . S
N3023 H3029 0.985 . S
C3024 C3018 1.379 1_545 S
C3024 C3021 1.363 . S
C3024 N3022 1.356 . S
C3025 C3019 1.363 . S
C3025 C3020 1.379 1_565 S
C3025 N3023 1.356 . S
N3026 C3018 1.356 . S
N3026 H3032 0.984 . S
N3026 H3033 0.984 . S
N3027 C3020 1.356 . S
N3027 H3030 0.984 . S
N3027 H3031 0.985 . S
H3028 N3023 0.984 . S
H3029 N3023 0.985 . S
H3030 N3027 0.984 . S
H3031 N3027 0.985 . S
H3032 N3026 0.984 . S
H3033 N3026 0.984 . S
H3034 N3022 0.984 . S
H3035 N3022 0.985 . S
C3036 C3037 1.363 . S
C3036 C3042 1.379 . S
C3036 N3044 1.356 . S
C3037 C3036 1.363 . S
C3037 C3043 1.363 . S
C3038 C3039 1.363 . S
C3038 C3043 1.379 . S
C3038 N3045 1.356 . S
C3039 C3038 1.363 . S
C3039 C3042 1.363 . S
N3040 C3042 1.356 . S
N3040 H3052 0.984 . S
N3040 H3053 0.985 . S
N3041 C3043 1.356 . S
N3041 H3046 0.984 . S
N3041 H3047 0.985 . S
C3042 C3036 1.379 . S
C3042 C3039 1.363 . S
C3042 N3040 1.356 . S
C3043 C3037 1.363 . S
C3043 C3038 1.379 . S
C3043 N3041 1.356 . S
N3044 C3036 1.356 . S
N3044 H3050 0.984 . S
N3044 H3051 0.984 . S
N3045 C3038 1.356 . S
N3045 H3048 0.984 . S
N3045 H3049 0.985 . S
H3046 N3041 0.984 . S
H3047 N3041 0.985 . S
H3048 N3045 0.984 . S
H3049 N3045 0.985 . S
H3050 N3044 0.984 . S
H3051 N3044 0.984 . S
H3052 N3040 0.984 . S
H3053 N3040 0.985 . S
C3054 C3055 1.363 . S
C3054 C3060 1.379 . S
C3054 N3062 1.356 . S
C3055 C3054 1.363 . S
C3055 C3061 1.363 . S
C3056 C3057 1.363 . S
C3056 C3061 1.379 . S
C3056 N3063 1.356 . S
C3057 C3056 1.363 . S
C3057 C3060 1.363 . S
N3058 C3060 1.356 . S
N3058 H3070 0.984 . S
N3058 H3071 0.985 . S
N3059 C3061 1.356 . S
N3059 H3064 0.984 . S
N3059 H3065 0.985 . S
C3060 C3054 1.379 . S
C3060 C3057 1.363 . S
C3060 N3058 1.356 . S
C3061 C3055 1.363 . S
C3061 C3056 1.379 . S
C3061 N3059 1.356 . S
N3062 C3054 1.356 . S
N3062 H3068 0.984 . S
N3062 H3069 0.984 . S
N3063 C3056 1.356 . S
N3063 H3066 0.984 . S
N3063 H3067 0.985 . S
H3064 N3059 0.984 . S
H3065 N3059 0.985 . S
H3066 N3063 0.984 . S
H3067 N3063 0.985 . S
H3068 N3062 0.984 . S
H3069 N3062 0.984 . S
H3070 N3058 0.984 . S
H3071 N3058 0.985 . S
C3072 C3073 1.363 . S
C3072 C3078 1.379 . S
C3072 N3080 1.356 . S
C3073 C3072 1.363 . S
C3073 C3079 1.363 . S
C3074 C3075 1.363 . S
C3074 C3079 1.379 . S
C3074 N3081 1.356 . S
C3075 C3074 1.363 . S
C3075 C3078 1.363 . S
N3076 C3078 1.356 . S
N3076 H3088 0.984 . S
N3076 H3089 0.985 . S
N3077 C3079 1.356 . S
N3077 H3082 0.984 . S
N3077 H3083 0.985 . S
C3078 C3072 1.379 . S
C3078 C3075 1.363 . S
C3078 N3076 1.356 . S
C3079 C3073 1.363 . S
C3079 C3074 1.379 . S
C3079 N3077 1.356 . S
N3080 C3072 1.356 . S
N3080 H3086 0.984 . S
N3080 H3087 0.984 . S
N3081 C3074 1.356 . S
N3081 H3084 0.984 . S
N3081 H3085 0.985 . S
H3082 N3077 0.984 . S
H3083 N3077 0.985 . S
H3084 N3081 0.984 . S
H3085 N3081 0.985 . S
H3086 N3080 0.984 . S
H3087 N3080 0.984 . S
H3088 N3076 0.984 . S
H3089 N3076 0.985 . S
C3090 C3091 1.363 . S
C3090 C3096 1.379 1_455 S
C3090 N3098 1.356 . S
C3091 C3090 1.363 . S
C3091 C3097 1.363 . S
C3092 C3093 1.363 . S
C3092 C3097 1.379 1_655 S
C3092 N3099 1.356 . S
C3093 C3092 1.363 . S
C3093 C3096 1.363 . S
N3094 C3096 1.356 . S
N3094 H3106 0.984 . S
N3094 H3107 0.985 . S
N3095 C3097 1.356 . S
N3095 H3100 0.984 . S
N3095 H3101 0.985 . S
C3096 C3090 1.379 1_655 S
C3096 C3093 1.363 . S
C3096 N3094 1.356 . S
C3097 C3091 1.363 . S
C3097 C3092 1.379 1_455 S
C3097 N3095 1.356 . S
N3098 C3090 1.356 . S
N3098 H3104 0.984 . S
N3098 H3105 0.984 . S
N3099 C3092 1.356 . S
N3099 H3102 0.984 . S
N3099 H3103 0.985 . S
H3100 N3095 0.984 . S
H3101 N3095 0.985 . S
H3102 N3099 0.984 . S
H3103 N3099 0.985 . S
H3104 N3098 0.984 . S
H3105 N3098 0.984 . S
H3106 N3094 0.984 . S
H3107 N3094 0.985 . S
C3108 C3109 1.363 . S
C3108 C3114 1.379 . S
C3108 N3116 1.356 . S
C3109 C3108 1.363 . S
C3109 C3115 1.363 . S
C3110 C3111 1.363 . S
C3110 C3115 1.379 . S
C3110 N3117 1.356 . S
C3111 C3110 1.363 . S
C3111 C3114 1.363 . S
N3112 C3114 1.356 . S
N3112 H3124 0.984 . S
N3112 H3125 0.985 . S
N3113 C3115 1.356 . S
N3113 H3118 0.984 . S
N3113 H3119 0.985 . S
C3114 C3108 1.379 . S
C3114 C3111 1.363 . S
C3114 N3112 1.356 . S
C3115 C3109 1.363 . S
C3115 C3110 1.379 . S
C3115 N3113 1.356 . S
N3116 C3108 1.356 . S
N3116 H3122 0.984 . S
N3116 H3123 0.984 . S
N3117 C3110 1.356 . S
N3117 H3120 0.984 . S
N3117 H3121 0.985 . S
H3118 N3113 0.984 . S
H3119 N3113 0.985 . S
H3120 N3117 0.984 . S
H3121 N3117 0.985 . S
H3122 N3116 0.984 . S
H3123 N3116 0.984 . S
H3124 N3112 0.984 . S
H3125 N3112 0.985 . S
C3126 C3127 1.363 . S
C3126 C3132 1.381 . S
C3126 N3134 1.356 . S
C3127 C3126 1.363 . S
C3127 C3133 1.363 . S
C3128 C3129 1.363 . S
C3128 C3133 1.379 1_655 S
C3128 N3135 1.356 . S
C3129 C3128 1.363 . S
C3129 C3132 1.361 1_655 S
N3130 C3132 1.355 1_655 S
N3130 H3142 0.984 . S
N3130 H3143 0.985 . S
N3131 C3133 1.356 . S
N3131 H3136 0.984 . S
N3131 H3137 0.985 . S
C3132 C3126 1.381 . S
C3132 C3129 1.361 1_455 S
C3132 N3130 1.355 1_455 S
C3133 C3127 1.363 . S
C3133 C3128 1.379 1_455 S
C3133 N3131 1.356 . S
N3134 C3126 1.356 . S
N3134 H3140 0.984 . S
N3134 H3141 0.984 . S
N3135 C3128 1.356 . S
N3135 H3138 0.984 . S
N3135 H3139 0.985 . S
H3136 N3131 0.984 . S
H3137 N3131 0.985 . S
H3138 N3135 0.984 . S
H3139 N3135 0.985 . S
H3140 N3134 0.984 . S
H3141 N3134 0.984 . S
H3142 N3130 0.984 . S
H3143 N3130 0.985 . S
C3144 C3145 1.363 . S
C3144 C3150 1.379 . S
C3144 N3152 1.356 . S
C3145 C3144 1.363 . S
C3145 C3151 1.363 . S
C3146 C3147 1.363 . S
C3146 C3151 1.379 . S
C3146 N3153 1.356 . S
C3147 C3146 1.363 . S
C3147 C3150 1.363 . S
N3148 C3150 1.356 . S
N3148 H3160 0.984 . S
N3148 H3161 0.985 . S
N3149 C3151 1.356 . S
N3149 H3154 0.984 . S
N3149 H3155 0.985 . S
C3150 C3144 1.379 . S
C3150 C3147 1.363 . S
C3150 N3148 1.356 . S
C3151 C3145 1.363 . S
C3151 C3146 1.379 . S
C3151 N3149 1.356 . S
N3152 C3144 1.356 . S
N3152 H3158 0.984 . S
N3152 H3159 0.984 . S
N3153 C3146 1.356 . S
N3153 H3156 0.984 . S
N3153 H3157 0.985 . S
H3154 N3149 0.984 . S
H3155 N3149 0.985 . S
H3156 N3153 0.984 . S
H3157 N3153 0.985 . S
H3158 N3152 0.984 . S
H3159 N3152 0.984 . S
H3160 N3148 0.984 . S
H3161 N3148 0.985 . S
C3162 C3163 1.363 . S
C3162 C3168 1.379 . S
C3162 N3170 1.356 . S
C3163 C3162 1.363 . S
C3163 C3169 1.363 . S
C3164 C3165 1.363 . S
C3164 C3169 1.379 . S
C3164 N3171 1.356 . S
C3165 C3164 1.363 . S
C3165 C3168 1.363 . S
N3166 C3168 1.356 . S
N3166 H3178 0.984 . S
N3166 H3179 0.985 . S
N3167 C3169 1.356 . S
N3167 H3172 0.984 . S
N3167 H3173 0.985 . S
C3168 C3162 1.379 . S
C3168 C3165 1.363 . S
C3168 N3166 1.356 . S
C3169 C3163 1.363 . S
C3169 C3164 1.379 . S
C3169 N3167 1.356 . S
N3170 C3162 1.356 . S
N3170 H3176 0.984 . S
N3170 H3177 0.984 . S
N3171 C3164 1.356 . S
N3171 H3174 0.984 . S
N3171 H3175 0.985 . S
H3172 N3167 0.984 . S
H3173 N3167 0.985 . S
H3174 N3171 0.984 . S
H3175 N3171 0.985 . S
H3176 N3170 0.984 . S
H3177 N3170 0.984 . S
H3178 N3166 0.984 . S
H3179 N3166 0.985 . S
C3180 C3181 1.363 . S
C3180 C3186 1.379 . S
C3180 N3188 1.356 . S
C3181 C3180 1.363 . S
C3181 C3187 1.363 . S
C3182 C3183 1.363 . S
C3182 C3187 1.379 . S
C3182 N3189 1.356 . S
C3183 C3182 1.363 . S
C3183 C3186 1.363 . S
N3184 C3186 1.356 . S
N3184 H3196 0.984 . S
N3184 H3197 0.985 . S
N3185 C3187 1.356 . S
N3185 H3190 0.984 . S
N3185 H3191 0.985 . S
C3186 C3180 1.379 . S
C3186 C3183 1.363 . S
C3186 N3184 1.356 . S
C3187 C3181 1.363 . S
C3187 C3182 1.379 . S
C3187 N3185 1.356 . S
N3188 C3180 1.356 . S
N3188 H3194 0.984 . S
N3188 H3195 0.984 . S
N3189 C3182 1.356 . S
N3189 H3192 0.984 . S
N3189 H3193 0.985 . S
H3190 N3185 0.984 . S
H3191 N3185 0.985 . S
H3192 N3189 0.984 . S
H3193 N3189 0.985 . S
H3194 N3188 0.984 . S
H3195 N3188 0.984 . S
H3196 N3184 0.984 . S
H3197 N3184 0.985 . S
C3198 C3199 1.363 . S
C3198 C3204 1.379 . S
C3198 N3206 1.356 . S
C3199 C3198 1.363 . S
C3199 C3205 1.363 . S
C3200 C3201 1.363 . S
C3200 C3205 1.379 . S
C3200 N3207 1.356 . S
C3201 C3200 1.363 . S
C3201 C3204 1.363 . S
N3202 C3204 1.356 . S
N3202 H3214 0.984 . S
N3202 H3215 0.985 . S
N3203 C3205 1.356 . S
N3203 H3208 0.984 . S
N3203 H3209 0.985 . S
C3204 C3198 1.379 . S
C3204 C3201 1.363 . S
C3204 N3202 1.356 . S
C3205 C3199 1.363 . S
C3205 C3200 1.379 . S
C3205 N3203 1.356 . S
N3206 C3198 1.356 . S
N3206 H3212 0.984 . S
N3206 H3213 0.984 . S
N3207 C3200 1.356 . S
N3207 H3210 0.984 . S
N3207 H3211 0.985 . S
H3208 N3203 0.984 . S
H3209 N3203 0.985 . S
H3210 N3207 0.984 . S
H3211 N3207 0.985 . S
H3212 N3206 0.984 . S
H3213 N3206 0.984 . S
H3214 N3202 0.984 . S
H3215 N3202 0.985 . S
C3216 C3217 1.363 . S
C3216 C3222 1.379 . S
C3216 N3224 1.356 . S
C3217 C3216 1.363 . S
C3217 C3223 1.363 . S
C3218 C3219 1.363 . S
C3218 C3223 1.379 . S
C3218 N3225 1.356 . S
C3219 C3218 1.363 . S
C3219 C3222 1.363 . S
N3220 C3222 1.356 . S
N3220 H3232 0.984 . S
N3220 H3233 0.985 . S
N3221 C3223 1.356 . S
N3221 H3226 0.984 . S
N3221 H3227 0.985 . S
C3222 C3216 1.379 . S
C3222 C3219 1.363 . S
C3222 N3220 1.356 . S
C3223 C3217 1.363 . S
C3223 C3218 1.379 . S
C3223 N3221 1.356 . S
N3224 C3216 1.356 . S
N3224 H3230 0.984 . S
N3224 H3231 0.984 . S
N3225 C3218 1.356 . S
N3225 H3228 0.984 . S
N3225 H3229 0.985 . S
H3226 N3221 0.984 . S
H3227 N3221 0.985 . S
H3228 N3225 0.984 . S
H3229 N3225 0.985 . S
H3230 N3224 0.984 . S
H3231 N3224 0.984 . S
H3232 N3220 0.984 . S
H3233 N3220 0.985 . S
C3234 C3235 1.363 . S
C3234 C3240 1.379 . S
C3234 N3242 1.356 . S
C3235 C3234 1.363 . S
C3235 C3241 1.363 . S
C3236 C3237 1.363 . S
C3236 C3241 1.379 . S
C3236 N3243 1.356 . S
C3237 C3236 1.363 . S
C3237 C3240 1.363 . S
N3238 C3240 1.356 . S
N3238 H3250 0.984 . S
N3238 H3251 0.985 . S
N3239 C3241 1.356 . S
N3239 H3244 0.984 . S
N3239 H3245 0.985 . S
C3240 C3234 1.379 . S
C3240 C3237 1.363 . S
C3240 N3238 1.356 . S
C3241 C3235 1.363 . S
C3241 C3236 1.379 . S
C3241 N3239 1.356 . S
N3242 C3234 1.356 . S
N3242 H3248 0.984 . S
N3242 H3249 0.984 . S
N3243 C3236 1.356 . S
N3243 H3246 0.984 . S
N3243 H3247 0.985 . S
H3244 N3239 0.984 . S
H3245 N3239 0.985 . S
H3246 N3243 0.984 . S
H3247 N3243 0.985 . S
H3248 N3242 0.984 . S
H3249 N3242 0.984 . S
H3250 N3238 0.984 . S
H3251 N3238 0.985 . S
C3252 C3253 1.363 . S
C3252 C3258 1.379 . S
C3252 N3260 1.356 . S
C3253 C3252 1.363 . S
C3253 C3259 1.363 . S
C3254 C3255 1.363 . S
C3254 C3259 1.379 . S
C3254 N3261 1.356 . S
C3255 C3254 1.363 . S
C3255 C3258 1.363 . S
N3256 C3258 1.356 . S
N3256 H3268 0.984 . S
N3256 H3269 0.985 . S
N3257 C3259 1.356 . S
N3257 H3262 0.984 . S
N3257 H3263 0.985 . S
C3258 C3252 1.379 . S
C3258 C3255 1.363 . S
C3258 N3256 1.356 . S
C3259 C3253 1.363 . S
C3259 C3254 1.379 . S
C3259 N3257 1.356 . S
N3260 C3252 1.356 . S
N3260 H3266 0.984 . S
N3260 H3267 0.984 . S
N3261 C3254 1.356 . S
N3261 H3264 0.984 . S
N3261 H3265 0.985 . S
H3262 N3257 0.984 . S
H3263 N3257 0.985 . S
H3264 N3261 0.984 . S
H3265 N3261 0.985 . S
H3266 N3260 0.984 . S
H3267 N3260 0.984 . S
H3268 N3256 0.984 . S
H3269 N3256 0.985 . S
C3270 C3271 1.363 . S
C3270 C3276 1.379 . S
C3270 N3278 1.356 . S
C3271 C3270 1.363 . S
C3271 C3277 1.363 . S
C3272 C3273 1.363 . S
C3272 C3277 1.379 . S
C3272 N3279 1.356 . S
C3273 C3272 1.363 . S
C3273 C3276 1.363 . S
N3274 C3276 1.356 . S
N3274 H3286 0.984 . S
N3274 H3287 0.985 . S
N3275 C3277 1.356 . S
N3275 H3280 0.984 . S
N3275 H3281 0.985 . S
C3276 C3270 1.379 . S
C3276 C3273 1.363 . S
C3276 N3274 1.356 . S
C3277 C3271 1.363 . S
C3277 C3272 1.379 . S
C3277 N3275 1.356 . S
N3278 C3270 1.356 . S
N3278 H3284 0.984 . S
N3278 H3285 0.984 . S
N3279 C3272 1.356 . S
N3279 H3282 0.984 . S
N3279 H3283 0.985 . S
H3280 N3275 0.984 . S
H3281 N3275 0.985 . S
H3282 N3279 0.984 . S
H3283 N3279 0.985 . S
H3284 N3278 0.984 . S
H3285 N3278 0.984 . S
H3286 N3274 0.984 . S
H3287 N3274 0.985 . S
C3288 C3289 1.363 . S
C3288 C3294 1.379 1_556 S
C3288 N3296 1.356 . S
C3289 C3288 1.363 . S
C3289 C3295 1.363 . S
C3290 C3291 1.363 . S
C3290 C3295 1.379 1_554 S
C3290 N3297 1.356 . S
C3291 C3290 1.363 . S
C3291 C3294 1.363 . S
N3292 C3294 1.356 . S
N3292 H3304 0.984 . S
N3292 H3305 0.985 . S
N3293 C3295 1.356 . S
N3293 H3298 0.984 . S
N3293 H3299 0.985 . S
C3294 C3288 1.379 1_554 S
C3294 C3291 1.363 . S
C3294 N3292 1.356 . S
C3295 C3289 1.363 . S
C3295 C3290 1.379 1_556 S
C3295 N3293 1.356 . S
N3296 C3288 1.356 . S
N3296 H3302 0.984 . S
N3296 H3303 0.984 . S
N3297 C3290 1.356 . S
N3297 H3300 0.984 . S
N3297 H3301 0.985 . S
H3298 N3293 0.984 . S
H3299 N3293 0.985 . S
H3300 N3297 0.984 . S
H3301 N3297 0.985 . S
H3302 N3296 0.984 . S
H3303 N3296 0.984 . S
H3304 N3292 0.984 . S
H3305 N3292 0.985 . S
C3306 C3307 1.363 . S
C3306 C3312 1.379 . S
C3306 N3314 1.356 . S
C3307 C3306 1.363 . S
C3307 C3313 1.363 . S
C3308 C3309 1.363 . S
C3308 C3313 1.379 . S
C3308 N3315 1.356 . S
C3309 C3308 1.363 . S
C3309 C3312 1.363 . S
N3310 C3312 1.356 . S
N3310 H3322 0.984 . S
N3310 H3323 0.985 . S
N3311 C3313 1.356 . S
N3311 H3316 0.984 . S
N3311 H3317 0.985 . S
C3312 C3306 1.379 . S
C3312 C3309 1.363 . S
C3312 N3310 1.356 . S
C3313 C3307 1.363 . S
C3313 C3308 1.379 . S
C3313 N3311 1.356 . S
N3314 C3306 1.356 . S
N3314 H3320 0.984 . S
N3314 H3321 0.984 . S
N3315 C3308 1.356 . S
N3315 H3318 0.984 . S
N3315 H3319 0.985 . S
H3316 N3311 0.984 . S
H3317 N3311 0.985 . S
H3318 N3315 0.984 . S
H3319 N3315 0.985 . S
H3320 N3314 0.984 . S
H3321 N3314 0.984 . S
H3322 N3310 0.984 . S
H3323 N3310 0.985 . S
C3324 C3325 1.363 . S
C3324 C3330 1.379 1_554 S
C3324 N3332 1.356 . S
C3325 C3324 1.363 . S
C3325 C3331 1.363 . S
C3326 C3327 1.363 . S
C3326 C3331 1.379 1_556 S
C3326 N3333 1.356 . S
C3327 C3326 1.363 . S
C3327 C3330 1.363 . S
N3328 C3330 1.356 . S
N3328 H3340 0.984 . S
N3328 H3341 0.985 . S
N3329 C3331 1.356 . S
N3329 H3334 0.984 . S
N3329 H3335 0.985 . S
C3330 C3324 1.379 1_556 S
C3330 C3327 1.363 . S
C3330 N3328 1.356 . S
C3331 C3325 1.363 . S
C3331 C3326 1.379 1_554 S
C3331 N3329 1.356 . S
N3332 C3324 1.356 . S
N3332 H3338 0.984 . S
N3332 H3339 0.984 . S
N3333 C3326 1.356 . S
N3333 H3336 0.984 . S
N3333 H3337 0.985 . S
H3334 N3329 0.984 . S
H3335 N3329 0.985 . S
H3336 N3333 0.984 . S
H3337 N3333 0.985 . S
H3338 N3332 0.984 . S
H3339 N3332 0.984 . S
H3340 N3328 0.984 . S
H3341 N3328 0.985 . S
C3342 C3343 1.363 . S
C3342 C3348 1.379 1_556 S
C3342 N3350 1.356 . S
C3343 C3342 1.363 . S
C3343 C3349 1.360 . S
C3344 C3345 1.363 . S
C3344 C3349 1.383 1_554 S
C3344 N3351 1.356 . S
C3345 C3344 1.363 . S
C3345 C3348 1.363 . S
N3346 C3348 1.356 . S
N3346 H3358 0.984 . S
N3346 H3359 0.985 . S
N3347 C3349 1.354 . S
N3347 H3352 0.984 . S
N3347 H3353 0.985 . S
C3348 C3342 1.379 1_554 S
C3348 C3345 1.363 . S
C3348 N3346 1.356 . S
C3349 C3343 1.360 . S
C3349 C3344 1.383 1_556 S
C3349 N3347 1.354 . S
N3350 C3342 1.356 . S
N3350 H3356 0.984 . S
N3350 H3357 0.984 . S
N3351 C3344 1.356 . S
N3351 H3354 0.984 . S
N3351 H3355 0.985 . S
H3352 N3347 0.984 . S
H3353 N3347 0.985 . S
H3354 N3351 0.984 . S
H3355 N3351 0.985 . S
H3356 N3350 0.984 . S
H3357 N3350 0.984 . S
H3358 N3346 0.984 . S
H3359 N3346 0.985 . S
C3360 C3361 1.363 . S
C3360 C3366 1.379 . S
C3360 N3368 1.356 . S
C3361 C3360 1.363 . S
C3361 C3367 1.363 . S
C3362 C3363 1.363 . S
C3362 C3367 1.379 . S
C3362 N3369 1.356 . S
C3363 C3362 1.363 . S
C3363 C3366 1.363 . S
N3364 C3366 1.356 . S
N3364 H3376 0.984 . S
N3364 H3377 0.985 . S
N3365 C3367 1.356 . S
N3365 H3370 0.984 . S
N3365 H3371 0.985 . S
C3366 C3360 1.379 . S
C3366 C3363 1.363 . S
C3366 N3364 1.356 . S
C3367 C3361 1.363 . S
C3367 C3362 1.379 . S
C3367 N3365 1.356 . S
N3368 C3360 1.356 . S
N3368 H3374 0.984 . S
N3368 H3375 0.984 . S
N3369 C3362 1.356 . S
N3369 H3372 0.984 . S
N3369 H3373 0.985 . S
H3370 N3365 0.984 . S
H3371 N3365 0.985 . S
H3372 N3369 0.984 . S
H3373 N3369 0.985 . S
H3374 N3368 0.984 . S
H3375 N3368 0.984 . S
H3376 N3364 0.984 . S
H3377 N3364 0.985 . S
C3378 C3379 1.363 . S
C3378 C3384 1.379 . S
C3378 N3386 1.356 . S
C3379 C3378 1.363 . S
C3379 C3385 1.363 . S
C3380 C3381 1.363 . S
C3380 C3385 1.379 . S
C3380 N3387 1.356 . S
C3381 C3380 1.363 . S
C3381 C3384 1.363 . S
N3382 C3384 1.356 . S
N3382 H3394 0.984 . S
N3382 H3395 0.985 . S
N3383 C3385 1.356 . S
N3383 H3388 0.984 . S
N3383 H3389 0.985 . S
C3384 C3378 1.379 . S
C3384 C3381 1.363 . S
C3384 N3382 1.356 . S
C3385 C3379 1.363 . S
C3385 C3380 1.379 . S
C3385 N3383 1.356 . S
N3386 C3378 1.356 . S
N3386 H3392 0.984 . S
N3386 H3393 0.984 . S
N3387 C3380 1.356 . S
N3387 H3390 0.984 . S
N3387 H3391 0.985 . S
H3388 N3383 0.984 . S
H3389 N3383 0.985 . S
H3390 N3387 0.984 . S
H3391 N3387 0.985 . S
H3392 N3386 0.984 . S
H3393 N3386 0.984 . S
H3394 N3382 0.984 . S
H3395 N3382 0.985 . S
C3396 C3397 1.363 . S
C3396 C3402 1.379 . S
C3396 N3404 1.356 . S
C3397 C3396 1.363 . S
C3397 C3403 1.363 . S
C3398 C3399 1.363 . S
C3398 C3403 1.379 . S
C3398 N3405 1.356 . S
C3399 C3398 1.363 . S
C3399 C3402 1.363 . S
N3400 C3402 1.356 . S
N3400 H3412 0.984 . S
N3400 H3413 0.985 . S
N3401 C3403 1.356 . S
N3401 H3406 0.984 . S
N3401 H3407 0.985 . S
C3402 C3396 1.379 . S
C3402 C3399 1.363 . S
C3402 N3400 1.356 . S
C3403 C3397 1.363 . S
C3403 C3398 1.379 . S
C3403 N3401 1.356 . S
N3404 C3396 1.356 . S
N3404 H3410 0.984 . S
N3404 H3411 0.984 . S
N3405 C3398 1.356 . S
N3405 H3408 0.984 . S
N3405 H3409 0.985 . S
H3406 N3401 0.984 . S
H3407 N3401 0.985 . S
H3408 N3405 0.984 . S
H3409 N3405 0.985 . S
H3410 N3404 0.984 . S
H3411 N3404 0.984 . S
H3412 N3400 0.984 . S
H3413 N3400 0.985 . S
C3414 C3415 1.363 . S
C3414 C3420 1.379 . S
C3414 N3422 1.356 . S
C3415 C3414 1.363 . S
C3415 C3421 1.363 1_545 S
C3416 C3417 1.363 . S
C3416 C3421 1.379 . S
C3416 N3423 1.356 . S
C3417 C3416 1.363 . S
C3417 C3420 1.363 1_565 S
N3418 C3420 1.361 . S
N3418 H3430 1.010 . S
N3418 H3431 0.955 1_545 S
N3419 C3421 1.361 . S
N3419 H3424 0.955 1_565 S
N3419 H3425 1.010 . S
C3420 C3414 1.379 . S
C3420 C3417 1.363 1_545 S
C3420 N3418 1.361 . S
C3421 C3415 1.363 1_565 S
C3421 C3416 1.379 . S
C3421 N3419 1.361 . S
N3422 C3414 1.356 . S
N3422 H3428 0.984 . S
N3422 H3429 0.984 . S
N3423 C3416 1.356 . S
N3423 H3426 0.984 . S
N3423 H3427 0.985 . S
H3424 N3419 0.955 1_545 S
H3425 N3419 1.010 . S
H3426 N3423 0.984 . S
H3427 N3423 0.985 . S
H3428 N3422 0.984 . S
H3429 N3422 0.984 . S
H3430 N3418 1.010 . S
H3431 N3418 0.955 1_565 S
C3432 C3433 1.363 . S
C3432 C3438 1.379 . S
C3432 N3440 1.356 . S
C3433 C3432 1.363 . S
C3433 C3439 1.363 1_554 S
C3434 C3435 1.363 . S
C3434 C3439 1.379 . S
C3434 N3441 1.356 . S
C3435 C3434 1.363 . S
C3435 C3438 1.363 1_556 S
N3436 C3438 1.356 1_556 S
N3436 H3448 0.984 1_556 S
N3436 H3449 0.985 . S
N3437 C3439 1.356 1_554 S
N3437 H3442 0.984 . S
N3437 H3443 0.985 1_554 S
C3438 C3432 1.379 . S
C3438 C3435 1.363 1_554 S
C3438 N3436 1.356 1_554 S
C3439 C3433 1.363 1_556 S
C3439 C3434 1.379 . S
C3439 N3437 1.356 1_556 S
N3440 C3432 1.356 . S
N3440 H3446 0.984 . S
N3440 H3447 0.984 . S
N3441 C3434 1.356 . S
N3441 H3444 0.984 . S
N3441 H3445 0.985 . S
H3442 N3437 0.984 . S
H3443 N3437 0.985 1_556 S
H3444 N3441 0.984 . S
H3445 N3441 0.985 . S
H3446 N3440 0.984 . S
H3447 N3440 0.984 . S
H3448 N3436 0.984 1_554 S
H3449 N3436 0.985 . S
C3450 C3451 1.363 . S
C3450 C3456 1.379 . S
C3450 N3458 1.356 . S
C3451 C3450 1.363 . S
C3451 C3457 1.363 . S
C3452 C3453 1.363 . S
C3452 C3457 1.379 . S
C3452 N3459 1.356 . S
C3453 C3452 1.363 . S
C3453 C3456 1.363 . S
N3454 C3456 1.356 . S
N3454 H3466 0.984 1_455 S
N3454 H3467 0.985 . S
N3455 C3457 1.356 . S
N3455 H3460 0.984 . S
N3455 H3461 0.985 . S
C3456 C3450 1.379 . S
C3456 C3453 1.363 . S
C3456 N3454 1.356 . S
C3457 C3451 1.363 . S
C3457 C3452 1.379 . S
C3457 N3455 1.356 . S
N3458 C3450 1.356 . S
N3458 H3464 0.984 1_455 S
N3458 H3465 0.984 . S
N3459 C3452 1.356 . S
N3459 H3462 0.984 . S
N3459 H3463 0.985 . S
H3460 N3455 0.984 . S
H3461 N3455 0.985 . S
H3462 N3459 0.984 . S
H3463 N3459 0.985 . S
H3464 N3458 0.984 1_655 S
H3465 N3458 0.984 . S
H3466 N3454 0.984 1_655 S
H3467 N3454 0.985 . S
C3468 C3469 1.363 . S
C3468 C3474 1.379 . S
C3468 N3476 1.356 . S
C3469 C3468 1.363 . S
C3469 C3475 1.363 1_556 S
C3470 C3471 1.363 . S
C3470 C3475 1.379 . S
C3470 N3477 1.356 . S
C3471 C3470 1.363 . S
C3471 C3474 1.363 1_554 S
N3472 C3474 1.356 1_554 S
N3472 H3484 0.984 1_554 S
N3472 H3485 0.985 . S
N3473 C3475 1.356 1_556 S
N3473 H3478 0.984 . S
N3473 H3479 0.985 1_556 S
C3474 C3468 1.379 . S
C3474 C3471 1.363 1_556 S
C3474 N3472 1.356 1_556 S
C3475 C3469 1.363 1_554 S
C3475 C3470 1.379 . S
C3475 N3473 1.356 1_554 S
N3476 C3468 1.356 . S
N3476 H3482 0.984 . S
N3476 H3483 0.984 . S
N3477 C3470 1.356 . S
N3477 H3480 0.984 . S
N3477 H3481 0.985 . S
H3478 N3473 0.984 . S
H3479 N3473 0.985 1_554 S
H3480 N3477 0.984 . S
H3481 N3477 0.985 . S
H3482 N3476 0.984 . S
H3483 N3476 0.984 . S
H3484 N3472 0.984 1_556 S
H3485 N3472 0.985 . S
C3486 C3487 1.382 . S
C3486 C3492 1.360 1_545 S
C3486 N3494 1.363 . S
C3487 C3486 1.382 . S
C3487 C3493 1.363 . S
C3488 C3489 1.382 . S
C3488 C3493 1.360 1_565 S
C3488 N3495 1.363 . S
C3489 C3488 1.382 . S
C3489 C3492 1.363 . S
N3490 C3492 1.356 . S
N3490 H3502 0.984 1_655 S
N3490 H3503 0.985 . S
N3491 C3493 1.356 . S
N3491 H3496 0.984 . S
N3491 H3497 0.985 . S
C3492 C3486 1.360 1_565 S
C3492 C3489 1.363 . S
C3492 N3490 1.356 . S
C3493 C3487 1.363 . S
C3493 C3488 1.360 1_545 S
C3493 N3491 1.356 . S
N3494 C3486 1.363 . S
N3494 H3500 0.984 1_645 S
N3494 H3501 0.984 . S
N3495 C3488 1.363 . S
N3495 H3498 0.984 . S
N3495 H3499 0.985 1_565 S
H3496 N3491 0.984 . S
H3497 N3491 0.985 . S
H3498 N3495 0.984 . S
H3499 N3495 0.985 1_545 S
H3500 N3494 0.984 1_465 S
H3501 N3494 0.984 . S
H3502 N3490 0.984 1_455 S
H3503 N3490 0.985 . S
C3504 C3505 1.363 . S
C3504 C3510 1.379 . S
C3504 N3512 1.356 . S
C3505 C3504 1.363 . S
C3505 C3511 1.363 . S
C3506 C3507 1.363 . S
C3506 C3511 1.379 . S
C3506 N3513 1.356 . S
C3507 C3506 1.363 . S
C3507 C3510 1.363 . S
N3508 C3510 1.356 . S
N3508 H3520 0.984 . S
N3508 H3521 0.985 . S
N3509 C3511 1.356 . S
N3509 H3514 0.984 . S
N3509 H3515 0.985 . S
C3510 C3504 1.379 . S
C3510 C3507 1.363 . S
C3510 N3508 1.356 . S
C3511 C3505 1.363 . S
C3511 C3506 1.379 . S
C3511 N3509 1.356 . S
N3512 C3504 1.356 . S
N3512 H3518 0.984 . S
N3512 H3519 0.984 . S
N3513 C3506 1.356 . S
N3513 H3516 0.984 . S
N3513 H3517 0.985 . S
H3514 N3509 0.984 . S
H3515 N3509 0.985 . S
H3516 N3513 0.984 . S
H3517 N3513 0.985 . S
H3518 N3512 0.984 . S
H3519 N3512 0.984 . S
H3520 N3508 0.984 . S
H3521 N3508 0.985 . S
C3522 C3523 1.363 . S
C3522 C3528 1.379 . S
C3522 N3530 1.356 . S
C3523 C3522 1.363 . S
C3523 C3529 1.363 . S
C3524 C3525 1.363 . S
C3524 C3529 1.379 . S
C3524 N3531 1.356 . S
C3525 C3524 1.363 . S
C3525 C3528 1.363 . S
N3526 C3528 1.356 . S
N3526 H3538 0.984 . S
N3526 H3539 0.985 . S
N3527 C3529 1.356 . S
N3527 H3532 0.984 . S
N3527 H3533 0.985 1_554 S
C3528 C3522 1.379 . S
C3528 C3525 1.363 . S
C3528 N3526 1.356 . S
C3529 C3523 1.363 . S
C3529 C3524 1.379 . S
C3529 N3527 1.356 . S
N3530 C3522 1.356 . S
N3530 H3536 0.984 . S
N3530 H3537 0.984 . S
N3531 C3524 1.356 . S
N3531 H3534 0.984 . S
N3531 H3535 0.985 1_554 S
H3532 N3527 0.984 . S
H3533 N3527 0.985 1_556 S
H3534 N3531 0.984 . S
H3535 N3531 0.985 1_556 S
H3536 N3530 0.984 . S
H3537 N3530 0.984 . S
H3538 N3526 0.984 . S
H3539 N3526 0.985 . S
C3540 C3541 1.363 . S
C3540 C3546 1.379 . S
C3540 N3548 1.356 . S
C3541 C3540 1.363 . S
C3541 C3547 1.363 . S
C3542 C3543 1.363 . S
C3542 C3547 1.379 . S
C3542 N3549 1.356 . S
C3543 C3542 1.363 . S
C3543 C3546 1.363 . S
N3544 C3546 1.356 . S
N3544 H3556 0.984 . S
N3544 H3557 0.985 . S
N3545 C3547 1.356 . S
N3545 H3550 0.984 . S
N3545 H3551 0.985 . S
C3546 C3540 1.379 . S
C3546 C3543 1.363 . S
C3546 N3544 1.356 . S
C3547 C3541 1.363 . S
C3547 C3542 1.379 . S
C3547 N3545 1.356 . S
N3548 C3540 1.356 . S
N3548 H3554 0.984 . S
N3548 H3555 0.984 . S
N3549 C3542 1.356 . S
N3549 H3552 0.984 . S
N3549 H3553 0.985 . S
H3550 N3545 0.984 . S
H3551 N3545 0.985 . S
H3552 N3549 0.984 . S
H3553 N3549 0.985 . S
H3554 N3548 0.984 . S
H3555 N3548 0.984 . S
H3556 N3544 0.984 . S
H3557 N3544 0.985 . S
C3558 C3559 1.363 . S
C3558 C3564 1.379 1_455 S
C3558 N3566 1.356 . S
C3559 C3558 1.363 . S
C3559 C3565 1.363 . S
C3560 C3561 1.363 . S
C3560 C3565 1.379 1_655 S
C3560 N3567 1.356 . S
C3561 C3560 1.363 . S
C3561 C3564 1.363 . S
N3562 C3564 1.356 . S
N3562 H3574 0.984 . S
N3562 H3575 0.985 . S
N3563 C3565 1.356 . S
N3563 H3568 0.984 . S
N3563 H3569 0.985 1_556 S
C3564 C3558 1.379 1_655 S
C3564 C3561 1.363 . S
C3564 N3562 1.356 . S
C3565 C3559 1.363 . S
C3565 C3560 1.379 1_455 S
C3565 N3563 1.356 . S
N3566 C3558 1.356 . S
N3566 H3572 0.987 1_455 S
N3566 H3573 0.984 . S
N3567 C3560 1.356 . S
N3567 H3570 0.984 . S
N3567 H3571 0.987 1_656 S
H3568 N3563 0.984 . S
H3569 N3563 0.985 1_554 S
H3570 N3567 0.984 . S
H3571 N3567 0.987 1_454 S
H3572 N3566 0.987 1_655 S
H3573 N3566 0.984 . S
H3574 N3562 0.984 . S
H3575 N3562 0.985 . S
C3576 C3577 1.363 . S
C3576 C3582 1.379 . S
C3576 N3584 1.356 . S
C3577 C3576 1.363 . S
C3577 C3583 1.363 . S
C3578 C3579 1.363 . S
C3578 C3583 1.379 . S
C3578 N3585 1.356 . S
C3579 C3578 1.363 . S
C3579 C3582 1.363 . S
N3580 C3582 1.356 . S
N3580 H3592 0.984 . S
N3580 H3593 0.985 . S
N3581 C3583 1.356 . S
N3581 H3586 0.984 . S
N3581 H3587 0.985 . S
C3582 C3576 1.379 . S
C3582 C3579 1.363 . S
C3582 N3580 1.356 . S
C3583 C3577 1.363 . S
C3583 C3578 1.379 . S
C3583 N3581 1.356 . S
N3584 C3576 1.356 . S
N3584 H3590 0.984 . S
N3584 H3591 0.984 . S
N3585 C3578 1.356 . S
N3585 H3588 0.984 . S
N3585 H3589 0.985 . S
H3586 N3581 0.984 . S
H3587 N3581 0.985 . S
H3588 N3585 0.984 . S
H3589 N3585 0.985 . S
H3590 N3584 0.984 . S
H3591 N3584 0.984 . S
H3592 N3580 0.984 . S
H3593 N3580 0.985 . S
C3594 C3595 1.363 . S
C3594 C3600 1.379 1_554 S
C3594 N3602 1.356 . S
C3595 C3594 1.363 . S
C3595 C3601 1.363 . S
C3596 C3597 1.363 . S
C3596 C3601 1.379 1_556 S
C3596 N3603 1.356 . S
C3597 C3596 1.363 . S
C3597 C3600 1.363 . S
N3598 C3600 1.356 . S
N3598 H3610 0.984 . S
N3598 H3611 0.985 . S
N3599 C3601 1.356 . S
N3599 H3604 0.984 . S
N3599 H3605 0.985 . S
C3600 C3594 1.379 1_556 S
C3600 C3597 1.363 . S
C3600 N3598 1.356 . S
C3601 C3595 1.363 . S
C3601 C3596 1.379 1_554 S
C3601 N3599 1.356 . S
N3602 C3594 1.356 . S
N3602 H3608 0.986 1_554 S
N3602 H3609 0.984 . S
N3603 C3596 1.356 . S
N3603 H3606 0.984 . S
N3603 H3607 0.987 1_556 S
H3604 N3599 0.984 . S
H3605 N3599 0.985 . S
H3606 N3603 0.984 . S
H3607 N3603 0.987 1_554 S
H3608 N3602 0.986 1_556 S
H3609 N3602 0.984 . S
H3610 N3598 0.984 . S
H3611 N3598 0.985 . S
C3612 C3613 1.363 1_565 S
C3612 C3618 1.379 . S
C3612 N3620 1.356 . S
C3613 C3612 1.363 1_545 S
C3613 C3619 1.363 . S
C3614 C3615 1.363 1_545 S
C3614 C3619 1.379 . S
C3614 N3621 1.356 . S
C3615 C3614 1.363 1_565 S
C3615 C3618 1.363 . S
N3616 C3618 1.356 . S
N3616 H3628 0.984 . S
N3616 H3629 0.985 . S
N3617 C3619 1.356 . S
N3617 H3622 0.984 . S
N3617 H3623 0.985 . S
C3618 C3612 1.379 . S
C3618 C3615 1.363 . S
C3618 N3616 1.356 . S
C3619 C3613 1.363 . S
C3619 C3614 1.379 . S
C3619 N3617 1.356 . S
N3620 C3612 1.356 . S
N3620 H3626 0.984 . S
N3620 H3627 0.984 1_565 S
N3621 C3614 1.356 . S
N3621 H3624 0.984 1_545 S
N3621 H3625 0.985 . S
H3622 N3617 0.984 . S
H3623 N3617 0.985 . S
H3624 N3621 0.984 1_565 S
H3625 N3621 0.985 . S
H3626 N3620 0.984 . S
H3627 N3620 0.984 1_545 S
H3628 N3616 0.984 . S
H3629 N3616 0.985 . S
C3630 C3631 1.363 . S
C3630 C3636 1.379 . S
C3630 N3638 1.356 . S
C3631 C3630 1.363 . S
C3631 C3637 1.363 . S
C3632 C3633 1.363 . S
C3632 C3637 1.379 . S
C3632 N3639 1.356 . S
C3633 C3632 1.363 . S
C3633 C3636 1.363 . S
N3634 C3636 1.356 . S
N3634 H3646 0.984 . S
N3634 H3647 0.985 . S
N3635 C3637 1.356 . S
N3635 H3640 0.984 . S
N3635 H3641 0.985 . S
C3636 C3630 1.379 . S
C3636 C3633 1.363 . S
C3636 N3634 1.356 . S
C3637 C3631 1.363 . S
C3637 C3632 1.379 . S
C3637 N3635 1.356 . S
N3638 C3630 1.356 . S
N3638 H3644 0.984 . S
N3638 H3645 0.984 . S
N3639 C3632 1.356 . S
N3639 H3642 0.984 . S
N3639 H3643 0.985 . S
H3640 N3635 0.984 . S
H3641 N3635 0.985 . S
H3642 N3639 0.984 . S
H3643 N3639 0.985 . S
H3644 N3638 0.984 . S
H3645 N3638 0.984 . S
H3646 N3634 0.984 . S
H3647 N3634 0.985 . S
C3648 C3649 1.363 . S
C3648 C3654 1.379 . S
C3648 N3656 1.356 . S
C3649 C3648 1.363 . S
C3649 C3655 1.363 . S
C3650 C3651 1.363 . S
C3650 C3655 1.379 . S
C3650 N3657 1.356 . S
C3651 C3650 1.363 . S
C3651 C3654 1.363 . S
N3652 C3654 1.356 . S
N3652 H3664 0.984 . S
N3652 H3665 0.985 . S
N3653 C3655 1.356 . S
N3653 H3658 0.984 . S
N3653 H3659 0.985 . S
C3654 C3648 1.379 . S
C3654 C3651 1.363 . S
C3654 N3652 1.356 . S
C3655 C3649 1.363 . S
C3655 C3650 1.379 . S
C3655 N3653 1.356 . S
N3656 C3648 1.356 . S
N3656 H3662 0.984 . S
N3656 H3663 0.984 . S
N3657 C3650 1.356 . S
N3657 H3660 0.984 . S
N3657 H3661 0.985 . S
H3658 N3653 0.984 . S
H3659 N3653 0.985 . S
H3660 N3657 0.984 . S
H3661 N3657 0.985 . S
H3662 N3656 0.984 . S
H3663 N3656 0.984 . S
H3664 N3652 0.984 . S
H3665 N3652 0.985 . S
C3666 C3667 1.363 . S
C3666 C3672 1.379 . S
C3666 N3674 1.356 . S
C3667 C3666 1.363 . S
C3667 C3673 1.363 . S
C3668 C3669 1.363 . S
C3668 C3673 1.379 . S
C3668 N3675 1.356 . S
C3669 C3668 1.363 . S
C3669 C3672 1.363 . S
N3670 C3672 1.356 . S
N3670 H3682 0.984 1_545 S
N3670 H3683 0.985 . S
N3671 C3673 1.356 . S
N3671 H3676 0.984 . S
N3671 H3677 0.985 . S
C3672 C3666 1.379 . S
C3672 C3669 1.363 . S
C3672 N3670 1.356 . S
C3673 C3667 1.363 . S
C3673 C3668 1.379 . S
C3673 N3671 1.356 . S
N3674 C3666 1.356 . S
N3674 H3680 0.984 1_545 S
N3674 H3681 0.984 . S
N3675 C3668 1.356 . S
N3675 H3678 0.984 . S
N3675 H3679 0.985 . S
H3676 N3671 0.984 . S
H3677 N3671 0.985 . S
H3678 N3675 0.984 . S
H3679 N3675 0.985 . S
H3680 N3674 0.984 1_565 S
H3681 N3674 0.984 . S
H3682 N3670 0.984 1_565 S
H3683 N3670 0.985 . S
C3684 C3685 1.363 . S
C3684 C3690 1.379 . S
C3684 N3692 1.356 . S
C3685 C3684 1.363 . S
C3685 C3691 1.363 1_455 S
C3686 C3687 1.363 . S
C3686 C3691 1.379 . S
C3686 N3693 1.356 . S
C3687 C3686 1.363 . S
C3687 C3690 1.363 1_655 S
N3688 C3690 1.356 1_655 S
N3688 H3700 0.984 1_655 S
N3688 H3701 0.985 . S
N3689 C3691 1.356 1_455 S
N3689 H3694 0.984 . S
N3689 H3695 0.985 1_455 S
C3690 C3684 1.379 . S
C3690 C3687 1.363 1_455 S
C3690 N3688 1.356 1_455 S
C3691 C3685 1.363 1_655 S
C3691 C3686 1.379 . S
C3691 N3689 1.356 1_655 S
N3692 C3684 1.356 . S
N3692 H3698 0.984 . S
N3692 H3699 0.984 . S
N3693 C3686 1.356 . S
N3693 H3696 0.984 . S
N3693 H3697 0.985 . S
H3694 N3689 0.984 . S
H3695 N3689 0.985 1_655 S
H3696 N3693 0.984 . S
H3697 N3693 0.985 . S
H3698 N3692 0.984 . S
H3699 N3692 0.984 . S
H3700 N3688 0.984 1_455 S
H3701 N3688 0.985 . S
C3702 C3703 1.363 . S
C3702 C3708 1.379 1_455 S
C3702 N3710 1.356 . S
C3703 C3702 1.363 . S
C3703 C3709 1.363 . S
C3704 C3705 1.363 . S
C3704 C3709 1.379 1_655 S
C3704 N3711 1.356 . S
C3705 C3704 1.363 . S
C3705 C3708 1.363 . S
N3706 C3708 1.356 . S
N3706 H3718 0.986 1_655 S
N3706 H3719 0.985 . S
N3707 C3709 1.356 . S
N3707 H3712 0.984 . S
N3707 H3713 0.986 1_455 S
C3708 C3702 1.379 1_655 S
C3708 C3705 1.363 . S
C3708 N3706 1.356 . S
C3709 C3703 1.363 . S
C3709 C3704 1.379 1_455 S
C3709 N3707 1.356 . S
N3710 C3702 1.356 . S
N3710 H3716 0.984 . S
N3710 H3717 0.984 . S
N3711 C3704 1.356 . S
N3711 H3714 0.984 . S
N3711 H3715 0.985 . S
H3712 N3707 0.984 . S
H3713 N3707 0.986 1_655 S
H3714 N3711 0.984 . S
H3715 N3711 0.985 . S
H3716 N3710 0.984 . S
H3717 N3710 0.984 . S
H3718 N3706 0.986 1_455 S
H3719 N3706 0.985 . S
C3720 C3721 1.363 . S
C3720 C3726 1.379 . S
C3720 N3728 1.356 . S
C3721 C3720 1.363 . S
C3721 C3727 1.363 1_455 S
C3722 C3723 1.363 . S
C3722 C3727 1.379 . S
C3722 N3729 1.356 . S
C3723 C3722 1.363 . S
C3723 C3726 1.363 1_655 S
N3724 C3726 1.356 1_655 S
N3724 H3736 0.984 1_655 S
N3724 H3737 0.985 . S
N3725 C3727 1.356 1_455 S
N3725 H3730 0.984 . S
N3725 H3731 0.985 1_455 S
C3726 C3720 1.379 . S
C3726 C3723 1.363 1_455 S
C3726 N3724 1.356 1_455 S
C3727 C3721 1.363 1_655 S
C3727 C3722 1.379 . S
C3727 N3725 1.356 1_655 S
N3728 C3720 1.356 . S
N3728 H3734 0.984 . S
N3728 H3735 0.984 . S
N3729 C3722 1.356 . S
N3729 H3732 0.984 . S
N3729 H3733 0.985 . S
H3730 N3725 0.984 . S
H3731 N3725 0.985 1_655 S
H3732 N3729 0.984 . S
H3733 N3729 0.985 . S
H3734 N3728 0.984 . S
H3735 N3728 0.984 . S
H3736 N3724 0.984 1_455 S
H3737 N3724 0.985 . S
C3738 C3739 1.363 . S
C3738 C3744 1.379 . S
C3738 N3746 1.356 . S
C3739 C3738 1.363 . S
C3739 C3745 1.363 . S
C3740 C3741 1.363 . S
C3740 C3745 1.379 . S
C3740 N3747 1.356 . S
C3741 C3740 1.363 . S
C3741 C3744 1.363 . S
N3742 C3744 1.356 . S
N3742 H3754 0.984 . S
N3742 H3755 0.985 . S
N3743 C3745 1.356 . S
N3743 H3748 0.984 . S
N3743 H3749 0.985 . S
C3744 C3738 1.379 . S
C3744 C3741 1.363 . S
C3744 N3742 1.356 . S
C3745 C3739 1.363 . S
C3745 C3740 1.379 . S
C3745 N3743 1.356 . S
N3746 C3738 1.356 . S
N3746 H3752 0.984 . S
N3746 H3753 0.984 . S
N3747 C3740 1.356 . S
N3747 H3750 0.984 . S
N3747 H3751 0.985 . S
H3748 N3743 0.984 . S
H3749 N3743 0.985 . S
H3750 N3747 0.984 . S
H3751 N3747 0.985 . S
H3752 N3746 0.984 . S
H3753 N3746 0.984 . S
H3754 N3742 0.984 . S
H3755 N3742 0.985 . S
C3756 C3757 1.363 . S
C3756 C3762 1.379 1_565 S
C3756 N3764 1.356 . S
C3757 C3756 1.363 . S
C3757 C3763 1.363 . S
C3758 C3759 1.363 . S
C3758 C3763 1.379 1_545 S
C3758 N3765 1.356 . S
C3759 C3758 1.363 . S
C3759 C3762 1.363 . S
N3760 C3762 1.356 . S
N3760 H3772 0.984 . S
N3760 H3773 0.985 . S
N3761 C3763 1.356 . S
N3761 H3766 0.984 . S
N3761 H3767 0.985 . S
C3762 C3756 1.379 1_545 S
C3762 C3759 1.363 . S
C3762 N3760 1.356 . S
C3763 C3757 1.363 . S
C3763 C3758 1.379 1_565 S
C3763 N3761 1.356 . S
N3764 C3756 1.356 . S
N3764 H3770 0.984 . S
N3764 H3771 0.984 . S
N3765 C3758 1.356 . S
N3765 H3768 0.984 . S
N3765 H3769 0.985 . S
H3766 N3761 0.984 . S
H3767 N3761 0.985 . S
H3768 N3765 0.984 . S
H3769 N3765 0.985 . S
H3770 N3764 0.984 . S
H3771 N3764 0.984 . S
H3772 N3760 0.984 . S
H3773 N3760 0.985 . S
C3774 C3775 1.363 . S
C3774 C3780 1.379 1_554 S
C3774 N3782 1.356 . S
C3775 C3774 1.363 . S
C3775 C3781 1.363 . S
C3776 C3777 1.363 . S
C3776 C3781 1.379 1_556 S
C3776 N3783 1.356 . S
C3777 C3776 1.363 . S
C3777 C3780 1.363 . S
N3778 C3780 1.356 . S
N3778 H3790 0.984 . S
N3778 H3791 0.985 . S
N3779 C3781 1.356 . S
N3779 H3784 0.984 . S
N3779 H3785 0.985 1_565 S
C3780 C3774 1.379 1_556 S
C3780 C3777 1.363 . S
C3780 N3778 1.356 . S
C3781 C3775 1.363 . S
C3781 C3776 1.379 1_554 S
C3781 N3779 1.356 . S
N3782 C3774 1.356 . S
N3782 H3788 0.987 1_554 S
N3782 H3789 0.984 . S
N3783 C3776 1.356 . S
N3783 H3786 0.984 . S
N3783 H3787 0.987 1_566 S
H3784 N3779 0.984 . S
H3785 N3779 0.985 1_545 S
H3786 N3783 0.984 . S
H3787 N3783 0.987 1_544 S
H3788 N3782 0.987 1_556 S
H3789 N3782 0.984 . S
H3790 N3778 0.984 . S
H3791 N3778 0.985 . S
C1633 C927 1.351 . S
C1635 C20 1.376 . S
C1651 C54 1.376 . S
C1653 C825 1.351 . S
C1669 C88 1.376 . S
C1671 C859 1.351 . S
C1687 C893 1.351 . S
C1689 C122 1.376 . S
C1705 C156 1.376 . S
C1707 C179 1.351 . S
C1723 C213 1.351 . S
C1725 C190 1.376 1_655 S
C1741 C247 1.351 . S
C1743 C224 1.376 . S
C1759 C258 1.376 1_455 S
C1761 C145 1.351 . S
C1777 C292 1.376 . S
C1779 C1437 1.351 . S
C1795 C326 1.376 1_556 S
C1797 C1471 1.351 . S
C1813 C360 1.376 . S
C1815 C689 1.351 . S
C1831 C1403 1.351 . S
C1833 C394 1.376 1_556 S
C1849 C1573 1.351 . S
C1851 C428 1.376 . S
C1867 C553 1.351 . S
C1869 C462 1.376 1_554 S
C1885 C496 1.376 . S
C1887 C1607 1.351 . S
C1903 C530 1.376 1_554 S
C1905 C1539 1.351 . S
C1921 C315 1.351 . S
C1923 C564 1.376 . S
C1939 C1335 1.351 . S
C1941 C598 1.376 . S
C1957 C1233 1.351 . S
C1959 C632 1.376 . S
C1975 C1267 1.351 . S
C1977 C666 1.376 . S
C1993 C700 1.376 . S
C1995 C485 1.351 . S
C2011 C734 1.376 . S
C2013 C1199 1.351 . S
C2029 C1097 1.351 . S
C2031 C768 1.376 . S
C2047 C802 1.376 1_565 S
C2049 C1165 1.351 . S
C2065 C836 1.376 . S
C2067 C111 1.351 . S
C2083 C870 1.376 1_455 S
C2085 C9 1.351 . S
C2101 C43 1.351 . S
C2103 C904 1.376 . S
C2119 C77 1.351 . S
C2121 C938 1.376 1_655 S
C2137 C995 1.351 . S
C2139 C972 1.376 . S
C2155 C1029 1.351 . S
C2157 C1006 1.376 . S
C2173 C1040 1.376 . S
C2175 C1063 1.351 . S
C2191 C1074 1.376 . S
C2193 C961 1.351 . S
C2209 C1108 1.376 . S
C2211 C621 1.351 . S
C2227 C655 1.351 . S
C2229 C1142 1.376 . S
C2245 C1505 1.351 . S
C2247 C1176 1.376 . S
C2263 C1210 1.376 . S
C2265 C587 1.351 . S
C2281 C757 1.351 . S
C2283 C1244 1.376 . S
C2299 C1278 1.376 . S
C2301 C1369 1.351 . S
C2317 C1312 1.376 . S
C2319 C791 1.351 . S
C2335 C723 1.351 . S
C2337 C1346 1.376 . S
C2353 C1131 1.351 . S
C2355 C1380 1.376 . S
C2371 C519 1.351 . S
C2373 C1414 1.376 . S
C2389 C1448 1.376 1_565 S
C2391 C417 1.351 . S
C2407 C451 1.351 . S
C2409 C1482 1.376 . S
C2425 C1516 1.376 1_545 S
C2427 C1301 1.351 . S
C2443 C1550 1.376 . S
C2445 C383 1.351 . S
C2461 C281 1.351 . S
C2463 C1584 1.376 1_545 S
C2479 C349 1.351 . S
C2481 C1618 1.376 . S
C2497 C1430 1.246 . S
C2499 C33 1.221 . S
C2515 C1464 1.246 . S
C2517 C67 1.221 . S
C2533 C682 1.246 . S
C2535 C101 1.221 . S
C2551 C1396 1.246 . S
C2553 C135 1.221 . S
C2569 C169 1.221 . S
C2571 C1566 1.246 . S
C2587 C546 1.246 . S
C2589 C203 1.221 . S
C2605 C1600 1.246 . S
C2607 C237 1.221 . S
C2623 C271 1.221 . S
C2625 C1532 1.246 . S
C2641 C305 1.221 . S
C2643 C308 1.246 . S
C2659 C342 1.246 . S
C2661 C339 1.221 . S
C2677 C376 1.246 . S
C2679 C373 1.221 . S
C2695 C274 1.246 . S
C2697 C407 1.221 . S
C2713 C1328 1.246 . S
C2715 C441 1.221 . S
C2731 C1226 1.246 . S
C2733 C475 1.221 . S
C2749 C1260 1.246 . S
C2751 C509 1.221 . S
C2767 C543 1.221 . S
C2769 C1294 1.246 . S
C2785 C920 1.246 . S
C2787 C577 1.221 . S
C2803 C611 1.221 . S
C2805 C172 1.246 . S
C2821 C206 1.246 . S
C2823 C645 1.221 . S
C2839 C240 1.246 . S
C2841 C679 1.221 . S
C2857 C713 1.221 . S
C2859 C954 1.246 . S
C2875 C36 1.246 . S
C2877 C747 1.221 . S
C2893 C781 1.221 . S
C2895 C70 1.246 . S
C2911 C815 1.221 . S
C2913 C2 1.246 . S
C2929 C614 1.246 . S
C2931 C849 1.221 . S
C2947 C648 1.246 . S
C2949 C883 1.221 . S
C2965 C917 1.221 . S
C2967 C1498 1.246 . S
C2983 C951 1.221 . S
C2985 C580 1.246 . S
C3001 C750 1.246 . S
C3003 C985 1.221 . S
C3019 C1362 1.246 . S
C3021 C1019 1.221 . S
C3037 C784 1.246 . S
C3039 C1053 1.221 . S
C3055 C1087 1.221 . S
C3057 C716 1.246 . S
C3073 C1121 1.221 . S
C3075 C1124 1.246 . S
C3091 C1158 1.246 . S
C3093 C1155 1.221 . S
C3109 C1189 1.221 . S
C3111 C1192 1.246 . S
C3127 C1223 1.221 . S
C3129 C1090 1.246 . S
C3145 C1257 1.221 . S
C3147 C512 1.246 . S
C3163 C410 1.246 . S
C3165 C1291 1.221 . S
C3181 C444 1.246 . S
C3183 C1325 1.221 . S
C3199 C478 1.246 . S
C3201 C1359 1.221 . S
C3217 C104 1.246 . S
C3219 C1393 1.221 . S
C3235 C988 1.246 . S
C3237 C1427 1.221 . S
C3253 C1461 1.221 . S
C3255 C1022 1.246 . S
C3271 C1495 1.221 . S
C3273 C1056 1.246 . S
C3289 C1529 1.221 . S
C3291 C138 1.246 . S
C3307 C1563 1.221 . S
C3309 C852 1.246 . S
C3325 C1597 1.221 . S
C3327 C886 1.246 . S
C3343 C818 1.246 . S
C3345 C1631 1.221 . S
C3361 C5 0.940 . S
C3363 C1025 0.940 . S
C3379 C39 0.940 . S
C3381 C1059 0.940 . S
C3397 C957 0.940 . S
C3399 C73 0.940 . S
C3415 C991 0.940 . S
C3417 C107 0.940 . S
C3433 C141 0.940 . S
C3435 C889 0.940 . S
C3451 C923 0.940 . S
C3453 C175 0.940 . S
C3469 C821 0.940 . S
C3471 C209 0.940 . S
C3487 C855 0.940 . S
C3489 C243 0.940 . S
C3505 C277 0.940 . S
C3507 C345 0.940 . S
C3523 C311 0.940 . S
C3525 C379 0.940 . S
C3541 C481 0.940 . S
C3543 C413 0.940 . S
C3559 C447 0.940 . S
C3561 C515 0.940 . S
C3577 C549 0.940 . S
C3579 C583 0.940 . S
C3595 C1603 0.940 . S
C3597 C617 0.940 . S
C3613 C1535 0.940 . S
C3615 C651 0.940 . S
C3631 C685 0.940 . S
C3633 C753 0.940 . S
C3649 C719 0.940 . S
C3651 C1467 0.940 . S
C3667 C787 0.940 . S
C3669 C1433 0.940 . S
C3685 C1161 0.940 . S
C3687 C1093 0.940 . S
C3703 C1195 0.940 . S
C3705 C1127 0.940 . S
C3721 C1297 0.940 . S
C3723 C1229 0.940 . S
C3739 C1331 0.940 . S
C3741 C1263 0.940 . S
C3757 C1365 0.940 . S
C3759 C1399 0.940 . S
C3775 C1569 0.940 . S
C3777 C1501 0.940 . S
