# Generated by pormake.
# Topology bcu-g, (3)-cn, num edge types: 1
# Building blocks:
#     Node 0, Type 0, BuildingBlock: OLANEW_clean_sbu_2, # of connection points: 3
#     Node 1, Type 0, BuildingBlock: OLANEW_clean_sbu_2, # of connection points: 3
#     Node 2, Type 0, BuildingBlock: OLANEW_clean_sbu_2, # of connection points: 3
#     Node 3, Type 0, BuildingBlock: OLANEW_clean_sbu_2, # of connection points: 3
#     Node 4, Type 0, BuildingBlock: OLANEW_clean_sbu_2, # of connection points: 3
#     Node 5, Type 0, BuildingBlock: OLANEW_clean_sbu_2, # of connection points: 3
#     Node 6, Type 0, BuildingBlock: OLANEW_clean_sbu_2, # of connection points: 3
#     Node 7, Type 0, BuildingBlock: OLANEW_clean_sbu_2, # of connection points: 3
#     Node 8, Type 0, BuildingBlock: OLANEW_clean_sbu_2, # of connection points: 3
#     Node 9, Type 0, BuildingBlock: OLANEW_clean_sbu_2, # of connection points: 3
#     Node 10, Type 0, BuildingBlock: OLANEW_clean_sbu_2, # of connection points: 3
#     Node 11, Type 0, BuildingBlock: OLANEW_clean_sbu_2, # of connection points: 3
#     Node 12, Type 0, BuildingBlock: OLANEW_clean_sbu_2, # of connection points: 3
#     Node 13, Type 0, BuildingBlock: OLANEW_clean_sbu_2, # of connection points: 3
#     Node 14, Type 0, BuildingBlock: OLANEW_clean_sbu_2, # of connection points: 3
#     Node 15, Type 0, BuildingBlock: OLANEW_clean_sbu_2, # of connection points: 3
#     Edge 16, Type (0, 0), BuildingBlock: XIVTED_clean_linker_0, # of connection points: 2
#     Edge 17, Type (0, 0), BuildingBlock: XIVTED_clean_linker_0, # of connection points: 2
#     Edge 18, Type (0, 0), BuildingBlock: XIVTED_clean_linker_0, # of connection points: 2
#     Edge 19, Type (0, 0), BuildingBlock: XIVTED_clean_linker_0, # of connection points: 2
#     Edge 20, Type (0, 0), BuildingBlock: XIVTED_clean_linker_0, # of connection points: 2
#     Edge 21, Type (0, 0), BuildingBlock: XIVTED_clean_linker_0, # of connection points: 2
#     Edge 22, Type (0, 0), BuildingBlock: XIVTED_clean_linker_0, # of connection points: 2
#     Edge 23, Type (0, 0), BuildingBlock: XIVTED_clean_linker_0, # of connection points: 2
#     Edge 24, Type (0, 0), BuildingBlock: XIVTED_clean_linker_0, # of connection points: 2
#     Edge 25, Type (0, 0), BuildingBlock: XIVTED_clean_linker_0, # of connection points: 2
#     Edge 26, Type (0, 0), BuildingBlock: XIVTED_clean_linker_0, # of connection points: 2
#     Edge 27, Type (0, 0), BuildingBlock: XIVTED_clean_linker_0, # of connection points: 2
#     Edge 28, Type (0, 0), BuildingBlock: XIVTED_clean_linker_0, # of connection points: 2
#     Edge 29, Type (0, 0), BuildingBlock: XIVTED_clean_linker_0, # of connection points: 2
#     Edge 30, Type (0, 0), BuildingBlock: XIVTED_clean_linker_0, # of connection points: 2
#     Edge 31, Type (0, 0), BuildingBlock: XIVTED_clean_linker_0, # of connection points: 2
#     Edge 32, Type (0, 0), BuildingBlock: XIVTED_clean_linker_0, # of connection points: 2
#     Edge 33, Type (0, 0), BuildingBlock: XIVTED_clean_linker_0, # of connection points: 2
#     Edge 34, Type (0, 0), BuildingBlock: XIVTED_clean_linker_0, # of connection points: 2
#     Edge 35, Type (0, 0), BuildingBlock: XIVTED_clean_linker_0, # of connection points: 2
#     Edge 36, Type (0, 0), BuildingBlock: XIVTED_clean_linker_0, # of connection points: 2
#     Edge 37, Type (0, 0), BuildingBlock: XIVTED_clean_linker_0, # of connection points: 2
#     Edge 38, Type (0, 0), BuildingBlock: XIVTED_clean_linker_0, # of connection points: 2
#     Edge 39, Type (0, 0), BuildingBlock: XIVTED_clean_linker_0, # of connection points: 2
# Relax obj value: 0.056
# Max RMSD: 0.020
# Mean RMSD: 0.020
data_MOF--net-bcu-g--node1-OLANEW_clean_sbu_2--edge1-XIVTED_clean_linker_0
_symmetry_space_group_name_H-M    P1
_symmetry_Int_Tables_number       1
_symmetry_cell_setting            triclinic
loop_
_symmetry_equiv_pos_as_xyz
'x, y, z'
_cell_length_a     49.188234
_cell_length_b     48.996384
_cell_length_c     41.527975
_cell_angle_alpha  90.08918
_cell_angle_beta   89.775212
_cell_angle_gamma 89.869019
loop_
_atom_site_label
_atom_site_type_symbol
_atom_site_fract_x
_atom_site_fract_y
_atom_site_fract_z
_atom_type_partial_charge
O0 O 0.57263 0.11229 0.21985 0.0
Cd1 Cd 0.6029 0.14662 0.19676 0.0
O2 O 0.58033 0.09043 0.17483 0.0
Cd3 Cd 0.57749 0.05745 0.13948 0.0
O4 O 0.56715 0.03029 0.09979 0.0
C5 C 0.56467 0.04063 0.07191 0.0
O6 O 0.56908 0.06688 0.06815 0.0
C7 C 0.56811 0.09181 0.20187 0.0
C8 C 0.65681 0.14103 0.21596 0.0
O9 O 0.64089 0.1581 0.22998 0.0
O10 O 0.64717 0.12641 0.1931 0.0
O11 O 0.39434 0.56672 0.23627 0.0
Cd12 Cd 0.35785 0.60003 0.22864 0.0
O13 O 0.40728 0.57124 0.18593 0.0
Cd14 Cd 0.43374 0.56223 0.14464 0.0
O15 O 0.45948 0.54011 0.11038 0.0
C16 C 0.45069 0.51778 0.09885 0.0
O17 O 0.42629 0.50939 0.10714 0.0
C18 C 0.40982 0.5596 0.21316 0.0
C19 C 0.37313 0.65463 0.23422 0.0
O20 O 0.36636 0.64068 0.25907 0.0
O21 O 0.37328 0.64257 0.2068 0.0
O22 O 0.92526 0.40493 0.24456 0.0
Cd23 Cd 0.89879 0.36422 0.23165 0.0
O24 O 0.93373 0.41098 0.19314 0.0
Cd25 Cd 0.95016 0.43518 0.15339 0.0
O26 O 0.96521 0.46353 0.11703 0.0
C27 C 0.99023 0.46982 0.11537 0.0
O28 O 0.00736 0.45883 0.13582 0.0
C29 C 0.93686 0.41834 0.22226 0.0
C30 C 0.84264 0.37229 0.23373 0.0
O31 O 0.85589 0.36574 0.2591 0.0
O32 O 0.85602 0.37543 0.20744 0.0
O33 O 0.09034 0.94105 0.17911 0.0
Cd34 Cd 0.11401 0.90593 0.1478 0.0
O35 O 0.06157 0.94195 0.13905 0.0
Cd36 Cd 0.02419 0.95461 0.11474 0.0
O37 O 0.98951 0.96996 0.08752 0.0
C38 C 0.98539 -0.00451 0.08506 0.0
O39 O 0.00197 0.01245 0.09959 0.0
C40 C 0.06915 0.95106 0.16627 0.0
C41 C 0.11118 0.85425 0.17557 0.0
O42 O 0.13191 0.86958 0.18004 0.0
O43 O 0.09173 0.86343 0.15821 0.0
O44 O 0.55353 0.396 0.22763 0.0
Cd45 Cd 0.58364 0.35685 0.23579 0.0
O46 O 0.55629 0.40669 0.27884 0.0
Cd47 Cd 0.5473 0.43223 0.32111 0.0
O48 O 0.52923 0.45917 0.35749 0.0
C49 C 0.50418 0.45656 0.36451 0.0
O50 O 0.49004 0.43731 0.35034 0.0
C51 C 0.54636 0.41113 0.25105 0.0
C52 C 0.6391 0.36856 0.23444 0.0
O53 O 0.62613 0.36324 0.20847 0.0
O54 O 0.62571 0.36894 0.26098 0.0
O55 O 0.07484 0.58239 0.27338 0.0
Cd56 Cd 0.10487 0.61521 0.29968 0.0
O57 O 0.05348 0.58183 0.31969 0.0
Cd58 Cd 0.02411 0.56531 0.35413 0.0
O59 O -0.00572 0.5462 0.38575 0.0
C60 C 0.98902 0.5209 0.3832 0.0
O61 O 0.00165 0.5064 0.36107 0.0
C62 C 0.0556 0.57335 0.29081 0.0
C63 C 0.10582 0.66624 0.2702 0.0
O64 O 0.12406 0.64829 0.26378 0.0
O65 O 0.087 0.65995 0.29026 0.0
O66 O 0.93736 0.10267 0.27054 0.0
Cd67 Cd 0.90532 0.1279 0.30459 0.0
O68 O 0.93852 0.07462 0.31143 0.0
Cd69 Cd 0.95068 0.03724 0.33632 0.0
O70 O 0.96691 0.00314 0.36395 0.0
C71 C -0.00778 0.00214 0.36993 0.0
O72 O 0.0081 0.02147 0.35872 0.0
C73 C 0.94692 0.08126 0.28352 0.0
C74 C 0.85239 0.13009 0.28106 0.0
O75 O 0.86897 0.14986 0.27639 0.0
O76 O 0.86097 0.1091 0.29639 0.0
O77 O 0.41477 0.94265 0.24934 0.0
Cd78 Cd 0.37693 0.91329 0.26544 0.0
O79 O 0.43008 0.94244 0.29883 0.0
Cd80 Cd 0.45861 0.9524 0.33748 0.0
O81 O 0.48487 0.9644 0.37734 0.0
C82 C 0.48842 0.98948 0.38399 0.0
O83 O 0.47636 0.00809 0.3663 0.0
C84 C 0.43193 0.95093 0.26995 0.0
C85 C 0.38541 0.85736 0.25725 0.0
O86 O 0.37645 0.87216 0.23415 0.0
O87 O 0.39096 0.86913 0.28401 0.0
O88 O 0.39316 0.88464 0.78173 0.0
Cd89 Cd 0.36162 0.84945 0.80006 0.0
O90 O 0.41748 0.8784 0.82524 0.0
Cd91 Cd 0.44859 0.89091 0.85956 0.0
O92 O 0.47418 0.91042 0.89555 0.0
C93 C 0.48226 0.93469 0.89071 0.0
O94 O 0.47552 0.94698 0.86379 0.0
C95 C 0.4134 0.89111 0.79902 0.0
C96 C 0.31122 0.85512 0.77031 0.0
O97 O 0.3174 0.8694 0.79509 0.0
O98 O 0.32881 0.83798 0.75964 0.0
O99 O 0.55139 0.41034 0.81027 0.0
Cd100 Cd 0.57275 0.37769 0.84676 0.0
O101 O 0.57471 0.44659 0.8247 0.0
Cd102 Cd 0.59102 0.42652 0.86721 0.0
O103 O 0.57989 0.43158 0.91769 0.0
C104 C 0.55619 0.42373 0.92561 0.0
O105 O 0.54153 0.41058 0.90425 0.0
C106 C 0.55714 0.43543 0.80663 0.0
C107 C 0.56813 0.32545 0.82033 0.0
O108 O 0.54916 0.33563 0.83788 0.0
O109 O 0.58959 0.33974 0.81578 0.0
O110 O 0.09349 0.53735 0.80502 0.0
Cd111 Cd 0.12615 0.56017 0.84009 0.0
O112 O 0.05816 0.56218 0.81938 0.0
Cd113 Cd 0.07892 0.5794 0.86095 0.0
O114 O 0.07416 0.57304 0.91261 0.0
C115 C 0.04997 0.57575 0.92302 0.0
O116 O 0.03116 0.58438 0.90305 0.0
C117 C 0.06857 0.54367 0.80173 0.0
C118 C 0.17488 0.56838 0.80681 0.0
O119 O 0.16997 0.54581 0.82122 0.0
O120 O 0.1569 0.58731 0.80847 0.0
O121 O 0.92967 0.0721 0.8151 0.0
Cd122 Cd 0.91008 0.11082 0.8444 0.0
O123 O 0.89088 0.05262 0.8026 0.0
Cd124 Cd 0.87069 0.07816 0.83845 0.0
O125 O 0.87535 0.07733 0.89057 0.0
C126 C 0.86971 0.05469 0.90386 0.0
O127 O 0.85882 0.03531 0.88624 0.0
C128 C 0.91666 0.05351 0.80036 0.0
C129 C 0.91279 0.15781 0.80662 0.0
O130 O 0.93284 0.15044 0.82423 0.0
O131 O 0.89125 0.14314 0.80714 0.0
O132 O 0.42984 0.57231 0.67294 0.0
Cd133 Cd 0.39498 0.59822 0.6443 0.0
O134 O 0.41488 0.5343 0.65111 0.0
Cd135 Cd 0.39305 0.554 0.61196 0.0
O136 O 0.40035 0.55057 0.56035 0.0
C137 C 0.42416 0.55681 0.55096 0.0
O138 O 0.44109 0.56748 0.57188 0.0
C139 C 0.43025 0.5464 0.67108 0.0
C140 C 0.34573 0.59412 0.67768 0.0
O141 O 0.35308 0.57586 0.65729 0.0
O142 O 0.36144 0.61464 0.68194 0.0
O143 O 0.95703 0.40292 0.65655 0.0
Cd144 Cd 0.93221 0.36867 0.62557 0.0
O145 O 0.92125 0.42799 0.66845 0.0
Cd146 Cd 0.89858 0.40808 0.63006 0.0
O147 O 0.89949 0.41535 0.5783 0.0
C148 C 0.89279 0.43931 0.56971 0.0
O149 O 0.88323 0.45621 0.59163 0.0
C150 C 0.94645 0.42289 0.6717 0.0
C151 C 0.92584 0.32174 0.66283 0.0
O152 O 0.94735 0.32559 0.64595 0.0
O153 O 0.90706 0.33989 0.66172 0.0
O154 O 0.04905 0.91534 0.67555 0.0
Cd155 Cd 0.07837 0.88909 0.63932 0.0
O156 O 0.01113 0.89451 0.66235 0.0
Cd157 Cd 0.03024 0.8732 0.62204 0.0
O158 O 0.03198 0.87694 0.56978 0.0
C159 C 0.04952 0.89257 0.55697 0.0
O160 O 0.06816 0.90372 0.57531 0.0
C161 C 0.02359 0.91206 0.67931 0.0
C162 C 0.12973 0.8815 0.66603 0.0
O163 O 0.12365 0.9036 0.65123 0.0
O164 O 0.11158 0.86284 0.66806 0.0
O165 O 0.51571 0.06438 0.7012 0.0
Cd166 Cd 0.53755 0.09958 0.66834 0.0
O167 O 0.55045 0.03607 0.70033 0.0
Cd168 Cd 0.56935 0.05865 0.661 0.0
O169 O 0.56747 0.05778 0.6085 0.0
C170 C 0.57217 0.03468 0.59564 0.0
O171 O 0.5799 0.0144 0.61418 0.0
C172 C 0.52678 0.04225 0.71041 0.0
C173 C 0.54538 0.1478 0.70303 0.0
O174 O 0.52278 0.14286 0.68894 0.0
O175 O 0.56438 0.12994 0.70071 0.0
H176 H 0.5557 0.07662 0.26339 0.0
H177 H 0.45574 0.9561 0.21086 0.0
H178 H 0.53537 0.05941 0.16451 0.0
H179 H 0.4552 0.99159 0.30593 0.0
H180 H 0.48967 0.98983 0.19423 0.0
H181 H 0.52335 0.04152 0.28056 0.0
C182 C 0.54467 0.06526 0.24527 0.0
C183 C 0.54894 0.07034 0.21239 0.0
C184 C 0.48235 0.98999 0.21886 0.0
C185 C 0.51194 0.03025 0.23183 0.0
C186 C 0.46304 0.97075 0.22837 0.0
C187 C 0.4533 0.97045 0.26016 0.0
C188 C 0.49194 0.00913 0.24129 0.0
C189 C 0.46316 0.99011 0.28172 0.0
C190 C 0.52623 0.04526 0.25508 0.0
C191 C 0.53386 0.05525 0.18997 0.0
N192 N 0.482 0.00861 0.27194 0.0
N193 N 0.51612 0.03582 0.20009 0.0
H194 H 0.42766 0.52105 0.17008 0.0
H195 H 0.50728 0.42972 0.29249 0.0
H196 H 0.43652 0.54678 0.26872 0.0
H197 H 0.53815 0.441 0.1963 0.0
H198 H 0.47532 0.46735 0.28415 0.0
H199 H 0.46251 0.48618 0.17849 0.0
C200 C 0.43763 0.52004 0.19314 0.0
C201 C 0.4303 0.53787 0.21817 0.0
C202 C 0.4894 0.46184 0.26507 0.0
C203 C 0.46847 0.49657 0.22875 0.0
C204 C 0.508 0.44078 0.27008 0.0
C205 C 0.52644 0.4333 0.24581 0.0
C206 C 0.48848 0.47474 0.23502 0.0
C207 C 0.52464 0.44652 0.21592 0.0
C208 C 0.45709 0.49976 0.19811 0.0
C209 C 0.44198 0.5338 0.24858 0.0
N210 N 0.50591 0.46659 0.21129 0.0
N211 N 0.46045 0.51348 0.25309 0.0
H212 H 0.98496 0.43359 0.19473 0.0
H213 H 0.00149 0.56679 0.30435 0.0
H214 H 0.92783 0.45646 0.26905 0.0
H215 H 0.06684 0.5329 0.2474 0.0
H216 H 0.97212 0.52946 0.28709 0.0
H217 H 0.01304 0.47294 0.20888 0.0
C218 C 0.97808 0.44724 0.21362 0.0
C219 C 0.95376 0.44221 0.23027 0.0
C220 C -0.00708 0.5301 0.27847 0.0
C221 C 0.98607 0.48679 0.24718 0.0
C222 C 0.0098 0.55121 0.28865 0.0
C223 C 0.03694 0.5523 0.27831 0.0
C224 C 0.00312 0.51017 0.2573 0.0
C225 C 0.04611 0.53258 0.25627 0.0
C226 C -0.00573 0.46948 0.22195 0.0
C227 C 0.94637 0.45978 0.2555 0.0
N228 N 0.02927 0.5122 0.24661 0.0
N229 N 0.96242 0.48139 0.26312 0.0
H230 H 0.98966 0.05299 0.30885 0.0
H231 H 0.04163 -0.00591 0.14005 0.0
H232 H 0.95098 0.07208 0.21871 0.0
H233 H 0.06192 0.95741 0.2311 0.0
H234 H 0.0127 0.02715 0.1682 0.0
H235 H 0.02073 0.02214 0.28055 0.0
C236 C 0.98736 0.05022 0.28318 0.0
C237 C 0.967 0.06414 0.26628 0.0
C238 C 0.02334 0.01176 0.182 0.0
C239 C 0.00329 0.02996 0.23345 0.0
C240 C 0.03952 0.99266 0.16591 0.0
C241 C 0.05322 0.97231 0.18317 0.0
C242 C 0.02126 0.01079 0.21569 0.0
C243 C 0.05136 0.97256 0.21687 0.0
C244 C 0.00535 0.03293 0.26696 0.0
C245 C 0.96615 0.06137 0.23269 0.0
N246 N 0.03552 0.99141 0.23205 0.0
N247 N 0.98396 0.04445 0.21735 0.0
H248 H 0.4731 0.04509 0.72765 0.0
H249 H 0.46863 0.89583 0.80542 0.0
H250 H 0.54419 -0.00619 0.73652 0.0
H251 H 0.39797 0.93839 0.77012 0.0
H252 H 0.49703 0.93442 0.78872 0.0
H253 H 0.44583 0.00928 0.75258 0.0
C254 C 0.48308 0.02647 0.73523 0.0
C255 C 0.51097 0.02238 0.72968 0.0
C256 C 0.47529 0.93536 0.78483 0.0
C257 C 0.47974 0.9812 0.75808 0.0
C258 C 0.45907 0.91347 0.79458 0.0
C259 C 0.43092 0.91414 0.78945 0.0
C260 C 0.46318 0.9581 0.77009 0.0
C261 C 0.41963 0.93712 0.77447 0.0
C262 C 0.46743 0.00596 0.74929 0.0
C263 C 0.52273 -0.00222 0.7401 0.0
N264 N 0.43578 0.95823 0.76542 0.0
N265 N 0.50702 0.97805 0.75365 0.0
H266 H 0.43492 0.49091 0.67357 0.0
H267 H 0.55858 0.49099 0.79819 0.0
H268 H 0.46937 0.56466 0.71308 0.0
H269 H 0.51942 0.41808 0.76294 0.0
H270 H 0.52851 0.51845 0.7644 0.0
H271 H 0.46753 0.46415 0.70416 0.0
C272 C 0.44929 0.50152 0.68878 0.0
C273 C 0.44932 0.53013 0.69079 0.0
C274 C 0.52663 0.49644 0.76393 0.0
C275 C 0.48699 0.49944 0.72588 0.0
C276 C 0.54389 0.48071 0.78309 0.0
C277 C 0.54144 0.45216 0.78355 0.0
C278 C 0.50681 0.48351 0.74507 0.0
C279 C 0.52199 0.44002 0.76351 0.0
C280 C 0.46799 0.48618 0.70621 0.0
C281 C 0.46853 0.54266 0.71088 0.0
N282 N 0.50537 0.45575 0.74524 0.0
N283 N 0.48661 0.52723 0.72765 0.0
H284 H 0.08354 0.50145 0.76213 0.0
H285 H 0.93145 0.46849 0.70607 0.0
H286 H 0.01381 0.54933 0.79121 0.0
H287 H 0.00121 0.41878 0.68179 0.0
H288 H 0.96126 0.4993 0.73594 0.0
H289 H 0.05377 0.47249 0.7301 0.0
C290 C 0.062 0.50605 0.76157 0.0
C291 C 0.05117 0.52782 0.77954 0.0
C292 C 0.97001 0.48162 0.72411 0.0
C293 C 0.01686 0.49449 0.74308 0.0
C294 C 0.95299 0.46396 0.70714 0.0
C295 C 0.96382 0.44097 0.69142 0.0
C296 C -0.00193 0.47628 0.72531 0.0
C297 C -0.00808 0.43621 0.69355 0.0
C298 C 0.04497 0.4894 0.74336 0.0
C299 C 0.02307 0.53276 0.77781 0.0
N300 N 0.00804 0.45372 0.71012 0.0
N301 N 0.00687 0.51613 0.76005 0.0
H302 H 0.8962 0.00931 0.76766 0.0
H303 H 0.04343 0.9527 0.71792 0.0
H304 H 0.97168 0.04883 0.79247 0.0
H305 H 0.96845 0.91407 0.68938 0.0
H306 H 0.01727 0.98649 0.74815 0.0
H307 H 0.92209 0.97324 0.74052 0.0
C308 C 0.91818 0.0105 0.76729 0.0
C309 C 0.93176 0.0322 0.78233 0.0
C310 C 0.00651 0.97054 0.73544 0.0
C311 C 0.9615 0.99085 0.75157 0.0
C312 C 0.02147 0.95113 0.71826 0.0
C313 C 0.00813 0.93056 0.7009 0.0
C314 C 0.97798 0.96947 0.73526 0.0
C315 C 0.97961 0.92959 0.70232 0.0
C316 C 0.93296 0.98983 0.75189 0.0
C317 C 0.9603 0.03256 0.78117 0.0
N318 N 0.96548 0.94888 0.71902 0.0
N319 N 0.97418 0.01222 0.76611 0.0
H320 H 0.50172 0.98695 0.88855 0.0
H321 H 0.55231 0.98608 0.07152 0.0
H322 H 0.49739 0.91628 0.95032 0.0
H323 H 0.55601 0.05678 0.00974 0.0
H324 H 0.53482 0.95935 0.02644 0.0
H325 H 0.52431 0.012 0.93164 0.0
C326 C 0.50564 0.97664 0.91111 0.0
C327 C 0.49748 0.94951 0.91589 0.0
C328 C 0.53958 0.98068 0.02271 0.0
C329 C 0.52329 0.97813 0.96542 0.0
C330 C 0.54958 -0.00404 0.04845 0.0
C331 C 0.5555 0.02377 0.04447 0.0
C332 C 0.53541 0.99329 -0.00724 0.0
C333 C 0.55162 0.03545 0.01398 0.0
C334 C 0.51854 0.99097 0.93574 0.0
C335 C 0.50321 0.93719 0.94561 0.0
N336 N 0.54171 0.02019 -0.01064 0.0
N337 N 0.51563 0.95164 0.96929 0.0
H338 H 0.5769 0.45961 0.96996 0.0
H339 H 0.43681 0.47054 0.06791 0.0
H340 H 0.50627 0.41034 0.94999 0.0
H341 H 0.50297 0.52756 0.07868 0.0
H342 H 0.46429 0.44445 0.02964 0.0
H343 H 0.55262 0.48037 0.01532 0.0
C344 C 0.55644 0.45286 0.97538 0.0
C345 C 0.54349 0.4334 0.95592 0.0
C346 C 0.47284 0.46261 0.04045 0.0
C347 C 0.51554 0.45724 0.00763 0.0
C348 C 0.45715 0.47756 0.0623 0.0
C349 C 0.4675 0.50143 0.07632 0.0
C350 C 0.49914 0.47153 0.03255 0.0
C351 C 0.49408 0.5094 0.06827 0.0
C352 C 0.54254 0.46483 0.00118 0.0
C353 C 0.51697 0.42543 0.96414 0.0
N354 N 0.50894 0.49454 0.04682 0.0
N355 N 0.50382 0.43752 -0.01079 0.0
H356 H 0.04286 0.48336 0.1003 0.0
H357 H -0.00041 0.57662 0.95089 0.0
H358 H 0.95978 0.49945 0.07288 0.0
H359 H 0.08226 0.55094 0.96829 0.0
H360 H 0.98555 0.55405 0.00048 0.0
H361 H 0.05833 0.51307 0.05661 0.0
C362 C 0.02786 0.49324 0.08523 0.0
C363 C -3e-05 0.48871 0.09009 0.0
C364 C 0.00681 0.55351 -0.00639 0.0
C365 C 0.01755 0.5228 0.0402 0.0
C366 C 0.01488 0.56649 0.96532 0.0
C367 C 0.04212 0.56542 0.9552 0.0
C368 C 0.02608 0.5393 0.012 0.0
C369 C 0.06102 0.55213 0.97505 0.0
C370 C 0.03672 0.51018 0.06029 0.0
C371 C 0.98148 0.50215 0.06988 0.0
N372 N 0.0526 0.53938 0.00239 0.0
N373 N 0.9906 0.51848 0.04579 0.0
H374 H 0.86376 0.0072 0.9376 0.0
H375 H 0.9746 0.04862 0.06892 0.0
H376 H 0.89959 0.08738 0.94412 0.0
H377 H 0.94654 0.96628 0.05297 0.0
H378 H 0.94132 0.065 0.02985 0.0
H379 H 0.88753 -0.00589 0.98666 0.0
C380 C 0.8763 0.02221 0.9496 0.0
C381 C 0.88001 0.04831 0.93642 0.0
C382 C 0.94229 0.04338 0.03513 0.0
C383 C 0.90751 0.03332 -0.00749 0.0
C384 C 0.96128 0.034 0.05745 0.0
C385 C 0.96362 0.00598 0.06392 0.0
C386 C 0.92547 0.02462 0.0192 0.0
C387 C 0.94568 0.98802 0.04847 0.0
C388 C 0.88995 0.01467 0.97758 0.0
C389 C 0.89633 0.06695 0.95323 0.0
N390 N 0.92752 -0.00237 0.02667 0.0
N391 N 0.90975 0.05898 0.9802 0.0
H392 H 0.47439 0.56539 0.52438 0.0
H393 H 0.45071 0.45769 0.38274 0.0
H394 H 0.39719 0.52706 0.50513 0.0
H395 H 0.52776 0.49662 0.40121 0.0
H396 H 0.42977 0.48615 0.42427 0.0
H397 H 0.49302 0.54423 0.47582 0.0
C398 C 0.46123 0.55282 0.50972 0.0
C399 C 0.43426 0.54773 0.51908 0.0
C400 C 0.45122 0.4886 0.41914 0.0
C401 C 0.45559 0.52318 0.46357 0.0
C402 C 0.46324 0.47229 0.39546 0.0
C403 C 0.49112 0.47457 0.38869 0.0
C404 C 0.4672 0.5073 0.43632 0.0
C405 C 0.50624 0.49402 0.40577 0.0
C406 C 0.47193 0.54067 0.48202 0.0
C407 C 0.41814 0.5314 0.499 0.0
N408 N 0.49412 0.5095 0.42895 0.0
N409 N 0.42915 0.51947 0.47239 0.0
H410 H 0.88402 0.49033 0.54535 0.0
H411 H 0.97926 0.46623 0.39131 0.0
H412 H 0.91905 0.41213 0.52066 0.0
H413 H 0.95585 0.54552 0.4276 0.0
H414 H 0.95074 0.44496 0.43266 0.0
H415 H 0.90308 0.5094 0.49602 0.0
C416 C 0.89541 0.47704 0.52934 0.0
C417 C 0.90028 0.44966 0.53742 0.0
C418 C 0.9517 0.46701 0.43137 0.0
C419 C 0.92238 0.4715 0.48094 0.0
C420 C 0.96794 0.47918 0.40777 0.0
C421 C 0.9702 0.50771 0.40624 0.0
C422 C 0.93749 0.48351 0.45345 0.0
C423 C 0.95498 0.52345 0.4281 0.0
C424 C 0.90638 0.488 0.50121 0.0
C425 C 0.91499 0.4334 0.51556 0.0
N426 N 0.9394 0.51115 0.45088 0.0
N427 N 0.92579 0.44465 0.48847 0.0
H428 H 0.08197 0.92732 0.52248 0.0
H429 H 0.96582 0.95771 0.39485 0.0
H430 H 0.00786 0.88065 0.51568 0.0
H431 H 0.04358 -0.00159 0.39475 0.0
H432 H 0.98291 0.9259 0.43521 0.0
H433 H 0.07075 0.94975 0.47178 0.0
C434 C 0.06355 0.92145 0.51008 0.0
C435 C 0.04562 0.90239 0.52364 0.0
C436 C -0.00365 0.94159 0.42611 0.0
C437 C 0.03246 0.92825 0.46577 0.0
C438 C 0.98658 0.95982 0.4031 0.0
C439 C 0.00317 0.981 0.39172 0.0
C440 C 0.02284 0.94471 0.43809 0.0
C441 C 0.02998 0.98255 0.40305 0.0
C442 C 0.05712 0.93432 0.48113 0.0
C443 C 0.02216 0.89544 0.50633 0.0
N444 N 0.03887 0.96487 0.4259 0.0
N445 N 0.01606 0.90867 0.47855 0.0
H446 H 0.49642 0.04088 0.4083 0.0
H447 H 0.57832 0.98716 0.56185 0.0
H448 H 0.51745 0.95642 0.42444 0.0
H449 H 0.55 0.07016 0.55172 0.0
H450 H 0.56158 0.97706 0.50797 0.0
H451 H 0.52095 0.05326 0.4573 0.0
C452 C 0.50634 0.02495 0.42201 0.0
C453 C 0.50466 -0.00248 0.41238 0.0
C454 C 0.5592 -0.00245 0.51739 0.0
C455 C 0.53279 0.01158 0.46847 0.0
C456 C 0.56884 0.00338 0.54817 0.0
C457 C 0.56531 0.02949 0.5615 0.0
C458 C 0.54586 0.01796 0.49973 0.0
C459 C 0.55301 0.0497 0.5425 0.0
C460 C 0.52032 0.03205 0.45 0.0
C461 C 0.51801 0.97779 0.43105 0.0
N462 N 0.54351 0.04344 0.51268 0.0
N463 N 0.53138 0.98519 0.45825 0.0
H464 H 0.82337 0.17589 0.266 0.0
H465 H 0.69153 0.09823 0.20533 0.0
H466 H 0.81667 0.08819 0.27117 0.0
H467 H 0.68765 0.17859 0.24783 0.0
H468 H 0.7396 0.09525 0.22056 0.0
H469 H 0.77555 0.17843 0.24998 0.0
C470 C 0.81189 0.15717 0.26354 0.0
C471 C 0.82394 0.13179 0.26999 0.0
C472 C 0.72814 0.11347 0.22656 0.0
C473 C 0.76947 0.13457 0.25145 0.0
C474 C 0.70081 0.11524 0.21783 0.0
C475 C 0.68562 0.13868 0.22543 0.0
C476 C 0.74046 0.13554 0.24232 0.0
C477 C 0.6986 0.1601 0.24169 0.0
C478 C 0.78461 0.15866 0.2546 0.0
C479 C 0.8081 0.10817 0.26657 0.0
N480 N 0.72536 0.15812 0.24937 0.0
N481 N 0.78167 0.11011 0.25733 0.0
H482 H 0.3966 0.81954 0.3039 0.0
H483 H 0.38101 0.6914 0.18548 0.0
H484 H 0.37979 0.82687 0.20233 0.0
H485 H 0.37901 0.68508 0.28913 0.0
H486 H 0.38753 0.74069 0.19054 0.0
H487 H 0.39716 0.76987 0.29807 0.0
C488 C 0.39326 0.81073 0.28031 0.0
C489 C 0.38796 0.8274 0.25359 0.0
C490 C 0.38581 0.72848 0.21216 0.0
C491 C 0.38857 0.77055 0.24678 0.0
C492 C 0.38218 0.70033 0.20931 0.0
C493 C 0.37928 0.6841 0.23693 0.0
C494 C 0.38672 0.74051 0.24286 0.0
C495 C 0.38097 0.69681 0.26718 0.0
C496 C 0.3935 0.78236 0.27703 0.0
C497 C 0.38379 0.81482 0.22362 0.0
N498 N 0.3845 0.72426 0.26934 0.0
N499 N 0.38411 0.78716 0.22104 0.0
H500 H 0.80888 0.37056 0.28628 0.0
H501 H 0.67276 0.37226 0.18192 0.0
H502 H 0.80812 0.38042 0.18301 0.0
H503 H 0.67335 0.37439 0.28584 0.0
H504 H 0.72228 0.37609 0.1818 0.0
H505 H 0.75924 0.37268 0.28668 0.0
C506 C 0.79829 0.37331 0.26369 0.0
C507 C 0.81269 0.37518 0.23454 0.0
C508 C 0.71157 0.37591 0.20463 0.0
C509 C 0.75581 0.37748 0.23481 0.0
C510 C 0.68328 0.37371 0.20472 0.0
C511 C 0.66888 0.37287 0.23394 0.0
C512 C 0.72563 0.37706 0.23398 0.0
C513 C 0.68361 0.3749 0.26274 0.0
C514 C 0.76993 0.37455 0.26395 0.0
C515 C 0.79786 0.37883 0.20604 0.0
N516 N 0.71118 0.3767 0.26203 0.0
N517 N 0.77024 0.37966 0.20686 0.0
H518 H 0.06631 0.82217 0.18421 0.0
H519 H 0.14897 0.69097 0.24059 0.0
H520 H 0.15314 0.82334 0.19872 0.0
H521 H 0.06477 0.70382 0.26617 0.0
H522 H 0.15032 0.73694 0.2175 0.0
H523 H 0.0648 0.77609 0.20698 0.0
C524 C 0.08505 0.81272 0.19215 0.0
C525 C 0.10989 0.8266 0.18964 0.0
C526 C 0.13158 0.72964 0.22819 0.0
C527 C 0.10831 0.7739 0.21526 0.0
C528 C 0.13074 0.70341 0.2412 0.0
C529 C 0.10673 0.69361 0.25536 0.0
C530 C 0.10811 0.74599 0.22883 0.0
C531 C 0.08373 0.71063 0.25561 0.0
C532 C 0.08414 0.7865 0.20522 0.0
C533 C 0.13354 0.81342 0.20037 0.0
N534 N 0.08494 0.73596 0.24237 0.0
N535 N 0.13221 0.78771 0.21251 0.0
H536 H 0.16616 0.92099 0.68279 0.0
H537 H 0.28522 0.81916 0.7305 0.0
H538 H 0.15484 0.83367 0.68261 0.0
H539 H 0.27682 0.89886 0.77384 0.0
H540 H 0.2409 0.82538 0.70456 0.0
H541 H 0.21064 0.91451 0.70804 0.0
C542 C 0.17309 0.90045 0.68793 0.0
C543 C 0.1568 0.87781 0.6807 0.0
C544 C 0.24882 0.84144 0.7198 0.0
C545 C 0.20764 0.87032 0.70915 0.0
C546 C 0.27409 0.83798 0.73448 0.0
C547 C 0.28462 0.85851 0.75441 0.0
C548 C 0.23433 0.86583 0.72455 0.0
C549 C 0.26935 0.88246 0.75881 0.0
C550 C 0.19837 0.89681 0.70245 0.0
C551 C 0.16672 0.85167 0.68797 0.0
N552 N 0.24504 0.88556 0.7438 0.0
N553 N 0.19163 0.8486 0.70161 0.0
H554 H 0.59312 0.16931 0.72543 0.0
H555 H 0.52184 0.29495 0.81532 0.0
H556 H 0.50671 0.18455 0.72246 0.0
H557 H 0.60706 0.29438 0.79009 0.0
H558 H 0.51646 0.25119 0.78771 0.0
H559 H 0.5991 0.21206 0.75527 0.0
C560 C 0.5754 0.18159 0.73113 0.0
C561 C 0.54937 0.17339 0.72137 0.0
C562 C 0.53634 0.26063 0.78827 0.0
C563 C 0.55606 0.22212 0.75568 0.0
C564 C 0.53947 0.28555 0.80415 0.0
C565 C 0.56494 0.29838 0.80494 0.0
C566 C 0.5589 0.24825 0.77339 0.0
C567 C 0.58703 0.28526 0.78995 0.0
C568 C 0.57885 0.206 0.74806 0.0
C569 C 0.52715 0.19014 0.72937 0.0
N570 N 0.58352 0.26087 0.77485 0.0
N571 N 0.53099 0.21364 0.74615 0.0
H572 H 0.21102 0.52928 0.78712 0.0
H573 H 0.31879 0.63313 0.71294 0.0
H574 H 0.19663 0.61617 0.78417 0.0
H575 H 0.3147 0.54836 0.68503 0.0
H576 H 0.27704 0.62725 0.74461 0.0
H577 H 0.25248 0.5358 0.75539 0.0
C578 C 0.21664 0.54975 0.77991 0.0
C579 C 0.20033 0.57222 0.78827 0.0
C580 C 0.28528 0.61 0.73144 0.0
C581 C 0.24781 0.57981 0.7521 0.0
C582 C 0.30911 0.61331 0.71345 0.0
C583 C 0.3202 0.5912 0.69628 0.0
C584 C 0.27275 0.5843 0.73271 0.0
C585 C 0.30679 0.56598 0.69777 0.0
C586 C 0.24022 0.55343 0.76167 0.0
C587 C 0.20856 0.59827 0.77816 0.0
N588 N 0.28388 0.56316 0.71584 0.0
N589 N 0.23182 0.60138 0.76073 0.0
H590 H 0.95836 0.18666 0.79056 0.0
H591 H 0.87995 0.30234 0.69261 0.0
H592 H 0.87162 0.18461 0.77541 0.0
H593 H 0.9656 0.28577 0.68051 0.0
H594 H 0.87638 0.26241 0.72784 0.0
H595 H 0.96132 0.22648 0.75533 0.0
C596 C 0.93991 0.19465 0.77992 0.0
C597 C 0.9147 0.18227 0.7859 0.0
C598 C 0.89592 0.2675 0.71736 0.0
C599 C 0.91796 0.22791 0.74567 0.0
C600 C 0.89799 0.2903 0.69733 0.0
C601 C 0.92311 0.29736 0.68356 0.0
C602 C 0.91921 0.25193 0.72405 0.0
C603 C 0.94581 0.28101 0.69049 0.0
C604 C 0.94165 0.2173 0.7597 0.0
C605 C 0.89148 0.19346 0.77136 0.0
N606 N 0.94336 0.25917 0.7104 0.0
N607 N 0.89365 0.21574 0.75202 0.0
loop_
_geom_bond_atom_site_label_1
_geom_bond_atom_site_label_2
_geom_bond_distance
_geom_bond_site_symmetry_2
_ccdc_geom_bond_type
O0 Cd1 2.300 . S
O0 C7 1.275 . S
Cd1 O0 2.300 . S
Cd1 O9 2.381 . S
Cd1 O10 2.378 . S
O2 Cd3 2.385 . S
O2 C7 1.255 . S
Cd3 O2 2.385 . S
Cd3 O4 2.317 . S
O4 Cd3 2.317 . S
O4 C5 1.232 . S
C5 O4 1.232 . S
C5 O6 1.218 . S
O6 C5 1.218 . S
C7 O0 1.275 . S
C7 O2 1.255 . S
C8 O9 1.258 . S
C8 O10 1.256 . S
O9 Cd1 2.381 . S
O9 C8 1.258 . S
O10 Cd1 2.378 . S
O10 C8 1.256 . S
O11 Cd12 2.300 . S
O11 C18 1.275 . S
Cd12 O11 2.300 . S
Cd12 O20 2.381 . S
Cd12 O21 2.378 . S
O13 Cd14 2.385 . S
O13 C18 1.255 . S
Cd14 O13 2.385 . S
Cd14 O15 2.317 . S
O15 Cd14 2.317 . S
O15 C16 1.232 . S
C16 O15 1.232 . S
C16 O17 1.218 . S
O17 C16 1.218 . S
C18 O11 1.275 . S
C18 O13 1.255 . S
C19 O20 1.258 . S
C19 O21 1.256 . S
O20 Cd12 2.381 . S
O20 C19 1.258 . S
O21 Cd12 2.378 . S
O21 C19 1.256 . S
O22 Cd23 2.300 . S
O22 C29 1.275 . S
Cd23 O22 2.300 . S
Cd23 O31 2.381 . S
Cd23 O32 2.378 . S
O24 Cd25 2.385 . S
O24 C29 1.255 . S
Cd25 O24 2.385 . S
Cd25 O26 2.317 . S
O26 Cd25 2.317 . S
O26 C27 1.232 . S
C27 O26 1.232 . S
C27 O28 1.218 . S
O28 C27 1.218 . S
C29 O22 1.275 . S
C29 O24 1.255 . S
C30 O31 1.258 . S
C30 O32 1.256 . S
O31 Cd23 2.381 . S
O31 C30 1.258 . S
O32 Cd23 2.378 . S
O32 C30 1.256 . S
O33 Cd34 2.300 . S
O33 C40 1.275 . S
Cd34 O33 2.300 . S
Cd34 O42 2.381 . S
Cd34 O43 2.378 . S
O35 Cd36 2.385 . S
O35 C40 1.255 . S
Cd36 O35 2.385 . S
Cd36 O37 2.317 . S
O37 Cd36 2.317 . S
O37 C38 1.232 . S
C38 O37 1.232 . S
C38 O39 1.218 . S
O39 C38 1.218 . S
C40 O33 1.275 . S
C40 O35 1.255 . S
C41 O42 1.258 . S
C41 O43 1.256 . S
O42 Cd34 2.381 . S
O42 C41 1.258 . S
O43 Cd34 2.378 . S
O43 C41 1.256 . S
O44 Cd45 2.300 . S
O44 C51 1.275 . S
Cd45 O44 2.300 . S
Cd45 O53 2.381 . S
Cd45 O54 2.378 . S
O46 Cd47 2.385 . S
O46 C51 1.255 . S
Cd47 O46 2.385 . S
Cd47 O48 2.317 . S
O48 Cd47 2.317 . S
O48 C49 1.232 . S
C49 O48 1.232 . S
C49 O50 1.218 . S
O50 C49 1.218 . S
C51 O44 1.275 . S
C51 O46 1.255 . S
C52 O53 1.258 . S
C52 O54 1.256 . S
O53 Cd45 2.381 . S
O53 C52 1.258 . S
O54 Cd45 2.378 . S
O54 C52 1.256 . S
O55 Cd56 2.300 . S
O55 C62 1.275 . S
Cd56 O55 2.300 . S
Cd56 O64 2.381 . S
Cd56 O65 2.378 . S
O57 Cd58 2.385 . S
O57 C62 1.255 . S
Cd58 O57 2.385 . S
Cd58 O59 2.317 . S
O59 Cd58 2.317 . S
O59 C60 1.232 . S
C60 O59 1.232 . S
C60 O61 1.218 . S
O61 C60 1.218 . S
C62 O55 1.275 . S
C62 O57 1.255 . S
C63 O64 1.258 . S
C63 O65 1.256 . S
O64 Cd56 2.381 . S
O64 C63 1.258 . S
O65 Cd56 2.378 . S
O65 C63 1.256 . S
O66 Cd67 2.300 . S
O66 C73 1.275 . S
Cd67 O66 2.300 . S
Cd67 O75 2.381 . S
Cd67 O76 2.378 . S
O68 Cd69 2.385 . S
O68 C73 1.255 . S
Cd69 O68 2.385 . S
Cd69 O70 2.317 . S
O70 Cd69 2.317 . S
O70 C71 1.232 . S
C71 O70 1.232 . S
C71 O72 1.218 . S
O72 C71 1.218 . S
C73 O66 1.275 . S
C73 O68 1.255 . S
C74 O75 1.258 . S
C74 O76 1.256 . S
O75 Cd67 2.381 . S
O75 C74 1.258 . S
O76 Cd67 2.378 . S
O76 C74 1.256 . S
O77 Cd78 2.300 . S
O77 C84 1.275 . S
Cd78 O77 2.300 . S
Cd78 O86 2.381 . S
Cd78 O87 2.378 . S
O79 Cd80 2.385 . S
O79 C84 1.255 . S
Cd80 O79 2.385 . S
Cd80 O81 2.317 . S
O81 Cd80 2.317 . S
O81 C82 1.232 . S
C82 O81 1.232 . S
C82 O83 1.218 . S
O83 C82 1.218 . S
C84 O77 1.275 . S
C84 O79 1.255 . S
C85 O86 1.258 . S
C85 O87 1.256 . S
O86 Cd78 2.381 . S
O86 C85 1.258 . S
O87 Cd78 2.378 . S
O87 C85 1.256 . S
O88 Cd89 2.300 . S
O88 C95 1.275 . S
Cd89 O88 2.300 . S
Cd89 O97 2.381 . S
Cd89 O98 2.378 . S
O90 Cd91 2.385 . S
O90 C95 1.255 . S
Cd91 O90 2.385 . S
Cd91 O92 2.317 . S
O92 Cd91 2.317 . S
O92 C93 1.232 . S
C93 O92 1.232 . S
C93 O94 1.218 . S
O94 C93 1.218 . S
C95 O88 1.275 . S
C95 O90 1.255 . S
C96 O97 1.258 . S
C96 O98 1.256 . S
O97 Cd89 2.381 . S
O97 C96 1.258 . S
O98 Cd89 2.378 . S
O98 C96 1.256 . S
O99 Cd100 2.300 . S
O99 C106 1.275 . S
Cd100 O99 2.300 . S
Cd100 O108 2.381 . S
Cd100 O109 2.378 . S
O101 Cd102 2.385 . S
O101 C106 1.255 . S
Cd102 O101 2.385 . S
Cd102 O103 2.317 . S
O103 Cd102 2.317 . S
O103 C104 1.232 . S
C104 O103 1.232 . S
C104 O105 1.218 . S
O105 C104 1.218 . S
C106 O99 1.275 . S
C106 O101 1.255 . S
C107 O108 1.258 . S
C107 O109 1.256 . S
O108 Cd100 2.381 . S
O108 C107 1.258 . S
O109 Cd100 2.378 . S
O109 C107 1.256 . S
O110 Cd111 2.300 . S
O110 C117 1.275 . S
Cd111 O110 2.300 . S
Cd111 O119 2.381 . S
Cd111 O120 2.378 . S
O112 Cd113 2.385 . S
O112 C117 1.255 . S
Cd113 O112 2.385 . S
Cd113 O114 2.317 . S
O114 Cd113 2.317 . S
O114 C115 1.232 . S
C115 O114 1.232 . S
C115 O116 1.218 . S
O116 C115 1.218 . S
C117 O110 1.275 . S
C117 O112 1.255 . S
C118 O119 1.258 . S
C118 O120 1.256 . S
O119 Cd111 2.381 . S
O119 C118 1.258 . S
O120 Cd111 2.378 . S
O120 C118 1.256 . S
O121 Cd122 2.300 . S
O121 C128 1.275 . S
Cd122 O121 2.300 . S
Cd122 O130 2.381 . S
Cd122 O131 2.378 . S
O123 Cd124 2.385 . S
O123 C128 1.255 . S
Cd124 O123 2.385 . S
Cd124 O125 2.317 . S
O125 Cd124 2.317 . S
O125 C126 1.232 . S
C126 O125 1.232 . S
C126 O127 1.218 . S
O127 C126 1.218 . S
C128 O121 1.275 . S
C128 O123 1.255 . S
C129 O130 1.258 . S
C129 O131 1.256 . S
O130 Cd122 2.381 . S
O130 C129 1.258 . S
O131 Cd122 2.378 . S
O131 C129 1.256 . S
O132 Cd133 2.300 . S
O132 C139 1.275 . S
Cd133 O132 2.300 . S
Cd133 O141 2.381 . S
Cd133 O142 2.378 . S
O134 Cd135 2.385 . S
O134 C139 1.255 . S
Cd135 O134 2.385 . S
Cd135 O136 2.317 . S
O136 Cd135 2.317 . S
O136 C137 1.232 . S
C137 O136 1.232 . S
C137 O138 1.218 . S
O138 C137 1.218 . S
C139 O132 1.275 . S
C139 O134 1.255 . S
C140 O141 1.258 . S
C140 O142 1.256 . S
O141 Cd133 2.381 . S
O141 C140 1.258 . S
O142 Cd133 2.378 . S
O142 C140 1.256 . S
O143 Cd144 2.300 . S
O143 C150 1.275 . S
Cd144 O143 2.300 . S
Cd144 O152 2.381 . S
Cd144 O153 2.378 . S
O145 Cd146 2.385 . S
O145 C150 1.255 . S
Cd146 O145 2.385 . S
Cd146 O147 2.317 . S
O147 Cd146 2.317 . S
O147 C148 1.232 . S
C148 O147 1.232 . S
C148 O149 1.218 . S
O149 C148 1.218 . S
C150 O143 1.275 . S
C150 O145 1.255 . S
C151 O152 1.258 . S
C151 O153 1.256 . S
O152 Cd144 2.381 . S
O152 C151 1.258 . S
O153 Cd144 2.378 . S
O153 C151 1.256 . S
O154 Cd155 2.300 . S
O154 C161 1.275 . S
Cd155 O154 2.300 . S
Cd155 O163 2.381 . S
Cd155 O164 2.378 . S
O156 Cd157 2.385 . S
O156 C161 1.255 . S
Cd157 O156 2.385 . S
Cd157 O158 2.317 . S
O158 Cd157 2.317 . S
O158 C159 1.232 . S
C159 O158 1.232 . S
C159 O160 1.218 . S
O160 C159 1.218 . S
C161 O154 1.275 . S
C161 O156 1.255 . S
C162 O163 1.258 . S
C162 O164 1.256 . S
O163 Cd155 2.381 . S
O163 C162 1.258 . S
O164 Cd155 2.378 . S
O164 C162 1.256 . S
O165 Cd166 2.300 . S
O165 C172 1.275 . S
Cd166 O165 2.300 . S
Cd166 O174 2.381 . S
Cd166 O175 2.378 . S
O167 Cd168 2.385 . S
O167 C172 1.255 . S
Cd168 O167 2.385 . S
Cd168 O169 2.317 . S
O169 Cd168 2.317 . S
O169 C170 1.232 . S
C170 O169 1.232 . S
C170 O171 1.218 . S
O171 C170 1.218 . S
C172 O165 1.275 . S
C172 O167 1.255 . S
C173 O174 1.258 . S
C173 O175 1.256 . S
O174 Cd166 2.381 . S
O174 C173 1.258 . S
O175 Cd166 2.378 . S
O175 C173 1.256 . S
H176 C182 0.930 . S
H177 C186 0.930 . S
H178 C191 0.929 . S
H179 C189 0.929 . S
H180 C184 0.929 . S
H181 C190 0.929 . S
C182 H176 0.930 . S
C182 C183 1.367 . S
C182 C190 1.378 . S
C183 C182 1.367 . S
C183 C191 1.433 . S
C184 H180 0.929 . S
C184 C186 1.378 . S
C184 C188 1.350 1_565 S
C185 C188 1.463 . S
C185 C190 1.350 . S
C185 N193 1.427 . S
C186 H177 0.930 . S
C186 C184 1.378 . S
C186 C187 1.367 . S
C187 C186 1.367 . S
C187 C189 1.433 . S
C188 C184 1.350 1_545 S
C188 C185 1.463 . S
C188 N192 1.427 . S
C189 H179 0.929 . S
C189 C187 1.433 . S
C189 N192 1.384 1_565 S
C190 H181 0.929 . S
C190 C182 1.378 . S
C190 C185 1.350 . S
C191 H178 0.929 . S
C191 C183 1.433 . S
C191 N193 1.384 . S
N192 C188 1.427 . S
N192 C189 1.384 1_545 S
N193 C185 1.427 . S
N193 C191 1.384 . S
H194 C200 0.930 . S
H195 C204 0.930 . S
H196 C209 0.929 . S
H197 C207 0.929 . S
H198 C202 0.929 . S
H199 C208 0.929 . S
C200 H194 0.930 . S
C200 C201 1.367 . S
C200 C208 1.378 . S
C201 C200 1.367 . S
C201 C209 1.433 . S
C202 H198 0.929 . S
C202 C204 1.378 . S
C202 C206 1.350 . S
C203 C206 1.463 . S
C203 C208 1.350 . S
C203 N211 1.427 . S
C204 H195 0.930 . S
C204 C202 1.378 . S
C204 C205 1.367 . S
C205 C204 1.367 . S
C205 C207 1.433 . S
C206 C202 1.350 . S
C206 C203 1.463 . S
C206 N210 1.427 . S
C207 H197 0.929 . S
C207 C205 1.433 . S
C207 N210 1.384 . S
C208 H199 0.929 . S
C208 C200 1.378 . S
C208 C203 1.350 . S
C209 H196 0.929 . S
C209 C201 1.433 . S
C209 N211 1.384 . S
N210 C206 1.427 . S
N210 C207 1.384 . S
N211 C203 1.427 . S
N211 C209 1.384 . S
H212 C218 0.930 1_455 S
H213 C222 0.930 . S
H214 C227 0.929 . S
H215 C225 0.929 . S
H216 C220 0.929 1_655 S
H217 C226 0.929 . S
C218 H212 0.930 1_655 S
C218 C219 1.367 . S
C218 C226 1.378 1_655 S
C219 C218 1.367 . S
C219 C227 1.433 . S
C220 H216 0.929 1_455 S
C220 C222 1.378 . S
C220 C224 1.350 . S
C221 C224 1.463 . S
C221 C226 1.350 . S
C221 N229 1.427 1_455 S
C222 H213 0.930 . S
C222 C220 1.378 . S
C222 C223 1.367 . S
C223 C222 1.367 . S
C223 C225 1.433 . S
C224 C220 1.350 . S
C224 C221 1.463 . S
C224 N228 1.427 . S
C225 H215 0.929 . S
C225 C223 1.433 . S
C225 N228 1.384 . S
C226 H217 0.929 . S
C226 C218 1.378 1_455 S
C226 C221 1.350 . S
C227 H214 0.929 . S
C227 C219 1.433 . S
C227 N229 1.384 . S
N228 C224 1.427 . S
N228 C225 1.384 . S
N229 C221 1.427 1_655 S
N229 C227 1.384 . S
H230 C236 0.930 . S
H231 C240 0.930 . S
H232 C245 0.929 . S
H233 C243 0.929 . S
H234 C238 0.929 . S
H235 C244 0.929 . S
C236 H230 0.930 . S
C236 C237 1.367 . S
C236 C244 1.378 1_655 S
C237 C236 1.367 . S
C237 C245 1.433 . S
C238 H234 0.929 . S
C238 C240 1.378 1_545 S
C238 C242 1.350 . S
C239 C242 1.463 . S
C239 C244 1.350 . S
C239 N247 1.427 1_455 S
C240 H231 0.930 . S
C240 C238 1.378 1_565 S
C240 C241 1.367 . S
C241 C240 1.367 . S
C241 C243 1.433 . S
C242 C238 1.350 . S
C242 C239 1.463 . S
C242 N246 1.427 1_545 S
C243 H233 0.929 . S
C243 C241 1.433 . S
C243 N246 1.384 . S
C244 H235 0.929 . S
C244 C236 1.378 1_455 S
C244 C239 1.350 . S
C245 H232 0.929 . S
C245 C237 1.433 . S
C245 N247 1.384 . S
N246 C242 1.427 1_565 S
N246 C243 1.384 . S
N247 C239 1.427 1_655 S
N247 C245 1.384 . S
H248 C254 0.930 . S
H249 C258 0.930 . S
H250 C263 0.929 1_565 S
H251 C261 0.929 . S
H252 C256 0.929 . S
H253 C262 0.929 . S
C254 H248 0.930 . S
C254 C255 1.367 . S
C254 C262 1.378 . S
C255 C254 1.367 . S
C255 C263 1.433 . S
C256 H252 0.929 . S
C256 C258 1.378 . S
C256 C260 1.350 . S
C257 C260 1.463 . S
C257 C262 1.350 1_565 S
C257 N265 1.427 . S
C258 H249 0.930 . S
C258 C256 1.378 . S
C258 C259 1.367 . S
C259 C258 1.367 . S
C259 C261 1.433 . S
C260 C256 1.350 . S
C260 C257 1.463 . S
C260 N264 1.427 . S
C261 H251 0.929 . S
C261 C259 1.433 . S
C261 N264 1.384 . S
C262 H253 0.929 . S
C262 C254 1.378 . S
C262 C257 1.350 1_545 S
C263 H250 0.929 1_545 S
C263 C255 1.433 . S
C263 N265 1.384 1_545 S
N264 C260 1.427 . S
N264 C261 1.384 . S
N265 C257 1.427 . S
N265 C263 1.384 1_565 S
H266 C272 0.930 . S
H267 C276 0.930 . S
H268 C281 0.929 . S
H269 C279 0.929 . S
H270 C274 0.929 . S
H271 C280 0.929 . S
C272 H266 0.930 . S
C272 C273 1.367 . S
C272 C280 1.378 . S
C273 C272 1.367 . S
C273 C281 1.433 . S
C274 H270 0.929 . S
C274 C276 1.378 . S
C274 C278 1.350 . S
C275 C278 1.463 . S
C275 C280 1.350 . S
C275 N283 1.427 . S
C276 H267 0.930 . S
C276 C274 1.378 . S
C276 C277 1.367 . S
C277 C276 1.367 . S
C277 C279 1.433 . S
C278 C274 1.350 . S
C278 C275 1.463 . S
C278 N282 1.427 . S
C279 H269 0.929 . S
C279 C277 1.433 . S
C279 N282 1.384 . S
C280 H271 0.929 . S
C280 C272 1.378 . S
C280 C275 1.350 . S
C281 H268 0.929 . S
C281 C273 1.433 . S
C281 N283 1.384 . S
N282 C278 1.427 . S
N282 C279 1.384 . S
N283 C275 1.427 . S
N283 C281 1.384 . S
H284 C290 0.930 . S
H285 C294 0.930 . S
H286 C299 0.929 1_655 S
H287 C297 0.929 . S
H288 C292 0.929 . S
H289 C298 0.929 . S
C290 H284 0.930 . S
C290 C291 1.367 . S
C290 C298 1.378 . S
C291 C290 1.367 . S
C291 C299 1.433 . S
C292 H288 0.929 . S
C292 C294 1.378 . S
C292 C296 1.350 . S
C293 C296 1.463 . S
C293 C298 1.350 1_655 S
C293 N301 1.427 . S
C294 H285 0.930 . S
C294 C292 1.378 . S
C294 C295 1.367 . S
C295 C294 1.367 . S
C295 C297 1.433 . S
C296 C292 1.350 . S
C296 C293 1.463 . S
C296 N300 1.427 . S
C297 H287 0.929 . S
C297 C295 1.433 . S
C297 N300 1.384 . S
C298 H289 0.929 . S
C298 C290 1.378 . S
C298 C293 1.350 1_455 S
C299 H286 0.929 1_455 S
C299 C291 1.433 . S
C299 N301 1.384 1_455 S
N300 C296 1.427 . S
N300 C297 1.384 . S
N301 C293 1.427 . S
N301 C299 1.384 1_655 S
H302 C308 0.930 1_565 S
H303 C312 0.930 . S
H304 C317 0.929 . S
H305 C315 0.924 1_655 S
H306 C310 0.929 1_545 S
H307 C316 0.929 . S
C308 H302 0.930 1_545 S
C308 C309 1.367 . S
C308 C316 1.378 1_545 S
C309 C308 1.367 . S
C309 C317 1.433 . S
C310 H306 0.929 1_565 S
C310 C312 1.378 . S
C310 C314 1.350 1_455 S
C311 C314 1.463 . S
C311 C316 1.350 . S
C311 N319 1.427 1_565 S
C312 H303 0.930 . S
C312 C310 1.378 . S
C312 C313 1.367 . S
C313 C312 1.367 . S
C313 C315 1.433 . S
C314 C310 1.350 1_655 S
C314 C311 1.463 . S
C314 N318 1.427 . S
C315 H305 0.924 1_455 S
C315 C313 1.433 . S
C315 N318 1.384 1_455 S
C316 H307 0.929 . S
C316 C308 1.378 1_565 S
C316 C311 1.350 . S
C317 H304 0.929 . S
C317 C309 1.433 . S
C317 N319 1.384 . S
N318 C314 1.427 . S
N318 C315 1.384 1_655 S
N319 C311 1.427 1_545 S
N319 C317 1.384 . S
H320 C326 0.930 . S
H321 C330 0.930 . S
H322 C335 0.929 . S
H323 C333 0.929 . S
H324 C328 0.931 . S
H325 C334 0.931 . S
C326 H320 0.930 . S
C326 C327 1.367 . S
C326 C334 1.376 1_565 S
C327 C326 1.367 . S
C327 C335 1.433 . S
C328 H324 0.931 . S
C328 C330 1.376 1_565 S
C328 C332 1.349 1_565 S
C329 C332 1.463 1_566 S
C329 C334 1.349 1_565 S
C329 N337 1.427 . S
C330 H321 0.930 . S
C330 C328 1.376 1_545 S
C330 C331 1.367 . S
C331 C330 1.367 . S
C331 C333 1.433 . S
C332 C328 1.349 1_545 S
C332 C329 1.463 1_544 S
C332 N336 1.427 . S
C333 H323 0.929 . S
C333 C331 1.433 . S
C333 N336 1.384 . S
C334 H325 0.931 . S
C334 C326 1.376 1_545 S
C334 C329 1.349 1_545 S
C335 H322 0.929 . S
C335 C327 1.433 . S
C335 N337 1.384 . S
N336 C332 1.427 . S
N336 C333 1.384 . S
N337 C329 1.427 . S
N337 C335 1.384 . S
H338 C344 0.930 . S
H339 C348 0.930 . S
H340 C353 0.929 . S
H341 C351 0.929 . S
H342 C346 0.929 . S
H343 C352 0.929 . S
C344 H338 0.930 . S
C344 C345 1.367 . S
C344 C352 1.378 1_556 S
C345 C344 1.367 . S
C345 C353 1.433 . S
C346 H342 0.929 . S
C346 C348 1.378 1_556 S
C346 C350 1.350 1_556 S
C347 C350 1.463 1_556 S
C347 C352 1.350 1_556 S
C347 N355 1.427 . S
C348 H339 0.930 . S
C348 C346 1.378 1_554 S
C348 C349 1.367 . S
C349 C348 1.367 . S
C349 C351 1.433 . S
C350 C346 1.350 1_554 S
C350 C347 1.463 1_554 S
C350 N354 1.427 . S
C351 H341 0.929 . S
C351 C349 1.433 . S
C351 N354 1.384 . S
C352 H343 0.929 . S
C352 C344 1.378 1_554 S
C352 C347 1.350 1_554 S
C353 H340 0.929 . S
C353 C345 1.433 . S
C353 N355 1.384 . S
N354 C350 1.427 . S
N354 C351 1.384 . S
N355 C347 1.427 . S
N355 C353 1.384 . S
H356 C362 0.930 1_455 S
H357 C366 0.930 1_655 S
H358 C371 0.929 . S
H359 C369 0.929 . S
H360 C364 0.929 . S
H361 C370 0.929 . S
C362 H356 0.930 1_655 S
C362 C363 1.367 . S
C362 C370 1.378 1_655 S
C363 C362 1.367 . S
C363 C371 1.433 . S
C364 H360 0.929 . S
C364 C366 1.378 1_655 S
C364 C368 1.350 1_655 S
C365 C368 1.463 1_654 S
C365 C370 1.350 1_655 S
C365 N373 1.427 . S
C366 H357 0.930 1_455 S
C366 C364 1.378 1_455 S
C366 C367 1.367 . S
C367 C366 1.367 . S
C367 C369 1.433 . S
C368 C364 1.350 1_455 S
C368 C365 1.463 1_456 S
C368 N372 1.427 . S
C369 H359 0.929 . S
C369 C367 1.433 . S
C369 N372 1.384 . S
C370 H361 0.929 . S
C370 C362 1.378 1_455 S
C370 C365 1.350 1_455 S
C371 H358 0.929 . S
C371 C363 1.433 . S
C371 N373 1.384 . S
N372 C368 1.427 . S
N372 C369 1.384 . S
N373 C365 1.427 . S
N373 C371 1.384 . S
H374 C380 0.930 . S
H375 C384 0.930 . S
H376 C389 0.929 . S
H377 C387 0.929 . S
H378 C382 0.929 1_655 S
H379 C388 0.929 1_455 S
C380 H374 0.930 . S
C380 C381 1.367 . S
C380 C388 1.378 1_545 S
C381 C380 1.367 . S
C381 C389 1.433 . S
C382 H378 0.929 1_455 S
C382 C384 1.378 1_545 S
C382 C386 1.350 1_545 S
C383 C386 1.463 1_646 S
C383 C388 1.350 1_545 S
C383 N391 1.420 1_556 S
C384 H375 0.930 . S
C384 C382 1.378 1_565 S
C384 C385 1.367 . S
C385 C384 1.367 . S
C385 C387 1.433 . S
C386 C382 1.350 1_565 S
C386 C383 1.463 1_464 S
C386 N390 1.420 1_554 S
C387 H377 0.929 . S
C387 C385 1.433 . S
C387 N390 1.370 1_554 S
C388 H379 0.929 1_655 S
C388 C380 1.378 1_565 S
C388 C383 1.350 1_565 S
C389 H376 0.929 . S
C389 C381 1.433 . S
C389 N391 1.370 1_556 S
N390 C386 1.420 1_556 S
N390 C387 1.370 1_556 S
N391 C383 1.420 1_554 S
N391 C389 1.370 1_554 S
H392 C398 0.930 . S
H393 C402 0.930 . S
H394 C407 0.929 . S
H395 C405 0.929 . S
H396 C400 0.929 . S
H397 C406 0.929 . S
C398 H392 0.930 . S
C398 C399 1.367 . S
C398 C406 1.378 . S
C399 C398 1.367 . S
C399 C407 1.433 . S
C400 H396 0.929 . S
C400 C402 1.378 . S
C400 C404 1.350 . S
C401 C404 1.463 . S
C401 C406 1.350 . S
C401 N409 1.427 . S
C402 H393 0.930 . S
C402 C400 1.378 . S
C402 C403 1.367 . S
C403 C402 1.367 . S
C403 C405 1.433 . S
C404 C400 1.350 . S
C404 C401 1.463 . S
C404 N408 1.427 . S
C405 H395 0.929 . S
C405 C403 1.433 . S
C405 N408 1.384 . S
C406 H397 0.929 . S
C406 C398 1.378 . S
C406 C401 1.350 . S
C407 H394 0.929 . S
C407 C399 1.433 . S
C407 N409 1.384 . S
N408 C404 1.427 . S
N408 C405 1.384 . S
N409 C401 1.427 . S
N409 C407 1.384 . S
H410 C416 0.930 . S
H411 C420 0.930 . S
H412 C425 0.929 . S
H413 C423 0.929 . S
H414 C418 0.929 . S
H415 C424 0.929 . S
C416 H410 0.930 . S
C416 C417 1.367 . S
C416 C424 1.378 . S
C417 C416 1.367 . S
C417 C425 1.433 . S
C418 H414 0.929 . S
C418 C420 1.378 . S
C418 C422 1.350 . S
C419 C422 1.463 1_655 S
C419 C424 1.350 . S
C419 N427 1.427 . S
C420 H411 0.930 . S
C420 C418 1.378 . S
C420 C421 1.367 . S
C421 C420 1.367 . S
C421 C423 1.433 . S
C422 C418 1.350 . S
C422 C419 1.463 1_455 S
C422 N426 1.427 . S
C423 H413 0.929 . S
C423 C421 1.433 . S
C423 N426 1.384 . S
C424 H415 0.929 . S
C424 C416 1.378 . S
C424 C419 1.350 . S
C425 H412 0.929 . S
C425 C417 1.433 . S
C425 N427 1.384 . S
N426 C422 1.427 . S
N426 C423 1.384 . S
N427 C419 1.427 . S
N427 C425 1.384 . S
H428 C434 0.930 . S
H429 C438 0.930 . S
H430 C443 0.929 . S
H431 C441 0.929 . S
H432 C436 0.892 1_565 S
H433 C442 0.892 1_545 S
C434 H428 0.930 . S
C434 C435 1.367 . S
C434 C442 1.403 . S
C435 C434 1.367 . S
C435 C443 1.433 . S
C436 H432 0.892 1_545 S
C436 C438 1.403 . S
C436 C440 1.362 . S
C437 C440 1.463 1_465 S
C437 C442 1.362 . S
C437 N445 1.427 . S
C438 H429 0.930 . S
C438 C436 1.403 . S
C438 C439 1.367 . S
C439 C438 1.367 . S
C439 C441 1.433 . S
C440 C436 1.362 . S
C440 C437 1.463 1_645 S
C440 N444 1.427 . S
C441 H431 0.929 . S
C441 C439 1.433 . S
C441 N444 1.384 . S
C442 H433 0.892 1_565 S
C442 C434 1.403 . S
C442 C437 1.362 . S
C443 H430 0.929 . S
C443 C435 1.433 . S
C443 N445 1.384 . S
N444 C440 1.427 . S
N444 C441 1.384 . S
N445 C437 1.427 . S
N445 C443 1.384 . S
H446 C452 0.930 1_545 S
H447 C456 0.930 1_565 S
H448 C461 0.929 . S
H449 C459 0.929 . S
H450 C454 0.929 . S
H451 C460 0.929 . S
C452 H446 0.930 1_565 S
C452 C453 1.367 . S
C452 C460 1.378 1_565 S
C453 C452 1.367 . S
C453 C461 1.433 . S
C454 H450 0.929 . S
C454 C456 1.378 1_565 S
C454 C458 1.350 1_565 S
C455 C458 1.463 1_565 S
C455 C460 1.350 1_565 S
C455 N463 1.427 . S
C456 H447 0.930 1_545 S
C456 C454 1.378 1_545 S
C456 C457 1.367 . S
C457 C456 1.367 . S
C457 C459 1.433 . S
C458 C454 1.350 1_545 S
C458 C455 1.463 1_545 S
C458 N462 1.427 . S
C459 H449 0.929 . S
C459 C457 1.433 . S
C459 N462 1.384 . S
C460 H451 0.929 . S
C460 C452 1.378 1_545 S
C460 C455 1.350 1_545 S
C461 H448 0.929 . S
C461 C453 1.433 . S
C461 N463 1.384 . S
N462 C458 1.427 . S
N462 C459 1.384 . S
N463 C455 1.427 . S
N463 C461 1.384 . S
H464 C470 0.930 . S
H465 C474 0.930 . S
H466 C479 0.929 . S
H467 C477 0.929 . S
H468 C472 0.929 . S
H469 C478 0.929 . S
C470 H464 0.930 . S
C470 C471 1.367 . S
C470 C478 1.378 . S
C471 C470 1.367 . S
C471 C479 1.433 . S
C472 H468 0.929 . S
C472 C474 1.378 . S
C472 C476 1.350 . S
C473 C476 1.463 . S
C473 C478 1.350 . S
C473 N481 1.427 . S
C474 H465 0.930 . S
C474 C472 1.378 . S
C474 C475 1.367 . S
C475 C474 1.367 . S
C475 C477 1.433 . S
C476 C472 1.350 . S
C476 C473 1.463 . S
C476 N480 1.427 . S
C477 H467 0.929 . S
C477 C475 1.433 . S
C477 N480 1.384 . S
C478 H469 0.929 . S
C478 C470 1.378 . S
C478 C473 1.350 . S
C479 H466 0.929 . S
C479 C471 1.433 . S
C479 N481 1.384 . S
N480 C476 1.427 . S
N480 C477 1.384 . S
N481 C473 1.427 . S
N481 C479 1.384 . S
H482 C488 0.930 . S
H483 C492 0.930 . S
H484 C497 0.929 . S
H485 C495 0.929 . S
H486 C490 0.929 . S
H487 C496 0.929 . S
C488 H482 0.930 . S
C488 C489 1.367 . S
C488 C496 1.378 . S
C489 C488 1.367 . S
C489 C497 1.433 . S
C490 H486 0.929 . S
C490 C492 1.378 . S
C490 C494 1.350 . S
C491 C494 1.463 . S
C491 C496 1.350 . S
C491 N499 1.427 . S
C492 H483 0.930 . S
C492 C490 1.378 . S
C492 C493 1.367 . S
C493 C492 1.367 . S
C493 C495 1.433 . S
C494 C490 1.350 . S
C494 C491 1.463 . S
C494 N498 1.427 . S
C495 H485 0.929 . S
C495 C493 1.433 . S
C495 N498 1.384 . S
C496 H487 0.929 . S
C496 C488 1.378 . S
C496 C491 1.350 . S
C497 H484 0.929 . S
C497 C489 1.433 . S
C497 N499 1.384 . S
N498 C494 1.427 . S
N498 C495 1.384 . S
N499 C491 1.427 . S
N499 C497 1.384 . S
H500 C506 0.930 . S
H501 C510 0.930 . S
H502 C515 0.929 . S
H503 C513 0.929 . S
H504 C508 0.929 . S
H505 C514 0.929 . S
C506 H500 0.930 . S
C506 C507 1.367 . S
C506 C514 1.378 . S
C507 C506 1.367 . S
C507 C515 1.433 . S
C508 H504 0.929 . S
C508 C510 1.378 . S
C508 C512 1.350 . S
C509 C512 1.463 . S
C509 C514 1.350 . S
C509 N517 1.427 . S
C510 H501 0.930 . S
C510 C508 1.378 . S
C510 C511 1.367 . S
C511 C510 1.367 . S
C511 C513 1.433 . S
C512 C508 1.350 . S
C512 C509 1.463 . S
C512 N516 1.427 . S
C513 H503 0.929 . S
C513 C511 1.433 . S
C513 N516 1.384 . S
C514 H505 0.929 . S
C514 C506 1.378 . S
C514 C509 1.350 . S
C515 H502 0.929 . S
C515 C507 1.433 . S
C515 N517 1.384 . S
N516 C512 1.427 . S
N516 C513 1.384 . S
N517 C509 1.427 . S
N517 C515 1.384 . S
H518 C524 0.930 . S
H519 C528 0.930 . S
H520 C533 0.929 . S
H521 C531 0.929 . S
H522 C526 0.929 . S
H523 C532 0.929 . S
C524 H518 0.930 . S
C524 C525 1.367 . S
C524 C532 1.378 . S
C525 C524 1.367 . S
C525 C533 1.433 . S
C526 H522 0.929 . S
C526 C528 1.378 . S
C526 C530 1.350 . S
C527 C530 1.463 . S
C527 C532 1.350 . S
C527 N535 1.427 . S
C528 H519 0.930 . S
C528 C526 1.378 . S
C528 C529 1.367 . S
C529 C528 1.367 . S
C529 C531 1.433 . S
C530 C526 1.350 . S
C530 C527 1.463 . S
C530 N534 1.427 . S
C531 H521 0.929 . S
C531 C529 1.433 . S
C531 N534 1.384 . S
C532 H523 0.929 . S
C532 C524 1.378 . S
C532 C527 1.350 . S
C533 H520 0.929 . S
C533 C525 1.433 . S
C533 N535 1.384 . S
N534 C530 1.427 . S
N534 C531 1.384 . S
N535 C527 1.427 . S
N535 C533 1.384 . S
H536 C542 0.930 . S
H537 C546 0.930 . S
H538 C551 0.929 . S
H539 C549 0.929 . S
H540 C544 0.929 . S
H541 C550 0.929 . S
C542 H536 0.930 . S
C542 C543 1.367 . S
C542 C550 1.378 . S
C543 C542 1.367 . S
C543 C551 1.433 . S
C544 H540 0.929 . S
C544 C546 1.378 . S
C544 C548 1.350 . S
C545 C548 1.463 . S
C545 C550 1.350 . S
C545 N553 1.427 . S
C546 H537 0.930 . S
C546 C544 1.378 . S
C546 C547 1.367 . S
C547 C546 1.367 . S
C547 C549 1.433 . S
C548 C544 1.350 . S
C548 C545 1.463 . S
C548 N552 1.427 . S
C549 H539 0.929 . S
C549 C547 1.433 . S
C549 N552 1.384 . S
C550 H541 0.929 . S
C550 C542 1.378 . S
C550 C545 1.350 . S
C551 H538 0.929 . S
C551 C543 1.433 . S
C551 N553 1.384 . S
N552 C548 1.427 . S
N552 C549 1.384 . S
N553 C545 1.427 . S
N553 C551 1.384 . S
H554 C560 0.930 . S
H555 C564 0.930 . S
H556 C569 0.929 . S
H557 C567 0.929 . S
H558 C562 0.929 . S
H559 C568 0.929 . S
C560 H554 0.930 . S
C560 C561 1.367 . S
C560 C568 1.378 . S
C561 C560 1.367 . S
C561 C569 1.433 . S
C562 H558 0.929 . S
C562 C564 1.378 . S
C562 C566 1.350 . S
C563 C566 1.463 . S
C563 C568 1.350 . S
C563 N571 1.427 . S
C564 H555 0.930 . S
C564 C562 1.378 . S
C564 C565 1.367 . S
C565 C564 1.367 . S
C565 C567 1.433 . S
C566 C562 1.350 . S
C566 C563 1.463 . S
C566 N570 1.427 . S
C567 H557 0.929 . S
C567 C565 1.433 . S
C567 N570 1.384 . S
C568 H559 0.929 . S
C568 C560 1.378 . S
C568 C563 1.350 . S
C569 H556 0.929 . S
C569 C561 1.433 . S
C569 N571 1.384 . S
N570 C566 1.427 . S
N570 C567 1.384 . S
N571 C563 1.427 . S
N571 C569 1.384 . S
H572 C578 0.930 . S
H573 C582 0.930 . S
H574 C587 0.929 . S
H575 C585 0.929 . S
H576 C580 0.929 . S
H577 C586 0.929 . S
C578 H572 0.930 . S
C578 C579 1.367 . S
C578 C586 1.378 . S
C579 C578 1.367 . S
C579 C587 1.433 . S
C580 H576 0.929 . S
C580 C582 1.378 . S
C580 C584 1.350 . S
C581 C584 1.463 . S
C581 C586 1.350 . S
C581 N589 1.427 . S
C582 H573 0.930 . S
C582 C580 1.378 . S
C582 C583 1.367 . S
C583 C582 1.367 . S
C583 C585 1.433 . S
C584 C580 1.350 . S
C584 C581 1.463 . S
C584 N588 1.427 . S
C585 H575 0.929 . S
C585 C583 1.433 . S
C585 N588 1.384 . S
C586 H577 0.929 . S
C586 C578 1.378 . S
C586 C581 1.350 . S
C587 H574 0.929 . S
C587 C579 1.433 . S
C587 N589 1.384 . S
N588 C584 1.427 . S
N588 C585 1.384 . S
N589 C581 1.427 . S
N589 C587 1.384 . S
H590 C596 0.930 . S
H591 C600 0.930 . S
H592 C605 0.929 . S
H593 C603 0.929 . S
H594 C598 0.929 . S
H595 C604 0.929 . S
C596 H590 0.930 . S
C596 C597 1.367 . S
C596 C604 1.378 . S
C597 C596 1.367 . S
C597 C605 1.433 . S
C598 H594 0.929 . S
C598 C600 1.378 . S
C598 C602 1.350 . S
C599 C602 1.463 . S
C599 C604 1.350 . S
C599 N607 1.427 . S
C600 H591 0.930 . S
C600 C598 1.378 . S
C600 C601 1.367 . S
C601 C600 1.367 . S
C601 C603 1.433 . S
C602 C598 1.350 . S
C602 C599 1.463 . S
C602 N606 1.427 . S
C603 H593 0.929 . S
C603 C601 1.433 . S
C603 N606 1.384 . S
C604 H595 0.929 . S
C604 C596 1.378 . S
C604 C599 1.350 . S
C605 H592 0.929 . S
C605 C597 1.433 . S
C605 N607 1.384 . S
N606 C602 1.427 . S
N606 C603 1.384 . S
N607 C599 1.427 . S
N607 C605 1.384 . S
C183 C7 1.079 . S
C187 C84 1.073 . S
C201 C18 1.081 . S
C205 C51 1.074 . S
C219 C29 1.088 . S
C223 C62 1.067 . S
C237 C73 1.077 . S
C241 C40 1.079 . S
C255 C172 1.142 . S
C259 C95 1.145 . S
C273 C139 1.150 . S
C277 C106 1.150 . S
C291 C117 1.144 . S
C295 C150 1.148 . S
C309 C128 1.149 . S
C313 C161 1.144 . S
C327 C93 1.959 . S
C331 C5 1.468 . S
C345 C104 1.957 . S
C349 C16 1.493 . S
C363 C27 1.492 . S
C367 C115 1.949 . S
C381 C126 1.952 . S
C385 C38 1.473 . S
C399 C137 1.949 . S
C403 C49 1.492 . S
C417 C148 1.949 . S
C421 C60 1.481 . S
C435 C159 1.957 . S
C439 C71 1.468 . S
C453 C82 1.482 . S
C457 C170 1.949 . S
C471 C74 1.836 . S
C475 C8 1.825 . S
C489 C85 1.834 . S
C493 C19 1.830 . S
C507 C30 1.832 . S
C511 C52 1.826 . S
C525 C41 1.824 . S
C529 C63 1.835 . S
C543 C162 1.880 . S
C547 C96 1.881 . S
C561 C173 1.879 . S
C565 C107 1.878 . S
C579 C118 1.879 . S
C583 C140 1.881 . S
C597 C129 1.883 . S
C601 C151 1.884 . S
