# Generated by pormake.
# Topology sxa, (6)-cn, num edge types: 1
# Building blocks:
#     Node 0, Type 0, BuildingBlock: PAMTOO_clean_sbu_0, # of connection points: 6
#     Node 1, Type 0, BuildingBlock: PAMTOO_clean_sbu_0, # of connection points: 6
#     Node 2, Type 0, BuildingBlock: PAMTOO_clean_sbu_0, # of connection points: 6
#     Node 3, Type 0, BuildingBlock: PAMTOO_clean_sbu_0, # of connection points: 6
#     Edge 4, Type (0, 0), BuildingBlock: UVAHIK_clean_linker_0, # of connection points: 2
#     Edge 5, Type (0, 0), BuildingBlock: UVAHIK_clean_linker_0, # of connection points: 2
#     Edge 6, Type (0, 0), BuildingBlock: UVAHIK_clean_linker_0, # of connection points: 2
#     Edge 7, Type (0, 0), BuildingBlock: UVAHIK_clean_linker_0, # of connection points: 2
#     Edge 8, Type (0, 0), BuildingBlock: UVAHIK_clean_linker_0, # of connection points: 2
#     Edge 9, Type (0, 0), BuildingBlock: UVAHIK_clean_linker_0, # of connection points: 2
#     Edge 10, Type (0, 0), BuildingBlock: UVAHIK_clean_linker_0, # of connection points: 2
#     Edge 11, Type (0, 0), BuildingBlock: UVAHIK_clean_linker_0, # of connection points: 2
#     Edge 12, Type (0, 0), BuildingBlock: UVAHIK_clean_linker_0, # of connection points: 2
#     Edge 13, Type (0, 0), BuildingBlock: UVAHIK_clean_linker_0, # of connection points: 2
#     Edge 14, Type (0, 0), BuildingBlock: UVAHIK_clean_linker_0, # of connection points: 2
#     Edge 15, Type (0, 0), BuildingBlock: UVAHIK_clean_linker_0, # of connection points: 2
# Relax obj value: 0.172
# Max RMSD: 0.259
# Mean RMSD: 0.259
data_MOF--net-sxa--node1-PAMTOO_clean_sbu_0--edge1-UVAHIK_clean_linker_0
_symmetry_space_group_name_H-M    P1
_symmetry_Int_Tables_number       1
_symmetry_cell_setting            triclinic
loop_
_symmetry_equiv_pos_as_xyz
'x, y, z'
_cell_length_a     43.914452
_cell_length_b     36.022175
_cell_length_c     20.223061
_cell_angle_alpha  93.911325
_cell_angle_beta   119.38162
_cell_angle_gamma 79.88315
loop_
_atom_site_label
_atom_site_type_symbol
_atom_site_fract_x
_atom_site_fract_y
_atom_site_fract_z
_atom_type_partial_charge
Dy0 Dy 0.04339 0.79645 0.22759 0.0
Dy1 Dy 0.05791 0.77804 0.08375 0.0
C2 C 0.06313 0.71438 0.17944 0.0
O3 O 0.10248 0.78762 0.28266 0.0
O4 O 0.10946 0.79253 0.17766 0.0
O5 O 0.04558 0.7761 0.32863 0.0
O6 O 0.02004 0.83293 0.28628 0.0
O7 O 0.03276 0.83791 0.06985 0.0
O8 O 0.0548 0.84999 0.19643 0.0
O9 O 1.00208 0.76928 0.04538 0.0
O10 O 0.99182 0.81159 0.12432 0.0
O11 O 0.07574 0.7897 1.00608 0.0
O12 O 0.05319 0.73901 0.99491 0.0
C13 C 0.12237 0.79068 0.25191 0.0
O14 O 0.03783 0.73597 0.18789 0.0
O15 O 0.0839 0.73091 0.16714 0.0
C16 C 0.99647 0.80233 0.34869 0.0
C17 C 0.94299 0.79631 0.38706 0.0
C18 C 0.96873 0.76495 0.39427 0.0
C19 C 0.9951 0.76793 0.37554 0.0
C20 C 0.97058 0.83357 0.34084 0.0
C21 C 0.9442 0.83059 0.35944 0.0
C22 C 0.02607 0.80661 0.33444 0.0
C23 C 0.04232 0.86166 0.12574 0.0
C24 C 0.98018 0.79146 0.06324 0.0
C25 C 0.10198 0.7341 0.97333 0.0
C26 C 0.16682 0.69644 0.98694 0.0
C27 C 0.14968 0.73015 0.94371 0.0
C28 C 0.11752 0.7487 0.93682 0.0
C29 C 0.11818 0.69958 0.01379 0.0
C30 C 0.15018 0.68084 0.02013 0.0
C31 C 0.07095 0.75676 0.97471 0.0
H32 H 0.96855 0.73795 0.4144 0.0
H33 H 0.01471 0.7433 0.38308 0.0
H34 H 0.97106 0.86069 0.32159 0.0
H35 H 0.92531 0.85556 0.35412 0.0
H36 H 0.16193 0.74333 0.91834 0.0
H37 H 0.10555 0.77534 0.90567 0.0
H38 H 0.10681 0.68763 0.04273 0.0
H39 H 0.16238 0.65468 0.05286 0.0
Dy40 Dy 0.54401 0.29689 0.23035 0.0
Dy41 Dy 0.56102 0.27576 0.0901 0.0
C42 C 0.56419 0.21407 0.1869 0.0
O43 O 0.60325 0.28813 0.2878 0.0
O44 O 0.61139 0.29227 0.18418 0.0
O45 O 0.54511 0.27825 0.33124 0.0
O46 O 0.51968 0.33472 0.28585 0.0
O47 O 0.53516 0.33551 0.07107 0.0
O48 O 0.55511 0.34985 0.19631 0.0
O49 O 0.50482 0.26747 0.04841 0.0
O50 O 0.49297 0.31033 0.12493 0.0
O51 O 0.57991 0.28592 0.01352 0.0
O52 O 0.55912 0.23444 1.00649 0.0
C53 C 0.62364 0.29105 0.2582 0.0
O54 O 0.53843 0.23617 0.19285 0.0
O55 O 0.58587 0.23019 0.17699 0.0
C56 C 0.4968 0.30626 0.35166 0.0
C57 C 0.44335 0.30043 0.38993 0.0
C58 C 0.45038 0.27391 0.34239 0.0
C59 C 0.47679 0.27677 0.32352 0.0
C60 C 0.48943 0.33305 0.39779 0.0
C61 C 0.46312 0.33024 0.4166 0.0
C62 C 0.52606 0.3094 0.33608 0.0
C63 C 0.54346 0.36026 0.12521 0.0
C64 C 0.48228 0.28981 0.06427 0.0
C65 C 0.60925 0.22992 0.98983 0.0
C66 C 0.67647 0.19469 0.0132 0.0
C67 C 0.65752 0.22548 0.96193 0.0
C68 C 0.62419 0.24284 0.95028 0.0
C69 C 0.62735 0.19816 0.03855 0.0
C70 C 0.66055 0.18059 0.04976 0.0
C71 C 0.57687 0.25204 0.98602 0.0
H72 H 0.43603 0.25039 0.32104 0.0
H73 H 0.48183 0.25571 0.28767 0.0
H74 H 0.50431 0.35616 0.41994 0.0
H75 H 0.45818 0.3517 0.45191 0.0
H76 H 0.66915 0.2375 0.93368 0.0
H77 H 0.61077 0.26744 0.9129 0.0
H78 H 0.61647 0.18765 0.07009 0.0
H79 H 0.67418 0.15663 0.08875 0.0
Dy80 Dy 0.06456 0.28859 0.91965 0.0
Dy81 Dy 0.07839 0.27351 0.77383 0.0
C82 C 0.07591 0.20569 0.86413 0.0
O83 O 0.1177 0.30381 0.95361 0.0
O84 O 0.1291 0.25903 0.88024 0.0
O85 O 0.0837 0.2791 0.03893 0.0
O86 O 0.03375 0.31528 0.97159 0.0
O87 O 0.08429 0.3342 0.81151 0.0
O88 O 0.04376 0.34168 0.85225 0.0
O89 O 0.01945 0.2854 0.72329 0.0
O90 O 0.01524 0.26956 0.8267 0.0
O91 O 0.07623 0.29372 0.67276 0.0
O92 O 0.10229 0.23711 0.71591 0.0
C93 C 0.14026 0.28128 0.93827 0.0
O94 O 0.08545 0.2278 0.92253 0.0
O95 O 0.06491 0.21907 0.79548 0.0
C96 C 0.03733 0.27591 0.0632 0.0
C97 C 0.9995 0.23796 0.10824 0.0
C98 C 1.00326 0.22621 0.04448 0.0
C99 C 0.02204 0.24502 0.02221 0.0
C100 C 0.03484 0.28696 0.12828 0.0
C101 C 0.0161 0.26807 0.15081 0.0
C102 C 0.05466 0.29721 0.03607 0.0
C103 C 0.06226 0.35633 0.82961 0.0
C104 C 1.00074 0.27717 0.75348 0.0
C105 C 0.12414 0.2669 0.64985 0.0
C106 C 0.1774 0.27344 0.61144 0.0
C107 C 0.17047 0.29959 0.65965 0.0
C108 C 0.14414 0.29637 0.67861 0.0
C109 C 0.13137 0.24054 0.60293 0.0
C110 C 0.15758 0.24368 0.58406 0.0
C111 C 0.0953 0.26302 0.66629 0.0
H112 H 0.99041 0.20354 1.00977 0.0
H113 H 0.02383 0.23614 0.97175 0.0
H114 H 0.04674 0.31063 0.16071 0.0
H115 H 0.01404 0.27748 0.20069 0.0
H116 H 0.18487 0.32304 0.68158 0.0
H117 H 0.13925 0.31706 0.71517 0.0
H118 H 0.11652 0.21741 0.58039 0.0
H119 H 0.16245 0.22248 0.54826 0.0
Dy120 Dy 0.56232 0.78741 0.91848 0.0
Dy121 Dy 0.57745 0.77406 0.77445 0.0
C122 C 0.57465 0.70515 0.86149 0.0
O123 O 0.61566 0.80307 0.95568 0.0
O124 O 0.62777 0.7593 0.88164 0.0
O125 O 0.58013 0.77598 0.03648 0.0
O126 O 0.5309 0.81331 0.96957 0.0
O127 O 0.58307 0.83452 0.8142 0.0
O128 O 0.54205 0.84124 0.85354 0.0
O129 O 0.51843 0.78574 0.72175 0.0
O130 O 0.51342 0.76865 0.82329 0.0
O131 O 0.57595 0.79522 0.67465 0.0
O132 O 0.60225 0.73866 0.71742 0.0
C133 C 0.63855 0.78109 0.94045 0.0
O134 O 0.5839 0.72694 0.92033 0.0
O135 O 0.56387 0.71904 0.79335 0.0
C136 C 0.5324 0.77175 0.05528 0.0
C137 C 0.4927 0.73202 0.09173 0.0
C138 C 0.49622 0.72304 0.02676 0.0
C139 C 0.51596 0.74269 1.00882 0.0
C140 C 0.53013 0.78003 0.12148 0.0
C141 C 0.51048 0.76023 0.13975 0.0
C142 C 0.55087 0.79392 0.03279 0.0
C143 C 0.5608 0.85628 0.83215 0.0
C144 C 0.49934 0.7769 0.75046 0.0
C145 C 0.62587 0.77006 0.65637 0.0
C146 C 0.67959 0.77694 0.61929 0.0
C147 C 0.65354 0.80804 0.61172 0.0
C148 C 0.62704 0.80464 0.62982 0.0
C149 C 0.65209 0.7391 0.66465 0.0
C150 C 0.67857 0.74251 0.64669 0.0
C151 C 0.5961 0.76514 0.66953 0.0
H152 H 0.4825 0.70194 0.98791 0.0
H153 H 0.51762 0.7359 0.95752 0.0
H154 H 0.54295 0.80222 0.15815 0.0
H155 H 0.50867 0.76746 0.19071 0.0
H156 H 0.65356 0.83515 0.59171 0.0
H157 H 0.60718 0.82905 0.62195 0.0
H158 H 0.65176 0.71185 0.68365 0.0
H159 H 0.69768 0.71771 0.65225 0.0
C160 C 0.03077 0.42077 0.82852 0.0
C161 C 0.06247 0.39734 0.84161 0.0
C162 C 0.03112 0.45643 0.86055 0.0
C163 C 0.0899 0.50604 0.02819 0.0
H164 H 0.01514 0.59195 0.93635 0.0
C165 C 0.09433 0.65141 0.17011 0.0
C166 C 0.06256 0.67412 0.15867 0.0
C167 C 0.09412 0.61686 0.13414 0.0
C168 C 0.03592 0.56803 0.96333 0.0
H169 H 0.11931 0.39386 0.8949 0.0
H170 H 0.12009 0.45671 0.95037 0.0
H171 H 0.01642 0.53645 0.86095 0.0
H172 H 1.00562 0.67753 0.10286 0.0
H173 H 1.00515 0.61641 0.04093 0.0
H174 H 0.10931 0.53747 0.13065 0.0
C175 C 0.09487 0.44723 0.91578 0.0
C176 C 0.03681 0.53623 0.91983 0.0
C177 C 0.09444 0.41149 0.88293 0.0
C178 C 0.03056 0.6604 0.11379 0.0
C179 C 0.03031 0.6257 0.07725 0.0
C180 C 0.08899 0.53781 0.07168 0.0
C181 C 0.06328 0.46959 0.90725 0.0
C182 C 0.06378 0.50472 0.95165 0.0
C183 C 0.06206 0.60397 0.08531 0.0
C184 C 0.06197 0.56927 0.03997 0.0
H185 H 1.00576 0.41043 0.79757 0.0
H186 H 1.0063 0.47251 0.85288 0.0
H187 H 0.11062 0.48209 0.0553 0.0
H188 H 0.11938 0.66142 0.20367 0.0
H189 H 0.11906 0.60133 0.14137 0.0
C190 C 0.56752 0.42152 0.15189 0.0
C191 C 0.54213 0.39934 0.10367 0.0
C192 C 0.56992 0.45513 0.12441 0.0
C193 C 0.54512 0.50145 0.94086 0.0
H194 H 0.57385 0.58859 0.06551 0.0
C195 C 0.54645 0.64633 0.82662 0.0
C196 C 0.57449 0.66534 0.87566 0.0
C197 C 0.54244 0.61265 0.8509 0.0
C198 C 0.56612 0.56433 0.03004 0.0
H199 H 0.49785 0.39629 0.99062 0.0
H200 H 0.50112 0.45503 0.94393 0.0
H201 H 0.5658 0.53438 0.11759 0.0
H202 H 0.62158 0.66268 0.98605 0.0
H203 H 0.61507 0.60417 0.02724 0.0
H204 H 0.54523 0.53173 0.85314 0.0
C205 C 0.5201 0.44613 1.00196 0.0
C206 C 0.56153 0.53315 0.06007 0.0
C207 C 0.51796 0.41257 0.02908 0.0
C208 C 0.59957 0.6488 0.94703 0.0
C209 C 0.59562 0.61543 0.97107 0.0
C210 C 0.54953 0.53276 0.9107 0.0
C211 C 0.54678 0.46737 0.0483 0.0
C212 C 0.5511 0.50113 0.0161 0.0
C213 C 0.56637 0.59756 0.92459 0.0
C214 C 0.56041 0.56449 0.95511 0.0
H215 H 0.58677 0.41184 0.20933 0.0
H216 H 0.59095 0.47055 0.16189 0.0
H217 H 0.5377 0.47714 0.90544 0.0
H218 H 0.52643 0.6587 0.77183 0.0
H219 H 0.51961 0.59956 0.81357 0.0
C220 C 0.59264 0.91154 0.88792 0.0
C221 C 0.56081 0.89727 0.84497 0.0
C222 C 0.59261 0.94719 0.92101 0.0
C223 C 0.53741 1.01247 0.98602 0.0
H224 H 0.60226 0.08104 0.02045 0.0
C225 C 0.53073 0.16098 0.11872 0.0
C226 C 0.563 0.17402 0.16464 0.0
C227 C 0.53005 0.12651 0.0812 0.0
C228 C 0.58422 0.06198 1.01221 0.0
H229 H 0.5039 0.91021 0.79776 0.0
H230 H 0.50361 0.97258 0.85217 0.0
H231 H 0.60203 0.02465 0.94633 0.0
H232 H 0.61988 0.1601 0.2112 0.0
H233 H 0.61882 0.09997 0.14829 0.0
H234 H 0.51969 0.04969 0.0521 0.0
C235 C 0.52876 0.95607 0.86283 0.0
C236 C 0.58407 0.02961 0.96941 0.0
C237 C 0.52885 0.92053 0.83051 0.0
C238 C 0.59457 0.15079 0.17624 0.0
C239 C 0.59392 0.11653 0.13916 0.0
C240 C 0.53756 0.04481 0.02878 0.0
C241 C 0.56071 0.96924 0.9114 0.0
C242 C 0.56064 1.00436 0.95562 0.0
C243 C 0.56162 0.10446 0.08898 0.0
C244 C 0.56108 0.06998 0.04284 0.0
H245 H 0.6177 0.89399 0.90112 0.0
H246 H 0.61777 0.95633 0.95803 0.0
H247 H 0.51947 0.99335 0.97814 0.0
H248 H 0.50593 0.17852 0.10761 0.0
H249 H 0.50464 0.1182 0.04294 0.0
C250 C 0.06809 0.92189 0.15436 0.0
C251 C 0.0415 0.90095 0.10631 0.0
C252 C 0.07091 0.95554 0.12776 0.0
C253 C 0.045 1.00313 0.94512 0.0
H254 H 0.07663 0.08903 0.07161 0.0
C255 C 0.04741 0.14713 0.83071 0.0
C256 C 0.07557 0.16609 0.87924 0.0
C257 C 0.04337 0.11364 0.85551 0.0
C258 C 0.06812 0.0651 0.03561 0.0
H259 H 0.99558 0.90019 0.99488 0.0
H260 H 0.99969 0.95895 0.94978 0.0
H261 H 0.06834 0.03495 0.12367 0.0
H262 H 0.12282 0.16355 0.98931 0.0
H263 H 0.11637 0.10524 0.03132 0.0
H264 H 0.0447 0.03345 0.857 0.0
C265 C 0.01919 0.94906 1.00689 0.0
C266 C 0.06337 0.03403 0.06562 0.0
C267 C 0.01659 0.91551 0.03312 0.0
C268 C 0.10071 0.14969 0.95069 0.0
C269 C 0.09678 0.11645 0.97521 0.0
C270 C 0.04967 0.03428 0.91505 0.0
C271 C 0.04704 0.96897 0.05276 0.0
C272 C 0.05179 1.00252 0.0209 0.0
C273 C 0.06744 0.09862 0.9292 0.0
C274 C 0.06153 0.06559 0.96002 0.0
H275 H 0.08791 0.91116 0.21068 0.0
H276 H 0.09279 0.96999 0.16479 0.0
H277 H 0.03668 0.97917 0.90915 0.0
H278 H 0.02734 0.1594 0.77586 0.0
H279 H 0.02043 0.10063 0.81851 0.0
C280 C 0.4387 0.77071 0.72793 0.0
C281 C 0.46088 0.77651 0.69908 0.0
C282 C 0.40225 0.77186 0.67956 0.0
C283 C 0.32945 0.80726 0.4887 0.0
H284 H 0.27884 0.73902 0.52168 0.0
C285 C 0.18343 0.7939 0.27315 0.0
C286 C 0.16098 0.79047 0.30284 0.0
C287 C 0.21994 0.7924 0.3212 0.0
C288 C 0.29249 0.75856 0.51209 0.0
H289 H 0.46195 0.78735 0.59603 0.0
H290 H 0.39884 0.78866 0.512 0.0
H291 H 0.34242 0.73534 0.6056 0.0
H292 H 0.15967 0.78306 0.40701 0.0
H293 H 0.22305 0.78064 0.49034 0.0
H294 H 0.2795 0.83028 0.39486 0.0
C295 C 0.40938 0.78399 0.57221 0.0
C296 C 0.32901 0.75648 0.56036 0.0
C297 C 0.44574 0.78296 0.62052 0.0
C298 C 0.17602 0.78576 0.38188 0.0
C299 C 0.2125 0.7841 0.4298 0.0
C300 C 0.29296 0.80923 0.44028 0.0
C301 C 0.38703 0.77875 0.60103 0.0
C302 C 0.34804 0.78082 0.54943 0.0
C303 C 0.23499 0.78724 0.40014 0.0
C304 C 0.27396 0.78497 0.45139 0.0
H305 H 0.44935 0.7658 0.78812 0.0
H306 H 0.3859 0.76812 0.7041 0.0
H307 H 0.34298 0.82695 0.47917 0.0
H308 H 0.1729 0.79745 0.21264 0.0
H309 H 0.23649 0.79455 0.29628 0.0
C310 C 0.23683 0.28952 0.64049 0.0
C311 C 0.20477 0.2771 0.58894 0.0
C312 C 0.26251 0.29214 0.61935 0.0
C313 C 0.29078 0.25764 0.47577 0.0
H314 H 0.34461 0.34004 0.54601 0.0
C315 C 0.38398 0.28442 0.36135 0.0
C316 C 0.41599 0.29702 0.41259 0.0
C317 C 0.35836 0.28187 0.38269 0.0
C318 C 0.33019 0.31652 0.52648 0.0
H319 H 0.17463 0.25886 0.47331 0.0
H320 H 0.2191 0.26329 0.43691 0.0
H321 H 0.3004 0.33603 0.58377 0.0
H322 H 0.44609 0.3157 0.52787 0.0
H323 H 0.40174 0.31132 0.56468 0.0
H324 H 0.32058 0.23811 0.41853 0.0
C325 C 0.22481 0.27032 0.49435 0.0
C326 C 0.3047 0.31422 0.54827 0.0
C327 C 0.19916 0.26776 0.51539 0.0
C328 C 0.42159 0.30664 0.48603 0.0
C329 C 0.39601 0.30412 0.50731 0.0
C330 C 0.31627 0.25993 0.454 0.0
C331 C 0.25699 0.2824 0.54598 0.0
C332 C 0.28452 0.28476 0.52323 0.0
C333 C 0.36389 0.29181 0.456 0.0
C334 C 0.33643 0.28941 0.47896 0.0
H335 H 0.24249 0.29653 0.6979 0.0
H336 H 0.28704 0.30112 0.66121 0.0
H337 H 0.27634 0.23413 0.45621 0.0
H338 H 0.37832 0.2772 0.30403 0.0
H339 H 0.33386 0.27274 0.34103 0.0
C340 C 0.94661 0.28266 0.62447 0.0
C341 C 0.96217 0.27691 0.70334 0.0
C342 C 0.91015 0.28393 0.57725 0.0
C343 C 0.82993 0.2583 0.56915 0.0
H344 H 0.78048 0.33106 0.40179 0.0
C345 C 0.67676 0.28727 0.38901 0.0
C346 C 0.66211 0.29126 0.30994 0.0
C347 C 0.71319 0.28585 0.43749 0.0
C348 C 0.7939 0.31031 0.44777 0.0
H349 H 0.9513 0.26761 0.79407 0.0
H350 H 0.88764 0.27032 0.71184 0.0
H351 H 0.84402 0.32749 0.48527 0.0
H352 H 0.67463 0.29718 0.22024 0.0
H353 H 0.73801 0.29469 0.30468 0.0
H354 H 0.77965 0.24133 0.53169 0.0
C355 C 0.90375 0.27337 0.6863 0.0
C356 C 0.83043 0.3082 0.49571 0.0
C357 C 0.94031 0.27198 0.7336 0.0
C358 C 0.68484 0.29423 0.28076 0.0
C359 C 0.72125 0.29295 0.32929 0.0
C360 C 0.79335 0.26051 0.52131 0.0
C361 C 0.88811 0.27963 0.60747 0.0
C362 C 0.84902 0.28207 0.55694 0.0
C363 C 0.73595 0.28853 0.40827 0.0
C364 C 0.77486 0.28647 0.45984 0.0
H365 H 0.96256 0.28634 0.5989 0.0
H366 H 0.89927 0.28807 0.51678 0.0
H367 H 0.84334 0.23745 0.61492 0.0
H368 H 0.66015 0.28491 0.4137 0.0
H369 H 0.72349 0.28292 0.49805 0.0
C370 C 0.88064 0.81301 0.36842 0.0
C371 C 0.91558 0.79362 0.40988 0.0
C372 C 0.8553 0.81118 0.39082 0.0
C373 C 0.84663 0.78807 0.55766 0.0
H374 H 0.74908 0.78439 0.40624 0.0
C375 C 0.74206 0.76076 0.63855 0.0
C376 C 0.70707 0.77999 0.5969 0.0
C377 C 0.76744 0.76273 0.6163 0.0
C378 C 0.77609 0.78588 0.44947 0.0
H379 H 0.95084 0.75711 0.50828 0.0
H380 H 0.90668 0.75331 0.54626 0.0
H381 H 0.79282 0.78682 0.36634 0.0
H382 H 0.67176 0.81643 0.49841 0.0
H383 H 0.71598 0.82049 0.46073 0.0
H384 H 0.8299 0.78713 0.64079 0.0
C385 C 0.8989 0.77036 0.49671 0.0
C386 C 0.8013 0.78727 0.42646 0.0
C387 C 0.92423 0.77214 0.47423 0.0
C388 C 0.69842 0.80151 0.5326 0.0
C389 C 0.72377 0.80344 0.51029 0.0
C390 C 0.82142 0.78669 0.58067 0.0
C391 C 0.86403 0.78994 0.45554 0.0
C392 C 0.83702 0.78838 0.48016 0.0
C393 C 0.75869 0.78396 0.55156 0.0
C394 C 0.7857 0.78558 0.52697 0.0
H395 H 0.87272 0.82953 0.31811 0.0
H396 H 0.82892 0.82697 0.35787 0.0
H397 H 0.87364 0.78955 0.60088 0.0
H398 H 0.75 0.74422 0.68883 0.0
H399 H 0.79384 0.74702 0.64935 0.0
C400 C 0.44512 0.73691 0.12742 0.0
C401 C 0.4679 0.71451 0.1049 0.0
C402 C 0.41831 0.72219 0.12955 0.0
C403 C 0.36925 0.68228 0.15196 0.0
H404 H 0.31131 0.63294 0.96625 0.0
C405 C 0.22907 0.66679 0.07723 0.0
C406 C 0.20341 0.68004 1.00353 0.0
C407 C 0.26474 0.65756 0.09672 0.0
C408 C 0.32729 0.64646 0.01866 0.0
H409 H 0.48186 0.65825 0.07187 0.0
H410 H 0.43457 0.63258 0.07489 0.0
H411 H 0.36969 0.64351 0.99374 0.0
H412 H 0.19474 0.69057 0.89078 0.0
H413 H 0.25697 0.67603 0.92539 0.0
H414 H 0.32602 0.68794 0.17432 0.0
C415 C 0.43735 0.66169 0.09009 0.0
C416 C 0.36093 0.65212 0.03488 0.0
C417 C 0.46435 0.67642 0.08824 0.0
C418 C 0.21393 0.68121 0.94844 0.0
C419 C 0.24963 0.67229 0.9681 0.0
C420 C 0.33561 0.6768 0.13563 0.0
C421 C 0.41355 0.68471 0.10909 0.0
C422 C 0.38165 0.67146 0.10024 0.0
C423 C 0.2756 0.66171 0.0432 0.0
C424 C 0.31369 0.66013 0.06736 0.0
H425 H 0.44666 0.7665 0.13937 0.0
H426 H 0.40006 0.74091 0.14312 0.0
H427 H 0.38485 0.69672 0.20337 0.0
H428 H 0.22202 0.66567 0.12131 0.0
H429 H 0.284 0.64884 0.1547 0.0
C430 C 0.18965 0.31841 0.98853 0.0
C431 C 0.17816 0.28346 0.97754 0.0
C432 C 0.22384 0.32008 1.00206 0.0
C433 C 0.31094 0.26233 0.04847 0.0
H434 H 0.31018 0.33131 0.90825 0.0
C435 C 0.43179 0.2543 1.00799 0.0
C436 C 0.44417 0.28885 0.02153 0.0
C437 C 0.39723 0.25334 0.99273 0.0
C438 C 0.31075 0.31195 0.94769 0.0
H439 H 0.1937 0.22292 0.97903 0.0
H440 H 0.25332 0.22567 1.00409 0.0
H441 H 0.25678 0.33253 0.91817 0.0
H442 H 0.42984 0.34946 0.02234 0.0
H443 H 0.36946 0.34794 0.99404 0.0
H444 H 0.36485 0.24168 0.07787 0.0
C445 C 0.23629 0.25181 1.00192 0.0
C446 C 0.28037 0.31294 0.95409 0.0
C447 C 0.20217 0.2502 0.98763 0.0
C448 C 0.42066 0.32252 1.01169 0.0
C449 C 0.38613 0.32161 0.99563 0.0
C450 C 0.34127 0.26129 0.04197 0.0
C451 C 0.24691 0.28678 1.00566 0.0
C452 C 0.28015 0.28811 1.00449 0.0
C453 C 0.3747 0.28695 0.99001 0.0
C454 C 0.34146 0.28603 0.99142 0.0
H455 H 0.1714 0.3444 0.98027 0.0
H456 H 0.23162 0.34741 1.00587 0.0
H457 H 0.31159 0.243 0.08807 0.0
H458 H 0.44966 0.228 0.01616 0.0
H459 H 0.38882 0.22626 0.98749 0.0
C460 C 0.73957 0.1717 0.11015 0.0
C461 C 0.71392 0.1801 0.03386 0.0
C462 C 0.77555 0.16412 0.13172 0.0
C463 C 0.845 0.18561 0.16547 0.0
H464 H 0.88209 0.1442 0.03238 0.0
C465 C 0.95184 0.24468 0.14403 0.0
C466 C 0.97556 0.22119 0.12546 0.0
C467 C 0.9258 0.23017 0.14973 0.0
C468 C 0.87254 0.15518 0.07124 0.0
H469 H 0.70586 0.18383 0.91964 0.0
H470 H 0.76849 0.17219 0.95744 0.0
H471 H 0.82467 0.13206 1.00802 0.0
H472 H 0.99205 0.16349 0.10337 0.0
H473 H 0.94625 0.13809 0.11306 0.0
H474 H 0.89255 0.20926 0.22787 0.0
C475 C 0.76095 0.17094 1.00071 0.0
C476 C 0.8394 0.1486 0.05669 0.0
C477 C 0.72497 0.17819 0.97905 0.0
C478 C 0.97378 0.18242 0.11658 0.0
C479 C 0.94762 0.16787 0.12219 0.0
C480 C 0.87818 0.19196 0.18026 0.0
C481 C 0.78672 0.16512 0.07766 0.0
C482 C 0.82461 0.16506 0.10179 0.0
C483 C 0.9228 0.19179 0.13701 0.0
C484 C 0.89164 0.17819 0.13144 0.0
H485 H 0.7321 0.17308 0.15404 0.0
H486 H 0.79468 0.15909 0.19129 0.0
H487 H 0.83447 0.19893 0.20129 0.0
H488 H 0.95205 0.27476 0.15 0.0
H489 H 0.90675 0.24957 0.15986 0.0
C490 C 0.91886 0.82436 0.01547 0.0
C491 C 0.942 0.7907 0.02275 0.0
C492 C 0.8846 0.82349 1.00127 0.0
C493 C 0.83969 0.76222 0.04614 0.0
H494 H 0.75555 0.83486 0.92688 0.0
C495 C 0.70057 0.75025 0.99042 0.0
C496 C 0.67647 0.78334 0.98107 0.0
C497 C 0.73478 0.75216 1.0056 0.0
C498 C 0.77905 0.81487 0.96162 0.0
H499 H 0.94703 0.72994 0.01516 0.0
H500 H 0.88659 0.72825 0.98953 0.0
H501 H 0.80876 0.83428 0.91671 0.0
H502 H 0.66968 0.84422 0.98629 0.0
H503 H 0.73006 0.84777 0.01363 0.0
H504 H 0.81006 0.74284 0.09118 0.0
C505 C 0.89513 0.75531 0.9954 0.0
C506 C 0.80934 0.81426 0.95507 0.0
C507 C 0.92943 0.75625 1.00885 0.0
C508 C 0.68798 0.81835 0.99392 0.0
C509 C 0.72228 0.82034 1.00843 0.0
C510 C 0.80943 0.76288 0.05279 0.0
C511 C 0.87301 0.78885 0.99491 0.0
C512 C 0.83992 0.78782 0.99702 0.0
C513 C 0.74544 0.78729 1.01108 0.0
C514 C 0.77874 0.78911 1.0104 0.0
H515 H 0.92818 0.85124 0.02649 0.0
H516 H 0.86828 0.84977 1.00144 0.0
H517 H 0.86316 0.74216 0.08069 0.0
H518 H 0.69212 0.72292 0.98041 0.0
H519 H 0.75183 0.72621 1.00698 0.0
loop_
_geom_bond_atom_site_label_1
_geom_bond_atom_site_label_2
_geom_bond_distance
_geom_bond_site_symmetry_2
_ccdc_geom_bond_type
Dy0 O3 2.307 . S
Dy0 O5 2.395 . S
Dy0 O6 2.379 . S
Dy0 O8 2.339 . S
Dy0 O10 2.298 1_455 S
Dy0 O14 2.275 . S
Dy0 C22 2.738 1_455 S
Dy1 O4 2.298 . S
Dy1 O7 2.275 . S
Dy1 O9 2.307 1_455 S
Dy1 O11 2.395 . S
Dy1 O12 2.379 . S
Dy1 O15 2.339 . S
Dy1 C31 2.738 . S
C2 O14 1.254 . S
C2 O15 1.257 . S
O3 Dy0 2.307 . S
O3 C13 1.266 . S
O4 Dy1 2.298 . S
O4 C13 1.236 . S
O5 Dy0 2.395 . S
O5 C22 1.255 1_455 S
O6 Dy0 2.379 . S
O6 C22 1.249 1_455 S
O7 Dy1 2.275 . S
O7 C23 1.254 . S
O8 Dy0 2.339 . S
O8 C23 1.257 . S
O9 Dy1 2.307 1_655 S
O9 C24 1.266 . S
O10 Dy0 2.298 1_655 S
O10 C24 1.236 . S
O11 Dy1 2.395 . S
O11 C31 1.255 . S
O12 Dy1 2.379 . S
O12 C31 1.249 . S
C13 O3 1.266 . S
C13 O4 1.236 . S
O14 Dy0 2.275 . S
O14 C2 1.254 . S
O15 Dy1 2.339 . S
O15 C2 1.257 . S
C16 C19 1.344 . S
C16 C20 1.328 . S
C16 C22 1.516 . S
C17 C18 1.304 . S
C17 C21 1.323 . S
C18 C17 1.304 . S
C18 C19 1.371 . S
C18 H32 0.930 . S
C19 C16 1.344 . S
C19 C18 1.371 . S
C19 H33 0.931 . S
C20 C16 1.328 . S
C20 C21 1.433 . S
C20 H34 0.931 . S
C21 C17 1.323 . S
C21 C20 1.433 . S
C21 H35 0.933 . S
C22 Dy0 2.738 1_655 S
C22 O5 1.255 1_655 S
C22 O6 1.249 1_655 S
C22 C16 1.516 . S
C23 O7 1.254 . S
C23 O8 1.257 . S
C24 O9 1.266 . S
C24 O10 1.236 . S
C25 C28 1.344 . S
C25 C29 1.328 1_554 S
C25 C31 1.516 . S
C26 C27 1.304 1_556 S
C26 C30 1.323 . S
C27 C26 1.304 1_554 S
C27 C28 1.371 . S
C27 H36 0.930 . S
C28 C25 1.344 . S
C28 C27 1.371 . S
C28 H37 0.931 . S
C29 C25 1.328 1_556 S
C29 C30 1.433 . S
C29 H38 0.931 . S
C30 C26 1.323 . S
C30 C29 1.433 . S
C30 H39 0.933 . S
C31 Dy1 2.738 . S
C31 O11 1.255 . S
C31 O12 1.249 . S
C31 C25 1.516 . S
H32 C18 0.930 . S
H33 C19 0.931 . S
H34 C20 0.931 . S
H35 C21 0.933 . S
H36 C27 0.930 . S
H37 C28 0.931 . S
H38 C29 0.931 . S
H39 C30 0.933 . S
Dy40 O43 2.307 . S
Dy40 O45 2.395 . S
Dy40 O46 2.379 . S
Dy40 O48 2.339 . S
Dy40 O50 2.298 . S
Dy40 O54 2.275 . S
Dy40 C62 2.738 . S
Dy41 O44 2.298 . S
Dy41 O47 2.275 . S
Dy41 O49 2.307 . S
Dy41 O51 2.395 . S
Dy41 O52 2.379 . S
Dy41 O55 2.339 . S
Dy41 C71 2.738 . S
C42 O54 1.254 . S
C42 O55 1.257 . S
O43 Dy40 2.307 . S
O43 C53 1.266 . S
O44 Dy41 2.298 . S
O44 C53 1.236 . S
O45 Dy40 2.395 . S
O45 C62 1.255 . S
O46 Dy40 2.379 . S
O46 C62 1.249 . S
O47 Dy41 2.275 . S
O47 C63 1.254 . S
O48 Dy40 2.339 . S
O48 C63 1.257 . S
O49 Dy41 2.307 . S
O49 C64 1.266 . S
O50 Dy40 2.298 . S
O50 C64 1.236 . S
O51 Dy41 2.395 . S
O51 C71 1.255 . S
O52 Dy41 2.379 . S
O52 C71 1.249 . S
C53 O43 1.266 . S
C53 O44 1.236 . S
O54 Dy40 2.275 . S
O54 C42 1.254 . S
O55 Dy41 2.339 . S
O55 C42 1.257 . S
C56 C59 1.344 . S
C56 C60 1.328 . S
C56 C62 1.516 . S
C57 C58 1.304 . S
C57 C61 1.323 . S
C58 C57 1.304 . S
C58 C59 1.371 . S
C58 H72 0.930 . S
C59 C56 1.344 . S
C59 C58 1.371 . S
C59 H73 0.931 . S
C60 C56 1.328 . S
C60 C61 1.433 . S
C60 H74 0.931 . S
C61 C57 1.323 . S
C61 C60 1.433 . S
C61 H75 0.933 . S
C62 Dy40 2.738 . S
C62 O45 1.255 . S
C62 O46 1.249 . S
C62 C56 1.516 . S
C63 O47 1.254 . S
C63 O48 1.257 . S
C64 O49 1.266 . S
C64 O50 1.236 . S
C65 C68 1.344 . S
C65 C69 1.328 1_554 S
C65 C71 1.516 . S
C66 C67 1.304 1_556 S
C66 C70 1.323 . S
C67 C66 1.304 1_554 S
C67 C68 1.371 . S
C67 H76 0.930 . S
C68 C65 1.344 . S
C68 C67 1.371 . S
C68 H77 0.931 . S
C69 C65 1.328 1_556 S
C69 C70 1.433 . S
C69 H78 0.931 . S
C70 C66 1.323 . S
C70 C69 1.433 . S
C70 H79 0.933 . S
C71 Dy41 2.738 . S
C71 O51 1.255 . S
C71 O52 1.249 . S
C71 C65 1.516 . S
H72 C58 0.930 . S
H73 C59 0.931 . S
H74 C60 0.931 . S
H75 C61 0.933 . S
H76 C67 0.930 . S
H77 C68 0.931 . S
H78 C69 0.931 . S
H79 C70 0.933 . S
Dy80 O83 2.307 . S
Dy80 O85 2.395 . S
Dy80 O86 2.379 . S
Dy80 O88 2.339 . S
Dy80 O90 2.298 1_455 S
Dy80 O94 2.275 . S
Dy80 C102 2.738 . S
Dy81 O84 2.298 . S
Dy81 O87 2.275 . S
Dy81 O89 2.307 . S
Dy81 O91 2.395 . S
Dy81 O92 2.379 . S
Dy81 O95 2.339 . S
Dy81 C111 2.738 . S
C82 O94 1.254 . S
C82 O95 1.257 . S
O83 Dy80 2.307 . S
O83 C93 1.266 . S
O84 Dy81 2.298 . S
O84 C93 1.236 . S
O85 Dy80 2.395 . S
O85 C102 1.255 . S
O86 Dy80 2.379 . S
O86 C102 1.249 . S
O87 Dy81 2.275 . S
O87 C103 1.254 . S
O88 Dy80 2.339 . S
O88 C103 1.257 . S
O89 Dy81 2.307 . S
O89 C104 1.266 1_455 S
O90 Dy80 2.298 1_655 S
O90 C104 1.236 . S
O91 Dy81 2.395 . S
O91 C111 1.255 . S
O92 Dy81 2.379 . S
O92 C111 1.249 . S
C93 O83 1.266 . S
C93 O84 1.236 . S
O94 Dy80 2.275 . S
O94 C82 1.254 . S
O95 Dy81 2.339 . S
O95 C82 1.257 . S
C96 C99 1.344 . S
C96 C100 1.328 1_556 S
C96 C102 1.516 1_655 S
C97 C98 1.304 1_554 S
C97 C101 1.323 . S
C98 C97 1.304 1_556 S
C98 C99 1.371 . S
C98 H112 0.930 . S
C99 C96 1.344 . S
C99 C98 1.371 . S
C99 H113 0.931 . S
C100 C96 1.328 1_554 S
C100 C101 1.433 . S
C100 H114 0.931 . S
C101 C97 1.323 . S
C101 C100 1.433 . S
C101 H115 0.933 . S
C102 Dy80 2.738 . S
C102 O85 1.255 . S
C102 O86 1.249 . S
C102 C96 1.516 1_455 S
C103 O87 1.254 . S
C103 O88 1.257 . S
C104 O89 1.266 1_655 S
C104 O90 1.236 . S
C105 C108 1.344 . S
C105 C109 1.328 . S
C105 C111 1.516 . S
C106 C107 1.304 . S
C106 C110 1.323 . S
C107 C106 1.304 . S
C107 C108 1.371 . S
C107 H116 0.930 . S
C108 C105 1.344 . S
C108 C107 1.371 . S
C108 H117 0.931 . S
C109 C105 1.328 . S
C109 C110 1.433 . S
C109 H118 0.931 . S
C110 C106 1.323 . S
C110 C109 1.433 . S
C110 H119 0.933 . S
C111 Dy81 2.738 . S
C111 O91 1.255 . S
C111 O92 1.249 . S
C111 C105 1.516 . S
H112 C98 0.930 . S
H113 C99 0.931 . S
H114 C100 0.931 . S
H115 C101 0.933 . S
H116 C107 0.930 . S
H117 C108 0.931 . S
H118 C109 0.931 . S
H119 C110 0.933 . S
Dy120 O123 2.307 . S
Dy120 O125 2.395 . S
Dy120 O126 2.379 . S
Dy120 O128 2.339 . S
Dy120 O130 2.298 . S
Dy120 O134 2.275 . S
Dy120 C142 2.738 . S
Dy121 O124 2.298 . S
Dy121 O127 2.275 . S
Dy121 O129 2.307 . S
Dy121 O131 2.395 . S
Dy121 O132 2.379 . S
Dy121 O135 2.339 . S
Dy121 C151 2.738 . S
C122 O134 1.254 . S
C122 O135 1.257 . S
O123 Dy120 2.307 . S
O123 C133 1.266 . S
O124 Dy121 2.298 . S
O124 C133 1.236 . S
O125 Dy120 2.395 . S
O125 C142 1.255 . S
O126 Dy120 2.379 . S
O126 C142 1.249 . S
O127 Dy121 2.275 . S
O127 C143 1.254 . S
O128 Dy120 2.339 . S
O128 C143 1.257 . S
O129 Dy121 2.307 . S
O129 C144 1.266 . S
O130 Dy120 2.298 . S
O130 C144 1.236 . S
O131 Dy121 2.395 . S
O131 C151 1.255 . S
O132 Dy121 2.379 . S
O132 C151 1.249 . S
C133 O123 1.266 . S
C133 O124 1.236 . S
O134 Dy120 2.275 . S
O134 C122 1.254 . S
O135 Dy121 2.339 . S
O135 C122 1.257 . S
C136 C139 1.344 . S
C136 C140 1.328 1_556 S
C136 C142 1.516 . S
C137 C138 1.304 1_554 S
C137 C141 1.323 . S
C138 C137 1.304 1_556 S
C138 C139 1.371 . S
C138 H152 0.930 . S
C139 C136 1.344 . S
C139 C138 1.371 . S
C139 H153 0.931 . S
C140 C136 1.328 1_554 S
C140 C141 1.433 . S
C140 H154 0.931 . S
C141 C137 1.323 . S
C141 C140 1.433 . S
C141 H155 0.933 . S
C142 Dy120 2.738 . S
C142 O125 1.255 . S
C142 O126 1.249 . S
C142 C136 1.516 . S
C143 O127 1.254 . S
C143 O128 1.257 . S
C144 O129 1.266 . S
C144 O130 1.236 . S
C145 C148 1.344 . S
C145 C149 1.328 . S
C145 C151 1.516 . S
C146 C147 1.304 . S
C146 C150 1.323 . S
C147 C146 1.304 . S
C147 C148 1.371 . S
C147 H156 0.930 . S
C148 C145 1.344 . S
C148 C147 1.371 . S
C148 H157 0.931 . S
C149 C145 1.328 . S
C149 C150 1.433 . S
C149 H158 0.931 . S
C150 C146 1.323 . S
C150 C149 1.433 . S
C150 H159 0.933 . S
C151 Dy121 2.738 . S
C151 O131 1.255 . S
C151 O132 1.249 . S
C151 C145 1.516 . S
H152 C138 0.930 . S
H153 C139 0.931 . S
H154 C140 0.931 . S
H155 C141 0.933 . S
H156 C147 0.930 . S
H157 C148 0.931 . S
H158 C149 0.931 . S
H159 C150 0.933 . S
C160 C161 1.349 . S
C160 C162 1.327 . S
C160 H185 0.950 . S
C161 C160 1.349 . S
C161 C177 1.349 . S
C162 C160 1.327 . S
C162 C181 1.429 . S
C162 H186 0.950 . S
C163 C180 1.574 . S
C163 C182 1.368 1_554 S
C163 H187 0.949 . S
H164 C168 0.951 1_655 S
C165 C166 1.349 . S
C165 C167 1.327 . S
C165 H188 0.950 . S
C166 C165 1.349 . S
C166 C178 1.349 . S
C167 C165 1.327 . S
C167 C183 1.429 . S
C167 H189 0.950 . S
C168 H164 0.951 1_455 S
C168 C176 1.574 . S
C168 C184 1.368 1_556 S
H169 C177 0.950 . S
H170 C175 0.950 1_554 S
H171 C176 0.949 . S
H172 C178 0.936 1_655 S
H173 C179 0.936 1_656 S
H174 C180 0.949 . S
C175 H170 0.950 1_556 S
C175 C177 1.327 . S
C175 C181 1.429 . S
C176 C168 1.574 . S
C176 H171 0.949 . S
C176 C182 1.368 . S
C177 C161 1.349 . S
C177 H169 0.950 . S
C177 C175 1.327 . S
C178 C166 1.349 . S
C178 H172 0.936 1_455 S
C178 C179 1.327 . S
C179 H173 0.936 1_454 S
C179 C178 1.327 . S
C179 C183 1.429 . S
C180 C163 1.574 . S
C180 H174 0.949 . S
C180 C184 1.368 . S
C181 C162 1.429 . S
C181 C175 1.429 . S
C181 C182 1.523 . S
C182 C163 1.368 1_556 S
C182 C176 1.368 . S
C182 C181 1.523 . S
C183 C167 1.429 . S
C183 C179 1.429 . S
C183 C184 1.523 . S
C184 C168 1.368 1_554 S
C184 C180 1.368 . S
C184 C183 1.523 . S
H185 C160 0.950 . S
H186 C162 0.950 . S
H187 C163 0.949 . S
H188 C165 0.950 . S
H189 C167 0.950 . S
C190 C191 1.349 . S
C190 C192 1.327 . S
C190 H215 0.950 . S
C191 C190 1.349 . S
C191 C207 1.349 . S
C192 C190 1.327 . S
C192 C211 1.429 . S
C192 H216 0.950 . S
C193 C210 1.574 . S
C193 C212 1.368 1_556 S
C193 H217 0.949 . S
H194 C198 0.949 . S
C195 C196 1.349 . S
C195 C197 1.327 . S
C195 H218 0.950 . S
C196 C195 1.349 . S
C196 C208 1.349 . S
C197 C195 1.327 . S
C197 C213 1.429 . S
C197 H219 0.950 . S
C198 H194 0.949 . S
C198 C206 1.574 . S
C198 C214 1.368 1_554 S
H199 C207 0.950 . S
H200 C205 0.950 1_556 S
H201 C206 0.949 . S
H202 C208 0.950 . S
H203 C209 0.950 1_554 S
H204 C210 0.949 . S
C205 H200 0.950 1_554 S
C205 C207 1.327 . S
C205 C211 1.429 . S
C206 C198 1.574 . S
C206 H201 0.949 . S
C206 C212 1.368 . S
C207 C191 1.349 . S
C207 H199 0.950 . S
C207 C205 1.327 . S
C208 C196 1.349 . S
C208 H202 0.950 . S
C208 C209 1.327 . S
C209 H203 0.950 1_556 S
C209 C208 1.327 . S
C209 C213 1.429 . S
C210 C193 1.574 . S
C210 H204 0.949 . S
C210 C214 1.368 . S
C211 C192 1.429 . S
C211 C205 1.429 . S
C211 C212 1.523 . S
C212 C193 1.368 1_554 S
C212 C206 1.368 . S
C212 C211 1.523 . S
C213 C197 1.429 . S
C213 C209 1.429 . S
C213 C214 1.523 . S
C214 C198 1.368 1_556 S
C214 C210 1.368 . S
C214 C213 1.523 . S
H215 C190 0.950 . S
H216 C192 0.950 . S
H217 C193 0.949 . S
H218 C195 0.950 . S
H219 C197 0.950 . S
C220 C221 1.349 . S
C220 C222 1.327 . S
C220 H245 0.950 . S
C221 C220 1.349 . S
C221 C237 1.349 . S
C222 C220 1.327 . S
C222 C241 1.429 . S
C222 H246 0.950 . S
C223 C240 1.574 1_566 S
C223 C242 1.368 . S
C223 H247 0.949 . S
H224 C228 0.949 . S
C225 C226 1.349 . S
C225 C227 1.327 . S
C225 H248 0.950 . S
C226 C225 1.349 . S
C226 C238 1.349 . S
C227 C225 1.327 . S
C227 C243 1.429 . S
C227 H249 0.950 . S
C228 H224 0.949 . S
C228 C236 1.574 1_544 S
C228 C244 1.368 . S
H229 C237 0.950 . S
H230 C235 0.950 . S
H231 C236 0.949 . S
H232 C238 0.950 . S
H233 C239 0.950 . S
H234 C240 0.949 . S
C235 H230 0.950 . S
C235 C237 1.327 . S
C235 C241 1.429 . S
C236 C228 1.574 1_566 S
C236 H231 0.949 . S
C236 C242 1.368 . S
C237 C221 1.349 . S
C237 H229 0.950 . S
C237 C235 1.327 . S
C238 C226 1.349 . S
C238 H232 0.950 . S
C238 C239 1.327 . S
C239 H233 0.950 . S
C239 C238 1.327 . S
C239 C243 1.429 . S
C240 C223 1.574 1_544 S
C240 H234 0.949 . S
C240 C244 1.368 . S
C241 C222 1.429 . S
C241 C235 1.429 . S
C241 C242 1.523 . S
C242 C223 1.368 . S
C242 C236 1.368 . S
C242 C241 1.523 . S
C243 C227 1.429 . S
C243 C239 1.429 . S
C243 C244 1.523 . S
C244 C228 1.368 . S
C244 C240 1.368 . S
C244 C243 1.523 . S
H245 C220 0.950 . S
H246 C222 0.950 . S
H247 C223 0.949 . S
H248 C225 0.950 . S
H249 C227 0.950 . S
C250 C251 1.349 . S
C250 C252 1.327 . S
C250 H275 0.950 . S
C251 C250 1.349 . S
C251 C267 1.349 . S
C252 C250 1.327 . S
C252 C271 1.429 . S
C252 H276 0.950 . S
C253 C270 1.574 1_565 S
C253 C272 1.368 1_556 S
C253 H277 0.944 1_455 S
H254 C258 0.949 . S
C255 C256 1.349 . S
C255 C257 1.327 . S
C255 H278 0.950 . S
C256 C255 1.349 . S
C256 C268 1.349 . S
C257 C255 1.327 . S
C257 C273 1.429 . S
C257 H279 0.950 . S
C258 H254 0.949 . S
C258 C266 1.574 1_545 S
C258 C274 1.368 1_554 S
H259 C267 0.950 1_655 S
H260 C265 0.950 1_656 S
H261 C266 0.949 . S
H262 C268 0.950 . S
H263 C269 0.950 1_554 S
H264 C270 0.949 . S
C265 H260 0.950 1_454 S
C265 C267 1.327 . S
C265 C271 1.429 . S
C266 C258 1.574 1_565 S
C266 H261 0.949 . S
C266 C272 1.368 . S
C267 C251 1.349 . S
C267 H259 0.950 1_455 S
C267 C265 1.327 . S
C268 C256 1.349 . S
C268 H262 0.950 . S
C268 C269 1.327 . S
C269 H263 0.950 1_556 S
C269 C268 1.327 . S
C269 C273 1.429 . S
C270 C253 1.574 1_545 S
C270 H264 0.949 . S
C270 C274 1.368 . S
C271 C252 1.429 . S
C271 C265 1.429 . S
C271 C272 1.523 . S
C272 C253 1.368 1_554 S
C272 C266 1.368 . S
C272 C271 1.523 . S
C273 C257 1.429 . S
C273 C269 1.429 . S
C273 C274 1.523 . S
C274 C258 1.368 1_556 S
C274 C270 1.368 . S
C274 C273 1.523 . S
H275 C250 0.950 . S
H276 C252 0.950 . S
H277 C253 0.944 1_655 S
H278 C255 0.950 . S
H279 C257 0.950 . S
C280 C281 1.349 . S
C280 C282 1.327 . S
C280 H305 0.950 . S
C281 C280 1.349 . S
C281 C297 1.349 . S
C282 C280 1.327 . S
C282 C301 1.429 . S
C282 H306 0.950 . S
C283 C300 1.574 . S
C283 C302 1.368 . S
C283 H307 0.949 . S
H284 C288 0.949 . S
C285 C286 1.349 . S
C285 C287 1.327 . S
C285 H308 0.950 . S
C286 C285 1.349 . S
C286 C298 1.349 . S
C287 C285 1.327 . S
C287 C303 1.429 . S
C287 H309 0.950 . S
C288 H284 0.949 . S
C288 C296 1.574 . S
C288 C304 1.368 . S
H289 C297 0.950 . S
H290 C295 0.950 . S
H291 C296 0.949 . S
H292 C298 0.950 . S
H293 C299 0.950 . S
H294 C300 0.949 . S
C295 H290 0.950 . S
C295 C297 1.327 . S
C295 C301 1.429 . S
C296 C288 1.574 . S
C296 H291 0.949 . S
C296 C302 1.368 . S
C297 C281 1.349 . S
C297 H289 0.950 . S
C297 C295 1.327 . S
C298 C286 1.349 . S
C298 H292 0.950 . S
C298 C299 1.327 . S
C299 H293 0.950 . S
C299 C298 1.327 . S
C299 C303 1.429 . S
C300 C283 1.574 . S
C300 H294 0.949 . S
C300 C304 1.368 . S
C301 C282 1.429 . S
C301 C295 1.429 . S
C301 C302 1.523 . S
C302 C283 1.368 . S
C302 C296 1.368 . S
C302 C301 1.523 . S
C303 C287 1.429 . S
C303 C299 1.429 . S
C303 C304 1.523 . S
C304 C288 1.368 . S
C304 C300 1.368 . S
C304 C303 1.523 . S
H305 C280 0.950 . S
H306 C282 0.950 . S
H307 C283 0.949 . S
H308 C285 0.950 . S
H309 C287 0.950 . S
C310 C311 1.349 . S
C310 C312 1.327 . S
C310 H335 0.950 . S
C311 C310 1.349 . S
C311 C327 1.349 . S
C312 C310 1.327 . S
C312 C331 1.429 . S
C312 H336 0.950 . S
C313 C330 1.574 . S
C313 C332 1.368 . S
C313 H337 0.949 . S
H314 C318 0.949 . S
C315 C316 1.349 . S
C315 C317 1.327 . S
C315 H338 0.950 . S
C316 C315 1.349 . S
C316 C328 1.349 . S
C317 C315 1.327 . S
C317 C333 1.429 . S
C317 H339 0.950 . S
C318 H314 0.949 . S
C318 C326 1.574 . S
C318 C334 1.368 . S
H319 C327 0.950 . S
H320 C325 0.950 . S
H321 C326 0.949 . S
H322 C328 0.950 . S
H323 C329 0.950 . S
H324 C330 0.949 . S
C325 H320 0.950 . S
C325 C327 1.327 . S
C325 C331 1.429 . S
C326 C318 1.574 . S
C326 H321 0.949 . S
C326 C332 1.368 . S
C327 C311 1.349 . S
C327 H319 0.950 . S
C327 C325 1.327 . S
C328 C316 1.349 . S
C328 H322 0.950 . S
C328 C329 1.327 . S
C329 H323 0.950 . S
C329 C328 1.327 . S
C329 C333 1.429 . S
C330 C313 1.574 . S
C330 H324 0.949 . S
C330 C334 1.368 . S
C331 C312 1.429 . S
C331 C325 1.429 . S
C331 C332 1.523 . S
C332 C313 1.368 . S
C332 C326 1.368 . S
C332 C331 1.523 . S
C333 C317 1.429 . S
C333 C329 1.429 . S
C333 C334 1.523 . S
C334 C318 1.368 . S
C334 C330 1.368 . S
C334 C333 1.523 . S
H335 C310 0.950 . S
H336 C312 0.950 . S
H337 C313 0.949 . S
H338 C315 0.950 . S
H339 C317 0.950 . S
C340 C341 1.349 . S
C340 C342 1.327 . S
C340 H365 0.950 . S
C341 C340 1.349 . S
C341 C357 1.349 . S
C342 C340 1.327 . S
C342 C361 1.429 . S
C342 H366 0.950 . S
C343 C360 1.574 . S
C343 C362 1.368 . S
C343 H367 0.949 . S
H344 C348 0.949 . S
C345 C346 1.349 . S
C345 C347 1.327 . S
C345 H368 0.950 . S
C346 C345 1.349 . S
C346 C358 1.349 . S
C347 C345 1.327 . S
C347 C363 1.429 . S
C347 H369 0.950 . S
C348 H344 0.949 . S
C348 C356 1.574 . S
C348 C364 1.368 . S
H349 C357 0.950 . S
H350 C355 0.950 . S
H351 C356 0.949 . S
H352 C358 0.950 . S
H353 C359 0.950 . S
H354 C360 0.949 . S
C355 H350 0.950 . S
C355 C357 1.327 . S
C355 C361 1.429 . S
C356 C348 1.574 . S
C356 H351 0.949 . S
C356 C362 1.368 . S
C357 C341 1.349 . S
C357 H349 0.950 . S
C357 C355 1.327 . S
C358 C346 1.349 . S
C358 H352 0.950 . S
C358 C359 1.327 . S
C359 H353 0.950 . S
C359 C358 1.327 . S
C359 C363 1.429 . S
C360 C343 1.574 . S
C360 H354 0.949 . S
C360 C364 1.368 . S
C361 C342 1.429 . S
C361 C355 1.429 . S
C361 C362 1.523 . S
C362 C343 1.368 . S
C362 C356 1.368 . S
C362 C361 1.523 . S
C363 C347 1.429 . S
C363 C359 1.429 . S
C363 C364 1.523 . S
C364 C348 1.368 . S
C364 C360 1.368 . S
C364 C363 1.523 . S
H365 C340 0.950 . S
H366 C342 0.950 . S
H367 C343 0.949 . S
H368 C345 0.950 . S
H369 C347 0.950 . S
C370 C371 1.349 . S
C370 C372 1.327 . S
C370 H395 0.950 . S
C371 C370 1.349 . S
C371 C387 1.349 . S
C372 C370 1.327 . S
C372 C391 1.429 . S
C372 H396 0.950 . S
C373 C390 1.574 . S
C373 C392 1.368 . S
C373 H397 0.949 . S
H374 C378 0.949 . S
C375 C376 1.349 . S
C375 C377 1.327 . S
C375 H398 0.950 . S
C376 C375 1.349 . S
C376 C388 1.349 . S
C377 C375 1.327 . S
C377 C393 1.429 . S
C377 H399 0.950 . S
C378 H374 0.949 . S
C378 C386 1.574 . S
C378 C394 1.368 . S
H379 C387 0.950 . S
H380 C385 0.950 . S
H381 C386 0.949 . S
H382 C388 0.950 . S
H383 C389 0.950 . S
H384 C390 0.949 . S
C385 H380 0.950 . S
C385 C387 1.327 . S
C385 C391 1.429 . S
C386 C378 1.574 . S
C386 H381 0.949 . S
C386 C392 1.368 . S
C387 C371 1.349 . S
C387 H379 0.950 . S
C387 C385 1.327 . S
C388 C376 1.349 . S
C388 H382 0.950 . S
C388 C389 1.327 . S
C389 H383 0.950 . S
C389 C388 1.327 . S
C389 C393 1.429 . S
C390 C373 1.574 . S
C390 H384 0.949 . S
C390 C394 1.368 . S
C391 C372 1.429 . S
C391 C385 1.429 . S
C391 C392 1.523 . S
C392 C373 1.368 . S
C392 C386 1.368 . S
C392 C391 1.523 . S
C393 C377 1.429 . S
C393 C389 1.429 . S
C393 C394 1.523 . S
C394 C378 1.368 . S
C394 C390 1.368 . S
C394 C393 1.523 . S
H395 C370 0.950 . S
H396 C372 0.950 . S
H397 C373 0.949 . S
H398 C375 0.950 . S
H399 C377 0.950 . S
C400 C401 1.349 1_556 S
C400 C402 1.327 . S
C400 H425 0.950 . S
C401 C400 1.349 1_554 S
C401 C417 1.349 . S
C402 C400 1.327 . S
C402 C421 1.429 1_556 S
C402 H426 0.950 . S
C403 C420 1.574 . S
C403 C422 1.368 . S
C403 H427 0.949 . S
H404 C408 0.949 . S
C405 C406 1.349 1_554 S
C405 C407 1.327 . S
C405 H428 0.950 . S
C406 C405 1.349 1_556 S
C406 C418 1.349 . S
C407 C405 1.327 . S
C407 C423 1.429 1_554 S
C407 H429 0.950 . S
C408 H404 0.949 . S
C408 C416 1.574 . S
C408 C424 1.368 . S
H409 C417 0.950 . S
H410 C415 0.950 . S
H411 C416 0.949 . S
H412 C418 0.950 . S
H413 C419 0.950 . S
H414 C420 0.949 . S
C415 H410 0.950 . S
C415 C417 1.327 . S
C415 C421 1.429 . S
C416 C408 1.574 . S
C416 H411 0.949 . S
C416 C422 1.368 1_556 S
C417 C401 1.349 . S
C417 H409 0.950 . S
C417 C415 1.327 . S
C418 C406 1.349 . S
C418 H412 0.950 . S
C418 C419 1.327 . S
C419 H413 0.950 . S
C419 C418 1.327 . S
C419 C423 1.429 . S
C420 C403 1.574 . S
C420 H414 0.949 . S
C420 C424 1.368 1_554 S
C421 C402 1.429 1_554 S
C421 C415 1.429 . S
C421 C422 1.523 . S
C422 C403 1.368 . S
C422 C416 1.368 1_554 S
C422 C421 1.523 . S
C423 C407 1.429 1_556 S
C423 C419 1.429 . S
C423 C424 1.523 . S
C424 C408 1.368 . S
C424 C420 1.368 1_556 S
C424 C423 1.523 . S
H425 C400 0.950 . S
H426 C402 0.950 . S
H427 C403 0.949 . S
H428 C405 0.950 . S
H429 C407 0.950 . S
C430 C431 1.349 . S
C430 C432 1.327 . S
C430 H455 0.950 . S
C431 C430 1.349 . S
C431 C447 1.349 . S
C432 C430 1.327 . S
C432 C451 1.429 . S
C432 H456 0.950 . S
C433 C450 1.574 . S
C433 C452 1.368 1_554 S
C433 H457 0.949 . S
H434 C438 0.949 . S
C435 C436 1.349 . S
C435 C437 1.327 . S
C435 H458 0.950 . S
C436 C435 1.349 . S
C436 C448 1.349 . S
C437 C435 1.327 . S
C437 C453 1.429 . S
C437 H459 0.950 . S
C438 H434 0.949 . S
C438 C446 1.574 . S
C438 C454 1.368 1_556 S
H439 C447 0.950 1_554 S
H440 C445 0.950 . S
H441 C446 0.949 . S
H442 C448 0.950 1_556 S
H443 C449 0.950 . S
H444 C450 0.949 . S
C445 H440 0.950 . S
C445 C447 1.327 1_554 S
C445 C451 1.429 1_554 S
C446 C438 1.574 . S
C446 H441 0.949 . S
C446 C452 1.368 . S
C447 C431 1.349 . S
C447 H439 0.950 1_556 S
C447 C445 1.327 1_556 S
C448 C436 1.349 . S
C448 H442 0.950 1_554 S
C448 C449 1.327 1_554 S
C449 H443 0.950 . S
C449 C448 1.327 1_556 S
C449 C453 1.429 1_556 S
C450 C433 1.574 . S
C450 H444 0.949 . S
C450 C454 1.368 . S
C451 C432 1.429 . S
C451 C445 1.429 1_556 S
C451 C452 1.523 . S
C452 C433 1.368 1_556 S
C452 C446 1.368 . S
C452 C451 1.523 . S
C453 C437 1.429 . S
C453 C449 1.429 1_554 S
C453 C454 1.523 . S
C454 C438 1.368 1_554 S
C454 C450 1.368 . S
C454 C453 1.523 . S
H455 C430 0.950 . S
H456 C432 0.950 . S
H457 C433 0.949 . S
H458 C435 0.950 . S
H459 C437 0.950 . S
C460 C461 1.349 . S
C460 C462 1.327 . S
C460 H485 0.950 . S
C461 C460 1.349 . S
C461 C477 1.349 . S
C462 C460 1.327 . S
C462 C481 1.429 . S
C462 H486 0.950 . S
C463 C480 1.574 . S
C463 C482 1.368 . S
C463 H487 0.949 . S
H464 C468 0.949 . S
C465 C466 1.349 . S
C465 C467 1.327 . S
C465 H488 0.950 . S
C466 C465 1.349 . S
C466 C478 1.349 . S
C467 C465 1.327 . S
C467 C483 1.429 . S
C467 H489 0.950 . S
C468 H464 0.949 . S
C468 C476 1.574 . S
C468 C484 1.368 . S
H469 C477 0.950 . S
H470 C475 0.950 . S
H471 C476 0.949 . S
H472 C478 0.950 . S
H473 C479 0.950 . S
H474 C480 0.949 . S
C475 H470 0.950 . S
C475 C477 1.327 . S
C475 C481 1.429 . S
C476 C468 1.574 . S
C476 H471 0.949 . S
C476 C482 1.368 1_554 S
C477 C461 1.349 . S
C477 H469 0.950 . S
C477 C475 1.327 . S
C478 C466 1.349 . S
C478 H472 0.950 . S
C478 C479 1.327 . S
C479 H473 0.950 . S
C479 C478 1.327 . S
C479 C483 1.429 . S
C480 C463 1.574 . S
C480 H474 0.949 . S
C480 C484 1.368 1_556 S
C481 C462 1.429 . S
C481 C475 1.429 . S
C481 C482 1.523 . S
C482 C463 1.368 . S
C482 C476 1.368 1_556 S
C482 C481 1.523 . S
C483 C467 1.429 . S
C483 C479 1.429 . S
C483 C484 1.523 . S
C484 C468 1.368 . S
C484 C480 1.368 1_554 S
C484 C483 1.523 . S
H485 C460 0.950 . S
H486 C462 0.950 . S
H487 C463 0.949 . S
H488 C465 0.950 . S
H489 C467 0.950 . S
C490 C491 1.349 1_556 S
C490 C492 1.327 . S
C490 H515 0.950 . S
C491 C490 1.349 1_554 S
C491 C507 1.349 . S
C492 C490 1.327 . S
C492 C511 1.429 1_556 S
C492 H516 0.950 . S
C493 C510 1.574 . S
C493 C512 1.368 . S
C493 H517 0.949 . S
H494 C498 0.949 . S
C495 C496 1.349 1_554 S
C495 C497 1.327 . S
C495 H518 0.950 . S
C496 C495 1.349 1_556 S
C496 C508 1.349 . S
C497 C495 1.327 . S
C497 C513 1.429 1_554 S
C497 H519 0.950 . S
C498 H494 0.949 . S
C498 C506 1.574 . S
C498 C514 1.368 . S
H499 C507 0.950 . S
H500 C505 0.950 . S
H501 C506 0.949 . S
H502 C508 0.950 . S
H503 C509 0.950 . S
H504 C510 0.949 . S
C505 H500 0.950 . S
C505 C507 1.327 . S
C505 C511 1.429 . S
C506 C498 1.574 . S
C506 H501 0.949 . S
C506 C512 1.368 1_556 S
C507 C491 1.349 . S
C507 H499 0.950 . S
C507 C505 1.327 . S
C508 C496 1.349 . S
C508 H502 0.950 . S
C508 C509 1.327 . S
C509 H503 0.950 . S
C509 C508 1.327 . S
C509 C513 1.429 . S
C510 C493 1.574 . S
C510 H504 0.949 . S
C510 C514 1.368 1_554 S
C511 C492 1.429 1_554 S
C511 C505 1.429 . S
C511 C512 1.523 . S
C512 C493 1.368 . S
C512 C506 1.368 1_554 S
C512 C511 1.523 . S
C513 C497 1.429 1_556 S
C513 C509 1.429 . S
C513 C514 1.523 . S
C514 C498 1.368 . S
C514 C510 1.368 1_556 S
C514 C513 1.523 . S
H515 C490 0.950 . S
H516 C492 0.950 . S
H517 C493 0.949 . S
H518 C495 0.950 . S
H519 C497 0.950 . S
C161 C103 1.895 . S
C166 C2 1.895 . S
C191 C63 2.473 . S
C196 C122 2.473 . S
C221 C143 1.895 . S
C226 C42 1.895 . S
C251 C23 2.473 . S
C256 C82 2.473 . S
C281 C144 1.587 . S
C286 C13 1.587 . S
C311 C106 1.580 . S
C316 C57 1.580 . S
C341 C104 1.586 . S
C346 C53 1.586 . S
C371 C17 1.580 . S
C376 C146 1.580 . S
C401 C137 0.487 . S
C406 C26 0.487 . S
C431 C93 1.672 . S
C436 C64 1.672 . S
C461 C66 0.487 . S
C466 C97 0.487 . S
C491 C24 1.672 . S
C496 C133 1.672 . S
