# Generated by pormake.
# Topology vda, (6)-cn, num edge types: 1
# Building blocks:
#     Node 0, Type 0, BuildingBlock: VOLQOD_clean_sbu_1, # of connection points: 6
#     Node 1, Type 0, BuildingBlock: VOLQOD_clean_sbu_1, # of connection points: 6
#     Node 2, Type 0, BuildingBlock: VOLQOD_clean_sbu_1, # of connection points: 6
#     Node 3, Type 0, BuildingBlock: VOLQOD_clean_sbu_1, # of connection points: 6
#     Node 4, Type 0, BuildingBlock: VOLQOD_clean_sbu_1, # of connection points: 6
#     Node 5, Type 0, BuildingBlock: VOLQOD_clean_sbu_1, # of connection points: 6
#     Node 6, Type 0, BuildingBlock: VOLQOD_clean_sbu_1, # of connection points: 6
#     Node 7, Type 0, BuildingBlock: VOLQOD_clean_sbu_1, # of connection points: 6
#     Node 8, Type 0, BuildingBlock: VOLQOD_clean_sbu_1, # of connection points: 6
#     Node 9, Type 0, BuildingBlock: VOLQOD_clean_sbu_1, # of connection points: 6
#     Node 10, Type 0, BuildingBlock: VOLQOD_clean_sbu_1, # of connection points: 6
#     Node 11, Type 0, BuildingBlock: VOLQOD_clean_sbu_1, # of connection points: 6
#     Node 12, Type 0, BuildingBlock: VOLQOD_clean_sbu_1, # of connection points: 6
#     Node 13, Type 0, BuildingBlock: VOLQOD_clean_sbu_1, # of connection points: 6
#     Node 14, Type 0, BuildingBlock: VOLQOD_clean_sbu_1, # of connection points: 6
#     Node 15, Type 0, BuildingBlock: VOLQOD_clean_sbu_1, # of connection points: 6
#     Node 16, Type 0, BuildingBlock: VOLQOD_clean_sbu_1, # of connection points: 6
#     Node 17, Type 0, BuildingBlock: VOLQOD_clean_sbu_1, # of connection points: 6
#     Node 18, Type 0, BuildingBlock: VOLQOD_clean_sbu_1, # of connection points: 6
#     Node 19, Type 0, BuildingBlock: VOLQOD_clean_sbu_1, # of connection points: 6
#     Node 20, Type 0, BuildingBlock: VOLQOD_clean_sbu_1, # of connection points: 6
#     Node 21, Type 0, BuildingBlock: VOLQOD_clean_sbu_1, # of connection points: 6
#     Node 22, Type 0, BuildingBlock: VOLQOD_clean_sbu_1, # of connection points: 6
#     Node 23, Type 0, BuildingBlock: VOLQOD_clean_sbu_1, # of connection points: 6
#     Node 24, Type 0, BuildingBlock: VOLQOD_clean_sbu_1, # of connection points: 6
#     Node 25, Type 0, BuildingBlock: VOLQOD_clean_sbu_1, # of connection points: 6
#     Node 26, Type 0, BuildingBlock: VOLQOD_clean_sbu_1, # of connection points: 6
#     Node 27, Type 0, BuildingBlock: VOLQOD_clean_sbu_1, # of connection points: 6
#     Node 28, Type 0, BuildingBlock: VOLQOD_clean_sbu_1, # of connection points: 6
#     Node 29, Type 0, BuildingBlock: VOLQOD_clean_sbu_1, # of connection points: 6
#     Node 30, Type 0, BuildingBlock: VOLQOD_clean_sbu_1, # of connection points: 6
#     Node 31, Type 0, BuildingBlock: VOLQOD_clean_sbu_1, # of connection points: 6
#     Edge 32, Type (0, 0), BuildingBlock: AJUNOK_clean_linker_0, # of connection points: 2
#     Edge 33, Type (0, 0), BuildingBlock: AJUNOK_clean_linker_0, # of connection points: 2
#     Edge 34, Type (0, 0), BuildingBlock: AJUNOK_clean_linker_0, # of connection points: 2
#     Edge 35, Type (0, 0), BuildingBlock: AJUNOK_clean_linker_0, # of connection points: 2
#     Edge 36, Type (0, 0), BuildingBlock: AJUNOK_clean_linker_0, # of connection points: 2
#     Edge 37, Type (0, 0), BuildingBlock: AJUNOK_clean_linker_0, # of connection points: 2
#     Edge 38, Type (0, 0), BuildingBlock: AJUNOK_clean_linker_0, # of connection points: 2
#     Edge 39, Type (0, 0), BuildingBlock: AJUNOK_clean_linker_0, # of connection points: 2
#     Edge 40, Type (0, 0), BuildingBlock: AJUNOK_clean_linker_0, # of connection points: 2
#     Edge 41, Type (0, 0), BuildingBlock: AJUNOK_clean_linker_0, # of connection points: 2
#     Edge 42, Type (0, 0), BuildingBlock: AJUNOK_clean_linker_0, # of connection points: 2
#     Edge 43, Type (0, 0), BuildingBlock: AJUNOK_clean_linker_0, # of connection points: 2
#     Edge 44, Type (0, 0), BuildingBlock: AJUNOK_clean_linker_0, # of connection points: 2
#     Edge 45, Type (0, 0), BuildingBlock: AJUNOK_clean_linker_0, # of connection points: 2
#     Edge 46, Type (0, 0), BuildingBlock: AJUNOK_clean_linker_0, # of connection points: 2
#     Edge 47, Type (0, 0), BuildingBlock: AJUNOK_clean_linker_0, # of connection points: 2
#     Edge 48, Type (0, 0), BuildingBlock: AJUNOK_clean_linker_0, # of connection points: 2
#     Edge 49, Type (0, 0), BuildingBlock: AJUNOK_clean_linker_0, # of connection points: 2
#     Edge 50, Type (0, 0), BuildingBlock: AJUNOK_clean_linker_0, # of connection points: 2
#     Edge 51, Type (0, 0), BuildingBlock: AJUNOK_clean_linker_0, # of connection points: 2
#     Edge 52, Type (0, 0), BuildingBlock: AJUNOK_clean_linker_0, # of connection points: 2
#     Edge 53, Type (0, 0), BuildingBlock: AJUNOK_clean_linker_0, # of connection points: 2
#     Edge 54, Type (0, 0), BuildingBlock: AJUNOK_clean_linker_0, # of connection points: 2
#     Edge 55, Type (0, 0), BuildingBlock: AJUNOK_clean_linker_0, # of connection points: 2
#     Edge 56, Type (0, 0), BuildingBlock: AJUNOK_clean_linker_0, # of connection points: 2
#     Edge 57, Type (0, 0), BuildingBlock: AJUNOK_clean_linker_0, # of connection points: 2
#     Edge 58, Type (0, 0), BuildingBlock: AJUNOK_clean_linker_0, # of connection points: 2
#     Edge 59, Type (0, 0), BuildingBlock: AJUNOK_clean_linker_0, # of connection points: 2
#     Edge 60, Type (0, 0), BuildingBlock: AJUNOK_clean_linker_0, # of connection points: 2
#     Edge 61, Type (0, 0), BuildingBlock: AJUNOK_clean_linker_0, # of connection points: 2
#     Edge 62, Type (0, 0), BuildingBlock: AJUNOK_clean_linker_0, # of connection points: 2
#     Edge 63, Type (0, 0), BuildingBlock: AJUNOK_clean_linker_0, # of connection points: 2
#     Edge 64, Type (0, 0), BuildingBlock: AJUNOK_clean_linker_0, # of connection points: 2
#     Edge 65, Type (0, 0), BuildingBlock: AJUNOK_clean_linker_0, # of connection points: 2
#     Edge 66, Type (0, 0), BuildingBlock: AJUNOK_clean_linker_0, # of connection points: 2
#     Edge 67, Type (0, 0), BuildingBlock: AJUNOK_clean_linker_0, # of connection points: 2
#     Edge 68, Type (0, 0), BuildingBlock: AJUNOK_clean_linker_0, # of connection points: 2
#     Edge 69, Type (0, 0), BuildingBlock: AJUNOK_clean_linker_0, # of connection points: 2
#     Edge 70, Type (0, 0), BuildingBlock: AJUNOK_clean_linker_0, # of connection points: 2
#     Edge 71, Type (0, 0), BuildingBlock: AJUNOK_clean_linker_0, # of connection points: 2
#     Edge 72, Type (0, 0), BuildingBlock: AJUNOK_clean_linker_0, # of connection points: 2
#     Edge 73, Type (0, 0), BuildingBlock: AJUNOK_clean_linker_0, # of connection points: 2
#     Edge 74, Type (0, 0), BuildingBlock: AJUNOK_clean_linker_0, # of connection points: 2
#     Edge 75, Type (0, 0), BuildingBlock: AJUNOK_clean_linker_0, # of connection points: 2
#     Edge 76, Type (0, 0), BuildingBlock: AJUNOK_clean_linker_0, # of connection points: 2
#     Edge 77, Type (0, 0), BuildingBlock: AJUNOK_clean_linker_0, # of connection points: 2
#     Edge 78, Type (0, 0), BuildingBlock: AJUNOK_clean_linker_0, # of connection points: 2
#     Edge 79, Type (0, 0), BuildingBlock: AJUNOK_clean_linker_0, # of connection points: 2
#     Edge 80, Type (0, 0), BuildingBlock: AJUNOK_clean_linker_0, # of connection points: 2
#     Edge 81, Type (0, 0), BuildingBlock: AJUNOK_clean_linker_0, # of connection points: 2
#     Edge 82, Type (0, 0), BuildingBlock: AJUNOK_clean_linker_0, # of connection points: 2
#     Edge 83, Type (0, 0), BuildingBlock: AJUNOK_clean_linker_0, # of connection points: 2
#     Edge 84, Type (0, 0), BuildingBlock: AJUNOK_clean_linker_0, # of connection points: 2
#     Edge 85, Type (0, 0), BuildingBlock: AJUNOK_clean_linker_0, # of connection points: 2
#     Edge 86, Type (0, 0), BuildingBlock: AJUNOK_clean_linker_0, # of connection points: 2
#     Edge 87, Type (0, 0), BuildingBlock: AJUNOK_clean_linker_0, # of connection points: 2
#     Edge 88, Type (0, 0), BuildingBlock: AJUNOK_clean_linker_0, # of connection points: 2
#     Edge 89, Type (0, 0), BuildingBlock: AJUNOK_clean_linker_0, # of connection points: 2
#     Edge 90, Type (0, 0), BuildingBlock: AJUNOK_clean_linker_0, # of connection points: 2
#     Edge 91, Type (0, 0), BuildingBlock: AJUNOK_clean_linker_0, # of connection points: 2
#     Edge 92, Type (0, 0), BuildingBlock: AJUNOK_clean_linker_0, # of connection points: 2
#     Edge 93, Type (0, 0), BuildingBlock: AJUNOK_clean_linker_0, # of connection points: 2
#     Edge 94, Type (0, 0), BuildingBlock: AJUNOK_clean_linker_0, # of connection points: 2
#     Edge 95, Type (0, 0), BuildingBlock: AJUNOK_clean_linker_0, # of connection points: 2
#     Edge 96, Type (0, 0), BuildingBlock: AJUNOK_clean_linker_0, # of connection points: 2
#     Edge 97, Type (0, 0), BuildingBlock: AJUNOK_clean_linker_0, # of connection points: 2
#     Edge 98, Type (0, 0), BuildingBlock: AJUNOK_clean_linker_0, # of connection points: 2
#     Edge 99, Type (0, 0), BuildingBlock: AJUNOK_clean_linker_0, # of connection points: 2
#     Edge 100, Type (0, 0), BuildingBlock: AJUNOK_clean_linker_0, # of connection points: 2
#     Edge 101, Type (0, 0), BuildingBlock: AJUNOK_clean_linker_0, # of connection points: 2
#     Edge 102, Type (0, 0), BuildingBlock: AJUNOK_clean_linker_0, # of connection points: 2
#     Edge 103, Type (0, 0), BuildingBlock: AJUNOK_clean_linker_0, # of connection points: 2
#     Edge 104, Type (0, 0), BuildingBlock: AJUNOK_clean_linker_0, # of connection points: 2
#     Edge 105, Type (0, 0), BuildingBlock: AJUNOK_clean_linker_0, # of connection points: 2
#     Edge 106, Type (0, 0), BuildingBlock: AJUNOK_clean_linker_0, # of connection points: 2
#     Edge 107, Type (0, 0), BuildingBlock: AJUNOK_clean_linker_0, # of connection points: 2
#     Edge 108, Type (0, 0), BuildingBlock: AJUNOK_clean_linker_0, # of connection points: 2
#     Edge 109, Type (0, 0), BuildingBlock: AJUNOK_clean_linker_0, # of connection points: 2
#     Edge 110, Type (0, 0), BuildingBlock: AJUNOK_clean_linker_0, # of connection points: 2
#     Edge 111, Type (0, 0), BuildingBlock: AJUNOK_clean_linker_0, # of connection points: 2
#     Edge 112, Type (0, 0), BuildingBlock: AJUNOK_clean_linker_0, # of connection points: 2
#     Edge 113, Type (0, 0), BuildingBlock: AJUNOK_clean_linker_0, # of connection points: 2
#     Edge 114, Type (0, 0), BuildingBlock: AJUNOK_clean_linker_0, # of connection points: 2
#     Edge 115, Type (0, 0), BuildingBlock: AJUNOK_clean_linker_0, # of connection points: 2
#     Edge 116, Type (0, 0), BuildingBlock: AJUNOK_clean_linker_0, # of connection points: 2
#     Edge 117, Type (0, 0), BuildingBlock: AJUNOK_clean_linker_0, # of connection points: 2
#     Edge 118, Type (0, 0), BuildingBlock: AJUNOK_clean_linker_0, # of connection points: 2
#     Edge 119, Type (0, 0), BuildingBlock: AJUNOK_clean_linker_0, # of connection points: 2
#     Edge 120, Type (0, 0), BuildingBlock: AJUNOK_clean_linker_0, # of connection points: 2
#     Edge 121, Type (0, 0), BuildingBlock: AJUNOK_clean_linker_0, # of connection points: 2
#     Edge 122, Type (0, 0), BuildingBlock: AJUNOK_clean_linker_0, # of connection points: 2
#     Edge 123, Type (0, 0), BuildingBlock: AJUNOK_clean_linker_0, # of connection points: 2
#     Edge 124, Type (0, 0), BuildingBlock: AJUNOK_clean_linker_0, # of connection points: 2
#     Edge 125, Type (0, 0), BuildingBlock: AJUNOK_clean_linker_0, # of connection points: 2
#     Edge 126, Type (0, 0), BuildingBlock: AJUNOK_clean_linker_0, # of connection points: 2
#     Edge 127, Type (0, 0), BuildingBlock: AJUNOK_clean_linker_0, # of connection points: 2
# Relax obj value: 0.527
# Max RMSD: 0.261
# Mean RMSD: 0.261
data_MOF--net-vda--node1-VOLQOD_clean_sbu_1--edge1-AJUNOK_clean_linker_0
_symmetry_space_group_name_H-M    P1
_symmetry_Int_Tables_number       1
_symmetry_cell_setting            triclinic
loop_
_symmetry_equiv_pos_as_xyz
'x, y, z'
_cell_length_a     35.861116
_cell_length_b     28.118842
_cell_length_c     51.776005
_cell_angle_alpha  90.075359
_cell_angle_beta   89.91055
_cell_angle_gamma 90.014098
loop_
_atom_site_label
_atom_site_type_symbol
_atom_site_fract_x
_atom_site_fract_y
_atom_site_fract_z
_atom_type_partial_charge
O0 O 0.34937 0.99726 0.96771 0.0
Zn1 Zn 0.37503 0.05953 0.96211 0.0
O2 O 0.36226 0.10765 0.98711 0.0
Zn3 Zn 0.3376 0.15952 0.96896 0.0
Zn4 Zn 0.33245 0.07203 0.01114 0.0
Zn5 Zn 0.40488 0.12761 0.00655 0.0
O6 O 0.36212 0.22409 0.98147 0.0
O7 O 0.41504 0.19537 -0.00176 0.0
O8 O 0.37134 0.08192 0.92597 0.0
O9 O 0.35175 0.1565 0.93009 0.0
O10 O 0.27956 0.145 0.97353 0.0
O11 O 0.27972 0.08111 -0.00039 0.0
O12 O 0.33776 0.09644 0.04777 0.0
O13 O 0.42724 0.04166 0.96706 0.0
O14 O 0.39425 0.12762 0.04468 0.0
O15 O 0.44905 0.08489 -0.00043 0.0
C16 C 0.35387 0.97753 0.98958 0.0
C17 C 0.39521 0.23022 -0.00941 0.0
C18 C 0.26238 0.11128 0.98563 0.0
C19 C 0.36399 0.12224 0.91623 0.0
C20 C 0.36595 0.11623 0.05817 0.0
C21 C 0.45317 0.05249 0.98256 0.0
O22 O 0.35067 1.00261 0.01001 0.0
O23 O 0.88573 0.26387 0.97641 0.0
Zn24 Zn 0.8919 0.19638 0.96711 0.0
O25 O 0.92156 0.16376 -0.00808 0.0
Zn26 Zn 0.94982 0.11617 0.97256 0.0
Zn27 Zn 0.94834 0.20998 0.01266 0.0
Zn28 Zn 0.88413 0.13757 0.01405 0.0
O29 O 0.92923 0.04812 0.9832 0.0
O30 O 0.87863 0.0693 0.00581 0.0
O31 O 0.90922 0.19086 0.93139 0.0
O32 O 0.93656 0.12036 0.93354 0.0
O33 O 1.0066 0.1368 0.97758 0.0
O34 O 1.00188 0.20425 0.00089 0.0
O35 O 0.94614 0.19233 0.05108 0.0
O36 O 0.84091 0.16995 0.96715 0.0
O37 O 0.89794 0.14287 0.05093 0.0
O38 O 0.83657 0.17398 0.00917 0.0
C39 C 0.89932 0.29197 -0.00692 0.0
C40 C 0.89857 0.0376 -0.00508 0.0
C41 C 1.02137 0.17384 0.98832 0.0
C42 C 0.92206 0.15406 0.9204 0.0
C43 C 0.92312 0.16553 0.06298 0.0
C44 C 0.82231 0.18092 0.98706 0.0
O45 O 0.92491 0.2777 0.00851 0.0
O46 O 0.34497 0.28138 0.25783 0.0
Zn47 Zn 0.37522 0.22254 0.26159 0.0
O48 O 0.36039 0.17141 0.23928 0.0
Zn49 Zn 0.33621 0.12289 0.26057 0.0
Zn50 Zn 0.33014 0.20587 0.21505 0.0
Zn51 Zn 0.40205 0.14798 0.22014 0.0
O52 O 0.35862 0.0557 0.24982 0.0
O53 O 0.41004 0.08081 0.22948 0.0
O54 O 0.38007 0.20145 0.29771 0.0
O55 O 0.3546 0.12977 0.29855 0.0
O56 O 0.27815 0.13927 0.25748 0.0
O57 O 0.27774 0.19731 0.22762 0.0
O58 O 0.33584 0.1806 0.17843 0.0
O59 O 0.42528 0.24389 0.25183 0.0
O60 O 0.39172 0.14776 0.18213 0.0
O61 O 0.44806 0.18677 0.22661 0.0
C62 C 0.34998 0.30119 0.23605 0.0
C63 C 0.39065 0.04756 0.23934 0.0
C64 C 0.26072 0.17062 0.24377 0.0
C65 C 0.37231 0.16342 0.30978 0.0
C66 C 0.36399 0.15996 0.16836 0.0
C67 C 0.45153 0.2259 0.23872 0.0
O68 O 0.34774 0.27575 0.21569 0.0
O69 O 0.94658 1.00932 0.26248 0.0
Zn70 Zn 0.92196 0.07207 0.26899 0.0
O71 O 0.93456 0.12076 0.24439 0.0
Zn72 Zn 0.9614 0.17093 0.26244 0.0
Zn73 Zn 0.96253 0.08528 0.21939 0.0
Zn74 Zn 0.89155 0.14333 0.2264 0.0
O75 O 0.93873 0.23719 0.25074 0.0
O76 O 0.88404 0.211 0.23553 0.0
O77 O 0.92623 0.09402 0.30523 0.0
O78 O 0.94696 0.16815 0.30105 0.0
O79 O 1.01891 0.15243 0.25785 0.0
O80 O 1.01571 0.0911 0.2301 0.0
O81 O 0.95611 0.11121 0.18328 0.0
O82 O 0.86926 0.05589 0.26466 0.0
O83 O 0.90015 0.14341 0.18798 0.0
O84 O 0.84605 0.10402 0.23481 0.0
C85 C 0.94155 0.99051 0.24038 0.0
C86 C 0.90519 0.24481 0.24279 0.0
C87 C 0.03453 0.11861 0.24477 0.0
C88 C 0.93398 0.13437 0.31485 0.0
C89 C 0.9277 0.13187 0.17376 0.0
C90 C 0.84245 0.06972 0.25068 0.0
O91 O 0.94371 0.01634 0.2202 0.0
O92 O 0.65718 1.01116 0.97179 0.0
Zn93 Zn 0.65619 0.94116 0.96503 0.0
O94 O 0.68008 0.90571 -0.00753 0.0
Zn95 Zn 0.71203 0.85663 0.97729 0.0
Zn96 Zn 0.7041 0.94994 0.01577 0.0
Zn97 Zn 0.64074 0.87765 0.01212 0.0
O98 O 0.68675 0.78888 0.9826 0.0
O99 O 0.63308 0.81132 0.00084 0.0
O100 O 0.67724 0.92687 0.93017 0.0
O101 O 0.71223 0.86366 0.93838 0.0
O102 O 0.76723 0.87382 0.98752 0.0
O103 O 0.75908 0.94198 0.00946 0.0
O104 O 0.69147 0.93623 0.05337 0.0
O105 O 0.60174 0.92768 0.96432 0.0
O106 O 0.64988 0.87813 0.0501 0.0
O107 O 0.59464 0.91555 0.00621 0.0
C108 C 0.66812 0.03659 -0.00936 0.0
C109 C 0.65345 0.77956 -0.0095 0.0
C110 C 0.78034 0.91105 -0.00112 0.0
C111 C 0.69825 0.89327 0.92252 0.0
C112 C 0.66988 0.90567 0.06373 0.0
C113 C 0.58185 0.9294 0.98462 0.0
O114 O 0.68654 0.01821 0.00918 0.0
O115 O 0.13066 0.76521 0.97311 0.0
Zn116 Zn 0.13282 0.8337 0.96475 0.0
O117 O 0.11068 0.87203 -0.00822 0.0
Zn118 Zn 0.07866 0.92021 0.9759 0.0
Zn119 Zn 0.08697 0.83054 0.01695 0.0
Zn120 Zn 0.15154 0.90078 0.00915 0.0
O121 O 0.10338 0.98857 0.98081 0.0
O122 O 0.15829 0.96674 -0.00268 0.0
O123 O 0.11029 0.84489 0.93042 0.0
O124 O 0.07867 0.91167 0.93696 0.0
O125 O 0.02346 0.90198 0.98592 0.0
O126 O 0.03157 0.83642 0.00999 0.0
O127 O 0.10007 0.84963 0.05419 0.0
O128 O 0.18783 0.84334 0.96205 0.0
O129 O 0.14618 0.90049 0.04701 0.0
O130 O 0.19698 0.86298 0.00282 0.0
C131 C 0.12229 0.74154 -0.00685 0.0
C132 C 0.1371 0.99823 0.98767 0.0
C133 C 1.01031 0.86563 -0.00194 0.0
C134 C 0.09056 0.87897 0.92202 0.0
C135 C 0.12555 0.87747 0.06247 0.0
C136 C 0.20861 0.84493 0.98187 0.0
O137 O 0.10587 0.76149 0.01223 0.0
O138 O 0.69571 0.74851 0.7581 0.0
Zn139 Zn 0.67262 0.81101 0.76741 0.0
O140 O 0.68139 0.86015 0.74188 0.0
Zn141 Zn 0.71113 0.91059 0.75735 0.0
Zn142 Zn 0.70543 0.82602 0.71421 0.0
Zn143 Zn 0.63548 0.88403 0.72831 0.0
O144 O 0.68406 0.97694 0.7516 0.0
O145 O 0.62728 0.95035 0.74099 0.0
O146 O 0.68792 0.83059 0.8028 0.0
O147 O 0.71063 0.90304 0.79638 0.0
O148 O 0.76674 0.89573 0.74726 0.0
O149 O 0.76086 0.83332 0.72053 0.0
O150 O 0.68951 0.85049 0.67899 0.0
O151 O 0.619 0.79398 0.76771 0.0
O152 O 0.63599 0.88516 0.68949 0.0
O153 O 0.59364 0.84077 0.7381 0.0
C154 C 0.68912 0.72992 0.73618 0.0
C155 C 0.64893 0.98398 0.74787 0.0
C156 C 0.78114 0.86198 0.73365 0.0
C157 C 0.70192 0.86896 0.81144 0.0
C158 C 0.6593 0.87126 0.67253 0.0
C159 C 0.59129 0.80666 0.75414 0.0
O160 O 0.68845 0.75616 0.71611 0.0
O161 O 0.13543 1.00984 0.76118 0.0
Zn162 Zn 0.13787 0.94064 0.76838 0.0
O163 O 0.11402 0.90371 0.74142 0.0
Zn164 Zn 0.08226 0.85504 0.75695 0.0
Zn165 Zn 0.08983 0.94695 0.71752 0.0
Zn166 Zn 0.15328 0.87429 0.72258 0.0
O167 O 0.10754 0.78688 0.75252 0.0
O168 O 0.16154 0.80854 0.73453 0.0
O169 O 0.11703 0.9272 0.8033 0.0
O170 O 0.08153 0.86408 0.79565 0.0
O171 O 0.02717 0.87209 0.74681 0.0
O172 O 0.03471 0.94062 0.7251 0.0
O173 O 0.10094 0.92874 0.68002 0.0
O174 O 0.19314 0.93152 0.76844 0.0
O175 O 0.14524 0.87446 0.68491 0.0
O176 O 0.19846 0.91277 0.7272 0.0
C177 C 0.12718 0.03446 0.74147 0.0
C178 C 0.14098 0.77719 0.74499 0.0
C179 C 1.01378 0.90954 0.73589 0.0
C180 C 0.09547 0.89436 0.81118 0.0
C181 C 0.12436 0.89932 0.67051 0.0
C182 C 0.21167 0.93143 0.74748 0.0
O183 O 0.10971 0.01572 0.72249 0.0
O184 O 0.34737 0.50556 0.46966 0.0
Zn185 Zn 0.3773 0.56472 0.46771 0.0
O186 O 0.35993 0.61447 0.48981 0.0
Zn187 Zn 0.33616 0.66241 0.46789 0.0
Zn188 Zn 0.32905 0.57728 0.51275 0.0
Zn189 Zn 0.3998 0.63899 0.51037 0.0
O190 O 0.35755 0.73004 0.4789 0.0
O191 O 0.40746 0.70633 0.5013 0.0
O192 O 0.38456 0.58627 0.43218 0.0
O193 O 0.35637 0.65605 0.43011 0.0
O194 O 0.27809 0.64517 0.47036 0.0
O195 O 0.27728 0.58524 0.49917 0.0
O196 O 0.33158 0.60168 0.54961 0.0
O197 O 0.42693 0.54518 0.4789 0.0
O198 O 0.38623 0.63849 0.5479 0.0
O199 O 0.44716 0.60177 0.50546 0.0
C200 C 0.35225 0.48416 0.49094 0.0
C201 C 0.38859 0.73899 0.4905 0.0
C202 C 0.26055 0.61282 0.48337 0.0
C203 C 0.37648 0.62361 0.41974 0.0
C204 C 0.35788 0.62446 0.56059 0.0
C205 C 0.45201 0.56335 0.49293 0.0
O206 O 0.34812 0.50761 0.51187 0.0
O207 O 0.93782 0.77621 0.47122 0.0
Zn208 Zn 0.91601 0.71163 0.46643 0.0
O209 O 0.93148 0.66557 0.49171 0.0
Zn210 Zn 0.95811 0.61531 0.47309 0.0
Zn211 Zn 0.95994 0.70388 0.51543 0.0
Zn212 Zn 0.8901 0.6429 0.51166 0.0
O213 O 0.93599 0.54899 0.48501 0.0
O214 O 0.88328 0.57459 0.5036 0.0
O215 O 0.92092 0.68969 0.43051 0.0
O216 O 0.94328 0.61653 0.43434 0.0
O217 O 1.01555 0.63448 0.477 0.0
O218 O 1.01294 0.69747 0.50376 0.0
O219 O 0.95502 0.68128 0.55252 0.0
O220 O 0.86263 0.72336 0.47059 0.0
O221 O 0.89991 0.6461 0.54979 0.0
O222 O 0.84359 0.68019 0.504 0.0
C223 C 0.93477 0.79661 0.49304 0.0
C224 C 0.90353 0.54103 0.49484 0.0
C225 C 0.03142 0.66907 0.48931 0.0
C226 C 0.92943 0.64986 0.42066 0.0
C227 C 0.92741 0.66053 0.56317 0.0
C228 C 0.83741 0.71022 0.48615 0.0
O229 O 0.94008 0.77264 0.51362 0.0
O230 O 0.39744 0.76101 0.7569 0.0
Zn231 Zn 0.39451 0.69324 0.76678 0.0
O232 O 0.36616 0.65777 0.74238 0.0
Zn233 Zn 0.34011 0.60862 0.76204 0.0
Zn234 Zn 0.33674 0.70127 0.72185 0.0
Zn235 Zn 0.40374 0.6342 0.71968 0.0
O236 O 0.36248 0.54189 0.75075 0.0
O237 O 0.41142 0.56627 0.72739 0.0
O238 O 0.37744 0.68665 0.80259 0.0
O239 O 0.35478 0.6134 0.80081 0.0
O240 O 0.28247 0.62629 0.75814 0.0
O241 O 0.28435 0.694 0.735 0.0
O242 O 0.33701 0.68187 0.68382 0.0
O243 O 0.44711 0.67183 0.76687 0.0
O244 O 0.38863 0.63856 0.68289 0.0
O245 O 0.45097 0.6713 0.72453 0.0
C246 C 0.38285 0.78692 0.73958 0.0
C247 C 0.393 0.53333 0.7384 0.0
C248 C 0.26628 0.66276 0.74788 0.0
C249 C 0.36738 0.64862 0.81376 0.0
C250 C 0.36106 0.65739 0.67144 0.0
C251 C 0.46574 0.67893 0.74644 0.0
O252 O 0.35802 0.76997 0.72439 0.0
O253 O 0.93943 0.50273 0.76361 0.0
Zn254 Zn 0.91866 0.56778 0.77065 0.0
O255 O 0.93268 0.61575 0.74575 0.0
Zn256 Zn 0.95861 0.66624 0.76461 0.0
Zn257 Zn 0.96166 0.58078 0.72088 0.0
Zn258 Zn 0.89078 0.63848 0.72637 0.0
O259 O 0.93559 0.73261 0.75299 0.0
O260 O 0.88291 0.70635 0.73478 0.0
O261 O 0.92609 0.58726 0.80706 0.0
O262 O 0.94406 0.66249 0.80345 0.0
O263 O 1.01641 0.64868 0.76031 0.0
O264 O 1.01424 0.5884 0.73187 0.0
O265 O 0.95584 0.60528 0.68439 0.0
O266 O 0.86464 0.55742 0.76795 0.0
O267 O 0.89967 0.63707 0.68795 0.0
O268 O 0.84509 0.6006 0.73467 0.0
C269 C 0.94138 0.48439 0.74118 0.0
C270 C 0.90296 0.74016 0.74337 0.0
C271 C 0.03254 0.61568 0.74691 0.0
C272 C 0.933 0.62745 0.81716 0.0
C273 C 0.92755 0.62507 0.67419 0.0
C274 C 0.83911 0.5709 0.75273 0.0
O275 O 0.94624 0.5106 0.72137 0.0
O276 O 0.68718 0.52526 0.47181 0.0
Zn277 Zn 0.66695 0.4602 0.46547 0.0
O278 O 0.68232 0.41473 0.49157 0.0
Zn279 Zn 0.71362 0.36574 0.47594 0.0
Zn280 Zn 0.70578 0.45387 0.5175 0.0
Zn281 Zn 0.6399 0.38709 0.50809 0.0
O282 O 0.68795 0.2979 0.48085 0.0
O283 O 0.63244 0.32126 0.49583 0.0
O284 O 0.68039 0.43971 0.42975 0.0
O285 O 0.7129 0.37391 0.43701 0.0
O286 O 0.76885 0.3824 0.48655 0.0
O287 O 0.76085 0.44807 0.5107 0.0
O288 O 0.69369 0.43149 0.55379 0.0
O289 O 0.61238 0.47187 0.46822 0.0
O290 O 0.64431 0.38604 0.54649 0.0
O291 O 0.59529 0.42573 0.50086 0.0
C292 C 0.68114 0.54567 0.49332 0.0
C293 C 0.6537 0.28912 0.48681 0.0
C294 C 0.78207 0.41834 0.49905 0.0
C295 C 0.69895 0.40426 0.42152 0.0
C296 C 0.66719 0.40533 0.562 0.0
C297 C 0.58806 0.45772 0.48435 0.0
O298 O 0.68527 0.52229 0.51423 0.0
O299 O 0.12446 0.26035 0.47096 0.0
Zn300 Zn 0.12817 0.32908 0.46297 0.0
O301 O 0.10919 0.36877 0.49056 0.0
Zn302 Zn 0.07749 0.41797 0.47565 0.0
Zn303 Zn 0.08611 0.32755 0.51595 0.0
Zn304 Zn 0.15125 0.39637 0.50708 0.0
O305 O 0.10312 0.48563 0.48036 0.0
O306 O 0.15899 0.46224 0.49455 0.0
O307 O 0.10519 0.34258 0.42899 0.0
O308 O 0.07607 0.41068 0.43676 0.0
O309 O 0.02269 0.40048 0.48627 0.0
O310 O 0.03051 0.33299 0.50889 0.0
O311 O 0.09882 0.34867 0.5528 0.0
O312 O 0.18327 0.33536 0.45944 0.0
O313 O 0.14672 0.39667 0.54528 0.0
O314 O 0.19522 0.35631 0.49974 0.0
C315 C 0.12123 0.2383 0.49221 0.0
C316 C 0.13754 0.49436 0.48575 0.0
C317 C 1.00942 0.36349 0.49773 0.0
C318 C 0.08644 0.37807 0.42125 0.0
C319 C 0.1251 0.37544 0.56092 0.0
C320 C 0.20505 0.33662 0.47875 0.0
O321 O 0.10739 0.25905 0.51204 0.0
O322 O 0.68545 0.2588 0.26137 0.0
Zn323 Zn 0.66763 0.32544 0.26625 0.0
O324 O 0.68412 0.36947 0.23978 0.0
Zn325 Zn 0.71453 0.41926 0.25596 0.0
Zn326 Zn 0.709 0.32916 0.21492 0.0
Zn327 Zn 0.64243 0.39656 0.22176 0.0
O328 O 0.68865 0.48667 0.25018 0.0
O329 O 0.6346 0.46289 0.23308 0.0
O330 O 0.68102 0.34579 0.30172 0.0
O331 O 0.71312 0.41212 0.29512 0.0
O332 O 0.77024 0.40299 0.24638 0.0
O333 O 0.76386 0.33712 0.22218 0.0
O334 O 0.69656 0.34684 0.17801 0.0
O335 O 0.61314 0.31643 0.26356 0.0
O336 O 0.64907 0.39647 0.18322 0.0
O337 O 0.59684 0.35836 0.22902 0.0
C338 C 0.68513 0.23718 0.23983 0.0
C339 C 0.65498 0.49524 0.2428 0.0
C340 C 0.78431 0.36722 0.23416 0.0
C341 C 0.69938 0.38102 0.31028 0.0
C342 C 0.67142 0.37378 0.16865 0.0
C343 C 0.58932 0.32849 0.24669 0.0
O344 O 0.69099 0.26012 0.219 0.0
O345 O 0.13687 0.51942 0.2631 0.0
Zn346 Zn 0.135 0.44981 0.26989 0.0
O347 O 0.11142 0.41552 0.24196 0.0
Zn348 Zn 0.07864 0.36656 0.25589 0.0
Zn349 Zn 0.08895 0.46092 0.21871 0.0
Zn350 Zn 0.15129 0.38704 0.2233 0.0
O351 O 0.10351 0.29844 0.25041 0.0
O352 O 0.15902 0.32103 0.23509 0.0
O353 O 0.11168 0.4361 0.30403 0.0
O354 O 0.07704 0.37294 0.29468 0.0
O355 O 0.02405 0.38545 0.2452 0.0
O356 O 0.03338 0.45516 0.22498 0.0
O357 O 0.10156 0.44505 0.18134 0.0
O358 O 0.18924 0.43484 0.27146 0.0
O359 O 0.14282 0.38669 0.18539 0.0
O360 O 0.19633 0.42647 0.22941 0.0
C361 C 0.12879 0.54534 0.24384 0.0
C362 C 0.13755 0.28913 0.24412 0.0
C363 C 1.01156 0.42389 0.23477 0.0
C364 C 0.09013 0.40252 0.31094 0.0
C365 C 0.12326 0.41405 0.17141 0.0
C366 C 0.2087 0.44023 0.25114 0.0
O367 O 0.11002 0.5284 0.22498 0.0
O368 O 0.8643 1.00466 0.46972 0.0
Zn369 Zn 0.88446 0.07049 0.46783 0.0
O370 O 0.86193 0.11641 0.49019 0.0
Zn371 Zn 0.83666 0.16365 0.46825 0.0
Zn372 Zn 0.83221 0.07562 0.51195 0.0
Zn373 Zn 0.89798 0.14443 0.51309 0.0
O374 O 0.85663 0.23233 0.47909 0.0
O375 O 0.90578 0.21078 0.50283 0.0
O376 O 0.88841 0.09186 0.43226 0.0
O377 O 0.85656 0.15893 0.43018 0.0
O378 O 0.77892 0.144 0.47098 0.0
O379 O 0.78057 0.08132 0.498 0.0
O380 O 0.83115 0.09808 0.54906 0.0
O381 O 0.93619 0.06308 0.47799 0.0
O382 O 0.87909 0.14787 0.54941 0.0
O383 O 0.94717 0.10995 0.51178 0.0
C384 C 0.86274 0.98373 0.49141 0.0
C385 C 0.88707 0.24247 0.49115 0.0
C386 C 0.76269 0.10944 0.48312 0.0
C387 C 0.87816 0.12814 0.41976 0.0
C388 C 0.85191 0.12778 0.56077 0.0
C389 C 0.95761 0.07914 0.49529 0.0
O390 O 0.85321 1.00721 0.51146 0.0
O391 O 0.43529 0.28352 0.46783 0.0
Zn392 Zn 0.41398 0.21879 0.46218 0.0
O393 O 0.42893 0.17154 0.48691 0.0
Zn394 Zn 0.45496 0.12142 0.46778 0.0
Zn395 Zn 0.45783 0.20906 0.51056 0.0
Zn396 Zn 0.38754 0.14919 0.50721 0.0
O397 O 0.43211 0.05529 0.47955 0.0
O398 O 0.37996 0.08098 0.4989 0.0
O399 O 0.4198 0.19878 0.4261 0.0
O400 O 0.44075 0.12485 0.42877 0.0
O401 O 0.5126 0.13866 0.47236 0.0
O402 O 0.51076 0.20263 0.4985 0.0
O403 O 0.4542 0.18435 0.54712 0.0
O404 O 0.36051 0.2298 0.46605 0.0
O405 O 0.39842 0.15076 0.54553 0.0
O406 O 0.34116 0.18728 0.49962 0.0
C407 C 0.4324 0.30279 0.48994 0.0
C408 C 0.39989 0.04742 0.48979 0.0
C409 C 0.52888 0.17322 0.48441 0.0
C410 C 0.42795 0.15948 0.41549 0.0
C411 C 0.42713 0.1634 0.55826 0.0
C412 C 0.3351 0.21699 0.48154 0.0
O413 O 0.43734 0.27771 0.51016 0.0
O414 O 0.91187 0.25722 0.75359 0.0
Zn415 Zn 0.90724 0.18787 0.76148 0.0
O416 O 0.8697 0.1583 0.74093 0.0
Zn417 Zn 0.84283 0.11284 0.76267 0.0
Zn418 Zn 0.84173 0.20581 0.72228 0.0
Zn419 Zn 0.90013 0.12887 0.71503 0.0
O420 O 0.86384 0.04409 0.75335 0.0
O421 O 0.90924 0.06242 0.72537 0.0
O422 O 0.89977 0.17951 0.79857 0.0
O423 O 0.85825 0.12128 0.80119 0.0
O424 O 0.78553 0.13247 0.75869 0.0
O425 O 0.78946 0.20025 0.73574 0.0
O426 O 0.83923 0.19122 0.68366 0.0
O427 O 0.95558 0.15737 0.75375 0.0
O428 O 0.87569 0.12775 0.68081 0.0
O429 O 0.94804 0.16654 0.71226 0.0
C430 C 0.89358 0.28613 0.73961 0.0
C431 C 0.89226 0.03228 0.73944 0.0
C432 C 0.77042 0.16973 0.74844 0.0
C433 C 0.88116 0.15009 0.81188 0.0
C434 C 0.8531 0.15696 0.67068 0.0
C435 C 0.96853 0.17016 0.73214 0.0
O436 O 0.86505 0.2723 0.72682 0.0
O437 O 0.44548 0.99835 0.75747 0.0
Zn438 Zn 0.41759 0.05895 0.76326 0.0
O439 O 0.43006 0.10974 0.74001 0.0
Zn440 Zn 0.45349 0.15875 0.76114 0.0
Zn441 Zn 0.46068 0.07624 0.71576 0.0
Zn442 Zn 0.38832 0.13095 0.72002 0.0
O443 O 0.4303 0.22485 0.74964 0.0
O444 O 0.37893 0.19826 0.72965 0.0
O445 O 0.41572 0.07823 0.79976 0.0
O446 O 0.43418 0.1532 0.79904 0.0
O447 O 0.51161 0.14146 0.75887 0.0
O448 O 0.51254 0.08337 0.72898 0.0
O449 O 0.45674 0.10259 0.67956 0.0
O450 O 0.36613 0.04072 0.75652 0.0
O451 O 0.39957 0.13202 0.68172 0.0
O452 O 0.34348 0.08913 0.72647 0.0
C453 C 0.44226 0.98003 0.73513 0.0
C454 C 0.39802 0.23208 0.73936 0.0
C455 C 0.5292 0.10974 0.74541 0.0
C456 C 0.41964 0.11799 0.81098 0.0
C457 C 0.42875 0.122 0.66875 0.0
C458 C 0.33984 0.05435 0.74203 0.0
O459 O 0.44359 1.00657 0.71521 0.0
O460 O 0.19536 0.02974 0.47549 0.0
Zn461 Zn 0.17089 0.96758 0.46717 0.0
O462 O 0.18166 0.91819 0.49209 0.0
Zn463 Zn 0.21205 0.8692 0.47601 0.0
Zn464 Zn 0.20497 0.9534 0.51954 0.0
Zn465 Zn 0.13694 0.89198 0.50607 0.0
O466 O 0.1867 0.80154 0.48202 0.0
O467 O 0.12971 0.82577 0.49372 0.0
O468 O 0.18289 0.9478 0.43107 0.0
O469 O 0.20998 0.87771 0.43708 0.0
O470 O 0.26745 0.88629 0.48561 0.0
O471 O 0.26024 0.94765 0.51294 0.0
O472 O 0.18973 0.92915 0.55492 0.0
O473 O 0.11764 0.98535 0.47017 0.0
O474 O 0.13787 0.89061 0.54451 0.0
O475 O 0.09413 0.9337 0.49811 0.0
C476 C 0.18842 0.04873 0.49728 0.0
C477 C 0.15194 0.79302 0.48656 0.0
C478 C 0.28109 0.9202 0.49947 0.0
C479 C 0.19839 0.91056 0.42215 0.0
C480 C 0.16034 0.90648 0.56136 0.0
C481 C 0.09085 0.97036 0.484 0.0
O482 O 0.18714 0.02283 0.51744 0.0
O483 O 0.60794 0.75389 0.47186 0.0
Zn484 Zn 0.6249 0.82038 0.46527 0.0
O485 O 0.61 0.8649 0.49199 0.0
Zn486 Zn 0.57924 0.91455 0.47639 0.0
Zn487 Zn 0.58565 0.82618 0.51777 0.0
Zn488 Zn 0.65292 0.89138 0.5086 0.0
O489 O 0.60518 0.98173 0.48157 0.0
O490 O 0.66055 0.95782 0.4965 0.0
O491 O 0.60948 0.84 0.43003 0.0
O492 O 0.57996 0.90788 0.43743 0.0
O493 O 0.52377 0.89802 0.48599 0.0
O494 O 0.53058 0.83253 0.51031 0.0
O495 O 0.59792 0.84803 0.55435 0.0
O496 O 0.67968 0.81207 0.46558 0.0
O497 O 0.64841 0.89159 0.54714 0.0
O498 O 0.69729 0.85162 0.50065 0.0
C499 C 0.60948 0.73316 0.49363 0.0
C500 C 0.63945 0.99019 0.4875 0.0
C501 C 0.50995 0.86213 0.49816 0.0
C502 C 0.59211 0.87633 0.4219 0.0
C503 C 0.6251 0.87301 0.56266 0.0
C504 C 0.70416 0.82305 0.48222 0.0
O505 O 0.60441 0.75691 0.51438 0.0
O506 O 0.19719 0.7576 0.26051 0.0
Zn507 Zn 0.17385 0.82122 0.26753 0.0
O508 O 0.18444 0.86859 0.24129 0.0
Zn509 Zn 0.21514 0.91861 0.25617 0.0
Zn510 Zn 0.20748 0.83147 0.21458 0.0
Zn511 Zn 0.13985 0.89388 0.22651 0.0
O512 O 0.18955 0.98562 0.24949 0.0
O513 O 0.13257 0.96071 0.23825 0.0
O514 O 0.1861 0.8437 0.30308 0.0
O515 O 0.2131 0.91324 0.29522 0.0
O516 O 0.27054 0.90132 0.24636 0.0
O517 O 0.26252 0.83813 0.22045 0.0
O518 O 0.19232 0.85291 0.1788 0.0
O519 O 0.12034 0.80469 0.26574 0.0
O520 O 0.14094 0.89352 0.18784 0.0
O521 O 0.09728 0.85212 0.23543 0.0
C522 C 0.19136 0.73746 0.23887 0.0
C523 C 0.15474 0.99377 0.24511 0.0
C524 C 0.28375 0.86642 0.23301 0.0
C525 C 0.20124 0.88191 0.31099 0.0
C526 C 0.16364 0.87605 0.17152 0.0
C527 C 0.09379 0.81791 0.25125 0.0
O528 O 0.1904 0.76221 0.21828 0.0
O529 O 0.60261 0.03251 0.26147 0.0
Zn530 Zn 0.62332 0.96795 0.26867 0.0
O531 O 0.61194 0.92128 0.24206 0.0
Zn532 Zn 0.58046 0.87144 0.25641 0.0
Zn533 Zn 0.58942 0.9596 0.21554 0.0
Zn534 Zn 0.65623 0.89451 0.22743 0.0
O535 O 0.60595 0.80379 0.25102 0.0
O536 O 0.66285 0.82834 0.23955 0.0
O537 O 0.60882 0.946 0.30398 0.0
O538 O 0.58072 0.87752 0.29522 0.0
O539 O 0.52551 0.88888 0.24603 0.0
O540 O 0.53383 0.95366 0.22135 0.0
O541 O 0.60534 0.93876 0.17975 0.0
O542 O 0.67731 0.982 0.26778 0.0
O543 O 0.6543 0.89325 0.18867 0.0
O544 O 0.70013 0.93367 0.23752 0.0
C545 C 0.61096 0.05192 0.24007 0.0
C546 C 0.64082 0.79557 0.24684 0.0
C547 C 0.51245 0.92456 0.23332 0.0
C548 C 0.59237 0.9083 0.31136 0.0
C549 C 0.63255 0.91281 0.17248 0.0
C550 C 0.704 0.96701 0.2539 0.0
O551 O 0.60905 0.02766 0.21932 0.0
O552 O 0.8422 0.50667 0.97371 0.0
Zn553 Zn 0.87285 0.56581 0.97098 0.0
O554 O 0.85718 0.61783 -0.00773 0.0
Zn555 Zn 0.83458 0.66535 0.96958 0.0
Zn556 Zn 0.8261 0.58309 0.01592 0.0
Zn557 Zn 0.89708 0.64287 0.01253 0.0
O558 O 0.8567 0.73331 0.98006 0.0
O559 O 0.90703 0.70879 0.00173 0.0
O560 O 0.88153 0.5856 0.93495 0.0
O561 O 0.85575 0.65681 0.93217 0.0
O562 O 0.77634 0.64807 0.97146 0.0
O563 O 0.77465 0.5917 0.00226 0.0
O564 O 0.82949 0.60808 0.05244 0.0
O565 O 0.92174 0.54528 0.98304 0.0
O566 O 0.88281 0.64774 0.04996 0.0
O567 O 0.94298 0.60261 0.0088 0.0
C568 C 0.84279 0.48689 -0.00424 0.0
C569 C 0.8884 0.74172 -0.00903 0.0
C570 C 0.75837 0.6174 0.98537 0.0
C571 C 0.87491 0.62307 0.92215 0.0
C572 C 0.85482 0.6333 0.06289 0.0
C573 C 0.94701 0.56313 -0.00294 0.0
O574 O 0.84153 0.51256 0.01605 0.0
O575 O 0.44465 0.77668 0.97095 0.0
Zn576 Zn 0.41597 0.71692 0.96625 0.0
O577 O 0.42795 0.66774 -0.00956 0.0
Zn578 Zn 0.45262 0.61762 0.97065 0.0
Zn579 Zn 0.45724 0.70408 0.0145 0.0
Zn580 Zn 0.38504 0.64698 0.00944 0.0
O581 O 0.42892 0.55211 0.98218 0.0
O582 O 0.37619 0.57894 0.00036 0.0
O583 O 0.41553 0.69545 0.93044 0.0
O584 O 0.4362 0.62155 0.93209 0.0
O585 O 0.51057 0.63334 0.97487 0.0
O586 O 0.51004 0.69479 0.00279 0.0
O587 O 0.451 0.68005 0.05117 0.0
O588 O 0.36467 0.73639 0.97196 0.0
O589 O 0.39493 0.64753 0.04779 0.0
O590 O 0.34035 0.68888 0.0018 0.0
C591 C 0.43682 0.79754 -0.00798 0.0
C592 C 0.39608 0.54495 -0.00842 0.0
C593 C 0.52756 0.66611 0.9879 0.0
C594 C 0.42161 0.6559 0.9195 0.0
C595 C 0.42283 0.65985 0.06143 0.0
C596 C 0.33758 0.72329 0.98589 0.0
O597 O 0.4385 0.77368 0.01292 0.0
O598 O 0.87056 0.7829 0.26564 0.0
Zn599 Zn 0.88623 0.71537 0.26821 0.0
O600 O 0.86431 0.67197 0.24409 0.0
Zn601 Zn 0.83825 0.62289 0.2646 0.0
Zn602 Zn 0.83495 0.71409 0.22286 0.0
Zn603 Zn 0.90155 0.6467 0.22092 0.0
O604 O 0.85914 0.5553 0.25271 0.0
O605 O 0.9078 0.57883 0.22892 0.0
O606 O 0.88505 0.69395 0.30377 0.0
O607 O 0.85568 0.625 0.30333 0.0
O608 O 0.78057 0.64234 0.26126 0.0
O609 O 0.78283 0.70778 0.23623 0.0
O610 O 0.83487 0.6944 0.1853 0.0
O611 O 0.93923 0.71914 0.2613 0.0
O612 O 0.88559 0.64926 0.18385 0.0
O613 O 0.95102 0.67985 0.22501 0.0
C614 C 0.86879 0.80417 0.24408 0.0
C615 C 0.88938 0.54617 0.24011 0.0
C616 C 0.7646 0.67807 0.25003 0.0
C617 C 0.87468 0.6566 0.3153 0.0
C618 C 0.85794 0.6688 0.17283 0.0
C619 C 0.96148 0.70569 0.24383 0.0
O620 O 0.85705 0.78189 0.22421 0.0
O621 O 0.43449 0.50107 0.26238 0.0
Zn622 Zn 0.41446 0.56634 0.26882 0.0
O623 O 0.42911 0.61287 0.24338 0.0
Zn624 Zn 0.45625 0.66327 0.26128 0.0
Zn625 Zn 0.45745 0.57586 0.21899 0.0
Zn626 Zn 0.38679 0.63552 0.22433 0.0
O627 O 0.43393 0.72936 0.2495 0.0
O628 O 0.38005 0.70402 0.23256 0.0
O629 O 0.42205 0.58746 0.30487 0.0
O630 O 0.44303 0.66129 0.30021 0.0
O631 O 0.5136 0.64553 0.25628 0.0
O632 O 0.51095 0.58201 0.22993 0.0
O633 O 0.45162 0.60026 0.18234 0.0
O634 O 0.36073 0.55513 0.266 0.0
O635 O 0.39585 0.63339 0.18595 0.0
O636 O 0.34065 0.59715 0.23257 0.0
C637 C 0.43094 0.48238 0.24013 0.0
C638 C 0.40107 0.73751 0.24051 0.0
C639 C 0.5295 0.61107 0.24392 0.0
C640 C 0.43075 0.62757 0.31436 0.0
C641 C 0.42348 0.62054 0.17216 0.0
C642 C 0.33499 0.56734 0.25067 0.0
O643 O 0.43701 0.50747 0.22004 0.0
O644 O 0.18099 0.52676 0.97169 0.0
Zn645 Zn 0.16136 0.46075 0.96609 0.0
O646 O 0.17679 0.41498 -0.00795 0.0
Zn647 Zn 0.20714 0.36535 0.97584 0.0
Zn648 Zn 0.20138 0.45371 0.01757 0.0
Zn649 Zn 0.13472 0.38773 0.00947 0.0
O650 O 0.18138 0.2976 0.98205 0.0
O651 O 0.12668 0.32185 -0.002 0.0
O652 O 0.17302 0.43945 0.93023 0.0
O653 O 0.20435 0.37247 0.93674 0.0
O654 O 0.26308 0.38264 0.98497 0.0
O655 O 0.25601 0.44623 0.01076 0.0
O656 O 0.18755 0.43633 0.05408 0.0
O657 O 0.10729 0.47253 0.96982 0.0
O658 O 0.13985 0.38741 0.04794 0.0
O659 O 0.08985 0.42653 0.00256 0.0
C660 C 0.18011 0.54698 -0.00634 0.0
C661 C 0.14737 0.28925 0.98889 0.0
C662 C 0.27678 0.41764 -0.00198 0.0
C663 C 0.19041 0.40339 0.92156 0.0
C664 C 0.16167 0.40992 0.06289 0.0
C665 C 0.08313 0.45893 0.98616 0.0
O666 O 0.18482 0.52263 0.0141 0.0
O667 O 0.61225 0.25284 0.96966 0.0
Zn668 Zn 0.62657 0.32056 0.96273 0.0
O669 O 0.61299 0.36453 0.99009 0.0
Zn670 Zn 0.58032 0.41376 0.97621 0.0
Zn671 Zn 0.59112 0.32528 0.01644 0.0
Zn672 Zn 0.65669 0.39214 0.0051 0.0
O673 O 0.60555 0.48151 0.98151 0.0
O674 O 0.66328 0.45802 -0.00829 0.0
O675 O 0.6076 0.34016 0.92841 0.0
O676 O 0.5784 0.40773 0.93727 0.0
O677 O 0.52576 0.39547 0.98738 0.0
O678 O 0.53573 0.33071 0.01161 0.0
O679 O 0.60748 0.34469 0.05221 0.0
O680 O 0.68144 0.31411 0.96091 0.0
O681 O 0.65398 0.39467 0.044 0.0
O682 O 0.70029 0.35052 -0.00342 0.0
C683 C 0.61344 0.23263 -0.00841 0.0
C684 C 0.64054 0.49032 0.98474 0.0
C685 C 0.51358 0.35928 9e-05 0.0
C686 C 0.58947 0.37653 0.92114 0.0
C687 C 0.63327 0.37246 0.05989 0.0
C688 C 0.70636 0.32253 0.97769 0.0
O689 O 0.60848 0.25666 0.01218 0.0
O690 O 0.18852 0.24955 0.75923 0.0
Zn691 Zn 0.16468 0.31298 0.76626 0.0
O692 O 0.17679 0.36051 0.7405 0.0
Zn693 Zn 0.20788 0.40928 0.75605 0.0
Zn694 Zn 0.20051 0.32387 0.71383 0.0
Zn695 Zn 0.1326 0.38715 0.72553 0.0
O696 O 0.1834 0.47674 0.74978 0.0
O697 O 0.12584 0.45371 0.73857 0.0
O698 O 0.17536 0.33487 0.80241 0.0
O699 O 0.20476 0.40299 0.79491 0.0
O700 O 0.2634 0.39178 0.74683 0.0
O701 O 0.25569 0.32952 0.72029 0.0
O702 O 0.18645 0.34706 0.67811 0.0
O703 O 0.1114 0.29592 0.76244 0.0
O704 O 0.13581 0.38953 0.68683 0.0
O705 O 0.08921 0.34411 0.73231 0.0
C706 C 0.18358 0.22965 0.7374 0.0
C707 C 0.14869 0.48594 0.74569 0.0
C708 C 0.27679 0.35721 0.73334 0.0
C709 C 0.19143 0.37238 0.81053 0.0
C710 C 0.15875 0.37194 0.67068 0.0
C711 C 0.08542 0.30858 0.74727 0.0
O712 O 0.1831 0.2546 0.71686 0.0
O713 O 0.61261 0.5238 0.76062 0.0
Zn714 Zn 0.62728 0.45708 0.7688 0.0
O715 O 0.61483 0.41206 0.74172 0.0
Zn716 Zn 0.58396 0.36144 0.75607 0.0
Zn717 Zn 0.5919 0.45004 0.71515 0.0
Zn718 Zn 0.65917 0.38709 0.72661 0.0
O719 O 0.61119 0.29481 0.75094 0.0
O720 O 0.66716 0.32069 0.73813 0.0
O721 O 0.60672 0.43899 0.80292 0.0
O722 O 0.5814 0.36849 0.79501 0.0
O723 O 0.52914 0.37694 0.74466 0.0
O724 O 0.53658 0.4437 0.72138 0.0
O725 O 0.60592 0.42722 0.67918 0.0
O726 O 0.68218 0.46421 0.77187 0.0
O727 O 0.65774 0.3876 0.68813 0.0
O728 O 0.70177 0.42785 0.73627 0.0
C729 C 0.61761 0.54279 0.73864 0.0
C730 C 0.64594 0.2874 0.74591 0.0
C731 C 0.51565 0.41306 0.73256 0.0
C732 C 0.59 0.40182 0.8106 0.0
C733 C 0.63481 0.40442 0.67187 0.0
C734 C 0.70748 0.45515 0.7554 0.0
O735 O 0.61213 0.51863 0.71811 0.0
C736 C 0.4105 0.87102 0.01369 0.0
C737 C 0.41587 0.84362 -0.00882 0.0
C738 C 0.38905 0.91308 0.01337 0.0
C739 C 0.3716 0.92931 -0.0094 0.0
H740 H 0.42328 0.86017 0.03168 0.0
H741 H 0.38693 0.93358 0.03103 0.0
S742 S 0.37364 0.86816 0.92692 0.0
N743 N 0.39974 0.83462 0.94573 0.0
N744 N 0.35928 0.91243 0.94533 0.0
C745 C 0.37569 0.90128 0.96819 0.0
C746 C 0.39785 0.85894 0.96842 0.0
C747 C 0.88031 0.42014 0.01495 0.0
C748 C 0.8532 0.43584 -0.0028 0.0
C749 C 0.89522 0.37378 0.01362 0.0
C750 C 0.88333 0.34117 -0.00537 0.0
H751 H 0.89128 0.44448 0.02928 0.0
H752 H 0.91654 0.36372 0.02736 0.0
S753 S 0.81009 0.36426 0.94509 0.0
N754 N 0.81354 0.41476 0.96115 0.0
N755 N 0.8404 0.32797 0.95866 0.0
C756 C 0.85501 0.35628 0.97741 0.0
C757 C 0.84028 0.40343 0.9787 0.0
C758 C 0.39372 0.41636 0.26003 0.0
C759 C 0.41183 0.43519 0.23811 0.0
C760 C 0.37249 0.37457 0.25873 0.0
C761 C 0.36835 0.34901 0.2355 0.0
H762 H 0.39539 0.43439 0.27849 0.0
H763 H 0.35962 0.36189 0.27637 0.0
S764 S 0.41011 0.38252 0.17232 0.0
N765 N 0.42393 0.4249 0.19223 0.0
N766 N 0.38447 0.34589 0.18982 0.0
C767 C 0.38609 0.36745 0.21329 0.0
C768 C 0.40771 0.41042 0.21461 0.0
C769 C 0.9092 0.86853 0.26242 0.0
C770 C 0.88689 0.85191 0.24186 0.0
C771 C 0.92806 0.91209 0.26113 0.0
C772 C 0.92579 0.94138 0.23919 0.0
H773 H 0.91225 0.84777 0.27989 0.0
H774 H 0.94411 0.92322 0.27778 0.0
S775 S 0.87174 0.91458 0.17971 0.0
N776 N 0.86428 0.86815 0.19853 0.0
N777 N 0.89959 0.95032 0.19611 0.0
C778 C 0.90424 0.92497 0.21819 0.0
C779 C 0.88486 0.88031 0.21953 0.0
C780 C 0.63807 0.10736 0.96992 0.0
C781 C 0.65568 0.08725 -0.00835 0.0
C782 C 0.62354 0.1536 0.97044 0.0
C783 C 0.62557 0.182 -0.00722 0.0
H784 H 0.63536 0.08724 0.95217 0.0
H785 H 0.61074 0.16725 0.95302 0.0
S786 S 0.66908 0.14704 0.05501 0.0
N787 N 0.67441 0.09991 0.03631 0.0
N788 N 0.64709 0.18686 0.03727 0.0
C789 C 0.64295 0.1625 0.01477 0.0
C790 C 0.65808 0.1153 0.01418 0.0
C791 C 0.15301 0.67127 0.97239 0.0
C792 C 0.13598 0.69141 -0.00556 0.0
C793 C 0.16841 0.62557 0.97274 0.0
C794 C 0.1678 0.59753 -0.00481 0.0
H795 H 0.1545 0.69088 0.95442 0.0
H796 H 0.18053 0.61192 0.95505 0.0
S797 S 0.1267 0.63275 0.05834 0.0
N798 N 0.1197 0.67937 0.03958 0.0
N799 N 0.14853 0.59314 0.04025 0.0
C800 C 0.15124 0.61712 0.01754 0.0
C801 C 0.1353 0.66394 0.01717 0.0
C802 C 0.6513 0.66467 0.71506 0.0
C803 C 0.6748 0.68003 0.7353 0.0
C804 C 0.63278 0.6204 0.71608 0.0
C805 C 0.63661 0.59005 0.73753 0.0
H806 H 0.64615 0.68765 0.69868 0.0
H807 H 0.61474 0.61035 0.70023 0.0
S808 S 0.69875 0.61065 0.79395 0.0
N809 N 0.70358 0.65888 0.77616 0.0
N810 N 0.66878 0.57676 0.7783 0.0
C811 C 0.6612 0.60427 0.75737 0.0
C812 C 0.68026 0.64886 0.75618 0.0
C813 C 0.14399 0.16309 0.71982 0.0
C814 C 0.17219 0.17879 0.73678 0.0
C815 C 0.12933 0.11662 0.72137 0.0
C816 C 0.14229 0.08405 0.73997 0.0
H817 H 0.13225 0.18738 0.70579 0.0
H818 H 0.10732 0.10644 0.70817 0.0
S819 S 0.21914 0.10639 0.78687 0.0
N820 N 0.21433 0.15727 0.77139 0.0
N821 N 0.18775 0.07033 0.77426 0.0
C822 C 0.17153 0.09913 0.75642 0.0
C823 C 0.18617 0.14631 0.75486 0.0
C824 C 0.39251 0.36431 0.51244 0.0
C825 C 0.41561 0.35126 0.4915 0.0
C826 C 0.37192 0.4071 0.51222 0.0
C827 C 0.37316 0.43814 0.49089 0.0
H828 H 0.38944 0.34068 0.5288 0.0
H829 H 0.35442 0.4155 0.52867 0.0
S830 S 0.43303 0.4232 0.43265 0.0
N831 N 0.44104 0.37513 0.45001 0.0
N832 N 0.40229 0.4544 0.44926 0.0
C833 C 0.39714 0.42606 0.47023 0.0
C834 C 0.41832 0.38301 0.47062 0.0
C835 C 0.88671 0.90968 0.47035 0.0
C836 C 0.87861 0.93469 0.49326 0.0
C837 C 0.90586 0.86631 0.47064 0.0
C838 C 0.91787 0.84526 0.49388 0.0
H839 H 0.87858 0.92397 0.45177 0.0
H840 H 0.91086 0.84897 0.45227 0.0
S841 S 0.90405 0.8959 0.55952 0.0
N842 N 0.88449 0.93515 0.54008 0.0
N843 N 0.92007 0.85308 0.54067 0.0
C844 C 0.90984 0.8696 0.51707 0.0
C845 C 0.89028 0.91421 0.51677 0.0
C846 C 0.4431 0.89651 0.75097 0.0
C847 C 0.42944 0.92998 0.73331 0.0
C848 C 0.42788 0.85075 0.75251 0.0
C849 C 0.39774 0.83635 0.73675 0.0
H850 H 0.46548 0.90601 0.76404 0.0
H851 H 0.43987 0.82666 0.76654 0.0
S852 S 0.35088 0.91172 0.68773 0.0
N853 N 0.38376 0.94633 0.69982 0.0
N854 N 0.35479 0.86023 0.70282 0.0
C855 C 0.38394 0.86951 0.71878 0.0
C856 C 0.39986 0.91625 0.71703 0.0
C857 C 0.92965 0.35418 0.75833 0.0
C858 C 0.90648 0.3365 0.73854 0.0
C859 C 0.94206 0.40147 0.75842 0.0
C860 C 0.93262 0.43298 0.73842 0.0
H861 H 0.93766 0.33163 0.77433 0.0
H862 H 0.95874 0.41367 0.77455 0.0
S863 S 0.8746 0.4042 0.68117 0.0
N864 N 0.87581 0.35413 0.69779 0.0
N865 N 0.89971 0.44285 0.69775 0.0
C866 C 0.91061 0.4155 0.71799 0.0
C867 C 0.89733 0.36741 0.71814 0.0
C868 C 0.66021 0.62089 0.51619 0.0
C869 C 0.66265 0.59344 0.49343 0.0
C870 C 0.64138 0.66498 0.51659 0.0
C871 C 0.62379 0.68319 0.49434 0.0
H872 H 0.67338 0.60857 0.53376 0.0
H873 H 0.6416 0.68554 0.5343 0.0
S874 S 0.618 0.62281 0.43057 0.0
N875 N 0.64324 0.58665 0.44848 0.0
N876 N 0.60753 0.66809 0.4495 0.0
C877 C 0.62472 0.6551 0.4718 0.0
C878 C 0.64422 0.61076 0.47126 0.0
C879 C 0.14752 0.11343 0.51593 0.0
C880 C 0.17472 0.0988 0.49785 0.0
C881 C 0.13015 0.15838 0.51418 0.0
C882 C 0.13912 0.1903 0.49416 0.0
H883 H 0.1386 0.08936 0.53105 0.0
H884 H 0.10908 0.16777 0.5283 0.0
S885 S 0.21197 0.17105 0.44377 0.0
N886 N 0.21192 0.12139 0.46067 0.0
N887 N 0.17993 0.20513 0.45723 0.0
C888 C 0.16741 0.17653 0.47657 0.0
C889 C 0.185 0.13108 0.47844 0.0
C890 C 0.65261 0.16971 0.21693 0.0
C891 C 0.67057 0.18746 0.23917 0.0
C892 C 0.6331 0.1262 0.21735 0.0
C893 C 0.63039 0.0989 0.24008 0.0
H894 H 0.65248 0.19031 0.19927 0.0
H895 H 0.6195 0.11429 0.19983 0.0
S896 S 0.67628 0.12669 0.30268 0.0
N897 N 0.68708 0.17198 0.28389 0.0
N898 N 0.65036 0.09111 0.28482 0.0
C899 C 0.64939 0.1155 0.26217 0.0
C900 C 0.66948 0.15941 0.26166 0.0
C901 C 0.15105 0.67185 0.22112 0.0
C902 C 0.17861 0.68706 0.2387 0.0
C903 C 0.13476 0.62636 0.22298 0.0
C904 C 0.14535 0.59419 0.24248 0.0
H905 H 0.14105 0.69583 0.20632 0.0
H906 H 0.11342 0.61661 0.20917 0.0
S907 S 0.21943 0.61531 0.29161 0.0
N908 N 0.21756 0.66536 0.27506 0.0
N909 N 0.18774 0.5802 0.27857 0.0
C910 C 0.17389 0.60867 0.25966 0.0
C911 C 0.19026 0.65491 0.25776 0.0
C912 C 0.39963 0.16101 0.88003 0.0
C913 C 0.37235 0.12838 0.88844 0.0
C914 C 0.41445 0.15866 0.85474 0.0
C915 C 0.40266 0.12333 0.83721 0.0
H916 H 0.41103 0.18672 0.89347 0.0
H917 H 0.43624 0.18337 0.84927 0.0
S918 S 0.32747 0.03448 0.84912 0.0
N919 N 0.33155 0.06328 0.87675 0.0
N920 N 0.35825 0.05899 0.82951 0.0
C921 C 0.3736 0.09259 0.84516 0.0
C922 C 0.3588 0.09504 0.87069 0.0
C923 C 0.90161 0.19108 0.8519 0.0
C924 C 0.88933 0.1489 0.83995 0.0
C925 C 0.91399 0.19151 0.87746 0.0
C926 C 0.91511 0.14972 0.89229 0.0
H927 H 0.9017 0.22436 0.84137 0.0
H928 H 0.92233 0.22523 0.88581 0.0
S929 S 0.88646 0.0295 0.87029 0.0
N930 N 0.87945 0.06383 0.84486 0.0
N931 N 0.90269 0.06469 0.89327 0.0
C932 C 0.90328 0.10701 0.88065 0.0
C933 C 0.89022 0.10664 0.85447 0.0
C934 C 0.42127 0.19615 0.37232 0.0
C935 C 0.41877 0.15506 0.38762 0.0
C936 C 0.40598 0.19795 0.34757 0.0
C937 C 0.38723 0.15869 0.33663 0.0
H938 H 0.43429 0.22805 0.37988 0.0
H939 H 0.40864 0.23111 0.33711 0.0
S940 S 0.37448 0.04124 0.36823 0.0
N941 N 0.39717 0.07324 0.38993 0.0
N942 N 0.36865 0.07619 0.34291 0.0
C943 C 0.38549 0.11655 0.35137 0.0
C944 C 0.4013 0.11477 0.37688 0.0
C945 C 0.89414 0.16898 0.34996 0.0
C946 C 0.92511 0.14138 0.34242 0.0
C947 C 0.8794 0.16599 0.37522 0.0
C948 C 0.89505 0.13497 0.3936 0.0
H949 H 0.87997 0.19094 0.33587 0.0
H950 H 0.85479 0.18653 0.38001 0.0
S951 S 0.97971 0.05995 0.38367 0.0
N952 N 0.97267 0.0855 0.35544 0.0
N953 N 0.94641 0.08025 0.40275 0.0
C954 C 0.92757 0.10948 0.3864 0.0
C955 C 0.94217 0.11251 0.36085 0.0
C956 C 0.64383 0.95136 0.12996 0.0
C957 C 0.64179 0.90958 0.14478 0.0
C958 C 0.65498 0.94995 0.10401 0.0
C959 C 0.66345 0.90655 0.09184 0.0
H960 H 0.63733 0.98549 0.13861 0.0
H961 H 0.65578 0.98287 0.09316 0.0
S962 S 0.66227 0.78725 0.12217 0.0
N963 N 0.65002 0.82386 0.1457 0.0
N964 N 0.66901 0.82088 0.09642 0.0
C965 C 0.66134 0.86452 0.10639 0.0
C966 C 0.65107 0.86613 0.13303 0.0
C967 C 0.11694 0.8783 0.13567 0.0
C968 C 0.15452 0.87911 0.14371 0.0
C969 C 0.10745 0.87753 0.10935 0.0
C970 C 0.1352 0.87891 0.09023 0.0
H971 H 0.09468 0.87689 0.14981 0.0
H972 H 0.07829 0.87612 0.10396 0.0
S973 S 0.23763 0.88178 0.10112 0.0
N974 N 0.21945 0.88117 0.13043 0.0
N975 N 0.20186 0.88102 0.0811 0.0
C976 C 0.17285 0.88048 0.09805 0.0
C977 C 0.18246 0.88024 0.12475 0.0
C978 C 0.66941 0.88065 0.59967 0.0
C979 C 0.63238 0.87658 0.59081 0.0
C980 C 0.67788 0.87969 0.6261 0.0
C981 C 0.64959 0.87581 0.64478 0.0
H982 H 0.69229 0.88293 0.58603 0.0
H983 H 0.70684 0.88163 0.63193 0.0
S984 S 0.54793 0.86652 0.63185 0.0
N985 N 0.56713 0.86977 0.6029 0.0
N986 N 0.58279 0.86923 0.6526 0.0
C987 C 0.61231 0.87331 0.63624 0.0
C988 C 0.60377 0.87331 0.60928 0.0
C989 C 0.17793 0.89482 0.60752 0.0
C990 C 0.15019 0.90206 0.58889 0.0
C991 C 0.16885 0.89242 0.6338 0.0
C992 C 0.13184 0.89848 0.64246 0.0
H993 H 0.20683 0.89096 0.60177 0.0
H994 H 0.19127 0.88722 0.64751 0.0
S995 S 0.049 0.91916 0.60135 0.0
N996 N 0.08408 0.91502 0.58075 0.0
N997 N 0.06736 0.91206 0.63034 0.0
C998 C 0.10384 0.90589 0.62404 0.0
C999 C 0.11293 0.9072 0.5972 0.0
C1000 C 0.39474 0.66568 0.35041 0.0
C1001 C 0.42313 0.63453 0.34215 0.0
C1002 C 0.3802 0.66323 0.37574 0.0
C1003 C 0.39349 0.62931 0.39352 0.0
H1004 H 0.38218 0.69012 0.3368 0.0
H1005 H 0.35749 0.68667 0.38105 0.0
S1006 S 0.47147 0.54422 0.38177 0.0
N1007 N 0.46617 0.57208 0.354 0.0
N1008 N 0.44019 0.56767 0.40141 0.0
C1009 C 0.42363 0.60009 0.38567 0.0
C1010 C 0.43805 0.6026 0.36004 0.0
C1011 C 0.93091 0.68008 0.37608 0.0
C1012 C 0.92064 0.64354 0.39297 0.0
C1013 C 0.91598 0.68304 0.35128 0.0
C1014 C 0.88956 0.64979 0.34203 0.0
H1015 H 0.94972 0.7079 0.38246 0.0
H1016 H 0.92506 0.71264 0.33947 0.0
S1017 S 0.85446 0.54563 0.37866 0.0
N1018 N 0.88345 0.57212 0.3989 0.0
N1019 N 0.85526 0.57733 0.35179 0.0
C1020 C 0.88003 0.61173 0.35844 0.0
C1021 C 0.89558 0.60868 0.38398 0.0
C1022 C 0.3738 0.68711 0.85644 0.0
C1023 C 0.37565 0.64526 0.84174 0.0
C1024 C 0.38907 0.68964 0.88116 0.0
C1025 C 0.40712 0.65035 0.89263 0.0
H1026 H 0.36143 0.719 0.84841 0.0
H1027 H 0.38687 0.72337 0.89117 0.0
S1028 S 0.41801 0.53119 0.86257 0.0
N1029 N 0.39591 0.56277 0.84046 0.0
N1030 N 0.42431 0.56713 0.88748 0.0
C1031 C 0.40812 0.60749 0.87848 0.0
C1032 C 0.39238 0.60498 0.853 0.0
C1033 C 0.89761 0.66638 0.8535 0.0
C1034 C 0.92415 0.63287 0.84499 0.0
C1035 C 0.88209 0.66385 0.87858 0.0
C1036 C 0.8925 0.6276 0.89595 0.0
H1037 H 0.88726 0.69306 0.84025 0.0
H1038 H 0.86097 0.6895 0.88404 0.0
S1039 S 0.96498 0.53521 0.8836 0.0
N1040 N 0.96253 0.56532 0.85634 0.0
N1041 N 0.93457 0.56056 0.9032 0.0
C1042 C 0.92073 0.59562 0.88788 0.0
C1043 C 0.9362 0.59825 0.8625 0.0
C1044 C 0.61513 0.39848 0.62566 0.0
C1045 C 0.64381 0.40094 0.64404 0.0
C1046 C 0.62319 0.39798 0.59915 0.0
C1047 C 0.66017 0.4012 0.59006 0.0
H1048 H 0.58624 0.39718 0.63178 0.0
H1049 H 0.60012 0.39674 0.58568 0.0
S1050 S 0.74541 0.40778 0.6303 0.0
N1051 N 0.71081 0.40546 0.65134 0.0
N1052 N 0.72572 0.40588 0.6015 0.0
C1053 C 0.68913 0.4032 0.60823 0.0
C1054 C 0.681 0.40267 0.63522 0.0
C1055 C 0.11364 0.37615 0.63395 0.0
C1056 C 0.15084 0.37665 0.64275 0.0
C1057 C 0.10529 0.37607 0.60745 0.0
C1058 C 0.13381 0.37787 0.58885 0.0
H1059 H 0.0908 0.37415 0.64763 0.0
H1060 H 0.07636 0.37448 0.6015 0.0
S1061 S 0.23569 0.38123 0.6019 0.0
N1062 N 0.21627 0.37959 0.63082 0.0
N1063 N 0.20081 0.38088 0.58113 0.0
C1064 C 0.17109 0.37967 0.59746 0.0
C1065 C 0.17955 0.37866 0.62437 0.0
C1066 C 0.65455 0.4162 0.12772 0.0
C1067 C 0.66454 0.3739 0.14051 0.0
C1068 C 0.64477 0.41592 0.10142 0.0
C1069 C 0.64317 0.37306 0.08749 0.0
H1070 H 0.65433 0.44966 0.13812 0.0
H1071 H 0.63767 0.44916 0.09209 0.0
S1072 S 0.66639 0.25285 0.11194 0.0
N1073 N 0.67275 0.28829 0.13702 0.0
N1074 N 0.65288 0.28762 0.08804 0.0
C1075 C 0.65299 0.33066 0.10003 0.0
C1076 C 0.66405 0.33111 0.12646 0.0
C1077 C 0.13455 0.37006 0.13022 0.0
C1078 C 0.1301 0.41356 0.14335 0.0
C1079 C 0.14499 0.3689 0.10409 0.0
C1080 C 0.15284 0.41111 0.09065 0.0
H1081 H 0.12991 0.33676 0.14023 0.0
H1082 H 0.14745 0.33482 0.09444 0.0
S1083 S 0.14548 0.53399 0.11625 0.0
N1084 N 0.13379 0.49974 0.14086 0.0
N1085 N 0.15478 0.49748 0.09207 0.0
C1086 C 0.14865 0.45474 0.10358 0.0
C1087 C 0.13691 0.45599 0.12987 0.0
C1088 C 0.53676 0.98366 0.00605 0.0
C1089 C 0.5473 0.95744 0.98404 0.0
C1090 C 0.50716 0.01591 0.00515 0.0
C1091 C 0.48681 0.02259 0.9823 0.0
H1092 H 0.55211 0.98029 0.02396 0.0
H1093 H 0.49978 0.03503 0.0226 0.0
S1094 S 0.50287 0.96178 0.9195 0.0
N1095 N 0.53498 0.93976 0.9389 0.0
N1096 N 0.47906 1.00019 0.93713 0.0
C1097 C 0.49688 0.99625 0.9602 0.0
C1098 C 0.52716 0.96368 0.9611 0.0
C1099 C 0.78249 0.24545 0.00511 0.0
C1100 C 0.79168 0.21554 0.98426 0.0
C1101 C 0.75678 0.28235 0.00226 0.0
C1102 C 0.73889 0.29049 0.97853 0.0
H1103 H 0.79557 0.24087 0.02379 0.0
H1104 H 0.74995 0.30348 0.01913 0.0
S1105 S 0.75448 0.22374 0.91753 0.0
N1106 N 0.78186 0.19753 0.93877 0.0
N1107 N 0.7334 0.26699 0.93342 0.0
C1108 C 0.74839 0.2615 0.95734 0.0
C1109 C 0.77468 0.22394 0.96023 0.0
C1110 C 0.48876 0.29894 0.23296 0.0
C1111 C 0.4872 0.25039 0.23917 0.0
C1112 C 0.522 0.32438 0.23561 0.0
C1113 C 0.5541 0.30223 0.2454 0.0
H1114 H 0.46414 0.31725 0.22602 0.0
H1115 H 0.52247 0.36163 0.23028 0.0
S1116 S 0.56304 0.17598 0.26547 0.0
N1117 N 0.51945 0.18114 0.25571 0.0
N1118 N 0.58205 0.22896 0.26151 0.0
C1119 C 0.55254 0.25367 0.25197 0.0
C1120 C 0.51898 0.22766 0.24862 0.0
C1121 C 0.73963 0.04125 0.24799 0.0
C1122 C 0.73908 0.99284 0.25459 0.0
C1123 C 0.77331 0.06614 0.2466 0.0
C1124 C 0.80716 0.04338 0.25231 0.0
H1125 H 0.71399 0.05958 0.24321 0.0
H1126 H 0.77282 0.10333 0.24116 0.0
S1127 S 0.81924 0.91714 0.27186 0.0
N1128 N 0.77397 0.92313 0.26733 0.0
N1129 N 0.83767 0.96967 0.26551 0.0
C1130 C 0.80659 0.99498 0.25949 0.0
C1131 C 0.77236 0.96968 0.26039 0.0
C1132 C 0.25414 0.79545 0.00587 0.0
C1133 C 0.24278 0.81618 0.98238 0.0
C1134 C 0.28381 0.76334 0.00673 0.0
C1135 C 0.30342 0.75157 0.98422 0.0
H1136 H 0.2395 0.8032 0.02371 0.0
H1137 H 0.29205 0.74868 0.02521 0.0
S1138 S 0.28482 0.79552 0.91791 0.0
N1139 N 0.25322 0.82214 0.93609 0.0
N1140 N 0.3096 0.76226 0.93775 0.0
C1141 C 0.29249 0.77199 0.96061 0.0
C1142 C 0.26201 0.80423 0.95969 0.0
C1143 C 0.5356 0.77495 0.73146 0.0
C1144 C 0.55814 0.77571 0.75366 0.0
C1145 C 0.50697 0.74172 0.72874 0.0
C1146 C 0.49945 0.70841 0.74827 0.0
H1147 H 0.54056 0.79948 0.7157 0.0
H1148 H 0.48999 0.74306 0.71146 0.0
S1149 S 0.54978 0.69573 0.81039 0.0
N1150 N 0.57089 0.74028 0.79564 0.0
N1151 N 0.51645 0.67812 0.7906 0.0
C1152 C 0.52151 0.70888 0.77066 0.0
C1153 C 0.55096 0.74248 0.77336 0.0
C1154 C 0.29386 1.00716 0.76661 0.0
C1155 C 0.30548 0.02646 0.74289 0.0
C1156 C 0.26398 0.97551 0.76788 0.0
C1157 C 0.24516 0.96141 0.7454 0.0
H1158 H 0.30815 0.01644 0.78435 0.0
H1159 H 0.25566 0.96195 0.7866 0.0
S1160 S 0.2652 1.00224 0.67845 0.0
N1161 N 0.29626 0.02993 0.69653 0.0
N1162 N 0.24003 0.96992 0.69857 0.0
C1163 C 0.25658 0.98063 0.72147 0.0
C1164 C 0.28669 1.01348 0.72031 0.0
C1165 C 0.54999 0.53007 0.47637 0.0
C1166 C 0.55261 0.48365 0.48642 0.0
C1167 C 0.51788 0.55733 0.48003 0.0
C1168 C 0.4875 0.53877 0.49368 0.0
H1169 H 0.57298 0.54575 0.46582 0.0
H1170 H 0.51634 0.59242 0.47146 0.0
S1171 S 0.48005 0.42043 0.52434 0.0
N1172 N 0.52194 0.42102 0.5111 0.0
N1173 N 0.46126 0.4725 0.51748 0.0
C1174 C 0.48955 0.49284 0.50391 0.0
C1175 C 0.52226 0.46516 0.50042 0.0
C1176 C 0.78521 0.75217 0.50751 0.0
C1177 C 0.80174 0.73508 0.48478 0.0
C1178 C 0.75441 0.78246 0.50641 0.0
C1179 C 0.73892 0.79579 0.48254 0.0
H1180 H 0.79687 0.74339 0.52621 0.0
H1181 H 0.74224 0.79475 0.52438 0.0
S1182 S 0.77158 0.75898 0.41758 0.0
N1183 N 0.80055 0.73277 0.43783 0.0
N1184 N 0.74183 0.7889 0.43576 0.0
C1185 C 0.75484 0.77816 0.4597 0.0
C1186 C 0.78651 0.74795 0.46082 0.0
C1187 C 0.78725 0.52938 0.73118 0.0
C1188 C 0.80355 0.54585 0.75408 0.0
C1189 C 0.75685 0.49855 0.73196 0.0
C1190 C 0.74143 0.48397 0.75566 0.0
H1191 H 0.79891 0.5389 0.71257 0.0
H1192 H 0.74503 0.48663 0.71382 0.0
S1193 S 0.77299 0.5196 0.82098 0.0
N1194 N 0.80192 0.54686 0.80104 0.0
N1195 N 0.74367 0.48968 0.8025 0.0
C1196 C 0.75683 0.50132 0.7787 0.0
C1197 C 0.78822 0.53211 0.77791 0.0
C1198 C 0.28184 0.25676 0.50295 0.0
C1199 C 0.29965 0.24262 0.48011 0.0
C1200 C 0.25198 0.28853 0.50226 0.0
C1201 C 0.23862 0.30667 0.47866 0.0
H1202 H 0.29193 0.24473 0.52154 0.0
H1203 H 0.23906 0.2985 0.5204 0.0
S1204 S 0.27445 0.27761 0.41331 0.0
N1205 N 0.30124 0.24708 0.43319 0.0
N1206 N 0.24449 0.30642 0.43184 0.0
C1207 C 0.25556 0.29161 0.45561 0.0
C1208 C 0.28623 0.25963 0.45635 0.0
C1209 C 0.25307 0.49439 0.22877 0.0
C1210 C 0.2413 0.47217 0.25176 0.0
C1211 C 0.28183 0.52789 0.22882 0.0
C1212 C 0.30016 0.53995 0.25181 0.0
H1213 H 0.23984 0.48621 0.2105 0.0
H1214 H 0.29073 0.54292 0.21056 0.0
S1215 S 0.27879 0.49443 0.31743 0.0
N1216 N 0.24918 0.46643 0.29834 0.0
N1217 N 0.30363 0.5292 0.29836 0.0
C1218 C 0.28818 0.51897 0.27504 0.0
C1219 C 0.25871 0.48508 0.27503 0.0
C1220 C 0.03356 0.99283 0.50824 0.0
C1221 C 0.05745 1.00025 0.48696 0.0
C1222 C 1.00272 0.02209 0.51249 0.0
C1223 C 0.99495 0.0596 0.49564 0.0
H1224 H 0.03846 0.96401 0.52169 0.0
H1225 H 0.98379 1.01378 0.52819 0.0
S1226 S 0.04861 0.09564 0.43779 0.0
N1227 N 0.0715 0.04945 0.4494 0.0
N1228 N 1.01286 0.10385 0.45743 0.0
C1229 C 1.01881 0.06839 0.47477 0.0
C1230 C 0.05029 0.03884 0.47041 0.0
C1231 C 0.0545 0.23121 0.75638 0.0
C1232 C 0.05389 0.27533 0.74349 0.0
C1233 C 0.02806 0.19617 0.75117 0.0
C1234 C 0.99997 0.20354 0.73281 0.0
H1235 H 0.0758 0.22316 0.77053 0.0
H1236 H 0.02915 0.16327 0.76203 0.0
S1237 S 0.98489 0.31276 0.69407 0.0
N1238 N 0.02214 0.32455 0.71165 0.0
N1239 N 0.97224 0.2582 0.70194 0.0
C1240 C 0.9989 0.24715 0.71958 0.0
C1241 C 0.02578 0.28322 0.725 0.0
C1242 C 1.01173 0.75201 0.22333 0.0
C1243 C 0.99865 0.72632 0.24465 0.0
C1244 C 0.04216 0.78262 0.22588 0.0
C1245 C 0.06054 0.78785 0.24974 0.0
H1246 H 0.99715 0.75046 0.20503 0.0
H1247 H 0.05134 0.80226 0.20904 0.0
S1248 S 0.03792 0.72549 0.31081 0.0
N1249 N 1.00668 0.70604 0.28991 0.0
N1250 N 0.0646 0.76298 0.29464 0.0
C1251 C 0.04856 0.76072 0.27089 0.0
C1252 C 1.0174 0.73002 0.26834 0.0
C1253 C 0.98318 0.48908 0.00084 0.0
C1254 C 0.98263 0.53858 -0.00268 0.0
C1255 C 1.01593 0.46324 -0.00297 0.0
C1256 C 0.04861 0.4861 0.98878 0.0
H1257 H 0.95798 0.47021 0.00621 0.0
H1258 H 1.01551 0.42513 0.0001 0.0
S1259 S 0.06097 0.61531 0.97685 0.0
N1260 N 1.01691 0.60973 0.98559 0.0
N1261 N 0.07873 0.56116 0.97777 0.0
C1262 C 0.04837 0.53574 0.98533 0.0
C1263 C 1.01523 0.56208 0.98983 0.0
C1264 C 0.33153 0.1437 0.12625 0.0
C1265 C 0.36486 0.14954 0.14024 0.0
C1266 C 0.33204 0.13218 0.09983 0.0
C1267 C 0.36589 0.12694 0.08628 0.0
H1268 H 0.30483 0.14736 0.13586 0.0
H1269 H 0.30568 0.12796 0.08989 0.0
S1270 S 0.46097 0.13944 0.11388 0.0
N1271 N 0.43268 0.14961 0.13843 0.0
N1272 N 0.43363 0.12856 0.08896 0.0
C1273 C 0.3994 0.13309 0.10002 0.0
C1274 C 0.39888 0.14421 0.12692 0.0
C1275 C 0.95945 0.14702 0.13119 0.0
C1276 C 0.92632 0.14241 0.14569 0.0
C1277 C 0.95851 0.1565 0.10452 0.0
C1278 C 0.92439 0.16064 0.0914 0.0
H1279 H 0.98633 0.14334 0.14049 0.0
H1280 H 0.98456 0.1591 0.094 0.0
S1281 S 0.82982 0.15317 0.12036 0.0
N1282 N 0.85846 0.1443 0.14481 0.0
N1283 N 0.85679 0.16124 0.09489 0.0
C1284 C 0.89116 0.1568 0.1057 0.0
C1285 C 0.89208 0.14792 0.13278 0.0
C1286 C 0.70225 0.9203 0.85086 0.0
C1287 C 0.7058 0.87491 0.8397 0.0
C1288 C 0.70104 0.92609 0.87773 0.0
C1289 C 0.7041 0.88682 0.89444 0.0
H1290 H 0.69872 0.95139 0.83877 0.0
H1291 H 0.69692 0.96152 0.88547 0.0
S1292 S 0.71736 0.7609 0.87488 0.0
N1293 N 0.7148 0.79033 0.84737 0.0
N1294 N 0.71311 0.80129 0.89786 0.0
C1295 C 0.70961 0.84153 0.88353 0.0
C1296 C 0.71026 0.83554 0.85617 0.0
C1297 C 0.08799 0.92734 0.88187 0.0
C1298 C 0.08501 0.88279 0.89393 0.0
C1299 C 0.09003 0.9309 0.85494 0.0
C1300 C 0.08833 0.89014 0.83917 0.0
H1301 H 0.09096 0.9594 0.89332 0.0
H1302 H 0.09397 0.96574 0.84643 0.0
S1303 S 0.07595 0.76575 0.86145 0.0
N1304 N 0.07737 0.79752 0.88827 0.0
N1305 N 0.0803 0.80423 0.83756 0.0
C1306 C 0.08282 0.8457 0.85098 0.0
C1307 C 0.08143 0.84202 0.87841 0.0
C1308 C 0.39149 0.64655 0.62875 0.0
C1309 C 0.35838 0.65117 0.64312 0.0
C1310 C 0.39075 0.63842 0.60215 0.0
C1311 C 0.35686 0.63363 0.58877 0.0
H1312 H 0.41839 0.64936 0.63814 0.0
H1313 H 0.41713 0.63505 0.59207 0.0
S1314 S 0.26216 0.64303 0.61736 0.0
N1315 N 0.29061 0.65111 0.64206 0.0
N1316 N 0.28914 0.63471 0.59184 0.0
C1317 C 0.3234 0.63821 0.60283 0.0
C1318 C 0.32418 0.64742 0.63003 0.0
C1319 C 0.96058 0.64736 0.60526 0.0
C1320 C 0.927 0.65263 0.59151 0.0
C1321 C 0.96055 0.63799 0.63191 0.0
C1322 C 0.92697 0.63448 0.64595 0.0
H1323 H 0.98709 0.64965 0.59527 0.0
H1324 H 0.98709 0.63389 0.64162 0.0
S1325 S 0.83145 0.64711 0.61913 0.0
N1326 N 0.85928 0.65449 0.59404 0.0
N1327 N 0.8592 0.63766 0.644 0.0
C1328 C 0.89322 0.64042 0.63246 0.0
C1329 C 0.89325 0.64925 0.60531 0.0
C1330 C 0.70255 0.43183 0.34984 0.0
C1331 C 0.70338 0.3864 0.33853 0.0
C1332 C 0.70191 0.4373 0.37676 0.0
C1333 C 0.70293 0.39758 0.3933 0.0
H1334 H 0.70085 0.46329 0.33785 0.0
H1335 H 0.70011 0.47292 0.38467 0.0
S1336 S 0.70851 0.27109 0.37315 0.0
N1337 N 0.70732 0.3011 0.34578 0.0
N1338 N 0.70689 0.3114 0.39634 0.0
C1339 C 0.70553 0.35206 0.38219 0.0
C1340 C 0.70551 0.34647 0.35481 0.0
C1341 C 0.08198 0.42944 0.38227 0.0
C1342 C 0.08047 0.38381 0.39327 0.0
C1343 C 0.08351 0.43532 0.35545 0.0
C1344 C 0.08277 0.39585 0.33873 0.0
H1345 H 0.08421 0.46068 0.39444 0.0
H1346 H 0.08643 0.47096 0.34777 0.0
S1347 S 0.07439 0.2692 0.35795 0.0
N1348 N 0.07515 0.29876 0.38553 0.0
N1349 N 0.07727 0.30984 0.33505 0.0
C1350 C 0.07867 0.35024 0.34947 0.0
C1351 C 0.07776 0.34421 0.37678 0.0
C1352 C 0.83983 0.09928 0.6055 0.0
C1353 C 0.84602 0.1373 0.58847 0.0
C1354 C 0.8402 0.10645 0.63229 0.0
C1355 C 0.84559 0.15206 0.64285 0.0
H1356 H 0.83688 0.06338 0.59815 0.0
H1357 H 0.83751 0.07584 0.64485 0.0
S1358 S 0.85877 0.26403 0.60634 0.0
N1359 N 0.85513 0.22255 0.58384 0.0
N1360 N 0.8544 0.23622 0.63427 0.0
C1361 C 0.84926 0.19081 0.626 0.0
C1362 C 0.8499 0.18335 0.59874 0.0
C1363 C 0.39543 0.14666 0.6004 0.0
C1364 C 0.42872 0.15339 0.58643 0.0
C1365 C 0.39583 0.13696 0.62695 0.0
C1366 C 0.42955 0.13268 0.64063 0.0
H1367 H 0.36869 0.14932 0.5908 0.0
H1368 H 0.36938 0.13221 0.63675 0.0
S1369 S 0.52464 0.14649 0.61312 0.0
N1370 N 0.49651 0.15501 0.58834 0.0
N1371 N 0.49727 0.13599 0.63815 0.0
C1372 C 0.46313 0.13899 0.62691 0.0
C1373 C 0.46271 0.14961 0.59988 0.0
C1374 C 0.20448 0.85178 0.35629 0.0
C1375 C 0.20349 0.89056 0.33915 0.0
C1376 C 0.20398 0.85867 0.38309 0.0
C1377 C 0.20177 0.90458 0.3938 0.0
H1378 H 0.20536 0.8157 0.34895 0.0
H1379 H 0.20422 0.82763 0.39547 0.0
S1380 S 0.19959 0.01821 0.35729 0.0
N1381 N 0.20133 0.97663 0.33477 0.0
N1382 N 0.19991 0.98965 0.38513 0.0
C1383 C 0.20144 0.94377 0.37687 0.0
C1384 C 0.20248 0.93675 0.34957 0.0
C1385 C 0.58679 0.92964 0.38355 0.0
C1386 C 0.58823 0.88334 0.39374 0.0
C1387 C 0.58734 0.93737 0.35683 0.0
C1388 C 0.58862 0.89907 0.33934 0.0
H1389 H 0.58669 0.96025 0.39629 0.0
H1390 H 0.58725 0.97367 0.34984 0.0
S1391 S 0.59024 0.7708 0.35617 0.0
N1392 N 0.58926 0.79855 0.38429 0.0
N1393 N 0.58978 0.81307 0.33408 0.0
C1394 C 0.58854 0.85253 0.34926 0.0
C1395 C 0.58853 0.84467 0.37646 0.0
C1396 C 0.83749 0.61186 0.10824 0.0
C1397 C 0.85259 0.64494 0.09071 0.0
C1398 C 0.83841 0.62034 0.13495 0.0
C1399 C 0.8536 0.66261 0.14486 0.0
H1400 H 0.82622 0.57843 0.10135 0.0
H1401 H 0.82784 0.59335 0.14797 0.0
S1402 S 0.89376 0.76219 0.10731 0.0
N1403 N 0.88146 0.72266 0.08527 0.0
N1404 N 0.88228 0.73875 0.13547 0.0
C1405 C 0.86741 0.6967 0.12762 0.0
C1406 C 0.8671 0.68783 0.10051 0.0
C1407 C 0.45626 0.63477 0.12992 0.0
C1408 C 0.42277 0.62993 0.14391 0.0
C1409 C 0.4561 0.6451 0.10337 0.0
C1410 C 0.42243 0.65005 0.08965 0.0
H1411 H 0.48287 0.63124 0.13962 0.0
H1412 H 0.48258 0.64863 0.09346 0.0
S1413 S 0.32703 0.63997 0.11717 0.0
N1414 N 0.35498 0.63064 0.14194 0.0
N1415 N 0.35468 0.6493 0.09217 0.0
C1416 C 0.38876 0.64488 0.10338 0.0
C1417 C 0.38893 0.63505 0.13045 0.0
C1418 C 0.19521 0.35037 0.88282 0.0
C1419 C 0.19315 0.39654 0.89324 0.0
C1420 C 0.19493 0.34287 0.85603 0.0
C1421 C 0.19342 0.38128 0.83867 0.0
H1422 H 0.19595 0.31968 0.89544 0.0
H1423 H 0.19583 0.30666 0.84887 0.0
S1424 S 0.18929 0.50928 0.85605 0.0
N1425 N 0.1905 0.48134 0.88406 0.0
N1426 N 0.19066 0.46723 0.83379 0.0
C1427 C 0.1924 0.42768 0.84882 0.0
C1428 C 0.19205 0.4353 0.87608 0.0
C1429 C 0.58568 0.34425 0.87635 0.0
C1430 C 0.58355 0.38358 0.89316 0.0
C1431 C 0.58542 0.35022 0.84953 0.0
C1432 C 0.58359 0.3958 0.83855 0.0
H1433 H 0.58872 0.30858 0.88394 0.0
H1434 H 0.58868 0.31908 0.83738 0.0
S1435 S 0.57316 0.50997 0.87388 0.0
N1436 N 0.57599 0.46937 0.8968 0.0
N1437 N 0.57596 0.48059 0.84632 0.0
C1438 C 0.57932 0.43522 0.85506 0.0
C1439 C 0.57912 0.42911 0.88239 0.0
C1440 C 0.17502 0.05326 0.96069 0.0
C1441 C 0.15498 0.04547 0.98378 0.0
C1442 C 0.20766 0.08154 0.96025 0.0
C1443 C 0.22148 0.10292 0.98293 0.0
H1444 H 0.1682 0.0327 0.94363 0.0
H1445 H 0.22444 0.08185 0.94283 0.0
S1446 S 0.17615 0.09991 0.04727 0.0
N1447 N 0.14877 0.06692 0.02891 0.0
N1448 N 0.20969 0.11953 0.02815 0.0
C1449 C 0.19927 0.09988 0.00529 0.0
C1450 C 0.16612 0.0714 0.00569 0.0
C1451 C 0.1094 0.23188 0.96315 0.0
C1452 C 0.12878 0.24206 0.98622 0.0
C1453 C 0.07671 0.2036 0.96312 0.0
C1454 C 0.06209 0.18463 0.9862 0.0
H1455 H 0.11696 0.25037 0.94555 0.0
H1456 H 0.06068 0.20102 0.94546 0.0
S1457 S 0.10488 0.19532 0.05106 0.0
N1458 N 0.13305 0.226 0.03208 0.0
N1459 N 0.07203 0.17358 0.03209 0.0
C1460 C 0.08334 0.19053 0.00879 0.0
C1461 C 0.11658 0.2189 0.00877 0.0
C1462 C 0.198 0.18733 0.22515 0.0
C1463 C 0.22021 0.18142 0.24737 0.0
C1464 C 0.16618 0.21671 0.22527 0.0
C1465 C 0.15515 0.24159 0.24762 0.0
H1466 H 0.20754 0.17324 0.2068 0.0
H1467 H 0.1528 0.2244 0.207 0.0
S1468 S 0.19995 0.23247 0.31191 0.0
N1469 N 0.22576 0.19793 0.2932 0.0
N1470 N 0.16621 0.25328 0.29338 0.0
C1471 C 0.17448 0.23154 0.27065 0.0
C1472 C 0.20692 0.20142 0.27055 0.0
C1473 C 0.09549 0.09645 0.22496 0.0
C1474 C 0.07478 0.10583 0.24759 0.0
C1475 C 0.12615 0.06513 0.22501 0.0
C1476 C 0.13754 0.0418 0.24769 0.0
H1477 H 0.08549 0.10945 0.20653 0.0
H1478 H 0.13835 0.05508 0.20663 0.0
S1479 S 0.09648 0.05924 0.31278 0.0
N1480 N 0.071 0.09364 0.29389 0.0
N1481 N 0.12842 0.03474 0.29395 0.0
C1482 C 0.11973 0.05489 0.2709 0.0
C1483 C 0.08848 0.08699 0.27088 0.0
C1484 C 0.83802 0.94051 0.02013 0.0
C1485 C 0.82064 0.92387 -0.00248 0.0
C1486 C 0.86839 0.97204 0.01905 0.0
C1487 C 0.88248 0.98875 -0.00469 0.0
H1488 H 0.82559 0.93315 0.0388 0.0
H1489 H 0.87803 0.98779 0.03696 0.0
S1490 S 0.85143 0.94918 0.93053 0.0
N1491 N 0.82355 0.9206 0.95069 0.0
N1492 N 0.88031 0.9805 0.94869 0.0
C1493 C 0.86849 0.96775 0.97263 0.0
C1494 C 0.83757 0.93519 0.97373 0.0
C1495 C 0.9516 0.83473 0.01797 0.0
C1496 C 0.97018 0.85159 -0.00415 0.0
C1497 C 0.92027 0.80481 0.01607 0.0
C1498 C 0.90639 0.7896 -0.00805 0.0
H1499 H 0.96339 0.84117 0.03692 0.0
H1500 H 0.90945 0.78913 0.03367 0.0
S1501 S 0.94137 0.82922 0.92812 0.0
N1502 N 0.96916 0.85605 0.94901 0.0
N1503 N 0.91092 0.79874 0.94548 0.0
C1504 C 0.92212 0.8103 0.96973 0.0
C1505 C 0.9539 0.84146 0.97167 0.0
C1506 C 0.86689 0.80666 0.76357 0.0
C1507 C 0.88548 0.78813 0.74177 0.0
C1508 C 0.83552 0.8368 0.76095 0.0
C1509 C 0.82134 0.84888 0.7364 0.0
H1510 H 0.87388 0.79356 0.78263 0.0
H1511 H 0.81988 0.84609 0.77814 0.0
S1512 S 0.86415 0.81701 0.67353 0.0
N1513 N 0.89078 0.79031 0.6951 0.0
N1514 N 0.83189 0.84577 0.69016 0.0
C1515 C 0.84223 0.83489 0.71469 0.0
C1516 C 0.87428 0.80491 0.71738 0.0
C1517 C 0.92923 0.97113 0.76333 0.0
C1518 C 0.91011 0.9845 0.74073 0.0
C1519 C 0.96047 0.9405 0.76222 0.0
C1520 C 0.97365 0.92235 0.73849 0.0
H1521 H 0.9229 0.98872 0.78144 0.0
H1522 H 0.97678 0.9354 0.7796 0.0
S1523 S 0.92884 0.93881 0.67474 0.0
N1524 N 0.90303 0.97081 0.69471 0.0
N1525 N 0.96164 0.9142 0.69266 0.0
C1526 C 0.95214 0.93107 0.71638 0.0
C1527 C 0.92033 0.96176 0.71752 0.0
C1528 C 0.20925 0.57589 0.45757 0.0
C1529 C 0.22018 0.6022 0.47945 0.0
C1530 C 0.17766 0.54583 0.45823 0.0
C1531 C 0.15568 0.54111 0.48072 0.0
H1532 H 0.22759 0.57405 0.44095 0.0
H1533 H 0.17303 0.52204 0.44207 0.0
S1534 S 0.16871 0.60856 0.54153 0.0
N1535 N 0.20345 0.62644 0.52292 0.0
N1536 N 0.14442 0.57035 0.52407 0.0
C1537 C 0.1639 0.57139 0.50155 0.0
C1538 C 0.19603 0.6018 0.50093 0.0
C1539 C 0.12445 0.72125 0.50702 0.0
C1540 C 0.13485 0.74489 0.48416 0.0
C1541 C 0.09347 0.69039 0.50776 0.0
C1542 C 0.07159 0.68161 0.48565 0.0
H1543 H 0.13767 0.73083 0.52511 0.0
H1544 H 0.0843 0.67722 0.52638 0.0
S1545 S 0.09016 0.72925 0.42019 0.0
N1546 N 0.12327 0.75299 0.43825 0.0
N1547 N 0.06548 0.69473 0.43957 0.0
C1548 C 0.08424 0.70071 0.46211 0.0
C1549 C 0.11571 0.73243 0.4614 0.0
C1550 C 0.21301 0.69668 0.77318 0.0
C1551 C 0.22559 0.67228 0.75104 0.0
C1552 C 0.18057 0.72526 0.77253 0.0
C1553 C 0.15953 0.7306 0.74972 0.0
H1554 H 0.23052 0.69811 0.79019 0.0
H1555 H 0.17459 0.74773 0.78904 0.0
S1556 S 0.17722 0.66805 0.68787 0.0
N1557 N 0.21159 0.65044 0.7068 0.0
N1558 N 0.1511 0.70387 0.7056 0.0
C1559 C 0.16957 0.70213 0.72847 0.0
C1560 C 0.20248 0.67315 0.72911 0.0
C1561 C 0.12337 0.56113 0.72735 0.0
C1562 C 0.13252 0.53429 0.74936 0.0
C1563 C 0.09407 0.59454 0.72782 0.0
C1564 C 0.07252 0.60236 0.75027 0.0
H1565 H 0.13617 0.5526 0.70895 0.0
H1566 H 0.08549 0.61033 0.70969 0.0
S1567 S 0.08895 0.54641 0.814 0.0
N1568 N 0.12082 0.5222 0.79502 0.0
N1569 N 0.06588 0.58475 0.79588 0.0
C1570 C 0.08429 0.57984 0.77309 0.0
C1571 C 0.11414 0.54572 0.7726 0.0
C1572 C 0.83942 0.4484 0.52069 0.0
C1573 C 0.82247 0.43101 0.49807 0.0
C1574 C 0.87066 0.47853 0.51961 0.0
C1575 C 0.88615 0.49297 0.49586 0.0
H1576 H 0.82622 0.44258 0.53926 0.0
H1577 H 0.88004 0.49503 0.53739 0.0
S1578 S 0.85653 0.45056 0.43128 0.0
N1579 N 0.82712 0.42453 0.45141 0.0
N1580 N 0.88549 0.48186 0.44939 0.0
C1581 C 0.87238 0.47122 0.47332 0.0
C1582 C 0.84058 0.44008 0.47442 0.0
C1583 C 0.95494 0.33655 0.47104 0.0
C1584 C 0.96922 0.35056 0.49527 0.0
C1585 C 0.92316 0.30688 0.46913 0.0
C1586 C 0.90443 0.29062 0.49138 0.0
H1587 H 0.97072 0.34406 0.45366 0.0
H1588 H 0.91607 0.29215 0.45043 0.0
S1589 S 0.92623 0.32518 0.55884 0.0
N1590 N 0.95886 0.35168 0.54151 0.0
N1591 N 0.89913 0.2973 0.53796 0.0
C1592 C 0.91578 0.30953 0.51533 0.0
C1593 C 0.94826 0.33895 0.51729 0.0
C1594 C 0.8431 0.33671 0.21441 0.0
C1595 C 0.82466 0.35468 0.23637 0.0
C1596 C 0.87433 0.30678 0.21663 0.0
C1597 C 0.88831 0.29304 0.24092 0.0
H1598 H 0.83108 0.34192 0.19543 0.0
H1599 H 0.88484 0.28978 0.19929 0.0
S1600 S 0.8542 0.33659 0.30426 0.0
N1601 N 0.82618 0.36215 0.2831 0.0
N1602 N 0.88441 0.30505 0.28723 0.0
C1603 C 0.87293 0.31518 0.26287 0.0
C1604 C 0.8412 0.3462 0.2606 0.0
C1605 C 0.9223 0.48378 0.21511 0.0
C1606 C 0.90712 0.49819 0.23903 0.0
C1607 C 0.95385 0.45423 0.21369 0.0
C1608 C 0.97123 0.43687 0.2361 0.0
H1609 H 0.91242 0.5 0.19742 0.0
H1610 H 0.96679 0.44861 0.19501 0.0
S1611 S 0.93832 0.45609 0.30325 0.0
N1612 N 0.9088 0.48708 0.28547 0.0
N1613 N 0.9675 0.43038 0.2828 0.0
C1614 C 0.95351 0.44581 0.25994 0.0
C1615 C 0.92149 0.47661 0.26141 0.0
C1616 C 0.70048 0.0943 0.50287 0.0
C1617 C 0.7222 0.09825 0.48022 0.0
C1618 C 0.66908 0.0642 0.5041 0.0
C1619 C 0.65788 0.03687 0.48268 0.0
H1620 H 0.71019 0.11057 0.52062 0.0
H1621 H 0.65601 0.05838 0.52271 0.0
S1622 S 0.70183 0.03917 0.41782 0.0
N1623 N 0.72747 0.07629 0.43507 0.0
N1624 N 0.66853 0.02003 0.43731 0.0
C1625 C 0.67684 0.04452 0.45919 0.0
C1626 C 0.70892 0.07516 0.45795 0.0
C1627 C 0.58241 0.2067 0.45911 0.0
C1628 C 0.56954 0.1834 0.48148 0.0
C1629 C 0.61469 0.2356 0.45964 0.0
C1630 C 0.63541 0.24218 0.48253 0.0
H1631 H 0.56518 0.20709 0.44193 0.0
H1632 H 0.62085 0.2573 0.44289 0.0
S1633 S 0.61699 0.1826 0.54504 0.0
N1634 N 0.58296 0.16387 0.52611 0.0
N1635 N 0.64325 0.2177 0.52704 0.0
C1636 C 0.62513 0.21472 0.50407 0.0
C1637 C 0.59231 0.18556 0.50357 0.0
C1638 C 0.67701 0.21601 0.72746 0.0
C1639 C 0.66457 0.24052 0.74958 0.0
C1640 C 0.70893 0.18678 0.7281 0.0
C1641 C 0.72982 0.18066 0.75092 0.0
H1642 H 0.6645 0.22365 0.70888 0.0
H1643 H 0.71953 0.17285 0.71 0.0
S1644 S 0.70643 0.23202 0.81485 0.0
N1645 N 0.67348 0.25252 0.79555 0.0
N1646 N 0.73322 0.19757 0.79678 0.0
C1647 C 0.71545 0.20088 0.7737 0.0
C1648 C 0.68291 0.23077 0.77303 0.0
C1649 C 0.60764 0.03813 0.77324 0.0
C1650 C 0.63081 0.03126 0.75149 0.0
C1651 C 0.57745 0.07041 0.77279 0.0
C1652 C 0.56888 0.09662 0.7504 0.0
H1653 H 0.61046 0.01482 0.78977 0.0
H1654 H 0.55818 0.07049 0.78893 0.0
S1655 S 0.62399 0.09693 0.68972 0.0
N1656 N 0.64569 0.05792 0.70821 0.0
N1657 N 0.58898 0.11777 0.70716 0.0
C1658 C 0.59411 0.09358 0.72957 0.0
C1659 C 0.62498 0.06109 0.73013 0.0
C1660 C 0.33521 0.94729 0.47231 0.0
C1661 C 0.32092 0.93501 0.49683 0.0
C1662 C 0.36558 0.9791 0.46973 0.0
C1663 C 0.38295 0.99918 0.49158 0.0
H1664 H 0.32028 0.93672 0.45506 0.0
H1665 H 0.37266 0.99203 0.45064 0.0
S1666 S 0.36096 0.97102 0.55985 0.0
N1667 N 0.33023 0.9399 0.54314 0.0
N1668 N 0.38715 0.99866 0.5383 0.0
C1669 C 0.37174 0.9825 0.51599 0.0
C1670 C 0.34079 0.95071 0.51862 0.0
C1671 C 0.41906 0.80331 0.51546 0.0
C1672 C 0.40615 0.787 0.49131 0.0
C1673 C 0.45035 0.83323 0.51752 0.0
C1674 C 0.46983 0.84882 0.4955 0.0
H1675 H 0.40754 0.78841 0.53305 0.0
H1676 H 0.46147 0.84051 0.53657 0.0
S1677 S 0.44399 0.8228 0.4276 0.0
N1678 N 0.41266 0.79355 0.44482 0.0
N1679 N 0.47091 0.85071 0.44861 0.0
C1680 C 0.45455 0.83756 0.47118 0.0
C1681 C 0.42279 0.80651 0.46909 0.0
C1682 C 0.37074 0.80045 0.21459 0.0
C1683 C 0.38477 0.78607 0.23873 0.0
C1684 C 0.34087 0.83258 0.21266 0.0
C1685 C 0.3237 0.85185 0.2348 0.0
H1686 H 0.38018 0.78274 0.19716 0.0
H1687 H 0.32866 0.83851 0.19381 0.0
S1688 S 0.35423 0.83233 0.30238 0.0
N1689 N 0.38267 0.79871 0.28506 0.0
N1690 N 0.32672 0.85952 0.2815 0.0
C1691 C 0.34048 0.84244 0.25886 0.0
C1692 C 0.37095 0.80937 0.26082 0.0
C1693 C 0.45448 0.95527 0.21266 0.0
C1694 C 0.47224 0.93809 0.23498 0.0
C1695 C 0.42309 0.98506 0.21425 0.0
C1696 C 0.40834 0.99966 0.23824 0.0
H1697 H 0.46701 0.94931 0.19387 0.0
H1698 H 0.41295 1.00121 0.1966 0.0
S1699 S 0.44071 0.95859 0.30236 0.0
N1700 N 0.46939 0.93238 0.28176 0.0
N1701 N 0.41093 0.98939 0.2847 0.0
C1702 C 0.42312 0.97843 0.26057 0.0
C1703 C 0.455 0.94746 0.25895 0.0
C1704 C 0.67981 0.54511 0.9584 0.0
C1705 C 0.65728 0.53821 0.98046 0.0
C1706 C 0.70972 0.57787 0.95837 0.0
C1707 C 0.71857 0.60456 0.98057 0.0
H1708 H 0.67693 0.52132 0.94204 0.0
H1709 H 0.72868 0.57781 0.94206 0.0
S1710 S 0.66486 0.60514 0.04186 0.0
N1711 N 0.64309 0.5655 0.02375 0.0
N1712 N 0.69916 0.62636 0.0239 0.0
C1713 C 0.6937 0.60175 0.00162 0.0
C1714 C 0.66317 0.56871 0.00155 0.0
C1715 C 0.58946 0.68067 0.00813 0.0
C1716 C 0.56843 0.67523 0.98534 0.0
C1717 C 0.62196 0.70875 0.00876 0.0
C1718 C 0.6349 0.73271 0.98664 0.0
H1719 H 0.57855 0.6673 0.02625 0.0
H1720 H 0.63448 0.71625 0.02736 0.0
S1721 S 0.59356 0.72421 0.92122 0.0
N1722 N 0.56584 0.69113 0.93934 0.0
N1723 N 0.62679 0.74394 0.94055 0.0
C1724 C 0.61671 0.72296 0.96313 0.0
C1725 C 0.5835 0.69424 0.96247 0.0
C1726 C 0.67081 0.7229 0.2291 0.0
C1727 C 0.65868 0.74835 0.25099 0.0
C1728 C 0.70271 0.69363 0.22994 0.0
C1729 C 0.72391 0.68847 0.2527 0.0
H1730 H 0.6582 0.72995 0.21048 0.0
H1731 H 0.71313 0.67905 0.21194 0.0
S1732 S 0.70099 0.74202 0.31619 0.0
N1733 N 0.66791 0.76185 0.2968 0.0
N1734 N 0.72765 0.70695 0.29837 0.0
C1735 C 0.7097 0.70943 0.27534 0.0
C1736 C 0.67716 0.73931 0.27447 0.0
C1737 C 0.61588 0.55032 0.26918 0.0
C1738 C 0.63623 0.54211 0.24625 0.0
C1739 C 0.58347 0.57906 0.26937 0.0
C1740 C 0.57013 0.60045 0.24658 0.0
H1741 H 0.62244 0.53005 0.28636 0.0
H1742 H 0.56659 0.58004 0.28673 0.0
S1743 S 0.61648 0.59648 0.18257 0.0
N1744 N 0.6432 0.56305 0.20112 0.0
N1745 N 0.58269 0.61645 0.2014 0.0
C1746 C 0.59248 0.59661 0.22432 0.0
C1747 C 0.62542 0.5677 0.22418 0.0
C1748 C 0.36457 0.48152 0.01669 0.0
C1749 C 0.37849 0.49699 -0.00731 0.0
C1750 C 0.33449 0.4496 0.01833 0.0
C1751 C 0.31686 0.43172 -0.00396 0.0
H1752 H 0.37444 0.49803 0.03433 0.0
H1753 H 0.3225 0.44273 0.03719 0.0
S1754 S 0.34642 0.45516 0.92856 0.0
N1755 N 0.37548 0.48722 0.94618 0.0
N1756 N 0.31898 0.42708 0.94921 0.0
C1757 C 0.33328 0.44252 0.972 0.0
C1758 C 0.36405 0.47526 0.97034 0.0
C1759 C 0.45771 0.32169 0.02021 0.0
C1760 C 0.47382 0.34369 -0.00153 0.0
C1761 C 0.42787 0.28963 0.01776 0.0
C1762 C 0.41277 0.27795 -0.00654 0.0
H1763 H 0.47062 0.32571 0.039 0.0
H1764 H 0.41909 0.27012 0.03475 0.0
S1765 S 0.44062 0.33134 0.93095 0.0
N1766 N 0.4689 0.35636 0.95218 0.0
N1767 N 0.413 0.29564 0.94762 0.0
C1768 C 0.4257 0.30363 0.97194 0.0
C1769 C 0.45615 0.33667 0.97444 0.0
C1770 C 0.36569 0.29502 0.71449 0.0
C1771 C 0.37983 0.2797 0.73846 0.0
C1772 C 0.33484 0.32571 0.71292 0.0
C1773 C 0.3168 0.34278 0.73526 0.0
H1774 H 0.37606 0.27914 0.69679 0.0
H1775 H 0.32285 0.3325 0.69408 0.0
S1776 S 0.34627 0.31934 0.80269 0.0
N1777 N 0.37615 0.28857 0.78499 0.0
N1778 N 0.31847 0.34682 0.78211 0.0
C1779 C 0.33328 0.33221 0.75928 0.0
C1780 C 0.36471 0.30053 0.76087 0.0
C1781 C 0.45951 0.43744 0.75832 0.0
C1782 C 0.47527 0.42516 0.73423 0.0
C1783 C 0.42788 0.46736 0.75995 0.0
C1784 C 0.41088 0.48561 0.73753 0.0
H1785 H 0.47411 0.4285 0.77596 0.0
H1786 H 0.41957 0.48068 0.77874 0.0
S1787 S 0.4368 0.456 0.67005 0.0
N1788 N 0.46796 0.42762 0.68772 0.0
N1789 N 0.4086 0.48271 0.69074 0.0
C1790 C 0.42363 0.46847 0.71353 0.0
C1791 C 0.45586 0.43866 0.71188 0.0
loop_
_geom_bond_atom_site_label_1
_geom_bond_atom_site_label_2
_geom_bond_distance
_geom_bond_site_symmetry_2
_ccdc_geom_bond_type
O0 Zn1 1.953 1_565 S
O0 C16 1.225 1_556 S
Zn1 O0 1.953 1_545 S
Zn1 O2 1.930 1_556 S
Zn1 O8 1.919 . S
Zn1 O13 1.924 . S
O2 Zn1 1.930 1_554 S
O2 Zn3 1.909 1_554 S
O2 Zn4 1.970 . S
O2 Zn5 1.957 . S
Zn3 O2 1.909 1_556 S
Zn3 O6 1.933 . S
Zn3 O9 1.941 . S
Zn3 O10 1.965 . S
Zn4 O2 1.970 . S
Zn4 O11 1.938 . S
Zn4 O12 1.906 . S
Zn4 O22 1.953 1_545 S
Zn5 O2 1.957 . S
Zn5 O7 1.932 . S
Zn5 O14 1.977 . S
Zn5 O15 1.910 . S
O6 Zn3 1.933 . S
O6 C17 1.226 . S
O7 Zn5 1.932 . S
O7 C17 1.307 1_554 S
O8 Zn1 1.919 . S
O8 C19 1.253 . S
O9 Zn3 1.941 . S
O9 C19 1.283 . S
O10 Zn3 1.965 . S
O10 C18 1.303 1_556 S
O11 Zn4 1.938 . S
O11 C18 1.247 . S
O12 Zn4 1.906 . S
O12 C20 1.304 . S
O13 Zn1 1.924 . S
O13 C21 1.287 1_556 S
O14 Zn5 1.977 . S
O14 C20 1.272 . S
O15 Zn5 1.910 . S
O15 C21 1.249 . S
C16 O0 1.225 1_554 S
C16 O22 1.298 . S
C17 O6 1.226 . S
C17 O7 1.307 1_556 S
C18 O10 1.303 1_554 S
C18 O11 1.247 . S
C19 O8 1.253 . S
C19 O9 1.283 . S
C20 O12 1.304 . S
C20 O14 1.272 . S
C21 O13 1.287 1_554 S
C21 O15 1.249 . S
O22 Zn4 1.953 1_565 S
O22 C16 1.298 . S
O23 Zn24 1.953 . S
O23 C39 1.225 1_556 S
Zn24 O23 1.953 . S
Zn24 O25 1.930 1_556 S
Zn24 O31 1.919 . S
Zn24 O36 1.924 . S
O25 Zn24 1.930 1_554 S
O25 Zn26 1.909 1_554 S
O25 Zn27 1.970 . S
O25 Zn28 1.957 . S
Zn26 O25 1.909 1_556 S
Zn26 O29 1.933 . S
Zn26 O32 1.941 . S
Zn26 O33 1.965 . S
Zn27 O25 1.970 . S
Zn27 O34 1.938 . S
Zn27 O35 1.906 . S
Zn27 O45 1.953 . S
Zn28 O25 1.957 . S
Zn28 O30 1.932 . S
Zn28 O37 1.977 . S
Zn28 O38 1.910 . S
O29 Zn26 1.933 . S
O29 C40 1.226 . S
O30 Zn28 1.932 . S
O30 C40 1.307 1_554 S
O31 Zn24 1.919 . S
O31 C42 1.253 . S
O32 Zn26 1.941 . S
O32 C42 1.283 . S
O33 Zn26 1.965 . S
O33 C41 1.303 1_556 S
O34 Zn27 1.938 . S
O34 C41 1.247 . S
O35 Zn27 1.906 . S
O35 C43 1.304 . S
O36 Zn24 1.924 . S
O36 C44 1.287 1_556 S
O37 Zn28 1.977 . S
O37 C43 1.272 . S
O38 Zn28 1.910 . S
O38 C44 1.249 . S
C39 O23 1.225 1_554 S
C39 O45 1.298 . S
C40 O29 1.226 . S
C40 O30 1.307 1_556 S
C41 O33 1.303 1_554 S
C41 O34 1.247 . S
C42 O31 1.253 . S
C42 O32 1.283 . S
C43 O35 1.304 . S
C43 O37 1.272 . S
C44 O36 1.287 1_554 S
C44 O38 1.249 . S
O45 Zn27 1.953 . S
O45 C39 1.298 . S
O46 Zn47 1.953 . S
O46 C62 1.225 . S
Zn47 O46 1.953 . S
Zn47 O48 1.949 . S
Zn47 O54 1.919 . S
Zn47 O59 1.924 . S
O48 Zn47 1.949 . S
O48 Zn49 1.923 . S
O48 Zn50 1.950 . S
O48 Zn51 1.945 . S
Zn49 O48 1.923 . S
Zn49 O52 1.933 . S
Zn49 O55 1.941 . S
Zn49 O56 1.965 . S
Zn50 O48 1.950 . S
Zn50 O57 1.938 . S
Zn50 O58 1.906 . S
Zn50 O68 1.953 . S
Zn51 O48 1.945 . S
Zn51 O53 1.932 . S
Zn51 O60 1.977 . S
Zn51 O61 1.910 . S
O52 Zn49 1.933 . S
O52 C63 1.226 . S
O53 Zn51 1.932 . S
O53 C63 1.307 . S
O54 Zn47 1.919 . S
O54 C65 1.253 . S
O55 Zn49 1.941 . S
O55 C65 1.283 . S
O56 Zn49 1.965 . S
O56 C64 1.303 . S
O57 Zn50 1.938 . S
O57 C64 1.247 . S
O58 Zn50 1.906 . S
O58 C66 1.304 . S
O59 Zn47 1.924 . S
O59 C67 1.311 . S
O60 Zn51 1.977 . S
O60 C66 1.272 . S
O61 Zn51 1.910 . S
O61 C67 1.231 . S
C62 O46 1.225 . S
C62 O68 1.298 . S
C63 O52 1.226 . S
C63 O53 1.307 . S
C64 O56 1.303 . S
C64 O57 1.247 . S
C65 O54 1.253 . S
C65 O55 1.283 . S
C66 O58 1.304 . S
C66 O60 1.272 . S
C67 O59 1.311 . S
C67 O61 1.231 . S
O68 Zn50 1.953 . S
O68 C62 1.298 . S
O69 Zn70 1.953 1_565 S
O69 C85 1.225 . S
Zn70 O69 1.953 1_545 S
Zn70 O71 1.949 . S
Zn70 O77 1.919 . S
Zn70 O82 1.924 . S
O71 Zn70 1.949 . S
O71 Zn72 1.923 . S
O71 Zn73 1.950 . S
O71 Zn74 1.945 . S
Zn72 O71 1.923 . S
Zn72 O75 1.933 . S
Zn72 O78 1.941 . S
Zn72 O79 1.965 . S
Zn73 O71 1.950 . S
Zn73 O80 1.938 . S
Zn73 O81 1.906 . S
Zn73 O91 1.953 1_545 S
Zn74 O71 1.945 . S
Zn74 O76 1.932 . S
Zn74 O83 1.977 . S
Zn74 O84 1.910 . S
O75 Zn72 1.933 . S
O75 C86 1.226 . S
O76 Zn74 1.932 . S
O76 C86 1.307 . S
O77 Zn70 1.919 . S
O77 C88 1.253 . S
O78 Zn72 1.941 . S
O78 C88 1.283 . S
O79 Zn72 1.965 . S
O79 C87 1.303 . S
O80 Zn73 1.938 . S
O80 C87 1.247 . S
O81 Zn73 1.906 . S
O81 C89 1.304 . S
O82 Zn70 1.924 . S
O82 C90 1.311 . S
O83 Zn74 1.977 . S
O83 C89 1.272 . S
O84 Zn74 1.910 . S
O84 C90 1.231 . S
C85 O69 1.225 . S
C85 O91 1.298 . S
C86 O75 1.226 . S
C86 O76 1.307 . S
C87 O79 1.303 . S
C87 O80 1.247 . S
C88 O77 1.253 . S
C88 O78 1.283 . S
C89 O81 1.304 . S
C89 O83 1.272 . S
C90 O82 1.311 . S
C90 O84 1.231 . S
O91 Zn73 1.953 1_565 S
O91 C85 1.298 . S
O92 Zn93 1.953 1_545 S
O92 C108 1.225 . S
Zn93 O92 1.953 1_565 S
Zn93 O94 1.935 1_556 S
Zn93 O100 1.919 . S
Zn93 O105 1.924 . S
O94 Zn93 1.935 1_554 S
O94 Zn95 1.915 1_554 S
O94 Zn96 1.963 . S
O94 Zn97 1.953 . S
Zn95 O94 1.915 1_556 S
Zn95 O98 1.933 . S
Zn95 O101 1.941 . S
Zn95 O102 1.965 . S
Zn96 O94 1.963 . S
Zn96 O103 1.938 . S
Zn96 O104 1.906 . S
Zn96 O114 1.953 1_565 S
Zn97 O94 1.953 . S
Zn97 O99 1.932 . S
Zn97 O106 1.977 . S
Zn97 O107 1.910 . S
O98 Zn95 1.933 . S
O98 C109 1.226 1_556 S
O99 Zn97 1.932 . S
O99 C109 1.307 . S
O100 Zn93 1.919 . S
O100 C111 1.253 . S
O101 Zn95 1.941 . S
O101 C111 1.283 . S
O102 Zn95 1.965 . S
O102 C110 1.303 1_556 S
O103 Zn96 1.938 . S
O103 C110 1.247 . S
O104 Zn96 1.906 . S
O104 C112 1.304 . S
O105 Zn93 1.924 . S
O105 C113 1.311 . S
O106 Zn97 1.977 . S
O106 C112 1.272 . S
O107 Zn97 1.910 . S
O107 C113 1.231 1_554 S
C108 O92 1.225 . S
C108 O114 1.298 1_556 S
C109 O98 1.226 1_554 S
C109 O99 1.307 . S
C110 O102 1.303 1_554 S
C110 O103 1.247 . S
C111 O100 1.253 . S
C111 O101 1.283 . S
C112 O104 1.304 . S
C112 O106 1.272 . S
C113 O105 1.311 . S
C113 O107 1.231 1_556 S
O114 Zn96 1.953 1_545 S
O114 C108 1.298 1_554 S
O115 Zn116 1.953 . S
O115 C131 1.225 . S
Zn116 O115 1.953 . S
Zn116 O117 1.935 1_556 S
Zn116 O123 1.919 . S
Zn116 O128 1.924 . S
O117 Zn116 1.935 1_554 S
O117 Zn118 1.915 1_554 S
O117 Zn119 1.963 . S
O117 Zn120 1.953 . S
Zn118 O117 1.915 1_556 S
Zn118 O121 1.933 . S
Zn118 O124 1.941 . S
Zn118 O125 1.965 . S
Zn119 O117 1.963 . S
Zn119 O126 1.938 . S
Zn119 O127 1.906 . S
Zn119 O137 1.953 . S
Zn120 O117 1.953 . S
Zn120 O122 1.932 . S
Zn120 O129 1.977 . S
Zn120 O130 1.910 . S
O121 Zn118 1.933 . S
O121 C132 1.226 1_556 S
O122 Zn120 1.932 . S
O122 C132 1.307 . S
O123 Zn116 1.919 . S
O123 C134 1.253 . S
O124 Zn118 1.941 . S
O124 C134 1.283 . S
O125 Zn118 1.965 . S
O125 C133 1.303 1_556 S
O126 Zn119 1.938 . S
O126 C133 1.247 . S
O127 Zn119 1.906 . S
O127 C135 1.304 . S
O128 Zn116 1.924 . S
O128 C136 1.311 . S
O129 Zn120 1.977 . S
O129 C135 1.272 . S
O130 Zn120 1.910 . S
O130 C136 1.231 1_554 S
C131 O115 1.225 . S
C131 O137 1.298 1_556 S
C132 O121 1.226 1_554 S
C132 O122 1.307 . S
C133 O125 1.303 1_554 S
C133 O126 1.247 . S
C134 O123 1.253 . S
C134 O124 1.283 . S
C135 O127 1.304 . S
C135 O129 1.272 . S
C136 O128 1.311 . S
C136 O130 1.231 1_556 S
O137 Zn119 1.953 . S
O137 C131 1.298 1_554 S
O138 Zn139 1.953 . S
O138 C154 1.225 . S
Zn139 O138 1.953 . S
Zn139 O140 1.949 . S
Zn139 O146 1.919 . S
Zn139 O151 1.924 . S
O140 Zn139 1.949 . S
O140 Zn141 1.923 . S
O140 Zn142 1.950 . S
O140 Zn143 1.945 . S
Zn141 O140 1.923 . S
Zn141 O144 1.933 . S
Zn141 O147 1.941 . S
Zn141 O148 1.965 . S
Zn142 O140 1.950 . S
Zn142 O149 1.938 . S
Zn142 O150 1.906 . S
Zn142 O160 1.953 . S
Zn143 O140 1.945 . S
Zn143 O145 1.932 . S
Zn143 O152 1.977 . S
Zn143 O153 1.910 . S
O144 Zn141 1.933 . S
O144 C155 1.226 . S
O145 Zn143 1.932 . S
O145 C155 1.307 . S
O146 Zn139 1.919 . S
O146 C157 1.253 . S
O147 Zn141 1.941 . S
O147 C157 1.283 . S
O148 Zn141 1.965 . S
O148 C156 1.303 . S
O149 Zn142 1.938 . S
O149 C156 1.247 . S
O150 Zn142 1.906 . S
O150 C158 1.304 . S
O151 Zn139 1.924 . S
O151 C159 1.311 . S
O152 Zn143 1.977 . S
O152 C158 1.272 . S
O153 Zn143 1.910 . S
O153 C159 1.231 . S
C154 O138 1.225 . S
C154 O160 1.298 . S
C155 O144 1.226 . S
C155 O145 1.307 . S
C156 O148 1.303 . S
C156 O149 1.247 . S
C157 O146 1.253 . S
C157 O147 1.283 . S
C158 O150 1.304 . S
C158 O152 1.272 . S
C159 O151 1.311 . S
C159 O153 1.231 . S
O160 Zn142 1.953 . S
O160 C154 1.298 . S
O161 Zn162 1.953 1_545 S
O161 C177 1.225 . S
Zn162 O161 1.953 1_565 S
Zn162 O163 1.949 . S
Zn162 O169 1.919 . S
Zn162 O174 1.924 . S
O163 Zn162 1.949 . S
O163 Zn164 1.923 . S
O163 Zn165 1.950 . S
O163 Zn166 1.945 . S
Zn164 O163 1.923 . S
Zn164 O167 1.933 . S
Zn164 O170 1.941 . S
Zn164 O171 1.965 . S
Zn165 O163 1.950 . S
Zn165 O172 1.938 . S
Zn165 O173 1.906 . S
Zn165 O183 1.953 1_565 S
Zn166 O163 1.945 . S
Zn166 O168 1.932 . S
Zn166 O175 1.977 . S
Zn166 O176 1.910 . S
O167 Zn164 1.933 . S
O167 C178 1.226 . S
O168 Zn166 1.932 . S
O168 C178 1.307 . S
O169 Zn162 1.919 . S
O169 C180 1.253 . S
O170 Zn164 1.941 . S
O170 C180 1.283 . S
O171 Zn164 1.965 . S
O171 C179 1.303 . S
O172 Zn165 1.938 . S
O172 C179 1.247 . S
O173 Zn165 1.906 . S
O173 C181 1.304 . S
O174 Zn162 1.924 . S
O174 C182 1.311 . S
O175 Zn166 1.977 . S
O175 C181 1.272 . S
O176 Zn166 1.910 . S
O176 C182 1.231 . S
C177 O161 1.225 . S
C177 O183 1.298 . S
C178 O167 1.226 . S
C178 O168 1.307 . S
C179 O171 1.303 . S
C179 O172 1.247 . S
C180 O169 1.253 . S
C180 O170 1.283 . S
C181 O173 1.304 . S
C181 O175 1.272 . S
C182 O174 1.311 . S
C182 O176 1.231 . S
O183 Zn165 1.953 1_545 S
O183 C177 1.298 . S
O184 Zn185 1.953 . S
O184 C200 1.225 . S
Zn185 O184 1.953 . S
Zn185 O186 1.949 . S
Zn185 O192 1.919 . S
Zn185 O197 1.924 . S
O186 Zn185 1.949 . S
O186 Zn187 1.923 . S
O186 Zn188 1.950 . S
O186 Zn189 1.945 . S
Zn187 O186 1.923 . S
Zn187 O190 1.933 . S
Zn187 O193 1.941 . S
Zn187 O194 1.965 . S
Zn188 O186 1.950 . S
Zn188 O195 1.938 . S
Zn188 O196 1.906 . S
Zn188 O206 1.953 . S
Zn189 O186 1.945 . S
Zn189 O191 1.932 . S
Zn189 O198 1.977 . S
Zn189 O199 1.910 . S
O190 Zn187 1.933 . S
O190 C201 1.226 . S
O191 Zn189 1.932 . S
O191 C201 1.307 . S
O192 Zn185 1.919 . S
O192 C203 1.253 . S
O193 Zn187 1.941 . S
O193 C203 1.283 . S
O194 Zn187 1.965 . S
O194 C202 1.303 . S
O195 Zn188 1.938 . S
O195 C202 1.247 . S
O196 Zn188 1.906 . S
O196 C204 1.304 . S
O197 Zn185 1.924 . S
O197 C205 1.311 . S
O198 Zn189 1.977 . S
O198 C204 1.272 . S
O199 Zn189 1.910 . S
O199 C205 1.231 . S
C200 O184 1.225 . S
C200 O206 1.298 . S
C201 O190 1.226 . S
C201 O191 1.307 . S
C202 O194 1.303 . S
C202 O195 1.247 . S
C203 O192 1.253 . S
C203 O193 1.283 . S
C204 O196 1.304 . S
C204 O198 1.272 . S
C205 O197 1.311 . S
C205 O199 1.231 . S
O206 Zn188 1.953 . S
O206 C200 1.298 . S
O207 Zn208 1.953 . S
O207 C223 1.225 . S
Zn208 O207 1.953 . S
Zn208 O209 1.949 . S
Zn208 O215 1.919 . S
Zn208 O220 1.924 . S
O209 Zn208 1.949 . S
O209 Zn210 1.923 . S
O209 Zn211 1.950 . S
O209 Zn212 1.945 . S
Zn210 O209 1.923 . S
Zn210 O213 1.933 . S
Zn210 O216 1.941 . S
Zn210 O217 1.965 . S
Zn211 O209 1.950 . S
Zn211 O218 1.938 . S
Zn211 O219 1.906 . S
Zn211 O229 1.953 . S
Zn212 O209 1.945 . S
Zn212 O214 1.932 . S
Zn212 O221 1.977 . S
Zn212 O222 1.910 . S
O213 Zn210 1.933 . S
O213 C224 1.226 . S
O214 Zn212 1.932 . S
O214 C224 1.307 . S
O215 Zn208 1.919 . S
O215 C226 1.253 . S
O216 Zn210 1.941 . S
O216 C226 1.283 . S
O217 Zn210 1.965 . S
O217 C225 1.303 . S
O218 Zn211 1.938 . S
O218 C225 1.247 . S
O219 Zn211 1.906 . S
O219 C227 1.304 . S
O220 Zn208 1.924 . S
O220 C228 1.311 . S
O221 Zn212 1.977 . S
O221 C227 1.272 . S
O222 Zn212 1.910 . S
O222 C228 1.231 . S
C223 O207 1.225 . S
C223 O229 1.298 . S
C224 O213 1.226 . S
C224 O214 1.307 . S
C225 O217 1.303 . S
C225 O218 1.247 . S
C226 O215 1.253 . S
C226 O216 1.283 . S
C227 O219 1.304 . S
C227 O221 1.272 . S
C228 O220 1.311 . S
C228 O222 1.231 . S
O229 Zn211 1.953 . S
O229 C223 1.298 . S
O230 Zn231 1.953 . S
O230 C246 1.225 . S
Zn231 O230 1.953 . S
Zn231 O232 1.949 . S
Zn231 O238 1.919 . S
Zn231 O243 1.924 . S
O232 Zn231 1.949 . S
O232 Zn233 1.923 . S
O232 Zn234 1.950 . S
O232 Zn235 1.945 . S
Zn233 O232 1.923 . S
Zn233 O236 1.933 . S
Zn233 O239 1.941 . S
Zn233 O240 1.965 . S
Zn234 O232 1.950 . S
Zn234 O241 1.938 . S
Zn234 O242 1.906 . S
Zn234 O252 1.953 . S
Zn235 O232 1.945 . S
Zn235 O237 1.932 . S
Zn235 O244 1.977 . S
Zn235 O245 1.910 . S
O236 Zn233 1.933 . S
O236 C247 1.226 . S
O237 Zn235 1.932 . S
O237 C247 1.307 . S
O238 Zn231 1.919 . S
O238 C249 1.253 . S
O239 Zn233 1.941 . S
O239 C249 1.283 . S
O240 Zn233 1.965 . S
O240 C248 1.303 . S
O241 Zn234 1.938 . S
O241 C248 1.247 . S
O242 Zn234 1.906 . S
O242 C250 1.304 . S
O243 Zn231 1.924 . S
O243 C251 1.311 . S
O244 Zn235 1.977 . S
O244 C250 1.272 . S
O245 Zn235 1.910 . S
O245 C251 1.231 . S
C246 O230 1.225 . S
C246 O252 1.298 . S
C247 O236 1.226 . S
C247 O237 1.307 . S
C248 O240 1.303 . S
C248 O241 1.247 . S
C249 O238 1.253 . S
C249 O239 1.283 . S
C250 O242 1.304 . S
C250 O244 1.272 . S
C251 O243 1.311 . S
C251 O245 1.231 . S
O252 Zn234 1.953 . S
O252 C246 1.298 . S
O253 Zn254 1.953 . S
O253 C269 1.225 . S
Zn254 O253 1.953 . S
Zn254 O255 1.949 . S
Zn254 O261 1.919 . S
Zn254 O266 1.924 . S
O255 Zn254 1.949 . S
O255 Zn256 1.923 . S
O255 Zn257 1.950 . S
O255 Zn258 1.945 . S
Zn256 O255 1.923 . S
Zn256 O259 1.933 . S
Zn256 O262 1.941 . S
Zn256 O263 1.965 . S
Zn257 O255 1.950 . S
Zn257 O264 1.938 . S
Zn257 O265 1.906 . S
Zn257 O275 1.953 . S
Zn258 O255 1.945 . S
Zn258 O260 1.932 . S
Zn258 O267 1.977 . S
Zn258 O268 1.910 . S
O259 Zn256 1.933 . S
O259 C270 1.226 . S
O260 Zn258 1.932 . S
O260 C270 1.307 . S
O261 Zn254 1.919 . S
O261 C272 1.253 . S
O262 Zn256 1.941 . S
O262 C272 1.283 . S
O263 Zn256 1.965 . S
O263 C271 1.303 . S
O264 Zn257 1.938 . S
O264 C271 1.247 . S
O265 Zn257 1.906 . S
O265 C273 1.304 . S
O266 Zn254 1.924 . S
O266 C274 1.311 . S
O267 Zn258 1.977 . S
O267 C273 1.272 . S
O268 Zn258 1.910 . S
O268 C274 1.231 . S
C269 O253 1.225 . S
C269 O275 1.298 . S
C270 O259 1.226 . S
C270 O260 1.307 . S
C271 O263 1.303 . S
C271 O264 1.247 . S
C272 O261 1.253 . S
C272 O262 1.283 . S
C273 O265 1.304 . S
C273 O267 1.272 . S
C274 O266 1.311 . S
C274 O268 1.231 . S
O275 Zn257 1.953 . S
O275 C269 1.298 . S
O276 Zn277 1.953 . S
O276 C292 1.225 . S
Zn277 O276 1.953 . S
Zn277 O278 1.949 . S
Zn277 O284 1.919 . S
Zn277 O289 1.924 . S
O278 Zn277 1.949 . S
O278 Zn279 1.923 . S
O278 Zn280 1.950 . S
O278 Zn281 1.945 . S
Zn279 O278 1.923 . S
Zn279 O282 1.933 . S
Zn279 O285 1.941 . S
Zn279 O286 1.965 . S
Zn280 O278 1.950 . S
Zn280 O287 1.938 . S
Zn280 O288 1.906 . S
Zn280 O298 1.953 . S
Zn281 O278 1.945 . S
Zn281 O283 1.932 . S
Zn281 O290 1.977 . S
Zn281 O291 1.910 . S
O282 Zn279 1.933 . S
O282 C293 1.226 . S
O283 Zn281 1.932 . S
O283 C293 1.307 . S
O284 Zn277 1.919 . S
O284 C295 1.253 . S
O285 Zn279 1.941 . S
O285 C295 1.283 . S
O286 Zn279 1.965 . S
O286 C294 1.303 . S
O287 Zn280 1.938 . S
O287 C294 1.247 . S
O288 Zn280 1.906 . S
O288 C296 1.304 . S
O289 Zn277 1.924 . S
O289 C297 1.311 . S
O290 Zn281 1.977 . S
O290 C296 1.272 . S
O291 Zn281 1.910 . S
O291 C297 1.231 . S
C292 O276 1.225 . S
C292 O298 1.298 . S
C293 O282 1.226 . S
C293 O283 1.307 . S
C294 O286 1.303 . S
C294 O287 1.247 . S
C295 O284 1.253 . S
C295 O285 1.283 . S
C296 O288 1.304 . S
C296 O290 1.272 . S
C297 O289 1.311 . S
C297 O291 1.231 . S
O298 Zn280 1.953 . S
O298 C292 1.298 . S
O299 Zn300 1.953 . S
O299 C315 1.225 . S
Zn300 O299 1.953 . S
Zn300 O301 1.949 . S
Zn300 O307 1.919 . S
Zn300 O312 1.924 . S
O301 Zn300 1.949 . S
O301 Zn302 1.923 . S
O301 Zn303 1.950 . S
O301 Zn304 1.945 . S
Zn302 O301 1.923 . S
Zn302 O305 1.933 . S
Zn302 O308 1.941 . S
Zn302 O309 1.965 . S
Zn303 O301 1.950 . S
Zn303 O310 1.938 . S
Zn303 O311 1.906 . S
Zn303 O321 1.953 . S
Zn304 O301 1.945 . S
Zn304 O306 1.932 . S
Zn304 O313 1.977 . S
Zn304 O314 1.910 . S
O305 Zn302 1.933 . S
O305 C316 1.226 . S
O306 Zn304 1.932 . S
O306 C316 1.307 . S
O307 Zn300 1.919 . S
O307 C318 1.253 . S
O308 Zn302 1.941 . S
O308 C318 1.283 . S
O309 Zn302 1.965 . S
O309 C317 1.303 . S
O310 Zn303 1.938 . S
O310 C317 1.247 . S
O311 Zn303 1.906 . S
O311 C319 1.304 . S
O312 Zn300 1.924 . S
O312 C320 1.311 . S
O313 Zn304 1.977 . S
O313 C319 1.272 . S
O314 Zn304 1.910 . S
O314 C320 1.231 . S
C315 O299 1.225 . S
C315 O321 1.298 . S
C316 O305 1.226 . S
C316 O306 1.307 . S
C317 O309 1.303 . S
C317 O310 1.247 . S
C318 O307 1.253 . S
C318 O308 1.283 . S
C319 O311 1.304 . S
C319 O313 1.272 . S
C320 O312 1.311 . S
C320 O314 1.231 . S
O321 Zn303 1.953 . S
O321 C315 1.298 . S
O322 Zn323 1.953 . S
O322 C338 1.225 . S
Zn323 O322 1.953 . S
Zn323 O324 1.949 . S
Zn323 O330 1.919 . S
Zn323 O335 1.924 . S
O324 Zn323 1.949 . S
O324 Zn325 1.923 . S
O324 Zn326 1.950 . S
O324 Zn327 1.945 . S
Zn325 O324 1.923 . S
Zn325 O328 1.933 . S
Zn325 O331 1.941 . S
Zn325 O332 1.965 . S
Zn326 O324 1.950 . S
Zn326 O333 1.938 . S
Zn326 O334 1.906 . S
Zn326 O344 1.953 . S
Zn327 O324 1.945 . S
Zn327 O329 1.932 . S
Zn327 O336 1.977 . S
Zn327 O337 1.910 . S
O328 Zn325 1.933 . S
O328 C339 1.226 . S
O329 Zn327 1.932 . S
O329 C339 1.307 . S
O330 Zn323 1.919 . S
O330 C341 1.253 . S
O331 Zn325 1.941 . S
O331 C341 1.283 . S
O332 Zn325 1.965 . S
O332 C340 1.303 . S
O333 Zn326 1.938 . S
O333 C340 1.247 . S
O334 Zn326 1.906 . S
O334 C342 1.304 . S
O335 Zn323 1.924 . S
O335 C343 1.311 . S
O336 Zn327 1.977 . S
O336 C342 1.272 . S
O337 Zn327 1.910 . S
O337 C343 1.231 . S
C338 O322 1.225 . S
C338 O344 1.298 . S
C339 O328 1.226 . S
C339 O329 1.307 . S
C340 O332 1.303 . S
C340 O333 1.247 . S
C341 O330 1.253 . S
C341 O331 1.283 . S
C342 O334 1.304 . S
C342 O336 1.272 . S
C343 O335 1.311 . S
C343 O337 1.231 . S
O344 Zn326 1.953 . S
O344 C338 1.298 . S
O345 Zn346 1.953 . S
O345 C361 1.225 . S
Zn346 O345 1.953 . S
Zn346 O347 1.949 . S
Zn346 O353 1.919 . S
Zn346 O358 1.924 . S
O347 Zn346 1.949 . S
O347 Zn348 1.923 . S
O347 Zn349 1.950 . S
O347 Zn350 1.945 . S
Zn348 O347 1.923 . S
Zn348 O351 1.933 . S
Zn348 O354 1.941 . S
Zn348 O355 1.965 . S
Zn349 O347 1.950 . S
Zn349 O356 1.938 . S
Zn349 O357 1.906 . S
Zn349 O367 1.953 . S
Zn350 O347 1.945 . S
Zn350 O352 1.932 . S
Zn350 O359 1.977 . S
Zn350 O360 1.910 . S
O351 Zn348 1.933 . S
O351 C362 1.226 . S
O352 Zn350 1.932 . S
O352 C362 1.307 . S
O353 Zn346 1.919 . S
O353 C364 1.253 . S
O354 Zn348 1.941 . S
O354 C364 1.283 . S
O355 Zn348 1.965 . S
O355 C363 1.303 . S
O356 Zn349 1.938 . S
O356 C363 1.247 . S
O357 Zn349 1.906 . S
O357 C365 1.304 . S
O358 Zn346 1.924 . S
O358 C366 1.311 . S
O359 Zn350 1.977 . S
O359 C365 1.272 . S
O360 Zn350 1.910 . S
O360 C366 1.231 . S
C361 O345 1.225 . S
C361 O367 1.298 . S
C362 O351 1.226 . S
C362 O352 1.307 . S
C363 O355 1.303 . S
C363 O356 1.247 . S
C364 O353 1.253 . S
C364 O354 1.283 . S
C365 O357 1.304 . S
C365 O359 1.272 . S
C366 O358 1.311 . S
C366 O360 1.231 . S
O367 Zn349 1.953 . S
O367 C361 1.298 . S
O368 Zn369 1.953 1_565 S
O368 C384 1.225 . S
Zn369 O368 1.953 1_545 S
Zn369 O370 1.949 . S
Zn369 O376 1.919 . S
Zn369 O381 1.924 . S
O370 Zn369 1.949 . S
O370 Zn371 1.923 . S
O370 Zn372 1.950 . S
O370 Zn373 1.945 . S
Zn371 O370 1.923 . S
Zn371 O374 1.933 . S
Zn371 O377 1.941 . S
Zn371 O378 1.965 . S
Zn372 O370 1.950 . S
Zn372 O379 1.938 . S
Zn372 O380 1.906 . S
Zn372 O390 1.953 1_545 S
Zn373 O370 1.945 . S
Zn373 O375 1.932 . S
Zn373 O382 1.977 . S
Zn373 O383 1.910 . S
O374 Zn371 1.933 . S
O374 C385 1.226 . S
O375 Zn373 1.932 . S
O375 C385 1.307 . S
O376 Zn369 1.919 . S
O376 C387 1.253 . S
O377 Zn371 1.941 . S
O377 C387 1.283 . S
O378 Zn371 1.965 . S
O378 C386 1.303 . S
O379 Zn372 1.938 . S
O379 C386 1.247 . S
O380 Zn372 1.906 . S
O380 C388 1.304 . S
O381 Zn369 1.924 . S
O381 C389 1.311 . S
O382 Zn373 1.977 . S
O382 C388 1.272 . S
O383 Zn373 1.910 . S
O383 C389 1.231 . S
C384 O368 1.225 . S
C384 O390 1.298 . S
C385 O374 1.226 . S
C385 O375 1.307 . S
C386 O378 1.303 . S
C386 O379 1.247 . S
C387 O376 1.253 . S
C387 O377 1.283 . S
C388 O380 1.304 . S
C388 O382 1.272 . S
C389 O381 1.311 . S
C389 O383 1.231 . S
O390 Zn372 1.953 1_565 S
O390 C384 1.298 . S
O391 Zn392 1.953 . S
O391 C407 1.225 . S
Zn392 O391 1.953 . S
Zn392 O393 1.949 . S
Zn392 O399 1.919 . S
Zn392 O404 1.924 . S
O393 Zn392 1.949 . S
O393 Zn394 1.923 . S
O393 Zn395 1.950 . S
O393 Zn396 1.945 . S
Zn394 O393 1.923 . S
Zn394 O397 1.933 . S
Zn394 O400 1.941 . S
Zn394 O401 1.965 . S
Zn395 O393 1.950 . S
Zn395 O402 1.938 . S
Zn395 O403 1.906 . S
Zn395 O413 1.953 . S
Zn396 O393 1.945 . S
Zn396 O398 1.932 . S
Zn396 O405 1.977 . S
Zn396 O406 1.910 . S
O397 Zn394 1.933 . S
O397 C408 1.226 . S
O398 Zn396 1.932 . S
O398 C408 1.307 . S
O399 Zn392 1.919 . S
O399 C410 1.253 . S
O400 Zn394 1.941 . S
O400 C410 1.283 . S
O401 Zn394 1.965 . S
O401 C409 1.303 . S
O402 Zn395 1.938 . S
O402 C409 1.247 . S
O403 Zn395 1.906 . S
O403 C411 1.304 . S
O404 Zn392 1.924 . S
O404 C412 1.311 . S
O405 Zn396 1.977 . S
O405 C411 1.272 . S
O406 Zn396 1.910 . S
O406 C412 1.231 . S
C407 O391 1.225 . S
C407 O413 1.298 . S
C408 O397 1.226 . S
C408 O398 1.307 . S
C409 O401 1.303 . S
C409 O402 1.247 . S
C410 O399 1.253 . S
C410 O400 1.283 . S
C411 O403 1.304 . S
C411 O405 1.272 . S
C412 O404 1.311 . S
C412 O406 1.231 . S
O413 Zn395 1.953 . S
O413 C407 1.298 . S
O414 Zn415 1.953 . S
O414 C430 1.225 . S
Zn415 O414 1.953 . S
Zn415 O416 1.949 . S
Zn415 O422 1.919 . S
Zn415 O427 1.924 . S
O416 Zn415 1.949 . S
O416 Zn417 1.923 . S
O416 Zn418 1.950 . S
O416 Zn419 1.945 . S
Zn417 O416 1.923 . S
Zn417 O420 1.933 . S
Zn417 O423 1.941 . S
Zn417 O424 1.965 . S
Zn418 O416 1.950 . S
Zn418 O425 1.938 . S
Zn418 O426 1.906 . S
Zn418 O436 1.953 . S
Zn419 O416 1.945 . S
Zn419 O421 1.932 . S
Zn419 O428 1.977 . S
Zn419 O429 1.910 . S
O420 Zn417 1.933 . S
O420 C431 1.226 . S
O421 Zn419 1.932 . S
O421 C431 1.307 . S
O422 Zn415 1.919 . S
O422 C433 1.253 . S
O423 Zn417 1.941 . S
O423 C433 1.283 . S
O424 Zn417 1.965 . S
O424 C432 1.303 . S
O425 Zn418 1.938 . S
O425 C432 1.247 . S
O426 Zn418 1.906 . S
O426 C434 1.304 . S
O427 Zn415 1.924 . S
O427 C435 1.311 . S
O428 Zn419 1.977 . S
O428 C434 1.272 . S
O429 Zn419 1.910 . S
O429 C435 1.231 . S
C430 O414 1.225 . S
C430 O436 1.298 . S
C431 O420 1.226 . S
C431 O421 1.307 . S
C432 O424 1.303 . S
C432 O425 1.247 . S
C433 O422 1.253 . S
C433 O423 1.283 . S
C434 O426 1.304 . S
C434 O428 1.272 . S
C435 O427 1.311 . S
C435 O429 1.231 . S
O436 Zn418 1.953 . S
O436 C430 1.298 . S
O437 Zn438 1.953 1_565 S
O437 C453 1.225 . S
Zn438 O437 1.953 1_545 S
Zn438 O439 1.949 . S
Zn438 O445 1.919 . S
Zn438 O450 1.924 . S
O439 Zn438 1.949 . S
O439 Zn440 1.923 . S
O439 Zn441 1.950 . S
O439 Zn442 1.945 . S
Zn440 O439 1.923 . S
Zn440 O443 1.933 . S
Zn440 O446 1.941 . S
Zn440 O447 1.965 . S
Zn441 O439 1.950 . S
Zn441 O448 1.938 . S
Zn441 O449 1.906 . S
Zn441 O459 1.953 1_545 S
Zn442 O439 1.945 . S
Zn442 O444 1.932 . S
Zn442 O451 1.977 . S
Zn442 O452 1.910 . S
O443 Zn440 1.933 . S
O443 C454 1.226 . S
O444 Zn442 1.932 . S
O444 C454 1.307 . S
O445 Zn438 1.919 . S
O445 C456 1.253 . S
O446 Zn440 1.941 . S
O446 C456 1.283 . S
O447 Zn440 1.965 . S
O447 C455 1.303 . S
O448 Zn441 1.938 . S
O448 C455 1.247 . S
O449 Zn441 1.906 . S
O449 C457 1.304 . S
O450 Zn438 1.924 . S
O450 C458 1.311 . S
O451 Zn442 1.977 . S
O451 C457 1.272 . S
O452 Zn442 1.910 . S
O452 C458 1.231 . S
C453 O437 1.225 . S
C453 O459 1.298 . S
C454 O443 1.226 . S
C454 O444 1.307 . S
C455 O447 1.303 . S
C455 O448 1.247 . S
C456 O445 1.253 . S
C456 O446 1.283 . S
C457 O449 1.304 . S
C457 O451 1.272 . S
C458 O450 1.311 . S
C458 O452 1.231 . S
O459 Zn441 1.953 1_565 S
O459 C453 1.298 . S
O460 Zn461 1.953 1_545 S
O460 C476 1.225 . S
Zn461 O460 1.953 1_565 S
Zn461 O462 1.949 . S
Zn461 O468 1.919 . S
Zn461 O473 1.924 . S
O462 Zn461 1.949 . S
O462 Zn463 1.923 . S
O462 Zn464 1.950 . S
O462 Zn465 1.945 . S
Zn463 O462 1.923 . S
Zn463 O466 1.933 . S
Zn463 O469 1.941 . S
Zn463 O470 1.965 . S
Zn464 O462 1.950 . S
Zn464 O471 1.938 . S
Zn464 O472 1.906 . S
Zn464 O482 1.953 1_565 S
Zn465 O462 1.945 . S
Zn465 O467 1.932 . S
Zn465 O474 1.977 . S
Zn465 O475 1.910 . S
O466 Zn463 1.933 . S
O466 C477 1.226 . S
O467 Zn465 1.932 . S
O467 C477 1.307 . S
O468 Zn461 1.919 . S
O468 C479 1.253 . S
O469 Zn463 1.941 . S
O469 C479 1.283 . S
O470 Zn463 1.965 . S
O470 C478 1.303 . S
O471 Zn464 1.938 . S
O471 C478 1.247 . S
O472 Zn464 1.906 . S
O472 C480 1.304 . S
O473 Zn461 1.924 . S
O473 C481 1.311 . S
O474 Zn465 1.977 . S
O474 C480 1.272 . S
O475 Zn465 1.910 . S
O475 C481 1.231 . S
C476 O460 1.225 . S
C476 O482 1.298 . S
C477 O466 1.226 . S
C477 O467 1.307 . S
C478 O470 1.303 . S
C478 O471 1.247 . S
C479 O468 1.253 . S
C479 O469 1.283 . S
C480 O472 1.304 . S
C480 O474 1.272 . S
C481 O473 1.311 . S
C481 O475 1.231 . S
O482 Zn464 1.953 1_545 S
O482 C476 1.298 . S
O483 Zn484 1.953 . S
O483 C499 1.225 . S
Zn484 O483 1.953 . S
Zn484 O485 1.949 . S
Zn484 O491 1.919 . S
Zn484 O496 1.924 . S
O485 Zn484 1.949 . S
O485 Zn486 1.923 . S
O485 Zn487 1.950 . S
O485 Zn488 1.945 . S
Zn486 O485 1.923 . S
Zn486 O489 1.933 . S
Zn486 O492 1.941 . S
Zn486 O493 1.965 . S
Zn487 O485 1.950 . S
Zn487 O494 1.938 . S
Zn487 O495 1.906 . S
Zn487 O505 1.953 . S
Zn488 O485 1.945 . S
Zn488 O490 1.932 . S
Zn488 O497 1.977 . S
Zn488 O498 1.910 . S
O489 Zn486 1.933 . S
O489 C500 1.226 . S
O490 Zn488 1.932 . S
O490 C500 1.307 . S
O491 Zn484 1.919 . S
O491 C502 1.253 . S
O492 Zn486 1.941 . S
O492 C502 1.283 . S
O493 Zn486 1.965 . S
O493 C501 1.303 . S
O494 Zn487 1.938 . S
O494 C501 1.247 . S
O495 Zn487 1.906 . S
O495 C503 1.304 . S
O496 Zn484 1.924 . S
O496 C504 1.311 . S
O497 Zn488 1.977 . S
O497 C503 1.272 . S
O498 Zn488 1.910 . S
O498 C504 1.231 . S
C499 O483 1.225 . S
C499 O505 1.298 . S
C500 O489 1.226 . S
C500 O490 1.307 . S
C501 O493 1.303 . S
C501 O494 1.247 . S
C502 O491 1.253 . S
C502 O492 1.283 . S
C503 O495 1.304 . S
C503 O497 1.272 . S
C504 O496 1.311 . S
C504 O498 1.231 . S
O505 Zn487 1.953 . S
O505 C499 1.298 . S
O506 Zn507 1.953 . S
O506 C522 1.225 . S
Zn507 O506 1.953 . S
Zn507 O508 1.949 . S
Zn507 O514 1.919 . S
Zn507 O519 1.924 . S
O508 Zn507 1.949 . S
O508 Zn509 1.923 . S
O508 Zn510 1.950 . S
O508 Zn511 1.945 . S
Zn509 O508 1.923 . S
Zn509 O512 1.933 . S
Zn509 O515 1.941 . S
Zn509 O516 1.965 . S
Zn510 O508 1.950 . S
Zn510 O517 1.938 . S
Zn510 O518 1.906 . S
Zn510 O528 1.953 . S
Zn511 O508 1.945 . S
Zn511 O513 1.932 . S
Zn511 O520 1.977 . S
Zn511 O521 1.910 . S
O512 Zn509 1.933 . S
O512 C523 1.226 . S
O513 Zn511 1.932 . S
O513 C523 1.307 . S
O514 Zn507 1.919 . S
O514 C525 1.253 . S
O515 Zn509 1.941 . S
O515 C525 1.283 . S
O516 Zn509 1.965 . S
O516 C524 1.303 . S
O517 Zn510 1.938 . S
O517 C524 1.247 . S
O518 Zn510 1.906 . S
O518 C526 1.304 . S
O519 Zn507 1.924 . S
O519 C527 1.311 . S
O520 Zn511 1.977 . S
O520 C526 1.272 . S
O521 Zn511 1.910 . S
O521 C527 1.231 . S
C522 O506 1.225 . S
C522 O528 1.298 . S
C523 O512 1.226 . S
C523 O513 1.307 . S
C524 O516 1.303 . S
C524 O517 1.247 . S
C525 O514 1.253 . S
C525 O515 1.283 . S
C526 O518 1.304 . S
C526 O520 1.272 . S
C527 O519 1.311 . S
C527 O521 1.231 . S
O528 Zn510 1.953 . S
O528 C522 1.298 . S
O529 Zn530 1.953 1_545 S
O529 C545 1.225 . S
Zn530 O529 1.953 1_565 S
Zn530 O531 1.949 . S
Zn530 O537 1.919 . S
Zn530 O542 1.924 . S
O531 Zn530 1.949 . S
O531 Zn532 1.923 . S
O531 Zn533 1.950 . S
O531 Zn534 1.945 . S
Zn532 O531 1.923 . S
Zn532 O535 1.933 . S
Zn532 O538 1.941 . S
Zn532 O539 1.965 . S
Zn533 O531 1.950 . S
Zn533 O540 1.938 . S
Zn533 O541 1.906 . S
Zn533 O551 1.953 1_565 S
Zn534 O531 1.945 . S
Zn534 O536 1.932 . S
Zn534 O543 1.977 . S
Zn534 O544 1.910 . S
O535 Zn532 1.933 . S
O535 C546 1.226 . S
O536 Zn534 1.932 . S
O536 C546 1.307 . S
O537 Zn530 1.919 . S
O537 C548 1.253 . S
O538 Zn532 1.941 . S
O538 C548 1.283 . S
O539 Zn532 1.965 . S
O539 C547 1.303 . S
O540 Zn533 1.938 . S
O540 C547 1.247 . S
O541 Zn533 1.906 . S
O541 C549 1.304 . S
O542 Zn530 1.924 . S
O542 C550 1.311 . S
O543 Zn534 1.977 . S
O543 C549 1.272 . S
O544 Zn534 1.910 . S
O544 C550 1.231 . S
C545 O529 1.225 . S
C545 O551 1.298 . S
C546 O535 1.226 . S
C546 O536 1.307 . S
C547 O539 1.303 . S
C547 O540 1.247 . S
C548 O537 1.253 . S
C548 O538 1.283 . S
C549 O541 1.304 . S
C549 O543 1.272 . S
C550 O542 1.311 . S
C550 O544 1.231 . S
O551 Zn533 1.953 1_545 S
O551 C545 1.298 . S
O552 Zn553 1.953 . S
O552 C568 1.225 1_556 S
Zn553 O552 1.953 . S
Zn553 O554 1.930 1_556 S
Zn553 O560 1.919 . S
Zn553 O565 1.924 . S
O554 Zn553 1.930 1_554 S
O554 Zn555 1.909 1_554 S
O554 Zn556 1.970 . S
O554 Zn557 1.957 . S
Zn555 O554 1.909 1_556 S
Zn555 O558 1.933 . S
Zn555 O561 1.941 . S
Zn555 O562 1.965 . S
Zn556 O554 1.970 . S
Zn556 O563 1.938 . S
Zn556 O564 1.906 . S
Zn556 O574 1.953 . S
Zn557 O554 1.957 . S
Zn557 O559 1.932 . S
Zn557 O566 1.977 . S
Zn557 O567 1.910 . S
O558 Zn555 1.933 . S
O558 C569 1.226 . S
O559 Zn557 1.932 . S
O559 C569 1.307 1_554 S
O560 Zn553 1.919 . S
O560 C571 1.253 . S
O561 Zn555 1.941 . S
O561 C571 1.283 . S
O562 Zn555 1.965 . S
O562 C570 1.303 1_556 S
O563 Zn556 1.938 . S
O563 C570 1.247 . S
O564 Zn556 1.906 . S
O564 C572 1.304 . S
O565 Zn553 1.924 . S
O565 C573 1.287 1_556 S
O566 Zn557 1.977 . S
O566 C572 1.272 . S
O567 Zn557 1.910 . S
O567 C573 1.249 . S
C568 O552 1.225 1_554 S
C568 O574 1.298 . S
C569 O558 1.226 . S
C569 O559 1.307 1_556 S
C570 O562 1.303 1_554 S
C570 O563 1.247 . S
C571 O560 1.253 . S
C571 O561 1.283 . S
C572 O564 1.304 . S
C572 O566 1.272 . S
C573 O565 1.287 1_554 S
C573 O567 1.249 . S
O574 Zn556 1.953 . S
O574 C568 1.298 . S
O575 Zn576 1.953 . S
O575 C591 1.225 1_556 S
Zn576 O575 1.953 . S
Zn576 O577 1.930 1_556 S
Zn576 O583 1.919 . S
Zn576 O588 1.924 . S
O577 Zn576 1.930 1_554 S
O577 Zn578 1.909 1_554 S
O577 Zn579 1.970 . S
O577 Zn580 1.957 . S
Zn578 O577 1.909 1_556 S
Zn578 O581 1.933 . S
Zn578 O584 1.941 . S
Zn578 O585 1.965 . S
Zn579 O577 1.970 . S
Zn579 O586 1.938 . S
Zn579 O587 1.906 . S
Zn579 O597 1.953 . S
Zn580 O577 1.957 . S
Zn580 O582 1.932 . S
Zn580 O589 1.977 . S
Zn580 O590 1.910 . S
O581 Zn578 1.933 . S
O581 C592 1.226 . S
O582 Zn580 1.932 . S
O582 C592 1.307 1_554 S
O583 Zn576 1.919 . S
O583 C594 1.253 . S
O584 Zn578 1.941 . S
O584 C594 1.283 . S
O585 Zn578 1.965 . S
O585 C593 1.303 1_556 S
O586 Zn579 1.938 . S
O586 C593 1.247 . S
O587 Zn579 1.906 . S
O587 C595 1.304 . S
O588 Zn576 1.924 . S
O588 C596 1.287 1_556 S
O589 Zn580 1.977 . S
O589 C595 1.272 . S
O590 Zn580 1.910 . S
O590 C596 1.249 . S
C591 O575 1.225 1_554 S
C591 O597 1.298 . S
C592 O581 1.226 . S
C592 O582 1.307 1_556 S
C593 O585 1.303 1_554 S
C593 O586 1.247 . S
C594 O583 1.253 . S
C594 O584 1.283 . S
C595 O587 1.304 . S
C595 O589 1.272 . S
C596 O588 1.287 1_554 S
C596 O590 1.249 . S
O597 Zn579 1.953 . S
O597 C591 1.298 . S
O598 Zn599 1.953 . S
O598 C614 1.225 . S
Zn599 O598 1.953 . S
Zn599 O600 1.949 . S
Zn599 O606 1.919 . S
Zn599 O611 1.924 . S
O600 Zn599 1.949 . S
O600 Zn601 1.923 . S
O600 Zn602 1.950 . S
O600 Zn603 1.945 . S
Zn601 O600 1.923 . S
Zn601 O604 1.933 . S
Zn601 O607 1.941 . S
Zn601 O608 1.965 . S
Zn602 O600 1.950 . S
Zn602 O609 1.938 . S
Zn602 O610 1.906 . S
Zn602 O620 1.953 . S
Zn603 O600 1.945 . S
Zn603 O605 1.932 . S
Zn603 O612 1.977 . S
Zn603 O613 1.910 . S
O604 Zn601 1.933 . S
O604 C615 1.226 . S
O605 Zn603 1.932 . S
O605 C615 1.307 . S
O606 Zn599 1.919 . S
O606 C617 1.253 . S
O607 Zn601 1.941 . S
O607 C617 1.283 . S
O608 Zn601 1.965 . S
O608 C616 1.303 . S
O609 Zn602 1.938 . S
O609 C616 1.247 . S
O610 Zn602 1.906 . S
O610 C618 1.304 . S
O611 Zn599 1.924 . S
O611 C619 1.311 . S
O612 Zn603 1.977 . S
O612 C618 1.272 . S
O613 Zn603 1.910 . S
O613 C619 1.231 . S
C614 O598 1.225 . S
C614 O620 1.298 . S
C615 O604 1.226 . S
C615 O605 1.307 . S
C616 O608 1.303 . S
C616 O609 1.247 . S
C617 O606 1.253 . S
C617 O607 1.283 . S
C618 O610 1.304 . S
C618 O612 1.272 . S
C619 O611 1.311 . S
C619 O613 1.231 . S
O620 Zn602 1.953 . S
O620 C614 1.298 . S
O621 Zn622 1.953 . S
O621 C637 1.225 . S
Zn622 O621 1.953 . S
Zn622 O623 1.949 . S
Zn622 O629 1.919 . S
Zn622 O634 1.924 . S
O623 Zn622 1.949 . S
O623 Zn624 1.923 . S
O623 Zn625 1.950 . S
O623 Zn626 1.945 . S
Zn624 O623 1.923 . S
Zn624 O627 1.933 . S
Zn624 O630 1.941 . S
Zn624 O631 1.965 . S
Zn625 O623 1.950 . S
Zn625 O632 1.938 . S
Zn625 O633 1.906 . S
Zn625 O643 1.953 . S
Zn626 O623 1.945 . S
Zn626 O628 1.932 . S
Zn626 O635 1.977 . S
Zn626 O636 1.910 . S
O627 Zn624 1.933 . S
O627 C638 1.226 . S
O628 Zn626 1.932 . S
O628 C638 1.307 . S
O629 Zn622 1.919 . S
O629 C640 1.253 . S
O630 Zn624 1.941 . S
O630 C640 1.283 . S
O631 Zn624 1.965 . S
O631 C639 1.303 . S
O632 Zn625 1.938 . S
O632 C639 1.247 . S
O633 Zn625 1.906 . S
O633 C641 1.304 . S
O634 Zn622 1.924 . S
O634 C642 1.311 . S
O635 Zn626 1.977 . S
O635 C641 1.272 . S
O636 Zn626 1.910 . S
O636 C642 1.231 . S
C637 O621 1.225 . S
C637 O643 1.298 . S
C638 O627 1.226 . S
C638 O628 1.307 . S
C639 O631 1.303 . S
C639 O632 1.247 . S
C640 O629 1.253 . S
C640 O630 1.283 . S
C641 O633 1.304 . S
C641 O635 1.272 . S
C642 O634 1.311 . S
C642 O636 1.231 . S
O643 Zn625 1.953 . S
O643 C637 1.298 . S
O644 Zn645 1.953 . S
O644 C660 1.225 . S
Zn645 O644 1.953 . S
Zn645 O646 1.935 1_556 S
Zn645 O652 1.919 . S
Zn645 O657 1.924 . S
O646 Zn645 1.935 1_554 S
O646 Zn647 1.915 1_554 S
O646 Zn648 1.963 . S
O646 Zn649 1.953 . S
Zn647 O646 1.915 1_556 S
Zn647 O650 1.933 . S
Zn647 O653 1.941 . S
Zn647 O654 1.965 . S
Zn648 O646 1.963 . S
Zn648 O655 1.938 . S
Zn648 O656 1.906 . S
Zn648 O666 1.953 . S
Zn649 O646 1.953 . S
Zn649 O651 1.932 . S
Zn649 O658 1.977 . S
Zn649 O659 1.910 . S
O650 Zn647 1.933 . S
O650 C661 1.226 1_556 S
O651 Zn649 1.932 . S
O651 C661 1.307 . S
O652 Zn645 1.919 . S
O652 C663 1.253 . S
O653 Zn647 1.941 . S
O653 C663 1.283 . S
O654 Zn647 1.965 . S
O654 C662 1.303 1_556 S
O655 Zn648 1.938 . S
O655 C662 1.247 . S
O656 Zn648 1.906 . S
O656 C664 1.304 . S
O657 Zn645 1.924 . S
O657 C665 1.311 . S
O658 Zn649 1.977 . S
O658 C664 1.272 . S
O659 Zn649 1.910 . S
O659 C665 1.231 1_554 S
C660 O644 1.225 . S
C660 O666 1.298 1_556 S
C661 O650 1.226 1_554 S
C661 O651 1.307 . S
C662 O654 1.303 1_554 S
C662 O655 1.247 . S
C663 O652 1.253 . S
C663 O653 1.283 . S
C664 O656 1.304 . S
C664 O658 1.272 . S
C665 O657 1.311 . S
C665 O659 1.231 1_556 S
O666 Zn648 1.953 . S
O666 C660 1.298 1_554 S
O667 Zn668 1.953 . S
O667 C683 1.225 . S
Zn668 O667 1.953 . S
Zn668 O669 1.935 1_556 S
Zn668 O675 1.919 . S
Zn668 O680 1.924 . S
O669 Zn668 1.935 1_554 S
O669 Zn670 1.915 1_554 S
O669 Zn671 1.963 . S
O669 Zn672 1.953 . S
Zn670 O669 1.915 1_556 S
Zn670 O673 1.933 . S
Zn670 O676 1.941 . S
Zn670 O677 1.965 . S
Zn671 O669 1.963 . S
Zn671 O678 1.938 . S
Zn671 O679 1.906 . S
Zn671 O689 1.953 . S
Zn672 O669 1.953 . S
Zn672 O674 1.932 . S
Zn672 O681 1.977 . S
Zn672 O682 1.910 . S
O673 Zn670 1.933 . S
O673 C684 1.226 1_556 S
O674 Zn672 1.932 . S
O674 C684 1.307 . S
O675 Zn668 1.919 . S
O675 C686 1.253 . S
O676 Zn670 1.941 . S
O676 C686 1.283 . S
O677 Zn670 1.965 . S
O677 C685 1.303 1_556 S
O678 Zn671 1.938 . S
O678 C685 1.247 . S
O679 Zn671 1.906 . S
O679 C687 1.304 . S
O680 Zn668 1.924 . S
O680 C688 1.311 . S
O681 Zn672 1.977 . S
O681 C687 1.272 . S
O682 Zn672 1.910 . S
O682 C688 1.231 1_554 S
C683 O667 1.225 . S
C683 O689 1.298 1_556 S
C684 O673 1.226 1_554 S
C684 O674 1.307 . S
C685 O677 1.303 1_554 S
C685 O678 1.247 . S
C686 O675 1.253 . S
C686 O676 1.283 . S
C687 O679 1.304 . S
C687 O681 1.272 . S
C688 O680 1.311 . S
C688 O682 1.231 1_556 S
O689 Zn671 1.953 . S
O689 C683 1.298 1_554 S
O690 Zn691 1.953 . S
O690 C706 1.225 . S
Zn691 O690 1.953 . S
Zn691 O692 1.949 . S
Zn691 O698 1.919 . S
Zn691 O703 1.924 . S
O692 Zn691 1.949 . S
O692 Zn693 1.923 . S
O692 Zn694 1.950 . S
O692 Zn695 1.945 . S
Zn693 O692 1.923 . S
Zn693 O696 1.933 . S
Zn693 O699 1.941 . S
Zn693 O700 1.965 . S
Zn694 O692 1.950 . S
Zn694 O701 1.938 . S
Zn694 O702 1.906 . S
Zn694 O712 1.953 . S
Zn695 O692 1.945 . S
Zn695 O697 1.932 . S
Zn695 O704 1.977 . S
Zn695 O705 1.910 . S
O696 Zn693 1.933 . S
O696 C707 1.226 . S
O697 Zn695 1.932 . S
O697 C707 1.307 . S
O698 Zn691 1.919 . S
O698 C709 1.253 . S
O699 Zn693 1.941 . S
O699 C709 1.283 . S
O700 Zn693 1.965 . S
O700 C708 1.303 . S
O701 Zn694 1.938 . S
O701 C708 1.247 . S
O702 Zn694 1.906 . S
O702 C710 1.304 . S
O703 Zn691 1.924 . S
O703 C711 1.311 . S
O704 Zn695 1.977 . S
O704 C710 1.272 . S
O705 Zn695 1.910 . S
O705 C711 1.231 . S
C706 O690 1.225 . S
C706 O712 1.298 . S
C707 O696 1.226 . S
C707 O697 1.307 . S
C708 O700 1.303 . S
C708 O701 1.247 . S
C709 O698 1.253 . S
C709 O699 1.283 . S
C710 O702 1.304 . S
C710 O704 1.272 . S
C711 O703 1.311 . S
C711 O705 1.231 . S
O712 Zn694 1.953 . S
O712 C706 1.298 . S
O713 Zn714 1.953 . S
O713 C729 1.225 . S
Zn714 O713 1.953 . S
Zn714 O715 1.949 . S
Zn714 O721 1.919 . S
Zn714 O726 1.924 . S
O715 Zn714 1.949 . S
O715 Zn716 1.923 . S
O715 Zn717 1.950 . S
O715 Zn718 1.945 . S
Zn716 O715 1.923 . S
Zn716 O719 1.933 . S
Zn716 O722 1.941 . S
Zn716 O723 1.965 . S
Zn717 O715 1.950 . S
Zn717 O724 1.938 . S
Zn717 O725 1.906 . S
Zn717 O735 1.953 . S
Zn718 O715 1.945 . S
Zn718 O720 1.932 . S
Zn718 O727 1.977 . S
Zn718 O728 1.910 . S
O719 Zn716 1.933 . S
O719 C730 1.226 . S
O720 Zn718 1.932 . S
O720 C730 1.307 . S
O721 Zn714 1.919 . S
O721 C732 1.253 . S
O722 Zn716 1.941 . S
O722 C732 1.283 . S
O723 Zn716 1.965 . S
O723 C731 1.303 . S
O724 Zn717 1.938 . S
O724 C731 1.247 . S
O725 Zn717 1.906 . S
O725 C733 1.304 . S
O726 Zn714 1.924 . S
O726 C734 1.311 . S
O727 Zn718 1.977 . S
O727 C733 1.272 . S
O728 Zn718 1.910 . S
O728 C734 1.231 . S
C729 O713 1.225 . S
C729 O735 1.298 . S
C730 O719 1.226 . S
C730 O720 1.307 . S
C731 O723 1.303 . S
C731 O724 1.247 . S
C732 O721 1.253 . S
C732 O722 1.283 . S
C733 O725 1.304 . S
C733 O727 1.272 . S
C734 O726 1.311 . S
C734 O728 1.231 . S
O735 Zn717 1.953 . S
O735 C729 1.298 . S
C736 C737 1.369 . S
C736 C738 1.419 . S
C736 H740 0.930 . S
C737 C736 1.369 . S
C737 C746 1.429 1_554 S
C738 C736 1.419 . S
C738 C739 1.363 . S
C738 H741 0.929 . S
C739 C738 1.363 . S
C739 C745 1.428 1_554 S
H740 C736 0.930 . S
H741 C738 0.929 . S
S742 N743 1.613 . S
S742 N744 1.610 . S
N743 S742 1.613 . S
N743 C746 1.350 . S
N744 S742 1.610 . S
N744 C745 1.351 . S
C745 C739 1.428 1_556 S
C745 N744 1.351 . S
C745 C746 1.434 . S
C746 C737 1.429 1_556 S
C746 N743 1.350 . S
C746 C745 1.434 . S
C747 C748 1.370 . S
C747 C749 1.418 . S
C747 H751 0.929 1_554 S
C748 C747 1.370 . S
C748 C757 1.429 . S
C749 C747 1.418 . S
C749 C750 1.365 . S
C749 H752 0.928 1_554 S
C750 C749 1.365 . S
C750 C756 1.428 . S
H751 C747 0.929 1_556 S
H752 C749 0.928 1_556 S
S753 N754 1.613 . S
S753 N755 1.610 . S
N754 S753 1.613 . S
N754 C757 1.350 . S
N755 S753 1.610 . S
N755 C756 1.351 . S
C756 C750 1.428 . S
C756 N755 1.351 . S
C756 C757 1.434 . S
C757 C748 1.429 . S
C757 N754 1.350 . S
C757 C756 1.434 . S
C758 C759 1.369 . S
C758 C760 1.419 . S
C758 H762 0.930 . S
C759 C758 1.369 . S
C759 C768 1.429 . S
C760 C758 1.419 . S
C760 C761 1.363 . S
C760 H763 0.929 . S
C761 C760 1.363 . S
C761 C767 1.428 . S
H762 C758 0.930 . S
H763 C760 0.929 . S
S764 N765 1.613 . S
S764 N766 1.610 . S
N765 S764 1.613 . S
N765 C768 1.350 . S
N766 S764 1.610 . S
N766 C767 1.351 . S
C767 C761 1.428 . S
C767 N766 1.351 . S
C767 C768 1.434 . S
C768 C759 1.429 . S
C768 N765 1.350 . S
C768 C767 1.434 . S
C769 C770 1.369 . S
C769 C771 1.419 . S
C769 H773 0.930 . S
C770 C769 1.369 . S
C770 C779 1.429 . S
C771 C769 1.419 . S
C771 C772 1.363 . S
C771 H774 0.929 . S
C772 C771 1.363 . S
C772 C778 1.428 . S
H773 C769 0.930 . S
H774 C771 0.929 . S
S775 N776 1.613 . S
S775 N777 1.610 . S
N776 S775 1.613 . S
N776 C779 1.350 . S
N777 S775 1.610 . S
N777 C778 1.351 . S
C778 C772 1.428 . S
C778 N777 1.351 . S
C778 C779 1.434 . S
C779 C770 1.429 . S
C779 N776 1.350 . S
C779 C778 1.434 . S
C780 C781 1.369 . S
C780 C782 1.419 . S
C780 H784 0.930 . S
C781 C780 1.369 . S
C781 C790 1.429 . S
C782 C780 1.419 . S
C782 C783 1.363 . S
C782 H785 0.929 . S
C783 C782 1.363 . S
C783 C789 1.428 . S
H784 C780 0.930 . S
H785 C782 0.929 . S
S786 N787 1.614 . S
S786 N788 1.611 . S
N787 S786 1.614 . S
N787 C790 1.350 . S
N788 S786 1.611 . S
N788 C789 1.351 . S
C789 C783 1.428 . S
C789 N788 1.351 . S
C789 C790 1.434 . S
C790 C781 1.429 . S
C790 N787 1.350 . S
C790 C789 1.434 . S
C791 C792 1.369 . S
C791 C793 1.419 . S
C791 H795 0.930 . S
C792 C791 1.369 . S
C792 C801 1.429 1_556 S
C793 C791 1.419 . S
C793 C794 1.363 . S
C793 H796 0.929 . S
C794 C793 1.363 . S
C794 C800 1.428 1_556 S
H795 C791 0.930 . S
H796 C793 0.929 . S
S797 N798 1.613 . S
S797 N799 1.610 . S
N798 S797 1.613 . S
N798 C801 1.350 . S
N799 S797 1.610 . S
N799 C800 1.351 . S
C800 C794 1.428 1_554 S
C800 N799 1.351 . S
C800 C801 1.434 . S
C801 C792 1.429 1_554 S
C801 N798 1.350 . S
C801 C800 1.434 . S
C802 C803 1.369 . S
C802 C804 1.419 . S
C802 H806 0.930 . S
C803 C802 1.369 . S
C803 C812 1.429 . S
C804 C802 1.419 . S
C804 C805 1.363 . S
C804 H807 0.929 . S
C805 C804 1.363 . S
C805 C811 1.428 . S
H806 C802 0.930 . S
H807 C804 0.929 . S
S808 N809 1.613 . S
S808 N810 1.610 . S
N809 S808 1.613 . S
N809 C812 1.350 . S
N810 S808 1.610 . S
N810 C811 1.351 . S
C811 C805 1.428 . S
C811 N810 1.351 . S
C811 C812 1.434 . S
C812 C803 1.429 . S
C812 N809 1.350 . S
C812 C811 1.434 . S
C813 C814 1.369 . S
C813 C815 1.419 . S
C813 H817 0.930 . S
C814 C813 1.369 . S
C814 C823 1.429 . S
C815 C813 1.419 . S
C815 C816 1.363 . S
C815 H818 0.929 . S
C816 C815 1.363 . S
C816 C822 1.428 . S
H817 C813 0.930 . S
H818 C815 0.929 . S
S819 N820 1.613 . S
S819 N821 1.610 . S
N820 S819 1.613 . S
N820 C823 1.350 . S
N821 S819 1.610 . S
N821 C822 1.351 . S
C822 C816 1.428 . S
C822 N821 1.351 . S
C822 C823 1.434 . S
C823 C814 1.429 . S
C823 N820 1.350 . S
C823 C822 1.434 . S
C824 C825 1.369 . S
C824 C826 1.419 . S
C824 H828 0.930 . S
C825 C824 1.369 . S
C825 C834 1.429 . S
C826 C824 1.419 . S
C826 C827 1.363 . S
C826 H829 0.929 . S
C827 C826 1.363 . S
C827 C833 1.428 . S
H828 C824 0.930 . S
H829 C826 0.929 . S
S830 N831 1.613 . S
S830 N832 1.610 . S
N831 S830 1.613 . S
N831 C834 1.350 . S
N832 S830 1.610 . S
N832 C833 1.351 . S
C833 C827 1.428 . S
C833 N832 1.351 . S
C833 C834 1.434 . S
C834 C825 1.429 . S
C834 N831 1.350 . S
C834 C833 1.434 . S
C835 C836 1.369 . S
C835 C837 1.419 . S
C835 H839 0.930 . S
C836 C835 1.369 . S
C836 C845 1.429 . S
C837 C835 1.419 . S
C837 C838 1.363 . S
C837 H840 0.929 . S
C838 C837 1.363 . S
C838 C844 1.428 . S
H839 C835 0.930 . S
H840 C837 0.929 . S
S841 N842 1.613 . S
S841 N843 1.610 . S
N842 S841 1.613 . S
N842 C845 1.350 . S
N843 S841 1.610 . S
N843 C844 1.351 . S
C844 C838 1.428 . S
C844 N843 1.351 . S
C844 C845 1.434 . S
C845 C836 1.429 . S
C845 N842 1.350 . S
C845 C844 1.434 . S
C846 C847 1.369 . S
C846 C848 1.419 . S
C846 H850 0.930 . S
C847 C846 1.369 . S
C847 C856 1.429 . S
C848 C846 1.419 . S
C848 C849 1.363 . S
C848 H851 0.929 . S
C849 C848 1.363 . S
C849 C855 1.428 . S
H850 C846 0.930 . S
H851 C848 0.929 . S
S852 N853 1.613 . S
S852 N854 1.610 . S
N853 S852 1.613 . S
N853 C856 1.350 . S
N854 S852 1.610 . S
N854 C855 1.351 . S
C855 C849 1.428 . S
C855 N854 1.351 . S
C855 C856 1.434 . S
C856 C847 1.429 . S
C856 N853 1.350 . S
C856 C855 1.434 . S
C857 C858 1.369 . S
C857 C859 1.419 . S
C857 H861 0.930 . S
C858 C857 1.369 . S
C858 C867 1.429 . S
C859 C857 1.419 . S
C859 C860 1.363 . S
C859 H862 0.929 . S
C860 C859 1.363 . S
C860 C866 1.428 . S
H861 C857 0.930 . S
H862 C859 0.929 . S
S863 N864 1.613 . S
S863 N865 1.610 . S
N864 S863 1.613 . S
N864 C867 1.350 . S
N865 S863 1.610 . S
N865 C866 1.351 . S
C866 C860 1.428 . S
C866 N865 1.351 . S
C866 C867 1.434 . S
C867 C858 1.429 . S
C867 N864 1.350 . S
C867 C866 1.434 . S
C868 C869 1.369 . S
C868 C870 1.419 . S
C868 H872 0.930 . S
C869 C868 1.369 . S
C869 C878 1.429 . S
C870 C868 1.419 . S
C870 C871 1.363 . S
C870 H873 0.929 . S
C871 C870 1.363 . S
C871 C877 1.428 . S
H872 C868 0.930 . S
H873 C870 0.929 . S
S874 N875 1.613 . S
S874 N876 1.610 . S
N875 S874 1.613 . S
N875 C878 1.350 . S
N876 S874 1.610 . S
N876 C877 1.351 . S
C877 C871 1.428 . S
C877 N876 1.351 . S
C877 C878 1.434 . S
C878 C869 1.429 . S
C878 N875 1.350 . S
C878 C877 1.434 . S
C879 C880 1.369 . S
C879 C881 1.419 . S
C879 H883 0.930 . S
C880 C879 1.369 . S
C880 C889 1.429 . S
C881 C879 1.419 . S
C881 C882 1.363 . S
C881 H884 0.929 . S
C882 C881 1.363 . S
C882 C888 1.428 . S
H883 C879 0.930 . S
H884 C881 0.929 . S
S885 N886 1.613 . S
S885 N887 1.610 . S
N886 S885 1.613 . S
N886 C889 1.350 . S
N887 S885 1.610 . S
N887 C888 1.351 . S
C888 C882 1.428 . S
C888 N887 1.351 . S
C888 C889 1.434 . S
C889 C880 1.429 . S
C889 N886 1.350 . S
C889 C888 1.434 . S
C890 C891 1.369 . S
C890 C892 1.419 . S
C890 H894 0.930 . S
C891 C890 1.369 . S
C891 C900 1.429 . S
C892 C890 1.419 . S
C892 C893 1.363 . S
C892 H895 0.929 . S
C893 C892 1.363 . S
C893 C899 1.428 . S
H894 C890 0.930 . S
H895 C892 0.929 . S
S896 N897 1.613 . S
S896 N898 1.610 . S
N897 S896 1.613 . S
N897 C900 1.350 . S
N898 S896 1.610 . S
N898 C899 1.351 . S
C899 C893 1.428 . S
C899 N898 1.351 . S
C899 C900 1.434 . S
C900 C891 1.429 . S
C900 N897 1.350 . S
C900 C899 1.434 . S
C901 C902 1.369 . S
C901 C903 1.419 . S
C901 H905 0.930 . S
C902 C901 1.369 . S
C902 C911 1.429 . S
C903 C901 1.419 . S
C903 C904 1.363 . S
C903 H906 0.929 . S
C904 C903 1.363 . S
C904 C910 1.428 . S
H905 C901 0.930 . S
H906 C903 0.929 . S
S907 N908 1.613 . S
S907 N909 1.610 . S
N908 S907 1.613 . S
N908 C911 1.350 . S
N909 S907 1.610 . S
N909 C910 1.351 . S
C910 C904 1.428 . S
C910 N909 1.351 . S
C910 C911 1.434 . S
C911 C902 1.429 . S
C911 N908 1.350 . S
C911 C910 1.434 . S
C912 C913 1.369 . S
C912 C914 1.419 . S
C912 H916 0.930 . S
C913 C912 1.369 . S
C913 C922 1.429 . S
C914 C912 1.419 . S
C914 C915 1.363 . S
C914 H917 0.929 . S
C915 C914 1.363 . S
C915 C921 1.428 . S
H916 C912 0.930 . S
H917 C914 0.929 . S
S918 N919 1.613 . S
S918 N920 1.610 . S
N919 S918 1.613 . S
N919 C922 1.350 . S
N920 S918 1.610 . S
N920 C921 1.351 . S
C921 C915 1.428 . S
C921 N920 1.351 . S
C921 C922 1.434 . S
C922 C913 1.429 . S
C922 N919 1.350 . S
C922 C921 1.434 . S
C923 C924 1.369 . S
C923 C925 1.419 . S
C923 H927 0.930 . S
C924 C923 1.369 . S
C924 C933 1.429 . S
C925 C923 1.419 . S
C925 C926 1.363 . S
C925 H928 0.929 . S
C926 C925 1.363 . S
C926 C932 1.428 . S
H927 C923 0.930 . S
H928 C925 0.929 . S
S929 N930 1.613 . S
S929 N931 1.610 . S
N930 S929 1.613 . S
N930 C933 1.350 . S
N931 S929 1.610 . S
N931 C932 1.351 . S
C932 C926 1.428 . S
C932 N931 1.351 . S
C932 C933 1.434 . S
C933 C924 1.429 . S
C933 N930 1.350 . S
C933 C932 1.434 . S
C934 C935 1.369 . S
C934 C936 1.419 . S
C934 H938 0.930 . S
C935 C934 1.369 . S
C935 C944 1.429 . S
C936 C934 1.419 . S
C936 C937 1.363 . S
C936 H939 0.929 . S
C937 C936 1.363 . S
C937 C943 1.428 . S
H938 C934 0.930 . S
H939 C936 0.929 . S
S940 N941 1.613 . S
S940 N942 1.610 . S
N941 S940 1.613 . S
N941 C944 1.350 . S
N942 S940 1.610 . S
N942 C943 1.351 . S
C943 C937 1.428 . S
C943 N942 1.351 . S
C943 C944 1.434 . S
C944 C935 1.429 . S
C944 N941 1.350 . S
C944 C943 1.434 . S
C945 C946 1.369 . S
C945 C947 1.419 . S
C945 H949 0.930 . S
C946 C945 1.369 . S
C946 C955 1.429 . S
C947 C945 1.419 . S
C947 C948 1.363 . S
C947 H950 0.929 . S
C948 C947 1.363 . S
C948 C954 1.428 . S
H949 C945 0.930 . S
H950 C947 0.929 . S
S951 N952 1.613 . S
S951 N953 1.610 . S
N952 S951 1.613 . S
N952 C955 1.350 . S
N953 S951 1.610 . S
N953 C954 1.351 . S
C954 C948 1.428 . S
C954 N953 1.351 . S
C954 C955 1.434 . S
C955 C946 1.429 . S
C955 N952 1.350 . S
C955 C954 1.434 . S
C956 C957 1.369 . S
C956 C958 1.419 . S
C956 H960 0.930 . S
C957 C956 1.369 . S
C957 C966 1.429 . S
C958 C956 1.419 . S
C958 C959 1.363 . S
C958 H961 0.929 . S
C959 C958 1.363 . S
C959 C965 1.428 . S
H960 C956 0.930 . S
H961 C958 0.929 . S
S962 N963 1.613 . S
S962 N964 1.610 . S
N963 S962 1.613 . S
N963 C966 1.350 . S
N964 S962 1.610 . S
N964 C965 1.351 . S
C965 C959 1.428 . S
C965 N964 1.351 . S
C965 C966 1.434 . S
C966 C957 1.429 . S
C966 N963 1.350 . S
C966 C965 1.434 . S
C967 C968 1.369 . S
C967 C969 1.419 . S
C967 H971 0.930 . S
C968 C967 1.369 . S
C968 C977 1.429 . S
C969 C967 1.419 . S
C969 C970 1.363 . S
C969 H972 0.929 . S
C970 C969 1.363 . S
C970 C976 1.428 . S
H971 C967 0.930 . S
H972 C969 0.929 . S
S973 N974 1.613 . S
S973 N975 1.610 . S
N974 S973 1.613 . S
N974 C977 1.350 . S
N975 S973 1.610 . S
N975 C976 1.351 . S
C976 C970 1.428 . S
C976 N975 1.351 . S
C976 C977 1.434 . S
C977 C968 1.429 . S
C977 N974 1.350 . S
C977 C976 1.434 . S
C978 C979 1.369 . S
C978 C980 1.419 . S
C978 H982 0.930 . S
C979 C978 1.369 . S
C979 C988 1.429 . S
C980 C978 1.419 . S
C980 C981 1.363 . S
C980 H983 0.929 . S
C981 C980 1.363 . S
C981 C987 1.428 . S
H982 C978 0.930 . S
H983 C980 0.929 . S
S984 N985 1.613 . S
S984 N986 1.610 . S
N985 S984 1.613 . S
N985 C988 1.350 . S
N986 S984 1.610 . S
N986 C987 1.351 . S
C987 C981 1.428 . S
C987 N986 1.351 . S
C987 C988 1.434 . S
C988 C979 1.429 . S
C988 N985 1.350 . S
C988 C987 1.434 . S
C989 C990 1.369 . S
C989 C991 1.419 . S
C989 H993 0.930 . S
C990 C989 1.369 . S
C990 C999 1.429 . S
C991 C989 1.419 . S
C991 C992 1.363 . S
C991 H994 0.929 . S
C992 C991 1.363 . S
C992 C998 1.428 . S
H993 C989 0.930 . S
H994 C991 0.929 . S
S995 N996 1.613 . S
S995 N997 1.610 . S
N996 S995 1.613 . S
N996 C999 1.350 . S
N997 S995 1.610 . S
N997 C998 1.351 . S
C998 C992 1.428 . S
C998 N997 1.351 . S
C998 C999 1.434 . S
C999 C990 1.429 . S
C999 N996 1.350 . S
C999 C998 1.434 . S
C1000 C1001 1.369 . S
C1000 C1002 1.419 . S
C1000 H1004 0.930 . S
C1001 C1000 1.369 . S
C1001 C1010 1.429 . S
C1002 C1000 1.419 . S
C1002 C1003 1.363 . S
C1002 H1005 0.929 . S
C1003 C1002 1.363 . S
C1003 C1009 1.428 . S
H1004 C1000 0.930 . S
H1005 C1002 0.929 . S
S1006 N1007 1.613 . S
S1006 N1008 1.610 . S
N1007 S1006 1.613 . S
N1007 C1010 1.350 . S
N1008 S1006 1.610 . S
N1008 C1009 1.351 . S
C1009 C1003 1.428 . S
C1009 N1008 1.351 . S
C1009 C1010 1.434 . S
C1010 C1001 1.429 . S
C1010 N1007 1.350 . S
C1010 C1009 1.434 . S
C1011 C1012 1.369 . S
C1011 C1013 1.419 . S
C1011 H1015 0.930 . S
C1012 C1011 1.369 . S
C1012 C1021 1.429 . S
C1013 C1011 1.419 . S
C1013 C1014 1.363 . S
C1013 H1016 0.929 . S
C1014 C1013 1.363 . S
C1014 C1020 1.428 . S
H1015 C1011 0.930 . S
H1016 C1013 0.929 . S
S1017 N1018 1.613 . S
S1017 N1019 1.610 . S
N1018 S1017 1.613 . S
N1018 C1021 1.350 . S
N1019 S1017 1.610 . S
N1019 C1020 1.351 . S
C1020 C1014 1.428 . S
C1020 N1019 1.351 . S
C1020 C1021 1.434 . S
C1021 C1012 1.429 . S
C1021 N1018 1.350 . S
C1021 C1020 1.434 . S
C1022 C1023 1.369 . S
C1022 C1024 1.419 . S
C1022 H1026 0.930 . S
C1023 C1022 1.369 . S
C1023 C1032 1.429 . S
C1024 C1022 1.419 . S
C1024 C1025 1.363 . S
C1024 H1027 0.929 . S
C1025 C1024 1.363 . S
C1025 C1031 1.428 . S
H1026 C1022 0.930 . S
H1027 C1024 0.929 . S
S1028 N1029 1.613 . S
S1028 N1030 1.610 . S
N1029 S1028 1.613 . S
N1029 C1032 1.350 . S
N1030 S1028 1.610 . S
N1030 C1031 1.351 . S
C1031 C1025 1.428 . S
C1031 N1030 1.351 . S
C1031 C1032 1.434 . S
C1032 C1023 1.429 . S
C1032 N1029 1.350 . S
C1032 C1031 1.434 . S
C1033 C1034 1.369 . S
C1033 C1035 1.419 . S
C1033 H1037 0.930 . S
C1034 C1033 1.369 . S
C1034 C1043 1.429 . S
C1035 C1033 1.419 . S
C1035 C1036 1.363 . S
C1035 H1038 0.929 . S
C1036 C1035 1.363 . S
C1036 C1042 1.428 . S
H1037 C1033 0.930 . S
H1038 C1035 0.929 . S
S1039 N1040 1.613 . S
S1039 N1041 1.610 . S
N1040 S1039 1.613 . S
N1040 C1043 1.350 . S
N1041 S1039 1.610 . S
N1041 C1042 1.351 . S
C1042 C1036 1.428 . S
C1042 N1041 1.351 . S
C1042 C1043 1.434 . S
C1043 C1034 1.429 . S
C1043 N1040 1.350 . S
C1043 C1042 1.434 . S
C1044 C1045 1.369 . S
C1044 C1046 1.419 . S
C1044 H1048 0.930 . S
C1045 C1044 1.369 . S
C1045 C1054 1.429 . S
C1046 C1044 1.419 . S
C1046 C1047 1.363 . S
C1046 H1049 0.929 . S
C1047 C1046 1.363 . S
C1047 C1053 1.428 . S
H1048 C1044 0.930 . S
H1049 C1046 0.929 . S
S1050 N1051 1.613 . S
S1050 N1052 1.610 . S
N1051 S1050 1.613 . S
N1051 C1054 1.350 . S
N1052 S1050 1.610 . S
N1052 C1053 1.351 . S
C1053 C1047 1.428 . S
C1053 N1052 1.351 . S
C1053 C1054 1.434 . S
C1054 C1045 1.429 . S
C1054 N1051 1.350 . S
C1054 C1053 1.434 . S
C1055 C1056 1.369 . S
C1055 C1057 1.419 . S
C1055 H1059 0.930 . S
C1056 C1055 1.369 . S
C1056 C1065 1.429 . S
C1057 C1055 1.419 . S
C1057 C1058 1.363 . S
C1057 H1060 0.929 . S
C1058 C1057 1.363 . S
C1058 C1064 1.428 . S
H1059 C1055 0.930 . S
H1060 C1057 0.929 . S
S1061 N1062 1.613 . S
S1061 N1063 1.610 . S
N1062 S1061 1.613 . S
N1062 C1065 1.350 . S
N1063 S1061 1.610 . S
N1063 C1064 1.351 . S
C1064 C1058 1.428 . S
C1064 N1063 1.351 . S
C1064 C1065 1.434 . S
C1065 C1056 1.429 . S
C1065 N1062 1.350 . S
C1065 C1064 1.434 . S
C1066 C1067 1.369 . S
C1066 C1068 1.419 . S
C1066 H1070 0.930 . S
C1067 C1066 1.369 . S
C1067 C1076 1.429 . S
C1068 C1066 1.419 . S
C1068 C1069 1.363 . S
C1068 H1071 0.929 . S
C1069 C1068 1.363 . S
C1069 C1075 1.428 . S
H1070 C1066 0.930 . S
H1071 C1068 0.929 . S
S1072 N1073 1.613 . S
S1072 N1074 1.610 . S
N1073 S1072 1.613 . S
N1073 C1076 1.350 . S
N1074 S1072 1.610 . S
N1074 C1075 1.351 . S
C1075 C1069 1.428 . S
C1075 N1074 1.351 . S
C1075 C1076 1.434 . S
C1076 C1067 1.429 . S
C1076 N1073 1.350 . S
C1076 C1075 1.434 . S
C1077 C1078 1.369 . S
C1077 C1079 1.419 . S
C1077 H1081 0.930 . S
C1078 C1077 1.369 . S
C1078 C1087 1.429 . S
C1079 C1077 1.419 . S
C1079 C1080 1.363 . S
C1079 H1082 0.929 . S
C1080 C1079 1.363 . S
C1080 C1086 1.428 . S
H1081 C1077 0.930 . S
H1082 C1079 0.929 . S
S1083 N1084 1.613 . S
S1083 N1085 1.610 . S
N1084 S1083 1.613 . S
N1084 C1087 1.350 . S
N1085 S1083 1.610 . S
N1085 C1086 1.351 . S
C1086 C1080 1.428 . S
C1086 N1085 1.351 . S
C1086 C1087 1.434 . S
C1087 C1078 1.429 . S
C1087 N1084 1.350 . S
C1087 C1086 1.434 . S
C1088 C1089 1.369 1_554 S
C1088 C1090 1.419 1_565 S
C1088 H1092 0.930 . S
C1089 C1088 1.369 1_556 S
C1089 C1098 1.429 . S
C1090 C1088 1.419 1_545 S
C1090 C1091 1.363 . S
C1090 H1093 0.929 . S
C1091 C1090 1.363 . S
C1091 C1097 1.428 1_554 S
H1092 C1088 0.930 . S
H1093 C1090 0.929 . S
S1094 N1095 1.613 1_545 S
S1094 N1096 1.610 . S
N1095 S1094 1.613 1_565 S
N1095 C1098 1.350 . S
N1096 S1094 1.610 . S
N1096 C1097 1.351 . S
C1097 C1091 1.428 1_556 S
C1097 N1096 1.351 . S
C1097 C1098 1.434 1_545 S
C1098 C1089 1.429 . S
C1098 N1095 1.350 . S
C1098 C1097 1.434 1_565 S
C1099 C1100 1.369 . S
C1099 C1101 1.419 . S
C1099 H1103 0.930 . S
C1100 C1099 1.369 . S
C1100 C1109 1.429 1_554 S
C1101 C1099 1.419 . S
C1101 C1102 1.363 1_554 S
C1101 H1104 0.929 . S
C1102 C1101 1.363 1_556 S
C1102 C1108 1.428 . S
H1103 C1099 0.930 . S
H1104 C1101 0.929 . S
S1105 N1106 1.613 . S
S1105 N1107 1.610 . S
N1106 S1105 1.613 . S
N1106 C1109 1.350 . S
N1107 S1105 1.610 . S
N1107 C1108 1.351 . S
C1108 C1102 1.428 . S
C1108 N1107 1.351 . S
C1108 C1109 1.434 . S
C1109 C1100 1.429 1_556 S
C1109 N1106 1.350 . S
C1109 C1108 1.434 . S
C1110 C1111 1.369 . S
C1110 C1112 1.419 . S
C1110 H1114 0.930 . S
C1111 C1110 1.369 . S
C1111 C1120 1.429 . S
C1112 C1110 1.419 . S
C1112 C1113 1.363 . S
C1112 H1115 0.929 . S
C1113 C1112 1.363 . S
C1113 C1119 1.428 . S
H1114 C1110 0.930 . S
H1115 C1112 0.929 . S
S1116 N1117 1.613 . S
S1116 N1118 1.610 . S
N1117 S1116 1.613 . S
N1117 C1120 1.350 . S
N1118 S1116 1.610 . S
N1118 C1119 1.351 . S
C1119 C1113 1.428 . S
C1119 N1118 1.351 . S
C1119 C1120 1.434 . S
C1120 C1111 1.429 . S
C1120 N1117 1.350 . S
C1120 C1119 1.434 . S
C1121 C1122 1.369 1_545 S
C1121 C1123 1.419 . S
C1121 H1125 0.930 . S
C1122 C1121 1.369 1_565 S
C1122 C1131 1.429 . S
C1123 C1121 1.419 . S
C1123 C1124 1.363 . S
C1123 H1126 0.929 . S
C1124 C1123 1.363 . S
C1124 C1130 1.428 1_545 S
H1125 C1121 0.930 . S
H1126 C1123 0.929 . S
S1127 N1128 1.613 . S
S1127 N1129 1.610 . S
N1128 S1127 1.613 . S
N1128 C1131 1.350 . S
N1129 S1127 1.610 . S
N1129 C1130 1.351 . S
C1130 C1124 1.428 1_565 S
C1130 N1129 1.351 . S
C1130 C1131 1.434 . S
C1131 C1122 1.429 . S
C1131 N1128 1.350 . S
C1131 C1130 1.434 . S
C1132 C1133 1.369 1_554 S
C1132 C1134 1.419 . S
C1132 H1136 0.930 . S
C1133 C1132 1.369 1_556 S
C1133 C1142 1.429 . S
C1134 C1132 1.419 . S
C1134 C1135 1.363 . S
C1134 H1137 0.929 . S
C1135 C1134 1.363 . S
C1135 C1141 1.428 1_554 S
H1136 C1132 0.930 . S
H1137 C1134 0.929 . S
S1138 N1139 1.613 . S
S1138 N1140 1.610 . S
N1139 S1138 1.613 . S
N1139 C1142 1.350 . S
N1140 S1138 1.610 . S
N1140 C1141 1.351 . S
C1141 C1135 1.428 1_556 S
C1141 N1140 1.351 . S
C1141 C1142 1.434 . S
C1142 C1133 1.429 . S
C1142 N1139 1.350 . S
C1142 C1141 1.434 . S
C1143 C1144 1.369 . S
C1143 C1145 1.419 . S
C1143 H1147 0.930 . S
C1144 C1143 1.369 . S
C1144 C1153 1.429 . S
C1145 C1143 1.419 . S
C1145 C1146 1.363 . S
C1145 H1148 0.929 . S
C1146 C1145 1.363 . S
C1146 C1152 1.428 . S
H1147 C1143 0.930 . S
H1148 C1145 0.929 . S
S1149 N1150 1.613 . S
S1149 N1151 1.610 . S
N1150 S1149 1.613 . S
N1150 C1153 1.350 . S
N1151 S1149 1.610 . S
N1151 C1152 1.351 . S
C1152 C1146 1.428 . S
C1152 N1151 1.351 . S
C1152 C1153 1.434 . S
C1153 C1144 1.429 . S
C1153 N1150 1.350 . S
C1153 C1152 1.434 . S
C1154 C1155 1.369 . S
C1154 C1156 1.419 1_545 S
C1154 H1158 0.930 . S
C1155 C1154 1.369 . S
C1155 C1164 1.429 . S
C1156 C1154 1.419 1_565 S
C1156 C1157 1.363 . S
C1156 H1159 0.929 . S
C1157 C1156 1.363 . S
C1157 C1163 1.428 . S
H1158 C1154 0.930 . S
H1159 C1156 0.929 . S
S1160 N1161 1.613 1_565 S
S1160 N1162 1.610 . S
N1161 S1160 1.613 1_545 S
N1161 C1164 1.350 . S
N1162 S1160 1.610 . S
N1162 C1163 1.351 . S
C1163 C1157 1.428 . S
C1163 N1162 1.351 . S
C1163 C1164 1.434 1_565 S
C1164 C1155 1.429 . S
C1164 N1161 1.350 . S
C1164 C1163 1.434 1_545 S
C1165 C1166 1.369 . S
C1165 C1167 1.419 . S
C1165 H1169 0.930 . S
C1166 C1165 1.369 . S
C1166 C1175 1.429 . S
C1167 C1165 1.419 . S
C1167 C1168 1.363 . S
C1167 H1170 0.929 . S
C1168 C1167 1.363 . S
C1168 C1174 1.428 . S
H1169 C1165 0.930 . S
H1170 C1167 0.929 . S
S1171 N1172 1.613 . S
S1171 N1173 1.610 . S
N1172 S1171 1.613 . S
N1172 C1175 1.350 . S
N1173 S1171 1.610 . S
N1173 C1174 1.351 . S
C1174 C1168 1.428 . S
C1174 N1173 1.351 . S
C1174 C1175 1.434 . S
C1175 C1166 1.429 . S
C1175 N1172 1.350 . S
C1175 C1174 1.434 . S
C1176 C1177 1.369 . S
C1176 C1178 1.419 . S
C1176 H1180 0.930 . S
C1177 C1176 1.369 . S
C1177 C1186 1.429 . S
C1178 C1176 1.419 . S
C1178 C1179 1.363 . S
C1178 H1181 0.929 . S
C1179 C1178 1.363 . S
C1179 C1185 1.428 . S
H1180 C1176 0.930 . S
H1181 C1178 0.929 . S
S1182 N1183 1.613 . S
S1182 N1184 1.610 . S
N1183 S1182 1.613 . S
N1183 C1186 1.350 . S
N1184 S1182 1.610 . S
N1184 C1185 1.351 . S
C1185 C1179 1.428 . S
C1185 N1184 1.351 . S
C1185 C1186 1.434 . S
C1186 C1177 1.429 . S
C1186 N1183 1.350 . S
C1186 C1185 1.434 . S
C1187 C1188 1.369 . S
C1187 C1189 1.419 . S
C1187 H1191 0.930 . S
C1188 C1187 1.369 . S
C1188 C1197 1.429 . S
C1189 C1187 1.419 . S
C1189 C1190 1.363 . S
C1189 H1192 0.929 . S
C1190 C1189 1.363 . S
C1190 C1196 1.428 . S
H1191 C1187 0.930 . S
H1192 C1189 0.929 . S
S1193 N1194 1.613 . S
S1193 N1195 1.610 . S
N1194 S1193 1.613 . S
N1194 C1197 1.350 . S
N1195 S1193 1.610 . S
N1195 C1196 1.351 . S
C1196 C1190 1.428 . S
C1196 N1195 1.351 . S
C1196 C1197 1.434 . S
C1197 C1188 1.429 . S
C1197 N1194 1.350 . S
C1197 C1196 1.434 . S
C1198 C1199 1.369 . S
C1198 C1200 1.419 . S
C1198 H1202 0.930 . S
C1199 C1198 1.369 . S
C1199 C1208 1.429 . S
C1200 C1198 1.419 . S
C1200 C1201 1.363 . S
C1200 H1203 0.929 . S
C1201 C1200 1.363 . S
C1201 C1207 1.428 . S
H1202 C1198 0.930 . S
H1203 C1200 0.929 . S
S1204 N1205 1.613 . S
S1204 N1206 1.610 . S
N1205 S1204 1.613 . S
N1205 C1208 1.350 . S
N1206 S1204 1.610 . S
N1206 C1207 1.351 . S
C1207 C1201 1.428 . S
C1207 N1206 1.351 . S
C1207 C1208 1.434 . S
C1208 C1199 1.429 . S
C1208 N1205 1.350 . S
C1208 C1207 1.434 . S
C1209 C1210 1.369 . S
C1209 C1211 1.419 . S
C1209 H1213 0.930 . S
C1210 C1209 1.369 . S
C1210 C1219 1.429 . S
C1211 C1209 1.419 . S
C1211 C1212 1.363 . S
C1211 H1214 0.929 . S
C1212 C1211 1.363 . S
C1212 C1218 1.428 . S
H1213 C1209 0.930 . S
H1214 C1211 0.929 . S
S1215 N1216 1.613 . S
S1215 N1217 1.610 . S
N1216 S1215 1.613 . S
N1216 C1219 1.350 . S
N1217 S1215 1.610 . S
N1217 C1218 1.351 . S
C1218 C1212 1.428 . S
C1218 N1217 1.351 . S
C1218 C1219 1.434 . S
C1219 C1210 1.429 . S
C1219 N1216 1.350 . S
C1219 C1218 1.434 . S
C1220 C1221 1.369 . S
C1220 C1222 1.419 1_465 S
C1220 H1224 0.930 . S
C1221 C1220 1.369 . S
C1221 C1230 1.429 . S
C1222 C1220 1.419 1_645 S
C1222 C1223 1.363 . S
C1222 H1225 0.929 . S
C1223 C1222 1.363 . S
C1223 C1229 1.448 . S
H1224 C1220 0.930 . S
H1225 C1222 0.929 . S
S1226 N1227 1.613 1_545 S
S1226 N1228 1.610 . S
N1227 S1226 1.613 1_565 S
N1227 C1230 1.350 . S
N1228 S1226 1.610 . S
N1228 C1229 1.349 1_455 S
C1229 C1223 1.448 . S
C1229 N1228 1.349 1_655 S
C1229 C1230 1.413 1_645 S
C1230 C1221 1.429 . S
C1230 N1227 1.350 . S
C1230 C1229 1.413 1_465 S
C1231 C1232 1.369 . S
C1231 C1233 1.419 . S
C1231 H1235 0.930 . S
C1232 C1231 1.369 . S
C1232 C1241 1.429 1_455 S
C1233 C1231 1.419 . S
C1233 C1234 1.363 1_455 S
C1233 H1236 0.929 . S
C1234 C1233 1.363 1_655 S
C1234 C1240 1.428 . S
H1235 C1231 0.930 . S
H1236 C1233 0.929 . S
S1237 N1238 1.613 . S
S1237 N1239 1.610 . S
N1238 S1237 1.613 . S
N1238 C1241 1.350 . S
N1239 S1237 1.610 . S
N1239 C1240 1.351 . S
C1240 C1234 1.428 . S
C1240 N1239 1.351 . S
C1240 C1241 1.434 . S
C1241 C1232 1.429 1_655 S
C1241 N1238 1.350 . S
C1241 C1240 1.434 . S
C1242 C1243 1.369 1_455 S
C1242 C1244 1.419 . S
C1242 H1246 0.930 . S
C1243 C1242 1.369 1_655 S
C1243 C1252 1.429 . S
C1244 C1242 1.419 . S
C1244 C1245 1.363 . S
C1244 H1247 0.929 . S
C1245 C1244 1.363 . S
C1245 C1251 1.428 1_455 S
H1246 C1242 0.930 . S
H1247 C1244 0.929 . S
S1248 N1249 1.613 . S
S1248 N1250 1.610 . S
N1249 S1248 1.613 . S
N1249 C1252 1.350 . S
N1250 S1248 1.610 . S
N1250 C1251 1.351 . S
C1251 C1245 1.428 1_655 S
C1251 N1250 1.351 . S
C1251 C1252 1.434 . S
C1252 C1243 1.429 . S
C1252 N1249 1.350 . S
C1252 C1251 1.434 . S
C1253 C1254 1.369 . S
C1253 C1255 1.422 . S
C1253 H1257 0.930 . S
C1254 C1253 1.369 . S
C1254 C1263 1.429 1_654 S
C1255 C1253 1.422 . S
C1255 C1256 1.359 1_654 S
C1255 H1258 0.930 . S
C1256 C1255 1.359 1_456 S
C1256 C1262 1.428 . S
H1257 C1253 0.930 . S
H1258 C1255 0.930 . S
S1259 N1260 1.613 . S
S1259 N1261 1.610 . S
N1260 S1259 1.613 . S
N1260 C1263 1.350 . S
N1261 S1259 1.610 . S
N1261 C1262 1.351 . S
C1262 C1256 1.428 . S
C1262 N1261 1.351 . S
C1262 C1263 1.434 . S
C1263 C1254 1.429 1_456 S
C1263 N1260 1.350 . S
C1263 C1262 1.434 . S
C1264 C1265 1.369 . S
C1264 C1266 1.419 . S
C1264 H1268 0.930 . S
C1265 C1264 1.369 . S
C1265 C1274 1.429 . S
C1266 C1264 1.419 . S
C1266 C1267 1.363 . S
C1266 H1269 0.929 . S
C1267 C1266 1.363 . S
C1267 C1273 1.428 . S
H1268 C1264 0.930 . S
H1269 C1266 0.929 . S
S1270 N1271 1.613 . S
S1270 N1272 1.610 . S
N1271 S1270 1.613 . S
N1271 C1274 1.350 . S
N1272 S1270 1.610 . S
N1272 C1273 1.351 . S
C1273 C1267 1.428 . S
C1273 N1272 1.351 . S
C1273 C1274 1.434 . S
C1274 C1265 1.429 . S
C1274 N1271 1.350 . S
C1274 C1273 1.434 . S
C1275 C1276 1.369 . S
C1275 C1277 1.419 . S
C1275 H1279 0.930 . S
C1276 C1275 1.369 . S
C1276 C1285 1.429 . S
C1277 C1275 1.419 . S
C1277 C1278 1.363 . S
C1277 H1280 0.929 . S
C1278 C1277 1.363 . S
C1278 C1284 1.428 . S
H1279 C1275 0.930 . S
H1280 C1277 0.929 . S
S1281 N1282 1.613 . S
S1281 N1283 1.610 . S
N1282 S1281 1.613 . S
N1282 C1285 1.350 . S
N1283 S1281 1.610 . S
N1283 C1284 1.351 . S
C1284 C1278 1.428 . S
C1284 N1283 1.351 . S
C1284 C1285 1.434 . S
C1285 C1276 1.429 . S
C1285 N1282 1.350 . S
C1285 C1284 1.434 . S
C1286 C1287 1.369 . S
C1286 C1288 1.419 . S
C1286 H1290 0.930 . S
C1287 C1286 1.369 . S
C1287 C1296 1.429 . S
C1288 C1286 1.419 . S
C1288 C1289 1.363 . S
C1288 H1291 0.929 . S
C1289 C1288 1.363 . S
C1289 C1295 1.428 . S
H1290 C1286 0.930 . S
H1291 C1288 0.929 . S
S1292 N1293 1.613 . S
S1292 N1294 1.610 . S
N1293 S1292 1.613 . S
N1293 C1296 1.350 . S
N1294 S1292 1.610 . S
N1294 C1295 1.351 . S
C1295 C1289 1.428 . S
C1295 N1294 1.351 . S
C1295 C1296 1.434 . S
C1296 C1287 1.429 . S
C1296 N1293 1.350 . S
C1296 C1295 1.434 . S
C1297 C1298 1.369 . S
C1297 C1299 1.419 . S
C1297 H1301 0.930 . S
C1298 C1297 1.369 . S
C1298 C1307 1.429 . S
C1299 C1297 1.419 . S
C1299 C1300 1.363 . S
C1299 H1302 0.929 . S
C1300 C1299 1.363 . S
C1300 C1306 1.428 . S
H1301 C1297 0.930 . S
H1302 C1299 0.929 . S
S1303 N1304 1.613 . S
S1303 N1305 1.610 . S
N1304 S1303 1.613 . S
N1304 C1307 1.350 . S
N1305 S1303 1.610 . S
N1305 C1306 1.351 . S
C1306 C1300 1.428 . S
C1306 N1305 1.351 . S
C1306 C1307 1.434 . S
C1307 C1298 1.429 . S
C1307 N1304 1.350 . S
C1307 C1306 1.434 . S
C1308 C1309 1.369 . S
C1308 C1310 1.419 . S
C1308 H1312 0.930 . S
C1309 C1308 1.369 . S
C1309 C1318 1.429 . S
C1310 C1308 1.419 . S
C1310 C1311 1.363 . S
C1310 H1313 0.929 . S
C1311 C1310 1.363 . S
C1311 C1317 1.428 . S
H1312 C1308 0.930 . S
H1313 C1310 0.929 . S
S1314 N1315 1.613 . S
S1314 N1316 1.610 . S
N1315 S1314 1.613 . S
N1315 C1318 1.350 . S
N1316 S1314 1.610 . S
N1316 C1317 1.351 . S
C1317 C1311 1.428 . S
C1317 N1316 1.351 . S
C1317 C1318 1.434 . S
C1318 C1309 1.429 . S
C1318 N1315 1.350 . S
C1318 C1317 1.434 . S
C1319 C1320 1.369 . S
C1319 C1321 1.419 . S
C1319 H1323 0.930 . S
C1320 C1319 1.369 . S
C1320 C1329 1.429 . S
C1321 C1319 1.419 . S
C1321 C1322 1.363 . S
C1321 H1324 0.929 . S
C1322 C1321 1.363 . S
C1322 C1328 1.428 . S
H1323 C1319 0.930 . S
H1324 C1321 0.929 . S
S1325 N1326 1.613 . S
S1325 N1327 1.610 . S
N1326 S1325 1.613 . S
N1326 C1329 1.350 . S
N1327 S1325 1.610 . S
N1327 C1328 1.351 . S
C1328 C1322 1.428 . S
C1328 N1327 1.351 . S
C1328 C1329 1.434 . S
C1329 C1320 1.429 . S
C1329 N1326 1.350 . S
C1329 C1328 1.434 . S
C1330 C1331 1.369 . S
C1330 C1332 1.419 . S
C1330 H1334 0.930 . S
C1331 C1330 1.369 . S
C1331 C1340 1.429 . S
C1332 C1330 1.419 . S
C1332 C1333 1.363 . S
C1332 H1335 0.929 . S
C1333 C1332 1.363 . S
C1333 C1339 1.428 . S
H1334 C1330 0.930 . S
H1335 C1332 0.929 . S
S1336 N1337 1.613 . S
S1336 N1338 1.610 . S
N1337 S1336 1.613 . S
N1337 C1340 1.350 . S
N1338 S1336 1.610 . S
N1338 C1339 1.351 . S
C1339 C1333 1.428 . S
C1339 N1338 1.351 . S
C1339 C1340 1.434 . S
C1340 C1331 1.429 . S
C1340 N1337 1.350 . S
C1340 C1339 1.434 . S
C1341 C1342 1.369 . S
C1341 C1343 1.419 . S
C1341 H1345 0.930 . S
C1342 C1341 1.369 . S
C1342 C1351 1.429 . S
C1343 C1341 1.419 . S
C1343 C1344 1.363 . S
C1343 H1346 0.929 . S
C1344 C1343 1.363 . S
C1344 C1350 1.428 . S
H1345 C1341 0.930 . S
H1346 C1343 0.929 . S
S1347 N1348 1.613 . S
S1347 N1349 1.610 . S
N1348 S1347 1.613 . S
N1348 C1351 1.350 . S
N1349 S1347 1.610 . S
N1349 C1350 1.351 . S
C1350 C1344 1.428 . S
C1350 N1349 1.351 . S
C1350 C1351 1.434 . S
C1351 C1342 1.429 . S
C1351 N1348 1.350 . S
C1351 C1350 1.434 . S
C1352 C1353 1.369 . S
C1352 C1354 1.419 . S
C1352 H1356 0.930 . S
C1353 C1352 1.369 . S
C1353 C1362 1.429 . S
C1354 C1352 1.419 . S
C1354 C1355 1.363 . S
C1354 H1357 0.929 . S
C1355 C1354 1.363 . S
C1355 C1361 1.428 . S
H1356 C1352 0.930 . S
H1357 C1354 0.929 . S
S1358 N1359 1.613 . S
S1358 N1360 1.610 . S
N1359 S1358 1.613 . S
N1359 C1362 1.350 . S
N1360 S1358 1.610 . S
N1360 C1361 1.351 . S
C1361 C1355 1.428 . S
C1361 N1360 1.351 . S
C1361 C1362 1.434 . S
C1362 C1353 1.429 . S
C1362 N1359 1.350 . S
C1362 C1361 1.434 . S
C1363 C1364 1.369 . S
C1363 C1365 1.419 . S
C1363 H1367 0.930 . S
C1364 C1363 1.369 . S
C1364 C1373 1.429 . S
C1365 C1363 1.419 . S
C1365 C1366 1.363 . S
C1365 H1368 0.929 . S
C1366 C1365 1.363 . S
C1366 C1372 1.428 . S
H1367 C1363 0.930 . S
H1368 C1365 0.929 . S
S1369 N1370 1.613 . S
S1369 N1371 1.610 . S
N1370 S1369 1.613 . S
N1370 C1373 1.350 . S
N1371 S1369 1.610 . S
N1371 C1372 1.351 . S
C1372 C1366 1.428 . S
C1372 N1371 1.351 . S
C1372 C1373 1.434 . S
C1373 C1364 1.429 . S
C1373 N1370 1.350 . S
C1373 C1372 1.434 . S
C1374 C1375 1.369 . S
C1374 C1376 1.419 . S
C1374 H1378 0.930 . S
C1375 C1374 1.369 . S
C1375 C1384 1.429 . S
C1376 C1374 1.419 . S
C1376 C1377 1.363 . S
C1376 H1379 0.929 . S
C1377 C1376 1.363 . S
C1377 C1383 1.428 . S
H1378 C1374 0.930 . S
H1379 C1376 0.929 . S
S1380 N1381 1.613 . S
S1380 N1382 1.610 . S
N1381 S1380 1.613 . S
N1381 C1384 1.350 . S
N1382 S1380 1.610 . S
N1382 C1383 1.351 . S
C1383 C1377 1.428 . S
C1383 N1382 1.351 . S
C1383 C1384 1.434 . S
C1384 C1375 1.429 . S
C1384 N1381 1.350 . S
C1384 C1383 1.434 . S
C1385 C1386 1.369 . S
C1385 C1387 1.419 . S
C1385 H1389 0.930 . S
C1386 C1385 1.369 . S
C1386 C1395 1.429 . S
C1387 C1385 1.419 . S
C1387 C1388 1.363 . S
C1387 H1390 0.929 . S
C1388 C1387 1.363 . S
C1388 C1394 1.428 . S
H1389 C1385 0.930 . S
H1390 C1387 0.929 . S
S1391 N1392 1.613 . S
S1391 N1393 1.610 . S
N1392 S1391 1.613 . S
N1392 C1395 1.350 . S
N1393 S1391 1.610 . S
N1393 C1394 1.351 . S
C1394 C1388 1.428 . S
C1394 N1393 1.351 . S
C1394 C1395 1.434 . S
C1395 C1386 1.429 . S
C1395 N1392 1.350 . S
C1395 C1394 1.434 . S
C1396 C1397 1.369 . S
C1396 C1398 1.419 . S
C1396 H1400 0.930 . S
C1397 C1396 1.369 . S
C1397 C1406 1.429 . S
C1398 C1396 1.419 . S
C1398 C1399 1.363 . S
C1398 H1401 0.929 . S
C1399 C1398 1.363 . S
C1399 C1405 1.428 . S
H1400 C1396 0.930 . S
H1401 C1398 0.929 . S
S1402 N1403 1.613 . S
S1402 N1404 1.610 . S
N1403 S1402 1.613 . S
N1403 C1406 1.350 . S
N1404 S1402 1.610 . S
N1404 C1405 1.351 . S
C1405 C1399 1.428 . S
C1405 N1404 1.351 . S
C1405 C1406 1.434 . S
C1406 C1397 1.429 . S
C1406 N1403 1.350 . S
C1406 C1405 1.434 . S
C1407 C1408 1.369 . S
C1407 C1409 1.419 . S
C1407 H1411 0.930 . S
C1408 C1407 1.369 . S
C1408 C1417 1.429 . S
C1409 C1407 1.419 . S
C1409 C1410 1.363 . S
C1409 H1412 0.929 . S
C1410 C1409 1.363 . S
C1410 C1416 1.428 . S
H1411 C1407 0.930 . S
H1412 C1409 0.929 . S
S1413 N1414 1.613 . S
S1413 N1415 1.610 . S
N1414 S1413 1.613 . S
N1414 C1417 1.350 . S
N1415 S1413 1.610 . S
N1415 C1416 1.351 . S
C1416 C1410 1.428 . S
C1416 N1415 1.351 . S
C1416 C1417 1.434 . S
C1417 C1408 1.429 . S
C1417 N1414 1.350 . S
C1417 C1416 1.434 . S
C1418 C1419 1.369 . S
C1418 C1420 1.419 . S
C1418 H1422 0.930 . S
C1419 C1418 1.369 . S
C1419 C1428 1.429 . S
C1420 C1418 1.419 . S
C1420 C1421 1.363 . S
C1420 H1423 0.929 . S
C1421 C1420 1.363 . S
C1421 C1427 1.428 . S
H1422 C1418 0.930 . S
H1423 C1420 0.929 . S
S1424 N1425 1.613 . S
S1424 N1426 1.610 . S
N1425 S1424 1.613 . S
N1425 C1428 1.350 . S
N1426 S1424 1.610 . S
N1426 C1427 1.351 . S
C1427 C1421 1.428 . S
C1427 N1426 1.351 . S
C1427 C1428 1.434 . S
C1428 C1419 1.429 . S
C1428 N1425 1.350 . S
C1428 C1427 1.434 . S
C1429 C1430 1.369 . S
C1429 C1431 1.419 . S
C1429 H1433 0.930 . S
C1430 C1429 1.369 . S
C1430 C1439 1.429 . S
C1431 C1429 1.419 . S
C1431 C1432 1.363 . S
C1431 H1434 0.929 . S
C1432 C1431 1.363 . S
C1432 C1438 1.428 . S
H1433 C1429 0.930 . S
H1434 C1431 0.929 . S
S1435 N1436 1.613 . S
S1435 N1437 1.610 . S
N1436 S1435 1.613 . S
N1436 C1439 1.350 . S
N1437 S1435 1.610 . S
N1437 C1438 1.351 . S
C1438 C1432 1.428 . S
C1438 N1437 1.351 . S
C1438 C1439 1.434 . S
C1439 C1430 1.429 . S
C1439 N1436 1.350 . S
C1439 C1438 1.434 . S
C1440 C1441 1.369 1_556 S
C1440 C1442 1.419 . S
C1440 H1444 0.930 . S
C1441 C1440 1.369 1_554 S
C1441 C1450 1.429 . S
C1442 C1440 1.419 . S
C1442 C1443 1.363 . S
C1442 H1445 0.929 . S
C1443 C1442 1.363 . S
C1443 C1449 1.428 1_556 S
H1444 C1440 0.930 . S
H1445 C1442 0.929 . S
S1446 N1447 1.613 . S
S1446 N1448 1.610 1_565 S
N1447 S1446 1.613 . S
N1447 C1450 1.350 1_565 S
N1448 S1446 1.610 1_545 S
N1448 C1449 1.351 . S
C1449 C1443 1.428 1_554 S
C1449 N1448 1.351 . S
C1449 C1450 1.434 . S
C1450 C1441 1.429 . S
C1450 N1447 1.350 1_545 S
C1450 C1449 1.434 . S
C1451 C1452 1.369 1_556 S
C1451 C1453 1.419 . S
C1451 H1455 0.930 . S
C1452 C1451 1.369 1_554 S
C1452 C1461 1.429 . S
C1453 C1451 1.419 . S
C1453 C1454 1.363 . S
C1453 H1456 0.929 . S
C1454 C1453 1.363 . S
C1454 C1460 1.428 1_556 S
H1455 C1451 0.930 . S
H1456 C1453 0.929 . S
S1457 N1458 1.613 . S
S1457 N1459 1.610 . S
N1458 S1457 1.613 . S
N1458 C1461 1.350 . S
N1459 S1457 1.610 . S
N1459 C1460 1.351 . S
C1460 C1454 1.428 1_554 S
C1460 N1459 1.351 . S
C1460 C1461 1.434 . S
C1461 C1452 1.429 . S
C1461 N1458 1.350 . S
C1461 C1460 1.434 . S
C1462 C1463 1.369 . S
C1462 C1464 1.419 . S
C1462 H1466 0.930 . S
C1463 C1462 1.369 . S
C1463 C1472 1.429 . S
C1464 C1462 1.419 . S
C1464 C1465 1.363 . S
C1464 H1467 0.929 . S
C1465 C1464 1.363 . S
C1465 C1471 1.428 . S
H1466 C1462 0.930 . S
H1467 C1464 0.929 . S
S1468 N1469 1.613 . S
S1468 N1470 1.610 . S
N1469 S1468 1.613 . S
N1469 C1472 1.350 . S
N1470 S1468 1.610 . S
N1470 C1471 1.351 . S
C1471 C1465 1.428 . S
C1471 N1470 1.351 . S
C1471 C1472 1.434 . S
C1472 C1463 1.429 . S
C1472 N1469 1.350 . S
C1472 C1471 1.434 . S
C1473 C1474 1.369 . S
C1473 C1475 1.419 . S
C1473 H1477 0.930 . S
C1474 C1473 1.369 . S
C1474 C1483 1.429 . S
C1475 C1473 1.419 . S
C1475 C1476 1.363 . S
C1475 H1478 0.929 1_545 S
C1476 C1475 1.363 . S
C1476 C1482 1.428 . S
H1477 C1473 0.930 . S
H1478 C1475 0.929 1_565 S
S1479 N1480 1.613 . S
S1479 N1481 1.610 . S
N1480 S1479 1.613 . S
N1480 C1483 1.350 . S
N1481 S1479 1.610 . S
N1481 C1482 1.351 . S
C1482 C1476 1.428 . S
C1482 N1481 1.351 . S
C1482 C1483 1.434 . S
C1483 C1474 1.429 . S
C1483 N1480 1.350 . S
C1483 C1482 1.434 . S
C1484 C1485 1.369 1_554 S
C1484 C1486 1.419 1_565 S
C1484 H1488 0.930 . S
C1485 C1484 1.369 1_556 S
C1485 C1494 1.429 . S
C1486 C1484 1.419 1_545 S
C1486 C1487 1.363 1_544 S
C1486 H1489 0.929 . S
C1487 C1486 1.363 1_566 S
C1487 C1493 1.428 . S
H1488 C1484 0.930 . S
H1489 C1486 0.929 . S
S1490 N1491 1.613 . S
S1490 N1492 1.610 . S
N1491 S1490 1.613 . S
N1491 C1494 1.350 . S
N1492 S1490 1.610 . S
N1492 C1493 1.351 . S
C1493 C1487 1.428 . S
C1493 N1492 1.351 . S
C1493 C1494 1.434 . S
C1494 C1485 1.429 . S
C1494 N1491 1.350 . S
C1494 C1493 1.434 . S
C1495 C1496 1.369 1_554 S
C1495 C1497 1.419 . S
C1495 H1499 0.930 . S
C1496 C1495 1.369 1_556 S
C1496 C1505 1.429 . S
C1497 C1495 1.419 . S
C1497 C1498 1.363 1_554 S
C1497 H1500 0.929 . S
C1498 C1497 1.363 1_556 S
C1498 C1504 1.428 . S
H1499 C1495 0.930 . S
H1500 C1497 0.929 . S
S1501 N1502 1.613 . S
S1501 N1503 1.610 . S
N1502 S1501 1.613 . S
N1502 C1505 1.350 . S
N1503 S1501 1.610 . S
N1503 C1504 1.351 . S
C1504 C1498 1.428 . S
C1504 N1503 1.351 . S
C1504 C1505 1.434 . S
C1505 C1496 1.429 . S
C1505 N1502 1.350 . S
C1505 C1504 1.434 . S
C1506 C1507 1.369 . S
C1506 C1508 1.419 . S
C1506 H1510 0.930 . S
C1507 C1506 1.369 . S
C1507 C1516 1.429 . S
C1508 C1506 1.419 . S
C1508 C1509 1.363 . S
C1508 H1511 0.929 . S
C1509 C1508 1.363 . S
C1509 C1515 1.428 . S
H1510 C1506 0.930 . S
H1511 C1508 0.929 . S
S1512 N1513 1.613 . S
S1512 N1514 1.610 . S
N1513 S1512 1.613 . S
N1513 C1516 1.350 . S
N1514 S1512 1.610 . S
N1514 C1515 1.351 . S
C1515 C1509 1.428 . S
C1515 N1514 1.351 . S
C1515 C1516 1.434 . S
C1516 C1507 1.429 . S
C1516 N1513 1.350 . S
C1516 C1515 1.434 . S
C1517 C1518 1.369 1_545 S
C1517 C1519 1.419 1_545 S
C1517 H1521 0.930 . S
C1518 C1517 1.369 1_565 S
C1518 C1527 1.429 . S
C1519 C1517 1.419 1_565 S
C1519 C1520 1.363 . S
C1519 H1522 0.929 . S
C1520 C1519 1.363 . S
C1520 C1526 1.428 . S
H1521 C1517 0.930 . S
H1522 C1519 0.929 . S
S1523 N1524 1.613 . S
S1523 N1525 1.610 . S
N1524 S1523 1.613 . S
N1524 C1527 1.350 . S
N1525 S1523 1.610 . S
N1525 C1526 1.351 . S
C1526 C1520 1.428 . S
C1526 N1525 1.351 . S
C1526 C1527 1.434 . S
C1527 C1518 1.429 . S
C1527 N1524 1.350 . S
C1527 C1526 1.434 . S
C1528 C1529 1.369 . S
C1528 C1530 1.419 . S
C1528 H1532 0.930 . S
C1529 C1528 1.369 . S
C1529 C1538 1.429 . S
C1530 C1528 1.419 . S
C1530 C1531 1.363 . S
C1530 H1533 0.929 . S
C1531 C1530 1.363 . S
C1531 C1537 1.428 . S
H1532 C1528 0.930 . S
H1533 C1530 0.929 . S
S1534 N1535 1.613 . S
S1534 N1536 1.610 . S
N1535 S1534 1.613 . S
N1535 C1538 1.350 . S
N1536 S1534 1.610 . S
N1536 C1537 1.351 . S
C1537 C1531 1.428 . S
C1537 N1536 1.351 . S
C1537 C1538 1.434 . S
C1538 C1529 1.429 . S
C1538 N1535 1.350 . S
C1538 C1537 1.434 . S
C1539 C1540 1.369 . S
C1539 C1541 1.419 . S
C1539 H1543 0.930 . S
C1540 C1539 1.369 . S
C1540 C1549 1.429 . S
C1541 C1539 1.419 . S
C1541 C1542 1.363 . S
C1541 H1544 0.929 . S
C1542 C1541 1.363 . S
C1542 C1548 1.428 . S
H1543 C1539 0.930 . S
H1544 C1541 0.929 . S
S1545 N1546 1.613 . S
S1545 N1547 1.610 1_455 S
N1546 S1545 1.613 . S
N1546 C1549 1.350 . S
N1547 S1545 1.610 1_655 S
N1547 C1548 1.351 1_655 S
C1548 C1542 1.428 . S
C1548 N1547 1.351 1_455 S
C1548 C1549 1.434 . S
C1549 C1540 1.429 . S
C1549 N1546 1.350 . S
C1549 C1548 1.434 . S
C1550 C1551 1.369 . S
C1550 C1552 1.419 . S
C1550 H1554 0.930 . S
C1551 C1550 1.369 . S
C1551 C1560 1.429 . S
C1552 C1550 1.419 . S
C1552 C1553 1.363 . S
C1552 H1555 0.929 . S
C1553 C1552 1.363 . S
C1553 C1559 1.428 . S
H1554 C1550 0.930 . S
H1555 C1552 0.929 . S
S1556 N1557 1.613 . S
S1556 N1558 1.610 . S
N1557 S1556 1.613 . S
N1557 C1560 1.350 . S
N1558 S1556 1.610 . S
N1558 C1559 1.351 . S
C1559 C1553 1.428 . S
C1559 N1558 1.351 . S
C1559 C1560 1.434 . S
C1560 C1551 1.429 . S
C1560 N1557 1.350 . S
C1560 C1559 1.434 . S
C1561 C1562 1.369 . S
C1561 C1563 1.419 . S
C1561 H1565 0.930 . S
C1562 C1561 1.369 . S
C1562 C1571 1.429 . S
C1563 C1561 1.419 . S
C1563 C1564 1.363 . S
C1563 H1566 0.929 . S
C1564 C1563 1.363 . S
C1564 C1570 1.428 . S
H1565 C1561 0.930 . S
H1566 C1563 0.929 . S
S1567 N1568 1.613 . S
S1567 N1569 1.610 1_455 S
N1568 S1567 1.613 . S
N1568 C1571 1.350 . S
N1569 S1567 1.610 1_655 S
N1569 C1570 1.351 1_655 S
C1570 C1564 1.428 . S
C1570 N1569 1.351 1_455 S
C1570 C1571 1.434 . S
C1571 C1562 1.429 . S
C1571 N1568 1.350 . S
C1571 C1570 1.434 . S
C1572 C1573 1.369 . S
C1572 C1574 1.419 . S
C1572 H1576 0.930 . S
C1573 C1572 1.369 . S
C1573 C1582 1.429 . S
C1574 C1572 1.419 . S
C1574 C1575 1.363 . S
C1574 H1577 0.929 . S
C1575 C1574 1.363 . S
C1575 C1581 1.428 . S
H1576 C1572 0.930 . S
H1577 C1574 0.929 . S
S1578 N1579 1.613 . S
S1578 N1580 1.610 . S
N1579 S1578 1.613 . S
N1579 C1582 1.350 . S
N1580 S1578 1.610 . S
N1580 C1581 1.351 . S
C1581 C1575 1.428 . S
C1581 N1580 1.351 . S
C1581 C1582 1.434 . S
C1582 C1573 1.429 . S
C1582 N1579 1.350 . S
C1582 C1581 1.434 . S
C1583 C1584 1.369 . S
C1583 C1585 1.419 . S
C1583 H1587 0.930 . S
C1584 C1583 1.369 . S
C1584 C1593 1.429 . S
C1585 C1583 1.419 . S
C1585 C1586 1.363 . S
C1585 H1588 0.929 . S
C1586 C1585 1.363 . S
C1586 C1592 1.428 . S
H1587 C1583 0.930 . S
H1588 C1585 0.929 . S
S1589 N1590 1.613 . S
S1589 N1591 1.610 . S
N1590 S1589 1.613 . S
N1590 C1593 1.350 . S
N1591 S1589 1.610 . S
N1591 C1592 1.351 . S
C1592 C1586 1.428 . S
C1592 N1591 1.351 . S
C1592 C1593 1.434 . S
C1593 C1584 1.429 . S
C1593 N1590 1.350 . S
C1593 C1592 1.434 . S
C1594 C1595 1.369 . S
C1594 C1596 1.419 . S
C1594 H1598 0.930 . S
C1595 C1594 1.369 . S
C1595 C1604 1.429 . S
C1596 C1594 1.419 . S
C1596 C1597 1.363 . S
C1596 H1599 0.929 . S
C1597 C1596 1.363 . S
C1597 C1603 1.428 . S
H1598 C1594 0.930 . S
H1599 C1596 0.929 . S
S1600 N1601 1.613 . S
S1600 N1602 1.610 . S
N1601 S1600 1.613 . S
N1601 C1604 1.350 . S
N1602 S1600 1.610 . S
N1602 C1603 1.351 . S
C1603 C1597 1.428 . S
C1603 N1602 1.351 . S
C1603 C1604 1.434 . S
C1604 C1595 1.429 . S
C1604 N1601 1.350 . S
C1604 C1603 1.434 . S
C1605 C1606 1.369 . S
C1605 C1607 1.419 . S
C1605 H1609 0.930 . S
C1606 C1605 1.369 . S
C1606 C1615 1.429 . S
C1607 C1605 1.419 . S
C1607 C1608 1.363 . S
C1607 H1610 0.929 . S
C1608 C1607 1.363 . S
C1608 C1614 1.428 . S
H1609 C1605 0.930 . S
H1610 C1607 0.929 . S
S1611 N1612 1.613 . S
S1611 N1613 1.610 . S
N1612 S1611 1.613 . S
N1612 C1615 1.350 . S
N1613 S1611 1.610 . S
N1613 C1614 1.351 . S
C1614 C1608 1.428 . S
C1614 N1613 1.351 . S
C1614 C1615 1.434 . S
C1615 C1606 1.429 . S
C1615 N1612 1.350 . S
C1615 C1614 1.434 . S
C1616 C1617 1.369 . S
C1616 C1618 1.419 . S
C1616 H1620 0.930 . S
C1617 C1616 1.369 . S
C1617 C1626 1.429 . S
C1618 C1616 1.419 . S
C1618 C1619 1.363 . S
C1618 H1621 0.929 1_545 S
C1619 C1618 1.363 . S
C1619 C1625 1.428 . S
H1620 C1616 0.930 . S
H1621 C1618 0.929 1_565 S
S1622 N1623 1.613 . S
S1622 N1624 1.610 . S
N1623 S1622 1.613 . S
N1623 C1626 1.350 . S
N1624 S1622 1.610 . S
N1624 C1625 1.351 . S
C1625 C1619 1.428 . S
C1625 N1624 1.351 . S
C1625 C1626 1.434 . S
C1626 C1617 1.429 . S
C1626 N1623 1.350 . S
C1626 C1625 1.434 . S
C1627 C1628 1.369 . S
C1627 C1629 1.419 . S
C1627 H1631 0.930 . S
C1628 C1627 1.369 . S
C1628 C1637 1.429 . S
C1629 C1627 1.419 . S
C1629 C1630 1.363 . S
C1629 H1632 0.929 . S
C1630 C1629 1.363 . S
C1630 C1636 1.428 . S
H1631 C1627 0.930 . S
H1632 C1629 0.929 . S
S1633 N1634 1.613 . S
S1633 N1635 1.610 . S
N1634 S1633 1.613 . S
N1634 C1637 1.350 . S
N1635 S1633 1.610 . S
N1635 C1636 1.351 . S
C1636 C1630 1.428 . S
C1636 N1635 1.351 . S
C1636 C1637 1.434 . S
C1637 C1628 1.429 . S
C1637 N1634 1.350 . S
C1637 C1636 1.434 . S
C1638 C1639 1.369 . S
C1638 C1640 1.419 . S
C1638 H1642 0.930 . S
C1639 C1638 1.369 . S
C1639 C1648 1.429 . S
C1640 C1638 1.419 . S
C1640 C1641 1.363 . S
C1640 H1643 0.929 . S
C1641 C1640 1.363 . S
C1641 C1647 1.428 . S
H1642 C1638 0.930 . S
H1643 C1640 0.929 . S
S1644 N1645 1.613 . S
S1644 N1646 1.610 . S
N1645 S1644 1.613 . S
N1645 C1648 1.350 . S
N1646 S1644 1.610 . S
N1646 C1647 1.351 . S
C1647 C1641 1.428 . S
C1647 N1646 1.351 . S
C1647 C1648 1.434 . S
C1648 C1639 1.429 . S
C1648 N1645 1.350 . S
C1648 C1647 1.434 . S
C1649 C1650 1.369 . S
C1649 C1651 1.419 . S
C1649 H1653 0.930 1_545 S
C1650 C1649 1.369 . S
C1650 C1659 1.429 . S
C1651 C1649 1.419 . S
C1651 C1652 1.363 . S
C1651 H1654 0.929 . S
C1652 C1651 1.363 . S
C1652 C1658 1.428 . S
H1653 C1649 0.930 1_565 S
H1654 C1651 0.929 . S
S1655 N1656 1.613 . S
S1655 N1657 1.610 . S
N1656 S1655 1.613 . S
N1656 C1659 1.350 . S
N1657 S1655 1.610 . S
N1657 C1658 1.351 . S
C1658 C1652 1.428 . S
C1658 N1657 1.351 . S
C1658 C1659 1.434 . S
C1659 C1650 1.429 . S
C1659 N1656 1.350 . S
C1659 C1658 1.434 . S
C1660 C1661 1.369 . S
C1660 C1662 1.419 1_565 S
C1660 H1664 0.930 . S
C1661 C1660 1.369 . S
C1661 C1670 1.429 . S
C1662 C1660 1.419 1_545 S
C1662 C1663 1.363 1_545 S
C1662 H1665 0.929 . S
C1663 C1662 1.363 1_565 S
C1663 C1669 1.428 . S
H1664 C1660 0.930 . S
H1665 C1662 0.929 . S
S1666 N1667 1.613 . S
S1666 N1668 1.610 . S
N1667 S1666 1.613 . S
N1667 C1670 1.350 . S
N1668 S1666 1.610 . S
N1668 C1669 1.351 . S
C1669 C1663 1.428 . S
C1669 N1668 1.351 . S
C1669 C1670 1.434 . S
C1670 C1661 1.429 . S
C1670 N1667 1.350 . S
C1670 C1669 1.434 . S
C1671 C1672 1.369 . S
C1671 C1673 1.419 . S
C1671 H1675 0.930 . S
C1672 C1671 1.369 . S
C1672 C1681 1.429 . S
C1673 C1671 1.419 . S
C1673 C1674 1.363 . S
C1673 H1676 0.929 . S
C1674 C1673 1.363 . S
C1674 C1680 1.428 . S
H1675 C1671 0.930 . S
H1676 C1673 0.929 . S
S1677 N1678 1.613 . S
S1677 N1679 1.610 . S
N1678 S1677 1.613 . S
N1678 C1681 1.350 . S
N1679 S1677 1.610 . S
N1679 C1680 1.351 . S
C1680 C1674 1.428 . S
C1680 N1679 1.351 . S
C1680 C1681 1.434 . S
C1681 C1672 1.429 . S
C1681 N1678 1.350 . S
C1681 C1680 1.434 . S
C1682 C1683 1.369 . S
C1682 C1684 1.419 . S
C1682 H1686 0.930 . S
C1683 C1682 1.369 . S
C1683 C1692 1.429 . S
C1684 C1682 1.419 . S
C1684 C1685 1.363 . S
C1684 H1687 0.929 . S
C1685 C1684 1.363 . S
C1685 C1691 1.428 . S
H1686 C1682 0.930 . S
H1687 C1684 0.929 . S
S1688 N1689 1.613 . S
S1688 N1690 1.610 . S
N1689 S1688 1.613 . S
N1689 C1692 1.350 . S
N1690 S1688 1.610 . S
N1690 C1691 1.351 . S
C1691 C1685 1.428 . S
C1691 N1690 1.351 . S
C1691 C1692 1.434 . S
C1692 C1683 1.429 . S
C1692 N1689 1.350 . S
C1692 C1691 1.434 . S
C1693 C1694 1.369 . S
C1693 C1695 1.419 . S
C1693 H1697 0.930 . S
C1694 C1693 1.369 . S
C1694 C1703 1.429 . S
C1695 C1693 1.419 . S
C1695 C1696 1.363 . S
C1695 H1698 0.929 . S
C1696 C1695 1.363 . S
C1696 C1702 1.428 . S
H1697 C1693 0.930 . S
H1698 C1695 0.929 . S
S1699 N1700 1.613 . S
S1699 N1701 1.610 1_565 S
N1700 S1699 1.613 . S
N1700 C1703 1.350 . S
N1701 S1699 1.610 1_545 S
N1701 C1702 1.351 1_545 S
C1702 C1696 1.428 . S
C1702 N1701 1.351 1_565 S
C1702 C1703 1.434 . S
C1703 C1694 1.429 . S
C1703 N1700 1.350 . S
C1703 C1702 1.434 . S
C1704 C1705 1.357 1_556 S
C1704 C1706 1.419 . S
C1704 H1708 0.930 . S
C1705 C1704 1.357 1_554 S
C1705 C1714 1.440 . S
C1706 C1704 1.419 . S
C1706 C1707 1.363 . S
C1706 H1709 0.929 . S
C1707 C1706 1.363 . S
C1707 C1713 1.428 1_556 S
H1708 C1704 0.930 . S
H1709 C1706 0.929 . S
S1710 N1711 1.613 . S
S1710 N1712 1.610 . S
N1711 S1710 1.613 . S
N1711 C1714 1.350 . S
N1712 S1710 1.610 . S
N1712 C1713 1.351 . S
C1713 C1707 1.428 1_554 S
C1713 N1712 1.351 . S
C1713 C1714 1.434 . S
C1714 C1705 1.440 . S
C1714 N1711 1.350 . S
C1714 C1713 1.434 . S
C1715 C1716 1.369 . S
C1715 C1717 1.420 . S
C1715 H1719 0.930 . S
C1716 C1715 1.369 . S
C1716 C1725 1.429 . S
C1717 C1715 1.420 . S
C1717 C1718 1.361 1_556 S
C1717 H1720 0.929 . S
C1718 C1717 1.361 1_554 S
C1718 C1724 1.428 . S
H1719 C1715 0.930 . S
H1720 C1717 0.929 . S
S1721 N1722 1.613 . S
S1721 N1723 1.610 1_556 S
N1722 S1721 1.613 . S
N1722 C1725 1.350 . S
N1723 S1721 1.610 1_554 S
N1723 C1724 1.351 . S
C1724 C1718 1.428 . S
C1724 N1723 1.351 . S
C1724 C1725 1.433 1_554 S
C1725 C1716 1.429 . S
C1725 N1722 1.350 . S
C1725 C1724 1.433 1_556 S
C1726 C1727 1.369 . S
C1726 C1728 1.419 . S
C1726 H1730 0.930 . S
C1727 C1726 1.369 . S
C1727 C1736 1.429 . S
C1728 C1726 1.419 . S
C1728 C1729 1.363 . S
C1728 H1731 0.929 . S
C1729 C1728 1.363 . S
C1729 C1735 1.428 . S
H1730 C1726 0.930 . S
H1731 C1728 0.929 . S
S1732 N1733 1.613 . S
S1732 N1734 1.610 . S
N1733 S1732 1.613 . S
N1733 C1736 1.350 . S
N1734 S1732 1.610 . S
N1734 C1735 1.351 . S
C1735 C1729 1.428 . S
C1735 N1734 1.351 . S
C1735 C1736 1.434 . S
C1736 C1727 1.429 . S
C1736 N1733 1.350 . S
C1736 C1735 1.434 . S
C1737 C1738 1.369 . S
C1737 C1739 1.419 . S
C1737 H1741 0.930 . S
C1738 C1737 1.369 . S
C1738 C1747 1.429 . S
C1739 C1737 1.419 . S
C1739 C1740 1.363 . S
C1739 H1742 0.929 . S
C1740 C1739 1.363 . S
C1740 C1746 1.428 . S
H1741 C1737 0.930 . S
H1742 C1739 0.929 . S
S1743 N1744 1.613 . S
S1743 N1745 1.610 . S
N1744 S1743 1.613 . S
N1744 C1747 1.350 . S
N1745 S1743 1.610 . S
N1745 C1746 1.351 . S
C1746 C1740 1.428 . S
C1746 N1745 1.351 . S
C1746 C1747 1.434 . S
C1747 C1738 1.429 . S
C1747 N1744 1.350 . S
C1747 C1746 1.434 . S
C1748 C1749 1.369 1_554 S
C1748 C1750 1.419 . S
C1748 H1752 0.930 . S
C1749 C1748 1.369 1_556 S
C1749 C1758 1.429 . S
C1750 C1748 1.419 . S
C1750 C1751 1.363 1_554 S
C1750 H1753 0.929 . S
C1751 C1750 1.363 1_556 S
C1751 C1757 1.428 . S
H1752 C1748 0.930 . S
H1753 C1750 0.929 . S
S1754 N1755 1.613 . S
S1754 N1756 1.610 . S
N1755 S1754 1.613 . S
N1755 C1758 1.350 . S
N1756 S1754 1.610 . S
N1756 C1757 1.351 . S
C1757 C1751 1.428 . S
C1757 N1756 1.351 . S
C1757 C1758 1.434 . S
C1758 C1749 1.429 . S
C1758 N1755 1.350 . S
C1758 C1757 1.434 . S
C1759 C1760 1.369 1_554 S
C1759 C1761 1.419 . S
C1759 H1763 0.930 . S
C1760 C1759 1.369 1_556 S
C1760 C1769 1.429 . S
C1761 C1759 1.419 . S
C1761 C1762 1.363 1_554 S
C1761 H1764 0.929 . S
C1762 C1761 1.363 1_556 S
C1762 C1768 1.428 . S
H1763 C1759 0.930 . S
H1764 C1761 0.929 . S
S1765 N1766 1.613 . S
S1765 N1767 1.610 . S
N1766 S1765 1.613 . S
N1766 C1769 1.350 . S
N1767 S1765 1.610 . S
N1767 C1768 1.351 . S
C1768 C1762 1.428 . S
C1768 N1767 1.351 . S
C1768 C1769 1.434 . S
C1769 C1760 1.429 . S
C1769 N1766 1.350 . S
C1769 C1768 1.434 . S
C1770 C1771 1.369 . S
C1770 C1772 1.419 . S
C1770 H1774 0.930 . S
C1771 C1770 1.369 . S
C1771 C1780 1.429 . S
C1772 C1770 1.419 . S
C1772 C1773 1.363 . S
C1772 H1775 0.929 . S
C1773 C1772 1.363 . S
C1773 C1779 1.428 . S
H1774 C1770 0.930 . S
H1775 C1772 0.929 . S
S1776 N1777 1.613 . S
S1776 N1778 1.610 . S
N1777 S1776 1.613 . S
N1777 C1780 1.350 . S
N1778 S1776 1.610 . S
N1778 C1779 1.351 . S
C1779 C1773 1.428 . S
C1779 N1778 1.351 . S
C1779 C1780 1.434 . S
C1780 C1771 1.429 . S
C1780 N1777 1.350 . S
C1780 C1779 1.434 . S
C1781 C1782 1.369 . S
C1781 C1783 1.419 . S
C1781 H1785 0.930 . S
C1782 C1781 1.369 . S
C1782 C1791 1.429 . S
C1783 C1781 1.419 . S
C1783 C1784 1.363 . S
C1783 H1786 0.929 . S
C1784 C1783 1.363 . S
C1784 C1790 1.428 . S
H1785 C1781 0.930 . S
H1786 C1783 0.929 . S
S1787 N1788 1.613 . S
S1787 N1789 1.610 . S
N1788 S1787 1.613 . S
N1788 C1791 1.350 . S
N1789 S1787 1.610 . S
N1789 C1790 1.351 . S
C1790 C1784 1.428 . S
C1790 N1789 1.351 . S
C1790 C1791 1.434 . S
C1791 C1782 1.429 . S
C1791 N1788 1.350 . S
C1791 C1790 1.434 . S
C737 C591 1.440 . S
C739 C16 1.447 . S
C748 C568 1.449 . S
C750 C39 1.441 . S
C759 C637 1.443 . S
C761 C62 1.448 . S
C770 C614 1.450 . S
C772 C85 1.443 . S
C781 C108 1.498 . S
C783 C683 1.489 . S
C792 C131 1.492 . S
C794 C660 1.493 . S
C803 C154 1.498 . S
C805 C729 1.491 . S
C814 C706 1.498 . S
C816 C177 1.491 . S
C825 C407 1.451 . S
C827 C200 1.441 . S
C836 C384 1.442 . S
C838 C223 1.448 . S
C847 C453 1.440 . S
C849 C246 1.450 . S
C858 C430 1.451 . S
C860 C269 1.442 . S
C869 C292 1.488 . S
C871 C499 1.498 . S
C880 C476 1.499 . S
C882 C315 1.490 . S
C891 C338 1.498 . S
C893 C545 1.492 . S
C902 C522 1.500 . S
C904 C361 1.490 . S
C913 C19 1.416 . S
C915 C456 1.422 . S
C924 C433 1.422 . S
C926 C42 1.426 . S
C935 C410 1.407 . S
C937 C65 1.405 . S
C946 C88 1.401 . S
C948 C387 1.402 . S
C957 C549 1.410 . S
C959 C112 1.417 . S
C968 C526 1.412 . S
C970 C135 1.416 . S
C979 C503 1.397 . S
C981 C158 1.393 . S
C990 C480 1.390 . S
C992 C181 1.392 . S
C1001 C640 1.401 . S
C1003 C203 1.402 . S
C1012 C226 1.408 . S
C1014 C617 1.406 . S
C1023 C249 1.423 . S
C1025 C594 1.427 . S
C1034 C272 1.416 . S
C1036 C571 1.423 . S
C1045 C733 1.390 . S
C1047 C296 1.393 . S
C1056 C710 1.398 . S
C1058 C319 1.395 . S
C1067 C342 1.406 . S
C1069 C687 1.411 . S
C1078 C365 1.405 . S
C1080 C664 1.412 . S
C1089 C113 0.944 . S
C1091 C21 0.945 . S
C1100 C44 0.945 . S
C1102 C688 0.946 . S
C1111 C67 0.941 . S
C1113 C343 0.941 . S
C1122 C550 0.948 . S
C1124 C90 0.937 . S
C1133 C136 0.947 . S
C1135 C596 0.942 . S
C1144 C159 0.946 . S
C1146 C251 0.936 . S
C1155 C458 0.944 . S
C1157 C182 0.944 . S
C1166 C297 0.949 . S
C1168 C205 0.938 . S
C1177 C228 0.938 . S
C1179 C504 0.946 . S
C1188 C274 0.937 . S
C1190 C734 0.943 . S
C1199 C412 0.937 . S
C1201 C320 0.948 . S
C1210 C366 0.943 . S
C1212 C642 0.937 . S
C1221 C481 0.943 . S
C1223 C389 0.942 . S
C1232 C711 0.948 . S
C1234 C435 0.938 . S
C1243 C619 0.935 . S
C1245 C527 0.946 . S
C1254 C573 0.944 . S
C1256 C665 0.947 . S
C1265 C66 1.493 . S
C1267 C20 1.490 . S
C1276 C89 1.494 . S
C1278 C43 1.489 . S
C1287 C157 1.483 . S
C1289 C111 1.483 . S
C1298 C134 1.486 . S
C1300 C180 1.484 . S
C1309 C250 1.513 . S
C1311 C204 1.508 . S
C1320 C227 1.510 . S
C1322 C273 1.508 . S
C1331 C341 1.498 . S
C1333 C295 1.504 . S
C1342 C318 1.499 . S
C1344 C364 1.505 . S
C1353 C388 1.510 . S
C1355 C434 1.508 . S
C1364 C411 1.513 . S
C1366 C457 1.510 . S
C1375 C525 1.505 . S
C1377 C479 1.499 . S
C1386 C502 1.498 . S
C1388 C548 1.504 . S
C1397 C572 1.498 . S
C1399 C618 1.488 . S
C1408 C641 1.492 . S
C1410 C595 1.490 . S
C1419 C663 1.483 . S
C1421 C709 1.483 . S
C1430 C686 1.490 . S
C1432 C732 1.482 . S
C1441 C132 1.802 1_545 S
C1443 C18 1.893 1_556 S
C1452 C661 1.804 . S
C1454 C41 1.894 1_456 S
C1463 C64 1.895 . S
C1465 C362 1.803 . S
C1474 C87 1.896 1_455 S
C1476 C523 1.806 1_545 S
C1485 C110 1.862 1_556 S
C1487 C40 1.772 1_565 S
C1496 C133 1.862 1_656 S
C1498 C569 1.769 . S
C1507 C270 1.767 . S
C1509 C156 1.861 . S
C1518 C431 1.772 1_565 S
C1520 C179 1.864 1_655 S
C1529 C202 1.893 . S
C1531 C316 1.807 . S
C1540 C477 1.800 . S
C1542 C225 1.892 1_455 S
C1551 C248 1.890 . S
C1553 C178 1.803 . S
C1562 C707 1.800 . S
C1564 C271 1.890 1_455 S
C1573 C294 1.864 . S
C1575 C224 1.770 . S
C1584 C317 1.863 1_655 S
C1586 C385 1.771 . S
C1595 C340 1.860 . S
C1597 C86 1.764 . S
C1606 C615 1.765 . S
C1608 C363 1.862 1_655 S
C1617 C386 1.897 . S
C1619 C500 1.807 1_545 S
C1628 C409 1.895 . S
C1630 C293 1.808 . S
C1639 C730 1.804 . S
C1641 C432 1.895 . S
C1650 C155 1.809 1_545 S
C1652 C455 1.893 . S
C1661 C478 1.863 . S
C1663 C408 1.772 1_565 S
C1672 C201 1.764 . S
C1674 C501 1.862 . S
C1683 C638 1.765 . S
C1685 C524 1.862 . S
C1694 C547 1.864 . S
C1696 C63 1.768 1_565 S
C1705 C684 1.801 . S
C1707 C570 1.893 1_556 S
C1716 C593 1.894 1_556 S
C1718 C109 1.800 . S
C1727 C546 1.800 . S
C1729 C616 1.893 . S
C1738 C339 1.801 . S
C1740 C639 1.890 . S
C1749 C592 1.772 . S
C1751 C662 1.860 1_556 S
C1760 C685 1.860 1_556 S
C1762 C17 1.767 . S
C1771 C454 1.762 . S
C1773 C708 1.860 . S
C1782 C731 1.859 . S
C1784 C247 1.763 . S
