# Generated by pormake.
# Topology ukn, (4)-cn, num edge types: 1
# Building blocks:
#     Node 0, Type 0, BuildingBlock: UXUYUI_clean_sbu_0, # of connection points: 4
#     Node 1, Type 0, BuildingBlock: UXUYUI_clean_sbu_0, # of connection points: 4
#     Node 2, Type 0, BuildingBlock: UXUYUI_clean_sbu_0, # of connection points: 4
#     Node 3, Type 0, BuildingBlock: UXUYUI_clean_sbu_0, # of connection points: 4
#     Node 4, Type 0, BuildingBlock: UXUYUI_clean_sbu_0, # of connection points: 4
#     Node 5, Type 0, BuildingBlock: UXUYUI_clean_sbu_0, # of connection points: 4
#     Node 6, Type 0, BuildingBlock: UXUYUI_clean_sbu_0, # of connection points: 4
#     Node 7, Type 0, BuildingBlock: UXUYUI_clean_sbu_0, # of connection points: 4
#     Node 8, Type 0, BuildingBlock: UXUYUI_clean_sbu_0, # of connection points: 4
#     Node 9, Type 0, BuildingBlock: UXUYUI_clean_sbu_0, # of connection points: 4
#     Node 10, Type 0, BuildingBlock: UXUYUI_clean_sbu_0, # of connection points: 4
#     Node 11, Type 0, BuildingBlock: UXUYUI_clean_sbu_0, # of connection points: 4
#     Node 12, Type 0, BuildingBlock: UXUYUI_clean_sbu_0, # of connection points: 4
#     Node 13, Type 0, BuildingBlock: UXUYUI_clean_sbu_0, # of connection points: 4
#     Node 14, Type 0, BuildingBlock: UXUYUI_clean_sbu_0, # of connection points: 4
#     Node 15, Type 0, BuildingBlock: UXUYUI_clean_sbu_0, # of connection points: 4
#     Node 16, Type 0, BuildingBlock: UXUYUI_clean_sbu_0, # of connection points: 4
#     Node 17, Type 0, BuildingBlock: UXUYUI_clean_sbu_0, # of connection points: 4
#     Node 18, Type 0, BuildingBlock: UXUYUI_clean_sbu_0, # of connection points: 4
#     Node 19, Type 0, BuildingBlock: UXUYUI_clean_sbu_0, # of connection points: 4
#     Node 20, Type 0, BuildingBlock: UXUYUI_clean_sbu_0, # of connection points: 4
#     Node 21, Type 0, BuildingBlock: UXUYUI_clean_sbu_0, # of connection points: 4
#     Node 22, Type 0, BuildingBlock: UXUYUI_clean_sbu_0, # of connection points: 4
#     Node 23, Type 0, BuildingBlock: UXUYUI_clean_sbu_0, # of connection points: 4
#     Node 24, Type 0, BuildingBlock: UXUYUI_clean_sbu_0, # of connection points: 4
#     Node 25, Type 0, BuildingBlock: UXUYUI_clean_sbu_0, # of connection points: 4
#     Node 26, Type 0, BuildingBlock: UXUYUI_clean_sbu_0, # of connection points: 4
#     Node 27, Type 0, BuildingBlock: UXUYUI_clean_sbu_0, # of connection points: 4
#     Node 28, Type 0, BuildingBlock: UXUYUI_clean_sbu_0, # of connection points: 4
#     Node 29, Type 0, BuildingBlock: UXUYUI_clean_sbu_0, # of connection points: 4
#     Node 30, Type 0, BuildingBlock: UXUYUI_clean_sbu_0, # of connection points: 4
#     Node 31, Type 0, BuildingBlock: UXUYUI_clean_sbu_0, # of connection points: 4
#     Node 32, Type 0, BuildingBlock: UXUYUI_clean_sbu_0, # of connection points: 4
#     Node 33, Type 0, BuildingBlock: UXUYUI_clean_sbu_0, # of connection points: 4
#     Node 34, Type 0, BuildingBlock: UXUYUI_clean_sbu_0, # of connection points: 4
#     Node 35, Type 0, BuildingBlock: UXUYUI_clean_sbu_0, # of connection points: 4
#     Edge 36, Type (0, 0), None
#     Edge 37, Type (0, 0), None
#     Edge 38, Type (0, 0), None
#     Edge 39, Type (0, 0), None
#     Edge 40, Type (0, 0), None
#     Edge 41, Type (0, 0), None
#     Edge 42, Type (0, 0), None
#     Edge 43, Type (0, 0), None
#     Edge 44, Type (0, 0), None
#     Edge 45, Type (0, 0), None
#     Edge 46, Type (0, 0), None
#     Edge 47, Type (0, 0), None
#     Edge 48, Type (0, 0), None
#     Edge 49, Type (0, 0), None
#     Edge 50, Type (0, 0), None
#     Edge 51, Type (0, 0), None
#     Edge 52, Type (0, 0), None
#     Edge 53, Type (0, 0), None
#     Edge 54, Type (0, 0), None
#     Edge 55, Type (0, 0), None
#     Edge 56, Type (0, 0), None
#     Edge 57, Type (0, 0), None
#     Edge 58, Type (0, 0), None
#     Edge 59, Type (0, 0), None
#     Edge 60, Type (0, 0), None
#     Edge 61, Type (0, 0), None
#     Edge 62, Type (0, 0), None
#     Edge 63, Type (0, 0), None
#     Edge 64, Type (0, 0), None
#     Edge 65, Type (0, 0), None
#     Edge 66, Type (0, 0), None
#     Edge 67, Type (0, 0), None
#     Edge 68, Type (0, 0), None
#     Edge 69, Type (0, 0), None
#     Edge 70, Type (0, 0), None
#     Edge 71, Type (0, 0), None
#     Edge 72, Type (0, 0), None
#     Edge 73, Type (0, 0), None
#     Edge 74, Type (0, 0), None
#     Edge 75, Type (0, 0), None
#     Edge 76, Type (0, 0), None
#     Edge 77, Type (0, 0), None
#     Edge 78, Type (0, 0), None
#     Edge 79, Type (0, 0), None
#     Edge 80, Type (0, 0), None
#     Edge 81, Type (0, 0), None
#     Edge 82, Type (0, 0), None
#     Edge 83, Type (0, 0), None
#     Edge 84, Type (0, 0), None
#     Edge 85, Type (0, 0), None
#     Edge 86, Type (0, 0), None
#     Edge 87, Type (0, 0), None
#     Edge 88, Type (0, 0), None
#     Edge 89, Type (0, 0), None
#     Edge 90, Type (0, 0), None
#     Edge 91, Type (0, 0), None
#     Edge 92, Type (0, 0), None
#     Edge 93, Type (0, 0), None
#     Edge 94, Type (0, 0), None
#     Edge 95, Type (0, 0), None
#     Edge 96, Type (0, 0), None
#     Edge 97, Type (0, 0), None
#     Edge 98, Type (0, 0), None
#     Edge 99, Type (0, 0), None
#     Edge 100, Type (0, 0), None
#     Edge 101, Type (0, 0), None
#     Edge 102, Type (0, 0), None
#     Edge 103, Type (0, 0), None
#     Edge 104, Type (0, 0), None
#     Edge 105, Type (0, 0), None
#     Edge 106, Type (0, 0), None
#     Edge 107, Type (0, 0), None
# Relax obj value: 0.241
# Max RMSD: 0.172
# Mean RMSD: 0.172
data_MOF--net-ukn--node1-UXUYUI_clean_sbu_0--edge1-none
_symmetry_space_group_name_H-M    P1
_symmetry_Int_Tables_number       1
_symmetry_cell_setting            triclinic
loop_
_symmetry_equiv_pos_as_xyz
'x, y, z'
_cell_length_a     98.915966
_cell_length_b     98.916444
_cell_length_c     22.762498
_cell_angle_alpha  89.99767
_cell_angle_beta   90.000809
_cell_angle_gamma 120.00536
loop_
_atom_site_label
_atom_site_type_symbol
_atom_site_fract_x
_atom_site_fract_y
_atom_site_fract_z
_atom_type_partial_charge
Li0 Li 0.0801 0.29825 0.13632 0.0
Li1 Li 0.08889 0.28108 0.08733 0.0
Li2 Li 0.08421 0.29882 0.03031 0.0
Li3 Li 0.06221 0.27603 0.06792 0.0
C4 C 0.11164 0.31757 0.07213 0.0
N5 N 0.13504 0.34489 0.02351 0.0
C6 C 0.12402 0.31762 0.04234 0.0
C7 C 0.11119 0.33142 0.07749 0.0
C8 C 0.13573 0.33156 0.01801 0.0
C9 C 0.12313 0.34511 0.05253 0.0
C10 C 0.07 0.2663 0.19281 0.0
C11 C 0.05814 0.24151 0.24298 0.0
N12 N 0.06731 0.24856 0.29057 0.0
C13 C 0.07917 0.27334 0.24247 0.0
C14 C 0.05926 0.25029 0.19325 0.0
C15 C 0.07769 0.26416 0.29136 0.0
C16 C 0.07209 0.31131 0.23717 0.0
N17 N 0.08343 0.31055 0.20591 0.0
C18 C 0.10302 0.32829 0.27226 0.0
C19 C 0.09863 0.3188 0.22266 0.0
C20 C 0.09166 0.32914 0.30655 0.0
C21 C 0.07597 0.32058 0.28805 0.0
H22 H 0.06006 0.30462 0.22304 0.0
H23 H 0.10745 0.31795 0.19761 0.0
C24 C 0.11088 0.27393 0.04449 0.0
N25 N 0.10305 0.27325 0.09449 0.0
C26 C 0.12345 0.27126 0.04614 0.0
C27 C 0.11933 0.26653 0.15045 0.0
C28 C 0.10682 0.26933 0.14676 0.0
C29 C 0.12812 0.2679 0.09993 0.0
H30 H 0.10795 0.27747 0.00372 0.0
H31 H 0.10066 0.26907 0.18613 0.0
C32 C 0.0557 0.29939 0.03791 0.0
N33 N 0.03369 0.30132 0.96932 0.0
C34 C 0.05293 0.29366 0.9804 0.0
C35 C 0.04728 0.30609 0.06055 0.0
C36 C 0.04175 0.29474 0.94644 0.0
C37 C 0.03621 0.30697 0.02515 0.0
C38 C 0.07481 0.2631 0.98827 0.0
C39 C 0.07647 0.26152 0.92808 0.0
C40 C 0.06994 0.25022 0.02527 0.0
C41 C 0.0731 0.247 0.90583 0.0
C42 C 0.0667 0.2359 0.00135 0.0
N43 N 0.06832 0.2346 0.94261 0.0
C44 C 0.09943 0.3087 0.92267 0.0
C45 C 0.08841 0.32381 0.95628 0.0
C46 C 0.10442 0.31736 0.87091 0.0
N47 N 0.09148 0.31197 0.96364 0.0
C48 C 0.093 0.33264 0.90483 0.0
C49 C 0.10098 0.3293 0.86161 0.0
H50 H 0.10178 0.29926 0.93016 0.0
H51 H 0.08223 0.32626 0.98998 0.0
C52 C 0.02934 0.26019 0.08575 0.0
N53 N 0.04071 0.2614 0.0489 0.0
C54 C 0.01365 0.25187 0.06864 0.0
C55 C 0.02156 0.24575 0.97681 0.0
C56 C 0.03706 0.25436 0.99528 0.0
C57 C 0.00955 0.24462 0.01304 0.0
H58 H 0.03253 0.2663 0.12736 0.0
H59 H 0.04614 0.25596 0.96524 0.0
O60 O 0.09981 0.30396 0.09479 0.0
O61 O 0.07109 0.27511 0.14482 0.0
O62 O 0.06635 0.29817 0.07251 0.0
O63 O 0.07818 0.27728 0.01058 0.0
H64 H 0.12453 0.30702 0.0377 0.0
H65 H 0.1016 0.33153 0.0999 0.0
H66 H 0.14535 0.33177 0.9946 0.0
H67 H 0.12288 0.35589 0.05599 0.0
H68 H 0.04993 0.22909 0.24383 0.0
H69 H 0.08748 0.28572 0.243 0.0
H70 H 0.0518 0.24471 0.15571 0.0
H71 H 0.0848 0.26943 0.32991 0.0
H72 H 0.11529 0.33489 0.28348 0.0
H73 H 0.06678 0.32076 0.31318 0.0
H74 H 0.13001 0.27278 0.00621 0.0
H75 H 0.12242 0.26386 0.19279 0.0
H76 H 0.0593 0.28837 0.96227 0.0
H77 H 0.04925 0.31051 0.10511 0.0
H78 H 0.03946 0.29032 0.90192 0.0
H79 H 0.02959 0.31213 0.0421 0.0
H80 H 0.08025 0.2714 0.89887 0.0
H81 H 0.06879 0.2513 0.07191 0.0
H82 H 0.07428 0.2456 0.85931 0.0
H83 H 0.06293 0.22583 0.0295 0.0
H84 H 0.11062 0.31461 0.83812 0.0
H85 H 0.0903 0.3419 0.89863 0.0
H86 H 0.00492 0.25168 0.09784 0.0
H87 H 0.01909 0.2403 0.93392 0.0
Li88 Li 0.72117 0.80824 0.08587 0.0
Li89 Li 0.70329 0.78245 0.13514 0.0
Li90 Li 0.72507 0.78578 0.06636 0.0
Li91 Li 0.70308 0.78621 0.02925 0.0
C92 C 0.73494 0.80264 0.19305 0.0
N93 N 0.75186 0.81572 0.29442 0.0
C94 C 0.72793 0.80549 0.2411 0.0
C95 C 0.75048 0.8062 0.19688 0.0
C96 C 0.7367 0.81218 0.29187 0.0
C97 C 0.75886 0.81288 0.24841 0.0
C98 C 0.68516 0.79609 0.0696 0.0
C99 C 0.65731 0.78212 0.05373 0.0
N100 N 0.65877 0.79397 0.01901 0.0
C101 C 0.68637 0.80814 0.03388 0.0
C102 C 0.67052 0.78297 0.07968 0.0
C103 C 0.67289 0.80684 0.00866 0.0
C104 C 0.73002 0.83801 0.04365 0.0
N105 N 0.72952 0.83032 0.09384 0.0
C106 C 0.73506 0.85277 0.15135 0.0
C107 C 0.73231 0.83749 0.14703 0.0
C108 C 0.73472 0.86069 0.1005 0.0
C109 C 0.73262 0.85323 0.04593 0.0
H110 H 0.72735 0.83195 0.00201 0.0
H111 H 0.73159 0.83115 0.18647 0.0
C112 C 0.69013 0.76157 0.23611 0.0
N113 N 0.69105 0.77376 0.20503 0.0
C114 C 0.68093 0.75629 0.28719 0.0
C115 C 0.67361 0.77594 0.27199 0.0
C116 C 0.68307 0.78096 0.22229 0.0
C117 C 0.67256 0.76359 0.30606 0.0
H118 H 0.69663 0.75606 0.22165 0.0
H119 H 0.6841 0.79073 0.19746 0.0
C120 C 0.73995 0.81148 0.99165 0.0
N121 N 0.77006 0.83238 0.95602 0.0
C122 C 0.7433 0.81505 0.93208 0.0
C123 C 0.75192 0.81861 0.03304 0.0
C124 C 0.75859 0.82561 0.91495 0.0
C125 C 0.76706 0.82913 0.01419 0.0
C126 C 0.70017 0.7562 0.03656 0.0
C127 C 0.70562 0.75868 0.97869 0.0
C128 C 0.69213 0.74104 0.05902 0.0
C129 C 0.70298 0.7459 0.94424 0.0
C130 C 0.6897 0.72856 0.02314 0.0
N131 N 0.69514 0.73123 0.96699 0.0
C132 C 0.74176 0.76938 0.08593 0.0
C133 C 0.74455 0.78013 0.99085 0.0
C134 C 0.75011 0.76203 0.06875 0.0
N135 N 0.73907 0.77817 0.04689 0.0
C136 C 0.7531 0.77321 0.97211 0.0
C137 C 0.75583 0.76378 0.01081 0.0
H138 H 0.73693 0.76762 0.12976 0.0
H139 H 0.74177 0.78654 0.95954 0.0
C140 C 0.69553 0.78987 0.91468 0.0
N141 N 0.68998 0.78043 0.96251 0.0
C142 C 0.68693 0.7858 0.86277 0.0
C143 C 0.66676 0.76269 0.91122 0.0
C144 C 0.67592 0.76703 0.96186 0.0
C145 C 0.6724 0.77208 0.86095 0.0
H146 H 0.70671 0.80049 0.9168 0.0
H147 H 0.67191 0.75969 1.0005 0.0
O148 O 0.72651 0.79588 0.14322 0.0
O149 O 0.69827 0.79697 0.09349 0.0
O150 O 0.72497 0.80116 0.00885 0.0
O151 O 0.70264 0.76851 0.0713 0.0
H152 H 0.71591 0.8028 0.23895 0.0
H153 H 0.756 0.80379 0.16047 0.0
H154 H 0.73146 0.81457 0.32921 0.0
H155 H 0.77092 0.81576 0.25188 0.0
H156 H 0.64593 0.77199 0.06087 0.0
H157 H 0.6976 0.81833 0.0253 0.0
H158 H 0.66938 0.77341 0.10637 0.0
H159 H 0.67367 0.81605 0.98074 0.0
H160 H 0.73679 0.85808 0.19433 0.0
H161 H 0.73193 0.85865 0.00556 0.0
H162 H 0.68065 0.74683 0.3121 0.0
H163 H 0.66716 0.78175 0.28333 0.0
H164 H 0.7342 0.80963 0.89933 0.0
H165 H 0.74957 0.81618 0.07922 0.0
H166 H 0.76134 0.82843 0.86899 0.0
H167 H 0.77642 0.83473 0.04584 0.0
H168 H 0.71181 0.77034 0.96054 0.0
H169 H 0.68782 0.73894 0.10374 0.0
H170 H 0.70715 0.74765 0.89941 0.0
H171 H 0.6835 0.71675 0.03994 0.0
H172 H 0.75156 0.75462 0.10009 0.0
H173 H 0.75734 0.7751 0.92732 0.0
H174 H 0.6915 0.7933 0.82459 0.0
H175 H 0.65558 0.75198 0.91083 0.0
Li176 Li 0.21967 0.92118 0.13551 0.0
Li177 Li 0.19394 0.91334 0.08576 0.0
Li178 Li 0.21599 0.91714 0.02958 0.0
Li179 Li 0.21647 0.93966 0.06619 0.0
C180 C 0.20597 0.88937 0.07017 0.0
N181 N 0.20804 0.86505 0.01981 0.0
C182 C 0.1939 0.87851 0.03459 0.0
C183 C 0.21909 0.88784 0.08024 0.0
C184 C 0.19517 0.8663 0.00949 0.0
C185 C 0.21991 0.87546 0.0544 0.0
C186 C 0.19945 0.93275 0.19264 0.0
C187 C 0.18909 0.94643 0.24724 0.0
N188 N 0.18623 0.93665 0.29349 0.0
C189 C 0.19659 0.92295 0.24093 0.0
C190 C 0.19584 0.9447 0.19597 0.0
C191 C 0.18983 0.92506 0.29142 0.0
C192 C 0.24065 0.92888 0.2361 0.0
N193 N 0.22834 0.91763 0.20542 0.0
C194 C 0.22609 0.89805 0.27263 0.0
C195 C 0.22106 0.90248 0.22296 0.0
C196 C 0.23855 0.90933 0.30632 0.0
C197 C 0.24595 0.92497 0.28712 0.0
H198 H 0.24624 0.94088 0.22135 0.0
H199 H 0.21121 0.89375 0.19835 0.0
C200 C 0.16414 0.89249 0.04335 0.0
N201 N 0.17183 0.89966 0.09356 0.0
C202 C 0.1489 0.8799 0.04557 0.0
C203 C 0.14934 0.88278 0.15099 0.0
C204 C 0.16464 0.89528 0.14673 0.0
C205 C 0.14142 0.87454 0.10012 0.0
H206 H 0.17021 0.89587 0.00173 0.0
H207 H 0.17099 0.90089 0.18619 0.0
C208 C 0.24623 0.94398 0.03776 0.0
N209 N 0.27181 0.96321 0.96939 0.0
C210 C 0.24418 0.94718 0.97969 0.0
C211 C 0.26128 0.95049 0.06102 0.0
C212 C 0.25726 0.95696 0.94586 0.0
C213 C 0.27407 0.9602 0.02575 0.0
C214 C 0.1909 0.9289 0.99108 0.0
C215 C 0.18751 0.92879 0.93137 0.0
C216 C 0.18369 0.93372 0.03221 0.0
C217 C 0.17705 0.93362 0.91385 0.0
C218 C 0.17329 0.93845 0.01297 0.0
N219 N 0.17021 0.93831 0.95467 0.0
C220 C 0.21229 0.90582 0.91545 0.0
C221 C 0.23524 0.90914 0.96204 0.0
C222 C 0.21629 0.90128 0.86341 0.0
N223 N 0.22182 0.90977 0.96304 0.0
C224 C 0.23952 0.90434 0.91121 0.0
C225 C 0.23004 0.90055 0.86121 0.0
H226 H 0.20166 0.90635 0.91786 0.0
H227 H 0.24264 0.91249 1.00052 0.0
C228 C 0.23217 0.97279 0.08587 0.0
N229 N 0.22403 0.96122 0.04632 0.0
C230 C 0.23928 0.98847 0.06854 0.0
C231 C 0.22919 0.98004 0.97065 0.0
C232 C 0.22248 0.9646 0.98962 0.0
C233 C 0.23795 0.99231 0.00992 0.0
H234 H 0.23357 0.96983 0.13035 0.0
H235 H 0.21652 0.95534 0.95812 0.0
O236 O 0.20513 0.90164 0.09391 0.0
O237 O 0.20629 0.93105 0.14309 0.0
O238 O 0.23363 0.93438 0.07174 0.0
O239 O 0.20114 0.92417 0.00867 0.0
H240 H 0.18371 0.87956 0.02602 0.0
H241 H 0.22866 0.89628 0.10685 0.0
H242 H 0.18594 0.85785 0.98167 0.0
H243 H 0.23003 0.87419 0.06153 0.0
H244 H 0.18616 0.95558 0.25033 0.0
H245 H 0.19934 0.91367 0.23917 0.0
H246 H 0.19826 0.95258 0.15938 0.0
H247 H 0.18743 0.91748 0.32894 0.0
H248 H 0.2202 0.8858 0.28426 0.0
H249 H 0.25551 0.93413 0.31173 0.0
H250 H 0.14348 0.87381 0.00519 0.0
H251 H 0.14402 0.8792 0.19395 0.0
H252 H 0.23262 0.9421 0.96084 0.0
H253 H 0.26304 0.94806 0.10587 0.0
H254 H 0.25584 0.95955 0.90086 0.0
H255 H 0.28579 0.96534 0.04317 0.0
H256 H 0.19299 0.92513 0.89882 0.0
H257 H 0.18598 0.9337 0.07847 0.0
H258 H 0.17437 0.93365 0.86778 0.0
H259 H 0.16763 0.94219 0.04441 0.0
H260 H 0.20873 0.89832 0.8254 0.0
H261 H 0.25025 0.9039 0.91046 0.0
H262 H 0.24616 0.99743 0.10038 0.0
H263 H 0.22764 0.98229 0.92531 0.0
Li264 Li 0.29916 0.08387 0.97132 0.0
Li265 Li 0.27681 0.06164 0.9341 0.0
Li266 Li 0.29875 0.07981 0.86547 0.0
Li267 Li 0.2812 0.08812 0.9146 0.0
C268 C 0.30078 0.05598 0.96418 0.0
N269 N 0.30372 0.03466 0.03338 0.0
C270 C 0.29535 0.05335 0.02209 0.0
C271 C 0.30772 0.04779 0.94147 0.0
C272 C 0.29693 0.04251 0.05636 0.0
C273 C 0.30911 0.03706 0.97717 0.0
C274 C 0.2628 0.07323 0.01113 0.0
C275 C 0.23557 0.06417 0.99303 0.0
N276 N 0.23338 0.0652 0.05148 0.0
C277 C 0.26029 0.07426 0.07101 0.0
C278 C 0.25037 0.06819 0.97179 0.0
C279 C 0.24533 0.07012 0.09055 0.0
C280 C 0.30775 0.09728 0.08241 0.0
N281 N 0.31228 0.09125 0.03797 0.0
C282 C 0.33433 0.09476 0.09299 0.0
C283 C 0.32532 0.09 0.04196 0.0
C284 C 0.32969 0.1007 0.1398 0.0
C285 C 0.31633 0.10207 0.13436 0.0
H286 H 0.29738 0.09823 0.07756 0.0
H287 H 0.32862 0.08516 0.00576 0.0
C288 C 0.26057 0.02867 0.91513 0.0
N289 N 0.26257 0.04006 0.95345 0.0
C290 C 0.25234 0.01296 0.93223 0.0
C291 C 0.24802 0.02094 0.02724 0.0
C292 C 0.25648 0.03645 0.00864 0.0
C293 C 0.24604 0.00889 0.98935 0.0
H294 H 0.26592 0.03182 0.87212 0.0
H295 H 0.25874 0.04557 0.03958 0.0
C296 C 0.3175 0.11143 0.93014 0.0
N297 N 0.34447 0.13516 0.97969 0.0
C298 C 0.31702 0.12317 0.96258 0.0
C299 C 0.3317 0.11178 0.9227 0.0
C300 C 0.33078 0.13506 0.98734 0.0
C301 C 0.34521 0.12387 0.94813 0.0
C302 C 0.26702 0.0691 0.80811 0.0
C303 C 0.27416 0.07875 0.75964 0.0
C304 C 0.25122 0.05771 0.80538 0.0
C305 C 0.26527 0.07708 0.70962 0.0
C306 C 0.24273 0.05642 0.75457 0.0
N307 N 0.24987 0.06606 0.70817 0.0
C308 C 0.31182 0.07196 0.7644 0.0
C309 C 0.31919 0.09846 0.77883 0.0
C310 C 0.32105 0.07586 0.71339 0.0
N311 N 0.31103 0.08327 0.79571 0.0
C312 C 0.32865 0.10288 0.72913 0.0
C313 C 0.32955 0.09154 0.6948 0.0
H314 H 0.30519 0.05992 0.77859 0.0
H315 H 0.31829 0.10725 0.80387 0.0
C316 C 0.27329 0.10962 0.95735 0.0
N317 N 0.27309 0.10206 0.9072 0.0
C318 C 0.27068 0.12223 0.95549 0.0
C319 C 0.26688 0.11863 0.85064 0.0
C320 C 0.26963 0.10609 0.85454 0.0
C321 C 0.26786 0.12721 0.90134 0.0
H322 H 0.27647 0.10648 0.99849 0.0
H323 H 0.26976 0.10015 0.81508 0.0
O324 O 0.29911 0.06632 0.92933 0.0
O325 O 0.27745 0.07736 0.99152 0.0
O326 O 0.30409 0.09944 0.90693 0.0
O327 O 0.27555 0.07036 0.85721 0.0
H328 H 0.28988 0.05954 0.04031 0.0
H329 H 0.31194 0.04968 0.89663 0.0
H330 H 0.29274 0.04032 0.10118 0.0
H331 H 0.31444 0.03062 0.96016 0.0
H332 H 0.22584 0.06027 0.96302 0.0
H333 H 0.2698 0.07813 0.1021 0.0
H334 H 0.25213 0.06751 0.92539 0.0
H335 H 0.24321 0.07081 0.13678 0.0
H336 H 0.34464 0.09362 0.09631 0.0
H337 H 0.31258 0.1067 0.16995 0.0
H338 H 0.25148 0.00419 0.90161 0.0
H339 H 0.24332 0.0185 0.07137 0.0
H340 H 0.30614 0.12306 0.96896 0.0
H341 H 0.33225 0.10266 0.89839 0.0
H342 H 0.33057 0.1442 0.01275 0.0
H343 H 0.35625 0.12423 0.94306 0.0
H344 H 0.28637 0.0876 0.76093 0.0
H345 H 0.24559 0.04991 0.84203 0.0
H346 H 0.27062 0.08457 0.67198 0.0
H347 H 0.23048 0.04771 0.75196 0.0
H348 H 0.32125 0.06667 0.68825 0.0
H349 H 0.3352 0.11515 0.7179 0.0
H350 H 0.27187 0.1286 0.99564 0.0
H351 H 0.2646 0.12194 0.80801 0.0
Li352 Li 0.91837 0.21582 0.97086 0.0
Li353 Li 0.94066 0.21573 0.93504 0.0
Li354 Li 0.92181 0.21953 0.86584 0.0
Li355 Li 0.91384 0.19363 0.91574 0.0
C356 C 0.94062 0.24631 0.96051 0.0
N357 N 0.94978 0.27298 0.02616 0.0
C358 C 0.94726 0.24779 0.01603 0.0
C359 C 0.93872 0.25841 0.93817 0.0
C360 C 0.95177 0.26135 0.04863 0.0
C361 C 0.94342 0.27181 0.97208 0.0
C362 C 0.92964 0.19013 0.00819 0.0
C363 C 0.93816 0.17189 0.98248 0.0
N364 N 0.93893 0.16903 0.04045 0.0
C365 C 0.93048 0.18695 0.06756 0.0
C366 C 0.93349 0.1825 0.96535 0.0
C367 C 0.93522 0.17628 0.08296 0.0
C368 C 0.91011 0.21421 0.08881 0.0
N369 N 0.91138 0.22205 0.0382 0.0
C370 C 0.90313 0.23806 0.08705 0.0
C371 C 0.90801 0.2338 0.03636 0.0
C372 C 0.90201 0.23031 0.13999 0.0
C373 C 0.90556 0.21827 0.1407 0.0
H374 H 0.91263 0.2048 0.08887 0.0
H375 H 0.90915 0.2399 0.99566 0.0
C376 C 0.97372 0.23007 0.91461 0.0
N377 N 0.96205 0.2229 0.95462 0.0
C378 C 0.98935 0.23702 0.93245 0.0
C379 C 0.98062 0.22868 0.03181 0.0
C380 C 0.96525 0.22212 0.01225 0.0
C381 C 0.99301 0.23652 0.99205 0.0
H382 H 0.97091 0.23089 0.86929 0.0
H383 H 0.95587 0.21692 0.04379 0.0
C384 C 0.89004 0.2056 0.93249 0.0
N385 N 0.86522 0.20673 0.98311 0.0
C386 C 0.8803 0.19411 0.97245 0.0
C387 C 0.88712 0.21766 0.91815 0.0
C388 C 0.86783 0.19489 0.99763 0.0
C389 C 0.87452 0.21802 0.94421 0.0
C390 C 0.93331 0.19899 0.80841 0.0
C391 C 0.92374 0.19622 0.75948 0.0
C392 C 0.94526 0.19536 0.80593 0.0
C393 C 0.92606 0.18954 0.70921 0.0
C394 C 0.94721 0.18869 0.75485 0.0
N395 N 0.93765 0.18593 0.70797 0.0
C396 C 0.92943 0.24077 0.7659 0.0
C397 C 0.90324 0.2205 0.77725 0.0
C398 C 0.92545 0.24599 0.7148 0.0
N399 N 0.91831 0.22818 0.79577 0.0
C400 C 0.89873 0.22545 0.72756 0.0
C401 C 0.90988 0.23823 0.6947 0.0
H402 H 0.94137 0.24668 0.78139 0.0
H403 H 0.89463 0.21043 0.80124 0.0
C404 C 0.89297 0.16363 0.95747 0.0
N405 N 0.89987 0.17158 0.90736 0.0
C406 C 0.88036 0.14841 0.95486 0.0
C407 C 0.88268 0.14941 0.84916 0.0
C408 C 0.89519 0.16469 0.85382 0.0
C409 C 0.87472 0.14121 0.90004 0.0
H410 H 0.89663 0.16946 0.99948 0.0
H411 H 0.90059 0.17126 0.81451 0.0
O412 O 0.93619 0.23317 0.92779 0.0
O413 O 0.92504 0.20063 0.99266 0.0
O414 O 0.90247 0.20517 0.9081 0.0
O415 O 0.93139 0.20575 0.85777 0.0
H416 H 0.94869 0.23848 0.03409 0.0
H417 H 0.93364 0.25743 0.89515 0.0
H418 H 0.95682 0.26262 0.09184 0.0
H419 H 0.94201 0.28127 0.95543 0.0
H420 H 0.94113 0.1659 0.94964 0.0
H421 H 0.92765 0.19276 0.10157 0.0
H422 H 0.93272 0.18457 0.91938 0.0
H423 H 0.93597 0.17378 0.12873 0.0
H424 H 0.90053 0.24747 0.08522 0.0
H425 H 0.90465 0.21197 0.1808 0.0
H426 H 0.99842 0.24319 0.90013 0.0
H427 H 0.98273 0.22778 0.07792 0.0
H428 H 0.88244 0.18477 0.9844 0.0
H429 H 0.89469 0.22684 0.88821 0.0
H430 H 0.86025 0.18611 0.02883 0.0
H431 H 0.8722 0.22734 0.93383 0.0
H432 H 0.91448 0.19901 0.76054 0.0
H433 H 0.95297 0.19769 0.84303 0.0
H434 H 0.91866 0.18721 0.67119 0.0
H435 H 0.95636 0.18575 0.75242 0.0
H436 H 0.93452 0.2558 0.69088 0.0
H437 H 0.88652 0.21926 0.71534 0.0
H438 H 0.8745 0.14278 0.99533 0.0
H439 H 0.8789 0.14431 0.80596 0.0
Li440 Li 0.7861 0.7247 0.93475 0.0
Li441 Li 0.78657 0.70273 0.97184 0.0
Li442 Li 0.80859 0.72083 0.91524 0.0
Li443 Li 0.78281 0.70292 0.86592 0.0
C444 C 0.8118 0.73963 0.00933 0.0
N445 N 0.83266 0.76977 0.04469 0.0
C446 C 0.81537 0.74302 0.06887 0.0
C447 C 0.81892 0.75157 0.96782 0.0
C448 C 0.82591 0.75833 0.08587 0.0
C449 C 0.82942 0.76673 0.98653 0.0
C450 C 0.75649 0.69962 0.96437 0.0
C451 C 0.72878 0.6887 0.97774 0.0
N452 N 0.73136 0.69417 0.03384 0.0
C453 C 0.75888 0.7051 0.02219 0.0
C454 C 0.74134 0.69133 0.94192 0.0
C455 C 0.74602 0.70224 0.05659 0.0
C456 C 0.76973 0.74143 0.91514 0.0
N457 N 0.77847 0.73868 0.95422 0.0
C458 C 0.77349 0.75268 0.02908 0.0
C459 C 0.78039 0.74411 0.01032 0.0
C460 C 0.76411 0.75547 0.99032 0.0
C461 C 0.7624 0.74979 0.93232 0.0
H462 H 0.768 0.73664 0.87125 0.0
H463 H 0.78677 0.74129 0.04165 0.0
C464 C 0.79013 0.69522 0.08661 0.0
N465 N 0.78077 0.68963 0.03858 0.0
C466 C 0.78603 0.68661 0.13851 0.0
C467 C 0.76307 0.66635 0.08965 0.0
C468 C 0.76743 0.67552 0.03904 0.0
C469 C 0.77237 0.67203 0.14013 0.0
H470 H 0.8007 0.70644 0.08466 0.0
H471 H 0.76015 0.67147 1.00025 0.0
C472 C 0.80294 0.73458 0.80802 0.0
N473 N 0.81596 0.7515 0.7066 0.0
C474 C 0.80582 0.72758 0.75997 0.0
C475 C 0.80645 0.7501 0.80417 0.0
C476 C 0.81247 0.73635 0.70917 0.0
C477 C 0.8131 0.75848 0.75261 0.0
C478 C 0.79651 0.68485 0.93161 0.0
C479 C 0.80855 0.68612 0.96758 0.0
C480 C 0.78345 0.67017 0.92139 0.0
C481 C 0.8073 0.67268 0.99289 0.0
C482 C 0.78265 0.657 0.94744 0.0
N483 N 0.79448 0.65852 0.9824 0.0
C484 C 0.83839 0.72976 0.95741 0.0
C485 C 0.83781 0.73191 0.85399 0.0
C486 C 0.85361 0.73236 0.9551 0.0
N487 N 0.83067 0.72919 0.90722 0.0
C488 C 0.85309 0.73466 0.84963 0.0
C489 C 0.86104 0.73439 0.90049 0.0
H490 H 0.83236 0.72714 0.99909 0.0
H491 H 0.83144 0.73114 0.81456 0.0
C492 C 0.76194 0.68976 0.76494 0.0
N493 N 0.77413 0.69068 0.79602 0.0
C494 C 0.75666 0.68057 0.71386 0.0
C495 C 0.77631 0.67325 0.72907 0.0
C496 C 0.78133 0.68271 0.77877 0.0
C497 C 0.76396 0.6722 0.69499 0.0
H498 H 0.75643 0.69627 0.7794 0.0
H499 H 0.7911 0.68374 0.8036 0.0
O500 O 0.8015 0.72463 0.99226 0.0
O501 O 0.76887 0.70226 0.92974 0.0
O502 O 0.79622 0.72614 0.85789 0.0
O503 O 0.79734 0.69793 0.90762 0.0
H504 H 0.80995 0.73395 0.10172 0.0
H505 H 0.81651 0.74918 0.92166 0.0
H506 H 0.82872 0.76112 0.13181 0.0
H507 H 0.83502 0.77607 0.95479 0.0
H508 H 0.71698 0.68231 0.96094 0.0
H509 H 0.77053 0.71145 0.04037 0.0
H510 H 0.73931 0.68699 0.89724 0.0
H511 H 0.7477 0.70643 0.10138 0.0
H512 H 0.77536 0.75688 0.07391 0.0
H513 H 0.75504 0.7513 0.90094 0.0
H514 H 0.79347 0.69122 0.17682 0.0
H515 H 0.75241 0.65512 0.08987 0.0
H516 H 0.80315 0.71558 0.76214 0.0
H517 H 0.80403 0.75561 0.84059 0.0
H518 H 0.81488 0.73112 0.67183 0.0
H519 H 0.81594 0.77053 0.74912 0.0
H520 H 0.81868 0.69738 0.97628 0.0
H521 H 0.7739 0.66898 0.89451 0.0
H522 H 0.8165 0.6735 0.02101 0.0
H523 H 0.77257 0.64558 0.94019 0.0
H524 H 0.85905 0.73172 0.99547 0.0
H525 H 0.85837 0.73634 0.80662 0.0
H526 H 0.7472 0.68029 0.68894 0.0
H527 H 0.78212 0.6668 0.71774 0.0
Li528 Li 0.91543 0.72173 0.90826 0.0
Li529 Li 0.91929 0.70235 0.96966 0.0
Li530 Li 0.94113 0.72496 0.92632 0.0
Li531 Li 0.92401 0.70408 0.86165 0.0
C532 C 0.93465 0.73625 0.02341 0.0
N533 N 0.95336 0.76007 0.09975 0.0
C534 C 0.93716 0.73281 0.08055 0.0
C535 C 0.94146 0.75181 0.0054 0.0
C536 C 0.94671 0.74502 0.11842 0.0
C537 C 0.95094 0.76368 0.04454 0.0
C538 C 0.89354 0.68293 0.89475 0.0
C539 C 0.88665 0.65586 0.89257 0.0
N540 N 0.87226 0.65199 0.8719 0.0
C541 C 0.8787 0.67871 0.87342 0.0
C542 C 0.89758 0.67145 0.90438 0.0
C543 C 0.86809 0.66299 0.86218 0.0
C544 C 0.8912 0.72363 0.85374 0.0
N545 N 0.90141 0.72942 0.89927 0.0
C546 C 0.88738 0.74094 0.94113 0.0
C547 C 0.89998 0.73825 0.94189 0.0
C548 C 0.87605 0.73429 0.89652 0.0
C549 C 0.87839 0.72594 0.85143 0.0
H550 H 0.89248 0.71639 0.82113 0.0
H551 H 0.90813 0.74249 0.97814 0.0
C552 C 0.92348 0.68894 0.07013 0.0
N553 N 0.91238 0.68941 0.03659 0.0
C554 C 0.91935 0.68031 0.12204 0.0
C555 C 0.89238 0.67267 0.10347 0.0
C556 C 0.89706 0.68156 0.05204 0.0
C557 C 0.90361 0.67202 0.13944 0.0
H558 H 0.93561 0.69555 0.05704 0.0
H559 H 0.88852 0.68228 0.02464 0.0
C560 C 0.94177 0.73945 0.81722 0.0
N561 N 0.96142 0.76536 0.7511 0.0
C562 C 0.95086 0.73828 0.77264 0.0
C563 C 0.94237 0.75367 0.82718 0.0
C564 C 0.9608 0.75155 0.73997 0.0
C565 C 0.95247 0.76667 0.79355 0.0
C566 C 0.94899 0.70096 0.9123 0.0
C567 C 0.9598 0.7104 0.86982 0.0
C568 C 0.95079 0.6894 0.94041 0.0
C569 C 0.97226 0.70809 0.85601 0.0
C570 C 0.96339 0.68744 0.9253 0.0
N571 N 0.97378 0.69675 0.88378 0.0
C572 C 0.96652 0.73489 0.99943 0.0
C573 C 0.9734 0.75143 0.91621 0.0
C574 C 0.98162 0.7435 0.0219 0.0
N575 N 0.96261 0.73901 0.94783 0.0
C576 C 0.98881 0.76015 0.93638 0.0
C577 C 0.99298 0.7562 0.98998 0.0
H578 H 0.95787 0.72474 0.02298 0.0
H579 H 0.97021 0.75446 0.87504 0.0
C580 C 0.90942 0.69149 0.75534 0.0
N581 N 0.92035 0.69174 0.79217 0.0
C582 C 0.9047 0.68198 0.70553 0.0
C583 C 0.92293 0.67342 0.73115 0.0
C584 C 0.92715 0.68296 0.78109 0.0
C585 C 0.91141 0.6727 0.69304 0.0
H586 H 0.90411 0.69849 0.76544 0.0
H587 H 0.93559 0.68306 0.81141 0.0
O588 O 0.92563 0.72444 0.98528 0.0
O589 O 0.90417 0.69829 0.90482 0.0
O590 O 0.9319 0.72657 0.84934 0.0
O591 O 0.93679 0.7031 0.92701 0.0
H592 H 0.9319 0.72085 0.09536 0.0
H593 H 0.93958 0.75467 0.9615 0.0
H594 H 0.94885 0.74252 0.16262 0.0
H595 H 0.95639 0.77577 0.031 0.0
H596 H 0.88962 0.64685 0.89972 0.0
H597 H 0.87543 0.68749 0.86552 0.0
H598 H 0.90908 0.67454 0.92045 0.0
H599 H 0.85656 0.65954 0.84564 0.0
H600 H 0.88619 0.74761 0.97643 0.0
H601 H 0.86989 0.72034 0.81671 0.0
H602 H 0.92845 0.68039 0.14879 0.0
H603 H 0.8801 0.66631 0.11469 0.0
H604 H 0.95018 0.72724 0.76318 0.0
H605 H 0.93505 0.75464 0.86024 0.0
H606 H 0.96799 0.75085 0.70562 0.0
H607 H 0.95313 0.77779 0.80103 0.0
H608 H 0.95862 0.71945 0.84806 0.0
H609 H 0.94251 0.682 0.9734 0.0
H610 H 0.98073 0.71534 0.82327 0.0
H611 H 0.96492 0.67852 0.94661 0.0
H612 H 0.98452 0.73996 0.06283 0.0
H613 H 0.99741 0.7698 0.91036 0.0
H614 H 0.89588 0.68188 0.67703 0.0
H615 H 0.92828 0.66634 0.72338 0.0
Li616 Li 0.28024 0.19411 0.9083 0.0
Li617 Li 0.29964 0.2174 0.96953 0.0
Li618 Li 0.27702 0.21658 0.92617 0.0
Li619 Li 0.29785 0.22031 0.86147 0.0
C620 C 0.26573 0.19882 0.02335 0.0
N621 N 0.24187 0.19362 0.0996 0.0
C622 C 0.26914 0.2048 0.08045 0.0
C623 C 0.25018 0.18999 0.00535 0.0
C624 C 0.25691 0.2021 0.11827 0.0
C625 C 0.23828 0.18755 0.04444 0.0
C626 C 0.31897 0.21095 0.89415 0.0
C627 C 0.34608 0.23103 0.89158 0.0
N628 N 0.34983 0.22048 0.87014 0.0
C629 C 0.32307 0.20031 0.87202 0.0
C630 C 0.33054 0.22644 0.90398 0.0
C631 C 0.33874 0.20535 0.8602 0.0
C632 C 0.27793 0.16783 0.8533 0.0
N633 N 0.27255 0.1724 0.89968 0.0
C634 C 0.26156 0.14706 0.94296 0.0
C635 C 0.26418 0.16232 0.94345 0.0
C636 C 0.26781 0.14223 0.89739 0.0
C637 C 0.27566 0.15272 0.85117 0.0
H638 H 0.28483 0.17623 0.81979 0.0
H639 H 0.26027 0.16636 0.98034 0.0
C640 C 0.31301 0.235 0.06999 0.0
N641 N 0.31257 0.22345 0.03641 0.0
C642 C 0.32162 0.2395 0.12194 0.0
C643 C 0.32933 0.22022 0.10331 0.0
C644 C 0.32046 0.21602 0.05184 0.0
C645 C 0.32993 0.23206 0.13933 0.0
H646 H 0.30637 0.24049 0.05692 0.0
H647 H 0.31976 0.20676 0.02441 0.0
C648 C 0.26246 0.20269 0.81727 0.0
N649 N 0.23652 0.19645 0.75139 0.0
C650 C 0.26361 0.21295 0.77275 0.0
C651 C 0.24824 0.18906 0.82729 0.0
C652 C 0.25033 0.20964 0.74021 0.0
C653 C 0.23522 0.18617 0.79379 0.0
C654 C 0.30097 0.24844 0.91221 0.0
C655 C 0.29155 0.24983 0.86967 0.0
C656 C 0.31246 0.26179 0.94061 0.0
C657 C 0.29381 0.26458 0.85611 0.0
C658 C 0.31438 0.27635 0.92574 0.0
N659 N 0.30509 0.27743 0.88416 0.0
C660 C 0.26719 0.23208 0.99925 0.0
C661 C 0.25053 0.22235 0.91637 0.0
C662 C 0.25862 0.23859 0.02186 0.0
N663 N 0.263 0.22401 0.94774 0.0
C664 C 0.24185 0.22907 0.93669 0.0
C665 C 0.24588 0.23722 0.99019 0.0
H666 H 0.27738 0.23359 0.0226 0.0
H667 H 0.24744 0.2161 0.87528 0.0
C668 C 0.31037 0.21828 0.75502 0.0
N669 N 0.31017 0.22897 0.79199 0.0
C670 C 0.31989 0.22308 0.70523 0.0
C671 C 0.32854 0.24988 0.73115 0.0
C672 C 0.31899 0.24455 0.78106 0.0
C673 C 0.32921 0.23908 0.69291 0.0
H674 H 0.30334 0.20597 0.76502 0.0
H675 H 0.31892 0.25288 0.81149 0.0
O676 O 0.27756 0.20165 0.98526 0.0
O677 O 0.30366 0.2063 0.90481 0.0
O678 O 0.27535 0.20568 0.84926 0.0
O679 O 0.29888 0.23411 0.92667 0.0
H680 H 0.2811 0.21157 0.09525 0.0
H681 H 0.24734 0.18521 0.9615 0.0
H682 H 0.25938 0.20676 0.16243 0.0
H683 H 0.2262 0.18085 0.0309 0.0
H684 H 0.35516 0.24298 0.89888 0.0
H685 H 0.31422 0.18829 0.86393 0.0
H686 H 0.32754 0.23485 0.92065 0.0
H687 H 0.3421 0.19725 0.84304 0.0
H688 H 0.2553 0.13935 0.97918 0.0
H689 H 0.28093 0.14968 0.81565 0.0
H690 H 0.3215 0.24848 0.14873 0.0
H691 H 0.3357 0.21431 0.11454 0.0
H692 H 0.27466 0.22331 0.76322 0.0
H693 H 0.24728 0.18076 0.86028 0.0
H694 H 0.25102 0.21753 0.7059 0.0
H695 H 0.22411 0.17572 0.80132 0.0
H696 H 0.28255 0.23961 0.8477 0.0
H697 H 0.31986 0.26091 0.97363 0.0
H698 H 0.28658 0.26582 0.82333 0.0
H699 H 0.32325 0.28679 0.94727 0.0
H700 H 0.26223 0.24507 0.06269 0.0
H701 H 0.23216 0.22799 0.91087 0.0
H702 H 0.31996 0.21437 0.67663 0.0
H703 H 0.33566 0.26231 0.72349 0.0
Li704 Li 0.80782 0.08654 0.90847 0.0
Li705 Li 0.78461 0.08264 0.97002 0.0
Li706 Li 0.78541 0.06082 0.92674 0.0
Li707 Li 0.78155 0.07787 0.86204 0.0
C708 C 0.80325 0.06738 0.02372 0.0
N709 N 0.80845 0.04875 0.10011 0.0
C710 C 0.79737 0.06492 0.08096 0.0
C711 C 0.81198 0.06056 0.00563 0.0
C712 C 0.80007 0.05542 0.11885 0.0
C713 C 0.81442 0.05112 0.0448 0.0
C714 C 0.79077 0.10833 0.89537 0.0
C715 C 0.77046 0.11504 0.89345 0.0
N716 N 0.78095 0.12952 0.87332 0.0
C717 C 0.80135 0.12325 0.87462 0.0
C718 C 0.7752 0.10415 0.90484 0.0
C719 C 0.79615 0.13381 0.86377 0.0
C720 C 0.83373 0.111 0.85416 0.0
N721 N 0.8295 0.10064 0.89915 0.0
C722 C 0.85516 0.11468 0.94007 0.0
C723 C 0.8399 0.10201 0.94103 0.0
C724 C 0.85965 0.12616 0.8961 0.0
C725 C 0.8488 0.12389 0.85173 0.0
H726 H 0.82509 0.10975 0.82214 0.0
H727 H 0.83615 0.09374 0.97688 0.0
C728 C 0.76702 0.07837 0.07055 0.0
N729 N 0.77856 0.08951 0.03698 0.0
C730 C 0.76249 0.08245 0.12249 0.0
C731 C 0.7817 0.10946 0.10388 0.0
C732 C 0.78594 0.10482 0.05243 0.0
C733 C 0.76987 0.09819 0.13988 0.0
H734 H 0.76157 0.06625 0.05746 0.0
H735 H 0.79519 0.1134 0.02501 0.0
C736 C 0.79919 0.06016 0.81755 0.0
N737 N 0.80542 0.04049 0.75145 0.0
C738 C 0.78892 0.05106 0.77306 0.0
C739 C 0.81282 0.05957 0.82744 0.0
C740 C 0.79222 0.0411 0.7404 0.0
C741 C 0.81571 0.04946 0.79382 0.0
C742 C 0.75352 0.05287 0.91297 0.0
C743 C 0.75214 0.04205 0.87054 0.0
C744 C 0.74017 0.05106 0.94118 0.0
C745 C 0.73737 0.02956 0.85691 0.0
C746 C 0.7256 0.03844 0.92625 0.0
N747 N 0.72452 0.02803 0.88479 0.0
C748 C 0.77003 0.03548 1.00007 0.0
C749 C 0.77957 0.02854 0.91663 0.0
C750 C 0.76352 0.02038 0.02254 0.0
N751 N 0.77801 0.03935 0.94834 0.0
C752 C 0.77284 0.01312 0.93681 0.0
C753 C 0.76478 0.00899 0.99052 0.0
H754 H 0.76859 0.04415 0.02367 0.0
H755 H 0.78574 0.0317 0.87536 0.0
C756 C 0.78349 0.09246 0.75582 0.0
N757 N 0.77282 0.08148 0.7926 0.0
C758 C 0.77866 0.09714 0.706 0.0
C759 C 0.7519 0.07877 0.7315 0.0
C760 C 0.75725 0.0746 0.78145 0.0
C761 C 0.76267 0.09034 0.69344 0.0
H762 H 0.7958 0.09782 0.76599 0.0
H763 H 0.74893 0.06612 0.81172 0.0
O764 O 0.80041 0.07637 0.98557 0.0
O765 O 0.79558 0.09774 0.90506 0.0
O766 O 0.79621 0.07004 0.84966 0.0
O767 O 0.76786 0.0651 0.9275 0.0
H768 H 0.79068 0.0702 0.09583 0.0
H769 H 0.81667 0.0624 0.96165 0.0
H770 H 0.79549 0.05332 0.16313 0.0
H771 H 0.82104 0.04566 0.0312 0.0
H772 H 0.75845 0.11197 0.90048 0.0
H773 H 0.81343 0.12663 0.86687 0.0
H774 H 0.76684 0.0926 0.92049 0.0
H775 H 0.8042 0.1454 0.84768 0.0
H776 H 0.86314 0.1158 0.97478 0.0
H777 H 0.85153 0.13248 0.81752 0.0
H778 H 0.75352 0.07332 0.14925 0.0
H779 H 0.78757 0.12174 0.11511 0.0
H780 H 0.77854 0.05172 0.76366 0.0
H781 H 0.82113 0.06691 0.86041 0.0
H782 H 0.78432 0.0339 0.70611 0.0
H783 H 0.82617 0.0488 0.80124 0.0
H784 H 0.76236 0.04324 0.8487 0.0
H785 H 0.74105 0.05936 0.97412 0.0
H786 H 0.73614 0.02108 0.82422 0.0
H787 H 0.71516 0.0369 0.94764 0.0
H788 H 0.75711 0.0175 0.06354 0.0
H789 H 0.77383 0.0045 0.91072 0.0
H790 H 0.78736 0.10599 0.67755 0.0
H791 H 0.73946 0.07336 0.72366 0.0
Li792 Li 0.72531 0.94079 0.07479 0.0
Li793 Li 0.70443 0.92367 0.13943 0.0
Li794 Li 0.72207 0.91509 0.09282 0.0
Li795 Li 0.7027 0.91895 0.03142 0.0
C796 C 0.7398 0.94141 0.18387 0.0
N797 N 0.76572 0.96104 0.24998 0.0
C798 C 0.73865 0.95049 0.22849 0.0
C799 C 0.75402 0.942 0.17387 0.0
C800 C 0.75192 0.96043 0.26115 0.0
C801 C 0.76702 0.95208 0.20749 0.0
C802 C 0.70132 0.94866 0.08884 0.0
C803 C 0.68783 0.96308 0.07586 0.0
N804 N 0.69713 0.97345 0.11744 0.0
C805 C 0.71075 0.95944 0.13138 0.0
C806 C 0.68978 0.95048 0.06072 0.0
C807 C 0.70846 0.97191 0.14523 0.0
C808 C 0.73525 0.96618 0.00171 0.0
N809 N 0.73936 0.96227 0.05331 0.0
C810 C 0.76051 0.98846 0.06478 0.0
C811 C 0.75178 0.97305 0.08494 0.0
C812 C 0.75657 0.99263 0.01118 0.0
C813 C 0.74387 0.98128 0.97926 0.0
H814 H 0.72509 0.95753 0.97816 0.0
H815 H 0.75481 0.96986 0.12611 0.0
C816 C 0.69185 0.90908 0.24577 0.0
N817 N 0.69208 0.92 0.2089 0.0
C818 C 0.68234 0.90435 0.29557 0.0
C819 C 0.67375 0.92256 0.26988 0.0
C820 C 0.68329 0.92678 0.21994 0.0
C821 C 0.67304 0.91105 0.30803 0.0
H822 H 0.69887 0.90379 0.23569 0.0
H823 H 0.68338 0.93521 0.1896 0.0
C824 C 0.7366 0.93431 0.97767 0.0
N825 N 0.76042 0.95302 0.90132 0.0
C826 C 0.73316 0.93683 0.92054 0.0
C827 C 0.75216 0.94111 0.99567 0.0
C828 C 0.74537 0.94637 0.88266 0.0
C829 C 0.76403 0.95059 0.95652 0.0
C830 C 0.68329 0.89319 0.10637 0.0
C831 C 0.67908 0.87837 0.12781 0.0
C832 C 0.67179 0.89722 0.0967 0.0
C833 C 0.66336 0.86776 0.13912 0.0
C834 C 0.65621 0.88629 0.10857 0.0
N835 N 0.65235 0.87191 0.12936 0.0
C836 C 0.72401 0.89088 0.14738 0.0
C837 C 0.73855 0.89961 0.05904 0.0
C838 C 0.72632 0.87806 0.14967 0.0
N839 N 0.72977 0.90107 0.10177 0.0
C840 C 0.74124 0.88701 0.05977 0.0
C841 C 0.73464 0.8757 0.10447 0.0
H842 H 0.71681 0.89218 0.18008 0.0
H843 H 0.74277 0.90775 0.02273 0.0
C844 C 0.68928 0.92315 0.93095 0.0
N845 N 0.68977 0.91205 0.96448 0.0
C846 C 0.68065 0.91902 0.87904 0.0
C847 C 0.67303 0.89205 0.89759 0.0
C848 C 0.68191 0.89673 0.94903 0.0
C849 C 0.67238 0.90328 0.86163 0.0
H850 H 0.69589 0.93527 0.94405 0.0
H851 H 0.68264 0.88819 0.97642 0.0
O852 O 0.72692 0.93155 0.15176 0.0
O853 O 0.70345 0.93645 0.07409 0.0
O854 O 0.72479 0.9253 0.01581 0.0
O855 O 0.69864 0.90383 0.09624 0.0
H856 H 0.72761 0.94982 0.23798 0.0
H857 H 0.75498 0.93468 0.14079 0.0
H858 H 0.75123 0.96761 0.29552 0.0
H859 H 0.77814 0.95274 0.19998 0.0
H860 H 0.67892 0.96463 0.05455 0.0
H861 H 0.71979 0.95825 0.15314 0.0
H862 H 0.68238 0.94221 0.02769 0.0
H863 H 0.7157 0.98036 0.17801 0.0
H864 H 0.77017 0.99705 0.0908 0.0
H865 H 0.74033 0.98419 0.93833 0.0
H866 H 0.68225 0.89555 0.3241 0.0
H867 H 0.66665 0.92789 0.27762 0.0
H868 H 0.7212 0.93157 0.90574 0.0
H869 H 0.75502 0.93923 0.03957 0.0
H870 H 0.74287 0.94852 0.83847 0.0
H871 H 0.77612 0.95603 0.97006 0.0
H872 H 0.68786 0.87511 0.13576 0.0
H873 H 0.67488 0.90871 0.08054 0.0
H874 H 0.65992 0.85624 0.15574 0.0
H875 H 0.64719 0.88925 0.10139 0.0
H876 H 0.72076 0.86959 0.18447 0.0
H877 H 0.74787 0.8858 0.02438 0.0
H878 H 0.68074 0.92811 0.8523 0.0
H879 H 0.66668 0.87977 0.88636 0.0
Li880 Li 0.08299 0.78427 0.03105 0.0
Li881 Li 0.08691 0.80754 0.09237 0.0
Li882 Li 0.07827 0.7813 0.13911 0.0
Li883 Li 0.06118 0.78509 0.07436 0.0
C884 C 0.10873 0.79057 0.10597 0.0
N885 N 0.12997 0.78086 0.12882 0.0
C886 C 0.12359 0.80117 0.12722 0.0
C887 C 0.10465 0.77502 0.09642 0.0
C888 C 0.13417 0.79603 0.13847 0.0
C889 C 0.11556 0.77034 0.10822 0.0
C890 C 0.0677 0.80288 0.97728 0.0
C891 C 0.05147 0.81409 0.95627 0.0
N892 N 0.04904 0.80809 0.90101 0.0
C893 C 0.06519 0.79696 0.92009 0.0
C894 C 0.06092 0.81165 0.99538 0.0
C895 C 0.05567 0.79967 0.88226 0.0
C896 C 0.0787 0.76666 0.93059 0.0
N897 N 0.08985 0.77819 0.96414 0.0
C898 C 0.10979 0.7813 0.89725 0.0
C899 C 0.10516 0.78555 0.9487 0.0
C900 C 0.09851 0.76947 0.86127 0.0
C901 C 0.08277 0.76211 0.87867 0.0
H902 H 0.06658 0.76122 0.94367 0.0
H903 H 0.11375 0.7948 0.9761 0.0
C904 C 0.11115 0.83366 0.14692 0.0
N905 N 0.10097 0.82925 0.10129 0.0
C906 C 0.12399 0.84877 0.14924 0.0
C907 C 0.11509 0.85478 0.05932 0.0
C908 C 0.10246 0.8395 0.05856 0.0
C909 C 0.12639 0.85946 0.10404 0.0
H910 H 0.10982 0.82514 0.17961 0.0
H911 H 0.09433 0.8356 0.02223 0.0
C912 C 0.05325 0.7532 0.08817 0.0
N913 N 0.0284 0.72418 0.11605 0.0
C914 C 0.04241 0.75179 0.13056 0.0
C915 C 0.05146 0.73987 0.05984 0.0
C916 C 0.02992 0.73702 0.14403 0.0
C917 C 0.03882 0.72529 0.07463 0.0
C918 C 0.06052 0.79889 0.18348 0.0
C919 C 0.05145 0.78859 0.22798 0.0
C920 C 0.05987 0.81249 0.17365 0.0
C921 C 0.04146 0.79184 0.26069 0.0
C922 C 0.04974 0.81533 0.20733 0.0
N923 N 0.0408 0.80502 0.2497 0.0
C924 C 0.09287 0.78325 0.24541 0.0
C925 C 0.07501 0.75701 0.21968 0.0
C926 C 0.09754 0.7784 0.29521 0.0
N927 N 0.08189 0.77259 0.20859 0.0
C928 C 0.07917 0.75164 0.26962 0.0
C929 C 0.09073 0.76241 0.30772 0.0
H930 H 0.09824 0.79556 0.2353 0.0
H931 H 0.06653 0.7487 0.18938 0.0
C932 C 0.03582 0.76965 0.00115 0.0
N933 N 0.0397 0.77765 0.05281 0.0
C934 C 0.02072 0.76313 0.97868 0.0
C935 C 0.01347 0.77249 0.0643 0.0
C936 C 0.02889 0.77923 0.08447 0.0
C937 C 0.00933 0.76441 0.01065 0.0
H938 H 0.04449 0.76819 0.97757 0.0
H939 H 0.03206 0.78542 0.1257 0.0
O940 O 0.09812 0.79531 0.09589 0.0
O941 O 0.07669 0.80004 0.01537 0.0
O942 O 0.06549 0.76755 0.0738 0.0
O943 O 0.07043 0.79596 0.15132 0.0
H944 H 0.12689 0.81323 0.13507 0.0
H945 H 0.09315 0.76664 0.0804 0.0
H946 H 0.14571 0.8041 0.15494 0.0
H947 H 0.11256 0.75835 0.10112 0.0
H948 H 0.04604 0.82074 0.96988 0.0
H949 H 0.07043 0.79025 0.90521 0.0
H950 H 0.06281 0.81637 0.03932 0.0
H951 H 0.05353 0.79506 0.83802 0.0
H952 H 0.12207 0.78715 0.88603 0.0
H953 H 0.07364 0.75314 0.85191 0.0
H954 H 0.13246 0.85166 0.18405 0.0
H955 H 0.11633 0.86264 0.02392 0.0
H956 H 0.04358 0.762 0.15249 0.0
H957 H 0.05977 0.74078 0.02695 0.0
H958 H 0.02142 0.73576 0.17669 0.0
H959 H 0.0373 0.71487 0.05315 0.0
H960 H 0.05216 0.77824 0.23733 0.0
H961 H 0.06718 0.82082 0.14067 0.0
H962 H 0.03428 0.78393 0.29498 0.0
H963 H 0.04903 0.82576 0.19996 0.0
H964 H 0.10639 0.78709 0.3237 0.0
H965 H 0.07376 0.73921 0.2774 0.0
H966 H 0.01784 0.7567 0.93772 0.0
H967 H 0.00486 0.7735 0.09036 0.0
Li968 Li 0.21726 0.27669 0.07499 0.0
Li969 Li 0.22099 0.29754 0.13958 0.0
Li970 Li 0.1948 0.2799 0.09295 0.0
Li971 Li 0.21805 0.2993 0.03159 0.0
C972 C 0.2033 0.26212 0.1839 0.0
N973 N 0.19684 0.2361 0.2497 0.0
C974 C 0.21349 0.26318 0.22852 0.0
C975 C 0.18962 0.24794 0.17374 0.0
C976 C 0.21008 0.24986 0.26102 0.0
C977 C 0.18662 0.23489 0.20721 0.0
C978 C 0.24911 0.30065 0.08912 0.0
C979 C 0.27703 0.31406 0.07608 0.0
N980 N 0.27806 0.30476 0.1178 0.0
C981 C 0.25043 0.29123 0.13181 0.0
C982 C 0.26249 0.31214 0.06089 0.0
C983 C 0.26517 0.29348 0.14569 0.0
C984 C 0.23272 0.26681 0.00191 0.0
N985 N 0.22465 0.26264 0.05344 0.0
C986 C 0.2296 0.24142 0.06448 0.0
C987 C 0.22294 0.25015 0.08481 0.0
C988 C 0.23775 0.24542 0.01097 0.0
C989 C 0.23916 0.25818 0.9793 0.0
H990 H 0.23426 0.277 0.97855 0.0
H991 H 0.21668 0.24708 0.1259 0.0
C992 C 0.21891 0.31001 0.24601 0.0
N993 N 0.22963 0.30987 0.20903 0.0
C994 C 0.22368 0.31953 0.29579 0.0
C995 C 0.25049 0.3283 0.26986 0.0
C996 C 0.2452 0.31876 0.21994 0.0
C997 C 0.23966 0.32892 0.30811 0.0
H998 H 0.20661 0.30293 0.23602 0.0
H999 H 0.25356 0.31873 0.1895 0.0
C1000 C 0.19945 0.26538 0.97784 0.0
N1001 N 0.19417 0.24151 0.90148 0.0
C1002 C 0.20545 0.26879 0.92077 0.0
C1003 C 0.19057 0.24983 0.99577 0.0
C1004 C 0.2027 0.25656 0.88289 0.0
C1005 C 0.18809 0.23793 0.95662 0.0
C1006 C 0.21152 0.31859 0.10713 0.0
C1007 C 0.20084 0.32258 0.12959 0.0
C1008 C 0.22698 0.33024 0.09716 0.0
C1009 C 0.2058 0.33823 0.14159 0.0
C1010 C 0.23148 0.34575 0.10975 0.0
N1011 N 0.22089 0.34939 0.13151 0.0
C1012 C 0.1685 0.27738 0.14854 0.0
C1013 C 0.16311 0.26413 0.05729 0.0
C1014 C 0.15342 0.27519 0.15067 0.0
N1015 N 0.17312 0.27221 0.10163 0.0
C1016 C 0.14789 0.26161 0.05773 0.0
C1017 C 0.14303 0.26766 0.10387 0.0
H1018 H 0.17685 0.28408 0.18249 0.0
H1019 H 0.1672 0.2604 0.02001 0.0
C1020 C 0.23563 0.31269 0.93111 0.0
N1021 N 0.22405 0.31222 0.96469 0.0
C1022 C 0.24009 0.3213 0.87914 0.0
C1023 C 0.22074 0.32891 0.89777 0.0
C1024 C 0.21657 0.32005 0.94926 0.0
C1025 C 0.2326 0.32955 0.86175 0.0
H1026 H 0.24115 0.3061 0.9442 0.0
H1027 H 0.2073 0.31931 0.9767 0.0
O1028 O 0.20639 0.27504 0.15195 0.0
O1029 O 0.23479 0.29855 0.07434 0.0
O1030 O 0.20232 0.27721 0.01597 0.0
O1031 O 0.20695 0.30331 0.09628 0.0
H1032 H 0.2239 0.27418 0.23815 0.0
H1033 H 0.18137 0.24706 0.14069 0.0
H1034 H 0.21792 0.25047 0.2954 0.0
H1035 H 0.17613 0.22381 0.19958 0.0
H1036 H 0.28749 0.32293 0.05469 0.0
H1037 H 0.24018 0.28223 0.15363 0.0
H1038 H 0.26164 0.31953 0.02775 0.0
H1039 H 0.26637 0.28625 0.17857 0.0
H1040 H 0.22848 0.23171 0.0903 0.0
H1041 H 0.24565 0.26176 0.93845 0.0
H1042 H 0.21493 0.31955 0.3244 0.0
H1043 H 0.26292 0.33547 0.27751 0.0
H1044 H 0.21226 0.28075 0.90601 0.0
H1045 H 0.18577 0.24699 0.0396 0.0
H1046 H 0.20737 0.25903 0.83874 0.0
H1047 H 0.18134 0.22585 0.97011 0.0
H1048 H 0.18885 0.31368 0.1378 0.0
H1049 H 0.23542 0.32731 0.08024 0.0
H1050 H 0.19766 0.3415 0.159 0.0
H1051 H 0.2434 0.35488 0.10234 0.0
H1052 H 0.15034 0.2803 0.18665 0.0
H1053 H 0.14025 0.2556 0.02105 0.0
H1054 H 0.24909 0.32122 0.85235 0.0
H1055 H 0.21479 0.33524 0.88653 0.0
Li1056 Li 0.74732 0.63197 0.46891 0.0
Li1057 Li 0.75508 0.61398 0.41938 0.0
Li1058 Li 0.75127 0.63212 0.36289 0.0
Li1059 Li 0.72873 0.61017 0.39979 0.0
C1060 C 0.77911 0.64992 0.40304 0.0
N1061 N 0.80349 0.67617 0.35208 0.0
C1062 C 0.78972 0.64854 0.36653 0.0
C1063 C 0.78092 0.66466 0.41372 0.0
C1064 C 0.80195 0.66195 0.34113 0.0
C1065 C 0.79332 0.67778 0.38757 0.0
C1066 C 0.73567 0.60024 0.52653 0.0
C1067 C 0.72186 0.57629 0.58167 0.0
N1068 N 0.73169 0.58323 0.62778 0.0
C1069 C 0.74551 0.60719 0.57468 0.0
C1070 C 0.72363 0.58471 0.5302 0.0
C1071 C 0.74336 0.59837 0.62538 0.0
C1072 C 0.73965 0.64525 0.56955 0.0
N1073 N 0.75089 0.64422 0.53876 0.0
C1074 C 0.7705 0.66156 0.60593 0.0
C1075 C 0.76605 0.65209 0.55626 0.0
C1076 C 0.75922 0.66272 0.63973 0.0
C1077 C 0.74357 0.65446 0.6206 0.0
H1078 H 0.72765 0.63884 0.55488 0.0
H1079 H 0.77477 0.65097 0.53161 0.0
C1080 C 0.77585 0.6049 0.37721 0.0
N1081 N 0.76877 0.60558 0.42742 0.0
C1082 C 0.78848 0.60231 0.37951 0.0
C1083 C 0.7858 0.60023 0.48505 0.0
C1084 C 0.77326 0.60297 0.4807 0.0
C1085 C 0.79396 0.60041 0.43415 0.0
H1086 H 0.77238 0.60743 0.33547 0.0
H1087 H 0.76773 0.60385 0.52014 0.0
C1088 C 0.72484 0.6361 0.37113 0.0
N1089 N 0.70642 0.64351 0.30258 0.0
C1090 C 0.72124 0.63062 0.31342 0.0
C1091 C 0.71915 0.6454 0.39392 0.0
C1092 C 0.71188 0.63447 0.27949 0.0
C1093 C 0.70983 0.64901 0.35857 0.0
C1094 C 0.73938 0.59516 0.32541 0.0
C1095 C 0.73933 0.59168 0.26584 0.0
C1096 C 0.73466 0.58327 0.36709 0.0
C1097 C 0.73445 0.57633 0.249 0.0
C1098 C 0.72989 0.56808 0.34853 0.0
N1099 N 0.72987 0.56494 0.29035 0.0
C1100 C 0.76201 0.63949 0.24774 0.0
C1101 C 0.75961 0.65947 0.29597 0.0
C1102 C 0.76653 0.6481 0.19584 0.0
N1103 N 0.75855 0.64522 0.29611 0.0
C1104 C 0.76443 0.66863 0.24534 0.0
C1105 C 0.76776 0.66282 0.19454 0.0
H1106 H 0.76115 0.62817 0.24944 0.0
H1107 H 0.75661 0.66363 0.33502 0.0
C1108 C 0.69559 0.59293 0.41964 0.0
N1109 N 0.70714 0.59622 0.38017 0.0
C1110 C 0.6799 0.58441 0.40237 0.0
C1111 C 0.68827 0.58249 0.30469 0.0
C1112 C 0.70372 0.59118 0.32359 0.0
C1113 C 0.67603 0.57915 0.34387 0.0
H1114 H 0.69857 0.59738 0.46401 0.0
H1115 H 0.71297 0.59437 0.29213 0.0
O1116 O 0.76682 0.63689 0.42713 0.0
O1117 O 0.7374 0.60871 0.47677 0.0
O1118 O 0.7341 0.63262 0.40508 0.0
O1119 O 0.74418 0.61019 0.34233 0.0
H1120 H 0.78845 0.63724 0.35745 0.0
H1121 H 0.77267 0.66593 0.441 0.0
H1122 H 0.81021 0.66104 0.31259 0.0
H1123 H 0.7948 0.68924 0.39517 0.0
H1124 H 0.71265 0.56424 0.58502 0.0
H1125 H 0.75486 0.61919 0.57266 0.0
H1126 H 0.71572 0.57924 0.49371 0.0
H1127 H 0.75098 0.60357 0.6628 0.0
H1128 H 0.78275 0.66792 0.61747 0.0
H1129 H 0.73441 0.65483 0.64529 0.0
H1130 H 0.7945 0.60286 0.33908 0.0
H1131 H 0.78947 0.59865 0.52809 0.0
H1132 H 0.72575 0.62361 0.29485 0.0
H1133 H 0.72191 0.64979 0.43846 0.0
H1134 H 0.70901 0.63032 0.23475 0.0
H1135 H 0.70533 0.6562 0.37562 0.0
H1136 H 0.7429 0.6007 0.23286 0.0
H1137 H 0.73481 0.58573 0.41326 0.0
H1138 H 0.7343 0.57347 0.20305 0.0
H1139 H 0.72622 0.55878 0.38041 0.0
H1140 H 0.76913 0.64338 0.15727 0.0
H1141 H 0.76524 0.67996 0.24538 0.0
H1142 H 0.67096 0.58245 0.43412 0.0
H1143 H 0.68601 0.57861 0.25946 0.0
Li1144 Li 0.38737 0.14117 0.41934 0.0
Li1145 Li 0.3697 0.11534 0.46865 0.0
Li1146 Li 0.39148 0.11889 0.39961 0.0
Li1147 Li 0.36925 0.11904 0.36287 0.0
C1148 C 0.40139 0.13594 0.52604 0.0
N1149 N 0.41838 0.14945 0.62688 0.0
C1150 C 0.3943 0.13865 0.57421 0.0
C1151 C 0.41704 0.13986 0.52948 0.0
C1152 C 0.40311 0.14556 0.6247 0.0
C1153 C 0.42546 0.14675 0.58074 0.0
C1154 C 0.35118 0.12857 0.40411 0.0
C1155 C 0.32343 0.11374 0.38648 0.0
N1156 N 0.32442 0.12581 0.35443 0.0
C1157 C 0.35192 0.14084 0.37114 0.0
C1158 C 0.33683 0.11491 0.41198 0.0
C1159 C 0.33826 0.13921 0.34634 0.0
C1160 C 0.3957 0.17073 0.37667 0.0
N1161 N 0.39566 0.16326 0.42685 0.0
C1162 C 0.40176 0.18596 0.48371 0.0
C1163 C 0.39894 0.17065 0.47968 0.0
C1164 C 0.40101 0.19368 0.43295 0.0
C1165 C 0.39838 0.18598 0.37866 0.0
H1166 H 0.39265 0.16449 0.33538 0.0
H1167 H 0.39861 0.16448 0.51915 0.0
C1168 C 0.35661 0.09438 0.56955 0.0
N1169 N 0.35746 0.10655 0.53851 0.0
C1170 C 0.3474 0.08904 0.62058 0.0
C1171 C 0.33994 0.10858 0.60543 0.0
C1172 C 0.34938 0.11364 0.55569 0.0
C1173 C 0.33897 0.09627 0.63947 0.0
H1174 H 0.36317 0.08893 0.5551 0.0
H1175 H 0.35032 0.12337 0.53082 0.0
C1176 C 0.40578 0.14448 0.32338 0.0
N1177 N 0.43547 0.16557 0.28439 0.0
C1178 C 0.40851 0.14815 0.26367 0.0
C1179 C 0.41812 0.15159 0.36326 0.0
C1180 C 0.42361 0.15882 0.24481 0.0
C1181 C 0.43305 0.16221 0.34271 0.0
C1182 C 0.36714 0.08925 0.3703 0.0
C1183 C 0.37236 0.09178 0.31212 0.0
C1184 C 0.35997 0.07417 0.3936 0.0
C1185 C 0.37035 0.07914 0.27818 0.0
C1186 C 0.35816 0.06183 0.35821 0.0
N1187 N 0.36335 0.06455 0.30173 0.0
C1188 C 0.40833 0.1027 0.41871 0.0
C1189 C 0.41114 0.11353 0.32377 0.0
C1190 C 0.41673 0.09541 0.40146 0.0
N1191 N 0.40562 0.11149 0.37978 0.0
C1192 C 0.41974 0.10667 0.30495 0.0
C1193 C 0.42248 0.09723 0.34355 0.0
H1194 H 0.40346 0.10087 0.46249 0.0
H1195 H 0.40834 0.11995 0.29253 0.0
C1196 C 0.36078 0.1237 0.25127 0.0
N1197 N 0.35607 0.11332 0.29639 0.0
C1198 C 0.35218 0.11983 0.19933 0.0
C1199 C 0.33382 0.09485 0.24213 0.0
C1200 C 0.34284 0.09915 0.29312 0.0
C1201 C 0.33863 0.10523 0.19462 0.0
H1202 H 0.3713 0.13491 0.25552 0.0
H1203 H 0.33942 0.09116 0.32981 0.0
O1204 O 0.39292 0.12895 0.47651 0.0
O1205 O 0.36448 0.12976 0.42741 0.0
O1206 O 0.39101 0.13408 0.34227 0.0
O1207 O 0.36912 0.10144 0.40472 0.0
H1208 H 0.3822 0.13567 0.57236 0.0
H1209 H 0.42262 0.13755 0.49301 0.0
H1210 H 0.39782 0.14784 0.66214 0.0
H1211 H 0.4376 0.14991 0.58392 0.0
H1212 H 0.31227 0.1032 0.3919 0.0
H1213 H 0.36292 0.15146 0.36441 0.0
H1214 H 0.33608 0.10522 0.43669 0.0
H1215 H 0.33867 0.14859 0.32053 0.0
H1216 H 0.40389 0.19147 0.52645 0.0
H1217 H 0.39737 0.19125 0.33844 0.0
H1218 H 0.34714 0.07959 0.64549 0.0
H1219 H 0.33345 0.11434 0.61691 0.0
H1220 H 0.39908 0.14275 0.23217 0.0
H1221 H 0.41621 0.14904 0.40955 0.0
H1222 H 0.4259 0.16173 0.19871 0.0
H1223 H 0.44271 0.16779 0.37314 0.0
H1224 H 0.37794 0.10338 0.29341 0.0
H1225 H 0.35589 0.07204 0.43862 0.0
H1226 H 0.37436 0.08094 0.23313 0.0
H1227 H 0.35265 0.05009 0.37567 0.0
H1228 H 0.41819 0.08799 0.4327 0.0
H1229 H 0.424 0.1086 0.26018 0.0
H1230 H 0.35608 0.12805 0.16318 0.0
H1231 H 0.32336 0.08349 0.23938 0.0
Li1232 Li 0.88605 0.25465 0.46855 0.0
Li1233 Li 0.86022 0.24649 0.41923 0.0
Li1234 Li 0.88238 0.25075 0.36268 0.0
Li1235 Li 0.88246 0.27298 0.39996 0.0
C1236 C 0.87272 0.22295 0.40246 0.0
N1237 N 0.87511 0.1989 0.35121 0.0
C1238 C 0.86069 0.21204 0.36687 0.0
C1239 C 0.88597 0.22161 0.41206 0.0
C1240 C 0.86212 0.19997 0.34131 0.0
C1241 C 0.88695 0.20936 0.38578 0.0
C1242 C 0.86559 0.26579 0.5265 0.0
C1243 C 0.85509 0.27927 0.58163 0.0
N1244 N 0.85239 0.2695 0.62778 0.0
C1245 C 0.86288 0.256 0.5747 0.0
C1246 C 0.86183 0.27764 0.53015 0.0
C1247 C 0.85613 0.25802 0.62541 0.0
C1248 C 0.90676 0.26253 0.57022 0.0
N1249 N 0.89481 0.25117 0.53848 0.0
C1250 C 0.89299 0.23157 0.60468 0.0
C1251 C 0.8879 0.23597 0.55508 0.0
C1252 C 0.90509 0.24295 0.63946 0.0
C1253 C 0.91208 0.25866 0.62129 0.0
H1254 H 0.91204 0.27458 0.55632 0.0
H1255 H 0.87829 0.22715 0.52979 0.0
C1256 C 0.83049 0.22539 0.37706 0.0
N1257 N 0.83816 0.23263 0.42721 0.0
C1258 C 0.81526 0.21279 0.37936 0.0
C1259 C 0.81567 0.2158 0.48472 0.0
C1260 C 0.83097 0.22832 0.48037 0.0
C1261 C 0.80777 0.20751 0.43393 0.0
H1262 H 0.83657 0.22874 0.33544 0.0
H1263 H 0.83729 0.234 0.51977 0.0
C1264 C 0.9121 0.2781 0.3698 0.0
N1265 N 0.93676 0.29836 0.29959 0.0
C1266 C 0.9094 0.28102 0.31215 0.0
C1267 C 0.92733 0.28545 0.39172 0.0
C1268 C 0.92202 0.29131 0.27737 0.0
C1269 C 0.93964 0.29566 0.35553 0.0
C1270 C 0.85675 0.26185 0.32495 0.0
C1271 C 0.85311 0.26147 0.26538 0.0
C1272 C 0.84952 0.26661 0.36621 0.0
C1273 C 0.84239 0.26598 0.24811 0.0
C1274 C 0.83884 0.27101 0.34723 0.0
N1275 N 0.83553 0.27062 0.28906 0.0
C1276 C 0.87896 0.23953 0.24805 0.0
C1277 C 0.90202 0.24339 0.29539 0.0
C1278 C 0.88324 0.23516 0.19621 0.0
N1279 N 0.8884 0.24365 0.29593 0.0
C1280 C 0.9066 0.23879 0.24481 0.0
C1281 C 0.89721 0.23479 0.1944 0.0
H1282 H 0.86817 0.23976 0.25008 0.0
H1283 H 0.90934 0.24688 0.33408 0.0
C1284 C 0.8989 0.30601 0.41955 0.0
N1285 N 0.88986 0.29456 0.38081 0.0
C1286 C 0.90624 0.32172 0.40248 0.0
C1287 C 0.89449 0.3136 0.30662 0.0
C1288 C 0.88761 0.29812 0.32521 0.0
C1289 C 0.90421 0.32572 0.34496 0.0
H1290 H 0.9009 0.30291 0.46296 0.0
H1291 H 0.88102 0.28896 0.29401 0.0
O1292 O 0.87171 0.23507 0.42671 0.0
O1293 O 0.8724 0.26418 0.47671 0.0
O1294 O 0.89994 0.26812 0.40488 0.0
O1295 O 0.86721 0.2574 0.34229 0.0
H1296 H 0.85041 0.21294 0.35867 0.0
H1297 H 0.89552 0.23009 0.43866 0.0
H1298 H 0.85292 0.19149 0.3135 0.0
H1299 H 0.89717 0.20824 0.39256 0.0
H1300 H 0.85205 0.28834 0.58496 0.0
H1301 H 0.86575 0.2468 0.57269 0.0
H1302 H 0.86413 0.28551 0.49364 0.0
H1303 H 0.85385 0.25044 0.66286 0.0
H1304 H 0.88742 0.21928 0.6154 0.0
H1305 H 0.92133 0.26789 0.64674 0.0
H1306 H 0.80985 0.20665 0.33905 0.0
H1307 H 0.81034 0.21228 0.52769 0.0
H1308 H 0.89769 0.27539 0.29441 0.0
H1309 H 0.92959 0.28329 0.43628 0.0
H1310 H 0.9201 0.2937 0.2327 0.0
H1311 H 0.9515 0.30144 0.37191 0.0
H1312 H 0.8586 0.25785 0.23274 0.0
H1313 H 0.852 0.26679 0.41238 0.0
H1314 H 0.83952 0.2658 0.20215 0.0
H1315 H 0.83316 0.27471 0.37878 0.0
H1316 H 0.87569 0.232 0.15811 0.0
H1317 H 0.91749 0.23868 0.24461 0.0
H1318 H 0.91387 0.33055 0.43348 0.0
H1319 H 0.89238 0.31598 0.26217 0.0
Li1320 Li 0.96566 0.41744 0.30496 0.0
Li1321 Li 0.94349 0.39497 0.26865 0.0
Li1322 Li 0.96572 0.41366 0.19924 0.0
Li1323 Li 0.94775 0.42153 0.24884 0.0
C1324 C 0.97141 0.39259 0.29637 0.0
N1325 N 0.98309 0.37767 0.36455 0.0
C1326 C 0.96557 0.3875 0.35291 0.0
C1327 C 0.98322 0.39016 0.27453 0.0
C1328 C 0.97162 0.37998 0.38671 0.0
C1329 C 0.98896 0.38256 0.30967 0.0
C1330 C 0.92871 0.40587 0.34231 0.0
C1331 C 0.90173 0.39664 0.31809 0.0
N1332 N 0.89843 0.39652 0.37615 0.0
C1333 C 0.92505 0.40572 0.40175 0.0
C1334 C 0.91696 0.40134 0.30015 0.0
C1335 C 0.90968 0.40092 0.41797 0.0
C1336 C 0.97286 0.42737 0.42104 0.0
N1337 N 0.97882 0.42452 0.37186 0.0
C1338 C 0.00252 0.43101 0.42182 0.0
C1339 C 0.99334 0.42621 0.37122 0.0
C1340 C 0.99648 0.43371 0.4734 0.0
C1341 C 0.98149 0.43185 0.4729 0.0
H1342 H 0.96137 0.42608 0.42 0.0
H1343 H 0.99773 0.42375 0.33155 0.0
C1344 C 0.92639 0.36189 0.24877 0.0
N1345 N 0.9295 0.37342 0.28813 0.0
C1346 C 0.91793 0.3462 0.26604 0.0
C1347 C 0.91571 0.35453 0.36346 0.0
C1348 C 0.92435 0.36998 0.34458 0.0
C1349 C 0.91256 0.34231 0.32441 0.0
H1350 H 0.93094 0.3649 0.20454 0.0
H1351 H 0.92745 0.37923 0.37598 0.0
C1352 C 0.98367 0.44541 0.26552 0.0
N1353 N 0.00984 0.46982 0.31669 0.0
C1354 C 0.98218 0.45575 0.30316 0.0
C1355 C 0.99847 0.4475 0.25381 0.0
C1356 C 0.99555 0.46801 0.32865 0.0
C1357 C 0.01156 0.45992 0.28009 0.0
C1358 C 0.9339 0.40205 0.14159 0.0
C1359 C 0.94083 0.4118 0.09319 0.0
C1360 C 0.91837 0.39001 0.13816 0.0
C1361 C 0.93198 0.40956 0.0425 0.0
C1362 C 0.90991 0.38815 0.08669 0.0
N1363 N 0.91684 0.39789 0.04035 0.0
C1364 C 0.97908 0.40591 0.0989 0.0
C1365 C 0.98572 0.43227 0.11156 0.0
C1366 C 0.98828 0.40982 0.04782 0.0
N1367 N 0.97796 0.41715 0.1294 0.0
C1368 C 0.99518 0.43671 0.06186 0.0
C1369 C 0.99643 0.42545 0.02835 0.0
H1370 H 0.97275 0.39393 0.11383 0.0
H1371 H 0.98453 0.44098 0.136 0.0
C1372 C 0.93868 0.44235 0.29063 0.0
N1373 N 0.93946 0.4353 0.2405 0.0
C1374 C 0.93605 0.45495 0.28815 0.0
C1375 C 0.93416 0.45232 0.18258 0.0
C1376 C 0.93694 0.43981 0.18711 0.0
C1377 C 0.93421 0.46043 0.23343 0.0
H1378 H 0.94112 0.43885 0.33248 0.0
H1379 H 0.93789 0.4343 0.14774 0.0
O1380 O 0.96569 0.40002 0.26256 0.0
O1381 O 0.94377 0.41056 0.326 0.0
O1382 O 0.97068 0.43313 0.24115 0.0
O1383 O 0.94241 0.40387 0.19133 0.0
H1384 H 0.95665 0.38958 0.37085 0.0
H1385 H 0.98789 0.39409 0.23086 0.0
H1386 H 0.96725 0.37602 0.43062 0.0
H1387 H 0.99808 0.38057 0.29333 0.0
H1388 H 0.89255 0.39313 0.28582 0.0
H1389 H 0.93396 0.40913 0.43514 0.0
H1390 H 0.91954 0.40158 0.25408 0.0
H1391 H 0.90669 0.40069 0.46382 0.0
H1392 H 0.01406 0.43231 0.42109 0.0
H1393 H 0.97659 0.43398 0.51202 0.0
H1394 H 0.91614 0.33729 0.23439 0.0
H1395 H 0.91174 0.35224 0.40858 0.0
H1396 H 0.97083 0.45426 0.31304 0.0
H1397 H 0.99983 0.43945 0.22565 0.0
H1398 H 0.99456 0.47607 0.35805 0.0
H1399 H 0.02307 0.46162 0.2717 0.0
H1400 H 0.95284 0.42114 0.09501 0.0
H1401 H 0.91291 0.38216 0.17484 0.0
H1402 H 0.93716 0.41711 0.00489 0.0
H1403 H 0.89787 0.37893 0.08353 0.0
H1404 H 0.98873 0.40067 0.02337 0.0
H1405 H 0.00146 0.44895 0.05009 0.0
H1406 H 0.93651 0.46094 0.32856 0.0
H1407 H 0.93264 0.45599 0.13947 0.0
Li1408 Li 0.60675 0.54895 0.26764 0.0
Li1409 Li 0.58451 0.54914 0.30466 0.0
Li1410 Li 0.58025 0.52689 0.24801 0.0
Li1411 Li 0.58865 0.55278 0.19881 0.0
C1412 C 0.59501 0.52338 0.34492 0.0
N1413 N 0.60289 0.50193 0.38592 0.0
C1414 C 0.59367 0.51969 0.4047 0.0
C1415 C 0.60028 0.5161 0.30598 0.0
C1416 C 0.59774 0.50884 0.42459 0.0
C1417 C 0.60423 0.5053 0.32755 0.0
C1418 C 0.61259 0.57866 0.29711 0.0
C1419 C 0.63175 0.60588 0.30905 0.0
N1420 N 0.63415 0.60301 0.36541 0.0
C1421 C 0.61524 0.57597 0.35516 0.0
C1422 C 0.6209 0.59372 0.27379 0.0
C1423 C 0.62619 0.58844 0.38896 0.0
C1424 C 0.63973 0.56549 0.24884 0.0
N1425 N 0.6283 0.55621 0.28723 0.0
C1426 C 0.64735 0.56077 0.36128 0.0
C1427 C 0.63186 0.55379 0.34259 0.0
C1428 C 0.65945 0.57072 0.32328 0.0
C1429 C 0.65543 0.5729 0.266 0.0
H1430 H 0.63662 0.56764 0.20568 0.0
H1431 H 0.6227 0.547 0.37355 0.0
C1432 C 0.57029 0.54404 0.41433 0.0
N1433 N 0.57708 0.55489 0.37117 0.0
C1434 C 0.56541 0.54779 0.46618 0.0
C1435 C 0.57437 0.57372 0.42754 0.0
C1436 C 0.57905 0.56946 0.37635 0.0
C1437 C 0.56762 0.56282 0.47302 0.0
H1438 H 0.56882 0.53253 0.40858 0.0
H1439 H 0.58441 0.5778 0.34106 0.0
C1440 C 0.5993 0.53173 0.14155 0.0
N1441 N 0.60235 0.51769 0.0414 0.0
C1442 C 0.58962 0.52922 0.09317 0.0
C1443 C 0.61071 0.52735 0.13864 0.0
C1444 C 0.5913 0.52203 0.04303 0.0
C1445 C 0.61201 0.5202 0.08773 0.0
C1446 C 0.55699 0.53996 0.26312 0.0
C1447 C 0.54504 0.52762 0.29447 0.0
C1448 C 0.55684 0.55394 0.25657 0.0
C1449 C 0.53315 0.52951 0.31906 0.0
C1450 C 0.54474 0.55536 0.28181 0.0
N1451 N 0.53325 0.54323 0.31232 0.0
C1452 C 0.55869 0.49752 0.29085 0.0
C1453 C 0.56234 0.4973 0.18815 0.0
C1454 C 0.54611 0.48228 0.28904 0.0
N1455 N 0.5663 0.50484 0.24072 0.0
C1456 C 0.54982 0.48199 0.18431 0.0
C1457 C 0.5412 0.47443 0.23498 0.0
H1458 H 0.56177 0.50387 0.3319 0.0
H1459 H 0.56832 0.50333 0.1487 0.0
C1460 C 0.59659 0.57376 0.09782 0.0
N1461 N 0.58525 0.56165 0.12906 0.0
C1462 C 0.59271 0.57912 0.04684 0.0
C1463 C 0.56568 0.55972 0.06246 0.0
C1464 C 0.57006 0.55465 0.11216 0.0
C1465 C 0.57704 0.57196 0.0282 0.0
H1466 H 0.60861 0.57914 0.11205 0.0
H1467 H 0.56125 0.54497 0.13719 0.0
O1468 O 0.59097 0.53393 0.32499 0.0
O1469 O 0.60214 0.5666 0.26272 0.0
O1470 O 0.59805 0.53897 0.19073 0.0
O1471 O 0.56899 0.53852 0.24012 0.0
H1472 H 0.58959 0.52521 0.43544 0.0
H1473 H 0.60122 0.51867 0.25963 0.0
H1474 H 0.5968 0.50591 0.47076 0.0
H1475 H 0.60832 0.49958 0.29786 0.0
H1476 H 0.63827 0.6176 0.29157 0.0
H1477 H 0.60895 0.56437 0.37384 0.0
H1478 H 0.61901 0.59596 0.22884 0.0
H1479 H 0.62838 0.58652 0.4339 0.0
H1480 H 0.64975 0.55855 0.40554 0.0
H1481 H 0.66424 0.58071 0.2353 0.0
H1482 H 0.56017 0.53917 0.50076 0.0
H1483 H 0.57615 0.58541 0.43192 0.0
H1484 H 0.58076 0.53255 0.0946 0.0
H1485 H 0.61853 0.52952 0.17523 0.0
H1486 H 0.58379 0.51989 0.00546 0.0
H1487 H 0.62074 0.51668 0.08497 0.0
H1488 H 0.545 0.51675 0.30011 0.0
H1489 H 0.56612 0.56367 0.23304 0.0
H1490 H 0.52386 0.52009 0.34364 0.0
H1491 H 0.54453 0.56615 0.27742 0.0
H1492 H 0.5397 0.47713 0.32915 0.0
H1493 H 0.54657 0.47637 0.14175 0.0
H1494 H 0.60191 0.58851 0.02174 0.0
H1495 H 0.55341 0.55402 0.05114 0.0
Li1496 Li 0.45272 0.05812 0.26776 0.0
Li1497 Li 0.45306 0.0361 0.30512 0.0
Li1498 Li 0.47514 0.05413 0.24851 0.0
Li1499 Li 0.44934 0.03628 0.19916 0.0
C1500 C 0.47841 0.07297 0.34254 0.0
N1501 N 0.49935 0.10308 0.37796 0.0
C1502 C 0.48197 0.07635 0.40209 0.0
C1503 C 0.48557 0.08491 0.30105 0.0
C1504 C 0.49256 0.09164 0.41912 0.0
C1505 C 0.49612 0.10005 0.3198 0.0
C1506 C 0.42312 0.03331 0.29761 0.0
C1507 C 0.39549 0.023 0.31101 0.0
N1508 N 0.39819 0.02845 0.36715 0.0
C1509 C 0.42562 0.03878 0.35546 0.0
C1510 C 0.40795 0.02534 0.27516 0.0
C1511 C 0.41287 0.03622 0.38989 0.0
C1512 C 0.43642 0.07491 0.24791 0.0
N1513 N 0.44516 0.07218 0.28702 0.0
C1514 C 0.44021 0.08622 0.36177 0.0
C1515 C 0.44711 0.07764 0.34307 0.0
C1516 C 0.43081 0.08897 0.32302 0.0
C1517 C 0.42909 0.08328 0.26505 0.0
H1518 H 0.43467 0.07009 0.20407 0.0
H1519 H 0.45349 0.07483 0.37442 0.0
C1520 C 0.45651 0.02852 0.42004 0.0
N1521 N 0.44718 0.02299 0.37192 0.0
C1522 C 0.45233 0.0199 0.47191 0.0
C1523 C 0.42932 0.99976 0.42287 0.0
C1524 C 0.43377 0.00894 0.37229 0.0
C1525 C 0.43859 0.00536 0.47346 0.0
H1526 H 0.46714 0.0397 0.41816 0.0
H1527 H 0.42651 0.00494 0.33343 0.0
C1528 C 0.46958 0.06791 0.14115 0.0
N1529 N 0.48265 0.08482 0.03974 0.0
C1530 C 0.47241 0.06088 0.09307 0.0
C1531 C 0.47317 0.08346 0.13732 0.0
C1532 C 0.47909 0.06965 0.04229 0.0
C1533 C 0.47984 0.09183 0.08577 0.0
C1534 C 0.46297 0.01815 0.26516 0.0
C1535 C 0.47501 0.01943 0.30106 0.0
C1536 C 0.44988 0.00348 0.25512 0.0
C1537 C 0.47375 0.00599 0.32649 0.0
C1538 C 0.44907 0.99031 0.28129 0.0
N1539 N 0.46091 0.99183 0.31617 0.0
C1540 C 0.50494 0.06301 0.29071 0.0
C1541 C 0.50435 0.06516 0.18729 0.0
C1542 C 0.52016 0.06561 0.28841 0.0
N1543 N 0.49722 0.06244 0.24052 0.0
C1544 C 0.51964 0.0679 0.18294 0.0
C1545 C 0.52758 0.06763 0.2338 0.0
H1546 H 0.49891 0.06041 0.33241 0.0
H1547 H 0.49798 0.06438 0.14786 0.0
C1548 C 0.42856 0.02323 0.09784 0.0
N1549 N 0.44066 0.02403 0.12923 0.0
C1550 C 0.42329 0.01405 0.04674 0.0
C1551 C 0.44273 0.00648 0.06255 0.0
C1552 C 0.44776 0.01594 0.11225 0.0
C1553 C 0.43048 0.00556 0.02815 0.0
H1554 H 0.42313 0.02983 0.11206 0.0
H1555 H 0.45746 0.01688 0.1373 0.0
O1556 O 0.46806 0.05799 0.32544 0.0
O1557 O 0.43541 0.0357 0.26289 0.0
O1558 O 0.46283 0.05949 0.191 0.0
O1559 O 0.46381 0.03122 0.24102 0.0
H1560 H 0.47652 0.06727 0.43492 0.0
H1561 H 0.48316 0.08253 0.25489 0.0
H1562 H 0.49537 0.09442 0.46507 0.0
H1563 H 0.50175 0.10939 0.28808 0.0
H1564 H 0.38368 0.01685 0.29421 0.0
H1565 H 0.43728 0.04492 0.37361 0.0
H1566 H 0.40583 0.02102 0.23044 0.0
H1567 H 0.41464 0.04041 0.4347 0.0
H1568 H 0.44208 0.09043 0.40659 0.0
H1569 H 0.42172 0.08477 0.23368 0.0
H1570 H 0.45977 0.02445 0.51024 0.0
H1571 H 0.41861 0.98858 0.42296 0.0
H1572 H 0.46969 0.04886 0.09522 0.0
H1573 H 0.47078 0.08899 0.17374 0.0
H1574 H 0.48147 0.06439 0.00493 0.0
H1575 H 0.48274 0.1039 0.0823 0.0
H1576 H 0.48517 0.03068 0.30962 0.0
H1577 H 0.44032 0.00229 0.22828 0.0
H1578 H 0.48296 0.00681 0.35455 0.0
H1579 H 0.43897 0.9789 0.27417 0.0
H1580 H 0.5256 0.06498 0.32879 0.0
H1581 H 0.52492 0.06958 0.13993 0.0
H1582 H 0.41391 0.01386 0.02158 0.0
H1583 H 0.44846 0.99994 0.05147 0.0
Li1584 Li 0.58198 0.05498 0.24155 0.0
Li1585 Li 0.58582 0.03559 0.30291 0.0
Li1586 Li 0.60766 0.0582 0.25965 0.0
Li1587 Li 0.59057 0.03735 0.19489 0.0
C1588 C 0.60118 0.06948 0.35675 0.0
N1589 N 0.61989 0.09329 0.43313 0.0
C1590 C 0.60368 0.06604 0.4139 0.0
C1591 C 0.608 0.08504 0.33875 0.0
C1592 C 0.61323 0.07824 0.45179 0.0
C1593 C 0.61748 0.09691 0.37791 0.0
C1594 C 0.56009 0.01619 0.22787 0.0
C1595 C 0.55321 0.98912 0.22562 0.0
N1596 N 0.53883 0.98525 0.20485 0.0
C1597 C 0.54526 0.01197 0.20645 0.0
C1598 C 0.56414 0.0047 0.23751 0.0
C1599 C 0.53466 0.99625 0.19513 0.0
C1600 C 0.55775 0.05688 0.18705 0.0
N1601 N 0.56796 0.06268 0.23258 0.0
C1602 C 0.55392 0.07419 0.27445 0.0
C1603 C 0.56652 0.0715 0.27521 0.0
C1604 C 0.54259 0.06754 0.22984 0.0
C1605 C 0.54493 0.05919 0.18474 0.0
H1606 H 0.55904 0.04965 0.15443 0.0
H1607 H 0.57468 0.07574 0.31146 0.0
C1608 C 0.59004 0.02221 0.40338 0.0
N1609 N 0.57892 0.02264 0.36981 0.0
C1610 C 0.58593 0.01358 0.45529 0.0
C1611 C 0.55894 0.00585 0.43666 0.0
C1612 C 0.56361 0.01474 0.38523 0.0
C1613 C 0.57019 0.00525 0.47266 0.0
H1614 H 0.60217 0.02885 0.39032 0.0
H1615 H 0.55504 0.01544 0.35781 0.0
C1616 C 0.60836 0.07273 0.15064 0.0
N1617 N 0.62806 0.09866 0.08473 0.0
C1618 C 0.61746 0.07158 0.10612 0.0
C1619 C 0.60896 0.08696 0.16064 0.0
C1620 C 0.62744 0.08485 0.07356 0.0
C1621 C 0.61909 0.09997 0.12712 0.0
C1622 C 0.61555 0.03423 0.24575 0.0
C1623 C 0.62637 0.04365 0.20327 0.0
C1624 C 0.61737 0.0227 0.27406 0.0
C1625 C 0.63885 0.04137 0.18968 0.0
C1626 C 0.62999 0.02076 0.25916 0.0
N1627 N 0.64039 0.03006 0.21765 0.0
C1628 C 0.63301 0.06806 0.33284 0.0
C1629 C 0.63995 0.08465 0.24975 0.0
C1630 C 0.6481 0.07663 0.35538 0.0
N1631 N 0.62914 0.07222 0.28126 0.0
C1632 C 0.65536 0.09333 0.27001 0.0
C1633 C 0.65949 0.08933 0.32359 0.0
H1634 H 0.62433 0.0579 0.35629 0.0
H1635 H 0.63679 0.08772 0.2086 0.0
C1636 C 0.57603 0.02479 0.08846 0.0
N1637 N 0.58694 0.02502 0.1254 0.0
C1638 C 0.57134 0.01528 0.03863 0.0
C1639 C 0.58956 0.00672 0.06446 0.0
C1640 C 0.59375 0.01625 0.11442 0.0
C1641 C 0.57806 0.00601 0.02624 0.0
H1642 H 0.57072 0.03178 0.0985 0.0
H1643 H 0.60217 0.01634 0.14482 0.0
O1644 O 0.59216 0.05767 0.3186 0.0
O1645 O 0.57072 0.03154 0.23803 0.0
O1646 O 0.59845 0.05985 0.18265 0.0
O1647 O 0.60332 0.03634 0.26025 0.0
H1648 H 0.5984 0.05407 0.42871 0.0
H1649 H 0.60613 0.0879 0.29484 0.0
H1650 H 0.61536 0.07574 0.496 0.0
H1651 H 0.62294 0.10899 0.36437 0.0
H1652 H 0.55618 0.9801 0.23278 0.0
H1653 H 0.54199 0.02074 0.19854 0.0
H1654 H 0.57562 0.00779 0.25365 0.0
H1655 H 0.52314 0.99281 0.17851 0.0
H1656 H 0.55273 0.08085 0.30976 0.0
H1657 H 0.53644 0.05359 0.15001 0.0
H1658 H 0.59504 0.0137 0.48206 0.0
H1659 H 0.54666 0.99947 0.44787 0.0
H1660 H 0.61678 0.06053 0.09662 0.0
H1661 H 0.60162 0.08792 0.19364 0.0
H1662 H 0.63464 0.08416 0.03926 0.0
H1663 H 0.61976 0.11109 0.13464 0.0
H1664 H 0.62518 0.05268 0.18137 0.0
H1665 H 0.60907 0.0153 0.30703 0.0
H1666 H 0.64733 0.04861 0.15695 0.0
H1667 H 0.63153 0.01186 0.28062 0.0
H1668 H 0.65098 0.07305 0.39629 0.0
H1669 H 0.66398 0.10299 0.24409 0.0
H1670 H 0.56254 0.01519 0.01005 0.0
H1671 H 0.59491 0.99963 0.05677 0.0
Li1672 Li 0.94678 0.52743 0.24163 0.0
Li1673 Li 0.96613 0.55062 0.30319 0.0
Li1674 Li 0.94354 0.54989 0.25988 0.0
Li1675 Li 0.96444 0.55368 0.19525 0.0
C1676 C 0.93224 0.53208 0.35693 0.0
N1677 N 0.90846 0.52697 0.43346 0.0
C1678 C 0.93571 0.538 0.41411 0.0
C1679 C 0.91668 0.52337 0.33896 0.0
C1680 C 0.92352 0.53534 0.45208 0.0
C1681 C 0.90482 0.52097 0.3782 0.0
C1682 C 0.98558 0.54435 0.22836 0.0
C1683 C 0.01264 0.56457 0.22639 0.0
N1684 N 0.01654 0.55406 0.2058 0.0
C1685 C 0.98984 0.53375 0.20713 0.0
C1686 C 0.99705 0.55989 0.23805 0.0
C1687 C 0.00557 0.53889 0.19604 0.0
C1688 C 0.94502 0.50139 0.18709 0.0
N1689 N 0.93909 0.50573 0.23239 0.0
C1690 C 0.92748 0.48012 0.27376 0.0
C1691 C 0.93015 0.49541 0.27465 0.0
C1692 C 0.93428 0.47552 0.22944 0.0
C1693 C 0.94275 0.48629 0.18469 0.0
H1694 H 0.95234 0.50997 0.15478 0.0
H1695 H 0.92579 0.49925 0.31073 0.0
C1696 C 0.97954 0.56821 0.40368 0.0
N1697 N 0.97905 0.55662 0.37016 0.0
C1698 C 0.98816 0.5727 0.45561 0.0
C1699 C 0.99578 0.55335 0.43707 0.0
C1700 C 0.9869 0.54915 0.38563 0.0
C1701 C 0.99643 0.56523 0.47303 0.0
H1702 H 0.97294 0.57373 0.39056 0.0
H1703 H 0.98616 0.53988 0.35824 0.0
C1704 C 0.92905 0.53604 0.15074 0.0
N1705 N 0.9031 0.52968 0.08473 0.0
C1706 C 0.93018 0.54626 0.10609 0.0
C1707 C 0.91484 0.5224 0.16083 0.0
C1708 C 0.91689 0.54289 0.07348 0.0
C1709 C 0.90182 0.51944 0.12725 0.0
C1710 C 0.96753 0.58174 0.24584 0.0
C1711 C 0.95811 0.58308 0.20324 0.0
C1712 C 0.97907 0.59511 0.27393 0.0
C1713 C 0.9604 0.59783 0.1893 0.0
C1714 C 0.98103 0.60967 0.25869 0.0
N1715 N 0.97172 0.61071 0.21706 0.0
C1716 C 0.9336 0.56531 0.33309 0.0
C1717 C 0.91711 0.55572 0.24972 0.0
C1718 C 0.925 0.5718 0.35555 0.0
N1719 N 0.9295 0.55732 0.28141 0.0
C1720 C 0.9084 0.56243 0.26989 0.0
C1721 C 0.91233 0.57051 0.32357 0.0
H1722 H 0.94373 0.56678 0.35668 0.0
H1723 H 0.91409 0.54954 0.20849 0.0
C1724 C 0.97699 0.55167 0.08891 0.0
N1725 N 0.97679 0.56237 0.12581 0.0
C1726 C 0.9865 0.55645 0.0391 0.0
C1727 C 0.99515 0.58326 0.06486 0.0
C1728 C 0.98561 0.57795 0.1148 0.0
C1729 C 0.99582 0.57244 0.02668 0.0
H1730 H 0.96995 0.53936 0.09898 0.0
H1731 H 0.98554 0.58629 0.14518 0.0
O1732 O 0.94404 0.53487 0.31871 0.0
O1733 O 0.97021 0.53961 0.23828 0.0
O1734 O 0.94195 0.53909 0.18281 0.0
O1735 O 0.9654 0.56741 0.26069 0.0
H1736 H 0.94768 0.54467 0.42889 0.0
H1737 H 0.9138 0.51865 0.29503 0.0
H1738 H 0.92603 0.53994 0.49631 0.0
H1739 H 0.89273 0.51436 0.3647 0.0
H1740 H 0.02164 0.57656 0.23359 0.0
H1741 H 0.98108 0.5217 0.19919 0.0
H1742 H 0.99392 0.56827 0.25405 0.0
H1743 H 0.00904 0.53082 0.17957 0.0
H1744 H 0.92072 0.47221 0.30879 0.0
H1745 H 0.94846 0.48346 0.1502 0.0
H1746 H 0.98809 0.58172 0.48234 0.0
H1747 H 0.00212 0.54741 0.44832 0.0
H1748 H 0.9412 0.55664 0.09654 0.0
H1749 H 0.91391 0.51413 0.19392 0.0
H1750 H 0.91755 0.55075 0.03908 0.0
H1751 H 0.89072 0.50898 0.13483 0.0
H1752 H 0.94907 0.57284 0.1815 0.0
H1753 H 0.98647 0.59426 0.30702 0.0
H1754 H 0.95316 0.59904 0.15647 0.0
H1755 H 0.98993 0.62013 0.27998 0.0
H1756 H 0.92853 0.57823 0.39653 0.0
H1757 H 0.89877 0.56141 0.24382 0.0
H1758 H 0.98656 0.54772 0.01056 0.0
H1759 H 0.00227 0.59569 0.05714 0.0
Li1760 Li 0.45107 0.41582 0.30309 0.0
Li1761 Li 0.47437 0.41975 0.24187 0.0
Li1762 Li 0.44816 0.41113 0.19503 0.0
Li1763 Li 0.45192 0.39403 0.25969 0.0
C1764 C 0.45751 0.44162 0.22775 0.0
N1765 N 0.448 0.46295 0.20376 0.0
C1766 C 0.46816 0.45636 0.20569 0.0
C1767 C 0.44202 0.4377 0.23754 0.0
C1768 C 0.46312 0.467 0.19388 0.0
C1769 C 0.43744 0.44866 0.22515 0.0
C1770 C 0.46969 0.40052 0.35685 0.0
C1771 C 0.48102 0.3844 0.37789 0.0
N1772 N 0.47494 0.38188 0.43305 0.0
C1773 C 0.46369 0.39792 0.41394 0.0
C1774 C 0.47856 0.39385 0.33883 0.0
C1775 C 0.46643 0.38841 0.45173 0.0
C1776 C 0.43345 0.41157 0.40354 0.0
N1777 N 0.44501 0.42269 0.36997 0.0
C1778 C 0.44823 0.44267 0.43686 0.0
C1779 C 0.45244 0.43801 0.3854 0.0
C1780 C 0.43638 0.43142 0.47287 0.0
C1781 C 0.42894 0.41568 0.45547 0.0
H1782 H 0.42796 0.39945 0.39046 0.0
H1783 H 0.4617 0.44657 0.35798 0.0
C1784 C 0.50065 0.44374 0.18679 0.0
N1785 N 0.49608 0.43381 0.23328 0.0
C1786 C 0.51574 0.45661 0.18468 0.0
C1787 C 0.52139 0.44828 0.27674 0.0
C1788 C 0.50615 0.4356 0.2772 0.0
C1789 C 0.52621 0.45932 0.23104 0.0
H1790 H 0.49226 0.44219 0.15317 0.0
H1791 H 0.50211 0.42767 0.31418 0.0
C1792 C 0.42003 0.3861 0.24565 0.0
N1793 N 0.39104 0.36127 0.21737 0.0
C1794 C 0.41866 0.3753 0.20315 0.0
C1795 C 0.40668 0.38427 0.27389 0.0
C1796 C 0.4039 0.36281 0.18947 0.0
C1797 C 0.39212 0.37165 0.2589 0.0
C1798 C 0.4658 0.39341 0.15069 0.0
C1799 C 0.45554 0.38433 0.10614 0.0
C1800 C 0.47943 0.39281 0.16062 0.0
C1801 C 0.45884 0.37437 0.07348 0.0
C1802 C 0.48232 0.38271 0.12699 0.0
N1803 N 0.47203 0.37375 0.08457 0.0
C1804 C 0.45019 0.42572 0.08863 0.0
C1805 C 0.42392 0.40802 0.11455 0.0
C1806 C 0.44539 0.43044 0.03885 0.0
N1807 N 0.4395 0.4148 0.12554 0.0
C1808 C 0.4186 0.41224 0.06464 0.0
C1809 C 0.4294 0.42374 0.02646 0.0
H1810 H 0.4625 0.431 0.09867 0.0
H1811 H 0.41559 0.3996 0.14493 0.0
C1812 C 0.43645 0.36864 0.33274 0.0
N1813 N 0.4445 0.37256 0.28119 0.0
C1814 C 0.42998 0.35356 0.35524 0.0
C1815 C 0.43949 0.34637 0.26987 0.0
C1816 C 0.44618 0.36178 0.24966 0.0
C1817 C 0.43135 0.34221 0.32342 0.0
H1818 H 0.43493 0.37729 0.3562 0.0
H1819 H 0.45241 0.36497 0.20854 0.0
O1820 O 0.46216 0.43095 0.23841 0.0
O1821 O 0.46683 0.4095 0.31879 0.0
O1822 O 0.43437 0.39833 0.26022 0.0
O1823 O 0.46282 0.4033 0.1828 0.0
H1824 H 0.48018 0.45953 0.19763 0.0
H1825 H 0.4336 0.42628 0.25416 0.0
H1826 H 0.47123 0.47845 0.17677 0.0
H1827 H 0.42549 0.44578 0.23241 0.0
H1828 H 0.48775 0.37905 0.36434 0.0
H1829 H 0.4569 0.40308 0.42876 0.0
H1830 H 0.48334 0.39581 0.29498 0.0
H1831 H 0.46176 0.38619 0.49589 0.0
H1832 H 0.45414 0.45495 0.44809 0.0
H1833 H 0.41995 0.40658 0.48225 0.0
H1834 H 0.51878 0.46489 0.14905 0.0
H1835 H 0.52909 0.44978 0.31308 0.0
H1836 H 0.42889 0.3765 0.18131 0.0
H1837 H 0.40756 0.39256 0.30688 0.0
H1838 H 0.40267 0.35435 0.15673 0.0
H1839 H 0.38167 0.3701 0.2803 0.0
H1840 H 0.44517 0.38501 0.0967 0.0
H1841 H 0.48773 0.40014 0.19364 0.0
H1842 H 0.45095 0.36718 0.03915 0.0
H1843 H 0.49277 0.38203 0.13445 0.0
H1844 H 0.4541 0.43924 0.0103 0.0
H1845 H 0.40616 0.40691 0.05694 0.0
H1846 H 0.42351 0.35064 0.39611 0.0
H1847 H 0.44057 0.33778 0.24393 0.0
Li1848 Li 0.39203 0.27402 0.40787 0.0
Li1849 Li 0.37117 0.25693 0.47257 0.0
Li1850 Li 0.38876 0.24831 0.42577 0.0
Li1851 Li 0.36939 0.25222 0.36452 0.0
C1852 C 0.40651 0.27468 0.51692 0.0
N1853 N 0.43238 0.2944 0.5831 0.0
C1854 C 0.4053 0.28376 0.56143 0.0
C1855 C 0.42076 0.27532 0.50707 0.0
C1856 C 0.41855 0.29374 0.59412 0.0
C1857 C 0.43374 0.28545 0.54073 0.0
C1858 C 0.36806 0.28194 0.42179 0.0
C1859 C 0.35457 0.29637 0.40838 0.0
N1860 N 0.36388 0.30678 0.44984 0.0
C1861 C 0.37749 0.29277 0.46421 0.0
C1862 C 0.35652 0.28374 0.39351 0.0
C1863 C 0.37521 0.30526 0.47778 0.0
C1864 C 0.40192 0.29939 0.33475 0.0
N1865 N 0.40607 0.2955 0.38633 0.0
C1866 C 0.42718 0.32171 0.39768 0.0
C1867 C 0.41849 0.3063 0.41788 0.0
C1868 C 0.4232 0.32586 0.34411 0.0
C1869 C 0.4105 0.31448 0.31226 0.0
H1870 H 0.39176 0.29072 0.31127 0.0
H1871 H 0.42154 0.30313 0.45904 0.0
C1872 C 0.35858 0.24233 0.57889 0.0
N1873 N 0.35884 0.25328 0.54204 0.0
C1874 C 0.34905 0.23763 0.62867 0.0
C1875 C 0.34054 0.25589 0.60299 0.0
C1876 C 0.35008 0.2601 0.55308 0.0
C1877 C 0.3398 0.24436 0.64111 0.0
H1878 H 0.36557 0.23702 0.56881 0.0
H1879 H 0.3502 0.26854 0.52275 0.0
C1880 C 0.40331 0.26753 0.31075 0.0
N1881 N 0.42719 0.28619 0.23455 0.0
C1882 C 0.39991 0.2701 0.25363 0.0
C1883 C 0.41885 0.27425 0.32882 0.0
C1884 C 0.41215 0.27962 0.21583 0.0
C1885 C 0.43076 0.28371 0.28975 0.0
C1886 C 0.35 0.22645 0.43966 0.0
C1887 C 0.34583 0.21166 0.46137 0.0
C1888 C 0.33848 0.23045 0.42997 0.0
C1889 C 0.33013 0.20105 0.47291 0.0
C1890 C 0.32291 0.21951 0.44209 0.0
N1891 N 0.3191 0.20516 0.46313 0.0
C1892 C 0.39088 0.22421 0.48064 0.0
C1893 C 0.40489 0.23258 0.39105 0.0
C1894 C 0.39311 0.21135 0.48282 0.0
N1895 N 0.39641 0.23425 0.4345 0.0
C1896 C 0.40747 0.21991 0.39162 0.0
C1897 C 0.40108 0.20877 0.43692 0.0
H1898 H 0.3839 0.22568 0.51389 0.0
H1899 H 0.40892 0.24059 0.35434 0.0
C1900 C 0.35604 0.25648 0.26408 0.0
N1901 N 0.35646 0.24535 0.29763 0.0
C1902 C 0.34743 0.25238 0.21213 0.0
C1903 C 0.33969 0.22538 0.23072 0.0
C1904 C 0.34856 0.23004 0.28218 0.0
C1905 C 0.3391 0.23665 0.19472 0.0
H1906 H 0.36269 0.2686 0.27717 0.0
H1907 H 0.34924 0.22147 0.3096 0.0
O1908 O 0.39366 0.26477 0.48478 0.0
O1909 O 0.37018 0.26971 0.40733 0.0
O1910 O 0.39147 0.25854 0.34882 0.0
O1911 O 0.36534 0.23709 0.42928 0.0
H1912 H 0.39424 0.28304 0.57081 0.0
H1913 H 0.42177 0.26801 0.47408 0.0
H1914 H 0.41781 0.30092 0.62842 0.0
H1915 H 0.44488 0.28615 0.53333 0.0
H1916 H 0.34567 0.29789 0.38694 0.0
H1917 H 0.38653 0.29159 0.48609 0.0
H1918 H 0.34911 0.27543 0.36058 0.0
H1919 H 0.38245 0.31374 0.51046 0.0
H1920 H 0.43684 0.33032 0.42364 0.0
H1921 H 0.40693 0.31737 0.27136 0.0
H1922 H 0.34894 0.2288 0.65718 0.0
H1923 H 0.33347 0.26125 0.61074 0.0
H1924 H 0.38795 0.2649 0.23878 0.0
H1925 H 0.42168 0.27232 0.3727 0.0
H1926 H 0.40969 0.28181 0.17165 0.0
H1927 H 0.44283 0.2891 0.30333 0.0
H1928 H 0.35464 0.20843 0.46934 0.0
H1929 H 0.34153 0.2419 0.41362 0.0
H1930 H 0.32672 0.18955 0.48974 0.0
H1931 H 0.31387 0.22244 0.43489 0.0
H1932 H 0.38772 0.20299 0.51812 0.0
H1933 H 0.41384 0.21852 0.35565 0.0
H1934 H 0.34756 0.2615 0.18536 0.0
H1935 H 0.3333 0.21311 0.21947 0.0
Li1936 Li 0.72764 0.11808 0.40824 0.0
Li1937 Li 0.74475 0.11432 0.47292 0.0
Li1938 Li 0.75331 0.14055 0.4264 0.0
Li1939 Li 0.7495 0.11734 0.36498 0.0
C1940 C 0.72699 0.13198 0.51722 0.0
N1941 N 0.7074 0.13839 0.58299 0.0
C1942 C 0.71787 0.12178 0.56185 0.0
C1943 C 0.72646 0.14564 0.50703 0.0
C1944 C 0.70795 0.12517 0.59434 0.0
C1945 C 0.71639 0.14862 0.54049 0.0
C1946 C 0.71979 0.08623 0.42243 0.0
C1947 C 0.70536 0.0583 0.40971 0.0
N1948 N 0.69502 0.05726 0.45133 0.0
C1949 C 0.70903 0.0849 0.46502 0.0
C1950 C 0.71796 0.07285 0.3944 0.0
C1951 C 0.69657 0.07015 0.47902 0.0
C1952 C 0.70227 0.10259 0.33513 0.0
N1953 N 0.70617 0.11064 0.38667 0.0
C1954 C 0.67998 0.10562 0.39788 0.0
C1955 C 0.69539 0.11231 0.41814 0.0
C1956 C 0.67583 0.09748 0.34434 0.0
C1957 C 0.68719 0.09611 0.31258 0.0
H1958 H 0.71093 0.10107 0.31169 0.0
H1959 H 0.69857 0.11855 0.45925 0.0
C1960 C 0.75927 0.11636 0.57941 0.0
N1961 N 0.74841 0.10565 0.5424 0.0
C1962 C 0.76399 0.11158 0.62925 0.0
C1963 C 0.74592 0.08477 0.60329 0.0
C1964 C 0.74169 0.09007 0.55332 0.0
C1965 C 0.75736 0.09559 0.64159 0.0
H1966 H 0.76451 0.12866 0.56941 0.0
H1967 H 0.73332 0.08173 0.52286 0.0
C1968 C 0.73412 0.13584 0.31112 0.0
N1969 N 0.71542 0.14091 0.23461 0.0
C1970 C 0.73162 0.12987 0.25402 0.0
C1971 C 0.72731 0.14459 0.32901 0.0
C1972 C 0.72208 0.13251 0.21606 0.0
C1973 C 0.71783 0.14697 0.28978 0.0
C1974 C 0.77525 0.12372 0.44011 0.0
C1975 C 0.79004 0.13435 0.46177 0.0
C1976 C 0.77127 0.10821 0.43037 0.0
C1977 C 0.80067 0.12928 0.47322 0.0
C1978 C 0.78222 0.1036 0.44238 0.0
N1979 N 0.79657 0.11414 0.46338 0.0
C1980 C 0.77747 0.16669 0.4811 0.0
C1981 C 0.76882 0.17247 0.39251 0.0
C1982 C 0.79031 0.1818 0.48334 0.0
N1983 N 0.76731 0.16225 0.43539 0.0
C1984 C 0.78144 0.18775 0.39319 0.0
C1985 C 0.79272 0.19245 0.43798 0.0
H1986 H 0.77613 0.15819 0.51391 0.0
H1987 H 0.76071 0.16855 0.35612 0.0
C1988 C 0.74535 0.09974 0.26455 0.0
N1989 N 0.75643 0.11134 0.29808 0.0
C1990 C 0.74949 0.09526 0.21264 0.0
C1991 C 0.77645 0.11464 0.23121 0.0
C1992 C 0.77175 0.11883 0.28264 0.0
C1993 C 0.76524 0.10275 0.19524 0.0
H1994 H 0.73322 0.0942 0.27765 0.0
H1995 H 0.78028 0.12811 0.31004 0.0
O1996 O 0.73684 0.12891 0.48527 0.0
O1997 O 0.73199 0.10056 0.40754 0.0
O1998 O 0.74314 0.13307 0.34934 0.0
O1999 O 0.76459 0.12839 0.42983 0.0
H2000 H 0.71849 0.11139 0.57148 0.0
H2001 H 0.73382 0.1539 0.47396 0.0
H2002 H 0.70073 0.11733 0.62872 0.0
H2003 H 0.71578 0.15909 0.53284 0.0
H2004 H 0.70381 0.04783 0.38847 0.0
H2005 H 0.71023 0.09515 0.4867 0.0
H2006 H 0.72621 0.0737 0.36133 0.0
H2007 H 0.68813 0.06895 0.51185 0.0
H2008 H 0.67139 0.10671 0.42377 0.0
H2009 H 0.68429 0.08964 0.2717 0.0
H2010 H 0.77275 0.12031 0.65789 0.0
H2011 H 0.74064 0.07234 0.61094 0.0
H2012 H 0.73689 0.12317 0.2393 0.0
H2013 H 0.72919 0.14936 0.37288 0.0
H2014 H 0.71994 0.12786 0.17189 0.0
H2015 H 0.71238 0.15361 0.30323 0.0
H2016 H 0.79326 0.14638 0.46977 0.0
H2017 H 0.75981 0.0998 0.41404 0.0
H2018 H 0.81217 0.13738 0.49001 0.0
H2019 H 0.7793 0.09163 0.43514 0.0
H2020 H 0.79876 0.18472 0.51822 0.0
H2021 H 0.7827 0.19558 0.35767 0.0
H2022 H 0.74041 0.08624 0.18589 0.0
H2023 H 0.78873 0.1206 0.21998 0.0
Li2024 Li 0.8835 0.60988 0.40791 0.0
Li2025 Li 0.88728 0.63076 0.47261 0.0
Li2026 Li 0.86104 0.61312 0.42602 0.0
Li2027 Li 0.88428 0.63249 0.36459 0.0
C2028 C 0.86966 0.59539 0.51702 0.0
N2029 N 0.86339 0.56947 0.5831 0.0
C2030 C 0.8799 0.59655 0.56162 0.0
C2031 C 0.85603 0.58116 0.50701 0.0
C2032 C 0.87658 0.58328 0.59427 0.0
C2033 C 0.85313 0.56816 0.54062 0.0
C2034 C 0.91536 0.63384 0.42181 0.0
C2035 C 0.94327 0.64727 0.40847 0.0
N2036 N 0.94435 0.63798 0.45007 0.0
C2037 C 0.91673 0.62442 0.46438 0.0
C2038 C 0.92871 0.64534 0.39349 0.0
C2039 C 0.93149 0.62669 0.47805 0.0
C2040 C 0.89893 0.59994 0.3347 0.0
N2041 N 0.89093 0.59584 0.38638 0.0
C2042 C 0.89607 0.57475 0.39791 0.0
C2043 C 0.88935 0.58345 0.41807 0.0
C2044 C 0.90415 0.57868 0.34424 0.0
C2045 C 0.90543 0.59135 0.31224 0.0
H2046 H 0.90039 0.61007 0.31111 0.0
H2047 H 0.88316 0.58043 0.45931 0.0
C2048 C 0.8853 0.64334 0.579 0.0
N2049 N 0.89598 0.6431 0.54208 0.0
C2050 C 0.89012 0.65285 0.62881 0.0
C2051 C 0.9169 0.66141 0.603 0.0
C2052 C 0.91156 0.65188 0.55307 0.0
C2053 C 0.90611 0.66213 0.64121 0.0
H2054 H 0.87299 0.63633 0.56896 0.0
H2055 H 0.91989 0.65178 0.52268 0.0
C2056 C 0.86571 0.59859 0.31081 0.0
N2057 N 0.86057 0.57478 0.23438 0.0
C2058 C 0.87162 0.60204 0.25362 0.0
C2059 C 0.85698 0.58304 0.32883 0.0
C2060 C 0.86895 0.58983 0.21571 0.0
C2061 C 0.85457 0.57117 0.28964 0.0
C2062 C 0.87798 0.65192 0.43952 0.0
C2063 C 0.86739 0.65617 0.46086 0.0
C2064 C 0.89352 0.66339 0.42986 0.0
C2065 C 0.87253 0.67189 0.4721 0.0
C2066 C 0.8982 0.67898 0.44166 0.0
N2067 N 0.8877 0.68288 0.46235 0.0
C2068 C 0.83494 0.61129 0.48051 0.0
C2069 C 0.82903 0.59654 0.39268 0.0
C2070 C 0.81981 0.60897 0.48291 0.0
N2071 N 0.83932 0.60543 0.43509 0.0
C2072 C 0.81373 0.59383 0.39354 0.0
C2073 C 0.80908 0.60053 0.43803 0.0
H2074 H 0.84349 0.61857 0.51296 0.0
H2075 H 0.83291 0.59224 0.35651 0.0
C2076 C 0.90188 0.64585 0.26408 0.0
N2077 N 0.89032 0.64542 0.29764 0.0
C2078 C 0.9064 0.65448 0.21217 0.0
C2079 C 0.88714 0.66222 0.23078 0.0
C2080 C 0.88291 0.65333 0.28221 0.0
C2081 C 0.899 0.66282 0.19479 0.0
H2082 H 0.90735 0.6392 0.27715 0.0
H2083 H 0.87366 0.65264 0.30963 0.0
O2084 O 0.87266 0.60826 0.48492 0.0
O2085 O 0.90102 0.63173 0.40724 0.0
O2086 O 0.86852 0.6104 0.34898 0.0
O2087 O 0.87324 0.63656 0.42946 0.0
H2088 H 0.89027 0.6076 0.57112 0.0
H2089 H 0.84774 0.58019 0.47395 0.0
H2090 H 0.88446 0.58398 0.62863 0.0
H2091 H 0.84268 0.55704 0.5331 0.0
H2092 H 0.95372 0.65615 0.387 0.0
H2093 H 0.9065 0.61541 0.4863 0.0
H2094 H 0.92784 0.65274 0.36045 0.0
H2095 H 0.93271 0.61946 0.51085 0.0
H2096 H 0.89505 0.56512 0.42398 0.0
H2097 H 0.91185 0.59488 0.27126 0.0
H2098 H 0.88141 0.65294 0.65737 0.0
H2099 H 0.92934 0.6685 0.6107 0.0
H2100 H 0.87831 0.614 0.2388 0.0
H2101 H 0.85226 0.58017 0.37277 0.0
H2102 H 0.87355 0.59233 0.17147 0.0
H2103 H 0.84795 0.55908 0.30319 0.0
H2104 H 0.85533 0.64741 0.46879 0.0
H2105 H 0.9019 0.66028 0.41378 0.0
H2106 H 0.86446 0.67536 0.48865 0.0
H2107 H 0.9102 0.68798 0.43449 0.0
H2108 H 0.81694 0.61461 0.51753 0.0
H2109 H 0.80584 0.5871 0.3584 0.0
H2110 H 0.91539 0.65436 0.18541 0.0
H2111 H 0.88126 0.66861 0.21957 0.0
Li2112 Li 0.41394 0.96538 0.80191 0.0
Li2113 Li 0.42185 0.94742 0.75225 0.0
Li2114 Li 0.41762 0.96525 0.6964 0.0
Li2115 Li 0.3952 0.943 0.73255 0.0
C2116 C 0.44567 0.98333 0.73551 0.0
N2117 N 0.47013 0.00948 0.68443 0.0
C2118 C 0.45593 0.98181 0.69749 0.0
C2119 C 0.44788 0.99816 0.74766 0.0
C2120 C 0.46821 0.99517 0.67205 0.0
C2121 C 0.46032 0.01123 0.72141 0.0
C2122 C 0.40238 0.93351 0.85955 0.0
C2123 C 0.38849 0.90948 0.9142 0.0
N2124 N 0.39819 0.91638 0.96065 0.0
C2125 C 0.41209 0.94042 0.90806 0.0
C2126 C 0.39037 0.91796 0.8628 0.0
C2127 C 0.40984 0.93155 0.95867 0.0
C2128 C 0.40621 0.97879 0.90219 0.0
N2129 N 0.41742 0.9776 0.8718 0.0
C2130 C 0.43699 0.99476 0.93945 0.0
C2131 C 0.43254 0.9853 0.88974 0.0
C2132 C 0.42575 0.99608 0.97286 0.0
C2133 C 0.41013 0.98798 0.95328 0.0
H2134 H 0.39423 0.97251 0.88718 0.0
H2135 H 0.44123 0.98407 0.86538 0.0
C2136 C 0.4427 0.93837 0.71044 0.0
N2137 N 0.43567 0.93918 0.76058 0.0
C2138 C 0.4553 0.93574 0.71293 0.0
C2139 C 0.45271 0.93392 0.81853 0.0
C2140 C 0.4402 0.9367 0.81399 0.0
C2141 C 0.4608 0.93393 0.76767 0.0
H2142 H 0.43918 0.94078 0.66858 0.0
H2143 H 0.4347 0.93768 0.85335 0.0
C2144 C 0.39336 0.97157 0.70518 0.0
N2145 N 0.3797 0.98462 0.63729 0.0
C2146 C 0.38786 0.96577 0.64893 0.0
C2147 C 0.39197 0.98402 0.72692 0.0
C2148 C 0.38099 0.97254 0.61526 0.0
C2149 C 0.385 0.99045 0.69192 0.0
C2150 C 0.40618 0.92832 0.65896 0.0
C2151 C 0.40592 0.9246 0.59952 0.0
C2152 C 0.40177 0.91661 0.70124 0.0
C2153 C 0.40115 0.90923 0.58345 0.0
C2154 C 0.3971 0.90138 0.68345 0.0
N2155 N 0.39687 0.89803 0.6254 0.0
C2156 C 0.42727 0.97237 0.57999 0.0
C2157 C 0.42665 0.99306 0.63026 0.0
C2158 C 0.43177 0.981 0.52813 0.0
N2159 N 0.42467 0.97844 0.62941 0.0
C2160 C 0.43147 0.00224 0.57964 0.0
C2161 C 0.43391 0.99609 0.52783 0.0
H2162 H 0.42579 0.9608 0.58085 0.0
H2163 H 0.42441 0.99757 0.67012 0.0
C2164 C 0.36214 0.92565 0.75261 0.0
N2165 N 0.37369 0.92894 0.71312 0.0
C2166 C 0.34646 0.91716 0.73528 0.0
C2167 C 0.35484 0.91528 0.63755 0.0
C2168 C 0.37028 0.92395 0.6565 0.0
C2169 C 0.3426 0.91195 0.67673 0.0
H2170 H 0.36512 0.93008 0.79699 0.0
H2171 H 0.37955 0.9272 0.62505 0.0
O2172 O 0.43338 0.97035 0.75992 0.0
O2173 O 0.40422 0.94205 0.80988 0.0
O2174 O 0.40008 0.9651 0.73895 0.0
O2175 O 0.41083 0.94338 0.67513 0.0
H2176 H 0.45434 0.97044 0.68728 0.0
H2177 H 0.4399 0.99955 0.77613 0.0
H2178 H 0.4762 0.99416 0.64235 0.0
H2179 H 0.4621 0.02276 0.73013 0.0
H2180 H 0.37929 0.89742 0.91722 0.0
H2181 H 0.42141 0.95244 0.90639 0.0
H2182 H 0.38254 0.91252 0.82603 0.0
H2183 H 0.41736 0.93671 0.99637 0.0
H2184 H 0.44923 0.001 0.9513 0.0
H2185 H 0.40099 0.98848 0.97765 0.0
H2186 H 0.46127 0.93617 0.67252 0.0
H2187 H 0.45639 0.93242 0.86165 0.0
H2188 H 0.38911 0.95633 0.63111 0.0
H2189 H 0.3962 0.98864 0.7704 0.0
H2190 H 0.37674 0.96821 0.57155 0.0
H2191 H 0.3838 1.00008 0.70819 0.0
H2192 H 0.40923 0.93346 0.56602 0.0
H2193 H 0.40209 0.91924 0.7473 0.0
H2194 H 0.40083 0.9062 0.53761 0.0
H2195 H 0.39368 0.89223 0.71581 0.0
H2196 H 0.43371 0.97601 0.48885 0.0
H2197 H 0.43299 0.01387 0.58056 0.0
H2198 H 0.33752 0.91523 0.76705 0.0
H2199 H 0.35258 0.91144 0.59228 0.0
Li2200 Li 0.05454 0.47477 0.7527 0.0
Li2201 Li 0.03664 0.449 0.80208 0.0
Li2202 Li 0.05846 0.45231 0.73343 0.0
Li2203 Li 0.03647 0.45273 0.6961 0.0
C2204 C 0.06828 0.46917 0.86007 0.0
N2205 N 0.08519 0.48218 0.96151 0.0
C2206 C 0.06127 0.47202 0.90814 0.0
C2207 C 0.08381 0.47269 0.86392 0.0
C2208 C 0.07004 0.47867 0.95894 0.0
C2209 C 0.09219 0.47934 0.91549 0.0
C2210 C 0.01858 0.46271 0.73603 0.0
C2211 C 0.99074 0.44891 0.71999 0.0
N2212 N 0.99232 0.46075 0.68493 0.0
C2213 C 0.01992 0.47475 0.69995 0.0
C2214 C 0.00388 0.44968 0.74621 0.0
C2215 C 0.00651 0.47353 0.67447 0.0
C2216 C 0.06351 0.5046 0.7105 0.0
N2217 N 0.06288 0.49686 0.7607 0.0
C2218 C 0.06827 0.51925 0.81832 0.0
C2219 C 0.06553 0.50397 0.81396 0.0
C2220 C 0.06805 0.52722 0.76744 0.0
C2221 C 0.06611 0.51982 0.71281 0.0
H2222 H 0.06096 0.49859 0.66878 0.0
H2223 H 0.0647 0.49758 0.85339 0.0
C2224 C 0.02354 0.4282 0.90329 0.0
N2225 N 0.02439 0.44032 0.87199 0.0
C2226 C 0.01435 0.42293 0.9544 0.0
C2227 C 0.00689 0.44245 0.93874 0.0
C2228 C 0.01635 0.44747 0.88904 0.0
C2229 C 0.00591 0.43017 0.97306 0.0
H2230 H 0.0301 0.42273 0.88901 0.0
H2231 H 0.01732 0.4572 0.86405 0.0
C2232 C 0.07338 0.47799 0.65876 0.0
N2233 N 0.10353 0.49885 0.6235 0.0
C2234 C 0.0768 0.48152 0.5992 0.0
C2235 C 0.0853 0.48515 0.70032 0.0
C2236 C 0.09212 0.49206 0.58226 0.0
C2237 C 0.10046 0.49565 0.68166 0.0
C2238 C 0.03344 0.42267 0.70382 0.0
C2239 C 0.03888 0.42505 0.64594 0.0
C2240 C 0.02525 0.40753 0.72641 0.0
C2241 C 0.03608 0.4122 0.61163 0.0
C2242 C 0.02267 0.39497 0.69068 0.0
N2243 N 0.0281 0.39755 0.63452 0.0
C2244 C 0.07549 0.43623 0.75342 0.0
C2245 C 0.0778 0.44657 0.65785 0.0
C2246 C 0.08394 0.42898 0.73625 0.0
N2247 N 0.07251 0.44475 0.71412 0.0
C2248 C 0.08643 0.43974 0.63908 0.0
C2249 C 0.08945 0.43056 0.67805 0.0
H2250 H 0.07083 0.43459 0.79749 0.0
H2251 H 0.07481 0.45279 0.62641 0.0
C2252 C 0.02896 0.45617 0.5811 0.0
N2253 N 0.02337 0.44687 0.62929 0.0
C2254 C 0.02034 0.45202 0.52923 0.0
C2255 C 1.00008 0.42911 0.57841 0.0
C2256 C 0.00926 0.43353 0.62899 0.0
C2257 C 0.00574 0.43835 0.52776 0.0
H2258 H 0.04018 0.46674 0.58292 0.0
H2259 H 0.00522 0.4263 0.66791 0.0
O2260 O 0.05985 0.46244 0.81021 0.0
O2261 O 0.03163 0.46349 0.76021 0.0
O2262 O 0.05838 0.46768 0.67577 0.0
O2263 O 0.03602 0.43505 0.73835 0.0
H2264 H 0.04927 0.46934 0.90598 0.0
H2265 H 0.08933 0.47029 0.82749 0.0
H2266 H 0.0648 0.48107 0.9963 0.0
H2267 H 0.10424 0.4822 0.91898 0.0
H2268 H 0.97931 0.43886 0.72721 0.0
H2269 H 0.03119 0.48486 0.69127 0.0
H2270 H 0.00265 0.44012 0.77318 0.0
H2271 H 0.00738 0.48274 0.64627 0.0
H2272 H 0.06989 0.52451 0.86135 0.0
H2273 H 0.06552 0.52528 0.67241 0.0
H2274 H 0.01413 0.41353 0.97949 0.0
H2275 H 1.00038 0.44822 0.94989 0.0
H2276 H 0.06774 0.47607 0.56631 0.0
H2277 H 0.08289 0.48276 0.74648 0.0
H2278 H 0.09492 0.49485 0.53631 0.0
H2279 H 0.10978 0.50127 0.71345 0.0
H2280 H 0.04516 0.43669 0.62764 0.0
H2281 H 0.02094 0.40551 0.77113 0.0
H2282 H 0.04023 0.41387 0.56679 0.0
H2283 H 0.01635 0.38318 0.70759 0.0
H2284 H 0.08564 0.42178 0.7678 0.0
H2285 H 0.0905 0.4415 0.59408 0.0
H2286 H 0.02493 0.45942 0.49083 0.0
H2287 H 0.98885 0.41846 0.57837 0.0
Li2288 Li 0.55318 0.58831 0.80224 0.0
Li2289 Li 0.5273 0.57993 0.75304 0.0
Li2290 Li 0.54953 0.58417 0.69639 0.0
Li2291 Li 0.54937 0.60642 0.7334 0.0
C2292 C 0.54032 0.55664 0.73793 0.0
N2293 N 0.54354 0.53287 0.68872 0.0
C2294 C 0.52798 0.5447 0.70656 0.0
C2295 C 0.55428 0.55646 0.7445 0.0
C2296 C 0.52984 0.5328 0.68196 0.0
C2297 C 0.55568 0.54435 0.71925 0.0
C2298 C 0.53217 0.59899 0.85953 0.0
C2299 C 0.5207 0.61175 0.91345 0.0
N2300 N 0.51818 0.60207 0.95975 0.0
C2301 C 0.52963 0.5893 0.90788 0.0
C2302 C 0.52783 0.61043 0.8625 0.0
C2303 C 0.52248 0.59099 0.95805 0.0
C2304 C 0.57415 0.59622 0.90323 0.0
N2305 N 0.56204 0.5849 0.87199 0.0
C2306 C 0.56009 0.56532 0.9386 0.0
C2307 C 0.55503 0.5697 0.88889 0.0
C2308 C 0.57233 0.57667 0.97286 0.0
C2309 C 0.57951 0.59235 0.95422 0.0
H2310 H 0.57954 0.60825 0.889 0.0
H2311 H 0.54535 0.5609 0.86387 0.0
C2312 C 0.49791 0.5584 0.71021 0.0
N2313 N 0.50524 0.56599 0.76034 0.0
C2314 C 0.48267 0.54581 0.71203 0.0
C2315 C 0.48241 0.54949 0.8168 0.0
C2316 C 0.49771 0.56201 0.81294 0.0
C2317 C 0.47483 0.54089 0.76612 0.0
H2318 H 0.50425 0.56149 0.66914 0.0
H2319 H 0.50376 0.56798 0.85239 0.0
C2320 C 0.57908 0.61223 0.70397 0.0
N2321 N 0.60345 0.63378 0.63573 0.0
C2322 C 0.57641 0.61488 0.64589 0.0
C2323 C 0.59413 0.62053 0.72734 0.0
C2324 C 0.58889 0.62583 0.61212 0.0
C2325 C 0.60631 0.63138 0.69211 0.0
C2326 C 0.5238 0.59472 0.65619 0.0
C2327 C 0.5201 0.59339 0.59642 0.0
C2328 C 0.51655 0.6 0.69518 0.0
C2329 C 0.50927 0.59748 0.5766 0.0
C2330 C 0.50577 0.60398 0.67368 0.0
N2331 N 0.50238 0.60265 0.61532 0.0
C2332 C 0.54443 0.56995 0.5867 0.0
C2333 C 0.56983 0.57866 0.62474 0.0
C2334 C 0.54817 0.56507 0.53486 0.0
N2335 N 0.55527 0.57672 0.62989 0.0
C2336 C 0.57409 0.57398 0.57355 0.0
C2337 C 0.56319 0.56725 0.52804 0.0
H2338 H 0.53292 0.5685 0.59243 0.0
H2339 H 0.57817 0.58401 0.66004 0.0
C2340 C 0.56589 0.6394 0.75222 0.0
N2341 N 0.55665 0.62796 0.71379 0.0
C2342 C 0.57331 0.6551 0.73504 0.0
C2343 C 0.56124 0.64701 0.63967 0.0
C2344 C 0.55426 0.63152 0.65837 0.0
C2345 C 0.57115 0.65911 0.67771 0.0
H2346 H 0.56802 0.63629 0.79542 0.0
H2347 H 0.54749 0.62236 0.6274 0.0
O2348 O 0.5389 0.56865 0.76094 0.0
O2349 O 0.53939 0.59772 0.81031 0.0
O2350 O 0.56701 0.60178 0.73832 0.0
O2351 O 0.53434 0.59065 0.67605 0.0
H2352 H 0.51712 0.54468 0.70091 0.0
H2353 H 0.56402 0.56572 0.76804 0.0
H2354 H 0.52041 0.52352 0.65737 0.0
H2355 H 0.56645 0.54411 0.72365 0.0
H2356 H 0.51721 0.6205 0.91626 0.0
H2357 H 0.53294 0.58041 0.9064 0.0
H2358 H 0.53001 0.61826 0.82592 0.0
H2359 H 0.52032 0.58348 0.99561 0.0
H2360 H 0.55438 0.55305 0.94992 0.0
H2361 H 0.5889 0.60154 0.97931 0.0
H2362 H 0.47751 0.53941 0.67191 0.0
H2363 H 0.47679 0.54623 0.85937 0.0
H2364 H 0.56481 0.6086 0.62717 0.0
H2365 H 0.59635 0.61864 0.77231 0.0
H2366 H 0.58698 0.62802 0.56717 0.0
H2367 H 0.61802 0.6379 0.70963 0.0
H2368 H 0.5256 0.58929 0.56564 0.0
H2369 H 0.51913 0.60093 0.74152 0.0
H2370 H 0.50633 0.59655 0.53044 0.0
H2371 H 0.50006 0.60808 0.70341 0.0
H2372 H 0.53956 0.55984 0.50025 0.0
H2373 H 0.58577 0.57574 0.56919 0.0
H2374 H 0.58109 0.66391 0.76578 0.0
H2375 H 0.55904 0.64941 0.59537 0.0
Li2376 Li 0.63253 0.75092 0.63817 0.0
Li2377 Li 0.61058 0.7284 0.6012 0.0
Li2378 Li 0.63234 0.74695 0.53218 0.0
Li2379 Li 0.61438 0.75473 0.58166 0.0
C2380 C 0.63609 0.72419 0.63018 0.0
N2381 N 0.64253 0.70509 0.69893 0.0
C2382 C 0.63071 0.7209 0.68807 0.0
C2383 C 0.6448 0.71784 0.6073 0.0
C2384 C 0.63406 0.71119 0.7221 0.0
C2385 C 0.64793 0.70819 0.64275 0.0
C2386 C 0.5956 0.73907 0.67578 0.0
C2387 C 0.56849 0.72954 0.65301 0.0
N2388 N 0.56542 0.7296 0.71121 0.0
C2389 C 0.59218 0.73909 0.73538 0.0
C2390 C 0.58367 0.7343 0.63426 0.0
C2391 C 0.57685 0.73423 0.75241 0.0
C2392 C 0.63997 0.76189 0.75304 0.0
N2393 N 0.64563 0.75824 0.70492 0.0
C2394 C 0.66897 0.76398 0.75595 0.0
C2395 C 0.65981 0.75915 0.70531 0.0
C2396 C 0.66321 0.76748 0.8065 0.0
C2397 C 0.64857 0.76642 0.80496 0.0
H2398 H 0.6287 0.76114 0.75114 0.0
H2399 H 0.66392 0.75602 0.66645 0.0
C2400 C 0.59337 0.69526 0.58138 0.0
N2401 N 0.59661 0.70681 0.62082 0.0
C2402 C 0.58486 0.67957 0.59865 0.0
C2403 C 0.58287 0.68793 0.69626 0.0
C2404 C 0.59154 0.70338 0.67736 0.0
C2405 C 0.57957 0.6757 0.65712 0.0
H2406 H 0.59784 0.69825 0.53705 0.0
H2407 H 0.59471 0.71263 0.70882 0.0
C2408 C 0.65034 0.77875 0.59786 0.0
N2409 N 0.67664 0.8031 0.6486 0.0
C2410 C 0.64902 0.78945 0.63402 0.0
C2411 C 0.66504 0.78045 0.58742 0.0
C2412 C 0.66246 0.80167 0.6593 0.0
C2413 C 0.6782 0.79284 0.61345 0.0
C2414 C 0.60063 0.73535 0.47452 0.0
C2415 C 0.60759 0.7452 0.42641 0.0
C2416 C 0.5851 0.72333 0.47082 0.0
C2417 C 0.59878 0.74308 0.37572 0.0
C2418 C 0.57668 0.72158 0.41936 0.0
N2419 N 0.58363 0.73142 0.37329 0.0
C2420 C 0.6456 0.73928 0.43147 0.0
C2421 C 0.65248 0.76568 0.44485 0.0
C2422 C 0.65481 0.7432 0.38042 0.0
N2423 N 0.64459 0.75053 0.46231 0.0
C2424 C 0.66194 0.77013 0.39517 0.0
C2425 C 0.66308 0.75885 0.36132 0.0
H2426 H 0.63917 0.72727 0.44611 0.0
H2427 H 0.65138 0.77441 0.46953 0.0
C2428 C 0.60536 0.77554 0.62394 0.0
N2429 N 0.60597 0.76843 0.57371 0.0
C2430 C 0.60276 0.78816 0.62168 0.0
C2431 C 0.60055 0.78542 0.51618 0.0
C2432 C 0.6033 0.77288 0.52048 0.0
C2433 C 0.60079 0.7936 0.56709 0.0
H2434 H 0.60794 0.77209 0.66562 0.0
H2435 H 0.60412 0.76732 0.48102 0.0
O2436 O 0.63305 0.73373 0.59603 0.0
O2437 O 0.61062 0.74384 0.65869 0.0
O2438 O 0.63728 0.76646 0.5739 0.0
O2439 O 0.6091 0.73706 0.52428 0.0
H2440 H 0.62409 0.72587 0.70666 0.0
H2441 H 0.64911 0.72034 0.56259 0.0
H2442 H 0.62996 0.70853 0.76697 0.0
H2443 H 0.65466 0.70318 0.62562 0.0
H2444 H 0.55916 0.72584 0.62125 0.0
H2445 H 0.60124 0.7427 0.76824 0.0
H2446 H 0.58608 0.73439 0.58807 0.0
H2447 H 0.57404 0.73414 0.79839 0.0
H2448 H 0.68024 0.76466 0.75613 0.0
H2449 H 0.64391 0.76915 0.84335 0.0
H2450 H 0.58294 0.67063 0.56693 0.0
H2451 H 0.57896 0.68566 0.74147 0.0
H2452 H 0.63775 0.78826 0.6429 0.0
H2453 H 0.66626 0.77212 0.5604 0.0
H2454 H 0.6616 0.81 0.68757 0.0
H2455 H 0.68963 0.79424 0.60603 0.0
H2456 H 0.6196 0.75454 0.42846 0.0
H2457 H 0.57961 0.7154 0.50728 0.0
H2458 H 0.60399 0.7507 0.33833 0.0
H2459 H 0.56463 0.71238 0.41598 0.0
H2460 H 0.65517 0.73404 0.35569 0.0
H2461 H 0.66832 0.78239 0.38366 0.0
H2462 H 0.60337 0.7942 0.6621 0.0
H2463 H 0.59892 0.78906 0.47318 0.0
Li2464 Li 0.27329 0.88192 0.60097 0.0
Li2465 Li 0.25107 0.88191 0.63817 0.0
Li2466 Li 0.24682 0.85975 0.58152 0.0
Li2467 Li 0.25506 0.88561 0.53238 0.0
C2468 C 0.26198 0.85622 0.67664 0.0
N2469 N 0.27046 0.83492 0.71417 0.0
C2470 C 0.26142 0.85267 0.73637 0.0
C2471 C 0.26677 0.84888 0.63605 0.0
C2472 C 0.26579 0.84189 0.75447 0.0
C2473 C 0.27103 0.83816 0.65585 0.0
C2474 C 0.27866 0.91152 0.63142 0.0
C2475 C 0.29692 0.93891 0.64557 0.0
N2476 N 0.29941 0.9359 0.70161 0.0
C2477 C 0.28137 0.90869 0.68919 0.0
C2478 C 0.28647 0.92674 0.60937 0.0
C2479 C 0.29192 0.92117 0.72396 0.0
C2480 C 0.30631 0.89842 0.58168 0.0
N2481 N 0.29486 0.88925 0.62022 0.0
C2482 C 0.3139 0.89375 0.69424 0.0
C2483 C 0.29842 0.88687 0.67565 0.0
C2484 C 0.32601 0.9036 0.65612 0.0
C2485 C 0.32201 0.90576 0.59878 0.0
H2486 H 0.3032 0.90053 0.53844 0.0
H2487 H 0.28926 0.8802 0.70674 0.0
C2488 C 0.23913 0.87787 0.75156 0.0
N2489 N 0.24381 0.88775 0.70488 0.0
C2490 C 0.23456 0.88186 0.80355 0.0
C2491 C 0.2391 0.90584 0.75745 0.0
C2492 C 0.24389 0.90152 0.70668 0.0
C2493 C 0.23458 0.896 0.8066 0.0
H2494 H 0.23908 0.86694 0.74844 0.0
H2495 H 0.24778 0.90917 0.66886 0.0
C2496 C 0.26602 0.8649 0.47469 0.0
N2497 N 0.26946 0.85127 0.37412 0.0
C2498 C 0.2563 0.86227 0.42633 0.0
C2499 C 0.27767 0.86085 0.47155 0.0
C2500 C 0.25818 0.85529 0.37598 0.0
C2501 C 0.27916 0.85389 0.42042 0.0
C2502 C 0.22341 0.87255 0.5976 0.0
C2503 C 0.21214 0.86051 0.63217 0.0
C2504 C 0.22252 0.88607 0.5884 0.0
C2505 C 0.20018 0.86222 0.6572 0.0
C2506 C 0.21037 0.88732 0.61413 0.0
N2507 N 0.19955 0.87547 0.64776 0.0
C2508 C 0.2255 0.83022 0.62392 0.0
C2509 C 0.22877 0.83036 0.52086 0.0
C2510 C 0.21289 0.81499 0.62185 0.0
N2511 N 0.23292 0.83771 0.57377 0.0
C2512 C 0.21625 0.81507 0.51675 0.0
C2513 C 0.20779 0.80734 0.56749 0.0
H2514 H 0.22873 0.83642 0.66529 0.0
H2515 H 0.23461 0.83655 0.48143 0.0
C2516 C 0.26288 0.90649 0.43124 0.0
N2517 N 0.25158 0.89438 0.46253 0.0
C2518 C 0.25898 0.9118 0.38019 0.0
C2519 C 0.23197 0.89234 0.3959 0.0
C2520 C 0.23639 0.88729 0.44555 0.0
C2521 C 0.24329 0.9046 0.36159 0.0
H2522 H 0.27491 0.91192 0.44548 0.0
H2523 H 0.22761 0.87758 0.47055 0.0
O2524 O 0.25765 0.86672 0.65847 0.0
O2525 O 0.26853 0.89948 0.5962 0.0
O2526 O 0.26455 0.87192 0.52413 0.0
O2527 O 0.23546 0.87129 0.57398 0.0
H2528 H 0.25777 0.85826 0.7685 0.0
H2529 H 0.26709 0.85131 0.58976 0.0
H2530 H 0.26546 0.83908 0.80056 0.0
H2531 H 0.27475 0.83238 0.62484 0.0
H2532 H 0.30307 0.95075 0.62907 0.0
H2533 H 0.27544 0.89698 0.70696 0.0
H2534 H 0.2845 0.9291 0.56469 0.0
H2535 H 0.29415 0.91915 0.76869 0.0
H2536 H 0.31628 0.89154 0.73854 0.0
H2537 H 0.33083 0.91349 0.56797 0.0
H2538 H 0.23101 0.87402 0.84085 0.0
H2539 H 0.23922 0.91685 0.75884 0.0
H2540 H 0.24726 0.86535 0.42794 0.0
H2541 H 0.2855 0.8631 0.50816 0.0
H2542 H 0.25065 0.85306 0.33841 0.0
H2543 H 0.28807 0.85063 0.41749 0.0
H2544 H 0.21268 0.85002 0.64 0.0
H2545 H 0.23129 0.89561 0.56254 0.0
H2546 H 0.19141 0.85301 0.68424 0.0
H2547 H 0.20961 0.89775 0.60769 0.0
H2548 H 0.20662 0.80972 0.66207 0.0
H2549 H 0.21285 0.8096 0.47396 0.0
H2550 H 0.26817 0.92119 0.35508 0.0
H2551 H 0.21969 0.88661 0.38474 0.0
Li2552 Li 0.11935 0.39123 0.60149 0.0
Li2553 Li 0.11916 0.36877 0.63826 0.0
Li2554 Li 0.14143 0.38684 0.58178 0.0
Li2555 Li 0.11554 0.36937 0.53241 0.0
C2556 C 0.14487 0.40502 0.67885 0.0
N2557 N 0.16624 0.43435 0.72006 0.0
C2558 C 0.14867 0.40731 0.73855 0.0
C2559 C 0.15201 0.41763 0.64009 0.0
C2560 C 0.15948 0.42223 0.75855 0.0
C2561 C 0.16277 0.43237 0.66177 0.0
C2562 C 0.08956 0.36737 0.63008 0.0
C2563 C 0.06232 0.35939 0.64065 0.0
N2564 N 0.065 0.36452 0.69721 0.0
C2565 C 0.09205 0.37256 0.68831 0.0
C2566 C 0.0746 0.36074 0.60597 0.0
C2567 C 0.07948 0.37102 0.72152 0.0
C2568 C 0.10309 0.40797 0.58267 0.0
N2569 N 0.11212 0.40552 0.62131 0.0
C2570 C 0.10746 0.41985 0.69578 0.0
C2571 C 0.11437 0.41128 0.677 0.0
C2572 C 0.09777 0.4223 0.65749 0.0
C2573 C 0.09576 0.41633 0.59989 0.0
H2574 H 0.10107 0.40289 0.53921 0.0
H2575 H 0.12097 0.40868 0.70808 0.0
C2576 C 0.12442 0.35916 0.74674 0.0
N2577 N 0.11339 0.35551 0.70457 0.0
C2578 C 0.12068 0.35047 0.79844 0.0
C2579 C 0.09434 0.33438 0.76196 0.0
C2580 C 0.09864 0.34326 0.71064 0.0
C2581 C 0.10544 0.3381 0.80642 0.0
H2582 H 0.13607 0.36894 0.74032 0.0
H2583 H 0.09017 0.34056 0.67606 0.0
C2584 C 0.1365 0.40108 0.47531 0.0
N2585 N 0.15031 0.41815 0.37491 0.0
C2586 C 0.13907 0.39396 0.42694 0.0
C2587 C 0.14071 0.41682 0.47228 0.0
C2588 C 0.14614 0.4028 0.37668 0.0
C2589 C 0.14775 0.42527 0.42123 0.0
C2590 C 0.12847 0.35055 0.59643 0.0
C2591 C 0.14092 0.35095 0.62691 0.0
C2592 C 0.11446 0.33642 0.59052 0.0
C2593 C 0.13912 0.33719 0.65134 0.0
C2594 C 0.11312 0.32291 0.61557 0.0
N2595 N 0.12538 0.32357 0.64525 0.0
C2596 C 0.17084 0.39474 0.62463 0.0
C2597 C 0.17102 0.39857 0.52192 0.0
C2598 C 0.18609 0.39744 0.62277 0.0
N2599 N 0.16349 0.395 0.57452 0.0
C2600 C 0.18633 0.4014 0.51802 0.0
C2601 C 0.19393 0.40039 0.56867 0.0
H2602 H 0.1645 0.39146 0.66571 0.0
H2603 H 0.16496 0.39849 0.48248 0.0
C2604 C 0.09457 0.35634 0.43139 0.0
N2605 N 0.10669 0.35712 0.46262 0.0
C2606 C 0.08921 0.34709 0.38044 0.0
C2607 C 0.10862 0.33947 0.39609 0.0
C2608 C 0.11369 0.34893 0.44576 0.0
C2609 C 0.09637 0.33858 0.36184 0.0
H2610 H 0.08919 0.36298 0.44561 0.0
H2611 H 0.12337 0.3498 0.4708 0.0
O2612 O 0.13434 0.39043 0.65884 0.0
O2613 O 0.10172 0.36897 0.59632 0.0
O2614 O 0.12936 0.39258 0.5246 0.0
O2615 O 0.12982 0.36397 0.5736 0.0
H2616 H 0.14326 0.39765 0.76912 0.0
H2617 H 0.14934 0.41604 0.5938 0.0
H2618 H 0.16249 0.42418 0.80466 0.0
H2619 H 0.16837 0.44223 0.63222 0.0
H2620 H 0.05067 0.35428 0.62257 0.0
H2621 H 0.10358 0.37777 0.7076 0.0
H2622 H 0.07251 0.35672 0.56088 0.0
H2623 H 0.08125 0.37501 0.76659 0.0
H2624 H 0.10954 0.42428 0.74031 0.0
H2625 H 0.08814 0.41756 0.56893 0.0
H2626 H 0.12945 0.35352 0.83224 0.0
H2627 H 0.0825 0.3248 0.76715 0.0
H2628 H 0.13586 0.38179 0.42848 0.0
H2629 H 0.13851 0.42244 0.50889 0.0
H2630 H 0.14832 0.39747 0.3391 0.0
H2631 H 0.15114 0.43748 0.41837 0.0
H2632 H 0.15182 0.36178 0.63202 0.0
H2633 H 0.10464 0.33595 0.5676 0.0
H2634 H 0.14865 0.33733 0.67526 0.0
H2635 H 0.10232 0.31192 0.61167 0.0
H2636 H 0.19127 0.39621 0.66287 0.0
H2637 H 0.19194 0.40377 0.47543 0.0
H2638 H 0.07981 0.34688 0.35536 0.0
H2639 H 0.11432 0.33291 0.38478 0.0
Li2640 Li 0.2487 0.38838 0.57542 0.0
Li2641 Li 0.25266 0.36902 0.63658 0.0
Li2642 Li 0.27444 0.39168 0.59325 0.0
Li2643 Li 0.25736 0.37083 0.52852 0.0
C2644 C 0.26792 0.40295 0.69037 0.0
N2645 N 0.28655 0.42686 0.76647 0.0
C2646 C 0.27052 0.39957 0.74749 0.0
C2647 C 0.27459 0.41848 0.67227 0.0
C2648 C 0.28003 0.41183 0.78523 0.0
C2649 C 0.28403 0.43041 0.71129 0.0
C2650 C 0.22688 0.34963 0.56133 0.0
C2651 C 0.21991 0.32254 0.55874 0.0
N2652 N 0.20558 0.31875 0.5376 0.0
C2653 C 0.2121 0.3455 0.53951 0.0
C2654 C 0.23085 0.3381 0.57099 0.0
C2655 C 0.20149 0.32981 0.52783 0.0
C2656 C 0.22466 0.3906 0.52043 0.0
N2657 N 0.23461 0.39599 0.56686 0.0
C2658 C 0.22011 0.4068 0.61031 0.0
C2659 C 0.23282 0.40428 0.61074 0.0
C2660 C 0.20905 0.40054 0.56468 0.0
C2661 C 0.21176 0.39278 0.51835 0.0
H2662 H 0.22621 0.38375 0.48684 0.0
H2663 H 0.24076 0.4082 0.64767 0.0
C2664 C 0.25697 0.35571 0.73701 0.0
N2665 N 0.24582 0.35608 0.70344 0.0
C2666 C 0.25289 0.3471 0.78895 0.0
C2667 C 0.22587 0.33927 0.77036 0.0
C2668 C 0.2305 0.34814 0.71889 0.0
C2669 C 0.23716 0.33873 0.80635 0.0
H2670 H 0.26909 0.36239 0.72392 0.0
H2671 H 0.22192 0.34879 0.69147 0.0
C2672 C 0.27508 0.40616 0.4842 0.0
N2673 N 0.29481 0.432 0.41795 0.0
C2674 C 0.28416 0.40493 0.43974 0.0
C2675 C 0.27573 0.42042 0.49397 0.0
C2676 C 0.29415 0.41817 0.40701 0.0
C2677 C 0.28587 0.43338 0.46028 0.0
C2678 C 0.2824 0.36774 0.57936 0.0
C2679 C 0.29325 0.37719 0.53701 0.0
C2680 C 0.28419 0.3562 0.60766 0.0
C2681 C 0.30575 0.37491 0.52354 0.0
C2682 C 0.29683 0.35426 0.59288 0.0
N2683 N 0.30726 0.36359 0.55149 0.0
C2684 C 0.2998 0.40159 0.66635 0.0
C2685 C 0.3067 0.41817 0.58326 0.0
C2686 C 0.31489 0.41018 0.68885 0.0
N2687 N 0.2959 0.40574 0.61479 0.0
C2688 C 0.32211 0.42687 0.60346 0.0
C2689 C 0.32626 0.42288 0.65702 0.0
H2690 H 0.29113 0.39142 0.68982 0.0
H2691 H 0.30353 0.42123 0.54211 0.0
C2692 C 0.24278 0.35822 0.42215 0.0
N2693 N 0.25374 0.35852 0.45902 0.0
C2694 C 0.23811 0.3487 0.37236 0.0
C2695 C 0.25644 0.34027 0.39806 0.0
C2696 C 0.26061 0.3498 0.44799 0.0
C2697 C 0.2449 0.33949 0.35992 0.0
H2698 H 0.23743 0.36517 0.43223 0.0
H2699 H 0.26906 0.34995 0.47833 0.0
O2700 O 0.25894 0.39109 0.65235 0.0
O2701 O 0.23752 0.36496 0.57187 0.0
O2702 O 0.26516 0.39332 0.51637 0.0
O2703 O 0.27015 0.36985 0.59371 0.0
H2704 H 0.26537 0.38762 0.76236 0.0
H2705 H 0.27262 0.42129 0.6284 0.0
H2706 H 0.28224 0.40939 0.82941 0.0
H2707 H 0.28938 0.44248 0.69768 0.0
H2708 H 0.22282 0.31349 0.56592 0.0
H2709 H 0.20889 0.35432 0.53156 0.0
H2710 H 0.24229 0.34113 0.58743 0.0
H2711 H 0.19 0.32642 0.51091 0.0
H2712 H 0.21861 0.413 0.64662 0.0
H2713 H 0.20348 0.3875 0.48278 0.0
H2714 H 0.26202 0.34727 0.81573 0.0
H2715 H 0.2136 0.33285 0.7816 0.0
H2716 H 0.28344 0.39386 0.43042 0.0
H2717 H 0.26841 0.42143 0.52693 0.0
H2718 H 0.30133 0.41742 0.37275 0.0
H2719 H 0.28657 0.44452 0.46761 0.0
H2720 H 0.29208 0.38623 0.51511 0.0
H2721 H 0.27587 0.34878 0.64052 0.0
H2722 H 0.31425 0.38217 0.49091 0.0
H2723 H 0.29835 0.34535 0.61433 0.0
H2724 H 0.31779 0.40661 0.72973 0.0
H2725 H 0.33072 0.43653 0.57751 0.0
H2726 H 0.22927 0.34855 0.34383 0.0
H2727 H 0.26184 0.33323 0.39032 0.0
Li2728 Li 0.61347 0.86068 0.57511 0.0
Li2729 Li 0.63284 0.88393 0.6365 0.0
Li2730 Li 0.61022 0.88313 0.59317 0.0
Li2731 Li 0.6311 0.88692 0.52846 0.0
C2732 C 0.59894 0.86534 0.69027 0.0
N2733 N 0.57511 0.86019 0.76665 0.0
C2734 C 0.60237 0.87126 0.74746 0.0
C2735 C 0.58339 0.8566 0.67224 0.0
C2736 C 0.59016 0.86858 0.78535 0.0
C2737 C 0.57151 0.85418 0.7114 0.0
C2738 C 0.65227 0.87762 0.56153 0.0
C2739 C 0.67933 0.89784 0.55931 0.0
N2740 N 0.68322 0.88733 0.53858 0.0
C2741 C 0.65651 0.86703 0.54014 0.0
C2742 C 0.66375 0.89316 0.57117 0.0
C2743 C 0.67223 0.87216 0.52885 0.0
C2744 C 0.61161 0.83456 0.52059 0.0
N2745 N 0.60579 0.83896 0.5661 0.0
C2746 C 0.59424 0.81339 0.6078 0.0
C2747 C 0.59694 0.82869 0.60864 0.0
C2748 C 0.6009 0.80872 0.56321 0.0
C2749 C 0.60929 0.81944 0.51821 0.0
H2750 H 0.61886 0.8431 0.48805 0.0
H2751 H 0.59268 0.83258 0.64487 0.0
C2752 C 0.6462 0.90153 0.737 0.0
N2753 N 0.64578 0.88998 0.70343 0.0
C2754 C 0.65483 0.90606 0.78891 0.0
C2755 C 0.66258 0.88682 0.77028 0.0
C2756 C 0.65369 0.88258 0.71885 0.0
C2757 C 0.66317 0.89866 0.80628 0.0
H2758 H 0.63954 0.907 0.72394 0.0
H2759 H 0.65301 0.87333 0.69143 0.0
C2760 C 0.59574 0.8693 0.48405 0.0
N2761 N 0.56985 0.86307 0.4179 0.0
C2762 C 0.59692 0.87955 0.43946 0.0
C2763 C 0.5815 0.85568 0.49401 0.0
C2764 C 0.58367 0.87625 0.40678 0.0
C2765 C 0.56851 0.85279 0.46036 0.0
C2766 C 0.63418 0.915 0.57927 0.0
C2767 C 0.62476 0.91638 0.53673 0.0
C2768 C 0.64569 0.92835 0.60759 0.0
C2769 C 0.62703 0.93114 0.52311 0.0
C2770 C 0.64762 0.94291 0.59266 0.0
N2771 N 0.63832 0.94399 0.55109 0.0
C2772 C 0.60028 0.89856 0.66636 0.0
C2773 C 0.58378 0.88897 0.58299 0.0
C2774 C 0.59168 0.90506 0.68881 0.0
N2775 N 0.59617 0.89057 0.61469 0.0
C2776 C 0.57508 0.89569 0.60315 0.0
C2777 C 0.57901 0.90377 0.65682 0.0
H2778 H 0.61041 0.90003 0.68996 0.0
H2779 H 0.58077 0.88279 0.54176 0.0
C2780 C 0.64369 0.88493 0.42209 0.0
N2781 N 0.64343 0.89561 0.45898 0.0
C2782 C 0.6532 0.88976 0.37228 0.0
C2783 C 0.66174 0.91653 0.39803 0.0
C2784 C 0.6522 0.91119 0.44796 0.0
C2785 C 0.66247 0.90575 0.35985 0.0
H2786 H 0.6367 0.87263 0.43215 0.0
H2787 H 0.65209 0.91951 0.47833 0.0
O2788 O 0.61076 0.86816 0.65213 0.0
O2789 O 0.63691 0.87288 0.57165 0.0
O2790 O 0.6086 0.87228 0.51619 0.0
O2791 O 0.63208 0.90066 0.5938 0.0
H2792 H 0.61434 0.87796 0.76229 0.0
H2793 H 0.58053 0.85188 0.6283 0.0
H2794 H 0.59265 0.87319 0.82958 0.0
H2795 H 0.55942 0.84755 0.69783 0.0
H2796 H 0.68834 0.90983 0.56648 0.0
H2797 H 0.64774 0.85497 0.53222 0.0
H2798 H 0.66064 0.90154 0.58729 0.0
H2799 H 0.67569 0.86409 0.51226 0.0
H2800 H 0.58755 0.80551 0.64304 0.0
H2801 H 0.6149 0.81655 0.48351 0.0
H2802 H 0.6547 0.91504 0.81568 0.0
H2803 H 0.66898 0.88094 0.78148 0.0
H2804 H 0.60798 0.88992 0.43001 0.0
H2805 H 0.58052 0.84738 0.52707 0.0
H2806 H 0.58438 0.88414 0.37242 0.0
H2807 H 0.55739 0.84235 0.46784 0.0
H2808 H 0.61575 0.90616 0.51481 0.0
H2809 H 0.65309 0.92747 0.64061 0.0
H2810 H 0.61979 0.93237 0.49034 0.0
H2811 H 0.6565 0.95336 0.61413 0.0
H2812 H 0.59521 0.91148 0.72979 0.0
H2813 H 0.56545 0.89467 0.57708 0.0
H2814 H 0.65331 0.88105 0.34374 0.0
H2815 H 0.66882 0.92897 0.3903 0.0
Li2816 Li 0.11762 0.74908 0.63614 0.0
Li2817 Li 0.14085 0.7529 0.57477 0.0
Li2818 Li 0.11465 0.74437 0.52815 0.0
Li2819 Li 0.11837 0.72723 0.59279 0.0
C2820 C 0.12408 0.77487 0.56086 0.0
N2821 N 0.1146 0.79624 0.53712 0.0
C2822 C 0.13474 0.78962 0.53887 0.0
C2823 C 0.1086 0.77096 0.57069 0.0
C2824 C 0.12972 0.80027 0.52719 0.0
C2825 C 0.10403 0.78194 0.55843 0.0
C2826 C 0.13614 0.7337 0.68995 0.0
C2827 C 0.14735 0.71748 0.71125 0.0
N2828 N 0.14128 0.71504 0.76641 0.0
C2829 C 0.13016 0.73117 0.74706 0.0
C2830 C 0.14493 0.72694 0.67205 0.0
C2831 C 0.13284 0.72165 0.78499 0.0
C2832 C 0.10003 0.74494 0.7366 0.0
N2833 N 0.11163 0.75602 0.70304 0.0
C2834 C 0.11495 0.77604 0.76991 0.0
C2835 C 0.11912 0.77133 0.71847 0.0
C2836 C 0.10307 0.76483 0.80591 0.0
C2837 C 0.09556 0.74909 0.78853 0.0
H2838 H 0.09449 0.73281 0.72352 0.0
H2839 H 0.12841 0.77986 0.69104 0.0
C2840 C 0.16708 0.77692 0.51983 0.0
N2841 N 0.16256 0.76688 0.56594 0.0
C2842 C 0.1822 0.78975 0.51763 0.0
C2843 C 0.18797 0.78111 0.60872 0.0
C2844 C 0.1727 0.76849 0.60931 0.0
C2845 C 0.19275 0.79228 0.56348 0.0
H2846 H 0.15864 0.7755 0.48663 0.0
H2847 H 0.1687 0.76047 0.646 0.0
C2848 C 0.08654 0.71939 0.57861 0.0
N2849 N 0.05757 0.69459 0.54981 0.0
C2850 C 0.0852 0.70864 0.53596 0.0
C2851 C 0.07316 0.71753 0.60675 0.0
C2852 C 0.07045 0.69617 0.52201 0.0
C2853 C 0.05861 0.70492 0.5915 0.0
C2854 C 0.1323 0.72661 0.48384 0.0
C2855 C 0.12211 0.7175 0.43918 0.0
C2856 C 0.14596 0.72608 0.49402 0.0
C2857 C 0.12551 0.70758 0.40666 0.0
C2858 C 0.14894 0.71602 0.46054 0.0
N2859 N 0.13872 0.70703 0.41801 0.0
C2860 C 0.11672 0.75894 0.42171 0.0
C2861 C 0.09043 0.74137 0.44772 0.0
C2862 C 0.11196 0.76369 0.3719 0.0
N2863 N 0.106 0.74807 0.45867 0.0
C2864 C 0.08514 0.74562 0.39778 0.0
C2865 C 0.09597 0.75707 0.35955 0.0
H2866 H 0.12903 0.76416 0.43172 0.0
H2867 H 0.08208 0.73298 0.47814 0.0
C2868 C 0.10289 0.70186 0.66587 0.0
N2869 N 0.11094 0.70577 0.61432 0.0
C2870 C 0.09643 0.68678 0.68843 0.0
C2871 C 0.10595 0.67959 0.60312 0.0
C2872 C 0.11262 0.69499 0.58285 0.0
C2873 C 0.09782 0.67543 0.65667 0.0
H2874 H 0.10136 0.71052 0.68932 0.0
H2875 H 0.11886 0.69818 0.54173 0.0
O2876 O 0.12872 0.76419 0.57136 0.0
O2877 O 0.13334 0.74271 0.65177 0.0
O2878 O 0.10086 0.7316 0.59345 0.0
O2879 O 0.12923 0.73645 0.51581 0.0
H2880 H 0.14676 0.79278 0.53079 0.0
H2881 H 0.10017 0.75954 0.58725 0.0
H2882 H 0.13783 0.81174 0.51014 0.0
H2883 H 0.09208 0.77908 0.56573 0.0
H2884 H 0.15402 0.71207 0.69778 0.0
H2885 H 0.12343 0.73641 0.76179 0.0
H2886 H 0.14971 0.72884 0.62819 0.0
H2887 H 0.12819 0.7195 0.82916 0.0
H2888 H 0.12091 0.78832 0.78113 0.0
H2889 H 0.08655 0.74001 0.8153 0.0
H2890 H 0.18519 0.79812 0.48238 0.0
H2891 H 0.19573 0.78247 0.64464 0.0
H2892 H 0.09545 0.70986 0.5142 0.0
H2893 H 0.07401 0.72577 0.63987 0.0
H2894 H 0.06925 0.68774 0.48914 0.0
H2895 H 0.04814 0.70335 0.61282 0.0
H2896 H 0.11172 0.71812 0.42954 0.0
H2897 H 0.15422 0.73343 0.52712 0.0
H2898 H 0.11766 0.70037 0.37226 0.0
H2899 H 0.15942 0.7154 0.46819 0.0
H2900 H 0.1207 0.77245 0.34331 0.0
H2901 H 0.07271 0.74035 0.39011 0.0
H2902 H 0.08996 0.68388 0.72932 0.0
H2903 H 0.10704 0.671 0.57723 0.0
Li2904 Li 0.05858 0.60727 0.7414 0.0
Li2905 Li 0.03772 0.59019 0.80618 0.0
Li2906 Li 0.05535 0.58159 0.75953 0.0
Li2907 Li 0.03597 0.58543 0.69815 0.0
C2908 C 0.0731 0.60799 0.85045 0.0
N2909 N 0.099 0.62771 0.91642 0.0
C2910 C 0.07191 0.61708 0.89493 0.0
C2911 C 0.08733 0.60861 0.84052 0.0
C2912 C 0.08518 0.62707 0.92752 0.0
C2913 C 0.10033 0.61874 0.87408 0.0
C2914 C 0.0346 0.61516 0.75522 0.0
C2915 C 0.02112 0.62959 0.7417 0.0
N2916 N 0.03042 0.64 0.78315 0.0
C2917 C 0.04403 0.626 0.79764 0.0
C2918 C 0.02307 0.61696 0.72689 0.0
C2919 C 0.04174 0.63849 0.81114 0.0
C2920 C 0.06843 0.63261 0.66818 0.0
N2921 N 0.07259 0.62874 0.71978 0.0
C2922 C 0.09368 0.65497 0.73102 0.0
C2923 C 0.08502 0.63956 0.75129 0.0
C2924 C 0.08968 0.65909 0.67743 0.0
C2925 C 0.07699 0.64769 0.64562 0.0
H2926 H 0.05827 0.62392 0.64472 0.0
H2927 H 0.08808 0.63641 0.79246 0.0
C2928 C 0.02513 0.57562 0.91255 0.0
N2929 N 0.0254 0.58656 0.87567 0.0
C2930 C 0.01562 0.57094 0.96238 0.0
C2931 C 0.00714 0.58923 0.93668 0.0
C2932 C 0.01666 0.5934 0.88673 0.0
C2933 C 0.00639 0.5777 0.97484 0.0
H2934 H 0.0321 0.57028 0.90246 0.0
H2935 H 0.01679 0.60185 0.85638 0.0
C2936 C 0.06987 0.60078 0.64434 0.0
N2937 N 0.09369 0.6195 0.568 0.0
C2938 C 0.06643 0.60327 0.58716 0.0
C2939 C 0.08542 0.60761 0.66239 0.0
C2940 C 0.07864 0.61282 0.5493 0.0
C2941 C 0.09729 0.61709 0.62325 0.0
C2942 C 0.01655 0.55971 0.77311 0.0
C2943 C 0.01231 0.54486 0.79437 0.0
C2944 C 0.00508 0.56378 0.76353 0.0
C2945 C 0.99658 0.53426 0.80559 0.0
C2946 C 0.98949 0.55286 0.77531 0.0
N2947 N 0.9856 0.53845 0.79591 0.0
C2948 C 0.05722 0.55733 0.814 0.0
C2949 C 0.07192 0.56616 0.72604 0.0
C2950 C 0.05954 0.54453 0.81635 0.0
N2951 N 0.06305 0.56757 0.76855 0.0
C2952 C 0.07462 0.55357 0.72685 0.0
C2953 C 0.06794 0.54222 0.77137 0.0
H2954 H 0.04995 0.5586 0.84651 0.0
H2955 H 0.0762 0.57433 0.68985 0.0
C2956 C 0.0226 0.58966 0.59767 0.0
N2957 N 0.02302 0.57854 0.63124 0.0
C2958 C 0.01398 0.58556 0.54575 0.0
C2959 C 0.00622 0.55856 0.5644 0.0
C2960 C 0.01511 0.56322 0.61583 0.0
C2961 C 0.00563 0.56982 0.52839 0.0
H2962 H 0.02926 0.60179 0.61072 0.0
H2963 H 0.01579 0.55465 0.64326 0.0
O2964 O 0.06022 0.59807 0.81841 0.0
O2965 O 0.03672 0.60293 0.74081 0.0
O2966 O 0.05805 0.59177 0.68247 0.0
O2967 O 0.03191 0.57033 0.76306 0.0
H2968 H 0.06086 0.61639 0.90437 0.0
H2969 H 0.08832 0.60127 0.80756 0.0
H2970 H 0.08447 0.63427 0.96178 0.0
H2971 H 0.11146 0.61943 0.86662 0.0
H2972 H 0.01222 0.63111 0.72022 0.0
H2973 H 0.05306 0.62482 0.81956 0.0
H2974 H 0.01566 0.60865 0.69396 0.0
H2975 H 0.04898 0.64698 0.84381 0.0
H2976 H 0.10334 0.6636 0.75694 0.0
H2977 H 0.07341 0.65056 0.60471 0.0
H2978 H 0.0155 0.56212 0.9909 0.0
H2979 H 1.00008 0.59461 0.94444 0.0
H2980 H 0.05447 0.59799 0.57232 0.0
H2981 H 0.08828 0.60575 0.70632 0.0
H2982 H 0.07614 0.61495 0.50507 0.0
H2983 H 0.10938 0.62256 0.63682 0.0
H2984 H 0.02107 0.54156 0.80224 0.0
H2985 H 0.0082 0.57528 0.74751 0.0
H2986 H 0.99312 0.52272 0.82207 0.0
H2987 H 0.98049 0.55585 0.76819 0.0
H2988 H 0.05391 0.53602 0.851 0.0
H2989 H 0.08133 0.5524 0.69164 0.0
H2990 H 0.01411 0.59467 0.51897 0.0
H2991 H 0.99982 0.54628 0.5532 0.0
Li2992 Li 0.41622 0.45074 0.69802 0.0
Li2993 Li 0.42016 0.47405 0.75923 0.0
Li2994 Li 0.41153 0.44784 0.8061 0.0
Li2995 Li 0.39443 0.4516 0.74142 0.0
C2996 C 0.44202 0.45717 0.77333 0.0
N2997 N 0.46334 0.44763 0.79728 0.0
C2998 C 0.45676 0.46781 0.79535 0.0
C2999 C 0.43808 0.44167 0.76358 0.0
C3000 C 0.46739 0.46276 0.80714 0.0
C3001 C 0.44903 0.43708 0.77594 0.0
C3002 C 0.40093 0.46937 0.64425 0.0
C3003 C 0.3848 0.48069 0.62324 0.0
N3004 N 0.38228 0.47461 0.56808 0.0
C3005 C 0.39832 0.46337 0.58717 0.0
C3006 C 0.39425 0.47823 0.66229 0.0
C3007 C 0.38881 0.4661 0.54939 0.0
C3008 C 0.41195 0.43311 0.59758 0.0
N3009 N 0.42308 0.44466 0.63114 0.0
C3010 C 0.44305 0.44786 0.56425 0.0
C3011 C 0.43839 0.45208 0.61571 0.0
C3012 C 0.43179 0.43602 0.52825 0.0
C3013 C 0.41605 0.4286 0.54564 0.0
H3014 H 0.39983 0.42764 0.61065 0.0
H3015 H 0.44696 0.46133 0.64313 0.0
C3016 C 0.44416 0.50032 0.81427 0.0
N3017 N 0.43422 0.49575 0.76781 0.0
C3018 C 0.45704 0.51541 0.81638 0.0
C3019 C 0.44868 0.52107 0.72439 0.0
C3020 C 0.436 0.50583 0.72393 0.0
C3021 C 0.45973 0.52589 0.77006 0.0
H3022 H 0.44262 0.49193 0.84786 0.0
H3023 H 0.42806 0.50179 0.68699 0.0
C3024 C 0.38649 0.41971 0.75541 0.0
N3025 N 0.36164 0.39072 0.78357 0.0
C3026 C 0.37568 0.41833 0.7979 0.0
C3027 C 0.38466 0.40636 0.72713 0.0
C3028 C 0.36319 0.40357 0.81151 0.0
C3029 C 0.37202 0.3918 0.74205 0.0
C3030 C 0.39382 0.46548 0.85041 0.0
C3031 C 0.38473 0.45521 0.89494 0.0
C3032 C 0.39321 0.47911 0.8405 0.0
C3033 C 0.37477 0.45851 0.92761 0.0
C3034 C 0.38311 0.48199 0.87412 0.0
N3035 N 0.37415 0.4717 0.91653 0.0
C3036 C 0.42612 0.44985 0.91249 0.0
C3037 C 0.40839 0.42359 0.88658 0.0
C3038 C 0.43082 0.44503 0.96227 0.0
N3039 N 0.41519 0.43917 0.87559 0.0
C3040 C 0.4126 0.41825 0.93649 0.0
C3041 C 0.42411 0.42904 0.97466 0.0
H3042 H 0.43142 0.46216 0.90244 0.0
H3043 H 0.39996 0.41526 0.85621 0.0
C3044 C 0.36905 0.43613 0.66838 0.0
N3045 N 0.37296 0.44419 0.71992 0.0
C3046 C 0.35396 0.42966 0.64589 0.0
C3047 C 0.34678 0.43918 0.73123 0.0
C3048 C 0.36219 0.44587 0.75143 0.0
C3049 C 0.34261 0.43104 0.67769 0.0
H3050 H 0.3777 0.4346 0.64492 0.0
H3051 H 0.36538 0.45211 0.79255 0.0
O3052 O 0.43136 0.46183 0.7627 0.0
O3053 O 0.40991 0.4665 0.6823 0.0
O3054 O 0.39873 0.43405 0.74091 0.0
O3055 O 0.40371 0.4625 0.8183 0.0
H3056 H 0.45994 0.47983 0.80339 0.0
H3057 H 0.42665 0.43326 0.74699 0.0
H3058 H 0.47885 0.47087 0.82421 0.0
H3059 H 0.44614 0.42512 0.76869 0.0
H3060 H 0.37946 0.48742 0.6368 0.0
H3061 H 0.40348 0.45658 0.57234 0.0
H3062 H 0.39622 0.48302 0.70614 0.0
H3063 H 0.38659 0.46143 0.50523 0.0
H3064 H 0.45533 0.45376 0.55302 0.0
H3065 H 0.40694 0.41962 0.51887 0.0
H3066 H 0.46532 0.51844 0.85198 0.0
H3067 H 0.45017 0.52877 0.68809 0.0
H3068 H 0.37688 0.42856 0.81978 0.0
H3069 H 0.39295 0.40724 0.69415 0.0
H3070 H 0.35471 0.40234 0.84424 0.0
H3071 H 0.37047 0.38135 0.72061 0.0
H3072 H 0.38541 0.44485 0.90438 0.0
H3073 H 0.40054 0.48741 0.80749 0.0
H3074 H 0.36758 0.45062 0.96192 0.0
H3075 H 0.38243 0.49244 0.86668 0.0
H3076 H 0.43964 0.45374 0.99081 0.0
H3077 H 0.40725 0.40581 0.94419 0.0
H3078 H 0.35105 0.42319 0.60502 0.0
H3079 H 0.33819 0.44027 0.75716 0.0
Li3080 Li 0.55021 0.94316 0.74119 0.0
Li3081 Li 0.55402 0.96406 0.80583 0.0
Li3082 Li 0.52777 0.94641 0.75943 0.0
Li3083 Li 0.55096 0.96576 0.69787 0.0
C3084 C 0.53639 0.92869 0.85036 0.0
N3085 N 0.5301 0.90277 0.91646 0.0
C3086 C 0.54663 0.92984 0.89496 0.0
C3087 C 0.52276 0.91447 0.84037 0.0
C3088 C 0.5433 0.91657 0.92761 0.0
C3089 C 0.51983 0.90146 0.87399 0.0
C3090 C 0.58207 0.96715 0.75515 0.0
C3091 C 0.61 0.98066 0.74219 0.0
N3092 N 0.61107 0.97135 0.78375 0.0
C3093 C 0.58343 0.95772 0.79768 0.0
C3094 C 0.59544 0.9787 0.72704 0.0
C3095 C 0.59819 0.96002 0.81153 0.0
C3096 C 0.56563 0.93321 0.66795 0.0
N3097 N 0.55764 0.92911 0.71965 0.0
C3098 C 0.56276 0.90802 0.73118 0.0
C3099 C 0.55605 0.91672 0.75134 0.0
C3100 C 0.57084 0.91195 0.67749 0.0
C3101 C 0.57212 0.92461 0.64549 0.0
H3102 H 0.56709 0.94334 0.64434 0.0
H3103 H 0.54987 0.91371 0.79259 0.0
C3104 C 0.55201 0.97664 0.9121 0.0
N3105 N 0.56271 0.9764 0.87527 0.0
C3106 C 0.55681 0.98616 0.96191 0.0
C3107 C 0.5836 0.99473 0.93629 0.0
C3108 C 0.57828 0.98519 0.88635 0.0
C3109 C 0.57279 0.99544 0.9744 0.0
H3110 H 0.53971 0.96964 0.90199 0.0
H3111 H 0.58663 0.98509 0.85604 0.0
C3112 C 0.53239 0.93186 0.64417 0.0
N3113 N 0.52725 0.90805 0.5677 0.0
C3114 C 0.5383 0.93531 0.58696 0.0
C3115 C 0.52367 0.9163 0.66218 0.0
C3116 C 0.53562 0.92311 0.54903 0.0
C3117 C 0.52126 0.90444 0.62297 0.0
C3118 C 0.54471 0.98522 0.77265 0.0
C3119 C 0.53411 0.98949 0.79376 0.0
C3120 C 0.56025 0.99667 0.76302 0.0
C3121 C 0.53925 0.00522 0.8048 0.0
C3122 C 0.56494 0.01227 0.77462 0.0
N3123 N 0.55443 0.01619 0.79509 0.0
C3124 C 0.50175 0.9447 0.81394 0.0
C3125 C 0.49573 0.9298 0.72646 0.0
C3126 C 0.48665 0.94245 0.81635 0.0
N3127 N 0.50607 0.93874 0.76867 0.0
C3128 C 0.48046 0.92715 0.72736 0.0
C3129 C 0.47588 0.93397 0.77164 0.0
H3130 H 0.51034 0.95203 0.84622 0.0
H3131 H 0.49956 0.92542 0.6904 0.0
C3132 C 0.56855 0.97914 0.59737 0.0
N3133 N 0.55697 0.97868 0.63091 0.0
C3134 C 0.57305 0.98776 0.54544 0.0
C3135 C 0.55372 0.99542 0.56399 0.0
C3136 C 0.54952 0.98654 0.61544 0.0
C3137 C 0.5656 0.99605 0.52802 0.0
H3138 H 0.57406 0.97253 0.61048 0.0
H3139 H 0.54025 0.98582 0.64284 0.0
O3140 O 0.53941 0.94157 0.81825 0.0
O3141 O 0.56774 0.96502 0.74039 0.0
O3142 O 0.5352 0.94367 0.68235 0.0
O3143 O 0.53995 0.96985 0.76279 0.0
H3144 H 0.55701 0.94088 0.90444 0.0
H3145 H 0.51447 0.91351 0.80731 0.0
H3146 H 0.55117 0.91725 0.96197 0.0
H3147 H 0.50938 0.89035 0.86648 0.0
H3148 H 0.62046 0.98958 0.72088 0.0
H3149 H 0.5732 0.94868 0.81943 0.0
H3150 H 0.59457 0.98611 0.69402 0.0
H3151 H 0.59941 0.95278 0.8443 0.0
H3152 H 0.56175 0.89839 0.75726 0.0
H3153 H 0.57854 0.92814 0.60449 0.0
H3154 H 0.54808 0.98625 0.9904 0.0
H3155 H 0.59603 0.00182 0.94407 0.0
H3156 H 0.54498 0.94727 0.57215 0.0
H3157 H 0.51896 0.91343 0.70613 0.0
H3158 H 0.54022 0.92561 0.50478 0.0
H3159 H 0.51464 0.89235 0.63652 0.0
H3160 H 0.52205 0.98074 0.80166 0.0
H3161 H 0.56863 0.99354 0.74711 0.0
H3162 H 0.53118 0.00871 0.82117 0.0
H3163 H 0.57693 0.02126 0.76746 0.0
H3164 H 0.48384 0.94819 0.8508 0.0
H3165 H 0.47253 0.92038 0.69237 0.0
H3166 H 0.58205 0.98767 0.51869 0.0
H3167 H 0.5478 0.00177 0.55275 0.0
loop_
_geom_bond_atom_site_label_1
_geom_bond_atom_site_label_2
_geom_bond_distance
_geom_bond_site_symmetry_2
_ccdc_geom_bond_type
Li0 N17 1.990 . S
Li0 O60 1.956 . S
Li0 O61 1.970 . S
Li0 O62 1.961 . S
Li1 N25 1.990 . S
Li1 O60 1.970 . S
Li1 O61 1.956 . S
Li1 O63 1.961 . S
Li2 N47 1.990 1_554 S
Li2 O60 1.961 . S
Li2 O62 1.956 . S
Li2 O63 1.970 . S
Li3 N53 1.990 . S
Li3 O61 1.961 . S
Li3 O62 1.970 . S
Li3 O63 1.956 . S
C4 C6 1.348 . S
C4 C7 1.356 . S
C4 O60 1.325 . S
N5 C8 1.314 . S
N5 C9 1.279 . S
C6 C4 1.348 . S
C6 C8 1.353 . S
C6 H64 0.929 . S
C7 C4 1.356 . S
C7 C9 1.358 . S
C7 H65 0.930 . S
C8 N5 1.314 . S
C8 C6 1.353 . S
C8 H66 0.930 . S
C9 N5 1.279 . S
C9 C7 1.358 . S
C9 H67 0.930 . S
C10 C13 1.348 . S
C10 C14 1.356 . S
C10 O61 1.325 . S
C11 N12 1.279 . S
C11 C14 1.358 . S
C11 H68 0.930 . S
N12 C11 1.279 . S
N12 C15 1.314 . S
C13 C10 1.348 . S
C13 C15 1.353 . S
C13 H69 0.929 . S
C14 C10 1.356 . S
C14 C11 1.358 . S
C14 H70 0.930 . S
C15 N12 1.314 . S
C15 C13 1.353 . S
C15 H71 0.930 . S
C16 N17 1.314 . S
C16 C21 1.353 . S
C16 H22 0.930 . S
N17 Li0 1.990 . S
N17 C16 1.314 . S
N17 C19 1.279 . S
C18 C19 1.358 . S
C18 C20 1.356 . S
C18 H72 0.930 . S
C19 N17 1.279 . S
C19 C18 1.358 . S
C19 H23 0.930 . S
C20 C18 1.356 . S
C20 C21 1.348 . S
C21 C16 1.353 . S
C21 C20 1.348 . S
C21 H73 0.929 . S
H22 C16 0.930 . S
H23 C19 0.930 . S
C24 N25 1.314 . S
C24 C26 1.353 . S
C24 H30 0.930 1_554 S
N25 Li1 1.990 . S
N25 C24 1.314 . S
N25 C28 1.279 . S
C26 C24 1.353 . S
C26 C29 1.348 . S
C26 H74 0.929 1_554 S
C27 C28 1.358 . S
C27 C29 1.356 . S
C27 H75 0.930 . S
C28 N25 1.279 . S
C28 C27 1.358 . S
C28 H31 0.930 . S
C29 C26 1.348 . S
C29 C27 1.356 . S
H30 C24 0.930 1_556 S
H31 C28 0.930 . S
C32 C34 1.348 . S
C32 C35 1.356 . S
C32 O62 1.325 . S
N33 C36 1.314 . S
N33 C37 1.279 . S
C34 C32 1.348 . S
C34 C36 1.353 . S
C34 H76 0.929 . S
C35 C32 1.356 . S
C35 C37 1.358 . S
C35 H77 0.930 . S
C36 N33 1.314 . S
C36 C34 1.353 . S
C36 H78 0.930 . S
C37 N33 1.279 . S
C37 C35 1.358 . S
C37 H79 0.930 . S
C38 C39 1.348 . S
C38 C40 1.356 . S
C38 O63 1.325 1_556 S
C39 C38 1.348 . S
C39 C41 1.353 . S
C39 H80 0.929 . S
C40 C38 1.356 . S
C40 C42 1.358 . S
C40 H81 0.930 . S
C41 C39 1.353 . S
C41 N43 1.314 . S
C41 H82 0.930 . S
C42 C40 1.358 . S
C42 N43 1.279 . S
C42 H83 0.930 . S
N43 C41 1.314 . S
N43 C42 1.279 . S
C44 C46 1.353 . S
C44 N47 1.314 . S
C44 H50 0.930 . S
C45 N47 1.279 . S
C45 C48 1.358 . S
C45 H51 0.930 . S
C46 C44 1.353 . S
C46 C49 1.348 . S
C46 H84 0.929 . S
N47 Li2 1.990 1_556 S
N47 C44 1.314 . S
N47 C45 1.279 . S
C48 C45 1.358 . S
C48 C49 1.356 . S
C48 H85 0.930 . S
C49 C46 1.348 . S
C49 C48 1.356 . S
H50 C44 0.930 . S
H51 C45 0.930 . S
C52 N53 1.314 . S
C52 C54 1.353 . S
C52 H58 0.930 . S
N53 Li3 1.990 . S
N53 C52 1.314 . S
N53 C56 1.279 . S
C54 C52 1.353 . S
C54 C57 1.348 . S
C54 H86 0.929 . S
C55 C56 1.358 1_556 S
C55 C57 1.356 1_556 S
C55 H87 0.930 . S
C56 N53 1.279 . S
C56 C55 1.358 1_554 S
C56 H59 0.930 1_554 S
C57 C54 1.348 . S
C57 C55 1.356 1_554 S
H58 C52 0.930 . S
H59 C56 0.930 1_556 S
O60 Li0 1.956 . S
O60 Li1 1.970 . S
O60 Li2 1.961 . S
O60 C4 1.325 . S
O61 Li0 1.970 . S
O61 Li1 1.956 . S
O61 Li3 1.961 . S
O61 C10 1.325 . S
O62 Li0 1.961 . S
O62 Li2 1.956 . S
O62 Li3 1.970 . S
O62 C32 1.325 . S
O63 Li1 1.961 . S
O63 Li2 1.970 . S
O63 Li3 1.956 . S
O63 C38 1.325 1_554 S
H64 C6 0.929 . S
H65 C7 0.930 . S
H66 C8 0.930 . S
H67 C9 0.930 . S
H68 C11 0.930 . S
H69 C13 0.929 . S
H70 C14 0.930 . S
H71 C15 0.930 . S
H72 C18 0.930 . S
H73 C21 0.929 . S
H74 C26 0.929 1_556 S
H75 C27 0.930 . S
H76 C34 0.929 . S
H77 C35 0.930 . S
H78 C36 0.930 . S
H79 C37 0.930 . S
H80 C39 0.929 . S
H81 C40 0.930 . S
H82 C41 0.930 . S
H83 C42 0.930 . S
H84 C46 0.929 . S
H85 C48 0.930 . S
H86 C54 0.929 . S
H87 C55 0.930 . S
Li88 N105 1.990 . S
Li88 O148 1.956 . S
Li88 O149 1.970 . S
Li88 O150 1.961 . S
Li89 N113 1.990 . S
Li89 O148 1.970 . S
Li89 O149 1.956 . S
Li89 O151 1.961 . S
Li90 N135 1.990 . S
Li90 O148 1.961 . S
Li90 O150 1.956 . S
Li90 O151 1.970 . S
Li91 N141 1.990 1_554 S
Li91 O149 1.961 . S
Li91 O150 1.970 . S
Li91 O151 1.956 . S
C92 C94 1.348 . S
C92 C95 1.356 . S
C92 O148 1.325 . S
N93 C96 1.314 . S
N93 C97 1.279 . S
C94 C92 1.348 . S
C94 C96 1.353 . S
C94 H152 0.929 . S
C95 C92 1.356 . S
C95 C97 1.358 . S
C95 H153 0.930 . S
C96 N93 1.314 . S
C96 C94 1.353 . S
C96 H154 0.930 . S
C97 N93 1.279 . S
C97 C95 1.358 . S
C97 H155 0.930 . S
C98 C101 1.348 . S
C98 C102 1.356 . S
C98 O149 1.325 . S
C99 N100 1.279 . S
C99 C102 1.358 . S
C99 H156 0.930 . S
N100 C99 1.279 . S
N100 C103 1.314 . S
C101 C98 1.348 . S
C101 C103 1.353 . S
C101 H157 0.929 . S
C102 C98 1.356 . S
C102 C99 1.358 . S
C102 H158 0.930 . S
C103 N100 1.314 . S
C103 C101 1.353 . S
C103 H159 0.930 . S
C104 N105 1.314 . S
C104 C109 1.353 . S
C104 H110 0.930 1_554 S
N105 Li88 1.990 . S
N105 C104 1.314 . S
N105 C107 1.279 . S
C106 C107 1.358 . S
C106 C108 1.356 . S
C106 H160 0.930 . S
C107 N105 1.279 . S
C107 C106 1.358 . S
C107 H111 0.930 . S
C108 C106 1.356 . S
C108 C109 1.348 . S
C109 C104 1.353 . S
C109 C108 1.348 . S
C109 H161 0.929 1_554 S
H110 C104 0.930 1_556 S
H111 C107 0.930 . S
C112 N113 1.314 . S
C112 C114 1.353 . S
C112 H118 0.930 . S
N113 Li89 1.990 . S
N113 C112 1.314 . S
N113 C116 1.279 . S
C114 C112 1.353 . S
C114 C117 1.348 . S
C114 H162 0.929 . S
C115 C116 1.358 . S
C115 C117 1.356 . S
C115 H163 0.930 . S
C116 N113 1.279 . S
C116 C115 1.358 . S
C116 H119 0.930 . S
C117 C114 1.348 . S
C117 C115 1.356 . S
H118 C112 0.930 . S
H119 C116 0.930 . S
C120 C122 1.348 . S
C120 C123 1.356 . S
C120 O150 1.325 1_556 S
N121 C124 1.314 . S
N121 C125 1.279 . S
C122 C120 1.348 . S
C122 C124 1.353 . S
C122 H164 0.929 . S
C123 C120 1.356 . S
C123 C125 1.358 . S
C123 H165 0.930 . S
C124 N121 1.314 . S
C124 C122 1.353 . S
C124 H166 0.930 . S
C125 N121 1.279 . S
C125 C123 1.358 . S
C125 H167 0.930 . S
C126 C127 1.348 . S
C126 C128 1.356 . S
C126 O151 1.325 . S
C127 C126 1.348 . S
C127 C129 1.353 . S
C127 H168 0.929 . S
C128 C126 1.356 . S
C128 C130 1.358 . S
C128 H169 0.930 . S
C129 C127 1.353 . S
C129 N131 1.314 . S
C129 H170 0.930 . S
C130 C128 1.358 . S
C130 N131 1.279 . S
C130 H171 0.930 . S
N131 C129 1.314 . S
N131 C130 1.279 . S
C132 C134 1.353 . S
C132 N135 1.314 . S
C132 H138 0.930 . S
C133 N135 1.279 . S
C133 C136 1.358 1_554 S
C133 H139 0.930 1_554 S
C134 C132 1.353 . S
C134 C137 1.348 . S
C134 H172 0.929 . S
N135 Li90 1.990 . S
N135 C132 1.314 . S
N135 C133 1.279 . S
C136 C133 1.358 1_556 S
C136 C137 1.356 1_556 S
C136 H173 0.930 . S
C137 C134 1.348 . S
C137 C136 1.356 1_554 S
H138 C132 0.930 . S
H139 C133 0.930 1_556 S
C140 N141 1.314 . S
C140 C142 1.353 . S
C140 H146 0.930 . S
N141 Li91 1.990 1_556 S
N141 C140 1.314 . S
N141 C144 1.279 . S
C142 C140 1.353 . S
C142 C145 1.348 . S
C142 H174 0.929 . S
C143 C144 1.358 . S
C143 C145 1.356 . S
C143 H175 0.930 . S
C144 N141 1.279 . S
C144 C143 1.358 . S
C144 H147 0.930 . S
C145 C142 1.348 . S
C145 C143 1.356 . S
H146 C140 0.930 . S
H147 C144 0.930 . S
O148 Li88 1.956 . S
O148 Li89 1.970 . S
O148 Li90 1.961 . S
O148 C92 1.325 . S
O149 Li88 1.970 . S
O149 Li89 1.956 . S
O149 Li91 1.961 . S
O149 C98 1.325 . S
O150 Li88 1.961 . S
O150 Li90 1.956 . S
O150 Li91 1.970 . S
O150 C120 1.325 1_554 S
O151 Li89 1.961 . S
O151 Li90 1.970 . S
O151 Li91 1.956 . S
O151 C126 1.325 . S
H152 C94 0.929 . S
H153 C95 0.930 . S
H154 C96 0.930 . S
H155 C97 0.930 . S
H156 C99 0.930 . S
H157 C101 0.929 . S
H158 C102 0.930 . S
H159 C103 0.930 . S
H160 C106 0.930 . S
H161 C109 0.929 1_556 S
H162 C114 0.929 . S
H163 C115 0.930 . S
H164 C122 0.929 . S
H165 C123 0.930 . S
H166 C124 0.930 . S
H167 C125 0.930 . S
H168 C127 0.929 . S
H169 C128 0.930 . S
H170 C129 0.930 . S
H171 C130 0.930 . S
H172 C134 0.929 . S
H173 C136 0.930 . S
H174 C142 0.929 . S
H175 C143 0.930 . S
Li176 N193 1.990 . S
Li176 O236 1.956 . S
Li176 O237 1.970 . S
Li176 O238 1.961 . S
Li177 N201 1.990 . S
Li177 O236 1.970 . S
Li177 O237 1.956 . S
Li177 O239 1.961 . S
Li178 N223 1.990 1_554 S
Li178 O236 1.961 . S
Li178 O238 1.956 . S
Li178 O239 1.970 . S
Li179 N229 1.990 . S
Li179 O237 1.961 . S
Li179 O238 1.970 . S
Li179 O239 1.956 . S
C180 C182 1.348 . S
C180 C183 1.356 . S
C180 O236 1.325 . S
N181 C184 1.314 . S
N181 C185 1.279 . S
C182 C180 1.348 . S
C182 C184 1.353 . S
C182 H240 0.929 . S
C183 C180 1.356 . S
C183 C185 1.358 . S
C183 H241 0.930 . S
C184 N181 1.314 . S
C184 C182 1.353 . S
C184 H242 0.930 . S
C185 N181 1.279 . S
C185 C183 1.358 . S
C185 H243 0.930 . S
C186 C189 1.348 . S
C186 C190 1.356 . S
C186 O237 1.325 . S
C187 N188 1.279 . S
C187 C190 1.358 . S
C187 H244 0.930 . S
N188 C187 1.279 . S
N188 C191 1.314 . S
C189 C186 1.348 . S
C189 C191 1.353 . S
C189 H245 0.929 . S
C190 C186 1.356 . S
C190 C187 1.358 . S
C190 H246 0.930 . S
C191 N188 1.314 . S
C191 C189 1.353 . S
C191 H247 0.930 . S
C192 N193 1.314 . S
C192 C197 1.353 . S
C192 H198 0.930 . S
N193 Li176 1.990 . S
N193 C192 1.314 . S
N193 C195 1.279 . S
C194 C195 1.358 . S
C194 C196 1.356 . S
C194 H248 0.930 . S
C195 N193 1.279 . S
C195 C194 1.358 . S
C195 H199 0.930 . S
C196 C194 1.356 . S
C196 C197 1.348 . S
C197 C192 1.353 . S
C197 C196 1.348 . S
C197 H249 0.929 . S
H198 C192 0.930 . S
H199 C195 0.930 . S
C200 N201 1.314 . S
C200 C202 1.353 . S
C200 H206 0.930 1_554 S
N201 Li177 1.990 . S
N201 C200 1.314 . S
N201 C204 1.279 . S
C202 C200 1.353 . S
C202 C205 1.348 . S
C202 H250 0.929 1_554 S
C203 C204 1.358 . S
C203 C205 1.356 . S
C203 H251 0.930 . S
C204 N201 1.279 . S
C204 C203 1.358 . S
C204 H207 0.930 . S
C205 C202 1.348 . S
C205 C203 1.356 . S
H206 C200 0.930 1_556 S
H207 C204 0.930 . S
C208 C210 1.348 . S
C208 C211 1.356 . S
C208 O238 1.325 . S
N209 C212 1.314 . S
N209 C213 1.279 . S
C210 C208 1.348 . S
C210 C212 1.353 . S
C210 H252 0.929 . S
C211 C208 1.356 . S
C211 C213 1.358 . S
C211 H253 0.930 . S
C212 N209 1.314 . S
C212 C210 1.353 . S
C212 H254 0.930 . S
C213 N209 1.279 . S
C213 C211 1.358 . S
C213 H255 0.930 . S
C214 C215 1.348 . S
C214 C216 1.356 . S
C214 O239 1.325 1_556 S
C215 C214 1.348 . S
C215 C217 1.353 . S
C215 H256 0.929 . S
C216 C214 1.356 . S
C216 C218 1.358 . S
C216 H257 0.930 . S
C217 C215 1.353 . S
C217 N219 1.314 . S
C217 H258 0.930 . S
C218 C216 1.358 . S
C218 N219 1.279 . S
C218 H259 0.930 . S
N219 C217 1.314 . S
N219 C218 1.279 . S
C220 C222 1.353 . S
C220 N223 1.314 . S
C220 H226 0.930 . S
C221 N223 1.279 . S
C221 C224 1.358 . S
C221 H227 0.930 . S
C222 C220 1.353 . S
C222 C225 1.348 . S
C222 H260 0.929 . S
N223 Li178 1.990 1_556 S
N223 C220 1.314 . S
N223 C221 1.279 . S
C224 C221 1.358 . S
C224 C225 1.356 . S
C224 H261 0.930 . S
C225 C222 1.348 . S
C225 C224 1.356 . S
H226 C220 0.930 . S
H227 C221 0.930 . S
C228 N229 1.314 . S
C228 C230 1.353 . S
C228 H234 0.930 . S
N229 Li179 1.990 . S
N229 C228 1.314 . S
N229 C232 1.279 . S
C230 C228 1.353 . S
C230 C233 1.348 . S
C230 H262 0.929 . S
C231 C232 1.358 1_556 S
C231 C233 1.356 1_556 S
C231 H263 0.930 . S
C232 N229 1.279 . S
C232 C231 1.358 1_554 S
C232 H235 0.930 1_554 S
C233 C230 1.348 . S
C233 C231 1.356 1_554 S
H234 C228 0.930 . S
H235 C232 0.930 1_556 S
O236 Li176 1.956 . S
O236 Li177 1.970 . S
O236 Li178 1.961 . S
O236 C180 1.325 . S
O237 Li176 1.970 . S
O237 Li177 1.956 . S
O237 Li179 1.961 . S
O237 C186 1.325 . S
O238 Li176 1.961 . S
O238 Li178 1.956 . S
O238 Li179 1.970 . S
O238 C208 1.325 . S
O239 Li177 1.961 . S
O239 Li178 1.970 . S
O239 Li179 1.956 . S
O239 C214 1.325 1_554 S
H240 C182 0.929 . S
H241 C183 0.930 . S
H242 C184 0.930 . S
H243 C185 0.930 . S
H244 C187 0.930 . S
H245 C189 0.929 . S
H246 C190 0.930 . S
H247 C191 0.930 . S
H248 C194 0.930 . S
H249 C197 0.929 . S
H250 C202 0.929 1_556 S
H251 C203 0.930 . S
H252 C210 0.929 . S
H253 C211 0.930 . S
H254 C212 0.930 . S
H255 C213 0.930 . S
H256 C215 0.929 . S
H257 C216 0.930 . S
H258 C217 0.930 . S
H259 C218 0.930 . S
H260 C222 0.929 . S
H261 C224 0.930 . S
H262 C230 0.929 . S
H263 C231 0.930 . S
Li264 N281 1.990 1_556 S
Li264 O324 1.956 . S
Li264 O325 1.970 . S
Li264 O326 1.961 . S
Li265 N289 1.990 . S
Li265 O324 1.970 . S
Li265 O325 1.956 . S
Li265 O327 1.961 . S
Li266 N311 1.990 . S
Li266 O324 1.961 . S
Li266 O326 1.956 . S
Li266 O327 1.970 . S
Li267 N317 1.990 . S
Li267 O325 1.961 . S
Li267 O326 1.970 . S
Li267 O327 1.956 . S
C268 C270 1.348 . S
C268 C271 1.356 . S
C268 O324 1.325 . S
N269 C272 1.314 . S
N269 C273 1.279 . S
C270 C268 1.348 . S
C270 C272 1.353 . S
C270 H328 0.929 . S
C271 C268 1.356 . S
C271 C273 1.358 . S
C271 H329 0.930 . S
C272 N269 1.314 . S
C272 C270 1.353 . S
C272 H330 0.930 . S
C273 N269 1.279 . S
C273 C271 1.358 . S
C273 H331 0.930 . S
C274 C277 1.348 . S
C274 C278 1.356 . S
C274 O325 1.325 1_554 S
C275 N276 1.279 . S
C275 C278 1.358 . S
C275 H332 0.930 . S
N276 C275 1.279 . S
N276 C279 1.314 . S
C277 C274 1.348 . S
C277 C279 1.353 . S
C277 H333 0.929 . S
C278 C274 1.356 . S
C278 C275 1.358 . S
C278 H334 0.930 . S
C279 N276 1.314 . S
C279 C277 1.353 . S
C279 H335 0.930 . S
C280 N281 1.314 . S
C280 C285 1.353 . S
C280 H286 0.930 . S
N281 Li264 1.990 1_554 S
N281 C280 1.314 . S
N281 C283 1.279 . S
C282 C283 1.358 . S
C282 C284 1.356 . S
C282 H336 0.930 . S
C283 N281 1.279 . S
C283 C282 1.358 . S
C283 H287 0.930 . S
C284 C282 1.356 . S
C284 C285 1.348 . S
C285 C280 1.353 . S
C285 C284 1.348 . S
C285 H337 0.929 . S
H286 C280 0.930 . S
H287 C283 0.930 . S
C288 N289 1.314 . S
C288 C290 1.353 . S
C288 H294 0.930 . S
N289 Li265 1.990 . S
N289 C288 1.314 . S
N289 C292 1.279 . S
C290 C288 1.353 . S
C290 C293 1.348 . S
C290 H338 0.929 . S
C291 C292 1.358 1_554 S
C291 C293 1.356 1_554 S
C291 H339 0.930 . S
C292 N289 1.279 . S
C292 C291 1.358 1_556 S
C292 H295 0.930 1_556 S
C293 C290 1.348 . S
C293 C291 1.356 1_556 S
H294 C288 0.930 . S
H295 C292 0.930 1_554 S
C296 C298 1.348 . S
C296 C299 1.356 . S
C296 O326 1.325 . S
N297 C300 1.314 . S
N297 C301 1.279 . S
C298 C296 1.348 . S
C298 C300 1.353 . S
C298 H340 0.929 . S
C299 C296 1.356 . S
C299 C301 1.358 . S
C299 H341 0.930 . S
C300 N297 1.314 . S
C300 C298 1.353 . S
C300 H342 0.930 . S
C301 N297 1.279 . S
C301 C299 1.358 . S
C301 H343 0.930 . S
C302 C303 1.348 . S
C302 C304 1.356 . S
C302 O327 1.325 . S
C303 C302 1.348 . S
C303 C305 1.353 . S
C303 H344 0.929 . S
C304 C302 1.356 . S
C304 C306 1.358 . S
C304 H345 0.930 . S
C305 C303 1.353 . S
C305 N307 1.314 . S
C305 H346 0.930 . S
C306 C304 1.358 . S
C306 N307 1.279 . S
C306 H347 0.930 . S
N307 C305 1.314 . S
N307 C306 1.279 . S
C308 C310 1.353 . S
C308 N311 1.314 . S
C308 H314 0.930 . S
C309 N311 1.279 . S
C309 C312 1.358 . S
C309 H315 0.930 . S
C310 C308 1.353 . S
C310 C313 1.348 . S
C310 H348 0.929 . S
N311 Li266 1.990 . S
N311 C308 1.314 . S
N311 C309 1.279 . S
C312 C309 1.358 . S
C312 C313 1.356 . S
C312 H349 0.930 . S
C313 C310 1.348 . S
C313 C312 1.356 . S
H314 C308 0.930 . S
H315 C309 0.930 . S
C316 N317 1.314 . S
C316 C318 1.353 . S
C316 H322 0.930 1_556 S
N317 Li267 1.990 . S
N317 C316 1.314 . S
N317 C320 1.279 . S
C318 C316 1.353 . S
C318 C321 1.348 . S
C318 H350 0.929 1_556 S
C319 C320 1.358 . S
C319 C321 1.356 . S
C319 H351 0.930 . S
C320 N317 1.279 . S
C320 C319 1.358 . S
C320 H323 0.930 . S
C321 C318 1.348 . S
C321 C319 1.356 . S
H322 C316 0.930 1_554 S
H323 C320 0.930 . S
O324 Li264 1.956 . S
O324 Li265 1.970 . S
O324 Li266 1.961 . S
O324 C268 1.325 . S
O325 Li264 1.970 . S
O325 Li265 1.956 . S
O325 Li267 1.961 . S
O325 C274 1.325 1_556 S
O326 Li264 1.961 . S
O326 Li266 1.956 . S
O326 Li267 1.970 . S
O326 C296 1.325 . S
O327 Li265 1.961 . S
O327 Li266 1.970 . S
O327 Li267 1.956 . S
O327 C302 1.325 . S
H328 C270 0.929 . S
H329 C271 0.930 . S
H330 C272 0.930 . S
H331 C273 0.930 . S
H332 C275 0.930 . S
H333 C277 0.929 . S
H334 C278 0.930 . S
H335 C279 0.930 . S
H336 C282 0.930 . S
H337 C285 0.929 . S
H338 C290 0.929 . S
H339 C291 0.930 . S
H340 C298 0.929 . S
H341 C299 0.930 . S
H342 C300 0.930 . S
H343 C301 0.930 . S
H344 C303 0.929 . S
H345 C304 0.930 . S
H346 C305 0.930 . S
H347 C306 0.930 . S
H348 C310 0.929 . S
H349 C312 0.930 . S
H350 C318 0.929 1_554 S
H351 C319 0.930 . S
Li352 N369 1.990 1_556 S
Li352 O412 1.956 . S
Li352 O413 1.970 . S
Li352 O414 1.961 . S
Li353 N377 1.990 . S
Li353 O412 1.970 . S
Li353 O413 1.956 . S
Li353 O415 1.961 . S
Li354 N399 1.990 . S
Li354 O412 1.961 . S
Li354 O414 1.956 . S
Li354 O415 1.970 . S
Li355 N405 1.990 . S
Li355 O413 1.961 . S
Li355 O414 1.970 . S
Li355 O415 1.956 . S
C356 C358 1.348 . S
C356 C359 1.356 . S
C356 O412 1.325 . S
N357 C360 1.314 . S
N357 C361 1.279 . S
C358 C356 1.348 . S
C358 C360 1.353 . S
C358 H416 0.929 . S
C359 C356 1.356 . S
C359 C361 1.358 . S
C359 H417 0.930 . S
C360 N357 1.314 . S
C360 C358 1.353 . S
C360 H418 0.930 . S
C361 N357 1.279 . S
C361 C359 1.358 . S
C361 H419 0.930 . S
C362 C365 1.348 . S
C362 C366 1.356 . S
C362 O413 1.325 1_554 S
C363 N364 1.279 . S
C363 C366 1.358 . S
C363 H420 0.930 . S
N364 C363 1.279 . S
N364 C367 1.314 . S
C365 C362 1.348 . S
C365 C367 1.353 . S
C365 H421 0.929 . S
C366 C362 1.356 . S
C366 C363 1.358 . S
C366 H422 0.930 . S
C367 N364 1.314 . S
C367 C365 1.353 . S
C367 H423 0.930 . S
C368 N369 1.314 . S
C368 C373 1.353 . S
C368 H374 0.930 . S
N369 Li352 1.990 1_554 S
N369 C368 1.314 . S
N369 C371 1.279 . S
C370 C371 1.358 . S
C370 C372 1.356 . S
C370 H424 0.930 . S
C371 N369 1.279 . S
C371 C370 1.358 . S
C371 H375 0.930 . S
C372 C370 1.356 . S
C372 C373 1.348 . S
C373 C368 1.353 . S
C373 C372 1.348 . S
C373 H425 0.929 . S
H374 C368 0.930 . S
H375 C371 0.930 . S
C376 N377 1.314 . S
C376 C378 1.353 . S
C376 H382 0.930 . S
N377 Li353 1.990 . S
N377 C376 1.314 . S
N377 C380 1.279 . S
C378 C376 1.353 . S
C378 C381 1.348 . S
C378 H426 0.929 . S
C379 C380 1.358 1_554 S
C379 C381 1.356 1_554 S
C379 H427 0.930 . S
C380 N377 1.279 . S
C380 C379 1.358 1_556 S
C380 H383 0.930 1_556 S
C381 C378 1.348 . S
C381 C379 1.356 1_556 S
H382 C376 0.930 . S
H383 C380 0.930 1_554 S
C384 C386 1.348 . S
C384 C387 1.356 . S
C384 O414 1.325 . S
N385 C388 1.314 . S
N385 C389 1.279 . S
C386 C384 1.348 . S
C386 C388 1.353 . S
C386 H428 0.929 . S
C387 C384 1.356 . S
C387 C389 1.358 . S
C387 H429 0.930 . S
C388 N385 1.314 . S
C388 C386 1.353 . S
C388 H430 0.930 . S
C389 N385 1.279 . S
C389 C387 1.358 . S
C389 H431 0.930 . S
C390 C391 1.348 . S
C390 C392 1.356 . S
C390 O415 1.325 . S
C391 C390 1.348 . S
C391 C393 1.353 . S
C391 H432 0.929 . S
C392 C390 1.356 . S
C392 C394 1.358 . S
C392 H433 0.930 . S
C393 C391 1.353 . S
C393 N395 1.314 . S
C393 H434 0.930 . S
C394 C392 1.358 . S
C394 N395 1.279 . S
C394 H435 0.930 . S
N395 C393 1.314 . S
N395 C394 1.279 . S
C396 C398 1.353 . S
C396 N399 1.314 . S
C396 H402 0.930 . S
C397 N399 1.279 . S
C397 C400 1.358 . S
C397 H403 0.930 . S
C398 C396 1.353 . S
C398 C401 1.348 . S
C398 H436 0.929 . S
N399 Li354 1.990 . S
N399 C396 1.314 . S
N399 C397 1.279 . S
C400 C397 1.358 . S
C400 C401 1.356 . S
C400 H437 0.930 . S
C401 C398 1.348 . S
C401 C400 1.356 . S
H402 C396 0.930 . S
H403 C397 0.930 . S
C404 N405 1.314 . S
C404 C406 1.353 . S
C404 H410 0.930 1_556 S
N405 Li355 1.990 . S
N405 C404 1.314 . S
N405 C408 1.279 . S
C406 C404 1.353 . S
C406 C409 1.348 . S
C406 H438 0.929 1_556 S
C407 C408 1.358 . S
C407 C409 1.356 . S
C407 H439 0.930 . S
C408 N405 1.279 . S
C408 C407 1.358 . S
C408 H411 0.930 . S
C409 C406 1.348 . S
C409 C407 1.356 . S
H410 C404 0.930 1_554 S
H411 C408 0.930 . S
O412 Li352 1.956 . S
O412 Li353 1.970 . S
O412 Li354 1.961 . S
O412 C356 1.325 . S
O413 Li352 1.970 . S
O413 Li353 1.956 . S
O413 Li355 1.961 . S
O413 C362 1.325 1_556 S
O414 Li352 1.961 . S
O414 Li354 1.956 . S
O414 Li355 1.970 . S
O414 C384 1.325 . S
O415 Li353 1.961 . S
O415 Li354 1.970 . S
O415 Li355 1.956 . S
O415 C390 1.325 . S
H416 C358 0.929 . S
H417 C359 0.930 . S
H418 C360 0.930 . S
H419 C361 0.930 . S
H420 C363 0.930 . S
H421 C365 0.929 . S
H422 C366 0.930 . S
H423 C367 0.930 . S
H424 C370 0.930 . S
H425 C373 0.929 . S
H426 C378 0.929 . S
H427 C379 0.930 . S
H428 C386 0.929 . S
H429 C387 0.930 . S
H430 C388 0.930 . S
H431 C389 0.930 . S
H432 C391 0.929 . S
H433 C392 0.930 . S
H434 C393 0.930 . S
H435 C394 0.930 . S
H436 C398 0.929 . S
H437 C400 0.930 . S
H438 C406 0.929 1_554 S
H439 C407 0.930 . S
Li440 N457 1.990 . S
Li440 O500 1.956 . S
Li440 O501 1.970 . S
Li440 O502 1.961 . S
Li441 N465 1.990 1_556 S
Li441 O500 1.970 . S
Li441 O501 1.956 . S
Li441 O503 1.961 . S
Li442 N487 1.990 . S
Li442 O500 1.961 . S
Li442 O502 1.956 . S
Li442 O503 1.970 . S
Li443 N493 1.990 . S
Li443 O501 1.961 . S
Li443 O502 1.970 . S
Li443 O503 1.956 . S
C444 C446 1.348 . S
C444 C447 1.356 . S
C444 O500 1.325 1_554 S
N445 C448 1.314 . S
N445 C449 1.279 . S
C446 C444 1.348 . S
C446 C448 1.353 . S
C446 H504 0.929 . S
C447 C444 1.356 . S
C447 C449 1.358 . S
C447 H505 0.930 . S
C448 N445 1.314 . S
C448 C446 1.353 . S
C448 H506 0.930 . S
C449 N445 1.279 . S
C449 C447 1.358 . S
C449 H507 0.930 . S
C450 C453 1.348 . S
C450 C454 1.356 . S
C450 O501 1.325 . S
C451 N452 1.279 . S
C451 C454 1.358 . S
C451 H508 0.930 . S
N452 C451 1.279 . S
N452 C455 1.314 . S
C453 C450 1.348 . S
C453 C455 1.353 . S
C453 H509 0.929 . S
C454 C450 1.356 . S
C454 C451 1.358 . S
C454 H510 0.930 . S
C455 N452 1.314 . S
C455 C453 1.353 . S
C455 H511 0.930 . S
C456 N457 1.314 . S
C456 C461 1.353 . S
C456 H462 0.930 . S
N457 Li440 1.990 . S
N457 C456 1.314 . S
N457 C459 1.279 . S
C458 C459 1.358 1_554 S
C458 C460 1.356 1_554 S
C458 H512 0.930 . S
C459 N457 1.279 . S
C459 C458 1.358 1_556 S
C459 H463 0.930 1_556 S
C460 C458 1.356 1_556 S
C460 C461 1.348 . S
C461 C456 1.353 . S
C461 C460 1.348 . S
C461 H513 0.929 . S
H462 C456 0.930 . S
H463 C459 0.930 1_554 S
C464 N465 1.314 . S
C464 C466 1.353 . S
C464 H470 0.930 . S
N465 Li441 1.990 1_554 S
N465 C464 1.314 . S
N465 C468 1.279 . S
C466 C464 1.353 . S
C466 C469 1.348 . S
C466 H514 0.929 . S
C467 C468 1.358 . S
C467 C469 1.356 . S
C467 H515 0.930 . S
C468 N465 1.279 . S
C468 C467 1.358 . S
C468 H471 0.930 . S
C469 C466 1.348 . S
C469 C467 1.356 . S
H470 C464 0.930 . S
H471 C468 0.930 . S
C472 C474 1.348 . S
C472 C475 1.356 . S
C472 O502 1.325 . S
N473 C476 1.314 . S
N473 C477 1.279 . S
C474 C472 1.348 . S
C474 C476 1.353 . S
C474 H516 0.929 . S
C475 C472 1.356 . S
C475 C477 1.358 . S
C475 H517 0.930 . S
C476 N473 1.314 . S
C476 C474 1.353 . S
C476 H518 0.930 . S
C477 N473 1.279 . S
C477 C475 1.358 . S
C477 H519 0.930 . S
C478 C479 1.348 . S
C478 C480 1.356 . S
C478 O503 1.325 . S
C479 C478 1.348 . S
C479 C481 1.353 . S
C479 H520 0.929 . S
C480 C478 1.356 . S
C480 C482 1.358 . S
C480 H521 0.930 . S
C481 C479 1.353 . S
C481 N483 1.314 . S
C481 H522 0.930 . S
C482 C480 1.358 . S
C482 N483 1.279 . S
C482 H523 0.930 . S
N483 C481 1.314 . S
N483 C482 1.279 . S
C484 C486 1.353 . S
C484 N487 1.314 . S
C484 H490 0.930 1_556 S
C485 N487 1.279 . S
C485 C488 1.358 . S
C485 H491 0.930 . S
C486 C484 1.353 . S
C486 C489 1.348 . S
C486 H524 0.929 1_556 S
N487 Li442 1.990 . S
N487 C484 1.314 . S
N487 C485 1.279 . S
C488 C485 1.358 . S
C488 C489 1.356 . S
C488 H525 0.930 . S
C489 C486 1.348 . S
C489 C488 1.356 . S
H490 C484 0.930 1_554 S
H491 C485 0.930 . S
C492 N493 1.314 . S
C492 C494 1.353 . S
C492 H498 0.930 . S
N493 Li443 1.990 . S
N493 C492 1.314 . S
N493 C496 1.279 . S
C494 C492 1.353 . S
C494 C497 1.348 . S
C494 H526 0.929 . S
C495 C496 1.358 . S
C495 C497 1.356 . S
C495 H527 0.930 . S
C496 N493 1.279 . S
C496 C495 1.358 . S
C496 H499 0.930 . S
C497 C494 1.348 . S
C497 C495 1.356 . S
H498 C492 0.930 . S
H499 C496 0.930 . S
O500 Li440 1.956 . S
O500 Li441 1.970 . S
O500 Li442 1.961 . S
O500 C444 1.325 1_556 S
O501 Li440 1.970 . S
O501 Li441 1.956 . S
O501 Li443 1.961 . S
O501 C450 1.325 . S
O502 Li440 1.961 . S
O502 Li442 1.956 . S
O502 Li443 1.970 . S
O502 C472 1.325 . S
O503 Li441 1.961 . S
O503 Li442 1.970 . S
O503 Li443 1.956 . S
O503 C478 1.325 . S
H504 C446 0.929 . S
H505 C447 0.930 . S
H506 C448 0.930 . S
H507 C449 0.930 . S
H508 C451 0.930 . S
H509 C453 0.929 . S
H510 C454 0.930 . S
H511 C455 0.930 . S
H512 C458 0.930 . S
H513 C461 0.929 . S
H514 C466 0.929 . S
H515 C467 0.930 . S
H516 C474 0.929 . S
H517 C475 0.930 . S
H518 C476 0.930 . S
H519 C477 0.930 . S
H520 C479 0.929 . S
H521 C480 0.930 . S
H522 C481 0.930 . S
H523 C482 0.930 . S
H524 C486 0.929 1_554 S
H525 C488 0.930 . S
H526 C494 0.929 . S
H527 C495 0.930 . S
Li528 N545 1.990 . S
Li528 O588 1.956 . S
Li528 O589 1.970 . S
Li528 O590 1.961 . S
Li529 N553 1.990 1_556 S
Li529 O588 1.970 . S
Li529 O589 1.956 . S
Li529 O591 1.961 . S
Li530 N575 1.990 . S
Li530 O588 1.961 . S
Li530 O590 1.956 . S
Li530 O591 1.970 . S
Li531 N581 1.990 . S
Li531 O589 1.961 . S
Li531 O590 1.970 . S
Li531 O591 1.956 . S
C532 C534 1.348 . S
C532 C535 1.356 . S
C532 O588 1.325 1_554 S
N533 C536 1.314 . S
N533 C537 1.279 . S
C534 C532 1.348 . S
C534 C536 1.353 . S
C534 H592 0.929 . S
C535 C532 1.356 . S
C535 C537 1.358 . S
C535 H593 0.930 . S
C536 N533 1.314 . S
C536 C534 1.353 . S
C536 H594 0.930 . S
C537 N533 1.279 . S
C537 C535 1.358 . S
C537 H595 0.930 . S
C538 C541 1.348 . S
C538 C542 1.356 . S
C538 O589 1.325 . S
C539 N540 1.279 . S
C539 C542 1.358 . S
C539 H596 0.930 . S
N540 C539 1.279 . S
N540 C543 1.314 . S
C541 C538 1.348 . S
C541 C543 1.353 . S
C541 H597 0.929 . S
C542 C538 1.356 . S
C542 C539 1.358 . S
C542 H598 0.930 . S
C543 N540 1.314 . S
C543 C541 1.353 . S
C543 H599 0.930 . S
C544 N545 1.314 . S
C544 C549 1.353 . S
C544 H550 0.930 . S
N545 Li528 1.990 . S
N545 C544 1.314 . S
N545 C547 1.279 . S
C546 C547 1.358 . S
C546 C548 1.356 . S
C546 H600 0.930 1_556 S
C547 N545 1.279 . S
C547 C546 1.358 . S
C547 H551 0.930 1_556 S
C548 C546 1.356 . S
C548 C549 1.348 . S
C549 C544 1.353 . S
C549 C548 1.348 . S
C549 H601 0.929 . S
H550 C544 0.930 . S
H551 C547 0.930 1_554 S
C552 N553 1.314 . S
C552 C554 1.353 . S
C552 H558 0.930 . S
N553 Li529 1.990 1_554 S
N553 C552 1.314 . S
N553 C556 1.279 . S
C554 C552 1.353 . S
C554 C557 1.348 . S
C554 H602 0.929 . S
C555 C556 1.358 . S
C555 C557 1.356 . S
C555 H603 0.930 . S
C556 N553 1.279 . S
C556 C555 1.358 . S
C556 H559 0.930 . S
C557 C554 1.348 . S
C557 C555 1.356 . S
H558 C552 0.930 . S
H559 C556 0.930 . S
C560 C562 1.348 . S
C560 C563 1.356 . S
C560 O590 1.325 . S
N561 C564 1.314 . S
N561 C565 1.279 . S
C562 C560 1.348 . S
C562 C564 1.353 . S
C562 H604 0.929 . S
C563 C560 1.356 . S
C563 C565 1.358 . S
C563 H605 0.930 . S
C564 N561 1.314 . S
C564 C562 1.353 . S
C564 H606 0.930 . S
C565 N561 1.279 . S
C565 C563 1.358 . S
C565 H607 0.930 . S
C566 C567 1.348 . S
C566 C568 1.356 . S
C566 O591 1.325 . S
C567 C566 1.348 . S
C567 C569 1.353 . S
C567 H608 0.929 . S
C568 C566 1.356 . S
C568 C570 1.358 . S
C568 H609 0.930 . S
C569 C567 1.353 . S
C569 N571 1.314 . S
C569 H610 0.930 . S
C570 C568 1.358 . S
C570 N571 1.279 . S
C570 H611 0.930 . S
N571 C569 1.314 . S
N571 C570 1.279 . S
C572 C574 1.352 1_556 S
C572 N575 1.314 . S
C572 H578 0.930 1_556 S
C573 N575 1.279 . S
C573 C576 1.358 . S
C573 H579 0.930 . S
C574 C572 1.352 1_554 S
C574 C577 1.341 1_554 S
C574 H612 0.938 . S
N575 Li530 1.990 . S
N575 C572 1.314 . S
N575 C573 1.279 . S
C576 C573 1.358 . S
C576 C577 1.356 . S
C576 H613 0.930 . S
C577 C574 1.341 1_556 S
C577 C576 1.356 . S
H578 C572 0.930 1_554 S
H579 C573 0.930 . S
C580 N581 1.314 . S
C580 C582 1.353 . S
C580 H586 0.930 . S
N581 Li531 1.990 . S
N581 C580 1.314 . S
N581 C584 1.279 . S
C582 C580 1.353 . S
C582 C585 1.348 . S
C582 H614 0.929 . S
C583 C584 1.358 . S
C583 C585 1.356 . S
C583 H615 0.930 . S
C584 N581 1.279 . S
C584 C583 1.358 . S
C584 H587 0.930 . S
C585 C582 1.348 . S
C585 C583 1.356 . S
H586 C580 0.930 . S
H587 C584 0.930 . S
O588 Li528 1.956 . S
O588 Li529 1.970 . S
O588 Li530 1.961 . S
O588 C532 1.325 1_556 S
O589 Li528 1.970 . S
O589 Li529 1.956 . S
O589 Li531 1.961 . S
O589 C538 1.325 . S
O590 Li528 1.961 . S
O590 Li530 1.956 . S
O590 Li531 1.970 . S
O590 C560 1.325 . S
O591 Li529 1.961 . S
O591 Li530 1.970 . S
O591 Li531 1.956 . S
O591 C566 1.325 . S
H592 C534 0.929 . S
H593 C535 0.930 . S
H594 C536 0.930 . S
H595 C537 0.930 . S
H596 C539 0.930 . S
H597 C541 0.929 . S
H598 C542 0.930 . S
H599 C543 0.930 . S
H600 C546 0.930 1_554 S
H601 C549 0.929 . S
H602 C554 0.929 . S
H603 C555 0.930 . S
H604 C562 0.929 . S
H605 C563 0.930 . S
H606 C564 0.930 . S
H607 C565 0.930 . S
H608 C567 0.929 . S
H609 C568 0.930 . S
H610 C569 0.930 . S
H611 C570 0.930 . S
H612 C574 0.938 . S
H613 C576 0.930 . S
H614 C582 0.929 . S
H615 C583 0.930 . S
Li616 N633 1.990 . S
Li616 O676 1.956 . S
Li616 O677 1.970 . S
Li616 O678 1.961 . S
Li617 N641 1.990 1_556 S
Li617 O676 1.970 . S
Li617 O677 1.956 . S
Li617 O679 1.961 . S
Li618 N663 1.990 . S
Li618 O676 1.961 . S
Li618 O678 1.956 . S
Li618 O679 1.970 . S
Li619 N669 1.990 . S
Li619 O677 1.961 . S
Li619 O678 1.970 . S
Li619 O679 1.956 . S
C620 C622 1.348 . S
C620 C623 1.356 . S
C620 O676 1.325 1_554 S
N621 C624 1.314 . S
N621 C625 1.279 . S
C622 C620 1.348 . S
C622 C624 1.353 . S
C622 H680 0.929 . S
C623 C620 1.356 . S
C623 C625 1.358 . S
C623 H681 0.930 . S
C624 N621 1.314 . S
C624 C622 1.353 . S
C624 H682 0.930 . S
C625 N621 1.279 . S
C625 C623 1.358 . S
C625 H683 0.930 . S
C626 C629 1.348 . S
C626 C630 1.356 . S
C626 O677 1.325 . S
C627 N628 1.279 . S
C627 C630 1.358 . S
C627 H684 0.930 . S
N628 C627 1.279 . S
N628 C631 1.314 . S
C629 C626 1.348 . S
C629 C631 1.353 . S
C629 H685 0.929 . S
C630 C626 1.356 . S
C630 C627 1.358 . S
C630 H686 0.930 . S
C631 N628 1.314 . S
C631 C629 1.353 . S
C631 H687 0.930 . S
C632 N633 1.314 . S
C632 C637 1.353 . S
C632 H638 0.930 . S
N633 Li616 1.990 . S
N633 C632 1.314 . S
N633 C635 1.279 . S
C634 C635 1.358 . S
C634 C636 1.356 . S
C634 H688 0.930 1_556 S
C635 N633 1.279 . S
C635 C634 1.358 . S
C635 H639 0.930 1_556 S
C636 C634 1.356 . S
C636 C637 1.348 . S
C637 C632 1.353 . S
C637 C636 1.348 . S
C637 H689 0.929 . S
H638 C632 0.930 . S
H639 C635 0.930 1_554 S
C640 N641 1.314 . S
C640 C642 1.353 . S
C640 H646 0.930 . S
N641 Li617 1.990 1_554 S
N641 C640 1.314 . S
N641 C644 1.279 . S
C642 C640 1.353 . S
C642 C645 1.348 . S
C642 H690 0.929 . S
C643 C644 1.358 . S
C643 C645 1.356 . S
C643 H691 0.930 . S
C644 N641 1.279 . S
C644 C643 1.358 . S
C644 H647 0.930 . S
C645 C642 1.348 . S
C645 C643 1.356 . S
H646 C640 0.930 . S
H647 C644 0.930 . S
C648 C650 1.348 . S
C648 C651 1.356 . S
C648 O678 1.325 . S
N649 C652 1.314 . S
N649 C653 1.279 . S
C650 C648 1.348 . S
C650 C652 1.353 . S
C650 H692 0.929 . S
C651 C648 1.356 . S
C651 C653 1.358 . S
C651 H693 0.930 . S
C652 N649 1.314 . S
C652 C650 1.353 . S
C652 H694 0.930 . S
C653 N649 1.279 . S
C653 C651 1.358 . S
C653 H695 0.930 . S
C654 C655 1.348 . S
C654 C656 1.356 . S
C654 O679 1.325 . S
C655 C654 1.348 . S
C655 C657 1.353 . S
C655 H696 0.929 . S
C656 C654 1.356 . S
C656 C658 1.358 . S
C656 H697 0.930 . S
C657 C655 1.353 . S
C657 N659 1.314 . S
C657 H698 0.930 . S
C658 C656 1.358 . S
C658 N659 1.279 . S
C658 H699 0.930 . S
N659 C657 1.314 . S
N659 C658 1.279 . S
C660 C662 1.352 1_556 S
C660 N663 1.314 . S
C660 H666 0.930 1_556 S
C661 N663 1.279 . S
C661 C664 1.358 . S
C661 H667 0.930 . S
C662 C660 1.352 1_554 S
C662 C665 1.340 1_554 S
C662 H700 0.938 . S
N663 Li618 1.990 . S
N663 C660 1.314 . S
N663 C661 1.279 . S
C664 C661 1.358 . S
C664 C665 1.356 . S
C664 H701 0.930 . S
C665 C662 1.340 1_556 S
C665 C664 1.356 . S
H666 C660 0.930 1_554 S
H667 C661 0.930 . S
C668 N669 1.314 . S
C668 C670 1.353 . S
C668 H674 0.930 . S
N669 Li619 1.990 . S
N669 C668 1.314 . S
N669 C672 1.279 . S
C670 C668 1.353 . S
C670 C673 1.348 . S
C670 H702 0.929 . S
C671 C672 1.358 . S
C671 C673 1.356 . S
C671 H703 0.930 . S
C672 N669 1.279 . S
C672 C671 1.358 . S
C672 H675 0.930 . S
C673 C670 1.348 . S
C673 C671 1.356 . S
H674 C668 0.930 . S
H675 C672 0.930 . S
O676 Li616 1.956 . S
O676 Li617 1.970 . S
O676 Li618 1.961 . S
O676 C620 1.325 1_556 S
O677 Li616 1.970 . S
O677 Li617 1.956 . S
O677 Li619 1.961 . S
O677 C626 1.325 . S
O678 Li616 1.961 . S
O678 Li618 1.956 . S
O678 Li619 1.970 . S
O678 C648 1.325 . S
O679 Li617 1.961 . S
O679 Li618 1.970 . S
O679 Li619 1.956 . S
O679 C654 1.325 . S
H680 C622 0.929 . S
H681 C623 0.930 . S
H682 C624 0.930 . S
H683 C625 0.930 . S
H684 C627 0.930 . S
H685 C629 0.929 . S
H686 C630 0.930 . S
H687 C631 0.930 . S
H688 C634 0.930 1_554 S
H689 C637 0.929 . S
H690 C642 0.929 . S
H691 C643 0.930 . S
H692 C650 0.929 . S
H693 C651 0.930 . S
H694 C652 0.930 . S
H695 C653 0.930 . S
H696 C655 0.929 . S
H697 C656 0.930 . S
H698 C657 0.930 . S
H699 C658 0.930 . S
H700 C662 0.938 . S
H701 C664 0.930 . S
H702 C670 0.929 . S
H703 C671 0.930 . S
Li704 N721 1.990 . S
Li704 O764 1.956 . S
Li704 O765 1.970 . S
Li704 O766 1.961 . S
Li705 N729 1.990 1_556 S
Li705 O764 1.970 . S
Li705 O765 1.956 . S
Li705 O767 1.961 . S
Li706 N751 1.990 . S
Li706 O764 1.961 . S
Li706 O766 1.956 . S
Li706 O767 1.970 . S
Li707 N757 1.990 . S
Li707 O765 1.961 . S
Li707 O766 1.970 . S
Li707 O767 1.956 . S
C708 C710 1.348 . S
C708 C711 1.356 . S
C708 O764 1.325 1_554 S
N709 C712 1.314 . S
N709 C713 1.279 . S
C710 C708 1.348 . S
C710 C712 1.353 . S
C710 H768 0.929 . S
C711 C708 1.356 . S
C711 C713 1.358 . S
C711 H769 0.930 . S
C712 N709 1.314 . S
C712 C710 1.353 . S
C712 H770 0.930 . S
C713 N709 1.279 . S
C713 C711 1.358 . S
C713 H771 0.930 . S
C714 C717 1.348 . S
C714 C718 1.356 . S
C714 O765 1.325 . S
C715 N716 1.279 . S
C715 C718 1.358 . S
C715 H772 0.930 . S
N716 C715 1.279 . S
N716 C719 1.314 . S
C717 C714 1.348 . S
C717 C719 1.353 . S
C717 H773 0.929 . S
C718 C714 1.356 . S
C718 C715 1.358 . S
C718 H774 0.930 . S
C719 N716 1.314 . S
C719 C717 1.353 . S
C719 H775 0.930 . S
C720 N721 1.314 . S
C720 C725 1.353 . S
C720 H726 0.930 . S
N721 Li704 1.990 . S
N721 C720 1.314 . S
N721 C723 1.279 . S
C722 C723 1.358 . S
C722 C724 1.356 . S
C722 H776 0.930 1_556 S
C723 N721 1.279 . S
C723 C722 1.358 . S
C723 H727 0.930 1_556 S
C724 C722 1.356 . S
C724 C725 1.348 . S
C725 C720 1.353 . S
C725 C724 1.348 . S
C725 H777 0.929 . S
H726 C720 0.930 . S
H727 C723 0.930 1_554 S
C728 N729 1.314 . S
C728 C730 1.353 . S
C728 H734 0.930 . S
N729 Li705 1.990 1_554 S
N729 C728 1.314 . S
N729 C732 1.279 . S
C730 C728 1.353 . S
C730 C733 1.348 . S
C730 H778 0.929 . S
C731 C732 1.358 . S
C731 C733 1.356 . S
C731 H779 0.930 . S
C732 N729 1.279 . S
C732 C731 1.358 . S
C732 H735 0.930 . S
C733 C730 1.348 . S
C733 C731 1.356 . S
H734 C728 0.930 . S
H735 C732 0.930 . S
C736 C738 1.348 . S
C736 C739 1.356 . S
C736 O766 1.325 . S
N737 C740 1.314 . S
N737 C741 1.279 . S
C738 C736 1.348 . S
C738 C740 1.353 . S
C738 H780 0.929 . S
C739 C736 1.356 . S
C739 C741 1.358 . S
C739 H781 0.930 . S
C740 N737 1.314 . S
C740 C738 1.353 . S
C740 H782 0.930 . S
C741 N737 1.279 . S
C741 C739 1.358 . S
C741 H783 0.930 . S
C742 C743 1.348 . S
C742 C744 1.356 . S
C742 O767 1.325 . S
C743 C742 1.348 . S
C743 C745 1.353 . S
C743 H784 0.929 . S
C744 C742 1.356 . S
C744 C746 1.358 . S
C744 H785 0.930 . S
C745 C743 1.353 . S
C745 N747 1.314 . S
C745 H786 0.930 . S
C746 C744 1.358 . S
C746 N747 1.279 . S
C746 H787 0.930 . S
N747 C745 1.314 . S
N747 C746 1.279 . S
C748 C750 1.351 1_556 S
C748 N751 1.314 . S
C748 H754 0.930 1_556 S
C749 N751 1.279 . S
C749 C752 1.358 . S
C749 H755 0.930 . S
C750 C748 1.351 1_554 S
C750 C753 1.337 1_554 S
C750 H788 0.942 . S
N751 Li706 1.990 . S
N751 C748 1.314 . S
N751 C749 1.279 . S
C752 C749 1.358 . S
C752 C753 1.356 . S
C752 H789 0.930 . S
C753 C750 1.337 1_556 S
C753 C752 1.356 . S
H754 C748 0.930 1_554 S
H755 C749 0.930 . S
C756 N757 1.314 . S
C756 C758 1.353 . S
C756 H762 0.930 . S
N757 Li707 1.990 . S
N757 C756 1.314 . S
N757 C760 1.279 . S
C758 C756 1.353 . S
C758 C761 1.348 . S
C758 H790 0.929 . S
C759 C760 1.358 . S
C759 C761 1.356 . S
C759 H791 0.930 . S
C760 N757 1.279 . S
C760 C759 1.358 . S
C760 H763 0.930 . S
C761 C758 1.348 . S
C761 C759 1.356 . S
H762 C756 0.930 . S
H763 C760 0.930 . S
O764 Li704 1.956 . S
O764 Li705 1.970 . S
O764 Li706 1.961 . S
O764 C708 1.325 1_556 S
O765 Li704 1.970 . S
O765 Li705 1.956 . S
O765 Li707 1.961 . S
O765 C714 1.325 . S
O766 Li704 1.961 . S
O766 Li706 1.956 . S
O766 Li707 1.970 . S
O766 C736 1.325 . S
O767 Li705 1.961 . S
O767 Li706 1.970 . S
O767 Li707 1.956 . S
O767 C742 1.325 . S
H768 C710 0.929 . S
H769 C711 0.930 . S
H770 C712 0.930 . S
H771 C713 0.930 . S
H772 C715 0.930 . S
H773 C717 0.929 . S
H774 C718 0.930 . S
H775 C719 0.930 . S
H776 C722 0.930 1_554 S
H777 C725 0.929 . S
H778 C730 0.929 . S
H779 C731 0.930 . S
H780 C738 0.929 . S
H781 C739 0.930 . S
H782 C740 0.930 . S
H783 C741 0.930 . S
H784 C743 0.929 . S
H785 C744 0.930 . S
H786 C745 0.930 . S
H787 C746 0.930 . S
H788 C750 0.942 . S
H789 C752 0.930 . S
H790 C758 0.929 . S
H791 C759 0.930 . S
Li792 N809 1.990 . S
Li792 O852 1.956 . S
Li792 O853 1.970 . S
Li792 O854 1.961 . S
Li793 N817 1.990 . S
Li793 O852 1.970 . S
Li793 O853 1.956 . S
Li793 O855 1.961 . S
Li794 N839 1.990 . S
Li794 O852 1.961 . S
Li794 O854 1.956 . S
Li794 O855 1.970 . S
Li795 N845 1.990 1_554 S
Li795 O853 1.961 . S
Li795 O854 1.970 . S
Li795 O855 1.956 . S
C796 C798 1.348 . S
C796 C799 1.356 . S
C796 O852 1.325 . S
N797 C800 1.314 . S
N797 C801 1.279 . S
C798 C796 1.348 . S
C798 C800 1.353 . S
C798 H856 0.929 . S
C799 C796 1.356 . S
C799 C801 1.358 . S
C799 H857 0.930 . S
C800 N797 1.314 . S
C800 C798 1.353 . S
C800 H858 0.930 . S
C801 N797 1.279 . S
C801 C799 1.358 . S
C801 H859 0.930 . S
C802 C805 1.348 . S
C802 C806 1.356 . S
C802 O853 1.325 . S
C803 N804 1.279 . S
C803 C806 1.358 . S
C803 H860 0.930 . S
N804 C803 1.279 . S
N804 C807 1.314 . S
C805 C802 1.348 . S
C805 C807 1.353 . S
C805 H861 0.929 . S
C806 C802 1.356 . S
C806 C803 1.358 . S
C806 H862 0.930 . S
C807 N804 1.314 . S
C807 C805 1.353 . S
C807 H863 0.930 . S
C808 N809 1.314 . S
C808 C813 1.352 1_554 S
C808 H814 0.930 1_554 S
N809 Li792 1.990 . S
N809 C808 1.314 . S
N809 C811 1.279 . S
C810 C811 1.358 . S
C810 C812 1.356 . S
C810 H864 0.930 . S
C811 N809 1.279 . S
C811 C810 1.358 . S
C811 H815 0.930 . S
C812 C810 1.356 . S
C812 C813 1.341 1_554 S
C813 C808 1.352 1_556 S
C813 C812 1.341 1_556 S
C813 H865 0.938 . S
H814 C808 0.930 1_556 S
H815 C811 0.930 . S
C816 N817 1.314 . S
C816 C818 1.353 . S
C816 H822 0.930 . S
N817 Li793 1.990 . S
N817 C816 1.314 . S
N817 C820 1.279 . S
C818 C816 1.353 . S
C818 C821 1.348 . S
C818 H866 0.929 . S
C819 C820 1.358 . S
C819 C821 1.356 . S
C819 H867 0.930 . S
C820 N817 1.279 . S
C820 C819 1.358 . S
C820 H823 0.930 . S
C821 C818 1.348 . S
C821 C819 1.356 . S
H822 C816 0.930 . S
H823 C820 0.930 . S
C824 C826 1.348 . S
C824 C827 1.356 . S
C824 O854 1.325 1_556 S
N825 C828 1.314 . S
N825 C829 1.279 . S
C826 C824 1.348 . S
C826 C828 1.353 . S
C826 H868 0.929 . S
C827 C824 1.356 . S
C827 C829 1.358 . S
C827 H869 0.930 . S
C828 N825 1.314 . S
C828 C826 1.353 . S
C828 H870 0.930 . S
C829 N825 1.279 . S
C829 C827 1.358 . S
C829 H871 0.930 . S
C830 C831 1.348 . S
C830 C832 1.356 . S
C830 O855 1.325 . S
C831 C830 1.348 . S
C831 C833 1.353 . S
C831 H872 0.929 . S
C832 C830 1.356 . S
C832 C834 1.358 . S
C832 H873 0.930 . S
C833 C831 1.353 . S
C833 N835 1.314 . S
C833 H874 0.930 . S
C834 C832 1.358 . S
C834 N835 1.279 . S
C834 H875 0.930 . S
N835 C833 1.314 . S
N835 C834 1.279 . S
C836 C838 1.353 . S
C836 N839 1.314 . S
C836 H842 0.930 . S
C837 N839 1.279 . S
C837 C840 1.358 . S
C837 H843 0.930 1_554 S
C838 C836 1.353 . S
C838 C841 1.348 . S
C838 H876 0.929 . S
N839 Li794 1.990 . S
N839 C836 1.314 . S
N839 C837 1.279 . S
C840 C837 1.358 . S
C840 C841 1.356 . S
C840 H877 0.930 1_554 S
C841 C838 1.348 . S
C841 C840 1.356 . S
H842 C836 0.930 . S
H843 C837 0.930 1_556 S
C844 N845 1.314 . S
C844 C846 1.353 . S
C844 H850 0.930 . S
N845 Li795 1.990 1_556 S
N845 C844 1.314 . S
N845 C848 1.279 . S
C846 C844 1.353 . S
C846 C849 1.348 . S
C846 H878 0.929 . S
C847 C848 1.358 . S
C847 C849 1.356 . S
C847 H879 0.930 . S
C848 N845 1.279 . S
C848 C847 1.358 . S
C848 H851 0.930 . S
C849 C846 1.348 . S
C849 C847 1.356 . S
H850 C844 0.930 . S
H851 C848 0.930 . S
O852 Li792 1.956 . S
O852 Li793 1.970 . S
O852 Li794 1.961 . S
O852 C796 1.325 . S
O853 Li792 1.970 . S
O853 Li793 1.956 . S
O853 Li795 1.961 . S
O853 C802 1.325 . S
O854 Li792 1.961 . S
O854 Li794 1.956 . S
O854 Li795 1.970 . S
O854 C824 1.325 1_554 S
O855 Li793 1.961 . S
O855 Li794 1.970 . S
O855 Li795 1.956 . S
O855 C830 1.325 . S
H856 C798 0.929 . S
H857 C799 0.930 . S
H858 C800 0.930 . S
H859 C801 0.930 . S
H860 C803 0.930 . S
H861 C805 0.929 . S
H862 C806 0.930 . S
H863 C807 0.930 . S
H864 C810 0.930 . S
H865 C813 0.938 . S
H866 C818 0.929 . S
H867 C819 0.930 . S
H868 C826 0.929 . S
H869 C827 0.930 . S
H870 C828 0.930 . S
H871 C829 0.930 . S
H872 C831 0.929 . S
H873 C832 0.930 . S
H874 C833 0.930 . S
H875 C834 0.930 . S
H876 C838 0.929 . S
H877 C840 0.930 1_556 S
H878 C846 0.929 . S
H879 C847 0.930 . S
Li880 N897 1.990 1_554 S
Li880 O940 1.956 . S
Li880 O941 1.970 . S
Li880 O942 1.961 . S
Li881 N905 1.990 . S
Li881 O940 1.970 . S
Li881 O941 1.956 . S
Li881 O943 1.961 . S
Li882 N927 1.990 . S
Li882 O940 1.961 . S
Li882 O942 1.956 . S
Li882 O943 1.970 . S
Li883 N933 1.990 . S
Li883 O941 1.961 . S
Li883 O942 1.970 . S
Li883 O943 1.956 . S
C884 C886 1.348 . S
C884 C887 1.356 . S
C884 O940 1.325 . S
N885 C888 1.314 . S
N885 C889 1.279 . S
C886 C884 1.348 . S
C886 C888 1.353 . S
C886 H944 0.929 . S
C887 C884 1.356 . S
C887 C889 1.358 . S
C887 H945 0.930 . S
C888 N885 1.314 . S
C888 C886 1.353 . S
C888 H946 0.930 . S
C889 N885 1.279 . S
C889 C887 1.358 . S
C889 H947 0.930 . S
C890 C893 1.348 . S
C890 C894 1.356 . S
C890 O941 1.325 1_556 S
C891 N892 1.279 . S
C891 C894 1.358 . S
C891 H948 0.930 . S
N892 C891 1.279 . S
N892 C895 1.314 . S
C893 C890 1.348 . S
C893 C895 1.353 . S
C893 H949 0.929 . S
C894 C890 1.356 . S
C894 C891 1.358 . S
C894 H950 0.930 . S
C895 N892 1.314 . S
C895 C893 1.353 . S
C895 H951 0.930 . S
C896 N897 1.314 . S
C896 C901 1.353 . S
C896 H902 0.930 . S
N897 Li880 1.990 1_556 S
N897 C896 1.314 . S
N897 C899 1.279 . S
C898 C899 1.358 . S
C898 C900 1.356 . S
C898 H952 0.930 . S
C899 N897 1.279 . S
C899 C898 1.358 . S
C899 H903 0.930 . S
C900 C898 1.356 . S
C900 C901 1.348 . S
C901 C896 1.353 . S
C901 C900 1.348 . S
C901 H953 0.929 . S
H902 C896 0.930 . S
H903 C899 0.930 . S
C904 N905 1.314 . S
C904 C906 1.353 . S
C904 H910 0.930 . S
N905 Li881 1.990 . S
N905 C904 1.314 . S
N905 C908 1.279 . S
C906 C904 1.353 . S
C906 C909 1.348 . S
C906 H954 0.929 . S
C907 C908 1.358 . S
C907 C909 1.356 . S
C907 H955 0.930 1_554 S
C908 N905 1.279 . S
C908 C907 1.358 . S
C908 H911 0.930 1_554 S
C909 C906 1.348 . S
C909 C907 1.356 . S
H910 C904 0.930 . S
H911 C908 0.930 1_556 S
C912 C914 1.348 . S
C912 C915 1.356 . S
C912 O942 1.325 . S
N913 C916 1.314 . S
N913 C917 1.279 . S
C914 C912 1.348 . S
C914 C916 1.353 . S
C914 H956 0.929 . S
C915 C912 1.356 . S
C915 C917 1.358 . S
C915 H957 0.930 . S
C916 N913 1.314 . S
C916 C914 1.353 . S
C916 H958 0.930 . S
C917 N913 1.279 . S
C917 C915 1.358 . S
C917 H959 0.930 . S
C918 C919 1.348 . S
C918 C920 1.356 . S
C918 O943 1.325 . S
C919 C918 1.348 . S
C919 C921 1.353 . S
C919 H960 0.929 . S
C920 C918 1.356 . S
C920 C922 1.358 . S
C920 H961 0.930 . S
C921 C919 1.353 . S
C921 N923 1.314 . S
C921 H962 0.930 . S
C922 C920 1.358 . S
C922 N923 1.279 . S
C922 H963 0.930 . S
N923 C921 1.314 . S
N923 C922 1.279 . S
C924 C926 1.353 . S
C924 N927 1.314 . S
C924 H930 0.930 . S
C925 N927 1.279 . S
C925 C928 1.358 . S
C925 H931 0.930 . S
C926 C924 1.353 . S
C926 C929 1.348 . S
C926 H964 0.929 . S
N927 Li882 1.990 . S
N927 C924 1.314 . S
N927 C925 1.279 . S
C928 C925 1.358 . S
C928 C929 1.356 . S
C928 H965 0.930 . S
C929 C926 1.348 . S
C929 C928 1.356 . S
H930 C924 0.930 . S
H931 C925 0.930 . S
C932 N933 1.314 . S
C932 C934 1.351 1_554 S
C932 H938 0.930 1_554 S
N933 Li883 1.990 . S
N933 C932 1.314 . S
N933 C936 1.279 . S
C934 C932 1.351 1_556 S
C934 C937 1.337 1_556 S
C934 H966 0.942 . S
C935 C936 1.358 . S
C935 C937 1.356 . S
C935 H967 0.930 . S
C936 N933 1.279 . S
C936 C935 1.358 . S
C936 H939 0.930 . S
C937 C934 1.337 1_554 S
C937 C935 1.356 . S
H938 C932 0.930 1_556 S
H939 C936 0.930 . S
O940 Li880 1.956 . S
O940 Li881 1.970 . S
O940 Li882 1.961 . S
O940 C884 1.325 . S
O941 Li880 1.970 . S
O941 Li881 1.956 . S
O941 Li883 1.961 . S
O941 C890 1.325 1_554 S
O942 Li880 1.961 . S
O942 Li882 1.956 . S
O942 Li883 1.970 . S
O942 C912 1.325 . S
O943 Li881 1.961 . S
O943 Li882 1.970 . S
O943 Li883 1.956 . S
O943 C918 1.325 . S
H944 C886 0.929 . S
H945 C887 0.930 . S
H946 C888 0.930 . S
H947 C889 0.930 . S
H948 C891 0.930 . S
H949 C893 0.929 . S
H950 C894 0.930 . S
H951 C895 0.930 . S
H952 C898 0.930 . S
H953 C901 0.929 . S
H954 C906 0.929 . S
H955 C907 0.930 1_556 S
H956 C914 0.929 . S
H957 C915 0.930 . S
H958 C916 0.930 . S
H959 C917 0.930 . S
H960 C919 0.929 . S
H961 C920 0.930 . S
H962 C921 0.930 . S
H963 C922 0.930 . S
H964 C926 0.929 . S
H965 C928 0.930 . S
H966 C934 0.942 . S
H967 C935 0.930 . S
Li968 N985 1.990 . S
Li968 O1028 1.956 . S
Li968 O1029 1.970 . S
Li968 O1030 1.961 . S
Li969 N993 1.990 . S
Li969 O1028 1.970 . S
Li969 O1029 1.956 . S
Li969 O1031 1.961 . S
Li970 N1015 1.990 . S
Li970 O1028 1.961 . S
Li970 O1030 1.956 . S
Li970 O1031 1.970 . S
Li971 N1021 1.990 1_554 S
Li971 O1029 1.961 . S
Li971 O1030 1.970 . S
Li971 O1031 1.956 . S
C972 C974 1.348 . S
C972 C975 1.356 . S
C972 O1028 1.325 . S
N973 C976 1.314 . S
N973 C977 1.279 . S
C974 C972 1.348 . S
C974 C976 1.353 . S
C974 H1032 0.929 . S
C975 C972 1.356 . S
C975 C977 1.358 . S
C975 H1033 0.930 . S
C976 N973 1.314 . S
C976 C974 1.353 . S
C976 H1034 0.930 . S
C977 N973 1.279 . S
C977 C975 1.358 . S
C977 H1035 0.930 . S
C978 C981 1.348 . S
C978 C982 1.356 . S
C978 O1029 1.325 . S
C979 N980 1.279 . S
C979 C982 1.358 . S
C979 H1036 0.930 . S
N980 C979 1.279 . S
N980 C983 1.314 . S
C981 C978 1.348 . S
C981 C983 1.353 . S
C981 H1037 0.929 . S
C982 C978 1.356 . S
C982 C979 1.358 . S
C982 H1038 0.930 . S
C983 N980 1.314 . S
C983 C981 1.353 . S
C983 H1039 0.930 . S
C984 N985 1.314 . S
C984 C989 1.352 1_554 S
C984 H990 0.930 1_554 S
N985 Li968 1.990 . S
N985 C984 1.314 . S
N985 C987 1.279 . S
C986 C987 1.358 . S
C986 C988 1.356 . S
C986 H1040 0.930 . S
C987 N985 1.279 . S
C987 C986 1.358 . S
C987 H991 0.930 . S
C988 C986 1.356 . S
C988 C989 1.340 1_554 S
C989 C984 1.352 1_556 S
C989 C988 1.340 1_556 S
C989 H1041 0.938 . S
H990 C984 0.930 1_556 S
H991 C987 0.930 . S
C992 N993 1.314 . S
C992 C994 1.353 . S
C992 H998 0.930 . S
N993 Li969 1.990 . S
N993 C992 1.314 . S
N993 C996 1.279 . S
C994 C992 1.353 . S
C994 C997 1.348 . S
C994 H1042 0.929 . S
C995 C996 1.358 . S
C995 C997 1.356 . S
C995 H1043 0.930 . S
C996 N993 1.279 . S
C996 C995 1.358 . S
C996 H999 0.930 . S
C997 C994 1.348 . S
C997 C995 1.356 . S
H998 C992 0.930 . S
H999 C996 0.930 . S
C1000 C1002 1.348 . S
C1000 C1003 1.356 . S
C1000 O1030 1.325 1_556 S
N1001 C1004 1.314 . S
N1001 C1005 1.279 . S
C1002 C1000 1.348 . S
C1002 C1004 1.353 . S
C1002 H1044 0.929 . S
C1003 C1000 1.356 . S
C1003 C1005 1.358 . S
C1003 H1045 0.930 . S
C1004 N1001 1.314 . S
C1004 C1002 1.353 . S
C1004 H1046 0.930 . S
C1005 N1001 1.279 . S
C1005 C1003 1.358 . S
C1005 H1047 0.930 . S
C1006 C1007 1.348 . S
C1006 C1008 1.356 . S
C1006 O1031 1.325 . S
C1007 C1006 1.348 . S
C1007 C1009 1.353 . S
C1007 H1048 0.929 . S
C1008 C1006 1.356 . S
C1008 C1010 1.358 . S
C1008 H1049 0.930 . S
C1009 C1007 1.353 . S
C1009 N1011 1.314 . S
C1009 H1050 0.930 . S
C1010 C1008 1.358 . S
C1010 N1011 1.279 . S
C1010 H1051 0.930 . S
N1011 C1009 1.314 . S
N1011 C1010 1.279 . S
C1012 C1014 1.353 . S
C1012 N1015 1.314 . S
C1012 H1018 0.930 . S
C1013 N1015 1.279 . S
C1013 C1016 1.358 . S
C1013 H1019 0.930 1_554 S
C1014 C1012 1.353 . S
C1014 C1017 1.348 . S
C1014 H1052 0.929 . S
N1015 Li970 1.990 . S
N1015 C1012 1.314 . S
N1015 C1013 1.279 . S
C1016 C1013 1.358 . S
C1016 C1017 1.356 . S
C1016 H1053 0.930 1_554 S
C1017 C1014 1.348 . S
C1017 C1016 1.356 . S
H1018 C1012 0.930 . S
H1019 C1013 0.930 1_556 S
C1020 N1021 1.314 . S
C1020 C1022 1.353 . S
C1020 H1026 0.930 . S
N1021 Li971 1.990 1_556 S
N1021 C1020 1.314 . S
N1021 C1024 1.279 . S
C1022 C1020 1.353 . S
C1022 C1025 1.348 . S
C1022 H1054 0.929 . S
C1023 C1024 1.358 . S
C1023 C1025 1.356 . S
C1023 H1055 0.930 . S
C1024 N1021 1.279 . S
C1024 C1023 1.358 . S
C1024 H1027 0.930 . S
C1025 C1022 1.348 . S
C1025 C1023 1.356 . S
H1026 C1020 0.930 . S
H1027 C1024 0.930 . S
O1028 Li968 1.956 . S
O1028 Li969 1.970 . S
O1028 Li970 1.961 . S
O1028 C972 1.325 . S
O1029 Li968 1.970 . S
O1029 Li969 1.956 . S
O1029 Li971 1.961 . S
O1029 C978 1.325 . S
O1030 Li968 1.961 . S
O1030 Li970 1.956 . S
O1030 Li971 1.970 . S
O1030 C1000 1.325 1_554 S
O1031 Li969 1.961 . S
O1031 Li970 1.970 . S
O1031 Li971 1.956 . S
O1031 C1006 1.325 . S
H1032 C974 0.929 . S
H1033 C975 0.930 . S
H1034 C976 0.930 . S
H1035 C977 0.930 . S
H1036 C979 0.930 . S
H1037 C981 0.929 . S
H1038 C982 0.930 . S
H1039 C983 0.930 . S
H1040 C986 0.930 . S
H1041 C989 0.938 . S
H1042 C994 0.929 . S
H1043 C995 0.930 . S
H1044 C1002 0.929 . S
H1045 C1003 0.930 . S
H1046 C1004 0.930 . S
H1047 C1005 0.930 . S
H1048 C1007 0.929 . S
H1049 C1008 0.930 . S
H1050 C1009 0.930 . S
H1051 C1010 0.930 . S
H1052 C1014 0.929 . S
H1053 C1016 0.930 1_556 S
H1054 C1022 0.929 . S
H1055 C1023 0.930 . S
Li1056 N1073 1.990 . S
Li1056 O1116 1.956 . S
Li1056 O1117 1.970 . S
Li1056 O1118 1.961 . S
Li1057 N1081 1.990 . S
Li1057 O1116 1.970 . S
Li1057 O1117 1.956 . S
Li1057 O1119 1.961 . S
Li1058 N1103 1.990 . S
Li1058 O1116 1.961 . S
Li1058 O1118 1.956 . S
Li1058 O1119 1.970 . S
Li1059 N1109 1.990 . S
Li1059 O1117 1.961 . S
Li1059 O1118 1.970 . S
Li1059 O1119 1.956 . S
C1060 C1062 1.348 . S
C1060 C1063 1.356 . S
C1060 O1116 1.325 . S
N1061 C1064 1.314 . S
N1061 C1065 1.279 . S
C1062 C1060 1.348 . S
C1062 C1064 1.353 . S
C1062 H1120 0.929 . S
C1063 C1060 1.356 . S
C1063 C1065 1.358 . S
C1063 H1121 0.930 . S
C1064 N1061 1.314 . S
C1064 C1062 1.353 . S
C1064 H1122 0.930 . S
C1065 N1061 1.279 . S
C1065 C1063 1.358 . S
C1065 H1123 0.930 . S
C1066 C1069 1.348 . S
C1066 C1070 1.356 . S
C1066 O1117 1.325 . S
C1067 N1068 1.279 . S
C1067 C1070 1.358 . S
C1067 H1124 0.930 . S
N1068 C1067 1.279 . S
N1068 C1071 1.314 . S
C1069 C1066 1.348 . S
C1069 C1071 1.353 . S
C1069 H1125 0.929 . S
C1070 C1066 1.356 . S
C1070 C1067 1.358 . S
C1070 H1126 0.930 . S
C1071 N1068 1.314 . S
C1071 C1069 1.353 . S
C1071 H1127 0.930 . S
C1072 N1073 1.314 . S
C1072 C1077 1.353 . S
C1072 H1078 0.930 . S
N1073 Li1056 1.990 . S
N1073 C1072 1.314 . S
N1073 C1075 1.279 . S
C1074 C1075 1.358 . S
C1074 C1076 1.356 . S
C1074 H1128 0.930 . S
C1075 N1073 1.279 . S
C1075 C1074 1.358 . S
C1075 H1079 0.930 . S
C1076 C1074 1.356 . S
C1076 C1077 1.348 . S
C1077 C1072 1.353 . S
C1077 C1076 1.348 . S
C1077 H1129 0.929 . S
H1078 C1072 0.930 . S
H1079 C1075 0.930 . S
C1080 N1081 1.314 . S
C1080 C1082 1.353 . S
C1080 H1086 0.930 . S
N1081 Li1057 1.990 . S
N1081 C1080 1.314 . S
N1081 C1084 1.279 . S
C1082 C1080 1.353 . S
C1082 C1085 1.348 . S
C1082 H1130 0.929 . S
C1083 C1084 1.358 . S
C1083 C1085 1.356 . S
C1083 H1131 0.930 . S
C1084 N1081 1.279 . S
C1084 C1083 1.358 . S
C1084 H1087 0.930 . S
C1085 C1082 1.348 . S
C1085 C1083 1.356 . S
H1086 C1080 0.930 . S
H1087 C1084 0.930 . S
C1088 C1090 1.348 . S
C1088 C1091 1.356 . S
C1088 O1118 1.325 . S
N1089 C1092 1.314 . S
N1089 C1093 1.279 . S
C1090 C1088 1.348 . S
C1090 C1092 1.353 . S
C1090 H1132 0.929 . S
C1091 C1088 1.356 . S
C1091 C1093 1.358 . S
C1091 H1133 0.930 . S
C1092 N1089 1.314 . S
C1092 C1090 1.353 . S
C1092 H1134 0.930 . S
C1093 N1089 1.279 . S
C1093 C1091 1.358 . S
C1093 H1135 0.930 . S
C1094 C1095 1.348 . S
C1094 C1096 1.356 . S
C1094 O1119 1.325 . S
C1095 C1094 1.348 . S
C1095 C1097 1.353 . S
C1095 H1136 0.929 . S
C1096 C1094 1.356 . S
C1096 C1098 1.358 . S
C1096 H1137 0.930 . S
C1097 C1095 1.353 . S
C1097 N1099 1.314 . S
C1097 H1138 0.930 . S
C1098 C1096 1.358 . S
C1098 N1099 1.279 . S
C1098 H1139 0.930 . S
N1099 C1097 1.314 . S
N1099 C1098 1.279 . S
C1100 C1102 1.353 . S
C1100 N1103 1.314 . S
C1100 H1106 0.930 . S
C1101 N1103 1.279 . S
C1101 C1104 1.358 . S
C1101 H1107 0.930 . S
C1102 C1100 1.353 . S
C1102 C1105 1.348 . S
C1102 H1140 0.929 . S
N1103 Li1058 1.990 . S
N1103 C1100 1.314 . S
N1103 C1101 1.279 . S
C1104 C1101 1.358 . S
C1104 C1105 1.356 . S
C1104 H1141 0.930 . S
C1105 C1102 1.348 . S
C1105 C1104 1.356 . S
H1106 C1100 0.930 . S
H1107 C1101 0.930 . S
C1108 N1109 1.314 . S
C1108 C1110 1.353 . S
C1108 H1114 0.930 . S
N1109 Li1059 1.990 . S
N1109 C1108 1.314 . S
N1109 C1112 1.279 . S
C1110 C1108 1.353 . S
C1110 C1113 1.348 . S
C1110 H1142 0.929 . S
C1111 C1112 1.358 . S
C1111 C1113 1.356 . S
C1111 H1143 0.930 . S
C1112 N1109 1.279 . S
C1112 C1111 1.358 . S
C1112 H1115 0.930 . S
C1113 C1110 1.348 . S
C1113 C1111 1.356 . S
H1114 C1108 0.930 . S
H1115 C1112 0.930 . S
O1116 Li1056 1.956 . S
O1116 Li1057 1.970 . S
O1116 Li1058 1.961 . S
O1116 C1060 1.325 . S
O1117 Li1056 1.970 . S
O1117 Li1057 1.956 . S
O1117 Li1059 1.961 . S
O1117 C1066 1.325 . S
O1118 Li1056 1.961 . S
O1118 Li1058 1.956 . S
O1118 Li1059 1.970 . S
O1118 C1088 1.325 . S
O1119 Li1057 1.961 . S
O1119 Li1058 1.970 . S
O1119 Li1059 1.956 . S
O1119 C1094 1.325 . S
H1120 C1062 0.929 . S
H1121 C1063 0.930 . S
H1122 C1064 0.930 . S
H1123 C1065 0.930 . S
H1124 C1067 0.930 . S
H1125 C1069 0.929 . S
H1126 C1070 0.930 . S
H1127 C1071 0.930 . S
H1128 C1074 0.930 . S
H1129 C1077 0.929 . S
H1130 C1082 0.929 . S
H1131 C1083 0.930 . S
H1132 C1090 0.929 . S
H1133 C1091 0.930 . S
H1134 C1092 0.930 . S
H1135 C1093 0.930 . S
H1136 C1095 0.929 . S
H1137 C1096 0.930 . S
H1138 C1097 0.930 . S
H1139 C1098 0.930 . S
H1140 C1102 0.929 . S
H1141 C1104 0.930 . S
H1142 C1110 0.929 . S
H1143 C1111 0.930 . S
Li1144 N1161 1.990 . S
Li1144 O1204 1.956 . S
Li1144 O1205 1.970 . S
Li1144 O1206 1.961 . S
Li1145 N1169 1.990 . S
Li1145 O1204 1.970 . S
Li1145 O1205 1.956 . S
Li1145 O1207 1.961 . S
Li1146 N1191 1.990 . S
Li1146 O1204 1.961 . S
Li1146 O1206 1.956 . S
Li1146 O1207 1.970 . S
Li1147 N1197 1.990 . S
Li1147 O1205 1.961 . S
Li1147 O1206 1.970 . S
Li1147 O1207 1.956 . S
C1148 C1150 1.348 . S
C1148 C1151 1.356 . S
C1148 O1204 1.325 . S
N1149 C1152 1.314 . S
N1149 C1153 1.279 . S
C1150 C1148 1.348 . S
C1150 C1152 1.353 . S
C1150 H1208 0.929 . S
C1151 C1148 1.356 . S
C1151 C1153 1.358 . S
C1151 H1209 0.930 . S
C1152 N1149 1.314 . S
C1152 C1150 1.353 . S
C1152 H1210 0.930 . S
C1153 N1149 1.279 . S
C1153 C1151 1.358 . S
C1153 H1211 0.930 . S
C1154 C1157 1.348 . S
C1154 C1158 1.356 . S
C1154 O1205 1.325 . S
C1155 N1156 1.279 . S
C1155 C1158 1.358 . S
C1155 H1212 0.930 . S
N1156 C1155 1.279 . S
N1156 C1159 1.314 . S
C1157 C1154 1.348 . S
C1157 C1159 1.353 . S
C1157 H1213 0.929 . S
C1158 C1154 1.356 . S
C1158 C1155 1.358 . S
C1158 H1214 0.930 . S
C1159 N1156 1.314 . S
C1159 C1157 1.353 . S
C1159 H1215 0.930 . S
C1160 N1161 1.314 . S
C1160 C1165 1.353 . S
C1160 H1166 0.930 . S
N1161 Li1144 1.990 . S
N1161 C1160 1.314 . S
N1161 C1163 1.279 . S
C1162 C1163 1.358 . S
C1162 C1164 1.356 . S
C1162 H1216 0.930 . S
C1163 N1161 1.279 . S
C1163 C1162 1.358 . S
C1163 H1167 0.930 . S
C1164 C1162 1.356 . S
C1164 C1165 1.348 . S
C1165 C1160 1.353 . S
C1165 C1164 1.348 . S
C1165 H1217 0.929 . S
H1166 C1160 0.930 . S
H1167 C1163 0.930 . S
C1168 N1169 1.314 . S
C1168 C1170 1.353 . S
C1168 H1174 0.930 . S
N1169 Li1145 1.990 . S
N1169 C1168 1.314 . S
N1169 C1172 1.279 . S
C1170 C1168 1.353 . S
C1170 C1173 1.348 . S
C1170 H1218 0.929 . S
C1171 C1172 1.358 . S
C1171 C1173 1.356 . S
C1171 H1219 0.930 . S
C1172 N1169 1.279 . S
C1172 C1171 1.358 . S
C1172 H1175 0.930 . S
C1173 C1170 1.348 . S
C1173 C1171 1.356 . S
H1174 C1168 0.930 . S
H1175 C1172 0.930 . S
C1176 C1178 1.348 . S
C1176 C1179 1.356 . S
C1176 O1206 1.325 . S
N1177 C1180 1.314 . S
N1177 C1181 1.279 . S
C1178 C1176 1.348 . S
C1178 C1180 1.353 . S
C1178 H1220 0.929 . S
C1179 C1176 1.356 . S
C1179 C1181 1.358 . S
C1179 H1221 0.930 . S
C1180 N1177 1.314 . S
C1180 C1178 1.353 . S
C1180 H1222 0.930 . S
C1181 N1177 1.279 . S
C1181 C1179 1.358 . S
C1181 H1223 0.930 . S
C1182 C1183 1.348 . S
C1182 C1184 1.356 . S
C1182 O1207 1.325 . S
C1183 C1182 1.348 . S
C1183 C1185 1.353 . S
C1183 H1224 0.929 . S
C1184 C1182 1.356 . S
C1184 C1186 1.358 . S
C1184 H1225 0.930 . S
C1185 C1183 1.353 . S
C1185 N1187 1.314 . S
C1185 H1226 0.930 . S
C1186 C1184 1.358 . S
C1186 N1187 1.279 . S
C1186 H1227 0.930 . S
N1187 C1185 1.314 . S
N1187 C1186 1.279 . S
C1188 C1190 1.353 . S
C1188 N1191 1.314 . S
C1188 H1194 0.930 . S
C1189 N1191 1.279 . S
C1189 C1192 1.358 . S
C1189 H1195 0.930 . S
C1190 C1188 1.353 . S
C1190 C1193 1.348 . S
C1190 H1228 0.929 . S
N1191 Li1146 1.990 . S
N1191 C1188 1.314 . S
N1191 C1189 1.279 . S
C1192 C1189 1.358 . S
C1192 C1193 1.356 . S
C1192 H1229 0.930 . S
C1193 C1190 1.348 . S
C1193 C1192 1.356 . S
H1194 C1188 0.930 . S
H1195 C1189 0.930 . S
C1196 N1197 1.314 . S
C1196 C1198 1.353 . S
C1196 H1202 0.930 . S
N1197 Li1147 1.990 . S
N1197 C1196 1.314 . S
N1197 C1200 1.279 . S
C1198 C1196 1.353 . S
C1198 C1201 1.348 . S
C1198 H1230 0.929 . S
C1199 C1200 1.358 . S
C1199 C1201 1.356 . S
C1199 H1231 0.930 . S
C1200 N1197 1.279 . S
C1200 C1199 1.358 . S
C1200 H1203 0.930 . S
C1201 C1198 1.348 . S
C1201 C1199 1.356 . S
H1202 C1196 0.930 . S
H1203 C1200 0.930 . S
O1204 Li1144 1.956 . S
O1204 Li1145 1.970 . S
O1204 Li1146 1.961 . S
O1204 C1148 1.325 . S
O1205 Li1144 1.970 . S
O1205 Li1145 1.956 . S
O1205 Li1147 1.961 . S
O1205 C1154 1.325 . S
O1206 Li1144 1.961 . S
O1206 Li1146 1.956 . S
O1206 Li1147 1.970 . S
O1206 C1176 1.325 . S
O1207 Li1145 1.961 . S
O1207 Li1146 1.970 . S
O1207 Li1147 1.956 . S
O1207 C1182 1.325 . S
H1208 C1150 0.929 . S
H1209 C1151 0.930 . S
H1210 C1152 0.930 . S
H1211 C1153 0.930 . S
H1212 C1155 0.930 . S
H1213 C1157 0.929 . S
H1214 C1158 0.930 . S
H1215 C1159 0.930 . S
H1216 C1162 0.930 . S
H1217 C1165 0.929 . S
H1218 C1170 0.929 . S
H1219 C1171 0.930 . S
H1220 C1178 0.929 . S
H1221 C1179 0.930 . S
H1222 C1180 0.930 . S
H1223 C1181 0.930 . S
H1224 C1183 0.929 . S
H1225 C1184 0.930 . S
H1226 C1185 0.930 . S
H1227 C1186 0.930 . S
H1228 C1190 0.929 . S
H1229 C1192 0.930 . S
H1230 C1198 0.929 . S
H1231 C1199 0.930 . S
Li1232 N1249 1.990 . S
Li1232 O1292 1.956 . S
Li1232 O1293 1.970 . S
Li1232 O1294 1.961 . S
Li1233 N1257 1.990 . S
Li1233 O1292 1.970 . S
Li1233 O1293 1.956 . S
Li1233 O1295 1.961 . S
Li1234 N1279 1.990 . S
Li1234 O1292 1.961 . S
Li1234 O1294 1.956 . S
Li1234 O1295 1.970 . S
Li1235 N1285 1.990 . S
Li1235 O1293 1.961 . S
Li1235 O1294 1.970 . S
Li1235 O1295 1.956 . S
C1236 C1238 1.348 . S
C1236 C1239 1.356 . S
C1236 O1292 1.325 . S
N1237 C1240 1.314 . S
N1237 C1241 1.279 . S
C1238 C1236 1.348 . S
C1238 C1240 1.353 . S
C1238 H1296 0.929 . S
C1239 C1236 1.356 . S
C1239 C1241 1.358 . S
C1239 H1297 0.930 . S
C1240 N1237 1.314 . S
C1240 C1238 1.353 . S
C1240 H1298 0.930 . S
C1241 N1237 1.279 . S
C1241 C1239 1.358 . S
C1241 H1299 0.930 . S
C1242 C1245 1.348 . S
C1242 C1246 1.356 . S
C1242 O1293 1.325 . S
C1243 N1244 1.279 . S
C1243 C1246 1.358 . S
C1243 H1300 0.930 . S
N1244 C1243 1.279 . S
N1244 C1247 1.314 . S
C1245 C1242 1.348 . S
C1245 C1247 1.353 . S
C1245 H1301 0.929 . S
C1246 C1242 1.356 . S
C1246 C1243 1.358 . S
C1246 H1302 0.930 . S
C1247 N1244 1.314 . S
C1247 C1245 1.353 . S
C1247 H1303 0.930 . S
C1248 N1249 1.314 . S
C1248 C1253 1.353 . S
C1248 H1254 0.930 . S
N1249 Li1232 1.990 . S
N1249 C1248 1.314 . S
N1249 C1251 1.279 . S
C1250 C1251 1.358 . S
C1250 C1252 1.356 . S
C1250 H1304 0.930 . S
C1251 N1249 1.279 . S
C1251 C1250 1.358 . S
C1251 H1255 0.930 . S
C1252 C1250 1.356 . S
C1252 C1253 1.348 . S
C1253 C1248 1.353 . S
C1253 C1252 1.348 . S
C1253 H1305 0.929 . S
H1254 C1248 0.930 . S
H1255 C1251 0.930 . S
C1256 N1257 1.314 . S
C1256 C1258 1.353 . S
C1256 H1262 0.930 . S
N1257 Li1233 1.990 . S
N1257 C1256 1.314 . S
N1257 C1260 1.279 . S
C1258 C1256 1.353 . S
C1258 C1261 1.348 . S
C1258 H1306 0.929 . S
C1259 C1260 1.358 . S
C1259 C1261 1.356 . S
C1259 H1307 0.930 . S
C1260 N1257 1.279 . S
C1260 C1259 1.358 . S
C1260 H1263 0.930 . S
C1261 C1258 1.348 . S
C1261 C1259 1.356 . S
H1262 C1256 0.930 . S
H1263 C1260 0.930 . S
C1264 C1266 1.348 . S
C1264 C1267 1.356 . S
C1264 O1294 1.325 . S
N1265 C1268 1.314 . S
N1265 C1269 1.279 . S
C1266 C1264 1.348 . S
C1266 C1268 1.353 . S
C1266 H1308 0.929 . S
C1267 C1264 1.356 . S
C1267 C1269 1.358 . S
C1267 H1309 0.930 . S
C1268 N1265 1.314 . S
C1268 C1266 1.353 . S
C1268 H1310 0.930 . S
C1269 N1265 1.279 . S
C1269 C1267 1.358 . S
C1269 H1311 0.930 . S
C1270 C1271 1.348 . S
C1270 C1272 1.356 . S
C1270 O1295 1.325 . S
C1271 C1270 1.348 . S
C1271 C1273 1.353 . S
C1271 H1312 0.929 . S
C1272 C1270 1.356 . S
C1272 C1274 1.358 . S
C1272 H1313 0.930 . S
C1273 C1271 1.353 . S
C1273 N1275 1.314 . S
C1273 H1314 0.930 . S
C1274 C1272 1.358 . S
C1274 N1275 1.279 . S
C1274 H1315 0.930 . S
N1275 C1273 1.314 . S
N1275 C1274 1.279 . S
C1276 C1278 1.353 . S
C1276 N1279 1.314 . S
C1276 H1282 0.930 . S
C1277 N1279 1.279 . S
C1277 C1280 1.358 . S
C1277 H1283 0.930 . S
C1278 C1276 1.353 . S
C1278 C1281 1.348 . S
C1278 H1316 0.929 . S
N1279 Li1234 1.990 . S
N1279 C1276 1.314 . S
N1279 C1277 1.279 . S
C1280 C1277 1.358 . S
C1280 C1281 1.356 . S
C1280 H1317 0.930 . S
C1281 C1278 1.348 . S
C1281 C1280 1.356 . S
H1282 C1276 0.930 . S
H1283 C1277 0.930 . S
C1284 N1285 1.314 . S
C1284 C1286 1.353 . S
C1284 H1290 0.930 . S
N1285 Li1235 1.990 . S
N1285 C1284 1.314 . S
N1285 C1288 1.279 . S
C1286 C1284 1.353 . S
C1286 C1289 1.348 . S
C1286 H1318 0.929 . S
C1287 C1288 1.358 . S
C1287 C1289 1.356 . S
C1287 H1319 0.930 . S
C1288 N1285 1.279 . S
C1288 C1287 1.358 . S
C1288 H1291 0.930 . S
C1289 C1286 1.348 . S
C1289 C1287 1.356 . S
H1290 C1284 0.930 . S
H1291 C1288 0.930 . S
O1292 Li1232 1.956 . S
O1292 Li1233 1.970 . S
O1292 Li1234 1.961 . S
O1292 C1236 1.325 . S
O1293 Li1232 1.970 . S
O1293 Li1233 1.956 . S
O1293 Li1235 1.961 . S
O1293 C1242 1.325 . S
O1294 Li1232 1.961 . S
O1294 Li1234 1.956 . S
O1294 Li1235 1.970 . S
O1294 C1264 1.325 . S
O1295 Li1233 1.961 . S
O1295 Li1234 1.970 . S
O1295 Li1235 1.956 . S
O1295 C1270 1.325 . S
H1296 C1238 0.929 . S
H1297 C1239 0.930 . S
H1298 C1240 0.930 . S
H1299 C1241 0.930 . S
H1300 C1243 0.930 . S
H1301 C1245 0.929 . S
H1302 C1246 0.930 . S
H1303 C1247 0.930 . S
H1304 C1250 0.930 . S
H1305 C1253 0.929 . S
H1306 C1258 0.929 . S
H1307 C1259 0.930 . S
H1308 C1266 0.929 . S
H1309 C1267 0.930 . S
H1310 C1268 0.930 . S
H1311 C1269 0.930 . S
H1312 C1271 0.929 . S
H1313 C1272 0.930 . S
H1314 C1273 0.930 . S
H1315 C1274 0.930 . S
H1316 C1278 0.929 . S
H1317 C1280 0.930 . S
H1318 C1286 0.929 . S
H1319 C1287 0.930 . S
Li1320 N1337 1.990 . S
Li1320 O1380 1.956 . S
Li1320 O1381 1.970 . S
Li1320 O1382 1.961 . S
Li1321 N1345 1.990 . S
Li1321 O1380 1.970 . S
Li1321 O1381 1.956 . S
Li1321 O1383 1.961 . S
Li1322 N1367 1.990 . S
Li1322 O1380 1.961 . S
Li1322 O1382 1.956 . S
Li1322 O1383 1.970 . S
Li1323 N1373 1.990 . S
Li1323 O1381 1.961 . S
Li1323 O1382 1.970 . S
Li1323 O1383 1.956 . S
C1324 C1326 1.348 . S
C1324 C1327 1.356 . S
C1324 O1380 1.325 . S
N1325 C1328 1.314 . S
N1325 C1329 1.279 . S
C1326 C1324 1.348 . S
C1326 C1328 1.353 . S
C1326 H1384 0.929 . S
C1327 C1324 1.356 . S
C1327 C1329 1.358 . S
C1327 H1385 0.930 . S
C1328 N1325 1.314 . S
C1328 C1326 1.353 . S
C1328 H1386 0.930 . S
C1329 N1325 1.279 . S
C1329 C1327 1.358 . S
C1329 H1387 0.930 . S
C1330 C1333 1.348 . S
C1330 C1334 1.356 . S
C1330 O1381 1.325 . S
C1331 N1332 1.279 . S
C1331 C1334 1.358 . S
C1331 H1388 0.930 . S
N1332 C1331 1.279 . S
N1332 C1335 1.314 . S
C1333 C1330 1.348 . S
C1333 C1335 1.353 . S
C1333 H1389 0.929 . S
C1334 C1330 1.356 . S
C1334 C1331 1.358 . S
C1334 H1390 0.930 . S
C1335 N1332 1.314 . S
C1335 C1333 1.353 . S
C1335 H1391 0.930 . S
C1336 N1337 1.314 . S
C1336 C1341 1.353 . S
C1336 H1342 0.930 . S
N1337 Li1320 1.990 . S
N1337 C1336 1.314 . S
N1337 C1339 1.279 . S
C1338 C1339 1.358 . S
C1338 C1340 1.356 . S
C1338 H1392 0.930 . S
C1339 N1337 1.279 . S
C1339 C1338 1.358 . S
C1339 H1343 0.930 . S
C1340 C1338 1.356 . S
C1340 C1341 1.348 . S
C1341 C1336 1.353 . S
C1341 C1340 1.348 . S
C1341 H1393 0.929 . S
H1342 C1336 0.930 . S
H1343 C1339 0.930 . S
C1344 N1345 1.314 . S
C1344 C1346 1.353 . S
C1344 H1350 0.930 . S
N1345 Li1321 1.990 . S
N1345 C1344 1.314 . S
N1345 C1348 1.279 . S
C1346 C1344 1.353 . S
C1346 C1349 1.348 . S
C1346 H1394 0.929 . S
C1347 C1348 1.358 . S
C1347 C1349 1.356 . S
C1347 H1395 0.930 . S
C1348 N1345 1.279 . S
C1348 C1347 1.358 . S
C1348 H1351 0.930 . S
C1349 C1346 1.348 . S
C1349 C1347 1.356 . S
H1350 C1344 0.930 . S
H1351 C1348 0.930 . S
C1352 C1354 1.348 . S
C1352 C1355 1.356 . S
C1352 O1382 1.325 . S
N1353 C1356 1.240 1_455 S
N1353 C1357 1.327 . S
C1354 C1352 1.348 . S
C1354 C1356 1.353 . S
C1354 H1396 0.929 . S
C1355 C1352 1.356 . S
C1355 C1357 1.358 1_655 S
C1355 H1397 0.930 . S
C1356 N1353 1.240 1_655 S
C1356 C1354 1.353 . S
C1356 H1398 0.930 . S
C1357 N1353 1.327 . S
C1357 C1355 1.358 1_455 S
C1357 H1399 0.930 . S
C1358 C1359 1.348 . S
C1358 C1360 1.356 . S
C1358 O1383 1.325 . S
C1359 C1358 1.348 . S
C1359 C1361 1.353 . S
C1359 H1400 0.929 . S
C1360 C1358 1.356 . S
C1360 C1362 1.358 . S
C1360 H1401 0.930 . S
C1361 C1359 1.353 . S
C1361 N1363 1.314 . S
C1361 H1402 0.930 . S
C1362 C1360 1.358 . S
C1362 N1363 1.279 . S
C1362 H1403 0.930 . S
N1363 C1361 1.314 . S
N1363 C1362 1.279 . S
C1364 C1366 1.353 . S
C1364 N1367 1.314 . S
C1364 H1370 0.930 . S
C1365 N1367 1.279 . S
C1365 C1368 1.358 . S
C1365 H1371 0.930 . S
C1366 C1364 1.353 . S
C1366 C1369 1.348 . S
C1366 H1404 0.929 . S
N1367 Li1322 1.990 . S
N1367 C1364 1.314 . S
N1367 C1365 1.279 . S
C1368 C1365 1.358 . S
C1368 C1369 1.356 . S
C1368 H1405 0.930 . S
C1369 C1366 1.348 . S
C1369 C1368 1.356 . S
H1370 C1364 0.930 . S
H1371 C1365 0.930 . S
C1372 N1373 1.314 . S
C1372 C1374 1.353 . S
C1372 H1378 0.930 . S
N1373 Li1323 1.990 . S
N1373 C1372 1.314 . S
N1373 C1376 1.279 . S
C1374 C1372 1.353 . S
C1374 C1377 1.348 . S
C1374 H1406 0.929 . S
C1375 C1376 1.358 . S
C1375 C1377 1.356 . S
C1375 H1407 0.930 . S
C1376 N1373 1.279 . S
C1376 C1375 1.358 . S
C1376 H1379 0.930 . S
C1377 C1374 1.348 . S
C1377 C1375 1.356 . S
H1378 C1372 0.930 . S
H1379 C1376 0.930 . S
O1380 Li1320 1.956 . S
O1380 Li1321 1.970 . S
O1380 Li1322 1.961 . S
O1380 C1324 1.325 . S
O1381 Li1320 1.970 . S
O1381 Li1321 1.956 . S
O1381 Li1323 1.961 . S
O1381 C1330 1.325 . S
O1382 Li1320 1.961 . S
O1382 Li1322 1.956 . S
O1382 Li1323 1.970 . S
O1382 C1352 1.325 . S
O1383 Li1321 1.961 . S
O1383 Li1322 1.970 . S
O1383 Li1323 1.956 . S
O1383 C1358 1.325 . S
H1384 C1326 0.929 . S
H1385 C1327 0.930 . S
H1386 C1328 0.930 . S
H1387 C1329 0.930 . S
H1388 C1331 0.930 . S
H1389 C1333 0.929 . S
H1390 C1334 0.930 . S
H1391 C1335 0.930 . S
H1392 C1338 0.930 . S
H1393 C1341 0.929 . S
H1394 C1346 0.929 . S
H1395 C1347 0.930 . S
H1396 C1354 0.929 . S
H1397 C1355 0.930 . S
H1398 C1356 0.930 . S
H1399 C1357 0.930 . S
H1400 C1359 0.929 . S
H1401 C1360 0.930 . S
H1402 C1361 0.930 . S
H1403 C1362 0.930 . S
H1404 C1366 0.929 . S
H1405 C1368 0.930 . S
H1406 C1374 0.929 . S
H1407 C1375 0.930 . S
Li1408 N1425 1.990 . S
Li1408 O1468 1.956 . S
Li1408 O1469 1.970 . S
Li1408 O1470 1.961 . S
Li1409 N1433 1.990 . S
Li1409 O1468 1.970 . S
Li1409 O1469 1.956 . S
Li1409 O1471 1.961 . S
Li1410 N1455 1.990 . S
Li1410 O1468 1.961 . S
Li1410 O1470 1.956 . S
Li1410 O1471 1.970 . S
Li1411 N1461 1.990 . S
Li1411 O1469 1.961 . S
Li1411 O1470 1.970 . S
Li1411 O1471 1.956 . S
C1412 C1414 1.348 . S
C1412 C1415 1.356 . S
C1412 O1468 1.325 . S
N1413 C1416 1.314 . S
N1413 C1417 1.279 . S
C1414 C1412 1.348 . S
C1414 C1416 1.353 . S
C1414 H1472 0.929 . S
C1415 C1412 1.356 . S
C1415 C1417 1.358 . S
C1415 H1473 0.930 . S
C1416 N1413 1.314 . S
C1416 C1414 1.353 . S
C1416 H1474 0.930 . S
C1417 N1413 1.279 . S
C1417 C1415 1.358 . S
C1417 H1475 0.930 . S
C1418 C1421 1.348 . S
C1418 C1422 1.356 . S
C1418 O1469 1.325 . S
C1419 N1420 1.279 . S
C1419 C1422 1.358 . S
C1419 H1476 0.930 . S
N1420 C1419 1.279 . S
N1420 C1423 1.314 . S
C1421 C1418 1.348 . S
C1421 C1423 1.353 . S
C1421 H1477 0.929 . S
C1422 C1418 1.356 . S
C1422 C1419 1.358 . S
C1422 H1478 0.930 . S
C1423 N1420 1.314 . S
C1423 C1421 1.353 . S
C1423 H1479 0.930 . S
C1424 N1425 1.314 . S
C1424 C1429 1.353 . S
C1424 H1430 0.930 . S
N1425 Li1408 1.990 . S
N1425 C1424 1.314 . S
N1425 C1427 1.279 . S
C1426 C1427 1.358 . S
C1426 C1428 1.356 . S
C1426 H1480 0.930 . S
C1427 N1425 1.279 . S
C1427 C1426 1.358 . S
C1427 H1431 0.930 . S
C1428 C1426 1.356 . S
C1428 C1429 1.348 . S
C1429 C1424 1.353 . S
C1429 C1428 1.348 . S
C1429 H1481 0.929 . S
H1430 C1424 0.930 . S
H1431 C1427 0.930 . S
C1432 N1433 1.314 . S
C1432 C1434 1.353 . S
C1432 H1438 0.930 . S
N1433 Li1409 1.990 . S
N1433 C1432 1.314 . S
N1433 C1436 1.279 . S
C1434 C1432 1.353 . S
C1434 C1437 1.348 . S
C1434 H1482 0.929 . S
C1435 C1436 1.358 . S
C1435 C1437 1.356 . S
C1435 H1483 0.930 . S
C1436 N1433 1.279 . S
C1436 C1435 1.358 . S
C1436 H1439 0.930 . S
C1437 C1434 1.348 . S
C1437 C1435 1.356 . S
H1438 C1432 0.930 . S
H1439 C1436 0.930 . S
C1440 C1442 1.348 . S
C1440 C1443 1.356 . S
C1440 O1470 1.325 . S
N1441 C1444 1.314 . S
N1441 C1445 1.279 . S
C1442 C1440 1.348 . S
C1442 C1444 1.353 . S
C1442 H1484 0.929 . S
C1443 C1440 1.356 . S
C1443 C1445 1.358 . S
C1443 H1485 0.930 . S
C1444 N1441 1.314 . S
C1444 C1442 1.353 . S
C1444 H1486 0.930 . S
C1445 N1441 1.279 . S
C1445 C1443 1.358 . S
C1445 H1487 0.930 . S
C1446 C1447 1.348 . S
C1446 C1448 1.356 . S
C1446 O1471 1.325 . S
C1447 C1446 1.348 . S
C1447 C1449 1.353 . S
C1447 H1488 0.929 . S
C1448 C1446 1.356 . S
C1448 C1450 1.358 . S
C1448 H1489 0.930 . S
C1449 C1447 1.353 . S
C1449 N1451 1.314 . S
C1449 H1490 0.930 . S
C1450 C1448 1.358 . S
C1450 N1451 1.279 . S
C1450 H1491 0.930 . S
N1451 C1449 1.314 . S
N1451 C1450 1.279 . S
C1452 C1454 1.353 . S
C1452 N1455 1.314 . S
C1452 H1458 0.930 . S
C1453 N1455 1.279 . S
C1453 C1456 1.358 . S
C1453 H1459 0.930 . S
C1454 C1452 1.353 . S
C1454 C1457 1.348 . S
C1454 H1492 0.929 . S
N1455 Li1410 1.990 . S
N1455 C1452 1.314 . S
N1455 C1453 1.279 . S
C1456 C1453 1.358 . S
C1456 C1457 1.356 . S
C1456 H1493 0.930 . S
C1457 C1454 1.348 . S
C1457 C1456 1.356 . S
H1458 C1452 0.930 . S
H1459 C1453 0.930 . S
C1460 N1461 1.314 . S
C1460 C1462 1.353 . S
C1460 H1466 0.930 . S
N1461 Li1411 1.990 . S
N1461 C1460 1.314 . S
N1461 C1464 1.279 . S
C1462 C1460 1.353 . S
C1462 C1465 1.348 . S
C1462 H1494 0.929 . S
C1463 C1464 1.358 . S
C1463 C1465 1.356 . S
C1463 H1495 0.930 . S
C1464 N1461 1.279 . S
C1464 C1463 1.358 . S
C1464 H1467 0.930 . S
C1465 C1462 1.348 . S
C1465 C1463 1.356 . S
H1466 C1460 0.930 . S
H1467 C1464 0.930 . S
O1468 Li1408 1.956 . S
O1468 Li1409 1.970 . S
O1468 Li1410 1.961 . S
O1468 C1412 1.325 . S
O1469 Li1408 1.970 . S
O1469 Li1409 1.956 . S
O1469 Li1411 1.961 . S
O1469 C1418 1.325 . S
O1470 Li1408 1.961 . S
O1470 Li1410 1.956 . S
O1470 Li1411 1.970 . S
O1470 C1440 1.325 . S
O1471 Li1409 1.961 . S
O1471 Li1410 1.970 . S
O1471 Li1411 1.956 . S
O1471 C1446 1.325 . S
H1472 C1414 0.929 . S
H1473 C1415 0.930 . S
H1474 C1416 0.930 . S
H1475 C1417 0.930 . S
H1476 C1419 0.930 . S
H1477 C1421 0.929 . S
H1478 C1422 0.930 . S
H1479 C1423 0.930 . S
H1480 C1426 0.930 . S
H1481 C1429 0.929 . S
H1482 C1434 0.929 . S
H1483 C1435 0.930 . S
H1484 C1442 0.929 . S
H1485 C1443 0.930 . S
H1486 C1444 0.930 . S
H1487 C1445 0.930 . S
H1488 C1447 0.929 . S
H1489 C1448 0.930 . S
H1490 C1449 0.930 . S
H1491 C1450 0.930 . S
H1492 C1454 0.929 . S
H1493 C1456 0.930 . S
H1494 C1462 0.929 . S
H1495 C1463 0.930 . S
Li1496 N1513 1.990 . S
Li1496 O1556 1.956 . S
Li1496 O1557 1.970 . S
Li1496 O1558 1.961 . S
Li1497 N1521 1.990 . S
Li1497 O1556 1.970 . S
Li1497 O1557 1.956 . S
Li1497 O1559 1.961 . S
Li1498 N1543 1.990 . S
Li1498 O1556 1.961 . S
Li1498 O1558 1.956 . S
Li1498 O1559 1.970 . S
Li1499 N1549 1.990 . S
Li1499 O1557 1.961 . S
Li1499 O1558 1.970 . S
Li1499 O1559 1.956 . S
C1500 C1502 1.348 . S
C1500 C1503 1.356 . S
C1500 O1556 1.325 . S
N1501 C1504 1.314 . S
N1501 C1505 1.279 . S
C1502 C1500 1.348 . S
C1502 C1504 1.353 . S
C1502 H1560 0.929 . S
C1503 C1500 1.356 . S
C1503 C1505 1.358 . S
C1503 H1561 0.930 . S
C1504 N1501 1.314 . S
C1504 C1502 1.353 . S
C1504 H1562 0.930 . S
C1505 N1501 1.279 . S
C1505 C1503 1.358 . S
C1505 H1563 0.930 . S
C1506 C1509 1.348 . S
C1506 C1510 1.356 . S
C1506 O1557 1.325 . S
C1507 N1508 1.279 . S
C1507 C1510 1.358 . S
C1507 H1564 0.930 . S
N1508 C1507 1.279 . S
N1508 C1511 1.314 . S
C1509 C1506 1.348 . S
C1509 C1511 1.353 . S
C1509 H1565 0.929 . S
C1510 C1506 1.356 . S
C1510 C1507 1.358 . S
C1510 H1566 0.930 . S
C1511 N1508 1.314 . S
C1511 C1509 1.353 . S
C1511 H1567 0.930 . S
C1512 N1513 1.314 . S
C1512 C1517 1.353 . S
C1512 H1518 0.930 . S
N1513 Li1496 1.990 . S
N1513 C1512 1.314 . S
N1513 C1515 1.279 . S
C1514 C1515 1.358 . S
C1514 C1516 1.356 . S
C1514 H1568 0.930 . S
C1515 N1513 1.279 . S
C1515 C1514 1.358 . S
C1515 H1519 0.930 . S
C1516 C1514 1.356 . S
C1516 C1517 1.348 . S
C1517 C1512 1.353 . S
C1517 C1516 1.348 . S
C1517 H1569 0.929 . S
H1518 C1512 0.930 . S
H1519 C1515 0.930 . S
C1520 N1521 1.314 . S
C1520 C1522 1.353 . S
C1520 H1526 0.930 . S
N1521 Li1497 1.990 . S
N1521 C1520 1.314 . S
N1521 C1524 1.279 . S
C1522 C1520 1.353 . S
C1522 C1525 1.348 . S
C1522 H1570 0.929 . S
C1523 C1524 1.358 . S
C1523 C1525 1.356 . S
C1523 H1571 0.930 . S
C1524 N1521 1.279 . S
C1524 C1523 1.358 . S
C1524 H1527 0.930 . S
C1525 C1522 1.348 . S
C1525 C1523 1.356 . S
H1526 C1520 0.930 . S
H1527 C1524 0.930 . S
C1528 C1530 1.348 . S
C1528 C1531 1.356 . S
C1528 O1558 1.325 . S
N1529 C1532 1.314 . S
N1529 C1533 1.279 . S
C1530 C1528 1.348 . S
C1530 C1532 1.353 . S
C1530 H1572 0.929 . S
C1531 C1528 1.356 . S
C1531 C1533 1.358 . S
C1531 H1573 0.930 . S
C1532 N1529 1.314 . S
C1532 C1530 1.353 . S
C1532 H1574 0.930 . S
C1533 N1529 1.279 . S
C1533 C1531 1.358 . S
C1533 H1575 0.930 . S
C1534 C1535 1.348 . S
C1534 C1536 1.356 . S
C1534 O1559 1.325 . S
C1535 C1534 1.348 . S
C1535 C1537 1.353 . S
C1535 H1576 0.929 . S
C1536 C1534 1.356 . S
C1536 C1538 1.358 1_545 S
C1536 H1577 0.930 . S
C1537 C1535 1.353 . S
C1537 N1539 1.258 1_545 S
C1537 H1578 0.930 . S
C1538 C1536 1.358 1_565 S
C1538 N1539 1.253 . S
C1538 H1579 0.930 . S
N1539 C1537 1.258 1_565 S
N1539 C1538 1.253 . S
C1540 C1542 1.353 . S
C1540 N1543 1.314 . S
C1540 H1546 0.930 . S
C1541 N1543 1.279 . S
C1541 C1544 1.358 . S
C1541 H1547 0.930 . S
C1542 C1540 1.353 . S
C1542 C1545 1.348 . S
C1542 H1580 0.929 . S
N1543 Li1498 1.990 . S
N1543 C1540 1.314 . S
N1543 C1541 1.279 . S
C1544 C1541 1.358 . S
C1544 C1545 1.356 . S
C1544 H1581 0.930 . S
C1545 C1542 1.348 . S
C1545 C1544 1.356 . S
H1546 C1540 0.930 . S
H1547 C1541 0.930 . S
C1548 N1549 1.314 . S
C1548 C1550 1.353 . S
C1548 H1554 0.930 . S
N1549 Li1499 1.990 . S
N1549 C1548 1.314 . S
N1549 C1552 1.279 . S
C1550 C1548 1.353 . S
C1550 C1553 1.348 . S
C1550 H1582 0.929 . S
C1551 C1552 1.358 . S
C1551 C1553 1.356 . S
C1551 H1583 0.930 . S
C1552 N1549 1.279 . S
C1552 C1551 1.358 . S
C1552 H1555 0.930 . S
C1553 C1550 1.348 . S
C1553 C1551 1.356 . S
H1554 C1548 0.930 . S
H1555 C1552 0.930 . S
O1556 Li1496 1.956 . S
O1556 Li1497 1.970 . S
O1556 Li1498 1.961 . S
O1556 C1500 1.325 . S
O1557 Li1496 1.970 . S
O1557 Li1497 1.956 . S
O1557 Li1499 1.961 . S
O1557 C1506 1.325 . S
O1558 Li1496 1.961 . S
O1558 Li1498 1.956 . S
O1558 Li1499 1.970 . S
O1558 C1528 1.325 . S
O1559 Li1497 1.961 . S
O1559 Li1498 1.970 . S
O1559 Li1499 1.956 . S
O1559 C1534 1.325 . S
H1560 C1502 0.929 . S
H1561 C1503 0.930 . S
H1562 C1504 0.930 . S
H1563 C1505 0.930 . S
H1564 C1507 0.930 . S
H1565 C1509 0.929 . S
H1566 C1510 0.930 . S
H1567 C1511 0.930 . S
H1568 C1514 0.930 . S
H1569 C1517 0.929 . S
H1570 C1522 0.929 . S
H1571 C1523 0.930 . S
H1572 C1530 0.929 . S
H1573 C1531 0.930 . S
H1574 C1532 0.930 . S
H1575 C1533 0.930 . S
H1576 C1535 0.929 . S
H1577 C1536 0.930 . S
H1578 C1537 0.930 . S
H1579 C1538 0.930 . S
H1580 C1542 0.929 . S
H1581 C1544 0.930 . S
H1582 C1550 0.929 . S
H1583 C1551 0.930 . S
Li1584 N1601 1.990 . S
Li1584 O1644 1.956 . S
Li1584 O1645 1.970 . S
Li1584 O1646 1.961 . S
Li1585 N1609 1.990 . S
Li1585 O1644 1.970 . S
Li1585 O1645 1.956 . S
Li1585 O1647 1.961 . S
Li1586 N1631 1.990 . S
Li1586 O1644 1.961 . S
Li1586 O1646 1.956 . S
Li1586 O1647 1.970 . S
Li1587 N1637 1.990 . S
Li1587 O1645 1.961 . S
Li1587 O1646 1.970 . S
Li1587 O1647 1.956 . S
C1588 C1590 1.348 . S
C1588 C1591 1.356 . S
C1588 O1644 1.325 . S
N1589 C1592 1.314 . S
N1589 C1593 1.279 . S
C1590 C1588 1.348 . S
C1590 C1592 1.353 . S
C1590 H1648 0.929 . S
C1591 C1588 1.356 . S
C1591 C1593 1.358 . S
C1591 H1649 0.930 . S
C1592 N1589 1.314 . S
C1592 C1590 1.353 . S
C1592 H1650 0.930 . S
C1593 N1589 1.279 . S
C1593 C1591 1.358 . S
C1593 H1651 0.930 . S
C1594 C1597 1.348 . S
C1594 C1598 1.356 . S
C1594 O1645 1.325 . S
C1595 N1596 1.279 . S
C1595 C1598 1.358 1_565 S
C1595 H1652 0.930 . S
N1596 C1595 1.279 . S
N1596 C1599 1.314 1_565 S
C1597 C1594 1.348 . S
C1597 C1599 1.353 . S
C1597 H1653 0.929 . S
C1598 C1594 1.356 . S
C1598 C1595 1.358 1_545 S
C1598 H1654 0.930 . S
C1599 N1596 1.314 1_545 S
C1599 C1597 1.353 . S
C1599 H1655 0.930 . S
C1600 N1601 1.314 . S
C1600 C1605 1.353 . S
C1600 H1606 0.930 . S
N1601 Li1584 1.990 . S
N1601 C1600 1.314 . S
N1601 C1603 1.279 . S
C1602 C1603 1.358 . S
C1602 C1604 1.356 . S
C1602 H1656 0.930 . S
C1603 N1601 1.279 . S
C1603 C1602 1.358 . S
C1603 H1607 0.930 . S
C1604 C1602 1.356 . S
C1604 C1605 1.348 . S
C1605 C1600 1.353 . S
C1605 C1604 1.348 . S
C1605 H1657 0.929 . S
H1606 C1600 0.930 . S
H1607 C1603 0.930 . S
C1608 N1609 1.314 . S
C1608 C1610 1.353 . S
C1608 H1614 0.930 . S
N1609 Li1585 1.990 . S
N1609 C1608 1.314 . S
N1609 C1612 1.279 . S
C1610 C1608 1.353 . S
C1610 C1613 1.348 . S
C1610 H1658 0.929 . S
C1611 C1612 1.358 . S
C1611 C1613 1.356 . S
C1611 H1659 0.930 1_545 S
C1612 N1609 1.279 . S
C1612 C1611 1.358 . S
C1612 H1615 0.930 . S
C1613 C1610 1.348 . S
C1613 C1611 1.356 . S
H1614 C1608 0.930 . S
H1615 C1612 0.930 . S
C1616 C1618 1.348 . S
C1616 C1619 1.356 . S
C1616 O1646 1.325 . S
N1617 C1620 1.314 . S
N1617 C1621 1.279 . S
C1618 C1616 1.348 . S
C1618 C1620 1.353 . S
C1618 H1660 0.929 . S
C1619 C1616 1.356 . S
C1619 C1621 1.358 . S
C1619 H1661 0.930 . S
C1620 N1617 1.314 . S
C1620 C1618 1.353 . S
C1620 H1662 0.930 . S
C1621 N1617 1.279 . S
C1621 C1619 1.358 . S
C1621 H1663 0.930 . S
C1622 C1623 1.348 . S
C1622 C1624 1.356 . S
C1622 O1647 1.325 . S
C1623 C1622 1.348 . S
C1623 C1625 1.353 . S
C1623 H1664 0.929 . S
C1624 C1622 1.356 . S
C1624 C1626 1.358 . S
C1624 H1665 0.930 . S
C1625 C1623 1.353 . S
C1625 N1627 1.314 . S
C1625 H1666 0.930 . S
C1626 C1624 1.358 . S
C1626 N1627 1.279 . S
C1626 H1667 0.930 . S
N1627 C1625 1.314 . S
N1627 C1626 1.279 . S
C1628 C1630 1.353 . S
C1628 N1631 1.314 . S
C1628 H1634 0.930 . S
C1629 N1631 1.279 . S
C1629 C1632 1.358 . S
C1629 H1635 0.930 . S
C1630 C1628 1.353 . S
C1630 C1633 1.348 . S
C1630 H1668 0.929 . S
N1631 Li1586 1.990 . S
N1631 C1628 1.314 . S
N1631 C1629 1.279 . S
C1632 C1629 1.358 . S
C1632 C1633 1.356 . S
C1632 H1669 0.930 . S
C1633 C1630 1.348 . S
C1633 C1632 1.356 . S
H1634 C1628 0.930 . S
H1635 C1629 0.930 . S
C1636 N1637 1.314 . S
C1636 C1638 1.353 . S
C1636 H1642 0.930 . S
N1637 Li1587 1.990 . S
N1637 C1636 1.314 . S
N1637 C1640 1.279 . S
C1638 C1636 1.353 . S
C1638 C1641 1.348 . S
C1638 H1670 0.929 . S
C1639 C1640 1.358 . S
C1639 C1641 1.356 . S
C1639 H1671 0.930 . S
C1640 N1637 1.279 . S
C1640 C1639 1.358 . S
C1640 H1643 0.930 . S
C1641 C1638 1.348 . S
C1641 C1639 1.356 . S
H1642 C1636 0.930 . S
H1643 C1640 0.930 . S
O1644 Li1584 1.956 . S
O1644 Li1585 1.970 . S
O1644 Li1586 1.961 . S
O1644 C1588 1.325 . S
O1645 Li1584 1.970 . S
O1645 Li1585 1.956 . S
O1645 Li1587 1.961 . S
O1645 C1594 1.325 . S
O1646 Li1584 1.961 . S
O1646 Li1586 1.956 . S
O1646 Li1587 1.970 . S
O1646 C1616 1.325 . S
O1647 Li1585 1.961 . S
O1647 Li1586 1.970 . S
O1647 Li1587 1.956 . S
O1647 C1622 1.325 . S
H1648 C1590 0.929 . S
H1649 C1591 0.930 . S
H1650 C1592 0.930 . S
H1651 C1593 0.930 . S
H1652 C1595 0.930 . S
H1653 C1597 0.929 . S
H1654 C1598 0.930 . S
H1655 C1599 0.930 . S
H1656 C1602 0.930 . S
H1657 C1605 0.929 . S
H1658 C1610 0.929 . S
H1659 C1611 0.930 1_565 S
H1660 C1618 0.929 . S
H1661 C1619 0.930 . S
H1662 C1620 0.930 . S
H1663 C1621 0.930 . S
H1664 C1623 0.929 . S
H1665 C1624 0.930 . S
H1666 C1625 0.930 . S
H1667 C1626 0.930 . S
H1668 C1630 0.929 . S
H1669 C1632 0.930 . S
H1670 C1638 0.929 . S
H1671 C1639 0.930 . S
Li1672 N1689 1.990 . S
Li1672 O1732 1.956 . S
Li1672 O1733 1.970 . S
Li1672 O1734 1.961 . S
Li1673 N1697 1.990 . S
Li1673 O1732 1.970 . S
Li1673 O1733 1.956 . S
Li1673 O1735 1.961 . S
Li1674 N1719 1.990 . S
Li1674 O1732 1.961 . S
Li1674 O1734 1.956 . S
Li1674 O1735 1.970 . S
Li1675 N1725 1.990 . S
Li1675 O1733 1.961 . S
Li1675 O1734 1.970 . S
Li1675 O1735 1.956 . S
C1676 C1678 1.348 . S
C1676 C1679 1.356 . S
C1676 O1732 1.325 . S
N1677 C1680 1.314 . S
N1677 C1681 1.279 . S
C1678 C1676 1.348 . S
C1678 C1680 1.353 . S
C1678 H1736 0.929 . S
C1679 C1676 1.356 . S
C1679 C1681 1.358 . S
C1679 H1737 0.930 . S
C1680 N1677 1.314 . S
C1680 C1678 1.353 . S
C1680 H1738 0.930 . S
C1681 N1677 1.279 . S
C1681 C1679 1.358 . S
C1681 H1739 0.930 . S
C1682 C1685 1.348 . S
C1682 C1686 1.356 . S
C1682 O1733 1.325 . S
C1683 N1684 1.279 . S
C1683 C1686 1.358 1_455 S
C1683 H1740 0.930 . S
N1684 C1683 1.279 . S
N1684 C1687 1.314 1_455 S
C1685 C1682 1.348 . S
C1685 C1687 1.353 . S
C1685 H1741 0.929 . S
C1686 C1682 1.356 . S
C1686 C1683 1.358 1_655 S
C1686 H1742 0.930 . S
C1687 N1684 1.314 1_655 S
C1687 C1685 1.353 . S
C1687 H1743 0.930 . S
C1688 N1689 1.314 . S
C1688 C1693 1.353 . S
C1688 H1694 0.930 . S
N1689 Li1672 1.990 . S
N1689 C1688 1.314 . S
N1689 C1691 1.279 . S
C1690 C1691 1.358 . S
C1690 C1692 1.356 . S
C1690 H1744 0.930 . S
C1691 N1689 1.279 . S
C1691 C1690 1.358 . S
C1691 H1695 0.930 . S
C1692 C1690 1.356 . S
C1692 C1693 1.348 . S
C1693 C1688 1.353 . S
C1693 C1692 1.348 . S
C1693 H1745 0.929 . S
H1694 C1688 0.930 . S
H1695 C1691 0.930 . S
C1696 N1697 1.314 . S
C1696 C1698 1.353 . S
C1696 H1702 0.930 . S
N1697 Li1673 1.990 . S
N1697 C1696 1.314 . S
N1697 C1700 1.279 . S
C1698 C1696 1.353 . S
C1698 C1701 1.348 . S
C1698 H1746 0.929 . S
C1699 C1700 1.358 . S
C1699 C1701 1.356 . S
C1699 H1747 0.930 1_655 S
C1700 N1697 1.279 . S
C1700 C1699 1.358 . S
C1700 H1703 0.930 . S
C1701 C1698 1.348 . S
C1701 C1699 1.356 . S
H1702 C1696 0.930 . S
H1703 C1700 0.930 . S
C1704 C1706 1.348 . S
C1704 C1707 1.356 . S
C1704 O1734 1.325 . S
N1705 C1708 1.314 . S
N1705 C1709 1.279 . S
C1706 C1704 1.348 . S
C1706 C1708 1.353 . S
C1706 H1748 0.929 . S
C1707 C1704 1.356 . S
C1707 C1709 1.358 . S
C1707 H1749 0.930 . S
C1708 N1705 1.314 . S
C1708 C1706 1.353 . S
C1708 H1750 0.930 . S
C1709 N1705 1.279 . S
C1709 C1707 1.358 . S
C1709 H1751 0.930 . S
C1710 C1711 1.348 . S
C1710 C1712 1.356 . S
C1710 O1735 1.325 . S
C1711 C1710 1.348 . S
C1711 C1713 1.353 . S
C1711 H1752 0.929 . S
C1712 C1710 1.356 . S
C1712 C1714 1.358 . S
C1712 H1753 0.930 . S
C1713 C1711 1.353 . S
C1713 N1715 1.314 . S
C1713 H1754 0.930 . S
C1714 C1712 1.358 . S
C1714 N1715 1.279 . S
C1714 H1755 0.930 . S
N1715 C1713 1.314 . S
N1715 C1714 1.279 . S
C1716 C1718 1.353 . S
C1716 N1719 1.314 . S
C1716 H1722 0.930 . S
C1717 N1719 1.279 . S
C1717 C1720 1.358 . S
C1717 H1723 0.930 . S
C1718 C1716 1.353 . S
C1718 C1721 1.348 . S
C1718 H1756 0.929 . S
N1719 Li1674 1.990 . S
N1719 C1716 1.314 . S
N1719 C1717 1.279 . S
C1720 C1717 1.358 . S
C1720 C1721 1.356 . S
C1720 H1757 0.930 . S
C1721 C1718 1.348 . S
C1721 C1720 1.356 . S
H1722 C1716 0.930 . S
H1723 C1717 0.930 . S
C1724 N1725 1.314 . S
C1724 C1726 1.353 . S
C1724 H1730 0.930 . S
N1725 Li1675 1.990 . S
N1725 C1724 1.314 . S
N1725 C1728 1.279 . S
C1726 C1724 1.353 . S
C1726 C1729 1.348 . S
C1726 H1758 0.929 . S
C1727 C1728 1.358 . S
C1727 C1729 1.356 . S
C1727 H1759 0.930 . S
C1728 N1725 1.279 . S
C1728 C1727 1.358 . S
C1728 H1731 0.930 . S
C1729 C1726 1.348 . S
C1729 C1727 1.356 . S
H1730 C1724 0.930 . S
H1731 C1728 0.930 . S
O1732 Li1672 1.956 . S
O1732 Li1673 1.970 . S
O1732 Li1674 1.961 . S
O1732 C1676 1.325 . S
O1733 Li1672 1.970 . S
O1733 Li1673 1.956 . S
O1733 Li1675 1.961 . S
O1733 C1682 1.325 . S
O1734 Li1672 1.961 . S
O1734 Li1674 1.956 . S
O1734 Li1675 1.970 . S
O1734 C1704 1.325 . S
O1735 Li1673 1.961 . S
O1735 Li1674 1.970 . S
O1735 Li1675 1.956 . S
O1735 C1710 1.325 . S
H1736 C1678 0.929 . S
H1737 C1679 0.930 . S
H1738 C1680 0.930 . S
H1739 C1681 0.930 . S
H1740 C1683 0.930 . S
H1741 C1685 0.929 . S
H1742 C1686 0.930 . S
H1743 C1687 0.930 . S
H1744 C1690 0.930 . S
H1745 C1693 0.929 . S
H1746 C1698 0.929 . S
H1747 C1699 0.930 1_455 S
H1748 C1706 0.929 . S
H1749 C1707 0.930 . S
H1750 C1708 0.930 . S
H1751 C1709 0.930 . S
H1752 C1711 0.929 . S
H1753 C1712 0.930 . S
H1754 C1713 0.930 . S
H1755 C1714 0.930 . S
H1756 C1718 0.929 . S
H1757 C1720 0.930 . S
H1758 C1726 0.929 . S
H1759 C1727 0.930 . S
Li1760 N1777 1.990 . S
Li1760 O1820 1.956 . S
Li1760 O1821 1.970 . S
Li1760 O1822 1.961 . S
Li1761 N1785 1.990 . S
Li1761 O1820 1.970 . S
Li1761 O1821 1.956 . S
Li1761 O1823 1.961 . S
Li1762 N1807 1.990 . S
Li1762 O1820 1.961 . S
Li1762 O1822 1.956 . S
Li1762 O1823 1.970 . S
Li1763 N1813 1.990 . S
Li1763 O1821 1.961 . S
Li1763 O1822 1.970 . S
Li1763 O1823 1.956 . S
C1764 C1766 1.348 . S
C1764 C1767 1.356 . S
C1764 O1820 1.325 . S
N1765 C1768 1.314 . S
N1765 C1769 1.279 . S
C1766 C1764 1.348 . S
C1766 C1768 1.353 . S
C1766 H1824 0.929 . S
C1767 C1764 1.356 . S
C1767 C1769 1.358 . S
C1767 H1825 0.930 . S
C1768 N1765 1.314 . S
C1768 C1766 1.353 . S
C1768 H1826 0.930 . S
C1769 N1765 1.279 . S
C1769 C1767 1.358 . S
C1769 H1827 0.930 . S
C1770 C1773 1.348 . S
C1770 C1774 1.356 . S
C1770 O1821 1.325 . S
C1771 N1772 1.279 . S
C1771 C1774 1.358 . S
C1771 H1828 0.930 . S
N1772 C1771 1.279 . S
N1772 C1775 1.314 . S
C1773 C1770 1.348 . S
C1773 C1775 1.353 . S
C1773 H1829 0.929 . S
C1774 C1770 1.356 . S
C1774 C1771 1.358 . S
C1774 H1830 0.930 . S
C1775 N1772 1.314 . S
C1775 C1773 1.353 . S
C1775 H1831 0.930 . S
C1776 N1777 1.314 . S
C1776 C1781 1.353 . S
C1776 H1782 0.930 . S
N1777 Li1760 1.990 . S
N1777 C1776 1.314 . S
N1777 C1779 1.279 . S
C1778 C1779 1.358 . S
C1778 C1780 1.356 . S
C1778 H1832 0.930 . S
C1779 N1777 1.279 . S
C1779 C1778 1.358 . S
C1779 H1783 0.930 . S
C1780 C1778 1.356 . S
C1780 C1781 1.348 . S
C1781 C1776 1.353 . S
C1781 C1780 1.348 . S
C1781 H1833 0.929 . S
H1782 C1776 0.930 . S
H1783 C1779 0.930 . S
C1784 N1785 1.314 . S
C1784 C1786 1.353 . S
C1784 H1790 0.930 . S
N1785 Li1761 1.990 . S
N1785 C1784 1.314 . S
N1785 C1788 1.279 . S
C1786 C1784 1.353 . S
C1786 C1789 1.348 . S
C1786 H1834 0.929 . S
C1787 C1788 1.358 . S
C1787 C1789 1.356 . S
C1787 H1835 0.930 . S
C1788 N1785 1.279 . S
C1788 C1787 1.358 . S
C1788 H1791 0.930 . S
C1789 C1786 1.348 . S
C1789 C1787 1.356 . S
H1790 C1784 0.930 . S
H1791 C1788 0.930 . S
C1792 C1794 1.348 . S
C1792 C1795 1.356 . S
C1792 O1822 1.325 . S
N1793 C1796 1.314 . S
N1793 C1797 1.279 . S
C1794 C1792 1.348 . S
C1794 C1796 1.353 . S
C1794 H1836 0.929 . S
C1795 C1792 1.356 . S
C1795 C1797 1.358 . S
C1795 H1837 0.930 . S
C1796 N1793 1.314 . S
C1796 C1794 1.353 . S
C1796 H1838 0.930 . S
C1797 N1793 1.279 . S
C1797 C1795 1.358 . S
C1797 H1839 0.930 . S
C1798 C1799 1.348 . S
C1798 C1800 1.356 . S
C1798 O1823 1.325 . S
C1799 C1798 1.348 . S
C1799 C1801 1.353 . S
C1799 H1840 0.929 . S
C1800 C1798 1.356 . S
C1800 C1802 1.358 . S
C1800 H1841 0.930 . S
C1801 C1799 1.353 . S
C1801 N1803 1.314 . S
C1801 H1842 0.930 . S
C1802 C1800 1.358 . S
C1802 N1803 1.279 . S
C1802 H1843 0.930 . S
N1803 C1801 1.314 . S
N1803 C1802 1.279 . S
C1804 C1806 1.353 . S
C1804 N1807 1.314 . S
C1804 H1810 0.930 . S
C1805 N1807 1.279 . S
C1805 C1808 1.358 . S
C1805 H1811 0.930 . S
C1806 C1804 1.353 . S
C1806 C1809 1.348 . S
C1806 H1844 0.929 . S
N1807 Li1762 1.990 . S
N1807 C1804 1.314 . S
N1807 C1805 1.279 . S
C1808 C1805 1.358 . S
C1808 C1809 1.356 . S
C1808 H1845 0.930 . S
C1809 C1806 1.348 . S
C1809 C1808 1.356 . S
H1810 C1804 0.930 . S
H1811 C1805 0.930 . S
C1812 N1813 1.314 . S
C1812 C1814 1.353 . S
C1812 H1818 0.930 . S
N1813 Li1763 1.990 . S
N1813 C1812 1.314 . S
N1813 C1816 1.279 . S
C1814 C1812 1.353 . S
C1814 C1817 1.348 . S
C1814 H1846 0.929 . S
C1815 C1816 1.358 . S
C1815 C1817 1.356 . S
C1815 H1847 0.930 . S
C1816 N1813 1.279 . S
C1816 C1815 1.358 . S
C1816 H1819 0.930 . S
C1817 C1814 1.348 . S
C1817 C1815 1.356 . S
H1818 C1812 0.930 . S
H1819 C1816 0.930 . S
O1820 Li1760 1.956 . S
O1820 Li1761 1.970 . S
O1820 Li1762 1.961 . S
O1820 C1764 1.325 . S
O1821 Li1760 1.970 . S
O1821 Li1761 1.956 . S
O1821 Li1763 1.961 . S
O1821 C1770 1.325 . S
O1822 Li1760 1.961 . S
O1822 Li1762 1.956 . S
O1822 Li1763 1.970 . S
O1822 C1792 1.325 . S
O1823 Li1761 1.961 . S
O1823 Li1762 1.970 . S
O1823 Li1763 1.956 . S
O1823 C1798 1.325 . S
H1824 C1766 0.929 . S
H1825 C1767 0.930 . S
H1826 C1768 0.930 . S
H1827 C1769 0.930 . S
H1828 C1771 0.930 . S
H1829 C1773 0.929 . S
H1830 C1774 0.930 . S
H1831 C1775 0.930 . S
H1832 C1778 0.930 . S
H1833 C1781 0.929 . S
H1834 C1786 0.929 . S
H1835 C1787 0.930 . S
H1836 C1794 0.929 . S
H1837 C1795 0.930 . S
H1838 C1796 0.930 . S
H1839 C1797 0.930 . S
H1840 C1799 0.929 . S
H1841 C1800 0.930 . S
H1842 C1801 0.930 . S
H1843 C1802 0.930 . S
H1844 C1806 0.929 . S
H1845 C1808 0.930 . S
H1846 C1814 0.929 . S
H1847 C1815 0.930 . S
Li1848 N1865 1.990 . S
Li1848 O1908 1.956 . S
Li1848 O1909 1.970 . S
Li1848 O1910 1.961 . S
Li1849 N1873 1.990 . S
Li1849 O1908 1.970 . S
Li1849 O1909 1.956 . S
Li1849 O1911 1.961 . S
Li1850 N1895 1.990 . S
Li1850 O1908 1.961 . S
Li1850 O1910 1.956 . S
Li1850 O1911 1.970 . S
Li1851 N1901 1.990 . S
Li1851 O1909 1.961 . S
Li1851 O1910 1.970 . S
Li1851 O1911 1.956 . S
C1852 C1854 1.348 . S
C1852 C1855 1.356 . S
C1852 O1908 1.325 . S
N1853 C1856 1.314 . S
N1853 C1857 1.279 . S
C1854 C1852 1.348 . S
C1854 C1856 1.353 . S
C1854 H1912 0.929 . S
C1855 C1852 1.356 . S
C1855 C1857 1.358 . S
C1855 H1913 0.930 . S
C1856 N1853 1.314 . S
C1856 C1854 1.353 . S
C1856 H1914 0.930 . S
C1857 N1853 1.279 . S
C1857 C1855 1.358 . S
C1857 H1915 0.930 . S
C1858 C1861 1.348 . S
C1858 C1862 1.356 . S
C1858 O1909 1.325 . S
C1859 N1860 1.279 . S
C1859 C1862 1.358 . S
C1859 H1916 0.930 . S
N1860 C1859 1.279 . S
N1860 C1863 1.314 . S
C1861 C1858 1.348 . S
C1861 C1863 1.353 . S
C1861 H1917 0.929 . S
C1862 C1858 1.356 . S
C1862 C1859 1.358 . S
C1862 H1918 0.930 . S
C1863 N1860 1.314 . S
C1863 C1861 1.353 . S
C1863 H1919 0.930 . S
C1864 N1865 1.314 . S
C1864 C1869 1.353 . S
C1864 H1870 0.930 . S
N1865 Li1848 1.990 . S
N1865 C1864 1.314 . S
N1865 C1867 1.279 . S
C1866 C1867 1.358 . S
C1866 C1868 1.356 . S
C1866 H1920 0.930 . S
C1867 N1865 1.279 . S
C1867 C1866 1.358 . S
C1867 H1871 0.930 . S
C1868 C1866 1.356 . S
C1868 C1869 1.348 . S
C1869 C1864 1.353 . S
C1869 C1868 1.348 . S
C1869 H1921 0.929 . S
H1870 C1864 0.930 . S
H1871 C1867 0.930 . S
C1872 N1873 1.314 . S
C1872 C1874 1.353 . S
C1872 H1878 0.930 . S
N1873 Li1849 1.990 . S
N1873 C1872 1.314 . S
N1873 C1876 1.279 . S
C1874 C1872 1.353 . S
C1874 C1877 1.348 . S
C1874 H1922 0.929 . S
C1875 C1876 1.358 . S
C1875 C1877 1.356 . S
C1875 H1923 0.930 . S
C1876 N1873 1.279 . S
C1876 C1875 1.358 . S
C1876 H1879 0.930 . S
C1877 C1874 1.348 . S
C1877 C1875 1.356 . S
H1878 C1872 0.930 . S
H1879 C1876 0.930 . S
C1880 C1882 1.348 . S
C1880 C1883 1.356 . S
C1880 O1910 1.325 . S
N1881 C1884 1.314 . S
N1881 C1885 1.279 . S
C1882 C1880 1.348 . S
C1882 C1884 1.353 . S
C1882 H1924 0.929 . S
C1883 C1880 1.356 . S
C1883 C1885 1.358 . S
C1883 H1925 0.930 . S
C1884 N1881 1.314 . S
C1884 C1882 1.353 . S
C1884 H1926 0.930 . S
C1885 N1881 1.279 . S
C1885 C1883 1.358 . S
C1885 H1927 0.930 . S
C1886 C1887 1.348 . S
C1886 C1888 1.356 . S
C1886 O1911 1.325 . S
C1887 C1886 1.348 . S
C1887 C1889 1.353 . S
C1887 H1928 0.929 . S
C1888 C1886 1.356 . S
C1888 C1890 1.358 . S
C1888 H1929 0.930 . S
C1889 C1887 1.353 . S
C1889 N1891 1.314 . S
C1889 H1930 0.930 . S
C1890 C1888 1.358 . S
C1890 N1891 1.279 . S
C1890 H1931 0.930 . S
N1891 C1889 1.314 . S
N1891 C1890 1.279 . S
C1892 C1894 1.353 . S
C1892 N1895 1.314 . S
C1892 H1898 0.930 . S
C1893 N1895 1.279 . S
C1893 C1896 1.358 . S
C1893 H1899 0.930 . S
C1894 C1892 1.353 . S
C1894 C1897 1.348 . S
C1894 H1932 0.929 . S
N1895 Li1850 1.990 . S
N1895 C1892 1.314 . S
N1895 C1893 1.279 . S
C1896 C1893 1.358 . S
C1896 C1897 1.356 . S
C1896 H1933 0.930 . S
C1897 C1894 1.348 . S
C1897 C1896 1.356 . S
H1898 C1892 0.930 . S
H1899 C1893 0.930 . S
C1900 N1901 1.314 . S
C1900 C1902 1.353 . S
C1900 H1906 0.930 . S
N1901 Li1851 1.990 . S
N1901 C1900 1.314 . S
N1901 C1904 1.279 . S
C1902 C1900 1.353 . S
C1902 C1905 1.348 . S
C1902 H1934 0.929 . S
C1903 C1904 1.358 . S
C1903 C1905 1.356 . S
C1903 H1935 0.930 . S
C1904 N1901 1.279 . S
C1904 C1903 1.358 . S
C1904 H1907 0.930 . S
C1905 C1902 1.348 . S
C1905 C1903 1.356 . S
H1906 C1900 0.930 . S
H1907 C1904 0.930 . S
O1908 Li1848 1.956 . S
O1908 Li1849 1.970 . S
O1908 Li1850 1.961 . S
O1908 C1852 1.325 . S
O1909 Li1848 1.970 . S
O1909 Li1849 1.956 . S
O1909 Li1851 1.961 . S
O1909 C1858 1.325 . S
O1910 Li1848 1.961 . S
O1910 Li1850 1.956 . S
O1910 Li1851 1.970 . S
O1910 C1880 1.325 . S
O1911 Li1849 1.961 . S
O1911 Li1850 1.970 . S
O1911 Li1851 1.956 . S
O1911 C1886 1.325 . S
H1912 C1854 0.929 . S
H1913 C1855 0.930 . S
H1914 C1856 0.930 . S
H1915 C1857 0.930 . S
H1916 C1859 0.930 . S
H1917 C1861 0.929 . S
H1918 C1862 0.930 . S
H1919 C1863 0.930 . S
H1920 C1866 0.930 . S
H1921 C1869 0.929 . S
H1922 C1874 0.929 . S
H1923 C1875 0.930 . S
H1924 C1882 0.929 . S
H1925 C1883 0.930 . S
H1926 C1884 0.930 . S
H1927 C1885 0.930 . S
H1928 C1887 0.929 . S
H1929 C1888 0.930 . S
H1930 C1889 0.930 . S
H1931 C1890 0.930 . S
H1932 C1894 0.929 . S
H1933 C1896 0.930 . S
H1934 C1902 0.929 . S
H1935 C1903 0.930 . S
Li1936 N1953 1.990 . S
Li1936 O1996 1.956 . S
Li1936 O1997 1.970 . S
Li1936 O1998 1.961 . S
Li1937 N1961 1.990 . S
Li1937 O1996 1.970 . S
Li1937 O1997 1.956 . S
Li1937 O1999 1.961 . S
Li1938 N1983 1.990 . S
Li1938 O1996 1.961 . S
Li1938 O1998 1.956 . S
Li1938 O1999 1.970 . S
Li1939 N1989 1.990 . S
Li1939 O1997 1.961 . S
Li1939 O1998 1.970 . S
Li1939 O1999 1.956 . S
C1940 C1942 1.348 . S
C1940 C1943 1.356 . S
C1940 O1996 1.325 . S
N1941 C1944 1.314 . S
N1941 C1945 1.279 . S
C1942 C1940 1.348 . S
C1942 C1944 1.353 . S
C1942 H2000 0.929 . S
C1943 C1940 1.356 . S
C1943 C1945 1.358 . S
C1943 H2001 0.930 . S
C1944 N1941 1.314 . S
C1944 C1942 1.353 . S
C1944 H2002 0.930 . S
C1945 N1941 1.279 . S
C1945 C1943 1.358 . S
C1945 H2003 0.930 . S
C1946 C1949 1.348 . S
C1946 C1950 1.356 . S
C1946 O1997 1.325 . S
C1947 N1948 1.279 . S
C1947 C1950 1.358 . S
C1947 H2004 0.930 . S
N1948 C1947 1.279 . S
N1948 C1951 1.314 . S
C1949 C1946 1.348 . S
C1949 C1951 1.353 . S
C1949 H2005 0.929 . S
C1950 C1946 1.356 . S
C1950 C1947 1.358 . S
C1950 H2006 0.930 . S
C1951 N1948 1.314 . S
C1951 C1949 1.353 . S
C1951 H2007 0.930 . S
C1952 N1953 1.314 . S
C1952 C1957 1.353 . S
C1952 H1958 0.930 . S
N1953 Li1936 1.990 . S
N1953 C1952 1.314 . S
N1953 C1955 1.279 . S
C1954 C1955 1.358 . S
C1954 C1956 1.356 . S
C1954 H2008 0.930 . S
C1955 N1953 1.279 . S
C1955 C1954 1.358 . S
C1955 H1959 0.930 . S
C1956 C1954 1.356 . S
C1956 C1957 1.348 . S
C1957 C1952 1.353 . S
C1957 C1956 1.348 . S
C1957 H2009 0.929 . S
H1958 C1952 0.930 . S
H1959 C1955 0.930 . S
C1960 N1961 1.314 . S
C1960 C1962 1.353 . S
C1960 H1966 0.930 . S
N1961 Li1937 1.990 . S
N1961 C1960 1.314 . S
N1961 C1964 1.279 . S
C1962 C1960 1.353 . S
C1962 C1965 1.348 . S
C1962 H2010 0.929 . S
C1963 C1964 1.358 . S
C1963 C1965 1.356 . S
C1963 H2011 0.930 . S
C1964 N1961 1.279 . S
C1964 C1963 1.358 . S
C1964 H1967 0.930 . S
C1965 C1962 1.348 . S
C1965 C1963 1.356 . S
H1966 C1960 0.930 . S
H1967 C1964 0.930 . S
C1968 C1970 1.348 . S
C1968 C1971 1.356 . S
C1968 O1998 1.325 . S
N1969 C1972 1.314 . S
N1969 C1973 1.279 . S
C1970 C1968 1.348 . S
C1970 C1972 1.353 . S
C1970 H2012 0.929 . S
C1971 C1968 1.356 . S
C1971 C1973 1.358 . S
C1971 H2013 0.930 . S
C1972 N1969 1.314 . S
C1972 C1970 1.353 . S
C1972 H2014 0.930 . S
C1973 N1969 1.279 . S
C1973 C1971 1.358 . S
C1973 H2015 0.930 . S
C1974 C1975 1.348 . S
C1974 C1976 1.356 . S
C1974 O1999 1.325 . S
C1975 C1974 1.348 . S
C1975 C1977 1.353 . S
C1975 H2016 0.929 . S
C1976 C1974 1.356 . S
C1976 C1978 1.358 . S
C1976 H2017 0.930 . S
C1977 C1975 1.353 . S
C1977 N1979 1.314 . S
C1977 H2018 0.930 . S
C1978 C1976 1.358 . S
C1978 N1979 1.279 . S
C1978 H2019 0.930 . S
N1979 C1977 1.314 . S
N1979 C1978 1.279 . S
C1980 C1982 1.353 . S
C1980 N1983 1.314 . S
C1980 H1986 0.930 . S
C1981 N1983 1.279 . S
C1981 C1984 1.358 . S
C1981 H1987 0.930 . S
C1982 C1980 1.353 . S
C1982 C1985 1.348 . S
C1982 H2020 0.929 . S
N1983 Li1938 1.990 . S
N1983 C1980 1.314 . S
N1983 C1981 1.279 . S
C1984 C1981 1.358 . S
C1984 C1985 1.356 . S
C1984 H2021 0.930 . S
C1985 C1982 1.348 . S
C1985 C1984 1.356 . S
H1986 C1980 0.930 . S
H1987 C1981 0.930 . S
C1988 N1989 1.314 . S
C1988 C1990 1.353 . S
C1988 H1994 0.930 . S
N1989 Li1939 1.990 . S
N1989 C1988 1.314 . S
N1989 C1992 1.279 . S
C1990 C1988 1.353 . S
C1990 C1993 1.348 . S
C1990 H2022 0.929 . S
C1991 C1992 1.358 . S
C1991 C1993 1.356 . S
C1991 H2023 0.930 . S
C1992 N1989 1.279 . S
C1992 C1991 1.358 . S
C1992 H1995 0.930 . S
C1993 C1990 1.348 . S
C1993 C1991 1.356 . S
H1994 C1988 0.930 . S
H1995 C1992 0.930 . S
O1996 Li1936 1.956 . S
O1996 Li1937 1.970 . S
O1996 Li1938 1.961 . S
O1996 C1940 1.325 . S
O1997 Li1936 1.970 . S
O1997 Li1937 1.956 . S
O1997 Li1939 1.961 . S
O1997 C1946 1.325 . S
O1998 Li1936 1.961 . S
O1998 Li1938 1.956 . S
O1998 Li1939 1.970 . S
O1998 C1968 1.325 . S
O1999 Li1937 1.961 . S
O1999 Li1938 1.970 . S
O1999 Li1939 1.956 . S
O1999 C1974 1.325 . S
H2000 C1942 0.929 . S
H2001 C1943 0.930 . S
H2002 C1944 0.930 . S
H2003 C1945 0.930 . S
H2004 C1947 0.930 . S
H2005 C1949 0.929 . S
H2006 C1950 0.930 . S
H2007 C1951 0.930 . S
H2008 C1954 0.930 . S
H2009 C1957 0.929 . S
H2010 C1962 0.929 . S
H2011 C1963 0.930 . S
H2012 C1970 0.929 . S
H2013 C1971 0.930 . S
H2014 C1972 0.930 . S
H2015 C1973 0.930 . S
H2016 C1975 0.929 . S
H2017 C1976 0.930 . S
H2018 C1977 0.930 . S
H2019 C1978 0.930 . S
H2020 C1982 0.929 . S
H2021 C1984 0.930 . S
H2022 C1990 0.929 . S
H2023 C1991 0.930 . S
Li2024 N2041 1.990 . S
Li2024 O2084 1.956 . S
Li2024 O2085 1.970 . S
Li2024 O2086 1.961 . S
Li2025 N2049 1.990 . S
Li2025 O2084 1.970 . S
Li2025 O2085 1.956 . S
Li2025 O2087 1.961 . S
Li2026 N2071 1.990 . S
Li2026 O2084 1.961 . S
Li2026 O2086 1.956 . S
Li2026 O2087 1.970 . S
Li2027 N2077 1.990 . S
Li2027 O2085 1.961 . S
Li2027 O2086 1.970 . S
Li2027 O2087 1.956 . S
C2028 C2030 1.348 . S
C2028 C2031 1.356 . S
C2028 O2084 1.325 . S
N2029 C2032 1.314 . S
N2029 C2033 1.279 . S
C2030 C2028 1.348 . S
C2030 C2032 1.353 . S
C2030 H2088 0.929 . S
C2031 C2028 1.356 . S
C2031 C2033 1.358 . S
C2031 H2089 0.930 . S
C2032 N2029 1.314 . S
C2032 C2030 1.353 . S
C2032 H2090 0.930 . S
C2033 N2029 1.279 . S
C2033 C2031 1.358 . S
C2033 H2091 0.930 . S
C2034 C2037 1.348 . S
C2034 C2038 1.356 . S
C2034 O2085 1.325 . S
C2035 N2036 1.279 . S
C2035 C2038 1.358 . S
C2035 H2092 0.930 . S
N2036 C2035 1.279 . S
N2036 C2039 1.314 . S
C2037 C2034 1.348 . S
C2037 C2039 1.353 . S
C2037 H2093 0.929 . S
C2038 C2034 1.356 . S
C2038 C2035 1.358 . S
C2038 H2094 0.930 . S
C2039 N2036 1.314 . S
C2039 C2037 1.353 . S
C2039 H2095 0.930 . S
C2040 N2041 1.314 . S
C2040 C2045 1.353 . S
C2040 H2046 0.930 . S
N2041 Li2024 1.990 . S
N2041 C2040 1.314 . S
N2041 C2043 1.279 . S
C2042 C2043 1.358 . S
C2042 C2044 1.356 . S
C2042 H2096 0.930 . S
C2043 N2041 1.279 . S
C2043 C2042 1.358 . S
C2043 H2047 0.930 . S
C2044 C2042 1.356 . S
C2044 C2045 1.348 . S
C2045 C2040 1.353 . S
C2045 C2044 1.348 . S
C2045 H2097 0.929 . S
H2046 C2040 0.930 . S
H2047 C2043 0.930 . S
C2048 N2049 1.314 . S
C2048 C2050 1.353 . S
C2048 H2054 0.930 . S
N2049 Li2025 1.990 . S
N2049 C2048 1.314 . S
N2049 C2052 1.279 . S
C2050 C2048 1.353 . S
C2050 C2053 1.348 . S
C2050 H2098 0.929 . S
C2051 C2052 1.358 . S
C2051 C2053 1.356 . S
C2051 H2099 0.930 . S
C2052 N2049 1.279 . S
C2052 C2051 1.358 . S
C2052 H2055 0.930 . S
C2053 C2050 1.348 . S
C2053 C2051 1.356 . S
H2054 C2048 0.930 . S
H2055 C2052 0.930 . S
C2056 C2058 1.348 . S
C2056 C2059 1.356 . S
C2056 O2086 1.325 . S
N2057 C2060 1.314 . S
N2057 C2061 1.279 . S
C2058 C2056 1.348 . S
C2058 C2060 1.353 . S
C2058 H2100 0.929 . S
C2059 C2056 1.356 . S
C2059 C2061 1.358 . S
C2059 H2101 0.930 . S
C2060 N2057 1.314 . S
C2060 C2058 1.353 . S
C2060 H2102 0.930 . S
C2061 N2057 1.279 . S
C2061 C2059 1.358 . S
C2061 H2103 0.930 . S
C2062 C2063 1.348 . S
C2062 C2064 1.356 . S
C2062 O2087 1.325 . S
C2063 C2062 1.348 . S
C2063 C2065 1.353 . S
C2063 H2104 0.929 . S
C2064 C2062 1.356 . S
C2064 C2066 1.358 . S
C2064 H2105 0.930 . S
C2065 C2063 1.353 . S
C2065 N2067 1.314 . S
C2065 H2106 0.930 . S
C2066 C2064 1.358 . S
C2066 N2067 1.279 . S
C2066 H2107 0.930 . S
N2067 C2065 1.314 . S
N2067 C2066 1.279 . S
C2068 C2070 1.353 . S
C2068 N2071 1.314 . S
C2068 H2074 0.930 . S
C2069 N2071 1.279 . S
C2069 C2072 1.358 . S
C2069 H2075 0.930 . S
C2070 C2068 1.353 . S
C2070 C2073 1.348 . S
C2070 H2108 0.929 . S
N2071 Li2026 1.990 . S
N2071 C2068 1.314 . S
N2071 C2069 1.279 . S
C2072 C2069 1.358 . S
C2072 C2073 1.356 . S
C2072 H2109 0.930 . S
C2073 C2070 1.348 . S
C2073 C2072 1.356 . S
H2074 C2068 0.930 . S
H2075 C2069 0.930 . S
C2076 N2077 1.314 . S
C2076 C2078 1.353 . S
C2076 H2082 0.930 . S
N2077 Li2027 1.990 . S
N2077 C2076 1.314 . S
N2077 C2080 1.279 . S
C2078 C2076 1.353 . S
C2078 C2081 1.348 . S
C2078 H2110 0.929 . S
C2079 C2080 1.358 . S
C2079 C2081 1.356 . S
C2079 H2111 0.930 . S
C2080 N2077 1.279 . S
C2080 C2079 1.358 . S
C2080 H2083 0.930 . S
C2081 C2078 1.348 . S
C2081 C2079 1.356 . S
H2082 C2076 0.930 . S
H2083 C2080 0.930 . S
O2084 Li2024 1.956 . S
O2084 Li2025 1.970 . S
O2084 Li2026 1.961 . S
O2084 C2028 1.325 . S
O2085 Li2024 1.970 . S
O2085 Li2025 1.956 . S
O2085 Li2027 1.961 . S
O2085 C2034 1.325 . S
O2086 Li2024 1.961 . S
O2086 Li2026 1.956 . S
O2086 Li2027 1.970 . S
O2086 C2056 1.325 . S
O2087 Li2025 1.961 . S
O2087 Li2026 1.970 . S
O2087 Li2027 1.956 . S
O2087 C2062 1.325 . S
H2088 C2030 0.929 . S
H2089 C2031 0.930 . S
H2090 C2032 0.930 . S
H2091 C2033 0.930 . S
H2092 C2035 0.930 . S
H2093 C2037 0.929 . S
H2094 C2038 0.930 . S
H2095 C2039 0.930 . S
H2096 C2042 0.930 . S
H2097 C2045 0.929 . S
H2098 C2050 0.929 . S
H2099 C2051 0.930 . S
H2100 C2058 0.929 . S
H2101 C2059 0.930 . S
H2102 C2060 0.930 . S
H2103 C2061 0.930 . S
H2104 C2063 0.929 . S
H2105 C2064 0.930 . S
H2106 C2065 0.930 . S
H2107 C2066 0.930 . S
H2108 C2070 0.929 . S
H2109 C2072 0.930 . S
H2110 C2078 0.929 . S
H2111 C2079 0.930 . S
Li2112 N2129 1.990 . S
Li2112 O2172 1.956 . S
Li2112 O2173 1.970 . S
Li2112 O2174 1.961 . S
Li2113 N2137 1.990 . S
Li2113 O2172 1.970 . S
Li2113 O2173 1.956 . S
Li2113 O2175 1.961 . S
Li2114 N2159 1.990 . S
Li2114 O2172 1.961 . S
Li2114 O2174 1.956 . S
Li2114 O2175 1.970 . S
Li2115 N2165 1.990 . S
Li2115 O2173 1.961 . S
Li2115 O2174 1.970 . S
Li2115 O2175 1.956 . S
C2116 C2118 1.348 . S
C2116 C2119 1.356 . S
C2116 O2172 1.325 . S
N2117 C2120 1.240 1_545 S
N2117 C2121 1.327 . S
C2118 C2116 1.348 . S
C2118 C2120 1.353 . S
C2118 H2176 0.929 . S
C2119 C2116 1.356 . S
C2119 C2121 1.358 1_565 S
C2119 H2177 0.930 . S
C2120 N2117 1.240 1_565 S
C2120 C2118 1.353 . S
C2120 H2178 0.930 . S
C2121 N2117 1.327 . S
C2121 C2119 1.358 1_545 S
C2121 H2179 0.930 . S
C2122 C2125 1.348 . S
C2122 C2126 1.356 . S
C2122 O2173 1.325 . S
C2123 N2124 1.279 . S
C2123 C2126 1.358 . S
C2123 H2180 0.930 . S
N2124 C2123 1.279 . S
N2124 C2127 1.314 . S
C2125 C2122 1.348 . S
C2125 C2127 1.353 . S
C2125 H2181 0.929 . S
C2126 C2122 1.356 . S
C2126 C2123 1.358 . S
C2126 H2182 0.930 . S
C2127 N2124 1.314 . S
C2127 C2125 1.353 . S
C2127 H2183 0.930 . S
C2128 N2129 1.314 . S
C2128 C2133 1.353 . S
C2128 H2134 0.930 . S
N2129 Li2112 1.990 . S
N2129 C2128 1.314 . S
N2129 C2131 1.279 . S
C2130 C2131 1.358 . S
C2130 C2132 1.356 . S
C2130 H2184 0.930 . S
C2131 N2129 1.279 . S
C2131 C2130 1.358 . S
C2131 H2135 0.930 . S
C2132 C2130 1.356 . S
C2132 C2133 1.348 . S
C2133 C2128 1.353 . S
C2133 C2132 1.348 . S
C2133 H2185 0.929 . S
H2134 C2128 0.930 . S
H2135 C2131 0.930 . S
C2136 N2137 1.314 . S
C2136 C2138 1.353 . S
C2136 H2142 0.930 . S
N2137 Li2113 1.990 . S
N2137 C2136 1.314 . S
N2137 C2140 1.279 . S
C2138 C2136 1.353 . S
C2138 C2141 1.348 . S
C2138 H2186 0.929 . S
C2139 C2140 1.358 . S
C2139 C2141 1.356 . S
C2139 H2187 0.930 . S
C2140 N2137 1.279 . S
C2140 C2139 1.358 . S
C2140 H2143 0.930 . S
C2141 C2138 1.348 . S
C2141 C2139 1.356 . S
H2142 C2136 0.930 . S
H2143 C2140 0.930 . S
C2144 C2146 1.348 . S
C2144 C2147 1.356 . S
C2144 O2174 1.325 . S
N2145 C2148 1.314 . S
N2145 C2149 1.279 . S
C2146 C2144 1.348 . S
C2146 C2148 1.353 . S
C2146 H2188 0.929 . S
C2147 C2144 1.356 . S
C2147 C2149 1.358 . S
C2147 H2189 0.930 . S
C2148 N2145 1.314 . S
C2148 C2146 1.353 . S
C2148 H2190 0.930 . S
C2149 N2145 1.279 . S
C2149 C2147 1.358 . S
C2149 H2191 0.930 . S
C2150 C2151 1.348 . S
C2150 C2152 1.356 . S
C2150 O2175 1.325 . S
C2151 C2150 1.348 . S
C2151 C2153 1.353 . S
C2151 H2192 0.929 . S
C2152 C2150 1.356 . S
C2152 C2154 1.358 . S
C2152 H2193 0.930 . S
C2153 C2151 1.353 . S
C2153 N2155 1.314 . S
C2153 H2194 0.930 . S
C2154 C2152 1.358 . S
C2154 N2155 1.279 . S
C2154 H2195 0.930 . S
N2155 C2153 1.314 . S
N2155 C2154 1.279 . S
C2156 C2158 1.353 . S
C2156 N2159 1.314 . S
C2156 H2162 0.930 . S
C2157 N2159 1.279 . S
C2157 C2160 1.358 . S
C2157 H2163 0.930 . S
C2158 C2156 1.353 . S
C2158 C2161 1.348 . S
C2158 H2196 0.929 . S
N2159 Li2114 1.990 . S
N2159 C2156 1.314 . S
N2159 C2157 1.279 . S
C2160 C2157 1.358 . S
C2160 C2161 1.356 . S
C2160 H2197 0.930 . S
C2161 C2158 1.348 . S
C2161 C2160 1.356 . S
H2162 C2156 0.930 . S
H2163 C2157 0.930 . S
C2164 N2165 1.314 . S
C2164 C2166 1.353 . S
C2164 H2170 0.930 . S
N2165 Li2115 1.990 . S
N2165 C2164 1.314 . S
N2165 C2168 1.279 . S
C2166 C2164 1.353 . S
C2166 C2169 1.348 . S
C2166 H2198 0.929 . S
C2167 C2168 1.358 . S
C2167 C2169 1.356 . S
C2167 H2199 0.930 . S
C2168 N2165 1.279 . S
C2168 C2167 1.358 . S
C2168 H2171 0.930 . S
C2169 C2166 1.348 . S
C2169 C2167 1.356 . S
H2170 C2164 0.930 . S
H2171 C2168 0.930 . S
O2172 Li2112 1.956 . S
O2172 Li2113 1.970 . S
O2172 Li2114 1.961 . S
O2172 C2116 1.325 . S
O2173 Li2112 1.970 . S
O2173 Li2113 1.956 . S
O2173 Li2115 1.961 . S
O2173 C2122 1.325 . S
O2174 Li2112 1.961 . S
O2174 Li2114 1.956 . S
O2174 Li2115 1.970 . S
O2174 C2144 1.325 . S
O2175 Li2113 1.961 . S
O2175 Li2114 1.970 . S
O2175 Li2115 1.956 . S
O2175 C2150 1.325 . S
H2176 C2118 0.929 . S
H2177 C2119 0.930 . S
H2178 C2120 0.930 . S
H2179 C2121 0.930 . S
H2180 C2123 0.930 . S
H2181 C2125 0.929 . S
H2182 C2126 0.930 . S
H2183 C2127 0.930 . S
H2184 C2130 0.930 . S
H2185 C2133 0.929 . S
H2186 C2138 0.929 . S
H2187 C2139 0.930 . S
H2188 C2146 0.929 . S
H2189 C2147 0.930 . S
H2190 C2148 0.930 . S
H2191 C2149 0.930 . S
H2192 C2151 0.929 . S
H2193 C2152 0.930 . S
H2194 C2153 0.930 . S
H2195 C2154 0.930 . S
H2196 C2158 0.929 . S
H2197 C2160 0.930 . S
H2198 C2166 0.929 . S
H2199 C2167 0.930 . S
Li2200 N2217 1.990 . S
Li2200 O2260 1.956 . S
Li2200 O2261 1.970 . S
Li2200 O2262 1.961 . S
Li2201 N2225 1.990 . S
Li2201 O2260 1.970 . S
Li2201 O2261 1.956 . S
Li2201 O2263 1.961 . S
Li2202 N2247 1.990 . S
Li2202 O2260 1.961 . S
Li2202 O2262 1.956 . S
Li2202 O2263 1.970 . S
Li2203 N2253 1.990 . S
Li2203 O2261 1.961 . S
Li2203 O2262 1.970 . S
Li2203 O2263 1.956 . S
C2204 C2206 1.348 . S
C2204 C2207 1.356 . S
C2204 O2260 1.325 . S
N2205 C2208 1.314 . S
N2205 C2209 1.279 . S
C2206 C2204 1.348 . S
C2206 C2208 1.353 . S
C2206 H2264 0.929 . S
C2207 C2204 1.356 . S
C2207 C2209 1.358 . S
C2207 H2265 0.930 . S
C2208 N2205 1.314 . S
C2208 C2206 1.353 . S
C2208 H2266 0.930 . S
C2209 N2205 1.279 . S
C2209 C2207 1.358 . S
C2209 H2267 0.930 . S
C2210 C2213 1.348 . S
C2210 C2214 1.356 . S
C2210 O2261 1.325 . S
C2211 N2212 1.253 . S
C2211 C2214 1.358 1_655 S
C2211 H2268 0.930 . S
N2212 C2211 1.253 . S
N2212 C2215 1.258 1_655 S
C2213 C2210 1.348 . S
C2213 C2215 1.353 . S
C2213 H2269 0.929 . S
C2214 C2210 1.356 . S
C2214 C2211 1.358 1_455 S
C2214 H2270 0.930 . S
C2215 N2212 1.258 1_455 S
C2215 C2213 1.353 . S
C2215 H2271 0.930 . S
C2216 N2217 1.314 . S
C2216 C2221 1.353 . S
C2216 H2222 0.930 . S
N2217 Li2200 1.990 . S
N2217 C2216 1.314 . S
N2217 C2219 1.279 . S
C2218 C2219 1.358 . S
C2218 C2220 1.356 . S
C2218 H2272 0.930 . S
C2219 N2217 1.279 . S
C2219 C2218 1.358 . S
C2219 H2223 0.930 . S
C2220 C2218 1.356 . S
C2220 C2221 1.348 . S
C2221 C2216 1.353 . S
C2221 C2220 1.348 . S
C2221 H2273 0.929 . S
H2222 C2216 0.930 . S
H2223 C2219 0.930 . S
C2224 N2225 1.314 . S
C2224 C2226 1.353 . S
C2224 H2230 0.930 . S
N2225 Li2201 1.990 . S
N2225 C2224 1.314 . S
N2225 C2228 1.279 . S
C2226 C2224 1.353 . S
C2226 C2229 1.348 . S
C2226 H2274 0.929 . S
C2227 C2228 1.358 . S
C2227 C2229 1.356 . S
C2227 H2275 0.930 . S
C2228 N2225 1.279 . S
C2228 C2227 1.358 . S
C2228 H2231 0.930 . S
C2229 C2226 1.348 . S
C2229 C2227 1.356 . S
H2230 C2224 0.930 . S
H2231 C2228 0.930 . S
C2232 C2234 1.348 . S
C2232 C2235 1.356 . S
C2232 O2262 1.325 . S
N2233 C2236 1.314 . S
N2233 C2237 1.279 . S
C2234 C2232 1.348 . S
C2234 C2236 1.353 . S
C2234 H2276 0.929 . S
C2235 C2232 1.356 . S
C2235 C2237 1.358 . S
C2235 H2277 0.930 . S
C2236 N2233 1.314 . S
C2236 C2234 1.353 . S
C2236 H2278 0.930 . S
C2237 N2233 1.279 . S
C2237 C2235 1.358 . S
C2237 H2279 0.930 . S
C2238 C2239 1.348 . S
C2238 C2240 1.356 . S
C2238 O2263 1.325 . S
C2239 C2238 1.348 . S
C2239 C2241 1.353 . S
C2239 H2280 0.929 . S
C2240 C2238 1.356 . S
C2240 C2242 1.358 . S
C2240 H2281 0.930 . S
C2241 C2239 1.353 . S
C2241 N2243 1.314 . S
C2241 H2282 0.930 . S
C2242 C2240 1.358 . S
C2242 N2243 1.279 . S
C2242 H2283 0.930 . S
N2243 C2241 1.314 . S
N2243 C2242 1.279 . S
C2244 C2246 1.353 . S
C2244 N2247 1.314 . S
C2244 H2250 0.930 . S
C2245 N2247 1.279 . S
C2245 C2248 1.358 . S
C2245 H2251 0.930 . S
C2246 C2244 1.353 . S
C2246 C2249 1.348 . S
C2246 H2284 0.929 . S
N2247 Li2202 1.990 . S
N2247 C2244 1.314 . S
N2247 C2245 1.279 . S
C2248 C2245 1.358 . S
C2248 C2249 1.356 . S
C2248 H2285 0.930 . S
C2249 C2246 1.348 . S
C2249 C2248 1.356 . S
H2250 C2244 0.930 . S
H2251 C2245 0.930 . S
C2252 N2253 1.314 . S
C2252 C2254 1.353 . S
C2252 H2258 0.930 . S
N2253 Li2203 1.990 . S
N2253 C2252 1.314 . S
N2253 C2256 1.279 . S
C2254 C2252 1.353 . S
C2254 C2257 1.348 . S
C2254 H2286 0.929 . S
C2255 C2256 1.358 . S
C2255 C2257 1.356 . S
C2255 H2287 0.930 . S
C2256 N2253 1.279 . S
C2256 C2255 1.358 . S
C2256 H2259 0.930 . S
C2257 C2254 1.348 . S
C2257 C2255 1.356 . S
H2258 C2252 0.930 . S
H2259 C2256 0.930 . S
O2260 Li2200 1.956 . S
O2260 Li2201 1.970 . S
O2260 Li2202 1.961 . S
O2260 C2204 1.325 . S
O2261 Li2200 1.970 . S
O2261 Li2201 1.956 . S
O2261 Li2203 1.961 . S
O2261 C2210 1.325 . S
O2262 Li2200 1.961 . S
O2262 Li2202 1.956 . S
O2262 Li2203 1.970 . S
O2262 C2232 1.325 . S
O2263 Li2201 1.961 . S
O2263 Li2202 1.970 . S
O2263 Li2203 1.956 . S
O2263 C2238 1.325 . S
H2264 C2206 0.929 . S
H2265 C2207 0.930 . S
H2266 C2208 0.930 . S
H2267 C2209 0.930 . S
H2268 C2211 0.930 . S
H2269 C2213 0.929 . S
H2270 C2214 0.930 . S
H2271 C2215 0.930 . S
H2272 C2218 0.930 . S
H2273 C2221 0.929 . S
H2274 C2226 0.929 . S
H2275 C2227 0.930 . S
H2276 C2234 0.929 . S
H2277 C2235 0.930 . S
H2278 C2236 0.930 . S
H2279 C2237 0.930 . S
H2280 C2239 0.929 . S
H2281 C2240 0.930 . S
H2282 C2241 0.930 . S
H2283 C2242 0.930 . S
H2284 C2246 0.929 . S
H2285 C2248 0.930 . S
H2286 C2254 0.929 . S
H2287 C2255 0.930 . S
Li2288 N2305 1.990 . S
Li2288 O2348 1.956 . S
Li2288 O2349 1.970 . S
Li2288 O2350 1.961 . S
Li2289 N2313 1.990 . S
Li2289 O2348 1.970 . S
Li2289 O2349 1.956 . S
Li2289 O2351 1.961 . S
Li2290 N2335 1.990 . S
Li2290 O2348 1.961 . S
Li2290 O2350 1.956 . S
Li2290 O2351 1.970 . S
Li2291 N2341 1.990 . S
Li2291 O2349 1.961 . S
Li2291 O2350 1.970 . S
Li2291 O2351 1.956 . S
C2292 C2294 1.348 . S
C2292 C2295 1.356 . S
C2292 O2348 1.325 . S
N2293 C2296 1.314 . S
N2293 C2297 1.279 . S
C2294 C2292 1.348 . S
C2294 C2296 1.353 . S
C2294 H2352 0.929 . S
C2295 C2292 1.356 . S
C2295 C2297 1.358 . S
C2295 H2353 0.930 . S
C2296 N2293 1.314 . S
C2296 C2294 1.353 . S
C2296 H2354 0.930 . S
C2297 N2293 1.279 . S
C2297 C2295 1.358 . S
C2297 H2355 0.930 . S
C2298 C2301 1.348 . S
C2298 C2302 1.356 . S
C2298 O2349 1.325 . S
C2299 N2300 1.279 . S
C2299 C2302 1.358 . S
C2299 H2356 0.930 . S
N2300 C2299 1.279 . S
N2300 C2303 1.314 . S
C2301 C2298 1.348 . S
C2301 C2303 1.353 . S
C2301 H2357 0.929 . S
C2302 C2298 1.356 . S
C2302 C2299 1.358 . S
C2302 H2358 0.930 . S
C2303 N2300 1.314 . S
C2303 C2301 1.353 . S
C2303 H2359 0.930 . S
C2304 N2305 1.314 . S
C2304 C2309 1.353 . S
C2304 H2310 0.930 . S
N2305 Li2288 1.990 . S
N2305 C2304 1.314 . S
N2305 C2307 1.279 . S
C2306 C2307 1.358 . S
C2306 C2308 1.356 . S
C2306 H2360 0.930 . S
C2307 N2305 1.279 . S
C2307 C2306 1.358 . S
C2307 H2311 0.930 . S
C2308 C2306 1.356 . S
C2308 C2309 1.348 . S
C2309 C2304 1.353 . S
C2309 C2308 1.348 . S
C2309 H2361 0.929 . S
H2310 C2304 0.930 . S
H2311 C2307 0.930 . S
C2312 N2313 1.314 . S
C2312 C2314 1.353 . S
C2312 H2318 0.930 . S
N2313 Li2289 1.990 . S
N2313 C2312 1.314 . S
N2313 C2316 1.279 . S
C2314 C2312 1.353 . S
C2314 C2317 1.348 . S
C2314 H2362 0.929 . S
C2315 C2316 1.358 . S
C2315 C2317 1.356 . S
C2315 H2363 0.930 . S
C2316 N2313 1.279 . S
C2316 C2315 1.358 . S
C2316 H2319 0.930 . S
C2317 C2314 1.348 . S
C2317 C2315 1.356 . S
H2318 C2312 0.930 . S
H2319 C2316 0.930 . S
C2320 C2322 1.348 . S
C2320 C2323 1.356 . S
C2320 O2350 1.325 . S
N2321 C2324 1.314 . S
N2321 C2325 1.279 . S
C2322 C2320 1.348 . S
C2322 C2324 1.353 . S
C2322 H2364 0.929 . S
C2323 C2320 1.356 . S
C2323 C2325 1.358 . S
C2323 H2365 0.930 . S
C2324 N2321 1.314 . S
C2324 C2322 1.353 . S
C2324 H2366 0.930 . S
C2325 N2321 1.279 . S
C2325 C2323 1.358 . S
C2325 H2367 0.930 . S
C2326 C2327 1.348 . S
C2326 C2328 1.356 . S
C2326 O2351 1.325 . S
C2327 C2326 1.348 . S
C2327 C2329 1.353 . S
C2327 H2368 0.929 . S
C2328 C2326 1.356 . S
C2328 C2330 1.358 . S
C2328 H2369 0.930 . S
C2329 C2327 1.353 . S
C2329 N2331 1.314 . S
C2329 H2370 0.930 . S
C2330 C2328 1.358 . S
C2330 N2331 1.279 . S
C2330 H2371 0.930 . S
N2331 C2329 1.314 . S
N2331 C2330 1.279 . S
C2332 C2334 1.353 . S
C2332 N2335 1.314 . S
C2332 H2338 0.930 . S
C2333 N2335 1.279 . S
C2333 C2336 1.358 . S
C2333 H2339 0.930 . S
C2334 C2332 1.353 . S
C2334 C2337 1.348 . S
C2334 H2372 0.929 . S
N2335 Li2290 1.990 . S
N2335 C2332 1.314 . S
N2335 C2333 1.279 . S
C2336 C2333 1.358 . S
C2336 C2337 1.356 . S
C2336 H2373 0.930 . S
C2337 C2334 1.348 . S
C2337 C2336 1.356 . S
H2338 C2332 0.930 . S
H2339 C2333 0.930 . S
C2340 N2341 1.314 . S
C2340 C2342 1.353 . S
C2340 H2346 0.930 . S
N2341 Li2291 1.990 . S
N2341 C2340 1.314 . S
N2341 C2344 1.279 . S
C2342 C2340 1.353 . S
C2342 C2345 1.348 . S
C2342 H2374 0.929 . S
C2343 C2344 1.358 . S
C2343 C2345 1.356 . S
C2343 H2375 0.930 . S
C2344 N2341 1.279 . S
C2344 C2343 1.358 . S
C2344 H2347 0.930 . S
C2345 C2342 1.348 . S
C2345 C2343 1.356 . S
H2346 C2340 0.930 . S
H2347 C2344 0.930 . S
O2348 Li2288 1.956 . S
O2348 Li2289 1.970 . S
O2348 Li2290 1.961 . S
O2348 C2292 1.325 . S
O2349 Li2288 1.970 . S
O2349 Li2289 1.956 . S
O2349 Li2291 1.961 . S
O2349 C2298 1.325 . S
O2350 Li2288 1.961 . S
O2350 Li2290 1.956 . S
O2350 Li2291 1.970 . S
O2350 C2320 1.325 . S
O2351 Li2289 1.961 . S
O2351 Li2290 1.970 . S
O2351 Li2291 1.956 . S
O2351 C2326 1.325 . S
H2352 C2294 0.929 . S
H2353 C2295 0.930 . S
H2354 C2296 0.930 . S
H2355 C2297 0.930 . S
H2356 C2299 0.930 . S
H2357 C2301 0.929 . S
H2358 C2302 0.930 . S
H2359 C2303 0.930 . S
H2360 C2306 0.930 . S
H2361 C2309 0.929 . S
H2362 C2314 0.929 . S
H2363 C2315 0.930 . S
H2364 C2322 0.929 . S
H2365 C2323 0.930 . S
H2366 C2324 0.930 . S
H2367 C2325 0.930 . S
H2368 C2327 0.929 . S
H2369 C2328 0.930 . S
H2370 C2329 0.930 . S
H2371 C2330 0.930 . S
H2372 C2334 0.929 . S
H2373 C2336 0.930 . S
H2374 C2342 0.929 . S
H2375 C2343 0.930 . S
Li2376 N2393 1.990 . S
Li2376 O2436 1.956 . S
Li2376 O2437 1.970 . S
Li2376 O2438 1.961 . S
Li2377 N2401 1.990 . S
Li2377 O2436 1.970 . S
Li2377 O2437 1.956 . S
Li2377 O2439 1.961 . S
Li2378 N2423 1.990 . S
Li2378 O2436 1.961 . S
Li2378 O2438 1.956 . S
Li2378 O2439 1.970 . S
Li2379 N2429 1.990 . S
Li2379 O2437 1.961 . S
Li2379 O2438 1.970 . S
Li2379 O2439 1.956 . S
C2380 C2382 1.348 . S
C2380 C2383 1.356 . S
C2380 O2436 1.325 . S
N2381 C2384 1.314 . S
N2381 C2385 1.279 . S
C2382 C2380 1.348 . S
C2382 C2384 1.353 . S
C2382 H2440 0.929 . S
C2383 C2380 1.356 . S
C2383 C2385 1.358 . S
C2383 H2441 0.930 . S
C2384 N2381 1.314 . S
C2384 C2382 1.353 . S
C2384 H2442 0.930 . S
C2385 N2381 1.279 . S
C2385 C2383 1.358 . S
C2385 H2443 0.930 . S
C2386 C2389 1.348 . S
C2386 C2390 1.356 . S
C2386 O2437 1.325 . S
C2387 N2388 1.279 . S
C2387 C2390 1.358 . S
C2387 H2444 0.930 . S
N2388 C2387 1.279 . S
N2388 C2391 1.314 . S
C2389 C2386 1.348 . S
C2389 C2391 1.353 . S
C2389 H2445 0.929 . S
C2390 C2386 1.356 . S
C2390 C2387 1.358 . S
C2390 H2446 0.930 . S
C2391 N2388 1.314 . S
C2391 C2389 1.353 . S
C2391 H2447 0.930 . S
C2392 N2393 1.314 . S
C2392 C2397 1.353 . S
C2392 H2398 0.930 . S
N2393 Li2376 1.990 . S
N2393 C2392 1.314 . S
N2393 C2395 1.279 . S
C2394 C2395 1.358 . S
C2394 C2396 1.356 . S
C2394 H2448 0.930 . S
C2395 N2393 1.279 . S
C2395 C2394 1.358 . S
C2395 H2399 0.930 . S
C2396 C2394 1.356 . S
C2396 C2397 1.348 . S
C2397 C2392 1.353 . S
C2397 C2396 1.348 . S
C2397 H2449 0.929 . S
H2398 C2392 0.930 . S
H2399 C2395 0.930 . S
C2400 N2401 1.314 . S
C2400 C2402 1.353 . S
C2400 H2406 0.930 . S
N2401 Li2377 1.990 . S
N2401 C2400 1.314 . S
N2401 C2404 1.279 . S
C2402 C2400 1.353 . S
C2402 C2405 1.348 . S
C2402 H2450 0.929 . S
C2403 C2404 1.358 . S
C2403 C2405 1.356 . S
C2403 H2451 0.930 . S
C2404 N2401 1.279 . S
C2404 C2403 1.358 . S
C2404 H2407 0.930 . S
C2405 C2402 1.348 . S
C2405 C2403 1.356 . S
H2406 C2400 0.930 . S
H2407 C2404 0.930 . S
C2408 C2410 1.348 . S
C2408 C2411 1.356 . S
C2408 O2438 1.325 . S
N2409 C2412 1.314 . S
N2409 C2413 1.279 . S
C2410 C2408 1.348 . S
C2410 C2412 1.353 . S
C2410 H2452 0.929 . S
C2411 C2408 1.356 . S
C2411 C2413 1.358 . S
C2411 H2453 0.930 . S
C2412 N2409 1.314 . S
C2412 C2410 1.353 . S
C2412 H2454 0.930 . S
C2413 N2409 1.279 . S
C2413 C2411 1.358 . S
C2413 H2455 0.930 . S
C2414 C2415 1.348 . S
C2414 C2416 1.356 . S
C2414 O2439 1.325 . S
C2415 C2414 1.348 . S
C2415 C2417 1.353 . S
C2415 H2456 0.929 . S
C2416 C2414 1.356 . S
C2416 C2418 1.358 . S
C2416 H2457 0.930 . S
C2417 C2415 1.353 . S
C2417 N2419 1.314 . S
C2417 H2458 0.930 . S
C2418 C2416 1.358 . S
C2418 N2419 1.279 . S
C2418 H2459 0.930 . S
N2419 C2417 1.314 . S
N2419 C2418 1.279 . S
C2420 C2422 1.353 . S
C2420 N2423 1.314 . S
C2420 H2426 0.930 . S
C2421 N2423 1.279 . S
C2421 C2424 1.358 . S
C2421 H2427 0.930 . S
C2422 C2420 1.353 . S
C2422 C2425 1.348 . S
C2422 H2460 0.929 . S
N2423 Li2378 1.990 . S
N2423 C2420 1.314 . S
N2423 C2421 1.279 . S
C2424 C2421 1.358 . S
C2424 C2425 1.356 . S
C2424 H2461 0.930 . S
C2425 C2422 1.348 . S
C2425 C2424 1.356 . S
H2426 C2420 0.930 . S
H2427 C2421 0.930 . S
C2428 N2429 1.314 . S
C2428 C2430 1.353 . S
C2428 H2434 0.930 . S
N2429 Li2379 1.990 . S
N2429 C2428 1.314 . S
N2429 C2432 1.279 . S
C2430 C2428 1.353 . S
C2430 C2433 1.348 . S
C2430 H2462 0.929 . S
C2431 C2432 1.358 . S
C2431 C2433 1.356 . S
C2431 H2463 0.930 . S
C2432 N2429 1.279 . S
C2432 C2431 1.358 . S
C2432 H2435 0.930 . S
C2433 C2430 1.348 . S
C2433 C2431 1.356 . S
H2434 C2428 0.930 . S
H2435 C2432 0.930 . S
O2436 Li2376 1.956 . S
O2436 Li2377 1.970 . S
O2436 Li2378 1.961 . S
O2436 C2380 1.325 . S
O2437 Li2376 1.970 . S
O2437 Li2377 1.956 . S
O2437 Li2379 1.961 . S
O2437 C2386 1.325 . S
O2438 Li2376 1.961 . S
O2438 Li2378 1.956 . S
O2438 Li2379 1.970 . S
O2438 C2408 1.325 . S
O2439 Li2377 1.961 . S
O2439 Li2378 1.970 . S
O2439 Li2379 1.956 . S
O2439 C2414 1.325 . S
H2440 C2382 0.929 . S
H2441 C2383 0.930 . S
H2442 C2384 0.930 . S
H2443 C2385 0.930 . S
H2444 C2387 0.930 . S
H2445 C2389 0.929 . S
H2446 C2390 0.930 . S
H2447 C2391 0.930 . S
H2448 C2394 0.930 . S
H2449 C2397 0.929 . S
H2450 C2402 0.929 . S
H2451 C2403 0.930 . S
H2452 C2410 0.929 . S
H2453 C2411 0.930 . S
H2454 C2412 0.930 . S
H2455 C2413 0.930 . S
H2456 C2415 0.929 . S
H2457 C2416 0.930 . S
H2458 C2417 0.930 . S
H2459 C2418 0.930 . S
H2460 C2422 0.929 . S
H2461 C2424 0.930 . S
H2462 C2430 0.929 . S
H2463 C2431 0.930 . S
Li2464 N2481 1.990 . S
Li2464 O2524 1.956 . S
Li2464 O2525 1.970 . S
Li2464 O2526 1.961 . S
Li2465 N2489 1.990 . S
Li2465 O2524 1.970 . S
Li2465 O2525 1.956 . S
Li2465 O2527 1.961 . S
Li2466 N2511 1.990 . S
Li2466 O2524 1.961 . S
Li2466 O2526 1.956 . S
Li2466 O2527 1.970 . S
Li2467 N2517 1.990 . S
Li2467 O2525 1.961 . S
Li2467 O2526 1.970 . S
Li2467 O2527 1.956 . S
C2468 C2470 1.348 . S
C2468 C2471 1.356 . S
C2468 O2524 1.325 . S
N2469 C2472 1.314 . S
N2469 C2473 1.279 . S
C2470 C2468 1.348 . S
C2470 C2472 1.353 . S
C2470 H2528 0.929 . S
C2471 C2468 1.356 . S
C2471 C2473 1.358 . S
C2471 H2529 0.930 . S
C2472 N2469 1.314 . S
C2472 C2470 1.353 . S
C2472 H2530 0.930 . S
C2473 N2469 1.279 . S
C2473 C2471 1.358 . S
C2473 H2531 0.930 . S
C2474 C2477 1.348 . S
C2474 C2478 1.356 . S
C2474 O2525 1.325 . S
C2475 N2476 1.279 . S
C2475 C2478 1.358 . S
C2475 H2532 0.930 . S
N2476 C2475 1.279 . S
N2476 C2479 1.314 . S
C2477 C2474 1.348 . S
C2477 C2479 1.353 . S
C2477 H2533 0.929 . S
C2478 C2474 1.356 . S
C2478 C2475 1.358 . S
C2478 H2534 0.930 . S
C2479 N2476 1.314 . S
C2479 C2477 1.353 . S
C2479 H2535 0.930 . S
C2480 N2481 1.314 . S
C2480 C2485 1.353 . S
C2480 H2486 0.930 . S
N2481 Li2464 1.990 . S
N2481 C2480 1.314 . S
N2481 C2483 1.279 . S
C2482 C2483 1.358 . S
C2482 C2484 1.356 . S
C2482 H2536 0.930 . S
C2483 N2481 1.279 . S
C2483 C2482 1.358 . S
C2483 H2487 0.930 . S
C2484 C2482 1.356 . S
C2484 C2485 1.348 . S
C2485 C2480 1.353 . S
C2485 C2484 1.348 . S
C2485 H2537 0.929 . S
H2486 C2480 0.930 . S
H2487 C2483 0.930 . S
C2488 N2489 1.314 . S
C2488 C2490 1.353 . S
C2488 H2494 0.930 . S
N2489 Li2465 1.990 . S
N2489 C2488 1.314 . S
N2489 C2492 1.279 . S
C2490 C2488 1.353 . S
C2490 C2493 1.348 . S
C2490 H2538 0.929 . S
C2491 C2492 1.358 . S
C2491 C2493 1.356 . S
C2491 H2539 0.930 . S
C2492 N2489 1.279 . S
C2492 C2491 1.358 . S
C2492 H2495 0.930 . S
C2493 C2490 1.348 . S
C2493 C2491 1.356 . S
H2494 C2488 0.930 . S
H2495 C2492 0.930 . S
C2496 C2498 1.348 . S
C2496 C2499 1.356 . S
C2496 O2526 1.325 . S
N2497 C2500 1.314 . S
N2497 C2501 1.279 . S
C2498 C2496 1.348 . S
C2498 C2500 1.353 . S
C2498 H2540 0.929 . S
C2499 C2496 1.356 . S
C2499 C2501 1.358 . S
C2499 H2541 0.930 . S
C2500 N2497 1.314 . S
C2500 C2498 1.353 . S
C2500 H2542 0.930 . S
C2501 N2497 1.279 . S
C2501 C2499 1.358 . S
C2501 H2543 0.930 . S
C2502 C2503 1.348 . S
C2502 C2504 1.356 . S
C2502 O2527 1.325 . S
C2503 C2502 1.348 . S
C2503 C2505 1.353 . S
C2503 H2544 0.929 . S
C2504 C2502 1.356 . S
C2504 C2506 1.358 . S
C2504 H2545 0.930 . S
C2505 C2503 1.353 . S
C2505 N2507 1.314 . S
C2505 H2546 0.930 . S
C2506 C2504 1.358 . S
C2506 N2507 1.279 . S
C2506 H2547 0.930 . S
N2507 C2505 1.314 . S
N2507 C2506 1.279 . S
C2508 C2510 1.353 . S
C2508 N2511 1.314 . S
C2508 H2514 0.930 . S
C2509 N2511 1.279 . S
C2509 C2512 1.358 . S
C2509 H2515 0.930 . S
C2510 C2508 1.353 . S
C2510 C2513 1.348 . S
C2510 H2548 0.929 . S
N2511 Li2466 1.990 . S
N2511 C2508 1.314 . S
N2511 C2509 1.279 . S
C2512 C2509 1.358 . S
C2512 C2513 1.356 . S
C2512 H2549 0.930 . S
C2513 C2510 1.348 . S
C2513 C2512 1.356 . S
H2514 C2508 0.930 . S
H2515 C2509 0.930 . S
C2516 N2517 1.314 . S
C2516 C2518 1.353 . S
C2516 H2522 0.930 . S
N2517 Li2467 1.990 . S
N2517 C2516 1.314 . S
N2517 C2520 1.279 . S
C2518 C2516 1.353 . S
C2518 C2521 1.348 . S
C2518 H2550 0.929 . S
C2519 C2520 1.358 . S
C2519 C2521 1.356 . S
C2519 H2551 0.930 . S
C2520 N2517 1.279 . S
C2520 C2519 1.358 . S
C2520 H2523 0.930 . S
C2521 C2518 1.348 . S
C2521 C2519 1.356 . S
H2522 C2516 0.930 . S
H2523 C2520 0.930 . S
O2524 Li2464 1.956 . S
O2524 Li2465 1.970 . S
O2524 Li2466 1.961 . S
O2524 C2468 1.325 . S
O2525 Li2464 1.970 . S
O2525 Li2465 1.956 . S
O2525 Li2467 1.961 . S
O2525 C2474 1.325 . S
O2526 Li2464 1.961 . S
O2526 Li2466 1.956 . S
O2526 Li2467 1.970 . S
O2526 C2496 1.325 . S
O2527 Li2465 1.961 . S
O2527 Li2466 1.970 . S
O2527 Li2467 1.956 . S
O2527 C2502 1.325 . S
H2528 C2470 0.929 . S
H2529 C2471 0.930 . S
H2530 C2472 0.930 . S
H2531 C2473 0.930 . S
H2532 C2475 0.930 . S
H2533 C2477 0.929 . S
H2534 C2478 0.930 . S
H2535 C2479 0.930 . S
H2536 C2482 0.930 . S
H2537 C2485 0.929 . S
H2538 C2490 0.929 . S
H2539 C2491 0.930 . S
H2540 C2498 0.929 . S
H2541 C2499 0.930 . S
H2542 C2500 0.930 . S
H2543 C2501 0.930 . S
H2544 C2503 0.929 . S
H2545 C2504 0.930 . S
H2546 C2505 0.930 . S
H2547 C2506 0.930 . S
H2548 C2510 0.929 . S
H2549 C2512 0.930 . S
H2550 C2518 0.929 . S
H2551 C2519 0.930 . S
Li2552 N2569 1.990 . S
Li2552 O2612 1.956 . S
Li2552 O2613 1.970 . S
Li2552 O2614 1.961 . S
Li2553 N2577 1.990 . S
Li2553 O2612 1.970 . S
Li2553 O2613 1.956 . S
Li2553 O2615 1.961 . S
Li2554 N2599 1.990 . S
Li2554 O2612 1.961 . S
Li2554 O2614 1.956 . S
Li2554 O2615 1.970 . S
Li2555 N2605 1.990 . S
Li2555 O2613 1.961 . S
Li2555 O2614 1.970 . S
Li2555 O2615 1.956 . S
C2556 C2558 1.348 . S
C2556 C2559 1.356 . S
C2556 O2612 1.325 . S
N2557 C2560 1.314 . S
N2557 C2561 1.279 . S
C2558 C2556 1.348 . S
C2558 C2560 1.353 . S
C2558 H2616 0.929 . S
C2559 C2556 1.356 . S
C2559 C2561 1.358 . S
C2559 H2617 0.930 . S
C2560 N2557 1.314 . S
C2560 C2558 1.353 . S
C2560 H2618 0.930 . S
C2561 N2557 1.279 . S
C2561 C2559 1.358 . S
C2561 H2619 0.930 . S
C2562 C2565 1.348 . S
C2562 C2566 1.356 . S
C2562 O2613 1.325 . S
C2563 N2564 1.279 . S
C2563 C2566 1.358 . S
C2563 H2620 0.930 . S
N2564 C2563 1.279 . S
N2564 C2567 1.314 . S
C2565 C2562 1.348 . S
C2565 C2567 1.353 . S
C2565 H2621 0.929 . S
C2566 C2562 1.356 . S
C2566 C2563 1.358 . S
C2566 H2622 0.930 . S
C2567 N2564 1.314 . S
C2567 C2565 1.353 . S
C2567 H2623 0.930 . S
C2568 N2569 1.314 . S
C2568 C2573 1.353 . S
C2568 H2574 0.930 . S
N2569 Li2552 1.990 . S
N2569 C2568 1.314 . S
N2569 C2571 1.279 . S
C2570 C2571 1.358 . S
C2570 C2572 1.356 . S
C2570 H2624 0.930 . S
C2571 N2569 1.279 . S
C2571 C2570 1.358 . S
C2571 H2575 0.930 . S
C2572 C2570 1.356 . S
C2572 C2573 1.348 . S
C2573 C2568 1.353 . S
C2573 C2572 1.348 . S
C2573 H2625 0.929 . S
H2574 C2568 0.930 . S
H2575 C2571 0.930 . S
C2576 N2577 1.314 . S
C2576 C2578 1.353 . S
C2576 H2582 0.930 . S
N2577 Li2553 1.990 . S
N2577 C2576 1.314 . S
N2577 C2580 1.279 . S
C2578 C2576 1.353 . S
C2578 C2581 1.348 . S
C2578 H2626 0.929 . S
C2579 C2580 1.358 . S
C2579 C2581 1.356 . S
C2579 H2627 0.930 . S
C2580 N2577 1.279 . S
C2580 C2579 1.358 . S
C2580 H2583 0.930 . S
C2581 C2578 1.348 . S
C2581 C2579 1.356 . S
H2582 C2576 0.930 . S
H2583 C2580 0.930 . S
C2584 C2586 1.348 . S
C2584 C2587 1.356 . S
C2584 O2614 1.325 . S
N2585 C2588 1.314 . S
N2585 C2589 1.279 . S
C2586 C2584 1.348 . S
C2586 C2588 1.353 . S
C2586 H2628 0.929 . S
C2587 C2584 1.356 . S
C2587 C2589 1.358 . S
C2587 H2629 0.930 . S
C2588 N2585 1.314 . S
C2588 C2586 1.353 . S
C2588 H2630 0.930 . S
C2589 N2585 1.279 . S
C2589 C2587 1.358 . S
C2589 H2631 0.930 . S
C2590 C2591 1.348 . S
C2590 C2592 1.356 . S
C2590 O2615 1.325 . S
C2591 C2590 1.348 . S
C2591 C2593 1.353 . S
C2591 H2632 0.929 . S
C2592 C2590 1.356 . S
C2592 C2594 1.358 . S
C2592 H2633 0.930 . S
C2593 C2591 1.353 . S
C2593 N2595 1.314 . S
C2593 H2634 0.930 . S
C2594 C2592 1.358 . S
C2594 N2595 1.279 . S
C2594 H2635 0.930 . S
N2595 C2593 1.314 . S
N2595 C2594 1.279 . S
C2596 C2598 1.353 . S
C2596 N2599 1.314 . S
C2596 H2602 0.930 . S
C2597 N2599 1.279 . S
C2597 C2600 1.358 . S
C2597 H2603 0.930 . S
C2598 C2596 1.353 . S
C2598 C2601 1.348 . S
C2598 H2636 0.929 . S
N2599 Li2554 1.990 . S
N2599 C2596 1.314 . S
N2599 C2597 1.279 . S
C2600 C2597 1.358 . S
C2600 C2601 1.356 . S
C2600 H2637 0.930 . S
C2601 C2598 1.348 . S
C2601 C2600 1.356 . S
H2602 C2596 0.930 . S
H2603 C2597 0.930 . S
C2604 N2605 1.314 . S
C2604 C2606 1.353 . S
C2604 H2610 0.930 . S
N2605 Li2555 1.990 . S
N2605 C2604 1.314 . S
N2605 C2608 1.279 . S
C2606 C2604 1.353 . S
C2606 C2609 1.348 . S
C2606 H2638 0.929 . S
C2607 C2608 1.358 . S
C2607 C2609 1.356 . S
C2607 H2639 0.930 . S
C2608 N2605 1.279 . S
C2608 C2607 1.358 . S
C2608 H2611 0.930 . S
C2609 C2606 1.348 . S
C2609 C2607 1.356 . S
H2610 C2604 0.930 . S
H2611 C2608 0.930 . S
O2612 Li2552 1.956 . S
O2612 Li2553 1.970 . S
O2612 Li2554 1.961 . S
O2612 C2556 1.325 . S
O2613 Li2552 1.970 . S
O2613 Li2553 1.956 . S
O2613 Li2555 1.961 . S
O2613 C2562 1.325 . S
O2614 Li2552 1.961 . S
O2614 Li2554 1.956 . S
O2614 Li2555 1.970 . S
O2614 C2584 1.325 . S
O2615 Li2553 1.961 . S
O2615 Li2554 1.970 . S
O2615 Li2555 1.956 . S
O2615 C2590 1.325 . S
H2616 C2558 0.929 . S
H2617 C2559 0.930 . S
H2618 C2560 0.930 . S
H2619 C2561 0.930 . S
H2620 C2563 0.930 . S
H2621 C2565 0.929 . S
H2622 C2566 0.930 . S
H2623 C2567 0.930 . S
H2624 C2570 0.930 . S
H2625 C2573 0.929 . S
H2626 C2578 0.929 . S
H2627 C2579 0.930 . S
H2628 C2586 0.929 . S
H2629 C2587 0.930 . S
H2630 C2588 0.930 . S
H2631 C2589 0.930 . S
H2632 C2591 0.929 . S
H2633 C2592 0.930 . S
H2634 C2593 0.930 . S
H2635 C2594 0.930 . S
H2636 C2598 0.929 . S
H2637 C2600 0.930 . S
H2638 C2606 0.929 . S
H2639 C2607 0.930 . S
Li2640 N2657 1.990 . S
Li2640 O2700 1.956 . S
Li2640 O2701 1.970 . S
Li2640 O2702 1.961 . S
Li2641 N2665 1.990 . S
Li2641 O2700 1.970 . S
Li2641 O2701 1.956 . S
Li2641 O2703 1.961 . S
Li2642 N2687 1.990 . S
Li2642 O2700 1.961 . S
Li2642 O2702 1.956 . S
Li2642 O2703 1.970 . S
Li2643 N2693 1.990 . S
Li2643 O2701 1.961 . S
Li2643 O2702 1.970 . S
Li2643 O2703 1.956 . S
C2644 C2646 1.348 . S
C2644 C2647 1.356 . S
C2644 O2700 1.325 . S
N2645 C2648 1.314 . S
N2645 C2649 1.279 . S
C2646 C2644 1.348 . S
C2646 C2648 1.353 . S
C2646 H2704 0.929 . S
C2647 C2644 1.356 . S
C2647 C2649 1.358 . S
C2647 H2705 0.930 . S
C2648 N2645 1.314 . S
C2648 C2646 1.353 . S
C2648 H2706 0.930 . S
C2649 N2645 1.279 . S
C2649 C2647 1.358 . S
C2649 H2707 0.930 . S
C2650 C2653 1.348 . S
C2650 C2654 1.356 . S
C2650 O2701 1.325 . S
C2651 N2652 1.279 . S
C2651 C2654 1.358 . S
C2651 H2708 0.930 . S
N2652 C2651 1.279 . S
N2652 C2655 1.314 . S
C2653 C2650 1.348 . S
C2653 C2655 1.353 . S
C2653 H2709 0.929 . S
C2654 C2650 1.356 . S
C2654 C2651 1.358 . S
C2654 H2710 0.930 . S
C2655 N2652 1.314 . S
C2655 C2653 1.353 . S
C2655 H2711 0.930 . S
C2656 N2657 1.314 . S
C2656 C2661 1.353 . S
C2656 H2662 0.930 . S
N2657 Li2640 1.990 . S
N2657 C2656 1.314 . S
N2657 C2659 1.279 . S
C2658 C2659 1.358 . S
C2658 C2660 1.356 . S
C2658 H2712 0.930 . S
C2659 N2657 1.279 . S
C2659 C2658 1.358 . S
C2659 H2663 0.930 . S
C2660 C2658 1.356 . S
C2660 C2661 1.348 . S
C2661 C2656 1.353 . S
C2661 C2660 1.348 . S
C2661 H2713 0.929 . S
H2662 C2656 0.930 . S
H2663 C2659 0.930 . S
C2664 N2665 1.314 . S
C2664 C2666 1.353 . S
C2664 H2670 0.930 . S
N2665 Li2641 1.990 . S
N2665 C2664 1.314 . S
N2665 C2668 1.279 . S
C2666 C2664 1.353 . S
C2666 C2669 1.348 . S
C2666 H2714 0.929 . S
C2667 C2668 1.358 . S
C2667 C2669 1.356 . S
C2667 H2715 0.930 . S
C2668 N2665 1.279 . S
C2668 C2667 1.358 . S
C2668 H2671 0.930 . S
C2669 C2666 1.348 . S
C2669 C2667 1.356 . S
H2670 C2664 0.930 . S
H2671 C2668 0.930 . S
C2672 C2674 1.348 . S
C2672 C2675 1.356 . S
C2672 O2702 1.325 . S
N2673 C2676 1.314 . S
N2673 C2677 1.279 . S
C2674 C2672 1.348 . S
C2674 C2676 1.353 . S
C2674 H2716 0.929 . S
C2675 C2672 1.356 . S
C2675 C2677 1.358 . S
C2675 H2717 0.930 . S
C2676 N2673 1.314 . S
C2676 C2674 1.353 . S
C2676 H2718 0.930 . S
C2677 N2673 1.279 . S
C2677 C2675 1.358 . S
C2677 H2719 0.930 . S
C2678 C2679 1.348 . S
C2678 C2680 1.356 . S
C2678 O2703 1.325 . S
C2679 C2678 1.348 . S
C2679 C2681 1.353 . S
C2679 H2720 0.929 . S
C2680 C2678 1.356 . S
C2680 C2682 1.358 . S
C2680 H2721 0.930 . S
C2681 C2679 1.353 . S
C2681 N2683 1.314 . S
C2681 H2722 0.930 . S
C2682 C2680 1.358 . S
C2682 N2683 1.279 . S
C2682 H2723 0.930 . S
N2683 C2681 1.314 . S
N2683 C2682 1.279 . S
C2684 C2686 1.353 . S
C2684 N2687 1.314 . S
C2684 H2690 0.930 . S
C2685 N2687 1.279 . S
C2685 C2688 1.358 . S
C2685 H2691 0.930 . S
C2686 C2684 1.353 . S
C2686 C2689 1.348 . S
C2686 H2724 0.929 . S
N2687 Li2642 1.990 . S
N2687 C2684 1.314 . S
N2687 C2685 1.279 . S
C2688 C2685 1.358 . S
C2688 C2689 1.356 . S
C2688 H2725 0.930 . S
C2689 C2686 1.348 . S
C2689 C2688 1.356 . S
H2690 C2684 0.930 . S
H2691 C2685 0.930 . S
C2692 N2693 1.314 . S
C2692 C2694 1.353 . S
C2692 H2698 0.930 . S
N2693 Li2643 1.990 . S
N2693 C2692 1.314 . S
N2693 C2696 1.279 . S
C2694 C2692 1.353 . S
C2694 C2697 1.348 . S
C2694 H2726 0.929 . S
C2695 C2696 1.358 . S
C2695 C2697 1.356 . S
C2695 H2727 0.930 . S
C2696 N2693 1.279 . S
C2696 C2695 1.358 . S
C2696 H2699 0.930 . S
C2697 C2694 1.348 . S
C2697 C2695 1.356 . S
H2698 C2692 0.930 . S
H2699 C2696 0.930 . S
O2700 Li2640 1.956 . S
O2700 Li2641 1.970 . S
O2700 Li2642 1.961 . S
O2700 C2644 1.325 . S
O2701 Li2640 1.970 . S
O2701 Li2641 1.956 . S
O2701 Li2643 1.961 . S
O2701 C2650 1.325 . S
O2702 Li2640 1.961 . S
O2702 Li2642 1.956 . S
O2702 Li2643 1.970 . S
O2702 C2672 1.325 . S
O2703 Li2641 1.961 . S
O2703 Li2642 1.970 . S
O2703 Li2643 1.956 . S
O2703 C2678 1.325 . S
H2704 C2646 0.929 . S
H2705 C2647 0.930 . S
H2706 C2648 0.930 . S
H2707 C2649 0.930 . S
H2708 C2651 0.930 . S
H2709 C2653 0.929 . S
H2710 C2654 0.930 . S
H2711 C2655 0.930 . S
H2712 C2658 0.930 . S
H2713 C2661 0.929 . S
H2714 C2666 0.929 . S
H2715 C2667 0.930 . S
H2716 C2674 0.929 . S
H2717 C2675 0.930 . S
H2718 C2676 0.930 . S
H2719 C2677 0.930 . S
H2720 C2679 0.929 . S
H2721 C2680 0.930 . S
H2722 C2681 0.930 . S
H2723 C2682 0.930 . S
H2724 C2686 0.929 . S
H2725 C2688 0.930 . S
H2726 C2694 0.929 . S
H2727 C2695 0.930 . S
Li2728 N2745 1.990 . S
Li2728 O2788 1.956 . S
Li2728 O2789 1.970 . S
Li2728 O2790 1.961 . S
Li2729 N2753 1.990 . S
Li2729 O2788 1.970 . S
Li2729 O2789 1.956 . S
Li2729 O2791 1.961 . S
Li2730 N2775 1.990 . S
Li2730 O2788 1.961 . S
Li2730 O2790 1.956 . S
Li2730 O2791 1.970 . S
Li2731 N2781 1.990 . S
Li2731 O2789 1.961 . S
Li2731 O2790 1.970 . S
Li2731 O2791 1.956 . S
C2732 C2734 1.348 . S
C2732 C2735 1.356 . S
C2732 O2788 1.325 . S
N2733 C2736 1.314 . S
N2733 C2737 1.279 . S
C2734 C2732 1.348 . S
C2734 C2736 1.353 . S
C2734 H2792 0.929 . S
C2735 C2732 1.356 . S
C2735 C2737 1.358 . S
C2735 H2793 0.930 . S
C2736 N2733 1.314 . S
C2736 C2734 1.353 . S
C2736 H2794 0.930 . S
C2737 N2733 1.279 . S
C2737 C2735 1.358 . S
C2737 H2795 0.930 . S
C2738 C2741 1.348 . S
C2738 C2742 1.356 . S
C2738 O2789 1.325 . S
C2739 N2740 1.279 . S
C2739 C2742 1.358 . S
C2739 H2796 0.930 . S
N2740 C2739 1.279 . S
N2740 C2743 1.314 . S
C2741 C2738 1.348 . S
C2741 C2743 1.353 . S
C2741 H2797 0.929 . S
C2742 C2738 1.356 . S
C2742 C2739 1.358 . S
C2742 H2798 0.930 . S
C2743 N2740 1.314 . S
C2743 C2741 1.353 . S
C2743 H2799 0.930 . S
C2744 N2745 1.314 . S
C2744 C2749 1.353 . S
C2744 H2750 0.930 . S
N2745 Li2728 1.990 . S
N2745 C2744 1.314 . S
N2745 C2747 1.279 . S
C2746 C2747 1.358 . S
C2746 C2748 1.356 . S
C2746 H2800 0.930 . S
C2747 N2745 1.279 . S
C2747 C2746 1.358 . S
C2747 H2751 0.930 . S
C2748 C2746 1.356 . S
C2748 C2749 1.348 . S
C2749 C2744 1.353 . S
C2749 C2748 1.348 . S
C2749 H2801 0.929 . S
H2750 C2744 0.930 . S
H2751 C2747 0.930 . S
C2752 N2753 1.314 . S
C2752 C2754 1.353 . S
C2752 H2758 0.930 . S
N2753 Li2729 1.990 . S
N2753 C2752 1.314 . S
N2753 C2756 1.279 . S
C2754 C2752 1.353 . S
C2754 C2757 1.348 . S
C2754 H2802 0.929 . S
C2755 C2756 1.358 . S
C2755 C2757 1.356 . S
C2755 H2803 0.930 . S
C2756 N2753 1.279 . S
C2756 C2755 1.358 . S
C2756 H2759 0.930 . S
C2757 C2754 1.348 . S
C2757 C2755 1.356 . S
H2758 C2752 0.930 . S
H2759 C2756 0.930 . S
C2760 C2762 1.348 . S
C2760 C2763 1.356 . S
C2760 O2790 1.325 . S
N2761 C2764 1.314 . S
N2761 C2765 1.279 . S
C2762 C2760 1.348 . S
C2762 C2764 1.353 . S
C2762 H2804 0.929 . S
C2763 C2760 1.356 . S
C2763 C2765 1.358 . S
C2763 H2805 0.930 . S
C2764 N2761 1.314 . S
C2764 C2762 1.353 . S
C2764 H2806 0.930 . S
C2765 N2761 1.279 . S
C2765 C2763 1.358 . S
C2765 H2807 0.930 . S
C2766 C2767 1.348 . S
C2766 C2768 1.356 . S
C2766 O2791 1.325 . S
C2767 C2766 1.348 . S
C2767 C2769 1.353 . S
C2767 H2808 0.929 . S
C2768 C2766 1.356 . S
C2768 C2770 1.358 . S
C2768 H2809 0.930 . S
C2769 C2767 1.353 . S
C2769 N2771 1.314 . S
C2769 H2810 0.930 . S
C2770 C2768 1.358 . S
C2770 N2771 1.279 . S
C2770 H2811 0.930 . S
N2771 C2769 1.314 . S
N2771 C2770 1.279 . S
C2772 C2774 1.353 . S
C2772 N2775 1.314 . S
C2772 H2778 0.930 . S
C2773 N2775 1.279 . S
C2773 C2776 1.358 . S
C2773 H2779 0.930 . S
C2774 C2772 1.353 . S
C2774 C2777 1.348 . S
C2774 H2812 0.929 . S
N2775 Li2730 1.990 . S
N2775 C2772 1.314 . S
N2775 C2773 1.279 . S
C2776 C2773 1.358 . S
C2776 C2777 1.356 . S
C2776 H2813 0.930 . S
C2777 C2774 1.348 . S
C2777 C2776 1.356 . S
H2778 C2772 0.930 . S
H2779 C2773 0.930 . S
C2780 N2781 1.314 . S
C2780 C2782 1.353 . S
C2780 H2786 0.930 . S
N2781 Li2731 1.990 . S
N2781 C2780 1.314 . S
N2781 C2784 1.279 . S
C2782 C2780 1.353 . S
C2782 C2785 1.348 . S
C2782 H2814 0.929 . S
C2783 C2784 1.358 . S
C2783 C2785 1.356 . S
C2783 H2815 0.930 . S
C2784 N2781 1.279 . S
C2784 C2783 1.358 . S
C2784 H2787 0.930 . S
C2785 C2782 1.348 . S
C2785 C2783 1.356 . S
H2786 C2780 0.930 . S
H2787 C2784 0.930 . S
O2788 Li2728 1.956 . S
O2788 Li2729 1.970 . S
O2788 Li2730 1.961 . S
O2788 C2732 1.325 . S
O2789 Li2728 1.970 . S
O2789 Li2729 1.956 . S
O2789 Li2731 1.961 . S
O2789 C2738 1.325 . S
O2790 Li2728 1.961 . S
O2790 Li2730 1.956 . S
O2790 Li2731 1.970 . S
O2790 C2760 1.325 . S
O2791 Li2729 1.961 . S
O2791 Li2730 1.970 . S
O2791 Li2731 1.956 . S
O2791 C2766 1.325 . S
H2792 C2734 0.929 . S
H2793 C2735 0.930 . S
H2794 C2736 0.930 . S
H2795 C2737 0.930 . S
H2796 C2739 0.930 . S
H2797 C2741 0.929 . S
H2798 C2742 0.930 . S
H2799 C2743 0.930 . S
H2800 C2746 0.930 . S
H2801 C2749 0.929 . S
H2802 C2754 0.929 . S
H2803 C2755 0.930 . S
H2804 C2762 0.929 . S
H2805 C2763 0.930 . S
H2806 C2764 0.930 . S
H2807 C2765 0.930 . S
H2808 C2767 0.929 . S
H2809 C2768 0.930 . S
H2810 C2769 0.930 . S
H2811 C2770 0.930 . S
H2812 C2774 0.929 . S
H2813 C2776 0.930 . S
H2814 C2782 0.929 . S
H2815 C2783 0.930 . S
Li2816 N2833 1.990 . S
Li2816 O2876 1.956 . S
Li2816 O2877 1.970 . S
Li2816 O2878 1.961 . S
Li2817 N2841 1.990 . S
Li2817 O2876 1.970 . S
Li2817 O2877 1.956 . S
Li2817 O2879 1.961 . S
Li2818 N2863 1.990 . S
Li2818 O2876 1.961 . S
Li2818 O2878 1.956 . S
Li2818 O2879 1.970 . S
Li2819 N2869 1.990 . S
Li2819 O2877 1.961 . S
Li2819 O2878 1.970 . S
Li2819 O2879 1.956 . S
C2820 C2822 1.348 . S
C2820 C2823 1.356 . S
C2820 O2876 1.325 . S
N2821 C2824 1.314 . S
N2821 C2825 1.279 . S
C2822 C2820 1.348 . S
C2822 C2824 1.353 . S
C2822 H2880 0.929 . S
C2823 C2820 1.356 . S
C2823 C2825 1.358 . S
C2823 H2881 0.930 . S
C2824 N2821 1.314 . S
C2824 C2822 1.353 . S
C2824 H2882 0.930 . S
C2825 N2821 1.279 . S
C2825 C2823 1.358 . S
C2825 H2883 0.930 . S
C2826 C2829 1.348 . S
C2826 C2830 1.356 . S
C2826 O2877 1.325 . S
C2827 N2828 1.279 . S
C2827 C2830 1.358 . S
C2827 H2884 0.930 . S
N2828 C2827 1.279 . S
N2828 C2831 1.314 . S
C2829 C2826 1.348 . S
C2829 C2831 1.353 . S
C2829 H2885 0.929 . S
C2830 C2826 1.356 . S
C2830 C2827 1.358 . S
C2830 H2886 0.930 . S
C2831 N2828 1.314 . S
C2831 C2829 1.353 . S
C2831 H2887 0.930 . S
C2832 N2833 1.314 . S
C2832 C2837 1.353 . S
C2832 H2838 0.930 . S
N2833 Li2816 1.990 . S
N2833 C2832 1.314 . S
N2833 C2835 1.279 . S
C2834 C2835 1.358 . S
C2834 C2836 1.356 . S
C2834 H2888 0.930 . S
C2835 N2833 1.279 . S
C2835 C2834 1.358 . S
C2835 H2839 0.930 . S
C2836 C2834 1.356 . S
C2836 C2837 1.348 . S
C2837 C2832 1.353 . S
C2837 C2836 1.348 . S
C2837 H2889 0.929 . S
H2838 C2832 0.930 . S
H2839 C2835 0.930 . S
C2840 N2841 1.314 . S
C2840 C2842 1.353 . S
C2840 H2846 0.930 . S
N2841 Li2817 1.990 . S
N2841 C2840 1.314 . S
N2841 C2844 1.279 . S
C2842 C2840 1.353 . S
C2842 C2845 1.348 . S
C2842 H2890 0.929 . S
C2843 C2844 1.358 . S
C2843 C2845 1.356 . S
C2843 H2891 0.930 . S
C2844 N2841 1.279 . S
C2844 C2843 1.358 . S
C2844 H2847 0.930 . S
C2845 C2842 1.348 . S
C2845 C2843 1.356 . S
H2846 C2840 0.930 . S
H2847 C2844 0.930 . S
C2848 C2850 1.348 . S
C2848 C2851 1.356 . S
C2848 O2878 1.325 . S
N2849 C2852 1.314 . S
N2849 C2853 1.279 . S
C2850 C2848 1.348 . S
C2850 C2852 1.353 . S
C2850 H2892 0.929 . S
C2851 C2848 1.356 . S
C2851 C2853 1.358 . S
C2851 H2893 0.930 . S
C2852 N2849 1.314 . S
C2852 C2850 1.353 . S
C2852 H2894 0.930 . S
C2853 N2849 1.279 . S
C2853 C2851 1.358 . S
C2853 H2895 0.930 . S
C2854 C2855 1.348 . S
C2854 C2856 1.356 . S
C2854 O2879 1.325 . S
C2855 C2854 1.348 . S
C2855 C2857 1.353 . S
C2855 H2896 0.929 . S
C2856 C2854 1.356 . S
C2856 C2858 1.358 . S
C2856 H2897 0.930 . S
C2857 C2855 1.353 . S
C2857 N2859 1.314 . S
C2857 H2898 0.930 . S
C2858 C2856 1.358 . S
C2858 N2859 1.279 . S
C2858 H2899 0.930 . S
N2859 C2857 1.314 . S
N2859 C2858 1.279 . S
C2860 C2862 1.353 . S
C2860 N2863 1.314 . S
C2860 H2866 0.930 . S
C2861 N2863 1.279 . S
C2861 C2864 1.358 . S
C2861 H2867 0.930 . S
C2862 C2860 1.353 . S
C2862 C2865 1.348 . S
C2862 H2900 0.929 . S
N2863 Li2818 1.990 . S
N2863 C2860 1.314 . S
N2863 C2861 1.279 . S
C2864 C2861 1.358 . S
C2864 C2865 1.356 . S
C2864 H2901 0.930 . S
C2865 C2862 1.348 . S
C2865 C2864 1.356 . S
H2866 C2860 0.930 . S
H2867 C2861 0.930 . S
C2868 N2869 1.314 . S
C2868 C2870 1.353 . S
C2868 H2874 0.930 . S
N2869 Li2819 1.990 . S
N2869 C2868 1.314 . S
N2869 C2872 1.279 . S
C2870 C2868 1.353 . S
C2870 C2873 1.348 . S
C2870 H2902 0.929 . S
C2871 C2872 1.358 . S
C2871 C2873 1.356 . S
C2871 H2903 0.930 . S
C2872 N2869 1.279 . S
C2872 C2871 1.358 . S
C2872 H2875 0.930 . S
C2873 C2870 1.348 . S
C2873 C2871 1.356 . S
H2874 C2868 0.930 . S
H2875 C2872 0.930 . S
O2876 Li2816 1.956 . S
O2876 Li2817 1.970 . S
O2876 Li2818 1.961 . S
O2876 C2820 1.325 . S
O2877 Li2816 1.970 . S
O2877 Li2817 1.956 . S
O2877 Li2819 1.961 . S
O2877 C2826 1.325 . S
O2878 Li2816 1.961 . S
O2878 Li2818 1.956 . S
O2878 Li2819 1.970 . S
O2878 C2848 1.325 . S
O2879 Li2817 1.961 . S
O2879 Li2818 1.970 . S
O2879 Li2819 1.956 . S
O2879 C2854 1.325 . S
H2880 C2822 0.929 . S
H2881 C2823 0.930 . S
H2882 C2824 0.930 . S
H2883 C2825 0.930 . S
H2884 C2827 0.930 . S
H2885 C2829 0.929 . S
H2886 C2830 0.930 . S
H2887 C2831 0.930 . S
H2888 C2834 0.930 . S
H2889 C2837 0.929 . S
H2890 C2842 0.929 . S
H2891 C2843 0.930 . S
H2892 C2850 0.929 . S
H2893 C2851 0.930 . S
H2894 C2852 0.930 . S
H2895 C2853 0.930 . S
H2896 C2855 0.929 . S
H2897 C2856 0.930 . S
H2898 C2857 0.930 . S
H2899 C2858 0.930 . S
H2900 C2862 0.929 . S
H2901 C2864 0.930 . S
H2902 C2870 0.929 . S
H2903 C2871 0.930 . S
Li2904 N2921 1.990 . S
Li2904 O2964 1.956 . S
Li2904 O2965 1.970 . S
Li2904 O2966 1.961 . S
Li2905 N2929 1.990 . S
Li2905 O2964 1.970 . S
Li2905 O2965 1.956 . S
Li2905 O2967 1.961 . S
Li2906 N2951 1.990 . S
Li2906 O2964 1.961 . S
Li2906 O2966 1.956 . S
Li2906 O2967 1.970 . S
Li2907 N2957 1.990 . S
Li2907 O2965 1.961 . S
Li2907 O2966 1.970 . S
Li2907 O2967 1.956 . S
C2908 C2910 1.348 . S
C2908 C2911 1.356 . S
C2908 O2964 1.325 . S
N2909 C2912 1.314 . S
N2909 C2913 1.279 . S
C2910 C2908 1.348 . S
C2910 C2912 1.353 . S
C2910 H2968 0.929 . S
C2911 C2908 1.356 . S
C2911 C2913 1.358 . S
C2911 H2969 0.930 . S
C2912 N2909 1.314 . S
C2912 C2910 1.353 . S
C2912 H2970 0.930 . S
C2913 N2909 1.279 . S
C2913 C2911 1.358 . S
C2913 H2971 0.930 . S
C2914 C2917 1.348 . S
C2914 C2918 1.356 . S
C2914 O2965 1.325 . S
C2915 N2916 1.279 . S
C2915 C2918 1.358 . S
C2915 H2972 0.930 . S
N2916 C2915 1.279 . S
N2916 C2919 1.314 . S
C2917 C2914 1.348 . S
C2917 C2919 1.353 . S
C2917 H2973 0.929 . S
C2918 C2914 1.356 . S
C2918 C2915 1.358 . S
C2918 H2974 0.930 . S
C2919 N2916 1.314 . S
C2919 C2917 1.353 . S
C2919 H2975 0.930 . S
C2920 N2921 1.314 . S
C2920 C2925 1.353 . S
C2920 H2926 0.930 . S
N2921 Li2904 1.990 . S
N2921 C2920 1.314 . S
N2921 C2923 1.279 . S
C2922 C2923 1.358 . S
C2922 C2924 1.356 . S
C2922 H2976 0.930 . S
C2923 N2921 1.279 . S
C2923 C2922 1.358 . S
C2923 H2927 0.930 . S
C2924 C2922 1.356 . S
C2924 C2925 1.348 . S
C2925 C2920 1.353 . S
C2925 C2924 1.348 . S
C2925 H2977 0.929 . S
H2926 C2920 0.930 . S
H2927 C2923 0.930 . S
C2928 N2929 1.314 . S
C2928 C2930 1.353 . S
C2928 H2934 0.930 . S
N2929 Li2905 1.990 . S
N2929 C2928 1.314 . S
N2929 C2932 1.279 . S
C2930 C2928 1.353 . S
C2930 C2933 1.348 . S
C2930 H2978 0.929 . S
C2931 C2932 1.358 . S
C2931 C2933 1.356 . S
C2931 H2979 0.930 . S
C2932 N2929 1.279 . S
C2932 C2931 1.358 . S
C2932 H2935 0.930 . S
C2933 C2930 1.348 . S
C2933 C2931 1.356 . S
H2934 C2928 0.930 . S
H2935 C2932 0.930 . S
C2936 C2938 1.348 . S
C2936 C2939 1.356 . S
C2936 O2966 1.325 . S
N2937 C2940 1.314 . S
N2937 C2941 1.279 . S
C2938 C2936 1.348 . S
C2938 C2940 1.353 . S
C2938 H2980 0.929 . S
C2939 C2936 1.356 . S
C2939 C2941 1.358 . S
C2939 H2981 0.930 . S
C2940 N2937 1.314 . S
C2940 C2938 1.353 . S
C2940 H2982 0.930 . S
C2941 N2937 1.279 . S
C2941 C2939 1.358 . S
C2941 H2983 0.930 . S
C2942 C2943 1.348 . S
C2942 C2944 1.356 . S
C2942 O2967 1.325 . S
C2943 C2942 1.348 . S
C2943 C2945 1.353 . S
C2943 H2984 0.929 . S
C2944 C2942 1.356 . S
C2944 C2946 1.358 1_455 S
C2944 H2985 0.930 . S
C2945 C2943 1.353 . S
C2945 N2947 1.314 1_455 S
C2945 H2986 0.930 . S
C2946 C2944 1.358 1_655 S
C2946 N2947 1.279 . S
C2946 H2987 0.930 . S
N2947 C2945 1.314 1_655 S
N2947 C2946 1.279 . S
C2948 C2950 1.353 . S
C2948 N2951 1.314 . S
C2948 H2954 0.930 . S
C2949 N2951 1.279 . S
C2949 C2952 1.358 . S
C2949 H2955 0.930 . S
C2950 C2948 1.353 . S
C2950 C2953 1.348 . S
C2950 H2988 0.929 . S
N2951 Li2906 1.990 . S
N2951 C2948 1.314 . S
N2951 C2949 1.279 . S
C2952 C2949 1.358 . S
C2952 C2953 1.356 . S
C2952 H2989 0.930 . S
C2953 C2950 1.348 . S
C2953 C2952 1.356 . S
H2954 C2948 0.930 . S
H2955 C2949 0.930 . S
C2956 N2957 1.314 . S
C2956 C2958 1.353 . S
C2956 H2962 0.930 . S
N2957 Li2907 1.990 . S
N2957 C2956 1.314 . S
N2957 C2960 1.279 . S
C2958 C2956 1.353 . S
C2958 C2961 1.348 . S
C2958 H2990 0.929 . S
C2959 C2960 1.358 . S
C2959 C2961 1.356 . S
C2959 H2991 0.930 1_455 S
C2960 N2957 1.279 . S
C2960 C2959 1.358 . S
C2960 H2963 0.930 . S
C2961 C2958 1.348 . S
C2961 C2959 1.356 . S
H2962 C2956 0.930 . S
H2963 C2960 0.930 . S
O2964 Li2904 1.956 . S
O2964 Li2905 1.970 . S
O2964 Li2906 1.961 . S
O2964 C2908 1.325 . S
O2965 Li2904 1.970 . S
O2965 Li2905 1.956 . S
O2965 Li2907 1.961 . S
O2965 C2914 1.325 . S
O2966 Li2904 1.961 . S
O2966 Li2906 1.956 . S
O2966 Li2907 1.970 . S
O2966 C2936 1.325 . S
O2967 Li2905 1.961 . S
O2967 Li2906 1.970 . S
O2967 Li2907 1.956 . S
O2967 C2942 1.325 . S
H2968 C2910 0.929 . S
H2969 C2911 0.930 . S
H2970 C2912 0.930 . S
H2971 C2913 0.930 . S
H2972 C2915 0.930 . S
H2973 C2917 0.929 . S
H2974 C2918 0.930 . S
H2975 C2919 0.930 . S
H2976 C2922 0.930 . S
H2977 C2925 0.929 . S
H2978 C2930 0.929 . S
H2979 C2931 0.930 . S
H2980 C2938 0.929 . S
H2981 C2939 0.930 . S
H2982 C2940 0.930 . S
H2983 C2941 0.930 . S
H2984 C2943 0.929 . S
H2985 C2944 0.930 . S
H2986 C2945 0.930 . S
H2987 C2946 0.930 . S
H2988 C2950 0.929 . S
H2989 C2952 0.930 . S
H2990 C2958 0.929 . S
H2991 C2959 0.930 1_655 S
Li2992 N3009 1.990 . S
Li2992 O3052 1.956 . S
Li2992 O3053 1.970 . S
Li2992 O3054 1.961 . S
Li2993 N3017 1.990 . S
Li2993 O3052 1.970 . S
Li2993 O3053 1.956 . S
Li2993 O3055 1.961 . S
Li2994 N3039 1.990 . S
Li2994 O3052 1.961 . S
Li2994 O3054 1.956 . S
Li2994 O3055 1.970 . S
Li2995 N3045 1.990 . S
Li2995 O3053 1.961 . S
Li2995 O3054 1.970 . S
Li2995 O3055 1.956 . S
C2996 C2998 1.348 . S
C2996 C2999 1.356 . S
C2996 O3052 1.325 . S
N2997 C3000 1.314 . S
N2997 C3001 1.279 . S
C2998 C2996 1.348 . S
C2998 C3000 1.353 . S
C2998 H3056 0.929 . S
C2999 C2996 1.356 . S
C2999 C3001 1.358 . S
C2999 H3057 0.930 . S
C3000 N2997 1.314 . S
C3000 C2998 1.353 . S
C3000 H3058 0.930 . S
C3001 N2997 1.279 . S
C3001 C2999 1.358 . S
C3001 H3059 0.930 . S
C3002 C3005 1.348 . S
C3002 C3006 1.356 . S
C3002 O3053 1.325 . S
C3003 N3004 1.279 . S
C3003 C3006 1.358 . S
C3003 H3060 0.930 . S
N3004 C3003 1.279 . S
N3004 C3007 1.314 . S
C3005 C3002 1.348 . S
C3005 C3007 1.353 . S
C3005 H3061 0.929 . S
C3006 C3002 1.356 . S
C3006 C3003 1.358 . S
C3006 H3062 0.930 . S
C3007 N3004 1.314 . S
C3007 C3005 1.353 . S
C3007 H3063 0.930 . S
C3008 N3009 1.314 . S
C3008 C3013 1.353 . S
C3008 H3014 0.930 . S
N3009 Li2992 1.990 . S
N3009 C3008 1.314 . S
N3009 C3011 1.279 . S
C3010 C3011 1.358 . S
C3010 C3012 1.356 . S
C3010 H3064 0.930 . S
C3011 N3009 1.279 . S
C3011 C3010 1.358 . S
C3011 H3015 0.930 . S
C3012 C3010 1.356 . S
C3012 C3013 1.348 . S
C3013 C3008 1.353 . S
C3013 C3012 1.348 . S
C3013 H3065 0.929 . S
H3014 C3008 0.930 . S
H3015 C3011 0.930 . S
C3016 N3017 1.314 . S
C3016 C3018 1.353 . S
C3016 H3022 0.930 . S
N3017 Li2993 1.990 . S
N3017 C3016 1.314 . S
N3017 C3020 1.279 . S
C3018 C3016 1.353 . S
C3018 C3021 1.348 . S
C3018 H3066 0.929 . S
C3019 C3020 1.358 . S
C3019 C3021 1.356 . S
C3019 H3067 0.930 . S
C3020 N3017 1.279 . S
C3020 C3019 1.358 . S
C3020 H3023 0.930 . S
C3021 C3018 1.348 . S
C3021 C3019 1.356 . S
H3022 C3016 0.930 . S
H3023 C3020 0.930 . S
C3024 C3026 1.348 . S
C3024 C3027 1.356 . S
C3024 O3054 1.325 . S
N3025 C3028 1.314 . S
N3025 C3029 1.279 . S
C3026 C3024 1.348 . S
C3026 C3028 1.353 . S
C3026 H3068 0.929 . S
C3027 C3024 1.356 . S
C3027 C3029 1.358 . S
C3027 H3069 0.930 . S
C3028 N3025 1.314 . S
C3028 C3026 1.353 . S
C3028 H3070 0.930 . S
C3029 N3025 1.279 . S
C3029 C3027 1.358 . S
C3029 H3071 0.930 . S
C3030 C3031 1.348 . S
C3030 C3032 1.356 . S
C3030 O3055 1.325 . S
C3031 C3030 1.348 . S
C3031 C3033 1.353 . S
C3031 H3072 0.929 . S
C3032 C3030 1.356 . S
C3032 C3034 1.358 . S
C3032 H3073 0.930 . S
C3033 C3031 1.353 . S
C3033 N3035 1.314 . S
C3033 H3074 0.930 . S
C3034 C3032 1.358 . S
C3034 N3035 1.279 . S
C3034 H3075 0.930 . S
N3035 C3033 1.314 . S
N3035 C3034 1.279 . S
C3036 C3038 1.353 . S
C3036 N3039 1.314 . S
C3036 H3042 0.930 . S
C3037 N3039 1.279 . S
C3037 C3040 1.358 . S
C3037 H3043 0.930 . S
C3038 C3036 1.353 . S
C3038 C3041 1.348 . S
C3038 H3076 0.929 . S
N3039 Li2994 1.990 . S
N3039 C3036 1.314 . S
N3039 C3037 1.279 . S
C3040 C3037 1.358 . S
C3040 C3041 1.356 . S
C3040 H3077 0.930 . S
C3041 C3038 1.348 . S
C3041 C3040 1.356 . S
H3042 C3036 0.930 . S
H3043 C3037 0.930 . S
C3044 N3045 1.314 . S
C3044 C3046 1.353 . S
C3044 H3050 0.930 . S
N3045 Li2995 1.990 . S
N3045 C3044 1.314 . S
N3045 C3048 1.279 . S
C3046 C3044 1.353 . S
C3046 C3049 1.348 . S
C3046 H3078 0.929 . S
C3047 C3048 1.358 . S
C3047 C3049 1.356 . S
C3047 H3079 0.930 . S
C3048 N3045 1.279 . S
C3048 C3047 1.358 . S
C3048 H3051 0.930 . S
C3049 C3046 1.348 . S
C3049 C3047 1.356 . S
H3050 C3044 0.930 . S
H3051 C3048 0.930 . S
O3052 Li2992 1.956 . S
O3052 Li2993 1.970 . S
O3052 Li2994 1.961 . S
O3052 C2996 1.325 . S
O3053 Li2992 1.970 . S
O3053 Li2993 1.956 . S
O3053 Li2995 1.961 . S
O3053 C3002 1.325 . S
O3054 Li2992 1.961 . S
O3054 Li2994 1.956 . S
O3054 Li2995 1.970 . S
O3054 C3024 1.325 . S
O3055 Li2993 1.961 . S
O3055 Li2994 1.970 . S
O3055 Li2995 1.956 . S
O3055 C3030 1.325 . S
H3056 C2998 0.929 . S
H3057 C2999 0.930 . S
H3058 C3000 0.930 . S
H3059 C3001 0.930 . S
H3060 C3003 0.930 . S
H3061 C3005 0.929 . S
H3062 C3006 0.930 . S
H3063 C3007 0.930 . S
H3064 C3010 0.930 . S
H3065 C3013 0.929 . S
H3066 C3018 0.929 . S
H3067 C3019 0.930 . S
H3068 C3026 0.929 . S
H3069 C3027 0.930 . S
H3070 C3028 0.930 . S
H3071 C3029 0.930 . S
H3072 C3031 0.929 . S
H3073 C3032 0.930 . S
H3074 C3033 0.930 . S
H3075 C3034 0.930 . S
H3076 C3038 0.929 . S
H3077 C3040 0.930 . S
H3078 C3046 0.929 . S
H3079 C3047 0.930 . S
Li3080 N3097 1.990 . S
Li3080 O3140 1.956 . S
Li3080 O3141 1.970 . S
Li3080 O3142 1.961 . S
Li3081 N3105 1.990 . S
Li3081 O3140 1.970 . S
Li3081 O3141 1.956 . S
Li3081 O3143 1.961 . S
Li3082 N3127 1.990 . S
Li3082 O3140 1.961 . S
Li3082 O3142 1.956 . S
Li3082 O3143 1.970 . S
Li3083 N3133 1.990 . S
Li3083 O3141 1.961 . S
Li3083 O3142 1.970 . S
Li3083 O3143 1.956 . S
C3084 C3086 1.348 . S
C3084 C3087 1.356 . S
C3084 O3140 1.325 . S
N3085 C3088 1.314 . S
N3085 C3089 1.279 . S
C3086 C3084 1.348 . S
C3086 C3088 1.353 . S
C3086 H3144 0.929 . S
C3087 C3084 1.356 . S
C3087 C3089 1.358 . S
C3087 H3145 0.930 . S
C3088 N3085 1.314 . S
C3088 C3086 1.353 . S
C3088 H3146 0.930 . S
C3089 N3085 1.279 . S
C3089 C3087 1.358 . S
C3089 H3147 0.930 . S
C3090 C3093 1.348 . S
C3090 C3094 1.356 . S
C3090 O3141 1.325 . S
C3091 N3092 1.279 . S
C3091 C3094 1.358 . S
C3091 H3148 0.930 . S
N3092 C3091 1.279 . S
N3092 C3095 1.314 . S
C3093 C3090 1.348 . S
C3093 C3095 1.353 . S
C3093 H3149 0.929 . S
C3094 C3090 1.356 . S
C3094 C3091 1.358 . S
C3094 H3150 0.930 . S
C3095 N3092 1.314 . S
C3095 C3093 1.353 . S
C3095 H3151 0.930 . S
C3096 N3097 1.314 . S
C3096 C3101 1.353 . S
C3096 H3102 0.930 . S
N3097 Li3080 1.990 . S
N3097 C3096 1.314 . S
N3097 C3099 1.279 . S
C3098 C3099 1.358 . S
C3098 C3100 1.356 . S
C3098 H3152 0.930 . S
C3099 N3097 1.279 . S
C3099 C3098 1.358 . S
C3099 H3103 0.930 . S
C3100 C3098 1.356 . S
C3100 C3101 1.348 . S
C3101 C3096 1.353 . S
C3101 C3100 1.348 . S
C3101 H3153 0.929 . S
H3102 C3096 0.930 . S
H3103 C3099 0.930 . S
C3104 N3105 1.314 . S
C3104 C3106 1.353 . S
C3104 H3110 0.930 . S
N3105 Li3081 1.990 . S
N3105 C3104 1.314 . S
N3105 C3108 1.279 . S
C3106 C3104 1.353 . S
C3106 C3109 1.348 . S
C3106 H3154 0.929 . S
C3107 C3108 1.358 . S
C3107 C3109 1.356 . S
C3107 H3155 0.930 . S
C3108 N3105 1.279 . S
C3108 C3107 1.358 . S
C3108 H3111 0.930 . S
C3109 C3106 1.348 . S
C3109 C3107 1.356 . S
H3110 C3104 0.930 . S
H3111 C3108 0.930 . S
C3112 C3114 1.348 . S
C3112 C3115 1.356 . S
C3112 O3142 1.325 . S
N3113 C3116 1.314 . S
N3113 C3117 1.279 . S
C3114 C3112 1.348 . S
C3114 C3116 1.353 . S
C3114 H3156 0.929 . S
C3115 C3112 1.356 . S
C3115 C3117 1.358 . S
C3115 H3157 0.930 . S
C3116 N3113 1.314 . S
C3116 C3114 1.353 . S
C3116 H3158 0.930 . S
C3117 N3113 1.279 . S
C3117 C3115 1.358 . S
C3117 H3159 0.930 . S
C3118 C3119 1.348 . S
C3118 C3120 1.356 . S
C3118 O3143 1.325 . S
C3119 C3118 1.348 . S
C3119 C3121 1.353 . S
C3119 H3160 0.929 . S
C3120 C3118 1.356 . S
C3120 C3122 1.358 1_565 S
C3120 H3161 0.930 . S
C3121 C3119 1.353 . S
C3121 N3123 1.314 1_565 S
C3121 H3162 0.930 . S
C3122 C3120 1.358 1_545 S
C3122 N3123 1.279 . S
C3122 H3163 0.930 . S
N3123 C3121 1.314 1_545 S
N3123 C3122 1.279 . S
C3124 C3126 1.353 . S
C3124 N3127 1.314 . S
C3124 H3130 0.930 . S
C3125 N3127 1.279 . S
C3125 C3128 1.358 . S
C3125 H3131 0.930 . S
C3126 C3124 1.353 . S
C3126 C3129 1.348 . S
C3126 H3164 0.929 . S
N3127 Li3082 1.990 . S
N3127 C3124 1.314 . S
N3127 C3125 1.279 . S
C3128 C3125 1.358 . S
C3128 C3129 1.356 . S
C3128 H3165 0.930 . S
C3129 C3126 1.348 . S
C3129 C3128 1.356 . S
H3130 C3124 0.930 . S
H3131 C3125 0.930 . S
C3132 N3133 1.314 . S
C3132 C3134 1.353 . S
C3132 H3138 0.930 . S
N3133 Li3083 1.990 . S
N3133 C3132 1.314 . S
N3133 C3136 1.279 . S
C3134 C3132 1.353 . S
C3134 C3137 1.348 . S
C3134 H3166 0.929 . S
C3135 C3136 1.358 . S
C3135 C3137 1.356 . S
C3135 H3167 0.930 1_565 S
C3136 N3133 1.279 . S
C3136 C3135 1.358 . S
C3136 H3139 0.930 . S
C3137 C3134 1.348 . S
C3137 C3135 1.356 . S
H3138 C3132 0.930 . S
H3139 C3136 0.930 . S
O3140 Li3080 1.956 . S
O3140 Li3081 1.970 . S
O3140 Li3082 1.961 . S
O3140 C3084 1.325 . S
O3141 Li3080 1.970 . S
O3141 Li3081 1.956 . S
O3141 Li3083 1.961 . S
O3141 C3090 1.325 . S
O3142 Li3080 1.961 . S
O3142 Li3082 1.956 . S
O3142 Li3083 1.970 . S
O3142 C3112 1.325 . S
O3143 Li3081 1.961 . S
O3143 Li3082 1.970 . S
O3143 Li3083 1.956 . S
O3143 C3118 1.325 . S
H3144 C3086 0.929 . S
H3145 C3087 0.930 . S
H3146 C3088 0.930 . S
H3147 C3089 0.930 . S
H3148 C3091 0.930 . S
H3149 C3093 0.929 . S
H3150 C3094 0.930 . S
H3151 C3095 0.930 . S
H3152 C3098 0.930 . S
H3153 C3101 0.929 . S
H3154 C3106 0.929 . S
H3155 C3107 0.930 . S
H3156 C3114 0.929 . S
H3157 C3115 0.930 . S
H3158 C3116 0.930 . S
H3159 C3117 0.930 . S
H3160 C3119 0.929 . S
H3161 C3120 0.930 . S
H3162 C3121 0.930 . S
H3163 C3122 0.930 . S
H3164 C3126 0.929 . S
H3165 C3128 0.930 . S
H3166 C3134 0.929 . S
H3167 C3135 0.930 1_545 S
C29 C1017 1.417 . S
C108 C841 1.417 . S
C909 C205 1.416 . S
C321 C636 1.417 . S
C724 C409 1.416 . S
C489 C548 1.417 . S
C2073 C1085 1.417 . S
C1164 C1897 1.417 . S
C1261 C1985 1.417 . S
C1692 C1377 1.417 . S
C1457 C1789 1.417 . S
C1604 C1545 1.417 . S
C2141 C3129 1.417 . S
C2953 C2220 1.417 . S
C3021 C2317 1.417 . S
C2748 C2433 1.417 . S
C2845 C2513 1.417 . S
C2660 C2601 1.417 . S
C57 C381 2.110 1_454 S
C460 C137 2.114 1_556 S
C233 C293 2.111 1_564 S
C577 C937 2.123 1_656 S
C665 C988 2.126 1_556 S
C753 C812 2.123 1_546 S
C1428 C1113 2.113 . S
C1516 C1193 2.114 . S
C1289 C1349 2.113 . S
C1956 C1633 2.126 . S
C2044 C1721 2.126 . S
C1817 C1868 2.125 . S
C2484 C2169 2.114 . S
C2249 C2572 2.114 . S
C2345 C2405 2.113 . S
C3049 C2689 2.125 . S
C2777 C3100 2.126 . S
C2924 C2873 2.126 . S
C2581 C49 0.907 . S
C145 C2396 0.907 . S
C225 C2493 0.907 . S
C284 C1201 0.907 . S
C1281 C372 0.907 . S
C1105 C469 0.908 . S
C557 C2081 0.906 . S
C645 C1905 0.907 . S
C733 C1993 0.907 . S
C2757 C849 0.906 . S
C2836 C900 0.906 . S
C1025 C2669 0.907 . S
C2257 C1340 0.907 1_455 S
C1437 C2337 0.907 . S
C2161 C1525 0.907 1_565 S
C3137 C1613 0.906 1_565 S
C1701 C2961 0.906 1_655 S
C1780 C3012 0.906 . S
C20 C2609 2.352 . S
C2425 C117 2.352 . S
C196 C2521 2.352 . S
C1173 C313 2.352 . S
C401 C1252 2.352 . S
C497 C1076 2.352 . S
C2053 C585 2.354 . S
C673 C1877 2.355 . S
C761 C1965 2.354 . S
C821 C2785 2.355 . S
C2865 C929 2.354 . S
C997 C2697 2.355 . S
C2229 C1369 2.352 1_456 S
C1465 C2308 2.352 1_554 S
C1553 C2132 2.353 1_544 S
C3109 C1641 2.355 1_566 S
C2933 C1729 2.355 1_456 S
C1809 C3041 2.355 1_554 S
