# Generated by pormake.
# Topology skb, (5)-cn, num edge types: 1
# Building blocks:
#     Node 0, Type 0, BuildingBlock: XOMCOT_clean_sbu_1, # of connection points: 5
#     Node 1, Type 0, BuildingBlock: XOMCOT_clean_sbu_1, # of connection points: 5
#     Node 2, Type 0, BuildingBlock: XOMCOT_clean_sbu_1, # of connection points: 5
#     Node 3, Type 0, BuildingBlock: XOMCOT_clean_sbu_1, # of connection points: 5
#     Node 4, Type 0, BuildingBlock: XOMCOT_clean_sbu_1, # of connection points: 5
#     Node 5, Type 0, BuildingBlock: XOMCOT_clean_sbu_1, # of connection points: 5
#     Node 6, Type 0, BuildingBlock: XOMCOT_clean_sbu_1, # of connection points: 5
#     Node 7, Type 0, BuildingBlock: XOMCOT_clean_sbu_1, # of connection points: 5
#     Node 8, Type 0, BuildingBlock: XOMCOT_clean_sbu_1, # of connection points: 5
#     Node 9, Type 0, BuildingBlock: XOMCOT_clean_sbu_1, # of connection points: 5
#     Node 10, Type 0, BuildingBlock: XOMCOT_clean_sbu_1, # of connection points: 5
#     Node 11, Type 0, BuildingBlock: XOMCOT_clean_sbu_1, # of connection points: 5
#     Node 12, Type 0, BuildingBlock: XOMCOT_clean_sbu_1, # of connection points: 5
#     Node 13, Type 0, BuildingBlock: XOMCOT_clean_sbu_1, # of connection points: 5
#     Node 14, Type 0, BuildingBlock: XOMCOT_clean_sbu_1, # of connection points: 5
#     Node 15, Type 0, BuildingBlock: XOMCOT_clean_sbu_1, # of connection points: 5
#     Edge 16, Type (0, 0), BuildingBlock: MIFKUJ_clean_linker_0, # of connection points: 2
#     Edge 17, Type (0, 0), BuildingBlock: MIFKUJ_clean_linker_0, # of connection points: 2
#     Edge 18, Type (0, 0), BuildingBlock: MIFKUJ_clean_linker_0, # of connection points: 2
#     Edge 19, Type (0, 0), BuildingBlock: MIFKUJ_clean_linker_0, # of connection points: 2
#     Edge 20, Type (0, 0), BuildingBlock: MIFKUJ_clean_linker_0, # of connection points: 2
#     Edge 21, Type (0, 0), BuildingBlock: MIFKUJ_clean_linker_0, # of connection points: 2
#     Edge 22, Type (0, 0), BuildingBlock: MIFKUJ_clean_linker_0, # of connection points: 2
#     Edge 23, Type (0, 0), BuildingBlock: MIFKUJ_clean_linker_0, # of connection points: 2
#     Edge 24, Type (0, 0), BuildingBlock: MIFKUJ_clean_linker_0, # of connection points: 2
#     Edge 25, Type (0, 0), BuildingBlock: MIFKUJ_clean_linker_0, # of connection points: 2
#     Edge 26, Type (0, 0), BuildingBlock: MIFKUJ_clean_linker_0, # of connection points: 2
#     Edge 27, Type (0, 0), BuildingBlock: MIFKUJ_clean_linker_0, # of connection points: 2
#     Edge 28, Type (0, 0), BuildingBlock: MIFKUJ_clean_linker_0, # of connection points: 2
#     Edge 29, Type (0, 0), BuildingBlock: MIFKUJ_clean_linker_0, # of connection points: 2
#     Edge 30, Type (0, 0), BuildingBlock: MIFKUJ_clean_linker_0, # of connection points: 2
#     Edge 31, Type (0, 0), BuildingBlock: MIFKUJ_clean_linker_0, # of connection points: 2
#     Edge 32, Type (0, 0), BuildingBlock: MIFKUJ_clean_linker_0, # of connection points: 2
#     Edge 33, Type (0, 0), BuildingBlock: MIFKUJ_clean_linker_0, # of connection points: 2
#     Edge 34, Type (0, 0), BuildingBlock: MIFKUJ_clean_linker_0, # of connection points: 2
#     Edge 35, Type (0, 0), BuildingBlock: MIFKUJ_clean_linker_0, # of connection points: 2
#     Edge 36, Type (0, 0), BuildingBlock: MIFKUJ_clean_linker_0, # of connection points: 2
#     Edge 37, Type (0, 0), BuildingBlock: MIFKUJ_clean_linker_0, # of connection points: 2
#     Edge 38, Type (0, 0), BuildingBlock: MIFKUJ_clean_linker_0, # of connection points: 2
#     Edge 39, Type (0, 0), BuildingBlock: MIFKUJ_clean_linker_0, # of connection points: 2
#     Edge 40, Type (0, 0), BuildingBlock: MIFKUJ_clean_linker_0, # of connection points: 2
#     Edge 41, Type (0, 0), BuildingBlock: MIFKUJ_clean_linker_0, # of connection points: 2
#     Edge 42, Type (0, 0), BuildingBlock: MIFKUJ_clean_linker_0, # of connection points: 2
#     Edge 43, Type (0, 0), BuildingBlock: MIFKUJ_clean_linker_0, # of connection points: 2
#     Edge 44, Type (0, 0), BuildingBlock: MIFKUJ_clean_linker_0, # of connection points: 2
#     Edge 45, Type (0, 0), BuildingBlock: MIFKUJ_clean_linker_0, # of connection points: 2
#     Edge 46, Type (0, 0), BuildingBlock: MIFKUJ_clean_linker_0, # of connection points: 2
#     Edge 47, Type (0, 0), BuildingBlock: MIFKUJ_clean_linker_0, # of connection points: 2
#     Edge 48, Type (0, 0), BuildingBlock: MIFKUJ_clean_linker_0, # of connection points: 2
#     Edge 49, Type (0, 0), BuildingBlock: MIFKUJ_clean_linker_0, # of connection points: 2
#     Edge 50, Type (0, 0), BuildingBlock: MIFKUJ_clean_linker_0, # of connection points: 2
#     Edge 51, Type (0, 0), BuildingBlock: MIFKUJ_clean_linker_0, # of connection points: 2
#     Edge 52, Type (0, 0), BuildingBlock: MIFKUJ_clean_linker_0, # of connection points: 2
#     Edge 53, Type (0, 0), BuildingBlock: MIFKUJ_clean_linker_0, # of connection points: 2
#     Edge 54, Type (0, 0), BuildingBlock: MIFKUJ_clean_linker_0, # of connection points: 2
#     Edge 55, Type (0, 0), BuildingBlock: MIFKUJ_clean_linker_0, # of connection points: 2
# Relax obj value: 0.063
# Max RMSD: 0.112
# Mean RMSD: 0.112
data_MOF--net-skb--node1-XOMCOT_clean_sbu_1--edge1-MIFKUJ_clean_linker_0
_symmetry_space_group_name_H-M    P1
_symmetry_Int_Tables_number       1
_symmetry_cell_setting            triclinic
loop_
_symmetry_equiv_pos_as_xyz
'x, y, z'
_cell_length_a     61.466559
_cell_length_b     35.960162
_cell_length_c     86.598664
_cell_angle_alpha  90.09214
_cell_angle_beta   89.891733
_cell_angle_gamma 90.069519
loop_
_atom_site_label
_atom_site_type_symbol
_atom_site_fract_x
_atom_site_fract_y
_atom_site_fract_z
_atom_type_partial_charge
C0 C 0.18232 0.08662 0.11832 0.0
C1 C 0.18329 0.09112 0.1026 0.0
N2 N 0.19249 0.0606 0.0963 0.0
N3 N 0.19085 0.05345 0.12214 0.0
C4 C 0.19692 0.03807 0.10847 0.0
H5 H 0.17541 0.10607 0.1265 0.0
Co6 Co 0.19136 0.03733 0.14275 0.0
C7 C 0.19764 0.9554 0.13946 0.0
O8 O 0.17925 0.95056 0.14688 0.0
N9 N 0.19196 0.02153 0.16428 0.0
C10 C 0.1824 0.99753 0.18713 0.0
C11 C 0.17671 1.00148 0.17194 0.0
C12 C 0.20698 0.02902 0.17545 0.0
N13 N 0.2014 0.01516 0.1895 0.0
O14 O 0.21938 0.06059 0.14479 0.0
H15 H 0.16199 0.99021 0.16704 0.0
H16 H 0.22159 0.04504 0.1735 0.0
O17 O 0.2045 0.98849 0.13666 0.0
C18 C 0.21525 0.09298 0.15021 0.0
O19 O 0.19537 0.10017 0.15494 0.0
N20 N 0.16237 0.02164 0.14031 0.0
C21 C 0.11756 0.02084 0.13469 0.0
C22 C 0.13173 0.99843 0.12595 0.0
C23 C 0.15421 0.99983 0.12872 0.0
C24 C 0.14881 0.04396 0.14864 0.0
C25 C 0.12643 0.0433 0.14633 0.0
H26 H 0.16507 0.98489 0.1211 0.0
H27 H 0.15553 0.06326 0.15695 0.0
H28 H 0.20429 0.01087 0.10745 0.0
H29 H 0.17704 0.11473 0.09628 0.0
H30 H 0.17311 0.98256 0.19573 0.0
H31 H 0.12564 0.98148 0.11655 0.0
H32 H 0.11623 0.06102 0.1534 0.0
C33 C 0.8189 0.97801 0.11713 0.0
C34 C 0.81928 0.97642 0.1013 0.0
N35 N 0.81148 0.00869 0.09576 0.0
N36 N 0.81107 0.01126 0.12169 0.0
C37 C 0.80648 0.02943 0.10836 0.0
H38 H 0.82467 0.95669 0.12491 0.0
Co39 Co 0.81115 0.02427 0.14263 0.0
C40 C 0.80421 0.10588 0.14346 0.0
O41 O 0.82073 0.10762 0.15299 0.0
N42 N 0.8114 0.03628 0.16457 0.0
C43 C 0.82283 0.05056 0.18835 0.0
C44 C 0.82853 0.04819 0.17309 0.0
C45 C 0.79529 0.03209 0.17529 0.0
N46 N 0.80197 0.04004 0.18987 0.0
O47 O 0.78296 1.00152 0.14455 0.0
H48 H 0.84438 0.05561 0.16871 0.0
H49 H 0.7791 0.02232 0.1726 0.0
O50 O 0.7984 0.07417 0.13798 0.0
C51 C 0.78622 0.96886 0.14989 0.0
O52 O 0.80582 0.96019 0.1547 0.0
N53 N 0.84005 0.0399 0.14007 0.0
C54 C 0.88464 0.04212 0.13379 0.0
C55 C 0.87066 0.06949 0.12784 0.0
C56 C 0.84821 0.06734 0.13079 0.0
C57 C 0.85342 0.01284 0.1456 0.0
C58 C 0.87569 0.01379 0.14288 0.0
H59 H 0.83744 0.08652 0.12504 0.0
H60 H 0.84657 0.9899 0.15204 0.0
H61 H 0.80062 0.05777 0.10785 0.0
H62 H 0.82518 0.9535 0.09434 0.0
H63 H 0.83337 0.05964 0.19762 0.0
H64 H 0.87687 0.0912 0.12037 0.0
H65 H 0.8858 0.99206 0.1477 0.0
C66 C 0.17832 0.98856 0.9091 0.0
C67 C 0.17897 0.98212 0.92474 0.0
N68 N 0.19018 0.00991 0.93153 0.0
N69 N 0.18906 0.0203 0.90589 0.0
C70 C 0.19622 0.03267 0.9198 0.0
H71 H 0.17028 0.97138 0.90058 0.0
Co72 Co 0.1924 0.03915 0.8857 0.0
C73 C 0.19668 0.11967 0.89658 0.0
O74 O 0.17579 0.12579 0.89508 0.0
N75 N 0.19659 0.05804 0.86513 0.0
C76 C 0.19487 0.09571 0.84472 0.0
C77 C 0.18999 0.09176 0.8601 0.0
C78 C 0.20573 0.0422 0.85238 0.0
N79 N 0.20474 0.06451 0.83979 0.0
O80 O 0.22074 0.01673 0.8853 0.0
H81 H 0.18143 0.11203 0.86696 0.0
H82 H 0.21255 0.01454 0.85213 0.0
O83 O 0.20457 0.08734 0.89361 0.0
C84 C 0.21698 0.98379 0.88037 0.0
O85 O 0.19731 0.9757 0.87548 0.0
N86 N 0.16257 0.05468 0.88583 0.0
C87 C 0.11677 0.05377 0.88629 0.0
C88 C 0.12868 0.06423 0.89942 0.0
C89 C 0.15146 0.06419 0.899 0.0
C90 C 0.15108 0.04449 0.873 0.0
C91 C 0.1284 0.04504 0.87283 0.0
H92 H 0.1601 0.07033 0.90955 0.0
H93 H 0.15929 0.03343 0.86297 0.0
H94 H 0.20565 0.05781 0.92132 0.0
H95 H 0.17127 0.95915 0.9307 0.0
H96 H 0.1914 0.11986 0.8377 0.0
H97 H 0.12061 0.07038 0.91024 0.0
H98 H 0.12014 0.03701 0.86231 0.0
C99 C 0.83111 0.07557 0.90915 0.0
C100 C 0.83201 0.08061 0.92487 0.0
N101 N 0.81713 0.05821 0.93152 0.0
N102 N 0.81593 0.04971 0.90579 0.0
C103 C 0.80738 0.04005 0.91968 0.0
H104 H 0.84152 0.08881 0.9007 0.0
Co105 Co 0.81119 0.03149 0.8856 0.0
C106 C 0.80038 0.95258 0.89583 0.0
O107 O 0.82026 0.9417 0.89282 0.0
N108 N 0.8057 0.01338 0.86499 0.0
C109 C 0.80318 0.97518 0.8447 0.0
C110 C 0.81034 0.97894 0.85961 0.0
C111 C 0.79583 0.03015 0.85276 0.0
N112 N 0.794 0.00737 0.84035 0.0
O113 O 0.78527 0.06192 0.88475 0.0
H114 H 0.81889 0.95774 0.86589 0.0
H115 H 0.7896 0.05822 0.85294 0.0
O116 O 0.79481 0.98673 0.8937 0.0
C117 C 0.79331 0.09273 0.8799 0.0
O118 O 0.81396 0.09302 0.87587 0.0
N119 N 0.83923 0.00839 0.88609 0.0
C120 C 0.88448 0.99948 0.88775 0.0
C121 C 0.87124 0.99088 0.90043 0.0
C122 C 0.84871 0.99572 0.8994 0.0
C123 C 0.8521 0.01661 0.87365 0.0
C124 C 0.87459 0.01146 0.87411 0.0
H125 H 0.83902 0.99087 0.90963 0.0
H126 H 0.84527 0.02999 0.86361 0.0
H127 H 0.79507 0.01881 0.92118 0.0
H128 H 0.84305 0.09889 0.93098 0.0
H129 H 0.80488 0.9507 0.8375 0.0
H130 H 0.87831 0.98196 0.91125 0.0
H131 H 0.88432 0.01959 0.86422 0.0
C132 C 0.18375 0.59309 0.61809 0.0
C133 C 0.18506 0.59752 0.60241 0.0
N134 N 0.1932 0.56612 0.59613 0.0
N135 N 0.19101 0.55909 0.62196 0.0
C136 C 0.19659 0.54303 0.60831 0.0
H137 H 0.17751 0.61328 0.62624 0.0
Co138 Co 0.19031 0.54455 0.64273 0.0
C139 C 0.19763 0.46327 0.64282 0.0
O140 O 0.18063 0.46098 0.65195 0.0
N141 N 0.18945 0.53116 0.66451 0.0
C142 C 0.17743 0.51695 0.68818 0.0
C143 C 0.17204 0.51963 0.67288 0.0
C144 C 0.20544 0.53445 0.67534 0.0
N145 N 0.1984 0.52659 0.68983 0.0
O146 O 0.2182 0.56797 0.64538 0.0
H147 H 0.15616 0.51296 0.66838 0.0
H148 H 0.2218 0.54375 0.67281 0.0
O149 O 0.20367 0.49523 0.63775 0.0
C150 C 0.21446 0.60014 0.65112 0.0
O151 O 0.19464 0.6079 0.65579 0.0
N152 N 0.16165 0.52833 0.6395 0.0
C153 C 0.11734 0.52501 0.63246 0.0
C154 C 0.13189 0.49867 0.62633 0.0
C155 C 0.15419 0.50142 0.62967 0.0
C156 C 0.14776 0.55461 0.64511 0.0
C157 C 0.1256 0.55304 0.64204 0.0
H158 H 0.16541 0.48311 0.6238 0.0
H159 H 0.15409 0.57732 0.65197 0.0
H160 H 0.20291 0.51505 0.60733 0.0
H161 H 0.17977 0.62183 0.5961 0.0
H162 H 0.16664 0.5085 0.69743 0.0
H163 H 0.12624 0.47729 0.61848 0.0
H164 H 0.11505 0.57399 0.64703 0.0
C165 C 0.82206 0.48589 0.61806 0.0
C166 C 0.82112 0.4812 0.60235 0.0
N167 N 0.81058 0.51044 0.59614 0.0
N168 N 0.81218 0.51795 0.62196 0.0
C169 C 0.80532 0.53243 0.60836 0.0
H170 H 0.82986 0.46741 0.62618 0.0
Co171 Co 0.8111 0.5341 0.64257 0.0
C172 C 0.80492 0.61614 0.63873 0.0
O173 O 0.82342 0.62154 0.64588 0.0
N174 N 0.80993 0.54984 0.6641 0.0
C175 C 0.81888 0.57417 0.68702 0.0
C176 C 0.82444 0.57146 0.67174 0.0
C177 C 0.79546 0.54019 0.67537 0.0
N178 N 0.80071 0.5542 0.68945 0.0
O179 O 0.78307 0.51077 0.64428 0.0
H180 H 0.83878 0.58409 0.6668 0.0
H181 H 0.78157 0.52235 0.6735 0.0
O182 O 0.79803 0.58286 0.63636 0.0
C183 C 0.78742 0.4781 0.64924 0.0
O184 O 0.80737 0.47088 0.65373 0.0
N185 N 0.84014 0.54993 0.64048 0.0
C186 C 0.88497 0.54931 0.63496 0.0
C187 C 0.8711 0.5714 0.62593 0.0
C188 C 0.84858 0.57069 0.62867 0.0
C189 C 0.85349 0.52831 0.64924 0.0
C190 C 0.87587 0.52825 0.64693 0.0
H191 H 0.8379 0.58506 0.62078 0.0
H192 H 0.84657 0.50973 0.65774 0.0
H193 H 0.79677 0.55861 0.60742 0.0
H194 H 0.82832 0.45841 0.59597 0.0
H195 H 0.82774 0.58968 0.69569 0.0
H196 H 0.87742 0.58728 0.6163 0.0
H197 H 0.8859 0.51076 0.65418 0.0
C198 C 0.18373 0.47884 0.40997 0.0
C199 C 0.18533 0.47545 0.42567 0.0
N200 N 0.19268 0.50784 0.43157 0.0
N201 N 0.18994 0.5132 0.40569 0.0
C202 C 0.19524 0.53052 0.41912 0.0
H203 H 0.17812 0.45757 0.40208 0.0
Co204 Co 0.18893 0.52545 0.38468 0.0
C205 C 0.19955 0.60536 0.38136 0.0
O206 O 0.18439 0.60679 0.37073 0.0
N207 N 0.18771 0.5358 0.36273 0.0
C208 C 0.17531 0.54263 0.33866 0.0
C209 C 0.16968 0.54035 0.35396 0.0
C210 C 0.20423 0.53606 0.35219 0.0
N211 N 0.19703 0.53962 0.33746 0.0
O212 O 0.21655 0.50121 0.38208 0.0
H213 H 0.15318 0.54187 0.35811 0.0
H214 H 0.22116 0.53213 0.35516 0.0
O215 O 0.20292 0.57475 0.3886 0.0
C216 C 0.21293 0.46915 0.37623 0.0
O217 O 0.19316 0.46117 0.37154 0.0
N218 N 0.16058 0.54313 0.38785 0.0
C219 C 0.11622 0.54979 0.39449 0.0
C220 C 0.13073 0.57896 0.39793 0.0
C221 C 0.15307 0.57475 0.39482 0.0
C222 C 0.14674 0.5144 0.38488 0.0
C223 C 0.12459 0.51734 0.38781 0.0
H224 H 0.16418 0.59617 0.39857 0.0
H225 H 0.15309 0.48882 0.38009 0.0
H226 H 0.20088 0.559 0.41975 0.0
H227 H 0.18086 0.45103 0.43224 0.0
H228 H 0.16417 0.54601 0.3291 0.0
H229 H 0.125 0.60411 0.40349 0.0
H230 H 0.11412 0.49417 0.38485 0.0
C231 C 0.81919 0.59037 0.40943 0.0
C232 C 0.81831 0.59558 0.42514 0.0
N233 N 0.80923 0.56525 0.43163 0.0
N234 N 0.81065 0.55695 0.40586 0.0
C235 C 0.80472 0.54215 0.41965 0.0
H236 H 0.8259 0.60959 0.40109 0.0
Co237 Co 0.8092 0.53984 0.3854 0.0
C238 C 0.8031 0.45786 0.39016 0.0
O239 O 0.82187 0.45231 0.38334 0.0
N240 N 0.80745 0.5228 0.36409 0.0
C241 C 0.81445 0.49406 0.34166 0.0
C242 C 0.8213 0.49967 0.35654 0.0
C243 C 0.79228 0.53091 0.35312 0.0
N244 N 0.79624 0.51383 0.33946 0.0
O245 O 0.78118 0.56347 0.38383 0.0
H246 H 0.83588 0.48763 0.3613 0.0
H247 H 0.77834 0.5486 0.35502 0.0
O248 O 0.79607 0.49122 0.39211 0.0
C249 C 0.78549 0.59561 0.37822 0.0
O250 O 0.80528 0.60202 0.3731 0.0
N251 N 0.83834 0.52412 0.38721 0.0
C252 C 0.8834 0.52561 0.39197 0.0
C253 C 0.86976 0.50453 0.40164 0.0
C254 C 0.84716 0.50474 0.39925 0.0
C255 C 0.85145 0.54471 0.3778 0.0
C256 C 0.87392 0.54511 0.37971 0.0
H257 H 0.83672 0.49106 0.40755 0.0
H258 H 0.84431 0.5623 0.36907 0.0
H259 H 0.79728 0.51504 0.4209 0.0
H260 H 0.82444 0.61957 0.43132 0.0
H261 H 0.82256 0.47737 0.33297 0.0
H262 H 0.87633 0.48981 0.41148 0.0
H263 H 0.88371 0.56169 0.37191 0.0
C264 C 0.68974 0.10226 0.61794 0.0
C265 C 0.68985 0.10571 0.60217 0.0
N266 N 0.69208 0.07164 0.59581 0.0
N267 N 0.69215 0.06627 0.62177 0.0
C268 C 0.6936 0.04814 0.60804 0.0
H269 H 0.68775 0.12469 0.62614 0.0
Co270 Co 0.69137 0.0513 0.64251 0.0
C271 C 0.69843 0.96985 0.64219 0.0
O272 O 0.6815 0.96749 0.65137 0.0
N273 N 0.69065 0.03706 0.66418 0.0
C274 C 0.67959 0.01893 0.68763 0.0
C275 C 0.67345 0.02485 0.67261 0.0
C276 C 0.70711 0.03833 0.67471 0.0
N277 N 0.70073 0.02763 0.68901 0.0
O278 O 0.71945 0.07431 0.6452 0.0
H279 H 0.6573 0.01951 0.6683 0.0
H280 H 0.72357 0.04679 0.67202 0.0
O281 O 0.70445 1.00192 0.63721 0.0
C282 C 0.71621 0.10568 0.65182 0.0
O283 O 0.69671 0.1129 0.65729 0.0
N284 N 0.66257 0.03569 0.63936 0.0
C285 C 0.61803 0.03364 0.63282 0.0
C286 C 0.63222 0.00691 0.62653 0.0
C287 C 0.6546 0.00887 0.62969 0.0
C288 C 0.64906 0.06227 0.64516 0.0
C289 C 0.6268 0.06129 0.64238 0.0
H290 H 0.66546 0.98997 0.62381 0.0
H291 H 0.65576 0.08473 0.65199 0.0
H292 H 0.69509 0.01826 0.60706 0.0
H293 H 0.6884 0.13164 0.59595 0.0
H294 H 0.66914 0.00959 0.69693 0.0
H295 H 0.62625 0.98572 0.61871 0.0
H296 H 0.61661 0.08241 0.6476 0.0
C297 C 0.31625 0.97641 0.61874 0.0
C298 C 0.31609 0.97213 0.603 0.0
N299 N 0.3114 0.00517 0.59649 0.0
N300 N 0.31157 0.01192 0.62236 0.0
C301 C 0.30858 0.02893 0.60854 0.0
H302 H 0.31994 0.95499 0.62708 0.0
Co303 Co 0.31215 0.02772 0.64298 0.0
C304 C 0.30383 0.10847 0.64252 0.0
O305 O 0.32062 0.1117 0.65177 0.0
N306 N 0.31269 0.04264 0.66455 0.0
C307 C 0.32385 0.05578 0.68852 0.0
C308 C 0.33004 0.05223 0.67336 0.0
C309 C 0.29594 0.04178 0.67489 0.0
N310 N 0.30242 0.04892 0.68954 0.0
O311 O 0.28456 1.00317 0.64603 0.0
H312 H 0.34644 0.05646 0.6693 0.0
H313 H 0.27941 0.03434 0.67193 0.0
O314 O 0.29823 0.07612 0.6376 0.0
C315 C 0.28906 0.97239 0.65272 0.0
O316 O 0.30907 0.96699 0.65752 0.0
N317 N 0.34065 0.04469 0.63957 0.0
C318 C 0.38503 0.04761 0.63247 0.0
C319 C 0.37058 0.07416 0.62643 0.0
C320 C 0.34824 0.07168 0.62983 0.0
C321 C 0.35446 0.01831 0.6451 0.0
C322 C 0.37662 0.01976 0.64207 0.0
H323 H 0.33711 0.09021 0.62405 0.0
H324 H 0.34808 0.9956 0.65191 0.0
H325 H 0.30514 0.05828 0.60731 0.0
H326 H 0.31922 0.94647 0.59684 0.0
H327 H 0.33439 0.06251 0.69813 0.0
H328 H 0.37631 0.09547 0.61858 0.0
H329 H 0.38704 0.99873 0.64707 0.0
C330 C 0.68374 0.97293 0.41008 0.0
C331 C 0.68539 0.96962 0.42583 0.0
N332 N 0.69095 1.00296 0.43175 0.0
N333 N 0.68835 0.00813 0.40591 0.0
C334 C 0.69259 0.02597 0.4194 0.0
H335 H 0.67919 0.95106 0.40214 0.0
Co336 Co 0.68737 0.02287 0.38516 0.0
C337 C 0.69373 0.10494 0.3862 0.0
O338 O 0.6759 0.10773 0.37799 0.0
N339 N 0.6864 0.037 0.36342 0.0
C340 C 0.67468 0.05606 0.34031 0.0
C341 C 0.66961 0.05255 0.35564 0.0
C342 C 0.70167 0.03179 0.35216 0.0
N343 N 0.6948 0.04259 0.33796 0.0
O344 O 0.71548 1.00008 0.38239 0.0
H345 H 0.65441 0.06161 0.36062 0.0
H346 H 0.71743 0.01949 0.3542 0.0
O347 O 0.70041 0.07257 0.39031 0.0
C348 C 0.71187 0.96776 0.3767 0.0
O349 O 0.69214 0.95987 0.3719 0.0
N350 N 0.65849 0.03801 0.38845 0.0
C351 C 0.61393 0.03894 0.39524 0.0
C352 C 0.62828 0.06405 0.40247 0.0
C353 C 0.65065 0.06268 0.39912 0.0
C354 C 0.64483 0.01295 0.38171 0.0
C355 C 0.62257 0.01362 0.38455 0.0
H356 H 0.66166 0.08013 0.40561 0.0
H357 H 0.6514 0.99187 0.37411 0.0
H358 H 0.69675 0.05516 0.42017 0.0
H359 H 0.68216 0.9447 0.43245 0.0
H360 H 0.66422 0.068 0.3316 0.0
H361 H 0.62246 0.08335 0.41115 0.0
H362 H 0.61231 0.99386 0.37855 0.0
C363 C 0.30456 0.09404 0.41056 0.0
C364 C 0.3022 0.0962 0.42628 0.0
N365 N 0.30194 0.06145 0.43205 0.0
N366 N 0.30553 0.05808 0.4062 0.0
C367 C 0.30416 0.03869 0.41961 0.0
H368 H 0.30587 0.11741 0.40278 0.0
Co369 Co 0.30938 0.04531 0.38538 0.0
C370 C 0.29909 0.96502 0.38161 0.0
O371 O 0.31459 0.96336 0.37119 0.0
N372 N 0.31343 0.03423 0.36373 0.0
C373 C 0.32843 0.02628 0.34047 0.0
C374 C 0.33242 0.0301 0.35598 0.0
C375 C 0.29811 0.03245 0.35241 0.0
N376 N 0.30683 0.02821 0.3381 0.0
O377 O 0.28179 0.06837 0.38096 0.0
H378 H 0.34842 0.02995 0.36104 0.0
H379 H 0.28088 0.0356 0.35456 0.0
O380 O 0.2955 0.99566 0.38882 0.0
C381 C 0.28525 0.09971 0.37444 0.0
O382 O 0.30525 0.10828 0.37039 0.0
N383 N 0.33738 0.02874 0.39023 0.0
C384 C 0.38127 0.02324 0.39831 0.0
C385 C 0.36704 0.99295 0.40045 0.0
C386 C 0.34492 0.99647 0.39657 0.0
C387 C 0.35086 0.05853 0.38854 0.0
C388 C 0.37279 0.05625 0.39222 0.0
H389 H 0.334 0.97379 0.3991 0.0
H390 H 0.34442 0.08434 0.38408 0.0
H391 H 0.30482 0.00866 0.42026 0.0
H392 H 0.30138 0.12156 0.43302 0.0
H393 H 0.3407 0.02254 0.33163 0.0
H394 H 0.3728 0.96722 0.40546 0.0
H395 H 0.38305 0.08026 0.39017 0.0
C396 C 0.68713 0.59489 0.11751 0.0
C397 C 0.68863 0.59972 0.1018 0.0
N398 N 0.69454 0.56715 0.09535 0.0
N399 N 0.69225 0.55952 0.12109 0.0
C400 C 0.69663 0.54315 0.1073 0.0
H401 H 0.68248 0.6159 0.12583 0.0
Co402 Co 0.69247 0.5423 0.14156 0.0
C403 C 0.69832 0.46031 0.13714 0.0
O404 O 0.67952 0.4549 0.14394 0.0
N405 N 0.69298 0.52515 0.16288 0.0
C406 C 0.68434 0.49717 0.18517 0.0
C407 C 0.67819 0.50325 0.17017 0.0
C408 C 0.70798 0.53206 0.17413 0.0
N409 N 0.70301 0.51546 0.1877 0.0
O410 O 0.72066 0.56498 0.14382 0.0
H411 H 0.6635 0.49221 0.16512 0.0
H412 H 0.7225 0.54854 0.17251 0.0
O413 O 0.70541 0.49358 0.13508 0.0
C414 C 0.71684 0.59691 0.14979 0.0
O415 O 0.69715 0.60378 0.15499 0.0
N416 N 0.66334 0.52729 0.139 0.0
C417 C 0.6184 0.52775 0.13378 0.0
C418 C 0.63229 0.50587 0.12459 0.0
C419 C 0.65483 0.50663 0.12718 0.0
C420 C 0.65003 0.54897 0.14783 0.0
C421 C 0.62762 0.54893 0.14569 0.0
H422 H 0.66544 0.49198 0.11929 0.0
H423 H 0.657 0.56735 0.15639 0.0
H424 H 0.70129 0.5143 0.10602 0.0
H425 H 0.68513 0.62507 0.09556 0.0
H426 H 0.67546 0.48122 0.19371 0.0
H427 H 0.62594 0.48987 0.11499 0.0
H428 H 0.61764 0.5662 0.15311 0.0
C429 C 0.31279 0.47095 0.11762 0.0
C430 C 0.31223 0.46841 0.10182 0.0
N431 N 0.3098 0.50283 0.09592 0.0
N432 N 0.31056 0.50674 0.1219 0.0
C433 C 0.3087 0.52568 0.10841 0.0
H434 H 0.31507 0.44809 0.12554 0.0
Co435 Co 0.31247 0.52039 0.14276 0.0
C436 C 0.304 0.60122 0.1444 0.0
O437 O 0.32033 0.60299 0.15413 0.0
N438 N 0.31441 0.53303 0.16448 0.0
C439 C 0.32696 0.54495 0.18817 0.0
C440 C 0.33251 0.53908 0.17302 0.0
C441 C 0.29798 0.53558 0.17502 0.0
N442 N 0.3052 0.54264 0.18955 0.0
O443 O 0.28475 0.49648 0.14619 0.0
H444 H 0.34899 0.53946 0.16878 0.0
H445 H 0.28099 0.53206 0.17213 0.0
O446 O 0.29875 0.56967 0.13848 0.0
C447 C 0.28834 0.46527 0.1528 0.0
O448 O 0.30808 0.45824 0.15778 0.0
N449 N 0.34089 0.53714 0.13884 0.0
C450 C 0.38517 0.54224 0.13164 0.0
C451 C 0.37066 0.57057 0.12728 0.0
C452 C 0.34838 0.56705 0.13067 0.0
C453 C 0.35466 0.50887 0.14251 0.0
C454 C 0.3768 0.51115 0.13936 0.0
H455 H 0.33728 0.58756 0.12618 0.0
H456 H 0.34829 0.48427 0.14809 0.0
H457 H 0.30731 0.55563 0.10775 0.0
H458 H 0.31352 0.44296 0.09519 0.0
H459 H 0.33827 0.54947 0.19755 0.0
H460 H 0.37633 0.59448 0.12084 0.0
H461 H 0.38725 0.4886 0.14299 0.0
C462 C 0.67472 0.47619 0.91003 0.0
C463 C 0.67537 0.47364 0.92579 0.0
N464 N 0.68419 0.5051 0.93157 0.0
N465 N 0.68337 0.50878 0.90554 0.0
C466 C 0.689 0.52603 0.91892 0.0
H467 H 0.66791 0.45571 0.90228 0.0
Co468 Co 0.68371 0.52093 0.88448 0.0
C469 C 0.69253 0.60176 0.88294 0.0
O470 O 0.67614 0.60324 0.8733 0.0
N471 N 0.68383 0.53178 0.86246 0.0
C472 C 0.67301 0.54543 0.83849 0.0
C473 C 0.66701 0.54387 0.8537 0.0
C474 C 0.70008 0.52661 0.85192 0.0
N475 N 0.69377 0.53427 0.83725 0.0
O476 O 0.71123 0.49529 0.88264 0.0
H477 H 0.65123 0.55229 0.85786 0.0
H478 H 0.71611 0.51646 0.85482 0.0
O479 O 0.69782 0.57024 0.88884 0.0
C480 C 0.70589 0.46218 0.87867 0.0
O481 O 0.68565 0.45602 0.87455 0.0
N482 N 0.65533 0.5392 0.88701 0.0
C483 C 0.61106 0.5453 0.89411 0.0
C484 C 0.62621 0.5708 0.90016 0.0
C485 C 0.64842 0.56684 0.8967 0.0
C486 C 0.64086 0.51382 0.88142 0.0
C487 C 0.61873 0.51696 0.88441 0.0
H488 H 0.66001 0.58457 0.9025 0.0
H489 H 0.64668 0.49053 0.87468 0.0
H490 H 0.69594 0.55367 0.91934 0.0
H491 H 0.66962 0.45005 0.93235 0.0
H492 H 0.66282 0.55462 0.82906 0.0
H493 H 0.62112 0.5924 0.9081 0.0
H494 H 0.6078 0.49672 0.87935 0.0
C495 C 0.30242 0.60705 0.91091 0.0
C496 C 0.30048 0.60909 0.92667 0.0
N497 N 0.29985 0.57426 0.93239 0.0
N498 N 0.30283 0.57114 0.90648 0.0
C499 C 0.30142 0.55164 0.91986 0.0
H500 H 0.30393 0.63042 0.90314 0.0
Co501 Co 0.30656 0.55824 0.88566 0.0
C502 C 0.29984 0.47714 0.88292 0.0
O503 O 0.31657 0.47734 0.87346 0.0
N504 N 0.31035 0.54661 0.86401 0.0
C505 C 0.32448 0.53889 0.84047 0.0
C506 C 0.32904 0.5451 0.85576 0.0
C507 C 0.2946 0.54104 0.8532 0.0
N508 N 0.30278 0.53643 0.83874 0.0
O509 O 0.27858 0.58012 0.88136 0.0
H510 H 0.34523 0.54859 0.86025 0.0
H511 H 0.27741 0.54081 0.85588 0.0
O512 O 0.29375 0.50781 0.88923 0.0
C513 C 0.28175 0.61138 0.87467 0.0
O514 O 0.30159 0.61983 0.8702 0.0
N515 N 0.33497 0.5433 0.89043 0.0
C516 C 0.37884 0.54036 0.89878 0.0
C517 C 0.36472 0.51069 0.90224 0.0
C518 C 0.34261 0.51305 0.89827 0.0
C519 C 0.34826 0.57291 0.88774 0.0
C520 C 0.37022 0.57174 0.89144 0.0
H521 H 0.33175 0.49128 0.90202 0.0
H522 H 0.34165 0.59765 0.88244 0.0
H523 H 0.3017 0.52158 0.92041 0.0
H524 H 0.30029 0.63441 0.93345 0.0
H525 H 0.33638 0.53766 0.83126 0.0
H526 H 0.37053 0.48647 0.90839 0.0
H527 H 0.38036 0.59532 0.88845 0.0
H528 H 0.18369 0.00894 0.21821 0.0
H529 H 0.20209 0.01282 0.24289 0.0
H530 H 0.26265 0.03644 0.21968 0.0
H531 H 0.24438 0.03085 0.19462 0.0
H532 H 0.26942 0.98822 0.2422 0.0
H533 H 0.23305 0.105 0.23926 0.0
H534 H 0.20223 0.14779 0.23539 0.0
H535 H 0.16837 0.09792 0.27352 0.0
H536 H 0.19887 0.05446 0.27749 0.0
H537 H 0.32436 0.04554 0.31013 0.0
H538 H 0.30659 0.04446 0.28509 0.0
H539 H 0.24639 0.01145 0.30668 0.0
H540 H 0.26424 0.01193 0.332 0.0
H541 H 0.24015 0.06587 0.28484 0.0
H542 H 0.27706 0.94827 0.28718 0.0
H543 H 0.30857 0.90693 0.29097 0.0
H544 H 0.34229 0.96075 0.25371 0.0
H545 H 0.31108 1.00279 0.24983 0.0
C546 C 0.20096 0.01459 0.21819 0.0
C547 C 0.21248 0.01924 0.20422 0.0
C548 C 0.21146 0.01734 0.23245 0.0
C549 C 0.23377 0.02548 0.23329 0.0
C550 C 0.24541 0.03028 0.21941 0.0
C551 C 0.23488 0.02734 0.20504 0.0
C552 C 0.24484 0.02794 0.24866 0.0
C553 C 0.2632 0.00572 0.25142 0.0
C554 C 0.23654 0.05009 0.26091 0.0
C555 C 0.21818 0.07625 0.25858 0.0
C556 C 0.21896 0.10297 0.24675 0.0
C557 C 0.20156 0.12738 0.24455 0.0
C558 C 0.18334 0.12552 0.25418 0.0
C559 C 0.18249 0.0993 0.26606 0.0
C560 C 0.19984 0.0748 0.2683 0.0
C561 C 0.30742 0.0375 0.30967 0.0
C562 C 0.2959 0.02828 0.32324 0.0
C563 C 0.29723 0.03706 0.29524 0.0
C564 C 0.2752 0.02734 0.29388 0.0
C565 C 0.26343 0.01895 0.30739 0.0
C566 C 0.27367 0.0193 0.3219 0.0
C567 C 0.2646 0.02603 0.27836 0.0
C568 C 0.24635 0.04848 0.27559 0.0
C569 C 0.27309 1.00431 0.26606 0.0
C570 C 0.29181 0.9789 0.26831 0.0
C571 C 0.29126 0.95147 0.27987 0.0
C572 C 0.30905 0.92788 0.28202 0.0
C573 C 0.32744 0.93127 0.27261 0.0
C574 C 0.32804 0.95819 0.261 0.0
C575 C 0.3103 0.98188 0.25881 0.0
H576 H 0.3412 0.91298 0.2743 0.0
H577 H 0.16988 0.14445 0.25246 0.0
H578 H 0.81904 0.02699 0.21821 0.0
H579 H 0.80006 0.0249 0.24281 0.0
H580 H 0.7389 0.0415 0.21952 0.0
H581 H 0.75811 0.04496 0.19463 0.0
H582 H 0.74122 0.08478 0.24456 0.0
H583 H 0.75332 0.95604 0.23484 0.0
H584 H 0.77429 0.89984 0.22818 0.0
H585 H 0.81464 0.91598 0.26806 0.0
H586 H 0.79411 0.97262 0.27484 0.0
H587 H 0.67614 0.04118 0.30949 0.0
H588 H 0.69419 0.03881 0.28455 0.0
H589 H 0.75652 0.03261 0.30708 0.0
H590 H 0.73849 0.03577 0.33238 0.0
H591 H 0.75284 0.98308 0.28231 0.0
H592 H 0.74063 0.1131 0.29143 0.0
H593 H 0.71887 0.16852 0.29796 0.0
H594 H 0.67767 0.14846 0.25883 0.0
H595 H 0.699 0.09257 0.25219 0.0
C596 C 0.80156 0.03048 0.21822 0.0
C597 C 0.79018 0.03653 0.20433 0.0
C598 C 0.79065 0.02878 0.23238 0.0
C599 C 0.76795 0.0326 0.23313 0.0
C600 C 0.75642 0.03833 0.21929 0.0
C601 C 0.76739 0.04005 0.20503 0.0
C602 C 0.75659 0.03185 0.24844 0.0
C603 C 0.74349 0.06218 0.25268 0.0
C604 C 0.75989 1.00287 0.25929 0.0
C605 C 0.77229 0.96879 0.25527 0.0
C606 C 0.76678 0.94779 0.24212 0.0
C607 C 0.77857 0.91581 0.23834 0.0
C608 C 0.79582 0.90439 0.24767 0.0
C609 C 0.80128 0.92488 0.26083 0.0
C610 C 0.78956 0.95691 0.26466 0.0
C611 C 0.6937 0.03983 0.3093 0.0
C612 C 0.70578 0.03938 0.32314 0.0
C613 C 0.70403 0.03826 0.29492 0.0
C614 C 0.72676 0.03612 0.29386 0.0
C615 C 0.73894 0.03442 0.30758 0.0
C616 C 0.72859 0.03617 0.32207 0.0
C617 C 0.73759 0.03602 0.27839 0.0
C618 C 0.75057 0.00557 0.27414 0.0
C619 C 0.73408 0.06476 0.26748 0.0
C620 C 0.72129 0.09845 0.2714 0.0
C621 C 0.72682 0.12034 0.28429 0.0
C622 C 0.71459 0.15186 0.288 0.0
C623 C 0.69687 0.16195 0.27884 0.0
C624 C 0.69138 0.14058 0.26593 0.0
C625 C 0.70355 0.109 0.26218 0.0
H626 H 0.68741 0.18637 0.28173 0.0
H627 H 0.80492 0.87962 0.24473 0.0
H628 H 0.31583 0.01937 0.71648 0.0
H629 H 0.29599 0.0174 0.74098 0.0
H630 H 0.24108 0.07066 0.71943 0.0
H631 H 0.26097 0.07217 0.69467 0.0
H632 H 0.25457 0.10406 0.74783 0.0
H633 H 0.23533 0.9844 0.72854 0.0
H634 H 0.24161 0.9225 0.71711 0.0
H635 H 0.28097 0.89205 0.75599 0.0
H636 H 0.27519 0.95401 0.76756 0.0
H637 H 0.18694 0.08992 0.81327 0.0
H638 H 0.20105 0.0828 0.7871 0.0
H639 H 0.25379 0.01586 0.80439 0.0
H640 H 0.23942 0.02256 0.83077 0.0
H641 H 0.23955 0.98851 0.77727 0.0
H642 H 0.26065 0.10933 0.79569 0.0
H643 H 0.2548 0.17151 0.80701 0.0
H644 H 0.21251 0.20003 0.76945 0.0
H645 H 0.21788 0.13782 0.75801 0.0
C646 C 0.2995 0.03053 0.71694 0.0
C647 C 0.28999 0.0461 0.70367 0.0
C648 C 0.28811 0.02917 0.73093 0.0
C649 C 0.267 0.04375 0.73208 0.0
C650 C 0.25734 0.05914 0.71882 0.0
C651 C 0.26863 0.05987 0.70469 0.0
C652 C 0.25565 0.04429 0.74733 0.0
C653 C 0.25089 0.07877 0.75414 0.0
C654 C 0.25142 0.01134 0.75578 0.0
C655 C 0.25499 0.97402 0.74886 0.0
C656 C 0.2455 0.96465 0.73459 0.0
C657 C 0.24892 0.92951 0.7281 0.0
C658 C 0.26172 0.90339 0.7358 0.0
C659 C 0.27108 0.91233 0.75003 0.0
C660 C 0.26771 0.94745 0.75657 0.0
C661 C 0.20156 0.07368 0.81155 0.0
C662 C 0.21224 0.05731 0.8242 0.0
C663 C 0.20963 0.06961 0.79653 0.0
C664 C 0.22882 0.04952 0.79371 0.0
C665 C 0.23903 0.0317 0.80622 0.0
C666 C 0.23081 0.0355 0.82131 0.0
C667 C 0.23851 0.04836 0.77783 0.0
C668 C 0.24306 0.0138 0.77093 0.0
C669 C 0.24264 0.08128 0.76928 0.0
C670 C 0.2395 0.11879 0.77608 0.0
C671 C 0.24999 0.12878 0.7899 0.0
C672 C 0.24677 0.16404 0.79633 0.0
C673 C 0.23325 0.18967 0.78898 0.0
C674 C 0.22296 0.18013 0.77515 0.0
C675 C 0.22609 0.14489 0.76868 0.0
H676 H 0.23078 0.21695 0.79397 0.0
H677 H 0.26433 0.87619 0.73076 0.0
H678 H 0.69864 0.97583 0.71138 0.0
H679 H 0.71572 0.97802 0.7368 0.0
H680 H 0.74701 0.08151 0.72478 0.0
H681 H 0.73036 0.0785 0.69896 0.0
H682 H 0.77374 0.04267 0.7419 0.0
H683 H 0.69998 0.07841 0.74782 0.0
H684 H 0.66015 0.07437 0.74495 0.0
H685 H 0.65954 0.97187 0.77031 0.0
H686 H 0.69943 0.97499 0.77315 0.0
H687 H 0.79498 0.07167 0.8238 0.0
H688 H 0.78006 0.08153 0.79771 0.0
H689 H 0.75551 0.96918 0.79747 0.0
H690 H 0.77048 0.95924 0.82326 0.0
H691 H 0.72513 0.02256 0.78695 0.0
H692 H 0.80073 0.98748 0.77879 0.0
H693 H 0.84032 0.99556 0.78197 0.0
H694 H 0.83651 0.10397 0.76143 0.0
H695 H 0.79682 0.09671 0.75833 0.0
C696 C 0.70932 0.99887 0.71412 0.0
C697 C 0.71301 0.02713 0.70323 0.0
C698 C 0.71899 1.00029 0.72871 0.0
C699 C 0.73219 0.03054 0.733 0.0
C700 C 0.73676 0.05801 0.72187 0.0
C701 C 0.72731 0.05625 0.7071 0.0
C702 C 0.74062 0.03351 0.7492 0.0
C703 C 0.763 0.03893 0.75173 0.0
C704 C 0.72676 0.02875 0.76219 0.0
C705 C 0.70273 0.02681 0.7606 0.0
C706 C 0.69137 0.05488 0.7527 0.0
C707 C 0.66878 0.05276 0.75109 0.0
C708 C 0.65733 0.02284 0.75741 0.0
C709 C 0.66844 0.99501 0.7654 0.0
C710 C 0.69104 0.99696 0.76703 0.0
C711 C 0.78623 0.04929 0.81819 0.0
C712 C 0.78401 0.01461 0.82554 0.0
C713 C 0.77783 0.05484 0.80327 0.0
C714 C 0.76678 0.02598 0.79556 0.0
C715 C 0.764 0.99182 0.80312 0.0
C716 C 0.77266 0.98611 0.81785 0.0
C717 C 0.7582 0.03064 0.77955 0.0
C718 C 0.73576 0.02674 0.77709 0.0
C719 C 0.77194 0.0375 0.76671 0.0
C720 C 0.79579 0.04174 0.7685 0.0
C721 C 0.80831 0.01317 0.77508 0.0
C722 C 0.83077 0.01757 0.77684 0.0
C723 C 0.84091 0.0503 0.77195 0.0
C724 C 0.82862 0.07866 0.76524 0.0
C725 C 0.80615 0.07441 0.76348 0.0
H726 H 0.8583 0.05366 0.77332 0.0
H727 H 0.63984 0.02126 0.75615 0.0
H728 H 0.24126 0.51292 0.69545 0.0
H729 H 0.25963 0.51479 0.72069 0.0
H730 H 0.19976 0.54968 0.74229 0.0
H731 H 0.18155 0.54802 0.71727 0.0
H732 H 0.23454 0.58907 0.75334 0.0
H733 H 0.21559 0.4606 0.74456 0.0
H734 H 0.21539 0.4015 0.73008 0.0
H735 H 0.2851 0.39666 0.73251 0.0
H736 H 0.28573 0.45604 0.74684 0.0
H737 H 0.26109 0.55738 0.83208 0.0
H738 H 0.24315 0.55499 0.80688 0.0
H739 H 0.30072 0.50609 0.78686 0.0
H740 H 0.3182 0.50657 0.81203 0.0
H741 H 0.2675 0.47431 0.77464 0.0
H742 H 0.28723 0.60176 0.78327 0.0
H743 H 0.28828 0.66126 0.79746 0.0
H744 H 0.21869 0.66923 0.79477 0.0
H745 H 0.21721 0.60949 0.78075 0.0
C746 C 0.23213 0.52131 0.70557 0.0
C747 C 0.20988 0.52991 0.70436 0.0
C748 C 0.24258 0.52217 0.72001 0.0
C749 C 0.23103 0.53202 0.73348 0.0
C750 C 0.20904 0.54187 0.73214 0.0
C751 C 0.19859 0.54062 0.71781 0.0
C752 C 0.24149 0.53131 0.74906 0.0
C753 C 0.24158 0.56388 0.75805 0.0
C754 C 0.25107 0.49871 0.75517 0.0
C755 C 0.25072 0.46295 0.74662 0.0
C756 C 0.23089 0.44708 0.7419 0.0
C757 C 0.2307 0.41351 0.73374 0.0
C758 C 0.25023 0.39539 0.73034 0.0
C759 C 0.26999 0.41076 0.73513 0.0
C760 C 0.27027 0.44436 0.74328 0.0
C761 C 0.26982 0.54557 0.8224 0.0
C762 C 0.29129 0.53264 0.82418 0.0
C763 C 0.25962 0.54464 0.80788 0.0
C764 C 0.2707 0.53113 0.79476 0.0
C765 C 0.29179 0.51695 0.79668 0.0
C766 C 0.3019 0.5176 0.81114 0.0
C767 C 0.26063 0.53215 0.779 0.0
C768 C 0.26057 0.4996 0.76996 0.0
C769 C 0.25124 0.5649 0.77279 0.0
C770 C 0.25209 0.60097 0.7811 0.0
C771 C 0.27214 0.61609 0.78579 0.0
C772 C 0.27281 0.64986 0.7938 0.0
C773 C 0.25356 0.66896 0.79705 0.0
C774 C 0.23359 0.65437 0.79227 0.0
C775 C 0.23282 0.62057 0.78428 0.0
H776 H 0.25411 0.6951 0.80326 0.0
H777 H 0.25004 0.3694 0.72402 0.0
H778 H 0.75832 0.53518 0.69486 0.0
H779 H 0.74062 0.52721 0.72003 0.0
H780 H 0.80121 0.55206 0.74287 0.0
H781 H 0.81907 0.55859 0.71794 0.0
H782 H 0.78165 0.49744 0.75757 0.0
H783 H 0.75992 0.61779 0.73897 0.0
H784 H 0.74404 0.66197 0.72039 0.0
H785 H 0.68272 0.60502 0.72312 0.0
H786 H 0.69832 0.56019 0.74158 0.0
H787 H 0.73741 0.54316 0.83258 0.0
H788 H 0.75656 0.5427 0.80761 0.0
H789 H 0.69632 0.51683 0.78448 0.0
H790 H 0.67733 0.51729 0.80917 0.0
H791 H 0.71591 0.57154 0.76997 0.0
H792 H 0.73752 0.4519 0.78915 0.0
H793 H 0.75347 0.40815 0.80787 0.0
H794 H 0.81504 0.46405 0.80427 0.0
H795 H 0.79936 0.50847 0.78569 0.0
C796 C 0.76794 0.53858 0.70521 0.0
C797 C 0.79012 0.54809 0.70424 0.0
C798 C 0.75774 0.53431 0.71965 0.0
C799 C 0.76945 0.53962 0.73345 0.0
C800 C 0.79171 0.54799 0.73247 0.0
C801 C 0.80188 0.55217 0.71811 0.0
C802 C 0.7586 0.53738 0.74892 0.0
C803 C 0.7674 0.51395 0.76032 0.0
C804 C 0.73979 0.5584 0.75256 0.0
C805 C 0.73035 0.58542 0.74153 0.0
C806 C 0.74309 0.61454 0.73552 0.0
C807 C 0.73414 0.63972 0.72503 0.0
C808 C 0.7124 0.63624 0.72055 0.0
C809 C 0.69956 0.60764 0.72659 0.0
C810 C 0.70844 0.58236 0.73707 0.0
C811 C 0.72837 0.53688 0.82219 0.0
C812 C 0.70578 0.53072 0.8229 0.0
C813 C 0.73931 0.53664 0.80789 0.0
C814 C 0.72791 0.52982 0.79405 0.0
C815 C 0.7055 0.52259 0.79488 0.0
C816 C 0.69463 0.52294 0.80907 0.0
C817 C 0.73887 0.53145 0.77861 0.0
C818 C 0.73012 0.55491 0.76723 0.0
C819 C 0.75772 0.51049 0.77502 0.0
C820 C 0.7672 0.48375 0.78615 0.0
C821 C 0.75441 0.45505 0.79245 0.0
C822 C 0.76341 0.43009 0.80302 0.0
C823 C 0.78524 0.43338 0.80729 0.0
C824 C 0.79812 0.46157 0.80097 0.0
C825 C 0.78919 0.48663 0.79041 0.0
H826 H 0.79218 0.41403 0.81547 0.0
H827 H 0.7055 0.65576 0.71242 0.0
H828 H 0.31657 0.58002 0.21557 0.0
H829 H 0.29829 0.57901 0.24056 0.0
H830 H 0.24758 0.50996 0.22154 0.0
H831 H 0.26607 0.51044 0.19637 0.0
H832 H 0.23112 0.56446 0.24059 0.0
H833 H 0.28722 0.47207 0.24373 0.0
H834 H 0.32468 0.44812 0.24164 0.0
H835 H 0.3461 0.5274 0.2755 0.0
H836 H 0.3088 0.55219 0.27764 0.0
H837 H 0.18405 0.50771 0.31078 0.0
H838 H 0.20267 0.50847 0.28591 0.0
H839 H 0.25612 0.56876 0.30631 0.0
H840 H 0.23751 0.5672 0.33152 0.0
H841 H 0.27143 0.51944 0.28649 0.0
H842 H 0.21596 0.61227 0.28353 0.0
H843 H 0.1788 0.63761 0.28559 0.0
H844 H 0.15656 0.55979 0.25141 0.0
H845 H 0.19354 0.53363 0.2493 0.0
C846 C 0.30159 0.56441 0.21664 0.0
C847 C 0.29302 0.54487 0.2039 0.0
C848 C 0.29111 0.56391 0.231 0.0
C849 C 0.27174 0.54382 0.2331 0.0
C850 C 0.26258 0.52552 0.22027 0.0
C851 C 0.27312 0.52595 0.20584 0.0
C852 C 0.26132 0.54169 0.24873 0.0
C853 C 0.23983 0.5541 0.25057 0.0
C854 C 0.27284 0.52923 0.26192 0.0
C855 C 0.29525 0.51421 0.26073 0.0
C856 C 0.29995 0.48458 0.25065 0.0
C857 C 0.32115 0.47083 0.24947 0.0
C858 C 0.33777 0.48629 0.25841 0.0
C859 C 0.33321 0.51548 0.26857 0.0
C860 C 0.31204 0.52937 0.26978 0.0
C861 C 0.19975 0.52122 0.31 0.0
C862 C 0.20914 0.5379 0.32311 0.0
C863 C 0.2104 0.52174 0.29571 0.0
C864 C 0.2306 0.53959 0.294 0.0
C865 C 0.24047 0.55507 0.30722 0.0
C866 C 0.22987 0.55414 0.32165 0.0
C867 C 0.24115 0.54215 0.27839 0.0
C868 C 0.26268 0.52985 0.27653 0.0
C869 C 0.22971 0.55495 0.26519 0.0
C870 C 0.20748 0.57078 0.26636 0.0
C871 C 0.20312 0.6004 0.27653 0.0
C872 C 0.18209 0.61493 0.27769 0.0
C873 C 0.16532 0.60026 0.26866 0.0
C874 C 0.16956 0.5711 0.25841 0.0
C875 C 0.19055 0.55643 0.25721 0.0
H876 H 0.14906 0.61155 0.26959 0.0
H877 H 0.35418 0.4756 0.25748 0.0
H878 H 0.71125 0.4588 0.20707 0.0
H879 H 0.72687 0.46249 0.23296 0.0
H880 H 0.7346 0.58115 0.22777 0.0
H881 H 0.71999 0.57686 0.20139 0.0
H882 H 0.76689 0.55804 0.24345 0.0
H883 H 0.69092 0.53878 0.24916 0.0
H884 H 0.65518 0.50924 0.24499 0.0
H885 H 0.67901 0.4073 0.26436 0.0
H886 H 0.715 0.43606 0.26844 0.0
H887 H 0.77869 0.57581 0.32667 0.0
H888 H 0.76194 0.58078 0.3009 0.0
H889 H 0.77028 0.46284 0.29418 0.0
H890 H 0.78735 0.45802 0.31965 0.0
H891 H 0.72775 0.49238 0.28553 0.0
H892 H 0.80516 0.51555 0.27812 0.0
H893 H 0.83933 0.54954 0.28306 0.0
H894 H 0.80955 0.65117 0.26804 0.0
H895 H 0.77509 0.61784 0.26322 0.0
C896 C 0.71652 0.48557 0.21143 0.0
C897 C 0.71431 0.51755 0.20228 0.0
C898 C 0.72526 0.4878 0.22631 0.0
C899 C 0.73131 0.52231 0.23268 0.0
C900 C 0.72992 0.55418 0.22328 0.0
C901 C 0.72163 0.55177 0.20819 0.0
C902 C 0.73875 0.52487 0.24914 0.0
C903 C 0.75806 0.54416 0.25264 0.0
C904 C 0.72738 0.50692 0.26134 0.0
C905 C 0.70572 0.48951 0.25899 0.0
C906 C 0.68858 0.50999 0.25244 0.0
C907 C 0.66827 0.49339 0.2501 0.0
C908 C 0.66484 0.45639 0.25438 0.0
C909 C 0.6817 0.43595 0.26104 0.0
C910 C 0.70205 0.4524 0.26338 0.0
C911 C 0.77666 0.55097 0.31973 0.0
C912 C 0.78434 0.51653 0.32513 0.0
C913 C 0.76724 0.55384 0.305 0.0
C914 C 0.76497 0.52218 0.29557 0.0
C915 C 0.77188 0.48762 0.30122 0.0
C916 C 0.78167 0.4849 0.31575 0.0
C917 C 0.75595 0.52479 0.27963 0.0
C918 C 0.73635 0.5065 0.27628 0.0
C919 C 0.76675 0.54437 0.26769 0.0
C920 C 0.78749 0.5643 0.27049 0.0
C921 C 0.80584 0.54521 0.27601 0.0
C922 C 0.82527 0.56434 0.27876 0.0
C923 C 0.82659 0.60251 0.27591 0.0
C924 C 0.80849 0.62162 0.27026 0.0
C925 C 0.78902 0.60262 0.26751 0.0
H926 H 0.84164 0.61728 0.27805 0.0
H927 H 0.64911 0.44359 0.25256 0.0
H928 H 0.22952 0.12811 0.12442 0.0
H929 H 0.24145 0.19309 0.12335 0.0
H930 H 0.24489 0.19595 0.17311 0.0
H931 H 0.23208 0.13155 0.1741 0.0
H932 H 0.22122 0.25036 0.164 0.0
H933 H 0.29112 0.20407 0.14792 0.0
H934 H 0.31664 0.16797 0.13182 0.0
H935 H 0.29647 0.22861 0.09166 0.0
H936 H 0.27061 0.26478 0.10749 0.0
H937 H 0.27749 0.42012 0.17638 0.0
H938 H 0.26314 0.35696 0.17421 0.0
H939 H 0.25289 0.37326 0.12543 0.0
H940 H 0.26712 0.43703 0.12768 0.0
H941 H 0.27769 0.31081 0.13168 0.0
H942 H 0.20975 0.36021 0.14853 0.0
H943 H 0.18494 0.39677 0.165 0.0
H944 H 0.20223 0.33019 0.20421 0.0
H945 H 0.22739 0.29354 0.18803 0.0
C946 C 0.23392 0.14211 0.13506 0.0
C947 C 0.23045 0.12458 0.14934 0.0
C948 C 0.24054 0.17947 0.13447 0.0
C949 C 0.24407 0.19978 0.14816 0.0
C950 C 0.24218 0.18116 0.16237 0.0
C951 C 0.23524 0.14412 0.16295 0.0
C952 C 0.24744 0.24102 0.14788 0.0
C953 C 0.23381 0.2634 0.15708 0.0
C954 C 0.26322 0.25855 0.13839 0.0
C955 C 0.27876 0.23685 0.12886 0.0
C956 C 0.29199 0.2095 0.13563 0.0
C957 C 0.30655 0.18907 0.12656 0.0
C958 C 0.30813 0.19591 0.11072 0.0
C959 C 0.2952 0.22329 0.10392 0.0
C960 C 0.28061 0.24379 0.11294 0.0
C961 C 0.27124 0.4108 0.16534 0.0
C962 C 0.273 0.43369 0.15227 0.0
C963 C 0.2632 0.37455 0.16407 0.0
C964 C 0.25697 0.36018 0.14965 0.0
C965 C 0.25757 0.38372 0.13668 0.0
C966 C 0.26535 0.42035 0.13801 0.0
C967 C 0.25183 0.31977 0.14808 0.0
C968 C 0.26505 0.29762 0.13852 0.0
C969 C 0.23576 0.30237 0.1573 0.0
C970 C 0.22059 0.32429 0.16707 0.0
C971 C 0.2084 0.35353 0.16069 0.0
C972 C 0.19424 0.37424 0.16997 0.0
C973 C 0.19204 0.36585 0.18564 0.0
C974 C 0.20396 0.33667 0.19206 0.0
C975 C 0.21815 0.31589 0.18284 0.0
H976 H 0.18107 0.38192 0.19281 0.0
H977 H 0.31941 0.18007 0.10371 0.0
H978 H 0.72907 0.64087 0.1734 0.0
H979 H 0.74124 0.70532 0.17115 0.0
H980 H 0.74822 0.69157 0.12192 0.0
H981 H 0.73637 0.62643 0.12424 0.0
H982 H 0.77865 0.74256 0.13423 0.0
H983 H 0.70217 0.72285 0.13461 0.0
H984 H 0.66754 0.69679 0.14409 0.0
H985 H 0.67532 0.75532 0.18699 0.0
H986 H 0.71026 0.78116 0.17788 0.0
H987 H 0.77142 0.93771 0.12338 0.0
H988 H 0.75815 0.87349 0.12091 0.0
H989 H 0.7548 0.86469 0.17051 0.0
H990 H 0.76847 0.92843 0.17294 0.0
H991 H 0.72066 0.82546 0.15457 0.0
H992 H 0.79936 0.84023 0.15398 0.0
H993 H 0.83323 0.86716 0.14353 0.0
H994 H 0.81974 0.81864 0.09923 0.0
H995 H 0.78554 0.79201 0.10936 0.0
C996 C 0.73426 0.65105 0.16221 0.0
C997 C 0.73206 0.62858 0.14903 0.0
C998 C 0.74094 0.68805 0.16089 0.0
C999 C 0.74512 0.70361 0.14632 0.0
C1000 C 0.74501 0.68023 0.13328 0.0
C1001 C 0.73848 0.64288 0.13462 0.0
C1002 C 0.74689 0.74483 0.14471 0.0
C1003 C 0.76583 0.76063 0.13845 0.0
C1004 C 0.73014 0.76863 0.15016 0.0
C1005 C 0.70894 0.75371 0.15561 0.0
C1006 C 0.69658 0.72998 0.14611 0.0
C1007 C 0.67689 0.71524 0.15141 0.0
C1008 C 0.66925 0.72435 0.16614 0.0
C1009 C 0.68127 0.74827 0.17559 0.0
C1010 C 0.70102 0.76298 0.17036 0.0
C1011 C 0.76675 0.92267 0.1337 0.0
C1012 C 0.77048 0.9382 0.14835 0.0
C1013 C 0.75948 0.88581 0.1323 0.0
C1014 C 0.75573 0.86412 0.14554 0.0
C1015 C 0.75754 0.88086 0.16014 0.0
C1016 C 0.76514 0.91741 0.16153 0.0
C1017 C 0.75258 0.82312 0.14441 0.0
C1018 C 0.73335 0.80735 0.15018 0.0
C1019 C 0.76894 0.79945 0.13833 0.0
C1020 C 0.78979 0.81449 0.13237 0.0
C1021 C 0.80355 0.83551 0.14198 0.0
C1022 C 0.8228 0.85071 0.13612 0.0
C1023 C 0.8286 0.8447 0.12071 0.0
C1024 C 0.8152 0.82333 0.11115 0.0
C1025 C 0.79588 0.80818 0.11695 0.0
H1026 H 0.8435 0.85653 0.11619 0.0
H1027 H 0.654 0.71292 0.17023 0.0
H1028 H 0.23802 0.94789 0.85743 0.0
H1029 H 0.24899 0.88255 0.85832 0.0
H1030 H 0.23759 0.88102 0.90747 0.0
H1031 H 0.22722 0.94687 0.9066 0.0
H1032 H 0.26993 0.83166 0.89942 0.0
H1033 H 0.19729 0.85847 0.88376 0.0
H1034 H 0.16886 0.88978 0.86854 0.0
H1035 H 0.19432 0.84127 0.82693 0.0
H1036 H 0.22318 0.8102 0.84188 0.0
H1037 H 0.25793 0.63615 0.89929 0.0
H1038 H 0.2443 0.69997 0.90223 0.0
H1039 H 0.25823 0.72118 0.85422 0.0
H1040 H 0.27193 0.65781 0.85133 0.0
H1041 H 0.22177 0.75963 0.86438 0.0
H1042 H 0.2964 0.73718 0.88081 0.0
H1043 H 0.32335 0.70385 0.89667 0.0
H1044 H 0.29194 0.74259 0.93799 0.0
H1045 H 0.26456 0.77565 0.92235 0.0
C1046 C 0.23911 0.93419 0.86854 0.0
C1047 C 0.23225 0.95259 0.88199 0.0
C1048 C 0.24501 0.89664 0.86902 0.0
C1049 C 0.24355 0.87651 0.8829 0.0
C1050 C 0.23879 0.89584 0.89662 0.0
C1051 C 0.23312 0.93363 0.89615 0.0
C1052 C 0.24417 0.835 0.88265 0.0
C1053 C 0.25921 0.81595 0.89191 0.0
C1054 C 0.23009 0.8142 0.87294 0.0
C1055 C 0.21251 0.83226 0.86393 0.0
C1056 C 0.19691 0.85465 0.87135 0.0
C1057 C 0.18071 0.87236 0.86278 0.0
C1058 C 0.1798 0.86757 0.84678 0.0
C1059 C 0.19506 0.84498 0.83933 0.0
C1060 C 0.21134 0.8273 0.84785 0.0
C1061 C 0.25703 0.65387 0.88921 0.0
C1062 C 0.26585 0.64205 0.87505 0.0
C1063 C 0.24954 0.69052 0.89094 0.0
C1064 C 0.25069 0.71564 0.87851 0.0
C1065 C 0.25727 0.70245 0.86398 0.0
C1066 C 0.26495 0.66611 0.86231 0.0
C1067 C 0.24783 0.75643 0.88086 0.0
C1068 C 0.23234 0.77537 0.87199 0.0
C1069 C 0.26133 0.777 0.89104 0.0
C1070 C 0.27835 0.75861 0.90043 0.0
C1071 C 0.29522 0.73852 0.89328 0.0
C1072 C 0.31056 0.71965 0.90222 0.0
C1073 C 0.30933 0.72103 0.91833 0.0
C1074 C 0.29285 0.7415 0.92552 0.0
C1075 C 0.27743 0.76033 0.91662 0.0
H1076 H 0.32116 0.70629 0.92523 0.0
H1077 H 0.16725 0.8813 0.84015 0.0
H1078 H 0.69521 0.4066 0.89776 0.0
H1079 H 0.71109 0.34488 0.89903 0.0
H1080 H 0.76194 0.3792 0.86771 0.0
H1081 H 0.74552 0.44172 0.86623 0.0
H1082 H 0.74338 0.31612 0.85816 0.0
H1083 H 0.77195 0.35724 0.90669 0.0
H1084 H 0.77028 0.3859 0.93255 0.0
H1085 H 0.7248 0.30244 0.94731 0.0
H1086 H 0.72595 0.27357 0.92146 0.0
H1087 H 0.80447 0.15246 0.86288 0.0
H1088 H 0.78981 0.21476 0.8639 0.0
H1089 H 0.74014 0.17826 0.89572 0.0
H1090 H 0.75561 0.11488 0.89521 0.0
H1091 H 0.75776 0.24229 0.90539 0.0
H1092 H 0.72874 0.20142 0.85712 0.0
H1093 H 0.72963 0.17294 0.83121 0.0
H1094 H 0.77493 0.25615 0.81593 0.0
H1095 H 0.77457 0.28483 0.84181 0.0
C1096 C 0.7102 0.40146 0.89153 0.0
C1097 C 0.71935 0.42917 0.8821 0.0
C1098 C 0.7193 0.366 0.89227 0.0
C1099 C 0.73789 0.35718 0.8836 0.0
C1100 C 0.74766 0.38532 0.87459 0.0
C1101 C 0.73848 0.42116 0.87388 0.0
C1102 C 0.74563 0.31778 0.88295 0.0
C1103 C 0.74695 0.30022 0.86848 0.0
C1104 C 0.74939 0.2964 0.89644 0.0
C1105 C 0.74893 0.31338 0.91208 0.0
C1106 C 0.76149 0.34512 0.91541 0.0
C1107 C 0.76065 0.36139 0.93008 0.0
C1108 C 0.7474 0.34605 0.94155 0.0
C1109 C 0.73504 0.31431 0.93841 0.0
C1110 C 0.73581 0.29794 0.92376 0.0
C1111 C 0.79024 0.15728 0.87 0.0
C1112 C 0.78122 0.12847 0.87897 0.0
C1113 C 0.78176 0.19316 0.87049 0.0
C1114 C 0.76365 0.20146 0.87971 0.0
C1115 C 0.7541 0.17259 0.88844 0.0
C1116 C 0.76277 0.13629 0.88803 0.0
C1117 C 0.75565 0.24072 0.88058 0.0
C1118 C 0.75423 0.25822 0.89507 0.0
C1119 C 0.75168 0.26208 0.86711 0.0
C1120 C 0.75174 0.24512 0.85146 0.0
C1121 C 0.739 0.21352 0.84827 0.0
C1122 C 0.7394 0.19735 0.83358 0.0
C1123 C 0.75236 0.21268 0.82194 0.0
C1124 C 0.7649 0.24429 0.82496 0.0
C1125 C 0.76458 0.26054 0.83963 0.0
H1126 H 0.75266 0.2001 0.81058 0.0
H1127 H 0.74675 0.35873 0.95289 0.0
H1128 H 0.80738 0.89531 0.91522 0.0
H1129 H 0.78715 0.83697 0.91655 0.0
H1130 H 0.73847 0.88199 0.88608 0.0
H1131 H 0.75879 0.94108 0.88484 0.0
H1132 H 0.72079 0.83371 0.90869 0.0
H1133 H 0.7785 0.83226 0.87117 0.0
H1134 H 0.81625 0.84077 0.86217 0.0
H1135 H 0.83818 0.75859 0.8945 0.0
H1136 H 0.80057 0.75005 0.90389 0.0
H1137 H 0.68071 0.67118 0.87395 0.0
H1138 H 0.69756 0.73035 0.87993 0.0
H1139 H 0.74578 0.67472 0.9076 0.0
H1140 H 0.72881 0.61422 0.90149 0.0
H1141 H 0.76404 0.72747 0.88866 0.0
H1142 H 0.70565 0.72524 0.92481 0.0
H1143 H 0.66785 0.71702 0.93375 0.0
H1144 H 0.64702 0.80563 0.90409 0.0
H1145 H 0.68465 0.81403 0.89479 0.0
C1146 C 0.79199 0.89326 0.90919 0.0
C1147 C 0.78466 0.92283 0.89994 0.0
C1148 C 0.78051 0.85972 0.90986 0.0
C1149 C 0.76153 0.85464 0.90114 0.0
C1150 C 0.75314 0.88515 0.89287 0.0
C1151 C 0.76465 0.91904 0.89226 0.0
C1152 C 0.7518 0.81664 0.89961 0.0
C1153 C 0.73016 0.81057 0.90416 0.0
C1154 C 0.76417 0.78605 0.89409 0.0
C1155 C 0.78675 0.79079 0.88834 0.0
C1156 C 0.79139 0.8162 0.87644 0.0
C1157 C 0.81276 0.82101 0.87126 0.0
C1158 C 0.82961 0.8003 0.87779 0.0
C1159 C 0.82511 0.77465 0.88948 0.0
C1160 C 0.80377 0.76981 0.89473 0.0
C1161 C 0.69486 0.67112 0.88137 0.0
C1162 C 0.70334 0.63757 0.88724 0.0
C1163 C 0.70443 0.70532 0.88487 0.0
C1164 C 0.72278 0.70734 0.89442 0.0
C1165 C 0.73153 0.67398 0.90027 0.0
C1166 C 0.72181 0.6394 0.8968 0.0
C1167 C 0.73294 0.74442 0.89767 0.0
C1168 C 0.75468 0.75042 0.89336 0.0
C1169 C 0.72064 0.7749 0.9034 0.0
C1170 C 0.69798 0.77007 0.90901 0.0
C1171 C 0.69299 0.74279 0.9201 0.0
C1172 C 0.67159 0.73813 0.92525 0.0
C1173 C 0.65504 0.76074 0.91947 0.0
C1174 C 0.65986 0.78812 0.90855 0.0
C1175 C 0.68123 0.79287 0.90335 0.0
H1176 H 0.63848 0.75708 0.92347 0.0
H1177 H 0.84615 0.80405 0.87376 0.0
H1178 H 0.31348 0.40884 0.87359 0.0
H1179 H 0.29703 0.34864 0.87832 0.0
H1180 H 0.24621 0.40064 0.90505 0.0
H1181 H 0.26303 0.46199 0.90053 0.0
H1182 H 0.26011 0.33557 0.9185 0.0
H1183 H 0.23647 0.37212 0.86832 0.0
H1184 H 0.2404 0.39523 0.84167 0.0
H1185 H 0.28077 0.30173 0.83028 0.0
H1186 H 0.27737 0.27835 0.85695 0.0
H1187 H 0.18637 0.18227 0.91248 0.0
H1188 H 0.20577 0.24149 0.91265 0.0
H1189 H 0.25788 0.19226 0.88624 0.0
H1190 H 0.23834 0.13249 0.88602 0.0
H1191 H 0.24303 0.25631 0.87314 0.0
H1192 H 0.26575 0.21924 0.9236 0.0
H1193 H 0.26102 0.1964 0.95022 0.0
H1194 H 0.22109 0.29085 0.96103 0.0
H1195 H 0.22531 0.314 0.93439 0.0
C1196 C 0.29879 0.40785 0.88051 0.0
C1197 C 0.28948 0.44061 0.88654 0.0
C1198 C 0.28935 0.37314 0.88317 0.0
C1199 C 0.27011 0.36993 0.8918 0.0
C1200 C 0.26099 0.40236 0.89827 0.0
C1201 C 0.27057 0.43744 0.89564 0.0
C1202 C 0.25965 0.33261 0.89368 0.0
C1203 C 0.25605 0.31847 0.90858 0.0
C1204 C 0.2548 0.30976 0.88076 0.0
C1205 C 0.25682 0.32366 0.86468 0.0
C1206 C 0.24633 0.35663 0.86017 0.0
C1207 C 0.24844 0.36976 0.84505 0.0
C1208 C 0.26087 0.35001 0.8343 0.0
C1209 C 0.27117 0.31703 0.83863 0.0
C1210 C 0.26915 0.30381 0.85374 0.0
C1211 C 0.20222 0.18374 0.90701 0.0
C1212 C 0.21084 0.1526 0.89926 0.0
C1213 C 0.21333 0.21771 0.90714 0.0
C1214 C 0.23335 0.22152 0.89949 0.0
C1215 C 0.24247 0.19004 0.89226 0.0
C1216 C 0.2314 0.15578 0.89226 0.0
C1217 C 0.24366 0.25904 0.89796 0.0
C1218 C 0.24714 0.27331 0.88308 0.0
C1219 C 0.24823 0.28199 0.9109 0.0
C1220 C 0.24569 0.26818 0.92694 0.0
C1221 C 0.2558 0.23499 0.93161 0.0
C1222 C 0.25324 0.22201 0.94671 0.0
C1223 C 0.24072 0.24211 0.9573 0.0
C1224 C 0.23077 0.27529 0.95281 0.0
C1225 C 0.23326 0.28837 0.93771 0.0
H1226 H 0.23876 0.23202 0.96899 0.0
H1227 H 0.26248 0.36022 0.8226 0.0
H1228 H 0.74246 0.44765 0.13917 0.0
H1229 H 0.7609 0.38734 0.13655 0.0
H1230 H 0.70046 0.33692 0.12217 0.0
H1231 H 0.68204 0.39645 0.12541 0.0
H1232 H 0.71651 0.2958 0.14284 0.0
H1233 H 0.74677 0.35076 0.09729 0.0
H1234 H 0.76599 0.3982 0.08189 0.0
H1235 H 0.82342 0.38306 0.10932 0.0
H1236 H 0.80445 0.33587 0.12502 0.0
H1237 H 0.7646 0.1169 0.12883 0.0
H1238 H 0.74665 0.17684 0.12368 0.0
H1239 H 0.80166 0.23489 0.14303 0.0
H1240 H 0.81951 0.17592 0.14807 0.0
H1241 H 0.78746 0.27039 0.11768 0.0
H1242 H 0.75563 0.21926 0.16426 0.0
H1243 H 0.73628 0.17157 0.17946 0.0
H1244 H 0.68129 0.17957 0.14914 0.0
H1245 H 0.70044 0.22699 0.13364 0.0
C1246 C 0.73332 0.42385 0.13507 0.0
C1247 C 0.71083 0.42679 0.13248 0.0
C1248 C 0.74384 0.38926 0.13358 0.0
C1249 C 0.73215 0.35717 0.12913 0.0
C1250 C 0.70991 0.36087 0.12575 0.0
C1251 C 0.6994 0.39507 0.1275 0.0
C1252 C 0.74241 0.31929 0.1291 0.0
C1253 C 0.73183 0.29027 0.13704 0.0
C1254 C 0.76264 0.3117 0.12186 0.0
C1255 C 0.77411 0.34001 0.11242 0.0
C1256 C 0.76344 0.35774 0.10011 0.0
C1257 C 0.7743 0.38456 0.09132 0.0
C1258 C 0.79589 0.3937 0.09465 0.0
C1259 C 0.80669 0.37598 0.10676 0.0
C1260 C 0.7959 0.34917 0.1156 0.0
C1261 C 0.77291 0.14247 0.13184 0.0
C1262 C 0.79342 0.14143 0.13901 0.0
C1263 C 0.76262 0.17675 0.12894 0.0
C1264 C 0.77271 0.21057 0.13309 0.0
C1265 C 0.79349 0.2094 0.13969 0.0
C1266 C 0.80364 0.17542 0.14267 0.0
C1267 C 0.7615 0.24727 0.13136 0.0
C1268 C 0.77197 0.27602 0.12322 0.0
C1269 C 0.74111 0.25465 0.13833 0.0
C1270 C 0.72955 0.22633 0.14769 0.0
C1271 C 0.73947 0.21064 0.16077 0.0
C1272 C 0.72853 0.1837 0.16945 0.0
C1273 C 0.70759 0.17246 0.16524 0.0
C1274 C 0.69752 0.18824 0.15237 0.0
C1275 C 0.70841 0.21515 0.14364 0.0
H1276 H 0.69915 0.1516 0.17198 0.0
H1277 H 0.80427 0.41447 0.08782 0.0
H1278 H 0.24201 0.94337 0.13915 0.0
H1279 H 0.26044 0.88305 0.13634 0.0
H1280 H 0.19877 0.83064 0.12654 0.0
H1281 H 0.18046 0.89017 0.1299 0.0
H1282 H 0.21764 0.79181 0.14689 0.0
H1283 H 0.24136 0.84284 0.09872 0.0
H1284 H 0.2582 0.88902 0.08138 0.0
H1285 H 0.31917 0.87659 0.10493 0.0
H1286 H 0.30262 0.83068 0.12255 0.0
H1287 H 0.26333 0.61203 0.13139 0.0
H1288 H 0.24517 0.67197 0.1266 0.0
H1289 H 0.30217 0.73017 0.1427 0.0
H1290 H 0.32017 0.67111 0.14749 0.0
H1291 H 0.28491 0.76442 0.11736 0.0
H1292 H 0.25975 0.71689 0.16649 0.0
H1293 H 0.24272 0.67037 0.18358 0.0
H1294 H 0.18369 0.67619 0.15726 0.0
H1295 H 0.20049 0.7224 0.13987 0.0
C1296 C 0.23254 0.91909 0.13603 0.0
C1297 C 0.2098 0.92151 0.13476 0.0
C1298 C 0.24306 0.8845 0.13443 0.0
C1299 C 0.23106 0.85189 0.13122 0.0
C1300 C 0.20848 0.855 0.12916 0.0
C1301 C 0.19801 0.88921 0.13099 0.0
C1302 C 0.24148 0.81416 0.13111 0.0
C1303 C 0.23212 0.78582 0.14016 0.0
C1304 C 0.26067 0.80604 0.12264 0.0
C1305 C 0.27069 0.83357 0.11205 0.0
C1306 C 0.25832 0.85016 0.10028 0.0
C1307 C 0.26782 0.87625 0.09039 0.0
C1308 C 0.28973 0.8858 0.09208 0.0
C1309 C 0.3022 0.8692 0.10364 0.0
C1310 C 0.29277 0.84311 0.11357 0.0
C1311 C 0.27203 0.63763 0.13373 0.0
C1312 C 0.29313 0.63666 0.13997 0.0
C1313 C 0.26163 0.67189 0.13104 0.0
C1314 C 0.27224 0.70575 0.1344 0.0
C1315 C 0.29361 0.70463 0.13999 0.0
C1316 C 0.30384 0.67065 0.14283 0.0
C1317 C 0.26093 0.74241 0.13303 0.0
C1318 C 0.27023 0.77051 0.12385 0.0
C1319 C 0.24159 0.75034 0.14129 0.0
C1320 C 0.23145 0.72275 0.15178 0.0
C1321 C 0.24319 0.70802 0.16428 0.0
C1322 C 0.23358 0.68175 0.17403 0.0
C1323 C 0.21216 0.67024 0.17148 0.0
C1324 C 0.20029 0.68507 0.1592 0.0
C1325 C 0.20985 0.71131 0.1494 0.0
H1326 H 0.20474 0.6499 0.17904 0.0
H1327 H 0.29706 0.90601 0.08441 0.0
H1328 H 0.22337 0.6393 0.62534 0.0
H1329 H 0.23527 0.70406 0.62477 0.0
H1330 H 0.24996 0.69861 0.67346 0.0
H1331 H 0.2366 0.63442 0.6741 0.0
H1332 H 0.22696 0.75522 0.66939 0.0
H1333 H 0.28998 0.7108 0.64241 0.0
H1334 H 0.31034 0.67676 0.62231 0.0
H1335 H 0.27983 0.74248 0.58713 0.0
H1336 H 0.25908 0.77662 0.60701 0.0
H1337 H 0.28397 0.92525 0.67649 0.0
H1338 H 0.26985 0.86206 0.67521 0.0
H1339 H 0.24795 0.88148 0.62861 0.0
H1340 H 0.26264 0.94517 0.62982 0.0
H1341 H 0.27259 0.81947 0.63041 0.0
H1342 H 0.21113 0.86615 0.65893 0.0
H1343 H 0.19371 0.90153 0.68001 0.0
H1344 H 0.22472 0.83166 0.71354 0.0
H1345 H 0.24245 0.79601 0.69267 0.0
C1346 C 0.23011 0.65145 0.63574 0.0
C1347 C 0.22964 0.6316 0.64968 0.0
C1348 C 0.23683 0.6887 0.63545 0.0
C1349 C 0.24367 0.70664 0.64907 0.0
C1350 C 0.2447 0.68572 0.66279 0.0
C1351 C 0.23748 0.64876 0.66312 0.0
C1352 C 0.24755 0.74779 0.64941 0.0
C1353 C 0.23723 0.76903 0.66096 0.0
C1354 C 0.26033 0.76646 0.63817 0.0
C1355 C 0.27282 0.74601 0.6262 0.0
C1356 C 0.28749 0.71781 0.63038 0.0
C1357 C 0.29912 0.69853 0.61903 0.0
C1358 C 0.29634 0.70739 0.60345 0.0
C1359 C 0.28195 0.73562 0.5992 0.0
C1360 C 0.27027 0.75497 0.61051 0.0
C1361 C 0.27538 0.91654 0.66618 0.0
C1362 C 0.27412 0.94026 0.65333 0.0
C1363 C 0.26735 0.88028 0.66543 0.0
C1364 C 0.25773 0.86682 0.65183 0.0
C1365 C 0.25526 0.89122 0.63925 0.0
C1366 C 0.2633 0.9278 0.64002 0.0
C1367 C 0.25226 0.82648 0.65047 0.0
C1368 C 0.26224 0.80548 0.63874 0.0
C1369 C 0.23945 0.80792 0.66167 0.0
C1370 C 0.22818 0.8285 0.67423 0.0
C1371 C 0.21426 0.85836 0.6708 0.0
C1372 C 0.20432 0.87846 0.68271 0.0
C1373 C 0.20812 0.86886 0.6981 0.0
C1374 C 0.22176 0.83901 0.70161 0.0
C1375 C 0.23171 0.81878 0.68975 0.0
H1376 H 0.20049 0.88455 0.70731 0.0
H1377 H 0.30535 0.69243 0.59468 0.0
H1378 H 0.77245 0.44359 0.62349 0.0
H1379 H 0.76071 0.37847 0.62228 0.0
H1380 H 0.75883 0.37443 0.67207 0.0
H1381 H 0.77128 0.43901 0.67318 0.0
H1382 H 0.78309 0.32094 0.66191 0.0
H1383 H 0.71203 0.36591 0.64822 0.0
H1384 H 0.68533 0.40171 0.63311 0.0
H1385 H 0.70369 0.34235 0.59205 0.0
H1386 H 0.73072 0.30652 0.60688 0.0
H1387 H 0.72855 0.15016 0.67527 0.0
H1388 H 0.74266 0.21342 0.67291 0.0
H1389 H 0.75005 0.19801 0.62378 0.0
H1390 H 0.73606 0.13414 0.62621 0.0
H1391 H 0.72535 0.25983 0.63104 0.0
H1392 H 0.79449 0.2116 0.6455 0.0
H1393 H 0.82054 0.17531 0.66096 0.0
H1394 H 0.80514 0.24078 0.70101 0.0
H1395 H 0.77876 0.27716 0.68585 0.0
C1396 C 0.76839 0.4293 0.63412 0.0
C1397 C 0.77221 0.44653 0.64843 0.0
C1398 C 0.76191 0.39188 0.63345 0.0
C1399 C 0.75894 0.37122 0.6471 0.0
C1400 C 0.76112 0.38953 0.66137 0.0
C1401 C 0.76786 0.42666 0.66202 0.0
C1402 C 0.75592 0.32994 0.64666 0.0
C1403 C 0.77024 0.30772 0.65532 0.0
C1404 C 0.73979 0.31228 0.63756 0.0
C1405 C 0.72357 0.33383 0.62863 0.0
C1406 C 0.71051 0.36072 0.63594 0.0
C1407 C 0.69529 0.38097 0.62743 0.0
C1408 C 0.69286 0.37439 0.61162 0.0
C1409 C 0.70562 0.34747 0.6043 0.0
C1410 C 0.72088 0.32716 0.61275 0.0
C1411 C 0.73416 0.15969 0.66408 0.0
C1412 C 0.73164 0.13705 0.65098 0.0
C1413 C 0.74206 0.19599 0.66271 0.0
C1414 C 0.74738 0.21064 0.64816 0.0
C1415 C 0.74607 0.18732 0.63513 0.0
C1416 C 0.73844 0.15064 0.63655 0.0
C1417 C 0.75217 0.25115 0.64659 0.0
C1418 C 0.73827 0.27317 0.63754 0.0
C1419 C 0.76862 0.26872 0.65538 0.0
C1420 C 0.78452 0.24695 0.66455 0.0
C1421 C 0.79653 0.21809 0.65764 0.0
C1422 C 0.81138 0.19753 0.66634 0.0
C1423 C 0.81446 0.20569 0.68196 0.0
C1424 C 0.80273 0.23448 0.68891 0.0
C1425 C 0.78784 0.25512 0.68026 0.0
H1426 H 0.82597 0.18974 0.68868 0.0
H1427 H 0.68106 0.39009 0.60506 0.0
H1428 H 0.23199 0.43207 0.35271 0.0
H1429 H 0.24435 0.36748 0.35379 0.0
H1430 H 0.23711 0.36857 0.40336 0.0
H1431 H 0.22577 0.43387 0.40227 0.0
H1432 H 0.26847 0.32105 0.3956 0.0
H1433 H 0.1952 0.3412 0.37999 0.0
H1434 H 0.16563 0.36886 0.36464 0.0
H1435 H 0.19168 0.31915 0.32346 0.0
H1436 H 0.22165 0.29169 0.33853 0.0
H1437 H 0.26 0.1249 0.3982 0.0
H1438 H 0.24487 0.188 0.40005 0.0
H1439 H 0.26079 0.20697 0.35218 0.0
H1440 H 0.27609 0.14443 0.3504 0.0
H1441 H 0.22205 0.24295 0.36163 0.0
H1442 H 0.29724 0.22694 0.37861 0.0
H1443 H 0.32459 0.1966 0.39514 0.0
H1444 H 0.29166 0.23667 0.43565 0.0
H1445 H 0.26387 0.26667 0.41933 0.0
C1446 C 0.23423 0.41909 0.36388 0.0
C1447 C 0.22831 0.43802 0.37741 0.0
C1448 C 0.2409 0.38196 0.36449 0.0
C1449 C 0.24096 0.36268 0.37862 0.0
C1450 C 0.23706 0.38266 0.39231 0.0
C1451 C 0.2308 0.42013 0.39171 0.0
C1452 C 0.24261 0.32126 0.37883 0.0
C1453 C 0.25812 0.30404 0.38831 0.0
C1454 C 0.22897 0.29871 0.36946 0.0
C1455 C 0.21077 0.31464 0.36037 0.0
C1456 C 0.19469 0.33633 0.36765 0.0
C1457 C 0.17786 0.35197 0.359 0.0
C1458 C 0.1768 0.34582 0.34308 0.0
C1459 C 0.19254 0.32392 0.33579 0.0
C1460 C 0.20945 0.30829 0.34438 0.0
C1461 C 0.25926 0.14194 0.38791 0.0
C1462 C 0.26905 0.12984 0.37412 0.0
C1463 C 0.25088 0.17812 0.38902 0.0
C1464 C 0.25206 0.2024 0.37631 0.0
C1465 C 0.25974 0.18881 0.36213 0.0
C1466 C 0.26836 0.15298 0.36109 0.0
C1467 C 0.24817 0.24301 0.3781 0.0
C1468 C 0.23223 0.26006 0.369 0.0
C1469 C 0.26113 0.26526 0.388 0.0
C1470 C 0.27839 0.24876 0.39776 0.0
C1471 C 0.29581 0.22919 0.39104 0.0
C1472 C 0.31137 0.21202 0.40037 0.0
C1473 C 0.30983 0.21463 0.41644 0.0
C1474 C 0.29281 0.23462 0.4232 0.0
C1475 C 0.27715 0.25173 0.41392 0.0
H1476 H 0.32185 0.20121 0.42364 0.0
H1477 H 0.16376 0.35797 0.3364 0.0
H1478 H 0.76783 0.62851 0.40368 0.0
H1479 H 0.75559 0.6934 0.4051 0.0
H1480 H 0.75938 0.7013 0.35545 0.0
H1481 H 0.77219 0.63704 0.35416 0.0
H1482 H 0.78179 0.75494 0.36756 0.0
H1483 H 0.71001 0.70627 0.37651 0.0
H1484 H 0.68201 0.6684 0.38953 0.0
H1485 H 0.69445 0.72546 0.43221 0.0
H1486 H 0.72274 0.76337 0.41948 0.0
H1487 H 0.72622 0.92488 0.35324 0.0
H1488 H 0.74049 0.86165 0.35547 0.0
H1489 H 0.74357 0.87399 0.40495 0.0
H1490 H 0.72961 0.93785 0.40266 0.0
H1491 H 0.7197 0.81158 0.39558 0.0
H1492 H 0.78971 0.86346 0.38568 0.0
H1493 H 0.81696 0.90185 0.37214 0.0
H1494 H 0.80704 0.83871 0.33062 0.0
H1495 H 0.77949 0.80024 0.34384 0.0
C1496 C 0.76497 0.64361 0.39306 0.0
C1497 C 0.77047 0.62755 0.37878 0.0
C1498 C 0.75821 0.6809 0.39387 0.0
C1499 C 0.75665 0.7026 0.38038 0.0
C1500 C 0.76058 0.68545 0.36605 0.0
C1501 C 0.76756 0.64849 0.36527 0.0
C1502 C 0.75307 0.74377 0.38113 0.0
C1503 C 0.76801 0.76717 0.37353 0.0
C1504 C 0.73562 0.76017 0.3894 0.0
C1505 C 0.71867 0.73736 0.39708 0.0
C1506 C 0.70691 0.71051 0.3887 0.0
C1507 C 0.69096 0.68909 0.39602 0.0
C1508 C 0.6865 0.69444 0.4117 0.0
C1509 C 0.69795 0.7213 0.42007 0.0
C1510 C 0.71394 0.74278 0.41281 0.0
C1511 C 0.73097 0.91472 0.36452 0.0
C1512 C 0.72737 0.93657 0.37773 0.0
C1513 C 0.7389 0.87842 0.36581 0.0
C1514 C 0.74306 0.86289 0.38039 0.0
C1515 C 0.74053 0.88535 0.39359 0.0
C1516 C 0.73292 0.92204 0.39225 0.0
C1517 C 0.74812 0.82242 0.38172 0.0
C1518 C 0.73352 0.79922 0.38971 0.0
C1519 C 0.76581 0.80611 0.37374 0.0
C1520 C 0.78239 0.82914 0.36573 0.0
C1521 C 0.7932 0.85795 0.37362 0.0
C1522 C 0.80873 0.87968 0.36602 0.0
C1523 C 0.8137 0.87277 0.35052 0.0
C1524 C 0.80317 0.84404 0.34262 0.0
C1525 C 0.78761 0.82223 0.35017 0.0
H1526 H 0.82573 0.88963 0.34466 0.0
H1527 H 0.67414 0.67783 0.41734 0.0
H1528 H 0.81942 0.3926 0.40033 0.0
H1529 H 0.80064 0.33331 0.40326 0.0
H1530 H 0.73963 0.38634 0.39253 0.0
H1531 H 0.75853 0.44656 0.38996 0.0
H1532 H 0.73382 0.33197 0.41401 0.0
H1533 H 0.76887 0.33985 0.36465 0.0
H1534 H 0.79949 0.35039 0.34674 0.0
H1535 H 0.83482 0.26072 0.36765 0.0
H1536 H 0.80452 0.25001 0.38585 0.0
H1537 H 0.67743 0.17505 0.38524 0.0
H1538 H 0.69606 0.2337 0.38959 0.0
H1539 H 0.75488 0.17472 0.401 0.0
H1540 H 0.73612 0.11503 0.39648 0.0
H1541 H 0.7626 0.23104 0.3806 0.0
H1542 H 0.72559 0.22065 0.42891 0.0
H1543 H 0.69426 0.2104 0.44622 0.0
H1544 H 0.66169 0.30467 0.42659 0.0
H1545 H 0.69269 0.31518 0.409 0.0
C1546 C 0.80192 0.39188 0.39887 0.0
C1547 C 0.79049 0.42431 0.39481 0.0
C1548 C 0.79119 0.3578 0.40046 0.0
C1549 C 0.76876 0.35488 0.39769 0.0
C1550 C 0.75698 0.38768 0.39461 0.0
C1551 C 0.76776 0.42216 0.3932 0.0
C1552 C 0.75811 0.31734 0.39715 0.0
C1553 C 0.73997 0.31006 0.40658 0.0
C1554 C 0.76635 0.2882 0.38772 0.0
C1555 C 0.78451 0.29437 0.37671 0.0
C1556 C 0.78323 0.32255 0.3655 0.0
C1557 C 0.80052 0.32854 0.35529 0.0
C1558 C 0.81911 0.3063 0.35608 0.0
C1559 C 0.82042 0.27796 0.36706 0.0
C1560 C 0.80319 0.2719 0.37732 0.0
C1561 C 0.6943 0.17425 0.38881 0.0
C1562 C 0.70526 0.14007 0.39046 0.0
C1563 C 0.70493 0.20806 0.3914 0.0
C1564 C 0.72687 0.20894 0.39578 0.0
C1565 C 0.7379 0.17488 0.39768 0.0
C1566 C 0.72715 0.14074 0.39517 0.0
C1567 C 0.73831 0.24558 0.39747 0.0
C1568 C 0.75656 0.25278 0.38817 0.0
C1569 C 0.73006 0.27464 0.40692 0.0
C1570 C 0.71142 0.26853 0.41755 0.0
C1571 C 0.71168 0.23904 0.4282 0.0
C1572 C 0.69399 0.23321 0.43808 0.0
C1573 C 0.67598 0.25683 0.43748 0.0
C1574 C 0.67565 0.28639 0.42703 0.0
C1575 C 0.69329 0.29232 0.41712 0.0
H1576 H 0.6623 0.25226 0.44514 0.0
H1577 H 0.83248 0.31098 0.34817 0.0
H1578 H 0.20769 0.66135 0.36141 0.0
H1579 H 0.22598 0.72035 0.36617 0.0
H1580 H 0.23757 0.68846 0.41339 0.0
H1581 H 0.21934 0.62818 0.40858 0.0
H1582 H 0.21881 0.76714 0.40699 0.0
H1583 H 0.27909 0.68768 0.39474 0.0
H1584 H 0.29832 0.63954 0.3797 0.0
H1585 H 0.29461 0.7076 0.3391 0.0
H1586 H 0.27506 0.75592 0.35384 0.0
H1587 H 0.28443 0.93665 0.40947 0.0
H1588 H 0.26889 0.87431 0.41387 0.0
H1589 H 0.26993 0.8538 0.36474 0.0
H1590 H 0.28615 0.91468 0.36051 0.0
H1591 H 0.28595 0.79726 0.37772 0.0
H1592 H 0.22144 0.87131 0.38784 0.0
H1593 H 0.20013 0.91942 0.40142 0.0
H1594 H 0.21001 0.86285 0.44447 0.0
H1595 H 0.23156 0.81458 0.43114 0.0
C1596 C 0.21416 0.66664 0.37283 0.0
C1597 C 0.21206 0.63996 0.38461 0.0
C1598 C 0.22461 0.70051 0.37553 0.0
C1599 C 0.23307 0.70898 0.39014 0.0
C1600 C 0.23107 0.68254 0.40203 0.0
C1601 C 0.22084 0.64804 0.39924 0.0
C1602 C 0.24425 0.74543 0.39246 0.0
C1603 C 0.23378 0.77363 0.40091 0.0
C1604 C 0.26349 0.75413 0.38426 0.0
C1605 C 0.2755 0.72533 0.37539 0.0
C1606 C 0.28224 0.69227 0.38258 0.0
C1607 C 0.29322 0.66497 0.37411 0.0
C1608 C 0.29765 0.67048 0.35845 0.0
C1609 C 0.29116 0.70336 0.35123 0.0
C1610 C 0.28016 0.73075 0.35965 0.0
C1611 C 0.28095 0.91893 0.39965 0.0
C1612 C 0.28652 0.93049 0.38465 0.0
C1613 C 0.27208 0.88324 0.40215 0.0
C1614 C 0.26821 0.85891 0.38964 0.0
C1615 C 0.27295 0.87148 0.37465 0.0
C1616 C 0.28212 0.90652 0.37221 0.0
C1617 C 0.26014 0.81981 0.39179 0.0
C1618 C 0.27121 0.79094 0.38411 0.0
C1619 C 0.24132 0.81075 0.40055 0.0
C1620 C 0.22831 0.83962 0.40853 0.0
C1621 C 0.21918 0.86929 0.40022 0.0
C1622 C 0.20704 0.89654 0.40786 0.0
C1623 C 0.20377 0.89426 0.42381 0.0
C1624 C 0.21258 0.86462 0.43213 0.0
C1625 C 0.22475 0.8373 0.42453 0.0
H1626 H 0.19437 0.91539 0.42971 0.0
H1627 H 0.30615 0.6493 0.35192 0.0
H1628 H 0.82184 0.6801 0.62762 0.0
H1629 H 0.80361 0.73966 0.62412 0.0
H1630 H 0.74227 0.68905 0.63625 0.0
H1631 H 0.76058 0.62854 0.63926 0.0
H1632 H 0.73616 0.74178 0.61467 0.0
H1633 H 0.77343 0.73678 0.66322 0.0
H1634 H 0.80479 0.72697 0.68045 0.0
H1635 H 0.8398 0.81428 0.65746 0.0
H1636 H 0.80874 0.82425 0.63994 0.0
H1637 H 0.68211 0.8999 0.64433 0.0
H1638 H 0.70033 0.84107 0.63963 0.0
H1639 H 0.75821 0.89956 0.62531 0.0
H1640 H 0.73985 0.95943 0.63014 0.0
H1641 H 0.76711 0.8443 0.64619 0.0
H1642 H 0.72742 0.85243 0.59899 0.0
H1643 H 0.69511 0.86206 0.58266 0.0
H1644 H 0.66346 0.76897 0.60413 0.0
H1645 H 0.69546 0.7591 0.62076 0.0
C1646 C 0.80437 0.68143 0.62924 0.0
C1647 C 0.79266 0.64966 0.63381 0.0
C1648 C 0.79397 0.71564 0.62734 0.0
C1649 C 0.77162 0.71934 0.63036 0.0
C1650 C 0.75956 0.6871 0.63397 0.0
C1651 C 0.76999 0.65247 0.63563 0.0
C1652 C 0.76136 0.75713 0.63068 0.0
C1653 C 0.74281 0.76405 0.62168 0.0
C1654 C 0.77023 0.78671 0.63956 0.0
C1655 C 0.78885 0.78101 0.65017 0.0
C1656 C 0.78787 0.75372 0.66177 0.0
C1657 C 0.80559 0.74815 0.6716 0.0
C1658 C 0.8243 0.76993 0.67002 0.0
C1659 C 0.82531 0.7974 0.65865 0.0
C1660 C 0.80765 0.80304 0.64877 0.0
C1661 C 0.69867 0.90053 0.64004 0.0
C1662 C 0.70952 0.9346 0.63766 0.0
C1663 C 0.70905 0.86664 0.63725 0.0
C1664 C 0.73062 0.86562 0.63197 0.0
C1665 C 0.74151 0.89956 0.62933 0.0
C1666 C 0.73099 0.93378 0.63202 0.0
C1667 C 0.7419 0.82898 0.6302 0.0
C1668 C 0.7606 0.82219 0.63902 0.0
C1669 C 0.73303 0.79952 0.62127 0.0
C1670 C 0.7138 0.8052 0.61121 0.0
C1671 C 0.71351 0.83417 0.60031 0.0
C1672 C 0.69526 0.83964 0.59099 0.0
C1673 C 0.67723 0.81618 0.59237 0.0
C1674 C 0.67744 0.78714 0.60307 0.0
C1675 C 0.69564 0.78156 0.61244 0.0
H1676 H 0.66311 0.82047 0.58514 0.0
H1677 H 0.838 0.76557 0.67764 0.0
H1678 H 0.24086 0.45081 0.63536 0.0
H1679 H 0.25861 0.39007 0.63176 0.0
H1680 H 0.19637 0.33546 0.63629 0.0
H1681 H 0.17895 0.39537 0.64039 0.0
H1682 H 0.22286 0.30118 0.65344 0.0
H1683 H 0.22625 0.34211 0.60096 0.0
H1684 H 0.23509 0.38433 0.57942 0.0
H1685 H 0.30306 0.37622 0.59025 0.0
H1686 H 0.2946 0.33433 0.612 0.0
H1687 H 0.26051 0.11837 0.63505 0.0
H1688 H 0.24165 0.1781 0.63123 0.0
H1689 H 0.30265 0.23634 0.6358 0.0
H1690 H 0.32135 0.17732 0.63977 0.0
H1691 H 0.27616 0.26724 0.61276 0.0
H1692 H 0.27129 0.22886 0.66624 0.0
H1693 H 0.26176 0.18527 0.68716 0.0
H1694 H 0.19479 0.18782 0.67319 0.0
H1695 H 0.20399 0.231 0.65203 0.0
C1696 C 0.231 0.42583 0.63532 0.0
C1697 C 0.20853 0.42795 0.63826 0.0
C1698 C 0.24113 0.39103 0.63324 0.0
C1699 C 0.2289 0.35778 0.63375 0.0
C1700 C 0.20632 0.36034 0.636 0.0
C1701 C 0.19634 0.3948 0.6383 0.0
C1702 C 0.23943 0.32016 0.63291 0.0
C1703 C 0.23421 0.29376 0.64433 0.0
C1704 C 0.25461 0.31016 0.62127 0.0
C1705 C 0.25976 0.33537 0.60821 0.0
C1706 C 0.24307 0.34957 0.59883 0.0
C1707 C 0.24801 0.3734 0.58657 0.0
C1708 C 0.26962 0.38302 0.5835 0.0
C1709 C 0.28633 0.36877 0.59266 0.0
C1710 C 0.28147 0.34496 0.60495 0.0
C1711 C 0.2699 0.14388 0.63494 0.0
C1712 C 0.29239 0.14311 0.63783 0.0
C1713 C 0.25912 0.17802 0.63282 0.0
C1714 C 0.27071 0.21187 0.63334 0.0
C1715 C 0.29332 0.21077 0.63533 0.0
C1716 C 0.30398 0.17692 0.63768 0.0
C1717 C 0.25932 0.2486 0.63314 0.0
C1718 C 0.26455 0.27479 0.62167 0.0
C1719 C 0.24395 0.2584 0.64463 0.0
C1720 C 0.23837 0.23281 0.65745 0.0
C1721 C 0.25456 0.21989 0.66756 0.0
C1722 C 0.24922 0.1953 0.67947 0.0
C1723 C 0.22769 0.18369 0.68148 0.0
C1724 C 0.21146 0.19677 0.67161 0.0
C1725 C 0.21673 0.22131 0.65966 0.0
H1726 H 0.22359 0.16464 0.6907 0.0
H1727 H 0.27341 0.40142 0.57399 0.0
H1728 H 0.91369 0.1002 0.13458 0.0
H1729 H 0.95338 0.09681 0.13159 0.0
H1730 H 0.9485 0.97931 0.12205 0.0
H1731 H 0.90907 0.98255 0.12501 0.0
H1732 H 0.97804 0.99262 0.14393 0.0
H1733 H 0.96165 0.04165 0.09368 0.0
H1734 H 0.94556 0.08596 0.07526 0.0
H1735 H 0.98335 0.1746 0.09495 0.0
H1736 H 0.99945 0.13089 0.11364 0.0
H1737 H 0.08967 0.96344 0.12755 0.0
H1738 H 0.05015 0.96674 0.12406 0.0
H1739 H 0.05226 0.08539 0.13137 0.0
H1740 H 0.09164 0.08254 0.13416 0.0
H1741 H 0.024 0.0702 0.10957 0.0
H1742 H 0.03839 0.02408 0.16064 0.0
H1743 H 0.05417 0.98165 0.17995 0.0
H1744 H 0.01973 0.88978 0.15973 0.0
H1745 H 0.00396 0.93162 0.14016 0.0
C1746 C 0.92109 0.07384 0.13157 0.0
C1747 C 0.9083 0.04158 0.13022 0.0
C1748 C 0.94376 0.0719 0.12987 0.0
C1749 C 0.95394 0.03774 0.12662 0.0
C1750 C 0.94106 0.00588 0.12468 0.0
C1751 C 0.91852 0.00778 0.12641 0.0
C1752 C 0.97805 0.03449 0.12617 0.0
C1753 C 0.98806 0.00916 0.13622 0.0
C1754 C 0.99119 0.05676 0.11643 0.0
C1755 C 0.9816 0.08305 0.10515 0.0
C1756 C 0.9664 0.07064 0.09416 0.0
C1757 C 0.95731 0.09564 0.08366 0.0
C1758 C 0.96339 0.13309 0.08396 0.0
C1759 C 0.97863 0.14559 0.09474 0.0
C1760 C 0.98776 0.12071 0.10528 0.0
C1761 C 0.08174 0.99028 0.12817 0.0
C1762 C 0.0938 0.0226 0.13141 0.0
C1763 C 0.05912 0.99211 0.1263 0.0
C1764 C 0.04814 0.02625 0.12776 0.0
C1765 C 0.06029 0.05871 0.1303 0.0
C1766 C 0.08282 0.05693 0.13208 0.0
C1767 C 0.02396 0.02824 0.12731 0.0
C1768 C 0.01395 0.05342 0.11716 0.0
C1769 C 0.01077 0.00608 0.13707 0.0
C1770 C 0.02019 0.9809 0.14884 0.0
C1771 C 0.03431 0.99478 0.16025 0.0
C1772 C 0.04323 0.97085 0.17125 0.0
C1773 C 0.03801 0.93302 0.17104 0.0
C1774 C 0.0238 0.91907 0.15986 0.0
C1775 C 0.01486 0.94288 0.14881 0.0
H1776 H 0.04493 0.91454 0.17957 0.0
H1777 H 0.95633 0.1524 0.07581 0.0
H1778 H 0.08659 0.09412 0.90305 0.0
H1779 H 0.04723 0.08387 0.90456 0.0
H1780 H 0.05265 0.99328 0.87217 0.0
H1781 H 0.09189 1.00162 0.87121 0.0
H1782 H 0.01882 0.04858 0.86563 0.0
H1783 H 0.04649 0.97003 0.90661 0.0
H1784 H 0.0673 0.95818 0.93041 0.0
H1785 H 0.0278 0.03703 0.95498 0.0
H1786 H 0.00696 0.04976 0.93124 0.0
H1787 H 0.91462 0.96903 0.86826 0.0
H1788 H 0.95418 0.97683 0.86914 0.0
H1789 H 0.9479 0.04209 0.9108 0.0
H1790 H 0.90846 0.03296 0.91026 0.0
H1791 H 0.98248 1.00253 0.91313 0.0
H1792 H 0.95449 0.08213 0.8739 0.0
H1793 H 0.93374 0.09888 0.85059 0.0
H1794 H 0.9735 0.02579 0.8233 0.0
H1795 H 0.9943 0.00819 0.8465 0.0
C1796 C 0.07951 0.07174 0.89636 0.0
C1797 C 0.09261 0.04896 0.8869 0.0
C1798 C 0.05698 0.06609 0.89718 0.0
C1799 C 0.04709 0.03788 0.88844 0.0
C1800 C 0.05997 0.01541 0.8789 0.0
C1801 C 0.08247 0.02056 0.87827 0.0
C1802 C 0.0233 0.03146 0.8892 0.0
C1803 C 0.01085 0.03816 0.87595 0.0
C1804 C 0.01291 0.019 0.90282 0.0
C1805 C 0.02533 0.01116 0.91711 0.0
C1806 C 0.04237 0.9851 0.91705 0.0
C1807 C 0.05415 0.97817 0.93053 0.0
C1808 C 0.04892 0.99693 0.94418 0.0
C1809 C 0.03186 0.02257 0.94439 0.0
C1810 C 0.02005 0.02964 0.93092 0.0
C1811 C 0.92177 0.98459 0.8777 0.0
C1812 C 0.90851 1.00042 0.88918 0.0
C1813 C 0.94435 0.9893 0.87815 0.0
C1814 C 0.95406 0.01087 0.88983 0.0
C1815 C 0.94086 0.02544 0.90164 0.0
C1816 C 0.91832 0.02014 0.90135 0.0
C1817 C 0.97781 0.01926 0.88946 0.0
C1818 C 0.99031 0.01305 0.90278 0.0
C1819 C 0.98821 0.03293 0.87597 0.0
C1820 C 0.97581 0.04358 0.86197 0.0
C1821 C 0.95871 0.06944 0.86295 0.0
C1822 C 0.94695 0.07911 0.84975 0.0
C1823 C 0.95226 0.06334 0.83548 0.0
C1824 C 0.96938 0.03794 0.83437 0.0
C1825 C 0.98117 0.02813 0.84753 0.0
H1826 H 0.94314 0.07087 0.82527 0.0
H1827 H 0.05806 0.99153 0.95461 0.0
H1828 H 0.91425 0.60472 0.62797 0.0
H1829 H 0.9537 0.59837 0.62428 0.0
H1830 H 0.94824 0.47967 0.63033 0.0
H1831 H 0.90907 0.48579 0.63396 0.0
H1832 H 0.97967 0.50748 0.64812 0.0
H1833 H 0.95858 0.51745 0.59498 0.0
H1834 H 0.9406 0.54623 0.57255 0.0
H1835 H 0.97987 0.64418 0.57805 0.0
H1836 H 0.99787 0.6162 0.60066 0.0
H1837 H 0.08958 0.46514 0.63173 0.0
H1838 H 0.04991 0.46637 0.62866 0.0
H1839 H 0.05221 0.58523 0.62214 0.0
H1840 H 0.09172 0.58399 0.62471 0.0
H1841 H 0.02224 0.55507 0.60361 0.0
H1842 H 0.04118 0.5479 0.65748 0.0
H1843 H 0.05887 0.52086 0.6804 0.0
H1844 H 0.02317 0.41933 0.67391 0.0
H1845 H 0.00549 0.44562 0.65081 0.0
C1846 C 0.92147 0.57727 0.6283 0.0
C1847 C 0.90859 0.54585 0.63147 0.0
C1848 C 0.94399 0.57364 0.62618 0.0
C1849 C 0.95394 0.5385 0.62704 0.0
C1850 C 0.94098 0.50707 0.62975 0.0
C1851 C 0.91858 0.51067 0.63188 0.0
C1852 C 0.97796 0.53441 0.62595 0.0
C1853 C 0.98891 0.51734 0.63825 0.0
C1854 C 0.99012 0.54806 0.61326 0.0
C1855 C 0.97943 0.56485 0.5996 0.0
C1856 C 0.96326 0.54524 0.59148 0.0
C1857 C 0.95309 0.56139 0.57872 0.0
C1858 C 0.95905 0.59705 0.5739 0.0
C1859 C 0.97525 0.61658 0.58181 0.0
C1860 C 0.98546 0.60058 0.59459 0.0
C1861 C 0.08165 0.49137 0.62933 0.0
C1862 C 0.09373 0.52454 0.62873 0.0
C1863 C 0.05898 0.49211 0.62769 0.0
C1864 C 0.04803 0.52603 0.62546 0.0
C1865 C 0.06024 0.55878 0.62395 0.0
C1866 C 0.08282 0.55806 0.62557 0.0
C1867 C 0.02387 0.52802 0.62576 0.0
C1868 C 0.01292 0.54487 0.61338 0.0
C1869 C 0.01166 0.51436 0.63842 0.0
C1870 C 0.02221 0.49856 0.65233 0.0
C1871 C 0.03723 0.51971 0.66088 0.0
C1872 C 0.04724 0.50454 0.6739 0.0
C1873 C 0.0422 0.46836 0.67858 0.0
C1874 C 0.02709 0.44732 0.67026 0.0
C1875 C 0.01707 0.46234 0.6572 0.0
H1876 H 0.04995 0.45666 0.68867 0.0
H1877 H 0.95115 0.60951 0.56403 0.0
H1878 H 0.90784 0.58898 0.39039 0.0
H1879 H 0.94708 0.5955 0.39331 0.0
H1880 H 0.95227 0.47874 0.40388 0.0
H1881 H 0.91274 0.47177 0.40074 0.0
H1882 H 0.97852 0.52406 0.42281 0.0
H1883 H 0.96434 0.50681 0.36862 0.0
H1884 H 0.94642 0.5203 0.34381 0.0
H1885 H 0.97179 0.63159 0.34478 0.0
H1886 H 0.9896 0.61892 0.36973 0.0
H1887 H 0.09015 0.4959 0.40682 0.0
H1888 H 0.05067 0.49578 0.40895 0.0
H1889 H 0.04876 0.60892 0.3925 0.0
H1890 H 0.08851 0.60862 0.3897 0.0
H1891 H 0.02042 0.56822 0.37735 0.0
H1892 H 0.03642 0.58527 0.43071 0.0
H1893 H 0.05427 0.57261 0.45562 0.0
H1894 H 0.02569 0.46363 0.45663 0.0
H1895 H 0.00792 0.47541 0.4316 0.0
C1896 C 0.91728 0.56453 0.39323 0.0
C1897 C 0.90716 0.52964 0.39501 0.0
C1898 C 0.93973 0.56841 0.39499 0.0
C1899 C 0.95266 0.53752 0.39857 0.0
C1900 C 0.94258 0.50293 0.40106 0.0
C1901 C 0.92001 0.49899 0.39927 0.0
C1902 C 0.97674 0.54132 0.39907 0.0
C1903 C 0.98776 0.53328 0.41284 0.0
C1904 C 0.98868 0.55444 0.38619 0.0
C1905 C 0.97812 0.56203 0.37112 0.0
C1906 C 0.96595 0.53425 0.36361 0.0
C1907 C 0.95584 0.54174 0.34951 0.0
C1908 C 0.95792 0.57681 0.34274 0.0
C1909 C 0.97017 0.60445 0.35005 0.0
C1910 C 0.98029 0.59713 0.36416 0.0
C1911 C 0.08138 0.52087 0.4037 0.0
C1912 C 0.09249 0.55215 0.3979 0.0
C1913 C 0.05875 0.5209 0.4051 0.0
C1914 C 0.04664 0.55242 0.401 0.0
C1915 C 0.05773 0.58425 0.39575 0.0
C1916 C 0.08046 0.58418 0.39428 0.0
C1917 C 0.0224 0.55093 0.40112 0.0
C1918 C 0.01128 0.55929 0.38741 0.0
C1919 C 0.0104 0.53827 0.41409 0.0
C1920 C 0.02097 0.53114 0.4292 0.0
C1921 C 0.03406 0.5585 0.43618 0.0
C1922 C 0.04415 0.55149 0.45034 0.0
C1923 C 0.04115 0.51731 0.45769 0.0
C1924 C 0.02801 0.49009 0.45092 0.0
C1925 C 0.0179 0.49693 0.43675 0.0
H1926 H 0.04898 0.51194 0.46864 0.0
H1927 H 0.95008 0.58255 0.33182 0.0
H1928 H 0.41327 0.10699 0.63066 0.0
H1929 H 0.45296 0.10461 0.62734 0.0
H1930 H 0.44974 0.98536 0.62257 0.0
H1931 H 0.41031 0.98755 0.62546 0.0
H1932 H 0.47903 0.00858 0.645 0.0
H1933 H 0.4614 0.03587 0.59206 0.0
H1934 H 0.44451 0.07188 0.57106 0.0
H1935 H 0.48163 0.16811 0.58411 0.0
H1936 H 0.49852 0.13281 0.60535 0.0
H1937 H 0.59012 0.97404 0.63034 0.0
H1938 H 0.5506 0.97569 0.62685 0.0
H1939 H 0.55273 0.09547 0.62443 0.0
H1940 H 0.59215 0.09391 0.62706 0.0
H1941 H 0.52369 0.07147 0.60503 0.0
H1942 H 0.53959 0.0484 0.65835 0.0
H1943 H 0.55608 0.01569 0.68042 0.0
H1944 H 0.52174 0.91589 0.66816 0.0
H1945 H 0.50527 0.9479 0.64588 0.0
C1946 C 0.42099 0.08039 0.62858 0.0
C1947 C 0.40865 0.04742 0.62859 0.0
C1948 C 0.44366 0.07904 0.62674 0.0
C1949 C 0.4543 0.04474 0.62484 0.0
C1950 C 0.4419 0.01206 0.62419 0.0
C1951 C 0.41935 0.0134 0.62591 0.0
C1952 C 0.47841 0.04232 0.62449 0.0
C1953 C 0.48879 0.02187 0.63613 0.0
C1954 C 0.49114 0.06057 0.61318 0.0
C1955 C 0.48106 0.08179 0.60039 0.0
C1956 C 0.46582 0.0648 0.59054 0.0
C1957 C 0.45628 0.08507 0.57858 0.0
C1958 C 0.46195 0.12229 0.57628 0.0
C1959 C 0.47723 0.13929 0.58592 0.0
C1960 C 0.48681 0.11916 0.59791 0.0
C1961 C 0.58221 1.00067 0.62877 0.0
C1962 C 0.5943 0.03387 0.62928 0.0
C1963 C 0.55958 1.00162 0.62693 0.0
C1964 C 0.54857 0.03579 0.62574 0.0
C1965 C 0.56075 0.06878 0.62546 0.0
C1966 C 0.58333 0.06783 0.62716 0.0
C1967 C 0.52436 0.03752 0.62553 0.0
C1968 C 0.51395 0.05796 0.61385 0.0
C1969 C 0.51155 0.01973 0.63695 0.0
C1970 C 0.52139 1.00042 0.65035 0.0
C1971 C 0.53568 0.0194 0.6603 0.0
C1972 C 0.54501 1.001 0.67285 0.0
C1973 C 0.54001 0.9637 0.67567 0.0
C1974 C 0.52563 0.94476 0.66595 0.0
C1975 C 0.51629 0.96301 0.65336 0.0
H1976 H 0.54724 0.94951 0.6854 0.0
H1977 H 0.45455 0.13793 0.56701 0.0
H1978 H 0.40624 0.07684 0.41206 0.0
H1979 H 0.44576 0.07819 0.41455 0.0
H1980 H 0.44953 0.96666 0.39646 0.0
H1981 H 0.40981 0.96543 0.39342 0.0
H1982 H 0.47893 0.98486 0.42289 0.0
H1983 H 0.45793 0.02911 0.37222 0.0
H1984 H 0.43691 0.0688 0.3545 0.0
H1985 H 0.46397 0.1665 0.37564 0.0
H1986 H 0.48489 0.12736 0.39367 0.0
H1987 H 0.58787 0.97741 0.39793 0.0
H1988 H 0.54872 0.97498 0.40141 0.0
H1989 H 0.54681 0.09447 0.40584 0.0
H1990 H 0.58613 0.09733 0.40128 0.0
H1991 H 0.51589 0.07393 0.38781 0.0
H1992 H 0.53863 0.03274 0.43734 0.0
H1993 H 0.55914 0.9955 0.45623 0.0
H1994 H 0.52886 0.89582 0.43931 0.0
H1995 H 0.50839 0.93239 0.42016 0.0
C1996 C 0.41541 0.05248 0.40863 0.0
C1997 C 0.40485 0.02128 0.40222 0.0
C1998 C 0.438 0.05325 0.41017 0.0
C1999 C 0.45056 0.02274 0.40551 0.0
C2000 C 0.44007 0.99053 0.40011 0.0
C2001 C 0.41738 0.98983 0.39842 0.0
C2002 C 0.47462 0.02587 0.40513 0.0
C2003 C 0.48711 1.00396 0.41512 0.0
C2004 C 0.48515 0.05178 0.39536 0.0
C2005 C 0.47279 0.07532 0.3844 0.0
C2006 C 0.45926 0.05906 0.37318 0.0
C2007 C 0.44738 0.08145 0.36307 0.0
C2008 C 0.44905 0.12015 0.36397 0.0
C2009 C 0.46266 0.13653 0.37497 0.0
C2010 C 0.47454 0.11425 0.38513 0.0
C2011 C 0.5792 1.00333 0.39951 0.0
C2012 C 0.59024 0.03767 0.39906 0.0
C2013 C 0.55674 1.0018 0.40178 0.0
C2014 C 0.54469 0.03447 0.4041 0.0
C2015 C 0.5557 0.06881 0.40411 0.0
C2016 C 0.57824 0.07041 0.40163 0.0
C2017 C 0.52053 0.03271 0.40555 0.0
C2018 C 0.5079 0.05491 0.39571 0.0
C2019 C 0.5099 0.00742 0.41565 0.0
C2020 C 0.52209 0.98531 0.42722 0.0
C2021 C 0.53645 1.00285 0.43757 0.0
C2022 C 0.54806 0.98186 0.44834 0.0
C2023 C 0.54534 0.94331 0.44895 0.0
C2024 C 0.53096 0.92568 0.43882 0.0
C2025 C 0.51933 0.94653 0.42801 0.0
H2026 H 0.55434 0.92711 0.45729 0.0
H2027 H 0.43984 0.13744 0.35614 0.0
H2028 H 0.58982 0.47171 0.12609 0.0
H2029 H 0.55027 0.47654 0.12279 0.0
H2030 H 0.55381 0.59464 0.13119 0.0
H2031 H 0.59312 0.59017 0.13426 0.0
H2032 H 0.52278 0.56201 0.14876 0.0
H2033 H 0.54416 0.5617 0.09534 0.0
H2034 H 0.56259 0.53724 0.07214 0.0
H2035 H 0.52492 0.43684 0.07501 0.0
H2036 H 0.50648 0.4605 0.09836 0.0
H2037 H 0.41245 0.60263 0.13391 0.0
H2038 H 0.45214 0.60329 0.13116 0.0
H2039 H 0.45122 0.48667 0.1194 0.0
H2040 H 0.41166 0.48624 0.12145 0.0
H2041 H 0.48116 0.52036 0.10284 0.0
H2042 H 0.46165 0.51722 0.15662 0.0
H2043 H 0.44347 0.53909 0.18036 0.0
H2044 H 0.47798 0.64277 0.1775 0.0
H2045 H 0.49615 0.62167 0.15361 0.0
C2046 C 0.58219 0.49876 0.12701 0.0
C2047 C 0.59462 0.53044 0.13065 0.0
C2048 C 0.55959 0.50149 0.12513 0.0
C2049 C 0.54906 0.53598 0.12677 0.0
C2050 C 0.56153 0.56771 0.13 0.0
C2051 C 0.58402 0.56503 0.13183 0.0
C2052 C 0.52498 0.53901 0.12583 0.0
C2053 C 0.51371 0.55344 0.13861 0.0
C2054 C 0.51309 0.52695 0.11277 0.0
C2055 C 0.52409 0.51274 0.09869 0.0
C2056 C 0.53993 0.53428 0.0911 0.0
C2057 C 0.55036 0.52058 0.07791 0.0
C2058 C 0.54497 0.48547 0.07213 0.0
C2059 C 0.5291 0.46402 0.07951 0.0
C2060 C 0.51864 0.47757 0.09271 0.0
C2061 C 0.42067 0.57735 0.13042 0.0
C2062 C 0.4089 0.54424 0.12818 0.0
C2063 C 0.44338 0.57765 0.12899 0.0
C2064 C 0.45475 0.54479 0.12541 0.0
C2065 C 0.4429 0.51229 0.1223 0.0
C2066 C 0.42025 0.51203 0.12364 0.0
C2067 C 0.47896 0.54348 0.12577 0.0
C2068 C 0.49024 0.52922 0.11293 0.0
C2069 C 0.49091 0.55535 0.13885 0.0
C2070 C 0.48007 0.56803 0.15324 0.0
C2071 C 0.46524 0.54479 0.16099 0.0
C2072 C 0.45496 0.55703 0.17448 0.0
C2073 C 0.45952 0.59234 0.18041 0.0
C2074 C 0.47443 0.61545 0.17288 0.0
C2075 C 0.48473 0.60336 0.15937 0.0
H2076 H 0.45154 0.60177 0.19086 0.0
H2077 H 0.55306 0.47491 0.06191 0.0
H2078 H 0.40408 0.59717 0.90987 0.0
H2079 H 0.4436 0.59855 0.91238 0.0
H2080 H 0.44677 0.48279 0.89963 0.0
H2081 H 0.4071 0.48138 0.89653 0.0
H2082 H 0.47585 0.50705 0.92513 0.0
H2083 H 0.45558 0.53855 0.87267 0.0
H2084 H 0.43515 0.57411 0.85318 0.0
H2085 H 0.46331 0.67576 0.86992 0.0
H2086 H 0.48365 0.64082 0.88969 0.0
H2087 H 0.58382 0.48668 0.89985 0.0
H2088 H 0.54476 0.48784 0.9039 0.0
H2089 H 0.54566 0.60782 0.90307 0.0
H2090 H 0.58488 0.60679 0.89791 0.0
H2091 H 0.514 0.58476 0.88623 0.0
H2092 H 0.53659 0.55536 0.9372 0.0
H2093 H 0.55658 0.52217 0.95762 0.0
H2094 H 0.5242 0.42043 0.94543 0.0
H2095 H 0.50424 0.45289 0.92479 0.0
C2096 C 0.41312 0.57192 0.90759 0.0
C2097 C 0.40243 0.53933 0.90267 0.0
C2098 C 0.4357 0.57274 0.90916 0.0
C2099 C 0.44807 0.54092 0.90601 0.0
C2100 C 0.43744 0.50764 0.9021 0.0
C2101 C 0.41479 0.50687 0.90037 0.0
C2102 C 0.47213 0.54336 0.90562 0.0
C2103 C 0.48429 0.52369 0.91656 0.0
C2104 C 0.48297 0.56615 0.89475 0.0
C2105 C 0.47094 0.58712 0.88276 0.0
C2106 C 0.45727 0.56852 0.87228 0.0
C2107 C 0.44573 0.58855 0.86117 0.0
C2108 C 0.44788 0.62719 0.86034 0.0
C2109 C 0.46163 0.64585 0.87059 0.0
C2110 C 0.47317 0.62594 0.88175 0.0
C2111 C 0.57577 0.51342 0.9004 0.0
C2112 C 0.58753 0.54667 0.89828 0.0
C2113 C 0.55339 0.51403 0.90301 0.0
C2114 C 0.54218 0.54791 0.90401 0.0
C2115 C 0.55393 0.58128 0.90238 0.0
C2116 C 0.57639 0.58068 0.89955 0.0
C2117 C 0.51806 0.54814 0.90571 0.0
C2118 C 0.50575 0.56833 0.89496 0.0
C2119 C 0.50712 0.52618 0.91691 0.0
C2120 C 0.51903 0.50654 0.92936 0.0
C2121 C 0.53384 0.52585 0.9388 0.0
C2122 C 0.54515 0.50717 0.95043 0.0
C2123 C 0.54169 0.4692 0.9528 0.0
C2124 C 0.52687 0.44984 0.94357 0.0
C2125 C 0.51553 0.46838 0.93192 0.0
H2126 H 0.55047 0.45479 0.96181 0.0
H2127 H 0.43894 0.64265 0.85172 0.0
H2128 H 0.19422 0.95542 0.95291 0.0
H2129 H 0.19743 0.96264 0.98085 0.0
H2130 H 0.19734 0.0819 0.97568 0.0
H2131 H 0.19439 0.07471 0.94757 0.0
H2132 H 0.22581 0.0624 0.99726 0.0
H2133 H 0.15104 0.03229 0.98707 0.0
H2134 H 0.12084 0.99527 0.97631 0.0
H2135 H 0.14109 0.90076 1.00287 0.0
H2136 H 0.17159 0.93709 1.01364 0.0
H2137 H 0.19671 0.11219 0.07362 0.0
H2138 H 0.19885 0.10153 0.04593 0.0
H2139 H 0.1985 0.98306 0.05358 0.0
H2140 H 0.1954 0.99363 0.0815 0.0
H2141 H 0.1715 0.99997 0.03086 0.0
H2142 H 0.24542 0.03178 0.04212 0.0
H2143 H 0.2752 0.06964 0.05295 0.0
H2144 H 0.25627 0.16178 0.02452 0.0
H2145 H 0.22618 0.12464 1.01367 0.0
C2146 C 0.19485 0.98321 0.95769 0.0
C2147 C 0.19379 0.01448 0.94796 0.0
C2148 C 0.19667 0.98733 0.97372 0.0
C2149 C 0.19715 0.02284 0.98052 0.0
C2150 C 0.19691 0.05417 0.97079 0.0
C2151 C 0.19527 0.05005 0.95469 0.0
C2152 C 0.19748 0.02718 0.99773 0.0
C2153 C 0.21377 0.04908 1.00458 0.0
C2154 C 0.18214 0.00912 1.00742 0.0
C2155 C 0.16372 0.9873 1.00104 0.0
C2156 C 0.14914 1.00354 0.99053 0.0
C2157 C 0.13195 0.98269 0.98445 0.0
C2158 C 0.12908 0.94566 0.98887 0.0
C2159 C 0.14335 0.92943 0.99944 0.0
C2160 C 0.16058 0.95014 1.00555 0.0
C2161 C 0.197 0.08379 0.0695 0.0
C2162 C 0.1957 0.05379 0.07993 0.0
C2163 C 0.19851 0.07772 0.05357 0.0
C2164 C 0.19911 0.04146 0.04754 0.0
C2165 C 0.19814 0.01135 0.05789 0.0
C2166 C 0.19655 0.01742 0.0739 0.0
C2167 C 0.19981 0.03527 0.03042 0.0
C2168 C 0.18365 0.01308 0.02357 0.0
C2169 C 0.21524 0.05317 0.02074 0.0
C2170 C 0.23343 0.07549 0.02717 0.0
C2171 C 0.24751 0.06019 0.03825 0.0
C2172 C 0.26446 0.08152 0.04438 0.0
C2173 C 0.2676 0.11812 0.03945 0.0
C2174 C 0.25382 0.13343 0.02834 0.0
C2175 C 0.23683 0.11224 0.02218 0.0
H2176 H 0.28072 0.13459 0.04422 0.0
H2177 H 0.11577 0.92956 0.98415 0.0
H2178 H 0.8485 0.05679 0.95326 0.0
H2179 H 0.84387 0.04903 0.98115 0.0
H2180 H 0.77448 0.04007 0.97513 0.0
H2181 H 0.77913 0.04715 0.94697 0.0
H2182 H 0.79242 0.09301 1.00063 0.0
H2183 H 0.79417 0.96622 0.98221 0.0
H2184 H 0.8094 0.91434 0.96701 0.0
H2185 H 0.86962 0.92323 0.9918 0.0
H2186 H 0.85486 0.97559 1.00698 0.0
H2187 H 0.77752 0.0386 0.08018 0.0
H2188 H 0.77504 0.04786 0.05209 0.0
H2189 H 0.84164 0.01155 0.04712 0.0
H2190 H 0.84351 1.00052 0.07491 0.0
H2191 H 0.82066 0.97984 0.02634 0.0
H2192 H 0.82227 0.10731 0.04324 0.0
H2193 H 0.81012 0.16238 0.05791 0.0
H2194 H 0.74757 0.15644 0.03605 0.0
H2195 H 0.75927 0.10103 0.02139 0.0
C2196 C 0.83224 0.05328 0.95787 0.0
C2197 C 0.81416 0.05269 0.94793 0.0
C2198 C 0.82962 0.04879 0.9738 0.0
C2199 C 0.80884 0.04415 0.98024 0.0
C2200 C 0.79066 0.04378 0.9704 0.0
C2201 C 0.79333 0.04754 0.95434 0.0
C2202 C 0.8065 0.0389 0.99723 0.0
C2203 C 0.79819 0.06802 1.0063 0.0
C2204 C 0.81464 0.0068 1.00462 0.0
C2205 C 0.82347 0.97504 0.99563 0.0
C2206 C 0.81072 0.95732 0.98433 0.0
C2207 C 0.81926 0.92779 0.97573 0.0
C2208 C 0.84049 0.91555 0.97841 0.0
C2209 C 0.85319 0.93276 0.98973 0.0
C2210 C 0.84474 0.96234 0.99834 0.0
C2211 C 0.79163 0.03317 0.07302 0.0
C2212 C 0.8107 0.01887 0.07966 0.0
C2213 C 0.79028 0.0385 0.05696 0.0
C2214 C 0.8082 0.03064 0.04729 0.0
C2215 C 0.82746 0.01755 0.05414 0.0
C2216 C 0.82861 0.01144 0.07006 0.0
C2217 C 0.80694 0.03437 0.03004 0.0
C2218 C 0.81463 0.00485 0.02083 0.0
C2219 C 0.79861 0.06647 0.02258 0.0
C2220 C 0.79156 0.09978 0.03136 0.0
C2221 C 0.80587 0.11759 0.04165 0.0
C2222 C 0.79908 0.14888 0.04995 0.0
C2223 C 0.77806 0.16283 0.04795 0.0
C2224 C 0.76382 0.14557 0.03761 0.0
C2225 C 0.77053 0.11423 0.0293 0.0
H2226 H 0.77283 0.18706 0.05438 0.0
H2227 H 0.84707 0.89269 0.97175 0.0
H2228 H 0.19431 0.49938 0.58093 0.0
H2229 H 0.19691 0.48965 0.5529 0.0
H2230 H 0.20165 0.60807 0.54604 0.0
H2231 H 0.19961 0.61792 0.57379 0.0
H2232 H 0.17141 0.57698 0.52688 0.0
H2233 H 0.24588 0.55372 0.54143 0.0
H2234 H 0.27497 0.52271 0.55615 0.0
H2235 H 0.25508 0.41686 0.53797 0.0
H2236 H 0.22571 0.44723 0.52325 0.0
H2237 H 0.19343 0.57542 0.44618 0.0
H2238 H 0.1966 0.5867 0.47402 0.0
H2239 H 0.20209 0.46868 0.4819 0.0
H2240 H 0.20029 0.45753 0.45431 0.0
H2241 H 0.22757 0.5004 0.50078 0.0
H2242 H 0.15281 0.5205 0.48718 0.0
H2243 H 0.12229 0.54883 0.473 0.0
H2244 H 0.14048 0.65671 0.48998 0.0
H2245 H 0.17129 0.62905 0.50412 0.0
C2246 C 0.19623 0.52329 0.57349 0.0
C2247 C 0.19646 0.55948 0.57974 0.0
C2248 C 0.19764 0.51772 0.55743 0.0
C2249 C 0.19936 0.54818 0.54728 0.0
C2250 C 0.20009 0.58413 0.55354 0.0
C2251 C 0.19882 0.58969 0.5695 0.0
C2252 C 0.19986 0.54306 0.53014 0.0
C2253 C 0.18386 0.5606 0.52116 0.0
C2254 C 0.21574 0.52098 0.52263 0.0
C2255 C 0.23349 0.50271 0.53134 0.0
C2256 C 0.24762 0.5238 0.54065 0.0
C2257 C 0.26418 0.50635 0.54897 0.0
C2258 C 0.26684 0.46784 0.54801 0.0
C2259 C 0.25299 0.44669 0.5387 0.0
C2260 C 0.23641 0.46402 0.53035 0.0
C2261 C 0.19563 0.55194 0.45381 0.0
C2262 C 0.19616 0.51548 0.44786 0.0
C2263 C 0.1972 0.55836 0.4698 0.0
C2264 C 0.19907 0.52848 0.48025 0.0
C2265 C 0.20049 0.49231 0.47424 0.0
C2266 C 0.19916 0.48593 0.45834 0.0
C2267 C 0.19905 0.53432 0.49742 0.0
C2268 C 0.21512 0.51688 0.50644 0.0
C2269 C 0.18301 0.55607 0.50501 0.0
C2270 C 0.16449 0.57276 0.49656 0.0
C2271 C 0.15039 0.5503 0.4878 0.0
C2272 C 0.13302 0.56623 0.47978 0.0
C2273 C 0.12949 0.60456 0.48055 0.0
C2274 C 0.14327 0.62703 0.48937 0.0
C2275 C 0.16067 0.61124 0.4974 0.0
H2276 H 0.11603 0.61684 0.47433 0.0
H2277 H 0.27969 0.4544 0.55445 0.0
H2278 H 0.80937 0.49924 0.44703 0.0
H2279 H 0.80688 0.49014 0.47505 0.0
H2280 H 0.79944 0.60842 0.48144 0.0
H2281 H 0.80205 0.61757 0.45359 0.0
H2282 H 0.82812 0.58327 0.50119 0.0
H2283 H 0.75625 0.54536 0.48589 0.0
H2284 H 0.72931 0.50905 0.47111 0.0
H2285 H 0.75488 0.40772 0.48989 0.0
H2286 H 0.78217 0.4434 0.50463 0.0
H2287 H 0.80392 0.57673 0.58151 0.0
H2288 H 0.80044 0.58696 0.55367 0.0
H2289 H 0.8064 0.46901 0.54567 0.0
H2290 H 0.80882 0.45849 0.57335 0.0
H2291 H 0.77749 0.49524 0.52677 0.0
H2292 H 0.85013 0.53171 0.54099 0.0
H2293 H 0.87778 0.56689 0.55559 0.0
H2294 H 0.85154 0.66958 0.53862 0.0
H2295 H 0.82355 0.63501 0.52406 0.0
C2296 C 0.80689 0.52321 0.45439 0.0
C2297 C 0.80603 0.55916 0.44802 0.0
C2298 C 0.80547 0.51802 0.47044 0.0
C2299 C 0.80287 0.5486 0.48047 0.0
C2300 C 0.80159 0.58436 0.47405 0.0
C2301 C 0.80312 0.58957 0.45808 0.0
C2302 C 0.80223 0.54374 0.49764 0.0
C2303 C 0.81679 0.5644 0.50677 0.0
C2304 C 0.78786 0.51853 0.50503 0.0
C2305 C 0.77138 0.49704 0.49625 0.0
C2306 C 0.75622 0.51532 0.48678 0.0
C2307 C 0.74087 0.49485 0.47842 0.0
C2308 C 0.74042 0.4561 0.47953 0.0
C2309 C 0.75527 0.43773 0.48903 0.0
C2310 C 0.77066 0.45807 0.4974 0.0
C2311 C 0.80417 0.55292 0.57387 0.0
C2312 C 0.80698 0.5168 0.5798 0.0
C2313 C 0.8024 0.55883 0.55788 0.0
C2314 C 0.8036 0.52883 0.54743 0.0
C2315 C 0.80557 0.49272 0.55339 0.0
C2316 C 0.8072 0.48678 0.56931 0.0
C2317 C 0.80338 0.53478 0.53031 0.0
C2318 C 0.78871 0.51427 0.52119 0.0
C2319 C 0.81773 0.55998 0.5229 0.0
C2320 C 0.83462 0.5808 0.53157 0.0
C2321 C 0.85017 0.56181 0.54046 0.0
C2322 C 0.86591 0.58163 0.54871 0.0
C2323 C 0.86637 0.62045 0.54807 0.0
C2324 C 0.85113 0.63952 0.53913 0.0
C2325 C 0.83534 0.61982 0.53086 0.0
H2326 H 0.87857 0.63575 0.55447 0.0
H2327 H 0.72853 0.4403 0.47304 0.0
H2328 H 0.70678 0.00853 0.58147 0.0
H2329 H 0.70714 0.99559 0.55369 0.0
H2330 H 0.67831 0.10276 0.54494 0.0
H2331 H 0.67681 0.11497 0.57244 0.0
H2332 H 0.66006 0.05537 0.52703 0.0
H2333 H 0.73468 0.08288 0.53947 0.0
H2334 H 0.76939 0.07515 0.55334 0.0
H2335 H 0.77402 0.96256 0.53708 0.0
H2336 H 0.73919 0.96949 0.52326 0.0
H2337 H 0.68234 0.06842 0.44639 0.0
H2338 H 0.68366 0.08026 0.47432 0.0
H2339 H 0.7062 0.96828 0.48191 0.0
H2340 H 0.70524 0.95661 0.45412 0.0
H2341 H 0.72779 0.01686 0.50026 0.0
H2342 H 0.65318 0.99042 0.48753 0.0
H2343 H 0.61876 0.99908 0.47341 0.0
H2344 H 0.61453 0.11136 0.4901 0.0
H2345 H 0.6491 0.1035 0.50416 0.0
C2346 C 0.70033 0.02922 0.57367 0.0
C2347 C 0.69204 0.06307 0.5794 0.0
C2348 C 0.70076 0.02195 0.55771 0.0
C2349 C 0.69311 0.04847 0.54706 0.0
C2350 C 0.68444 0.08182 0.55279 0.0
C2351 C 0.68384 0.08897 0.56866 0.0
C2352 C 0.69397 0.04189 0.52997 0.0
C2353 C 0.67499 0.0474 0.52121 0.0
C2354 C 0.71325 0.03076 0.52223 0.0
C2355 C 0.73422 0.02658 0.53047 0.0
C2356 C 0.74303 0.05639 0.53895 0.0
C2357 C 0.76274 0.05217 0.54678 0.0
C2358 C 0.77388 0.01835 0.54612 0.0
C2359 C 0.76536 0.98872 0.53759 0.0
C2360 C 0.74564 0.99278 0.52975 0.0
C2361 C 0.68787 0.04656 0.45399 0.0
C2362 C 0.69349 0.01146 0.448 0.0
C2363 C 0.68846 0.05322 0.46998 0.0
C2364 C 0.69474 0.02498 0.4803 0.0
C2365 C 0.70119 0.99047 0.47426 0.0
C2366 C 0.70048 0.98375 0.45834 0.0
C2367 C 0.69398 0.03075 0.4974 0.0
C2368 C 0.71293 0.02494 0.50613 0.0
C2369 C 0.6747 0.0418 0.50512 0.0
C2370 C 0.65384 0.04649 0.49677 0.0
C2371 C 0.64499 0.01704 0.4881 0.0
C2372 C 0.62544 0.02179 0.48012 0.0
C2373 C 0.61449 0.05578 0.48082 0.0
C2374 C 0.62304 0.08506 0.48954 0.0
C2375 C 0.64261 0.08047 0.49753 0.0
H2376 H 0.59936 0.0594 0.47463 0.0
H2377 H 0.78913 0.01513 0.5522 0.0
H2378 H 0.32206 0.00467 0.44706 0.0
H2379 H 0.32271 0.99412 0.47508 0.0
H2380 H 0.27919 0.08686 0.48172 0.0
H2381 H 0.27891 0.09775 0.45391 0.0
H2382 H 0.31031 0.09246 0.50153 0.0
H2383 H 0.26316 0.99278 0.48603 0.0
H2384 H 0.25238 0.93715 0.47119 0.0
H2385 H 0.3065 0.87683 0.48988 0.0
H2386 H 0.31777 0.93228 0.50467 0.0
H2387 H 0.28746 0.05803 0.58169 0.0
H2388 H 0.28455 0.06738 0.55368 0.0
H2389 H 0.33035 0.97847 0.54602 0.0
H2390 H 0.3333 0.96912 0.57376 0.0
H2391 H 0.29719 0.97093 0.52685 0.0
H2392 H 0.34449 0.07155 0.54196 0.0
H2393 H 0.35489 0.12734 0.55683 0.0
H2394 H 0.29966 0.18599 0.53887 0.0
H2395 H 0.28876 0.13036 0.52405 0.0
C2396 C 0.31238 0.02235 0.45451 0.0
C2397 C 0.30052 0.05214 0.44827 0.0
C2398 C 0.31275 0.01637 0.47055 0.0
C2399 C 0.30094 0.03964 0.48065 0.0
C2400 C 0.2886 0.06866 0.4743 0.0
C2401 C 0.28842 0.07484 0.45836 0.0
C2402 C 0.30195 0.03489 0.49783 0.0
C2403 C 0.30712 0.06593 0.50704 0.0
C2404 C 0.29824 1.00024 0.50515 0.0
C2405 C 0.29142 0.9668 0.49634 0.0
C2406 C 0.27285 0.96773 0.48689 0.0
C2407 C 0.26664 0.93622 0.4785 0.0
C2408 C 0.27878 0.90351 0.47956 0.0
C2409 C 0.29713 0.9022 0.48905 0.0
C2410 C 0.30342 0.93365 0.49745 0.0
C2411 C 0.29706 0.04078 0.57404 0.0
C2412 C 0.31046 0.01262 0.58005 0.0
C2413 C 0.29537 0.04607 0.55799 0.0
C2414 C 0.30725 0.02362 0.54763 0.0
C2415 C 0.32084 0.99594 0.55367 0.0
C2416 C 0.32247 0.99058 0.56962 0.0
C2417 C 0.30555 0.02847 0.53051 0.0
C2418 C 0.30028 0.99745 0.52131 0.0
C2419 C 0.30909 0.06316 0.5232 0.0
C2420 C 0.31569 0.09668 0.53202 0.0
C2421 C 0.33448 0.09626 0.54127 0.0
C2422 C 0.34048 0.12787 0.54968 0.0
C2423 C 0.32791 0.16016 0.54883 0.0
C2424 C 0.30936 0.16094 0.53954 0.0
C2425 C 0.30327 0.1294 0.53112 0.0
H2426 H 0.33258 0.18459 0.55535 0.0
H2427 H 0.27395 0.87914 0.47305 0.0
H2428 H 0.71074 0.61425 0.07393 0.0
H2429 H 0.71225 0.60493 0.046 0.0
H2430 H 0.68479 0.49525 0.05154 0.0
H2431 H 0.68399 0.50422 0.07966 0.0
H2432 H 0.71361 0.49239 0.02979 0.0
H2433 H 0.65395 0.57438 0.04003 0.0
H2434 H 0.63561 0.62984 0.0506 0.0
H2435 H 0.67716 0.70049 0.02357 0.0
H2436 H 0.69596 0.64543 1.01299 0.0
H2437 H 0.66678 0.46831 0.95631 0.0
H2438 H 0.67246 0.4807 0.98341 0.0
H2439 H 0.71256 0.57513 0.97212 0.0
H2440 H 0.70761 0.56229 0.9445 0.0
H2441 H 0.68019 0.58796 0.99606 0.0
H2442 H 0.73731 0.50169 0.98412 0.0
H2443 H 0.75253 0.44405 0.97308 0.0
H2444 H 0.71209 0.37886 1.00315 0.0
H2445 H 0.69635 0.43611 0.0142 0.0
C2446 C 0.70511 0.58809 0.06919 0.0
C2447 C 0.69706 0.56009 0.079 0.0
C2448 C 0.70588 0.58281 0.05318 0.0
C2449 C 0.69811 0.54973 0.04649 0.0
C2450 C 0.6908 0.52114 0.05633 0.0
C2451 C 0.69036 0.52621 0.07242 0.0
C2452 C 0.69721 0.5453 0.02928 0.0
C2453 C 0.70611 0.5132 0.02248 0.0
C2454 C 0.68781 0.57265 0.01954 0.0
C2455 C 0.67652 0.6058 0.02585 0.0
C2456 C 0.65928 0.60176 0.03643 0.0
C2457 C 0.64879 0.63312 0.04241 0.0
C2458 C 0.65526 0.66867 0.0378 0.0
C2459 C 0.6722 0.67293 0.02716 0.0
C2460 C 0.68277 0.64166 0.02116 0.0
C2461 C 0.67713 0.49148 0.95931 0.0
C2462 C 0.68701 0.51384 0.94787 0.0
C2463 C 0.68025 0.49861 0.975 0.0
C2464 C 0.69316 0.52851 0.97986 0.0
C2465 C 0.7026 0.55172 0.96863 0.0
C2466 C 0.69969 0.54434 0.9528 0.0
C2467 C 0.69646 0.5351 0.9967 0.0
C2468 C 0.68792 0.56747 1.00342 0.0
C2469 C 0.70585 0.50774 1.00637 0.0
C2470 C 0.71553 0.47324 0.99991 0.0
C2471 C 0.73155 0.47507 0.98831 0.0
C2472 C 0.74028 0.44246 0.98206 0.0
C2473 C 0.73325 0.40782 0.98739 0.0
C2474 C 0.71751 0.40572 0.99902 0.0
C2475 C 0.7087 0.43824 1.0053 0.0
H2476 H 0.74002 0.3826 0.98253 0.0
H2477 H 0.64711 0.69292 0.04243 0.0
H2478 H 0.28025 0.61328 0.95524 0.0
H2479 H 0.28138 0.60092 0.98291 0.0
H2480 H 0.31841 0.50116 0.97442 0.0
H2481 H 0.3172 0.51343 0.94652 0.0
H2482 H 0.28875 0.48953 0.99675 0.0
H2483 H 0.34303 0.58227 0.98696 0.0
H2484 H 0.35733 0.64155 0.97685 0.0
H2485 H 0.31276 0.70206 1.00567 0.0
H2486 H 0.29798 0.64309 0.01579 0.0
H2487 H 0.32851 0.46463 0.07235 0.0
H2488 H 0.32566 0.47706 0.04483 0.0
H2489 H 0.28747 0.5749 0.05442 0.0
H2490 H 0.29018 0.56238 0.08226 0.0
H2491 H 0.31708 0.58785 0.03164 0.0
H2492 H 0.26327 0.49458 0.04175 0.0
H2493 H 0.24925 0.43506 0.0518 0.0
H2494 H 0.29334 0.37527 0.02236 0.0
H2495 H 0.30785 0.43446 1.01229 0.0
C2496 C 0.28869 0.5887 0.95922 0.0
C2497 C 0.29889 0.56461 0.94862 0.0
C2498 C 0.28934 0.58167 0.9751 0.0
C2499 C 0.30041 0.55054 0.98088 0.0
C2500 C 0.30987 0.52552 0.9703 0.0
C2501 C 0.30912 0.53247 0.95433 0.0
C2502 C 0.30233 0.54464 0.99794 0.0
C2503 C 0.29523 0.51086 1.00433 0.0
C2504 C 0.31028 0.57274 1.008 0.0
C2505 C 0.31926 0.60825 1.00203 0.0
C2506 C 0.33618 0.60821 0.99106 0.0
C2507 C 0.34438 0.64176 0.98534 0.0
C2508 C 0.33592 0.67555 0.99059 0.0
C2509 C 0.31928 0.67586 1.0016 0.0
C2510 C 0.31099 0.64239 1.00735 0.0
C2511 C 0.31931 0.48866 0.0687 0.0
C2512 C 0.30925 0.51213 0.07963 0.0
C2513 C 0.31773 0.49578 0.05287 0.0
C2514 C 0.30595 0.52648 0.04743 0.0
C2515 C 0.29653 0.55086 0.05829 0.0
C2516 C 0.29814 0.54375 0.07422 0.0
C2517 C 0.30352 0.53273 0.03043 0.0
C2518 C 0.31055 0.56656 0.02406 0.0
C2519 C 0.29555 0.50465 0.02039 0.0
C2520 C 0.28678 0.46898 0.02636 0.0
C2521 C 0.27009 0.46875 0.0375 0.0
C2522 C 0.26204 0.43507 0.04319 0.0
C2523 C 0.27044 0.40141 0.03775 0.0
C2524 C 0.28687 0.40136 0.02658 0.0
C2525 C 0.295 0.43497 0.02086 0.0
H2526 H 0.26418 0.37536 0.04217 0.0
H2527 H 0.34229 0.70149 0.98614 0.0
loop_
_geom_bond_atom_site_label_1
_geom_bond_atom_site_label_2
_geom_bond_distance
_geom_bond_site_symmetry_2
_ccdc_geom_bond_type
C0 C1 1.351 . S
C0 N3 1.368 . S
C0 H5 0.931 . S
C1 C0 1.351 . S
C1 N2 1.373 . S
C1 H29 0.930 . S
N2 C1 1.373 . S
N2 C4 1.340 . S
N3 C0 1.368 . S
N3 C4 1.321 . S
N3 Co6 2.135 . S
C4 N2 1.340 . S
C4 N3 1.321 . S
C4 H28 0.930 . S
H5 C0 0.931 . S
Co6 N3 2.135 . S
Co6 N9 2.121 . S
Co6 O14 2.055 . S
Co6 O17 2.039 1_545 S
Co6 N20 2.140 . S
C7 O8 1.227 . S
C7 O17 1.265 . S
O8 C7 1.227 . S
N9 Co6 2.121 . S
N9 C11 1.375 . S
N9 C12 1.313 . S
C10 C11 1.338 . S
C10 N13 1.377 . S
C10 H30 0.930 1_545 S
C11 N9 1.375 . S
C11 C10 1.338 . S
C11 H15 0.931 1_545 S
C12 N9 1.313 . S
C12 N13 1.344 . S
C12 H16 0.930 . S
N13 C10 1.377 . S
N13 C12 1.344 . S
O14 Co6 2.055 . S
O14 C18 1.253 . S
H15 C11 0.931 1_565 S
H16 C12 0.930 . S
O17 Co6 2.039 1_565 S
O17 C7 1.265 . S
C18 O14 1.253 . S
C18 O19 1.227 . S
O19 C18 1.227 . S
N20 Co6 2.140 . S
N20 C23 1.346 . S
N20 C24 1.345 . S
C21 C22 1.387 . S
C21 C25 1.391 . S
C22 C21 1.387 . S
C22 C23 1.369 . S
C22 H31 0.929 . S
C23 N20 1.346 . S
C23 C22 1.369 . S
C23 H26 0.928 . S
C24 N20 1.345 . S
C24 C25 1.371 . S
C24 H27 0.931 . S
C25 C21 1.391 . S
C25 C24 1.371 . S
C25 H32 0.930 . S
H26 C23 0.928 . S
H27 C24 0.931 . S
H28 C4 0.930 . S
H29 C1 0.930 . S
H30 C10 0.930 1_565 S
H31 C22 0.929 . S
H32 C25 0.930 . S
C33 C34 1.351 . S
C33 N36 1.368 1_565 S
C33 H38 0.931 . S
C34 C33 1.351 . S
C34 N35 1.373 1_565 S
C34 H62 0.930 . S
N35 C34 1.373 1_545 S
N35 C37 1.340 . S
N36 C33 1.368 1_545 S
N36 C37 1.321 . S
N36 Co39 2.135 . S
C37 N35 1.340 . S
C37 N36 1.321 . S
C37 H61 0.930 . S
H38 C33 0.931 . S
Co39 N36 2.135 . S
Co39 N42 2.121 . S
Co39 O47 2.055 1_545 S
Co39 O50 2.039 . S
Co39 N53 2.140 . S
C40 O41 1.227 . S
C40 O50 1.265 . S
O41 C40 1.227 . S
N42 Co39 2.121 . S
N42 C44 1.375 . S
N42 C45 1.313 . S
C43 C44 1.338 . S
C43 N46 1.377 . S
C43 H63 0.930 . S
C44 N42 1.375 . S
C44 C43 1.338 . S
C44 H48 0.931 . S
C45 N42 1.313 . S
C45 N46 1.344 . S
C45 H49 0.930 1_545 S
N46 C43 1.377 . S
N46 C45 1.344 . S
O47 Co39 2.055 1_565 S
O47 C51 1.253 . S
H48 C44 0.931 . S
H49 C45 0.930 1_565 S
O50 Co39 2.039 . S
O50 C40 1.265 . S
C51 O47 1.253 . S
C51 O52 1.227 . S
O52 C51 1.227 . S
N53 Co39 2.140 . S
N53 C56 1.346 . S
N53 C57 1.345 . S
C54 C55 1.387 . S
C54 C58 1.391 . S
C55 C54 1.387 . S
C55 C56 1.369 . S
C55 H64 0.929 . S
C56 N53 1.346 . S
C56 C55 1.369 . S
C56 H59 0.928 . S
C57 N53 1.345 . S
C57 C58 1.371 . S
C57 H60 0.931 1_545 S
C58 C54 1.391 . S
C58 C57 1.371 . S
C58 H65 0.930 1_545 S
H59 C56 0.928 . S
H60 C57 0.931 1_565 S
H61 C37 0.930 . S
H62 C34 0.930 . S
H63 C43 0.930 . S
H64 C55 0.929 . S
H65 C58 0.930 1_565 S
C66 C67 1.351 . S
C66 N69 1.368 1_565 S
C66 H71 0.931 . S
C67 C66 1.351 . S
C67 N68 1.373 1_565 S
C67 H95 0.930 . S
N68 C67 1.373 1_545 S
N68 C70 1.340 . S
N69 C66 1.368 1_545 S
N69 C70 1.321 . S
N69 Co72 2.135 . S
C70 N68 1.340 . S
C70 N69 1.321 . S
C70 H94 0.930 . S
H71 C66 0.931 . S
Co72 N69 2.135 . S
Co72 N75 2.121 . S
Co72 O80 2.055 1_545 S
Co72 O83 2.039 . S
Co72 N86 2.140 . S
C73 O74 1.227 . S
C73 O83 1.265 . S
O74 C73 1.227 . S
N75 Co72 2.121 . S
N75 C77 1.375 . S
N75 C78 1.313 . S
C76 C77 1.338 . S
C76 N79 1.377 . S
C76 H96 0.930 . S
C77 N75 1.375 . S
C77 C76 1.338 . S
C77 H81 0.931 . S
C78 N75 1.313 . S
C78 N79 1.344 . S
C78 H82 0.930 1_545 S
N79 C76 1.377 . S
N79 C78 1.344 . S
O80 Co72 2.055 1_565 S
O80 C84 1.253 . S
H81 C77 0.931 . S
H82 C78 0.930 1_565 S
O83 Co72 2.039 . S
O83 C73 1.265 . S
C84 O80 1.253 . S
C84 O85 1.227 . S
O85 C84 1.227 . S
N86 Co72 2.140 . S
N86 C89 1.346 . S
N86 C90 1.345 . S
C87 C88 1.387 . S
C87 C91 1.391 . S
C88 C87 1.387 . S
C88 C89 1.369 . S
C88 H97 0.929 . S
C89 N86 1.346 . S
C89 C88 1.369 . S
C89 H92 0.928 . S
C90 N86 1.345 . S
C90 C91 1.371 . S
C90 H93 0.931 1_545 S
C91 C87 1.391 . S
C91 C90 1.371 . S
C91 H98 0.930 1_545 S
H92 C89 0.928 . S
H93 C90 0.931 1_565 S
H94 C70 0.930 . S
H95 C67 0.930 . S
H96 C76 0.930 . S
H97 C88 0.929 . S
H98 C91 0.930 1_565 S
C99 C100 1.351 . S
C99 N102 1.368 . S
C99 H104 0.931 . S
C100 C99 1.351 . S
C100 N101 1.373 . S
C100 H128 0.930 . S
N101 C100 1.373 . S
N101 C103 1.340 . S
N102 C99 1.368 . S
N102 C103 1.321 . S
N102 Co105 2.135 . S
C103 N101 1.340 . S
C103 N102 1.321 . S
C103 H127 0.930 . S
H104 C99 0.931 . S
Co105 N102 2.135 . S
Co105 N108 2.121 . S
Co105 O113 2.055 . S
Co105 O116 2.039 1_545 S
Co105 N119 2.140 . S
C106 O107 1.227 . S
C106 O116 1.265 . S
O107 C106 1.227 . S
N108 Co105 2.121 . S
N108 C110 1.375 . S
N108 C111 1.313 . S
C109 C110 1.338 . S
C109 N112 1.377 . S
C109 H129 0.930 1_545 S
C110 N108 1.375 . S
C110 C109 1.338 . S
C110 H114 0.931 1_545 S
C111 N108 1.313 . S
C111 N112 1.344 . S
C111 H115 0.930 . S
N112 C109 1.377 . S
N112 C111 1.344 . S
O113 Co105 2.055 . S
O113 C117 1.253 . S
H114 C110 0.931 1_565 S
H115 C111 0.930 . S
O116 Co105 2.039 1_565 S
O116 C106 1.265 . S
C117 O113 1.253 . S
C117 O118 1.227 . S
O118 C117 1.227 . S
N119 Co105 2.140 . S
N119 C122 1.346 . S
N119 C123 1.345 . S
C120 C121 1.387 . S
C120 C124 1.391 . S
C121 C120 1.387 . S
C121 C122 1.369 . S
C121 H130 0.929 . S
C122 N119 1.346 . S
C122 C121 1.369 . S
C122 H125 0.928 . S
C123 N119 1.345 . S
C123 C124 1.371 . S
C123 H126 0.931 . S
C124 C120 1.391 . S
C124 C123 1.371 . S
C124 H131 0.930 . S
H125 C122 0.928 . S
H126 C123 0.931 . S
H127 C103 0.930 . S
H128 C100 0.930 . S
H129 C109 0.930 1_565 S
H130 C121 0.929 . S
H131 C124 0.930 . S
C132 C133 1.351 . S
C132 N135 1.368 . S
C132 H137 0.931 . S
C133 C132 1.351 . S
C133 N134 1.373 . S
C133 H161 0.930 . S
N134 C133 1.373 . S
N134 C136 1.340 . S
N135 C132 1.368 . S
N135 C136 1.321 . S
N135 Co138 2.135 . S
C136 N134 1.340 . S
C136 N135 1.321 . S
C136 H160 0.930 . S
H137 C132 0.931 . S
Co138 N135 2.135 . S
Co138 N141 2.121 . S
Co138 O146 2.055 . S
Co138 O149 2.039 . S
Co138 N152 2.140 . S
C139 O140 1.227 . S
C139 O149 1.265 . S
O140 C139 1.227 . S
N141 Co138 2.121 . S
N141 C143 1.375 . S
N141 C144 1.313 . S
C142 C143 1.338 . S
C142 N145 1.377 . S
C142 H162 0.930 . S
C143 N141 1.375 . S
C143 C142 1.338 . S
C143 H147 0.931 . S
C144 N141 1.313 . S
C144 N145 1.344 . S
C144 H148 0.930 . S
N145 C142 1.377 . S
N145 C144 1.344 . S
O146 Co138 2.055 . S
O146 C150 1.253 . S
H147 C143 0.931 . S
H148 C144 0.930 . S
O149 Co138 2.039 . S
O149 C139 1.265 . S
C150 O146 1.253 . S
C150 O151 1.227 . S
O151 C150 1.227 . S
N152 Co138 2.140 . S
N152 C155 1.346 . S
N152 C156 1.345 . S
C153 C154 1.387 . S
C153 C157 1.391 . S
C154 C153 1.387 . S
C154 C155 1.369 . S
C154 H163 0.929 . S
C155 N152 1.346 . S
C155 C154 1.369 . S
C155 H158 0.928 . S
C156 N152 1.345 . S
C156 C157 1.371 . S
C156 H159 0.931 . S
C157 C153 1.391 . S
C157 C156 1.371 . S
C157 H164 0.930 . S
H158 C155 0.928 . S
H159 C156 0.931 . S
H160 C136 0.930 . S
H161 C133 0.930 . S
H162 C142 0.930 . S
H163 C154 0.929 . S
H164 C157 0.930 . S
C165 C166 1.351 . S
C165 N168 1.368 . S
C165 H170 0.931 . S
C166 C165 1.351 . S
C166 N167 1.373 . S
C166 H194 0.930 . S
N167 C166 1.373 . S
N167 C169 1.340 . S
N168 C165 1.368 . S
N168 C169 1.321 . S
N168 Co171 2.135 . S
C169 N167 1.340 . S
C169 N168 1.321 . S
C169 H193 0.930 . S
H170 C165 0.931 . S
Co171 N168 2.135 . S
Co171 N174 2.121 . S
Co171 O179 2.055 . S
Co171 O182 2.039 . S
Co171 N185 2.140 . S
C172 O173 1.227 . S
C172 O182 1.265 . S
O173 C172 1.227 . S
N174 Co171 2.121 . S
N174 C176 1.375 . S
N174 C177 1.313 . S
C175 C176 1.338 . S
C175 N178 1.377 . S
C175 H195 0.930 . S
C176 N174 1.375 . S
C176 C175 1.338 . S
C176 H180 0.931 . S
C177 N174 1.313 . S
C177 N178 1.344 . S
C177 H181 0.930 . S
N178 C175 1.377 . S
N178 C177 1.344 . S
O179 Co171 2.055 . S
O179 C183 1.253 . S
H180 C176 0.931 . S
H181 C177 0.930 . S
O182 Co171 2.039 . S
O182 C172 1.265 . S
C183 O179 1.253 . S
C183 O184 1.227 . S
O184 C183 1.227 . S
N185 Co171 2.140 . S
N185 C188 1.346 . S
N185 C189 1.345 . S
C186 C187 1.387 . S
C186 C190 1.391 . S
C187 C186 1.387 . S
C187 C188 1.369 . S
C187 H196 0.929 . S
C188 N185 1.346 . S
C188 C187 1.369 . S
C188 H191 0.928 . S
C189 N185 1.345 . S
C189 C190 1.371 . S
C189 H192 0.931 . S
C190 C186 1.391 . S
C190 C189 1.371 . S
C190 H197 0.930 . S
H191 C188 0.928 . S
H192 C189 0.931 . S
H193 C169 0.930 . S
H194 C166 0.930 . S
H195 C175 0.930 . S
H196 C187 0.929 . S
H197 C190 0.930 . S
C198 C199 1.351 . S
C198 N201 1.368 . S
C198 H203 0.931 . S
C199 C198 1.351 . S
C199 N200 1.373 . S
C199 H227 0.930 . S
N200 C199 1.373 . S
N200 C202 1.340 . S
N201 C198 1.368 . S
N201 C202 1.321 . S
N201 Co204 2.135 . S
C202 N200 1.340 . S
C202 N201 1.321 . S
C202 H226 0.930 . S
H203 C198 0.931 . S
Co204 N201 2.135 . S
Co204 N207 2.121 . S
Co204 O212 2.055 . S
Co204 O215 2.039 . S
Co204 N218 2.140 . S
C205 O206 1.227 . S
C205 O215 1.265 . S
O206 C205 1.227 . S
N207 Co204 2.121 . S
N207 C209 1.375 . S
N207 C210 1.313 . S
C208 C209 1.338 . S
C208 N211 1.377 . S
C208 H228 0.930 . S
C209 N207 1.375 . S
C209 C208 1.338 . S
C209 H213 0.931 . S
C210 N207 1.313 . S
C210 N211 1.344 . S
C210 H214 0.930 . S
N211 C208 1.377 . S
N211 C210 1.344 . S
O212 Co204 2.055 . S
O212 C216 1.253 . S
H213 C209 0.931 . S
H214 C210 0.930 . S
O215 Co204 2.039 . S
O215 C205 1.265 . S
C216 O212 1.253 . S
C216 O217 1.227 . S
O217 C216 1.227 . S
N218 Co204 2.140 . S
N218 C221 1.346 . S
N218 C222 1.345 . S
C219 C220 1.387 . S
C219 C223 1.391 . S
C220 C219 1.387 . S
C220 C221 1.369 . S
C220 H229 0.929 . S
C221 N218 1.346 . S
C221 C220 1.369 . S
C221 H224 0.928 . S
C222 N218 1.345 . S
C222 C223 1.371 . S
C222 H225 0.931 . S
C223 C219 1.391 . S
C223 C222 1.371 . S
C223 H230 0.930 . S
H224 C221 0.928 . S
H225 C222 0.931 . S
H226 C202 0.930 . S
H227 C199 0.930 . S
H228 C208 0.930 . S
H229 C220 0.929 . S
H230 C223 0.930 . S
C231 C232 1.351 . S
C231 N234 1.368 . S
C231 H236 0.931 . S
C232 C231 1.351 . S
C232 N233 1.373 . S
C232 H260 0.930 . S
N233 C232 1.373 . S
N233 C235 1.340 . S
N234 C231 1.368 . S
N234 C235 1.321 . S
N234 Co237 2.135 . S
C235 N233 1.340 . S
C235 N234 1.321 . S
C235 H259 0.930 . S
H236 C231 0.931 . S
Co237 N234 2.135 . S
Co237 N240 2.121 . S
Co237 O245 2.055 . S
Co237 O248 2.039 . S
Co237 N251 2.140 . S
C238 O239 1.227 . S
C238 O248 1.265 . S
O239 C238 1.227 . S
N240 Co237 2.121 . S
N240 C242 1.375 . S
N240 C243 1.313 . S
C241 C242 1.338 . S
C241 N244 1.377 . S
C241 H261 0.930 . S
C242 N240 1.375 . S
C242 C241 1.338 . S
C242 H246 0.931 . S
C243 N240 1.313 . S
C243 N244 1.344 . S
C243 H247 0.930 . S
N244 C241 1.377 . S
N244 C243 1.344 . S
O245 Co237 2.055 . S
O245 C249 1.253 . S
H246 C242 0.931 . S
H247 C243 0.930 . S
O248 Co237 2.039 . S
O248 C238 1.265 . S
C249 O245 1.253 . S
C249 O250 1.227 . S
O250 C249 1.227 . S
N251 Co237 2.140 . S
N251 C254 1.346 . S
N251 C255 1.345 . S
C252 C253 1.387 . S
C252 C256 1.391 . S
C253 C252 1.387 . S
C253 C254 1.369 . S
C253 H262 0.929 . S
C254 N251 1.346 . S
C254 C253 1.369 . S
C254 H257 0.928 . S
C255 N251 1.345 . S
C255 C256 1.371 . S
C255 H258 0.931 . S
C256 C252 1.391 . S
C256 C255 1.371 . S
C256 H263 0.930 . S
H257 C254 0.928 . S
H258 C255 0.931 . S
H259 C235 0.930 . S
H260 C232 0.930 . S
H261 C241 0.930 . S
H262 C253 0.929 . S
H263 C256 0.930 . S
C264 C265 1.351 . S
C264 N267 1.368 . S
C264 H269 0.931 . S
C265 C264 1.351 . S
C265 N266 1.373 . S
C265 H293 0.930 . S
N266 C265 1.373 . S
N266 C268 1.340 . S
N267 C264 1.368 . S
N267 C268 1.321 . S
N267 Co270 2.135 . S
C268 N266 1.340 . S
C268 N267 1.321 . S
C268 H292 0.930 . S
H269 C264 0.931 . S
Co270 N267 2.135 . S
Co270 N273 2.121 . S
Co270 O278 2.055 . S
Co270 O281 2.039 1_545 S
Co270 N284 2.140 . S
C271 O272 1.227 . S
C271 O281 1.265 . S
O272 C271 1.227 . S
N273 Co270 2.121 . S
N273 C275 1.375 . S
N273 C276 1.313 . S
C274 C275 1.338 . S
C274 N277 1.377 . S
C274 H294 0.930 1_545 S
C275 N273 1.375 . S
C275 C274 1.338 . S
C275 H279 0.931 1_545 S
C276 N273 1.313 . S
C276 N277 1.344 . S
C276 H280 0.930 . S
N277 C274 1.377 . S
N277 C276 1.344 . S
O278 Co270 2.055 . S
O278 C282 1.253 . S
H279 C275 0.931 1_565 S
H280 C276 0.930 . S
O281 Co270 2.039 1_565 S
O281 C271 1.265 . S
C282 O278 1.253 . S
C282 O283 1.227 . S
O283 C282 1.227 . S
N284 Co270 2.140 . S
N284 C287 1.346 . S
N284 C288 1.345 . S
C285 C286 1.387 . S
C285 C289 1.391 . S
C286 C285 1.387 . S
C286 C287 1.369 . S
C286 H295 0.929 . S
C287 N284 1.346 . S
C287 C286 1.369 . S
C287 H290 0.928 . S
C288 N284 1.345 . S
C288 C289 1.371 . S
C288 H291 0.931 . S
C289 C285 1.391 . S
C289 C288 1.371 . S
C289 H296 0.930 . S
H290 C287 0.928 . S
H291 C288 0.931 . S
H292 C268 0.930 . S
H293 C265 0.930 . S
H294 C274 0.930 1_565 S
H295 C286 0.929 . S
H296 C289 0.930 . S
C297 C298 1.351 . S
C297 N300 1.368 1_565 S
C297 H302 0.931 . S
C298 C297 1.351 . S
C298 N299 1.373 1_565 S
C298 H326 0.930 . S
N299 C298 1.373 1_545 S
N299 C301 1.340 . S
N300 C297 1.368 1_545 S
N300 C301 1.321 . S
N300 Co303 2.135 . S
C301 N299 1.340 . S
C301 N300 1.321 . S
C301 H325 0.930 . S
H302 C297 0.931 . S
Co303 N300 2.135 . S
Co303 N306 2.121 . S
Co303 O311 2.055 1_545 S
Co303 O314 2.039 . S
Co303 N317 2.140 . S
C304 O305 1.227 . S
C304 O314 1.265 . S
O305 C304 1.227 . S
N306 Co303 2.121 . S
N306 C308 1.375 . S
N306 C309 1.313 . S
C307 C308 1.338 . S
C307 N310 1.377 . S
C307 H327 0.930 . S
C308 N306 1.375 . S
C308 C307 1.338 . S
C308 H312 0.931 . S
C309 N306 1.313 . S
C309 N310 1.344 . S
C309 H313 0.930 1_545 S
N310 C307 1.377 . S
N310 C309 1.344 . S
O311 Co303 2.055 1_565 S
O311 C315 1.253 . S
H312 C308 0.931 . S
H313 C309 0.930 1_565 S
O314 Co303 2.039 . S
O314 C304 1.265 . S
C315 O311 1.253 . S
C315 O316 1.227 . S
O316 C315 1.227 . S
N317 Co303 2.140 . S
N317 C320 1.346 . S
N317 C321 1.345 . S
C318 C319 1.387 . S
C318 C322 1.391 . S
C319 C318 1.387 . S
C319 C320 1.369 . S
C319 H328 0.929 . S
C320 N317 1.346 . S
C320 C319 1.369 . S
C320 H323 0.928 . S
C321 N317 1.345 . S
C321 C322 1.371 . S
C321 H324 0.931 1_545 S
C322 C318 1.391 . S
C322 C321 1.371 . S
C322 H329 0.930 1_545 S
H323 C320 0.928 . S
H324 C321 0.931 1_565 S
H325 C301 0.930 . S
H326 C298 0.930 . S
H327 C307 0.930 . S
H328 C319 0.929 . S
H329 C322 0.930 1_565 S
C330 C331 1.351 . S
C330 N333 1.368 1_565 S
C330 H335 0.931 . S
C331 C330 1.351 . S
C331 N332 1.373 1_565 S
C331 H359 0.930 . S
N332 C331 1.373 1_545 S
N332 C334 1.340 . S
N333 C330 1.368 1_545 S
N333 C334 1.321 . S
N333 Co336 2.135 . S
C334 N332 1.340 . S
C334 N333 1.321 . S
C334 H358 0.930 . S
H335 C330 0.931 . S
Co336 N333 2.135 . S
Co336 N339 2.121 . S
Co336 O344 2.055 1_545 S
Co336 O347 2.039 . S
Co336 N350 2.140 . S
C337 O338 1.227 . S
C337 O347 1.265 . S
O338 C337 1.227 . S
N339 Co336 2.121 . S
N339 C341 1.375 . S
N339 C342 1.313 . S
C340 C341 1.338 . S
C340 N343 1.377 . S
C340 H360 0.930 . S
C341 N339 1.375 . S
C341 C340 1.338 . S
C341 H345 0.931 . S
C342 N339 1.313 . S
C342 N343 1.344 . S
C342 H346 0.930 1_545 S
N343 C340 1.377 . S
N343 C342 1.344 . S
O344 Co336 2.055 1_565 S
O344 C348 1.253 . S
H345 C341 0.931 . S
H346 C342 0.930 1_565 S
O347 Co336 2.039 . S
O347 C337 1.265 . S
C348 O344 1.253 . S
C348 O349 1.227 . S
O349 C348 1.227 . S
N350 Co336 2.140 . S
N350 C353 1.346 . S
N350 C354 1.345 . S
C351 C352 1.387 . S
C351 C355 1.391 . S
C352 C351 1.387 . S
C352 C353 1.369 . S
C352 H361 0.929 . S
C353 N350 1.346 . S
C353 C352 1.369 . S
C353 H356 0.928 . S
C354 N350 1.345 . S
C354 C355 1.371 . S
C354 H357 0.931 1_545 S
C355 C351 1.391 . S
C355 C354 1.371 . S
C355 H362 0.930 1_545 S
H356 C353 0.928 . S
H357 C354 0.931 1_565 S
H358 C334 0.930 . S
H359 C331 0.930 . S
H360 C340 0.930 . S
H361 C352 0.929 . S
H362 C355 0.930 1_565 S
C363 C364 1.351 . S
C363 N366 1.368 . S
C363 H368 0.931 . S
C364 C363 1.351 . S
C364 N365 1.373 . S
C364 H392 0.930 . S
N365 C364 1.373 . S
N365 C367 1.340 . S
N366 C363 1.368 . S
N366 C367 1.321 . S
N366 Co369 2.135 . S
C367 N365 1.340 . S
C367 N366 1.321 . S
C367 H391 0.930 . S
H368 C363 0.931 . S
Co369 N366 2.135 . S
Co369 N372 2.121 . S
Co369 O377 2.055 . S
Co369 O380 2.039 1_545 S
Co369 N383 2.140 . S
C370 O371 1.227 . S
C370 O380 1.265 . S
O371 C370 1.227 . S
N372 Co369 2.121 . S
N372 C374 1.375 . S
N372 C375 1.313 . S
C373 C374 1.338 . S
C373 N376 1.377 . S
C373 H393 0.930 1_545 S
C374 N372 1.375 . S
C374 C373 1.338 . S
C374 H378 0.931 1_545 S
C375 N372 1.313 . S
C375 N376 1.344 . S
C375 H379 0.930 . S
N376 C373 1.377 . S
N376 C375 1.344 . S
O377 Co369 2.055 . S
O377 C381 1.253 . S
H378 C374 0.931 1_565 S
H379 C375 0.930 . S
O380 Co369 2.039 1_565 S
O380 C370 1.265 . S
C381 O377 1.253 . S
C381 O382 1.227 . S
O382 C381 1.227 . S
N383 Co369 2.140 . S
N383 C386 1.346 . S
N383 C387 1.345 . S
C384 C385 1.387 . S
C384 C388 1.391 . S
C385 C384 1.387 . S
C385 C386 1.369 . S
C385 H394 0.929 . S
C386 N383 1.346 . S
C386 C385 1.369 . S
C386 H389 0.928 . S
C387 N383 1.345 . S
C387 C388 1.371 . S
C387 H390 0.931 . S
C388 C384 1.391 . S
C388 C387 1.371 . S
C388 H395 0.930 . S
H389 C386 0.928 . S
H390 C387 0.931 . S
H391 C367 0.930 . S
H392 C364 0.930 . S
H393 C373 0.930 1_565 S
H394 C385 0.929 . S
H395 C388 0.930 . S
C396 C397 1.351 . S
C396 N399 1.368 . S
C396 H401 0.931 . S
C397 C396 1.351 . S
C397 N398 1.373 . S
C397 H425 0.930 . S
N398 C397 1.373 . S
N398 C400 1.340 . S
N399 C396 1.368 . S
N399 C400 1.321 . S
N399 Co402 2.135 . S
C400 N398 1.340 . S
C400 N399 1.321 . S
C400 H424 0.930 . S
H401 C396 0.931 . S
Co402 N399 2.135 . S
Co402 N405 2.121 . S
Co402 O410 2.055 . S
Co402 O413 2.039 . S
Co402 N416 2.140 . S
C403 O404 1.227 . S
C403 O413 1.265 . S
O404 C403 1.227 . S
N405 Co402 2.121 . S
N405 C407 1.375 . S
N405 C408 1.313 . S
C406 C407 1.338 . S
C406 N409 1.377 . S
C406 H426 0.930 . S
C407 N405 1.375 . S
C407 C406 1.338 . S
C407 H411 0.931 . S
C408 N405 1.313 . S
C408 N409 1.344 . S
C408 H412 0.930 . S
N409 C406 1.377 . S
N409 C408 1.344 . S
O410 Co402 2.055 . S
O410 C414 1.253 . S
H411 C407 0.931 . S
H412 C408 0.930 . S
O413 Co402 2.039 . S
O413 C403 1.265 . S
C414 O410 1.253 . S
C414 O415 1.227 . S
O415 C414 1.227 . S
N416 Co402 2.140 . S
N416 C419 1.346 . S
N416 C420 1.345 . S
C417 C418 1.387 . S
C417 C421 1.391 . S
C418 C417 1.387 . S
C418 C419 1.369 . S
C418 H427 0.929 . S
C419 N416 1.346 . S
C419 C418 1.369 . S
C419 H422 0.928 . S
C420 N416 1.345 . S
C420 C421 1.371 . S
C420 H423 0.931 . S
C421 C417 1.391 . S
C421 C420 1.371 . S
C421 H428 0.930 . S
H422 C419 0.928 . S
H423 C420 0.931 . S
H424 C400 0.930 . S
H425 C397 0.930 . S
H426 C406 0.930 . S
H427 C418 0.929 . S
H428 C421 0.930 . S
C429 C430 1.351 . S
C429 N432 1.368 . S
C429 H434 0.931 . S
C430 C429 1.351 . S
C430 N431 1.373 . S
C430 H458 0.930 . S
N431 C430 1.373 . S
N431 C433 1.340 . S
N432 C429 1.368 . S
N432 C433 1.321 . S
N432 Co435 2.135 . S
C433 N431 1.340 . S
C433 N432 1.321 . S
C433 H457 0.930 . S
H434 C429 0.931 . S
Co435 N432 2.135 . S
Co435 N438 2.121 . S
Co435 O443 2.055 . S
Co435 O446 2.039 . S
Co435 N449 2.140 . S
C436 O437 1.227 . S
C436 O446 1.265 . S
O437 C436 1.227 . S
N438 Co435 2.121 . S
N438 C440 1.375 . S
N438 C441 1.313 . S
C439 C440 1.338 . S
C439 N442 1.377 . S
C439 H459 0.930 . S
C440 N438 1.375 . S
C440 C439 1.338 . S
C440 H444 0.931 . S
C441 N438 1.313 . S
C441 N442 1.344 . S
C441 H445 0.930 . S
N442 C439 1.377 . S
N442 C441 1.344 . S
O443 Co435 2.055 . S
O443 C447 1.253 . S
H444 C440 0.931 . S
H445 C441 0.930 . S
O446 Co435 2.039 . S
O446 C436 1.265 . S
C447 O443 1.253 . S
C447 O448 1.227 . S
O448 C447 1.227 . S
N449 Co435 2.140 . S
N449 C452 1.346 . S
N449 C453 1.345 . S
C450 C451 1.387 . S
C450 C454 1.391 . S
C451 C450 1.387 . S
C451 C452 1.369 . S
C451 H460 0.929 . S
C452 N449 1.346 . S
C452 C451 1.369 . S
C452 H455 0.928 . S
C453 N449 1.345 . S
C453 C454 1.371 . S
C453 H456 0.931 . S
C454 C450 1.391 . S
C454 C453 1.371 . S
C454 H461 0.930 . S
H455 C452 0.928 . S
H456 C453 0.931 . S
H457 C433 0.930 . S
H458 C430 0.930 . S
H459 C439 0.930 . S
H460 C451 0.929 . S
H461 C454 0.930 . S
C462 C463 1.351 . S
C462 N465 1.368 . S
C462 H467 0.931 . S
C463 C462 1.351 . S
C463 N464 1.373 . S
C463 H491 0.930 . S
N464 C463 1.373 . S
N464 C466 1.340 . S
N465 C462 1.368 . S
N465 C466 1.321 . S
N465 Co468 2.135 . S
C466 N464 1.340 . S
C466 N465 1.321 . S
C466 H490 0.930 . S
H467 C462 0.931 . S
Co468 N465 2.135 . S
Co468 N471 2.121 . S
Co468 O476 2.055 . S
Co468 O479 2.039 . S
Co468 N482 2.140 . S
C469 O470 1.227 . S
C469 O479 1.265 . S
O470 C469 1.227 . S
N471 Co468 2.121 . S
N471 C473 1.375 . S
N471 C474 1.313 . S
C472 C473 1.338 . S
C472 N475 1.377 . S
C472 H492 0.930 . S
C473 N471 1.375 . S
C473 C472 1.338 . S
C473 H477 0.931 . S
C474 N471 1.313 . S
C474 N475 1.344 . S
C474 H478 0.930 . S
N475 C472 1.377 . S
N475 C474 1.344 . S
O476 Co468 2.055 . S
O476 C480 1.253 . S
H477 C473 0.931 . S
H478 C474 0.930 . S
O479 Co468 2.039 . S
O479 C469 1.265 . S
C480 O476 1.253 . S
C480 O481 1.227 . S
O481 C480 1.227 . S
N482 Co468 2.140 . S
N482 C485 1.346 . S
N482 C486 1.345 . S
C483 C484 1.387 . S
C483 C487 1.391 . S
C484 C483 1.387 . S
C484 C485 1.369 . S
C484 H493 0.929 . S
C485 N482 1.346 . S
C485 C484 1.369 . S
C485 H488 0.928 . S
C486 N482 1.345 . S
C486 C487 1.371 . S
C486 H489 0.931 . S
C487 C483 1.391 . S
C487 C486 1.371 . S
C487 H494 0.930 . S
H488 C485 0.928 . S
H489 C486 0.931 . S
H490 C466 0.930 . S
H491 C463 0.930 . S
H492 C472 0.930 . S
H493 C484 0.929 . S
H494 C487 0.930 . S
C495 C496 1.351 . S
C495 N498 1.368 . S
C495 H500 0.931 . S
C496 C495 1.351 . S
C496 N497 1.373 . S
C496 H524 0.930 . S
N497 C496 1.373 . S
N497 C499 1.340 . S
N498 C495 1.368 . S
N498 C499 1.321 . S
N498 Co501 2.135 . S
C499 N497 1.340 . S
C499 N498 1.321 . S
C499 H523 0.930 . S
H500 C495 0.931 . S
Co501 N498 2.135 . S
Co501 N504 2.121 . S
Co501 O509 2.055 . S
Co501 O512 2.039 . S
Co501 N515 2.140 . S
C502 O503 1.227 . S
C502 O512 1.265 . S
O503 C502 1.227 . S
N504 Co501 2.121 . S
N504 C506 1.375 . S
N504 C507 1.313 . S
C505 C506 1.338 . S
C505 N508 1.377 . S
C505 H525 0.930 . S
C506 N504 1.375 . S
C506 C505 1.338 . S
C506 H510 0.931 . S
C507 N504 1.313 . S
C507 N508 1.344 . S
C507 H511 0.930 . S
N508 C505 1.377 . S
N508 C507 1.344 . S
O509 Co501 2.055 . S
O509 C513 1.253 . S
H510 C506 0.931 . S
H511 C507 0.930 . S
O512 Co501 2.039 . S
O512 C502 1.265 . S
C513 O509 1.253 . S
C513 O514 1.227 . S
O514 C513 1.227 . S
N515 Co501 2.140 . S
N515 C518 1.346 . S
N515 C519 1.345 . S
C516 C517 1.387 . S
C516 C520 1.391 . S
C517 C516 1.387 . S
C517 C518 1.369 . S
C517 H526 0.929 . S
C518 N515 1.346 . S
C518 C517 1.369 . S
C518 H521 0.928 . S
C519 N515 1.345 . S
C519 C520 1.371 . S
C519 H522 0.931 . S
C520 C516 1.391 . S
C520 C519 1.371 . S
C520 H527 0.930 . S
H521 C518 0.928 . S
H522 C519 0.931 . S
H523 C499 0.930 . S
H524 C496 0.930 . S
H525 C505 0.930 . S
H526 C517 0.929 . S
H527 C520 0.930 . S
H528 C546 0.951 . S
H529 C548 0.951 . S
H530 C550 0.950 . S
H531 C551 0.950 . S
H532 C553 0.950 . S
H533 C556 0.950 . S
H534 C557 0.950 . S
H535 C559 0.950 . S
H536 C560 0.950 . S
H537 C561 0.951 . S
H538 C563 0.951 . S
H539 C565 0.950 . S
H540 C566 0.950 . S
H541 C568 0.950 . S
H542 C571 0.950 1_565 S
H543 C572 0.950 1_565 S
H544 C574 0.950 . S
H545 C575 0.950 . S
C546 H528 0.951 . S
C546 C547 1.366 . S
C546 C548 1.388 . S
C547 C546 1.366 . S
C547 C551 1.385 . S
C548 H529 0.951 . S
C548 C546 1.388 . S
C548 C549 1.366 . S
C549 C548 1.366 . S
C549 C550 1.414 . S
C549 C552 1.499 . S
C550 H530 0.950 . S
C550 C549 1.414 . S
C550 C551 1.374 . S
C551 H531 0.950 . S
C551 C547 1.385 . S
C551 C550 1.374 . S
C552 C549 1.499 . S
C552 C553 1.373 . S
C552 C554 1.389 . S
C553 H532 0.950 . S
C553 C552 1.373 . S
C553 C569 1.377 . S
C554 C552 1.389 . S
C554 C555 1.524 . S
C554 C568 1.377 . S
C555 C554 1.524 . S
C555 C556 1.397 . S
C555 C560 1.363 . S
C556 H533 0.950 . S
C556 C555 1.397 . S
C556 C557 1.334 . S
C557 H534 0.950 . S
C557 C556 1.334 . S
C557 C558 1.287 . S
C558 C557 1.287 . S
C558 C559 1.524 . S
C558 H577 0.913 . S
C559 H535 0.950 . S
C559 C558 1.524 . S
C559 C560 1.415 . S
C560 H536 0.950 . S
C560 C555 1.363 . S
C560 C559 1.415 . S
C561 H537 0.951 . S
C561 C562 1.366 . S
C561 C563 1.388 . S
C562 C561 1.366 . S
C562 C566 1.385 . S
C563 H538 0.951 . S
C563 C561 1.388 . S
C563 C564 1.366 . S
C564 C563 1.366 . S
C564 C565 1.414 . S
C564 C567 1.499 . S
C565 H539 0.950 . S
C565 C564 1.414 . S
C565 C566 1.374 . S
C566 H540 0.950 . S
C566 C562 1.385 . S
C566 C565 1.374 . S
C567 C564 1.499 . S
C567 C568 1.373 . S
C567 C569 1.389 . S
C568 H541 0.950 . S
C568 C554 1.377 . S
C568 C567 1.373 . S
C569 C553 1.377 . S
C569 C567 1.389 . S
C569 C570 1.524 . S
C570 C569 1.524 . S
C570 C571 1.397 . S
C570 C575 1.363 . S
C571 H542 0.950 1_545 S
C571 C570 1.397 . S
C571 C572 1.334 . S
C572 H543 0.950 1_545 S
C572 C571 1.334 . S
C572 C573 1.287 . S
C573 C572 1.287 . S
C573 C574 1.524 . S
C573 H576 0.999 . S
C574 H544 0.950 . S
C574 C573 1.524 . S
C574 C575 1.415 . S
C575 H545 0.950 . S
C575 C570 1.363 . S
C575 C574 1.415 . S
H576 C573 0.999 . S
H577 C558 0.913 . S
H578 C596 0.951 . S
H579 C598 0.951 . S
H580 C600 0.950 . S
H581 C601 0.950 . S
H582 C603 0.950 . S
H583 C606 0.950 . S
H584 C607 0.950 . S
H585 C609 0.950 . S
H586 C610 0.950 . S
H587 C611 0.951 . S
H588 C613 0.951 . S
H589 C615 0.950 . S
H590 C616 0.950 . S
H591 C618 0.950 . S
H592 C621 0.950 . S
H593 C622 0.950 . S
H594 C624 0.950 . S
H595 C625 0.950 . S
C596 H578 0.951 . S
C596 C597 1.366 1_565 S
C596 C598 1.388 . S
C597 C596 1.366 1_545 S
C597 C601 1.385 . S
C598 H579 0.951 . S
C598 C596 1.388 . S
C598 C599 1.366 1_565 S
C599 C598 1.366 1_545 S
C599 C600 1.414 . S
C599 C602 1.499 . S
C600 H580 0.950 . S
C600 C599 1.414 . S
C600 C601 1.374 . S
C601 H581 0.950 . S
C601 C597 1.385 . S
C601 C600 1.374 . S
C602 C599 1.499 . S
C602 C603 1.373 . S
C602 C604 1.389 1_545 S
C603 H582 0.950 . S
C603 C602 1.373 . S
C603 C619 1.377 . S
C604 C602 1.389 1_565 S
C604 C605 1.524 . S
C604 C618 1.377 . S
C605 C604 1.524 . S
C605 C606 1.397 . S
C605 C610 1.363 . S
C606 H583 0.950 . S
C606 C605 1.397 . S
C606 C607 1.334 . S
C607 H584 0.950 . S
C607 C606 1.334 . S
C607 C608 1.287 . S
C608 C607 1.287 . S
C608 C609 1.524 . S
C608 H627 0.913 . S
C609 H585 0.950 . S
C609 C608 1.524 . S
C609 C610 1.415 . S
C610 H586 0.950 . S
C610 C605 1.363 . S
C610 C609 1.415 . S
C611 H587 0.951 . S
C611 C612 1.366 . S
C611 C613 1.388 . S
C612 C611 1.366 . S
C612 C616 1.385 1_545 S
C613 H588 0.951 . S
C613 C611 1.388 . S
C613 C614 1.366 . S
C614 C613 1.366 . S
C614 C615 1.414 1_545 S
C614 C617 1.499 . S
C615 H589 0.950 . S
C615 C614 1.414 1_565 S
C615 C616 1.374 . S
C616 H590 0.950 . S
C616 C612 1.385 1_565 S
C616 C615 1.374 . S
C617 C614 1.499 . S
C617 C618 1.373 1_545 S
C617 C619 1.389 . S
C618 H591 0.950 . S
C618 C604 1.377 . S
C618 C617 1.373 1_565 S
C619 C603 1.377 . S
C619 C617 1.389 . S
C619 C620 1.524 . S
C620 C619 1.524 . S
C620 C621 1.397 . S
C620 C625 1.363 . S
C621 H592 0.950 . S
C621 C620 1.397 . S
C621 C622 1.334 . S
C622 H593 0.950 . S
C622 C621 1.334 . S
C622 C623 1.287 . S
C623 C622 1.287 . S
C623 C624 1.524 . S
C623 H626 0.999 . S
C624 H594 0.950 . S
C624 C623 1.524 . S
C624 C625 1.415 . S
C625 H595 0.950 . S
C625 C620 1.363 . S
C625 C624 1.415 . S
H626 C623 0.999 . S
H627 C608 0.913 . S
H628 C646 0.951 1_565 S
H629 C648 0.948 1_565 S
H630 C650 0.950 . S
H631 C651 0.950 . S
H632 C653 0.950 . S
H633 C656 0.950 . S
H634 C657 0.950 . S
H635 C659 0.950 . S
H636 C660 0.950 . S
H637 C661 0.951 . S
H638 C663 0.951 . S
H639 C665 0.950 1_565 S
H640 C666 0.950 1_565 S
H641 C668 0.950 . S
H642 C671 0.950 . S
H643 C672 0.950 . S
H644 C674 0.950 . S
H645 C675 0.950 . S
C646 H628 0.951 1_545 S
C646 C647 1.366 . S
C646 C648 1.388 . S
C647 C646 1.366 . S
C647 C651 1.385 . S
C648 H629 0.948 1_545 S
C648 C646 1.388 . S
C648 C649 1.368 . S
C649 C648 1.368 . S
C649 C650 1.414 . S
C649 C652 1.499 . S
C650 H630 0.950 . S
C650 C649 1.414 . S
C650 C651 1.374 . S
C651 H631 0.950 . S
C651 C647 1.385 . S
C651 C650 1.374 . S
C652 C649 1.499 . S
C652 C653 1.373 . S
C652 C654 1.389 1_545 S
C653 H632 0.950 . S
C653 C652 1.373 . S
C653 C669 1.377 . S
C654 C652 1.389 1_565 S
C654 C655 1.524 . S
C654 C668 1.377 . S
C655 C654 1.524 . S
C655 C656 1.397 . S
C655 C660 1.363 . S
C656 H633 0.950 . S
C656 C655 1.397 . S
C656 C657 1.334 . S
C657 H634 0.950 . S
C657 C656 1.334 . S
C657 C658 1.287 . S
C658 C657 1.287 . S
C658 C659 1.524 . S
C658 H677 0.913 . S
C659 H635 0.950 . S
C659 C658 1.524 . S
C659 C660 1.415 . S
C660 H636 0.950 . S
C660 C655 1.363 . S
C660 C659 1.415 . S
C661 H637 0.951 . S
C661 C662 1.366 . S
C661 C663 1.388 . S
C662 C661 1.366 . S
C662 C666 1.385 . S
C663 H638 0.951 . S
C663 C661 1.388 . S
C663 C664 1.366 . S
C664 C663 1.366 . S
C664 C665 1.414 . S
C664 C667 1.499 . S
C665 H639 0.950 1_545 S
C665 C664 1.414 . S
C665 C666 1.374 . S
C666 H640 0.950 1_545 S
C666 C662 1.385 . S
C666 C665 1.374 . S
C667 C664 1.499 . S
C667 C668 1.373 1_545 S
C667 C669 1.389 . S
C668 H641 0.950 . S
C668 C654 1.377 . S
C668 C667 1.373 1_565 S
C669 C653 1.377 . S
C669 C667 1.389 . S
C669 C670 1.524 . S
C670 C669 1.524 . S
C670 C671 1.397 . S
C670 C675 1.363 . S
C671 H642 0.950 . S
C671 C670 1.397 . S
C671 C672 1.334 . S
C672 H643 0.950 . S
C672 C671 1.334 . S
C672 C673 1.287 . S
C673 C672 1.287 . S
C673 C674 1.524 . S
C673 H676 0.999 . S
C674 H644 0.950 . S
C674 C673 1.524 . S
C674 C675 1.415 . S
C675 H645 0.950 . S
C675 C670 1.363 . S
C675 C674 1.415 . S
H676 C673 0.999 . S
H677 C658 0.913 . S
H678 C696 0.951 . S
H679 C698 0.951 . S
H680 C700 0.950 . S
H681 C701 0.950 . S
H682 C703 0.950 . S
H683 C706 0.950 . S
H684 C707 0.950 . S
H685 C709 0.950 . S
H686 C710 0.950 . S
H687 C711 0.951 . S
H688 C713 0.951 . S
H689 C715 0.950 . S
H690 C716 0.950 . S
H691 C718 0.950 . S
H692 C721 0.950 . S
H693 C722 0.950 1_565 S
H694 C724 0.950 . S
H695 C725 0.950 . S
C696 H678 0.951 . S
C696 C697 1.366 . S
C696 C698 1.388 . S
C697 C696 1.366 . S
C697 C701 1.385 . S
C698 H679 0.951 . S
C698 C696 1.388 . S
C698 C699 1.366 . S
C699 C698 1.366 . S
C699 C700 1.414 . S
C699 C702 1.499 . S
C700 H680 0.950 . S
C700 C699 1.414 . S
C700 C701 1.374 . S
C701 H681 0.950 . S
C701 C697 1.385 . S
C701 C700 1.374 . S
C702 C699 1.499 . S
C702 C703 1.373 . S
C702 C704 1.389 . S
C703 H682 0.950 . S
C703 C702 1.373 . S
C703 C719 1.377 . S
C704 C702 1.389 . S
C704 C705 1.524 . S
C704 C718 1.377 . S
C705 C704 1.524 . S
C705 C706 1.397 . S
C705 C710 1.363 . S
C706 H683 0.950 . S
C706 C705 1.397 . S
C706 C707 1.334 . S
C707 H684 0.950 . S
C707 C706 1.334 . S
C707 C708 1.287 . S
C708 C707 1.287 . S
C708 C709 1.524 . S
C708 H727 0.913 . S
C709 H685 0.950 . S
C709 C708 1.524 . S
C709 C710 1.415 . S
C710 H686 0.950 . S
C710 C705 1.363 . S
C710 C709 1.415 . S
C711 H687 0.951 . S
C711 C712 1.366 . S
C711 C713 1.388 . S
C712 C711 1.366 . S
C712 C716 1.385 . S
C713 H688 0.951 . S
C713 C711 1.388 . S
C713 C714 1.366 . S
C714 C713 1.366 . S
C714 C715 1.414 . S
C714 C717 1.499 . S
C715 H689 0.950 . S
C715 C714 1.414 . S
C715 C716 1.374 . S
C716 H690 0.950 . S
C716 C712 1.385 . S
C716 C715 1.374 . S
C717 C714 1.499 . S
C717 C718 1.373 . S
C717 C719 1.389 . S
C718 H691 0.950 . S
C718 C704 1.377 . S
C718 C717 1.373 . S
C719 C703 1.377 . S
C719 C717 1.389 . S
C719 C720 1.524 . S
C720 C719 1.524 . S
C720 C721 1.397 . S
C720 C725 1.363 . S
C721 H692 0.950 . S
C721 C720 1.397 . S
C721 C722 1.334 . S
C722 H693 0.950 1_545 S
C722 C721 1.334 . S
C722 C723 1.287 . S
C723 C722 1.287 . S
C723 C724 1.524 . S
C723 H726 0.999 . S
C724 H694 0.950 . S
C724 C723 1.524 . S
C724 C725 1.415 . S
C725 H695 0.950 . S
C725 C720 1.363 . S
C725 C724 1.415 . S
H726 C723 0.999 . S
H727 C708 0.913 . S
H728 C746 0.951 . S
H729 C748 0.951 . S
H730 C750 0.950 . S
H731 C751 0.950 . S
H732 C753 0.950 . S
H733 C756 0.950 . S
H734 C757 0.950 . S
H735 C759 0.950 . S
H736 C760 0.950 . S
H737 C761 0.951 . S
H738 C763 0.951 . S
H739 C765 0.950 . S
H740 C766 0.950 . S
H741 C768 0.950 . S
H742 C771 0.950 . S
H743 C772 0.950 . S
H744 C774 0.950 . S
H745 C775 0.950 . S
C746 H728 0.951 . S
C746 C747 1.366 . S
C746 C748 1.388 . S
C747 C746 1.366 . S
C747 C751 1.385 . S
C748 H729 0.951 . S
C748 C746 1.388 . S
C748 C749 1.366 . S
C749 C748 1.366 . S
C749 C750 1.414 . S
C749 C752 1.499 . S
C750 H730 0.950 . S
C750 C749 1.414 . S
C750 C751 1.374 . S
C751 H731 0.950 . S
C751 C747 1.385 . S
C751 C750 1.374 . S
C752 C749 1.499 . S
C752 C753 1.373 . S
C752 C754 1.389 . S
C753 H732 0.950 . S
C753 C752 1.373 . S
C753 C769 1.377 . S
C754 C752 1.389 . S
C754 C755 1.524 . S
C754 C768 1.377 . S
C755 C754 1.524 . S
C755 C756 1.397 . S
C755 C760 1.363 . S
C756 H733 0.950 . S
C756 C755 1.397 . S
C756 C757 1.334 . S
C757 H734 0.950 . S
C757 C756 1.334 . S
C757 C758 1.287 . S
C758 C757 1.287 . S
C758 C759 1.524 . S
C758 H777 0.913 . S
C759 H735 0.950 . S
C759 C758 1.524 . S
C759 C760 1.415 . S
C760 H736 0.950 . S
C760 C755 1.363 . S
C760 C759 1.415 . S
C761 H737 0.951 . S
C761 C762 1.366 . S
C761 C763 1.388 . S
C762 C761 1.366 . S
C762 C766 1.385 . S
C763 H738 0.951 . S
C763 C761 1.388 . S
C763 C764 1.366 . S
C764 C763 1.366 . S
C764 C765 1.414 . S
C764 C767 1.499 . S
C765 H739 0.950 . S
C765 C764 1.414 . S
C765 C766 1.374 . S
C766 H740 0.950 . S
C766 C762 1.385 . S
C766 C765 1.374 . S
C767 C764 1.499 . S
C767 C768 1.373 . S
C767 C769 1.389 . S
C768 H741 0.950 . S
C768 C754 1.377 . S
C768 C767 1.373 . S
C769 C753 1.377 . S
C769 C767 1.389 . S
C769 C770 1.524 . S
C770 C769 1.524 . S
C770 C771 1.397 . S
C770 C775 1.363 . S
C771 H742 0.950 . S
C771 C770 1.397 . S
C771 C772 1.334 . S
C772 H743 0.950 . S
C772 C771 1.334 . S
C772 C773 1.287 . S
C773 C772 1.287 . S
C773 C774 1.524 . S
C773 H776 0.999 . S
C774 H744 0.950 . S
C774 C773 1.524 . S
C774 C775 1.415 . S
C775 H745 0.950 . S
C775 C770 1.363 . S
C775 C774 1.415 . S
H776 C773 0.999 . S
H777 C758 0.913 . S
H778 C796 0.951 . S
H779 C798 0.951 . S
H780 C800 0.950 . S
H781 C801 0.950 . S
H782 C803 0.950 . S
H783 C806 0.950 . S
H784 C807 0.950 . S
H785 C809 0.950 . S
H786 C810 0.950 . S
H787 C811 0.951 . S
H788 C813 0.951 . S
H789 C815 0.950 . S
H790 C816 0.950 . S
H791 C818 0.950 . S
H792 C821 0.950 . S
H793 C822 0.950 . S
H794 C824 0.950 . S
H795 C825 0.950 . S
C796 H778 0.951 . S
C796 C797 1.366 . S
C796 C798 1.388 . S
C797 C796 1.366 . S
C797 C801 1.385 . S
C798 H779 0.951 . S
C798 C796 1.388 . S
C798 C799 1.366 . S
C799 C798 1.366 . S
C799 C800 1.414 . S
C799 C802 1.499 . S
C800 H780 0.950 . S
C800 C799 1.414 . S
C800 C801 1.374 . S
C801 H781 0.950 . S
C801 C797 1.385 . S
C801 C800 1.374 . S
C802 C799 1.499 . S
C802 C803 1.373 . S
C802 C804 1.389 . S
C803 H782 0.950 . S
C803 C802 1.373 . S
C803 C819 1.377 . S
C804 C802 1.389 . S
C804 C805 1.524 . S
C804 C818 1.377 . S
C805 C804 1.524 . S
C805 C806 1.397 . S
C805 C810 1.363 . S
C806 H783 0.950 . S
C806 C805 1.397 . S
C806 C807 1.334 . S
C807 H784 0.950 . S
C807 C806 1.334 . S
C807 C808 1.287 . S
C808 C807 1.287 . S
C808 C809 1.524 . S
C808 H827 0.913 . S
C809 H785 0.950 . S
C809 C808 1.524 . S
C809 C810 1.415 . S
C810 H786 0.950 . S
C810 C805 1.363 . S
C810 C809 1.415 . S
C811 H787 0.951 . S
C811 C812 1.366 . S
C811 C813 1.388 . S
C812 C811 1.366 . S
C812 C816 1.385 . S
C813 H788 0.951 . S
C813 C811 1.388 . S
C813 C814 1.366 . S
C814 C813 1.366 . S
C814 C815 1.414 . S
C814 C817 1.499 . S
C815 H789 0.950 . S
C815 C814 1.414 . S
C815 C816 1.374 . S
C816 H790 0.950 . S
C816 C812 1.385 . S
C816 C815 1.374 . S
C817 C814 1.499 . S
C817 C818 1.373 . S
C817 C819 1.389 . S
C818 H791 0.950 . S
C818 C804 1.377 . S
C818 C817 1.373 . S
C819 C803 1.377 . S
C819 C817 1.389 . S
C819 C820 1.524 . S
C820 C819 1.524 . S
C820 C821 1.397 . S
C820 C825 1.363 . S
C821 H792 0.950 . S
C821 C820 1.397 . S
C821 C822 1.334 . S
C822 H793 0.950 . S
C822 C821 1.334 . S
C822 C823 1.287 . S
C823 C822 1.287 . S
C823 C824 1.524 . S
C823 H826 0.999 . S
C824 H794 0.950 . S
C824 C823 1.524 . S
C824 C825 1.415 . S
C825 H795 0.950 . S
C825 C820 1.363 . S
C825 C824 1.415 . S
H826 C823 0.999 . S
H827 C808 0.913 . S
H828 C846 0.951 . S
H829 C848 0.951 . S
H830 C850 0.950 . S
H831 C851 0.950 . S
H832 C853 0.950 . S
H833 C856 0.950 . S
H834 C857 0.950 . S
H835 C859 0.950 . S
H836 C860 0.950 . S
H837 C861 0.951 . S
H838 C863 0.951 . S
H839 C865 0.950 . S
H840 C866 0.950 . S
H841 C868 0.950 . S
H842 C871 0.950 . S
H843 C872 0.950 . S
H844 C874 0.950 . S
H845 C875 0.950 . S
C846 H828 0.951 . S
C846 C847 1.366 . S
C846 C848 1.388 . S
C847 C846 1.366 . S
C847 C851 1.385 . S
C848 H829 0.951 . S
C848 C846 1.388 . S
C848 C849 1.366 . S
C849 C848 1.366 . S
C849 C850 1.414 . S
C849 C852 1.499 . S
C850 H830 0.950 . S
C850 C849 1.414 . S
C850 C851 1.374 . S
C851 H831 0.950 . S
C851 C847 1.385 . S
C851 C850 1.374 . S
C852 C849 1.499 . S
C852 C853 1.373 . S
C852 C854 1.389 . S
C853 H832 0.950 . S
C853 C852 1.373 . S
C853 C869 1.377 . S
C854 C852 1.389 . S
C854 C855 1.524 . S
C854 C868 1.377 . S
C855 C854 1.524 . S
C855 C856 1.397 . S
C855 C860 1.363 . S
C856 H833 0.950 . S
C856 C855 1.397 . S
C856 C857 1.334 . S
C857 H834 0.950 . S
C857 C856 1.334 . S
C857 C858 1.287 . S
C858 C857 1.287 . S
C858 C859 1.524 . S
C858 H877 0.913 . S
C859 H835 0.950 . S
C859 C858 1.524 . S
C859 C860 1.415 . S
C860 H836 0.950 . S
C860 C855 1.363 . S
C860 C859 1.415 . S
C861 H837 0.951 . S
C861 C862 1.366 . S
C861 C863 1.388 . S
C862 C861 1.366 . S
C862 C866 1.385 . S
C863 H838 0.951 . S
C863 C861 1.388 . S
C863 C864 1.366 . S
C864 C863 1.366 . S
C864 C865 1.414 . S
C864 C867 1.499 . S
C865 H839 0.950 . S
C865 C864 1.414 . S
C865 C866 1.374 . S
C866 H840 0.950 . S
C866 C862 1.385 . S
C866 C865 1.374 . S
C867 C864 1.499 . S
C867 C868 1.373 . S
C867 C869 1.389 . S
C868 H841 0.950 . S
C868 C854 1.377 . S
C868 C867 1.373 . S
C869 C853 1.377 . S
C869 C867 1.389 . S
C869 C870 1.524 . S
C870 C869 1.524 . S
C870 C871 1.397 . S
C870 C875 1.363 . S
C871 H842 0.950 . S
C871 C870 1.397 . S
C871 C872 1.334 . S
C872 H843 0.950 . S
C872 C871 1.334 . S
C872 C873 1.287 . S
C873 C872 1.287 . S
C873 C874 1.524 . S
C873 H876 0.999 . S
C874 H844 0.950 . S
C874 C873 1.524 . S
C874 C875 1.415 . S
C875 H845 0.950 . S
C875 C870 1.363 . S
C875 C874 1.415 . S
H876 C873 0.999 . S
H877 C858 0.913 . S
H878 C896 0.951 . S
H879 C898 0.951 . S
H880 C900 0.950 . S
H881 C901 0.950 . S
H882 C903 0.950 . S
H883 C906 0.950 . S
H884 C907 0.950 . S
H885 C909 0.950 . S
H886 C910 0.950 . S
H887 C911 0.951 . S
H888 C913 0.951 . S
H889 C915 0.950 . S
H890 C916 0.950 . S
H891 C918 0.950 . S
H892 C921 0.950 . S
H893 C922 0.950 . S
H894 C924 0.950 . S
H895 C925 0.950 . S
C896 H878 0.951 . S
C896 C897 1.366 . S
C896 C898 1.388 . S
C897 C896 1.366 . S
C897 C901 1.385 . S
C898 H879 0.951 . S
C898 C896 1.388 . S
C898 C899 1.366 . S
C899 C898 1.366 . S
C899 C900 1.414 . S
C899 C902 1.499 . S
C900 H880 0.950 . S
C900 C899 1.414 . S
C900 C901 1.374 . S
C901 H881 0.950 . S
C901 C897 1.385 . S
C901 C900 1.374 . S
C902 C899 1.499 . S
C902 C903 1.373 . S
C902 C904 1.389 . S
C903 H882 0.950 . S
C903 C902 1.373 . S
C903 C919 1.377 . S
C904 C902 1.389 . S
C904 C905 1.524 . S
C904 C918 1.377 . S
C905 C904 1.524 . S
C905 C906 1.397 . S
C905 C910 1.363 . S
C906 H883 0.950 . S
C906 C905 1.397 . S
C906 C907 1.334 . S
C907 H884 0.950 . S
C907 C906 1.334 . S
C907 C908 1.287 . S
C908 C907 1.287 . S
C908 C909 1.524 . S
C908 H927 0.913 . S
C909 H885 0.950 . S
C909 C908 1.524 . S
C909 C910 1.415 . S
C910 H886 0.950 . S
C910 C905 1.363 . S
C910 C909 1.415 . S
C911 H887 0.951 . S
C911 C912 1.366 . S
C911 C913 1.388 . S
C912 C911 1.366 . S
C912 C916 1.385 . S
C913 H888 0.951 . S
C913 C911 1.388 . S
C913 C914 1.366 . S
C914 C913 1.366 . S
C914 C915 1.414 . S
C914 C917 1.499 . S
C915 H889 0.950 . S
C915 C914 1.414 . S
C915 C916 1.374 . S
C916 H890 0.950 . S
C916 C912 1.385 . S
C916 C915 1.374 . S
C917 C914 1.499 . S
C917 C918 1.373 . S
C917 C919 1.389 . S
C918 H891 0.950 . S
C918 C904 1.377 . S
C918 C917 1.373 . S
C919 C903 1.377 . S
C919 C917 1.389 . S
C919 C920 1.524 . S
C920 C919 1.524 . S
C920 C921 1.397 . S
C920 C925 1.363 . S
C921 H892 0.950 . S
C921 C920 1.397 . S
C921 C922 1.334 . S
C922 H893 0.950 . S
C922 C921 1.334 . S
C922 C923 1.287 . S
C923 C922 1.287 . S
C923 C924 1.524 . S
C923 H926 0.999 . S
C924 H894 0.950 . S
C924 C923 1.524 . S
C924 C925 1.415 . S
C925 H895 0.950 . S
C925 C920 1.363 . S
C925 C924 1.415 . S
H926 C923 0.999 . S
H927 C908 0.913 . S
H928 C946 0.951 . S
H929 C948 0.951 . S
H930 C950 0.950 . S
H931 C951 0.950 . S
H932 C953 0.950 . S
H933 C956 0.950 . S
H934 C957 0.950 . S
H935 C959 0.950 . S
H936 C960 0.950 . S
H937 C961 0.951 . S
H938 C963 0.951 . S
H939 C965 0.950 . S
H940 C966 0.950 . S
H941 C968 0.950 . S
H942 C971 0.950 . S
H943 C972 0.950 . S
H944 C974 0.950 . S
H945 C975 0.950 . S
C946 H928 0.951 . S
C946 C947 1.366 . S
C946 C948 1.388 . S
C947 C946 1.366 . S
C947 C951 1.385 . S
C948 H929 0.951 . S
C948 C946 1.388 . S
C948 C949 1.366 . S
C949 C948 1.366 . S
C949 C950 1.414 . S
C949 C952 1.499 . S
C950 H930 0.950 . S
C950 C949 1.414 . S
C950 C951 1.374 . S
C951 H931 0.950 . S
C951 C947 1.385 . S
C951 C950 1.374 . S
C952 C949 1.499 . S
C952 C953 1.373 . S
C952 C954 1.389 . S
C953 H932 0.950 . S
C953 C952 1.373 . S
C953 C969 1.377 . S
C954 C952 1.389 . S
C954 C955 1.524 . S
C954 C968 1.377 . S
C955 C954 1.524 . S
C955 C956 1.397 . S
C955 C960 1.363 . S
C956 H933 0.950 . S
C956 C955 1.397 . S
C956 C957 1.334 . S
C957 H934 0.950 . S
C957 C956 1.334 . S
C957 C958 1.287 . S
C958 C957 1.287 . S
C958 C959 1.524 . S
C958 H977 0.913 . S
C959 H935 0.950 . S
C959 C958 1.524 . S
C959 C960 1.415 . S
C960 H936 0.950 . S
C960 C955 1.363 . S
C960 C959 1.415 . S
C961 H937 0.951 . S
C961 C962 1.366 . S
C961 C963 1.388 . S
C962 C961 1.366 . S
C962 C966 1.385 . S
C963 H938 0.951 . S
C963 C961 1.388 . S
C963 C964 1.366 . S
C964 C963 1.366 . S
C964 C965 1.414 . S
C964 C967 1.499 . S
C965 H939 0.950 . S
C965 C964 1.414 . S
C965 C966 1.374 . S
C966 H940 0.950 . S
C966 C962 1.385 . S
C966 C965 1.374 . S
C967 C964 1.499 . S
C967 C968 1.373 . S
C967 C969 1.389 . S
C968 H941 0.950 . S
C968 C954 1.377 . S
C968 C967 1.373 . S
C969 C953 1.377 . S
C969 C967 1.389 . S
C969 C970 1.524 . S
C970 C969 1.524 . S
C970 C971 1.397 . S
C970 C975 1.363 . S
C971 H942 0.950 . S
C971 C970 1.397 . S
C971 C972 1.334 . S
C972 H943 0.950 . S
C972 C971 1.334 . S
C972 C973 1.287 . S
C973 C972 1.287 . S
C973 C974 1.524 . S
C973 H976 0.999 . S
C974 H944 0.950 . S
C974 C973 1.524 . S
C974 C975 1.415 . S
C975 H945 0.950 . S
C975 C970 1.363 . S
C975 C974 1.415 . S
H976 C973 0.999 . S
H977 C958 0.913 . S
H978 C996 0.951 . S
H979 C998 0.951 . S
H980 C1000 0.950 . S
H981 C1001 0.950 . S
H982 C1003 0.950 . S
H983 C1006 0.950 . S
H984 C1007 0.950 . S
H985 C1009 0.950 . S
H986 C1010 0.950 . S
H987 C1011 0.951 . S
H988 C1013 0.951 . S
H989 C1015 0.950 . S
H990 C1016 0.950 . S
H991 C1018 0.950 . S
H992 C1021 0.950 . S
H993 C1022 0.950 . S
H994 C1024 0.950 . S
H995 C1025 0.950 . S
C996 H978 0.951 . S
C996 C997 1.366 . S
C996 C998 1.388 . S
C997 C996 1.366 . S
C997 C1001 1.385 . S
C998 H979 0.951 . S
C998 C996 1.388 . S
C998 C999 1.366 . S
C999 C998 1.366 . S
C999 C1000 1.414 . S
C999 C1002 1.499 . S
C1000 H980 0.950 . S
C1000 C999 1.414 . S
C1000 C1001 1.374 . S
C1001 H981 0.950 . S
C1001 C997 1.385 . S
C1001 C1000 1.374 . S
C1002 C999 1.499 . S
C1002 C1003 1.373 . S
C1002 C1004 1.389 . S
C1003 H982 0.950 . S
C1003 C1002 1.373 . S
C1003 C1019 1.377 . S
C1004 C1002 1.389 . S
C1004 C1005 1.524 . S
C1004 C1018 1.377 . S
C1005 C1004 1.524 . S
C1005 C1006 1.397 . S
C1005 C1010 1.363 . S
C1006 H983 0.950 . S
C1006 C1005 1.397 . S
C1006 C1007 1.334 . S
C1007 H984 0.950 . S
C1007 C1006 1.334 . S
C1007 C1008 1.287 . S
C1008 C1007 1.287 . S
C1008 C1009 1.524 . S
C1008 H1027 0.913 . S
C1009 H985 0.950 . S
C1009 C1008 1.524 . S
C1009 C1010 1.415 . S
C1010 H986 0.950 . S
C1010 C1005 1.363 . S
C1010 C1009 1.415 . S
C1011 H987 0.951 . S
C1011 C1012 1.366 . S
C1011 C1013 1.388 . S
C1012 C1011 1.366 . S
C1012 C1016 1.385 . S
C1013 H988 0.951 . S
C1013 C1011 1.388 . S
C1013 C1014 1.366 . S
C1014 C1013 1.366 . S
C1014 C1015 1.414 . S
C1014 C1017 1.499 . S
C1015 H989 0.950 . S
C1015 C1014 1.414 . S
C1015 C1016 1.374 . S
C1016 H990 0.950 . S
C1016 C1012 1.385 . S
C1016 C1015 1.374 . S
C1017 C1014 1.499 . S
C1017 C1018 1.373 . S
C1017 C1019 1.389 . S
C1018 H991 0.950 . S
C1018 C1004 1.377 . S
C1018 C1017 1.373 . S
C1019 C1003 1.377 . S
C1019 C1017 1.389 . S
C1019 C1020 1.524 . S
C1020 C1019 1.524 . S
C1020 C1021 1.397 . S
C1020 C1025 1.363 . S
C1021 H992 0.950 . S
C1021 C1020 1.397 . S
C1021 C1022 1.334 . S
C1022 H993 0.950 . S
C1022 C1021 1.334 . S
C1022 C1023 1.287 . S
C1023 C1022 1.287 . S
C1023 C1024 1.524 . S
C1023 H1026 0.999 . S
C1024 H994 0.950 . S
C1024 C1023 1.524 . S
C1024 C1025 1.415 . S
C1025 H995 0.950 . S
C1025 C1020 1.363 . S
C1025 C1024 1.415 . S
H1026 C1023 0.999 . S
H1027 C1008 0.913 . S
H1028 C1046 0.951 . S
H1029 C1048 0.951 . S
H1030 C1050 0.950 . S
H1031 C1051 0.950 . S
H1032 C1053 0.950 . S
H1033 C1056 0.950 . S
H1034 C1057 0.950 . S
H1035 C1059 0.950 . S
H1036 C1060 0.950 . S
H1037 C1061 0.951 . S
H1038 C1063 0.951 . S
H1039 C1065 0.950 . S
H1040 C1066 0.950 . S
H1041 C1068 0.950 . S
H1042 C1071 0.950 . S
H1043 C1072 0.950 . S
H1044 C1074 0.950 . S
H1045 C1075 0.950 . S
C1046 H1028 0.951 . S
C1046 C1047 1.366 . S
C1046 C1048 1.388 . S
C1047 C1046 1.366 . S
C1047 C1051 1.385 . S
C1048 H1029 0.951 . S
C1048 C1046 1.388 . S
C1048 C1049 1.366 . S
C1049 C1048 1.366 . S
C1049 C1050 1.414 . S
C1049 C1052 1.499 . S
C1050 H1030 0.950 . S
C1050 C1049 1.414 . S
C1050 C1051 1.374 . S
C1051 H1031 0.950 . S
C1051 C1047 1.385 . S
C1051 C1050 1.374 . S
C1052 C1049 1.499 . S
C1052 C1053 1.373 . S
C1052 C1054 1.389 . S
C1053 H1032 0.950 . S
C1053 C1052 1.373 . S
C1053 C1069 1.377 . S
C1054 C1052 1.389 . S
C1054 C1055 1.524 . S
C1054 C1068 1.377 . S
C1055 C1054 1.524 . S
C1055 C1056 1.397 . S
C1055 C1060 1.363 . S
C1056 H1033 0.950 . S
C1056 C1055 1.397 . S
C1056 C1057 1.334 . S
C1057 H1034 0.950 . S
C1057 C1056 1.334 . S
C1057 C1058 1.287 . S
C1058 C1057 1.287 . S
C1058 C1059 1.524 . S
C1058 H1077 0.913 . S
C1059 H1035 0.950 . S
C1059 C1058 1.524 . S
C1059 C1060 1.415 . S
C1060 H1036 0.950 . S
C1060 C1055 1.363 . S
C1060 C1059 1.415 . S
C1061 H1037 0.951 . S
C1061 C1062 1.366 . S
C1061 C1063 1.388 . S
C1062 C1061 1.366 . S
C1062 C1066 1.385 . S
C1063 H1038 0.951 . S
C1063 C1061 1.388 . S
C1063 C1064 1.366 . S
C1064 C1063 1.366 . S
C1064 C1065 1.414 . S
C1064 C1067 1.499 . S
C1065 H1039 0.950 . S
C1065 C1064 1.414 . S
C1065 C1066 1.374 . S
C1066 H1040 0.950 . S
C1066 C1062 1.385 . S
C1066 C1065 1.374 . S
C1067 C1064 1.499 . S
C1067 C1068 1.373 . S
C1067 C1069 1.389 . S
C1068 H1041 0.950 . S
C1068 C1054 1.377 . S
C1068 C1067 1.373 . S
C1069 C1053 1.377 . S
C1069 C1067 1.389 . S
C1069 C1070 1.524 . S
C1070 C1069 1.524 . S
C1070 C1071 1.397 . S
C1070 C1075 1.363 . S
C1071 H1042 0.950 . S
C1071 C1070 1.397 . S
C1071 C1072 1.334 . S
C1072 H1043 0.950 . S
C1072 C1071 1.334 . S
C1072 C1073 1.287 . S
C1073 C1072 1.287 . S
C1073 C1074 1.524 . S
C1073 H1076 0.999 . S
C1074 H1044 0.950 . S
C1074 C1073 1.524 . S
C1074 C1075 1.415 . S
C1075 H1045 0.950 . S
C1075 C1070 1.363 . S
C1075 C1074 1.415 . S
H1076 C1073 0.999 . S
H1077 C1058 0.913 . S
H1078 C1096 0.951 . S
H1079 C1098 0.951 . S
H1080 C1100 0.950 . S
H1081 C1101 0.950 . S
H1082 C1103 0.950 . S
H1083 C1106 0.950 . S
H1084 C1107 0.950 . S
H1085 C1109 0.950 . S
H1086 C1110 0.950 . S
H1087 C1111 0.951 . S
H1088 C1113 0.951 . S
H1089 C1115 0.950 . S
H1090 C1116 0.950 . S
H1091 C1118 0.950 . S
H1092 C1121 0.950 . S
H1093 C1122 0.950 . S
H1094 C1124 0.950 . S
H1095 C1125 0.950 . S
C1096 H1078 0.951 . S
C1096 C1097 1.366 . S
C1096 C1098 1.388 . S
C1097 C1096 1.366 . S
C1097 C1101 1.385 . S
C1098 H1079 0.951 . S
C1098 C1096 1.388 . S
C1098 C1099 1.366 . S
C1099 C1098 1.366 . S
C1099 C1100 1.414 . S
C1099 C1102 1.499 . S
C1100 H1080 0.950 . S
C1100 C1099 1.414 . S
C1100 C1101 1.374 . S
C1101 H1081 0.950 . S
C1101 C1097 1.385 . S
C1101 C1100 1.374 . S
C1102 C1099 1.499 . S
C1102 C1103 1.373 . S
C1102 C1104 1.389 . S
C1103 H1082 0.950 . S
C1103 C1102 1.373 . S
C1103 C1119 1.377 . S
C1104 C1102 1.389 . S
C1104 C1105 1.524 . S
C1104 C1118 1.377 . S
C1105 C1104 1.524 . S
C1105 C1106 1.397 . S
C1105 C1110 1.363 . S
C1106 H1083 0.950 . S
C1106 C1105 1.397 . S
C1106 C1107 1.334 . S
C1107 H1084 0.950 . S
C1107 C1106 1.334 . S
C1107 C1108 1.287 . S
C1108 C1107 1.287 . S
C1108 C1109 1.524 . S
C1108 H1127 0.913 . S
C1109 H1085 0.950 . S
C1109 C1108 1.524 . S
C1109 C1110 1.415 . S
C1110 H1086 0.950 . S
C1110 C1105 1.363 . S
C1110 C1109 1.415 . S
C1111 H1087 0.951 . S
C1111 C1112 1.366 . S
C1111 C1113 1.388 . S
C1112 C1111 1.366 . S
C1112 C1116 1.385 . S
C1113 H1088 0.951 . S
C1113 C1111 1.388 . S
C1113 C1114 1.366 . S
C1114 C1113 1.366 . S
C1114 C1115 1.414 . S
C1114 C1117 1.499 . S
C1115 H1089 0.950 . S
C1115 C1114 1.414 . S
C1115 C1116 1.374 . S
C1116 H1090 0.950 . S
C1116 C1112 1.385 . S
C1116 C1115 1.374 . S
C1117 C1114 1.499 . S
C1117 C1118 1.373 . S
C1117 C1119 1.389 . S
C1118 H1091 0.950 . S
C1118 C1104 1.377 . S
C1118 C1117 1.373 . S
C1119 C1103 1.377 . S
C1119 C1117 1.389 . S
C1119 C1120 1.524 . S
C1120 C1119 1.524 . S
C1120 C1121 1.397 . S
C1120 C1125 1.363 . S
C1121 H1092 0.950 . S
C1121 C1120 1.397 . S
C1121 C1122 1.334 . S
C1122 H1093 0.950 . S
C1122 C1121 1.334 . S
C1122 C1123 1.287 . S
C1123 C1122 1.287 . S
C1123 C1124 1.524 . S
C1123 H1126 0.999 . S
C1124 H1094 0.950 . S
C1124 C1123 1.524 . S
C1124 C1125 1.415 . S
C1125 H1095 0.950 . S
C1125 C1120 1.363 . S
C1125 C1124 1.415 . S
H1126 C1123 0.999 . S
H1127 C1108 0.913 . S
H1128 C1146 0.951 . S
H1129 C1148 0.951 . S
H1130 C1150 0.950 . S
H1131 C1151 0.950 . S
H1132 C1153 0.950 . S
H1133 C1156 0.950 . S
H1134 C1157 0.950 . S
H1135 C1159 0.950 . S
H1136 C1160 0.950 . S
H1137 C1161 0.951 . S
H1138 C1163 0.951 . S
H1139 C1165 0.950 . S
H1140 C1166 0.950 . S
H1141 C1168 0.950 . S
H1142 C1171 0.950 . S
H1143 C1172 0.950 . S
H1144 C1174 0.950 . S
H1145 C1175 0.950 . S
C1146 H1128 0.951 . S
C1146 C1147 1.366 . S
C1146 C1148 1.388 . S
C1147 C1146 1.366 . S
C1147 C1151 1.385 . S
C1148 H1129 0.951 . S
C1148 C1146 1.388 . S
C1148 C1149 1.366 . S
C1149 C1148 1.366 . S
C1149 C1150 1.414 . S
C1149 C1152 1.499 . S
C1150 H1130 0.950 . S
C1150 C1149 1.414 . S
C1150 C1151 1.374 . S
C1151 H1131 0.950 . S
C1151 C1147 1.385 . S
C1151 C1150 1.374 . S
C1152 C1149 1.499 . S
C1152 C1153 1.373 . S
C1152 C1154 1.389 . S
C1153 H1132 0.950 . S
C1153 C1152 1.373 . S
C1153 C1169 1.377 . S
C1154 C1152 1.389 . S
C1154 C1155 1.524 . S
C1154 C1168 1.377 . S
C1155 C1154 1.524 . S
C1155 C1156 1.397 . S
C1155 C1160 1.363 . S
C1156 H1133 0.950 . S
C1156 C1155 1.397 . S
C1156 C1157 1.334 . S
C1157 H1134 0.950 . S
C1157 C1156 1.334 . S
C1157 C1158 1.287 . S
C1158 C1157 1.287 . S
C1158 C1159 1.524 . S
C1158 H1177 0.913 . S
C1159 H1135 0.950 . S
C1159 C1158 1.524 . S
C1159 C1160 1.415 . S
C1160 H1136 0.950 . S
C1160 C1155 1.363 . S
C1160 C1159 1.415 . S
C1161 H1137 0.951 . S
C1161 C1162 1.366 . S
C1161 C1163 1.388 . S
C1162 C1161 1.366 . S
C1162 C1166 1.385 . S
C1163 H1138 0.951 . S
C1163 C1161 1.388 . S
C1163 C1164 1.366 . S
C1164 C1163 1.366 . S
C1164 C1165 1.414 . S
C1164 C1167 1.499 . S
C1165 H1139 0.950 . S
C1165 C1164 1.414 . S
C1165 C1166 1.374 . S
C1166 H1140 0.950 . S
C1166 C1162 1.385 . S
C1166 C1165 1.374 . S
C1167 C1164 1.499 . S
C1167 C1168 1.373 . S
C1167 C1169 1.389 . S
C1168 H1141 0.950 . S
C1168 C1154 1.377 . S
C1168 C1167 1.373 . S
C1169 C1153 1.377 . S
C1169 C1167 1.389 . S
C1169 C1170 1.524 . S
C1170 C1169 1.524 . S
C1170 C1171 1.397 . S
C1170 C1175 1.363 . S
C1171 H1142 0.950 . S
C1171 C1170 1.397 . S
C1171 C1172 1.334 . S
C1172 H1143 0.950 . S
C1172 C1171 1.334 . S
C1172 C1173 1.287 . S
C1173 C1172 1.287 . S
C1173 C1174 1.524 . S
C1173 H1176 0.999 . S
C1174 H1144 0.950 . S
C1174 C1173 1.524 . S
C1174 C1175 1.415 . S
C1175 H1145 0.950 . S
C1175 C1170 1.363 . S
C1175 C1174 1.415 . S
H1176 C1173 0.999 . S
H1177 C1158 0.913 . S
H1178 C1196 0.951 . S
H1179 C1198 0.951 . S
H1180 C1200 0.950 . S
H1181 C1201 0.950 . S
H1182 C1203 0.950 . S
H1183 C1206 0.950 . S
H1184 C1207 0.950 . S
H1185 C1209 0.950 . S
H1186 C1210 0.950 . S
H1187 C1211 0.951 . S
H1188 C1213 0.951 . S
H1189 C1215 0.950 . S
H1190 C1216 0.950 . S
H1191 C1218 0.950 . S
H1192 C1221 0.950 . S
H1193 C1222 0.950 . S
H1194 C1224 0.950 . S
H1195 C1225 0.950 . S
C1196 H1178 0.951 . S
C1196 C1197 1.366 . S
C1196 C1198 1.388 . S
C1197 C1196 1.366 . S
C1197 C1201 1.385 . S
C1198 H1179 0.951 . S
C1198 C1196 1.388 . S
C1198 C1199 1.366 . S
C1199 C1198 1.366 . S
C1199 C1200 1.414 . S
C1199 C1202 1.499 . S
C1200 H1180 0.950 . S
C1200 C1199 1.414 . S
C1200 C1201 1.374 . S
C1201 H1181 0.950 . S
C1201 C1197 1.385 . S
C1201 C1200 1.374 . S
C1202 C1199 1.499 . S
C1202 C1203 1.373 . S
C1202 C1204 1.389 . S
C1203 H1182 0.950 . S
C1203 C1202 1.373 . S
C1203 C1219 1.377 . S
C1204 C1202 1.389 . S
C1204 C1205 1.524 . S
C1204 C1218 1.377 . S
C1205 C1204 1.524 . S
C1205 C1206 1.397 . S
C1205 C1210 1.363 . S
C1206 H1183 0.950 . S
C1206 C1205 1.397 . S
C1206 C1207 1.334 . S
C1207 H1184 0.950 . S
C1207 C1206 1.334 . S
C1207 C1208 1.287 . S
C1208 C1207 1.287 . S
C1208 C1209 1.524 . S
C1208 H1227 0.913 . S
C1209 H1185 0.950 . S
C1209 C1208 1.524 . S
C1209 C1210 1.415 . S
C1210 H1186 0.950 . S
C1210 C1205 1.363 . S
C1210 C1209 1.415 . S
C1211 H1187 0.951 . S
C1211 C1212 1.366 . S
C1211 C1213 1.388 . S
C1212 C1211 1.366 . S
C1212 C1216 1.385 . S
C1213 H1188 0.951 . S
C1213 C1211 1.388 . S
C1213 C1214 1.366 . S
C1214 C1213 1.366 . S
C1214 C1215 1.414 . S
C1214 C1217 1.499 . S
C1215 H1189 0.950 . S
C1215 C1214 1.414 . S
C1215 C1216 1.374 . S
C1216 H1190 0.950 . S
C1216 C1212 1.385 . S
C1216 C1215 1.374 . S
C1217 C1214 1.499 . S
C1217 C1218 1.373 . S
C1217 C1219 1.389 . S
C1218 H1191 0.950 . S
C1218 C1204 1.377 . S
C1218 C1217 1.373 . S
C1219 C1203 1.377 . S
C1219 C1217 1.389 . S
C1219 C1220 1.524 . S
C1220 C1219 1.524 . S
C1220 C1221 1.397 . S
C1220 C1225 1.363 . S
C1221 H1192 0.950 . S
C1221 C1220 1.397 . S
C1221 C1222 1.334 . S
C1222 H1193 0.950 . S
C1222 C1221 1.334 . S
C1222 C1223 1.287 . S
C1223 C1222 1.287 . S
C1223 C1224 1.524 . S
C1223 H1226 0.999 . S
C1224 H1194 0.950 . S
C1224 C1223 1.524 . S
C1224 C1225 1.415 . S
C1225 H1195 0.950 . S
C1225 C1220 1.363 . S
C1225 C1224 1.415 . S
H1226 C1223 0.999 . S
H1227 C1208 0.913 . S
H1228 C1246 0.951 . S
H1229 C1248 0.951 . S
H1230 C1250 0.950 . S
H1231 C1251 0.950 . S
H1232 C1253 0.950 . S
H1233 C1256 0.950 . S
H1234 C1257 0.950 . S
H1235 C1259 0.950 . S
H1236 C1260 0.950 . S
H1237 C1261 0.951 . S
H1238 C1263 0.951 . S
H1239 C1265 0.950 . S
H1240 C1266 0.950 . S
H1241 C1268 0.950 . S
H1242 C1271 0.950 . S
H1243 C1272 0.950 . S
H1244 C1274 0.950 . S
H1245 C1275 0.950 . S
C1246 H1228 0.951 . S
C1246 C1247 1.366 . S
C1246 C1248 1.388 . S
C1247 C1246 1.366 . S
C1247 C1251 1.385 . S
C1248 H1229 0.951 . S
C1248 C1246 1.388 . S
C1248 C1249 1.366 . S
C1249 C1248 1.366 . S
C1249 C1250 1.414 . S
C1249 C1252 1.499 . S
C1250 H1230 0.950 . S
C1250 C1249 1.414 . S
C1250 C1251 1.374 . S
C1251 H1231 0.950 . S
C1251 C1247 1.385 . S
C1251 C1250 1.374 . S
C1252 C1249 1.499 . S
C1252 C1253 1.373 . S
C1252 C1254 1.389 . S
C1253 H1232 0.950 . S
C1253 C1252 1.373 . S
C1253 C1269 1.377 . S
C1254 C1252 1.389 . S
C1254 C1255 1.524 . S
C1254 C1268 1.377 . S
C1255 C1254 1.524 . S
C1255 C1256 1.397 . S
C1255 C1260 1.363 . S
C1256 H1233 0.950 . S
C1256 C1255 1.397 . S
C1256 C1257 1.334 . S
C1257 H1234 0.950 . S
C1257 C1256 1.334 . S
C1257 C1258 1.287 . S
C1258 C1257 1.287 . S
C1258 C1259 1.524 . S
C1258 H1277 0.913 . S
C1259 H1235 0.950 . S
C1259 C1258 1.524 . S
C1259 C1260 1.415 . S
C1260 H1236 0.950 . S
C1260 C1255 1.363 . S
C1260 C1259 1.415 . S
C1261 H1237 0.951 . S
C1261 C1262 1.366 . S
C1261 C1263 1.388 . S
C1262 C1261 1.366 . S
C1262 C1266 1.385 . S
C1263 H1238 0.951 . S
C1263 C1261 1.388 . S
C1263 C1264 1.366 . S
C1264 C1263 1.366 . S
C1264 C1265 1.414 . S
C1264 C1267 1.499 . S
C1265 H1239 0.950 . S
C1265 C1264 1.414 . S
C1265 C1266 1.374 . S
C1266 H1240 0.950 . S
C1266 C1262 1.385 . S
C1266 C1265 1.374 . S
C1267 C1264 1.499 . S
C1267 C1268 1.373 . S
C1267 C1269 1.389 . S
C1268 H1241 0.950 . S
C1268 C1254 1.377 . S
C1268 C1267 1.373 . S
C1269 C1253 1.377 . S
C1269 C1267 1.389 . S
C1269 C1270 1.524 . S
C1270 C1269 1.524 . S
C1270 C1271 1.397 . S
C1270 C1275 1.363 . S
C1271 H1242 0.950 . S
C1271 C1270 1.397 . S
C1271 C1272 1.334 . S
C1272 H1243 0.950 . S
C1272 C1271 1.334 . S
C1272 C1273 1.287 . S
C1273 C1272 1.287 . S
C1273 C1274 1.524 . S
C1273 H1276 0.999 . S
C1274 H1244 0.950 . S
C1274 C1273 1.524 . S
C1274 C1275 1.415 . S
C1275 H1245 0.950 . S
C1275 C1270 1.363 . S
C1275 C1274 1.415 . S
H1276 C1273 0.999 . S
H1277 C1258 0.913 . S
H1278 C1296 0.951 . S
H1279 C1298 0.951 . S
H1280 C1300 0.950 . S
H1281 C1301 0.950 . S
H1282 C1303 0.950 . S
H1283 C1306 0.950 . S
H1284 C1307 0.950 . S
H1285 C1309 0.950 . S
H1286 C1310 0.950 . S
H1287 C1311 0.951 . S
H1288 C1313 0.951 . S
H1289 C1315 0.950 . S
H1290 C1316 0.950 . S
H1291 C1318 0.950 . S
H1292 C1321 0.950 . S
H1293 C1322 0.950 . S
H1294 C1324 0.950 . S
H1295 C1325 0.950 . S
C1296 H1278 0.951 . S
C1296 C1297 1.366 . S
C1296 C1298 1.388 . S
C1297 C1296 1.366 . S
C1297 C1301 1.385 . S
C1298 H1279 0.951 . S
C1298 C1296 1.388 . S
C1298 C1299 1.366 . S
C1299 C1298 1.366 . S
C1299 C1300 1.414 . S
C1299 C1302 1.499 . S
C1300 H1280 0.950 . S
C1300 C1299 1.414 . S
C1300 C1301 1.374 . S
C1301 H1281 0.950 . S
C1301 C1297 1.385 . S
C1301 C1300 1.374 . S
C1302 C1299 1.499 . S
C1302 C1303 1.373 . S
C1302 C1304 1.389 . S
C1303 H1282 0.950 . S
C1303 C1302 1.373 . S
C1303 C1319 1.377 . S
C1304 C1302 1.389 . S
C1304 C1305 1.524 . S
C1304 C1318 1.377 . S
C1305 C1304 1.524 . S
C1305 C1306 1.397 . S
C1305 C1310 1.363 . S
C1306 H1283 0.950 . S
C1306 C1305 1.397 . S
C1306 C1307 1.334 . S
C1307 H1284 0.950 . S
C1307 C1306 1.334 . S
C1307 C1308 1.287 . S
C1308 C1307 1.287 . S
C1308 C1309 1.524 . S
C1308 H1327 0.913 . S
C1309 H1285 0.950 . S
C1309 C1308 1.524 . S
C1309 C1310 1.415 . S
C1310 H1286 0.950 . S
C1310 C1305 1.363 . S
C1310 C1309 1.415 . S
C1311 H1287 0.951 . S
C1311 C1312 1.366 . S
C1311 C1313 1.388 . S
C1312 C1311 1.366 . S
C1312 C1316 1.385 . S
C1313 H1288 0.951 . S
C1313 C1311 1.388 . S
C1313 C1314 1.366 . S
C1314 C1313 1.366 . S
C1314 C1315 1.414 . S
C1314 C1317 1.499 . S
C1315 H1289 0.950 . S
C1315 C1314 1.414 . S
C1315 C1316 1.374 . S
C1316 H1290 0.950 . S
C1316 C1312 1.385 . S
C1316 C1315 1.374 . S
C1317 C1314 1.499 . S
C1317 C1318 1.373 . S
C1317 C1319 1.389 . S
C1318 H1291 0.950 . S
C1318 C1304 1.377 . S
C1318 C1317 1.373 . S
C1319 C1303 1.377 . S
C1319 C1317 1.389 . S
C1319 C1320 1.524 . S
C1320 C1319 1.524 . S
C1320 C1321 1.397 . S
C1320 C1325 1.363 . S
C1321 H1292 0.950 . S
C1321 C1320 1.397 . S
C1321 C1322 1.334 . S
C1322 H1293 0.950 . S
C1322 C1321 1.334 . S
C1322 C1323 1.287 . S
C1323 C1322 1.287 . S
C1323 C1324 1.524 . S
C1323 H1326 0.999 . S
C1324 H1294 0.950 . S
C1324 C1323 1.524 . S
C1324 C1325 1.415 . S
C1325 H1295 0.950 . S
C1325 C1320 1.363 . S
C1325 C1324 1.415 . S
H1326 C1323 0.999 . S
H1327 C1308 0.913 . S
H1328 C1346 0.951 . S
H1329 C1348 0.951 . S
H1330 C1350 0.950 . S
H1331 C1351 0.950 . S
H1332 C1353 0.950 . S
H1333 C1356 0.950 . S
H1334 C1357 0.950 . S
H1335 C1359 0.950 . S
H1336 C1360 0.950 . S
H1337 C1361 0.951 . S
H1338 C1363 0.951 . S
H1339 C1365 0.950 . S
H1340 C1366 0.950 . S
H1341 C1368 0.950 . S
H1342 C1371 0.950 . S
H1343 C1372 0.950 . S
H1344 C1374 0.950 . S
H1345 C1375 0.950 . S
C1346 H1328 0.951 . S
C1346 C1347 1.366 . S
C1346 C1348 1.388 . S
C1347 C1346 1.366 . S
C1347 C1351 1.385 . S
C1348 H1329 0.951 . S
C1348 C1346 1.388 . S
C1348 C1349 1.366 . S
C1349 C1348 1.366 . S
C1349 C1350 1.414 . S
C1349 C1352 1.499 . S
C1350 H1330 0.950 . S
C1350 C1349 1.414 . S
C1350 C1351 1.374 . S
C1351 H1331 0.950 . S
C1351 C1347 1.385 . S
C1351 C1350 1.374 . S
C1352 C1349 1.499 . S
C1352 C1353 1.373 . S
C1352 C1354 1.389 . S
C1353 H1332 0.950 . S
C1353 C1352 1.373 . S
C1353 C1369 1.377 . S
C1354 C1352 1.389 . S
C1354 C1355 1.524 . S
C1354 C1368 1.377 . S
C1355 C1354 1.524 . S
C1355 C1356 1.397 . S
C1355 C1360 1.363 . S
C1356 H1333 0.950 . S
C1356 C1355 1.397 . S
C1356 C1357 1.334 . S
C1357 H1334 0.950 . S
C1357 C1356 1.334 . S
C1357 C1358 1.287 . S
C1358 C1357 1.287 . S
C1358 C1359 1.524 . S
C1358 H1377 0.913 . S
C1359 H1335 0.950 . S
C1359 C1358 1.524 . S
C1359 C1360 1.415 . S
C1360 H1336 0.950 . S
C1360 C1355 1.363 . S
C1360 C1359 1.415 . S
C1361 H1337 0.951 . S
C1361 C1362 1.366 . S
C1361 C1363 1.388 . S
C1362 C1361 1.366 . S
C1362 C1366 1.385 . S
C1363 H1338 0.951 . S
C1363 C1361 1.388 . S
C1363 C1364 1.366 . S
C1364 C1363 1.366 . S
C1364 C1365 1.414 . S
C1364 C1367 1.499 . S
C1365 H1339 0.950 . S
C1365 C1364 1.414 . S
C1365 C1366 1.374 . S
C1366 H1340 0.950 . S
C1366 C1362 1.385 . S
C1366 C1365 1.374 . S
C1367 C1364 1.499 . S
C1367 C1368 1.373 . S
C1367 C1369 1.389 . S
C1368 H1341 0.950 . S
C1368 C1354 1.377 . S
C1368 C1367 1.373 . S
C1369 C1353 1.377 . S
C1369 C1367 1.389 . S
C1369 C1370 1.524 . S
C1370 C1369 1.524 . S
C1370 C1371 1.397 . S
C1370 C1375 1.363 . S
C1371 H1342 0.950 . S
C1371 C1370 1.397 . S
C1371 C1372 1.334 . S
C1372 H1343 0.950 . S
C1372 C1371 1.334 . S
C1372 C1373 1.287 . S
C1373 C1372 1.287 . S
C1373 C1374 1.524 . S
C1373 H1376 0.999 . S
C1374 H1344 0.950 . S
C1374 C1373 1.524 . S
C1374 C1375 1.415 . S
C1375 H1345 0.950 . S
C1375 C1370 1.363 . S
C1375 C1374 1.415 . S
H1376 C1373 0.999 . S
H1377 C1358 0.913 . S
H1378 C1396 0.951 . S
H1379 C1398 0.951 . S
H1380 C1400 0.950 . S
H1381 C1401 0.950 . S
H1382 C1403 0.950 . S
H1383 C1406 0.950 . S
H1384 C1407 0.950 . S
H1385 C1409 0.950 . S
H1386 C1410 0.950 . S
H1387 C1411 0.951 . S
H1388 C1413 0.951 . S
H1389 C1415 0.950 . S
H1390 C1416 0.950 . S
H1391 C1418 0.950 . S
H1392 C1421 0.950 . S
H1393 C1422 0.950 . S
H1394 C1424 0.950 . S
H1395 C1425 0.950 . S
C1396 H1378 0.951 . S
C1396 C1397 1.366 . S
C1396 C1398 1.388 . S
C1397 C1396 1.366 . S
C1397 C1401 1.385 . S
C1398 H1379 0.951 . S
C1398 C1396 1.388 . S
C1398 C1399 1.366 . S
C1399 C1398 1.366 . S
C1399 C1400 1.414 . S
C1399 C1402 1.499 . S
C1400 H1380 0.950 . S
C1400 C1399 1.414 . S
C1400 C1401 1.374 . S
C1401 H1381 0.950 . S
C1401 C1397 1.385 . S
C1401 C1400 1.374 . S
C1402 C1399 1.499 . S
C1402 C1403 1.373 . S
C1402 C1404 1.389 . S
C1403 H1382 0.950 . S
C1403 C1402 1.373 . S
C1403 C1419 1.377 . S
C1404 C1402 1.389 . S
C1404 C1405 1.524 . S
C1404 C1418 1.377 . S
C1405 C1404 1.524 . S
C1405 C1406 1.397 . S
C1405 C1410 1.363 . S
C1406 H1383 0.950 . S
C1406 C1405 1.397 . S
C1406 C1407 1.334 . S
C1407 H1384 0.950 . S
C1407 C1406 1.334 . S
C1407 C1408 1.287 . S
C1408 C1407 1.287 . S
C1408 C1409 1.524 . S
C1408 H1427 0.913 . S
C1409 H1385 0.950 . S
C1409 C1408 1.524 . S
C1409 C1410 1.415 . S
C1410 H1386 0.950 . S
C1410 C1405 1.363 . S
C1410 C1409 1.415 . S
C1411 H1387 0.951 . S
C1411 C1412 1.366 . S
C1411 C1413 1.388 . S
C1412 C1411 1.366 . S
C1412 C1416 1.385 . S
C1413 H1388 0.951 . S
C1413 C1411 1.388 . S
C1413 C1414 1.366 . S
C1414 C1413 1.366 . S
C1414 C1415 1.414 . S
C1414 C1417 1.499 . S
C1415 H1389 0.950 . S
C1415 C1414 1.414 . S
C1415 C1416 1.374 . S
C1416 H1390 0.950 . S
C1416 C1412 1.385 . S
C1416 C1415 1.374 . S
C1417 C1414 1.499 . S
C1417 C1418 1.373 . S
C1417 C1419 1.389 . S
C1418 H1391 0.950 . S
C1418 C1404 1.377 . S
C1418 C1417 1.373 . S
C1419 C1403 1.377 . S
C1419 C1417 1.389 . S
C1419 C1420 1.524 . S
C1420 C1419 1.524 . S
C1420 C1421 1.397 . S
C1420 C1425 1.363 . S
C1421 H1392 0.950 . S
C1421 C1420 1.397 . S
C1421 C1422 1.334 . S
C1422 H1393 0.950 . S
C1422 C1421 1.334 . S
C1422 C1423 1.287 . S
C1423 C1422 1.287 . S
C1423 C1424 1.524 . S
C1423 H1426 0.999 . S
C1424 H1394 0.950 . S
C1424 C1423 1.524 . S
C1424 C1425 1.415 . S
C1425 H1395 0.950 . S
C1425 C1420 1.363 . S
C1425 C1424 1.415 . S
H1426 C1423 0.999 . S
H1427 C1408 0.913 . S
H1428 C1446 0.951 . S
H1429 C1448 0.951 . S
H1430 C1450 0.950 . S
H1431 C1451 0.950 . S
H1432 C1453 0.950 . S
H1433 C1456 0.950 . S
H1434 C1457 0.950 . S
H1435 C1459 0.950 . S
H1436 C1460 0.950 . S
H1437 C1461 0.951 . S
H1438 C1463 0.951 . S
H1439 C1465 0.950 . S
H1440 C1466 0.950 . S
H1441 C1468 0.950 . S
H1442 C1471 0.950 . S
H1443 C1472 0.950 . S
H1444 C1474 0.950 . S
H1445 C1475 0.950 . S
C1446 H1428 0.951 . S
C1446 C1447 1.366 . S
C1446 C1448 1.388 . S
C1447 C1446 1.366 . S
C1447 C1451 1.385 . S
C1448 H1429 0.951 . S
C1448 C1446 1.388 . S
C1448 C1449 1.366 . S
C1449 C1448 1.366 . S
C1449 C1450 1.414 . S
C1449 C1452 1.499 . S
C1450 H1430 0.950 . S
C1450 C1449 1.414 . S
C1450 C1451 1.374 . S
C1451 H1431 0.950 . S
C1451 C1447 1.385 . S
C1451 C1450 1.374 . S
C1452 C1449 1.499 . S
C1452 C1453 1.373 . S
C1452 C1454 1.389 . S
C1453 H1432 0.950 . S
C1453 C1452 1.373 . S
C1453 C1469 1.377 . S
C1454 C1452 1.389 . S
C1454 C1455 1.524 . S
C1454 C1468 1.377 . S
C1455 C1454 1.524 . S
C1455 C1456 1.397 . S
C1455 C1460 1.363 . S
C1456 H1433 0.950 . S
C1456 C1455 1.397 . S
C1456 C1457 1.334 . S
C1457 H1434 0.950 . S
C1457 C1456 1.334 . S
C1457 C1458 1.287 . S
C1458 C1457 1.287 . S
C1458 C1459 1.524 . S
C1458 H1477 0.913 . S
C1459 H1435 0.950 . S
C1459 C1458 1.524 . S
C1459 C1460 1.415 . S
C1460 H1436 0.950 . S
C1460 C1455 1.363 . S
C1460 C1459 1.415 . S
C1461 H1437 0.951 . S
C1461 C1462 1.366 . S
C1461 C1463 1.388 . S
C1462 C1461 1.366 . S
C1462 C1466 1.385 . S
C1463 H1438 0.951 . S
C1463 C1461 1.388 . S
C1463 C1464 1.366 . S
C1464 C1463 1.366 . S
C1464 C1465 1.414 . S
C1464 C1467 1.499 . S
C1465 H1439 0.950 . S
C1465 C1464 1.414 . S
C1465 C1466 1.374 . S
C1466 H1440 0.950 . S
C1466 C1462 1.385 . S
C1466 C1465 1.374 . S
C1467 C1464 1.499 . S
C1467 C1468 1.373 . S
C1467 C1469 1.389 . S
C1468 H1441 0.950 . S
C1468 C1454 1.377 . S
C1468 C1467 1.373 . S
C1469 C1453 1.377 . S
C1469 C1467 1.389 . S
C1469 C1470 1.524 . S
C1470 C1469 1.524 . S
C1470 C1471 1.397 . S
C1470 C1475 1.363 . S
C1471 H1442 0.950 . S
C1471 C1470 1.397 . S
C1471 C1472 1.334 . S
C1472 H1443 0.950 . S
C1472 C1471 1.334 . S
C1472 C1473 1.287 . S
C1473 C1472 1.287 . S
C1473 C1474 1.524 . S
C1473 H1476 0.999 . S
C1474 H1444 0.950 . S
C1474 C1473 1.524 . S
C1474 C1475 1.415 . S
C1475 H1445 0.950 . S
C1475 C1470 1.363 . S
C1475 C1474 1.415 . S
H1476 C1473 0.999 . S
H1477 C1458 0.913 . S
H1478 C1496 0.951 . S
H1479 C1498 0.951 . S
H1480 C1500 0.950 . S
H1481 C1501 0.950 . S
H1482 C1503 0.950 . S
H1483 C1506 0.950 . S
H1484 C1507 0.950 . S
H1485 C1509 0.950 . S
H1486 C1510 0.950 . S
H1487 C1511 0.951 . S
H1488 C1513 0.951 . S
H1489 C1515 0.950 . S
H1490 C1516 0.950 . S
H1491 C1518 0.950 . S
H1492 C1521 0.950 . S
H1493 C1522 0.950 . S
H1494 C1524 0.950 . S
H1495 C1525 0.950 . S
C1496 H1478 0.951 . S
C1496 C1497 1.366 . S
C1496 C1498 1.388 . S
C1497 C1496 1.366 . S
C1497 C1501 1.385 . S
C1498 H1479 0.951 . S
C1498 C1496 1.388 . S
C1498 C1499 1.366 . S
C1499 C1498 1.366 . S
C1499 C1500 1.414 . S
C1499 C1502 1.499 . S
C1500 H1480 0.950 . S
C1500 C1499 1.414 . S
C1500 C1501 1.374 . S
C1501 H1481 0.950 . S
C1501 C1497 1.385 . S
C1501 C1500 1.374 . S
C1502 C1499 1.499 . S
C1502 C1503 1.373 . S
C1502 C1504 1.389 . S
C1503 H1482 0.950 . S
C1503 C1502 1.373 . S
C1503 C1519 1.377 . S
C1504 C1502 1.389 . S
C1504 C1505 1.524 . S
C1504 C1518 1.377 . S
C1505 C1504 1.524 . S
C1505 C1506 1.397 . S
C1505 C1510 1.363 . S
C1506 H1483 0.950 . S
C1506 C1505 1.397 . S
C1506 C1507 1.334 . S
C1507 H1484 0.950 . S
C1507 C1506 1.334 . S
C1507 C1508 1.287 . S
C1508 C1507 1.287 . S
C1508 C1509 1.524 . S
C1508 H1527 0.913 . S
C1509 H1485 0.950 . S
C1509 C1508 1.524 . S
C1509 C1510 1.415 . S
C1510 H1486 0.950 . S
C1510 C1505 1.363 . S
C1510 C1509 1.415 . S
C1511 H1487 0.951 . S
C1511 C1512 1.366 . S
C1511 C1513 1.388 . S
C1512 C1511 1.366 . S
C1512 C1516 1.385 . S
C1513 H1488 0.951 . S
C1513 C1511 1.388 . S
C1513 C1514 1.366 . S
C1514 C1513 1.366 . S
C1514 C1515 1.414 . S
C1514 C1517 1.499 . S
C1515 H1489 0.950 . S
C1515 C1514 1.414 . S
C1515 C1516 1.374 . S
C1516 H1490 0.950 . S
C1516 C1512 1.385 . S
C1516 C1515 1.374 . S
C1517 C1514 1.499 . S
C1517 C1518 1.373 . S
C1517 C1519 1.389 . S
C1518 H1491 0.950 . S
C1518 C1504 1.377 . S
C1518 C1517 1.373 . S
C1519 C1503 1.377 . S
C1519 C1517 1.389 . S
C1519 C1520 1.524 . S
C1520 C1519 1.524 . S
C1520 C1521 1.397 . S
C1520 C1525 1.363 . S
C1521 H1492 0.950 . S
C1521 C1520 1.397 . S
C1521 C1522 1.334 . S
C1522 H1493 0.950 . S
C1522 C1521 1.334 . S
C1522 C1523 1.287 . S
C1523 C1522 1.287 . S
C1523 C1524 1.524 . S
C1523 H1526 0.999 . S
C1524 H1494 0.950 . S
C1524 C1523 1.524 . S
C1524 C1525 1.415 . S
C1525 H1495 0.950 . S
C1525 C1520 1.363 . S
C1525 C1524 1.415 . S
H1526 C1523 0.999 . S
H1527 C1508 0.913 . S
H1528 C1546 0.951 . S
H1529 C1548 0.951 . S
H1530 C1550 0.950 . S
H1531 C1551 0.950 . S
H1532 C1553 0.950 . S
H1533 C1556 0.950 . S
H1534 C1557 0.950 . S
H1535 C1559 0.950 . S
H1536 C1560 0.950 . S
H1537 C1561 0.951 . S
H1538 C1563 0.951 . S
H1539 C1565 0.950 . S
H1540 C1566 0.950 . S
H1541 C1568 0.950 . S
H1542 C1571 0.950 . S
H1543 C1572 0.950 . S
H1544 C1574 0.950 . S
H1545 C1575 0.950 . S
C1546 H1528 0.951 . S
C1546 C1547 1.366 . S
C1546 C1548 1.388 . S
C1547 C1546 1.366 . S
C1547 C1551 1.385 . S
C1548 H1529 0.951 . S
C1548 C1546 1.388 . S
C1548 C1549 1.366 . S
C1549 C1548 1.366 . S
C1549 C1550 1.414 . S
C1549 C1552 1.499 . S
C1550 H1530 0.950 . S
C1550 C1549 1.414 . S
C1550 C1551 1.374 . S
C1551 H1531 0.950 . S
C1551 C1547 1.385 . S
C1551 C1550 1.374 . S
C1552 C1549 1.499 . S
C1552 C1553 1.373 . S
C1552 C1554 1.389 . S
C1553 H1532 0.950 . S
C1553 C1552 1.373 . S
C1553 C1569 1.377 . S
C1554 C1552 1.389 . S
C1554 C1555 1.524 . S
C1554 C1568 1.377 . S
C1555 C1554 1.524 . S
C1555 C1556 1.397 . S
C1555 C1560 1.363 . S
C1556 H1533 0.950 . S
C1556 C1555 1.397 . S
C1556 C1557 1.334 . S
C1557 H1534 0.950 . S
C1557 C1556 1.334 . S
C1557 C1558 1.287 . S
C1558 C1557 1.287 . S
C1558 C1559 1.524 . S
C1558 H1577 0.913 . S
C1559 H1535 0.950 . S
C1559 C1558 1.524 . S
C1559 C1560 1.415 . S
C1560 H1536 0.950 . S
C1560 C1555 1.363 . S
C1560 C1559 1.415 . S
C1561 H1537 0.951 . S
C1561 C1562 1.366 . S
C1561 C1563 1.388 . S
C1562 C1561 1.366 . S
C1562 C1566 1.385 . S
C1563 H1538 0.951 . S
C1563 C1561 1.388 . S
C1563 C1564 1.366 . S
C1564 C1563 1.366 . S
C1564 C1565 1.414 . S
C1564 C1567 1.499 . S
C1565 H1539 0.950 . S
C1565 C1564 1.414 . S
C1565 C1566 1.374 . S
C1566 H1540 0.950 . S
C1566 C1562 1.385 . S
C1566 C1565 1.374 . S
C1567 C1564 1.499 . S
C1567 C1568 1.373 . S
C1567 C1569 1.389 . S
C1568 H1541 0.950 . S
C1568 C1554 1.377 . S
C1568 C1567 1.373 . S
C1569 C1553 1.377 . S
C1569 C1567 1.389 . S
C1569 C1570 1.524 . S
C1570 C1569 1.524 . S
C1570 C1571 1.397 . S
C1570 C1575 1.363 . S
C1571 H1542 0.950 . S
C1571 C1570 1.397 . S
C1571 C1572 1.334 . S
C1572 H1543 0.950 . S
C1572 C1571 1.334 . S
C1572 C1573 1.287 . S
C1573 C1572 1.287 . S
C1573 C1574 1.524 . S
C1573 H1576 0.999 . S
C1574 H1544 0.950 . S
C1574 C1573 1.524 . S
C1574 C1575 1.415 . S
C1575 H1545 0.950 . S
C1575 C1570 1.363 . S
C1575 C1574 1.415 . S
H1576 C1573 0.999 . S
H1577 C1558 0.913 . S
H1578 C1596 0.951 . S
H1579 C1598 0.951 . S
H1580 C1600 0.950 . S
H1581 C1601 0.950 . S
H1582 C1603 0.950 . S
H1583 C1606 0.950 . S
H1584 C1607 0.950 . S
H1585 C1609 0.950 . S
H1586 C1610 0.950 . S
H1587 C1611 0.951 . S
H1588 C1613 0.951 . S
H1589 C1615 0.950 . S
H1590 C1616 0.950 . S
H1591 C1618 0.950 . S
H1592 C1621 0.950 . S
H1593 C1622 0.950 . S
H1594 C1624 0.950 . S
H1595 C1625 0.950 . S
C1596 H1578 0.951 . S
C1596 C1597 1.366 . S
C1596 C1598 1.388 . S
C1597 C1596 1.366 . S
C1597 C1601 1.385 . S
C1598 H1579 0.951 . S
C1598 C1596 1.388 . S
C1598 C1599 1.366 . S
C1599 C1598 1.366 . S
C1599 C1600 1.414 . S
C1599 C1602 1.499 . S
C1600 H1580 0.950 . S
C1600 C1599 1.414 . S
C1600 C1601 1.374 . S
C1601 H1581 0.950 . S
C1601 C1597 1.385 . S
C1601 C1600 1.374 . S
C1602 C1599 1.499 . S
C1602 C1603 1.373 . S
C1602 C1604 1.389 . S
C1603 H1582 0.950 . S
C1603 C1602 1.373 . S
C1603 C1619 1.377 . S
C1604 C1602 1.389 . S
C1604 C1605 1.524 . S
C1604 C1618 1.377 . S
C1605 C1604 1.524 . S
C1605 C1606 1.397 . S
C1605 C1610 1.363 . S
C1606 H1583 0.950 . S
C1606 C1605 1.397 . S
C1606 C1607 1.334 . S
C1607 H1584 0.950 . S
C1607 C1606 1.334 . S
C1607 C1608 1.287 . S
C1608 C1607 1.287 . S
C1608 C1609 1.524 . S
C1608 H1627 0.913 . S
C1609 H1585 0.950 . S
C1609 C1608 1.524 . S
C1609 C1610 1.415 . S
C1610 H1586 0.950 . S
C1610 C1605 1.363 . S
C1610 C1609 1.415 . S
C1611 H1587 0.951 . S
C1611 C1612 1.366 . S
C1611 C1613 1.388 . S
C1612 C1611 1.366 . S
C1612 C1616 1.385 . S
C1613 H1588 0.951 . S
C1613 C1611 1.388 . S
C1613 C1614 1.366 . S
C1614 C1613 1.366 . S
C1614 C1615 1.414 . S
C1614 C1617 1.499 . S
C1615 H1589 0.950 . S
C1615 C1614 1.414 . S
C1615 C1616 1.374 . S
C1616 H1590 0.950 . S
C1616 C1612 1.385 . S
C1616 C1615 1.374 . S
C1617 C1614 1.499 . S
C1617 C1618 1.373 . S
C1617 C1619 1.389 . S
C1618 H1591 0.950 . S
C1618 C1604 1.377 . S
C1618 C1617 1.373 . S
C1619 C1603 1.377 . S
C1619 C1617 1.389 . S
C1619 C1620 1.524 . S
C1620 C1619 1.524 . S
C1620 C1621 1.397 . S
C1620 C1625 1.363 . S
C1621 H1592 0.950 . S
C1621 C1620 1.397 . S
C1621 C1622 1.334 . S
C1622 H1593 0.950 . S
C1622 C1621 1.334 . S
C1622 C1623 1.287 . S
C1623 C1622 1.287 . S
C1623 C1624 1.524 . S
C1623 H1626 0.999 . S
C1624 H1594 0.950 . S
C1624 C1623 1.524 . S
C1624 C1625 1.415 . S
C1625 H1595 0.950 . S
C1625 C1620 1.363 . S
C1625 C1624 1.415 . S
H1626 C1623 0.999 . S
H1627 C1608 0.913 . S
H1628 C1646 0.951 . S
H1629 C1648 0.951 . S
H1630 C1650 0.950 . S
H1631 C1651 0.950 . S
H1632 C1653 0.950 . S
H1633 C1656 0.950 . S
H1634 C1657 0.950 . S
H1635 C1659 0.950 . S
H1636 C1660 0.950 . S
H1637 C1661 0.951 . S
H1638 C1663 0.951 . S
H1639 C1665 0.950 . S
H1640 C1666 0.950 . S
H1641 C1668 0.950 . S
H1642 C1671 0.950 . S
H1643 C1672 0.950 . S
H1644 C1674 0.950 . S
H1645 C1675 0.950 . S
C1646 H1628 0.951 . S
C1646 C1647 1.366 . S
C1646 C1648 1.388 . S
C1647 C1646 1.366 . S
C1647 C1651 1.385 . S
C1648 H1629 0.951 . S
C1648 C1646 1.388 . S
C1648 C1649 1.366 . S
C1649 C1648 1.366 . S
C1649 C1650 1.414 . S
C1649 C1652 1.499 . S
C1650 H1630 0.950 . S
C1650 C1649 1.414 . S
C1650 C1651 1.374 . S
C1651 H1631 0.950 . S
C1651 C1647 1.385 . S
C1651 C1650 1.374 . S
C1652 C1649 1.499 . S
C1652 C1653 1.373 . S
C1652 C1654 1.389 . S
C1653 H1632 0.950 . S
C1653 C1652 1.373 . S
C1653 C1669 1.377 . S
C1654 C1652 1.389 . S
C1654 C1655 1.524 . S
C1654 C1668 1.377 . S
C1655 C1654 1.524 . S
C1655 C1656 1.397 . S
C1655 C1660 1.363 . S
C1656 H1633 0.950 . S
C1656 C1655 1.397 . S
C1656 C1657 1.334 . S
C1657 H1634 0.950 . S
C1657 C1656 1.334 . S
C1657 C1658 1.287 . S
C1658 C1657 1.287 . S
C1658 C1659 1.524 . S
C1658 H1677 0.913 . S
C1659 H1635 0.950 . S
C1659 C1658 1.524 . S
C1659 C1660 1.415 . S
C1660 H1636 0.950 . S
C1660 C1655 1.363 . S
C1660 C1659 1.415 . S
C1661 H1637 0.951 . S
C1661 C1662 1.366 . S
C1661 C1663 1.388 . S
C1662 C1661 1.366 . S
C1662 C1666 1.385 . S
C1663 H1638 0.951 . S
C1663 C1661 1.388 . S
C1663 C1664 1.366 . S
C1664 C1663 1.366 . S
C1664 C1665 1.414 . S
C1664 C1667 1.499 . S
C1665 H1639 0.950 . S
C1665 C1664 1.414 . S
C1665 C1666 1.374 . S
C1666 H1640 0.950 . S
C1666 C1662 1.385 . S
C1666 C1665 1.374 . S
C1667 C1664 1.499 . S
C1667 C1668 1.373 . S
C1667 C1669 1.389 . S
C1668 H1641 0.950 . S
C1668 C1654 1.377 . S
C1668 C1667 1.373 . S
C1669 C1653 1.377 . S
C1669 C1667 1.389 . S
C1669 C1670 1.524 . S
C1670 C1669 1.524 . S
C1670 C1671 1.397 . S
C1670 C1675 1.363 . S
C1671 H1642 0.950 . S
C1671 C1670 1.397 . S
C1671 C1672 1.334 . S
C1672 H1643 0.950 . S
C1672 C1671 1.334 . S
C1672 C1673 1.287 . S
C1673 C1672 1.287 . S
C1673 C1674 1.524 . S
C1673 H1676 0.999 . S
C1674 H1644 0.950 . S
C1674 C1673 1.524 . S
C1674 C1675 1.415 . S
C1675 H1645 0.950 . S
C1675 C1670 1.363 . S
C1675 C1674 1.415 . S
H1676 C1673 0.999 . S
H1677 C1658 0.913 . S
H1678 C1696 0.951 . S
H1679 C1698 0.951 . S
H1680 C1700 0.950 . S
H1681 C1701 0.950 . S
H1682 C1703 0.950 . S
H1683 C1706 0.950 . S
H1684 C1707 0.950 . S
H1685 C1709 0.950 . S
H1686 C1710 0.950 . S
H1687 C1711 0.951 . S
H1688 C1713 0.951 . S
H1689 C1715 0.950 . S
H1690 C1716 0.950 . S
H1691 C1718 0.950 . S
H1692 C1721 0.950 . S
H1693 C1722 0.950 . S
H1694 C1724 0.950 . S
H1695 C1725 0.950 . S
C1696 H1678 0.951 . S
C1696 C1697 1.366 . S
C1696 C1698 1.388 . S
C1697 C1696 1.366 . S
C1697 C1701 1.385 . S
C1698 H1679 0.951 . S
C1698 C1696 1.388 . S
C1698 C1699 1.366 . S
C1699 C1698 1.366 . S
C1699 C1700 1.414 . S
C1699 C1702 1.499 . S
C1700 H1680 0.950 . S
C1700 C1699 1.414 . S
C1700 C1701 1.374 . S
C1701 H1681 0.950 . S
C1701 C1697 1.385 . S
C1701 C1700 1.374 . S
C1702 C1699 1.499 . S
C1702 C1703 1.373 . S
C1702 C1704 1.389 . S
C1703 H1682 0.950 . S
C1703 C1702 1.373 . S
C1703 C1719 1.377 . S
C1704 C1702 1.389 . S
C1704 C1705 1.524 . S
C1704 C1718 1.377 . S
C1705 C1704 1.524 . S
C1705 C1706 1.397 . S
C1705 C1710 1.363 . S
C1706 H1683 0.950 . S
C1706 C1705 1.397 . S
C1706 C1707 1.334 . S
C1707 H1684 0.950 . S
C1707 C1706 1.334 . S
C1707 C1708 1.287 . S
C1708 C1707 1.287 . S
C1708 C1709 1.524 . S
C1708 H1727 0.913 . S
C1709 H1685 0.950 . S
C1709 C1708 1.524 . S
C1709 C1710 1.415 . S
C1710 H1686 0.950 . S
C1710 C1705 1.363 . S
C1710 C1709 1.415 . S
C1711 H1687 0.951 . S
C1711 C1712 1.366 . S
C1711 C1713 1.388 . S
C1712 C1711 1.366 . S
C1712 C1716 1.385 . S
C1713 H1688 0.951 . S
C1713 C1711 1.388 . S
C1713 C1714 1.366 . S
C1714 C1713 1.366 . S
C1714 C1715 1.414 . S
C1714 C1717 1.499 . S
C1715 H1689 0.950 . S
C1715 C1714 1.414 . S
C1715 C1716 1.374 . S
C1716 H1690 0.950 . S
C1716 C1712 1.385 . S
C1716 C1715 1.374 . S
C1717 C1714 1.499 . S
C1717 C1718 1.373 . S
C1717 C1719 1.389 . S
C1718 H1691 0.950 . S
C1718 C1704 1.377 . S
C1718 C1717 1.373 . S
C1719 C1703 1.377 . S
C1719 C1717 1.389 . S
C1719 C1720 1.524 . S
C1720 C1719 1.524 . S
C1720 C1721 1.397 . S
C1720 C1725 1.363 . S
C1721 H1692 0.950 . S
C1721 C1720 1.397 . S
C1721 C1722 1.334 . S
C1722 H1693 0.950 . S
C1722 C1721 1.334 . S
C1722 C1723 1.287 . S
C1723 C1722 1.287 . S
C1723 C1724 1.524 . S
C1723 H1726 0.999 . S
C1724 H1694 0.950 . S
C1724 C1723 1.524 . S
C1724 C1725 1.415 . S
C1725 H1695 0.950 . S
C1725 C1720 1.363 . S
C1725 C1724 1.415 . S
H1726 C1723 0.999 . S
H1727 C1708 0.913 . S
H1728 C1746 0.951 . S
H1729 C1748 0.951 . S
H1730 C1750 0.953 . S
H1731 C1751 0.950 . S
H1732 C1753 0.950 . S
H1733 C1756 0.950 . S
H1734 C1757 0.950 . S
H1735 C1759 0.950 . S
H1736 C1760 0.950 . S
H1737 C1761 0.951 1_565 S
H1738 C1763 0.951 1_565 S
H1739 C1765 0.950 . S
H1740 C1766 0.950 . S
H1741 C1768 0.950 . S
H1742 C1771 0.950 . S
H1743 C1772 0.950 . S
H1744 C1774 0.950 . S
H1745 C1775 0.950 . S
C1746 H1728 0.951 . S
C1746 C1747 1.366 . S
C1746 C1748 1.388 . S
C1747 C1746 1.366 . S
C1747 C1751 1.385 1_545 S
C1748 H1729 0.951 . S
C1748 C1746 1.388 . S
C1748 C1749 1.366 . S
C1749 C1748 1.366 . S
C1749 C1750 1.412 1_545 S
C1749 C1752 1.499 . S
C1750 H1730 0.953 . S
C1750 C1749 1.412 1_565 S
C1750 C1751 1.374 . S
C1751 H1731 0.950 . S
C1751 C1747 1.385 1_565 S
C1751 C1750 1.374 . S
C1752 C1749 1.499 . S
C1752 C1753 1.373 1_545 S
C1752 C1754 1.389 . S
C1753 H1732 0.950 . S
C1753 C1752 1.373 1_565 S
C1753 C1769 1.377 1_665 S
C1754 C1752 1.389 . S
C1754 C1755 1.524 . S
C1754 C1768 1.377 1_655 S
C1755 C1754 1.524 . S
C1755 C1756 1.397 . S
C1755 C1760 1.363 . S
C1756 H1733 0.950 . S
C1756 C1755 1.397 . S
C1756 C1757 1.334 . S
C1757 H1734 0.950 . S
C1757 C1756 1.334 . S
C1757 C1758 1.287 . S
C1758 C1757 1.287 . S
C1758 C1759 1.524 . S
C1758 H1777 0.913 . S
C1759 H1735 0.950 . S
C1759 C1758 1.524 . S
C1759 C1760 1.415 . S
C1760 H1736 0.950 . S
C1760 C1755 1.363 . S
C1760 C1759 1.415 . S
C1761 H1737 0.951 1_545 S
C1761 C1762 1.366 . S
C1761 C1763 1.388 . S
C1762 C1761 1.366 . S
C1762 C1766 1.385 . S
C1763 H1738 0.951 1_545 S
C1763 C1761 1.388 . S
C1763 C1764 1.366 . S
C1764 C1763 1.366 . S
C1764 C1765 1.414 . S
C1764 C1767 1.499 . S
C1765 H1739 0.950 . S
C1765 C1764 1.414 . S
C1765 C1766 1.374 . S
C1766 H1740 0.950 . S
C1766 C1762 1.385 . S
C1766 C1765 1.374 . S
C1767 C1764 1.499 . S
C1767 C1768 1.373 . S
C1767 C1769 1.388 . S
C1768 H1741 0.950 . S
C1768 C1754 1.377 1_455 S
C1768 C1767 1.373 . S
C1769 C1753 1.377 1_445 S
C1769 C1767 1.388 . S
C1769 C1770 1.526 1_545 S
C1770 C1769 1.526 1_565 S
C1770 C1771 1.397 . S
C1770 C1775 1.363 . S
C1771 H1742 0.950 . S
C1771 C1770 1.397 . S
C1771 C1772 1.334 . S
C1772 H1743 0.950 . S
C1772 C1771 1.334 . S
C1772 C1773 1.287 . S
C1773 C1772 1.287 . S
C1773 C1774 1.524 . S
C1773 H1776 0.999 . S
C1774 H1744 0.950 . S
C1774 C1773 1.524 . S
C1774 C1775 1.415 . S
C1775 H1745 0.950 . S
C1775 C1770 1.363 . S
C1775 C1774 1.415 . S
H1776 C1773 0.999 . S
H1777 C1758 0.913 . S
H1778 C1796 0.951 . S
H1779 C1798 0.951 . S
H1780 C1800 0.950 1_565 S
H1781 C1801 0.950 1_565 S
H1782 C1803 0.950 . S
H1783 C1806 0.950 . S
H1784 C1807 0.950 . S
H1785 C1809 0.950 . S
H1786 C1810 0.950 . S
H1787 C1811 0.951 1_565 S
H1788 C1813 0.951 1_565 S
H1789 C1815 0.950 . S
H1790 C1816 0.950 . S
H1791 C1818 0.950 . S
H1792 C1821 0.950 . S
H1793 C1822 0.950 . S
H1794 C1824 0.950 . S
H1795 C1825 0.950 . S
C1796 H1778 0.951 . S
C1796 C1797 1.366 . S
C1796 C1798 1.388 . S
C1797 C1796 1.366 . S
C1797 C1801 1.385 . S
C1798 H1779 0.951 . S
C1798 C1796 1.388 . S
C1798 C1799 1.366 . S
C1799 C1798 1.366 . S
C1799 C1800 1.414 . S
C1799 C1802 1.499 . S
C1800 H1780 0.950 1_545 S
C1800 C1799 1.414 . S
C1800 C1801 1.374 . S
C1801 H1781 0.950 1_545 S
C1801 C1797 1.385 . S
C1801 C1800 1.374 . S
C1802 C1799 1.499 . S
C1802 C1803 1.373 . S
C1802 C1804 1.389 . S
C1803 H1782 0.950 . S
C1803 C1802 1.373 . S
C1803 C1819 1.377 1_455 S
C1804 C1802 1.389 . S
C1804 C1805 1.524 . S
C1804 C1818 1.377 1_455 S
C1805 C1804 1.524 . S
C1805 C1806 1.397 1_545 S
C1805 C1810 1.363 . S
C1806 H1783 0.950 . S
C1806 C1805 1.397 1_565 S
C1806 C1807 1.334 . S
C1807 H1784 0.950 . S
C1807 C1806 1.334 . S
C1807 C1808 1.287 . S
C1808 C1807 1.287 . S
C1808 C1809 1.524 1_565 S
C1808 H1827 0.913 . S
C1809 H1785 0.950 . S
C1809 C1808 1.524 1_545 S
C1809 C1810 1.415 . S
C1810 H1786 0.950 . S
C1810 C1805 1.363 . S
C1810 C1809 1.415 . S
C1811 H1787 0.951 1_545 S
C1811 C1812 1.366 . S
C1811 C1813 1.388 . S
C1812 C1811 1.366 . S
C1812 C1816 1.385 . S
C1813 H1788 0.951 1_545 S
C1813 C1811 1.388 . S
C1813 C1814 1.366 . S
C1814 C1813 1.366 . S
C1814 C1815 1.414 . S
C1814 C1817 1.499 . S
C1815 H1789 0.950 . S
C1815 C1814 1.414 . S
C1815 C1816 1.374 . S
C1816 H1790 0.950 . S
C1816 C1812 1.385 . S
C1816 C1815 1.374 . S
C1817 C1814 1.499 . S
C1817 C1818 1.373 . S
C1817 C1819 1.389 . S
C1818 H1791 0.950 . S
C1818 C1804 1.377 1_655 S
C1818 C1817 1.373 . S
C1819 C1803 1.377 1_655 S
C1819 C1817 1.389 . S
C1819 C1820 1.524 . S
C1820 C1819 1.524 . S
C1820 C1821 1.397 . S
C1820 C1825 1.363 . S
C1821 H1792 0.950 . S
C1821 C1820 1.397 . S
C1821 C1822 1.334 . S
C1822 H1793 0.950 . S
C1822 C1821 1.334 . S
C1822 C1823 1.287 . S
C1823 C1822 1.287 . S
C1823 C1824 1.524 . S
C1823 H1826 0.999 . S
C1824 H1794 0.950 . S
C1824 C1823 1.524 . S
C1824 C1825 1.415 . S
C1825 H1795 0.950 . S
C1825 C1820 1.363 . S
C1825 C1824 1.415 . S
H1826 C1823 0.999 . S
H1827 C1808 0.913 . S
H1828 C1846 0.951 . S
H1829 C1848 0.951 . S
H1830 C1850 0.950 . S
H1831 C1851 0.950 . S
H1832 C1853 0.950 . S
H1833 C1856 0.950 . S
H1834 C1857 0.950 . S
H1835 C1859 0.950 . S
H1836 C1860 0.950 . S
H1837 C1861 0.951 . S
H1838 C1863 0.951 . S
H1839 C1865 0.950 . S
H1840 C1866 0.950 . S
H1841 C1868 0.950 . S
H1842 C1871 0.950 . S
H1843 C1872 0.950 . S
H1844 C1874 0.950 . S
H1845 C1875 0.950 . S
C1846 H1828 0.951 . S
C1846 C1847 1.366 . S
C1846 C1848 1.388 . S
C1847 C1846 1.366 . S
C1847 C1851 1.385 . S
C1848 H1829 0.951 . S
C1848 C1846 1.388 . S
C1848 C1849 1.366 . S
C1849 C1848 1.366 . S
C1849 C1850 1.414 . S
C1849 C1852 1.499 . S
C1850 H1830 0.950 . S
C1850 C1849 1.414 . S
C1850 C1851 1.374 . S
C1851 H1831 0.950 . S
C1851 C1847 1.385 . S
C1851 C1850 1.374 . S
C1852 C1849 1.499 . S
C1852 C1853 1.373 . S
C1852 C1854 1.389 . S
C1853 H1832 0.950 . S
C1853 C1852 1.373 . S
C1853 C1869 1.377 1_655 S
C1854 C1852 1.389 . S
C1854 C1855 1.524 . S
C1854 C1868 1.377 1_655 S
C1855 C1854 1.524 . S
C1855 C1856 1.397 . S
C1855 C1860 1.363 . S
C1856 H1833 0.950 . S
C1856 C1855 1.397 . S
C1856 C1857 1.334 . S
C1857 H1834 0.950 . S
C1857 C1856 1.334 . S
C1857 C1858 1.287 . S
C1858 C1857 1.287 . S
C1858 C1859 1.524 . S
C1858 H1877 0.913 . S
C1859 H1835 0.950 . S
C1859 C1858 1.524 . S
C1859 C1860 1.415 . S
C1860 H1836 0.950 . S
C1860 C1855 1.363 . S
C1860 C1859 1.415 . S
C1861 H1837 0.951 . S
C1861 C1862 1.366 . S
C1861 C1863 1.388 . S
C1862 C1861 1.366 . S
C1862 C1866 1.385 . S
C1863 H1838 0.951 . S
C1863 C1861 1.388 . S
C1863 C1864 1.366 . S
C1864 C1863 1.366 . S
C1864 C1865 1.414 . S
C1864 C1867 1.499 . S
C1865 H1839 0.950 . S
C1865 C1864 1.414 . S
C1865 C1866 1.374 . S
C1866 H1840 0.950 . S
C1866 C1862 1.385 . S
C1866 C1865 1.374 . S
C1867 C1864 1.499 . S
C1867 C1868 1.373 . S
C1867 C1869 1.389 . S
C1868 H1841 0.950 . S
C1868 C1854 1.377 1_455 S
C1868 C1867 1.373 . S
C1869 C1853 1.377 1_455 S
C1869 C1867 1.389 . S
C1869 C1870 1.524 . S
C1870 C1869 1.524 . S
C1870 C1871 1.397 . S
C1870 C1875 1.363 . S
C1871 H1842 0.950 . S
C1871 C1870 1.397 . S
C1871 C1872 1.334 . S
C1872 H1843 0.950 . S
C1872 C1871 1.334 . S
C1872 C1873 1.287 . S
C1873 C1872 1.287 . S
C1873 C1874 1.524 . S
C1873 H1876 0.999 . S
C1874 H1844 0.950 . S
C1874 C1873 1.524 . S
C1874 C1875 1.415 . S
C1875 H1845 0.950 . S
C1875 C1870 1.363 . S
C1875 C1874 1.415 . S
H1876 C1873 0.999 . S
H1877 C1858 0.913 . S
H1878 C1896 0.951 . S
H1879 C1898 0.951 . S
H1880 C1900 0.950 . S
H1881 C1901 0.950 . S
H1882 C1903 0.950 . S
H1883 C1906 0.950 . S
H1884 C1907 0.950 . S
H1885 C1909 0.950 . S
H1886 C1910 0.950 . S
H1887 C1911 0.951 . S
H1888 C1913 0.951 . S
H1889 C1915 0.950 . S
H1890 C1916 0.950 . S
H1891 C1918 0.950 . S
H1892 C1921 0.950 . S
H1893 C1922 0.950 . S
H1894 C1924 0.950 . S
H1895 C1925 0.950 . S
C1896 H1878 0.951 . S
C1896 C1897 1.366 . S
C1896 C1898 1.388 . S
C1897 C1896 1.366 . S
C1897 C1901 1.385 . S
C1898 H1879 0.951 . S
C1898 C1896 1.388 . S
C1898 C1899 1.366 . S
C1899 C1898 1.366 . S
C1899 C1900 1.414 . S
C1899 C1902 1.499 . S
C1900 H1880 0.950 . S
C1900 C1899 1.414 . S
C1900 C1901 1.374 . S
C1901 H1881 0.950 . S
C1901 C1897 1.385 . S
C1901 C1900 1.374 . S
C1902 C1899 1.499 . S
C1902 C1903 1.373 . S
C1902 C1904 1.389 . S
C1903 H1882 0.950 . S
C1903 C1902 1.373 . S
C1903 C1919 1.377 1_655 S
C1904 C1902 1.389 . S
C1904 C1905 1.524 . S
C1904 C1918 1.377 1_655 S
C1905 C1904 1.524 . S
C1905 C1906 1.397 . S
C1905 C1910 1.363 . S
C1906 H1883 0.950 . S
C1906 C1905 1.397 . S
C1906 C1907 1.334 . S
C1907 H1884 0.950 . S
C1907 C1906 1.334 . S
C1907 C1908 1.287 . S
C1908 C1907 1.287 . S
C1908 C1909 1.524 . S
C1908 H1927 0.913 . S
C1909 H1885 0.950 . S
C1909 C1908 1.524 . S
C1909 C1910 1.415 . S
C1910 H1886 0.950 . S
C1910 C1905 1.363 . S
C1910 C1909 1.415 . S
C1911 H1887 0.951 . S
C1911 C1912 1.366 . S
C1911 C1913 1.388 . S
C1912 C1911 1.366 . S
C1912 C1916 1.385 . S
C1913 H1888 0.951 . S
C1913 C1911 1.388 . S
C1913 C1914 1.366 . S
C1914 C1913 1.366 . S
C1914 C1915 1.414 . S
C1914 C1917 1.499 . S
C1915 H1889 0.950 . S
C1915 C1914 1.414 . S
C1915 C1916 1.374 . S
C1916 H1890 0.950 . S
C1916 C1912 1.385 . S
C1916 C1915 1.374 . S
C1917 C1914 1.499 . S
C1917 C1918 1.373 . S
C1917 C1919 1.389 . S
C1918 H1891 0.950 . S
C1918 C1904 1.377 1_455 S
C1918 C1917 1.373 . S
C1919 C1903 1.377 1_455 S
C1919 C1917 1.389 . S
C1919 C1920 1.524 . S
C1920 C1919 1.524 . S
C1920 C1921 1.397 . S
C1920 C1925 1.363 . S
C1921 H1892 0.950 . S
C1921 C1920 1.397 . S
C1921 C1922 1.334 . S
C1922 H1893 0.950 . S
C1922 C1921 1.334 . S
C1922 C1923 1.287 . S
C1923 C1922 1.287 . S
C1923 C1924 1.524 . S
C1923 H1926 0.999 . S
C1924 H1894 0.950 . S
C1924 C1923 1.524 . S
C1924 C1925 1.415 . S
C1925 H1895 0.950 . S
C1925 C1920 1.363 . S
C1925 C1924 1.415 . S
H1926 C1923 0.999 . S
H1927 C1908 0.913 . S
H1928 C1946 0.951 . S
H1929 C1948 0.951 . S
H1930 C1950 0.950 . S
H1931 C1951 0.950 . S
H1932 C1953 0.950 . S
H1933 C1956 0.950 . S
H1934 C1957 0.950 . S
H1935 C1959 0.950 . S
H1936 C1960 0.950 . S
H1937 C1961 0.951 1_565 S
H1938 C1963 0.951 1_565 S
H1939 C1965 0.950 . S
H1940 C1966 0.950 . S
H1941 C1968 0.950 . S
H1942 C1971 0.950 . S
H1943 C1972 0.950 . S
H1944 C1974 0.950 . S
H1945 C1975 0.950 . S
C1946 H1928 0.951 . S
C1946 C1947 1.366 . S
C1946 C1948 1.388 . S
C1947 C1946 1.366 . S
C1947 C1951 1.385 1_545 S
C1948 H1929 0.951 . S
C1948 C1946 1.388 . S
C1948 C1949 1.366 . S
C1949 C1948 1.366 . S
C1949 C1950 1.414 1_545 S
C1949 C1952 1.499 . S
C1950 H1930 0.950 . S
C1950 C1949 1.414 1_565 S
C1950 C1951 1.374 . S
C1951 H1931 0.950 . S
C1951 C1947 1.385 1_565 S
C1951 C1950 1.374 . S
C1952 C1949 1.499 . S
C1952 C1953 1.373 . S
C1952 C1954 1.389 . S
C1953 H1932 0.950 . S
C1953 C1952 1.373 . S
C1953 C1969 1.377 . S
C1954 C1952 1.389 . S
C1954 C1955 1.524 . S
C1954 C1968 1.377 . S
C1955 C1954 1.524 . S
C1955 C1956 1.397 . S
C1955 C1960 1.363 . S
C1956 H1933 0.950 . S
C1956 C1955 1.397 . S
C1956 C1957 1.334 . S
C1957 H1934 0.950 . S
C1957 C1956 1.334 . S
C1957 C1958 1.287 . S
C1958 C1957 1.287 . S
C1958 C1959 1.524 . S
C1958 H1977 0.913 . S
C1959 H1935 0.950 . S
C1959 C1958 1.524 . S
C1959 C1960 1.415 . S
C1960 H1936 0.950 . S
C1960 C1955 1.363 . S
C1960 C1959 1.415 . S
C1961 H1937 0.951 1_545 S
C1961 C1962 1.366 . S
C1961 C1963 1.388 . S
C1962 C1961 1.366 . S
C1962 C1966 1.385 . S
C1963 H1938 0.951 1_545 S
C1963 C1961 1.388 . S
C1963 C1964 1.366 . S
C1964 C1963 1.366 . S
C1964 C1965 1.414 . S
C1964 C1967 1.499 . S
C1965 H1939 0.950 . S
C1965 C1964 1.414 . S
C1965 C1966 1.374 . S
C1966 H1940 0.950 . S
C1966 C1962 1.385 . S
C1966 C1965 1.374 . S
C1967 C1964 1.499 . S
C1967 C1968 1.373 . S
C1967 C1969 1.389 . S
C1968 H1941 0.950 . S
C1968 C1954 1.377 . S
C1968 C1967 1.373 . S
C1969 C1953 1.377 . S
C1969 C1967 1.389 . S
C1969 C1970 1.524 . S
C1970 C1969 1.524 . S
C1970 C1971 1.397 . S
C1970 C1975 1.363 1_545 S
C1971 H1942 0.950 . S
C1971 C1970 1.397 . S
C1971 C1972 1.334 . S
C1972 H1943 0.950 . S
C1972 C1971 1.334 . S
C1972 C1973 1.287 1_545 S
C1973 C1972 1.287 1_565 S
C1973 C1974 1.524 . S
C1973 H1976 0.999 . S
C1974 H1944 0.950 . S
C1974 C1973 1.524 . S
C1974 C1975 1.415 . S
C1975 H1945 0.950 . S
C1975 C1970 1.363 1_565 S
C1975 C1974 1.415 . S
H1976 C1973 0.999 . S
H1977 C1958 0.913 . S
H1978 C1996 0.951 . S
H1979 C1998 0.951 . S
H1980 C2000 0.950 1_565 S
H1981 C2001 0.950 1_565 S
H1982 C2003 0.950 1_565 S
H1983 C2006 0.950 . S
H1984 C2007 0.950 . S
H1985 C2009 0.950 . S
H1986 C2010 0.950 . S
H1987 C2011 0.951 . S
H1988 C2013 0.951 . S
H1989 C2015 0.950 . S
H1990 C2016 0.950 . S
H1991 C2018 0.950 . S
H1992 C2021 0.950 1_545 S
H1993 C2022 0.950 . S
H1994 C2024 0.950 . S
H1995 C2025 0.950 . S
C1996 H1978 0.951 . S
C1996 C1997 1.366 . S
C1996 C1998 1.388 . S
C1997 C1996 1.366 . S
C1997 C2001 1.385 . S
C1998 H1979 0.951 . S
C1998 C1996 1.388 . S
C1998 C1999 1.366 . S
C1999 C1998 1.366 . S
C1999 C2000 1.414 . S
C1999 C2002 1.499 . S
C2000 H1980 0.950 1_545 S
C2000 C1999 1.414 . S
C2000 C2001 1.374 . S
C2001 H1981 0.950 1_545 S
C2001 C1997 1.385 . S
C2001 C2000 1.374 . S
C2002 C1999 1.499 . S
C2002 C2003 1.373 . S
C2002 C2004 1.389 . S
C2003 H1982 0.950 1_545 S
C2003 C2002 1.373 . S
C2003 C2019 1.377 . S
C2004 C2002 1.389 . S
C2004 C2005 1.524 . S
C2004 C2018 1.377 . S
C2005 C2004 1.524 . S
C2005 C2006 1.397 . S
C2005 C2010 1.363 . S
C2006 H1983 0.950 . S
C2006 C2005 1.397 . S
C2006 C2007 1.334 . S
C2007 H1984 0.950 . S
C2007 C2006 1.334 . S
C2007 C2008 1.287 . S
C2008 C2007 1.287 . S
C2008 C2009 1.524 . S
C2008 H2027 0.913 . S
C2009 H1985 0.950 . S
C2009 C2008 1.524 . S
C2009 C2010 1.415 . S
C2010 H1986 0.950 . S
C2010 C2005 1.363 . S
C2010 C2009 1.415 . S
C2011 H1987 0.951 . S
C2011 C2012 1.366 1_565 S
C2011 C2013 1.388 . S
C2012 C2011 1.366 1_545 S
C2012 C2016 1.385 . S
C2013 H1988 0.951 . S
C2013 C2011 1.388 . S
C2013 C2014 1.366 1_565 S
C2014 C2013 1.366 1_545 S
C2014 C2015 1.414 . S
C2014 C2017 1.499 . S
C2015 H1989 0.950 . S
C2015 C2014 1.414 . S
C2015 C2016 1.374 . S
C2016 H1990 0.950 . S
C2016 C2012 1.385 . S
C2016 C2015 1.374 . S
C2017 C2014 1.499 . S
C2017 C2018 1.373 . S
C2017 C2019 1.389 . S
C2018 H1991 0.950 . S
C2018 C2004 1.377 . S
C2018 C2017 1.373 . S
C2019 C2003 1.377 . S
C2019 C2017 1.389 . S
C2019 C2020 1.524 1_545 S
C2020 C2019 1.524 1_565 S
C2020 C2021 1.397 . S
C2020 C2025 1.363 . S
C2021 H1992 0.950 1_565 S
C2021 C2020 1.397 . S
C2021 C2022 1.334 . S
C2022 H1993 0.950 . S
C2022 C2021 1.334 . S
C2022 C2023 1.287 . S
C2023 C2022 1.287 . S
C2023 C2024 1.524 . S
C2023 H2026 0.999 . S
C2024 H1994 0.950 . S
C2024 C2023 1.524 . S
C2024 C2025 1.415 . S
C2025 H1995 0.950 . S
C2025 C2020 1.363 . S
C2025 C2024 1.415 . S
H2026 C2023 0.999 . S
H2027 C2008 0.913 . S
H2028 C2046 0.951 . S
H2029 C2048 0.951 . S
H2030 C2050 0.950 . S
H2031 C2051 0.950 . S
H2032 C2053 0.950 . S
H2033 C2056 0.950 . S
H2034 C2057 0.950 . S
H2035 C2059 0.950 . S
H2036 C2060 0.950 . S
H2037 C2061 0.951 . S
H2038 C2063 0.951 . S
H2039 C2065 0.950 . S
H2040 C2066 0.950 . S
H2041 C2068 0.950 . S
H2042 C2071 0.950 . S
H2043 C2072 0.950 . S
H2044 C2074 0.950 . S
H2045 C2075 0.950 . S
C2046 H2028 0.951 . S
C2046 C2047 1.366 . S
C2046 C2048 1.388 . S
C2047 C2046 1.366 . S
C2047 C2051 1.385 . S
C2048 H2029 0.951 . S
C2048 C2046 1.388 . S
C2048 C2049 1.366 . S
C2049 C2048 1.366 . S
C2049 C2050 1.414 . S
C2049 C2052 1.499 . S
C2050 H2030 0.950 . S
C2050 C2049 1.414 . S
C2050 C2051 1.374 . S
C2051 H2031 0.950 . S
C2051 C2047 1.385 . S
C2051 C2050 1.374 . S
C2052 C2049 1.499 . S
C2052 C2053 1.373 . S
C2052 C2054 1.389 . S
C2053 H2032 0.950 . S
C2053 C2052 1.373 . S
C2053 C2069 1.377 . S
C2054 C2052 1.389 . S
C2054 C2055 1.524 . S
C2054 C2068 1.377 . S
C2055 C2054 1.524 . S
C2055 C2056 1.397 . S
C2055 C2060 1.363 . S
C2056 H2033 0.950 . S
C2056 C2055 1.397 . S
C2056 C2057 1.334 . S
C2057 H2034 0.950 . S
C2057 C2056 1.334 . S
C2057 C2058 1.287 . S
C2058 C2057 1.287 . S
C2058 C2059 1.524 . S
C2058 H2077 0.913 . S
C2059 H2035 0.950 . S
C2059 C2058 1.524 . S
C2059 C2060 1.415 . S
C2060 H2036 0.950 . S
C2060 C2055 1.363 . S
C2060 C2059 1.415 . S
C2061 H2037 0.951 . S
C2061 C2062 1.366 . S
C2061 C2063 1.388 . S
C2062 C2061 1.366 . S
C2062 C2066 1.385 . S
C2063 H2038 0.951 . S
C2063 C2061 1.388 . S
C2063 C2064 1.366 . S
C2064 C2063 1.366 . S
C2064 C2065 1.414 . S
C2064 C2067 1.499 . S
C2065 H2039 0.950 . S
C2065 C2064 1.414 . S
C2065 C2066 1.374 . S
C2066 H2040 0.950 . S
C2066 C2062 1.385 . S
C2066 C2065 1.374 . S
C2067 C2064 1.499 . S
C2067 C2068 1.373 . S
C2067 C2069 1.389 . S
C2068 H2041 0.950 . S
C2068 C2054 1.377 . S
C2068 C2067 1.373 . S
C2069 C2053 1.377 . S
C2069 C2067 1.389 . S
C2069 C2070 1.524 . S
C2070 C2069 1.524 . S
C2070 C2071 1.397 . S
C2070 C2075 1.363 . S
C2071 H2042 0.950 . S
C2071 C2070 1.397 . S
C2071 C2072 1.334 . S
C2072 H2043 0.950 . S
C2072 C2071 1.334 . S
C2072 C2073 1.287 . S
C2073 C2072 1.287 . S
C2073 C2074 1.524 . S
C2073 H2076 0.999 . S
C2074 H2044 0.950 . S
C2074 C2073 1.524 . S
C2074 C2075 1.415 . S
C2075 H2045 0.950 . S
C2075 C2070 1.363 . S
C2075 C2074 1.415 . S
H2076 C2073 0.999 . S
H2077 C2058 0.913 . S
H2078 C2096 0.951 . S
H2079 C2098 0.951 . S
H2080 C2100 0.950 . S
H2081 C2101 0.950 . S
H2082 C2103 0.950 . S
H2083 C2106 0.950 . S
H2084 C2107 0.950 . S
H2085 C2109 0.950 . S
H2086 C2110 0.950 . S
H2087 C2111 0.951 . S
H2088 C2113 0.951 . S
H2089 C2115 0.950 . S
H2090 C2116 0.950 . S
H2091 C2118 0.950 . S
H2092 C2121 0.950 . S
H2093 C2122 0.950 . S
H2094 C2124 0.950 . S
H2095 C2125 0.950 . S
C2096 H2078 0.951 . S
C2096 C2097 1.366 . S
C2096 C2098 1.388 . S
C2097 C2096 1.366 . S
C2097 C2101 1.385 . S
C2098 H2079 0.951 . S
C2098 C2096 1.388 . S
C2098 C2099 1.366 . S
C2099 C2098 1.366 . S
C2099 C2100 1.414 . S
C2099 C2102 1.499 . S
C2100 H2080 0.950 . S
C2100 C2099 1.414 . S
C2100 C2101 1.374 . S
C2101 H2081 0.950 . S
C2101 C2097 1.385 . S
C2101 C2100 1.374 . S
C2102 C2099 1.499 . S
C2102 C2103 1.373 . S
C2102 C2104 1.389 . S
C2103 H2082 0.950 . S
C2103 C2102 1.373 . S
C2103 C2119 1.377 . S
C2104 C2102 1.389 . S
C2104 C2105 1.524 . S
C2104 C2118 1.377 . S
C2105 C2104 1.524 . S
C2105 C2106 1.397 . S
C2105 C2110 1.363 . S
C2106 H2083 0.950 . S
C2106 C2105 1.397 . S
C2106 C2107 1.334 . S
C2107 H2084 0.950 . S
C2107 C2106 1.334 . S
C2107 C2108 1.287 . S
C2108 C2107 1.287 . S
C2108 C2109 1.524 . S
C2108 H2127 0.913 . S
C2109 H2085 0.950 . S
C2109 C2108 1.524 . S
C2109 C2110 1.415 . S
C2110 H2086 0.950 . S
C2110 C2105 1.363 . S
C2110 C2109 1.415 . S
C2111 H2087 0.951 . S
C2111 C2112 1.366 . S
C2111 C2113 1.388 . S
C2112 C2111 1.366 . S
C2112 C2116 1.385 . S
C2113 H2088 0.951 . S
C2113 C2111 1.388 . S
C2113 C2114 1.366 . S
C2114 C2113 1.366 . S
C2114 C2115 1.414 . S
C2114 C2117 1.499 . S
C2115 H2089 0.950 . S
C2115 C2114 1.414 . S
C2115 C2116 1.374 . S
C2116 H2090 0.950 . S
C2116 C2112 1.385 . S
C2116 C2115 1.374 . S
C2117 C2114 1.499 . S
C2117 C2118 1.373 . S
C2117 C2119 1.389 . S
C2118 H2091 0.950 . S
C2118 C2104 1.377 . S
C2118 C2117 1.373 . S
C2119 C2103 1.377 . S
C2119 C2117 1.389 . S
C2119 C2120 1.524 . S
C2120 C2119 1.524 . S
C2120 C2121 1.397 . S
C2120 C2125 1.363 . S
C2121 H2092 0.950 . S
C2121 C2120 1.397 . S
C2121 C2122 1.334 . S
C2122 H2093 0.950 . S
C2122 C2121 1.334 . S
C2122 C2123 1.287 . S
C2123 C2122 1.287 . S
C2123 C2124 1.524 . S
C2123 H2126 0.999 . S
C2124 H2094 0.950 . S
C2124 C2123 1.524 . S
C2124 C2125 1.415 . S
C2125 H2095 0.950 . S
C2125 C2120 1.363 . S
C2125 C2124 1.415 . S
H2126 C2123 0.999 . S
H2127 C2108 0.913 . S
H2128 C2146 0.951 1_565 S
H2129 C2148 0.951 1_565 S
H2130 C2150 0.950 . S
H2131 C2151 0.950 . S
H2132 C2153 0.950 . S
H2133 C2156 0.950 . S
H2134 C2157 0.950 . S
H2135 C2159 0.950 . S
H2136 C2160 0.950 . S
H2137 C2161 0.951 . S
H2138 C2163 0.951 . S
H2139 C2165 0.950 1_565 S
H2140 C2166 0.950 1_565 S
H2141 C2168 0.950 . S
H2142 C2171 0.950 . S
H2143 C2172 0.950 . S
H2144 C2174 0.950 . S
H2145 C2175 0.950 . S
C2146 H2128 0.951 1_545 S
C2146 C2147 1.366 . S
C2146 C2148 1.388 . S
C2147 C2146 1.366 . S
C2147 C2151 1.385 . S
C2148 H2129 0.951 1_545 S
C2148 C2146 1.388 . S
C2148 C2149 1.366 . S
C2149 C2148 1.366 . S
C2149 C2150 1.414 . S
C2149 C2152 1.499 . S
C2150 H2130 0.950 . S
C2150 C2149 1.414 . S
C2150 C2151 1.374 . S
C2151 H2131 0.950 . S
C2151 C2147 1.385 . S
C2151 C2150 1.374 . S
C2152 C2149 1.499 . S
C2152 C2153 1.373 . S
C2152 C2154 1.389 1_545 S
C2153 H2132 0.950 . S
C2153 C2152 1.373 . S
C2153 C2169 1.377 1_556 S
C2154 C2152 1.389 1_565 S
C2154 C2155 1.524 . S
C2154 C2168 1.377 1_556 S
C2155 C2154 1.524 . S
C2155 C2156 1.397 . S
C2155 C2160 1.363 . S
C2156 H2133 0.950 . S
C2156 C2155 1.397 . S
C2156 C2157 1.334 . S
C2157 H2134 0.950 . S
C2157 C2156 1.334 . S
C2157 C2158 1.287 . S
C2158 C2157 1.287 . S
C2158 C2159 1.524 . S
C2158 H2177 0.913 . S
C2159 H2135 0.950 . S
C2159 C2158 1.524 . S
C2159 C2160 1.415 . S
C2160 H2136 0.950 . S
C2160 C2155 1.363 . S
C2160 C2159 1.415 . S
C2161 H2137 0.951 . S
C2161 C2162 1.366 . S
C2161 C2163 1.388 . S
C2162 C2161 1.366 . S
C2162 C2166 1.385 . S
C2163 H2138 0.951 . S
C2163 C2161 1.388 . S
C2163 C2164 1.366 . S
C2164 C2163 1.366 . S
C2164 C2165 1.414 . S
C2164 C2167 1.499 . S
C2165 H2139 0.950 1_545 S
C2165 C2164 1.414 . S
C2165 C2166 1.374 . S
C2166 H2140 0.950 1_545 S
C2166 C2162 1.385 . S
C2166 C2165 1.374 . S
C2167 C2164 1.499 . S
C2167 C2168 1.373 1_545 S
C2167 C2169 1.389 . S
C2168 H2141 0.950 . S
C2168 C2154 1.377 1_554 S
C2168 C2167 1.373 1_565 S
C2169 C2153 1.377 1_554 S
C2169 C2167 1.389 . S
C2169 C2170 1.524 . S
C2170 C2169 1.524 . S
C2170 C2171 1.397 . S
C2170 C2175 1.363 . S
C2171 H2142 0.950 . S
C2171 C2170 1.397 . S
C2171 C2172 1.334 . S
C2172 H2143 0.950 . S
C2172 C2171 1.334 . S
C2172 C2173 1.287 . S
C2173 C2172 1.287 . S
C2173 C2174 1.524 . S
C2173 H2176 0.999 . S
C2174 H2144 0.950 . S
C2174 C2173 1.524 . S
C2174 C2175 1.415 . S
C2175 H2145 0.950 . S
C2175 C2170 1.363 . S
C2175 C2174 1.415 . S
H2176 C2173 0.999 . S
H2177 C2158 0.913 . S
H2178 C2196 0.951 . S
H2179 C2198 0.951 . S
H2180 C2200 0.950 . S
H2181 C2201 0.950 . S
H2182 C2203 0.950 . S
H2183 C2206 0.950 . S
H2184 C2207 0.950 . S
H2185 C2209 0.950 . S
H2186 C2210 0.950 . S
H2187 C2211 0.951 . S
H2188 C2213 0.951 . S
H2189 C2215 0.950 . S
H2190 C2216 0.950 . S
H2191 C2218 0.965 . S
H2192 C2221 0.950 . S
H2193 C2222 0.950 . S
H2194 C2224 0.950 . S
H2195 C2225 0.950 . S
C2196 H2178 0.951 . S
C2196 C2197 1.366 . S
C2196 C2198 1.388 . S
C2197 C2196 1.366 . S
C2197 C2201 1.385 . S
C2198 H2179 0.951 . S
C2198 C2196 1.388 . S
C2198 C2199 1.366 . S
C2199 C2198 1.366 . S
C2199 C2200 1.414 . S
C2199 C2202 1.499 . S
C2200 H2180 0.950 . S
C2200 C2199 1.414 . S
C2200 C2201 1.374 . S
C2201 H2181 0.950 . S
C2201 C2197 1.385 . S
C2201 C2200 1.374 . S
C2202 C2199 1.499 . S
C2202 C2203 1.373 . S
C2202 C2204 1.389 1_545 S
C2203 H2182 0.950 . S
C2203 C2202 1.373 . S
C2203 C2219 1.377 1_556 S
C2204 C2202 1.389 1_565 S
C2204 C2205 1.524 . S
C2204 C2218 1.377 1_556 S
C2205 C2204 1.524 . S
C2205 C2206 1.397 . S
C2205 C2210 1.363 . S
C2206 H2183 0.950 . S
C2206 C2205 1.397 . S
C2206 C2207 1.334 . S
C2207 H2184 0.950 . S
C2207 C2206 1.334 . S
C2207 C2208 1.287 . S
C2208 C2207 1.287 . S
C2208 C2209 1.524 . S
C2208 H2227 0.913 . S
C2209 H2185 0.950 . S
C2209 C2208 1.524 . S
C2209 C2210 1.415 . S
C2210 H2186 0.950 . S
C2210 C2205 1.363 . S
C2210 C2209 1.415 . S
C2211 H2187 0.951 . S
C2211 C2212 1.366 . S
C2211 C2213 1.388 . S
C2212 C2211 1.366 . S
C2212 C2216 1.385 . S
C2213 H2188 0.951 . S
C2213 C2211 1.388 . S
C2213 C2214 1.366 . S
C2214 C2213 1.366 . S
C2214 C2215 1.414 . S
C2214 C2217 1.499 . S
C2215 H2189 0.950 . S
C2215 C2214 1.414 . S
C2215 C2216 1.374 . S
C2216 H2190 0.950 . S
C2216 C2212 1.385 . S
C2216 C2215 1.374 . S
C2217 C2214 1.499 . S
C2217 C2218 1.358 1_545 S
C2217 C2219 1.389 . S
C2218 H2191 0.965 . S
C2218 C2204 1.377 1_554 S
C2218 C2217 1.358 1_565 S
C2219 C2203 1.377 1_554 S
C2219 C2217 1.389 . S
C2219 C2220 1.524 . S
C2220 C2219 1.524 . S
C2220 C2221 1.397 . S
C2220 C2225 1.363 . S
C2221 H2192 0.950 . S
C2221 C2220 1.397 . S
C2221 C2222 1.334 . S
C2222 H2193 0.950 . S
C2222 C2221 1.334 . S
C2222 C2223 1.287 . S
C2223 C2222 1.287 . S
C2223 C2224 1.524 . S
C2223 H2226 0.999 . S
C2224 H2194 0.950 . S
C2224 C2223 1.524 . S
C2224 C2225 1.415 . S
C2225 H2195 0.950 . S
C2225 C2220 1.363 . S
C2225 C2224 1.415 . S
H2226 C2223 0.999 . S
H2227 C2208 0.913 . S
H2228 C2246 0.951 . S
H2229 C2248 0.951 . S
H2230 C2250 0.950 . S
H2231 C2251 0.950 . S
H2232 C2253 0.950 . S
H2233 C2256 0.950 . S
H2234 C2257 0.950 . S
H2235 C2259 0.950 . S
H2236 C2260 0.950 . S
H2237 C2261 0.951 . S
H2238 C2263 0.951 . S
H2239 C2265 0.950 . S
H2240 C2266 0.950 . S
H2241 C2268 0.950 . S
H2242 C2271 0.950 . S
H2243 C2272 0.950 . S
H2244 C2274 0.950 . S
H2245 C2275 0.950 . S
C2246 H2228 0.951 . S
C2246 C2247 1.366 . S
C2246 C2248 1.388 . S
C2247 C2246 1.366 . S
C2247 C2251 1.385 . S
C2248 H2229 0.951 . S
C2248 C2246 1.388 . S
C2248 C2249 1.366 . S
C2249 C2248 1.366 . S
C2249 C2250 1.414 . S
C2249 C2252 1.499 . S
C2250 H2230 0.950 . S
C2250 C2249 1.414 . S
C2250 C2251 1.374 . S
C2251 H2231 0.950 . S
C2251 C2247 1.385 . S
C2251 C2250 1.374 . S
C2252 C2249 1.499 . S
C2252 C2253 1.373 . S
C2252 C2254 1.389 . S
C2253 H2232 0.950 . S
C2253 C2252 1.373 . S
C2253 C2269 1.377 . S
C2254 C2252 1.389 . S
C2254 C2255 1.524 . S
C2254 C2268 1.377 . S
C2255 C2254 1.524 . S
C2255 C2256 1.397 . S
C2255 C2260 1.363 . S
C2256 H2233 0.950 . S
C2256 C2255 1.397 . S
C2256 C2257 1.334 . S
C2257 H2234 0.950 . S
C2257 C2256 1.334 . S
C2257 C2258 1.287 . S
C2258 C2257 1.287 . S
C2258 C2259 1.524 . S
C2258 H2277 0.913 . S
C2259 H2235 0.950 . S
C2259 C2258 1.524 . S
C2259 C2260 1.415 . S
C2260 H2236 0.950 . S
C2260 C2255 1.363 . S
C2260 C2259 1.415 . S
C2261 H2237 0.951 . S
C2261 C2262 1.366 . S
C2261 C2263 1.388 . S
C2262 C2261 1.366 . S
C2262 C2266 1.385 . S
C2263 H2238 0.951 . S
C2263 C2261 1.388 . S
C2263 C2264 1.366 . S
C2264 C2263 1.366 . S
C2264 C2265 1.414 . S
C2264 C2267 1.499 . S
C2265 H2239 0.950 . S
C2265 C2264 1.414 . S
C2265 C2266 1.374 . S
C2266 H2240 0.950 . S
C2266 C2262 1.385 . S
C2266 C2265 1.374 . S
C2267 C2264 1.499 . S
C2267 C2268 1.373 . S
C2267 C2269 1.389 . S
C2268 H2241 0.950 . S
C2268 C2254 1.377 . S
C2268 C2267 1.373 . S
C2269 C2253 1.377 . S
C2269 C2267 1.389 . S
C2269 C2270 1.524 . S
C2270 C2269 1.524 . S
C2270 C2271 1.397 . S
C2270 C2275 1.363 . S
C2271 H2242 0.950 . S
C2271 C2270 1.397 . S
C2271 C2272 1.334 . S
C2272 H2243 0.950 . S
C2272 C2271 1.334 . S
C2272 C2273 1.287 . S
C2273 C2272 1.287 . S
C2273 C2274 1.524 . S
C2273 H2276 0.999 . S
C2274 H2244 0.950 . S
C2274 C2273 1.524 . S
C2274 C2275 1.415 . S
C2275 H2245 0.950 . S
C2275 C2270 1.363 . S
C2275 C2274 1.415 . S
H2276 C2273 0.999 . S
H2277 C2258 0.913 . S
H2278 C2296 0.951 . S
H2279 C2298 0.951 . S
H2280 C2300 0.950 . S
H2281 C2301 0.950 . S
H2282 C2303 0.950 . S
H2283 C2306 0.950 . S
H2284 C2307 0.950 . S
H2285 C2309 0.950 . S
H2286 C2310 0.950 . S
H2287 C2311 0.951 . S
H2288 C2313 0.951 . S
H2289 C2315 0.950 . S
H2290 C2316 0.950 . S
H2291 C2318 0.950 . S
H2292 C2321 0.950 . S
H2293 C2322 0.950 . S
H2294 C2324 0.950 . S
H2295 C2325 0.950 . S
C2296 H2278 0.951 . S
C2296 C2297 1.366 . S
C2296 C2298 1.388 . S
C2297 C2296 1.366 . S
C2297 C2301 1.385 . S
C2298 H2279 0.951 . S
C2298 C2296 1.388 . S
C2298 C2299 1.366 . S
C2299 C2298 1.366 . S
C2299 C2300 1.414 . S
C2299 C2302 1.499 . S
C2300 H2280 0.950 . S
C2300 C2299 1.414 . S
C2300 C2301 1.374 . S
C2301 H2281 0.950 . S
C2301 C2297 1.385 . S
C2301 C2300 1.374 . S
C2302 C2299 1.499 . S
C2302 C2303 1.373 . S
C2302 C2304 1.389 . S
C2303 H2282 0.950 . S
C2303 C2302 1.373 . S
C2303 C2319 1.377 . S
C2304 C2302 1.389 . S
C2304 C2305 1.524 . S
C2304 C2318 1.377 . S
C2305 C2304 1.524 . S
C2305 C2306 1.397 . S
C2305 C2310 1.363 . S
C2306 H2283 0.950 . S
C2306 C2305 1.397 . S
C2306 C2307 1.334 . S
C2307 H2284 0.950 . S
C2307 C2306 1.334 . S
C2307 C2308 1.287 . S
C2308 C2307 1.287 . S
C2308 C2309 1.524 . S
C2308 H2327 0.913 . S
C2309 H2285 0.950 . S
C2309 C2308 1.524 . S
C2309 C2310 1.415 . S
C2310 H2286 0.950 . S
C2310 C2305 1.363 . S
C2310 C2309 1.415 . S
C2311 H2287 0.951 . S
C2311 C2312 1.366 . S
C2311 C2313 1.388 . S
C2312 C2311 1.366 . S
C2312 C2316 1.385 . S
C2313 H2288 0.951 . S
C2313 C2311 1.388 . S
C2313 C2314 1.366 . S
C2314 C2313 1.366 . S
C2314 C2315 1.414 . S
C2314 C2317 1.499 . S
C2315 H2289 0.950 . S
C2315 C2314 1.414 . S
C2315 C2316 1.374 . S
C2316 H2290 0.950 . S
C2316 C2312 1.385 . S
C2316 C2315 1.374 . S
C2317 C2314 1.499 . S
C2317 C2318 1.373 . S
C2317 C2319 1.389 . S
C2318 H2291 0.950 . S
C2318 C2304 1.377 . S
C2318 C2317 1.373 . S
C2319 C2303 1.377 . S
C2319 C2317 1.389 . S
C2319 C2320 1.524 . S
C2320 C2319 1.524 . S
C2320 C2321 1.397 . S
C2320 C2325 1.363 . S
C2321 H2292 0.950 . S
C2321 C2320 1.397 . S
C2321 C2322 1.334 . S
C2322 H2293 0.950 . S
C2322 C2321 1.334 . S
C2322 C2323 1.287 . S
C2323 C2322 1.287 . S
C2323 C2324 1.524 . S
C2323 H2326 0.999 . S
C2324 H2294 0.950 . S
C2324 C2323 1.524 . S
C2324 C2325 1.415 . S
C2325 H2295 0.950 . S
C2325 C2320 1.363 . S
C2325 C2324 1.415 . S
H2326 C2323 0.999 . S
H2327 C2308 0.913 . S
H2328 C2346 0.951 1_565 S
H2329 C2348 0.951 1_565 S
H2330 C2350 0.950 . S
H2331 C2351 0.950 . S
H2332 C2353 0.950 . S
H2333 C2356 0.950 . S
H2334 C2357 0.950 . S
H2335 C2359 0.950 . S
H2336 C2360 0.950 . S
H2337 C2361 0.951 . S
H2338 C2363 0.951 . S
H2339 C2365 0.942 1_565 S
H2340 C2366 0.926 1_565 S
H2341 C2368 0.950 . S
H2342 C2371 0.950 1_565 S
H2343 C2372 0.950 1_565 S
H2344 C2374 0.950 . S
H2345 C2375 0.950 . S
C2346 H2328 0.951 1_545 S
C2346 C2347 1.366 . S
C2346 C2348 1.388 . S
C2347 C2346 1.366 . S
C2347 C2351 1.385 . S
C2348 H2329 0.951 1_545 S
C2348 C2346 1.388 . S
C2348 C2349 1.366 . S
C2349 C2348 1.366 . S
C2349 C2350 1.414 . S
C2349 C2352 1.499 . S
C2350 H2330 0.950 . S
C2350 C2349 1.414 . S
C2350 C2351 1.374 . S
C2351 H2331 0.950 . S
C2351 C2347 1.385 . S
C2351 C2350 1.374 . S
C2352 C2349 1.499 . S
C2352 C2353 1.373 . S
C2352 C2354 1.389 . S
C2353 H2332 0.950 . S
C2353 C2352 1.373 . S
C2353 C2369 1.377 . S
C2354 C2352 1.389 . S
C2354 C2355 1.524 . S
C2354 C2368 1.377 . S
C2355 C2354 1.524 . S
C2355 C2356 1.397 . S
C2355 C2360 1.363 1_545 S
C2356 H2333 0.950 . S
C2356 C2355 1.397 . S
C2356 C2357 1.334 . S
C2357 H2334 0.950 . S
C2357 C2356 1.334 . S
C2357 C2358 1.287 . S
C2358 C2357 1.287 . S
C2358 C2359 1.524 1_545 S
C2358 H2377 0.913 . S
C2359 H2335 0.950 . S
C2359 C2358 1.524 1_565 S
C2359 C2360 1.415 . S
C2360 H2336 0.950 . S
C2360 C2355 1.363 1_565 S
C2360 C2359 1.415 . S
C2361 H2337 0.951 . S
C2361 C2362 1.366 . S
C2361 C2363 1.388 . S
C2362 C2361 1.366 . S
C2362 C2366 1.410 . S
C2363 H2338 0.951 . S
C2363 C2361 1.388 . S
C2363 C2364 1.366 . S
C2364 C2363 1.366 . S
C2364 C2365 1.422 . S
C2364 C2367 1.499 . S
C2365 H2339 0.942 1_545 S
C2365 C2364 1.422 . S
C2365 C2366 1.374 . S
C2366 H2340 0.926 1_545 S
C2366 C2362 1.410 . S
C2366 C2365 1.374 . S
C2367 C2364 1.499 . S
C2367 C2368 1.373 . S
C2367 C2369 1.389 . S
C2368 H2341 0.950 . S
C2368 C2354 1.377 . S
C2368 C2367 1.373 . S
C2369 C2353 1.377 . S
C2369 C2367 1.389 . S
C2369 C2370 1.524 . S
C2370 C2369 1.524 . S
C2370 C2371 1.397 . S
C2370 C2375 1.363 . S
C2371 H2342 0.950 1_545 S
C2371 C2370 1.397 . S
C2371 C2372 1.334 . S
C2372 H2343 0.950 1_545 S
C2372 C2371 1.334 . S
C2372 C2373 1.287 . S
C2373 C2372 1.287 . S
C2373 C2374 1.524 . S
C2373 H2376 0.999 . S
C2374 H2344 0.950 . S
C2374 C2373 1.524 . S
C2374 C2375 1.415 . S
C2375 H2345 0.950 . S
C2375 C2370 1.363 . S
C2375 C2374 1.415 . S
H2376 C2373 0.999 . S
H2377 C2358 0.913 . S
H2378 C2396 0.951 . S
H2379 C2398 0.951 . S
H2380 C2400 0.950 . S
H2381 C2401 0.950 . S
H2382 C2403 0.950 . S
H2383 C2406 0.950 . S
H2384 C2407 0.950 . S
H2385 C2409 0.950 . S
H2386 C2410 0.950 . S
H2387 C2411 0.951 . S
H2388 C2413 0.951 . S
H2389 C2415 0.950 . S
H2390 C2416 0.950 . S
H2391 C2418 0.949 . S
H2392 C2421 0.950 . S
H2393 C2422 0.950 . S
H2394 C2424 0.950 . S
H2395 C2425 0.950 . S
C2396 H2378 0.951 . S
C2396 C2397 1.366 . S
C2396 C2398 1.388 . S
C2397 C2396 1.366 . S
C2397 C2401 1.385 . S
C2398 H2379 0.951 . S
C2398 C2396 1.388 . S
C2398 C2399 1.366 . S
C2399 C2398 1.366 . S
C2399 C2400 1.414 . S
C2399 C2402 1.499 . S
C2400 H2380 0.950 . S
C2400 C2399 1.414 . S
C2400 C2401 1.374 . S
C2401 H2381 0.950 . S
C2401 C2397 1.385 . S
C2401 C2400 1.374 . S
C2402 C2399 1.499 . S
C2402 C2403 1.373 . S
C2402 C2404 1.389 1_545 S
C2403 H2382 0.950 . S
C2403 C2402 1.373 . S
C2403 C2419 1.377 . S
C2404 C2402 1.389 1_565 S
C2404 C2405 1.524 . S
C2404 C2418 1.376 . S
C2405 C2404 1.524 . S
C2405 C2406 1.397 . S
C2405 C2410 1.363 . S
C2406 H2383 0.950 . S
C2406 C2405 1.397 . S
C2406 C2407 1.334 . S
C2407 H2384 0.950 . S
C2407 C2406 1.334 . S
C2407 C2408 1.287 . S
C2408 C2407 1.287 . S
C2408 C2409 1.524 . S
C2408 H2427 0.913 . S
C2409 H2385 0.950 . S
C2409 C2408 1.524 . S
C2409 C2410 1.415 . S
C2410 H2386 0.950 . S
C2410 C2405 1.363 . S
C2410 C2409 1.415 . S
C2411 H2387 0.951 . S
C2411 C2412 1.366 . S
C2411 C2413 1.388 . S
C2412 C2411 1.366 . S
C2412 C2416 1.385 . S
C2413 H2388 0.951 . S
C2413 C2411 1.388 . S
C2413 C2414 1.366 . S
C2414 C2413 1.366 . S
C2414 C2415 1.414 . S
C2414 C2417 1.499 . S
C2415 H2389 0.950 . S
C2415 C2414 1.414 . S
C2415 C2416 1.374 . S
C2416 H2390 0.950 . S
C2416 C2412 1.385 . S
C2416 C2415 1.374 . S
C2417 C2414 1.499 . S
C2417 C2418 1.375 1_545 S
C2417 C2419 1.389 . S
C2418 H2391 0.949 . S
C2418 C2404 1.376 . S
C2418 C2417 1.375 1_565 S
C2419 C2403 1.377 . S
C2419 C2417 1.389 . S
C2419 C2420 1.524 . S
C2420 C2419 1.524 . S
C2420 C2421 1.397 . S
C2420 C2425 1.363 . S
C2421 H2392 0.950 . S
C2421 C2420 1.397 . S
C2421 C2422 1.334 . S
C2422 H2393 0.950 . S
C2422 C2421 1.334 . S
C2422 C2423 1.287 . S
C2423 C2422 1.287 . S
C2423 C2424 1.524 . S
C2423 H2426 0.999 . S
C2424 H2394 0.950 . S
C2424 C2423 1.524 . S
C2424 C2425 1.415 . S
C2425 H2395 0.950 . S
C2425 C2420 1.363 . S
C2425 C2424 1.415 . S
H2426 C2423 0.999 . S
H2427 C2408 0.913 . S
H2428 C2446 0.951 . S
H2429 C2448 0.951 . S
H2430 C2450 0.950 . S
H2431 C2451 0.950 . S
H2432 C2453 0.950 . S
H2433 C2456 0.950 . S
H2434 C2457 0.950 . S
H2435 C2459 0.950 . S
H2436 C2460 0.950 . S
H2437 C2461 0.951 . S
H2438 C2463 0.951 . S
H2439 C2465 0.950 . S
H2440 C2466 0.950 . S
H2441 C2468 0.950 . S
H2442 C2471 0.950 . S
H2443 C2472 0.950 . S
H2444 C2474 0.950 . S
H2445 C2475 0.950 . S
C2446 H2428 0.951 . S
C2446 C2447 1.366 . S
C2446 C2448 1.388 . S
C2447 C2446 1.366 . S
C2447 C2451 1.385 . S
C2448 H2429 0.951 . S
C2448 C2446 1.388 . S
C2448 C2449 1.366 . S
C2449 C2448 1.366 . S
C2449 C2450 1.414 . S
C2449 C2452 1.499 . S
C2450 H2430 0.950 . S
C2450 C2449 1.414 . S
C2450 C2451 1.374 . S
C2451 H2431 0.950 . S
C2451 C2447 1.385 . S
C2451 C2450 1.374 . S
C2452 C2449 1.499 . S
C2452 C2453 1.373 . S
C2452 C2454 1.389 . S
C2453 H2432 0.950 . S
C2453 C2452 1.373 . S
C2453 C2469 1.377 1_554 S
C2454 C2452 1.389 . S
C2454 C2455 1.524 . S
C2454 C2468 1.377 1_554 S
C2455 C2454 1.524 . S
C2455 C2456 1.397 . S
C2455 C2460 1.363 . S
C2456 H2433 0.950 . S
C2456 C2455 1.397 . S
C2456 C2457 1.334 . S
C2457 H2434 0.950 . S
C2457 C2456 1.334 . S
C2457 C2458 1.287 . S
C2458 C2457 1.287 . S
C2458 C2459 1.524 . S
C2458 H2477 0.913 . S
C2459 H2435 0.950 . S
C2459 C2458 1.524 . S
C2459 C2460 1.415 . S
C2460 H2436 0.950 . S
C2460 C2455 1.363 . S
C2460 C2459 1.415 . S
C2461 H2437 0.951 . S
C2461 C2462 1.366 . S
C2461 C2463 1.388 . S
C2462 C2461 1.366 . S
C2462 C2466 1.385 . S
C2463 H2438 0.951 . S
C2463 C2461 1.388 . S
C2463 C2464 1.366 . S
C2464 C2463 1.366 . S
C2464 C2465 1.414 . S
C2464 C2467 1.499 . S
C2465 H2439 0.950 . S
C2465 C2464 1.414 . S
C2465 C2466 1.374 . S
C2466 H2440 0.950 . S
C2466 C2462 1.385 . S
C2466 C2465 1.374 . S
C2467 C2464 1.499 . S
C2467 C2468 1.373 . S
C2467 C2469 1.389 . S
C2468 H2441 0.950 . S
C2468 C2454 1.377 1_556 S
C2468 C2467 1.373 . S
C2469 C2453 1.377 1_556 S
C2469 C2467 1.389 . S
C2469 C2470 1.524 . S
C2470 C2469 1.524 . S
C2470 C2471 1.397 . S
C2470 C2475 1.363 . S
C2471 H2442 0.950 . S
C2471 C2470 1.397 . S
C2471 C2472 1.334 . S
C2472 H2443 0.950 . S
C2472 C2471 1.334 . S
C2472 C2473 1.287 . S
C2473 C2472 1.287 . S
C2473 C2474 1.524 . S
C2473 H2476 0.999 . S
C2474 H2444 0.950 . S
C2474 C2473 1.524 . S
C2474 C2475 1.415 . S
C2475 H2445 0.950 . S
C2475 C2470 1.363 . S
C2475 C2474 1.415 . S
H2476 C2473 0.999 . S
H2477 C2458 0.913 . S
H2478 C2496 0.951 . S
H2479 C2498 0.951 . S
H2480 C2500 0.950 . S
H2481 C2501 0.950 . S
H2482 C2503 0.950 . S
H2483 C2506 0.950 . S
H2484 C2507 0.950 . S
H2485 C2509 0.950 . S
H2486 C2510 0.950 . S
H2487 C2511 0.951 . S
H2488 C2513 0.951 . S
H2489 C2515 0.950 . S
H2490 C2516 0.950 . S
H2491 C2518 0.950 . S
H2492 C2521 0.950 . S
H2493 C2522 0.950 . S
H2494 C2524 0.950 . S
H2495 C2525 0.950 . S
C2496 H2478 0.951 . S
C2496 C2497 1.366 . S
C2496 C2498 1.388 . S
C2497 C2496 1.366 . S
C2497 C2501 1.385 . S
C2498 H2479 0.951 . S
C2498 C2496 1.388 . S
C2498 C2499 1.366 . S
C2499 C2498 1.366 . S
C2499 C2500 1.414 . S
C2499 C2502 1.499 . S
C2500 H2480 0.950 . S
C2500 C2499 1.414 . S
C2500 C2501 1.374 . S
C2501 H2481 0.950 . S
C2501 C2497 1.385 . S
C2501 C2500 1.374 . S
C2502 C2499 1.499 . S
C2502 C2503 1.373 . S
C2502 C2504 1.389 . S
C2503 H2482 0.950 . S
C2503 C2502 1.373 . S
C2503 C2519 1.377 1_556 S
C2504 C2502 1.389 . S
C2504 C2505 1.524 . S
C2504 C2518 1.377 1_556 S
C2505 C2504 1.524 . S
C2505 C2506 1.397 . S
C2505 C2510 1.363 . S
C2506 H2483 0.950 . S
C2506 C2505 1.397 . S
C2506 C2507 1.334 . S
C2507 H2484 0.950 . S
C2507 C2506 1.334 . S
C2507 C2508 1.287 . S
C2508 C2507 1.287 . S
C2508 C2509 1.524 . S
C2508 H2527 0.913 . S
C2509 H2485 0.950 . S
C2509 C2508 1.524 . S
C2509 C2510 1.415 . S
C2510 H2486 0.950 . S
C2510 C2505 1.363 . S
C2510 C2509 1.415 . S
C2511 H2487 0.951 . S
C2511 C2512 1.366 . S
C2511 C2513 1.388 . S
C2512 C2511 1.366 . S
C2512 C2516 1.385 . S
C2513 H2488 0.951 . S
C2513 C2511 1.388 . S
C2513 C2514 1.366 . S
C2514 C2513 1.366 . S
C2514 C2515 1.414 . S
C2514 C2517 1.499 . S
C2515 H2489 0.950 . S
C2515 C2514 1.414 . S
C2515 C2516 1.374 . S
C2516 H2490 0.950 . S
C2516 C2512 1.385 . S
C2516 C2515 1.374 . S
C2517 C2514 1.499 . S
C2517 C2518 1.373 . S
C2517 C2519 1.389 . S
C2518 H2491 0.950 . S
C2518 C2504 1.377 1_554 S
C2518 C2517 1.373 . S
C2519 C2503 1.377 1_554 S
C2519 C2517 1.389 . S
C2519 C2520 1.524 . S
C2520 C2519 1.524 . S
C2520 C2521 1.397 . S
C2520 C2525 1.363 . S
C2521 H2492 0.950 . S
C2521 C2520 1.397 . S
C2521 C2522 1.334 . S
C2522 H2493 0.950 . S
C2522 C2521 1.334 . S
C2522 C2523 1.287 . S
C2523 C2522 1.287 . S
C2523 C2524 1.524 . S
C2523 H2526 0.999 . S
C2524 H2494 0.950 . S
C2524 C2523 1.524 . S
C2524 C2525 1.415 . S
C2525 H2495 0.950 . S
C2525 C2520 1.363 . S
C2525 C2524 1.415 . S
H2526 C2523 0.999 . S
H2527 C2508 0.913 . S
C547 N13 1.572 . S
C562 N376 1.573 . S
C597 N46 1.572 . S
C612 N343 1.573 . S
C647 N310 1.572 . S
C662 N79 1.573 . S
C697 N277 1.572 . S
C712 N112 1.573 . S
C747 N145 1.573 . S
C762 N508 1.572 . S
C797 N178 1.573 . S
C812 N475 1.572 . S
C847 N442 1.572 . S
C862 N211 1.573 . S
C897 N409 1.573 . S
C912 N244 1.572 . S
C947 C18 0.899 . S
C962 C447 0.899 . S
C997 C414 0.900 . S
C1012 C51 0.900 . S
C1047 C84 0.900 . S
C1062 C513 0.900 . S
C1097 C480 0.900 . S
C1112 C117 0.900 . S
C1147 C106 1.646 . S
C1162 C469 1.646 . S
C1197 C502 1.646 . S
C1212 C73 1.646 . S
C1247 C403 1.646 . S
C1262 C40 1.646 . S
C1297 C7 1.646 . S
C1312 C436 1.646 . S
C1347 C150 0.900 . S
C1362 C315 0.900 . S
C1397 C183 0.899 . S
C1412 C282 0.899 . S
C1447 C216 0.900 . S
C1462 C381 0.900 . S
C1497 C249 0.899 . S
C1512 C348 0.899 . S
C1547 C238 1.646 . S
C1562 C337 1.646 . S
C1597 C205 1.645 . S
C1612 C370 1.645 . S
C1647 C172 1.646 . S
C1662 C271 1.646 . S
C1697 C139 1.646 . S
C1712 C304 1.646 . S
C1747 C54 1.487 . S
C1762 C21 1.486 . S
C1797 C87 1.487 . S
C1812 C120 1.486 . S
C1847 C186 1.487 . S
C1862 C153 1.486 . S
C1897 C252 1.486 . S
C1912 C219 1.487 . S
C1947 C318 1.487 . S
C1962 C285 1.486 . S
C1997 C384 1.486 . S
C2012 C351 1.487 . S
C2047 C417 1.487 . S
C2062 C450 1.486 . S
C2097 C516 1.486 . S
C2112 C483 1.487 . S
C2147 N68 1.502 . S
C2162 N2 1.502 . S
C2197 N101 1.501 . S
C2212 N35 1.501 . S
C2247 N134 1.501 . S
C2262 N200 1.501 . S
C2297 N233 1.501 . S
C2312 N167 1.501 . S
C2347 N266 1.502 . S
C2362 N332 1.502 . S
C2397 N365 1.501 . S
C2412 N299 1.501 . S
C2447 N398 1.502 . S
C2462 N464 1.502 . S
C2497 N497 1.502 . S
C2512 N431 1.502 . S
