# Generated by pormake.
# Topology sml, (6)-cn, num edge types: 1
# Building blocks:
#     Node 0, Type 0, BuildingBlock: VOLQOD_clean_sbu_1, # of connection points: 6
#     Node 1, Type 0, BuildingBlock: VOLQOD_clean_sbu_1, # of connection points: 6
#     Node 2, Type 0, BuildingBlock: VOLQOD_clean_sbu_1, # of connection points: 6
#     Node 3, Type 0, BuildingBlock: VOLQOD_clean_sbu_1, # of connection points: 6
#     Node 4, Type 0, BuildingBlock: VOLQOD_clean_sbu_1, # of connection points: 6
#     Node 5, Type 0, BuildingBlock: VOLQOD_clean_sbu_1, # of connection points: 6
#     Edge 6, Type (0, 0), BuildingBlock: XIVTED_clean_linker_0, # of connection points: 2
#     Edge 7, Type (0, 0), BuildingBlock: XIVTED_clean_linker_0, # of connection points: 2
#     Edge 8, Type (0, 0), BuildingBlock: XIVTED_clean_linker_0, # of connection points: 2
#     Edge 9, Type (0, 0), BuildingBlock: XIVTED_clean_linker_0, # of connection points: 2
#     Edge 10, Type (0, 0), BuildingBlock: XIVTED_clean_linker_0, # of connection points: 2
#     Edge 11, Type (0, 0), BuildingBlock: XIVTED_clean_linker_0, # of connection points: 2
#     Edge 12, Type (0, 0), BuildingBlock: XIVTED_clean_linker_0, # of connection points: 2
#     Edge 13, Type (0, 0), BuildingBlock: XIVTED_clean_linker_0, # of connection points: 2
#     Edge 14, Type (0, 0), BuildingBlock: XIVTED_clean_linker_0, # of connection points: 2
#     Edge 15, Type (0, 0), BuildingBlock: XIVTED_clean_linker_0, # of connection points: 2
#     Edge 16, Type (0, 0), BuildingBlock: XIVTED_clean_linker_0, # of connection points: 2
#     Edge 17, Type (0, 0), BuildingBlock: XIVTED_clean_linker_0, # of connection points: 2
#     Edge 18, Type (0, 0), BuildingBlock: XIVTED_clean_linker_0, # of connection points: 2
#     Edge 19, Type (0, 0), BuildingBlock: XIVTED_clean_linker_0, # of connection points: 2
#     Edge 20, Type (0, 0), BuildingBlock: XIVTED_clean_linker_0, # of connection points: 2
#     Edge 21, Type (0, 0), BuildingBlock: XIVTED_clean_linker_0, # of connection points: 2
#     Edge 22, Type (0, 0), BuildingBlock: XIVTED_clean_linker_0, # of connection points: 2
#     Edge 23, Type (0, 0), BuildingBlock: XIVTED_clean_linker_0, # of connection points: 2
# Relax obj value: 0.293
# Max RMSD: 0.187
# Mean RMSD: 0.187
data_MOF--net-sml--node1-VOLQOD_clean_sbu_1--edge1-XIVTED_clean_linker_0
_symmetry_space_group_name_H-M    P1
_symmetry_Int_Tables_number       1
_symmetry_cell_setting            triclinic
loop_
_symmetry_equiv_pos_as_xyz
'x, y, z'
_cell_length_a     43.771816
_cell_length_b     43.827205
_cell_length_c     15.804797
_cell_angle_alpha  90.098529
_cell_angle_beta   89.971401
_cell_angle_gamma 119.90067
loop_
_atom_site_label
_atom_site_type_symbol
_atom_site_fract_x
_atom_site_fract_y
_atom_site_fract_z
_atom_type_partial_charge
O0 O 0.09245 0.38253 0.02006 0.0
Zn1 Zn 0.13189 0.42313 0.95841 0.0
O2 O 0.17464 0.42002 -0.03197 0.0
Zn3 Zn 0.20889 0.45939 0.03191 0.0
Zn4 Zn 0.1631 0.37595 0.02259 0.0
Zn5 Zn 0.19587 0.42237 0.8621 0.0
O6 O 0.25806 0.48071 -0.0142 0.0
O7 O 0.24526 0.4631 0.8525 0.0
O8 O 0.13888 0.46907 0.00706 0.0
O9 O 0.1965 0.49745 0.03301 0.0
O10 O 0.20508 0.44441 0.1513 0.0
O11 O 0.17413 0.38595 0.14616 0.0
O12 O 0.18699 0.35147 0.96628 0.0
O13 O 0.11819 0.42056 0.83478 0.0
O14 O 0.20031 0.38004 0.84393 0.0
O15 O 0.16581 0.42428 0.77294 0.0
C16 C 0.08675 0.3515 0.03422 0.0
C17 C 0.26743 0.48183 0.90907 0.0
C18 C 0.1895 0.41464 0.18797 0.0
C19 C 0.16719 0.49682 0.02825 0.0
C20 C 0.19827 0.35544 0.89033 0.0
C21 C 0.13597 0.4225 0.76916 0.0
O22 O 0.11058 0.34324 0.02353 0.0
O23 O 0.71257 0.0949 0.35015 0.0
Zn24 Zn 0.71265 0.13757 0.30332 0.0
O25 O 0.75952 0.17844 0.31445 0.0
Zn26 Zn 0.75489 0.2153 0.3678 0.0
Zn27 Zn 0.78911 0.16698 0.38127 0.0
Zn28 Zn 0.78198 0.19533 0.20851 0.0
O29 O 0.78543 0.26293 0.31471 0.0
O30 O 0.79317 0.24517 0.18893 0.0
O31 O 0.67578 0.14595 0.35951 0.0
O32 O 0.70494 0.2045 0.35887 0.0
O33 O 0.76235 0.21395 0.49195 0.0
O34 O 0.78725 0.18056 0.49985 0.0
O35 O 0.83877 0.18984 0.33577 0.0
O36 O 0.69921 0.12766 0.1801 0.0
O37 O 0.82779 0.19574 0.20131 0.0
O38 O 0.74997 0.16576 0.11856 0.0
C39 C 0.73689 0.08946 0.37719 0.0
C40 C 0.79568 0.26938 0.23803 0.0
C41 C 0.77442 0.19779 0.53511 0.0
C42 C 0.67646 0.17526 0.36673 0.0
C43 C 0.84853 0.19659 0.25881 0.0
C44 C 0.7182 0.14092 0.11472 0.0
O45 O 0.76843 0.11451 0.38693 0.0
O46 O 0.61082 0.70469 0.68585 0.0
Zn47 Zn 0.57137 0.70654 0.62448 0.0
O48 O 0.57819 0.75379 0.63756 0.0
Zn49 Zn 0.5426 0.75432 0.70813 0.0
Zn50 Zn 0.62452 0.78413 0.68501 0.0
Zn51 Zn 0.57464 0.77197 0.5324 0.0
O52 O 0.51846 0.77907 0.65568 0.0
O53 O 0.5306 0.77457 0.52155 0.0
O54 O 0.52412 0.67019 0.67355 0.0
O55 O 0.50529 0.70466 0.72858 0.0
O56 O 0.56189 0.77153 0.82314 0.0
O57 O 0.61825 0.7868 0.80982 0.0
O58 O 0.6494 0.8325 0.62908 0.0
O59 O 0.57416 0.69552 0.50035 0.0
O60 O 0.61441 0.82036 0.5175 0.0
O61 O 0.5766 0.74284 0.4414 0.0
C62 C 0.64314 0.7282 0.69448 0.0
C63 C 0.51336 0.78087 0.57688 0.0
C64 C 0.59183 0.78057 0.85563 0.0
C65 C 0.5011 0.67426 0.7137 0.0
C66 C 0.64161 0.8416 0.55929 0.0
C67 C 0.57638 0.71386 0.43576 0.0
O68 O 0.65395 0.76057 0.67923 0.0
O69 O 0.90265 0.61519 0.01424 0.0
Zn70 Zn 0.86173 0.57084 -0.03203 0.0
O71 O 0.81887 0.57343 -0.02093 0.0
Zn72 Zn 0.78392 0.53029 0.03009 0.0
Zn73 Zn 0.82691 0.61308 0.04752 0.0
Zn74 Zn 0.80146 0.5784 0.87328 0.0
O75 O 0.73572 0.51146 -0.02224 0.0
O76 O 0.75172 0.53958 0.8548 0.0
O77 O 0.85665 0.52723 0.0259 0.0
O78 O 0.79833 0.49362 0.01881 0.0
O79 O 0.78472 0.53814 0.15463 0.0
O80 O 0.81309 0.59645 0.16533 0.0
O81 O 0.80164 0.63755 0.00093 0.0
O82 O 0.87179 0.56723 0.84476 0.0
O83 O 0.80016 0.62326 0.86541 0.0
O84 O 0.83095 0.57594 0.78306 0.0
C85 C 0.90565 0.64359 0.04422 0.0
C86 C 0.72831 0.5165 0.90294 0.0
C87 C 0.79828 0.56608 0.19915 0.0
C88 C 0.82874 0.4972 0.03026 0.0
C89 C 0.79641 0.64135 0.92325 0.0
C90 C 0.85703 0.57081 0.77924 0.0
O91 O 0.87894 0.64739 0.05618 0.0
O92 O 0.28616 0.90031 0.35201 0.0
Zn93 Zn 0.28445 0.85702 0.30373 0.0
O94 O 0.23665 0.81712 0.31543 0.0
Zn95 Zn 0.23803 0.77948 0.37481 0.0
Zn96 Zn 0.20656 0.83092 0.37452 0.0
Zn97 Zn 0.21635 0.79884 0.20869 0.0
O98 O 0.20858 0.73148 0.32048 0.0
O99 O 0.20828 0.75034 0.19055 0.0
O100 O 0.32026 0.84689 0.35976 0.0
O101 O 0.28763 0.7889 0.3768 0.0
O102 O 0.22718 0.78188 0.49642 0.0
O103 O 0.20498 0.81775 0.49546 0.0
O104 O 0.15767 0.81019 0.32149 0.0
O105 O 0.298 0.86779 0.18002 0.0
O106 O 0.1698 0.79544 0.1968 0.0
O107 O 0.24742 0.82898 0.11923 0.0
C108 C 0.26244 0.90744 0.37475 0.0
C109 C 0.2029 0.7257 0.24138 0.0
C110 C 0.21563 0.79957 0.53524 0.0
C111 C 0.31733 0.81717 0.37754 0.0
C112 C 0.14872 0.79885 0.24599 0.0
C113 C 0.27881 0.8544 0.11485 0.0
O114 O 0.23006 0.88376 0.37958 0.0
O115 O 0.38107 0.2897 0.66329 0.0
Zn116 Zn 0.42455 0.29221 0.61359 0.0
O117 O 0.42149 0.24647 0.62445 0.0
Zn118 Zn 0.46263 0.25248 0.68205 0.0
Zn119 Zn 0.37936 0.21388 0.68568 0.0
Zn120 Zn 0.42174 0.22686 0.51811 0.0
O121 O 0.48288 0.22388 0.63254 0.0
O122 O 0.46461 0.22229 0.50098 0.0
O123 O 0.46931 0.33075 0.66832 0.0
O124 O 0.50022 0.30305 0.67689 0.0
O125 O 0.45117 0.24348 0.80418 0.0
O126 O 0.39261 0.21421 0.80648 0.0
O127 O 0.35489 0.1649 0.63285 0.0
O128 O 0.42546 0.3049 0.49019 0.0
O129 O 0.38125 0.17845 0.50752 0.0
O130 O 0.41974 0.25654 0.42846 0.0
C131 C 0.3515 0.2642 0.68728 0.0
C132 C 0.48396 0.21795 0.55399 0.0
C133 C 0.42218 0.22892 0.84461 0.0
C134 C 0.49826 0.33103 0.68044 0.0
C135 C 0.35814 0.15628 0.55759 0.0
C136 C 0.42209 0.28657 0.42471 0.0
O137 O 0.34598 0.23283 0.69234 0.0
H138 H 0.29904 0.22943 0.80392 0.0
H139 H 0.21692 0.3533 0.7273 0.0
H140 H 0.34045 0.31602 0.62762 0.0
H141 H 0.21218 0.30811 -0.0269 0.0
H142 H 0.24912 0.32558 0.67338 0.0
H143 H 0.2553 0.24554 0.85089 0.0
C144 C 0.2986 0.2515 0.77443 0.0
C145 C 0.3234 0.27159 0.7121 0.0
C146 C 0.24075 0.32146 0.73891 0.0
C147 C 0.27354 0.28958 0.76437 0.0
C148 C 0.22229 0.33721 0.76996 0.0
C149 C 0.21244 0.33365 0.85556 0.0
C150 C 0.24936 0.30173 0.79338 0.0
C151 C 0.21961 0.31186 0.90699 0.0
C152 C 0.27384 0.2607 0.80151 0.0
C153 C 0.32196 0.30004 0.67627 0.0
N154 N 0.23804 0.29692 0.87524 0.0
N155 N 0.29738 0.30812 0.70277 0.0
H156 H 0.04751 0.36399 0.14665 0.0
H157 H 0.87493 0.18622 0.11236 0.0
H158 H 0.04974 0.28019 0.00818 0.0
H159 H 0.90625 0.24049 0.35201 0.0
H160 H 0.93611 0.22057 0.06325 0.0
H161 H 0.99199 0.32075 0.21229 0.0
C162 C 0.03613 0.33647 0.12973 0.0
C163 C 0.05288 0.32553 0.07151 0.0
C164 C 0.92964 0.22428 0.12721 0.0
C165 C 0.98968 0.27625 0.14593 0.0
C166 C 0.8949 0.20479 0.1552 0.0
C167 C 0.88573 0.21072 0.23615 0.0
C168 C 0.95488 0.25055 0.17967 0.0
C169 C 0.91239 0.23509 0.2893 0.0
C170 C 0.0048 0.31186 0.16791 0.0
C171 C 0.03742 0.28955 0.05267 0.0
N172 N 0.94572 0.25483 0.25934 0.0
N173 N 0.00622 0.26609 0.08882 0.0
H174 H 0.77112 0.0683 0.48743 0.0
H175 H 0.63744 0.86486 0.40298 0.0
H176 H 0.68214 0.02833 0.3176 0.0
H177 H 0.69356 0.90101 0.63986 0.0
H178 H 0.66521 0.92524 0.35404 0.0
H179 H 0.75311 0.00752 0.52839 0.0
C180 C 0.74805 0.04676 0.4582 0.0
C181 C 0.72794 0.05327 0.39932 0.0
C182 C 0.67165 0.92001 0.41655 0.0
C183 C 0.70768 0.98425 0.44499 0.0
C184 C 0.65585 0.88549 0.44471 0.0
C185 C 0.66265 0.87786 0.5265 0.0
C186 C 0.6946 0.94735 0.47014 0.0
C187 C 0.68733 0.90576 0.57671 0.0
C188 C 0.73778 0.01223 0.48187 0.0
C189 C 0.69822 0.02451 0.36369 0.0
N190 N 0.70226 0.93949 0.54797 0.0
N191 N 0.68905 0.99128 0.38696 0.0
H192 H 0.62834 0.67518 0.80506 0.0
H193 H 0.80799 0.67932 0.7787 0.0
H194 H 0.7143 0.75908 0.66756 0.0
H195 H 0.74848 0.65128 0.01115 0.0
H196 H 0.77311 0.7052 0.72693 0.0
H197 H 0.66999 0.66037 0.87015 0.0
C198 C 0.65595 0.69028 0.78807 0.0
C199 C 0.66795 0.71821 0.73045 0.0
C200 C 0.76823 0.69399 0.78987 0.0
C201 C 0.71548 0.70141 0.8045 0.0
C202 C 0.78805 0.6793 0.81941 0.0
C203 C 0.78099 0.66321 0.8992 0.0
C204 C 0.74053 0.6915 0.83949 0.0
C205 C 0.75484 0.66366 0.9495 0.0
C206 C 0.67969 0.6821 0.82597 0.0
C207 C 0.70407 0.73729 0.7116 0.0
N208 N 0.73496 0.6769 0.91802 0.0
N209 N 0.72661 0.72823 0.74775 0.0
H210 H 0.08846 0.78172 0.33765 0.0
H211 H 0.96828 0.65925 -0.02699 0.0
H212 H 0.12622 0.78577 0.08307 0.0
H213 H 0.9231 0.69265 0.17006 0.0
H214 H 0.02698 0.70409 0.01873 0.0
H215 H 0.02763 0.74903 0.28391 0.0
C216 C 0.08403 0.77642 0.27048 0.0
C217 C 0.11242 0.78583 0.21507 0.0
C218 C 0.00424 0.70192 0.05147 0.0
C219 C 0.04347 0.74829 0.15401 0.0
C220 C 0.97078 0.67621 0.02566 0.0
C221 C 0.94093 0.67229 0.06794 0.0
C222 C 0.00796 0.72334 0.12137 0.0
C223 C 0.94558 0.69504 0.13564 0.0
C224 C 0.04939 0.75775 0.23997 0.0
C225 C 0.10518 0.77838 0.12854 0.0
N226 N 0.9786 0.71935 0.16129 0.0
N227 N 0.07148 0.75956 0.10101 0.0
H228 H 0.30859 0.09764 0.64484 0.0
H229 H 0.31986 0.9671 0.3188 0.0
H230 H 0.36081 0.13062 0.40265 0.0
H231 H 0.22943 0.9309 0.48263 0.0
H232 H 0.33874 0.02754 0.36048 0.0
H233 H 0.2812 0.03608 0.59685 0.0
C234 C 0.31397 0.09206 0.58153 0.0
C235 C 0.33742 0.11936 0.52822 0.0
C236 C 0.31461 0.0064 0.38689 0.0
C237 C 0.30677 0.04949 0.47401 0.0
C238 C 0.30394 0.97192 0.36344 0.0
C239 C 0.27305 0.94405 0.39726 0.0
C240 C 0.29466 0.01308 0.44591 0.0
C241 C 0.25332 0.95178 0.45474 0.0
C242 C 0.29835 0.05701 0.5543 0.0
C243 C 0.34332 0.11058 0.44661 0.0
N244 N 0.26468 0.98567 0.47814 0.0
N245 N 0.32851 0.07647 0.42259 0.0
H246 H 0.09356 0.36415 0.67945 0.0
H247 H 0.21624 0.47018 0.2975 0.0
H248 H 0.15226 0.47723 0.66596 0.0
H249 H 0.14165 0.35869 0.28262 0.0
H250 H 0.19079 0.47253 0.43215 0.0
H251 H 0.10332 0.36106 0.5282 0.0
C252 C 0.10665 0.38834 0.6433 0.0
C253 C 0.12241 0.42099 0.68446 0.0
C254 C 0.17997 0.44751 0.39956 0.0
C255 C 0.13547 0.41781 0.51403 0.0
C256 C 0.19494 0.44601 0.32328 0.0
C257 C 0.18106 0.4142 0.27839 0.0
C258 C 0.1511 0.41693 0.43196 0.0
C259 C 0.15337 0.38377 0.31513 0.0
C260 C 0.11298 0.3866 0.55747 0.0
C261 C 0.13975 0.45159 0.63587 0.0
N262 N 0.13918 0.38592 0.3898 0.0
N263 N 0.14678 0.44931 0.55336 0.0
H264 H 0.72525 0.09581 0.01207 0.0
H265 H 0.73289 0.21602 0.62761 0.0
H266 H 0.68294 0.16574 0.02549 0.0
H267 H 0.79154 0.1609 0.64543 0.0
H268 H 0.70465 0.19019 0.76251 0.0
H269 H 0.73391 0.10639 0.86016 0.0
C270 C 0.71593 0.11183 -0.01817 0.0
C271 C 0.70369 0.13021 0.03036 0.0
C272 C 0.72379 0.1839 0.73673 0.0
C273 C 0.71555 0.14428 0.85928 0.0
C274 C 0.74042 0.19913 0.66057 0.0
C275 C 0.76465 0.19062 0.62499 0.0
C276 C 0.73143 0.16003 0.77721 0.0
C277 C 0.77304 0.16825 0.67024 0.0
C278 C 0.72167 0.1186 0.89568 0.0
C279 C 0.69248 0.15117 -0.01069 0.0
N280 N 0.75626 0.15356 0.74367 0.0
N281 N 0.69969 0.1586 0.90599 0.0
H282 H 0.63613 0.73047 0.35097 0.0
H283 H 0.53885 0.76035 -0.02881 0.0
H284 H 0.52327 0.67791 0.32626 0.0
H285 H 0.6462 0.78206 0.94592 0.0
H286 H 0.53474 0.73215 0.10611 0.0
H287 H 0.64191 0.74605 0.20096 0.0
C288 C 0.61255 0.72033 0.3125 0.0
C289 C 0.57918 0.70307 0.35037 0.0
C290 C 0.55924 0.74311 0.0711 0.0
C291 C 0.58547 0.72248 0.18154 0.0
C292 C 0.56186 0.75988 -0.00531 0.0
C293 C 0.59285 0.77343 0.94653 0.0
C294 C 0.58793 0.74023 0.1005 0.0
C295 C 0.62177 0.772 -0.01924 0.0
C296 C 0.61584 0.72994 0.22747 0.0
C297 C 0.54943 0.69119 0.29885 0.0
N298 N 0.61856 0.75549 0.0557 0.0
N299 N 0.55323 0.70207 0.21735 0.0
H300 H 0.90093 0.62297 0.67559 0.0
H301 H 0.78352 0.50705 0.29023 0.0
H302 H 0.8335 0.51064 0.69107 0.0
H303 H 0.83241 0.6202 0.31099 0.0
H304 H 0.81006 0.5061 0.42549 0.0
H305 H 0.88993 0.62005 0.52363 0.0
C306 C 0.88542 0.59745 0.64582 0.0
C307 C 0.86783 0.56703 0.69492 0.0
C308 C 0.81482 0.53105 0.40022 0.0
C309 C 0.85331 0.56362 0.52376 0.0
C310 C 0.79919 0.5316 0.32386 0.0
C311 C 0.80574 0.56378 0.28902 0.0
C312 C 0.83718 0.56288 0.44156 0.0
C313 C 0.82657 0.59476 0.33516 0.0
C314 C 0.87841 0.59583 0.55965 0.0
C315 C 0.84747 0.5346 0.65444 0.0
N316 N 0.84175 0.59353 0.4087 0.0
N317 N 0.83982 0.53376 0.57105 0.0
H318 H 0.20229 0.84204 0.63735 0.0
H319 H 0.31543 0.83312 0.01835 0.0
H320 H 0.25107 0.77718 0.6374 0.0
H321 H 0.26742 0.89817 0.01806 0.0
H322 H 0.30284 0.82204 0.86742 0.0
H323 H 0.23102 0.86755 0.77141 0.0
C324 C 0.21843 0.83257 0.66631 0.0
C325 C 0.22428 0.80742 0.62569 0.0
C326 C 0.29609 0.83973 0.89953 0.0
C327 C 0.25814 0.83739 0.77822 0.0
C328 C 0.30416 0.8468 -0.01487 0.0
C329 C 0.29211 0.86629 0.02997 0.0
C330 C 0.27571 0.85217 0.85988 0.0
C331 C 0.27703 0.88294 -0.01499 0.0
C332 C 0.23536 0.84765 0.74222 0.0
C333 C 0.24566 0.79641 0.66631 0.0
N334 N 0.26823 0.87466 0.90259 0.0
N335 N 0.26198 0.81162 0.74016 0.0
H336 H 0.36571 0.27203 0.32856 0.0
H337 H 0.47994 0.26782 0.94443 0.0
H338 H 0.47909 0.32617 0.32861 0.0
H339 H 0.36603 0.21294 0.948 0.0
H340 H 0.48057 0.29543 0.07862 0.0
H341 H 0.36582 0.26163 0.17691 0.0
C342 C 0.39068 0.28353 0.29534 0.0
C343 C 0.42243 0.29967 0.34027 0.0
C344 C 0.45544 0.27729 0.05008 0.0
C345 C 0.4229 0.28605 0.16933 0.0
C346 C 0.45503 0.26098 -0.02585 0.0
C347 C 0.42286 0.23797 0.93466 0.0
C348 C 0.42349 0.2704 0.08711 0.0
C349 C 0.39147 0.23038 -0.02393 0.0
C350 C 0.39078 0.27683 0.20928 0.0
C351 C 0.45411 0.31359 0.29542 0.0
N352 N 0.3926 0.24671 0.04989 0.0
N353 N 0.4536 0.30551 0.21242 0.0
H354 H 0.11927 0.50292 0.12755 0.0
H355 H 0.21135 0.7103 0.07953 0.0
H356 H 0.21432 0.56358 -0.01721 0.0
H357 H 0.17061 0.66137 0.32183 0.0
H358 H 0.19784 0.65324 0.02201 0.0
H359 H 0.12374 0.55826 0.17859 0.0
C360 C 0.14061 0.52786 0.10536 0.0
C361 C 0.1665 0.52898 0.05105 0.0
C362 C 0.19159 0.65502 0.08753 0.0
C363 C 0.17142 0.59151 0.10774 0.0
C364 C 0.19915 0.68748 0.12048 0.0
C365 C 0.19231 0.69061 0.20589 0.0
C366 C 0.17645 0.62529 0.13973 0.0
C367 C 0.17658 0.6601 0.25589 0.0
C368 C 0.14328 0.55921 0.13492 0.0
C369 C 0.19393 0.56177 0.02479 0.0
N370 N 0.16908 0.62852 0.22195 0.0
N371 N 0.19559 0.59179 0.05305 0.0
H372 H 0.62292 0.13161 0.47286 0.0
H373 H 0.51007 0.22558 0.39438 0.0
H374 H 0.65719 0.22131 0.30846 0.0
H375 H 0.5148 0.18618 0.64139 0.0
H376 H 0.55376 0.21072 0.34353 0.0
H377 H 0.57257 0.13833 0.51701 0.0
C378 C 0.61946 0.15228 0.44514 0.0
C379 C 0.6441 0.17604 0.38727 0.0
C380 C 0.545 0.20514 0.40868 0.0
C381 C 0.58699 0.18349 0.43626 0.0
C382 C 0.52005 0.21349 0.43775 0.0
C383 C 0.50903 0.20733 0.52246 0.0
C384 C 0.55856 0.18992 0.46415 0.0
C385 C 0.5229 0.19166 0.57585 0.0
C386 C 0.59104 0.15622 0.47072 0.0
C387 C 0.6388 0.20261 0.35364 0.0
N388 N 0.547 0.18337 0.54572 0.0
N389 N 0.61072 0.20555 0.37837 0.0
H390 H 0.30032 0.48399 0.75964 0.0
H391 H 0.46305 0.67269 0.85064 0.0
H392 H 0.31838 0.53614 0.00166 0.0
H393 H 0.46654 0.60614 0.65372 0.0
H394 H 0.40855 0.62328 0.90302 0.0
H395 H 0.35979 0.52841 0.71579 0.0
C396 C 0.31685 0.50461 0.80378 0.0
C397 C 0.30424 0.50655 0.88423 0.0
C398 C 0.4213 0.61932 0.84874 0.0
C399 C 0.37202 0.55742 0.83413 0.0
C400 C 0.45231 0.64758 0.81841 0.0
C401 C 0.46913 0.64354 0.74724 0.0
C402 C 0.40653 0.58681 0.80684 0.0
C403 C 0.4543 0.6103 0.70871 0.0
C404 C 0.3508 0.52983 0.77877 0.0
C405 C 0.32691 0.53366 0.93899 0.0
N406 N 0.42347 0.58321 0.73839 0.0
N407 N 0.35953 0.55826 0.91253 0.0
H408 H 0.79637 0.28704 0.07253 0.0
H409 H 0.87223 0.49204 0.14649 0.0
H410 H 0.82218 0.33227 0.32319 0.0
H411 H 0.7896 0.43112 -0.03284 0.0
H412 H 0.86984 0.43747 0.19498 0.0
H413 H 0.81026 0.34443 0.01608 0.0
C414 C 0.8055 0.30915 0.11557 0.0
C415 C 0.80783 0.30483 0.20288 0.0
C416 C 0.85263 0.43631 0.14431 0.0
C417 C 0.82409 0.37046 0.13829 0.0
C418 C 0.85413 0.46729 0.11634 0.0
C419 C 0.83098 0.46584 0.05306 0.0
C420 C 0.82853 0.4041 0.10689 0.0
C421 C 0.80772 0.43319 0.01646 0.0
C422 C 0.81326 0.34179 0.08326 0.0
C423 C 0.81971 0.33443 0.25562 0.0
N424 N 0.80715 0.40358 0.04372 0.0
N425 N 0.82741 0.36611 0.22247 0.0
H426 H 0.33024 0.7644 0.3394 0.0
H427 H 0.48624 0.81727 0.66058 0.0
H428 H 0.37474 0.86386 0.4707 0.0
H429 H 0.4787 0.76297 0.42658 0.0
H430 H 0.44036 0.82944 0.60833 0.0
H431 H 0.37976 0.7578 0.38691 0.0
C432 C 0.35061 0.78493 0.37796 0.0
C433 C 0.34861 0.81478 0.401 0.0
C434 C 0.44907 0.81508 0.56862 0.0
C435 C 0.40475 0.80701 0.45698 0.0
C436 C 0.47496 0.80794 0.59845 0.0
C437 C 0.48622 0.78908 0.54781 0.0
C438 C 0.4339 0.80244 0.48879 0.0
C439 C 0.47091 0.77772 0.4676 0.0
C440 C 0.37881 0.78118 0.40483 0.0
C441 C 0.37562 0.84063 0.45107 0.0
N442 N 0.44527 0.78423 0.441 0.0
N443 N 0.4025 0.83595 0.47853 0.0
H444 H 0.66625 0.47876 -0.00959 0.0
H445 H 0.56304 0.35659 0.61169 0.0
H446 H 0.70904 0.50245 0.73742 0.0
H447 H 0.50632 0.37865 0.80261 0.0
H448 H 0.6182 0.40659 0.66255 0.0
H449 H 0.60798 0.43813 0.93033 0.0
C450 C 0.66334 0.47559 0.92239 0.0
C451 C 0.69251 0.49383 0.8688 0.0
C452 C 0.59363 0.40083 0.69245 0.0
C453 C 0.62648 0.44737 0.80043 0.0
C454 C 0.56228 0.3724 0.66356 0.0
C455 C 0.53034 0.36389 0.70287 0.0
C456 C 0.59308 0.42005 0.76292 0.0
C457 C 0.53055 0.38482 0.77029 0.0
C458 C 0.63015 0.45266 0.88829 0.0
C459 C 0.68728 0.48894 0.78107 0.0
N460 N 0.56165 0.41168 0.79948 0.0
N461 N 0.65502 0.46574 0.74968 0.0
loop_
_geom_bond_atom_site_label_1
_geom_bond_atom_site_label_2
_geom_bond_distance
_geom_bond_site_symmetry_2
_ccdc_geom_bond_type
O0 Zn1 1.953 1_554 S
O0 C16 1.225 . S
Zn1 O0 1.953 1_556 S
Zn1 O2 1.949 1_556 S
Zn1 O8 1.919 1_556 S
Zn1 O13 1.924 . S
O2 Zn1 1.949 1_554 S
O2 Zn3 1.923 . S
O2 Zn4 1.950 . S
O2 Zn5 1.945 1_554 S
Zn3 O2 1.923 . S
Zn3 O6 1.933 . S
Zn3 O9 1.941 . S
Zn3 O10 1.965 . S
Zn4 O2 1.950 . S
Zn4 O11 1.938 . S
Zn4 O12 1.906 . S
Zn4 O22 1.953 . S
Zn5 O2 1.945 1_556 S
Zn5 O7 1.932 . S
Zn5 O14 1.977 . S
Zn5 O15 1.910 . S
O6 Zn3 1.933 . S
O6 C17 1.226 1_554 S
O7 Zn5 1.932 . S
O7 C17 1.307 . S
O8 Zn1 1.919 1_554 S
O8 C19 1.253 . S
O9 Zn3 1.941 . S
O9 C19 1.283 . S
O10 Zn3 1.965 . S
O10 C18 1.303 . S
O11 Zn4 1.938 . S
O11 C18 1.247 . S
O12 Zn4 1.906 . S
O12 C20 1.304 1_554 S
O13 Zn1 1.924 . S
O13 C21 1.311 . S
O14 Zn5 1.977 . S
O14 C20 1.272 . S
O15 Zn5 1.910 . S
O15 C21 1.231 . S
C16 O0 1.225 . S
C16 O22 1.298 . S
C17 O6 1.226 1_556 S
C17 O7 1.307 . S
C18 O10 1.303 . S
C18 O11 1.247 . S
C19 O8 1.253 . S
C19 O9 1.283 . S
C20 O12 1.304 1_556 S
C20 O14 1.272 . S
C21 O13 1.311 . S
C21 O15 1.231 . S
O22 Zn4 1.953 . S
O22 C16 1.298 . S
O23 Zn24 1.953 . S
O23 C39 1.225 . S
Zn24 O23 1.953 . S
Zn24 O25 1.949 . S
Zn24 O31 1.919 . S
Zn24 O36 1.924 . S
O25 Zn24 1.949 . S
O25 Zn26 1.923 . S
O25 Zn27 1.950 . S
O25 Zn28 1.945 . S
Zn26 O25 1.923 . S
Zn26 O29 1.933 . S
Zn26 O32 1.941 . S
Zn26 O33 1.965 . S
Zn27 O25 1.950 . S
Zn27 O34 1.938 . S
Zn27 O35 1.906 . S
Zn27 O45 1.953 . S
Zn28 O25 1.945 . S
Zn28 O30 1.932 . S
Zn28 O37 1.977 . S
Zn28 O38 1.910 . S
O29 Zn26 1.933 . S
O29 C40 1.226 . S
O30 Zn28 1.932 . S
O30 C40 1.307 . S
O31 Zn24 1.919 . S
O31 C42 1.253 . S
O32 Zn26 1.941 . S
O32 C42 1.283 . S
O33 Zn26 1.965 . S
O33 C41 1.303 . S
O34 Zn27 1.938 . S
O34 C41 1.247 . S
O35 Zn27 1.906 . S
O35 C43 1.304 . S
O36 Zn24 1.924 . S
O36 C44 1.311 . S
O37 Zn28 1.977 . S
O37 C43 1.272 . S
O38 Zn28 1.910 . S
O38 C44 1.231 . S
C39 O23 1.225 . S
C39 O45 1.298 . S
C40 O29 1.226 . S
C40 O30 1.307 . S
C41 O33 1.303 . S
C41 O34 1.247 . S
C42 O31 1.253 . S
C42 O32 1.283 . S
C43 O35 1.304 . S
C43 O37 1.272 . S
C44 O36 1.311 . S
C44 O38 1.231 . S
O45 Zn27 1.953 . S
O45 C39 1.298 . S
O46 Zn47 1.953 . S
O46 C62 1.225 . S
Zn47 O46 1.953 . S
Zn47 O48 1.949 . S
Zn47 O54 1.919 . S
Zn47 O59 1.924 . S
O48 Zn47 1.949 . S
O48 Zn49 1.923 . S
O48 Zn50 1.950 . S
O48 Zn51 1.945 . S
Zn49 O48 1.923 . S
Zn49 O52 1.933 . S
Zn49 O55 1.941 . S
Zn49 O56 1.965 . S
Zn50 O48 1.950 . S
Zn50 O57 1.938 . S
Zn50 O58 1.906 . S
Zn50 O68 1.953 . S
Zn51 O48 1.945 . S
Zn51 O53 1.932 . S
Zn51 O60 1.977 . S
Zn51 O61 1.910 . S
O52 Zn49 1.933 . S
O52 C63 1.226 . S
O53 Zn51 1.932 . S
O53 C63 1.307 . S
O54 Zn47 1.919 . S
O54 C65 1.253 . S
O55 Zn49 1.941 . S
O55 C65 1.283 . S
O56 Zn49 1.965 . S
O56 C64 1.303 . S
O57 Zn50 1.938 . S
O57 C64 1.247 . S
O58 Zn50 1.906 . S
O58 C66 1.304 . S
O59 Zn47 1.924 . S
O59 C67 1.311 . S
O60 Zn51 1.977 . S
O60 C66 1.272 . S
O61 Zn51 1.910 . S
O61 C67 1.231 . S
C62 O46 1.225 . S
C62 O68 1.298 . S
C63 O52 1.226 . S
C63 O53 1.307 . S
C64 O56 1.303 . S
C64 O57 1.247 . S
C65 O54 1.253 . S
C65 O55 1.283 . S
C66 O58 1.304 . S
C66 O60 1.272 . S
C67 O59 1.311 . S
C67 O61 1.231 . S
O68 Zn50 1.953 . S
O68 C62 1.298 . S
O69 Zn70 1.953 1_554 S
O69 C85 1.225 . S
Zn70 O69 1.953 1_556 S
Zn70 O71 1.949 1_556 S
Zn70 O77 1.919 1_556 S
Zn70 O82 1.924 . S
O71 Zn70 1.949 1_554 S
O71 Zn72 1.923 . S
O71 Zn73 1.950 . S
O71 Zn74 1.945 1_554 S
Zn72 O71 1.923 . S
Zn72 O75 1.933 . S
Zn72 O78 1.941 . S
Zn72 O79 1.965 . S
Zn73 O71 1.950 . S
Zn73 O80 1.938 . S
Zn73 O81 1.906 . S
Zn73 O91 1.953 . S
Zn74 O71 1.945 1_556 S
Zn74 O76 1.932 . S
Zn74 O83 1.977 . S
Zn74 O84 1.910 . S
O75 Zn72 1.933 . S
O75 C86 1.226 1_554 S
O76 Zn74 1.932 . S
O76 C86 1.307 . S
O77 Zn70 1.919 1_554 S
O77 C88 1.253 . S
O78 Zn72 1.941 . S
O78 C88 1.283 . S
O79 Zn72 1.965 . S
O79 C87 1.303 . S
O80 Zn73 1.938 . S
O80 C87 1.247 . S
O81 Zn73 1.906 . S
O81 C89 1.304 1_554 S
O82 Zn70 1.924 . S
O82 C90 1.311 . S
O83 Zn74 1.977 . S
O83 C89 1.272 . S
O84 Zn74 1.910 . S
O84 C90 1.231 . S
C85 O69 1.225 . S
C85 O91 1.298 . S
C86 O75 1.226 1_556 S
C86 O76 1.307 . S
C87 O79 1.303 . S
C87 O80 1.247 . S
C88 O77 1.253 . S
C88 O78 1.283 . S
C89 O81 1.304 1_556 S
C89 O83 1.272 . S
C90 O82 1.311 . S
C90 O84 1.231 . S
O91 Zn73 1.953 . S
O91 C85 1.298 . S
O92 Zn93 1.953 . S
O92 C108 1.225 . S
Zn93 O92 1.953 . S
Zn93 O94 1.949 . S
Zn93 O100 1.919 . S
Zn93 O105 1.924 . S
O94 Zn93 1.949 . S
O94 Zn95 1.923 . S
O94 Zn96 1.950 . S
O94 Zn97 1.945 . S
Zn95 O94 1.923 . S
Zn95 O98 1.933 . S
Zn95 O101 1.941 . S
Zn95 O102 1.965 . S
Zn96 O94 1.950 . S
Zn96 O103 1.938 . S
Zn96 O104 1.906 . S
Zn96 O114 1.953 . S
Zn97 O94 1.945 . S
Zn97 O99 1.932 . S
Zn97 O106 1.977 . S
Zn97 O107 1.910 . S
O98 Zn95 1.933 . S
O98 C109 1.226 . S
O99 Zn97 1.932 . S
O99 C109 1.307 . S
O100 Zn93 1.919 . S
O100 C111 1.253 . S
O101 Zn95 1.941 . S
O101 C111 1.283 . S
O102 Zn95 1.965 . S
O102 C110 1.303 . S
O103 Zn96 1.938 . S
O103 C110 1.247 . S
O104 Zn96 1.906 . S
O104 C112 1.304 . S
O105 Zn93 1.924 . S
O105 C113 1.311 . S
O106 Zn97 1.977 . S
O106 C112 1.272 . S
O107 Zn97 1.910 . S
O107 C113 1.231 . S
C108 O92 1.225 . S
C108 O114 1.298 . S
C109 O98 1.226 . S
C109 O99 1.307 . S
C110 O102 1.303 . S
C110 O103 1.247 . S
C111 O100 1.253 . S
C111 O101 1.283 . S
C112 O104 1.304 . S
C112 O106 1.272 . S
C113 O105 1.311 . S
C113 O107 1.231 . S
O114 Zn96 1.953 . S
O114 C108 1.298 . S
O115 Zn116 1.953 . S
O115 C131 1.225 . S
Zn116 O115 1.953 . S
Zn116 O117 1.949 . S
Zn116 O123 1.919 . S
Zn116 O128 1.924 . S
O117 Zn116 1.949 . S
O117 Zn118 1.923 . S
O117 Zn119 1.950 . S
O117 Zn120 1.945 . S
Zn118 O117 1.923 . S
Zn118 O121 1.933 . S
Zn118 O124 1.941 . S
Zn118 O125 1.965 . S
Zn119 O117 1.950 . S
Zn119 O126 1.938 . S
Zn119 O127 1.906 . S
Zn119 O137 1.953 . S
Zn120 O117 1.945 . S
Zn120 O122 1.932 . S
Zn120 O129 1.977 . S
Zn120 O130 1.910 . S
O121 Zn118 1.933 . S
O121 C132 1.226 . S
O122 Zn120 1.932 . S
O122 C132 1.307 . S
O123 Zn116 1.919 . S
O123 C134 1.253 . S
O124 Zn118 1.941 . S
O124 C134 1.283 . S
O125 Zn118 1.965 . S
O125 C133 1.303 . S
O126 Zn119 1.938 . S
O126 C133 1.247 . S
O127 Zn119 1.906 . S
O127 C135 1.304 . S
O128 Zn116 1.924 . S
O128 C136 1.311 . S
O129 Zn120 1.977 . S
O129 C135 1.272 . S
O130 Zn120 1.910 . S
O130 C136 1.231 . S
C131 O115 1.225 . S
C131 O137 1.298 . S
C132 O121 1.226 . S
C132 O122 1.307 . S
C133 O125 1.303 . S
C133 O126 1.247 . S
C134 O123 1.253 . S
C134 O124 1.283 . S
C135 O127 1.304 . S
C135 O129 1.272 . S
C136 O128 1.311 . S
C136 O130 1.231 . S
O137 Zn119 1.953 . S
O137 C131 1.298 . S
H138 C144 0.930 . S
H139 C148 0.930 . S
H140 C153 0.929 . S
H141 C151 0.929 . S
H142 C146 0.929 . S
H143 C152 0.929 . S
C144 H138 0.930 . S
C144 C145 1.367 . S
C144 C152 1.378 . S
C145 C144 1.367 . S
C145 C153 1.433 . S
C146 H142 0.929 . S
C146 C148 1.378 . S
C146 C150 1.350 . S
C147 C150 1.463 . S
C147 C152 1.350 . S
C147 N155 1.427 . S
C148 H139 0.930 . S
C148 C146 1.378 . S
C148 C149 1.367 . S
C149 C148 1.367 . S
C149 C151 1.433 . S
C150 C146 1.350 . S
C150 C147 1.463 . S
C150 N154 1.427 . S
C151 H141 0.929 . S
C151 C149 1.433 . S
C151 N154 1.384 . S
C152 H143 0.929 . S
C152 C144 1.378 . S
C152 C147 1.350 . S
C153 H140 0.929 . S
C153 C145 1.433 . S
C153 N155 1.384 . S
N154 C150 1.427 . S
N154 C151 1.384 . S
N155 C147 1.427 . S
N155 C153 1.384 . S
H156 C162 0.930 . S
H157 C166 0.930 . S
H158 C171 0.929 1_556 S
H159 C169 0.929 . S
H160 C164 0.929 . S
H161 C170 0.929 . S
C162 H156 0.930 . S
C162 C163 1.367 . S
C162 C170 1.378 . S
C163 C162 1.367 . S
C163 C171 1.433 . S
C164 H160 0.929 . S
C164 C166 1.378 . S
C164 C168 1.350 . S
C165 C168 1.469 . S
C165 C170 1.345 1_655 S
C165 N173 1.426 1_655 S
C166 H157 0.930 . S
C166 C164 1.378 . S
C166 C167 1.367 . S
C167 C166 1.367 . S
C167 C169 1.433 . S
C168 C164 1.350 . S
C168 C165 1.469 . S
C168 N172 1.427 . S
C169 H159 0.929 . S
C169 C167 1.433 . S
C169 N172 1.384 . S
C170 H161 0.929 . S
C170 C162 1.378 . S
C170 C165 1.345 1_455 S
C171 H158 0.929 1_554 S
C171 C163 1.433 . S
C171 N173 1.384 . S
N172 C168 1.427 . S
N172 C169 1.384 . S
N173 C165 1.426 1_455 S
N173 C171 1.384 . S
H174 C180 0.930 . S
H175 C184 0.930 . S
H176 C189 0.929 . S
H177 C187 0.929 . S
H178 C182 0.929 . S
H179 C188 0.929 . S
C180 H174 0.930 . S
C180 C181 1.367 . S
C180 C188 1.378 . S
C181 C180 1.367 . S
C181 C189 1.433 . S
C182 H178 0.929 . S
C182 C184 1.378 . S
C182 C186 1.350 . S
C183 C186 1.469 . S
C183 C188 1.345 1_565 S
C183 N191 1.427 1_565 S
C184 H175 0.930 . S
C184 C182 1.378 . S
C184 C185 1.367 . S
C185 C184 1.367 . S
C185 C187 1.433 . S
C186 C182 1.350 . S
C186 C183 1.469 . S
C186 N190 1.427 . S
C187 H177 0.929 . S
C187 C185 1.433 . S
C187 N190 1.384 . S
C188 H179 0.929 . S
C188 C180 1.378 . S
C188 C183 1.345 1_545 S
C189 H176 0.929 . S
C189 C181 1.433 . S
C189 N191 1.384 . S
N190 C186 1.427 . S
N190 C187 1.384 . S
N191 C183 1.427 1_545 S
N191 C189 1.384 . S
H192 C198 0.930 . S
H193 C202 0.930 . S
H194 C207 0.929 . S
H195 C205 0.929 1_554 S
H196 C200 0.929 . S
H197 C206 0.929 . S
C198 H192 0.930 . S
C198 C199 1.367 . S
C198 C206 1.378 . S
C199 C198 1.367 . S
C199 C207 1.433 . S
C200 H196 0.929 . S
C200 C202 1.378 . S
C200 C204 1.350 . S
C201 C204 1.463 . S
C201 C206 1.350 . S
C201 N209 1.427 . S
C202 H193 0.930 . S
C202 C200 1.378 . S
C202 C203 1.367 . S
C203 C202 1.367 . S
C203 C205 1.433 . S
C204 C200 1.350 . S
C204 C201 1.463 . S
C204 N208 1.427 . S
C205 H195 0.929 1_556 S
C205 C203 1.433 . S
C205 N208 1.384 . S
C206 H197 0.929 . S
C206 C198 1.378 . S
C206 C201 1.350 . S
C207 H194 0.929 . S
C207 C199 1.433 . S
C207 N209 1.384 . S
N208 C204 1.427 . S
N208 C205 1.384 . S
N209 C201 1.427 . S
N209 C207 1.384 . S
H210 C216 0.930 . S
H211 C220 0.930 . S
H212 C225 0.929 . S
H213 C223 0.929 . S
H214 C218 0.956 . S
H215 C224 0.929 . S
C216 H210 0.930 . S
C216 C217 1.367 . S
C216 C224 1.378 . S
C217 C216 1.367 . S
C217 C225 1.433 . S
C218 H214 0.956 . S
C218 C220 1.378 . S
C218 C222 1.353 1_655 S
C219 C222 1.485 . S
C219 C224 1.350 . S
C219 N227 1.427 . S
C220 H211 0.930 . S
C220 C218 1.378 . S
C220 C221 1.367 . S
C221 C220 1.367 . S
C221 C223 1.433 . S
C222 C218 1.353 1_455 S
C222 C219 1.485 . S
C222 N226 1.402 1_455 S
C223 H213 0.929 . S
C223 C221 1.433 . S
C223 N226 1.384 . S
C224 H215 0.929 . S
C224 C216 1.378 . S
C224 C219 1.350 . S
C225 H212 0.929 . S
C225 C217 1.433 . S
C225 N227 1.384 . S
N226 C222 1.402 1_655 S
N226 C223 1.384 . S
N227 C219 1.427 . S
N227 C225 1.384 . S
H228 C234 0.930 . S
H229 C238 0.930 . S
H230 C243 0.929 . S
H231 C241 0.929 . S
H232 C236 0.929 1_545 S
H233 C242 0.929 . S
C234 H228 0.930 . S
C234 C235 1.367 . S
C234 C242 1.378 . S
C235 C234 1.367 . S
C235 C243 1.433 . S
C236 H232 0.929 1_565 S
C236 C238 1.378 . S
C236 C240 1.350 1_565 S
C237 C240 1.463 . S
C237 C242 1.350 . S
C237 N245 1.427 . S
C238 H229 0.930 . S
C238 C236 1.378 . S
C238 C239 1.367 . S
C239 C238 1.367 . S
C239 C241 1.433 . S
C240 C236 1.350 1_545 S
C240 C237 1.463 . S
C240 N244 1.427 1_545 S
C241 H231 0.929 . S
C241 C239 1.433 . S
C241 N244 1.384 . S
C242 H233 0.929 . S
C242 C234 1.378 . S
C242 C237 1.350 . S
C243 H230 0.929 . S
C243 C235 1.433 . S
C243 N245 1.384 . S
N244 C240 1.427 1_565 S
N244 C241 1.384 . S
N245 C237 1.427 . S
N245 C243 1.384 . S
H246 C252 0.930 . S
H247 C256 0.930 . S
H248 C261 0.929 . S
H249 C259 0.929 . S
H250 C254 0.929 . S
H251 C260 0.929 . S
C252 H246 0.930 . S
C252 C253 1.367 . S
C252 C260 1.378 . S
C253 C252 1.367 . S
C253 C261 1.433 . S
C254 H250 0.929 . S
C254 C256 1.378 . S
C254 C258 1.350 . S
C255 C258 1.463 . S
C255 C260 1.350 . S
C255 N263 1.427 . S
C256 H247 0.930 . S
C256 C254 1.378 . S
C256 C257 1.367 . S
C257 C256 1.367 . S
C257 C259 1.433 . S
C258 C254 1.350 . S
C258 C255 1.463 . S
C258 N262 1.427 . S
C259 H249 0.929 . S
C259 C257 1.433 . S
C259 N262 1.384 . S
C260 H251 0.929 . S
C260 C252 1.378 . S
C260 C255 1.350 . S
C261 H248 0.929 . S
C261 C253 1.433 . S
C261 N263 1.384 . S
N262 C258 1.427 . S
N262 C259 1.384 . S
N263 C255 1.427 . S
N263 C261 1.384 . S
H264 C270 0.930 . S
H265 C274 0.930 . S
H266 C279 0.929 . S
H267 C277 0.929 . S
H268 C272 0.929 . S
H269 C278 0.929 . S
C270 H264 0.930 . S
C270 C271 1.367 . S
C270 C278 1.378 1_554 S
C271 C270 1.367 . S
C271 C279 1.433 . S
C272 H268 0.929 . S
C272 C274 1.378 . S
C272 C276 1.350 . S
C273 C276 1.463 . S
C273 C278 1.350 . S
C273 N281 1.427 . S
C274 H265 0.930 . S
C274 C272 1.378 . S
C274 C275 1.367 . S
C275 C274 1.367 . S
C275 C277 1.433 . S
C276 C272 1.350 . S
C276 C273 1.463 . S
C276 N280 1.427 . S
C277 H267 0.929 . S
C277 C275 1.433 . S
C277 N280 1.384 . S
C278 H269 0.929 . S
C278 C270 1.378 1_556 S
C278 C273 1.350 . S
C279 H266 0.929 . S
C279 C271 1.433 . S
C279 N281 1.384 1_554 S
N280 C276 1.427 . S
N280 C277 1.384 . S
N281 C273 1.427 . S
N281 C279 1.384 1_556 S
H282 C288 0.930 . S
H283 C292 0.930 . S
H284 C297 0.929 . S
H285 C295 0.929 1_556 S
H286 C290 0.929 . S
H287 C296 0.929 . S
C288 H282 0.930 . S
C288 C289 1.367 . S
C288 C296 1.378 . S
C289 C288 1.367 . S
C289 C297 1.433 . S
C290 H286 0.929 . S
C290 C292 1.378 1_554 S
C290 C294 1.350 . S
C291 C294 1.463 . S
C291 C296 1.350 . S
C291 N299 1.427 . S
C292 H283 0.930 . S
C292 C290 1.378 1_556 S
C292 C293 1.367 . S
C293 C292 1.367 . S
C293 C295 1.433 1_556 S
C294 C290 1.350 . S
C294 C291 1.463 . S
C294 N298 1.427 . S
C295 H285 0.929 1_554 S
C295 C293 1.433 1_554 S
C295 N298 1.384 . S
C296 H287 0.929 . S
C296 C288 1.378 . S
C296 C291 1.350 . S
C297 H284 0.929 . S
C297 C289 1.433 . S
C297 N299 1.384 . S
N298 C294 1.427 . S
N298 C295 1.384 . S
N299 C291 1.427 . S
N299 C297 1.384 . S
H300 C306 0.930 . S
H301 C310 0.930 . S
H302 C315 0.929 . S
H303 C313 0.929 . S
H304 C308 0.929 . S
H305 C314 0.929 . S
C306 H300 0.930 . S
C306 C307 1.367 . S
C306 C314 1.378 . S
C307 C306 1.367 . S
C307 C315 1.433 . S
C308 H304 0.929 . S
C308 C310 1.378 . S
C308 C312 1.350 . S
C309 C312 1.463 . S
C309 C314 1.350 . S
C309 N317 1.427 . S
C310 H301 0.930 . S
C310 C308 1.378 . S
C310 C311 1.367 . S
C311 C310 1.367 . S
C311 C313 1.433 . S
C312 C308 1.350 . S
C312 C309 1.463 . S
C312 N316 1.427 . S
C313 H303 0.929 . S
C313 C311 1.433 . S
C313 N316 1.384 . S
C314 H305 0.929 . S
C314 C306 1.378 . S
C314 C309 1.350 . S
C315 H302 0.929 . S
C315 C307 1.433 . S
C315 N317 1.384 . S
N316 C312 1.427 . S
N316 C313 1.384 . S
N317 C309 1.427 . S
N317 C315 1.384 . S
H318 C324 0.930 . S
H319 C328 0.930 . S
H320 C333 0.929 . S
H321 C331 0.929 . S
H322 C326 0.929 . S
H323 C332 0.929 . S
C324 H318 0.930 . S
C324 C325 1.367 . S
C324 C332 1.378 . S
C325 C324 1.367 . S
C325 C333 1.433 . S
C326 H322 0.929 . S
C326 C328 1.378 1_556 S
C326 C330 1.350 . S
C327 C330 1.463 . S
C327 C332 1.350 . S
C327 N335 1.427 . S
C328 H319 0.930 . S
C328 C326 1.378 1_554 S
C328 C329 1.367 . S
C329 C328 1.367 . S
C329 C331 1.433 . S
C330 C326 1.350 . S
C330 C327 1.463 . S
C330 N334 1.427 . S
C331 H321 0.929 . S
C331 C329 1.433 . S
C331 N334 1.384 1_554 S
C332 H323 0.929 . S
C332 C324 1.378 . S
C332 C327 1.350 . S
C333 H320 0.929 . S
C333 C325 1.433 . S
C333 N335 1.384 . S
N334 C330 1.427 . S
N334 C331 1.384 1_556 S
N335 C327 1.427 . S
N335 C333 1.384 . S
H336 C342 0.930 . S
H337 C346 0.930 . S
H338 C351 0.929 . S
H339 C349 0.929 1_556 S
H340 C344 0.929 . S
H341 C350 0.929 . S
C342 H336 0.930 . S
C342 C343 1.367 . S
C342 C350 1.378 . S
C343 C342 1.367 . S
C343 C351 1.433 . S
C344 H340 0.929 . S
C344 C346 1.378 1_554 S
C344 C348 1.350 . S
C345 C348 1.463 . S
C345 C350 1.350 . S
C345 N353 1.427 . S
C346 H337 0.930 . S
C346 C344 1.378 1_556 S
C346 C347 1.367 . S
C347 C346 1.367 . S
C347 C349 1.433 1_556 S
C348 C344 1.350 . S
C348 C345 1.463 . S
C348 N352 1.427 . S
C349 H339 0.929 1_554 S
C349 C347 1.433 1_554 S
C349 N352 1.384 . S
C350 H341 0.929 . S
C350 C342 1.378 . S
C350 C345 1.350 . S
C351 H338 0.929 . S
C351 C343 1.433 . S
C351 N353 1.384 . S
N352 C348 1.427 . S
N352 C349 1.384 . S
N353 C345 1.427 . S
N353 C351 1.384 . S
H354 C360 0.930 . S
H355 C364 0.930 . S
H356 C369 0.929 1_556 S
H357 C367 0.929 . S
H358 C362 0.929 . S
H359 C368 0.929 . S
C360 H354 0.930 . S
C360 C361 1.367 . S
C360 C368 1.378 . S
C361 C360 1.367 . S
C361 C369 1.433 . S
C362 H358 0.929 . S
C362 C364 1.378 . S
C362 C366 1.350 . S
C363 C366 1.463 . S
C363 C368 1.350 . S
C363 N371 1.427 . S
C364 H355 0.930 . S
C364 C362 1.378 . S
C364 C365 1.367 . S
C365 C364 1.367 . S
C365 C367 1.433 . S
C366 C362 1.350 . S
C366 C363 1.463 . S
C366 N370 1.427 . S
C367 H357 0.929 . S
C367 C365 1.433 . S
C367 N370 1.384 . S
C368 H359 0.929 . S
C368 C360 1.378 . S
C368 C363 1.350 . S
C369 H356 0.929 1_554 S
C369 C361 1.433 . S
C369 N371 1.384 . S
N370 C366 1.427 . S
N370 C367 1.384 . S
N371 C363 1.427 . S
N371 C369 1.384 . S
H372 C378 0.930 . S
H373 C382 0.930 . S
H374 C387 0.929 . S
H375 C385 0.929 . S
H376 C380 0.929 . S
H377 C386 0.929 . S
C378 H372 0.930 . S
C378 C379 1.367 . S
C378 C386 1.378 . S
C379 C378 1.367 . S
C379 C387 1.433 . S
C380 H376 0.929 . S
C380 C382 1.378 . S
C380 C384 1.350 . S
C381 C384 1.463 . S
C381 C386 1.350 . S
C381 N389 1.427 . S
C382 H373 0.930 . S
C382 C380 1.378 . S
C382 C383 1.367 . S
C383 C382 1.367 . S
C383 C385 1.433 . S
C384 C380 1.350 . S
C384 C381 1.463 . S
C384 N388 1.427 . S
C385 H375 0.929 . S
C385 C383 1.433 . S
C385 N388 1.384 . S
C386 H377 0.929 . S
C386 C378 1.378 . S
C386 C381 1.350 . S
C387 H374 0.929 . S
C387 C379 1.433 . S
C387 N389 1.384 . S
N388 C384 1.427 . S
N388 C385 1.384 . S
N389 C381 1.427 . S
N389 C387 1.384 . S
H390 C396 0.930 . S
H391 C400 0.930 . S
H392 C405 0.929 1_554 S
H393 C403 0.929 . S
H394 C398 0.929 . S
H395 C404 0.929 . S
C396 H390 0.930 . S
C396 C397 1.367 . S
C396 C404 1.378 . S
C397 C396 1.367 . S
C397 C405 1.433 . S
C398 H394 0.929 . S
C398 C400 1.378 . S
C398 C402 1.350 . S
C399 C402 1.463 . S
C399 C404 1.350 . S
C399 N407 1.427 . S
C400 H391 0.930 . S
C400 C398 1.378 . S
C400 C401 1.367 . S
C401 C400 1.367 . S
C401 C403 1.433 . S
C402 C398 1.350 . S
C402 C399 1.463 . S
C402 N406 1.427 . S
C403 H393 0.929 . S
C403 C401 1.433 . S
C403 N406 1.384 . S
C404 H395 0.929 . S
C404 C396 1.378 . S
C404 C399 1.350 . S
C405 H392 0.929 1_556 S
C405 C397 1.433 . S
C405 N407 1.384 . S
N406 C402 1.427 . S
N406 C403 1.384 . S
N407 C399 1.427 . S
N407 C405 1.384 . S
H408 C414 0.930 . S
H409 C418 0.930 . S
H410 C423 0.929 . S
H411 C421 0.929 1_556 S
H412 C416 0.929 . S
H413 C422 0.929 . S
C414 H408 0.930 . S
C414 C415 1.367 . S
C414 C422 1.378 . S
C415 C414 1.367 . S
C415 C423 1.433 . S
C416 H412 0.929 . S
C416 C418 1.378 . S
C416 C420 1.350 . S
C417 C420 1.463 . S
C417 C422 1.350 . S
C417 N425 1.427 . S
C418 H409 0.930 . S
C418 C416 1.378 . S
C418 C419 1.367 . S
C419 C418 1.367 . S
C419 C421 1.433 . S
C420 C416 1.350 . S
C420 C417 1.463 . S
C420 N424 1.427 . S
C421 H411 0.929 1_554 S
C421 C419 1.433 . S
C421 N424 1.384 . S
C422 H413 0.929 . S
C422 C414 1.378 . S
C422 C417 1.350 . S
C423 H410 0.929 . S
C423 C415 1.433 . S
C423 N425 1.384 . S
N424 C420 1.427 . S
N424 C421 1.384 . S
N425 C417 1.427 . S
N425 C423 1.384 . S
H426 C432 0.930 . S
H427 C436 0.930 . S
H428 C441 0.929 . S
H429 C439 0.929 . S
H430 C434 0.929 . S
H431 C440 0.929 . S
C432 H426 0.930 . S
C432 C433 1.367 . S
C432 C440 1.378 . S
C433 C432 1.367 . S
C433 C441 1.433 . S
C434 H430 0.929 . S
C434 C436 1.378 . S
C434 C438 1.350 . S
C435 C438 1.463 . S
C435 C440 1.350 . S
C435 N443 1.427 . S
C436 H427 0.930 . S
C436 C434 1.378 . S
C436 C437 1.367 . S
C437 C436 1.367 . S
C437 C439 1.433 . S
C438 C434 1.350 . S
C438 C435 1.463 . S
C438 N442 1.427 . S
C439 H429 0.929 . S
C439 C437 1.433 . S
C439 N442 1.384 . S
C440 H431 0.929 . S
C440 C432 1.378 . S
C440 C435 1.350 . S
C441 H428 0.929 . S
C441 C433 1.433 . S
C441 N443 1.384 . S
N442 C438 1.427 . S
N442 C439 1.384 . S
N443 C435 1.427 . S
N443 C441 1.384 . S
H444 C450 0.930 1_554 S
H445 C454 0.930 . S
H446 C459 0.929 . S
H447 C457 0.929 . S
H448 C452 0.929 . S
H449 C458 0.929 . S
C450 H444 0.930 1_556 S
C450 C451 1.367 . S
C450 C458 1.378 . S
C451 C450 1.367 . S
C451 C459 1.433 . S
C452 H448 0.929 . S
C452 C454 1.378 . S
C452 C456 1.350 . S
C453 C456 1.463 . S
C453 C458 1.350 . S
C453 N461 1.427 . S
C454 H445 0.930 . S
C454 C452 1.378 . S
C454 C455 1.367 . S
C455 C454 1.367 . S
C455 C457 1.433 . S
C456 C452 1.350 . S
C456 C453 1.463 . S
C456 N460 1.427 . S
C457 H447 0.929 . S
C457 C455 1.433 . S
C457 N460 1.384 . S
C458 H449 0.929 . S
C458 C450 1.378 . S
C458 C453 1.350 . S
C459 H446 0.929 . S
C459 C451 1.433 . S
C459 N461 1.384 . S
N460 C456 1.427 . S
N460 C457 1.384 . S
N461 C453 1.427 . S
N461 C459 1.384 . S
C145 C131 1.473 . S
C149 C20 1.463 . S
C163 C16 1.465 . S
C167 C43 1.456 . S
C181 C39 1.466 . S
C185 C66 1.457 . S
C199 C62 1.464 . S
C203 C89 1.457 . S
C217 C112 1.462 . S
C221 C85 1.466 . S
C235 C135 1.467 . S
C239 C108 1.470 . S
C253 C21 0.748 . S
C257 C18 0.722 . S
C271 C44 0.751 . S
C275 C41 0.722 . S
C289 C67 0.724 . S
C293 C64 0.723 . S
C307 C90 0.750 . S
C311 C87 0.721 . S
C325 C110 0.725 . S
C329 C113 0.712 . S
C343 C136 0.732 . S
C347 C133 0.723 . S
C361 C19 1.574 . S
C365 C109 1.612 . S
C379 C42 1.575 . S
C383 C132 1.613 . S
C397 C17 1.612 . S
C401 C65 1.573 . S
C415 C40 1.612 . S
C419 C88 1.573 . S
C433 C111 1.585 . S
C437 C63 1.619 . S
C451 C86 1.619 . S
C455 C134 1.585 . S
