# Generated by pormake.
# Topology sxf, (6)-cn, num edge types: 1
# Building blocks:
#     Node 0, Type 0, BuildingBlock: IZENUY_clean_sbu_0, # of connection points: 6
#     Node 1, Type 0, BuildingBlock: IZENUY_clean_sbu_0, # of connection points: 6
#     Node 2, Type 0, BuildingBlock: IZENUY_clean_sbu_0, # of connection points: 6
#     Node 3, Type 0, BuildingBlock: IZENUY_clean_sbu_0, # of connection points: 6
#     Node 4, Type 0, BuildingBlock: IZENUY_clean_sbu_0, # of connection points: 6
#     Node 5, Type 0, BuildingBlock: IZENUY_clean_sbu_0, # of connection points: 6
#     Node 6, Type 0, BuildingBlock: IZENUY_clean_sbu_0, # of connection points: 6
#     Node 7, Type 0, BuildingBlock: IZENUY_clean_sbu_0, # of connection points: 6
#     Node 8, Type 0, BuildingBlock: IZENUY_clean_sbu_0, # of connection points: 6
#     Node 9, Type 0, BuildingBlock: IZENUY_clean_sbu_0, # of connection points: 6
#     Node 10, Type 0, BuildingBlock: IZENUY_clean_sbu_0, # of connection points: 6
#     Node 11, Type 0, BuildingBlock: IZENUY_clean_sbu_0, # of connection points: 6
#     Node 12, Type 0, BuildingBlock: IZENUY_clean_sbu_0, # of connection points: 6
#     Node 13, Type 0, BuildingBlock: IZENUY_clean_sbu_0, # of connection points: 6
#     Node 14, Type 0, BuildingBlock: IZENUY_clean_sbu_0, # of connection points: 6
#     Node 15, Type 0, BuildingBlock: IZENUY_clean_sbu_0, # of connection points: 6
#     Node 16, Type 0, BuildingBlock: IZENUY_clean_sbu_0, # of connection points: 6
#     Node 17, Type 0, BuildingBlock: IZENUY_clean_sbu_0, # of connection points: 6
#     Node 18, Type 0, BuildingBlock: IZENUY_clean_sbu_0, # of connection points: 6
#     Node 19, Type 0, BuildingBlock: IZENUY_clean_sbu_0, # of connection points: 6
#     Node 20, Type 0, BuildingBlock: IZENUY_clean_sbu_0, # of connection points: 6
#     Node 21, Type 0, BuildingBlock: IZENUY_clean_sbu_0, # of connection points: 6
#     Node 22, Type 0, BuildingBlock: IZENUY_clean_sbu_0, # of connection points: 6
#     Node 23, Type 0, BuildingBlock: IZENUY_clean_sbu_0, # of connection points: 6
#     Edge 24, Type (0, 0), BuildingBlock: CIFDUS_clean_linker_0, # of connection points: 2
#     Edge 25, Type (0, 0), BuildingBlock: CIFDUS_clean_linker_0, # of connection points: 2
#     Edge 26, Type (0, 0), BuildingBlock: CIFDUS_clean_linker_0, # of connection points: 2
#     Edge 27, Type (0, 0), BuildingBlock: CIFDUS_clean_linker_0, # of connection points: 2
#     Edge 28, Type (0, 0), BuildingBlock: CIFDUS_clean_linker_0, # of connection points: 2
#     Edge 29, Type (0, 0), BuildingBlock: CIFDUS_clean_linker_0, # of connection points: 2
#     Edge 30, Type (0, 0), BuildingBlock: CIFDUS_clean_linker_0, # of connection points: 2
#     Edge 31, Type (0, 0), BuildingBlock: CIFDUS_clean_linker_0, # of connection points: 2
#     Edge 32, Type (0, 0), BuildingBlock: CIFDUS_clean_linker_0, # of connection points: 2
#     Edge 33, Type (0, 0), BuildingBlock: CIFDUS_clean_linker_0, # of connection points: 2
#     Edge 34, Type (0, 0), BuildingBlock: CIFDUS_clean_linker_0, # of connection points: 2
#     Edge 35, Type (0, 0), BuildingBlock: CIFDUS_clean_linker_0, # of connection points: 2
#     Edge 36, Type (0, 0), BuildingBlock: CIFDUS_clean_linker_0, # of connection points: 2
#     Edge 37, Type (0, 0), BuildingBlock: CIFDUS_clean_linker_0, # of connection points: 2
#     Edge 38, Type (0, 0), BuildingBlock: CIFDUS_clean_linker_0, # of connection points: 2
#     Edge 39, Type (0, 0), BuildingBlock: CIFDUS_clean_linker_0, # of connection points: 2
#     Edge 40, Type (0, 0), BuildingBlock: CIFDUS_clean_linker_0, # of connection points: 2
#     Edge 41, Type (0, 0), BuildingBlock: CIFDUS_clean_linker_0, # of connection points: 2
#     Edge 42, Type (0, 0), BuildingBlock: CIFDUS_clean_linker_0, # of connection points: 2
#     Edge 43, Type (0, 0), BuildingBlock: CIFDUS_clean_linker_0, # of connection points: 2
#     Edge 44, Type (0, 0), BuildingBlock: CIFDUS_clean_linker_0, # of connection points: 2
#     Edge 45, Type (0, 0), BuildingBlock: CIFDUS_clean_linker_0, # of connection points: 2
#     Edge 46, Type (0, 0), BuildingBlock: CIFDUS_clean_linker_0, # of connection points: 2
#     Edge 47, Type (0, 0), BuildingBlock: CIFDUS_clean_linker_0, # of connection points: 2
#     Edge 48, Type (0, 0), BuildingBlock: CIFDUS_clean_linker_0, # of connection points: 2
#     Edge 49, Type (0, 0), BuildingBlock: CIFDUS_clean_linker_0, # of connection points: 2
#     Edge 50, Type (0, 0), BuildingBlock: CIFDUS_clean_linker_0, # of connection points: 2
#     Edge 51, Type (0, 0), BuildingBlock: CIFDUS_clean_linker_0, # of connection points: 2
#     Edge 52, Type (0, 0), BuildingBlock: CIFDUS_clean_linker_0, # of connection points: 2
#     Edge 53, Type (0, 0), BuildingBlock: CIFDUS_clean_linker_0, # of connection points: 2
#     Edge 54, Type (0, 0), BuildingBlock: CIFDUS_clean_linker_0, # of connection points: 2
#     Edge 55, Type (0, 0), BuildingBlock: CIFDUS_clean_linker_0, # of connection points: 2
#     Edge 56, Type (0, 0), BuildingBlock: CIFDUS_clean_linker_0, # of connection points: 2
#     Edge 57, Type (0, 0), BuildingBlock: CIFDUS_clean_linker_0, # of connection points: 2
#     Edge 58, Type (0, 0), BuildingBlock: CIFDUS_clean_linker_0, # of connection points: 2
#     Edge 59, Type (0, 0), BuildingBlock: CIFDUS_clean_linker_0, # of connection points: 2
#     Edge 60, Type (0, 0), BuildingBlock: CIFDUS_clean_linker_0, # of connection points: 2
#     Edge 61, Type (0, 0), BuildingBlock: CIFDUS_clean_linker_0, # of connection points: 2
#     Edge 62, Type (0, 0), BuildingBlock: CIFDUS_clean_linker_0, # of connection points: 2
#     Edge 63, Type (0, 0), BuildingBlock: CIFDUS_clean_linker_0, # of connection points: 2
#     Edge 64, Type (0, 0), BuildingBlock: CIFDUS_clean_linker_0, # of connection points: 2
#     Edge 65, Type (0, 0), BuildingBlock: CIFDUS_clean_linker_0, # of connection points: 2
#     Edge 66, Type (0, 0), BuildingBlock: CIFDUS_clean_linker_0, # of connection points: 2
#     Edge 67, Type (0, 0), BuildingBlock: CIFDUS_clean_linker_0, # of connection points: 2
#     Edge 68, Type (0, 0), BuildingBlock: CIFDUS_clean_linker_0, # of connection points: 2
#     Edge 69, Type (0, 0), BuildingBlock: CIFDUS_clean_linker_0, # of connection points: 2
#     Edge 70, Type (0, 0), BuildingBlock: CIFDUS_clean_linker_0, # of connection points: 2
#     Edge 71, Type (0, 0), BuildingBlock: CIFDUS_clean_linker_0, # of connection points: 2
#     Edge 72, Type (0, 0), BuildingBlock: CIFDUS_clean_linker_0, # of connection points: 2
#     Edge 73, Type (0, 0), BuildingBlock: CIFDUS_clean_linker_0, # of connection points: 2
#     Edge 74, Type (0, 0), BuildingBlock: CIFDUS_clean_linker_0, # of connection points: 2
#     Edge 75, Type (0, 0), BuildingBlock: CIFDUS_clean_linker_0, # of connection points: 2
#     Edge 76, Type (0, 0), BuildingBlock: CIFDUS_clean_linker_0, # of connection points: 2
#     Edge 77, Type (0, 0), BuildingBlock: CIFDUS_clean_linker_0, # of connection points: 2
#     Edge 78, Type (0, 0), BuildingBlock: CIFDUS_clean_linker_0, # of connection points: 2
#     Edge 79, Type (0, 0), BuildingBlock: CIFDUS_clean_linker_0, # of connection points: 2
#     Edge 80, Type (0, 0), BuildingBlock: CIFDUS_clean_linker_0, # of connection points: 2
#     Edge 81, Type (0, 0), BuildingBlock: CIFDUS_clean_linker_0, # of connection points: 2
#     Edge 82, Type (0, 0), BuildingBlock: CIFDUS_clean_linker_0, # of connection points: 2
#     Edge 83, Type (0, 0), BuildingBlock: CIFDUS_clean_linker_0, # of connection points: 2
#     Edge 84, Type (0, 0), BuildingBlock: CIFDUS_clean_linker_0, # of connection points: 2
#     Edge 85, Type (0, 0), BuildingBlock: CIFDUS_clean_linker_0, # of connection points: 2
#     Edge 86, Type (0, 0), BuildingBlock: CIFDUS_clean_linker_0, # of connection points: 2
#     Edge 87, Type (0, 0), BuildingBlock: CIFDUS_clean_linker_0, # of connection points: 2
#     Edge 88, Type (0, 0), BuildingBlock: CIFDUS_clean_linker_0, # of connection points: 2
#     Edge 89, Type (0, 0), BuildingBlock: CIFDUS_clean_linker_0, # of connection points: 2
#     Edge 90, Type (0, 0), BuildingBlock: CIFDUS_clean_linker_0, # of connection points: 2
#     Edge 91, Type (0, 0), BuildingBlock: CIFDUS_clean_linker_0, # of connection points: 2
#     Edge 92, Type (0, 0), BuildingBlock: CIFDUS_clean_linker_0, # of connection points: 2
#     Edge 93, Type (0, 0), BuildingBlock: CIFDUS_clean_linker_0, # of connection points: 2
#     Edge 94, Type (0, 0), BuildingBlock: CIFDUS_clean_linker_0, # of connection points: 2
#     Edge 95, Type (0, 0), BuildingBlock: CIFDUS_clean_linker_0, # of connection points: 2
# Relax obj value: 0.435
# Max RMSD: 0.175
# Mean RMSD: 0.175
data_MOF--net-sxf--node1-IZENUY_clean_sbu_0--edge1-CIFDUS_clean_linker_0
_symmetry_space_group_name_H-M    P1
_symmetry_Int_Tables_number       1
_symmetry_cell_setting            triclinic
loop_
_symmetry_equiv_pos_as_xyz
'x, y, z'
_cell_length_a     40.324431
_cell_length_b     40.330102
_cell_length_c     40.401791
_cell_angle_alpha  90.129105
_cell_angle_beta   89.952959
_cell_angle_gamma 90.064018
loop_
_atom_site_label
_atom_site_type_symbol
_atom_site_fract_x
_atom_site_fract_y
_atom_site_fract_z
_atom_type_partial_charge
Fe0 Fe 0.03032 0.45504 0.24702 0.0
Fe1 Fe 0.0749 0.39781 0.22237 0.0
O2 O 0.04694 0.43066 0.21431 0.0
Fe3 Fe 0.03579 0.43946 0.17321 0.0
O4 O 0.03018 0.48363 0.18004 0.0
O5 O 0.04856 0.4931 0.23016 0.0
O6 O 0.06735 0.45153 0.27343 0.0
C7 C 0.09716 0.44475 0.26612 0.0
C8 C 0.97586 0.44726 0.20284 0.0
O9 O 0.10409 0.4262 0.24185 0.0
C10 C 0.03642 0.36996 0.17406 0.0
O11 O 0.01148 0.41867 0.26603 0.0
O12 O 0.05609 0.38732 0.26217 0.0
O13 O 0.99262 0.431 0.18203 0.0
O14 O 0.99019 0.46283 0.22618 0.0
C15 C 0.10201 0.42823 0.16576 0.0
O16 O 0.0473 0.36716 0.20323 0.0
O17 O 0.0392 0.3969 0.15854 0.0
C18 C 0.0278 0.3933 0.27443 0.0
O19 O 0.09884 0.40288 0.18393 0.0
O20 O 0.07846 0.4485 0.16247 0.0
C21 C 0.04399 0.50255 0.20073 0.0
Fe22 Fe 0.4767 0.53727 0.74868 0.0
Fe23 Fe 0.42574 0.58965 0.72733 0.0
O24 O 0.45427 0.55789 0.71728 0.0
Fe25 Fe 0.46054 0.54675 0.67568 0.0
O26 O 0.46947 0.50313 0.6845 0.0
O27 O 0.45834 0.49752 0.73744 0.0
O28 O 0.44377 0.54139 0.77985 0.0
C29 C 0.41284 0.54551 0.77636 0.0
C30 C 0.52416 0.54451 0.69727 0.0
O31 O 0.40123 0.56122 0.75202 0.0
C32 C 0.45648 0.61602 0.67356 0.0
O33 O 0.49589 0.57575 0.76161 0.0
O34 O 0.4493 0.60413 0.76377 0.0
O35 O 0.50378 0.55807 0.67797 0.0
O36 O 0.51397 0.52958 0.72298 0.0
C37 C 0.39352 0.55409 0.67567 0.0
O38 O 0.44916 0.6198 0.70359 0.0
O39 O 0.45281 0.58836 0.65931 0.0
C40 C 0.47978 0.60087 0.77105 0.0
O41 O 0.39708 0.58067 0.69231 0.0
O42 O 0.41766 0.53478 0.67134 0.0
C43 C 0.46057 0.48543 0.70874 0.0
Fe44 Fe 0.57462 0.07725 0.77817 0.0
Fe45 Fe 0.52933 0.03024 0.8166 0.0
O46 O 0.54451 0.04537 0.77869 0.0
Fe47 Fe 0.52997 0.02771 0.74121 0.0
O48 O 0.56856 0.03477 0.71801 0.0
O49 O 0.60376 0.05067 0.75631 0.0
O50 O 0.59514 0.0644 0.8165 0.0
C51 C 0.59534 0.03644 0.83063 0.0
C52 C 0.53105 0.09323 0.72549 0.0
O53 O 0.57035 0.01767 0.82943 0.0
C54 C 0.47232 0.02949 0.78158 0.0
O55 O 0.54757 0.10592 0.80038 0.0
O56 O 0.5324 0.06995 0.83836 0.0
O57 O 0.51328 0.06743 0.72803 0.0
O58 O 0.55904 0.09531 0.73968 0.0
C59 C 0.53924 0.97268 0.77915 0.0
O60 O 0.48764 0.04207 0.80565 0.0
O61 O 0.4883 0.01704 0.7575 0.0
C62 C 0.53363 0.09935 0.82759 0.0
O63 O 0.52337 0.98757 0.8017 0.0
O64 O 0.54705 0.98752 0.75282 0.0
C65 C 0.59793 0.03726 0.7287 0.0
Fe66 Fe 0.97918 0.97185 0.31361 0.0
Fe67 Fe 0.97595 0.97644 0.23882 0.0
O68 O 0.96485 0.95564 0.27583 0.0
Fe69 Fe 0.93966 0.91953 0.27504 0.0
O70 O 0.90862 0.93747 0.30264 0.0
O71 O 0.94401 0.95801 0.33835 0.0
O72 O 0.95676 0.00998 0.30675 0.0
C73 C 0.96235 0.02869 0.28249 0.0
C74 C 0.99003 0.90571 0.32281 0.0
O75 O 0.97841 0.0181 0.25771 0.0
C76 C 0.97752 0.90887 0.21972 0.0
O77 O 0.01758 0.98855 0.29624 0.0
O78 O 0.01986 0.96844 0.24574 0.0
O79 O 0.96194 0.89917 0.3098 0.0
O80 O 0.00191 0.9346 0.322 0.0
C81 C 0.90988 0.9645 0.22994 0.0
O82 O 0.97482 0.93928 0.21268 0.0
O83 O 0.96828 0.89819 0.2475 0.0
C84 C 0.03414 0.97831 0.27171 0.0
O85 O 0.93315 0.98533 0.23072 0.0
O86 O 0.91369 0.9349 0.24032 0.0
C87 C 0.91477 0.95043 0.33034 0.0
Fe88 Fe 0.23068 0.07978 0.4003 0.0
Fe89 Fe 0.17324 0.0485 0.43777 0.0
O90 O 0.21627 0.05491 0.43347 0.0
Fe91 Fe 0.24433 0.03675 0.46196 0.0
O92 O 0.26201 0.07698 0.47279 0.0
O93 O 0.26744 0.09522 0.42192 0.0
O94 O 0.20805 0.11602 0.41589 0.0
C95 C 0.17701 0.11555 0.42014 0.0
C96 C 0.27521 0.02866 0.399 0.0
O97 O 0.16136 0.08845 0.42023 0.0
C98 C 0.19923 0.98621 0.45585 0.0
O99 O 0.19685 0.06842 0.37181 0.0
O100 O 0.17137 0.0281 0.3978 0.0
O101 O 0.27649 0.02919 0.43044 0.0
O102 O 0.25384 0.04529 0.38332 0.0
C103 C 0.19093 0.05947 0.50196 0.0
O104 O 0.17645 0.00755 0.45628 0.0
O105 O 0.22926 0.99475 0.45382 0.0
C106 C 0.17927 0.04237 0.3712 0.0
O107 O 0.17321 0.06843 0.47788 0.0
O108 O 0.21634 0.04137 0.49783 0.0
C109 C 0.27505 0.09656 0.45221 0.0
Fe110 Fe 0.31751 0.97799 0.95645 0.0
Fe111 Fe 0.24324 0.9804 0.97007 0.0
O112 O 0.27689 0.9666 0.94549 0.0
Fe113 Fe 0.27036 0.94145 0.91011 0.0
O114 O 0.29556 0.90798 0.92712 0.0
O115 O 0.33712 0.94067 0.93966 0.0
O116 O 0.31379 0.95639 0.99526 0.0
C117 C 0.29257 0.96389 0.0169 0.0
C118 C 0.32 0.98709 0.88996 0.0
O119 O 0.26662 0.97986 0.00931 0.0
C120 C 0.21964 0.9859 0.90438 0.0
O121 O 0.30597 0.01762 0.97525 0.0
O122 O 0.2534 0.02387 0.9629 0.0
O123 O 0.3057 0.95916 0.8864 0.0
O124 O 0.32261 0.00011 0.91819 0.0
C125 C 0.22376 0.91669 0.95703 0.0
O126 O 0.21438 0.98332 0.9352 0.0
O127 O 0.24486 0.97301 0.89115 0.0
C128 C 0.28135 0.03608 0.96974 0.0
O129 O 0.23081 0.93809 0.97878 0.0
O130 O 0.23383 0.91993 0.92741 0.0
C131 C 0.32526 0.91193 0.93597 0.0
Fe132 Fe 0.73424 0.43205 0.5916 0.0
Fe133 Fe 0.68535 0.46486 0.54389 0.0
O134 O 0.72644 0.45716 0.55641 0.0
Fe135 Fe 0.75935 0.47483 0.53323 0.0
O136 O 0.78866 0.44141 0.54135 0.0
O137 O 0.75959 0.40351 0.56756 0.0
O138 O 0.69869 0.40368 0.58378 0.0
C139 C 0.68197 0.3987 0.55749 0.0
C140 C 0.78076 0.48526 0.59673 0.0
O141 O 0.67836 0.42132 0.53633 0.0
C142 C 0.71142 0.52601 0.53487 0.0
O143 O 0.70982 0.45869 0.61868 0.0
O144 O 0.66735 0.46247 0.58515 0.0
O145 O 0.77384 0.49764 0.56889 0.0
O146 O 0.77065 0.45653 0.60495 0.0
C147 C 0.71823 0.45607 0.48332 0.0
O148 O 0.69063 0.50887 0.55073 0.0
O149 O 0.73617 0.51225 0.52121 0.0
C150 C 0.68037 0.4672 0.61309 0.0
O151 O 0.69504 0.46875 0.50001 0.0
O152 O 0.74675 0.45259 0.49569 0.0
C153 C 0.78462 0.41185 0.55075 0.0
Fe154 Fe 0.77322 0.5768 0.09843 0.0
Fe155 Fe 0.82136 0.54097 0.052 0.0
O156 O 0.78045 0.55178 0.06289 0.0
Fe157 Fe 0.74705 0.53705 0.03817 0.0
O158 O 0.73374 0.57886 0.02899 0.0
O159 O 0.73721 0.59829 0.08016 0.0
O160 O 0.79869 0.61068 0.08253 0.0
C161 C 0.82826 0.60739 0.07292 0.0
C162 C 0.72217 0.53199 0.10351 0.0
O163 O 0.84038 0.57903 0.06766 0.0
C164 C 0.78597 0.48201 0.03976 0.0
O165 O 0.80829 0.55958 0.1226 0.0
O166 O 0.82727 0.51966 0.09066 0.0
O167 O 0.71766 0.53417 0.0726 0.0
O168 O 0.74727 0.5449 0.11705 0.0
C169 C 0.79679 0.55307 0.99098 0.0
O170 O 0.81051 0.50065 0.03422 0.0
O171 O 0.75778 0.49392 0.046 0.0
C172 C 0.82433 0.53272 0.11883 0.0
O173 O 0.81745 0.56169 0.01268 0.0
O174 O 0.77075 0.5373 0.99893 0.0
C175 C 0.72697 0.60061 0.0505 0.0
Fe176 Fe 0.40753 0.23362 0.07359 0.0
Fe177 Fe 0.44599 0.17642 0.04228 0.0
O178 O 0.43963 0.21938 0.04713 0.0
Fe179 Fe 0.46563 0.24774 0.02578 0.0
O180 O 0.46408 0.27965 0.05842 0.0
O181 O 0.43709 0.25578 0.09942 0.0
O182 O 0.41054 0.1987 0.10299 0.0
C183 C 0.43412 0.17865 0.10845 0.0
C184 C 0.40501 0.2778 0.019 0.0
O185 O 0.45462 0.17167 0.08594 0.0
C186 C 0.45502 0.1958 0.97863 0.0
O187 O 0.37577 0.21251 0.04941 0.0
O188 O 0.40238 0.16508 0.04773 0.0
O189 O 0.43037 0.26622 0.00457 0.0
O190 O 0.39858 0.27066 0.04886 0.0
C191 C 0.51124 0.20129 0.04466 0.0
O192 O 0.43776 0.17895 0.99847 0.0
O193 O 0.47165 0.22056 0.98901 0.0
C194 C 0.37637 0.18188 0.0433 0.0
O195 O 0.49077 0.17935 0.03571 0.0
O196 O 0.50283 0.23142 0.04601 0.0
C197 C 0.45674 0.27777 0.08888 0.0
Fe198 Fe 0.95843 0.25662 0.9639 0.0
Fe199 Fe 0.89545 0.2759 0.92535 0.0
O200 O 0.93048 0.28717 0.94934 0.0
Fe201 Fe 0.93756 0.32938 0.95836 0.0
O202 O 0.97692 0.32866 0.93692 0.0
O203 O 0.99552 0.28328 0.9607 0.0
O204 O 0.96704 0.24249 0.92204 0.0
C205 C 0.94522 0.23166 0.9024 0.0
C206 C 0.95562 0.29736 0.01791 0.0
O207 O 0.91505 0.2395 0.90614 0.0
C208 C 0.87095 0.32717 0.9669 0.0
O209 O 0.92603 0.22501 0.96961 0.0
O210 O 0.87901 0.2508 0.95887 0.0
O211 O 0.95708 0.32191 0.99857 0.0
O212 O 0.95196 0.26831 0.00696 0.0
C213 C 0.91656 0.33075 0.89201 0.0
O214 O 0.86901 0.31034 0.94038 0.0
O215 O 0.89866 0.33221 0.98032 0.0
C216 C 0.89471 0.22715 0.97211 0.0
O217 O 0.91051 0.30009 0.89027 0.0
O218 O 0.91929 0.34503 0.91976 0.0
C219 C 0.00039 0.30933 0.94386 0.0
Fe220 Fe 0.52293 0.75158 0.46653 0.0
Fe221 Fe 0.58618 0.72377 0.43369 0.0
O222 O 0.54771 0.71768 0.45408 0.0
Fe223 Fe 0.53359 0.67713 0.46173 0.0
O224 O 0.4981 0.68342 0.43532 0.0
O225 O 0.48298 0.72988 0.45941 0.0
O226 O 0.52016 0.76583 0.42466 0.0
C227 C 0.54438 0.77343 0.40652 0.0
C228 C 0.51383 0.71147 0.51928 0.0
O229 O 0.57307 0.76171 0.41183 0.0
C230 C 0.59823 0.67222 0.47951 0.0
O231 O 0.55839 0.77907 0.47532 0.0
O232 O 0.60231 0.74743 0.46818 0.0
O233 O 0.51002 0.68789 0.499 0.0
O234 O 0.52404 0.73933 0.50972 0.0
C235 C 0.56189 0.67124 0.3987 0.0
O236 O 0.6059 0.68702 0.45278 0.0
O237 O 0.56838 0.6696 0.48836 0.0
C238 C 0.58891 0.77307 0.48005 0.0
O239 O 0.57231 0.70064 0.39742 0.0
O240 O 0.55435 0.65825 0.42606 0.0
C241 C 0.4766 0.70542 0.44057 0.0
Fe242 Fe 0.04572 0.82236 0.53533 0.0
Fe243 Fe 0.04297 0.74748 0.52484 0.0
O244 O 0.0611 0.78254 0.54451 0.0
Fe245 Fe 0.09429 0.77783 0.57303 0.0
O246 O 0.08143 0.81264 0.60018 0.0
O247 O 0.03452 0.82936 0.57799 0.0
O248 O 0.00307 0.80857 0.52889 0.0
C249 C 0.98783 0.78344 0.53966 0.0
C250 C 0.11465 0.83292 0.53859 0.0
O251 O 0.00253 0.75605 0.54341 0.0
C252 C 0.10895 0.73254 0.52092 0.0
O253 O 0.05589 0.81757 0.49191 0.0
O254 O 0.03141 0.76938 0.48652 0.0
O255 O 0.12175 0.80432 0.54881 0.0
O256 O 0.08535 0.84374 0.54009 0.0
C257 C 0.05652 0.72377 0.58937 0.0
O258 O 0.08207 0.73696 0.50545 0.0
O259 O 0.11272 0.74269 0.55048 0.0
C260 C 0.04282 0.7957 0.47381 0.0
O261 O 0.05111 0.71887 0.55896 0.0
O262 O 0.06954 0.75051 0.59933 0.0
C263 C 0.05383 0.82765 0.60242 0.0
Fe264 Fe 0.93821 0.59653 0.77538 0.0
Fe265 Fe 0.97187 0.5442 0.81844 0.0
O266 O 0.9604 0.55884 0.77906 0.0
Fe267 Fe 0.9709 0.53569 0.74312 0.0
O268 O 0.9345 0.54903 0.71953 0.0
O269 O 0.90343 0.57476 0.75618 0.0
O270 O 0.91649 0.59295 0.81498 0.0
C271 C 0.91031 0.56809 0.83292 0.0
C272 C 0.98461 0.5993 0.72377 0.0
O273 O 0.92901 0.54306 0.83248 0.0
C274 C 0.02744 0.52796 0.78378 0.0
O275 O 0.97169 0.62016 0.79451 0.0
O276 O 0.97873 0.58542 0.83592 0.0
O277 O 0.99578 0.57014 0.72719 0.0
O278 O 0.95657 0.60723 0.73543 0.0
C279 C 0.95034 0.48661 0.78524 0.0
O280 O 0.01527 0.5446 0.80718 0.0
O281 O 0.00925 0.51778 0.76034 0.0
C282 C 0.98479 0.61277 0.82189 0.0
O283 O 0.96733 0.50029 0.80772 0.0
O284 O 0.94626 0.50033 0.75741 0.0
C285 C 0.90625 0.55766 0.73008 0.0
Fe286 Fe 0.53072 0.46337 0.24826 0.0
Fe287 Fe 0.57244 0.40861 0.28149 0.0
O288 O 0.54507 0.44293 0.28434 0.0
Fe289 Fe 0.53242 0.45753 0.32346 0.0
O290 O 0.5288 0.50096 0.31097 0.0
O291 O 0.55033 0.50221 0.26112 0.0
O292 O 0.56817 0.455 0.22391 0.0
C293 C 0.59755 0.44949 0.23336 0.0
C294 C 0.4742 0.46369 0.29075 0.0
O295 O 0.60306 0.43337 0.2595 0.0
C296 C 0.53098 0.38832 0.33106 0.0
O297 O 0.51108 0.42569 0.23323 0.0
O298 O 0.55384 0.39281 0.24302 0.0
O299 O 0.48942 0.4493 0.31385 0.0
O300 O 0.49018 0.47555 0.26635 0.0
C301 C 0.59835 0.44622 0.33465 0.0
O302 O 0.54363 0.38153 0.30335 0.0
O303 O 0.53359 0.41698 0.34341 0.0
C304 C 0.52578 0.39818 0.22985 0.0
O305 O 0.59559 0.41866 0.31968 0.0
O306 O 0.57476 0.4667 0.33487 0.0
C307 C 0.544 0.51623 0.28833 0.0
Fe308 Fe 0.4341 0.91173 0.2277 0.0
Fe309 Fe 0.47294 0.95744 0.18178 0.0
O310 O 0.46014 0.94671 0.22196 0.0
Fe311 Fe 0.47333 0.97083 0.25632 0.0
O312 O 0.43495 0.96433 0.27996 0.0
O313 O 0.40192 0.93772 0.24549 0.0
O314 O 0.41294 0.91556 0.18802 0.0
C315 C 0.40885 0.94047 0.16963 0.0
C316 C 0.47802 0.90859 0.2817 0.0
O317 O 0.43028 0.96327 0.16843 0.0
C318 C 0.53043 0.96798 0.2156 0.0
O319 O 0.46477 0.88346 0.20985 0.0
O320 O 0.47392 0.91492 0.1664 0.0
O321 O 0.49318 0.93508 0.27507 0.0
O322 O 0.4505 0.90173 0.26847 0.0
C323 C 0.46163 0.01996 0.21165 0.0
O324 O 0.516 0.95207 0.19289 0.0
O325 O 0.51395 0.98162 0.23857 0.0
C326 C 0.4772 0.88767 0.18141 0.0
O327 O 0.47489 0.00192 0.18978 0.0
O328 O 0.45456 0.00853 0.23984 0.0
C329 C 0.40611 0.95619 0.27042 0.0
Fe330 Fe 0.06385 0.08742 0.72178 0.0
Fe331 Fe 0.01961 0.03865 0.68387 0.0
O332 O 0.03609 0.05331 0.72146 0.0
Fe333 Fe 0.02501 0.03338 0.75884 0.0
O334 O 0.06417 0.04235 0.77962 0.0
O335 O 0.09626 0.0624 0.74056 0.0
O336 O 0.0826 0.0779 0.68145 0.0
C337 C 0.08347 0.05116 0.66502 0.0
C338 C 0.02275 0.09837 0.77776 0.0
O339 O 0.06065 0.02993 0.6676 0.0
C340 C 0.96504 0.03111 0.72199 0.0
O341 O 0.03351 0.11489 0.70284 0.0
O342 O 0.01853 0.07926 0.66437 0.0
O343 O 0.00655 0.07156 0.77479 0.0
O344 O 0.04967 0.10287 0.76211 0.0
C345 C 0.03472 0.98004 0.71814 0.0
O346 O 0.97756 0.0464 0.69785 0.0
O347 O 0.98356 0.02033 0.74485 0.0
C348 C 0.01855 0.10831 0.6762 0.0
O349 O 0.01784 0.99523 0.69667 0.0
O350 O 0.0435 0.99431 0.74464 0.0
C351 C 0.09271 0.04786 0.76793 0.0
Fe352 Fe 0.77249 0.91725 0.59512 0.0
Fe353 Fe 0.82642 0.95072 0.55419 0.0
O354 O 0.78412 0.942 0.56079 0.0
Fe355 Fe 0.75393 0.9582 0.53335 0.0
O356 O 0.72605 0.9223 0.53719 0.0
O357 O 0.75346 0.88666 0.56822 0.0
O358 O 0.8104 0.89146 0.5943 0.0
C359 C 0.83023 0.88557 0.57058 0.0
C360 C 0.72319 0.96696 0.59337 0.0
O361 O 0.83545 0.9071 0.54859 0.0
C362 C 0.7998 0.01129 0.54147 0.0
O363 O 0.79041 0.94683 0.62412 0.0
O364 O 0.83795 0.94955 0.598 0.0
O365 O 0.73307 0.97998 0.56676 0.0
O366 O 0.73293 0.93847 0.6021 0.0
C367 C 0.80234 0.94268 0.48887 0.0
O368 O 0.81925 0.99464 0.55935 0.0
O369 O 0.77684 0.99714 0.52517 0.0
C370 C 0.82023 0.95588 0.62297 0.0
O371 O 0.8232 0.95403 0.50925 0.0
O372 O 0.77268 0.93762 0.49752 0.0
C373 C 0.731 0.89298 0.54741 0.0
Fe374 Fe 0.75749 0.02234 0.03062 0.0
Fe375 Fe 0.72556 0.06391 0.0865 0.0
O376 O 0.72211 0.0356 0.05305 0.0
Fe377 Fe 0.68308 0.01987 0.04192 0.0
O378 O 0.69331 0.01443 0.99826 0.0
O379 O 0.74131 0.03937 0.99216 0.0
O380 O 0.78049 0.06137 0.03624 0.0
C381 C 0.77016 0.09032 0.04275 0.0
C382 C 0.71939 0.96373 0.037 0.0
O383 O 0.7446 0.09472 0.06011 0.0
C384 C 0.67954 0.02078 0.11082 0.0
O385 O 0.77501 0.00459 0.06737 0.0
O386 O 0.76596 0.04719 0.10048 0.0
O387 O 0.6961 0.97826 0.0519 0.0
O388 O 0.74099 0.9804 0.02129 0.0
C389 C 0.66818 0.08523 0.05115 0.0
O390 O 0.70686 0.03499 0.11552 0.0
O391 O 0.66524 0.02227 0.0832 0.0
C392 C 0.77908 0.01903 0.09473 0.0
O393 O 0.6854 0.08501 0.07764 0.0
O394 O 0.66861 0.06077 0.03161 0.0
C395 C 0.71412 0.02946 0.98035 0.0
Fe396 Fe 0.23927 0.52247 0.47123 0.0
Fe397 Fe 0.26872 0.56015 0.41142 0.0
O398 O 0.27391 0.53646 0.44797 0.0
Fe399 Fe 0.31418 0.52683 0.46178 0.0
O400 O 0.30355 0.52579 0.50573 0.0
O401 O 0.25295 0.54541 0.50804 0.0
O402 O 0.21297 0.55797 0.461 0.0
C403 C 0.22024 0.58669 0.45084 0.0
C404 C 0.28386 0.46806 0.47313 0.0
O405 O 0.24583 0.59195 0.4337 0.0
C406 C 0.32014 0.52018 0.3928 0.0
O407 O 0.22331 0.49921 0.43617 0.0
O408 O 0.2306 0.53851 0.39877 0.0
O409 O 0.30605 0.48307 0.45702 0.0
O410 O 0.25955 0.48388 0.48539 0.0
C411 C 0.32187 0.59169 0.4447 0.0
O412 O 0.29123 0.52996 0.38632 0.0
O413 O 0.33306 0.52582 0.42066 0.0
C414 C 0.21799 0.51109 0.40771 0.0
O415 O 0.30615 0.58573 0.41812 0.0
O416 O 0.3238 0.57023 0.46725 0.0
C417 C 0.28092 0.54075 0.52127 0.0
Fe418 Fe 0.22504 0.43061 0.91266 0.0
Fe419 Fe 0.18108 0.47667 0.95345 0.0
O420 O 0.22075 0.46146 0.9436 0.0
Fe421 Fe 0.25595 0.47734 0.96471 0.0
O422 O 0.27974 0.43831 0.96223 0.0
O423 O 0.24397 0.40228 0.94199 0.0
O424 O 0.18508 0.41028 0.92162 0.0
C425 C 0.16719 0.41096 0.94745 0.0
C426 C 0.27808 0.47448 0.90083 0.0
O427 O 0.1672 0.43593 0.96627 0.0
C428 C 0.2154 0.53443 0.95542 0.0
O429 O 0.2066 0.45712 0.88126 0.0
O430 O 0.16396 0.47134 0.91192 0.0
O431 O 0.27363 0.49219 0.92626 0.0
O432 O 0.26531 0.44589 0.89825 0.0
C433 C 0.21226 0.47257 0.01561 0.0
O434 O 0.19292 0.51807 0.94114 0.0
O435 O 0.23838 0.51952 0.97093 0.0
C436 C 0.17859 0.47051 0.88432 0.0
O437 O 0.19069 0.48509 0.9968 0.0
O438 O 0.24 0.46321 0.00455 0.0
C439 C 0.26995 0.40868 0.95821 0.0
Fe440 Fe 0.59157 0.76805 0.92702 0.0
Fe441 Fe 0.5586 0.82827 0.95802 0.0
O442 O 0.56012 0.78503 0.95256 0.0
Fe443 Fe 0.53033 0.75925 0.97206 0.0
O444 O 0.517 0.7427 0.93266 0.0
O445 O 0.56659 0.7326 0.91268 0.0
O446 O 0.5761 0.79055 0.89121 0.0
C447 C 0.57403 0.82169 0.89064 0.0
C448 C 0.59177 0.72466 0.9788 0.0
O449 O 0.57594 0.83833 0.91712 0.0
C450 C 0.54163 0.80433 0.02137 0.0
O451 O 0.62273 0.80045 0.93697 0.0
O452 O 0.59884 0.82801 0.97729 0.0
O453 O 0.56014 0.72481 0.97891 0.0
O454 O 0.6081 0.74478 0.96133 0.0
C455 C 0.49311 0.81415 0.94829 0.0
O456 O 0.54093 0.82678 -0.00036 0.0
O457 O 0.54118 0.77415 0.01327 0.0
C458 C 0.62472 0.81843 0.96273 0.0
O459 O 0.51834 0.83013 0.93907 0.0
O460 O 0.49578 0.78957 0.96788 0.0
C461 C 0.5354 0.72911 0.91144 0.0
Fe462 Fe 0.03796 0.75419 0.02873 0.0
Fe463 Fe 0.09157 0.7253 0.07474 0.0
O464 O 0.06126 0.71991 0.04325 0.0
Fe465 Fe 0.05406 0.68046 0.02593 0.0
O466 O 0.00969 0.68717 0.01916 0.0
O467 O 0.99888 0.73534 0.04242 0.0
O468 O 0.03914 0.77674 0.06809 0.0
C469 C 0.04333 0.76699 0.09753 0.0
C470 C 0.04808 0.71665 0.96993 0.0
O471 O 0.06072 0.74167 0.10349 0.0
C472 C 0.12373 0.68204 0.0331 0.0
O473 O 0.07568 0.7746 0.01442 0.0
O474 O 0.10344 0.76711 0.06087 0.0
O475 O 0.06467 0.69496 0.98491 0.0
O476 O 0.03212 0.73815 0.98634 0.0
C477 C 0.06205 0.66313 0.09062 0.0
O478 O 0.12486 0.70931 0.04848 0.0
O479 O 0.09682 0.66647 0.02949 0.0
C480 C 0.10017 0.78114 0.03295 0.0
O481 O 0.08521 0.68416 0.09357 0.0
O482 O 0.04321 0.66333 0.06575 0.0
C483 C 0.98944 0.70706 0.03253 0.0
Fe484 Fe 0.4645 0.31815 0.53677 0.0
Fe485 Fe 0.47422 0.24315 0.53446 0.0
O486 O 0.45127 0.27809 0.54809 0.0
Fe487 Fe 0.41544 0.27388 0.57345 0.0
O488 O 0.43408 0.29844 0.60652 0.0
O489 O 0.44813 0.33888 0.57347 0.0
O490 O 0.50276 0.31301 0.55911 0.0
C491 C 0.52329 0.29009 0.55388 0.0
C492 C 0.39816 0.32302 0.52676 0.0
O493 O 0.51518 0.26442 0.53731 0.0
C494 C 0.4062 0.2226 0.53018 0.0
O495 O 0.48375 0.30576 0.49785 0.0
O496 O 0.46939 0.25381 0.49089 0.0
O497 O 0.39392 0.31002 0.55511 0.0
O498 O 0.42668 0.32456 0.51401 0.0
C499 C 0.45892 0.22454 0.59794 0.0
O500 O 0.43713 0.21634 0.52996 0.0
O501 O 0.39479 0.24876 0.5429 0.0
C502 C 0.47819 0.28135 0.47917 0.0
O503 O 0.481 0.22982 0.57651 0.0
O504 O 0.43022 0.23688 0.5953 0.0
C505 C 0.44494 0.32735 0.60225 0.0
Fe506 Fe 0.89965 0.22605 0.42778 0.0
Fe507 Fe 0.94851 0.17284 0.44972 0.0
O508 O 0.93673 0.21472 0.44844 0.0
Fe509 Fe 0.96205 0.24488 0.46809 0.0
O510 O 0.96809 0.26609 0.42942 0.0
O511 O 0.91577 0.26653 0.41369 0.0
O512 O 0.91387 0.20916 0.38854 0.0
C513 C 0.92307 0.17955 0.38528 0.0
C514 C 0.89636 0.26551 0.48264 0.0
O515 O 0.92964 0.16191 0.41017 0.0
C516 C 0.96391 0.19523 0.51346 0.0
O517 O 0.87706 0.18747 0.43842 0.0
O518 O 0.91141 0.16221 0.47226 0.0
O519 O 0.92703 0.27202 0.47965 0.0
O520 O 0.88287 0.24332 0.46535 0.0
C521 C 0.00807 0.20176 0.43685 0.0
O522 O 0.96952 0.17572 0.48964 0.0
O523 O 0.95724 0.22526 0.50832 0.0
C524 C 0.88241 0.16727 0.46189 0.0
O525 O 0.98602 0.18182 0.42715 0.0
O526 O 0.00172 0.22295 0.45938 0.0
C527 C 0.94548 0.27653 0.4106 0.0
H528 H 0.09668 0.44632 0.33303 0.0
H529 H 0.15756 0.46897 0.24831 0.0
H530 H 0.2007 0.49157 0.28473 0.0
H531 H 0.22009 0.5066 0.34079 0.0
H532 H 0.16112 0.47942 0.42558 0.0
H533 H 0.11828 0.45663 0.38916 0.0
C534 C 0.11947 0.45616 0.32264 0.0
C535 C 0.12392 0.45643 0.28814 0.0
C536 C 0.14441 0.46823 0.34375 0.0
C537 C 0.1537 0.4686 0.27486 0.0
C538 C 0.17826 0.48158 0.29564 0.0
C539 C 0.1979 0.4955 0.3512 0.0
C540 C 0.19356 0.49489 0.38574 0.0
C541 C 0.17375 0.48178 0.33012 0.0
C542 C 0.165 0.48007 0.39906 0.0
C543 C 0.14045 0.46719 0.37825 0.0
H544 H 0.33526 0.5093 0.9066 0.0
H545 H 0.26854 0.46609 0.83516 0.0
H546 H 0.30345 0.48605 0.78984 0.0
H547 H 0.35357 0.51507 0.77061 0.0
H548 H 0.4231 0.55331 0.84213 0.0
H549 H 0.3866 0.53618 0.88744 0.0
C550 C 0.32845 0.50443 0.88107 0.0
C551 C 0.29951 0.48647 0.87402 0.0
C552 C 0.34913 0.51506 0.85526 0.0
C553 C 0.29093 0.47979 0.84099 0.0
C554 C 0.31077 0.49125 0.81513 0.0
C555 C 0.36049 0.51971 0.79616 0.0
C556 C 0.39062 0.53549 0.80328 0.0
C557 C 0.33998 0.50881 0.82198 0.0
C558 C 0.39989 0.54105 0.83631 0.0
C559 C 0.37907 0.53135 0.86213 0.0
H560 H 0.60247 0.0391 0.66181 0.0
H561 H 0.65502 0.00828 0.74939 0.0
H562 H 0.69865 0.98367 0.71505 0.0
H563 H 0.72052 0.96894 0.66003 0.0
H564 H 0.67032 0.00342 0.57249 0.0
H565 H 0.62703 0.02877 0.60682 0.0
C566 C 0.62362 0.02714 0.67329 0.0
C567 C 0.62554 0.02521 0.70799 0.0
C568 C 0.64884 0.01367 0.65342 0.0
C569 C 0.65318 0.01012 0.7227 0.0
C570 C 0.67798 0.99593 0.7031 0.0
C571 C 0.70009 0.9821 0.64857 0.0
C572 C 0.69823 0.98404 0.61389 0.0
C573 C 0.67586 0.99722 0.66845 0.0
C574 C 0.67212 0.00163 0.59918 0.0
C575 C 0.64738 0.01601 0.61878 0.0
H576 H 0.8779 0.93295 0.17994 0.0
H577 H 0.87576 0.02073 0.24083 0.0
H578 H 0.83318 0.04514 0.20544 0.0
H579 H 0.80088 0.04388 0.15391 0.0
H580 H 0.8056 0.95703 0.09133 0.0
H581 H 0.84269 0.93018 0.13031 0.0
C582 C 0.86731 0.95697 0.18585 0.0
C583 C 0.87952 0.97497 0.21291 0.0
C584 C 0.84384 0.97142 0.16463 0.0
C585 C 0.86637 0.00644 0.22009 0.0
C586 C 0.84228 0.0205 0.19975 0.0
C587 C 0.8099 0.01904 0.14889 0.0
C588 C 0.80083 0.00286 0.11944 0.0
C589 C 0.83158 0.00367 0.17134 0.0
C590 C 0.81255 0.97046 0.11352 0.0
C591 C 0.83369 0.95488 0.1359 0.0
H592 H 0.39863 0.19177 0.47071 0.0
H593 H 0.35938 0.1964 0.56978 0.0
H594 H 0.31603 0.15648 0.55526 0.0
H595 H 0.28767 0.12201 0.51359 0.0
H596 H 0.32448 0.12074 0.41329 0.0
H597 H 0.36999 0.15742 0.42886 0.0
C598 C 0.38074 0.18363 0.48905 0.0
C599 C 0.38212 0.19665 0.52121 0.0
C600 C 0.35519 0.1615 0.48021 0.0
C601 C 0.35862 0.18652 0.54482 0.0
C602 C 0.33384 0.16378 0.53654 0.0
C603 C 0.30575 0.12968 0.49523 0.0
C604 C 0.30257 0.11872 0.46237 0.0
C605 C 0.33159 0.1514 0.50418 0.0
C606 C 0.3261 0.12907 0.43875 0.0
C607 C 0.35228 0.14996 0.44763 0.0
H608 H 0.20682 0.89494 0.01839 0.0
H609 H 0.18779 0.87756 0.9147 0.0
H610 H 0.14711 0.83488 0.92885 0.0
H611 H 0.1164 0.80265 0.97093 0.0
H612 H 0.13767 0.81885 0.07438 0.0
H613 H 0.17771 0.86183 0.06007 0.0
C614 C 0.19381 0.88182 0.99885 0.0
C615 C 0.20031 0.8896 0.96554 0.0
C616 C 0.17065 0.85712 0.00714 0.0
C617 C 0.18341 0.87205 0.94056 0.0
C618 C 0.16 0.84771 0.94864 0.0
C619 C 0.1297 0.81575 0.99029 0.0
C620 C 0.12389 0.80765 0.02367 0.0
C621 C 0.15328 0.84012 0.98186 0.0
C622 C 0.14168 0.82451 0.04848 0.0
C623 C 0.1646 0.84914 0.04034 0.0
H624 H 0.90684 0.32988 0.49932 0.0
H625 H 0.83641 0.24992 0.50921 0.0
H626 H 0.79629 0.28768 0.53434 0.0
H627 H 0.77924 0.34456 0.54833 0.0
H628 H 0.84886 0.42484 0.53515 0.0
H629 H 0.89116 0.38591 0.51672 0.0
C630 C 0.88296 0.32063 0.50756 0.0
C631 C 0.8745 0.2873 0.50225 0.0
C632 C 0.85965 0.34265 0.52106 0.0
C633 C 0.84336 0.27564 0.51281 0.0
C634 C 0.82038 0.2972 0.52712 0.0
C635 C 0.80381 0.35341 0.54185 0.0
C636 C 0.81076 0.38751 0.54278 0.0
C637 C 0.82791 0.33095 0.53054 0.0
C638 C 0.8427 0.3987 0.53422 0.0
C639 C 0.86699 0.37647 0.52373 0.0
H640 H 0.66555 0.59469 0.02417 0.0
H641 H 0.73717 0.66672 0.05746 0.0
H642 H 0.70072 0.7119 0.03952 0.0
H643 H 0.64978 0.73058 0.01153 0.0
H644 H 0.57606 0.65887 0.98222 0.0
H645 H 0.61164 0.61375 0.00192 0.0
C646 C 0.67297 0.62033 0.02756 0.0
C647 C 0.70406 0.6276 0.04158 0.0
C648 C 0.65147 0.64607 0.01808 0.0
C649 C 0.71335 0.66075 0.04655 0.0
C650 C 0.69256 0.68648 0.03629 0.0
C651 C 0.64138 0.70506 0.00992 0.0
C652 C 0.61049 0.69793 0.99533 0.0
C653 C 0.66175 0.67942 0.02167 0.0
C654 C 0.59965 0.6649 0.99357 0.0
C655 C 0.6201 0.63913 0.00457 0.0
H656 H 0.47448 0.27148 0.1534 0.0
H657 H 0.46468 0.34317 0.07503 0.0
H658 H 0.48287 0.3874 0.11238 0.0
H659 H 0.5027 0.40563 0.16727 0.0
H660 H 0.51819 0.33306 0.24377 0.0
H661 H 0.49656 0.2893 0.20754 0.0
C662 C 0.47628 0.29683 0.14464 0.0
C663 C 0.46817 0.30414 0.11163 0.0
C664 C 0.48772 0.32197 0.16598 0.0
C665 C 0.47098 0.33696 0.10034 0.0
C666 C 0.48125 0.36227 0.1217 0.0
C667 C 0.50102 0.38025 0.17595 0.0
C668 C 0.51157 0.37246 0.20811 0.0
C669 C 0.48979 0.35507 0.15454 0.0
C670 C 0.51004 0.33947 0.21905 0.0
C671 C 0.49772 0.31451 0.19837 0.0
H672 H 0.00698 0.21401 0.8818 0.0
H673 H 0.90336 0.19122 0.86752 0.0
H674 H 0.91795 0.14695 0.8289 0.0
H675 H 0.9604 0.11434 0.79898 0.0
H676 H 0.06368 0.13918 0.81198 0.0
H677 H 0.04898 0.18256 0.85134 0.0
C678 C 0.98757 0.19941 0.87022 0.0
C679 C 0.95417 0.20597 0.87765 0.0
C680 C 0.99607 0.1741 0.84785 0.0
C681 C 0.92932 0.18688 0.86219 0.0
C682 C 0.93762 0.1614 0.84017 0.0
C683 C 0.9796 0.12914 0.81066 0.0
C684 C 0.01303 0.12349 0.80264 0.0
C685 C 0.97094 0.15467 0.83288 0.0
C686 C 0.03771 0.14312 0.81761 0.0
C687 C 0.02936 0.16796 0.84015 0.0
H688 H 0.53793 0.87928 0.29125 0.0
H689 H 0.44058 0.89208 0.33369 0.0
H690 H 0.45333 0.85193 0.37677 0.0
H691 H 0.48995 0.81101 0.39969 0.0
H692 H 0.58723 0.7951 0.35786 0.0
H693 H 0.57669 0.83868 0.31683 0.0
C694 C 0.51995 0.87354 0.3104 0.0
C695 C 0.48846 0.88832 0.30966 0.0
C696 C 0.52716 0.84967 0.33462 0.0
C697 C 0.46493 0.88073 0.33404 0.0
C698 C 0.47215 0.85777 0.35849 0.0
C699 C 0.50901 0.81687 0.38165 0.0
C700 C 0.53918 0.79955 0.38156 0.0
C701 C 0.50282 0.8416 0.3585 0.0
C702 C 0.56366 0.80795 0.35825 0.0
C703 C 0.55768 0.83287 0.33489 0.0
H704 H 0.03842 0.72814 0.65426 0.0
H705 H 0.05819 0.65773 0.57625 0.0
H706 H 0.04143 0.6121 0.61216 0.0
H707 H 0.01644 0.5924 0.66439 0.0
H708 H 0.99226 0.66349 0.74042 0.0
H709 H 0.01564 0.70826 0.70716 0.0
C710 C 0.03949 0.70276 0.64537 0.0
C711 C 0.04939 0.69637 0.61267 0.0
C712 C 0.02883 0.67662 0.66585 0.0
C713 C 0.05035 0.66335 0.6013 0.0
C714 C 0.0408 0.63719 0.62182 0.0
C715 C 0.01691 0.61762 0.67378 0.0
C716 C 0.00275 0.62471 0.70472 0.0
C717 C 0.02932 0.64353 0.65395 0.0
C718 C 0.00298 0.65754 0.71653 0.0
C719 C 0.01628 0.68316 0.69753 0.0
H720 H 0.90074 0.55899 0.66385 0.0
H721 H 0.8469 0.53397 0.75248 0.0
H722 H 0.80259 0.50889 0.71901 0.0
H723 H 0.78138 0.49065 0.66411 0.0
H724 H 0.83456 0.51935 0.576 0.0
H725 H 0.877 0.54634 0.60958 0.0
C726 C 0.87901 0.5485 0.67576 0.0
C727 C 0.87695 0.54816 0.71044 0.0
C728 C 0.85379 0.53444 0.65644 0.0
C729 C 0.84872 0.53473 0.72574 0.0
C730 C 0.82362 0.52013 0.70663 0.0
C731 C 0.80224 0.50296 0.65242 0.0
C732 C 0.80511 0.50275 0.61771 0.0
C733 C 0.82624 0.51922 0.67193 0.0
C734 C 0.83188 0.5192 0.60269 0.0
C735 C 0.85617 0.5346 0.62185 0.0
H736 H 0.59474 0.47102 0.17005 0.0
H737 H 0.66298 0.45604 0.25085 0.0
H738 H 0.7078 0.48058 0.21803 0.0
H739 H 0.72711 0.50782 0.1666 0.0
H740 H 0.65806 0.52113 0.08605 0.0
H741 H 0.61412 0.49588 0.11868 0.0
C742 C 0.61944 0.47297 0.18052 0.0
C743 C 0.62545 0.46178 0.21289 0.0
C744 C 0.64495 0.48703 0.16161 0.0
C745 C 0.6577 0.4643 0.22591 0.0
C746 C 0.68329 0.4785 0.20723 0.0
C747 C 0.70242 0.50525 0.15628 0.0
C748 C 0.69591 0.51653 0.12398 0.0
C749 C 0.67713 0.49025 0.17511 0.0
C750 C 0.66386 0.51264 0.1108 0.0
C751 C 0.63863 0.49822 0.12945 0.0
H752 H 0.40539 0.97021 0.33584 0.0
H753 H 0.34233 0.96518 0.24977 0.0
H754 H 0.29559 0.98619 0.28238 0.0
H755 H 0.27364 0.00852 0.33478 0.0
H756 H 0.33667 0.01154 0.42108 0.0
H757 H 0.38244 0.98849 0.38895 0.0
C758 C 0.38138 0.97365 0.32424 0.0
C759 C 0.37731 0.96655 0.29042 0.0
C760 C 0.35469 0.98536 0.34316 0.0
C761 C 0.34598 0.97052 0.27581 0.0
C762 C 0.31934 0.98261 0.2944 0.0
C763 C 0.29736 0.00398 0.34656 0.0
C764 C 0.30185 0.01202 0.38017 0.0
C765 C 0.32354 0.9905 0.32799 0.0
C766 C 0.33255 0.00555 0.39525 0.0
C767 C 0.35879 0.99251 0.37687 0.0
H768 H 0.22323 0.99948 0.83831 0.0
H769 H 0.15826 0.00651 0.92322 0.0
H770 H 0.11428 0.02823 0.88841 0.0
H771 H 0.09319 0.04221 0.83404 0.0
H772 H 0.15679 0.03579 0.74835 0.0
H773 H 0.20273 0.01716 0.78353 0.0
C774 C 0.19948 0.00586 0.84919 0.0
C775 C 0.19393 0.00095 0.88326 0.0
C776 C 0.17414 0.0184 0.829 0.0
C777 C 0.16318 0.00979 0.89707 0.0
C778 C 0.13796 0.02222 0.8772 0.0
C779 C 0.11713 0.03682 0.82299 0.0
C780 C 0.12159 0.03989 0.78867 0.0
C781 C 0.14304 0.0261 0.84316 0.0
C782 C 0.15287 0.03352 0.77478 0.0
C783 C 0.179 0.02274 0.79483 0.0
H784 H 0.66714 0.89971 0.52791 0.0
H785 H 0.74324 0.82653 0.54457 0.0
H786 H 0.70543 0.78259 0.52645 0.0
H787 H 0.65136 0.76538 0.50415 0.0
H788 H 0.57474 0.83859 0.48951 0.0
H789 H 0.61206 0.88208 0.50903 0.0
C790 C 0.67546 0.87414 0.5275 0.0
C791 C 0.70801 0.86636 0.53718 0.0
C792 C 0.65347 0.84904 0.51761 0.0
C793 C 0.71829 0.83309 0.53715 0.0
C794 C 0.69671 0.808 0.52678 0.0
C795 C 0.64276 0.79083 0.50542 0.0
C796 C 0.61038 0.79873 0.49514 0.0
C797 C 0.66432 0.81573 0.51675 0.0
C798 C 0.5995 0.83177 0.49731 0.0
C799 C 0.62089 0.85672 0.50829 0.0
H800 H 0.83021 0.22598 0.99257 0.0
H801 H 0.91766 0.16483 0.98413 0.0
H802 H 0.88694 0.11729 0.00511 0.0
H803 H 0.835 0.09249 0.02461 0.0
H804 H 0.74792 0.15369 0.03523 0.0
H805 H 0.77871 0.20166 0.01469 0.0
C806 C 0.84254 0.20227 0.99541 0.0
C807 C 0.87614 0.19901 0.98662 0.0
C808 C 0.82479 0.17495 0.0078 0.0
C809 C 0.89184 0.16815 0.99077 0.0
C810 C 0.87427 0.14085 0.00266 0.0
C811 C 0.82276 0.11633 0.02243 0.0
C812 C 0.7892 0.11948 0.03127 0.0
C813 C 0.8407 0.14389 0.01103 0.0
C814 C 0.77379 0.15063 0.02867 0.0
C815 C 0.79135 0.17806 0.01685 0.0
H816 H 0.09941 0.68019 0.4801 0.0
H817 H 0.17574 0.73621 0.52983 0.0
H818 H 0.21797 0.69775 0.50915 0.0
H819 H 0.23252 0.64571 0.4802 0.0
H820 H 0.15501 0.58681 0.43612 0.0
H821 H 0.11385 0.62889 0.45089 0.0
C822 C 0.12536 0.68421 0.48598 0.0
C823 C 0.13458 0.71097 0.50628 0.0
C824 C 0.14921 0.66137 0.47507 0.0
C825 C 0.16816 0.71565 0.51426 0.0
C826 C 0.19226 0.69371 0.50246 0.0
C827 C 0.20667 0.64254 0.47346 0.0
C828 C 0.19659 0.61362 0.45694 0.0
C829 C 0.18301 0.66616 0.48331 0.0
C830 C 0.16308 0.60911 0.4488 0.0
C831 C 0.13963 0.63306 0.45728 0.0
H832 H 0.33844 0.28405 0.02296 0.0
H833 H 0.42502 0.32815 0.97847 0.0
H834 H 0.39094 0.37323 0.95624 0.0
H835 H 0.33652 0.40122 0.95137 0.0
H836 H 0.24941 0.35416 0.9916 0.0
H837 H 0.28353 0.3091 0.0137 0.0
C838 C 0.34974 0.30344 0.00816 0.0
C839 C 0.38416 0.30299 0.0025 0.0
C840 C 0.3299 0.3288 0.99495 0.0
C841 C 0.39854 0.32795 0.983 0.0
C842 C 0.37909 0.3538 0.97048 0.0
C843 C 0.32513 0.38103 0.96497 0.0
C844 C 0.29065 0.38107 0.97031 0.0
C845 C 0.3448 0.3547 0.97664 0.0
C846 C 0.27595 0.35457 0.98735 0.0
C847 C 0.29544 0.32888 -2e-05 0.0
H848 H 0.44913 0.64546 0.81122 0.0
H849 H 0.54584 0.60857 0.78391 0.0
H850 H 0.5717 0.64539 0.82448 0.0
H851 H 0.56675 0.68714 0.86863 0.0
H852 H 0.46971 0.72266 0.89678 0.0
H853 H 0.4442 0.68723 0.85501 0.0
C854 C 0.47589 0.64562 0.81395 0.0
C855 C 0.4955 0.62429 0.79455 0.0
C856 C 0.49057 0.66647 0.83763 0.0
C857 C 0.53013 0.62465 0.79863 0.0
C858 C 0.54496 0.6457 0.82182 0.0
C859 C 0.54003 0.68718 0.8656 0.0
C860 C 0.52023 0.70746 0.88595 0.0
C861 C 0.52541 0.66654 0.84164 0.0
C862 C 0.4856 0.70714 0.88166 0.0
C863 C 0.47094 0.68695 0.8577 0.0
H864 H 0.99808 0.8444 0.22682 0.0
H865 H 0.98211 0.92082 0.15377 0.0
H866 H 0.00018 0.88341 0.11015 0.0
H867 H 0.02079 0.82978 0.09243 0.0
H868 H 0.03923 0.75288 0.16418 0.0
H869 H 0.01987 0.78972 0.20859 0.0
C870 C 0.99849 0.85278 0.20134 0.0
C871 C 0.98868 0.88543 0.19367 0.0
C872 C 0.00934 0.83112 0.17613 0.0
C873 C 0.98961 0.89595 0.16052 0.0
C874 C 0.99989 0.87454 0.13546 0.0
C875 C 0.0205 0.82084 0.11774 0.0
C876 C 0.03135 0.7885 0.1249 0.0
C877 C 0.00983 0.84217 0.14297 0.0
C878 C 0.03104 0.77766 0.15795 0.0
C879 C 0.01995 0.79872 0.18333 0.0
H880 H 0.46915 0.11105 0.70481 0.0
H881 H 0.57307 0.13448 0.69344 0.0
H882 H 0.55965 0.17787 0.65406 0.0
H883 H 0.51897 0.20834 0.62186 0.0
H884 H 0.41473 0.18717 0.63345 0.0
H885 H 0.42764 0.14407 0.67406 0.0
C886 C 0.48874 0.12567 0.69361 0.0
C887 C 0.52199 0.11947 0.70188 0.0
C888 C 0.48085 0.15107 0.6712 0.0
C889 C 0.54722 0.13883 0.68758 0.0
C890 C 0.53963 0.16364 0.665 0.0
C891 C 0.49905 0.19436 0.63335 0.0
C892 C 0.46604 0.20068 0.62456 0.0
C893 C 0.50661 0.16986 0.65655 0.0
C894 C 0.44041 0.18276 0.63995 0.0
C895 C 0.44777 0.15801 0.66299 0.0
H896 H 0.00704 0.29477 0.39237 0.0
H897 H 0.90389 0.3135 0.37108 0.0
H898 H 0.92001 0.35292 0.32777 0.0
H899 H 0.96409 0.38077 0.29479 0.0
H900 H 0.06664 0.35886 0.31637 0.0
H901 H 0.04995 0.32213 0.36087 0.0
C902 C 0.98793 0.3076 0.37851 0.0
C903 C 0.95431 0.30127 0.38507 0.0
C904 C 0.99731 0.32965 0.35359 0.0
C905 C 0.93 0.31793 0.36653 0.0
C906 C 0.9392 0.34046 0.34178 0.0
C907 C 0.98265 0.36808 0.30945 0.0
C908 C 0.01651 0.37239 0.30217 0.0
C909 C 0.97286 0.34636 0.33492 0.0
C910 C 0.04039 0.35569 0.32119 0.0
C911 C 0.03092 0.33473 0.34674 0.0
H912 H 0.20934 0.41795 0.05406 0.0
H913 H 0.19407 0.52366 0.05427 0.0
H914 H 0.16093 0.51957 0.10468 0.0
H915 H 0.12811 0.48491 0.14195 0.0
H916 H 0.14124 0.37881 0.1411 0.0
H917 H 0.18353 0.3839 0.09793 0.0
C918 C 0.19997 0.44011 0.06614 0.0
C919 C 0.20408 0.47103 0.05087 0.0
C920 C 0.17979 0.43736 0.09439 0.0
C921 C 0.19129 0.49966 0.06601 0.0
C922 C 0.17203 0.49728 0.09453 0.0
C923 C 0.14066 0.46298 0.13266 0.0
C924 C 0.13119 0.43154 0.14405 0.0
C925 C 0.16472 0.46609 0.10785 0.0
C926 C 0.148 0.4033 0.13242 0.0
C927 C 0.17211 0.40618 0.10771 0.0
H928 H 0.29628 0.4985 0.56968 0.0
H929 H 0.28386 0.60236 0.54911 0.0
H930 H 0.31411 0.61661 0.59996 0.0
H931 H 0.35309 0.59881 0.64424 0.0
H932 H 0.36711 0.49427 0.66173 0.0
H933 H 0.32687 0.48092 0.61876 0.0
C934 C 0.29906 0.52423 0.57715 0.0
C935 C 0.2877 0.54937 0.55606 0.0
C936 C 0.31735 0.53205 0.60565 0.0
C937 C 0.29187 0.58264 0.56542 0.0
C938 C 0.30961 0.59074 0.59423 0.0
C939 C 0.34644 0.5732 0.63932 0.0
C940 C 0.3633 0.54753 0.65588 0.0
C941 C 0.32379 0.56561 0.61374 0.0
C942 C 0.3547 0.51443 0.64909 0.0
C943 C 0.33176 0.50675 0.62445 0.0
H944 H 0.6452 0.07653 0.85243 0.0
H945 H 0.60799 0.97616 0.85786 0.0
H946 H 0.64868 0.9631 0.90029 0.0
H947 H 0.68734 0.98277 0.94214 0.0
H948 H 0.72136 0.08405 0.94104 0.0
H949 H 0.6903 0.09405 0.88977 0.0
C950 C 0.64638 0.05166 0.8625 0.0
C951 C 0.6231 0.02755 0.85258 0.0
C952 C 0.66927 0.04455 0.88762 0.0
C953 C 0.62519 0.99532 0.86553 0.0
C954 C 0.64849 0.9878 0.88975 0.0
C955 C 0.68868 0.00676 0.93004 0.0
C956 C 0.70607 0.03281 0.9452 0.0
C957 C 0.66959 0.01259 0.90189 0.0
C958 C 0.70814 0.06369 0.9295 0.0
C959 C 0.69001 0.06947 0.90055 0.0
H960 H 0.83467 0.99012 0.45635 0.0
H961 H 0.79358 0.89237 0.44346 0.0
H962 H 0.82176 0.88738 0.38955 0.0
H963 H 0.86472 0.90846 0.35009 0.0
H964 H 0.90673 0.00553 0.3665 0.0
H965 H 0.8713 0.01346 0.4147 0.0
C966 C 0.83139 0.96795 0.4414 0.0
C967 C 0.81245 0.94152 0.45378 0.0
C968 C 0.8481 0.96513 0.41116 0.0
C969 C 0.80801 0.91305 0.43423 0.0
C970 C 0.82436 0.91015 0.4036 0.0
C971 C 0.86538 0.93157 0.36384 0.0
C972 C 0.88843 0.95632 0.35503 0.0
C973 C 0.84542 0.93563 0.39233 0.0
C974 C 0.88937 0.98608 0.37309 0.0
C975 C 0.86919 0.99062 0.40066 0.0
H976 H 0.13337 0.13643 0.3752 0.0
H977 H 0.17361 0.15959 0.47107 0.0
H978 H 0.12532 0.19447 0.48347 0.0
H979 H 0.06658 0.20836 0.471 0.0
H980 H 0.02603 0.18102 0.37598 0.0
H981 H 0.07936 0.1584 0.359 0.0
C982 C 0.13221 0.15046 0.39814 0.0
C983 C 0.15701 0.14595 0.42202 0.0
C984 C 0.10379 0.16909 0.40553 0.0
C985 C 0.15507 0.16341 0.45205 0.0
C986 C 0.12716 0.18285 0.45933 0.0
C987 C 0.06982 0.19838 0.44626 0.0
C988 C 0.04229 0.19588 0.42495 0.0
C989 C 0.10055 0.18445 0.43691 0.0
C990 C 0.04674 0.18277 0.39298 0.0
C991 C 0.07723 0.16979 0.38324 0.0
H992 H 0.37578 0.90033 0.89493 0.0
H993 H 0.32735 0.86266 0.98199 0.0
H994 H 0.37426 0.82513 0.99222 0.0
H995 H 0.43265 0.80892 0.97998 0.0
H996 H 0.48024 0.84938 0.89322 0.0
H997 H 0.43012 0.87921 0.87889 0.0
C998 C 0.37516 0.8831 0.91553 0.0
C999 C 0.34831 0.8838 0.9375 0.0
C1000 C 0.40233 0.86233 0.92149 0.0
C1001 C 0.3477 0.86193 0.96446 0.0
C1002 C 0.37465 0.8408 0.97048 0.0
C1003 C 0.43171 0.82371 0.95762 0.0
C1004 C 0.46037 0.82723 0.93796 0.0
C1005 C 0.40267 0.84158 0.94973 0.0
C1006 C 0.45876 0.84652 0.90904 0.0
C1007 C 0.43006 0.86369 0.90077 0.0
H1008 H 0.57357 0.29838 0.51053 0.0
H1009 H 0.54942 0.30195 0.61425 0.0
H1010 H 0.60115 0.33154 0.62592 0.0
H1011 H 0.64776 0.36516 0.60502 0.0
H1012 H 0.66834 0.36637 0.50033 0.0
H1013 H 0.62427 0.32593 0.49057 0.0
C1014 C 0.58045 0.30446 0.53579 0.0
C1015 C 0.55814 0.29773 0.56159 0.0
C1016 C 0.60943 0.32296 0.542 0.0
C1017 C 0.56659 0.3066 0.59414 0.0
C1018 C 0.59598 0.3238 0.60073 0.0
C1019 C 0.64325 0.35569 0.58028 0.0
C1020 C 0.66115 0.36875 0.55343 0.0
C1021 C 0.61686 0.33344 0.57467 0.0
C1022 C 0.65474 0.35672 0.52136 0.0
C1023 C 0.62945 0.3337 0.51575 0.0
H1024 H 0.85982 0.62466 0.01755 0.0
H1025 H 0.84744 0.65305 0.11953 0.0
H1026 H 0.89449 0.69168 0.11492 0.0
H1027 H 0.94454 0.71044 0.08359 0.0
H1028 H 0.95597 0.67991 0.98185 0.0
H1029 H 0.90363 0.64981 0.98424 0.0
C1030 C 0.8669 0.64007 0.03846 0.0
C1031 C 0.85042 0.63619 0.06878 0.0
C1032 C 0.89401 0.66168 0.03564 0.0
C1033 C 0.85971 0.65599 0.09585 0.0
C1034 C 0.88677 0.67781 0.09325 0.0
C1035 C 0.93489 0.6981 0.06175 0.0
C1036 C 0.95412 0.69719 0.03264 0.0
C1037 C 0.9049 0.67999 0.06354 0.0
C1038 C 0.94165 0.68077 0.00456 0.0
C1039 C 0.91181 0.66341 0.00594 0.0
H1040 H 0.40806 0.0602 0.20426 0.0
H1041 H 0.51485 0.0585 0.20226 0.0
H1042 H 0.51598 0.1119 0.17405 0.0
H1043 H 0.48655 0.15303 0.14078 0.0
H1044 H 0.3797 0.15479 0.14089 0.0
H1045 H 0.37844 0.10798 0.17936 0.0
C1046 C 0.43145 0.07234 0.19883 0.0
C1047 C 0.46134 0.05577 0.20529 0.0
C1048 C 0.43186 0.10272 0.18166 0.0
C1049 C 0.49162 0.07115 0.19763 0.0
C1050 C 0.49226 0.10148 0.18123 0.0
C1051 C 0.46304 0.1437 0.15 0.0
C1052 C 0.43331 0.15693 0.13778 0.0
C1053 C 0.46254 0.11661 0.17168 0.0
C1054 C 0.40294 0.14496 0.15003 0.0
C1055 C 0.40221 0.11801 0.17181 0.0
H1056 H 0.97831 0.4257 0.7872 0.0
H1057 H 0.88735 0.47843 0.80549 0.0
H1058 H 0.86616 0.43181 0.83797 0.0
H1059 H 0.87795 0.38038 0.86896 0.0
H1060 H 0.9683 0.3269 0.84974 0.0
H1061 H 0.98529 0.36899 0.80944 0.0
C1062 C 0.95328 0.4262 0.79707 0.0
C1063 C 0.93412 0.45507 0.79367 0.0
C1064 C 0.94147 0.39938 0.81599 0.0
C1065 C 0.90212 0.45607 0.80727 0.0
C1066 C 0.89022 0.4296 0.8262 0.0
C1067 C 0.90076 0.37747 0.85499 0.0
C1068 C 0.92185 0.3507 0.86199 0.0
C1069 C 0.91025 0.40174 0.83186 0.0
C1070 C 0.95157 0.34717 0.84426 0.0
C1071 C 0.96138 0.37137 0.82148 0.0
H1072 H 0.5034 0.56678 0.30248 0.0
H1073 H 0.60643 0.54113 0.29212 0.0
H1074 H 0.62251 0.59159 0.32217 0.0
H1075 H 0.606 0.6371 0.36046 0.0
H1076 H 0.50249 0.66088 0.37128 0.0
H1077 H 0.48763 0.61768 0.3316 0.0
C1078 C 0.52939 0.57309 0.30564 0.0
C1079 C 0.55376 0.55069 0.29505 0.0
C1080 C 0.53823 0.60161 0.32349 0.0
C1081 C 0.58736 0.55851 0.29962 0.0
C1082 C 0.59648 0.58709 0.31721 0.0
C1083 C 0.5804 0.63349 0.35305 0.0
C1084 C 0.55526 0.652 0.36852 0.0
C1085 C 0.57203 0.60803 0.33057 0.0
C1086 C 0.5221 0.64691 0.35942 0.0
C1087 C 0.51361 0.6221 0.33691 0.0
H1088 H 0.99292 0.93264 0.69805 0.0
H1089 H 0.09593 0.95106 0.71907 0.0
H1090 H 0.11149 0.90087 0.68822 0.0
H1091 H 0.09589 0.85809 0.64655 0.0
H1092 H 0.99232 0.84274 0.62422 0.0
H1093 H 0.97682 0.88491 0.66451 0.0
C1094 C 0.01868 0.9249 0.69688 0.0
C1095 C 0.04327 0.94529 0.71073 0.0
C1096 C 0.02734 0.89687 0.67824 0.0
C1097 C 0.07658 0.93537 0.70896 0.0
C1098 C 0.08546 0.90697 0.69088 0.0
C1099 C 0.06994 0.86338 0.65124 0.0
C1100 C 0.04531 0.84772 0.63199 0.0
C1101 C 0.06113 0.88841 0.67408 0.0
C1102 C 0.01177 0.85483 0.6383 0.0
C1103 C 0.00285 0.87896 0.66135 0.0
H1104 H 0.86741 0.52158 0.85657 0.0
H1105 H 0.899 0.62303 0.86939 0.0
H1106 H 0.86338 0.62868 0.91788 0.0
H1107 H 0.82764 0.60312 0.95974 0.0
H1108 H 0.79329 0.50282 0.9461 0.0
H1109 H 0.82482 0.49852 0.8944 0.0
C1110 C 0.86605 0.54496 0.86983 0.0
C1111 C 0.88591 0.57173 0.85978 0.0
C1112 C 0.84493 0.54829 0.89736 0.0
C1113 C 0.88381 0.6021 0.87674 0.0
C1114 C 0.86354 0.60536 0.90449 0.0
C1115 C 0.8264 0.58069 0.94489 0.0
C1116 C 0.80831 0.55337 0.95647 0.0
C1117 C 0.84453 0.57844 0.91539 0.0
C1118 C 0.80679 0.52431 0.93729 0.0
C1119 C 0.82513 0.52171 0.908 0.0
H1120 H 0.64264 0.4024 0.3617 0.0
H1121 H 0.62008 0.50675 0.35399 0.0
H1122 H 0.66264 0.51963 0.39469 0.0
H1123 H 0.69876 0.50071 0.43913 0.0
H1124 H 0.71877 0.39665 0.451 0.0
H1125 H 0.6858 0.38412 0.40142 0.0
C1126 C 0.64756 0.42797 0.36847 0.0
C1127 C 0.62771 0.45351 0.35539 0.0
C1128 C 0.67173 0.43522 0.39262 0.0
C1129 C 0.63449 0.48656 0.36424 0.0
C1130 C 0.65893 0.494 0.38743 0.0
C1131 C 0.69702 0.47544 0.42991 0.0
C1132 C 0.71126 0.44963 0.44824 0.0
C1133 C 0.67671 0.46847 0.40269 0.0
C1134 C 0.70851 0.41691 0.43673 0.0
C1135 C 0.68914 0.40976 0.40879 0.0
H1136 H 0.31879 0.91129 0.04723 0.0
H1137 H 0.29235 0.01367 0.06216 0.0
H1138 H 0.3256 0.01556 0.11286 0.0
H1139 H 0.36833 0.98969 0.14839 0.0
H1140 H 0.39246 0.88648 0.13399 0.0
H1141 H 0.35398 0.88312 0.08758 0.0
C1142 C 0.31954 0.93361 0.06228 0.0
C1143 C 0.30347 0.96226 0.05132 0.0
C1144 C 0.3388 0.93452 0.09099 0.0
C1145 C 0.3044 0.99124 0.0706 0.0
C1146 C 0.32374 0.99244 0.09925 0.0
C1147 C 0.36475 0.9665 0.13519 0.0
C1148 C 0.38334 0.93854 0.14397 0.0
C1149 C 0.34208 0.96456 0.10893 0.0
C1150 C 0.37834 0.90833 0.12736 0.0
C1151 C 0.35642 0.90637 0.10088 0.0
H1152 H 0.17694 0.01186 0.54631 0.0
H1153 H 0.17249 0.11737 0.53048 0.0
H1154 H 0.14176 0.12445 0.58238 0.0
H1155 H 0.11168 0.09996 0.62904 0.0
H1156 H 0.11 0.99374 0.64114 0.0
H1157 H 0.14768 0.98736 0.59394 0.0
C1158 C 0.16986 0.03641 0.5548 0.0
C1159 C 0.17728 0.06418 0.53526 0.0
C1160 C 0.15078 0.04 0.58365 0.0
C1161 C 0.16725 0.09582 0.5456 0.0
C1162 C 0.14958 0.0998 0.57506 0.0
C1163 C 0.12001 0.07546 0.62165 0.0
C1164 C 0.10828 0.04734 0.63848 0.0
C1165 C 0.14054 0.07198 0.59384 0.0
C1166 C 0.11872 0.0157 0.62838 0.0
C1167 C 0.14023 0.01207 0.60147 0.0
H1168 H 0.95227 0.79396 0.59519 0.0
H1169 H 0.94424 0.78332 0.48946 0.0
H1170 H 0.89044 0.81112 0.49022 0.0
H1171 H 0.85204 0.84823 0.51955 0.0
H1172 H 0.86006 0.8599 0.62528 0.0
H1173 H 0.90725 0.82176 0.62623 0.0
C1174 C 0.93782 0.79626 0.57267 0.0
C1175 C 0.95173 0.78632 0.54237 0.0
C1176 C 0.9074 0.81331 0.57324 0.0
C1177 C 0.9335 0.79025 0.51308 0.0
C1178 C 0.90303 0.80662 0.51347 0.0
C1179 C 0.86362 0.84165 0.54286 0.0
C1180 C 0.85305 0.85707 0.57221 0.0
C1181 C 0.89068 0.8198 0.54316 0.0
C1182 C 0.86787 0.84826 0.60238 0.0
C1183 C 0.89496 0.82661 0.60289 0.0
H1184 H 0.64129 0.13177 0.09381 0.0
H1185 H 0.64044 0.09913 0.99189 0.0
H1186 H 0.59451 0.13603 0.97996 0.0
H1187 H 0.54987 0.17183 -0.00035 0.0
H1188 H 0.54886 0.20532 0.10082 0.0
H1189 H 0.6003 0.1745 0.11179 0.0
C1190 C 0.63143 0.13324 0.0689 0.0
C1191 C 0.64395 0.11207 0.04401 0.0
C1192 C 0.60452 0.15462 0.06206 0.0
C1193 C 0.63095 0.11452 0.01176 0.0
C1194 C 0.60465 0.13572 0.0048 0.0
C1195 C 0.56155 0.17314 0.02383 0.0
C1196 C 0.54595 0.19087 0.04934 0.0
C1197 C 0.59057 0.15502 0.02993 0.0
C1198 C 0.56088 0.19221 0.08069 0.0
C1199 C 0.59003 0.17426 0.08701 0.0
H1200 H 0.42796 0.69708 0.48491 0.0
H1201 H 0.44979 0.6902 0.38086 0.0
H1202 H 0.39902 0.65806 0.37179 0.0
H1203 H 0.35439 0.62374 0.39537 0.0
H1204 H 0.33717 0.62537 0.50073 0.0
H1205 H 0.37975 0.66797 0.50759 0.0
C1206 C 0.42079 0.68965 0.46013 0.0
C1207 C 0.44217 0.69605 0.43353 0.0
C1208 C 0.39272 0.66961 0.45557 0.0
C1209 C 0.4334 0.68556 0.40158 0.0
C1210 C 0.40457 0.66699 0.3965 0.0
C1211 C 0.35943 0.6341 0.41965 0.0
C1212 C 0.343 0.62136 0.44755 0.0
C1213 C 0.38491 0.65755 0.42356 0.0
C1214 C 0.34986 0.63466 0.47898 0.0
C1215 C 0.37416 0.65897 0.4829 0.0
H1216 H 0.04686 0.32137 0.99008 0.0
H1217 H 0.0282 0.32601 0.88524 0.0
H1218 H 0.08141 0.35414 0.87655 0.0
H1219 H 0.13005 0.38261 0.89962 0.0
H1220 H 0.14478 0.38478 0.00528 0.0
H1221 H 0.09653 0.34861 0.01307 0.0
C1222 C 0.055 0.3279 0.96532 0.0
C1223 C 0.03426 0.32133 0.93821 0.0
C1224 C 0.08469 0.34555 0.96084 0.0
C1225 C 0.04421 0.33062 0.90629 0.0
C1226 C 0.07445 0.3468 0.9014 0.0
C1227 C 0.12304 0.37454 0.92426 0.0
C1228 C 0.14092 0.38598 0.95185 0.0
C1229 C 0.09448 0.35512 0.92858 0.0
C1230 C 0.13128 0.37611 0.98374 0.0
C1231 C 0.10373 0.35553 0.98817 0.0
H1232 H 0.61348 0.86555 0.85891 0.0
H1233 H 0.51771 0.81844 0.85493 0.0
H1234 H 0.49851 0.85974 0.81491 0.0
H1235 H 0.50654 0.91492 0.78932 0.0
H1236 H 0.60359 0.95956 0.79 0.0
H1237 H 0.62526 0.9132 0.82235 0.0
C1238 C 0.58887 0.86371 0.84821 0.0
C1239 C 0.56682 0.83943 0.85981 0.0
C1240 C 0.57829 0.88718 0.82485 0.0
C1241 C 0.53496 0.83707 0.84612 0.0
C1242 C 0.52396 0.86077 0.82346 0.0
C1243 C 0.53272 0.91361 0.79536 0.0
C1244 C 0.55356 0.94032 0.7874 0.0
C1245 C 0.54499 0.88674 0.81375 0.0
C1246 C 0.58734 0.93888 0.79557 0.0
C1247 C 0.59961 0.9126 0.81438 0.0
H1248 H 0.05546 0.65283 0.15773 0.0
H1249 H 0.0738 0.60374 0.0645 0.0
H1250 H 0.07462 0.55012 0.09189 0.0
H1251 H 0.06524 0.51695 0.14045 0.0
H1252 H 0.04289 0.56278 0.23426 0.0
H1253 H 0.04919 0.61804 0.20894 0.0
C1254 C 0.05981 0.63029 0.14372 0.0
C1255 C 0.06406 0.63192 0.10916 0.0
C1256 C 0.05948 0.59916 0.15966 0.0
C1257 C 0.06991 0.60282 0.09104 0.0
C1258 C 0.07051 0.57223 0.10666 0.0
C1259 C 0.06196 0.53904 0.15552 0.0
C1260 C 0.05311 0.53595 0.18896 0.0
C1261 C 0.06455 0.57009 0.14068 0.0
C1262 C 0.04967 0.56465 0.20839 0.0
C1263 C 0.05298 0.59615 0.19382 0.0
H1264 H 0.50455 0.44374 0.68239 0.0
H1265 H 0.40477 0.44899 0.71984 0.0
H1266 H 0.39177 0.39529 0.69406 0.0
H1267 H 0.40654 0.35257 0.65196 0.0
H1268 H 0.50607 0.35057 0.61307 0.0
H1269 H 0.52186 0.3966 0.64876 0.0
C1270 C 0.48033 0.43244 0.6858 0.0
C1271 C 0.4556 0.44991 0.70275 0.0
C1272 C 0.473 0.40227 0.67031 0.0
C1273 C 0.4242 0.43553 0.70707 0.0
C1274 C 0.41672 0.40508 0.69202 0.0
C1275 C 0.43188 0.3616 0.65233 0.0
C1276 C 0.45518 0.34845 0.63004 0.0
C1277 C 0.44053 0.38897 0.67229 0.0
C1278 C 0.48784 0.36044 0.63012 0.0
C1279 C 0.49683 0.38687 0.65037 0.0
H1280 H 0.90496 0.05781 0.29867 0.0
H1281 H 0.00777 0.07814 0.27805 0.0
H1282 H 0.00218 0.13365 0.30219 0.0
H1283 H 0.97116 0.1699 0.34047 0.0
H1284 H 0.86892 0.14832 0.36232 0.0
H1285 H 0.87047 0.10031 0.32534 0.0
C1286 C 0.9257 0.07499 0.29843 0.0
C1287 C 0.95675 0.06422 0.28718 0.0
C1288 C 0.92232 0.1065 0.31262 0.0
C1289 C 0.98365 0.08627 0.28666 0.0
C1290 C 0.9805 0.11782 0.30066 0.0
C1291 C 0.94885 0.15564 0.3356 0.0
C1292 C 0.91993 0.1624 0.35364 0.0
C1293 C 0.9504 0.12744 0.31528 0.0
C1294 C 0.89121 0.14361 0.34806 0.0
C1295 C 0.89228 0.11591 0.32739 0.0
H1296 H 0.97407 0.36719 0.1536 0.0
H1297 H 0.06594 0.31327 0.15113 0.0
H1298 H 0.04581 0.28039 0.10393 0.0
H1299 H 0.0063 0.27562 0.0568 0.0
H1300 H 0.91744 0.33485 0.05737 0.0
H1301 H 0.93161 0.35684 0.11194 0.0
C1302 C 0.98902 0.34723 0.14356 0.0
C1303 C 0.02114 0.34227 0.15588 0.0
C1304 C 0.97792 0.32991 0.11558 0.0
C1305 C 0.04082 0.31694 0.1424 0.0
C1306 C 0.02948 0.29859 0.11508 0.0
C1307 C 0.98963 0.29244 0.06955 0.0
C1308 C 0.96081 0.30359 0.05343 0.0
C1309 C 0.99871 0.30604 0.10045 0.0
C1310 C 0.93963 0.32594 0.06957 0.0
C1311 C 0.9478 0.33859 0.10065 0.0
H1312 H 0.5452 0.69295 0.5749 0.0
H1313 H 0.44964 0.71933 0.53569 0.0
H1314 H 0.42222 0.69572 0.58429 0.0
H1315 H 0.42558 0.65847 0.63248 0.0
H1316 H 0.52113 0.6316 0.67143 0.0
H1317 H 0.54875 0.66489 0.62892 0.0
C1318 C 0.5185 0.69466 0.57785 0.0
C1319 C 0.49925 0.70767 0.55216 0.0
C1320 C 0.50303 0.68055 0.60557 0.0
C1321 C 0.46469 0.70938 0.55549 0.0
C1322 C 0.44907 0.69572 0.58311 0.0
C1323 C 0.45236 0.66107 0.63224 0.0
C1324 C 0.47151 0.64299 0.65473 0.0
C1325 C 0.46793 0.67989 0.60753 0.0
C1326 C 0.50616 0.64576 0.65427 0.0
C1327 C 0.52189 0.66454 0.62989 0.0
H1328 H 0.50657 0.20851 0.93582 0.0
H1329 H 0.41757 0.14981 0.94671 0.0
H1330 H 0.43286 0.11674 0.89866 0.0
H1331 H 0.47476 0.09965 0.85827 0.0
H1332 H 0.56336 0.15792 0.84546 0.0
H1333 H 0.54496 0.19616 0.88924 0.0
C1334 C 0.49014 0.18904 0.92718 0.0
C1335 C 0.46123 0.18135 0.94531 0.0
C1336 C 0.49925 0.16972 0.89945 0.0
C1337 C 0.44021 0.15601 0.93363 0.0
C1338 C 0.44896 0.13696 0.90615 0.0
C1339 C 0.48971 0.12112 0.8647 0.0
C1340 C 0.52043 0.12592 0.84905 0.0
C1341 C 0.47895 0.14281 0.88967 0.0
C1342 C 0.53954 0.15388 0.85721 0.0
C1343 C 0.5291 0.17557 0.88236 0.0
H1344 H 0.07478 0.83765 0.43269 0.0
H1345 H 0.9878 0.77581 0.43963 0.0
H1346 H 0.96486 0.80164 0.38997 0.0
H1347 H 0.96605 0.84789 0.34972 0.0
H1348 H 0.05375 0.90922 0.34386 0.0
H1349 H 0.07988 0.87727 0.38738 0.0
C1350 C 0.05113 0.82935 0.42288 0.0
C1351 C 0.03282 0.80529 0.44001 0.0
C1352 C 0.03797 0.84451 0.39462 0.0
C1353 C 0.0024 0.79438 0.42687 0.0
C1354 C 0.98912 0.80933 0.3986 0.0
C1355 C 0.99114 0.85372 0.35744 0.0
C1356 C 0.00752 0.88141 0.34399 0.0
C1357 C 0.00614 0.83534 0.38299 0.0
C1358 C 0.04021 0.88844 0.35413 0.0
C1359 C 0.05528 0.87019 0.37912 0.0
H1360 H 0.16147 0.981 0.35071 0.0
H1361 H 0.15554 0.0844 0.32446 0.0
H1362 H 0.11386 0.07168 0.28248 0.0
H1363 H 0.0708 0.03302 0.26305 0.0
H1364 H 0.07623 0.92992 0.28953 0.0
H1365 H 0.12716 0.94019 0.32078 0.0
C1366 C 0.15167 0.00052 0.33508 0.0
C1367 C 0.16088 0.03359 0.34098 0.0
C1368 C 0.12768 0.99302 0.31108 0.0
C1369 C 0.14858 0.05876 0.32041 0.0
C1370 C 0.12466 0.05152 0.29651 0.0
C1371 C 0.08433 0.01259 0.27409 0.0
C1372 C 0.07017 0.98083 0.27415 0.0
C1373 C 0.11288 0.01899 0.29282 0.0
C1374 C 0.08716 0.95448 0.289 0.0
C1375 C 0.1159 0.96048 0.30731 0.0
H1376 H 0.42647 0.06668 0.81234 0.0
H1377 H 0.44068 0.97171 0.76544 0.0
H1378 H 0.38985 0.95084 0.7913 0.0
H1379 H 0.34808 0.9567 0.83602 0.0
H1380 H 0.33612 0.05179 0.8838 0.0
H1381 H 0.37889 0.07558 0.84861 0.0
C1382 C 0.41776 0.04178 0.80692 0.0
C1383 C 0.43731 0.02066 0.78739 0.0
C1384 C 0.38919 0.02976 0.82258 0.0
C1385 C 0.42588 0.98848 0.78033 0.0
C1386 C 0.39704 0.97641 0.79547 0.0
C1387 C 0.35417 0.98284 0.83796 0.0
C1388 C 0.33951 0.00227 0.86295 0.0
C1389 C 0.37943 0.99634 0.81798 0.0
C1390 C 0.34754 0.03615 0.86516 0.0
C1391 C 0.37201 0.04982 0.84507 0.0
H1392 H 0.64957 0.52524 0.60907 0.0
H1393 H 0.66378 0.44181 0.67371 0.0
H1394 H 0.61841 0.46144 0.70943 0.0
H1395 H 0.56943 0.49786 0.71662 0.0
H1396 H 0.55586 0.58057 0.65026 0.0
H1397 H 0.60673 0.56619 0.62122 0.0
C1398 C 0.64325 0.51193 0.63152 0.0
C1399 C 0.6596 0.48222 0.6389 0.0
C1400 C 0.61709 0.5231 0.65136 0.0
C1401 C 0.65148 0.46493 0.66787 0.0
C1402 C 0.62541 0.47602 0.68803 0.0
C1403 C 0.57808 0.51321 0.69637 0.0
C1404 C 0.55851 0.53987 0.68522 0.0
C1405 C 0.60722 0.50442 0.67927 0.0
C1406 C 0.57014 0.55961 0.65901 0.0
C1407 C 0.59921 0.55139 0.64231 0.0
H1408 H 0.94088 0.50354 0.21663 0.0
H1409 H 0.93299 0.40806 0.16884 0.0
H1410 H 0.88133 0.4249 0.14259 0.0
H1411 H 0.84403 0.46944 0.12608 0.0
H1412 H 0.85269 0.56611 0.17096 0.0
H1413 H 0.8979 0.546 0.20611 0.0
C1414 C 0.92731 0.48611 0.20127 0.0
C1415 C 0.941 0.45472 0.19429 0.0
C1416 C 0.89798 0.49635 0.18543 0.0
C1417 C 0.92321 0.43246 0.17423 0.0
C1418 C 0.89369 0.44211 0.15914 0.0
C1419 C 0.85534 0.48593 0.14406 0.0
C1420 C 0.84544 0.51931 0.14556 0.0
C1421 C 0.88172 0.47445 0.1634 0.0
C1422 C 0.85992 0.54031 0.16929 0.0
C1423 C 0.88597 0.52886 0.18918 0.0
H1424 H 0.35199 0.17094 0.9824 0.0
H1425 H 0.33554 0.15013 0.08555 0.0
H1426 H 0.29684 0.10561 0.071 0.0
H1427 H 0.27755 0.06582 0.029 0.0
H1428 H 0.29755 0.08393 0.92599 0.0
H1429 H 0.32425 0.13674 0.93993 0.0
C1430 C 0.33869 0.15754 0.00153 0.0
C1431 C 0.34599 0.16381 0.03491 0.0
C1432 C 0.31746 0.13127 0.99286 0.0
C1433 C 0.32963 0.14588 0.05972 0.0
C1434 C 0.30783 0.12026 0.05137 0.0
C1435 C 0.28644 0.08218 0.00963 0.0
C1436 C 0.28538 0.07153 0.97658 0.0
C1437 C 0.30284 0.11174 0.01805 0.0
C1438 C 0.29767 0.09218 0.95154 0.0
C1439 C 0.31328 0.1221 0.95958 0.0
H1440 H 0.85782 0.34758 0.02914 0.0
H1441 H 0.8225 0.35496 0.92875 0.0
H1442 H 0.78666 0.40134 0.94447 0.0
H1443 H 0.77422 0.44625 0.98445 0.0
H1444 H 0.81138 0.43952 0.08404 0.0
H1445 H 0.83726 0.38617 0.07134 0.0
C1446 C 0.84155 0.35878 0.01095 0.0
C1447 C 0.84309 0.34828 0.9778 0.0
C1448 C 0.82156 0.38573 0.02005 0.0
C1449 C 0.82172 0.36265 0.95445 0.0
C1450 C 0.80145 0.38936 0.96337 0.0
C1451 C 0.78676 0.43225 0.00362 0.0
C1452 C 0.79079 0.44631 0.03518 0.0
C1453 C 0.80232 0.40204 0.99576 0.0
C1454 C 0.80777 0.42871 0.05975 0.0
C1455 C 0.82279 0.39843 0.05237 0.0
H1456 H 0.65742 0.64808 0.45727 0.0
H1457 H 0.59394 0.65232 0.5433 0.0
H1458 H 0.62763 0.61063 0.57077 0.0
H1459 H 0.66908 0.56687 0.56667 0.0
H1460 H 0.73144 0.56039 0.4801 0.0
H1461 H 0.70488 0.60954 0.45694 0.0
C1462 C 0.6515 0.64043 0.48231 0.0
C1463 C 0.62284 0.65259 0.49791 0.0
C1464 C 0.6706 0.61583 0.49779 0.0
C1465 C 0.61553 0.64271 0.53049 0.0
C1466 C 0.63475 0.61889 0.54626 0.0
C1467 C 0.6773 0.57662 0.54304 0.0
C1468 C 0.70162 0.5597 0.52484 0.0
C1469 C 0.6614 0.60426 0.52955 0.0
C1470 C 0.71257 0.57291 0.49454 0.0
C1471 C 0.69721 0.60086 0.48115 0.0
H1472 H 0.11145 0.86229 0.47967 0.0
H1473 H 0.17419 0.85269 0.56523 0.0
H1474 H 0.21053 0.89695 0.54409 0.0
H1475 H 0.21915 0.9438 0.50471 0.0
H1476 H 0.15477 0.95238 0.42003 0.0
H1477 H 0.12488 0.90252 0.43668 0.0
C1478 C 0.1335 0.86948 0.49331 0.0
C1479 C 0.14011 0.85472 0.524 0.0
C1480 C 0.15396 0.89472 0.48103 0.0
C1481 C 0.16876 0.86385 0.54148 0.0
C1482 C 0.18937 0.88922 0.52945 0.0
C1483 C 0.19943 0.93388 0.48936 0.0
C1484 C 0.18919 0.95149 0.46111 0.0
C1485 C 0.18162 0.90557 0.49969 0.0
C1486 C 0.16311 0.939 0.44173 0.0
C1487 C 0.14583 0.91071 0.4514 0.0
H1488 H 0.96914 0.6746 0.84393 0.0
H1489 H 0.04737 0.60202 0.84119 0.0
H1490 H 0.07832 0.63282 0.88306 0.0
H1491 H 0.0778 0.67387 0.92742 0.0
H1492 H 0.99742 0.74414 0.93401 0.0
H1493 H 0.97322 0.72161 0.88335 0.0
C1494 C 0.99349 0.66637 0.85176 0.0
C1495 C 0.00614 0.63627 0.83969 0.0
C1496 C 0.01052 0.68354 0.87695 0.0
C1497 C 0.03738 0.62526 0.85026 0.0
C1498 C 0.05494 0.64273 0.87431 0.0
C1499 C 0.05542 0.68484 0.91735 0.0
C1500 C 0.03909 0.71012 0.93494 0.0
C1501 C 0.04098 0.67097 0.88896 0.0
C1502 C 0.01041 0.72442 0.9212 0.0
C1503 C 0.99635 0.71135 0.89232 0.0
H1504 H 0.55186 0.32751 0.35284 0.0
H1505 H 0.46886 0.3947 0.35293 0.0
H1506 H 0.44072 0.36135 0.39455 0.0
H1507 H 0.44483 0.32017 0.43822 0.0
H1508 H 0.5292 0.25534 0.44303 0.0
H1509 H 0.55156 0.27979 0.39199 0.0
C1510 C 0.52719 0.33405 0.36133 0.0
C1511 C 0.51233 0.36346 0.35008 0.0
C1512 C 0.51164 0.31528 0.38638 0.0
C1513 C 0.48062 0.37216 0.36142 0.0
C1514 C 0.4646 0.35317 0.38527 0.0
C1515 C 0.46733 0.31046 0.42717 0.0
C1516 C 0.48518 0.28589 0.44383 0.0
C1517 C 0.48052 0.32563 0.39896 0.0
C1518 C 0.51477 0.27384 0.43004 0.0
C1519 C 0.52777 0.28821 0.4012 0.0
H1520 H 0.49966 0.78295 0.07029 0.0
H1521 H 0.58034 0.85019 0.04999 0.0
H1522 H 0.57158 0.87783 0.103 0.0
H1523 H 0.53479 0.88947 0.14939 0.0
H1524 H 0.45123 0.82596 0.1689 0.0
H1525 H 0.4675 0.78974 0.12264 0.0
C1526 C 0.51586 0.80297 0.0781 0.0
C1527 C 0.54046 0.81478 0.05634 0.0
C1528 C 0.50988 0.8196 0.1083 0.0
C1529 C 0.56113 0.84095 0.06636 0.0
C1530 C 0.55609 0.8568 0.09659 0.0
C1531 C 0.52086 0.86699 0.14418 0.0
C1532 C 0.49196 0.86025 0.16232 0.0
C1533 C 0.52964 0.84731 0.11697 0.0
C1534 C 0.47384 0.83131 0.15543 0.0
C1535 C 0.48291 0.81093 0.12868 0.0
H1536 H 0.99818 0.21721 0.56788 0.0
H1537 H 0.93141 0.1412 0.53312 0.0
H1538 H 0.9367 0.11152 0.58505 0.0
H1539 H 0.96703 0.10221 0.63565 0.0
H1540 H 0.03996 0.17292 0.66892 0.0
H1541 H 0.0253 0.21004 0.623 0.0
C1542 C 0.98432 0.19458 0.57224 0.0
C1543 C 0.96423 0.18139 0.547 0.0
C1544 C 0.98898 0.17654 0.60172 0.0
C1545 C 0.9467 0.15184 0.55241 0.0
C1546 C 0.94988 0.13477 0.582 0.0
C1547 C 0.97928 0.12608 0.63322 0.0
C1548 C 0.00483 0.13468 0.65512 0.0
C1549 C 0.97193 0.14617 0.60616 0.0
C1550 C 0.02019 0.16582 0.65221 0.0
C1551 C 0.01206 0.18682 0.62576 0.0
H1552 H 0.85594 0.93337 0.67477 0.0
H1553 H 0.81902 0.0221 0.62894 0.0
H1554 H 0.85897 0.05573 0.65998 0.0
H1555 H 0.91106 0.05774 0.69194 0.0
H1556 H 0.94639 0.96894 0.73959 0.0
H1557 H 0.89991 0.93756 0.71704 0.0
C1558 C 0.85582 0.9602 0.67279 0.0
C1559 C 0.83506 0.9755 0.64963 0.0
C1560 C 0.87881 0.97923 0.69077 0.0
C1561 C 0.8351 0.01011 0.64669 0.0
C1562 C 0.858 0.02922 0.66428 0.0
C1563 C 0.90786 0.03179 0.69826 0.0
C1564 C 0.93227 0.0156 0.71697 0.0
C1565 C 0.88105 0.01382 0.68516 0.0
C1566 C 0.92787 0.98202 0.72525 0.0
C1567 C 0.90145 0.96392 0.7121 0.0
H1568 H 0.6548 0.04532 0.16834 0.0
H1569 H 0.66524 0.95613 0.11049 0.0
H1570 H 0.62347 0.92835 0.14412 0.0
H1571 H 0.57634 0.93371 0.18142 0.0
H1572 H 0.56214 0.02414 0.23676 0.0
H1573 H 0.61332 0.04692 0.21359 0.0
C1574 C 0.64873 0.01943 0.16416 0.0
C1575 C 0.66278 0.00258 0.13722 0.0
C1576 C 0.62359 0.0041 0.18278 0.0
C1577 C 0.65462 0.96929 0.13132 0.0
C1578 C 0.6306 0.95353 0.15036 0.0
C1579 C 0.58498 0.95805 0.18908 0.0
C1580 C 0.56525 0.97753 0.21004 0.0
C1581 C 0.61369 0.97131 0.17488 0.0
C1582 C 0.57686 0.00876 0.22037 0.0
C1583 C 0.60598 0.02193 0.20691 0.0
H1584 H 0.4288 0.43211 0.32843 0.0
H1585 H 0.44251 0.51966 0.26898 0.0
H1586 H 0.39152 0.54349 0.29176 0.0
H1587 H 0.34852 0.54315 0.33596 0.0
H1588 H 0.3379 0.4565 0.39713 0.0
H1589 H 0.3818 0.42844 0.36635 0.0
C1590 C 0.42024 0.45609 0.31993 0.0
C1591 C 0.43965 0.47424 0.29744 0.0
C1592 C 0.3915 0.46994 0.33378 0.0
C1593 C 0.42801 0.50512 0.28626 0.0
C1594 C 0.399 0.51891 0.29955 0.0
C1595 C 0.35516 0.51773 0.34161 0.0
C1596 C 0.34002 0.50165 0.3685 0.0
C1597 C 0.38128 0.50212 0.32435 0.0
C1598 C 0.34916 0.46906 0.3763 0.0
C1599 C 0.37439 0.45314 0.35885 0.0
H1600 H 0.14231 0.44019 0.83662 0.0
H1601 H 0.17571 0.53544 0.87149 0.0
H1602 H 0.13384 0.56323 0.83784 0.0
H1603 H 0.08138 0.55929 0.80751 0.0
H1604 H 0.04684 0.4642 0.77298 0.0
H1605 H 0.09582 0.43736 0.79659 0.0
C1606 C 0.14119 0.46705 0.83557 0.0
C1607 C 0.16185 0.48597 0.8562 0.0
C1608 C 0.11654 0.48274 0.81664 0.0
C1609 C 0.16001 0.52066 0.85549 0.0
C1610 C 0.13595 0.53647 0.83649 0.0
C1611 C 0.08519 0.53284 0.80432 0.0
C1612 C 0.06057 0.51363 0.78899 0.0
C1613 C 0.11308 0.51765 0.81831 0.0
C1614 C 0.06565 0.47945 0.78466 0.0
C1615 C 0.09347 0.46407 0.79843 0.0
H1616 H 0.64722 0.83016 0.02391 0.0
H1617 H 0.66992 0.84664 0.92107 0.0
H1618 H 0.70915 0.89052 0.93635 0.0
H1619 H 0.7263 0.93191 0.97818 0.0
H1620 H 0.70026 0.9167 0.08054 0.0
H1621 H 0.6737 0.86413 0.06654 0.0
C1622 C 0.66176 0.84258 0.005 0.0
C1623 C 0.65562 0.83566 0.97152 0.0
C1624 C 0.68331 0.8683 0.01395 0.0
C1625 C 0.67446 0.85161 0.94704 0.0
C1626 C 0.69657 0.87693 0.95578 0.0
C1627 C 0.71606 0.91633 0.99753 0.0
C1628 C 0.71467 0.92819 0.03025 0.0
C1629 C 0.69976 0.88667 0.98904 0.0
C1630 C 0.70112 0.90809 0.05514 0.0
C1631 C 0.68583 0.87815 0.04712 0.0
H1632 H 0.22654 0.57016 0.01182 0.0
H1633 H 0.18722 0.5778 0.9129 0.0
H1634 H 0.16011 0.62987 0.92721 0.0
H1635 H 0.13826 0.66622 0.97061 0.0
H1636 H 0.17453 0.65778 0.07036 0.0
H1637 H 0.21264 0.61355 0.05309 0.0
C1638 C 0.21313 0.58393 0.99309 0.0
C1639 C 0.20857 0.56999 0.96141 0.0
C1640 C 0.19665 0.6135 0.00187 0.0
C1641 C 0.19082 0.5879 0.93749 0.0
C1642 C 0.17516 0.61761 0.94572 0.0
C1643 C 0.15559 0.6556 0.98819 0.0
C1644 C 0.15395 0.66521 0.02155 0.0
C1645 C 0.17651 0.62966 0.97823 0.0
C1646 C 0.17591 0.65106 0.04441 0.0
C1647 C 0.19733 0.62548 0.03459 0.0
H1648 H 0.34434 0.35279 0.55531 0.0
H1649 H 0.39199 0.33492 0.4613 0.0
H1650 H 0.35532 0.37453 0.4346 0.0
H1651 H 0.31663 0.42061 0.43987 0.0
H1652 H 0.27056 0.44141 0.53388 0.0
H1653 H 0.29867 0.39366 0.55848 0.0
C1654 C 0.34607 0.35702 0.52886 0.0
C1655 C 0.37134 0.34163 0.51041 0.0
C1656 C 0.32524 0.38046 0.51371 0.0
C1657 C 0.37325 0.34712 0.47613 0.0
C1658 C 0.35223 0.36969 0.46081 0.0
C1659 C 0.31215 0.41415 0.46552 0.0
C1660 C 0.2921 0.43464 0.48516 0.0
C1661 C 0.3292 0.38753 0.47964 0.0
C1662 C 0.28593 0.42587 0.51825 0.0
C1663 C 0.30231 0.39882 0.53242 0.0
H1664 H 0.8739 0.1461 0.52407 0.0
H1665 H 0.83276 0.13775 0.42608 0.0
H1666 H 0.7986 0.09064 0.44396 0.0
H1667 H 0.78782 0.0466 0.48519 0.0
H1668 H 0.83343 0.05354 0.58158 0.0
H1669 H 0.85845 0.10636 0.56674 0.0
C1670 C 0.85715 0.13415 0.50678 0.0
C1671 C 0.85622 0.14477 0.47377 0.0
C1672 C 0.83866 0.10663 0.51693 0.0
C1673 C 0.83381 0.12988 0.45168 0.0
C1674 C 0.81456 0.10279 0.46183 0.0
C1675 C 0.80249 0.06015 0.5032 0.0
C1676 C 0.80892 0.04606 0.53441 0.0
C1677 C 0.81781 0.09013 0.49407 0.0
C1678 C 0.82823 0.06374 0.5574 0.0
C1679 C 0.84265 0.09393 0.54889 0.0
loop_
_geom_bond_atom_site_label_1
_geom_bond_atom_site_label_2
_geom_bond_distance
_geom_bond_site_symmetry_2
_ccdc_geom_bond_type
Fe0 O2 1.918 . S
Fe0 O5 1.997 . S
Fe0 O6 2.002 . S
Fe0 O11 1.976 . S
Fe0 O14 1.996 1_455 S
Fe1 O2 1.918 . S
Fe1 O9 1.997 . S
Fe1 O12 1.996 . S
Fe1 O16 1.976 . S
Fe1 O19 2.002 . S
O2 Fe0 1.918 . S
O2 Fe1 1.918 . S
O2 Fe3 1.918 . S
Fe3 O2 1.918 . S
Fe3 O4 2.002 . S
Fe3 O13 1.976 1_455 S
Fe3 O17 1.996 . S
Fe3 O20 1.997 . S
O4 Fe3 2.002 . S
O4 C21 1.295 . S
O5 Fe0 1.997 . S
O5 C21 1.235 . S
O6 Fe0 2.002 . S
O6 C7 1.295 . S
C7 O6 1.295 . S
C7 O9 1.235 . S
C8 O13 1.287 . S
C8 O14 1.255 . S
O9 Fe1 1.997 . S
O9 C7 1.235 . S
C10 O16 1.287 . S
C10 O17 1.255 . S
O11 Fe0 1.976 . S
O11 C18 1.287 . S
O12 Fe1 1.996 . S
O12 C18 1.255 . S
O13 Fe3 1.976 1_655 S
O13 C8 1.287 . S
O14 Fe0 1.996 1_655 S
O14 C8 1.255 . S
C15 O19 1.295 . S
C15 O20 1.235 . S
O16 Fe1 1.976 . S
O16 C10 1.287 . S
O17 Fe3 1.996 . S
O17 C10 1.255 . S
C18 O11 1.287 . S
C18 O12 1.255 . S
O19 Fe1 2.002 . S
O19 C15 1.295 . S
O20 Fe3 1.997 . S
O20 C15 1.235 . S
C21 O4 1.295 . S
C21 O5 1.235 . S
Fe22 O24 1.918 . S
Fe22 O27 1.997 . S
Fe22 O28 2.002 . S
Fe22 O33 1.976 . S
Fe22 O36 1.996 . S
Fe23 O24 1.918 . S
Fe23 O31 1.997 . S
Fe23 O34 1.996 . S
Fe23 O38 1.976 . S
Fe23 O41 2.002 . S
O24 Fe22 1.918 . S
O24 Fe23 1.918 . S
O24 Fe25 1.918 . S
Fe25 O24 1.918 . S
Fe25 O26 2.002 . S
Fe25 O35 1.976 . S
Fe25 O39 1.996 . S
Fe25 O42 1.997 . S
O26 Fe25 2.002 . S
O26 C43 1.295 . S
O27 Fe22 1.997 . S
O27 C43 1.235 . S
O28 Fe22 2.002 . S
O28 C29 1.295 . S
C29 O28 1.295 . S
C29 O31 1.235 . S
C30 O35 1.287 . S
C30 O36 1.255 . S
O31 Fe23 1.997 . S
O31 C29 1.235 . S
C32 O38 1.287 . S
C32 O39 1.255 . S
O33 Fe22 1.976 . S
O33 C40 1.287 . S
O34 Fe23 1.996 . S
O34 C40 1.255 . S
O35 Fe25 1.976 . S
O35 C30 1.287 . S
O36 Fe22 1.996 . S
O36 C30 1.255 . S
C37 O41 1.295 . S
C37 O42 1.235 . S
O38 Fe23 1.976 . S
O38 C32 1.287 . S
O39 Fe25 1.996 . S
O39 C32 1.255 . S
C40 O33 1.287 . S
C40 O34 1.255 . S
O41 Fe23 2.002 . S
O41 C37 1.295 . S
O42 Fe25 1.997 . S
O42 C37 1.235 . S
C43 O26 1.295 . S
C43 O27 1.235 . S
Fe44 O46 1.918 . S
Fe44 O49 1.997 . S
Fe44 O50 2.002 . S
Fe44 O55 1.976 . S
Fe44 O58 1.996 . S
Fe45 O46 1.918 . S
Fe45 O53 1.997 . S
Fe45 O56 1.996 . S
Fe45 O60 1.976 . S
Fe45 O63 2.032 . S
O46 Fe44 1.918 . S
O46 Fe45 1.918 . S
O46 Fe47 1.918 . S
Fe47 O46 1.918 . S
Fe47 O48 2.002 . S
Fe47 O57 1.976 . S
Fe47 O61 1.996 . S
Fe47 O64 1.997 1_545 S
O48 Fe47 2.002 . S
O48 C65 1.295 . S
O49 Fe44 1.997 . S
O49 C65 1.235 . S
O50 Fe44 2.002 . S
O50 C51 1.295 . S
C51 O50 1.295 . S
C51 O53 1.235 . S
C52 O57 1.287 . S
C52 O58 1.255 . S
O53 Fe45 1.997 . S
O53 C51 1.235 . S
C54 O60 1.287 . S
C54 O61 1.255 . S
O55 Fe44 1.976 . S
O55 C62 1.287 . S
O56 Fe45 1.996 . S
O56 C62 1.255 . S
O57 Fe47 1.976 . S
O57 C52 1.287 . S
O58 Fe44 1.996 . S
O58 C52 1.255 . S
C59 O63 1.278 1_565 S
C59 O64 1.235 . S
O60 Fe45 1.976 . S
O60 C54 1.287 . S
O61 Fe47 1.996 . S
O61 C54 1.255 . S
C62 O55 1.287 . S
C62 O56 1.255 . S
O63 Fe45 2.032 . S
O63 C59 1.278 1_545 S
O64 Fe47 1.997 1_565 S
O64 C59 1.235 . S
C65 O48 1.295 . S
C65 O49 1.235 . S
Fe66 O68 1.918 . S
Fe66 O71 1.997 . S
Fe66 O72 2.032 . S
Fe66 O77 1.976 1_655 S
Fe66 O80 1.996 . S
Fe67 O68 1.918 . S
Fe67 O75 1.997 1_565 S
Fe67 O78 1.996 1_655 S
Fe67 O82 1.976 . S
Fe67 O85 2.002 . S
O68 Fe66 1.918 . S
O68 Fe67 1.918 . S
O68 Fe69 1.918 . S
Fe69 O68 1.918 . S
Fe69 O70 2.002 . S
Fe69 O79 1.976 . S
Fe69 O83 1.996 . S
Fe69 O86 1.997 . S
O70 Fe69 2.002 . S
O70 C87 1.295 . S
O71 Fe66 1.997 . S
O71 C87 1.235 . S
O72 Fe66 2.032 . S
O72 C73 1.278 1_565 S
C73 O72 1.278 1_545 S
C73 O75 1.235 . S
C74 O79 1.287 . S
C74 O80 1.255 . S
O75 Fe67 1.997 1_545 S
O75 C73 1.235 . S
C76 O82 1.287 . S
C76 O83 1.255 . S
O77 Fe66 1.976 1_455 S
O77 C84 1.287 . S
O78 Fe67 1.996 1_455 S
O78 C84 1.255 . S
O79 Fe69 1.976 . S
O79 C74 1.287 . S
O80 Fe66 1.996 . S
O80 C74 1.255 . S
C81 O85 1.295 . S
C81 O86 1.235 . S
O82 Fe67 1.976 . S
O82 C76 1.287 . S
O83 Fe69 1.996 . S
O83 C76 1.255 . S
C84 O77 1.287 . S
C84 O78 1.255 . S
O85 Fe67 2.002 . S
O85 C81 1.295 . S
O86 Fe69 1.997 . S
O86 C81 1.235 . S
C87 O70 1.295 . S
C87 O71 1.235 . S
Fe88 O90 1.918 . S
Fe88 O93 1.997 . S
Fe88 O94 2.002 . S
Fe88 O99 1.976 . S
Fe88 O102 1.996 . S
Fe89 O90 1.918 . S
Fe89 O97 1.997 . S
Fe89 O100 1.996 . S
Fe89 O104 1.976 1_545 S
Fe89 O107 2.002 . S
O90 Fe88 1.918 . S
O90 Fe89 1.918 . S
O90 Fe91 1.918 . S
Fe91 O90 1.918 . S
Fe91 O92 2.002 . S
Fe91 O101 1.976 . S
Fe91 O105 1.996 1_545 S
Fe91 O108 1.997 . S
O92 Fe91 2.002 . S
O92 C109 1.295 . S
O93 Fe88 1.997 . S
O93 C109 1.235 . S
O94 Fe88 2.002 . S
O94 C95 1.295 . S
C95 O94 1.295 . S
C95 O97 1.235 . S
C96 O101 1.287 . S
C96 O102 1.255 . S
O97 Fe89 1.997 . S
O97 C95 1.235 . S
C98 O104 1.287 . S
C98 O105 1.255 . S
O99 Fe88 1.976 . S
O99 C106 1.287 . S
O100 Fe89 1.996 . S
O100 C106 1.255 . S
O101 Fe91 1.976 . S
O101 C96 1.287 . S
O102 Fe88 1.996 . S
O102 C96 1.255 . S
C103 O107 1.295 . S
C103 O108 1.235 . S
O104 Fe89 1.976 1_565 S
O104 C98 1.287 . S
O105 Fe91 1.996 1_565 S
O105 C98 1.255 . S
C106 O99 1.287 . S
C106 O100 1.255 . S
O107 Fe89 2.002 . S
O107 C103 1.295 . S
O108 Fe91 1.997 . S
O108 C103 1.235 . S
C109 O92 1.295 . S
C109 O93 1.235 . S
Fe110 O112 1.918 . S
Fe110 O115 1.997 . S
Fe110 O116 2.032 . S
Fe110 O121 1.976 1_565 S
Fe110 O124 1.996 . S
Fe111 O112 1.918 . S
Fe111 O119 1.997 1_556 S
Fe111 O122 1.996 1_565 S
Fe111 O126 1.976 . S
Fe111 O129 2.002 . S
O112 Fe110 1.918 . S
O112 Fe111 1.918 . S
O112 Fe113 1.918 . S
Fe113 O112 1.918 . S
Fe113 O114 2.002 . S
Fe113 O123 1.976 . S
Fe113 O127 1.996 . S
Fe113 O130 1.997 . S
O114 Fe113 2.002 . S
O114 C131 1.295 . S
O115 Fe110 1.997 . S
O115 C131 1.235 . S
O116 Fe110 2.032 . S
O116 C117 1.278 1_556 S
C117 O116 1.278 1_554 S
C117 O119 1.235 . S
C118 O123 1.287 . S
C118 O124 1.255 . S
O119 Fe111 1.997 1_554 S
O119 C117 1.235 . S
C120 O126 1.287 . S
C120 O127 1.255 . S
O121 Fe110 1.976 1_545 S
O121 C128 1.287 . S
O122 Fe111 1.996 1_545 S
O122 C128 1.255 . S
O123 Fe113 1.976 . S
O123 C118 1.287 . S
O124 Fe110 1.996 . S
O124 C118 1.255 . S
C125 O129 1.295 . S
C125 O130 1.235 . S
O126 Fe111 1.976 . S
O126 C120 1.287 . S
O127 Fe113 1.996 . S
O127 C120 1.255 . S
C128 O121 1.287 . S
C128 O122 1.255 . S
O129 Fe111 2.002 . S
O129 C125 1.295 . S
O130 Fe113 1.997 . S
O130 C125 1.235 . S
C131 O114 1.295 . S
C131 O115 1.235 . S
Fe132 O134 1.918 . S
Fe132 O137 1.997 . S
Fe132 O138 2.002 . S
Fe132 O143 1.976 . S
Fe132 O146 1.996 . S
Fe133 O134 1.918 . S
Fe133 O141 1.997 . S
Fe133 O144 1.996 . S
Fe133 O148 1.976 . S
Fe133 O151 2.002 . S
O134 Fe132 1.918 . S
O134 Fe133 1.918 . S
O134 Fe135 1.918 . S
Fe135 O134 1.918 . S
Fe135 O136 2.002 . S
Fe135 O145 1.976 . S
Fe135 O149 1.996 . S
Fe135 O152 1.997 . S
O136 Fe135 2.002 . S
O136 C153 1.295 . S
O137 Fe132 1.997 . S
O137 C153 1.235 . S
O138 Fe132 2.002 . S
O138 C139 1.295 . S
C139 O138 1.295 . S
C139 O141 1.235 . S
C140 O145 1.287 . S
C140 O146 1.255 . S
O141 Fe133 1.997 . S
O141 C139 1.235 . S
C142 O148 1.287 . S
C142 O149 1.255 . S
O143 Fe132 1.976 . S
O143 C150 1.287 . S
O144 Fe133 1.996 . S
O144 C150 1.255 . S
O145 Fe135 1.976 . S
O145 C140 1.287 . S
O146 Fe132 1.996 . S
O146 C140 1.255 . S
C147 O151 1.295 . S
C147 O152 1.235 . S
O148 Fe133 1.976 . S
O148 C142 1.287 . S
O149 Fe135 1.996 . S
O149 C142 1.255 . S
C150 O143 1.287 . S
C150 O144 1.255 . S
O151 Fe133 2.002 . S
O151 C147 1.295 . S
O152 Fe135 1.997 . S
O152 C147 1.235 . S
C153 O136 1.295 . S
C153 O137 1.235 . S
Fe154 O156 1.918 . S
Fe154 O159 1.997 . S
Fe154 O160 2.002 . S
Fe154 O165 1.976 . S
Fe154 O168 1.996 . S
Fe155 O156 1.918 . S
Fe155 O163 1.997 . S
Fe155 O166 1.996 . S
Fe155 O170 1.976 . S
Fe155 O173 2.032 . S
O156 Fe154 1.918 . S
O156 Fe155 1.918 . S
O156 Fe157 1.918 . S
Fe157 O156 1.918 . S
Fe157 O158 2.002 . S
Fe157 O167 1.976 . S
Fe157 O171 1.996 . S
Fe157 O174 1.997 1_554 S
O158 Fe157 2.002 . S
O158 C175 1.295 . S
O159 Fe154 1.997 . S
O159 C175 1.235 . S
O160 Fe154 2.002 . S
O160 C161 1.295 . S
C161 O160 1.295 . S
C161 O163 1.235 . S
C162 O167 1.287 . S
C162 O168 1.255 . S
O163 Fe155 1.997 . S
O163 C161 1.235 . S
C164 O170 1.287 . S
C164 O171 1.255 . S
O165 Fe154 1.976 . S
O165 C172 1.287 . S
O166 Fe155 1.996 . S
O166 C172 1.255 . S
O167 Fe157 1.976 . S
O167 C162 1.287 . S
O168 Fe154 1.996 . S
O168 C162 1.255 . S
C169 O173 1.278 1_556 S
C169 O174 1.235 . S
O170 Fe155 1.976 . S
O170 C164 1.287 . S
O171 Fe157 1.996 . S
O171 C164 1.255 . S
C172 O165 1.287 . S
C172 O166 1.255 . S
O173 Fe155 2.032 . S
O173 C169 1.278 1_554 S
O174 Fe157 1.997 1_556 S
O174 C169 1.235 . S
C175 O158 1.295 . S
C175 O159 1.235 . S
Fe176 O178 1.918 . S
Fe176 O181 1.997 . S
Fe176 O182 2.002 . S
Fe176 O187 1.976 . S
Fe176 O190 1.996 . S
Fe177 O178 1.918 . S
Fe177 O185 1.997 . S
Fe177 O188 1.996 . S
Fe177 O192 1.976 1_554 S
Fe177 O195 2.002 . S
O178 Fe176 1.918 . S
O178 Fe177 1.918 . S
O178 Fe179 1.918 . S
Fe179 O178 1.918 . S
Fe179 O180 2.002 . S
Fe179 O189 1.976 . S
Fe179 O193 1.996 1_554 S
Fe179 O196 1.997 . S
O180 Fe179 2.002 . S
O180 C197 1.295 . S
O181 Fe176 1.997 . S
O181 C197 1.235 . S
O182 Fe176 2.002 . S
O182 C183 1.295 . S
C183 O182 1.295 . S
C183 O185 1.235 . S
C184 O189 1.287 . S
C184 O190 1.255 . S
O185 Fe177 1.997 . S
O185 C183 1.235 . S
C186 O192 1.287 . S
C186 O193 1.255 . S
O187 Fe176 1.976 . S
O187 C194 1.287 . S
O188 Fe177 1.996 . S
O188 C194 1.255 . S
O189 Fe179 1.976 . S
O189 C184 1.287 . S
O190 Fe176 1.996 . S
O190 C184 1.255 . S
C191 O195 1.295 . S
C191 O196 1.235 . S
O192 Fe177 1.976 1_556 S
O192 C186 1.287 . S
O193 Fe179 1.996 1_556 S
O193 C186 1.255 . S
C194 O187 1.287 . S
C194 O188 1.255 . S
O195 Fe177 2.002 . S
O195 C191 1.295 . S
O196 Fe179 1.997 . S
O196 C191 1.235 . S
C197 O180 1.295 . S
C197 O181 1.235 . S
Fe198 O200 1.918 . S
Fe198 O203 1.997 1_655 S
Fe198 O204 2.002 . S
Fe198 O209 1.976 . S
Fe198 O212 1.996 1_556 S
Fe199 O200 1.918 . S
Fe199 O207 1.997 . S
Fe199 O210 1.996 . S
Fe199 O214 1.976 . S
Fe199 O217 2.002 . S
O200 Fe198 1.918 . S
O200 Fe199 1.918 . S
O200 Fe201 1.918 . S
Fe201 O200 1.918 . S
Fe201 O202 2.032 . S
Fe201 O211 1.976 1_556 S
Fe201 O215 1.996 . S
Fe201 O218 1.997 . S
O202 Fe201 2.032 . S
O202 C219 1.278 1_655 S
O203 Fe198 1.997 1_455 S
O203 C219 1.235 . S
O204 Fe198 2.002 . S
O204 C205 1.295 . S
C205 O204 1.295 . S
C205 O207 1.235 . S
C206 O211 1.287 . S
C206 O212 1.255 . S
O207 Fe199 1.997 . S
O207 C205 1.235 . S
C208 O214 1.287 . S
C208 O215 1.255 . S
O209 Fe198 1.976 . S
O209 C216 1.287 . S
O210 Fe199 1.996 . S
O210 C216 1.255 . S
O211 Fe201 1.976 1_554 S
O211 C206 1.287 . S
O212 Fe198 1.996 1_554 S
O212 C206 1.255 . S
C213 O217 1.295 . S
C213 O218 1.235 . S
O214 Fe199 1.976 . S
O214 C208 1.287 . S
O215 Fe201 1.996 . S
O215 C208 1.255 . S
C216 O209 1.287 . S
C216 O210 1.255 . S
O217 Fe199 2.002 . S
O217 C213 1.295 . S
O218 Fe201 1.997 . S
O218 C213 1.235 . S
C219 O202 1.278 1_455 S
C219 O203 1.235 . S
Fe220 O222 1.918 . S
Fe220 O225 1.997 . S
Fe220 O226 2.002 . S
Fe220 O231 1.976 . S
Fe220 O234 1.996 . S
Fe221 O222 1.918 . S
Fe221 O229 1.997 . S
Fe221 O232 1.996 . S
Fe221 O236 1.976 . S
Fe221 O239 2.002 . S
O222 Fe220 1.918 . S
O222 Fe221 1.918 . S
O222 Fe223 1.918 . S
Fe223 O222 1.918 . S
Fe223 O224 2.002 . S
Fe223 O233 1.976 . S
Fe223 O237 1.996 . S
Fe223 O240 1.997 . S
O224 Fe223 2.002 . S
O224 C241 1.295 . S
O225 Fe220 1.997 . S
O225 C241 1.235 . S
O226 Fe220 2.002 . S
O226 C227 1.295 . S
C227 O226 1.295 . S
C227 O229 1.235 . S
C228 O233 1.287 . S
C228 O234 1.255 . S
O229 Fe221 1.997 . S
O229 C227 1.235 . S
C230 O236 1.287 . S
C230 O237 1.255 . S
O231 Fe220 1.976 . S
O231 C238 1.287 . S
O232 Fe221 1.996 . S
O232 C238 1.255 . S
O233 Fe223 1.976 . S
O233 C228 1.287 . S
O234 Fe220 1.996 . S
O234 C228 1.255 . S
C235 O239 1.295 . S
C235 O240 1.235 . S
O236 Fe221 1.976 . S
O236 C230 1.287 . S
O237 Fe223 1.996 . S
O237 C230 1.255 . S
C238 O231 1.287 . S
C238 O232 1.255 . S
O239 Fe221 2.002 . S
O239 C235 1.295 . S
O240 Fe223 1.997 . S
O240 C235 1.235 . S
C241 O224 1.295 . S
C241 O225 1.235 . S
Fe242 O244 1.918 . S
Fe242 O247 1.997 . S
Fe242 O248 2.032 . S
Fe242 O253 1.976 . S
Fe242 O256 1.996 . S
Fe243 O244 1.918 . S
Fe243 O251 1.997 1_455 S
Fe243 O254 1.996 . S
Fe243 O258 1.976 . S
Fe243 O261 2.002 . S
O244 Fe242 1.918 . S
O244 Fe243 1.918 . S
O244 Fe245 1.918 . S
Fe245 O244 1.918 . S
Fe245 O246 2.002 . S
Fe245 O255 1.976 . S
Fe245 O259 1.996 . S
Fe245 O262 1.997 . S
O246 Fe245 2.002 . S
O246 C263 1.295 . S
O247 Fe242 1.997 . S
O247 C263 1.235 . S
O248 Fe242 2.032 . S
O248 C249 1.278 1_455 S
C249 O248 1.278 1_655 S
C249 O251 1.235 . S
C250 O255 1.287 . S
C250 O256 1.255 . S
O251 Fe243 1.997 1_655 S
O251 C249 1.235 . S
C252 O258 1.287 . S
C252 O259 1.255 . S
O253 Fe242 1.976 . S
O253 C260 1.287 . S
O254 Fe243 1.996 . S
O254 C260 1.255 . S
O255 Fe245 1.976 . S
O255 C250 1.287 . S
O256 Fe242 1.996 . S
O256 C250 1.255 . S
C257 O261 1.295 . S
C257 O262 1.235 . S
O258 Fe243 1.976 . S
O258 C252 1.287 . S
O259 Fe245 1.996 . S
O259 C252 1.255 . S
C260 O253 1.287 . S
C260 O254 1.255 . S
O261 Fe243 2.002 . S
O261 C257 1.295 . S
O262 Fe245 1.997 . S
O262 C257 1.235 . S
C263 O246 1.295 . S
C263 O247 1.235 . S
Fe264 O266 1.918 . S
Fe264 O269 1.997 . S
Fe264 O270 2.002 . S
Fe264 O275 1.976 . S
Fe264 O278 1.996 . S
Fe265 O266 1.918 . S
Fe265 O273 1.997 . S
Fe265 O276 1.996 . S
Fe265 O280 1.976 1_655 S
Fe265 O283 2.002 . S
O266 Fe264 1.918 . S
O266 Fe265 1.918 . S
O266 Fe267 1.918 . S
Fe267 O266 1.918 . S
Fe267 O268 2.002 . S
Fe267 O277 1.976 . S
Fe267 O281 1.996 1_655 S
Fe267 O284 1.997 . S
O268 Fe267 2.002 . S
O268 C285 1.295 . S
O269 Fe264 1.997 . S
O269 C285 1.235 . S
O270 Fe264 2.002 . S
O270 C271 1.295 . S
C271 O270 1.295 . S
C271 O273 1.235 . S
C272 O277 1.287 . S
C272 O278 1.255 . S
O273 Fe265 1.997 . S
O273 C271 1.235 . S
C274 O280 1.287 . S
C274 O281 1.255 . S
O275 Fe264 1.976 . S
O275 C282 1.287 . S
O276 Fe265 1.996 . S
O276 C282 1.255 . S
O277 Fe267 1.976 . S
O277 C272 1.287 . S
O278 Fe264 1.996 . S
O278 C272 1.255 . S
C279 O283 1.295 . S
C279 O284 1.235 . S
O280 Fe265 1.976 1_455 S
O280 C274 1.287 . S
O281 Fe267 1.996 1_455 S
O281 C274 1.255 . S
C282 O275 1.287 . S
C282 O276 1.255 . S
O283 Fe265 2.002 . S
O283 C279 1.295 . S
O284 Fe267 1.997 . S
O284 C279 1.235 . S
C285 O268 1.295 . S
C285 O269 1.235 . S
Fe286 O288 1.918 . S
Fe286 O291 1.997 . S
Fe286 O292 2.002 . S
Fe286 O297 1.976 . S
Fe286 O300 1.996 . S
Fe287 O288 1.918 . S
Fe287 O295 1.997 . S
Fe287 O298 1.996 . S
Fe287 O302 1.976 . S
Fe287 O305 2.002 . S
O288 Fe286 1.918 . S
O288 Fe287 1.918 . S
O288 Fe289 1.918 . S
Fe289 O288 1.918 . S
Fe289 O290 2.002 . S
Fe289 O299 1.976 . S
Fe289 O303 1.996 . S
Fe289 O306 1.997 . S
O290 Fe289 2.002 . S
O290 C307 1.295 . S
O291 Fe286 1.997 . S
O291 C307 1.235 . S
O292 Fe286 2.002 . S
O292 C293 1.295 . S
C293 O292 1.295 . S
C293 O295 1.235 . S
C294 O299 1.287 . S
C294 O300 1.255 . S
O295 Fe287 1.997 . S
O295 C293 1.235 . S
C296 O302 1.287 . S
C296 O303 1.255 . S
O297 Fe286 1.976 . S
O297 C304 1.287 . S
O298 Fe287 1.996 . S
O298 C304 1.255 . S
O299 Fe289 1.976 . S
O299 C294 1.287 . S
O300 Fe286 1.996 . S
O300 C294 1.255 . S
C301 O305 1.295 . S
C301 O306 1.235 . S
O302 Fe287 1.976 . S
O302 C296 1.287 . S
O303 Fe289 1.996 . S
O303 C296 1.255 . S
C304 O297 1.287 . S
C304 O298 1.255 . S
O305 Fe287 2.002 . S
O305 C301 1.295 . S
O306 Fe289 1.997 . S
O306 C301 1.235 . S
C307 O290 1.295 . S
C307 O291 1.235 . S
Fe308 O310 1.918 . S
Fe308 O313 1.997 . S
Fe308 O314 2.002 . S
Fe308 O319 1.976 . S
Fe308 O322 1.996 . S
Fe309 O310 1.918 . S
Fe309 O317 1.997 . S
Fe309 O320 1.996 . S
Fe309 O324 1.976 . S
Fe309 O327 2.032 . S
O310 Fe308 1.918 . S
O310 Fe309 1.918 . S
O310 Fe311 1.918 . S
Fe311 O310 1.918 . S
Fe311 O312 2.002 . S
Fe311 O321 1.976 . S
Fe311 O325 1.996 . S
Fe311 O328 1.997 1_565 S
O312 Fe311 2.002 . S
O312 C329 1.295 . S
O313 Fe308 1.997 . S
O313 C329 1.235 . S
O314 Fe308 2.002 . S
O314 C315 1.295 . S
C315 O314 1.295 . S
C315 O317 1.235 . S
C316 O321 1.287 . S
C316 O322 1.255 . S
O317 Fe309 1.997 . S
O317 C315 1.235 . S
C318 O324 1.287 . S
C318 O325 1.255 . S
O319 Fe308 1.976 . S
O319 C326 1.287 . S
O320 Fe309 1.996 . S
O320 C326 1.255 . S
O321 Fe311 1.976 . S
O321 C316 1.287 . S
O322 Fe308 1.996 . S
O322 C316 1.255 . S
C323 O327 1.278 1_545 S
C323 O328 1.235 . S
O324 Fe309 1.976 . S
O324 C318 1.287 . S
O325 Fe311 1.996 . S
O325 C318 1.255 . S
C326 O319 1.287 . S
C326 O320 1.255 . S
O327 Fe309 2.032 . S
O327 C323 1.278 1_565 S
O328 Fe311 1.997 1_545 S
O328 C323 1.235 . S
C329 O312 1.295 . S
C329 O313 1.235 . S
Fe330 O332 1.918 . S
Fe330 O335 1.997 . S
Fe330 O336 2.002 . S
Fe330 O341 1.976 . S
Fe330 O344 1.996 . S
Fe331 O332 1.918 . S
Fe331 O339 1.997 . S
Fe331 O342 1.996 . S
Fe331 O346 1.976 1_455 S
Fe331 O349 2.032 . S
O332 Fe330 1.918 . S
O332 Fe331 1.918 . S
O332 Fe333 1.918 . S
Fe333 O332 1.918 . S
Fe333 O334 2.002 . S
Fe333 O343 1.976 . S
Fe333 O347 1.996 1_455 S
Fe333 O350 1.997 1_545 S
O334 Fe333 2.002 . S
O334 C351 1.295 . S
O335 Fe330 1.997 . S
O335 C351 1.235 . S
O336 Fe330 2.002 . S
O336 C337 1.295 . S
C337 O336 1.295 . S
C337 O339 1.235 . S
C338 O343 1.287 . S
C338 O344 1.255 . S
O339 Fe331 1.997 . S
O339 C337 1.235 . S
C340 O346 1.287 . S
C340 O347 1.255 . S
O341 Fe330 1.976 . S
O341 C348 1.287 . S
O342 Fe331 1.996 . S
O342 C348 1.255 . S
O343 Fe333 1.976 . S
O343 C338 1.287 . S
O344 Fe330 1.996 . S
O344 C338 1.255 . S
C345 O349 1.278 1_565 S
C345 O350 1.235 . S
O346 Fe331 1.976 1_655 S
O346 C340 1.287 . S
O347 Fe333 1.996 1_655 S
O347 C340 1.255 . S
C348 O341 1.287 . S
C348 O342 1.255 . S
O349 Fe331 2.032 . S
O349 C345 1.278 1_545 S
O350 Fe333 1.997 1_565 S
O350 C345 1.235 . S
C351 O334 1.295 . S
C351 O335 1.235 . S
Fe352 O354 1.918 . S
Fe352 O357 1.997 . S
Fe352 O358 2.002 . S
Fe352 O363 1.976 . S
Fe352 O366 1.996 . S
Fe353 O354 1.918 . S
Fe353 O361 1.997 . S
Fe353 O364 1.996 . S
Fe353 O368 1.976 1_565 S
Fe353 O371 2.002 . S
O354 Fe352 1.918 . S
O354 Fe353 1.918 . S
O354 Fe355 1.918 . S
Fe355 O354 1.918 . S
Fe355 O356 2.002 . S
Fe355 O365 1.976 . S
Fe355 O369 1.996 1_565 S
Fe355 O372 1.997 . S
O356 Fe355 2.002 . S
O356 C373 1.295 . S
O357 Fe352 1.997 . S
O357 C373 1.235 . S
O358 Fe352 2.002 . S
O358 C359 1.295 . S
C359 O358 1.295 . S
C359 O361 1.235 . S
C360 O365 1.287 . S
C360 O366 1.255 . S
O361 Fe353 1.997 . S
O361 C359 1.235 . S
C362 O368 1.287 . S
C362 O369 1.255 . S
O363 Fe352 1.976 . S
O363 C370 1.287 . S
O364 Fe353 1.996 . S
O364 C370 1.255 . S
O365 Fe355 1.976 . S
O365 C360 1.287 . S
O366 Fe352 1.996 . S
O366 C360 1.255 . S
C367 O371 1.295 . S
C367 O372 1.235 . S
O368 Fe353 1.976 1_545 S
O368 C362 1.287 . S
O369 Fe355 1.996 1_545 S
O369 C362 1.255 . S
C370 O363 1.287 . S
C370 O364 1.255 . S
O371 Fe353 2.002 . S
O371 C367 1.295 . S
O372 Fe355 1.997 . S
O372 C367 1.235 . S
C373 O356 1.295 . S
C373 O357 1.235 . S
Fe374 O376 1.918 . S
Fe374 O379 1.997 1_554 S
Fe374 O380 2.002 . S
Fe374 O385 1.976 . S
Fe374 O388 1.996 1_545 S
Fe375 O376 1.918 . S
Fe375 O383 1.997 . S
Fe375 O386 1.996 . S
Fe375 O390 1.976 . S
Fe375 O393 2.002 . S
O376 Fe374 1.918 . S
O376 Fe375 1.918 . S
O376 Fe377 1.918 . S
Fe377 O376 1.918 . S
Fe377 O378 2.032 . S
Fe377 O387 1.976 1_545 S
Fe377 O391 1.996 . S
Fe377 O394 1.997 . S
O378 Fe377 2.032 . S
O378 C395 1.278 1_554 S
O379 Fe374 1.997 1_556 S
O379 C395 1.235 . S
O380 Fe374 2.002 . S
O380 C381 1.295 . S
C381 O380 1.295 . S
C381 O383 1.235 . S
C382 O387 1.287 . S
C382 O388 1.255 . S
O383 Fe375 1.997 . S
O383 C381 1.235 . S
C384 O390 1.287 . S
C384 O391 1.255 . S
O385 Fe374 1.976 . S
O385 C392 1.287 . S
O386 Fe375 1.996 . S
O386 C392 1.255 . S
O387 Fe377 1.976 1_565 S
O387 C382 1.287 . S
O388 Fe374 1.996 1_565 S
O388 C382 1.255 . S
C389 O393 1.295 . S
C389 O394 1.235 . S
O390 Fe375 1.976 . S
O390 C384 1.287 . S
O391 Fe377 1.996 . S
O391 C384 1.255 . S
C392 O385 1.287 . S
C392 O386 1.255 . S
O393 Fe375 2.002 . S
O393 C389 1.295 . S
O394 Fe377 1.997 . S
O394 C389 1.235 . S
C395 O378 1.278 1_556 S
C395 O379 1.235 . S
Fe396 O398 1.918 . S
Fe396 O401 1.997 . S
Fe396 O402 2.002 . S
Fe396 O407 1.976 . S
Fe396 O410 1.996 . S
Fe397 O398 1.918 . S
Fe397 O405 1.997 . S
Fe397 O408 1.996 . S
Fe397 O412 1.976 . S
Fe397 O415 2.002 . S
O398 Fe396 1.918 . S
O398 Fe397 1.918 . S
O398 Fe399 1.918 . S
Fe399 O398 1.918 . S
Fe399 O400 2.002 . S
Fe399 O409 1.976 . S
Fe399 O413 1.996 . S
Fe399 O416 1.997 . S
O400 Fe399 2.002 . S
O400 C417 1.295 . S
O401 Fe396 1.997 . S
O401 C417 1.235 . S
O402 Fe396 2.002 . S
O402 C403 1.295 . S
C403 O402 1.295 . S
C403 O405 1.235 . S
C404 O409 1.287 . S
C404 O410 1.255 . S
O405 Fe397 1.997 . S
O405 C403 1.235 . S
C406 O412 1.287 . S
C406 O413 1.255 . S
O407 Fe396 1.976 . S
O407 C414 1.287 . S
O408 Fe397 1.996 . S
O408 C414 1.255 . S
O409 Fe399 1.976 . S
O409 C404 1.287 . S
O410 Fe396 1.996 . S
O410 C404 1.255 . S
C411 O415 1.295 . S
C411 O416 1.235 . S
O412 Fe397 1.976 . S
O412 C406 1.287 . S
O413 Fe399 1.996 . S
O413 C406 1.255 . S
C414 O407 1.287 . S
C414 O408 1.255 . S
O415 Fe397 2.002 . S
O415 C411 1.295 . S
O416 Fe399 1.997 . S
O416 C411 1.235 . S
C417 O400 1.295 . S
C417 O401 1.235 . S
Fe418 O420 1.918 . S
Fe418 O423 1.997 . S
Fe418 O424 2.002 . S
Fe418 O429 1.976 . S
Fe418 O432 1.996 . S
Fe419 O420 1.918 . S
Fe419 O427 1.997 . S
Fe419 O430 1.996 . S
Fe419 O434 1.976 . S
Fe419 O437 2.032 . S
O420 Fe418 1.918 . S
O420 Fe419 1.918 . S
O420 Fe421 1.918 . S
Fe421 O420 1.918 . S
Fe421 O422 2.002 . S
Fe421 O431 1.976 . S
Fe421 O435 1.996 . S
Fe421 O438 1.997 1_556 S
O422 Fe421 2.002 . S
O422 C439 1.295 . S
O423 Fe418 1.997 . S
O423 C439 1.235 . S
O424 Fe418 2.002 . S
O424 C425 1.295 . S
C425 O424 1.295 . S
C425 O427 1.235 . S
C426 O431 1.287 . S
C426 O432 1.255 . S
O427 Fe419 1.997 . S
O427 C425 1.235 . S
C428 O434 1.287 . S
C428 O435 1.255 . S
O429 Fe418 1.976 . S
O429 C436 1.287 . S
O430 Fe419 1.996 . S
O430 C436 1.255 . S
O431 Fe421 1.976 . S
O431 C426 1.287 . S
O432 Fe418 1.996 . S
O432 C426 1.255 . S
C433 O437 1.278 1_554 S
C433 O438 1.235 . S
O434 Fe419 1.976 . S
O434 C428 1.287 . S
O435 Fe421 1.996 . S
O435 C428 1.255 . S
C436 O429 1.287 . S
C436 O430 1.255 . S
O437 Fe419 2.032 . S
O437 C433 1.278 1_556 S
O438 Fe421 1.997 1_554 S
O438 C433 1.235 . S
C439 O422 1.295 . S
C439 O423 1.235 . S
Fe440 O442 1.918 . S
Fe440 O445 1.997 . S
Fe440 O446 2.002 . S
Fe440 O451 1.976 . S
Fe440 O454 1.996 . S
Fe441 O442 1.918 . S
Fe441 O449 1.997 . S
Fe441 O452 1.996 . S
Fe441 O456 1.976 1_556 S
Fe441 O459 2.002 . S
O442 Fe440 1.918 . S
O442 Fe441 1.918 . S
O442 Fe443 1.918 . S
Fe443 O442 1.918 . S
Fe443 O444 2.002 . S
Fe443 O453 1.976 . S
Fe443 O457 1.996 1_556 S
Fe443 O460 1.997 . S
O444 Fe443 2.002 . S
O444 C461 1.295 . S
O445 Fe440 1.997 . S
O445 C461 1.235 . S
O446 Fe440 2.002 . S
O446 C447 1.295 . S
C447 O446 1.295 . S
C447 O449 1.235 . S
C448 O453 1.287 . S
C448 O454 1.255 . S
O449 Fe441 1.997 . S
O449 C447 1.235 . S
C450 O456 1.287 . S
C450 O457 1.255 . S
O451 Fe440 1.976 . S
O451 C458 1.287 . S
O452 Fe441 1.996 . S
O452 C458 1.255 . S
O453 Fe443 1.976 . S
O453 C448 1.287 . S
O454 Fe440 1.996 . S
O454 C448 1.255 . S
C455 O459 1.295 . S
C455 O460 1.235 . S
O456 Fe441 1.976 1_554 S
O456 C450 1.287 . S
O457 Fe443 1.996 1_554 S
O457 C450 1.255 . S
C458 O451 1.287 . S
C458 O452 1.255 . S
O459 Fe441 2.002 . S
O459 C455 1.295 . S
O460 Fe443 1.997 . S
O460 C455 1.235 . S
C461 O444 1.295 . S
C461 O445 1.235 . S
Fe462 O464 1.918 . S
Fe462 O467 1.997 1_455 S
Fe462 O468 2.002 . S
Fe462 O473 1.976 . S
Fe462 O476 1.996 1_554 S
Fe463 O464 1.918 . S
Fe463 O471 1.997 . S
Fe463 O474 1.996 . S
Fe463 O478 1.976 . S
Fe463 O481 2.002 . S
O464 Fe462 1.918 . S
O464 Fe463 1.918 . S
O464 Fe465 1.918 . S
Fe465 O464 1.918 . S
Fe465 O466 2.032 . S
Fe465 O475 1.976 1_554 S
Fe465 O479 1.996 . S
Fe465 O482 1.997 . S
O466 Fe465 2.032 . S
O466 C483 1.278 1_455 S
O467 Fe462 1.997 1_655 S
O467 C483 1.235 . S
O468 Fe462 2.002 . S
O468 C469 1.295 . S
C469 O468 1.295 . S
C469 O471 1.235 . S
C470 O475 1.287 . S
C470 O476 1.255 . S
O471 Fe463 1.997 . S
O471 C469 1.235 . S
C472 O478 1.287 . S
C472 O479 1.255 . S
O473 Fe462 1.976 . S
O473 C480 1.287 . S
O474 Fe463 1.996 . S
O474 C480 1.255 . S
O475 Fe465 1.976 1_556 S
O475 C470 1.287 . S
O476 Fe462 1.996 1_556 S
O476 C470 1.255 . S
C477 O481 1.295 . S
C477 O482 1.235 . S
O478 Fe463 1.976 . S
O478 C472 1.287 . S
O479 Fe465 1.996 . S
O479 C472 1.255 . S
C480 O473 1.287 . S
C480 O474 1.255 . S
O481 Fe463 2.002 . S
O481 C477 1.295 . S
O482 Fe465 1.997 . S
O482 C477 1.235 . S
C483 O466 1.278 1_655 S
C483 O467 1.235 . S
Fe484 O486 1.918 . S
Fe484 O489 1.997 . S
Fe484 O490 2.002 . S
Fe484 O495 1.976 . S
Fe484 O498 1.996 . S
Fe485 O486 1.918 . S
Fe485 O493 1.997 . S
Fe485 O496 1.996 . S
Fe485 O500 1.976 . S
Fe485 O503 2.002 . S
O486 Fe484 1.918 . S
O486 Fe485 1.918 . S
O486 Fe487 1.918 . S
Fe487 O486 1.918 . S
Fe487 O488 2.002 . S
Fe487 O497 1.976 . S
Fe487 O501 1.996 . S
Fe487 O504 1.997 . S
O488 Fe487 2.002 . S
O488 C505 1.295 . S
O489 Fe484 1.997 . S
O489 C505 1.235 . S
O490 Fe484 2.002 . S
O490 C491 1.295 . S
C491 O490 1.295 . S
C491 O493 1.235 . S
C492 O497 1.287 . S
C492 O498 1.255 . S
O493 Fe485 1.997 . S
O493 C491 1.235 . S
C494 O500 1.287 . S
C494 O501 1.255 . S
O495 Fe484 1.976 . S
O495 C502 1.287 . S
O496 Fe485 1.996 . S
O496 C502 1.255 . S
O497 Fe487 1.976 . S
O497 C492 1.287 . S
O498 Fe484 1.996 . S
O498 C492 1.255 . S
C499 O503 1.295 . S
C499 O504 1.235 . S
O500 Fe485 1.976 . S
O500 C494 1.287 . S
O501 Fe487 1.996 . S
O501 C494 1.255 . S
C502 O495 1.287 . S
C502 O496 1.255 . S
O503 Fe485 2.002 . S
O503 C499 1.295 . S
O504 Fe487 1.997 . S
O504 C499 1.235 . S
C505 O488 1.295 . S
C505 O489 1.235 . S
Fe506 O508 1.918 . S
Fe506 O511 1.997 . S
Fe506 O512 2.002 . S
Fe506 O517 1.976 . S
Fe506 O520 1.996 . S
Fe507 O508 1.918 . S
Fe507 O515 1.997 . S
Fe507 O518 1.996 . S
Fe507 O522 1.976 . S
Fe507 O525 2.032 . S
O508 Fe506 1.918 . S
O508 Fe507 1.918 . S
O508 Fe509 1.918 . S
Fe509 O508 1.918 . S
Fe509 O510 2.002 . S
Fe509 O519 1.976 . S
Fe509 O523 1.996 . S
Fe509 O526 1.997 1_655 S
O510 Fe509 2.002 . S
O510 C527 1.295 . S
O511 Fe506 1.997 . S
O511 C527 1.235 . S
O512 Fe506 2.002 . S
O512 C513 1.295 . S
C513 O512 1.295 . S
C513 O515 1.235 . S
C514 O519 1.287 . S
C514 O520 1.255 . S
O515 Fe507 1.997 . S
O515 C513 1.235 . S
C516 O522 1.287 . S
C516 O523 1.255 . S
O517 Fe506 1.976 . S
O517 C524 1.287 . S
O518 Fe507 1.996 . S
O518 C524 1.255 . S
O519 Fe509 1.976 . S
O519 C514 1.287 . S
O520 Fe506 1.996 . S
O520 C514 1.255 . S
C521 O525 1.278 1_455 S
C521 O526 1.235 . S
O522 Fe507 1.976 . S
O522 C516 1.287 . S
O523 Fe509 1.996 . S
O523 C516 1.255 . S
C524 O517 1.287 . S
C524 O518 1.255 . S
O525 Fe507 2.032 . S
O525 C521 1.278 1_655 S
O526 Fe509 1.997 1_455 S
O526 C521 1.235 . S
C527 O510 1.295 . S
C527 O511 1.235 . S
H528 C534 0.930 . S
H529 C537 0.930 . S
H530 C538 0.930 . S
H531 C539 0.930 . S
H532 C542 0.930 . S
H533 C543 0.930 . S
C534 H528 0.930 . S
C534 C535 1.355 . S
C534 C536 1.415 . S
C535 C534 1.355 . S
C535 C537 1.419 . S
C536 C534 1.415 . S
C536 C541 1.425 . S
C536 C543 1.409 . S
C537 H529 0.930 . S
C537 C535 1.419 . S
C537 C538 1.362 . S
C538 H530 0.930 . S
C538 C537 1.362 . S
C538 C541 1.409 . S
C539 H531 0.930 . S
C539 C540 1.355 . S
C539 C541 1.415 . S
C540 C539 1.355 . S
C540 C542 1.419 . S
C541 C536 1.425 . S
C541 C538 1.409 . S
C541 C539 1.415 . S
C542 H532 0.930 . S
C542 C540 1.419 . S
C542 C543 1.362 . S
C543 H533 0.930 . S
C543 C536 1.409 . S
C543 C542 1.362 . S
H544 C550 0.930 . S
H545 C553 0.930 . S
H546 C554 0.930 . S
H547 C555 0.930 . S
H548 C558 0.930 . S
H549 C559 0.930 . S
C550 H544 0.930 . S
C550 C551 1.355 . S
C550 C552 1.415 . S
C551 C550 1.355 . S
C551 C553 1.419 . S
C552 C550 1.415 . S
C552 C557 1.425 . S
C552 C559 1.409 . S
C553 H545 0.930 . S
C553 C551 1.419 . S
C553 C554 1.362 . S
C554 H546 0.930 . S
C554 C553 1.362 . S
C554 C557 1.409 . S
C555 H547 0.930 . S
C555 C556 1.355 . S
C555 C557 1.415 . S
C556 C555 1.355 . S
C556 C558 1.419 . S
C557 C552 1.425 . S
C557 C554 1.409 . S
C557 C555 1.415 . S
C558 H548 0.930 . S
C558 C556 1.419 . S
C558 C559 1.362 . S
C559 H549 0.930 . S
C559 C552 1.409 . S
C559 C558 1.362 . S
H560 C566 0.930 . S
H561 C569 0.930 . S
H562 C570 0.930 . S
H563 C571 0.930 . S
H564 C574 0.930 . S
H565 C575 0.930 . S
C566 H560 0.930 . S
C566 C567 1.355 . S
C566 C568 1.415 . S
C567 C566 1.355 . S
C567 C569 1.419 . S
C568 C566 1.415 . S
C568 C573 1.425 . S
C568 C575 1.409 1_545 S
C569 H561 0.930 . S
C569 C567 1.419 . S
C569 C570 1.362 . S
C570 H562 0.930 . S
C570 C569 1.362 . S
C570 C573 1.409 . S
C571 H563 0.930 . S
C571 C572 1.355 1_545 S
C571 C573 1.415 . S
C572 C571 1.355 1_565 S
C572 C574 1.419 . S
C573 C568 1.425 . S
C573 C570 1.409 . S
C573 C571 1.415 . S
C574 H564 0.930 . S
C574 C572 1.419 . S
C574 C575 1.362 . S
C575 H565 0.930 . S
C575 C568 1.409 1_565 S
C575 C574 1.362 . S
H576 C582 0.930 . S
H577 C585 0.930 . S
H578 C586 0.930 . S
H579 C587 0.930 . S
H580 C590 0.930 . S
H581 C591 0.930 . S
C582 H576 0.930 . S
C582 C583 1.355 . S
C582 C584 1.415 . S
C583 C582 1.355 . S
C583 C585 1.419 . S
C584 C582 1.415 . S
C584 C589 1.425 . S
C584 C591 1.409 . S
C585 H577 0.930 . S
C585 C583 1.419 . S
C585 C586 1.362 1_565 S
C586 H578 0.930 . S
C586 C585 1.362 1_545 S
C586 C589 1.409 1_545 S
C587 H579 0.930 . S
C587 C588 1.355 . S
C587 C589 1.415 1_545 S
C588 C587 1.355 . S
C588 C590 1.419 1_545 S
C589 C584 1.425 . S
C589 C586 1.409 1_565 S
C589 C587 1.415 1_565 S
C590 H580 0.930 . S
C590 C588 1.419 1_565 S
C590 C591 1.362 . S
C591 H581 0.930 . S
C591 C584 1.409 . S
C591 C590 1.362 . S
H592 C598 0.930 . S
H593 C601 0.930 . S
H594 C602 0.930 . S
H595 C603 0.930 . S
H596 C606 0.930 . S
H597 C607 0.930 . S
C598 H592 0.930 . S
C598 C599 1.355 . S
C598 C600 1.415 . S
C599 C598 1.355 . S
C599 C601 1.419 . S
C600 C598 1.415 . S
C600 C605 1.425 . S
C600 C607 1.409 . S
C601 H593 0.930 . S
C601 C599 1.419 . S
C601 C602 1.362 . S
C602 H594 0.930 . S
C602 C601 1.362 . S
C602 C605 1.409 . S
C603 H595 0.930 . S
C603 C604 1.355 . S
C603 C605 1.415 . S
C604 C603 1.355 . S
C604 C606 1.419 . S
C605 C600 1.425 . S
C605 C602 1.409 . S
C605 C603 1.415 . S
C606 H596 0.930 . S
C606 C604 1.419 . S
C606 C607 1.362 . S
C607 H597 0.930 . S
C607 C600 1.409 . S
C607 C606 1.362 . S
H608 C614 0.930 . S
H609 C617 0.930 . S
H610 C618 0.930 . S
H611 C619 0.930 . S
H612 C622 0.930 . S
H613 C623 0.930 . S
C614 H608 0.930 . S
C614 C615 1.355 . S
C614 C616 1.415 . S
C615 C614 1.355 . S
C615 C617 1.419 . S
C616 C614 1.415 . S
C616 C621 1.425 . S
C616 C623 1.409 1_556 S
C617 H609 0.930 . S
C617 C615 1.419 . S
C617 C618 1.362 . S
C618 H610 0.930 . S
C618 C617 1.362 . S
C618 C621 1.409 . S
C619 H611 0.930 . S
C619 C620 1.355 1_556 S
C619 C621 1.415 . S
C620 C619 1.355 1_554 S
C620 C622 1.419 . S
C621 C616 1.425 . S
C621 C618 1.409 . S
C621 C619 1.415 . S
C622 H612 0.930 . S
C622 C620 1.419 . S
C622 C623 1.362 . S
C623 H613 0.930 . S
C623 C616 1.409 1_554 S
C623 C622 1.362 . S
H624 C630 0.930 . S
H625 C633 0.930 . S
H626 C634 0.930 . S
H627 C635 0.930 . S
H628 C638 0.930 . S
H629 C639 0.930 . S
C630 H624 0.930 . S
C630 C631 1.355 . S
C630 C632 1.415 . S
C631 C630 1.355 . S
C631 C633 1.419 . S
C632 C630 1.415 . S
C632 C637 1.425 . S
C632 C639 1.409 . S
C633 H625 0.930 . S
C633 C631 1.419 . S
C633 C634 1.362 . S
C634 H626 0.930 . S
C634 C633 1.362 . S
C634 C637 1.409 . S
C635 H627 0.930 . S
C635 C636 1.355 . S
C635 C637 1.415 . S
C636 C635 1.355 . S
C636 C638 1.419 . S
C637 C632 1.425 . S
C637 C634 1.409 . S
C637 C635 1.415 . S
C638 H628 0.930 . S
C638 C636 1.419 . S
C638 C639 1.362 . S
C639 H629 0.930 . S
C639 C632 1.409 . S
C639 C638 1.362 . S
H640 C646 0.930 1_556 S
H641 C649 0.930 . S
H642 C650 0.930 . S
H643 C651 0.930 . S
H644 C654 0.930 . S
H645 C655 0.930 . S
C646 H640 0.930 1_554 S
C646 C647 1.355 . S
C646 C648 1.415 . S
C647 C646 1.355 . S
C647 C649 1.419 . S
C648 C646 1.415 . S
C648 C653 1.425 . S
C648 C655 1.409 1_554 S
C649 H641 0.930 . S
C649 C647 1.419 . S
C649 C650 1.362 . S
C650 H642 0.930 . S
C650 C649 1.362 . S
C650 C653 1.409 . S
C651 H643 0.930 . S
C651 C652 1.355 1_554 S
C651 C653 1.415 . S
C652 C651 1.355 1_556 S
C652 C654 1.419 . S
C653 C648 1.425 . S
C653 C650 1.409 . S
C653 C651 1.415 . S
C654 H644 0.930 . S
C654 C652 1.419 . S
C654 C655 1.362 . S
C655 H645 0.930 . S
C655 C648 1.409 1_556 S
C655 C654 1.362 . S
H656 C662 0.930 . S
H657 C665 0.930 . S
H658 C666 0.930 . S
H659 C667 0.930 . S
H660 C670 0.930 . S
H661 C671 0.930 . S
C662 H656 0.930 . S
C662 C663 1.355 . S
C662 C664 1.415 . S
C663 C662 1.355 . S
C663 C665 1.419 . S
C664 C662 1.415 . S
C664 C669 1.425 . S
C664 C671 1.409 . S
C665 H657 0.930 . S
C665 C663 1.419 . S
C665 C666 1.362 . S
C666 H658 0.930 . S
C666 C665 1.362 . S
C666 C669 1.409 . S
C667 H659 0.930 . S
C667 C668 1.355 . S
C667 C669 1.415 . S
C668 C667 1.355 . S
C668 C670 1.419 . S
C669 C664 1.425 . S
C669 C666 1.409 . S
C669 C667 1.415 . S
C670 H660 0.930 . S
C670 C668 1.419 . S
C670 C671 1.362 . S
C671 H661 0.930 . S
C671 C664 1.409 . S
C671 C670 1.362 . S
H672 C678 0.930 . S
H673 C681 0.930 . S
H674 C682 0.930 . S
H675 C683 0.930 . S
H676 C686 0.930 . S
H677 C687 0.930 . S
C678 H672 0.930 . S
C678 C679 1.355 . S
C678 C680 1.415 . S
C679 C678 1.355 . S
C679 C681 1.419 . S
C680 C678 1.415 . S
C680 C685 1.425 . S
C680 C687 1.409 1_655 S
C681 H673 0.930 . S
C681 C679 1.419 . S
C681 C682 1.362 . S
C682 H674 0.930 . S
C682 C681 1.362 . S
C682 C685 1.409 . S
C683 H675 0.930 . S
C683 C684 1.355 1_655 S
C683 C685 1.415 . S
C684 C683 1.355 1_455 S
C684 C686 1.419 . S
C685 C680 1.425 . S
C685 C682 1.409 . S
C685 C683 1.415 . S
C686 H676 0.930 . S
C686 C684 1.419 . S
C686 C687 1.362 . S
C687 H677 0.930 . S
C687 C680 1.409 1_455 S
C687 C686 1.362 . S
H688 C694 0.930 . S
H689 C697 0.930 . S
H690 C698 0.930 . S
H691 C699 0.930 . S
H692 C702 0.930 . S
H693 C703 0.930 . S
C694 H688 0.930 . S
C694 C695 1.355 . S
C694 C696 1.415 . S
C695 C694 1.355 . S
C695 C697 1.419 . S
C696 C694 1.415 . S
C696 C701 1.425 . S
C696 C703 1.409 . S
C697 H689 0.930 . S
C697 C695 1.419 . S
C697 C698 1.362 . S
C698 H690 0.930 . S
C698 C697 1.362 . S
C698 C701 1.409 . S
C699 H691 0.930 . S
C699 C700 1.355 . S
C699 C701 1.415 . S
C700 C699 1.355 . S
C700 C702 1.419 . S
C701 C696 1.425 . S
C701 C698 1.409 . S
C701 C699 1.415 . S
C702 H692 0.930 . S
C702 C700 1.419 . S
C702 C703 1.362 . S
C703 H693 0.930 . S
C703 C696 1.409 . S
C703 C702 1.362 . S
H704 C710 0.930 . S
H705 C713 0.930 . S
H706 C714 0.930 . S
H707 C715 0.930 . S
H708 C718 0.930 . S
H709 C719 0.930 . S
C710 H704 0.930 . S
C710 C711 1.355 . S
C710 C712 1.415 . S
C711 C710 1.355 . S
C711 C713 1.419 . S
C712 C710 1.415 . S
C712 C717 1.425 . S
C712 C719 1.409 1_455 S
C713 H705 0.930 . S
C713 C711 1.419 . S
C713 C714 1.362 . S
C714 H706 0.930 . S
C714 C713 1.362 . S
C714 C717 1.409 . S
C715 H707 0.930 . S
C715 C716 1.355 1_455 S
C715 C717 1.415 . S
C716 C715 1.355 1_655 S
C716 C718 1.419 . S
C717 C712 1.425 . S
C717 C714 1.409 . S
C717 C715 1.415 . S
C718 H708 0.930 . S
C718 C716 1.419 . S
C718 C719 1.362 . S
C719 H709 0.930 . S
C719 C712 1.409 1_655 S
C719 C718 1.362 . S
H720 C726 0.930 . S
H721 C729 0.930 . S
H722 C730 0.930 . S
H723 C731 0.930 . S
H724 C734 0.930 . S
H725 C735 0.930 . S
C726 H720 0.930 . S
C726 C727 1.355 . S
C726 C728 1.415 . S
C727 C726 1.355 . S
C727 C729 1.419 . S
C728 C726 1.415 . S
C728 C733 1.425 . S
C728 C735 1.409 . S
C729 H721 0.930 . S
C729 C727 1.419 . S
C729 C730 1.362 . S
C730 H722 0.930 . S
C730 C729 1.362 . S
C730 C733 1.409 . S
C731 H723 0.930 . S
C731 C732 1.355 . S
C731 C733 1.415 . S
C732 C731 1.355 . S
C732 C734 1.419 . S
C733 C728 1.425 . S
C733 C730 1.409 . S
C733 C731 1.415 . S
C734 H724 0.930 . S
C734 C732 1.419 . S
C734 C735 1.362 . S
C735 H725 0.930 . S
C735 C728 1.409 . S
C735 C734 1.362 . S
H736 C742 0.930 . S
H737 C745 0.930 . S
H738 C746 0.930 . S
H739 C747 0.930 . S
H740 C750 0.930 . S
H741 C751 0.930 . S
C742 H736 0.930 . S
C742 C743 1.355 . S
C742 C744 1.415 . S
C743 C742 1.355 . S
C743 C745 1.419 . S
C744 C742 1.415 . S
C744 C749 1.425 . S
C744 C751 1.409 . S
C745 H737 0.930 . S
C745 C743 1.419 . S
C745 C746 1.362 . S
C746 H738 0.930 . S
C746 C745 1.362 . S
C746 C749 1.409 . S
C747 H739 0.930 . S
C747 C748 1.355 . S
C747 C749 1.415 . S
C748 C747 1.355 . S
C748 C750 1.419 . S
C749 C744 1.425 . S
C749 C746 1.409 . S
C749 C747 1.415 . S
C750 H740 0.930 . S
C750 C748 1.419 . S
C750 C751 1.362 . S
C751 H741 0.930 . S
C751 C744 1.409 . S
C751 C750 1.362 . S
H752 C758 0.930 . S
H753 C761 0.930 . S
H754 C762 0.930 1_545 S
H755 C763 0.930 . S
H756 C766 0.930 . S
H757 C767 0.930 . S
C758 H752 0.930 . S
C758 C759 1.355 . S
C758 C760 1.415 . S
C759 C758 1.355 . S
C759 C761 1.419 . S
C760 C758 1.415 . S
C760 C765 1.425 . S
C760 C767 1.409 . S
C761 H753 0.930 . S
C761 C759 1.419 . S
C761 C762 1.362 . S
C762 H754 0.930 1_565 S
C762 C761 1.362 . S
C762 C765 1.409 . S
C763 H755 0.930 . S
C763 C764 1.355 . S
C763 C765 1.415 1_545 S
C764 C763 1.355 . S
C764 C766 1.419 1_545 S
C765 C760 1.425 . S
C765 C762 1.409 . S
C765 C763 1.415 1_565 S
C766 H756 0.930 . S
C766 C764 1.419 1_565 S
C766 C767 1.362 . S
C767 H757 0.930 . S
C767 C760 1.409 . S
C767 C766 1.362 . S
H768 C774 0.930 . S
H769 C777 0.930 . S
H770 C778 0.930 . S
H771 C779 0.930 1_565 S
H772 C782 0.930 . S
H773 C783 0.930 . S
C774 H768 0.930 . S
C774 C775 1.355 1_545 S
C774 C776 1.415 . S
C775 C774 1.355 1_565 S
C775 C777 1.419 . S
C776 C774 1.415 . S
C776 C781 1.425 . S
C776 C783 1.409 . S
C777 H769 0.930 . S
C777 C775 1.419 . S
C777 C778 1.362 . S
C778 H770 0.930 . S
C778 C777 1.362 . S
C778 C781 1.409 1_565 S
C779 H771 0.930 1_545 S
C779 C780 1.355 . S
C779 C781 1.415 . S
C780 C779 1.355 . S
C780 C782 1.419 . S
C781 C776 1.425 . S
C781 C778 1.409 1_545 S
C781 C779 1.415 . S
C782 H772 0.930 . S
C782 C780 1.419 . S
C782 C783 1.362 . S
C783 H773 0.930 . S
C783 C776 1.409 . S
C783 C782 1.362 . S
H784 C790 0.930 . S
H785 C793 0.930 . S
H786 C794 0.930 . S
H787 C795 0.930 . S
H788 C798 0.930 . S
H789 C799 0.930 . S
C790 H784 0.930 . S
C790 C791 1.355 . S
C790 C792 1.415 . S
C791 C790 1.355 . S
C791 C793 1.419 . S
C792 C790 1.415 . S
C792 C797 1.425 . S
C792 C799 1.409 . S
C793 H785 0.930 . S
C793 C791 1.419 . S
C793 C794 1.362 . S
C794 H786 0.930 . S
C794 C793 1.362 . S
C794 C797 1.409 . S
C795 H787 0.930 . S
C795 C796 1.355 . S
C795 C797 1.415 . S
C796 C795 1.355 . S
C796 C798 1.419 . S
C797 C792 1.425 . S
C797 C794 1.409 . S
C797 C795 1.415 . S
C798 H788 0.930 . S
C798 C796 1.419 . S
C798 C799 1.362 . S
C799 H789 0.930 . S
C799 C792 1.409 . S
C799 C798 1.362 . S
H800 C806 0.930 . S
H801 C809 0.930 . S
H802 C810 0.930 . S
H803 C811 0.930 . S
H804 C814 0.930 1_556 S
H805 C815 0.930 . S
C806 H800 0.930 . S
C806 C807 1.355 . S
C806 C808 1.415 . S
C807 C806 1.355 . S
C807 C809 1.419 1_556 S
C808 C806 1.415 . S
C808 C813 1.425 1_556 S
C808 C815 1.409 . S
C809 H801 0.930 . S
C809 C807 1.419 1_554 S
C809 C810 1.362 . S
C810 H802 0.930 . S
C810 C809 1.362 . S
C810 C813 1.409 . S
C811 H803 0.930 . S
C811 C812 1.355 . S
C811 C813 1.415 . S
C812 C811 1.355 . S
C812 C814 1.419 . S
C813 C808 1.425 1_554 S
C813 C810 1.409 . S
C813 C811 1.415 . S
C814 H804 0.930 1_554 S
C814 C812 1.419 . S
C814 C815 1.362 1_554 S
C815 H805 0.930 . S
C815 C808 1.409 . S
C815 C814 1.362 1_556 S
H816 C822 0.930 . S
H817 C825 0.930 . S
H818 C826 0.930 . S
H819 C827 0.930 . S
H820 C830 0.930 . S
H821 C831 0.930 . S
C822 H816 0.930 . S
C822 C823 1.355 . S
C822 C824 1.415 . S
C823 C822 1.355 . S
C823 C825 1.419 . S
C824 C822 1.415 . S
C824 C829 1.425 . S
C824 C831 1.409 . S
C825 H817 0.930 . S
C825 C823 1.419 . S
C825 C826 1.362 . S
C826 H818 0.930 . S
C826 C825 1.362 . S
C826 C829 1.409 . S
C827 H819 0.930 . S
C827 C828 1.355 . S
C827 C829 1.415 . S
C828 C827 1.355 . S
C828 C830 1.419 . S
C829 C824 1.425 . S
C829 C826 1.409 . S
C829 C827 1.415 . S
C830 H820 0.930 . S
C830 C828 1.419 . S
C830 C831 1.362 . S
C831 H821 0.930 . S
C831 C824 1.409 . S
C831 C830 1.362 . S
H832 C838 0.930 . S
H833 C841 0.927 1_554 S
H834 C842 0.930 . S
H835 C843 0.930 . S
H836 C846 0.930 . S
H837 C847 0.930 . S
C838 H832 0.930 . S
C838 C839 1.355 . S
C838 C840 1.415 1_554 S
C839 C838 1.355 . S
C839 C841 1.411 1_554 S
C840 C838 1.415 1_556 S
C840 C845 1.425 . S
C840 C847 1.409 . S
C841 H833 0.927 1_556 S
C841 C839 1.411 1_556 S
C841 C842 1.374 . S
C842 H834 0.930 . S
C842 C841 1.374 . S
C842 C845 1.409 . S
C843 H835 0.930 . S
C843 C844 1.355 . S
C843 C845 1.415 . S
C844 C843 1.355 . S
C844 C846 1.419 . S
C845 C840 1.425 . S
C845 C842 1.409 . S
C845 C843 1.415 . S
C846 H836 0.930 . S
C846 C844 1.419 . S
C846 C847 1.362 . S
C847 H837 0.930 . S
C847 C840 1.409 . S
C847 C846 1.362 . S
H848 C854 0.930 . S
H849 C857 0.930 . S
H850 C858 0.930 . S
H851 C859 0.930 . S
H852 C862 0.930 . S
H853 C863 0.930 . S
C854 H848 0.930 . S
C854 C855 1.355 . S
C854 C856 1.415 . S
C855 C854 1.355 . S
C855 C857 1.419 . S
C856 C854 1.415 . S
C856 C861 1.425 . S
C856 C863 1.409 . S
C857 H849 0.930 . S
C857 C855 1.419 . S
C857 C858 1.362 . S
C858 H850 0.930 . S
C858 C857 1.362 . S
C858 C861 1.409 . S
C859 H851 0.930 . S
C859 C860 1.355 . S
C859 C861 1.415 . S
C860 C859 1.355 . S
C860 C862 1.419 . S
C861 C856 1.425 . S
C861 C858 1.409 . S
C861 C859 1.415 . S
C862 H852 0.930 . S
C862 C860 1.419 . S
C862 C863 1.362 . S
C863 H853 0.930 . S
C863 C856 1.409 . S
C863 C862 1.362 . S
H864 C870 0.930 . S
H865 C873 0.930 . S
H866 C874 0.930 . S
H867 C875 0.930 . S
H868 C878 0.930 1_655 S
H869 C879 0.930 . S
C870 H864 0.930 . S
C870 C871 1.355 . S
C870 C872 1.415 . S
C871 C870 1.355 . S
C871 C873 1.419 1_655 S
C872 C870 1.415 . S
C872 C877 1.425 1_655 S
C872 C879 1.409 . S
C873 H865 0.930 . S
C873 C871 1.419 1_455 S
C873 C874 1.362 . S
C874 H866 0.930 . S
C874 C873 1.362 . S
C874 C877 1.409 . S
C875 H867 0.930 . S
C875 C876 1.355 . S
C875 C877 1.415 . S
C876 C875 1.355 . S
C876 C878 1.419 . S
C877 C872 1.425 1_455 S
C877 C874 1.409 . S
C877 C875 1.415 . S
C878 H868 0.930 1_455 S
C878 C876 1.419 . S
C878 C879 1.362 1_455 S
C879 H869 0.930 . S
C879 C872 1.409 . S
C879 C878 1.362 1_655 S
H880 C886 0.930 . S
H881 C889 0.930 . S
H882 C890 0.930 . S
H883 C891 0.930 . S
H884 C894 0.930 . S
H885 C895 0.930 . S
C886 H880 0.930 . S
C886 C887 1.355 . S
C886 C888 1.415 . S
C887 C886 1.355 . S
C887 C889 1.419 . S
C888 C886 1.415 . S
C888 C893 1.425 . S
C888 C895 1.409 . S
C889 H881 0.930 . S
C889 C887 1.419 . S
C889 C890 1.362 . S
C890 H882 0.930 . S
C890 C889 1.362 . S
C890 C893 1.409 . S
C891 H883 0.930 . S
C891 C892 1.355 . S
C891 C893 1.415 . S
C892 C891 1.355 . S
C892 C894 1.419 . S
C893 C888 1.425 . S
C893 C890 1.409 . S
C893 C891 1.415 . S
C894 H884 0.930 . S
C894 C892 1.419 . S
C894 C895 1.362 . S
C895 H885 0.930 . S
C895 C888 1.409 . S
C895 C894 1.362 . S
H896 C902 0.930 1_455 S
H897 C905 0.930 . S
H898 C906 0.930 . S
H899 C907 0.930 . S
H900 C910 0.930 . S
H901 C911 0.930 . S
C902 H896 0.930 1_655 S
C902 C903 1.355 . S
C902 C904 1.415 . S
C903 C902 1.355 . S
C903 C905 1.419 . S
C904 C902 1.415 . S
C904 C909 1.425 . S
C904 C911 1.409 1_655 S
C905 H897 0.930 . S
C905 C903 1.419 . S
C905 C906 1.362 . S
C906 H898 0.930 . S
C906 C905 1.362 . S
C906 C909 1.409 . S
C907 H899 0.930 . S
C907 C908 1.355 1_655 S
C907 C909 1.415 . S
C908 C907 1.355 1_455 S
C908 C910 1.419 . S
C909 C904 1.425 . S
C909 C906 1.409 . S
C909 C907 1.415 . S
C910 H900 0.930 . S
C910 C908 1.419 . S
C910 C911 1.362 . S
C911 H901 0.930 . S
C911 C904 1.409 1_455 S
C911 C910 1.362 . S
H912 C918 0.930 . S
H913 C921 0.930 . S
H914 C922 0.930 . S
H915 C923 0.930 . S
H916 C926 0.930 . S
H917 C927 0.930 . S
C918 H912 0.930 . S
C918 C919 1.355 . S
C918 C920 1.415 . S
C919 C918 1.355 . S
C919 C921 1.419 . S
C920 C918 1.415 . S
C920 C925 1.425 . S
C920 C927 1.409 . S
C921 H913 0.930 . S
C921 C919 1.419 . S
C921 C922 1.362 . S
C922 H914 0.930 . S
C922 C921 1.362 . S
C922 C925 1.409 . S
C923 H915 0.930 . S
C923 C924 1.355 . S
C923 C925 1.415 . S
C924 C923 1.355 . S
C924 C926 1.419 . S
C925 C920 1.425 . S
C925 C922 1.409 . S
C925 C923 1.415 . S
C926 H916 0.930 . S
C926 C924 1.419 . S
C926 C927 1.362 . S
C927 H917 0.930 . S
C927 C920 1.409 . S
C927 C926 1.362 . S
H928 C934 0.930 . S
H929 C937 0.930 . S
H930 C938 0.930 . S
H931 C939 0.930 . S
H932 C942 0.930 . S
H933 C943 0.930 . S
C934 H928 0.930 . S
C934 C935 1.355 . S
C934 C936 1.415 . S
C935 C934 1.355 . S
C935 C937 1.419 . S
C936 C934 1.415 . S
C936 C941 1.425 . S
C936 C943 1.409 . S
C937 H929 0.930 . S
C937 C935 1.419 . S
C937 C938 1.362 . S
C938 H930 0.930 . S
C938 C937 1.362 . S
C938 C941 1.409 . S
C939 H931 0.930 . S
C939 C940 1.355 . S
C939 C941 1.415 . S
C940 C939 1.355 . S
C940 C942 1.419 . S
C941 C936 1.425 . S
C941 C938 1.409 . S
C941 C939 1.415 . S
C942 H932 0.930 . S
C942 C940 1.419 . S
C942 C943 1.362 . S
C943 H933 0.930 . S
C943 C936 1.409 . S
C943 C942 1.362 . S
H944 C950 0.930 . S
H945 C953 0.930 . S
H946 C954 0.930 . S
H947 C955 0.930 . S
H948 C958 0.930 . S
H949 C959 0.930 . S
C950 H944 0.930 . S
C950 C951 1.355 . S
C950 C952 1.415 . S
C951 C950 1.355 . S
C951 C953 1.419 . S
C952 C950 1.415 . S
C952 C957 1.425 . S
C952 C959 1.409 . S
C953 H945 0.930 . S
C953 C951 1.419 . S
C953 C954 1.362 . S
C954 H946 0.930 . S
C954 C953 1.362 . S
C954 C957 1.409 . S
C955 H947 0.930 . S
C955 C956 1.355 . S
C955 C957 1.415 . S
C956 C955 1.355 . S
C956 C958 1.419 . S
C957 C952 1.425 . S
C957 C954 1.409 . S
C957 C955 1.415 . S
C958 H948 0.930 . S
C958 C956 1.419 . S
C958 C959 1.362 . S
C959 H949 0.930 . S
C959 C952 1.409 . S
C959 C958 1.362 . S
H960 C966 0.930 . S
H961 C969 0.930 . S
H962 C970 0.930 . S
H963 C971 0.930 . S
H964 C974 0.930 . S
H965 C975 0.930 . S
C966 H960 0.930 . S
C966 C967 1.355 . S
C966 C968 1.415 . S
C967 C966 1.355 . S
C967 C969 1.419 . S
C968 C966 1.415 . S
C968 C973 1.425 . S
C968 C975 1.409 . S
C969 H961 0.930 . S
C969 C967 1.419 . S
C969 C970 1.362 . S
C970 H962 0.930 . S
C970 C969 1.362 . S
C970 C973 1.409 . S
C971 H963 0.930 . S
C971 C972 1.355 . S
C971 C973 1.415 . S
C972 C971 1.355 . S
C972 C974 1.419 . S
C973 C968 1.425 . S
C973 C970 1.409 . S
C973 C971 1.415 . S
C974 H964 0.930 . S
C974 C972 1.419 . S
C974 C975 1.362 . S
C975 H965 0.930 . S
C975 C968 1.409 . S
C975 C974 1.362 . S
H976 C982 0.930 . S
H977 C985 0.930 . S
H978 C986 0.930 . S
H979 C987 0.930 . S
H980 C990 0.930 . S
H981 C991 0.930 . S
C982 H976 0.930 . S
C982 C983 1.355 . S
C982 C984 1.415 . S
C983 C982 1.355 . S
C983 C985 1.419 . S
C984 C982 1.415 . S
C984 C989 1.425 . S
C984 C991 1.409 . S
C985 H977 0.930 . S
C985 C983 1.419 . S
C985 C986 1.362 . S
C986 H978 0.930 . S
C986 C985 1.362 . S
C986 C989 1.409 . S
C987 H979 0.930 . S
C987 C988 1.355 . S
C987 C989 1.415 . S
C988 C987 1.355 . S
C988 C990 1.419 . S
C989 C984 1.425 . S
C989 C986 1.409 . S
C989 C987 1.415 . S
C990 H980 0.930 . S
C990 C988 1.419 . S
C990 C991 1.362 . S
C991 H981 0.930 . S
C991 C984 1.409 . S
C991 C990 1.362 . S
H992 C998 0.930 . S
H993 C1001 0.930 . S
H994 C1002 0.909 1_554 S
H995 C1003 0.930 . S
H996 C1006 0.930 . S
H997 C1007 0.930 . S
C998 H992 0.930 . S
C998 C999 1.355 . S
C998 C1000 1.415 . S
C999 C998 1.355 . S
C999 C1001 1.419 . S
C1000 C998 1.415 . S
C1000 C1005 1.425 . S
C1000 C1007 1.409 . S
C1001 H993 0.930 . S
C1001 C999 1.419 . S
C1001 C1002 1.362 . S
C1002 H994 0.909 1_556 S
C1002 C1001 1.362 . S
C1002 C1005 1.409 . S
C1003 H995 0.930 . S
C1003 C1004 1.355 . S
C1003 C1005 1.415 . S
C1004 C1003 1.355 . S
C1004 C1006 1.419 . S
C1005 C1000 1.425 . S
C1005 C1002 1.409 . S
C1005 C1003 1.415 . S
C1006 H996 0.930 . S
C1006 C1004 1.419 . S
C1006 C1007 1.362 . S
C1007 H997 0.930 . S
C1007 C1000 1.409 . S
C1007 C1006 1.362 . S
H1008 C1014 0.930 . S
H1009 C1017 0.930 . S
H1010 C1018 0.930 . S
H1011 C1019 0.930 . S
H1012 C1022 0.930 . S
H1013 C1023 0.930 . S
C1014 H1008 0.930 . S
C1014 C1015 1.355 . S
C1014 C1016 1.415 . S
C1015 C1014 1.355 . S
C1015 C1017 1.419 . S
C1016 C1014 1.415 . S
C1016 C1021 1.425 . S
C1016 C1023 1.409 . S
C1017 H1009 0.930 . S
C1017 C1015 1.419 . S
C1017 C1018 1.362 . S
C1018 H1010 0.930 . S
C1018 C1017 1.362 . S
C1018 C1021 1.409 . S
C1019 H1011 0.930 . S
C1019 C1020 1.355 . S
C1019 C1021 1.415 . S
C1020 C1019 1.355 . S
C1020 C1022 1.419 . S
C1021 C1016 1.425 . S
C1021 C1018 1.409 . S
C1021 C1019 1.415 . S
C1022 H1012 0.930 . S
C1022 C1020 1.419 . S
C1022 C1023 1.362 . S
C1023 H1013 0.930 . S
C1023 C1016 1.409 . S
C1023 C1022 1.362 . S
H1024 C1030 0.930 . S
H1025 C1033 0.930 . S
H1026 C1034 0.930 . S
H1027 C1035 0.930 . S
H1028 C1038 0.930 . S
H1029 C1039 0.930 . S
C1030 H1024 0.930 . S
C1030 C1031 1.355 . S
C1030 C1032 1.415 . S
C1031 C1030 1.355 . S
C1031 C1033 1.419 . S
C1032 C1030 1.415 . S
C1032 C1037 1.425 . S
C1032 C1039 1.409 . S
C1033 H1025 0.930 . S
C1033 C1031 1.419 . S
C1033 C1034 1.362 . S
C1034 H1026 0.930 . S
C1034 C1033 1.362 . S
C1034 C1037 1.409 . S
C1035 H1027 0.930 . S
C1035 C1036 1.355 . S
C1035 C1037 1.415 . S
C1036 C1035 1.355 . S
C1036 C1038 1.419 . S
C1037 C1032 1.425 . S
C1037 C1034 1.409 . S
C1037 C1035 1.415 . S
C1038 H1028 0.930 . S
C1038 C1036 1.419 . S
C1038 C1039 1.362 . S
C1039 H1029 0.930 . S
C1039 C1032 1.409 . S
C1039 C1038 1.362 . S
H1040 C1046 0.930 . S
H1041 C1049 0.930 . S
H1042 C1050 0.930 . S
H1043 C1051 0.930 . S
H1044 C1054 0.930 . S
H1045 C1055 0.930 . S
C1046 H1040 0.930 . S
C1046 C1047 1.355 . S
C1046 C1048 1.415 . S
C1047 C1046 1.355 . S
C1047 C1049 1.419 . S
C1048 C1046 1.415 . S
C1048 C1053 1.425 . S
C1048 C1055 1.409 . S
C1049 H1041 0.930 . S
C1049 C1047 1.419 . S
C1049 C1050 1.362 . S
C1050 H1042 0.930 . S
C1050 C1049 1.362 . S
C1050 C1053 1.409 . S
C1051 H1043 0.930 . S
C1051 C1052 1.355 . S
C1051 C1053 1.415 . S
C1052 C1051 1.355 . S
C1052 C1054 1.419 . S
C1053 C1048 1.425 . S
C1053 C1050 1.409 . S
C1053 C1051 1.415 . S
C1054 H1044 0.930 . S
C1054 C1052 1.419 . S
C1054 C1055 1.362 . S
C1055 H1045 0.930 . S
C1055 C1048 1.409 . S
C1055 C1054 1.362 . S
H1056 C1062 0.930 . S
H1057 C1065 0.930 . S
H1058 C1066 0.930 . S
H1059 C1067 0.930 . S
H1060 C1070 0.930 . S
H1061 C1071 0.930 . S
C1062 H1056 0.930 . S
C1062 C1063 1.355 . S
C1062 C1064 1.415 . S
C1063 C1062 1.355 . S
C1063 C1065 1.419 . S
C1064 C1062 1.415 . S
C1064 C1069 1.425 . S
C1064 C1071 1.409 . S
C1065 H1057 0.930 . S
C1065 C1063 1.419 . S
C1065 C1066 1.362 . S
C1066 H1058 0.930 . S
C1066 C1065 1.362 . S
C1066 C1069 1.409 . S
C1067 H1059 0.930 . S
C1067 C1068 1.355 . S
C1067 C1069 1.415 . S
C1068 C1067 1.355 . S
C1068 C1070 1.419 . S
C1069 C1064 1.425 . S
C1069 C1066 1.409 . S
C1069 C1067 1.415 . S
C1070 H1060 0.930 . S
C1070 C1068 1.419 . S
C1070 C1071 1.362 . S
C1071 H1061 0.930 . S
C1071 C1064 1.409 . S
C1071 C1070 1.362 . S
H1072 C1078 0.930 . S
H1073 C1081 0.930 . S
H1074 C1082 0.930 . S
H1075 C1083 0.930 . S
H1076 C1086 0.930 . S
H1077 C1087 0.930 . S
C1078 H1072 0.930 . S
C1078 C1079 1.355 . S
C1078 C1080 1.415 . S
C1079 C1078 1.355 . S
C1079 C1081 1.419 . S
C1080 C1078 1.415 . S
C1080 C1085 1.425 . S
C1080 C1087 1.409 . S
C1081 H1073 0.930 . S
C1081 C1079 1.419 . S
C1081 C1082 1.362 . S
C1082 H1074 0.930 . S
C1082 C1081 1.362 . S
C1082 C1085 1.409 . S
C1083 H1075 0.930 . S
C1083 C1084 1.355 . S
C1083 C1085 1.415 . S
C1084 C1083 1.355 . S
C1084 C1086 1.419 . S
C1085 C1080 1.425 . S
C1085 C1082 1.409 . S
C1085 C1083 1.415 . S
C1086 H1076 0.930 . S
C1086 C1084 1.419 . S
C1086 C1087 1.362 . S
C1087 H1077 0.930 . S
C1087 C1080 1.409 . S
C1087 C1086 1.362 . S
H1088 C1094 0.930 . S
H1089 C1097 0.930 . S
H1090 C1098 0.930 . S
H1091 C1099 0.930 . S
H1092 C1102 0.930 . S
H1093 C1103 0.930 . S
C1094 H1088 0.930 . S
C1094 C1095 1.355 . S
C1094 C1096 1.415 . S
C1095 C1094 1.355 . S
C1095 C1097 1.419 . S
C1096 C1094 1.415 . S
C1096 C1101 1.425 . S
C1096 C1103 1.409 . S
C1097 H1089 0.930 . S
C1097 C1095 1.419 . S
C1097 C1098 1.362 . S
C1098 H1090 0.930 . S
C1098 C1097 1.362 . S
C1098 C1101 1.409 . S
C1099 H1091 0.930 . S
C1099 C1100 1.355 . S
C1099 C1101 1.415 . S
C1100 C1099 1.355 . S
C1100 C1102 1.419 . S
C1101 C1096 1.425 . S
C1101 C1098 1.409 . S
C1101 C1099 1.415 . S
C1102 H1092 0.930 . S
C1102 C1100 1.419 . S
C1102 C1103 1.362 . S
C1103 H1093 0.930 . S
C1103 C1096 1.409 . S
C1103 C1102 1.362 . S
H1104 C1110 0.930 . S
H1105 C1113 0.930 . S
H1106 C1114 0.930 . S
H1107 C1115 0.930 . S
H1108 C1118 0.930 . S
H1109 C1119 0.930 . S
C1110 H1104 0.930 . S
C1110 C1111 1.355 . S
C1110 C1112 1.415 . S
C1111 C1110 1.355 . S
C1111 C1113 1.419 . S
C1112 C1110 1.415 . S
C1112 C1117 1.425 . S
C1112 C1119 1.409 . S
C1113 H1105 0.930 . S
C1113 C1111 1.419 . S
C1113 C1114 1.362 . S
C1114 H1106 0.930 . S
C1114 C1113 1.362 . S
C1114 C1117 1.409 . S
C1115 H1107 0.930 . S
C1115 C1116 1.355 . S
C1115 C1117 1.415 . S
C1116 C1115 1.355 . S
C1116 C1118 1.419 . S
C1117 C1112 1.425 . S
C1117 C1114 1.409 . S
C1117 C1115 1.415 . S
C1118 H1108 0.930 . S
C1118 C1116 1.419 . S
C1118 C1119 1.362 . S
C1119 H1109 0.930 . S
C1119 C1112 1.409 . S
C1119 C1118 1.362 . S
H1120 C1126 0.930 . S
H1121 C1129 0.930 . S
H1122 C1130 0.930 . S
H1123 C1131 0.930 . S
H1124 C1134 0.930 . S
H1125 C1135 0.930 . S
C1126 H1120 0.930 . S
C1126 C1127 1.355 . S
C1126 C1128 1.415 . S
C1127 C1126 1.355 . S
C1127 C1129 1.419 . S
C1128 C1126 1.415 . S
C1128 C1133 1.425 . S
C1128 C1135 1.409 . S
C1129 H1121 0.930 . S
C1129 C1127 1.419 . S
C1129 C1130 1.362 . S
C1130 H1122 0.930 . S
C1130 C1129 1.362 . S
C1130 C1133 1.409 . S
C1131 H1123 0.930 . S
C1131 C1132 1.355 . S
C1131 C1133 1.415 . S
C1132 C1131 1.355 . S
C1132 C1134 1.419 . S
C1133 C1128 1.425 . S
C1133 C1130 1.409 . S
C1133 C1131 1.415 . S
C1134 H1124 0.930 . S
C1134 C1132 1.419 . S
C1134 C1135 1.362 . S
C1135 H1125 0.930 . S
C1135 C1128 1.409 . S
C1135 C1134 1.362 . S
H1136 C1142 0.930 . S
H1137 C1145 0.930 . S
H1138 C1146 0.930 . S
H1139 C1147 0.930 . S
H1140 C1150 0.930 . S
H1141 C1151 0.930 . S
C1142 H1136 0.930 . S
C1142 C1143 1.355 . S
C1142 C1144 1.415 . S
C1143 C1142 1.355 . S
C1143 C1145 1.419 . S
C1144 C1142 1.415 . S
C1144 C1149 1.425 . S
C1144 C1151 1.409 . S
C1145 H1137 0.930 . S
C1145 C1143 1.419 . S
C1145 C1146 1.362 . S
C1146 H1138 0.930 . S
C1146 C1145 1.362 . S
C1146 C1149 1.409 . S
C1147 H1139 0.930 . S
C1147 C1148 1.355 . S
C1147 C1149 1.415 . S
C1148 C1147 1.355 . S
C1148 C1150 1.419 . S
C1149 C1144 1.425 . S
C1149 C1146 1.409 . S
C1149 C1147 1.415 . S
C1150 H1140 0.930 . S
C1150 C1148 1.419 . S
C1150 C1151 1.362 . S
C1151 H1141 0.930 . S
C1151 C1144 1.409 . S
C1151 C1150 1.362 . S
H1152 C1158 0.930 . S
H1153 C1161 0.930 . S
H1154 C1162 0.930 . S
H1155 C1163 0.930 . S
H1156 C1166 0.930 . S
H1157 C1167 0.930 . S
C1158 H1152 0.930 . S
C1158 C1159 1.355 . S
C1158 C1160 1.415 . S
C1159 C1158 1.355 . S
C1159 C1161 1.419 . S
C1160 C1158 1.415 . S
C1160 C1165 1.425 . S
C1160 C1167 1.409 . S
C1161 H1153 0.930 . S
C1161 C1159 1.419 . S
C1161 C1162 1.362 . S
C1162 H1154 0.930 . S
C1162 C1161 1.362 . S
C1162 C1165 1.409 . S
C1163 H1155 0.930 . S
C1163 C1164 1.355 . S
C1163 C1165 1.415 . S
C1164 C1163 1.355 . S
C1164 C1166 1.419 . S
C1165 C1160 1.425 . S
C1165 C1162 1.409 . S
C1165 C1163 1.415 . S
C1166 H1156 0.930 . S
C1166 C1164 1.419 . S
C1166 C1167 1.362 . S
C1167 H1157 0.930 . S
C1167 C1160 1.409 . S
C1167 C1166 1.362 . S
H1168 C1174 0.930 . S
H1169 C1177 0.930 . S
H1170 C1178 0.930 . S
H1171 C1179 0.930 . S
H1172 C1182 0.930 . S
H1173 C1183 0.930 . S
C1174 H1168 0.930 . S
C1174 C1175 1.355 . S
C1174 C1176 1.415 . S
C1175 C1174 1.355 . S
C1175 C1177 1.419 . S
C1176 C1174 1.415 . S
C1176 C1181 1.425 . S
C1176 C1183 1.409 . S
C1177 H1169 0.930 . S
C1177 C1175 1.419 . S
C1177 C1178 1.362 . S
C1178 H1170 0.930 . S
C1178 C1177 1.362 . S
C1178 C1181 1.409 . S
C1179 H1171 0.930 . S
C1179 C1180 1.355 . S
C1179 C1181 1.415 . S
C1180 C1179 1.355 . S
C1180 C1182 1.419 . S
C1181 C1176 1.425 . S
C1181 C1178 1.409 . S
C1181 C1179 1.415 . S
C1182 H1172 0.930 . S
C1182 C1180 1.419 . S
C1182 C1183 1.362 . S
C1183 H1173 0.930 . S
C1183 C1176 1.409 . S
C1183 C1182 1.362 . S
H1184 C1190 0.930 . S
H1185 C1193 0.930 . S
H1186 C1194 0.930 . S
H1187 C1195 0.930 . S
H1188 C1198 0.930 . S
H1189 C1199 0.930 . S
C1190 H1184 0.930 . S
C1190 C1191 1.355 . S
C1190 C1192 1.415 . S
C1191 C1190 1.355 . S
C1191 C1193 1.419 . S
C1192 C1190 1.415 . S
C1192 C1197 1.425 . S
C1192 C1199 1.409 . S
C1193 H1185 0.930 . S
C1193 C1191 1.419 . S
C1193 C1194 1.362 . S
C1194 H1186 0.930 . S
C1194 C1193 1.362 . S
C1194 C1197 1.409 . S
C1195 H1187 0.930 . S
C1195 C1196 1.355 . S
C1195 C1197 1.415 . S
C1196 C1195 1.355 . S
C1196 C1198 1.419 . S
C1197 C1192 1.425 . S
C1197 C1194 1.409 . S
C1197 C1195 1.415 . S
C1198 H1188 0.930 . S
C1198 C1196 1.419 . S
C1198 C1199 1.362 . S
C1199 H1189 0.930 . S
C1199 C1192 1.409 . S
C1199 C1198 1.362 . S
H1200 C1206 0.930 . S
H1201 C1209 0.930 . S
H1202 C1210 0.930 . S
H1203 C1211 0.930 . S
H1204 C1214 0.930 . S
H1205 C1215 0.930 . S
C1206 H1200 0.930 . S
C1206 C1207 1.355 . S
C1206 C1208 1.415 . S
C1207 C1206 1.355 . S
C1207 C1209 1.419 . S
C1208 C1206 1.415 . S
C1208 C1213 1.425 . S
C1208 C1215 1.409 . S
C1209 H1201 0.930 . S
C1209 C1207 1.419 . S
C1209 C1210 1.362 . S
C1210 H1202 0.930 . S
C1210 C1209 1.362 . S
C1210 C1213 1.409 . S
C1211 H1203 0.930 . S
C1211 C1212 1.355 . S
C1211 C1213 1.415 . S
C1212 C1211 1.355 . S
C1212 C1214 1.419 . S
C1213 C1208 1.425 . S
C1213 C1210 1.409 . S
C1213 C1211 1.415 . S
C1214 H1204 0.930 . S
C1214 C1212 1.419 . S
C1214 C1215 1.362 . S
C1215 H1205 0.930 . S
C1215 C1208 1.409 . S
C1215 C1214 1.362 . S
H1216 C1222 0.930 . S
H1217 C1225 0.930 . S
H1218 C1226 0.930 . S
H1219 C1227 0.930 . S
H1220 C1230 0.930 . S
H1221 C1231 0.934 . S
C1222 H1216 0.930 . S
C1222 C1223 1.355 . S
C1222 C1224 1.415 . S
C1223 C1222 1.355 . S
C1223 C1225 1.419 . S
C1224 C1222 1.415 . S
C1224 C1229 1.425 . S
C1224 C1231 1.409 . S
C1225 H1217 0.930 . S
C1225 C1223 1.419 . S
C1225 C1226 1.362 . S
C1226 H1218 0.930 . S
C1226 C1225 1.362 . S
C1226 C1229 1.409 . S
C1227 H1219 0.930 . S
C1227 C1228 1.355 . S
C1227 C1229 1.415 . S
C1228 C1227 1.355 . S
C1228 C1230 1.419 . S
C1229 C1224 1.425 . S
C1229 C1226 1.409 . S
C1229 C1227 1.415 . S
C1230 H1220 0.930 . S
C1230 C1228 1.419 . S
C1230 C1231 1.362 . S
C1231 H1221 0.934 . S
C1231 C1224 1.409 . S
C1231 C1230 1.362 . S
H1232 C1238 0.930 . S
H1233 C1241 0.930 . S
H1234 C1242 0.930 . S
H1235 C1243 0.930 . S
H1236 C1246 0.930 . S
H1237 C1247 0.930 . S
C1238 H1232 0.930 . S
C1238 C1239 1.355 . S
C1238 C1240 1.415 . S
C1239 C1238 1.355 . S
C1239 C1241 1.419 . S
C1240 C1238 1.415 . S
C1240 C1245 1.425 . S
C1240 C1247 1.409 . S
C1241 H1233 0.930 . S
C1241 C1239 1.419 . S
C1241 C1242 1.362 . S
C1242 H1234 0.930 . S
C1242 C1241 1.362 . S
C1242 C1245 1.409 . S
C1243 H1235 0.930 . S
C1243 C1244 1.355 . S
C1243 C1245 1.415 . S
C1244 C1243 1.355 . S
C1244 C1246 1.419 . S
C1245 C1240 1.425 . S
C1245 C1242 1.409 . S
C1245 C1243 1.415 . S
C1246 H1236 0.930 . S
C1246 C1244 1.419 . S
C1246 C1247 1.362 . S
C1247 H1237 0.930 . S
C1247 C1240 1.409 . S
C1247 C1246 1.362 . S
H1248 C1254 0.930 . S
H1249 C1257 0.930 . S
H1250 C1258 0.930 . S
H1251 C1259 0.930 . S
H1252 C1262 0.930 . S
H1253 C1263 0.930 . S
C1254 H1248 0.930 . S
C1254 C1255 1.355 . S
C1254 C1256 1.415 . S
C1255 C1254 1.355 . S
C1255 C1257 1.419 . S
C1256 C1254 1.415 . S
C1256 C1261 1.425 . S
C1256 C1263 1.409 . S
C1257 H1249 0.930 . S
C1257 C1255 1.419 . S
C1257 C1258 1.362 . S
C1258 H1250 0.930 . S
C1258 C1257 1.362 . S
C1258 C1261 1.409 . S
C1259 H1251 0.930 . S
C1259 C1260 1.355 . S
C1259 C1261 1.415 . S
C1260 C1259 1.355 . S
C1260 C1262 1.419 . S
C1261 C1256 1.425 . S
C1261 C1258 1.409 . S
C1261 C1259 1.415 . S
C1262 H1252 0.930 . S
C1262 C1260 1.419 . S
C1262 C1263 1.362 . S
C1263 H1253 0.930 . S
C1263 C1256 1.409 . S
C1263 C1262 1.362 . S
H1264 C1270 0.930 . S
H1265 C1273 0.930 . S
H1266 C1274 0.930 . S
H1267 C1275 0.930 . S
H1268 C1278 0.930 . S
H1269 C1279 0.930 . S
C1270 H1264 0.930 . S
C1270 C1271 1.355 . S
C1270 C1272 1.415 . S
C1271 C1270 1.355 . S
C1271 C1273 1.419 . S
C1272 C1270 1.415 . S
C1272 C1277 1.425 . S
C1272 C1279 1.409 . S
C1273 H1265 0.930 . S
C1273 C1271 1.419 . S
C1273 C1274 1.362 . S
C1274 H1266 0.930 . S
C1274 C1273 1.362 . S
C1274 C1277 1.409 . S
C1275 H1267 0.930 . S
C1275 C1276 1.355 . S
C1275 C1277 1.415 . S
C1276 C1275 1.355 . S
C1276 C1278 1.419 . S
C1277 C1272 1.425 . S
C1277 C1274 1.409 . S
C1277 C1275 1.415 . S
C1278 H1268 0.930 . S
C1278 C1276 1.419 . S
C1278 C1279 1.362 . S
C1279 H1269 0.930 . S
C1279 C1272 1.409 . S
C1279 C1278 1.362 . S
H1280 C1286 0.930 . S
H1281 C1289 0.930 . S
H1282 C1290 0.930 . S
H1283 C1291 0.930 . S
H1284 C1294 0.930 . S
H1285 C1295 0.930 . S
C1286 H1280 0.930 . S
C1286 C1287 1.355 . S
C1286 C1288 1.415 . S
C1287 C1286 1.355 . S
C1287 C1289 1.419 . S
C1288 C1286 1.415 . S
C1288 C1293 1.425 . S
C1288 C1295 1.409 . S
C1289 H1281 0.930 . S
C1289 C1287 1.419 . S
C1289 C1290 1.362 . S
C1290 H1282 0.930 . S
C1290 C1289 1.362 . S
C1290 C1293 1.409 . S
C1291 H1283 0.930 . S
C1291 C1292 1.355 . S
C1291 C1293 1.415 . S
C1292 C1291 1.355 . S
C1292 C1294 1.419 . S
C1293 C1288 1.425 . S
C1293 C1290 1.409 . S
C1293 C1291 1.415 . S
C1294 H1284 0.930 . S
C1294 C1292 1.419 . S
C1294 C1295 1.362 . S
C1295 H1285 0.930 . S
C1295 C1288 1.409 . S
C1295 C1294 1.362 . S
H1296 C1302 0.930 . S
H1297 C1305 0.930 . S
H1298 C1306 0.930 . S
H1299 C1307 0.930 1_455 S
H1300 C1310 0.930 . S
H1301 C1311 0.930 . S
C1302 H1296 0.930 . S
C1302 C1303 1.355 1_655 S
C1302 C1304 1.415 . S
C1303 C1302 1.355 1_455 S
C1303 C1305 1.419 . S
C1304 C1302 1.415 . S
C1304 C1309 1.425 1_655 S
C1304 C1311 1.409 . S
C1305 H1297 0.930 . S
C1305 C1303 1.419 . S
C1305 C1306 1.362 . S
C1306 H1298 0.930 . S
C1306 C1305 1.362 . S
C1306 C1309 1.409 . S
C1307 H1299 0.930 1_655 S
C1307 C1308 1.355 . S
C1307 C1309 1.415 1_655 S
C1308 C1307 1.355 . S
C1308 C1310 1.419 . S
C1309 C1304 1.425 1_455 S
C1309 C1306 1.409 . S
C1309 C1307 1.415 1_455 S
C1310 H1300 0.930 . S
C1310 C1308 1.419 . S
C1310 C1311 1.362 . S
C1311 H1301 0.930 . S
C1311 C1304 1.409 . S
C1311 C1310 1.362 . S
H1312 C1318 0.930 . S
H1313 C1321 0.930 . S
H1314 C1322 0.930 . S
H1315 C1323 0.930 . S
H1316 C1326 0.930 . S
H1317 C1327 0.930 . S
C1318 H1312 0.930 . S
C1318 C1319 1.355 . S
C1318 C1320 1.415 . S
C1319 C1318 1.355 . S
C1319 C1321 1.419 . S
C1320 C1318 1.415 . S
C1320 C1325 1.425 . S
C1320 C1327 1.409 . S
C1321 H1313 0.930 . S
C1321 C1319 1.419 . S
C1321 C1322 1.362 . S
C1322 H1314 0.930 . S
C1322 C1321 1.362 . S
C1322 C1325 1.409 . S
C1323 H1315 0.930 . S
C1323 C1324 1.355 . S
C1323 C1325 1.415 . S
C1324 C1323 1.355 . S
C1324 C1326 1.419 . S
C1325 C1320 1.425 . S
C1325 C1322 1.409 . S
C1325 C1323 1.415 . S
C1326 H1316 0.930 . S
C1326 C1324 1.419 . S
C1326 C1327 1.362 . S
C1327 H1317 0.930 . S
C1327 C1320 1.409 . S
C1327 C1326 1.362 . S
H1328 C1334 0.930 . S
H1329 C1337 0.930 . S
H1330 C1338 0.930 . S
H1331 C1339 0.930 . S
H1332 C1342 0.930 . S
H1333 C1343 0.930 . S
C1334 H1328 0.930 . S
C1334 C1335 1.355 . S
C1334 C1336 1.415 . S
C1335 C1334 1.355 . S
C1335 C1337 1.419 . S
C1336 C1334 1.415 . S
C1336 C1341 1.425 . S
C1336 C1343 1.409 . S
C1337 H1329 0.930 . S
C1337 C1335 1.419 . S
C1337 C1338 1.362 . S
C1338 H1330 0.930 . S
C1338 C1337 1.362 . S
C1338 C1341 1.409 . S
C1339 H1331 0.930 . S
C1339 C1340 1.355 . S
C1339 C1341 1.415 . S
C1340 C1339 1.355 . S
C1340 C1342 1.419 . S
C1341 C1336 1.425 . S
C1341 C1338 1.409 . S
C1341 C1339 1.415 . S
C1342 H1332 0.930 . S
C1342 C1340 1.419 . S
C1342 C1343 1.362 . S
C1343 H1333 0.930 . S
C1343 C1336 1.409 . S
C1343 C1342 1.362 . S
H1344 C1350 0.930 . S
H1345 C1353 0.930 . S
H1346 C1354 0.930 . S
H1347 C1355 0.930 . S
H1348 C1358 0.930 . S
H1349 C1359 0.930 . S
C1350 H1344 0.930 . S
C1350 C1351 1.355 . S
C1350 C1352 1.415 . S
C1351 C1350 1.355 . S
C1351 C1353 1.419 1_455 S
C1352 C1350 1.415 . S
C1352 C1357 1.425 1_455 S
C1352 C1359 1.409 . S
C1353 H1345 0.930 . S
C1353 C1351 1.419 1_655 S
C1353 C1354 1.362 . S
C1354 H1346 0.930 . S
C1354 C1353 1.362 . S
C1354 C1357 1.409 . S
C1355 H1347 0.930 . S
C1355 C1356 1.355 . S
C1355 C1357 1.415 . S
C1356 C1355 1.355 . S
C1356 C1358 1.419 1_655 S
C1357 C1352 1.425 1_655 S
C1357 C1354 1.409 . S
C1357 C1355 1.415 . S
C1358 H1348 0.930 . S
C1358 C1356 1.419 1_455 S
C1358 C1359 1.362 . S
C1359 H1349 0.930 . S
C1359 C1352 1.409 . S
C1359 C1358 1.362 . S
H1360 C1366 0.944 . S
H1361 C1369 0.930 . S
H1362 C1370 0.930 . S
H1363 C1371 0.930 1_545 S
H1364 C1374 0.930 . S
H1365 C1375 0.930 . S
C1366 H1360 0.944 . S
C1366 C1367 1.332 1_565 S
C1366 C1368 1.424 . S
C1367 C1366 1.332 1_545 S
C1367 C1369 1.419 . S
C1368 C1366 1.424 . S
C1368 C1373 1.425 1_565 S
C1368 C1375 1.409 . S
C1369 H1361 0.930 . S
C1369 C1367 1.419 . S
C1369 C1370 1.362 . S
C1370 H1362 0.930 . S
C1370 C1369 1.362 . S
C1370 C1373 1.409 . S
C1371 H1363 0.930 1_565 S
C1371 C1372 1.355 . S
C1371 C1373 1.415 1_565 S
C1372 C1371 1.355 . S
C1372 C1374 1.419 . S
C1373 C1368 1.425 1_545 S
C1373 C1370 1.409 . S
C1373 C1371 1.415 1_545 S
C1374 H1364 0.930 . S
C1374 C1372 1.419 . S
C1374 C1375 1.362 . S
C1375 H1365 0.930 . S
C1375 C1368 1.409 . S
C1375 C1374 1.362 . S
H1376 C1382 0.930 . S
H1377 C1385 0.930 . S
H1378 C1386 0.930 . S
H1379 C1387 0.930 . S
H1380 C1390 0.930 . S
H1381 C1391 0.930 . S
C1382 H1376 0.930 . S
C1382 C1383 1.355 . S
C1382 C1384 1.415 . S
C1383 C1382 1.355 . S
C1383 C1385 1.419 1_545 S
C1384 C1382 1.415 . S
C1384 C1389 1.425 1_545 S
C1384 C1391 1.409 . S
C1385 H1377 0.930 . S
C1385 C1383 1.419 1_565 S
C1385 C1386 1.362 . S
C1386 H1378 0.930 . S
C1386 C1385 1.362 . S
C1386 C1389 1.409 . S
C1387 H1379 0.930 . S
C1387 C1388 1.355 . S
C1387 C1389 1.415 . S
C1388 C1387 1.355 . S
C1388 C1390 1.419 1_565 S
C1389 C1384 1.425 1_565 S
C1389 C1386 1.409 . S
C1389 C1387 1.415 . S
C1390 H1380 0.930 . S
C1390 C1388 1.419 1_545 S
C1390 C1391 1.362 . S
C1391 H1381 0.930 . S
C1391 C1384 1.409 . S
C1391 C1390 1.362 . S
H1392 C1398 0.930 . S
H1393 C1401 0.930 . S
H1394 C1402 0.930 . S
H1395 C1403 0.930 . S
H1396 C1406 0.930 . S
H1397 C1407 0.930 . S
C1398 H1392 0.930 . S
C1398 C1399 1.355 . S
C1398 C1400 1.415 . S
C1399 C1398 1.355 . S
C1399 C1401 1.419 . S
C1400 C1398 1.415 . S
C1400 C1405 1.425 . S
C1400 C1407 1.409 . S
C1401 H1393 0.930 . S
C1401 C1399 1.419 . S
C1401 C1402 1.362 . S
C1402 H1394 0.930 . S
C1402 C1401 1.362 . S
C1402 C1405 1.409 . S
C1403 H1395 0.930 . S
C1403 C1404 1.355 . S
C1403 C1405 1.415 . S
C1404 C1403 1.355 . S
C1404 C1406 1.419 . S
C1405 C1400 1.425 . S
C1405 C1402 1.409 . S
C1405 C1403 1.415 . S
C1406 H1396 0.930 . S
C1406 C1404 1.419 . S
C1406 C1407 1.362 . S
C1407 H1397 0.930 . S
C1407 C1400 1.409 . S
C1407 C1406 1.362 . S
H1408 C1414 0.930 . S
H1409 C1417 0.930 . S
H1410 C1418 0.930 . S
H1411 C1419 0.930 . S
H1412 C1422 0.930 . S
H1413 C1423 0.930 . S
C1414 H1408 0.930 . S
C1414 C1415 1.355 . S
C1414 C1416 1.415 . S
C1415 C1414 1.355 . S
C1415 C1417 1.419 . S
C1416 C1414 1.415 . S
C1416 C1421 1.425 . S
C1416 C1423 1.409 . S
C1417 H1409 0.930 . S
C1417 C1415 1.419 . S
C1417 C1418 1.362 . S
C1418 H1410 0.930 . S
C1418 C1417 1.362 . S
C1418 C1421 1.409 . S
C1419 H1411 0.930 . S
C1419 C1420 1.355 . S
C1419 C1421 1.415 . S
C1420 C1419 1.355 . S
C1420 C1422 1.419 . S
C1421 C1416 1.425 . S
C1421 C1418 1.409 . S
C1421 C1419 1.415 . S
C1422 H1412 0.930 . S
C1422 C1420 1.419 . S
C1422 C1423 1.362 . S
C1423 H1413 0.930 . S
C1423 C1416 1.409 . S
C1423 C1422 1.362 . S
H1424 C1430 0.926 1_556 S
H1425 C1433 0.930 . S
H1426 C1434 0.930 . S
H1427 C1435 0.930 . S
H1428 C1438 0.930 . S
H1429 C1439 0.930 . S
C1430 H1424 0.926 1_554 S
C1430 C1431 1.355 . S
C1430 C1432 1.415 1_554 S
C1431 C1430 1.355 . S
C1431 C1433 1.419 . S
C1432 C1430 1.415 1_556 S
C1432 C1437 1.425 1_556 S
C1432 C1439 1.409 . S
C1433 H1425 0.930 . S
C1433 C1431 1.419 . S
C1433 C1434 1.362 . S
C1434 H1426 0.930 . S
C1434 C1433 1.362 . S
C1434 C1437 1.409 . S
C1435 H1427 0.930 . S
C1435 C1436 1.355 . S
C1435 C1437 1.415 1_556 S
C1436 C1435 1.355 . S
C1436 C1438 1.419 . S
C1437 C1432 1.425 1_554 S
C1437 C1434 1.409 . S
C1437 C1435 1.415 1_554 S
C1438 H1428 0.930 . S
C1438 C1436 1.419 . S
C1438 C1439 1.362 . S
C1439 H1429 0.930 . S
C1439 C1432 1.409 . S
C1439 C1438 1.362 . S
H1440 C1446 0.929 . S
H1441 C1449 0.930 . S
H1442 C1450 0.930 . S
H1443 C1451 0.930 1_556 S
H1444 C1454 0.930 . S
H1445 C1455 0.930 . S
C1446 H1440 0.929 . S
C1446 C1447 1.356 1_554 S
C1446 C1448 1.414 . S
C1447 C1446 1.356 1_556 S
C1447 C1449 1.419 . S
C1448 C1446 1.414 . S
C1448 C1453 1.425 1_554 S
C1448 C1455 1.409 . S
C1449 H1441 0.930 . S
C1449 C1447 1.419 . S
C1449 C1450 1.362 . S
C1450 H1442 0.930 . S
C1450 C1449 1.362 . S
C1450 C1453 1.409 . S
C1451 H1443 0.930 1_554 S
C1451 C1452 1.355 . S
C1451 C1453 1.415 1_554 S
C1452 C1451 1.355 . S
C1452 C1454 1.419 . S
C1453 C1448 1.425 1_556 S
C1453 C1450 1.409 . S
C1453 C1451 1.415 1_556 S
C1454 H1444 0.930 . S
C1454 C1452 1.419 . S
C1454 C1455 1.362 . S
C1455 H1445 0.930 . S
C1455 C1448 1.409 . S
C1455 C1454 1.362 . S
H1456 C1462 0.930 . S
H1457 C1465 0.930 . S
H1458 C1466 0.930 . S
H1459 C1467 0.930 . S
H1460 C1470 0.930 . S
H1461 C1471 0.930 . S
C1462 H1456 0.930 . S
C1462 C1463 1.355 . S
C1462 C1464 1.415 . S
C1463 C1462 1.355 . S
C1463 C1465 1.419 . S
C1464 C1462 1.415 . S
C1464 C1469 1.425 . S
C1464 C1471 1.409 . S
C1465 H1457 0.930 . S
C1465 C1463 1.419 . S
C1465 C1466 1.362 . S
C1466 H1458 0.930 . S
C1466 C1465 1.362 . S
C1466 C1469 1.409 . S
C1467 H1459 0.930 . S
C1467 C1468 1.355 . S
C1467 C1469 1.415 . S
C1468 C1467 1.355 . S
C1468 C1470 1.419 . S
C1469 C1464 1.425 . S
C1469 C1466 1.409 . S
C1469 C1467 1.415 . S
C1470 H1460 0.930 . S
C1470 C1468 1.419 . S
C1470 C1471 1.362 . S
C1471 H1461 0.930 . S
C1471 C1464 1.409 . S
C1471 C1470 1.362 . S
H1472 C1478 0.930 . S
H1473 C1481 0.930 . S
H1474 C1482 0.930 . S
H1475 C1483 0.930 . S
H1476 C1486 0.930 . S
H1477 C1487 0.930 . S
C1478 H1472 0.930 . S
C1478 C1479 1.355 . S
C1478 C1480 1.415 . S
C1479 C1478 1.355 . S
C1479 C1481 1.419 . S
C1480 C1478 1.415 . S
C1480 C1485 1.425 . S
C1480 C1487 1.409 . S
C1481 H1473 0.930 . S
C1481 C1479 1.419 . S
C1481 C1482 1.362 . S
C1482 H1474 0.930 . S
C1482 C1481 1.362 . S
C1482 C1485 1.409 . S
C1483 H1475 0.930 . S
C1483 C1484 1.355 . S
C1483 C1485 1.415 . S
C1484 C1483 1.355 . S
C1484 C1486 1.419 . S
C1485 C1480 1.425 . S
C1485 C1482 1.409 . S
C1485 C1483 1.415 . S
C1486 H1476 0.930 . S
C1486 C1484 1.419 . S
C1486 C1487 1.362 . S
C1487 H1477 0.930 . S
C1487 C1480 1.409 . S
C1487 C1486 1.362 . S
H1488 C1494 0.930 . S
H1489 C1497 0.930 . S
H1490 C1498 0.930 . S
H1491 C1499 0.930 . S
H1492 C1502 0.930 . S
H1493 C1503 0.930 1_655 S
C1494 H1488 0.930 . S
C1494 C1495 1.355 . S
C1494 C1496 1.415 . S
C1495 C1494 1.355 . S
C1495 C1497 1.419 . S
C1496 C1494 1.415 . S
C1496 C1501 1.425 1_655 S
C1496 C1503 1.409 1_655 S
C1497 H1489 0.930 . S
C1497 C1495 1.419 . S
C1497 C1498 1.362 1_655 S
C1498 H1490 0.930 . S
C1498 C1497 1.362 1_455 S
C1498 C1501 1.409 . S
C1499 H1491 0.930 . S
C1499 C1500 1.355 . S
C1499 C1501 1.415 . S
C1500 C1499 1.355 . S
C1500 C1502 1.419 . S
C1501 C1496 1.425 1_455 S
C1501 C1498 1.409 . S
C1501 C1499 1.415 . S
C1502 H1492 0.930 . S
C1502 C1500 1.419 . S
C1502 C1503 1.362 . S
C1503 H1493 0.930 1_455 S
C1503 C1496 1.409 1_455 S
C1503 C1502 1.362 . S
H1504 C1510 0.930 . S
H1505 C1513 0.930 . S
H1506 C1514 0.930 . S
H1507 C1515 0.930 . S
H1508 C1518 0.930 . S
H1509 C1519 0.930 . S
C1510 H1504 0.930 . S
C1510 C1511 1.355 . S
C1510 C1512 1.415 . S
C1511 C1510 1.355 . S
C1511 C1513 1.419 . S
C1512 C1510 1.415 . S
C1512 C1517 1.425 . S
C1512 C1519 1.409 . S
C1513 H1505 0.930 . S
C1513 C1511 1.419 . S
C1513 C1514 1.362 . S
C1514 H1506 0.930 . S
C1514 C1513 1.362 . S
C1514 C1517 1.409 . S
C1515 H1507 0.930 . S
C1515 C1516 1.355 . S
C1515 C1517 1.415 . S
C1516 C1515 1.355 . S
C1516 C1518 1.419 . S
C1517 C1512 1.425 . S
C1517 C1514 1.409 . S
C1517 C1515 1.415 . S
C1518 H1508 0.930 . S
C1518 C1516 1.419 . S
C1518 C1519 1.362 . S
C1519 H1509 0.930 . S
C1519 C1512 1.409 . S
C1519 C1518 1.362 . S
H1520 C1526 0.930 . S
H1521 C1529 0.930 . S
H1522 C1530 0.930 . S
H1523 C1531 0.930 . S
H1524 C1534 0.930 . S
H1525 C1535 0.930 . S
C1526 H1520 0.930 . S
C1526 C1527 1.355 . S
C1526 C1528 1.415 . S
C1527 C1526 1.355 . S
C1527 C1529 1.419 . S
C1528 C1526 1.415 . S
C1528 C1533 1.425 . S
C1528 C1535 1.409 . S
C1529 H1521 0.930 . S
C1529 C1527 1.419 . S
C1529 C1530 1.362 . S
C1530 H1522 0.930 . S
C1530 C1529 1.362 . S
C1530 C1533 1.409 . S
C1531 H1523 0.930 . S
C1531 C1532 1.355 . S
C1531 C1533 1.415 . S
C1532 C1531 1.355 . S
C1532 C1534 1.419 . S
C1533 C1528 1.425 . S
C1533 C1530 1.409 . S
C1533 C1531 1.415 . S
C1534 H1524 0.930 . S
C1534 C1532 1.419 . S
C1534 C1535 1.362 . S
C1535 H1525 0.930 . S
C1535 C1528 1.409 . S
C1535 C1534 1.362 . S
H1536 C1542 0.930 1_455 S
H1537 C1545 0.930 . S
H1538 C1546 0.930 . S
H1539 C1547 0.930 1_655 S
H1540 C1550 0.930 . S
H1541 C1551 0.930 . S
C1542 H1536 0.930 1_655 S
C1542 C1543 1.355 . S
C1542 C1544 1.415 1_655 S
C1543 C1542 1.355 . S
C1543 C1545 1.419 . S
C1544 C1542 1.415 1_455 S
C1544 C1549 1.425 1_455 S
C1544 C1551 1.409 . S
C1545 H1537 0.930 . S
C1545 C1543 1.419 . S
C1545 C1546 1.362 . S
C1546 H1538 0.930 . S
C1546 C1545 1.362 . S
C1546 C1549 1.409 . S
C1547 H1539 0.930 1_455 S
C1547 C1548 1.355 . S
C1547 C1549 1.415 1_455 S
C1548 C1547 1.355 . S
C1548 C1550 1.419 . S
C1549 C1544 1.425 1_655 S
C1549 C1546 1.409 . S
C1549 C1547 1.415 1_655 S
C1550 H1540 0.930 . S
C1550 C1548 1.419 . S
C1550 C1551 1.362 . S
C1551 H1541 0.930 . S
C1551 C1544 1.409 . S
C1551 C1550 1.362 . S
H1552 C1558 0.930 . S
H1553 C1561 0.930 . S
H1554 C1562 0.930 . S
H1555 C1563 0.930 . S
H1556 C1566 0.930 . S
H1557 C1567 0.930 . S
C1558 H1552 0.930 . S
C1558 C1559 1.355 . S
C1558 C1560 1.415 . S
C1559 C1558 1.355 . S
C1559 C1561 1.419 1_565 S
C1560 C1558 1.415 . S
C1560 C1565 1.425 1_565 S
C1560 C1567 1.409 . S
C1561 H1553 0.930 . S
C1561 C1559 1.419 1_545 S
C1561 C1562 1.362 . S
C1562 H1554 0.930 . S
C1562 C1561 1.362 . S
C1562 C1565 1.409 . S
C1563 H1555 0.930 . S
C1563 C1564 1.355 . S
C1563 C1565 1.415 . S
C1564 C1563 1.355 . S
C1564 C1566 1.419 1_545 S
C1565 C1560 1.425 1_545 S
C1565 C1562 1.409 . S
C1565 C1563 1.415 . S
C1566 H1556 0.930 . S
C1566 C1564 1.419 1_565 S
C1566 C1567 1.362 . S
C1567 H1557 0.930 . S
C1567 C1560 1.409 . S
C1567 C1566 1.362 . S
H1568 C1574 0.930 . S
H1569 C1577 0.930 . S
H1570 C1578 0.930 . S
H1571 C1579 0.930 . S
H1572 C1582 0.930 . S
H1573 C1583 0.930 . S
C1574 H1568 0.930 . S
C1574 C1575 1.355 . S
C1574 C1576 1.415 . S
C1575 C1574 1.355 . S
C1575 C1577 1.419 1_545 S
C1576 C1574 1.415 . S
C1576 C1581 1.425 1_545 S
C1576 C1583 1.409 . S
C1577 H1569 0.930 . S
C1577 C1575 1.419 1_565 S
C1577 C1578 1.362 . S
C1578 H1570 0.930 . S
C1578 C1577 1.362 . S
C1578 C1581 1.409 . S
C1579 H1571 0.930 . S
C1579 C1580 1.355 . S
C1579 C1581 1.415 . S
C1580 C1579 1.355 . S
C1580 C1582 1.419 1_565 S
C1581 C1576 1.425 1_565 S
C1581 C1578 1.409 . S
C1581 C1579 1.415 . S
C1582 H1572 0.930 . S
C1582 C1580 1.419 1_545 S
C1582 C1583 1.362 . S
C1583 H1573 0.930 . S
C1583 C1576 1.409 . S
C1583 C1582 1.362 . S
H1584 C1590 0.930 . S
H1585 C1593 0.930 . S
H1586 C1594 0.930 . S
H1587 C1595 0.930 . S
H1588 C1598 0.930 . S
H1589 C1599 0.930 . S
C1590 H1584 0.930 . S
C1590 C1591 1.355 . S
C1590 C1592 1.415 . S
C1591 C1590 1.355 . S
C1591 C1593 1.419 . S
C1592 C1590 1.415 . S
C1592 C1597 1.425 . S
C1592 C1599 1.409 . S
C1593 H1585 0.930 . S
C1593 C1591 1.419 . S
C1593 C1594 1.362 . S
C1594 H1586 0.930 . S
C1594 C1593 1.362 . S
C1594 C1597 1.409 . S
C1595 H1587 0.930 . S
C1595 C1596 1.355 . S
C1595 C1597 1.415 . S
C1596 C1595 1.355 . S
C1596 C1598 1.419 . S
C1597 C1592 1.425 . S
C1597 C1594 1.409 . S
C1597 C1595 1.415 . S
C1598 H1588 0.930 . S
C1598 C1596 1.419 . S
C1598 C1599 1.362 . S
C1599 H1589 0.930 . S
C1599 C1592 1.409 . S
C1599 C1598 1.362 . S
H1600 C1606 0.930 . S
H1601 C1609 0.930 . S
H1602 C1610 0.930 . S
H1603 C1611 0.930 . S
H1604 C1614 0.930 . S
H1605 C1615 0.930 . S
C1606 H1600 0.930 . S
C1606 C1607 1.355 . S
C1606 C1608 1.415 . S
C1607 C1606 1.355 . S
C1607 C1609 1.419 . S
C1608 C1606 1.415 . S
C1608 C1613 1.425 . S
C1608 C1615 1.409 . S
C1609 H1601 0.930 . S
C1609 C1607 1.419 . S
C1609 C1610 1.362 . S
C1610 H1602 0.930 . S
C1610 C1609 1.362 . S
C1610 C1613 1.409 . S
C1611 H1603 0.930 . S
C1611 C1612 1.355 . S
C1611 C1613 1.415 . S
C1612 C1611 1.355 . S
C1612 C1614 1.419 . S
C1613 C1608 1.425 . S
C1613 C1610 1.409 . S
C1613 C1611 1.415 . S
C1614 H1604 0.930 . S
C1614 C1612 1.419 . S
C1614 C1615 1.362 . S
C1615 H1605 0.930 . S
C1615 C1608 1.409 . S
C1615 C1614 1.362 . S
H1616 C1622 0.930 . S
H1617 C1625 0.930 . S
H1618 C1626 0.930 . S
H1619 C1627 0.930 1_556 S
H1620 C1630 0.930 . S
H1621 C1631 0.930 . S
C1622 H1616 0.930 . S
C1622 C1623 1.355 1_554 S
C1622 C1624 1.415 . S
C1623 C1622 1.355 1_556 S
C1623 C1625 1.419 . S
C1624 C1622 1.415 . S
C1624 C1629 1.425 1_554 S
C1624 C1631 1.409 . S
C1625 H1617 0.930 . S
C1625 C1623 1.419 . S
C1625 C1626 1.362 . S
C1626 H1618 0.930 . S
C1626 C1625 1.362 . S
C1626 C1629 1.409 . S
C1627 H1619 0.930 1_554 S
C1627 C1628 1.355 . S
C1627 C1629 1.415 1_554 S
C1628 C1627 1.355 . S
C1628 C1630 1.419 . S
C1629 C1624 1.425 1_556 S
C1629 C1626 1.409 . S
C1629 C1627 1.415 1_556 S
C1630 H1620 0.930 . S
C1630 C1628 1.419 . S
C1630 C1631 1.362 . S
C1631 H1621 0.930 . S
C1631 C1624 1.409 . S
C1631 C1630 1.362 . S
H1632 C1638 0.930 1_554 S
H1633 C1641 0.930 . S
H1634 C1642 0.930 . S
H1635 C1643 0.930 1_556 S
H1636 C1646 0.930 . S
H1637 C1647 0.930 . S
C1638 H1632 0.930 1_556 S
C1638 C1639 1.355 . S
C1638 C1640 1.415 1_556 S
C1639 C1638 1.355 . S
C1639 C1641 1.419 . S
C1640 C1638 1.415 1_554 S
C1640 C1645 1.425 1_554 S
C1640 C1647 1.409 . S
C1641 H1633 0.930 . S
C1641 C1639 1.419 . S
C1641 C1642 1.362 . S
C1642 H1634 0.930 . S
C1642 C1641 1.362 . S
C1642 C1645 1.409 . S
C1643 H1635 0.930 1_554 S
C1643 C1644 1.355 . S
C1643 C1645 1.415 1_554 S
C1644 C1643 1.355 . S
C1644 C1646 1.419 . S
C1645 C1640 1.425 1_556 S
C1645 C1642 1.409 . S
C1645 C1643 1.415 1_556 S
C1646 H1636 0.930 . S
C1646 C1644 1.419 . S
C1646 C1647 1.362 . S
C1647 H1637 0.930 . S
C1647 C1640 1.409 . S
C1647 C1646 1.362 . S
H1648 C1654 0.930 . S
H1649 C1657 0.930 . S
H1650 C1658 0.930 . S
H1651 C1659 0.930 . S
H1652 C1662 0.930 . S
H1653 C1663 0.930 . S
C1654 H1648 0.930 . S
C1654 C1655 1.355 . S
C1654 C1656 1.415 . S
C1655 C1654 1.355 . S
C1655 C1657 1.419 . S
C1656 C1654 1.415 . S
C1656 C1661 1.425 . S
C1656 C1663 1.409 . S
C1657 H1649 0.930 . S
C1657 C1655 1.419 . S
C1657 C1658 1.362 . S
C1658 H1650 0.930 . S
C1658 C1657 1.362 . S
C1658 C1661 1.409 . S
C1659 H1651 0.930 . S
C1659 C1660 1.355 . S
C1659 C1661 1.415 . S
C1660 C1659 1.355 . S
C1660 C1662 1.419 . S
C1661 C1656 1.425 . S
C1661 C1658 1.409 . S
C1661 C1659 1.415 . S
C1662 H1652 0.930 . S
C1662 C1660 1.419 . S
C1662 C1663 1.362 . S
C1663 H1653 0.930 . S
C1663 C1656 1.409 . S
C1663 C1662 1.362 . S
H1664 C1670 0.930 . S
H1665 C1673 0.930 . S
H1666 C1674 0.930 . S
H1667 C1675 0.930 . S
H1668 C1678 0.930 . S
H1669 C1679 0.930 . S
C1670 H1664 0.930 . S
C1670 C1671 1.355 . S
C1670 C1672 1.415 . S
C1671 C1670 1.355 . S
C1671 C1673 1.419 . S
C1672 C1670 1.415 . S
C1672 C1677 1.425 . S
C1672 C1679 1.409 . S
C1673 H1665 0.930 . S
C1673 C1671 1.419 . S
C1673 C1674 1.362 . S
C1674 H1666 0.930 . S
C1674 C1673 1.362 . S
C1674 C1677 1.409 . S
C1675 H1667 0.930 . S
C1675 C1676 1.355 . S
C1675 C1677 1.415 . S
C1676 C1675 1.355 . S
C1676 C1678 1.419 . S
C1677 C1672 1.425 . S
C1677 C1674 1.409 . S
C1677 C1675 1.415 . S
C1678 H1668 0.930 . S
C1678 C1676 1.419 . S
C1678 C1679 1.362 . S
C1679 H1669 0.930 . S
C1679 C1672 1.409 . S
C1679 C1678 1.362 . S
C535 C7 1.247 . S
C540 C414 1.246 . S
C551 C426 1.216 . S
C556 C29 1.200 . S
C567 C65 1.246 . S
C572 C360 1.246 . S
C583 C81 1.226 . S
C588 C392 1.241 . S
C599 C494 1.216 . S
C604 C109 1.207 . S
C615 C125 1.220 . S
C620 C480 1.221 . S
C631 C514 1.217 . S
C636 C153 1.210 . S
C647 C175 1.235 . S
C652 C448 1.230 . S
C663 C197 1.221 . S
C668 C304 1.221 . S
C679 C205 1.216 . S
C684 C338 1.219 . S
C695 C316 1.235 . S
C700 C227 1.241 . S
C711 C257 1.228 . S
C716 C272 1.225 . S
C727 C285 1.219 . S
C732 C140 1.236 . S
C743 C293 1.238 . S
C748 C162 1.246 . S
C759 C329 1.244 . S
C764 C96 1.247 . S
C775 C120 1.232 . S
C780 C351 1.238 . S
C791 C373 1.247 . S
C796 C238 1.243 . S
C807 C216 1.224 . S
C812 C381 1.203 . S
C823 C252 1.219 . S
C828 C403 1.217 . S
C839 C184 1.245 . S
C844 C439 1.235 . S
C855 C40 1.225 . S
C860 C461 1.203 . S
C871 C76 1.228 . S
C876 C469 1.207 . S
C887 C52 1.232 . S
C892 C499 1.237 . S
C903 C527 1.238 . S
C908 C18 1.232 . S
C919 C433 1.133 . S
C924 C15 1.118 . S
C935 C417 1.135 . S
C940 C37 1.158 . S
C951 C51 1.102 . S
C956 C395 1.174 . S
C967 C367 1.172 . S
C972 C87 1.115 . S
C983 C95 1.114 . S
C988 C521 1.172 . S
C999 C131 1.147 . S
C1004 C455 1.148 . S
C1015 C491 1.160 . S
C1020 C139 1.134 . S
C1031 C161 1.099 . S
C1036 C483 1.168 . S
C1047 C323 1.167 . S
C1052 C183 1.099 . S
C1063 C279 1.106 . S
C1068 C213 1.174 . S
C1079 C307 1.174 . S
C1084 C235 1.105 . S
C1095 C345 1.113 . S
C1100 C263 1.172 . S
C1111 C271 1.174 . S
C1116 C169 1.093 . S
C1127 C301 1.170 . S
C1132 C147 1.116 . S
C1143 C117 1.168 . S
C1148 C315 1.099 . S
C1159 C103 1.100 . S
C1164 C337 1.176 . S
C1175 C249 1.169 . S
C1180 C359 1.099 . S
C1191 C389 1.173 . S
C1196 C191 1.110 . S
C1207 C241 1.142 . S
C1212 C411 1.152 . S
C1223 C219 1.150 . S
C1228 C425 1.144 . S
C1239 C447 1.118 . S
C1244 C59 1.171 . S
C1255 C477 1.100 . S
C1260 C21 1.164 . S
C1271 C43 1.173 . S
C1276 C505 1.113 . S
C1287 C73 1.154 . S
C1292 C513 1.104 . S
C1303 C10 1.158 . S
C1308 C206 1.094 . S
C1319 C228 1.104 . S
C1324 C32 1.121 . S
C1335 C186 1.095 . S
C1340 C62 1.157 . S
C1351 C260 1.086 . S
C1356 C74 1.146 . S
C1367 C106 1.106 . S
C1372 C84 1.150 . S
C1383 C54 1.088 . S
C1388 C118 1.143 . S
C1399 C150 1.141 . S
C1404 C30 1.118 . S
C1415 C8 1.108 . S
C1420 C172 1.149 . S
C1431 C194 1.159 . S
C1436 C128 1.087 . S
C1447 C208 1.158 . S
C1452 C164 1.092 . S
C1463 C230 1.145 . S
C1468 C142 1.087 . S
C1479 C250 1.157 . S
C1484 C98 1.095 . S
C1495 C282 1.159 . S
C1500 C470 1.088 . S
C1511 C296 1.110 . S
C1516 C502 1.115 . S
C1527 C450 1.147 . S
C1532 C326 1.109 . S
C1543 C516 1.090 . S
C1548 C348 1.159 . S
C1559 C370 1.110 . S
C1564 C340 1.115 . S
C1575 C384 1.110 . S
C1580 C318 1.115 . S
C1591 C294 1.084 . S
C1596 C406 1.151 . S
C1607 C436 1.156 . S
C1612 C274 1.083 . S
C1623 C458 1.134 . S
C1628 C382 1.126 . S
C1639 C428 1.154 . S
C1644 C472 1.098 . S
C1655 C492 1.144 . S
C1660 C404 1.088 . S
C1671 C524 1.159 . S
C1676 C362 1.089 . S
