# Generated by pormake.
# Topology smc, (6)-cn, num edge types: 1
# Building blocks:
#     Node 0, Type 0, BuildingBlock: KUMBOL_clean_sbu_1, # of connection points: 6
#     Node 1, Type 0, BuildingBlock: KUMBOL_clean_sbu_1, # of connection points: 6
#     Node 2, Type 0, BuildingBlock: KUMBOL_clean_sbu_1, # of connection points: 6
#     Node 3, Type 0, BuildingBlock: KUMBOL_clean_sbu_1, # of connection points: 6
#     Node 4, Type 0, BuildingBlock: KUMBOL_clean_sbu_1, # of connection points: 6
#     Node 5, Type 0, BuildingBlock: KUMBOL_clean_sbu_1, # of connection points: 6
#     Node 6, Type 0, BuildingBlock: KUMBOL_clean_sbu_1, # of connection points: 6
#     Node 7, Type 0, BuildingBlock: KUMBOL_clean_sbu_1, # of connection points: 6
#     Node 8, Type 0, BuildingBlock: KUMBOL_clean_sbu_1, # of connection points: 6
#     Edge 9, Type (0, 0), BuildingBlock: XUDNAN_clean_linker_2, # of connection points: 2
#     Edge 10, Type (0, 0), BuildingBlock: XUDNAN_clean_linker_2, # of connection points: 2
#     Edge 11, Type (0, 0), BuildingBlock: XUDNAN_clean_linker_2, # of connection points: 2
#     Edge 12, Type (0, 0), BuildingBlock: XUDNAN_clean_linker_2, # of connection points: 2
#     Edge 13, Type (0, 0), BuildingBlock: XUDNAN_clean_linker_2, # of connection points: 2
#     Edge 14, Type (0, 0), BuildingBlock: XUDNAN_clean_linker_2, # of connection points: 2
#     Edge 15, Type (0, 0), BuildingBlock: XUDNAN_clean_linker_2, # of connection points: 2
#     Edge 16, Type (0, 0), BuildingBlock: XUDNAN_clean_linker_2, # of connection points: 2
#     Edge 17, Type (0, 0), BuildingBlock: XUDNAN_clean_linker_2, # of connection points: 2
#     Edge 18, Type (0, 0), BuildingBlock: XUDNAN_clean_linker_2, # of connection points: 2
#     Edge 19, Type (0, 0), BuildingBlock: XUDNAN_clean_linker_2, # of connection points: 2
#     Edge 20, Type (0, 0), BuildingBlock: XUDNAN_clean_linker_2, # of connection points: 2
#     Edge 21, Type (0, 0), BuildingBlock: XUDNAN_clean_linker_2, # of connection points: 2
#     Edge 22, Type (0, 0), BuildingBlock: XUDNAN_clean_linker_2, # of connection points: 2
#     Edge 23, Type (0, 0), BuildingBlock: XUDNAN_clean_linker_2, # of connection points: 2
#     Edge 24, Type (0, 0), BuildingBlock: XUDNAN_clean_linker_2, # of connection points: 2
#     Edge 25, Type (0, 0), BuildingBlock: XUDNAN_clean_linker_2, # of connection points: 2
#     Edge 26, Type (0, 0), BuildingBlock: XUDNAN_clean_linker_2, # of connection points: 2
#     Edge 27, Type (0, 0), BuildingBlock: XUDNAN_clean_linker_2, # of connection points: 2
#     Edge 28, Type (0, 0), BuildingBlock: XUDNAN_clean_linker_2, # of connection points: 2
#     Edge 29, Type (0, 0), BuildingBlock: XUDNAN_clean_linker_2, # of connection points: 2
#     Edge 30, Type (0, 0), BuildingBlock: XUDNAN_clean_linker_2, # of connection points: 2
#     Edge 31, Type (0, 0), BuildingBlock: XUDNAN_clean_linker_2, # of connection points: 2
#     Edge 32, Type (0, 0), BuildingBlock: XUDNAN_clean_linker_2, # of connection points: 2
#     Edge 33, Type (0, 0), BuildingBlock: XUDNAN_clean_linker_2, # of connection points: 2
#     Edge 34, Type (0, 0), BuildingBlock: XUDNAN_clean_linker_2, # of connection points: 2
#     Edge 35, Type (0, 0), BuildingBlock: XUDNAN_clean_linker_2, # of connection points: 2
# Relax obj value: 0.163
# Max RMSD: 0.311
# Mean RMSD: 0.311
data_MOF--net-smc--node1-KUMBOL_clean_sbu_1--edge1-XUDNAN_clean_linker_2
_symmetry_space_group_name_H-M    P1
_symmetry_Int_Tables_number       1
_symmetry_cell_setting            triclinic
loop_
_symmetry_equiv_pos_as_xyz
'x, y, z'
_cell_length_a     37.935524
_cell_length_b     38.115394
_cell_length_c     40.191461
_cell_angle_alpha  89.966977
_cell_angle_beta   89.842423
_cell_angle_gamma 119.85522
loop_
_atom_site_label
_atom_site_type_symbol
_atom_site_fract_x
_atom_site_fract_y
_atom_site_fract_z
_atom_type_partial_charge
C0 C 0.02744 0.56188 0.03614 0.0
C1 C 1.01937 0.5848 0.98186 0.0
C2 C 1.01405 0.5532 1.00342 0.0
C3 C 0.03846 0.62479 0.99346 0.0
C4 C 0.0458 0.60193 0.04806 0.0
C5 C 0.05103 0.63323 0.02658 0.0
N6 N 0.02217 0.53114 0.05644 0.0
C7 C 0.03398 0.53809 0.08894 0.0
C8 C 0.05808 0.60932 0.08135 0.0
C9 C 0.05232 0.57729 0.10182 0.0
Gd10 Gd 0.05622 0.42148 0.99942 0.0
Gd11 Gd 0.98605 0.46598 0.03432 0.0
N12 N 0.99469 0.51397 0.99301 0.0
C13 C 1.00408 0.5752 0.94954 0.0
C14 C 0.97598 0.50447 0.96268 0.0
C15 C 0.98165 0.53479 0.94014 0.0
H16 H 0.95497 0.47378 0.9559 0.0
H17 H 0.96752 0.52686 0.91587 0.0
H18 H 0.03712 0.34628 0.05221 0.0
H19 H 0.02845 0.51331 0.10521 0.0
H20 H 0.02301 0.27579 0.05035 0.0
H21 H 1.00777 0.59861 0.93222 0.0
H22 H 0.04275 0.64932 0.97721 0.0
H23 H 0.08132 0.4579 0.9226 0.0
H24 H 0.07201 0.63962 0.0915 0.0
H25 H 0.06151 0.58269 0.12764 0.0
H26 H 0.03586 0.25302 0.93448 0.0
H27 H 0.06466 0.66412 0.03535 0.0
H28 H 0.07401 0.36418 0.85917 0.0
H29 H 0.08744 0.43423 0.86668 0.0
N30 N 0.06275 0.40124 0.94585 0.0
C31 C 0.05534 0.36283 0.94229 0.0
C32 C 0.07457 0.42702 0.91933 0.0
C33 C 0.07082 0.37428 0.88361 0.0
C34 C 0.07837 0.41383 0.88775 0.0
C35 C 0.05937 0.34826 0.91112 0.0
H36 H 0.05462 0.2965 0.88471 0.0
N37 N 0.04356 0.35461 0.99991 0.0
C38 C 0.04518 0.33862 0.97022 0.0
C39 C 0.02944 0.27573 0.99706 0.0
C40 C 0.03824 0.29876 0.96791 0.0
C41 C 0.03667 0.33292 0.02856 0.0
C42 C 0.02896 0.29303 0.02757 0.0
O43 O 0.05483 0.50424 0.03184 0.0
O44 O 0.06461 0.48177 0.98267 0.0
O45 O 0.10614 0.4611 0.03152 0.0
O46 O 0.11751 0.43522 0.98724 0.0
O47 O 0.96402 0.42723 0.98667 0.0
O48 O 0.02607 0.44493 0.9657 0.0
O49 O 0.99005 0.37146 1.00798 0.0
O50 O 0.96669 0.40094 0.04596 0.0
O51 O 0.92808 0.4645 0.02843 0.0
O52 O 0.94908 0.46133 0.07729 0.0
O53 O 0.04505 0.41417 0.05491 0.0
O54 O 1.01516 0.45001 0.07745 0.0
C55 C 0.07458 0.5116 1.00363 0.0
C56 C 0.98667 0.42506 0.96267 0.0
C57 C 0.16407 0.45296 0.03139 0.0
C58 C 0.2357 0.4734 0.03827 0.0
C59 C 0.18423 0.42257 0.07486 0.0
C60 C 0.1538 0.42585 0.05807 0.0
C61 C 0.22491 0.44617 0.06513 0.0
C62 C 0.20486 0.47649 0.02153 0.0
C63 C 0.13309 0.45775 1.01353 0.0
C64 C 0.04121 0.28361 0.93681 0.0
C65 C 0.05199 0.30839 0.90849 0.0
H66 H 0.02383 0.24495 0.99637 0.0
C67 C 0.96091 0.37053 0.02691 0.0
C68 C 0.03486 0.42947 0.08024 0.0
C69 C 0.91446 0.49879 0.07161 0.0
C70 C 0.87635 0.53532 0.06638 0.0
C71 C 0.92576 0.55189 0.11082 0.0
C72 C 0.93421 0.52225 0.09971 0.0
C73 C 0.89696 0.55821 0.0946 0.0
C74 C 0.88578 0.50575 0.05488 0.0
C75 C 0.92311 0.46668 0.06019 0.0
H76 H 0.17627 0.40161 0.09544 0.0
H77 H 0.12243 0.4074 0.06589 0.0
H78 H 0.24783 0.44265 0.0783 0.0
H79 H 0.21259 0.49767 1.00106 0.0
H80 H 0.94108 0.56958 0.1326 0.0
H81 H 0.95598 0.51755 0.11348 0.0
H82 H 0.89011 0.5803 0.10502 0.0
H83 H 0.87084 0.48796 0.03304 0.0
C84 C 0.4688 0.48722 0.03117 0.0
C85 C 0.44189 0.47973 0.97534 0.0
C86 C 0.47543 0.49456 0.99714 0.0
C87 C 0.40217 0.45781 0.9881 0.0
C88 C 0.42899 0.46466 0.04397 0.0
C89 C 0.39575 0.45003 0.02225 0.0
N90 N 0.50131 0.50304 0.0519 0.0
C91 C 0.4964 0.49739 0.0855 0.0
C92 C 0.42374 0.45774 0.07833 0.0
C93 C 0.45755 0.47457 0.09921 0.0
Gd94 Gd 0.61858 0.65589 1.01274 0.0
Gd95 Gd 0.5653 0.53492 0.02668 0.0
N96 N 0.51438 0.51619 0.98543 0.0
C97 C 0.44915 0.48702 0.94126 0.0
C98 C 0.52129 0.52098 0.95189 0.0
C99 C 0.489 0.50736 0.9295 0.0
H100 H 0.55119 0.53384 0.94159 0.0
H101 H 0.49492 0.51185 0.90303 0.0
H102 H 0.67506 0.67072 0.08051 0.0
H103 H 0.52258 0.50974 0.10165 0.0
H104 H 0.7469 0.71291 0.0976 0.0
H105 H 0.42423 0.47627 0.92377 0.0
H106 H 0.37617 0.44645 0.97168 0.0
H107 H 0.60983 0.68988 0.9389 0.0
H108 H 0.39366 0.43999 0.08906 0.0
H109 H 0.45372 0.46975 0.12582 0.0
H110 H 0.81213 0.79533 1.00151 0.0
H111 H 0.36493 0.4329 0.03167 0.0
H112 H 0.72741 0.78567 0.90955 0.0
H113 H 0.65368 0.74345 0.89882 0.0
N114 N 0.65837 0.70227 0.97181 0.0
C115 C 0.69841 0.72599 0.97881 0.0
C116 C 0.64198 0.70841 0.94376 0.0
C117 C 0.70832 0.7624 0.92724 0.0
C118 C 0.6667 0.73862 0.92108 0.0
C119 C 0.72467 0.7564 0.95648 0.0
H120 H 0.7867 0.80393 0.94756 0.0
N121 N 0.68554 0.69455 0.03147 0.0
C122 C 0.71249 0.72186 1.00953 0.0
C123 C 0.7661 0.74311 0.05014 0.0
C124 C 0.75356 0.74699 0.01827 0.0
C125 C 0.69706 0.69185 0.06307 0.0
C126 C 0.73763 0.71565 0.07274 0.0
O127 O 0.53014 0.5665 0.03795 0.0
O128 O 0.55655 0.60896 0.99493 0.0
O129 O 0.61915 0.70399 0.04238 0.0
O130 O 0.58117 0.68171 0.99867 0.0
O131 O 0.60626 0.56138 0.98032 0.0
O132 O 0.60971 0.62204 0.96492 0.0
O133 O 0.66309 0.63155 0.0145 0.0
O134 O 0.62851 0.57387 0.04634 0.0
O135 O 0.56313 0.48181 1.00399 0.0
O136 O 0.56008 0.48559 0.05736 0.0
O137 O 0.59692 0.63315 0.06482 0.0
O138 O 0.58726 0.56868 0.07601 0.0
C139 C 0.52759 0.59106 0.01696 0.0
C140 C 0.61767 0.59252 0.9596 0.0
C141 C 0.6027 0.74873 0.01402 0.0
C142 C 0.57781 0.7961 1.00687 0.0
C143 C 0.64637 0.81479 0.98958 0.0
C144 C 0.64035 0.77744 1.00062 0.0
C145 C 0.61517 0.82404 0.99242 0.0
C146 C 0.57172 0.75841 0.01754 0.0
C147 C 0.59387 0.70777 0.02283 0.0
C148 C 0.78039 0.77585 0.99533 0.0
C149 C 0.76593 0.7807 0.96458 0.0
H150 H 0.79744 0.76177 0.05779 0.0
C151 C 0.66095 0.59991 0.02991 0.0
C152 C 0.59082 0.60371 0.0853 0.0
C153 C 0.57396 0.43549 0.03631 0.0
C154 C 0.56055 0.36575 0.03527 0.0
C155 C 0.62574 0.42038 0.05462 0.0
C156 C 0.61273 0.44838 0.04926 0.0
C157 C 0.59983 0.37932 0.04788 0.0
C158 C 0.54813 0.3943 0.02914 0.0
C159 C 0.55802 0.46331 0.03226 0.0
H160 H 0.67536 0.8367 0.97896 0.0
H161 H 0.66496 0.77107 0.99857 0.0
H162 H 0.62056 0.85339 0.98418 0.0
H163 H 0.5427 0.73646 0.02824 0.0
H164 H 0.6558 0.43044 0.06449 0.0
H165 H 0.63258 0.47979 0.05568 0.0
H166 H 0.61052 0.35819 0.0525 0.0
H167 H 0.51775 0.38431 0.01992 0.0
C168 C 0.53835 0.99072 0.02992 0.0
C169 C 0.57017 0.99208 0.9769 0.0
C170 C 0.54407 1.00046 0.9961 0.0
C171 C 0.59084 0.9744 0.99204 0.0
C172 C 0.55774 0.97111 0.04463 0.0
C173 C 0.58383 0.96297 0.02552 0.0
N174 N 0.51488 1.00126 0.04853 0.0
C175 C 0.51069 0.99364 0.08202 0.0
C176 C 0.55144 0.96134 0.07843 0.0
C177 C 0.52791 0.97275 0.09718 0.0
Gd178 Gd 0.3694 0.97384 1.00941 0.0
Gd179 Gd 0.49229 0.04036 0.0194 0.0
N180 N 0.52462 0.01866 0.98206 0.0
C181 C 0.57529 1.00231 0.94308 0.0
C182 C 0.53061 0.03 0.94939 0.0
C183 C 0.55532 0.02123 0.92926 0.0
H184 H 0.51719 0.04666 0.93892 0.0
H185 H 0.55975 0.02997 0.9033 0.0
H186 H 0.35294 1.00379 0.08492 0.0
H187 H 0.49544 1.00444 0.09788 0.0
H188 H 0.31866 0.03884 0.1071 0.0
H189 H 0.59494 0.99615 0.92752 0.0
H190 H 0.61171 0.96859 0.97782 0.0
H191 H 0.34044 0.95349 0.93039 0.0
H192 H 0.56549 0.94596 0.09048 0.0
H193 H 0.52395 0.96648 0.12362 0.0
H194 H 0.25807 0.06267 1.0115 0.0
H195 H 0.59933 0.94845 0.03657 0.0
H196 H 0.27118 1.01081 0.90646 0.0
H197 H 0.30266 0.9703 0.88927 0.0
N198 N 0.33314 0.9869 0.96928 0.0
C199 C 0.31385 1.00678 0.97992 0.0
C200 C 0.32801 0.97238 0.93766 0.0
C201 C 0.28827 1.00405 0.92439 0.0
C202 C 0.30609 0.98129 0.91455 0.0
C203 C 0.29133 0.01644 0.95756 0.0
H204 H 0.25455 0.04503 0.95229 0.0
N205 N 0.33607 1.00505 0.03471 0.0
C206 C 0.31519 0.01599 1.01354 0.0
C207 C 0.29655 0.04466 0.0593 0.0
C208 C 0.29498 0.03618 0.0253 0.0
C209 C 0.3371 0.01272 0.06796 0.0
C210 C 0.31753 0.03269 0.08071 0.0
O211 O 0.46245 0.97993 0.99365 0.0
O212 O 0.40868 0.94908 0.02796 0.0
O213 O 0.31206 0.92532 0.02808 0.0
O214 O 0.33998 0.91543 0.98452 0.0
O215 O 0.46534 0.05214 0.97235 0.0
O216 O 0.40932 0.9889 0.96371 0.0
O217 O 0.39909 0.04261 1.00634 0.0
O218 O 0.45315 0.06334 0.04184 0.0
O219 O 0.53462 0.10254 1.00277 0.0
O220 O 0.552 0.07424 0.04086 0.0
O221 O 0.39068 0.97412 0.06138 0.0
O222 O 0.45756 0.02656 0.06961 0.0
C223 C 0.43587 0.94737 1.0092 0.0
C224 C 0.43544 0.0257 0.9532 0.0
C225 C 0.26866 0.87366 0.99076 0.0
C226 C 0.21518 0.80595 0.97463 0.0
C227 C 0.20603 0.86435 0.96684 0.0
C228 C 0.24439 0.88969 0.98021 0.0
C229 C 0.1915 0.82285 0.96399 0.0
C230 C 0.25385 0.83171 0.9882 0.0
C231 C 0.30915 0.89989 1.00504 0.0
C232 C 0.27366 0.04704 1.0029 0.0
C233 C 0.27176 0.03711 0.96915 0.0
H234 H 0.28142 0.06013 0.0693 0.0
C235 C 0.42818 0.07074 0.02472 0.0
C236 C 0.4215 0.99752 0.0808 0.0
C237 C 0.59289 0.14453 0.03678 0.0
C238 C 0.66421 0.19709 0.04395 0.0
C239 C 0.61166 0.19279 0.08167 0.0
C240 C 0.58206 0.15915 0.06456 0.0
C241 C 0.65232 0.21156 0.07158 0.0
C242 C 0.63387 0.16357 0.02645 0.0
C243 C 0.56378 0.10558 0.02184 0.0
H244 H 0.18738 0.87688 0.95875 0.0
H245 H 0.2549 0.92167 0.98248 0.0
H246 H 0.16143 0.80386 0.95381 0.0
H247 H 0.27261 0.81928 0.99638 0.0
H248 H 0.6033 0.20374 0.10344 0.0
H249 H 0.55098 0.14371 0.07353 0.0
H250 H 0.67458 0.23659 0.08625 0.0
H251 H 0.64216 0.15145 1.00535 0.0
C252 C 0.71184 0.89637 0.36387 0.0
C253 C 0.71356 0.91936 0.30739 0.0
C254 C 0.70151 0.88751 0.33058 0.0
C255 C 0.73699 0.95967 0.31793 0.0
C256 C 0.73466 0.93685 0.37466 0.0
C257 C 0.7477 0.96839 0.35143 0.0
N258 N 0.69927 0.86542 0.38585 0.0
C259 C 0.70646 0.87244 0.41907 0.0
C260 C 0.74346 0.9444 0.4086 0.0
C261 C 0.72899 0.91203 0.43094 0.0
Gd262 Gd 0.73265 0.75004 0.33621 0.0
Gd263 Gd 0.66303 0.80011 0.36455 0.0
N264 N 0.67819 0.84808 0.3212 0.0
C265 C 0.70062 0.9099 0.27445 0.0
C266 C 0.66236 0.8393 0.28974 0.0
C267 C 0.67429 0.86977 0.26578 0.0
H268 H 0.63949 0.80926 0.28273 0.0
H269 H 0.66234 0.86234 0.24076 0.0
H270 H 0.69281 0.66152 0.37627 0.0
H271 H 0.69496 0.84741 0.43639 0.0
H272 H 0.68329 0.59322 0.36742 0.0
H273 H 0.70938 0.93347 0.2559 0.0
H274 H 0.74624 0.98442 0.30047 0.0
H275 H 0.78062 0.80409 0.26871 0.0
H276 H 0.76098 0.97507 0.41783 0.0
H277 H 0.73513 0.91757 0.45727 0.0
H278 H 0.74543 0.60241 0.26111 0.0
H279 H 0.7655 0.99966 0.3592 0.0
H280 H 0.80749 0.73058 0.20493 0.0
H281 H 0.81233 0.79634 0.21774 0.0
N282 N 0.7574 0.7432 0.28449 0.0
C283 C 0.75429 0.7069 0.27783 0.0
C284 C 0.77806 0.77518 0.26338 0.0
C285 C 0.79336 0.73378 0.22731 0.0
C286 C 0.79612 0.77092 0.23444 0.0
C287 C 0.77226 0.70116 0.24911 0.0
H288 H 0.78214 0.65813 0.22118 0.0
N289 N 0.71959 0.68344 0.32873 0.0
C290 C 0.73413 0.6758 0.30043 0.0
C291 C 0.71137 0.60746 0.31891 0.0
C292 C 0.73071 0.63771 0.2948 0.0
C293 C 0.70256 0.6547 0.35308 0.0
C294 C 0.69742 0.61609 0.34826 0.0
O295 O 0.73015 0.82844 0.37008 0.0
O296 O 0.7472 0.81334 0.32067 0.0
O297 O 0.78848 0.74808 0.34407 0.0
O298 O 0.77887 0.79088 0.37145 0.0
O299 O 0.64626 0.76345 0.31593 0.0
O300 O 0.70712 0.77212 0.29622 0.0
O301 O 0.66509 0.70016 0.34414 0.0
O302 O 0.62815 0.73234 0.35902 0.0
O303 O 0.61603 0.81734 0.36364 0.0
O304 O 0.61868 0.78104 0.40484 0.0
O305 O 0.69863 0.73525 0.3847 0.0
O306 O 0.69566 0.7882 0.40785 0.0
C307 C 0.75272 0.84029 0.34342 0.0
C308 C 0.66785 0.75777 0.29267 0.0
C309 C 0.84497 0.81315 0.34976 0.0
C310 C 0.9193 0.84696 0.34516 0.0
C311 C 0.88124 0.86921 0.31125 0.0
C312 C 0.84519 0.83905 0.3249 0.0
C313 C 0.91806 0.87349 0.32144 0.0
C314 C 0.88239 0.817 0.35982 0.0
C315 C 0.80529 0.78038 0.36235 0.0
C316 C 0.74775 0.63146 0.26588 0.0
C317 C 0.76875 0.66322 0.24319 0.0
H318 H 0.70797 0.57774 0.31547 0.0
C319 C 0.6306 0.69963 0.35229 0.0
C320 C 0.70653 0.76018 0.40956 0.0
C321 C 0.56417 0.79747 0.4069 0.0
C322 C 0.51622 0.82318 0.41145 0.0
C323 C 0.50151 0.75948 0.43795 0.0
C324 C 0.53835 0.76421 0.42675 0.0
C325 C 0.49018 0.7881 0.42999 0.0
C326 C 0.5534 0.82725 0.39973 0.0
C327 C 0.60014 0.79859 0.39144 0.0
H328 H 0.88054 0.8889 0.29224 0.0
H329 H 0.81744 0.83566 0.31537 0.0
H330 H 0.94566 0.89758 0.31049 0.0
H331 H 0.88261 0.79615 0.37804 0.0
H332 H 0.48114 0.73295 0.45233 0.0
H333 H 0.54586 0.74093 0.4325 0.0
H334 H 0.46041 0.78186 0.43805 0.0
H335 H 0.57412 0.85334 0.38512 0.0
C336 C 0.15321 0.81427 0.35772 0.0
C337 C 0.13786 0.80307 0.29896 0.0
C338 C 0.16653 0.81877 0.32499 0.0
C339 C 0.0962 0.78511 0.30623 0.0
C340 C 0.11135 0.79516 0.36524 0.0
C341 C 0.08297 0.78129 0.33928 0.0
N342 N 0.18123 0.82809 0.38235 0.0
C343 C 0.16978 0.82233 0.41501 0.0
C344 C 0.09926 0.79008 0.39868 0.0
C345 C 0.12863 0.80342 0.42369 0.0
Gd346 Gd 0.29081 0.98102 0.34282 0.0
Gd347 Gd 0.24954 0.86095 0.36637 0.0
N348 N 0.20713 0.8357 0.31881 0.0
C349 C 0.15174 0.80406 0.26654 0.0
C350 C 0.21989 0.83177 0.28785 0.0
C351 C 0.19282 0.8175 0.26112 0.0
H352 H 0.25061 0.83841 0.28342 0.0
H353 H 0.20353 0.81587 0.23649 0.0
H354 H 0.3643 0.04125 0.39484 0.0
H355 H 0.19262 0.83336 0.43427 0.0
H356 H 0.43562 0.09718 0.3921 0.0
H357 H 0.13073 0.79238 0.24588 0.0
H358 H 0.07387 0.77317 0.28649 0.0
H359 H 0.25312 0.97054 0.2665 0.0
H360 H 0.06739 0.77562 0.40544 0.0
H361 H 0.11961 0.79943 0.4496 0.0
H362 H 0.46198 0.12222 0.27481 0.0
H363 H 0.05069 0.76686 0.34452 0.0
H364 H 0.3497 0.04876 0.20058 0.0
H365 H 0.27742 0.99739 0.20985 0.0
N366 N 0.31108 1.00607 0.28866 0.0
C367 C 0.35016 0.03574 0.28443 0.0
C368 C 0.2847 0.99295 0.26256 0.0
C369 C 0.33914 0.03723 0.22544 0.0
C370 C 0.29836 1.00811 0.23053 0.0
C371 C 0.3655 0.0519 0.25268 0.0
H372 H 0.41885 0.09503 0.22509 0.0
N373 N 0.3576 0.03557 0.34234 0.0
C374 C 0.37432 0.05086 0.31224 0.0
C375 C 0.4372 0.09905 0.33846 0.0
C376 C 0.41471 0.08278 0.30934 0.0
C377 C 0.37852 0.05265 0.37091 0.0
C378 C 0.41882 0.08425 0.36942 0.0
O379 O 0.21654 0.89423 0.37955 0.0
O380 O 0.22737 0.92995 0.33209 0.0
O381 O 0.25575 0.99554 0.37741 0.0
O382 O 0.27681 0.02823 0.33083 0.0
O383 O 0.29305 0.88799 0.32247 0.0
O384 O 0.26833 0.92851 0.3084 0.0
O385 O 0.34275 0.97039 0.35985 0.0
O386 O 0.31694 0.90111 0.37138 0.0
O387 O 0.2412 0.80085 0.35754 0.0
O388 O 0.26054 0.82831 0.40563 0.0
O389 O 0.29836 0.97023 0.39696 0.0
O390 O 0.26067 0.90116 0.41212 0.0
C391 C 0.20398 0.91061 0.35749 0.0
C392 C 0.29242 0.91424 0.30176 0.0
C393 C 0.26438 0.06161 0.37462 0.0
C394 C 0.24685 0.11512 0.37896 0.0
C395 C 0.30039 0.11661 0.41347 0.0
C396 C 0.29422 0.08063 0.39908 0.0
C397 C 0.27701 0.13383 0.40351 0.0
C398 C 0.24079 0.0788 0.36473 0.0
C399 C 0.2573 0.02411 0.35853 0.0
C400 C 0.43086 0.09797 0.27763 0.0
C401 C 0.40628 0.08254 0.24933 0.0
H402 H 0.46836 0.12362 0.33735 0.0
C403 C 0.34668 0.93907 0.36949 0.0
C404 C 0.28168 0.94058 0.41907 0.0
C405 C 0.2183 0.75645 0.40394 0.0
C406 C 0.17961 0.68226 0.40291 0.0
C407 C 0.17607 0.71887 0.45115 0.0
C408 C 0.20303 0.75558 0.43604 0.0
C409 C 0.16458 0.68249 0.43485 0.0
C410 C 0.20615 0.71947 0.38732 0.0
C411 C 0.24795 0.79547 0.38823 0.0
H412 H 0.32356 0.13135 0.43227 0.0
H413 H 0.31269 0.06778 0.40693 0.0
H414 H 0.28305 0.16213 0.41466 0.0
H415 H 0.21745 0.06356 0.34608 0.0
H416 H 0.16439 0.7186 0.4758 0.0
H417 H 0.21206 0.78321 0.44971 0.0
H418 H 0.14389 0.65435 0.44727 0.0
H419 H 0.21818 0.7196 0.3628 0.0
C420 C 0.22758 0.34848 0.37842 0.0
C421 C 0.25116 0.33577 0.32604 0.0
C422 C 0.22659 0.34759 0.34376 0.0
C423 C 0.27704 0.32578 0.34341 0.0
C424 C 0.25333 0.33818 0.39589 0.0
C425 C 0.27849 0.32748 0.37818 0.0
N426 N 0.2026 0.35847 0.39506 0.0
C427 C 0.20154 0.35855 0.42896 0.0
C428 C 0.25279 0.33862 0.43073 0.0
C429 C 0.22656 0.34856 0.44732 0.0
Gd430 Gd 0.04565 0.30233 0.34028 0.0
Gd431 Gd 0.16668 0.38065 0.36255 0.0
N432 N 0.20158 0.35805 0.32749 0.0
C433 C 0.24953 0.33488 0.29132 0.0
C434 C 0.20191 0.35943 0.29349 0.0
C435 C 0.22501 0.34701 0.27501 0.0
H436 H 0.18584 0.37126 0.27998 0.0
H437 H 0.22462 0.34775 0.24809 0.0
H438 H 1.00371 0.25764 0.41493 0.0
H439 H 0.1823 0.36751 0.44191 0.0
H440 H 0.96614 0.26729 0.46049 0.0
H441 H 0.26779 0.3258 0.27685 0.0
H442 H 0.29625 0.31689 0.33014 0.0
H443 H 0.02369 0.33782 0.27132 0.0
H444 H 0.27219 0.33094 0.44502 0.0
H445 H 0.22595 0.34899 0.47423 0.0
H446 H 0.9285 0.3605 0.41611 0.0
H447 H 0.2987 0.31975 0.39119 0.0
H448 H 0.95495 0.39395 0.30051 0.0
H449 H 0.98909 0.37602 0.25665 0.0
N450 N 1.01088 0.33581 0.32293 0.0
C451 C 0.98985 0.34279 0.34707 0.0
C452 C 1.00921 0.34581 0.29053 0.0
C453 C 0.97021 0.37728 0.30705 0.0
C454 C 0.98949 0.36728 0.28221 0.0
C455 C 0.96958 0.36444 0.33982 0.0
H456 H 0.93322 0.38871 0.3602 0.0
N457 N 1.006 0.30479 0.38473 0.0
C458 C 0.98803 0.32752 0.37892 0.0
C459 C 0.95857 0.3123 0.43414 0.0
C460 C 0.96459 0.33258 0.40381 0.0
C461 C 0.99542 0.2808 0.41247 0.0
C462 C 0.97299 0.28529 0.43806 0.0
O463 O 0.14481 0.31401 0.36761 0.0
O464 O 0.09245 0.28241 0.32936 0.0
O465 O 0.9977 0.23968 0.34594 0.0
O466 O 1.00995 0.26819 0.29768 0.0
O467 O 0.14464 0.39108 0.3119 0.0
O468 O 0.09887 0.32502 0.30553 0.0
O469 O 0.06884 0.37048 0.33676 0.0
O470 O 0.11393 0.38772 0.37825 0.0
O471 O 0.22245 0.43579 0.34735 0.0
O472 O 0.19753 0.43154 0.39602 0.0
O473 O 0.06909 0.29329 0.38964 0.0
O474 O 0.12262 0.35565 0.40728 0.0
C475 C 0.12147 0.28341 0.34826 0.0
C476 C 0.11693 0.36168 0.29344 0.0
C477 C 0.98879 0.19813 0.29961 0.0
C478 C 0.95727 0.12432 0.29735 0.0
C479 C 1.01531 0.16685 0.26203 0.0
C480 C 1.01713 0.20151 0.27541 0.0
C481 C 0.98556 0.1285 0.27279 0.0
C482 C 0.95902 0.15944 0.31054 0.0
C483 C 0.9903 0.23445 0.31422 0.0
C484 C 0.94609 0.35586 0.39711 0.0
C485 C 0.94861 0.37177 0.36522 0.0
H486 H 0.94076 0.31537 0.45385 0.0
C487 C 0.09427 0.3978 0.35753 0.0
C488 C 0.09196 0.31844 0.41323 0.0
C489 C 0.26963 0.46468 0.39242 0.0
C490 C 0.3443 0.49872 0.3901 0.0
C491 C 0.30861 0.4684 0.44172 0.0
C492 C 0.27158 0.45689 0.42645 0.0
C493 C 0.34465 0.48916 0.42379 0.0
C494 C 0.30653 0.48585 0.37417 0.0
C495 C 0.2291 0.4514 0.37697 0.0
H496 H 0.0373 0.16973 0.24344 0.0
H497 H 0.04079 0.23087 0.26691 0.0
H498 H 0.98535 0.10214 0.26249 0.0
H499 H 0.93724 0.15674 0.32933 0.0
H500 H 0.30942 0.46177 0.46781 0.0
H501 H 0.24442 0.44194 0.44163 0.0
H502 H 0.37314 0.49853 0.43648 0.0
H503 H 0.30596 0.49322 0.34821 0.0
C504 C 0.38532 0.24681 0.69877 0.0
C505 C 0.38869 0.27801 0.64514 0.0
C506 C 0.37719 0.24327 0.66473 0.0
C507 C 0.40973 0.31644 0.65985 0.0
C508 C 0.40648 0.28551 0.71348 0.0
C509 C 0.41909 0.3202 0.69377 0.0
N510 N 0.37163 0.21262 0.71757 0.0
C511 C 0.37636 0.21537 0.75136 0.0
C512 C 0.4137 0.28829 0.74773 0.0
C513 C 0.39832 0.25307 0.76675 0.0
Gd514 Gd 0.40146 0.09705 0.68331 0.0
Gd515 Gd 0.3321 0.15204 0.68811 0.0
N516 N 0.35723 0.20582 0.65089 0.0
C517 C 0.37802 0.27302 0.61141 0.0
C518 C 0.34615 0.20063 0.61823 0.0
C519 C 0.3569 0.23421 0.59786 0.0
H520 H 0.32846 0.17052 0.60813 0.0
H521 H 0.34824 0.23013 0.57191 0.0
H522 H 0.46604 0.12861 0.74699 0.0
H523 H 0.36226 0.18902 0.76708 0.0
H524 H 0.48441 0.09903 0.79409 0.0
H525 H 0.3857 0.29893 0.59564 0.0
H526 H 0.41883 0.34352 0.64522 0.0
H527 H 0.34788 0.02065 0.63103 0.0
H528 H 0.43011 0.31745 0.75986 0.0
H529 H 0.40243 0.25496 0.79346 0.0
H530 H 0.39917 0.95559 0.78001 0.0
H531 H 0.43546 0.3501 0.70468 0.0
H532 H 0.32098 0.90988 0.67964 0.0
H533 H 0.31451 0.94589 0.63079 0.0
N534 N 0.37082 0.02632 0.68011 0.0
C535 C 0.37656 1.00737 0.70632 0.0
C536 C 0.35052 1.00502 0.65249 0.0
C537 C 0.33529 0.94257 0.67996 0.0
C538 C 0.33166 0.96278 0.65229 0.0
C539 C 0.35875 0.96492 0.70713 0.0
H540 H 0.35241 0.91378 0.73567 0.0
N541 N 0.42074 0.07159 0.72856 0.0
C542 C 0.40262 0.0308 0.73128 0.0
C543 C 0.44135 0.03755 0.78085 0.0
C544 C 0.41202 0.01257 0.75772 0.0
C545 C 0.45044 0.09614 0.75026 0.0
C546 C 0.46104 0.07952 0.77681 0.0
O547 O 0.38987 0.17438 0.65766 0.0
O548 O 0.42672 0.16249 0.69498 0.0
O549 O 0.45963 0.09878 0.67584 0.0
O550 O 0.43436 0.1198 0.63677 0.0
O551 O 0.31522 0.10793 0.64458 0.0
O552 O 0.37168 0.09959 0.63532 0.0
O553 O 0.33196 0.0552 0.68565 0.0
O554 O 0.31166 0.09382 0.71502 0.0
O555 O 0.26929 0.12973 0.6719 0.0
O556 O 0.29777 0.17975 0.70568 0.0
O557 O 0.40697 0.13705 0.72732 0.0
O558 O 0.34428 0.12923 0.73793 0.0
C559 C 0.42464 0.18614 0.67252 0.0
C560 C 0.33617 0.09525 0.62666 0.0
C561 C 0.50008 0.12587 0.625 0.0
C562 C 0.57411 0.15639 0.6181 0.0
C563 C 0.53014 0.14322 0.56992 0.0
C564 C 0.49603 0.12746 0.59047 0.0
C565 C 0.56878 0.15818 0.58351 0.0
C566 C 0.53898 0.13936 0.63867 0.0
C567 C 0.46462 0.11547 0.64665 0.0
C568 C 0.3928 0.97019 0.75962 0.0
C569 C 0.36614 0.94639 0.73439 0.0
H570 H 0.44955 0.02476 0.80149 0.0
C571 C 0.30369 0.05949 0.70139 0.0
C572 C 0.37774 0.12978 0.74854 0.0
C573 C 0.22693 0.14267 0.70802 0.0
C574 C 0.16491 0.14613 0.71887 0.0
C575 C 0.18733 0.1118 0.75772 0.0
C576 C 0.22061 0.12079 0.73753 0.0
C577 C 0.16005 0.12461 0.74876 0.0
C578 C 0.19909 0.15547 0.69865 0.0
C579 C 0.265 0.15622 0.68928 0.0
H580 H 0.52675 0.14497 0.54334 0.0
H581 H 0.46653 0.11748 0.57938 0.0
H582 H 0.59443 0.17214 0.56666 0.0
H583 H 0.54168 0.13762 0.66533 0.0
H584 H 0.183 0.0954 0.78076 0.0
H585 H 0.24227 0.11191 0.74548 0.0
H586 H 0.13519 0.1179 0.76566 0.0
H587 H 0.20413 0.17262 0.6759 0.0
C588 C 0.80269 0.16942 0.71004 0.0
C589 C 0.76829 0.12998 0.66113 0.0
C590 C 0.80431 0.1561 0.67831 0.0
C591 C 0.7305 0.11869 0.67586 0.0
C592 C 0.76466 0.15749 0.7251 0.0
C593 C 0.72871 0.13294 0.70753 0.0
N594 N 0.83805 0.19128 0.72706 0.0
C595 C 0.83666 0.19863 0.76025 0.0
C596 C 0.76377 0.16888 0.75797 0.0
C597 C 0.79991 0.18895 0.77579 0.0
Gd598 Gd 0.95651 0.32596 0.67205 0.0
Gd599 Gd 0.89846 0.2057 0.69804 0.0
N600 N 0.84127 0.16751 0.66473 0.0
C601 C 0.77137 0.11524 0.63 0.0
C602 C 0.8445 0.15251 0.63473 0.0
C603 C 0.80964 0.12659 0.61673 0.0
H604 H 0.87409 0.1605 0.62484 0.0
H605 H 0.81229 0.11499 0.59285 0.0
H606 H 0.99018 0.31859 0.75075 0.0
H607 H 0.86335 0.21054 0.77558 0.0
H608 H 0.03968 0.36326 0.79111 0.0
H609 H 0.7444 0.09475 0.61617 0.0
H610 H 0.70244 0.09844 0.6632 0.0
H611 H 0.99217 0.36819 0.59767 0.0
H612 H 0.73522 0.16051 0.77034 0.0
H613 H 0.79938 0.1958 0.80186 0.0
H614 H 0.12646 0.48234 0.72849 0.0
H615 H 0.6993 0.12358 0.71871 0.0
H616 H 0.10274 0.47961 0.61142 0.0
H617 H 0.04932 0.42997 0.57432 0.0
N618 N 1.01358 0.38111 0.64754 0.0
C619 C 0.04234 0.40813 0.66831 0.0
C620 C 1.01584 0.38872 0.61414 0.0
C621 C 0.07788 0.45215 0.62181 0.0
C622 C 0.04793 0.42414 0.60079 0.0
C623 C 0.07543 0.44433 0.656 0.0
H624 H 0.13055 0.49945 0.6691 0.0
N625 N 1.00803 0.36287 0.71236 0.0
C626 C 0.03939 0.39888 0.70179 0.0
C627 C 0.06924 0.41284 0.7567 0.0
C628 C 0.07044 0.42508 0.72377 0.0
C629 C 1.00985 0.3492 0.74343 0.0
C630 C 0.03939 0.37423 0.76631 0.0
O631 O 0.87178 0.22967 0.66008 0.0
O632 O 0.88995 0.28858 0.686 0.0
O633 O 0.94821 0.37901 0.66932 0.0
O634 O 0.9282 0.33408 0.62864 0.0
O635 O 0.9394 0.22036 0.65142 0.0
O636 O 0.94464 0.28032 0.63138 0.0
O637 O 1.00126 0.30174 0.67504 0.0
O638 O 0.95837 0.25907 0.71242 0.0
O639 O 0.9097 0.15585 0.68624 0.0
O640 O 0.8905 0.16092 0.73532 0.0
O641 O 0.91701 0.30647 0.71843 0.0
O642 O 0.91832 0.25194 0.74234 0.0
C643 C 0.86378 0.25825 0.66785 0.0
C644 C 0.95117 0.24949 0.62855 0.0
C645 C 0.91471 0.38942 0.62082 0.0
C646 C 0.88157 0.43076 0.61748 0.0
C647 C 0.88926 0.39807 0.56796 0.0
C648 C 0.90881 0.38206 0.58653 0.0
C649 C 0.87517 0.42154 0.58325 0.0
C650 C 0.9018 0.41449 0.63615 0.0
C651 C 0.92995 0.36692 0.6405 0.0
C652 C 0.10267 0.46176 0.71189 0.0
C653 C 0.10512 0.47139 0.67806 0.0
H654 H 0.09248 0.43199 0.77432 0.0
C655 C 0.99248 0.27209 0.6961 0.0
C656 C 0.91625 0.28591 0.7451 0.0
C657 C 0.86047 0.0949 0.71266 0.0
C658 C 0.83252 0.0222 0.7018 0.0
C659 C 0.78788 0.04796 0.71827 0.0
C660 C 0.82103 0.08683 0.72066 0.0
C661 C 0.79345 0.01593 0.70898 0.0
C662 C 0.86615 0.06224 0.70335 0.0
C663 C 0.89485 0.13736 0.71435 0.0
H664 H 0.88413 0.39146 0.54165 0.0
H665 H 0.91842 0.36299 0.5741 0.0
H666 H 0.85842 0.43162 0.56806 0.0
H667 H 0.90676 0.42041 0.66255 0.0
H668 H 0.75776 0.04249 0.72443 0.0
H669 H 0.81568 0.11049 0.72935 0.0
H670 H 0.76711 0.98585 0.70884 0.0
H671 H 0.89649 0.06792 0.69767 0.0
C672 C 0.87686 0.65287 0.70862 0.0
C673 C 0.9136 0.65318 0.65893 0.0
C674 C 0.88906 0.66533 0.67611 0.0
C675 C 0.92442 0.62693 0.67449 0.0
C676 C 0.88842 0.62712 0.7245 0.0
C677 C 0.91137 0.61346 0.707 0.0
N678 N 0.85653 0.66848 0.72541 0.0
C679 C 0.85017 0.66195 0.75893 0.0
C680 C 0.8782 0.61731 0.75797 0.0
C681 C 0.85958 0.63533 0.77537 0.0
Gd682 Gd 0.72051 0.6494 0.67312 0.0
Gd683 Gd 0.84182 0.71283 0.69458 0.0
N684 N 0.87806 0.6907 0.66171 0.0
C685 C 0.92724 0.66855 0.6269 0.0
C686 C 0.8917 0.70625 0.63071 0.0
C687 C 0.91615 0.6951 0.61271 0.0
H688 H 0.88385 0.72748 0.62004 0.0
H689 H 0.9268 0.70733 0.58806 0.0
H690 H 0.69525 0.66273 0.75162 0.0
H691 H 0.83918 0.67805 0.77373 0.0
H692 H 0.65409 0.68844 0.77781 0.0
H693 H 0.94661 0.66038 0.61302 0.0
H694 H 0.94337 0.61729 0.66179 0.0
H695 H 0.70809 0.65263 0.59143 0.0
H696 H 0.88632 0.59745 0.77099 0.0
H697 H 0.85355 0.6297 0.80175 0.0
H698 H 0.59505 0.72121 0.68625 0.0
H699 H 0.92038 0.59358 0.7188 0.0
H700 H 0.62434 0.69539 0.5759 0.0
H701 H 0.66762 0.66921 0.55338 0.0
N702 N 0.68794 0.66926 0.63493 0.0
C703 C 0.66347 0.68229 0.64804 0.0
C704 C 0.68975 0.66454 0.60148 0.0
C705 C 0.64207 0.68815 0.59274 0.0
C706 C 0.66659 0.67357 0.5799 0.0
C707 C 0.64043 0.6929 0.62715 0.0
H708 H 0.59828 0.71565 0.6255 0.0
N709 N 0.68215 0.67236 0.70217 0.0
C710 C 0.66083 0.68436 0.68251 0.0
C711 C 0.6342 0.70037 0.73129 0.0
C712 C 0.63619 0.69857 0.69662 0.0
C713 C 0.67958 0.67326 0.73598 0.0
C714 C 0.65589 0.68757 0.75101 0.0
O715 O 0.81569 0.65755 0.66178 0.0
O716 O 0.75691 0.6201 0.68967 0.0
O717 O 0.66129 0.59687 0.68244 0.0
O718 O 0.69689 0.59911 0.63867 0.0
O719 O 0.82315 0.73273 0.64674 0.0
O720 O 0.76654 0.67252 0.63138 0.0
O721 O 0.74793 0.71817 0.67481 0.0
O722 O 0.79455 0.72693 0.7132 0.0
O723 O 0.89101 0.77259 0.67936 0.0
O724 O 0.88952 0.7511 0.729 0.0
O725 O 0.73595 0.63759 0.72461 0.0
O726 O 0.79839 0.69279 0.74006 0.0
C727 C 0.78698 0.62233 0.67211 0.0
C728 C 0.79389 0.71047 0.62526 0.0
C729 C 0.6271 0.54785 0.63995 0.0
C730 C 0.57678 0.47654 0.6341 0.0
C731 C 0.57277 0.52716 0.59992 0.0
C732 C 0.60747 0.55784 0.61539 0.0
C733 C 0.55747 0.48665 0.60912 0.0
C734 C 0.61179 0.50745 0.6491 0.0
C735 C 0.66415 0.57789 0.65647 0.0
C736 C 0.61411 0.71023 0.6758 0.0
C737 C 0.61601 0.70714 0.64119 0.0
H738 H 0.6157 0.71121 0.74307 0.0
C739 C 0.77762 0.74236 0.6946 0.0
C740 C 0.76383 0.6589 0.747 0.0
C741 C 0.95364 0.78537 0.70298 0.0
C742 C 0.02631 0.83028 0.69271 0.0
C743 C 1.00023 0.75884 0.70317 0.0
C744 C 0.96156 0.75348 0.70793 0.0
C745 C 0.03245 0.79693 0.69548 0.0
C746 C 0.98639 0.82411 0.69564 0.0
C747 C 0.91145 0.77776 0.70662 0.0
H748 H 0.55756 0.5348 0.58091 0.0
H749 H 0.61883 0.58898 0.6082 0.0
H750 H 0.53019 0.46343 0.59726 0.0
H751 H 0.62753 0.50003 0.66791 0.0
H752 H 1.00552 0.73368 0.70675 0.0
H753 H 0.93812 0.72452 0.71646 0.0
H754 H 0.06265 0.80068 0.69387 0.0
H755 H 0.98108 0.84943 0.69326 0.0
H756 H 0.47395 0.582 0.06523 0.0
H757 H 0.48869 0.58606 0.95815 0.0
H758 H 0.41517 0.56188 0.95136 0.0
H759 H 0.37775 0.49407 0.07328 0.0
H760 H 0.36373 0.5159 0.10658 0.0
H761 H 0.4166 0.53325 0.09879 0.0
H762 H 0.42341 0.60607 0.09547 0.0
H763 H 0.36911 0.58448 0.09905 0.0
H764 H 0.39575 0.61554 0.06364 0.0
H765 H 0.33832 0.52616 0.95714 0.0
H766 H 0.26619 0.48886 0.97455 0.0
H767 H 0.30297 0.51323 0.07791 0.0
C768 C 0.46182 0.57896 0.04037 0.0
C769 C 0.48675 0.58593 1.01218 0.0
C770 C 0.4701 0.58146 0.98 0.0
C771 C 0.42836 0.56749 0.97597 0.0
C772 C 0.40422 0.55945 1.00439 0.0
C773 C 0.4206 0.56602 0.03598 0.0
C774 C 0.38821 0.55462 0.06251 0.0
C775 C 0.38668 0.52264 0.08672 0.0
C776 C 0.3945 0.59243 0.08126 0.0
C777 C 0.35058 0.53731 0.04106 0.0
C778 C 0.36037 0.5409 1.00759 0.0
C779 C 0.33039 0.52407 0.98324 0.0
C780 C 0.28948 0.50287 0.99337 0.0
C781 C 0.27889 0.49822 0.02761 0.0
C782 C 0.31002 0.51622 0.05158 0.0
H783 H 0.46092 0.91293 0.96223 0.0
H784 H 0.4337 0.90976 0.06735 0.0
H785 H 0.45973 0.86274 0.07719 0.0
H786 H 0.43026 0.80064 0.96303 0.0
H787 H 0.46648 0.80757 0.931 0.0
H788 H 0.44233 0.8381 0.931 0.0
H789 H 0.51415 0.907 0.93386 0.0
H790 H 0.5327 0.87243 0.92693 0.0
H791 H 0.55126 0.90612 0.96139 0.0
H792 H 0.49818 0.82546 0.07685 0.0
H793 H 0.54357 0.79752 0.06585 0.0
H794 H 0.54223 0.8211 0.96052 0.0
C795 C 0.45979 0.90154 0.98713 0.0
C796 C 0.44561 0.91487 0.01411 0.0
C797 C 0.44414 0.89946 0.04639 0.0
C798 C 0.4589 0.87285 0.05219 0.0
C799 C 0.47349 0.86082 0.0252 0.0
C800 C 0.47314 0.87385 0.99314 0.0
C801 C 0.48982 0.85548 0.96856 0.0
C802 C 0.45516 0.82355 0.94715 0.0
C803 C 0.52389 0.8873 0.94643 0.0
C804 C 0.50545 0.83562 0.99246 0.0
C805 C 0.49399 0.8374 0.02485 0.0
C806 C 0.50668 0.82315 0.05157 0.0
C807 C 0.53251 0.80749 0.04514 0.0
C808 C 0.54614 0.80724 1.01241 0.0
C809 C 0.53188 0.82079 0.98572 0.0
H810 H 0.21472 0.75208 0.02114 0.0
H811 H 0.17843 0.75945 0.92027 0.0
H812 H 0.14423 0.68522 0.91563 0.0
H813 H 0.22772 0.65988 1.00365 0.0
H814 H 0.2098 0.63996 0.04477 0.0
H815 H 0.23771 0.6939 0.038 0.0
H816 H 0.18012 0.69798 0.06585 0.0
H817 H 0.14753 0.64415 0.06981 0.0
H818 H 0.13067 0.67425 0.0475 0.0
H819 H 0.11089 0.61078 0.92231 0.0
H820 H 0.07575 0.53983 0.94143 0.0
H821 H 0.12812 0.5788 0.03955 0.0
C822 C 0.20054 0.73806 0.99779 0.0
C823 C 0.19912 0.76161 0.97106 0.0
C824 C 0.17957 0.74207 0.94115 0.0
C825 C 0.16034 0.69992 0.93817 0.0
C826 C 0.16117 0.67749 0.9652 0.0
C827 C 0.1811 0.69574 0.99437 0.0
C828 C 0.17479 0.66406 0.02036 0.0
C829 C 0.21489 0.66448 0.02708 0.0
C830 C 0.15711 0.67035 0.05278 0.0
C831 C 0.14504 0.62551 1.00222 0.0
C832 C 0.13949 0.63403 0.96986 0.0
C833 C 0.11505 0.60365 0.94755 0.0
C834 C 0.09533 0.56343 0.95858 0.0
C835 C 0.09904 0.55395 0.99195 0.0
C836 C 0.12452 0.5854 0.01398 0.0
H837 H 0.46833 0.13068 0.07058 0.0
H838 H 0.40728 0.10657 0.97526 0.0
H839 H 0.42972 0.17941 0.96932 0.0
H840 H 0.4443 0.21265 0.0945 0.0
H841 H 0.49188 0.24048 0.11624 0.0
H842 H 0.46656 0.18603 0.11455 0.0
H843 H 0.5316 0.19147 0.09112 0.0
H844 H 0.55755 0.24568 0.09018 0.0
H845 H 0.553 0.21816 0.05246 0.0
H846 H 0.46704 0.25651 0.97062 0.0
H847 H 0.51162 0.32978 0.98103 0.0
H848 H 0.54562 0.30245 0.07638 0.0
C849 C 0.45901 0.1406 0.04873 0.0
C850 C 0.43631 0.11301 0.02326 0.0
C851 C 0.4246 0.12714 0.99511 0.0
C852 C 0.43727 0.16847 0.99149 0.0
C853 C 0.46073 0.1951 0.01661 0.0
C854 C 0.47058 0.1815 0.04508 0.0
C855 C 0.49675 0.21631 0.06811 0.0
C856 C 0.47348 0.21371 0.10025 0.0
C857 C 0.53717 0.218 0.07583 0.0
C858 C 0.50308 0.25182 0.04696 0.0
C859 C 0.48128 0.23908 0.01769 0.0
C860 C 0.4837 0.26671 0.99372 0.0
C861 C 0.50914 0.30827 0.99982 0.0
C862 C 0.5323 0.32183 0.02944 0.0
C863 C 0.52868 0.29304 0.05335 0.0
H864 H 0.72298 0.27742 0.04659 0.0
H865 H 0.70603 0.15932 0.02136 0.0
H866 H 0.77988 0.19025 1.01085 0.0
H867 H 0.80498 0.33681 0.9881 0.0
H868 H 0.83074 0.37781 0.01715 0.0
H869 H 0.77625 0.3466 0.01882 0.0
H870 H 0.78088 0.33077 0.08095 0.0
H871 H 0.83533 0.36174 0.07926 0.0
H872 H 0.81244 0.30973 0.09253 0.0
H873 H 0.85875 0.23602 1.00528 0.0
H874 H 0.9315 0.29036 1.00754 0.0
H875 H 0.89345 0.37484 0.04038 0.0
C876 C 0.73455 0.25785 0.03881 0.0
C877 C 0.70829 0.2158 0.03483 0.0
C878 C 0.72513 0.19171 0.0241 0.0
C879 C 0.76723 0.209 0.01825 0.0
C880 C 0.79228 0.25048 0.02323 0.0
C881 C 0.77628 0.27445 0.03326 0.0
C882 C 0.80928 0.3177 0.03874 0.0
C883 C 0.80505 0.34641 0.01423 0.0
C884 C 0.80948 0.33072 0.07502 0.0
C885 C 0.84646 0.31432 0.03097 0.0
C886 C 0.83651 0.27568 0.0215 0.0
C887 C 0.86671 0.26631 1.01286 0.0
C888 C 0.90793 0.29723 0.01426 0.0
C889 C 0.91833 0.33663 0.02488 0.0
C890 C 0.88687 0.34488 0.03296 0.0
H891 H 0.87063 0.60528 0.06222 0.0
H892 H 0.80609 0.47769 0.03597 0.0
H893 H 0.74895 0.48477 0.01579 0.0
H894 H 0.78631 0.60478 0.0972 0.0
H895 H 0.79932 0.65491 0.08364 0.0
H896 H 0.83873 0.64247 0.09015 0.0
H897 H 0.86437 0.66468 0.02978 0.0
H898 H 0.82489 0.67717 0.02314 0.0
H899 H 0.82951 0.64235 0.99561 0.0
H900 H 0.69559 0.50246 1.00484 0.0
H901 H 0.64812 0.52871 1.00631 0.0
H902 H 0.74381 0.64408 0.04256 0.0
C903 C 0.84474 0.57873 0.05203 0.0
C904 C 0.84354 0.54085 0.05066 0.0
C905 C 0.80881 0.50731 0.03668 0.0
C906 C 0.77587 0.51096 0.02525 0.0
C907 C 0.77773 0.5483 0.02795 0.0
C908 C 0.8112 0.58165 0.04104 0.0
C909 C 0.80353 0.61707 0.04453 0.0
C910 C 0.80718 0.63058 0.08105 0.0
C911 C 0.83229 0.65241 0.02191 0.0
C912 C 0.75996 0.59792 0.03244 0.0
C913 C 0.74614 0.55846 0.02238 0.0
C914 C 0.70626 0.53344 1.01222 0.0
C915 C 0.67947 0.54862 1.01323 0.0
C916 C 0.69236 0.58838 0.02443 0.0
C917 C 0.73343 0.61381 0.03335 0.0
H918 H 0.9822 0.86283 0.30257 0.0
H919 H 0.94779 0.84176 0.40689 0.0
H920 H 1.01752 0.85708 0.42105 0.0
H921 H 0.04653 0.82148 0.30184 0.0
H922 H 0.08582 0.85867 0.27524 0.0
H923 H 0.03397 0.84745 0.2709 0.0
H924 H 0.05158 0.92057 0.28019 0.0
H925 H 0.10455 0.93499 0.28203 0.0
H926 H 0.08167 0.94811 0.3156 0.0
H927 H 0.09191 0.87957 0.42407 0.0
H928 H 0.1639 0.89992 0.41567 0.0
H929 H 0.15028 0.90663 0.30909 0.0
C930 C 0.98922 0.86148 0.32847 0.0
C931 C 0.95949 0.85139 0.35371 0.0
C932 C 0.96985 0.84908 0.38713 0.0
C933 C 1.00948 0.85813 0.3954 0.0
C934 C 0.03831 0.86943 0.36997 0.0
C935 C 0.02858 0.87084 0.33716 0.0
C936 C 0.06516 0.88417 0.31451 0.0
C937 C 0.0575 0.85099 0.28912 0.0
C938 C 0.07639 0.92435 0.29706 0.0
C939 C 0.09718 0.8898 0.33973 0.0
C940 C 0.08104 0.88159 0.37159 0.0
C941 C 0.10472 0.88572 0.39923 0.0
C942 C 0.14563 0.89744 0.39417 0.0
C943 C 0.16258 0.90462 0.36171 0.0
C944 C 0.13819 0.90155 0.33417 0.0
H945 H 0.14456 0.25265 0.3991 0.0
H946 H 0.12193 0.24154 0.29294 0.0
H947 H 0.14782 0.19329 0.28932 0.0
H948 H 0.23523 0.24931 0.40051 0.0
H949 H 0.22222 0.21943 0.43784 0.0
H950 H 0.20061 0.25133 0.43041 0.0
H951 H 0.12885 0.18767 0.4378 0.0
H952 H 0.15151 0.15627 0.44352 0.0
H953 H 0.11426 0.14442 0.41135 0.0
H954 H 0.18414 0.15284 0.29696 0.0
H955 H 0.22239 0.11957 0.31539 0.0
H956 H 0.21606 0.15343 0.41741 0.0
C957 C 0.14444 0.23947 0.37519 0.0
C958 C 0.13132 0.25061 0.34625 0.0
C959 C 0.13149 0.23293 0.31539 0.0
C960 C 0.14631 0.20572 0.31313 0.0
C961 C 0.15981 0.19591 0.34212 0.0
C962 C 0.15816 0.21166 0.37268 0.0
C963 C 0.17432 0.19633 0.40013 0.0
C964 C 0.21022 0.23126 0.41828 0.0
C965 C 0.14019 0.16957 0.42464 0.0
C966 C 0.1879 0.17163 0.38002 0.0
C967 C 0.17887 0.17129 0.34668 0.0
C968 C 0.19065 0.15229 0.3231 0.0
C969 C 0.21233 0.13338 0.33386 0.0
C970 C 0.22222 0.13367 0.36793 0.0
C971 C 0.20931 0.15279 0.39119 0.0
H972 H 0.91007 0.05461 0.26153 0.0
H973 H 0.93709 0.10163 0.36223 0.0
H974 H 0.88972 0.03355 0.38421 0.0
H975 H 0.80482 0.98688 0.27417 0.0
H976 H 0.80118 0.94598 0.24916 0.0
H977 H 0.83858 0.99754 0.23943 0.0
H978 H 0.89646 0.98221 0.24289 0.0
H979 H 0.8612 0.92983 0.25202 0.0
H980 H 0.90308 0.95929 0.27973 0.0
H981 H 0.84235 0.96089 0.39553 0.0
H982 H 0.79129 0.88856 0.39589 0.0
H983 H 0.79151 0.88733 0.28791 0.0
C984 C 0.90604 0.05051 0.28821 0.0
C985 C 0.9273 0.0835 0.3102 0.0
C986 C 0.92085 0.07699 0.34492 0.0
C987 C 0.89425 0.03836 0.35764 0.0
C988 C 0.87416 1.00652 0.33534 0.0
C989 C 0.8793 0.01213 0.30136 0.0
C990 C 0.85329 0.97268 0.28295 0.0
C991 C 0.82261 0.97592 0.26009 0.0
C992 C 0.88008 0.96023 0.26324 0.0
C993 C 0.83233 0.94413 0.31196 0.0
C994 C 0.84551 0.96437 0.34189 0.0
C995 C 0.83154 0.94478 0.37228 0.0
C996 C 0.80247 0.90365 0.37218 0.0
C997 C 0.78699 0.88246 0.34193 0.0
C998 C 0.80273 0.90283 0.31138 0.0
H999 H 0.18744 0.62078 0.4292 0.0
H1000 H 0.14523 0.65445 0.34134 0.0
H1001 H 0.11908 0.58521 0.31859 0.0
H1002 H 0.21891 0.55563 0.3864 0.0
H1003 H 0.20332 0.52059 0.42076 0.0
H1004 H 0.22051 0.57327 0.42828 0.0
H1005 H 0.15299 0.55327 0.45929 0.0
H1006 H 0.13544 0.50065 0.45151 0.0
H1007 H 0.10533 0.52266 0.4383 0.0
H1008 H 0.0925 0.50882 0.30817 0.0
H1009 H 0.07394 0.43645 0.30925 0.0
H1010 H 0.13571 0.45582 0.40383 0.0
C1011 C 0.17311 0.61369 0.40497 0.0
C1012 C 0.16819 0.64279 0.38702 0.0
C1013 C 0.14948 0.63257 0.35535 0.0
C1014 C 0.13441 0.59329 0.34237 0.0
C1015 C 0.13887 0.5649 0.3612 0.0
C1016 C 0.15846 0.57504 0.3916 0.0
C1017 C 0.15921 0.53941 0.40738 0.0
C1018 C 0.20309 0.54773 0.4109 0.0
C1019 C 0.1369 0.52836 0.4411 0.0
C1020 C 0.13615 0.50719 0.3816 0.0
C1021 C 0.12456 0.52215 0.35504 0.0
C1022 C 0.10184 0.49706 0.32877 0.0
C1023 C 0.09122 0.45594 0.32964 0.0
C1024 C 0.10351 0.44047 0.35653 0.0
C1025 C 0.12612 0.46666 0.38273 0.0
H1026 H 0.39915 0.57562 0.40621 0.0
H1027 H 0.38071 0.47911 0.33932 0.0
H1028 H 0.45337 0.51858 0.32184 0.0
H1029 H 0.47117 0.65953 0.35348 0.0
H1030 H 0.50046 0.68878 0.3885 0.0
H1031 H 0.44676 0.65447 0.39316 0.0
H1032 H 0.46029 0.61819 0.44162 0.0
H1033 H 0.51407 0.65224 0.43761 0.0
H1034 H 0.49417 0.59837 0.43535 0.0
H1035 H 0.53229 0.56976 0.31527 0.0
H1036 H 0.60353 0.62753 0.31701 0.0
H1037 H 0.56651 0.68596 0.39069 0.0
C1038 C 0.41016 0.56329 0.38718 0.0
C1039 C 0.3843 0.52468 0.3737 0.0
C1040 C 0.39991 0.50907 0.34939 0.0
C1041 C 0.44123 0.53114 0.33964 0.0
C1042 C 0.46642 0.56873 0.35445 0.0
C1043 C 0.45096 0.58471 0.37738 0.0
C1044 C 0.48362 0.62487 0.39063 0.0
C1045 C 0.47497 0.65891 0.38086 0.0
C1046 C 0.4883 0.62328 0.42854 0.0
C1047 C 0.52028 0.62887 0.37234 0.0
C1048 C 0.51029 0.59665 0.3513 0.0
C1049 C 0.54016 0.59504 0.33172 0.0
C1050 C 0.58068 0.62771 0.3331 0.0
C1051 C 0.59079 0.66132 0.35399 0.0
C1052 C 0.56005 0.66093 0.37428 0.0
H1053 H 0.36347 0.90715 0.42271 0.0
H1054 H 0.42082 0.98125 0.3358 0.0
H1055 H 0.47581 0.96451 0.33933 0.0
H1056 H 0.46262 0.93254 0.46632 0.0
H1057 H 0.43941 0.88212 0.48339 0.0
H1058 H 0.40923 0.90597 0.47659 0.0
H1059 H 0.35931 0.84449 0.44114 0.0
H1060 H 0.38978 0.82097 0.44676 0.0
H1061 H 0.37822 0.83037 0.40537 0.0
H1062 H 0.51396 0.92442 0.34494 0.0
H1063 H 0.53893 0.87754 0.35816 0.0
H1064 H 0.4634 0.83964 0.44723 0.0
C1065 C 0.38858 0.92138 0.40527 0.0
C1066 C 0.38701 0.94433 0.37829 0.0
C1067 C 0.42038 0.96245 0.35602 0.0
C1068 C 0.452 0.95321 0.35797 0.0
C1069 C 0.45068 0.92744 0.38332 0.0
C1070 C 0.42069 0.91338 0.40748 0.0
C1071 C 0.42443 0.88457 0.4312 0.0
C1072 C 0.43455 0.90238 0.46647 0.0
C1073 C 0.38565 0.84266 0.43108 0.0
C1074 C 0.45995 0.88286 0.41574 0.0
C1075 C 0.47467 0.90748 0.38804 0.0
C1076 C 0.50371 0.90631 0.36738 0.0
C1077 C 0.51793 0.87944 0.37529 0.0
C1078 C 0.50359 0.8542 0.40398 0.0
C1079 C 0.47496 0.85733 0.42473 0.0
H1080 H 0.81167 0.2255 0.61545 0.0
H1081 H 0.81963 0.26964 0.71606 0.0
H1082 H 0.74635 0.24811 0.71487 0.0
H1083 H 0.74139 0.26167 0.58964 0.0
H1084 H 0.71491 0.22115 0.56034 0.0
H1085 H 0.7679 0.23964 0.56888 0.0
H1086 H 0.7526 0.16682 0.58685 0.0
H1087 H 0.70139 0.15055 0.57393 0.0
H1088 H 0.71041 0.1385 0.61491 0.0
H1089 H 0.67111 0.21915 0.70308 0.0
H1090 H 0.60186 0.18984 0.68073 0.0
H1091 H 0.64351 0.16381 0.58787 0.0
C1092 C 0.79789 0.2308 0.63709 0.0
C1093 C 0.82108 0.24905 0.66589 0.0
C1094 C 0.80238 0.25607 0.69365 0.0
C1095 C 0.76075 0.24366 0.69327 0.0
C1096 C 0.73851 0.22525 0.66462 0.0
C1097 C 0.7566 0.21953 0.6368 0.0
C1098 C 0.72653 0.20172 0.6084 0.0
C1099 C 0.73839 0.2329 0.58015 0.0
C1100 C 0.72265 0.16208 0.59533 0.0
C1101 C 0.68795 0.19468 0.62562 0.0
C1102 C 0.69562 0.20942 0.6577 0.0
C1103 C 0.66476 0.2073 0.67801 0.0
C1104 C 0.62515 0.1899 0.66511 0.0
C1105 C 0.61622 0.17387 0.63231 0.0
C1106 C 0.64852 0.17621 0.61271 0.0
H1107 H 0.8728 0.49164 0.58827 0.0
H1108 H 0.85423 0.42823 0.68231 0.0
H1109 H 0.82649 0.46907 0.70642 0.0
H1110 H 0.90102 0.58414 0.61421 0.0
H1111 H 0.87127 0.59735 0.5873 0.0
H1112 H 0.88614 0.56157 0.57391 0.0
H1113 H 0.81427 0.50488 0.5638 0.0
H1114 H 0.79659 0.53983 0.57294 0.0
H1115 H 0.7755 0.49235 0.59492 0.0
H1116 H 0.79779 0.51605 0.71953 0.0
H1117 H 0.77716 0.56846 0.72136 0.0
H1118 H 0.81444 0.59932 0.61856 0.0
C1119 C 0.86226 0.48535 0.61376 0.0
C1120 C 0.86588 0.45618 0.6331 0.0
C1121 C 0.85269 0.45064 0.66681 0.0
C1122 C 0.83628 0.47338 0.68069 0.0
C1123 C 0.83244 0.50108 0.66049 0.0
C1124 C 0.84477 0.50673 0.62764 0.0
C1125 C 0.83693 0.53769 0.61076 0.0
C1126 C 0.87614 0.57234 0.59573 0.0
C1127 C 0.80386 0.51748 0.58403 0.0
C1128 C 0.82123 0.55111 0.63995 0.0
C1129 C 0.81723 0.52853 0.66813 0.0
C1130 C 0.80087 0.53387 0.6976 0.0
C1131 C 0.78889 0.56338 0.69836 0.0
C1132 C 0.79428 0.58774 0.6701 0.0
C1133 C 0.8103 0.58118 0.64054 0.0
H1134 H 0.54756 0.40762 0.59604 0.0
H1135 H 0.56805 0.45002 0.69819 0.0
H1136 H 0.54005 0.38001 0.71808 0.0
H1137 H 0.45937 0.33134 0.60405 0.0
H1138 H 0.45955 0.29035 0.58158 0.0
H1139 H 0.49323 0.34209 0.56974 0.0
H1140 H 0.55882 0.34205 0.57704 0.0
H1141 H 0.52896 0.28809 0.58328 0.0
H1142 H 0.56699 0.31921 0.61327 0.0
H1143 H 0.50863 0.30627 0.72729 0.0
H1144 H 0.46372 0.23224 0.72599 0.0
H1145 H 0.45529 0.23653 0.61862 0.0
C1146 C 0.54661 0.40212 0.62255 0.0
C1147 C 0.56034 0.43426 0.64556 0.0
C1148 C 0.55843 0.42593 0.68009 0.0
C1149 C 0.54279 0.38632 0.69165 0.0
C1150 C 0.52954 0.35535 0.66838 0.0
C1151 C 0.53131 0.36265 0.63455 0.0
C1152 C 0.51133 0.32339 0.61513 0.0
C1153 C 0.47881 0.32149 0.59129 0.0
C1154 C 0.54344 0.31787 0.59606 0.0
C1155 C 0.49378 0.2932 0.64354 0.0
C1156 C 0.50736 0.31225 0.67388 0.0
C1157 C 0.49767 0.29091 0.70375 0.0
C1158 C 0.47228 0.24895 0.70277 0.0
C1159 C 0.45559 0.22921 0.67229 0.0
C1160 C 0.46715 0.25138 0.64223 0.0
H1161 H 0.74679 0.78735 0.66502 0.0
H1162 H 0.84708 0.79851 0.72472 0.0
H1163 H 0.87655 0.87224 0.72621 0.0
H1164 H 0.80541 0.88283 0.61767 0.0
H1165 H 0.76467 0.89424 0.61872 0.0
H1166 H 0.75336 0.84235 0.61902 0.0
H1167 H 0.71147 0.82933 0.67321 0.0
H1168 H 0.7225 0.88104 0.67301 0.0
H1169 H 0.7349 0.86103 0.70894 0.0
H1170 H 0.89322 0.94425 0.72512 0.0
H1171 H 0.89252 1.0086 0.7253 0.0
H1172 H 0.78218 0.95273 0.66633 0.0
C1173 C 0.77521 0.80543 0.678 0.0
C1174 C 0.79474 0.78696 0.69447 0.0
C1175 C 0.83157 0.81171 0.71166 0.0
C1176 C 0.84876 0.85382 0.71258 0.0
C1177 C 0.82882 0.87112 0.6963 0.0
C1178 C 0.79274 0.8478 0.67948 0.0
C1179 C 0.77601 0.87397 0.66642 0.0
C1180 C 0.7748 0.87331 0.62819 0.0
C1181 C 0.73373 0.86055 0.68129 0.0
C1182 C 0.80773 0.91529 0.67939 0.0
C1183 C 0.83827 0.913 0.69605 0.0
C1184 C 0.86974 0.9466 0.71179 0.0
C1185 C 0.86929 0.98324 0.71153 0.0
C1186 C 0.8374 0.98606 0.69587 0.0
C1187 C 0.80698 0.95174 0.6787 0.0
H1188 H 0.09631 0.85761 0.6553 0.0
H1189 H 0.03904 0.89481 0.73032 0.0
H1190 H 0.10434 0.95689 0.74 0.0
H1191 H 0.18662 0.88838 0.69794 0.0
H1192 H 0.22017 0.9068 0.66243 0.0
H1193 H 0.16813 0.86743 0.65727 0.0
H1194 H 0.15593 0.91041 0.61339 0.0
H1195 H 0.20869 0.94825 0.61753 0.0
H1196 H 0.16984 0.96186 0.62327 0.0
H1197 H 0.17603 1.00742 0.74875 0.0
H1198 H 0.24943 0.05395 0.74772 0.0
H1199 H 0.26233 0.98854 0.66445 0.0
C1200 C 0.09734 0.87942 0.67309 0.0
C1201 C 0.06249 0.87143 0.69202 0.0
C1202 C 0.06503 0.90054 0.71515 0.0
C1203 C 0.10213 0.93567 0.72112 0.0
C1204 C 0.13626 0.94144 0.70345 0.0
C1205 C 0.13419 0.91486 0.67923 0.0
C1206 C 0.17604 0.92791 0.66475 0.0
C1207 C 0.18844 0.8957 0.67098 0.0
C1208 C 0.17768 0.93772 0.62751 0.0
C1209 C 0.20194 0.96573 0.685 0.0
C1210 C 0.17816 0.97232 0.70747 0.0
C1211 C 0.1948 1.00339 0.73056 0.0
C1212 C 0.23664 0.02972 0.72968 0.0
C1213 C 0.26153 0.02578 0.70526 0.0
C1214 C 0.24409 0.99257 0.68318 0.0
H1215 H 0.17428 0.21754 0.68915 0.0
H1216 H 0.08322 0.09991 0.72714 0.0
H1217 H 0.03158 0.1202 0.72333 0.0
H1218 H 0.13928 0.27696 0.72748 0.0
H1219 H 0.14579 0.30963 0.69276 0.0
H1220 H 0.17707 0.2865 0.69607 0.0
H1221 H 0.15413 0.25497 0.63765 0.0
H1222 H 0.12315 0.27847 0.63397 0.0
H1223 H 0.10063 0.22457 0.62878 0.0
H1224 H 0.99529 0.15719 0.72957 0.0
H1225 H 0.96703 0.20218 0.72858 0.0
H1226 H 0.07087 0.29128 0.67262 0.0
C1227 C 0.14327 0.19575 0.69586 0.0
C1228 C 0.13342 0.15746 0.70977 0.0
C1229 C 0.09227 0.12992 0.71788 0.0
C1230 C 0.06244 0.14104 0.71556 0.0
C1231 C 0.07345 0.17941 0.70374 0.0
C1232 C 0.11223 0.20596 0.69262 0.0
C1233 C 0.11445 0.24515 0.68046 0.0
C1234 C 0.14604 0.28172 0.70038 0.0
C1235 C 0.12364 0.25114 0.64298 0.0
C1236 C 0.0713 0.23662 0.68791 0.0
C1237 C 0.04897 0.19868 0.70205 0.0
C1238 C 1.01121 0.18574 0.71642 0.0
C1239 C 0.99494 0.21139 0.71526 0.0
C1240 C 1.01442 0.24857 0.69782 0.0
C1241 C 0.05388 0.2619 0.68438 0.0
H1242 H 0.12748 0.43283 0.26278 0.0
H1243 H 0.07969 0.30429 0.24656 0.0
H1244 H 0.04968 0.30849 0.19395 0.0
H1245 H 0.04432 0.4399 0.22677 0.0
H1246 H 0.07539 0.48751 0.20594 0.0
H1247 H 0.09347 0.4755 0.2433 0.0
H1248 H 0.1584 0.48735 0.21218 0.0
H1249 H 0.14061 0.49983 0.17492 0.0
H1250 H 0.15358 0.46031 0.17411 0.0
H1251 H 1.01931 0.3234 0.14631 0.0
H1252 H 1.00285 0.35166 0.09772 0.0
H1253 H 0.07523 0.47262 0.13773 0.0
C1254 C 0.11121 0.4058 0.24785 0.0
C1255 C 0.10534 0.36797 0.25939 0.0
C1256 C 0.08411 0.33344 0.23885 0.0
C1257 C 0.06668 0.33542 0.20883 0.0
C1258 C 0.07132 0.37241 0.19887 0.0
C1259 C 0.09402 0.40735 0.21699 0.0
C1260 C 0.09568 0.4434 0.19883 0.0
C1261 C 0.07605 0.46272 0.21998 0.0
C1262 C 0.13969 0.47457 0.18945 0.0
C1263 C 0.0703 0.42295 0.16791 0.0
C1264 C 0.05598 0.3818 0.16922 0.0
C1265 C 0.03105 0.35568 0.14459 0.0
C1266 C 0.02198 0.37204 0.11698 0.0
C1267 C 0.03844 0.41428 0.11346 0.0
C1268 C 0.06212 0.44015 0.13976 0.0
H1269 H 0.69789 0.72528 0.24711 0.0
H1270 H 0.58884 0.72945 0.27146 0.0
H1271 H 0.55378 0.6839 0.2239 0.0
H1272 H 0.69226 0.72328 0.15994 0.0
H1273 H 0.71063 0.68802 0.15596 0.0
H1274 H 0.72461 0.7209 0.19142 0.0
H1275 H 0.69239 0.65557 0.23171 0.0
H1276 H 0.68364 0.62678 0.19402 0.0
H1277 H 0.64242 0.61536 0.22248 0.0
H1278 H 0.53274 0.64068 0.17007 0.0
H1279 H 0.52886 0.60642 0.11662 0.0
H1280 H 0.6504 0.62662 0.13177 0.0
C1281 C 0.66675 0.71674 0.24286 0.0
C1282 C 0.6466 0.73153 0.26326 0.0
C1283 C 0.60535 0.71898 0.25623 0.0
C1284 C 0.58506 0.69285 0.22932 0.0
C1285 C 0.60606 0.67862 0.21003 0.0
C1286 C 0.64593 0.68997 0.21683 0.0
C1287 C 0.66199 0.67045 0.19289 0.0
C1288 C 0.69959 0.70255 0.17393 0.0
C1289 C 0.67069 0.64025 0.21127 0.0
C1290 C 0.62596 0.64825 0.17011 0.0
C1291 C 0.59356 0.65263 0.18061 0.0
C1292 C 0.5577 0.63648 0.16222 0.0
C1293 C 0.55556 0.61668 0.13208 0.0
C1294 C 0.58879 0.61266 0.12076 0.0
C1295 C 0.624 0.62788 0.14047 0.0
H1296 H 0.35057 0.94037 0.10965 0.0
H1297 H 0.47073 0.03853 0.13521 0.0
H1298 H 0.45211 0.02528 0.19509 0.0
H1299 H 0.29959 0.96588 0.1682 0.0
H1300 H 0.2607 0.91486 0.17809 0.0
H1301 H 0.28376 0.9268 0.13738 0.0
H1302 H 0.30623 0.87373 0.14184 0.0
H1303 H 0.28156 0.85865 0.18183 0.0
H1304 H 0.33445 0.87323 0.17767 0.0
H1305 H 0.41879 0.99938 0.25294 0.0
H1306 H 0.37259 0.96995 0.30128 0.0
H1307 H 0.27353 0.89418 0.23614 0.0
C1308 C 0.37354 0.9592 0.12752 0.0
C1309 C 0.41261 0.99031 0.1173 0.0
C1310 C 0.44091 0.01414 0.14212 0.0
C1311 C 0.4305 1.00684 0.17623 0.0
C1312 C 0.3915 0.976 0.18509 0.0
C1313 C 0.36341 0.95304 0.16123 0.0
C1314 C 0.32246 0.92389 0.17645 0.0
C1315 C 0.28966 0.93341 0.16436 0.0
C1316 C 0.31049 0.87977 0.169 0.0
C1317 C 0.33168 0.93348 0.21296 0.0
C1318 C 0.37186 0.96308 0.21757 0.0
C1319 C 0.38749 0.97605 0.24937 0.0
C1320 C 0.36134 0.95878 0.27683 0.0
C1321 C 0.32009 0.92929 0.2726 0.0
C1322 C 0.30511 0.91649 0.24017 0.0
H1323 H 0.45477 0.10167 0.92819 0.0
H1324 H 0.40274 0.97555 0.90041 0.0
H1325 H 0.37598 0.98841 0.84892 0.0
H1326 H 0.37898 0.12042 0.89435 0.0
H1327 H 0.41345 0.1695 0.87702 0.0
H1328 H 0.4282 0.15143 0.91284 0.0
H1329 H 0.49242 0.16174 0.88252 0.0
H1330 H 0.47884 0.18043 0.84642 0.0
H1331 H 0.48798 0.13852 0.8426 0.0
H1332 H 0.34521 0.01189 0.80567 0.0
H1333 H 0.3359 0.04922 0.75972 0.0
H1334 H 0.41828 0.16283 0.80758 0.0
C1335 C 0.43831 0.07696 0.91099 0.0
C1336 C 0.42904 0.03704 0.91918 0.0
C1337 C 0.4086 1.00593 0.89545 0.0
C1338 C 0.39311 0.01287 0.86615 0.0
C1339 C 0.39979 0.05164 0.86005 0.0
C1340 C 0.42382 0.08371 0.88069 0.0
C1341 C 0.42971 0.12312 0.86592 0.0
C1342 C 0.41148 0.14224 0.8889 0.0
C1343 C 0.47491 0.15269 0.85892 0.0
C1344 C 0.40537 0.10793 0.83384 0.0
C1345 C 0.38675 0.0663 0.83207 0.0
C1346 C 0.36031 0.04459 0.80635 0.0
C1347 C 0.35487 0.06606 0.78046 0.0
C1348 C 0.37657 0.10881 0.77992 0.0
C1349 C 0.40149 0.13008 0.80736 0.0
H1350 H 0.95265 0.34518 0.94217 0.0
H1351 H 0.98796 0.46611 0.90775 0.0
H1352 H 0.96702 0.4404 0.85107 0.0
H1353 H 0.9901 0.31664 0.86921 0.0
H1354 H 0.94963 0.26504 0.87064 0.0
H1355 H 0.96537 0.29438 0.90836 0.0
H1356 H 0.88904 0.27515 0.9156 0.0
H1357 H 0.87618 0.24943 0.87604 0.0
H1358 H 0.86557 0.28984 0.8837 0.0
H1359 H 0.94401 0.40433 0.79936 0.0
H1360 H 0.92851 0.36195 0.75098 0.0
H1361 H 0.91472 0.26191 0.81298 0.0
C1362 C 0.95463 0.36577 0.92272 0.0
C1363 C 0.96949 0.40741 0.92975 0.0
C1364 C 0.97423 0.43394 0.90345 0.0
C1365 C 0.96286 0.41959 0.87102 0.0
C1366 C 0.9478 0.3786 0.86487 0.0
C1367 C 0.94416 0.35191 0.8896 0.0
C1368 C 0.92989 0.30991 0.87474 0.0
C1369 C 0.96061 0.29567 0.88122 0.0
C1370 C 0.88766 0.27926 0.88834 0.0
C1371 C 0.92792 0.318 0.83771 0.0
C1372 C 0.93721 0.35767 0.83336 0.0
C1373 C 0.93696 0.37328 0.80237 0.0
C1374 C 0.92791 0.34832 0.77476 0.0
C1375 C 0.92043 0.30786 0.77737 0.0
C1376 C 0.92014 0.29237 0.8097 0.0
H1377 H 0.75719 0.70081 0.8 0.0
H1378 H 0.74006 0.58405 0.77091 0.0
H1379 H 0.70486 0.55453 0.8242 0.0
H1380 H 0.76884 0.69098 0.89098 0.0
H1381 H 0.73974 0.71463 0.90234 0.0
H1382 H 0.76916 0.72933 0.86445 0.0
H1383 H 0.70597 0.71309 0.82965 0.0
H1384 H 0.67523 0.69886 0.86668 0.0
H1385 H 0.66128 0.66367 0.83288 0.0
H1386 H 0.66464 0.53609 0.87871 0.0
H1387 H 0.62465 0.53125 0.92914 0.0
H1388 H 0.66569 0.65919 0.92092 0.0
C1389 C 0.74765 0.66953 0.80562 0.0
C1390 C 0.75223 0.64489 0.7818 0.0
C1391 C 0.7375 0.60354 0.78921 0.0
C1392 C 0.71731 0.58648 0.81935 0.0
C1393 C 0.71166 0.61108 0.84185 0.0
C1394 C 0.72671 0.65182 0.83543 0.0
C1395 C 0.71309 0.67067 0.86204 0.0
C1396 C 0.7499 0.70337 0.88105 0.0
C1397 C 0.68742 0.68761 0.84689 0.0
C1398 C 0.6874 0.6342 0.88396 0.0
C1399 C 0.68728 0.60015 0.87224 0.0
C1400 C 0.66477 0.56273 0.88815 0.0
C1401 C 0.64196 0.5602 0.91676 0.0
C1402 C 0.64118 0.59472 0.92894 0.0
C1403 C 0.66461 0.63205 0.91218 0.0
H1404 H 0.71961 0.79501 0.47361 0.0
H1405 H 0.74218 0.71398 0.41268 0.0
H1406 H 0.77449 0.70087 0.45963 0.0
H1407 H 0.81774 0.83338 0.52425 0.0
H1408 H 0.79339 0.83642 0.56186 0.0
H1409 H 0.77722 0.84501 0.522 0.0
H1410 H 0.70625 0.7932 0.53811 0.0
H1411 H 0.71836 0.77574 0.57571 0.0
H1412 H 0.69215 0.74113 0.54196 0.0
H1413 H 0.79966 0.69118 0.51247 0.0
H1414 H 0.81247 0.68203 0.57103 0.0
H1415 H 0.77433 0.76712 0.60161 0.0
C1416 C 0.73194 0.77504 0.47011 0.0
C1417 C 0.72766 0.75525 0.43915 0.0
C1418 C 0.74415 0.72916 0.43591 0.0
C1419 C 0.76318 0.72176 0.46248 0.0
C1420 C 0.7663 0.74091 0.49259 0.0
C1421 C 0.75159 0.76733 0.49676 0.0
C1422 C 0.75694 0.78142 0.53293 0.0
C1423 C 0.78818 0.82676 0.53539 0.0
C1424 C 0.71606 0.77228 0.54822 0.0
C1425 C 0.77385 0.75619 0.54853 0.0
C1426 C 0.78042 0.73444 0.52424 0.0
C1427 C 0.79527 0.70847 0.53173 0.0
C1428 C 0.80277 0.70365 0.56502 0.0
C1429 C 0.7955 0.72459 0.59065 0.0
C1430 C 0.78141 0.75176 0.5823 0.0
H1431 H 0.34622 1.00217 0.45122 0.0
H1432 H 0.21963 0.91132 0.46459 0.0
H1433 H 0.21819 0.94334 0.51795 0.0
H1434 H 0.37406 1.00831 0.53952 0.0
H1435 H 0.40941 0.06186 0.53695 0.0
H1436 H 0.39986 0.03043 0.50086 0.0
H1437 H 0.38079 0.07696 0.46769 0.0
H1438 H 0.38928 0.10791 0.50394 0.0
H1439 H 0.34092 0.08536 0.48302 0.0
H1440 H 0.22961 0.99071 0.56742 0.0
H1441 H 0.25628 0.03914 0.61453 0.0
H1442 H 0.37635 0.09602 0.56985 0.0
C1443 C 0.31845 0.98852 0.46577 0.0
C1444 C 0.28309 0.95407 0.45392 0.0
C1445 C 0.24724 0.93724 0.4735 0.0
C1446 C 0.24604 0.95558 0.50362 0.0
C1447 C 0.28114 0.99037 0.51408 0.0
C1448 C 0.31699 1.00591 0.49614 0.0
C1449 C 0.35082 0.04291 0.513 0.0
C1450 C 0.38558 0.03541 0.5232 0.0
C1451 C 0.36635 0.0805 0.49058 0.0
C1452 C 0.32847 0.04606 0.54317 0.0
C1453 C 0.28812 0.01601 0.54311 0.0
C1454 C 0.26133 0.01384 0.56804 0.0
C1455 C 0.27657 0.04186 0.59442 0.0
C1456 C 0.31832 0.07147 0.59582 0.0
C1457 C 0.34425 0.07379 0.56947 0.0
H1458 H 1.00092 0.31531 0.59161 0.0
H1459 H 0.95678 0.18677 0.59722 0.0
H1460 H 0.99502 0.19192 0.54517 0.0
H1461 H 0.99018 0.32129 0.50658 0.0
H1462 H 0.0352 0.36985 0.50061 0.0
H1463 H 1.00897 0.35745 0.53991 0.0
H1464 H 0.07381 0.37059 0.57154 0.0
H1465 H 0.10116 0.38557 0.53264 0.0
H1466 H 0.10171 0.34653 0.55761 0.0
H1467 H 0.03513 0.21207 0.48948 0.0
H1468 H 0.06923 0.24293 0.43614 0.0
H1469 H 0.08547 0.35859 0.4679 0.0
C1470 C 0.99887 0.28809 0.582 0.0
C1471 C 0.97504 0.25055 0.59841 0.0
C1472 C 0.97456 0.21589 0.5852 0.0
C1473 C 0.99627 0.21866 0.55564 0.0
C1474 C 1.01871 0.25639 0.53986 0.0
C1475 C 0.02013 0.29049 0.55288 0.0
C1476 C 0.0446 0.32735 0.53098 0.0
C1477 C 1.01819 0.34501 0.51878 0.0
C1478 C 0.08257 0.35941 0.54927 0.0
C1479 C 0.05614 0.30875 0.50273 0.0
C1480 C 0.04145 0.26789 0.50848 0.0
C1481 C 0.04692 0.24402 0.48508 0.0
C1482 C 0.06655 0.2619 0.45488 0.0
C1483 C 0.08045 0.3033 0.44799 0.0
C1484 C 0.07612 0.32719 0.47273 0.0
loop_
_geom_bond_atom_site_label_1
_geom_bond_atom_site_label_2
_geom_bond_distance
_geom_bond_site_symmetry_2
_ccdc_geom_bond_type
C0 C2 1.422 . S
C0 C4 1.415 . S
C0 N6 1.369 1_455 S
C1 C2 1.430 . S
C1 C3 1.432 . S
C1 C13 1.400 1_554 S
C2 C0 1.422 . S
C2 C1 1.430 . S
C2 N12 1.359 1_454 S
C3 C1 1.432 . S
C3 C5 1.329 . S
C3 H22 0.930 . S
C4 C0 1.415 . S
C4 C5 1.437 . S
C4 C8 1.413 . S
C5 C3 1.329 . S
C5 C4 1.437 . S
C5 H27 0.929 . S
N6 C0 1.369 1_655 S
N6 C7 1.338 1_655 S
N6 Gd11 2.622 . S
C7 N6 1.338 1_455 S
C7 C9 1.378 . S
C7 H19 0.929 1_455 S
C8 C4 1.413 . S
C8 C9 1.348 . S
C8 H24 0.931 . S
C9 C7 1.378 . S
C9 C8 1.348 . S
C9 H25 0.930 . S
Gd10 N30 2.622 . S
Gd10 N37 2.570 1_556 S
Gd10 O44 2.353 . S
Gd10 O45 2.468 1_556 S
Gd10 O46 2.427 . S
Gd10 O48 2.388 . S
Gd10 O49 2.386 1_455 S
Gd10 O53 2.307 1_556 S
Gd10 C63 2.805 . S
Gd11 N6 2.622 . S
Gd11 N12 2.570 1_554 S
Gd11 O43 2.386 1_655 S
Gd11 O47 2.307 1_554 S
Gd11 O50 2.353 . S
Gd11 O51 2.468 1_554 S
Gd11 O52 2.427 . S
Gd11 O54 2.388 . S
Gd11 C75 2.805 . S
N12 C2 1.359 1_656 S
N12 Gd11 2.570 1_556 S
N12 C14 1.343 . S
C13 C1 1.400 1_556 S
C13 C15 1.321 . S
C13 H21 0.931 . S
C14 N12 1.343 . S
C14 C15 1.390 1_655 S
C14 H16 0.931 . S
C15 C13 1.321 . S
C15 C14 1.390 1_455 S
C15 H17 0.930 . S
H16 C14 0.931 . S
H17 C15 0.930 . S
H18 C41 0.931 . S
H19 C7 0.929 1_655 S
H20 C42 0.930 . S
H21 C13 0.931 . S
H22 C3 0.930 . S
H23 C32 0.929 . S
H24 C8 0.931 . S
H25 C9 0.930 . S
H26 C64 0.930 . S
H27 C5 0.929 . S
H28 C33 0.931 . S
H29 C34 0.930 . S
N30 Gd10 2.622 . S
N30 C31 1.369 . S
N30 C32 1.338 . S
C31 N30 1.369 . S
C31 C35 1.415 1_455 S
C31 C38 1.422 . S
C32 H23 0.929 . S
C32 N30 1.338 . S
C32 C34 1.378 1_455 S
C33 H28 0.931 . S
C33 C34 1.348 . S
C33 C35 1.413 . S
C34 H29 0.930 . S
C34 C32 1.378 1_655 S
C34 C33 1.348 . S
C35 C31 1.415 1_655 S
C35 C33 1.413 . S
C35 C65 1.437 . S
H36 C65 0.929 . S
N37 Gd10 2.570 1_554 S
N37 C38 1.359 1_554 S
N37 C41 1.343 . S
C38 C31 1.422 . S
C38 N37 1.359 1_556 S
C38 C40 1.421 1_456 S
C39 C40 1.422 . S
C39 C42 1.321 1_655 S
C39 H66 0.931 . S
C40 C38 1.421 1_654 S
C40 C39 1.422 . S
C40 C64 1.417 1_554 S
C41 H18 0.931 . S
C41 N37 1.343 . S
C41 C42 1.390 . S
C42 H20 0.930 . S
C42 C39 1.321 1_455 S
C42 C41 1.390 . S
O43 Gd11 2.386 1_455 S
O43 C55 1.265 1_554 S
O44 Gd10 2.353 . S
O44 C55 1.242 . S
O45 Gd10 2.468 1_554 S
O45 C63 1.263 1_554 S
O46 Gd10 2.427 . S
O46 C63 1.252 . S
O47 Gd11 2.307 1_556 S
O47 C56 1.261 . S
O48 Gd10 2.388 . S
O48 C56 1.252 1_455 S
O49 Gd10 2.386 1_655 S
O49 C67 1.265 1_556 S
O50 Gd11 2.353 . S
O50 C67 1.242 . S
O51 Gd11 2.468 1_556 S
O51 C75 1.263 1_556 S
O52 Gd11 2.427 . S
O52 C75 1.252 . S
O53 Gd10 2.307 1_554 S
O53 C68 1.261 . S
O54 Gd11 2.388 . S
O54 C68 1.252 1_655 S
C55 O43 1.265 1_556 S
C55 O44 1.242 . S
C56 O47 1.261 . S
C56 O48 1.252 1_655 S
C57 C60 1.394 . S
C57 C62 1.370 1_556 S
C57 C63 1.500 . S
C58 C61 1.383 1_554 S
C58 C62 1.395 . S
C59 C60 1.396 . S
C59 C61 1.365 . S
C59 H76 0.929 . S
C60 C57 1.394 . S
C60 C59 1.396 . S
C60 H77 0.930 . S
C61 C58 1.383 1_556 S
C61 C59 1.365 . S
C61 H78 0.931 . S
C62 C57 1.370 1_554 S
C62 C58 1.395 . S
C62 H79 0.930 . S
C63 Gd10 2.805 . S
C63 O45 1.263 1_556 S
C63 O46 1.252 . S
C63 C57 1.500 . S
C64 H26 0.930 . S
C64 C40 1.417 1_556 S
C64 C65 1.329 . S
C65 C35 1.437 . S
C65 H36 0.929 . S
C65 C64 1.329 . S
H66 C39 0.931 . S
C67 O49 1.265 1_554 S
C67 O50 1.242 . S
C68 O53 1.261 . S
C68 O54 1.252 1_455 S
C69 C72 1.394 . S
C69 C74 1.370 1_554 S
C69 C75 1.500 . S
C70 C73 1.383 1_556 S
C70 C74 1.395 . S
C71 C72 1.396 . S
C71 C73 1.365 . S
C71 H80 0.929 . S
C72 C69 1.394 . S
C72 C71 1.396 . S
C72 H81 0.930 . S
C73 C70 1.383 1_554 S
C73 C71 1.365 . S
C73 H82 0.931 . S
C74 C69 1.370 1_556 S
C74 C70 1.395 . S
C74 H83 0.930 . S
C75 Gd11 2.805 . S
C75 O51 1.263 1_554 S
C75 O52 1.252 . S
C75 C69 1.500 . S
H76 C59 0.929 . S
H77 C60 0.930 . S
H78 C61 0.931 . S
H79 C62 0.930 . S
H80 C71 0.929 . S
H81 C72 0.930 . S
H82 C73 0.931 . S
H83 C74 0.930 . S
C84 C86 1.422 . S
C84 C88 1.415 . S
C84 N90 1.369 . S
C85 C86 1.430 . S
C85 C87 1.432 . S
C85 C97 1.400 1_554 S
C86 C84 1.422 . S
C86 C85 1.430 . S
C86 N96 1.359 1_554 S
C87 C85 1.432 . S
C87 C89 1.329 . S
C87 H106 0.930 . S
C88 C84 1.415 . S
C88 C89 1.437 . S
C88 C92 1.413 . S
C89 C87 1.329 . S
C89 C88 1.437 . S
C89 H111 0.929 . S
N90 C84 1.369 . S
N90 C91 1.338 . S
N90 Gd95 2.622 . S
C91 N90 1.338 . S
C91 C93 1.378 . S
C91 H103 0.929 . S
C92 C88 1.413 . S
C92 C93 1.348 . S
C92 H108 0.931 . S
C93 C91 1.378 . S
C93 C92 1.348 . S
C93 H109 0.930 . S
Gd94 N114 2.622 . S
Gd94 N121 2.570 1_556 S
Gd94 O128 2.353 . S
Gd94 O129 2.468 1_556 S
Gd94 O130 2.427 . S
Gd94 O132 2.388 . S
Gd94 O133 2.386 . S
Gd94 O137 2.307 1_556 S
Gd94 C147 2.805 . S
Gd95 N90 2.622 . S
Gd95 N96 2.570 1_554 S
Gd95 O127 2.386 . S
Gd95 O131 2.307 1_554 S
Gd95 O134 2.353 . S
Gd95 O135 2.468 1_554 S
Gd95 O136 2.427 . S
Gd95 O138 2.388 . S
Gd95 C159 2.805 . S
N96 C86 1.359 1_556 S
N96 Gd95 2.570 1_556 S
N96 C98 1.343 . S
C97 C85 1.400 1_556 S
C97 C99 1.321 . S
C97 H105 0.931 . S
C98 N96 1.343 . S
C98 C99 1.390 . S
C98 H100 0.931 . S
C99 C97 1.321 . S
C99 C98 1.390 . S
C99 H101 0.930 . S
H100 C98 0.931 . S
H101 C99 0.930 . S
H102 C125 0.931 . S
H103 C91 0.929 . S
H104 C126 0.930 . S
H105 C97 0.931 . S
H106 C87 0.930 . S
H107 C116 0.929 . S
H108 C92 0.931 . S
H109 C93 0.930 . S
H110 C148 0.930 . S
H111 C89 0.929 . S
H112 C117 0.931 . S
H113 C118 0.930 . S
N114 Gd94 2.622 . S
N114 C115 1.369 . S
N114 C116 1.338 . S
C115 N114 1.369 . S
C115 C119 1.415 . S
C115 C122 1.422 . S
C116 H107 0.929 . S
C116 N114 1.338 . S
C116 C118 1.378 . S
C117 H112 0.931 . S
C117 C118 1.348 . S
C117 C119 1.413 . S
C118 H113 0.930 . S
C118 C116 1.378 . S
C118 C117 1.348 . S
C119 C115 1.415 . S
C119 C117 1.413 . S
C119 C149 1.437 . S
H120 C149 0.929 . S
N121 Gd94 2.570 1_554 S
N121 C122 1.359 1_554 S
N121 C125 1.343 . S
C122 C115 1.422 . S
C122 N121 1.359 1_556 S
C122 C124 1.421 1_556 S
C123 C124 1.422 . S
C123 C126 1.321 . S
C123 H150 0.931 . S
C124 C122 1.421 1_554 S
C124 C123 1.422 . S
C124 C148 1.417 1_554 S
C125 H102 0.931 . S
C125 N121 1.343 . S
C125 C126 1.390 . S
C126 H104 0.930 . S
C126 C123 1.321 . S
C126 C125 1.390 . S
O127 Gd95 2.386 . S
O127 C139 1.265 1_554 S
O128 Gd94 2.353 . S
O128 C139 1.242 . S
O129 Gd94 2.468 1_554 S
O129 C147 1.263 1_554 S
O130 Gd94 2.427 . S
O130 C147 1.252 . S
O131 Gd95 2.307 1_556 S
O131 C140 1.261 . S
O132 Gd94 2.388 . S
O132 C140 1.252 . S
O133 Gd94 2.386 . S
O133 C151 1.265 1_556 S
O134 Gd95 2.353 . S
O134 C151 1.242 . S
O135 Gd95 2.468 1_556 S
O135 C159 1.263 1_556 S
O136 Gd95 2.427 . S
O136 C159 1.252 . S
O137 Gd94 2.307 1_554 S
O137 C152 1.261 . S
O138 Gd95 2.388 . S
O138 C152 1.252 . S
C139 O127 1.265 1_556 S
C139 O128 1.242 . S
C140 O131 1.261 . S
C140 O132 1.252 . S
C141 C144 1.394 . S
C141 C146 1.370 1_556 S
C141 C147 1.500 . S
C142 C145 1.383 1_554 S
C142 C146 1.395 . S
C143 C144 1.396 . S
C143 C145 1.365 . S
C143 H160 0.929 . S
C144 C141 1.394 . S
C144 C143 1.396 . S
C144 H161 0.930 . S
C145 C142 1.383 1_556 S
C145 C143 1.365 . S
C145 H162 0.931 . S
C146 C141 1.370 1_554 S
C146 C142 1.395 . S
C146 H163 0.930 . S
C147 Gd94 2.805 . S
C147 O129 1.263 1_556 S
C147 O130 1.252 . S
C147 C141 1.500 . S
C148 H110 0.930 . S
C148 C124 1.417 1_556 S
C148 C149 1.329 . S
C149 C119 1.437 . S
C149 H120 0.929 . S
C149 C148 1.329 . S
H150 C123 0.931 . S
C151 O133 1.265 1_554 S
C151 O134 1.242 . S
C152 O137 1.261 . S
C152 O138 1.252 . S
C153 C156 1.394 . S
C153 C158 1.370 1_554 S
C153 C159 1.500 . S
C154 C157 1.383 1_556 S
C154 C158 1.395 . S
C155 C156 1.396 . S
C155 C157 1.365 . S
C155 H164 0.929 . S
C156 C153 1.394 . S
C156 C155 1.396 . S
C156 H165 0.930 . S
C157 C154 1.383 1_554 S
C157 C155 1.365 . S
C157 H166 0.931 . S
C158 C153 1.370 1_556 S
C158 C154 1.395 . S
C158 H167 0.930 . S
C159 Gd95 2.805 . S
C159 O135 1.263 1_554 S
C159 O136 1.252 . S
C159 C153 1.500 . S
H160 C143 0.929 . S
H161 C144 0.930 . S
H162 C145 0.931 . S
H163 C146 0.930 . S
H164 C155 0.929 . S
H165 C156 0.930 . S
H166 C157 0.931 . S
H167 C158 0.930 . S
C168 C170 1.422 1_565 S
C168 C172 1.415 . S
C168 N174 1.369 1_565 S
C169 C170 1.429 1_565 S
C169 C171 1.432 . S
C169 C181 1.400 1_554 S
C170 C168 1.422 1_545 S
C170 C169 1.429 1_545 S
C170 N180 1.359 1_554 S
C171 C169 1.432 . S
C171 C173 1.329 . S
C171 H190 0.930 . S
C172 C168 1.415 . S
C172 C173 1.437 . S
C172 C176 1.413 . S
C173 C171 1.329 . S
C173 C172 1.437 . S
C173 H195 0.929 . S
N174 C168 1.369 1_545 S
N174 C175 1.338 . S
N174 Gd179 2.622 . S
C175 N174 1.338 . S
C175 C177 1.378 1_545 S
C175 H187 0.929 . S
C176 C172 1.413 . S
C176 C177 1.348 . S
C176 H192 0.931 . S
C177 C175 1.378 1_565 S
C177 C176 1.348 . S
C177 H193 0.930 . S
Gd178 N198 2.622 . S
Gd178 N205 2.570 1_556 S
Gd178 O212 2.353 . S
Gd178 O213 2.468 1_556 S
Gd178 O214 2.427 . S
Gd178 O216 2.388 . S
Gd178 O217 2.386 1_565 S
Gd178 O221 2.307 1_556 S
Gd178 C231 2.805 . S
Gd179 N174 2.622 . S
Gd179 N180 2.570 1_554 S
Gd179 O211 2.386 1_545 S
Gd179 O215 2.307 1_554 S
Gd179 O218 2.353 . S
Gd179 O219 2.468 1_554 S
Gd179 O220 2.427 . S
Gd179 O222 2.388 . S
Gd179 C243 2.805 . S
N180 C170 1.359 1_556 S
N180 Gd179 2.570 1_556 S
N180 C182 1.343 . S
C181 C169 1.400 1_556 S
C181 C183 1.321 1_565 S
C181 H189 0.931 . S
C182 N180 1.343 . S
C182 C183 1.390 . S
C182 H184 0.931 . S
C183 C181 1.321 1_545 S
C183 C182 1.390 . S
C183 H185 0.930 . S
H184 C182 0.931 . S
H185 C183 0.930 . S
H186 C209 0.931 . S
H187 C175 0.929 . S
H188 C210 0.930 1_565 S
H189 C181 0.931 . S
H190 C171 0.930 . S
H191 C200 0.929 . S
H192 C176 0.931 . S
H193 C177 0.930 . S
H194 C232 0.930 . S
H195 C173 0.929 . S
H196 C201 0.931 . S
H197 C202 0.930 . S
N198 Gd178 2.622 . S
N198 C199 1.369 1_565 S
N198 C200 1.338 . S
C199 N198 1.369 1_545 S
C199 C203 1.415 . S
C199 C206 1.422 . S
C200 H191 0.929 . S
C200 N198 1.338 . S
C200 C202 1.378 1_565 S
C201 H196 0.931 . S
C201 C202 1.348 . S
C201 C203 1.413 . S
C202 H197 0.930 . S
C202 C200 1.378 1_545 S
C202 C201 1.348 . S
C203 C199 1.415 . S
C203 C201 1.413 . S
C203 C233 1.437 . S
H204 C233 0.929 . S
N205 Gd178 2.570 1_554 S
N205 C206 1.359 1_564 S
N205 C209 1.343 . S
C206 C199 1.422 . S
C206 N205 1.359 1_546 S
C206 C208 1.421 1_556 S
C207 C208 1.422 . S
C207 C210 1.321 . S
C207 H234 0.931 . S
C208 C206 1.421 1_554 S
C208 C207 1.422 . S
C208 C232 1.417 1_554 S
C209 H186 0.931 . S
C209 N205 1.343 . S
C209 C210 1.390 1_565 S
C210 H188 0.930 1_545 S
C210 C207 1.321 . S
C210 C209 1.390 1_545 S
O211 Gd179 2.386 1_565 S
O211 C223 1.265 1_554 S
O212 Gd178 2.353 . S
O212 C223 1.242 . S
O213 Gd178 2.468 1_554 S
O213 C231 1.263 1_554 S
O214 Gd178 2.427 . S
O214 C231 1.252 . S
O215 Gd179 2.307 1_556 S
O215 C224 1.261 . S
O216 Gd178 2.388 . S
O216 C224 1.252 1_565 S
O217 Gd178 2.386 1_545 S
O217 C235 1.265 1_556 S
O218 Gd179 2.353 . S
O218 C235 1.242 . S
O219 Gd179 2.468 1_556 S
O219 C243 1.263 1_556 S
O220 Gd179 2.427 . S
O220 C243 1.252 . S
O221 Gd178 2.307 1_554 S
O221 C236 1.261 . S
O222 Gd179 2.388 . S
O222 C236 1.252 1_545 S
C223 O211 1.265 1_556 S
C223 O212 1.242 . S
C224 O215 1.261 . S
C224 O216 1.252 1_545 S
C225 C228 1.394 . S
C225 C230 1.370 1_556 S
C225 C231 1.500 . S
C226 C229 1.383 1_554 S
C226 C230 1.395 . S
C227 C228 1.396 . S
C227 C229 1.365 . S
C227 H244 0.929 . S
C228 C225 1.394 . S
C228 C227 1.396 . S
C228 H245 0.930 . S
C229 C226 1.383 1_556 S
C229 C227 1.365 . S
C229 H246 0.931 . S
C230 C225 1.370 1_554 S
C230 C226 1.395 . S
C230 H247 0.930 . S
C231 Gd178 2.805 . S
C231 O213 1.263 1_556 S
C231 O214 1.252 . S
C231 C225 1.500 . S
C232 H194 0.930 . S
C232 C208 1.417 1_556 S
C232 C233 1.329 . S
C233 C203 1.437 . S
C233 H204 0.929 . S
C233 C232 1.329 . S
H234 C207 0.931 . S
C235 O217 1.265 1_554 S
C235 O218 1.242 . S
C236 O221 1.261 . S
C236 O222 1.252 1_565 S
C237 C240 1.394 . S
C237 C242 1.370 1_554 S
C237 C243 1.500 . S
C238 C241 1.383 1_556 S
C238 C242 1.395 . S
C239 C240 1.396 . S
C239 C241 1.365 . S
C239 H248 0.929 . S
C240 C237 1.394 . S
C240 C239 1.396 . S
C240 H249 0.930 . S
C241 C238 1.383 1_554 S
C241 C239 1.365 . S
C241 H250 0.931 . S
C242 C237 1.370 1_556 S
C242 C238 1.395 . S
C242 H251 0.930 . S
C243 Gd179 2.805 . S
C243 O219 1.263 1_554 S
C243 O220 1.252 . S
C243 C237 1.500 . S
H244 C227 0.929 . S
H245 C228 0.930 . S
H246 C229 0.931 . S
H247 C230 0.930 . S
H248 C239 0.929 . S
H249 C240 0.930 . S
H250 C241 0.931 . S
H251 C242 0.930 . S
C252 C254 1.422 . S
C252 C256 1.415 . S
C252 N258 1.369 . S
C253 C254 1.421 . S
C253 C255 1.417 1_565 S
C253 C265 1.422 . S
C254 C252 1.422 . S
C254 C253 1.421 . S
C254 N264 1.359 . S
C255 C253 1.417 1_545 S
C255 C257 1.329 1_545 S
C255 H274 0.930 . S
C256 C252 1.415 . S
C256 C257 1.437 . S
C256 C260 1.413 . S
C257 C255 1.329 1_565 S
C257 C256 1.437 . S
C257 H279 0.930 1_565 S
N258 C252 1.369 . S
N258 C259 1.338 . S
N258 Gd263 2.622 . S
C259 N258 1.338 . S
C259 C261 1.378 . S
C259 H271 0.929 . S
C260 C256 1.413 . S
C260 C261 1.348 . S
C260 H276 0.931 . S
C261 C259 1.378 . S
C261 C260 1.348 . S
C261 H277 0.930 . S
Gd262 N282 2.622 . S
Gd262 N289 2.570 . S
Gd262 O296 2.353 . S
Gd262 O297 2.468 . S
Gd262 O298 2.427 . S
Gd262 O300 2.388 . S
Gd262 O301 2.386 . S
Gd262 O305 2.307 . S
Gd262 C315 2.805 . S
Gd263 N258 2.622 . S
Gd263 N264 2.570 . S
Gd263 O295 2.386 . S
Gd263 O299 2.307 . S
Gd263 O302 2.353 . S
Gd263 O303 2.468 . S
Gd263 O304 2.427 . S
Gd263 O306 2.388 . S
Gd263 C327 2.805 . S
N264 C254 1.359 . S
N264 Gd263 2.570 . S
N264 C266 1.343 . S
C265 C253 1.422 . S
C265 C267 1.321 . S
C265 H273 0.951 . S
C266 N264 1.343 . S
C266 C267 1.390 . S
C266 H268 0.931 . S
C267 C265 1.321 . S
C267 C266 1.390 . S
C267 H269 0.930 . S
H268 C266 0.931 . S
H269 C267 0.930 . S
H270 C293 0.931 . S
H271 C259 0.929 . S
H272 C294 0.930 . S
H273 C265 0.951 . S
H274 C255 0.930 . S
H275 C284 0.929 . S
H276 C260 0.931 . S
H277 C261 0.930 . S
H278 C316 0.930 . S
H279 C257 0.930 1_545 S
H280 C285 0.931 . S
H281 C286 0.930 . S
N282 Gd262 2.622 . S
N282 C283 1.369 . S
N282 C284 1.338 . S
C283 N282 1.369 . S
C283 C287 1.415 . S
C283 C290 1.422 . S
C284 H275 0.929 . S
C284 N282 1.338 . S
C284 C286 1.378 . S
C285 H280 0.931 . S
C285 C286 1.348 . S
C285 C287 1.413 . S
C286 H281 0.930 . S
C286 C284 1.378 . S
C286 C285 1.348 . S
C287 C283 1.415 . S
C287 C285 1.413 . S
C287 C317 1.437 . S
H288 C317 0.929 . S
N289 Gd262 2.570 . S
N289 C290 1.359 . S
N289 C293 1.343 . S
C290 C283 1.422 . S
C290 N289 1.359 . S
C290 C292 1.421 . S
C291 C292 1.422 . S
C291 C294 1.321 . S
C291 H318 0.931 . S
C292 C290 1.421 . S
C292 C291 1.422 . S
C292 C316 1.417 . S
C293 H270 0.931 . S
C293 N289 1.343 . S
C293 C294 1.390 . S
C294 H272 0.930 . S
C294 C291 1.321 . S
C294 C293 1.390 . S
O295 Gd263 2.386 . S
O295 C307 1.265 . S
O296 Gd262 2.353 . S
O296 C307 1.242 . S
O297 Gd262 2.468 . S
O297 C315 1.263 . S
O298 Gd262 2.427 . S
O298 C315 1.252 . S
O299 Gd263 2.307 . S
O299 C308 1.261 . S
O300 Gd262 2.388 . S
O300 C308 1.252 . S
O301 Gd262 2.386 . S
O301 C319 1.265 . S
O302 Gd263 2.353 . S
O302 C319 1.242 . S
O303 Gd263 2.468 . S
O303 C327 1.263 . S
O304 Gd263 2.427 . S
O304 C327 1.252 . S
O305 Gd262 2.307 . S
O305 C320 1.261 . S
O306 Gd263 2.388 . S
O306 C320 1.252 . S
C307 O295 1.265 . S
C307 O296 1.242 . S
C308 O299 1.261 . S
C308 O300 1.252 . S
C309 C312 1.394 . S
C309 C314 1.370 . S
C309 C315 1.500 . S
C310 C313 1.383 . S
C310 C314 1.395 . S
C311 C312 1.396 . S
C311 C313 1.365 . S
C311 H328 0.929 . S
C312 C309 1.394 . S
C312 C311 1.396 . S
C312 H329 0.930 . S
C313 C310 1.383 . S
C313 C311 1.365 . S
C313 H330 0.931 . S
C314 C309 1.370 . S
C314 C310 1.395 . S
C314 H331 0.930 . S
C315 Gd262 2.805 . S
C315 O297 1.263 . S
C315 O298 1.252 . S
C315 C309 1.500 . S
C316 H278 0.930 . S
C316 C292 1.417 . S
C316 C317 1.329 . S
C317 C287 1.437 . S
C317 H288 0.929 . S
C317 C316 1.329 . S
H318 C291 0.931 . S
C319 O301 1.265 . S
C319 O302 1.242 . S
C320 O305 1.261 . S
C320 O306 1.252 . S
C321 C324 1.394 . S
C321 C326 1.370 . S
C321 C327 1.500 . S
C322 C325 1.383 . S
C322 C326 1.395 . S
C323 C324 1.396 . S
C323 C325 1.365 . S
C323 H332 0.929 . S
C324 C321 1.394 . S
C324 C323 1.396 . S
C324 H333 0.930 . S
C325 C322 1.383 . S
C325 C323 1.365 . S
C325 H334 0.931 . S
C326 C321 1.370 . S
C326 C322 1.395 . S
C326 H335 0.930 . S
C327 Gd263 2.805 . S
C327 O303 1.263 . S
C327 O304 1.252 . S
C327 C321 1.500 . S
H328 C311 0.929 . S
H329 C312 0.930 . S
H330 C313 0.931 . S
H331 C314 0.930 . S
H332 C323 0.929 . S
H333 C324 0.930 . S
H334 C325 0.931 . S
H335 C326 0.930 . S
C336 C338 1.422 . S
C336 C340 1.415 . S
C336 N342 1.369 . S
C337 C338 1.421 . S
C337 C339 1.417 . S
C337 C349 1.422 . S
C338 C336 1.422 . S
C338 C337 1.421 . S
C338 N348 1.359 . S
C339 C337 1.417 . S
C339 C341 1.329 . S
C339 H358 0.930 1_455 S
C340 C336 1.415 . S
C340 C341 1.437 . S
C340 C344 1.413 . S
C341 C339 1.329 . S
C341 C340 1.437 . S
C341 H363 0.929 1_455 S
N342 C336 1.369 . S
N342 C343 1.338 . S
N342 Gd347 2.622 . S
C343 N342 1.338 . S
C343 C345 1.378 . S
C343 H355 0.929 . S
C344 C340 1.413 . S
C344 C345 1.348 . S
C344 H360 0.931 . S
C345 C343 1.378 . S
C345 C344 1.348 . S
C345 H361 0.930 . S
Gd346 N366 2.622 . S
Gd346 N373 2.570 . S
Gd346 O380 2.353 . S
Gd346 O381 2.468 . S
Gd346 O382 2.427 . S
Gd346 O384 2.388 . S
Gd346 O385 2.386 . S
Gd346 O389 2.307 . S
Gd346 C399 2.805 1_565 S
Gd347 N342 2.622 . S
Gd347 N348 2.570 . S
Gd347 O379 2.386 . S
Gd347 O383 2.307 . S
Gd347 O386 2.353 . S
Gd347 O387 2.468 . S
Gd347 O388 2.427 . S
Gd347 O390 2.388 . S
Gd347 C411 2.805 . S
N348 C338 1.359 . S
N348 Gd347 2.570 . S
N348 C350 1.343 . S
C349 C337 1.422 . S
C349 C351 1.321 . S
C349 H357 0.931 . S
C350 N348 1.343 . S
C350 C351 1.390 . S
C350 H352 0.931 . S
C351 C349 1.321 . S
C351 C350 1.390 . S
C351 H353 0.930 . S
H352 C350 0.931 . S
H353 C351 0.930 . S
H354 C377 0.931 1_565 S
H355 C343 0.929 . S
H356 C378 0.930 . S
H357 C349 0.931 . S
H358 C339 0.930 1_655 S
H359 C368 0.929 . S
H360 C344 0.931 . S
H361 C345 0.930 . S
H362 C400 0.930 . S
H363 C341 0.929 1_655 S
H364 C369 0.931 . S
H365 C370 0.930 . S
N366 Gd346 2.622 . S
N366 C367 1.369 1_565 S
N366 C368 1.338 . S
C367 N366 1.369 1_545 S
C367 C371 1.415 . S
C367 C374 1.422 . S
C368 H359 0.929 . S
C368 N366 1.338 . S
C368 C370 1.378 . S
C369 H364 0.931 . S
C369 C370 1.348 1_545 S
C369 C371 1.413 . S
C370 H365 0.930 . S
C370 C368 1.378 . S
C370 C369 1.348 1_565 S
C371 C367 1.415 . S
C371 C369 1.413 . S
C371 C401 1.437 . S
H372 C401 0.929 . S
N373 Gd346 2.570 . S
N373 C374 1.359 1_565 S
N373 C377 1.343 1_565 S
C374 C367 1.422 . S
C374 N373 1.359 1_545 S
C374 C376 1.421 . S
C375 C376 1.422 . S
C375 C378 1.321 . S
C375 H402 0.931 . S
C376 C374 1.421 . S
C376 C375 1.422 . S
C376 C400 1.417 . S
C377 H354 0.931 1_545 S
C377 N373 1.343 1_545 S
C377 C378 1.390 . S
C378 H356 0.930 . S
C378 C375 1.321 . S
C378 C377 1.390 . S
O379 Gd347 2.386 . S
O379 C391 1.265 . S
O380 Gd346 2.353 . S
O380 C391 1.242 . S
O381 Gd346 2.468 . S
O381 C399 1.263 1_565 S
O382 Gd346 2.427 . S
O382 C399 1.252 1_565 S
O383 Gd347 2.307 . S
O383 C392 1.261 . S
O384 Gd346 2.388 . S
O384 C392 1.252 . S
O385 Gd346 2.386 . S
O385 C403 1.265 . S
O386 Gd347 2.353 . S
O386 C403 1.242 . S
O387 Gd347 2.468 . S
O387 C411 1.263 . S
O388 Gd347 2.427 . S
O388 C411 1.252 . S
O389 Gd346 2.307 . S
O389 C404 1.261 . S
O390 Gd347 2.388 . S
O390 C404 1.252 . S
C391 O379 1.265 . S
C391 O380 1.242 . S
C392 O383 1.261 . S
C392 O384 1.252 . S
C393 C396 1.394 . S
C393 C398 1.370 . S
C393 C399 1.500 . S
C394 C397 1.383 . S
C394 C398 1.395 . S
C395 C396 1.396 . S
C395 C397 1.365 . S
C395 H412 0.929 . S
C396 C393 1.394 . S
C396 C395 1.396 . S
C396 H413 0.930 . S
C397 C394 1.383 . S
C397 C395 1.365 . S
C397 H414 0.931 . S
C398 C393 1.370 . S
C398 C394 1.395 . S
C398 H415 0.930 . S
C399 Gd346 2.805 1_545 S
C399 O381 1.263 1_545 S
C399 O382 1.252 1_545 S
C399 C393 1.500 . S
C400 H362 0.930 . S
C400 C376 1.417 . S
C400 C401 1.329 . S
C401 C371 1.437 . S
C401 H372 0.929 . S
C401 C400 1.329 . S
H402 C375 0.931 . S
C403 O385 1.265 . S
C403 O386 1.242 . S
C404 O389 1.261 . S
C404 O390 1.252 . S
C405 C408 1.394 . S
C405 C410 1.370 . S
C405 C411 1.500 . S
C406 C409 1.383 . S
C406 C410 1.395 . S
C407 C408 1.396 . S
C407 C409 1.365 . S
C407 H416 0.929 . S
C408 C405 1.394 . S
C408 C407 1.396 . S
C408 H417 0.930 . S
C409 C406 1.383 . S
C409 C407 1.365 . S
C409 H418 0.931 . S
C410 C405 1.370 . S
C410 C406 1.395 . S
C410 H419 0.930 . S
C411 Gd347 2.805 . S
C411 O387 1.263 . S
C411 O388 1.252 . S
C411 C405 1.500 . S
H412 C395 0.929 . S
H413 C396 0.930 . S
H414 C397 0.931 . S
H415 C398 0.930 . S
H416 C407 0.929 . S
H417 C408 0.930 . S
H418 C409 0.931 . S
H419 C410 0.930 . S
C420 C422 1.422 . S
C420 C424 1.415 . S
C420 N426 1.369 . S
C421 C422 1.421 . S
C421 C423 1.417 . S
C421 C433 1.422 . S
C422 C420 1.422 . S
C422 C421 1.421 . S
C422 N432 1.359 . S
C423 C421 1.417 . S
C423 C425 1.329 . S
C423 H442 0.930 . S
C424 C420 1.415 . S
C424 C425 1.437 . S
C424 C428 1.413 . S
C425 C423 1.329 . S
C425 C424 1.437 . S
C425 H447 0.929 . S
N426 C420 1.369 . S
N426 C427 1.338 . S
N426 Gd431 2.622 . S
C427 N426 1.338 . S
C427 C429 1.378 . S
C427 H439 0.929 . S
C428 C424 1.413 . S
C428 C429 1.348 . S
C428 H444 0.931 . S
C429 C427 1.378 . S
C429 C428 1.348 . S
C429 H445 0.930 . S
Gd430 N450 2.622 . S
Gd430 N457 2.570 . S
Gd430 O464 2.353 . S
Gd430 O465 2.468 . S
Gd430 O466 2.427 . S
Gd430 O468 2.388 . S
Gd430 O469 2.386 . S
Gd430 O473 2.307 . S
Gd430 C483 2.805 . S
Gd431 N426 2.622 . S
Gd431 N432 2.570 . S
Gd431 O463 2.386 . S
Gd431 O467 2.307 . S
Gd431 O470 2.353 . S
Gd431 O471 2.468 . S
Gd431 O472 2.427 . S
Gd431 O474 2.388 . S
Gd431 C495 2.805 . S
N432 C422 1.359 . S
N432 Gd431 2.570 . S
N432 C434 1.343 . S
C433 C421 1.422 . S
C433 C435 1.321 . S
C433 H441 0.931 . S
C434 N432 1.343 . S
C434 C435 1.390 . S
C434 H436 0.931 . S
C435 C433 1.321 . S
C435 C434 1.390 . S
C435 H437 0.930 . S
H436 C434 0.931 . S
H437 C435 0.930 . S
H438 C461 0.931 . S
H439 C427 0.929 . S
H440 C462 0.930 . S
H441 C433 0.931 . S
H442 C423 0.930 . S
H443 C452 0.929 . S
H444 C428 0.931 . S
H445 C429 0.930 . S
H446 C484 0.930 . S
H447 C425 0.929 . S
H448 C453 0.931 . S
H449 C454 0.930 . S
N450 Gd430 2.622 . S
N450 C451 1.369 . S
N450 C452 1.338 . S
C451 N450 1.369 . S
C451 C455 1.415 1_455 S
C451 C458 1.422 1_455 S
C452 H443 0.929 . S
C452 N450 1.338 . S
C452 C454 1.378 . S
C453 H448 0.931 . S
C453 C454 1.348 1_655 S
C453 C455 1.413 . S
C454 H449 0.930 . S
C454 C452 1.378 . S
C454 C453 1.348 1_455 S
C455 C451 1.415 1_655 S
C455 C453 1.413 . S
C455 C485 1.437 . S
H456 C485 0.929 . S
N457 Gd430 2.570 . S
N457 C458 1.359 1_455 S
N457 C461 1.343 . S
C458 C451 1.422 1_655 S
C458 N457 1.359 1_655 S
C458 C460 1.421 . S
C459 C460 1.422 . S
C459 C462 1.321 . S
C459 H486 0.931 . S
C460 C458 1.421 . S
C460 C459 1.422 . S
C460 C484 1.417 . S
C461 H438 0.931 . S
C461 N457 1.343 . S
C461 C462 1.390 1_455 S
C462 H440 0.930 . S
C462 C459 1.321 . S
C462 C461 1.390 1_655 S
O463 Gd431 2.386 . S
O463 C475 1.265 . S
O464 Gd430 2.353 . S
O464 C475 1.242 . S
O465 Gd430 2.468 . S
O465 C483 1.263 . S
O466 Gd430 2.427 . S
O466 C483 1.252 . S
O467 Gd431 2.307 . S
O467 C476 1.261 . S
O468 Gd430 2.388 . S
O468 C476 1.252 . S
O469 Gd430 2.386 . S
O469 C487 1.265 . S
O470 Gd431 2.353 . S
O470 C487 1.242 . S
O471 Gd431 2.468 . S
O471 C495 1.263 . S
O472 Gd431 2.427 . S
O472 C495 1.252 . S
O473 Gd430 2.307 . S
O473 C488 1.261 . S
O474 Gd431 2.388 . S
O474 C488 1.252 . S
C475 O463 1.265 . S
C475 O464 1.242 . S
C476 O467 1.261 . S
C476 O468 1.252 . S
C477 C480 1.394 . S
C477 C482 1.370 . S
C477 C483 1.500 1_655 S
C478 C481 1.383 . S
C478 C482 1.395 . S
C479 C480 1.396 . S
C479 C481 1.365 . S
C479 H496 0.929 . S
C480 C477 1.394 . S
C480 C479 1.396 . S
C480 H497 0.930 . S
C481 C478 1.383 . S
C481 C479 1.365 . S
C481 H498 0.931 . S
C482 C477 1.370 . S
C482 C478 1.395 . S
C482 H499 0.930 . S
C483 Gd430 2.805 . S
C483 O465 1.263 . S
C483 O466 1.252 . S
C483 C477 1.500 1_455 S
C484 H446 0.930 . S
C484 C460 1.417 . S
C484 C485 1.329 . S
C485 C455 1.437 . S
C485 H456 0.929 . S
C485 C484 1.329 . S
H486 C459 0.931 . S
C487 O469 1.265 . S
C487 O470 1.242 . S
C488 O473 1.261 . S
C488 O474 1.252 . S
C489 C492 1.394 . S
C489 C494 1.370 . S
C489 C495 1.500 . S
C490 C493 1.383 . S
C490 C494 1.395 . S
C491 C492 1.396 . S
C491 C493 1.365 . S
C491 H500 0.929 . S
C492 C489 1.394 . S
C492 C491 1.396 . S
C492 H501 0.930 . S
C493 C490 1.383 . S
C493 C491 1.365 . S
C493 H502 0.931 . S
C494 C489 1.370 . S
C494 C490 1.395 . S
C494 H503 0.930 . S
C495 Gd431 2.805 . S
C495 O471 1.263 . S
C495 O472 1.252 . S
C495 C489 1.500 . S
H496 C479 0.929 . S
H497 C480 0.930 . S
H498 C481 0.931 . S
H499 C482 0.930 . S
H500 C491 0.929 . S
H501 C492 0.930 . S
H502 C493 0.931 . S
H503 C494 0.930 . S
C504 C506 1.422 . S
C504 C508 1.415 . S
C504 N510 1.369 . S
C505 C506 1.421 . S
C505 C507 1.417 . S
C505 C517 1.422 . S
C506 C504 1.422 . S
C506 C505 1.421 . S
C506 N516 1.359 . S
C507 C505 1.417 . S
C507 C509 1.329 . S
C507 H526 0.930 . S
C508 C504 1.415 . S
C508 C509 1.437 . S
C508 C512 1.413 . S
C509 C507 1.329 . S
C509 C508 1.437 . S
C509 H531 0.929 . S
N510 C504 1.369 . S
N510 C511 1.338 . S
N510 Gd515 2.622 . S
C511 N510 1.338 . S
C511 C513 1.378 . S
C511 H523 0.929 . S
C512 C508 1.413 . S
C512 C513 1.348 . S
C512 H528 0.931 . S
C513 C511 1.378 . S
C513 C512 1.348 . S
C513 H529 0.930 . S
Gd514 N534 2.622 . S
Gd514 N541 2.570 . S
Gd514 O548 2.353 . S
Gd514 O549 2.468 . S
Gd514 O550 2.427 . S
Gd514 O552 2.388 . S
Gd514 O553 2.386 . S
Gd514 O557 2.307 . S
Gd514 C567 2.805 . S
Gd515 N510 2.622 . S
Gd515 N516 2.570 . S
Gd515 O547 2.386 . S
Gd515 O551 2.307 . S
Gd515 O554 2.353 . S
Gd515 O555 2.468 . S
Gd515 O556 2.427 . S
Gd515 O558 2.388 . S
Gd515 C579 2.805 . S
N516 C506 1.359 . S
N516 Gd515 2.570 . S
N516 C518 1.343 . S
C517 C505 1.422 . S
C517 C519 1.321 . S
C517 H525 0.931 . S
C518 N516 1.343 . S
C518 C519 1.390 . S
C518 H520 0.931 . S
C519 C517 1.321 . S
C519 C518 1.390 . S
C519 H521 0.930 . S
H520 C518 0.931 . S
H521 C519 0.930 . S
H522 C545 0.931 . S
H523 C511 0.929 . S
H524 C546 0.930 . S
H525 C517 0.931 . S
H526 C507 0.930 . S
H527 C536 0.929 . S
H528 C512 0.931 . S
H529 C513 0.930 . S
H530 C568 0.930 . S
H531 C509 0.929 . S
H532 C537 0.931 . S
H533 C538 0.930 . S
N534 Gd514 2.622 . S
N534 C535 1.369 . S
N534 C536 1.338 . S
C535 N534 1.369 . S
C535 C539 1.415 1_545 S
C535 C542 1.422 . S
C536 H527 0.929 . S
C536 N534 1.338 . S
C536 C538 1.378 . S
C537 H532 0.931 . S
C537 C538 1.348 1_565 S
C537 C539 1.413 . S
C538 H533 0.930 . S
C538 C536 1.378 . S
C538 C537 1.348 1_545 S
C539 C535 1.415 1_565 S
C539 C537 1.413 . S
C539 C569 1.437 . S
H540 C569 0.929 . S
N541 Gd514 2.570 . S
N541 C542 1.359 . S
N541 C545 1.343 . S
C542 C535 1.422 . S
C542 N541 1.359 . S
C542 C544 1.421 1_545 S
C543 C544 1.422 . S
C543 C546 1.321 . S
C543 H570 0.931 . S
C544 C542 1.421 1_565 S
C544 C543 1.422 . S
C544 C568 1.417 . S
C545 H522 0.931 . S
C545 N541 1.343 . S
C545 C546 1.390 1_545 S
C546 H524 0.930 . S
C546 C543 1.321 . S
C546 C545 1.390 1_565 S
O547 Gd515 2.386 . S
O547 C559 1.265 . S
O548 Gd514 2.353 . S
O548 C559 1.242 . S
O549 Gd514 2.468 . S
O549 C567 1.263 . S
O550 Gd514 2.427 . S
O550 C567 1.252 . S
O551 Gd515 2.307 . S
O551 C560 1.261 . S
O552 Gd514 2.388 . S
O552 C560 1.252 . S
O553 Gd514 2.386 . S
O553 C571 1.265 . S
O554 Gd515 2.353 . S
O554 C571 1.242 . S
O555 Gd515 2.468 . S
O555 C579 1.263 . S
O556 Gd515 2.427 . S
O556 C579 1.252 . S
O557 Gd514 2.307 . S
O557 C572 1.261 . S
O558 Gd515 2.388 . S
O558 C572 1.252 . S
C559 O547 1.265 . S
C559 O548 1.242 . S
C560 O551 1.261 . S
C560 O552 1.252 . S
C561 C564 1.394 . S
C561 C566 1.370 . S
C561 C567 1.500 . S
C562 C565 1.383 . S
C562 C566 1.395 . S
C563 C564 1.396 . S
C563 C565 1.365 . S
C563 H580 0.929 . S
C564 C561 1.394 . S
C564 C563 1.396 . S
C564 H581 0.930 . S
C565 C562 1.383 . S
C565 C563 1.365 . S
C565 H582 0.931 . S
C566 C561 1.370 . S
C566 C562 1.395 . S
C566 H583 0.930 . S
C567 Gd514 2.805 . S
C567 O549 1.263 . S
C567 O550 1.252 . S
C567 C561 1.500 . S
C568 H530 0.930 . S
C568 C544 1.417 . S
C568 C569 1.329 . S
C569 C539 1.437 . S
C569 H540 0.929 . S
C569 C568 1.329 . S
H570 C543 0.931 . S
C571 O553 1.265 . S
C571 O554 1.242 . S
C572 O557 1.261 . S
C572 O558 1.252 . S
C573 C576 1.394 . S
C573 C578 1.370 . S
C573 C579 1.500 . S
C574 C577 1.383 . S
C574 C578 1.395 . S
C575 C576 1.396 . S
C575 C577 1.365 . S
C575 H584 0.929 . S
C576 C573 1.394 . S
C576 C575 1.396 . S
C576 H585 0.930 . S
C577 C574 1.383 . S
C577 C575 1.365 . S
C577 H586 0.931 . S
C578 C573 1.370 . S
C578 C574 1.395 . S
C578 H587 0.930 . S
C579 Gd515 2.805 . S
C579 O555 1.263 . S
C579 O556 1.252 . S
C579 C573 1.500 . S
H580 C563 0.929 . S
H581 C564 0.930 . S
H582 C565 0.931 . S
H583 C566 0.930 . S
H584 C575 0.929 . S
H585 C576 0.930 . S
H586 C577 0.931 . S
H587 C578 0.930 . S
C588 C590 1.422 . S
C588 C592 1.415 . S
C588 N594 1.369 . S
C589 C590 1.421 . S
C589 C591 1.417 . S
C589 C601 1.422 . S
C590 C588 1.422 . S
C590 C589 1.421 . S
C590 N600 1.359 . S
C591 C589 1.417 . S
C591 C593 1.329 . S
C591 H610 0.930 . S
C592 C588 1.415 . S
C592 C593 1.437 . S
C592 C596 1.413 . S
C593 C591 1.329 . S
C593 C592 1.437 . S
C593 H615 0.929 . S
N594 C588 1.369 . S
N594 C595 1.338 . S
N594 Gd599 2.622 . S
C595 N594 1.338 . S
C595 C597 1.378 . S
C595 H607 0.929 . S
C596 C592 1.413 . S
C596 C597 1.348 . S
C596 H612 0.931 . S
C597 C595 1.378 . S
C597 C596 1.348 . S
C597 H613 0.930 . S
Gd598 N618 2.622 . S
Gd598 N625 2.570 . S
Gd598 O632 2.353 . S
Gd598 O633 2.468 . S
Gd598 O634 2.427 . S
Gd598 O636 2.388 . S
Gd598 O637 2.386 . S
Gd598 O641 2.307 . S
Gd598 C651 2.805 . S
Gd599 N594 2.622 . S
Gd599 N600 2.570 . S
Gd599 O631 2.386 . S
Gd599 O635 2.307 . S
Gd599 O638 2.353 . S
Gd599 O639 2.468 . S
Gd599 O640 2.427 . S
Gd599 O642 2.388 . S
Gd599 C663 2.805 . S
N600 C590 1.359 . S
N600 Gd599 2.570 . S
N600 C602 1.343 . S
C601 C589 1.422 . S
C601 C603 1.321 . S
C601 H609 0.931 . S
C602 N600 1.343 . S
C602 C603 1.390 . S
C602 H604 0.931 . S
C603 C601 1.321 . S
C603 C602 1.390 . S
C603 H605 0.930 . S
H604 C602 0.931 . S
H605 C603 0.930 . S
H606 C629 0.931 . S
H607 C595 0.929 . S
H608 C630 0.930 . S
H609 C601 0.931 . S
H610 C591 0.930 . S
H611 C620 0.929 . S
H612 C596 0.931 . S
H613 C597 0.930 . S
H614 C652 0.930 . S
H615 C593 0.929 . S
H616 C621 0.931 . S
H617 C622 0.930 . S
N618 Gd598 2.622 . S
N618 C619 1.361 1_655 S
N618 C620 1.338 . S
C619 N618 1.361 1_455 S
C619 C623 1.423 . S
C619 C626 1.423 . S
C620 H611 0.929 . S
C620 N618 1.338 . S
C620 C622 1.378 . S
C621 H616 0.931 . S
C621 C622 1.348 1_455 S
C621 C623 1.413 . S
C622 H617 0.930 . S
C622 C620 1.378 . S
C622 C621 1.348 1_655 S
C623 C619 1.423 . S
C623 C621 1.413 . S
C623 C653 1.437 . S
H624 C653 0.929 . S
N625 Gd598 2.570 . S
N625 C626 1.359 1_655 S
N625 C629 1.343 . S
C626 C619 1.423 . S
C626 N625 1.359 1_455 S
C626 C628 1.421 . S
C627 C628 1.422 . S
C627 C630 1.321 . S
C627 H654 0.931 . S
C628 C626 1.421 . S
C628 C627 1.422 . S
C628 C652 1.417 . S
C629 H606 0.931 . S
C629 N625 1.343 . S
C629 C630 1.390 1_655 S
C630 H608 0.930 . S
C630 C627 1.321 . S
C630 C629 1.390 1_455 S
O631 Gd599 2.386 . S
O631 C643 1.265 . S
O632 Gd598 2.353 . S
O632 C643 1.242 . S
O633 Gd598 2.468 . S
O633 C651 1.263 . S
O634 Gd598 2.427 . S
O634 C651 1.252 . S
O635 Gd599 2.307 . S
O635 C644 1.261 . S
O636 Gd598 2.388 . S
O636 C644 1.252 . S
O637 Gd598 2.386 . S
O637 C655 1.265 . S
O638 Gd599 2.353 . S
O638 C655 1.242 . S
O639 Gd599 2.468 . S
O639 C663 1.263 . S
O640 Gd599 2.427 . S
O640 C663 1.252 . S
O641 Gd598 2.307 . S
O641 C656 1.261 . S
O642 Gd599 2.388 . S
O642 C656 1.252 . S
C643 O631 1.265 . S
C643 O632 1.242 . S
C644 O635 1.261 . S
C644 O636 1.252 . S
C645 C648 1.394 . S
C645 C650 1.370 . S
C645 C651 1.500 . S
C646 C649 1.383 . S
C646 C650 1.395 . S
C647 C648 1.396 . S
C647 C649 1.365 . S
C647 H664 0.929 . S
C648 C645 1.394 . S
C648 C647 1.396 . S
C648 H665 0.930 . S
C649 C646 1.383 . S
C649 C647 1.365 . S
C649 H666 0.931 . S
C650 C645 1.370 . S
C650 C646 1.395 . S
C650 H667 0.930 . S
C651 Gd598 2.805 . S
C651 O633 1.263 . S
C651 O634 1.252 . S
C651 C645 1.500 . S
C652 H614 0.930 . S
C652 C628 1.417 . S
C652 C653 1.329 . S
C653 C623 1.437 . S
C653 H624 0.929 . S
C653 C652 1.329 . S
H654 C627 0.931 . S
C655 O637 1.265 . S
C655 O638 1.242 . S
C656 O641 1.261 . S
C656 O642 1.252 . S
C657 C660 1.394 . S
C657 C662 1.370 . S
C657 C663 1.500 . S
C658 C661 1.383 1_545 S
C658 C662 1.395 . S
C659 C660 1.396 . S
C659 C661 1.365 1_545 S
C659 H668 0.929 1_545 S
C660 C657 1.394 . S
C660 C659 1.396 . S
C660 H669 0.930 . S
C661 C658 1.383 1_565 S
C661 C659 1.365 1_565 S
C661 H670 0.931 . S
C662 C657 1.370 . S
C662 C658 1.395 . S
C662 H671 0.930 . S
C663 Gd599 2.805 . S
C663 O639 1.263 . S
C663 O640 1.252 . S
C663 C657 1.500 . S
H664 C647 0.929 . S
H665 C648 0.930 . S
H666 C649 0.931 . S
H667 C650 0.930 . S
H668 C659 0.929 1_565 S
H669 C660 0.930 . S
H670 C661 0.931 . S
H671 C662 0.930 . S
C672 C674 1.422 . S
C672 C676 1.415 . S
C672 N678 1.369 . S
C673 C674 1.421 . S
C673 C675 1.417 . S
C673 C685 1.422 . S
C674 C672 1.422 . S
C674 C673 1.421 . S
C674 N684 1.359 . S
C675 C673 1.417 . S
C675 C677 1.329 . S
C675 H694 0.930 . S
C676 C672 1.415 . S
C676 C677 1.437 . S
C676 C680 1.413 . S
C677 C675 1.329 . S
C677 C676 1.437 . S
C677 H699 0.929 . S
N678 C672 1.369 . S
N678 C679 1.338 . S
N678 Gd683 2.622 . S
C679 N678 1.338 . S
C679 C681 1.378 . S
C679 H691 0.929 . S
C680 C676 1.413 . S
C680 C681 1.348 . S
C680 H696 0.931 . S
C681 C679 1.378 . S
C681 C680 1.348 . S
C681 H697 0.930 . S
Gd682 N702 2.622 . S
Gd682 N709 2.570 . S
Gd682 O716 2.353 . S
Gd682 O717 2.468 . S
Gd682 O718 2.427 . S
Gd682 O720 2.388 . S
Gd682 O721 2.386 . S
Gd682 O725 2.307 . S
Gd682 C735 2.805 . S
Gd683 N678 2.622 . S
Gd683 N684 2.570 . S
Gd683 O715 2.386 . S
Gd683 O719 2.307 . S
Gd683 O722 2.353 . S
Gd683 O723 2.468 . S
Gd683 O724 2.427 . S
Gd683 O726 2.388 . S
Gd683 C747 2.805 . S
N684 C674 1.359 . S
N684 Gd683 2.570 . S
N684 C686 1.343 . S
C685 C673 1.422 . S
C685 C687 1.321 . S
C685 H693 0.931 . S
C686 N684 1.343 . S
C686 C687 1.390 . S
C686 H688 0.931 . S
C687 C685 1.321 . S
C687 C686 1.390 . S
C687 H689 0.930 . S
H688 C686 0.931 . S
H689 C687 0.930 . S
H690 C713 0.931 . S
H691 C679 0.929 . S
H692 C714 0.930 . S
H693 C685 0.931 . S
H694 C675 0.930 . S
H695 C704 0.929 . S
H696 C680 0.931 . S
H697 C681 0.930 . S
H698 C736 0.930 . S
H699 C677 0.929 . S
H700 C705 0.931 . S
H701 C706 0.930 . S
N702 Gd682 2.622 . S
N702 C703 1.369 . S
N702 C704 1.338 . S
C703 N702 1.369 . S
C703 C707 1.415 . S
C703 C710 1.422 . S
C704 H695 0.929 . S
C704 N702 1.338 . S
C704 C706 1.378 . S
C705 H700 0.931 . S
C705 C706 1.348 . S
C705 C707 1.413 . S
C706 H701 0.930 . S
C706 C704 1.378 . S
C706 C705 1.348 . S
C707 C703 1.415 . S
C707 C705 1.413 . S
C707 C737 1.437 . S
H708 C737 0.929 . S
N709 Gd682 2.570 . S
N709 C710 1.359 . S
N709 C713 1.343 . S
C710 C703 1.422 . S
C710 N709 1.359 . S
C710 C712 1.421 . S
C711 C712 1.422 . S
C711 C714 1.321 . S
C711 H738 0.931 . S
C712 C710 1.421 . S
C712 C711 1.422 . S
C712 C736 1.417 . S
C713 H690 0.931 . S
C713 N709 1.343 . S
C713 C714 1.390 . S
C714 H692 0.930 . S
C714 C711 1.321 . S
C714 C713 1.390 . S
O715 Gd683 2.386 . S
O715 C727 1.265 . S
O716 Gd682 2.353 . S
O716 C727 1.242 . S
O717 Gd682 2.468 . S
O717 C735 1.263 . S
O718 Gd682 2.427 . S
O718 C735 1.252 . S
O719 Gd683 2.307 . S
O719 C728 1.261 . S
O720 Gd682 2.388 . S
O720 C728 1.252 . S
O721 Gd682 2.386 . S
O721 C739 1.265 . S
O722 Gd683 2.353 . S
O722 C739 1.242 . S
O723 Gd683 2.468 . S
O723 C747 1.263 . S
O724 Gd683 2.427 . S
O724 C747 1.252 . S
O725 Gd682 2.307 . S
O725 C740 1.261 . S
O726 Gd683 2.388 . S
O726 C740 1.252 . S
C727 O715 1.265 . S
C727 O716 1.242 . S
C728 O719 1.261 . S
C728 O720 1.252 . S
C729 C732 1.394 . S
C729 C734 1.370 . S
C729 C735 1.500 . S
C730 C733 1.383 . S
C730 C734 1.395 . S
C731 C732 1.396 . S
C731 C733 1.365 . S
C731 H748 0.929 . S
C732 C729 1.394 . S
C732 C731 1.396 . S
C732 H749 0.930 . S
C733 C730 1.383 . S
C733 C731 1.365 . S
C733 H750 0.931 . S
C734 C729 1.370 . S
C734 C730 1.395 . S
C734 H751 0.930 . S
C735 Gd682 2.805 . S
C735 O717 1.263 . S
C735 O718 1.252 . S
C735 C729 1.500 . S
C736 H698 0.930 . S
C736 C712 1.417 . S
C736 C737 1.329 . S
C737 C707 1.437 . S
C737 H708 0.929 . S
C737 C736 1.329 . S
H738 C711 0.931 . S
C739 O721 1.265 . S
C739 O722 1.242 . S
C740 O725 1.261 . S
C740 O726 1.252 . S
C741 C744 1.394 . S
C741 C746 1.370 . S
C741 C747 1.500 . S
C742 C745 1.383 . S
C742 C746 1.395 1_455 S
C743 C744 1.396 1_455 S
C743 C745 1.365 . S
C743 H752 0.929 . S
C744 C741 1.394 . S
C744 C743 1.396 1_655 S
C744 H753 0.930 . S
C745 C742 1.383 . S
C745 C743 1.365 . S
C745 H754 0.931 . S
C746 C741 1.370 . S
C746 C742 1.395 1_655 S
C746 H755 0.930 . S
C747 Gd683 2.805 . S
C747 O723 1.263 . S
C747 O724 1.252 . S
C747 C741 1.500 . S
H748 C731 0.929 . S
H749 C732 0.930 . S
H750 C733 0.931 . S
H751 C734 0.930 . S
H752 C743 0.929 . S
H753 C744 0.930 . S
H754 C745 0.931 . S
H755 C746 0.930 . S
H756 C768 0.930 . S
H757 C770 0.930 . S
H758 C771 0.930 . S
H759 C775 0.959 1_556 S
H760 C775 0.959 . S
H761 C775 0.961 . S
H762 C776 0.960 . S
H763 C776 0.961 . S
H764 C776 0.959 . S
H765 C779 0.929 1_556 S
H766 C780 0.931 . S
H767 C782 0.930 . S
C768 H756 0.930 . S
C768 C769 1.399 1_554 S
C768 C773 1.399 . S
C769 C768 1.399 1_556 S
C769 C770 1.376 . S
C770 H757 0.930 . S
C770 C769 1.376 . S
C770 C771 1.388 . S
C771 H758 0.930 . S
C771 C770 1.388 . S
C771 C772 1.390 1_556 S
C772 C771 1.390 1_554 S
C772 C773 1.394 . S
C772 C778 1.465 . S
C773 C768 1.399 . S
C773 C772 1.394 . S
C773 C774 1.516 . S
C774 C773 1.516 . S
C774 C775 1.502 . S
C774 C776 1.561 . S
C774 C777 1.526 . S
C775 H759 0.959 1_554 S
C775 H760 0.959 . S
C775 H761 0.961 . S
C775 C774 1.502 . S
C776 H762 0.960 . S
C776 H763 0.961 . S
C776 H764 0.959 . S
C776 C774 1.561 . S
C777 C774 1.526 . S
C777 C778 1.396 . S
C777 C782 1.390 . S
C778 C772 1.465 . S
C778 C777 1.396 . S
C778 C779 1.399 . S
C779 H765 0.929 1_554 S
C779 C778 1.399 . S
C779 C780 1.385 . S
C780 H766 0.931 . S
C780 C779 1.385 . S
C780 C781 1.389 . S
C781 C780 1.389 . S
C781 C782 1.387 . S
C782 H767 0.930 . S
C782 C777 1.390 . S
C782 C781 1.387 . S
H783 C795 0.930 . S
H784 C797 0.930 . S
H785 C798 0.930 . S
H786 C802 0.959 . S
H787 C802 0.959 . S
H788 C802 0.961 . S
H789 C803 0.960 . S
H790 C803 0.961 . S
H791 C803 0.959 . S
H792 C806 0.929 . S
H793 C807 0.931 . S
H794 C809 0.930 . S
C795 H783 0.930 . S
C795 C796 1.399 . S
C795 C800 1.399 . S
C796 C795 1.399 . S
C796 C797 1.376 1_556 S
C797 H784 0.930 . S
C797 C796 1.376 1_554 S
C797 C798 1.388 . S
C798 H785 0.930 . S
C798 C797 1.388 . S
C798 C799 1.390 . S
C799 C798 1.390 . S
C799 C800 1.394 1_554 S
C799 C805 1.465 . S
C800 C795 1.399 . S
C800 C799 1.394 1_556 S
C800 C801 1.516 . S
C801 C800 1.516 . S
C801 C802 1.502 . S
C801 C803 1.561 . S
C801 C804 1.526 . S
C802 H786 0.959 . S
C802 H787 0.959 . S
C802 H788 0.961 . S
C802 C801 1.502 . S
C803 H789 0.960 . S
C803 H790 0.961 . S
C803 H791 0.959 . S
C803 C801 1.561 . S
C804 C801 1.526 . S
C804 C805 1.396 1_556 S
C804 C809 1.390 . S
C805 C799 1.465 . S
C805 C804 1.396 1_554 S
C805 C806 1.399 . S
C806 H792 0.929 . S
C806 C805 1.399 . S
C806 C807 1.385 . S
C807 H793 0.931 . S
C807 C806 1.385 . S
C807 C808 1.389 . S
C808 C807 1.389 . S
C808 C809 1.387 1_554 S
C809 H794 0.930 . S
C809 C804 1.390 . S
C809 C808 1.387 1_556 S
H810 C822 0.930 . S
H811 C824 0.930 . S
H812 C825 0.930 . S
H813 C829 0.959 . S
H814 C829 0.959 . S
H815 C829 0.961 . S
H816 C830 0.960 . S
H817 C830 0.961 . S
H818 C830 0.959 . S
H819 C833 0.929 . S
H820 C834 0.931 . S
H821 C836 0.930 . S
C822 H810 0.930 . S
C822 C823 1.399 . S
C822 C827 1.399 . S
C823 C822 1.399 . S
C823 C824 1.376 1_554 S
C824 H811 0.930 . S
C824 C823 1.376 1_556 S
C824 C825 1.388 . S
C825 H812 0.930 . S
C825 C824 1.388 . S
C825 C826 1.390 . S
C826 C825 1.390 . S
C826 C827 1.394 1_556 S
C826 C832 1.465 . S
C827 C822 1.399 . S
C827 C826 1.394 1_554 S
C827 C828 1.516 . S
C828 C827 1.516 . S
C828 C829 1.502 . S
C828 C830 1.561 . S
C828 C831 1.526 . S
C829 H813 0.959 . S
C829 H814 0.959 . S
C829 H815 0.961 . S
C829 C828 1.502 . S
C830 H816 0.960 . S
C830 H817 0.961 . S
C830 H818 0.959 . S
C830 C828 1.561 . S
C831 C828 1.526 . S
C831 C832 1.396 1_554 S
C831 C836 1.390 . S
C832 C826 1.465 . S
C832 C831 1.396 1_556 S
C832 C833 1.399 . S
C833 H819 0.929 . S
C833 C832 1.399 . S
C833 C834 1.385 . S
C834 H820 0.931 . S
C834 C833 1.385 . S
C834 C835 1.389 . S
C835 C834 1.389 . S
C835 C836 1.387 1_556 S
C836 H821 0.930 . S
C836 C831 1.390 . S
C836 C835 1.387 1_554 S
H837 C849 0.930 . S
H838 C851 0.930 . S
H839 C852 0.930 . S
H840 C856 0.959 . S
H841 C856 0.959 . S
H842 C856 0.961 . S
H843 C857 0.960 . S
H844 C857 0.961 . S
H845 C857 0.959 . S
H846 C860 0.929 . S
H847 C861 0.931 . S
H848 C863 0.930 . S
C849 H837 0.930 . S
C849 C850 1.399 . S
C849 C854 1.399 . S
C850 C849 1.399 . S
C850 C851 1.376 1_554 S
C851 H838 0.930 . S
C851 C850 1.376 1_556 S
C851 C852 1.388 . S
C852 H839 0.930 . S
C852 C851 1.388 . S
C852 C853 1.390 . S
C853 C852 1.390 . S
C853 C854 1.394 1_556 S
C853 C859 1.465 . S
C854 C849 1.399 . S
C854 C853 1.394 1_554 S
C854 C855 1.516 . S
C855 C854 1.516 . S
C855 C856 1.502 . S
C855 C857 1.561 . S
C855 C858 1.526 . S
C856 H840 0.959 . S
C856 H841 0.959 . S
C856 H842 0.961 . S
C856 C855 1.502 . S
C857 H843 0.960 . S
C857 H844 0.961 . S
C857 H845 0.959 . S
C857 C855 1.561 . S
C858 C855 1.526 . S
C858 C859 1.396 1_554 S
C858 C863 1.390 . S
C859 C853 1.465 . S
C859 C858 1.396 1_556 S
C859 C860 1.399 . S
C860 H846 0.929 . S
C860 C859 1.399 . S
C860 C861 1.385 . S
C861 H847 0.931 . S
C861 C860 1.385 . S
C861 C862 1.389 . S
C862 C861 1.389 . S
C862 C863 1.387 1_556 S
C863 H848 0.930 . S
C863 C858 1.390 . S
C863 C862 1.387 1_554 S
H864 C876 0.930 . S
H865 C878 0.930 . S
H866 C879 0.930 . S
H867 C883 0.959 . S
H868 C883 0.959 . S
H869 C883 0.961 . S
H870 C884 0.960 . S
H871 C884 0.961 . S
H872 C884 0.959 . S
H873 C887 0.929 . S
H874 C888 0.931 . S
H875 C890 0.927 1_556 S
C876 H864 0.930 . S
C876 C877 1.399 . S
C876 C881 1.399 . S
C877 C876 1.399 . S
C877 C878 1.376 . S
C878 H865 0.930 . S
C878 C877 1.376 . S
C878 C879 1.388 1_556 S
C879 H866 0.930 . S
C879 C878 1.388 1_554 S
C879 C880 1.390 . S
C880 C879 1.390 . S
C880 C881 1.392 1_554 S
C880 C886 1.466 . S
C881 C876 1.399 . S
C881 C880 1.392 1_556 S
C881 C882 1.516 . S
C882 C881 1.516 . S
C882 C883 1.502 . S
C882 C884 1.561 1_556 S
C882 C885 1.525 1_556 S
C883 H867 0.959 . S
C883 H868 0.959 . S
C883 H869 0.961 . S
C883 C882 1.502 . S
C884 H870 0.960 . S
C884 H871 0.961 . S
C884 H872 0.959 . S
C884 C882 1.561 1_554 S
C885 C882 1.525 1_554 S
C885 C886 1.396 . S
C885 C890 1.390 . S
C886 C880 1.466 . S
C886 C885 1.396 . S
C886 C887 1.399 . S
C887 H873 0.929 . S
C887 C886 1.399 . S
C887 C888 1.385 . S
C888 H874 0.931 . S
C888 C887 1.385 . S
C888 C889 1.389 . S
C889 C888 1.389 . S
C889 C890 1.387 . S
C890 H875 0.927 1_554 S
C890 C885 1.390 . S
C890 C889 1.387 . S
H891 C903 0.930 . S
H892 C905 0.930 . S
H893 C906 0.930 . S
H894 C910 0.959 . S
H895 C910 0.959 . S
H896 C910 0.961 . S
H897 C911 0.960 . S
H898 C911 0.961 . S
H899 C911 0.959 . S
H900 C914 0.929 . S
H901 C915 0.931 . S
H902 C917 0.930 . S
C903 H891 0.930 . S
C903 C904 1.399 . S
C903 C908 1.399 . S
C904 C903 1.399 . S
C904 C905 1.376 1_556 S
C905 H892 0.930 . S
C905 C904 1.376 1_554 S
C905 C906 1.388 . S
C906 H893 0.930 . S
C906 C905 1.388 . S
C906 C907 1.392 . S
C907 C906 1.392 . S
C907 C908 1.389 1_554 S
C907 C913 1.466 . S
C908 C903 1.399 . S
C908 C907 1.389 1_556 S
C908 C909 1.516 . S
C909 C908 1.516 . S
C909 C910 1.502 . S
C909 C911 1.561 . S
C909 C912 1.526 . S
C910 H894 0.959 . S
C910 H895 0.959 . S
C910 H896 0.961 . S
C910 C909 1.502 . S
C911 H897 0.960 . S
C911 H898 0.961 . S
C911 H899 0.959 . S
C911 C909 1.561 . S
C912 C909 1.526 . S
C912 C913 1.396 1_556 S
C912 C917 1.390 . S
C913 C907 1.466 . S
C913 C912 1.396 1_554 S
C913 C914 1.399 . S
C914 H900 0.929 . S
C914 C913 1.399 . S
C914 C915 1.385 . S
C915 H901 0.931 . S
C915 C914 1.385 . S
C915 C916 1.389 . S
C916 C915 1.389 . S
C916 C917 1.387 1_554 S
C917 H902 0.930 . S
C917 C912 1.390 . S
C917 C916 1.387 1_556 S
H918 C930 0.930 . S
H919 C932 0.930 . S
H920 C933 0.930 . S
H921 C937 0.959 . S
H922 C937 0.959 . S
H923 C937 0.961 1_655 S
H924 C938 0.960 . S
H925 C938 0.961 . S
H926 C938 0.959 . S
H927 C941 0.929 . S
H928 C942 0.931 . S
H929 C944 0.930 . S
C930 H918 0.930 . S
C930 C931 1.399 . S
C930 C935 1.399 . S
C931 C930 1.399 . S
C931 C932 1.376 . S
C932 H919 0.930 . S
C932 C931 1.376 . S
C932 C933 1.388 . S
C933 H920 0.930 . S
C933 C932 1.388 . S
C933 C934 1.390 . S
C934 C933 1.390 . S
C934 C935 1.394 . S
C934 C940 1.465 1_655 S
C935 C930 1.399 . S
C935 C934 1.394 . S
C935 C936 1.516 1_655 S
C936 C935 1.516 1_455 S
C936 C937 1.502 . S
C936 C938 1.561 . S
C936 C939 1.526 . S
C937 H921 0.959 . S
C937 H922 0.959 . S
C937 H923 0.961 1_455 S
C937 C936 1.502 . S
C938 H924 0.960 . S
C938 H925 0.961 . S
C938 H926 0.959 . S
C938 C936 1.561 . S
C939 C936 1.526 . S
C939 C940 1.396 . S
C939 C944 1.390 . S
C940 C934 1.465 1_455 S
C940 C939 1.396 . S
C940 C941 1.399 . S
C941 H927 0.929 . S
C941 C940 1.399 . S
C941 C942 1.385 . S
C942 H928 0.931 . S
C942 C941 1.385 . S
C942 C943 1.389 . S
C943 C942 1.389 . S
C943 C944 1.387 . S
C944 H929 0.930 . S
C944 C939 1.390 . S
C944 C943 1.387 . S
H945 C957 0.930 . S
H946 C959 0.930 . S
H947 C960 0.930 . S
H948 C964 0.959 . S
H949 C964 0.959 . S
H950 C964 0.961 . S
H951 C965 0.960 . S
H952 C965 0.961 . S
H953 C965 0.959 . S
H954 C968 0.929 . S
H955 C969 0.931 . S
H956 C971 0.930 . S
C957 H945 0.930 . S
C957 C958 1.399 . S
C957 C962 1.399 . S
C958 C957 1.399 . S
C958 C959 1.376 . S
C959 H946 0.930 . S
C959 C958 1.376 . S
C959 C960 1.388 . S
C960 H947 0.930 . S
C960 C959 1.388 . S
C960 C961 1.390 . S
C961 C960 1.390 . S
C961 C962 1.394 . S
C961 C967 1.465 . S
C962 C957 1.399 . S
C962 C961 1.394 . S
C962 C963 1.516 . S
C963 C962 1.516 . S
C963 C964 1.502 . S
C963 C965 1.561 . S
C963 C966 1.526 . S
C964 H948 0.959 . S
C964 H949 0.959 . S
C964 H950 0.961 . S
C964 C963 1.502 . S
C965 H951 0.960 . S
C965 H952 0.961 . S
C965 H953 0.959 . S
C965 C963 1.561 . S
C966 C963 1.526 . S
C966 C967 1.396 . S
C966 C971 1.390 . S
C967 C961 1.465 . S
C967 C966 1.396 . S
C967 C968 1.399 . S
C968 H954 0.929 . S
C968 C967 1.399 . S
C968 C969 1.385 . S
C969 H955 0.931 . S
C969 C968 1.385 . S
C969 C970 1.389 . S
C970 C969 1.389 . S
C970 C971 1.387 . S
C971 H956 0.930 . S
C971 C966 1.390 . S
C971 C970 1.387 . S
H972 C984 0.930 . S
H973 C986 0.930 . S
H974 C987 0.930 . S
H975 C991 0.959 . S
H976 C991 0.959 . S
H977 C991 0.961 . S
H978 C992 0.960 . S
H979 C992 0.952 1_565 S
H980 C992 0.959 . S
H981 C995 0.929 . S
H982 C996 0.931 . S
H983 C998 0.930 . S
C984 H972 0.930 . S
C984 C985 1.399 . S
C984 C989 1.399 . S
C985 C984 1.399 . S
C985 C986 1.376 . S
C986 H973 0.930 . S
C986 C985 1.376 . S
C986 C987 1.388 . S
C987 H974 0.930 . S
C987 C986 1.388 . S
C987 C988 1.390 . S
C988 C987 1.390 . S
C988 C989 1.394 . S
C988 C994 1.465 1_545 S
C989 C984 1.399 . S
C989 C988 1.394 . S
C989 C990 1.516 . S
C990 C989 1.516 . S
C990 C991 1.502 . S
C990 C992 1.561 . S
C990 C993 1.526 1_545 S
C991 H975 0.959 . S
C991 H976 0.959 . S
C991 H977 0.961 . S
C991 C990 1.502 . S
C992 H978 0.960 . S
C992 H979 0.952 1_545 S
C992 H980 0.959 . S
C992 C990 1.561 . S
C993 C990 1.526 1_565 S
C993 C994 1.396 . S
C993 C998 1.390 . S
C994 C988 1.465 1_565 S
C994 C993 1.396 . S
C994 C995 1.399 . S
C995 H981 0.929 . S
C995 C994 1.399 . S
C995 C996 1.385 . S
C996 H982 0.931 . S
C996 C995 1.385 . S
C996 C997 1.389 . S
C997 C996 1.389 . S
C997 C998 1.387 . S
C998 H983 0.930 . S
C998 C993 1.390 . S
C998 C997 1.387 . S
H999 C1011 0.930 . S
H1000 C1013 0.930 . S
H1001 C1014 0.930 . S
H1002 C1018 0.959 . S
H1003 C1018 0.959 . S
H1004 C1018 0.961 . S
H1005 C1019 0.960 . S
H1006 C1019 0.961 . S
H1007 C1019 0.959 . S
H1008 C1022 0.929 . S
H1009 C1023 0.931 . S
H1010 C1025 0.930 . S
C1011 H999 0.930 . S
C1011 C1012 1.399 . S
C1011 C1016 1.399 . S
C1012 C1011 1.399 . S
C1012 C1013 1.376 . S
C1013 H1000 0.930 . S
C1013 C1012 1.376 . S
C1013 C1014 1.388 . S
C1014 H1001 0.930 . S
C1014 C1013 1.388 . S
C1014 C1015 1.390 . S
C1015 C1014 1.390 . S
C1015 C1016 1.394 . S
C1015 C1021 1.465 . S
C1016 C1011 1.399 . S
C1016 C1015 1.394 . S
C1016 C1017 1.516 . S
C1017 C1016 1.516 . S
C1017 C1018 1.502 . S
C1017 C1019 1.561 . S
C1017 C1020 1.526 . S
C1018 H1002 0.959 . S
C1018 H1003 0.959 . S
C1018 H1004 0.961 . S
C1018 C1017 1.502 . S
C1019 H1005 0.960 . S
C1019 H1006 0.961 . S
C1019 H1007 0.959 . S
C1019 C1017 1.561 . S
C1020 C1017 1.526 . S
C1020 C1021 1.396 . S
C1020 C1025 1.390 . S
C1021 C1015 1.465 . S
C1021 C1020 1.396 . S
C1021 C1022 1.399 . S
C1022 H1008 0.929 . S
C1022 C1021 1.399 . S
C1022 C1023 1.385 . S
C1023 H1009 0.931 . S
C1023 C1022 1.385 . S
C1023 C1024 1.389 . S
C1024 C1023 1.389 . S
C1024 C1025 1.387 . S
C1025 H1010 0.930 . S
C1025 C1020 1.390 . S
C1025 C1024 1.387 . S
H1026 C1038 0.930 . S
H1027 C1040 0.930 . S
H1028 C1041 0.930 . S
H1029 C1045 0.959 . S
H1030 C1045 0.959 . S
H1031 C1045 0.961 . S
H1032 C1046 0.960 . S
H1033 C1046 0.961 . S
H1034 C1046 0.959 . S
H1035 C1049 0.929 . S
H1036 C1050 0.931 . S
H1037 C1052 0.930 . S
C1038 H1026 0.930 . S
C1038 C1039 1.399 . S
C1038 C1043 1.399 . S
C1039 C1038 1.399 . S
C1039 C1040 1.376 . S
C1040 H1027 0.930 . S
C1040 C1039 1.376 . S
C1040 C1041 1.388 . S
C1041 H1028 0.930 . S
C1041 C1040 1.388 . S
C1041 C1042 1.390 . S
C1042 C1041 1.390 . S
C1042 C1043 1.394 . S
C1042 C1048 1.465 . S
C1043 C1038 1.399 . S
C1043 C1042 1.394 . S
C1043 C1044 1.516 . S
C1044 C1043 1.516 . S
C1044 C1045 1.502 . S
C1044 C1046 1.561 . S
C1044 C1047 1.526 . S
C1045 H1029 0.959 . S
C1045 H1030 0.959 . S
C1045 H1031 0.961 . S
C1045 C1044 1.502 . S
C1046 H1032 0.960 . S
C1046 H1033 0.961 . S
C1046 H1034 0.959 . S
C1046 C1044 1.561 . S
C1047 C1044 1.526 . S
C1047 C1048 1.396 . S
C1047 C1052 1.390 . S
C1048 C1042 1.465 . S
C1048 C1047 1.396 . S
C1048 C1049 1.399 . S
C1049 H1035 0.929 . S
C1049 C1048 1.399 . S
C1049 C1050 1.385 . S
C1050 H1036 0.931 . S
C1050 C1049 1.385 . S
C1050 C1051 1.389 . S
C1051 C1050 1.389 . S
C1051 C1052 1.387 . S
C1052 H1037 0.930 . S
C1052 C1047 1.390 . S
C1052 C1051 1.387 . S
H1053 C1065 0.930 . S
H1054 C1067 0.930 . S
H1055 C1068 0.930 . S
H1056 C1072 0.959 . S
H1057 C1072 0.959 . S
H1058 C1072 0.961 . S
H1059 C1073 0.960 . S
H1060 C1073 0.961 . S
H1061 C1073 0.959 . S
H1062 C1076 0.929 . S
H1063 C1077 0.931 . S
H1064 C1079 0.930 . S
C1065 H1053 0.930 . S
C1065 C1066 1.399 . S
C1065 C1070 1.399 . S
C1066 C1065 1.399 . S
C1066 C1067 1.376 . S
C1067 H1054 0.930 . S
C1067 C1066 1.376 . S
C1067 C1068 1.388 . S
C1068 H1055 0.930 . S
C1068 C1067 1.388 . S
C1068 C1069 1.390 . S
C1069 C1068 1.390 . S
C1069 C1070 1.394 . S
C1069 C1075 1.465 . S
C1070 C1065 1.399 . S
C1070 C1069 1.394 . S
C1070 C1071 1.516 . S
C1071 C1070 1.516 . S
C1071 C1072 1.502 . S
C1071 C1073 1.561 . S
C1071 C1074 1.526 . S
C1072 H1056 0.959 . S
C1072 H1057 0.959 . S
C1072 H1058 0.961 . S
C1072 C1071 1.502 . S
C1073 H1059 0.960 . S
C1073 H1060 0.961 . S
C1073 H1061 0.959 . S
C1073 C1071 1.561 . S
C1074 C1071 1.526 . S
C1074 C1075 1.396 . S
C1074 C1079 1.390 . S
C1075 C1069 1.465 . S
C1075 C1074 1.396 . S
C1075 C1076 1.399 . S
C1076 H1062 0.929 . S
C1076 C1075 1.399 . S
C1076 C1077 1.385 . S
C1077 H1063 0.931 . S
C1077 C1076 1.385 . S
C1077 C1078 1.389 . S
C1078 C1077 1.389 . S
C1078 C1079 1.387 . S
C1079 H1064 0.930 . S
C1079 C1074 1.390 . S
C1079 C1078 1.387 . S
H1080 C1092 0.930 . S
H1081 C1094 0.930 . S
H1082 C1095 0.930 . S
H1083 C1099 0.959 . S
H1084 C1099 0.959 . S
H1085 C1099 0.961 . S
H1086 C1100 0.960 . S
H1087 C1100 0.961 . S
H1088 C1100 0.959 . S
H1089 C1103 0.929 . S
H1090 C1104 0.931 . S
H1091 C1106 0.930 . S
C1092 H1080 0.930 . S
C1092 C1093 1.399 . S
C1092 C1097 1.399 . S
C1093 C1092 1.399 . S
C1093 C1094 1.376 . S
C1094 H1081 0.930 . S
C1094 C1093 1.376 . S
C1094 C1095 1.388 . S
C1095 H1082 0.930 . S
C1095 C1094 1.388 . S
C1095 C1096 1.390 . S
C1096 C1095 1.390 . S
C1096 C1097 1.394 . S
C1096 C1102 1.465 . S
C1097 C1092 1.399 . S
C1097 C1096 1.394 . S
C1097 C1098 1.516 . S
C1098 C1097 1.516 . S
C1098 C1099 1.502 . S
C1098 C1100 1.561 . S
C1098 C1101 1.526 . S
C1099 H1083 0.959 . S
C1099 H1084 0.959 . S
C1099 H1085 0.961 . S
C1099 C1098 1.502 . S
C1100 H1086 0.960 . S
C1100 H1087 0.961 . S
C1100 H1088 0.959 . S
C1100 C1098 1.561 . S
C1101 C1098 1.526 . S
C1101 C1102 1.396 . S
C1101 C1106 1.390 . S
C1102 C1096 1.465 . S
C1102 C1101 1.396 . S
C1102 C1103 1.399 . S
C1103 H1089 0.929 . S
C1103 C1102 1.399 . S
C1103 C1104 1.385 . S
C1104 H1090 0.931 . S
C1104 C1103 1.385 . S
C1104 C1105 1.389 . S
C1105 C1104 1.389 . S
C1105 C1106 1.387 . S
C1106 H1091 0.930 . S
C1106 C1101 1.390 . S
C1106 C1105 1.387 . S
H1107 C1119 0.930 . S
H1108 C1121 0.930 . S
H1109 C1122 0.930 . S
H1110 C1126 0.959 . S
H1111 C1126 0.959 . S
H1112 C1126 0.961 . S
H1113 C1127 0.960 . S
H1114 C1127 0.961 . S
H1115 C1127 0.959 . S
H1116 C1130 0.929 . S
H1117 C1131 0.931 . S
H1118 C1133 0.930 . S
C1119 H1107 0.930 . S
C1119 C1120 1.399 . S
C1119 C1124 1.399 . S
C1120 C1119 1.399 . S
C1120 C1121 1.376 . S
C1121 H1108 0.930 . S
C1121 C1120 1.376 . S
C1121 C1122 1.388 . S
C1122 H1109 0.930 . S
C1122 C1121 1.388 . S
C1122 C1123 1.390 . S
C1123 C1122 1.390 . S
C1123 C1124 1.394 . S
C1123 C1129 1.465 . S
C1124 C1119 1.399 . S
C1124 C1123 1.394 . S
C1124 C1125 1.516 . S
C1125 C1124 1.516 . S
C1125 C1126 1.502 . S
C1125 C1127 1.561 . S
C1125 C1128 1.526 . S
C1126 H1110 0.959 . S
C1126 H1111 0.959 . S
C1126 H1112 0.961 . S
C1126 C1125 1.502 . S
C1127 H1113 0.960 . S
C1127 H1114 0.961 . S
C1127 H1115 0.959 . S
C1127 C1125 1.561 . S
C1128 C1125 1.526 . S
C1128 C1129 1.396 . S
C1128 C1133 1.390 . S
C1129 C1123 1.465 . S
C1129 C1128 1.396 . S
C1129 C1130 1.399 . S
C1130 H1116 0.929 . S
C1130 C1129 1.399 . S
C1130 C1131 1.385 . S
C1131 H1117 0.931 . S
C1131 C1130 1.385 . S
C1131 C1132 1.389 . S
C1132 C1131 1.389 . S
C1132 C1133 1.387 . S
C1133 H1118 0.930 . S
C1133 C1128 1.390 . S
C1133 C1132 1.387 . S
H1134 C1146 0.930 . S
H1135 C1148 0.930 . S
H1136 C1149 0.930 . S
H1137 C1153 0.959 . S
H1138 C1153 0.959 . S
H1139 C1153 0.961 . S
H1140 C1154 0.960 . S
H1141 C1154 0.961 . S
H1142 C1154 0.959 . S
H1143 C1157 0.929 . S
H1144 C1158 0.931 . S
H1145 C1160 0.930 . S
C1146 H1134 0.930 . S
C1146 C1147 1.399 . S
C1146 C1151 1.399 . S
C1147 C1146 1.399 . S
C1147 C1148 1.376 . S
C1148 H1135 0.930 . S
C1148 C1147 1.376 . S
C1148 C1149 1.388 . S
C1149 H1136 0.930 . S
C1149 C1148 1.388 . S
C1149 C1150 1.390 . S
C1150 C1149 1.390 . S
C1150 C1151 1.394 . S
C1150 C1156 1.465 . S
C1151 C1146 1.399 . S
C1151 C1150 1.394 . S
C1151 C1152 1.516 . S
C1152 C1151 1.516 . S
C1152 C1153 1.502 . S
C1152 C1154 1.561 . S
C1152 C1155 1.526 . S
C1153 H1137 0.959 . S
C1153 H1138 0.959 . S
C1153 H1139 0.961 . S
C1153 C1152 1.502 . S
C1154 H1140 0.960 . S
C1154 H1141 0.961 . S
C1154 H1142 0.959 . S
C1154 C1152 1.561 . S
C1155 C1152 1.526 . S
C1155 C1156 1.396 . S
C1155 C1160 1.390 . S
C1156 C1150 1.465 . S
C1156 C1155 1.396 . S
C1156 C1157 1.399 . S
C1157 H1143 0.929 . S
C1157 C1156 1.399 . S
C1157 C1158 1.385 . S
C1158 H1144 0.931 . S
C1158 C1157 1.385 . S
C1158 C1159 1.389 . S
C1159 C1158 1.389 . S
C1159 C1160 1.387 . S
C1160 H1145 0.930 . S
C1160 C1155 1.390 . S
C1160 C1159 1.387 . S
H1161 C1173 0.930 . S
H1162 C1175 0.930 . S
H1163 C1176 0.930 . S
H1164 C1180 0.959 . S
H1165 C1180 0.959 . S
H1166 C1180 0.961 . S
H1167 C1181 0.960 . S
H1168 C1181 0.961 . S
H1169 C1181 0.959 . S
H1170 C1184 0.929 . S
H1171 C1185 0.931 . S
H1172 C1187 0.930 . S
C1173 H1161 0.930 . S
C1173 C1174 1.399 . S
C1173 C1178 1.399 . S
C1174 C1173 1.399 . S
C1174 C1175 1.376 . S
C1175 H1162 0.930 . S
C1175 C1174 1.376 . S
C1175 C1176 1.388 . S
C1176 H1163 0.930 . S
C1176 C1175 1.388 . S
C1176 C1177 1.390 . S
C1177 C1176 1.390 . S
C1177 C1178 1.394 . S
C1177 C1183 1.465 . S
C1178 C1173 1.399 . S
C1178 C1177 1.394 . S
C1178 C1179 1.516 . S
C1179 C1178 1.516 . S
C1179 C1180 1.502 . S
C1179 C1181 1.561 . S
C1179 C1182 1.526 . S
C1180 H1164 0.959 . S
C1180 H1165 0.959 . S
C1180 H1166 0.961 . S
C1180 C1179 1.502 . S
C1181 H1167 0.960 . S
C1181 H1168 0.961 . S
C1181 H1169 0.959 . S
C1181 C1179 1.561 . S
C1182 C1179 1.526 . S
C1182 C1183 1.396 . S
C1182 C1187 1.390 . S
C1183 C1177 1.465 . S
C1183 C1182 1.396 . S
C1183 C1184 1.399 . S
C1184 H1170 0.929 . S
C1184 C1183 1.399 . S
C1184 C1185 1.385 . S
C1185 H1171 0.931 . S
C1185 C1184 1.385 . S
C1185 C1186 1.389 . S
C1186 C1185 1.389 . S
C1186 C1187 1.387 . S
C1187 H1172 0.930 . S
C1187 C1182 1.390 . S
C1187 C1186 1.387 . S
H1188 C1200 0.930 . S
H1189 C1202 0.930 . S
H1190 C1203 0.930 . S
H1191 C1207 0.959 . S
H1192 C1207 0.959 . S
H1193 C1207 0.961 . S
H1194 C1208 0.960 1_565 S
H1195 C1208 0.961 . S
H1196 C1208 0.959 . S
H1197 C1211 0.929 . S
H1198 C1212 0.931 . S
H1199 C1214 0.930 . S
C1200 H1188 0.930 . S
C1200 C1201 1.399 . S
C1200 C1205 1.399 . S
C1201 C1200 1.399 . S
C1201 C1202 1.376 . S
C1202 H1189 0.930 . S
C1202 C1201 1.376 . S
C1202 C1203 1.388 . S
C1203 H1190 0.930 . S
C1203 C1202 1.388 . S
C1203 C1204 1.390 . S
C1204 C1203 1.390 . S
C1204 C1205 1.394 . S
C1204 C1210 1.465 . S
C1205 C1200 1.399 . S
C1205 C1204 1.394 . S
C1205 C1206 1.516 . S
C1206 C1205 1.516 . S
C1206 C1207 1.502 . S
C1206 C1208 1.561 1_565 S
C1206 C1209 1.526 . S
C1207 H1191 0.959 . S
C1207 H1192 0.959 . S
C1207 H1193 0.961 . S
C1207 C1206 1.502 . S
C1208 H1194 0.960 1_545 S
C1208 H1195 0.961 . S
C1208 H1196 0.959 . S
C1208 C1206 1.561 1_545 S
C1209 C1206 1.526 . S
C1209 C1210 1.396 . S
C1209 C1214 1.390 1_565 S
C1210 C1204 1.465 . S
C1210 C1209 1.396 . S
C1210 C1211 1.399 . S
C1211 H1197 0.929 . S
C1211 C1210 1.399 . S
C1211 C1212 1.385 1_565 S
C1212 H1198 0.931 . S
C1212 C1211 1.385 1_545 S
C1212 C1213 1.389 . S
C1213 C1212 1.389 . S
C1213 C1214 1.387 . S
C1214 H1199 0.930 . S
C1214 C1209 1.390 1_545 S
C1214 C1213 1.387 . S
H1215 C1227 0.930 . S
H1216 C1229 0.930 . S
H1217 C1230 0.930 . S
H1218 C1234 0.959 . S
H1219 C1234 0.959 . S
H1220 C1234 0.961 . S
H1221 C1235 0.960 . S
H1222 C1235 0.961 . S
H1223 C1235 0.959 . S
H1224 C1238 0.929 . S
H1225 C1239 0.931 . S
H1226 C1241 0.930 . S
C1227 H1215 0.930 . S
C1227 C1228 1.399 . S
C1227 C1232 1.399 . S
C1228 C1227 1.399 . S
C1228 C1229 1.376 . S
C1229 H1216 0.930 . S
C1229 C1228 1.376 . S
C1229 C1230 1.388 . S
C1230 H1217 0.930 . S
C1230 C1229 1.388 . S
C1230 C1231 1.390 . S
C1231 C1230 1.390 . S
C1231 C1232 1.394 . S
C1231 C1237 1.465 . S
C1232 C1227 1.399 . S
C1232 C1231 1.394 . S
C1232 C1233 1.516 . S
C1233 C1232 1.516 . S
C1233 C1234 1.502 . S
C1233 C1235 1.561 . S
C1233 C1236 1.526 . S
C1234 H1218 0.959 . S
C1234 H1219 0.959 . S
C1234 H1220 0.961 . S
C1234 C1233 1.502 . S
C1235 H1221 0.960 . S
C1235 H1222 0.961 . S
C1235 H1223 0.959 . S
C1235 C1233 1.561 . S
C1236 C1233 1.526 . S
C1236 C1237 1.396 . S
C1236 C1241 1.390 . S
C1237 C1231 1.465 . S
C1237 C1236 1.396 . S
C1237 C1238 1.399 1_455 S
C1238 H1224 0.929 . S
C1238 C1237 1.399 1_655 S
C1238 C1239 1.385 . S
C1239 H1225 0.931 . S
C1239 C1238 1.385 . S
C1239 C1240 1.389 . S
C1240 C1239 1.389 . S
C1240 C1241 1.387 1_655 S
C1241 H1226 0.930 . S
C1241 C1236 1.390 . S
C1241 C1240 1.387 1_455 S
H1242 C1254 0.930 . S
H1243 C1256 0.930 . S
H1244 C1257 0.930 . S
H1245 C1261 0.959 . S
H1246 C1261 0.959 . S
H1247 C1261 0.961 . S
H1248 C1262 0.960 . S
H1249 C1262 0.961 . S
H1250 C1262 0.959 . S
H1251 C1265 0.929 . S
H1252 C1266 0.931 1_655 S
H1253 C1268 0.930 . S
C1254 H1242 0.930 . S
C1254 C1255 1.399 . S
C1254 C1259 1.399 . S
C1255 C1254 1.399 . S
C1255 C1256 1.376 . S
C1256 H1243 0.930 . S
C1256 C1255 1.376 . S
C1256 C1257 1.388 . S
C1257 H1244 0.930 . S
C1257 C1256 1.388 . S
C1257 C1258 1.390 . S
C1258 C1257 1.390 . S
C1258 C1259 1.394 . S
C1258 C1264 1.465 . S
C1259 C1254 1.399 . S
C1259 C1258 1.394 . S
C1259 C1260 1.516 . S
C1260 C1259 1.516 . S
C1260 C1261 1.502 . S
C1260 C1262 1.561 . S
C1260 C1263 1.526 . S
C1261 H1245 0.959 . S
C1261 H1246 0.959 . S
C1261 H1247 0.961 . S
C1261 C1260 1.502 . S
C1262 H1248 0.960 . S
C1262 H1249 0.961 . S
C1262 H1250 0.959 . S
C1262 C1260 1.561 . S
C1263 C1260 1.526 . S
C1263 C1264 1.396 . S
C1263 C1268 1.390 . S
C1264 C1258 1.465 . S
C1264 C1263 1.396 . S
C1264 C1265 1.399 . S
C1265 H1251 0.929 . S
C1265 C1264 1.399 . S
C1265 C1266 1.385 . S
C1266 H1252 0.931 1_455 S
C1266 C1265 1.385 . S
C1266 C1267 1.389 . S
C1267 C1266 1.389 . S
C1267 C1268 1.387 . S
C1268 H1253 0.930 . S
C1268 C1263 1.390 . S
C1268 C1267 1.387 . S
H1269 C1281 0.930 . S
H1270 C1283 0.930 . S
H1271 C1284 0.930 . S
H1272 C1288 0.959 . S
H1273 C1288 0.959 . S
H1274 C1288 0.961 . S
H1275 C1289 0.960 . S
H1276 C1289 0.961 . S
H1277 C1289 0.959 . S
H1278 C1292 0.929 . S
H1279 C1293 0.931 . S
H1280 C1295 0.930 . S
C1281 H1269 0.930 . S
C1281 C1282 1.399 . S
C1281 C1286 1.399 . S
C1282 C1281 1.399 . S
C1282 C1283 1.376 . S
C1283 H1270 0.930 . S
C1283 C1282 1.376 . S
C1283 C1284 1.388 . S
C1284 H1271 0.930 . S
C1284 C1283 1.388 . S
C1284 C1285 1.390 . S
C1285 C1284 1.390 . S
C1285 C1286 1.394 . S
C1285 C1291 1.465 . S
C1286 C1281 1.399 . S
C1286 C1285 1.394 . S
C1286 C1287 1.516 . S
C1287 C1286 1.516 . S
C1287 C1288 1.502 . S
C1287 C1289 1.561 . S
C1287 C1290 1.526 . S
C1288 H1272 0.959 . S
C1288 H1273 0.959 . S
C1288 H1274 0.961 . S
C1288 C1287 1.502 . S
C1289 H1275 0.960 . S
C1289 H1276 0.961 . S
C1289 H1277 0.959 . S
C1289 C1287 1.561 . S
C1290 C1287 1.526 . S
C1290 C1291 1.396 . S
C1290 C1295 1.390 . S
C1291 C1285 1.465 . S
C1291 C1290 1.396 . S
C1291 C1292 1.399 . S
C1292 H1278 0.929 . S
C1292 C1291 1.399 . S
C1292 C1293 1.385 . S
C1293 H1279 0.931 . S
C1293 C1292 1.385 . S
C1293 C1294 1.389 . S
C1294 C1293 1.389 . S
C1294 C1295 1.387 . S
C1295 H1280 0.930 . S
C1295 C1290 1.390 . S
C1295 C1294 1.387 . S
H1296 C1308 0.930 . S
H1297 C1310 0.930 1_545 S
H1298 C1311 0.930 . S
H1299 C1315 0.959 . S
H1300 C1315 0.959 . S
H1301 C1315 0.961 . S
H1302 C1316 0.960 . S
H1303 C1316 0.961 . S
H1304 C1316 0.959 . S
H1305 C1319 0.929 . S
H1306 C1320 0.931 . S
H1307 C1322 0.930 . S
C1308 H1296 0.930 . S
C1308 C1309 1.399 . S
C1308 C1313 1.399 . S
C1309 C1308 1.399 . S
C1309 C1310 1.376 . S
C1310 H1297 0.930 1_565 S
C1310 C1309 1.376 . S
C1310 C1311 1.388 . S
C1311 H1298 0.930 . S
C1311 C1310 1.388 . S
C1311 C1312 1.390 . S
C1312 C1311 1.390 . S
C1312 C1313 1.394 . S
C1312 C1318 1.465 . S
C1313 C1308 1.399 . S
C1313 C1312 1.394 . S
C1313 C1314 1.516 . S
C1314 C1313 1.516 . S
C1314 C1315 1.502 . S
C1314 C1316 1.561 . S
C1314 C1317 1.526 . S
C1315 H1299 0.959 . S
C1315 H1300 0.959 . S
C1315 H1301 0.961 . S
C1315 C1314 1.502 . S
C1316 H1302 0.960 . S
C1316 H1303 0.961 . S
C1316 H1304 0.959 . S
C1316 C1314 1.561 . S
C1317 C1314 1.526 . S
C1317 C1318 1.396 . S
C1317 C1322 1.390 . S
C1318 C1312 1.465 . S
C1318 C1317 1.396 . S
C1318 C1319 1.399 . S
C1319 H1305 0.929 . S
C1319 C1318 1.399 . S
C1319 C1320 1.385 . S
C1320 H1306 0.931 . S
C1320 C1319 1.385 . S
C1320 C1321 1.389 . S
C1321 C1320 1.389 . S
C1321 C1322 1.387 . S
C1322 H1307 0.930 . S
C1322 C1317 1.390 . S
C1322 C1321 1.387 . S
H1323 C1335 0.930 . S
H1324 C1337 0.930 1_565 S
H1325 C1338 0.926 1_565 S
H1326 C1342 0.959 . S
H1327 C1342 0.959 . S
H1328 C1342 0.961 . S
H1329 C1343 0.960 . S
H1330 C1343 0.961 . S
H1331 C1343 0.959 . S
H1332 C1346 0.929 . S
H1333 C1347 0.931 . S
H1334 C1349 0.930 . S
C1335 H1323 0.930 . S
C1335 C1336 1.399 . S
C1335 C1340 1.399 . S
C1336 C1335 1.399 . S
C1336 C1337 1.376 . S
C1337 H1324 0.930 1_545 S
C1337 C1336 1.376 . S
C1337 C1338 1.388 . S
C1338 H1325 0.926 1_545 S
C1338 C1337 1.388 . S
C1338 C1339 1.390 . S
C1339 C1338 1.390 . S
C1339 C1340 1.394 . S
C1339 C1345 1.465 . S
C1340 C1335 1.399 . S
C1340 C1339 1.394 . S
C1340 C1341 1.516 . S
C1341 C1340 1.516 . S
C1341 C1342 1.502 . S
C1341 C1343 1.561 . S
C1341 C1344 1.526 . S
C1342 H1326 0.959 . S
C1342 H1327 0.959 . S
C1342 H1328 0.961 . S
C1342 C1341 1.502 . S
C1343 H1329 0.960 . S
C1343 H1330 0.961 . S
C1343 H1331 0.959 . S
C1343 C1341 1.561 . S
C1344 C1341 1.526 . S
C1344 C1345 1.396 . S
C1344 C1349 1.390 . S
C1345 C1339 1.465 . S
C1345 C1344 1.396 . S
C1345 C1346 1.399 . S
C1346 H1332 0.929 . S
C1346 C1345 1.399 . S
C1346 C1347 1.385 . S
C1347 H1333 0.931 . S
C1347 C1346 1.385 . S
C1347 C1348 1.389 . S
C1348 C1347 1.389 . S
C1348 C1349 1.387 . S
C1349 H1334 0.930 . S
C1349 C1344 1.390 . S
C1349 C1348 1.387 . S
H1350 C1362 0.930 . S
H1351 C1364 0.930 . S
H1352 C1365 0.930 . S
H1353 C1369 0.959 . S
H1354 C1369 0.959 . S
H1355 C1369 0.961 . S
H1356 C1370 0.960 . S
H1357 C1370 0.961 . S
H1358 C1370 0.959 . S
H1359 C1373 0.929 . S
H1360 C1374 0.931 . S
H1361 C1376 0.930 . S
C1362 H1350 0.930 . S
C1362 C1363 1.399 . S
C1362 C1367 1.399 . S
C1363 C1362 1.399 . S
C1363 C1364 1.376 . S
C1364 H1351 0.930 . S
C1364 C1363 1.376 . S
C1364 C1365 1.388 . S
C1365 H1352 0.930 . S
C1365 C1364 1.388 . S
C1365 C1366 1.390 . S
C1366 C1365 1.390 . S
C1366 C1367 1.394 . S
C1366 C1372 1.465 . S
C1367 C1362 1.399 . S
C1367 C1366 1.394 . S
C1367 C1368 1.516 . S
C1368 C1367 1.516 . S
C1368 C1369 1.502 . S
C1368 C1370 1.561 . S
C1368 C1371 1.526 . S
C1369 H1353 0.959 . S
C1369 H1354 0.959 . S
C1369 H1355 0.961 . S
C1369 C1368 1.502 . S
C1370 H1356 0.960 . S
C1370 H1357 0.961 . S
C1370 H1358 0.959 . S
C1370 C1368 1.561 . S
C1371 C1368 1.526 . S
C1371 C1372 1.396 . S
C1371 C1376 1.390 . S
C1372 C1366 1.465 . S
C1372 C1371 1.396 . S
C1372 C1373 1.399 . S
C1373 H1359 0.929 . S
C1373 C1372 1.399 . S
C1373 C1374 1.385 . S
C1374 H1360 0.931 . S
C1374 C1373 1.385 . S
C1374 C1375 1.389 . S
C1375 C1374 1.389 . S
C1375 C1376 1.387 . S
C1376 H1361 0.930 . S
C1376 C1371 1.390 . S
C1376 C1375 1.387 . S
H1377 C1389 0.930 . S
H1378 C1391 0.930 . S
H1379 C1392 0.930 . S
H1380 C1396 0.959 . S
H1381 C1396 0.959 . S
H1382 C1396 0.961 . S
H1383 C1397 0.960 . S
H1384 C1397 0.961 . S
H1385 C1397 0.959 . S
H1386 C1400 0.929 . S
H1387 C1401 0.931 . S
H1388 C1403 0.930 . S
C1389 H1377 0.930 . S
C1389 C1390 1.399 . S
C1389 C1394 1.399 . S
C1390 C1389 1.399 . S
C1390 C1391 1.376 . S
C1391 H1378 0.930 . S
C1391 C1390 1.376 . S
C1391 C1392 1.388 . S
C1392 H1379 0.930 . S
C1392 C1391 1.388 . S
C1392 C1393 1.390 . S
C1393 C1392 1.390 . S
C1393 C1394 1.394 . S
C1393 C1399 1.465 . S
C1394 C1389 1.399 . S
C1394 C1393 1.394 . S
C1394 C1395 1.516 . S
C1395 C1394 1.516 . S
C1395 C1396 1.502 . S
C1395 C1397 1.561 . S
C1395 C1398 1.526 . S
C1396 H1380 0.959 . S
C1396 H1381 0.959 . S
C1396 H1382 0.961 . S
C1396 C1395 1.502 . S
C1397 H1383 0.960 . S
C1397 H1384 0.961 . S
C1397 H1385 0.959 . S
C1397 C1395 1.561 . S
C1398 C1395 1.526 . S
C1398 C1399 1.396 . S
C1398 C1403 1.390 . S
C1399 C1393 1.465 . S
C1399 C1398 1.396 . S
C1399 C1400 1.399 . S
C1400 H1386 0.929 . S
C1400 C1399 1.399 . S
C1400 C1401 1.385 . S
C1401 H1387 0.931 . S
C1401 C1400 1.385 . S
C1401 C1402 1.389 . S
C1402 C1401 1.389 . S
C1402 C1403 1.387 . S
C1403 H1388 0.930 . S
C1403 C1398 1.390 . S
C1403 C1402 1.387 . S
H1404 C1416 0.930 . S
H1405 C1418 0.930 . S
H1406 C1419 0.930 . S
H1407 C1423 0.959 . S
H1408 C1423 0.959 . S
H1409 C1423 0.961 . S
H1410 C1424 0.960 . S
H1411 C1424 0.961 . S
H1412 C1424 0.959 . S
H1413 C1427 0.929 . S
H1414 C1428 0.931 . S
H1415 C1430 0.930 . S
C1416 H1404 0.930 . S
C1416 C1417 1.399 . S
C1416 C1421 1.399 . S
C1417 C1416 1.399 . S
C1417 C1418 1.376 . S
C1418 H1405 0.930 . S
C1418 C1417 1.376 . S
C1418 C1419 1.388 . S
C1419 H1406 0.930 . S
C1419 C1418 1.388 . S
C1419 C1420 1.390 . S
C1420 C1419 1.390 . S
C1420 C1421 1.394 . S
C1420 C1426 1.465 . S
C1421 C1416 1.399 . S
C1421 C1420 1.394 . S
C1421 C1422 1.516 . S
C1422 C1421 1.516 . S
C1422 C1423 1.502 . S
C1422 C1424 1.561 . S
C1422 C1425 1.526 . S
C1423 H1407 0.959 . S
C1423 H1408 0.959 . S
C1423 H1409 0.961 . S
C1423 C1422 1.502 . S
C1424 H1410 0.960 . S
C1424 H1411 0.961 . S
C1424 H1412 0.959 . S
C1424 C1422 1.561 . S
C1425 C1422 1.526 . S
C1425 C1426 1.396 . S
C1425 C1430 1.390 . S
C1426 C1420 1.465 . S
C1426 C1425 1.396 . S
C1426 C1427 1.399 . S
C1427 H1413 0.929 . S
C1427 C1426 1.399 . S
C1427 C1428 1.385 . S
C1428 H1414 0.931 . S
C1428 C1427 1.385 . S
C1428 C1429 1.389 . S
C1429 C1428 1.389 . S
C1429 C1430 1.387 . S
C1430 H1415 0.930 . S
C1430 C1425 1.390 . S
C1430 C1429 1.387 . S
H1431 C1443 0.930 . S
H1432 C1445 0.930 . S
H1433 C1446 0.930 . S
H1434 C1450 0.959 . S
H1435 C1450 0.959 . S
H1436 C1450 0.961 . S
H1437 C1451 0.960 1_565 S
H1438 C1451 0.961 . S
H1439 C1451 0.959 . S
H1440 C1454 0.929 . S
H1441 C1455 0.931 . S
H1442 C1457 0.930 . S
C1443 H1431 0.930 . S
C1443 C1444 1.399 . S
C1443 C1448 1.399 . S
C1444 C1443 1.399 . S
C1444 C1445 1.376 . S
C1445 H1432 0.930 . S
C1445 C1444 1.376 . S
C1445 C1446 1.388 1_565 S
C1446 H1433 0.930 . S
C1446 C1445 1.388 1_545 S
C1446 C1447 1.390 . S
C1447 C1446 1.390 . S
C1447 C1448 1.394 1_545 S
C1447 C1453 1.465 . S
C1448 C1443 1.399 . S
C1448 C1447 1.394 1_565 S
C1448 C1449 1.516 . S
C1449 C1448 1.516 . S
C1449 C1450 1.502 . S
C1449 C1451 1.561 1_565 S
C1449 C1452 1.526 1_565 S
C1450 H1434 0.959 . S
C1450 H1435 0.959 . S
C1450 H1436 0.961 . S
C1450 C1449 1.502 . S
C1451 H1437 0.960 1_545 S
C1451 H1438 0.961 . S
C1451 H1439 0.959 . S
C1451 C1449 1.561 1_545 S
C1452 C1449 1.526 1_545 S
C1452 C1453 1.396 . S
C1452 C1457 1.390 . S
C1453 C1447 1.465 . S
C1453 C1452 1.396 . S
C1453 C1454 1.399 . S
C1454 H1440 0.929 . S
C1454 C1453 1.399 . S
C1454 C1455 1.385 . S
C1455 H1441 0.931 . S
C1455 C1454 1.385 . S
C1455 C1456 1.389 . S
C1456 C1455 1.389 . S
C1456 C1457 1.387 . S
C1457 H1442 0.930 . S
C1457 C1452 1.390 . S
C1457 C1456 1.387 . S
H1458 C1470 0.930 . S
H1459 C1472 0.930 . S
H1460 C1473 0.930 . S
H1461 C1477 0.959 . S
H1462 C1477 0.959 1_455 S
H1463 C1477 0.961 . S
H1464 C1478 0.960 . S
H1465 C1478 0.961 . S
H1466 C1478 0.959 . S
H1467 C1481 0.929 . S
H1468 C1482 0.931 . S
H1469 C1484 0.930 . S
C1470 H1458 0.930 . S
C1470 C1471 1.399 . S
C1470 C1475 1.399 . S
C1471 C1470 1.399 . S
C1471 C1472 1.376 . S
C1472 H1459 0.930 . S
C1472 C1471 1.376 . S
C1472 C1473 1.388 . S
C1473 H1460 0.930 . S
C1473 C1472 1.388 . S
C1473 C1474 1.390 . S
C1474 C1473 1.390 . S
C1474 C1475 1.394 . S
C1474 C1480 1.465 1_655 S
C1475 C1470 1.399 . S
C1475 C1474 1.394 . S
C1475 C1476 1.514 1_655 S
C1476 C1475 1.514 1_455 S
C1476 C1477 1.496 1_455 S
C1476 C1478 1.565 . S
C1476 C1479 1.531 . S
C1477 H1461 0.959 . S
C1477 H1462 0.959 1_655 S
C1477 H1463 0.961 . S
C1477 C1476 1.496 1_655 S
C1478 H1464 0.960 . S
C1478 H1465 0.961 . S
C1478 H1466 0.959 . S
C1478 C1476 1.565 . S
C1479 C1476 1.531 . S
C1479 C1480 1.396 . S
C1479 C1484 1.390 . S
C1480 C1474 1.465 1_455 S
C1480 C1479 1.396 . S
C1480 C1481 1.399 . S
C1481 H1467 0.929 . S
C1481 C1480 1.399 . S
C1481 C1482 1.385 . S
C1482 H1468 0.931 . S
C1482 C1481 1.385 . S
C1482 C1483 1.389 . S
C1483 C1482 1.389 . S
C1483 C1484 1.387 . S
C1484 H1469 0.930 . S
C1484 C1479 1.390 . S
C1484 C1483 1.387 . S
C769 C139 1.242 . S
C781 C58 1.039 . S
C796 C223 1.177 . S
C808 C142 1.153 . S
C823 C226 0.969 . S
C835 C55 1.265 . S
C850 C235 1.432 . S
C862 C154 1.339 . S
C877 C238 1.189 . S
C889 C67 1.515 . S
C904 C70 1.270 . S
C916 C151 1.466 . S
C931 C310 1.134 . S
C943 C391 1.186 . S
C958 C475 1.253 . S
C970 C394 1.012 . S
C985 C478 1.122 . S
C997 C307 1.201 . S
C1012 C406 1.293 . S
C1024 C487 1.464 . S
C1039 C490 1.292 . S
C1051 C319 1.465 . S
C1066 C403 1.457 . S
C1078 C322 1.286 . S
C1093 C643 1.190 . S
C1105 C562 1.138 . S
C1120 C646 1.080 . S
C1132 C727 1.223 . S
C1147 C730 1.152 . S
C1159 C559 1.183 . S
C1174 C739 1.510 . S
C1186 C658 1.190 1_565 S
C1201 C742 1.203 . S
C1213 C571 1.501 . S
C1228 C574 1.318 . S
C1240 C655 1.442 . S
C1255 C476 2.386 . S
C1267 C68 2.547 . S
C1282 C308 2.431 . S
C1294 C152 2.575 . S
C1309 C236 2.569 . S
C1321 C392 2.380 . S
C1336 C224 2.397 . S
C1348 C572 2.543 . S
C1363 C56 2.442 . S
C1375 C656 2.551 . S
C1390 C740 2.555 . S
C1402 C140 2.445 . S
C1417 C320 2.555 . S
C1429 C728 2.377 . S
C1444 C404 2.552 . S
C1456 C560 2.443 . S
C1471 C644 2.434 . S
C1483 C488 2.573 . S
