# Generated by pormake.
# Topology tsi, (8)-cn, num edge types: 1
# Building blocks:
#     Node 0, Type 0, BuildingBlock: LIZSOE_clean_sbu_0, # of connection points: 8
#     Node 1, Type 0, BuildingBlock: LIZSOE_clean_sbu_0, # of connection points: 8
#     Node 2, Type 0, BuildingBlock: LIZSOE_clean_sbu_0, # of connection points: 8
#     Node 3, Type 0, BuildingBlock: LIZSOE_clean_sbu_0, # of connection points: 8
#     Edge 4, Type (0, 0), BuildingBlock: UVAHIK_clean_linker_0, # of connection points: 2
#     Edge 5, Type (0, 0), BuildingBlock: UVAHIK_clean_linker_0, # of connection points: 2
#     Edge 6, Type (0, 0), BuildingBlock: UVAHIK_clean_linker_0, # of connection points: 2
#     Edge 7, Type (0, 0), BuildingBlock: UVAHIK_clean_linker_0, # of connection points: 2
#     Edge 8, Type (0, 0), BuildingBlock: UVAHIK_clean_linker_0, # of connection points: 2
#     Edge 9, Type (0, 0), BuildingBlock: UVAHIK_clean_linker_0, # of connection points: 2
#     Edge 10, Type (0, 0), BuildingBlock: UVAHIK_clean_linker_0, # of connection points: 2
#     Edge 11, Type (0, 0), BuildingBlock: UVAHIK_clean_linker_0, # of connection points: 2
#     Edge 12, Type (0, 0), BuildingBlock: UVAHIK_clean_linker_0, # of connection points: 2
#     Edge 13, Type (0, 0), BuildingBlock: UVAHIK_clean_linker_0, # of connection points: 2
#     Edge 14, Type (0, 0), BuildingBlock: UVAHIK_clean_linker_0, # of connection points: 2
#     Edge 15, Type (0, 0), BuildingBlock: UVAHIK_clean_linker_0, # of connection points: 2
#     Edge 16, Type (0, 0), BuildingBlock: UVAHIK_clean_linker_0, # of connection points: 2
#     Edge 17, Type (0, 0), BuildingBlock: UVAHIK_clean_linker_0, # of connection points: 2
#     Edge 18, Type (0, 0), BuildingBlock: UVAHIK_clean_linker_0, # of connection points: 2
#     Edge 19, Type (0, 0), BuildingBlock: UVAHIK_clean_linker_0, # of connection points: 2
# Relax obj value: 0.211
# Max RMSD: 0.260
# Mean RMSD: 0.249
data_MOF--net-tsi--node1-LIZSOE_clean_sbu_0--edge1-UVAHIK_clean_linker_0
_symmetry_space_group_name_H-M    P1
_symmetry_Int_Tables_number       1
_symmetry_cell_setting            triclinic
loop_
_symmetry_equiv_pos_as_xyz
'x, y, z'
_cell_length_a     20.034579
_cell_length_b     19.998216
_cell_length_c     81.930509
_cell_angle_alpha  100.00548
_cell_angle_beta   99.709153
_cell_angle_gamma 89.46501
loop_
_atom_site_label
_atom_site_type_symbol
_atom_site_fract_x
_atom_site_fract_y
_atom_site_fract_z
_atom_type_partial_charge
Co0 Co 0.17877 0.38099 0.45946 0.0
N1 N 0.24277 0.34266 0.47389 0.0
C2 C 0.30593 0.36606 0.48081 0.0
N3 N 0.28742 0.279 0.49286 0.0
C4 C 0.23248 0.29018 0.48163 0.0
C5 C 0.33352 0.32692 0.49241 0.0
Co6 Co 0.03718 0.4509 0.3853 0.0
N7 N 0.97363 0.4871 0.36946 0.0
N8 N 0.9042 0.50337 0.34574 0.0
C9 C 0.93516 0.56274 0.35331 0.0
C10 C 0.9773 0.55274 0.36767 0.0
C11 C 0.92785 0.45806 0.35587 0.0
Co12 Co 0.10694 0.41778 0.4227 0.0
C13 C 0.08978 0.36373 0.38485 0.0
H14 H 1.01236 0.59041 0.37558 0.0
O15 O 0.11549 0.4231 0.44794 0.0
O16 O 1.00569 0.40823 0.42148 0.0
O17 O 0.11375 0.31522 0.4196 0.0
O18 O 0.20736 0.42754 0.42321 0.0
O19 O 0.2475 0.39817 0.44769 0.0
O20 O 0.96637 0.42349 0.39525 0.0
O21 O 0.09871 0.41293 0.39787 0.0
O22 O 0.04336 0.53362 0.40033 0.0
O23 O 0.16141 0.29783 0.44536 0.0
O24 O 0.19062 0.46356 0.4711 0.0
O25 O 0.09912 0.51975 0.4257 0.0
O26 O 0.03916 0.36859 0.37289 0.0
C27 C 0.1368 0.27592 0.43002 0.0
C28 C 0.91206 0.38321 0.3516 0.0
H29 H 0.91215 0.3619 0.36323 0.0
H30 H 0.86228 0.3718 0.34342 0.0
H31 H 0.95124 0.35764 0.34478 0.0
C32 C 0.95662 0.4106 0.40934 0.0
C33 C 0.25705 0.41538 0.43413 0.0
H34 H 0.32925 0.41065 0.47817 0.0
H35 H 0.15583 0.24201 0.49151 0.0
H36 H 0.16398 0.20749 0.47016 0.0
H37 H 0.12374 0.28797 0.47469 0.0
C38 C 0.1649 0.25516 0.47944 0.0
C39 C 0.13413 0.47098 0.46116 0.0
C40 C 0.06923 0.55713 0.41553 0.0
H41 H 0.383 0.33418 0.50025 0.0
H42 H 0.93078 0.60938 0.34822 0.0
Co43 Co 0.11186 0.58241 0.69235 0.0
N44 N 0.05229 0.53231 0.7011 0.0
C45 C 0.05996 0.46565 0.70192 0.0
N46 N 0.97292 0.49745 0.71431 0.0
C47 C 0.99846 0.55039 0.70889 0.0
C48 C 1.01119 0.44415 0.70988 0.0
Co49 Co 0.23492 0.68348 0.63002 0.0
N50 N 0.29241 0.73349 0.62076 0.0
N51 N 0.33428 0.80335 0.60606 0.0
C52 C 0.37546 0.75019 0.60687 0.0
C53 C 0.34998 0.70776 0.61595 0.0
C54 C 0.28417 0.79236 0.61455 0.0
Co55 Co 0.17145 0.63729 0.66129 0.0
C56 C 0.1353 0.66 0.62451 0.0
H57 H 0.36983 0.6588 0.61795 0.0
O58 O 0.17011 0.6352 0.68608 0.0
O59 O 0.17601 0.73939 0.66691 0.0
O60 O 0.07024 0.64266 0.65556 0.0
O61 O 0.16726 0.53445 0.65555 0.0
O62 O 0.12523 0.50624 0.67704 0.0
O63 O 0.22989 0.75912 0.64665 0.0
O64 O 0.17475 0.63551 0.63657 0.0
O65 O 0.30843 0.65306 0.64353 0.0
O66 O 0.03872 0.60552 0.67725 0.0
O67 O 0.10396 0.65874 0.70582 0.0
O68 O 0.27348 0.63215 0.66683 0.0
O69 O 0.16002 0.70783 0.61826 0.0
C70 C 0.02485 0.62791 0.66359 0.0
C71 C 0.22229 0.83541 0.61483 0.0
H72 H 0.19788 0.83235 0.62581 0.0
H73 H 0.23524 0.88938 0.61508 0.0
H74 H 0.18527 0.81779 0.60321 0.0
C75 C 0.20591 0.77977 0.65992 0.0
C76 C 0.14646 0.49019 0.66321 0.0
H77 H 0.1002 0.43478 0.69757 0.0
H78 H 1.00199 0.65146 0.72288 0.0
H79 H 0.9178 0.6199 0.71369 0.0
H80 H 0.97323 0.64596 0.70066 0.0
C81 C 0.97106 0.62088 0.71159 0.0
C82 C 0.15214 0.67787 0.69873 0.0
C83 C 0.31973 0.63596 0.65794 0.0
H84 H 1.00642 0.39418 0.71301 0.0
H85 H 0.41862 0.7408 0.60048 0.0
Co86 Co 0.34684 0.78546 0.92843 0.0
N87 N 0.2995 0.85783 0.939 0.0
C88 C 0.23328 0.87056 0.93457 0.0
N89 N 0.26346 0.92735 0.96052 0.0
C90 C 0.31694 0.89494 0.95474 0.0
C91 C 0.21115 0.91303 0.94769 0.0
Co92 Co 0.40245 0.6176 0.86077 0.0
N93 N 0.44512 0.55315 0.84674 0.0
N94 N 0.51126 0.49961 0.82914 0.0
C95 C 0.46217 0.45599 0.83019 0.0
C96 C 0.42194 0.48875 0.84098 0.0
C97 C 0.49978 0.55855 0.83917 0.0
Co98 Co 0.37936 0.7016 0.89807 0.0
C99 C 0.38148 0.7174 0.86133 0.0
H100 H 0.37709 0.4674 0.84401 0.0
O101 O 0.39611 0.71574 0.92234 0.0
O102 O 0.48 0.70207 0.89905 0.0
O103 O 0.38273 0.80425 0.89888 0.0
O104 O 0.27746 0.70171 0.89869 0.0
O105 O 0.27426 0.72599 0.92649 0.0
O106 O 0.48633 0.63182 0.8754 0.0
O107 O 0.36014 0.6855 0.8724 0.0
O108 O 0.37916 0.55031 0.87197 0.0
O109 O 0.4149 0.84323 0.92647 0.0
O110 O 0.38969 0.7626 0.94828 0.0
O111 O 0.37847 0.60065 0.89851 0.0
O112 O 0.42125 0.68564 0.85177 0.0
C113 C 0.40815 0.85179 0.91115 0.0
C114 C 0.53647 0.62469 0.83982 0.0
H115 H 0.54557 0.65449 0.85271 0.0
H116 H 0.58572 0.61783 0.83547 0.0
H117 H 0.50484 0.65505 0.83146 0.0
C118 C 0.51449 0.6661 0.88927 0.0
C119 C 0.24568 0.70361 0.91132 0.0
H120 H 0.20166 0.84618 0.92308 0.0
H121 H 0.39584 0.95176 0.97292 0.0
H122 H 0.42592 0.89634 0.95604 0.0
H123 H 0.39668 0.86172 0.97243 0.0
C124 C 0.38793 0.90162 0.9645 0.0
C125 C 0.41282 0.71476 0.93827 0.0
C126 C 0.37472 0.54757 0.88709 0.0
H127 H 0.15939 0.92807 0.94821 0.0
H128 H 0.45492 0.40458 0.82326 0.0
Co129 Co 0.40616 0.2949 0.19502 0.0
N130 N 0.35863 0.2682 0.21076 0.0
C131 C 0.29674 0.23794 0.20764 0.0
N132 N 0.32664 0.2579 0.23532 0.0
C133 C 0.37595 0.279 0.22777 0.0
C134 C 0.27678 0.23236 0.22265 0.0
Co135 Co 0.45664 0.33231 0.11909 0.0
N136 N 0.49432 0.37392 0.10387 0.0
N137 N 0.51441 0.40651 0.08013 0.0
C138 C 0.56106 0.43652 0.09306 0.0
C139 C 0.54863 0.41663 0.10756 0.0
C140 C 0.47481 0.36829 0.08699 0.0
Co141 Co 0.43252 0.31066 0.15696 0.0
C142 C 0.36273 0.30152 0.12024 0.0
H143 H 0.57717 0.43272 0.12006 0.0
O144 O 0.45363 0.32599 0.18217 0.0
O145 O 0.43711 0.41182 0.15818 0.0
O146 O 0.33183 0.31745 0.15622 0.0
O147 O 0.42637 0.20968 0.15688 0.0
O148 O 0.39999 0.20618 0.18245 0.0
O149 O 0.45508 0.41784 0.13255 0.0
O150 O 0.41449 0.29088 0.13158 0.0
O151 O 0.54255 0.3173 0.13051 0.0
O152 O 0.32378 0.31643 0.18282 0.0
O153 O 0.41722 0.38142 0.20505 0.0
O154 O 0.53373 0.30459 0.15685 0.0
O155 O 0.37164 0.3433 0.1102 0.0
C156 C 0.29708 0.32227 0.16803 0.0
C157 C 0.41856 0.32164 0.07706 0.0
H158 H 0.37017 0.34928 0.07653 0.0
H159 H 0.42752 0.30425 0.06401 0.0
H160 H 0.41381 0.27697 0.08319 0.0
C161 C 0.44723 0.44634 0.14711 0.0
C162 C 0.41056 0.17683 0.16796 0.0
H163 H 0.26703 0.22267 0.19525 0.0
H164 H 0.47871 0.31224 0.22857 0.0
H165 H 0.46097 0.29071 0.24806 0.0
H166 H 0.42994 0.36816 0.24161 0.0
C167 C 0.44049 0.31424 0.237 0.0
C168 C 0.45732 0.37974 0.19399 0.0
C169 C 0.56887 0.3075 0.14517 0.0
H170 H 0.22865 0.21229 0.22419 0.0
H171 H 0.60054 0.47157 0.09212 0.0
C172 C 0.10087 0.56529 0.48196 0.0
C173 C 0.08339 0.50267 0.47127 0.0
C174 C 0.08019 0.58032 0.49773 0.0
C175 C 0.03822 0.48604 0.53005 0.0
H176 H 0.0245 0.66692 0.5552 0.0
C177 C 0.11326 0.55612 0.60284 0.0
C178 C 0.08757 0.6156 0.6113 0.0
C179 C 0.09235 0.5347 0.58543 0.0
C180 C 0.02704 0.61569 0.54842 0.0
H181 H 0.02354 0.41032 0.46814 0.0
H182 H 0.98534 0.43746 0.49526 0.0
H183 H 0.02136 0.65106 0.52497 0.0
H184 H 1.01269 0.69312 0.60845 0.0
H185 H 0.97326 0.65374 0.57852 0.0
H186 H 0.04477 0.45081 0.55357 0.0
C187 C 1.0168 0.47435 0.4917 0.0
C188 C 0.02611 0.60671 0.53098 0.0
C189 C 0.0372 0.45956 0.47585 0.0
C190 C 0.03314 0.64673 0.60242 0.0
C191 C 1.01191 0.62518 0.58507 0.0
C192 C 0.03926 0.49503 0.54752 0.0
C193 C 0.0412 0.53316 0.50328 0.0
C194 C 0.03299 0.54191 0.52151 0.0
C195 C 0.04443 0.57168 0.57607 0.0
C196 C 0.0349 0.5602 0.55709 0.0
H197 H 0.13743 0.59903 0.47903 0.0
H198 H 0.10023 0.6262 0.50615 0.0
H199 H 0.04449 0.43532 0.52337 0.0
H200 H 0.15613 0.53156 0.60912 0.0
H201 H 0.11867 0.49309 0.57913 0.0
C202 C 0.62868 0.49989 0.82377 0.0
C203 C 0.55928 0.48764 0.81781 0.0
C204 C 0.6742 0.49632 0.81249 0.0
C205 C 0.70497 0.425 0.77067 0.0
H206 H 0.80334 0.5933 0.77288 0.0
C207 C 0.86466 0.45879 0.7201 0.0
C208 C 0.92404 0.49859 0.72526 0.0
C209 C 0.81898 0.45667 0.73117 0.0
C210 C 0.77742 0.54542 0.77222 0.0
H211 H 0.48344 0.45582 0.79575 0.0
H212 H 0.56365 0.44704 0.7759 0.0
H213 H 0.72912 0.58554 0.79316 0.0
H214 H 0.98412 0.56585 0.74581 0.0
H215 H 0.90642 0.56038 0.76552 0.0
H216 H 0.75469 0.38367 0.75017 0.0
C217 C 0.58244 0.46121 0.78925 0.0
C218 C 0.73463 0.54124 0.78382 0.0
C219 C 0.53674 0.46614 0.80053 0.0
C220 C 0.93769 0.53593 0.7416 0.0
C221 C 0.89291 0.53284 0.7528 0.0
C222 C 0.74891 0.42863 0.75926 0.0
C223 C 0.65117 0.4782 0.79512 0.0
C224 C 0.69795 0.48113 0.78311 0.0
C225 C 0.83284 0.49309 0.74776 0.0
C226 C 0.78563 0.48903 0.75984 0.0
H227 H 0.64712 0.51454 0.83711 0.0
H228 H 0.72719 0.50866 0.81729 0.0
H229 H 0.67723 0.37804 0.76995 0.0
H230 H 0.85381 0.42953 0.7075 0.0
H231 H 0.77285 0.42655 0.72667 0.0
C232 C 0.41325 0.59565 0.9432 0.0
C233 C 0.44691 0.65866 0.94562 0.0
C234 C 0.42946 0.55168 0.95487 0.0
C235 C 0.42932 0.5006 0.98769 0.0
H236 H 0.60049 0.50975 1.01817 0.0
C237 C 0.44658 0.44049 0.05487 0.0
C238 C 0.50765 0.41778 0.063 0.0
C239 C 0.44215 0.45815 0.03889 0.0
C240 C 0.5524 0.50521 1.00971 0.0
H241 H 0.52492 0.72448 0.9618 0.0
H242 H 0.55281 0.64957 0.98214 0.0
H243 H 0.5933 0.55447 0.99232 0.0
H244 H 0.61135 0.39387 0.06075 0.0
H245 H 0.60336 0.42105 1.03255 0.0
H246 H 0.38898 0.44921 1.0048 0.0
C247 C 0.51543 0.6319 0.97108 0.0
C248 C 0.54802 0.53212 0.99488 0.0
C249 C 0.49974 0.67513 0.95933 0.0
C250 C 0.56374 0.41133 0.05469 0.0
C251 C 0.5591 0.42766 0.03858 0.0
C252 C 0.43399 0.47258 1.00238 0.0
C253 C 0.47855 0.57074 0.96947 0.0
C254 C 0.48595 0.53214 0.98385 0.0
C255 C 0.49856 0.45265 1.03051 0.0
C256 C 0.49516 0.47607 1.0139 0.0
H257 H 0.37039 0.583 0.93314 0.0
H258 H 0.40074 0.50455 0.9529 0.0
H259 H 0.38028 0.49984 0.97973 0.0
H260 H 0.40306 0.4472 0.06118 0.0
H261 H 0.39499 0.47844 1.03344 0.0
C262 C 0.80184 0.46125 0.32493 0.0
C263 C 0.86699 0.49118 0.32875 0.0
C264 C 0.76532 0.45276 0.30848 0.0
C265 C 0.74767 0.52238 0.26928 0.0
H266 H 0.65941 0.34962 0.24845 0.0
C267 C 0.52665 0.47556 0.21214 0.0
C268 C 0.52415 0.41252 0.20127 0.0
C269 C 0.58032 0.49201 0.22564 0.0
C270 C 0.68444 0.398 0.254 0.0
H271 H 0.94406 0.53758 0.31852 0.0
H272 H 0.87994 0.52412 0.28989 0.0
H273 H 0.72552 0.36233 0.27677 0.0
H274 H 0.58015 0.32117 0.19494 0.0
H275 H 0.67412 0.35053 0.21812 0.0
H276 H 0.70466 0.55851 0.24663 0.0
C277 C 0.85737 0.50637 0.29952 0.0
C278 C 0.7216 0.40546 0.27031 0.0
C279 C 0.89414 0.51384 0.31587 0.0
C280 C 0.58087 0.37068 0.20283 0.0
C281 C 0.63414 0.38678 0.21639 0.0
C282 C 0.70943 0.51524 0.25304 0.0
C283 C 0.79258 0.4756 0.29561 0.0
C284 C 0.75353 0.46774 0.27817 0.0
C285 C 0.63226 0.44553 0.22852 0.0
C286 C 0.67744 0.45289 0.2452 0.0
H287 H 0.77862 0.44582 0.33473 0.0
H288 H 0.71504 0.42981 0.3059 0.0
H289 H 0.7714 0.57115 0.27505 0.0
H290 H 0.48334 0.50844 0.21139 0.0
H291 H 0.57751 0.53784 0.23472 0.0
C292 C 0.2727 0.30945 0.25925 0.0
C293 C 0.32228 0.26731 0.25297 0.0
C294 C 0.26439 0.31528 0.27607 0.0
C295 C 0.28846 0.22367 0.31178 0.0
H296 H 0.25463 0.3994 0.33715 0.0
C297 C 0.13581 0.26799 0.36671 0.0
C298 C 0.14835 0.32802 0.3787 0.0
C299 C 0.17567 0.25205 0.35409 0.0
C300 C 0.2651 0.3499 0.33043 0.0
H301 H 0.40127 0.19716 0.25915 0.0
H302 H 0.38649 0.20652 0.28872 0.0
H303 H 0.28596 0.3921 0.30945 0.0
H304 H 0.21779 0.4135 0.38798 0.0
H305 H 0.28886 0.38456 0.36649 0.0
H306 H 0.2652 0.18135 0.3326 0.0
C307 C 0.3545 0.23574 0.28066 0.0
C308 C 0.28229 0.34571 0.31441 0.0
C309 C 0.36344 0.23077 0.26383 0.0
C310 C 0.20742 0.36625 0.37921 0.0
C311 C 0.24719 0.35054 0.36655 0.0
C312 C 0.27041 0.22778 0.32778 0.0
C313 C 0.30473 0.27808 0.28699 0.0
C314 C 0.29304 0.28252 0.30472 0.0
C315 C 0.22904 0.29584 0.35319 0.0
C316 C 0.25753 0.29095 0.33724 0.0
H317 H 0.23993 0.33738 0.25101 0.0
H318 H 0.22498 0.3476 0.28042 0.0
H319 H 0.29609 0.17412 0.30464 0.0
H320 H 0.09023 0.2379 0.36585 0.0
H321 H 0.16015 0.20935 0.34409 0.0
C322 C 0.17317 0.78313 0.71973 0.0
C323 C 0.2006 0.72537 0.71096 0.0
C324 C 0.19628 0.80564 0.73697 0.0
C325 C 0.32773 0.78364 0.77405 0.0
H326 H 0.17541 0.80271 0.79803 0.0
C327 C 0.27669 0.74056 0.84278 0.0
C328 C 0.33934 0.76553 0.85235 0.0
C329 C 0.25582 0.75484 0.82646 0.0
C330 C 0.21865 0.79789 0.7916 0.0
H331 H 0.28059 0.65245 0.71308 0.0
H332 H 0.32299 0.69335 0.74285 0.0
H333 H 0.15577 0.79241 0.76745 0.0
H334 H 0.42315 0.83413 0.85323 0.0
H335 H 0.38577 0.86123 0.82525 0.0
H336 H 0.39043 0.78699 0.79816 0.0
C337 C 0.28238 0.72053 0.73654 0.0
C338 C 0.20748 0.7926 0.77399 0.0
C339 C 0.2589 0.69777 0.71927 0.0
C340 C 0.37439 0.81432 0.84631 0.0
C341 C 0.35392 0.82827 0.83 0.0
C342 C 0.33896 0.78975 0.79169 0.0
C343 C 0.24843 0.77185 0.74589 0.0
C344 C 0.26174 0.78442 0.76487 0.0
C345 C 0.29674 0.79518 0.8194 0.0
C346 C 0.28454 0.79602 0.80075 0.0
H347 H 0.12775 0.80518 0.71383 0.0
H348 H 0.16999 0.84656 0.74356 0.0
H349 H 0.37087 0.77757 0.76759 0.0
H350 H 0.2488 0.70201 0.84681 0.0
H351 H 0.21112 0.72874 0.81882 0.0
C352 C 0.2231 1.01955 0.98078 0.0
C353 C 0.25903 0.95938 0.97758 0.0
C354 C 0.21889 0.05029 0.99735 0.0
C355 C 0.24925 1.01763 0.04201 0.0
H356 H 0.25719 0.21406 0.05292 0.0
C357 C 0.34237 0.17929 0.10816 0.0
C358 C 0.31569 0.24465 0.11158 0.0
C359 C 0.31841 0.13564 0.09295 0.0
C360 C 0.25365 0.15911 0.05008 0.0
H361 H 0.31369 0.88141 0.98932 0.0
H362 H 0.31038 0.93635 1.01799 0.0
H363 H 0.25195 0.15849 1.0239 0.0
H364 H 0.23516 0.31005 0.10323 0.0
H365 H 0.19241 0.23354 0.07701 0.0
H366 H 0.25457 1.019 0.0685 0.0
C367 C 0.28493 0.96029 1.00785 0.0
C368 C 0.2506 0.12702 1.03334 0.0
C369 C 0.28842 0.92939 0.99132 0.0
C370 C 0.257 0.26021 0.10094 0.0
C371 C 0.2334 0.21691 0.08572 0.0
C372 C 0.25321 0.04985 0.05882 0.0
C373 C 0.25042 0.02151 1.01119 0.0
C374 C 0.24909 0.05569 1.02901 0.0
C375 C 0.26696 0.15635 0.08102 0.0
C376 C 0.25586 0.12105 0.06309 0.0
H377 H 0.19882 0.04309 0.97043 0.0
H378 H 0.19051 0.09649 0.99926 0.0
H379 H 0.24669 0.9627 0.03927 0.0
H380 H 0.3877 0.16554 0.11601 0.0
H381 H 0.345 0.089 0.08983 0.0
C382 C 0.31917 0.25251 0.52137 0.0
C383 C 0.29439 0.23097 0.5042 0.0
C384 C 0.32543 0.2063 0.53249 0.0
C385 C 0.3436 0.02495 0.53447 0.0
H386 H 0.27627 0.07263 0.57659 0.0
C387 C 0.32254 0.82891 0.5775 0.0
C388 C 0.3349 0.85127 0.59493 0.0
C389 C 0.31991 0.87546 0.56652 0.0
C390 C 0.29637 0.05882 0.56502 0.0
H391 H 0.25904 0.14433 0.48501 0.0
H392 H 0.26994 0.06295 0.50446 0.0
H393 H 0.26736 0.15328 0.55722 0.0
H394 H 0.35605 0.93838 0.61477 0.0
H395 H 0.35345 0.02052 0.59566 0.0
H396 H 0.3736 0.93098 0.54231 0.0
C397 C 0.28408 0.11569 0.50935 0.0
C398 C 0.29098 0.10501 0.55389 0.0
C399 C 0.27719 0.16214 0.49825 0.0
C400 C 0.34603 0.9206 0.60131 0.0
C401 C 0.34401 0.96731 0.59036 0.0
C402 C 0.3496 0.97896 0.54567 0.0
C403 C 0.30791 0.13739 0.52661 0.0
C404 C 0.31426 0.08846 0.53847 0.0
C405 C 0.33035 0.94539 0.5728 0.0
C406 C 0.32576 0.99514 0.56107 0.0
H407 H 0.33282 0.30538 0.52618 0.0
H408 H 0.34462 0.22437 0.54569 0.0
H409 H 0.36283 1.01117 0.52278 0.0
H410 H 0.31343 0.77545 0.57242 0.0
H411 H 0.30817 0.85668 0.55313 0.0
C412 C 0.07725 0.16769 0.41439 0.0
C413 C 0.13398 0.20142 0.42489 0.0
C414 C 0.06894 0.09716 0.41299 0.0
C415 C 0.12265 0.96176 0.43763 0.0
H416 H 0.04875 0.83892 0.39672 0.0
C417 C 0.12313 0.66775 0.43125 0.0
C418 C 0.06807 0.63161 0.42062 0.0
C419 C 0.1279 0.73857 0.43279 0.0
C420 C 0.06859 0.87275 0.40831 0.0
H421 H 0.22917 0.1878 0.44091 0.0
H422 H 0.21569 0.06562 0.4381 0.0
H423 H 0.06519 0.9589 0.39588 0.0
H424 H 0.97187 0.64127 0.40458 0.0
H425 H 0.97942 0.76417 0.40758 0.0
H426 H 0.12635 0.87564 0.45005 0.0
C427 C 0.17645 0.09318 0.43141 0.0
C428 C 0.0781 0.94148 0.4078 0.0
C429 C 0.18449 0.16311 0.43287 0.0
C430 C 1.0155 0.66779 0.41266 0.0
C431 C 0.02005 0.73816 0.41426 0.0
C432 C 0.11316 0.89307 0.43814 0.0
C433 C 0.11746 0.05965 0.422 0.0
C434 C 0.10572 0.98671 0.42243 0.0
C435 C 0.07746 0.77418 0.42381 0.0
C436 C 0.08617 0.84769 0.42348 0.0
H437 H 0.03741 0.19618 0.40821 0.0
H438 H 0.02294 0.07271 0.4056 0.0
H439 H 0.14276 0.99554 0.44922 0.0
H440 H 0.16448 0.64106 0.43746 0.0
H441 H 0.17281 0.76488 0.44027 0.0
C442 C 0.42169 0.56815 0.65531 0.0
C443 C 0.39055 0.62246 0.66421 0.0
C444 C 0.49204 0.56699 0.65662 0.0
C445 C 0.63274 0.68849 0.66344 0.0
H446 H 0.74326 0.52813 0.66151 0.0
C447 C 0.92315 0.69541 0.66665 0.0
C448 C 0.95315 0.63972 0.65797 0.0
C449 C 0.85329 0.69582 0.66641 0.0
C450 C 0.7128 0.5732 0.66174 0.0
H451 H 0.4076 0.71657 0.68199 0.0
H452 H 0.53136 0.7143 0.68457 0.0
H453 H 0.62641 0.5203 0.66591 0.0
H454 H 0.93451 0.54209 0.6417 0.0
H455 H 0.81158 0.54361 0.64064 0.0
H456 H 0.71873 0.74127 0.65907 0.0
C457 C 0.5014 0.67258 0.67657 0.0
C458 C 0.64603 0.56879 0.66444 0.0
C459 C 0.43083 0.67336 0.67535 0.0
C460 C 0.912 0.58636 0.64812 0.0
C461 C 0.84196 0.58673 0.64783 0.0
C462 C 0.69944 0.69287 0.66069 0.0
C463 C 0.53247 0.6208 0.66667 0.0
C464 C 0.60516 0.62635 0.66528 0.0
C465 C 0.8122 0.64015 0.65755 0.0
C466 C 0.74023 0.63521 0.65973 0.0
H467 H 0.39128 0.52932 0.64633 0.0
H468 H 0.51418 0.5267 0.64873 0.0
H469 H 0.60214 0.73348 0.66365 0.0
H470 H 0.95442 0.73602 0.67476 0.0
H471 H 0.83237 0.73744 0.67418 0.0
C472 C 0.33779 0.4259 0.87935 0.0
C473 C 0.37089 0.47904 0.89141 0.0
C474 C 0.34177 0.35895 0.88214 0.0
C475 C 0.44946 0.24807 0.90699 0.0
H476 H 0.29932 0.12009 0.88991 0.0
C477 C 0.44539 0.97359 0.92111 0.0
C478 C 0.41625 0.92188 0.90797 0.0
C479 C 0.44372 0.04151 0.91899 0.0
C480 C 0.34198 0.15504 0.89458 0.0
H481 H 0.43522 0.50334 0.91571 0.0
H482 H 0.43952 0.38677 0.9211 0.0
H483 H 0.28436 0.23931 0.88764 0.0
H484 H 0.36535 0.90109 0.882 0.0
H485 H 0.36263 1.01971 0.87831 0.0
H486 H 0.50663 0.16345 0.91415 0.0
C487 C 0.41073 0.39678 0.90938 0.0
C488 C 0.33342 0.22352 0.89331 0.0
C489 C 0.40694 0.46393 0.90652 0.0
C490 C 0.38826 0.93949 0.89239 0.0
C491 C 0.3861 1.00755 0.89032 0.0
C492 C 0.45784 0.17956 0.90839 0.0
C493 C 0.37907 0.34322 0.89709 0.0
C494 C 0.38716 0.27095 0.89938 0.0
C495 C 0.41248 0.05946 0.90372 0.0
C496 C 0.40433 0.13217 0.90208 0.0
H497 H 0.31022 0.43589 0.86748 0.0
H498 H 0.31764 0.31925 0.87225 0.0
H499 H 0.49238 0.28274 0.91156 0.0
H500 H 0.46753 0.96193 0.93327 0.0
H501 H 0.46428 0.08025 0.92957 0.0
C502 C 0.18808 0.34872 0.17838 0.0
C503 C 0.2226 0.33012 0.16472 0.0
C504 C 0.11756 0.34865 0.17597 0.0
C505 C 0.9687 0.26921 0.14691 0.0
H506 H 0.87073 0.40435 0.17306 0.0
C507 C 0.67791 0.28422 0.13465 0.0
C508 C 0.64361 0.30157 0.14839 0.0
C509 C 0.74842 0.28556 0.13694 0.0
C510 C 0.89742 0.36567 0.16586 0.0
H511 H 0.20971 0.29935 0.13766 0.0
H512 H 0.08553 0.29976 0.13337 0.0
H513 H 0.99319 0.41652 0.17542 0.0
H514 H 0.65707 0.33241 0.17542 0.0
H515 H 0.78117 0.3341 0.17954 0.0
H516 H 0.87296 0.21834 0.13736 0.0
C517 C 0.11361 0.31362 0.14602 0.0
C518 C 0.96759 0.37282 0.16713 0.0
C519 C 0.18467 0.31398 0.14843 0.0
C520 C 0.68185 0.31828 0.16462 0.0
C521 C 0.7529 0.31998 0.16693 0.0
C522 C 0.89855 0.26208 0.14564 0.0
C523 C 0.0793 0.32997 0.15982 0.0
C524 C 1.00414 0.3246 0.15769 0.0
C525 C 0.78691 0.30441 0.15305 0.0
C526 C 0.86201 0.31022 0.15509 0.0
H527 H 0.21558 0.36175 0.19111 0.0
H528 H 0.09304 0.3608 0.1869 0.0
H529 H 0.99537 0.23045 0.13972 0.0
H530 H 0.65018 0.2709 0.12194 0.0
H531 H 0.77271 0.27403 0.12596 0.0
C532 C 0.14808 0.88783 0.66937 0.0
C533 C 0.20655 0.85418 0.6654 0.0
C534 C 0.14251 0.95795 0.66948 0.0
C535 C 0.23992 0.1156 0.66921 0.0
H536 H 0.07218 0.16719 0.64375 0.0
C537 C 0.20848 0.38559 0.65323 0.0
C538 C 0.1483 0.41664 0.65682 0.0
C539 C 0.21545 0.31515 0.6524 0.0
C540 C 0.11924 0.15384 0.65098 0.0
H541 H 0.30675 0.86778 0.65967 0.0
H542 H 0.29766 0.98934 0.66016 0.0
H543 H 0.08511 0.05114 0.64905 0.0
H544 H 0.04685 0.39857 0.66115 0.0
H545 H 0.05841 0.27685 0.65954 0.0
H546 H 0.2739 0.2184 0.67127 0.0
C547 C 0.25595 0.96234 0.66314 0.0
C548 C 0.12644 0.08734 0.65412 0.0
C549 C 0.26124 0.89259 0.6629 0.0
C550 C 0.09363 0.3757 0.65821 0.0
C551 C 0.10036 0.30576 0.6573 0.0
C552 C 0.23264 0.18221 0.66612 0.0
C553 C 0.19562 0.99551 0.66579 0.0
C554 C 0.18678 0.0674 0.66333 0.0
C555 C 0.16217 0.27479 0.65505 0.0
C556 C 0.17209 0.20234 0.65701 0.0
H557 H 0.10489 0.85933 0.67113 0.0
H558 H 0.0957 0.9823 0.67181 0.0
H559 H 0.28697 0.10205 0.67641 0.0
H560 H 0.25167 0.41618 0.65236 0.0
H561 H 0.26343 0.29273 0.65037 0.0
C562 C 0.62521 0.61323 0.88503 0.0
C563 C 0.58963 0.66614 0.89323 0.0
C564 C 0.69589 0.61478 0.88739 0.0
C565 C 0.84993 0.70067 0.91485 0.0
H566 H 0.93415 0.62654 0.87651 0.0
C567 C 0.13104 0.69335 0.89283 0.0
C568 C 0.17167 0.68875 0.90834 0.0
C569 C 0.06025 0.68838 0.89089 0.0
C570 C 0.91174 0.64817 0.88733 0.0
H571 H 0.60083 0.76173 0.91062 0.0
H572 H 0.72458 0.76558 0.91446 0.0
H573 H 0.8116 0.62599 0.87364 0.0
H574 H 0.16982 0.67192 0.9337 0.0
H575 H 0.04733 0.66039 0.93014 0.0
H576 H 0.95002 0.72578 0.92831 0.0
C577 C 0.69779 0.72201 0.90642 0.0
C578 C 0.84106 0.64686 0.88576 0.0
C579 C 0.62672 0.72 0.9042 0.0
C580 C 0.14003 0.67623 0.92161 0.0
C581 C 0.0695 0.67037 0.91961 0.0
C582 C 0.92062 0.70266 0.91636 0.0
C583 C 0.73339 0.66977 0.89785 0.0
C584 C 0.809 0.67262 0.89953 0.0
C585 C 0.02834 0.67783 0.90435 0.0
C586 C 0.9527 0.67604 0.90265 0.0
H587 H 0.59831 0.57051 0.87662 0.0
H588 H 0.72103 0.57261 0.88093 0.0
H589 H 0.82753 0.72048 0.9258 0.0
H590 H 0.15371 0.70368 0.8824 0.0
H591 H 0.0306 0.69518 0.87899 0.0
C592 C 0.46631 0.55807 0.13878 0.0
C593 C 0.4472 0.52178 0.15059 0.0
C594 C 0.46166 0.62851 0.14092 0.0
C595 C 0.44746 0.78302 0.17212 0.0
H596 H 0.38136 0.86055 0.13228 0.0
C597 C 0.38536 0.06628 0.17624 0.0
C598 C 0.40773 0.10133 0.1646 0.0
C599 C 0.38793 0.99567 0.17425 0.0
C600 C 0.40056 0.83981 0.14349 0.0
H601 H 0.41014 0.53197 0.17426 0.0
H602 H 0.40137 0.65591 0.17796 0.0
H603 H 0.39049 0.73777 0.13002 0.0
H604 H 0.44805 0.08868 0.14132 0.0
H605 H 0.45259 0.96466 0.13783 0.0
H606 H 0.45732 0.8852 0.18558 0.0
C607 C 0.42034 0.6293 0.16705 0.0
C608 C 0.40582 0.76937 0.14221 0.0
C609 C 0.42522 0.55829 0.16493 0.0
C610 C 0.43049 0.06344 0.15053 0.0
C611 C 0.43297 0.99237 0.14852 0.0
C612 C 0.44204 0.8535 0.1734 0.0
C613 C 0.43749 0.66508 0.1549 0.0
C614 C 0.42973 0.74004 0.15649 0.0
C615 C 0.41281 0.95782 0.16054 0.0
C616 C 0.41866 0.88278 0.15909 0.0
H617 H 0.48424 0.53204 0.12766 0.0
H618 H 0.47701 0.65435 0.13154 0.0
H619 H 0.46691 0.76235 0.18331 0.0
H620 H 0.36663 0.09341 0.18714 0.0
H621 H 0.37053 0.97069 0.18352 0.0
C622 C 0.83208 0.41661 0.39893 0.0
C623 C 0.88487 0.40444 0.41172 0.0
C624 C 0.76459 0.41661 0.4012 0.0
C625 C 0.65726 0.43161 0.43457 0.0
H626 H 0.51432 0.3733 0.39654 0.0
C627 C 0.38007 0.39074 0.4418 0.0
C628 C 0.32824 0.41734 0.43101 0.0
C629 C 0.44716 0.39087 0.43925 0.0
C630 C 0.55363 0.39049 0.40723 0.0
H631 H 0.90695 0.38107 0.43691 0.0
H632 H 0.78846 0.37873 0.44072 0.0
H633 H 0.63244 0.36461 0.39275 0.0
H634 H 0.30753 0.46486 0.4089 0.0
H635 H 0.42537 0.46312 0.40409 0.0
H636 H 0.57796 0.45547 0.44911 0.0
C637 C 0.79973 0.38998 0.429 0.0
C638 C 0.62157 0.38559 0.40509 0.0
C639 C 0.8678 0.39065 0.42678 0.0
C640 C 0.34573 0.44346 0.41738 0.0
C641 C 0.41326 0.44262 0.41465 0.0
C642 C 0.58936 0.43566 0.43673 0.0
C643 C 0.74712 0.40365 0.41628 0.0
C644 C 0.67454 0.40632 0.41872 0.0
C645 C 0.46477 0.41667 0.42567 0.0
C646 C 0.53672 0.41523 0.42309 0.0
H647 H 0.84275 0.42803 0.38716 0.0
H648 H 0.72628 0.42876 0.39121 0.0
H649 H 0.69608 0.44942 0.44531 0.0
H650 H 0.36895 0.36855 0.45219 0.0
H651 H 0.48525 0.36936 0.44778 0.0
loop_
_geom_bond_atom_site_label_1
_geom_bond_atom_site_label_2
_geom_bond_distance
_geom_bond_site_symmetry_2
_ccdc_geom_bond_type
Co0 N1 2.034 . S
Co0 O15 2.262 . S
Co0 O19 1.958 . S
Co0 O23 1.950 . S
Co0 O24 2.057 . S
N1 Co0 2.034 . S
N1 C2 1.366 . S
N1 C4 1.332 . S
C2 N1 1.366 . S
C2 C5 1.377 . S
C2 H34 0.931 . S
N3 C4 1.346 . S
N3 C5 1.337 . S
C4 N1 1.332 . S
C4 N3 1.346 . S
C4 C38 1.361 . S
C5 C2 1.377 . S
C5 N3 1.337 . S
C5 H41 0.930 . S
Co6 N7 2.034 . S
Co6 O20 1.950 . S
Co6 O21 2.262 1_655 S
Co6 O22 1.958 1_655 S
Co6 O26 2.048 1_655 S
N7 Co6 2.034 . S
N7 C10 1.366 . S
N7 C11 1.332 . S
N8 C9 1.337 . S
N8 C11 1.346 . S
C9 N8 1.337 . S
C9 C10 1.377 . S
C9 H42 0.930 . S
C10 N7 1.366 . S
C10 C9 1.377 . S
C10 H14 0.931 . S
C11 N7 1.332 . S
C11 N8 1.346 . S
C11 C28 1.361 . S
Co12 O15 2.097 . S
Co12 O16 2.065 1_455 S
Co12 O17 2.065 . S
Co12 O18 2.042 . S
Co12 O21 2.097 . S
Co12 O25 2.042 . S
C13 O21 1.253 . S
C13 O26 1.272 . S
H14 C10 0.931 . S
O15 Co0 2.262 . S
O15 Co12 2.097 . S
O15 C39 1.253 . S
O16 Co12 2.065 1_655 S
O16 C32 1.221 . S
O17 Co12 2.065 . S
O17 C27 1.221 . S
O18 Co12 2.042 . S
O18 C33 1.237 . S
O19 Co0 1.958 . S
O19 C33 1.278 . S
O20 Co6 1.950 . S
O20 C32 1.277 . S
O21 Co6 2.262 1_455 S
O21 Co12 2.097 . S
O21 C13 1.253 . S
O22 Co6 1.958 1_455 S
O22 C40 1.278 . S
O23 Co0 1.950 . S
O23 C27 1.277 . S
O24 Co0 2.057 . S
O24 C39 1.263 . S
O25 Co12 2.042 . S
O25 C40 1.237 . S
O26 Co6 2.048 1_455 S
O26 C13 1.272 . S
C27 O17 1.221 . S
C27 O23 1.277 . S
C28 C11 1.361 . S
C28 H29 0.960 . S
C28 H30 0.961 . S
C28 H31 0.961 . S
H29 C28 0.960 . S
H30 C28 0.961 . S
H31 C28 0.961 . S
C32 O16 1.221 . S
C32 O20 1.277 . S
C33 O18 1.237 . S
C33 O19 1.278 . S
H34 C2 0.931 . S
H35 C38 0.961 . S
H36 C38 0.961 . S
H37 C38 0.960 . S
C38 C4 1.361 . S
C38 H35 0.961 . S
C38 H36 0.961 . S
C38 H37 0.960 . S
C39 O15 1.253 . S
C39 O24 1.263 . S
C40 O22 1.278 . S
C40 O25 1.237 . S
H41 C5 0.930 . S
H42 C9 0.930 . S
Co43 N44 2.034 . S
Co43 O58 2.262 . S
Co43 O62 1.958 . S
Co43 O66 1.950 . S
Co43 O67 2.057 . S
N44 Co43 2.034 . S
N44 C45 1.366 . S
N44 C47 1.332 . S
C45 N44 1.366 . S
C45 C48 1.377 . S
C45 H77 0.931 . S
N46 C47 1.346 . S
N46 C48 1.337 . S
C47 N44 1.332 . S
C47 N46 1.346 . S
C47 C81 1.361 . S
C48 C45 1.377 . S
C48 N46 1.337 . S
C48 H84 0.930 . S
Co49 N50 2.034 . S
Co49 O63 1.950 . S
Co49 O64 2.262 . S
Co49 O65 1.958 . S
Co49 O69 2.057 . S
N50 Co49 2.034 . S
N50 C53 1.366 . S
N50 C54 1.332 . S
N51 C52 1.337 . S
N51 C54 1.346 . S
C52 N51 1.337 . S
C52 C53 1.377 . S
C52 H85 0.930 . S
C53 N50 1.366 . S
C53 C52 1.377 . S
C53 H57 0.931 . S
C54 N50 1.332 . S
C54 N51 1.346 . S
C54 C71 1.361 . S
Co55 O58 2.097 . S
Co55 O59 2.065 . S
Co55 O60 2.065 . S
Co55 O61 2.042 . S
Co55 O64 2.097 . S
Co55 O68 2.042 . S
C56 O64 1.253 . S
C56 O69 1.263 . S
H57 C53 0.931 . S
O58 Co43 2.262 . S
O58 Co55 2.097 . S
O58 C82 1.253 . S
O59 Co55 2.065 . S
O59 C75 1.221 . S
O60 Co55 2.065 . S
O60 C70 1.221 . S
O61 Co55 2.042 . S
O61 C76 1.237 . S
O62 Co43 1.958 . S
O62 C76 1.278 . S
O63 Co49 1.950 . S
O63 C75 1.277 . S
O64 Co49 2.262 . S
O64 Co55 2.097 . S
O64 C56 1.253 . S
O65 Co49 1.958 . S
O65 C83 1.278 . S
O66 Co43 1.950 . S
O66 C70 1.277 . S
O67 Co43 2.057 . S
O67 C82 1.263 . S
O68 Co55 2.042 . S
O68 C83 1.237 . S
O69 Co49 2.057 . S
O69 C56 1.263 . S
C70 O60 1.221 . S
C70 O66 1.277 . S
C71 C54 1.361 . S
C71 H72 0.960 . S
C71 H73 0.961 . S
C71 H74 0.961 . S
H72 C71 0.960 . S
H73 C71 0.961 . S
H74 C71 0.961 . S
C75 O59 1.221 . S
C75 O63 1.277 . S
C76 O61 1.237 . S
C76 O62 1.278 . S
H77 C45 0.931 . S
H78 C81 0.961 . S
H79 C81 0.961 1_655 S
H80 C81 0.960 . S
C81 C47 1.361 . S
C81 H78 0.961 . S
C81 H79 0.961 1_455 S
C81 H80 0.960 . S
C82 O58 1.253 . S
C82 O67 1.263 . S
C83 O65 1.278 . S
C83 O68 1.237 . S
H84 C48 0.930 . S
H85 C52 0.930 . S
Co86 N87 2.034 . S
Co86 O101 2.262 . S
Co86 O105 1.958 . S
Co86 O109 1.950 . S
Co86 O110 2.057 . S
N87 Co86 2.034 . S
N87 C88 1.366 . S
N87 C90 1.332 . S
C88 N87 1.366 . S
C88 C91 1.377 . S
C88 H120 0.931 . S
N89 C90 1.346 . S
N89 C91 1.337 . S
C90 N87 1.332 . S
C90 N89 1.346 . S
C90 C124 1.361 . S
C91 C88 1.377 . S
C91 N89 1.337 . S
C91 H127 0.930 . S
Co92 N93 2.034 . S
Co92 O106 1.950 . S
Co92 O107 2.262 . S
Co92 O108 1.958 . S
Co92 O112 2.057 . S
N93 Co92 2.034 . S
N93 C96 1.366 . S
N93 C97 1.332 . S
N94 C95 1.337 . S
N94 C97 1.346 . S
C95 N94 1.337 . S
C95 C96 1.377 . S
C95 H128 0.930 . S
C96 N93 1.366 . S
C96 C95 1.377 . S
C96 H100 0.931 . S
C97 N93 1.332 . S
C97 N94 1.346 . S
C97 C114 1.361 . S
Co98 O101 2.097 . S
Co98 O102 2.065 . S
Co98 O103 2.065 . S
Co98 O104 2.042 . S
Co98 O107 2.097 . S
Co98 O111 2.042 . S
C99 O107 1.253 . S
C99 O112 1.263 . S
H100 C96 0.931 . S
O101 Co86 2.262 . S
O101 Co98 2.097 . S
O101 C125 1.253 . S
O102 Co98 2.065 . S
O102 C118 1.221 . S
O103 Co98 2.065 . S
O103 C113 1.221 . S
O104 Co98 2.042 . S
O104 C119 1.237 . S
O105 Co86 1.958 . S
O105 C119 1.278 . S
O106 Co92 1.950 . S
O106 C118 1.277 . S
O107 Co92 2.262 . S
O107 Co98 2.097 . S
O107 C99 1.253 . S
O108 Co92 1.958 . S
O108 C126 1.278 . S
O109 Co86 1.950 . S
O109 C113 1.277 . S
O110 Co86 2.057 . S
O110 C125 1.263 . S
O111 Co98 2.042 . S
O111 C126 1.237 . S
O112 Co92 2.057 . S
O112 C99 1.263 . S
C113 O103 1.221 . S
C113 O109 1.277 . S
C114 C97 1.361 . S
C114 H115 0.960 . S
C114 H116 0.961 . S
C114 H117 0.961 . S
H115 C114 0.960 . S
H116 C114 0.961 . S
H117 C114 0.961 . S
C118 O102 1.221 . S
C118 O106 1.277 . S
C119 O104 1.237 . S
C119 O105 1.278 . S
H120 C88 0.931 . S
H121 C124 0.961 . S
H122 C124 0.961 . S
H123 C124 0.960 . S
C124 C90 1.361 . S
C124 H121 0.961 . S
C124 H122 0.961 . S
C124 H123 0.960 . S
C125 O101 1.253 . S
C125 O110 1.263 . S
C126 O108 1.278 . S
C126 O111 1.237 . S
H127 C91 0.930 . S
H128 C95 0.930 . S
Co129 N130 2.034 . S
Co129 O144 2.262 . S
Co129 O148 1.958 . S
Co129 O152 1.950 . S
Co129 O153 2.057 . S
N130 Co129 2.034 . S
N130 C131 1.366 . S
N130 C133 1.332 . S
C131 N130 1.366 . S
C131 C134 1.377 . S
C131 H163 0.931 . S
N132 C133 1.346 . S
N132 C134 1.337 . S
C133 N130 1.332 . S
C133 N132 1.346 . S
C133 C167 1.361 . S
C134 C131 1.377 . S
C134 N132 1.337 . S
C134 H170 0.930 . S
Co135 N136 2.034 . S
Co135 O149 1.950 . S
Co135 O150 2.262 . S
Co135 O151 1.958 . S
Co135 O155 2.057 . S
N136 Co135 2.034 . S
N136 C139 1.366 . S
N136 C140 1.332 . S
N137 C138 1.337 . S
N137 C140 1.346 . S
C138 N137 1.337 . S
C138 C139 1.377 . S
C138 H171 0.930 . S
C139 N136 1.366 . S
C139 C138 1.377 . S
C139 H143 0.931 . S
C140 N136 1.332 . S
C140 N137 1.346 . S
C140 C157 1.361 . S
Co141 O144 2.097 . S
Co141 O145 2.065 . S
Co141 O146 2.065 . S
Co141 O147 2.042 . S
Co141 O150 2.097 . S
Co141 O154 2.042 . S
C142 O150 1.253 . S
C142 O155 1.263 . S
H143 C139 0.931 . S
O144 Co129 2.262 . S
O144 Co141 2.097 . S
O144 C168 1.253 . S
O145 Co141 2.065 . S
O145 C161 1.221 . S
O146 Co141 2.065 . S
O146 C156 1.221 . S
O147 Co141 2.042 . S
O147 C162 1.237 . S
O148 Co129 1.958 . S
O148 C162 1.278 . S
O149 Co135 1.950 . S
O149 C161 1.277 . S
O150 Co135 2.262 . S
O150 Co141 2.097 . S
O150 C142 1.253 . S
O151 Co135 1.958 . S
O151 C169 1.278 . S
O152 Co129 1.950 . S
O152 C156 1.277 . S
O153 Co129 2.057 . S
O153 C168 1.263 . S
O154 Co141 2.042 . S
O154 C169 1.237 . S
O155 Co135 2.057 . S
O155 C142 1.263 . S
C156 O146 1.221 . S
C156 O152 1.277 . S
C157 C140 1.361 . S
C157 H158 0.960 . S
C157 H159 0.961 . S
C157 H160 0.961 . S
H158 C157 0.960 . S
H159 C157 0.961 . S
H160 C157 0.961 . S
C161 O145 1.221 . S
C161 O149 1.277 . S
C162 O147 1.237 . S
C162 O148 1.278 . S
H163 C131 0.931 . S
H164 C167 0.961 . S
H165 C167 0.961 . S
H166 C167 0.960 . S
C167 C133 1.361 . S
C167 H164 0.961 . S
C167 H165 0.961 . S
C167 H166 0.960 . S
C168 O144 1.253 . S
C168 O153 1.263 . S
C169 O151 1.278 . S
C169 O154 1.237 . S
H170 C134 0.930 . S
H171 C138 0.930 . S
C172 C173 1.349 . S
C172 C174 1.327 . S
C172 H197 0.950 . S
C173 C172 1.349 . S
C173 C189 1.349 . S
C174 C172 1.327 . S
C174 C193 1.429 . S
C174 H198 0.950 . S
C175 C192 1.574 . S
C175 C194 1.368 . S
C175 H199 0.949 . S
H176 C180 0.949 . S
C177 C178 1.349 . S
C177 C179 1.327 . S
C177 H200 0.950 . S
C178 C177 1.349 . S
C178 C190 1.349 . S
C179 C177 1.327 . S
C179 C195 1.429 . S
C179 H201 0.950 . S
C180 H176 0.949 . S
C180 C188 1.574 . S
C180 C196 1.368 . S
H181 C189 0.950 . S
H182 C187 0.950 . S
H183 C188 0.949 . S
H184 C190 0.950 . S
H185 C191 0.950 . S
H186 C192 0.949 . S
C187 H182 0.950 . S
C187 C189 1.327 . S
C187 C193 1.429 . S
C188 C180 1.574 . S
C188 H183 0.949 . S
C188 C194 1.368 . S
C189 C173 1.349 . S
C189 H181 0.950 . S
C189 C187 1.327 . S
C190 C178 1.349 . S
C190 H184 0.950 . S
C190 C191 1.327 . S
C191 H185 0.950 . S
C191 C190 1.327 . S
C191 C195 1.429 . S
C192 C175 1.574 . S
C192 H186 0.949 . S
C192 C196 1.368 . S
C193 C174 1.429 . S
C193 C187 1.429 . S
C193 C194 1.523 . S
C194 C175 1.368 . S
C194 C188 1.368 . S
C194 C193 1.523 . S
C195 C179 1.429 . S
C195 C191 1.429 . S
C195 C196 1.523 . S
C196 C180 1.368 . S
C196 C192 1.368 . S
C196 C195 1.523 . S
H197 C172 0.950 . S
H198 C174 0.950 . S
H199 C175 0.949 . S
H200 C177 0.950 . S
H201 C179 0.950 . S
C202 C203 1.349 . S
C202 C204 1.327 . S
C202 H227 0.950 . S
C203 C202 1.349 . S
C203 C219 1.349 . S
C204 C202 1.327 . S
C204 C223 1.429 . S
C204 H228 0.950 . S
C205 C222 1.574 . S
C205 C224 1.368 . S
C205 H229 0.949 . S
H206 C210 0.949 . S
C207 C208 1.349 . S
C207 C209 1.327 . S
C207 H230 0.950 . S
C208 C207 1.349 . S
C208 C220 1.349 . S
C209 C207 1.327 . S
C209 C225 1.429 . S
C209 H231 0.950 . S
C210 H206 0.949 . S
C210 C218 1.574 . S
C210 C226 1.368 . S
H211 C219 0.950 . S
H212 C217 0.950 . S
H213 C218 0.949 . S
H214 C220 0.950 1_455 S
H215 C221 0.950 . S
H216 C222 0.949 . S
C217 H212 0.950 . S
C217 C219 1.327 . S
C217 C223 1.429 . S
C218 C210 1.574 . S
C218 H213 0.949 . S
C218 C224 1.368 . S
C219 C203 1.349 . S
C219 H211 0.950 . S
C219 C217 1.327 . S
C220 C208 1.349 . S
C220 H214 0.950 1_655 S
C220 C221 1.327 . S
C221 H215 0.950 . S
C221 C220 1.327 . S
C221 C225 1.429 . S
C222 C205 1.574 . S
C222 H216 0.949 . S
C222 C226 1.368 . S
C223 C204 1.429 . S
C223 C217 1.429 . S
C223 C224 1.523 . S
C224 C205 1.368 . S
C224 C218 1.368 . S
C224 C223 1.523 . S
C225 C209 1.429 . S
C225 C221 1.429 . S
C225 C226 1.523 . S
C226 C210 1.368 . S
C226 C222 1.368 . S
C226 C225 1.523 . S
H227 C202 0.950 . S
H228 C204 0.950 . S
H229 C205 0.949 . S
H230 C207 0.950 . S
H231 C209 0.950 . S
C232 C233 1.349 . S
C232 C234 1.327 . S
C232 H257 0.950 . S
C233 C232 1.349 . S
C233 C249 1.349 . S
C234 C232 1.327 . S
C234 C253 1.429 . S
C234 H258 0.950 . S
C235 C252 1.574 . S
C235 C254 1.368 . S
C235 H259 0.949 . S
H236 C240 0.949 . S
C237 C238 1.349 . S
C237 C239 1.327 . S
C237 H260 0.950 . S
C238 C237 1.349 . S
C238 C250 1.349 . S
C239 C237 1.327 . S
C239 C255 1.429 . S
C239 H261 0.950 . S
C240 H236 0.949 . S
C240 C248 1.574 . S
C240 C256 1.368 . S
H241 C249 0.950 . S
H242 C247 0.950 . S
H243 C248 0.949 . S
H244 C250 0.950 . S
H245 C251 0.950 . S
H246 C252 0.910 1_554 S
C247 H242 0.950 . S
C247 C249 1.327 . S
C247 C253 1.429 . S
C248 C240 1.574 . S
C248 H243 0.949 . S
C248 C254 1.368 . S
C249 C233 1.349 . S
C249 H241 0.950 . S
C249 C247 1.327 . S
C250 C238 1.349 . S
C250 H244 0.950 . S
C250 C251 1.327 . S
C251 H245 0.950 . S
C251 C250 1.327 . S
C251 C255 1.429 . S
C252 C235 1.574 . S
C252 H246 0.910 1_556 S
C252 C256 1.368 . S
C253 C234 1.429 . S
C253 C247 1.429 . S
C253 C254 1.523 . S
C254 C235 1.368 . S
C254 C248 1.368 . S
C254 C253 1.523 . S
C255 C239 1.429 . S
C255 C251 1.429 . S
C255 C256 1.523 1_554 S
C256 C240 1.368 . S
C256 C252 1.368 . S
C256 C255 1.523 1_556 S
H257 C232 0.950 . S
H258 C234 0.950 . S
H259 C235 0.949 . S
H260 C237 0.950 . S
H261 C239 0.950 . S
C262 C263 1.349 . S
C262 C264 1.327 . S
C262 H287 0.950 . S
C263 C262 1.349 . S
C263 C279 1.349 . S
C264 C262 1.327 . S
C264 C283 1.429 . S
C264 H288 0.950 . S
C265 C282 1.574 . S
C265 C284 1.368 . S
C265 H289 0.949 . S
H266 C270 0.949 . S
C267 C268 1.349 . S
C267 C269 1.327 . S
C267 H290 0.950 . S
C268 C267 1.349 . S
C268 C280 1.349 . S
C269 C267 1.327 . S
C269 C285 1.429 . S
C269 H291 0.950 . S
C270 H266 0.949 . S
C270 C278 1.574 . S
C270 C286 1.368 . S
H271 C279 0.950 . S
H272 C277 0.950 . S
H273 C278 0.949 . S
H274 C280 0.950 . S
H275 C281 0.950 . S
H276 C282 0.949 . S
C277 H272 0.950 . S
C277 C279 1.327 . S
C277 C283 1.429 . S
C278 C270 1.574 . S
C278 H273 0.949 . S
C278 C284 1.368 . S
C279 C263 1.349 . S
C279 H271 0.950 . S
C279 C277 1.327 . S
C280 C268 1.349 . S
C280 H274 0.950 . S
C280 C281 1.327 . S
C281 H275 0.950 . S
C281 C280 1.327 . S
C281 C285 1.429 . S
C282 C265 1.574 . S
C282 H276 0.949 . S
C282 C286 1.368 . S
C283 C264 1.429 . S
C283 C277 1.429 . S
C283 C284 1.523 . S
C284 C265 1.368 . S
C284 C278 1.368 . S
C284 C283 1.523 . S
C285 C269 1.429 . S
C285 C281 1.429 . S
C285 C286 1.523 . S
C286 C270 1.368 . S
C286 C282 1.368 . S
C286 C285 1.523 . S
H287 C262 0.950 . S
H288 C264 0.950 . S
H289 C265 0.949 . S
H290 C267 0.950 . S
H291 C269 0.950 . S
C292 C293 1.349 . S
C292 C294 1.327 . S
C292 H317 0.950 . S
C293 C292 1.349 . S
C293 C309 1.349 . S
C294 C292 1.327 . S
C294 C313 1.429 . S
C294 H318 0.950 . S
C295 C312 1.574 . S
C295 C314 1.368 . S
C295 H319 0.949 . S
H296 C300 0.949 . S
C297 C298 1.349 . S
C297 C299 1.327 . S
C297 H320 0.950 . S
C298 C297 1.349 . S
C298 C310 1.349 . S
C299 C297 1.327 . S
C299 C315 1.429 . S
C299 H321 0.950 . S
C300 H296 0.949 . S
C300 C308 1.574 . S
C300 C316 1.368 . S
H301 C309 0.950 . S
H302 C307 0.950 . S
H303 C308 0.949 . S
H304 C310 0.950 . S
H305 C311 0.950 . S
H306 C312 0.949 . S
C307 H302 0.950 . S
C307 C309 1.327 . S
C307 C313 1.429 . S
C308 C300 1.574 . S
C308 H303 0.949 . S
C308 C314 1.368 . S
C309 C293 1.349 . S
C309 H301 0.950 . S
C309 C307 1.327 . S
C310 C298 1.349 . S
C310 H304 0.950 . S
C310 C311 1.327 . S
C311 H305 0.950 . S
C311 C310 1.327 . S
C311 C315 1.429 . S
C312 C295 1.574 . S
C312 H306 0.949 . S
C312 C316 1.368 . S
C313 C294 1.429 . S
C313 C307 1.429 . S
C313 C314 1.523 . S
C314 C295 1.368 . S
C314 C308 1.368 . S
C314 C313 1.523 . S
C315 C299 1.429 . S
C315 C311 1.429 . S
C315 C316 1.523 . S
C316 C300 1.368 . S
C316 C312 1.368 . S
C316 C315 1.523 . S
H317 C292 0.950 . S
H318 C294 0.950 . S
H319 C295 0.949 . S
H320 C297 0.950 . S
H321 C299 0.950 . S
C322 C323 1.349 . S
C322 C324 1.327 . S
C322 H347 0.950 . S
C323 C322 1.349 . S
C323 C339 1.349 . S
C324 C322 1.327 . S
C324 C343 1.429 . S
C324 H348 0.950 . S
C325 C342 1.574 . S
C325 C344 1.368 . S
C325 H349 0.949 . S
H326 C330 0.949 . S
C327 C328 1.349 . S
C327 C329 1.327 . S
C327 H350 0.950 . S
C328 C327 1.349 . S
C328 C340 1.349 . S
C329 C327 1.327 . S
C329 C345 1.429 . S
C329 H351 0.950 . S
C330 H326 0.949 . S
C330 C338 1.574 . S
C330 C346 1.368 . S
H331 C339 0.950 . S
H332 C337 0.950 . S
H333 C338 0.949 . S
H334 C340 0.950 . S
H335 C341 0.950 . S
H336 C342 0.949 . S
C337 H332 0.950 . S
C337 C339 1.327 . S
C337 C343 1.429 . S
C338 C330 1.574 . S
C338 H333 0.949 . S
C338 C344 1.368 . S
C339 C323 1.349 . S
C339 H331 0.950 . S
C339 C337 1.327 . S
C340 C328 1.349 . S
C340 H334 0.950 . S
C340 C341 1.327 . S
C341 H335 0.950 . S
C341 C340 1.327 . S
C341 C345 1.429 . S
C342 C325 1.574 . S
C342 H336 0.949 . S
C342 C346 1.368 . S
C343 C324 1.429 . S
C343 C337 1.429 . S
C343 C344 1.523 . S
C344 C325 1.368 . S
C344 C338 1.368 . S
C344 C343 1.523 . S
C345 C329 1.429 . S
C345 C341 1.429 . S
C345 C346 1.523 . S
C346 C330 1.368 . S
C346 C342 1.368 . S
C346 C345 1.523 . S
H347 C322 0.950 . S
H348 C324 0.950 . S
H349 C325 0.949 . S
H350 C327 0.950 . S
H351 C329 0.950 . S
C352 C353 1.349 1_545 S
C352 C354 1.327 . S
C352 H377 0.950 . S
C353 C352 1.349 1_565 S
C353 C369 1.349 . S
C354 C352 1.327 . S
C354 C373 1.429 . S
C354 H378 0.950 . S
C355 C372 1.574 . S
C355 C374 1.334 1_554 S
C355 H379 0.949 . S
H356 C360 0.949 . S
C357 C358 1.349 . S
C357 C359 1.327 . S
C357 H380 0.950 . S
C358 C357 1.349 . S
C358 C370 1.349 . S
C359 C357 1.327 . S
C359 C375 1.429 . S
C359 H381 0.950 . S
C360 H356 0.949 . S
C360 C368 1.574 1_554 S
C360 C376 1.368 . S
H361 C369 0.950 . S
H362 C367 0.950 . S
H363 C368 0.949 . S
H364 C370 0.950 . S
H365 C371 0.950 . S
H366 C372 0.949 . S
C367 H362 0.950 . S
C367 C369 1.327 . S
C367 C373 1.429 1_565 S
C368 C360 1.574 1_556 S
C368 H363 0.949 . S
C368 C374 1.375 . S
C369 C353 1.349 . S
C369 H361 0.950 . S
C369 C367 1.327 . S
C370 C358 1.349 . S
C370 H364 0.950 . S
C370 C371 1.327 . S
C371 H365 0.950 . S
C371 C370 1.327 . S
C371 C375 1.429 . S
C372 C355 1.574 . S
C372 H366 0.949 . S
C372 C376 1.368 . S
C373 C354 1.429 . S
C373 C367 1.429 1_545 S
C373 C374 1.559 . S
C374 C355 1.334 1_556 S
C374 C368 1.375 . S
C374 C373 1.559 . S
C375 C359 1.429 . S
C375 C371 1.429 . S
C375 C376 1.523 . S
C376 C360 1.368 . S
C376 C372 1.368 . S
C376 C375 1.523 . S
H377 C352 0.950 . S
H378 C354 0.950 . S
H379 C355 0.949 . S
H380 C357 0.950 . S
H381 C359 0.950 . S
C382 C383 1.349 . S
C382 C384 1.327 . S
C382 H407 0.950 . S
C383 C382 1.349 . S
C383 C399 1.349 . S
C384 C382 1.327 . S
C384 C403 1.429 . S
C384 H408 0.950 . S
C385 C402 1.574 . S
C385 C404 1.368 . S
C385 H409 0.949 . S
H386 C390 0.949 . S
C387 C388 1.349 . S
C387 C389 1.327 . S
C387 H410 0.950 . S
C388 C387 1.349 . S
C388 C400 1.349 . S
C389 C387 1.327 . S
C389 C405 1.429 . S
C389 H411 0.950 . S
C390 H386 0.949 . S
C390 C398 1.574 1_565 S
C390 C406 1.368 . S
H391 C399 0.950 . S
H392 C397 0.950 1_565 S
H393 C398 0.949 . S
H394 C400 0.950 . S
H395 C401 0.950 . S
H396 C402 0.949 . S
C397 H392 0.950 1_545 S
C397 C399 1.327 . S
C397 C403 1.429 . S
C398 C390 1.574 1_545 S
C398 H393 0.949 . S
C398 C404 1.368 1_545 S
C399 C383 1.349 . S
C399 H391 0.950 . S
C399 C397 1.327 . S
C400 C388 1.349 . S
C400 H394 0.950 . S
C400 C401 1.327 . S
C401 H395 0.950 . S
C401 C400 1.327 . S
C401 C405 1.429 . S
C402 C385 1.574 . S
C402 H396 0.949 . S
C402 C406 1.368 . S
C403 C384 1.429 . S
C403 C397 1.429 . S
C403 C404 1.523 1_545 S
C404 C385 1.368 . S
C404 C398 1.368 1_565 S
C404 C403 1.523 1_565 S
C405 C389 1.429 . S
C405 C401 1.429 . S
C405 C406 1.523 . S
C406 C390 1.368 . S
C406 C402 1.368 . S
C406 C405 1.523 . S
H407 C382 0.950 . S
H408 C384 0.950 . S
H409 C385 0.949 . S
H410 C387 0.950 . S
H411 C389 0.950 . S
C412 C413 1.349 1_655 S
C412 C414 1.327 . S
C412 H437 0.950 . S
C413 C412 1.349 1_455 S
C413 C429 1.349 . S
C414 C412 1.327 . S
C414 C433 1.429 1_645 S
C414 H438 0.950 1_545 S
C415 C432 1.574 . S
C415 C434 1.368 . S
C415 H439 0.949 . S
H416 C420 0.949 . S
C417 C418 1.349 . S
C417 C419 1.327 . S
C417 H440 0.950 . S
C418 C417 1.349 . S
C418 C430 1.349 . S
C419 C417 1.327 . S
C419 C435 1.429 . S
C419 H441 0.950 . S
C420 H416 0.949 . S
C420 C428 1.574 . S
C420 C436 1.368 1_655 S
H421 C429 0.950 . S
H422 C427 0.950 1_565 S
H423 C428 0.949 . S
H424 C430 0.950 1_655 S
H425 C431 0.950 1_655 S
H426 C432 0.949 . S
C427 H422 0.950 1_545 S
C427 C429 1.327 . S
C427 C433 1.429 1_545 S
C428 C420 1.574 . S
C428 H423 0.949 . S
C428 C434 1.368 1_655 S
C429 C413 1.349 . S
C429 H421 0.950 . S
C429 C427 1.327 . S
C430 C418 1.349 . S
C430 H424 0.950 1_455 S
C430 C431 1.327 . S
C431 H425 0.950 1_455 S
C431 C430 1.327 . S
C431 C435 1.429 . S
C432 C415 1.574 . S
C432 H426 0.949 . S
C432 C436 1.368 . S
C433 C414 1.429 1_465 S
C433 C427 1.429 1_565 S
C433 C434 1.523 . S
C434 C415 1.368 . S
C434 C428 1.368 1_455 S
C434 C433 1.523 . S
C435 C419 1.429 . S
C435 C431 1.429 . S
C435 C436 1.523 . S
C436 C420 1.368 1_455 S
C436 C432 1.368 . S
C436 C435 1.523 . S
H437 C412 0.950 . S
H438 C414 0.950 1_565 S
H439 C415 0.949 . S
H440 C417 0.950 . S
H441 C419 0.950 . S
C442 C443 1.349 . S
C442 C444 1.327 . S
C442 H467 0.950 . S
C443 C442 1.349 . S
C443 C459 1.349 . S
C444 C442 1.327 . S
C444 C463 1.429 . S
C444 H468 0.950 . S
C445 C462 1.574 . S
C445 C464 1.368 . S
C445 H469 0.949 . S
H446 C450 0.949 . S
C447 C448 1.349 . S
C447 C449 1.327 . S
C447 H470 0.950 . S
C448 C447 1.349 . S
C448 C460 1.349 . S
C449 C447 1.327 . S
C449 C465 1.429 . S
C449 H471 0.950 . S
C450 H446 0.949 . S
C450 C458 1.574 . S
C450 C466 1.368 . S
H451 C459 0.950 . S
H452 C457 0.950 . S
H453 C458 0.949 . S
H454 C460 0.950 . S
H455 C461 0.950 . S
H456 C462 0.949 . S
C457 H452 0.950 . S
C457 C459 1.327 . S
C457 C463 1.429 . S
C458 C450 1.574 . S
C458 H453 0.949 . S
C458 C464 1.368 . S
C459 C443 1.349 . S
C459 H451 0.950 . S
C459 C457 1.327 . S
C460 C448 1.349 . S
C460 H454 0.950 . S
C460 C461 1.327 . S
C461 H455 0.950 . S
C461 C460 1.327 . S
C461 C465 1.429 . S
C462 C445 1.574 . S
C462 H456 0.949 . S
C462 C466 1.368 . S
C463 C444 1.429 . S
C463 C457 1.429 . S
C463 C464 1.523 . S
C464 C445 1.368 . S
C464 C458 1.368 . S
C464 C463 1.523 . S
C465 C449 1.429 . S
C465 C461 1.429 . S
C465 C466 1.523 . S
C466 C450 1.368 . S
C466 C462 1.368 . S
C466 C465 1.523 . S
H467 C442 0.950 . S
H468 C444 0.950 . S
H469 C445 0.949 . S
H470 C447 0.950 . S
H471 C449 0.950 . S
C472 C473 1.349 . S
C472 C474 1.327 . S
C472 H497 0.950 . S
C473 C472 1.349 . S
C473 C489 1.349 . S
C474 C472 1.327 . S
C474 C493 1.429 . S
C474 H498 0.950 . S
C475 C492 1.574 . S
C475 C494 1.368 . S
C475 H499 0.949 . S
H476 C480 0.949 . S
C477 C478 1.349 . S
C477 C479 1.327 1_565 S
C477 H500 0.950 . S
C478 C477 1.349 . S
C478 C490 1.349 . S
C479 C477 1.327 1_545 S
C479 C495 1.429 . S
C479 H501 0.950 . S
C480 H476 0.949 . S
C480 C488 1.574 . S
C480 C496 1.368 . S
H481 C489 0.950 . S
H482 C487 0.950 . S
H483 C488 0.949 . S
H484 C490 0.950 . S
H485 C491 0.950 . S
H486 C492 0.949 . S
C487 H482 0.950 . S
C487 C489 1.327 . S
C487 C493 1.429 . S
C488 C480 1.574 . S
C488 H483 0.949 . S
C488 C494 1.368 . S
C489 C473 1.349 . S
C489 H481 0.950 . S
C489 C487 1.327 . S
C490 C478 1.349 . S
C490 H484 0.950 . S
C490 C491 1.327 1_565 S
C491 H485 0.950 . S
C491 C490 1.327 1_545 S
C491 C495 1.429 . S
C492 C475 1.574 . S
C492 H486 0.949 . S
C492 C496 1.368 . S
C493 C474 1.429 . S
C493 C487 1.429 . S
C493 C494 1.523 . S
C494 C475 1.368 . S
C494 C488 1.368 . S
C494 C493 1.523 . S
C495 C479 1.429 . S
C495 C491 1.429 . S
C495 C496 1.523 . S
C496 C480 1.368 . S
C496 C492 1.368 . S
C496 C495 1.523 . S
H497 C472 0.950 . S
H498 C474 0.950 . S
H499 C475 0.949 . S
H500 C477 0.950 . S
H501 C479 0.950 . S
C502 C503 1.349 . S
C502 C504 1.327 . S
C502 H527 0.950 . S
C503 C502 1.349 . S
C503 C519 1.349 . S
C504 C502 1.327 . S
C504 C523 1.429 . S
C504 H528 0.950 . S
C505 C522 1.574 . S
C505 C524 1.368 . S
C505 H529 0.949 . S
H506 C510 0.949 . S
C507 C508 1.349 . S
C507 C509 1.327 . S
C507 H530 0.950 . S
C508 C507 1.349 . S
C508 C520 1.349 . S
C509 C507 1.327 . S
C509 C525 1.429 . S
C509 H531 0.950 . S
C510 H506 0.949 . S
C510 C518 1.574 . S
C510 C526 1.368 . S
H511 C519 0.950 . S
H512 C517 0.950 . S
H513 C518 0.949 . S
H514 C520 0.950 . S
H515 C521 0.950 . S
H516 C522 0.949 . S
C517 H512 0.950 . S
C517 C519 1.327 . S
C517 C523 1.429 . S
C518 C510 1.574 . S
C518 H513 0.949 . S
C518 C524 1.368 . S
C519 C503 1.349 . S
C519 H511 0.950 . S
C519 C517 1.327 . S
C520 C508 1.349 . S
C520 H514 0.950 . S
C520 C521 1.327 . S
C521 H515 0.950 . S
C521 C520 1.327 . S
C521 C525 1.429 . S
C522 C505 1.574 . S
C522 H516 0.949 . S
C522 C526 1.368 . S
C523 C504 1.429 . S
C523 C517 1.429 . S
C523 C524 1.523 1_455 S
C524 C505 1.368 . S
C524 C518 1.368 . S
C524 C523 1.523 1_655 S
C525 C509 1.429 . S
C525 C521 1.429 . S
C525 C526 1.523 . S
C526 C510 1.368 . S
C526 C522 1.368 . S
C526 C525 1.523 . S
H527 C502 0.950 . S
H528 C504 0.950 . S
H529 C505 0.949 . S
H530 C507 0.950 . S
H531 C509 0.950 . S
C532 C533 1.349 . S
C532 C534 1.327 . S
C532 H557 0.950 . S
C533 C532 1.349 . S
C533 C549 1.349 . S
C534 C532 1.327 . S
C534 C553 1.429 . S
C534 H558 0.950 . S
C535 C552 1.574 . S
C535 C554 1.363 1_545 S
C535 H559 0.949 . S
H536 C540 0.949 . S
C537 C538 1.349 . S
C537 C539 1.327 . S
C537 H560 0.950 . S
C538 C537 1.349 . S
C538 C550 1.349 . S
C539 C537 1.327 . S
C539 C555 1.429 . S
C539 H561 0.950 . S
C540 H536 0.949 . S
C540 C548 1.574 . S
C540 C556 1.368 . S
H541 C549 0.950 . S
H542 C547 0.950 . S
H543 C548 0.949 1_565 S
H544 C550 0.950 . S
H545 C551 0.950 . S
H546 C552 0.949 . S
C547 H542 0.950 . S
C547 C549 1.327 . S
C547 C553 1.429 . S
C548 C540 1.574 . S
C548 H543 0.949 1_545 S
C548 C554 1.362 1_545 S
C549 C533 1.349 . S
C549 H541 0.950 . S
C549 C547 1.327 . S
C550 C538 1.349 . S
C550 H544 0.950 . S
C550 C551 1.327 . S
C551 H545 0.950 . S
C551 C550 1.327 . S
C551 C555 1.429 . S
C552 C535 1.574 . S
C552 H546 0.949 . S
C552 C556 1.368 . S
C553 C534 1.429 . S
C553 C547 1.429 . S
C553 C554 1.537 . S
C554 C535 1.363 1_565 S
C554 C548 1.362 1_565 S
C554 C553 1.537 . S
C555 C539 1.429 . S
C555 C551 1.429 . S
C555 C556 1.523 . S
C556 C540 1.368 . S
C556 C552 1.368 . S
C556 C555 1.523 . S
H557 C532 0.950 . S
H558 C534 0.950 . S
H559 C535 0.949 . S
H560 C537 0.950 . S
H561 C539 0.950 . S
C562 C563 1.349 . S
C562 C564 1.327 . S
C562 H587 0.950 . S
C563 C562 1.349 . S
C563 C579 1.349 . S
C564 C562 1.327 . S
C564 C583 1.429 . S
C564 H588 0.950 . S
C565 C582 1.574 . S
C565 C584 1.368 . S
C565 H589 0.949 . S
H566 C570 0.949 . S
C567 C568 1.349 . S
C567 C569 1.327 . S
C567 H590 0.950 . S
C568 C567 1.349 . S
C568 C580 1.349 . S
C569 C567 1.327 . S
C569 C585 1.429 . S
C569 H591 0.950 . S
C570 H566 0.949 . S
C570 C578 1.574 . S
C570 C586 1.368 . S
H571 C579 0.950 . S
H572 C577 0.950 . S
H573 C578 0.949 . S
H574 C580 0.950 . S
H575 C581 0.950 . S
H576 C582 0.949 . S
C577 H572 0.950 . S
C577 C579 1.327 . S
C577 C583 1.429 . S
C578 C570 1.574 . S
C578 H573 0.949 . S
C578 C584 1.368 . S
C579 C563 1.349 . S
C579 H571 0.950 . S
C579 C577 1.327 . S
C580 C568 1.349 . S
C580 H574 0.950 . S
C580 C581 1.327 . S
C581 H575 0.950 . S
C581 C580 1.327 . S
C581 C585 1.429 . S
C582 C565 1.574 . S
C582 H576 0.949 . S
C582 C586 1.368 . S
C583 C564 1.429 . S
C583 C577 1.429 . S
C583 C584 1.523 . S
C584 C565 1.368 . S
C584 C578 1.368 . S
C584 C583 1.523 . S
C585 C569 1.429 . S
C585 C581 1.429 . S
C585 C586 1.523 1_455 S
C586 C570 1.368 . S
C586 C582 1.368 . S
C586 C585 1.523 1_655 S
H587 C562 0.950 . S
H588 C564 0.950 . S
H589 C565 0.949 . S
H590 C567 0.950 . S
H591 C569 0.950 . S
C592 C593 1.349 . S
C592 C594 1.327 . S
C592 H617 0.950 . S
C593 C592 1.349 . S
C593 C609 1.349 . S
C594 C592 1.327 . S
C594 C613 1.429 . S
C594 H618 0.950 . S
C595 C612 1.574 . S
C595 C614 1.368 . S
C595 H619 0.949 . S
H596 C600 0.949 . S
C597 C598 1.349 . S
C597 C599 1.327 . S
C597 H620 0.950 . S
C598 C597 1.349 . S
C598 C610 1.349 . S
C599 C597 1.327 . S
C599 C615 1.429 . S
C599 H621 0.950 . S
C600 H596 0.949 . S
C600 C608 1.574 . S
C600 C616 1.368 . S
H601 C609 0.950 . S
H602 C607 0.950 . S
H603 C608 0.949 . S
H604 C610 0.950 . S
H605 C611 0.950 . S
H606 C612 0.949 . S
C607 H602 0.950 . S
C607 C609 1.327 . S
C607 C613 1.429 . S
C608 C600 1.574 . S
C608 H603 0.949 . S
C608 C614 1.368 . S
C609 C593 1.349 . S
C609 H601 0.950 . S
C609 C607 1.327 . S
C610 C598 1.349 . S
C610 H604 0.950 . S
C610 C611 1.327 . S
C611 H605 0.950 . S
C611 C610 1.327 . S
C611 C615 1.429 . S
C612 C595 1.574 . S
C612 H606 0.949 . S
C612 C616 1.368 . S
C613 C594 1.429 . S
C613 C607 1.429 . S
C613 C614 1.523 . S
C614 C595 1.368 . S
C614 C608 1.368 . S
C614 C613 1.523 . S
C615 C599 1.429 . S
C615 C611 1.429 . S
C615 C616 1.523 1_545 S
C616 C600 1.368 . S
C616 C612 1.368 . S
C616 C615 1.523 1_565 S
H617 C592 0.950 . S
H618 C594 0.950 . S
H619 C595 0.949 . S
H620 C597 0.950 . S
H621 C599 0.950 . S
C622 C623 1.349 . S
C622 C624 1.327 . S
C622 H647 0.950 . S
C623 C622 1.349 . S
C623 C639 1.349 . S
C624 C622 1.327 . S
C624 C643 1.429 . S
C624 H648 0.950 . S
C625 C642 1.574 . S
C625 C644 1.368 . S
C625 H649 0.949 . S
H626 C630 0.949 . S
C627 C628 1.349 . S
C627 C629 1.327 . S
C627 H650 0.950 . S
C628 C627 1.349 . S
C628 C640 1.349 . S
C629 C627 1.327 . S
C629 C645 1.429 . S
C629 H651 0.950 . S
C630 H626 0.949 . S
C630 C638 1.574 . S
C630 C646 1.368 . S
H631 C639 0.950 . S
H632 C637 0.950 . S
H633 C638 0.949 . S
H634 C640 0.950 . S
H635 C641 0.950 . S
H636 C642 0.949 . S
C637 H632 0.950 . S
C637 C639 1.327 . S
C637 C643 1.429 . S
C638 C630 1.574 . S
C638 H633 0.949 . S
C638 C644 1.368 . S
C639 C623 1.349 . S
C639 H631 0.950 . S
C639 C637 1.327 . S
C640 C628 1.349 . S
C640 H634 0.950 . S
C640 C641 1.327 . S
C641 H635 0.950 . S
C641 C640 1.327 . S
C641 C645 1.429 . S
C642 C625 1.574 . S
C642 H636 0.949 . S
C642 C646 1.368 . S
C643 C624 1.429 . S
C643 C637 1.429 . S
C643 C644 1.523 . S
C644 C625 1.368 . S
C644 C638 1.368 . S
C644 C643 1.523 . S
C645 C629 1.429 . S
C645 C641 1.429 . S
C645 C646 1.523 . S
C646 C630 1.368 . S
C646 C642 1.368 . S
C646 C645 1.523 . S
H647 C622 0.950 . S
H648 C624 0.950 . S
H649 C625 0.949 . S
H650 C627 0.950 . S
H651 C629 0.950 . S
C173 C39 1.681 . S
C178 C56 1.685 . S
C203 N94 1.578 . S
C208 N46 1.572 1_655 S
C233 C125 1.361 . S
C238 N137 1.583 . S
C263 N8 1.761 . S
C268 C168 1.524 . S
C293 N132 1.583 . S
C298 C13 1.361 . S
C323 C82 1.685 . S
C328 C99 1.681 . S
C353 N89 1.761 . S
C358 C142 1.524 . S
C383 N3 1.578 . S
C388 N51 1.572 . S
C413 C27 1.279 . S
C418 C40 1.282 . S
C443 C83 1.293 . S
C448 C70 1.290 1_655 S
C473 C126 1.414 . S
C478 C113 1.404 . S
C503 C156 1.330 . S
C508 C169 1.338 . S
C533 C75 1.290 . S
C538 C76 1.293 . S
C563 C118 1.279 . S
C568 C119 1.282 . S
C593 C161 1.330 . S
C598 C162 1.338 . S
C623 C32 1.404 . S
C628 C33 1.414 . S
