# Generated by pormake.
# Topology pcl, (4)-cn, num edge types: 1
# Building blocks:
#     Node 0, Type 0, BuildingBlock: QUQFOY_clean_sbu_1, # of connection points: 4
#     Node 1, Type 0, BuildingBlock: QUQFOY_clean_sbu_1, # of connection points: 4
#     Node 2, Type 0, BuildingBlock: QUQFOY_clean_sbu_1, # of connection points: 4
#     Node 3, Type 0, BuildingBlock: QUQFOY_clean_sbu_1, # of connection points: 4
#     Node 4, Type 0, BuildingBlock: QUQFOY_clean_sbu_1, # of connection points: 4
#     Node 5, Type 0, BuildingBlock: QUQFOY_clean_sbu_1, # of connection points: 4
#     Node 6, Type 0, BuildingBlock: QUQFOY_clean_sbu_1, # of connection points: 4
#     Node 7, Type 0, BuildingBlock: QUQFOY_clean_sbu_1, # of connection points: 4
#     Node 8, Type 0, BuildingBlock: QUQFOY_clean_sbu_1, # of connection points: 4
#     Node 9, Type 0, BuildingBlock: QUQFOY_clean_sbu_1, # of connection points: 4
#     Node 10, Type 0, BuildingBlock: QUQFOY_clean_sbu_1, # of connection points: 4
#     Node 11, Type 0, BuildingBlock: QUQFOY_clean_sbu_1, # of connection points: 4
#     Node 12, Type 0, BuildingBlock: QUQFOY_clean_sbu_1, # of connection points: 4
#     Node 13, Type 0, BuildingBlock: QUQFOY_clean_sbu_1, # of connection points: 4
#     Node 14, Type 0, BuildingBlock: QUQFOY_clean_sbu_1, # of connection points: 4
#     Node 15, Type 0, BuildingBlock: QUQFOY_clean_sbu_1, # of connection points: 4
#     Edge 16, Type (0, 0), BuildingBlock: AJUNOK_clean_linker_0, # of connection points: 2
#     Edge 17, Type (0, 0), BuildingBlock: AJUNOK_clean_linker_0, # of connection points: 2
#     Edge 18, Type (0, 0), BuildingBlock: AJUNOK_clean_linker_0, # of connection points: 2
#     Edge 19, Type (0, 0), BuildingBlock: AJUNOK_clean_linker_0, # of connection points: 2
#     Edge 20, Type (0, 0), BuildingBlock: AJUNOK_clean_linker_0, # of connection points: 2
#     Edge 21, Type (0, 0), BuildingBlock: AJUNOK_clean_linker_0, # of connection points: 2
#     Edge 22, Type (0, 0), BuildingBlock: AJUNOK_clean_linker_0, # of connection points: 2
#     Edge 23, Type (0, 0), BuildingBlock: AJUNOK_clean_linker_0, # of connection points: 2
#     Edge 24, Type (0, 0), BuildingBlock: AJUNOK_clean_linker_0, # of connection points: 2
#     Edge 25, Type (0, 0), BuildingBlock: AJUNOK_clean_linker_0, # of connection points: 2
#     Edge 26, Type (0, 0), BuildingBlock: AJUNOK_clean_linker_0, # of connection points: 2
#     Edge 27, Type (0, 0), BuildingBlock: AJUNOK_clean_linker_0, # of connection points: 2
#     Edge 28, Type (0, 0), BuildingBlock: AJUNOK_clean_linker_0, # of connection points: 2
#     Edge 29, Type (0, 0), BuildingBlock: AJUNOK_clean_linker_0, # of connection points: 2
#     Edge 30, Type (0, 0), BuildingBlock: AJUNOK_clean_linker_0, # of connection points: 2
#     Edge 31, Type (0, 0), BuildingBlock: AJUNOK_clean_linker_0, # of connection points: 2
#     Edge 32, Type (0, 0), BuildingBlock: AJUNOK_clean_linker_0, # of connection points: 2
#     Edge 33, Type (0, 0), BuildingBlock: AJUNOK_clean_linker_0, # of connection points: 2
#     Edge 34, Type (0, 0), BuildingBlock: AJUNOK_clean_linker_0, # of connection points: 2
#     Edge 35, Type (0, 0), BuildingBlock: AJUNOK_clean_linker_0, # of connection points: 2
#     Edge 36, Type (0, 0), BuildingBlock: AJUNOK_clean_linker_0, # of connection points: 2
#     Edge 37, Type (0, 0), BuildingBlock: AJUNOK_clean_linker_0, # of connection points: 2
#     Edge 38, Type (0, 0), BuildingBlock: AJUNOK_clean_linker_0, # of connection points: 2
#     Edge 39, Type (0, 0), BuildingBlock: AJUNOK_clean_linker_0, # of connection points: 2
#     Edge 40, Type (0, 0), BuildingBlock: AJUNOK_clean_linker_0, # of connection points: 2
#     Edge 41, Type (0, 0), BuildingBlock: AJUNOK_clean_linker_0, # of connection points: 2
#     Edge 42, Type (0, 0), BuildingBlock: AJUNOK_clean_linker_0, # of connection points: 2
#     Edge 43, Type (0, 0), BuildingBlock: AJUNOK_clean_linker_0, # of connection points: 2
#     Edge 44, Type (0, 0), BuildingBlock: AJUNOK_clean_linker_0, # of connection points: 2
#     Edge 45, Type (0, 0), BuildingBlock: AJUNOK_clean_linker_0, # of connection points: 2
#     Edge 46, Type (0, 0), BuildingBlock: AJUNOK_clean_linker_0, # of connection points: 2
#     Edge 47, Type (0, 0), BuildingBlock: AJUNOK_clean_linker_0, # of connection points: 2
# Relax obj value: 0.097
# Max RMSD: 0.133
# Mean RMSD: 0.118
data_MOF--net-pcl--node1-QUQFOY_clean_sbu_1--edge1-AJUNOK_clean_linker_0
_symmetry_space_group_name_H-M    P1
_symmetry_Int_Tables_number       1
_symmetry_cell_setting            triclinic
loop_
_symmetry_equiv_pos_as_xyz
'x, y, z'
_cell_length_a     38.711212
_cell_length_b     33.789523
_cell_length_c     34.461075
_cell_angle_alpha  90.235239
_cell_angle_beta   90.007391
_cell_angle_gamma 89.716537
loop_
_atom_site_label
_atom_site_type_symbol
_atom_site_fract_x
_atom_site_fract_y
_atom_site_fract_z
_atom_type_partial_charge
O0 O 0.17844 0.31959 0.16596 0.0
Cd1 Cd 0.16929 0.30987 0.1074 0.0
Cd2 Cd 0.1633 0.38789 0.106 0.0
O3 O 0.18429 0.38396 0.16067 0.0
O4 O 0.1946 0.26043 0.09383 0.0
O5 O 0.20804 0.3191 0.06964 0.0
C6 C 0.21486 0.28176 0.07285 0.0
C7 C 0.18048 0.44007 0.06613 0.0
C8 C 0.18564 0.35288 0.18118 0.0
C9 C 0.09888 0.33862 0.09208 0.0
O10 O 0.1121 0.37203 0.10021 0.0
O11 O 0.11799 0.30796 0.08977 0.0
O12 O 0.16245 0.44611 0.09697 0.0
O13 O 0.18958 0.40416 0.05809 0.0
O14 O 0.86262 0.6865 0.66196 0.0
Cd15 Cd 0.87178 0.69833 0.60443 0.0
Cd16 Cd 0.88575 0.62 0.59963 0.0
O17 O 0.86973 0.62208 0.65692 0.0
O18 O 0.84413 0.7465 0.59332 0.0
O19 O 0.83412 0.68843 0.56535 0.0
C20 C 0.82533 0.72501 0.57068 0.0
C21 C 0.86925 0.56532 0.56241 0.0
C22 C 0.86242 0.65244 0.67729 0.0
C23 C 0.94369 0.67798 0.58278 0.0
O24 O 0.93391 0.64229 0.58592 0.0
O25 O 0.92274 0.70647 0.58858 0.0
O26 O 0.89106 0.56205 0.5904 0.0
O27 O 0.85607 0.5998 0.55572 0.0
O28 O 0.17419 0.68807 0.85632 0.0
Cd29 Cd 0.16521 0.69781 0.91479 0.0
Cd30 Cd 0.16088 0.61994 0.91632 0.0
O31 O 0.18075 0.62359 0.86115 0.0
O32 O 0.18998 0.74722 0.92858 0.0
O33 O 0.2037 0.68842 0.95274 0.0
C34 C 0.21007 0.72582 0.94995 0.0
C35 C 0.17924 0.56911 0.95743 0.0
C36 C 0.18143 0.65487 0.84084 0.0
C37 C 0.09555 0.66837 0.93016 0.0
O38 O 0.1095 0.6351 0.92243 0.0
O39 O 0.11396 0.69937 0.93219 0.0
O40 O 0.16126 0.56195 0.92681 0.0
O41 O 0.18805 0.6053 0.96414 0.0
O42 O 0.8638 0.31338 0.35606 0.0
Cd43 Cd 0.87369 0.30395 0.41436 0.0
Cd44 Cd 0.88233 0.38093 0.41455 0.0
O45 O 0.8588 0.37796 0.36125 0.0
O46 O 0.84804 0.2553 0.42796 0.0
O47 O 0.83612 0.31428 0.45334 0.0
C48 C 0.82885 0.27712 0.4501 0.0
C49 C 0.86779 0.43261 0.45682 0.0
C50 C 0.85662 0.34664 0.34094 0.0
C51 C 0.94522 0.32855 0.42533 0.0
O52 O 0.93322 0.36243 0.41652 0.0
O53 O 0.92507 0.29947 0.43045 0.0
O54 O 0.88449 0.43889 0.42516 0.0
O55 O 0.85844 0.39681 0.46425 0.0
O56 O 0.87175 0.61 0.99946 0.0
Cd57 Cd 0.87825 0.66743 0.98054 0.0
Cd58 Cd 0.8782 0.63214 0.91023 0.0
O59 O 0.85804 0.58635 0.94193 0.0
O60 O 0.85776 0.70399 0.01979 0.0
O61 O 0.8352 0.6941 0.96129 0.0
C62 C 0.83326 0.71056 0.99517 0.0
C63 C 0.86198 0.63656 0.84475 0.0
C64 C 0.86112 0.58163 0.9783 0.0
C65 C 0.94531 0.66697 0.94132 0.0
O66 O 0.92989 0.64387 0.91795 0.0
O67 O 0.92839 0.68445 0.96799 0.0
O68 O 0.87988 0.60739 0.85778 0.0
O69 O 0.85186 0.66303 0.8694 0.0
O70 O 0.16228 0.38879 0.50322 0.0
Cd71 Cd 0.15848 0.33151 0.48293 0.0
Cd72 Cd 0.16214 0.36562 0.41256 0.0
O73 O 0.17881 0.41204 0.44669 0.0
O74 O 0.18052 0.29485 0.52065 0.0
O75 O 0.20269 0.30853 0.46275 0.0
C76 C 0.20547 0.29111 0.49598 0.0
C77 C 0.18243 0.36363 0.34838 0.0
C78 C 0.17363 0.41712 0.48277 0.0
C79 C 0.09434 0.32787 0.43814 0.0
O80 O 0.11062 0.35091 0.41567 0.0
O81 O 0.10974 0.31258 0.46704 0.0
O82 O 0.16297 0.39177 0.36095 0.0
O83 O 0.19152 0.33651 0.37262 0.0
O84 O 0.87342 0.3964 0.02327 0.0
Cd85 Cd 0.88162 0.33825 0.03888 0.0
Cd86 Cd 0.88058 0.37164 0.11056 0.0
O87 O 0.86107 0.4197 0.08134 0.0
O88 O 0.86402 0.30859 0.99317 0.0
O89 O 0.83969 0.30549 0.05128 0.0
C90 C 0.83896 0.29663 0.01475 0.0
C91 C 0.86175 0.36354 0.17461 0.0
C92 C 0.86316 0.42456 0.04495 0.0
C93 C 0.94862 0.33817 0.07875 0.0
O94 O 0.93247 0.35964 0.1032 0.0
O95 O 0.93238 0.3221 0.05077 0.0
O96 O 0.88034 0.39308 0.16426 0.0
O97 O 0.85291 0.33837 0.1482 0.0
O98 O 0.16864 0.60514 0.52292 0.0
Cd99 Cd 0.16054 0.66393 0.53498 0.0
Cd100 Cd 0.15223 0.63468 0.60999 0.0
O101 O 0.16564 0.58225 0.58251 0.0
O102 O 0.18043 0.68995 0.48861 0.0
O103 O 0.20174 0.69797 0.54773 0.0
C104 C 0.20412 0.70419 0.51085 0.0
C105 C 0.17077 0.64075 0.67435 0.0
C106 C 0.17051 0.57648 0.54648 0.0
C107 C 0.0913 0.67603 0.57058 0.0
O108 O 0.10368 0.65825 0.59993 0.0
O109 O 0.10969 0.68207 0.54064 0.0
O110 O 0.14773 0.61553 0.66411 0.0
O111 O 0.18399 0.66284 0.64779 0.0
O112 O 0.67598 0.81085 0.16163 0.0
Cd113 Cd 0.66614 0.80099 0.10362 0.0
Cd114 Cd 0.65755 0.88027 0.09787 0.0
O115 O 0.67277 0.8756 0.15533 0.0
O116 O 0.69268 0.75465 0.08326 0.0
O117 O 0.70353 0.81686 0.06681 0.0
C118 C 0.71123 0.77968 0.06425 0.0
C119 C 0.67735 0.93467 0.06248 0.0
C120 C 0.67802 0.84531 0.17638 0.0
C121 C 0.59597 0.82786 0.08024 0.0
O122 O 0.6082 0.8626 0.08287 0.0
O123 O 0.6148 0.79783 0.08727 0.0
O124 O 0.65571 0.93881 0.09055 0.0
O125 O 0.68861 0.89949 0.05481 0.0
O126 O 0.36329 0.1935 0.66168 0.0
Cd127 Cd 0.37332 0.20258 0.60372 0.0
Cd128 Cd 0.38431 0.12385 0.59991 0.0
O129 O 0.3684 0.12864 0.65723 0.0
O130 O 0.34721 0.24926 0.58382 0.0
O131 O 0.3361 0.18732 0.56625 0.0
C132 C 0.32881 0.22459 0.56402 0.0
C133 C 0.36488 0.07117 0.56148 0.0
C134 C 0.36225 0.15956 0.67739 0.0
C135 C 0.44477 0.1776 0.58322 0.0
O136 O 0.43368 0.14245 0.5865 0.0
O137 O 0.42476 0.20705 0.58842 0.0
O138 O 0.38584 0.06554 0.58996 0.0
O139 O 0.35371 0.10669 0.55563 0.0
O140 O 0.67773 0.18582 0.85553 0.0
Cd141 Cd 0.6699 0.19776 0.9139 0.0
Cd142 Cd 0.66475 0.11978 0.91854 0.0
O143 O 0.68404 0.12163 0.86298 0.0
O144 O 0.69553 0.24717 0.92574 0.0
O145 O 0.70904 0.189 0.95136 0.0
C146 C 0.71588 0.22615 0.94716 0.0
C147 C 0.68159 0.06763 0.959 0.0
C148 C 0.6844 0.15189 0.84125 0.0
C149 C 0.6001 0.16994 0.93164 0.0
O150 O 0.61368 0.13623 0.92504 0.0
O151 O 0.61884 0.20074 0.93213 0.0
O152 O 0.66334 0.06171 0.92836 0.0
O153 O 0.69151 0.10331 0.96628 0.0
O154 O 0.3629 0.81894 0.35377 0.0
Cd155 Cd 0.37088 0.80894 0.41231 0.0
Cd156 Cd 0.37684 0.88707 0.41428 0.0
O157 O 0.35701 0.88351 0.35898 0.0
O158 O 0.34694 0.75857 0.42385 0.0
O159 O 0.33137 0.81621 0.4496 0.0
C160 C 0.32582 0.77875 0.44521 0.0
C161 C 0.36024 0.93994 0.45439 0.0
C162 C 0.35624 0.85223 0.33841 0.0
C163 C 0.44099 0.83686 0.42824 0.0
O164 O 0.42786 0.87042 0.42024 0.0
O165 O 0.42187 0.80648 0.43044 0.0
O166 O 0.37819 0.94534 0.42347 0.0
O167 O 0.35069 0.90433 0.46233 0.0
O168 O 0.37693 0.1136 0.99813 0.0
Cd169 Cd 0.3829 0.1718 0.98173 0.0
Cd170 Cd 0.38239 0.13727 0.91031 0.0
O171 O 0.36215 0.0905 0.94083 0.0
O172 O 0.3645 0.20155 0.02708 0.0
O173 O 0.33995 0.20315 0.969 0.0
C174 C 0.33906 0.21254 1.0054 0.0
C175 C 0.36592 0.14348 0.84493 0.0
C176 C 0.36591 0.08544 0.97707 0.0
C177 C 0.44976 0.17161 0.9428 0.0
O178 O 0.43411 0.149 0.91909 0.0
O179 O 0.43306 0.18908 0.96969 0.0
O180 O 0.38404 0.11408 0.8571 0.0
O181 O 0.35596 0.16934 0.87027 0.0
O182 O 0.66312 0.89163 0.49724 0.0
Cd183 Cd 0.65731 0.83364 0.47995 0.0
Cd184 Cd 0.659 0.86791 0.40891 0.0
O185 O 0.67898 0.91449 0.44042 0.0
O186 O 0.67498 0.8034 0.525 0.0
O187 O 0.70033 0.80245 0.46733 0.0
C188 C 0.70071 0.79264 0.50356 0.0
C189 C 0.6761 0.86273 0.34365 0.0
C190 C 0.67461 0.91967 0.4766 0.0
C191 C 0.59112 0.83383 0.43987 0.0
O192 O 0.60717 0.85626 0.41653 0.0
O193 O 0.60741 0.81654 0.46703 0.0
O194 O 0.65806 0.89205 0.35632 0.0
O195 O 0.68543 0.83611 0.36831 0.0
O196 O 0.3688 0.89819 0.02013 0.0
Cd197 Cd 0.37757 0.84009 0.03405 0.0
Cd198 Cd 0.38684 0.8718 0.10737 0.0
O199 O 0.37196 0.92308 0.07908 0.0
O200 O 0.35624 0.81178 0.98962 0.0
O201 O 0.33722 0.80628 0.04998 0.0
C202 C 0.33362 0.79819 0.01351 0.0
C203 C 0.36849 0.86588 0.17185 0.0
C204 C 0.36678 0.92761 0.04296 0.0
C205 C 0.44791 0.83125 0.06748 0.0
O206 O 0.43595 0.84986 0.0967 0.0
O207 O 0.4288 0.82314 0.03854 0.0
O208 O 0.39089 0.89175 0.1615 0.0
O209 O 0.35586 0.84307 0.14533 0.0
O210 O 0.6706 0.10671 0.52175 0.0
Cd211 Cd 0.66211 0.16467 0.53658 0.0
Cd212 Cd 0.65439 0.13271 0.61013 0.0
O213 O 0.66887 0.08172 0.58055 0.0
O214 O 0.6825 0.19319 0.49203 0.0
O215 O 0.70282 0.19821 0.55196 0.0
C216 C 0.70565 0.20653 0.51552 0.0
C217 C 0.67313 0.13689 0.67465 0.0
C218 C 0.67328 0.07729 0.54425 0.0
C219 C 0.59276 0.17407 0.57207 0.0
O220 O 0.60533 0.15537 0.60077 0.0
O221 O 0.61114 0.18185 0.54255 0.0
O222 O 0.65051 0.11149 0.66364 0.0
O223 O 0.68559 0.16046 0.64887 0.0
C224 C 0.04021 0.36445 0.10726 0.0
C225 C 0.06075 0.33605 0.08813 0.0
C226 C 1.00424 0.36402 0.10447 0.0
C227 C 0.9869 0.33551 0.08191 0.0
H228 H 0.05198 0.38733 0.1249 0.0
H229 H 0.98998 0.38694 0.11974 0.0
S230 S 0.02859 0.25416 0.02604 0.0
N231 N 0.06122 0.27798 0.04621 0.0
N232 N 0.99319 0.27763 0.04021 0.0
C233 C 1.00703 0.30669 0.06259 0.0
C234 C 0.04398 0.30678 0.06597 0.0
C235 C 0.99716 0.66924 0.54339 0.0
C236 C 0.98061 0.68561 0.57605 0.0
C237 C 0.03331 0.66951 0.54012 0.0
C238 C 0.05398 0.68491 0.5701 0.0
H239 H 0.98212 0.65477 0.52097 0.0
H240 H 0.04519 0.65504 0.51534 0.0
S241 S 0.023 0.73281 0.66062 0.0
N242 N 0.98731 0.71992 0.6376 0.0
N243 N 0.05534 0.71869 0.6324 0.0
C244 C 0.03765 0.70269 0.60215 0.0
C245 C 1.00088 0.70349 0.6049 0.0
C246 C 1.00167 0.6409 0.91752 0.0
C247 C 0.98353 0.67005 0.93865 0.0
C248 C 0.03765 0.6409 0.91533 0.0
C249 C 0.05738 0.67035 0.93369 0.0
H250 H 0.98806 0.6172 0.9029 0.0
H251 H 0.05007 0.61754 0.89873 0.0
S252 S 0.02287 0.75421 0.99199 0.0
N253 N 0.98813 0.72966 0.97817 0.0
N254 N 0.05621 0.73006 0.97332 0.0
C255 C 0.03978 0.70023 0.95444 0.0
C256 C 1.00281 0.69992 0.95718 0.0
C257 C 0.03579 0.30622 0.46179 0.0
C258 C 0.05659 0.32235 0.43223 0.0
C259 C 0.99952 0.30639 0.45883 0.0
C260 C 0.983 0.32312 0.42646 0.0
H261 H 0.04746 0.29485 0.48807 0.0
H262 H 0.98434 0.29515 0.48274 0.0
S263 S 0.02508 0.36321 0.33855 0.0
N264 N 0.05743 0.35077 0.36728 0.0
N265 N 0.98963 0.35198 0.36261 0.0
C266 C 1.00336 0.33715 0.39588 0.0
C267 C 0.04007 0.33649 0.39851 0.0
C268 C 0.50195 0.80177 0.0946 0.0
C269 C 0.48542 0.82407 0.06562 0.0
C270 C 0.53815 0.80069 0.09737 0.0
C271 C 0.55879 0.8231 0.07213 0.0
H272 H 0.48676 0.78617 0.116 0.0
H273 H 0.54994 0.78426 0.12088 0.0
S274 S 0.52793 0.88519 0.99067 0.0
N275 N 0.49227 0.86724 0.01005 0.0
N276 N 0.56021 0.8668 0.01639 0.0
C277 C 0.54255 0.84455 0.0424 0.0
C278 C 0.50584 0.84463 0.03885 0.0
C279 C 0.53477 0.16666 0.54184 0.0
C280 C 0.55537 0.18237 0.57173 0.0
C281 C 0.4986 0.16669 0.54486 0.0
C282 C 0.482 0.18367 0.57719 0.0
H283 H 0.54672 0.15198 0.51722 0.0
H284 H 0.48357 0.15228 0.52241 0.0
S285 S 0.52426 0.23134 0.66161 0.0
N286 N 0.55666 0.21663 0.63376 0.0
N287 N 0.4886 0.21851 0.63848 0.0
C288 C 0.50224 0.20157 0.60607 0.0
C289 C 0.53901 0.20044 0.60358 0.0
C290 C 0.54185 0.14173 0.91993 0.0
C291 C 0.56193 0.1725 0.93556 0.0
C292 C 0.50587 0.14243 0.9221 0.0
C293 C 0.48804 0.17366 0.94051 0.0
H294 H 0.55397 0.11679 0.90539 0.0
H295 H 0.49197 0.11772 0.90959 0.0
S296 S 0.52818 0.2617 0.98638 0.0
N297 N 0.5613 0.23554 0.96992 0.0
N298 N 0.4932 0.23642 0.97478 0.0
C299 C 0.50762 0.20471 0.95653 0.0
C300 C 0.54461 0.20429 0.95377 0.0
C301 C 0.49954 0.86156 0.41239 0.0
C302 C 0.47907 0.83365 0.43173 0.0
C303 C 0.53551 0.86041 0.41462 0.0
C304 C 0.55288 0.83162 0.43679 0.0
H305 H 0.48771 0.88461 0.39503 0.0
H306 H 0.54972 0.88302 0.39926 0.0
S307 S 0.51133 0.75122 0.49283 0.0
N308 N 0.47864 0.77567 0.47329 0.0
N309 N 0.54671 0.77392 0.47824 0.0
C310 C 0.53282 0.8032 0.45621 0.0
C311 C 0.49586 0.80406 0.45343 0.0
C312 C 0.1922 0.32177 0.24694 0.0
C313 C 0.1917 0.35608 0.22375 0.0
C314 C 0.19194 0.32428 0.28765 0.0
C315 C 0.19076 0.36118 0.30658 0.0
H316 H 0.19124 0.29269 0.23365 0.0
H317 H 0.1904 0.29719 0.30425 0.0
S318 S 0.1946 0.45981 0.26004 0.0
N319 N 0.19441 0.42817 0.22343 0.0
N320 N 0.19326 0.43258 0.29964 0.0
C321 C 0.19273 0.39558 0.28397 0.0
C322 C 0.19341 0.39312 0.24264 0.0
C323 C 0.86398 0.61173 0.73764 0.0
C324 C 0.85682 0.64821 0.71975 0.0
C325 C 0.86376 0.60794 0.77804 0.0
C326 C 0.85616 0.64036 0.8024 0.0
H327 H 0.87126 0.58609 0.72047 0.0
H328 H 0.87081 0.57953 0.79026 0.0
S329 S 0.83121 0.74122 0.77028 0.0
N330 N 0.83858 0.71664 0.72958 0.0
N331 N 0.83814 0.70935 0.80565 0.0
C332 C 0.84675 0.67641 0.78499 0.0
C333 C 0.84713 0.68038 0.74367 0.0
C334 C 0.17998 0.6146 0.78012 0.0
C335 C 0.18551 0.6515 0.79813 0.0
C336 C 0.177 0.61129 0.73982 0.0
C337 C 0.1801 0.64454 0.71575 0.0
H338 H 0.17593 0.58825 0.7973 0.0
H339 H 0.17103 0.58256 0.72751 0.0
S340 S 0.19921 0.74702 0.74763 0.0
N341 N 0.19719 0.7215 0.78834 0.0
N342 N 0.19222 0.71492 0.71224 0.0
C343 C 0.18817 0.68112 0.73293 0.0
C344 C 0.19068 0.68469 0.77421 0.0
C345 C 0.85386 0.39154 0.24074 0.0
C346 C 0.85325 0.35832 0.21609 0.0
C347 C 0.85237 0.38751 0.28104 0.0
C348 C 0.8507 0.34997 0.29849 0.0
H349 H 0.85691 0.42097 0.22888 0.0
H350 H 0.8545 0.41407 0.29856 0.0
S351 S 0.84372 0.2538 0.2465 0.0
N352 N 0.84706 0.2869 0.21158 0.0
N353 N 0.84463 0.27905 0.28763 0.0
C354 C 0.8476 0.31659 0.27406 0.0
C355 C 0.84875 0.32082 0.23279 0.0
C356 C 0.68471 0.82119 0.28402 0.0
C357 C 0.68302 0.85877 0.30157 0.0
C358 C 0.68474 0.81704 0.24343 0.0
C359 C 0.68339 0.85036 0.21892 0.0
H360 H 0.68404 0.79474 0.30167 0.0
H361 H 0.68438 0.78743 0.23129 0.0
S362 S 0.68462 0.95553 0.25113 0.0
N363 N 0.68406 0.9299 0.29177 0.0
N364 N 0.68465 0.92242 0.2158 0.0
C365 C 0.6843 0.88816 0.23637 0.0
C366 C 0.68396 0.89228 0.27759 0.0
C367 C 0.36429 0.11505 0.77817 0.0
C368 C 0.35919 0.14787 0.80278 0.0
C369 C 0.36332 0.11886 0.73778 0.0
C370 C 0.35752 0.15579 0.72009 0.0
H371 H 0.37018 0.08619 0.79013 0.0
H372 H 0.36864 0.09276 0.72039 0.0
S373 S 0.33894 0.25036 0.77162 0.0
N374 N 0.34519 0.21799 0.80672 0.0
N375 N 0.34355 0.22539 0.73064 0.0
C376 C 0.35044 0.18855 0.74438 0.0
C377 C 0.35119 0.18453 0.78572 0.0
C378 C 0.69008 0.18039 0.77428 0.0
C379 C 0.68812 0.14692 0.79852 0.0
C380 C 0.68761 0.17681 0.73374 0.0
C381 C 0.68256 0.13973 0.7161 0.0
H382 H 0.69213 0.20977 0.78674 0.0
H383 H 0.68759 0.20345 0.71634 0.0
S384 S 0.68045 0.04245 0.76539 0.0
N385 N 0.68475 0.07492 0.80094 0.0
N386 N 0.6794 0.06864 0.7251 0.0
C387 C 0.68273 0.1059 0.73961 0.0
C388 C 0.68576 0.10937 0.78073 0.0
C389 C 0.36262 0.89546 0.23766 0.0
C390 C 0.35917 0.86224 0.2133 0.0
C391 C 0.35918 0.8923 0.27792 0.0
C392 C 0.3528 0.85559 0.29563 0.0
H393 H 0.36911 0.92405 0.22562 0.0
H394 H 0.36348 0.91859 0.29532 0.0
S395 S 0.33802 0.76027 0.24437 0.0
N396 N 0.34592 0.79212 0.20927 0.0
N397 N 0.34008 0.78584 0.28526 0.0
C398 C 0.34738 0.82246 0.27143 0.0
C399 C 0.35037 0.82588 0.2302 0.0
C400 C 0.28868 0.25985 1.00269 0.0
C401 C 0.30811 0.2313 0.02293 0.0
C402 C 0.25864 0.27665 0.01909 0.0
C403 C 0.24644 0.26426 0.05554 0.0
H404 H 0.29691 0.26952 0.97424 0.0
H405 H 0.24456 0.29889 1.00287 0.0
S406 S 0.28753 0.18978 0.11973 0.0
N407 N 0.31295 0.19151 0.08133 0.0
N408 N 0.25616 0.22187 0.11131 0.0
C409 C 0.26548 0.23547 0.07575 0.0
C410 C 0.2964 0.21929 0.05965 0.0
C411 C 0.78249 0.73079 0.51614 0.0
C412 C 0.79327 0.74143 0.55375 0.0
C413 C 0.75232 0.74722 0.49986 0.0
C414 C 0.73141 0.77363 0.52124 0.0
H415 H 0.79785 0.71041 0.49892 0.0
H416 H 0.74527 0.73911 0.47048 0.0
S417 S 0.7478 0.80949 0.62154 0.0
N418 N 0.78049 0.77945 0.61204 0.0
N419 N 0.72353 0.80918 0.58217 0.0
C420 C 0.74161 0.78364 0.5592 0.0
C421 C 0.77261 0.76782 0.57527 0.0
C422 C 0.2888 0.79022 0.96268 0.0
C423 C 0.30257 0.77799 0.99846 0.0
C424 C 0.25848 0.77364 0.94789 0.0
C425 C 0.24118 0.74341 0.96776 0.0
H426 H 0.30117 0.81345 0.94623 0.0
H427 H 0.24885 0.78419 0.92025 0.0
S428 S 0.26682 0.70021 0.06229 0.0
N429 N 0.2965 0.73406 0.05369 0.0
N430 N 0.24008 0.70148 0.02491 0.0
C431 C 0.25485 0.73039 1.00333 0.0
C432 C 0.28535 0.74812 0.01899 0.0
C433 C 0.74908 0.21479 0.46337 0.0
C434 C 0.73649 0.22656 0.49992 0.0
C435 C 0.77931 0.23093 0.44808 0.0
C436 C 0.79769 0.26027 0.46825 0.0
H437 H 0.73591 0.19218 0.44669 0.0
H438 H 0.78806 0.2207 0.41989 0.0
S439 S 0.77528 0.30212 0.56468 0.0
N440 N 0.74474 0.2692 0.55611 0.0
N441 N 0.80104 0.30098 0.52644 0.0
C442 C 0.78517 0.27292 0.50455 0.0
C443 C 0.75473 0.25562 0.52068 0.0
C444 C 0.73976 0.7315 0.01931 0.0
C445 C 0.74171 0.76595 0.04217 0.0
C446 C 0.76936 0.71536 1.00166 0.0
C447 C 0.80203 0.73242 1.00749 0.0
H448 H 0.7153 0.71647 0.01567 0.0
H449 H 0.76695 0.6881 0.98525 0.0
S450 S 0.82075 0.82348 0.06376 0.0
N451 N 0.77855 0.8178 0.06797 0.0
N452 N 0.83447 0.78625 0.03651 0.0
C453 C 0.80418 0.76735 0.0295 0.0
C454 C 0.77391 0.78451 0.0464 0.0
C455 C 0.26661 0.21987 0.546 0.0
C456 C 0.2987 0.23866 0.54168 0.0
C457 C 0.2365 0.2362 0.52979 0.0
C458 C 0.23775 0.27096 0.50757 0.0
H459 H 0.26446 0.19362 0.56376 0.0
H460 H 0.21195 0.22206 0.53545 0.0
S461 S 0.31599 0.32945 0.48513 0.0
N462 N 0.33029 0.29279 0.51244 0.0
N463 N 0.27399 0.32242 0.48037 0.0
C464 C 0.27001 0.28872 0.50122 0.0
C465 C 0.30043 0.27281 0.51876 0.0
C466 C 0.78974 0.24828 0.01698 0.0
C467 C 0.80844 0.27745 0.99703 0.0
C468 C 0.75999 0.23121 1.00054 0.0
C469 C 0.74733 0.24385 0.96432 0.0
H470 H 0.7983 0.23839 0.04527 0.0
H471 H 0.74646 0.20856 0.01659 0.0
S472 S 0.78646 0.32001 0.90095 0.0
N473 N 0.81211 0.31816 0.93917 0.0
N474 N 0.75587 0.28722 0.90908 0.0
C475 C 0.76566 0.27324 0.94437 0.0
C476 C 0.79631 0.28975 0.96053 0.0
C477 C 0.25174 0.75449 0.51372 0.0
C478 C 0.23463 0.72384 0.49386 0.0
C479 C 0.28111 0.77262 0.49772 0.0
C480 C 0.29494 0.75972 0.46204 0.0
H481 H 0.24215 0.76481 0.54152 0.0
H482 H 0.29337 0.79643 0.51365 0.0
S483 S 0.26015 0.67987 0.39916 0.0
N484 N 0.23375 0.68137 0.43673 0.0
N485 N 0.28923 0.71445 0.40741 0.0
C486 C 0.27824 0.72881 0.44223 0.0
C487 C 0.248 0.71113 0.45795 0.0
C488 C 0.18635 0.49735 0.97249 0.0
C489 C 0.18651 0.53696 0.98533 0.0
C490 C 0.18707 0.46589 0.99889 0.0
C491 C 0.18717 0.47298 0.03909 0.0
H492 H 0.18437 0.49056 0.94182 0.0
H493 H 0.18532 0.43594 0.98774 0.0
S494 S 0.19154 0.57102 0.08764 0.0
N495 N 0.19023 0.58139 0.04087 0.0
N496 N 0.19063 0.52226 0.09051 0.0
C497 C 0.18933 0.51233 0.05228 0.0
C498 C 0.18929 0.54435 0.02538 0.0
C499 C 0.8594 0.53684 0.49654 0.0
C500 C 0.86244 0.53114 0.53675 0.0
C501 C 0.85962 0.50454 0.47087 0.0
C502 C 0.86197 0.46543 0.48458 0.0
H503 H 0.85896 0.56648 0.48466 0.0
H504 H 0.85902 0.5103 0.43997 0.0
S505 S 0.86628 0.43471 0.58766 0.0
N506 N 0.86523 0.48356 0.58938 0.0
N507 N 0.86449 0.42278 0.54118 0.0
C508 C 0.86259 0.45928 0.52488 0.0
C509 C 0.86318 0.4922 0.55096 0.0
C510 C 0.86097 0.49817 0.05163 0.0
C511 C 0.85707 0.46427 0.02823 0.0
C512 C 0.86055 0.53616 0.0355 0.0
C513 C 0.85591 0.54179 0.99537 0.0
H514 H 0.86608 0.49537 0.08241 0.0
H515 H 0.8652 0.56116 0.05454 0.0
S516 S 0.83907 0.46268 0.9225 0.0
N517 N 0.84459 0.43878 0.96371 0.0
N518 N 0.84341 0.51004 0.93327 0.0
C519 C 0.84955 0.50816 0.97207 0.0
C520 C 0.85027 0.46946 0.98851 0.0
C521 C 0.16683 0.46451 0.53847 0.0
C522 C 0.1777 0.45721 0.50008 0.0
C523 C 0.16603 0.50298 0.55384 0.0
C524 C 0.17591 0.53574 0.53141 0.0
H525 H 0.15764 0.44056 0.55645 0.0
H526 H 0.15622 0.50716 0.58303 0.0
S527 S 0.2111 0.5323 0.4312 0.0
N528 N 0.20207 0.48581 0.44139 0.0
N529 N 0.20036 0.55794 0.47026 0.0
C530 C 0.18871 0.52867 0.49378 0.0
C531 C 0.18968 0.48949 0.47815 0.0
C532 C 0.68943 0.99562 0.97199 0.0
C533 C 0.68786 0.03469 0.98623 0.0
C534 C 0.68883 0.96317 0.99721 0.0
C535 C 0.68571 0.96871 0.03749 0.0
H536 H 0.68977 0.99003 0.941 0.0
H537 H 0.68847 0.93363 0.98488 0.0
S538 S 0.68417 0.0649 0.08971 0.0
N539 N 0.68634 0.07705 0.0434 0.0
N540 N 0.68408 0.01604 0.09077 0.0
C541 C 0.68605 0.00757 0.05225 0.0
C542 C 0.68747 0.04061 0.02661 0.0
C543 C 0.35671 0.9669 0.52177 0.0
C544 C 0.35425 0.9732 0.48158 0.0
C545 C 0.35841 0.99891 0.54777 0.0
C546 C 0.35681 0.03825 0.53455 0.0
H547 H 0.35959 0.93717 0.53303 0.0
H548 H 0.36223 0.9928 0.57831 0.0
S549 S 0.34603 0.07021 0.43239 0.0
N550 N 0.34749 0.0214 0.42998 0.0
N551 N 0.34956 0.08151 0.47889 0.0
C552 C 0.35179 0.0448 0.49469 0.0
C553 C 0.35085 0.01226 0.46817 0.0
C554 C 0.36922 1.00132 0.04965 0.0
C555 C 0.36138 0.96788 0.02691 0.0
C556 C 0.369 0.03938 0.03371 0.0
C557 C 0.36084 0.04566 0.99436 0.0
H558 H 0.37704 0.99805 0.07966 0.0
H559 H 0.37657 0.06387 0.05217 0.0
S560 S 0.3333 0.96855 0.92381 0.0
N561 N 0.34149 0.94395 0.96407 0.0
N562 N 0.34104 0.01541 0.93411 0.0
C563 C 0.35076 0.01273 0.97192 0.0
C564 C 0.35107 0.97391 0.98817 0.0
C565 C 0.67136 0.00354 0.55014 0.0
C566 C 0.67871 0.03712 0.52767 0.0
C567 C 0.67171 0.96553 0.53378 0.0
C568 C 0.67955 0.95945 0.49426 0.0
H569 H 0.66383 0.00665 0.58029 0.0
H570 H 0.66453 0.94091 0.55205 0.0
S571 S 0.70567 0.03707 0.4242 0.0
N572 N 0.69773 0.06145 0.46484 0.0
N573 N 0.69843 0.99009 0.43408 0.0
C574 C 0.68911 0.99255 0.47206 0.0
C575 C 0.68866 0.03132 0.48873 0.0
loop_
_geom_bond_atom_site_label_1
_geom_bond_atom_site_label_2
_geom_bond_distance
_geom_bond_site_symmetry_2
_ccdc_geom_bond_type
O0 Cd1 2.223 . S
O0 C8 1.315 . S
Cd1 O0 2.223 . S
Cd1 O4 2.297 . S
Cd1 O5 2.439 . S
Cd1 O11 2.240 . S
Cd2 O3 2.240 . S
Cd2 O10 2.223 . S
Cd2 O12 2.297 . S
Cd2 O13 2.439 . S
O3 Cd2 2.240 . S
O3 C8 1.279 . S
O4 Cd1 2.297 . S
O4 C6 1.247 . S
O5 Cd1 2.439 . S
O5 C6 1.208 . S
C6 O4 1.247 . S
C6 O5 1.208 . S
C7 O12 1.247 . S
C7 O13 1.208 . S
C8 O0 1.315 . S
C8 O3 1.279 . S
C9 O10 1.315 . S
C9 O11 1.279 . S
O10 Cd2 2.223 . S
O10 C9 1.315 . S
O11 Cd1 2.240 . S
O11 C9 1.279 . S
O12 Cd2 2.297 . S
O12 C7 1.247 . S
O13 Cd2 2.439 . S
O13 C7 1.208 . S
O14 Cd15 2.223 . S
O14 C22 1.315 . S
Cd15 O14 2.223 . S
Cd15 O18 2.297 . S
Cd15 O19 2.439 . S
Cd15 O25 2.240 . S
Cd16 O17 2.240 . S
Cd16 O24 2.223 . S
Cd16 O26 2.297 . S
Cd16 O27 2.439 . S
O17 Cd16 2.240 . S
O17 C22 1.279 . S
O18 Cd15 2.297 . S
O18 C20 1.247 . S
O19 Cd15 2.439 . S
O19 C20 1.208 . S
C20 O18 1.247 . S
C20 O19 1.208 . S
C21 O26 1.247 . S
C21 O27 1.208 . S
C22 O14 1.315 . S
C22 O17 1.279 . S
C23 O24 1.315 . S
C23 O25 1.279 . S
O24 Cd16 2.223 . S
O24 C23 1.315 . S
O25 Cd15 2.240 . S
O25 C23 1.279 . S
O26 Cd16 2.297 . S
O26 C21 1.247 . S
O27 Cd16 2.439 . S
O27 C21 1.208 . S
O28 Cd29 2.223 . S
O28 C36 1.315 . S
Cd29 O28 2.223 . S
Cd29 O32 2.297 . S
Cd29 O33 2.439 . S
Cd29 O39 2.240 . S
Cd30 O31 2.240 . S
Cd30 O38 2.223 . S
Cd30 O40 2.297 . S
Cd30 O41 2.439 . S
O31 Cd30 2.240 . S
O31 C36 1.279 . S
O32 Cd29 2.297 . S
O32 C34 1.247 . S
O33 Cd29 2.439 . S
O33 C34 1.208 . S
C34 O32 1.247 . S
C34 O33 1.208 . S
C35 O40 1.247 . S
C35 O41 1.208 . S
C36 O28 1.315 . S
C36 O31 1.279 . S
C37 O38 1.315 . S
C37 O39 1.279 . S
O38 Cd30 2.223 . S
O38 C37 1.315 . S
O39 Cd29 2.240 . S
O39 C37 1.279 . S
O40 Cd30 2.297 . S
O40 C35 1.247 . S
O41 Cd30 2.439 . S
O41 C35 1.208 . S
O42 Cd43 2.223 . S
O42 C50 1.315 . S
Cd43 O42 2.223 . S
Cd43 O46 2.297 . S
Cd43 O47 2.439 . S
Cd43 O53 2.240 . S
Cd44 O45 2.240 . S
Cd44 O52 2.223 . S
Cd44 O54 2.297 . S
Cd44 O55 2.439 . S
O45 Cd44 2.240 . S
O45 C50 1.279 . S
O46 Cd43 2.297 . S
O46 C48 1.247 . S
O47 Cd43 2.439 . S
O47 C48 1.208 . S
C48 O46 1.247 . S
C48 O47 1.208 . S
C49 O54 1.247 . S
C49 O55 1.208 . S
C50 O42 1.315 . S
C50 O45 1.279 . S
C51 O52 1.315 . S
C51 O53 1.279 . S
O52 Cd44 2.223 . S
O52 C51 1.315 . S
O53 Cd43 2.240 . S
O53 C51 1.279 . S
O54 Cd44 2.297 . S
O54 C49 1.247 . S
O55 Cd44 2.439 . S
O55 C49 1.208 . S
O56 Cd57 2.223 . S
O56 C64 1.315 . S
Cd57 O56 2.223 . S
Cd57 O60 2.297 . S
Cd57 O61 2.439 . S
Cd57 O67 2.240 . S
Cd58 O59 2.240 . S
Cd58 O66 2.223 . S
Cd58 O68 2.297 . S
Cd58 O69 2.439 . S
O59 Cd58 2.240 . S
O59 C64 1.279 . S
O60 Cd57 2.297 . S
O60 C62 1.247 . S
O61 Cd57 2.439 . S
O61 C62 1.208 . S
C62 O60 1.247 . S
C62 O61 1.208 . S
C63 O68 1.247 . S
C63 O69 1.208 . S
C64 O56 1.315 . S
C64 O59 1.279 . S
C65 O66 1.315 . S
C65 O67 1.279 . S
O66 Cd58 2.223 . S
O66 C65 1.315 . S
O67 Cd57 2.240 . S
O67 C65 1.279 . S
O68 Cd58 2.297 . S
O68 C63 1.247 . S
O69 Cd58 2.439 . S
O69 C63 1.208 . S
O70 Cd71 2.223 . S
O70 C78 1.315 . S
Cd71 O70 2.223 . S
Cd71 O74 2.297 . S
Cd71 O75 2.439 . S
Cd71 O81 2.240 . S
Cd72 O73 2.240 . S
Cd72 O80 2.223 . S
Cd72 O82 2.297 . S
Cd72 O83 2.439 . S
O73 Cd72 2.240 . S
O73 C78 1.279 . S
O74 Cd71 2.297 . S
O74 C76 1.247 . S
O75 Cd71 2.439 . S
O75 C76 1.208 . S
C76 O74 1.247 . S
C76 O75 1.208 . S
C77 O82 1.247 . S
C77 O83 1.208 . S
C78 O70 1.315 . S
C78 O73 1.279 . S
C79 O80 1.315 . S
C79 O81 1.279 . S
O80 Cd72 2.223 . S
O80 C79 1.315 . S
O81 Cd71 2.240 . S
O81 C79 1.279 . S
O82 Cd72 2.297 . S
O82 C77 1.247 . S
O83 Cd72 2.439 . S
O83 C77 1.208 . S
O84 Cd85 2.223 . S
O84 C92 1.315 . S
Cd85 O84 2.223 . S
Cd85 O88 2.297 . S
Cd85 O89 2.439 . S
Cd85 O95 2.240 . S
Cd86 O87 2.240 . S
Cd86 O94 2.223 . S
Cd86 O96 2.297 . S
Cd86 O97 2.439 . S
O87 Cd86 2.240 . S
O87 C92 1.279 . S
O88 Cd85 2.297 . S
O88 C90 1.247 . S
O89 Cd85 2.439 . S
O89 C90 1.208 . S
C90 O88 1.247 . S
C90 O89 1.208 . S
C91 O96 1.247 . S
C91 O97 1.208 . S
C92 O84 1.315 . S
C92 O87 1.279 . S
C93 O94 1.315 . S
C93 O95 1.279 . S
O94 Cd86 2.223 . S
O94 C93 1.315 . S
O95 Cd85 2.240 . S
O95 C93 1.279 . S
O96 Cd86 2.297 . S
O96 C91 1.247 . S
O97 Cd86 2.439 . S
O97 C91 1.208 . S
O98 Cd99 2.223 . S
O98 C106 1.315 . S
Cd99 O98 2.223 . S
Cd99 O102 2.297 . S
Cd99 O103 2.439 . S
Cd99 O109 2.240 . S
Cd100 O101 2.240 . S
Cd100 O108 2.223 . S
Cd100 O110 2.297 . S
Cd100 O111 2.439 . S
O101 Cd100 2.240 . S
O101 C106 1.279 . S
O102 Cd99 2.297 . S
O102 C104 1.247 . S
O103 Cd99 2.439 . S
O103 C104 1.208 . S
C104 O102 1.247 . S
C104 O103 1.208 . S
C105 O110 1.247 . S
C105 O111 1.208 . S
C106 O98 1.315 . S
C106 O101 1.279 . S
C107 O108 1.315 . S
C107 O109 1.279 . S
O108 Cd100 2.223 . S
O108 C107 1.315 . S
O109 Cd99 2.240 . S
O109 C107 1.279 . S
O110 Cd100 2.297 . S
O110 C105 1.247 . S
O111 Cd100 2.439 . S
O111 C105 1.208 . S
O112 Cd113 2.223 . S
O112 C120 1.315 . S
Cd113 O112 2.223 . S
Cd113 O116 2.297 . S
Cd113 O117 2.439 . S
Cd113 O123 2.240 . S
Cd114 O115 2.240 . S
Cd114 O122 2.223 . S
Cd114 O124 2.297 . S
Cd114 O125 2.439 . S
O115 Cd114 2.240 . S
O115 C120 1.279 . S
O116 Cd113 2.297 . S
O116 C118 1.247 . S
O117 Cd113 2.439 . S
O117 C118 1.208 . S
C118 O116 1.247 . S
C118 O117 1.208 . S
C119 O124 1.247 . S
C119 O125 1.208 . S
C120 O112 1.315 . S
C120 O115 1.279 . S
C121 O122 1.315 . S
C121 O123 1.279 . S
O122 Cd114 2.223 . S
O122 C121 1.315 . S
O123 Cd113 2.240 . S
O123 C121 1.279 . S
O124 Cd114 2.297 . S
O124 C119 1.247 . S
O125 Cd114 2.439 . S
O125 C119 1.208 . S
O126 Cd127 2.223 . S
O126 C134 1.315 . S
Cd127 O126 2.223 . S
Cd127 O130 2.297 . S
Cd127 O131 2.439 . S
Cd127 O137 2.240 . S
Cd128 O129 2.240 . S
Cd128 O136 2.223 . S
Cd128 O138 2.297 . S
Cd128 O139 2.439 . S
O129 Cd128 2.240 . S
O129 C134 1.279 . S
O130 Cd127 2.297 . S
O130 C132 1.247 . S
O131 Cd127 2.439 . S
O131 C132 1.208 . S
C132 O130 1.247 . S
C132 O131 1.208 . S
C133 O138 1.247 . S
C133 O139 1.208 . S
C134 O126 1.315 . S
C134 O129 1.279 . S
C135 O136 1.315 . S
C135 O137 1.279 . S
O136 Cd128 2.223 . S
O136 C135 1.315 . S
O137 Cd127 2.240 . S
O137 C135 1.279 . S
O138 Cd128 2.297 . S
O138 C133 1.247 . S
O139 Cd128 2.439 . S
O139 C133 1.208 . S
O140 Cd141 2.223 . S
O140 C148 1.315 . S
Cd141 O140 2.223 . S
Cd141 O144 2.297 . S
Cd141 O145 2.439 . S
Cd141 O151 2.240 . S
Cd142 O143 2.240 . S
Cd142 O150 2.223 . S
Cd142 O152 2.297 . S
Cd142 O153 2.439 . S
O143 Cd142 2.240 . S
O143 C148 1.279 . S
O144 Cd141 2.297 . S
O144 C146 1.247 . S
O145 Cd141 2.439 . S
O145 C146 1.208 . S
C146 O144 1.247 . S
C146 O145 1.208 . S
C147 O152 1.247 . S
C147 O153 1.208 . S
C148 O140 1.315 . S
C148 O143 1.279 . S
C149 O150 1.315 . S
C149 O151 1.279 . S
O150 Cd142 2.223 . S
O150 C149 1.315 . S
O151 Cd141 2.240 . S
O151 C149 1.279 . S
O152 Cd142 2.297 . S
O152 C147 1.247 . S
O153 Cd142 2.439 . S
O153 C147 1.208 . S
O154 Cd155 2.223 . S
O154 C162 1.315 . S
Cd155 O154 2.223 . S
Cd155 O158 2.297 . S
Cd155 O159 2.439 . S
Cd155 O165 2.240 . S
Cd156 O157 2.240 . S
Cd156 O164 2.223 . S
Cd156 O166 2.297 . S
Cd156 O167 2.439 . S
O157 Cd156 2.240 . S
O157 C162 1.279 . S
O158 Cd155 2.297 . S
O158 C160 1.247 . S
O159 Cd155 2.439 . S
O159 C160 1.208 . S
C160 O158 1.247 . S
C160 O159 1.208 . S
C161 O166 1.247 . S
C161 O167 1.208 . S
C162 O154 1.315 . S
C162 O157 1.279 . S
C163 O164 1.315 . S
C163 O165 1.279 . S
O164 Cd156 2.223 . S
O164 C163 1.315 . S
O165 Cd155 2.240 . S
O165 C163 1.279 . S
O166 Cd156 2.297 . S
O166 C161 1.247 . S
O167 Cd156 2.439 . S
O167 C161 1.208 . S
O168 Cd169 2.223 . S
O168 C176 1.315 . S
Cd169 O168 2.223 . S
Cd169 O172 2.297 . S
Cd169 O173 2.439 . S
Cd169 O179 2.240 . S
Cd170 O171 2.240 . S
Cd170 O178 2.223 . S
Cd170 O180 2.297 . S
Cd170 O181 2.439 . S
O171 Cd170 2.240 . S
O171 C176 1.279 . S
O172 Cd169 2.297 . S
O172 C174 1.247 . S
O173 Cd169 2.439 . S
O173 C174 1.208 . S
C174 O172 1.247 . S
C174 O173 1.208 . S
C175 O180 1.247 . S
C175 O181 1.208 . S
C176 O168 1.315 . S
C176 O171 1.279 . S
C177 O178 1.315 . S
C177 O179 1.279 . S
O178 Cd170 2.223 . S
O178 C177 1.315 . S
O179 Cd169 2.240 . S
O179 C177 1.279 . S
O180 Cd170 2.297 . S
O180 C175 1.247 . S
O181 Cd170 2.439 . S
O181 C175 1.208 . S
O182 Cd183 2.223 . S
O182 C190 1.315 . S
Cd183 O182 2.223 . S
Cd183 O186 2.297 . S
Cd183 O187 2.439 . S
Cd183 O193 2.240 . S
Cd184 O185 2.240 . S
Cd184 O192 2.223 . S
Cd184 O194 2.297 . S
Cd184 O195 2.439 . S
O185 Cd184 2.240 . S
O185 C190 1.279 . S
O186 Cd183 2.297 . S
O186 C188 1.247 . S
O187 Cd183 2.439 . S
O187 C188 1.208 . S
C188 O186 1.247 . S
C188 O187 1.208 . S
C189 O194 1.247 . S
C189 O195 1.208 . S
C190 O182 1.315 . S
C190 O185 1.279 . S
C191 O192 1.315 . S
C191 O193 1.279 . S
O192 Cd184 2.223 . S
O192 C191 1.315 . S
O193 Cd183 2.240 . S
O193 C191 1.279 . S
O194 Cd184 2.297 . S
O194 C189 1.247 . S
O195 Cd184 2.439 . S
O195 C189 1.208 . S
O196 Cd197 2.223 . S
O196 C204 1.315 . S
Cd197 O196 2.223 . S
Cd197 O200 2.297 . S
Cd197 O201 2.439 . S
Cd197 O207 2.240 . S
Cd198 O199 2.240 . S
Cd198 O206 2.223 . S
Cd198 O208 2.297 . S
Cd198 O209 2.439 . S
O199 Cd198 2.240 . S
O199 C204 1.279 . S
O200 Cd197 2.297 . S
O200 C202 1.247 . S
O201 Cd197 2.439 . S
O201 C202 1.208 . S
C202 O200 1.247 . S
C202 O201 1.208 . S
C203 O208 1.247 . S
C203 O209 1.208 . S
C204 O196 1.315 . S
C204 O199 1.279 . S
C205 O206 1.315 . S
C205 O207 1.279 . S
O206 Cd198 2.223 . S
O206 C205 1.315 . S
O207 Cd197 2.240 . S
O207 C205 1.279 . S
O208 Cd198 2.297 . S
O208 C203 1.247 . S
O209 Cd198 2.439 . S
O209 C203 1.208 . S
O210 Cd211 2.223 . S
O210 C218 1.315 . S
Cd211 O210 2.223 . S
Cd211 O214 2.297 . S
Cd211 O215 2.439 . S
Cd211 O221 2.240 . S
Cd212 O213 2.240 . S
Cd212 O220 2.223 . S
Cd212 O222 2.297 . S
Cd212 O223 2.439 . S
O213 Cd212 2.240 . S
O213 C218 1.279 . S
O214 Cd211 2.297 . S
O214 C216 1.247 . S
O215 Cd211 2.439 . S
O215 C216 1.208 . S
C216 O214 1.247 . S
C216 O215 1.208 . S
C217 O222 1.247 . S
C217 O223 1.208 . S
C218 O210 1.315 . S
C218 O213 1.279 . S
C219 O220 1.315 . S
C219 O221 1.279 . S
O220 Cd212 2.223 . S
O220 C219 1.315 . S
O221 Cd211 2.240 . S
O221 C219 1.279 . S
O222 Cd212 2.297 . S
O222 C217 1.247 . S
O223 Cd212 2.439 . S
O223 C217 1.208 . S
C224 C225 1.369 . S
C224 C226 1.419 1_455 S
C224 H228 0.930 . S
C225 C224 1.369 . S
C225 C234 1.429 . S
C226 C224 1.419 1_655 S
C226 C227 1.363 . S
C226 H229 0.929 . S
C227 C226 1.363 . S
C227 C233 1.428 . S
H228 C224 0.930 . S
H229 C226 0.929 . S
S230 N231 1.613 1_656 S
S230 N232 1.610 1_556 S
N231 S230 1.613 1_454 S
N231 C234 1.350 . S
N232 S230 1.610 1_554 S
N232 C233 1.351 . S
C233 C227 1.428 . S
C233 N232 1.351 . S
C233 C234 1.434 1_655 S
C234 C225 1.429 . S
C234 N231 1.350 . S
C234 C233 1.434 1_455 S
C235 C236 1.369 . S
C235 C237 1.419 1_655 S
C235 H239 0.930 . S
C236 C235 1.369 . S
C236 C245 1.429 . S
C237 C235 1.419 1_455 S
C237 C238 1.363 . S
C237 H240 0.929 . S
C238 C237 1.363 . S
C238 C244 1.428 . S
H239 C235 0.930 . S
H240 C237 0.929 . S
S241 N242 1.613 1_455 S
S241 N243 1.610 . S
N242 S241 1.613 1_655 S
N242 C245 1.350 . S
N243 S241 1.610 . S
N243 C244 1.351 . S
C244 C238 1.428 . S
C244 N243 1.351 . S
C244 C245 1.434 1_455 S
C245 C236 1.429 . S
C245 N242 1.350 . S
C245 C244 1.434 1_655 S
C246 C247 1.369 . S
C246 C248 1.419 1_655 S
C246 H250 0.930 . S
C247 C246 1.369 . S
C247 C256 1.429 . S
C248 C246 1.419 1_455 S
C248 C249 1.363 . S
C248 H251 0.929 . S
C249 C248 1.363 . S
C249 C255 1.428 . S
H250 C246 0.930 . S
H251 C248 0.929 . S
S252 N253 1.613 1_554 S
S252 N254 1.610 1_654 S
N253 S252 1.613 1_556 S
N253 C256 1.350 . S
N254 S252 1.610 1_456 S
N254 C255 1.351 . S
C255 C249 1.428 . S
C255 N254 1.351 . S
C255 C256 1.434 1_455 S
C256 C247 1.429 . S
C256 N253 1.350 . S
C256 C255 1.434 1_655 S
C257 C258 1.369 . S
C257 C259 1.419 1_455 S
C257 H261 0.930 . S
C258 C257 1.369 . S
C258 C267 1.429 . S
C259 C257 1.419 1_655 S
C259 C260 1.363 . S
C259 H262 0.929 . S
C260 C259 1.363 . S
C260 C266 1.428 . S
H261 C257 0.930 . S
H262 C259 0.929 . S
S263 N264 1.613 . S
S263 N265 1.610 1_455 S
N264 S263 1.613 . S
N264 C267 1.350 . S
N265 S263 1.610 1_655 S
N265 C266 1.351 . S
C266 C260 1.428 . S
C266 N265 1.351 . S
C266 C267 1.434 1_655 S
C267 C258 1.429 . S
C267 N264 1.350 . S
C267 C266 1.434 1_455 S
C268 C269 1.369 . S
C268 C270 1.419 . S
C268 H272 0.930 . S
C269 C268 1.369 . S
C269 C278 1.429 . S
C270 C268 1.419 . S
C270 C271 1.363 . S
C270 H273 0.929 . S
C271 C270 1.363 . S
C271 C277 1.428 . S
H272 C268 0.930 . S
H273 C270 0.929 . S
S274 N275 1.613 . S
S274 N276 1.610 . S
N275 S274 1.613 . S
N275 C278 1.350 . S
N276 S274 1.610 . S
N276 C277 1.351 . S
C277 C271 1.428 . S
C277 N276 1.351 . S
C277 C278 1.434 . S
C278 C269 1.429 . S
C278 N275 1.350 . S
C278 C277 1.434 . S
C279 C280 1.369 . S
C279 C281 1.419 . S
C279 H283 0.930 . S
C280 C279 1.369 . S
C280 C289 1.429 . S
C281 C279 1.419 . S
C281 C282 1.363 . S
C281 H284 0.929 . S
C282 C281 1.363 . S
C282 C288 1.428 . S
H283 C279 0.930 . S
H284 C281 0.929 . S
S285 N286 1.613 . S
S285 N287 1.610 . S
N286 S285 1.613 . S
N286 C289 1.350 . S
N287 S285 1.610 . S
N287 C288 1.351 . S
C288 C282 1.428 . S
C288 N287 1.351 . S
C288 C289 1.434 . S
C289 C280 1.429 . S
C289 N286 1.350 . S
C289 C288 1.434 . S
C290 C291 1.369 . S
C290 C292 1.419 . S
C290 H294 0.930 . S
C291 C290 1.369 . S
C291 C300 1.429 . S
C292 C290 1.419 . S
C292 C293 1.363 . S
C292 H295 0.929 . S
C293 C292 1.363 . S
C293 C299 1.428 . S
H294 C290 0.930 . S
H295 C292 0.929 . S
S296 N297 1.613 . S
S296 N298 1.610 . S
N297 S296 1.613 . S
N297 C300 1.350 . S
N298 S296 1.610 . S
N298 C299 1.351 . S
C299 C293 1.428 . S
C299 N298 1.351 . S
C299 C300 1.434 . S
C300 C291 1.429 . S
C300 N297 1.350 . S
C300 C299 1.434 . S
C301 C302 1.369 . S
C301 C303 1.419 . S
C301 H305 0.930 . S
C302 C301 1.369 . S
C302 C311 1.429 . S
C303 C301 1.419 . S
C303 C304 1.363 . S
C303 H306 0.929 . S
C304 C303 1.363 . S
C304 C310 1.428 . S
H305 C301 0.930 . S
H306 C303 0.929 . S
S307 N308 1.613 . S
S307 N309 1.610 . S
N308 S307 1.613 . S
N308 C311 1.350 . S
N309 S307 1.610 . S
N309 C310 1.351 . S
C310 C304 1.428 . S
C310 N309 1.351 . S
C310 C311 1.434 . S
C311 C302 1.429 . S
C311 N308 1.350 . S
C311 C310 1.434 . S
C312 C313 1.369 . S
C312 C314 1.419 . S
C312 H316 0.930 . S
C313 C312 1.369 . S
C313 C322 1.429 . S
C314 C312 1.419 . S
C314 C315 1.363 . S
C314 H317 0.929 . S
C315 C314 1.363 . S
C315 C321 1.428 . S
H316 C312 0.930 . S
H317 C314 0.929 . S
S318 N319 1.613 . S
S318 N320 1.610 . S
N319 S318 1.613 . S
N319 C322 1.350 . S
N320 S318 1.610 . S
N320 C321 1.351 . S
C321 C315 1.428 . S
C321 N320 1.351 . S
C321 C322 1.434 . S
C322 C313 1.429 . S
C322 N319 1.350 . S
C322 C321 1.434 . S
C323 C324 1.369 . S
C323 C325 1.419 . S
C323 H327 0.930 . S
C324 C323 1.369 . S
C324 C333 1.429 . S
C325 C323 1.419 . S
C325 C326 1.363 . S
C325 H328 0.929 . S
C326 C325 1.363 . S
C326 C332 1.428 . S
H327 C323 0.930 . S
H328 C325 0.929 . S
S329 N330 1.613 . S
S329 N331 1.610 . S
N330 S329 1.613 . S
N330 C333 1.350 . S
N331 S329 1.610 . S
N331 C332 1.351 . S
C332 C326 1.428 . S
C332 N331 1.351 . S
C332 C333 1.434 . S
C333 C324 1.429 . S
C333 N330 1.350 . S
C333 C332 1.434 . S
C334 C335 1.369 . S
C334 C336 1.419 . S
C334 H338 0.930 . S
C335 C334 1.369 . S
C335 C344 1.429 . S
C336 C334 1.419 . S
C336 C337 1.363 . S
C336 H339 0.929 . S
C337 C336 1.363 . S
C337 C343 1.428 . S
H338 C334 0.930 . S
H339 C336 0.929 . S
S340 N341 1.613 . S
S340 N342 1.610 . S
N341 S340 1.613 . S
N341 C344 1.350 . S
N342 S340 1.610 . S
N342 C343 1.351 . S
C343 C337 1.428 . S
C343 N342 1.351 . S
C343 C344 1.434 . S
C344 C335 1.429 . S
C344 N341 1.350 . S
C344 C343 1.434 . S
C345 C346 1.369 . S
C345 C347 1.419 . S
C345 H349 0.930 . S
C346 C345 1.369 . S
C346 C355 1.429 . S
C347 C345 1.419 . S
C347 C348 1.363 . S
C347 H350 0.929 . S
C348 C347 1.363 . S
C348 C354 1.428 . S
H349 C345 0.930 . S
H350 C347 0.929 . S
S351 N352 1.613 . S
S351 N353 1.610 . S
N352 S351 1.613 . S
N352 C355 1.350 . S
N353 S351 1.610 . S
N353 C354 1.351 . S
C354 C348 1.428 . S
C354 N353 1.351 . S
C354 C355 1.434 . S
C355 C346 1.429 . S
C355 N352 1.350 . S
C355 C354 1.434 . S
C356 C357 1.369 . S
C356 C358 1.419 . S
C356 H360 0.930 . S
C357 C356 1.369 . S
C357 C366 1.429 . S
C358 C356 1.419 . S
C358 C359 1.363 . S
C358 H361 0.929 . S
C359 C358 1.363 . S
C359 C365 1.428 . S
H360 C356 0.930 . S
H361 C358 0.929 . S
S362 N363 1.613 . S
S362 N364 1.610 . S
N363 S362 1.613 . S
N363 C366 1.350 . S
N364 S362 1.610 . S
N364 C365 1.351 . S
C365 C359 1.428 . S
C365 N364 1.351 . S
C365 C366 1.434 . S
C366 C357 1.429 . S
C366 N363 1.350 . S
C366 C365 1.434 . S
C367 C368 1.369 . S
C367 C369 1.419 . S
C367 H371 0.930 . S
C368 C367 1.369 . S
C368 C377 1.429 . S
C369 C367 1.419 . S
C369 C370 1.363 . S
C369 H372 0.929 . S
C370 C369 1.363 . S
C370 C376 1.428 . S
H371 C367 0.930 . S
H372 C369 0.929 . S
S373 N374 1.613 . S
S373 N375 1.610 . S
N374 S373 1.613 . S
N374 C377 1.350 . S
N375 S373 1.610 . S
N375 C376 1.351 . S
C376 C370 1.428 . S
C376 N375 1.351 . S
C376 C377 1.434 . S
C377 C368 1.429 . S
C377 N374 1.350 . S
C377 C376 1.434 . S
C378 C379 1.369 . S
C378 C380 1.419 . S
C378 H382 0.930 . S
C379 C378 1.369 . S
C379 C388 1.429 . S
C380 C378 1.419 . S
C380 C381 1.363 . S
C380 H383 0.929 . S
C381 C380 1.363 . S
C381 C387 1.428 . S
H382 C378 0.930 . S
H383 C380 0.929 . S
S384 N385 1.613 . S
S384 N386 1.610 . S
N385 S384 1.613 . S
N385 C388 1.350 . S
N386 S384 1.610 . S
N386 C387 1.351 . S
C387 C381 1.428 . S
C387 N386 1.351 . S
C387 C388 1.434 . S
C388 C379 1.429 . S
C388 N385 1.350 . S
C388 C387 1.434 . S
C389 C390 1.369 . S
C389 C391 1.419 . S
C389 H393 0.930 . S
C390 C389 1.369 . S
C390 C399 1.429 . S
C391 C389 1.419 . S
C391 C392 1.363 . S
C391 H394 0.929 . S
C392 C391 1.363 . S
C392 C398 1.428 . S
H393 C389 0.930 . S
H394 C391 0.929 . S
S395 N396 1.613 . S
S395 N397 1.610 . S
N396 S395 1.613 . S
N396 C399 1.350 . S
N397 S395 1.610 . S
N397 C398 1.351 . S
C398 C392 1.428 . S
C398 N397 1.351 . S
C398 C399 1.434 . S
C399 C390 1.429 . S
C399 N396 1.350 . S
C399 C398 1.434 . S
C400 C401 1.369 . S
C400 C402 1.419 . S
C400 H404 0.930 . S
C401 C400 1.369 . S
C401 C410 1.429 1_556 S
C402 C400 1.419 . S
C402 C403 1.363 1_556 S
C402 H405 0.929 . S
C403 C402 1.363 1_554 S
C403 C409 1.428 . S
H404 C400 0.930 . S
H405 C402 0.929 . S
S406 N407 1.613 . S
S406 N408 1.610 . S
N407 S406 1.613 . S
N407 C410 1.350 . S
N408 S406 1.610 . S
N408 C409 1.351 . S
C409 C403 1.428 . S
C409 N408 1.351 . S
C409 C410 1.434 . S
C410 C401 1.429 1_554 S
C410 N407 1.350 . S
C410 C409 1.434 . S
C411 C412 1.369 . S
C411 C413 1.419 . S
C411 H415 0.930 . S
C412 C411 1.369 . S
C412 C421 1.429 . S
C413 C411 1.419 . S
C413 C414 1.363 . S
C413 H416 0.929 . S
C414 C413 1.363 . S
C414 C420 1.428 . S
H415 C411 0.930 . S
H416 C413 0.929 . S
S417 N418 1.613 . S
S417 N419 1.610 . S
N418 S417 1.613 . S
N418 C421 1.350 . S
N419 S417 1.610 . S
N419 C420 1.351 . S
C420 C414 1.428 . S
C420 N419 1.351 . S
C420 C421 1.434 . S
C421 C412 1.429 . S
C421 N418 1.350 . S
C421 C420 1.434 . S
C422 C423 1.369 1_556 S
C422 C424 1.419 . S
C422 H426 0.930 . S
C423 C422 1.369 1_554 S
C423 C432 1.429 . S
C424 C422 1.419 . S
C424 C425 1.363 . S
C424 H427 0.929 . S
C425 C424 1.363 . S
C425 C431 1.428 1_556 S
H426 C422 0.930 . S
H427 C424 0.929 . S
S428 N429 1.613 . S
S428 N430 1.610 . S
N429 S428 1.613 . S
N429 C432 1.350 . S
N430 S428 1.610 . S
N430 C431 1.351 . S
C431 C425 1.428 1_554 S
C431 N430 1.351 . S
C431 C432 1.434 . S
C432 C423 1.429 . S
C432 N429 1.350 . S
C432 C431 1.434 . S
C433 C434 1.369 . S
C433 C435 1.419 . S
C433 H437 0.930 . S
C434 C433 1.369 . S
C434 C443 1.429 . S
C435 C433 1.419 . S
C435 C436 1.363 . S
C435 H438 0.929 . S
C436 C435 1.363 . S
C436 C442 1.428 . S
H437 C433 0.930 . S
H438 C435 0.929 . S
S439 N440 1.613 . S
S439 N441 1.610 . S
N440 S439 1.613 . S
N440 C443 1.350 . S
N441 S439 1.610 . S
N441 C442 1.351 . S
C442 C436 1.428 . S
C442 N441 1.351 . S
C442 C443 1.434 . S
C443 C434 1.429 . S
C443 N440 1.350 . S
C443 C442 1.434 . S
C444 C445 1.369 . S
C444 C446 1.419 1_554 S
C444 H448 0.930 1_554 S
C445 C444 1.369 . S
C445 C454 1.429 . S
C446 C444 1.419 1_556 S
C446 C447 1.363 . S
C446 H449 0.929 . S
C447 C446 1.363 . S
C447 C453 1.428 1_556 S
H448 C444 0.930 1_556 S
H449 C446 0.929 . S
S450 N451 1.613 . S
S450 N452 1.610 . S
N451 S450 1.613 . S
N451 C454 1.350 . S
N452 S450 1.610 . S
N452 C453 1.351 . S
C453 C447 1.428 1_554 S
C453 N452 1.351 . S
C453 C454 1.434 . S
C454 C445 1.429 . S
C454 N451 1.350 . S
C454 C453 1.434 . S
C455 C456 1.369 . S
C455 C457 1.419 . S
C455 H459 0.930 . S
C456 C455 1.369 . S
C456 C465 1.429 . S
C457 C455 1.419 . S
C457 C458 1.363 . S
C457 H460 0.929 . S
C458 C457 1.363 . S
C458 C464 1.428 . S
H459 C455 0.930 . S
H460 C457 0.929 . S
S461 N462 1.613 . S
S461 N463 1.610 . S
N462 S461 1.613 . S
N462 C465 1.350 . S
N463 S461 1.610 . S
N463 C464 1.351 . S
C464 C458 1.428 . S
C464 N463 1.351 . S
C464 C465 1.434 . S
C465 C456 1.429 . S
C465 N462 1.350 . S
C465 C464 1.434 . S
C466 C467 1.369 . S
C466 C468 1.419 . S
C466 H470 0.930 . S
C467 C466 1.369 . S
C467 C476 1.429 1_554 S
C468 C466 1.419 . S
C468 C469 1.363 1_554 S
C468 H471 0.929 . S
C469 C468 1.363 1_556 S
C469 C475 1.428 . S
H470 C466 0.930 . S
H471 C468 0.929 . S
S472 N473 1.613 . S
S472 N474 1.610 . S
N473 S472 1.613 . S
N473 C476 1.350 . S
N474 S472 1.610 . S
N474 C475 1.351 . S
C475 C469 1.428 . S
C475 N474 1.351 . S
C475 C476 1.434 . S
C476 C467 1.429 1_556 S
C476 N473 1.350 . S
C476 C475 1.434 . S
C477 C478 1.369 . S
C477 C479 1.419 . S
C477 H481 0.930 . S
C478 C477 1.369 . S
C478 C487 1.429 . S
C479 C477 1.419 . S
C479 C480 1.363 . S
C479 H482 0.929 . S
C480 C479 1.363 . S
C480 C486 1.428 . S
H481 C477 0.930 . S
H482 C479 0.929 . S
S483 N484 1.613 . S
S483 N485 1.610 . S
N484 S483 1.613 . S
N484 C487 1.350 . S
N485 S483 1.610 . S
N485 C486 1.351 . S
C486 C480 1.428 . S
C486 N485 1.351 . S
C486 C487 1.434 . S
C487 C478 1.429 . S
C487 N484 1.350 . S
C487 C486 1.434 . S
C488 C489 1.369 . S
C488 C490 1.419 . S
C488 H492 0.930 . S
C489 C488 1.369 . S
C489 C498 1.429 1_556 S
C490 C488 1.419 . S
C490 C491 1.363 1_556 S
C490 H493 0.929 . S
C491 C490 1.363 1_554 S
C491 C497 1.428 . S
H492 C488 0.930 . S
H493 C490 0.929 . S
S494 N495 1.613 . S
S494 N496 1.610 . S
N495 S494 1.613 . S
N495 C498 1.350 . S
N496 S494 1.610 . S
N496 C497 1.351 . S
C497 C491 1.428 . S
C497 N496 1.351 . S
C497 C498 1.434 . S
C498 C489 1.429 1_554 S
C498 N495 1.350 . S
C498 C497 1.434 . S
C499 C500 1.369 . S
C499 C501 1.419 . S
C499 H503 0.930 . S
C500 C499 1.369 . S
C500 C509 1.429 . S
C501 C499 1.419 . S
C501 C502 1.363 . S
C501 H504 0.929 . S
C502 C501 1.363 . S
C502 C508 1.428 . S
H503 C499 0.930 . S
H504 C501 0.929 . S
S505 N506 1.613 . S
S505 N507 1.610 . S
N506 S505 1.613 . S
N506 C509 1.350 . S
N507 S505 1.610 . S
N507 C508 1.351 . S
C508 C502 1.428 . S
C508 N507 1.351 . S
C508 C509 1.434 . S
C509 C500 1.429 . S
C509 N506 1.350 . S
C509 C508 1.434 . S
C510 C511 1.369 . S
C510 C512 1.419 . S
C510 H514 0.930 . S
C511 C510 1.369 . S
C511 C520 1.429 1_554 S
C512 C510 1.419 . S
C512 C513 1.363 1_554 S
C512 H515 0.929 . S
C513 C512 1.363 1_556 S
C513 C519 1.428 . S
H514 C510 0.930 . S
H515 C512 0.929 . S
S516 N517 1.613 . S
S516 N518 1.610 . S
N517 S516 1.613 . S
N517 C520 1.350 . S
N518 S516 1.610 . S
N518 C519 1.351 . S
C519 C513 1.428 . S
C519 N518 1.351 . S
C519 C520 1.434 . S
C520 C511 1.429 1_556 S
C520 N517 1.350 . S
C520 C519 1.434 . S
C521 C522 1.369 . S
C521 C523 1.419 . S
C521 H525 0.930 . S
C522 C521 1.369 . S
C522 C531 1.429 . S
C523 C521 1.419 . S
C523 C524 1.363 . S
C523 H526 0.929 . S
C524 C523 1.363 . S
C524 C530 1.428 . S
H525 C521 0.930 . S
H526 C523 0.929 . S
S527 N528 1.613 . S
S527 N529 1.610 . S
N528 S527 1.613 . S
N528 C531 1.350 . S
N529 S527 1.610 . S
N529 C530 1.351 . S
C530 C524 1.428 . S
C530 N529 1.351 . S
C530 C531 1.434 . S
C531 C522 1.429 . S
C531 N528 1.350 . S
C531 C530 1.434 . S
C532 C533 1.369 . S
C532 C534 1.419 1_545 S
C532 H536 0.930 . S
C533 C532 1.369 . S
C533 C542 1.429 1_556 S
C534 C532 1.419 1_565 S
C534 C535 1.363 1_556 S
C534 H537 0.929 . S
C535 C534 1.363 1_554 S
C535 C541 1.428 . S
H536 C532 0.930 . S
H537 C534 0.929 . S
S538 N539 1.613 . S
S538 N540 1.610 1_545 S
N539 S538 1.613 . S
N539 C542 1.350 . S
N540 S538 1.610 1_565 S
N540 C541 1.351 . S
C541 C535 1.428 . S
C541 N540 1.351 . S
C541 C542 1.434 1_565 S
C542 C533 1.429 1_554 S
C542 N539 1.350 . S
C542 C541 1.434 1_545 S
C543 C544 1.369 . S
C543 C545 1.419 1_565 S
C543 H547 0.930 . S
C544 C543 1.369 . S
C544 C553 1.429 . S
C545 C543 1.419 1_545 S
C545 C546 1.363 . S
C545 H548 0.929 . S
C546 C545 1.363 . S
C546 C552 1.428 . S
H547 C543 0.930 . S
H548 C545 0.929 . S
S549 N550 1.613 1_545 S
S549 N551 1.610 . S
N550 S549 1.613 1_565 S
N550 C553 1.350 . S
N551 S549 1.610 . S
N551 C552 1.351 . S
C552 C546 1.428 . S
C552 N551 1.351 . S
C552 C553 1.434 1_545 S
C553 C544 1.429 . S
C553 N550 1.350 . S
C553 C552 1.434 1_565 S
C554 C555 1.369 . S
C554 C556 1.419 1_565 S
C554 H558 0.930 . S
C555 C554 1.369 . S
C555 C564 1.429 1_554 S
C556 C554 1.419 1_545 S
C556 C557 1.363 1_554 S
C556 H559 0.929 . S
C557 C556 1.363 1_556 S
C557 C563 1.428 . S
H558 C554 0.930 . S
H559 C556 0.929 . S
S560 N561 1.613 . S
S560 N562 1.610 1_565 S
N561 S560 1.613 . S
N561 C564 1.350 . S
N562 S560 1.610 1_545 S
N562 C563 1.351 . S
C563 C557 1.428 . S
C563 N562 1.351 . S
C563 C564 1.434 1_545 S
C564 C555 1.429 1_556 S
C564 N561 1.350 . S
C564 C563 1.434 1_565 S
C565 C566 1.369 . S
C565 C567 1.419 1_545 S
C565 H569 0.930 . S
C566 C565 1.369 . S
C566 C575 1.429 . S
C567 C565 1.419 1_565 S
C567 C568 1.363 . S
C567 H570 0.929 . S
C568 C567 1.363 . S
C568 C574 1.428 . S
H569 C565 0.930 . S
H570 C567 0.929 . S
S571 N572 1.613 . S
S571 N573 1.610 1_545 S
N572 S571 1.613 . S
N572 C575 1.350 . S
N573 S571 1.610 1_565 S
N573 C574 1.351 . S
C574 C568 1.428 . S
C574 N573 1.351 . S
C574 C575 1.434 1_565 S
C575 C566 1.429 . S
C575 N572 1.350 . S
C575 C574 1.434 1_545 S
C225 C9 1.470 . S
C227 C93 1.495 . S
C236 C23 1.475 . S
C238 C107 1.490 . S
C247 C65 1.495 . S
C249 C37 1.472 . S
C258 C79 1.490 . S
C260 C51 1.468 . S
C269 C205 1.494 . S
C271 C121 1.467 . S
C280 C219 1.488 . S
C282 C135 1.471 . S
C291 C149 1.475 . S
C293 C177 1.493 . S
C302 C163 1.469 . S
C304 C191 1.495 . S
C313 C8 1.598 . S
C315 C77 1.556 . S
C324 C22 1.598 . S
C326 C63 1.557 . S
C335 C36 1.598 . S
C337 C105 1.557 . S
C346 C91 1.562 . S
C348 C50 1.597 . S
C357 C189 1.556 . S
C359 C120 1.597 . S
C368 C175 1.561 . S
C370 C134 1.597 . S
C379 C148 1.597 . S
C381 C217 1.558 . S
C390 C203 1.558 . S
C392 C162 1.597 . S
C401 C174 1.530 . S
C403 C6 1.557 . S
C412 C20 1.559 . S
C414 C188 1.528 . S
C423 C202 1.532 . S
C425 C34 1.557 . S
C434 C216 1.530 . S
C436 C48 1.558 . S
C445 C118 1.560 . S
C447 C62 1.528 . S
C456 C132 1.556 . S
C458 C76 1.531 . S
C467 C90 1.527 . S
C469 C146 1.559 . S
C478 C104 1.527 . S
C480 C160 1.559 . S
C489 C35 1.203 . S
C491 C7 1.190 . S
C500 C21 1.189 . S
C502 C49 1.202 . S
C511 C92 1.929 . S
C513 C64 1.930 . S
C522 C78 1.929 . S
C524 C106 1.930 . S
C533 C147 1.203 . S
C535 C119 1.191 . S
C544 C161 1.189 . S
C546 C133 1.202 . S
C555 C204 1.929 . S
C557 C176 1.930 . S
C566 C218 1.929 . S
C568 C190 1.930 . S
