# Generated by pormake.
# Topology uox, (4)-cn, num edge types: 1
# Building blocks:
#     Node 0, Type 0, BuildingBlock: CEKHIL_clean_sbu_0, # of connection points: 4
#     Node 1, Type 0, BuildingBlock: CEKHIL_clean_sbu_0, # of connection points: 4
#     Node 2, Type 0, BuildingBlock: CEKHIL_clean_sbu_0, # of connection points: 4
#     Node 3, Type 0, BuildingBlock: CEKHIL_clean_sbu_0, # of connection points: 4
#     Node 4, Type 0, BuildingBlock: CEKHIL_clean_sbu_0, # of connection points: 4
#     Node 5, Type 0, BuildingBlock: CEKHIL_clean_sbu_0, # of connection points: 4
#     Node 6, Type 0, BuildingBlock: CEKHIL_clean_sbu_0, # of connection points: 4
#     Node 7, Type 0, BuildingBlock: CEKHIL_clean_sbu_0, # of connection points: 4
#     Node 8, Type 0, BuildingBlock: CEKHIL_clean_sbu_0, # of connection points: 4
#     Node 9, Type 0, BuildingBlock: CEKHIL_clean_sbu_0, # of connection points: 4
#     Node 10, Type 0, BuildingBlock: CEKHIL_clean_sbu_0, # of connection points: 4
#     Node 11, Type 0, BuildingBlock: CEKHIL_clean_sbu_0, # of connection points: 4
#     Node 12, Type 0, BuildingBlock: CEKHIL_clean_sbu_0, # of connection points: 4
#     Node 13, Type 0, BuildingBlock: CEKHIL_clean_sbu_0, # of connection points: 4
#     Node 14, Type 0, BuildingBlock: CEKHIL_clean_sbu_0, # of connection points: 4
#     Node 15, Type 0, BuildingBlock: CEKHIL_clean_sbu_0, # of connection points: 4
#     Node 16, Type 0, BuildingBlock: CEKHIL_clean_sbu_0, # of connection points: 4
#     Node 17, Type 0, BuildingBlock: CEKHIL_clean_sbu_0, # of connection points: 4
#     Node 18, Type 0, BuildingBlock: CEKHIL_clean_sbu_0, # of connection points: 4
#     Node 19, Type 0, BuildingBlock: CEKHIL_clean_sbu_0, # of connection points: 4
#     Node 20, Type 0, BuildingBlock: CEKHIL_clean_sbu_0, # of connection points: 4
#     Node 21, Type 0, BuildingBlock: CEKHIL_clean_sbu_0, # of connection points: 4
#     Node 22, Type 0, BuildingBlock: CEKHIL_clean_sbu_0, # of connection points: 4
#     Node 23, Type 0, BuildingBlock: CEKHIL_clean_sbu_0, # of connection points: 4
#     Node 24, Type 0, BuildingBlock: CEKHIL_clean_sbu_0, # of connection points: 4
#     Node 25, Type 0, BuildingBlock: CEKHIL_clean_sbu_0, # of connection points: 4
#     Node 26, Type 0, BuildingBlock: CEKHIL_clean_sbu_0, # of connection points: 4
#     Node 27, Type 0, BuildingBlock: CEKHIL_clean_sbu_0, # of connection points: 4
#     Node 28, Type 0, BuildingBlock: CEKHIL_clean_sbu_0, # of connection points: 4
#     Node 29, Type 0, BuildingBlock: CEKHIL_clean_sbu_0, # of connection points: 4
#     Node 30, Type 0, BuildingBlock: CEKHIL_clean_sbu_0, # of connection points: 4
#     Node 31, Type 0, BuildingBlock: CEKHIL_clean_sbu_0, # of connection points: 4
#     Edge 32, Type (0, 0), BuildingBlock: EZIPEK_clean_linker_0, # of connection points: 2
#     Edge 33, Type (0, 0), BuildingBlock: EZIPEK_clean_linker_0, # of connection points: 2
#     Edge 34, Type (0, 0), BuildingBlock: EZIPEK_clean_linker_0, # of connection points: 2
#     Edge 35, Type (0, 0), BuildingBlock: EZIPEK_clean_linker_0, # of connection points: 2
#     Edge 36, Type (0, 0), BuildingBlock: EZIPEK_clean_linker_0, # of connection points: 2
#     Edge 37, Type (0, 0), BuildingBlock: EZIPEK_clean_linker_0, # of connection points: 2
#     Edge 38, Type (0, 0), BuildingBlock: EZIPEK_clean_linker_0, # of connection points: 2
#     Edge 39, Type (0, 0), BuildingBlock: EZIPEK_clean_linker_0, # of connection points: 2
#     Edge 40, Type (0, 0), BuildingBlock: EZIPEK_clean_linker_0, # of connection points: 2
#     Edge 41, Type (0, 0), BuildingBlock: EZIPEK_clean_linker_0, # of connection points: 2
#     Edge 42, Type (0, 0), BuildingBlock: EZIPEK_clean_linker_0, # of connection points: 2
#     Edge 43, Type (0, 0), BuildingBlock: EZIPEK_clean_linker_0, # of connection points: 2
#     Edge 44, Type (0, 0), BuildingBlock: EZIPEK_clean_linker_0, # of connection points: 2
#     Edge 45, Type (0, 0), BuildingBlock: EZIPEK_clean_linker_0, # of connection points: 2
#     Edge 46, Type (0, 0), BuildingBlock: EZIPEK_clean_linker_0, # of connection points: 2
#     Edge 47, Type (0, 0), BuildingBlock: EZIPEK_clean_linker_0, # of connection points: 2
#     Edge 48, Type (0, 0), BuildingBlock: EZIPEK_clean_linker_0, # of connection points: 2
#     Edge 49, Type (0, 0), BuildingBlock: EZIPEK_clean_linker_0, # of connection points: 2
#     Edge 50, Type (0, 0), BuildingBlock: EZIPEK_clean_linker_0, # of connection points: 2
#     Edge 51, Type (0, 0), BuildingBlock: EZIPEK_clean_linker_0, # of connection points: 2
#     Edge 52, Type (0, 0), BuildingBlock: EZIPEK_clean_linker_0, # of connection points: 2
#     Edge 53, Type (0, 0), BuildingBlock: EZIPEK_clean_linker_0, # of connection points: 2
#     Edge 54, Type (0, 0), BuildingBlock: EZIPEK_clean_linker_0, # of connection points: 2
#     Edge 55, Type (0, 0), BuildingBlock: EZIPEK_clean_linker_0, # of connection points: 2
#     Edge 56, Type (0, 0), BuildingBlock: EZIPEK_clean_linker_0, # of connection points: 2
#     Edge 57, Type (0, 0), BuildingBlock: EZIPEK_clean_linker_0, # of connection points: 2
#     Edge 58, Type (0, 0), BuildingBlock: EZIPEK_clean_linker_0, # of connection points: 2
#     Edge 59, Type (0, 0), BuildingBlock: EZIPEK_clean_linker_0, # of connection points: 2
#     Edge 60, Type (0, 0), BuildingBlock: EZIPEK_clean_linker_0, # of connection points: 2
#     Edge 61, Type (0, 0), BuildingBlock: EZIPEK_clean_linker_0, # of connection points: 2
#     Edge 62, Type (0, 0), BuildingBlock: EZIPEK_clean_linker_0, # of connection points: 2
#     Edge 63, Type (0, 0), BuildingBlock: EZIPEK_clean_linker_0, # of connection points: 2
#     Edge 64, Type (0, 0), BuildingBlock: EZIPEK_clean_linker_0, # of connection points: 2
#     Edge 65, Type (0, 0), BuildingBlock: EZIPEK_clean_linker_0, # of connection points: 2
#     Edge 66, Type (0, 0), BuildingBlock: EZIPEK_clean_linker_0, # of connection points: 2
#     Edge 67, Type (0, 0), BuildingBlock: EZIPEK_clean_linker_0, # of connection points: 2
#     Edge 68, Type (0, 0), BuildingBlock: EZIPEK_clean_linker_0, # of connection points: 2
#     Edge 69, Type (0, 0), BuildingBlock: EZIPEK_clean_linker_0, # of connection points: 2
#     Edge 70, Type (0, 0), BuildingBlock: EZIPEK_clean_linker_0, # of connection points: 2
#     Edge 71, Type (0, 0), BuildingBlock: EZIPEK_clean_linker_0, # of connection points: 2
#     Edge 72, Type (0, 0), BuildingBlock: EZIPEK_clean_linker_0, # of connection points: 2
#     Edge 73, Type (0, 0), BuildingBlock: EZIPEK_clean_linker_0, # of connection points: 2
#     Edge 74, Type (0, 0), BuildingBlock: EZIPEK_clean_linker_0, # of connection points: 2
#     Edge 75, Type (0, 0), BuildingBlock: EZIPEK_clean_linker_0, # of connection points: 2
#     Edge 76, Type (0, 0), BuildingBlock: EZIPEK_clean_linker_0, # of connection points: 2
#     Edge 77, Type (0, 0), BuildingBlock: EZIPEK_clean_linker_0, # of connection points: 2
#     Edge 78, Type (0, 0), BuildingBlock: EZIPEK_clean_linker_0, # of connection points: 2
#     Edge 79, Type (0, 0), BuildingBlock: EZIPEK_clean_linker_0, # of connection points: 2
#     Edge 80, Type (0, 0), BuildingBlock: EZIPEK_clean_linker_0, # of connection points: 2
#     Edge 81, Type (0, 0), BuildingBlock: EZIPEK_clean_linker_0, # of connection points: 2
#     Edge 82, Type (0, 0), BuildingBlock: EZIPEK_clean_linker_0, # of connection points: 2
#     Edge 83, Type (0, 0), BuildingBlock: EZIPEK_clean_linker_0, # of connection points: 2
#     Edge 84, Type (0, 0), BuildingBlock: EZIPEK_clean_linker_0, # of connection points: 2
#     Edge 85, Type (0, 0), BuildingBlock: EZIPEK_clean_linker_0, # of connection points: 2
#     Edge 86, Type (0, 0), BuildingBlock: EZIPEK_clean_linker_0, # of connection points: 2
#     Edge 87, Type (0, 0), BuildingBlock: EZIPEK_clean_linker_0, # of connection points: 2
#     Edge 88, Type (0, 0), BuildingBlock: EZIPEK_clean_linker_0, # of connection points: 2
#     Edge 89, Type (0, 0), BuildingBlock: EZIPEK_clean_linker_0, # of connection points: 2
#     Edge 90, Type (0, 0), BuildingBlock: EZIPEK_clean_linker_0, # of connection points: 2
#     Edge 91, Type (0, 0), BuildingBlock: EZIPEK_clean_linker_0, # of connection points: 2
#     Edge 92, Type (0, 0), BuildingBlock: EZIPEK_clean_linker_0, # of connection points: 2
#     Edge 93, Type (0, 0), BuildingBlock: EZIPEK_clean_linker_0, # of connection points: 2
#     Edge 94, Type (0, 0), BuildingBlock: EZIPEK_clean_linker_0, # of connection points: 2
#     Edge 95, Type (0, 0), BuildingBlock: EZIPEK_clean_linker_0, # of connection points: 2
# Relax obj value: 0.060
# Max RMSD: 0.090
# Mean RMSD: 0.090
data_MOF--net-uox--node1-CEKHIL_clean_sbu_0--edge1-EZIPEK_clean_linker_0
_symmetry_space_group_name_H-M    P1
_symmetry_Int_Tables_number       1
_symmetry_cell_setting            triclinic
loop_
_symmetry_equiv_pos_as_xyz
'x, y, z'
_cell_length_a     33.5349
_cell_length_b     33.562189
_cell_length_c     56.298356
_cell_angle_alpha  89.968126
_cell_angle_beta   90.005565
_cell_angle_gamma 89.997328
loop_
_atom_site_label
_atom_site_type_symbol
_atom_site_fract_x
_atom_site_fract_y
_atom_site_fract_z
_atom_type_partial_charge
Co0 Co 0.4304 0.06593 0.17325 0.0
O1 O 0.44704 0.02467 0.19522 0.0
O2 O 0.39891 0.06802 0.20225 0.0
C3 C 0.49228 0.08825 0.16358 0.0
O4 O 0.40646 0.11387 0.15555 0.0
Co5 Co 0.45317 0.06045 0.11965 0.0
O6 O 0.42739 0.11341 0.11745 0.0
C7 C 0.38965 0.00912 0.13823 0.0
C8 C 0.42041 0.03835 0.20984 0.0
C9 C 0.40838 0.12943 0.13456 0.0
O10 O 0.39044 0.02821 0.1581 0.0
O11 O 0.41455 0.01493 0.12139 0.0
O12 O 0.47534 0.09917 0.18328 0.0
O13 O 0.47333 0.06096 0.15195 0.0
Co14 Co 0.19439 0.16605 0.41976 0.0
O15 O 0.23603 0.18352 0.44113 0.0
O16 O 0.19081 0.13795 0.44989 0.0
C17 C 0.17342 0.22715 0.4077 0.0
O18 O 0.14566 0.14216 0.40285 0.0
Co19 Co 0.20162 0.18263 0.36549 0.0
O20 O 0.14831 0.15735 0.36384 0.0
C21 C 0.2524 0.12182 0.38727 0.0
C22 C 0.22109 0.15926 0.45675 0.0
C23 C 0.13074 0.14189 0.38168 0.0
O24 O 0.2313 0.12368 0.40638 0.0
O25 O 0.24799 0.14561 0.36971 0.0
O26 O 0.16242 0.21267 0.42807 0.0
O27 O 0.20049 0.2065 0.39687 0.0
Co28 Co 0.08062 0.94902 0.67287 0.0
O29 O 0.06409 0.98754 0.69655 0.0
O30 O 0.11006 0.94153 0.70235 0.0
C31 C 0.01687 0.93247 0.66166 0.0
O32 O 0.10409 0.90208 0.65402 0.0
Co33 Co 0.06321 0.95937 0.62015 0.0
O34 O 0.08422 0.90477 0.61598 0.0
C35 C 0.12518 0.00867 0.64174 0.0
C36 C 0.08934 0.97095 0.71095 0.0
C37 C 0.10214 0.88721 0.63293 0.0
O38 O 0.12277 0.98743 0.66075 0.0
O39 O 0.10176 0.00448 0.62403 0.0
O40 O 0.03444 0.91605 0.67977 0.0
O41 O 0.03799 0.95977 0.65138 0.0
Co42 Co 0.3125 0.8251 0.92268 0.0
O43 O 0.2726 0.80949 0.94574 0.0
O44 O 0.31795 0.856 0.95183 0.0
C45 C 0.33254 0.76292 0.91253 0.0
O46 O 0.35978 0.84752 0.90356 0.0
Co47 Co 0.30168 0.80255 0.86945 0.0
O48 O 0.35351 0.82979 0.86512 0.0
C49 C 0.25321 0.86672 0.88955 0.0
C50 C 0.28839 0.83513 0.96019 0.0
C51 C 0.37255 0.84678 0.88188 0.0
O52 O 0.27446 0.86596 0.90865 0.0
O53 O 0.25681 0.84143 0.87273 0.0
O54 O 0.34561 0.77972 0.93178 0.0
O55 O 0.30454 0.78219 0.90165 0.0
Co56 Co 0.41786 0.94301 0.34241 0.0
O57 O 0.44046 0.98255 0.32111 0.0
O58 O 0.39121 0.94178 0.31179 0.0
C59 C 0.47727 0.91871 0.35585 0.0
O60 O 0.38712 0.89747 0.35831 0.0
Co61 Co 0.43062 0.94455 0.39685 0.0
O62 O 0.40695 0.89033 0.39616 0.0
C63 C 0.37335 1.00035 0.37501 0.0
C64 C 0.41518 0.97017 0.30525 0.0
C65 C 0.38733 0.87832 0.37816 0.0
O66 O 0.3779 0.98319 0.35473 0.0
O67 O 0.39358 0.99137 0.39354 0.0
O68 O 0.46234 0.90671 0.33577 0.0
O69 O 0.45746 0.94665 0.36634 0.0
Co70 Co 0.30326 0.17066 0.59188 0.0
O71 O 0.26334 0.18661 0.56903 0.0
O72 O 0.30769 0.13911 0.56294 0.0
C73 C 0.32269 0.23474 0.60018 0.0
O74 O 0.35062 0.14752 0.61052 0.0
Co75 Co 0.29722 0.19498 0.64446 0.0
O76 O 0.35334 0.1769 0.64641 0.0
C77 C 0.24658 0.12941 0.62663 0.0
C78 C 0.27855 0.1606 0.55462 0.0
C79 C 0.3683 0.15456 0.63046 0.0
O80 O 0.26457 0.13116 0.60641 0.0
O81 O 0.2537 0.15363 0.64369 0.0
O82 O 0.33682 0.21491 0.58233 0.0
O83 O 0.29606 0.21523 0.61212 0.0
Co84 Co 0.08867 0.0514 0.84696 0.0
O85 O 0.06889 0.01237 0.8244 0.0
O86 O 0.11492 0.0574 0.81641 0.0
C87 C 0.0277 0.07068 0.86106 0.0
O88 O 0.11512 0.09857 0.86398 0.0
Co89 Co 0.07879 0.04214 0.9004 0.0
O90 O 0.10202 0.09625 0.90307 0.0
C91 C 0.13567 0.99095 0.87654 0.0
C92 C 0.09296 0.02807 0.80893 0.0
C93 C 0.11663 0.11361 0.88501 0.0
O94 O 0.13169 0.01252 0.85773 0.0
O95 O 0.11428 0.9954 0.89507 0.0
O96 O 0.04215 0.08509 0.84144 0.0
O97 O 0.04879 0.04254 0.87065 0.0
Co98 Co 0.20783 0.83981 0.0965 0.0
O99 O 0.2475 0.81904 0.07459 0.0
O100 O 0.20194 0.86376 0.06518 0.0
C101 C 0.1887 0.77976 0.11209 0.0
O102 O 0.15998 0.8669 0.11264 0.0
Co103 Co 0.21592 0.83356 0.15028 0.0
O104 O 0.16092 0.85476 0.15188 0.0
C105 C 0.26693 0.88981 0.12549 0.0
C106 C 0.23174 0.84177 0.05843 0.0
C107 C 0.14403 0.86858 0.13346 0.0
O108 O 0.24637 0.8838 0.10644 0.0
O109 O 0.26169 0.87006 0.1446 0.0
O110 O 0.17475 0.79255 0.09194 0.0
O111 O 0.21654 0.80171 0.12127 0.0
Co112 Co 0.58308 0.94039 0.83869 0.0
O113 O 0.56625 0.98093 0.81637 0.0
O114 O 0.61398 0.93707 0.8095 0.0
C115 C 0.52148 0.91855 0.8492 0.0
O116 O 0.6069 0.89286 0.85698 0.0
Co117 Co 0.56208 0.94904 0.89226 0.0
O118 O 0.58714 0.89579 0.89527 0.0
C119 C 0.62463 0.99943 0.87194 0.0
C120 C 0.59261 0.96673 0.80177 0.0
C121 C 0.60509 0.87831 0.87825 0.0
O122 O 0.62366 0.97849 0.85279 0.0
O123 O 0.60004 0.99497 0.88909 0.0
O124 O 0.53788 0.90704 0.82946 0.0
O125 O 0.5406 0.94647 0.86026 0.0
Co126 Co 0.80469 0.83719 0.59477 0.0
O127 O 0.7668 0.81842 0.57145 0.0
O128 O 0.81214 0.86468 0.56454 0.0
C129 C 0.82393 0.77644 0.60794 0.0
O130 O 0.85033 0.86237 0.61411 0.0
Co131 Co 0.78977 0.82219 0.64795 0.0
O132 O 0.83858 0.85424 0.65303 0.0
C133 C 0.74179 0.88211 0.62381 0.0
C134 C 0.78314 0.84276 0.55644 0.0
C135 C 0.86025 0.86711 0.63613 0.0
O136 O 0.765 0.87933 0.60562 0.0
O137 O 0.74412 0.85897 0.64177 0.0
O138 O 0.83916 0.79136 0.58872 0.0
O139 O 0.79479 0.79638 0.6172 0.0
Co140 Co 0.91654 0.05341 0.34263 0.0
O141 O 0.93439 0.01325 0.32045 0.0
O142 O 0.88829 0.05835 0.31255 0.0
C143 C 0.97786 0.0738 0.35451 0.0
O144 O 0.89242 0.10097 0.36063 0.0
Co145 Co 0.93388 0.04342 0.39644 0.0
O146 O 0.90747 0.09592 0.39955 0.0
C147 C 0.87245 0.99388 0.37435 0.0
C148 C 0.91009 0.02881 0.30509 0.0
C149 C 0.89195 0.11456 0.38213 0.0
O150 O 0.87449 0.01542 0.35542 0.0
O151 O 0.89631 0.99763 0.39191 0.0
O152 O 0.96248 0.08646 0.33474 0.0
O153 O 0.95777 0.04596 0.36504 0.0
Co154 Co 0.70419 0.17297 0.09122 0.0
O155 O 0.74198 0.18932 0.06719 0.0
O156 O 0.69678 0.14229 0.06217 0.0
C157 C 0.68581 0.23677 0.10103 0.0
O158 O 0.65863 0.14959 0.11122 0.0
Co159 Co 0.71552 0.19568 0.1438 0.0
O160 O 0.65916 0.17891 0.14717 0.0
C161 C 0.76329 0.12982 0.12365 0.0
C162 C 0.72537 0.16367 0.0531 0.0
C163 C 0.64266 0.15687 0.13163 0.0
O164 O 0.74383 0.13272 0.10398 0.0
O165 O 0.75799 0.15348 0.14122 0.0
O166 O 0.66995 0.21767 0.08338 0.0
O167 O 0.7136 0.21681 0.11168 0.0
Co168 Co 0.58138 0.06265 0.67011 0.0
O169 O 0.56504 0.02137 0.69211 0.0
O170 O 0.61302 0.06494 0.69902 0.0
C171 C 0.51942 0.08479 0.66042 0.0
O172 O 0.60484 0.11078 0.65236 0.0
Co173 Co 0.55896 0.05642 0.61659 0.0
O174 O 0.58395 0.10978 0.61426 0.0
C175 C 0.6216 0.00464 0.63564 0.0
C176 C 0.59174 0.03514 0.70664 0.0
C177 C 0.60253 0.1263 0.63138 0.0
O178 O 0.62148 0.02493 0.65507 0.0
O179 O 0.59641 0.00993 0.61887 0.0
O180 O 0.53632 0.0957 0.68014 0.0
O181 O 0.53844 0.05746 0.64883 0.0
Co182 Co 0.69538 0.82993 0.42242 0.0
O183 O 0.73811 0.81383 0.44349 0.0
O184 O 0.69316 0.85968 0.45207 0.0
C185 C 0.67447 0.76775 0.41218 0.0
O186 O 0.64571 0.85274 0.4057 0.0
Co187 Co 0.69997 0.80991 0.36847 0.0
O188 O 0.646 0.83378 0.36724 0.0
C189 C 0.75111 0.87288 0.38787 0.0
C190 C 0.72379 0.8388 0.45889 0.0
C191 C 0.62955 0.85108 0.38484 0.0
O192 O 0.73142 0.87166 0.40753 0.0
O193 O 0.74573 0.84824 0.37084 0.0
O194 O 0.66423 0.78362 0.4323 0.0
O195 O 0.70069 0.78801 0.40038 0.0
Co196 Co 0.92466 0.94747 0.16979 0.0
O197 O 0.94058 0.98823 0.19215 0.0
O198 O 0.89463 0.94259 0.19922 0.0
C199 C 0.98724 0.92822 0.15919 0.0
O200 O 0.90171 0.89942 0.15167 0.0
Co201 Co 0.94492 0.95569 0.11614 0.0
O202 O 0.92154 0.90165 0.11341 0.0
C203 C 0.88242 0.00607 0.13687 0.0
C204 C 0.91537 0.97264 0.20698 0.0
C205 C 0.90368 0.88441 0.13055 0.0
O206 O 0.8831 0.9848 0.15593 0.0
O207 O 0.90715 0.00174 0.11977 0.0
O208 O 0.97107 0.91552 0.17874 0.0
O209 O 0.96677 0.95509 0.14807 0.0
Co210 Co 0.80529 0.16295 0.91713 0.0
O211 O 0.76565 0.1848 0.93854 0.0
O212 O 0.80727 0.13616 0.94766 0.0
C213 C 0.82917 0.22279 0.90425 0.0
O214 O 0.85118 0.13298 0.90112 0.0
Co215 Co 0.80395 0.17642 0.86291 0.0
O216 O 0.85897 0.15465 0.8637 0.0
C217 C 0.74802 0.11872 0.8843 0.0
C218 C 0.77889 0.15995 0.95441 0.0
C219 C 0.87102 0.13464 0.88155 0.0
O220 O 0.76511 0.1231 0.90464 0.0
O221 O 0.75732 0.13903 0.86586 0.0
O222 O 0.84128 0.20732 0.92414 0.0
O223 O 0.80134 0.20311 0.89348 0.0
Co224 Co 0.91813 0.55949 0.67161 0.0
O225 O 0.93905 0.5187 0.6926 0.0
O226 O 0.89171 0.56153 0.70223 0.0
C227 C 0.97859 0.58169 0.65853 0.0
O228 O 0.88928 0.60666 0.65615 0.0
Co229 Co 0.93111 0.55822 0.6172 0.0
O230 O 0.90613 0.61177 0.61763 0.0
C231 C 0.87231 0.50374 0.63868 0.0
C232 C 0.91461 0.53218 0.7086 0.0
C233 C 0.88819 0.6248 0.63599 0.0
O234 O 0.87678 0.52093 0.65898 0.0
O235 O 0.89329 0.5121 0.62036 0.0
O236 O 0.96384 0.59383 0.67861 0.0
O237 O 0.95782 0.55478 0.64772 0.0
Co238 Co 0.69811 0.66691 0.92008 0.0
O239 O 0.73954 0.68419 0.9417 0.0
O240 O 0.69396 0.63893 0.95027 0.0
C241 C 0.67801 0.72844 0.90803 0.0
O242 O 0.64944 0.64329 0.90284 0.0
Co243 Co 0.70604 0.68379 0.86583 0.0
O244 O 0.65248 0.65916 0.86392 0.0
C245 C 0.75551 0.62166 0.88759 0.0
C246 C 0.72418 0.66018 0.9573 0.0
C247 C 0.63476 0.6433 0.88158 0.0
O248 O 0.73482 0.62417 0.90683 0.0
O249 O 0.75134 0.6454 0.86998 0.0
O250 O 0.66652 0.71382 0.92826 0.0
O251 O 0.70487 0.70746 0.89726 0.0
Co252 Co 0.58837 0.44765 0.17158 0.0
O253 O 0.57053 0.48786 0.19371 0.0
O254 O 0.6166 0.44281 0.2017 0.0
C255 C 0.52696 0.42749 0.15958 0.0
O256 O 0.61276 0.40018 0.15361 0.0
Co257 Co 0.57059 0.45789 0.11775 0.0
O258 O 0.59669 0.40522 0.11488 0.0
C259 C 0.63247 0.50712 0.13979 0.0
C260 C 0.59494 0.47251 0.20908 0.0
C261 C 0.61305 0.38669 0.1321 0.0
O262 O 0.6304 0.48571 0.15878 0.0
O263 O 0.60854 0.50337 0.12225 0.0
O264 O 0.54224 0.41451 0.17932 0.0
O265 O 0.54722 0.45528 0.14919 0.0
Co266 Co 0.80355 0.3302 0.41942 0.0
O267 O 0.76395 0.31523 0.44266 0.0
O268 O 0.80954 0.36178 0.44826 0.0
C269 C 0.82335 0.26757 0.40967 0.0
O270 O 0.85021 0.35189 0.39965 0.0
Co271 Co 0.78993 0.30656 0.36672 0.0
O272 O 0.84369 0.33008 0.3619 0.0
C273 C 0.74162 0.37024 0.3876 0.0
C274 C 0.77996 0.34115 0.45683 0.0
C275 C 0.86296 0.34849 0.37806 0.0
O276 O 0.76594 0.37127 0.40532 0.0
O277 O 0.74288 0.3428 0.37183 0.0
O278 O 0.83649 0.2848 0.42877 0.0
O279 O 0.79513 0.28672 0.3989 0.0
Co280 Co 0.9205 0.44248 0.84231 0.0
O281 O 0.93814 0.48472 0.82136 0.0
O282 O 0.89295 0.43948 0.81201 0.0
C283 C 0.98193 0.42208 0.85431 0.0
O284 O 0.89649 0.39314 0.8586 0.0
Co285 Co 0.93635 0.44748 0.89672 0.0
O286 O 0.91234 0.39358 0.89755 0.0
C287 C 0.87533 0.49881 0.87533 0.0
C288 C 0.91431 0.46991 0.80548 0.0
C289 C 0.89652 0.37707 0.87948 0.0
O290 O 0.87768 0.47875 0.85586 0.0
O291 O 0.89879 0.4936 0.89297 0.0
O292 O 0.96754 0.41129 0.83389 0.0
O293 O 0.96068 0.44833 0.86544 0.0
Co294 Co 0.81009 0.67152 0.09184 0.0
O295 O 0.768 0.6876 0.07031 0.0
O296 O 0.81339 0.64193 0.06219 0.0
C297 C 0.83055 0.73367 0.10245 0.0
O298 O 0.85937 0.64889 0.10896 0.0
Co299 Co 0.80413 0.69123 0.14581 0.0
O300 O 0.85828 0.66785 0.14742 0.0
C301 C 0.75373 0.62811 0.12589 0.0
C302 C 0.78299 0.66279 0.05503 0.0
C303 C 0.87518 0.65075 0.1299 0.0
O304 O 0.77375 0.62956 0.10634 0.0
O305 O 0.75868 0.65267 0.143 0.0
O306 O 0.84136 0.718 0.08238 0.0
O307 O 0.80404 0.71327 0.11393 0.0
Co308 Co 0.58071 0.55597 0.3439 0.0
O309 O 0.56501 0.51568 0.32127 0.0
O310 O 0.61144 0.56102 0.31467 0.0
C311 C 0.51817 0.57571 0.35407 0.0
O312 O 0.60325 0.60328 0.36277 0.0
Co313 Co 0.55897 0.54476 0.39699 0.0
O314 O 0.5836 0.59818 0.401 0.0
C315 C 0.62089 0.49456 0.37583 0.0
C316 C 0.5906 0.53117 0.30667 0.0
C317 C 0.60126 0.61675 0.38426 0.0
O318 O 0.62207 0.51858 0.35796 0.0
O319 O 0.59382 0.49672 0.3918 0.0
O320 O 0.53489 0.58863 0.33475 0.0
O321 O 0.53784 0.54804 0.365 0.0
Co322 Co 0.6949 0.33853 0.59146 0.0
O323 O 0.73726 0.32198 0.57036 0.0
O324 O 0.69154 0.36686 0.56134 0.0
C325 C 0.67503 0.27673 0.60285 0.0
O326 O 0.6454 0.36132 0.60829 0.0
Co327 Co 0.70129 0.32058 0.64571 0.0
O328 O 0.64731 0.34439 0.6471 0.0
C329 C 0.75138 0.38287 0.62472 0.0
C330 C 0.72217 0.34589 0.55461 0.0
C331 C 0.62996 0.36044 0.62936 0.0
O332 O 0.73079 0.3812 0.60541 0.0
O333 O 0.747 0.35859 0.64203 0.0
O334 O 0.66405 0.29155 0.58257 0.0
O335 O 0.70132 0.29774 0.61408 0.0
Co336 Co 0.07719 0.44078 0.34002 0.0
O337 O 0.06153 0.48318 0.31856 0.0
O338 O 0.1091 0.43934 0.31123 0.0
C339 C 0.01467 0.41907 0.34887 0.0
O340 O 0.10017 0.3916 0.357 0.0
Co341 Co 0.05358 0.44353 0.39358 0.0
O342 O 0.07751 0.38959 0.39472 0.0
C343 C 0.11772 0.4955 0.37617 0.0
C344 C 0.08799 0.46941 0.30385 0.0
C345 C 0.09717 0.3746 0.37754 0.0
O346 O 0.11736 0.4772 0.35604 0.0
O347 O 0.09239 0.48906 0.39273 0.0
O348 O 0.03188 0.40906 0.32909 0.0
O349 O 0.03399 0.44525 0.36118 0.0
Co350 Co 0.31017 0.33776 0.09285 0.0
O351 O 0.26841 0.32046 0.07153 0.0
O352 O 0.31367 0.36597 0.06273 0.0
C353 C 0.33099 0.27651 0.10461 0.0
O354 O 0.3591 0.3613 0.10983 0.0
Co355 Co 0.30303 0.32049 0.14709 0.0
O356 O 0.35673 0.34488 0.14869 0.0
C357 C 0.25272 0.38213 0.12566 0.0
C358 C 0.28344 0.34459 0.05587 0.0
C359 C 0.37423 0.36079 0.13097 0.0
O360 O 0.27351 0.38015 0.10643 0.0
O361 O 0.25714 0.35822 0.14316 0.0
O362 O 0.34184 0.29117 0.08427 0.0
O363 O 0.30407 0.29711 0.11559 0.0
Co364 Co 0.42198 0.55235 0.84145 0.0
O365 O 0.43755 0.51351 0.81779 0.0
O366 O 0.3902 0.55854 0.81283 0.0
C367 C 0.48402 0.57276 0.85197 0.0
O368 O 0.39945 0.59873 0.861 0.0
Co369 Co 0.44401 0.53973 0.89452 0.0
O370 O 0.41815 0.59222 0.89927 0.0
C371 C 0.38036 0.49155 0.87368 0.0
C372 C 0.41094 0.52938 0.80395 0.0
C373 C 0.40092 0.61143 0.88265 0.0
O374 O 0.38119 0.51373 0.85498 0.0
O375 O 0.40557 0.49447 0.89062 0.0
O376 O 0.46722 0.586 0.83272 0.0
O377 O 0.46501 0.54414 0.86245 0.0
Co378 Co 0.19261 0.67455 0.59109 0.0
O379 O 0.23257 0.6924 0.5686 0.0
O380 O 0.18815 0.64549 0.56126 0.0
C381 C 0.17098 0.73586 0.60266 0.0
O382 O 0.14536 0.64993 0.60924 0.0
Co383 Co 0.2021 0.6927 0.64473 0.0
O384 O 0.14977 0.6659 0.64803 0.0
C385 C 0.25237 0.63108 0.6234 0.0
C386 C 0.21751 0.66728 0.55354 0.0
C387 C 0.13157 0.64966 0.6307 0.0
O388 O 0.23135 0.63319 0.60423 0.0
O389 O 0.24792 0.65488 0.64092 0.0
O390 O 0.15875 0.72001 0.58293 0.0
O391 O 0.19927 0.71642 0.61325 0.0
Co392 Co 0.08908 0.56249 0.17083 0.0
O393 O 0.06708 0.52311 0.19242 0.0
O394 O 0.11615 0.56441 0.20129 0.0
C395 C 0.02927 0.58597 0.15766 0.0
O396 O 0.11919 0.60811 0.15464 0.0
Co397 Co 0.07567 0.56048 0.11649 0.0
O398 O 0.0989 0.6149 0.11686 0.0
C399 C 0.13321 0.5049 0.13828 0.0
C400 C 0.09243 0.53599 0.2081 0.0
C401 C 0.11855 0.62718 0.13478 0.0
O402 O 0.12911 0.52241 0.15849 0.0
O403 O 0.11262 0.5136 0.11985 0.0
O404 O 0.04444 0.59846 0.17756 0.0
O405 O 0.04921 0.55815 0.14712 0.0
Co406 Co 0.19834 0.33176 0.92139 0.0
O407 O 0.23983 0.3159 0.94331 0.0
O408 O 0.1945 0.36198 0.95078 0.0
C409 C 0.17848 0.26928 0.91128 0.0
O410 O 0.14957 0.35445 0.90378 0.0
Co411 Co 0.20468 0.31091 0.86773 0.0
O412 O 0.1503 0.33369 0.86568 0.0
C413 C 0.25598 0.37356 0.88753 0.0
C414 C 0.22466 0.3411 0.95828 0.0
C415 C 0.13365 0.35184 0.88291 0.0
O416 O 0.23542 0.37302 0.9069 0.0
O417 O 0.2508 0.34875 0.87057 0.0
O418 O 0.16661 0.28562 0.93094 0.0
O419 O 0.20506 0.2895 0.89976 0.0
Co420 Co 0.41527 0.44813 0.66884 0.0
O421 O 0.43234 0.48735 0.6919 0.0
O422 O 0.38494 0.44282 0.69809 0.0
C423 C 0.477 0.42752 0.6577 0.0
O424 O 0.39141 0.40124 0.65016 0.0
Co425 Co 0.43519 0.45888 0.61543 0.0
O426 O 0.41005 0.4058 0.61185 0.0
C427 C 0.373 0.5087 0.63666 0.0
C428 C 0.4065 0.47188 0.70638 0.0
C429 C 0.39262 0.38744 0.62874 0.0
O430 O 0.37424 0.48702 0.65559 0.0
O431 O 0.39746 0.50476 0.6194 0.0
O432 O 0.46071 0.41437 0.67711 0.0
O433 O 0.45752 0.45577 0.64719 0.0
Co434 Co 0.29887 0.66623 0.41735 0.0
O435 O 0.25909 0.68644 0.43937 0.0
O436 O 0.30558 0.64261 0.44868 0.0
C437 C 0.31689 0.72637 0.40144 0.0
O438 O 0.34701 0.63997 0.40105 0.0
Co439 Co 0.28951 0.67164 0.36366 0.0
O440 O 0.34426 0.64989 0.36163 0.0
C441 C 0.23957 0.61547 0.38905 0.0
C442 C 0.27539 0.66402 0.4555 0.0
C443 C 0.36211 0.63719 0.38005 0.0
O444 O 0.261 0.62143 0.40776 0.0
O445 O 0.2437 0.6355 0.36995 0.0
O446 O 0.33122 0.71405 0.42159 0.0
O447 O 0.28919 0.70396 0.3925 0.0
C448 C 0.41591 0.96249 0.26044 0.0
C449 C 0.41403 0.9876 0.28076 0.0
C450 C 0.41763 0.04634 0.25463 0.0
C451 C 0.41591 0.02129 0.23428 0.0
N452 N 0.40378 0.9558 0.21817 0.0
N453 N 0.40331 0.05354 0.29661 0.0
C454 C 0.41218 0.97942 0.2373 0.0
C455 C 0.412 0.02958 0.27768 0.0
N456 N 0.42338 0.92269 0.26305 0.0
N457 N 0.42679 0.08581 0.25221 0.0
H458 H 0.39773 0.04246 0.3136 0.0
H459 H 0.39746 0.0839 0.29493 0.0
H460 H 0.4325 0.09924 0.23587 0.0
H461 H 0.43268 0.10437 0.26662 0.0
H462 H 0.42925 0.90386 0.24876 0.0
H463 H 0.42778 0.90915 0.2795 0.0
H464 H 0.3968 0.92565 0.21967 0.0
H465 H 0.39956 0.96714 0.2011 0.0
C466 C 0.26202 0.19507 0.51622 0.0
C467 C 0.26554 0.15895 0.52922 0.0
C468 C 0.24479 0.12203 0.4935 0.0
C469 C 0.23606 0.15858 0.48178 0.0
N470 N 0.22707 0.2299 0.48504 0.0
N471 N 0.25377 0.08807 0.53121 0.0
C472 C 0.24209 0.19512 0.49399 0.0
C473 C 0.25523 0.12233 0.51813 0.0
N474 N 0.27917 0.22928 0.52455 0.0
N475 N 0.24469 0.08716 0.481 0.0
H476 H 0.26031 0.08717 0.5493 0.0
H477 H 0.24246 0.06137 0.52462 0.0
H478 H 0.23844 0.0858 0.46287 0.0
H479 H 0.25467 0.06025 0.48805 0.0
H480 H 0.28064 0.25541 0.51457 0.0
H481 H 0.29609 0.23035 0.54007 0.0
H482 H 0.22742 0.25659 0.4945 0.0
H483 H 0.2101 0.23131 0.46956 0.0
C484 C 0.09737 0.97193 0.77904 0.0
C485 C 0.09467 0.01344 0.7838 0.0
C486 C 0.0971 0.02649 0.74081 0.0
C487 C 0.09358 0.98506 0.73607 0.0
N488 N 0.08267 0.91865 0.75144 0.0
N489 N 0.0838 0.07992 0.76851 0.0
C490 C 0.09181 0.95777 0.75539 0.0
C491 C 0.09248 0.04071 0.7645 0.0
N492 N 0.10664 0.94597 0.79692 0.0
N493 N 0.10616 0.05231 0.72282 0.0
H494 H 0.0782 0.09147 0.78536 0.0
H495 H 0.07787 0.10006 0.75487 0.0
H496 H 0.11147 0.04296 0.70544 0.0
H497 H 0.11282 0.08226 0.72568 0.0
H498 H 0.11279 0.91595 0.79398 0.0
H499 H 0.11252 0.95517 0.81427 0.0
H500 H 0.0769 0.89855 0.76513 0.0
H501 H 0.07676 0.90711 0.73463 0.0
C502 C 0.2663 0.87518 0.99634 0.0
C503 C 0.27491 0.83782 0.98555 0.0
C504 C 0.2499 0.80389 0.02127 0.0
C505 C 0.24595 0.84095 0.03317 0.0
N506 N 0.25768 0.91191 0.03312 0.0
N507 N 0.28454 0.76694 0.99082 0.0
C508 C 0.25616 0.87669 0.021 0.0
C509 C 0.26949 0.80226 0.99891 0.0
N510 N 0.26603 0.90909 0.9829 0.0
N511 N 0.23314 0.77033 0.03068 0.0
H512 H 0.30116 0.76451 0.97525 0.0
H513 H 0.28457 0.74099 1.001 0.0
H514 H 0.21602 0.77078 0.04612 0.0
H515 H 0.23202 0.74325 0.02165 0.0
H516 H 0.25598 0.93644 0.98928 0.0
H517 H 0.27207 0.90919 0.96474 0.0
H518 H 0.26888 0.93811 0.02575 0.0
H519 H 0.25143 0.91416 0.05121 0.0
C520 C 0.60072 0.02563 0.7744 0.0
C521 C 0.59725 0.98373 0.77733 0.0
C522 C 0.59977 0.97596 0.73389 0.0
C523 C 0.59661 0.01791 0.73101 0.0
N524 N 0.58733 0.0825 0.74922 0.0
N525 N 0.58706 0.91916 0.7593 0.0
C526 C 0.59558 0.0428 0.75144 0.0
C527 C 0.59536 0.95883 0.75693 0.0
N528 N 0.61001 0.04906 0.79346 0.0
N529 N 0.60809 0.95243 0.71471 0.0
H530 H 0.58232 0.9054 0.77565 0.0
H531 H 0.58104 0.90065 0.74489 0.0
H532 H 0.6128 0.96393 0.69772 0.0
H533 H 0.61457 0.92216 0.71613 0.0
H534 H 0.6167 0.07928 0.79196 0.0
H535 H 0.61538 0.03747 0.81036 0.0
H536 H 0.58197 0.10099 0.76373 0.0
H537 H 0.58182 0.0963 0.73296 0.0
C538 C 0.74916 0.87788 0.49454 0.0
C539 C 0.73983 0.84074 0.48371 0.0
C540 C 0.76631 0.80613 0.5188 0.0
C541 C 0.77044 0.84299 0.53093 0.0
N542 N 0.75923 0.91406 0.53137 0.0
N543 N 0.73079 0.76966 0.48851 0.0
C544 C 0.76021 0.879 0.51907 0.0
C545 C 0.74606 0.80488 0.49664 0.0
N546 N 0.74895 0.91196 0.48127 0.0
N547 N 0.78301 0.77229 0.52796 0.0
H548 H 0.71366 0.7674 0.47313 0.0
H549 H 0.73116 0.74352 0.49851 0.0
H550 H 0.79981 0.77205 0.54355 0.0
H551 H 0.78412 0.74546 0.51866 0.0
H552 H 0.75936 0.9392 0.48761 0.0
H553 H 0.74215 0.91227 0.46319 0.0
H554 H 0.74792 0.9404 0.52425 0.0
H555 H 0.76617 0.9161 0.54937 0.0
C556 C 0.94739 0.01132 0.26774 0.0
C557 C 0.91034 0.01547 0.27973 0.0
C558 C 0.87574 0.99569 0.24297 0.0
C559 C 0.91301 0.98672 0.23216 0.0
N560 N 0.98391 0.97654 0.23718 0.0
N561 N 0.83918 0.00465 0.27979 0.0
C562 C 0.94873 0.99187 0.24537 0.0
C563 C 0.8744 0.00581 0.26763 0.0
N564 N 0.98131 0.02752 0.27713 0.0
N565 N 0.84177 0.99617 0.22958 0.0
H566 H 0.83706 0.01089 0.29789 0.0
H567 H 0.8128 0.99382 0.27246 0.0
H568 H 0.84161 0.99003 0.21142 0.0
H569 H 0.81449 0.00642 0.23596 0.0
H570 H 0.00824 0.02861 0.26791 0.0
H571 H 0.98159 0.04402 0.29281 0.0
H572 H 0.00992 0.97614 0.24731 0.0
H573 H 0.98616 0.96008 0.22154 0.0
C574 C 0.75961 0.19706 0.99171 0.0
C575 C 0.76382 0.16031 0.97945 0.0
C576 C 0.74516 0.12478 0.01613 0.0
C577 C 0.73679 0.1617 0.02743 0.0
N578 N 0.72529 0.23244 0.02296 0.0
N579 N 0.75157 0.08939 0.97879 0.0
C580 C 0.74082 0.19769 0.01432 0.0
C581 C 0.75401 0.12416 0.99131 0.0
N582 N 0.77539 0.2313 0.98251 0.0
N583 N 0.74645 0.09045 0.02915 0.0
H584 H 0.75618 0.08787 0.96049 0.0
H585 H 0.74081 0.06296 0.98609 0.0
H586 H 0.74133 0.08968 0.04741 0.0
H587 H 0.75644 0.06343 0.02226 0.0
H588 H 0.77638 0.25798 0.99196 0.0
H589 H 0.79164 0.23217 0.96674 0.0
H590 H 0.72422 0.25863 0.01302 0.0
H591 H 0.70924 0.23403 0.03879 0.0
C592 C 0.87756 0.50523 0.74444 0.0
C593 C 0.91413 0.51593 0.73335 0.0
C594 C 0.95043 0.49119 0.76826 0.0
C595 C 0.91385 0.48539 0.78055 0.0
N596 N 0.84244 0.49438 0.78152 0.0
N597 N 0.98492 0.52771 0.73749 0.0
C598 C 0.8773 0.49443 0.76896 0.0
C599 C 0.95047 0.51132 0.74603 0.0
N600 N 0.84323 0.5037 0.73139 0.0
N601 N 0.98513 0.4759 0.77718 0.0
H602 H 0.9862 0.54438 0.72188 0.0
H603 H 0.01129 0.52858 0.74727 0.0
H604 H 0.98644 0.45914 0.79274 0.0
H605 H 0.01183 0.47594 0.7677 0.0
H606 H 0.81657 0.49226 0.738 0.0
H607 H 0.84231 0.50992 0.71325 0.0
H608 H 0.81557 0.50468 0.77455 0.0
H609 H 0.84107 0.4879 0.79962 0.0
C610 C 0.76304 0.69729 0.01705 0.0
C611 C 0.76811 0.66124 0.02996 0.0
C612 C 0.74807 0.62366 0.99429 0.0
C613 C 0.73854 0.65992 0.98249 0.0
N614 N 0.72741 0.73091 0.98561 0.0
N615 N 0.75824 0.59009 0.03201 0.0
C616 C 0.7433 0.69664 0.99472 0.0
C617 C 0.75867 0.62434 0.01889 0.0
N618 N 0.77872 0.73213 0.02547 0.0
N619 N 0.74863 0.58873 0.98185 0.0
H620 H 0.76478 0.58947 0.05011 0.0
H621 H 0.74765 0.56305 0.02549 0.0
H622 H 0.74206 0.58709 0.96377 0.0
H623 H 0.75932 0.56209 0.9889 0.0
H624 H 0.77925 0.75834 0.01554 0.0
H625 H 0.7953 0.73392 0.04109 0.0
H626 H 0.72666 0.75763 0.99503 0.0
H627 H 0.71088 0.73174 0.96994 0.0
C628 C 0.63009 0.50699 0.27084 0.0
C629 C 0.593 0.5171 0.2815 0.0
C630 C 0.55815 0.49178 0.24626 0.0
C631 C 0.59509 0.48648 0.23433 0.0
N632 N 0.66646 0.496 0.23415 0.0
N633 N 0.52234 0.52853 0.2763 0.0
C634 C 0.63123 0.49592 0.24632 0.0
C635 C 0.55721 0.51219 0.26833 0.0
N636 N 0.66402 0.50636 0.28425 0.0
N637 N 0.52394 0.47574 0.23716 0.0
H638 H 0.52047 0.54568 0.29169 0.0
H639 H 0.49633 0.52901 0.26616 0.0
H640 H 0.52338 0.45844 0.22179 0.0
H641 H 0.497 0.47557 0.2464 0.0
H642 H 0.69106 0.49517 0.27805 0.0
H643 H 0.66435 0.51346 0.30228 0.0
H644 H 0.69304 0.50656 0.24138 0.0
H645 H 0.66848 0.48914 0.21614 0.0
C646 C 0.74316 0.3089 0.51779 0.0
C647 C 0.73699 0.34587 0.52952 0.0
C648 C 0.75644 0.38081 0.49276 0.0
C649 C 0.76699 0.3438 0.4822 0.0
N650 N 0.78031 0.27363 0.4877 0.0
N651 N 0.74498 0.41735 0.52933 0.0
C652 C 0.76327 0.30816 0.49561 0.0
C653 C 0.74559 0.38201 0.51733 0.0
N654 N 0.72802 0.27444 0.52709 0.0
N655 N 0.75514 0.41455 0.47921 0.0
H656 H 0.73826 0.41937 0.54738 0.0
H657 H 0.75485 0.44407 0.52197 0.0
H658 H 0.76223 0.41481 0.46118 0.0
H659 H 0.74354 0.44145 0.48533 0.0
H660 H 0.72845 0.24743 0.51797 0.0
H661 H 0.71083 0.27357 0.5425 0.0
H662 H 0.78171 0.24782 0.49799 0.0
H663 H 0.79714 0.27197 0.47217 0.0
C664 C 0.09594 0.52801 0.27608 0.0
C665 C 0.0922 0.4862 0.27934 0.0
C666 C 0.0959 0.47717 0.23601 0.0
C667 C 0.09389 0.51908 0.23269 0.0
N668 N 0.08461 0.5843 0.25002 0.0
N669 N 0.08065 0.42148 0.26175 0.0
C670 C 0.0921 0.54455 0.25285 0.0
C671 C 0.09021 0.46083 0.25914 0.0
N672 N 0.1044 0.55193 0.29506 0.0
N673 N 0.10459 0.45287 0.21723 0.0
H674 H 0.07459 0.40837 0.27813 0.0
H675 H 0.07464 0.40279 0.24742 0.0
H676 H 0.11026 0.46364 0.20018 0.0
H677 H 0.11039 0.42253 0.21912 0.0
H678 H 0.11138 0.58205 0.29337 0.0
H679 H 0.1086 0.54088 0.31221 0.0
H680 H 0.07882 0.60337 0.2642 0.0
H681 H 0.0801 0.59756 0.23349 0.0
C682 C 0.2639 0.30786 0.01868 0.0
C683 C 0.26883 0.34468 0.03077 0.0
C684 C 0.24863 0.37999 0.99432 0.0
C685 C 0.23909 0.343 0.9834 0.0
N686 N 0.22803 0.27224 0.98819 0.0
N687 N 0.25879 0.41589 0.03124 0.0
C688 C 0.24399 0.30707 0.99643 0.0
C689 C 0.25928 0.38086 0.0189 0.0
N690 N 0.27985 0.27363 0.02781 0.0
N691 N 0.24912 0.41412 0.98109 0.0
H692 H 0.26538 0.41765 0.04931 0.0
H693 H 0.24812 0.44249 0.02412 0.0
H694 H 0.24254 0.4146 0.96299 0.0
H695 H 0.25979 0.44119 0.98752 0.0
H696 H 0.2804 0.24683 0.01845 0.0
H697 H 0.29665 0.27288 0.04337 0.0
H698 H 0.22745 0.24613 0.99822 0.0
H699 H 0.21126 0.27041 0.97264 0.0
C700 C 0.40161 0.47358 0.77449 0.0
C701 C 0.40542 0.51504 0.77901 0.0
C702 C 0.40034 0.52778 0.73607 0.0
C703 C 0.4031 0.48626 0.73145 0.0
N704 N 0.41344 0.41973 0.74684 0.0
N705 N 0.41528 0.58143 0.76333 0.0
C706 C 0.40535 0.45908 0.75081 0.0
C707 C 0.40635 0.5422 0.7596 0.0
N708 N 0.39332 0.44802 0.79274 0.0
N709 N 0.39092 0.55347 0.71808 0.0
H710 H 0.42146 0.59323 0.78004 0.0
H711 H 0.42054 0.60147 0.74954 0.0
H712 H 0.38503 0.54395 0.70079 0.0
H713 H 0.38471 0.58353 0.72086 0.0
H714 H 0.38638 0.41807 0.79013 0.0
H715 H 0.38904 0.45758 0.81019 0.0
H716 H 0.41964 0.39965 0.76047 0.0
H717 H 0.41803 0.40783 0.72998 0.0
C718 C 0.24126 0.62876 0.51726 0.0
C719 C 0.23178 0.66568 0.5283 0.0
C720 C 0.25626 0.7009 0.49287 0.0
C721 C 0.26102 0.66415 0.48072 0.0
N722 N 0.25064 0.59298 0.48024 0.0
N723 N 0.22112 0.73654 0.52372 0.0
C724 C 0.2515 0.62798 0.49261 0.0
C725 C 0.23669 0.70167 0.51528 0.0
N726 N 0.24224 0.59458 0.53044 0.0
N727 N 0.27214 0.73502 0.48363 0.0
H728 H 0.20463 0.73834 0.53937 0.0
H729 H 0.2206 0.76275 0.51378 0.0
H730 H 0.28896 0.7353 0.46808 0.0
H731 H 0.27276 0.76194 0.49284 0.0
H732 H 0.25291 0.5676 0.52387 0.0
H733 H 0.23624 0.59398 0.5486 0.0
H734 H 0.23992 0.56644 0.4874 0.0
H735 H 0.25691 0.59121 0.46213 0.0
C736 C 0.36692 0.93805 0.13819 0.0
C737 C 0.35816 0.97883 0.13433 0.0
C738 C 0.28941 0.96158 0.12327 0.0
C739 C 0.29886 0.92055 0.12585 0.0
N740 N 0.34871 0.86937 0.1305 0.0
N741 N 0.31399 0.02923 0.11889 0.0
C742 C 0.3383 0.90871 0.13178 0.0
C743 C 0.32025 0.99055 0.12553 0.0
N744 N 0.40224 0.92741 0.14855 0.0
N745 N 0.25073 0.97307 0.11982 0.0
H746 H 0.33579 0.05121 0.12051 0.0
H747 H 0.28849 0.03883 0.11001 0.0
H748 H 0.22736 0.95287 0.1179 0.0
H749 H 0.2413 0.0026 0.12061 0.0
H750 H 0.40851 0.89859 0.1543 0.0
H751 H 0.42414 0.94808 0.15319 0.0
H752 H 0.37788 0.8592 0.13232 0.0
H753 H 0.32878 0.84719 0.12522 0.0
C754 C 0.27169 0.04994 0.38199 0.0
C755 C 0.28324 0.09032 0.38505 0.0
C756 C 0.35337 0.07204 0.37874 0.0
C757 C 0.34216 0.03137 0.3775 0.0
N758 N 0.29179 0.98046 0.3811 0.0
N759 N 0.33507 0.13934 0.3901 0.0
C760 C 0.30159 0.01998 0.37999 0.0
C761 C 0.32413 0.10126 0.38443 0.0
N762 N 0.23217 0.04045 0.38004 0.0
N763 N 0.39182 0.08282 0.37379 0.0
H764 H 0.31448 0.16144 0.39451 0.0
H765 H 0.36454 0.14824 0.39245 0.0
H766 H 0.41401 0.06215 0.36967 0.0
H767 H 0.40104 0.11225 0.37183 0.0
H768 H 0.2219 0.01236 0.37514 0.0
H769 H 0.20944 0.0615 0.38155 0.0
H770 H 0.26354 0.97016 0.38568 0.0
H771 H 0.31269 0.95769 0.37907 0.0
C772 C 0.195 0.02765 0.63035 0.0
C773 C 0.1573 0.03883 0.63959 0.0
C774 C 0.17667 0.10925 0.63788 0.0
C775 C 0.21566 0.09804 0.63049 0.0
N776 N 0.26387 0.04589 0.62342 0.0
N777 N 0.11417 0.08908 0.656 0.0
C778 C 0.22535 0.05701 0.62768 0.0
C779 C 0.14879 0.0793 0.64459 0.0
N780 N 0.20149 0.98908 0.62355 0.0
N781 N 0.16549 0.14842 0.6372 0.0
H782 H 0.09288 0.06791 0.66087 0.0
H783 H 0.10816 0.1175 0.66249 0.0
H784 H 0.18438 0.17115 0.63146 0.0
H785 H 0.13634 0.15801 0.64001 0.0
H786 H 0.22648 0.97995 0.61402 0.0
H787 H 0.18049 0.9665 0.62598 0.0
H788 H 0.27368 0.01646 0.62397 0.0
H789 H 0.28691 0.06629 0.62123 0.0
C790 C 0.20724 0.96974 0.88086 0.0
C791 C 0.16661 0.95944 0.87739 0.0
C792 C 0.1824 0.88903 0.88428 0.0
C793 C 0.22342 0.89895 0.88626 0.0
N794 N 0.27602 0.94746 0.88191 0.0
N795 N 0.11648 0.90918 0.87117 0.0
C796 C 0.23621 0.939 0.88331 0.0
C797 C 0.15451 0.91898 0.8777 0.0
N798 N 0.21795 0.00891 0.88266 0.0
N799 N 0.1699 0.85129 0.88962 0.0
H800 H 0.09543 0.93044 0.86608 0.0
H801 H 0.1069 0.87998 0.86865 0.0
H802 H 0.18938 0.82869 0.89485 0.0
H803 H 0.14 0.84325 0.89096 0.0
H804 H 0.24615 0.0183 0.888 0.0
H805 H 0.19772 0.03216 0.88039 0.0
H806 H 0.28714 0.97534 0.87722 0.0
H807 H 0.29809 0.92574 0.88347 0.0
C808 C 0.67716 0.09986 0.87496 0.0
C809 C 0.71625 0.0881 0.88175 0.0
C810 C 0.69444 0.01828 0.88352 0.0
C811 C 0.65647 0.02974 0.87472 0.0
N812 N 0.61304 0.08022 0.85874 0.0
N813 N 0.76414 0.03561 0.88852 0.0
C814 C 0.64824 0.07022 0.86945 0.0
C815 C 0.72546 0.04714 0.88503 0.0
N816 N 0.6672 0.13937 0.87477 0.0
N817 N 0.70056 0.97998 0.89096 0.0
H818 H 0.7878 0.0557 0.88946 0.0
H819 H 0.77333 0.00597 0.88841 0.0
H820 H 0.67872 0.95794 0.88979 0.0
H821 H 0.72606 0.97079 0.89998 0.0
H822 H 0.63819 0.14967 0.87242 0.0
H823 H 0.68733 0.16191 0.87914 0.0
H824 H 0.60707 0.10849 0.85198 0.0
H825 H 0.59091 0.05937 0.85483 0.0
C826 C 0.69261 0.98468 0.62738 0.0
C827 C 0.65258 0.97354 0.6322 0.0
C828 C 0.67027 0.90319 0.62681 0.0
C829 C 0.71105 0.91399 0.62467 0.0
N830 N 0.76207 0.96466 0.62633 0.0
N831 N 0.604 0.92218 0.63982 0.0
C832 C 0.72255 0.95469 0.62575 0.0
C833 C 0.64156 0.93276 0.63278 0.0
N834 N 0.7018 0.02385 0.62365 0.0
N835 N 0.65882 0.8648 0.62238 0.0
H836 H 0.58217 0.94301 0.64433 0.0
H837 H 0.59548 0.89288 0.64315 0.0
H838 H 0.67895 0.84254 0.61753 0.0
H839 H 0.62914 0.85587 0.62127 0.0
H840 H 0.72951 0.0335 0.61758 0.0
H841 H 0.68059 0.0465 0.6246 0.0
H842 H 0.77226 0.99336 0.62985 0.0
H843 H 0.78494 0.9437 0.62521 0.0
C844 C 0.8226 0.89306 0.38246 0.0
C845 C 0.78192 0.90424 0.38456 0.0
C846 C 0.80053 0.9747 0.38023 0.0
C847 C 0.84075 0.96317 0.37636 0.0
N848 N 0.88918 0.91138 0.36962 0.0
N849 N 0.73101 0.95472 0.38152 0.0
C850 C 0.85151 0.9223 0.37628 0.0
C851 C 0.77053 0.94484 0.38239 0.0
N852 N 0.83383 0.85472 0.3873 0.0
N853 N 0.79123 0.01415 0.38271 0.0
H854 H 0.70827 0.93369 0.38301 0.0
H855 H 0.72072 0.98316 0.37739 0.0
H856 H 0.81227 0.03684 0.38099 0.0
H857 H 0.76339 0.02427 0.38825 0.0
H858 H 0.86344 0.84567 0.38861 0.0
H859 H 0.8136 0.83254 0.39213 0.0
H860 H 0.89771 0.88195 0.36672 0.0
H861 H 0.91107 0.93201 0.36488 0.0
C862 C 0.83351 0.1081 0.13276 0.0
C863 C 0.79386 0.09777 0.12627 0.0
C864 C 0.81304 0.02698 0.12546 0.0
C865 C 0.85133 0.03723 0.13423 0.0
N866 N 0.89649 0.0866 0.14969 0.0
N867 N 0.74424 0.04671 0.11974 0.0
C868 C 0.86108 0.07754 0.13893 0.0
C869 C 0.78318 0.057 0.12342 0.0
N870 N 0.84548 0.14702 0.13184 0.0
N871 N 0.80553 0.9887 0.11848 0.0
H872 H 0.72151 0.06756 0.11791 0.0
H873 H 0.73389 0.01748 0.12038 0.0
H874 H 0.82641 0.96584 0.12014 0.0
H875 H 0.77987 0.9802 0.10938 0.0
H876 H 0.87499 0.15597 0.13399 0.0
H877 H 0.82671 0.17014 0.12651 0.0
H878 H 0.90347 0.11493 0.15598 0.0
H879 H 0.91759 0.06502 0.1542 0.0
C880 C 0.77039 0.45356 0.63404 0.0
C881 C 0.78193 0.41445 0.62736 0.0
C882 C 0.85245 0.43289 0.6311 0.0
C883 C 0.84104 0.47277 0.63599 0.0
N884 N 0.78961 0.5228 0.63889 0.0
N885 N 0.83321 0.368 0.61594 0.0
C886 C 0.80009 0.4836 0.63666 0.0
C887 C 0.8228 0.40444 0.62487 0.0
N888 N 0.73114 0.46165 0.63853 0.0
N889 N 0.89156 0.42189 0.63329 0.0
H890 H 0.81225 0.34638 0.6113 0.0
H891 H 0.86224 0.36035 0.61125 0.0
H892 H 0.91403 0.44183 0.63807 0.0
H893 H 0.90131 0.39248 0.63245 0.0
H894 H 0.72124 0.48816 0.64609 0.0
H895 H 0.70851 0.44067 0.63622 0.0
H896 H 0.76059 0.53322 0.63673 0.0
H897 H 0.8104 0.54558 0.64119 0.0
C898 C 0.85572 0.57065 0.87868 0.0
C899 C 0.84416 0.53001 0.8777 0.0
C900 C 0.77394 0.54943 0.88239 0.0
C901 C 0.78593 0.58971 0.88535 0.0
N902 N 0.83839 0.63809 0.89021 0.0
N903 N 0.79335 0.47974 0.88207 0.0
C904 C 0.82691 0.60016 0.88457 0.0
C905 C 0.80351 0.51909 0.88046 0.0
N906 N 0.89404 0.58116 0.87321 0.0
N907 N 0.73432 0.54035 0.88056 0.0
H908 H 0.81413 0.45677 0.88055 0.0
H909 H 0.76497 0.46987 0.88673 0.0
H910 H 0.71186 0.5617 0.88203 0.0
H911 H 0.72375 0.51232 0.87575 0.0
H912 H 0.90333 0.61055 0.87108 0.0
H913 H 0.91591 0.5604 0.8687 0.0
H914 H 0.86801 0.64657 0.89247 0.0
H915 H 0.81814 0.66044 0.89474 0.0
C916 C 0.68224 0.60778 0.13088 0.0
C917 C 0.72296 0.59664 0.129 0.0
C918 C 0.70445 0.52625 0.13399 0.0
C919 C 0.66419 0.5378 0.13768 0.0
N920 N 0.61564 0.5897 0.1438 0.0
N921 N 0.77395 0.54634 0.13257 0.0
C922 C 0.65335 0.57866 0.13731 0.0
C923 C 0.73441 0.55612 0.13157 0.0
N924 N 0.67097 0.64595 0.12565 0.0
N925 N 0.71386 0.48676 0.13195 0.0
H926 H 0.79665 0.56736 0.13082 0.0
H927 H 0.78429 0.51806 0.13701 0.0
H928 H 0.69287 0.46405 0.13392 0.0
H929 H 0.74174 0.47653 0.12657 0.0
H930 H 0.64135 0.65491 0.12418 0.0
H931 H 0.6912 0.66802 0.12063 0.0
H932 H 0.60704 0.61919 0.14637 0.0
H933 H 0.59379 0.56918 0.14876 0.0
C934 C 0.70239 0.4181 0.36168 0.0
C935 C 0.71162 0.40303 0.38469 0.0
C936 C 0.66805 0.45433 0.40163 0.0
C937 C 0.65293 0.46373 0.37866 0.0
N938 N 0.65019 0.44522 0.33706 0.0
N939 N 0.69372 0.40162 0.42641 0.0
C940 C 0.66849 0.44299 0.35869 0.0
C941 C 0.69176 0.41962 0.40468 0.0
N942 N 0.72676 0.41046 0.34279 0.0
N943 N 0.66158 0.47923 0.42042 0.0
H944 H 0.70768 0.3743 0.4292 0.0
H945 H 0.67711 0.41142 0.44094 0.0
H946 H 0.64766 0.50685 0.41869 0.0
H947 H 0.67478 0.47473 0.43698 0.0
H948 H 0.72247 0.42357 0.32618 0.0
H949 H 0.75392 0.3956 0.34443 0.0
H950 H 0.65915 0.42804 0.32258 0.0
H951 H 0.62331 0.46007 0.33435 0.0
C952 C 0.13912 0.56691 0.37861 0.0
C953 C 0.1489 0.52596 0.3806 0.0
C954 C 0.21833 0.54334 0.38995 0.0
C955 C 0.20805 0.58436 0.38906 0.0
N956 N 0.15727 0.63511 0.38783 0.0
N957 N 0.19517 0.47497 0.39279 0.0
C958 C 0.16795 0.59609 0.38497 0.0
C959 C 0.18776 0.51409 0.38769 0.0
N960 N 0.10268 0.57793 0.36991 0.0
N961 N 0.25744 0.53229 0.3918 0.0
H962 H 0.17344 0.45289 0.39133 0.0
H963 H 0.22165 0.46495 0.40038 0.0
H964 H 0.28061 0.55275 0.39372 0.0
H965 H 0.26727 0.50307 0.38972 0.0
H966 H 0.09537 0.60717 0.36549 0.0
H967 H 0.08066 0.5574 0.36527 0.0
H968 H 0.12786 0.64503 0.38742 0.0
H969 H 0.17752 0.6571 0.39296 0.0
C970 C 0.18128 0.4034 0.12918 0.0
C971 C 0.22224 0.41394 0.12808 0.0
C972 C 0.20467 0.48455 0.13285 0.0
C973 C 0.16408 0.47358 0.13579 0.0
N974 N 0.1141 0.42265 0.14042 0.0
N975 N 0.27388 0.46342 0.13239 0.0
C976 C 0.15248 0.43298 0.13498 0.0
C977 C 0.23424 0.45426 0.1308 0.0
N978 N 0.16981 0.36534 0.12384 0.0
N979 N 0.2148 0.52394 0.13137 0.0
H980 H 0.29637 0.4421 0.1309 0.0
H981 H 0.28451 0.4915 0.13702 0.0
H982 H 0.19416 0.54694 0.13342 0.0
H983 H 0.24303 0.53389 0.12646 0.0
H984 H 0.14018 0.3567 0.12184 0.0
H985 H 0.19004 0.34297 0.11933 0.0
H986 H 0.1047 0.39333 0.1427 0.0
H987 H 0.09222 0.44359 0.14464 0.0
C988 C 0.30841 0.47416 0.88102 0.0
C989 C 0.34805 0.4616 0.87629 0.0
C990 C 0.32799 0.3919 0.88187 0.0
C991 C 0.28768 0.40417 0.8845 0.0
N992 N 0.23838 0.45638 0.88249 0.0
N993 N 0.39452 0.40859 0.86818 0.0
C994 C 0.27755 0.44518 0.883 0.0
C995 C 0.35754 0.42045 0.87557 0.0
N996 N 0.30047 0.51368 0.8845 0.0
N997 N 0.33831 0.35319 0.88633 0.0
H998 H 0.41683 0.42869 0.86334 0.0
H999 H 0.40194 0.37901 0.86481 0.0
H1000 H 0.31766 0.33154 0.89138 0.0
H1001 H 0.36772 0.34333 0.88719 0.0
H1002 H 0.27315 0.52428 0.89059 0.0
H1003 H 0.32227 0.53572 0.8832 0.0
H1004 H 0.229 0.48531 0.87882 0.0
H1005 H 0.21503 0.43601 0.8837 0.0
C1006 C 0.30125 0.52858 0.63027 0.0
C1007 C 0.34155 0.53975 0.63427 0.0
C1008 C 0.32391 0.61002 0.62787 0.0
C1009 C 0.2831 0.59925 0.62584 0.0
N1010 N 0.23189 0.54909 0.629 0.0
N1011 N 0.39031 0.59127 0.64088 0.0
C1012 C 0.27147 0.5587 0.62805 0.0
C1013 C 0.35261 0.58057 0.63418 0.0
N1014 N 0.29163 0.48922 0.62778 0.0
N1015 N 0.33543 0.64823 0.62295 0.0
H1016 H 0.41199 0.57053 0.64578 0.0
H1017 H 0.39906 0.62066 0.64367 0.0
H1018 H 0.31533 0.67048 0.61802 0.0
H1019 H 0.36512 0.65705 0.62163 0.0
H1020 H 0.26374 0.47936 0.62217 0.0
H1021 H 0.31248 0.46635 0.62953 0.0
H1022 H 0.22144 0.52076 0.63324 0.0
H1023 H 0.20929 0.57026 0.62746 0.0
C1024 C 0.34653 0.1724 0.13173 0.0
C1025 C 0.38857 0.1684 0.12963 0.0
C1026 C 0.39293 0.23585 0.11258 0.0
C1027 C 0.35078 0.24028 0.11484 0.0
N1028 N 0.28761 0.2139 0.12853 0.0
N1029 N 0.45258 0.19785 0.12107 0.0
C1030 C 0.32774 0.2091 0.12529 0.0
C1031 C 0.41186 0.20052 0.12079 0.0
N1032 N 0.32415 0.14003 0.13815 0.0
N1033 N 0.41525 0.26544 0.10242 0.0
H1034 H 0.46783 0.1719 0.12545 0.0
H1035 H 0.47165 0.22193 0.11849 0.0
H1036 H 0.40531 0.29461 0.1004 0.0
H1037 H 0.44399 0.26124 0.0959 0.0
H1038 H 0.29321 0.13886 0.13702 0.0
H1039 H 0.33651 0.11283 0.14315 0.0
H1040 H 0.27046 0.19553 0.13937 0.0
H1041 H 0.27113 0.237 0.12111 0.0
C1042 C 0.0829 0.08353 0.38121 0.0
C1043 C 0.09024 0.12478 0.37749 0.0
C1044 C 0.02137 0.1331 0.3632 0.0
C1045 C 0.01565 0.09114 0.36408 0.0
N1046 N 0.04417 0.02568 0.36985 0.0
N1047 N 0.06752 0.18828 0.36209 0.0
C1048 C 0.04704 0.06612 0.37232 0.0
C1049 C 0.05979 0.14935 0.36765 0.0
N1050 N 0.11059 0.06056 0.39262 0.0
N1051 N 0.98974 0.15784 0.35894 0.0
H1052 H 0.09403 0.20274 0.36631 0.0
H1053 H 0.04856 0.2058 0.35181 0.0
H1054 H 0.96073 0.1477 0.35637 0.0
H1055 H 0.99109 0.18869 0.36079 0.0
H1056 H 0.10481 0.03167 0.39845 0.0
H1057 H 0.13847 0.07109 0.39781 0.0
H1058 H 0.0678 0.00624 0.37298 0.0
H1059 H 0.01965 0.01147 0.3623 0.0
C1060 C 0.09435 0.81604 0.61967 0.0
C1061 C 0.11966 0.84708 0.62794 0.0
C1062 C 0.17856 0.80559 0.61942 0.0
C1063 C 0.15331 0.77376 0.61211 0.0
N1064 N 0.08675 0.74703 0.60765 0.0
N1065 N 0.18534 0.86949 0.6392 0.0
C1066 C 0.11106 0.77865 0.61276 0.0
C1067 C 0.16155 0.84105 0.62913 0.0
N1068 N 0.05404 0.82235 0.61861 0.0
N1069 N 0.2187 0.80347 0.61525 0.0
H1070 H 0.17471 0.89695 0.64504 0.0
H1071 H 0.21522 0.8648 0.64339 0.0
H1072 H 0.23239 0.77926 0.60704 0.0
H1073 H 0.23814 0.82731 0.61761 0.0
H1074 H 0.03417 0.80398 0.60961 0.0
H1075 H 0.04016 0.84712 0.62614 0.0
H1076 H 0.05593 0.74722 0.60963 0.0
H1077 H 0.09729 0.7187 0.60357 0.0
C1078 C 0.47834 0.85794 0.85695 0.0
C1079 C 0.48402 0.89992 0.85858 0.0
C1080 C 0.41942 0.90595 0.87926 0.0
C1081 C 0.41212 0.86465 0.87566 0.0
N1082 N 0.43328 0.80176 0.85873 0.0
N1083 N 0.4551 0.96465 0.86608 0.0
C1084 C 0.44112 0.8409 0.86371 0.0
C1085 C 0.45346 0.92413 0.86857 0.0
N1086 N 0.50913 0.83377 0.85005 0.0
N1087 N 0.39343 0.92833 0.89235 0.0
H1088 H 0.4777 0.97932 0.85689 0.0
H1089 H 0.43173 0.98359 0.87064 0.0
H1090 H 0.36655 0.91751 0.89896 0.0
H1091 H 0.3999 0.95709 0.89813 0.0
H1092 H 0.50816 0.8028 0.85083 0.0
H1093 H 0.53778 0.84399 0.84645 0.0
H1094 H 0.44987 0.78489 0.84677 0.0
H1095 H 0.40887 0.78627 0.86544 0.0
C1096 C 0.34446 0.77322 0.3698 0.0
C1097 C 0.32639 0.76741 0.39237 0.0
C1098 C 0.33672 0.83858 0.40101 0.0
C1099 C 0.36241 0.84168 0.38101 0.0
N1100 N 0.39072 0.8111 0.34588 0.0
N1101 N 0.30046 0.79611 0.42838 0.0
C1102 C 0.36584 0.809 0.36506 0.0
C1103 C 0.32105 0.80069 0.40763 0.0
N1104 N 0.3402 0.74524 0.35249 0.0
N1105 N 0.32581 0.87233 0.41297 0.0
H1106 H 0.28387 0.7706 0.43213 0.0
H1107 H 0.30036 0.81713 0.44198 0.0
H1108 H 0.33512 0.90072 0.40784 0.0
H1109 H 0.30444 0.87289 0.42637 0.0
H1110 H 0.34927 0.74938 0.33497 0.0
H1111 H 0.32308 0.72 0.3549 0.0
H1112 H 0.39921 0.78621 0.33605 0.0
H1113 H 0.40493 0.83703 0.3404 0.0
C1114 C 0.41158 0.09408 0.638 0.0
C1115 C 0.40778 0.13603 0.6357 0.0
C1116 C 0.47557 0.14466 0.65147 0.0
C1117 C 0.48091 0.10248 0.65193 0.0
N1118 N 0.45398 0.03669 0.64446 0.0
N1119 N 0.43883 0.20067 0.63529 0.0
C1120 C 0.44909 0.07714 0.64452 0.0
C1121 C 0.44052 0.1611 0.64111 0.0
N1122 N 0.37858 0.07051 0.63564 0.0
N1123 N 0.50366 0.16946 0.66102 0.0
H1124 H 0.4141 0.21363 0.6271 0.0
H1125 H 0.46327 0.21975 0.6363 0.0
H1126 H 0.53207 0.16036 0.66605 0.0
H1127 H 0.4983 0.19948 0.66449 0.0
H1128 H 0.37787 0.04035 0.63992 0.0
H1129 H 0.35068 0.08182 0.6312 0.0
H1130 H 0.43464 0.01726 0.6358 0.0
H1131 H 0.47796 0.02224 0.65244 0.0
C1132 C 0.1746 0.16111 0.88878 0.0
C1133 C 0.13289 0.15439 0.88852 0.0
C1134 C 0.12095 0.22211 0.9034 0.0
C1135 C 0.1628 0.22984 0.90298 0.0
N1136 N 0.22981 0.2067 0.8947 0.0
N1137 N 0.06617 0.18043 0.89022 0.0
C1138 C 0.18968 0.19948 0.8952 0.0
C1139 C 0.10608 0.18544 0.89436 0.0
N1140 N 0.19981 0.13004 0.88413 0.0
N1141 N 0.09502 0.24941 0.9127 0.0
H1142 H 0.05426 0.15423 0.88322 0.0
H1143 H 0.04532 0.20334 0.89143 0.0
H1144 H 0.10254 0.27879 0.91649 0.0
H1145 H 0.06565 0.24264 0.91717 0.0
H1146 H 0.23049 0.13083 0.88679 0.0
H1147 H 0.18966 0.10226 0.87851 0.0
H1148 H 0.25027 0.18864 0.88594 0.0
H1149 H 0.24312 0.23123 0.90275 0.0
C1150 C 0.09617 0.92607 0.13769 0.0
C1151 C 0.10294 0.88447 0.13638 0.0
C1152 C 0.03466 0.87143 0.1501 0.0
C1153 C 0.02686 0.91323 0.15065 0.0
N1154 N 0.05002 0.98069 0.14395 0.0
N1155 N 0.07705 0.81769 0.13618 0.0
C1156 C 0.05742 0.94062 0.14382 0.0
C1157 C 0.07169 0.85726 0.14112 0.0
N1158 N 0.12749 0.9516 0.13438 0.0
N1159 N 0.0071 0.84491 0.15851 0.0
H1160 H 0.10364 0.80634 0.12935 0.0
H1161 H 0.05417 0.79672 0.1366 0.0
H1162 H 0.97772 0.85233 0.16247 0.0
H1163 H 0.01366 0.8152 0.16217 0.0
H1164 H 0.12643 0.982 0.13788 0.0
H1165 H 0.15573 0.94191 0.1292 0.0
H1166 H 0.06848 0.00164 0.13589 0.0
H1167 H 0.02488 0.99345 0.15165 0.0
C1168 C 0.61732 0.77105 0.90022 0.0
C1169 C 0.65929 0.76538 0.89784 0.0
C1170 C 0.6655 0.83332 0.88115 0.0
C1171 C 0.62368 0.8388 0.88362 0.0
N1172 N 0.55898 0.81233 0.89386 0.0
N1173 N 0.72321 0.79011 0.88429 0.0
C1174 C 0.59949 0.80756 0.89285 0.0
C1175 C 0.68323 0.79602 0.88752 0.0
N1176 N 0.5942 0.74139 0.90968 0.0
N1177 N 0.68877 0.86495 0.87453 0.0
H1178 H 0.73906 0.76661 0.89176 0.0
H1179 H 0.74093 0.80795 0.87348 0.0
H1180 H 0.6772 0.89264 0.86979 0.0
H1181 H 0.71976 0.86511 0.87524 0.0
H1182 H 0.56553 0.74559 0.91626 0.0
H1183 H 0.6035 0.71189 0.91101 0.0
H1184 H 0.53879 0.78939 0.89695 0.0
H1185 H 0.54464 0.83914 0.89032 0.0
C1186 C 0.95172 0.8995 0.67178 0.0
C1187 C 0.97418 0.92212 0.6552 0.0
C1188 C 0.91576 0.91777 0.62845 0.0
C1189 C 0.89935 0.88653 0.64251 0.0
N1190 N 0.9108 0.84157 0.67593 0.0
N1191 N 0.97468 0.95287 0.61584 0.0
C1192 C 0.91995 0.87548 0.66366 0.0
C1193 C 0.95558 0.93126 0.63291 0.0
N1194 N 0.95871 0.90253 0.69561 0.0
N1195 N 0.89269 0.93686 0.61197 0.0
H1196 H 1.00062 0.96886 0.61856 0.0
H1197 H 0.96441 0.95431 0.59838 0.0
H1198 H 0.86243 0.93102 0.6097 0.0
H1199 H 0.90219 0.96219 0.60286 0.0
H1200 H 0.94113 0.88788 0.70818 0.0
H1201 H 0.97727 0.92433 0.70281 0.0
H1202 H 0.92765 0.83206 0.69046 0.0
H1203 H 0.89036 0.82042 0.67017 0.0
C1204 C 0.88276 0.22297 0.40252 0.0
C1205 C 0.84088 0.22926 0.40085 0.0
C1206 C 0.83357 0.16253 0.38298 0.0
C1207 C 0.87464 0.15474 0.38719 0.0
N1208 N 0.93732 0.17618 0.40447 0.0
N1209 N 0.77548 0.20097 0.3943 0.0
C1210 C 0.89883 0.18448 0.39808 0.0
C1211 C 0.816 0.19815 0.39211 0.0
N1212 N 0.9078 0.25416 0.4073 0.0
N1213 N 0.81083 0.13549 0.37091 0.0
H1214 H 0.76115 0.22498 0.4023 0.0
H1215 H 0.75609 0.17752 0.39065 0.0
H1216 H 0.82128 0.10768 0.36559 0.0
H1217 H 0.78223 0.14179 0.36472 0.0
H1218 H 0.93874 0.25221 0.40618 0.0
H1219 H 0.89818 0.28346 0.40925 0.0
H1220 H 0.95407 0.19444 0.41561 0.0
H1221 H 0.95211 0.14997 0.40007 0.0
C1222 C 0.57101 0.16401 0.14345 0.0
C1223 C 0.60353 0.1387 0.13793 0.0
C1224 C 0.56259 0.08015 0.14789 0.0
C1225 C 0.53085 0.10573 0.15511 0.0
N1226 N 0.50839 0.17292 0.16385 0.0
N1227 N 0.63298 0.07332 0.13867 0.0
C1228 C 0.5362 0.14788 0.15425 0.0
C1229 C 0.59993 0.09687 0.1409 0.0
N1230 N 0.57266 0.20344 0.13732 0.0
N1231 N 0.55775 0.0397 0.14844 0.0
H1232 H 0.66084 0.08457 0.13406 0.0
H1233 H 0.63382 0.0433 0.14329 0.0
H1234 H 0.53387 0.02559 0.15675 0.0
H1235 H 0.57701 0.01993 0.14 0.0
H1236 H 0.54826 0.22258 0.13835 0.0
H1237 H 0.59729 0.21624 0.12894 0.0
H1238 H 0.51381 0.20305 0.16695 0.0
H1239 H 0.48023 0.16392 0.16941 0.0
C1240 C 0.6145 0.23375 0.61016 0.0
C1241 C 0.65642 0.23955 0.61262 0.0
C1242 C 0.66289 0.17145 0.62895 0.0
C1243 C 0.62106 0.16597 0.62655 0.0
N1244 N 0.55615 0.19317 0.6176 0.0
N1245 N 0.72042 0.21492 0.62612 0.0
C1246 C 0.59674 0.19744 0.61779 0.0
C1247 C 0.68047 0.20889 0.62282 0.0
N1248 N 0.59129 0.263 0.60034 0.0
N1249 N 0.68629 0.1398 0.63535 0.0
H1250 H 0.73618 0.2386 0.61879 0.0
H1251 H 0.73817 0.19697 0.63686 0.0
H1252 H 0.67479 0.11214 0.64014 0.0
H1253 H 0.71726 0.1397 0.63447 0.0
H1254 H 0.56276 0.2582 0.59366 0.0
H1255 H 0.60035 0.29253 0.59872 0.0
H1256 H 0.5362 0.21651 0.61502 0.0
H1257 H 0.54176 0.16655 0.62155 0.0
C1258 C 0.5194 0.85993 0.36816 0.0
C1259 C 0.5151 0.9018 0.3658 0.0
C1260 C 0.5832 0.91041 0.38159 0.0
C1261 C 0.58915 0.86849 0.38064 0.0
N1262 N 0.56377 0.80335 0.37 0.0
N1263 N 0.54539 0.96706 0.3671 0.0
C1264 C 0.5575 0.84329 0.37304 0.0
C1265 C 0.5475 0.92719 0.37196 0.0
N1266 N 0.48663 0.83595 0.36682 0.0
N1267 N 0.61189 0.93438 0.39121 0.0
H1268 H 0.5206 0.98049 0.35933 0.0
H1269 H 0.56958 0.98633 0.36865 0.0
H1270 H 0.63918 0.92368 0.39732 0.0
H1271 H 0.60742 0.96447 0.39486 0.0
H1272 H 0.48695 0.80568 0.37095 0.0
H1273 H 0.45819 0.8473 0.36425 0.0
H1274 H 0.54337 0.78461 0.36164 0.0
H1275 H 0.59044 0.78917 0.37423 0.0
C1276 C 0.82541 0.80215 0.12176 0.0
C1277 C 0.84932 0.77124 0.11171 0.0
C1278 C 0.90916 0.81336 0.11668 0.0
C1279 C 0.88501 0.84486 0.12549 0.0
N1280 N 0.81985 0.87148 0.1339 0.0
N1281 N 0.91435 0.74796 0.09905 0.0
C1282 C 0.84313 0.8396 0.12776 0.0
C1283 C 0.89124 0.77709 0.10904 0.0
N1284 N 0.78541 0.79637 0.12502 0.0
N1285 N 0.94975 0.81751 0.11648 0.0
H1286 H 0.90542 0.71838 0.09749 0.0
H1287 H 0.94275 0.75295 0.09221 0.0
H1288 H 0.9642 0.84413 0.12037 0.0
H1289 H 0.96961 0.79407 0.11394 0.0
H1290 H 0.76775 0.81446 0.13572 0.0
H1291 H 0.76953 0.77283 0.11763 0.0
H1292 H 0.78887 0.87166 0.133 0.0
H1293 H 0.83145 0.89926 0.13839 0.0
C1294 C 0.95388 0.07463 0.85242 0.0
C1295 C 0.98585 0.08019 0.8687 0.0
C1296 C 0.94068 0.11632 0.89567 0.0
C1297 C 0.90907 0.11182 0.87904 0.0
N1298 N 0.88235 0.07557 0.84575 0.0
N1299 N 0.00537 0.09453 0.90905 0.0
C1300 C 0.91477 0.08768 0.8586 0.0
C1301 C 0.97788 0.09724 0.89133 0.0
N1302 N 0.96074 0.05654 0.83106 0.0
N1303 N 0.93622 0.14019 0.91516 0.0
H1304 H 0.03223 0.08007 0.9068 0.0
H1305 H 0.99975 0.10232 0.92664 0.0
H1306 H 0.90928 0.15267 0.92042 0.0
H1307 H 0.96009 0.1498 0.92552 0.0
H1308 H 0.94037 0.05678 0.8171 0.0
H1309 H 0.98746 0.04223 0.82694 0.0
H1310 H 0.88379 0.05493 0.83198 0.0
H1311 H 0.85317 0.08286 0.85052 0.0
C1312 C 0.87003 0.73475 0.63279 0.0
C1313 C 0.83692 0.73716 0.61727 0.0
C1314 C 0.83298 0.6641 0.61673 0.0
C1315 C 0.86489 0.66231 0.63333 0.0
N1316 N 0.90163 0.69679 0.66391 0.0
N1317 N 0.7823 0.70455 0.59736 0.0
C1318 C 0.87944 0.69787 0.64363 0.0
C1319 C 0.81671 0.7019 0.61027 0.0
N1320 N 0.89414 0.76694 0.63615 0.0
N1321 N 0.81875 0.6297 0.60691 0.0
H1322 H 0.77042 0.73168 0.59171 0.0
H1323 H 0.76409 0.68022 0.59363 0.0
H1324 H 0.82813 0.60157 0.6125 0.0
H1325 H 0.79894 0.62901 0.59268 0.0
H1326 H 0.921 0.76525 0.64544 0.0
H1327 H 0.88958 0.7939 0.62742 0.0
H1328 H 0.9105 0.7225 0.67287 0.0
H1329 H 0.90696 0.67048 0.67321 0.0
C1330 C 0.56406 0.64995 0.86693 0.0
C1331 C 0.59459 0.62567 0.87693 0.0
C1332 C 0.55318 0.56626 0.86991 0.0
C1333 C 0.52151 0.59085 0.86158 0.0
N1334 N 0.49428 0.65722 0.85708 0.0
N1335 N 0.61557 0.56129 0.89149 0.0
C1336 C 0.52628 0.633 0.86145 0.0
C1337 C 0.58806 0.58411 0.87983 0.0
N1338 N 0.57114 0.68935 0.86232 0.0
N1339 N 0.55156 0.52592 0.86661 0.0
H1340 H 0.64264 0.57234 0.89769 0.0
H1341 H 0.6102 0.53196 0.89664 0.0
H1342 H 0.52797 0.51156 0.85818 0.0
H1343 H 0.57552 0.50695 0.86987 0.0
H1344 H 0.55239 0.70699 0.85197 0.0
H1345 H 0.59701 0.70415 0.86745 0.0
H1346 H 0.49491 0.68802 0.85929 0.0
H1347 H 0.46555 0.64664 0.85411 0.0
C1348 C 0.61378 0.32257 0.10926 0.0
C1349 C 0.6323 0.3475 0.12634 0.0
C1350 C 0.68884 0.30027 0.12743 0.0
C1351 C 0.67133 0.27775 0.10846 0.0
N1352 N 0.62765 0.28484 0.07423 0.0
N1353 N 0.69295 0.36435 0.14729 0.0
C1354 C 0.63682 0.29374 0.09727 0.0
C1355 C 0.67121 0.33739 0.13449 0.0
N1356 N 0.57419 0.32637 0.10406 0.0
N1357 N 0.72319 0.28794 0.13816 0.0
H1358 H 0.68251 0.39252 0.15184 0.0
H1359 H 0.72301 0.36045 0.15134 0.0
H1360 H 0.74304 0.26783 0.13065 0.0
H1361 H 0.73246 0.2989 0.15458 0.0
H1362 H 0.55937 0.30641 0.09292 0.0
H1363 H 0.55546 0.34637 0.11276 0.0
H1364 H 0.60347 0.29768 0.06543 0.0
H1365 H 0.64783 0.27132 0.06272 0.0
C1366 C 0.93264 0.34199 0.36175 0.0
C1367 C 0.90201 0.36658 0.37124 0.0
C1368 C 0.94529 0.42548 0.36669 0.0
C1369 C 0.97592 0.40096 0.35682 0.0
N1370 N 0.99713 0.33588 0.343 0.0
N1371 N 0.87605 0.43217 0.37894 0.0
C1372 C 0.96901 0.35931 0.35372 0.0
C1373 C 0.9077 0.40839 0.373 0.0
N1374 N 0.92773 0.3015 0.36136 0.0
N1375 N 0.95144 0.46551 0.36936 0.0
H1376 H 0.84787 0.42104 0.38309 0.0
H1377 H 0.87633 0.46311 0.37797 0.0
H1378 H 0.97454 0.48099 0.36116 0.0
H1379 H 0.93385 0.48364 0.38008 0.0
H1380 H 0.95076 0.28133 0.35836 0.0
H1381 H 0.90106 0.28736 0.36558 0.0
H1382 H 0.99104 0.3079 0.33589 0.0
H1383 H 0.02685 0.34401 0.34096 0.0
C1384 C 0.9042 0.30482 0.89057 0.0
C1385 C 0.87915 0.33657 0.88301 0.0
C1386 C 0.82043 0.29368 0.88912 0.0
C1387 C 0.84587 0.26118 0.89501 0.0
N1388 N 0.9122 0.23371 0.89445 0.0
N1389 N 0.81372 0.35927 0.87133 0.0
C1390 C 0.88782 0.2662 0.89375 0.0
C1391 C 0.83739 0.3302 0.88082 0.0
N1392 N 0.94369 0.31138 0.8952 0.0
N1393 N 0.78029 0.29083 0.89303 0.0
H1394 H 0.82449 0.38711 0.86626 0.0
H1395 H 0.78395 0.3547 0.8668 0.0
H1396 H 0.76665 0.26539 0.89983 0.0
H1397 H 0.76086 0.31492 0.89165 0.0
H1398 H 0.96195 0.29047 0.90351 0.0
H1399 H 0.95777 0.33863 0.89248 0.0
H1400 H 0.94275 0.23489 0.89115 0.0
H1401 H 0.901 0.20496 0.89541 0.0
C1402 C 0.95873 0.57605 0.14234 0.0
C1403 C 0.99088 0.60204 0.14804 0.0
C1404 C 0.94714 0.65971 0.14155 0.0
C1405 C 0.91577 0.63397 0.13419 0.0
N1406 N 0.89389 0.56769 0.12382 0.0
N1407 N 0.01812 0.66835 0.14633 0.0
C1408 C 0.92244 0.59217 0.13313 0.0
C1409 C 0.98573 0.64379 0.14571 0.0
N1410 N 0.96169 0.53625 0.14724 0.0
N1411 N 0.94021 0.69943 0.14502 0.0
H1412 H 0.0469 0.6574 0.14806 0.0
H1413 H 0.01697 0.69862 0.14227 0.0
H1414 H 0.91302 0.71313 0.1415 0.0
H1415 H 0.96069 0.71839 0.15313 0.0
H1416 H 0.93777 0.51657 0.14601 0.0
H1417 H 0.98697 0.52327 0.15472 0.0
H1418 H 0.89881 0.53769 0.12011 0.0
H1419 H 0.8662 0.57789 0.11807 0.0
C1420 C 0.59595 0.68719 0.39949 0.0
C1421 C 0.61997 0.65596 0.39018 0.0
C1422 C 0.67947 0.69893 0.39328 0.0
C1423 C 0.65565 0.7299 0.40334 0.0
N1424 N 0.59094 0.75316 0.41649 0.0
N1425 N 0.68503 0.62938 0.38155 0.0
C1426 C 0.61387 0.72382 0.40657 0.0
C1427 C 0.66176 0.66133 0.38761 0.0
N1428 N 0.55547 0.68243 0.40074 0.0
N1429 N 0.71937 0.70482 0.3897 0.0
H1430 H 0.67348 0.60125 0.37779 0.0
H1431 H 0.71604 0.62943 0.38202 0.0
H1432 H 0.73533 0.72848 0.39688 0.0
H1433 H 0.73688 0.68665 0.37895 0.0
H1434 H 0.53541 0.70552 0.40375 0.0
H1435 H 0.54109 0.65554 0.39744 0.0
H1436 H 0.5628 0.74838 0.42373 0.0
H1437 H 0.59979 0.78282 0.41759 0.0
C1438 C 0.55882 0.35222 0.64298 0.0
C1439 C 0.58936 0.3773 0.63369 0.0
C1440 C 0.54658 0.43579 0.6406 0.0
C1441 C 0.51505 0.4104 0.64825 0.0
N1442 N 0.48882 0.34357 0.6519 0.0
N1443 N 0.6101 0.44247 0.62035 0.0
C1444 C 0.52055 0.36838 0.64808 0.0
C1445 C 0.58229 0.41884 0.63115 0.0
N1446 N 0.5664 0.31285 0.64739 0.0
N1447 N 0.54396 0.47602 0.64413 0.0
H1448 H 0.63785 0.43214 0.61479 0.0
H1449 H 0.60453 0.47183 0.61535 0.0
H1450 H 0.51963 0.48975 0.65219 0.0
H1451 H 0.56765 0.49556 0.64142 0.0
H1452 H 0.54746 0.2946 0.65723 0.0
H1453 H 0.59283 0.29868 0.64268 0.0
H1454 H 0.48995 0.31287 0.6493 0.0
H1455 H 0.45993 0.35369 0.65492 0.0
C1456 C 0.15896 0.33156 0.38081 0.0
C1457 C 0.11679 0.33533 0.38194 0.0
C1458 C 0.11171 0.26767 0.3986 0.0
C1459 C 0.15399 0.26345 0.3973 0.0
N1460 N 0.21779 0.29015 0.38494 0.0
N1461 N 0.05247 0.30499 0.38805 0.0
C1462 C 0.17749 0.29481 0.38743 0.0
C1463 C 0.09312 0.30282 0.38981 0.0
N1464 N 0.18162 0.3641 0.37511 0.0
N1465 N 0.08892 0.23814 0.40845 0.0
H1466 H 0.03748 0.33063 0.38275 0.0
H1467 H 0.0335 0.28068 0.39008 0.0
H1468 H 0.09911 0.20926 0.41132 0.0
H1469 H 0.0596 0.24224 0.41401 0.0
H1470 H 0.21244 0.3654 0.37709 0.0
H1471 H 0.1695 0.39123 0.3698 0.0
H1472 H 0.23545 0.30877 0.37455 0.0
H1473 H 0.23389 0.26688 0.39248 0.0
C1474 C 0.44527 0.35253 0.14474 0.0
C1475 C 0.41483 0.37759 0.13532 0.0
C1476 C 0.45787 0.43598 0.14186 0.0
C1477 C 0.4892 0.41056 0.14973 0.0
N1478 N 0.51534 0.34373 0.15336 0.0
N1479 N 0.39459 0.44258 0.12135 0.0
C1480 C 0.48363 0.36859 0.14962 0.0
C1481 C 0.42214 0.41904 0.13246 0.0
N1482 N 0.43755 0.31332 0.14955 0.0
N1483 N 0.46071 0.47627 0.14512 0.0
H1484 H 0.36694 0.4322 0.11565 0.0
H1485 H 0.40034 0.47183 0.1162 0.0
H1486 H 0.48519 0.49003 0.15299 0.0
H1487 H 0.43711 0.49586 0.14227 0.0
H1488 H 0.4566 0.29523 0.15942 0.0
H1489 H 0.41095 0.29919 0.14516 0.0
H1490 H 0.51411 0.31303 0.15075 0.0
H1491 H 0.54424 0.35386 0.15635 0.0
C1492 C 0.39193 0.71939 0.9037 0.0
C1493 C 0.34991 0.72491 0.90343 0.0
C1494 C 0.34194 0.65821 0.88582 0.0
C1495 C 0.38346 0.65106 0.88872 0.0
N1496 N 0.44724 0.67342 0.90407 0.0
N1497 N 0.2844 0.6959 0.89887 0.0
C1498 C 0.40816 0.68115 0.89883 0.0
C1499 C 0.32472 0.69351 0.89551 0.0
N1500 N 0.41676 0.7511 0.9075 0.0
N1501 N 0.31856 0.63099 0.87433 0.0
H1502 H 0.2705 0.71997 0.90711 0.0
H1503 H 0.26501 0.6722 0.89588 0.0
H1504 H 0.32897 0.60348 0.86848 0.0
H1505 H 0.28935 0.63691 0.86912 0.0
H1506 H 0.44755 0.74975 0.90517 0.0
H1507 H 0.40666 0.7801 0.91009 0.0
H1508 H 0.46476 0.69222 0.91446 0.0
H1509 H 0.46185 0.64718 0.89951 0.0
C1510 C 0.04848 0.57315 0.64149 0.0
C1511 C 0.01664 0.59839 0.64874 0.0
C1512 C 0.06061 0.65646 0.64494 0.0
C1513 C 0.09155 0.63192 0.63571 0.0
N1514 N 0.11257 0.56721 0.62172 0.0
N1515 N 0.98971 0.66474 0.64971 0.0
C1516 C 0.08456 0.59041 0.63262 0.0
C1517 C 0.02202 0.64023 0.64828 0.0
N1518 N 0.04548 0.53285 0.64447 0.0
N1519 N 0.06774 0.69528 0.65093 0.0
H1520 H 0.96092 0.65349 0.65028 0.0
H1521 H 0.99114 0.69547 0.64712 0.0
H1522 H 0.09482 0.70966 0.64818 0.0
H1523 H 0.04732 0.71258 0.66034 0.0
H1524 H 0.06928 0.51334 0.64202 0.0
H1525 H 0.02033 0.51902 0.65154 0.0
H1526 H 0.10729 0.53786 0.6166 0.0
H1527 H 0.14013 0.57806 0.61618 0.0
C1528 C 0.16902 0.66747 0.11214 0.0
C1529 C 0.14286 0.66419 0.13192 0.0
C1530 C 0.15963 0.7329 0.14319 0.0
C1531 C 0.17869 0.7387 0.12092 0.0
N1532 N 0.20606 0.71017 0.08525 0.0
N1533 N 0.11314 0.69454 0.16669 0.0
C1534 C 0.18473 0.70546 0.10573 0.0
C1535 C 0.13851 0.69691 0.14774 0.0
N1536 N 0.18038 0.63381 0.10024 0.0
N1537 N 0.16292 0.76104 0.16048 0.0
H1538 H 0.09934 0.66838 0.17216 0.0
H1539 H 0.10388 0.71934 0.17635 0.0
H1540 H 0.18067 0.7859 0.1584 0.0
H1541 H 0.15287 0.75716 0.17784 0.0
H1542 H 0.20207 0.63337 0.08703 0.0
H1543 H 0.171 0.60536 0.1052 0.0
H1544 H 0.20679 0.6892 0.07164 0.0
H1545 H 0.2227 0.73574 0.08176 0.0
C1546 C 0.08747 0.41146 0.88049 0.0
C1547 C 0.09355 0.36973 0.87826 0.0
C1548 C 0.02594 0.3622 0.86168 0.0
C1549 C 0.01942 0.404 0.86413 0.0
N1550 N 0.04312 0.46827 0.87769 0.0
N1551 N 0.06705 0.30446 0.86977 0.0
C1552 C 0.04972 0.42845 0.87438 0.0
C1553 C 0.06238 0.34497 0.8696 0.0
N1554 N 0.11885 0.43536 0.8867 0.0
N1555 N 0.99738 0.3386 0.8515 0.0
H1556 H 0.0938 0.29046 0.87398 0.0
H1557 H 0.04386 0.28428 0.8673 0.0
H1558 H 0.96779 0.34726 0.84939 0.0
H1559 H 0.0029 0.31014 0.84495 0.0
H1560 H 0.11848 0.46631 0.88566 0.0
H1561 H 0.14674 0.42431 0.89141 0.0
H1562 H 0.06077 0.48616 0.88852 0.0
H1563 H 0.01931 0.48375 0.87029 0.0
C1564 C 0.3171 0.30108 0.62335 0.0
C1565 C 0.33685 0.27646 0.60622 0.0
C1566 C 0.39408 0.32183 0.60727 0.0
C1567 C 0.37383 0.34808 0.6229 0.0
N1568 N 0.31131 0.36677 0.6411 0.0
N1569 N 0.38445 0.27943 0.57363 0.0
C1570 C 0.33413 0.3387 0.62992 0.0
C1571 C 0.37256 0.29125 0.59574 0.0
N1572 N 0.28103 0.29018 0.6325 0.0
N1573 N 0.434 0.32587 0.60308 0.0
H1574 H 0.36573 0.26459 0.56185 0.0
H1575 H 0.40953 0.29125 0.56523 0.0
H1576 H 0.45157 0.34755 0.61114 0.0
H1577 H 0.45023 0.30483 0.59345 0.0
H1578 H 0.26942 0.30255 0.64801 0.0
H1579 H 0.26209 0.26984 0.62435 0.0
H1580 H 0.2809 0.36339 0.64425 0.0
H1581 H 0.32149 0.39524 0.64519 0.0
C1582 C 0.44824 0.56514 0.37002 0.0
C1583 C 0.47903 0.59171 0.36265 0.0
C1584 C 0.43346 0.64852 0.36862 0.0
C1585 C 0.40351 0.62196 0.37685 0.0
N1586 N 0.38437 0.55628 0.38968 0.0
N1587 N 0.50252 0.65941 0.35768 0.0
C1588 C 0.41172 0.58073 0.37912 0.0
C1589 C 0.47199 0.63363 0.36261 0.0
N1590 N 0.45239 0.52504 0.36646 0.0
N1591 N 0.4249 0.68826 0.36667 0.0
H1592 H 0.53166 0.65034 0.35436 0.0
H1593 H 0.50049 0.69022 0.35919 0.0
H1594 H 0.39906 0.70088 0.37367 0.0
H1595 H 0.44248 0.7087 0.35753 0.0
H1596 H 0.42943 0.50462 0.36905 0.0
H1597 H 0.47725 0.51224 0.35843 0.0
H1598 H 0.39035 0.52685 0.39436 0.0
H1599 H 0.3567 0.56631 0.39563 0.0
loop_
_geom_bond_atom_site_label_1
_geom_bond_atom_site_label_2
_geom_bond_distance
_geom_bond_site_symmetry_2
_ccdc_geom_bond_type
Co0 O1 2.216 . S
Co0 O2 2.091 . S
Co0 O4 2.004 . S
Co0 O10 2.021 . S
Co0 O12 2.137 . S
Co0 O13 2.244 . S
O1 Co0 2.216 . S
O1 C8 1.247 . S
O2 Co0 2.091 . S
O2 C8 1.261 . S
C3 O12 1.247 . S
C3 O13 1.272 . S
O4 Co0 2.004 . S
O4 C9 1.259 . S
Co5 O6 2.061 . S
Co5 O11 2.052 . S
Co5 O13 2.135 . S
O6 Co5 2.061 . S
O6 C9 1.235 . S
C7 O10 1.238 . S
C7 O11 1.241 . S
C8 O1 1.247 . S
C8 O2 1.261 . S
C9 O4 1.259 . S
C9 O6 1.235 . S
O10 Co0 2.021 . S
O10 C7 1.238 . S
O11 Co5 2.052 . S
O11 C7 1.241 . S
O12 Co0 2.137 . S
O12 C3 1.247 . S
O13 Co0 2.244 . S
O13 C3 1.272 . S
O13 Co5 2.135 . S
Co14 O15 2.216 . S
Co14 O16 2.091 . S
Co14 O18 2.004 . S
Co14 O24 2.021 . S
Co14 O26 2.137 . S
Co14 O27 2.244 . S
O15 Co14 2.216 . S
O15 C22 1.247 . S
O16 Co14 2.091 . S
O16 C22 1.261 . S
C17 O26 1.247 . S
C17 O27 1.272 . S
O18 Co14 2.004 . S
O18 C23 1.259 . S
Co19 O20 2.061 . S
Co19 O25 2.052 . S
Co19 O27 2.135 . S
O20 Co19 2.061 . S
O20 C23 1.235 . S
C21 O24 1.238 . S
C21 O25 1.241 . S
C22 O15 1.247 . S
C22 O16 1.261 . S
C23 O18 1.259 . S
C23 O20 1.235 . S
O24 Co14 2.021 . S
O24 C21 1.238 . S
O25 Co19 2.052 . S
O25 C21 1.241 . S
O26 Co14 2.137 . S
O26 C17 1.247 . S
O27 Co14 2.244 . S
O27 C17 1.272 . S
O27 Co19 2.135 . S
Co28 O29 2.216 . S
Co28 O30 2.091 . S
Co28 O32 2.004 . S
Co28 O38 2.021 . S
Co28 O40 2.137 . S
Co28 O41 2.244 . S
O29 Co28 2.216 . S
O29 C36 1.247 . S
O30 Co28 2.091 . S
O30 C36 1.261 . S
C31 O40 1.247 . S
C31 O41 1.272 . S
O32 Co28 2.004 . S
O32 C37 1.259 . S
Co33 O34 2.061 . S
Co33 O39 2.052 . S
Co33 O41 2.135 . S
O34 Co33 2.061 . S
O34 C37 1.235 . S
C35 O38 1.238 . S
C35 O39 1.241 . S
C36 O29 1.247 . S
C36 O30 1.261 . S
C37 O32 1.259 . S
C37 O34 1.235 . S
O38 Co28 2.021 . S
O38 C35 1.238 . S
O39 Co33 2.052 . S
O39 C35 1.241 . S
O40 Co28 2.137 . S
O40 C31 1.247 . S
O41 Co28 2.244 . S
O41 C31 1.272 . S
O41 Co33 2.135 . S
Co42 O43 2.216 . S
Co42 O44 2.091 . S
Co42 O46 2.004 . S
Co42 O52 2.021 . S
Co42 O54 2.137 . S
Co42 O55 2.244 . S
O43 Co42 2.216 . S
O43 C50 1.247 . S
O44 Co42 2.091 . S
O44 C50 1.261 . S
C45 O54 1.247 . S
C45 O55 1.272 . S
O46 Co42 2.004 . S
O46 C51 1.259 . S
Co47 O48 2.061 . S
Co47 O53 2.052 . S
Co47 O55 2.135 . S
O48 Co47 2.061 . S
O48 C51 1.235 . S
C49 O52 1.238 . S
C49 O53 1.241 . S
C50 O43 1.247 . S
C50 O44 1.261 . S
C51 O46 1.259 . S
C51 O48 1.235 . S
O52 Co42 2.021 . S
O52 C49 1.238 . S
O53 Co47 2.052 . S
O53 C49 1.241 . S
O54 Co42 2.137 . S
O54 C45 1.247 . S
O55 Co42 2.244 . S
O55 C45 1.272 . S
O55 Co47 2.135 . S
Co56 O57 2.216 . S
Co56 O58 2.091 . S
Co56 O60 2.004 . S
Co56 O66 2.021 . S
Co56 O68 2.137 . S
Co56 O69 2.244 . S
O57 Co56 2.216 . S
O57 C64 1.247 . S
O58 Co56 2.091 . S
O58 C64 1.261 . S
C59 O68 1.247 . S
C59 O69 1.272 . S
O60 Co56 2.004 . S
O60 C65 1.259 . S
Co61 O62 2.061 . S
Co61 O67 2.052 . S
Co61 O69 2.135 . S
O62 Co61 2.061 . S
O62 C65 1.235 . S
C63 O66 1.238 . S
C63 O67 1.241 . S
C64 O57 1.247 . S
C64 O58 1.261 . S
C65 O60 1.259 . S
C65 O62 1.235 . S
O66 Co56 2.021 . S
O66 C63 1.238 . S
O67 Co61 2.052 . S
O67 C63 1.241 . S
O68 Co56 2.137 . S
O68 C59 1.247 . S
O69 Co56 2.244 . S
O69 C59 1.272 . S
O69 Co61 2.135 . S
Co70 O71 2.216 . S
Co70 O72 2.091 . S
Co70 O74 2.004 . S
Co70 O80 2.021 . S
Co70 O82 2.137 . S
Co70 O83 2.244 . S
O71 Co70 2.216 . S
O71 C78 1.247 . S
O72 Co70 2.091 . S
O72 C78 1.261 . S
C73 O82 1.247 . S
C73 O83 1.272 . S
O74 Co70 2.004 . S
O74 C79 1.259 . S
Co75 O76 2.061 . S
Co75 O81 2.052 . S
Co75 O83 2.135 . S
O76 Co75 2.061 . S
O76 C79 1.235 . S
C77 O80 1.238 . S
C77 O81 1.241 . S
C78 O71 1.247 . S
C78 O72 1.261 . S
C79 O74 1.259 . S
C79 O76 1.235 . S
O80 Co70 2.021 . S
O80 C77 1.238 . S
O81 Co75 2.052 . S
O81 C77 1.241 . S
O82 Co70 2.137 . S
O82 C73 1.247 . S
O83 Co70 2.244 . S
O83 C73 1.272 . S
O83 Co75 2.135 . S
Co84 O85 2.216 . S
Co84 O86 2.091 . S
Co84 O88 2.004 . S
Co84 O94 2.021 . S
Co84 O96 2.137 . S
Co84 O97 2.244 . S
O85 Co84 2.216 . S
O85 C92 1.247 . S
O86 Co84 2.091 . S
O86 C92 1.261 . S
C87 O96 1.247 . S
C87 O97 1.272 . S
O88 Co84 2.004 . S
O88 C93 1.259 . S
Co89 O90 2.061 . S
Co89 O95 2.052 . S
Co89 O97 2.135 . S
O90 Co89 2.061 . S
O90 C93 1.235 . S
C91 O94 1.238 . S
C91 O95 1.241 . S
C92 O85 1.247 . S
C92 O86 1.261 . S
C93 O88 1.259 . S
C93 O90 1.235 . S
O94 Co84 2.021 . S
O94 C91 1.238 . S
O95 Co89 2.052 . S
O95 C91 1.241 . S
O96 Co84 2.137 . S
O96 C87 1.247 . S
O97 Co84 2.244 . S
O97 C87 1.272 . S
O97 Co89 2.135 . S
Co98 O99 2.216 . S
Co98 O100 2.091 . S
Co98 O102 2.004 . S
Co98 O108 2.021 . S
Co98 O110 2.137 . S
Co98 O111 2.244 . S
O99 Co98 2.216 . S
O99 C106 1.247 . S
O100 Co98 2.091 . S
O100 C106 1.261 . S
C101 O110 1.247 . S
C101 O111 1.272 . S
O102 Co98 2.004 . S
O102 C107 1.259 . S
Co103 O104 2.061 . S
Co103 O109 2.052 . S
Co103 O111 2.135 . S
O104 Co103 2.061 . S
O104 C107 1.235 . S
C105 O108 1.238 . S
C105 O109 1.241 . S
C106 O99 1.247 . S
C106 O100 1.261 . S
C107 O102 1.259 . S
C107 O104 1.235 . S
O108 Co98 2.021 . S
O108 C105 1.238 . S
O109 Co103 2.052 . S
O109 C105 1.241 . S
O110 Co98 2.137 . S
O110 C101 1.247 . S
O111 Co98 2.244 . S
O111 C101 1.272 . S
O111 Co103 2.135 . S
Co112 O113 2.216 . S
Co112 O114 2.091 . S
Co112 O116 2.004 . S
Co112 O122 2.021 . S
Co112 O124 2.137 . S
Co112 O125 2.244 . S
O113 Co112 2.216 . S
O113 C120 1.247 . S
O114 Co112 2.091 . S
O114 C120 1.261 . S
C115 O124 1.247 . S
C115 O125 1.272 . S
O116 Co112 2.004 . S
O116 C121 1.259 . S
Co117 O118 2.061 . S
Co117 O123 2.052 . S
Co117 O125 2.135 . S
O118 Co117 2.061 . S
O118 C121 1.235 . S
C119 O122 1.238 . S
C119 O123 1.241 . S
C120 O113 1.247 . S
C120 O114 1.261 . S
C121 O116 1.259 . S
C121 O118 1.235 . S
O122 Co112 2.021 . S
O122 C119 1.238 . S
O123 Co117 2.052 . S
O123 C119 1.241 . S
O124 Co112 2.137 . S
O124 C115 1.247 . S
O125 Co112 2.244 . S
O125 C115 1.272 . S
O125 Co117 2.135 . S
Co126 O127 2.216 . S
Co126 O128 2.091 . S
Co126 O130 2.004 . S
Co126 O136 2.021 . S
Co126 O138 2.137 . S
Co126 O139 2.244 . S
O127 Co126 2.216 . S
O127 C134 1.247 . S
O128 Co126 2.091 . S
O128 C134 1.261 . S
C129 O138 1.247 . S
C129 O139 1.272 . S
O130 Co126 2.004 . S
O130 C135 1.259 . S
Co131 O132 2.061 . S
Co131 O137 2.052 . S
Co131 O139 2.135 . S
O132 Co131 2.061 . S
O132 C135 1.235 . S
C133 O136 1.238 . S
C133 O137 1.241 . S
C134 O127 1.247 . S
C134 O128 1.261 . S
C135 O130 1.259 . S
C135 O132 1.235 . S
O136 Co126 2.021 . S
O136 C133 1.238 . S
O137 Co131 2.052 . S
O137 C133 1.241 . S
O138 Co126 2.137 . S
O138 C129 1.247 . S
O139 Co126 2.244 . S
O139 C129 1.272 . S
O139 Co131 2.135 . S
Co140 O141 2.216 . S
Co140 O142 2.091 . S
Co140 O144 2.004 . S
Co140 O150 2.021 . S
Co140 O152 2.137 . S
Co140 O153 2.244 . S
O141 Co140 2.216 . S
O141 C148 1.247 . S
O142 Co140 2.091 . S
O142 C148 1.261 . S
C143 O152 1.247 . S
C143 O153 1.272 . S
O144 Co140 2.004 . S
O144 C149 1.259 . S
Co145 O146 2.061 . S
Co145 O151 2.052 . S
Co145 O153 2.135 . S
O146 Co145 2.061 . S
O146 C149 1.235 . S
C147 O150 1.238 . S
C147 O151 1.241 . S
C148 O141 1.247 . S
C148 O142 1.261 . S
C149 O144 1.259 . S
C149 O146 1.235 . S
O150 Co140 2.021 . S
O150 C147 1.238 . S
O151 Co145 2.052 . S
O151 C147 1.241 . S
O152 Co140 2.137 . S
O152 C143 1.247 . S
O153 Co140 2.244 . S
O153 C143 1.272 . S
O153 Co145 2.135 . S
Co154 O155 2.216 . S
Co154 O156 2.091 . S
Co154 O158 2.004 . S
Co154 O164 2.021 . S
Co154 O166 2.137 . S
Co154 O167 2.244 . S
O155 Co154 2.216 . S
O155 C162 1.247 . S
O156 Co154 2.091 . S
O156 C162 1.261 . S
C157 O166 1.247 . S
C157 O167 1.272 . S
O158 Co154 2.004 . S
O158 C163 1.259 . S
Co159 O160 2.061 . S
Co159 O165 2.052 . S
Co159 O167 2.135 . S
O160 Co159 2.061 . S
O160 C163 1.235 . S
C161 O164 1.238 . S
C161 O165 1.241 . S
C162 O155 1.247 . S
C162 O156 1.261 . S
C163 O158 1.259 . S
C163 O160 1.235 . S
O164 Co154 2.021 . S
O164 C161 1.238 . S
O165 Co159 2.052 . S
O165 C161 1.241 . S
O166 Co154 2.137 . S
O166 C157 1.247 . S
O167 Co154 2.244 . S
O167 C157 1.272 . S
O167 Co159 2.135 . S
Co168 O169 2.216 . S
Co168 O170 2.091 . S
Co168 O172 2.004 . S
Co168 O178 2.021 . S
Co168 O180 2.137 . S
Co168 O181 2.244 . S
O169 Co168 2.216 . S
O169 C176 1.247 . S
O170 Co168 2.091 . S
O170 C176 1.261 . S
C171 O180 1.247 . S
C171 O181 1.272 . S
O172 Co168 2.004 . S
O172 C177 1.259 . S
Co173 O174 2.061 . S
Co173 O179 2.052 . S
Co173 O181 2.135 . S
O174 Co173 2.061 . S
O174 C177 1.235 . S
C175 O178 1.238 . S
C175 O179 1.241 . S
C176 O169 1.247 . S
C176 O170 1.261 . S
C177 O172 1.259 . S
C177 O174 1.235 . S
O178 Co168 2.021 . S
O178 C175 1.238 . S
O179 Co173 2.052 . S
O179 C175 1.241 . S
O180 Co168 2.137 . S
O180 C171 1.247 . S
O181 Co168 2.244 . S
O181 C171 1.272 . S
O181 Co173 2.135 . S
Co182 O183 2.216 . S
Co182 O184 2.091 . S
Co182 O186 2.004 . S
Co182 O192 2.021 . S
Co182 O194 2.137 . S
Co182 O195 2.244 . S
O183 Co182 2.216 . S
O183 C190 1.247 . S
O184 Co182 2.091 . S
O184 C190 1.261 . S
C185 O194 1.247 . S
C185 O195 1.272 . S
O186 Co182 2.004 . S
O186 C191 1.259 . S
Co187 O188 2.061 . S
Co187 O193 2.052 . S
Co187 O195 2.135 . S
O188 Co187 2.061 . S
O188 C191 1.235 . S
C189 O192 1.238 . S
C189 O193 1.241 . S
C190 O183 1.247 . S
C190 O184 1.261 . S
C191 O186 1.259 . S
C191 O188 1.235 . S
O192 Co182 2.021 . S
O192 C189 1.238 . S
O193 Co187 2.052 . S
O193 C189 1.241 . S
O194 Co182 2.137 . S
O194 C185 1.247 . S
O195 Co182 2.244 . S
O195 C185 1.272 . S
O195 Co187 2.135 . S
Co196 O197 2.216 . S
Co196 O198 2.091 . S
Co196 O200 2.004 . S
Co196 O206 2.021 . S
Co196 O208 2.137 . S
Co196 O209 2.244 . S
O197 Co196 2.216 . S
O197 C204 1.247 . S
O198 Co196 2.091 . S
O198 C204 1.261 . S
C199 O208 1.247 . S
C199 O209 1.272 . S
O200 Co196 2.004 . S
O200 C205 1.259 . S
Co201 O202 2.061 . S
Co201 O207 2.052 . S
Co201 O209 2.135 . S
O202 Co201 2.061 . S
O202 C205 1.235 . S
C203 O206 1.238 . S
C203 O207 1.241 . S
C204 O197 1.247 . S
C204 O198 1.261 . S
C205 O200 1.259 . S
C205 O202 1.235 . S
O206 Co196 2.021 . S
O206 C203 1.238 . S
O207 Co201 2.052 . S
O207 C203 1.241 . S
O208 Co196 2.137 . S
O208 C199 1.247 . S
O209 Co196 2.244 . S
O209 C199 1.272 . S
O209 Co201 2.135 . S
Co210 O211 2.216 . S
Co210 O212 2.091 . S
Co210 O214 2.004 . S
Co210 O220 2.021 . S
Co210 O222 2.137 . S
Co210 O223 2.244 . S
O211 Co210 2.216 . S
O211 C218 1.247 . S
O212 Co210 2.091 . S
O212 C218 1.261 . S
C213 O222 1.247 . S
C213 O223 1.272 . S
O214 Co210 2.004 . S
O214 C219 1.259 . S
Co215 O216 2.061 . S
Co215 O221 2.052 . S
Co215 O223 2.135 . S
O216 Co215 2.061 . S
O216 C219 1.235 . S
C217 O220 1.238 . S
C217 O221 1.241 . S
C218 O211 1.247 . S
C218 O212 1.261 . S
C219 O214 1.259 . S
C219 O216 1.235 . S
O220 Co210 2.021 . S
O220 C217 1.238 . S
O221 Co215 2.052 . S
O221 C217 1.241 . S
O222 Co210 2.137 . S
O222 C213 1.247 . S
O223 Co210 2.244 . S
O223 C213 1.272 . S
O223 Co215 2.135 . S
Co224 O225 2.216 . S
Co224 O226 2.091 . S
Co224 O228 2.004 . S
Co224 O234 2.021 . S
Co224 O236 2.137 . S
Co224 O237 2.244 . S
O225 Co224 2.216 . S
O225 C232 1.247 . S
O226 Co224 2.091 . S
O226 C232 1.261 . S
C227 O236 1.247 . S
C227 O237 1.272 . S
O228 Co224 2.004 . S
O228 C233 1.259 . S
Co229 O230 2.061 . S
Co229 O235 2.052 . S
Co229 O237 2.135 . S
O230 Co229 2.061 . S
O230 C233 1.235 . S
C231 O234 1.238 . S
C231 O235 1.241 . S
C232 O225 1.247 . S
C232 O226 1.261 . S
C233 O228 1.259 . S
C233 O230 1.235 . S
O234 Co224 2.021 . S
O234 C231 1.238 . S
O235 Co229 2.052 . S
O235 C231 1.241 . S
O236 Co224 2.137 . S
O236 C227 1.247 . S
O237 Co224 2.244 . S
O237 C227 1.272 . S
O237 Co229 2.135 . S
Co238 O239 2.216 . S
Co238 O240 2.091 . S
Co238 O242 2.004 . S
Co238 O248 2.021 . S
Co238 O250 2.137 . S
Co238 O251 2.244 . S
O239 Co238 2.216 . S
O239 C246 1.247 . S
O240 Co238 2.091 . S
O240 C246 1.261 . S
C241 O250 1.247 . S
C241 O251 1.272 . S
O242 Co238 2.004 . S
O242 C247 1.259 . S
Co243 O244 2.061 . S
Co243 O249 2.052 . S
Co243 O251 2.135 . S
O244 Co243 2.061 . S
O244 C247 1.235 . S
C245 O248 1.238 . S
C245 O249 1.241 . S
C246 O239 1.247 . S
C246 O240 1.261 . S
C247 O242 1.259 . S
C247 O244 1.235 . S
O248 Co238 2.021 . S
O248 C245 1.238 . S
O249 Co243 2.052 . S
O249 C245 1.241 . S
O250 Co238 2.137 . S
O250 C241 1.247 . S
O251 Co238 2.244 . S
O251 C241 1.272 . S
O251 Co243 2.135 . S
Co252 O253 2.216 . S
Co252 O254 2.091 . S
Co252 O256 2.004 . S
Co252 O262 2.021 . S
Co252 O264 2.137 . S
Co252 O265 2.244 . S
O253 Co252 2.216 . S
O253 C260 1.247 . S
O254 Co252 2.091 . S
O254 C260 1.261 . S
C255 O264 1.247 . S
C255 O265 1.272 . S
O256 Co252 2.004 . S
O256 C261 1.259 . S
Co257 O258 2.061 . S
Co257 O263 2.052 . S
Co257 O265 2.135 . S
O258 Co257 2.061 . S
O258 C261 1.235 . S
C259 O262 1.238 . S
C259 O263 1.241 . S
C260 O253 1.247 . S
C260 O254 1.261 . S
C261 O256 1.259 . S
C261 O258 1.235 . S
O262 Co252 2.021 . S
O262 C259 1.238 . S
O263 Co257 2.052 . S
O263 C259 1.241 . S
O264 Co252 2.137 . S
O264 C255 1.247 . S
O265 Co252 2.244 . S
O265 C255 1.272 . S
O265 Co257 2.135 . S
Co266 O267 2.216 . S
Co266 O268 2.091 . S
Co266 O270 2.004 . S
Co266 O276 2.021 . S
Co266 O278 2.137 . S
Co266 O279 2.244 . S
O267 Co266 2.216 . S
O267 C274 1.247 . S
O268 Co266 2.091 . S
O268 C274 1.261 . S
C269 O278 1.247 . S
C269 O279 1.272 . S
O270 Co266 2.004 . S
O270 C275 1.259 . S
Co271 O272 2.061 . S
Co271 O277 2.052 . S
Co271 O279 2.135 . S
O272 Co271 2.061 . S
O272 C275 1.235 . S
C273 O276 1.238 . S
C273 O277 1.241 . S
C274 O267 1.247 . S
C274 O268 1.261 . S
C275 O270 1.259 . S
C275 O272 1.235 . S
O276 Co266 2.021 . S
O276 C273 1.238 . S
O277 Co271 2.052 . S
O277 C273 1.241 . S
O278 Co266 2.137 . S
O278 C269 1.247 . S
O279 Co266 2.244 . S
O279 C269 1.272 . S
O279 Co271 2.135 . S
Co280 O281 2.216 . S
Co280 O282 2.091 . S
Co280 O284 2.004 . S
Co280 O290 2.021 . S
Co280 O292 2.137 . S
Co280 O293 2.244 . S
O281 Co280 2.216 . S
O281 C288 1.247 . S
O282 Co280 2.091 . S
O282 C288 1.261 . S
C283 O292 1.247 . S
C283 O293 1.272 . S
O284 Co280 2.004 . S
O284 C289 1.259 . S
Co285 O286 2.061 . S
Co285 O291 2.052 . S
Co285 O293 2.135 . S
O286 Co285 2.061 . S
O286 C289 1.235 . S
C287 O290 1.238 . S
C287 O291 1.241 . S
C288 O281 1.247 . S
C288 O282 1.261 . S
C289 O284 1.259 . S
C289 O286 1.235 . S
O290 Co280 2.021 . S
O290 C287 1.238 . S
O291 Co285 2.052 . S
O291 C287 1.241 . S
O292 Co280 2.137 . S
O292 C283 1.247 . S
O293 Co280 2.244 . S
O293 C283 1.272 . S
O293 Co285 2.135 . S
Co294 O295 2.216 . S
Co294 O296 2.091 . S
Co294 O298 2.004 . S
Co294 O304 2.021 . S
Co294 O306 2.137 . S
Co294 O307 2.244 . S
O295 Co294 2.216 . S
O295 C302 1.247 . S
O296 Co294 2.091 . S
O296 C302 1.261 . S
C297 O306 1.247 . S
C297 O307 1.272 . S
O298 Co294 2.004 . S
O298 C303 1.259 . S
Co299 O300 2.061 . S
Co299 O305 2.052 . S
Co299 O307 2.135 . S
O300 Co299 2.061 . S
O300 C303 1.235 . S
C301 O304 1.238 . S
C301 O305 1.241 . S
C302 O295 1.247 . S
C302 O296 1.261 . S
C303 O298 1.259 . S
C303 O300 1.235 . S
O304 Co294 2.021 . S
O304 C301 1.238 . S
O305 Co299 2.052 . S
O305 C301 1.241 . S
O306 Co294 2.137 . S
O306 C297 1.247 . S
O307 Co294 2.244 . S
O307 C297 1.272 . S
O307 Co299 2.135 . S
Co308 O309 2.216 . S
Co308 O310 2.091 . S
Co308 O312 2.004 . S
Co308 O318 2.021 . S
Co308 O320 2.137 . S
Co308 O321 2.244 . S
O309 Co308 2.216 . S
O309 C316 1.247 . S
O310 Co308 2.091 . S
O310 C316 1.261 . S
C311 O320 1.247 . S
C311 O321 1.272 . S
O312 Co308 2.004 . S
O312 C317 1.259 . S
Co313 O314 2.061 . S
Co313 O319 2.052 . S
Co313 O321 2.135 . S
O314 Co313 2.061 . S
O314 C317 1.235 . S
C315 O318 1.238 . S
C315 O319 1.241 . S
C316 O309 1.247 . S
C316 O310 1.261 . S
C317 O312 1.259 . S
C317 O314 1.235 . S
O318 Co308 2.021 . S
O318 C315 1.238 . S
O319 Co313 2.052 . S
O319 C315 1.241 . S
O320 Co308 2.137 . S
O320 C311 1.247 . S
O321 Co308 2.244 . S
O321 C311 1.272 . S
O321 Co313 2.135 . S
Co322 O323 2.216 . S
Co322 O324 2.091 . S
Co322 O326 2.004 . S
Co322 O332 2.021 . S
Co322 O334 2.137 . S
Co322 O335 2.244 . S
O323 Co322 2.216 . S
O323 C330 1.247 . S
O324 Co322 2.091 . S
O324 C330 1.261 . S
C325 O334 1.247 . S
C325 O335 1.272 . S
O326 Co322 2.004 . S
O326 C331 1.259 . S
Co327 O328 2.061 . S
Co327 O333 2.052 . S
Co327 O335 2.135 . S
O328 Co327 2.061 . S
O328 C331 1.235 . S
C329 O332 1.238 . S
C329 O333 1.241 . S
C330 O323 1.247 . S
C330 O324 1.261 . S
C331 O326 1.259 . S
C331 O328 1.235 . S
O332 Co322 2.021 . S
O332 C329 1.238 . S
O333 Co327 2.052 . S
O333 C329 1.241 . S
O334 Co322 2.137 . S
O334 C325 1.247 . S
O335 Co322 2.244 . S
O335 C325 1.272 . S
O335 Co327 2.135 . S
Co336 O337 2.216 . S
Co336 O338 2.091 . S
Co336 O340 2.004 . S
Co336 O346 2.021 . S
Co336 O348 2.137 . S
Co336 O349 2.244 . S
O337 Co336 2.216 . S
O337 C344 1.247 . S
O338 Co336 2.091 . S
O338 C344 1.261 . S
C339 O348 1.247 . S
C339 O349 1.272 . S
O340 Co336 2.004 . S
O340 C345 1.259 . S
Co341 O342 2.061 . S
Co341 O347 2.052 . S
Co341 O349 2.135 . S
O342 Co341 2.061 . S
O342 C345 1.235 . S
C343 O346 1.238 . S
C343 O347 1.241 . S
C344 O337 1.247 . S
C344 O338 1.261 . S
C345 O340 1.259 . S
C345 O342 1.235 . S
O346 Co336 2.021 . S
O346 C343 1.238 . S
O347 Co341 2.052 . S
O347 C343 1.241 . S
O348 Co336 2.137 . S
O348 C339 1.247 . S
O349 Co336 2.244 . S
O349 C339 1.272 . S
O349 Co341 2.135 . S
Co350 O351 2.216 . S
Co350 O352 2.091 . S
Co350 O354 2.004 . S
Co350 O360 2.021 . S
Co350 O362 2.137 . S
Co350 O363 2.244 . S
O351 Co350 2.216 . S
O351 C358 1.247 . S
O352 Co350 2.091 . S
O352 C358 1.261 . S
C353 O362 1.247 . S
C353 O363 1.272 . S
O354 Co350 2.004 . S
O354 C359 1.259 . S
Co355 O356 2.061 . S
Co355 O361 2.052 . S
Co355 O363 2.135 . S
O356 Co355 2.061 . S
O356 C359 1.235 . S
C357 O360 1.238 . S
C357 O361 1.241 . S
C358 O351 1.247 . S
C358 O352 1.261 . S
C359 O354 1.259 . S
C359 O356 1.235 . S
O360 Co350 2.021 . S
O360 C357 1.238 . S
O361 Co355 2.052 . S
O361 C357 1.241 . S
O362 Co350 2.137 . S
O362 C353 1.247 . S
O363 Co350 2.244 . S
O363 C353 1.272 . S
O363 Co355 2.135 . S
Co364 O365 2.216 . S
Co364 O366 2.091 . S
Co364 O368 2.004 . S
Co364 O374 2.021 . S
Co364 O376 2.137 . S
Co364 O377 2.244 . S
O365 Co364 2.216 . S
O365 C372 1.247 . S
O366 Co364 2.091 . S
O366 C372 1.261 . S
C367 O376 1.247 . S
C367 O377 1.272 . S
O368 Co364 2.004 . S
O368 C373 1.259 . S
Co369 O370 2.061 . S
Co369 O375 2.052 . S
Co369 O377 2.135 . S
O370 Co369 2.061 . S
O370 C373 1.235 . S
C371 O374 1.238 . S
C371 O375 1.241 . S
C372 O365 1.247 . S
C372 O366 1.261 . S
C373 O368 1.259 . S
C373 O370 1.235 . S
O374 Co364 2.021 . S
O374 C371 1.238 . S
O375 Co369 2.052 . S
O375 C371 1.241 . S
O376 Co364 2.137 . S
O376 C367 1.247 . S
O377 Co364 2.244 . S
O377 C367 1.272 . S
O377 Co369 2.135 . S
Co378 O379 2.216 . S
Co378 O380 2.091 . S
Co378 O382 2.004 . S
Co378 O388 2.021 . S
Co378 O390 2.137 . S
Co378 O391 2.244 . S
O379 Co378 2.216 . S
O379 C386 1.247 . S
O380 Co378 2.091 . S
O380 C386 1.261 . S
C381 O390 1.247 . S
C381 O391 1.272 . S
O382 Co378 2.004 . S
O382 C387 1.259 . S
Co383 O384 2.061 . S
Co383 O389 2.052 . S
Co383 O391 2.135 . S
O384 Co383 2.061 . S
O384 C387 1.235 . S
C385 O388 1.238 . S
C385 O389 1.241 . S
C386 O379 1.247 . S
C386 O380 1.261 . S
C387 O382 1.259 . S
C387 O384 1.235 . S
O388 Co378 2.021 . S
O388 C385 1.238 . S
O389 Co383 2.052 . S
O389 C385 1.241 . S
O390 Co378 2.137 . S
O390 C381 1.247 . S
O391 Co378 2.244 . S
O391 C381 1.272 . S
O391 Co383 2.135 . S
Co392 O393 2.216 . S
Co392 O394 2.091 . S
Co392 O396 2.004 . S
Co392 O402 2.021 . S
Co392 O404 2.137 . S
Co392 O405 2.244 . S
O393 Co392 2.216 . S
O393 C400 1.247 . S
O394 Co392 2.091 . S
O394 C400 1.261 . S
C395 O404 1.247 . S
C395 O405 1.272 . S
O396 Co392 2.004 . S
O396 C401 1.259 . S
Co397 O398 2.061 . S
Co397 O403 2.052 . S
Co397 O405 2.135 . S
O398 Co397 2.061 . S
O398 C401 1.235 . S
C399 O402 1.238 . S
C399 O403 1.241 . S
C400 O393 1.247 . S
C400 O394 1.261 . S
C401 O396 1.259 . S
C401 O398 1.235 . S
O402 Co392 2.021 . S
O402 C399 1.238 . S
O403 Co397 2.052 . S
O403 C399 1.241 . S
O404 Co392 2.137 . S
O404 C395 1.247 . S
O405 Co392 2.244 . S
O405 C395 1.272 . S
O405 Co397 2.135 . S
Co406 O407 2.216 . S
Co406 O408 2.091 . S
Co406 O410 2.004 . S
Co406 O416 2.021 . S
Co406 O418 2.137 . S
Co406 O419 2.244 . S
O407 Co406 2.216 . S
O407 C414 1.247 . S
O408 Co406 2.091 . S
O408 C414 1.261 . S
C409 O418 1.247 . S
C409 O419 1.272 . S
O410 Co406 2.004 . S
O410 C415 1.259 . S
Co411 O412 2.061 . S
Co411 O417 2.052 . S
Co411 O419 2.135 . S
O412 Co411 2.061 . S
O412 C415 1.235 . S
C413 O416 1.238 . S
C413 O417 1.241 . S
C414 O407 1.247 . S
C414 O408 1.261 . S
C415 O410 1.259 . S
C415 O412 1.235 . S
O416 Co406 2.021 . S
O416 C413 1.238 . S
O417 Co411 2.052 . S
O417 C413 1.241 . S
O418 Co406 2.137 . S
O418 C409 1.247 . S
O419 Co406 2.244 . S
O419 C409 1.272 . S
O419 Co411 2.135 . S
Co420 O421 2.216 . S
Co420 O422 2.091 . S
Co420 O424 2.004 . S
Co420 O430 2.021 . S
Co420 O432 2.137 . S
Co420 O433 2.244 . S
O421 Co420 2.216 . S
O421 C428 1.247 . S
O422 Co420 2.091 . S
O422 C428 1.261 . S
C423 O432 1.247 . S
C423 O433 1.272 . S
O424 Co420 2.004 . S
O424 C429 1.259 . S
Co425 O426 2.061 . S
Co425 O431 2.052 . S
Co425 O433 2.135 . S
O426 Co425 2.061 . S
O426 C429 1.235 . S
C427 O430 1.238 . S
C427 O431 1.241 . S
C428 O421 1.247 . S
C428 O422 1.261 . S
C429 O424 1.259 . S
C429 O426 1.235 . S
O430 Co420 2.021 . S
O430 C427 1.238 . S
O431 Co425 2.052 . S
O431 C427 1.241 . S
O432 Co420 2.137 . S
O432 C423 1.247 . S
O433 Co420 2.244 . S
O433 C423 1.272 . S
O433 Co425 2.135 . S
Co434 O435 2.216 . S
Co434 O436 2.091 . S
Co434 O438 2.004 . S
Co434 O444 2.021 . S
Co434 O446 2.137 . S
Co434 O447 2.244 . S
O435 Co434 2.216 . S
O435 C442 1.247 . S
O436 Co434 2.091 . S
O436 C442 1.261 . S
C437 O446 1.247 . S
C437 O447 1.272 . S
O438 Co434 2.004 . S
O438 C443 1.259 . S
Co439 O440 2.061 . S
Co439 O445 2.052 . S
Co439 O447 2.135 . S
O440 Co439 2.061 . S
O440 C443 1.235 . S
C441 O444 1.238 . S
C441 O445 1.241 . S
C442 O435 1.247 . S
C442 O436 1.261 . S
C443 O438 1.259 . S
C443 O440 1.235 . S
O444 Co434 2.021 . S
O444 C441 1.238 . S
O445 Co439 2.052 . S
O445 C441 1.241 . S
O446 Co434 2.137 . S
O446 C437 1.247 . S
O447 Co434 2.244 . S
O447 C437 1.272 . S
O447 Co439 2.135 . S
C448 C449 1.363 . S
C448 C454 1.379 . S
C448 N456 1.356 . S
C449 C448 1.363 . S
C449 C455 1.363 1_565 S
C450 C451 1.363 . S
C450 C455 1.379 . S
C450 N457 1.356 . S
C451 C450 1.363 . S
C451 C454 1.363 1_545 S
N452 C454 1.356 . S
N452 H464 0.984 . S
N452 H465 0.985 . S
N453 C455 1.356 . S
N453 H458 0.984 . S
N453 H459 0.985 . S
C454 C448 1.379 . S
C454 C451 1.363 1_565 S
C454 N452 1.356 . S
C455 C449 1.363 1_545 S
C455 C450 1.379 . S
C455 N453 1.356 . S
N456 C448 1.356 . S
N456 H462 0.984 . S
N456 H463 0.984 . S
N457 C450 1.356 . S
N457 H460 0.984 . S
N457 H461 0.985 . S
H458 N453 0.984 . S
H459 N453 0.985 . S
H460 N457 0.984 . S
H461 N457 0.985 . S
H462 N456 0.984 . S
H463 N456 0.984 . S
H464 N452 0.984 . S
H465 N452 0.985 . S
C466 C467 1.363 . S
C466 C472 1.379 . S
C466 N474 1.356 . S
C467 C466 1.363 . S
C467 C473 1.363 . S
C468 C469 1.363 . S
C468 C473 1.379 . S
C468 N475 1.356 . S
C469 C468 1.363 . S
C469 C472 1.363 . S
N470 C472 1.356 . S
N470 H482 0.984 . S
N470 H483 0.985 . S
N471 C473 1.356 . S
N471 H476 0.984 . S
N471 H477 0.985 . S
C472 C466 1.379 . S
C472 C469 1.363 . S
C472 N470 1.356 . S
C473 C467 1.363 . S
C473 C468 1.379 . S
C473 N471 1.356 . S
N474 C466 1.356 . S
N474 H480 0.984 . S
N474 H481 0.984 . S
N475 C468 1.356 . S
N475 H478 0.984 . S
N475 H479 0.985 . S
H476 N471 0.984 . S
H477 N471 0.985 . S
H478 N475 0.984 . S
H479 N475 0.985 . S
H480 N474 0.984 . S
H481 N474 0.984 . S
H482 N470 0.984 . S
H483 N470 0.985 . S
C484 C485 1.363 1_565 S
C484 C490 1.379 . S
C484 N492 1.356 . S
C485 C484 1.363 1_545 S
C485 C491 1.363 . S
C486 C487 1.363 1_545 S
C486 C491 1.379 . S
C486 N493 1.356 . S
C487 C486 1.363 1_565 S
C487 C490 1.363 . S
N488 C490 1.356 . S
N488 H500 0.984 . S
N488 H501 0.985 . S
N489 C491 1.356 . S
N489 H494 0.984 . S
N489 H495 0.985 . S
C490 C484 1.379 . S
C490 C487 1.363 . S
C490 N488 1.356 . S
C491 C485 1.363 . S
C491 C486 1.379 . S
C491 N489 1.356 . S
N492 C484 1.356 . S
N492 H498 0.984 . S
N492 H499 0.984 . S
N493 C486 1.356 . S
N493 H496 0.984 . S
N493 H497 0.985 . S
H494 N489 0.984 . S
H495 N489 0.985 . S
H496 N493 0.984 . S
H497 N493 0.985 . S
H498 N492 0.984 . S
H499 N492 0.984 . S
H500 N488 0.984 . S
H501 N488 0.985 . S
C502 C503 1.363 . S
C502 C508 1.379 1_556 S
C502 N510 1.356 . S
C503 C502 1.363 . S
C503 C509 1.363 . S
C504 C505 1.363 . S
C504 C509 1.379 1_554 S
C504 N511 1.356 . S
C505 C504 1.363 . S
C505 C508 1.363 . S
N506 C508 1.356 . S
N506 H518 0.984 . S
N506 H519 0.985 . S
N507 C509 1.356 . S
N507 H512 0.984 . S
N507 H513 0.985 . S
C508 C502 1.379 1_554 S
C508 C505 1.363 . S
C508 N506 1.356 . S
C509 C503 1.363 . S
C509 C504 1.379 1_556 S
C509 N507 1.356 . S
N510 C502 1.356 . S
N510 H516 0.984 . S
N510 H517 0.984 . S
N511 C504 1.356 . S
N511 H514 0.984 . S
N511 H515 0.985 . S
H512 N507 0.984 . S
H513 N507 0.985 . S
H514 N511 0.984 . S
H515 N511 0.985 . S
H516 N510 0.984 . S
H517 N510 0.984 . S
H518 N506 0.984 . S
H519 N506 0.985 . S
C520 C521 1.363 1_545 S
C520 C526 1.379 . S
C520 N528 1.356 . S
C521 C520 1.363 1_565 S
C521 C527 1.363 . S
C522 C523 1.363 1_565 S
C522 C527 1.379 . S
C522 N529 1.356 . S
C523 C522 1.363 1_545 S
C523 C526 1.363 . S
N524 C526 1.356 . S
N524 H536 0.984 . S
N524 H537 0.985 . S
N525 C527 1.356 . S
N525 H530 0.984 . S
N525 H531 0.985 . S
C526 C520 1.379 . S
C526 C523 1.363 . S
C526 N524 1.356 . S
C527 C521 1.363 . S
C527 C522 1.379 . S
C527 N525 1.356 . S
N528 C520 1.356 . S
N528 H534 0.984 . S
N528 H535 0.984 . S
N529 C522 1.356 . S
N529 H532 0.984 . S
N529 H533 0.985 . S
H530 N525 0.984 . S
H531 N525 0.985 . S
H532 N529 0.984 . S
H533 N529 0.985 . S
H534 N528 0.984 . S
H535 N528 0.984 . S
H536 N524 0.984 . S
H537 N524 0.985 . S
C538 C539 1.363 . S
C538 C544 1.379 . S
C538 N546 1.356 . S
C539 C538 1.363 . S
C539 C545 1.363 . S
C540 C541 1.363 . S
C540 C545 1.379 . S
C540 N547 1.356 . S
C541 C540 1.363 . S
C541 C544 1.363 . S
N542 C544 1.356 . S
N542 H554 0.984 . S
N542 H555 0.985 . S
N543 C545 1.356 . S
N543 H548 0.984 . S
N543 H549 0.985 . S
C544 C538 1.379 . S
C544 C541 1.363 . S
C544 N542 1.356 . S
C545 C539 1.363 . S
C545 C540 1.379 . S
C545 N543 1.356 . S
N546 C538 1.356 . S
N546 H552 0.984 . S
N546 H553 0.984 . S
N547 C540 1.356 . S
N547 H550 0.984 . S
N547 H551 0.985 . S
H548 N543 0.984 . S
H549 N543 0.985 . S
H550 N547 0.984 . S
H551 N547 0.985 . S
H552 N546 0.984 . S
H553 N546 0.984 . S
H554 N542 0.984 . S
H555 N542 0.985 . S
C556 C557 1.363 1_565 S
C556 C562 1.379 . S
C556 N564 1.356 . S
C557 C556 1.363 1_545 S
C557 C563 1.363 . S
C558 C559 1.363 1_545 S
C558 C563 1.379 . S
C558 N565 1.356 . S
C559 C558 1.363 1_565 S
C559 C562 1.363 . S
N560 C562 1.356 . S
N560 H572 0.984 . S
N560 H573 0.985 . S
N561 C563 1.356 . S
N561 H566 0.984 . S
N561 H567 0.985 . S
C562 C556 1.379 . S
C562 C559 1.363 . S
C562 N560 1.356 . S
C563 C557 1.363 . S
C563 C558 1.379 . S
C563 N561 1.356 . S
N564 C556 1.356 . S
N564 H570 0.984 . S
N564 H571 0.984 . S
N565 C558 1.356 . S
N565 H568 0.984 . S
N565 H569 0.985 . S
H566 N561 0.984 . S
H567 N561 0.985 . S
H568 N565 0.984 . S
H569 N565 0.985 . S
H570 N564 0.984 . S
H571 N564 0.984 . S
H572 N560 0.984 . S
H573 N560 0.985 . S
C574 C575 1.363 . S
C574 C580 1.379 1_556 S
C574 N582 1.356 . S
C575 C574 1.363 . S
C575 C581 1.363 . S
C576 C577 1.363 . S
C576 C581 1.379 1_554 S
C576 N583 1.356 . S
C577 C576 1.363 . S
C577 C580 1.363 . S
N578 C580 1.356 . S
N578 H590 0.984 . S
N578 H591 0.985 . S
N579 C581 1.356 . S
N579 H584 0.984 . S
N579 H585 0.985 . S
C580 C574 1.379 1_554 S
C580 C577 1.363 . S
C580 N578 1.356 . S
C581 C575 1.363 . S
C581 C576 1.379 1_556 S
C581 N579 1.356 . S
N582 C574 1.356 . S
N582 H588 0.984 . S
N582 H589 0.984 . S
N583 C576 1.356 . S
N583 H586 0.984 . S
N583 H587 0.985 . S
H584 N579 0.984 . S
H585 N579 0.985 . S
H586 N583 0.984 . S
H587 N583 0.985 . S
H588 N582 0.984 . S
H589 N582 0.984 . S
H590 N578 0.984 . S
H591 N578 0.985 . S
C592 C593 1.363 . S
C592 C598 1.379 . S
C592 N600 1.356 . S
C593 C592 1.363 . S
C593 C599 1.363 . S
C594 C595 1.363 . S
C594 C599 1.379 . S
C594 N601 1.356 . S
C595 C594 1.363 . S
C595 C598 1.363 . S
N596 C598 1.356 . S
N596 H608 0.984 . S
N596 H609 0.985 . S
N597 C599 1.356 . S
N597 H602 0.984 . S
N597 H603 0.985 . S
C598 C592 1.379 . S
C598 C595 1.363 . S
C598 N596 1.356 . S
C599 C593 1.363 . S
C599 C594 1.379 . S
C599 N597 1.356 . S
N600 C592 1.356 . S
N600 H606 0.984 . S
N600 H607 0.984 . S
N601 C594 1.356 . S
N601 H604 0.984 . S
N601 H605 0.985 . S
H602 N597 0.984 . S
H603 N597 0.985 . S
H604 N601 0.984 . S
H605 N601 0.985 . S
H606 N600 0.984 . S
H607 N600 0.984 . S
H608 N596 0.984 . S
H609 N596 0.985 . S
C610 C611 1.363 . S
C610 C616 1.379 1_554 S
C610 N618 1.356 . S
C611 C610 1.363 . S
C611 C617 1.363 . S
C612 C613 1.363 . S
C612 C617 1.379 1_556 S
C612 N619 1.356 . S
C613 C612 1.363 . S
C613 C616 1.363 . S
N614 C616 1.356 . S
N614 H626 0.984 . S
N614 H627 0.985 . S
N615 C617 1.356 . S
N615 H620 0.984 . S
N615 H621 0.985 . S
C616 C610 1.379 1_556 S
C616 C613 1.363 . S
C616 N614 1.356 . S
C617 C611 1.363 . S
C617 C612 1.379 1_554 S
C617 N615 1.356 . S
N618 C610 1.356 . S
N618 H624 0.984 . S
N618 H625 0.984 . S
N619 C612 1.356 . S
N619 H622 0.984 . S
N619 H623 0.985 . S
H620 N615 0.984 . S
H621 N615 0.985 . S
H622 N619 0.984 . S
H623 N619 0.985 . S
H624 N618 0.984 . S
H625 N618 0.984 . S
H626 N614 0.984 . S
H627 N614 0.985 . S
C628 C629 1.363 . S
C628 C634 1.379 . S
C628 N636 1.356 . S
C629 C628 1.363 . S
C629 C635 1.363 . S
C630 C631 1.363 . S
C630 C635 1.379 . S
C630 N637 1.356 . S
C631 C630 1.363 . S
C631 C634 1.363 . S
N632 C634 1.356 . S
N632 H644 0.984 . S
N632 H645 0.985 . S
N633 C635 1.356 . S
N633 H638 0.984 . S
N633 H639 0.985 . S
C634 C628 1.379 . S
C634 C631 1.363 . S
C634 N632 1.356 . S
C635 C629 1.363 . S
C635 C630 1.379 . S
C635 N633 1.356 . S
N636 C628 1.356 . S
N636 H642 0.984 . S
N636 H643 0.984 . S
N637 C630 1.356 . S
N637 H640 0.984 . S
N637 H641 0.985 . S
H638 N633 0.984 . S
H639 N633 0.985 . S
H640 N637 0.984 . S
H641 N637 0.985 . S
H642 N636 0.984 . S
H643 N636 0.984 . S
H644 N632 0.984 . S
H645 N632 0.985 . S
C646 C647 1.363 . S
C646 C652 1.379 . S
C646 N654 1.356 . S
C647 C646 1.363 . S
C647 C653 1.363 . S
C648 C649 1.363 . S
C648 C653 1.379 . S
C648 N655 1.356 . S
C649 C648 1.363 . S
C649 C652 1.363 . S
N650 C652 1.356 . S
N650 H662 0.984 . S
N650 H663 0.985 . S
N651 C653 1.356 . S
N651 H656 0.984 . S
N651 H657 0.985 . S
C652 C646 1.379 . S
C652 C649 1.363 . S
C652 N650 1.356 . S
C653 C647 1.363 . S
C653 C648 1.379 . S
C653 N651 1.356 . S
N654 C646 1.356 . S
N654 H660 0.984 . S
N654 H661 0.984 . S
N655 C648 1.356 . S
N655 H658 0.984 . S
N655 H659 0.985 . S
H656 N651 0.984 . S
H657 N651 0.985 . S
H658 N655 0.984 . S
H659 N655 0.985 . S
H660 N654 0.984 . S
H661 N654 0.984 . S
H662 N650 0.984 . S
H663 N650 0.985 . S
C664 C665 1.363 . S
C664 C670 1.379 . S
C664 N672 1.356 . S
C665 C664 1.363 . S
C665 C671 1.363 . S
C666 C667 1.363 . S
C666 C671 1.379 . S
C666 N673 1.356 . S
C667 C666 1.363 . S
C667 C670 1.363 . S
N668 C670 1.356 . S
N668 H680 0.984 . S
N668 H681 0.985 . S
N669 C671 1.356 . S
N669 H674 0.984 . S
N669 H675 0.985 . S
C670 C664 1.379 . S
C670 C667 1.363 . S
C670 N668 1.356 . S
C671 C665 1.363 . S
C671 C666 1.379 . S
C671 N669 1.356 . S
N672 C664 1.356 . S
N672 H678 0.984 . S
N672 H679 0.984 . S
N673 C666 1.356 . S
N673 H676 0.984 . S
N673 H677 0.985 . S
H674 N669 0.984 . S
H675 N669 0.985 . S
H676 N673 0.984 . S
H677 N673 0.985 . S
H678 N672 0.984 . S
H679 N672 0.984 . S
H680 N668 0.984 . S
H681 N668 0.985 . S
C682 C683 1.363 . S
C682 C688 1.379 1_554 S
C682 N690 1.356 . S
C683 C682 1.363 . S
C683 C689 1.363 . S
C684 C685 1.363 . S
C684 C689 1.379 1_556 S
C684 N691 1.356 . S
C685 C684 1.363 . S
C685 C688 1.363 . S
N686 C688 1.356 . S
N686 H698 0.984 . S
N686 H699 0.985 . S
N687 C689 1.356 . S
N687 H692 0.984 . S
N687 H693 0.985 . S
C688 C682 1.379 1_556 S
C688 C685 1.363 . S
C688 N686 1.356 . S
C689 C683 1.363 . S
C689 C684 1.379 1_554 S
C689 N687 1.356 . S
N690 C682 1.356 . S
N690 H696 0.984 . S
N690 H697 0.984 . S
N691 C684 1.356 . S
N691 H694 0.984 . S
N691 H695 0.985 . S
H692 N687 0.984 . S
H693 N687 0.985 . S
H694 N691 0.984 . S
H695 N691 0.985 . S
H696 N690 0.984 . S
H697 N690 0.984 . S
H698 N686 0.984 . S
H699 N686 0.985 . S
C700 C701 1.363 . S
C700 C706 1.379 . S
C700 N708 1.356 . S
C701 C700 1.363 . S
C701 C707 1.363 . S
C702 C703 1.363 . S
C702 C707 1.379 . S
C702 N709 1.356 . S
C703 C702 1.363 . S
C703 C706 1.363 . S
N704 C706 1.356 . S
N704 H716 0.984 . S
N704 H717 0.985 . S
N705 C707 1.356 . S
N705 H710 0.984 . S
N705 H711 0.985 . S
C706 C700 1.379 . S
C706 C703 1.363 . S
C706 N704 1.356 . S
C707 C701 1.363 . S
C707 C702 1.379 . S
C707 N705 1.356 . S
N708 C700 1.356 . S
N708 H714 0.984 . S
N708 H715 0.984 . S
N709 C702 1.356 . S
N709 H712 0.984 . S
N709 H713 0.985 . S
H710 N705 0.984 . S
H711 N705 0.985 . S
H712 N709 0.984 . S
H713 N709 0.985 . S
H714 N708 0.984 . S
H715 N708 0.984 . S
H716 N704 0.984 . S
H717 N704 0.985 . S
C718 C719 1.363 . S
C718 C724 1.379 . S
C718 N726 1.356 . S
C719 C718 1.363 . S
C719 C725 1.363 . S
C720 C721 1.363 . S
C720 C725 1.379 . S
C720 N727 1.356 . S
C721 C720 1.363 . S
C721 C724 1.363 . S
N722 C724 1.356 . S
N722 H734 0.984 . S
N722 H735 0.985 . S
N723 C725 1.356 . S
N723 H728 0.984 . S
N723 H729 0.985 . S
C724 C718 1.379 . S
C724 C721 1.363 . S
C724 N722 1.356 . S
C725 C719 1.363 . S
C725 C720 1.379 . S
C725 N723 1.356 . S
N726 C718 1.356 . S
N726 H732 0.984 . S
N726 H733 0.984 . S
N727 C720 1.356 . S
N727 H730 0.984 . S
N727 H731 0.985 . S
H728 N723 0.984 . S
H729 N723 0.985 . S
H730 N727 0.984 . S
H731 N727 0.985 . S
H732 N726 0.984 . S
H733 N726 0.984 . S
H734 N722 0.984 . S
H735 N722 0.985 . S
C736 C737 1.363 . S
C736 C742 1.379 . S
C736 N744 1.356 . S
C737 C736 1.363 . S
C737 C743 1.363 . S
C738 C739 1.363 . S
C738 C743 1.379 . S
C738 N745 1.356 . S
C739 C738 1.363 . S
C739 C742 1.363 . S
N740 C742 1.356 . S
N740 H752 0.984 . S
N740 H753 0.985 . S
N741 C743 1.356 1_545 S
N741 H746 0.984 . S
N741 H747 0.985 . S
C742 C736 1.379 . S
C742 C739 1.363 . S
C742 N740 1.356 . S
C743 C737 1.363 . S
C743 C738 1.379 . S
C743 N741 1.356 1_565 S
N744 C736 1.356 . S
N744 H750 0.984 . S
N744 H751 0.984 . S
N745 C738 1.356 . S
N745 H748 0.984 . S
N745 H749 0.985 . S
H746 N741 0.984 . S
H747 N741 0.985 . S
H748 N745 0.984 . S
H749 N745 0.985 . S
H750 N744 0.984 . S
H751 N744 0.984 . S
H752 N740 0.984 . S
H753 N740 0.985 . S
C754 C755 1.363 . S
C754 C760 1.379 . S
C754 N762 1.356 . S
C755 C754 1.363 . S
C755 C761 1.363 . S
C756 C757 1.363 . S
C756 C761 1.379 . S
C756 N763 1.356 . S
C757 C756 1.363 . S
C757 C760 1.363 . S
N758 C760 1.356 . S
N758 H770 0.983 1_545 S
N758 H771 0.985 1_545 S
N759 C761 1.356 . S
N759 H764 0.984 . S
N759 H765 0.985 . S
C760 C754 1.379 . S
C760 C757 1.363 . S
C760 N758 1.356 . S
C761 C755 1.363 . S
C761 C756 1.379 . S
C761 N759 1.356 . S
N762 C754 1.356 . S
N762 H768 0.984 . S
N762 H769 0.984 . S
N763 C756 1.356 . S
N763 H766 0.984 . S
N763 H767 0.985 . S
H764 N759 0.984 . S
H765 N759 0.985 . S
H766 N763 0.984 . S
H767 N763 0.985 . S
H768 N762 0.984 . S
H769 N762 0.984 . S
H770 N758 0.983 1_565 S
H771 N758 0.985 1_565 S
C772 C773 1.363 . S
C772 C778 1.379 . S
C772 N780 1.356 1_545 S
C773 C772 1.363 . S
C773 C779 1.363 . S
C774 C775 1.363 . S
C774 C779 1.379 . S
C774 N781 1.356 . S
C775 C774 1.363 . S
C775 C778 1.363 . S
N776 C778 1.356 . S
N776 H788 0.984 . S
N776 H789 0.985 . S
N777 C779 1.356 . S
N777 H782 0.984 . S
N777 H783 0.985 . S
C778 C772 1.379 . S
C778 C775 1.363 . S
C778 N776 1.356 . S
C779 C773 1.363 . S
C779 C774 1.379 . S
C779 N777 1.356 . S
N780 C772 1.356 1_565 S
N780 H786 0.984 . S
N780 H787 0.984 . S
N781 C774 1.356 . S
N781 H784 0.984 . S
N781 H785 0.985 . S
H782 N777 0.984 . S
H783 N777 0.985 . S
H784 N781 0.984 . S
H785 N781 0.985 . S
H786 N780 0.984 . S
H787 N780 0.984 . S
H788 N776 0.984 . S
H789 N776 0.985 . S
C790 C791 1.363 . S
C790 C796 1.379 . S
C790 N798 1.356 1_565 S
C791 C790 1.363 . S
C791 C797 1.363 . S
C792 C793 1.363 . S
C792 C797 1.379 . S
C792 N799 1.356 . S
C793 C792 1.363 . S
C793 C796 1.363 . S
N794 C796 1.356 . S
N794 H806 0.984 . S
N794 H807 0.985 . S
N795 C797 1.356 . S
N795 H800 0.984 . S
N795 H801 0.985 . S
C796 C790 1.379 . S
C796 C793 1.363 . S
C796 N794 1.356 . S
C797 C791 1.363 . S
C797 C792 1.379 . S
C797 N795 1.356 . S
N798 C790 1.356 1_545 S
N798 H804 0.984 . S
N798 H805 0.984 . S
N799 C792 1.356 . S
N799 H802 0.984 . S
N799 H803 0.985 . S
H800 N795 0.984 . S
H801 N795 0.985 . S
H802 N799 0.984 . S
H803 N799 0.985 . S
H804 N798 0.984 . S
H805 N798 0.984 . S
H806 N794 0.984 . S
H807 N794 0.985 . S
C808 C809 1.363 . S
C808 C814 1.379 . S
C808 N816 1.356 . S
C809 C808 1.363 . S
C809 C815 1.363 . S
C810 C811 1.363 . S
C810 C815 1.379 . S
C810 N817 1.356 . S
C811 C810 1.363 . S
C811 C814 1.363 . S
N812 C814 1.356 . S
N812 H824 0.984 . S
N812 H825 0.985 . S
N813 C815 1.356 . S
N813 H818 0.984 . S
N813 H819 0.985 . S
C814 C808 1.379 . S
C814 C811 1.363 . S
C814 N812 1.356 . S
C815 C809 1.363 . S
C815 C810 1.379 . S
C815 N813 1.356 . S
N816 C808 1.356 . S
N816 H822 0.984 . S
N816 H823 0.984 . S
N817 C810 1.356 . S
N817 H820 0.984 1_545 S
N817 H821 0.985 . S
H818 N813 0.984 . S
H819 N813 0.985 . S
H820 N817 0.984 1_565 S
H821 N817 0.985 . S
H822 N816 0.984 . S
H823 N816 0.984 . S
H824 N812 0.984 . S
H825 N812 0.985 . S
C826 C827 1.363 . S
C826 C832 1.379 . S
C826 N834 1.356 1_565 S
C827 C826 1.363 . S
C827 C833 1.363 . S
C828 C829 1.363 . S
C828 C833 1.379 . S
C828 N835 1.356 . S
C829 C828 1.363 . S
C829 C832 1.363 . S
N830 C832 1.356 . S
N830 H842 0.984 . S
N830 H843 0.985 . S
N831 C833 1.356 . S
N831 H836 0.984 . S
N831 H837 0.985 . S
C832 C826 1.379 . S
C832 C829 1.363 . S
C832 N830 1.356 . S
C833 C827 1.363 . S
C833 C828 1.379 . S
C833 N831 1.356 . S
N834 C826 1.356 1_545 S
N834 H840 0.984 . S
N834 H841 0.984 . S
N835 C828 1.356 . S
N835 H838 0.984 . S
N835 H839 0.985 . S
H836 N831 0.984 . S
H837 N831 0.985 . S
H838 N835 0.984 . S
H839 N835 0.985 . S
H840 N834 0.984 . S
H841 N834 0.984 . S
H842 N830 0.984 . S
H843 N830 0.985 . S
C844 C845 1.363 . S
C844 C850 1.379 . S
C844 N852 1.356 . S
C845 C844 1.363 . S
C845 C851 1.363 . S
C846 C847 1.363 . S
C846 C851 1.379 . S
C846 N853 1.356 1_565 S
C847 C846 1.363 . S
C847 C850 1.363 . S
N848 C850 1.356 . S
N848 H860 0.984 . S
N848 H861 0.985 . S
N849 C851 1.356 . S
N849 H854 0.984 . S
N849 H855 0.985 . S
C850 C844 1.379 . S
C850 C847 1.363 . S
C850 N848 1.356 . S
C851 C845 1.363 . S
C851 C846 1.379 . S
C851 N849 1.356 . S
N852 C844 1.356 . S
N852 H858 0.984 . S
N852 H859 0.984 . S
N853 C846 1.356 1_545 S
N853 H856 0.984 . S
N853 H857 0.985 . S
H854 N849 0.984 . S
H855 N849 0.985 . S
H856 N853 0.984 . S
H857 N853 0.985 . S
H858 N852 0.984 . S
H859 N852 0.984 . S
H860 N848 0.984 . S
H861 N848 0.985 . S
C862 C863 1.363 . S
C862 C868 1.379 . S
C862 N870 1.356 . S
C863 C862 1.363 . S
C863 C869 1.363 . S
C864 C865 1.363 . S
C864 C869 1.379 . S
C864 N871 1.356 1_545 S
C865 C864 1.363 . S
C865 C868 1.363 . S
N866 C868 1.356 . S
N866 H878 0.984 . S
N866 H879 0.985 . S
N867 C869 1.356 . S
N867 H872 0.984 . S
N867 H873 0.985 . S
C868 C862 1.379 . S
C868 C865 1.363 . S
C868 N866 1.356 . S
C869 C863 1.363 . S
C869 C864 1.379 . S
C869 N867 1.356 . S
N870 C862 1.356 . S
N870 H876 0.984 . S
N870 H877 0.984 . S
N871 C864 1.356 1_565 S
N871 H874 0.984 . S
N871 H875 0.985 . S
H872 N867 0.984 . S
H873 N867 0.985 . S
H874 N871 0.984 . S
H875 N871 0.985 . S
H876 N870 0.984 . S
H877 N870 0.984 . S
H878 N866 0.984 . S
H879 N866 0.985 . S
C880 C881 1.363 . S
C880 C886 1.379 . S
C880 N888 1.356 . S
C881 C880 1.363 . S
C881 C887 1.363 . S
C882 C883 1.363 . S
C882 C887 1.379 . S
C882 N889 1.356 . S
C883 C882 1.363 . S
C883 C886 1.363 . S
N884 C886 1.356 . S
N884 H896 0.984 . S
N884 H897 0.985 . S
N885 C887 1.356 . S
N885 H890 0.984 . S
N885 H891 0.985 . S
C886 C880 1.379 . S
C886 C883 1.363 . S
C886 N884 1.356 . S
C887 C881 1.363 . S
C887 C882 1.379 . S
C887 N885 1.356 . S
N888 C880 1.356 . S
N888 H894 0.984 . S
N888 H895 0.984 . S
N889 C882 1.356 . S
N889 H892 0.984 . S
N889 H893 0.985 . S
H890 N885 0.984 . S
H891 N885 0.985 . S
H892 N889 0.984 . S
H893 N889 0.985 . S
H894 N888 0.984 . S
H895 N888 0.984 . S
H896 N884 0.984 . S
H897 N884 0.985 . S
C898 C899 1.363 . S
C898 C904 1.379 . S
C898 N906 1.356 . S
C899 C898 1.363 . S
C899 C905 1.363 . S
C900 C901 1.363 . S
C900 C905 1.379 . S
C900 N907 1.356 . S
C901 C900 1.363 . S
C901 C904 1.363 . S
N902 C904 1.356 . S
N902 H914 0.984 . S
N902 H915 0.985 . S
N903 C905 1.356 . S
N903 H908 0.984 . S
N903 H909 0.985 . S
C904 C898 1.379 . S
C904 C901 1.363 . S
C904 N902 1.356 . S
C905 C899 1.363 . S
C905 C900 1.379 . S
C905 N903 1.356 . S
N906 C898 1.356 . S
N906 H912 0.984 . S
N906 H913 0.984 . S
N907 C900 1.356 . S
N907 H910 0.984 . S
N907 H911 0.985 . S
H908 N903 0.984 . S
H909 N903 0.985 . S
H910 N907 0.984 . S
H911 N907 0.985 . S
H912 N906 0.984 . S
H913 N906 0.984 . S
H914 N902 0.984 . S
H915 N902 0.985 . S
C916 C917 1.363 . S
C916 C922 1.379 . S
C916 N924 1.356 . S
C917 C916 1.363 . S
C917 C923 1.363 . S
C918 C919 1.363 . S
C918 C923 1.379 . S
C918 N925 1.356 . S
C919 C918 1.363 . S
C919 C922 1.363 . S
N920 C922 1.356 . S
N920 H932 0.984 . S
N920 H933 0.985 . S
N921 C923 1.356 . S
N921 H926 0.984 . S
N921 H927 0.985 . S
C922 C916 1.379 . S
C922 C919 1.363 . S
C922 N920 1.356 . S
C923 C917 1.363 . S
C923 C918 1.379 . S
C923 N921 1.356 . S
N924 C916 1.356 . S
N924 H930 0.984 . S
N924 H931 0.984 . S
N925 C918 1.356 . S
N925 H928 0.984 . S
N925 H929 0.985 . S
H926 N921 0.984 . S
H927 N921 0.985 . S
H928 N925 0.984 . S
H929 N925 0.985 . S
H930 N924 0.984 . S
H931 N924 0.984 . S
H932 N920 0.984 . S
H933 N920 0.985 . S
C934 C935 1.363 . S
C934 C940 1.379 . S
C934 N942 1.356 . S
C935 C934 1.363 . S
C935 C941 1.363 . S
C936 C937 1.363 . S
C936 C941 1.379 . S
C936 N943 1.356 . S
C937 C936 1.363 . S
C937 C940 1.363 . S
N938 C940 1.356 . S
N938 H950 0.984 . S
N938 H951 0.985 . S
N939 C941 1.356 . S
N939 H944 0.984 . S
N939 H945 0.985 . S
C940 C934 1.379 . S
C940 C937 1.363 . S
C940 N938 1.356 . S
C941 C935 1.363 . S
C941 C936 1.379 . S
C941 N939 1.356 . S
N942 C934 1.356 . S
N942 H948 0.984 . S
N942 H949 0.984 . S
N943 C936 1.356 . S
N943 H946 0.984 . S
N943 H947 0.985 . S
H944 N939 0.984 . S
H945 N939 0.985 . S
H946 N943 0.984 . S
H947 N943 0.985 . S
H948 N942 0.984 . S
H949 N942 0.984 . S
H950 N938 0.984 . S
H951 N938 0.985 . S
C952 C953 1.363 . S
C952 C958 1.379 . S
C952 N960 1.356 . S
C953 C952 1.363 . S
C953 C959 1.363 . S
C954 C955 1.363 . S
C954 C959 1.379 . S
C954 N961 1.356 . S
C955 C954 1.363 . S
C955 C958 1.363 . S
N956 C958 1.356 . S
N956 H968 0.984 . S
N956 H969 0.985 . S
N957 C959 1.356 . S
N957 H962 0.984 . S
N957 H963 0.985 . S
C958 C952 1.379 . S
C958 C955 1.363 . S
C958 N956 1.356 . S
C959 C953 1.363 . S
C959 C954 1.379 . S
C959 N957 1.356 . S
N960 C952 1.356 . S
N960 H966 0.984 . S
N960 H967 0.984 . S
N961 C954 1.356 . S
N961 H964 0.984 . S
N961 H965 0.985 . S
H962 N957 0.984 . S
H963 N957 0.985 . S
H964 N961 0.984 . S
H965 N961 0.985 . S
H966 N960 0.984 . S
H967 N960 0.984 . S
H968 N956 0.984 . S
H969 N956 0.985 . S
C970 C971 1.363 . S
C970 C976 1.379 . S
C970 N978 1.356 . S
C971 C970 1.363 . S
C971 C977 1.363 . S
C972 C973 1.363 . S
C972 C977 1.379 . S
C972 N979 1.356 . S
C973 C972 1.363 . S
C973 C976 1.363 . S
N974 C976 1.356 . S
N974 H986 0.984 . S
N974 H987 0.985 . S
N975 C977 1.356 . S
N975 H980 0.984 . S
N975 H981 0.985 . S
C976 C970 1.379 . S
C976 C973 1.363 . S
C976 N974 1.356 . S
C977 C971 1.363 . S
C977 C972 1.379 . S
C977 N975 1.356 . S
N978 C970 1.356 . S
N978 H984 0.984 . S
N978 H985 0.984 . S
N979 C972 1.356 . S
N979 H982 0.984 . S
N979 H983 0.985 . S
H980 N975 0.984 . S
H981 N975 0.985 . S
H982 N979 0.984 . S
H983 N979 0.985 . S
H984 N978 0.984 . S
H985 N978 0.984 . S
H986 N974 0.984 . S
H987 N974 0.985 . S
C988 C989 1.363 . S
C988 C994 1.379 . S
C988 N996 1.356 . S
C989 C988 1.363 . S
C989 C995 1.363 . S
C990 C991 1.363 . S
C990 C995 1.379 . S
C990 N997 1.356 . S
C991 C990 1.363 . S
C991 C994 1.363 . S
N992 C994 1.356 . S
N992 H1004 0.984 . S
N992 H1005 0.985 . S
N993 C995 1.356 . S
N993 H998 0.984 . S
N993 H999 0.985 . S
C994 C988 1.379 . S
C994 C991 1.363 . S
C994 N992 1.356 . S
C995 C989 1.363 . S
C995 C990 1.379 . S
C995 N993 1.356 . S
N996 C988 1.356 . S
N996 H1002 0.984 . S
N996 H1003 0.984 . S
N997 C990 1.356 . S
N997 H1000 0.984 . S
N997 H1001 0.985 . S
H998 N993 0.984 . S
H999 N993 0.985 . S
H1000 N997 0.984 . S
H1001 N997 0.985 . S
H1002 N996 0.984 . S
H1003 N996 0.984 . S
H1004 N992 0.984 . S
H1005 N992 0.985 . S
C1006 C1007 1.363 . S
C1006 C1012 1.379 . S
C1006 N1014 1.356 . S
C1007 C1006 1.363 . S
C1007 C1013 1.363 . S
C1008 C1009 1.363 . S
C1008 C1013 1.379 . S
C1008 N1015 1.356 . S
C1009 C1008 1.363 . S
C1009 C1012 1.363 . S
N1010 C1012 1.356 . S
N1010 H1022 0.984 . S
N1010 H1023 0.985 . S
N1011 C1013 1.356 . S
N1011 H1016 0.984 . S
N1011 H1017 0.985 . S
C1012 C1006 1.379 . S
C1012 C1009 1.363 . S
C1012 N1010 1.356 . S
C1013 C1007 1.363 . S
C1013 C1008 1.379 . S
C1013 N1011 1.356 . S
N1014 C1006 1.356 . S
N1014 H1020 0.984 . S
N1014 H1021 0.984 . S
N1015 C1008 1.356 . S
N1015 H1018 0.984 . S
N1015 H1019 0.985 . S
H1016 N1011 0.984 . S
H1017 N1011 0.985 . S
H1018 N1015 0.984 . S
H1019 N1015 0.985 . S
H1020 N1014 0.984 . S
H1021 N1014 0.984 . S
H1022 N1010 0.984 . S
H1023 N1010 0.985 . S
C1024 C1025 1.363 . S
C1024 C1030 1.379 . S
C1024 N1032 1.356 . S
C1025 C1024 1.363 . S
C1025 C1031 1.363 . S
C1026 C1027 1.363 . S
C1026 C1031 1.379 . S
C1026 N1033 1.356 . S
C1027 C1026 1.363 . S
C1027 C1030 1.363 . S
N1028 C1030 1.356 . S
N1028 H1040 0.984 . S
N1028 H1041 0.985 . S
N1029 C1031 1.356 . S
N1029 H1034 0.984 . S
N1029 H1035 0.985 . S
C1030 C1024 1.379 . S
C1030 C1027 1.363 . S
C1030 N1028 1.356 . S
C1031 C1025 1.363 . S
C1031 C1026 1.379 . S
C1031 N1029 1.356 . S
N1032 C1024 1.356 . S
N1032 H1038 0.984 . S
N1032 H1039 0.984 . S
N1033 C1026 1.356 . S
N1033 H1036 0.984 . S
N1033 H1037 0.985 . S
H1034 N1029 0.984 . S
H1035 N1029 0.985 . S
H1036 N1033 0.984 . S
H1037 N1033 0.985 . S
H1038 N1032 0.984 . S
H1039 N1032 0.984 . S
H1040 N1028 0.984 . S
H1041 N1028 0.985 . S
C1042 C1043 1.363 . S
C1042 C1048 1.379 . S
C1042 N1050 1.356 . S
C1043 C1042 1.363 . S
C1043 C1049 1.363 . S
C1044 C1045 1.363 . S
C1044 C1049 1.379 . S
C1044 N1051 1.356 1_455 S
C1045 C1044 1.363 . S
C1045 C1048 1.363 . S
N1046 C1048 1.356 . S
N1046 H1058 0.984 1_545 S
N1046 H1059 0.985 1_455 S
N1047 C1049 1.356 . S
N1047 H1052 0.984 . S
N1047 H1053 0.985 . S
C1048 C1042 1.379 . S
C1048 C1045 1.363 . S
C1048 N1046 1.356 . S
C1049 C1043 1.363 . S
C1049 C1044 1.379 . S
C1049 N1047 1.356 . S
N1050 C1042 1.356 . S
N1050 H1056 0.984 . S
N1050 H1057 0.984 . S
N1051 C1044 1.356 1_655 S
N1051 H1054 0.984 . S
N1051 H1055 0.985 . S
H1052 N1047 0.984 . S
H1053 N1047 0.985 . S
H1054 N1051 0.984 . S
H1055 N1051 0.985 . S
H1056 N1050 0.984 . S
H1057 N1050 0.984 . S
H1058 N1046 0.984 1_565 S
H1059 N1046 0.985 1_655 S
C1060 C1061 1.363 . S
C1060 C1066 1.379 . S
C1060 N1068 1.356 . S
C1061 C1060 1.363 . S
C1061 C1067 1.363 . S
C1062 C1063 1.363 . S
C1062 C1067 1.379 . S
C1062 N1069 1.356 . S
C1063 C1062 1.363 . S
C1063 C1066 1.363 . S
N1064 C1066 1.356 . S
N1064 H1076 0.984 . S
N1064 H1077 0.985 . S
N1065 C1067 1.356 . S
N1065 H1070 0.984 . S
N1065 H1071 0.985 . S
C1066 C1060 1.379 . S
C1066 C1063 1.363 . S
C1066 N1064 1.356 . S
C1067 C1061 1.363 . S
C1067 C1062 1.379 . S
C1067 N1065 1.356 . S
N1068 C1060 1.356 . S
N1068 H1074 0.984 . S
N1068 H1075 0.984 . S
N1069 C1062 1.356 . S
N1069 H1072 0.984 . S
N1069 H1073 0.985 . S
H1070 N1065 0.984 . S
H1071 N1065 0.985 . S
H1072 N1069 0.984 . S
H1073 N1069 0.985 . S
H1074 N1068 0.984 . S
H1075 N1068 0.984 . S
H1076 N1064 0.984 . S
H1077 N1064 0.985 . S
C1078 C1079 1.363 . S
C1078 C1084 1.379 . S
C1078 N1086 1.356 . S
C1079 C1078 1.363 . S
C1079 C1085 1.363 . S
C1080 C1081 1.363 . S
C1080 C1085 1.379 . S
C1080 N1087 1.356 . S
C1081 C1080 1.363 . S
C1081 C1084 1.363 . S
N1082 C1084 1.356 . S
N1082 H1094 0.984 . S
N1082 H1095 0.985 . S
N1083 C1085 1.356 . S
N1083 H1088 0.984 . S
N1083 H1089 0.985 . S
C1084 C1078 1.379 . S
C1084 C1081 1.363 . S
C1084 N1082 1.356 . S
C1085 C1079 1.363 . S
C1085 C1080 1.379 . S
C1085 N1083 1.356 . S
N1086 C1078 1.356 . S
N1086 H1092 0.984 . S
N1086 H1093 0.984 . S
N1087 C1080 1.356 . S
N1087 H1090 0.984 . S
N1087 H1091 0.985 . S
H1088 N1083 0.984 . S
H1089 N1083 0.985 . S
H1090 N1087 0.984 . S
H1091 N1087 0.985 . S
H1092 N1086 0.984 . S
H1093 N1086 0.984 . S
H1094 N1082 0.984 . S
H1095 N1082 0.985 . S
C1096 C1097 1.363 . S
C1096 C1102 1.379 . S
C1096 N1104 1.356 . S
C1097 C1096 1.363 . S
C1097 C1103 1.363 . S
C1098 C1099 1.363 . S
C1098 C1103 1.379 . S
C1098 N1105 1.356 . S
C1099 C1098 1.363 . S
C1099 C1102 1.363 . S
N1100 C1102 1.356 . S
N1100 H1112 0.984 . S
N1100 H1113 0.985 . S
N1101 C1103 1.356 . S
N1101 H1106 0.984 . S
N1101 H1107 0.985 . S
C1102 C1096 1.379 . S
C1102 C1099 1.363 . S
C1102 N1100 1.356 . S
C1103 C1097 1.363 . S
C1103 C1098 1.379 . S
C1103 N1101 1.356 . S
N1104 C1096 1.356 . S
N1104 H1110 0.984 . S
N1104 H1111 0.984 . S
N1105 C1098 1.356 . S
N1105 H1108 0.984 . S
N1105 H1109 0.985 . S
H1106 N1101 0.984 . S
H1107 N1101 0.985 . S
H1108 N1105 0.984 . S
H1109 N1105 0.985 . S
H1110 N1104 0.984 . S
H1111 N1104 0.984 . S
H1112 N1100 0.984 . S
H1113 N1100 0.985 . S
C1114 C1115 1.363 . S
C1114 C1120 1.379 . S
C1114 N1122 1.356 . S
C1115 C1114 1.363 . S
C1115 C1121 1.363 . S
C1116 C1117 1.363 . S
C1116 C1121 1.379 . S
C1116 N1123 1.356 . S
C1117 C1116 1.363 . S
C1117 C1120 1.363 . S
N1118 C1120 1.356 . S
N1118 H1130 0.984 . S
N1118 H1131 0.985 . S
N1119 C1121 1.356 . S
N1119 H1124 0.984 . S
N1119 H1125 0.985 . S
C1120 C1114 1.379 . S
C1120 C1117 1.363 . S
C1120 N1118 1.356 . S
C1121 C1115 1.363 . S
C1121 C1116 1.379 . S
C1121 N1119 1.356 . S
N1122 C1114 1.356 . S
N1122 H1128 0.984 . S
N1122 H1129 0.984 . S
N1123 C1116 1.356 . S
N1123 H1126 0.984 . S
N1123 H1127 0.985 . S
H1124 N1119 0.984 . S
H1125 N1119 0.985 . S
H1126 N1123 0.984 . S
H1127 N1123 0.985 . S
H1128 N1122 0.984 . S
H1129 N1122 0.984 . S
H1130 N1118 0.984 . S
H1131 N1118 0.985 . S
C1132 C1133 1.363 . S
C1132 C1138 1.379 . S
C1132 N1140 1.356 . S
C1133 C1132 1.363 . S
C1133 C1139 1.363 . S
C1134 C1135 1.363 . S
C1134 C1139 1.379 . S
C1134 N1141 1.356 . S
C1135 C1134 1.363 . S
C1135 C1138 1.363 . S
N1136 C1138 1.356 . S
N1136 H1148 0.984 . S
N1136 H1149 0.985 . S
N1137 C1139 1.356 . S
N1137 H1142 0.984 . S
N1137 H1143 0.985 . S
C1138 C1132 1.379 . S
C1138 C1135 1.363 . S
C1138 N1136 1.356 . S
C1139 C1133 1.363 . S
C1139 C1134 1.379 . S
C1139 N1137 1.356 . S
N1140 C1132 1.356 . S
N1140 H1146 0.984 . S
N1140 H1147 0.984 . S
N1141 C1134 1.356 . S
N1141 H1144 0.984 . S
N1141 H1145 0.985 . S
H1142 N1137 0.984 . S
H1143 N1137 0.985 . S
H1144 N1141 0.984 . S
H1145 N1141 0.985 . S
H1146 N1140 0.984 . S
H1147 N1140 0.984 . S
H1148 N1136 0.984 . S
H1149 N1136 0.985 . S
C1150 C1151 1.363 . S
C1150 C1156 1.379 . S
C1150 N1158 1.356 . S
C1151 C1150 1.363 . S
C1151 C1157 1.363 . S
C1152 C1153 1.363 . S
C1152 C1157 1.379 . S
C1152 N1159 1.356 1_455 S
C1153 C1152 1.363 . S
C1153 C1156 1.363 . S
N1154 C1156 1.356 . S
N1154 H1166 0.984 1_565 S
N1154 H1167 0.985 1_455 S
N1155 C1157 1.356 . S
N1155 H1160 0.984 . S
N1155 H1161 0.985 . S
C1156 C1150 1.379 . S
C1156 C1153 1.363 . S
C1156 N1154 1.356 . S
C1157 C1151 1.363 . S
C1157 C1152 1.379 . S
C1157 N1155 1.356 . S
N1158 C1150 1.356 . S
N1158 H1164 0.984 . S
N1158 H1165 0.984 . S
N1159 C1152 1.356 1_655 S
N1159 H1162 0.984 . S
N1159 H1163 0.985 . S
H1160 N1155 0.984 . S
H1161 N1155 0.985 . S
H1162 N1159 0.984 . S
H1163 N1159 0.985 . S
H1164 N1158 0.984 . S
H1165 N1158 0.984 . S
H1166 N1154 0.984 1_545 S
H1167 N1154 0.985 1_655 S
C1168 C1169 1.363 . S
C1168 C1174 1.379 . S
C1168 N1176 1.356 . S
C1169 C1168 1.363 . S
C1169 C1175 1.363 . S
C1170 C1171 1.363 . S
C1170 C1175 1.379 . S
C1170 N1177 1.356 . S
C1171 C1170 1.363 . S
C1171 C1174 1.363 . S
N1172 C1174 1.356 . S
N1172 H1184 0.984 . S
N1172 H1185 0.985 . S
N1173 C1175 1.356 . S
N1173 H1178 0.984 . S
N1173 H1179 0.985 . S
C1174 C1168 1.379 . S
C1174 C1171 1.363 . S
C1174 N1172 1.356 . S
C1175 C1169 1.363 . S
C1175 C1170 1.379 . S
C1175 N1173 1.356 . S
N1176 C1168 1.356 . S
N1176 H1182 0.984 . S
N1176 H1183 0.984 . S
N1177 C1170 1.356 . S
N1177 H1180 0.984 . S
N1177 H1181 0.985 . S
H1178 N1173 0.984 . S
H1179 N1173 0.985 . S
H1180 N1177 0.984 . S
H1181 N1177 0.985 . S
H1182 N1176 0.984 . S
H1183 N1176 0.984 . S
H1184 N1172 0.984 . S
H1185 N1172 0.985 . S
C1186 C1187 1.363 . S
C1186 C1192 1.379 . S
C1186 N1194 1.356 . S
C1187 C1186 1.363 . S
C1187 C1193 1.363 . S
C1188 C1189 1.363 . S
C1188 C1193 1.379 . S
C1188 N1195 1.356 . S
C1189 C1188 1.363 . S
C1189 C1192 1.363 . S
N1190 C1192 1.356 . S
N1190 H1202 0.984 . S
N1190 H1203 0.985 . S
N1191 C1193 1.336 1_455 S
N1191 H1196 1.007 . S
N1191 H1197 0.983 1_455 S
C1192 C1186 1.379 . S
C1192 C1189 1.363 . S
C1192 N1190 1.356 . S
C1193 C1187 1.363 . S
C1193 C1188 1.379 . S
C1193 N1191 1.336 1_655 S
N1194 C1186 1.356 . S
N1194 H1200 0.984 . S
N1194 H1201 0.984 1_655 S
N1195 C1188 1.356 . S
N1195 H1198 0.984 . S
N1195 H1199 0.985 . S
H1196 N1191 1.007 . S
H1197 N1191 0.983 1_655 S
H1198 N1195 0.984 . S
H1199 N1195 0.985 . S
H1200 N1194 0.984 . S
H1201 N1194 0.984 1_455 S
H1202 N1190 0.984 . S
H1203 N1190 0.985 . S
C1204 C1205 1.363 . S
C1204 C1210 1.379 . S
C1204 N1212 1.356 . S
C1205 C1204 1.363 . S
C1205 C1211 1.363 . S
C1206 C1207 1.363 . S
C1206 C1211 1.379 . S
C1206 N1213 1.356 . S
C1207 C1206 1.363 . S
C1207 C1210 1.363 . S
N1208 C1210 1.356 . S
N1208 H1220 0.984 . S
N1208 H1221 0.985 . S
N1209 C1211 1.356 . S
N1209 H1214 0.984 . S
N1209 H1215 0.985 . S
C1210 C1204 1.379 . S
C1210 C1207 1.363 . S
C1210 N1208 1.356 . S
C1211 C1205 1.363 . S
C1211 C1206 1.379 . S
C1211 N1209 1.356 . S
N1212 C1204 1.356 . S
N1212 H1218 0.984 . S
N1212 H1219 0.984 . S
N1213 C1206 1.356 . S
N1213 H1216 0.984 . S
N1213 H1217 0.985 . S
H1214 N1209 0.984 . S
H1215 N1209 0.985 . S
H1216 N1213 0.984 . S
H1217 N1213 0.985 . S
H1218 N1212 0.984 . S
H1219 N1212 0.984 . S
H1220 N1208 0.984 . S
H1221 N1208 0.985 . S
C1222 C1223 1.363 . S
C1222 C1228 1.379 . S
C1222 N1230 1.356 . S
C1223 C1222 1.363 . S
C1223 C1229 1.363 . S
C1224 C1225 1.363 . S
C1224 C1229 1.379 . S
C1224 N1231 1.356 . S
C1225 C1224 1.363 . S
C1225 C1228 1.363 . S
N1226 C1228 1.356 . S
N1226 H1238 0.984 . S
N1226 H1239 0.985 . S
N1227 C1229 1.356 . S
N1227 H1232 0.984 . S
N1227 H1233 0.985 . S
C1228 C1222 1.379 . S
C1228 C1225 1.363 . S
C1228 N1226 1.356 . S
C1229 C1223 1.363 . S
C1229 C1224 1.379 . S
C1229 N1227 1.356 . S
N1230 C1222 1.356 . S
N1230 H1236 0.984 . S
N1230 H1237 0.984 . S
N1231 C1224 1.356 . S
N1231 H1234 0.984 . S
N1231 H1235 0.985 . S
H1232 N1227 0.984 . S
H1233 N1227 0.985 . S
H1234 N1231 0.984 . S
H1235 N1231 0.985 . S
H1236 N1230 0.984 . S
H1237 N1230 0.984 . S
H1238 N1226 0.984 . S
H1239 N1226 0.985 . S
C1240 C1241 1.363 . S
C1240 C1246 1.379 . S
C1240 N1248 1.356 . S
C1241 C1240 1.363 . S
C1241 C1247 1.363 . S
C1242 C1243 1.363 . S
C1242 C1247 1.379 . S
C1242 N1249 1.356 . S
C1243 C1242 1.363 . S
C1243 C1246 1.363 . S
N1244 C1246 1.356 . S
N1244 H1256 0.984 . S
N1244 H1257 0.985 . S
N1245 C1247 1.356 . S
N1245 H1250 0.984 . S
N1245 H1251 0.985 . S
C1246 C1240 1.379 . S
C1246 C1243 1.363 . S
C1246 N1244 1.356 . S
C1247 C1241 1.363 . S
C1247 C1242 1.379 . S
C1247 N1245 1.356 . S
N1248 C1240 1.356 . S
N1248 H1254 0.984 . S
N1248 H1255 0.984 . S
N1249 C1242 1.356 . S
N1249 H1252 0.984 . S
N1249 H1253 0.985 . S
H1250 N1245 0.984 . S
H1251 N1245 0.985 . S
H1252 N1249 0.984 . S
H1253 N1249 0.985 . S
H1254 N1248 0.984 . S
H1255 N1248 0.984 . S
H1256 N1244 0.984 . S
H1257 N1244 0.985 . S
C1258 C1259 1.363 . S
C1258 C1264 1.379 . S
C1258 N1266 1.356 . S
C1259 C1258 1.363 . S
C1259 C1265 1.363 . S
C1260 C1261 1.363 . S
C1260 C1265 1.379 . S
C1260 N1267 1.356 . S
C1261 C1260 1.363 . S
C1261 C1264 1.363 . S
N1262 C1264 1.356 . S
N1262 H1274 0.984 . S
N1262 H1275 0.985 . S
N1263 C1265 1.356 . S
N1263 H1268 0.984 . S
N1263 H1269 0.985 1_565 S
C1264 C1258 1.379 . S
C1264 C1261 1.363 . S
C1264 N1262 1.356 . S
C1265 C1259 1.363 . S
C1265 C1260 1.379 . S
C1265 N1263 1.356 . S
N1266 C1258 1.356 . S
N1266 H1272 0.984 . S
N1266 H1273 0.984 . S
N1267 C1260 1.356 . S
N1267 H1270 0.984 . S
N1267 H1271 0.985 . S
H1268 N1263 0.984 . S
H1269 N1263 0.985 1_545 S
H1270 N1267 0.984 . S
H1271 N1267 0.985 . S
H1272 N1266 0.984 . S
H1273 N1266 0.984 . S
H1274 N1262 0.984 . S
H1275 N1262 0.985 . S
C1276 C1277 1.363 . S
C1276 C1282 1.379 . S
C1276 N1284 1.356 . S
C1277 C1276 1.363 . S
C1277 C1283 1.363 . S
C1278 C1279 1.363 . S
C1278 C1283 1.379 . S
C1278 N1285 1.356 . S
C1279 C1278 1.363 . S
C1279 C1282 1.363 . S
N1280 C1282 1.356 . S
N1280 H1292 0.984 . S
N1280 H1293 0.985 . S
N1281 C1283 1.356 . S
N1281 H1286 0.984 . S
N1281 H1287 0.985 . S
C1282 C1276 1.379 . S
C1282 C1279 1.363 . S
C1282 N1280 1.356 . S
C1283 C1277 1.363 . S
C1283 C1278 1.379 . S
C1283 N1281 1.356 . S
N1284 C1276 1.356 . S
N1284 H1290 0.984 . S
N1284 H1291 0.984 . S
N1285 C1278 1.356 . S
N1285 H1288 0.984 . S
N1285 H1289 0.985 . S
H1286 N1281 0.984 . S
H1287 N1281 0.985 . S
H1288 N1285 0.984 . S
H1289 N1285 0.985 . S
H1290 N1284 0.984 . S
H1291 N1284 0.984 . S
H1292 N1280 0.984 . S
H1293 N1280 0.985 . S
C1294 C1295 1.363 . S
C1294 C1300 1.379 . S
C1294 N1302 1.356 . S
C1295 C1294 1.363 . S
C1295 C1301 1.363 . S
C1296 C1297 1.363 . S
C1296 C1301 1.379 . S
C1296 N1303 1.356 . S
C1297 C1296 1.363 . S
C1297 C1300 1.363 . S
N1298 C1300 1.356 . S
N1298 H1310 0.984 . S
N1298 H1311 0.985 . S
N1299 C1301 1.356 1_455 S
N1299 H1304 0.984 . S
N1299 H1305 0.985 . S
C1300 C1294 1.379 . S
C1300 C1297 1.363 . S
C1300 N1298 1.356 . S
C1301 C1295 1.363 . S
C1301 C1296 1.379 . S
C1301 N1299 1.356 1_655 S
N1302 C1294 1.356 . S
N1302 H1308 0.984 . S
N1302 H1309 1.013 . S
N1303 C1296 1.356 . S
N1303 H1306 0.984 . S
N1303 H1307 0.985 . S
H1304 N1299 0.984 . S
H1305 N1299 0.985 . S
H1306 N1303 0.984 . S
H1307 N1303 0.985 . S
H1308 N1302 0.984 . S
H1309 N1302 1.013 . S
H1310 N1298 0.984 . S
H1311 N1298 0.985 . S
C1312 C1313 1.363 . S
C1312 C1318 1.379 . S
C1312 N1320 1.356 . S
C1313 C1312 1.363 . S
C1313 C1319 1.363 . S
C1314 C1315 1.363 . S
C1314 C1319 1.379 . S
C1314 N1321 1.356 . S
C1315 C1314 1.363 . S
C1315 C1318 1.363 . S
N1316 C1318 1.356 . S
N1316 H1328 0.984 . S
N1316 H1329 0.985 . S
N1317 C1319 1.356 . S
N1317 H1322 0.984 . S
N1317 H1323 0.985 . S
C1318 C1312 1.379 . S
C1318 C1315 1.363 . S
C1318 N1316 1.356 . S
C1319 C1313 1.363 . S
C1319 C1314 1.379 . S
C1319 N1317 1.356 . S
N1320 C1312 1.356 . S
N1320 H1326 0.984 . S
N1320 H1327 0.984 . S
N1321 C1314 1.356 . S
N1321 H1324 0.984 . S
N1321 H1325 0.985 . S
H1322 N1317 0.984 . S
H1323 N1317 0.985 . S
H1324 N1321 0.984 . S
H1325 N1321 0.985 . S
H1326 N1320 0.984 . S
H1327 N1320 0.984 . S
H1328 N1316 0.984 . S
H1329 N1316 0.985 . S
C1330 C1331 1.363 . S
C1330 C1336 1.379 . S
C1330 N1338 1.356 . S
C1331 C1330 1.363 . S
C1331 C1337 1.363 . S
C1332 C1333 1.363 . S
C1332 C1337 1.379 . S
C1332 N1339 1.356 . S
C1333 C1332 1.363 . S
C1333 C1336 1.363 . S
N1334 C1336 1.356 . S
N1334 H1346 0.984 . S
N1334 H1347 0.985 . S
N1335 C1337 1.356 . S
N1335 H1340 0.984 . S
N1335 H1341 0.985 . S
C1336 C1330 1.379 . S
C1336 C1333 1.363 . S
C1336 N1334 1.356 . S
C1337 C1331 1.363 . S
C1337 C1332 1.379 . S
C1337 N1335 1.356 . S
N1338 C1330 1.356 . S
N1338 H1344 0.984 . S
N1338 H1345 0.984 . S
N1339 C1332 1.356 . S
N1339 H1342 0.984 . S
N1339 H1343 0.985 . S
H1340 N1335 0.984 . S
H1341 N1335 0.985 . S
H1342 N1339 0.984 . S
H1343 N1339 0.985 . S
H1344 N1338 0.984 . S
H1345 N1338 0.984 . S
H1346 N1334 0.984 . S
H1347 N1334 0.985 . S
C1348 C1349 1.363 . S
C1348 C1354 1.379 . S
C1348 N1356 1.356 . S
C1349 C1348 1.363 . S
C1349 C1355 1.363 . S
C1350 C1351 1.363 . S
C1350 C1355 1.379 . S
C1350 N1357 1.356 . S
C1351 C1350 1.363 . S
C1351 C1354 1.363 . S
N1352 C1354 1.356 . S
N1352 H1364 0.984 . S
N1352 H1365 0.985 . S
N1353 C1355 1.356 . S
N1353 H1358 0.984 . S
N1353 H1359 0.985 . S
C1354 C1348 1.379 . S
C1354 C1351 1.363 . S
C1354 N1352 1.356 . S
C1355 C1349 1.363 . S
C1355 C1350 1.379 . S
C1355 N1353 1.356 . S
N1356 C1348 1.356 . S
N1356 H1362 0.984 . S
N1356 H1363 0.984 . S
N1357 C1350 1.356 . S
N1357 H1360 0.984 . S
N1357 H1361 0.985 . S
H1358 N1353 0.984 . S
H1359 N1353 0.985 . S
H1360 N1357 0.984 . S
H1361 N1357 0.985 . S
H1362 N1356 0.984 . S
H1363 N1356 0.984 . S
H1364 N1352 0.984 . S
H1365 N1352 0.985 . S
C1366 C1367 1.363 . S
C1366 C1372 1.379 . S
C1366 N1374 1.356 . S
C1367 C1366 1.363 . S
C1367 C1373 1.363 . S
C1368 C1369 1.363 . S
C1368 C1373 1.379 . S
C1368 N1375 1.356 . S
C1369 C1368 1.363 . S
C1369 C1372 1.363 . S
N1370 C1372 1.349 1_455 S
N1370 H1382 0.984 1_455 S
N1370 H1383 0.993 . S
N1371 C1373 1.356 . S
N1371 H1376 0.984 . S
N1371 H1377 0.985 . S
C1372 C1366 1.379 . S
C1372 C1369 1.363 . S
C1372 N1370 1.349 1_655 S
C1373 C1367 1.363 . S
C1373 C1368 1.379 . S
C1373 N1371 1.356 . S
N1374 C1366 1.356 . S
N1374 H1380 0.984 . S
N1374 H1381 0.984 . S
N1375 C1368 1.356 . S
N1375 H1378 0.984 1_655 S
N1375 H1379 0.985 . S
H1376 N1371 0.984 . S
H1377 N1371 0.985 . S
H1378 N1375 0.984 1_455 S
H1379 N1375 0.985 . S
H1380 N1374 0.984 . S
H1381 N1374 0.984 . S
H1382 N1370 0.984 1_655 S
H1383 N1370 0.993 . S
C1384 C1385 1.363 . S
C1384 C1390 1.379 . S
C1384 N1392 1.356 . S
C1385 C1384 1.363 . S
C1385 C1391 1.363 . S
C1386 C1387 1.363 . S
C1386 C1391 1.379 . S
C1386 N1393 1.356 . S
C1387 C1386 1.363 . S
C1387 C1390 1.363 . S
N1388 C1390 1.356 . S
N1388 H1400 0.984 . S
N1388 H1401 0.985 . S
N1389 C1391 1.356 . S
N1389 H1394 0.984 . S
N1389 H1395 0.985 . S
C1390 C1384 1.379 . S
C1390 C1387 1.363 . S
C1390 N1388 1.356 . S
C1391 C1385 1.363 . S
C1391 C1386 1.379 . S
C1391 N1389 1.356 . S
N1392 C1384 1.356 . S
N1392 H1398 0.984 . S
N1392 H1399 0.984 . S
N1393 C1386 1.356 . S
N1393 H1396 0.984 . S
N1393 H1397 0.985 . S
H1394 N1389 0.984 . S
H1395 N1389 0.985 . S
H1396 N1393 0.984 . S
H1397 N1393 0.985 . S
H1398 N1392 0.984 . S
H1399 N1392 0.984 . S
H1400 N1388 0.984 . S
H1401 N1388 0.985 . S
C1402 C1403 1.363 . S
C1402 C1408 1.379 . S
C1402 N1410 1.356 . S
C1403 C1402 1.363 . S
C1403 C1409 1.363 . S
C1404 C1405 1.363 . S
C1404 C1409 1.379 . S
C1404 N1411 1.356 . S
C1405 C1404 1.363 . S
C1405 C1408 1.363 . S
N1406 C1408 1.356 . S
N1406 H1418 0.984 . S
N1406 H1419 0.985 . S
N1407 C1409 1.356 1_455 S
N1407 H1412 0.984 . S
N1407 H1413 0.985 . S
C1408 C1402 1.379 . S
C1408 C1405 1.363 . S
C1408 N1406 1.356 . S
C1409 C1403 1.363 . S
C1409 C1404 1.379 . S
C1409 N1407 1.356 1_655 S
N1410 C1402 1.356 . S
N1410 H1416 0.984 . S
N1410 H1417 0.984 . S
N1411 C1404 1.356 . S
N1411 H1414 0.984 . S
N1411 H1415 0.985 . S
H1412 N1407 0.984 . S
H1413 N1407 0.985 . S
H1414 N1411 0.984 . S
H1415 N1411 0.985 . S
H1416 N1410 0.984 . S
H1417 N1410 0.984 . S
H1418 N1406 0.984 . S
H1419 N1406 0.985 . S
C1420 C1421 1.363 . S
C1420 C1426 1.379 . S
C1420 N1428 1.356 . S
C1421 C1420 1.363 . S
C1421 C1427 1.363 . S
C1422 C1423 1.363 . S
C1422 C1427 1.379 . S
C1422 N1429 1.356 . S
C1423 C1422 1.363 . S
C1423 C1426 1.363 . S
N1424 C1426 1.356 . S
N1424 H1436 0.984 . S
N1424 H1437 0.985 . S
N1425 C1427 1.356 . S
N1425 H1430 0.984 . S
N1425 H1431 0.985 . S
C1426 C1420 1.379 . S
C1426 C1423 1.363 . S
C1426 N1424 1.356 . S
C1427 C1421 1.363 . S
C1427 C1422 1.379 . S
C1427 N1425 1.356 . S
N1428 C1420 1.356 . S
N1428 H1434 0.984 . S
N1428 H1435 0.984 . S
N1429 C1422 1.356 . S
N1429 H1432 0.984 . S
N1429 H1433 0.985 . S
H1430 N1425 0.984 . S
H1431 N1425 0.985 . S
H1432 N1429 0.984 . S
H1433 N1429 0.985 . S
H1434 N1428 0.984 . S
H1435 N1428 0.984 . S
H1436 N1424 0.984 . S
H1437 N1424 0.985 . S
C1438 C1439 1.363 . S
C1438 C1444 1.379 . S
C1438 N1446 1.356 . S
C1439 C1438 1.363 . S
C1439 C1445 1.363 . S
C1440 C1441 1.363 . S
C1440 C1445 1.379 . S
C1440 N1447 1.356 . S
C1441 C1440 1.363 . S
C1441 C1444 1.363 . S
N1442 C1444 1.356 . S
N1442 H1454 0.984 . S
N1442 H1455 0.985 . S
N1443 C1445 1.356 . S
N1443 H1448 0.984 . S
N1443 H1449 0.985 . S
C1444 C1438 1.379 . S
C1444 C1441 1.363 . S
C1444 N1442 1.356 . S
C1445 C1439 1.363 . S
C1445 C1440 1.379 . S
C1445 N1443 1.356 . S
N1446 C1438 1.356 . S
N1446 H1452 0.984 . S
N1446 H1453 0.984 . S
N1447 C1440 1.356 . S
N1447 H1450 0.984 . S
N1447 H1451 0.985 . S
H1448 N1443 0.984 . S
H1449 N1443 0.985 . S
H1450 N1447 0.984 . S
H1451 N1447 0.985 . S
H1452 N1446 0.984 . S
H1453 N1446 0.984 . S
H1454 N1442 0.984 . S
H1455 N1442 0.985 . S
C1456 C1457 1.363 . S
C1456 C1462 1.379 . S
C1456 N1464 1.356 . S
C1457 C1456 1.363 . S
C1457 C1463 1.363 . S
C1458 C1459 1.363 . S
C1458 C1463 1.379 . S
C1458 N1465 1.356 . S
C1459 C1458 1.363 . S
C1459 C1462 1.363 . S
N1460 C1462 1.356 . S
N1460 H1472 0.984 . S
N1460 H1473 0.985 . S
N1461 C1463 1.356 . S
N1461 H1466 0.984 . S
N1461 H1467 0.985 . S
C1462 C1456 1.379 . S
C1462 C1459 1.363 . S
C1462 N1460 1.356 . S
C1463 C1457 1.363 . S
C1463 C1458 1.379 . S
C1463 N1461 1.356 . S
N1464 C1456 1.356 . S
N1464 H1470 0.984 . S
N1464 H1471 0.984 . S
N1465 C1458 1.356 . S
N1465 H1468 0.984 . S
N1465 H1469 0.985 . S
H1466 N1461 0.984 . S
H1467 N1461 0.985 . S
H1468 N1465 0.984 . S
H1469 N1465 0.985 . S
H1470 N1464 0.984 . S
H1471 N1464 0.984 . S
H1472 N1460 0.984 . S
H1473 N1460 0.985 . S
C1474 C1475 1.363 . S
C1474 C1480 1.379 . S
C1474 N1482 1.356 . S
C1475 C1474 1.363 . S
C1475 C1481 1.363 . S
C1476 C1477 1.363 . S
C1476 C1481 1.379 . S
C1476 N1483 1.356 . S
C1477 C1476 1.363 . S
C1477 C1480 1.363 . S
N1478 C1480 1.356 . S
N1478 H1490 0.984 . S
N1478 H1491 0.985 . S
N1479 C1481 1.356 . S
N1479 H1484 0.984 . S
N1479 H1485 0.985 . S
C1480 C1474 1.379 . S
C1480 C1477 1.363 . S
C1480 N1478 1.356 . S
C1481 C1475 1.363 . S
C1481 C1476 1.379 . S
C1481 N1479 1.356 . S
N1482 C1474 1.356 . S
N1482 H1488 0.984 . S
N1482 H1489 0.984 . S
N1483 C1476 1.356 . S
N1483 H1486 0.984 . S
N1483 H1487 0.985 . S
H1484 N1479 0.984 . S
H1485 N1479 0.985 . S
H1486 N1483 0.984 . S
H1487 N1483 0.985 . S
H1488 N1482 0.984 . S
H1489 N1482 0.984 . S
H1490 N1478 0.984 . S
H1491 N1478 0.985 . S
C1492 C1493 1.363 . S
C1492 C1498 1.379 . S
C1492 N1500 1.356 . S
C1493 C1492 1.363 . S
C1493 C1499 1.363 . S
C1494 C1495 1.363 . S
C1494 C1499 1.379 . S
C1494 N1501 1.356 . S
C1495 C1494 1.363 . S
C1495 C1498 1.363 . S
N1496 C1498 1.356 . S
N1496 H1508 0.984 . S
N1496 H1509 0.985 . S
N1497 C1499 1.356 . S
N1497 H1502 0.984 . S
N1497 H1503 0.985 . S
C1498 C1492 1.379 . S
C1498 C1495 1.363 . S
C1498 N1496 1.356 . S
C1499 C1493 1.363 . S
C1499 C1494 1.379 . S
C1499 N1497 1.356 . S
N1500 C1492 1.356 . S
N1500 H1506 0.984 . S
N1500 H1507 0.984 . S
N1501 C1494 1.356 . S
N1501 H1504 0.984 . S
N1501 H1505 0.985 . S
H1502 N1497 0.984 . S
H1503 N1497 0.985 . S
H1504 N1501 0.984 . S
H1505 N1501 0.985 . S
H1506 N1500 0.984 . S
H1507 N1500 0.984 . S
H1508 N1496 0.984 . S
H1509 N1496 0.985 . S
C1510 C1511 1.363 . S
C1510 C1516 1.379 . S
C1510 N1518 1.356 . S
C1511 C1510 1.363 . S
C1511 C1517 1.363 . S
C1512 C1513 1.363 . S
C1512 C1517 1.379 . S
C1512 N1519 1.356 . S
C1513 C1512 1.363 . S
C1513 C1516 1.363 . S
N1514 C1516 1.356 . S
N1514 H1526 0.984 . S
N1514 H1527 0.985 . S
N1515 C1517 1.356 . S
N1515 H1520 0.985 1_455 S
N1515 H1521 0.984 . S
C1516 C1510 1.379 . S
C1516 C1513 1.363 . S
C1516 N1514 1.356 . S
C1517 C1511 1.363 . S
C1517 C1512 1.379 . S
C1517 N1515 1.356 . S
N1518 C1510 1.356 . S
N1518 H1524 0.984 . S
N1518 H1525 0.984 1_455 S
N1519 C1512 1.356 . S
N1519 H1522 0.984 . S
N1519 H1523 0.985 . S
H1520 N1515 0.985 1_655 S
H1521 N1515 0.984 . S
H1522 N1519 0.984 . S
H1523 N1519 0.985 . S
H1524 N1518 0.984 . S
H1525 N1518 0.984 1_655 S
H1526 N1514 0.984 . S
H1527 N1514 0.985 . S
C1528 C1529 1.363 . S
C1528 C1534 1.379 . S
C1528 N1536 1.356 . S
C1529 C1528 1.363 . S
C1529 C1535 1.363 . S
C1530 C1531 1.363 . S
C1530 C1535 1.379 . S
C1530 N1537 1.356 . S
C1531 C1530 1.363 . S
C1531 C1534 1.363 . S
N1532 C1534 1.356 . S
N1532 H1544 0.984 . S
N1532 H1545 0.985 . S
N1533 C1535 1.356 . S
N1533 H1538 0.984 . S
N1533 H1539 0.985 . S
C1534 C1528 1.379 . S
C1534 C1531 1.363 . S
C1534 N1532 1.356 . S
C1535 C1529 1.363 . S
C1535 C1530 1.379 . S
C1535 N1533 1.356 . S
N1536 C1528 1.356 . S
N1536 H1542 0.984 . S
N1536 H1543 0.984 . S
N1537 C1530 1.356 . S
N1537 H1540 0.984 . S
N1537 H1541 0.985 . S
H1538 N1533 0.984 . S
H1539 N1533 0.985 . S
H1540 N1537 0.984 . S
H1541 N1537 0.985 . S
H1542 N1536 0.984 . S
H1543 N1536 0.984 . S
H1544 N1532 0.984 . S
H1545 N1532 0.985 . S
C1546 C1547 1.363 . S
C1546 C1552 1.379 . S
C1546 N1554 1.356 . S
C1547 C1546 1.363 . S
C1547 C1553 1.363 . S
C1548 C1549 1.363 . S
C1548 C1553 1.379 . S
C1548 N1555 1.356 . S
C1549 C1548 1.363 . S
C1549 C1552 1.363 . S
N1550 C1552 1.356 1_655 S
N1550 H1562 0.984 . S
N1550 H1563 0.985 . S
N1551 C1553 1.356 . S
N1551 H1556 0.984 . S
N1551 H1557 0.985 . S
C1552 C1546 1.379 . S
C1552 C1549 1.363 . S
C1552 N1550 1.356 1_455 S
C1553 C1547 1.363 . S
C1553 C1548 1.379 . S
C1553 N1551 1.356 . S
N1554 C1546 1.356 . S
N1554 H1560 0.984 . S
N1554 H1561 0.984 . S
N1555 C1548 1.356 . S
N1555 H1558 0.984 1_455 S
N1555 H1559 0.985 . S
H1556 N1551 0.984 . S
H1557 N1551 0.985 . S
H1558 N1555 0.984 1_655 S
H1559 N1555 0.985 . S
H1560 N1554 0.984 . S
H1561 N1554 0.984 . S
H1562 N1550 0.984 . S
H1563 N1550 0.985 . S
C1564 C1565 1.363 . S
C1564 C1570 1.379 . S
C1564 N1572 1.356 . S
C1565 C1564 1.363 . S
C1565 C1571 1.363 . S
C1566 C1567 1.363 . S
C1566 C1571 1.379 . S
C1566 N1573 1.356 . S
C1567 C1566 1.363 . S
C1567 C1570 1.363 . S
N1568 C1570 1.356 . S
N1568 H1580 0.984 . S
N1568 H1581 0.985 . S
N1569 C1571 1.356 . S
N1569 H1574 0.984 . S
N1569 H1575 0.985 . S
C1570 C1564 1.379 . S
C1570 C1567 1.363 . S
C1570 N1568 1.356 . S
C1571 C1565 1.363 . S
C1571 C1566 1.379 . S
C1571 N1569 1.356 . S
N1572 C1564 1.356 . S
N1572 H1578 0.984 . S
N1572 H1579 0.984 . S
N1573 C1566 1.356 . S
N1573 H1576 0.984 . S
N1573 H1577 0.985 . S
H1574 N1569 0.984 . S
H1575 N1569 0.985 . S
H1576 N1573 0.984 . S
H1577 N1573 0.985 . S
H1578 N1572 0.984 . S
H1579 N1572 0.984 . S
H1580 N1568 0.984 . S
H1581 N1568 0.985 . S
C1582 C1583 1.363 . S
C1582 C1588 1.379 . S
C1582 N1590 1.356 . S
C1583 C1582 1.363 . S
C1583 C1589 1.363 . S
C1584 C1585 1.363 . S
C1584 C1589 1.379 . S
C1584 N1591 1.356 . S
C1585 C1584 1.363 . S
C1585 C1588 1.363 . S
N1586 C1588 1.356 . S
N1586 H1598 0.984 . S
N1586 H1599 0.985 . S
N1587 C1589 1.356 . S
N1587 H1592 0.984 . S
N1587 H1593 0.985 . S
C1588 C1582 1.379 . S
C1588 C1585 1.363 . S
C1588 N1586 1.356 . S
C1589 C1583 1.363 . S
C1589 C1584 1.379 . S
C1589 N1587 1.356 . S
N1590 C1582 1.356 . S
N1590 H1596 0.984 . S
N1590 H1597 0.984 . S
N1591 C1584 1.356 . S
N1591 H1594 0.984 . S
N1591 H1595 0.985 . S
H1592 N1587 0.984 . S
H1593 N1587 0.985 . S
H1594 N1591 0.984 . S
H1595 N1591 0.985 . S
H1596 N1590 0.984 . S
H1597 N1590 0.984 . S
H1598 N1586 0.984 . S
H1599 N1586 0.985 . S
C449 C64 1.516 . S
C451 C8 1.516 . S
C467 C78 1.516 . S
C469 C22 1.516 . S
C485 C92 1.516 . S
C487 C36 1.516 . S
C503 C50 1.516 . S
C505 C106 1.516 . S
C521 C120 1.516 . S
C523 C176 1.516 . S
C539 C190 1.516 . S
C541 C134 1.516 . S
C557 C148 1.516 . S
C559 C204 1.516 . S
C575 C218 1.516 . S
C577 C162 1.516 . S
C593 C232 1.516 . S
C595 C288 1.516 . S
C611 C302 1.516 . S
C613 C246 1.516 . S
C629 C316 1.516 . S
C631 C260 1.516 . S
C647 C330 1.516 . S
C649 C274 1.516 . S
C665 C344 1.516 . S
C667 C400 1.516 . S
C683 C358 1.516 . S
C685 C414 1.516 . S
C701 C372 1.516 . S
C703 C428 1.516 . S
C719 C386 1.516 . S
C721 C442 1.516 . S
C737 C7 1.337 1_565 S
C739 C105 1.337 . S
C755 C21 1.337 . S
C757 C63 1.337 1_545 S
C773 C35 1.337 1_545 S
C775 C77 1.337 . S
C791 C91 1.337 1_565 S
C793 C49 1.337 . S
C809 C217 1.337 . S
C811 C119 1.337 1_545 S
C827 C175 1.337 1_565 S
C829 C133 1.337 . S
C845 C189 1.337 . S
C847 C147 1.337 1_565 S
C863 C161 1.337 . S
C865 C203 1.337 1_545 S
C881 C329 1.337 . S
C883 C231 1.337 . S
C899 C287 1.337 . S
C901 C245 1.337 . S
C917 C301 1.337 . S
C919 C259 1.337 . S
C935 C273 1.337 . S
C937 C315 1.337 . S
C953 C343 1.337 . S
C955 C441 1.337 . S
C971 C357 1.337 . S
C973 C399 1.337 . S
C989 C371 1.337 . S
C991 C413 1.337 . S
C1007 C427 1.337 . S
C1009 C385 1.337 . S
C1025 C9 1.472 . S
C1027 C353 1.475 . S
C1043 C23 1.472 . S
C1045 C143 1.475 1_455 S
C1061 C37 1.472 . S
C1063 C381 1.475 . S
C1079 C115 1.475 . S
C1081 C51 1.472 . S
C1097 C437 1.475 . S
C1099 C65 1.472 . S
C1115 C79 1.472 . S
C1117 C171 1.475 . S
C1133 C93 1.472 . S
C1135 C409 1.475 . S
C1151 C107 1.472 . S
C1153 C199 1.475 1_455 S
C1169 C241 1.475 . S
C1171 C121 1.472 . S
C1187 C31 1.475 1_655 S
C1189 C135 1.472 . S
C1205 C269 1.475 . S
C1207 C149 1.472 . S
C1223 C163 1.472 . S
C1225 C3 1.475 . S
C1241 C325 1.475 . S
C1243 C177 1.472 . S
C1259 C59 1.475 . S
C1261 C191 1.472 . S
C1277 C297 1.475 . S
C1279 C205 1.472 . S
C1295 C87 1.475 1_655 S
C1297 C219 1.472 . S
C1313 C129 1.475 . S
C1315 C233 1.472 . S
C1331 C247 1.472 . S
C1333 C367 1.475 . S
C1349 C261 1.472 . S
C1351 C157 1.475 . S
C1367 C275 1.472 . S
C1369 C339 1.475 1_655 S
C1385 C289 1.472 . S
C1387 C213 1.475 . S
C1403 C395 1.475 1_655 S
C1405 C303 1.472 . S
C1421 C317 1.472 . S
C1423 C185 1.475 . S
C1439 C331 1.472 . S
C1441 C423 1.475 . S
C1457 C345 1.472 . S
C1459 C17 1.475 . S
C1475 C359 1.472 . S
C1477 C255 1.475 . S
C1493 C45 1.475 . S
C1495 C373 1.472 . S
C1511 C227 1.475 1_455 S
C1513 C387 1.472 . S
C1529 C401 1.472 . S
C1531 C101 1.475 . S
C1547 C415 1.472 . S
C1549 C283 1.475 1_455 S
C1565 C73 1.475 . S
C1567 C429 1.472 . S
C1583 C311 1.475 . S
C1585 C443 1.472 . S
