# Generated by pormake.
# Topology ftb, (5)-cn, num edge types: 1
# Building blocks:
#     Node 0, Type 0, BuildingBlock: BEQFEK_clean_sbu_0, # of connection points: 5
#     Node 1, Type 0, BuildingBlock: BEQFEK_clean_sbu_0, # of connection points: 5
#     Node 2, Type 0, BuildingBlock: BEQFEK_clean_sbu_0, # of connection points: 5
#     Node 3, Type 0, BuildingBlock: BEQFEK_clean_sbu_0, # of connection points: 5
#     Node 4, Type 0, BuildingBlock: BEQFEK_clean_sbu_0, # of connection points: 5
#     Node 5, Type 0, BuildingBlock: BEQFEK_clean_sbu_0, # of connection points: 5
#     Node 6, Type 0, BuildingBlock: BEQFEK_clean_sbu_0, # of connection points: 5
#     Node 7, Type 0, BuildingBlock: BEQFEK_clean_sbu_0, # of connection points: 5
#     Edge 8, Type (0, 0), None
#     Edge 9, Type (0, 0), None
#     Edge 10, Type (0, 0), None
#     Edge 11, Type (0, 0), None
#     Edge 12, Type (0, 0), None
#     Edge 13, Type (0, 0), None
#     Edge 14, Type (0, 0), None
#     Edge 15, Type (0, 0), None
#     Edge 16, Type (0, 0), None
#     Edge 17, Type (0, 0), None
#     Edge 18, Type (0, 0), None
#     Edge 19, Type (0, 0), None
#     Edge 20, Type (0, 0), None
#     Edge 21, Type (0, 0), None
#     Edge 22, Type (0, 0), None
#     Edge 23, Type (0, 0), None
#     Edge 24, Type (0, 0), None
#     Edge 25, Type (0, 0), None
#     Edge 26, Type (0, 0), None
#     Edge 27, Type (0, 0), None
# Relax obj value: 0.079
# Max RMSD: 0.187
# Mean RMSD: 0.187
data_MOF--net-ftb--node1-BEQFEK_clean_sbu_0--edge1-none
_symmetry_space_group_name_H-M    P1
_symmetry_Int_Tables_number       1
_symmetry_cell_setting            triclinic
loop_
_symmetry_equiv_pos_as_xyz
'x, y, z'
_cell_length_a     26.18678
_cell_length_b     7.6565816
_cell_length_c     21.712084
_cell_angle_alpha  89.994318
_cell_angle_beta   93.527219
_cell_angle_gamma 89.996317
loop_
_atom_site_label
_atom_site_type_symbol
_atom_site_fract_x
_atom_site_fract_y
_atom_site_fract_z
_atom_type_partial_charge
Co0 Co 0.34645 0.08298 0.11666 0.0
Co1 Co 0.34848 0.9251 0.98262 0.0
C2 C 0.31604 0.721 0.08389 0.0
O3 O 0.32126 0.84067 0.12447 0.0
O4 O 0.34152 0.72288 0.03581 0.0
C5 C 0.35011 0.13813 0.25013 0.0
O6 O 0.33894 -0.02799 0.25574 0.0
C7 C 0.34676 0.72043 0.8656 0.0
C8 C 0.37099 0.92565 0.80194 0.0
C9 C 0.35618 0.75251 0.80434 0.0
N10 N 0.35636 0.86821 0.89799 0.0
N11 N 0.37046 -0.00986 0.85943 0.0
C12 C 0.3266 0.55568 0.89216 0.0
H13 H 0.30904 0.58196 0.93628 0.0
H14 H 0.35858 0.46188 0.90053 0.0
H15 H 0.29759 0.49473 0.85957 0.0
C16 C 0.4521 0.17247 0.08976 0.0
N17 N 0.40524 0.11347 0.07129 0.0
N18 N 0.40665 0.04608 0.01576 0.0
C19 C 0.45532 0.04915 -0.00118 0.0
C20 C 0.48565 0.13247 0.04477 0.0
C21 C 0.46491 0.25477 0.15129 0.0
H22 H 0.43768 0.36274 0.15864 0.0
H23 H 0.46049 0.1566 0.18819 0.0
H24 H 0.50452 0.30693 0.15465 0.0
O25 O 0.28675 0.18525 0.07432 0.0
O26 O 0.28264 0.05588 0.98244 0.0
H27 H 0.4717 0.01714 0.90418 0.0
H28 H 0.51435 0.89875 0.95727 0.0
C29 C 0.47406 0.94002 0.9475 0.0
H30 H 0.45015 0.82136 0.94072 0.0
H31 H 0.37911 0.11855 0.87234 0.0
O32 O 0.35534 0.20293 0.19707 0.0
C33 C 0.26316 0.15051 0.0229 0.0
Co34 Co 0.68133 0.0824 0.97983 0.0
Co35 Co 0.67927 0.92523 0.11399 0.0
C36 C 0.71163 0.72042 0.01288 0.0
O37 O 0.70645 0.83992 0.97222 0.0
O38 O 0.68618 0.72268 0.06098 0.0
C39 C 0.6779 0.1374 0.84632 0.0
O40 O 0.68946 -0.02841 0.84075 0.0
C41 C 0.68093 0.72112 0.23111 0.0
C42 C 0.65681 0.92673 0.29468 0.0
C43 C 0.67155 0.7535 0.29236 0.0
N44 N 0.67139 0.86884 0.19865 0.0
N45 N 0.65735 -0.00899 0.23715 0.0
C46 C 0.70101 0.55615 0.20462 0.0
H47 H 0.71866 0.58224 0.16056 0.0
H48 H 0.66895 0.46268 0.19617 0.0
H49 H 0.72992 0.49492 0.23728 0.0
C50 C 0.5757 0.17222 0.00665 0.0
N51 N 0.62255 0.11333 0.0252 0.0
N52 N 0.62112 0.0462 0.08077 0.0
C53 C 0.57244 0.04931 0.09767 0.0
C54 C 0.54213 0.13218 0.05161 0.0
C55 C 0.56291 0.25424 0.94506 0.0
H56 H 0.59013 0.36217 0.93765 0.0
H57 H 0.56733 0.15589 0.90823 0.0
H58 H 0.52329 0.30639 0.94165 0.0
O59 O 0.74108 0.1846 0.02206 0.0
O60 O 0.74516 0.0556 0.11402 0.0
H61 H 0.5561 0.0178 0.19234 0.0
H62 H 0.5134 0.89928 0.13935 0.0
C63 C 0.55369 0.94049 0.14908 0.0
H64 H 0.57759 0.82179 0.15592 0.0
H65 H 0.64875 0.11941 0.22418 0.0
O66 O 0.67241 0.202 0.89934 0.0
C67 C 0.76468 0.14987 0.07349 0.0
Co68 Co 0.34646 0.58209 0.61675 0.0
Co69 Co 0.34846 0.42545 0.48251 0.0
C70 C 0.31613 0.22041 0.58366 0.0
O71 O 0.32146 0.33953 0.62443 0.0
O72 O 0.34152 0.22282 0.53551 0.0
C73 C 0.34997 0.63714 0.75028 0.0
O74 O 0.33853 0.47124 0.75589 0.0
C75 C 0.34671 0.22136 0.36542 0.0
C76 C 0.37114 0.42654 0.30186 0.0
C77 C 0.35623 0.25348 0.3042 0.0
N78 N 0.35635 0.36903 0.39786 0.0
N79 N 0.37056 0.49092 0.35935 0.0
C80 C 0.32631 0.05686 0.3919 0.0
H81 H 0.30833 0.08367 0.4357 0.0
H82 H 0.35826 -0.03677 0.40086 0.0
H83 H 0.29759 -0.00452 0.35903 0.0
C84 C 0.45207 0.67208 0.58986 0.0
N85 N 0.40521 0.61321 0.57134 0.0
N86 N 0.40662 0.5463 0.51573 0.0
C87 C 0.45529 0.54957 0.49879 0.0
C88 C 0.48562 0.63251 0.54482 0.0
C89 C 0.4649 0.75378 0.65149 0.0
H90 H 0.4377 0.86174 0.65897 0.0
H91 H 0.46046 0.65527 0.68827 0.0
H92 H 0.50453 0.80583 0.65491 0.0
O93 O 0.28663 0.68404 0.57455 0.0
O94 O 0.2826 0.55604 0.48243 0.0
H95 H 0.4717 0.51836 0.40413 0.0
H96 H 0.51432 0.39953 0.4571 0.0
C97 C 0.47404 0.44087 0.44736 0.0
H98 H 0.45014 0.32224 0.44045 0.0
H99 H 0.37927 0.61937 0.37232 0.0
O100 O 0.35536 0.70176 0.69723 0.0
C101 C 0.26306 0.64987 0.52306 0.0
Co102 Co 0.68135 0.58321 0.47992 0.0
Co103 Co 0.67926 0.42494 0.6139 0.0
C104 C 0.71173 0.22095 0.51268 0.0
O105 O 0.70662 0.34092 0.47219 0.0
O106 O 0.68622 0.22272 0.56073 0.0
C107 C 0.67771 0.63825 0.34646 0.0
O108 O 0.68898 0.4722 0.34089 0.0
C109 C 0.68111 0.22052 0.731 0.0
C110 C 0.65665 0.42564 0.79455 0.0
C111 C 0.67165 0.25267 0.79223 0.0
N112 N 0.67138 0.36812 0.69853 0.0
N113 N 0.65714 0.49 0.73703 0.0
C114 C 0.70146 0.05591 0.70455 0.0
H115 H 0.71872 0.08198 0.66024 0.0
H116 H 0.66964 0.96125 0.69662 0.0
H117 H 0.73074 -0.00392 0.73707 0.0
C118 C 0.57568 0.67259 0.50676 0.0
N119 N 0.62253 0.61357 0.52527 0.0
N120 N 0.62109 0.54592 0.58076 0.0
C121 C 0.5724 0.5488 0.59763 0.0
C122 C 0.5421 0.63211 0.55166 0.0
C123 C 0.56291 0.75522 0.44527 0.0
H124 H 0.59016 0.86315 0.43799 0.0
H125 H 0.56731 0.65719 0.40833 0.0
H126 H 0.5233 0.80747 0.44192 0.0
O127 O 0.74101 0.68563 0.52227 0.0
O128 O 0.74513 0.55557 0.61404 0.0
H129 H 0.5559 0.51641 0.69222 0.0
H130 H 0.51338 0.39799 0.63901 0.0
C131 C 0.55363 0.43942 0.64889 0.0
H132 H 0.57759 0.32085 0.65568 0.0
H133 H 0.64838 0.61828 0.72406 0.0
O134 O 0.67244 0.70308 0.39949 0.0
C135 C 0.7646 0.65047 0.57366 0.0
Co136 Co 0.84639 0.08287 0.61655 0.0
Co137 Co 0.84847 0.92491 0.48252 0.0
C138 C 0.81606 0.72065 0.58378 0.0
O139 O 0.82112 0.84063 0.62426 0.0
O140 O 0.84148 0.72257 0.53564 0.0
C141 C 0.85011 0.13793 0.75003 0.0
O142 O 0.83903 -0.02826 0.75566 0.0
C143 C 0.84677 0.72026 0.3655 0.0
C144 C 0.87099 0.92548 0.30183 0.0
C145 C 0.85618 0.75233 0.30424 0.0
N146 N 0.85636 0.86806 0.39789 0.0
N147 N 0.87046 -0.01001 0.35932 0.0
C148 C 0.82661 0.55552 0.39208 0.0
H149 H 0.80894 0.58191 0.4361 0.0
H150 H 0.85863 0.46192 0.40062 0.0
H151 H 0.7977 0.49428 0.35943 0.0
C152 C 0.95206 0.17226 0.58971 0.0
N153 N 0.90521 0.11324 0.57122 0.0
N154 N 0.90664 0.04583 0.5157 0.0
C155 C 0.95532 0.04892 0.49879 0.0
C156 C 0.98563 0.13225 0.54474 0.0
C157 C 0.96485 0.25462 0.65124 0.0
H158 H 0.93761 0.36258 0.65857 0.0
H159 H 0.96043 0.15648 0.68815 0.0
H160 H 1.00446 0.30681 0.65461 0.0
O161 O 0.78674 0.18534 0.5742 0.0
O162 O 0.78263 0.05572 0.48236 0.0
H163 H 0.97171 0.01708 0.40415 0.0
H164 H 0.01436 0.89866 0.45722 0.0
C165 C 0.97408 0.93989 0.44744 0.0
H166 H 0.95018 0.82122 0.44064 0.0
H167 H 0.87911 0.1184 0.37222 0.0
O168 O 0.85527 0.20277 0.69697 0.0
C169 C 0.76316 0.15048 0.52278 0.0
Co170 Co 0.18137 0.08274 0.47995 0.0
Co171 Co 0.17927 0.92544 0.61409 0.0
C172 C 0.21165 0.72056 0.513 0.0
O173 O 0.20662 0.84039 0.47244 0.0
O174 O 0.18627 0.72279 0.56116 0.0
C175 C 0.17788 0.13763 0.34642 0.0
O176 O 0.18937 -0.02824 0.34084 0.0
C177 C 0.18092 0.72138 0.73122 0.0
C178 C 0.15678 0.92696 0.79478 0.0
C179 C 0.17153 0.75373 0.79246 0.0
N180 N 0.17138 0.8691 0.69875 0.0
N181 N 0.15732 -0.00875 0.73725 0.0
C182 C 0.20102 0.55644 0.70472 0.0
H183 H 0.21882 0.58267 0.66076 0.0
H184 H 0.16895 0.46315 0.69607 0.0
H185 H 0.22982 0.49493 0.73745 0.0
C186 C 0.07569 0.17218 0.50668 0.0
N187 N 0.12255 0.11341 0.52526 0.0
N188 N 0.12111 0.04622 0.58082 0.0
C189 C 0.07241 0.04921 0.59769 0.0
C190 C 0.04211 0.13202 0.55161 0.0
C191 C 0.06291 0.25424 0.44509 0.0
H192 H 0.09012 0.36222 0.43771 0.0
H193 H 0.06737 0.15593 0.40826 0.0
H194 H 0.02328 0.30631 0.44167 0.0
O195 O 0.24105 0.18525 0.5222 0.0
O196 O 0.24514 0.05592 0.61411 0.0
H197 H 0.05606 0.01777 0.69236 0.0
H198 H 1.01339 0.89914 0.63937 0.0
C199 C 0.05367 0.94041 0.64911 0.0
H200 H 0.07758 0.82176 0.65597 0.0
H201 H 0.14871 0.11964 0.72428 0.0
O202 O 0.17245 0.20227 0.39945 0.0
C203 C 0.26464 0.15038 0.57362 0.0
Co204 Co 0.84639 0.582 0.11663 0.0
Co205 Co 0.84844 0.42527 0.9824 0.0
C206 C 0.81615 0.22007 0.08354 0.0
O207 O 0.82131 0.33951 0.12422 0.0
O208 O 0.84146 0.22252 0.03533 0.0
C209 C 0.84997 0.63694 0.25018 0.0
O210 O 0.83861 0.47098 0.25581 0.0
C211 C 0.84671 0.22121 0.86532 0.0
C212 C 0.87113 0.42637 0.80175 0.0
C213 C 0.85623 0.2533 0.8041 0.0
N214 N 0.85635 0.3689 0.89775 0.0
N215 N 0.87055 0.49078 0.85924 0.0
C216 C 0.82632 0.05671 0.89181 0.0
H217 H 0.80821 0.08365 0.93552 0.0
H218 H 0.8583 -0.03668 0.90097 0.0
H219 H 0.79772 -0.005 0.85889 0.0
C220 C 0.95203 0.67188 0.08982 0.0
N221 N 0.90517 0.61299 0.07127 0.0
N222 N 0.9066 0.54605 0.01567 0.0
C223 C 0.95528 0.54934 -0.00124 0.0
C224 C 0.98559 0.63229 0.04479 0.0
C225 C 0.96483 0.75364 0.15144 0.0
H226 H 0.93762 0.86159 0.15889 0.0
H227 H 0.96038 0.65517 0.18823 0.0
H228 H 1.00445 0.80573 0.15487 0.0
O229 O 0.78661 0.68415 0.07442 0.0
O230 O 0.78259 0.5559 0.98235 0.0
H231 H 0.9717 0.51829 0.90409 0.0
H232 H 0.01433 0.39943 0.95705 0.0
C233 C 0.97405 0.44074 0.94731 0.0
H234 H 0.95015 0.3221 0.94037 0.0
H235 H 0.87926 0.61924 0.87221 0.0
O236 O 0.85529 0.7016 0.19713 0.0
C237 C 0.76305 0.64987 0.02294 0.0
Co238 Co 0.18138 0.58355 0.98004 0.0
Co239 Co 0.17926 0.42514 0.11399 0.0
C240 C 0.21174 0.22109 0.01279 0.0
O241 O 0.20678 0.34139 0.97241 0.0
O242 O 0.18631 0.22283 0.06091 0.0
C243 C 0.17769 0.63848 0.84656 0.0
O244 O 0.1889 0.47238 0.84099 0.0
C245 C 0.18109 0.22078 0.2311 0.0
C246 C 0.15661 0.42586 0.29465 0.0
C247 C 0.17162 0.25291 0.29233 0.0
N248 N 0.17137 0.36838 0.19863 0.0
N249 N 0.15711 0.49023 0.23713 0.0
C250 C 0.20147 0.0562 0.20465 0.0
H251 H 0.21887 0.08241 0.16044 0.0
H252 H 0.16963 0.9617 0.19654 0.0
H253 H 0.23065 -0.0039 0.23724 0.0
C254 C 0.07566 0.67255 0.00679 0.0
N255 N 0.12252 0.61364 0.02532 0.0
N256 N 0.12107 0.54595 0.08081 0.0
C257 C 0.07236 0.54871 0.09765 0.0
C258 C 0.04207 0.63195 0.05166 0.0
C259 C 0.0629 0.75521 0.9453 0.0
H260 H 0.09014 0.86319 0.93804 0.0
H261 H 0.06733 0.65722 0.90835 0.0
H262 H 0.02329 0.80739 0.94194 0.0
O263 O 0.24097 0.68626 0.0224 0.0
O264 O 0.2451 0.55588 0.11412 0.0
H265 H 0.05586 0.51639 0.19224 0.0
H266 H 1.01335 0.39787 0.13903 0.0
C267 C 0.0536 0.43935 0.14891 0.0
H268 H 0.07758 0.32083 0.15573 0.0
H269 H 0.14833 0.61851 0.22416 0.0
O270 O 0.17247 0.70335 0.8996 0.0
C271 C 0.26456 0.65098 0.07378 0.0
loop_
_geom_bond_atom_site_label_1
_geom_bond_atom_site_label_2
_geom_bond_distance
_geom_bond_site_symmetry_2
_ccdc_geom_bond_type
Co0 O3 1.970 1_545 S
Co0 N17 1.989 . S
Co0 O25 1.967 . S
Co0 O32 1.920 . S
Co1 O4 1.966 1_546 S
Co1 N10 2.022 1_545 S
Co1 N18 1.993 1_556 S
Co1 O26 1.941 . S
C2 O3 1.258 . S
C2 O4 1.263 . S
O3 Co0 1.970 1_565 S
O3 C2 1.258 . S
O4 Co1 1.966 1_564 S
O4 C2 1.263 . S
C5 O6 1.235 1_545 S
C5 O32 1.289 . S
O6 C5 1.235 1_565 S
C7 C9 1.400 . S
C7 N10 1.351 . S
C7 C12 1.501 . S
C8 C9 1.387 . S
C8 N11 1.341 1_565 S
C9 C7 1.400 . S
C9 C8 1.387 . S
N10 Co1 2.022 1_565 S
N10 C7 1.351 . S
N10 N11 1.365 1_565 S
N11 C8 1.341 1_545 S
N11 N10 1.365 1_545 S
N11 H31 0.862 . S
C12 C7 1.501 . S
C12 H13 0.961 . S
C12 H14 0.961 . S
C12 H15 0.960 . S
H13 C12 0.961 . S
H14 C12 0.961 . S
H15 C12 0.960 . S
C16 N17 1.342 . S
C16 C20 1.401 . S
C16 C21 1.499 . S
N17 Co0 1.989 . S
N17 C16 1.342 . S
N17 N18 1.388 . S
N18 Co1 1.993 1_554 S
N18 N17 1.388 . S
N18 C19 1.346 . S
C19 N18 1.346 . S
C19 C20 1.396 . S
C19 C29 1.510 1_544 S
C20 C16 1.401 . S
C20 C19 1.396 . S
C21 C16 1.499 . S
C21 H22 0.959 . S
C21 H23 0.960 . S
C21 H24 0.961 . S
H22 C21 0.959 . S
H23 C21 0.960 . S
H24 C21 0.961 . S
O25 Co0 1.967 . S
O25 C33 1.258 . S
O26 Co1 1.941 . S
O26 C33 1.266 1_556 S
H27 C29 0.959 1_545 S
H28 C29 0.961 . S
C29 C19 1.510 1_566 S
C29 H27 0.959 1_565 S
C29 H28 0.961 . S
C29 H30 0.960 . S
H30 C29 0.960 . S
H31 N11 0.862 . S
O32 Co0 1.920 . S
O32 C5 1.289 . S
C33 O25 1.258 . S
C33 O26 1.266 1_554 S
Co34 O37 1.970 1_545 S
Co34 N51 1.989 1_556 S
Co34 O59 1.967 1_556 S
Co34 O66 1.920 . S
Co35 O38 1.966 1_545 S
Co35 N44 2.022 1_545 S
Co35 N52 1.993 . S
Co35 O60 1.941 . S
C36 O37 1.258 1_554 S
C36 O38 1.263 . S
O37 Co34 1.970 1_565 S
O37 C36 1.258 1_556 S
O38 Co35 1.966 1_565 S
O38 C36 1.263 . S
C39 O40 1.235 1_545 S
C39 O66 1.289 . S
O40 C39 1.235 1_565 S
C41 C43 1.400 . S
C41 N44 1.351 . S
C41 C46 1.501 . S
C42 C43 1.387 . S
C42 N45 1.341 1_565 S
C43 C41 1.400 . S
C43 C42 1.387 . S
N44 Co35 2.022 1_565 S
N44 C41 1.351 . S
N44 N45 1.365 1_565 S
N45 C42 1.341 1_545 S
N45 N44 1.365 1_545 S
N45 H65 0.862 . S
C46 C41 1.501 . S
C46 H47 0.961 . S
C46 H48 0.961 . S
C46 H49 0.960 . S
H47 C46 0.961 . S
H48 C46 0.961 . S
H49 C46 0.960 . S
C50 N51 1.342 . S
C50 C54 1.401 . S
C50 C55 1.499 1_554 S
N51 Co34 1.989 1_554 S
N51 C50 1.342 . S
N51 N52 1.388 . S
N52 Co35 1.993 . S
N52 N51 1.388 . S
N52 C53 1.346 . S
C53 N52 1.346 . S
C53 C54 1.396 . S
C53 C63 1.510 1_545 S
C54 C50 1.401 . S
C54 C53 1.396 . S
C55 C50 1.499 1_556 S
C55 H56 0.959 . S
C55 H57 0.960 . S
C55 H58 0.961 . S
H56 C55 0.959 . S
H57 C55 0.960 . S
H58 C55 0.961 . S
O59 Co34 1.967 1_554 S
O59 C67 1.258 . S
O60 Co35 1.941 . S
O60 C67 1.266 . S
H61 C63 0.959 1_545 S
H62 C63 0.961 . S
C63 C53 1.510 1_565 S
C63 H61 0.959 1_565 S
C63 H62 0.961 . S
C63 H64 0.960 . S
H64 C63 0.960 . S
H65 N45 0.862 . S
O66 Co34 1.920 . S
O66 C39 1.289 . S
C67 O59 1.258 . S
C67 O60 1.266 . S
Co68 O71 1.970 . S
Co68 N85 1.989 . S
Co68 O93 1.967 . S
Co68 O100 1.920 . S
Co69 O72 1.966 . S
Co69 N78 2.022 . S
Co69 N86 1.993 . S
Co69 O94 1.941 . S
C70 O71 1.258 . S
C70 O72 1.263 . S
O71 Co68 1.970 . S
O71 C70 1.258 . S
O72 Co69 1.966 . S
O72 C70 1.263 . S
C73 O74 1.235 . S
C73 O100 1.289 . S
O74 C73 1.235 . S
C75 C77 1.400 . S
C75 N78 1.351 . S
C75 C80 1.501 . S
C76 C77 1.387 . S
C76 N79 1.341 . S
C77 C75 1.400 . S
C77 C76 1.387 . S
N78 Co69 2.022 . S
N78 C75 1.351 . S
N78 N79 1.365 . S
N79 C76 1.341 . S
N79 N78 1.365 . S
N79 H99 0.862 . S
C80 C75 1.501 . S
C80 H81 0.961 . S
C80 H82 0.961 . S
C80 H83 0.960 . S
H81 C80 0.961 . S
H82 C80 0.961 . S
H83 C80 0.960 . S
C84 N85 1.342 . S
C84 C88 1.401 . S
C84 C89 1.499 . S
N85 Co68 1.989 . S
N85 C84 1.342 . S
N85 N86 1.388 . S
N86 Co69 1.993 . S
N86 N85 1.388 . S
N86 C87 1.346 . S
C87 N86 1.346 . S
C87 C88 1.396 . S
C87 C97 1.510 . S
C88 C84 1.401 . S
C88 C87 1.396 . S
C89 C84 1.499 . S
C89 H90 0.959 . S
C89 H91 0.960 . S
C89 H92 0.961 . S
H90 C89 0.959 . S
H91 C89 0.960 . S
H92 C89 0.961 . S
O93 Co68 1.967 . S
O93 C101 1.258 . S
O94 Co69 1.941 . S
O94 C101 1.266 . S
H95 C97 0.959 . S
H96 C97 0.961 . S
C97 C87 1.510 . S
C97 H95 0.959 . S
C97 H96 0.961 . S
C97 H98 0.960 . S
H98 C97 0.960 . S
H99 N79 0.862 . S
O100 Co68 1.920 . S
O100 C73 1.289 . S
C101 O93 1.258 . S
C101 O94 1.266 . S
Co102 O105 1.970 . S
Co102 N119 1.989 . S
Co102 O127 1.967 . S
Co102 O134 1.920 . S
Co103 O106 1.966 . S
Co103 N112 2.022 . S
Co103 N120 1.993 . S
Co103 O128 1.941 . S
C104 O105 1.258 . S
C104 O106 1.263 . S
O105 Co102 1.970 . S
O105 C104 1.258 . S
O106 Co103 1.966 . S
O106 C104 1.263 . S
C107 O108 1.235 . S
C107 O134 1.289 . S
O108 C107 1.235 . S
C109 C111 1.400 . S
C109 N112 1.351 . S
C109 C114 1.501 . S
C110 C111 1.387 . S
C110 N113 1.341 . S
C111 C109 1.400 . S
C111 C110 1.387 . S
N112 Co103 2.022 . S
N112 C109 1.351 . S
N112 N113 1.365 . S
N113 C110 1.341 . S
N113 N112 1.365 . S
N113 H133 0.862 . S
C114 C109 1.501 . S
C114 H115 0.961 . S
C114 H116 0.961 . S
C114 H117 0.960 . S
H115 C114 0.961 . S
H116 C114 0.961 . S
H117 C114 0.960 . S
C118 N119 1.342 . S
C118 C122 1.401 . S
C118 C123 1.499 . S
N119 Co102 1.989 . S
N119 C118 1.342 . S
N119 N120 1.388 . S
N120 Co103 1.993 . S
N120 N119 1.388 . S
N120 C121 1.346 . S
C121 N120 1.346 . S
C121 C122 1.396 . S
C121 C131 1.510 . S
C122 C118 1.401 . S
C122 C121 1.396 . S
C123 C118 1.499 . S
C123 H124 0.959 . S
C123 H125 0.960 . S
C123 H126 0.961 . S
H124 C123 0.959 . S
H125 C123 0.960 . S
H126 C123 0.961 . S
O127 Co102 1.967 . S
O127 C135 1.258 . S
O128 Co103 1.941 . S
O128 C135 1.266 . S
H129 C131 0.959 . S
H130 C131 0.961 . S
C131 C121 1.510 . S
C131 H129 0.959 . S
C131 H130 0.961 . S
C131 H132 0.960 . S
H132 C131 0.960 . S
H133 N113 0.862 . S
O134 Co102 1.920 . S
O134 C107 1.289 . S
C135 O127 1.258 . S
C135 O128 1.266 . S
Co136 O139 1.970 1_545 S
Co136 N153 1.989 . S
Co136 O161 1.967 . S
Co136 O168 1.920 . S
Co137 O140 1.966 1_545 S
Co137 N146 2.022 1_545 S
Co137 N154 1.993 . S
Co137 O162 1.941 . S
C138 O139 1.258 . S
C138 O140 1.263 . S
O139 Co136 1.970 1_565 S
O139 C138 1.258 . S
O140 Co137 1.966 1_565 S
O140 C138 1.263 . S
C141 O142 1.235 1_545 S
C141 O168 1.289 . S
O142 C141 1.235 1_565 S
C143 C145 1.400 . S
C143 N146 1.351 . S
C143 C148 1.501 . S
C144 C145 1.387 . S
C144 N147 1.341 1_565 S
C145 C143 1.400 . S
C145 C144 1.387 . S
N146 Co137 2.022 1_565 S
N146 C143 1.351 . S
N146 N147 1.365 1_565 S
N147 C144 1.341 1_545 S
N147 N146 1.365 1_545 S
N147 H167 0.862 . S
C148 C143 1.501 . S
C148 H149 0.961 . S
C148 H150 0.961 . S
C148 H151 0.960 . S
H149 C148 0.961 . S
H150 C148 0.961 . S
H151 C148 0.960 . S
C152 N153 1.342 . S
C152 C156 1.401 . S
C152 C157 1.499 . S
N153 Co136 1.989 . S
N153 C152 1.342 . S
N153 N154 1.388 . S
N154 Co137 1.993 . S
N154 N153 1.388 . S
N154 C155 1.346 . S
C155 N154 1.346 . S
C155 C156 1.396 . S
C155 C165 1.510 1_545 S
C156 C152 1.401 . S
C156 C155 1.396 . S
C157 C152 1.499 . S
C157 H158 0.959 . S
C157 H159 0.960 . S
C157 H160 0.961 . S
H158 C157 0.959 . S
H159 C157 0.960 . S
H160 C157 0.961 . S
O161 Co136 1.967 . S
O161 C169 1.258 . S
O162 Co137 1.941 . S
O162 C169 1.266 . S
H163 C165 0.959 1_545 S
H164 C165 0.961 . S
C165 C155 1.510 1_565 S
C165 H163 0.959 1_565 S
C165 H164 0.961 . S
C165 H166 0.960 . S
H166 C165 0.960 . S
H167 N147 0.862 . S
O168 Co136 1.920 . S
O168 C141 1.289 . S
C169 O161 1.258 . S
C169 O162 1.266 . S
Co170 O173 1.970 1_545 S
Co170 N187 1.989 . S
Co170 O195 1.967 . S
Co170 O202 1.920 . S
Co171 O174 1.966 1_545 S
Co171 N180 2.022 1_545 S
Co171 N188 1.993 . S
Co171 O196 1.941 . S
C172 O173 1.258 . S
C172 O174 1.263 . S
O173 Co170 1.970 1_565 S
O173 C172 1.258 . S
O174 Co171 1.966 1_565 S
O174 C172 1.263 . S
C175 O176 1.235 1_545 S
C175 O202 1.289 . S
O176 C175 1.235 1_565 S
C177 C179 1.400 . S
C177 N180 1.351 . S
C177 C182 1.501 . S
C178 C179 1.387 . S
C178 N181 1.341 1_565 S
C179 C177 1.400 . S
C179 C178 1.387 . S
N180 Co171 2.022 1_565 S
N180 C177 1.351 . S
N180 N181 1.365 1_565 S
N181 C178 1.341 1_545 S
N181 N180 1.365 1_545 S
N181 H201 0.862 . S
C182 C177 1.501 . S
C182 H183 0.961 . S
C182 H184 0.961 . S
C182 H185 0.960 . S
H183 C182 0.961 . S
H184 C182 0.961 . S
H185 C182 0.960 . S
C186 N187 1.342 . S
C186 C190 1.401 . S
C186 C191 1.499 . S
N187 Co170 1.989 . S
N187 C186 1.342 . S
N187 N188 1.388 . S
N188 Co171 1.993 . S
N188 N187 1.388 . S
N188 C189 1.346 . S
C189 N188 1.346 . S
C189 C190 1.396 . S
C189 C199 1.510 1_545 S
C190 C186 1.401 . S
C190 C189 1.396 . S
C191 C186 1.499 . S
C191 H192 0.959 . S
C191 H193 0.960 . S
C191 H194 0.961 . S
H192 C191 0.959 . S
H193 C191 0.960 . S
H194 C191 0.961 . S
O195 Co170 1.967 . S
O195 C203 1.258 . S
O196 Co171 1.941 . S
O196 C203 1.266 . S
H197 C199 0.959 1_545 S
H198 C199 0.961 . S
C199 C189 1.510 1_565 S
C199 H197 0.959 1_565 S
C199 H198 0.961 . S
C199 H200 0.960 . S
H200 C199 0.960 . S
H201 N181 0.862 . S
O202 Co170 1.920 . S
O202 C175 1.289 . S
C203 O195 1.258 . S
C203 O196 1.266 . S
Co204 O207 1.970 . S
Co204 N221 1.989 . S
Co204 O229 1.967 . S
Co204 O236 1.920 . S
Co205 O208 1.966 1_556 S
Co205 N214 2.022 . S
Co205 N222 1.993 1_556 S
Co205 O230 1.941 . S
C206 O207 1.258 . S
C206 O208 1.263 . S
O207 Co204 1.970 . S
O207 C206 1.258 . S
O208 Co205 1.966 1_554 S
O208 C206 1.263 . S
C209 O210 1.235 . S
C209 O236 1.289 . S
O210 C209 1.235 . S
C211 C213 1.400 . S
C211 N214 1.351 . S
C211 C216 1.501 . S
C212 C213 1.387 . S
C212 N215 1.341 . S
C213 C211 1.400 . S
C213 C212 1.387 . S
N214 Co205 2.022 . S
N214 C211 1.351 . S
N214 N215 1.365 . S
N215 C212 1.341 . S
N215 N214 1.365 . S
N215 H235 0.862 . S
C216 C211 1.501 . S
C216 H217 0.961 . S
C216 H218 0.961 . S
C216 H219 0.960 . S
H217 C216 0.961 . S
H218 C216 0.961 . S
H219 C216 0.960 . S
C220 N221 1.342 . S
C220 C224 1.401 . S
C220 C225 1.499 . S
N221 Co204 1.989 . S
N221 C220 1.342 . S
N221 N222 1.388 . S
N222 Co205 1.993 1_554 S
N222 N221 1.388 . S
N222 C223 1.346 . S
C223 N222 1.346 . S
C223 C224 1.396 . S
C223 C233 1.510 1_554 S
C224 C220 1.401 . S
C224 C223 1.396 . S
C225 C220 1.499 . S
C225 H226 0.959 . S
C225 H227 0.960 . S
C225 H228 0.961 . S
H226 C225 0.959 . S
H227 C225 0.960 . S
H228 C225 0.961 . S
O229 Co204 1.967 . S
O229 C237 1.258 . S
O230 Co205 1.941 . S
O230 C237 1.266 1_556 S
H231 C233 0.959 . S
H232 C233 0.961 . S
C233 C223 1.510 1_556 S
C233 H231 0.959 . S
C233 H232 0.961 . S
C233 H234 0.960 . S
H234 C233 0.960 . S
H235 N215 0.862 . S
O236 Co204 1.920 . S
O236 C209 1.289 . S
C237 O229 1.258 . S
C237 O230 1.266 1_554 S
Co238 O241 1.970 . S
Co238 N255 1.989 1_556 S
Co238 O263 1.967 1_556 S
Co238 O270 1.920 . S
Co239 O242 1.966 . S
Co239 N248 2.022 . S
Co239 N256 1.993 . S
Co239 O264 1.941 . S
C240 O241 1.258 1_554 S
C240 O242 1.263 . S
O241 Co238 1.970 . S
O241 C240 1.258 1_556 S
O242 Co239 1.966 . S
O242 C240 1.263 . S
C243 O244 1.235 . S
C243 O270 1.289 . S
O244 C243 1.235 . S
C245 C247 1.400 . S
C245 N248 1.351 . S
C245 C250 1.501 . S
C246 C247 1.387 . S
C246 N249 1.341 . S
C247 C245 1.400 . S
C247 C246 1.387 . S
N248 Co239 2.022 . S
N248 C245 1.351 . S
N248 N249 1.365 . S
N249 C246 1.341 . S
N249 N248 1.365 . S
N249 H269 0.862 . S
C250 C245 1.501 . S
C250 H251 0.961 . S
C250 H252 0.961 . S
C250 H253 0.960 . S
H251 C250 0.961 . S
H252 C250 0.961 . S
H253 C250 0.960 . S
C254 N255 1.342 . S
C254 C258 1.401 . S
C254 C259 1.499 1_554 S
N255 Co238 1.989 1_554 S
N255 C254 1.342 . S
N255 N256 1.388 . S
N256 Co239 1.993 . S
N256 N255 1.388 . S
N256 C257 1.346 . S
C257 N256 1.346 . S
C257 C258 1.396 . S
C257 C267 1.510 . S
C258 C254 1.401 . S
C258 C257 1.396 . S
C259 C254 1.499 1_556 S
C259 H260 0.959 . S
C259 H261 0.960 . S
C259 H262 0.961 . S
H260 C259 0.959 . S
H261 C259 0.960 . S
H262 C259 0.961 . S
O263 Co238 1.967 1_554 S
O263 C271 1.258 . S
O264 Co239 1.941 . S
O264 C271 1.266 . S
H265 C267 0.959 . S
H266 C267 0.961 . S
C267 C257 1.510 . S
C267 H265 0.959 . S
C267 H266 0.961 . S
C267 H268 0.960 . S
H268 C267 0.960 . S
H269 N249 0.862 . S
O270 Co238 1.920 . S
O270 C243 1.289 . S
C271 O263 1.258 . S
C271 O264 1.266 . S
C77 C5 1.911 . S
C43 C107 1.912 . S
C73 C9 1.913 . S
C111 C39 1.911 . S
C141 C213 1.913 . S
C243 C179 1.911 . S
C145 C209 1.911 . S
C175 C247 1.912 . S
C54 C20 1.488 . S
C88 C122 1.488 . S
C190 C156 1.488 1_455 S
C224 C258 1.488 1_655 S
C240 C33 1.329 . S
C237 C36 1.328 . S
C271 C2 1.329 . S
C67 C206 1.329 . S
C172 C101 1.328 . S
C104 C169 1.328 . S
C203 C70 1.329 . S
C135 C138 1.329 . S
