# Generated by pormake.
# Topology qtz-x, (6)-cn, num edge types: 1
# Building blocks:
#     Node 0, Type 0, BuildingBlock: KUMBUR_clean_sbu_0, # of connection points: 6
#     Node 1, Type 0, BuildingBlock: KUMBUR_clean_sbu_0, # of connection points: 6
#     Node 2, Type 0, BuildingBlock: KUMBUR_clean_sbu_0, # of connection points: 6
#     Edge 3, Type (0, 0), BuildingBlock: XUDNAN_clean_linker_2, # of connection points: 2
#     Edge 4, Type (0, 0), BuildingBlock: XUDNAN_clean_linker_2, # of connection points: 2
#     Edge 5, Type (0, 0), BuildingBlock: XUDNAN_clean_linker_2, # of connection points: 2
#     Edge 6, Type (0, 0), BuildingBlock: XUDNAN_clean_linker_2, # of connection points: 2
#     Edge 7, Type (0, 0), BuildingBlock: XUDNAN_clean_linker_2, # of connection points: 2
#     Edge 8, Type (0, 0), BuildingBlock: XUDNAN_clean_linker_2, # of connection points: 2
#     Edge 9, Type (0, 0), BuildingBlock: XUDNAN_clean_linker_2, # of connection points: 2
#     Edge 10, Type (0, 0), BuildingBlock: XUDNAN_clean_linker_2, # of connection points: 2
#     Edge 11, Type (0, 0), BuildingBlock: XUDNAN_clean_linker_2, # of connection points: 2
# Relax obj value: 0.164
# Max RMSD: 0.280
# Mean RMSD: 0.280
data_MOF--net-qtz-x--node1-KUMBUR_clean_sbu_0--edge1-XUDNAN_clean_linker_2
_symmetry_space_group_name_H-M    P1
_symmetry_Int_Tables_number       1
_symmetry_cell_setting            triclinic
loop_
_symmetry_equiv_pos_as_xyz
'x, y, z'
_cell_length_a     15.045829
_cell_length_b     15.064096
_cell_length_c     50.860873
_cell_angle_alpha  90.025403
_cell_angle_beta   89.911513
_cell_angle_gamma 119.9339
loop_
_atom_site_label
_atom_site_type_symbol
_atom_site_fract_x
_atom_site_fract_y
_atom_site_fract_z
_atom_type_partial_charge
Tb0 Tb 0.28725 0.51197 0.19873 0.0
C1 C 0.84009 0.23164 0.19368 0.0
C2 C 0.78876 0.06459 0.17544 0.0
C3 C 0.68599 0.08169 0.20982 0.0
C4 C 0.85786 0.17091 0.17678 0.0
C5 C 0.75211 0.18832 0.20986 0.0
C6 C 0.70434 0.01981 0.19262 0.0
C7 C 0.79422 0.35952 0.2222 0.0
N8 N 0.90475 0.33426 0.19269 0.0
C9 C 0.88081 0.39869 0.20596 0.0
C10 C 0.73077 0.2538 0.22463 0.0
Tb11 Tb 0.04396 0.39172 0.16514 0.0
N12 N 0.93917 0.21758 0.16025 0.0
C13 C 0.94911 0.16338 0.13988 0.0
C14 C 0.80412 0.00744 0.15613 0.0
C15 C 0.88369 0.05742 0.13799 0.0
H16 H 0.92874 0.48063 0.20448 0.0
H17 H 0.89432 0.01448 0.12244 0.0
H18 H 0.65086 0.9381 0.19209 0.0
H19 H 0.77648 0.41105 0.2328 0.0
H20 H 0.00965 0.20113 0.12557 0.0
H21 H 0.56799 0.77652 0.1295 0.0
H22 H 0.75291 0.92554 0.15446 0.0
H23 H 0.30895 0.35113 0.24076 0.0
H24 H 0.41987 0.71154 0.15924 0.0
H25 H 0.41225 0.26779 0.24508 0.0
H26 H 0.61861 0.04682 0.22231 0.0
H27 H 0.66771 0.68697 0.12628 0.0
H28 H 0.70016 0.5489 0.14325 0.0
H29 H 0.66371 0.22375 0.2372 0.0
H30 H 0.65816 0.41032 0.1751 0.0
N31 N 0.42893 0.58151 0.17157 0.0
C32 C 0.46045 0.66999 0.15769 0.0
C33 C 0.60133 0.65702 0.13909 0.0
C34 C 0.57401 0.57132 0.15492 0.0
C35 C 0.54542 0.70782 0.1409 0.0
C36 C 0.48691 0.53573 0.17128 0.0
H37 H 0.55163 0.3059 0.21342 0.0
N38 N 0.3833 0.43254 0.20559 0.0
C39 C 0.42693 0.3206 0.22905 0.0
C40 C 0.46396 0.45891 0.18915 0.0
C41 C 0.3678 0.3681 0.22635 0.0
C42 C 0.5055 0.34223 0.21115 0.0
C43 C 0.52643 0.41389 0.19122 0.0
O44 O 0.29187 0.55377 0.23867 0.0
O45 O 0.12169 0.44882 0.20199 0.0
O46 O 0.07998 0.54591 0.17838 0.0
O47 O 0.25716 0.62836 0.18187 0.0
O48 O 0.19279 0.40466 0.22914 0.0
O49 O 0.40521 0.65592 0.21183 0.0
O50 O 0.93418 0.42839 0.15118 0.0
O51 O 0.20911 0.49317 0.16184 0.0
O52 O 0.25488 0.36298 0.18397 0.0
O53 O 0.07627 0.27129 0.17845 0.0
O54 O 0.13958 0.37909 0.13475 0.0
O55 O 0.03274 0.41029 0.12431 0.0
C56 C 0.10609 0.39305 0.222 0.0
C57 C 0.45911 0.64883 0.25516 0.0
C58 C 0.52477 0.67425 0.30033 0.0
C59 C 0.45229 0.66968 0.2819 0.0
C60 C 0.60292 0.65587 0.29143 0.0
C61 C 0.53963 0.63367 0.24688 0.0
C62 C 0.61049 0.63658 0.26494 0.0
C63 C 0.17055 0.63052 0.17967 0.0
C64 C 0.37903 0.63716 0.23637 0.0
C65 C 0.60977 0.44459 0.17398 0.0
C66 C 0.63357 0.52333 0.15583 0.0
C67 C 0.22595 0.45665 0.14125 0.0
C68 C 0.86469 0.35222 0.10977 0.0
C69 C 0.87668 0.35738 0.08223 0.0
C70 C 0.79465 0.29232 0.0656 0.0
C71 C 0.70027 0.22176 0.07719 0.0
C72 C 0.76994 0.28039 0.12073 0.0
C73 C 0.68846 0.21577 0.10448 0.0
C74 C 0.16701 0.27696 0.18017 0.0
C75 C 0.95264 0.42019 0.12665 0.0
H76 H 0.39108 0.68302 0.28817 0.0
H77 H 0.65824 0.65556 0.30496 0.0
H78 H 0.54742 0.61852 0.22648 0.0
H79 H 0.67134 0.62321 0.25841 0.0
H80 H 0.95053 0.41146 0.07387 0.0
H81 H 0.63456 0.17221 0.06519 0.0
H82 H 0.75864 0.27391 0.14183 0.0
H83 H 0.61546 0.16111 0.11309 0.0
Tb84 Tb 0.59537 0.92211 0.53325 0.0
C85 C 0.89935 0.37089 0.50254 0.0
C86 C 0.85526 0.47033 0.53165 0.0
C87 C 0.02249 0.55041 0.51068 0.0
C88 C 0.82955 0.37706 0.51899 0.0
C89 C 0.99585 0.45815 0.49771 0.0
C90 C 0.95304 0.55604 0.52796 0.0
C91 C 0.02758 0.3606 0.46516 0.0
N92 N 0.86891 0.28202 0.48935 0.0
C93 C 0.93018 0.27706 0.47011 0.0
C94 C 0.06066 0.45158 0.47903 0.0
Tb95 Tb 0.70256 0.15499 0.49566 0.0
N96 N 0.73327 0.29509 0.52042 0.0
C97 C 0.65732 0.30488 0.53256 0.0
C98 C 0.77979 0.47682 0.54617 0.0
C99 C 0.67995 0.39414 0.54629 0.0
H100 H 0.90444 0.20865 0.4585 0.0
H101 H 0.6198 0.39971 0.55653 0.0
H102 H 0.97391 0.62837 0.53739 0.0
H103 H 0.0762 0.35542 0.45025 0.0
H104 H 0.57871 0.24373 0.53211 0.0
H105 H 0.77796 0.74743 0.47565 0.0
H106 H 0.79657 0.54687 0.55626 0.0
H107 H 0.36117 0.81414 0.55827 0.0
H108 H 0.77791 0.87859 0.50239 0.0
H109 H 0.19913 0.6505 0.55514 0.0
H110 H 0.09536 0.61874 0.50687 0.0
H111 H 0.61661 0.59004 0.46506 0.0
H112 H 0.42796 0.48251 0.47141 0.0
H113 H 0.1351 0.51707 0.47465 0.0
H114 H 0.27068 0.45511 0.4933 0.0
N115 N 0.61357 0.80259 0.50787 0.0
C116 C 0.7045 0.81233 0.49885 0.0
C117 C 0.61482 0.64856 0.47708 0.0
C118 C 0.52289 0.63508 0.48733 0.0
C119 C 0.70593 0.73697 0.48313 0.0
C120 C 0.5244 0.71416 0.50274 0.0
H121 H 0.18761 0.51404 0.52599 0.0
N122 N 0.43862 0.77562 0.52938 0.0
C123 C 0.26399 0.66407 0.54304 0.0
C124 C 0.43455 0.69997 0.51405 0.0
C125 C 0.35547 0.75744 0.54444 0.0
C126 C 0.25756 0.58756 0.52645 0.0
C127 C 0.34296 0.60482 0.51163 0.0
O128 O 0.68484 0.95131 0.56773 0.0
O129 O 0.66988 0.08728 0.53468 0.0
O130 O 0.83638 0.15584 0.51278 0.0
O131 O 0.76094 0.9871 0.52877 0.0
O132 O 0.54304 0.00538 0.55762 0.0
O133 O 0.5469 0.80968 0.56307 0.0
O134 O 0.69185 0.15328 0.45434 0.0
O135 O 0.61787 0.98826 0.49458 0.0
O136 O 0.46424 0.93886 0.52078 0.0
O137 O 0.53978 0.10437 0.50304 0.0
O138 O 0.74039 0.06361 0.46984 0.0
O139 O 0.64891 0.24507 0.47734 0.0
C140 C 0.61656 0.09643 0.55261 0.0
C141 C 0.58677 0.87642 0.60624 0.0
C142 C 0.60402 0.87129 0.65393 0.0
C143 C 0.63335 0.86012 0.62832 0.0
C144 C 0.53046 0.90158 0.65727 0.0
C145 C 0.50799 0.89953 0.6103 0.0
C146 C 0.48216 0.91469 0.63555 0.0
C147 C 0.84151 0.07718 0.52273 0.0
C148 C 0.619 0.86719 0.57926 0.0
C149 C 0.34072 0.52788 0.49565 0.0
C150 C 0.4303 0.54343 0.48328 0.0
C151 C 0.66578 0.97486 0.47604 0.0
C152 C 0.73174 0.31145 0.43615 0.0
C153 C 0.74093 0.29184 0.40952 0.0
C154 C 0.81227 0.36982 0.39279 0.0
C155 C 0.87193 0.46915 0.4033 0.0
C156 C 0.79047 0.41159 0.44584 0.0
C157 C 0.85987 0.48977 0.42944 0.0
C158 C 0.45907 0.01828 0.51119 0.0
C159 C 0.66769 0.22459 0.45379 0.0
H160 H 0.69099 0.83777 0.62566 0.0
H161 H 0.50689 0.91038 0.67679 0.0
H162 H 0.4642 0.90406 0.59423 0.0
H163 H 0.42251 0.93409 0.63831 0.0
H164 H 0.69319 0.21477 0.40215 0.0
H165 H 0.93002 0.53106 0.39167 0.0
H166 H 0.78462 0.42925 0.46617 0.0
H167 H 0.90639 0.56638 0.4372 0.0
Tb168 Tb 0.66438 0.56552 0.86774 0.0
C169 C 0.78533 0.24646 0.83092 0.0
C170 C 0.91788 0.26593 0.86126 0.0
C171 C 0.82416 0.10888 0.83604 0.0
C172 C 0.86016 0.30497 0.84913 0.0
C173 C 0.76783 0.14851 0.82379 0.0
C174 C 0.89808 0.16688 0.85499 0.0
C175 C 0.6483 0.1406 0.79097 0.0
N176 N 0.73473 0.28854 0.81885 0.0
C177 C 0.66969 0.23871 0.79836 0.0
C178 C 0.69732 0.09509 0.80379 0.0
Tb179 Tb 0.78783 0.45533 0.82927 0.0
N180 N 0.88158 0.4027 0.85344 0.0
C181 C 0.96399 0.46707 0.86858 0.0
C182 C -0.00282 0.3294 0.87833 0.0
C183 C 0.0209 0.43073 0.88181 0.0
H184 H 0.63345 0.27413 0.78776 0.0
H185 H 0.08416 0.48147 0.89434 0.0
H186 H 0.94179 0.13571 0.86404 0.0
H187 H 0.59532 0.10086 0.77509 0.0
H188 H 0.98572 0.54648 0.87096 0.0
H189 H 0.3536 0.47509 0.79937 0.0
H190 H 0.04286 0.3021 0.88815 0.0
H191 H 0.79148 0.76503 0.906 0.0
H192 H 0.46343 0.43768 0.82705 0.0
H193 H 0.81274 0.93704 0.9122 0.0
H194 H 0.81243 0.03418 0.83067 0.0
H195 H 0.37762 0.64974 0.79813 0.0
H196 H 0.46682 0.82869 0.81608 0.0
H197 H 0.68212 0.01987 0.79767 0.0
H198 H 0.58835 0.95337 0.84784 0.0
N199 N 0.55575 0.59152 0.84083 0.0
C200 C 0.4768 0.51485 0.82687 0.0
C201 C 0.42764 0.63424 0.81019 0.0
C202 C 0.50327 0.7106 0.82589 0.0
C203 C 0.41361 0.53558 0.81094 0.0
C204 C 0.56688 0.68654 0.84106 0.0
H205 H 0.71693 0.99402 0.88401 0.0
N206 N 0.69389 0.7292 0.87278 0.0
C207 C 0.76442 0.88805 0.89657 0.0
C208 C 0.63798 0.75777 0.8579 0.0
C209 C 0.75353 0.7912 0.89272 0.0
C210 C 0.71036 0.91997 0.8806 0.0
C211 C 0.64525 0.85419 0.86112 0.0
O212 O 0.64796 0.57584 0.90871 0.0
O213 O 0.74023 0.4756 0.86806 0.0
O214 O 0.64737 0.32276 0.84335 0.0
O215 O 0.55825 0.40422 0.85801 0.0
O216 O 0.7777 0.58331 0.89685 0.0
O217 O 0.51756 0.48126 0.88446 0.0
O218 O 0.81081 0.48091 0.78857 0.0
O219 O 0.71983 0.55204 0.8299 0.0
O220 O 0.81415 0.69433 0.85697 0.0
O221 O 0.90237 0.61038 0.84273 0.0
O222 O 0.67643 0.44751 0.80043 0.0
O223 O 0.93519 0.50344 0.8135 0.0
C224 C 0.79323 0.51129 0.8887 0.0
C225 C 0.49113 0.56466 0.92067 0.0
C226 C 0.43887 0.61598 0.96092 0.0
C227 C 0.4935 0.57447 0.94825 0.0
C228 C 0.38159 0.64699 0.94544 0.0
C229 C 0.43387 0.59695 0.90576 0.0
C230 C 0.3796 0.63781 0.91813 0.0
C231 C 0.56361 0.3215 0.85182 0.0
C232 C 0.54865 0.52093 0.90772 0.0
C233 C 0.58408 0.8798 0.84565 0.0
C234 C 0.51434 0.80862 0.82773 0.0
C235 C 0.66879 0.52379 0.80897 0.0
C236 C 0.92275 0.43145 0.77067 0.0
C237 C 0.88674 0.42058 0.74465 0.0
C238 C 0.89257 0.35116 0.72706 0.0
C239 C 0.93907 0.29536 0.73579 0.0
C240 C 0.96909 0.37503 0.7788 0.0
C241 C 0.97757 0.30796 0.76136 0.0
C242 C 0.89919 0.69315 0.85043 0.0
C243 C 0.9032 0.49547 0.78933 0.0
H244 H 0.5385 0.55053 0.95973 0.0
H245 H 0.33652 0.67676 0.95444 0.0
H246 H 0.43026 0.59001 0.88457 0.0
H247 H 0.33502 0.66172 0.90649 0.0
H248 H 0.85217 0.46516 0.73831 0.0
H249 H 0.94338 0.2398 0.72314 0.0
H250 H -0.00301 0.38109 0.79871 0.0
H251 H 0.01223 0.26378 0.76789 0.0
H252 H 0.02724 0.69018 0.19029 0.0
H253 H 0.33247 0.79782 0.15855 0.0
H254 H 0.35428 0.96793 0.15189 0.0
H255 H 0.96197 0.85095 0.14732 0.0
H256 H 0.89656 0.87625 0.17342 0.0
H257 H 0.89833 0.75752 0.17296 0.0
H258 H 0.9747 0.79586 0.22005 0.0
H259 H 0.97401 0.91503 0.22027 0.0
H260 H 0.09169 0.91435 0.22633 0.0
H261 H 0.35224 0.12651 0.15132 0.0
H262 H 0.32745 0.27363 0.15779 0.0
H263 H 0.02479 0.07397 0.19067 0.0
C264 C 0.09773 0.74942 0.18156 0.0
C265 C 0.17835 0.73066 0.17499 0.0
C266 C 0.27011 0.81019 0.16399 0.0
C267 C 0.28303 0.90722 0.15988 0.0
C268 C 0.20347 0.924 0.16689 0.0
C269 C 0.11248 0.84812 0.17751 0.0
C270 C 0.04327 0.89088 0.18505 0.0
C271 C 0.94418 0.84091 0.1687 0.0
C272 C 0.01958 0.87828 0.21469 0.0
C273 C 0.1115 0.0028 0.17764 0.0
C274 C 0.20275 0.01885 0.16688 0.0
C275 C 0.28096 0.11525 0.15954 0.0
C276 C 0.26643 0.19846 0.16356 0.0
C277 C 0.17479 0.18514 0.17503 0.0
C278 C 0.09529 0.0858 0.18174 0.0
H279 H 0.36504 0.10008 0.48048 0.0
H280 H 0.34403 0.95267 0.5553 0.0
H281 H 0.1948 0.9678 0.5674 0.0
H282 H 0.28869 0.2804 0.5051 0.0
H283 H 0.21346 0.27056 0.47655 0.0
H284 H 0.32205 0.25132 0.47347 0.0
H285 H 0.20526 0.07275 0.4526 0.0
H286 H 0.09719 0.09273 0.45542 0.0
H287 H 0.09148 0.98075 0.46987 0.0
H288 H 0.04846 0.9953 0.57188 0.0
H289 H 0.89838 0.01792 0.56641 0.0
H290 H 0.00699 0.14822 0.489 0.0
C291 C 0.32801 0.07022 0.49925 0.0
C292 C 0.36407 0.02152 0.51655 0.0
C293 C 0.31503 0.9852 0.54114 0.0
C294 C 0.23129 0.99561 0.54849 0.0
C295 C 0.19729 0.04334 0.53111 0.0
C296 C 0.24287 0.07926 0.50687 0.0
C297 C 0.18664 0.12313 0.49162 0.0
C298 C 0.25694 0.23818 0.48639 0.0
C299 C 0.14251 0.06377 0.46586 0.0
C300 C 0.10198 0.1046 0.51101 0.0
C301 C 0.11123 0.05997 0.53379 0.0
C302 C 0.04055 0.03087 0.55424 0.0
C303 C 0.95577 0.04421 0.55099 0.0
C304 C 0.94214 0.08611 0.52749 0.0
C305 C 0.01739 0.11903 0.50747 0.0
H306 H 0.06975 0.78248 0.81856 0.0
H307 H 0.95203 0.80998 0.89408 0.0
H308 H 0.11512 0.96602 0.90365 0.0
H309 H 0.33518 0.87611 0.84061 0.0
H310 H 0.39149 0.94588 0.81067 0.0
H311 H 0.26686 0.83192 0.80996 0.0
H312 H 0.19036 0.93459 0.78818 0.0
H313 H 0.31497 0.04814 0.78869 0.0
H314 H 0.20724 0.04933 0.80388 0.0
H315 H 0.28393 0.12045 0.90457 0.0
H316 H 0.45122 0.27376 0.89598 0.0
H317 H 0.46675 0.15065 0.82008 0.0
C318 C 0.07904 0.82171 0.83708 0.0
C319 C -0.00247 0.78653 0.85534 0.0
C320 C 0.01186 0.83854 0.87943 0.0
C321 C 0.10499 0.92607 0.88524 0.0
C322 C 0.18345 0.96001 0.86678 0.0
C323 C 0.17203 0.9101 0.84315 0.0
C324 C 0.26782 0.96689 0.82635 0.0
C325 C 0.31827 0.90122 0.82162 0.0
C326 C 0.24362 0.00182 0.80023 0.0
C327 C 0.3335 0.05725 0.84408 0.0
C328 C 0.28321 0.05046 0.86741 0.0
C329 C 0.3247 0.12646 0.88651 0.0
C330 C 0.41936 0.21321 0.88142 0.0
C331 C 0.47139 0.22323 0.85746 0.0
C332 C 0.42922 0.14349 0.83875 0.0
H333 H 0.43009 0.47884 0.99827 0.0
H334 H 0.44425 0.77238 0.98987 0.0
H335 H 0.418 0.77619 0.03756 0.0
H336 H 0.23598 0.37372 0.0428 0.0
H337 H 0.2856 0.30854 0.0624 0.0
H338 H 0.32179 0.33603 0.02842 0.0
H339 H 0.51386 0.43292 0.04166 0.0
H340 H 0.47783 0.40536 0.0758 0.0
H341 H 0.55892 0.53584 0.06523 0.0
H342 H 0.35639 0.73254 0.08373 0.0
H343 H 0.27459 0.64855 0.12561 0.0
H344 H 0.31669 0.39236 0.10615 0.0
C345 C 0.43136 0.54567 1.00655 0.0
C346 C 0.43843 0.62487 0.99015 0.0
C347 C 0.43718 0.70976 1.00184 0.0
C348 C 0.42342 0.71324 0.02901 0.0
C349 C 0.41325 0.6324 0.04447 0.0
C350 C 0.41889 0.55095 0.03377 0.0
C351 C 0.39701 0.46986 0.05442 0.0
C352 C 0.30461 0.36597 0.04653 0.0
C353 C 0.49262 0.46047 0.05957 0.0
C354 C 0.37247 0.51575 0.07795 0.0
C355 C 0.38358 0.61024 0.07188 0.0
C356 C 0.3518 0.66092 0.08916 0.0
C357 C 0.30615 0.61316 0.11302 0.0
C358 C 0.2954 0.51718 0.11975 0.0
C359 C 0.32978 0.46855 0.10205 0.0
H360 H 0.87812 0.50012 0.34957 0.0
H361 H 0.78778 0.18816 0.37261 0.0
H362 H 0.82215 0.15314 0.32782 0.0
H363 H 0.79589 0.45134 0.28085 0.0
H364 H 0.90814 0.56409 0.26872 0.0
H365 H 0.85976 0.56379 0.30121 0.0
H366 H 0.03436 0.61271 0.32223 0.0
H367 H 0.08602 0.61828 0.29 0.0
H368 H 0.09426 0.53754 0.31489 0.0
H369 H 0.88424 0.1558 0.28205 0.0
H370 H 0.98685 0.20236 0.24108 0.0
H371 H 0.05344 0.51562 0.24914 0.0
C372 C 0.86487 0.42406 0.34541 0.0
C373 C 0.8281 0.34678 0.36502 0.0
C374 C 0.81198 0.24837 0.35811 0.0
C375 C 0.83199 0.22757 0.33257 0.0
C376 C 0.8695 0.30599 0.31401 0.0
C377 C 0.88712 0.40271 0.32022 0.0
C378 C 0.94077 0.47728 0.29786 0.0
C379 C 0.87206 0.51644 0.28648 0.0
C380 C 0.04501 0.56666 0.30678 0.0
C381 C 0.95394 0.40821 0.27849 0.0
C382 C 0.90945 0.30888 0.28786 0.0
C383 C 0.91761 0.23276 0.27429 0.0
C384 C 0.97553 0.25958 0.25104 0.0
C385 C 0.02414 0.3613 0.24161 0.0
C386 C 0.01278 0.43632 0.25542 0.0
H387 H 0.57877 0.47585 0.76088 0.0
H388 H 0.75563 0.73363 0.81264 0.0
H389 H 0.76322 0.85217 0.77807 0.0
H390 H 0.7216 0.59612 0.70317 0.0
H391 H 0.6125 0.53823 0.68147 0.0
H392 H 0.61296 0.47297 0.71108 0.0
H393 H 0.44301 0.46165 0.72622 0.0
H394 H 0.44071 0.52509 0.69644 0.0
H395 H 0.43452 0.57672 0.72794 0.0
H396 H 0.75232 0.94262 0.73719 0.0
H397 H 0.7192 0.99635 0.69391 0.0
H398 H 0.56299 0.68056 0.66785 0.0
C399 C 0.6178 0.55719 0.76506 0.0
C400 C 0.66434 0.59528 0.78971 0.0
C401 C 0.7169 0.70235 0.79422 0.0
C402 C 0.72251 0.7704 0.77456 0.0
C403 C 0.67742 0.73026 0.75028 0.0
C404 C 0.62605 0.62607 0.74549 0.0
C405 C 0.58715 0.60238 0.71749 0.0
C406 C 0.63652 0.54931 0.70242 0.0
C407 C 0.46937 0.53767 0.717 0.0
C408 C 0.62446 0.7096 0.7072 0.0
C409 C 0.67604 0.7824 0.72643 0.0
C410 C 0.71317 0.88642 0.7219 0.0
C411 C 0.69478 0.91637 0.69729 0.0
C412 C 0.64111 0.84269 0.67752 0.0
C413 C 0.60712 0.73844 0.68242 0.0
H414 H 0.9164 0.59006 0.93045 0.0
H415 H 0.70761 0.30111 0.89334 0.0
H416 H 0.7089 0.20913 0.93358 0.0
H417 H 0.05748 0.49561 0.97396 0.0
H418 H 0.06249 0.57808 1.0003 0.0
H419 H 0.06696 0.61704 0.96657 0.0
H420 H 0.9114 0.64249 0.97537 0.0
H421 H 0.90509 0.60224 1.00885 0.0
H422 H 0.79404 0.537 0.98798 0.0
H423 H 0.70878 0.15285 0.98065 0.0
H424 H 0.70734 0.1366 0.02892 0.0
H425 H 0.9052 0.46588 0.03557 0.0
C426 C 0.87458 0.50705 0.93044 0.0
C427 C 0.81332 0.45246 0.90873 0.0
C428 C 0.75687 0.34419 0.90955 0.0
C429 C 0.75697 0.29151 0.93241 0.0
C430 C 0.81386 0.34843 0.95413 0.0
C431 C 0.87269 0.45404 0.95313 0.0
C432 C 0.9148 0.49917 0.97993 0.0
C433 C 0.03241 0.55048 0.9802 0.0
C434 C 0.87912 0.57457 0.98852 0.0
C435 C 0.86619 0.40318 0.99658 0.0
C436 C 0.81043 0.31671 0.98132 0.0
C437 C 0.75327 0.22005 0.99267 0.0
C438 C 0.75195 0.21184 0.02021 0.0
C439 C 0.80569 0.30004 0.03631 0.0
C440 C 0.86496 0.39649 0.02406 0.0
H441 H 0.68713 0.78799 0.33326 0.0
H442 H 0.35424 0.61884 0.33184 0.0
H443 H 0.35135 0.66257 0.37863 0.0
H444 H 0.71507 0.71208 0.39965 0.0
H445 H 0.8252 0.83541 0.40649 0.0
H446 H 0.79974 0.78697 0.37332 0.0
H447 H 0.80101 0.95169 0.35764 0.0
H448 H 0.82678 0.00063 0.39067 0.0
H449 H 0.71706 0.98887 0.37332 0.0
H450 H 0.38772 0.73685 0.4257 0.0
H451 H 0.46026 0.83852 0.46648 0.0
H452 H 0.76698 0.94366 0.43689 0.0
C453 C 0.61322 0.75778 0.34277 0.0
C454 C 0.52094 0.69919 0.32866 0.0
C455 C 0.42626 0.66473 0.34197 0.0
C456 C 0.42381 0.68825 0.36869 0.0
C457 C 0.51658 0.74538 0.38198 0.0
C458 C 0.60942 0.77924 0.36935 0.0
C459 C 0.69878 0.84287 0.38738 0.0
C460 C 0.76349 0.79121 0.39197 0.0
C461 C 0.76473 0.95246 0.37661 0.0
C462 C 0.64215 0.84149 0.41207 0.0
C463 C 0.53704 0.78469 0.40882 0.0
C464 C 0.46991 0.77991 0.42855 0.0
C465 C 0.51157 0.83716 0.45173 0.0
C466 C 0.61913 0.89715 0.45498 0.0
C467 C 0.68443 0.89675 0.43512 0.0
H468 H 0.95963 0.30813 0.68043 0.0
H469 H 0.71489 0.34843 0.71306 0.0
H470 H 0.63183 0.3117 0.66976 0.0
H471 H 0.9666 0.41105 0.61461 0.0
H472 H 0.98604 0.31577 0.59833 0.0
H473 H 0.03345 0.35598 0.63125 0.0
H474 H 0.93182 0.16716 0.64714 0.0
H475 H 0.88478 0.12659 0.61427 0.0
H476 H 0.79573 0.09351 0.6412 0.0
H477 H 0.56341 0.24993 0.62493 0.0
H478 H 0.51509 0.16727 0.58131 0.0
H479 H 0.80451 0.17148 0.5763 0.0
C480 C 0.88892 0.30993 0.6785 0.0
C481 C 0.84506 0.33289 0.70034 0.0
C482 C 0.75213 0.33405 0.69671 0.0
C483 C 0.70375 0.3126 0.67213 0.0
C484 C 0.74878 0.28992 0.65118 0.0
C485 C 0.8392 0.28829 0.65405 0.0
C486 C 0.86725 0.25423 0.62876 0.0
C487 C 0.96942 0.33937 0.61758 0.0
C488 C 0.87004 0.15448 0.6331 0.0
C489 C 0.77799 0.23618 0.61134 0.0
C490 C 0.71055 0.25724 0.62474 0.0
C491 C 0.61692 0.23598 0.61396 0.0
C492 C 0.59034 0.18969 0.58915 0.0
C493 C 0.65794 0.16734 0.57508 0.0
C494 C 0.75385 0.19267 0.5861 0.0
loop_
_geom_bond_atom_site_label_1
_geom_bond_atom_site_label_2
_geom_bond_distance
_geom_bond_site_symmetry_2
_ccdc_geom_bond_type
Tb0 N31 2.660 . S
Tb0 N38 2.600 . S
Tb0 O44 2.546 . S
Tb0 O45 2.610 1_455 S
Tb0 O47 2.320 . S
Tb0 O48 2.552 . S
Tb0 O49 2.413 . S
Tb0 O51 2.362 . S
Tb0 O52 2.421 . S
Tb0 C64 2.833 . S
C1 C4 1.432 . S
C1 C5 1.414 . S
C1 N8 1.359 . S
C2 C4 1.417 . S
C2 C6 1.432 . S
C2 C14 1.410 . S
C3 C5 1.444 . S
C3 C6 1.317 . S
C3 H26 0.929 . S
C4 C1 1.432 . S
C4 C2 1.417 . S
C4 N12 1.360 . S
C5 C1 1.414 . S
C5 C3 1.444 . S
C5 C10 1.385 . S
C6 C2 1.432 . S
C6 C3 1.317 . S
C6 H18 0.930 . S
C7 C9 1.392 . S
C7 C10 1.370 . S
C7 H19 0.931 . S
N8 C1 1.359 . S
N8 C9 1.327 . S
N8 Tb11 2.600 . S
C9 C7 1.392 . S
C9 N8 1.327 . S
C9 H16 0.930 . S
C10 C5 1.385 . S
C10 C7 1.370 . S
C10 H29 0.930 . S
Tb11 N8 2.600 . S
Tb11 N12 2.660 . S
Tb11 O45 2.362 . S
Tb11 O46 2.421 . S
Tb11 O50 2.546 . S
Tb11 O51 2.610 1_655 S
Tb11 O53 2.320 . S
Tb11 O54 2.552 . S
Tb11 O55 2.413 . S
Tb11 C75 2.833 . S
N12 C4 1.360 . S
N12 Tb11 2.660 . S
N12 C13 1.305 . S
C13 N12 1.305 . S
C13 C15 1.407 . S
C13 H20 0.930 . S
C14 C2 1.410 . S
C14 C15 1.345 . S
C14 H22 0.930 . S
C15 C13 1.407 . S
C15 C14 1.345 . S
C15 H17 0.930 . S
H16 C9 0.930 . S
H17 C15 0.930 . S
H18 C6 0.930 . S
H19 C7 0.931 . S
H20 C13 0.930 . S
H21 C35 0.930 . S
H22 C14 0.930 . S
H23 C41 0.930 . S
H24 C32 0.930 . S
H25 C39 0.931 . S
H26 C3 0.929 . S
H27 C33 0.930 . S
H28 C66 0.930 . S
H29 C10 0.930 . S
H30 C65 0.929 . S
N31 Tb0 2.660 . S
N31 C32 1.305 . S
N31 C36 1.360 . S
C32 H24 0.930 . S
C32 N31 1.305 . S
C32 C35 1.407 . S
C33 H27 0.930 . S
C33 C34 1.410 . S
C33 C35 1.345 . S
C34 C33 1.410 . S
C34 C36 1.417 . S
C34 C66 1.432 . S
C35 H21 0.930 . S
C35 C32 1.407 . S
C35 C33 1.345 . S
C36 N31 1.360 . S
C36 C34 1.417 . S
C36 C40 1.432 . S
H37 C42 0.930 . S
N38 Tb0 2.600 . S
N38 C40 1.359 . S
N38 C41 1.327 . S
C39 H25 0.931 . S
C39 C41 1.392 . S
C39 C42 1.370 . S
C40 C36 1.432 . S
C40 N38 1.359 . S
C40 C43 1.414 . S
C41 H23 0.930 . S
C41 N38 1.327 . S
C41 C39 1.392 . S
C42 H37 0.930 . S
C42 C39 1.370 . S
C42 C43 1.385 . S
C43 C40 1.414 . S
C43 C42 1.385 . S
C43 C65 1.444 . S
O44 Tb0 2.546 . S
O44 C64 1.251 . S
O45 Tb0 2.610 1_655 S
O45 Tb11 2.362 . S
O45 C56 1.283 . S
O46 Tb11 2.421 . S
O46 C63 1.262 1_655 S
O47 Tb0 2.320 . S
O47 C63 1.260 . S
O48 Tb0 2.552 . S
O48 C56 1.243 1_455 S
O49 Tb0 2.413 . S
O49 C64 1.256 . S
O50 Tb11 2.546 . S
O50 C75 1.251 . S
O51 Tb0 2.362 . S
O51 Tb11 2.610 1_455 S
O51 C67 1.283 . S
O52 Tb0 2.421 . S
O52 C74 1.262 1_455 S
O53 Tb11 2.320 . S
O53 C74 1.260 . S
O54 Tb11 2.552 . S
O54 C67 1.243 1_655 S
O55 Tb11 2.413 . S
O55 C75 1.256 . S
C56 O45 1.283 . S
C56 O48 1.243 1_655 S
C57 C59 1.382 . S
C57 C61 1.393 . S
C57 C64 1.500 . S
C58 C59 1.400 . S
C58 C60 1.384 . S
C59 C57 1.382 . S
C59 C58 1.400 . S
C59 H76 0.930 . S
C60 C58 1.384 . S
C60 C62 1.392 . S
C60 H77 0.931 . S
C61 C57 1.393 . S
C61 C62 1.401 . S
C61 H78 0.930 . S
C62 C60 1.392 . S
C62 C61 1.401 . S
C62 H79 0.930 . S
C63 O46 1.262 1_455 S
C63 O47 1.260 . S
C64 Tb0 2.833 . S
C64 O44 1.251 . S
C64 O49 1.256 . S
C64 C57 1.500 . S
C65 H30 0.929 . S
C65 C43 1.444 . S
C65 C66 1.317 . S
C66 H28 0.930 . S
C66 C34 1.432 . S
C66 C65 1.317 . S
C67 O51 1.283 . S
C67 O54 1.243 1_455 S
C68 C69 1.382 . S
C68 C72 1.393 . S
C68 C75 1.500 . S
C69 C68 1.382 . S
C69 C70 1.400 . S
C69 H80 0.930 . S
C70 C69 1.400 . S
C70 C71 1.384 . S
C71 C70 1.384 . S
C71 C73 1.392 . S
C71 H81 0.931 . S
C72 C68 1.393 . S
C72 C73 1.401 . S
C72 H82 0.930 . S
C73 C71 1.392 . S
C73 C72 1.401 . S
C73 H83 0.930 . S
C74 O52 1.262 1_655 S
C74 O53 1.260 . S
C75 Tb11 2.833 . S
C75 O50 1.251 . S
C75 O55 1.256 . S
C75 C68 1.500 . S
H76 C59 0.930 . S
H77 C60 0.931 . S
H78 C61 0.930 . S
H79 C62 0.930 . S
H80 C69 0.930 . S
H81 C71 0.931 . S
H82 C72 0.930 . S
H83 C73 0.930 . S
Tb84 N115 2.660 1_545 S
Tb84 N122 2.600 1_545 S
Tb84 O128 2.546 1_545 S
Tb84 O129 2.610 . S
Tb84 O131 2.320 . S
Tb84 O132 2.552 . S
Tb84 O133 2.413 1_545 S
Tb84 O135 2.362 . S
Tb84 O136 2.421 . S
Tb84 C148 2.833 1_545 S
C85 C88 1.432 1_455 S
C85 C89 1.414 . S
C85 N92 1.359 . S
C86 C88 1.417 . S
C86 C90 1.432 1_655 S
C86 C98 1.410 . S
C87 C89 1.444 . S
C87 C90 1.317 . S
C87 H110 0.929 . S
C88 C85 1.432 1_655 S
C88 C86 1.417 . S
C88 N96 1.360 . S
C89 C85 1.414 . S
C89 C87 1.444 . S
C89 C94 1.385 . S
C90 C86 1.432 1_455 S
C90 C87 1.317 . S
C90 H102 0.930 . S
C91 C93 1.392 . S
C91 C94 1.370 . S
C91 H103 0.931 . S
N92 C85 1.359 . S
N92 C93 1.327 . S
N92 Tb95 2.600 1_455 S
C93 C91 1.392 . S
C93 N92 1.327 . S
C93 H100 0.930 . S
C94 C89 1.385 . S
C94 C91 1.370 . S
C94 H113 0.930 . S
Tb95 N92 2.600 1_655 S
Tb95 N96 2.660 . S
Tb95 O129 2.362 . S
Tb95 O130 2.421 . S
Tb95 O134 2.546 . S
Tb95 O135 2.610 . S
Tb95 O137 2.320 . S
Tb95 O138 2.552 . S
Tb95 O139 2.413 . S
Tb95 C159 2.833 . S
N96 C88 1.360 . S
N96 Tb95 2.660 . S
N96 C97 1.305 . S
C97 N96 1.305 . S
C97 C99 1.407 . S
C97 H104 0.930 . S
C98 C86 1.410 . S
C98 C99 1.345 . S
C98 H106 0.930 . S
C99 C97 1.407 . S
C99 C98 1.345 . S
C99 H101 0.930 . S
H100 C93 0.930 . S
H101 C99 0.930 . S
H102 C90 0.930 . S
H103 C91 0.931 . S
H104 C97 0.930 . S
H105 C119 0.930 . S
H106 C98 0.930 . S
H107 C125 0.930 . S
H108 C116 0.930 . S
H109 C123 0.931 . S
H110 C87 0.929 . S
H111 C117 0.930 . S
H112 C150 0.930 . S
H113 C94 0.930 . S
H114 C149 0.929 . S
N115 Tb84 2.660 1_565 S
N115 C116 1.305 . S
N115 C120 1.360 . S
C116 H108 0.930 . S
C116 N115 1.305 . S
C116 C119 1.407 . S
C117 H111 0.930 . S
C117 C118 1.410 . S
C117 C119 1.345 . S
C118 C117 1.410 . S
C118 C120 1.417 . S
C118 C150 1.432 . S
C119 H105 0.930 . S
C119 C116 1.407 . S
C119 C117 1.345 . S
C120 N115 1.360 . S
C120 C118 1.417 . S
C120 C124 1.432 . S
H121 C126 0.930 . S
N122 Tb84 2.600 1_565 S
N122 C124 1.359 . S
N122 C125 1.327 . S
C123 H109 0.931 . S
C123 C125 1.392 . S
C123 C126 1.370 . S
C124 C120 1.432 . S
C124 N122 1.359 . S
C124 C127 1.414 . S
C125 H107 0.930 . S
C125 N122 1.327 . S
C125 C123 1.392 . S
C126 H121 0.930 . S
C126 C123 1.370 . S
C126 C127 1.385 . S
C127 C124 1.414 . S
C127 C126 1.385 . S
C127 C149 1.444 . S
O128 Tb84 2.546 1_565 S
O128 C148 1.251 . S
O129 Tb84 2.610 . S
O129 Tb95 2.362 . S
O129 C140 1.283 . S
O130 Tb95 2.421 . S
O130 C147 1.262 . S
O131 Tb84 2.320 . S
O131 C147 1.260 . S
O132 Tb84 2.552 . S
O132 C140 1.243 . S
O133 Tb84 2.413 1_565 S
O133 C148 1.256 . S
O134 Tb95 2.546 . S
O134 C159 1.251 . S
O135 Tb84 2.362 . S
O135 Tb95 2.610 . S
O135 C151 1.283 . S
O136 Tb84 2.421 . S
O136 C158 1.262 . S
O137 Tb95 2.320 . S
O137 C158 1.260 . S
O138 Tb95 2.552 . S
O138 C151 1.243 . S
O139 Tb95 2.413 . S
O139 C159 1.256 . S
C140 O129 1.283 . S
C140 O132 1.243 . S
C141 C143 1.382 . S
C141 C145 1.393 . S
C141 C148 1.500 . S
C142 C143 1.400 . S
C142 C144 1.384 . S
C143 C141 1.382 . S
C143 C142 1.400 . S
C143 H160 0.930 . S
C144 C142 1.384 . S
C144 C146 1.392 . S
C144 H161 0.931 . S
C145 C141 1.393 . S
C145 C146 1.401 . S
C145 H162 0.930 . S
C146 C144 1.392 . S
C146 C145 1.401 . S
C146 H163 0.930 . S
C147 O130 1.262 . S
C147 O131 1.260 . S
C148 Tb84 2.833 1_565 S
C148 O128 1.251 . S
C148 O133 1.256 . S
C148 C141 1.500 . S
C149 H114 0.929 . S
C149 C127 1.444 . S
C149 C150 1.317 . S
C150 H112 0.930 . S
C150 C118 1.432 . S
C150 C149 1.317 . S
C151 O135 1.283 . S
C151 O138 1.243 . S
C152 C153 1.382 . S
C152 C156 1.393 1_655 S
C152 C159 1.500 . S
C153 C152 1.382 . S
C153 C154 1.400 . S
C153 H164 0.930 . S
C154 C153 1.400 . S
C154 C155 1.384 . S
C155 C154 1.384 . S
C155 C157 1.392 1_655 S
C155 H165 0.931 . S
C156 C152 1.393 1_455 S
C156 C157 1.401 . S
C156 H166 0.930 . S
C157 C155 1.392 1_455 S
C157 C156 1.401 . S
C157 H167 0.930 . S
C158 O136 1.262 . S
C158 O137 1.260 . S
C159 Tb95 2.833 . S
C159 O134 1.251 . S
C159 O139 1.256 . S
C159 C152 1.500 . S
H160 C143 0.930 . S
H161 C144 0.931 . S
H162 C145 0.930 . S
H163 C146 0.930 . S
H164 C153 0.930 . S
H165 C155 0.931 . S
H166 C156 0.930 . S
H167 C157 0.930 . S
Tb168 N199 2.660 . S
Tb168 N206 2.600 . S
Tb168 O212 2.546 . S
Tb168 O213 2.610 . S
Tb168 O215 2.320 . S
Tb168 O216 2.552 . S
Tb168 O217 2.413 . S
Tb168 O219 2.362 . S
Tb168 O220 2.421 . S
Tb168 C232 2.833 . S
C169 C172 1.432 . S
C169 C173 1.414 . S
C169 N176 1.359 . S
C170 C172 1.417 1_455 S
C170 C174 1.432 . S
C170 C182 1.410 . S
C171 C173 1.444 . S
C171 C174 1.317 1_655 S
C171 H194 0.929 1_545 S
C172 C169 1.432 . S
C172 C170 1.417 1_655 S
C172 N180 1.360 . S
C173 C169 1.414 . S
C173 C171 1.444 . S
C173 C178 1.385 1_545 S
C174 C170 1.432 . S
C174 C171 1.317 1_455 S
C174 H186 0.930 . S
C175 C177 1.392 1_565 S
C175 C178 1.370 . S
C175 H187 0.931 . S
N176 C169 1.359 . S
N176 C177 1.327 . S
N176 Tb179 2.600 . S
C177 C175 1.392 1_545 S
C177 N176 1.327 . S
C177 H184 0.930 . S
C178 C173 1.385 1_565 S
C178 C175 1.370 . S
C178 H197 0.930 . S
Tb179 N176 2.600 . S
Tb179 N180 2.660 . S
Tb179 O213 2.362 . S
Tb179 O214 2.421 . S
Tb179 O218 2.546 . S
Tb179 O219 2.610 . S
Tb179 O221 2.320 . S
Tb179 O222 2.552 . S
Tb179 O223 2.413 . S
Tb179 C243 2.833 . S
N180 C172 1.360 . S
N180 Tb179 2.660 . S
N180 C181 1.305 1_655 S
C181 N180 1.305 1_455 S
C181 C183 1.407 . S
C181 H188 0.930 . S
C182 C170 1.410 . S
C182 C183 1.345 . S
C182 H190 0.930 . S
C183 C181 1.407 . S
C183 C182 1.345 . S
C183 H185 0.930 . S
H184 C177 0.930 . S
H185 C183 0.930 . S
H186 C174 0.930 . S
H187 C175 0.931 . S
H188 C181 0.930 . S
H189 C203 0.930 . S
H190 C182 0.930 . S
H191 C209 0.930 . S
H192 C200 0.930 . S
H193 C207 0.931 . S
H194 C171 0.929 1_565 S
H195 C201 0.930 . S
H196 C234 0.930 . S
H197 C178 0.930 . S
H198 C233 0.929 . S
N199 Tb168 2.660 . S
N199 C200 1.305 . S
N199 C204 1.360 . S
C200 H192 0.930 . S
C200 N199 1.305 . S
C200 C203 1.407 . S
C201 H195 0.930 . S
C201 C202 1.410 . S
C201 C203 1.345 . S
C202 C201 1.410 . S
C202 C204 1.417 . S
C202 C234 1.432 . S
C203 H189 0.930 . S
C203 C200 1.407 . S
C203 C201 1.345 . S
C204 N199 1.360 . S
C204 C202 1.417 . S
C204 C208 1.432 . S
H205 C210 0.930 . S
N206 Tb168 2.600 . S
N206 C208 1.359 . S
N206 C209 1.327 . S
C207 H193 0.931 . S
C207 C209 1.392 . S
C207 C210 1.370 . S
C208 C204 1.432 . S
C208 N206 1.359 . S
C208 C211 1.414 . S
C209 H191 0.930 . S
C209 N206 1.327 . S
C209 C207 1.392 . S
C210 H205 0.930 . S
C210 C207 1.370 . S
C210 C211 1.385 . S
C211 C208 1.414 . S
C211 C210 1.385 . S
C211 C233 1.444 . S
O212 Tb168 2.546 . S
O212 C232 1.251 . S
O213 Tb168 2.610 . S
O213 Tb179 2.362 . S
O213 C224 1.283 . S
O214 Tb179 2.421 . S
O214 C231 1.262 . S
O215 Tb168 2.320 . S
O215 C231 1.260 . S
O216 Tb168 2.552 . S
O216 C224 1.243 . S
O217 Tb168 2.413 . S
O217 C232 1.256 . S
O218 Tb179 2.546 . S
O218 C243 1.251 . S
O219 Tb168 2.362 . S
O219 Tb179 2.610 . S
O219 C235 1.283 . S
O220 Tb168 2.421 . S
O220 C242 1.262 . S
O221 Tb179 2.320 . S
O221 C242 1.260 . S
O222 Tb179 2.552 . S
O222 C235 1.243 . S
O223 Tb179 2.413 . S
O223 C243 1.256 . S
C224 O213 1.283 . S
C224 O216 1.243 . S
C225 C227 1.382 . S
C225 C229 1.393 . S
C225 C232 1.500 . S
C226 C227 1.400 . S
C226 C228 1.384 . S
C227 C225 1.382 . S
C227 C226 1.400 . S
C227 H244 0.930 . S
C228 C226 1.384 . S
C228 C230 1.392 . S
C228 H245 0.931 . S
C229 C225 1.393 . S
C229 C230 1.401 . S
C229 H246 0.930 . S
C230 C228 1.392 . S
C230 C229 1.401 . S
C230 H247 0.930 . S
C231 O214 1.262 . S
C231 O215 1.260 . S
C232 Tb168 2.833 . S
C232 O212 1.251 . S
C232 O217 1.256 . S
C232 C225 1.500 . S
C233 H198 0.929 . S
C233 C211 1.444 . S
C233 C234 1.317 . S
C234 H196 0.930 . S
C234 C202 1.432 . S
C234 C233 1.317 . S
C235 O219 1.283 . S
C235 O222 1.243 . S
C236 C237 1.382 1_655 S
C236 C240 1.393 . S
C236 C243 1.500 . S
C237 C236 1.382 1_455 S
C237 C238 1.400 . S
C237 H248 0.930 . S
C238 C237 1.400 . S
C238 C239 1.384 . S
C239 C238 1.384 . S
C239 C241 1.392 1_455 S
C239 H249 0.931 . S
C240 C236 1.393 . S
C240 C241 1.401 . S
C240 H250 0.930 . S
C241 C239 1.392 1_655 S
C241 C240 1.401 . S
C241 H251 0.930 . S
C242 O220 1.262 . S
C242 O221 1.260 . S
C243 Tb179 2.833 . S
C243 O218 1.251 . S
C243 O223 1.256 . S
C243 C236 1.500 . S
H244 C227 0.930 . S
H245 C228 0.931 . S
H246 C229 0.930 . S
H247 C230 0.930 . S
H248 C237 0.930 . S
H249 C239 0.931 . S
H250 C240 0.930 . S
H251 C241 0.930 . S
H252 C264 0.930 . S
H253 C266 0.930 . S
H254 C267 0.930 . S
H255 C271 0.959 . S
H256 C271 0.959 . S
H257 C271 0.961 . S
H258 C272 0.960 . S
H259 C272 0.961 1_545 S
H260 C272 0.959 . S
H261 C275 0.929 . S
H262 C276 0.931 . S
H263 C278 0.930 . S
C264 H252 0.930 . S
C264 C265 1.399 1_655 S
C264 C269 1.399 . S
C265 C264 1.399 1_455 S
C265 C266 1.376 . S
C266 H253 0.930 . S
C266 C265 1.376 . S
C266 C267 1.388 . S
C267 H254 0.930 . S
C267 C266 1.388 . S
C267 C268 1.390 . S
C268 C267 1.390 . S
C268 C269 1.394 1_455 S
C268 C274 1.465 . S
C269 C264 1.399 . S
C269 C268 1.394 1_655 S
C269 C270 1.516 . S
C270 C269 1.516 . S
C270 C271 1.502 . S
C270 C272 1.561 1_655 S
C270 C273 1.526 . S
C271 H255 0.959 . S
C271 H256 0.959 . S
C271 H257 0.961 . S
C271 C270 1.502 . S
C272 H258 0.960 . S
C272 H259 0.961 1_565 S
C272 H260 0.959 . S
C272 C270 1.561 1_455 S
C273 C270 1.526 . S
C273 C274 1.396 1_655 S
C273 C278 1.390 1_565 S
C274 C268 1.465 . S
C274 C273 1.396 1_455 S
C274 C275 1.399 1_565 S
C275 H261 0.929 . S
C275 C274 1.399 1_545 S
C275 C276 1.385 . S
C276 H262 0.931 . S
C276 C275 1.385 . S
C276 C277 1.389 1_455 S
C277 C276 1.389 1_655 S
C277 C278 1.387 . S
C278 H263 0.930 . S
C278 C273 1.390 1_545 S
C278 C277 1.387 . S
H279 C291 0.930 . S
H280 C293 0.930 . S
H281 C294 0.930 . S
H282 C298 0.959 . S
H283 C298 0.959 . S
H284 C298 0.961 . S
H285 C299 0.960 . S
H286 C299 0.961 . S
H287 C299 0.959 . S
H288 C302 0.929 . S
H289 C303 0.931 . S
H290 C305 0.930 . S
C291 H279 0.930 . S
C291 C292 1.399 . S
C291 C296 1.399 . S
C292 C291 1.399 . S
C292 C293 1.376 . S
C293 H280 0.930 . S
C293 C292 1.376 . S
C293 C294 1.388 . S
C294 H281 0.930 . S
C294 C293 1.388 . S
C294 C295 1.390 . S
C295 C294 1.390 . S
C295 C296 1.394 . S
C295 C301 1.465 . S
C296 C291 1.399 . S
C296 C295 1.394 . S
C296 C297 1.516 . S
C297 C296 1.516 . S
C297 C298 1.502 . S
C297 C299 1.561 . S
C297 C300 1.526 . S
C298 H282 0.959 . S
C298 H283 0.959 . S
C298 H284 0.961 . S
C298 C297 1.502 . S
C299 H285 0.960 . S
C299 H286 0.961 . S
C299 H287 0.959 . S
C299 C297 1.561 . S
C300 C297 1.526 . S
C300 C301 1.396 . S
C300 C305 1.390 . S
C301 C295 1.465 . S
C301 C300 1.396 . S
C301 C302 1.399 . S
C302 H288 0.929 . S
C302 C301 1.399 . S
C302 C303 1.385 . S
C303 H289 0.931 . S
C303 C302 1.385 . S
C303 C304 1.389 . S
C304 C303 1.389 . S
C304 C305 1.387 . S
C305 H290 0.930 . S
C305 C300 1.390 . S
C305 C304 1.387 . S
H306 C318 0.930 . S
H307 C320 0.930 . S
H308 C321 0.930 . S
H309 C325 0.959 . S
H310 C325 0.959 . S
H311 C325 0.961 . S
H312 C326 0.960 . S
H313 C326 0.961 1_545 S
H314 C326 0.959 1_545 S
H315 C329 0.929 1_565 S
H316 C330 0.931 . S
H317 C332 0.930 . S
C318 H306 0.930 . S
C318 C319 1.399 . S
C318 C323 1.399 . S
C319 C318 1.399 . S
C319 C320 1.376 . S
C320 H307 0.930 . S
C320 C319 1.376 . S
C320 C321 1.388 . S
C321 H308 0.930 . S
C321 C320 1.388 . S
C321 C322 1.390 . S
C322 C321 1.390 . S
C322 C323 1.394 . S
C322 C328 1.465 . S
C323 C318 1.399 . S
C323 C322 1.394 . S
C323 C324 1.516 . S
C324 C323 1.516 . S
C324 C325 1.502 . S
C324 C326 1.561 . S
C324 C327 1.526 . S
C325 H309 0.959 . S
C325 H310 0.959 . S
C325 H311 0.961 . S
C325 C324 1.502 . S
C326 H312 0.960 . S
C326 H313 0.961 1_565 S
C326 H314 0.959 1_565 S
C326 C324 1.561 . S
C327 C324 1.526 . S
C327 C328 1.396 . S
C327 C332 1.390 1_565 S
C328 C322 1.465 . S
C328 C327 1.396 . S
C328 C329 1.399 1_565 S
C329 H315 0.929 1_545 S
C329 C328 1.399 1_545 S
C329 C330 1.385 . S
C330 H316 0.931 . S
C330 C329 1.385 . S
C330 C331 1.389 . S
C331 C330 1.389 . S
C331 C332 1.387 . S
C332 H317 0.930 . S
C332 C327 1.390 1_545 S
C332 C331 1.387 . S
H333 C345 0.930 . S
H334 C347 0.930 1_556 S
H335 C348 0.930 . S
H336 C352 0.959 . S
H337 C352 0.959 . S
H338 C352 0.961 . S
H339 C353 0.960 . S
H340 C353 0.961 . S
H341 C353 0.959 . S
H342 C356 0.929 . S
H343 C357 0.931 . S
H344 C359 0.930 . S
C345 H333 0.930 . S
C345 C346 1.399 . S
C345 C350 1.399 1_556 S
C346 C345 1.399 . S
C346 C347 1.376 1_556 S
C347 H334 0.930 1_554 S
C347 C346 1.376 1_554 S
C347 C348 1.388 . S
C348 H335 0.930 . S
C348 C347 1.388 . S
C348 C349 1.390 . S
C349 C348 1.390 . S
C349 C350 1.394 . S
C349 C355 1.465 . S
C350 C345 1.399 1_554 S
C350 C349 1.394 . S
C350 C351 1.516 . S
C351 C350 1.516 . S
C351 C352 1.502 . S
C351 C353 1.561 . S
C351 C354 1.526 . S
C352 H336 0.959 . S
C352 H337 0.959 . S
C352 H338 0.961 . S
C352 C351 1.502 . S
C353 H339 0.960 . S
C353 H340 0.961 . S
C353 H341 0.959 . S
C353 C351 1.561 . S
C354 C351 1.526 . S
C354 C355 1.396 . S
C354 C359 1.390 . S
C355 C349 1.465 . S
C355 C354 1.396 . S
C355 C356 1.399 . S
C356 H342 0.929 . S
C356 C355 1.399 . S
C356 C357 1.385 . S
C357 H343 0.931 . S
C357 C356 1.385 . S
C357 C358 1.389 . S
C358 C357 1.389 . S
C358 C359 1.387 . S
C359 H344 0.930 . S
C359 C354 1.390 . S
C359 C358 1.387 . S
H360 C372 0.930 . S
H361 C374 0.930 . S
H362 C375 0.930 . S
H363 C379 0.959 . S
H364 C379 0.959 . S
H365 C379 0.961 . S
H366 C380 0.960 . S
H367 C380 0.961 . S
H368 C380 0.959 . S
H369 C383 0.929 . S
H370 C384 0.931 . S
H371 C386 0.930 . S
C372 H360 0.930 . S
C372 C373 1.399 . S
C372 C377 1.399 . S
C373 C372 1.399 . S
C373 C374 1.376 . S
C374 H361 0.930 . S
C374 C373 1.376 . S
C374 C375 1.388 . S
C375 H362 0.930 . S
C375 C374 1.388 . S
C375 C376 1.390 . S
C376 C375 1.390 . S
C376 C377 1.394 . S
C376 C382 1.465 . S
C377 C372 1.399 . S
C377 C376 1.394 . S
C377 C378 1.516 . S
C378 C377 1.516 . S
C378 C379 1.502 . S
C378 C380 1.561 1_655 S
C378 C381 1.526 . S
C379 H363 0.959 . S
C379 H364 0.959 . S
C379 H365 0.961 . S
C379 C378 1.502 . S
C380 H366 0.960 . S
C380 H367 0.961 . S
C380 H368 0.959 . S
C380 C378 1.561 1_455 S
C381 C378 1.526 . S
C381 C382 1.396 . S
C381 C386 1.390 . S
C382 C376 1.465 . S
C382 C381 1.396 . S
C382 C383 1.399 . S
C383 H369 0.929 . S
C383 C382 1.399 . S
C383 C384 1.385 . S
C384 H370 0.931 . S
C384 C383 1.385 . S
C384 C385 1.389 . S
C385 C384 1.389 . S
C385 C386 1.387 . S
C386 H371 0.930 . S
C386 C381 1.390 . S
C386 C385 1.387 . S
H387 C399 0.930 . S
H388 C401 0.930 . S
H389 C402 0.930 . S
H390 C406 0.959 . S
H391 C406 0.959 . S
H392 C406 0.961 . S
H393 C407 0.960 . S
H394 C407 0.961 . S
H395 C407 0.959 . S
H396 C410 0.929 . S
H397 C411 0.931 . S
H398 C413 0.930 . S
C399 H387 0.930 . S
C399 C400 1.399 . S
C399 C404 1.399 . S
C400 C399 1.399 . S
C400 C401 1.376 . S
C401 H388 0.930 . S
C401 C400 1.376 . S
C401 C402 1.388 . S
C402 H389 0.930 . S
C402 C401 1.388 . S
C402 C403 1.390 . S
C403 C402 1.390 . S
C403 C404 1.394 . S
C403 C409 1.465 . S
C404 C399 1.399 . S
C404 C403 1.394 . S
C404 C405 1.516 . S
C405 C404 1.516 . S
C405 C406 1.502 . S
C405 C407 1.561 . S
C405 C408 1.526 . S
C406 H390 0.959 . S
C406 H391 0.959 . S
C406 H392 0.961 . S
C406 C405 1.502 . S
C407 H393 0.960 . S
C407 H394 0.961 . S
C407 H395 0.959 . S
C407 C405 1.561 . S
C408 C405 1.526 . S
C408 C409 1.396 . S
C408 C413 1.390 . S
C409 C403 1.465 . S
C409 C408 1.396 . S
C409 C410 1.399 . S
C410 H396 0.929 . S
C410 C409 1.399 . S
C410 C411 1.385 . S
C411 H397 0.931 . S
C411 C410 1.385 . S
C411 C412 1.389 . S
C412 C411 1.389 . S
C412 C413 1.387 . S
C413 H398 0.930 . S
C413 C408 1.390 . S
C413 C412 1.387 . S
H414 C426 0.930 . S
H415 C428 0.930 . S
H416 C429 0.930 . S
H417 C433 0.959 . S
H418 C433 0.959 . S
H419 C433 0.961 1_455 S
H420 C434 0.960 . S
H421 C434 0.961 . S
H422 C434 0.959 . S
H423 C437 0.929 . S
H424 C438 0.931 . S
H425 C440 0.930 . S
C426 H414 0.930 . S
C426 C427 1.399 . S
C426 C431 1.399 . S
C427 C426 1.399 . S
C427 C428 1.376 . S
C428 H415 0.930 . S
C428 C427 1.376 . S
C428 C429 1.388 . S
C429 H416 0.930 . S
C429 C428 1.388 . S
C429 C430 1.390 . S
C430 C429 1.390 . S
C430 C431 1.394 . S
C430 C436 1.465 . S
C431 C426 1.399 . S
C431 C430 1.394 . S
C431 C432 1.516 . S
C432 C431 1.516 . S
C432 C433 1.502 . S
C432 C434 1.561 . S
C432 C435 1.526 . S
C433 H417 0.959 . S
C433 H418 0.959 . S
C433 H419 0.961 1_655 S
C433 C432 1.502 . S
C434 H420 0.960 . S
C434 H421 0.961 . S
C434 H422 0.959 . S
C434 C432 1.561 . S
C435 C432 1.526 . S
C435 C436 1.396 . S
C435 C440 1.390 1_556 S
C436 C430 1.465 . S
C436 C435 1.396 . S
C436 C437 1.399 . S
C437 H423 0.929 . S
C437 C436 1.399 . S
C437 C438 1.385 1_556 S
C438 H424 0.931 . S
C438 C437 1.385 1_554 S
C438 C439 1.389 . S
C439 C438 1.389 . S
C439 C440 1.387 . S
C440 H425 0.930 . S
C440 C435 1.390 1_554 S
C440 C439 1.387 . S
H441 C453 0.930 . S
H442 C455 0.930 . S
H443 C456 0.930 . S
H444 C460 0.959 1_565 S
H445 C460 0.959 . S
H446 C460 0.961 . S
H447 C461 0.960 . S
H448 C461 0.961 . S
H449 C461 0.959 . S
H450 C464 0.929 . S
H451 C465 0.931 . S
H452 C467 0.930 . S
C453 H441 0.930 . S
C453 C454 1.399 . S
C453 C458 1.399 . S
C454 C453 1.399 . S
C454 C455 1.376 . S
C455 H442 0.930 . S
C455 C454 1.376 . S
C455 C456 1.388 . S
C456 H443 0.930 . S
C456 C455 1.388 . S
C456 C457 1.390 . S
C457 C456 1.390 . S
C457 C458 1.394 . S
C457 C463 1.465 . S
C458 C453 1.399 . S
C458 C457 1.394 . S
C458 C459 1.516 . S
C459 C458 1.516 . S
C459 C460 1.502 1_565 S
C459 C461 1.561 1_565 S
C459 C462 1.526 . S
C460 H444 0.959 1_545 S
C460 H445 0.959 . S
C460 H446 0.961 . S
C460 C459 1.502 1_545 S
C461 H447 0.960 . S
C461 H448 0.961 . S
C461 H449 0.959 . S
C461 C459 1.561 1_545 S
C462 C459 1.526 . S
C462 C463 1.396 . S
C462 C467 1.390 1_565 S
C463 C457 1.465 . S
C463 C462 1.396 . S
C463 C464 1.399 . S
C464 H450 0.929 . S
C464 C463 1.399 . S
C464 C465 1.385 . S
C465 H451 0.931 . S
C465 C464 1.385 . S
C465 C466 1.389 1_565 S
C466 C465 1.389 1_545 S
C466 C467 1.387 . S
C467 H452 0.930 . S
C467 C462 1.390 1_545 S
C467 C466 1.387 . S
H468 C480 0.930 . S
H469 C482 0.930 . S
H470 C483 0.930 1_655 S
H471 C487 0.959 . S
H472 C487 0.959 . S
H473 C487 0.961 . S
H474 C488 0.960 . S
H475 C488 0.961 . S
H476 C488 0.959 . S
H477 C491 0.929 . S
H478 C492 0.931 . S
H479 C494 0.930 . S
C480 H468 0.930 . S
C480 C481 1.399 . S
C480 C485 1.399 . S
C481 C480 1.399 . S
C481 C482 1.376 . S
C482 H469 0.930 . S
C482 C481 1.376 . S
C482 C483 1.388 . S
C483 H470 0.930 1_455 S
C483 C482 1.388 . S
C483 C484 1.390 1_455 S
C484 C483 1.390 1_655 S
C484 C485 1.394 1_655 S
C484 C490 1.465 . S
C485 C480 1.399 . S
C485 C484 1.394 1_455 S
C485 C486 1.516 1_455 S
C486 C485 1.516 1_655 S
C486 C487 1.502 1_655 S
C486 C488 1.561 . S
C486 C489 1.526 . S
C487 H471 0.959 . S
C487 H472 0.959 . S
C487 H473 0.961 . S
C487 C486 1.502 1_455 S
C488 H474 0.960 . S
C488 H475 0.961 . S
C488 H476 0.959 . S
C488 C486 1.561 . S
C489 C486 1.526 . S
C489 C490 1.396 . S
C489 C494 1.390 . S
C490 C484 1.465 . S
C490 C489 1.396 . S
C490 C491 1.399 . S
C491 H477 0.929 . S
C491 C490 1.399 . S
C491 C492 1.385 . S
C492 H478 0.931 . S
C492 C491 1.385 . S
C492 C493 1.389 . S
C493 C492 1.389 . S
C493 C494 1.387 . S
C494 H479 0.930 . S
C494 C489 1.390 . S
C494 C493 1.387 . S
C265 C63 1.400 . S
C277 C74 1.484 . S
C292 C158 1.424 . S
C304 C147 1.467 1_455 S
C319 C242 1.403 1_455 S
C331 C231 1.482 . S
C346 C226 1.731 . S
C358 C67 1.934 . S
C373 C154 1.055 . S
C385 C56 1.236 . S
C400 C235 1.920 . S
C412 C142 1.808 . S
C427 C224 1.182 . S
C439 C70 1.090 . S
C454 C58 1.771 . S
C466 C151 1.938 . S
C481 C238 1.110 . S
C493 C140 1.274 . S
