# Generated by pormake.
# Topology wna, (6)-cn, num edge types: 1
# Building blocks:
#     Node 0, Type 0, BuildingBlock: CIFDUS_clean_sbu_1, # of connection points: 6
#     Node 1, Type 0, BuildingBlock: CIFDUS_clean_sbu_1, # of connection points: 6
#     Node 2, Type 0, BuildingBlock: CIFDUS_clean_sbu_1, # of connection points: 6
#     Node 3, Type 0, BuildingBlock: CIFDUS_clean_sbu_1, # of connection points: 6
#     Node 4, Type 0, BuildingBlock: CIFDUS_clean_sbu_1, # of connection points: 6
#     Node 5, Type 0, BuildingBlock: CIFDUS_clean_sbu_1, # of connection points: 6
#     Node 6, Type 0, BuildingBlock: CIFDUS_clean_sbu_1, # of connection points: 6
#     Node 7, Type 0, BuildingBlock: CIFDUS_clean_sbu_1, # of connection points: 6
#     Node 8, Type 0, BuildingBlock: CIFDUS_clean_sbu_1, # of connection points: 6
#     Node 9, Type 0, BuildingBlock: CIFDUS_clean_sbu_1, # of connection points: 6
#     Node 10, Type 0, BuildingBlock: CIFDUS_clean_sbu_1, # of connection points: 6
#     Node 11, Type 0, BuildingBlock: CIFDUS_clean_sbu_1, # of connection points: 6
#     Node 12, Type 0, BuildingBlock: CIFDUS_clean_sbu_1, # of connection points: 6
#     Node 13, Type 0, BuildingBlock: CIFDUS_clean_sbu_1, # of connection points: 6
#     Node 14, Type 0, BuildingBlock: CIFDUS_clean_sbu_1, # of connection points: 6
#     Node 15, Type 0, BuildingBlock: CIFDUS_clean_sbu_1, # of connection points: 6
#     Node 16, Type 0, BuildingBlock: CIFDUS_clean_sbu_1, # of connection points: 6
#     Node 17, Type 0, BuildingBlock: CIFDUS_clean_sbu_1, # of connection points: 6
#     Node 18, Type 0, BuildingBlock: CIFDUS_clean_sbu_1, # of connection points: 6
#     Node 19, Type 0, BuildingBlock: CIFDUS_clean_sbu_1, # of connection points: 6
#     Node 20, Type 0, BuildingBlock: CIFDUS_clean_sbu_1, # of connection points: 6
#     Node 21, Type 0, BuildingBlock: CIFDUS_clean_sbu_1, # of connection points: 6
#     Node 22, Type 0, BuildingBlock: CIFDUS_clean_sbu_1, # of connection points: 6
#     Node 23, Type 0, BuildingBlock: CIFDUS_clean_sbu_1, # of connection points: 6
#     Node 24, Type 0, BuildingBlock: CIFDUS_clean_sbu_1, # of connection points: 6
#     Node 25, Type 0, BuildingBlock: CIFDUS_clean_sbu_1, # of connection points: 6
#     Node 26, Type 0, BuildingBlock: CIFDUS_clean_sbu_1, # of connection points: 6
#     Node 27, Type 0, BuildingBlock: CIFDUS_clean_sbu_1, # of connection points: 6
#     Node 28, Type 0, BuildingBlock: CIFDUS_clean_sbu_1, # of connection points: 6
#     Node 29, Type 0, BuildingBlock: CIFDUS_clean_sbu_1, # of connection points: 6
#     Node 30, Type 0, BuildingBlock: CIFDUS_clean_sbu_1, # of connection points: 6
#     Node 31, Type 0, BuildingBlock: CIFDUS_clean_sbu_1, # of connection points: 6
#     Node 32, Type 0, BuildingBlock: CIFDUS_clean_sbu_1, # of connection points: 6
#     Node 33, Type 0, BuildingBlock: CIFDUS_clean_sbu_1, # of connection points: 6
#     Node 34, Type 0, BuildingBlock: CIFDUS_clean_sbu_1, # of connection points: 6
#     Node 35, Type 0, BuildingBlock: CIFDUS_clean_sbu_1, # of connection points: 6
#     Edge 36, Type (0, 0), BuildingBlock: AJUNOK_clean_linker_0, # of connection points: 2
#     Edge 37, Type (0, 0), BuildingBlock: AJUNOK_clean_linker_0, # of connection points: 2
#     Edge 38, Type (0, 0), BuildingBlock: AJUNOK_clean_linker_0, # of connection points: 2
#     Edge 39, Type (0, 0), BuildingBlock: AJUNOK_clean_linker_0, # of connection points: 2
#     Edge 40, Type (0, 0), BuildingBlock: AJUNOK_clean_linker_0, # of connection points: 2
#     Edge 41, Type (0, 0), BuildingBlock: AJUNOK_clean_linker_0, # of connection points: 2
#     Edge 42, Type (0, 0), BuildingBlock: AJUNOK_clean_linker_0, # of connection points: 2
#     Edge 43, Type (0, 0), BuildingBlock: AJUNOK_clean_linker_0, # of connection points: 2
#     Edge 44, Type (0, 0), BuildingBlock: AJUNOK_clean_linker_0, # of connection points: 2
#     Edge 45, Type (0, 0), BuildingBlock: AJUNOK_clean_linker_0, # of connection points: 2
#     Edge 46, Type (0, 0), BuildingBlock: AJUNOK_clean_linker_0, # of connection points: 2
#     Edge 47, Type (0, 0), BuildingBlock: AJUNOK_clean_linker_0, # of connection points: 2
#     Edge 48, Type (0, 0), BuildingBlock: AJUNOK_clean_linker_0, # of connection points: 2
#     Edge 49, Type (0, 0), BuildingBlock: AJUNOK_clean_linker_0, # of connection points: 2
#     Edge 50, Type (0, 0), BuildingBlock: AJUNOK_clean_linker_0, # of connection points: 2
#     Edge 51, Type (0, 0), BuildingBlock: AJUNOK_clean_linker_0, # of connection points: 2
#     Edge 52, Type (0, 0), BuildingBlock: AJUNOK_clean_linker_0, # of connection points: 2
#     Edge 53, Type (0, 0), BuildingBlock: AJUNOK_clean_linker_0, # of connection points: 2
#     Edge 54, Type (0, 0), BuildingBlock: AJUNOK_clean_linker_0, # of connection points: 2
#     Edge 55, Type (0, 0), BuildingBlock: AJUNOK_clean_linker_0, # of connection points: 2
#     Edge 56, Type (0, 0), BuildingBlock: AJUNOK_clean_linker_0, # of connection points: 2
#     Edge 57, Type (0, 0), BuildingBlock: AJUNOK_clean_linker_0, # of connection points: 2
#     Edge 58, Type (0, 0), BuildingBlock: AJUNOK_clean_linker_0, # of connection points: 2
#     Edge 59, Type (0, 0), BuildingBlock: AJUNOK_clean_linker_0, # of connection points: 2
#     Edge 60, Type (0, 0), BuildingBlock: AJUNOK_clean_linker_0, # of connection points: 2
#     Edge 61, Type (0, 0), BuildingBlock: AJUNOK_clean_linker_0, # of connection points: 2
#     Edge 62, Type (0, 0), BuildingBlock: AJUNOK_clean_linker_0, # of connection points: 2
#     Edge 63, Type (0, 0), BuildingBlock: AJUNOK_clean_linker_0, # of connection points: 2
#     Edge 64, Type (0, 0), BuildingBlock: AJUNOK_clean_linker_0, # of connection points: 2
#     Edge 65, Type (0, 0), BuildingBlock: AJUNOK_clean_linker_0, # of connection points: 2
#     Edge 66, Type (0, 0), BuildingBlock: AJUNOK_clean_linker_0, # of connection points: 2
#     Edge 67, Type (0, 0), BuildingBlock: AJUNOK_clean_linker_0, # of connection points: 2
#     Edge 68, Type (0, 0), BuildingBlock: AJUNOK_clean_linker_0, # of connection points: 2
#     Edge 69, Type (0, 0), BuildingBlock: AJUNOK_clean_linker_0, # of connection points: 2
#     Edge 70, Type (0, 0), BuildingBlock: AJUNOK_clean_linker_0, # of connection points: 2
#     Edge 71, Type (0, 0), BuildingBlock: AJUNOK_clean_linker_0, # of connection points: 2
#     Edge 72, Type (0, 0), BuildingBlock: AJUNOK_clean_linker_0, # of connection points: 2
#     Edge 73, Type (0, 0), BuildingBlock: AJUNOK_clean_linker_0, # of connection points: 2
#     Edge 74, Type (0, 0), BuildingBlock: AJUNOK_clean_linker_0, # of connection points: 2
#     Edge 75, Type (0, 0), BuildingBlock: AJUNOK_clean_linker_0, # of connection points: 2
#     Edge 76, Type (0, 0), BuildingBlock: AJUNOK_clean_linker_0, # of connection points: 2
#     Edge 77, Type (0, 0), BuildingBlock: AJUNOK_clean_linker_0, # of connection points: 2
#     Edge 78, Type (0, 0), BuildingBlock: AJUNOK_clean_linker_0, # of connection points: 2
#     Edge 79, Type (0, 0), BuildingBlock: AJUNOK_clean_linker_0, # of connection points: 2
#     Edge 80, Type (0, 0), BuildingBlock: AJUNOK_clean_linker_0, # of connection points: 2
#     Edge 81, Type (0, 0), BuildingBlock: AJUNOK_clean_linker_0, # of connection points: 2
#     Edge 82, Type (0, 0), BuildingBlock: AJUNOK_clean_linker_0, # of connection points: 2
#     Edge 83, Type (0, 0), BuildingBlock: AJUNOK_clean_linker_0, # of connection points: 2
#     Edge 84, Type (0, 0), BuildingBlock: AJUNOK_clean_linker_0, # of connection points: 2
#     Edge 85, Type (0, 0), BuildingBlock: AJUNOK_clean_linker_0, # of connection points: 2
#     Edge 86, Type (0, 0), BuildingBlock: AJUNOK_clean_linker_0, # of connection points: 2
#     Edge 87, Type (0, 0), BuildingBlock: AJUNOK_clean_linker_0, # of connection points: 2
#     Edge 88, Type (0, 0), BuildingBlock: AJUNOK_clean_linker_0, # of connection points: 2
#     Edge 89, Type (0, 0), BuildingBlock: AJUNOK_clean_linker_0, # of connection points: 2
#     Edge 90, Type (0, 0), BuildingBlock: AJUNOK_clean_linker_0, # of connection points: 2
#     Edge 91, Type (0, 0), BuildingBlock: AJUNOK_clean_linker_0, # of connection points: 2
#     Edge 92, Type (0, 0), BuildingBlock: AJUNOK_clean_linker_0, # of connection points: 2
#     Edge 93, Type (0, 0), BuildingBlock: AJUNOK_clean_linker_0, # of connection points: 2
#     Edge 94, Type (0, 0), BuildingBlock: AJUNOK_clean_linker_0, # of connection points: 2
#     Edge 95, Type (0, 0), BuildingBlock: AJUNOK_clean_linker_0, # of connection points: 2
#     Edge 96, Type (0, 0), BuildingBlock: AJUNOK_clean_linker_0, # of connection points: 2
#     Edge 97, Type (0, 0), BuildingBlock: AJUNOK_clean_linker_0, # of connection points: 2
#     Edge 98, Type (0, 0), BuildingBlock: AJUNOK_clean_linker_0, # of connection points: 2
#     Edge 99, Type (0, 0), BuildingBlock: AJUNOK_clean_linker_0, # of connection points: 2
#     Edge 100, Type (0, 0), BuildingBlock: AJUNOK_clean_linker_0, # of connection points: 2
#     Edge 101, Type (0, 0), BuildingBlock: AJUNOK_clean_linker_0, # of connection points: 2
#     Edge 102, Type (0, 0), BuildingBlock: AJUNOK_clean_linker_0, # of connection points: 2
#     Edge 103, Type (0, 0), BuildingBlock: AJUNOK_clean_linker_0, # of connection points: 2
#     Edge 104, Type (0, 0), BuildingBlock: AJUNOK_clean_linker_0, # of connection points: 2
#     Edge 105, Type (0, 0), BuildingBlock: AJUNOK_clean_linker_0, # of connection points: 2
#     Edge 106, Type (0, 0), BuildingBlock: AJUNOK_clean_linker_0, # of connection points: 2
#     Edge 107, Type (0, 0), BuildingBlock: AJUNOK_clean_linker_0, # of connection points: 2
#     Edge 108, Type (0, 0), BuildingBlock: AJUNOK_clean_linker_0, # of connection points: 2
#     Edge 109, Type (0, 0), BuildingBlock: AJUNOK_clean_linker_0, # of connection points: 2
#     Edge 110, Type (0, 0), BuildingBlock: AJUNOK_clean_linker_0, # of connection points: 2
#     Edge 111, Type (0, 0), BuildingBlock: AJUNOK_clean_linker_0, # of connection points: 2
#     Edge 112, Type (0, 0), BuildingBlock: AJUNOK_clean_linker_0, # of connection points: 2
#     Edge 113, Type (0, 0), BuildingBlock: AJUNOK_clean_linker_0, # of connection points: 2
#     Edge 114, Type (0, 0), BuildingBlock: AJUNOK_clean_linker_0, # of connection points: 2
#     Edge 115, Type (0, 0), BuildingBlock: AJUNOK_clean_linker_0, # of connection points: 2
#     Edge 116, Type (0, 0), BuildingBlock: AJUNOK_clean_linker_0, # of connection points: 2
#     Edge 117, Type (0, 0), BuildingBlock: AJUNOK_clean_linker_0, # of connection points: 2
#     Edge 118, Type (0, 0), BuildingBlock: AJUNOK_clean_linker_0, # of connection points: 2
#     Edge 119, Type (0, 0), BuildingBlock: AJUNOK_clean_linker_0, # of connection points: 2
#     Edge 120, Type (0, 0), BuildingBlock: AJUNOK_clean_linker_0, # of connection points: 2
#     Edge 121, Type (0, 0), BuildingBlock: AJUNOK_clean_linker_0, # of connection points: 2
#     Edge 122, Type (0, 0), BuildingBlock: AJUNOK_clean_linker_0, # of connection points: 2
#     Edge 123, Type (0, 0), BuildingBlock: AJUNOK_clean_linker_0, # of connection points: 2
#     Edge 124, Type (0, 0), BuildingBlock: AJUNOK_clean_linker_0, # of connection points: 2
#     Edge 125, Type (0, 0), BuildingBlock: AJUNOK_clean_linker_0, # of connection points: 2
#     Edge 126, Type (0, 0), BuildingBlock: AJUNOK_clean_linker_0, # of connection points: 2
#     Edge 127, Type (0, 0), BuildingBlock: AJUNOK_clean_linker_0, # of connection points: 2
#     Edge 128, Type (0, 0), BuildingBlock: AJUNOK_clean_linker_0, # of connection points: 2
#     Edge 129, Type (0, 0), BuildingBlock: AJUNOK_clean_linker_0, # of connection points: 2
#     Edge 130, Type (0, 0), BuildingBlock: AJUNOK_clean_linker_0, # of connection points: 2
#     Edge 131, Type (0, 0), BuildingBlock: AJUNOK_clean_linker_0, # of connection points: 2
#     Edge 132, Type (0, 0), BuildingBlock: AJUNOK_clean_linker_0, # of connection points: 2
#     Edge 133, Type (0, 0), BuildingBlock: AJUNOK_clean_linker_0, # of connection points: 2
#     Edge 134, Type (0, 0), BuildingBlock: AJUNOK_clean_linker_0, # of connection points: 2
#     Edge 135, Type (0, 0), BuildingBlock: AJUNOK_clean_linker_0, # of connection points: 2
#     Edge 136, Type (0, 0), BuildingBlock: AJUNOK_clean_linker_0, # of connection points: 2
#     Edge 137, Type (0, 0), BuildingBlock: AJUNOK_clean_linker_0, # of connection points: 2
#     Edge 138, Type (0, 0), BuildingBlock: AJUNOK_clean_linker_0, # of connection points: 2
#     Edge 139, Type (0, 0), BuildingBlock: AJUNOK_clean_linker_0, # of connection points: 2
#     Edge 140, Type (0, 0), BuildingBlock: AJUNOK_clean_linker_0, # of connection points: 2
#     Edge 141, Type (0, 0), BuildingBlock: AJUNOK_clean_linker_0, # of connection points: 2
#     Edge 142, Type (0, 0), BuildingBlock: AJUNOK_clean_linker_0, # of connection points: 2
#     Edge 143, Type (0, 0), BuildingBlock: AJUNOK_clean_linker_0, # of connection points: 2
# Relax obj value: 0.247
# Max RMSD: 0.221
# Mean RMSD: 0.221
data_MOF--net-wna--node1-CIFDUS_clean_sbu_1--edge1-AJUNOK_clean_linker_0
_symmetry_space_group_name_H-M    P1
_symmetry_Int_Tables_number       1
_symmetry_cell_setting            triclinic
loop_
_symmetry_equiv_pos_as_xyz
'x, y, z'
_cell_length_a     30.4347
_cell_length_b     30.423232
_cell_length_c     64.534778
_cell_angle_alpha  89.970075
_cell_angle_beta   89.983765
_cell_angle_gamma 120.03317
loop_
_atom_site_label
_atom_site_type_symbol
_atom_site_fract_x
_atom_site_fract_y
_atom_site_fract_z
_atom_type_partial_charge
O0 O 0.11382 0.18572 0.18496 0.0
Mn1 Mn 0.10062 0.24597 0.18844 0.0
O2 O 0.15806 0.18676 0.21319 0.0
Mn3 Mn 0.16784 0.24747 0.22477 0.0
O4 O 0.08607 0.30541 0.19233 0.0
O5 O 0.03321 0.2042 0.17351 0.0
Mn6 Mn 0.03867 0.24238 0.15195 0.0
O7 O 0.1421 0.28116 0.16005 0.0
O8 O 0.0531 0.30601 0.16132 0.0
O9 O 0.06021 0.21519 0.21699 0.0
O10 O 0.11791 0.23987 0.24256 0.0
O11 O 0.97471 0.1879 0.15012 0.0
O12 O 0.08667 0.24342 0.13471 0.0
C13 C 0.21337 0.31581 0.20708 0.0
C14 C 0.13465 0.16651 0.1963 0.0
C15 C 0.06881 0.32482 0.17932 0.0
C16 C 0.98873 0.17198 0.16604 0.0
C17 C 0.13177 0.2723 0.14045 0.0
C18 C 0.07228 0.21986 0.23648 0.0
O19 O 0.16598 0.28416 0.20393 0.0
O20 O 0.23059 0.30577 0.22368 0.0
O21 O 0.81679 0.93189 0.18336 0.0
Mn22 Mn 0.75867 0.85753 0.18882 0.0
O23 O 0.82314 0.97088 0.213 0.0
Mn24 Mn 0.75836 0.92325 0.22157 0.0
O25 O 0.7008 0.78271 0.1935 0.0
O26 O 0.80619 0.83483 0.17606 0.0
Mn27 Mn 0.76895 0.79623 0.15559 0.0
O28 O 0.72401 0.85799 0.15969 0.0
O29 O 0.70871 0.7424 0.16593 0.0
O30 O 0.78864 0.85176 0.21812 0.0
O31 O 0.75748 0.88188 0.24196 0.0
O32 O 0.82402 0.78938 0.15427 0.0
O33 O 0.76867 0.84223 0.13725 0.0
C34 C 0.69636 0.91213 0.20327 0.0
C35 C 0.83988 0.97065 0.19515 0.0
C36 C 0.68597 0.7428 0.18244 0.0
C37 C 0.83922 0.82301 0.1689 0.0
C38 C 0.73598 0.85503 0.14073 0.0
C39 C 0.77888 0.85667 0.23725 0.0
O40 O 0.71271 0.8798 0.20308 0.0
O41 O 0.71623 0.94729 0.21729 0.0
O42 O 0.07921 0.89454 0.18286 0.0
Mn43 Mn 0.1515 0.90525 0.1879 0.0
O44 O 0.04074 0.86564 0.21279 0.0
Mn45 Mn 0.08462 0.84354 0.2208 0.0
O46 O 0.22459 0.91628 0.19198 0.0
O47 O 0.17688 0.97464 0.17405 0.0
Mn48 Mn 0.22356 0.98065 0.15614 0.0
O49 O 0.14583 0.86891 0.15892 0.0
O50 O 0.27545 0.98029 0.17078 0.0
O51 O 0.16139 0.9419 0.2173 0.0
O52 O 0.12599 0.88173 0.24159 0.0
O53 O 0.22185 0.0391 0.15331 0.0
O54 O 0.19274 0.931 0.13622 0.0
C55 C 0.09054 0.78869 0.20283 0.0
C56 C 0.04171 0.8826 0.19493 0.0
C57 C 0.26857 0.94833 0.18492 0.0
C58 C 0.18675 0.01927 0.16735 0.0
C59 C 0.16266 0.88452 0.14039 0.0
C60 C 0.15417 0.92786 0.23657 0.0
O61 O 0.12585 0.83651 0.20248 0.0
O62 O 0.05491 0.7767 0.21642 0.0
O63 O 0.18494 0.11133 0.35867 0.0
Mn64 Mn 0.24351 0.09615 0.35341 0.0
O65 O 0.17264 0.1326 0.32754 0.0
Mn66 Mn 0.23957 0.15673 0.3197 0.0
O67 O 0.3023 0.08012 0.34918 0.0
O68 O 0.19985 0.0294 0.36818 0.0
Mn69 Mn 0.23615 0.02032 0.38708 0.0
O70 O 0.27762 0.13354 0.38191 0.0
O71 O 0.28786 0.01868 0.37235 0.0
O72 O 0.21312 0.05792 0.32426 0.0
O73 O 0.24535 0.11818 0.29986 0.0
O74 O 0.17218 0.96382 0.38854 0.0
O75 O 0.2568 0.07275 0.406 0.0
C76 C 0.29951 0.2113 0.3381 0.0
C77 C 0.15788 0.11946 0.3459 0.0
C78 C 0.31266 0.04773 0.35724 0.0
C79 C 0.16205 0.98581 0.37365 0.0
C80 C 0.27732 0.11931 0.40085 0.0
C81 C 0.225 0.07194 0.30504 0.0
O82 O 0.28719 0.16356 0.33828 0.0
O83 O 0.27666 0.22363 0.32429 0.0
O84 O 0.88823 0.07104 0.35614 0.0
Mn85 Mn 0.90382 0.14623 0.35381 0.0
O86 O 0.84324 0.03433 0.32704 0.0
Mn87 Mn 0.8356 0.08798 0.31743 0.0
O88 O 0.91812 0.2207 0.34988 0.0
O89 O 0.97273 0.17046 0.36792 0.0
Mn90 Mn 0.97593 0.214 0.38691 0.0
O91 O 0.86573 0.14025 0.38271 0.0
O92 O 0.97806 0.26817 0.37316 0.0
O93 O 0.94249 0.15541 0.32497 0.0
O94 O 0.88454 0.13371 0.29999 0.0
O95 O 0.03445 0.21359 0.39031 0.0
O96 O 0.92607 0.182 0.40648 0.0
C97 C 0.78864 0.10617 0.33558 0.0
C98 C 0.86491 0.03279 0.34381 0.0
C99 C 0.94985 0.26369 0.35784 0.0
C100 C 0.01771 0.1822 0.37486 0.0
C101 C 0.87978 0.15465 0.40164 0.0
C102 C 0.93034 0.15501 0.30573 0.0
O103 O 0.83556 0.12063 0.33998 0.0
O104 O 0.7731 0.08257 0.31807 0.0
O105 O 0.92747 0.81494 0.3569 0.0
Mn106 Mn 0.8524 0.75532 0.35296 0.0
O107 O 0.96023 0.81782 0.32583 0.0
Mn108 Mn 0.91238 0.75291 0.31761 0.0
O109 O 0.77802 0.69559 0.34911 0.0
O110 O 0.82841 0.79968 0.36722 0.0
Mn111 Mn 0.78527 0.76131 0.38662 0.0
O112 O 0.85642 0.72165 0.38156 0.0
O113 O 0.73162 0.7061 0.37366 0.0
O114 O 0.84371 0.78559 0.32419 0.0
O115 O 0.86663 0.75096 0.29899 0.0
O116 O 0.78621 0.82138 0.38855 0.0
O117 O 0.8198 0.74565 0.40577 0.0
C118 C 0.90707 0.69439 0.33659 0.0
C119 C 0.96408 0.8359 0.34382 0.0
C120 C 0.73577 0.68222 0.35825 0.0
C121 C 0.81786 0.83432 0.37325 0.0
C122 C 0.84403 0.7235 0.40061 0.0
C123 C 0.84423 0.77447 0.30482 0.0
O124 O 0.87464 0.7105 0.33783 0.0
O125 O 0.9371 0.71064 0.32065 0.0
O126 O 0.89096 0.81467 0.85224 0.0
Mn127 Mn 0.90607 0.75503 0.85035 0.0
O128 O 0.84108 0.80498 0.82475 0.0
Mn129 Mn 0.83272 0.74337 0.81535 0.0
O130 O 0.92044 0.6942 0.84728 0.0
O131 O 0.97506 0.80285 0.86389 0.0
Mn132 Mn 0.98321 0.76356 0.88189 0.0
O133 O 0.8705 0.72601 0.87956 0.0
O134 O 0.98857 0.71478 0.86704 0.0
O135 O 0.94145 0.77968 0.8208 0.0
O136 O 0.87966 0.74636 0.79717 0.0
O137 O 0.03944 0.8251 0.88513 0.0
O138 O 0.93296 0.74072 0.90184 0.0
C139 C 0.78947 0.67905 0.83461 0.0
C140 C 0.86647 0.82947 0.84065 0.0
C141 C 0.9566 0.68706 0.85339 0.0
C142 C 0.01903 0.83875 0.87073 0.0
C143 C 0.88634 0.72386 0.89789 0.0
C144 C 0.92619 0.76818 0.80184 0.0
O145 O 0.83702 0.71178 0.83746 0.0
O146 O 0.77083 0.68565 0.81763 0.0
O147 O 0.18459 0.07876 0.85498 0.0
Mn148 Mn 0.24569 0.15239 0.85297 0.0
O149 O 0.19149 0.03676 0.82757 0.0
Mn150 Mn 0.25452 0.08882 0.81828 0.0
O151 O 0.30784 0.22702 0.85025 0.0
O152 O 0.19991 0.17592 0.86563 0.0
Mn153 Mn 0.23537 0.22435 0.88355 0.0
O154 O 0.2713 0.14511 0.88298 0.0
O155 O 0.28538 0.27639 0.86797 0.0
O156 O 0.22244 0.16384 0.82318 0.0
O157 O 0.25292 0.1327 0.79941 0.0
O158 O 0.17082 0.21508 0.88452 0.0
O159 O 0.25695 0.19621 0.90376 0.0
C160 C 0.31933 0.10823 0.83717 0.0
C161 C 0.16792 0.03895 0.84359 0.0
C162 C 0.31451 0.27086 0.85538 0.0
C163 C 0.16129 0.18099 0.87055 0.0
C164 C 0.27226 0.16453 0.90097 0.0
C165 C 0.23303 0.15922 0.80416 0.0
O166 O 0.28772 0.12436 0.84047 0.0
O167 O 0.31099 0.08245 0.82022 0.0
O168 O 0.9223 0.10757 0.85561 0.0
Mn169 Mn 0.84638 0.0901 0.85323 0.0
O170 O 0.96266 0.15908 0.82859 0.0
Mn171 Mn 0.91212 0.17258 0.81941 0.0
O172 O 0.77106 0.07406 0.84958 0.0
O173 O 0.82427 0.01972 0.86567 0.0
Mn174 Mn 0.77931 0.01407 0.88479 0.0
O175 O 0.85168 0.12379 0.8829 0.0
O176 O 0.72396 0.01072 0.87153 0.0
O177 O 0.84079 0.05828 0.82337 0.0
O178 O 0.8748 0.12216 0.80014 0.0
O179 O 0.78072 0.95604 0.88741 0.0
O180 O 0.80856 0.06159 0.90558 0.0
C181 C 0.86812 0.19734 0.85168 0.0
C182 C 0.96211 0.13306 0.84426 0.0
C183 C 0.72801 0.04066 0.85697 0.0
C184 C 0.81283 0.97442 0.87221 0.0
C185 C 0.83674 0.1083 0.90152 0.0
C186 C 0.84977 0.07502 0.80453 0.0
O187 O 0.86896 0.16132 0.84138 0.0
O188 O 0.8692 0.16265 0.84158 0.0
O189 O 0.81879 0.88979 0.68505 0.0
Mn190 Mn 0.75845 0.90509 0.68696 0.0
O191 O 0.80912 0.84182 0.71336 0.0
Mn192 Mn 0.74987 0.83716 0.72356 0.0
O193 O 0.69736 0.91817 0.68986 0.0
O194 O 0.80313 0.97434 0.67305 0.0
Mn195 Mn 0.76417 0.97236 0.65216 0.0
O196 O 0.72593 0.86571 0.65809 0.0
O197 O 0.70447 0.96639 0.66233 0.0
O198 O 0.78734 0.94513 0.71552 0.0
O199 O 0.75824 0.88793 0.74115 0.0
O200 O 0.82031 0.03373 0.64982 0.0
O201 O 0.75613 0.92418 0.63324 0.0
C202 C 0.68334 0.79082 0.70594 0.0
C203 C 0.8328 0.86467 0.69686 0.0
C204 C 0.68108 0.94155 0.67846 0.0
C205 C 0.83548 0.01959 0.66594 0.0
C206 C 0.73104 0.8782 0.63864 0.0
C207 C 0.78058 0.93358 0.73498 0.0
O208 O 0.71615 0.83757 0.70138 0.0
O209 O 0.69144 0.77545 0.72349 0.0
O210 O 0.10668 0.92532 0.68333 0.0
Mn211 Mn 0.09611 0.85258 0.68507 0.0
O212 O 0.15285 0.96717 0.71138 0.0
Mn213 Mn 0.16442 0.91587 0.72112 0.0
O214 O 0.08636 0.77976 0.687 0.0
O215 O 0.02751 0.82681 0.67117 0.0
Mn216 Mn 0.02454 0.7882 0.65028 0.0
O217 O 0.13421 0.86222 0.65614 0.0
O218 O 0.03066 0.73567 0.6616 0.0
O219 O 0.05791 0.83891 0.71405 0.0
O220 O 0.11698 0.87009 0.73892 0.0
O221 O 0.96346 0.78607 0.65002 0.0
O222 O 0.07454 0.82757 0.63153 0.0
C223 C 0.21139 0.89684 0.7029 0.0
C224 C 0.12809 0.96475 0.695 0.0
C225 C 0.05967 0.73905 0.67653 0.0
C226 C 0.98179 0.81571 0.66593 0.0
C227 C 0.12085 0.85206 0.63691 0.0
C228 C 0.07117 0.84309 0.73332 0.0
O229 O 0.16408 0.88107 0.6991 0.0
O230 O 0.22786 0.9229 0.71983 0.0
O231 O 0.07609 0.18253 0.68555 0.0
Mn232 Mn 0.14943 0.24573 0.68659 0.0
O233 O 0.03633 0.18819 0.71393 0.0
Mn234 Mn 0.09037 0.25056 0.72284 0.0
O235 O 0.22166 0.31138 0.6876 0.0
O236 O 0.17427 0.20104 0.6733 0.0
Mn237 Mn 0.21996 0.23989 0.65485 0.0
O238 O 0.13866 0.27097 0.65676 0.0
O239 O 0.27232 0.29477 0.66794 0.0
O240 O 0.16741 0.22411 0.71574 0.0
O241 O 0.13525 0.24935 0.74079 0.0
O242 O 0.21827 0.17957 0.65301 0.0
O243 O 0.18792 0.25674 0.63485 0.0
C244 C 0.10216 0.31501 0.70644 0.0
C245 C 0.03686 0.16541 0.69737 0.0
C246 C 0.26527 0.32374 0.67997 0.0
C247 C 0.18328 0.16543 0.66706 0.0
C248 C 0.15694 0.27239 0.63838 0.0
C249 C 0.1639 0.23303 0.73507 0.0
O250 O 0.12069 0.28668 0.70027 0.0
O251 O 0.0832 0.30576 0.72497 0.0
O252 O 0.77323 0.51851 0.51927 0.0
Mn253 Mn 0.75724 0.57853 0.5201 0.0
O254 O 0.82769 0.53376 0.54569 0.0
Mn255 Mn 0.84003 0.59759 0.55417 0.0
O256 O 0.74393 0.63963 0.52239 0.0
O257 O 0.68748 0.53016 0.50776 0.0
Mn258 Mn 0.67595 0.56886 0.49051 0.0
O259 O 0.78866 0.60239 0.48992 0.0
O260 O 0.67153 0.61771 0.50588 0.0
O261 O 0.72605 0.5574 0.5501 0.0
O262 O 0.78912 0.58405 0.57338 0.0
O263 O 0.62025 0.50636 0.4881 0.0
O264 O 0.72427 0.59189 0.46959 0.0
C265 C 0.86405 0.66452 0.52119 0.0
C266 C 0.80058 0.50645 0.53062 0.0
C267 C 0.70711 0.64688 0.51799 0.0
C268 C 0.64336 0.49362 0.50162 0.0
C269 C 0.77085 0.60547 0.47217 0.0
C270 C 0.74214 0.56441 0.56897 0.0
O271 O 0.82835 0.62779 0.53165 0.0
O272 O 0.82961 0.62885 0.53146 0.0
O273 O 0.48446 0.25316 0.5183 0.0
Mn274 Mn 0.4218 0.18055 0.52105 0.0
O275 O 0.48034 0.29701 0.5457 0.0
Mn276 Mn 0.41856 0.24623 0.55618 0.0
O277 O 0.35767 0.10791 0.52475 0.0
O278 O 0.46446 0.15278 0.50816 0.0
Mn279 Mn 0.42415 0.10718 0.48994 0.0
O280 O 0.39435 0.18877 0.4913 0.0
O281 O 0.37092 0.05583 0.50441 0.0
O282 O 0.44773 0.16926 0.55018 0.0
O283 O 0.42311 0.20366 0.57499 0.0
O284 O 0.48322 0.10656 0.48785 0.0
O285 O 0.40782 0.13885 0.46968 0.0
C286 C 0.35222 0.22813 0.53872 0.0
C287 C 0.50241 0.29353 0.52945 0.0
C288 C 0.34572 0.0634 0.51826 0.0
C289 C 0.49778 0.13997 0.50254 0.0
C290 C 0.39341 0.17086 0.47294 0.0
C291 C 0.4415 0.17634 0.56942 0.0
O292 O 0.38259 0.21093 0.5344 0.0
O293 O 0.36294 0.25416 0.55571 0.0
O294 O 0.73809 0.22236 0.51936 0.0
Mn295 Mn 0.81404 0.23943 0.52044 0.0
O296 O 0.70186 0.17135 0.54719 0.0
Mn297 Mn 0.75721 0.1662 0.55645 0.0
O298 O 0.88871 0.25367 0.52292 0.0
O299 O 0.83629 0.30784 0.50697 0.0
Mn300 Mn 0.88263 0.31781 0.48815 0.0
O301 O 0.8071 0.20399 0.49101 0.0
O302 O 0.93692 0.31947 0.50205 0.0
O303 O 0.82427 0.27632 0.54961 0.0
O304 O 0.80071 0.21641 0.57404 0.0
O305 O 0.87662 0.37484 0.48729 0.0
O306 O 0.8519 0.26738 0.46839 0.0
C307 C 0.77878 0.12471 0.53589 0.0
C308 C 0.69977 0.19559 0.53134 0.0
C309 C 0.93198 0.28727 0.51581 0.0
C310 C 0.84381 0.3525 0.50197 0.0
C311 C 0.8233 0.2204 0.47244 0.0
C312 C 0.82107 0.26269 0.56878 0.0
O313 O 0.79141 0.1718 0.53373 0.0
O314 O 0.75628 0.10547 0.55332 0.0
O315 O 0.85015 0.44864 0.69152 0.0
Mn316 Mn 0.90728 0.43259 0.6858 0.0
O317 O 0.83803 0.47265 0.66079 0.0
Mn318 Mn 0.90372 0.49431 0.65164 0.0
O319 O 0.96347 0.41449 0.68117 0.0
O320 O 0.8611 0.36316 0.69952 0.0
Mn321 Mn 0.89826 0.36925 0.72136 0.0
O322 O 0.94519 0.47156 0.71434 0.0
O323 O 0.96114 0.3801 0.71218 0.0
O324 O 0.87554 0.39439 0.65678 0.0
O325 O 0.90724 0.45353 0.63194 0.0
O326 O 0.8455 0.30556 0.72375 0.0
O327 O 0.89549 0.41734 0.73749 0.0
C328 C 0.96322 0.54662 0.67073 0.0
C329 C 0.8239 0.4591 0.67926 0.0
C330 C 0.98083 0.39552 0.69426 0.0
C331 C 0.82984 0.31855 0.70744 0.0
C332 C 0.93193 0.46071 0.73354 0.0
C333 C 0.88654 0.40738 0.63743 0.0
O334 O 0.94991 0.49885 0.67037 0.0
O335 O 0.94339 0.56112 0.6564 0.0
O336 O 0.55947 0.40943 0.69107 0.0
Mn337 Mn 0.57184 0.48386 0.68705 0.0
O338 O 0.53078 0.37624 0.66017 0.0
Mn339 Mn 0.51112 0.42245 0.65293 0.0
O340 O 0.58396 0.55783 0.68343 0.0
O341 O 0.63883 0.50841 0.70162 0.0
Mn342 Mn 0.64977 0.55813 0.71857 0.0
O343 O 0.53566 0.47787 0.71623 0.0
O344 O 0.65276 0.60948 0.70226 0.0
O345 O 0.61094 0.49535 0.65768 0.0
O346 O 0.55116 0.46699 0.63331 0.0
O347 O 0.70476 0.54934 0.72167 0.0
O348 O 0.59818 0.53065 0.73795 0.0
C349 C 0.45576 0.42662 0.67089 0.0
C350 C 0.54606 0.37327 0.67798 0.0
C351 C 0.6188 0.60226 0.68902 0.0
C352 C 0.68135 0.51356 0.70817 0.0
C353 C 0.55187 0.49822 0.73433 0.0
C354 C 0.59742 0.49297 0.63839 0.0
O355 O 0.50383 0.46079 0.67234 0.0
O356 O 0.44398 0.39383 0.65608 0.0
O357 O 0.59034 0.14815 0.69301 0.0
Mn358 Mn 0.51724 0.08953 0.6877 0.0
O359 O 0.62556 0.15846 0.66202 0.0
Mn360 Mn 0.58129 0.09229 0.65338 0.0
O361 O 0.44332 0.02942 0.68281 0.0
O362 O 0.49301 0.13314 0.70138 0.0
Mn363 Mn 0.44277 0.09628 0.71835 0.0
O364 O 0.51966 0.05749 0.71708 0.0
O365 O 0.39206 0.04658 0.70203 0.0
O366 O 0.50971 0.11995 0.65866 0.0
O367 O 0.53617 0.08763 0.6338 0.0
O368 O 0.4519 0.16101 0.71936 0.0
O369 O 0.4703 0.07361 0.73831 0.0
C370 C 0.57858 0.03524 0.67254 0.0
C371 C 0.62662 0.17334 0.68039 0.0
C372 C 0.39912 0.02033 0.68843 0.0
C373 C 0.48751 0.1715 0.70601 0.0
C374 C 0.50036 0.05645 0.73518 0.0
C375 C 0.5109 0.10827 0.63944 0.0
O376 O 0.54266 0.04681 0.67298 0.0
O377 O 0.61024 0.05404 0.6572 0.0
O378 O 0.56145 0.15359 0.18696 0.0
Mn379 Mn 0.57017 0.08975 0.18653 0.0
O380 O 0.50953 0.14367 0.16039 0.0
Mn381 Mn 0.50171 0.08287 0.15059 0.0
O382 O 0.57869 0.02544 0.18647 0.0
O383 O 0.64006 0.13197 0.19889 0.0
Mn384 Mn 0.64597 0.09775 0.21981 0.0
O385 O 0.53244 0.06524 0.21608 0.0
O386 O 0.64891 0.04669 0.20553 0.0
O387 O 0.60849 0.112 0.15735 0.0
O388 O 0.55037 0.08909 0.13221 0.0
O389 O 0.68871 0.16557 0.22485 0.0
O390 O 0.5928 0.07157 0.23777 0.0
C391 C 0.45526 0.01599 0.16792 0.0
C392 C 0.53699 0.16908 0.17572 0.0
C393 C 0.6123 0.01589 0.19389 0.0
C394 C 0.67174 0.17409 0.20787 0.0
C395 C 0.54742 0.05965 0.23419 0.0
C396 C 0.59579 0.1065 0.13802 0.0
O397 O 0.50183 0.04849 0.17273 0.0
O398 O 0.43941 0.02556 0.15079 0.0
O399 O 0.8461 0.40847 0.18774 0.0
Mn400 Mn 0.90882 0.48255 0.18648 0.0
O401 O 0.85401 0.36795 0.16011 0.0
Mn402 Mn 0.91352 0.42377 0.14989 0.0
O403 O 0.97224 0.55617 0.18581 0.0
O404 O 0.86548 0.50649 0.20054 0.0
Mn405 Mn 0.89778 0.54485 0.22177 0.0
O406 O 0.93699 0.47224 0.216 0.0
O407 O 0.958 0.59783 0.21153 0.0
O408 O 0.88294 0.49862 0.15769 0.0
O409 O 0.905 0.46482 0.13196 0.0
O410 O 0.83693 0.54418 0.22043 0.0
O411 O 0.90743 0.50427 0.24013 0.0
C412 C 0.98073 0.43976 0.16524 0.0
C413 C 0.83026 0.3687 0.17634 0.0
C414 C 0.98584 0.59563 0.1972 0.0
C415 C 0.82865 0.51482 0.20466 0.0
C416 C 0.93184 0.48194 0.23527 0.0
C417 C 0.8869 0.49177 0.13811 0.0
O418 O 0.95109 0.45645 0.17182 0.0
O419 O 0.97122 0.42115 0.14664 0.0
O420 O 0.5962 0.44903 0.18617 0.0
Mn421 Mn 0.52049 0.43312 0.18534 0.0
O422 O 0.63227 0.49754 0.15789 0.0
Mn423 Mn 0.57723 0.50356 0.14931 0.0
O424 O 0.44507 0.41771 0.18346 0.0
O425 O 0.49956 0.36485 0.19892 0.0
Mn426 Mn 0.4538 0.35397 0.218 0.0
O427 O 0.52792 0.46827 0.21496 0.0
O428 O 0.39919 0.34969 0.20384 0.0
O429 O 0.50796 0.39614 0.1559 0.0
O430 O 0.53376 0.4556 0.13126 0.0
O431 O 0.46238 0.29874 0.21948 0.0
O432 O 0.48308 0.40486 0.23758 0.0
C433 C 0.55897 0.54941 0.16785 0.0
C434 C 0.63448 0.47434 0.17402 0.0
C435 C 0.40252 0.3817 0.19031 0.0
C436 C 0.4942 0.32129 0.2045 0.0
C437 C 0.51127 0.45184 0.23351 0.0
C438 C 0.51054 0.40957 0.1367 0.0
O439 O 0.5446 0.50227 0.17215 0.0
O440 O 0.58125 0.56517 0.15008 0.0
O441 O 0.48106 0.22134 1.01618 0.0
Mn442 Mn 0.42325 0.23806 0.02042 0.0
O443 O 0.49253 0.20239 0.04809 0.0
Mn444 Mn 0.42577 0.1799 0.056 0.0
O445 O 0.36467 0.25494 0.02455 0.0
O446 O 0.46712 0.30394 1.00504 0.0
Mn447 Mn 0.42974 0.31263 0.98655 0.0
O448 O 0.38856 0.19917 0.99216 0.0
O449 O 0.37996 0.31675 1.00155 0.0
O450 O 0.45444 0.27876 0.0489 0.0
O451 O 0.41937 0.22136 0.07422 0.0
O452 O 0.49322 0.36883 0.98425 0.0
O453 O 0.40774 0.25957 0.96798 0.0
C454 C 0.36903 0.12441 0.03725 0.0
C455 C 0.50701 0.21286 0.0295 0.0
C456 C 0.35529 0.28834 1.0168 0.0
C457 C 0.50443 0.34733 0.999 0.0
C458 C 0.38796 0.21316 0.97323 0.0
C459 C 0.44077 0.267 0.0681 0.0
O460 O 0.38039 0.1718 0.03624 0.0
O461 O 0.38811 0.11252 0.05276 0.0
O462 O 0.7777 0.25938 1.01668 0.0
Mn463 Mn 0.76037 0.18389 1.01908 0.0
O464 O 0.80689 0.28911 0.048 0.0
Mn465 Mn 0.82076 0.23825 0.05506 0.0
O466 O 0.74298 0.10851 0.02021 0.0
O467 O 0.69247 0.16359 1.00495 0.0
Mn468 Mn 0.69412 0.13162 0.9824 0.0
O469 O 0.79982 0.19097 0.99042 0.0
O470 O 0.69973 0.07623 0.99056 0.0
O471 O 0.7201 0.17201 0.04803 0.0
O472 O 0.77677 0.19228 0.07347 0.0
O473 O 0.63323 0.12809 0.981 0.0
O474 O 0.74462 0.17639 0.96527 0.0
C475 C 0.8752 0.23398 0.03715 0.0
C476 C 0.79327 0.2948 0.03017 0.0
C477 C 0.72178 0.07278 1.0068 0.0
C478 C 0.64779 0.15331 0.99822 0.0
C479 C 0.78928 0.18989 0.97093 0.0
C480 C 0.73126 0.17039 0.06734 0.0
O481 O 0.82678 0.20204 0.03441 0.0
O482 O 0.88746 0.2622 0.05361 0.0
O483 O 0.74318 0.51152 1.01191 0.0
Mn484 Mn 0.81605 0.57317 1.01743 0.0
O485 O 0.71359 0.49995 0.0437 0.0
Mn486 Mn 0.74845 0.56855 0.0497 0.0
O487 O 0.88912 0.63543 0.0224 0.0
O488 O 0.84401 0.53195 1.00468 0.0
Mn489 Mn 0.89395 0.569 0.98759 0.0
O490 O 0.81372 0.60305 0.98767 0.0
O491 O 0.94293 0.62 1.00401 0.0
O492 O 0.82298 0.54685 0.04783 0.0
O493 O 0.79451 0.58277 0.07026 0.0
O494 O 0.88637 0.50478 0.98706 0.0
O495 O 0.86613 0.59008 0.96707 0.0
C496 C 0.74859 0.62078 0.02734 0.0
C497 C 0.70932 0.48475 0.0253 0.0
C498 C 0.93411 0.64584 1.01721 0.0
C499 C 0.85058 0.49424 1.00032 0.0
C500 C 0.83454 0.60551 0.96985 0.0
C501 C 0.82093 0.56206 0.06651 0.0
O502 O 0.78735 0.61446 0.03018 0.0
O503 O 0.71151 0.59555 0.04009 0.0
O504 O 0.44262 0.84956 0.85419 0.0
Mn505 Mn 0.42713 0.90974 0.85576 0.0
O506 O 0.49344 0.8617 0.88178 0.0
Mn507 Mn 0.49797 0.92085 0.89222 0.0
O508 O 0.41303 0.97036 0.85857 0.0
O509 O 0.35989 0.86583 0.84155 0.0
Mn510 Mn 0.34997 0.90183 0.82274 0.0
O511 O 0.4641 0.9401 0.82673 0.0
O512 O 0.34764 0.95312 0.83738 0.0
O513 O 0.3887 0.88226 0.88443 0.0
O514 O 0.44679 0.91135 0.90989 0.0
O515 O 0.29366 0.83792 0.82153 0.0
O516 O 0.40195 0.92282 0.80358 0.0
C517 C 0.54097 0.98584 0.87276 0.0
C518 C 0.46892 0.83658 0.86578 0.0
C519 C 0.37905 0.97966 0.85152 0.0
C520 C 0.3159 0.82822 0.83646 0.0
C521 C 0.44864 0.94103 0.80808 0.0
C522 C 0.40109 0.88968 0.90377 0.0
O523 O 0.49374 0.95243 0.87011 0.0
O524 O 0.55896 0.98072 0.8902 0.0
O525 O 0.14692 0.59631 0.85276 0.0
Mn526 Mn 0.09123 0.52039 0.85343 0.0
O527 O 0.1345 0.63033 0.88162 0.0
Mn528 Mn 0.07311 0.574 0.89026 0.0
O529 O 0.03503 0.44387 0.85472 0.0
O530 O 0.14371 0.5033 0.84061 0.0
Mn531 Mn 0.10879 0.47355 0.81795 0.0
O532 O 0.0577 0.52598 0.82456 0.0
O533 O 0.05113 0.41424 0.82567 0.0
O534 O 0.11924 0.51087 0.88253 0.0
O535 O 0.07949 0.52937 0.90737 0.0
O536 O 0.164 0.46903 0.81441 0.0
O537 O 0.10422 0.51867 0.80054 0.0
C538 C 0.0104 0.55328 0.86944 0.0
C539 C 0.1602 0.63361 0.86536 0.0
C540 C 0.025 0.40776 0.84193 0.0
C541 C 0.17624 0.49203 0.83214 0.0
C542 C 0.06944 0.5276 0.80523 0.0
C543 C 0.10642 0.51047 0.90167 0.0
O544 O 0.0444 0.53998 0.86737 0.0
O545 O 0.01322 0.5747 0.8871 0.0
O546 O 0.41038 0.5574 0.85328 0.0
Mn547 Mn 0.48506 0.57319 0.85531 0.0
O548 O 0.37123 0.51074 0.88176 0.0
Mn549 Mn 0.42484 0.50259 0.89162 0.0
O550 O 0.55964 0.58716 0.85845 0.0
O551 O 0.50839 0.64152 0.84148 0.0
Mn552 Mn 0.55377 0.64976 0.82258 0.0
O553 O 0.47864 0.53658 0.82612 0.0
O554 O 0.60755 0.65079 0.8365 0.0
O555 O 0.49443 0.61104 0.88415 0.0
O556 O 0.46982 0.55214 0.90912 0.0
O557 O 0.54958 0.70757 0.82131 0.0
O558 O 0.52182 0.59932 0.80308 0.0
C559 C 0.44552 0.45823 0.87204 0.0
C560 C 0.37145 0.53416 0.86522 0.0
C561 C 0.60279 0.61998 0.85087 0.0
C562 C 0.5171 0.68648 0.8362 0.0
C563 C 0.49392 0.5525 0.80741 0.0
C564 C 0.4922 0.59813 0.90336 0.0
O565 O 0.45997 0.50566 0.86931 0.0
O566 O 0.42135 0.44044 0.8893 0.0
O567 O 0.51564 0.77403 0.02748 0.0
Mn568 Mn 0.57414 0.75789 0.02235 0.0
O569 O 0.50383 0.78689 0.99525 0.0
Mn570 Mn 0.57183 0.81524 0.98927 0.0
O571 O 0.63239 0.74108 1.01908 0.0
O572 O 0.52653 0.6877 0.03519 0.0
Mn573 Mn 0.56198 0.68959 0.05709 0.0
O574 O 0.60871 0.79497 0.05117 0.0
O575 O 0.62402 0.69757 0.04835 0.0
O576 O 0.54637 0.7211 0.99267 0.0
O577 O 0.58128 0.78145 0.96855 0.0
O578 O 0.50698 0.62724 0.05844 0.0
O579 O 0.56212 0.73765 0.07427 0.0
C580 C 0.62693 0.87283 1.0077 0.0
C581 C 0.4893 0.78032 1.01373 0.0
C582 C 0.648 0.71933 0.03178 0.0
C583 C 0.49355 0.64251 0.04213 0.0
C584 C 0.59676 0.78212 0.07026 0.0
C585 C 0.55902 0.73507 0.97353 0.0
O586 O 0.62001 0.82679 1.00839 0.0
O587 O 0.60063 0.88128 0.99413 0.0
O588 O 0.22299 0.73756 0.02191 0.0
Mn589 Mn 0.23656 0.81239 0.02107 0.0
O590 O 0.17524 0.70032 0.99362 0.0
Mn591 Mn 0.16665 0.75412 0.98492 0.0
O592 O 0.24853 0.88666 1.01935 0.0
O593 O 0.30454 0.83573 0.03485 0.0
Mn594 Mn 0.31593 0.88246 0.05336 0.0
O595 O 0.2016 0.80448 0.05059 0.0
O596 O 0.31679 0.93549 0.03912 0.0
O597 O 0.27388 0.82463 0.99182 0.0
O598 O 0.21448 0.80001 0.96718 0.0
O599 O 0.37165 0.87428 0.05463 0.0
O600 O 0.26515 0.85211 0.07285 0.0
C601 C 0.12085 0.77267 1.00376 0.0
C602 C 0.19933 0.6991 1.00967 0.0
C603 C 0.28251 0.93004 0.02636 0.0
C604 C 0.3478 0.84078 0.04036 0.0
C605 C 0.21837 0.82224 0.06895 0.0
C606 C 0.26047 0.82326 0.97272 0.0
O607 O 0.1679 0.78687 1.0077 0.0
O608 O 0.10424 0.74882 0.98636 0.0
O609 O 0.25553 0.4813 0.02172 0.0
Mn610 Mn 0.18211 0.42008 0.02008 0.0
O611 O 0.29702 0.47452 0.99395 0.0
Mn612 Mn 0.24441 0.41325 0.98373 0.0
O613 O 0.10905 0.35695 1.01814 0.0
O614 O 0.15708 0.46274 0.03375 0.0
Mn615 Mn 0.11296 0.42848 0.0533 0.0
O616 O 0.19098 0.39275 0.0498 0.0
O617 O 0.06074 0.37183 0.04033 0.0
O618 O 0.16928 0.4458 0.9909 0.0
O619 O 0.20154 0.4197 0.96563 0.0
O620 O 0.11893 0.49221 0.05263 0.0
O621 O 0.14794 0.4131 0.07272 0.0
C622 C 0.22591 0.34869 1.00317 0.0
C623 C 0.29514 0.49745 1.01022 0.0
C624 C 0.06636 0.34453 0.02671 0.0
C625 C 0.15137 0.50107 0.038 0.0
C626 C 0.17624 0.3944 0.0686 0.0
C627 C 0.17571 0.43964 0.97149 0.0
O628 O 0.20929 0.37988 1.00592 0.0
O629 O 0.24972 0.35567 0.98577 0.0
O630 O 0.22322 0.48319 0.52006 0.0
Mn631 Mn 0.23765 0.42254 0.51849 0.0
O632 O 0.17291 0.4724 0.49256 0.0
Mn633 Mn 0.16676 0.41202 0.48311 0.0
O634 O 0.2509 0.36108 0.51597 0.0
O635 O 0.30683 0.46925 0.53199 0.0
Mn636 Mn 0.31543 0.43128 0.55053 0.0
O637 O 0.20238 0.39411 0.54796 0.0
O638 O 0.31842 0.38038 0.53607 0.0
O639 O 0.27412 0.44737 0.48909 0.0
O640 O 0.21439 0.41774 0.46453 0.0
O641 O 0.37201 0.49381 0.5528 0.0
O642 O 0.2649 0.40962 0.57044 0.0
C643 C 0.12091 0.34652 0.50101 0.0
C644 C 0.19774 0.4971 0.50852 0.0
C645 C 0.28572 0.35251 0.52262 0.0
C646 C 0.35099 0.50599 0.53816 0.0
C647 C 0.21817 0.39235 0.56641 0.0
C648 C 0.26044 0.43903 0.46988 0.0
O649 O 0.16806 0.37887 0.50544 0.0
O650 O 0.10499 0.35471 0.4836 0.0
O651 O 0.51926 0.74558 0.52125 0.0
Mn652 Mn 0.58107 0.81977 0.51884 0.0
O653 O 0.52765 0.70178 0.49487 0.0
Mn654 Mn 0.58835 0.75398 0.48415 0.0
O655 O 0.64342 0.8941 0.51528 0.0
O656 O 0.53579 0.84406 0.53214 0.0
Mn657 Mn 0.57576 0.89202 0.54979 0.0
O658 O 0.6088 0.81239 0.5485 0.0
O659 O 0.62488 0.94442 0.53424 0.0
O660 O 0.55705 0.83056 0.48921 0.0
O661 O 0.58137 0.79427 0.46499 0.0
O662 O 0.51439 0.88783 0.55265 0.0
O663 O 0.59746 0.86401 0.57 0.0
C664 C 0.65506 0.77803 0.50255 0.0
C665 C 0.50338 0.70471 0.51048 0.0
C666 C 0.65161 0.93827 0.52069 0.0
C667 C 0.50034 0.85317 0.5385 0.0
C668 C 0.61161 0.83172 0.5667 0.0
C669 C 0.563 0.82201 0.47007 0.0
O670 O 0.62223 0.79252 0.50549 0.0
O671 O 0.64694 0.751 0.48598 0.0
O672 O 0.26155 0.77885 0.52205 0.0
Mn673 Mn 0.18682 0.76238 0.5208 0.0
O674 O 0.30101 0.82609 0.49396 0.0
Mn675 Mn 0.24601 0.83172 0.48426 0.0
O676 O 0.1108 0.74455 0.52007 0.0
O677 O 0.1675 0.69539 0.53511 0.0
Mn678 Mn 0.1332 0.69291 0.55738 0.0
O679 O 0.19582 0.80197 0.54945 0.0
O680 O 0.07629 0.69309 0.5478 0.0
O681 O 0.17441 0.72329 0.49173 0.0
O682 O 0.20292 0.78184 0.46654 0.0
O683 O 0.134 0.63361 0.558 0.0
O684 O 0.17427 0.74488 0.57477 0.0
C685 C 0.22277 0.87599 0.50214 0.0
C686 C 0.30069 0.80244 0.51039 0.0
C687 C 0.07289 0.71611 0.53188 0.0
C688 C 0.15902 0.65076 0.54085 0.0
C689 C 0.19198 0.79038 0.56891 0.0
C690 C 0.17835 0.73587 0.47229 0.0
O691 O 0.20997 0.82937 0.50628 0.0
O692 O 0.24786 0.89288 0.485 0.0
O693 O 0.14775 0.55171 0.3533 0.0
Mn694 Mn 0.0876 0.56704 0.3543 0.0
O695 O 0.13531 0.5023 0.38128 0.0
Mn696 Mn 0.07386 0.49521 0.39035 0.0
O697 O 0.02648 0.58036 0.35602 0.0
O698 O 0.13297 0.63524 0.34043 0.0
Mn699 Mn 0.09829 0.64149 0.31981 0.0
O700 O 0.05815 0.53014 0.3249 0.0
O701 O 0.04055 0.63808 0.33122 0.0
O702 O 0.1135 0.60451 0.38388 0.0
O703 O 0.07796 0.54379 0.408 0.0
O704 O 0.15996 0.70057 0.3197 0.0
O705 O 0.08429 0.59105 0.30065 0.0
C706 C 0.01079 0.45193 0.37043 0.0
C707 C 0.16087 0.52608 0.36523 0.0
C708 C 0.01381 0.60863 0.3459 0.0
C709 C 0.16977 0.67998 0.33524 0.0
C710 C 0.06123 0.54441 0.30573 0.0
C711 C 0.10273 0.59025 0.40309 0.0
O712 O 0.04389 0.49938 0.36785 0.0
O713 O 0.01543 0.4336 0.38788 0.0
O714 O 0.44094 0.59372 0.35105 0.0
Mn715 Mn 0.42867 0.51947 0.35236 0.0
O716 O 0.48493 0.63057 0.38017 0.0
Mn717 Mn 0.4945 0.57758 0.38877 0.0
O718 O 0.41798 0.44576 0.35377 0.0
O719 O 0.36075 0.49483 0.33862 0.0
Mn720 Mn 0.35378 0.45468 0.31782 0.0
O721 O 0.46549 0.52803 0.32307 0.0
O722 O 0.35995 0.40184 0.32902 0.0
O723 O 0.38938 0.50607 0.38127 0.0
O724 O 0.4472 0.53078 0.40638 0.0
O725 O 0.29422 0.45676 0.31885 0.0
O726 O 0.4041 0.49313 0.29896 0.0
C727 C 0.54433 0.56231 0.37151 0.0
C728 C 0.4626 0.63164 0.36359 0.0
C729 C 0.39057 0.40506 0.34329 0.0
C730 C 0.31582 0.487 0.33434 0.0
C731 C 0.45078 0.51713 0.30396 0.0
C732 C 0.40152 0.50715 0.40053 0.0
O733 O 0.49771 0.54676 0.36598 0.0
O734 O 0.55799 0.58632 0.38901 0.0
O735 O 0.40505 0.84949 0.35209 0.0
Mn736 Mn 0.48043 0.91005 0.35363 0.0
O737 O 0.36958 0.85886 0.38126 0.0
Mn738 Mn 0.42325 0.92076 0.39035 0.0
O739 O 0.55467 0.97148 0.35669 0.0
O740 O 0.50494 0.86599 0.33952 0.0
Mn741 Mn 0.54836 0.90507 0.3202 0.0
O742 O 0.47295 0.9405 0.3247 0.0
O743 O 0.60244 0.95868 0.33367 0.0
O744 O 0.49217 0.88262 0.38238 0.0
O745 O 0.47012 0.91863 0.40734 0.0
O746 O 0.54721 0.84495 0.31799 0.0
O747 O 0.51506 0.92233 0.30082 0.0
C748 C 0.44014 0.98479 0.37156 0.0
C749 C 0.36691 0.83501 0.36454 0.0
C750 C 0.59771 0.98336 0.34859 0.0
C751 C 0.51589 0.83168 0.33343 0.0
C752 C 0.48725 0.94081 0.30576 0.0
C753 C 0.49282 0.89554 0.4015 0.0
O754 O 0.45497 0.9525 0.36755 0.0
O755 O 0.41752 0.97778 0.38926 0.0
C756 C 0.15509 0.12448 0.1681 0.0
C757 C 0.13731 0.12253 0.18827 0.0
C758 C 0.16785 0.08869 0.16129 0.0
C759 C 0.16205 0.04853 0.17416 0.0
H760 H 0.16218 0.15567 0.1579 0.0
H761 H 0.18438 0.09392 0.14599 0.0
S762 S 0.10301 0.01916 0.22635 0.0
N763 N 0.10601 0.07316 0.2199 0.0
N764 N 0.12719 0.00387 0.20656 0.0
C765 C 0.13869 0.04301 0.19352 0.0
C766 C 0.12711 0.08059 0.20074 0.0
C767 C 0.95255 0.10589 0.19447 0.0
C768 C 0.95614 0.11895 0.17341 0.0
C769 C 0.91639 0.05688 0.20132 0.0
C770 C 0.88318 0.019 0.18732 0.0
H771 H 0.97586 0.13416 0.20581 0.0
H772 H 0.91341 0.04911 0.2178 0.0
S773 S 0.88091 0.03298 0.13033 0.0
N774 N 0.9259 0.08903 0.13847 0.0
N775 N 0.85889 0.99753 0.15131 0.0
C776 C 0.88855 0.03098 0.16615 0.0
C777 C 0.92468 0.08079 0.15923 0.0
C778 C 0.95856 0.87836 0.20153 0.0
C779 C 0.99448 0.8796 0.18728 0.0
C780 C 0.90869 0.86335 0.19541 0.0
C781 C 0.8932 0.84854 0.17491 0.0
H782 H 0.96834 0.88655 0.21776 0.0
H783 H 0.88153 0.86023 0.20701 0.0
S784 S 0.97399 0.85123 0.13111 0.0
N785 N 0.01202 0.86962 0.1514 0.0
N786 N 0.9189 0.84155 0.13986 0.0
C787 C 0.92975 0.8533 0.16025 0.0
C788 C 0.98034 0.86894 0.16643 0.0
C789 C 0.06806 0.10143 0.35067 0.0
C790 C 0.1207 0.1327 0.35374 0.0
C791 C 0.03395 0.11786 0.35667 0.0
C792 C 0.05196 0.16611 0.36559 0.0
H793 H 0.05332 0.0643 0.34368 0.0
H794 H 0.99359 0.09256 0.35476 0.0
S795 S 0.1874 0.26478 0.37319 0.0
N796 N 0.18936 0.2152 0.36403 0.0
N797 N 0.12658 0.24689 0.37463 0.0
C798 C 0.10489 0.19834 0.36753 0.0
C799 C 0.13895 0.18139 0.36179 0.0
C800 C 0.88256 0.92198 0.36078 0.0
C801 C 0.83191 0.88221 0.36228 0.0
C802 C 0.89392 0.97143 0.355 0.0
C803 C 0.85485 0.98201 0.35041 0.0
H804 H 0.91322 0.91543 0.365 0.0
H805 H 0.93319 0.00134 0.35416 0.0
S806 S 0.71672 0.8904 0.35104 0.0
N807 N 0.74299 0.85663 0.35809 0.0
N808 N 0.76422 0.9484 0.347 0.0
C809 C 0.80446 0.94216 0.35139 0.0
C810 C 0.79303 0.89254 0.35734 0.0
C811 C 0.02007 0.9122 0.36619 0.0
C812 C 0.01466 0.87944 0.34976 0.0
C813 C 0.06845 0.95076 0.37265 0.0
C814 C 0.11297 0.95803 0.36285 0.0
H815 H 0.98697 0.90704 0.37455 0.0
H816 H 0.0712 0.97327 0.3861 0.0
S817 S 0.12056 0.87926 0.3209 0.0
N818 N 0.05919 0.85578 0.32464 0.0
N819 N 0.14899 0.92733 0.33716 0.0
C820 C 0.10818 0.92602 0.3464 0.0
C821 C 0.05933 0.88702 0.33975 0.0
C822 C 0.8098 0.85306 0.8579 0.0
C823 C 0.85668 0.86904 0.84842 0.0
C824 C 0.79638 0.88806 0.86482 0.0
C825 C 0.82908 0.94077 0.86245 0.0
H826 H 0.78312 0.81293 0.86002 0.0
H827 H 0.75966 0.87327 0.8722 0.0
S828 S 0.95616 0.00178 0.83771 0.0
N829 N 0.93608 0.94032 0.83639 0.0
N830 N 0.91039 0.00702 0.84922 0.0
C831 C 0.87596 0.95741 0.8525 0.0
C832 C 0.88998 0.92128 0.8456 0.0
C833 C 0.11897 0.97731 0.87143 0.0
C834 C 0.12262 0.99173 0.85059 0.0
C835 C 0.08206 0.92876 0.8779 0.0
C836 C 0.04678 0.89273 0.8639 0.0
H837 H 0.14689 0.00246 0.88257 0.0
H838 H 0.083 0.91853 0.89391 0.0
S839 S 0.03266 0.91741 0.80874 0.0
N840 N 0.0832 0.97009 0.81663 0.0
N841 N 0.01243 0.87903 0.82902 0.0
C842 C 0.04667 0.90876 0.84349 0.0
C843 C 0.08512 0.95816 0.83676 0.0
C844 C 0.05369 0.16171 0.83651 0.0
C845 C 0.01108 0.13516 0.84963 0.0
C846 C 0.10205 0.17083 0.84225 0.0
C847 C 0.1101 0.15365 0.86122 0.0
H848 H 0.0505 0.17806 0.82207 0.0
H849 H 0.13399 0.19508 0.83255 0.0
S850 S 0.01141 0.07589 0.89992 0.0
N851 N 0.98009 0.08685 0.88166 0.0
N852 N 0.0712 0.10437 0.89223 0.0
C853 C 0.06762 0.12388 0.87378 0.0
C854 C 0.01815 0.11451 0.86804 0.0
C855 C 0.92323 0.89262 0.68597 0.0
C856 C 0.87297 0.85398 0.68999 0.0
C857 C 0.9607 0.88058 0.67991 0.0
C858 C 0.94847 0.82965 0.67742 0.0
H859 H 0.93348 0.93209 0.68743 0.0
H860 H 0.99847 0.91108 0.67614 0.0
S861 S 0.82267 0.71518 0.68637 0.0
N862 N 0.81395 0.76327 0.69181 0.0
N863 N 0.88296 0.74094 0.67972 0.0
C864 C 0.89864 0.79118 0.68179 0.0
C865 C 0.86125 0.80325 0.68826 0.0
C866 C 0.16016 0.07624 0.66054 0.0
C867 C 0.15689 0.11133 0.67385 0.0
C868 C 0.14719 0.02753 0.66717 0.0
C869 C 0.13095 0.0119 0.68751 0.0
H870 H 0.17525 0.08719 0.645 0.0
H871 H 0.15312 0.00318 0.65667 0.0
S872 S 0.10131 0.08219 0.72668 0.0
N873 N 0.12496 0.12198 0.70692 0.0
N874 N 0.10295 0.03072 0.71982 0.0
C875 C 0.12278 0.04426 0.70047 0.0
C876 C 0.1349 0.09385 0.69348 0.0
C877 C 0.91097 0.04108 0.68967 0.0
C878 C 0.8862 0.05578 0.67506 0.0
C879 C 0.96045 0.07613 0.69684 0.0
C880 C 0.98721 0.1261 0.68898 0.0
H881 H 0.89225 0.00252 0.69551 0.0
H882 H 0.97798 0.06405 0.70841 0.0
S883 S 0.94005 0.18375 0.6508 0.0
N884 N 0.89211 0.12586 0.65441 0.0
N885 N 0.9863 0.18747 0.66536 0.0
C886 C 0.96337 0.1405 0.67412 0.0
C887 C 0.91257 0.10649 0.66785 0.0
C888 C 0.86246 0.4257 0.5239 0.0
C889 C 0.82565 0.3821 0.51363 0.0
C890 C 0.85297 0.46445 0.52975 0.0
C891 C 0.80631 0.46183 0.52534 0.0
H892 H 0.90017 0.43131 0.52639 0.0
H893 H 0.88365 0.49797 0.53693 0.0
S894 S 0.69553 0.35349 0.50019 0.0
N895 N 0.73955 0.33675 0.50028 0.0
N896 N 0.72131 0.40981 0.51142 0.0
C897 C 0.76819 0.41735 0.51585 0.0
C898 C 0.77792 0.37743 0.50999 0.0
C899 C 0.55 0.35365 0.50106 0.0
C900 C 0.54723 0.34026 0.522 0.0
C901 C 0.58491 0.40271 0.49439 0.0
C902 C 0.61882 0.43997 0.50831 0.0
H903 H 0.52249 0.3274 0.49005 0.0
H904 H 0.5832 0.41239 0.47836 0.0
S905 S 0.63408 0.41966 0.56382 0.0
N906 N 0.58588 0.36502 0.55606 0.0
N907 N 0.65291 0.45703 0.54324 0.0
C908 C 0.62006 0.42528 0.52881 0.0
C909 C 0.5837 0.37545 0.53574 0.0
C910 C 0.58281 0.20622 0.51755 0.0
C911 C 0.54699 0.15532 0.51285 0.0
C912 C 0.63298 0.22006 0.52344 0.0
C913 C 0.64824 0.18335 0.52483 0.0
H914 H 0.57274 0.23551 0.51589 0.0
H915 H 0.65979 0.25936 0.52696 0.0
S916 S 0.56788 0.04509 0.51567 0.0
N917 N 0.52999 0.06827 0.5113 0.0
N918 N 0.62303 0.09434 0.52213 0.0
C919 C 0.61214 0.13253 0.52094 0.0
C920 C 0.56185 0.11853 0.51502 0.0
C921 C 0.74617 0.46584 0.673 0.0
C922 C 0.77839 0.45977 0.687 0.0
C923 C 0.70929 0.47706 0.68007 0.0
C924 C 0.70436 0.48363 0.70123 0.0
H925 H 0.75122 0.46465 0.65643 0.0
H926 H 0.68767 0.48481 0.66891 0.0
S927 S 0.7704 0.46021 0.74438 0.0
N928 N 0.79561 0.45156 0.72323 0.0
N929 N 0.72763 0.47451 0.73628 0.0
C930 C 0.7322 0.47219 0.7154 0.0
C931 C 0.76898 0.45981 0.70833 0.0
C932 C 0.47899 0.23021 0.68262 0.0
C933 C 0.511 0.22077 0.69512 0.0
C934 C 0.49183 0.27962 0.67707 0.0
C935 C 0.53706 0.32219 0.68401 0.0
H936 H 0.44215 0.19921 0.67805 0.0
H937 H 0.46473 0.28457 0.66794 0.0
S938 S 0.63721 0.31759 0.715 0.0
N939 N 0.59214 0.2574 0.71291 0.0
N940 N 0.61659 0.3511 0.70237 0.0
C941 C 0.57086 0.31333 0.69571 0.0
C942 C 0.55778 0.26241 0.70125 0.0
C943 C 0.75172 0.2338 0.70792 0.0
C944 C 0.77781 0.28348 0.69971 0.0
C945 C 0.7016 0.19951 0.70242 0.0
C946 C 0.67565 0.21318 0.68829 0.0
H947 H 0.77013 0.22086 0.7187 0.0
H948 H 0.68362 0.16135 0.70872 0.0
S949 S 0.72384 0.3383 0.6632 0.0
N950 N 0.77181 0.34491 0.67754 0.0
N951 N 0.67769 0.27919 0.66661 0.0
C952 C 0.7004 0.2624 0.68005 0.0
C953 C 0.75148 0.29787 0.6859 0.0
C954 C 0.55049 0.23648 0.20155 0.0
C955 C 0.53741 0.21666 0.18138 0.0
C956 C 0.54131 0.27504 0.20827 0.0
C957 C 0.51954 0.29574 0.19503 0.0
H958 H 0.56463 0.21987 0.21268 0.0
H959 H 0.54809 0.28633 0.22441 0.0
S960 S 0.48397 0.26092 0.14018 0.0
N961 N 0.50697 0.22467 0.14757 0.0
N962 N 0.48804 0.29558 0.16056 0.0
C963 C 0.50987 0.27895 0.17446 0.0
C964 C 0.51931 0.23983 0.16756 0.0
C965 C 0.73628 0.30448 0.18111 0.0
C966 C 0.78796 0.31939 0.18392 0.0
C967 C 0.69708 0.25593 0.18769 0.0
C968 C 0.70886 0.22042 0.19633 0.0
H969 H 0.72621 0.33073 0.17423 0.0
H970 H 0.65794 0.24687 0.18658 0.0
S971 S 0.83708 0.24294 0.20895 0.0
N972 N 0.84697 0.29722 0.19906 0.0
N973 N 0.77578 0.20379 0.20673 0.0
C974 C 0.76038 0.23477 0.19819 0.0
C975 C 0.79929 0.28483 0.19331 0.0
C976 C 0.73898 0.45163 0.19524 0.0
C977 C 0.78294 0.49908 0.19194 0.0
C978 C 0.69071 0.44292 0.1891 0.0
C979 C 0.68515 0.48144 0.17944 0.0
H980 H 0.7415 0.42228 0.20377 0.0
H981 H 0.65756 0.40642 0.19238 0.0
S982 S 0.78898 0.61221 0.16763 0.0
N983 N 0.81789 0.58435 0.17842 0.0
N984 N 0.72831 0.56856 0.16683 0.0
C985 C 0.72933 0.52827 0.17545 0.0
C986 C 0.77791 0.53692 0.1817 0.0
C987 C 0.62956 0.20964 0.02136 0.0
C988 C 0.61245 0.16599 1.00895 0.0
C989 C 0.5954 0.22519 0.02828 0.0
C990 C 0.54396 0.19852 0.02231 0.0
H991 H 0.66946 0.23265 0.02512 0.0
H992 H 0.60947 0.25895 0.03777 0.0
S993 S 0.47834 0.07607 0.99436 0.0
N994 N 0.53863 0.09158 0.99452 0.0
N995 N 0.47624 0.12272 1.00645 0.0
C996 C 0.52613 0.1534 1.01118 0.0
C997 C 0.56 0.13672 1.00474 0.0
C998 C 0.77844 0.35234 1.00666 0.0
C999 C 0.80083 0.3457 0.0246 0.0
C1000 C 0.79103 0.40114 0.99975 0.0
C1001 C 0.8255 0.44477 1.01078 0.0
H1002 H 0.75272 0.31984 0.99739 0.0
H1003 H 0.77574 0.40491 0.98513 0.0
S1004 S 0.89684 0.44931 0.05784 0.0
N1005 N 0.86039 0.3882 0.05296 0.0
N1006 N 0.88292 0.47898 0.03986 0.0
C1007 C 0.84678 0.43883 0.029 0.0
C1008 C 0.83459 0.38951 0.03598 0.0
C1009 C 0.56822 0.42334 1.0173 0.0
C1010 C 0.55448 0.37555 1.00898 0.0
C1011 C 0.61861 0.45802 0.02233 0.0
C1012 C 0.6575 0.44669 1.01889 0.0
H1013 H 0.53996 0.43476 1.01924 0.0
H1014 H 0.62742 0.49462 0.02856 0.0
S1015 S 0.64186 0.32723 0.99724 0.0
N1016 N 0.58367 0.3185 0.99745 0.0
N1017 N 0.6791 0.38429 1.00706 0.0
C1018 C 0.64446 0.39889 1.01087 0.0
C1019 C 0.59268 0.36309 1.0059 0.0
C1020 C 0.52741 0.80351 0.85987 0.0
C1021 C 0.4774 0.79452 0.85951 0.0
C1022 C 0.53868 0.76614 0.8539 0.0
C1023 C 0.50047 0.7177 0.84762 0.0
H1024 H 0.55856 0.84055 0.86413 0.0
H1025 H 0.57819 0.77602 0.85335 0.0
S1026 S 0.36261 0.67266 0.846 0.0
N1027 N 0.38852 0.7323 0.85381 0.0
N1028 N 0.40997 0.66137 0.84261 0.0
C1029 C 0.44987 0.70702 0.84812 0.0
C1030 C 0.43829 0.74567 0.85399 0.0
C1031 C 0.23423 0.68763 0.84216 0.0
C1032 C 0.20663 0.68298 0.86039 0.0
C1033 C 0.27406 0.7348 0.8356 0.0
C1034 C 0.28871 0.77904 0.84718 0.0
H1035 H 0.22353 0.65511 0.83224 0.0
H1036 H 0.29151 0.73718 0.82069 0.0
S1037 S 0.23244 0.78797 0.89675 0.0
N1038 N 0.19993 0.72715 0.8907 0.0
N1039 N 0.2747 0.81555 0.87808 0.0
C1040 C 0.26396 0.77479 0.86602 0.0
C1041 C 0.22301 0.72682 0.87271 0.0
C1042 C 0.2936 0.54378 0.86721 0.0
C1043 C 0.32212 0.52499 0.85729 0.0
C1044 C 0.24585 0.53305 0.85935 0.0
C1045 C 0.22491 0.50199 0.84174 0.0
H1046 H 0.30863 0.5675 0.88084 0.0
H1047 H 0.22559 0.54936 0.86695 0.0
S1048 S 0.28282 0.438 0.81234 0.0
N1049 N 0.32534 0.47242 0.82997 0.0
N1050 N 0.23519 0.44821 0.81627 0.0
C1051 C 0.25262 0.48111 0.83254 0.0
C1052 C 0.30135 0.49368 0.84003 0.0
C1053 C 0.42039 0.77111 0.03803 0.0
C1054 C 0.44615 0.788 1.01905 0.0
C1055 C 0.38402 0.78423 0.04403 0.0
C1056 C 0.37172 0.8139 0.03115 0.0
H1057 H 0.42985 0.74952 0.04866 0.0
H1058 H 0.36746 0.77353 0.05936 0.0
S1059 S 0.43213 0.8725 0.98124 0.0
N1060 N 0.45829 0.8385 0.98795 0.0
N1061 N 0.3901 0.86245 0.99947 0.0
C1062 C 0.39614 0.82996 1.01203 0.0
C1063 C 0.43329 0.8171 1.00592 0.0
C1064 C 0.16143 0.60521 1.00385 0.0
C1065 C 0.19613 0.64951 1.01473 0.0
C1066 C 0.15139 0.55677 1.01004 0.0
C1067 C 0.17594 0.55052 0.0272 0.0
H1068 H 0.13942 0.60738 0.99112 0.0
H1069 H 0.12144 0.52377 1.00226 0.0
S1070 S 0.27653 0.65339 0.05877 0.0
N1071 N 0.26021 0.68354 0.04189 0.0
N1072 N 0.24056 0.59229 0.05356 0.0
C1073 C 0.21356 0.59429 0.0372 0.0
C1074 C 0.22393 0.6438 0.03093 0.0
C1075 C 0.36403 0.52627 0.03552 0.0
C1076 C 0.34349 0.53777 1.01842 0.0
C1077 C 0.41248 0.56065 0.04268 0.0
C1078 C 0.44244 0.60852 0.03323 0.0
H1079 H 0.34301 0.48967 0.04311 0.0
H1080 H 0.42646 0.54897 0.05578 0.0
S1081 S 0.40301 0.65793 0.98865 0.0
N1082 N 0.35451 0.60011 0.99241 0.0
N1083 N 0.44565 0.66629 1.0064 0.0
C1084 C 0.42141 0.62106 1.01637 0.0
C1085 C 0.37192 0.58527 1.00882 0.0
C1086 C 0.22934 0.58871 0.51811 0.0
C1087 C 0.18927 0.53854 0.51534 0.0
C1088 C 0.21957 0.62743 0.52451 0.0
C1089 C 0.16961 0.61651 0.52847 0.0
H1090 H 0.26818 0.59786 0.51552 0.0
H1091 H 0.25119 0.66514 0.52745 0.0
S1092 S 0.05204 0.4918 0.52265 0.0
N1093 N 0.09822 0.48096 0.51612 0.0
N1094 N 0.08011 0.55273 0.5285 0.0
C1095 C 0.1296 0.56685 0.52516 0.0
C1096 C 0.13937 0.52807 0.51853 0.0
C1097 C 0.44379 0.64703 0.53793 0.0
C1098 C 0.45645 0.65751 0.51687 0.0
C1099 C 0.40579 0.59861 0.54442 0.0
C1100 C 0.37832 0.55896 0.53016 0.0
H1101 H 0.46563 0.6752 0.5496 0.0
H1102 H 0.39991 0.59127 0.56092 0.0
S1103 S 0.39209 0.56961 0.47306 0.0
N1104 N 0.4344 0.62638 0.48158 0.0
N1105 N 0.36386 0.53547 0.49388 0.0
C1106 C 0.38788 0.57029 0.509 0.0
C1107 C 0.42675 0.61952 0.50235 0.0
C1108 C 0.41027 0.82654 0.5451 0.0
C1109 C 0.44682 0.82802 0.53123 0.0
C1110 C 0.36212 0.81549 0.53836 0.0
C1111 C 0.34868 0.80616 0.51738 0.0
H1112 H 0.41974 0.83645 0.56125 0.0
H1113 H 0.33636 0.81719 0.5495 0.0
S1114 S 0.42572 0.79547 0.47537 0.0
N1115 N 0.46272 0.81157 0.49601 0.0
N1116 N 0.37233 0.7918 0.4832 0.0
C1117 C 0.38302 0.80362 0.50356 0.0
C1118 C 0.43201 0.81409 0.51054 0.0
C1119 C 0.24267 0.55406 0.34553 0.0
C1120 C 0.20579 0.52075 0.35976 0.0
C1121 C 0.28238 0.54627 0.33887 0.0
C1122 C 0.28714 0.50543 0.34642 0.0
H1123 H 0.23985 0.58529 0.33891 0.0
H1124 H 0.30781 0.57063 0.32686 0.0
S1125 S 0.20214 0.40771 0.38394 0.0
N1126 N 0.17794 0.44533 0.3813 0.0
N1127 N 0.25286 0.43207 0.36893 0.0
C1128 C 0.25207 0.47323 0.36116 0.0
C1129 C 0.2114 0.48055 0.36781 0.0
C1130 C 0.43679 0.69691 0.35462 0.0
C1131 C 0.47398 0.68248 0.3566 0.0
C1132 C 0.4504 0.7469 0.34855 0.0
C1133 C 0.50128 0.78312 0.3441 0.0
H1134 H 0.39733 0.66961 0.35771 0.0
H1135 H 0.42097 0.75656 0.34651 0.0
S1136 S 0.61203 0.76339 0.34769 0.0
N1137 N 0.56307 0.70822 0.35431 0.0
N1138 N 0.58858 0.80091 0.34287 0.0
C1139 C 0.53839 0.76883 0.34658 0.0
C1140 C 0.52472 0.7188 0.3528 0.0
C1141 C 0.26321 0.71476 0.33807 0.0
C1142 C 0.21821 0.70971 0.34647 0.0
C1143 C 0.31131 0.7544 0.34427 0.0
C1144 C 0.31619 0.79058 0.35911 0.0
H1145 H 0.26115 0.68957 0.32577 0.0
H1146 H 0.34471 0.75759 0.33688 0.0
S1147 S 0.209 0.79607 0.38434 0.0
N1148 N 0.18128 0.74558 0.36926 0.0
N1149 N 0.27052 0.8188 0.38152 0.0
C1150 C 0.27103 0.78509 0.36783 0.0
C1151 C 0.22242 0.7451 0.36134 0.0
C1152 C 0.2877 0.3936 0.19492 0.0
C1153 C 0.25018 0.34319 0.19059 0.0
C1154 C 0.33928 0.41026 0.19134 0.0
C1155 C 0.35409 0.37659 0.18348 0.0
H1156 H 0.27814 0.41738 0.20415 0.0
H1157 H 0.36753 0.44666 0.19756 0.0
S1158 S 0.26932 0.24511 0.16547 0.0
N1159 N 0.23048 0.26442 0.1737 0.0
N1160 N 0.32704 0.29407 0.16843 0.0
C1161 C 0.31638 0.32931 0.17602 0.0
C1162 C 0.26413 0.31328 0.17891 0.0
C1163 C 0.59787 0.93735 0.21072 0.0
C1164 C 0.60486 0.96452 0.19225 0.0
C1165 C 0.61507 0.90257 0.21235 0.0
C1166 C 0.64504 0.89938 0.19639 0.0
H1167 H 0.58494 0.94752 0.2246 0.0
H1168 H 0.61574 0.88827 0.22768 0.0
S1169 S 0.64364 0.9371 0.14207 0.0
N1170 N 0.61932 0.96632 0.1553 0.0
N1171 N 0.6569 0.9047 0.1591 0.0
C1172 C 0.63995 0.91566 0.17667 0.0
C1173 C 0.61979 0.94889 0.17459 0.0
C1174 C 0.09586 0.71608 0.21487 0.0
C1175 C 0.10066 0.74717 0.19783 0.0
C1176 C 0.06253 0.66372 0.21387 0.0
C1177 C 0.03696 0.64087 0.19533 0.0
H1178 H 0.10847 0.73288 0.23008 0.0
H1179 H 0.05188 0.64224 0.22821 0.0
S1180 S 0.06951 0.70213 0.14375 0.0
N1181 N 0.09901 0.74963 0.16029 0.0
N1182 N 0.03951 0.64978 0.15784 0.0
C1183 C 0.05415 0.66967 0.17709 0.0
C1184 C 0.08634 0.72356 0.17841 0.0
C1185 C 0.37938 0.28351 0.32727 0.0
C1186 C 0.35042 0.25277 0.34395 0.0
C1187 C 0.40004 0.33616 0.32812 0.0
C1188 C 0.39543 0.35949 0.34614 0.0
H1189 H 0.37683 0.26655 0.31221 0.0
H1190 H 0.41351 0.35765 0.31383 0.0
S1191 S 0.35511 0.29797 0.39751 0.0
N1192 N 0.33928 0.2504 0.38122 0.0
N1193 N 0.38165 0.35045 0.38338 0.0
C1194 C 0.37979 0.33051 0.36439 0.0
C1195 C 0.35698 0.27649 0.36323 0.0
C1196 C 0.6604 0.07467 0.3451 0.0
C1197 C 0.64445 0.02875 0.35563 0.0
C1198 C 0.7123 0.11011 0.34289 0.0
C1199 C 0.74938 0.09957 0.35057 0.0
H1200 H 0.63332 0.08019 0.33626 0.0
H1201 H 0.72314 0.14102 0.332 0.0
S1202 S 0.726 0.99374 0.38564 0.0
N1203 N 0.66872 0.98148 0.37864 0.0
N1204 N 0.76626 0.04791 0.37429 0.0
C1205 C 0.73348 0.05919 0.36464 0.0
C1206 C 0.68072 0.02306 0.36689 0.0
C1207 C 0.89717 0.61103 0.33171 0.0
C1208 C 0.89998 0.64716 0.34613 0.0
C1209 C 0.93076 0.59227 0.33305 0.0
C1210 C 0.96456 0.60551 0.34978 0.0
H1211 H 0.87728 0.60592 0.31718 0.0
H1212 H 0.93456 0.57259 0.31977 0.0
S1213 S 0.96197 0.67164 0.39744 0.0
N1214 N 0.92293 0.6776 0.38139 0.0
N1215 N 0.98317 0.63857 0.38488 0.0
C1216 C 0.9573 0.62979 0.36681 0.0
C1217 C 0.92459 0.65073 0.36495 0.0
C1218 C 0.68864 0.66578 0.86636 0.0
C1219 C 0.64965 0.62099 0.85745 0.0
C1220 C 0.7398 0.67959 0.86373 0.0
C1221 C 0.753 0.65036 0.85107 0.0
H1222 H 0.67997 0.69314 0.87314 0.0
H1223 H 0.76853 0.71772 0.86813 0.0
S1224 S 0.66527 0.5232 0.82983 0.0
N1225 N 0.62756 0.54174 0.84021 0.0
N1226 N 0.72383 0.56891 0.83464 0.0
C1227 C 0.7145 0.60134 0.84572 0.0
C1228 C 0.66245 0.58676 0.84865 0.0
C1229 C 0.31849 0.05584 0.86541 0.0
C1230 C 0.34805 0.09938 0.85331 0.0
C1231 C 0.3321 0.0182 0.86734 0.0
C1232 C 0.37728 0.02489 0.85851 0.0
H1233 H 0.28026 0.04608 0.8698 0.0
H1234 H 0.30446 0.98154 0.87358 0.0
S1235 S 0.47685 0.14129 0.83304 0.0
N1236 N 0.43056 0.15339 0.83778 0.0
N1237 N 0.4577 0.08401 0.8425 0.0
C1238 C 0.41197 0.07282 0.85052 0.0
C1239 C 0.39736 0.11043 0.84805 0.0
C1240 C 0.95561 0.26526 0.84157 0.0
C1241 C 0.907 0.2513 0.84896 0.0
C1242 C 0.99329 0.31594 0.84 0.0
C1243 C 0.98458 0.35521 0.84613 0.0
H1244 H 0.96567 0.23728 0.83746 0.0
H1245 H 0.02997 0.32439 0.83398 0.0
S1246 S 0.8653 0.33908 0.86859 0.0
N1247 N 0.85288 0.28052 0.86393 0.0
N1248 N 0.92461 0.37697 0.86113 0.0
C1249 C 0.93693 0.34217 0.85447 0.0
C1250 C 0.89803 0.28995 0.85587 0.0
C1251 C 0.58731 0.66152 0.69477 0.0
C1252 C 0.61688 0.64772 0.6827 0.0
C1253 C 0.60376 0.71285 0.6987 0.0
C1254 C 0.65063 0.75144 0.69096 0.0
H1255 H 0.5557 0.63292 0.7037 0.0
H1256 H 0.58434 0.72169 0.71064 0.0
S1257 S 0.73154 0.73432 0.65268 0.0
N1258 N 0.68667 0.67597 0.65847 0.0
N1259 N 0.71839 0.77238 0.6662 0.0
C1260 C 0.67464 0.73805 0.67565 0.0
C1261 C 0.65777 0.68587 0.67159 0.0
C1262 C 0.33883 0.92855 0.69132 0.0
C1263 C 0.35338 0.97457 0.68106 0.0
C1264 C 0.28725 0.89293 0.69429 0.0
C1265 C 0.24938 0.90316 0.68738 0.0
H1266 H 0.36684 0.92348 0.6997 0.0
H1267 H 0.27754 0.86222 0.70515 0.0
S1268 S 0.26862 0.00978 0.65375 0.0
N1269 N 0.3266 0.02197 0.6594 0.0
N1270 N 0.22979 0.95489 0.66491 0.0
C1271 C 0.26365 0.94338 0.6734 0.0
C1272 C 0.316 0.97988 0.67054 0.0
C1273 C 0.06653 0.40672 0.68607 0.0
C1274 C 0.01342 0.37578 0.68721 0.0
C1275 C 0.0981 0.3854 0.68851 0.0
C1276 C 0.07689 0.33307 0.69233 0.0
H1277 H 0.08359 0.44765 0.68565 0.0
H1278 H 0.13865 0.41055 0.69008 0.0
S1279 S 0.94002 0.23854 0.69807 0.0
N1280 N 0.94143 0.29133 0.69125 0.0
N1281 N 0.99978 0.25253 0.69772 0.0
C1282 C 0.02379 0.30192 0.69156 0.0
C1283 C 0.99221 0.32315 0.68856 0.0
C1284 C 0.93098 0.6428 0.52919 0.0
C1285 C 0.91779 0.67931 0.52379 0.0
C1286 C 0.9814 0.65526 0.53082 0.0
C1287 C 0.02114 0.70473 0.52677 0.0
H1288 H 0.90243 0.60389 0.53167 0.0
H1289 H 0.98932 0.62563 0.53542 0.0
S1290 S 0.00711 0.81304 0.50931 0.0
N1291 N 0.9482 0.76605 0.51252 0.0
N1292 N 0.04431 0.78975 0.51529 0.0
C1293 C 0.00892 0.74123 0.52011 0.0
C1294 C 0.95691 0.7284 0.51866 0.0
C1295 C 0.27272 0.2262 0.53078 0.0
C1296 C 0.32046 0.2358 0.52361 0.0
C1297 C 0.25623 0.26128 0.52729 0.0
C1298 C 0.28689 0.3065 0.51637 0.0
H1299 H 0.25209 0.19612 0.54194 0.0
H1300 H 0.22318 0.25645 0.53564 0.0
S1301 S 0.40725 0.34134 0.48934 0.0
N1302 N 0.39163 0.28708 0.50097 0.0
N1303 N 0.36113 0.35329 0.49465 0.0
C1304 C 0.32989 0.31169 0.5061 0.0
C1305 C 0.34624 0.27567 0.50944 0.0
C1306 C 0.68613 0.02392 0.50557 0.0
C1307 C 0.6952 0.98528 0.51252 0.0
C1308 C 0.7229 0.07531 0.50801 0.0
C1309 C 0.76825 0.08912 0.51867 0.0
H1310 H 0.64834 0.01452 0.50072 0.0
H1311 H 0.71159 0.10341 0.50529 0.0
S1312 S 0.81769 0.0034 0.53162 0.0
N1313 N 0.75894 0.96483 0.52375 0.0
N1314 N 0.82695 0.0616 0.52946 0.0
C1315 C 0.7816 0.05148 0.52144 0.0
C1316 C 0.74479 0.99914 0.5184 0.0
C1317 C 0.03611 0.66338 0.69826 0.0
C1318 C 0.06204 0.693 0.68091 0.0
C1319 C 0.0115 0.61012 0.69714 0.0
C1320 C 0.01234 0.5862 0.67863 0.0
H1321 H 0.02816 0.68062 0.71134 0.0
H1322 H 0.98481 0.58817 0.70926 0.0
S1323 S 0.08699 0.64801 0.63149 0.0
N1324 N 0.09664 0.6954 0.64683 0.0
N1325 N 0.05185 0.59581 0.64503 0.0
C1326 C 0.04754 0.6158 0.66326 0.0
C1327 C 0.07156 0.66957 0.66418 0.0
C1328 C 0.32941 0.40167 0.66318 0.0
C1329 C 0.30839 0.37582 0.68186 0.0
C1330 C 0.38192 0.43289 0.6611 0.0
C1331 C 0.41456 0.43609 0.67726 0.0
H1332 H 0.30622 0.39175 0.64932 0.0
H1333 H 0.39695 0.4454 0.64563 0.0
S1334 S 0.37577 0.40261 0.73193 0.0
N1335 N 0.32172 0.37544 0.7189 0.0
N1336 N 0.42143 0.43189 0.71458 0.0
C1337 C 0.39331 0.42159 0.69709 0.0
C1338 C 0.33952 0.39108 0.69943 0.0
C1339 C 0.59756 0.92893 0.66817 0.0
C1340 C 0.63417 0.94197 0.68379 0.0
C1341 C 0.56672 0.95098 0.66757 0.0
C1342 C 0.574 0.989 0.68187 0.0
H1343 H 0.59723 0.9068 0.65496 0.0
H1344 H 0.54453 0.94559 0.65368 0.0
S1345 S 0.6502 0.02086 0.72987 0.0
N1346 N 0.66399 0.98187 0.71735 0.0
N1347 N 0.60842 0.0263 0.71536 0.0
C1348 C 0.60287 0.99438 0.69961 0.0
C1349 C 0.6331 0.97054 0.70064 0.0
C1350 C 0.35162 0.98476 0.20229 0.0
C1351 C 0.31337 0.9449 0.19069 0.0
C1352 C 0.40302 0.00127 0.19848 0.0
C1353 C 0.4169 0.97971 0.1823 0.0
H1354 H 0.34222 0.00771 0.21215 0.0
H1355 H 0.43119 0.03681 0.20537 0.0
S1356 S 0.33077 0.86546 0.15192 0.0
N1357 N 0.29253 0.87665 0.16631 0.0
N1358 N 0.38903 0.90875 0.15866 0.0
C1359 C 0.37909 0.93387 0.17369 0.0
C1360 C 0.32694 0.91657 0.17779 0.0
C1361 C 0.05238 0.43855 0.18404 0.0
C1362 C 0.0004 0.41501 0.17902 0.0
C1363 C 0.07576 0.40904 0.18755 0.0
C1364 C 0.04707 0.35563 0.18674 0.0
H1365 H 0.07604 0.47937 0.18266 0.0
H1366 H 0.11675 0.4279 0.18854 0.0
S1367 S 0.915 0.27729 0.17006 0.0
N1368 N 0.92496 0.33569 0.1704 0.0
N1369 N 0.96568 0.28122 0.18081 0.0
C1370 C 0.9944 0.33217 0.18428 0.0
C1371 C 0.97176 0.36162 0.17922 0.0
C1372 C 0.5587 0.62691 0.17712 0.0
C1373 C 0.56993 0.58916 0.18326 0.0
C1374 C 0.59455 0.67869 0.17951 0.0
C1375 C 0.64186 0.69403 0.18873 0.0
H1376 H 0.52605 0.61676 0.16734 0.0
H1377 H 0.58767 0.70646 0.17191 0.0
S1378 S 0.68388 0.6102 0.21214 0.0
N1379 N 0.627 0.57078 0.20271 0.0
N1380 N 0.69411 0.66793 0.20735 0.0
C1381 C 0.6498 0.65681 0.19794 0.0
C1382 C 0.61328 0.60419 0.19553 0.0
C1383 C 0.30764 0.00924 1.00673 0.0
C1384 C 0.27879 0.97576 0.02273 0.0
C1385 C 0.32951 0.06206 1.00929 0.0
C1386 C 0.32332 0.0821 0.02797 0.0
H1387 H 0.3193 0.99527 0.99362 0.0
H1388 H 0.3578 0.08691 0.99818 0.0
S1389 S 0.24209 0.00953 0.0723 0.0
N1390 N 0.23768 0.96577 0.05596 0.0
N1391 N 0.27761 0.06442 0.06051 0.0
C1392 C 0.28663 0.04854 0.04211 0.0
C1393 C 0.26506 0.99518 0.03967 0.0
C1394 C 0.00283 0.2609 0.04002 0.0
C1395 C 0.02192 0.29402 0.02301 0.0
C1396 C 0.95066 0.22706 0.04198 0.0
C1397 C 0.91631 0.22853 0.02774 0.0
H1398 H 0.02721 0.26583 0.05311 0.0
H1399 H 0.93689 0.20784 0.05672 0.0
S1400 S 0.94976 0.28718 0.97592 0.0
N1401 N 0.00499 0.30988 0.98788 0.0
N1402 N 0.90611 0.24935 0.99261 0.0
C1403 C 0.93591 0.25227 1.00872 0.0
C1404 C 0.98927 0.28531 1.00627 0.0
C1405 C 0.72942 0.67534 1.0055 0.0
C1406 C 0.75553 0.67107 0.02267 0.0
C1407 C 0.69927 0.69823 1.0076 0.0
C1408 C 0.69375 0.71582 0.02707 0.0
H1409 H 0.72617 0.65448 0.99144 0.0
H1410 H 0.6752 0.69589 0.99479 0.0
S1411 S 0.7644 0.72325 0.07502 0.0
N1412 N 0.78504 0.69814 0.05764 0.0
N1413 N 0.72392 0.73499 0.06262 0.0
C1414 C 0.72616 0.7188 0.04322 0.0
C1415 C 0.75952 0.6992 0.0405 0.0
C1416 C 0.64103 0.99012 0.84301 0.0
C1417 C 0.68055 0.03746 0.84976 0.0
C1418 C 0.5901 0.97716 0.84538 0.0
C1419 C 0.57763 0.01002 0.85584 0.0
H1420 H 0.64927 0.96086 0.83822 0.0
H1421 H 0.56118 0.93793 0.84279 0.0
S1422 S 0.66672 0.1438 0.86975 0.0
N1423 N 0.70375 0.12206 0.86157 0.0
N1424 N 0.60783 0.09636 0.86723 0.0
C1425 C 0.61643 0.06041 0.85885 0.0
C1426 C 0.66829 0.07425 0.85586 0.0
C1427 C 0.01016 0.65295 0.84061 0.0
C1428 C 0.96138 0.64372 0.8459 0.0
C1429 C 0.02347 0.6153 0.84317 0.0
C1430 C 0.98915 0.56834 0.8522 0.0
H1431 H 0.03993 0.6912 0.83694 0.0
H1432 H 0.06326 0.62654 0.84184 0.0
S1433 S 0.85235 0.51979 0.86127 0.0
N1434 N 0.8749 0.57967 0.8544 0.0
N1435 N 0.90086 0.50967 0.86031 0.0
C1436 C 0.93806 0.55573 0.85362 0.0
C1437 C 0.92402 0.59364 0.85047 0.0
C1438 C 0.35171 0.35804 0.84149 0.0
C1439 C 0.35933 0.31835 0.84822 0.0
C1440 C 0.38929 0.40891 0.84435 0.0
C1441 C 0.43398 0.42146 0.85519 0.0
H1442 H 0.31441 0.34986 0.8364 0.0
H1443 H 0.37926 0.43778 0.84181 0.0
S1444 S 0.47982 0.33281 0.86815 0.0
N1445 N 0.42127 0.29558 0.85973 0.0
N1446 N 0.49048 0.39158 0.8664 0.0
C1447 C 0.44584 0.38283 0.85811 0.0
C1448 C 0.40835 0.33088 0.85454 0.0
C1449 C 0.68213 0.94538 0.02987 0.0
C1450 C 0.67664 0.91756 1.01173 0.0
C1451 C 0.70433 0.99852 0.02906 0.0
C1452 C 0.72025 0.02412 1.00998 0.0
H1453 H 0.66256 0.92576 0.0439 0.0
H1454 H 0.70258 0.01835 0.04269 0.0
S1455 S 0.72532 0.96882 0.95948 0.0
N1456 N 0.70048 0.92032 0.97569 0.0
N1457 N 0.73829 0.01906 0.97363 0.0
C1458 C 0.72281 0.99748 0.99268 0.0
C1459 C 0.70279 0.94422 0.99383 0.0
C1460 C 0.99271 0.73817 1.01442 0.0
C1461 C 0.97886 0.69241 0.02477 0.0
C1462 C 0.04412 0.77505 1.01198 0.0
C1463 C 0.0826 0.76608 1.01924 0.0
H1464 H 0.9646 0.74226 1.00565 0.0
H1465 H 0.05354 0.80566 1.00109 0.0
S1466 S 0.06469 0.66098 0.05353 0.0
N1467 N 0.0065 0.64689 0.04714 0.0
N1468 N 0.10295 0.71615 0.04244 0.0
C1469 C 0.06865 0.72615 0.03335 0.0
C1470 C 0.01649 0.68849 0.03578 0.0
C1471 C 0.28791 0.35876 0.0288 0.0
C1472 C 0.24022 0.32579 0.02001 0.0
C1473 C 0.32461 0.34394 0.03057 0.0
C1474 C 0.31348 0.2948 0.0249 0.0
H1475 H 0.3003 0.39875 0.03043 0.0
H1476 H 0.36339 0.37279 0.03397 0.0
S1477 S 0.18722 0.18867 1.01014 0.0
N1478 N 0.17905 0.23835 1.01178 0.0
N1479 N 0.24713 0.20931 1.01635 0.0
C1480 C 0.26279 0.2587 0.02061 0.0
C1481 C 0.22593 0.27437 1.01818 0.0
C1482 C 0.04219 0.26821 0.50778 0.0
C1483 C 0.08145 0.31402 0.51602 0.0
C1484 C 0.99116 0.25499 0.51016 0.0
C1485 C 0.97815 0.28599 0.52165 0.0
H1486 H 0.05108 0.24781 0.49631 0.0
H1487 H 0.96268 0.22425 0.50087 0.0
S1488 S 0.06495 0.39572 0.55407 0.0
N1489 N 0.10267 0.3803 0.54153 0.0
N1490 N 0.00662 0.35465 0.5465 0.0
C1491 C 0.01606 0.32522 0.53351 0.0
C1492 C 0.06797 0.33879 0.53095 0.0
C1493 C 0.65475 0.73017 0.53215 0.0
C1494 C 0.68441 0.77156 0.51903 0.0
C1495 C 0.66556 0.69061 0.5341 0.0
C1496 C 0.70856 0.69392 0.5245 0.0
H1497 H 0.61768 0.72292 0.53713 0.0
H1498 H 0.63731 0.65518 0.54106 0.0
S1499 S 0.80962 0.80546 0.49696 0.0
N1500 N 0.76608 0.82116 0.50223 0.0
N1501 N 0.78857 0.74849 0.50712 0.0
C1502 C 0.74451 0.7405 0.51583 0.0
C1503 C 0.7325 0.77989 0.5133 0.0
C1504 C 0.26788 0.92815 0.53188 0.0
C1505 C 0.22833 0.91414 0.51751 0.0
C1506 C 0.30337 0.97962 0.53531 0.0
C1507 C 0.2988 0.01808 0.52516 0.0
H1508 H 0.27717 0.90009 0.53735 0.0
H1509 H 0.33804 0.98904 0.54353 0.0
S1510 S 0.19164 0.00039 0.49234 0.0
N1511 N 0.17903 0.9421 0.49774 0.0
N1512 N 0.24475 0.03874 0.50476 0.0
C1513 C 0.25372 0.00432 0.51444 0.0
C1514 C 0.21814 0.95202 0.51068 0.0
C1515 C 0.93584 0.37786 0.35683 0.0
C1516 C 0.98683 0.4154 0.35354 0.0
C1517 C 0.92046 0.32609 0.35498 0.0
C1518 C 0.95564 0.31115 0.34939 0.0
H1519 H 0.91031 0.38792 0.3644 0.0
H1520 H 0.88332 0.29819 0.36073 0.0
S1521 S 0.08894 0.39513 0.33325 0.0
N1522 N 0.06818 0.4343 0.33933 0.0
N1523 N 0.03997 0.33738 0.33638 0.0
C1524 C 0.00366 0.34835 0.34234 0.0
C1525 C 0.0188 0.40076 0.34383 0.0
C1526 C 0.67337 0.59315 0.3658 0.0
C1527 C 0.68978 0.63484 0.3524 0.0
C1528 C 0.62155 0.55819 0.36817 0.0
C1529 C 0.58487 0.56566 0.358 0.0
H1530 H 0.69994 0.59129 0.37645 0.0
H1531 H 0.61022 0.53125 0.38084 0.0
S1532 S 0.61006 0.65715 0.31551 0.0
N1533 N 0.66698 0.67244 0.32428 0.0
N1534 N 0.56915 0.60783 0.32939 0.0
C1535 C 0.60138 0.60076 0.3416 0.0
C1536 C 0.65428 0.63592 0.33891 0.0
C1537 C 0.40442 0.07787 0.35949 0.0
C1538 C 0.35735 0.04517 0.35024 0.0
C1539 C 0.44063 0.06258 0.36213 0.0
C1540 C 0.4301 0.01385 0.35597 0.0
H1541 H 0.41047 0.1121 0.3672 0.0
H1542 H 0.47275 0.08519 0.37215 0.0
S1543 S 0.31874 0.9211 0.32579 0.0
N1544 N 0.30705 0.9675 0.33086 0.0
N1545 N 0.37533 0.93912 0.33566 0.0
C1546 C 0.38774 0.9856 0.34322 0.0
C1547 C 0.35063 0.00078 0.34073 0.0
C1548 C 0.18984 0.38895 0.10677 0.0
C1549 C 0.18532 0.36853 0.08665 0.0
C1550 C 0.18021 0.35922 0.12485 0.0
C1551 C 0.16509 0.30734 0.1237 0.0
H1552 H 0.19661 0.42728 0.10853 0.0
H1553 H 0.17902 0.3756 0.13961 0.0
S1554 S 0.15327 0.2363 0.07529 0.0
N1555 N 0.16979 0.29401 0.0671 0.0
N1556 N 0.15117 0.23826 0.10084 0.0
C1557 C 0.165 0.28772 0.10385 0.0
C1558 C 0.17523 0.31813 0.08543 0.0
C1559 C 0.65523 0.85535 0.09461 0.0
C1560 C 0.63539 0.80531 0.08713 0.0
C1561 C 0.68711 0.8723 0.11243 0.0
C1562 C 0.69784 0.83899 0.12372 0.0
H1563 H 0.64603 0.88121 0.08679 0.0
H1564 H 0.70433 0.91163 0.11705 0.0
S1565 S 0.66007 0.70654 0.10908 0.0
N1566 N 0.63468 0.72543 0.09116 0.0
N1567 N 0.68901 0.75516 0.12491 0.0
C1568 C 0.6788 0.78956 0.11593 0.0
C1569 C 0.64911 0.77337 0.09764 0.0
C1570 C 0.18241 0.82208 0.12445 0.0
C1571 C 0.15568 0.84864 0.12339 0.0
C1572 C 0.19632 0.80618 0.10635 0.0
C1573 C 0.18379 0.81583 0.08645 0.0
H1574 H 0.19769 0.81868 0.13914 0.0
H1575 H 0.22175 0.7911 0.10786 0.0
S1576 S 0.10813 0.87794 0.07546 0.0
N1577 N 0.11265 0.87915 0.10099 0.0
N1578 N 0.138 0.84857 0.06707 0.0
C1579 C 0.15243 0.83744 0.08533 0.0
C1580 C 0.13879 0.8542 0.10377 0.0
C1581 C 0.39176 0.18121 0.43472 0.0
C1582 C 0.37102 0.18173 0.45427 0.0
C1583 C 0.36268 0.16833 0.41647 0.0
C1584 C 0.31151 0.15562 0.41686 0.0
H1585 H 0.42921 0.18535 0.4338 0.0
H1586 H 0.3787 0.16259 0.40242 0.0
S1587 S 0.24303 0.16501 0.46265 0.0
N1588 N 0.29911 0.17874 0.47195 0.0
N1589 N 0.24433 0.15417 0.43761 0.0
C1590 C 0.29233 0.16254 0.4357 0.0
C1591 C 0.32219 0.17602 0.45439 0.0
C1592 C 0.85 0.13564 0.43842 0.0
C1593 C 0.8436 0.15004 0.4183 0.0
C1594 C 0.83606 0.15245 0.45636 0.0
C1595 C 0.816 0.1852 0.45491 0.0
H1596 H 0.87074 0.11556 0.44038 0.0
H1597 H 0.84651 0.14455 0.47137 0.0
S1598 S 0.78579 0.22906 0.40613 0.0
N1599 N 0.8102 0.19415 0.39824 0.0
N1600 N 0.78521 0.22653 0.4317 0.0
C1601 C 0.80488 0.19567 0.43492 0.0
C1602 C 0.81825 0.17785 0.4167 0.0
C1603 C 0.80823 0.63776 0.41596 0.0
C1604 C 0.84512 0.68962 0.41693 0.0
C1605 C 0.78814 0.60872 0.43412 0.0
C1606 C 0.80481 0.63002 0.45397 0.0
H1607 H 0.79025 0.62113 0.40129 0.0
H1608 H 0.75619 0.57052 0.43267 0.0
S1609 S 0.90619 0.76211 0.46465 0.0
N1610 N 0.90142 0.75941 0.43914 0.0
N1611 N 0.86501 0.70471 0.47319 0.0
C1612 C 0.84573 0.68013 0.455 0.0
C1613 C 0.86556 0.70989 0.43649 0.0
C1614 C 0.83583 0.63885 0.9135 0.0
C1615 C 0.85086 0.69068 0.91428 0.0
C1616 C 0.82424 0.60952 0.93166 0.0
C1617 C 0.82647 0.63047 0.95141 0.0
H1618 H 0.83879 0.6223 0.89907 0.0
H1619 H 0.81806 0.57132 0.93039 0.0
S1620 S 0.85338 0.76168 0.96136 0.0
N1621 N 0.86015 0.75985 0.936 0.0
N1622 N 0.83696 0.70439 0.97012 0.0
C1623 C 0.83535 0.68052 0.95213 0.0
C1624 C 0.84802 0.71072 0.93357 0.0
C1625 C 0.27425 0.1548 0.93932 0.0
C1626 C 0.29503 0.15465 0.91975 0.0
C1627 C 0.30276 0.16548 0.95766 0.0
C1628 C 0.35357 0.17689 0.9573 0.0
H1629 H 0.23715 0.15148 0.94026 0.0
H1630 H 0.28683 0.17089 0.9718 0.0
S1631 S 0.42237 0.16985 0.91111 0.0
N1632 N 0.36667 0.1575 0.90187 0.0
N1633 N 0.42068 0.17885 0.9363 0.0
C1634 C 0.37283 0.1709 0.9383 0.0
C1635 C 0.34343 0.15928 0.91955 0.0
C1636 C 0.82808 0.17984 0.91634 0.0
C1637 C 0.84463 0.14445 0.91867 0.0
C1638 C 0.8168 0.20046 0.93377 0.0
C1639 C 0.82187 0.18682 0.95423 0.0
H1640 H 0.81872 0.18762 0.90108 0.0
H1641 H 0.79927 0.22342 0.93116 0.0
S1642 S 0.87311 0.10285 0.96838 0.0
N1643 N 0.87283 0.1026 0.94279 0.0
N1644 N 0.85142 0.1407 0.97541 0.0
C1645 C 0.84385 0.15593 0.95662 0.0
C1646 C 0.85511 0.13484 0.93888 0.0
C1647 C 0.68797 0.83562 0.58381 0.0
C1648 C 0.63641 0.82178 0.58479 0.0
C1649 C 0.71767 0.84659 0.602 0.0
C1650 C 0.69705 0.84349 0.62197 0.0
H1651 H 0.70685 0.84345 0.56891 0.0
H1652 H 0.75828 0.86266 0.60029 0.0
S1653 S 0.56204 0.80128 0.63302 0.0
N1654 N 0.56474 0.79971 0.60748 0.0
N1655 N 0.61996 0.8194 0.64138 0.0
C1656 C 0.64433 0.82415 0.62315 0.0
C1657 C 0.6143 0.81371 0.60467 0.0
C1658 C 0.1688 0.85312 0.58281 0.0
C1659 C 0.19449 0.8258 0.58552 0.0
C1660 C 0.15042 0.86789 0.59998 0.0
C1661 C 0.15765 0.85673 0.62053 0.0
H1662 H 0.15767 0.85796 0.56741 0.0
H1663 H 0.12622 0.8839 0.59707 0.0
S1664 S 0.22859 0.79219 0.63595 0.0
N1665 N 0.23134 0.79362 0.61039 0.0
N1666 N 0.19711 0.82133 0.64242 0.0
C1667 C 0.18807 0.83449 0.62343 0.0
C1668 C 0.20643 0.81915 0.60599 0.0
C1669 C 0.16042 0.30796 0.58229 0.0
C1670 C 0.18228 0.36105 0.58324 0.0
C1671 C 0.14478 0.27783 0.60038 0.0
C1672 C 0.14986 0.29922 0.6203 0.0
H1673 H 0.16051 0.29014 0.56776 0.0
H1674 H 0.13349 0.23806 0.59895 0.0
S1675 S 0.19735 0.4355 0.63087 0.0
N1676 N 0.20266 0.433 0.60546 0.0
N1677 N 0.17261 0.3765 0.63933 0.0
C1678 C 0.16659 0.35151 0.62119 0.0
C1679 C 0.18315 0.38234 0.60274 0.0
C1680 C 0.99038 0.53174 0.759 0.0
C1681 C 0.96986 0.48204 0.75095 0.0
C1682 C 0.02065 0.54692 0.77737 0.0
C1683 C 0.03016 0.51246 0.78851 0.0
H1684 H 0.98273 0.55874 0.75122 0.0
H1685 H 0.03726 0.58579 0.78264 0.0
S1686 S 0.98613 0.37859 0.77378 0.0
N1687 N 0.96352 0.39964 0.75555 0.0
N1688 N 0.01658 0.4269 0.78966 0.0
C1689 C 0.00923 0.46295 0.78054 0.0
C1690 C 0.9803 0.44816 0.76192 0.0
C1691 C 0.48826 0.51454 0.75172 0.0
C1692 C 0.51686 0.48985 0.75195 0.0
C1693 C 0.47353 0.52803 0.77029 0.0
C1694 C 0.48678 0.51746 0.78989 0.0
H1695 H 0.48216 0.52866 0.73722 0.0
H1696 H 0.45643 0.55178 0.76928 0.0
S1697 S 0.555 0.4468 0.79886 0.0
N1698 N 0.55283 0.45027 0.77337 0.0
N1699 N 0.52488 0.47511 0.80815 0.0
C1700 C 0.51051 0.48794 0.79028 0.0
C1701 C 0.5258 0.47451 0.77135 0.0
C1702 C 0.51144 0.05398 0.7734 0.0
C1703 C 0.50872 0.03204 0.7538 0.0
C1704 C 0.49965 0.02548 0.79182 0.0
C1705 C 0.48432 0.97355 0.79153 0.0
H1706 H 0.51803 0.09239 0.77436 0.0
H1707 H 0.49686 0.04283 0.80606 0.0
S1708 S 0.48078 0.90011 0.74509 0.0
N1709 N 0.49731 0.95698 0.73581 0.0
N1710 N 0.47442 0.90326 0.7704 0.0
C1711 C 0.48682 0.95257 0.7724 0.0
C1712 C 0.49938 0.98184 0.75356 0.0
C1713 C 0.47567 0.98423 0.25202 0.0
C1714 C 0.51355 0.03589 0.25253 0.0
C1715 C 0.46149 0.95395 0.2702 0.0
C1716 C 0.48398 0.97425 0.28963 0.0
H1717 H 0.46138 0.96569 0.23723 0.0
H1718 H 0.43636 0.91338 0.26869 0.0
S1719 S 0.58435 0.10723 0.29932 0.0
N1720 N 0.57135 0.10607 0.27444 0.0
N1721 N 0.54509 0.04955 0.30806 0.0
C1722 C 0.51866 0.0266 0.29055 0.0
C1723 C 0.53305 0.05726 0.2722 0.0
C1724 C 0.97463 0.48856 0.291 0.0
C1725 C 0.02738 0.50892 0.28918 0.0
C1726 C 0.94276 0.47326 0.2734 0.0
C1727 C 0.96182 0.47746 0.25301 0.0
H1728 H 0.95846 0.48936 0.30586 0.0
H1729 H 0.90333 0.46243 0.27569 0.0
S1730 S 0.09611 0.51973 0.24022 0.0
N1731 N 0.0963 0.52609 0.26566 0.0
N1732 N 0.03668 0.49701 0.23271 0.0
C1733 C 0.01369 0.49268 0.25124 0.0
C1734 C 0.04629 0.5087 0.26922 0.0
C1735 C 0.52508 0.4749 0.27119 0.0
C1736 C 0.51668 0.48676 0.25092 0.0
C1737 C 0.5106 0.49183 0.28892 0.0
C1738 C 0.48619 0.52061 0.28714 0.0
H1739 H 0.53866 0.44838 0.27334 0.0
H1740 H 0.51327 0.47734 0.30393 0.0
S1741 S 0.46038 0.56679 0.238 0.0
N1742 N 0.48729 0.53389 0.23046 0.0
N1743 N 0.45901 0.5644 0.26358 0.0
C1744 C 0.48176 0.53644 0.26711 0.0
C1745 C 0.49729 0.51994 0.24907 0.0
C1746 C 0.96203 0.1978 0.27135 0.0
C1747 C 0.96876 0.1738 0.28886 0.0
C1748 C 0.9939 0.21068 0.25387 0.0
C1749 C 0.03342 0.19957 0.25319 0.0
H1750 H 0.93177 0.20677 0.27119 0.0
H1751 H 0.98841 0.23055 0.24109 0.0
S1752 S 0.06308 0.13137 0.29371 0.0
N1753 N 0.01543 0.13595 0.30356 0.0
N1754 N 0.075 0.15956 0.27087 0.0
C1755 C 0.03954 0.17425 0.27035 0.0
C1756 C 0.00744 0.16161 0.28815 0.0
C1757 C 0.81975 0.77587 0.26776 0.0
C1758 C 0.8248 0.79444 0.28823 0.0
C1759 C 0.80554 0.7963 0.25127 0.0
C1760 C 0.79546 0.836 0.25457 0.0
H1761 H 0.82716 0.74534 0.26432 0.0
H1762 H 0.80208 0.78058 0.2359 0.0
S1763 S 0.80567 0.90033 0.30468 0.0
N1764 N 0.81993 0.85614 0.31052 0.0
N1765 N 0.79333 0.8945 0.2797 0.0
C1766 C 0.80045 0.85502 0.27491 0.0
C1767 C 0.81493 0.83423 0.29168 0.0
C1768 C 0.1647 0.98744 0.28944 0.0
C1769 C 0.20919 0.03467 0.28787 0.0
C1770 C 0.1475 0.95339 0.27274 0.0
C1771 C 0.1736 0.96563 0.25362 0.0
H1772 H 0.14207 0.97752 0.3034 0.0
H1773 H 0.1127 0.91748 0.27475 0.0
S1774 S 0.29086 0.08603 0.24107 0.0
N1775 N 0.27865 0.09272 0.26543 0.0
N1776 N 0.2452 0.02928 0.2339 0.0
C1777 C 0.21744 0.01333 0.25163 0.0
C1778 C 0.23547 0.04767 0.26876 0.0
C1779 C 0.01505 0.80733 0.78767 0.0
C1780 C 0.9626 0.78327 0.7842 0.0
C1781 C 0.04944 0.82535 0.77109 0.0
C1782 C 0.03296 0.81955 0.75023 0.0
H1783 H 0.02986 0.81326 0.8033 0.0
H1784 H 0.08951 0.84477 0.77481 0.0
S1785 S 0.89922 0.75281 0.7326 0.0
N1786 N 0.89556 0.75023 0.75806 0.0
N1787 N 0.96034 0.78368 0.72713 0.0
C1788 C 0.98059 0.79311 0.74649 0.0
C1789 C 0.94548 0.775 0.76337 0.0
C1790 C 0.20492 0.18467 0.74914 0.0
C1791 C 0.18871 0.22 0.75206 0.0
C1792 C 0.21932 0.16564 0.76607 0.0
C1793 C 0.21949 0.18216 0.78661 0.0
H1794 H 0.20486 0.17021 0.73382 0.0
H1795 H 0.2295 0.13688 0.76297 0.0
S1796 S 0.19229 0.28353 0.80193 0.0
N1797 N 0.18112 0.27659 0.77679 0.0
N1798 N 0.21035 0.24235 0.80818 0.0
C1799 C 0.20753 0.22061 0.78948 0.0
C1800 C 0.19197 0.23934 0.77233 0.0
C1801 C 0.80876 0.04663 0.7695 0.0
C1802 C 0.83246 0.03886 0.78683 0.0
C1803 C 0.79382 0.01404 0.75214 0.0
C1804 C 0.80271 0.97295 0.75145 0.0
H1805 H 0.80093 0.07766 0.76952 0.0
H1806 H 0.77389 0.02007 0.73955 0.0
S1807 S 0.87046 0.94101 0.7912 0.0
N1808 N 0.86829 0.98993 0.80113 0.0
N1809 N 0.84133 0.92955 0.76861 0.0
C1810 C 0.82837 0.96632 0.76827 0.0
C1811 C 0.84291 0.99895 0.78594 0.0
C1812 C 0.68657 0.53037 0.62384 0.0
C1813 C 0.6351 0.51523 0.62102 0.0
C1814 C 0.72065 0.54632 0.60701 0.0
C1815 C 0.70507 0.54852 0.58658 0.0
H1816 H 0.70068 0.52904 0.63904 0.0
H1817 H 0.75956 0.55638 0.6101 0.0
S1818 S 0.57528 0.51783 0.57097 0.0
N1819 N 0.57095 0.50661 0.59611 0.0
N1820 N 0.63493 0.53752 0.56491 0.0
C1821 C 0.65412 0.5354 0.58367 0.0
C1822 C 0.61933 0.51866 0.60073 0.0
C1823 C 0.5182 0.17603 0.61553 0.0
C1824 C 0.49012 0.12583 0.62279 0.0
C1825 C 0.50327 0.19146 0.59761 0.0
C1826 C 0.46029 0.15699 0.58617 0.0
H1827 H 0.55239 0.20327 0.62355 0.0
H1828 H 0.5253 0.23073 0.59271 0.0
S1829 S 0.37293 0.02204 0.59927 0.0
N1830 N 0.41689 0.04211 0.61752 0.0
N1831 N 0.3887 0.07126 0.58391 0.0
C1832 C 0.43178 0.1069 0.59336 0.0
C1833 C 0.44685 0.09125 0.61164 0.0
C1834 C 0.89623 0.38257 0.60126 0.0
C1835 C 0.87035 0.369 0.62049 0.0
C1836 C 0.87993 0.34887 0.58431 0.0
C1837 C 0.837 0.30025 0.58595 0.0
H1838 H 0.92959 0.41967 0.59926 0.0
H1839 H 0.9015 0.36064 0.57002 0.0
S1840 S 0.75292 0.24768 0.63198 0.0
N1841 N 0.79833 0.30413 0.63955 0.0
N1842 N 0.76667 0.24168 0.6078 0.0
C1843 C 0.81021 0.2867 0.60491 0.0
C1844 C 0.82719 0.32068 0.62216 0.0
C1845 C 0.68108 0.10743 0.09491 0.0
C1846 C 0.69248 0.15186 0.08387 0.0
C1847 C 0.65183 0.09393 0.11319 0.0
C1848 C 0.63433 0.12523 0.12135 0.0
H1849 H 0.69529 0.0832 0.08945 0.0
H1850 H 0.64223 0.05848 0.12081 0.0
S1851 S 0.65769 0.24777 0.09938 0.0
N1852 N 0.68655 0.22848 0.08312 0.0
N1853 N 0.63183 0.20334 0.1174 0.0
C1854 C 0.6464 0.17022 0.11068 0.0
C1855 C 0.6756 0.18361 0.09201 0.0
C1856 C 0.84526 0.47957 0.10361 0.0
C1857 C 0.86673 0.51063 0.12128 0.0
C1858 C 0.8319 0.49687 0.08584 0.0
C1859 C 0.83954 0.5462 0.0848 0.0
H1860 H 0.83897 0.44122 0.10341 0.0
H1861 H 0.81443 0.47097 0.07299 0.0
S1862 S 0.89415 0.64326 0.12645 0.0
N1863 N 0.89476 0.59348 0.13642 0.0
N1864 N 0.86913 0.62604 0.10308 0.0
C1865 C 0.85997 0.57754 0.10242 0.0
C1866 C 0.87367 0.55983 0.12062 0.0
C1867 C 0.52163 0.38183 0.10169 0.0
C1868 C 0.49125 0.37217 0.11956 0.0
C1869 C 0.50436 0.34934 0.08445 0.0
C1870 C 0.45602 0.30591 0.08448 0.0
H1871 H 0.55952 0.41459 0.10114 0.0
H1872 H 0.52966 0.35728 0.07139 0.0
S1873 S 0.36028 0.2652 0.12642 0.0
N1874 N 0.40926 0.3177 0.13547 0.0
N1875 N 0.37704 0.256 0.10326 0.0
C1876 C 0.42475 0.29659 0.10194 0.0
C1877 C 0.44221 0.32986 0.11942 0.0
C1878 C 0.36174 0.83657 0.93505 0.0
C1879 C 0.36197 0.87042 0.92011 0.0
C1880 C 0.32979 0.82255 0.95245 0.0
C1881 C 0.29816 0.84311 0.95581 0.0
H1882 H 0.3867 0.82099 0.9333 0.0
H1883 H 0.32941 0.79503 0.96322 0.0
S1884 S 0.2834 0.93188 0.92097 0.0
N1885 N 0.32684 0.92297 0.90946 0.0
N1886 N 0.26704 0.89704 0.94228 0.0
C1887 C 0.29734 0.87622 0.94077 0.0
C1888 C 0.32943 0.89004 0.92294 0.0
C1889 C 0.19216 0.49497 0.94039 0.0
C1890 C 0.15711 0.4598 0.95474 0.0
C1891 C 0.176 0.50986 0.92258 0.0
C1892 C 0.12409 0.48954 0.91838 0.0
H1893 H 0.23252 0.51101 0.94294 0.0
H1894 H 0.20418 0.53817 0.91234 0.0
S1895 S 0.01734 0.3948 0.94999 0.0
N1896 N 0.06824 0.40413 0.96288 0.0
N1897 N 0.03805 0.43192 0.92947 0.0
C1898 C 0.08891 0.4542 0.93243 0.0
C1899 C 0.10528 0.43933 0.95058 0.0
C1900 C 0.54207 0.63246 0.93581 0.0
C1901 C 0.5121 0.63643 0.92007 0.0
C1902 C 0.55572 0.6631 0.95361 0.0
C1903 C 0.53932 0.69831 0.95633 0.0
H1904 H 0.55483 0.60513 0.93438 0.0
H1905 H 0.57994 0.65988 0.96509 0.0
S1906 S 0.45637 0.72036 0.9208 0.0
N1907 N 0.46407 0.67641 0.90904 0.0
N1908 N 0.4896 0.73399 0.94246 0.0
C1909 C 0.50874 0.70221 0.94089 0.0
C1910 C 0.49515 0.67129 0.92273 0.0
C1911 C 0.33749 0.44725 0.45173 0.0
C1912 C 0.2979 0.45822 0.45275 0.0
C1913 C 0.36955 0.46146 0.43429 0.0
C1914 C 0.36282 0.48659 0.41721 0.0
H1915 H 0.34329 0.42713 0.46432 0.0
H1916 H 0.40014 0.45298 0.43419 0.0
S1917 S 0.27001 0.53129 0.4141 0.0
N1918 N 0.25693 0.50012 0.43627 0.0
N1919 N 0.31723 0.52684 0.4037 0.0
C1920 C 0.32423 0.49888 0.41837 0.0
C1921 C 0.29181 0.48468 0.4361 0.0
C1922 C 0.51285 0.83211 0.41729 0.0
C1923 C 0.5155 0.87947 0.41813 0.0
C1924 C 0.52788 0.81391 0.4343 0.0
C1925 C 0.5461 0.84228 0.4528 0.0
H1926 H 0.49753 0.80824 0.40372 0.0
H1927 H 0.52436 0.77676 0.43306 0.0
S1928 S 0.56502 0.97072 0.46204 0.0
N1929 N 0.54109 0.956 0.43843 0.0
N1930 N 0.56874 0.92132 0.47033 0.0
C1931 C 0.54997 0.89009 0.45364 0.0
C1932 C 0.53498 0.90881 0.43631 0.0
C1933 C 0.15579 0.713 0.43467 0.0
C1934 C 0.15675 0.69718 0.45527 0.0
C1935 C 0.13848 0.67875 0.41792 0.0
C1936 C 0.12158 0.62708 0.42085 0.0
H1937 H 0.16851 0.75247 0.43132 0.0
H1938 H 0.13761 0.69266 0.40263 0.0
S1939 S 0.11671 0.56559 0.47147 0.0
N1940 N 0.13895 0.62579 0.47743 0.0
N1941 N 0.1074 0.56167 0.44623 0.0
C1942 C 0.12221 0.61065 0.4414 0.0
C1943 C 0.13946 0.64549 0.45847 0.0
loop_
_geom_bond_atom_site_label_1
_geom_bond_atom_site_label_2
_geom_bond_distance
_geom_bond_site_symmetry_2
_ccdc_geom_bond_type
O0 Mn1 2.163 . S
O0 C14 1.244 . S
Mn1 O0 2.163 . S
Mn1 O4 2.160 . S
Mn1 O5 2.221 . S
Mn1 O7 2.163 . S
Mn1 O9 2.160 . S
Mn1 O19 2.221 . S
O2 Mn3 2.087 . S
O2 C14 1.256 . S
Mn3 O2 2.087 . S
Mn3 O10 2.089 . S
Mn3 O19 2.290 . S
Mn3 O20 2.251 . S
O4 Mn1 2.160 . S
O4 C15 1.239 . S
O5 Mn1 2.221 . S
O5 Mn6 2.290 . S
O5 C16 1.278 1_455 S
Mn6 O5 2.290 . S
Mn6 O8 2.089 . S
Mn6 O11 2.251 1_455 S
Mn6 O12 2.087 . S
O7 Mn1 2.163 . S
O7 C17 1.244 . S
O8 Mn6 2.089 . S
O8 C15 1.256 . S
O9 Mn1 2.160 . S
O9 C18 1.239 . S
O10 Mn3 2.089 . S
O10 C18 1.256 . S
O11 Mn6 2.251 1_655 S
O11 C16 1.241 . S
O12 Mn6 2.087 . S
O12 C17 1.256 . S
C13 O19 1.278 . S
C13 O20 1.241 . S
C14 O0 1.244 . S
C14 O2 1.256 . S
C15 O4 1.239 . S
C15 O8 1.256 . S
C16 O5 1.278 1_655 S
C16 O11 1.241 . S
C17 O7 1.244 . S
C17 O12 1.256 . S
C18 O9 1.239 . S
C18 O10 1.256 . S
O19 Mn1 2.221 . S
O19 Mn3 2.290 . S
O19 C13 1.278 . S
O20 Mn3 2.251 . S
O20 C13 1.241 . S
O21 Mn22 2.163 . S
O21 C35 1.244 . S
Mn22 O21 2.163 . S
Mn22 O25 2.160 . S
Mn22 O26 2.221 . S
Mn22 O28 2.163 . S
Mn22 O30 2.160 . S
Mn22 O40 2.221 . S
O23 Mn24 2.087 . S
O23 C35 1.256 . S
Mn24 O23 2.087 . S
Mn24 O31 2.089 . S
Mn24 O40 2.290 . S
Mn24 O41 2.251 . S
O25 Mn22 2.160 . S
O25 C36 1.239 . S
O26 Mn22 2.221 . S
O26 Mn27 2.290 . S
O26 C37 1.278 . S
Mn27 O26 2.290 . S
Mn27 O29 2.089 . S
Mn27 O32 2.251 . S
Mn27 O33 2.087 . S
O28 Mn22 2.163 . S
O28 C38 1.244 . S
O29 Mn27 2.089 . S
O29 C36 1.256 . S
O30 Mn22 2.160 . S
O30 C39 1.239 . S
O31 Mn24 2.089 . S
O31 C39 1.256 . S
O32 Mn27 2.251 . S
O32 C37 1.241 . S
O33 Mn27 2.087 . S
O33 C38 1.256 . S
C34 O40 1.278 . S
C34 O41 1.241 . S
C35 O21 1.244 . S
C35 O23 1.256 . S
C36 O25 1.239 . S
C36 O29 1.256 . S
C37 O26 1.278 . S
C37 O32 1.241 . S
C38 O28 1.244 . S
C38 O33 1.256 . S
C39 O30 1.239 . S
C39 O31 1.256 . S
O40 Mn22 2.221 . S
O40 Mn24 2.290 . S
O40 C34 1.278 . S
O41 Mn24 2.251 . S
O41 C34 1.241 . S
O42 Mn43 2.163 . S
O42 C56 1.244 . S
Mn43 O42 2.163 . S
Mn43 O46 2.160 . S
Mn43 O47 2.221 . S
Mn43 O49 2.163 . S
Mn43 O51 2.160 . S
Mn43 O61 2.221 . S
O44 Mn45 2.087 . S
O44 C56 1.256 . S
Mn45 O44 2.087 . S
Mn45 O52 2.089 . S
Mn45 O61 2.290 . S
Mn45 O62 2.251 . S
O46 Mn43 2.160 . S
O46 C57 1.239 . S
O47 Mn43 2.221 . S
O47 Mn48 2.290 . S
O47 C58 1.278 1_565 S
Mn48 O47 2.290 . S
Mn48 O50 2.089 . S
Mn48 O53 2.251 1_565 S
Mn48 O54 2.087 . S
O49 Mn43 2.163 . S
O49 C59 1.244 . S
O50 Mn48 2.089 . S
O50 C57 1.256 . S
O51 Mn43 2.160 . S
O51 C60 1.239 . S
O52 Mn45 2.089 . S
O52 C60 1.256 . S
O53 Mn48 2.251 1_545 S
O53 C58 1.241 . S
O54 Mn48 2.087 . S
O54 C59 1.256 . S
C55 O61 1.278 . S
C55 O62 1.241 . S
C56 O42 1.244 . S
C56 O44 1.256 . S
C57 O46 1.239 . S
C57 O50 1.256 . S
C58 O47 1.278 1_545 S
C58 O53 1.241 . S
C59 O49 1.244 . S
C59 O54 1.256 . S
C60 O51 1.239 . S
C60 O52 1.256 . S
O61 Mn43 2.221 . S
O61 Mn45 2.290 . S
O61 C55 1.278 . S
O62 Mn45 2.251 . S
O62 C55 1.241 . S
O63 Mn64 2.163 . S
O63 C77 1.244 . S
Mn64 O63 2.163 . S
Mn64 O67 2.160 . S
Mn64 O68 2.221 . S
Mn64 O70 2.163 . S
Mn64 O72 2.160 . S
Mn64 O82 2.221 . S
O65 Mn66 2.087 . S
O65 C77 1.256 . S
Mn66 O65 2.087 . S
Mn66 O73 2.089 . S
Mn66 O82 2.290 . S
Mn66 O83 2.251 . S
O67 Mn64 2.160 . S
O67 C78 1.239 . S
O68 Mn64 2.221 . S
O68 Mn69 2.290 . S
O68 C79 1.278 1_545 S
Mn69 O68 2.290 . S
Mn69 O71 2.089 . S
Mn69 O74 2.251 1_545 S
Mn69 O75 2.087 . S
O70 Mn64 2.163 . S
O70 C80 1.244 . S
O71 Mn69 2.089 . S
O71 C78 1.256 . S
O72 Mn64 2.160 . S
O72 C81 1.239 . S
O73 Mn66 2.089 . S
O73 C81 1.256 . S
O74 Mn69 2.251 1_565 S
O74 C79 1.241 . S
O75 Mn69 2.087 . S
O75 C80 1.256 . S
C76 O82 1.278 . S
C76 O83 1.241 . S
C77 O63 1.244 . S
C77 O65 1.256 . S
C78 O67 1.239 . S
C78 O71 1.256 . S
C79 O68 1.278 1_565 S
C79 O74 1.241 . S
C80 O70 1.244 . S
C80 O75 1.256 . S
C81 O72 1.239 . S
C81 O73 1.256 . S
O82 Mn64 2.221 . S
O82 Mn66 2.290 . S
O82 C76 1.278 . S
O83 Mn66 2.251 . S
O83 C76 1.241 . S
O84 Mn85 2.163 . S
O84 C98 1.244 . S
Mn85 O84 2.163 . S
Mn85 O88 2.160 . S
Mn85 O89 2.221 . S
Mn85 O91 2.163 . S
Mn85 O93 2.160 . S
Mn85 O103 2.221 . S
O86 Mn87 2.087 . S
O86 C98 1.256 . S
Mn87 O86 2.087 . S
Mn87 O94 2.089 . S
Mn87 O103 2.290 . S
Mn87 O104 2.251 . S
O88 Mn85 2.160 . S
O88 C99 1.239 . S
O89 Mn85 2.221 . S
O89 Mn90 2.290 . S
O89 C100 1.278 1_655 S
Mn90 O89 2.290 . S
Mn90 O92 2.089 . S
Mn90 O95 2.251 1_655 S
Mn90 O96 2.087 . S
O91 Mn85 2.163 . S
O91 C101 1.244 . S
O92 Mn90 2.089 . S
O92 C99 1.256 . S
O93 Mn85 2.160 . S
O93 C102 1.239 . S
O94 Mn87 2.089 . S
O94 C102 1.256 . S
O95 Mn90 2.251 1_455 S
O95 C100 1.241 . S
O96 Mn90 2.087 . S
O96 C101 1.256 . S
C97 O103 1.278 . S
C97 O104 1.241 . S
C98 O84 1.244 . S
C98 O86 1.256 . S
C99 O88 1.239 . S
C99 O92 1.256 . S
C100 O89 1.278 1_455 S
C100 O95 1.241 . S
C101 O91 1.244 . S
C101 O96 1.256 . S
C102 O93 1.239 . S
C102 O94 1.256 . S
O103 Mn85 2.221 . S
O103 Mn87 2.290 . S
O103 C97 1.278 . S
O104 Mn87 2.251 . S
O104 C97 1.241 . S
O105 Mn106 2.163 . S
O105 C119 1.244 . S
Mn106 O105 2.163 . S
Mn106 O109 2.160 . S
Mn106 O110 2.221 . S
Mn106 O112 2.163 . S
Mn106 O114 2.160 . S
Mn106 O124 2.221 . S
O107 Mn108 2.087 . S
O107 C119 1.256 . S
Mn108 O107 2.087 . S
Mn108 O115 2.089 . S
Mn108 O124 2.290 . S
Mn108 O125 2.251 . S
O109 Mn106 2.160 . S
O109 C120 1.239 . S
O110 Mn106 2.221 . S
O110 Mn111 2.290 . S
O110 C121 1.278 . S
Mn111 O110 2.290 . S
Mn111 O113 2.089 . S
Mn111 O116 2.251 . S
Mn111 O117 2.087 . S
O112 Mn106 2.163 . S
O112 C122 1.244 . S
O113 Mn111 2.089 . S
O113 C120 1.256 . S
O114 Mn106 2.160 . S
O114 C123 1.239 . S
O115 Mn108 2.089 . S
O115 C123 1.256 . S
O116 Mn111 2.251 . S
O116 C121 1.241 . S
O117 Mn111 2.087 . S
O117 C122 1.256 . S
C118 O124 1.278 . S
C118 O125 1.241 . S
C119 O105 1.244 . S
C119 O107 1.256 . S
C120 O109 1.239 . S
C120 O113 1.256 . S
C121 O110 1.278 . S
C121 O116 1.241 . S
C122 O112 1.244 . S
C122 O117 1.256 . S
C123 O114 1.239 . S
C123 O115 1.256 . S
O124 Mn106 2.221 . S
O124 Mn108 2.290 . S
O124 C118 1.278 . S
O125 Mn108 2.251 . S
O125 C118 1.241 . S
O126 Mn127 2.163 . S
O126 C140 1.244 . S
Mn127 O126 2.163 . S
Mn127 O130 2.160 . S
Mn127 O131 2.221 . S
Mn127 O133 2.163 . S
Mn127 O135 2.160 . S
Mn127 O145 2.221 . S
O128 Mn129 2.087 . S
O128 C140 1.256 . S
Mn129 O128 2.087 . S
Mn129 O136 2.089 . S
Mn129 O145 2.290 . S
Mn129 O146 2.251 . S
O130 Mn127 2.160 . S
O130 C141 1.239 . S
O131 Mn127 2.221 . S
O131 Mn132 2.290 . S
O131 C142 1.278 1_655 S
Mn132 O131 2.290 . S
Mn132 O134 2.089 . S
Mn132 O137 2.251 1_655 S
Mn132 O138 2.087 . S
O133 Mn127 2.163 . S
O133 C143 1.244 . S
O134 Mn132 2.089 . S
O134 C141 1.256 . S
O135 Mn127 2.160 . S
O135 C144 1.239 . S
O136 Mn129 2.089 . S
O136 C144 1.256 . S
O137 Mn132 2.251 1_455 S
O137 C142 1.241 . S
O138 Mn132 2.087 . S
O138 C143 1.256 . S
C139 O145 1.278 . S
C139 O146 1.241 . S
C140 O126 1.244 . S
C140 O128 1.256 . S
C141 O130 1.239 . S
C141 O134 1.256 . S
C142 O131 1.278 1_455 S
C142 O137 1.241 . S
C143 O133 1.244 . S
C143 O138 1.256 . S
C144 O135 1.239 . S
C144 O136 1.256 . S
O145 Mn127 2.221 . S
O145 Mn129 2.290 . S
O145 C139 1.278 . S
O146 Mn129 2.251 . S
O146 C139 1.241 . S
O147 Mn148 2.163 . S
O147 C161 1.244 . S
Mn148 O147 2.163 . S
Mn148 O151 2.160 . S
Mn148 O152 2.221 . S
Mn148 O154 2.163 . S
Mn148 O156 2.160 . S
Mn148 O166 2.221 . S
O149 Mn150 2.087 . S
O149 C161 1.256 . S
Mn150 O149 2.087 . S
Mn150 O157 2.089 . S
Mn150 O166 2.290 . S
Mn150 O167 2.251 . S
O151 Mn148 2.160 . S
O151 C162 1.239 . S
O152 Mn148 2.221 . S
O152 Mn153 2.290 . S
O152 C163 1.278 . S
Mn153 O152 2.290 . S
Mn153 O155 2.089 . S
Mn153 O158 2.251 . S
Mn153 O159 2.087 . S
O154 Mn148 2.163 . S
O154 C164 1.244 . S
O155 Mn153 2.089 . S
O155 C162 1.256 . S
O156 Mn148 2.160 . S
O156 C165 1.239 . S
O157 Mn150 2.089 . S
O157 C165 1.256 . S
O158 Mn153 2.251 . S
O158 C163 1.241 . S
O159 Mn153 2.087 . S
O159 C164 1.256 . S
C160 O166 1.278 . S
C160 O167 1.241 . S
C161 O147 1.244 . S
C161 O149 1.256 . S
C162 O151 1.239 . S
C162 O155 1.256 . S
C163 O152 1.278 . S
C163 O158 1.241 . S
C164 O154 1.244 . S
C164 O159 1.256 . S
C165 O156 1.239 . S
C165 O157 1.256 . S
O166 Mn148 2.221 . S
O166 Mn150 2.290 . S
O166 C160 1.278 . S
O167 Mn150 2.251 . S
O167 C160 1.241 . S
O168 Mn169 2.163 . S
O168 C182 1.244 . S
Mn169 O168 2.163 . S
Mn169 O172 2.160 . S
Mn169 O173 2.221 . S
Mn169 O175 2.163 . S
Mn169 O177 2.160 . S
Mn169 O187 2.221 . S
O170 Mn171 2.087 . S
O170 C182 1.256 . S
Mn171 O170 2.087 . S
Mn171 O178 2.089 . S
Mn171 O187 2.290 . S
Mn171 O188 2.251 . S
O172 Mn169 2.160 . S
O172 C183 1.239 . S
O173 Mn169 2.221 . S
O173 Mn174 2.290 . S
O173 C184 1.278 1_545 S
Mn174 O173 2.290 . S
Mn174 O176 2.089 . S
Mn174 O179 2.251 1_545 S
Mn174 O180 2.087 . S
O175 Mn169 2.163 . S
O175 C185 1.244 . S
O176 Mn174 2.089 . S
O176 C183 1.256 . S
O177 Mn169 2.160 . S
O177 C186 1.239 . S
O178 Mn171 2.089 . S
O178 C186 1.256 . S
O179 Mn174 2.251 1_565 S
O179 C184 1.241 . S
O180 Mn174 2.087 . S
O180 C185 1.256 . S
C181 O187 1.278 . S
C181 O188 1.241 . S
C182 O168 1.244 . S
C182 O170 1.256 . S
C183 O172 1.239 . S
C183 O176 1.256 . S
C184 O173 1.278 1_565 S
C184 O179 1.241 . S
C185 O175 1.244 . S
C185 O180 1.256 . S
C186 O177 1.239 . S
C186 O178 1.256 . S
O187 Mn169 2.221 . S
O187 Mn171 2.290 . S
O187 C181 1.278 . S
O188 Mn171 2.251 . S
O188 C181 1.241 . S
O189 Mn190 2.163 . S
O189 C203 1.244 . S
Mn190 O189 2.163 . S
Mn190 O193 2.160 . S
Mn190 O194 2.221 . S
Mn190 O196 2.163 . S
Mn190 O198 2.160 . S
Mn190 O208 2.221 . S
O191 Mn192 2.087 . S
O191 C203 1.256 . S
Mn192 O191 2.087 . S
Mn192 O199 2.089 . S
Mn192 O208 2.290 . S
Mn192 O209 2.251 . S
O193 Mn190 2.160 . S
O193 C204 1.239 . S
O194 Mn190 2.221 . S
O194 Mn195 2.290 . S
O194 C205 1.278 1_565 S
Mn195 O194 2.290 . S
Mn195 O197 2.089 . S
Mn195 O200 2.251 1_565 S
Mn195 O201 2.087 . S
O196 Mn190 2.163 . S
O196 C206 1.244 . S
O197 Mn195 2.089 . S
O197 C204 1.256 . S
O198 Mn190 2.160 . S
O198 C207 1.239 . S
O199 Mn192 2.089 . S
O199 C207 1.256 . S
O200 Mn195 2.251 1_545 S
O200 C205 1.241 . S
O201 Mn195 2.087 . S
O201 C206 1.256 . S
C202 O208 1.278 . S
C202 O209 1.241 . S
C203 O189 1.244 . S
C203 O191 1.256 . S
C204 O193 1.239 . S
C204 O197 1.256 . S
C205 O194 1.278 1_545 S
C205 O200 1.241 . S
C206 O196 1.244 . S
C206 O201 1.256 . S
C207 O198 1.239 . S
C207 O199 1.256 . S
O208 Mn190 2.221 . S
O208 Mn192 2.290 . S
O208 C202 1.278 . S
O209 Mn192 2.251 . S
O209 C202 1.241 . S
O210 Mn211 2.163 . S
O210 C224 1.244 . S
Mn211 O210 2.163 . S
Mn211 O214 2.160 . S
Mn211 O215 2.221 . S
Mn211 O217 2.163 . S
Mn211 O219 2.160 . S
Mn211 O229 2.221 . S
O212 Mn213 2.087 . S
O212 C224 1.256 . S
Mn213 O212 2.087 . S
Mn213 O220 2.089 . S
Mn213 O229 2.290 . S
Mn213 O230 2.251 . S
O214 Mn211 2.160 . S
O214 C225 1.239 . S
O215 Mn211 2.221 . S
O215 Mn216 2.290 . S
O215 C226 1.278 1_455 S
Mn216 O215 2.290 . S
Mn216 O218 2.089 . S
Mn216 O221 2.251 1_455 S
Mn216 O222 2.087 . S
O217 Mn211 2.163 . S
O217 C227 1.244 . S
O218 Mn216 2.089 . S
O218 C225 1.256 . S
O219 Mn211 2.160 . S
O219 C228 1.239 . S
O220 Mn213 2.089 . S
O220 C228 1.256 . S
O221 Mn216 2.251 1_655 S
O221 C226 1.241 . S
O222 Mn216 2.087 . S
O222 C227 1.256 . S
C223 O229 1.278 . S
C223 O230 1.241 . S
C224 O210 1.244 . S
C224 O212 1.256 . S
C225 O214 1.239 . S
C225 O218 1.256 . S
C226 O215 1.278 1_655 S
C226 O221 1.241 . S
C227 O217 1.244 . S
C227 O222 1.256 . S
C228 O219 1.239 . S
C228 O220 1.256 . S
O229 Mn211 2.221 . S
O229 Mn213 2.290 . S
O229 C223 1.278 . S
O230 Mn213 2.251 . S
O230 C223 1.241 . S
O231 Mn232 2.163 . S
O231 C245 1.244 . S
Mn232 O231 2.163 . S
Mn232 O235 2.160 . S
Mn232 O236 2.221 . S
Mn232 O238 2.163 . S
Mn232 O240 2.160 . S
Mn232 O250 2.221 . S
O233 Mn234 2.087 . S
O233 C245 1.256 . S
Mn234 O233 2.087 . S
Mn234 O241 2.089 . S
Mn234 O250 2.290 . S
Mn234 O251 2.251 . S
O235 Mn232 2.160 . S
O235 C246 1.239 . S
O236 Mn232 2.221 . S
O236 Mn237 2.290 . S
O236 C247 1.278 . S
Mn237 O236 2.290 . S
Mn237 O239 2.089 . S
Mn237 O242 2.251 . S
Mn237 O243 2.087 . S
O238 Mn232 2.163 . S
O238 C248 1.244 . S
O239 Mn237 2.089 . S
O239 C246 1.256 . S
O240 Mn232 2.160 . S
O240 C249 1.239 . S
O241 Mn234 2.089 . S
O241 C249 1.256 . S
O242 Mn237 2.251 . S
O242 C247 1.241 . S
O243 Mn237 2.087 . S
O243 C248 1.256 . S
C244 O250 1.278 . S
C244 O251 1.241 . S
C245 O231 1.244 . S
C245 O233 1.256 . S
C246 O235 1.239 . S
C246 O239 1.256 . S
C247 O236 1.278 . S
C247 O242 1.241 . S
C248 O238 1.244 . S
C248 O243 1.256 . S
C249 O240 1.239 . S
C249 O241 1.256 . S
O250 Mn232 2.221 . S
O250 Mn234 2.290 . S
O250 C244 1.278 . S
O251 Mn234 2.251 . S
O251 C244 1.241 . S
O252 Mn253 2.163 . S
O252 C266 1.244 . S
Mn253 O252 2.163 . S
Mn253 O256 2.160 . S
Mn253 O257 2.221 . S
Mn253 O259 2.163 . S
Mn253 O261 2.160 . S
Mn253 O271 2.221 . S
O254 Mn255 2.087 . S
O254 C266 1.256 . S
Mn255 O254 2.087 . S
Mn255 O262 2.089 . S
Mn255 O271 2.290 . S
Mn255 O272 2.251 . S
O256 Mn253 2.160 . S
O256 C267 1.239 . S
O257 Mn253 2.221 . S
O257 Mn258 2.290 . S
O257 C268 1.278 . S
Mn258 O257 2.290 . S
Mn258 O260 2.089 . S
Mn258 O263 2.251 . S
Mn258 O264 2.087 . S
O259 Mn253 2.163 . S
O259 C269 1.244 . S
O260 Mn258 2.089 . S
O260 C267 1.256 . S
O261 Mn253 2.160 . S
O261 C270 1.239 . S
O262 Mn255 2.089 . S
O262 C270 1.256 . S
O263 Mn258 2.251 . S
O263 C268 1.241 . S
O264 Mn258 2.087 . S
O264 C269 1.256 . S
C265 O271 1.278 . S
C265 O272 1.241 . S
C266 O252 1.244 . S
C266 O254 1.256 . S
C267 O256 1.239 . S
C267 O260 1.256 . S
C268 O257 1.278 . S
C268 O263 1.241 . S
C269 O259 1.244 . S
C269 O264 1.256 . S
C270 O261 1.239 . S
C270 O262 1.256 . S
O271 Mn253 2.221 . S
O271 Mn255 2.290 . S
O271 C265 1.278 . S
O272 Mn255 2.251 . S
O272 C265 1.241 . S
O273 Mn274 2.163 . S
O273 C287 1.244 . S
Mn274 O273 2.163 . S
Mn274 O277 2.160 . S
Mn274 O278 2.221 . S
Mn274 O280 2.163 . S
Mn274 O282 2.160 . S
Mn274 O292 2.221 . S
O275 Mn276 2.087 . S
O275 C287 1.256 . S
Mn276 O275 2.087 . S
Mn276 O283 2.089 . S
Mn276 O292 2.290 . S
Mn276 O293 2.251 . S
O277 Mn274 2.160 . S
O277 C288 1.239 . S
O278 Mn274 2.221 . S
O278 Mn279 2.290 . S
O278 C289 1.278 . S
Mn279 O278 2.290 . S
Mn279 O281 2.089 . S
Mn279 O284 2.251 . S
Mn279 O285 2.087 . S
O280 Mn274 2.163 . S
O280 C290 1.244 . S
O281 Mn279 2.089 . S
O281 C288 1.256 . S
O282 Mn274 2.160 . S
O282 C291 1.239 . S
O283 Mn276 2.089 . S
O283 C291 1.256 . S
O284 Mn279 2.251 . S
O284 C289 1.241 . S
O285 Mn279 2.087 . S
O285 C290 1.256 . S
C286 O292 1.278 . S
C286 O293 1.241 . S
C287 O273 1.244 . S
C287 O275 1.256 . S
C288 O277 1.239 . S
C288 O281 1.256 . S
C289 O278 1.278 . S
C289 O284 1.241 . S
C290 O280 1.244 . S
C290 O285 1.256 . S
C291 O282 1.239 . S
C291 O283 1.256 . S
O292 Mn274 2.221 . S
O292 Mn276 2.290 . S
O292 C286 1.278 . S
O293 Mn276 2.251 . S
O293 C286 1.241 . S
O294 Mn295 2.163 . S
O294 C308 1.244 . S
Mn295 O294 2.163 . S
Mn295 O298 2.160 . S
Mn295 O299 2.221 . S
Mn295 O301 2.163 . S
Mn295 O303 2.160 . S
Mn295 O313 2.221 . S
O296 Mn297 2.087 . S
O296 C308 1.256 . S
Mn297 O296 2.087 . S
Mn297 O304 2.089 . S
Mn297 O313 2.290 . S
Mn297 O314 2.251 . S
O298 Mn295 2.160 . S
O298 C309 1.239 . S
O299 Mn295 2.221 . S
O299 Mn300 2.290 . S
O299 C310 1.278 . S
Mn300 O299 2.290 . S
Mn300 O302 2.089 . S
Mn300 O305 2.251 . S
Mn300 O306 2.087 . S
O301 Mn295 2.163 . S
O301 C311 1.244 . S
O302 Mn300 2.089 . S
O302 C309 1.256 . S
O303 Mn295 2.160 . S
O303 C312 1.239 . S
O304 Mn297 2.089 . S
O304 C312 1.256 . S
O305 Mn300 2.251 . S
O305 C310 1.241 . S
O306 Mn300 2.087 . S
O306 C311 1.256 . S
C307 O313 1.278 . S
C307 O314 1.241 . S
C308 O294 1.244 . S
C308 O296 1.256 . S
C309 O298 1.239 . S
C309 O302 1.256 . S
C310 O299 1.278 . S
C310 O305 1.241 . S
C311 O301 1.244 . S
C311 O306 1.256 . S
C312 O303 1.239 . S
C312 O304 1.256 . S
O313 Mn295 2.221 . S
O313 Mn297 2.290 . S
O313 C307 1.278 . S
O314 Mn297 2.251 . S
O314 C307 1.241 . S
O315 Mn316 2.163 . S
O315 C329 1.244 . S
Mn316 O315 2.163 . S
Mn316 O319 2.160 . S
Mn316 O320 2.221 . S
Mn316 O322 2.163 . S
Mn316 O324 2.160 . S
Mn316 O334 2.221 . S
O317 Mn318 2.087 . S
O317 C329 1.256 . S
Mn318 O317 2.087 . S
Mn318 O325 2.089 . S
Mn318 O334 2.290 . S
Mn318 O335 2.251 . S
O319 Mn316 2.160 . S
O319 C330 1.241 . S
O320 Mn316 2.221 . S
O320 Mn321 2.290 . S
O320 C331 1.278 . S
Mn321 O320 2.290 . S
Mn321 O323 2.089 . S
Mn321 O326 2.251 . S
Mn321 O327 2.087 . S
O322 Mn316 2.163 . S
O322 C332 1.244 . S
O323 Mn321 2.089 . S
O323 C330 1.256 . S
O324 Mn316 2.160 . S
O324 C333 1.239 . S
O325 Mn318 2.089 . S
O325 C333 1.256 . S
O326 Mn321 2.251 . S
O326 C331 1.241 . S
O327 Mn321 2.087 . S
O327 C332 1.256 . S
C328 O334 1.278 . S
C328 O335 1.241 . S
C329 O315 1.244 . S
C329 O317 1.256 . S
C330 O319 1.241 . S
C330 O323 1.256 . S
C331 O320 1.278 . S
C331 O326 1.241 . S
C332 O322 1.244 . S
C332 O327 1.256 . S
C333 O324 1.239 . S
C333 O325 1.256 . S
O334 Mn316 2.221 . S
O334 Mn318 2.290 . S
O334 C328 1.278 . S
O335 Mn318 2.251 . S
O335 C328 1.241 . S
O336 Mn337 2.163 . S
O336 C350 1.244 . S
Mn337 O336 2.163 . S
Mn337 O340 2.160 . S
Mn337 O341 2.221 . S
Mn337 O343 2.163 . S
Mn337 O345 2.160 . S
Mn337 O355 2.221 . S
O338 Mn339 2.087 . S
O338 C350 1.256 . S
Mn339 O338 2.087 . S
Mn339 O346 2.089 . S
Mn339 O355 2.290 . S
Mn339 O356 2.251 . S
O340 Mn337 2.160 . S
O340 C351 1.239 . S
O341 Mn337 2.221 . S
O341 Mn342 2.290 . S
O341 C352 1.278 . S
Mn342 O341 2.290 . S
Mn342 O344 2.089 . S
Mn342 O347 2.251 . S
Mn342 O348 2.087 . S
O343 Mn337 2.163 . S
O343 C353 1.244 . S
O344 Mn342 2.089 . S
O344 C351 1.256 . S
O345 Mn337 2.160 . S
O345 C354 1.239 . S
O346 Mn339 2.089 . S
O346 C354 1.256 . S
O347 Mn342 2.251 . S
O347 C352 1.241 . S
O348 Mn342 2.087 . S
O348 C353 1.256 . S
C349 O355 1.278 . S
C349 O356 1.241 . S
C350 O336 1.244 . S
C350 O338 1.256 . S
C351 O340 1.239 . S
C351 O344 1.256 . S
C352 O341 1.278 . S
C352 O347 1.241 . S
C353 O343 1.244 . S
C353 O348 1.256 . S
C354 O345 1.239 . S
C354 O346 1.256 . S
O355 Mn337 2.221 . S
O355 Mn339 2.290 . S
O355 C349 1.278 . S
O356 Mn339 2.251 . S
O356 C349 1.241 . S
O357 Mn358 2.163 . S
O357 C371 1.244 . S
Mn358 O357 2.163 . S
Mn358 O361 2.160 . S
Mn358 O362 2.221 . S
Mn358 O364 2.163 . S
Mn358 O366 2.160 . S
Mn358 O376 2.221 . S
O359 Mn360 2.087 . S
O359 C371 1.256 . S
Mn360 O359 2.087 . S
Mn360 O367 2.089 . S
Mn360 O376 2.290 . S
Mn360 O377 2.251 . S
O361 Mn358 2.160 . S
O361 C372 1.239 . S
O362 Mn358 2.221 . S
O362 Mn363 2.290 . S
O362 C373 1.278 . S
Mn363 O362 2.290 . S
Mn363 O365 2.089 . S
Mn363 O368 2.251 . S
Mn363 O369 2.087 . S
O364 Mn358 2.163 . S
O364 C374 1.244 . S
O365 Mn363 2.089 . S
O365 C372 1.257 . S
O366 Mn358 2.160 . S
O366 C375 1.239 . S
O367 Mn360 2.089 . S
O367 C375 1.256 . S
O368 Mn363 2.251 . S
O368 C373 1.241 . S
O369 Mn363 2.087 . S
O369 C374 1.256 . S
C370 O376 1.278 . S
C370 O377 1.241 . S
C371 O357 1.244 . S
C371 O359 1.256 . S
C372 O361 1.239 . S
C372 O365 1.257 . S
C373 O362 1.278 . S
C373 O368 1.241 . S
C374 O364 1.244 . S
C374 O369 1.256 . S
C375 O366 1.239 . S
C375 O367 1.256 . S
O376 Mn358 2.221 . S
O376 Mn360 2.290 . S
O376 C370 1.278 . S
O377 Mn360 2.251 . S
O377 C370 1.241 . S
O378 Mn379 2.163 . S
O378 C392 1.244 . S
Mn379 O378 2.163 . S
Mn379 O382 2.160 . S
Mn379 O383 2.221 . S
Mn379 O385 2.163 . S
Mn379 O387 2.160 . S
Mn379 O397 2.221 . S
O380 Mn381 2.087 . S
O380 C392 1.256 . S
Mn381 O380 2.087 . S
Mn381 O388 2.089 . S
Mn381 O397 2.290 . S
Mn381 O398 2.251 . S
O382 Mn379 2.160 . S
O382 C393 1.244 . S
O383 Mn379 2.221 . S
O383 Mn384 2.290 . S
O383 C394 1.278 . S
Mn384 O383 2.290 . S
Mn384 O386 2.089 . S
Mn384 O389 2.251 . S
Mn384 O390 2.087 . S
O385 Mn379 2.163 . S
O385 C395 1.244 . S
O386 Mn384 2.089 . S
O386 C393 1.257 . S
O387 Mn379 2.160 . S
O387 C396 1.239 . S
O388 Mn381 2.089 . S
O388 C396 1.256 . S
O389 Mn384 2.251 . S
O389 C394 1.241 . S
O390 Mn384 2.087 . S
O390 C395 1.256 . S
C391 O397 1.278 . S
C391 O398 1.241 . S
C392 O378 1.244 . S
C392 O380 1.256 . S
C393 O382 1.244 . S
C393 O386 1.257 . S
C394 O383 1.278 . S
C394 O389 1.241 . S
C395 O385 1.244 . S
C395 O390 1.256 . S
C396 O387 1.239 . S
C396 O388 1.256 . S
O397 Mn379 2.221 . S
O397 Mn381 2.290 . S
O397 C391 1.278 . S
O398 Mn381 2.251 . S
O398 C391 1.241 . S
O399 Mn400 2.163 . S
O399 C413 1.244 . S
Mn400 O399 2.163 . S
Mn400 O403 2.160 . S
Mn400 O404 2.221 . S
Mn400 O406 2.163 . S
Mn400 O408 2.160 . S
Mn400 O418 2.221 . S
O401 Mn402 2.087 . S
O401 C413 1.256 . S
Mn402 O401 2.087 . S
Mn402 O409 2.089 . S
Mn402 O418 2.290 . S
Mn402 O419 2.251 . S
O403 Mn400 2.160 . S
O403 C414 1.239 . S
O404 Mn400 2.221 . S
O404 Mn405 2.290 . S
O404 C415 1.278 . S
Mn405 O404 2.290 . S
Mn405 O407 2.089 . S
Mn405 O410 2.251 . S
Mn405 O411 2.087 . S
O406 Mn400 2.163 . S
O406 C416 1.244 . S
O407 Mn405 2.089 . S
O407 C414 1.260 . S
O408 Mn400 2.160 . S
O408 C417 1.239 . S
O409 Mn402 2.089 . S
O409 C417 1.256 . S
O410 Mn405 2.251 . S
O410 C415 1.241 . S
O411 Mn405 2.087 . S
O411 C416 1.256 . S
C412 O418 1.278 . S
C412 O419 1.241 . S
C413 O399 1.244 . S
C413 O401 1.256 . S
C414 O403 1.239 . S
C414 O407 1.260 . S
C415 O404 1.278 . S
C415 O410 1.241 . S
C416 O406 1.244 . S
C416 O411 1.256 . S
C417 O408 1.239 . S
C417 O409 1.256 . S
O418 Mn400 2.221 . S
O418 Mn402 2.290 . S
O418 C412 1.278 . S
O419 Mn402 2.251 . S
O419 C412 1.241 . S
O420 Mn421 2.163 . S
O420 C434 1.244 . S
Mn421 O420 2.163 . S
Mn421 O424 2.160 . S
Mn421 O425 2.221 . S
Mn421 O427 2.163 . S
Mn421 O429 2.160 . S
Mn421 O439 2.221 . S
O422 Mn423 2.087 . S
O422 C434 1.256 . S
Mn423 O422 2.087 . S
Mn423 O430 2.089 . S
Mn423 O439 2.290 . S
Mn423 O440 2.251 . S
O424 Mn421 2.160 . S
O424 C435 1.239 . S
O425 Mn421 2.221 . S
O425 Mn426 2.290 . S
O425 C436 1.278 . S
Mn426 O425 2.290 . S
Mn426 O428 2.089 . S
Mn426 O431 2.251 . S
Mn426 O432 2.087 . S
O427 Mn421 2.163 . S
O427 C437 1.244 . S
O428 Mn426 2.089 . S
O428 C435 1.256 . S
O429 Mn421 2.160 . S
O429 C438 1.239 . S
O430 Mn423 2.089 . S
O430 C438 1.256 . S
O431 Mn426 2.251 . S
O431 C436 1.241 . S
O432 Mn426 2.087 . S
O432 C437 1.256 . S
C433 O439 1.278 . S
C433 O440 1.241 . S
C434 O420 1.244 . S
C434 O422 1.256 . S
C435 O424 1.239 . S
C435 O428 1.256 . S
C436 O425 1.278 . S
C436 O431 1.241 . S
C437 O427 1.244 . S
C437 O432 1.256 . S
C438 O429 1.239 . S
C438 O430 1.256 . S
O439 Mn421 2.221 . S
O439 Mn423 2.290 . S
O439 C433 1.278 . S
O440 Mn423 2.251 . S
O440 C433 1.241 . S
O441 Mn442 2.164 . S
O441 C455 1.250 . S
Mn442 O441 2.164 . S
Mn442 O445 2.160 . S
Mn442 O446 2.221 1_554 S
Mn442 O448 2.163 1_554 S
Mn442 O450 2.160 . S
Mn442 O460 2.221 . S
O443 Mn444 2.087 . S
O443 C455 1.256 . S
Mn444 O443 2.087 . S
Mn444 O451 2.089 . S
Mn444 O460 2.290 . S
Mn444 O461 2.251 . S
O445 Mn442 2.160 . S
O445 C456 1.239 1_554 S
O446 Mn442 2.221 1_556 S
O446 Mn447 2.290 . S
O446 C457 1.278 . S
Mn447 O446 2.290 . S
Mn447 O449 2.089 . S
Mn447 O452 2.251 . S
Mn447 O453 2.087 . S
O448 Mn442 2.163 1_556 S
O448 C458 1.244 . S
O449 Mn447 2.089 . S
O449 C456 1.256 . S
O450 Mn442 2.160 . S
O450 C459 1.239 . S
O451 Mn444 2.089 . S
O451 C459 1.256 . S
O452 Mn447 2.251 . S
O452 C457 1.241 . S
O453 Mn447 2.087 . S
O453 C458 1.256 . S
C454 O460 1.278 . S
C454 O461 1.241 . S
C455 O441 1.250 . S
C455 O443 1.256 . S
C456 O445 1.239 1_556 S
C456 O449 1.256 . S
C457 O446 1.278 . S
C457 O452 1.241 . S
C458 O448 1.244 . S
C458 O453 1.256 . S
C459 O450 1.239 . S
C459 O451 1.256 . S
O460 Mn442 2.221 . S
O460 Mn444 2.290 . S
O460 C454 1.278 . S
O461 Mn444 2.251 . S
O461 C454 1.241 . S
O462 Mn463 2.164 . S
O462 C476 1.250 . S
Mn463 O462 2.164 . S
Mn463 O466 2.160 . S
Mn463 O467 2.221 1_554 S
Mn463 O469 2.163 1_554 S
Mn463 O471 2.160 . S
Mn463 O481 2.221 . S
O464 Mn465 2.087 . S
O464 C476 1.256 . S
Mn465 O464 2.087 . S
Mn465 O472 2.089 . S
Mn465 O481 2.290 . S
Mn465 O482 2.251 . S
O466 Mn463 2.160 . S
O466 C477 1.239 1_554 S
O467 Mn463 2.221 1_556 S
O467 Mn468 2.290 . S
O467 C478 1.278 . S
Mn468 O467 2.290 . S
Mn468 O470 2.089 . S
Mn468 O473 2.251 . S
Mn468 O474 2.087 . S
O469 Mn463 2.163 1_556 S
O469 C479 1.244 . S
O470 Mn468 2.089 . S
O470 C477 1.256 . S
O471 Mn463 2.160 . S
O471 C480 1.239 . S
O472 Mn465 2.089 . S
O472 C480 1.256 . S
O473 Mn468 2.251 . S
O473 C478 1.241 . S
O474 Mn468 2.087 . S
O474 C479 1.256 . S
C475 O481 1.278 . S
C475 O482 1.241 . S
C476 O462 1.250 . S
C476 O464 1.256 . S
C477 O466 1.239 1_556 S
C477 O470 1.256 . S
C478 O467 1.278 . S
C478 O473 1.241 . S
C479 O469 1.244 . S
C479 O474 1.256 . S
C480 O471 1.239 . S
C480 O472 1.256 . S
O481 Mn463 2.221 . S
O481 Mn465 2.290 . S
O481 C475 1.278 . S
O482 Mn465 2.251 . S
O482 C475 1.241 . S
O483 Mn484 2.164 . S
O483 C497 1.250 . S
Mn484 O483 2.164 . S
Mn484 O487 2.160 . S
Mn484 O488 2.221 1_554 S
Mn484 O490 2.163 1_554 S
Mn484 O492 2.160 . S
Mn484 O502 2.221 . S
O485 Mn486 2.087 . S
O485 C497 1.256 . S
Mn486 O485 2.087 . S
Mn486 O493 2.089 . S
Mn486 O502 2.290 . S
Mn486 O503 2.251 . S
O487 Mn484 2.160 . S
O487 C498 1.239 1_554 S
O488 Mn484 2.221 1_556 S
O488 Mn489 2.290 . S
O488 C499 1.278 . S
Mn489 O488 2.290 . S
Mn489 O491 2.089 . S
Mn489 O494 2.251 . S
Mn489 O495 2.087 . S
O490 Mn484 2.163 1_556 S
O490 C500 1.244 . S
O491 Mn489 2.089 . S
O491 C498 1.256 . S
O492 Mn484 2.160 . S
O492 C501 1.239 . S
O493 Mn486 2.089 . S
O493 C501 1.256 . S
O494 Mn489 2.251 . S
O494 C499 1.241 . S
O495 Mn489 2.087 . S
O495 C500 1.256 . S
C496 O502 1.278 . S
C496 O503 1.241 . S
C497 O483 1.250 . S
C497 O485 1.256 . S
C498 O487 1.239 1_556 S
C498 O491 1.256 . S
C499 O488 1.278 . S
C499 O494 1.241 . S
C500 O490 1.244 . S
C500 O495 1.256 . S
C501 O492 1.239 . S
C501 O493 1.256 . S
O502 Mn484 2.221 . S
O502 Mn486 2.290 . S
O502 C496 1.278 . S
O503 Mn486 2.251 . S
O503 C496 1.241 . S
O504 Mn505 2.163 . S
O504 C518 1.244 . S
Mn505 O504 2.163 . S
Mn505 O508 2.160 . S
Mn505 O509 2.221 . S
Mn505 O511 2.163 . S
Mn505 O513 2.160 . S
Mn505 O523 2.221 . S
O506 Mn507 2.087 . S
O506 C518 1.256 . S
Mn507 O506 2.087 . S
Mn507 O514 2.089 . S
Mn507 O523 2.290 . S
Mn507 O524 2.251 . S
O508 Mn505 2.160 . S
O508 C519 1.244 . S
O509 Mn505 2.221 . S
O509 Mn510 2.290 . S
O509 C520 1.278 . S
Mn510 O509 2.290 . S
Mn510 O512 2.089 . S
Mn510 O515 2.251 . S
Mn510 O516 2.087 . S
O511 Mn505 2.163 . S
O511 C521 1.244 . S
O512 Mn510 2.089 . S
O512 C519 1.257 . S
O513 Mn505 2.160 . S
O513 C522 1.239 . S
O514 Mn507 2.089 . S
O514 C522 1.256 . S
O515 Mn510 2.251 . S
O515 C520 1.241 . S
O516 Mn510 2.087 . S
O516 C521 1.256 . S
C517 O523 1.278 . S
C517 O524 1.241 . S
C518 O504 1.244 . S
C518 O506 1.256 . S
C519 O508 1.244 . S
C519 O512 1.257 . S
C520 O509 1.278 . S
C520 O515 1.241 . S
C521 O511 1.244 . S
C521 O516 1.256 . S
C522 O513 1.239 . S
C522 O514 1.256 . S
O523 Mn505 2.221 . S
O523 Mn507 2.290 . S
O523 C517 1.278 . S
O524 Mn507 2.251 . S
O524 C517 1.241 . S
O525 Mn526 2.163 . S
O525 C539 1.244 . S
Mn526 O525 2.163 . S
Mn526 O529 2.160 . S
Mn526 O530 2.221 . S
Mn526 O532 2.163 . S
Mn526 O534 2.160 . S
Mn526 O544 2.221 . S
O527 Mn528 2.087 . S
O527 C539 1.256 . S
Mn528 O527 2.087 . S
Mn528 O535 2.089 . S
Mn528 O544 2.290 . S
Mn528 O545 2.251 . S
O529 Mn526 2.160 . S
O529 C540 1.239 . S
O530 Mn526 2.221 . S
O530 Mn531 2.290 . S
O530 C541 1.278 . S
Mn531 O530 2.290 . S
Mn531 O533 2.089 . S
Mn531 O536 2.251 . S
Mn531 O537 2.087 . S
O532 Mn526 2.163 . S
O532 C542 1.244 . S
O533 Mn531 2.089 . S
O533 C540 1.260 . S
O534 Mn526 2.160 . S
O534 C543 1.239 . S
O535 Mn528 2.089 . S
O535 C543 1.256 . S
O536 Mn531 2.251 . S
O536 C541 1.241 . S
O537 Mn531 2.087 . S
O537 C542 1.256 . S
C538 O544 1.278 . S
C538 O545 1.241 . S
C539 O525 1.244 . S
C539 O527 1.256 . S
C540 O529 1.239 . S
C540 O533 1.260 . S
C541 O530 1.278 . S
C541 O536 1.241 . S
C542 O532 1.244 . S
C542 O537 1.256 . S
C543 O534 1.239 . S
C543 O535 1.256 . S
O544 Mn526 2.221 . S
O544 Mn528 2.290 . S
O544 C538 1.278 . S
O545 Mn528 2.251 . S
O545 C538 1.241 . S
O546 Mn547 2.163 . S
O546 C560 1.244 . S
Mn547 O546 2.163 . S
Mn547 O550 2.160 . S
Mn547 O551 2.221 . S
Mn547 O553 2.163 . S
Mn547 O555 2.160 . S
Mn547 O565 2.221 . S
O548 Mn549 2.087 . S
O548 C560 1.256 . S
Mn549 O548 2.087 . S
Mn549 O556 2.089 . S
Mn549 O565 2.290 . S
Mn549 O566 2.251 . S
O550 Mn547 2.160 . S
O550 C561 1.239 . S
O551 Mn547 2.221 . S
O551 Mn552 2.290 . S
O551 C562 1.278 . S
Mn552 O551 2.290 . S
Mn552 O554 2.089 . S
Mn552 O557 2.251 . S
Mn552 O558 2.087 . S
O553 Mn547 2.163 . S
O553 C563 1.244 . S
O554 Mn552 2.089 . S
O554 C561 1.256 . S
O555 Mn547 2.160 . S
O555 C564 1.239 . S
O556 Mn549 2.089 . S
O556 C564 1.256 . S
O557 Mn552 2.251 . S
O557 C562 1.241 . S
O558 Mn552 2.087 . S
O558 C563 1.256 . S
C559 O565 1.278 . S
C559 O566 1.241 . S
C560 O546 1.244 . S
C560 O548 1.256 . S
C561 O550 1.239 . S
C561 O554 1.256 . S
C562 O551 1.278 . S
C562 O557 1.241 . S
C563 O553 1.244 . S
C563 O558 1.256 . S
C564 O555 1.239 . S
C564 O556 1.256 . S
O565 Mn547 2.221 . S
O565 Mn549 2.290 . S
O565 C559 1.278 . S
O566 Mn549 2.251 . S
O566 C559 1.241 . S
O567 Mn568 2.164 . S
O567 C581 1.250 . S
Mn568 O567 2.164 . S
Mn568 O571 2.160 . S
Mn568 O572 2.221 1_556 S
Mn568 O574 2.163 1_556 S
Mn568 O576 2.160 . S
Mn568 O586 2.221 . S
O569 Mn570 2.087 . S
O569 C581 1.256 . S
Mn570 O569 2.087 . S
Mn570 O577 2.089 . S
Mn570 O586 2.290 . S
Mn570 O587 2.251 . S
O571 Mn568 2.160 . S
O571 C582 1.239 1_556 S
O572 Mn568 2.221 1_554 S
O572 Mn573 2.290 . S
O572 C583 1.278 . S
Mn573 O572 2.290 . S
Mn573 O575 2.089 . S
Mn573 O578 2.251 . S
Mn573 O579 2.087 . S
O574 Mn568 2.163 1_554 S
O574 C584 1.244 . S
O575 Mn573 2.089 . S
O575 C582 1.256 . S
O576 Mn568 2.160 . S
O576 C585 1.239 . S
O577 Mn570 2.089 . S
O577 C585 1.256 . S
O578 Mn573 2.251 . S
O578 C583 1.241 . S
O579 Mn573 2.087 . S
O579 C584 1.256 . S
C580 O586 1.278 . S
C580 O587 1.241 . S
C581 O567 1.250 . S
C581 O569 1.256 . S
C582 O571 1.239 1_554 S
C582 O575 1.256 . S
C583 O572 1.278 . S
C583 O578 1.241 . S
C584 O574 1.244 . S
C584 O579 1.256 . S
C585 O576 1.239 . S
C585 O577 1.256 . S
O586 Mn568 2.221 . S
O586 Mn570 2.290 . S
O586 C580 1.278 . S
O587 Mn570 2.251 . S
O587 C580 1.241 . S
O588 Mn589 2.164 . S
O588 C602 1.250 . S
Mn589 O588 2.164 . S
Mn589 O592 2.160 . S
Mn589 O593 2.221 1_556 S
Mn589 O595 2.163 1_556 S
Mn589 O597 2.160 . S
Mn589 O607 2.221 . S
O590 Mn591 2.087 . S
O590 C602 1.256 . S
Mn591 O590 2.087 . S
Mn591 O598 2.089 . S
Mn591 O607 2.290 . S
Mn591 O608 2.251 . S
O592 Mn589 2.160 . S
O592 C603 1.239 1_556 S
O593 Mn589 2.221 1_554 S
O593 Mn594 2.290 . S
O593 C604 1.278 . S
Mn594 O593 2.290 . S
Mn594 O596 2.089 . S
Mn594 O599 2.251 . S
Mn594 O600 2.087 . S
O595 Mn589 2.163 1_554 S
O595 C605 1.244 . S
O596 Mn594 2.089 . S
O596 C603 1.256 . S
O597 Mn589 2.160 . S
O597 C606 1.239 . S
O598 Mn591 2.089 . S
O598 C606 1.256 . S
O599 Mn594 2.251 . S
O599 C604 1.241 . S
O600 Mn594 2.087 . S
O600 C605 1.256 . S
C601 O607 1.278 . S
C601 O608 1.241 . S
C602 O588 1.250 . S
C602 O590 1.256 . S
C603 O592 1.239 1_554 S
C603 O596 1.256 . S
C604 O593 1.278 . S
C604 O599 1.241 . S
C605 O595 1.244 . S
C605 O600 1.256 . S
C606 O597 1.239 . S
C606 O598 1.256 . S
O607 Mn589 2.221 . S
O607 Mn591 2.290 . S
O607 C601 1.278 . S
O608 Mn591 2.251 . S
O608 C601 1.241 . S
O609 Mn610 2.164 . S
O609 C623 1.250 . S
Mn610 O609 2.164 . S
Mn610 O613 2.160 . S
Mn610 O614 2.221 1_556 S
Mn610 O616 2.163 1_556 S
Mn610 O618 2.160 . S
Mn610 O628 2.221 . S
O611 Mn612 2.087 . S
O611 C623 1.256 . S
Mn612 O611 2.087 . S
Mn612 O619 2.089 . S
Mn612 O628 2.290 . S
Mn612 O629 2.251 . S
O613 Mn610 2.160 . S
O613 C624 1.239 1_556 S
O614 Mn610 2.221 1_554 S
O614 Mn615 2.290 . S
O614 C625 1.278 . S
Mn615 O614 2.290 . S
Mn615 O617 2.089 . S
Mn615 O620 2.251 . S
Mn615 O621 2.087 . S
O616 Mn610 2.163 1_554 S
O616 C626 1.244 . S
O617 Mn615 2.089 . S
O617 C624 1.256 . S
O618 Mn610 2.160 . S
O618 C627 1.239 . S
O619 Mn612 2.089 . S
O619 C627 1.256 . S
O620 Mn615 2.251 . S
O620 C625 1.241 . S
O621 Mn615 2.087 . S
O621 C626 1.256 . S
C622 O628 1.278 . S
C622 O629 1.241 . S
C623 O609 1.250 . S
C623 O611 1.256 . S
C624 O613 1.239 1_554 S
C624 O617 1.256 . S
C625 O614 1.278 . S
C625 O620 1.241 . S
C626 O616 1.244 . S
C626 O621 1.256 . S
C627 O618 1.239 . S
C627 O619 1.256 . S
O628 Mn610 2.221 . S
O628 Mn612 2.290 . S
O628 C622 1.278 . S
O629 Mn612 2.251 . S
O629 C622 1.241 . S
O630 Mn631 2.163 . S
O630 C644 1.244 . S
Mn631 O630 2.163 . S
Mn631 O634 2.160 . S
Mn631 O635 2.221 . S
Mn631 O637 2.163 . S
Mn631 O639 2.160 . S
Mn631 O649 2.221 . S
O632 Mn633 2.087 . S
O632 C644 1.256 . S
Mn633 O632 2.087 . S
Mn633 O640 2.089 . S
Mn633 O649 2.290 . S
Mn633 O650 2.251 . S
O634 Mn631 2.160 . S
O634 C645 1.239 . S
O635 Mn631 2.221 . S
O635 Mn636 2.290 . S
O635 C646 1.278 . S
Mn636 O635 2.290 . S
Mn636 O638 2.089 . S
Mn636 O641 2.251 . S
Mn636 O642 2.087 . S
O637 Mn631 2.163 . S
O637 C647 1.244 . S
O638 Mn636 2.089 . S
O638 C645 1.256 . S
O639 Mn631 2.160 . S
O639 C648 1.239 . S
O640 Mn633 2.089 . S
O640 C648 1.256 . S
O641 Mn636 2.251 . S
O641 C646 1.241 . S
O642 Mn636 2.087 . S
O642 C647 1.256 . S
C643 O649 1.278 . S
C643 O650 1.241 . S
C644 O630 1.244 . S
C644 O632 1.256 . S
C645 O634 1.239 . S
C645 O638 1.256 . S
C646 O635 1.278 . S
C646 O641 1.241 . S
C647 O637 1.244 . S
C647 O642 1.256 . S
C648 O639 1.239 . S
C648 O640 1.256 . S
O649 Mn631 2.221 . S
O649 Mn633 2.290 . S
O649 C643 1.278 . S
O650 Mn633 2.251 . S
O650 C643 1.241 . S
O651 Mn652 2.163 . S
O651 C665 1.244 . S
Mn652 O651 2.163 . S
Mn652 O655 2.160 . S
Mn652 O656 2.221 . S
Mn652 O658 2.163 . S
Mn652 O660 2.160 . S
Mn652 O670 2.221 . S
O653 Mn654 2.087 . S
O653 C665 1.256 . S
Mn654 O653 2.087 . S
Mn654 O661 2.089 . S
Mn654 O670 2.290 . S
Mn654 O671 2.251 . S
O655 Mn652 2.160 . S
O655 C666 1.239 . S
O656 Mn652 2.221 . S
O656 Mn657 2.290 . S
O656 C667 1.278 . S
Mn657 O656 2.290 . S
Mn657 O659 2.089 . S
Mn657 O662 2.251 . S
Mn657 O663 2.087 . S
O658 Mn652 2.163 . S
O658 C668 1.244 . S
O659 Mn657 2.089 . S
O659 C666 1.256 . S
O660 Mn652 2.160 . S
O660 C669 1.239 . S
O661 Mn654 2.089 . S
O661 C669 1.256 . S
O662 Mn657 2.251 . S
O662 C667 1.241 . S
O663 Mn657 2.087 . S
O663 C668 1.256 . S
C664 O670 1.278 . S
C664 O671 1.241 . S
C665 O651 1.244 . S
C665 O653 1.256 . S
C666 O655 1.239 . S
C666 O659 1.256 . S
C667 O656 1.278 . S
C667 O662 1.241 . S
C668 O658 1.244 . S
C668 O663 1.256 . S
C669 O660 1.239 . S
C669 O661 1.256 . S
O670 Mn652 2.221 . S
O670 Mn654 2.290 . S
O670 C664 1.278 . S
O671 Mn654 2.251 . S
O671 C664 1.241 . S
O672 Mn673 2.163 . S
O672 C686 1.244 . S
Mn673 O672 2.163 . S
Mn673 O676 2.160 . S
Mn673 O677 2.221 . S
Mn673 O679 2.163 . S
Mn673 O681 2.160 . S
Mn673 O691 2.221 . S
O674 Mn675 2.087 . S
O674 C686 1.256 . S
Mn675 O674 2.087 . S
Mn675 O682 2.089 . S
Mn675 O691 2.290 . S
Mn675 O692 2.251 . S
O676 Mn673 2.160 . S
O676 C687 1.239 . S
O677 Mn673 2.221 . S
O677 Mn678 2.290 . S
O677 C688 1.278 . S
Mn678 O677 2.290 . S
Mn678 O680 2.089 . S
Mn678 O683 2.251 . S
Mn678 O684 2.087 . S
O679 Mn673 2.163 . S
O679 C689 1.244 . S
O680 Mn678 2.089 . S
O680 C687 1.256 . S
O681 Mn673 2.160 . S
O681 C690 1.239 . S
O682 Mn675 2.089 . S
O682 C690 1.256 . S
O683 Mn678 2.251 . S
O683 C688 1.241 . S
O684 Mn678 2.087 . S
O684 C689 1.256 . S
C685 O691 1.278 . S
C685 O692 1.241 . S
C686 O672 1.244 . S
C686 O674 1.256 . S
C687 O676 1.239 . S
C687 O680 1.256 . S
C688 O677 1.278 . S
C688 O683 1.241 . S
C689 O679 1.244 . S
C689 O684 1.256 . S
C690 O681 1.239 . S
C690 O682 1.256 . S
O691 Mn673 2.221 . S
O691 Mn675 2.290 . S
O691 C685 1.278 . S
O692 Mn675 2.251 . S
O692 C685 1.241 . S
O693 Mn694 2.163 . S
O693 C707 1.244 . S
Mn694 O693 2.163 . S
Mn694 O697 2.160 . S
Mn694 O698 2.221 . S
Mn694 O700 2.163 . S
Mn694 O702 2.160 . S
Mn694 O712 2.221 . S
O695 Mn696 2.087 . S
O695 C707 1.256 . S
Mn696 O695 2.087 . S
Mn696 O703 2.089 . S
Mn696 O712 2.290 . S
Mn696 O713 2.251 . S
O697 Mn694 2.160 . S
O697 C708 1.241 . S
O698 Mn694 2.221 . S
O698 Mn699 2.290 . S
O698 C709 1.278 . S
Mn699 O698 2.290 . S
Mn699 O701 2.089 . S
Mn699 O704 2.251 . S
Mn699 O705 2.087 . S
O700 Mn694 2.163 . S
O700 C710 1.244 . S
O701 Mn699 2.089 . S
O701 C708 1.256 . S
O702 Mn694 2.160 . S
O702 C711 1.239 . S
O703 Mn696 2.089 . S
O703 C711 1.256 . S
O704 Mn699 2.251 . S
O704 C709 1.241 . S
O705 Mn699 2.087 . S
O705 C710 1.256 . S
C706 O712 1.278 . S
C706 O713 1.241 . S
C707 O693 1.244 . S
C707 O695 1.256 . S
C708 O697 1.241 . S
C708 O701 1.256 . S
C709 O698 1.278 . S
C709 O704 1.241 . S
C710 O700 1.244 . S
C710 O705 1.256 . S
C711 O702 1.239 . S
C711 O703 1.256 . S
O712 Mn694 2.221 . S
O712 Mn696 2.290 . S
O712 C706 1.278 . S
O713 Mn696 2.251 . S
O713 C706 1.241 . S
O714 Mn715 2.163 . S
O714 C728 1.244 . S
Mn715 O714 2.163 . S
Mn715 O718 2.160 . S
Mn715 O719 2.221 . S
Mn715 O721 2.163 . S
Mn715 O723 2.160 . S
Mn715 O733 2.221 . S
O716 Mn717 2.087 . S
O716 C728 1.256 . S
Mn717 O716 2.087 . S
Mn717 O724 2.089 . S
Mn717 O733 2.290 . S
Mn717 O734 2.251 . S
O718 Mn715 2.160 . S
O718 C729 1.239 . S
O719 Mn715 2.221 . S
O719 Mn720 2.290 . S
O719 C730 1.278 . S
Mn720 O719 2.290 . S
Mn720 O722 2.089 . S
Mn720 O725 2.251 . S
Mn720 O726 2.087 . S
O721 Mn715 2.163 . S
O721 C731 1.244 . S
O722 Mn720 2.089 . S
O722 C729 1.256 . S
O723 Mn715 2.160 . S
O723 C732 1.239 . S
O724 Mn717 2.089 . S
O724 C732 1.256 . S
O725 Mn720 2.251 . S
O725 C730 1.241 . S
O726 Mn720 2.087 . S
O726 C731 1.256 . S
C727 O733 1.278 . S
C727 O734 1.241 . S
C728 O714 1.244 . S
C728 O716 1.256 . S
C729 O718 1.239 . S
C729 O722 1.256 . S
C730 O719 1.278 . S
C730 O725 1.241 . S
C731 O721 1.244 . S
C731 O726 1.256 . S
C732 O723 1.239 . S
C732 O724 1.256 . S
O733 Mn715 2.221 . S
O733 Mn717 2.290 . S
O733 C727 1.278 . S
O734 Mn717 2.251 . S
O734 C727 1.241 . S
O735 Mn736 2.163 . S
O735 C749 1.244 . S
Mn736 O735 2.163 . S
Mn736 O739 2.160 . S
Mn736 O740 2.221 . S
Mn736 O742 2.163 . S
Mn736 O744 2.160 . S
Mn736 O754 2.221 . S
O737 Mn738 2.087 . S
O737 C749 1.256 . S
Mn738 O737 2.087 . S
Mn738 O745 2.089 . S
Mn738 O754 2.290 . S
Mn738 O755 2.251 . S
O739 Mn736 2.160 . S
O739 C750 1.239 . S
O740 Mn736 2.221 . S
O740 Mn741 2.290 . S
O740 C751 1.278 . S
Mn741 O740 2.290 . S
Mn741 O743 2.089 . S
Mn741 O746 2.251 . S
Mn741 O747 2.087 . S
O742 Mn736 2.163 . S
O742 C752 1.244 . S
O743 Mn741 2.089 . S
O743 C750 1.257 . S
O744 Mn736 2.160 . S
O744 C753 1.239 . S
O745 Mn738 2.089 . S
O745 C753 1.256 . S
O746 Mn741 2.251 . S
O746 C751 1.241 . S
O747 Mn741 2.087 . S
O747 C752 1.256 . S
C748 O754 1.278 . S
C748 O755 1.241 . S
C749 O735 1.244 . S
C749 O737 1.256 . S
C750 O739 1.239 . S
C750 O743 1.257 . S
C751 O740 1.278 . S
C751 O746 1.241 . S
C752 O742 1.244 . S
C752 O747 1.256 . S
C753 O744 1.239 . S
C753 O745 1.256 . S
O754 Mn736 2.221 . S
O754 Mn738 2.290 . S
O754 C748 1.278 . S
O755 Mn738 2.251 . S
O755 C748 1.241 . S
C756 C757 1.369 . S
C756 C758 1.419 . S
C756 H760 0.930 . S
C757 C756 1.369 . S
C757 C766 1.429 . S
C758 C756 1.419 . S
C758 C759 1.363 . S
C758 H761 0.929 . S
C759 C758 1.363 . S
C759 C765 1.428 . S
H760 C756 0.930 . S
H761 C758 0.929 . S
S762 N763 1.613 . S
S762 N764 1.625 . S
N763 S762 1.613 . S
N763 C766 1.350 . S
N764 S762 1.625 . S
N764 C765 1.368 . S
C765 C759 1.428 . S
C765 N764 1.368 . S
C765 C766 1.434 . S
C766 C757 1.429 . S
C766 N763 1.350 . S
C766 C765 1.434 . S
C767 C768 1.369 . S
C767 C769 1.419 . S
C767 H771 0.930 . S
C768 C767 1.369 . S
C768 C777 1.429 . S
C769 C767 1.419 . S
C769 C770 1.363 . S
C769 H772 0.929 . S
C770 C769 1.363 . S
C770 C776 1.428 . S
H771 C767 0.930 . S
H772 C769 0.929 . S
S773 N774 1.613 . S
S773 N775 1.610 . S
N774 S773 1.613 . S
N774 C777 1.350 . S
N775 S773 1.610 . S
N775 C776 1.351 . S
C776 C770 1.428 . S
C776 N775 1.351 . S
C776 C777 1.434 . S
C777 C768 1.429 . S
C777 N774 1.350 . S
C777 C776 1.434 . S
C778 C779 1.369 . S
C778 C780 1.419 . S
C778 H782 0.930 . S
C779 C778 1.369 . S
C779 C788 1.429 . S
C780 C778 1.419 . S
C780 C781 1.363 . S
C780 H783 0.929 . S
C781 C780 1.363 . S
C781 C787 1.428 . S
H782 C778 0.930 . S
H783 C780 0.929 . S
S784 N785 1.613 . S
S784 N786 1.610 . S
N785 S784 1.613 . S
N785 C788 1.350 . S
N786 S784 1.610 . S
N786 C787 1.351 . S
C787 C781 1.428 . S
C787 N786 1.351 . S
C787 C788 1.434 . S
C788 C779 1.429 . S
C788 N785 1.350 . S
C788 C787 1.434 . S
C789 C790 1.369 . S
C789 C791 1.419 . S
C789 H793 0.930 . S
C790 C789 1.369 . S
C790 C799 1.429 . S
C791 C789 1.419 . S
C791 C792 1.363 . S
C791 H794 0.928 . S
C792 C791 1.363 . S
C792 C798 1.428 . S
H793 C789 0.930 . S
H794 C791 0.928 . S
S795 N796 1.613 . S
S795 N797 1.610 . S
N796 S795 1.613 . S
N796 C799 1.350 . S
N797 S795 1.610 . S
N797 C798 1.351 . S
C798 C792 1.428 . S
C798 N797 1.351 . S
C798 C799 1.434 . S
C799 C790 1.429 . S
C799 N796 1.350 . S
C799 C798 1.434 . S
C800 C801 1.369 . S
C800 C802 1.419 . S
C800 H804 0.930 . S
C801 C800 1.369 . S
C801 C810 1.429 . S
C802 C800 1.419 . S
C802 C803 1.363 . S
C802 H805 0.932 . S
C803 C802 1.363 . S
C803 C809 1.428 . S
H804 C800 0.930 . S
H805 C802 0.932 . S
S806 N807 1.613 . S
S806 N808 1.610 . S
N807 S806 1.613 . S
N807 C810 1.350 . S
N808 S806 1.610 . S
N808 C809 1.351 . S
C809 C803 1.428 . S
C809 N808 1.351 . S
C809 C810 1.434 . S
C810 C801 1.429 . S
C810 N807 1.350 . S
C810 C809 1.434 . S
C811 C812 1.369 . S
C811 C813 1.419 . S
C811 H815 0.930 1_455 S
C812 C811 1.369 . S
C812 C821 1.429 . S
C813 C811 1.419 . S
C813 C814 1.363 . S
C813 H816 0.929 . S
C814 C813 1.363 . S
C814 C820 1.428 . S
H815 C811 0.930 1_655 S
H816 C813 0.929 . S
S817 N818 1.613 . S
S817 N819 1.610 . S
N818 S817 1.613 . S
N818 C821 1.350 . S
N819 S817 1.610 . S
N819 C820 1.351 . S
C820 C814 1.428 . S
C820 N819 1.351 . S
C820 C821 1.434 . S
C821 C812 1.429 . S
C821 N818 1.350 . S
C821 C820 1.434 . S
C822 C823 1.369 . S
C822 C824 1.419 . S
C822 H826 0.930 . S
C823 C822 1.369 . S
C823 C832 1.429 . S
C824 C822 1.419 . S
C824 C825 1.363 . S
C824 H827 0.929 . S
C825 C824 1.363 . S
C825 C831 1.428 . S
H826 C822 0.930 . S
H827 C824 0.929 . S
S828 N829 1.613 1_545 S
S828 N830 1.610 . S
N829 S828 1.613 1_565 S
N829 C832 1.350 . S
N830 S828 1.610 . S
N830 C831 1.351 1_545 S
C831 C825 1.428 . S
C831 N830 1.351 1_565 S
C831 C832 1.434 . S
C832 C823 1.429 . S
C832 N829 1.350 . S
C832 C831 1.434 . S
C833 C834 1.369 . S
C833 C835 1.419 . S
C833 H837 0.930 . S
C834 C833 1.369 . S
C834 C843 1.429 . S
C835 C833 1.419 . S
C835 C836 1.363 . S
C835 H838 0.929 . S
C836 C835 1.363 . S
C836 C842 1.428 . S
H837 C833 0.930 . S
H838 C835 0.929 . S
S839 N840 1.613 . S
S839 N841 1.610 . S
N840 S839 1.613 . S
N840 C843 1.350 . S
N841 S839 1.610 . S
N841 C842 1.351 . S
C842 C836 1.428 . S
C842 N841 1.351 . S
C842 C843 1.434 . S
C843 C834 1.429 . S
C843 N840 1.350 . S
C843 C842 1.434 . S
C844 C845 1.369 . S
C844 C846 1.419 . S
C844 H848 0.930 . S
C845 C844 1.369 . S
C845 C854 1.429 . S
C846 C844 1.419 . S
C846 C847 1.363 . S
C846 H849 0.929 . S
C847 C846 1.363 . S
C847 C853 1.428 . S
H848 C844 0.930 . S
H849 C846 0.929 . S
S850 N851 1.613 1_455 S
S850 N852 1.610 . S
N851 S850 1.613 1_655 S
N851 C854 1.350 1_655 S
N852 S850 1.610 . S
N852 C853 1.351 . S
C853 C847 1.428 . S
C853 N852 1.351 . S
C853 C854 1.434 . S
C854 C845 1.429 . S
C854 N851 1.350 1_455 S
C854 C853 1.434 . S
C855 C856 1.369 . S
C855 C857 1.419 . S
C855 H859 0.930 . S
C856 C855 1.369 . S
C856 C865 1.429 . S
C857 C855 1.419 . S
C857 C858 1.363 . S
C857 H860 0.935 . S
C858 C857 1.363 . S
C858 C864 1.428 . S
H859 C855 0.930 . S
H860 C857 0.935 . S
S861 N862 1.613 . S
S861 N863 1.610 . S
N862 S861 1.613 . S
N862 C865 1.350 . S
N863 S861 1.610 . S
N863 C864 1.351 . S
C864 C858 1.428 . S
C864 N863 1.351 . S
C864 C865 1.434 . S
C865 C856 1.429 . S
C865 N862 1.350 . S
C865 C864 1.434 . S
C866 C867 1.369 . S
C866 C868 1.419 . S
C866 H870 0.930 . S
C867 C866 1.369 . S
C867 C876 1.429 . S
C868 C866 1.419 . S
C868 C869 1.363 . S
C868 H871 0.929 . S
C869 C868 1.363 . S
C869 C875 1.428 . S
H870 C866 0.930 . S
H871 C868 0.929 . S
S872 N873 1.613 . S
S872 N874 1.610 . S
N873 S872 1.613 . S
N873 C876 1.350 . S
N874 S872 1.610 . S
N874 C875 1.351 . S
C875 C869 1.428 . S
C875 N874 1.351 . S
C875 C876 1.434 . S
C876 C867 1.429 . S
C876 N873 1.350 . S
C876 C875 1.434 . S
C877 C878 1.369 . S
C877 C879 1.419 . S
C877 H881 0.930 1_545 S
C878 C877 1.369 . S
C878 C887 1.429 . S
C879 C877 1.419 . S
C879 C880 1.363 . S
C879 H882 0.929 1_655 S
C880 C879 1.363 . S
C880 C886 1.428 . S
H881 C877 0.930 1_565 S
H882 C879 0.929 1_455 S
S883 N884 1.613 . S
S883 N885 1.610 . S
N884 S883 1.613 . S
N884 C887 1.350 . S
N885 S883 1.610 . S
N885 C886 1.351 . S
C886 C880 1.428 . S
C886 N885 1.351 . S
C886 C887 1.434 . S
C887 C878 1.429 . S
C887 N884 1.350 . S
C887 C886 1.434 . S
C888 C889 1.369 . S
C888 C890 1.419 . S
C888 H892 0.930 . S
C889 C888 1.369 . S
C889 C898 1.429 . S
C890 C888 1.419 . S
C890 C891 1.363 . S
C890 H893 0.929 . S
C891 C890 1.363 . S
C891 C897 1.428 . S
H892 C888 0.930 . S
H893 C890 0.929 . S
S894 N895 1.613 . S
S894 N896 1.610 . S
N895 S894 1.613 . S
N895 C898 1.350 . S
N896 S894 1.610 . S
N896 C897 1.351 . S
C897 C891 1.428 . S
C897 N896 1.351 . S
C897 C898 1.434 . S
C898 C889 1.429 . S
C898 N895 1.350 . S
C898 C897 1.434 . S
C899 C900 1.369 . S
C899 C901 1.419 . S
C899 H903 0.930 . S
C900 C899 1.369 . S
C900 C909 1.429 . S
C901 C899 1.419 . S
C901 C902 1.363 . S
C901 H904 0.929 . S
C902 C901 1.363 . S
C902 C908 1.428 . S
H903 C899 0.930 . S
H904 C901 0.929 . S
S905 N906 1.613 . S
S905 N907 1.610 . S
N906 S905 1.613 . S
N906 C909 1.350 . S
N907 S905 1.610 . S
N907 C908 1.351 . S
C908 C902 1.428 . S
C908 N907 1.351 . S
C908 C909 1.434 . S
C909 C900 1.429 . S
C909 N906 1.350 . S
C909 C908 1.434 . S
C910 C911 1.369 . S
C910 C912 1.419 . S
C910 H914 0.930 . S
C911 C910 1.369 . S
C911 C920 1.429 . S
C912 C910 1.419 . S
C912 C913 1.363 . S
C912 H915 0.929 . S
C913 C912 1.363 . S
C913 C919 1.428 . S
H914 C910 0.930 . S
H915 C912 0.929 . S
S916 N917 1.613 . S
S916 N918 1.610 . S
N917 S916 1.613 . S
N917 C920 1.350 . S
N918 S916 1.610 . S
N918 C919 1.351 . S
C919 C913 1.428 . S
C919 N918 1.351 . S
C919 C920 1.434 . S
C920 C911 1.429 . S
C920 N917 1.350 . S
C920 C919 1.434 . S
C921 C922 1.369 . S
C921 C923 1.419 . S
C921 H925 0.930 . S
C922 C921 1.369 . S
C922 C931 1.429 . S
C923 C921 1.419 . S
C923 C924 1.363 . S
C923 H926 0.929 . S
C924 C923 1.363 . S
C924 C930 1.428 . S
H925 C921 0.930 . S
H926 C923 0.929 . S
S927 N928 1.613 . S
S927 N929 1.610 . S
N928 S927 1.613 . S
N928 C931 1.350 . S
N929 S927 1.610 . S
N929 C930 1.351 . S
C930 C924 1.428 . S
C930 N929 1.351 . S
C930 C931 1.434 . S
C931 C922 1.429 . S
C931 N928 1.350 . S
C931 C930 1.434 . S
C932 C933 1.369 . S
C932 C934 1.419 . S
C932 H936 0.930 . S
C933 C932 1.369 . S
C933 C942 1.429 . S
C934 C932 1.419 . S
C934 C935 1.363 . S
C934 H937 0.929 . S
C935 C934 1.363 . S
C935 C941 1.428 . S
H936 C932 0.930 . S
H937 C934 0.929 . S
S938 N939 1.613 . S
S938 N940 1.610 . S
N939 S938 1.613 . S
N939 C942 1.350 . S
N940 S938 1.610 . S
N940 C941 1.351 . S
C941 C935 1.428 . S
C941 N940 1.351 . S
C941 C942 1.434 . S
C942 C933 1.429 . S
C942 N939 1.350 . S
C942 C941 1.434 . S
C943 C944 1.369 . S
C943 C945 1.419 . S
C943 H947 0.930 . S
C944 C943 1.369 . S
C944 C953 1.429 . S
C945 C943 1.419 . S
C945 C946 1.363 . S
C945 H948 0.929 . S
C946 C945 1.363 . S
C946 C952 1.428 . S
H947 C943 0.930 . S
H948 C945 0.929 . S
S949 N950 1.613 . S
S949 N951 1.610 . S
N950 S949 1.613 . S
N950 C953 1.350 . S
N951 S949 1.610 . S
N951 C952 1.351 . S
C952 C946 1.428 . S
C952 N951 1.351 . S
C952 C953 1.434 . S
C953 C944 1.429 . S
C953 N950 1.350 . S
C953 C952 1.434 . S
C954 C955 1.369 . S
C954 C956 1.419 . S
C954 H958 0.930 . S
C955 C954 1.369 . S
C955 C964 1.429 . S
C956 C954 1.419 . S
C956 C957 1.363 . S
C956 H959 0.929 . S
C957 C956 1.363 . S
C957 C963 1.428 . S
H958 C954 0.930 . S
H959 C956 0.929 . S
S960 N961 1.613 . S
S960 N962 1.610 . S
N961 S960 1.613 . S
N961 C964 1.350 . S
N962 S960 1.610 . S
N962 C963 1.351 . S
C963 C957 1.428 . S
C963 N962 1.351 . S
C963 C964 1.434 . S
C964 C955 1.429 . S
C964 N961 1.350 . S
C964 C963 1.434 . S
C965 C966 1.369 . S
C965 C967 1.419 . S
C965 H969 0.930 . S
C966 C965 1.369 . S
C966 C975 1.429 . S
C967 C965 1.419 . S
C967 C968 1.363 . S
C967 H970 0.929 . S
C968 C967 1.363 . S
C968 C974 1.428 . S
H969 C965 0.930 . S
H970 C967 0.929 . S
S971 N972 1.613 . S
S971 N973 1.610 . S
N972 S971 1.613 . S
N972 C975 1.350 . S
N973 S971 1.610 . S
N973 C974 1.351 . S
C974 C968 1.428 . S
C974 N973 1.351 . S
C974 C975 1.434 . S
C975 C966 1.429 . S
C975 N972 1.350 . S
C975 C974 1.434 . S
C976 C977 1.369 . S
C976 C978 1.419 . S
C976 H980 0.930 . S
C977 C976 1.369 . S
C977 C986 1.429 . S
C978 C976 1.419 . S
C978 C979 1.363 . S
C978 H981 0.929 . S
C979 C978 1.363 . S
C979 C985 1.428 . S
H980 C976 0.930 . S
H981 C978 0.929 . S
S982 N983 1.613 . S
S982 N984 1.610 . S
N983 S982 1.613 . S
N983 C986 1.350 . S
N984 S982 1.610 . S
N984 C985 1.351 . S
C985 C979 1.428 . S
C985 N984 1.351 . S
C985 C986 1.434 . S
C986 C977 1.429 . S
C986 N983 1.350 . S
C986 C985 1.434 . S
C987 C988 1.369 1_554 S
C987 C989 1.419 . S
C987 H991 0.930 . S
C988 C987 1.369 1_556 S
C988 C997 1.429 . S
C989 C987 1.419 . S
C989 C990 1.363 . S
C989 H992 0.929 . S
C990 C989 1.363 . S
C990 C996 1.428 1_554 S
H991 C987 0.930 . S
H992 C989 0.929 . S
S993 N994 1.613 . S
S993 N995 1.610 . S
N994 S993 1.613 . S
N994 C997 1.350 . S
N995 S993 1.610 . S
N995 C996 1.351 . S
C996 C990 1.428 1_556 S
C996 N995 1.351 . S
C996 C997 1.434 . S
C997 C988 1.429 . S
C997 N994 1.350 . S
C997 C996 1.434 . S
C998 C999 1.369 1_556 S
C998 C1000 1.419 . S
C998 H1002 0.930 . S
C999 C998 1.369 1_554 S
C999 C1008 1.429 . S
C1000 C998 1.419 . S
C1000 C1001 1.363 . S
C1000 H1003 0.929 . S
C1001 C1000 1.363 . S
C1001 C1007 1.428 1_556 S
H1002 C998 0.930 . S
H1003 C1000 0.929 . S
S1004 N1005 1.613 . S
S1004 N1006 1.610 . S
N1005 S1004 1.613 . S
N1005 C1008 1.350 . S
N1006 S1004 1.610 . S
N1006 C1007 1.351 . S
C1007 C1001 1.428 1_554 S
C1007 N1006 1.351 . S
C1007 C1008 1.434 . S
C1008 C999 1.429 . S
C1008 N1005 1.350 . S
C1008 C1007 1.434 . S
C1009 C1010 1.369 . S
C1009 C1011 1.412 1_556 S
C1009 H1013 0.930 . S
C1010 C1009 1.369 . S
C1010 C1019 1.429 . S
C1011 C1009 1.412 1_554 S
C1011 C1012 1.367 . S
C1011 H1014 0.934 . S
C1012 C1011 1.367 . S
C1012 C1018 1.429 1_554 S
H1013 C1009 0.930 . S
H1014 C1011 0.934 . S
S1015 N1016 1.613 . S
S1015 N1017 1.610 1_556 S
N1016 S1015 1.613 . S
N1016 C1019 1.350 . S
N1017 S1015 1.610 1_554 S
N1017 C1018 1.352 1_554 S
C1018 C1012 1.429 1_556 S
C1018 N1017 1.352 1_556 S
C1018 C1019 1.433 . S
C1019 C1010 1.429 . S
C1019 N1016 1.350 . S
C1019 C1018 1.433 . S
C1020 C1021 1.369 . S
C1020 C1022 1.419 . S
C1020 H1024 0.930 . S
C1021 C1020 1.369 . S
C1021 C1030 1.429 . S
C1022 C1020 1.419 . S
C1022 C1023 1.363 . S
C1022 H1025 0.929 . S
C1023 C1022 1.363 . S
C1023 C1029 1.428 . S
H1024 C1020 0.930 . S
H1025 C1022 0.929 . S
S1026 N1027 1.613 . S
S1026 N1028 1.610 . S
N1027 S1026 1.613 . S
N1027 C1030 1.350 . S
N1028 S1026 1.610 . S
N1028 C1029 1.351 . S
C1029 C1023 1.428 . S
C1029 N1028 1.351 . S
C1029 C1030 1.434 . S
C1030 C1021 1.429 . S
C1030 N1027 1.350 . S
C1030 C1029 1.434 . S
C1031 C1032 1.369 . S
C1031 C1033 1.419 . S
C1031 H1035 0.930 . S
C1032 C1031 1.369 . S
C1032 C1041 1.429 . S
C1033 C1031 1.419 . S
C1033 C1034 1.363 . S
C1033 H1036 0.929 . S
C1034 C1033 1.363 . S
C1034 C1040 1.428 . S
H1035 C1031 0.930 . S
H1036 C1033 0.929 . S
S1037 N1038 1.613 . S
S1037 N1039 1.610 . S
N1038 S1037 1.613 . S
N1038 C1041 1.350 . S
N1039 S1037 1.610 . S
N1039 C1040 1.351 . S
C1040 C1034 1.428 . S
C1040 N1039 1.351 . S
C1040 C1041 1.434 . S
C1041 C1032 1.429 . S
C1041 N1038 1.350 . S
C1041 C1040 1.434 . S
C1042 C1043 1.369 . S
C1042 C1044 1.419 . S
C1042 H1046 0.930 . S
C1043 C1042 1.369 . S
C1043 C1052 1.429 . S
C1044 C1042 1.419 . S
C1044 C1045 1.363 . S
C1044 H1047 0.929 . S
C1045 C1044 1.363 . S
C1045 C1051 1.428 . S
H1046 C1042 0.930 . S
H1047 C1044 0.929 . S
S1048 N1049 1.613 . S
S1048 N1050 1.610 . S
N1049 S1048 1.613 . S
N1049 C1052 1.350 . S
N1050 S1048 1.610 . S
N1050 C1051 1.351 . S
C1051 C1045 1.428 . S
C1051 N1050 1.351 . S
C1051 C1052 1.434 . S
C1052 C1043 1.429 . S
C1052 N1049 1.350 . S
C1052 C1051 1.434 . S
C1053 C1054 1.369 1_554 S
C1053 C1055 1.419 . S
C1053 H1057 0.930 . S
C1054 C1053 1.369 1_556 S
C1054 C1063 1.429 . S
C1055 C1053 1.419 . S
C1055 C1056 1.363 . S
C1055 H1058 0.929 . S
C1056 C1055 1.363 . S
C1056 C1062 1.428 1_554 S
H1057 C1053 0.930 . S
H1058 C1055 0.929 . S
S1059 N1060 1.613 . S
S1059 N1061 1.610 . S
N1060 S1059 1.613 . S
N1060 C1063 1.350 . S
N1061 S1059 1.610 . S
N1061 C1062 1.351 . S
C1062 C1056 1.428 1_556 S
C1062 N1061 1.351 . S
C1062 C1063 1.434 . S
C1063 C1054 1.429 . S
C1063 N1060 1.350 . S
C1063 C1062 1.434 . S
C1064 C1065 1.369 . S
C1064 C1066 1.419 . S
C1064 H1068 0.930 . S
C1065 C1064 1.369 . S
C1065 C1074 1.429 1_556 S
C1066 C1064 1.419 . S
C1066 C1067 1.363 1_556 S
C1066 H1069 0.929 . S
C1067 C1066 1.363 1_554 S
C1067 C1073 1.428 . S
H1068 C1064 0.930 . S
H1069 C1066 0.929 . S
S1070 N1071 1.613 . S
S1070 N1072 1.610 . S
N1071 S1070 1.613 . S
N1071 C1074 1.350 . S
N1072 S1070 1.610 . S
N1072 C1073 1.351 . S
C1073 C1067 1.428 . S
C1073 N1072 1.351 . S
C1073 C1074 1.434 . S
C1074 C1065 1.429 1_554 S
C1074 N1071 1.350 . S
C1074 C1073 1.434 . S
C1075 C1076 1.369 1_554 S
C1075 C1077 1.419 . S
C1075 H1079 0.930 . S
C1076 C1075 1.369 1_556 S
C1076 C1085 1.429 . S
C1077 C1075 1.419 . S
C1077 C1078 1.363 . S
C1077 H1080 0.929 . S
C1078 C1077 1.363 . S
C1078 C1084 1.428 1_554 S
H1079 C1075 0.930 . S
H1080 C1077 0.929 . S
S1081 N1082 1.613 . S
S1081 N1083 1.610 . S
N1082 S1081 1.613 . S
N1082 C1085 1.350 . S
N1083 S1081 1.610 . S
N1083 C1084 1.351 . S
C1084 C1078 1.428 1_556 S
C1084 N1083 1.351 . S
C1084 C1085 1.434 . S
C1085 C1076 1.429 . S
C1085 N1082 1.350 . S
C1085 C1084 1.434 . S
C1086 C1087 1.369 . S
C1086 C1088 1.419 . S
C1086 H1090 0.930 . S
C1087 C1086 1.369 . S
C1087 C1096 1.429 . S
C1088 C1086 1.419 . S
C1088 C1089 1.363 . S
C1088 H1091 0.929 . S
C1089 C1088 1.363 . S
C1089 C1095 1.428 . S
H1090 C1086 0.930 . S
H1091 C1088 0.929 . S
S1092 N1093 1.613 . S
S1092 N1094 1.610 . S
N1093 S1092 1.613 . S
N1093 C1096 1.350 . S
N1094 S1092 1.610 . S
N1094 C1095 1.351 . S
C1095 C1089 1.428 . S
C1095 N1094 1.351 . S
C1095 C1096 1.434 . S
C1096 C1087 1.429 . S
C1096 N1093 1.350 . S
C1096 C1095 1.434 . S
C1097 C1098 1.369 . S
C1097 C1099 1.419 . S
C1097 H1101 0.930 . S
C1098 C1097 1.369 . S
C1098 C1107 1.429 . S
C1099 C1097 1.419 . S
C1099 C1100 1.363 . S
C1099 H1102 0.929 . S
C1100 C1099 1.363 . S
C1100 C1106 1.428 . S
H1101 C1097 0.930 . S
H1102 C1099 0.929 . S
S1103 N1104 1.613 . S
S1103 N1105 1.610 . S
N1104 S1103 1.613 . S
N1104 C1107 1.350 . S
N1105 S1103 1.610 . S
N1105 C1106 1.351 . S
C1106 C1100 1.428 . S
C1106 N1105 1.351 . S
C1106 C1107 1.434 . S
C1107 C1098 1.429 . S
C1107 N1104 1.350 . S
C1107 C1106 1.434 . S
C1108 C1109 1.369 . S
C1108 C1110 1.419 . S
C1108 H1112 0.930 . S
C1109 C1108 1.369 . S
C1109 C1118 1.429 . S
C1110 C1108 1.419 . S
C1110 C1111 1.363 . S
C1110 H1113 0.929 . S
C1111 C1110 1.363 . S
C1111 C1117 1.428 . S
H1112 C1108 0.930 . S
H1113 C1110 0.929 . S
S1114 N1115 1.613 . S
S1114 N1116 1.610 . S
N1115 S1114 1.613 . S
N1115 C1118 1.350 . S
N1116 S1114 1.610 . S
N1116 C1117 1.351 . S
C1117 C1111 1.428 . S
C1117 N1116 1.351 . S
C1117 C1118 1.434 . S
C1118 C1109 1.429 . S
C1118 N1115 1.350 . S
C1118 C1117 1.434 . S
C1119 C1120 1.369 . S
C1119 C1121 1.419 . S
C1119 H1123 0.930 . S
C1120 C1119 1.369 . S
C1120 C1129 1.429 . S
C1121 C1119 1.419 . S
C1121 C1122 1.363 . S
C1121 H1124 0.929 . S
C1122 C1121 1.363 . S
C1122 C1128 1.428 . S
H1123 C1119 0.930 . S
H1124 C1121 0.929 . S
S1125 N1126 1.613 . S
S1125 N1127 1.610 . S
N1126 S1125 1.613 . S
N1126 C1129 1.350 . S
N1127 S1125 1.610 . S
N1127 C1128 1.351 . S
C1128 C1122 1.428 . S
C1128 N1127 1.351 . S
C1128 C1129 1.434 . S
C1129 C1120 1.429 . S
C1129 N1126 1.350 . S
C1129 C1128 1.434 . S
C1130 C1131 1.369 . S
C1130 C1132 1.419 . S
C1130 H1134 0.930 . S
C1131 C1130 1.369 . S
C1131 C1140 1.429 . S
C1132 C1130 1.419 . S
C1132 C1133 1.363 . S
C1132 H1135 0.929 . S
C1133 C1132 1.363 . S
C1133 C1139 1.428 . S
H1134 C1130 0.930 . S
H1135 C1132 0.929 . S
S1136 N1137 1.613 . S
S1136 N1138 1.610 . S
N1137 S1136 1.613 . S
N1137 C1140 1.350 . S
N1138 S1136 1.610 . S
N1138 C1139 1.351 . S
C1139 C1133 1.428 . S
C1139 N1138 1.351 . S
C1139 C1140 1.434 . S
C1140 C1131 1.429 . S
C1140 N1137 1.350 . S
C1140 C1139 1.434 . S
C1141 C1142 1.369 . S
C1141 C1143 1.419 . S
C1141 H1145 0.930 . S
C1142 C1141 1.369 . S
C1142 C1151 1.429 . S
C1143 C1141 1.419 . S
C1143 C1144 1.363 . S
C1143 H1146 0.929 . S
C1144 C1143 1.363 . S
C1144 C1150 1.428 . S
H1145 C1141 0.930 . S
H1146 C1143 0.929 . S
S1147 N1148 1.613 . S
S1147 N1149 1.610 . S
N1148 S1147 1.613 . S
N1148 C1151 1.350 . S
N1149 S1147 1.610 . S
N1149 C1150 1.351 . S
C1150 C1144 1.428 . S
C1150 N1149 1.351 . S
C1150 C1151 1.434 . S
C1151 C1142 1.429 . S
C1151 N1148 1.350 . S
C1151 C1150 1.434 . S
C1152 C1153 1.369 . S
C1152 C1154 1.419 . S
C1152 H1156 0.930 . S
C1153 C1152 1.369 . S
C1153 C1162 1.429 . S
C1154 C1152 1.419 . S
C1154 C1155 1.363 . S
C1154 H1157 0.929 . S
C1155 C1154 1.363 . S
C1155 C1161 1.428 . S
H1156 C1152 0.930 . S
H1157 C1154 0.929 . S
S1158 N1159 1.613 . S
S1158 N1160 1.610 . S
N1159 S1158 1.613 . S
N1159 C1162 1.350 . S
N1160 S1158 1.610 . S
N1160 C1161 1.351 . S
C1161 C1155 1.428 . S
C1161 N1160 1.351 . S
C1161 C1162 1.434 . S
C1162 C1153 1.429 . S
C1162 N1159 1.350 . S
C1162 C1161 1.434 . S
C1163 C1164 1.369 . S
C1163 C1165 1.419 . S
C1163 H1167 0.930 . S
C1164 C1163 1.369 . S
C1164 C1173 1.429 . S
C1165 C1163 1.419 . S
C1165 C1166 1.363 . S
C1165 H1168 0.929 . S
C1166 C1165 1.363 . S
C1166 C1172 1.428 . S
H1167 C1163 0.930 . S
H1168 C1165 0.929 . S
S1169 N1170 1.613 . S
S1169 N1171 1.610 . S
N1170 S1169 1.613 . S
N1170 C1173 1.350 . S
N1171 S1169 1.610 . S
N1171 C1172 1.351 . S
C1172 C1166 1.428 . S
C1172 N1171 1.351 . S
C1172 C1173 1.434 . S
C1173 C1164 1.429 . S
C1173 N1170 1.350 . S
C1173 C1172 1.434 . S
C1174 C1175 1.369 . S
C1174 C1176 1.419 . S
C1174 H1178 0.930 . S
C1175 C1174 1.369 . S
C1175 C1184 1.429 . S
C1176 C1174 1.419 . S
C1176 C1177 1.363 . S
C1176 H1179 0.926 1_455 S
C1177 C1176 1.363 . S
C1177 C1183 1.428 . S
H1178 C1174 0.930 . S
H1179 C1176 0.926 1_655 S
S1180 N1181 1.613 . S
S1180 N1182 1.610 . S
N1181 S1180 1.613 . S
N1181 C1184 1.350 . S
N1182 S1180 1.610 . S
N1182 C1183 1.351 . S
C1183 C1177 1.428 . S
C1183 N1182 1.351 . S
C1183 C1184 1.434 . S
C1184 C1175 1.429 . S
C1184 N1181 1.350 . S
C1184 C1183 1.434 . S
C1185 C1186 1.369 . S
C1185 C1187 1.419 . S
C1185 H1189 0.930 . S
C1186 C1185 1.369 . S
C1186 C1195 1.429 . S
C1187 C1185 1.419 . S
C1187 C1188 1.363 . S
C1187 H1190 0.929 . S
C1188 C1187 1.363 . S
C1188 C1194 1.428 . S
H1189 C1185 0.930 . S
H1190 C1187 0.929 . S
S1191 N1192 1.613 . S
S1191 N1193 1.610 . S
N1192 S1191 1.613 . S
N1192 C1195 1.350 . S
N1193 S1191 1.610 . S
N1193 C1194 1.351 . S
C1194 C1188 1.428 . S
C1194 N1193 1.351 . S
C1194 C1195 1.434 . S
C1195 C1186 1.429 . S
C1195 N1192 1.350 . S
C1195 C1194 1.434 . S
C1196 C1197 1.369 . S
C1196 C1198 1.419 . S
C1196 H1200 0.930 . S
C1197 C1196 1.369 . S
C1197 C1206 1.429 . S
C1198 C1196 1.419 . S
C1198 C1199 1.363 . S
C1198 H1201 0.929 . S
C1199 C1198 1.363 . S
C1199 C1205 1.428 . S
H1200 C1196 0.930 . S
H1201 C1198 0.929 . S
S1202 N1203 1.613 . S
S1202 N1204 1.610 1_565 S
N1203 S1202 1.613 . S
N1203 C1206 1.350 1_565 S
N1204 S1202 1.610 1_545 S
N1204 C1205 1.351 . S
C1205 C1199 1.428 . S
C1205 N1204 1.351 . S
C1205 C1206 1.434 . S
C1206 C1197 1.429 . S
C1206 N1203 1.350 1_545 S
C1206 C1205 1.434 . S
C1207 C1208 1.369 . S
C1207 C1209 1.419 . S
C1207 H1211 0.930 . S
C1208 C1207 1.369 . S
C1208 C1217 1.429 . S
C1209 C1207 1.419 . S
C1209 C1210 1.363 . S
C1209 H1212 0.929 . S
C1210 C1209 1.363 . S
C1210 C1216 1.428 . S
H1211 C1207 0.930 . S
H1212 C1209 0.929 . S
S1213 N1214 1.613 . S
S1213 N1215 1.610 . S
N1214 S1213 1.613 . S
N1214 C1217 1.350 . S
N1215 S1213 1.610 . S
N1215 C1216 1.351 . S
C1216 C1210 1.428 . S
C1216 N1215 1.351 . S
C1216 C1217 1.434 . S
C1217 C1208 1.429 . S
C1217 N1214 1.350 . S
C1217 C1216 1.434 . S
C1218 C1219 1.369 . S
C1218 C1220 1.419 . S
C1218 H1222 0.930 . S
C1219 C1218 1.369 . S
C1219 C1228 1.429 . S
C1220 C1218 1.419 . S
C1220 C1221 1.363 . S
C1220 H1223 0.929 . S
C1221 C1220 1.363 . S
C1221 C1227 1.428 . S
H1222 C1218 0.930 . S
H1223 C1220 0.929 . S
S1224 N1225 1.613 . S
S1224 N1226 1.610 . S
N1225 S1224 1.613 . S
N1225 C1228 1.350 . S
N1226 S1224 1.610 . S
N1226 C1227 1.351 . S
C1227 C1221 1.428 . S
C1227 N1226 1.351 . S
C1227 C1228 1.434 . S
C1228 C1219 1.429 . S
C1228 N1225 1.350 . S
C1228 C1227 1.434 . S
C1229 C1230 1.369 . S
C1229 C1231 1.419 . S
C1229 H1233 0.930 . S
C1230 C1229 1.369 . S
C1230 C1239 1.429 . S
C1231 C1229 1.419 . S
C1231 C1232 1.363 . S
C1231 H1234 0.929 1_545 S
C1232 C1231 1.363 . S
C1232 C1238 1.428 . S
H1233 C1229 0.930 . S
H1234 C1231 0.929 1_565 S
S1235 N1236 1.613 . S
S1235 N1237 1.610 . S
N1236 S1235 1.613 . S
N1236 C1239 1.350 . S
N1237 S1235 1.610 . S
N1237 C1238 1.351 . S
C1238 C1232 1.428 . S
C1238 N1237 1.351 . S
C1238 C1239 1.434 . S
C1239 C1230 1.429 . S
C1239 N1236 1.350 . S
C1239 C1238 1.434 . S
C1240 C1241 1.369 . S
C1240 C1242 1.419 . S
C1240 H1244 0.930 . S
C1241 C1240 1.369 . S
C1241 C1250 1.429 . S
C1242 C1240 1.419 . S
C1242 C1243 1.363 . S
C1242 H1245 0.929 1_655 S
C1243 C1242 1.363 . S
C1243 C1249 1.428 . S
H1244 C1240 0.930 . S
H1245 C1242 0.929 1_455 S
S1246 N1247 1.613 . S
S1246 N1248 1.610 . S
N1247 S1246 1.613 . S
N1247 C1250 1.350 . S
N1248 S1246 1.610 . S
N1248 C1249 1.351 . S
C1249 C1243 1.428 . S
C1249 N1248 1.351 . S
C1249 C1250 1.434 . S
C1250 C1241 1.429 . S
C1250 N1247 1.350 . S
C1250 C1249 1.434 . S
C1251 C1252 1.369 . S
C1251 C1253 1.419 . S
C1251 H1255 0.930 . S
C1252 C1251 1.369 . S
C1252 C1261 1.429 . S
C1253 C1251 1.419 . S
C1253 C1254 1.363 . S
C1253 H1256 0.929 . S
C1254 C1253 1.363 . S
C1254 C1260 1.428 . S
H1255 C1251 0.930 . S
H1256 C1253 0.929 . S
S1257 N1258 1.613 . S
S1257 N1259 1.610 . S
N1258 S1257 1.613 . S
N1258 C1261 1.350 . S
N1259 S1257 1.610 . S
N1259 C1260 1.351 . S
C1260 C1254 1.428 . S
C1260 N1259 1.351 . S
C1260 C1261 1.434 . S
C1261 C1252 1.429 . S
C1261 N1258 1.350 . S
C1261 C1260 1.434 . S
C1262 C1263 1.369 . S
C1262 C1264 1.419 . S
C1262 H1266 0.930 . S
C1263 C1262 1.369 . S
C1263 C1272 1.429 . S
C1264 C1262 1.419 . S
C1264 C1265 1.363 . S
C1264 H1267 0.929 . S
C1265 C1264 1.363 . S
C1265 C1271 1.428 . S
H1266 C1262 0.930 . S
H1267 C1264 0.929 . S
S1268 N1269 1.613 . S
S1268 N1270 1.610 1_545 S
N1269 S1268 1.613 . S
N1269 C1272 1.350 1_545 S
N1270 S1268 1.610 1_565 S
N1270 C1271 1.351 . S
C1271 C1265 1.428 . S
C1271 N1270 1.351 . S
C1271 C1272 1.434 . S
C1272 C1263 1.429 . S
C1272 N1269 1.350 1_565 S
C1272 C1271 1.434 . S
C1273 C1274 1.369 . S
C1273 C1275 1.419 . S
C1273 H1277 0.930 . S
C1274 C1273 1.369 . S
C1274 C1283 1.429 . S
C1275 C1273 1.419 . S
C1275 C1276 1.363 . S
C1275 H1278 0.929 . S
C1276 C1275 1.363 . S
C1276 C1282 1.428 . S
H1277 C1273 0.930 . S
H1278 C1275 0.929 . S
S1279 N1280 1.613 . S
S1279 N1281 1.610 1_655 S
N1280 S1279 1.613 . S
N1280 C1283 1.350 1_655 S
N1281 S1279 1.610 1_455 S
N1281 C1282 1.351 . S
C1282 C1276 1.428 . S
C1282 N1281 1.351 . S
C1282 C1283 1.434 . S
C1283 C1274 1.429 . S
C1283 N1280 1.350 1_455 S
C1283 C1282 1.434 . S
C1284 C1285 1.369 . S
C1284 C1286 1.419 . S
C1284 H1288 0.930 . S
C1285 C1284 1.369 . S
C1285 C1294 1.429 . S
C1286 C1284 1.419 . S
C1286 C1287 1.363 1_655 S
C1286 H1289 0.929 1_655 S
C1287 C1286 1.363 1_455 S
C1287 C1293 1.428 . S
H1288 C1284 0.930 . S
H1289 C1286 0.929 1_455 S
S1290 N1291 1.613 . S
S1290 N1292 1.610 1_655 S
N1291 S1290 1.613 . S
N1291 C1294 1.350 . S
N1292 S1290 1.610 1_455 S
N1292 C1293 1.351 . S
C1293 C1287 1.428 . S
C1293 N1292 1.351 . S
C1293 C1294 1.434 1_455 S
C1294 C1285 1.429 . S
C1294 N1291 1.350 . S
C1294 C1293 1.434 1_655 S
C1295 C1296 1.369 . S
C1295 C1297 1.419 . S
C1295 H1299 0.930 . S
C1296 C1295 1.369 . S
C1296 C1305 1.429 . S
C1297 C1295 1.419 . S
C1297 C1298 1.363 . S
C1297 H1300 0.929 . S
C1298 C1297 1.363 . S
C1298 C1304 1.428 . S
H1299 C1295 0.930 . S
H1300 C1297 0.929 . S
S1301 N1302 1.613 . S
S1301 N1303 1.610 . S
N1302 S1301 1.613 . S
N1302 C1305 1.350 . S
N1303 S1301 1.610 . S
N1303 C1304 1.351 . S
C1304 C1298 1.428 . S
C1304 N1303 1.351 . S
C1304 C1305 1.434 . S
C1305 C1296 1.429 . S
C1305 N1302 1.350 . S
C1305 C1304 1.434 . S
C1306 C1307 1.369 1_545 S
C1306 C1308 1.419 . S
C1306 H1310 0.930 1_545 S
C1307 C1306 1.369 1_565 S
C1307 C1316 1.429 . S
C1308 C1306 1.419 . S
C1308 C1309 1.363 . S
C1308 H1311 0.929 . S
C1309 C1308 1.363 . S
C1309 C1315 1.428 . S
H1310 C1306 0.930 1_565 S
H1311 C1308 0.929 . S
S1312 N1313 1.613 1_545 S
S1312 N1314 1.610 . S
N1313 S1312 1.613 1_565 S
N1313 C1316 1.350 . S
N1314 S1312 1.610 . S
N1314 C1315 1.351 . S
C1315 C1309 1.428 . S
C1315 N1314 1.351 . S
C1315 C1316 1.434 1_545 S
C1316 C1307 1.429 . S
C1316 N1313 1.350 . S
C1316 C1315 1.434 1_565 S
C1317 C1318 1.369 . S
C1317 C1319 1.419 . S
C1317 H1321 0.930 . S
C1318 C1317 1.369 . S
C1318 C1327 1.429 . S
C1319 C1317 1.419 . S
C1319 C1320 1.363 . S
C1319 H1322 0.929 . S
C1320 C1319 1.363 . S
C1320 C1326 1.428 . S
H1321 C1317 0.930 . S
H1322 C1319 0.929 . S
S1323 N1324 1.613 1_655 S
S1323 N1325 1.610 . S
N1324 S1323 1.613 1_455 S
N1324 C1327 1.350 . S
N1325 S1323 1.610 . S
N1325 C1326 1.351 1_655 S
C1326 C1320 1.428 . S
C1326 N1325 1.351 1_455 S
C1326 C1327 1.434 . S
C1327 C1318 1.429 . S
C1327 N1324 1.350 . S
C1327 C1326 1.434 . S
C1328 C1329 1.369 . S
C1328 C1330 1.419 . S
C1328 H1332 0.930 . S
C1329 C1328 1.369 . S
C1329 C1338 1.429 . S
C1330 C1328 1.419 . S
C1330 C1331 1.363 . S
C1330 H1333 0.929 . S
C1331 C1330 1.363 . S
C1331 C1337 1.428 . S
H1332 C1328 0.930 . S
H1333 C1330 0.929 . S
S1334 N1335 1.613 . S
S1334 N1336 1.610 . S
N1335 S1334 1.613 . S
N1335 C1338 1.350 . S
N1336 S1334 1.610 . S
N1336 C1337 1.351 . S
C1337 C1331 1.428 . S
C1337 N1336 1.351 . S
C1337 C1338 1.434 . S
C1338 C1329 1.429 . S
C1338 N1335 1.350 . S
C1338 C1337 1.434 . S
C1339 C1340 1.369 . S
C1339 C1341 1.419 . S
C1339 H1343 0.930 . S
C1340 C1339 1.369 . S
C1340 C1349 1.429 . S
C1341 C1339 1.419 . S
C1341 C1342 1.363 . S
C1341 H1344 0.929 . S
C1342 C1341 1.363 . S
C1342 C1348 1.428 . S
H1343 C1339 0.930 . S
H1344 C1341 0.929 . S
S1345 N1346 1.613 . S
S1345 N1347 1.610 . S
N1346 S1345 1.613 . S
N1346 C1349 1.350 . S
N1347 S1345 1.610 . S
N1347 C1348 1.351 . S
C1348 C1342 1.428 . S
C1348 N1347 1.351 . S
C1348 C1349 1.434 . S
C1349 C1340 1.429 . S
C1349 N1346 1.350 . S
C1349 C1348 1.434 . S
C1350 C1351 1.369 . S
C1350 C1352 1.419 . S
C1350 H1354 0.930 . S
C1351 C1350 1.369 . S
C1351 C1360 1.429 . S
C1352 C1350 1.419 . S
C1352 C1353 1.363 . S
C1352 H1355 0.929 1_565 S
C1353 C1352 1.363 . S
C1353 C1359 1.428 . S
H1354 C1350 0.930 . S
H1355 C1352 0.929 1_545 S
S1356 N1357 1.613 . S
S1356 N1358 1.610 . S
N1357 S1356 1.613 . S
N1357 C1360 1.350 . S
N1358 S1356 1.610 . S
N1358 C1359 1.351 . S
C1359 C1353 1.428 . S
C1359 N1358 1.351 . S
C1359 C1360 1.434 . S
C1360 C1351 1.429 . S
C1360 N1357 1.350 . S
C1360 C1359 1.434 . S
C1361 C1362 1.369 . S
C1361 C1363 1.419 . S
C1361 H1365 0.930 . S
C1362 C1361 1.369 . S
C1362 C1371 1.429 1_455 S
C1363 C1361 1.419 . S
C1363 C1364 1.363 . S
C1363 H1366 0.929 . S
C1364 C1363 1.363 . S
C1364 C1370 1.428 . S
H1365 C1361 0.930 . S
H1366 C1363 0.929 . S
S1367 N1368 1.613 . S
S1367 N1369 1.610 . S
N1368 S1367 1.613 . S
N1368 C1371 1.350 . S
N1369 S1367 1.610 . S
N1369 C1370 1.351 1_655 S
C1370 C1364 1.428 . S
C1370 N1369 1.351 1_455 S
C1370 C1371 1.434 1_455 S
C1371 C1362 1.429 1_655 S
C1371 N1368 1.350 . S
C1371 C1370 1.434 1_655 S
C1372 C1373 1.369 . S
C1372 C1374 1.419 . S
C1372 H1376 0.930 . S
C1373 C1372 1.369 . S
C1373 C1382 1.429 . S
C1374 C1372 1.419 . S
C1374 C1375 1.363 . S
C1374 H1377 0.929 . S
C1375 C1374 1.363 . S
C1375 C1381 1.428 . S
H1376 C1372 0.930 . S
H1377 C1374 0.929 . S
S1378 N1379 1.613 . S
S1378 N1380 1.610 . S
N1379 S1378 1.613 . S
N1379 C1382 1.350 . S
N1380 S1378 1.610 . S
N1380 C1381 1.351 . S
C1381 C1375 1.428 . S
C1381 N1380 1.351 . S
C1381 C1382 1.434 . S
C1382 C1373 1.429 . S
C1382 N1379 1.350 . S
C1382 C1381 1.434 . S
C1383 C1384 1.369 1_546 S
C1383 C1385 1.419 . S
C1383 H1387 0.930 1_545 S
C1384 C1383 1.369 1_564 S
C1384 C1393 1.429 1_565 S
C1385 C1383 1.419 . S
C1385 C1386 1.363 1_556 S
C1385 H1388 0.929 . S
C1386 C1385 1.363 1_554 S
C1386 C1392 1.428 . S
H1387 C1383 0.930 1_565 S
H1388 C1385 0.929 . S
S1389 N1390 1.613 1_545 S
S1389 N1391 1.610 . S
N1390 S1389 1.613 1_565 S
N1390 C1393 1.350 1_565 S
N1391 S1389 1.610 . S
N1391 C1392 1.351 . S
C1392 C1386 1.428 . S
C1392 N1391 1.351 . S
C1392 C1393 1.434 . S
C1393 C1384 1.429 1_545 S
C1393 N1390 1.350 1_545 S
C1393 C1392 1.434 . S
C1394 C1395 1.369 1_655 S
C1394 C1396 1.419 . S
C1394 H1398 0.930 1_655 S
C1395 C1394 1.369 1_455 S
C1395 C1404 1.429 1_454 S
C1396 C1394 1.419 . S
C1396 C1397 1.363 . S
C1396 H1399 0.929 . S
C1397 C1396 1.363 . S
C1397 C1403 1.428 1_554 S
H1398 C1394 0.930 1_455 S
H1399 C1396 0.929 . S
S1400 N1401 1.613 1_655 S
S1400 N1402 1.610 . S
N1401 S1400 1.613 1_455 S
N1401 C1404 1.350 1_455 S
N1402 S1400 1.610 . S
N1402 C1403 1.351 . S
C1403 C1397 1.428 1_556 S
C1403 N1402 1.351 . S
C1403 C1404 1.434 . S
C1404 C1395 1.429 1_656 S
C1404 N1401 1.350 1_655 S
C1404 C1403 1.434 . S
C1405 C1406 1.369 1_556 S
C1405 C1407 1.419 . S
C1405 H1409 0.930 . S
C1406 C1405 1.369 1_554 S
C1406 C1415 1.429 . S
C1407 C1405 1.419 . S
C1407 C1408 1.363 1_556 S
C1407 H1410 0.929 . S
C1408 C1407 1.363 1_554 S
C1408 C1414 1.428 . S
H1409 C1405 0.930 . S
H1410 C1407 0.929 . S
S1411 N1412 1.613 . S
S1411 N1413 1.610 . S
N1412 S1411 1.613 . S
N1412 C1415 1.350 . S
N1413 S1411 1.610 . S
N1413 C1414 1.351 . S
C1414 C1408 1.428 . S
C1414 N1413 1.351 . S
C1414 C1415 1.434 . S
C1415 C1406 1.429 . S
C1415 N1412 1.350 . S
C1415 C1414 1.434 . S
C1416 C1417 1.369 . S
C1416 C1418 1.419 1_545 S
C1416 H1420 0.930 1_545 S
C1417 C1416 1.369 . S
C1417 C1426 1.429 . S
C1418 C1416 1.419 1_565 S
C1418 C1419 1.363 1_565 S
C1418 H1421 0.929 . S
C1419 C1418 1.363 1_545 S
C1419 C1425 1.428 . S
H1420 C1416 0.930 1_565 S
H1421 C1418 0.929 . S
S1422 N1423 1.613 . S
S1422 N1424 1.610 . S
N1423 S1422 1.613 . S
N1423 C1426 1.350 . S
N1424 S1422 1.610 . S
N1424 C1425 1.351 . S
C1425 C1419 1.428 . S
C1425 N1424 1.351 . S
C1425 C1426 1.434 . S
C1426 C1417 1.429 . S
C1426 N1423 1.350 . S
C1426 C1425 1.434 . S
C1427 C1428 1.369 . S
C1427 C1429 1.419 1_655 S
C1427 H1431 0.930 1_655 S
C1428 C1427 1.369 . S
C1428 C1437 1.429 . S
C1429 C1427 1.419 1_455 S
C1429 C1430 1.363 1_455 S
C1429 H1432 0.929 . S
C1430 C1429 1.363 1_655 S
C1430 C1436 1.428 . S
H1431 C1427 0.930 1_455 S
H1432 C1429 0.929 . S
S1433 N1434 1.613 . S
S1433 N1435 1.610 . S
N1434 S1433 1.613 . S
N1434 C1437 1.350 . S
N1435 S1433 1.610 . S
N1435 C1436 1.351 . S
C1436 C1430 1.428 . S
C1436 N1435 1.351 . S
C1436 C1437 1.434 . S
C1437 C1428 1.429 . S
C1437 N1434 1.350 . S
C1437 C1436 1.434 . S
C1438 C1439 1.369 . S
C1438 C1440 1.419 . S
C1438 H1442 0.930 . S
C1439 C1438 1.369 . S
C1439 C1448 1.429 . S
C1440 C1438 1.419 . S
C1440 C1441 1.363 . S
C1440 H1443 0.929 . S
C1441 C1440 1.363 . S
C1441 C1447 1.428 . S
H1442 C1438 0.930 . S
H1443 C1440 0.929 . S
S1444 N1445 1.613 . S
S1444 N1446 1.610 . S
N1445 S1444 1.613 . S
N1445 C1448 1.350 . S
N1446 S1444 1.610 . S
N1446 C1447 1.351 . S
C1447 C1441 1.428 . S
C1447 N1446 1.351 . S
C1447 C1448 1.434 . S
C1448 C1439 1.429 . S
C1448 N1445 1.350 . S
C1448 C1447 1.434 . S
C1449 C1450 1.369 1_554 S
C1449 C1451 1.419 1_565 S
C1449 H1453 0.930 . S
C1450 C1449 1.369 1_556 S
C1450 C1459 1.429 . S
C1451 C1449 1.419 1_545 S
C1451 C1452 1.363 1_554 S
C1451 H1454 0.929 . S
C1452 C1451 1.363 1_556 S
C1452 C1458 1.428 1_545 S
H1453 C1449 0.930 . S
H1454 C1451 0.929 . S
S1455 N1456 1.613 . S
S1455 N1457 1.610 1_565 S
N1456 S1455 1.613 . S
N1456 C1459 1.350 . S
N1457 S1455 1.610 1_545 S
N1457 C1458 1.351 1_545 S
C1458 C1452 1.428 1_565 S
C1458 N1457 1.351 1_565 S
C1458 C1459 1.434 . S
C1459 C1450 1.429 . S
C1459 N1456 1.350 . S
C1459 C1458 1.434 . S
C1460 C1461 1.369 . S
C1460 C1462 1.419 1_655 S
C1460 H1464 0.930 . S
C1461 C1460 1.369 . S
C1461 C1470 1.429 1_656 S
C1462 C1460 1.419 1_455 S
C1462 C1463 1.363 . S
C1462 H1465 0.929 . S
C1463 C1462 1.363 . S
C1463 C1469 1.428 1_556 S
H1464 C1460 0.930 . S
H1465 C1462 0.929 . S
S1466 N1467 1.613 1_455 S
S1466 N1468 1.610 . S
N1467 S1466 1.613 1_655 S
N1467 C1470 1.350 1_655 S
N1468 S1466 1.610 . S
N1468 C1469 1.351 . S
C1469 C1463 1.428 1_554 S
C1469 N1468 1.351 . S
C1469 C1470 1.434 . S
C1470 C1461 1.429 1_454 S
C1470 N1467 1.350 1_455 S
C1470 C1469 1.434 . S
C1471 C1472 1.369 . S
C1471 C1473 1.419 . S
C1471 H1475 0.930 . S
C1472 C1471 1.369 . S
C1472 C1481 1.429 1_556 S
C1473 C1471 1.419 . S
C1473 C1474 1.363 . S
C1473 H1476 0.929 . S
C1474 C1473 1.363 . S
C1474 C1480 1.428 1_556 S
H1475 C1471 0.930 . S
H1476 C1473 0.929 . S
S1477 N1478 1.613 . S
S1477 N1479 1.610 . S
N1478 S1477 1.613 . S
N1478 C1481 1.350 . S
N1479 S1477 1.610 . S
N1479 C1480 1.351 . S
C1480 C1474 1.428 1_554 S
C1480 N1479 1.351 . S
C1480 C1481 1.434 . S
C1481 C1472 1.429 1_554 S
C1481 N1478 1.350 . S
C1481 C1480 1.434 . S
C1482 C1483 1.369 . S
C1482 C1484 1.419 1_455 S
C1482 H1486 0.930 . S
C1483 C1482 1.369 . S
C1483 C1492 1.429 . S
C1484 C1482 1.419 1_655 S
C1484 C1485 1.363 . S
C1484 H1487 0.929 . S
C1485 C1484 1.363 . S
C1485 C1491 1.428 1_655 S
H1486 C1482 0.930 . S
H1487 C1484 0.929 . S
S1488 N1489 1.613 . S
S1488 N1490 1.610 1_455 S
N1489 S1488 1.613 . S
N1489 C1492 1.350 . S
N1490 S1488 1.610 1_655 S
N1490 C1491 1.351 1_655 S
C1491 C1485 1.428 1_455 S
C1491 N1490 1.351 1_455 S
C1491 C1492 1.434 . S
C1492 C1483 1.429 . S
C1492 N1489 1.350 . S
C1492 C1491 1.434 . S
C1493 C1494 1.369 . S
C1493 C1495 1.419 . S
C1493 H1497 0.930 . S
C1494 C1493 1.369 . S
C1494 C1503 1.429 . S
C1495 C1493 1.419 . S
C1495 C1496 1.363 . S
C1495 H1498 0.929 . S
C1496 C1495 1.363 . S
C1496 C1502 1.428 . S
H1497 C1493 0.930 . S
H1498 C1495 0.929 . S
S1499 N1500 1.613 . S
S1499 N1501 1.610 . S
N1500 S1499 1.613 . S
N1500 C1503 1.350 . S
N1501 S1499 1.610 . S
N1501 C1502 1.351 . S
C1502 C1496 1.428 . S
C1502 N1501 1.351 . S
C1502 C1503 1.434 . S
C1503 C1494 1.429 . S
C1503 N1500 1.350 . S
C1503 C1502 1.434 . S
C1504 C1505 1.369 . S
C1504 C1506 1.419 . S
C1504 H1508 0.930 . S
C1505 C1504 1.369 . S
C1505 C1514 1.429 . S
C1506 C1504 1.419 . S
C1506 C1507 1.363 1_565 S
C1506 H1509 0.929 1_565 S
C1507 C1506 1.363 1_545 S
C1507 C1513 1.428 . S
H1508 C1504 0.930 . S
H1509 C1506 0.929 1_545 S
S1510 N1511 1.613 . S
S1510 N1512 1.610 1_565 S
N1511 S1510 1.613 . S
N1511 C1514 1.350 . S
N1512 S1510 1.610 1_545 S
N1512 C1513 1.351 . S
C1513 C1507 1.428 . S
C1513 N1512 1.351 . S
C1513 C1514 1.434 1_545 S
C1514 C1505 1.429 . S
C1514 N1511 1.350 . S
C1514 C1513 1.434 1_565 S
C1515 C1516 1.369 . S
C1515 C1517 1.419 . S
C1515 H1519 0.930 . S
C1516 C1515 1.369 . S
C1516 C1525 1.429 1_655 S
C1517 C1515 1.419 . S
C1517 C1518 1.363 . S
C1517 H1520 0.929 . S
C1518 C1517 1.363 . S
C1518 C1524 1.428 . S
H1519 C1515 0.930 . S
H1520 C1517 0.929 . S
S1521 N1522 1.613 . S
S1521 N1523 1.610 . S
N1522 S1521 1.613 . S
N1522 C1525 1.350 . S
N1523 S1521 1.610 . S
N1523 C1524 1.351 1_455 S
C1524 C1518 1.428 . S
C1524 N1523 1.351 1_655 S
C1524 C1525 1.434 1_655 S
C1525 C1516 1.429 1_455 S
C1525 N1522 1.350 . S
C1525 C1524 1.434 1_455 S
C1526 C1527 1.369 . S
C1526 C1528 1.419 . S
C1526 H1530 0.930 . S
C1527 C1526 1.369 . S
C1527 C1536 1.429 . S
C1528 C1526 1.419 . S
C1528 C1529 1.363 . S
C1528 H1531 0.929 . S
C1529 C1528 1.363 . S
C1529 C1535 1.428 . S
H1530 C1526 0.930 . S
H1531 C1528 0.929 . S
S1532 N1533 1.613 . S
S1532 N1534 1.610 . S
N1533 S1532 1.613 . S
N1533 C1536 1.350 . S
N1534 S1532 1.610 . S
N1534 C1535 1.351 . S
C1535 C1529 1.428 . S
C1535 N1534 1.351 . S
C1535 C1536 1.434 . S
C1536 C1527 1.429 . S
C1536 N1533 1.350 . S
C1536 C1535 1.434 . S
C1537 C1538 1.369 . S
C1537 C1539 1.419 . S
C1537 H1541 0.930 . S
C1538 C1537 1.369 . S
C1538 C1547 1.429 . S
C1539 C1537 1.419 . S
C1539 C1540 1.363 . S
C1539 H1542 0.929 . S
C1540 C1539 1.363 . S
C1540 C1546 1.428 1_545 S
H1541 C1537 0.930 . S
H1542 C1539 0.929 . S
S1543 N1544 1.613 . S
S1543 N1545 1.610 . S
N1544 S1543 1.613 . S
N1544 C1547 1.350 1_565 S
N1545 S1543 1.610 . S
N1545 C1546 1.351 . S
C1546 C1540 1.428 1_565 S
C1546 N1545 1.351 . S
C1546 C1547 1.434 1_565 S
C1547 C1538 1.429 . S
C1547 N1544 1.350 1_545 S
C1547 C1546 1.434 1_545 S
C1548 C1549 1.369 . S
C1548 C1550 1.419 . S
C1548 H1552 0.930 . S
C1549 C1548 1.369 . S
C1549 C1558 1.429 . S
C1550 C1548 1.419 . S
C1550 C1551 1.363 . S
C1550 H1553 0.929 . S
C1551 C1550 1.363 . S
C1551 C1557 1.428 . S
H1552 C1548 0.930 . S
H1553 C1550 0.929 . S
S1554 N1555 1.613 . S
S1554 N1556 1.610 . S
N1555 S1554 1.613 . S
N1555 C1558 1.350 . S
N1556 S1554 1.610 . S
N1556 C1557 1.351 . S
C1557 C1551 1.428 . S
C1557 N1556 1.351 . S
C1557 C1558 1.434 . S
C1558 C1549 1.429 . S
C1558 N1555 1.350 . S
C1558 C1557 1.434 . S
C1559 C1560 1.369 . S
C1559 C1561 1.419 . S
C1559 H1563 0.930 . S
C1560 C1559 1.369 . S
C1560 C1569 1.429 . S
C1561 C1559 1.419 . S
C1561 C1562 1.363 . S
C1561 H1564 0.929 . S
C1562 C1561 1.363 . S
C1562 C1568 1.428 . S
H1563 C1559 0.930 . S
H1564 C1561 0.929 . S
S1565 N1566 1.613 . S
S1565 N1567 1.610 . S
N1566 S1565 1.613 . S
N1566 C1569 1.350 . S
N1567 S1565 1.610 . S
N1567 C1568 1.351 . S
C1568 C1562 1.428 . S
C1568 N1567 1.351 . S
C1568 C1569 1.434 . S
C1569 C1560 1.429 . S
C1569 N1566 1.350 . S
C1569 C1568 1.434 . S
C1570 C1571 1.369 . S
C1570 C1572 1.419 . S
C1570 H1574 0.930 . S
C1571 C1570 1.369 . S
C1571 C1580 1.429 . S
C1572 C1570 1.419 . S
C1572 C1573 1.363 . S
C1572 H1575 0.929 . S
C1573 C1572 1.363 . S
C1573 C1579 1.428 . S
H1574 C1570 0.930 . S
H1575 C1572 0.929 . S
S1576 N1577 1.613 . S
S1576 N1578 1.610 . S
N1577 S1576 1.613 . S
N1577 C1580 1.350 . S
N1578 S1576 1.610 . S
N1578 C1579 1.351 . S
C1579 C1573 1.428 . S
C1579 N1578 1.351 . S
C1579 C1580 1.434 . S
C1580 C1571 1.429 . S
C1580 N1577 1.350 . S
C1580 C1579 1.434 . S
C1581 C1582 1.369 . S
C1581 C1583 1.419 . S
C1581 H1585 0.930 . S
C1582 C1581 1.369 . S
C1582 C1591 1.429 . S
C1583 C1581 1.419 . S
C1583 C1584 1.363 . S
C1583 H1586 0.929 . S
C1584 C1583 1.363 . S
C1584 C1590 1.428 . S
H1585 C1581 0.930 . S
H1586 C1583 0.929 . S
S1587 N1588 1.613 . S
S1587 N1589 1.610 . S
N1588 S1587 1.613 . S
N1588 C1591 1.350 . S
N1589 S1587 1.610 . S
N1589 C1590 1.351 . S
C1590 C1584 1.428 . S
C1590 N1589 1.351 . S
C1590 C1591 1.434 . S
C1591 C1582 1.429 . S
C1591 N1588 1.350 . S
C1591 C1590 1.434 . S
C1592 C1593 1.369 . S
C1592 C1594 1.419 . S
C1592 H1596 0.930 . S
C1593 C1592 1.369 . S
C1593 C1602 1.429 . S
C1594 C1592 1.419 . S
C1594 C1595 1.363 . S
C1594 H1597 0.929 . S
C1595 C1594 1.363 . S
C1595 C1601 1.428 . S
H1596 C1592 0.930 . S
H1597 C1594 0.929 . S
S1598 N1599 1.613 . S
S1598 N1600 1.610 . S
N1599 S1598 1.613 . S
N1599 C1602 1.350 . S
N1600 S1598 1.610 . S
N1600 C1601 1.351 . S
C1601 C1595 1.428 . S
C1601 N1600 1.351 . S
C1601 C1602 1.434 . S
C1602 C1593 1.429 . S
C1602 N1599 1.350 . S
C1602 C1601 1.434 . S
C1603 C1604 1.369 . S
C1603 C1605 1.419 . S
C1603 H1607 0.930 . S
C1604 C1603 1.369 . S
C1604 C1613 1.429 . S
C1605 C1603 1.419 . S
C1605 C1606 1.363 . S
C1605 H1608 0.929 . S
C1606 C1605 1.363 . S
C1606 C1612 1.428 . S
H1607 C1603 0.930 . S
H1608 C1605 0.929 . S
S1609 N1610 1.613 . S
S1609 N1611 1.610 . S
N1610 S1609 1.613 . S
N1610 C1613 1.350 . S
N1611 S1609 1.610 . S
N1611 C1612 1.351 . S
C1612 C1606 1.428 . S
C1612 N1611 1.351 . S
C1612 C1613 1.434 . S
C1613 C1604 1.429 . S
C1613 N1610 1.350 . S
C1613 C1612 1.434 . S
C1614 C1615 1.369 . S
C1614 C1616 1.419 . S
C1614 H1618 0.930 . S
C1615 C1614 1.369 . S
C1615 C1624 1.429 . S
C1616 C1614 1.419 . S
C1616 C1617 1.363 . S
C1616 H1619 0.929 . S
C1617 C1616 1.363 . S
C1617 C1623 1.428 . S
H1618 C1614 0.930 . S
H1619 C1616 0.929 . S
S1620 N1621 1.613 . S
S1620 N1622 1.610 . S
N1621 S1620 1.613 . S
N1621 C1624 1.350 . S
N1622 S1620 1.610 . S
N1622 C1623 1.351 . S
C1623 C1617 1.428 . S
C1623 N1622 1.351 . S
C1623 C1624 1.434 . S
C1624 C1615 1.429 . S
C1624 N1621 1.350 . S
C1624 C1623 1.434 . S
C1625 C1626 1.369 . S
C1625 C1627 1.419 . S
C1625 H1629 0.930 . S
C1626 C1625 1.369 . S
C1626 C1635 1.429 . S
C1627 C1625 1.419 . S
C1627 C1628 1.363 . S
C1627 H1630 0.929 . S
C1628 C1627 1.363 . S
C1628 C1634 1.428 . S
H1629 C1625 0.930 . S
H1630 C1627 0.929 . S
S1631 N1632 1.613 . S
S1631 N1633 1.610 . S
N1632 S1631 1.613 . S
N1632 C1635 1.350 . S
N1633 S1631 1.610 . S
N1633 C1634 1.351 . S
C1634 C1628 1.428 . S
C1634 N1633 1.351 . S
C1634 C1635 1.434 . S
C1635 C1626 1.429 . S
C1635 N1632 1.350 . S
C1635 C1634 1.434 . S
C1636 C1637 1.369 . S
C1636 C1638 1.419 . S
C1636 H1640 0.930 . S
C1637 C1636 1.369 . S
C1637 C1646 1.429 . S
C1638 C1636 1.419 . S
C1638 C1639 1.363 . S
C1638 H1641 0.929 . S
C1639 C1638 1.363 . S
C1639 C1645 1.428 . S
H1640 C1636 0.930 . S
H1641 C1638 0.929 . S
S1642 N1643 1.613 . S
S1642 N1644 1.610 . S
N1643 S1642 1.613 . S
N1643 C1646 1.350 . S
N1644 S1642 1.610 . S
N1644 C1645 1.351 . S
C1645 C1639 1.428 . S
C1645 N1644 1.351 . S
C1645 C1646 1.434 . S
C1646 C1637 1.429 . S
C1646 N1643 1.350 . S
C1646 C1645 1.434 . S
C1647 C1648 1.369 . S
C1647 C1649 1.419 . S
C1647 H1651 0.930 . S
C1648 C1647 1.369 . S
C1648 C1657 1.429 . S
C1649 C1647 1.419 . S
C1649 C1650 1.363 . S
C1649 H1652 0.929 . S
C1650 C1649 1.363 . S
C1650 C1656 1.428 . S
H1651 C1647 0.930 . S
H1652 C1649 0.929 . S
S1653 N1654 1.613 . S
S1653 N1655 1.610 . S
N1654 S1653 1.613 . S
N1654 C1657 1.350 . S
N1655 S1653 1.610 . S
N1655 C1656 1.351 . S
C1656 C1650 1.428 . S
C1656 N1655 1.351 . S
C1656 C1657 1.434 . S
C1657 C1648 1.429 . S
C1657 N1654 1.350 . S
C1657 C1656 1.434 . S
C1658 C1659 1.369 . S
C1658 C1660 1.419 . S
C1658 H1662 0.930 . S
C1659 C1658 1.369 . S
C1659 C1668 1.429 . S
C1660 C1658 1.419 . S
C1660 C1661 1.363 . S
C1660 H1663 0.929 . S
C1661 C1660 1.363 . S
C1661 C1667 1.428 . S
H1662 C1658 0.930 . S
H1663 C1660 0.929 . S
S1664 N1665 1.613 . S
S1664 N1666 1.610 . S
N1665 S1664 1.613 . S
N1665 C1668 1.350 . S
N1666 S1664 1.610 . S
N1666 C1667 1.351 . S
C1667 C1661 1.428 . S
C1667 N1666 1.351 . S
C1667 C1668 1.434 . S
C1668 C1659 1.429 . S
C1668 N1665 1.350 . S
C1668 C1667 1.434 . S
C1669 C1670 1.369 . S
C1669 C1671 1.419 . S
C1669 H1673 0.930 . S
C1670 C1669 1.369 . S
C1670 C1679 1.429 . S
C1671 C1669 1.419 . S
C1671 C1672 1.363 . S
C1671 H1674 0.929 . S
C1672 C1671 1.363 . S
C1672 C1678 1.428 . S
H1673 C1669 0.930 . S
H1674 C1671 0.929 . S
S1675 N1676 1.613 . S
S1675 N1677 1.610 . S
N1676 S1675 1.613 . S
N1676 C1679 1.350 . S
N1677 S1675 1.610 . S
N1677 C1678 1.351 . S
C1678 C1672 1.428 . S
C1678 N1677 1.351 . S
C1678 C1679 1.434 . S
C1679 C1670 1.429 . S
C1679 N1676 1.350 . S
C1679 C1678 1.434 . S
C1680 C1681 1.369 . S
C1680 C1682 1.419 1_655 S
C1680 H1684 0.930 . S
C1681 C1680 1.369 . S
C1681 C1690 1.429 . S
C1682 C1680 1.419 1_455 S
C1682 C1683 1.363 . S
C1682 H1685 0.929 . S
C1683 C1682 1.363 . S
C1683 C1689 1.428 . S
H1684 C1680 0.930 . S
H1685 C1682 0.929 . S
S1686 N1687 1.613 . S
S1686 N1688 1.610 1_655 S
N1687 S1686 1.613 . S
N1687 C1690 1.350 . S
N1688 S1686 1.610 1_455 S
N1688 C1689 1.351 . S
C1689 C1683 1.428 . S
C1689 N1688 1.351 . S
C1689 C1690 1.434 1_455 S
C1690 C1681 1.429 . S
C1690 N1687 1.350 . S
C1690 C1689 1.434 1_655 S
C1691 C1692 1.369 . S
C1691 C1693 1.419 . S
C1691 H1695 0.930 . S
C1692 C1691 1.369 . S
C1692 C1701 1.429 . S
C1693 C1691 1.419 . S
C1693 C1694 1.363 . S
C1693 H1696 0.929 . S
C1694 C1693 1.363 . S
C1694 C1700 1.428 . S
H1695 C1691 0.930 . S
H1696 C1693 0.929 . S
S1697 N1698 1.613 . S
S1697 N1699 1.610 . S
N1698 S1697 1.613 . S
N1698 C1701 1.350 . S
N1699 S1697 1.610 . S
N1699 C1700 1.351 . S
C1700 C1694 1.428 . S
C1700 N1699 1.351 . S
C1700 C1701 1.434 . S
C1701 C1692 1.429 . S
C1701 N1698 1.350 . S
C1701 C1700 1.434 . S
C1702 C1703 1.369 . S
C1702 C1704 1.419 . S
C1702 H1706 0.930 . S
C1703 C1702 1.369 . S
C1703 C1712 1.429 1_545 S
C1704 C1702 1.419 . S
C1704 C1705 1.363 1_545 S
C1704 H1707 0.929 . S
C1705 C1704 1.363 1_565 S
C1705 C1711 1.428 . S
H1706 C1702 0.930 . S
H1707 C1704 0.929 . S
S1708 N1709 1.613 . S
S1708 N1710 1.610 . S
N1709 S1708 1.613 . S
N1709 C1712 1.350 . S
N1710 S1708 1.610 . S
N1710 C1711 1.351 . S
C1711 C1705 1.428 . S
C1711 N1710 1.351 . S
C1711 C1712 1.434 . S
C1712 C1703 1.429 1_565 S
C1712 N1709 1.350 . S
C1712 C1711 1.434 . S
C1713 C1714 1.369 1_565 S
C1713 C1715 1.419 . S
C1713 H1717 0.930 . S
C1714 C1713 1.369 1_545 S
C1714 C1723 1.429 . S
C1715 C1713 1.419 . S
C1715 C1716 1.363 . S
C1715 H1718 0.929 . S
C1716 C1715 1.363 . S
C1716 C1722 1.428 1_565 S
H1717 C1713 0.930 . S
H1718 C1715 0.929 . S
S1719 N1720 1.613 . S
S1719 N1721 1.610 . S
N1720 S1719 1.613 . S
N1720 C1723 1.350 . S
N1721 S1719 1.610 . S
N1721 C1722 1.351 . S
C1722 C1716 1.428 1_545 S
C1722 N1721 1.351 . S
C1722 C1723 1.434 . S
C1723 C1714 1.429 . S
C1723 N1720 1.350 . S
C1723 C1722 1.434 . S
C1724 C1725 1.369 1_655 S
C1724 C1726 1.419 . S
C1724 H1728 0.930 . S
C1725 C1724 1.369 1_455 S
C1725 C1734 1.429 . S
C1726 C1724 1.419 . S
C1726 C1727 1.363 . S
C1726 H1729 0.929 . S
C1727 C1726 1.363 . S
C1727 C1733 1.428 1_655 S
H1728 C1724 0.930 . S
H1729 C1726 0.929 . S
S1730 N1731 1.613 . S
S1730 N1732 1.610 . S
N1731 S1730 1.613 . S
N1731 C1734 1.350 . S
N1732 S1730 1.610 . S
N1732 C1733 1.351 . S
C1733 C1727 1.428 1_455 S
C1733 N1732 1.351 . S
C1733 C1734 1.434 . S
C1734 C1725 1.429 . S
C1734 N1731 1.350 . S
C1734 C1733 1.434 . S
C1735 C1736 1.369 . S
C1735 C1737 1.419 . S
C1735 H1739 0.930 . S
C1736 C1735 1.369 . S
C1736 C1745 1.429 . S
C1737 C1735 1.419 . S
C1737 C1738 1.363 . S
C1737 H1740 0.929 . S
C1738 C1737 1.363 . S
C1738 C1744 1.428 . S
H1739 C1735 0.930 . S
H1740 C1737 0.929 . S
S1741 N1742 1.613 . S
S1741 N1743 1.610 . S
N1742 S1741 1.613 . S
N1742 C1745 1.350 . S
N1743 S1741 1.610 . S
N1743 C1744 1.351 . S
C1744 C1738 1.428 . S
C1744 N1743 1.351 . S
C1744 C1745 1.434 . S
C1745 C1736 1.429 . S
C1745 N1742 1.350 . S
C1745 C1744 1.434 . S
C1746 C1747 1.369 . S
C1746 C1748 1.419 1_655 S
C1746 H1750 0.930 . S
C1747 C1746 1.369 . S
C1747 C1756 1.429 . S
C1748 C1746 1.419 1_455 S
C1748 C1749 1.363 . S
C1748 H1751 0.929 . S
C1749 C1748 1.363 . S
C1749 C1755 1.428 . S
H1750 C1746 0.930 . S
H1751 C1748 0.929 . S
S1752 N1753 1.613 . S
S1752 N1754 1.610 . S
N1753 S1752 1.613 . S
N1753 C1756 1.350 1_455 S
N1754 S1752 1.610 . S
N1754 C1755 1.351 . S
C1755 C1749 1.428 . S
C1755 N1754 1.351 . S
C1755 C1756 1.434 1_455 S
C1756 C1747 1.429 . S
C1756 N1753 1.350 1_655 S
C1756 C1755 1.434 1_655 S
C1757 C1758 1.369 . S
C1757 C1759 1.419 . S
C1757 H1761 0.930 . S
C1758 C1757 1.369 . S
C1758 C1767 1.429 . S
C1759 C1757 1.419 . S
C1759 C1760 1.363 . S
C1759 H1762 0.929 . S
C1760 C1759 1.363 . S
C1760 C1766 1.428 . S
H1761 C1757 0.930 . S
H1762 C1759 0.929 . S
S1763 N1764 1.613 . S
S1763 N1765 1.610 . S
N1764 S1763 1.613 . S
N1764 C1767 1.350 . S
N1765 S1763 1.610 . S
N1765 C1766 1.351 . S
C1766 C1760 1.428 . S
C1766 N1765 1.351 . S
C1766 C1767 1.434 . S
C1767 C1758 1.429 . S
C1767 N1764 1.350 . S
C1767 C1766 1.434 . S
C1768 C1769 1.369 1_565 S
C1768 C1770 1.419 . S
C1768 H1772 0.930 . S
C1769 C1768 1.369 1_545 S
C1769 C1778 1.429 . S
C1770 C1768 1.419 . S
C1770 C1771 1.363 . S
C1770 H1773 0.929 . S
C1771 C1770 1.363 . S
C1771 C1777 1.428 1_565 S
H1772 C1768 0.930 . S
H1773 C1770 0.929 . S
S1774 N1775 1.613 . S
S1774 N1776 1.610 . S
N1775 S1774 1.613 . S
N1775 C1778 1.350 . S
N1776 S1774 1.610 . S
N1776 C1777 1.351 . S
C1777 C1771 1.428 1_545 S
C1777 N1776 1.351 . S
C1777 C1778 1.434 . S
C1778 C1769 1.429 . S
C1778 N1775 1.350 . S
C1778 C1777 1.434 . S
C1779 C1780 1.369 1_455 S
C1779 C1781 1.419 . S
C1779 H1783 0.930 . S
C1780 C1779 1.369 1_655 S
C1780 C1789 1.429 . S
C1781 C1779 1.419 . S
C1781 C1782 1.363 . S
C1781 H1784 0.929 . S
C1782 C1781 1.363 . S
C1782 C1788 1.428 1_455 S
H1783 C1779 0.930 . S
H1784 C1781 0.929 . S
S1785 N1786 1.613 . S
S1785 N1787 1.610 . S
N1786 S1785 1.613 . S
N1786 C1789 1.350 . S
N1787 S1785 1.610 . S
N1787 C1788 1.351 . S
C1788 C1782 1.428 1_655 S
C1788 N1787 1.351 . S
C1788 C1789 1.434 . S
C1789 C1780 1.429 . S
C1789 N1786 1.350 . S
C1789 C1788 1.434 . S
C1790 C1791 1.369 . S
C1790 C1792 1.419 . S
C1790 H1794 0.930 . S
C1791 C1790 1.369 . S
C1791 C1800 1.429 . S
C1792 C1790 1.419 . S
C1792 C1793 1.363 . S
C1792 H1795 0.929 . S
C1793 C1792 1.363 . S
C1793 C1799 1.428 . S
H1794 C1790 0.930 . S
H1795 C1792 0.929 . S
S1796 N1797 1.613 . S
S1796 N1798 1.610 . S
N1797 S1796 1.613 . S
N1797 C1800 1.350 . S
N1798 S1796 1.610 . S
N1798 C1799 1.351 . S
C1799 C1793 1.428 . S
C1799 N1798 1.351 . S
C1799 C1800 1.434 . S
C1800 C1791 1.429 . S
C1800 N1797 1.350 . S
C1800 C1799 1.434 . S
C1801 C1802 1.369 . S
C1801 C1803 1.419 1_545 S
C1801 H1805 0.930 . S
C1802 C1801 1.369 . S
C1802 C1811 1.429 . S
C1803 C1801 1.419 1_565 S
C1803 C1804 1.363 . S
C1803 H1806 0.929 . S
C1804 C1803 1.363 . S
C1804 C1810 1.428 . S
H1805 C1801 0.930 . S
H1806 C1803 0.929 . S
S1807 N1808 1.594 1_565 S
S1807 N1809 1.610 . S
N1808 S1807 1.594 1_545 S
N1808 C1811 1.359 . S
N1809 S1807 1.610 . S
N1809 C1810 1.351 . S
C1810 C1804 1.428 . S
C1810 N1809 1.351 . S
C1810 C1811 1.434 1_565 S
C1811 C1802 1.429 . S
C1811 N1808 1.359 . S
C1811 C1810 1.434 1_545 S
C1812 C1813 1.369 . S
C1812 C1814 1.419 . S
C1812 H1816 0.930 . S
C1813 C1812 1.369 . S
C1813 C1822 1.429 . S
C1814 C1812 1.419 . S
C1814 C1815 1.363 . S
C1814 H1817 0.929 . S
C1815 C1814 1.363 . S
C1815 C1821 1.428 . S
H1816 C1812 0.930 . S
H1817 C1814 0.929 . S
S1818 N1819 1.613 . S
S1818 N1820 1.610 . S
N1819 S1818 1.613 . S
N1819 C1822 1.350 . S
N1820 S1818 1.610 . S
N1820 C1821 1.351 . S
C1821 C1815 1.428 . S
C1821 N1820 1.351 . S
C1821 C1822 1.434 . S
C1822 C1813 1.429 . S
C1822 N1819 1.350 . S
C1822 C1821 1.434 . S
C1823 C1824 1.369 . S
C1823 C1825 1.419 . S
C1823 H1827 0.930 . S
C1824 C1823 1.369 . S
C1824 C1833 1.429 . S
C1825 C1823 1.419 . S
C1825 C1826 1.363 . S
C1825 H1828 0.929 . S
C1826 C1825 1.363 . S
C1826 C1832 1.428 . S
H1827 C1823 0.930 . S
H1828 C1825 0.929 . S
S1829 N1830 1.613 . S
S1829 N1831 1.610 . S
N1830 S1829 1.613 . S
N1830 C1833 1.350 . S
N1831 S1829 1.610 . S
N1831 C1832 1.351 . S
C1832 C1826 1.428 . S
C1832 N1831 1.351 . S
C1832 C1833 1.434 . S
C1833 C1824 1.429 . S
C1833 N1830 1.350 . S
C1833 C1832 1.434 . S
C1834 C1835 1.369 . S
C1834 C1836 1.419 . S
C1834 H1838 0.930 . S
C1835 C1834 1.369 . S
C1835 C1844 1.429 . S
C1836 C1834 1.419 . S
C1836 C1837 1.363 . S
C1836 H1839 0.929 . S
C1837 C1836 1.363 . S
C1837 C1843 1.428 . S
H1838 C1834 0.930 . S
H1839 C1836 0.929 . S
S1840 N1841 1.613 . S
S1840 N1842 1.610 . S
N1841 S1840 1.613 . S
N1841 C1844 1.350 . S
N1842 S1840 1.610 . S
N1842 C1843 1.351 . S
C1843 C1837 1.428 . S
C1843 N1842 1.351 . S
C1843 C1844 1.434 . S
C1844 C1835 1.429 . S
C1844 N1841 1.350 . S
C1844 C1843 1.434 . S
C1845 C1846 1.369 . S
C1845 C1847 1.419 . S
C1845 H1849 0.930 . S
C1846 C1845 1.369 . S
C1846 C1855 1.429 . S
C1847 C1845 1.419 . S
C1847 C1848 1.363 . S
C1847 H1850 0.929 . S
C1848 C1847 1.363 . S
C1848 C1854 1.428 . S
H1849 C1845 0.930 . S
H1850 C1847 0.929 . S
S1851 N1852 1.613 . S
S1851 N1853 1.610 . S
N1852 S1851 1.613 . S
N1852 C1855 1.350 . S
N1853 S1851 1.610 . S
N1853 C1854 1.351 . S
C1854 C1848 1.428 . S
C1854 N1853 1.351 . S
C1854 C1855 1.434 . S
C1855 C1846 1.429 . S
C1855 N1852 1.350 . S
C1855 C1854 1.434 . S
C1856 C1857 1.369 . S
C1856 C1858 1.419 . S
C1856 H1860 0.930 . S
C1857 C1856 1.369 . S
C1857 C1866 1.429 . S
C1858 C1856 1.419 . S
C1858 C1859 1.363 . S
C1858 H1861 0.929 . S
C1859 C1858 1.363 . S
C1859 C1865 1.428 . S
H1860 C1856 0.930 . S
H1861 C1858 0.929 . S
S1862 N1863 1.613 . S
S1862 N1864 1.610 . S
N1863 S1862 1.613 . S
N1863 C1866 1.350 . S
N1864 S1862 1.610 . S
N1864 C1865 1.351 . S
C1865 C1859 1.428 . S
C1865 N1864 1.351 . S
C1865 C1866 1.434 . S
C1866 C1857 1.429 . S
C1866 N1863 1.350 . S
C1866 C1865 1.434 . S
C1867 C1868 1.369 . S
C1867 C1869 1.419 . S
C1867 H1871 0.930 . S
C1868 C1867 1.369 . S
C1868 C1877 1.429 . S
C1869 C1867 1.419 . S
C1869 C1870 1.363 . S
C1869 H1872 0.929 . S
C1870 C1869 1.363 . S
C1870 C1876 1.428 . S
H1871 C1867 0.930 . S
H1872 C1869 0.929 . S
S1873 N1874 1.613 . S
S1873 N1875 1.610 . S
N1874 S1873 1.613 . S
N1874 C1877 1.350 . S
N1875 S1873 1.610 . S
N1875 C1876 1.351 . S
C1876 C1870 1.428 . S
C1876 N1875 1.351 . S
C1876 C1877 1.434 . S
C1877 C1868 1.429 . S
C1877 N1874 1.350 . S
C1877 C1876 1.434 . S
C1878 C1879 1.369 . S
C1878 C1880 1.419 . S
C1878 H1882 0.930 . S
C1879 C1878 1.369 . S
C1879 C1888 1.429 . S
C1880 C1878 1.419 . S
C1880 C1881 1.363 . S
C1880 H1883 0.929 . S
C1881 C1880 1.363 . S
C1881 C1887 1.428 . S
H1882 C1878 0.930 . S
H1883 C1880 0.929 . S
S1884 N1885 1.613 . S
S1884 N1886 1.610 . S
N1885 S1884 1.613 . S
N1885 C1888 1.350 . S
N1886 S1884 1.610 . S
N1886 C1887 1.351 . S
C1887 C1881 1.428 . S
C1887 N1886 1.351 . S
C1887 C1888 1.434 . S
C1888 C1879 1.429 . S
C1888 N1885 1.350 . S
C1888 C1887 1.434 . S
C1889 C1890 1.369 . S
C1889 C1891 1.419 . S
C1889 H1893 0.930 . S
C1890 C1889 1.369 . S
C1890 C1899 1.429 . S
C1891 C1889 1.419 . S
C1891 C1892 1.363 . S
C1891 H1894 0.929 . S
C1892 C1891 1.363 . S
C1892 C1898 1.428 . S
H1893 C1889 0.930 . S
H1894 C1891 0.929 . S
S1895 N1896 1.613 . S
S1895 N1897 1.610 . S
N1896 S1895 1.613 . S
N1896 C1899 1.350 . S
N1897 S1895 1.610 . S
N1897 C1898 1.351 . S
C1898 C1892 1.428 . S
C1898 N1897 1.351 . S
C1898 C1899 1.434 . S
C1899 C1890 1.429 . S
C1899 N1896 1.350 . S
C1899 C1898 1.434 . S
C1900 C1901 1.369 . S
C1900 C1902 1.419 . S
C1900 H1904 0.930 . S
C1901 C1900 1.369 . S
C1901 C1910 1.429 . S
C1902 C1900 1.419 . S
C1902 C1903 1.363 . S
C1902 H1905 0.929 . S
C1903 C1902 1.363 . S
C1903 C1909 1.428 . S
H1904 C1900 0.930 . S
H1905 C1902 0.929 . S
S1906 N1907 1.613 . S
S1906 N1908 1.610 . S
N1907 S1906 1.613 . S
N1907 C1910 1.350 . S
N1908 S1906 1.610 . S
N1908 C1909 1.351 . S
C1909 C1903 1.428 . S
C1909 N1908 1.351 . S
C1909 C1910 1.434 . S
C1910 C1901 1.429 . S
C1910 N1907 1.350 . S
C1910 C1909 1.434 . S
C1911 C1912 1.369 . S
C1911 C1913 1.419 . S
C1911 H1915 0.930 . S
C1912 C1911 1.369 . S
C1912 C1921 1.429 . S
C1913 C1911 1.419 . S
C1913 C1914 1.363 . S
C1913 H1916 0.929 . S
C1914 C1913 1.363 . S
C1914 C1920 1.428 . S
H1915 C1911 0.930 . S
H1916 C1913 0.929 . S
S1917 N1918 1.613 . S
S1917 N1919 1.610 . S
N1918 S1917 1.613 . S
N1918 C1921 1.350 . S
N1919 S1917 1.610 . S
N1919 C1920 1.351 . S
C1920 C1914 1.428 . S
C1920 N1919 1.351 . S
C1920 C1921 1.434 . S
C1921 C1912 1.429 . S
C1921 N1918 1.350 . S
C1921 C1920 1.434 . S
C1922 C1923 1.369 . S
C1922 C1924 1.419 . S
C1922 H1926 0.930 . S
C1923 C1922 1.369 . S
C1923 C1932 1.429 . S
C1924 C1922 1.419 . S
C1924 C1925 1.363 . S
C1924 H1927 0.929 . S
C1925 C1924 1.363 . S
C1925 C1931 1.428 . S
H1926 C1922 0.930 . S
H1927 C1924 0.929 . S
S1928 N1929 1.613 . S
S1928 N1930 1.610 . S
N1929 S1928 1.613 . S
N1929 C1932 1.350 . S
N1930 S1928 1.610 . S
N1930 C1931 1.351 . S
C1931 C1925 1.428 . S
C1931 N1930 1.351 . S
C1931 C1932 1.434 . S
C1932 C1923 1.429 . S
C1932 N1929 1.350 . S
C1932 C1931 1.434 . S
C1933 C1934 1.369 . S
C1933 C1935 1.419 . S
C1933 H1937 0.930 . S
C1934 C1933 1.369 . S
C1934 C1943 1.429 . S
C1935 C1933 1.419 . S
C1935 C1936 1.363 . S
C1935 H1938 0.929 . S
C1936 C1935 1.363 . S
C1936 C1942 1.428 . S
H1937 C1933 0.930 . S
H1938 C1935 0.929 . S
S1939 N1940 1.613 . S
S1939 N1941 1.610 . S
N1940 S1939 1.613 . S
N1940 C1943 1.350 . S
N1941 S1939 1.610 . S
N1941 C1942 1.351 . S
C1942 C1936 1.428 . S
C1942 N1941 1.351 . S
C1942 C1943 1.434 . S
C1943 C1934 1.429 . S
C1943 N1940 1.350 . S
C1943 C1942 1.434 . S
C757 C14 1.420 . S
C759 C58 1.407 . S
C768 C16 1.399 . S
C770 C35 1.417 1_545 S
C779 C56 1.419 1_655 S
C781 C37 1.401 . S
C790 C77 1.420 . S
C792 C100 1.405 . S
C801 C121 1.406 . S
C803 C98 1.420 1_565 S
C812 C119 1.420 1_455 S
C814 C79 1.408 . S
C823 C140 1.423 . S
C825 C184 1.407 . S
C834 C161 1.421 1_565 S
C836 C142 1.407 . S
C845 C182 1.419 1_455 S
C847 C163 1.402 . S
C856 C203 1.420 . S
C858 C226 1.407 . S
C867 C247 1.411 . S
C869 C224 1.423 1_545 S
C878 C205 1.404 . S
C880 C245 1.420 1_655 S
C889 C310 1.408 . S
C891 C266 1.425 . S
C900 C287 1.421 . S
C902 C268 1.409 . S
C911 C289 1.404 . S
C913 C308 1.419 . S
C922 C329 1.426 . S
C924 C352 1.408 . S
C933 C373 1.409 . S
C935 C350 1.426 . S
C944 C331 1.414 . S
C946 C371 1.427 . S
C955 C392 1.421 . S
C957 C436 1.408 . S
C966 C413 1.417 . S
C968 C394 1.403 . S
C977 C415 1.401 . S
C979 C434 1.417 . S
C988 C478 1.402 . S
C990 C455 1.418 . S
C999 C476 1.419 . S
C1001 C499 1.408 . S
C1010 C457 1.411 . S
C1012 C497 1.423 . S
C1021 C518 1.424 . S
C1023 C562 1.408 . S
C1032 C539 1.417 . S
C1034 C520 1.405 . S
C1043 C560 1.418 . S
C1045 C541 1.401 . S
C1054 C581 1.418 . S
C1056 C604 1.408 . S
C1065 C602 1.424 . S
C1067 C625 1.408 . S
C1076 C623 1.422 . S
C1078 C583 1.410 . S
C1087 C644 1.418 . S
C1089 C688 1.404 . S
C1098 C665 1.423 . S
C1100 C646 1.410 . S
C1109 C667 1.410 . S
C1111 C686 1.422 . S
C1120 C707 1.424 . S
C1122 C730 1.412 . S
C1131 C728 1.420 . S
C1133 C751 1.408 . S
C1142 C709 1.409 . S
C1144 C749 1.422 . S
C1153 C13 0.964 . S
C1155 C435 1.180 . S
C1164 C393 1.182 1_565 S
C1166 C34 0.986 . S
C1175 C55 0.988 . S
C1177 C414 1.185 1_455 S
C1186 C76 0.980 . S
C1188 C729 1.186 . S
C1197 C750 1.179 1_545 S
C1199 C97 0.966 . S
C1208 C118 0.975 . S
C1210 C708 1.182 1_655 S
C1219 C561 1.188 . S
C1221 C139 0.983 . S
C1230 C160 0.982 . S
C1232 C519 1.179 1_545 S
C1241 C181 0.988 . S
C1243 C540 1.185 1_655 S
C1252 C351 1.179 . S
C1254 C202 0.965 . S
C1263 C372 1.176 1_565 S
C1265 C223 0.964 . S
C1274 C330 1.173 1_455 S
C1276 C244 0.960 . S
C1285 C265 0.986 . S
C1287 C687 1.188 . S
C1296 C286 0.964 . S
C1298 C645 1.180 . S
C1307 C666 1.188 . S
C1309 C307 0.982 . S
C1318 C225 1.178 . S
C1320 C328 0.961 1_455 S
C1329 C246 1.190 . S
C1331 C349 0.981 . S
C1340 C204 1.190 . S
C1342 C370 0.980 1_565 S
C1351 C57 1.187 . S
C1353 C391 0.980 1_565 S
C1362 C412 0.967 1_455 S
C1364 C15 1.181 . S
C1373 C433 0.971 . S
C1375 C36 1.182 . S
C1384 C603 1.186 . S
C1386 C454 0.957 . S
C1395 C624 1.190 . S
C1397 C475 0.966 . S
C1406 C496 0.955 . S
C1408 C582 1.187 . S
C1417 C183 1.188 . S
C1419 C517 0.982 1_545 S
C1428 C141 1.189 . S
C1430 C538 0.984 1_655 S
C1439 C162 1.188 . S
C1441 C559 0.983 . S
C1450 C580 0.957 . S
C1452 C477 1.187 . S
C1461 C498 1.189 . S
C1463 C601 0.962 . S
C1472 C622 0.981 . S
C1474 C456 1.196 . S
C1483 C643 0.971 . S
C1485 C309 1.182 . S
C1494 C664 0.978 . S
C1496 C267 1.185 . S
C1505 C685 0.975 . S
C1507 C288 1.185 . S
C1516 C706 0.963 1_655 S
C1518 C99 1.180 . S
C1527 C120 1.182 . S
C1529 C727 0.970 . S
C1538 C78 1.179 . S
C1540 C748 0.964 1_545 S
C1549 C626 1.696 . S
C1551 C17 1.690 . S
C1560 C584 1.692 . S
C1562 C38 1.687 . S
C1571 C59 1.697 . S
C1573 C605 1.692 . S
C1582 C290 1.714 . S
C1584 C80 1.713 . S
C1593 C101 1.711 . S
C1595 C311 1.711 . S
C1604 C122 1.714 . S
C1606 C269 1.714 . S
C1615 C143 1.696 . S
C1617 C500 1.691 . S
C1626 C164 1.699 . S
C1628 C458 1.693 . S
C1637 C185 1.694 . S
C1639 C479 1.690 . S
C1648 C668 1.710 . S
C1650 C206 1.711 . S
C1659 C689 1.710 . S
C1661 C227 1.712 . S
C1670 C647 1.712 . S
C1672 C248 1.712 . S
C1681 C332 1.716 . S
C1683 C542 1.717 . S
C1692 C353 1.720 . S
C1694 C563 1.720 . S
C1703 C374 1.721 . S
C1705 C521 1.720 . S
C1714 C395 1.716 . S
C1716 C752 1.717 . S
C1725 C710 1.719 . S
C1727 C416 1.720 . S
C1736 C437 1.722 . S
C1738 C731 1.720 . S
C1747 C102 1.763 . S
C1749 C18 1.764 . S
C1758 C123 1.763 . S
C1760 C39 1.764 . S
C1769 C81 1.765 . S
C1771 C60 1.763 . S
C1780 C144 1.765 . S
C1782 C228 1.763 . S
C1791 C249 1.765 . S
C1793 C165 1.763 . S
C1802 C186 1.764 . S
C1804 C207 1.764 . S
C1813 C354 1.770 . S
C1815 C270 1.769 . S
C1824 C375 1.770 . S
C1826 C291 1.769 . S
C1835 C333 1.769 . S
C1837 C312 1.770 . S
C1846 C480 1.781 . S
C1848 C396 1.785 . S
C1857 C417 1.780 . S
C1859 C501 1.786 . S
C1868 C438 1.780 . S
C1870 C459 1.786 . S
C1879 C522 1.781 . S
C1881 C606 1.786 . S
C1890 C627 1.781 . S
C1892 C543 1.785 . S
C1901 C564 1.780 . S
C1903 C585 1.786 . S
C1912 C648 1.770 . S
C1914 C732 1.769 . S
C1923 C753 1.770 . S
C1925 C669 1.769 . S
C1934 C690 1.768 . S
C1936 C711 1.770 . S
