# Generated by pormake.
# Topology gsi, (4)-cn, num edge types: 1
# Building blocks:
#     Node 0, Type 0, BuildingBlock: GALJAG_clean_sbu_0, # of connection points: 4
#     Node 1, Type 0, BuildingBlock: GALJAG_clean_sbu_0, # of connection points: 4
#     Node 2, Type 0, BuildingBlock: GALJAG_clean_sbu_0, # of connection points: 4
#     Node 3, Type 0, BuildingBlock: GALJAG_clean_sbu_0, # of connection points: 4
#     Node 4, Type 0, BuildingBlock: GALJAG_clean_sbu_0, # of connection points: 4
#     Node 5, Type 0, BuildingBlock: GALJAG_clean_sbu_0, # of connection points: 4
#     Node 6, Type 0, BuildingBlock: GALJAG_clean_sbu_0, # of connection points: 4
#     Node 7, Type 0, BuildingBlock: GALJAG_clean_sbu_0, # of connection points: 4
#     Node 8, Type 0, BuildingBlock: GALJAG_clean_sbu_0, # of connection points: 4
#     Node 9, Type 0, BuildingBlock: GALJAG_clean_sbu_0, # of connection points: 4
#     Node 10, Type 0, BuildingBlock: GALJAG_clean_sbu_0, # of connection points: 4
#     Node 11, Type 0, BuildingBlock: GALJAG_clean_sbu_0, # of connection points: 4
#     Node 12, Type 0, BuildingBlock: GALJAG_clean_sbu_0, # of connection points: 4
#     Node 13, Type 0, BuildingBlock: GALJAG_clean_sbu_0, # of connection points: 4
#     Node 14, Type 0, BuildingBlock: GALJAG_clean_sbu_0, # of connection points: 4
#     Node 15, Type 0, BuildingBlock: GALJAG_clean_sbu_0, # of connection points: 4
#     Edge 16, Type (0, 0), BuildingBlock: EZIPEK_clean_linker_0, # of connection points: 2
#     Edge 17, Type (0, 0), BuildingBlock: EZIPEK_clean_linker_0, # of connection points: 2
#     Edge 18, Type (0, 0), BuildingBlock: EZIPEK_clean_linker_0, # of connection points: 2
#     Edge 19, Type (0, 0), BuildingBlock: EZIPEK_clean_linker_0, # of connection points: 2
#     Edge 20, Type (0, 0), BuildingBlock: EZIPEK_clean_linker_0, # of connection points: 2
#     Edge 21, Type (0, 0), BuildingBlock: EZIPEK_clean_linker_0, # of connection points: 2
#     Edge 22, Type (0, 0), BuildingBlock: EZIPEK_clean_linker_0, # of connection points: 2
#     Edge 23, Type (0, 0), BuildingBlock: EZIPEK_clean_linker_0, # of connection points: 2
#     Edge 24, Type (0, 0), BuildingBlock: EZIPEK_clean_linker_0, # of connection points: 2
#     Edge 25, Type (0, 0), BuildingBlock: EZIPEK_clean_linker_0, # of connection points: 2
#     Edge 26, Type (0, 0), BuildingBlock: EZIPEK_clean_linker_0, # of connection points: 2
#     Edge 27, Type (0, 0), BuildingBlock: EZIPEK_clean_linker_0, # of connection points: 2
#     Edge 28, Type (0, 0), BuildingBlock: EZIPEK_clean_linker_0, # of connection points: 2
#     Edge 29, Type (0, 0), BuildingBlock: EZIPEK_clean_linker_0, # of connection points: 2
#     Edge 30, Type (0, 0), BuildingBlock: EZIPEK_clean_linker_0, # of connection points: 2
#     Edge 31, Type (0, 0), BuildingBlock: EZIPEK_clean_linker_0, # of connection points: 2
#     Edge 32, Type (0, 0), BuildingBlock: EZIPEK_clean_linker_0, # of connection points: 2
#     Edge 33, Type (0, 0), BuildingBlock: EZIPEK_clean_linker_0, # of connection points: 2
#     Edge 34, Type (0, 0), BuildingBlock: EZIPEK_clean_linker_0, # of connection points: 2
#     Edge 35, Type (0, 0), BuildingBlock: EZIPEK_clean_linker_0, # of connection points: 2
#     Edge 36, Type (0, 0), BuildingBlock: EZIPEK_clean_linker_0, # of connection points: 2
#     Edge 37, Type (0, 0), BuildingBlock: EZIPEK_clean_linker_0, # of connection points: 2
#     Edge 38, Type (0, 0), BuildingBlock: EZIPEK_clean_linker_0, # of connection points: 2
#     Edge 39, Type (0, 0), BuildingBlock: EZIPEK_clean_linker_0, # of connection points: 2
#     Edge 40, Type (0, 0), BuildingBlock: EZIPEK_clean_linker_0, # of connection points: 2
#     Edge 41, Type (0, 0), BuildingBlock: EZIPEK_clean_linker_0, # of connection points: 2
#     Edge 42, Type (0, 0), BuildingBlock: EZIPEK_clean_linker_0, # of connection points: 2
#     Edge 43, Type (0, 0), BuildingBlock: EZIPEK_clean_linker_0, # of connection points: 2
#     Edge 44, Type (0, 0), BuildingBlock: EZIPEK_clean_linker_0, # of connection points: 2
#     Edge 45, Type (0, 0), BuildingBlock: EZIPEK_clean_linker_0, # of connection points: 2
#     Edge 46, Type (0, 0), BuildingBlock: EZIPEK_clean_linker_0, # of connection points: 2
#     Edge 47, Type (0, 0), BuildingBlock: EZIPEK_clean_linker_0, # of connection points: 2
# Relax obj value: 0.227
# Max RMSD: 0.210
# Mean RMSD: 0.172
data_MOF--net-gsi--node1-GALJAG_clean_sbu_0--edge1-EZIPEK_clean_linker_0
_symmetry_space_group_name_H-M    P1
_symmetry_Int_Tables_number       1
_symmetry_cell_setting            triclinic
loop_
_symmetry_equiv_pos_as_xyz
'x, y, z'
_cell_length_a     29.828263
_cell_length_b     29.029137
_cell_length_c     32.899495
_cell_angle_alpha  90.126802
_cell_angle_beta   89.95877
_cell_angle_gamma 104.58601
loop_
_atom_site_label
_atom_site_type_symbol
_atom_site_fract_x
_atom_site_fract_y
_atom_site_fract_z
_atom_type_partial_charge
In0 In 0.137 0.15012 0.14009 0.0
O1 O 0.1943 0.16701 0.09352 0.0
O2 O 0.13156 0.11726 0.07602 0.0
C3 C 0.20152 0.1954 0.19297 0.0
C4 C 0.07585 0.20347 0.12616 0.0
C5 C 0.12093 0.06888 0.18441 0.0
O6 O 0.21178 0.17818 0.16009 0.0
O7 O 0.15897 0.19175 0.1984 0.0
O8 O 0.10774 0.10482 0.19554 0.0
O9 O 0.13723 0.07165 0.14891 0.0
C10 C 0.17255 0.13927 0.06653 0.0
O11 O 0.06284 0.15892 0.13126 0.0
O12 O 0.11907 0.2204 0.12659 0.0
In13 In 0.87421 0.36168 0.13798 0.0
O14 O 0.95174 0.36462 0.13117 0.0
O15 O 0.9024 0.29878 0.11999 0.0
C16 C 0.87766 0.43673 0.18827 0.0
C17 C 0.84352 0.37671 0.06356 0.0
C18 C 0.81591 0.30274 0.18798 0.0
O19 O 0.90493 0.41009 0.19193 0.0
O20 O 0.85195 0.42827 0.15742 0.0
O21 O 0.80173 0.3238 0.15911 0.0
O22 O 0.85917 0.30957 0.19045 0.0
C23 C 0.94447 0.32071 0.12285 0.0
O24 O 0.82558 0.34049 0.08461 0.0
O25 O 0.87865 0.40507 0.07914 0.0
In26 In 0.17494 0.86489 0.3486 0.0
O27 O 0.13252 0.79274 0.36987 0.0
O28 O 0.09725 0.84737 0.36197 0.0
C29 C 0.21812 0.81533 0.30037 0.0
C30 C 0.15424 0.9329 0.30161 0.0
C31 C 0.2298 0.88847 0.41507 0.0
O32 O 0.17482 0.80514 0.30439 0.0
O33 O 0.24017 0.85128 0.31993 0.0
O34 O 0.23808 0.91168 0.3824 0.0
O35 O 0.19308 0.8557 0.41485 0.0
C36 C 0.09456 0.80433 0.37055 0.0
O37 O 0.15072 0.93368 0.3399 0.0
O38 O 0.16908 0.89921 0.28756 0.0
In39 In 0.82515 0.6356 0.36028 0.0
O40 O 0.88763 0.69782 0.35491 0.0
O41 O 0.89339 0.64131 0.39432 0.0
C42 C 0.78405 0.69099 0.31674 0.0
C43 C 0.84365 0.56812 0.31052 0.0
C44 C 0.7668 0.61941 0.42494 0.0
O45 O 0.81755 0.70778 0.34027 0.0
O46 O 0.77046 0.64615 0.31562 0.0
O47 O 0.7584 0.5949 0.39287 0.0
O48 O 0.80495 0.6502 0.42497 0.0
C49 C 0.91249 0.68126 0.37886 0.0
O50 O 0.83971 0.56229 0.34855 0.0
O51 O 0.83756 0.60696 0.29796 0.0
In52 In 0.36179 0.85434 0.63216 0.0
O53 O 0.43612 0.84456 0.62907 0.0
O54 O 0.38027 0.78455 0.61673 0.0
C55 C 0.3693 0.93306 0.67837 0.0
C56 C 0.33502 0.87573 0.55777 0.0
C57 C 0.30338 0.80085 0.68513 0.0
O58 O 0.40319 0.91489 0.67296 0.0
O59 O 0.33359 0.91394 0.65819 0.0
O60 O 0.29127 0.80716 0.64928 0.0
O61 O 0.34499 0.82012 0.69387 0.0
C62 C 0.42334 0.80059 0.621 0.0
O63 O 0.31126 0.84311 0.57971 0.0
O64 O 0.37378 0.89734 0.5725 0.0
In65 In 0.8669 0.85318 0.8687 0.0
O66 O 0.89658 0.90204 0.81513 0.0
O67 O 0.84895 0.9233 0.85422 0.0
C68 C 0.93655 0.81065 0.88233 0.0
C69 C 0.83605 0.86651 0.94349 0.0
C70 C 0.806 0.79948 0.81707 0.0
O71 O 0.94409 0.85506 0.87669 0.0
O72 O 0.89439 0.78858 0.88286 0.0
O73 O 0.79337 0.81598 0.84938 0.0
O74 O 0.84911 0.80792 0.81185 0.0
C75 C 0.87216 0.93095 0.82187 0.0
O76 O 0.81814 0.83063 0.92186 0.0
O77 O 0.87116 0.89519 0.92828 0.0
In78 In 0.13437 0.64578 0.86801 0.0
O79 O 0.18989 0.66192 0.91635 0.0
O80 O 0.129 0.60793 0.93011 0.0
C81 C 0.18451 0.69859 0.80972 0.0
C82 C 0.12843 0.56501 0.82512 0.0
C83 C 0.07106 0.69678 0.88144 0.0
O84 O 0.20051 0.69573 0.84484 0.0
O85 O 0.14286 0.67633 0.80432 0.0
O86 O 0.05927 0.65273 0.87351 0.0
O87 O 0.11408 0.71425 0.88431 0.0
C88 C 0.16875 0.63137 0.94141 0.0
O89 O 0.0928 0.57928 0.83374 0.0
O90 O 0.16548 0.58911 0.84073 0.0
In91 In 0.82868 0.13643 0.65206 0.0
O92 O 0.88809 0.20233 0.64839 0.0
O93 O 0.8931 0.14314 0.61216 0.0
C94 C 0.78936 0.18587 0.70343 0.0
C95 C 0.77327 0.12631 0.58563 0.0
C96 C 0.84365 0.0672 0.70176 0.0
O97 O 0.82642 0.20418 0.68464 0.0
O98 O 0.77166 0.14216 0.69654 0.0
O99 O 0.81319 0.05869 0.67421 0.0
O100 O 0.86667 0.10984 0.70359 0.0
C101 C 0.91177 0.185 0.62384 0.0
O102 O 0.80328 0.10283 0.58979 0.0
O103 O 0.7705 0.15306 0.61506 0.0
In104 In 0.17534 0.36379 0.65297 0.0
O105 O 0.24768 0.38685 0.62535 0.0
O106 O 0.19084 0.38437 0.58606 0.0
C107 C 0.15584 0.42782 0.70564 0.0
C108 C 0.09362 0.30834 0.62772 0.0
C109 C 0.21325 0.30704 0.69833 0.0
O110 O 0.17327 0.44005 0.67099 0.0
O111 O 0.14782 0.38396 0.71302 0.0
O112 O 0.18187 0.29118 0.67273 0.0
O113 O 0.22617 0.35176 0.70118 0.0
C114 C 0.23397 0.38992 0.58955 0.0
O115 O 0.13111 0.29604 0.6251 0.0
O116 O 0.09742 0.35001 0.641 0.0
In117 In 0.63584 0.14506 0.36397 0.0
O118 O 0.60206 0.09278 0.3136 0.0
O119 O 0.65183 0.07342 0.3513 0.0
C120 C 0.57254 0.19458 0.38127 0.0
C121 C 0.6719 0.13445 0.43703 0.0
C122 C 0.69147 0.19768 0.30841 0.0
O123 O 0.5609 0.15005 0.37535 0.0
O124 O 0.61546 0.21322 0.37989 0.0
O125 O 0.7066 0.1865 0.34177 0.0
O126 O 0.64831 0.18369 0.30362 0.0
C127 C 0.62671 0.06411 0.32012 0.0
O128 O 0.69373 0.16163 0.40978 0.0
O129 O 0.63078 0.11249 0.42787 0.0
In130 In 0.62486 0.64181 0.64159 0.0
O131 O 0.54768 0.63959 0.63251 0.0
O132 O 0.59755 0.70591 0.62557 0.0
C133 C 0.62378 0.56431 0.68789 0.0
C134 C 0.65697 0.62869 0.56711 0.0
C135 C 0.67951 0.69811 0.69594 0.0
O136 O 0.5933 0.5874 0.69139 0.0
O137 O 0.65137 0.57733 0.65875 0.0
O138 O 0.69534 0.68436 0.66383 0.0
O139 O 0.63609 0.6859 0.69945 0.0
C140 C 0.55535 0.6839 0.62595 0.0
O141 O 0.6754 0.66369 0.5895 0.0
O142 O 0.6208 0.60076 0.58143 0.0
In143 In 0.6781 0.36271 0.85588 0.0
O144 O 0.63293 0.29278 0.8789 0.0
O145 O 0.60085 0.34979 0.8707 0.0
C146 C 0.71541 0.30795 0.80747 0.0
C147 C 0.65761 0.42947 0.80699 0.0
C148 C 0.73789 0.38735 0.91888 0.0
O149 O 0.68588 0.29101 0.83433 0.0
O150 O 0.72667 0.35273 0.80475 0.0
O151 O 0.75098 0.38467 0.8828 0.0
O152 O 0.69478 0.38117 0.92313 0.0
C153 C 0.59613 0.30655 0.87962 0.0
O154 O 0.6768 0.43989 0.84125 0.0
O155 O 0.64871 0.38599 0.79778 0.0
In156 In 0.32881 0.13648 0.85133 0.0
O157 O 0.38652 0.20348 0.858 0.0
O158 O 0.39584 0.14106 0.8869 0.0
C159 C 0.28878 0.18472 0.8 0.0
C160 C 0.34418 0.06956 0.79931 0.0
C161 C 0.27374 0.12682 0.91817 0.0
O162 O 0.32588 0.2036 0.81858 0.0
O163 O 0.27145 0.14101 0.8071 0.0
O164 O 0.30309 0.10257 0.91357 0.0
O165 O 0.27137 0.15382 0.88895 0.0
C166 C 0.41252 0.18439 0.87847 0.0
O167 O 0.31478 0.05914 0.82769 0.0
O168 O 0.36581 0.11267 0.79784 0.0
In169 In 0.3704 0.35135 0.37216 0.0
O170 O 0.32023 0.33238 0.42503 0.0
O171 O 0.37164 0.39812 0.42877 0.0
C172 C 0.32671 0.2877 0.31669 0.0
C173 C 0.36935 0.42561 0.32342 0.0
C174 C 0.44056 0.31096 0.38835 0.0
O175 O 0.30545 0.30223 0.34531 0.0
O176 O 0.36987 0.3045 0.31706 0.0
O177 O 0.44769 0.35368 0.37647 0.0
O178 O 0.39866 0.29029 0.39489 0.0
C179 C 0.33677 0.37012 0.44474 0.0
O180 O 0.40696 0.41771 0.33556 0.0
O181 O 0.33319 0.39764 0.33703 0.0
In182 In 0.32829 0.63222 0.15412 0.0
O183 O 0.38704 0.69794 0.14735 0.0
O184 O 0.39253 0.63587 0.11492 0.0
C185 C 0.29576 0.68918 0.20395 0.0
C186 C 0.27059 0.61957 0.08892 0.0
C187 C 0.34384 0.56449 0.20528 0.0
O188 O 0.3313 0.70405 0.18221 0.0
O189 O 0.27676 0.64515 0.20113 0.0
O190 O 0.30776 0.55778 0.18372 0.0
O191 O 0.37205 0.60412 0.20002 0.0
C192 C 0.41105 0.67858 0.12464 0.0
O193 O 0.30528 0.60215 0.09013 0.0
O194 O 0.26417 0.64095 0.12076 0.0
In195 In 0.67433 0.85784 0.15386 0.0
O196 O 0.74652 0.8739 0.12567 0.0
O197 O 0.69076 0.87708 0.08676 0.0
C198 C 0.65386 0.92647 0.20057 0.0
C199 C 0.59404 0.79973 0.12866 0.0
C200 C 0.7117 0.80817 0.20682 0.0
O201 O 0.67665 0.93606 0.16787 0.0
O202 O 0.64077 0.88285 0.20892 0.0
O203 O 0.68133 0.78858 0.1814 0.0
O204 O 0.7237 0.85303 0.2057 0.0
C205 C 0.73332 0.879 0.09005 0.0
O206 O 0.63136 0.78696 0.13037 0.0
O207 O 0.59745 0.84281 0.13757 0.0
C208 C 0.23181 0.19575 0.26394 0.0
C209 C 0.23655 0.21525 0.22413 0.0
C210 C 0.31149 0.26749 0.24258 0.0
C211 C 0.30182 0.25582 0.28418 0.0
N212 N 0.25597 0.20442 0.33445 0.0
N213 N 0.2782 0.27383 0.17658 0.0
C214 C 0.2629 0.21845 0.29481 0.0
C215 C 0.27585 0.25194 0.21357 0.0
N216 N 0.19896 0.15451 0.27181 0.0
N217 N 0.35455 0.29224 0.23022 0.0
H218 H 0.25224 0.26447 0.15466 0.0
H219 H 0.30367 0.30447 0.16929 0.0
H220 H 0.38302 0.30198 0.24939 0.0
H221 H 0.36361 0.29778 0.19969 0.0
H222 H 0.19702 0.13572 0.29893 0.0
H223 H 0.17591 0.13647 0.24992 0.0
H224 H 0.22511 0.18252 0.34528 0.0
H225 H 0.28115 0.21559 0.35684 0.0
C226 C 0.75108 0.23327 0.20702 0.0
C227 C 0.78434 0.27532 0.21866 0.0
C228 C 0.75246 0.26927 0.28755 0.0
C229 C 0.72222 0.22491 0.27706 0.0
N230 N 0.6965 0.16086 0.22869 0.0
N231 N 0.82133 0.33048 0.27117 0.0
C232 C 0.72222 0.20594 0.23721 0.0
C233 C 0.78663 0.29231 0.25933 0.0
N234 N 0.74722 0.21931 0.16716 0.0
N235 N 0.74679 0.29074 0.32361 0.0
H236 H 0.84562 0.35064 0.25126 0.0
H237 H 0.82796 0.34048 0.30143 0.0
H238 H 0.7211 0.27572 0.34463 0.0
H239 H 0.76431 0.32552 0.33095 0.0
H240 H 0.71984 0.1926 0.15595 0.0
H241 H 0.76998 0.23622 0.14457 0.0
H242 H 0.69951 0.14289 0.20181 0.0
H243 H 0.6746 0.13952 0.24966 0.0
C244 C 0.26775 0.71213 0.27108 0.0
C245 C 0.27654 0.72177 0.22914 0.0
C246 C 0.25421 0.79703 0.23614 0.0
C247 C 0.24104 0.7849 0.27679 0.0
N248 N 0.23005 0.72931 0.33251 0.0
N249 N 0.26942 0.7684 0.16976 0.0
C250 C 0.24623 0.74192 0.29415 0.0
C251 C 0.26773 0.76306 0.21109 0.0
N252 N 0.28181 0.67587 0.2893 0.0
N253 N 0.25373 0.84095 0.22151 0.0
H254 H 0.27685 0.74323 0.14996 0.0
H255 H 0.25878 0.79533 0.1547 0.0
H256 H 0.24281 0.86627 0.23882 0.0
H257 H 0.26777 0.85375 0.19351 0.0
H258 H 0.28109 0.67046 0.32059 0.0
H259 H 0.298 0.65342 0.27356 0.0
H260 H 0.22755 0.69577 0.34489 0.0
H261 H 0.21629 0.75137 0.35124 0.0
C262 C 0.71895 0.72459 0.29367 0.0
C263 C 0.76548 0.72169 0.28931 0.0
C264 C 0.77758 0.77792 0.23245 0.0
C265 C 0.73084 0.78013 0.23624 0.0
N266 N 0.65817 0.7616 0.27229 0.0
N267 N 0.83716 0.73861 0.25152 0.0
C268 C 0.70164 0.75481 0.26722 0.0
C269 C 0.79452 0.74691 0.25818 0.0
N270 N 0.69141 0.69795 0.32282 0.0
N271 N 0.80577 0.8057 0.20432 0.0
H272 H 0.8506 0.71541 0.26911 0.0
H273 H 0.85813 0.75159 0.22671 0.0
H274 H 0.79396 0.82655 0.18312 0.0
H275 H 0.8415 0.81049 0.20323 0.0
H276 H 0.65606 0.69466 0.32576 0.0
H277 H 0.70359 0.6771 0.34378 0.0
H278 H 0.63576 0.74722 0.29579 0.0
H279 H 0.64487 0.78432 0.254 0.0
C280 C 0.2566 0.7244 0.71362 0.0
C281 C 0.2707 0.77476 0.71555 0.0
C282 C 0.22644 0.77522 0.77826 0.0
C283 C 0.21315 0.72482 0.77681 0.0
N284 N 0.21012 0.65072 0.74215 0.0
N285 N 0.27205 0.849 0.74921 0.0
C286 C 0.22652 0.69917 0.74409 0.0
C287 C 0.25634 0.80047 0.74771 0.0
N288 N 0.27426 0.70083 0.68396 0.0
N289 N 0.20852 0.79872 0.80781 0.0
H290 H 0.29113 0.86895 0.72585 0.0
H291 H 0.26791 0.86982 0.774 0.0
H292 H 0.18636 0.78123 0.83059 0.0
H293 H 0.21293 0.83539 0.80876 0.0
H294 H 0.26969 0.66414 0.68301 0.0
H295 H 0.29612 0.71825 0.66096 0.0
H296 H 0.21379 0.63016 0.71704 0.0
H297 H 0.19059 0.63065 0.7652 0.0
C298 C 0.73949 0.77022 0.71798 0.0
C299 C 0.70995 0.72518 0.72773 0.0
C300 C 0.74253 0.72953 0.79653 0.0
C301 C 0.77268 0.77413 0.78651 0.0
N302 N 0.80338 0.83621 0.73776 0.0
N303 N 0.67776 0.66434 0.77727 0.0
C304 C 0.77216 0.79431 0.74722 0.0
C305 C 0.70968 0.7056 0.76736 0.0
N306 N 0.73414 0.79113 0.68163 0.0
N307 N 0.74761 0.70864 0.83295 0.0
H308 H 0.65508 0.64367 0.75642 0.0
H309 H 0.67166 0.65144 0.80676 0.0
H310 H 0.77158 0.72487 0.85497 0.0
H311 H 0.73083 0.6738 0.84051 0.0
H312 H 0.75101 0.82587 0.67388 0.0
H313 H 0.70972 0.77504 0.6599 0.0
H314 H 0.80904 0.84999 0.70853 0.0
H315 H 0.82575 0.85674 0.75893 0.0
C316 C 0.70739 0.2541 0.74741 0.0
C317 C 0.73434 0.27702 0.7806 0.0
C318 C 0.79349 0.23412 0.7666 0.0
C319 C 0.76854 0.21437 0.73134 0.0
N320 N 0.70484 0.20918 0.68492 0.0
N321 N 0.80462 0.29358 0.8201 0.0
C322 C 0.72608 0.22497 0.72098 0.0
C323 C 0.77794 0.26846 0.7897 0.0
N324 N 0.66383 0.26006 0.74132 0.0
N325 N 0.83102 0.21859 0.77875 0.0
H326 H 0.79372 0.31808 0.83839 0.0
H327 H 0.8388 0.29279 0.82546 0.0
H328 H 0.84292 0.19287 0.76282 0.0
H329 H 0.84798 0.22786 0.80634 0.0
H330 H 0.64018 0.23978 0.72094 0.0
H331 H 0.65014 0.28361 0.75838 0.0
H332 H 0.67694 0.22041 0.67327 0.0
H333 H 0.717 0.18716 0.665 0.0
C334 C 0.20453 0.24975 0.75577 0.0
C335 C 0.23215 0.27512 0.72398 0.0
C336 C 0.2929 0.2344 0.73794 0.0
C337 C 0.26738 0.21266 0.77224 0.0
N338 N 0.20174 0.20338 0.81724 0.0
N339 N 0.30382 0.29577 0.68636 0.0
C340 C 0.2237 0.22089 0.78191 0.0
C341 C 0.27678 0.26875 0.71554 0.0
N342 N 0.16002 0.25332 0.761 0.0
N343 N 0.33154 0.2207 0.72592 0.0
H344 H 0.29246 0.31997 0.6682 0.0
H345 H 0.33858 0.29665 0.68188 0.0
H346 H 0.34379 0.19487 0.74122 0.0
H347 H 0.34909 0.23153 0.69887 0.0
H348 H 0.13625 0.23117 0.78013 0.0
H349 H 0.14569 0.27664 0.74436 0.0
H350 H 0.17273 0.21297 0.82848 0.0
H351 H 0.21434 0.18176 0.83714 0.0
C352 C 0.18191 0.00604 0.25994 0.0
C353 C 0.14436 0.96985 0.27459 0.0
C354 C 0.09039 2e-05 0.23192 0.0
C355 C 0.12858 0.03331 0.21432 0.0
N356 N 0.21158 0.06576 0.20893 0.0
N357 N 0.06349 0.92875 0.2729 0.0
C358 C 0.17461 0.03557 0.2275 0.0
C359 C 0.09866 0.96595 0.2603 0.0
N360 N 0.2244 0.01314 0.27808 0.0
N361 N 0.0463 0.00117 0.22162 0.0
H362 H 0.06814 0.90418 0.29459 0.0
H363 H 0.03041 0.9205 0.26034 0.0
H364 H 0.03916 0.02406 0.19954 0.0
H365 H 0.01686 0.98151 0.23645 0.0
H366 H 0.25201 0.04238 0.27231 0.0
H367 H 0.23099 0.99198 0.30182 0.0
H368 H 0.24579 0.06454 0.21346 0.0
H369 H 0.20842 0.09049 0.187 0.0
C370 C 0.82796 0.45854 0.24314 0.0
C371 C 0.87044 0.46949 0.22107 0.0
C372 C 0.89624 0.54444 0.25906 0.0
C373 C 0.85452 0.53257 0.2821 0.0
N374 N 0.78381 0.47547 0.30075 0.0
N375 N 0.94765 0.5189 0.21148 0.0
C376 C 0.82148 0.48862 0.27569 0.0
C377 C 0.90549 0.51118 0.23026 0.0
N378 N 0.79317 0.4199 0.23243 0.0
N379 N 0.92665 0.588 0.26418 0.0
H380 H 0.9548 0.49664 0.18879 0.0
H381 H 0.97651 0.5456 0.21996 0.0
H382 H 0.92248 0.61227 0.28637 0.0
H383 H 0.95479 0.60139 0.24518 0.0
H384 H 0.75944 0.41354 0.24341 0.0
H385 H 0.79694 0.39504 0.21073 0.0
H386 H 0.76177 0.4414 0.30128 0.0
H387 H 0.77606 0.49754 0.32328 0.0
C388 C 0.21965 0.08618 0.97397 0.0
C389 C 0.24756 0.12835 0.95638 0.0
C390 C 0.21751 0.17626 0.00581 0.0
C391 C 0.1944 0.13434 0.02669 0.0
N392 N 0.1799 0.04903 0.03432 0.0
N393 N 0.28157 0.21303 0.96223 0.0
C394 C 0.19696 0.08906 0.01173 0.0
C395 C 0.24883 0.1733 0.97412 0.0
N396 N 0.2135 0.04367 0.95411 0.0
N397 N 0.20855 0.21892 0.01542 0.0
H398 H 0.30715 0.21225 0.9408 0.0
H399 H 0.28669 0.24571 0.97706 0.0
H400 H 0.1843 0.22231 0.03736 0.0
H401 H 0.22123 0.24976 0.99849 0.0
H402 H 0.18965 0.01273 0.96339 0.0
H403 H 0.22914 0.04022 0.9263 0.0
H404 H 0.18539 0.01598 0.02691 0.0
H405 H 0.16379 0.04947 0.06238 0.0
C406 C 0.80118 0.42253 0.0192 0.0
C407 C 0.82337 0.38489 0.02388 0.0
C408 C 0.79019 0.34968 0.95951 0.0
C409 C 0.76939 0.38825 0.9539 0.0
N410 N 0.76205 0.4658 0.97392 0.0
N411 N 0.84842 0.3196 0.99452 0.0
C412 C 0.77708 0.42612 0.98241 0.0
C413 C 0.82088 0.35073 0.99266 0.0
N414 N 0.80103 0.45333 0.05067 0.0
N415 N 0.77843 0.31055 0.93475 0.0
H416 H 0.87155 0.31975 0.01835 0.0
H417 H 0.85177 0.29701 0.9707 0.0
H418 H 0.755 0.30725 0.91078 0.0
H419 H 0.78851 0.27929 0.94023 0.0
H420 H 0.78091 0.47789 0.05098 0.0
H421 H 0.81872 0.45233 0.07783 0.0
H422 H 0.77062 0.49671 0.99141 0.0
H423 H 0.74417 0.4693 0.94732 0.0
C424 C 0.31341 0.85081 0.48638 0.0
C425 C 0.31813 0.88582 0.51726 0.0
C426 C 0.27096 0.92792 0.4777 0.0
C427 C 0.26467 0.89171 0.44772 0.0
N428 N 0.28833 0.82564 0.41791 0.0
N429 N 0.31008 0.96233 0.53972 0.0
C430 C 0.28868 0.85534 0.45032 0.0
C431 C 0.3 0.92619 0.51185 0.0
N432 N 0.33151 0.81245 0.49221 0.0
N433 N 0.24739 0.96248 0.47436 0.0
H434 H 0.33035 0.96146 0.56538 0.0
H435 H 0.30133 0.99459 0.53621 0.0
H436 H 0.22702 0.96521 0.44914 0.0
H437 H 0.24619 0.98717 0.49702 0.0
H438 H 0.32425 0.78239 0.47367 0.0
H439 H 0.3527 0.80979 0.51688 0.0
H440 H 0.30854 0.80126 0.41607 0.0
H441 H 0.27058 0.82799 0.39104 0.0
C442 C 0.68282 0.65705 0.4973 0.0
C443 C 0.67763 0.6212 0.52735 0.0
C444 C 0.72139 0.57806 0.48473 0.0
C445 C 0.73231 0.6174 0.45784 0.0
N446 N 0.72387 0.69468 0.43763 0.0
N447 N 0.69386 0.54864 0.55156 0.0
C448 C 0.71291 0.6569 0.46376 0.0
C449 C 0.6967 0.58147 0.52129 0.0
N450 N 0.65783 0.69047 0.50039 0.0
N451 N 0.73509 0.53772 0.47556 0.0
H452 H 0.67597 0.54961 0.57864 0.0
H453 H 0.71176 0.52216 0.55118 0.0
H454 H 0.75474 0.53478 0.4499 0.0
H455 H 0.7241 0.50597 0.49154 0.0
H456 H 0.6563 0.71493 0.47769 0.0
H457 H 0.63498 0.69098 0.52432 0.0
H458 H 0.71592 0.72706 0.44305 0.0
H459 H 0.74299 0.69463 0.41109 0.0
C460 C 0.98674 0.26737 0.08733 0.0
C461 C 0.98148 0.29461 0.12212 0.0
C462 C 0.04103 0.26517 0.15787 0.0
C463 C 0.04322 0.23464 0.12448 0.0
N464 N 0.01585 0.20322 0.0587 0.0
N465 N 0.99751 0.3131 0.1931 0.0
C466 C 0.01528 0.23466 0.08958 0.0
C467 C 0.00735 0.29227 0.15796 0.0
N468 N 0.96558 0.27407 0.05175 0.0
N469 N 0.07088 0.26804 0.18987 0.0
H470 H 0.97275 0.3327 0.19507 0.0
H471 H 0.01095 0.30759 0.22136 0.0
H472 H 0.09343 0.24609 0.19299 0.0
H473 H 0.07535 0.29426 0.21222 0.0
H474 H 0.97126 0.25891 0.02415 0.0
H475 H 0.94518 0.29829 0.04903 0.0
H476 H 0.99268 0.19754 0.03448 0.0
H477 H 0.03787 0.18041 0.0585 0.0
C478 C 0.97166 0.75066 0.40696 0.0
C479 C 0.96122 0.70667 0.38583 0.0
C480 C 0.03855 0.72545 0.3561 0.0
C481 C 0.04983 0.76921 0.37802 0.0
N482 N 0.03142 0.81737 0.43233 0.0
N483 N 0.98803 0.6461 0.35033 0.0
C484 C 0.01766 0.78001 0.40597 0.0
C485 C 0.99601 0.69187 0.36412 0.0
N486 N 0.93736 0.76472 0.42726 0.0
N487 N 0.06633 0.7174 0.32519 0.0
H488 H 0.957 0.62068 0.35554 0.0
H489 H 0.01374 0.63215 0.33749 0.0
H490 H 0.09633 0.74201 0.316 0.0
H491 H 0.05698 0.68837 0.30554 0.0
H492 H 0.94134 0.79884 0.43904 0.0
H493 H 0.90403 0.74266 0.43063 0.0
H494 H 0.01066 0.82438 0.45582 0.0
H495 H 0.06528 0.83863 0.43331 0.0
C496 C 0.48713 0.70889 0.65558 0.0
C497 C 0.51823 0.70977 0.62268 0.0
C498 C 0.48846 0.77192 0.58925 0.0
C499 C 0.45559 0.76892 0.62097 0.0
N500 N 0.4185 0.72941 0.68127 0.0
N501 N 0.54303 0.73543 0.55493 0.0
C502 C 0.45311 0.7355 0.65296 0.0
C503 C 0.51739 0.73952 0.58859 0.0
N504 N 0.4921 0.6854 0.69065 0.0
N505 N 0.49218 0.80589 0.55986 0.0
H506 H 0.56357 0.71124 0.55312 0.0
H507 H 0.54081 0.75259 0.52754 0.0
H508 H 0.47004 0.82849 0.55818 0.0
H509 H 0.51887 0.81372 0.53859 0.0
H510 H 0.47436 0.68834 0.71741 0.0
H511 H 0.51696 0.6662 0.6945 0.0
H512 H 0.41118 0.70133 0.70188 0.0
H513 H 0.39493 0.75045 0.68265 0.0
C514 C 0.81257 0.0028 0.75305 0.0
C515 C 0.85077 0.03093 0.73127 0.0
C516 C 0.90371 0.99762 0.7725 0.0
C517 C 0.86518 0.9659 0.79105 0.0
N518 N 0.78244 0.93009 0.79026 0.0
N519 N 0.93207 0.04761 0.71443 0.0
C520 C 0.81943 0.96611 0.7789 0.0
C521 C 0.89625 0.02627 0.73937 0.0
N522 N 0.77004 0.01236 0.7508 0.0
N523 N 0.94732 0.00172 0.78734 0.0
H524 H 0.9276 0.0671 0.68887 0.0
H525 H 0.96505 0.04177 0.71654 0.0
H526 H 0.95406 0.98212 0.81211 0.0
H527 H 0.97612 0.0278 0.77768 0.0
H528 H 0.74243 0.99599 0.76951 0.0
H529 H 0.76354 0.04007 0.7336 0.0
H530 H 0.74927 0.92621 0.77847 0.0
H531 H 0.78546 0.90106 0.80761 0.0
C532 C 0.11434 0.5291 0.75476 0.0
C533 C 0.12893 0.52624 0.79565 0.0
C534 C 0.16442 0.4618 0.77641 0.0
C535 C 0.14665 0.46203 0.73634 0.0
N536 N 0.09564 0.48863 0.69014 0.0
N537 N 0.15832 0.48283 0.84716 0.0
C538 C 0.11893 0.49355 0.72629 0.0
C539 C 0.15097 0.4903 0.80698 0.0
N540 N 0.09853 0.56706 0.74229 0.0
N541 N 0.19618 0.43645 0.78488 0.0
H542 H 0.14793 0.50243 0.87036 0.0
H543 H 0.17015 0.45414 0.8576 0.0
H544 H 0.20872 0.41675 0.76308 0.0
H545 H 0.21378 0.43893 0.81245 0.0
H546 H 0.09295 0.57375 0.71186 0.0
H547 H 0.09477 0.59424 0.76166 0.0
H548 H 0.07107 0.50732 0.68313 0.0
H549 H 0.09739 0.46257 0.66876 0.0
C550 C 0.77178 0.91691 0.02605 0.0
C551 C 0.7636 0.87887 0.05428 0.0
C552 C 0.81279 0.8397 0.0141 0.0
C553 C 0.81579 0.87429 0.98329 0.0
N554 N 0.79442 0.94362 0.95753 0.0
N555 N 0.77019 0.79993 0.07198 0.0
C556 C 0.79469 0.91266 0.98872 0.0
C557 C 0.78281 0.83931 0.04771 0.0
N558 N 0.75851 0.95746 0.03532 0.0
N559 N 0.83926 0.80759 0.0115 0.0
H560 H 0.74711 0.79701 0.09619 0.0
H561 H 0.77907 0.76817 0.06576 0.0
H562 H 0.86187 0.80718 0.98736 0.0
H563 H 0.8423 0.78464 0.03505 0.0
H564 H 0.76768 0.98837 0.01797 0.0
H565 H 0.74171 0.96163 0.0624 0.0
H566 H 0.77495 0.96877 0.9579 0.0
H567 H 0.81103 0.94203 0.92987 0.0
C568 C 0.20641 0.66682 0.00562 0.0
C569 C 0.18951 0.62567 0.98147 0.0
C570 C 0.22092 0.57844 0.0307 0.0
C571 C 0.24302 0.62093 0.0516 0.0
N572 N 0.26503 0.70706 0.05304 0.0
N573 N 0.18574 0.543 0.96786 0.0
C574 C 0.23789 0.66557 0.03757 0.0
C575 C 0.19781 0.58147 0.99323 0.0
N576 N 0.19156 0.70697 0.9986 0.0
N577 N 0.2208 0.53524 0.04716 0.0
H578 H 0.16888 0.5437 0.94023 0.0
H579 H 0.19567 0.51152 0.97271 0.0
H580 H 0.23706 0.5317 0.07461 0.0
H581 H 0.20121 0.50308 0.03547 0.0
H582 H 0.1993 0.73649 0.01784 0.0
H583 H 0.16735 0.7088 0.97616 0.0
H584 H 0.26578 0.74039 0.04095 0.0
H585 H 0.29068 0.70817 0.07479 0.0
C586 C 0.69678 0.08588 0.49246 0.0
C587 C 0.69355 0.13064 0.47705 0.0
C588 C 0.74688 0.17142 0.52971 0.0
C589 C 0.74654 0.12692 0.5477 0.0
N590 N 0.71404 0.042 0.55057 0.0
N591 N 0.70581 0.21521 0.48755 0.0
C592 C 0.71944 0.0841 0.53035 0.0
C593 C 0.71564 0.17317 0.49771 0.0
N594 N 0.68032 0.04537 0.47019 0.0
N595 N 0.77871 0.21188 0.54162 0.0
H596 H 0.68165 0.21769 0.46526 0.0
H597 H 0.71766 0.24642 0.5043 0.0
H598 H 0.8042 0.21207 0.56334 0.0
H599 H 0.78323 0.2443 0.52661 0.0
H600 H 0.68636 0.01267 0.47791 0.0
H601 H 0.66406 0.04506 0.44214 0.0
H602 H 0.6908 0.01054 0.54141 0.0
H603 H 0.7296 0.03936 0.57855 0.0
C604 C 0.2717 0.42447 0.52412 0.0
C605 C 0.26413 0.38823 0.55401 0.0
C606 C 0.31371 0.3474 0.51614 0.0
C607 C 0.3162 0.37998 0.48379 0.0
N608 N 0.29424 0.44737 0.45468 0.0
N609 N 0.27104 0.31034 0.57487 0.0
C610 C 0.29471 0.41832 0.48725 0.0
C611 C 0.28359 0.34854 0.54929 0.0
N612 N 0.2576 0.46504 0.53132 0.0
N613 N 0.3408 0.31577 0.51546 0.0
H614 H 0.24756 0.30828 0.59867 0.0
H615 H 0.28026 0.27846 0.57005 0.0
H616 H 0.3637 0.31434 0.49176 0.0
H617 H 0.3441 0.29446 0.54015 0.0
H618 H 0.26619 0.49488 0.51265 0.0
H619 H 0.24049 0.47034 0.55793 0.0
H620 H 0.27468 0.47241 0.4537 0.0
H621 H 0.31087 0.44425 0.4273 0.0
C622 C 0.0059 0.72326 0.91539 0.0
C623 C 0.03763 0.7271 0.88265 0.0
C624 C 0.00358 0.78643 0.84988 0.0
C625 C 0.97379 0.78486 0.88384 0.0
N626 N 0.9515 0.75805 0.95184 0.0
N627 N 0.07144 0.76702 0.82137 0.0
C628 C 0.97626 0.75488 0.91741 0.0
C629 C 0.03815 0.76043 0.85091 0.0
N630 N 0.00399 0.68923 0.94446 0.0
N631 N 0.99681 0.81003 0.81535 0.0
H632 H 0.09506 0.74617 0.81867 0.0
H633 H 0.07758 0.79521 0.80087 0.0
H634 H 0.97146 0.82882 0.81267 0.0
H635 H 0.01353 0.80759 0.78794 0.0
H636 H 0.97823 0.6808 0.96654 0.0
H637 H 0.02669 0.66716 0.94507 0.0
H638 H 0.95496 0.74077 0.9789 0.0
H639 H 0.93028 0.7815 0.95457 0.0
C640 C 0.01426 0.28642 0.59609 0.0
C641 C 0.04823 0.27409 0.62103 0.0
C642 C 0.99634 0.19527 0.63232 0.0
C643 C 0.95983 0.2108 0.61412 0.0
N644 N 0.93279 0.27087 0.57837 0.0
N645 N 0.06742 0.21991 0.67012 0.0
C646 C 0.96851 0.25629 0.59565 0.0
C647 C 0.03853 0.22908 0.64067 0.0
N648 N 0.02598 0.32611 0.57222 0.0
N649 N 0.99051 0.14861 0.64272 0.0
H650 H 0.09665 0.245 0.68027 0.0
H651 H 0.05932 0.18948 0.68816 0.0
H652 H 0.96019 0.1226 0.63674 0.0
H653 H 0.01757 0.13487 0.65291 0.0
H654 H 0.00381 0.33466 0.55071 0.0
H655 H 0.05943 0.34833 0.57131 0.0
H656 H 0.93549 0.30563 0.56879 0.0
H657 H 0.89967 0.24829 0.57517 0.0
C658 C 0.51279 0.22539 0.41956 0.0
C659 C 0.53871 0.22427 0.38357 0.0
C660 C 0.50011 0.27971 0.35067 0.0
C661 C 0.47683 0.28393 0.3877 0.0
N662 N 0.46546 0.26623 0.45901 0.0
N663 N 0.56214 0.25513 0.31659 0.0
C664 C 0.4843 0.25811 0.42262 0.0
C665 C 0.5341 0.25314 0.3498 0.0
N666 N 0.51529 0.19504 0.4507 0.0
N667 N 0.48755 0.29817 0.31546 0.0
H668 H 0.58485 0.23344 0.31287 0.0
H669 H 0.56501 0.28049 0.29374 0.0
H670 H 0.46238 0.31725 0.31392 0.0
H671 H 0.49899 0.29087 0.28681 0.0
H672 H 0.49368 0.19029 0.47602 0.0
H673 H 0.53709 0.17202 0.44999 0.0
H674 H 0.47296 0.25216 0.4865 0.0
H675 H 0.44518 0.2905 0.46235 0.0
C676 C 0.67631 0.53723 0.73724 0.0
C677 C 0.63165 0.53016 0.71922 0.0
C678 C 0.60256 0.46149 0.76402 0.0
C679 C 0.64831 0.46546 0.77835 0.0
N680 N 0.73027 0.50167 0.77257 0.0
N681 N 0.55374 0.48139 0.71133 0.0
C682 C 0.6856 0.5019 0.7634 0.0
C683 C 0.59504 0.49124 0.73162 0.0
N684 N 0.70952 0.57865 0.73096 0.0
N685 N 0.5661 0.43022 0.78221 0.0
H686 H 0.54723 0.50182 0.68706 0.0
H687 H 0.52746 0.45063 0.71607 0.0
H688 H 0.57023 0.40833 0.80628 0.0
H689 H 0.5316 0.42909 0.77604 0.0
H690 H 0.74052 0.58778 0.74715 0.0
H691 H 0.70448 0.60637 0.713 0.0
H692 H 0.75891 0.52403 0.75854 0.0
H693 H 0.7389 0.47623 0.79124 0.0
C694 C 0.36987 0.99617 0.78056 0.0
C695 C 0.35183 0.03481 0.7686 0.0
C696 C 0.3558 0.01211 0.69698 0.0
C697 C 0.36862 0.9704 0.7092 0.0
N698 N 0.38145 0.91892 0.76338 0.0
N699 N 0.32127 0.0762 0.71606 0.0
C700 C 0.37429 0.96149 0.75119 0.0
C701 C 0.34326 0.04203 0.72692 0.0
N702 N 0.38421 0.99338 0.81974 0.0
N703 N 0.35676 0.02371 0.65667 0.0
H704 H 0.31073 0.09829 0.73708 0.0
H705 H 0.30964 0.07984 0.6867 0.0
H706 H 0.36662 0.00297 0.63406 0.0
H707 H 0.35227 0.05599 0.646 0.0
H708 H 0.40256 0.96917 0.82917 0.0
H709 H 0.38138 0.01796 0.84215 0.0
H710 H 0.37979 0.90815 0.79364 0.0
H711 H 0.38533 0.89248 0.74326 0.0
C712 C 0.49558 0.19928 0.86007 0.0
C713 C 0.46127 0.20966 0.88573 0.0
C714 C 0.51809 0.27914 0.913 0.0
C715 C 0.55023 0.27246 0.88318 0.0
N716 N 0.56599 0.23159 0.82268 0.0
N717 N 0.43797 0.25986 0.9356 0.0
C718 C 0.53834 0.23363 0.8555 0.0
C719 C 0.47204 0.24967 0.91209 0.0
N720 N 0.48703 0.15719 0.83917 0.0
N721 N 0.53192 0.31281 0.94261 0.0
H722 H 0.40467 0.23735 0.93735 0.0
H723 H 0.442 0.29146 0.95185 0.0
H724 H 0.5655 0.33468 0.94413 0.0
H725 H 0.51146 0.31649 0.96745 0.0
H726 H 0.51265 0.14573 0.82355 0.0
H727 H 0.45557 0.13154 0.84042 0.0
H728 H 0.55644 0.20702 0.79915 0.0
H729 H 0.59616 0.25761 0.81625 0.0
C730 C 0.36567 0.54364 0.27576 0.0
C731 C 0.35245 0.52924 0.23513 0.0
C732 C 0.3508 0.4468 0.25268 0.0
C733 C 0.36686 0.46177 0.29239 0.0
N734 N 0.39695 0.52502 0.34004 0.0
N735 N 0.34326 0.46934 0.18267 0.0
C736 C 0.37694 0.51047 0.30327 0.0
C737 C 0.34789 0.48138 0.22295 0.0
N738 N 0.36477 0.58811 0.28893 0.0
N739 N 0.3379 0.3994 0.24338 0.0
H740 H 0.34277 0.49391 0.15971 0.0
H741 H 0.34466 0.43613 0.17153 0.0
H742 H 0.342 0.3731 0.26346 0.0
H743 H 0.32041 0.38597 0.21681 0.0
H744 H 0.3687 0.59868 0.31925 0.0
H745 H 0.35588 0.61337 0.27035 0.0
H746 H 0.40998 0.56065 0.34791 0.0
H747 H 0.40389 0.50145 0.3616 0.0
C748 C 0.67831 0.03142 0.27383 0.0
C749 C 0.63311 0.0288 0.28925 0.0
C750 C 0.60093 0.96398 0.24125 0.0
C751 C 0.64655 0.96329 0.22937 0.0
N752 N 0.72904 0.98994 0.24062 0.0
N753 N 0.55194 0.98858 0.29152 0.0
C754 C 0.68536 0.99528 0.24731 0.0
C755 C 0.59446 0.99406 0.2739 0.0
N756 N 0.71439 0.06958 0.28284 0.0
N757 N 0.56382 0.93689 0.22053 0.0
H758 H 0.54611 0.00958 0.31575 0.0
H759 H 0.52341 0.9607 0.28459 0.0
H760 H 0.56735 0.91488 0.19625 0.0
H761 H 0.52994 0.93938 0.22491 0.0
H762 H 0.74654 0.07577 0.26855 0.0
H763 H 0.7112 0.09795 0.30105 0.0
H764 H 0.75792 0.00869 0.25682 0.0
H765 H 0.73605 0.96365 0.22182 0.0
C766 C 0.53662 0.72402 0.1477 0.0
C767 C 0.54882 0.76506 0.12257 0.0
C768 C 0.47114 0.74429 0.09255 0.0
C769 C 0.45997 0.70251 0.1166 0.0
N770 N 0.48574 0.6459 0.15836 0.0
N771 N 0.53162 0.80892 0.065 0.0
C772 C 0.49418 0.6899 0.14083 0.0
C773 C 0.51725 0.77359 0.09302 0.0
N774 N 0.56336 0.7195 0.1805 0.0
N775 N 0.43735 0.75637 0.07005 0.0
H776 H 0.56539 0.83046 0.06424 0.0
H777 H 0.51147 0.81414 0.04044 0.0
H778 H 0.40403 0.73409 0.06731 0.0
H779 H 0.44171 0.78912 0.05567 0.0
H780 H 0.5533 0.69285 0.20223 0.0
H781 H 0.59294 0.74526 0.18899 0.0
H782 H 0.51126 0.63339 0.17305 0.0
H783 H 0.45474 0.62001 0.15467 0.0
loop_
_geom_bond_atom_site_label_1
_geom_bond_atom_site_label_2
_geom_bond_distance
_geom_bond_site_symmetry_2
_ccdc_geom_bond_type
In0 O1 2.294 . S
In0 O2 2.326 . S
In0 O6 2.266 . S
In0 O7 2.326 . S
In0 O8 2.266 . S
In0 O9 2.326 . S
In0 O11 2.294 . S
In0 O12 2.326 . S
O1 In0 2.294 . S
O1 C10 1.240 . S
O2 In0 2.326 . S
O2 C10 1.252 . S
C3 O6 1.252 . S
C3 O7 1.260 . S
C4 O11 1.240 . S
C4 O12 1.252 . S
C5 O8 1.252 . S
C5 O9 1.260 . S
O6 In0 2.266 . S
O6 C3 1.252 . S
O7 In0 2.326 . S
O7 C3 1.260 . S
O8 In0 2.266 . S
O8 C5 1.252 . S
O9 In0 2.326 . S
O9 C5 1.260 . S
C10 O1 1.240 . S
C10 O2 1.252 . S
O11 In0 2.294 . S
O11 C4 1.240 . S
O12 In0 2.326 . S
O12 C4 1.252 . S
In13 O14 2.294 . S
In13 O15 2.326 . S
In13 O19 2.266 . S
In13 O20 2.326 . S
In13 O21 2.266 . S
In13 O22 2.326 . S
In13 O24 2.294 . S
In13 O25 2.326 . S
O14 In13 2.294 . S
O14 C23 1.240 . S
O15 In13 2.326 . S
O15 C23 1.252 . S
C16 O19 1.252 . S
C16 O20 1.260 . S
C17 O24 1.240 . S
C17 O25 1.252 . S
C18 O21 1.252 . S
C18 O22 1.260 . S
O19 In13 2.266 . S
O19 C16 1.252 . S
O20 In13 2.326 . S
O20 C16 1.260 . S
O21 In13 2.266 . S
O21 C18 1.252 . S
O22 In13 2.326 . S
O22 C18 1.260 . S
C23 O14 1.240 . S
C23 O15 1.252 . S
O24 In13 2.294 . S
O24 C17 1.240 . S
O25 In13 2.326 . S
O25 C17 1.252 . S
In26 O27 2.294 . S
In26 O28 2.326 . S
In26 O32 2.266 . S
In26 O33 2.326 . S
In26 O34 2.266 . S
In26 O35 2.326 . S
In26 O37 2.294 . S
In26 O38 2.326 . S
O27 In26 2.294 . S
O27 C36 1.240 . S
O28 In26 2.326 . S
O28 C36 1.252 . S
C29 O32 1.252 . S
C29 O33 1.260 . S
C30 O37 1.240 . S
C30 O38 1.252 . S
C31 O34 1.252 . S
C31 O35 1.260 . S
O32 In26 2.266 . S
O32 C29 1.252 . S
O33 In26 2.326 . S
O33 C29 1.260 . S
O34 In26 2.266 . S
O34 C31 1.252 . S
O35 In26 2.326 . S
O35 C31 1.260 . S
C36 O27 1.240 . S
C36 O28 1.252 . S
O37 In26 2.294 . S
O37 C30 1.240 . S
O38 In26 2.326 . S
O38 C30 1.252 . S
In39 O40 2.294 . S
In39 O41 2.326 . S
In39 O45 2.266 . S
In39 O46 2.326 . S
In39 O47 2.266 . S
In39 O48 2.326 . S
In39 O50 2.294 . S
In39 O51 2.326 . S
O40 In39 2.294 . S
O40 C49 1.240 . S
O41 In39 2.326 . S
O41 C49 1.252 . S
C42 O45 1.252 . S
C42 O46 1.260 . S
C43 O50 1.240 . S
C43 O51 1.252 . S
C44 O47 1.252 . S
C44 O48 1.260 . S
O45 In39 2.266 . S
O45 C42 1.252 . S
O46 In39 2.326 . S
O46 C42 1.260 . S
O47 In39 2.266 . S
O47 C44 1.252 . S
O48 In39 2.326 . S
O48 C44 1.260 . S
C49 O40 1.240 . S
C49 O41 1.252 . S
O50 In39 2.294 . S
O50 C43 1.240 . S
O51 In39 2.326 . S
O51 C43 1.252 . S
In52 O53 2.294 . S
In52 O54 2.326 . S
In52 O58 2.266 . S
In52 O59 2.326 . S
In52 O60 2.266 . S
In52 O61 2.326 . S
In52 O63 2.294 . S
In52 O64 2.326 . S
O53 In52 2.294 . S
O53 C62 1.240 . S
O54 In52 2.326 . S
O54 C62 1.252 . S
C55 O58 1.252 . S
C55 O59 1.260 . S
C56 O63 1.240 . S
C56 O64 1.252 . S
C57 O60 1.252 . S
C57 O61 1.260 . S
O58 In52 2.266 . S
O58 C55 1.252 . S
O59 In52 2.326 . S
O59 C55 1.260 . S
O60 In52 2.266 . S
O60 C57 1.252 . S
O61 In52 2.326 . S
O61 C57 1.260 . S
C62 O53 1.240 . S
C62 O54 1.252 . S
O63 In52 2.294 . S
O63 C56 1.240 . S
O64 In52 2.326 . S
O64 C56 1.252 . S
In65 O66 2.294 . S
In65 O67 2.326 . S
In65 O71 2.266 . S
In65 O72 2.326 . S
In65 O73 2.266 . S
In65 O74 2.326 . S
In65 O76 2.294 . S
In65 O77 2.326 . S
O66 In65 2.294 . S
O66 C75 1.240 . S
O67 In65 2.326 . S
O67 C75 1.252 . S
C68 O71 1.252 . S
C68 O72 1.260 . S
C69 O76 1.240 . S
C69 O77 1.252 . S
C70 O73 1.252 . S
C70 O74 1.260 . S
O71 In65 2.266 . S
O71 C68 1.252 . S
O72 In65 2.326 . S
O72 C68 1.260 . S
O73 In65 2.266 . S
O73 C70 1.252 . S
O74 In65 2.326 . S
O74 C70 1.260 . S
C75 O66 1.240 . S
C75 O67 1.252 . S
O76 In65 2.294 . S
O76 C69 1.240 . S
O77 In65 2.326 . S
O77 C69 1.252 . S
In78 O79 2.294 . S
In78 O80 2.326 . S
In78 O84 2.266 . S
In78 O85 2.326 . S
In78 O86 2.266 . S
In78 O87 2.326 . S
In78 O89 2.294 . S
In78 O90 2.326 . S
O79 In78 2.294 . S
O79 C88 1.240 . S
O80 In78 2.326 . S
O80 C88 1.252 . S
C81 O84 1.252 . S
C81 O85 1.260 . S
C82 O89 1.240 . S
C82 O90 1.252 . S
C83 O86 1.252 . S
C83 O87 1.260 . S
O84 In78 2.266 . S
O84 C81 1.252 . S
O85 In78 2.326 . S
O85 C81 1.260 . S
O86 In78 2.266 . S
O86 C83 1.252 . S
O87 In78 2.326 . S
O87 C83 1.260 . S
C88 O79 1.240 . S
C88 O80 1.252 . S
O89 In78 2.294 . S
O89 C82 1.240 . S
O90 In78 2.326 . S
O90 C82 1.252 . S
In91 O92 2.294 . S
In91 O93 2.326 . S
In91 O97 2.266 . S
In91 O98 2.326 . S
In91 O99 2.266 . S
In91 O100 2.326 . S
In91 O102 2.294 . S
In91 O103 2.326 . S
O92 In91 2.294 . S
O92 C101 1.240 . S
O93 In91 2.326 . S
O93 C101 1.252 . S
C94 O97 1.252 . S
C94 O98 1.260 . S
C95 O102 1.240 . S
C95 O103 1.252 . S
C96 O99 1.252 . S
C96 O100 1.260 . S
O97 In91 2.266 . S
O97 C94 1.252 . S
O98 In91 2.326 . S
O98 C94 1.260 . S
O99 In91 2.266 . S
O99 C96 1.252 . S
O100 In91 2.326 . S
O100 C96 1.260 . S
C101 O92 1.240 . S
C101 O93 1.252 . S
O102 In91 2.294 . S
O102 C95 1.240 . S
O103 In91 2.326 . S
O103 C95 1.252 . S
In104 O105 2.294 . S
In104 O106 2.326 . S
In104 O110 2.266 . S
In104 O111 2.326 . S
In104 O112 2.266 . S
In104 O113 2.326 . S
In104 O115 2.294 . S
In104 O116 2.326 . S
O105 In104 2.294 . S
O105 C114 1.240 . S
O106 In104 2.326 . S
O106 C114 1.252 . S
C107 O110 1.252 . S
C107 O111 1.260 . S
C108 O115 1.240 . S
C108 O116 1.252 . S
C109 O112 1.252 . S
C109 O113 1.260 . S
O110 In104 2.266 . S
O110 C107 1.252 . S
O111 In104 2.326 . S
O111 C107 1.260 . S
O112 In104 2.266 . S
O112 C109 1.252 . S
O113 In104 2.326 . S
O113 C109 1.260 . S
C114 O105 1.240 . S
C114 O106 1.252 . S
O115 In104 2.294 . S
O115 C108 1.240 . S
O116 In104 2.326 . S
O116 C108 1.252 . S
In117 O118 2.294 . S
In117 O119 2.326 . S
In117 O123 2.266 . S
In117 O124 2.326 . S
In117 O125 2.266 . S
In117 O126 2.326 . S
In117 O128 2.294 . S
In117 O129 2.326 . S
O118 In117 2.294 . S
O118 C127 1.240 . S
O119 In117 2.326 . S
O119 C127 1.252 . S
C120 O123 1.252 . S
C120 O124 1.260 . S
C121 O128 1.240 . S
C121 O129 1.252 . S
C122 O125 1.252 . S
C122 O126 1.260 . S
O123 In117 2.266 . S
O123 C120 1.252 . S
O124 In117 2.326 . S
O124 C120 1.260 . S
O125 In117 2.266 . S
O125 C122 1.252 . S
O126 In117 2.326 . S
O126 C122 1.260 . S
C127 O118 1.240 . S
C127 O119 1.252 . S
O128 In117 2.294 . S
O128 C121 1.240 . S
O129 In117 2.326 . S
O129 C121 1.252 . S
In130 O131 2.294 . S
In130 O132 2.326 . S
In130 O136 2.266 . S
In130 O137 2.326 . S
In130 O138 2.266 . S
In130 O139 2.326 . S
In130 O141 2.294 . S
In130 O142 2.326 . S
O131 In130 2.294 . S
O131 C140 1.240 . S
O132 In130 2.326 . S
O132 C140 1.252 . S
C133 O136 1.252 . S
C133 O137 1.260 . S
C134 O141 1.240 . S
C134 O142 1.252 . S
C135 O138 1.252 . S
C135 O139 1.260 . S
O136 In130 2.266 . S
O136 C133 1.252 . S
O137 In130 2.326 . S
O137 C133 1.260 . S
O138 In130 2.266 . S
O138 C135 1.252 . S
O139 In130 2.326 . S
O139 C135 1.260 . S
C140 O131 1.240 . S
C140 O132 1.252 . S
O141 In130 2.294 . S
O141 C134 1.240 . S
O142 In130 2.326 . S
O142 C134 1.252 . S
In143 O144 2.294 . S
In143 O145 2.326 . S
In143 O149 2.266 . S
In143 O150 2.326 . S
In143 O151 2.266 . S
In143 O152 2.326 . S
In143 O154 2.294 . S
In143 O155 2.326 . S
O144 In143 2.294 . S
O144 C153 1.240 . S
O145 In143 2.326 . S
O145 C153 1.252 . S
C146 O149 1.252 . S
C146 O150 1.260 . S
C147 O154 1.240 . S
C147 O155 1.252 . S
C148 O151 1.252 . S
C148 O152 1.260 . S
O149 In143 2.266 . S
O149 C146 1.252 . S
O150 In143 2.326 . S
O150 C146 1.260 . S
O151 In143 2.266 . S
O151 C148 1.252 . S
O152 In143 2.326 . S
O152 C148 1.260 . S
C153 O144 1.240 . S
C153 O145 1.252 . S
O154 In143 2.294 . S
O154 C147 1.240 . S
O155 In143 2.326 . S
O155 C147 1.252 . S
In156 O157 2.294 . S
In156 O158 2.326 . S
In156 O162 2.266 . S
In156 O163 2.326 . S
In156 O164 2.266 . S
In156 O165 2.326 . S
In156 O167 2.294 . S
In156 O168 2.326 . S
O157 In156 2.294 . S
O157 C166 1.240 . S
O158 In156 2.326 . S
O158 C166 1.252 . S
C159 O162 1.252 . S
C159 O163 1.260 . S
C160 O167 1.240 . S
C160 O168 1.252 . S
C161 O164 1.252 . S
C161 O165 1.260 . S
O162 In156 2.266 . S
O162 C159 1.252 . S
O163 In156 2.326 . S
O163 C159 1.260 . S
O164 In156 2.266 . S
O164 C161 1.252 . S
O165 In156 2.326 . S
O165 C161 1.260 . S
C166 O157 1.240 . S
C166 O158 1.252 . S
O167 In156 2.294 . S
O167 C160 1.240 . S
O168 In156 2.326 . S
O168 C160 1.252 . S
In169 O170 2.294 . S
In169 O171 2.326 . S
In169 O175 2.266 . S
In169 O176 2.326 . S
In169 O177 2.266 . S
In169 O178 2.326 . S
In169 O180 2.294 . S
In169 O181 2.326 . S
O170 In169 2.294 . S
O170 C179 1.240 . S
O171 In169 2.326 . S
O171 C179 1.252 . S
C172 O175 1.252 . S
C172 O176 1.260 . S
C173 O180 1.240 . S
C173 O181 1.252 . S
C174 O177 1.252 . S
C174 O178 1.260 . S
O175 In169 2.266 . S
O175 C172 1.252 . S
O176 In169 2.326 . S
O176 C172 1.260 . S
O177 In169 2.266 . S
O177 C174 1.252 . S
O178 In169 2.326 . S
O178 C174 1.260 . S
C179 O170 1.240 . S
C179 O171 1.252 . S
O180 In169 2.294 . S
O180 C173 1.240 . S
O181 In169 2.326 . S
O181 C173 1.252 . S
In182 O183 2.294 . S
In182 O184 2.326 . S
In182 O188 2.266 . S
In182 O189 2.326 . S
In182 O190 2.266 . S
In182 O191 2.326 . S
In182 O193 2.294 . S
In182 O194 2.326 . S
O183 In182 2.294 . S
O183 C192 1.240 . S
O184 In182 2.326 . S
O184 C192 1.252 . S
C185 O188 1.252 . S
C185 O189 1.260 . S
C186 O193 1.240 . S
C186 O194 1.252 . S
C187 O190 1.252 . S
C187 O191 1.260 . S
O188 In182 2.266 . S
O188 C185 1.252 . S
O189 In182 2.326 . S
O189 C185 1.260 . S
O190 In182 2.266 . S
O190 C187 1.252 . S
O191 In182 2.326 . S
O191 C187 1.260 . S
C192 O183 1.240 . S
C192 O184 1.252 . S
O193 In182 2.294 . S
O193 C186 1.240 . S
O194 In182 2.326 . S
O194 C186 1.252 . S
In195 O196 2.294 . S
In195 O197 2.326 . S
In195 O201 2.266 . S
In195 O202 2.326 . S
In195 O203 2.266 . S
In195 O204 2.326 . S
In195 O206 2.294 . S
In195 O207 2.326 . S
O196 In195 2.294 . S
O196 C205 1.240 . S
O197 In195 2.326 . S
O197 C205 1.252 . S
C198 O201 1.252 . S
C198 O202 1.260 . S
C199 O206 1.240 . S
C199 O207 1.252 . S
C200 O203 1.252 . S
C200 O204 1.260 . S
O201 In195 2.266 . S
O201 C198 1.252 . S
O202 In195 2.326 . S
O202 C198 1.260 . S
O203 In195 2.266 . S
O203 C200 1.252 . S
O204 In195 2.326 . S
O204 C200 1.260 . S
C205 O196 1.240 . S
C205 O197 1.252 . S
O206 In195 2.294 . S
O206 C199 1.240 . S
O207 In195 2.326 . S
O207 C199 1.252 . S
C208 C209 1.363 . S
C208 C214 1.379 . S
C208 N216 1.356 . S
C209 C208 1.363 . S
C209 C215 1.363 . S
C210 C211 1.363 . S
C210 C215 1.379 . S
C210 N217 1.356 . S
C211 C210 1.363 . S
C211 C214 1.363 . S
N212 C214 1.356 . S
N212 H224 0.984 . S
N212 H225 0.985 . S
N213 C215 1.356 . S
N213 H218 0.984 . S
N213 H219 0.985 . S
C214 C208 1.379 . S
C214 C211 1.363 . S
C214 N212 1.356 . S
C215 C209 1.363 . S
C215 C210 1.379 . S
C215 N213 1.356 . S
N216 C208 1.356 . S
N216 H222 0.984 . S
N216 H223 0.984 . S
N217 C210 1.356 . S
N217 H220 0.984 . S
N217 H221 0.985 . S
H218 N213 0.984 . S
H219 N213 0.985 . S
H220 N217 0.984 . S
H221 N217 0.985 . S
H222 N216 0.984 . S
H223 N216 0.984 . S
H224 N212 0.984 . S
H225 N212 0.985 . S
C226 C227 1.363 . S
C226 C232 1.379 . S
C226 N234 1.356 . S
C227 C226 1.363 . S
C227 C233 1.363 . S
C228 C229 1.363 . S
C228 C233 1.379 . S
C228 N235 1.356 . S
C229 C228 1.363 . S
C229 C232 1.363 . S
N230 C232 1.356 . S
N230 H242 0.984 . S
N230 H243 0.985 . S
N231 C233 1.356 . S
N231 H236 0.984 . S
N231 H237 0.985 . S
C232 C226 1.379 . S
C232 C229 1.363 . S
C232 N230 1.356 . S
C233 C227 1.363 . S
C233 C228 1.379 . S
C233 N231 1.356 . S
N234 C226 1.356 . S
N234 H240 0.984 . S
N234 H241 0.984 . S
N235 C228 1.356 . S
N235 H238 0.984 . S
N235 H239 0.985 . S
H236 N231 0.984 . S
H237 N231 0.985 . S
H238 N235 0.984 . S
H239 N235 0.985 . S
H240 N234 0.984 . S
H241 N234 0.984 . S
H242 N230 0.984 . S
H243 N230 0.985 . S
C244 C245 1.363 . S
C244 C250 1.379 . S
C244 N252 1.356 . S
C245 C244 1.363 . S
C245 C251 1.363 . S
C246 C247 1.363 . S
C246 C251 1.379 . S
C246 N253 1.356 . S
C247 C246 1.363 . S
C247 C250 1.363 . S
N248 C250 1.356 . S
N248 H260 0.984 . S
N248 H261 0.985 . S
N249 C251 1.356 . S
N249 H254 0.984 . S
N249 H255 0.985 . S
C250 C244 1.379 . S
C250 C247 1.363 . S
C250 N248 1.356 . S
C251 C245 1.363 . S
C251 C246 1.379 . S
C251 N249 1.356 . S
N252 C244 1.356 . S
N252 H258 0.984 . S
N252 H259 0.984 . S
N253 C246 1.356 . S
N253 H256 0.984 . S
N253 H257 0.985 . S
H254 N249 0.984 . S
H255 N249 0.985 . S
H256 N253 0.984 . S
H257 N253 0.985 . S
H258 N252 0.984 . S
H259 N252 0.984 . S
H260 N248 0.984 . S
H261 N248 0.985 . S
C262 C263 1.363 . S
C262 C268 1.379 . S
C262 N270 1.356 . S
C263 C262 1.363 . S
C263 C269 1.363 . S
C264 C265 1.363 . S
C264 C269 1.379 . S
C264 N271 1.356 . S
C265 C264 1.363 . S
C265 C268 1.363 . S
N266 C268 1.356 . S
N266 H278 0.984 . S
N266 H279 0.985 . S
N267 C269 1.356 . S
N267 H272 0.984 . S
N267 H273 0.985 . S
C268 C262 1.379 . S
C268 C265 1.363 . S
C268 N266 1.356 . S
C269 C263 1.363 . S
C269 C264 1.379 . S
C269 N267 1.356 . S
N270 C262 1.356 . S
N270 H276 0.984 . S
N270 H277 0.984 . S
N271 C264 1.356 . S
N271 H274 0.984 . S
N271 H275 0.985 . S
H272 N267 0.984 . S
H273 N267 0.985 . S
H274 N271 0.984 . S
H275 N271 0.985 . S
H276 N270 0.984 . S
H277 N270 0.984 . S
H278 N266 0.984 . S
H279 N266 0.985 . S
C280 C281 1.363 . S
C280 C286 1.379 . S
C280 N288 1.356 . S
C281 C280 1.363 . S
C281 C287 1.363 . S
C282 C283 1.363 . S
C282 C287 1.379 . S
C282 N289 1.356 . S
C283 C282 1.363 . S
C283 C286 1.363 . S
N284 C286 1.356 . S
N284 H296 0.984 . S
N284 H297 0.985 . S
N285 C287 1.356 . S
N285 H290 0.984 . S
N285 H291 0.985 . S
C286 C280 1.379 . S
C286 C283 1.363 . S
C286 N284 1.356 . S
C287 C281 1.363 . S
C287 C282 1.379 . S
C287 N285 1.356 . S
N288 C280 1.356 . S
N288 H294 0.984 . S
N288 H295 0.984 . S
N289 C282 1.356 . S
N289 H292 0.984 . S
N289 H293 0.985 . S
H290 N285 0.984 . S
H291 N285 0.985 . S
H292 N289 0.984 . S
H293 N289 0.985 . S
H294 N288 0.984 . S
H295 N288 0.984 . S
H296 N284 0.984 . S
H297 N284 0.985 . S
C298 C299 1.363 . S
C298 C304 1.379 . S
C298 N306 1.356 . S
C299 C298 1.363 . S
C299 C305 1.363 . S
C300 C301 1.363 . S
C300 C305 1.379 . S
C300 N307 1.356 . S
C301 C300 1.363 . S
C301 C304 1.363 . S
N302 C304 1.356 . S
N302 H314 0.984 . S
N302 H315 0.985 . S
N303 C305 1.356 . S
N303 H308 0.984 . S
N303 H309 0.985 . S
C304 C298 1.379 . S
C304 C301 1.363 . S
C304 N302 1.356 . S
C305 C299 1.363 . S
C305 C300 1.379 . S
C305 N303 1.356 . S
N306 C298 1.356 . S
N306 H312 0.984 . S
N306 H313 0.984 . S
N307 C300 1.356 . S
N307 H310 0.984 . S
N307 H311 0.985 . S
H308 N303 0.984 . S
H309 N303 0.985 . S
H310 N307 0.984 . S
H311 N307 0.985 . S
H312 N306 0.984 . S
H313 N306 0.984 . S
H314 N302 0.984 . S
H315 N302 0.985 . S
C316 C317 1.363 . S
C316 C322 1.379 . S
C316 N324 1.356 . S
C317 C316 1.363 . S
C317 C323 1.363 . S
C318 C319 1.363 . S
C318 C323 1.379 . S
C318 N325 1.356 . S
C319 C318 1.363 . S
C319 C322 1.363 . S
N320 C322 1.356 . S
N320 H332 0.984 . S
N320 H333 0.985 . S
N321 C323 1.356 . S
N321 H326 0.984 . S
N321 H327 0.985 . S
C322 C316 1.379 . S
C322 C319 1.363 . S
C322 N320 1.356 . S
C323 C317 1.363 . S
C323 C318 1.379 . S
C323 N321 1.356 . S
N324 C316 1.356 . S
N324 H330 0.984 . S
N324 H331 0.984 . S
N325 C318 1.356 . S
N325 H328 0.984 . S
N325 H329 0.985 . S
H326 N321 0.984 . S
H327 N321 0.985 . S
H328 N325 0.984 . S
H329 N325 0.985 . S
H330 N324 0.984 . S
H331 N324 0.984 . S
H332 N320 0.984 . S
H333 N320 0.985 . S
C334 C335 1.363 . S
C334 C340 1.379 . S
C334 N342 1.356 . S
C335 C334 1.363 . S
C335 C341 1.363 . S
C336 C337 1.363 . S
C336 C341 1.379 . S
C336 N343 1.356 . S
C337 C336 1.363 . S
C337 C340 1.363 . S
N338 C340 1.356 . S
N338 H350 0.984 . S
N338 H351 0.985 . S
N339 C341 1.356 . S
N339 H344 0.984 . S
N339 H345 0.985 . S
C340 C334 1.379 . S
C340 C337 1.363 . S
C340 N338 1.356 . S
C341 C335 1.363 . S
C341 C336 1.379 . S
C341 N339 1.356 . S
N342 C334 1.356 . S
N342 H348 0.984 . S
N342 H349 0.984 . S
N343 C336 1.356 . S
N343 H346 0.984 . S
N343 H347 0.985 . S
H344 N339 0.984 . S
H345 N339 0.985 . S
H346 N343 0.984 . S
H347 N343 0.985 . S
H348 N342 0.984 . S
H349 N342 0.984 . S
H350 N338 0.984 . S
H351 N338 0.985 . S
C352 C353 1.363 . S
C352 C358 1.379 1_565 S
C352 N360 1.356 . S
C353 C352 1.363 . S
C353 C359 1.363 . S
C354 C355 1.363 1_565 S
C354 C359 1.379 . S
C354 N361 1.356 . S
C355 C354 1.363 1_545 S
C355 C358 1.363 . S
N356 C358 1.356 . S
N356 H368 0.984 . S
N356 H369 0.985 . S
N357 C359 1.356 . S
N357 H362 0.984 . S
N357 H363 0.985 . S
C358 C352 1.379 1_545 S
C358 C355 1.363 . S
C358 N356 1.356 . S
C359 C353 1.363 . S
C359 C354 1.379 . S
C359 N357 1.356 . S
N360 C352 1.356 . S
N360 H366 0.984 1_565 S
N360 H367 0.984 . S
N361 C354 1.356 . S
N361 H364 0.984 . S
N361 H365 0.985 . S
H362 N357 0.984 . S
H363 N357 0.985 . S
H364 N361 0.984 . S
H365 N361 0.985 . S
H366 N360 0.984 1_545 S
H367 N360 0.984 . S
H368 N356 0.984 . S
H369 N356 0.985 . S
C370 C371 1.363 . S
C370 C376 1.379 . S
C370 N378 1.356 . S
C371 C370 1.363 . S
C371 C377 1.363 . S
C372 C373 1.363 . S
C372 C377 1.379 . S
C372 N379 1.356 . S
C373 C372 1.363 . S
C373 C376 1.363 . S
N374 C376 1.356 . S
N374 H386 0.984 . S
N374 H387 0.985 . S
N375 C377 1.356 . S
N375 H380 0.984 . S
N375 H381 0.985 . S
C376 C370 1.379 . S
C376 C373 1.363 . S
C376 N374 1.356 . S
C377 C371 1.363 . S
C377 C372 1.379 . S
C377 N375 1.356 . S
N378 C370 1.356 . S
N378 H384 0.984 . S
N378 H385 0.984 . S
N379 C372 1.356 . S
N379 H382 0.984 . S
N379 H383 0.985 . S
H380 N375 0.984 . S
H381 N375 0.985 . S
H382 N379 0.984 . S
H383 N379 0.985 . S
H384 N378 0.984 . S
H385 N378 0.984 . S
H386 N374 0.984 . S
H387 N374 0.985 . S
C388 C389 1.363 . S
C388 C394 1.379 . S
C388 N396 1.356 . S
C389 C388 1.363 . S
C389 C395 1.363 . S
C390 C391 1.363 . S
C390 C395 1.379 1_554 S
C390 N397 1.356 . S
C391 C390 1.363 . S
C391 C394 1.363 1_554 S
N392 C394 1.356 . S
N392 H404 0.984 . S
N392 H405 0.985 1_556 S
N393 C395 1.356 . S
N393 H398 0.984 . S
N393 H399 0.985 . S
C394 C388 1.379 . S
C394 C391 1.363 1_556 S
C394 N392 1.356 . S
C395 C389 1.363 . S
C395 C390 1.379 1_556 S
C395 N393 1.356 . S
N396 C388 1.356 . S
N396 H402 0.984 . S
N396 H403 0.984 . S
N397 C390 1.356 . S
N397 H400 0.984 . S
N397 H401 0.985 . S
H398 N393 0.984 . S
H399 N393 0.985 . S
H400 N397 0.984 . S
H401 N397 0.985 . S
H402 N396 0.984 . S
H403 N396 0.984 . S
H404 N392 0.984 . S
H405 N392 0.985 1_554 S
C406 C407 1.363 1_556 S
C406 C412 1.379 . S
C406 N414 1.356 1_556 S
C407 C406 1.363 1_554 S
C407 C413 1.363 1_554 S
C408 C409 1.363 . S
C408 C413 1.379 . S
C408 N415 1.356 . S
C409 C408 1.363 . S
C409 C412 1.363 . S
N410 C412 1.356 . S
N410 H422 0.984 . S
N410 H423 0.985 . S
N411 C413 1.356 1_554 S
N411 H416 0.984 . S
N411 H417 0.985 . S
C412 C406 1.379 . S
C412 C409 1.363 . S
C412 N410 1.356 . S
C413 C407 1.363 1_556 S
C413 C408 1.379 . S
C413 N411 1.356 1_556 S
N414 C406 1.356 1_554 S
N414 H420 0.984 . S
N414 H421 0.984 . S
N415 C408 1.356 . S
N415 H418 0.984 . S
N415 H419 0.985 . S
H416 N411 0.984 . S
H417 N411 0.985 . S
H418 N415 0.984 . S
H419 N415 0.985 . S
H420 N414 0.984 . S
H421 N414 0.984 . S
H422 N410 0.984 . S
H423 N410 0.985 . S
C424 C425 1.363 . S
C424 C430 1.379 . S
C424 N432 1.356 . S
C425 C424 1.363 . S
C425 C431 1.363 . S
C426 C427 1.363 . S
C426 C431 1.379 . S
C426 N433 1.356 . S
C427 C426 1.363 . S
C427 C430 1.363 . S
N428 C430 1.356 . S
N428 H440 0.984 . S
N428 H441 0.985 . S
N429 C431 1.356 . S
N429 H434 0.984 . S
N429 H435 0.985 . S
C430 C424 1.379 . S
C430 C427 1.363 . S
C430 N428 1.356 . S
C431 C425 1.363 . S
C431 C426 1.379 . S
C431 N429 1.356 . S
N432 C424 1.356 . S
N432 H438 0.984 . S
N432 H439 0.984 . S
N433 C426 1.356 . S
N433 H436 0.984 . S
N433 H437 0.985 . S
H434 N429 0.984 . S
H435 N429 0.985 . S
H436 N433 0.984 . S
H437 N433 0.985 . S
H438 N432 0.984 . S
H439 N432 0.984 . S
H440 N428 0.984 . S
H441 N428 0.985 . S
C442 C443 1.363 . S
C442 C448 1.379 . S
C442 N450 1.356 . S
C443 C442 1.363 . S
C443 C449 1.363 . S
C444 C445 1.363 . S
C444 C449 1.379 . S
C444 N451 1.356 . S
C445 C444 1.363 . S
C445 C448 1.363 . S
N446 C448 1.356 . S
N446 H458 0.984 . S
N446 H459 0.985 . S
N447 C449 1.356 . S
N447 H452 0.984 . S
N447 H453 0.985 . S
C448 C442 1.379 . S
C448 C445 1.363 . S
C448 N446 1.356 . S
C449 C443 1.363 . S
C449 C444 1.379 . S
C449 N447 1.356 . S
N450 C442 1.356 . S
N450 H456 0.984 . S
N450 H457 0.984 . S
N451 C444 1.356 . S
N451 H454 0.984 . S
N451 H455 0.985 . S
H452 N447 0.984 . S
H453 N447 0.985 . S
H454 N451 0.984 . S
H455 N451 0.985 . S
H456 N450 0.984 . S
H457 N450 0.984 . S
H458 N446 0.984 . S
H459 N446 0.985 . S
C460 C461 1.363 . S
C460 C466 1.379 . S
C460 N468 1.356 . S
C461 C460 1.363 . S
C461 C467 1.363 1_655 S
C462 C463 1.363 . S
C462 C467 1.379 . S
C462 N469 1.356 . S
C463 C462 1.363 . S
C463 C466 1.363 1_455 S
N464 C466 1.356 . S
N464 H476 0.984 . S
N464 H477 0.985 1_655 S
N465 C467 1.356 . S
N465 H470 0.984 1_455 S
N465 H471 0.985 . S
C466 C460 1.379 . S
C466 C463 1.363 1_655 S
C466 N464 1.356 . S
C467 C461 1.363 1_455 S
C467 C462 1.379 . S
C467 N465 1.356 . S
N468 C460 1.356 . S
N468 H474 0.984 . S
N468 H475 0.984 . S
N469 C462 1.356 . S
N469 H472 0.984 . S
N469 H473 0.985 . S
H470 N465 0.984 1_655 S
H471 N465 0.985 . S
H472 N469 0.984 . S
H473 N469 0.985 . S
H474 N468 0.984 . S
H475 N468 0.984 . S
H476 N464 0.984 . S
H477 N464 0.985 1_455 S
C478 C479 1.363 . S
C478 C484 1.379 1_655 S
C478 N486 1.356 . S
C479 C478 1.363 . S
C479 C485 1.363 . S
C480 C481 1.363 . S
C480 C485 1.379 1_455 S
C480 N487 1.356 . S
C481 C480 1.363 . S
C481 C484 1.363 . S
N482 C484 1.356 . S
N482 H494 0.984 . S
N482 H495 0.985 . S
N483 C485 1.356 . S
N483 H488 0.984 . S
N483 H489 0.985 . S
C484 C478 1.379 1_455 S
C484 C481 1.363 . S
C484 N482 1.356 . S
C485 C479 1.363 . S
C485 C480 1.379 1_655 S
C485 N483 1.356 . S
N486 C478 1.356 . S
N486 H492 0.984 . S
N486 H493 0.984 . S
N487 C480 1.356 . S
N487 H490 0.984 . S
N487 H491 0.985 . S
H488 N483 0.984 . S
H489 N483 0.985 . S
H490 N487 0.984 . S
H491 N487 0.985 . S
H492 N486 0.984 . S
H493 N486 0.984 . S
H494 N482 0.984 . S
H495 N482 0.985 . S
C496 C497 1.363 . S
C496 C502 1.379 . S
C496 N504 1.356 . S
C497 C496 1.363 . S
C497 C503 1.363 . S
C498 C499 1.363 . S
C498 C503 1.379 . S
C498 N505 1.356 . S
C499 C498 1.363 . S
C499 C502 1.363 . S
N500 C502 1.356 . S
N500 H512 0.984 . S
N500 H513 0.985 . S
N501 C503 1.356 . S
N501 H506 0.984 . S
N501 H507 0.985 . S
C502 C496 1.379 . S
C502 C499 1.363 . S
C502 N500 1.356 . S
C503 C497 1.363 . S
C503 C498 1.379 . S
C503 N501 1.356 . S
N504 C496 1.356 . S
N504 H510 0.984 . S
N504 H511 0.984 . S
N505 C498 1.356 . S
N505 H508 0.984 . S
N505 H509 0.985 . S
H506 N501 0.984 . S
H507 N501 0.985 . S
H508 N505 0.984 . S
H509 N505 0.985 . S
H510 N504 0.984 . S
H511 N504 0.984 . S
H512 N500 0.984 . S
H513 N500 0.985 . S
C514 C515 1.363 1_565 S
C514 C520 1.379 . S
C514 N522 1.356 . S
C515 C514 1.363 1_545 S
C515 C521 1.363 . S
C516 C517 1.363 1_545 S
C516 C521 1.379 . S
C516 N523 1.356 . S
C517 C516 1.363 1_565 S
C517 C520 1.363 . S
N518 C520 1.356 . S
N518 H530 0.984 . S
N518 H531 0.985 . S
N519 C521 1.356 . S
N519 H524 0.984 . S
N519 H525 0.985 . S
C520 C514 1.379 . S
C520 C517 1.363 . S
C520 N518 1.356 . S
C521 C515 1.363 . S
C521 C516 1.379 . S
C521 N519 1.356 . S
N522 C514 1.356 . S
N522 H528 0.984 . S
N522 H529 0.984 1_565 S
N523 C516 1.356 . S
N523 H526 0.984 1_545 S
N523 H527 0.985 . S
H524 N519 0.984 . S
H525 N519 0.985 . S
H526 N523 0.984 1_565 S
H527 N523 0.985 . S
H528 N522 0.984 . S
H529 N522 0.984 1_545 S
H530 N518 0.984 . S
H531 N518 0.985 . S
C532 C533 1.363 . S
C532 C538 1.379 . S
C532 N540 1.356 . S
C533 C532 1.363 . S
C533 C539 1.363 . S
C534 C535 1.363 . S
C534 C539 1.379 . S
C534 N541 1.356 . S
C535 C534 1.363 . S
C535 C538 1.363 . S
N536 C538 1.356 . S
N536 H548 0.984 . S
N536 H549 0.985 . S
N537 C539 1.356 . S
N537 H542 0.984 . S
N537 H543 0.985 . S
C538 C532 1.379 . S
C538 C535 1.363 . S
C538 N536 1.356 . S
C539 C533 1.363 . S
C539 C534 1.379 . S
C539 N537 1.356 . S
N540 C532 1.356 . S
N540 H546 0.984 . S
N540 H547 0.984 . S
N541 C534 1.356 . S
N541 H544 0.984 . S
N541 H545 0.985 . S
H542 N537 0.984 . S
H543 N537 0.985 . S
H544 N541 0.984 . S
H545 N541 0.985 . S
H546 N540 0.984 . S
H547 N540 0.984 . S
H548 N536 0.984 . S
H549 N536 0.985 . S
C550 C551 1.363 . S
C550 C556 1.379 1_554 S
C550 N558 1.356 . S
C551 C550 1.363 . S
C551 C557 1.363 . S
C552 C553 1.363 1_554 S
C552 C557 1.379 . S
C552 N559 1.355 1_554 S
C553 C552 1.363 1_556 S
C553 C556 1.363 . S
N554 C556 1.356 . S
N554 H566 0.984 . S
N554 H567 0.985 . S
N555 C557 1.356 . S
N555 H560 0.984 . S
N555 H561 0.985 . S
C556 C550 1.379 1_556 S
C556 C553 1.363 . S
C556 N554 1.356 . S
C557 C551 1.363 . S
C557 C552 1.379 . S
C557 N555 1.356 . S
N558 C550 1.356 . S
N558 H564 0.984 . S
N558 H565 0.984 . S
N559 C552 1.355 1_556 S
N559 H562 0.989 . S
N559 H563 0.982 1_556 S
H560 N555 0.984 . S
H561 N555 0.985 . S
H562 N559 0.989 . S
H563 N559 0.982 1_554 S
H564 N558 0.984 . S
H565 N558 0.984 . S
H566 N554 0.984 . S
H567 N554 0.985 . S
C568 C569 1.363 . S
C568 C574 1.379 1_556 S
C568 N576 1.356 . S
C569 C568 1.363 . S
C569 C575 1.363 1_556 S
C570 C571 1.363 . S
C570 C575 1.379 . S
C570 N577 1.356 . S
C571 C570 1.363 . S
C571 C574 1.363 . S
N572 C574 1.356 . S
N572 H584 0.984 . S
N572 H585 0.985 . S
N573 C575 1.363 . S
N573 H578 0.966 1_554 S
N573 H579 0.997 . S
C574 C568 1.379 1_554 S
C574 C571 1.363 . S
C574 N572 1.356 . S
C575 C569 1.363 1_554 S
C575 C570 1.379 . S
C575 N573 1.363 . S
N576 C568 1.356 . S
N576 H582 0.984 . S
N576 H583 0.984 . S
N577 C570 1.356 . S
N577 H580 0.984 . S
N577 H581 0.985 . S
H578 N573 0.966 1_556 S
H579 N573 0.997 . S
H580 N577 0.984 . S
H581 N577 0.985 . S
H582 N576 0.984 . S
H583 N576 0.984 . S
H584 N572 0.984 . S
H585 N572 0.985 . S
C586 C587 1.363 . S
C586 C592 1.379 . S
C586 N594 1.356 . S
C587 C586 1.363 . S
C587 C593 1.363 . S
C588 C589 1.363 . S
C588 C593 1.379 . S
C588 N595 1.356 . S
C589 C588 1.363 . S
C589 C592 1.363 . S
N590 C592 1.356 . S
N590 H602 0.984 . S
N590 H603 0.985 . S
N591 C593 1.356 . S
N591 H596 0.984 . S
N591 H597 0.985 . S
C592 C586 1.379 . S
C592 C589 1.363 . S
C592 N590 1.356 . S
C593 C587 1.363 . S
C593 C588 1.379 . S
C593 N591 1.356 . S
N594 C586 1.356 . S
N594 H600 0.984 . S
N594 H601 0.984 . S
N595 C588 1.356 . S
N595 H598 0.984 . S
N595 H599 0.985 . S
H596 N591 0.984 . S
H597 N591 0.985 . S
H598 N595 0.984 . S
H599 N595 0.985 . S
H600 N594 0.984 . S
H601 N594 0.984 . S
H602 N590 0.984 . S
H603 N590 0.985 . S
C604 C605 1.363 . S
C604 C610 1.379 . S
C604 N612 1.356 . S
C605 C604 1.363 . S
C605 C611 1.363 . S
C606 C607 1.363 . S
C606 C611 1.379 . S
C606 N613 1.356 . S
C607 C606 1.363 . S
C607 C610 1.363 . S
N608 C610 1.356 . S
N608 H620 0.984 . S
N608 H621 0.985 . S
N609 C611 1.356 . S
N609 H614 0.984 . S
N609 H615 0.985 . S
C610 C604 1.379 . S
C610 C607 1.363 . S
C610 N608 1.356 . S
C611 C605 1.363 . S
C611 C606 1.379 . S
C611 N609 1.356 . S
N612 C604 1.356 . S
N612 H618 0.984 . S
N612 H619 0.984 . S
N613 C606 1.356 . S
N613 H616 0.984 . S
N613 H617 0.985 . S
H614 N609 0.984 . S
H615 N609 0.985 . S
H616 N613 0.984 . S
H617 N613 0.985 . S
H618 N612 0.984 . S
H619 N612 0.984 . S
H620 N608 0.984 . S
H621 N608 0.985 . S
C622 C623 1.363 . S
C622 C628 1.379 1_455 S
C622 N630 1.356 . S
C623 C622 1.363 . S
C623 C629 1.363 . S
C624 C625 1.363 . S
C624 C629 1.379 1_655 S
C624 N631 1.356 . S
C625 C624 1.363 . S
C625 C628 1.363 . S
N626 C628 1.356 . S
N626 H638 0.984 . S
N626 H639 0.985 . S
N627 C629 1.356 . S
N627 H632 0.984 . S
N627 H633 0.985 . S
C628 C622 1.379 1_655 S
C628 C625 1.363 . S
C628 N626 1.356 . S
C629 C623 1.363 . S
C629 C624 1.379 1_455 S
C629 N627 1.356 . S
N630 C622 1.356 . S
N630 H636 0.984 . S
N630 H637 0.984 . S
N631 C624 1.356 . S
N631 H634 0.984 . S
N631 H635 0.985 . S
H632 N627 0.984 . S
H633 N627 0.985 . S
H634 N631 0.984 . S
H635 N631 0.985 . S
H636 N630 0.984 . S
H637 N630 0.984 . S
H638 N626 0.984 . S
H639 N626 0.985 . S
C640 C641 1.363 . S
C640 C646 1.379 1_455 S
C640 N648 1.356 . S
C641 C640 1.363 . S
C641 C647 1.363 . S
C642 C643 1.363 . S
C642 C647 1.379 1_655 S
C642 N649 1.356 . S
C643 C642 1.363 . S
C643 C646 1.363 . S
N644 C646 1.356 . S
N644 H656 0.984 . S
N644 H657 0.985 . S
N645 C647 1.356 . S
N645 H650 0.984 . S
N645 H651 0.985 . S
C646 C640 1.379 1_655 S
C646 C643 1.363 . S
C646 N644 1.356 . S
C647 C641 1.363 . S
C647 C642 1.379 1_455 S
C647 N645 1.356 . S
N648 C640 1.356 . S
N648 H654 0.984 . S
N648 H655 0.984 . S
N649 C642 1.356 . S
N649 H652 0.984 . S
N649 H653 0.985 . S
H650 N645 0.984 . S
H651 N645 0.985 . S
H652 N649 0.984 . S
H653 N649 0.985 . S
H654 N648 0.984 . S
H655 N648 0.984 . S
H656 N644 0.984 . S
H657 N644 0.985 . S
C658 C659 1.363 . S
C658 C664 1.379 . S
C658 N666 1.356 . S
C659 C658 1.363 . S
C659 C665 1.363 . S
C660 C661 1.363 . S
C660 C665 1.379 . S
C660 N667 1.356 . S
C661 C660 1.363 . S
C661 C664 1.363 . S
N662 C664 1.356 . S
N662 H674 0.984 . S
N662 H675 0.985 . S
N663 C665 1.356 . S
N663 H668 0.984 . S
N663 H669 0.985 . S
C664 C658 1.379 . S
C664 C661 1.363 . S
C664 N662 1.356 . S
C665 C659 1.363 . S
C665 C660 1.379 . S
C665 N663 1.356 . S
N666 C658 1.356 . S
N666 H672 0.984 . S
N666 H673 0.984 . S
N667 C660 1.356 . S
N667 H670 0.984 . S
N667 H671 0.985 . S
H668 N663 0.984 . S
H669 N663 0.985 . S
H670 N667 0.984 . S
H671 N667 0.985 . S
H672 N666 0.984 . S
H673 N666 0.984 . S
H674 N662 0.984 . S
H675 N662 0.985 . S
C676 C677 1.363 . S
C676 C682 1.379 . S
C676 N684 1.356 . S
C677 C676 1.363 . S
C677 C683 1.363 . S
C678 C679 1.363 . S
C678 C683 1.379 . S
C678 N685 1.356 . S
C679 C678 1.363 . S
C679 C682 1.363 . S
N680 C682 1.356 . S
N680 H692 0.984 . S
N680 H693 0.985 . S
N681 C683 1.356 . S
N681 H686 0.984 . S
N681 H687 0.985 . S
C682 C676 1.379 . S
C682 C679 1.363 . S
C682 N680 1.356 . S
C683 C677 1.363 . S
C683 C678 1.379 . S
C683 N681 1.356 . S
N684 C676 1.356 . S
N684 H690 0.984 . S
N684 H691 0.984 . S
N685 C678 1.356 . S
N685 H688 0.984 . S
N685 H689 0.985 . S
H686 N681 0.984 . S
H687 N681 0.985 . S
H688 N685 0.984 . S
H689 N685 0.985 . S
H690 N684 0.984 . S
H691 N684 0.984 . S
H692 N680 0.984 . S
H693 N680 0.985 . S
C694 C695 1.363 . S
C694 C700 1.379 . S
C694 N702 1.356 . S
C695 C694 1.363 . S
C695 C701 1.363 . S
C696 C697 1.363 1_545 S
C696 C701 1.379 . S
C696 N703 1.356 . S
C697 C696 1.363 1_565 S
C697 C700 1.363 1_565 S
N698 C700 1.356 1_565 S
N698 H710 0.984 . S
N698 H711 0.985 . S
N699 C701 1.356 . S
N699 H704 0.984 . S
N699 H705 0.985 . S
C700 C694 1.379 . S
C700 C697 1.363 1_545 S
C700 N698 1.356 1_545 S
C701 C695 1.363 . S
C701 C696 1.379 . S
C701 N699 1.356 . S
N702 C694 1.356 . S
N702 H708 0.984 . S
N702 H709 0.984 . S
N703 C696 1.356 . S
N703 H706 0.984 1_545 S
N703 H707 0.985 . S
H704 N699 0.984 . S
H705 N699 0.985 . S
H706 N703 0.984 1_565 S
H707 N703 0.985 . S
H708 N702 0.984 . S
H709 N702 0.984 . S
H710 N698 0.984 . S
H711 N698 0.985 . S
C712 C713 1.363 . S
C712 C718 1.379 . S
C712 N720 1.356 . S
C713 C712 1.363 . S
C713 C719 1.363 . S
C714 C715 1.363 . S
C714 C719 1.379 . S
C714 N721 1.356 . S
C715 C714 1.363 . S
C715 C718 1.363 . S
N716 C718 1.356 . S
N716 H728 0.984 . S
N716 H729 0.985 . S
N717 C719 1.356 . S
N717 H722 0.984 . S
N717 H723 0.985 . S
C718 C712 1.379 . S
C718 C715 1.363 . S
C718 N716 1.356 . S
C719 C713 1.363 . S
C719 C714 1.379 . S
C719 N717 1.356 . S
N720 C712 1.356 . S
N720 H726 0.984 . S
N720 H727 0.984 . S
N721 C714 1.356 . S
N721 H724 0.984 . S
N721 H725 0.985 . S
H722 N717 0.984 . S
H723 N717 0.985 . S
H724 N721 0.984 . S
H725 N721 0.985 . S
H726 N720 0.984 . S
H727 N720 0.984 . S
H728 N716 0.984 . S
H729 N716 0.985 . S
C730 C731 1.363 . S
C730 C736 1.379 . S
C730 N738 1.356 . S
C731 C730 1.363 . S
C731 C737 1.363 . S
C732 C733 1.363 . S
C732 C737 1.379 . S
C732 N739 1.356 . S
C733 C732 1.363 . S
C733 C736 1.363 . S
N734 C736 1.356 . S
N734 H746 0.984 . S
N734 H747 0.985 . S
N735 C737 1.356 . S
N735 H740 0.984 . S
N735 H741 0.985 . S
C736 C730 1.379 . S
C736 C733 1.363 . S
C736 N734 1.356 . S
C737 C731 1.363 . S
C737 C732 1.379 . S
C737 N735 1.356 . S
N738 C730 1.356 . S
N738 H744 0.984 . S
N738 H745 0.984 . S
N739 C732 1.356 . S
N739 H742 0.984 . S
N739 H743 0.985 . S
H740 N735 0.984 . S
H741 N735 0.985 . S
H742 N739 0.984 . S
H743 N739 0.985 . S
H744 N738 0.984 . S
H745 N738 0.984 . S
H746 N734 0.984 . S
H747 N734 0.985 . S
C748 C749 1.363 . S
C748 C754 1.379 . S
C748 N756 1.356 . S
C749 C748 1.363 . S
C749 C755 1.363 1_545 S
C750 C751 1.363 . S
C750 C755 1.379 . S
C750 N757 1.356 . S
C751 C750 1.363 . S
C751 C754 1.363 1_565 S
N752 C754 1.353 1_565 S
N752 H764 0.981 1_565 S
N752 H765 0.992 . S
N753 C755 1.356 1_545 S
N753 H758 0.984 . S
N753 H759 0.985 1_545 S
C754 C748 1.379 . S
C754 C751 1.363 1_545 S
C754 N752 1.353 1_545 S
C755 C749 1.363 1_565 S
C755 C750 1.379 . S
C755 N753 1.356 1_565 S
N756 C748 1.356 . S
N756 H762 0.984 . S
N756 H763 0.984 . S
N757 C750 1.356 . S
N757 H760 0.984 . S
N757 H761 0.985 . S
H758 N753 0.984 . S
H759 N753 0.985 1_565 S
H760 N757 0.984 . S
H761 N757 0.985 . S
H762 N756 0.984 . S
H763 N756 0.984 . S
H764 N752 0.981 1_545 S
H765 N752 0.992 . S
C766 C767 1.363 . S
C766 C772 1.379 . S
C766 N774 1.356 . S
C767 C766 1.363 . S
C767 C773 1.363 . S
C768 C769 1.363 . S
C768 C773 1.379 . S
C768 N775 1.356 . S
C769 C768 1.363 . S
C769 C772 1.363 . S
N770 C772 1.356 . S
N770 H782 0.984 . S
N770 H783 0.985 . S
N771 C773 1.356 . S
N771 H776 0.984 . S
N771 H777 0.985 . S
C772 C766 1.379 . S
C772 C769 1.363 . S
C772 N770 1.356 . S
C773 C767 1.363 . S
C773 C768 1.379 . S
C773 N771 1.356 . S
N774 C766 1.356 . S
N774 H780 0.984 . S
N774 H781 0.984 . S
N775 C768 1.356 . S
N775 H778 0.984 . S
N775 H779 0.985 . S
H776 N771 0.984 . S
H777 N771 0.985 . S
H778 N775 0.984 . S
H779 N775 0.985 . S
H780 N774 0.984 . S
H781 N774 0.984 . S
H782 N770 0.984 . S
H783 N770 0.985 . S
C209 C3 1.333 . S
C211 C172 1.316 . S
C227 C18 1.333 . S
C229 C122 1.316 . S
C245 C185 1.120 . S
C247 C29 1.128 . S
C263 C42 1.128 . S
C265 C200 1.120 . S
C281 C57 1.333 . S
C283 C81 1.316 . S
C299 C135 1.333 . S
C301 C70 1.316 . S
C317 C146 1.128 . S
C319 C94 1.120 . S
C335 C109 1.120 . S
C337 C159 1.128 . S
C353 C30 1.788 . S
C355 C5 1.765 . S
C371 C16 1.765 . S
C373 C43 1.788 . S
C389 C161 1.666 . S
C391 C10 1.626 . S
C407 C17 1.626 . S
C409 C148 1.666 . S
C425 C56 1.626 . S
C427 C31 1.666 . S
C443 C134 1.626 . S
C445 C44 1.666 . S
C461 C23 1.980 . S
C463 C4 1.980 . S
C479 C49 1.210 . S
C481 C36 1.210 . S
C497 C140 1.980 . S
C499 C62 1.980 . S
C515 C96 1.637 . S
C517 C75 1.602 . S
C533 C82 1.602 . S
C535 C107 1.637 . S
C551 C205 1.718 . S
C553 C69 1.699 . S
C569 C88 1.699 . S
C571 C186 1.718 . S
C587 C121 1.699 . S
C589 C95 1.718 . S
C605 C114 1.718 . S
C607 C179 1.699 . S
C623 C83 1.967 . S
C625 C68 1.967 . S
C641 C108 1.318 . S
C643 C101 1.318 . S
C659 C120 1.967 . S
C661 C174 1.967 . S
C677 C133 1.765 . S
C679 C147 1.788 . S
C695 C160 1.788 . S
C697 C55 1.765 . S
C713 C166 1.210 . S
C715 C153 1.210 . S
C731 C187 1.637 . S
C733 C173 1.602 . S
C749 C127 1.602 . S
C751 C198 1.637 . S
C767 C199 1.318 . S
C769 C192 1.318 . S
