# Generated by pormake.
# Topology mdf, (4)-cn, num edge types: 1
# Building blocks:
#     Node 0, Type 0, BuildingBlock: UXUYUI_clean_sbu_0, # of connection points: 4
#     Node 1, Type 0, BuildingBlock: UXUYUI_clean_sbu_0, # of connection points: 4
#     Node 2, Type 0, BuildingBlock: UXUYUI_clean_sbu_0, # of connection points: 4
#     Node 3, Type 0, BuildingBlock: UXUYUI_clean_sbu_0, # of connection points: 4
#     Node 4, Type 0, BuildingBlock: UXUYUI_clean_sbu_0, # of connection points: 4
#     Node 5, Type 0, BuildingBlock: UXUYUI_clean_sbu_0, # of connection points: 4
#     Node 6, Type 0, BuildingBlock: UXUYUI_clean_sbu_0, # of connection points: 4
#     Node 7, Type 0, BuildingBlock: UXUYUI_clean_sbu_0, # of connection points: 4
#     Edge 8, Type (0, 0), BuildingBlock: UVAHIK_clean_linker_0, # of connection points: 2
#     Edge 9, Type (0, 0), BuildingBlock: UVAHIK_clean_linker_0, # of connection points: 2
#     Edge 10, Type (0, 0), BuildingBlock: UVAHIK_clean_linker_0, # of connection points: 2
#     Edge 11, Type (0, 0), BuildingBlock: UVAHIK_clean_linker_0, # of connection points: 2
#     Edge 12, Type (0, 0), BuildingBlock: UVAHIK_clean_linker_0, # of connection points: 2
#     Edge 13, Type (0, 0), BuildingBlock: UVAHIK_clean_linker_0, # of connection points: 2
#     Edge 14, Type (0, 0), BuildingBlock: UVAHIK_clean_linker_0, # of connection points: 2
#     Edge 15, Type (0, 0), BuildingBlock: UVAHIK_clean_linker_0, # of connection points: 2
#     Edge 16, Type (0, 0), BuildingBlock: UVAHIK_clean_linker_0, # of connection points: 2
#     Edge 17, Type (0, 0), BuildingBlock: UVAHIK_clean_linker_0, # of connection points: 2
#     Edge 18, Type (0, 0), BuildingBlock: UVAHIK_clean_linker_0, # of connection points: 2
#     Edge 19, Type (0, 0), BuildingBlock: UVAHIK_clean_linker_0, # of connection points: 2
#     Edge 20, Type (0, 0), BuildingBlock: UVAHIK_clean_linker_0, # of connection points: 2
#     Edge 21, Type (0, 0), BuildingBlock: UVAHIK_clean_linker_0, # of connection points: 2
#     Edge 22, Type (0, 0), BuildingBlock: UVAHIK_clean_linker_0, # of connection points: 2
#     Edge 23, Type (0, 0), BuildingBlock: UVAHIK_clean_linker_0, # of connection points: 2
# Relax obj value: 0.090
# Max RMSD: 0.078
# Mean RMSD: 0.078
data_MOF--net-mdf--node1-UXUYUI_clean_sbu_0--edge1-UVAHIK_clean_linker_0
_symmetry_space_group_name_H-M    P1
_symmetry_Int_Tables_number       1
_symmetry_cell_setting            triclinic
loop_
_symmetry_equiv_pos_as_xyz
'x, y, z'
_cell_length_a     60.304063
_cell_length_b     60.30884
_cell_length_c     27.452186
_cell_angle_alpha  90.006092
_cell_angle_beta   90.009008
_cell_angle_gamma 89.973843
loop_
_atom_site_label
_atom_site_type_symbol
_atom_site_fract_x
_atom_site_fract_y
_atom_site_fract_z
_atom_type_partial_charge
Li0 Li 0.24219 0.56615 0.41474 0.0
Li1 Li 0.23056 0.53656 0.3596 0.0
Li2 Li 0.26837 0.53785 0.39231 0.0
Li3 Li 0.25592 0.56437 0.33103 0.0
C4 C 0.22993 0.53346 0.4718 0.0
N5 N 0.20802 0.53498 0.56011 0.0
C6 C 0.20709 0.5296 0.47392 0.0
C7 C 0.24164 0.53795 0.51462 0.0
C8 C 0.19632 0.53046 0.51893 0.0
C9 C 0.23025 0.53871 0.55889 0.0
C10 C 0.21903 0.58609 0.32515 0.0
C11 C 0.20815 0.60118 0.24737 0.0
N12 N 0.20955 0.62199 0.26622 0.0
C13 C 0.22036 0.60762 0.34376 0.0
C14 C 0.21285 0.5828 0.2766 0.0
C15 C 0.21548 0.62555 0.31338 0.0
C16 C 0.24535 0.59634 0.49518 0.0
N17 N 0.23148 0.58488 0.46538 0.0
C18 C 0.19984 0.59819 0.50878 0.0
C19 C 0.20912 0.5858 0.47106 0.0
C20 C 0.2137 0.60999 0.54077 0.0
C21 C 0.23677 0.60906 0.53337 0.0
H22 H 0.26305 0.59554 0.48948 0.0
H23 H 0.1985 0.57657 0.44662 0.0
C24 C 0.20856 0.49557 0.35798 0.0
N25 N 0.20687 0.51707 0.34359 0.0
C26 C 0.19189 0.48043 0.34643 0.0
C27 C 0.17176 0.50996 0.30645 0.0
C28 C 0.18889 0.52452 0.31866 0.0
C29 C 0.17316 0.48754 0.32023 0.0
H30 H 0.223 0.49018 0.37813 0.0
H31 H 0.18782 0.54178 0.30835 0.0
C32 C 0.29451 0.57213 0.40447 0.0
N33 N 0.33886 0.57338 0.42964 0.0
C34 C 0.31058 0.57648 0.36906 0.0
C35 C 0.30098 0.56849 0.45271 0.0
C36 C 0.33292 0.57705 0.38253 0.0
C37 C 0.32349 0.56915 0.46469 0.0
C38 C 0.25447 0.51312 0.29913 0.0
C39 C 0.26327 0.49285 0.31456 0.0
C40 C 0.24023 0.51369 0.25892 0.0
C41 C 0.25763 0.47348 0.28954 0.0
C42 C 0.23495 0.49395 0.23497 0.0
N43 N 0.2437 0.47442 0.25064 0.0
C44 C 0.29121 0.50724 0.45285 0.0
C45 C 0.31106 0.5194 0.38331 0.0
C46 C 0.30859 0.49311 0.46585 0.0
N47 N 0.29277 0.51999 0.4122 0.0
C48 C 0.32889 0.50566 0.39514 0.0
C49 C 0.32774 0.49208 0.43668 0.0
H50 H 0.27627 0.50765 0.47455 0.0
H51 H 0.31164 0.52939 0.35064 0.0
C52 C 0.27116 0.60297 0.28206 0.0
N53 N 0.26528 0.58137 0.27622 0.0
C54 C 0.27898 0.61524 0.24244 0.0
C55 C 0.27404 0.58294 0.19148 0.0
C56 C 0.26652 0.57128 0.23209 0.0
C57 C 0.2807 0.60517 0.19637 0.0
H58 H 0.27016 0.61052 0.31775 0.0
H59 H 0.2619 0.55409 0.22847 0.0
O60 O 0.24069 0.53324 0.42794 0.0
O61 O 0.22431 0.56835 0.35393 0.0
O62 O 0.27257 0.57119 0.39189 0.0
O63 O 0.25947 0.53224 0.32368 0.0
H64 H 0.19773 0.52626 0.44114 0.0
H65 H 0.25929 0.5411 0.5136 0.0
H66 H 0.17863 0.52762 0.52109 0.0
H67 H 0.23908 0.54233 0.59226 0.0
H68 H 0.2035 0.5989 0.20965 0.0
H69 H 0.22532 0.61048 0.3811 0.0
H70 H 0.21205 0.56627 0.26141 0.0
H71 H 0.21651 0.64231 0.32724 0.0
H72 H 0.18201 0.59812 0.51339 0.0
H73 H 0.24806 0.61815 0.55664 0.0
H74 H 0.19382 0.46329 0.35731 0.0
H75 H 0.15747 0.51625 0.28696 0.0
H76 H 0.30591 0.57914 0.33149 0.0
H77 H 0.2888 0.56487 0.48048 0.0
H78 H 0.34554 0.58031 0.35547 0.0
H79 H 0.32874 0.56622 0.50181 0.0
H80 H 0.27418 0.492 0.34573 0.0
H81 H 0.23291 0.52914 0.24699 0.0
H82 H 0.26427 0.45768 0.30119 0.0
H83 H 0.22381 0.49413 0.2041 0.0
H84 H 0.30673 0.48265 0.49764 0.0
H85 H 0.34337 0.50564 0.37182 0.0
H86 H 0.28417 0.63222 0.24818 0.0
H87 H 0.27467 0.57455 0.15664 0.0
Li88 Li 0.43353 0.7401 0.66657 0.0
Li89 Li 0.46097 0.72985 0.60423 0.0
Li90 Li 0.46155 0.76807 0.64205 0.0
Li91 Li 0.43321 0.75706 0.58314 0.0
C92 C 0.47554 0.73351 0.71678 0.0
N93 N 0.49479 0.72318 0.80536 0.0
C94 C 0.48416 0.71231 0.72501 0.0
C95 C 0.47711 0.74957 0.75334 0.0
C96 C 0.49369 0.70737 0.77011 0.0
C97 C 0.4868 0.744 0.79792 0.0
C98 C 0.42535 0.70473 0.58465 0.0
C99 C 0.42784 0.67828 0.51895 0.0
N100 N 0.4204 0.66211 0.54935 0.0
C101 C 0.41757 0.68788 0.61514 0.0
C102 C 0.43037 0.69995 0.53606 0.0
C103 C 0.41523 0.66643 0.59663 0.0
C104 C 0.39584 0.73778 0.72841 0.0
N105 N 0.41606 0.7288 0.71885 0.0
C106 C 0.41143 0.70238 0.78285 0.0
C107 C 0.4239 0.71133 0.74489 0.0
C108 C 0.39048 0.7113 0.79384 0.0
C109 C 0.38274 0.72931 0.76608 0.0
H110 H 0.3898 0.75141 0.70652 0.0
H111 H 0.43969 0.70405 0.73569 0.0
C112 C 0.4962 0.71142 0.55026 0.0
N113 N 0.47966 0.70644 0.58205 0.0
C114 C 0.51106 0.69503 0.53521 0.0
C115 C 0.49144 0.66862 0.58542 0.0
C116 C 0.47707 0.68556 0.59977 0.0
C117 C 0.50889 0.67327 0.55303 0.0
H118 H 0.49813 0.72824 0.53736 0.0
H119 H 0.46404 0.6821 0.62567 0.0
C120 C 0.42233 0.78786 0.67959 0.0
N121 N 0.4093 0.82036 0.74458 0.0
C122 C 0.4118 0.80705 0.6628 0.0
C123 C 0.42593 0.78507 0.72949 0.0
C124 C 0.40543 0.82333 0.69621 0.0
C125 C 0.4193 0.80171 0.76175 0.0
C126 C 0.46759 0.7699 0.52956 0.0
C127 C 0.47213 0.79262 0.52849 0.0
C128 C 0.46456 0.75837 0.48591 0.0
C129 C 0.4732 0.80352 0.48365 0.0
C130 C 0.46572 0.76988 0.44182 0.0
N131 N 0.46996 0.79203 0.44161 0.0
C132 C 0.50221 0.78513 0.67248 0.0
C133 C 0.47417 0.81254 0.66661 0.0
C134 C 0.51777 0.80107 0.68626 0.0
N135 N 0.48089 0.79108 0.66318 0.0
C136 C 0.48917 0.82904 0.68042 0.0
C137 C 0.51134 0.82339 0.69021 0.0
H138 H 0.50716 0.76797 0.66886 0.0
H139 H 0.45733 0.81699 0.65761 0.0
C140 C 0.40217 0.75472 0.50496 0.0
N141 N 0.41507 0.76845 0.53213 0.0
C142 C 0.38962 0.76317 0.46637 0.0
C143 C 0.40367 0.79973 0.48495 0.0
C144 C 0.41582 0.7906 0.52325 0.0
C145 C 0.39037 0.78597 0.45571 0.0
H146 H 0.40165 0.73721 0.51314 0.0
H147 H 0.42619 0.80114 0.54551 0.0
O148 O 0.46631 0.73864 0.67259 0.0
O149 O 0.42788 0.7258 0.60223 0.0
O150 O 0.42873 0.77181 0.64725 0.0
O151 O 0.46608 0.75902 0.57314 0.0
H152 H 0.48335 0.69973 0.69705 0.0
H153 H 0.47123 0.76625 0.74728 0.0
H154 H 0.50025 0.69098 0.77707 0.0
H155 H 0.48807 0.75627 0.82653 0.0
H156 H 0.43181 0.67433 0.48152 0.0
H157 H 0.41342 0.69131 0.6527 0.0
H158 H 0.4363 0.7128 0.51193 0.0
H159 H 0.40931 0.65321 0.61987 0.0
H160 H 0.41819 0.68863 0.80344 0.0
H161 H 0.36655 0.73648 0.7727 0.0
H162 H 0.52446 0.69953 0.51091 0.0
H163 H 0.48891 0.65208 0.59971 0.0
H164 H 0.40866 0.8094 0.62437 0.0
H165 H 0.43348 0.77011 0.74328 0.0
H166 H 0.39738 0.83831 0.68368 0.0
H167 H 0.42201 0.79976 0.80047 0.0
H168 H 0.47457 0.80178 0.56193 0.0
H169 H 0.46124 0.74076 0.48608 0.0
H170 H 0.47654 0.82113 0.48228 0.0
H171 H 0.46326 0.7612 0.40776 0.0
H172 H 0.53463 0.79595 0.69386 0.0
H173 H 0.48361 0.8461 0.68217 0.0
H174 H 0.37935 0.75198 0.44533 0.0
H175 H 0.40507 0.81732 0.47776 0.0
Li176 Li 0.26869 0.96132 0.85468 0.0
Li177 Li 0.25979 0.93356 0.91299 0.0
Li178 Li 0.24345 0.93302 0.82868 0.0
Li179 Li 0.23262 0.96174 0.88936 0.0
C180 C 0.29588 0.92615 0.8356 0.0
N181 N 0.33951 0.92093 0.80727 0.0
C182 C 0.31304 0.93231 0.867 0.0
C183 C 0.30087 0.9172 0.78994 0.0
C184 C 0.33501 0.9296 0.85194 0.0
C185 C 0.32304 0.91471 0.77626 0.0
C186 C 0.25644 0.97011 0.97209 0.0
C187 C 0.23558 0.96223 0.0451 0.0
N188 N 0.24725 0.97809 0.06922 0.0
C189 C 0.26824 0.9863 0.99769 0.0
C190 C 0.23999 0.95793 0.99606 0.0
C191 C 0.26335 0.9901 0.04673 0.0
C192 C 0.29517 0.99909 0.86179 0.0
N193 N 0.29198 0.98078 0.8338 0.0
C194 C 0.32131 0.99182 0.78041 0.0
C195 C 0.30449 0.97705 0.79338 0.0
C196 C 0.32524 0.01066 0.80925 0.0
C197 C 0.31181 0.01426 0.85027 0.0
H198 H 0.28466 0.00197 0.89301 0.0
H199 H 0.30146 0.96264 0.77104 0.0
C200 C 0.26349 0.89504 0.9729 0.0
N201 N 0.2712 0.91588 0.96463 0.0
C202 C 0.2722 0.88233 0.01104 0.0
C203 C 0.29652 0.91284 0.03119 0.0
C204 C 0.28744 0.92485 0.9927 0.0
C205 C 0.28901 0.89122 0.04077 0.0
H206 H 0.25067 0.88826 0.94971 0.0
H207 H 0.29334 0.94142 0.98526 0.0
C208 C 0.247 0.97698 0.77936 0.0
N209 N 0.26195 0.00053 0.69945 0.0
C210 C 0.2452 8e-05 0.77829 0.0
C211 C 0.25638 0.96586 0.73967 0.0
C212 C 0.25289 0.01169 0.73763 0.0
C213 C 0.26381 0.97806 0.69961 0.0
C214 C 0.20696 0.92164 0.88548 0.0
C215 C 0.19319 0.93313 0.85319 0.0
C216 C 0.19903 0.90268 0.90894 0.0
C217 C 0.17169 0.92541 0.84487 0.0
C218 C 0.17741 0.8955 0.8997 0.0
N219 N 0.16431 0.90691 0.86809 0.0
C220 C 0.24014 0.89353 0.77226 0.0
C221 C 0.21744 0.9234 0.74639 0.0
C222 C 0.2319 0.8801 0.73484 0.0
N223 N 0.23278 0.91472 0.77726 0.0
C224 C 0.20866 0.91055 0.70885 0.0
C225 C 0.21582 0.88857 0.70277 0.0
H226 H 0.25232 0.88706 0.79747 0.0
H227 H 0.21199 0.94035 0.75099 0.0
C228 C 0.21299 0.00278 0.90538 0.0
N229 N 0.20952 0.98076 0.91238 0.0
C230 C 0.19688 0.0182 0.91887 0.0
C231 C 0.17432 0.9881 0.94914 0.0
C232 C 0.19091 0.97325 0.93502 0.0
C233 C 0.17705 0.0109 0.94038 0.0
H234 H 0.22837 0.00835 0.88944 0.0
H235 H 0.18884 0.95575 0.94203 0.0
O236 O 0.27428 0.92875 0.84948 0.0
O237 O 0.26121 0.96626 0.924 0.0
O238 O 0.23999 0.9653 0.81927 0.0
O239 O 0.2282 0.92866 0.89369 0.0
H240 H 0.30944 0.93942 0.90228 0.0
H241 H 0.28774 0.91237 0.76523 0.0
H242 H 0.34847 0.93443 0.87572 0.0
H243 H 0.32717 0.90789 0.74097 0.0
H244 H 0.22289 0.95293 0.06401 0.0
H245 H 0.28113 0.99581 0.97996 0.0
H246 H 0.23072 0.94524 0.97728 0.0
H247 H 0.27237 0.00258 0.06694 0.0
H248 H 0.33132 0.98836 0.74854 0.0
H249 H 0.31395 0.0288 0.87294 0.0
H250 H 0.26608 0.86566 0.01671 0.0
H251 H 0.30914 0.92055 0.05354 0.0
H252 H 0.23803 0.00902 0.8085 0.0
H253 H 0.25838 0.94805 0.74016 0.0
H254 H 0.25166 0.02958 0.73643 0.0
H255 H 0.27122 0.96967 0.66883 0.0
H256 H 0.19899 0.94793 0.83501 0.0
H257 H 0.20948 0.89359 0.93404 0.0
H258 H 0.16086 0.93415 0.81998 0.0
H259 H 0.17106 0.88085 0.91761 0.0
H260 H 0.23775 0.86318 0.73157 0.0
H261 H 0.19654 0.91784 0.68451 0.0
H262 H 0.19997 0.03567 0.91275 0.0
H263 H 0.15934 0.98175 0.9658 0.0
Li264 Li 0.03817 0.77073 0.10755 0.0
Li265 Li 0.06622 0.75835 0.16604 0.0
Li266 Li 0.06515 0.74204 0.08128 0.0
Li267 Li 0.03754 0.73257 0.14369 0.0
C268 C 0.07944 0.79015 0.07431 0.0
N269 N 0.09656 0.82427 0.0185 0.0
C270 C 0.08803 0.80913 0.09667 0.0
C271 C 0.07988 0.78843 0.02351 0.0
C272 C 0.09651 0.82623 0.06784 0.0
C273 C 0.08852 0.80588 0.99596 0.0
C274 C 0.03206 0.77266 0.21942 0.0
C275 C 0.03483 0.77347 0.30704 0.0
N276 N 0.02967 0.79543 0.30658 0.0
C277 C 0.02667 0.7952 0.2198 0.0
C278 C 0.03604 0.76165 0.26337 0.0
C279 C 0.02557 0.80643 0.26426 0.0
C280 C 0.99707 0.7899 0.09243 0.0
N281 N 0.01906 0.79419 0.08716 0.0
C282 C 0.0111 0.83029 0.0557 0.0
C283 C 0.0263 0.81392 0.06922 0.0
C284 C 0.98827 0.82637 0.06109 0.0
C285 C 0.98131 0.80583 0.07967 0.0
H286 H 0.99181 0.77404 0.10676 0.0
H287 H 0.04378 0.81713 0.06559 0.0
C288 C 0.09836 0.75375 0.24136 0.0
N289 N 0.08495 0.76832 0.21769 0.0
C290 C 0.1115 0.76087 0.28031 0.0
C291 C 0.09702 0.7979 0.26921 0.0
C292 C 0.08414 0.79005 0.2307 0.0
C293 C 0.11091 0.78323 0.2947 0.0
H294 H 0.09882 0.73658 0.23013 0.0
H295 H 0.0732 0.80126 0.21162 0.0
C296 C 0.02237 0.74105 0.03095 0.0
N297 N 0.00194 0.73965 0.94086 0.0
C298 C 0.00853 0.7233 0.01878 0.0
C299 C 0.02557 0.75822 0.99751 0.0
C300 C 0.99843 0.72285 0.97298 0.0
C301 C 0.01515 0.75719 0.95212 0.0
C302 C 0.07083 0.70554 0.16085 0.0
C303 C 0.07544 0.68842 0.12806 0.0
C304 C 0.06646 0.70054 0.20963 0.0
C305 C 0.07533 0.6665 0.14455 0.0
C306 C 0.06647 0.67841 0.22468 0.0
N307 N 0.07085 0.662 0.19209 0.0
C308 C 0.10336 0.7364 0.02219 0.0
C309 C 0.0717 0.71619 0.99682 0.0
C310 C 0.11559 0.7282 0.98283 0.0
N311 N 0.08176 0.73048 0.02805 0.0
C312 C 0.08321 0.70774 0.95688 0.0
C313 C 0.10542 0.71382 0.94932 0.0
H314 H 0.111 0.74764 0.0479 0.0
H315 H 0.05475 0.71118 0.00308 0.0
C316 C 0.00531 0.7119 0.20396 0.0
N317 N 0.01848 0.70923 0.16424 0.0
C318 C 0.99079 0.69503 0.21809 0.0
C319 C 0.00377 0.67301 0.15025 0.0
C320 C 0.01797 0.6903 0.13741 0.0
C321 C 0.9898 0.67529 0.19092 0.0
H322 H 0.00582 0.72724 0.22425 0.0
H323 H 0.02853 0.68871 0.10576 0.0
O324 O 0.07115 0.77321 0.10211 0.0
O325 O 0.03342 0.76144 0.17623 0.0
O326 O 0.03241 0.74168 0.07566 0.0
O327 O 0.07047 0.72706 0.14521 0.0
H328 H 0.0881 0.81073 0.13582 0.0
H329 H 0.07376 0.77377 0.00541 0.0
H330 H 0.10309 0.84104 0.08472 0.0
H331 H 0.08888 0.80476 0.95663 0.0
H332 H 0.03801 0.7652 0.3413 0.0
H333 H 0.02354 0.80398 0.18615 0.0
H334 H 0.04021 0.74421 0.26371 0.0
H335 H 0.02152 0.8239 0.26511 0.0
H336 H 0.01717 0.84601 0.04204 0.0
H337 H 0.96387 0.80203 0.08391 0.0
H338 H 0.12214 0.74906 0.2987 0.0
H339 H 0.09577 0.81518 0.27954 0.0
H340 H 0.00567 0.70997 0.04434 0.0
H341 H 0.03573 0.77233 0.00665 0.0
H342 H 0.98778 0.70915 0.96301 0.0
H343 H 0.01751 0.77037 0.92592 0.0
H344 H 0.07891 0.692 0.09021 0.0
H345 H 0.06287 0.71359 0.23547 0.0
H346 H 0.07875 0.65308 0.11953 0.0
H347 H 0.06296 0.67429 0.26224 0.0
H348 H 0.13267 0.73334 0.97822 0.0
H349 H 0.0749 0.69632 0.9325 0.0
H350 H 0.9801 0.69766 0.24923 0.0
H351 H 0.00378 0.65801 0.12858 0.0
Li352 Li 0.74156 0.06773 0.91674 0.0
Li353 Li 0.73006 0.03926 0.85865 0.0
Li354 Li 0.76843 0.04128 0.89037 0.0
Li355 Li 0.75629 0.06894 0.83273 0.0
C356 C 0.73046 0.03269 0.96975 0.0
N357 N 0.70948 0.02899 0.05883 0.0
C358 C 0.70748 0.02992 0.97195 0.0
C359 C 0.74281 0.03326 0.0128 0.0
C360 C 0.69717 0.02816 0.01735 0.0
C361 C 0.73189 0.03145 0.0575 0.0
C362 C 0.71164 0.07788 0.81641 0.0
C363 C 0.69889 0.07219 0.73409 0.0
N364 N 0.68581 0.09048 0.73805 0.0
C365 C 0.69809 0.09661 0.81969 0.0
C366 C 0.71208 0.06555 0.7733 0.0
C367 C 0.68514 0.10271 0.77966 0.0
C368 C 0.74396 0.09666 0.99919 0.0
N369 N 0.73028 0.08507 0.96921 0.0
C370 C 0.69855 0.0968 0.01455 0.0
C371 C 0.70794 0.08523 0.97566 0.0
C372 C 0.71226 0.10868 0.04676 0.0
C373 C 0.73527 0.10863 0.03838 0.0
H374 H 0.76162 0.09667 0.99272 0.0
H375 H 0.69743 0.07608 0.95087 0.0
C376 C 0.71272 0.99798 0.83315 0.0
N377 N 0.70695 0.01952 0.84018 0.0
C378 C 0.6967 0.98235 0.82031 0.0
C379 C 0.66897 0.01128 0.82304 0.0
C380 C 0.68555 0.02636 0.83592 0.0
C381 C 0.67447 0.98892 0.81493 0.0
H382 H 0.72976 0.99292 0.83818 0.0
H383 H 0.6813 0.04349 0.84282 0.0
C384 C 0.79296 0.07681 0.91392 0.0
N385 N 0.83505 0.0818 0.95227 0.0
C386 C 0.80987 0.08615 0.88576 0.0
C387 C 0.79743 0.07021 0.96171 0.0
C388 C 0.83105 0.08849 0.90578 0.0
C389 C 0.81882 0.0728 0.9804 0.0
C390 C 0.7756 0.02821 0.79494 0.0
C391 C 0.79461 0.04094 0.78699 0.0
C392 C 0.77431 0.00682 0.77557 0.0
C393 C 0.81209 0.03202 0.75995 0.0
C394 C 0.79214 0.99849 0.74871 0.0
N395 N 0.81051 0.01115 0.74153 0.0
C396 C 0.78672 0.00376 0.93485 0.0
C397 C 0.81381 0.0261 0.8963 0.0
C398 C 0.80287 0.98837 0.94849 0.0
N399 N 0.79239 0.02221 0.90933 0.0
C400 C 0.83052 0.01121 0.90939 0.0
C401 C 0.82514 0.99196 0.93569 0.0
H402 H 0.76954 0.0008 0.94401 0.0
H403 H 0.81801 0.04066 0.87546 0.0
C404 C 0.77149 0.10853 0.78929 0.0
N405 N 0.76421 0.08767 0.77967 0.0
C406 C 0.77869 0.12222 0.75142 0.0
C407 C 0.76984 0.09301 0.69432 0.0
C408 C 0.76305 0.07981 0.73331 0.0
C409 C 0.77806 0.11441 0.70322 0.0
H410 H 0.77207 0.11438 0.82652 0.0
H411 H 0.75724 0.06312 0.72668 0.0
O412 O 0.74082 0.03487 0.92568 0.0
O413 O 0.72454 0.07186 0.8552 0.0
O414 O 0.77211 0.07438 0.89493 0.0
O415 O 0.75832 0.0366 0.82153 0.0
H416 H 0.69766 0.02944 0.93902 0.0
H417 H 0.76064 0.03504 0.01175 0.0
H418 H 0.67937 0.02619 0.01961 0.0
H419 H 0.74123 0.03198 0.09112 0.0
H420 H 0.69906 0.06281 0.70051 0.0
H421 H 0.69762 0.10634 0.85283 0.0
H422 H 0.72245 0.05099 0.77014 0.0
H423 H 0.67456 0.11718 0.78167 0.0
H424 H 0.68077 0.0961 0.01975 0.0
H425 H 0.74646 0.11788 0.06157 0.0
H426 H 0.70164 0.96522 0.81553 0.0
H427 H 0.65208 0.01711 0.81912 0.0
H428 H 0.80677 0.09141 0.84874 0.0
H429 H 0.78456 0.063 0.98401 0.0
H430 H 0.8443 0.09559 0.88433 0.0
H431 H 0.82252 0.06763 0.01725 0.0
H432 H 0.79599 0.05744 0.80199 0.0
H433 H 0.75969 0.99676 0.78111 0.0
H434 H 0.82693 0.04168 0.75373 0.0
H435 H 0.79137 0.98195 0.73354 0.0
H436 H 0.79784 0.97358 0.96791 0.0
H437 H 0.84747 0.01483 0.89913 0.0
H438 H 0.78474 0.1387 0.75971 0.0
H439 H 0.7693 0.08629 0.65775 0.0
Li440 Li 0.93231 0.24 0.16763 0.0
Li441 Li 0.95996 0.22875 0.10619 0.0
Li442 Li 0.96088 0.2673 0.14285 0.0
Li443 Li 0.93271 0.25652 0.0835 0.0
C444 C 0.97317 0.2311 0.21861 0.0
N445 N 0.98963 0.21704 0.3074 0.0
C446 C 0.98118 0.20948 0.22403 0.0
C447 C 0.97392 0.24568 0.25818 0.0
C448 C 0.98932 0.20265 0.26926 0.0
C449 C 0.9822 0.23823 0.3028 0.0
C450 C 0.92285 0.20435 0.08722 0.0
C451 C 0.92236 0.17729 0.02254 0.0
N452 N 0.91477 0.16179 0.05443 0.0
C453 C 0.91486 0.18821 0.11927 0.0
C454 C 0.92646 0.19892 0.03837 0.0
C455 C 0.91094 0.16677 0.10201 0.0
C456 C 0.89428 0.23981 0.22824 0.0
N457 N 0.91422 0.22991 0.22029 0.0
C458 C 0.90873 0.20589 0.28845 0.0
C459 C 0.92139 0.21297 0.24891 0.0
C460 C 0.88827 0.21607 0.29814 0.0
C461 C 0.88092 0.23309 0.26716 0.0
H462 H 0.88882 0.25305 0.20451 0.0
H463 H 0.93682 0.20474 0.24082 0.0
C464 C 0.99677 0.21059 0.05802 0.0
N465 N 0.9786 0.20511 0.08471 0.0
C466 C 0.01191 0.19429 0.04387 0.0
C467 C 0.98927 0.16692 0.08456 0.0
C468 C 0.97466 0.18378 0.09817 0.0
C469 C 0.00834 0.17209 0.05739 0.0
H470 H 0.9998 0.22774 0.04867 0.0
H471 H 0.96046 0.17988 0.12052 0.0
C472 C 0.92306 0.28882 0.17769 0.0
N473 N 0.91286 0.3237 0.23908 0.0
C474 C 0.91458 0.3086 0.15872 0.0
C475 C 0.926 0.28668 0.22795 0.0
C476 C 0.90964 0.32608 0.19033 0.0
C477 C 0.92083 0.30451 0.25837 0.0
C478 C 0.96804 0.26614 0.0285 0.0
C479 C 0.97337 0.28848 0.02187 0.0
C480 C 0.9653 0.25241 0.98795 0.0
C481 C 0.97544 0.29683 0.97462 0.0
C482 C 0.96751 0.26138 0.94129 0.0
N483 N 0.97246 0.28323 0.93564 0.0
C484 C 0.99936 0.28521 0.18574 0.0
C485 C 0.97443 0.31207 0.1545 0.0
C486 C 0.01405 0.3018 0.20038 0.0
N487 N 0.9799 0.2906 0.16372 0.0
C488 C 0.9887 0.32919 0.16824 0.0
C489 C 0.00882 0.32414 0.19155 0.0
H490 H 0.00362 0.26799 0.19134 0.0
H491 H 0.95918 0.31588 0.13566 0.0
C492 C 0.90098 0.25497 0.0063 0.0
N493 N 0.91511 0.26813 0.03183 0.0
C494 C 0.88847 0.2638 0.96802 0.0
C495 C 0.90521 0.29952 0.98341 0.0
C496 C 0.9173 0.29004 0.02137 0.0
C497 C 0.89052 0.28638 0.9561 0.0
H498 H 0.89933 0.23767 0.01576 0.0
H499 H 0.92863 0.30013 0.04235 0.0
O500 O 0.96513 0.23803 0.17449 0.0
O501 O 0.92678 0.22542 0.10351 0.0
O502 O 0.92814 0.2716 0.14717 0.0
O503 O 0.9656 0.25773 0.07446 0.0
H504 H 0.98094 0.19802 0.19381 0.0
H505 H 0.96847 0.26265 0.25441 0.0
H506 H 0.99539 0.18591 0.27402 0.0
H507 H 0.98282 0.24933 0.33372 0.0
H508 H 0.9252 0.17283 0.98488 0.0
H509 H 0.91178 0.19216 0.15707 0.0
H510 H 0.93238 0.21124 0.01297 0.0
H511 H 0.90486 0.15409 0.12646 0.0
H512 H 0.91473 0.19237 0.31083 0.0
H513 H 0.86522 0.24133 0.27344 0.0
H514 H 0.02656 0.19916 0.02378 0.0
H515 H 0.98571 0.15005 0.0955 0.0
H516 H 0.91195 0.31049 0.12 0.0
H517 H 0.93197 0.27134 0.24339 0.0
H518 H 0.90322 0.34152 0.1761 0.0
H519 H 0.92309 0.30307 0.29734 0.0
H520 H 0.97568 0.29931 0.05286 0.0
H521 H 0.96153 0.23502 0.99247 0.0
H522 H 0.97939 0.31413 0.96894 0.0
H523 H 0.96531 0.25096 0.90957 0.0
H524 H 0.02959 0.29716 0.21737 0.0
H525 H 0.98402 0.3462 0.16078 0.0
H526 H 0.87713 0.25311 0.94841 0.0
H527 H 0.9076 0.31691 0.97515 0.0
Li528 Li 0.7692 0.46062 0.35579 0.0
Li529 Li 0.75848 0.43392 0.41519 0.0
Li530 Li 0.74441 0.43181 0.32915 0.0
Li531 Li 0.73218 0.46161 0.38563 0.0
C532 C 0.79638 0.42414 0.34349 0.0
N533 N 0.84037 0.41639 0.32146 0.0
C534 C 0.81297 0.4305 0.37614 0.0
C535 C 0.8021 0.4137 0.29982 0.0
C536 C 0.83514 0.42649 0.36426 0.0
C537 C 0.82446 0.40995 0.28931 0.0
C538 C 0.75389 0.47167 0.47036 0.0
C539 C 0.73153 0.4652 0.54186 0.0
N540 N 0.74232 0.4819 0.5652 0.0
C541 C 0.76477 0.48875 0.49512 0.0
C542 C 0.73714 0.45976 0.49397 0.0
C543 C 0.75869 0.49367 0.54302 0.0
C544 C 0.79408 0.49944 0.36087 0.0
N545 N 0.79306 0.47982 0.33665 0.0
C546 C 0.82459 0.48977 0.28852 0.0
C547 C 0.80782 0.47482 0.30079 0.0
C548 C 0.82619 0.51006 0.31339 0.0
C549 C 0.81062 0.51483 0.34996 0.0
H550 H 0.78188 0.50324 0.38845 0.0
H551 H 0.80653 0.45935 0.28125 0.0
C552 C 0.76027 0.39648 0.47853 0.0
N553 N 0.7684 0.4171 0.46961 0.0
C554 C 0.7678 0.38437 0.51877 0.0
C555 C 0.79181 0.41503 0.53964 0.0
C556 C 0.78397 0.42642 0.49898 0.0
C557 C 0.78371 0.39373 0.55006 0.0
H558 H 0.74795 0.38946 0.4544 0.0
H559 H 0.79033 0.44275 0.49076 0.0
C560 C 0.74969 0.4752 0.27695 0.0
N561 N 0.76696 0.49785 0.19806 0.0
C562 C 0.74565 0.49788 0.27143 0.0
C563 C 0.76245 0.46403 0.24221 0.0
C564 C 0.75456 0.50904 0.23136 0.0
C565 C 0.77102 0.47577 0.20259 0.0
C566 C 0.70626 0.42222 0.38184 0.0
C567 C 0.69447 0.4324 0.34409 0.0
C568 C 0.69637 0.40519 0.40859 0.0
C569 C 0.67292 0.42534 0.33379 0.0
C570 C 0.67477 0.39862 0.39719 0.0
N571 N 0.66359 0.40874 0.36033 0.0
C572 C 0.73697 0.39 0.285 0.0
C573 C 0.72558 0.42095 0.23796 0.0
C574 C 0.72936 0.37543 0.24903 0.0
N575 N 0.73501 0.41228 0.27872 0.0
C576 C 0.71823 0.40706 0.20074 0.0
C577 C 0.72003 0.38401 0.20616 0.0
H578 H 0.74424 0.38358 0.31816 0.0
H579 H 0.72351 0.43868 0.23455 0.0
C580 C 0.7116 0.50274 0.39531 0.0
N581 N 0.70847 0.48083 0.40443 0.0
C582 C 0.6952 0.51815 0.40711 0.0
C583 C 0.67301 0.48832 0.43986 0.0
C584 C 0.68982 0.47345 0.42713 0.0
C585 C 0.6755 0.51098 0.42935 0.0
H586 H 0.727 0.50826 0.3793 0.0
H587 H 0.68797 0.45608 0.43568 0.0
O588 O 0.7746 0.42799 0.35417 0.0
O589 O 0.75979 0.46674 0.42339 0.0
O590 O 0.74143 0.46398 0.31634 0.0
O591 O 0.72749 0.42862 0.39231 0.0
H592 H 0.80879 0.43874 0.4099 0.0
H593 H 0.78939 0.40865 0.27424 0.0
H594 H 0.84818 0.43145 0.38902 0.0
H595 H 0.82916 0.40196 0.25558 0.0
H596 H 0.7186 0.45612 0.56049 0.0
H597 H 0.77785 0.49808 0.47757 0.0
H598 H 0.72856 0.44642 0.47576 0.0
H599 H 0.76698 0.50685 0.56258 0.0
H600 H 0.83629 0.4854 0.26018 0.0
H601 H 0.81099 0.53045 0.36942 0.0
H602 H 0.76107 0.36802 0.52566 0.0
H603 H 0.80434 0.42271 0.56232 0.0
H604 H 0.73571 0.50681 0.2976 0.0
H605 H 0.76606 0.44655 0.24626 0.0
H606 H 0.7516 0.52661 0.22671 0.0
H607 H 0.78104 0.46734 0.17564 0.0
H608 H 0.70182 0.44564 0.32305 0.0
H609 H 0.7053 0.39713 0.43787 0.0
H610 H 0.6636 0.43306 0.3047 0.0
H611 H 0.66689 0.38546 0.41762 0.0
H612 H 0.73087 0.3577 0.25444 0.0
H613 H 0.71072 0.41422 0.16851 0.0
H614 H 0.69804 0.53555 0.39953 0.0
H615 H 0.65811 0.4821 0.45713 0.0
Li616 Li 0.53836 0.27034 0.61337 0.0
Li617 Li 0.56629 0.25915 0.6718 0.0
Li618 Li 0.56624 0.24223 0.58921 0.0
Li619 Li 0.53826 0.23278 0.64949 0.0
C620 C 0.57904 0.29508 0.61391 0.0
N621 N 0.59526 0.33745 0.62788 0.0
C622 C 0.56678 0.31057 0.64051 0.0
C623 C 0.59954 0.30115 0.59432 0.0
C624 C 0.57526 0.33189 0.64721 0.0
C625 C 0.60746 0.32265 0.6018 0.0
C626 C 0.52998 0.26942 0.72793 0.0
C627 C 0.53265 0.26521 0.81515 0.0
N628 N 0.52333 0.28558 0.82105 0.0
C629 C 0.52034 0.29028 0.7349 0.0
C630 C 0.5361 0.25675 0.76839 0.0
C631 C 0.51715 0.29816 0.78225 0.0
C632 C 0.49858 0.29381 0.60882 0.0
N633 N 0.51946 0.29333 0.59034 0.0
C634 C 0.51214 0.32549 0.54205 0.0
C635 C 0.5264 0.30855 0.55713 0.0
C636 C 0.49064 0.32674 0.56158 0.0
C637 C 0.48386 0.31053 0.59514 0.0
H638 H 0.49344 0.28127 0.63463 0.0
H639 H 0.54306 0.30766 0.54268 0.0
C640 C 0.60336 0.25701 0.73511 0.0
N641 N 0.58514 0.26928 0.72363 0.0
C642 C 0.61678 0.26303 0.77453 0.0
C643 C 0.59258 0.29427 0.78923 0.0
C644 C 0.57996 0.28795 0.74904 0.0
C645 C 0.6111 0.28163 0.8025 0.0
H646 H 0.60728 0.24237 0.71406 0.0
H647 H 0.56578 0.2978 0.73888 0.0
C648 C 0.52728 0.24485 0.53324 0.0
N649 N 0.51435 0.25238 0.43814 0.0
C650 C 0.50842 0.23442 0.5146 0.0
C651 C 0.53958 0.2591 0.50355 0.0
C652 C 0.50215 0.23844 0.4664 0.0
C653 C 0.53277 0.2627 0.45557 0.0
C654 C 0.57214 0.2067 0.67091 0.0
C655 C 0.5727 0.18868 0.63893 0.0
C656 C 0.57271 0.20299 0.72114 0.0
C657 C 0.57337 0.16718 0.6578 0.0
C658 C 0.57339 0.18124 0.73859 0.0
N659 N 0.57367 0.16393 0.70682 0.0
C660 C 0.60436 0.23708 0.52868 0.0
C661 C 0.57359 0.21434 0.50908 0.0
C662 C 0.61665 0.2279 0.49043 0.0
N663 N 0.58324 0.23022 0.53707 0.0
C664 C 0.58518 0.20482 0.47043 0.0
C665 C 0.60706 0.21149 0.46068 0.0
H666 H 0.6117 0.24955 0.55192 0.0
H667 H 0.55686 0.20898 0.5169 0.0
C668 C 0.50753 0.20991 0.71066 0.0
N669 N 0.51943 0.209 0.66868 0.0
C670 C 0.49319 0.19265 0.72308 0.0
C671 C 0.50343 0.17391 0.64857 0.0
C672 C 0.51753 0.19157 0.63757 0.0
C673 C 0.49094 0.17434 0.69179 0.0
H674 H 0.50877 0.2242 0.73409 0.0
H675 H 0.52688 0.19148 0.60394 0.0
O676 O 0.57107 0.27408 0.60685 0.0
O677 O 0.53344 0.26154 0.68176 0.0
O678 O 0.53355 0.24108 0.58041 0.0
O679 O 0.57111 0.22787 0.65312 0.0
H680 H 0.55092 0.30615 0.65602 0.0
H681 H 0.60923 0.28938 0.57353 0.0
H682 H 0.56594 0.34402 0.66783 0.0
H683 H 0.62331 0.32757 0.58686 0.0
H684 H 0.53741 0.25561 0.84673 0.0
H685 H 0.51557 0.30041 0.70415 0.0
H686 H 0.54356 0.24061 0.76373 0.0
H687 H 0.5098 0.31431 0.78814 0.0
H688 H 0.51801 0.33771 0.5162 0.0
H689 H 0.46731 0.31071 0.61043 0.0
H690 H 0.63106 0.25299 0.78386 0.0
H691 H 0.58792 0.30887 0.80983 0.0
H692 H 0.49874 0.22334 0.53717 0.0
H693 H 0.55424 0.2673 0.51734 0.0
H694 H 0.48759 0.23048 0.45146 0.0
H695 H 0.54212 0.27369 0.4322 0.0
H696 H 0.57237 0.19125 0.59998 0.0
H697 H 0.57275 0.21673 0.7464 0.0
H698 H 0.57361 0.15307 0.63346 0.0
H699 H 0.57375 0.17812 0.77738 0.0
H700 H 0.63355 0.23335 0.48475 0.0
H701 H 0.57694 0.19251 0.44815 0.0
H702 H 0.48354 0.19393 0.75622 0.0
H703 H 0.50234 0.16009 0.62352 0.0
C704 C 0.37624 0.6785 0.84056 0.0
C705 C 0.37676 0.70158 0.83347 0.0
C706 C 0.3639 0.66928 0.87847 0.0
C707 C 0.33866 0.68303 0.99738 0.0
H708 H 0.30926 0.62648 0.97868 0.0
C709 C 0.28558 0.64009 0.14692 0.0
C710 C 0.29004 0.6174 0.15397 0.0
C711 C 0.29457 0.65144 0.10706 0.0
C712 C 0.31745 0.64225 0.98448 0.0
H713 H 0.36447 0.73305 0.86066 0.0
H714 H 0.34241 0.71687 0.92617 0.0
H715 H 0.32734 0.64448 0.90989 0.0
H716 H 0.308 0.5891 0.12502 0.0
H717 H 0.32318 0.60874 0.05531 0.0
H718 H 0.32867 0.68067 0.07216 0.0
C719 C 0.35187 0.70593 0.90276 0.0
C720 C 0.32788 0.65254 0.94512 0.0
C721 C 0.36431 0.71519 0.86484 0.0
C722 C 0.30373 0.6064 0.12023 0.0
C723 C 0.31251 0.61767 0.08028 0.0
C724 C 0.32807 0.67278 0.03673 0.0
C725 C 0.35159 0.68285 0.91015 0.0
C726 C 0.33897 0.67286 0.95123 0.0
C727 C 0.30803 0.64029 0.07321 0.0
C728 C 0.31771 0.65209 0.03084 0.0
H729 H 0.38535 0.66748 0.81669 0.0
H730 H 0.36434 0.65147 0.8834 0.0
H731 H 0.34724 0.69855 0.00355 0.0
H732 H 0.27491 0.64904 0.17182 0.0
H733 H 0.29072 0.66885 0.1023 0.0
C734 C 0.36773 0.81639 0.41762 0.0
C735 C 0.37771 0.79537 0.41398 0.0
C736 C 0.3569 0.82578 0.37765 0.0
C737 C 0.33089 0.81293 0.25945 0.0
H738 H 0.34483 0.87422 0.22959 0.0
C739 C 0.28529 0.86481 0.11146 0.0
C740 C 0.29871 0.87824 0.08167 0.0
C741 C 0.29435 0.85365 0.1515 0.0
C742 C 0.34084 0.85707 0.23734 0.0
H743 H 0.38378 0.76764 0.36537 0.0
H744 H 0.36459 0.78396 0.2958 0.0
H745 H 0.36127 0.85672 0.30105 0.0
H746 H 0.33243 0.88951 0.06942 0.0
H747 H 0.34808 0.87037 0.13952 0.0
H748 H 0.31056 0.81332 0.19531 0.0
C749 C 0.36508 0.79308 0.32978 0.0
C750 C 0.35007 0.84712 0.27853 0.0
C751 C 0.37605 0.78372 0.3697 0.0
C752 C 0.32149 0.87976 0.0922 0.0
C753 C 0.33049 0.86876 0.13231 0.0
C754 C 0.32148 0.82297 0.21838 0.0
C755 C 0.35565 0.81434 0.33315 0.0
C756 C 0.34529 0.82492 0.28995 0.0
C757 C 0.31699 0.8558 0.16274 0.0
C758 C 0.3265 0.8451 0.20673 0.0
H759 H 0.36827 0.82563 0.45141 0.0
H760 H 0.34947 0.84204 0.38157 0.0
H761 H 0.3268 0.79584 0.26753 0.0
H762 H 0.26765 0.86343 0.10473 0.0
H763 H 0.28352 0.84389 0.17452 0.0
C764 C 0.13534 0.81177 0.33398 0.0
C765 C 0.12435 0.79126 0.33649 0.0
C766 C 0.14705 0.81991 0.3741 0.0
C767 C 0.14901 0.81597 0.50733 0.0
H768 H 0.20483 0.8472 0.49267 0.0
C769 C 0.22017 0.86144 0.63387 0.0
C770 C 0.20639 0.87468 0.6632 0.0
C771 C 0.21127 0.84922 0.59517 0.0
C772 C 0.18938 0.83832 0.49746 0.0
H773 H 0.11727 0.76306 0.38293 0.0
H774 H 0.13787 0.77721 0.45298 0.0
H775 H 0.18792 0.82926 0.42206 0.0
H776 H 0.17242 0.88492 0.67599 0.0
H777 H 0.15693 0.86376 0.60844 0.0
H778 H 0.15037 0.82518 0.5826 0.0
C779 C 0.13731 0.78705 0.41999 0.0
C780 C 0.17959 0.82824 0.45694 0.0
C781 C 0.12569 0.77885 0.37973 0.0
C782 C 0.18349 0.87506 0.65371 0.0
C783 C 0.17459 0.86275 0.61533 0.0
C784 C 0.15874 0.82616 0.54776 0.0
C785 C 0.14796 0.80776 0.41775 0.0
C786 C 0.15917 0.81716 0.46131 0.0
C787 C 0.18839 0.84984 0.58535 0.0
C788 C 0.17889 0.83767 0.54317 0.0
H789 H 0.13482 0.82162 0.301 0.0
H790 H 0.15489 0.83601 0.37133 0.0
H791 H 0.13319 0.80773 0.51185 0.0
H792 H 0.2379 0.86092 0.64013 0.0
H793 H 0.22229 0.8393 0.57291 0.0
C794 C 0.10767 0.70437 0.86061 0.0
C795 C 0.11778 0.70509 0.90668 0.0
C796 C 0.11886 0.69539 0.8207 0.0
C797 C 0.17472 0.679 0.77631 0.0
H798 H 0.14063 0.6429 0.68654 0.0
C799 C 0.21432 0.62294 0.62795 0.0
C800 C 0.20405 0.62284 0.58192 0.0
C801 C 0.20456 0.63407 0.6672 0.0
C802 C 0.15034 0.65313 0.71098 0.0
H803 H 0.14763 0.6971 0.94701 0.0
H804 H 0.16711 0.68104 0.87744 0.0
H805 H 0.12224 0.66007 0.75581 0.0
H806 H 0.17592 0.63521 0.54075 0.0
H807 H 0.15881 0.65433 0.60932 0.0
H808 H 0.20293 0.67159 0.7316 0.0
C809 C 0.15066 0.6878 0.87192 0.0
C810 C 0.13979 0.66303 0.75068 0.0
C811 C 0.13949 0.69695 0.91183 0.0
C812 C 0.18405 0.63454 0.57589 0.0
C813 C 0.17426 0.64554 0.61515 0.0
C814 C 0.18532 0.66894 0.73669 0.0
C815 C 0.14039 0.68672 0.82593 0.0
C816 C 0.15181 0.67617 0.78377 0.0
C817 C 0.18428 0.64523 0.66135 0.0
C818 C 0.17321 0.65597 0.7035 0.0
H819 H 0.0911 0.71088 0.85534 0.0
H820 H 0.11062 0.6953 0.78565 0.0
H821 H 0.18444 0.68923 0.80069 0.0
H822 H 0.22957 0.61387 0.63408 0.0
H823 H 0.21257 0.63337 0.70249 0.0
C824 C 0.80731 0.13889 0.66722 0.0
C825 C 0.78681 0.12807 0.66262 0.0
C826 C 0.8163 0.15062 0.62805 0.0
C827 C 0.81277 0.15482 0.49359 0.0
H828 H 0.84889 0.20716 0.51437 0.0
C829 C 0.85198 0.20448 0.33496 0.0
C830 C 0.87475 0.2088 0.3403 0.0
C831 C 0.83957 0.19651 0.37429 0.0
C832 C 0.83886 0.19254 0.50807 0.0
H833 H 0.75922 0.12171 0.61403 0.0
H834 H 0.77461 0.14264 0.54587 0.0
H835 H 0.82981 0.19013 0.58319 0.0
H836 H 0.90222 0.20893 0.39122 0.0
H837 H 0.88053 0.19515 0.45996 0.0
H838 H 0.82185 0.15737 0.41835 0.0
C839 C 0.78407 0.1416 0.57932 0.0
C840 C 0.828 0.1827 0.5475 0.0
C841 C 0.7752 0.12968 0.61839 0.0
C842 C 0.88473 0.20555 0.38599 0.0
C843 C 0.87229 0.19786 0.4254 0.0
C844 C 0.82346 0.1648 0.4541 0.0
C845 C 0.80488 0.152 0.58342 0.0
C846 C 0.81509 0.16349 0.54092 0.0
C847 C 0.84964 0.19302 0.41984 0.0
C848 C 0.83689 0.18355 0.46107 0.0
H849 H 0.81678 0.13768 0.70066 0.0
H850 H 0.83253 0.15803 0.63238 0.0
H851 H 0.80328 0.13987 0.48714 0.0
H852 H 0.8439 0.20674 0.30007 0.0
H853 H 0.82211 0.19302 0.36909 0.0
C854 C 0.87433 0.28459 0.87163 0.0
C855 C 0.87753 0.29627 0.91544 0.0
C856 C 0.86287 0.29433 0.83281 0.0
C857 C 0.84789 0.34904 0.78348 0.0
H858 H 0.80525 0.31629 0.70601 0.0
C859 C 0.79507 0.39244 0.63781 0.0
C860 C 0.7921 0.38144 0.59317 0.0
C861 C 0.80426 0.3814 0.67769 0.0
C862 C 0.81728 0.32559 0.72697 0.0
H863 H 0.87037 0.32703 0.95334 0.0
H864 H 0.85058 0.34402 0.88561 0.0
H865 H 0.82371 0.29812 0.7745 0.0
H866 H 0.7961 0.35009 0.5556 0.0
H867 H 0.8124 0.33079 0.62519 0.0
H868 H 0.84179 0.3764 0.7359 0.0
C869 C 0.85725 0.32747 0.881 0.0
C870 C 0.82783 0.31518 0.76622 0.0
C871 C 0.86863 0.31773 0.9198 0.0
C872 C 0.79801 0.35895 0.58966 0.0
C873 C 0.80733 0.3479 0.62956 0.0
C874 C 0.83743 0.3594 0.74423 0.0
C875 C 0.85442 0.31598 0.8369 0.0
C876 C 0.84319 0.32684 0.79503 0.0
C877 C 0.81084 0.3591 0.67388 0.0
C878 C 0.82192 0.34786 0.71558 0.0
H879 H 0.88119 0.26814 0.86683 0.0
H880 H 0.86115 0.28514 0.79913 0.0
H881 H 0.85995 0.35835 0.80437 0.0
H882 H 0.7903 0.40966 0.64192 0.0
H883 H 0.80625 0.3904 0.71156 0.0
C884 C 0.69536 0.35318 0.17833 0.0
C885 C 0.71153 0.36919 0.16756 0.0
C886 C 0.68571 0.34072 0.14094 0.0
C887 C 0.69303 0.32045 0.01676 0.0
H888 H 0.62921 0.32605 0.00546 0.0
C889 C 0.64604 0.29482 0.84193 0.0
C890 C 0.62399 0.28776 0.84612 0.0
C891 C 0.65752 0.30244 0.88294 0.0
C892 C 0.64696 0.32379 0.00843 0.0
H893 H 0.73101 0.38417 0.11008 0.0
H894 H 0.71454 0.3619 0.04472 0.0
H895 H 0.64819 0.34253 0.07468 0.0
H896 H 0.59683 0.28204 0.89594 0.0
H897 H 0.61709 0.29412 0.96806 0.0
H898 H 0.69192 0.30134 0.95121 0.0
C899 C 0.70922 0.35916 0.08193 0.0
C900 C 0.65782 0.33338 0.04809 0.0
C901 C 0.71853 0.37193 0.11915 0.0
C902 C 0.61382 0.28761 0.892 0.0
C903 C 0.62541 0.29475 0.93315 0.0
C904 C 0.68212 0.31044 0.97751 0.0
C905 C 0.69242 0.34376 0.09239 0.0
C906 C 0.68096 0.33204 0.05229 0.0
C907 C 0.64728 0.30275 0.92912 0.0
C908 C 0.65893 0.31221 0.97241 0.0
H909 H 0.68962 0.3509 0.21539 0.0
H910 H 0.6728 0.32891 0.14983 0.0
H911 H 0.7109 0.31911 0.01944 0.0
H912 H 0.65409 0.29518 0.80666 0.0
H913 H 0.67417 0.30875 0.87798 0.0
C914 C 0.71359 0.12125 0.1342 0.0
C915 C 0.70259 0.12082 0.08898 0.0
C916 C 0.70413 0.13203 0.17424 0.0
C917 C 0.65029 0.14909 0.22329 0.0
H918 H 0.68486 0.18676 0.30906 0.0
C919 C 0.61715 0.17866 0.40883 0.0
C920 C 0.61965 0.20132 0.41969 0.0
C921 C 0.62801 0.16925 0.36895 0.0
C922 C 0.675 0.17635 0.28529 0.0
H923 H 0.67329 0.13212 0.05028 0.0
H924 H 0.65665 0.1505 0.12038 0.0
H925 H 0.70241 0.17004 0.23747 0.0
H926 H 0.63593 0.23174 0.39729 0.0
H927 H 0.65522 0.21514 0.32803 0.0
H928 H 0.62291 0.15531 0.27097 0.0
C929 C 0.67251 0.1423 0.12484 0.0
C930 C 0.68507 0.16666 0.24458 0.0
C931 C 0.68204 0.13169 0.08472 0.0
C932 C 0.6338 0.21419 0.39036 0.0
C933 C 0.64482 0.20471 0.35061 0.0
C934 C 0.64031 0.15857 0.26418 0.0
C935 C 0.68338 0.14246 0.1701 0.0
C936 C 0.6728 0.15296 0.21313 0.0
C937 C 0.6418 0.1822 0.33915 0.0
C938 C 0.65254 0.17229 0.29565 0.0
H939 H 0.72927 0.11279 0.13909 0.0
H940 H 0.71278 0.13167 0.20882 0.0
H941 H 0.64047 0.13844 0.19997 0.0
H942 H 0.60681 0.1681 0.43124 0.0
H943 H 0.62568 0.15176 0.36152 0.0
C944 C 0.3573 0.46502 0.41133 0.0
C945 C 0.34604 0.47641 0.44858 0.0
C946 C 0.37406 0.44984 0.42244 0.0
C947 C 0.41206 0.43223 0.52179 0.0
H948 H 0.41517 0.37769 0.44721 0.0
C949 C 0.46287 0.35604 0.5832 0.0
C950 C 0.47536 0.34492 0.54752 0.0
C951 C 0.44816 0.3729 0.57013 0.0
C952 C 0.41467 0.39295 0.46799 0.0
H953 H 0.34397 0.48098 0.52685 0.0
H954 H 0.37262 0.45396 0.54629 0.0
H955 H 0.38739 0.4055 0.4266 0.0
H956 H 0.48225 0.34278 0.47018 0.0
H957 H 0.45642 0.37229 0.44724 0.0
H958 H 0.43906 0.41932 0.56387 0.0
C959 C 0.36876 0.45703 0.50837 0.0
C960 C 0.39878 0.40894 0.45615 0.0
C961 C 0.35209 0.47233 0.49724 0.0
C962 C 0.47293 0.35114 0.49847 0.0
C963 C 0.45804 0.36789 0.48533 0.0
C964 C 0.42784 0.41616 0.53385 0.0
C965 C 0.37989 0.44551 0.47111 0.0
C966 C 0.3972 0.42875 0.48301 0.0
C967 C 0.44547 0.37891 0.52104 0.0
C968 C 0.42925 0.39632 0.50719 0.0
H969 H 0.35292 0.4675 0.37346 0.0
H970 H 0.38246 0.44151 0.39277 0.0
H971 H 0.41161 0.44744 0.54271 0.0
H972 H 0.46456 0.35175 0.62134 0.0
H973 H 0.43856 0.38097 0.5984 0.0
C974 C 0.66169 0.95582 0.767 0.0
C975 C 0.65716 0.97246 0.80149 0.0
C976 C 0.64566 0.93999 0.75518 0.0
C977 C 0.58548 0.92921 0.75844 0.0
H978 H 0.60353 0.86773 0.74641 0.0
C979 C 0.52223 0.8578 0.73601 0.0
C980 C 0.52779 0.84071 0.70341 0.0
C981 C 0.5378 0.87403 0.74842 0.0
C982 C 0.59824 0.88486 0.74906 0.0
H983 H 0.63215 0.98542 0.85065 0.0
H984 H 0.60411 0.95786 0.82971 0.0
H985 H 0.631 0.89585 0.76671 0.0
H986 H 0.5539 0.82756 0.65738 0.0
H987 H 0.58098 0.85588 0.67874 0.0
H988 H 0.55274 0.91823 0.74048 0.0
C989 C 0.62003 0.95723 0.81149 0.0
C990 C 0.614 0.90097 0.76073 0.0
C991 C 0.63609 0.97303 0.82343 0.0
C992 C 0.54921 0.84028 0.68328 0.0
C993 C 0.56475 0.85652 0.69556 0.0
C994 C 0.56972 0.91309 0.74661 0.0
C995 C 0.62468 0.94045 0.77744 0.0
C996 C 0.60782 0.92334 0.76542 0.0
C997 C 0.55926 0.87356 0.72839 0.0
C998 C 0.57592 0.89072 0.74163 0.0
H999 H 0.6776 0.95512 0.74875 0.0
H1000 H 0.64964 0.92751 0.72818 0.0
H1001 H 0.58025 0.94635 0.76123 0.0
H1002 H 0.50594 0.85844 0.75256 0.0
H1003 H 0.53312 0.88674 0.77433 0.0
C1004 C 0.03005 0.13776 0.07818 0.0
C1005 C 0.0248 0.15462 0.0447 0.0
C1006 C 0.04595 0.12171 0.06688 0.0
C1007 C 0.07611 0.09641 0.96314 0.0
H1008 H 0.11738 0.07779 0.0635 0.0
C1009 C 0.15406 0.0444 0.92079 0.0
C1010 C 0.15927 0.027 0.95288 0.0
C1011 C 0.13731 0.05954 0.93216 0.0
C1012 C 0.10582 0.08263 0.03523 0.0
H1013 H 0.03198 0.1675 0.97261 0.0
H1014 H 0.06014 0.1399 0.95349 0.0
H1015 H 0.08879 0.10501 0.08275 0.0
H1016 H 0.15107 0.01197 0.02234 0.0
H1017 H 0.1216 0.0383 0.04198 0.0
H1018 H 0.09334 0.0742 0.91551 0.0
C1019 C 0.05173 0.13891 0.98827 0.0
C1020 C 0.08941 0.09822 0.04625 0.0
C1021 C 0.03576 0.15492 0.99949 0.0
C1022 C 0.14733 0.02508 0.99666 0.0
C1023 C 0.13061 0.04029 0.00813 0.0
C1024 C 0.09258 0.08089 0.95209 0.0
C1025 C 0.05708 0.12214 0.0219 0.0
C1026 C 0.07437 0.10533 0.01031 0.0
C1027 C 0.12539 0.05767 0.97595 0.0
C1028 C 0.10765 0.07387 0.98797 0.0
H1029 H 0.02217 0.13716 0.1136 0.0
H1030 H 0.04945 0.10888 0.09341 0.0
H1031 H 0.06458 0.10122 0.93479 0.0
H1032 H 0.16276 0.04621 0.88651 0.0
H1033 H 0.13385 0.07287 0.90683 0.0
C1034 C 0.96232 0.64581 0.16772 0.0
C1035 C 0.97391 0.65742 0.20415 0.0
C1036 C 0.94707 0.62931 0.18005 0.0
C1037 C 0.91143 0.61042 0.28064 0.0
H1038 H 0.90889 0.55562 0.20694 0.0
C1039 C 0.8552 0.53765 0.33825 0.0
C1040 C 0.84388 0.52626 0.30116 0.0
C1041 C 0.8716 0.55315 0.32683 0.0
C1042 C 0.90921 0.57093 0.22755 0.0
H1043 H 0.97882 0.66041 0.28215 0.0
H1044 H 0.95208 0.63168 0.30366 0.0
H1045 H 0.93659 0.58355 0.18635 0.0
H1046 H 0.84079 0.52232 0.22295 0.0
H1047 H 0.8693 0.54951 0.20294 0.0
H1048 H 0.88394 0.59796 0.32152 0.0
C1049 C 0.95463 0.63556 0.26555 0.0
C1050 C 0.92511 0.58692 0.21578 0.0
C1051 C 0.96994 0.65204 0.25322 0.0
C1052 C 0.84942 0.53061 0.25237 0.0
C1053 C 0.86578 0.54618 0.24092 0.0
C1054 C 0.8955 0.59447 0.29232 0.0
C1055 C 0.94298 0.62406 0.2291 0.0
C1056 C 0.92637 0.60687 0.24214 0.0
C1057 C 0.87703 0.55769 0.27802 0.0
C1058 C 0.89416 0.57454 0.26587 0.0
H1059 H 0.96468 0.64979 0.1296 0.0
H1060 H 0.93812 0.62099 0.15113 0.0
H1061 H 0.91174 0.62576 0.30116 0.0
H1062 H 0.85155 0.53441 0.37622 0.0
H1063 H 0.88019 0.56143 0.35632 0.0
C1064 C 0.34691 0.03287 0.74819 0.0
C1065 C 0.3432 0.02651 0.79676 0.0
C1066 C 0.36355 0.04814 0.73672 0.0
C1067 C 0.3975 0.09256 0.79171 0.0
H1068 H 0.43399 0.08473 0.67668 0.0
C1069 C 0.47276 0.14863 0.75171 0.0
C1070 C 0.47517 0.15618 0.70354 0.0
C1071 C 0.45732 0.13215 0.76304 0.0
C1072 C 0.42381 0.08724 0.7087 0.0
H1073 H 0.35449 0.0307 0.87121 0.0
H1074 H 0.38353 0.05725 0.85123 0.0
H1075 H 0.40576 0.05718 0.69648 0.0
H1076 H 0.46315 0.15228 0.62952 0.0
H1077 H 0.43632 0.12345 0.64929 0.0
H1078 H 0.4155 0.12261 0.80391 0.0
C1079 C 0.37331 0.05078 0.82207 0.0
C1080 C 0.40762 0.07147 0.72002 0.0
C1081 C 0.35667 0.03556 0.83353 0.0
C1082 C 0.46198 0.14662 0.66687 0.0
C1083 C 0.44658 0.1301 0.67819 0.0
C1084 C 0.4137 0.10828 0.78044 0.0
C1085 C 0.37688 0.05735 0.77357 0.0
C1086 C 0.39425 0.07397 0.76163 0.0
C1087 C 0.44395 0.1228 0.72647 0.0
C1088 C 0.42701 0.10583 0.73877 0.0
H1089 H 0.33664 0.02641 0.7191 0.0
H1090 H 0.36566 0.05308 0.69908 0.0
H1091 H 0.38724 0.09519 0.82357 0.0
H1092 H 0.48291 0.15537 0.7807 0.0
H1093 H 0.45594 0.12663 0.80046 0.0
C1094 C 0.8598 0.97048 0.9163 0.0
C1095 C 0.84255 0.97553 0.94895 0.0
C1096 C 0.87594 0.95478 0.92841 0.0
C1097 C 0.90047 0.92503 0.03378 0.0
H1098 H 0.92137 0.88433 0.93448 0.0
C1099 C 0.95362 0.84801 0.07853 0.0
C1100 C 0.97181 0.84368 0.04794 0.0
C1101 C 0.93818 0.86437 0.06638 0.0
C1102 C 0.91586 0.89572 0.96248 0.0
H1103 H 0.82903 0.96818 0.02038 0.0
H1104 H 0.85673 0.94035 0.04086 0.0
H1105 H 0.8938 0.91234 0.91357 0.0
H1106 H 0.9879 0.85296 0.98033 0.0
H1107 H 0.96094 0.88164 0.95919 0.0
H1108 H 0.92234 0.90815 0.0828 0.0
C1109 C 0.85799 0.94876 0.00612 0.0
C1110 C 0.90009 0.91182 0.9505 0.0
C1111 C 0.84191 0.96453 0.9941 0.0
C1112 C 0.97416 0.85604 0.00483 0.0
C1113 C 0.95862 0.87231 0.99251 0.0
C1114 C 0.91615 0.90885 0.04579 0.0
C1115 C 0.8752 0.94365 0.9734 0.0
C1116 C 0.89217 0.92666 0.98602 0.0
C1117 C 0.94049 0.87669 0.02322 0.0
C1118 C 0.92399 0.89401 0.01029 0.0
H1119 H 0.86069 0.97841 0.88096 0.0
H1120 H 0.8891 0.95146 0.90256 0.0
H1121 H 0.89506 0.93642 0.06185 0.0
H1122 H 0.95147 0.83891 0.11221 0.0
H1123 H 0.92427 0.86722 0.09056 0.0
C1124 C 0.0355 0.34133 0.25068 0.0
C1125 C 0.02454 0.34198 0.20552 0.0
C1126 C 0.05072 0.35783 0.26332 0.0
C1127 C 0.08771 0.39956 0.2093 0.0
H1128 H 0.08836 0.42436 0.33962 0.0
C1129 C 0.14484 0.47261 0.26155 0.0
C1130 C 0.15525 0.47164 0.30734 0.0
C1131 C 0.12826 0.45742 0.24919 0.0
C1132 C 0.08857 0.41744 0.30322 0.0
H1133 H 0.02099 0.36042 0.13816 0.0
H1134 H 0.04744 0.38933 0.16039 0.0
H1135 H 0.06058 0.39667 0.31808 0.0
H1136 H 0.15604 0.45414 0.37637 0.0
H1137 H 0.12759 0.42733 0.35436 0.0
H1138 H 0.11586 0.42005 0.19454 0.0
C1139 C 0.04433 0.376 0.18592 0.0
C1140 C 0.07262 0.40159 0.29088 0.0
C1141 C 0.02901 0.35957 0.1734 0.0
C1142 C 0.14857 0.4552 0.34057 0.0
C1143 C 0.13203 0.44 0.32818 0.0
C1144 C 0.10371 0.41533 0.22169 0.0
C1145 C 0.0554 0.37527 0.23095 0.0
C1146 C 0.07205 0.39244 0.24383 0.0
C1147 C 0.12171 0.44088 0.28229 0.0
C1148 C 0.10438 0.42442 0.26885 0.0
H1149 H 0.03226 0.32809 0.27637 0.0
H1150 H 0.05912 0.35671 0.29811 0.0
H1151 H 0.0879 0.39258 0.17295 0.0
H1152 H 0.14973 0.4849 0.23489 0.0
H1153 H 0.12049 0.45874 0.21375 0.0
C1154 C 0.53391 0.65489 0.49169 0.0
C1155 C 0.5251 0.65575 0.53911 0.0
C1156 C 0.54967 0.63887 0.47919 0.0
C1157 C 0.57157 0.58427 0.51501 0.0
H1158 H 0.62389 0.60266 0.44358 0.0
C1159 C 0.64669 0.52611 0.4865 0.0
C1160 C 0.65772 0.5271 0.44147 0.0
C1161 C 0.63019 0.54154 0.49804 0.0
C1162 C 0.60925 0.59715 0.46292 0.0
H1163 H 0.52618 0.64036 0.61059 0.0
H1164 H 0.55335 0.61222 0.58841 0.0
H1165 H 0.59542 0.62986 0.46363 0.0
H1166 H 0.65972 0.54468 0.37276 0.0
H1167 H 0.63076 0.57139 0.39248 0.0
H1168 H 0.58523 0.55152 0.51396 0.0
C1169 C 0.5479 0.62387 0.56086 0.0
C1170 C 0.59295 0.61277 0.47447 0.0
C1171 C 0.53226 0.63998 0.57349 0.0
C1172 C 0.65176 0.54371 0.40806 0.0
C1173 C 0.63518 0.55904 0.41944 0.0
C1174 C 0.5878 0.5686 0.50317 0.0
C1175 C 0.55688 0.62323 0.51368 0.0
C1176 C 0.57397 0.60651 0.50074 0.0
C1177 C 0.62425 0.55824 0.46467 0.0
C1178 C 0.60687 0.57485 0.47706 0.0
H1179 H 0.52852 0.6665 0.46403 0.0
H1180 H 0.55609 0.63859 0.44233 0.0
H1181 H 0.55699 0.57891 0.5348 0.0
H1182 H 0.65112 0.51366 0.51323 0.0
H1183 H 0.62239 0.54062 0.5335 0.0
loop_
_geom_bond_atom_site_label_1
_geom_bond_atom_site_label_2
_geom_bond_distance
_geom_bond_site_symmetry_2
_ccdc_geom_bond_type
Li0 N17 1.990 . S
Li0 O60 1.956 . S
Li0 O61 1.970 . S
Li0 O62 1.961 . S
Li1 N25 1.990 . S
Li1 O60 1.970 . S
Li1 O61 1.956 . S
Li1 O63 1.961 . S
Li2 N47 1.990 . S
Li2 O60 1.961 . S
Li2 O62 1.956 . S
Li2 O63 1.970 . S
Li3 N53 1.990 . S
Li3 O61 1.961 . S
Li3 O62 1.970 . S
Li3 O63 1.956 . S
C4 C6 1.348 . S
C4 C7 1.356 . S
C4 O60 1.325 . S
N5 C8 1.314 . S
N5 C9 1.279 . S
C6 C4 1.348 . S
C6 C8 1.353 . S
C6 H64 0.929 . S
C7 C4 1.356 . S
C7 C9 1.358 . S
C7 H65 0.930 . S
C8 N5 1.314 . S
C8 C6 1.353 . S
C8 H66 0.930 . S
C9 N5 1.279 . S
C9 C7 1.358 . S
C9 H67 0.930 . S
C10 C13 1.348 . S
C10 C14 1.356 . S
C10 O61 1.325 . S
C11 N12 1.279 . S
C11 C14 1.358 . S
C11 H68 0.930 . S
N12 C11 1.279 . S
N12 C15 1.314 . S
C13 C10 1.348 . S
C13 C15 1.353 . S
C13 H69 0.929 . S
C14 C10 1.356 . S
C14 C11 1.358 . S
C14 H70 0.930 . S
C15 N12 1.314 . S
C15 C13 1.353 . S
C15 H71 0.930 . S
C16 N17 1.314 . S
C16 C21 1.353 . S
C16 H22 0.930 . S
N17 Li0 1.990 . S
N17 C16 1.314 . S
N17 C19 1.279 . S
C18 C19 1.358 . S
C18 C20 1.356 . S
C18 H72 0.930 . S
C19 N17 1.279 . S
C19 C18 1.358 . S
C19 H23 0.930 . S
C20 C18 1.356 . S
C20 C21 1.348 . S
C21 C16 1.353 . S
C21 C20 1.348 . S
C21 H73 0.929 . S
H22 C16 0.930 . S
H23 C19 0.930 . S
C24 N25 1.314 . S
C24 C26 1.353 . S
C24 H30 0.930 . S
N25 Li1 1.990 . S
N25 C24 1.314 . S
N25 C28 1.279 . S
C26 C24 1.353 . S
C26 C29 1.348 . S
C26 H74 0.929 . S
C27 C28 1.358 . S
C27 C29 1.356 . S
C27 H75 0.930 . S
C28 N25 1.279 . S
C28 C27 1.358 . S
C28 H31 0.930 . S
C29 C26 1.348 . S
C29 C27 1.356 . S
H30 C24 0.930 . S
H31 C28 0.930 . S
C32 C34 1.348 . S
C32 C35 1.356 . S
C32 O62 1.325 . S
N33 C36 1.314 . S
N33 C37 1.279 . S
C34 C32 1.348 . S
C34 C36 1.353 . S
C34 H76 0.929 . S
C35 C32 1.356 . S
C35 C37 1.358 . S
C35 H77 0.930 . S
C36 N33 1.314 . S
C36 C34 1.353 . S
C36 H78 0.930 . S
C37 N33 1.279 . S
C37 C35 1.358 . S
C37 H79 0.930 . S
C38 C39 1.348 . S
C38 C40 1.356 . S
C38 O63 1.325 . S
C39 C38 1.348 . S
C39 C41 1.353 . S
C39 H80 0.929 . S
C40 C38 1.356 . S
C40 C42 1.358 . S
C40 H81 0.930 . S
C41 C39 1.353 . S
C41 N43 1.314 . S
C41 H82 0.930 . S
C42 C40 1.358 . S
C42 N43 1.279 . S
C42 H83 0.930 . S
N43 C41 1.314 . S
N43 C42 1.279 . S
C44 C46 1.353 . S
C44 N47 1.314 . S
C44 H50 0.930 . S
C45 N47 1.279 . S
C45 C48 1.358 . S
C45 H51 0.930 . S
C46 C44 1.353 . S
C46 C49 1.348 . S
C46 H84 0.929 . S
N47 Li2 1.990 . S
N47 C44 1.314 . S
N47 C45 1.279 . S
C48 C45 1.358 . S
C48 C49 1.356 . S
C48 H85 0.930 . S
C49 C46 1.348 . S
C49 C48 1.356 . S
H50 C44 0.930 . S
H51 C45 0.930 . S
C52 N53 1.314 . S
C52 C54 1.353 . S
C52 H58 0.930 . S
N53 Li3 1.990 . S
N53 C52 1.314 . S
N53 C56 1.279 . S
C54 C52 1.353 . S
C54 C57 1.348 . S
C54 H86 0.929 . S
C55 C56 1.358 . S
C55 C57 1.356 . S
C55 H87 0.930 . S
C56 N53 1.279 . S
C56 C55 1.358 . S
C56 H59 0.930 . S
C57 C54 1.348 . S
C57 C55 1.356 . S
H58 C52 0.930 . S
H59 C56 0.930 . S
O60 Li0 1.956 . S
O60 Li1 1.970 . S
O60 Li2 1.961 . S
O60 C4 1.325 . S
O61 Li0 1.970 . S
O61 Li1 1.956 . S
O61 Li3 1.961 . S
O61 C10 1.325 . S
O62 Li0 1.961 . S
O62 Li2 1.956 . S
O62 Li3 1.970 . S
O62 C32 1.325 . S
O63 Li1 1.961 . S
O63 Li2 1.970 . S
O63 Li3 1.956 . S
O63 C38 1.325 . S
H64 C6 0.929 . S
H65 C7 0.930 . S
H66 C8 0.930 . S
H67 C9 0.930 . S
H68 C11 0.930 . S
H69 C13 0.929 . S
H70 C14 0.930 . S
H71 C15 0.930 . S
H72 C18 0.930 . S
H73 C21 0.929 . S
H74 C26 0.929 . S
H75 C27 0.930 . S
H76 C34 0.929 . S
H77 C35 0.930 . S
H78 C36 0.930 . S
H79 C37 0.930 . S
H80 C39 0.929 . S
H81 C40 0.930 . S
H82 C41 0.930 . S
H83 C42 0.930 . S
H84 C46 0.929 . S
H85 C48 0.930 . S
H86 C54 0.929 . S
H87 C55 0.930 . S
Li88 N105 1.990 . S
Li88 O148 1.956 . S
Li88 O149 1.970 . S
Li88 O150 1.961 . S
Li89 N113 1.990 . S
Li89 O148 1.970 . S
Li89 O149 1.956 . S
Li89 O151 1.961 . S
Li90 N135 1.990 . S
Li90 O148 1.961 . S
Li90 O150 1.956 . S
Li90 O151 1.970 . S
Li91 N141 1.990 . S
Li91 O149 1.961 . S
Li91 O150 1.970 . S
Li91 O151 1.956 . S
C92 C94 1.348 . S
C92 C95 1.356 . S
C92 O148 1.325 . S
N93 C96 1.314 . S
N93 C97 1.279 . S
C94 C92 1.348 . S
C94 C96 1.353 . S
C94 H152 0.929 . S
C95 C92 1.356 . S
C95 C97 1.358 . S
C95 H153 0.930 . S
C96 N93 1.314 . S
C96 C94 1.353 . S
C96 H154 0.930 . S
C97 N93 1.279 . S
C97 C95 1.358 . S
C97 H155 0.930 . S
C98 C101 1.348 . S
C98 C102 1.356 . S
C98 O149 1.325 . S
C99 N100 1.279 . S
C99 C102 1.358 . S
C99 H156 0.930 . S
N100 C99 1.279 . S
N100 C103 1.314 . S
C101 C98 1.348 . S
C101 C103 1.353 . S
C101 H157 0.929 . S
C102 C98 1.356 . S
C102 C99 1.358 . S
C102 H158 0.930 . S
C103 N100 1.314 . S
C103 C101 1.353 . S
C103 H159 0.930 . S
C104 N105 1.314 . S
C104 C109 1.353 . S
C104 H110 0.930 . S
N105 Li88 1.990 . S
N105 C104 1.314 . S
N105 C107 1.279 . S
C106 C107 1.358 . S
C106 C108 1.356 . S
C106 H160 0.930 . S
C107 N105 1.279 . S
C107 C106 1.358 . S
C107 H111 0.930 . S
C108 C106 1.356 . S
C108 C109 1.348 . S
C109 C104 1.353 . S
C109 C108 1.348 . S
C109 H161 0.929 . S
H110 C104 0.930 . S
H111 C107 0.930 . S
C112 N113 1.314 . S
C112 C114 1.353 . S
C112 H118 0.930 . S
N113 Li89 1.990 . S
N113 C112 1.314 . S
N113 C116 1.279 . S
C114 C112 1.353 . S
C114 C117 1.348 . S
C114 H162 0.929 . S
C115 C116 1.358 . S
C115 C117 1.356 . S
C115 H163 0.930 . S
C116 N113 1.279 . S
C116 C115 1.358 . S
C116 H119 0.930 . S
C117 C114 1.348 . S
C117 C115 1.356 . S
H118 C112 0.930 . S
H119 C116 0.930 . S
C120 C122 1.348 . S
C120 C123 1.356 . S
C120 O150 1.325 . S
N121 C124 1.314 . S
N121 C125 1.279 . S
C122 C120 1.348 . S
C122 C124 1.353 . S
C122 H164 0.929 . S
C123 C120 1.356 . S
C123 C125 1.358 . S
C123 H165 0.930 . S
C124 N121 1.314 . S
C124 C122 1.353 . S
C124 H166 0.930 . S
C125 N121 1.279 . S
C125 C123 1.358 . S
C125 H167 0.930 . S
C126 C127 1.348 . S
C126 C128 1.356 . S
C126 O151 1.325 . S
C127 C126 1.348 . S
C127 C129 1.353 . S
C127 H168 0.929 . S
C128 C126 1.356 . S
C128 C130 1.358 . S
C128 H169 0.930 . S
C129 C127 1.353 . S
C129 N131 1.314 . S
C129 H170 0.930 . S
C130 C128 1.358 . S
C130 N131 1.279 . S
C130 H171 0.930 . S
N131 C129 1.314 . S
N131 C130 1.279 . S
C132 C134 1.353 . S
C132 N135 1.314 . S
C132 H138 0.930 . S
C133 N135 1.279 . S
C133 C136 1.358 . S
C133 H139 0.930 . S
C134 C132 1.353 . S
C134 C137 1.348 . S
C134 H172 0.929 . S
N135 Li90 1.990 . S
N135 C132 1.314 . S
N135 C133 1.279 . S
C136 C133 1.358 . S
C136 C137 1.356 . S
C136 H173 0.930 . S
C137 C134 1.348 . S
C137 C136 1.356 . S
H138 C132 0.930 . S
H139 C133 0.930 . S
C140 N141 1.314 . S
C140 C142 1.353 . S
C140 H146 0.930 . S
N141 Li91 1.990 . S
N141 C140 1.314 . S
N141 C144 1.279 . S
C142 C140 1.353 . S
C142 C145 1.348 . S
C142 H174 0.929 . S
C143 C144 1.358 . S
C143 C145 1.356 . S
C143 H175 0.930 . S
C144 N141 1.279 . S
C144 C143 1.358 . S
C144 H147 0.930 . S
C145 C142 1.348 . S
C145 C143 1.356 . S
H146 C140 0.930 . S
H147 C144 0.930 . S
O148 Li88 1.956 . S
O148 Li89 1.970 . S
O148 Li90 1.961 . S
O148 C92 1.325 . S
O149 Li88 1.970 . S
O149 Li89 1.956 . S
O149 Li91 1.961 . S
O149 C98 1.325 . S
O150 Li88 1.961 . S
O150 Li90 1.956 . S
O150 Li91 1.970 . S
O150 C120 1.325 . S
O151 Li89 1.961 . S
O151 Li90 1.970 . S
O151 Li91 1.956 . S
O151 C126 1.325 . S
H152 C94 0.929 . S
H153 C95 0.930 . S
H154 C96 0.930 . S
H155 C97 0.930 . S
H156 C99 0.930 . S
H157 C101 0.929 . S
H158 C102 0.930 . S
H159 C103 0.930 . S
H160 C106 0.930 . S
H161 C109 0.929 . S
H162 C114 0.929 . S
H163 C115 0.930 . S
H164 C122 0.929 . S
H165 C123 0.930 . S
H166 C124 0.930 . S
H167 C125 0.930 . S
H168 C127 0.929 . S
H169 C128 0.930 . S
H170 C129 0.930 . S
H171 C130 0.930 . S
H172 C134 0.929 . S
H173 C136 0.930 . S
H174 C142 0.929 . S
H175 C143 0.930 . S
Li176 N193 1.990 . S
Li176 O236 1.956 . S
Li176 O237 1.970 . S
Li176 O238 1.961 . S
Li177 N201 1.990 . S
Li177 O236 1.970 . S
Li177 O237 1.956 . S
Li177 O239 1.961 . S
Li178 N223 1.990 . S
Li178 O236 1.961 . S
Li178 O238 1.956 . S
Li178 O239 1.970 . S
Li179 N229 1.990 . S
Li179 O237 1.961 . S
Li179 O238 1.970 . S
Li179 O239 1.956 . S
C180 C182 1.348 . S
C180 C183 1.356 . S
C180 O236 1.325 . S
N181 C184 1.314 . S
N181 C185 1.279 . S
C182 C180 1.348 . S
C182 C184 1.353 . S
C182 H240 0.929 . S
C183 C180 1.356 . S
C183 C185 1.358 . S
C183 H241 0.930 . S
C184 N181 1.314 . S
C184 C182 1.353 . S
C184 H242 0.930 . S
C185 N181 1.279 . S
C185 C183 1.358 . S
C185 H243 0.930 . S
C186 C189 1.348 . S
C186 C190 1.336 1_556 S
C186 O237 1.325 . S
C187 N188 1.280 1_565 S
C187 C190 1.375 . S
C187 H244 0.930 . S
N188 C187 1.280 1_545 S
N188 C191 1.314 1_544 S
C189 C186 1.348 . S
C189 C191 1.353 . S
C189 H245 0.929 . S
C190 C186 1.336 1_554 S
C190 C187 1.375 . S
C190 H246 0.933 . S
C191 N188 1.314 1_566 S
C191 C189 1.353 . S
C191 H247 0.930 1_565 S
C192 N193 1.318 . S
C192 C197 1.351 1_565 S
C192 H198 0.928 1_565 S
N193 Li176 1.990 . S
N193 C192 1.318 . S
N193 C195 1.279 . S
C194 C195 1.358 . S
C194 C196 1.356 1_565 S
C194 H248 0.930 . S
C195 N193 1.279 . S
C195 C194 1.358 . S
C195 H199 0.930 . S
C196 C194 1.356 1_545 S
C196 C197 1.348 . S
C197 C192 1.351 1_545 S
C197 C196 1.348 . S
C197 H249 0.929 . S
H198 C192 0.928 1_545 S
H199 C195 0.930 . S
C200 N201 1.314 . S
C200 C202 1.353 1_556 S
C200 H206 0.930 . S
N201 Li177 1.990 . S
N201 C200 1.314 . S
N201 C204 1.279 1_556 S
C202 C200 1.353 1_554 S
C202 C205 1.348 . S
C202 H250 0.929 . S
C203 C204 1.358 . S
C203 C205 1.356 . S
C203 H251 0.930 . S
C204 N201 1.279 1_554 S
C204 C203 1.358 . S
C204 H207 0.930 . S
C205 C202 1.348 . S
C205 C203 1.356 . S
H206 C200 0.930 . S
H207 C204 0.930 . S
C208 C210 1.348 . S
C208 C211 1.356 . S
C208 O238 1.325 . S
N209 C212 1.314 1_545 S
N209 C213 1.280 1_545 S
C210 C208 1.348 . S
C210 C212 1.353 . S
C210 H252 0.929 . S
C211 C208 1.356 . S
C211 C213 1.358 . S
C211 H253 0.930 . S
C212 N209 1.314 1_565 S
C212 C210 1.353 . S
C212 H254 0.930 1_565 S
C213 N209 1.280 1_565 S
C213 C211 1.358 . S
C213 H255 0.930 . S
C214 C215 1.348 . S
C214 C216 1.356 . S
C214 O239 1.325 . S
C215 C214 1.348 . S
C215 C217 1.353 . S
C215 H256 0.929 . S
C216 C214 1.356 . S
C216 C218 1.358 . S
C216 H257 0.930 . S
C217 C215 1.353 . S
C217 N219 1.314 . S
C217 H258 0.930 . S
C218 C216 1.358 . S
C218 N219 1.279 . S
C218 H259 0.930 1_556 S
N219 C217 1.314 . S
N219 C218 1.279 . S
C220 C222 1.353 . S
C220 N223 1.314 . S
C220 H226 0.930 . S
C221 N223 1.279 . S
C221 C224 1.358 . S
C221 H227 0.930 . S
C222 C220 1.353 . S
C222 C225 1.348 . S
C222 H260 0.929 . S
N223 Li178 1.990 . S
N223 C220 1.314 . S
N223 C221 1.279 . S
C224 C221 1.358 . S
C224 C225 1.356 . S
C224 H261 0.930 . S
C225 C222 1.348 . S
C225 C224 1.356 . S
H226 C220 0.930 . S
H227 C221 0.930 . S
C228 N229 1.318 . S
C228 C230 1.351 1_565 S
C228 H234 0.928 1_565 S
N229 Li179 1.990 . S
N229 C228 1.318 . S
N229 C232 1.279 . S
C230 C228 1.351 1_545 S
C230 C233 1.348 . S
C230 H262 0.929 . S
C231 C232 1.358 . S
C231 C233 1.356 1_565 S
C231 H263 0.930 . S
C232 N229 1.279 . S
C232 C231 1.358 . S
C232 H235 0.930 . S
C233 C230 1.348 . S
C233 C231 1.356 1_545 S
H234 C228 0.928 1_545 S
H235 C232 0.930 . S
O236 Li176 1.956 . S
O236 Li177 1.970 . S
O236 Li178 1.961 . S
O236 C180 1.325 . S
O237 Li176 1.970 . S
O237 Li177 1.956 . S
O237 Li179 1.961 . S
O237 C186 1.325 . S
O238 Li176 1.961 . S
O238 Li178 1.956 . S
O238 Li179 1.970 . S
O238 C208 1.325 . S
O239 Li177 1.961 . S
O239 Li178 1.970 . S
O239 Li179 1.956 . S
O239 C214 1.325 . S
H240 C182 0.929 . S
H241 C183 0.930 . S
H242 C184 0.930 . S
H243 C185 0.930 . S
H244 C187 0.930 . S
H245 C189 0.929 . S
H246 C190 0.933 . S
H247 C191 0.930 1_545 S
H248 C194 0.930 . S
H249 C197 0.929 . S
H250 C202 0.929 . S
H251 C203 0.930 . S
H252 C210 0.929 . S
H253 C211 0.930 . S
H254 C212 0.930 1_545 S
H255 C213 0.930 . S
H256 C215 0.929 . S
H257 C216 0.930 . S
H258 C217 0.930 . S
H259 C218 0.930 1_554 S
H260 C222 0.929 . S
H261 C224 0.930 . S
H262 C230 0.929 . S
H263 C231 0.930 . S
Li264 N281 1.990 . S
Li264 O324 1.956 . S
Li264 O325 1.970 . S
Li264 O326 1.961 . S
Li265 N289 1.990 . S
Li265 O324 1.970 . S
Li265 O325 1.956 . S
Li265 O327 1.961 . S
Li266 N311 1.990 . S
Li266 O324 1.961 . S
Li266 O326 1.956 . S
Li266 O327 1.970 . S
Li267 N317 1.990 . S
Li267 O325 1.961 . S
Li267 O326 1.970 . S
Li267 O327 1.956 . S
C268 C270 1.348 . S
C268 C271 1.356 . S
C268 O324 1.325 . S
N269 C272 1.314 . S
N269 C273 1.279 . S
C270 C268 1.348 . S
C270 C272 1.353 . S
C270 H328 0.929 . S
C271 C268 1.356 . S
C271 C273 1.358 . S
C271 H329 0.930 . S
C272 N269 1.314 . S
C272 C270 1.353 . S
C272 H330 0.930 . S
C273 N269 1.279 . S
C273 C271 1.358 . S
C273 H331 0.930 1_554 S
C274 C277 1.348 . S
C274 C278 1.356 . S
C274 O325 1.325 . S
C275 N276 1.280 1_455 S
C275 C278 1.358 . S
C275 H332 0.930 . S
N276 C275 1.280 1_655 S
N276 C279 1.314 1_655 S
C277 C274 1.348 . S
C277 C279 1.353 . S
C277 H333 0.929 . S
C278 C274 1.356 . S
C278 C275 1.358 . S
C278 H334 0.930 . S
C279 N276 1.314 1_455 S
C279 C277 1.353 . S
C279 H335 0.930 1_455 S
C280 N281 1.318 . S
C280 C285 1.351 1_455 S
C280 H286 0.928 1_455 S
N281 Li264 1.990 . S
N281 C280 1.318 . S
N281 C283 1.279 . S
C282 C283 1.358 . S
C282 C284 1.356 1_455 S
C282 H336 0.930 . S
C283 N281 1.279 . S
C283 C282 1.358 . S
C283 H287 0.930 . S
C284 C282 1.356 1_655 S
C284 C285 1.348 . S
C285 C280 1.351 1_655 S
C285 C284 1.348 . S
C285 H337 0.929 . S
H286 C280 0.928 1_655 S
H287 C283 0.930 . S
C288 N289 1.314 . S
C288 C290 1.353 . S
C288 H294 0.930 . S
N289 Li265 1.990 . S
N289 C288 1.314 . S
N289 C292 1.279 . S
C290 C288 1.353 . S
C290 C293 1.348 . S
C290 H338 0.929 . S
C291 C292 1.358 . S
C291 C293 1.356 . S
C291 H339 0.930 . S
C292 N289 1.279 . S
C292 C291 1.358 . S
C292 H295 0.930 . S
C293 C290 1.348 . S
C293 C291 1.356 . S
H294 C288 0.930 . S
H295 C292 0.930 . S
C296 C298 1.348 . S
C296 C299 1.336 1_554 S
C296 O326 1.325 . S
N297 C300 1.314 1_656 S
N297 C301 1.280 1_655 S
C298 C296 1.348 . S
C298 C300 1.353 . S
C298 H340 0.929 . S
C299 C296 1.336 1_556 S
C299 C301 1.375 . S
C299 H341 0.933 . S
C300 N297 1.314 1_454 S
C300 C298 1.353 . S
C300 H342 0.930 1_455 S
C301 N297 1.280 1_455 S
C301 C299 1.375 . S
C301 H343 0.930 . S
C302 C303 1.348 . S
C302 C304 1.356 . S
C302 O327 1.325 . S
C303 C302 1.348 . S
C303 C305 1.353 . S
C303 H344 0.929 . S
C304 C302 1.356 . S
C304 C306 1.358 . S
C304 H345 0.930 . S
C305 C303 1.353 . S
C305 N307 1.314 . S
C305 H346 0.930 . S
C306 C304 1.358 . S
C306 N307 1.279 . S
C306 H347 0.930 . S
N307 C305 1.314 . S
N307 C306 1.279 . S
C308 C310 1.353 1_554 S
C308 N311 1.314 . S
C308 H314 0.930 . S
C309 N311 1.279 1_556 S
C309 C312 1.358 . S
C309 H315 0.930 . S
C310 C308 1.353 1_556 S
C310 C313 1.348 . S
C310 H348 0.929 . S
N311 Li266 1.990 . S
N311 C308 1.314 . S
N311 C309 1.279 1_554 S
C312 C309 1.358 . S
C312 C313 1.356 . S
C312 H349 0.930 . S
C313 C310 1.348 . S
C313 C312 1.356 . S
H314 C308 0.930 . S
H315 C309 0.930 . S
C316 N317 1.318 . S
C316 C318 1.351 1_455 S
C316 H322 0.928 1_455 S
N317 Li267 1.990 . S
N317 C316 1.318 . S
N317 C320 1.279 . S
C318 C316 1.351 1_655 S
C318 C321 1.348 . S
C318 H350 0.929 . S
C319 C320 1.358 . S
C319 C321 1.356 1_455 S
C319 H351 0.930 . S
C320 N317 1.279 . S
C320 C319 1.358 . S
C320 H323 0.930 . S
C321 C318 1.348 . S
C321 C319 1.356 1_655 S
H322 C316 0.928 1_655 S
H323 C320 0.930 . S
O324 Li264 1.956 . S
O324 Li265 1.970 . S
O324 Li266 1.961 . S
O324 C268 1.325 . S
O325 Li264 1.970 . S
O325 Li265 1.956 . S
O325 Li267 1.961 . S
O325 C274 1.325 . S
O326 Li264 1.961 . S
O326 Li266 1.956 . S
O326 Li267 1.970 . S
O326 C296 1.325 . S
O327 Li265 1.961 . S
O327 Li266 1.970 . S
O327 Li267 1.956 . S
O327 C302 1.325 . S
H328 C270 0.929 . S
H329 C271 0.930 . S
H330 C272 0.930 . S
H331 C273 0.930 1_556 S
H332 C275 0.930 . S
H333 C277 0.929 . S
H334 C278 0.930 . S
H335 C279 0.930 1_655 S
H336 C282 0.930 . S
H337 C285 0.929 . S
H338 C290 0.929 . S
H339 C291 0.930 . S
H340 C298 0.929 . S
H341 C299 0.933 . S
H342 C300 0.930 1_655 S
H343 C301 0.930 . S
H344 C303 0.929 . S
H345 C304 0.930 . S
H346 C305 0.930 . S
H347 C306 0.930 . S
H348 C310 0.929 . S
H349 C312 0.930 . S
H350 C318 0.929 . S
H351 C319 0.930 . S
Li352 N369 1.990 . S
Li352 O412 1.956 . S
Li352 O413 1.970 . S
Li352 O414 1.961 . S
Li353 N377 1.990 . S
Li353 O412 1.970 . S
Li353 O413 1.956 . S
Li353 O415 1.961 . S
Li354 N399 1.990 . S
Li354 O412 1.961 . S
Li354 O414 1.956 . S
Li354 O415 1.970 . S
Li355 N405 1.990 . S
Li355 O413 1.961 . S
Li355 O414 1.970 . S
Li355 O415 1.956 . S
C356 C358 1.348 . S
C356 C359 1.336 1_556 S
C356 O412 1.325 . S
N357 C360 1.314 1_564 S
N357 C361 1.280 1_565 S
C358 C356 1.348 . S
C358 C360 1.353 . S
C358 H416 0.929 . S
C359 C356 1.336 1_554 S
C359 C361 1.375 . S
C359 H417 0.933 . S
C360 N357 1.314 1_546 S
C360 C358 1.353 . S
C360 H418 0.930 1_545 S
C361 N357 1.280 1_545 S
C361 C359 1.375 . S
C361 H419 0.930 . S
C362 C365 1.348 . S
C362 C366 1.356 . S
C362 O413 1.325 . S
C363 N364 1.279 . S
C363 C366 1.358 . S
C363 H420 0.930 . S
N364 C363 1.279 . S
N364 C367 1.314 . S
C365 C362 1.348 . S
C365 C367 1.353 . S
C365 H421 0.929 . S
C366 C362 1.356 . S
C366 C363 1.358 . S
C366 H422 0.930 . S
C367 N364 1.314 . S
C367 C365 1.353 . S
C367 H423 0.930 . S
C368 N369 1.314 . S
C368 C373 1.353 1_556 S
C368 H374 0.930 . S
N369 Li352 1.990 . S
N369 C368 1.314 . S
N369 C371 1.279 1_556 S
C370 C371 1.358 . S
C370 C372 1.356 . S
C370 H424 0.930 . S
C371 N369 1.279 1_554 S
C371 C370 1.358 . S
C371 H375 0.930 . S
C372 C370 1.356 . S
C372 C373 1.348 . S
C373 C368 1.353 1_554 S
C373 C372 1.348 . S
C373 H425 0.929 . S
H374 C368 0.930 . S
H375 C371 0.930 . S
C376 N377 1.318 . S
C376 C378 1.351 1_545 S
C376 H382 0.928 1_545 S
N377 Li353 1.990 . S
N377 C376 1.318 . S
N377 C380 1.279 . S
C378 C376 1.351 1_565 S
C378 C381 1.348 . S
C378 H426 0.929 . S
C379 C380 1.358 . S
C379 C381 1.356 1_545 S
C379 H427 0.930 . S
C380 N377 1.279 . S
C380 C379 1.358 . S
C380 H383 0.930 . S
C381 C378 1.348 . S
C381 C379 1.356 1_565 S
H382 C376 0.928 1_565 S
H383 C380 0.930 . S
C384 C386 1.348 . S
C384 C387 1.356 . S
C384 O414 1.325 . S
N385 C388 1.314 . S
N385 C389 1.279 . S
C386 C384 1.348 . S
C386 C388 1.353 . S
C386 H428 0.929 . S
C387 C384 1.356 . S
C387 C389 1.358 . S
C387 H429 0.930 . S
C388 N385 1.314 . S
C388 C386 1.353 . S
C388 H430 0.930 . S
C389 N385 1.279 . S
C389 C387 1.358 . S
C389 H431 0.930 1_556 S
C390 C391 1.348 . S
C390 C392 1.356 . S
C390 O415 1.325 . S
C391 C390 1.348 . S
C391 C393 1.353 . S
C391 H432 0.929 . S
C392 C390 1.356 . S
C392 C394 1.358 . S
C392 H433 0.930 . S
C393 C391 1.353 . S
C393 N395 1.314 1_545 S
C393 H434 0.930 1_545 S
C394 C392 1.358 . S
C394 N395 1.280 1_545 S
C394 H435 0.930 . S
N395 C393 1.314 1_565 S
N395 C394 1.280 1_565 S
C396 C398 1.351 1_545 S
C396 N399 1.318 . S
C396 H402 0.928 1_545 S
C397 N399 1.279 . S
C397 C400 1.358 . S
C397 H403 0.930 . S
C398 C396 1.351 1_565 S
C398 C401 1.348 . S
C398 H436 0.929 . S
N399 Li354 1.990 . S
N399 C396 1.318 . S
N399 C397 1.279 . S
C400 C397 1.358 . S
C400 C401 1.356 1_545 S
C400 H437 0.930 . S
C401 C398 1.348 . S
C401 C400 1.356 1_565 S
H402 C396 0.928 1_565 S
H403 C397 0.930 . S
C404 N405 1.314 . S
C404 C406 1.353 . S
C404 H410 0.930 . S
N405 Li355 1.990 . S
N405 C404 1.314 . S
N405 C408 1.279 . S
C406 C404 1.353 . S
C406 C409 1.348 . S
C406 H438 0.929 . S
C407 C408 1.358 . S
C407 C409 1.356 . S
C407 H439 0.930 . S
C408 N405 1.279 . S
C408 C407 1.358 . S
C408 H411 0.930 . S
C409 C406 1.348 . S
C409 C407 1.356 . S
H410 C404 0.930 . S
H411 C408 0.930 . S
O412 Li352 1.956 . S
O412 Li353 1.970 . S
O412 Li354 1.961 . S
O412 C356 1.325 . S
O413 Li352 1.970 . S
O413 Li353 1.956 . S
O413 Li355 1.961 . S
O413 C362 1.325 . S
O414 Li352 1.961 . S
O414 Li354 1.956 . S
O414 Li355 1.970 . S
O414 C384 1.325 . S
O415 Li353 1.961 . S
O415 Li354 1.970 . S
O415 Li355 1.956 . S
O415 C390 1.325 . S
H416 C358 0.929 . S
H417 C359 0.933 . S
H418 C360 0.930 1_565 S
H419 C361 0.930 . S
H420 C363 0.930 . S
H421 C365 0.929 . S
H422 C366 0.930 . S
H423 C367 0.930 . S
H424 C370 0.930 . S
H425 C373 0.929 . S
H426 C378 0.929 . S
H427 C379 0.930 . S
H428 C386 0.929 . S
H429 C387 0.930 . S
H430 C388 0.930 . S
H431 C389 0.930 1_554 S
H432 C391 0.929 . S
H433 C392 0.930 . S
H434 C393 0.930 1_565 S
H435 C394 0.930 . S
H436 C398 0.929 . S
H437 C400 0.930 . S
H438 C406 0.929 . S
H439 C407 0.930 . S
Li440 N457 1.990 . S
Li440 O500 1.956 . S
Li440 O501 1.970 . S
Li440 O502 1.961 . S
Li441 N465 1.990 . S
Li441 O500 1.970 . S
Li441 O501 1.956 . S
Li441 O503 1.961 . S
Li442 N487 1.990 . S
Li442 O500 1.961 . S
Li442 O502 1.956 . S
Li442 O503 1.970 . S
Li443 N493 1.990 . S
Li443 O501 1.961 . S
Li443 O502 1.970 . S
Li443 O503 1.956 . S
C444 C446 1.348 . S
C444 C447 1.356 . S
C444 O500 1.325 . S
N445 C448 1.314 1_455 S
N445 C449 1.280 1_455 S
C446 C444 1.348 . S
C446 C448 1.353 . S
C446 H504 0.929 . S
C447 C444 1.356 . S
C447 C449 1.358 . S
C447 H505 0.930 . S
C448 N445 1.314 1_655 S
C448 C446 1.353 . S
C448 H506 0.930 1_655 S
C449 N445 1.280 1_655 S
C449 C447 1.358 . S
C449 H507 0.930 . S
C450 C453 1.348 . S
C450 C454 1.356 . S
C450 O501 1.325 . S
C451 N452 1.279 . S
C451 C454 1.358 . S
C451 H508 0.930 1_554 S
N452 C451 1.279 . S
N452 C455 1.314 . S
C453 C450 1.348 . S
C453 C455 1.353 . S
C453 H509 0.929 . S
C454 C450 1.356 . S
C454 C451 1.358 . S
C454 H510 0.930 . S
C455 N452 1.314 . S
C455 C453 1.353 . S
C455 H511 0.930 . S
C456 N457 1.314 . S
C456 C461 1.353 . S
C456 H462 0.930 . S
N457 Li440 1.990 . S
N457 C456 1.314 . S
N457 C459 1.279 . S
C458 C459 1.358 . S
C458 C460 1.356 . S
C458 H512 0.930 . S
C459 N457 1.279 . S
C459 C458 1.358 . S
C459 H463 0.930 . S
C460 C458 1.356 . S
C460 C461 1.348 . S
C461 C456 1.353 . S
C461 C460 1.348 . S
C461 H513 0.929 . S
H462 C456 0.930 . S
H463 C459 0.930 . S
C464 N465 1.318 . S
C464 C466 1.351 1_655 S
C464 H470 0.928 1_655 S
N465 Li441 1.990 . S
N465 C464 1.318 . S
N465 C468 1.279 . S
C466 C464 1.351 1_455 S
C466 C469 1.348 . S
C466 H514 0.929 . S
C467 C468 1.358 . S
C467 C469 1.356 1_655 S
C467 H515 0.930 . S
C468 N465 1.279 . S
C468 C467 1.358 . S
C468 H471 0.930 . S
C469 C466 1.348 . S
C469 C467 1.356 1_455 S
H470 C464 0.928 1_455 S
H471 C468 0.930 . S
C472 C474 1.348 . S
C472 C475 1.356 . S
C472 O502 1.325 . S
N473 C476 1.314 . S
N473 C477 1.279 . S
C474 C472 1.348 . S
C474 C476 1.353 . S
C474 H516 0.929 . S
C475 C472 1.356 . S
C475 C477 1.358 . S
C475 H517 0.930 . S
C476 N473 1.314 . S
C476 C474 1.353 . S
C476 H518 0.930 . S
C477 N473 1.279 . S
C477 C475 1.358 . S
C477 H519 0.930 . S
C478 C479 1.348 . S
C478 C480 1.336 1_554 S
C478 O503 1.325 . S
C479 C478 1.348 . S
C479 C481 1.353 . S
C479 H520 0.929 . S
C480 C478 1.336 1_556 S
C480 C482 1.375 . S
C480 H521 0.933 . S
C481 C479 1.353 . S
C481 N483 1.314 1_654 S
C481 H522 0.930 1_655 S
C482 C480 1.375 . S
C482 N483 1.280 1_655 S
C482 H523 0.930 . S
N483 C481 1.314 1_456 S
N483 C482 1.280 1_455 S
C484 C486 1.351 1_655 S
C484 N487 1.318 . S
C484 H490 0.928 1_655 S
C485 N487 1.279 . S
C485 C488 1.358 . S
C485 H491 0.930 . S
C486 C484 1.351 1_455 S
C486 C489 1.348 . S
C486 H524 0.929 . S
N487 Li442 1.990 . S
N487 C484 1.318 . S
N487 C485 1.279 . S
C488 C485 1.358 . S
C488 C489 1.356 1_655 S
C488 H525 0.930 . S
C489 C486 1.348 . S
C489 C488 1.356 1_455 S
H490 C484 0.928 1_455 S
H491 C485 0.930 . S
C492 N493 1.314 . S
C492 C494 1.353 1_554 S
C492 H498 0.930 . S
N493 Li443 1.990 . S
N493 C492 1.314 . S
N493 C496 1.279 1_554 S
C494 C492 1.353 1_556 S
C494 C497 1.348 . S
C494 H526 0.929 . S
C495 C496 1.358 . S
C495 C497 1.356 . S
C495 H527 0.930 . S
C496 N493 1.279 1_556 S
C496 C495 1.358 . S
C496 H499 0.930 . S
C497 C494 1.348 . S
C497 C495 1.356 . S
H498 C492 0.930 . S
H499 C496 0.930 . S
O500 Li440 1.956 . S
O500 Li441 1.970 . S
O500 Li442 1.961 . S
O500 C444 1.325 . S
O501 Li440 1.970 . S
O501 Li441 1.956 . S
O501 Li443 1.961 . S
O501 C450 1.325 . S
O502 Li440 1.961 . S
O502 Li442 1.956 . S
O502 Li443 1.970 . S
O502 C472 1.325 . S
O503 Li441 1.961 . S
O503 Li442 1.970 . S
O503 Li443 1.956 . S
O503 C478 1.325 . S
H504 C446 0.929 . S
H505 C447 0.930 . S
H506 C448 0.930 1_455 S
H507 C449 0.930 . S
H508 C451 0.930 1_556 S
H509 C453 0.929 . S
H510 C454 0.930 . S
H511 C455 0.930 . S
H512 C458 0.930 . S
H513 C461 0.929 . S
H514 C466 0.929 . S
H515 C467 0.930 . S
H516 C474 0.929 . S
H517 C475 0.930 . S
H518 C476 0.930 . S
H519 C477 0.930 . S
H520 C479 0.929 . S
H521 C480 0.933 . S
H522 C481 0.930 1_455 S
H523 C482 0.930 . S
H524 C486 0.929 . S
H525 C488 0.930 . S
H526 C494 0.929 . S
H527 C495 0.930 . S
Li528 N545 1.990 . S
Li528 O588 1.956 . S
Li528 O589 1.970 . S
Li528 O590 1.961 . S
Li529 N553 1.990 . S
Li529 O588 1.970 . S
Li529 O589 1.956 . S
Li529 O591 1.961 . S
Li530 N575 1.990 . S
Li530 O588 1.961 . S
Li530 O590 1.956 . S
Li530 O591 1.970 . S
Li531 N581 1.990 . S
Li531 O589 1.961 . S
Li531 O590 1.970 . S
Li531 O591 1.956 . S
C532 C534 1.348 . S
C532 C535 1.356 . S
C532 O588 1.325 . S
N533 C536 1.314 . S
N533 C537 1.279 . S
C534 C532 1.348 . S
C534 C536 1.353 . S
C534 H592 0.929 . S
C535 C532 1.356 . S
C535 C537 1.358 . S
C535 H593 0.930 . S
C536 N533 1.314 . S
C536 C534 1.353 . S
C536 H594 0.930 . S
C537 N533 1.279 . S
C537 C535 1.358 . S
C537 H595 0.930 . S
C538 C541 1.348 . S
C538 C542 1.356 . S
C538 O589 1.325 . S
C539 N540 1.279 . S
C539 C542 1.358 . S
C539 H596 0.930 . S
N540 C539 1.279 . S
N540 C543 1.314 . S
C541 C538 1.348 . S
C541 C543 1.353 . S
C541 H597 0.929 . S
C542 C538 1.356 . S
C542 C539 1.358 . S
C542 H598 0.930 . S
C543 N540 1.314 . S
C543 C541 1.353 . S
C543 H599 0.930 . S
C544 N545 1.314 . S
C544 C549 1.353 . S
C544 H550 0.930 . S
N545 Li528 1.990 . S
N545 C544 1.314 . S
N545 C547 1.279 . S
C546 C547 1.358 . S
C546 C548 1.356 . S
C546 H600 0.930 . S
C547 N545 1.279 . S
C547 C546 1.358 . S
C547 H551 0.930 . S
C548 C546 1.356 . S
C548 C549 1.348 . S
C549 C544 1.353 . S
C549 C548 1.348 . S
C549 H601 0.929 . S
H550 C544 0.930 . S
H551 C547 0.930 . S
C552 N553 1.314 . S
C552 C554 1.353 . S
C552 H558 0.930 . S
N553 Li529 1.990 . S
N553 C552 1.314 . S
N553 C556 1.279 . S
C554 C552 1.353 . S
C554 C557 1.348 . S
C554 H602 0.929 . S
C555 C556 1.358 . S
C555 C557 1.356 . S
C555 H603 0.930 . S
C556 N553 1.279 . S
C556 C555 1.358 . S
C556 H559 0.930 . S
C557 C554 1.348 . S
C557 C555 1.356 . S
H558 C552 0.930 . S
H559 C556 0.930 . S
C560 C562 1.348 . S
C560 C563 1.356 . S
C560 O590 1.325 . S
N561 C564 1.314 . S
N561 C565 1.279 . S
C562 C560 1.348 . S
C562 C564 1.353 . S
C562 H604 0.929 . S
C563 C560 1.356 . S
C563 C565 1.358 . S
C563 H605 0.930 . S
C564 N561 1.314 . S
C564 C562 1.353 . S
C564 H606 0.930 . S
C565 N561 1.279 . S
C565 C563 1.358 . S
C565 H607 0.930 . S
C566 C567 1.348 . S
C566 C568 1.356 . S
C566 O591 1.325 . S
C567 C566 1.348 . S
C567 C569 1.353 . S
C567 H608 0.929 . S
C568 C566 1.356 . S
C568 C570 1.358 . S
C568 H609 0.930 . S
C569 C567 1.353 . S
C569 N571 1.314 . S
C569 H610 0.930 . S
C570 C568 1.358 . S
C570 N571 1.279 . S
C570 H611 0.930 . S
N571 C569 1.314 . S
N571 C570 1.279 . S
C572 C574 1.353 . S
C572 N575 1.314 . S
C572 H578 0.930 . S
C573 N575 1.279 . S
C573 C576 1.358 . S
C573 H579 0.930 . S
C574 C572 1.353 . S
C574 C577 1.348 . S
C574 H612 0.929 . S
N575 Li530 1.990 . S
N575 C572 1.314 . S
N575 C573 1.279 . S
C576 C573 1.358 . S
C576 C577 1.356 . S
C576 H613 0.930 . S
C577 C574 1.348 . S
C577 C576 1.356 . S
H578 C572 0.930 . S
H579 C573 0.930 . S
C580 N581 1.314 . S
C580 C582 1.353 . S
C580 H586 0.930 . S
N581 Li531 1.990 . S
N581 C580 1.314 . S
N581 C584 1.279 . S
C582 C580 1.353 . S
C582 C585 1.348 . S
C582 H614 0.929 . S
C583 C584 1.358 . S
C583 C585 1.356 . S
C583 H615 0.930 . S
C584 N581 1.279 . S
C584 C583 1.358 . S
C584 H587 0.930 . S
C585 C582 1.348 . S
C585 C583 1.356 . S
H586 C580 0.930 . S
H587 C584 0.930 . S
O588 Li528 1.956 . S
O588 Li529 1.970 . S
O588 Li530 1.961 . S
O588 C532 1.325 . S
O589 Li528 1.970 . S
O589 Li529 1.956 . S
O589 Li531 1.961 . S
O589 C538 1.325 . S
O590 Li528 1.961 . S
O590 Li530 1.956 . S
O590 Li531 1.970 . S
O590 C560 1.325 . S
O591 Li529 1.961 . S
O591 Li530 1.970 . S
O591 Li531 1.956 . S
O591 C566 1.325 . S
H592 C534 0.929 . S
H593 C535 0.930 . S
H594 C536 0.930 . S
H595 C537 0.930 . S
H596 C539 0.930 . S
H597 C541 0.929 . S
H598 C542 0.930 . S
H599 C543 0.930 . S
H600 C546 0.930 . S
H601 C549 0.929 . S
H602 C554 0.929 . S
H603 C555 0.930 . S
H604 C562 0.929 . S
H605 C563 0.930 . S
H606 C564 0.930 . S
H607 C565 0.930 . S
H608 C567 0.929 . S
H609 C568 0.930 . S
H610 C569 0.930 . S
H611 C570 0.930 . S
H612 C574 0.929 . S
H613 C576 0.930 . S
H614 C582 0.929 . S
H615 C583 0.930 . S
Li616 N633 1.990 . S
Li616 O676 1.956 . S
Li616 O677 1.970 . S
Li616 O678 1.961 . S
Li617 N641 1.990 . S
Li617 O676 1.970 . S
Li617 O677 1.956 . S
Li617 O679 1.961 . S
Li618 N663 1.990 . S
Li618 O676 1.961 . S
Li618 O678 1.956 . S
Li618 O679 1.970 . S
Li619 N669 1.990 . S
Li619 O677 1.961 . S
Li619 O678 1.970 . S
Li619 O679 1.956 . S
C620 C622 1.348 . S
C620 C623 1.356 . S
C620 O676 1.325 . S
N621 C624 1.314 . S
N621 C625 1.279 . S
C622 C620 1.348 . S
C622 C624 1.353 . S
C622 H680 0.929 . S
C623 C620 1.356 . S
C623 C625 1.358 . S
C623 H681 0.930 . S
C624 N621 1.314 . S
C624 C622 1.353 . S
C624 H682 0.930 . S
C625 N621 1.279 . S
C625 C623 1.358 . S
C625 H683 0.930 . S
C626 C629 1.348 . S
C626 C630 1.356 . S
C626 O677 1.325 . S
C627 N628 1.279 . S
C627 C630 1.358 . S
C627 H684 0.930 . S
N628 C627 1.279 . S
N628 C631 1.314 . S
C629 C626 1.348 . S
C629 C631 1.353 . S
C629 H685 0.929 . S
C630 C626 1.356 . S
C630 C627 1.358 . S
C630 H686 0.930 . S
C631 N628 1.314 . S
C631 C629 1.353 . S
C631 H687 0.930 . S
C632 N633 1.314 . S
C632 C637 1.353 . S
C632 H638 0.930 . S
N633 Li616 1.990 . S
N633 C632 1.314 . S
N633 C635 1.279 . S
C634 C635 1.358 . S
C634 C636 1.356 . S
C634 H688 0.930 . S
C635 N633 1.279 . S
C635 C634 1.358 . S
C635 H639 0.930 . S
C636 C634 1.356 . S
C636 C637 1.348 . S
C637 C632 1.353 . S
C637 C636 1.348 . S
C637 H689 0.929 . S
H638 C632 0.930 . S
H639 C635 0.930 . S
C640 N641 1.314 . S
C640 C642 1.353 . S
C640 H646 0.930 . S
N641 Li617 1.990 . S
N641 C640 1.314 . S
N641 C644 1.279 . S
C642 C640 1.353 . S
C642 C645 1.348 . S
C642 H690 0.929 . S
C643 C644 1.358 . S
C643 C645 1.356 . S
C643 H691 0.930 . S
C644 N641 1.279 . S
C644 C643 1.358 . S
C644 H647 0.930 . S
C645 C642 1.348 . S
C645 C643 1.356 . S
H646 C640 0.930 . S
H647 C644 0.930 . S
C648 C650 1.348 . S
C648 C651 1.356 . S
C648 O678 1.325 . S
N649 C652 1.314 . S
N649 C653 1.279 . S
C650 C648 1.348 . S
C650 C652 1.353 . S
C650 H692 0.929 . S
C651 C648 1.356 . S
C651 C653 1.358 . S
C651 H693 0.930 . S
C652 N649 1.314 . S
C652 C650 1.353 . S
C652 H694 0.930 . S
C653 N649 1.279 . S
C653 C651 1.358 . S
C653 H695 0.930 . S
C654 C655 1.348 . S
C654 C656 1.356 . S
C654 O679 1.325 . S
C655 C654 1.348 . S
C655 C657 1.353 . S
C655 H696 0.929 . S
C656 C654 1.356 . S
C656 C658 1.358 . S
C656 H697 0.930 . S
C657 C655 1.353 . S
C657 N659 1.314 . S
C657 H698 0.930 . S
C658 C656 1.358 . S
C658 N659 1.279 . S
C658 H699 0.930 . S
N659 C657 1.314 . S
N659 C658 1.279 . S
C660 C662 1.353 . S
C660 N663 1.314 . S
C660 H666 0.930 . S
C661 N663 1.279 . S
C661 C664 1.358 . S
C661 H667 0.930 . S
C662 C660 1.353 . S
C662 C665 1.348 . S
C662 H700 0.929 . S
N663 Li618 1.990 . S
N663 C660 1.314 . S
N663 C661 1.279 . S
C664 C661 1.358 . S
C664 C665 1.356 . S
C664 H701 0.930 . S
C665 C662 1.348 . S
C665 C664 1.356 . S
H666 C660 0.930 . S
H667 C661 0.930 . S
C668 N669 1.314 . S
C668 C670 1.353 . S
C668 H674 0.930 . S
N669 Li619 1.990 . S
N669 C668 1.314 . S
N669 C672 1.279 . S
C670 C668 1.353 . S
C670 C673 1.348 . S
C670 H702 0.929 . S
C671 C672 1.358 . S
C671 C673 1.356 . S
C671 H703 0.930 . S
C672 N669 1.279 . S
C672 C671 1.358 . S
C672 H675 0.930 . S
C673 C670 1.348 . S
C673 C671 1.356 . S
H674 C668 0.930 . S
H675 C672 0.930 . S
O676 Li616 1.956 . S
O676 Li617 1.970 . S
O676 Li618 1.961 . S
O676 C620 1.325 . S
O677 Li616 1.970 . S
O677 Li617 1.956 . S
O677 Li619 1.961 . S
O677 C626 1.325 . S
O678 Li616 1.961 . S
O678 Li618 1.956 . S
O678 Li619 1.970 . S
O678 C648 1.325 . S
O679 Li617 1.961 . S
O679 Li618 1.970 . S
O679 Li619 1.956 . S
O679 C654 1.325 . S
H680 C622 0.929 . S
H681 C623 0.930 . S
H682 C624 0.930 . S
H683 C625 0.930 . S
H684 C627 0.930 . S
H685 C629 0.929 . S
H686 C630 0.930 . S
H687 C631 0.930 . S
H688 C634 0.930 . S
H689 C637 0.929 . S
H690 C642 0.929 . S
H691 C643 0.930 . S
H692 C650 0.929 . S
H693 C651 0.930 . S
H694 C652 0.930 . S
H695 C653 0.930 . S
H696 C655 0.929 . S
H697 C656 0.930 . S
H698 C657 0.930 . S
H699 C658 0.930 . S
H700 C662 0.929 . S
H701 C664 0.930 . S
H702 C670 0.929 . S
H703 C671 0.930 . S
C704 C705 1.349 . S
C704 C706 1.327 . S
C704 H729 0.950 . S
C705 C704 1.349 . S
C705 C721 1.349 . S
C706 C704 1.327 . S
C706 C725 1.429 . S
C706 H730 0.950 . S
C707 C724 1.574 1_556 S
C707 C726 1.368 . S
C707 H731 0.949 . S
H708 C712 0.949 . S
C709 C710 1.349 . S
C709 C711 1.327 . S
C709 H732 0.950 . S
C710 C709 1.349 . S
C710 C722 1.349 . S
C711 C709 1.327 . S
C711 C727 1.429 . S
C711 H733 0.950 . S
C712 H708 0.949 . S
C712 C720 1.574 1_554 S
C712 C728 1.368 . S
H713 C721 0.950 . S
H714 C719 0.950 . S
H715 C720 0.949 . S
H716 C722 0.950 . S
H717 C723 0.950 . S
H718 C724 0.949 . S
C719 H714 0.950 . S
C719 C721 1.327 . S
C719 C725 1.429 . S
C720 C712 1.574 1_556 S
C720 H715 0.949 . S
C720 C726 1.368 . S
C721 C705 1.349 . S
C721 H713 0.950 . S
C721 C719 1.327 . S
C722 C710 1.349 . S
C722 H716 0.950 . S
C722 C723 1.327 . S
C723 H717 0.950 . S
C723 C722 1.327 . S
C723 C727 1.429 . S
C724 C707 1.574 1_554 S
C724 H718 0.949 . S
C724 C728 1.368 . S
C725 C706 1.429 . S
C725 C719 1.429 . S
C725 C726 1.523 . S
C726 C707 1.368 . S
C726 C720 1.368 . S
C726 C725 1.523 . S
C727 C711 1.429 . S
C727 C723 1.429 . S
C727 C728 1.523 . S
C728 C712 1.368 . S
C728 C724 1.368 . S
C728 C727 1.523 . S
H729 C704 0.950 . S
H730 C706 0.950 . S
H731 C707 0.949 . S
H732 C709 0.950 . S
H733 C711 0.950 . S
C734 C735 1.349 . S
C734 C736 1.327 . S
C734 H759 0.950 . S
C735 C734 1.349 . S
C735 C751 1.349 . S
C736 C734 1.327 . S
C736 C755 1.429 . S
C736 H760 0.950 . S
C737 C754 1.574 . S
C737 C756 1.368 . S
C737 H761 0.949 . S
H738 C742 0.949 . S
C739 C740 1.349 . S
C739 C741 1.327 . S
C739 H762 0.950 . S
C740 C739 1.349 . S
C740 C752 1.349 . S
C741 C739 1.327 . S
C741 C757 1.429 . S
C741 H763 0.950 . S
C742 H738 0.949 . S
C742 C750 1.574 . S
C742 C758 1.368 . S
H743 C751 0.950 . S
H744 C749 0.950 . S
H745 C750 0.949 . S
H746 C752 0.950 . S
H747 C753 0.950 . S
H748 C754 0.949 . S
C749 H744 0.950 . S
C749 C751 1.327 . S
C749 C755 1.429 . S
C750 C742 1.574 . S
C750 H745 0.949 . S
C750 C756 1.368 . S
C751 C735 1.349 . S
C751 H743 0.950 . S
C751 C749 1.327 . S
C752 C740 1.349 . S
C752 H746 0.950 . S
C752 C753 1.327 . S
C753 H747 0.950 . S
C753 C752 1.327 . S
C753 C757 1.429 . S
C754 C737 1.574 . S
C754 H748 0.949 . S
C754 C758 1.368 . S
C755 C736 1.429 . S
C755 C749 1.429 . S
C755 C756 1.523 . S
C756 C737 1.368 . S
C756 C750 1.368 . S
C756 C755 1.523 . S
C757 C741 1.429 . S
C757 C753 1.429 . S
C757 C758 1.523 . S
C758 C742 1.368 . S
C758 C754 1.368 . S
C758 C757 1.523 . S
H759 C734 0.950 . S
H760 C736 0.950 . S
H761 C737 0.949 . S
H762 C739 0.950 . S
H763 C741 0.950 . S
C764 C765 1.349 . S
C764 C766 1.327 . S
C764 H789 0.950 . S
C765 C764 1.349 . S
C765 C781 1.349 . S
C766 C764 1.327 . S
C766 C785 1.429 . S
C766 H790 0.950 . S
C767 C784 1.574 . S
C767 C786 1.368 . S
C767 H791 0.949 . S
H768 C772 0.949 . S
C769 C770 1.349 . S
C769 C771 1.327 . S
C769 H792 0.950 . S
C770 C769 1.349 . S
C770 C782 1.349 . S
C771 C769 1.327 . S
C771 C787 1.429 . S
C771 H793 0.950 . S
C772 H768 0.949 . S
C772 C780 1.574 . S
C772 C788 1.368 . S
H773 C781 0.950 . S
H774 C779 0.950 . S
H775 C780 0.949 . S
H776 C782 0.950 . S
H777 C783 0.950 . S
H778 C784 0.949 . S
C779 H774 0.950 . S
C779 C781 1.327 . S
C779 C785 1.429 . S
C780 C772 1.574 . S
C780 H775 0.949 . S
C780 C786 1.368 . S
C781 C765 1.349 . S
C781 H773 0.950 . S
C781 C779 1.327 . S
C782 C770 1.349 . S
C782 H776 0.950 . S
C782 C783 1.327 . S
C783 H777 0.950 . S
C783 C782 1.327 . S
C783 C787 1.429 . S
C784 C767 1.574 . S
C784 H778 0.949 . S
C784 C788 1.368 . S
C785 C766 1.429 . S
C785 C779 1.429 . S
C785 C786 1.523 . S
C786 C767 1.368 . S
C786 C780 1.368 . S
C786 C785 1.523 . S
C787 C771 1.429 . S
C787 C783 1.429 . S
C787 C788 1.523 . S
C788 C772 1.368 . S
C788 C784 1.368 . S
C788 C787 1.523 . S
H789 C764 0.950 . S
H790 C766 0.950 . S
H791 C767 0.949 . S
H792 C769 0.950 . S
H793 C771 0.950 . S
C794 C795 1.349 . S
C794 C796 1.327 . S
C794 H819 0.950 . S
C795 C794 1.349 . S
C795 C811 1.349 . S
C796 C794 1.327 . S
C796 C815 1.429 . S
C796 H820 0.950 . S
C797 C814 1.574 . S
C797 C816 1.368 . S
C797 H821 0.949 . S
H798 C802 0.949 . S
C799 C800 1.349 . S
C799 C801 1.327 . S
C799 H822 0.950 . S
C800 C799 1.349 . S
C800 C812 1.349 . S
C801 C799 1.327 . S
C801 C817 1.429 . S
C801 H823 0.950 . S
C802 H798 0.949 . S
C802 C810 1.574 . S
C802 C818 1.368 . S
H803 C811 0.950 . S
H804 C809 0.950 . S
H805 C810 0.949 . S
H806 C812 0.950 . S
H807 C813 0.950 . S
H808 C814 0.949 . S
C809 H804 0.950 . S
C809 C811 1.327 . S
C809 C815 1.429 . S
C810 C802 1.574 . S
C810 H805 0.949 . S
C810 C816 1.368 . S
C811 C795 1.349 . S
C811 H803 0.950 . S
C811 C809 1.327 . S
C812 C800 1.349 . S
C812 H806 0.950 . S
C812 C813 1.327 . S
C813 H807 0.950 . S
C813 C812 1.327 . S
C813 C817 1.429 . S
C814 C797 1.574 . S
C814 H808 0.949 . S
C814 C818 1.368 . S
C815 C796 1.429 . S
C815 C809 1.429 . S
C815 C816 1.523 . S
C816 C797 1.368 . S
C816 C810 1.368 . S
C816 C815 1.523 . S
C817 C801 1.429 . S
C817 C813 1.429 . S
C817 C818 1.523 . S
C818 C802 1.368 . S
C818 C814 1.368 . S
C818 C817 1.523 . S
H819 C794 0.950 . S
H820 C796 0.950 . S
H821 C797 0.949 . S
H822 C799 0.950 . S
H823 C801 0.950 . S
C824 C825 1.349 . S
C824 C826 1.327 . S
C824 H849 0.950 . S
C825 C824 1.349 . S
C825 C841 1.349 . S
C826 C824 1.327 . S
C826 C845 1.429 . S
C826 H850 0.950 . S
C827 C844 1.574 . S
C827 C846 1.368 . S
C827 H851 0.949 . S
H828 C832 0.949 . S
C829 C830 1.349 . S
C829 C831 1.327 . S
C829 H852 0.950 . S
C830 C829 1.349 . S
C830 C842 1.349 . S
C831 C829 1.327 . S
C831 C847 1.429 . S
C831 H853 0.950 . S
C832 H828 0.949 . S
C832 C840 1.574 . S
C832 C848 1.368 . S
H833 C841 0.950 . S
H834 C839 0.950 . S
H835 C840 0.949 . S
H836 C842 0.950 . S
H837 C843 0.950 . S
H838 C844 0.949 . S
C839 H834 0.950 . S
C839 C841 1.327 . S
C839 C845 1.429 . S
C840 C832 1.574 . S
C840 H835 0.949 . S
C840 C846 1.368 . S
C841 C825 1.349 . S
C841 H833 0.950 . S
C841 C839 1.327 . S
C842 C830 1.349 . S
C842 H836 0.950 . S
C842 C843 1.327 . S
C843 H837 0.950 . S
C843 C842 1.327 . S
C843 C847 1.429 . S
C844 C827 1.574 . S
C844 H838 0.949 . S
C844 C848 1.368 . S
C845 C826 1.429 . S
C845 C839 1.429 . S
C845 C846 1.523 . S
C846 C827 1.368 . S
C846 C840 1.368 . S
C846 C845 1.523 . S
C847 C831 1.429 . S
C847 C843 1.429 . S
C847 C848 1.523 . S
C848 C832 1.368 . S
C848 C844 1.368 . S
C848 C847 1.523 . S
H849 C824 0.950 . S
H850 C826 0.950 . S
H851 C827 0.949 . S
H852 C829 0.950 . S
H853 C831 0.950 . S
C854 C855 1.349 . S
C854 C856 1.327 . S
C854 H879 0.950 . S
C855 C854 1.349 . S
C855 C871 1.349 . S
C856 C854 1.327 . S
C856 C875 1.429 . S
C856 H880 0.950 . S
C857 C874 1.574 . S
C857 C876 1.368 . S
C857 H881 0.949 . S
H858 C862 0.949 . S
C859 C860 1.349 . S
C859 C861 1.327 . S
C859 H882 0.950 . S
C860 C859 1.349 . S
C860 C872 1.349 . S
C861 C859 1.327 . S
C861 C877 1.429 . S
C861 H883 0.950 . S
C862 H858 0.949 . S
C862 C870 1.574 . S
C862 C878 1.368 . S
H863 C871 0.950 . S
H864 C869 0.950 . S
H865 C870 0.949 . S
H866 C872 0.950 . S
H867 C873 0.950 . S
H868 C874 0.949 . S
C869 H864 0.950 . S
C869 C871 1.327 . S
C869 C875 1.429 . S
C870 C862 1.574 . S
C870 H865 0.949 . S
C870 C876 1.368 . S
C871 C855 1.349 . S
C871 H863 0.950 . S
C871 C869 1.327 . S
C872 C860 1.349 . S
C872 H866 0.950 . S
C872 C873 1.327 . S
C873 H867 0.950 . S
C873 C872 1.327 . S
C873 C877 1.429 . S
C874 C857 1.574 . S
C874 H868 0.949 . S
C874 C878 1.368 . S
C875 C856 1.429 . S
C875 C869 1.429 . S
C875 C876 1.523 . S
C876 C857 1.368 . S
C876 C870 1.368 . S
C876 C875 1.523 . S
C877 C861 1.429 . S
C877 C873 1.429 . S
C877 C878 1.523 . S
C878 C862 1.368 . S
C878 C874 1.368 . S
C878 C877 1.523 . S
H879 C854 0.950 . S
H880 C856 0.950 . S
H881 C857 0.949 . S
H882 C859 0.950 . S
H883 C861 0.950 . S
C884 C885 1.349 . S
C884 C886 1.327 . S
C884 H909 0.950 . S
C885 C884 1.349 . S
C885 C901 1.349 . S
C886 C884 1.327 . S
C886 C905 1.429 . S
C886 H910 0.950 . S
C887 C904 1.574 . S
C887 C906 1.368 1_556 S
C887 H911 0.949 . S
H888 C892 0.949 . S
C889 C890 1.349 . S
C889 C891 1.327 . S
C889 H912 0.950 . S
C890 C889 1.349 . S
C890 C902 1.349 . S
C891 C889 1.327 . S
C891 C907 1.429 . S
C891 H913 0.950 . S
C892 H888 0.949 . S
C892 C900 1.574 . S
C892 C908 1.368 1_554 S
H893 C901 0.950 . S
H894 C899 0.950 . S
H895 C900 0.949 . S
H896 C902 0.950 . S
H897 C903 0.950 . S
H898 C904 0.949 . S
C899 H894 0.950 . S
C899 C901 1.327 . S
C899 C905 1.429 . S
C900 C892 1.574 . S
C900 H895 0.949 . S
C900 C906 1.368 . S
C901 C885 1.349 . S
C901 H893 0.950 . S
C901 C899 1.327 . S
C902 C890 1.349 . S
C902 H896 0.950 . S
C902 C903 1.327 . S
C903 H897 0.950 . S
C903 C902 1.327 . S
C903 C907 1.429 . S
C904 C887 1.574 . S
C904 H898 0.949 . S
C904 C908 1.368 . S
C905 C886 1.429 . S
C905 C899 1.429 . S
C905 C906 1.523 . S
C906 C887 1.368 1_554 S
C906 C900 1.368 . S
C906 C905 1.523 . S
C907 C891 1.429 . S
C907 C903 1.429 . S
C907 C908 1.523 . S
C908 C892 1.368 1_556 S
C908 C904 1.368 . S
C908 C907 1.523 . S
H909 C884 0.950 . S
H910 C886 0.950 . S
H911 C887 0.949 . S
H912 C889 0.950 . S
H913 C891 0.950 . S
C914 C915 1.349 . S
C914 C916 1.327 . S
C914 H939 0.950 . S
C915 C914 1.349 . S
C915 C931 1.349 . S
C916 C914 1.327 . S
C916 C935 1.429 . S
C916 H940 0.950 . S
C917 C934 1.574 . S
C917 C936 1.368 . S
C917 H941 0.949 . S
H918 C922 0.949 . S
C919 C920 1.349 . S
C919 C921 1.327 . S
C919 H942 0.950 . S
C920 C919 1.349 . S
C920 C932 1.349 . S
C921 C919 1.327 . S
C921 C937 1.429 . S
C921 H943 0.950 . S
C922 H918 0.949 . S
C922 C930 1.574 . S
C922 C938 1.368 . S
H923 C931 0.950 . S
H924 C929 0.950 . S
H925 C930 0.949 . S
H926 C932 0.950 . S
H927 C933 0.950 . S
H928 C934 0.949 . S
C929 H924 0.950 . S
C929 C931 1.327 . S
C929 C935 1.429 . S
C930 C922 1.574 . S
C930 H925 0.949 . S
C930 C936 1.368 . S
C931 C915 1.349 . S
C931 H923 0.950 . S
C931 C929 1.327 . S
C932 C920 1.349 . S
C932 H926 0.950 . S
C932 C933 1.327 . S
C933 H927 0.950 . S
C933 C932 1.327 . S
C933 C937 1.429 . S
C934 C917 1.574 . S
C934 H928 0.949 . S
C934 C938 1.368 . S
C935 C916 1.429 . S
C935 C929 1.429 . S
C935 C936 1.523 . S
C936 C917 1.368 . S
C936 C930 1.368 . S
C936 C935 1.523 . S
C937 C921 1.429 . S
C937 C933 1.429 . S
C937 C938 1.523 . S
C938 C922 1.368 . S
C938 C934 1.368 . S
C938 C937 1.523 . S
H939 C914 0.950 . S
H940 C916 0.950 . S
H941 C917 0.949 . S
H942 C919 0.950 . S
H943 C921 0.950 . S
C944 C945 1.349 . S
C944 C946 1.327 . S
C944 H969 0.950 . S
C945 C944 1.349 . S
C945 C961 1.349 . S
C946 C944 1.327 . S
C946 C965 1.429 . S
C946 H970 0.950 . S
C947 C964 1.574 . S
C947 C966 1.368 . S
C947 H971 0.949 . S
H948 C952 0.949 . S
C949 C950 1.349 . S
C949 C951 1.327 . S
C949 H972 0.950 . S
C950 C949 1.349 . S
C950 C962 1.349 . S
C951 C949 1.327 . S
C951 C967 1.429 . S
C951 H973 0.950 . S
C952 H948 0.949 . S
C952 C960 1.574 . S
C952 C968 1.368 . S
H953 C961 0.950 . S
H954 C959 0.950 . S
H955 C960 0.949 . S
H956 C962 0.950 . S
H957 C963 0.950 . S
H958 C964 0.949 . S
C959 H954 0.950 . S
C959 C961 1.327 . S
C959 C965 1.429 . S
C960 C952 1.574 . S
C960 H955 0.949 . S
C960 C966 1.368 . S
C961 C945 1.349 . S
C961 H953 0.950 . S
C961 C959 1.327 . S
C962 C950 1.349 . S
C962 H956 0.950 . S
C962 C963 1.327 . S
C963 H957 0.950 . S
C963 C962 1.327 . S
C963 C967 1.429 . S
C964 C947 1.574 . S
C964 H958 0.949 . S
C964 C968 1.368 . S
C965 C946 1.429 . S
C965 C959 1.429 . S
C965 C966 1.523 . S
C966 C947 1.368 . S
C966 C960 1.368 . S
C966 C965 1.523 . S
C967 C951 1.429 . S
C967 C963 1.429 . S
C967 C968 1.523 . S
C968 C952 1.368 . S
C968 C964 1.368 . S
C968 C967 1.523 . S
H969 C944 0.950 . S
H970 C946 0.950 . S
H971 C947 0.949 . S
H972 C949 0.950 . S
H973 C951 0.950 . S
C974 C975 1.349 . S
C974 C976 1.327 . S
C974 H999 0.950 . S
C975 C974 1.349 . S
C975 C991 1.349 . S
C976 C974 1.327 . S
C976 C995 1.429 . S
C976 H1000 0.950 . S
C977 C994 1.574 . S
C977 C996 1.368 . S
C977 H1001 0.949 . S
H978 C982 0.949 . S
C979 C980 1.349 . S
C979 C981 1.327 . S
C979 H1002 0.950 . S
C980 C979 1.349 . S
C980 C992 1.349 . S
C981 C979 1.327 . S
C981 C997 1.429 . S
C981 H1003 0.950 . S
C982 H978 0.949 . S
C982 C990 1.574 . S
C982 C998 1.368 . S
H983 C991 0.950 . S
H984 C989 0.950 . S
H985 C990 0.949 . S
H986 C992 0.950 . S
H987 C993 0.950 . S
H988 C994 0.949 . S
C989 H984 0.950 . S
C989 C991 1.327 . S
C989 C995 1.429 . S
C990 C982 1.574 . S
C990 H985 0.949 . S
C990 C996 1.368 . S
C991 C975 1.349 . S
C991 H983 0.950 . S
C991 C989 1.327 . S
C992 C980 1.349 . S
C992 H986 0.950 . S
C992 C993 1.327 . S
C993 H987 0.950 . S
C993 C992 1.327 . S
C993 C997 1.429 . S
C994 C977 1.574 . S
C994 H988 0.949 . S
C994 C998 1.368 . S
C995 C976 1.429 . S
C995 C989 1.429 . S
C995 C996 1.523 . S
C996 C977 1.368 . S
C996 C990 1.368 . S
C996 C995 1.523 . S
C997 C981 1.429 . S
C997 C993 1.429 . S
C997 C998 1.523 . S
C998 C982 1.368 . S
C998 C994 1.368 . S
C998 C997 1.523 . S
H999 C974 0.950 . S
H1000 C976 0.950 . S
H1001 C977 0.949 . S
H1002 C979 0.950 . S
H1003 C981 0.950 . S
C1004 C1005 1.349 . S
C1004 C1006 1.327 . S
C1004 H1029 0.950 . S
C1005 C1004 1.349 . S
C1005 C1021 1.349 1_554 S
C1006 C1004 1.327 . S
C1006 C1025 1.429 . S
C1006 H1030 0.950 . S
C1007 C1024 1.574 . S
C1007 C1026 1.368 1_556 S
C1007 H1031 0.949 . S
H1008 C1012 0.949 . S
C1009 C1010 1.349 . S
C1009 C1011 1.327 . S
C1009 H1032 0.950 . S
C1010 C1009 1.349 . S
C1010 C1022 1.349 1_556 S
C1011 C1009 1.327 . S
C1011 C1027 1.429 . S
C1011 H1033 0.950 . S
C1012 H1008 0.949 . S
C1012 C1020 1.574 . S
C1012 C1028 1.368 1_554 S
H1013 C1021 0.950 . S
H1014 C1019 0.950 . S
H1015 C1020 0.949 . S
H1016 C1022 0.950 . S
H1017 C1023 0.950 . S
H1018 C1024 0.949 . S
C1019 H1014 0.950 . S
C1019 C1021 1.327 . S
C1019 C1025 1.429 1_556 S
C1020 C1012 1.574 . S
C1020 H1015 0.949 . S
C1020 C1026 1.368 . S
C1021 C1005 1.349 1_556 S
C1021 H1013 0.950 . S
C1021 C1019 1.327 . S
C1022 C1010 1.349 1_554 S
C1022 H1016 0.950 . S
C1022 C1023 1.327 . S
C1023 H1017 0.950 . S
C1023 C1022 1.327 . S
C1023 C1027 1.429 1_554 S
C1024 C1007 1.574 . S
C1024 H1018 0.949 . S
C1024 C1028 1.368 . S
C1025 C1006 1.429 . S
C1025 C1019 1.429 1_554 S
C1025 C1026 1.523 . S
C1026 C1007 1.368 1_554 S
C1026 C1020 1.368 . S
C1026 C1025 1.523 . S
C1027 C1011 1.429 . S
C1027 C1023 1.429 1_556 S
C1027 C1028 1.523 . S
C1028 C1012 1.368 1_556 S
C1028 C1024 1.368 . S
C1028 C1027 1.523 . S
H1029 C1004 0.950 . S
H1030 C1006 0.950 . S
H1031 C1007 0.949 . S
H1032 C1009 0.950 . S
H1033 C1011 0.950 . S
C1034 C1035 1.349 . S
C1034 C1036 1.327 . S
C1034 H1059 0.950 . S
C1035 C1034 1.349 . S
C1035 C1051 1.349 . S
C1036 C1034 1.327 . S
C1036 C1055 1.429 . S
C1036 H1060 0.950 . S
C1037 C1054 1.574 . S
C1037 C1056 1.368 . S
C1037 H1061 0.949 . S
H1038 C1042 0.949 . S
C1039 C1040 1.349 . S
C1039 C1041 1.327 . S
C1039 H1062 0.950 . S
C1040 C1039 1.349 . S
C1040 C1052 1.349 . S
C1041 C1039 1.327 . S
C1041 C1057 1.429 . S
C1041 H1063 0.950 . S
C1042 H1038 0.949 . S
C1042 C1050 1.574 . S
C1042 C1058 1.368 . S
H1043 C1051 0.950 . S
H1044 C1049 0.950 . S
H1045 C1050 0.949 . S
H1046 C1052 0.950 . S
H1047 C1053 0.950 . S
H1048 C1054 0.949 . S
C1049 H1044 0.950 . S
C1049 C1051 1.327 . S
C1049 C1055 1.429 . S
C1050 C1042 1.574 . S
C1050 H1045 0.949 . S
C1050 C1056 1.368 . S
C1051 C1035 1.349 . S
C1051 H1043 0.950 . S
C1051 C1049 1.327 . S
C1052 C1040 1.349 . S
C1052 H1046 0.950 . S
C1052 C1053 1.327 . S
C1053 H1047 0.950 . S
C1053 C1052 1.327 . S
C1053 C1057 1.429 . S
C1054 C1037 1.574 . S
C1054 H1048 0.949 . S
C1054 C1058 1.368 . S
C1055 C1036 1.429 . S
C1055 C1049 1.429 . S
C1055 C1056 1.523 . S
C1056 C1037 1.368 . S
C1056 C1050 1.368 . S
C1056 C1055 1.523 . S
C1057 C1041 1.429 . S
C1057 C1053 1.429 . S
C1057 C1058 1.523 . S
C1058 C1042 1.368 . S
C1058 C1054 1.368 . S
C1058 C1057 1.523 . S
H1059 C1034 0.950 . S
H1060 C1036 0.950 . S
H1061 C1037 0.949 . S
H1062 C1039 0.950 . S
H1063 C1041 0.950 . S
C1064 C1065 1.349 . S
C1064 C1066 1.327 . S
C1064 H1089 0.950 . S
C1065 C1064 1.349 . S
C1065 C1081 1.349 . S
C1066 C1064 1.327 . S
C1066 C1085 1.429 . S
C1066 H1090 0.950 . S
C1067 C1084 1.574 . S
C1067 C1086 1.368 . S
C1067 H1091 0.949 . S
H1068 C1072 0.949 . S
C1069 C1070 1.349 . S
C1069 C1071 1.327 . S
C1069 H1092 0.950 . S
C1070 C1069 1.349 . S
C1070 C1082 1.349 . S
C1071 C1069 1.327 . S
C1071 C1087 1.429 . S
C1071 H1093 0.950 . S
C1072 H1068 0.949 . S
C1072 C1080 1.574 . S
C1072 C1088 1.368 . S
H1073 C1081 0.950 . S
H1074 C1079 0.950 . S
H1075 C1080 0.949 . S
H1076 C1082 0.950 . S
H1077 C1083 0.950 . S
H1078 C1084 0.949 . S
C1079 H1074 0.950 . S
C1079 C1081 1.327 . S
C1079 C1085 1.429 . S
C1080 C1072 1.574 . S
C1080 H1075 0.949 . S
C1080 C1086 1.368 . S
C1081 C1065 1.349 . S
C1081 H1073 0.950 . S
C1081 C1079 1.327 . S
C1082 C1070 1.349 . S
C1082 H1076 0.950 . S
C1082 C1083 1.327 . S
C1083 H1077 0.950 . S
C1083 C1082 1.327 . S
C1083 C1087 1.429 . S
C1084 C1067 1.574 . S
C1084 H1078 0.949 . S
C1084 C1088 1.368 . S
C1085 C1066 1.429 . S
C1085 C1079 1.429 . S
C1085 C1086 1.523 . S
C1086 C1067 1.368 . S
C1086 C1080 1.368 . S
C1086 C1085 1.523 . S
C1087 C1071 1.429 . S
C1087 C1083 1.429 . S
C1087 C1088 1.523 . S
C1088 C1072 1.368 . S
C1088 C1084 1.368 . S
C1088 C1087 1.523 . S
H1089 C1064 0.950 . S
H1090 C1066 0.950 . S
H1091 C1067 0.949 . S
H1092 C1069 0.950 . S
H1093 C1071 0.950 . S
C1094 C1095 1.349 . S
C1094 C1096 1.327 . S
C1094 H1119 0.950 . S
C1095 C1094 1.349 . S
C1095 C1111 1.349 1_556 S
C1096 C1094 1.327 . S
C1096 C1115 1.429 . S
C1096 H1120 0.950 . S
C1097 C1114 1.574 . S
C1097 C1116 1.368 1_554 S
C1097 H1121 0.949 . S
H1098 C1102 0.949 . S
C1099 C1100 1.349 . S
C1099 C1101 1.327 . S
C1099 H1122 0.950 . S
C1100 C1099 1.349 . S
C1100 C1112 1.349 1_554 S
C1101 C1099 1.327 . S
C1101 C1117 1.429 . S
C1101 H1123 0.950 . S
C1102 H1098 0.949 . S
C1102 C1110 1.574 . S
C1102 C1118 1.368 1_556 S
H1103 C1111 0.950 . S
H1104 C1109 0.950 . S
H1105 C1110 0.949 . S
H1106 C1112 0.950 . S
H1107 C1113 0.950 . S
H1108 C1114 0.949 . S
C1109 H1104 0.950 . S
C1109 C1111 1.327 . S
C1109 C1115 1.429 1_554 S
C1110 C1102 1.574 . S
C1110 H1105 0.949 . S
C1110 C1116 1.368 . S
C1111 C1095 1.349 1_554 S
C1111 H1103 0.950 . S
C1111 C1109 1.327 . S
C1112 C1100 1.349 1_556 S
C1112 H1106 0.950 . S
C1112 C1113 1.327 . S
C1113 H1107 0.950 . S
C1113 C1112 1.327 . S
C1113 C1117 1.429 1_556 S
C1114 C1097 1.574 . S
C1114 H1108 0.949 . S
C1114 C1118 1.368 . S
C1115 C1096 1.429 . S
C1115 C1109 1.429 1_556 S
C1115 C1116 1.523 . S
C1116 C1097 1.368 1_556 S
C1116 C1110 1.368 . S
C1116 C1115 1.523 . S
C1117 C1101 1.429 . S
C1117 C1113 1.429 1_554 S
C1117 C1118 1.523 . S
C1118 C1102 1.368 1_554 S
C1118 C1114 1.368 . S
C1118 C1117 1.523 . S
H1119 C1094 0.950 . S
H1120 C1096 0.950 . S
H1121 C1097 0.949 . S
H1122 C1099 0.950 . S
H1123 C1101 0.950 . S
C1124 C1125 1.349 . S
C1124 C1126 1.327 . S
C1124 H1149 0.950 . S
C1125 C1124 1.349 . S
C1125 C1141 1.349 . S
C1126 C1124 1.327 . S
C1126 C1145 1.429 . S
C1126 H1150 0.950 . S
C1127 C1144 1.574 . S
C1127 C1146 1.368 . S
C1127 H1151 0.949 . S
H1128 C1132 0.949 . S
C1129 C1130 1.349 . S
C1129 C1131 1.327 . S
C1129 H1152 0.950 . S
C1130 C1129 1.349 . S
C1130 C1142 1.349 . S
C1131 C1129 1.327 . S
C1131 C1147 1.429 . S
C1131 H1153 0.950 . S
C1132 H1128 0.949 . S
C1132 C1140 1.574 . S
C1132 C1148 1.368 . S
H1133 C1141 0.950 . S
H1134 C1139 0.950 . S
H1135 C1140 0.949 . S
H1136 C1142 0.950 . S
H1137 C1143 0.950 . S
H1138 C1144 0.949 . S
C1139 H1134 0.950 . S
C1139 C1141 1.327 . S
C1139 C1145 1.429 . S
C1140 C1132 1.574 . S
C1140 H1135 0.949 . S
C1140 C1146 1.368 . S
C1141 C1125 1.349 . S
C1141 H1133 0.950 . S
C1141 C1139 1.327 . S
C1142 C1130 1.349 . S
C1142 H1136 0.950 . S
C1142 C1143 1.327 . S
C1143 H1137 0.950 . S
C1143 C1142 1.327 . S
C1143 C1147 1.429 . S
C1144 C1127 1.574 . S
C1144 H1138 0.949 . S
C1144 C1148 1.368 . S
C1145 C1126 1.429 . S
C1145 C1139 1.429 . S
C1145 C1146 1.523 . S
C1146 C1127 1.368 . S
C1146 C1140 1.368 . S
C1146 C1145 1.523 . S
C1147 C1131 1.429 . S
C1147 C1143 1.429 . S
C1147 C1148 1.523 . S
C1148 C1132 1.368 . S
C1148 C1144 1.368 . S
C1148 C1147 1.523 . S
H1149 C1124 0.950 . S
H1150 C1126 0.950 . S
H1151 C1127 0.949 . S
H1152 C1129 0.950 . S
H1153 C1131 0.950 . S
C1154 C1155 1.349 . S
C1154 C1156 1.327 . S
C1154 H1179 0.950 . S
C1155 C1154 1.349 . S
C1155 C1171 1.349 . S
C1156 C1154 1.327 . S
C1156 C1175 1.429 . S
C1156 H1180 0.950 . S
C1157 C1174 1.574 . S
C1157 C1176 1.368 . S
C1157 H1181 0.949 . S
H1158 C1162 0.949 . S
C1159 C1160 1.349 . S
C1159 C1161 1.327 . S
C1159 H1182 0.950 . S
C1160 C1159 1.349 . S
C1160 C1172 1.349 . S
C1161 C1159 1.327 . S
C1161 C1177 1.429 . S
C1161 H1183 0.950 . S
C1162 H1158 0.949 . S
C1162 C1170 1.574 . S
C1162 C1178 1.368 . S
H1163 C1171 0.950 . S
H1164 C1169 0.950 . S
H1165 C1170 0.949 . S
H1166 C1172 0.950 . S
H1167 C1173 0.950 . S
H1168 C1174 0.949 . S
C1169 H1164 0.950 . S
C1169 C1171 1.327 . S
C1169 C1175 1.429 . S
C1170 C1162 1.574 . S
C1170 H1165 0.949 . S
C1170 C1176 1.368 . S
C1171 C1155 1.349 . S
C1171 H1163 0.950 . S
C1171 C1169 1.327 . S
C1172 C1160 1.349 . S
C1172 H1166 0.950 . S
C1172 C1173 1.327 . S
C1173 H1167 0.950 . S
C1173 C1172 1.327 . S
C1173 C1177 1.429 . S
C1174 C1157 1.574 . S
C1174 H1168 0.949 . S
C1174 C1178 1.368 . S
C1175 C1156 1.429 . S
C1175 C1169 1.429 . S
C1175 C1176 1.523 . S
C1176 C1157 1.368 . S
C1176 C1170 1.368 . S
C1176 C1175 1.523 . S
C1177 C1161 1.429 . S
C1177 C1173 1.429 . S
C1177 C1178 1.523 . S
C1178 C1162 1.368 . S
C1178 C1174 1.368 . S
C1178 C1177 1.523 . S
H1179 C1154 0.950 . S
H1180 C1156 0.950 . S
H1181 C1157 0.949 . S
H1182 C1159 0.950 . S
H1183 C1161 0.950 . S
C705 C108 1.307 . S
C710 C57 1.307 . S
C735 C145 1.307 . S
C740 C205 1.307 . S
C765 C293 1.307 . S
C770 C225 1.307 . S
C795 C313 1.307 . S
C800 C20 1.307 . S
C825 C409 1.307 . S
C830 C460 1.307 . S
C855 C497 1.307 . S
C860 C557 1.307 . S
C885 C577 1.307 . S
C890 C645 1.307 . S
C915 C372 1.307 . S
C920 C665 1.307 . S
C945 C49 1.486 . S
C950 C636 1.486 . S
C975 C381 1.486 . S
C980 C137 1.486 . S
C1005 C469 1.486 . S
C1010 C233 1.486 . S
C1035 C321 1.486 . S
C1040 C548 1.486 . S
C1065 C196 1.486 . S
C1070 C673 1.486 . S
C1095 C401 1.486 . S
C1100 C284 1.486 . S
C1125 C489 1.486 . S
C1130 C29 1.486 . S
C1155 C117 1.486 . S
C1160 C585 1.486 . S
