# Generated by pormake.
# Topology zfo, (5)-cn, num edge types: 1
# Building blocks:
#     Node 0, Type 0, BuildingBlock: XOMCOT_clean_sbu_1, # of connection points: 5
#     Node 1, Type 0, BuildingBlock: XOMCOT_clean_sbu_1, # of connection points: 5
#     Node 2, Type 0, BuildingBlock: XOMCOT_clean_sbu_1, # of connection points: 5
#     Node 3, Type 0, BuildingBlock: XOMCOT_clean_sbu_1, # of connection points: 5
#     Node 4, Type 0, BuildingBlock: XOMCOT_clean_sbu_1, # of connection points: 5
#     Node 5, Type 0, BuildingBlock: XOMCOT_clean_sbu_1, # of connection points: 5
#     Node 6, Type 0, BuildingBlock: XOMCOT_clean_sbu_1, # of connection points: 5
#     Node 7, Type 0, BuildingBlock: XOMCOT_clean_sbu_1, # of connection points: 5
#     Node 8, Type 0, BuildingBlock: XOMCOT_clean_sbu_1, # of connection points: 5
#     Node 9, Type 0, BuildingBlock: XOMCOT_clean_sbu_1, # of connection points: 5
#     Node 10, Type 0, BuildingBlock: XOMCOT_clean_sbu_1, # of connection points: 5
#     Node 11, Type 0, BuildingBlock: XOMCOT_clean_sbu_1, # of connection points: 5
#     Node 12, Type 0, BuildingBlock: XOMCOT_clean_sbu_1, # of connection points: 5
#     Node 13, Type 0, BuildingBlock: XOMCOT_clean_sbu_1, # of connection points: 5
#     Node 14, Type 0, BuildingBlock: XOMCOT_clean_sbu_1, # of connection points: 5
#     Node 15, Type 0, BuildingBlock: XOMCOT_clean_sbu_1, # of connection points: 5
#     Edge 16, Type (0, 0), BuildingBlock: EZIPEK_clean_linker_0, # of connection points: 2
#     Edge 17, Type (0, 0), BuildingBlock: EZIPEK_clean_linker_0, # of connection points: 2
#     Edge 18, Type (0, 0), BuildingBlock: EZIPEK_clean_linker_0, # of connection points: 2
#     Edge 19, Type (0, 0), BuildingBlock: EZIPEK_clean_linker_0, # of connection points: 2
#     Edge 20, Type (0, 0), BuildingBlock: EZIPEK_clean_linker_0, # of connection points: 2
#     Edge 21, Type (0, 0), BuildingBlock: EZIPEK_clean_linker_0, # of connection points: 2
#     Edge 22, Type (0, 0), BuildingBlock: EZIPEK_clean_linker_0, # of connection points: 2
#     Edge 23, Type (0, 0), BuildingBlock: EZIPEK_clean_linker_0, # of connection points: 2
#     Edge 24, Type (0, 0), BuildingBlock: EZIPEK_clean_linker_0, # of connection points: 2
#     Edge 25, Type (0, 0), BuildingBlock: EZIPEK_clean_linker_0, # of connection points: 2
#     Edge 26, Type (0, 0), BuildingBlock: EZIPEK_clean_linker_0, # of connection points: 2
#     Edge 27, Type (0, 0), BuildingBlock: EZIPEK_clean_linker_0, # of connection points: 2
#     Edge 28, Type (0, 0), BuildingBlock: EZIPEK_clean_linker_0, # of connection points: 2
#     Edge 29, Type (0, 0), BuildingBlock: EZIPEK_clean_linker_0, # of connection points: 2
#     Edge 30, Type (0, 0), BuildingBlock: EZIPEK_clean_linker_0, # of connection points: 2
#     Edge 31, Type (0, 0), BuildingBlock: EZIPEK_clean_linker_0, # of connection points: 2
#     Edge 32, Type (0, 0), BuildingBlock: EZIPEK_clean_linker_0, # of connection points: 2
#     Edge 33, Type (0, 0), BuildingBlock: EZIPEK_clean_linker_0, # of connection points: 2
#     Edge 34, Type (0, 0), BuildingBlock: EZIPEK_clean_linker_0, # of connection points: 2
#     Edge 35, Type (0, 0), BuildingBlock: EZIPEK_clean_linker_0, # of connection points: 2
#     Edge 36, Type (0, 0), BuildingBlock: EZIPEK_clean_linker_0, # of connection points: 2
#     Edge 37, Type (0, 0), BuildingBlock: EZIPEK_clean_linker_0, # of connection points: 2
#     Edge 38, Type (0, 0), BuildingBlock: EZIPEK_clean_linker_0, # of connection points: 2
#     Edge 39, Type (0, 0), BuildingBlock: EZIPEK_clean_linker_0, # of connection points: 2
#     Edge 40, Type (0, 0), BuildingBlock: EZIPEK_clean_linker_0, # of connection points: 2
#     Edge 41, Type (0, 0), BuildingBlock: EZIPEK_clean_linker_0, # of connection points: 2
#     Edge 42, Type (0, 0), BuildingBlock: EZIPEK_clean_linker_0, # of connection points: 2
#     Edge 43, Type (0, 0), BuildingBlock: EZIPEK_clean_linker_0, # of connection points: 2
#     Edge 44, Type (0, 0), BuildingBlock: EZIPEK_clean_linker_0, # of connection points: 2
#     Edge 45, Type (0, 0), BuildingBlock: EZIPEK_clean_linker_0, # of connection points: 2
#     Edge 46, Type (0, 0), BuildingBlock: EZIPEK_clean_linker_0, # of connection points: 2
#     Edge 47, Type (0, 0), BuildingBlock: EZIPEK_clean_linker_0, # of connection points: 2
#     Edge 48, Type (0, 0), BuildingBlock: EZIPEK_clean_linker_0, # of connection points: 2
#     Edge 49, Type (0, 0), BuildingBlock: EZIPEK_clean_linker_0, # of connection points: 2
#     Edge 50, Type (0, 0), BuildingBlock: EZIPEK_clean_linker_0, # of connection points: 2
#     Edge 51, Type (0, 0), BuildingBlock: EZIPEK_clean_linker_0, # of connection points: 2
#     Edge 52, Type (0, 0), BuildingBlock: EZIPEK_clean_linker_0, # of connection points: 2
#     Edge 53, Type (0, 0), BuildingBlock: EZIPEK_clean_linker_0, # of connection points: 2
#     Edge 54, Type (0, 0), BuildingBlock: EZIPEK_clean_linker_0, # of connection points: 2
#     Edge 55, Type (0, 0), BuildingBlock: EZIPEK_clean_linker_0, # of connection points: 2
# Relax obj value: 0.179
# Max RMSD: 0.150
# Mean RMSD: 0.150
data_MOF--net-zfo--node1-XOMCOT_clean_sbu_1--edge1-EZIPEK_clean_linker_0
_symmetry_space_group_name_H-M    P1
_symmetry_Int_Tables_number       1
_symmetry_cell_setting            triclinic
loop_
_symmetry_equiv_pos_as_xyz
'x, y, z'
_cell_length_a     27.259265
_cell_length_b     27.23273
_cell_length_c     38.036684
_cell_angle_alpha  90.07356
_cell_angle_beta   90.117254
_cell_angle_gamma 90.348981
loop_
_atom_site_label
_atom_site_type_symbol
_atom_site_fract_x
_atom_site_fract_y
_atom_site_fract_z
_atom_type_partial_charge
C0 C 1.00094 0.2383 0.19215 0.0
C1 C 0.951 0.23543 0.19684 0.0
N2 N 0.92972 0.26722 0.17463 0.0
N3 N 0.01155 0.27143 0.16678 0.0
C4 C 0.9671 0.28978 0.15749 0.0
H5 H 0.02791 0.21554 0.20502 0.0
Co6 Co 0.07752 0.27837 0.15097 0.0
C7 C 0.02609 0.30397 0.07926 0.0
O8 O 0.98469 0.28003 0.08331 0.0
N9 N 0.14437 0.2855 0.13738 0.0
C10 C 0.21354 0.29094 0.10631 0.0
C11 C 0.16314 0.29177 0.10477 0.0
C12 C 0.18455 0.28215 0.15844 0.0
N13 N 0.22689 0.2844 0.13996 0.0
O14 O 0.08305 0.34371 0.17247 0.0
H15 H 0.14205 0.29585 0.08102 0.0
H16 H 0.18277 0.27604 0.18651 0.0
O17 O 0.0586 0.30509 0.10383 0.0
C18 C 0.06536 0.3593 0.20162 0.0
O19 O 0.02161 0.345 0.21171 0.0
N20 N 0.07527 0.2124 0.13227 0.0
C21 C 0.07041 0.11222 0.1157 0.0
C22 C 0.02857 0.14155 0.11406 0.0
C23 C 0.03222 0.19154 0.12101 0.0
C24 C 0.11633 0.18373 0.13378 0.0
C25 C 0.11535 0.13465 0.1234 0.0
H26 H 0.99908 0.21212 0.11956 0.0
H27 H 0.15001 0.19719 0.14462 0.0
H28 H 0.96184 0.31829 0.13816 0.0
H29 H 0.93158 0.20992 0.2137 0.0
H30 H 0.23857 0.29417 0.08436 0.0
H31 H 0.99285 0.1258 0.10828 0.0
H32 H 0.14873 0.11331 0.12465 0.0
C33 C 0.78704 0.98871 0.68979 0.0
C34 C 0.78867 0.93826 0.69118 0.0
N35 N 0.75138 0.92047 0.67172 0.0
N36 N 0.74917 1.00273 0.66927 0.0
C37 C 0.72753 0.96012 0.65904 0.0
H38 H 0.81239 0.01379 0.7025 0.0
Co39 Co 0.73615 0.0689 0.65912 0.0
C40 C 0.70721 0.07314 0.5849 0.0
O41 O 0.73634 0.11171 0.58341 0.0
N42 N 0.72204 0.13695 0.65067 0.0
C43 C 0.67693 0.20311 0.63813 0.0
C44 C 0.67741 0.15266 0.63992 0.0
C45 C 0.74737 0.17938 0.65657 0.0
N46 N 0.72102 0.21973 0.64868 0.0
O47 O 0.67761 0.06439 0.68646 0.0
H48 H 0.64662 0.12875 0.63418 0.0
H49 H 0.78362 0.18189 0.66764 0.0
O50 O 0.70161 0.05053 0.61433 0.0
C51 C 0.68973 0.07745 0.71751 0.0
O52 O 0.73565 0.09034 0.72315 0.0
N53 N 0.79685 0.07206 0.63584 0.0
C54 C 0.89488 0.05468 0.62027 0.0
C55 C 0.85777 0.02868 0.60279 0.0
C56 C 0.80895 0.03815 0.61076 0.0
C57 C 0.83286 0.09773 0.65279 0.0
C58 C 0.88195 0.09199 0.64376 0.0
H59 H 0.78163 0.01377 0.59988 0.0
H60 H 0.82458 0.11782 0.6764 0.0
H61 H 0.69501 0.95803 0.64282 0.0
H62 H 0.81533 0.91624 0.70508 0.0
H63 H 0.64619 0.22594 0.6308 0.0
H64 H 0.86646 0.9986 0.58524 0.0
H65 H 0.90987 0.11165 0.65853 0.0
C66 C 0.03378 0.71831 0.195 0.0
C67 C 0.08423 0.717 0.19494 0.0
N68 N 0.09993 0.73525 0.16418 0.0
N69 N 0.01723 0.73715 0.16429 0.0
C70 C 0.05902 0.74644 0.14595 0.0
H71 H 0.01152 0.70976 0.21755 0.0
Co72 Co 0.95253 0.76023 0.15466 0.0
C73 C 0.92842 0.73017 0.08099 0.0
O74 O 0.89577 0.76521 0.07897 0.0
N75 N 0.88726 0.7852 0.14636 0.0
C76 C 0.82505 0.83657 0.13589 0.0
C77 C 0.87502 0.83215 0.13832 0.0
C78 C 0.84296 0.76201 0.14882 0.0
N79 N 0.80489 0.79264 0.14267 0.0
O80 O 0.92443 0.70399 0.17793 0.0
H81 H 0.90018 0.86227 0.1343 0.0
H82 H 0.83838 0.72365 0.15544 0.0
O83 O 0.95329 0.72441 0.10927 0.0
C84 C 0.91605 0.71223 0.21043 0.0
O85 O 0.92903 0.75498 0.22371 0.0
N86 N 0.98018 0.81682 0.13531 0.0
C87 C 0.02021 0.908 0.11955 0.0
C88 C 0.01526 0.87228 0.09327 0.0
C89 C 0.99396 0.82704 0.10153 0.0
C90 C 0.98747 0.85023 0.16144 0.0
C91 C 0.00621 0.89652 0.15401 0.0
H92 H 0.99061 0.80026 0.08094 0.0
H93 H 0.97699 0.84112 0.18807 0.0
H94 H 0.06021 0.76476 0.12087 0.0
H95 H 0.10763 0.7074 0.21688 0.0
H96 H 0.80485 0.86979 0.13032 0.0
H97 H 0.027 0.87967 0.06659 0.0
H98 H 0.00994 0.92315 0.17505 0.0
C99 C 0.23039 0.98342 0.69253 0.0
C100 C 0.23098 0.03356 0.69667 0.0
N101 N 0.24916 0.0536 0.66715 0.0
N102 N 0.24868 0.97144 0.66069 0.0
C103 C 0.26032 0.01532 0.64594 0.0
H104 H 0.21411 0.95742 0.71056 0.0
Co105 Co 0.23964 0.90685 0.64383 0.0
C106 C 0.26437 0.91136 0.56741 0.0
O107 O 0.22069 0.89364 0.5605 0.0
N108 N 0.22749 0.83963 0.62921 0.0
C109 C 0.19115 0.77122 0.60867 0.0
C110 C 0.19136 0.8216 0.60809 0.0
C111 C 0.2482 0.79825 0.64267 0.0
N112 N 0.22676 0.7566 0.63048 0.0
O113 O 0.29928 0.88508 0.66722 0.0
H114 H 0.16448 0.84315 0.5942 0.0
H115 H 0.2769 0.79819 0.66232 0.0
O116 O 0.27722 0.92024 0.59936 0.0
C117 C 0.32917 0.90475 0.68912 0.0
O118 O 0.33418 0.95264 0.69088 0.0
N119 N 0.17995 0.92782 0.62508 0.0
C120 C 0.08817 0.96963 0.61636 0.0
C121 C 0.12862 0.98827 0.59807 0.0
C122 C 0.17433 0.9666 0.60265 0.0
C123 C 0.14075 0.9094 0.643 0.0
C124 C 0.09413 0.92851 0.63798 0.0
H125 H 0.20548 0.98321 0.58993 0.0
H126 H 0.14615 0.88075 0.66228 0.0
H127 H 0.27288 0.01962 0.61933 0.0
H128 H 0.21539 0.05393 0.71836 0.0
H129 H 0.1656 0.74709 0.59518 0.0
H130 H 0.12532 0.02069 0.58177 0.0
H131 H 0.06359 0.91362 0.65281 0.0
C132 C 0.4952 0.15541 0.8807 0.0
C133 C 0.44532 0.15902 0.87662 0.0
N134 N 0.43444 0.20631 0.87087 0.0
N135 N 0.5163 0.20031 0.87776 0.0
C136 C 0.47793 0.23066 0.87118 0.0
H137 H 0.51446 0.1222 0.88757 0.0
Co138 Co 0.58381 0.21175 0.88855 0.0
C139 C 0.5769 0.14717 0.95224 0.0
O140 O 0.59292 0.10732 0.93666 0.0
N141 N 0.65086 0.22168 0.90058 0.0
C142 C 0.71722 0.23946 0.9327 0.0
C143 C 0.667 0.23468 0.93296 0.0
C144 C 0.69231 0.21912 0.88094 0.0
N145 N 0.73303 0.22974 0.90004 0.0
O146 O 0.59947 0.14898 0.86913 0.0
H147 H 0.64363 0.24103 0.95544 0.0
H148 H 0.69278 0.21008 0.85324 0.0
O149 O 0.57196 0.18703 0.93522 0.0
C150 C 0.60343 0.15685 0.83618 0.0
O151 O 0.59661 0.20183 0.82469 0.0
N152 N 0.57008 0.27532 0.90344 0.0
C153 C 0.54536 0.37374 0.90866 0.0
C154 C 0.52246 0.33876 0.93036 0.0
C155 C 0.53631 0.28935 0.92791 0.0
C156 C 0.59399 0.30926 0.88347 0.0
C157 C 0.58336 0.3588 0.8865 0.0
H158 H 0.5171 0.26207 0.94337 0.0
H159 H 0.62001 0.29752 0.8638 0.0
H160 H 0.48118 0.27013 0.86885 0.0
H161 H 0.4187 0.12971 0.87987 0.0
H162 H 0.74042 0.24975 0.95467 0.0
H163 H 0.49272 0.34915 0.94762 0.0
H164 H 0.60182 0.38483 0.86946 0.0
C165 C 0.70544 0.51416 0.33999 0.0
C166 C 0.70253 0.46382 0.34105 0.0
N167 N 0.73962 0.44739 0.36108 0.0
N168 N 0.74412 0.52966 0.3594 0.0
C169 C 0.76466 0.48786 0.37171 0.0
H170 H 0.68012 0.53829 0.32668 0.0
Co171 Co 0.75699 0.59681 0.36733 0.0
C172 C 0.78244 0.60491 0.4427 0.0
O173 O 0.75217 0.6423 0.44303 0.0
N174 N 0.77081 0.66508 0.37388 0.0
C175 C 0.81696 0.73071 0.38679 0.0
C176 C 0.81435 0.68047 0.38709 0.0
C177 C 0.74906 0.70745 0.36333 0.0
N178 N 0.77605 0.74777 0.37147 0.0
O179 O 0.81787 0.59321 0.34155 0.0
H180 H 0.84366 0.65635 0.39502 0.0
H181 H 0.71587 0.70946 0.34801 0.0
O182 O 0.78986 0.58174 0.41365 0.0
C183 C 0.8171 0.58315 0.30869 0.0
O184 O 0.77944 0.55911 0.29557 0.0
N185 N 0.69501 0.60083 0.38925 0.0
C186 C 0.59603 0.58621 0.40421 0.0
C187 C 0.63194 0.56055 0.42279 0.0
C188 C 0.68126 0.56847 0.41499 0.0
C189 C 0.6602 0.62668 0.37152 0.0
C190 C 0.61064 0.62183 0.37982 0.0
H191 H 0.70768 0.54447 0.42695 0.0
H192 H 0.66978 0.6465 0.34809 0.0
H193 H 0.79646 0.487 0.38871 0.0
H194 H 0.67439 0.44101 0.32912 0.0
H195 H 0.84793 0.75298 0.39508 0.0
H196 H 0.62186 0.53186 0.44117 0.0
H197 H 0.58364 0.64118 0.36425 0.0
C198 C 0.5103 0.73755 0.80246 0.0
C199 C 0.55985 0.74505 0.79817 0.0
N200 N 0.5795 0.75562 0.82976 0.0
N201 N 0.49803 0.74436 0.83651 0.0
C202 C 0.54122 0.7562 0.85235 0.0
H203 H 0.48552 0.72526 0.78208 0.0
Co204 Co 0.4346 0.73207 0.85533 0.0
C205 C 0.44809 0.75678 0.93121 0.0
O206 O 0.43343 0.71249 0.93971 0.0
N207 N 0.36897 0.71987 0.87402 0.0
C208 C 0.30346 0.6853 0.90009 0.0
C209 C 0.35345 0.68354 0.89591 0.0
C210 C 0.32664 0.744 0.86633 0.0
N211 N 0.28667 0.72312 0.88125 0.0
O212 O 0.41177 0.79049 0.83263 0.0
H213 H 0.37635 0.65603 0.90789 0.0
H214 H 0.32447 0.7761 0.84985 0.0
O215 O 0.4514 0.76937 0.89881 0.0
C216 C 0.39687 0.77889 0.80177 0.0
O217 O 0.39666 0.73234 0.79263 0.0
N218 N 0.45712 0.67143 0.87227 0.0
C219 C 0.48618 0.57528 0.88564 0.0
C220 C 0.5128 0.61506 0.89954 0.0
C221 C 0.49716 0.66294 0.89299 0.0
C222 C 0.43385 0.63319 0.856 0.0
C223 C 0.44585 0.58489 0.8639 0.0
H224 H 0.51759 0.6928 0.90439 0.0
H225 H 0.40446 0.64036 0.83758 0.0
H226 H 0.54525 0.76288 0.88018 0.0
H227 H 0.58054 0.73928 0.77426 0.0
H228 H 0.28092 0.65989 0.91492 0.0
H229 H 0.54505 0.6091 0.91564 0.0
H230 H 0.42479 0.55522 0.85216 0.0
C231 C 0.2619 0.5216 0.31845 0.0
C232 C 0.26277 0.57171 0.31366 0.0
N233 N 0.25047 0.59334 0.34418 0.0
N234 N 0.24833 0.51104 0.35172 0.0
C235 C 0.24153 0.55586 0.36669 0.0
H236 H 0.27299 0.49476 0.29919 0.0
Co237 Co 0.25087 0.44673 0.37113 0.0
C238 C 0.17234 0.44972 0.42514 0.0
O239 O 0.15065 0.41276 0.40912 0.0
N240 N 0.25545 0.38209 0.39007 0.0
C241 C 0.26303 0.3194 0.42754 0.0
C242 C 0.25517 0.36914 0.42443 0.0
C243 C 0.26561 0.33954 0.37301 0.0
N244 N 0.26956 0.30089 0.39515 0.0
O245 O 0.19283 0.42841 0.34423 0.0
H246 H 0.25123 0.3944 0.44616 0.0
H247 H 0.27217 0.3371 0.34508 0.0
O248 O 0.21154 0.46738 0.41158 0.0
C249 C 0.20078 0.41209 0.31323 0.0
O250 O 0.24624 0.40613 0.30281 0.0
N251 N 0.30863 0.46391 0.39439 0.0
C252 C 0.40072 0.50289 0.40864 0.0
C253 C 0.35895 0.52301 0.42431 0.0
C254 C 0.31318 0.50161 0.41792 0.0
C255 C 0.34908 0.44177 0.38096 0.0
C256 C 0.39575 0.45971 0.38874 0.0
H257 H 0.28139 0.51816 0.42961 0.0
H258 H 0.34496 0.41214 0.36221 0.0
H259 H 0.23226 0.56146 0.39388 0.0
H260 H 0.27391 0.59094 0.29006 0.0
H261 H 0.26498 0.29857 0.45172 0.0
H262 H 0.36138 0.55624 0.43992 0.0
H263 H 0.42735 0.44293 0.37649 0.0
C264 C 0.01915 0.80628 0.84147 0.0
C265 C 0.06955 0.80507 0.84118 0.0
N266 N 0.08388 0.76448 0.85829 0.0
N267 N 1.00155 0.76677 0.85893 0.0
C268 C 0.04212 0.74154 0.86867 0.0
H269 H 0.99651 0.83488 0.8304 0.0
Co270 Co 0.93377 0.75815 0.86771 0.0
C271 C 0.92681 0.72615 0.94153 0.0
O272 O 0.8924 0.75951 0.94424 0.0
N273 N 0.86462 0.74828 0.87437 0.0
C274 C 0.79719 0.70356 0.88487 0.0
C275 C 0.84724 0.70528 0.88711 0.0
C276 C 0.82355 0.77025 0.86144 0.0
N277 N 0.78208 0.7442 0.86827 0.0
O278 O 0.93207 0.69999 0.83886 0.0
H279 H 0.86999 0.67469 0.89428 0.0
H280 H 0.82385 0.80201 0.8445 0.0
O281 O 0.94817 0.71954 0.91174 0.0
C282 C 0.94092 0.70273 0.80595 0.0
O283 O 0.96591 0.74034 0.79377 0.0
N284 N 0.93537 0.81802 0.89381 0.0
C285 C 0.96294 0.91388 0.91133 0.0
C286 C 0.98908 0.87387 0.92449 0.0
C287 C 0.97371 0.8263 0.91643 0.0
C288 C 0.90761 0.85658 0.8828 0.0
C289 C 0.9193 0.90465 0.89278 0.0
H290 H 0.99694 0.7966 0.92459 0.0
H291 H 0.87963 0.85148 0.86329 0.0
H292 H 0.04123 0.70788 0.88372 0.0
H293 H 0.09394 0.83224 0.82982 0.0
H294 H 0.774 0.67259 0.89169 0.0
H295 H 0.02313 0.87921 0.93877 0.0
H296 H 0.89798 0.93471 0.88226 0.0
C297 C 0.32307 0.03878 0.32398 0.0
C298 C 0.32717 0.08874 0.32825 0.0
N299 N 0.30912 0.10043 0.3599 0.0
N300 N 0.30291 0.0181 0.35294 0.0
C301 C 0.29499 0.05726 0.37452 0.0
H302 H 0.33086 0.01982 0.29979 0.0
Co303 Co 0.27864 0.95178 0.35374 0.0
C304 C 0.2905 0.9156 0.42738 0.0
O305 O 0.24908 0.89116 0.4239 0.0
N306 N 0.25359 0.88542 0.35165 0.0
C307 C 0.20948 0.82177 0.33172 0.0
C308 C 0.21409 0.87189 0.33226 0.0
C309 C 0.27313 0.84163 0.36184 0.0
N310 N 0.24642 0.8024 0.35039 0.0
O311 O 0.3381 0.92842 0.33274 0.0
H312 H 0.19103 0.89618 0.3174 0.0
H313 H 0.30695 0.8385 0.37654 0.0
O314 O 0.30632 0.9418 0.40171 0.0
C315 C 0.33324 0.9231 0.29956 0.0
O316 O 0.29143 0.93536 0.28479 0.0
N317 N 0.21864 0.97541 0.37108 0.0
C318 C 0.12641 0.01453 0.38465 0.0
C319 C 0.16103 0.01011 0.41169 0.0
C320 C 0.20671 0.98954 0.40451 0.0
C321 C 0.18698 0.98407 0.34413 0.0
C322 C 0.1399 1.0012 0.35046 0.0
H323 H 0.23289 0.98809 0.42563 0.0
H324 H 0.19851 0.97753 0.31736 0.0
H325 H 0.27643 0.05518 0.39947 0.0
H326 H 0.339 0.11494 0.30858 0.0
H327 H 0.18154 0.80084 0.31791 0.0
H328 H 0.15266 0.02213 0.43816 0.0
H329 H 0.11469 1.00535 0.32862 0.0
C330 C 1.00322 0.2261 0.83272 0.0
C331 C 0.95321 0.21955 0.83305 0.0
N332 N 0.93572 0.23988 0.86262 0.0
N333 N 0.01753 0.25068 0.86185 0.0
C334 C 0.97528 0.25841 0.87984 0.0
H335 H 0.02797 0.21237 0.8129 0.0
Co336 Co 0.0847 0.26148 0.87063 0.0
C337 C 0.05397 0.33286 0.93016 0.0
O338 O 0.0267 0.36285 0.91164 0.0
N339 N 0.15297 0.2725 0.87822 0.0
C340 C 0.22173 0.31577 0.88741 0.0
C341 C 0.17137 0.31719 0.88684 0.0
C342 C 0.1935 0.24455 0.87318 0.0
N343 N 0.23555 0.27014 0.87876 0.0
O344 O 0.08256 0.32032 0.8426 0.0
H345 H 0.14942 0.34924 0.8922 0.0
H346 H 0.19284 0.20663 0.86491 0.0
O347 O 0.07273 0.29599 0.91464 0.0
C348 C 0.09737 0.30942 0.81174 0.0
O349 O 0.1104 0.26382 0.80561 0.0
N350 N 0.08581 0.20167 0.89478 0.0
C351 C 0.0567 0.10611 0.91038 0.0
C352 C 0.043 0.145 0.93228 0.0
C353 C 0.05847 0.19267 0.92427 0.0
C354 C 0.10197 0.16375 0.87461 0.0
C355 C 0.08926 0.11543 0.88267 0.0
H356 H 0.04338 0.22225 0.9396 0.0
H357 H 0.12021 0.17125 0.84999 0.0
H358 H 0.97346 0.2756 0.90543 0.0
H359 H 0.93137 0.20031 0.81355 0.0
H360 H 0.24643 0.34592 0.89345 0.0
H361 H 0.01739 0.13914 0.95364 0.0
H362 H 0.10009 0.08622 0.865 0.0
C363 C 0.7751 0.02551 0.32103 0.0
C364 C 0.77304 0.97608 0.314 0.0
N365 N 0.7556 0.95291 0.34265 0.0
N366 N 0.7573 0.0342 0.3535 0.0
C367 C 0.74481 0.98906 0.36579 0.0
H368 H 0.79099 0.05303 0.30402 0.0
Co369 Co 0.75709 0.09734 0.37451 0.0
C370 C 0.74139 0.06075 0.44882 0.0
O371 O 0.78802 0.06536 0.45677 0.0
N372 N 0.75552 0.16204 0.39437 0.0
C373 C 0.76302 0.22697 0.43007 0.0
C374 C 0.76403 0.17657 0.42792 0.0
C375 C 0.74931 0.20494 0.37674 0.0
N376 N 0.75384 0.24467 0.39785 0.0
O377 O 0.69371 0.10783 0.35432 0.0
H378 H 0.77245 0.15286 0.44962 0.0
H379 H 0.74302 0.20754 0.34877 0.0
O380 O 0.72607 0.07095 0.41781 0.0
C381 C 0.69954 0.12327 0.32297 0.0
O382 O 0.74439 0.13048 0.31142 0.0
N383 N 0.82288 0.08797 0.39061 0.0
C384 C 0.924 0.07347 0.39677 0.0
C385 C 0.89112 0.03429 0.40084 0.0
C386 C 0.84095 0.04252 0.39865 0.0
C387 C 0.85488 0.12647 0.38649 0.0
C388 C 0.9052 0.12054 0.39138 0.0
H389 H 0.81701 0.01174 0.40316 0.0
H390 H 0.84231 0.16181 0.37766 0.0
H391 H 0.73198 0.98229 0.39224 0.0
H392 H 0.78732 0.95809 0.29081 0.0
H393 H 0.76935 0.24905 0.45335 0.0
H394 H 0.90412 0.99728 0.40526 0.0
H395 H 0.92954 0.15181 0.38819 0.0
C396 C 0.5294 0.7278 0.16999 0.0
C397 C 0.57961 0.72491 0.17098 0.0
N398 N 0.59792 0.7616 0.15137 0.0
N399 N 0.5157 0.76598 0.14963 0.0
C400 C 0.55862 0.78638 0.13883 0.0
H401 H 0.50419 0.70421 0.18404 0.0
Co402 Co 0.44867 0.78035 0.14288 0.0
C403 C 0.43597 0.8034 0.06794 0.0
O404 O 0.3962 0.77601 0.06985 0.0
N405 N 0.38037 0.795 0.13761 0.0
C406 C 0.31347 0.83991 0.12697 0.0
C407 C 0.36395 0.83942 0.12692 0.0
C408 C 0.3385 0.76978 0.14516 0.0
N409 N 0.2977 0.79608 0.1386 0.0
O410 O 0.45586 0.84275 0.1667 0.0
H411 H 0.3874 0.86985 0.11952 0.0
H412 H 0.33682 0.73335 0.15599 0.0
O413 O 0.46226 0.80996 0.09572 0.0
C414 C 0.47073 0.84607 0.19854 0.0
O415 O 0.5028 0.81446 0.21046 0.0
N416 N 0.44157 0.71763 0.12289 0.0
C417 C 0.45418 0.61792 0.11104 0.0
C418 C 0.47665 0.65227 0.089 0.0
C419 C 0.47008 0.70212 0.09547 0.0
C420 C 0.41887 0.6842 0.14403 0.0
C421 C 0.42267 0.63414 0.13753 0.0
H422 H 0.49274 0.72757 0.08104 0.0
H423 H 0.40303 0.69578 0.16861 0.0
H424 H 0.56117 0.81927 0.12305 0.0
H425 H 0.60119 0.69859 0.18557 0.0
H426 H 0.29013 0.87034 0.11982 0.0
H427 H 0.50258 0.64077 0.06911 0.0
H428 H 0.40645 0.60832 0.15585 0.0
C429 C 0.27778 0.48279 0.6821 0.0
C430 C 0.27908 0.53309 0.68583 0.0
N431 N 0.24919 0.55263 0.66151 0.0
N432 N 0.24726 0.47042 0.65547 0.0
C433 C 0.2299 0.51404 0.64361 0.0
H434 H 0.29947 0.45684 0.69688 0.0
Co435 Co 0.23998 0.40493 0.63894 0.0
C436 C 0.22111 0.43057 0.56292 0.0
O437 O 0.2633 0.41171 0.5535 0.0
N438 N 0.23214 0.3379 0.62416 0.0
C439 C 0.22264 0.26762 0.59436 0.0
C440 C 0.22254 0.31795 0.59221 0.0
C441 C 0.23705 0.29808 0.64542 0.0
N442 N 0.23212 0.25519 0.62774 0.0
O443 O 0.17807 0.40075 0.66269 0.0
H444 H 0.21607 0.33751 0.56826 0.0
H445 H 0.24566 0.30038 0.67314 0.0
O446 O 0.2074 0.42923 0.59519 0.0
C447 C 0.18557 0.39036 0.69498 0.0
O448 O 0.23101 0.38536 0.70589 0.0
N449 N 0.30399 0.40831 0.61921 0.0
C450 C 0.40479 0.42178 0.61093 0.0
C451 C 0.37206 0.45915 0.60199 0.0
C452 C 0.32186 0.45129 0.60561 0.0
C453 C 0.33557 0.3708 0.62636 0.0
C454 C 0.38587 0.37601 0.62083 0.0
H455 H 0.29749 0.48091 0.59927 0.0
H456 H 0.32297 0.33777 0.63892 0.0
H457 H 0.2056 0.51776 0.62126 0.0
H458 H 0.30164 0.5539 0.70404 0.0
H459 H 0.21665 0.24196 0.57299 0.0
H460 H 0.38523 0.49496 0.59378 0.0
H461 H 0.41017 0.34612 0.62762 0.0
C462 C 0.49863 0.29108 0.20365 0.0
C463 C 0.44861 0.29166 0.20778 0.0
N464 N 0.42825 0.26729 0.18063 0.0
N465 N 0.51033 0.26578 0.17434 0.0
C466 C 0.46637 0.2506 0.16127 0.0
H467 H 0.52458 0.31154 0.2195 0.0
Co468 Co 0.57529 0.26797 0.15676 0.0
C469 C 0.5567 0.23005 0.08302 0.0
O470 O 0.56139 0.27364 0.06889 0.0
N471 N 0.64244 0.27116 0.1408 0.0
C472 C 0.70995 0.2882 0.10947 0.0
C473 C 0.65958 0.28718 0.10935 0.0
C474 C 0.68415 0.2633 0.15969 0.0
N475 N 0.72526 0.27341 0.14117 0.0
O476 O 0.58975 0.21144 0.18435 0.0
H477 H 0.63766 0.30113 0.0882 0.0
H478 H 0.68496 0.2517 0.18679 0.0
O479 O 0.559 0.22417 0.11645 0.0
C480 C 0.60208 0.2218 0.21582 0.0
O481 O 0.60628 0.26826 0.22478 0.0
N482 N 0.55989 0.32621 0.13267 0.0
C483 C 0.52846 0.4202 0.11619 0.0
C484 C 0.49953 0.37952 0.10758 0.0
C485 C 0.51624 0.33282 0.11554 0.0
C486 C 0.58892 0.36569 0.14057 0.0
C487 C 0.57486 0.41292 0.13116 0.0
H488 H 0.49287 0.30221 0.10897 0.0
H489 H 0.6219 0.36104 0.156 0.0
H490 H 0.46203 0.232 0.13629 0.0
H491 H 0.42854 0.31252 0.22721 0.0
H492 H 0.73357 0.30058 0.08838 0.0
H493 H 0.46333 0.38388 0.09623 0.0
H494 H 0.5979 0.44387 0.13846 0.0
C495 C 0.79197 0.48768 0.69968 0.0
C496 C 0.79463 0.43731 0.70036 0.0
N497 N 0.77831 0.42011 0.66938 0.0
N498 N 0.77447 0.50289 0.66823 0.0
C499 C 0.76728 0.46027 0.65018 0.0
H500 H 0.79837 0.51081 0.72222 0.0
Co501 Co 0.75024 0.56732 0.6589 0.0
C502 C 0.77286 0.59084 0.58423 0.0
O503 O 0.7337 0.61849 0.583 0.0
N504 N 0.72442 0.63261 0.65131 0.0
C505 C 0.67277 0.6955 0.64375 0.0
C506 C 0.67729 0.64533 0.64425 0.0
C507 C 0.74768 0.6768 0.65458 0.0
N508 N 0.71687 0.71524 0.65066 0.0
O509 O 0.80778 0.5959 0.68043 0.0
H510 H 0.64717 0.62037 0.6396 0.0
H511 H 0.78623 0.68112 0.66069 0.0
O512 O 0.78354 0.56754 0.61247 0.0
C513 C 0.80231 0.60639 0.7129 0.0
O514 O 0.76021 0.596 0.72806 0.0
N515 N 0.69268 0.53869 0.64112 0.0
C516 C 0.60333 0.49271 0.62704 0.0
C517 C 0.64014 0.49442 0.60144 0.0
C518 C 0.68395 0.51918 0.60856 0.0
C519 C 0.65839 0.53471 0.66695 0.0
C520 C 0.61271 0.51374 0.66008 0.0
H521 H 0.71148 0.51958 0.58845 0.0
H522 H 0.66628 0.54943 0.6928 0.0
H523 H 0.75076 0.4578 0.6245 0.0
H524 H 0.80335 0.41489 0.72299 0.0
H525 H 0.63935 0.71603 0.63967 0.0
H526 H 0.63478 0.47729 0.57599 0.0
H527 H 0.58528 0.51305 0.68064 0.0
C528 C 0.03635 0.03812 0.08457 0.0
C529 C 0.06568 0.05796 0.11208 0.0
C530 C 0.07975 0.9748 0.13336 0.0
C531 C 0.04073 0.9574 0.11209 0.0
N532 N 0.97582 0.97615 0.0706 0.0
N533 N 0.1054 0.04345 0.16851 0.0
C534 C 0.01756 0.98977 0.08808 0.0
C535 C 0.08554 0.02591 0.13792 0.0
N536 N 0.02609 0.0655 0.05545 0.0
N537 N 0.11003 0.94261 0.15011 0.0
H538 H 0.10478 0.08031 0.17575 0.0
H539 H 0.11657 0.0204 0.18884 0.0
H540 H 0.10709 0.90467 0.14655 0.0
H541 H 0.14096 0.95404 0.16417 0.0
H542 H 0.00612 0.0519 0.03415 0.0
H543 H 0.04185 0.10001 0.05119 0.0
H544 H 0.95525 1.00078 0.05577 0.0
H545 H 0.959 0.94199 0.07358 0.0
C546 C 0.01425 1.00343 0.58468 0.0
C547 C 0.04084 0.996 0.61629 0.0
C548 C 0.97065 0.02326 0.65025 0.0
C549 C 0.94616 0.03681 0.61874 0.0
N550 N 0.9507 0.05047 0.55607 0.0
N551 N 0.04952 0.0151 0.67814 0.0
C552 C 0.96986 0.03033 0.5859 0.0
C553 C 0.02081 0.01139 0.64876 0.0
N554 N 0.02962 0.98279 0.55394 0.0
N555 N 0.94572 0.01808 0.68118 0.0
H556 H 0.08724 0.00881 0.67778 0.0
H557 H 0.03667 0.02983 0.70169 0.0
H558 H 0.90774 0.0211 0.68311 0.0
H559 H 0.96216 1.00445 0.70392 0.0
H560 H 0.0081 0.98259 0.53131 0.0
H561 H 0.06111 0.96142 0.55203 0.0
H562 H 0.96918 0.05026 0.53212 0.0
H563 H 0.91902 0.07179 0.55619 0.0
C564 C 0.50793 0.50644 0.92758 0.0
C565 C 0.5011 0.52362 0.8926 0.0
C566 C 0.51105 0.44004 0.87086 0.0
C567 C 0.52611 0.42444 0.90475 0.0
N568 N 0.54708 0.44573 0.9646 0.0
N569 N 0.51134 0.50784 0.83039 0.0
C570 C 0.52692 0.45844 0.93304 0.0
C571 C 0.50699 0.49074 0.86401 0.0
N572 N 0.49462 0.53496 0.95549 0.0
N573 N 0.49978 0.40648 0.84531 0.0
H574 H 0.51269 0.54517 0.82435 0.0
H575 H 0.51964 0.48503 0.80921 0.0
H576 H 0.49984 0.36869 0.84984 0.0
H577 H 0.48499 0.41649 0.82107 0.0
H578 H 0.49682 0.52325 0.98142 0.0
H579 H 0.47676 0.56847 0.9527 0.0
H580 H 0.55341 0.47101 0.98471 0.0
H581 H 0.56165 0.41108 0.96948 0.0
C582 C 0.52091 0.55183 0.37472 0.0
C583 C 0.54411 0.56954 0.40572 0.0
C584 C 0.47266 0.54349 0.44015 0.0
C585 C 0.44831 0.5299 0.40851 0.0
N586 N 0.44333 0.54048 0.34546 0.0
N587 N 0.53721 0.5931 0.46667 0.0
C588 C 0.47049 0.5404 0.37569 0.0
C589 C 0.51833 0.569 0.43813 0.0
N590 N 0.5472 0.54279 0.34487 0.0
N591 N 0.45356 0.53031 0.47193 0.0
H592 H 0.57019 0.6127 0.46573 0.0
H593 H 0.51799 0.59773 0.49007 0.0
H594 H 0.42206 0.50877 0.47455 0.0
H595 H 0.47119 0.53734 0.49567 0.0
H596 H 0.53174 0.52594 0.3228 0.0
H597 H 0.58522 0.54635 0.34349 0.0
H598 H 0.45772 0.55171 0.32136 0.0
H599 H 0.40538 0.53519 0.34528 0.0
C600 C 1.00443 0.0411 0.88231 0.0
C601 C 0.03061 0.05799 0.91225 0.0
C602 C 1.00358 0.98455 0.94414 0.0
C603 C 0.98505 0.96423 0.91226 0.0
N604 N 0.98463 0.96918 0.84851 0.0
N605 N 0.06245 0.04093 0.97021 0.0
C606 C 0.99007 0.99133 0.88055 0.0
C607 C 0.03231 0.02838 0.9429 0.0
N608 N 0.99227 0.07253 0.85575 0.0
N609 N 0.99273 0.96298 0.97557 0.0
H610 H 0.08456 0.07232 0.96999 0.0
H611 H 0.06896 0.01768 0.99144 0.0
H612 H 0.96919 0.9328 0.97772 0.0
H613 H 1.00315 0.97798 0.99964 0.0
H614 H 0.96988 0.06192 0.83477 0.0
H615 H 0.9995 0.11016 0.85681 0.0
H616 H 0.99176 0.98746 0.82497 0.0
H617 H 0.97959 0.93145 0.84545 0.0
C618 C 0.04557 0.01371 0.41739 0.0
C619 C 0.07662 0.03453 0.39135 0.0
C620 C 0.00739 0.08058 0.36804 0.0
C621 C 0.97771 0.06407 0.39639 0.0
N622 N 0.975 0.0277 0.45423 0.0
N623 N 0.08986 0.1013 0.35055 0.0
C624 C 0.99896 0.03489 0.42319 0.0
C625 C 0.05849 0.07259 0.36958 0.0
N626 N 0.05868 0.97213 0.43502 0.0
N627 N 0.98711 0.10044 0.33847 0.0
H628 H 0.12784 0.09793 0.35247 0.0
H629 H 0.07813 0.13176 0.3363 0.0
H630 H 0.94942 0.10254 0.33425 0.0
H631 H 0.00787 0.10914 0.31631 0.0
H632 H 0.03487 0.95371 0.45197 0.0
H633 H 0.09078 0.95289 0.42983 0.0
H634 H 0.99083 0.00912 0.47523 0.0
H635 H 0.94196 0.04495 0.46022 0.0
C636 C 0.50628 0.49914 0.14503 0.0
C637 C 0.50763 0.47016 0.11414 0.0
C638 C 0.46532 0.53543 0.08206 0.0
C639 C 0.47195 0.56675 0.11154 0.0
N640 N 0.51234 0.5813 0.1675 0.0
N641 N 0.49344 0.46245 0.05168 0.0
C642 C 0.49644 0.54952 0.14202 0.0
C643 C 0.48839 0.4887 0.08207 0.0
N644 N 0.51222 0.47842 0.17747 0.0
N645 N 0.4367 0.55007 0.05451 0.0
H646 H 0.51354 0.43007 0.05016 0.0
H647 H 0.48086 0.47437 0.0274 0.0
H648 H 0.41919 0.58402 0.05398 0.0
H649 H 0.42682 0.52711 0.03374 0.0
H650 H 0.50742 0.49812 0.20073 0.0
H651 H 0.51577 0.44068 0.18125 0.0
H652 H 0.53398 0.57013 0.18864 0.0
H653 H 0.50911 0.61926 0.16538 0.0
C654 C 0.48509 0.42449 0.64444 0.0
C655 C 0.45825 0.43263 0.6129 0.0
C656 C 0.52677 0.48073 0.58994 0.0
C657 C 0.55525 0.46841 0.61996 0.0
N658 N 0.56596 0.41243 0.66864 0.0
N659 N 0.4617 0.4535 0.5513 0.0
C660 C 0.53595 0.43477 0.64483 0.0
C661 C 0.48185 0.45567 0.58412 0.0
N662 N 0.46216 0.41066 0.67479 0.0
N663 N 0.5401 0.51855 0.56838 0.0
H664 H 0.42925 0.43432 0.54597 0.0
H665 H 0.48063 0.46552 0.52912 0.0
H666 H 0.57012 0.54141 0.57326 0.0
H667 H 0.51771 0.53075 0.54799 0.0
H668 H 0.48065 0.40838 0.69876 0.0
H669 H 0.42423 0.4074 0.67714 0.0
H670 H 0.55351 0.38508 0.68565 0.0
H671 H 0.60397 0.41713 0.66835 0.0
C672 C 0.07163 0.28728 0.02326 0.0
C673 C 0.0399 0.31811 0.04272 0.0
C674 C 0.02892 0.36989 0.99004 0.0
C675 C 0.057 0.33587 0.97001 0.0
N676 N 0.12701 0.28224 0.97437 0.0
N677 N 0.98665 0.38812 0.04496 0.0
C678 C 0.08497 0.30046 0.98861 0.0
C679 C 0.01835 0.35956 0.02624 0.0
N680 N 0.08704 0.24361 0.03689 0.0
N681 N 0.01658 0.41405 0.97565 0.0
H682 H 0.98011 0.38283 0.07172 0.0
H683 H 0.9648 0.41516 0.03378 0.0
H684 H 0.03087 0.42611 0.95178 0.0
H685 H 0.99855 0.44176 0.98921 0.0
H686 H 0.10519 0.21727 0.02194 0.0
H687 H 0.07814 0.23184 0.0621 0.0
H688 H 0.15066 0.25903 0.98797 0.0
H689 H 0.1422 0.29678 0.95159 0.0
C690 C 0.71749 0.0091 0.49989 0.0
C691 C 0.70731 0.05042 0.47846 0.0
C692 C 0.66656 0.09035 0.52809 0.0
C693 C 0.68744 0.05491 0.5507 0.0
N694 N 0.7123 0.97126 0.55777 0.0
N695 N 0.66105 0.12441 0.46906 0.0
C696 C 0.70575 0.01076 0.53636 0.0
C697 C 0.67687 0.08853 0.49136 0.0
N698 N 0.74105 0.96986 0.48541 0.0
N699 N 0.63845 0.12641 0.54257 0.0
H700 H 0.66562 0.12229 0.44194 0.0
H701 H 0.64253 0.15579 0.47693 0.0
H702 H 0.6305 0.12669 0.56942 0.0
H703 H 0.62082 0.15376 0.52842 0.0
H704 H 0.75424 0.94017 0.49967 0.0
H705 H 0.74774 0.96761 0.45842 0.0
H706 H 0.72438 0.93708 0.54933 0.0
H707 H 0.70104 0.97189 0.58387 0.0
C708 C 0.98358 0.71114 0.99254 0.0
C709 C 0.93978 0.69907 0.97429 0.0
C710 C 0.89844 0.68157 0.02997 0.0
C711 C 0.93882 0.7025 0.04809 0.0
N712 N 0.02606 0.71618 0.04882 0.0
N713 N 0.86562 0.65148 0.97458 0.0
C714 C 0.98379 0.71001 0.03008 0.0
C715 C 0.90066 0.6767 0.99285 0.0
N716 N 0.02379 0.72587 0.974 0.0
N717 N 0.85719 0.66899 0.04828 0.0
H718 H 0.86906 0.64556 0.94768 0.0
H719 H 0.83701 0.63203 0.98626 0.0
H720 H 0.85618 0.66985 0.07573 0.0
H721 H 0.82406 0.65912 0.0365 0.0
H722 H 0.05503 0.74136 0.98535 0.0
H723 H 0.02537 0.72236 0.94675 0.0
H724 H 0.06061 0.71968 0.03749 0.0
H725 H 0.02691 0.71244 0.07604 0.0
C726 C 0.31774 0.87373 0.48236 0.0
C727 C 0.31203 0.91825 0.46351 0.0
C728 C 0.29978 0.96274 0.5187 0.0
C729 C 0.2978 0.91731 0.53683 0.0
N730 N 0.32062 0.83259 0.53926 0.0
N731 N 0.32072 0.00619 0.46496 0.0
C732 C 0.31298 0.87386 0.51968 0.0
C733 C 0.31116 0.96328 0.48215 0.0
N734 N 0.32516 0.83124 0.46409 0.0
N735 N 0.28759 1.0048 0.53591 0.0
H736 H 0.33197 0.00689 0.43883 0.0
H737 H 0.32334 0.04012 0.47748 0.0
H738 H 0.2818 1.00524 0.56289 0.0
H739 H 0.28182 0.03831 0.52345 0.0
H740 H 0.32462 0.79641 0.47527 0.0
H741 H 0.33157 0.83137 0.43705 0.0
H742 H 0.3338 0.79972 0.52915 0.0
H743 H 0.31706 0.83282 0.56661 0.0
C744 C 0.51387 0.18435 0.03537 0.0
C745 C 0.5547 0.1881 0.05829 0.0
C746 C 0.60704 0.14783 0.01482 0.0
C747 C 0.5673 0.1485 0.9906 0.0
N748 N 0.48038 0.15234 0.9806 0.0
N749 N 0.63463 0.15974 0.07513 0.0
C750 C 0.51966 0.16144 1.00203 0.0
C751 C 0.59927 0.16444 0.04989 0.0
N752 N 0.47053 0.20543 0.04487 0.0
N753 N 0.65289 0.13528 1.00359 0.0
H754 H 0.62952 0.17196 0.10085 0.0
H755 H 0.66671 0.13979 0.07164 0.0
H756 H 0.65987 0.12226 0.97833 0.0
H757 H 0.68449 0.14002 0.01864 0.0
H758 H 0.4408 0.20961 0.02795 0.0
H759 H 0.46515 0.22024 0.0699 0.0
H760 H 0.44409 0.15783 0.988 0.0
H761 H 0.48418 0.13496 0.95629 0.0
C762 C 0.79523 0.54182 0.53088 0.0
C763 C 0.80096 0.5852 0.55103 0.0
C764 C 0.82497 0.62955 0.49785 0.0
C765 C 0.80494 0.59093 0.47716 0.0
N766 N 0.77826 0.50649 0.47353 0.0
N767 N 0.82958 0.66843 0.55533 0.0
C768 C 0.79352 0.54533 0.49345 0.0
C769 C 0.81964 0.62818 0.53499 0.0
N770 N 0.79117 0.49773 0.54759 0.0
N771 N 0.84819 0.66776 0.48163 0.0
H772 H 0.82838 0.66698 0.58276 0.0
H773 H 0.83749 0.70309 0.54523 0.0
H774 H 0.85341 0.66821 0.45452 0.0
H775 H 0.86637 0.6959 0.49497 0.0
H776 H 0.78991 0.46409 0.53458 0.0
H777 H 0.79463 0.49481 0.5748 0.0
H778 H 0.76284 0.47461 0.48393 0.0
H779 H 0.78037 0.50672 0.44629 0.0
C780 C 0.41441 0.83433 1.00859 0.0
C781 C 0.45167 0.81842 0.03189 0.0
C782 C 0.49834 0.78603 0.98221 0.0
C783 C 0.45639 0.79202 0.96052 0.0
N784 N 0.37812 0.82936 0.95007 0.0
N785 N 0.53717 0.8003 0.03904 0.0
C786 C 0.41612 0.82005 0.97254 0.0
C787 C 0.49661 0.80142 0.01803 0.0
N788 N 0.37699 0.8619 0.02174 0.0
N789 N 0.53861 0.76318 0.9688 0.0
H790 H 0.53697 0.81505 0.06426 0.0
H791 H 0.57188 0.79 0.03059 0.0
H792 H 0.54148 0.75496 0.94214 0.0
H793 H 0.56853 0.752 0.98373 0.0
H794 H 0.34887 0.8767 1.00668 0.0
H795 H 0.37644 0.87279 0.04809 0.0
H796 H 0.34525 0.8455 0.95747 0.0
H797 H 0.37962 0.82031 0.92342 0.0
C798 C 0.15152 0.41885 0.52029 0.0
C799 C 0.18906 0.44944 0.53439 0.0
C800 C 0.1883 0.49829 0.48042 0.0
C801 C 0.1625 0.4598 0.46345 0.0
N802 N 0.09666 0.40169 0.47108 0.0
N803 N 0.23675 0.52384 0.53091 0.0
C804 C 0.13663 0.42552 0.4846 0.0
C805 C 0.20461 0.49164 0.5156 0.0
N806 N 0.13205 0.38228 0.5405 0.0
N807 N 0.19504 0.54155 0.46309 0.0
H808 H 0.24655 0.52118 0.55737 0.0
H809 H 0.25424 0.55212 0.51736 0.0
H810 H 0.17873 0.54746 0.43862 0.0
H811 H 0.21123 0.57257 0.47431 0.0
H812 H 0.10929 0.35457 0.53083 0.0
H813 H 0.13938 0.37967 0.56735 0.0
H814 H 0.07461 0.37768 0.48538 0.0
H815 H 0.08197 0.41098 0.44665 0.0
C816 C 0.12287 0.33588 0.25012 0.0
C817 C 0.10013 0.37355 0.23013 0.0
C818 C 0.13467 0.43604 0.27016 0.0
C819 C 0.16046 0.39863 0.2884 0.0
N820 N 0.17988 0.31328 0.29622 0.0
N821 N 0.08562 0.45909 0.21913 0.0
C822 C 0.15452 0.34865 0.27852 0.0
C823 C 0.10617 0.42359 0.23974 0.0
N824 N 0.11297 0.28767 0.24256 0.0
N825 N 0.13743 0.48337 0.28208 0.0
H826 H 0.06446 0.45084 0.19697 0.0
H827 H 0.09169 0.49655 0.22239 0.0
H828 H 0.15816 0.49355 0.30399 0.0
H829 H 0.11678 0.51213 0.27205 0.0
H830 H 0.12281 0.25844 0.25862 0.0
H831 H 0.09264 0.27648 0.22074 0.0
H832 H 0.18368 0.27722 0.2876 0.0
H833 H 0.19839 0.32055 0.31958 0.0
C834 C 0.67415 0.06512 0.78116 0.0
C835 C 0.65522 0.07908 0.74786 0.0
C836 C 0.5871 0.11916 0.77796 0.0
C837 C 0.61432 0.11816 0.80978 0.0
N838 N 0.6839 0.08743 0.84237 0.0
N839 N 0.58983 0.11683 0.71446 0.0
C840 C 0.65721 0.08917 0.81198 0.0
C841 C 0.60978 0.10417 0.74609 0.0
N842 N 0.70887 0.02928 0.783 0.0
N843 N 0.53971 0.13516 0.7784 0.0
H844 H 0.60318 0.10453 0.69048 0.0
H845 H 0.56072 0.14121 0.712 0.0
H846 H 0.52236 0.14549 0.8017 0.0
H847 H 0.51643 0.13317 0.75668 0.0
H848 H 0.72153 0.01479 0.80666 0.0
H849 H 0.72077 0.0105 0.76065 0.0
H850 H 0.71878 0.0721 0.84379 0.0
H851 H 0.67253 0.10346 0.8658 0.0
C852 C 0.88921 0.60199 0.26962 0.0
C853 C 0.84365 0.61612 0.28418 0.0
C854 C 0.84475 0.69184 0.24925 0.0
C855 C 0.88923 0.67671 0.23318 0.0
N856 N 0.95028 0.61414 0.22396 0.0
N857 N 0.77316 0.66952 0.28324 0.0
C858 C 0.91035 0.63065 0.24203 0.0
C859 C 0.8201 0.6597 0.27274 0.0
N860 N 0.9126 0.56166 0.28271 0.0
N861 N 0.82597 0.73727 0.24228 0.0
H862 H 0.75379 0.64783 0.30106 0.0
H863 H 0.7517 0.69714 0.27238 0.0
H864 H 0.83979 0.76037 0.22285 0.0
H865 H 0.7982 0.75336 0.25702 0.0
H866 H 0.9482 0.55183 0.27599 0.0
H867 H 0.89753 0.53977 0.30249 0.0
H868 H 0.96457 0.579 0.22671 0.0
H869 H 0.96712 0.63414 0.20401 0.0
C870 C 0.41128 0.85018 0.76078 0.0
C871 C 0.37849 0.8155 0.7761 0.0
C872 C 0.31238 0.84541 0.7382 0.0
C873 C 0.34664 0.87463 0.71923 0.0
N874 N 0.43021 0.90088 0.71001 0.0
N875 N 0.29943 0.77421 0.77449 0.0
C876 C 0.39651 0.87635 0.73006 0.0
C877 C 0.32962 0.81128 0.7633 0.0
N878 N 0.45675 0.85757 0.77511 0.0
N879 N 0.26302 0.85192 0.73384 0.0
H880 H 0.3092 0.7489 0.79365 0.0
H881 H 0.26589 0.76609 0.76254 0.0
H882 H 0.24804 0.8783 0.71731 0.0
H883 H 0.23681 0.83508 0.74978 0.0
H884 H 0.48023 0.88584 0.76739 0.0
H885 H 0.46969 0.83793 0.79666 0.0
H886 H 0.4679 0.89921 0.71432 0.0
H887 H 0.4209 0.91955 0.68705 0.0
C888 C 0.86444 0.70369 0.76984 0.0
C889 C 0.90671 0.67794 0.7813 0.0
C890 C 0.88577 0.60943 0.74191 0.0
C891 C 0.84068 0.63279 0.73353 0.0
N892 N 0.78493 0.70054 0.7418 0.0
N893 N 0.95641 0.60537 0.78106 0.0
C894 C 0.82953 0.67952 0.74808 0.0
C895 C 0.91712 0.63053 0.76806 0.0
N896 N 0.85795 0.75176 0.77927 0.0
N897 N 0.8988 0.56736 0.72478 0.0
H898 H 0.98051 0.62042 0.79957 0.0
H899 H 0.96333 0.56864 0.77548 0.0
H900 H 0.87679 0.55058 0.70581 0.0
H901 H 0.9331 0.55111 0.72716 0.0
H902 H 0.83169 0.77448 0.76801 0.0
H903 H 0.88093 0.7705 0.79669 0.0
H904 H 0.77199 0.73112 0.75526 0.0
H905 H 0.75897 0.68562 0.72478 0.0
C906 C 0.36091 0.8563 0.25921 0.0
C907 C 0.37177 0.90079 0.27725 0.0
C908 C 0.44653 0.91125 0.24191 0.0
C909 C 0.43634 0.86602 0.22491 0.0
N910 N 0.39104 0.78946 0.22351 0.0
N911 N 0.42926 0.96587 0.29081 0.0
C912 C 0.39558 0.83678 0.23532 0.0
C913 C 0.41609 0.92675 0.27026 0.0
N914 N 0.31712 0.83275 0.26462 0.0
N915 N 0.48464 0.93979 0.23037 0.0
H916 H 0.40808 0.97807 0.31178 0.0
H917 H 0.4631 0.98361 0.28918 0.0
H918 H 0.50788 0.92892 0.21007 0.0
H919 H 0.49118 0.97552 0.23902 0.0
H920 H 0.30453 0.80364 0.24923 0.0
H921 H 0.29202 0.84355 0.28367 0.0
H922 H 0.36553 0.76446 0.23339 0.0
H923 H 0.41549 0.77343 0.20594 0.0
C924 C 0.08604 0.32827 0.74846 0.0
C925 C 0.10123 0.34511 0.7821 0.0
C926 C 0.14996 0.4094 0.75344 0.0
C927 C 0.14571 0.38358 0.72115 0.0
N928 N 0.10689 0.31956 0.6869 0.0
N929 N 0.14284 0.40672 0.81694 0.0
C930 C 0.11178 0.3442 0.71801 0.0
C931 C 0.13071 0.38808 0.78475 0.0
N932 N 0.04739 0.29633 0.74602 0.0
N933 N 0.17297 0.4541 0.7539 0.0
H934 H 0.12637 0.39488 0.84008 0.0
H935 H 0.16984 0.43342 0.82077 0.0
H936 H 0.18653 0.47033 0.731 0.0
H937 H 0.17427 0.47691 0.77587 0.0
H938 H 0.0319 0.28527 0.72222 0.0
H939 H 0.0277 0.28524 0.76818 0.0
H940 H 0.08752 0.28665 0.68437 0.0
H941 H 0.12416 0.3307 0.66382 0.0
C942 C 0.62455 0.17154 0.30598 0.0
C943 C 0.65858 0.13392 0.29861 0.0
C944 C 0.64564 0.1442 0.23541 0.0
C945 C 0.61345 0.18381 0.24258 0.0
N946 N 0.55732 0.22041 0.28382 0.0
N947 N 0.68427 0.07107 0.2585 0.0
C948 C 0.59777 0.19236 0.27768 0.0
C949 C 0.66279 0.11554 0.26394 0.0
N950 N 0.62008 0.18978 0.33927 0.0
N951 N 0.66328 0.13603 0.20232 0.0
H952 H 0.69557 0.04917 0.27945 0.0
H953 H 0.68531 0.05386 0.23402 0.0
H954 H 0.65295 0.15602 0.1803 0.0
H955 H 0.69142 0.11134 0.19714 0.0
H956 H 0.60049 0.22153 0.34503 0.0
H957 H 0.63792 0.17467 0.3609 0.0
H958 H 0.54205 0.22488 0.30871 0.0
H959 H 0.53599 0.23444 0.26341 0.0
C960 C 0.35796 0.31745 0.16043 0.0
C961 C 0.37747 0.271 0.16987 0.0
C962 C 0.2971 0.23281 0.15877 0.0
C963 C 0.27675 0.27985 0.15247 0.0
N964 N 0.28541 0.36748 0.15199 0.0
N965 N 0.36497 0.18558 0.18251 0.0
C966 C 0.30662 0.32235 0.15476 0.0
C967 C 0.34677 0.22892 0.17028 0.0
N968 N 0.38894 0.35641 0.15544 0.0
N969 N 0.26942 0.19188 0.15233 0.0
H970 H 0.40131 0.18193 0.19074 0.0
H971 H 0.34342 0.15449 0.18688 0.0
H972 H 0.23335 0.19389 0.14346 0.0
H973 H 0.28322 0.15634 0.15305 0.0
H974 H 0.37784 0.38997 0.14517 0.0
H975 H 0.4268 0.35377 0.15851 0.0
H976 H 0.30405 0.4003 0.1568 0.0
H977 H 0.24784 0.37181 0.14776 0.0
C978 C 0.71228 0.29912 0.67965 0.0
C979 C 0.73549 0.27044 0.65351 0.0
C980 C 0.78807 0.34084 0.63804 0.0
C981 C 0.76249 0.37023 0.66256 0.0
N982 N 0.69319 0.38075 0.70084 0.0
N983 N 0.78999 0.26509 0.60412 0.0
C984 C 0.72246 0.3503 0.68167 0.0
C985 C 0.77199 0.29164 0.63164 0.0
N986 N 0.68197 0.27691 0.70344 0.0
N987 N 0.82844 0.35979 0.62164 0.0
H988 H 0.7784 0.22927 0.59877 0.0
H989 H 0.81335 0.27962 0.58512 0.0
H990 H 0.84031 0.39587 0.62569 0.0
H991 H 0.85183 0.33911 0.60598 0.0
H992 H 0.66761 0.29489 0.72526 0.0
H993 H 0.67497 0.23922 0.70323 0.0
H994 H 0.66082 0.36923 0.71285 0.0
H995 H 0.6986 0.41868 0.70172 0.0
C996 C 0.67616 0.75111 0.11952 0.0
C997 C 0.64947 0.77258 0.14746 0.0
C998 C 0.72621 0.80249 0.17403 0.0
C999 C 0.75283 0.78295 0.14526 0.0
N1000 N 0.75392 0.74414 0.08859 0.0
N1001 N 0.64683 0.82267 0.19925 0.0
C1002 C 0.72796 0.75856 0.11744 0.0
C1003 C 0.67399 0.79949 0.17414 0.0
N1004 N 0.65173 0.72269 0.09552 0.0
N1005 N 0.75132 0.82284 0.20159 0.0
H1006 H 0.60861 0.82052 0.19986 0.0
H1007 H 0.6614 0.84656 0.21796 0.0
H1008 H 0.78946 0.82592 0.20192 0.0
H1009 H 0.73512 0.83373 0.22506 0.0
H1010 H 0.66901 0.70174 0.07634 0.0
H1011 H 0.61368 0.7182 0.09598 0.0
H1012 H 0.73794 0.73019 0.06578 0.0
H1013 H 0.79182 0.74892 0.08671 0.0
C1014 C 0.27274 0.62625 0.62702 0.0
C1015 C 0.24415 0.60441 0.65398 0.0
C1016 C 0.21071 0.68535 0.66926 0.0
C1017 C 0.23607 0.70629 0.64036 0.0
N1018 N 0.288 0.69748 0.58998 0.0
N1019 N 0.18423 0.61113 0.69974 0.0
C1020 C 0.26631 0.67687 0.61878 0.0
C1021 C 0.21281 0.63357 0.67498 0.0
N1022 N 0.3073 0.59878 0.61026 0.0
N1023 N 0.18484 0.71536 0.69114 0.0
H1024 H 0.1855 0.57337 0.70429 0.0
H1025 H 0.15745 0.62895 0.71434 0.0
H1026 H 0.18211 0.75309 0.68692 0.0
H1027 H 0.16867 0.70383 0.71448 0.0
H1028 H 0.33257 0.61303 0.59247 0.0
H1029 H 0.3132 0.56201 0.61634 0.0
H1030 H 0.30626 0.67744 0.57077 0.0
H1031 H 0.28538 0.73487 0.58434 0.0
C1032 C 0.86582 0.19503 0.88897 0.0
C1033 C 0.88507 0.23849 0.8737 0.0
C1034 C 0.80327 0.27593 0.87514 0.0
C1035 C 0.78357 0.23159 0.88873 0.0
N1036 N 0.79352 0.14747 0.90561 0.0
N1037 N 0.87281 0.31817 0.84852 0.0
C1038 C 0.81426 0.19065 0.89479 0.0
C1039 C 0.8539 0.27846 0.86583 0.0
N1040 N 0.89737 0.15853 0.89842 0.0
N1041 N 0.7735 0.31586 0.87207 0.0
H1042 H 0.90995 0.32115 0.84222 0.0
H1043 H 0.85165 0.34674 0.83871 0.0
H1044 H 0.73611 0.31435 0.87785 0.0
H1045 H 0.786 0.3509 0.86569 0.0
H1046 H 0.88701 0.12713 0.91212 0.0
H1047 H 0.93516 0.16129 0.89444 0.0
H1048 H 0.81256 0.11465 0.90799 0.0
H1049 H 0.75592 0.14381 0.91013 0.0
C1050 C 0.72476 0.8235 0.37229 0.0
C1051 C 0.76762 0.79828 0.36144 0.0
C1052 C 0.80419 0.87618 0.34322 0.0
C1053 C 0.75939 0.90081 0.34978 0.0
N1054 N 0.67353 0.89523 0.3641 0.0
N1055 N 0.84082 0.79939 0.32608 0.0
C1056 C 0.71849 0.87365 0.36243 0.0
C1057 C 0.80501 0.82429 0.34351 0.0
N1058 N 0.69124 0.80052 0.39328 0.0
N1059 N 0.84676 0.90213 0.33898 0.0
H1060 H 0.84058 0.76119 0.32389 0.0
H1061 H 0.86686 0.81696 0.31038 0.0
H1062 H 0.84888 0.94004 0.34257 0.0
H1063 H 0.88083 0.88523 0.33666 0.0
H1064 H 0.6617 0.81869 0.40463 0.0
H1065 H 0.69551 0.76452 0.40196 0.0
H1066 H 0.64156 0.8759 0.37021 0.0
H1067 H 0.66761 0.93129 0.35601 0.0
C1068 C 0.15781 0.7688 0.89601 0.0
C1069 C 0.13415 0.75111 0.86523 0.0
C1070 C 0.21126 0.71407 0.8454 0.0
C1071 C 0.23562 0.73428 0.8751 0.0
N1072 N 0.23462 0.78333 0.92742 0.0
N1073 N 0.13777 0.71136 0.809 0.0
C1074 C 0.20945 0.76228 0.90016 0.0
C1075 C 0.16081 0.72489 0.83947 0.0
N1076 N 0.13045 0.7916 0.92119 0.0
N1077 N 0.23625 0.68323 0.82358 0.0
H1078 H 0.10042 0.71722 0.80478 0.0
H1079 H 0.1558 0.69682 0.7873 0.0
H1080 H 0.27326 0.67511 0.82722 0.0
H1081 H 0.21998 0.66337 0.80323 0.0
H1082 H 0.1439 0.80221 0.94567 0.0
H1083 H 0.0929 0.79756 0.91824 0.0
H1084 H 0.21925 0.80743 0.94548 0.0
H1085 H 0.27232 0.77867 0.93081 0.0
C1086 C 0.32625 0.22988 0.3936 0.0
C1087 C 0.27943 0.25011 0.38648 0.0
C1088 C 0.25194 0.17085 0.36226 0.0
C1089 C 0.29771 0.14978 0.37132 0.0
N1090 N 0.37666 0.15658 0.39868 0.0
N1091 N 0.19521 0.23852 0.36972 0.0
C1092 C 0.33434 0.17865 0.38802 0.0
C1093 C 0.24157 0.22016 0.37231 0.0
N1094 N 0.36326 0.26028 0.40458 0.0
N1095 N 0.21907 0.14412 0.34291 0.0
H1096 H 0.18666 0.27435 0.37715 0.0
H1097 H 0.16471 0.21733 0.3629 0.0
H1098 H 0.22481 0.10745 0.33622 0.0
H1099 H 0.18792 0.15924 0.33144 0.0
H1100 H 0.39953 0.2493 0.4075 0.0
H1101 H 0.35819 0.29786 0.4084 0.0
H1102 H 0.40359 0.17396 0.41369 0.0
H1103 H 0.38317 0.11931 0.39441 0.0
C1104 C 0.65444 0.79569 0.8545 0.0
C1105 C 0.63122 0.75451 0.83858 0.0
C1106 C 0.71084 0.71376 0.83431 0.0
C1107 C 0.73289 0.75141 0.85478 0.0
N1108 N 0.72426 0.82602 0.88811 0.0
N1109 N 0.63601 0.66935 0.82151 0.0
C1110 C 0.70438 0.79211 0.86572 0.0
C1111 C 0.65911 0.71218 0.83056 0.0
N1112 N 0.62904 0.83839 0.85817 0.0
N1113 N 0.73957 0.67974 0.8181 0.0
H1114 H 0.59795 0.66548 0.8214 0.0
H1115 H 0.65451 0.63626 0.81835 0.0
H1116 H 0.77779 0.68128 0.81919 0.0
H1117 H 0.72577 0.65382 0.80042 0.0
H1118 H 0.64512 0.87114 0.86662 0.0
H1119 H 0.59274 0.84191 0.84984 0.0
H1120 H 0.70392 0.85377 0.89989 0.0
H1121 H 0.76041 0.8241 0.89697 0.0
C1122 C 0.29626 0.67259 0.34541 0.0
C1123 C 0.25237 0.64565 0.35168 0.0
C1124 C 0.21258 0.72237 0.36941 0.0
C1125 C 0.25281 0.75004 0.35621 0.0
N1126 N 0.33274 0.75057 0.32902 0.0
N1127 N 0.1666 0.64601 0.36668 0.0
C1128 C 0.29498 0.72495 0.34388 0.0
C1129 C 0.21003 0.67076 0.36337 0.0
N1130 N 0.33945 0.64799 0.34185 0.0
N1131 N 0.17689 0.74581 0.38798 0.0
H1132 H 0.16292 0.60867 0.36123 0.0
H1133 H 0.1334 0.6634 0.3717 0.0
H1134 H 0.17896 0.78329 0.39364 0.0
H1135 H 0.14855 0.72737 0.40083 0.0
H1136 H 0.37341 0.66559 0.34022 0.0
H1137 H 0.34166 0.60994 0.34453 0.0
H1138 H 0.36155 0.73376 0.31578 0.0
H1139 H 0.33366 0.78869 0.32776 0.0
C1140 C 0.35809 0.23249 0.84118 0.0
C1141 C 0.38559 0.22642 0.87249 0.0
C1142 C 0.31248 0.2448 0.9077 0.0
C1143 C 0.28556 0.25322 0.87641 0.0
N1144 N 0.2831 0.26179 0.81363 0.0
N1145 N 0.392 0.23242 0.93531 0.0
C1146 C 0.30851 0.24885 0.84314 0.0
C1147 C 0.36357 0.23439 0.90573 0.0
N1148 N 0.37938 0.22137 0.80973 0.0
N1149 N 0.28844 0.24536 0.93918 0.0
H1150 H 0.42933 0.22441 0.93448 0.0
H1151 H 0.37979 0.24204 0.96027 0.0
H1152 H 0.25098 0.25251 0.94112 0.0
H1153 H 0.30438 0.23531 0.96296 0.0
H1154 H 0.36042 0.22011 0.78597 0.0
H1155 H 0.41602 0.21077 0.80781 0.0
H1156 H 0.29866 0.26398 0.78872 0.0
H1157 H 0.24673 0.27348 0.81451 0.0
C1158 C 0.78804 0.31802 0.36766 0.0
C1159 C 0.7507 0.2959 0.38831 0.0
C1160 C 0.71155 0.37611 0.39573 0.0
C1161 C 0.74596 0.39721 0.37225 0.0
N1162 N 0.8135 0.38815 0.33246 0.0
N1163 N 0.67305 0.30167 0.41771 0.0
C1164 C 0.78343 0.36811 0.35732 0.0
C1165 C 0.7114 0.32445 0.40127 0.0
N1166 N 0.82865 0.29154 0.35905 0.0
N1167 N 0.67976 0.40592 0.41328 0.0
H1168 H 0.67157 0.26371 0.42133 0.0
H1169 H 0.64096 0.31957 0.42492 0.0
H1170 H 0.67981 0.44398 0.41005 0.0
H1171 H 0.65662 0.39368 0.43321 0.0
H1172 H 0.85939 0.30666 0.34688 0.0
H1173 H 0.83321 0.25511 0.36673 0.0
H1174 H 0.83835 0.3678 0.31775 0.0
H1175 H 0.8111 0.42486 0.32486 0.0
C1176 C 0.17797 0.72595 0.13175 0.0
C1177 C 0.1492 0.75168 0.15653 0.0
C1178 C 0.21939 0.80492 0.17079 0.0
C1179 C 0.24745 0.78114 0.14454 0.0
N1180 N 0.25173 0.72486 0.09595 0.0
N1181 N 0.13848 0.8219 0.19408 0.0
C1182 C 0.22623 0.74313 0.12386 0.0
C1183 C 0.16879 0.79307 0.17445 0.0
N1184 N 0.15926 0.6845 0.11644 0.0
N1185 N 0.24171 0.83744 0.19312 0.0
H1186 H 0.10102 0.81473 0.19656 0.0
H1187 H 0.14935 0.8553 0.20504 0.0
H1188 H 0.27896 0.84606 0.19156 0.0
H1189 H 0.22454 0.85234 0.21508 0.0
H1190 H 0.17972 0.66103 0.10068 0.0
H1191 H 0.12374 0.67189 0.1215 0.0
H1192 H 0.23694 0.70025 0.07779 0.0
H1193 H 0.28669 0.73751 0.08929 0.0
C1194 C 0.28381 0.18464 0.64528 0.0
C1195 C 0.23672 0.20559 0.64067 0.0
C1196 C 0.19837 0.12504 0.65044 0.0
C1197 C 0.24524 0.10469 0.65735 0.0
N1198 N 0.33181 0.11531 0.66595 0.0
N1199 N 0.14914 0.19856 0.64365 0.0
C1200 C 0.28781 0.13466 0.65608 0.0
C1201 C 0.19396 0.17648 0.64475 0.0
N1202 N 0.32453 0.21215 0.63795 0.0
N1203 N 0.15843 0.09469 0.64802 0.0
H1204 H 0.14525 0.23619 0.63941 0.0
H1205 H 0.11638 0.18068 0.64971 0.0
H1206 H 0.16073 0.05685 0.65156 0.0
H1207 H 0.12395 0.10616 0.6397 0.0
H1208 H 0.35992 0.19805 0.63736 0.0
H1209 H 0.32244 0.24872 0.63004 0.0
H1210 H 0.36374 0.13605 0.66901 0.0
H1211 H 0.33548 0.07865 0.67345 0.0
C1212 C 0.80318 0.22831 0.1442 0.0
C1213 C 0.77578 0.27066 0.15242 0.0
C1214 C 0.84967 0.30995 0.17721 0.0
C1215 C 0.87787 0.26909 0.16646 0.0
N1216 N 0.88329 0.19187 0.13588 0.0
N1217 N 0.77201 0.35344 0.17383 0.0
C1218 C 0.85501 0.22877 0.14903 0.0
C1219 C 0.79881 0.31198 0.16825 0.0
N1220 N 0.77914 0.18749 0.13208 0.0
N1221 N 0.87149 0.346 0.19684 0.0
H1222 H 0.73453 0.35512 0.16836 0.0
H1223 H 0.78712 0.38674 0.18203 0.0
H1224 H 0.90865 0.3452 0.20344 0.0
H1225 H 0.8525 0.37477 0.20846 0.0
H1226 H 0.79573 0.15349 0.12871 0.0
H1227 H 0.74129 0.18675 0.12792 0.0
H1228 H 0.86991 0.16385 0.11982 0.0
H1229 H 0.92124 0.19125 0.13879 0.0
C1230 C 0.76088 0.84547 0.63562 0.0
C1231 C 0.74086 0.86918 0.66548 0.0
C1232 C 0.70863 0.79035 0.68694 0.0
C1233 C 0.72684 0.76687 0.65629 0.0
N1234 N 0.7646 0.77172 0.59947 0.0
N1235 N 0.69208 0.86692 0.71778 0.0
C1236 C 0.75162 0.79439 0.6301 0.0
C1237 C 0.71368 0.84226 0.69066 0.0
N1238 N 0.78959 0.87195 0.61306 0.0
N1239 N 0.68752 0.76254 0.71274 0.0
H1240 H 0.69584 0.90482 0.72104 0.0
H1241 H 0.66812 0.85089 0.73571 0.0
H1242 H 0.68299 0.72463 0.71053 0.0
H1243 H 0.67738 0.77603 0.73726 0.0
H1244 H 0.80939 0.85655 0.5925 0.0
H1245 H 0.79572 0.90958 0.61615 0.0
H1246 H 0.77884 0.79003 0.57775 0.0
H1247 H 0.75813 0.73444 0.59498 0.0
loop_
_geom_bond_atom_site_label_1
_geom_bond_atom_site_label_2
_geom_bond_distance
_geom_bond_site_symmetry_2
_ccdc_geom_bond_type
C0 C1 1.351 . S
C0 N3 1.368 . S
C0 H5 0.931 . S
C1 C0 1.351 . S
C1 N2 1.373 . S
C1 H29 0.930 . S
N2 C1 1.373 . S
N2 C4 1.340 . S
N3 C0 1.368 . S
N3 C4 1.321 . S
N3 Co6 2.135 1_655 S
C4 N2 1.340 . S
C4 N3 1.321 . S
C4 H28 0.930 . S
H5 C0 0.931 . S
Co6 N3 2.135 1_455 S
Co6 N9 2.121 . S
Co6 O14 2.055 . S
Co6 O17 2.039 . S
Co6 N20 2.140 . S
C7 O8 1.227 . S
C7 O17 1.265 . S
O8 C7 1.227 . S
N9 Co6 2.121 . S
N9 C11 1.375 . S
N9 C12 1.313 . S
C10 C11 1.338 . S
C10 N13 1.377 . S
C10 H30 0.930 . S
C11 N9 1.375 . S
C11 C10 1.338 . S
C11 H15 0.931 . S
C12 N9 1.313 . S
C12 N13 1.344 . S
C12 H16 0.930 . S
N13 C10 1.377 . S
N13 C12 1.344 . S
O14 Co6 2.055 . S
O14 C18 1.253 . S
H15 C11 0.931 . S
H16 C12 0.930 . S
O17 Co6 2.039 . S
O17 C7 1.265 . S
C18 O14 1.253 . S
C18 O19 1.227 . S
O19 C18 1.227 . S
N20 Co6 2.140 . S
N20 C23 1.346 1_455 S
N20 C24 1.345 . S
C21 C22 1.387 1_455 S
C21 C25 1.391 . S
C22 C21 1.387 1_655 S
C22 C23 1.369 . S
C22 H31 0.929 . S
C23 N20 1.346 1_655 S
C23 C22 1.369 . S
C23 H26 0.928 . S
C24 N20 1.345 . S
C24 C25 1.371 . S
C24 H27 0.931 . S
C25 C21 1.391 . S
C25 C24 1.371 . S
C25 H32 0.930 . S
H26 C23 0.928 . S
H27 C24 0.931 . S
H28 C4 0.930 . S
H29 C1 0.930 . S
H30 C10 0.930 . S
H31 C22 0.929 . S
H32 C25 0.930 . S
C33 C34 1.351 . S
C33 N36 1.368 . S
C33 H38 0.931 . S
C34 C33 1.351 . S
C34 N35 1.373 . S
C34 H62 0.930 . S
N35 C34 1.373 . S
N35 C37 1.340 . S
N36 C33 1.368 . S
N36 C37 1.321 . S
N36 Co39 2.135 1_565 S
C37 N35 1.340 . S
C37 N36 1.321 . S
C37 H61 0.930 . S
H38 C33 0.931 . S
Co39 N36 2.135 1_545 S
Co39 N42 2.121 . S
Co39 O47 2.055 . S
Co39 O50 2.039 . S
Co39 N53 2.140 . S
C40 O41 1.227 . S
C40 O50 1.265 . S
O41 C40 1.227 . S
N42 Co39 2.121 . S
N42 C44 1.375 . S
N42 C45 1.313 . S
C43 C44 1.338 . S
C43 N46 1.377 . S
C43 H63 0.930 . S
C44 N42 1.375 . S
C44 C43 1.338 . S
C44 H48 0.931 . S
C45 N42 1.313 . S
C45 N46 1.344 . S
C45 H49 0.930 . S
N46 C43 1.377 . S
N46 C45 1.344 . S
O47 Co39 2.055 . S
O47 C51 1.253 . S
H48 C44 0.931 . S
H49 C45 0.930 . S
O50 Co39 2.039 . S
O50 C40 1.265 . S
C51 O47 1.253 . S
C51 O52 1.227 . S
O52 C51 1.227 . S
N53 Co39 2.140 . S
N53 C56 1.346 1_545 S
N53 C57 1.345 . S
C54 C55 1.387 1_545 S
C54 C58 1.391 . S
C55 C54 1.387 1_565 S
C55 C56 1.369 . S
C55 H64 0.929 . S
C56 N53 1.346 1_565 S
C56 C55 1.369 . S
C56 H59 0.928 . S
C57 N53 1.345 . S
C57 C58 1.371 . S
C57 H60 0.931 . S
C58 C54 1.391 . S
C58 C57 1.371 . S
C58 H65 0.930 . S
H59 C56 0.928 . S
H60 C57 0.931 . S
H61 C37 0.930 . S
H62 C34 0.930 . S
H63 C43 0.930 . S
H64 C55 0.929 . S
H65 C58 0.930 . S
C66 C67 1.351 . S
C66 N69 1.368 . S
C66 H71 0.931 . S
C67 C66 1.351 . S
C67 N68 1.373 . S
C67 H95 0.930 . S
N68 C67 1.373 . S
N68 C70 1.340 . S
N69 C66 1.368 . S
N69 C70 1.321 . S
N69 Co72 2.135 1_455 S
C70 N68 1.340 . S
C70 N69 1.321 . S
C70 H94 0.930 . S
H71 C66 0.931 . S
Co72 N69 2.135 1_655 S
Co72 N75 2.121 . S
Co72 O80 2.055 . S
Co72 O83 2.039 . S
Co72 N86 2.140 . S
C73 O74 1.227 . S
C73 O83 1.265 . S
O74 C73 1.227 . S
N75 Co72 2.121 . S
N75 C77 1.375 . S
N75 C78 1.313 . S
C76 C77 1.338 . S
C76 N79 1.377 . S
C76 H96 0.930 . S
C77 N75 1.375 . S
C77 C76 1.338 . S
C77 H81 0.931 . S
C78 N75 1.313 . S
C78 N79 1.344 . S
C78 H82 0.930 . S
N79 C76 1.377 . S
N79 C78 1.344 . S
O80 Co72 2.055 . S
O80 C84 1.253 . S
H81 C77 0.931 . S
H82 C78 0.930 . S
O83 Co72 2.039 . S
O83 C73 1.265 . S
C84 O80 1.253 . S
C84 O85 1.227 . S
O85 C84 1.227 . S
N86 Co72 2.140 . S
N86 C89 1.346 1_655 S
N86 C90 1.345 . S
C87 C88 1.387 1_655 S
C87 C91 1.391 . S
C88 C87 1.387 1_455 S
C88 C89 1.369 . S
C88 H97 0.929 . S
C89 N86 1.346 1_455 S
C89 C88 1.369 . S
C89 H92 0.928 . S
C90 N86 1.345 . S
C90 C91 1.371 . S
C90 H93 0.931 . S
C91 C87 1.391 . S
C91 C90 1.371 . S
C91 H98 0.930 . S
H92 C89 0.928 . S
H93 C90 0.931 . S
H94 C70 0.930 . S
H95 C67 0.930 . S
H96 C76 0.930 . S
H97 C88 0.929 . S
H98 C91 0.930 . S
C99 C100 1.351 . S
C99 N102 1.368 . S
C99 H104 0.931 . S
C100 C99 1.351 . S
C100 N101 1.373 . S
C100 H128 0.930 . S
N101 C100 1.373 . S
N101 C103 1.340 . S
N102 C99 1.368 . S
N102 C103 1.321 . S
N102 Co105 2.135 1_545 S
C103 N101 1.340 . S
C103 N102 1.321 . S
C103 H127 0.930 . S
H104 C99 0.931 . S
Co105 N102 2.135 1_565 S
Co105 N108 2.121 . S
Co105 O113 2.055 . S
Co105 O116 2.039 . S
Co105 N119 2.140 . S
C106 O107 1.227 . S
C106 O116 1.265 . S
O107 C106 1.227 . S
N108 Co105 2.121 . S
N108 C110 1.375 . S
N108 C111 1.313 . S
C109 C110 1.338 . S
C109 N112 1.377 . S
C109 H129 0.930 . S
C110 N108 1.375 . S
C110 C109 1.338 . S
C110 H114 0.931 . S
C111 N108 1.313 . S
C111 N112 1.344 . S
C111 H115 0.930 . S
N112 C109 1.377 . S
N112 C111 1.344 . S
O113 Co105 2.055 . S
O113 C117 1.253 . S
H114 C110 0.931 . S
H115 C111 0.930 . S
O116 Co105 2.039 . S
O116 C106 1.265 . S
C117 O113 1.253 . S
C117 O118 1.227 . S
O118 C117 1.227 . S
N119 Co105 2.140 . S
N119 C122 1.346 1_565 S
N119 C123 1.345 . S
C120 C121 1.387 1_565 S
C120 C124 1.391 . S
C121 C120 1.387 1_545 S
C121 C122 1.369 . S
C121 H130 0.929 . S
C122 N119 1.346 1_545 S
C122 C121 1.369 . S
C122 H125 0.928 . S
C123 N119 1.345 . S
C123 C124 1.371 . S
C123 H126 0.931 . S
C124 C120 1.391 . S
C124 C123 1.371 . S
C124 H131 0.930 . S
H125 C122 0.928 . S
H126 C123 0.931 . S
H127 C103 0.930 . S
H128 C100 0.930 . S
H129 C109 0.930 . S
H130 C121 0.929 . S
H131 C124 0.930 . S
C132 C133 1.351 . S
C132 N135 1.368 . S
C132 H137 0.931 . S
C133 C132 1.351 . S
C133 N134 1.373 . S
C133 H161 0.930 . S
N134 C133 1.373 . S
N134 C136 1.340 . S
N135 C132 1.368 . S
N135 C136 1.321 . S
N135 Co138 2.135 . S
C136 N134 1.340 . S
C136 N135 1.321 . S
C136 H160 0.930 . S
H137 C132 0.931 . S
Co138 N135 2.135 . S
Co138 N141 2.121 . S
Co138 O146 2.055 . S
Co138 O149 2.039 . S
Co138 N152 2.140 . S
C139 O140 1.227 . S
C139 O149 1.265 . S
O140 C139 1.227 . S
N141 Co138 2.121 . S
N141 C143 1.375 . S
N141 C144 1.313 . S
C142 C143 1.338 . S
C142 N145 1.377 . S
C142 H162 0.930 . S
C143 N141 1.375 . S
C143 C142 1.338 . S
C143 H147 0.931 . S
C144 N141 1.313 . S
C144 N145 1.344 . S
C144 H148 0.930 . S
N145 C142 1.377 . S
N145 C144 1.344 . S
O146 Co138 2.055 . S
O146 C150 1.253 . S
H147 C143 0.931 . S
H148 C144 0.930 . S
O149 Co138 2.039 . S
O149 C139 1.265 . S
C150 O146 1.253 . S
C150 O151 1.227 . S
O151 C150 1.227 . S
N152 Co138 2.140 . S
N152 C155 1.346 . S
N152 C156 1.345 . S
C153 C154 1.387 . S
C153 C157 1.391 . S
C154 C153 1.387 . S
C154 C155 1.369 . S
C154 H163 0.929 . S
C155 N152 1.346 . S
C155 C154 1.369 . S
C155 H158 0.928 . S
C156 N152 1.345 . S
C156 C157 1.371 . S
C156 H159 0.931 . S
C157 C153 1.391 . S
C157 C156 1.371 . S
C157 H164 0.930 . S
H158 C155 0.928 . S
H159 C156 0.931 . S
H160 C136 0.930 . S
H161 C133 0.930 . S
H162 C142 0.930 . S
H163 C154 0.929 . S
H164 C157 0.930 . S
C165 C166 1.351 . S
C165 N168 1.368 . S
C165 H170 0.931 . S
C166 C165 1.351 . S
C166 N167 1.373 . S
C166 H194 0.930 . S
N167 C166 1.373 . S
N167 C169 1.340 . S
N168 C165 1.368 . S
N168 C169 1.321 . S
N168 Co171 2.135 . S
C169 N167 1.340 . S
C169 N168 1.321 . S
C169 H193 0.930 . S
H170 C165 0.931 . S
Co171 N168 2.135 . S
Co171 N174 2.121 . S
Co171 O179 2.055 . S
Co171 O182 2.039 . S
Co171 N185 2.140 . S
C172 O173 1.227 . S
C172 O182 1.265 . S
O173 C172 1.227 . S
N174 Co171 2.121 . S
N174 C176 1.375 . S
N174 C177 1.313 . S
C175 C176 1.338 . S
C175 N178 1.377 . S
C175 H195 0.930 . S
C176 N174 1.375 . S
C176 C175 1.338 . S
C176 H180 0.931 . S
C177 N174 1.313 . S
C177 N178 1.344 . S
C177 H181 0.930 . S
N178 C175 1.377 . S
N178 C177 1.344 . S
O179 Co171 2.055 . S
O179 C183 1.253 . S
H180 C176 0.931 . S
H181 C177 0.930 . S
O182 Co171 2.039 . S
O182 C172 1.265 . S
C183 O179 1.253 . S
C183 O184 1.227 . S
O184 C183 1.227 . S
N185 Co171 2.140 . S
N185 C188 1.346 . S
N185 C189 1.345 . S
C186 C187 1.387 . S
C186 C190 1.391 . S
C187 C186 1.387 . S
C187 C188 1.369 . S
C187 H196 0.929 . S
C188 N185 1.346 . S
C188 C187 1.369 . S
C188 H191 0.928 . S
C189 N185 1.345 . S
C189 C190 1.371 . S
C189 H192 0.931 . S
C190 C186 1.391 . S
C190 C189 1.371 . S
C190 H197 0.930 . S
H191 C188 0.928 . S
H192 C189 0.931 . S
H193 C169 0.930 . S
H194 C166 0.930 . S
H195 C175 0.930 . S
H196 C187 0.929 . S
H197 C190 0.930 . S
C198 C199 1.351 . S
C198 N201 1.368 . S
C198 H203 0.931 . S
C199 C198 1.351 . S
C199 N200 1.373 . S
C199 H227 0.930 . S
N200 C199 1.373 . S
N200 C202 1.340 . S
N201 C198 1.368 . S
N201 C202 1.321 . S
N201 Co204 2.135 . S
C202 N200 1.340 . S
C202 N201 1.321 . S
C202 H226 0.930 . S
H203 C198 0.931 . S
Co204 N201 2.135 . S
Co204 N207 2.121 . S
Co204 O212 2.055 . S
Co204 O215 2.039 . S
Co204 N218 2.140 . S
C205 O206 1.227 . S
C205 O215 1.265 . S
O206 C205 1.227 . S
N207 Co204 2.121 . S
N207 C209 1.375 . S
N207 C210 1.313 . S
C208 C209 1.338 . S
C208 N211 1.377 . S
C208 H228 0.930 . S
C209 N207 1.375 . S
C209 C208 1.338 . S
C209 H213 0.931 . S
C210 N207 1.313 . S
C210 N211 1.344 . S
C210 H214 0.930 . S
N211 C208 1.377 . S
N211 C210 1.344 . S
O212 Co204 2.055 . S
O212 C216 1.253 . S
H213 C209 0.931 . S
H214 C210 0.930 . S
O215 Co204 2.039 . S
O215 C205 1.265 . S
C216 O212 1.253 . S
C216 O217 1.227 . S
O217 C216 1.227 . S
N218 Co204 2.140 . S
N218 C221 1.346 . S
N218 C222 1.345 . S
C219 C220 1.387 . S
C219 C223 1.391 . S
C220 C219 1.387 . S
C220 C221 1.369 . S
C220 H229 0.929 . S
C221 N218 1.346 . S
C221 C220 1.369 . S
C221 H224 0.928 . S
C222 N218 1.345 . S
C222 C223 1.371 . S
C222 H225 0.931 . S
C223 C219 1.391 . S
C223 C222 1.371 . S
C223 H230 0.930 . S
H224 C221 0.928 . S
H225 C222 0.931 . S
H226 C202 0.930 . S
H227 C199 0.930 . S
H228 C208 0.930 . S
H229 C220 0.929 . S
H230 C223 0.930 . S
C231 C232 1.351 . S
C231 N234 1.368 . S
C231 H236 0.931 . S
C232 C231 1.351 . S
C232 N233 1.373 . S
C232 H260 0.930 . S
N233 C232 1.373 . S
N233 C235 1.340 . S
N234 C231 1.368 . S
N234 C235 1.321 . S
N234 Co237 2.135 . S
C235 N233 1.340 . S
C235 N234 1.321 . S
C235 H259 0.930 . S
H236 C231 0.931 . S
Co237 N234 2.135 . S
Co237 N240 2.121 . S
Co237 O245 2.055 . S
Co237 O248 2.039 . S
Co237 N251 2.140 . S
C238 O239 1.227 . S
C238 O248 1.265 . S
O239 C238 1.227 . S
N240 Co237 2.121 . S
N240 C242 1.375 . S
N240 C243 1.313 . S
C241 C242 1.338 . S
C241 N244 1.377 . S
C241 H261 0.930 . S
C242 N240 1.375 . S
C242 C241 1.338 . S
C242 H246 0.931 . S
C243 N240 1.313 . S
C243 N244 1.344 . S
C243 H247 0.930 . S
N244 C241 1.377 . S
N244 C243 1.344 . S
O245 Co237 2.055 . S
O245 C249 1.253 . S
H246 C242 0.931 . S
H247 C243 0.930 . S
O248 Co237 2.039 . S
O248 C238 1.265 . S
C249 O245 1.253 . S
C249 O250 1.227 . S
O250 C249 1.227 . S
N251 Co237 2.140 . S
N251 C254 1.346 . S
N251 C255 1.345 . S
C252 C253 1.387 . S
C252 C256 1.391 . S
C253 C252 1.387 . S
C253 C254 1.369 . S
C253 H262 0.929 . S
C254 N251 1.346 . S
C254 C253 1.369 . S
C254 H257 0.928 . S
C255 N251 1.345 . S
C255 C256 1.371 . S
C255 H258 0.931 . S
C256 C252 1.391 . S
C256 C255 1.371 . S
C256 H263 0.930 . S
H257 C254 0.928 . S
H258 C255 0.931 . S
H259 C235 0.930 . S
H260 C232 0.930 . S
H261 C241 0.930 . S
H262 C253 0.929 . S
H263 C256 0.930 . S
C264 C265 1.351 . S
C264 N267 1.368 . S
C264 H269 0.931 . S
C265 C264 1.351 . S
C265 N266 1.373 . S
C265 H293 0.930 . S
N266 C265 1.373 . S
N266 C268 1.340 . S
N267 C264 1.368 . S
N267 C268 1.321 . S
N267 Co270 2.135 1_455 S
C268 N266 1.340 . S
C268 N267 1.321 . S
C268 H292 0.930 . S
H269 C264 0.931 . S
Co270 N267 2.135 1_655 S
Co270 N273 2.121 . S
Co270 O278 2.055 . S
Co270 O281 2.039 . S
Co270 N284 2.140 . S
C271 O272 1.227 . S
C271 O281 1.265 . S
O272 C271 1.227 . S
N273 Co270 2.121 . S
N273 C275 1.375 . S
N273 C276 1.313 . S
C274 C275 1.338 . S
C274 N277 1.377 . S
C274 H294 0.930 . S
C275 N273 1.375 . S
C275 C274 1.338 . S
C275 H279 0.931 . S
C276 N273 1.313 . S
C276 N277 1.344 . S
C276 H280 0.930 . S
N277 C274 1.377 . S
N277 C276 1.344 . S
O278 Co270 2.055 . S
O278 C282 1.253 . S
H279 C275 0.931 . S
H280 C276 0.930 . S
O281 Co270 2.039 . S
O281 C271 1.265 . S
C282 O278 1.253 . S
C282 O283 1.227 . S
O283 C282 1.227 . S
N284 Co270 2.140 . S
N284 C287 1.346 1_655 S
N284 C288 1.345 . S
C285 C286 1.387 1_655 S
C285 C289 1.391 . S
C286 C285 1.387 1_455 S
C286 C287 1.369 . S
C286 H295 0.929 . S
C287 N284 1.346 1_455 S
C287 C286 1.369 . S
C287 H290 0.928 . S
C288 N284 1.345 . S
C288 C289 1.371 . S
C288 H291 0.931 . S
C289 C285 1.391 . S
C289 C288 1.371 . S
C289 H296 0.930 . S
H290 C287 0.928 . S
H291 C288 0.931 . S
H292 C268 0.930 . S
H293 C265 0.930 . S
H294 C274 0.930 . S
H295 C286 0.929 . S
H296 C289 0.930 . S
C297 C298 1.351 . S
C297 N300 1.368 . S
C297 H302 0.931 . S
C298 C297 1.351 . S
C298 N299 1.373 . S
C298 H326 0.930 . S
N299 C298 1.373 . S
N299 C301 1.340 . S
N300 C297 1.368 . S
N300 C301 1.321 . S
N300 Co303 2.135 1_545 S
C301 N299 1.340 . S
C301 N300 1.321 . S
C301 H325 0.930 . S
H302 C297 0.931 . S
Co303 N300 2.135 1_565 S
Co303 N306 2.121 . S
Co303 O311 2.055 . S
Co303 O314 2.039 . S
Co303 N317 2.140 . S
C304 O305 1.227 . S
C304 O314 1.265 . S
O305 C304 1.227 . S
N306 Co303 2.121 . S
N306 C308 1.375 . S
N306 C309 1.313 . S
C307 C308 1.338 . S
C307 N310 1.377 . S
C307 H327 0.930 . S
C308 N306 1.375 . S
C308 C307 1.338 . S
C308 H312 0.931 . S
C309 N306 1.313 . S
C309 N310 1.344 . S
C309 H313 0.930 . S
N310 C307 1.377 . S
N310 C309 1.344 . S
O311 Co303 2.055 . S
O311 C315 1.253 . S
H312 C308 0.931 . S
H313 C309 0.930 . S
O314 Co303 2.039 . S
O314 C304 1.265 . S
C315 O311 1.253 . S
C315 O316 1.227 . S
O316 C315 1.227 . S
N317 Co303 2.140 . S
N317 C320 1.346 1_565 S
N317 C321 1.345 . S
C318 C319 1.387 1_565 S
C318 C322 1.391 . S
C319 C318 1.387 1_545 S
C319 C320 1.369 . S
C319 H328 0.929 . S
C320 N317 1.346 1_545 S
C320 C319 1.369 . S
C320 H323 0.928 . S
C321 N317 1.345 . S
C321 C322 1.371 . S
C321 H324 0.931 . S
C322 C318 1.391 . S
C322 C321 1.371 . S
C322 H329 0.930 . S
H323 C320 0.928 . S
H324 C321 0.931 . S
H325 C301 0.930 . S
H326 C298 0.930 . S
H327 C307 0.930 . S
H328 C319 0.929 . S
H329 C322 0.930 . S
C330 C331 1.351 . S
C330 N333 1.368 . S
C330 H335 0.931 . S
C331 C330 1.351 . S
C331 N332 1.373 . S
C331 H359 0.930 . S
N332 C331 1.373 . S
N332 C334 1.340 . S
N333 C330 1.368 . S
N333 C334 1.321 . S
N333 Co336 2.135 1_655 S
C334 N332 1.340 . S
C334 N333 1.321 . S
C334 H358 0.930 . S
H335 C330 0.931 . S
Co336 N333 2.135 1_455 S
Co336 N339 2.121 . S
Co336 O344 2.055 . S
Co336 O347 2.039 . S
Co336 N350 2.140 . S
C337 O338 1.227 . S
C337 O347 1.265 . S
O338 C337 1.227 . S
N339 Co336 2.121 . S
N339 C341 1.375 . S
N339 C342 1.313 . S
C340 C341 1.338 . S
C340 N343 1.377 . S
C340 H360 0.930 . S
C341 N339 1.375 . S
C341 C340 1.338 . S
C341 H345 0.931 . S
C342 N339 1.313 . S
C342 N343 1.344 . S
C342 H346 0.930 . S
N343 C340 1.377 . S
N343 C342 1.344 . S
O344 Co336 2.055 . S
O344 C348 1.253 . S
H345 C341 0.931 . S
H346 C342 0.930 . S
O347 Co336 2.039 . S
O347 C337 1.265 . S
C348 O344 1.253 . S
C348 O349 1.227 . S
O349 C348 1.227 . S
N350 Co336 2.140 . S
N350 C353 1.346 1_455 S
N350 C354 1.345 . S
C351 C352 1.387 1_455 S
C351 C355 1.391 . S
C352 C351 1.387 1_655 S
C352 C353 1.369 . S
C352 H361 0.929 . S
C353 N350 1.346 1_655 S
C353 C352 1.369 . S
C353 H356 0.928 . S
C354 N350 1.345 . S
C354 C355 1.371 . S
C354 H357 0.931 . S
C355 C351 1.391 . S
C355 C354 1.371 . S
C355 H362 0.930 . S
H356 C353 0.928 . S
H357 C354 0.931 . S
H358 C334 0.930 . S
H359 C331 0.930 . S
H360 C340 0.930 . S
H361 C352 0.929 . S
H362 C355 0.930 . S
C363 C364 1.351 . S
C363 N366 1.368 . S
C363 H368 0.931 . S
C364 C363 1.351 . S
C364 N365 1.373 . S
C364 H392 0.930 . S
N365 C364 1.373 . S
N365 C367 1.340 . S
N366 C363 1.368 . S
N366 C367 1.321 . S
N366 Co369 2.135 1_565 S
C367 N365 1.340 . S
C367 N366 1.321 . S
C367 H391 0.930 . S
H368 C363 0.931 . S
Co369 N366 2.135 1_545 S
Co369 N372 2.121 . S
Co369 O377 2.055 . S
Co369 O380 2.039 . S
Co369 N383 2.140 . S
C370 O371 1.227 . S
C370 O380 1.265 . S
O371 C370 1.227 . S
N372 Co369 2.121 . S
N372 C374 1.375 . S
N372 C375 1.313 . S
C373 C374 1.338 . S
C373 N376 1.377 . S
C373 H393 0.930 . S
C374 N372 1.375 . S
C374 C373 1.338 . S
C374 H378 0.931 . S
C375 N372 1.313 . S
C375 N376 1.344 . S
C375 H379 0.930 . S
N376 C373 1.377 . S
N376 C375 1.344 . S
O377 Co369 2.055 . S
O377 C381 1.253 . S
H378 C374 0.931 . S
H379 C375 0.930 . S
O380 Co369 2.039 . S
O380 C370 1.265 . S
C381 O377 1.253 . S
C381 O382 1.227 . S
O382 C381 1.227 . S
N383 Co369 2.140 . S
N383 C386 1.346 1_545 S
N383 C387 1.345 . S
C384 C385 1.387 1_545 S
C384 C388 1.391 . S
C385 C384 1.387 1_565 S
C385 C386 1.369 . S
C385 H394 0.929 . S
C386 N383 1.346 1_565 S
C386 C385 1.369 . S
C386 H389 0.928 . S
C387 N383 1.345 . S
C387 C388 1.371 . S
C387 H390 0.931 . S
C388 C384 1.391 . S
C388 C387 1.371 . S
C388 H395 0.930 . S
H389 C386 0.928 . S
H390 C387 0.931 . S
H391 C367 0.930 . S
H392 C364 0.930 . S
H393 C373 0.930 . S
H394 C385 0.929 . S
H395 C388 0.930 . S
C396 C397 1.351 . S
C396 N399 1.368 . S
C396 H401 0.931 . S
C397 C396 1.351 . S
C397 N398 1.373 . S
C397 H425 0.930 . S
N398 C397 1.373 . S
N398 C400 1.340 . S
N399 C396 1.368 . S
N399 C400 1.321 . S
N399 Co402 2.135 . S
C400 N398 1.340 . S
C400 N399 1.321 . S
C400 H424 0.930 . S
H401 C396 0.931 . S
Co402 N399 2.135 . S
Co402 N405 2.121 . S
Co402 O410 2.055 . S
Co402 O413 2.039 . S
Co402 N416 2.140 . S
C403 O404 1.227 . S
C403 O413 1.265 . S
O404 C403 1.227 . S
N405 Co402 2.121 . S
N405 C407 1.375 . S
N405 C408 1.313 . S
C406 C407 1.338 . S
C406 N409 1.377 . S
C406 H426 0.930 . S
C407 N405 1.375 . S
C407 C406 1.338 . S
C407 H411 0.931 . S
C408 N405 1.313 . S
C408 N409 1.344 . S
C408 H412 0.930 . S
N409 C406 1.377 . S
N409 C408 1.344 . S
O410 Co402 2.055 . S
O410 C414 1.253 . S
H411 C407 0.931 . S
H412 C408 0.930 . S
O413 Co402 2.039 . S
O413 C403 1.265 . S
C414 O410 1.253 . S
C414 O415 1.227 . S
O415 C414 1.227 . S
N416 Co402 2.140 . S
N416 C419 1.346 . S
N416 C420 1.345 . S
C417 C418 1.387 . S
C417 C421 1.391 . S
C418 C417 1.387 . S
C418 C419 1.369 . S
C418 H427 0.929 . S
C419 N416 1.346 . S
C419 C418 1.369 . S
C419 H422 0.928 . S
C420 N416 1.345 . S
C420 C421 1.371 . S
C420 H423 0.931 . S
C421 C417 1.391 . S
C421 C420 1.371 . S
C421 H428 0.930 . S
H422 C419 0.928 . S
H423 C420 0.931 . S
H424 C400 0.930 . S
H425 C397 0.930 . S
H426 C406 0.930 . S
H427 C418 0.929 . S
H428 C421 0.930 . S
C429 C430 1.351 . S
C429 N432 1.368 . S
C429 H434 0.931 . S
C430 C429 1.351 . S
C430 N431 1.373 . S
C430 H458 0.930 . S
N431 C430 1.373 . S
N431 C433 1.340 . S
N432 C429 1.368 . S
N432 C433 1.321 . S
N432 Co435 2.135 . S
C433 N431 1.340 . S
C433 N432 1.321 . S
C433 H457 0.930 . S
H434 C429 0.931 . S
Co435 N432 2.135 . S
Co435 N438 2.121 . S
Co435 O443 2.055 . S
Co435 O446 2.039 . S
Co435 N449 2.140 . S
C436 O437 1.227 . S
C436 O446 1.265 . S
O437 C436 1.227 . S
N438 Co435 2.121 . S
N438 C440 1.375 . S
N438 C441 1.313 . S
C439 C440 1.338 . S
C439 N442 1.377 . S
C439 H459 0.930 . S
C440 N438 1.375 . S
C440 C439 1.338 . S
C440 H444 0.931 . S
C441 N438 1.313 . S
C441 N442 1.344 . S
C441 H445 0.930 . S
N442 C439 1.377 . S
N442 C441 1.344 . S
O443 Co435 2.055 . S
O443 C447 1.253 . S
H444 C440 0.931 . S
H445 C441 0.930 . S
O446 Co435 2.039 . S
O446 C436 1.265 . S
C447 O443 1.253 . S
C447 O448 1.227 . S
O448 C447 1.227 . S
N449 Co435 2.140 . S
N449 C452 1.346 . S
N449 C453 1.345 . S
C450 C451 1.387 . S
C450 C454 1.391 . S
C451 C450 1.387 . S
C451 C452 1.369 . S
C451 H460 0.929 . S
C452 N449 1.346 . S
C452 C451 1.369 . S
C452 H455 0.928 . S
C453 N449 1.345 . S
C453 C454 1.371 . S
C453 H456 0.931 . S
C454 C450 1.391 . S
C454 C453 1.371 . S
C454 H461 0.930 . S
H455 C452 0.928 . S
H456 C453 0.931 . S
H457 C433 0.930 . S
H458 C430 0.930 . S
H459 C439 0.930 . S
H460 C451 0.929 . S
H461 C454 0.930 . S
C462 C463 1.351 . S
C462 N465 1.368 . S
C462 H467 0.931 . S
C463 C462 1.351 . S
C463 N464 1.373 . S
C463 H491 0.930 . S
N464 C463 1.373 . S
N464 C466 1.340 . S
N465 C462 1.368 . S
N465 C466 1.321 . S
N465 Co468 2.135 . S
C466 N464 1.340 . S
C466 N465 1.321 . S
C466 H490 0.930 . S
H467 C462 0.931 . S
Co468 N465 2.135 . S
Co468 N471 2.121 . S
Co468 O476 2.055 . S
Co468 O479 2.039 . S
Co468 N482 2.140 . S
C469 O470 1.227 . S
C469 O479 1.265 . S
O470 C469 1.227 . S
N471 Co468 2.121 . S
N471 C473 1.375 . S
N471 C474 1.313 . S
C472 C473 1.338 . S
C472 N475 1.377 . S
C472 H492 0.930 . S
C473 N471 1.375 . S
C473 C472 1.338 . S
C473 H477 0.931 . S
C474 N471 1.313 . S
C474 N475 1.344 . S
C474 H478 0.930 . S
N475 C472 1.377 . S
N475 C474 1.344 . S
O476 Co468 2.055 . S
O476 C480 1.253 . S
H477 C473 0.931 . S
H478 C474 0.930 . S
O479 Co468 2.039 . S
O479 C469 1.265 . S
C480 O476 1.253 . S
C480 O481 1.227 . S
O481 C480 1.227 . S
N482 Co468 2.140 . S
N482 C485 1.346 . S
N482 C486 1.345 . S
C483 C484 1.387 . S
C483 C487 1.391 . S
C484 C483 1.387 . S
C484 C485 1.369 . S
C484 H493 0.929 . S
C485 N482 1.346 . S
C485 C484 1.369 . S
C485 H488 0.928 . S
C486 N482 1.345 . S
C486 C487 1.371 . S
C486 H489 0.931 . S
C487 C483 1.391 . S
C487 C486 1.371 . S
C487 H494 0.930 . S
H488 C485 0.928 . S
H489 C486 0.931 . S
H490 C466 0.930 . S
H491 C463 0.930 . S
H492 C472 0.930 . S
H493 C484 0.929 . S
H494 C487 0.930 . S
C495 C496 1.351 . S
C495 N498 1.368 . S
C495 H500 0.931 . S
C496 C495 1.351 . S
C496 N497 1.373 . S
C496 H524 0.930 . S
N497 C496 1.373 . S
N497 C499 1.340 . S
N498 C495 1.368 . S
N498 C499 1.321 . S
N498 Co501 2.135 . S
C499 N497 1.340 . S
C499 N498 1.321 . S
C499 H523 0.930 . S
H500 C495 0.931 . S
Co501 N498 2.135 . S
Co501 N504 2.121 . S
Co501 O509 2.055 . S
Co501 O512 2.039 . S
Co501 N515 2.140 . S
C502 O503 1.227 . S
C502 O512 1.265 . S
O503 C502 1.227 . S
N504 Co501 2.121 . S
N504 C506 1.375 . S
N504 C507 1.313 . S
C505 C506 1.338 . S
C505 N508 1.377 . S
C505 H525 0.930 . S
C506 N504 1.375 . S
C506 C505 1.338 . S
C506 H510 0.931 . S
C507 N504 1.313 . S
C507 N508 1.344 . S
C507 H511 0.930 . S
N508 C505 1.377 . S
N508 C507 1.344 . S
O509 Co501 2.055 . S
O509 C513 1.253 . S
H510 C506 0.931 . S
H511 C507 0.930 . S
O512 Co501 2.039 . S
O512 C502 1.265 . S
C513 O509 1.253 . S
C513 O514 1.227 . S
O514 C513 1.227 . S
N515 Co501 2.140 . S
N515 C518 1.346 . S
N515 C519 1.345 . S
C516 C517 1.387 . S
C516 C520 1.391 . S
C517 C516 1.387 . S
C517 C518 1.369 . S
C517 H526 0.929 . S
C518 N515 1.346 . S
C518 C517 1.369 . S
C518 H521 0.928 . S
C519 N515 1.345 . S
C519 C520 1.371 . S
C519 H522 0.931 . S
C520 C516 1.391 . S
C520 C519 1.371 . S
C520 H527 0.930 . S
H521 C518 0.928 . S
H522 C519 0.931 . S
H523 C499 0.930 . S
H524 C496 0.930 . S
H525 C505 0.930 . S
H526 C517 0.929 . S
H527 C520 0.930 . S
C528 C529 1.363 1_655 S
C528 C534 1.379 1_545 S
C528 N536 1.356 . S
C529 C528 1.363 1_455 S
C529 C535 1.363 . S
C530 C531 1.363 1_455 S
C530 C535 1.379 1_565 S
C530 N537 1.356 . S
C531 C530 1.363 1_655 S
C531 C534 1.363 . S
N532 C534 1.356 . S
N532 H544 0.984 . S
N532 H545 0.985 . S
N533 C535 1.356 . S
N533 H538 0.984 . S
N533 H539 0.985 . S
C534 C528 1.379 1_565 S
C534 C531 1.363 . S
C534 N532 1.356 . S
C535 C529 1.363 . S
C535 C530 1.379 1_545 S
C535 N533 1.356 . S
N536 C528 1.356 . S
N536 H542 0.984 . S
N536 H543 0.984 . S
N537 C530 1.356 . S
N537 H540 0.984 . S
N537 H541 0.985 . S
H538 N533 0.984 . S
H539 N533 0.985 . S
H540 N537 0.984 . S
H541 N537 0.985 . S
H542 N536 0.984 . S
H543 N536 0.984 . S
H544 N532 0.984 . S
H545 N532 0.985 . S
C546 C547 1.363 1_545 S
C546 C552 1.379 1_455 S
C546 N554 1.356 . S
C547 C546 1.363 1_565 S
C547 C553 1.363 . S
C548 C549 1.363 1_565 S
C548 C553 1.379 1_655 S
C548 N555 1.356 . S
C549 C548 1.363 1_545 S
C549 C552 1.363 . S
N550 C552 1.356 . S
N550 H562 0.984 . S
N550 H563 0.985 . S
N551 C553 1.356 . S
N551 H556 0.984 . S
N551 H557 0.985 . S
C552 C546 1.379 1_655 S
C552 C549 1.363 . S
C552 N550 1.356 . S
C553 C547 1.363 . S
C553 C548 1.379 1_455 S
C553 N551 1.356 . S
N554 C546 1.356 . S
N554 H560 0.984 . S
N554 H561 0.984 . S
N555 C548 1.356 . S
N555 H558 0.984 . S
N555 H559 0.985 . S
H556 N551 0.984 . S
H557 N551 0.985 . S
H558 N555 0.984 . S
H559 N555 0.985 . S
H560 N554 0.984 . S
H561 N554 0.984 . S
H562 N550 0.984 . S
H563 N550 0.985 . S
C564 C565 1.363 . S
C564 C570 1.379 . S
C564 N572 1.356 . S
C565 C564 1.363 . S
C565 C571 1.363 . S
C566 C567 1.363 . S
C566 C571 1.379 . S
C566 N573 1.356 . S
C567 C566 1.363 . S
C567 C570 1.363 . S
N568 C570 1.356 . S
N568 H580 0.984 . S
N568 H581 0.985 . S
N569 C571 1.356 . S
N569 H574 0.984 . S
N569 H575 0.985 . S
C570 C564 1.379 . S
C570 C567 1.363 . S
C570 N568 1.356 . S
C571 C565 1.363 . S
C571 C566 1.379 . S
C571 N569 1.356 . S
N572 C564 1.356 . S
N572 H578 0.984 . S
N572 H579 0.984 . S
N573 C566 1.356 . S
N573 H576 0.984 . S
N573 H577 0.985 . S
H574 N569 0.984 . S
H575 N569 0.985 . S
H576 N573 0.984 . S
H577 N573 0.985 . S
H578 N572 0.984 . S
H579 N572 0.984 . S
H580 N568 0.984 . S
H581 N568 0.985 . S
C582 C583 1.363 . S
C582 C588 1.379 . S
C582 N590 1.356 . S
C583 C582 1.363 . S
C583 C589 1.363 . S
C584 C585 1.363 . S
C584 C589 1.379 . S
C584 N591 1.356 . S
C585 C584 1.363 . S
C585 C588 1.363 . S
N586 C588 1.356 . S
N586 H598 0.984 . S
N586 H599 0.985 . S
N587 C589 1.356 . S
N587 H592 0.984 . S
N587 H593 0.985 . S
C588 C582 1.379 . S
C588 C585 1.363 . S
C588 N586 1.356 . S
C589 C583 1.363 . S
C589 C584 1.379 . S
C589 N587 1.356 . S
N590 C582 1.356 . S
N590 H596 0.984 . S
N590 H597 0.984 . S
N591 C584 1.356 . S
N591 H594 0.984 . S
N591 H595 0.985 . S
H592 N587 0.984 . S
H593 N587 0.985 . S
H594 N591 0.984 . S
H595 N591 0.985 . S
H596 N590 0.984 . S
H597 N590 0.984 . S
H598 N586 0.984 . S
H599 N586 0.985 . S
C600 C601 1.363 1_655 S
C600 C606 1.379 1_545 S
C600 N608 1.356 . S
C601 C600 1.363 1_455 S
C601 C607 1.363 . S
C602 C603 1.363 1_455 S
C602 C607 1.379 1_565 S
C602 N609 1.356 . S
C603 C602 1.363 1_655 S
C603 C606 1.363 . S
N604 C606 1.356 . S
N604 H616 0.984 . S
N604 H617 0.985 . S
N605 C607 1.356 . S
N605 H610 0.984 . S
N605 H611 0.985 . S
C606 C600 1.379 1_565 S
C606 C603 1.363 . S
C606 N604 1.356 . S
C607 C601 1.363 . S
C607 C602 1.379 1_545 S
C607 N605 1.356 . S
N608 C600 1.356 . S
N608 H614 0.984 . S
N608 H615 0.984 . S
N609 C602 1.356 . S
N609 H612 0.984 . S
N609 H613 0.985 . S
H610 N605 0.984 . S
H611 N605 0.985 . S
H612 N609 0.984 . S
H613 N609 0.985 . S
H614 N608 0.984 . S
H615 N608 0.984 . S
H616 N604 0.984 . S
H617 N604 0.985 . S
C618 C619 1.363 . S
C618 C624 1.379 1_455 S
C618 N626 1.356 . S
C619 C618 1.363 . S
C619 C625 1.363 1_565 S
C620 C621 1.363 . S
C620 C625 1.379 1_655 S
C620 N627 1.356 . S
C621 C620 1.363 . S
C621 C624 1.363 1_545 S
N622 C624 1.356 . S
N622 H634 0.984 . S
N622 H635 0.985 . S
N623 C625 1.356 . S
N623 H628 0.984 . S
N623 H629 0.985 . S
C624 C618 1.379 1_655 S
C624 C621 1.363 1_565 S
C624 N622 1.356 . S
C625 C619 1.363 1_545 S
C625 C620 1.379 1_455 S
C625 N623 1.356 . S
N626 C618 1.356 . S
N626 H632 0.984 . S
N626 H633 0.984 . S
N627 C620 1.356 . S
N627 H630 0.984 . S
N627 H631 0.985 . S
H628 N623 0.984 . S
H629 N623 0.985 . S
H630 N627 0.984 . S
H631 N627 0.985 . S
H632 N626 0.984 . S
H633 N626 0.984 . S
H634 N622 0.984 . S
H635 N622 0.985 . S
C636 C637 1.363 . S
C636 C642 1.379 . S
C636 N644 1.356 . S
C637 C636 1.363 . S
C637 C643 1.363 . S
C638 C639 1.363 . S
C638 C643 1.379 . S
C638 N645 1.356 . S
C639 C638 1.363 . S
C639 C642 1.363 . S
N640 C642 1.356 . S
N640 H652 0.984 . S
N640 H653 0.985 . S
N641 C643 1.356 . S
N641 H646 0.984 . S
N641 H647 0.985 . S
C642 C636 1.379 . S
C642 C639 1.363 . S
C642 N640 1.356 . S
C643 C637 1.363 . S
C643 C638 1.379 . S
C643 N641 1.356 . S
N644 C636 1.356 . S
N644 H650 0.984 . S
N644 H651 0.984 . S
N645 C638 1.356 . S
N645 H648 0.984 . S
N645 H649 0.985 . S
H646 N641 0.984 . S
H647 N641 0.985 . S
H648 N645 0.984 . S
H649 N645 0.985 . S
H650 N644 0.984 . S
H651 N644 0.984 . S
H652 N640 0.984 . S
H653 N640 0.985 . S
C654 C655 1.363 . S
C654 C660 1.379 . S
C654 N662 1.356 . S
C655 C654 1.363 . S
C655 C661 1.363 . S
C656 C657 1.363 . S
C656 C661 1.379 . S
C656 N663 1.356 . S
C657 C656 1.363 . S
C657 C660 1.363 . S
N658 C660 1.356 . S
N658 H670 0.984 . S
N658 H671 0.985 . S
N659 C661 1.356 . S
N659 H664 0.984 . S
N659 H665 0.985 . S
C660 C654 1.379 . S
C660 C657 1.363 . S
C660 N658 1.356 . S
C661 C655 1.363 . S
C661 C656 1.379 . S
C661 N659 1.356 . S
N662 C654 1.356 . S
N662 H668 0.984 . S
N662 H669 0.984 . S
N663 C656 1.356 . S
N663 H666 0.984 . S
N663 H667 0.985 . S
H664 N659 0.984 . S
H665 N659 0.985 . S
H666 N663 0.984 . S
H667 N663 0.985 . S
H668 N662 0.984 . S
H669 N662 0.984 . S
H670 N658 0.984 . S
H671 N658 0.985 . S
C672 C673 1.363 . S
C672 C678 1.379 1_554 S
C672 N680 1.356 . S
C673 C672 1.363 . S
C673 C679 1.363 1_455 S
C674 C675 1.363 1_655 S
C674 C679 1.379 1_556 S
C674 N681 1.356 . S
C675 C674 1.363 1_455 S
C675 C678 1.363 . S
N676 C678 1.356 . S
N676 H688 0.984 . S
N676 H689 0.985 . S
N677 C679 1.356 . S
N677 H682 0.984 . S
N677 H683 0.985 . S
C678 C672 1.379 1_556 S
C678 C675 1.363 . S
C678 N676 1.356 . S
C679 C673 1.363 1_655 S
C679 C674 1.379 1_554 S
C679 N677 1.356 . S
N680 C672 1.356 . S
N680 H686 0.984 . S
N680 H687 0.984 . S
N681 C674 1.356 . S
N681 H684 0.984 . S
N681 H685 0.985 . S
H682 N677 0.984 . S
H683 N677 0.985 . S
H684 N681 0.984 . S
H685 N681 0.985 . S
H686 N680 0.984 . S
H687 N680 0.984 . S
H688 N676 0.984 . S
H689 N676 0.985 . S
C690 C691 1.363 1_565 S
C690 C696 1.379 . S
C690 N698 1.356 . S
C691 C690 1.363 1_545 S
C691 C697 1.363 . S
C692 C693 1.363 . S
C692 C697 1.379 . S
C692 N699 1.356 . S
C693 C692 1.363 . S
C693 C696 1.363 1_545 S
N694 C696 1.356 . S
N694 H706 0.984 . S
N694 H707 0.985 . S
N695 C697 1.356 . S
N695 H700 0.984 . S
N695 H701 0.985 . S
C696 C690 1.379 . S
C696 C693 1.363 1_565 S
C696 N694 1.356 . S
C697 C691 1.363 . S
C697 C692 1.379 . S
C697 N695 1.356 . S
N698 C690 1.356 . S
N698 H704 0.984 . S
N698 H705 0.984 . S
N699 C692 1.356 . S
N699 H702 0.984 . S
N699 H703 0.985 . S
H700 N695 0.984 . S
H701 N695 0.985 . S
H702 N699 0.984 . S
H703 N699 0.985 . S
H704 N698 0.984 . S
H705 N698 0.984 . S
H706 N694 0.984 . S
H707 N694 0.985 . S
C708 C709 1.363 1_455 S
C708 C714 1.379 1_556 S
C708 N716 1.356 . S
C709 C708 1.363 1_655 S
C709 C715 1.363 . S
C710 C711 1.363 . S
C710 C715 1.379 1_554 S
C710 N717 1.356 . S
C711 C710 1.363 . S
C711 C714 1.363 1_655 S
N712 C714 1.356 . S
N712 H724 0.984 . S
N712 H725 0.985 . S
N713 C715 1.356 . S
N713 H718 0.984 . S
N713 H719 0.985 . S
C714 C708 1.379 1_554 S
C714 C711 1.363 1_455 S
C714 N712 1.356 . S
C715 C709 1.363 . S
C715 C710 1.379 1_556 S
C715 N713 1.356 . S
N716 C708 1.356 . S
N716 H722 0.984 . S
N716 H723 0.984 . S
N717 C710 1.356 . S
N717 H720 0.984 . S
N717 H721 0.985 . S
H718 N713 0.984 . S
H719 N713 0.985 . S
H720 N717 0.984 . S
H721 N717 0.985 . S
H722 N716 0.984 . S
H723 N716 0.984 . S
H724 N712 0.984 . S
H725 N712 0.985 . S
C726 C727 1.363 . S
C726 C732 1.379 . S
C726 N734 1.356 . S
C727 C726 1.363 . S
C727 C733 1.363 1_565 S
C728 C729 1.363 1_545 S
C728 C733 1.379 . S
C728 N735 1.356 . S
C729 C728 1.363 1_565 S
C729 C732 1.363 . S
N730 C732 1.356 . S
N730 H742 0.984 . S
N730 H743 0.985 . S
N731 C733 1.356 . S
N731 H736 0.984 . S
N731 H737 0.985 . S
C732 C726 1.379 . S
C732 C729 1.363 . S
C732 N730 1.356 . S
C733 C727 1.363 1_545 S
C733 C728 1.379 . S
C733 N731 1.356 . S
N734 C726 1.356 . S
N734 H740 0.984 . S
N734 H741 0.984 . S
N735 C728 1.356 . S
N735 H738 0.984 . S
N735 H739 0.985 . S
H736 N731 0.984 . S
H737 N731 0.985 . S
H738 N735 0.984 . S
H739 N735 0.985 . S
H740 N734 0.984 . S
H741 N734 0.984 . S
H742 N730 0.984 . S
H743 N730 0.985 . S
C744 C745 1.363 . S
C744 C750 1.379 1_554 S
C744 N752 1.356 . S
C745 C744 1.363 . S
C745 C751 1.363 . S
C746 C747 1.363 . S
C746 C751 1.379 1_556 S
C746 N753 1.356 . S
C747 C746 1.363 . S
C747 C750 1.363 . S
N748 C750 1.356 . S
N748 H760 0.984 . S
N748 H761 0.985 . S
N749 C751 1.356 . S
N749 H754 0.984 . S
N749 H755 0.985 . S
C750 C744 1.379 1_556 S
C750 C747 1.363 . S
C750 N748 1.356 . S
C751 C745 1.363 . S
C751 C746 1.379 1_554 S
C751 N749 1.356 . S
N752 C744 1.356 . S
N752 H758 0.984 . S
N752 H759 0.984 . S
N753 C746 1.356 . S
N753 H756 0.984 . S
N753 H757 0.985 . S
H754 N749 0.984 . S
H755 N749 0.985 . S
H756 N753 0.984 . S
H757 N753 0.985 . S
H758 N752 0.984 . S
H759 N752 0.984 . S
H760 N748 0.984 . S
H761 N748 0.985 . S
C762 C763 1.363 . S
C762 C768 1.379 . S
C762 N770 1.356 . S
C763 C762 1.363 . S
C763 C769 1.363 . S
C764 C765 1.363 . S
C764 C769 1.379 . S
C764 N771 1.356 . S
C765 C764 1.363 . S
C765 C768 1.363 . S
N766 C768 1.356 . S
N766 H778 0.984 . S
N766 H779 0.985 . S
N767 C769 1.356 . S
N767 H772 0.984 . S
N767 H773 0.985 . S
C768 C762 1.379 . S
C768 C765 1.363 . S
C768 N766 1.356 . S
C769 C763 1.363 . S
C769 C764 1.379 . S
C769 N767 1.356 . S
N770 C762 1.356 . S
N770 H776 0.984 . S
N770 H777 0.984 . S
N771 C764 1.356 . S
N771 H774 0.984 . S
N771 H775 0.985 . S
H772 N767 0.984 . S
H773 N767 0.985 . S
H774 N771 0.984 . S
H775 N771 0.985 . S
H776 N770 0.984 . S
H777 N770 0.984 . S
H778 N766 0.984 . S
H779 N766 0.985 . S
C780 C781 1.363 . S
C780 C786 1.379 1_554 S
C780 N788 1.356 . S
C781 C780 1.363 . S
C781 C787 1.363 . S
C782 C783 1.363 . S
C782 C787 1.379 1_556 S
C782 N789 1.356 . S
C783 C782 1.363 . S
C783 C786 1.363 . S
N784 C786 1.356 . S
N784 H796 0.984 . S
N784 H797 0.985 . S
N785 C787 1.356 . S
N785 H790 0.984 . S
N785 H791 0.985 . S
C786 C780 1.379 1_556 S
C786 C783 1.363 . S
C786 N784 1.356 . S
C787 C781 1.363 . S
C787 C782 1.379 1_554 S
C787 N785 1.356 . S
N788 C780 1.356 . S
N788 H794 0.984 . S
N788 H795 0.984 . S
N789 C782 1.356 . S
N789 H792 0.984 . S
N789 H793 0.985 . S
H790 N785 0.984 . S
H791 N785 0.985 . S
H792 N789 0.984 . S
H793 N789 0.985 . S
H794 N788 0.984 . S
H795 N788 0.984 . S
H796 N784 0.984 . S
H797 N784 0.985 . S
C798 C799 1.363 . S
C798 C804 1.379 . S
C798 N806 1.356 . S
C799 C798 1.363 . S
C799 C805 1.363 . S
C800 C801 1.363 . S
C800 C805 1.379 . S
C800 N807 1.356 . S
C801 C800 1.363 . S
C801 C804 1.363 . S
N802 C804 1.356 . S
N802 H814 0.984 . S
N802 H815 0.985 . S
N803 C805 1.356 . S
N803 H808 0.984 . S
N803 H809 0.985 . S
C804 C798 1.379 . S
C804 C801 1.363 . S
C804 N802 1.356 . S
C805 C799 1.363 . S
C805 C800 1.379 . S
C805 N803 1.356 . S
N806 C798 1.356 . S
N806 H812 0.984 . S
N806 H813 0.984 . S
N807 C800 1.356 . S
N807 H810 0.984 . S
N807 H811 0.985 . S
H808 N803 0.984 . S
H809 N803 0.985 . S
H810 N807 0.984 . S
H811 N807 0.985 . S
H812 N806 0.984 . S
H813 N806 0.984 . S
H814 N802 0.984 . S
H815 N802 0.985 . S
C816 C817 1.363 . S
C816 C822 1.379 . S
C816 N824 1.356 . S
C817 C816 1.363 . S
C817 C823 1.363 . S
C818 C819 1.363 . S
C818 C823 1.379 . S
C818 N825 1.356 . S
C819 C818 1.363 . S
C819 C822 1.363 . S
N820 C822 1.356 . S
N820 H832 0.984 . S
N820 H833 0.985 . S
N821 C823 1.356 . S
N821 H826 0.984 . S
N821 H827 0.985 1_455 S
C822 C816 1.379 . S
C822 C819 1.363 . S
C822 N820 1.356 . S
C823 C817 1.363 . S
C823 C818 1.379 . S
C823 N821 1.356 . S
N824 C816 1.356 . S
N824 H830 0.984 . S
N824 H831 0.984 . S
N825 C818 1.356 . S
N825 H828 0.984 . S
N825 H829 0.985 . S
H826 N821 0.984 . S
H827 N821 0.985 1_655 S
H828 N825 0.984 . S
H829 N825 0.985 . S
H830 N824 0.984 . S
H831 N824 0.984 . S
H832 N820 0.984 . S
H833 N820 0.985 . S
C834 C835 1.363 . S
C834 C840 1.379 . S
C834 N842 1.356 . S
C835 C834 1.363 . S
C835 C841 1.363 . S
C836 C837 1.363 . S
C836 C841 1.379 . S
C836 N843 1.356 . S
C837 C836 1.363 . S
C837 C840 1.363 . S
N838 C840 1.356 . S
N838 H850 0.984 . S
N838 H851 0.985 . S
N839 C841 1.356 . S
N839 H844 0.984 . S
N839 H845 0.985 . S
C840 C834 1.379 . S
C840 C837 1.363 . S
C840 N838 1.356 . S
C841 C835 1.363 . S
C841 C836 1.379 . S
C841 N839 1.356 . S
N842 C834 1.356 . S
N842 H848 0.984 . S
N842 H849 0.984 . S
N843 C836 1.356 . S
N843 H846 0.984 . S
N843 H847 0.985 . S
H844 N839 0.984 . S
H845 N839 0.985 . S
H846 N843 0.984 . S
H847 N843 0.985 . S
H848 N842 0.984 . S
H849 N842 0.984 . S
H850 N838 0.984 . S
H851 N838 0.985 . S
C852 C853 1.363 . S
C852 C858 1.379 . S
C852 N860 1.356 . S
C853 C852 1.363 . S
C853 C859 1.363 . S
C854 C855 1.363 . S
C854 C859 1.379 . S
C854 N861 1.356 . S
C855 C854 1.363 . S
C855 C858 1.363 . S
N856 C858 1.356 . S
N856 H868 0.984 . S
N856 H869 0.985 . S
N857 C859 1.356 . S
N857 H862 0.984 . S
N857 H863 0.985 . S
C858 C852 1.379 . S
C858 C855 1.363 . S
C858 N856 1.356 . S
C859 C853 1.363 . S
C859 C854 1.379 . S
C859 N857 1.356 . S
N860 C852 1.356 . S
N860 H866 0.984 . S
N860 H867 0.984 . S
N861 C854 1.356 . S
N861 H864 0.984 . S
N861 H865 0.985 . S
H862 N857 0.984 . S
H863 N857 0.985 . S
H864 N861 0.984 . S
H865 N861 0.985 . S
H866 N860 0.984 . S
H867 N860 0.984 . S
H868 N856 0.984 . S
H869 N856 0.985 . S
C870 C871 1.363 . S
C870 C876 1.379 . S
C870 N878 1.356 . S
C871 C870 1.363 . S
C871 C877 1.363 . S
C872 C873 1.363 . S
C872 C877 1.379 . S
C872 N879 1.356 . S
C873 C872 1.363 . S
C873 C876 1.363 . S
N874 C876 1.356 . S
N874 H886 0.984 . S
N874 H887 0.985 . S
N875 C877 1.356 . S
N875 H880 0.984 . S
N875 H881 0.985 . S
C876 C870 1.379 . S
C876 C873 1.363 . S
C876 N874 1.356 . S
C877 C871 1.363 . S
C877 C872 1.379 . S
C877 N875 1.356 . S
N878 C870 1.356 . S
N878 H884 0.984 . S
N878 H885 0.984 . S
N879 C872 1.356 . S
N879 H882 0.984 . S
N879 H883 0.985 . S
H880 N875 0.984 . S
H881 N875 0.985 . S
H882 N879 0.984 . S
H883 N879 0.985 . S
H884 N878 0.984 . S
H885 N878 0.984 . S
H886 N874 0.984 . S
H887 N874 0.985 . S
C888 C889 1.363 . S
C888 C894 1.379 . S
C888 N896 1.356 . S
C889 C888 1.363 . S
C889 C895 1.363 . S
C890 C891 1.363 . S
C890 C895 1.379 . S
C890 N897 1.356 . S
C891 C890 1.363 . S
C891 C894 1.363 . S
N892 C894 1.356 . S
N892 H904 0.984 . S
N892 H905 0.985 . S
N893 C895 1.356 . S
N893 H898 0.984 . S
N893 H899 0.985 . S
C894 C888 1.379 . S
C894 C891 1.363 . S
C894 N892 1.356 . S
C895 C889 1.363 . S
C895 C890 1.379 . S
C895 N893 1.356 . S
N896 C888 1.356 . S
N896 H902 0.984 . S
N896 H903 0.984 . S
N897 C890 1.356 . S
N897 H900 0.984 . S
N897 H901 0.985 . S
H898 N893 0.984 . S
H899 N893 0.985 . S
H900 N897 0.984 . S
H901 N897 0.985 . S
H902 N896 0.984 . S
H903 N896 0.984 . S
H904 N892 0.984 . S
H905 N892 0.985 . S
C906 C907 1.363 . S
C906 C912 1.379 . S
C906 N914 1.356 . S
C907 C906 1.363 . S
C907 C913 1.363 . S
C908 C909 1.363 . S
C908 C913 1.379 . S
C908 N915 1.356 . S
C909 C908 1.363 . S
C909 C912 1.363 . S
N910 C912 1.356 . S
N910 H922 0.984 . S
N910 H923 0.985 . S
N911 C913 1.356 . S
N911 H916 0.984 . S
N911 H917 0.985 . S
C912 C906 1.379 . S
C912 C909 1.363 . S
C912 N910 1.356 . S
C913 C907 1.363 . S
C913 C908 1.379 . S
C913 N911 1.356 . S
N914 C906 1.356 . S
N914 H920 0.984 . S
N914 H921 0.984 . S
N915 C908 1.356 . S
N915 H918 0.984 . S
N915 H919 0.985 . S
H916 N911 0.984 . S
H917 N911 0.985 . S
H918 N915 0.984 . S
H919 N915 0.985 . S
H920 N914 0.984 . S
H921 N914 0.984 . S
H922 N910 0.984 . S
H923 N910 0.985 . S
C924 C925 1.363 . S
C924 C930 1.379 . S
C924 N932 1.356 . S
C925 C924 1.363 . S
C925 C931 1.363 . S
C926 C927 1.363 . S
C926 C931 1.379 . S
C926 N933 1.356 . S
C927 C926 1.363 . S
C927 C930 1.363 . S
N928 C930 1.356 . S
N928 H940 0.984 . S
N928 H941 0.985 . S
N929 C931 1.356 . S
N929 H934 0.984 . S
N929 H935 0.985 . S
C930 C924 1.379 . S
C930 C927 1.363 . S
C930 N928 1.356 . S
C931 C925 1.363 . S
C931 C926 1.379 . S
C931 N929 1.356 . S
N932 C924 1.356 . S
N932 H938 0.984 . S
N932 H939 0.984 . S
N933 C926 1.356 . S
N933 H936 0.984 . S
N933 H937 0.985 . S
H934 N929 0.984 . S
H935 N929 0.985 . S
H936 N933 0.984 . S
H937 N933 0.985 . S
H938 N932 0.984 . S
H939 N932 0.984 . S
H940 N928 0.984 . S
H941 N928 0.985 . S
C942 C943 1.363 . S
C942 C948 1.379 . S
C942 N950 1.356 . S
C943 C942 1.363 . S
C943 C949 1.363 . S
C944 C945 1.363 . S
C944 C949 1.379 . S
C944 N951 1.356 . S
C945 C944 1.363 . S
C945 C948 1.363 . S
N946 C948 1.356 . S
N946 H958 0.984 . S
N946 H959 0.985 . S
N947 C949 1.356 . S
N947 H952 0.984 . S
N947 H953 0.985 . S
C948 C942 1.379 . S
C948 C945 1.363 . S
C948 N946 1.356 . S
C949 C943 1.363 . S
C949 C944 1.379 . S
C949 N947 1.356 . S
N950 C942 1.356 . S
N950 H956 0.984 . S
N950 H957 0.984 . S
N951 C944 1.356 . S
N951 H954 0.984 . S
N951 H955 0.985 . S
H952 N947 0.984 . S
H953 N947 0.985 . S
H954 N951 0.984 . S
H955 N951 0.985 . S
H956 N950 0.984 . S
H957 N950 0.984 . S
H958 N946 0.984 . S
H959 N946 0.985 . S
C960 C961 1.363 . S
C960 C966 1.379 . S
C960 N968 1.356 . S
C961 C960 1.363 . S
C961 C967 1.363 . S
C962 C963 1.363 . S
C962 C967 1.379 . S
C962 N969 1.356 . S
C963 C962 1.363 . S
C963 C966 1.363 . S
N964 C966 1.356 . S
N964 H976 0.984 . S
N964 H977 0.985 . S
N965 C967 1.356 . S
N965 H970 0.984 . S
N965 H971 0.985 . S
C966 C960 1.379 . S
C966 C963 1.363 . S
C966 N964 1.356 . S
C967 C961 1.363 . S
C967 C962 1.379 . S
C967 N965 1.356 . S
N968 C960 1.356 . S
N968 H974 0.984 . S
N968 H975 0.984 . S
N969 C962 1.356 . S
N969 H972 0.984 . S
N969 H973 0.985 . S
H970 N965 0.984 . S
H971 N965 0.985 . S
H972 N969 0.984 . S
H973 N969 0.985 . S
H974 N968 0.984 . S
H975 N968 0.984 . S
H976 N964 0.984 . S
H977 N964 0.985 . S
C978 C979 1.363 . S
C978 C984 1.379 . S
C978 N986 1.356 . S
C979 C978 1.363 . S
C979 C985 1.363 . S
C980 C981 1.363 . S
C980 C985 1.379 . S
C980 N987 1.356 . S
C981 C980 1.363 . S
C981 C984 1.363 . S
N982 C984 1.356 . S
N982 H994 0.984 . S
N982 H995 0.985 . S
N983 C985 1.356 . S
N983 H988 0.984 . S
N983 H989 0.985 . S
C984 C978 1.379 . S
C984 C981 1.363 . S
C984 N982 1.356 . S
C985 C979 1.363 . S
C985 C980 1.379 . S
C985 N983 1.356 . S
N986 C978 1.356 . S
N986 H992 0.984 . S
N986 H993 0.984 . S
N987 C980 1.356 . S
N987 H990 0.984 . S
N987 H991 0.985 . S
H988 N983 0.984 . S
H989 N983 0.985 . S
H990 N987 0.984 . S
H991 N987 0.985 . S
H992 N986 0.984 . S
H993 N986 0.984 . S
H994 N982 0.984 . S
H995 N982 0.985 . S
C996 C997 1.363 . S
C996 C1002 1.379 . S
C996 N1004 1.356 . S
C997 C996 1.363 . S
C997 C1003 1.363 . S
C998 C999 1.363 . S
C998 C1003 1.379 . S
C998 N1005 1.356 . S
C999 C998 1.363 . S
C999 C1002 1.363 . S
N1000 C1002 1.356 . S
N1000 H1012 0.984 . S
N1000 H1013 0.985 . S
N1001 C1003 1.356 . S
N1001 H1006 0.984 . S
N1001 H1007 0.985 . S
C1002 C996 1.379 . S
C1002 C999 1.363 . S
C1002 N1000 1.356 . S
C1003 C997 1.363 . S
C1003 C998 1.379 . S
C1003 N1001 1.356 . S
N1004 C996 1.356 . S
N1004 H1010 0.984 . S
N1004 H1011 0.984 . S
N1005 C998 1.356 . S
N1005 H1008 0.984 . S
N1005 H1009 0.985 . S
H1006 N1001 0.984 . S
H1007 N1001 0.985 . S
H1008 N1005 0.984 . S
H1009 N1005 0.985 . S
H1010 N1004 0.984 . S
H1011 N1004 0.984 . S
H1012 N1000 0.984 . S
H1013 N1000 0.985 . S
C1014 C1015 1.363 . S
C1014 C1020 1.379 . S
C1014 N1022 1.356 . S
C1015 C1014 1.363 . S
C1015 C1021 1.363 . S
C1016 C1017 1.363 . S
C1016 C1021 1.379 . S
C1016 N1023 1.356 . S
C1017 C1016 1.363 . S
C1017 C1020 1.363 . S
N1018 C1020 1.356 . S
N1018 H1030 0.984 . S
N1018 H1031 0.985 . S
N1019 C1021 1.356 . S
N1019 H1024 0.984 . S
N1019 H1025 0.985 . S
C1020 C1014 1.379 . S
C1020 C1017 1.363 . S
C1020 N1018 1.356 . S
C1021 C1015 1.363 . S
C1021 C1016 1.379 . S
C1021 N1019 1.356 . S
N1022 C1014 1.356 . S
N1022 H1028 0.984 . S
N1022 H1029 0.984 . S
N1023 C1016 1.356 . S
N1023 H1026 0.984 . S
N1023 H1027 0.985 . S
H1024 N1019 0.984 . S
H1025 N1019 0.985 . S
H1026 N1023 0.984 . S
H1027 N1023 0.985 . S
H1028 N1022 0.984 . S
H1029 N1022 0.984 . S
H1030 N1018 0.984 . S
H1031 N1018 0.985 . S
C1032 C1033 1.363 . S
C1032 C1038 1.379 . S
C1032 N1040 1.356 . S
C1033 C1032 1.363 . S
C1033 C1039 1.363 . S
C1034 C1035 1.363 . S
C1034 C1039 1.379 . S
C1034 N1041 1.356 . S
C1035 C1034 1.363 . S
C1035 C1038 1.363 . S
N1036 C1038 1.356 . S
N1036 H1048 0.984 . S
N1036 H1049 0.985 . S
N1037 C1039 1.356 . S
N1037 H1042 0.984 . S
N1037 H1043 0.985 . S
C1038 C1032 1.379 . S
C1038 C1035 1.363 . S
C1038 N1036 1.356 . S
C1039 C1033 1.363 . S
C1039 C1034 1.379 . S
C1039 N1037 1.356 . S
N1040 C1032 1.356 . S
N1040 H1046 0.984 . S
N1040 H1047 0.984 . S
N1041 C1034 1.356 . S
N1041 H1044 0.984 . S
N1041 H1045 0.985 . S
H1042 N1037 0.984 . S
H1043 N1037 0.985 . S
H1044 N1041 0.984 . S
H1045 N1041 0.985 . S
H1046 N1040 0.984 . S
H1047 N1040 0.984 . S
H1048 N1036 0.984 . S
H1049 N1036 0.985 . S
C1050 C1051 1.363 . S
C1050 C1056 1.379 . S
C1050 N1058 1.356 . S
C1051 C1050 1.363 . S
C1051 C1057 1.363 . S
C1052 C1053 1.363 . S
C1052 C1057 1.379 . S
C1052 N1059 1.356 . S
C1053 C1052 1.363 . S
C1053 C1056 1.363 . S
N1054 C1056 1.356 . S
N1054 H1066 0.984 . S
N1054 H1067 0.985 . S
N1055 C1057 1.356 . S
N1055 H1060 0.984 . S
N1055 H1061 0.985 . S
C1056 C1050 1.379 . S
C1056 C1053 1.363 . S
C1056 N1054 1.356 . S
C1057 C1051 1.363 . S
C1057 C1052 1.379 . S
C1057 N1055 1.356 . S
N1058 C1050 1.356 . S
N1058 H1064 0.984 . S
N1058 H1065 0.984 . S
N1059 C1052 1.356 . S
N1059 H1062 0.984 . S
N1059 H1063 0.985 . S
H1060 N1055 0.984 . S
H1061 N1055 0.985 . S
H1062 N1059 0.984 . S
H1063 N1059 0.985 . S
H1064 N1058 0.984 . S
H1065 N1058 0.984 . S
H1066 N1054 0.984 . S
H1067 N1054 0.985 . S
C1068 C1069 1.363 . S
C1068 C1074 1.379 . S
C1068 N1076 1.356 . S
C1069 C1068 1.363 . S
C1069 C1075 1.363 . S
C1070 C1071 1.363 . S
C1070 C1075 1.379 . S
C1070 N1077 1.356 . S
C1071 C1070 1.363 . S
C1071 C1074 1.363 . S
N1072 C1074 1.356 . S
N1072 H1084 0.984 . S
N1072 H1085 0.985 . S
N1073 C1075 1.356 . S
N1073 H1078 0.984 . S
N1073 H1079 0.985 . S
C1074 C1068 1.379 . S
C1074 C1071 1.363 . S
C1074 N1072 1.356 . S
C1075 C1069 1.363 . S
C1075 C1070 1.379 . S
C1075 N1073 1.356 . S
N1076 C1068 1.356 . S
N1076 H1082 0.984 . S
N1076 H1083 0.984 . S
N1077 C1070 1.356 . S
N1077 H1080 0.984 . S
N1077 H1081 0.985 . S
H1078 N1073 0.984 . S
H1079 N1073 0.985 . S
H1080 N1077 0.984 . S
H1081 N1077 0.985 . S
H1082 N1076 0.984 . S
H1083 N1076 0.984 . S
H1084 N1072 0.984 . S
H1085 N1072 0.985 . S
C1086 C1087 1.363 . S
C1086 C1092 1.379 . S
C1086 N1094 1.356 . S
C1087 C1086 1.363 . S
C1087 C1093 1.363 . S
C1088 C1089 1.363 . S
C1088 C1093 1.379 . S
C1088 N1095 1.356 . S
C1089 C1088 1.363 . S
C1089 C1092 1.363 . S
N1090 C1092 1.356 . S
N1090 H1102 0.984 . S
N1090 H1103 0.985 . S
N1091 C1093 1.356 . S
N1091 H1096 0.984 . S
N1091 H1097 0.985 . S
C1092 C1086 1.379 . S
C1092 C1089 1.363 . S
C1092 N1090 1.356 . S
C1093 C1087 1.363 . S
C1093 C1088 1.379 . S
C1093 N1091 1.356 . S
N1094 C1086 1.356 . S
N1094 H1100 0.984 . S
N1094 H1101 0.984 . S
N1095 C1088 1.356 . S
N1095 H1098 0.984 . S
N1095 H1099 0.985 . S
H1096 N1091 0.984 . S
H1097 N1091 0.985 . S
H1098 N1095 0.984 . S
H1099 N1095 0.985 . S
H1100 N1094 0.984 . S
H1101 N1094 0.984 . S
H1102 N1090 0.984 . S
H1103 N1090 0.985 . S
C1104 C1105 1.363 . S
C1104 C1110 1.379 . S
C1104 N1112 1.356 . S
C1105 C1104 1.363 . S
C1105 C1111 1.363 . S
C1106 C1107 1.363 . S
C1106 C1111 1.379 . S
C1106 N1113 1.356 . S
C1107 C1106 1.363 . S
C1107 C1110 1.363 . S
N1108 C1110 1.356 . S
N1108 H1120 0.984 . S
N1108 H1121 0.985 . S
N1109 C1111 1.356 . S
N1109 H1114 0.984 . S
N1109 H1115 0.985 . S
C1110 C1104 1.379 . S
C1110 C1107 1.363 . S
C1110 N1108 1.356 . S
C1111 C1105 1.363 . S
C1111 C1106 1.379 . S
C1111 N1109 1.356 . S
N1112 C1104 1.356 . S
N1112 H1118 0.984 . S
N1112 H1119 0.984 . S
N1113 C1106 1.356 . S
N1113 H1116 0.984 . S
N1113 H1117 0.985 . S
H1114 N1109 0.984 . S
H1115 N1109 0.985 . S
H1116 N1113 0.984 . S
H1117 N1113 0.985 . S
H1118 N1112 0.984 . S
H1119 N1112 0.984 . S
H1120 N1108 0.984 . S
H1121 N1108 0.985 . S
C1122 C1123 1.363 . S
C1122 C1128 1.379 . S
C1122 N1130 1.356 . S
C1123 C1122 1.363 . S
C1123 C1129 1.363 . S
C1124 C1125 1.363 . S
C1124 C1129 1.379 . S
C1124 N1131 1.356 . S
C1125 C1124 1.363 . S
C1125 C1128 1.363 . S
N1126 C1128 1.356 . S
N1126 H1138 0.984 . S
N1126 H1139 0.985 . S
N1127 C1129 1.356 . S
N1127 H1132 0.984 . S
N1127 H1133 0.985 . S
C1128 C1122 1.379 . S
C1128 C1125 1.363 . S
C1128 N1126 1.356 . S
C1129 C1123 1.363 . S
C1129 C1124 1.379 . S
C1129 N1127 1.356 . S
N1130 C1122 1.356 . S
N1130 H1136 0.984 . S
N1130 H1137 0.984 . S
N1131 C1124 1.356 . S
N1131 H1134 0.984 . S
N1131 H1135 0.985 . S
H1132 N1127 0.984 . S
H1133 N1127 0.985 . S
H1134 N1131 0.984 . S
H1135 N1131 0.985 . S
H1136 N1130 0.984 . S
H1137 N1130 0.984 . S
H1138 N1126 0.984 . S
H1139 N1126 0.985 . S
C1140 C1141 1.363 . S
C1140 C1146 1.379 . S
C1140 N1148 1.356 . S
C1141 C1140 1.363 . S
C1141 C1147 1.363 . S
C1142 C1143 1.363 . S
C1142 C1147 1.379 . S
C1142 N1149 1.356 . S
C1143 C1142 1.363 . S
C1143 C1146 1.363 . S
N1144 C1146 1.356 . S
N1144 H1156 0.984 . S
N1144 H1157 0.985 . S
N1145 C1147 1.356 . S
N1145 H1150 0.984 . S
N1145 H1151 0.985 . S
C1146 C1140 1.379 . S
C1146 C1143 1.363 . S
C1146 N1144 1.356 . S
C1147 C1141 1.363 . S
C1147 C1142 1.379 . S
C1147 N1145 1.356 . S
N1148 C1140 1.356 . S
N1148 H1154 0.984 . S
N1148 H1155 0.984 . S
N1149 C1142 1.356 . S
N1149 H1152 0.984 . S
N1149 H1153 0.985 . S
H1150 N1145 0.984 . S
H1151 N1145 0.985 . S
H1152 N1149 0.984 . S
H1153 N1149 0.985 . S
H1154 N1148 0.984 . S
H1155 N1148 0.984 . S
H1156 N1144 0.984 . S
H1157 N1144 0.985 . S
C1158 C1159 1.363 . S
C1158 C1164 1.379 . S
C1158 N1166 1.356 . S
C1159 C1158 1.363 . S
C1159 C1165 1.363 . S
C1160 C1161 1.363 . S
C1160 C1165 1.379 . S
C1160 N1167 1.356 . S
C1161 C1160 1.363 . S
C1161 C1164 1.363 . S
N1162 C1164 1.356 . S
N1162 H1174 0.984 . S
N1162 H1175 0.985 . S
N1163 C1165 1.356 . S
N1163 H1168 0.984 . S
N1163 H1169 0.985 . S
C1164 C1158 1.379 . S
C1164 C1161 1.363 . S
C1164 N1162 1.356 . S
C1165 C1159 1.363 . S
C1165 C1160 1.379 . S
C1165 N1163 1.356 . S
N1166 C1158 1.356 . S
N1166 H1172 0.984 . S
N1166 H1173 0.984 . S
N1167 C1160 1.356 . S
N1167 H1170 0.984 . S
N1167 H1171 0.985 . S
H1168 N1163 0.984 . S
H1169 N1163 0.985 . S
H1170 N1167 0.984 . S
H1171 N1167 0.985 . S
H1172 N1166 0.984 . S
H1173 N1166 0.984 . S
H1174 N1162 0.984 . S
H1175 N1162 0.985 . S
C1176 C1177 1.363 . S
C1176 C1182 1.379 . S
C1176 N1184 1.356 . S
C1177 C1176 1.363 . S
C1177 C1183 1.363 . S
C1178 C1179 1.363 . S
C1178 C1183 1.379 . S
C1178 N1185 1.356 . S
C1179 C1178 1.363 . S
C1179 C1182 1.363 . S
N1180 C1182 1.356 . S
N1180 H1192 0.984 . S
N1180 H1193 0.985 . S
N1181 C1183 1.356 . S
N1181 H1186 0.984 . S
N1181 H1187 0.985 . S
C1182 C1176 1.379 . S
C1182 C1179 1.363 . S
C1182 N1180 1.356 . S
C1183 C1177 1.363 . S
C1183 C1178 1.379 . S
C1183 N1181 1.356 . S
N1184 C1176 1.356 . S
N1184 H1190 0.984 . S
N1184 H1191 0.984 . S
N1185 C1178 1.356 . S
N1185 H1188 0.984 . S
N1185 H1189 0.985 . S
H1186 N1181 0.984 . S
H1187 N1181 0.985 . S
H1188 N1185 0.984 . S
H1189 N1185 0.985 . S
H1190 N1184 0.984 . S
H1191 N1184 0.984 . S
H1192 N1180 0.984 . S
H1193 N1180 0.985 . S
C1194 C1195 1.363 . S
C1194 C1200 1.379 . S
C1194 N1202 1.356 . S
C1195 C1194 1.363 . S
C1195 C1201 1.363 . S
C1196 C1197 1.363 . S
C1196 C1201 1.379 . S
C1196 N1203 1.356 . S
C1197 C1196 1.363 . S
C1197 C1200 1.363 . S
N1198 C1200 1.356 . S
N1198 H1210 0.984 . S
N1198 H1211 0.985 . S
N1199 C1201 1.356 . S
N1199 H1204 0.984 . S
N1199 H1205 0.985 . S
C1200 C1194 1.379 . S
C1200 C1197 1.363 . S
C1200 N1198 1.356 . S
C1201 C1195 1.363 . S
C1201 C1196 1.379 . S
C1201 N1199 1.356 . S
N1202 C1194 1.356 . S
N1202 H1208 0.984 . S
N1202 H1209 0.984 . S
N1203 C1196 1.356 . S
N1203 H1206 0.984 . S
N1203 H1207 0.985 . S
H1204 N1199 0.984 . S
H1205 N1199 0.985 . S
H1206 N1203 0.984 . S
H1207 N1203 0.985 . S
H1208 N1202 0.984 . S
H1209 N1202 0.984 . S
H1210 N1198 0.984 . S
H1211 N1198 0.985 . S
C1212 C1213 1.363 . S
C1212 C1218 1.379 . S
C1212 N1220 1.356 . S
C1213 C1212 1.363 . S
C1213 C1219 1.363 . S
C1214 C1215 1.363 . S
C1214 C1219 1.379 . S
C1214 N1221 1.356 . S
C1215 C1214 1.363 . S
C1215 C1218 1.363 . S
N1216 C1218 1.356 . S
N1216 H1228 0.984 . S
N1216 H1229 0.985 . S
N1217 C1219 1.356 . S
N1217 H1222 0.984 . S
N1217 H1223 0.985 . S
C1218 C1212 1.379 . S
C1218 C1215 1.363 . S
C1218 N1216 1.356 . S
C1219 C1213 1.363 . S
C1219 C1214 1.379 . S
C1219 N1217 1.356 . S
N1220 C1212 1.356 . S
N1220 H1226 0.984 . S
N1220 H1227 0.984 . S
N1221 C1214 1.356 . S
N1221 H1224 0.984 . S
N1221 H1225 0.985 . S
H1222 N1217 0.984 . S
H1223 N1217 0.985 . S
H1224 N1221 0.984 . S
H1225 N1221 0.985 . S
H1226 N1220 0.984 . S
H1227 N1220 0.984 . S
H1228 N1216 0.984 . S
H1229 N1216 0.985 . S
C1230 C1231 1.363 . S
C1230 C1236 1.379 . S
C1230 N1238 1.356 . S
C1231 C1230 1.363 . S
C1231 C1237 1.363 . S
C1232 C1233 1.363 . S
C1232 C1237 1.379 . S
C1232 N1239 1.356 . S
C1233 C1232 1.363 . S
C1233 C1236 1.363 . S
N1234 C1236 1.356 . S
N1234 H1246 0.984 . S
N1234 H1247 0.985 . S
N1235 C1237 1.356 . S
N1235 H1240 0.984 . S
N1235 H1241 0.985 . S
C1236 C1230 1.379 . S
C1236 C1233 1.363 . S
C1236 N1234 1.356 . S
C1237 C1231 1.363 . S
C1237 C1232 1.379 . S
C1237 N1235 1.356 . S
N1238 C1230 1.356 . S
N1238 H1244 0.984 . S
N1238 H1245 0.984 . S
N1239 C1232 1.356 . S
N1239 H1242 0.984 . S
N1239 H1243 0.985 . S
H1240 N1235 0.984 . S
H1241 N1235 0.985 . S
H1242 N1239 0.984 . S
H1243 N1239 0.985 . S
H1244 N1238 0.984 . S
H1245 N1238 0.984 . S
H1246 N1234 0.984 . S
H1247 N1234 0.985 . S
C529 C21 1.407 . S
C531 C87 1.407 . S
C547 C120 1.407 . S
C549 C54 1.407 . S
C565 C219 1.407 . S
C567 C153 1.407 . S
C583 C186 1.407 . S
C585 C252 1.407 . S
C601 C351 1.407 . S
C603 C285 1.407 . S
C619 C318 1.407 . S
C621 C384 1.407 . S
C637 C483 1.407 . S
C639 C417 1.407 . S
C655 C450 1.407 . S
C657 C516 1.407 . S
C673 C7 1.545 . S
C675 C337 1.545 . S
C691 C370 1.545 . S
C693 C40 1.545 . S
C709 C271 1.545 . S
C711 C73 1.545 . S
C727 C304 1.545 . S
C729 C106 1.545 . S
C745 C469 1.545 . S
C747 C139 1.545 . S
C763 C502 1.545 . S
C765 C172 1.545 . S
C781 C403 1.545 . S
C783 C205 1.545 . S
C799 C436 1.545 . S
C801 C238 1.545 . S
C817 C18 1.421 . S
C819 C249 1.421 . S
C835 C51 1.421 . S
C837 C150 1.421 . S
C853 C183 1.421 . S
C855 C84 1.421 . S
C871 C216 1.421 . S
C873 C117 1.421 . S
C889 C282 1.421 . S
C891 C513 1.421 . S
C907 C315 1.421 . S
C909 C414 1.421 . S
C925 C348 1.421 . S
C927 C447 1.421 . S
C943 C381 1.421 . S
C945 C480 1.421 . S
C961 N464 1.361 . S
C963 N13 1.351 . S
C979 N46 1.351 . S
C981 N497 1.361 . S
C997 N398 1.361 . S
C999 N79 1.351 . S
C1015 N431 1.361 . S
C1017 N112 1.351 . S
C1033 N332 1.361 . S
C1035 N145 1.351 . S
C1051 N178 1.351 . S
C1053 N365 1.361 . S
C1069 N266 1.361 . S
C1071 N211 1.351 . S
C1087 N244 1.351 . S
C1089 N299 1.361 . S
C1105 N200 1.361 . S
C1107 N277 1.351 . S
C1123 N233 1.361 . S
C1125 N310 1.351 . S
C1141 N134 1.361 . S
C1143 N343 1.351 . S
C1159 N376 1.351 . S
C1161 N167 1.361 . S
C1177 N68 1.361 . S
C1179 N409 1.351 . S
C1195 N442 1.351 . S
C1197 N101 1.361 . S
C1213 N475 1.351 . S
C1215 N2 1.361 . S
C1231 N35 1.361 . S
C1233 N508 1.351 . S
