# Generated by pormake.
# Topology fnd, (5)-cn, num edge types: 1
# Building blocks:
#     Node 0, Type 0, BuildingBlock: XOMCOT_clean_sbu_1, # of connection points: 5
#     Node 1, Type 0, BuildingBlock: XOMCOT_clean_sbu_1, # of connection points: 5
#     Node 2, Type 0, BuildingBlock: XOMCOT_clean_sbu_1, # of connection points: 5
#     Node 3, Type 0, BuildingBlock: XOMCOT_clean_sbu_1, # of connection points: 5
#     Node 4, Type 0, BuildingBlock: XOMCOT_clean_sbu_1, # of connection points: 5
#     Node 5, Type 0, BuildingBlock: XOMCOT_clean_sbu_1, # of connection points: 5
#     Node 6, Type 0, BuildingBlock: XOMCOT_clean_sbu_1, # of connection points: 5
#     Node 7, Type 0, BuildingBlock: XOMCOT_clean_sbu_1, # of connection points: 5
#     Node 8, Type 0, BuildingBlock: XOMCOT_clean_sbu_1, # of connection points: 5
#     Node 9, Type 0, BuildingBlock: XOMCOT_clean_sbu_1, # of connection points: 5
#     Node 10, Type 0, BuildingBlock: XOMCOT_clean_sbu_1, # of connection points: 5
#     Node 11, Type 0, BuildingBlock: XOMCOT_clean_sbu_1, # of connection points: 5
#     Node 12, Type 0, BuildingBlock: XOMCOT_clean_sbu_1, # of connection points: 5
#     Node 13, Type 0, BuildingBlock: XOMCOT_clean_sbu_1, # of connection points: 5
#     Node 14, Type 0, BuildingBlock: XOMCOT_clean_sbu_1, # of connection points: 5
#     Node 15, Type 0, BuildingBlock: XOMCOT_clean_sbu_1, # of connection points: 5
#     Node 16, Type 0, BuildingBlock: XOMCOT_clean_sbu_1, # of connection points: 5
#     Node 17, Type 0, BuildingBlock: XOMCOT_clean_sbu_1, # of connection points: 5
#     Edge 18, Type (0, 0), BuildingBlock: AJUNOK_clean_linker_0, # of connection points: 2
#     Edge 19, Type (0, 0), BuildingBlock: AJUNOK_clean_linker_0, # of connection points: 2
#     Edge 20, Type (0, 0), BuildingBlock: AJUNOK_clean_linker_0, # of connection points: 2
#     Edge 21, Type (0, 0), BuildingBlock: AJUNOK_clean_linker_0, # of connection points: 2
#     Edge 22, Type (0, 0), BuildingBlock: AJUNOK_clean_linker_0, # of connection points: 2
#     Edge 23, Type (0, 0), BuildingBlock: AJUNOK_clean_linker_0, # of connection points: 2
#     Edge 24, Type (0, 0), BuildingBlock: AJUNOK_clean_linker_0, # of connection points: 2
#     Edge 25, Type (0, 0), BuildingBlock: AJUNOK_clean_linker_0, # of connection points: 2
#     Edge 26, Type (0, 0), BuildingBlock: AJUNOK_clean_linker_0, # of connection points: 2
#     Edge 27, Type (0, 0), BuildingBlock: AJUNOK_clean_linker_0, # of connection points: 2
#     Edge 28, Type (0, 0), BuildingBlock: AJUNOK_clean_linker_0, # of connection points: 2
#     Edge 29, Type (0, 0), BuildingBlock: AJUNOK_clean_linker_0, # of connection points: 2
#     Edge 30, Type (0, 0), BuildingBlock: AJUNOK_clean_linker_0, # of connection points: 2
#     Edge 31, Type (0, 0), BuildingBlock: AJUNOK_clean_linker_0, # of connection points: 2
#     Edge 32, Type (0, 0), BuildingBlock: AJUNOK_clean_linker_0, # of connection points: 2
#     Edge 33, Type (0, 0), BuildingBlock: AJUNOK_clean_linker_0, # of connection points: 2
#     Edge 34, Type (0, 0), BuildingBlock: AJUNOK_clean_linker_0, # of connection points: 2
#     Edge 35, Type (0, 0), BuildingBlock: AJUNOK_clean_linker_0, # of connection points: 2
#     Edge 36, Type (0, 0), BuildingBlock: AJUNOK_clean_linker_0, # of connection points: 2
#     Edge 37, Type (0, 0), BuildingBlock: AJUNOK_clean_linker_0, # of connection points: 2
#     Edge 38, Type (0, 0), BuildingBlock: AJUNOK_clean_linker_0, # of connection points: 2
#     Edge 39, Type (0, 0), BuildingBlock: AJUNOK_clean_linker_0, # of connection points: 2
#     Edge 40, Type (0, 0), BuildingBlock: AJUNOK_clean_linker_0, # of connection points: 2
#     Edge 41, Type (0, 0), BuildingBlock: AJUNOK_clean_linker_0, # of connection points: 2
#     Edge 42, Type (0, 0), BuildingBlock: AJUNOK_clean_linker_0, # of connection points: 2
#     Edge 43, Type (0, 0), BuildingBlock: AJUNOK_clean_linker_0, # of connection points: 2
#     Edge 44, Type (0, 0), BuildingBlock: AJUNOK_clean_linker_0, # of connection points: 2
#     Edge 45, Type (0, 0), BuildingBlock: AJUNOK_clean_linker_0, # of connection points: 2
#     Edge 46, Type (0, 0), BuildingBlock: AJUNOK_clean_linker_0, # of connection points: 2
#     Edge 47, Type (0, 0), BuildingBlock: AJUNOK_clean_linker_0, # of connection points: 2
#     Edge 48, Type (0, 0), BuildingBlock: AJUNOK_clean_linker_0, # of connection points: 2
#     Edge 49, Type (0, 0), BuildingBlock: AJUNOK_clean_linker_0, # of connection points: 2
#     Edge 50, Type (0, 0), BuildingBlock: AJUNOK_clean_linker_0, # of connection points: 2
#     Edge 51, Type (0, 0), BuildingBlock: AJUNOK_clean_linker_0, # of connection points: 2
#     Edge 52, Type (0, 0), BuildingBlock: AJUNOK_clean_linker_0, # of connection points: 2
#     Edge 53, Type (0, 0), BuildingBlock: AJUNOK_clean_linker_0, # of connection points: 2
#     Edge 54, Type (0, 0), BuildingBlock: AJUNOK_clean_linker_0, # of connection points: 2
#     Edge 55, Type (0, 0), BuildingBlock: AJUNOK_clean_linker_0, # of connection points: 2
#     Edge 56, Type (0, 0), BuildingBlock: AJUNOK_clean_linker_0, # of connection points: 2
#     Edge 57, Type (0, 0), BuildingBlock: AJUNOK_clean_linker_0, # of connection points: 2
#     Edge 58, Type (0, 0), BuildingBlock: AJUNOK_clean_linker_0, # of connection points: 2
#     Edge 59, Type (0, 0), BuildingBlock: AJUNOK_clean_linker_0, # of connection points: 2
#     Edge 60, Type (0, 0), BuildingBlock: AJUNOK_clean_linker_0, # of connection points: 2
#     Edge 61, Type (0, 0), BuildingBlock: AJUNOK_clean_linker_0, # of connection points: 2
#     Edge 62, Type (0, 0), BuildingBlock: AJUNOK_clean_linker_0, # of connection points: 2
# Relax obj value: 0.035
# Max RMSD: 0.082
# Mean RMSD: 0.082
data_MOF--net-fnd--node1-XOMCOT_clean_sbu_1--edge1-AJUNOK_clean_linker_0
_symmetry_space_group_name_H-M    P1
_symmetry_Int_Tables_number       1
_symmetry_cell_setting            triclinic
loop_
_symmetry_equiv_pos_as_xyz
'x, y, z'
_cell_length_a     62.922951
_cell_length_b     62.959273
_cell_length_c     13.605361
_cell_angle_alpha  89.993876
_cell_angle_beta   90.031561
_cell_angle_gamma 119.99967
loop_
_atom_site_label
_atom_site_type_symbol
_atom_site_fract_x
_atom_site_fract_y
_atom_site_fract_z
_atom_type_partial_charge
C0 C 0.14957 0.28438 0.58445 0.0
C1 C 0.14893 0.28601 0.68532 0.0
N2 N 0.1308 0.26453 0.71958 0.0
N3 N 0.13191 0.26192 0.55502 0.0
C4 C 0.12084 0.25023 0.63955 0.0
H5 H 0.16292 0.29832 0.53637 0.0
Co6 Co 0.12704 0.24978 0.42573 0.0
C7 C 0.07351 0.21026 0.42145 0.0
O8 O 0.07781 0.19685 0.35988 0.0
N9 N 0.12273 0.23762 0.29178 0.0
C10 C 0.12145 0.21533 0.1614 0.0
C11 C 0.12216 0.21679 0.26186 0.0
C12 C 0.12237 0.24842 0.20539 0.0
N13 N 0.12221 0.23554 0.12521 0.0
O14 O 0.12418 0.27774 0.38312 0.0
H15 H 0.12203 0.20298 0.30924 0.0
H16 H 0.12294 0.26577 0.20012 0.0
O17 O 0.09123 0.23077 0.45175 0.0
C18 C 0.1441 0.29499 0.34663 0.0
O19 O 0.16267 0.29124 0.33421 0.0
N20 N 0.13304 0.22471 0.46988 0.0
C21 C 0.15091 0.19343 0.52172 0.0
C22 C 0.12675 0.18734 0.54499 0.0
C23 C 0.11811 0.20328 0.51846 0.0
C24 C 0.15679 0.23124 0.45042 0.0
C25 C 0.16597 0.21579 0.47433 0.0
H26 H 0.09959 0.19831 0.53774 0.0
H27 H 0.16857 0.24851 0.41406 0.0
H28 H 0.10647 0.23125 0.64334 0.0
H29 H 0.16183 0.30117 0.73052 0.0
H30 H 0.12037 0.20033 0.11872 0.0
H31 H 0.11456 0.17028 0.58206 0.0
H32 H 0.18483 0.22139 0.45637 0.0
C33 C 0.77388 0.90178 0.59753 0.0
C34 C 0.77312 0.90314 0.69847 0.0
N35 N 0.78162 0.88914 0.73742 0.0
N36 N 0.78291 0.8871 0.57291 0.0
C37 C 0.78712 0.87937 0.65984 0.0
H38 H 0.76887 0.91146 0.54517 0.0
Co39 Co 0.79017 0.88247 0.44429 0.0
C40 C 0.83078 0.87168 0.47298 0.0
O41 O 0.84398 0.88893 0.40895 0.0
N42 N 0.7967 0.87718 0.31171 0.0
C43 C 0.79976 0.85747 0.1808 0.0
C44 C 0.79955 0.85828 0.2816 0.0
C45 C 0.79418 0.88689 0.22621 0.0
N46 N 0.7963 0.87547 0.14553 0.0
O47 O 0.76025 0.85092 0.44178 0.0
H48 H 0.79981 0.8447 0.32932 0.0
H49 H 0.78844 0.90039 0.2225 0.0
O50 O 0.80905 0.86714 0.49415 0.0
C51 C 0.74311 0.85024 0.38901 0.0
O52 O 0.74763 0.86977 0.3381 0.0
N53 N 0.81794 0.91487 0.44855 0.0
C54 C 0.84821 0.96547 0.48252 0.0
C55 C 0.85081 0.94822 0.53871 0.0
C56 C 0.83526 0.92303 0.52172 0.0
C57 C 0.81555 0.93155 0.39276 0.0
C58 C 0.83085 0.95677 0.40646 0.0
H59 H 0.83593 0.91027 0.57283 0.0
H60 H 0.80021 0.92556 0.34371 0.0
H61 H 0.79504 0.86763 0.66667 0.0
H62 H 0.76696 0.91372 0.73995 0.0
H63 H 0.8013 0.84396 0.13697 0.0
H64 H 0.86354 0.95407 0.59983 0.0
H65 H 0.82805 0.96934 0.36142 0.0
C66 C 0.1435 0.88292 0.53639 0.0
C67 C 0.14498 0.88242 0.63728 0.0
N68 N 0.16091 0.90525 0.66959 0.0
N69 N 0.15825 0.90599 0.50444 0.0
C70 C 0.16918 0.919 0.58674 0.0
H71 H 0.13123 0.86779 0.48977 0.0
Co72 Co 0.15873 0.9169 0.37528 0.0
C73 C 0.16614 0.96669 0.43904 0.0
O74 O 0.14331 0.96044 0.42023 0.0
N75 N 0.15963 0.92777 0.24325 0.0
C76 C 0.1535 0.94448 0.10955 0.0
C77 C 0.15151 0.94266 0.20989 0.0
C78 C 0.16642 0.92074 0.16008 0.0
N79 N 0.16314 0.93088 0.07762 0.0
O80 O 0.19101 0.92068 0.35848 0.0
H81 H 0.1429 0.95042 0.25357 0.0
H82 H 0.17297 0.90784 0.15927 0.0
O83 O 0.1738 0.95154 0.42324 0.0
C84 C 0.189 0.90014 0.33428 0.0
O85 O 0.16693 0.88118 0.32153 0.0
N86 N 0.12541 0.90977 0.39163 0.0
C87 C 0.07438 0.8878 0.42052 0.0
C88 C 0.09098 0.9023 0.494 0.0
C89 C 0.1163 0.91286 0.47863 0.0
C90 C 0.10941 0.89581 0.31931 0.0
C91 C 0.08403 0.88532 0.3311 0.0
H92 H 0.12855 0.92291 0.53838 0.0
H93 H 0.11613 0.89171 0.25307 0.0
H94 H 0.18243 0.93835 0.5856 0.0
H95 H 0.13391 0.86671 0.68354 0.0
H96 H 0.1467 0.95381 0.06356 0.0
H97 H 0.08446 0.90452 0.56478 0.0
H98 H 0.07206 0.87461 0.27146 0.0
C99 C 0.26957 0.14994 0.46924 0.0
C100 C 0.27021 0.15138 0.36817 0.0
N101 N 0.26688 0.13002 0.33213 0.0
N102 N 0.26543 0.12761 0.49672 0.0
C103 C 0.26411 0.11594 0.41149 0.0
H104 H 0.27139 0.16404 0.51964 0.0
Co105 Co 0.26085 0.11626 0.6259 0.0
C106 C 0.22147 0.06431 0.61312 0.0
O107 O 0.211 0.06888 0.68743 0.0
N108 N 0.25717 0.10495 0.7586 0.0
C109 C 0.25912 0.08351 0.88552 0.0
C110 C 0.25841 0.08488 0.78509 0.0
C111 C 0.25806 0.11592 0.8457 0.0
N112 N 0.2593 0.10327 0.92391 0.0
O113 O 0.29129 0.1157 0.61798 0.0
H114 H 0.25985 0.07244 0.73439 0.0
H115 H 0.25968 0.13373 0.85255 0.0
O116 O 0.24173 0.08169 0.57891 0.0
C117 C 0.30858 0.13239 0.66932 0.0
O118 O 0.30398 0.14706 0.72235 0.0
N119 N 0.23243 0.11973 0.63202 0.0
C120 C 0.19942 0.13724 0.61047 0.0
C121 C 0.1968 0.11737 0.55442 0.0
C122 C 0.21359 0.10904 0.56554 0.0
C123 C 0.23532 0.13929 0.6859 0.0
C124 C 0.21876 0.14793 0.67813 0.0
H125 H 0.2125 0.09538 0.51466 0.0
H126 H 0.25188 0.14994 0.72775 0.0
H127 H 0.26043 0.09724 0.40737 0.0
H128 H 0.27284 0.16688 0.32443 0.0
H129 H 0.25989 0.0692 0.92664 0.0
H130 H 0.18261 0.10913 0.49887 0.0
H131 H 0.22226 0.16413 0.71903 0.0
C132 C 0.89026 0.13254 0.47464 0.0
C133 C 0.88895 0.13139 0.37347 0.0
N134 N 0.91159 0.14621 0.33697 0.0
N135 N 0.9136 0.14803 0.50203 0.0
C136 C 0.92606 0.15641 0.41664 0.0
H137 H 0.87538 0.12195 0.52517 0.0
Co138 Co 0.92531 0.15252 0.63091 0.0
C139 C 0.97681 0.16357 0.60483 0.0
O140 O 0.97271 0.14666 0.67062 0.0
N141 N 0.93712 0.1577 0.76329 0.0
C142 C 0.95999 0.17788 0.89352 0.0
C143 C 0.95844 0.17738 0.79282 0.0
C144 C 0.9256 0.14717 0.84908 0.0
N145 N 0.9393 0.15887 0.9289 0.0
O146 O 0.92679 0.18402 0.63454 0.0
H147 H 0.97148 0.19158 0.74472 0.0
H148 H 0.90696 0.13224 0.85437 0.0
O149 O 0.9596 0.16792 0.58165 0.0
C150 C 0.91037 0.18419 0.68929 0.0
O151 O 0.89549 0.16421 0.73821 0.0
N152 N 0.92071 0.1202 0.62606 0.0
C153 C 0.90022 0.06965 0.59089 0.0
C154 C 0.92062 0.08691 0.5372 0.0
C155 C 0.93031 0.11209 0.55459 0.0
C156 C 0.90102 0.10351 0.67915 0.0
C157 C 0.891 0.07831 0.66491 0.0
H158 H 0.94416 0.12489 0.50484 0.0
H159 H 0.89135 0.10959 0.72608 0.0
H160 H 0.94547 0.1695 0.41296 0.0
H161 H 0.87278 0.11973 0.33028 0.0
H162 H 0.97445 0.1921 0.93752 0.0
H163 H 0.92792 0.08109 0.4775 0.0
H164 H 0.87515 0.06572 0.70777 0.0
C165 C 0.88031 0.74737 0.47167 0.0
C166 C 0.8774 0.74566 0.37122 0.0
N167 N 0.8781 0.76619 0.338 0.0
N168 N 0.88288 0.76887 0.50228 0.0
C169 C 0.88153 0.77999 0.41917 0.0
H170 H 0.88153 0.73421 0.51892 0.0
Co171 Co 0.89008 0.78041 0.63132 0.0
C172 C 0.8784 0.82091 0.64159 0.0
O173 O 0.89686 0.83323 0.70193 0.0
N174 N 0.89769 0.79189 0.76531 0.0
C175 C 0.91851 0.80941 0.90281 0.0
C176 C 0.91988 0.8084 0.80256 0.0
C177 C 0.88306 0.78358 0.84627 0.0
N178 N 0.89541 0.79357 0.93112 0.0
O179 O 0.85915 0.75259 0.67217 0.0
H180 H 0.9365 0.81905 0.76106 0.0
H181 H 0.86373 0.77023 0.84325 0.0
O182 O 0.87415 0.80015 0.60821 0.0
C183 C 0.8623 0.73602 0.71238 0.0
O184 O 0.88485 0.74085 0.72938 0.0
N185 N 0.9213 0.805 0.58788 0.0
C186 C 0.96996 0.83279 0.523 0.0
C187 C 0.95318 0.84109 0.50838 0.0
C188 C 0.92873 0.82673 0.54028 0.0
C189 C 0.93727 0.79654 0.6006 0.0
C190 C 0.96166 0.81029 0.57091 0.0
H191 H 0.9159 0.83285 0.52384 0.0
H192 H 0.93096 0.77899 0.63587 0.0
H193 H 0.88381 0.79819 0.41771 0.0
H194 H 0.87641 0.73108 0.32581 0.0
H195 H 0.93379 0.8202 0.95155 0.0
H196 H 0.95873 0.85819 0.47033 0.0
H197 H 0.97395 0.8033 0.58577 0.0
C198 C 0.82385 0.59679 0.94044 0.0
C199 C 0.82565 0.59778 0.04146 0.0
N200 N 0.80393 0.59322 0.07858 0.0
N201 N 0.80099 0.59123 0.91398 0.0
C202 C 0.78932 0.58939 0.99981 0.0
H203 H 0.83807 0.59921 0.88939 0.0
Co204 Co 0.78926 0.58527 0.78491 0.0
C205 C 0.73751 0.54545 0.80691 0.0
O206 O 0.74149 0.53319 0.73813 0.0
N207 N 0.7777 0.58026 0.65226 0.0
C208 C 0.75553 0.58006 0.52365 0.0
C209 C 0.75656 0.5792 0.62415 0.0
C210 C 0.78964 0.58279 0.56599 0.0
N211 N 0.77653 0.5827 0.4868 0.0
O212 O 0.78845 0.61551 0.78668 0.0
H213 H 0.74317 0.57932 0.67345 0.0
H214 H 0.80836 0.5867 0.56072 0.0
O215 O 0.75492 0.56657 0.83363 0.0
C216 C 0.80683 0.63252 0.74128 0.0
O217 O 0.82265 0.62743 0.70033 0.0
N218 N 0.79298 0.55697 0.78448 0.0
C219 C 0.81166 0.52512 0.81426 0.0
C220 C 0.7918 0.52274 0.86984 0.0
C221 C 0.78302 0.53906 0.85505 0.0
C222 C 0.81223 0.55937 0.7298 0.0
C223 C 0.82152 0.54348 0.74215 0.0
H224 H 0.76966 0.53849 0.90631 0.0
H225 H 0.82216 0.57513 0.68316 0.0
H226 H 0.77023 0.58444 1.0049 0.0
H227 H 0.84159 0.60139 0.08443 0.0
H228 H 0.74065 0.57942 0.4814 0.0
H229 H 0.78431 0.5096 0.92936 0.0
H230 H 0.83728 0.54646 0.69927 0.0
C231 C 0.42928 0.21687 0.88041 0.0
C232 C 0.42666 0.21435 0.98075 0.0
N233 N 0.44262 0.20777 1.01549 0.0
N234 N 0.44688 0.21204 0.85145 0.0
C235 C 0.45467 0.20652 0.93529 0.0
H236 H 0.41975 0.22293 0.83192 0.0
Co237 Co 0.4583 0.2163 0.72271 0.0
C238 C 0.49918 0.20487 0.73357 0.0
O239 O 0.51357 0.22461 0.68272 0.0
N240 N 0.46965 0.22102 0.58809 0.0
C241 C 0.49037 0.23881 0.45046 0.0
C242 C 0.49012 0.24046 0.55075 0.0
C243 C 0.45802 0.20765 0.50672 0.0
N244 N 0.47001 0.21831 0.42216 0.0
O245 O 0.43007 0.18488 0.69117 0.0
H246 H 0.50417 0.2555 0.59257 0.0
H247 H 0.44094 0.19048 0.5086 0.0
O248 O 0.47736 0.19995 0.75483 0.0
C249 C 0.41222 0.18662 0.6555 0.0
O250 O 0.41589 0.20844 0.63191 0.0
N251 N 0.48359 0.24804 0.75814 0.0
C252 C 0.51353 0.29716 0.81341 0.0
C253 C 0.51749 0.27873 0.8522 0.0
C254 C 0.50211 0.25417 0.82447 0.0
C255 C 0.47901 0.26565 0.72282 0.0
C256 C 0.49402 0.2903 0.74766 0.0
H257 H 0.50468 0.24017 0.85885 0.0
H258 H 0.46345 0.2604 0.67477 0.0
H259 H 0.46953 0.20257 0.93818 0.0
H260 H 0.41503 0.21866 0.02497 0.0
H261 H 0.50399 0.25237 0.40171 0.0
H262 H 0.53215 0.28322 0.90437 0.0
H263 H 0.48991 0.30381 0.71794 0.0
C264 C 0.80622 0.21467 0.88527 0.0
C265 C 0.80478 0.2126 0.9862 0.0
N266 N 0.81877 0.23511 0.02496 0.0
N267 N 0.82093 0.23837 0.86051 0.0
C268 C 0.82861 0.25036 0.94733 0.0
H269 H 0.79655 0.19996 0.833 0.0
Co270 Co 0.82546 0.25013 0.7318 0.0
C271 C 0.8353 0.30111 0.75564 0.0
O272 O 0.8186 0.29636 0.68789 0.0
N273 N 0.83067 0.2618 0.59916 0.0
C274 C 0.8509 0.28437 0.46869 0.0
C275 C 0.85006 0.28326 0.56941 0.0
C276 C 0.82066 0.2498 0.51354 0.0
N277 N 0.83243 0.26324 0.43308 0.0
O278 O 0.85725 0.25222 0.72961 0.0
H279 H 0.86385 0.29678 0.61753 0.0
H280 H 0.80665 0.23076 0.50959 0.0
O281 O 0.84022 0.28441 0.78086 0.0
C282 C 0.85794 0.23582 0.67658 0.0
O283 O 0.83831 0.22068 0.62632 0.0
N284 N 0.79288 0.245 0.73583 0.0
C285 C 0.7423 0.22382 0.77289 0.0
C286 C 0.7595 0.24423 0.8267 0.0
C287 C 0.78467 0.25429 0.80823 0.0
C288 C 0.77624 0.22542 0.68203 0.0
C289 C 0.75101 0.21505 0.69729 0.0
H290 H 0.79744 0.26813 0.85811 0.0
H291 H 0.78239 0.21607 0.63369 0.0
H292 H 0.84033 0.27001 0.95402 0.0
H293 H 0.79413 0.19589 0.02782 0.0
H294 H 0.86474 0.29924 0.42515 0.0
H295 H 0.75366 0.25124 0.88737 0.0
H296 H 0.73847 0.19927 0.65395 0.0
C297 C 0.93797 0.48506 0.80399 0.0
C298 C 0.93839 0.48706 0.70308 0.0
N299 N 0.93067 0.46468 0.66445 0.0
N300 N 0.92989 0.46151 0.82886 0.0
C301 C 0.92591 0.44957 0.74211 0.0
H302 H 0.94252 0.49968 0.8562 0.0
Co303 Co 0.92319 0.4498 0.95765 0.0
C304 C 0.8832 0.39818 0.9361 0.0
O305 O 0.87119 0.40242 1.00516 0.0
N306 N 0.91724 0.43822 0.0902 0.0
C307 C 0.9164 0.41631 0.22056 0.0
C308 C 0.91662 0.41741 0.11988 0.0
C309 C 0.91835 0.44987 0.17573 0.0
N310 N 0.91763 0.43682 0.25619 0.0
O311 O 0.95346 0.44878 0.95946 0.0
H312 H 0.91781 0.40441 0.07163 0.0
H313 H 0.92204 0.4685 0.17955 0.0
O314 O 0.90441 0.41539 0.9091 0.0
C315 C 0.97012 0.46544 1.01319 0.0
O316 O 0.965 0.48035 0.06176 0.0
N317 N 0.89514 0.45389 0.95444 0.0
C318 C 0.86378 0.47297 0.92061 0.0
C319 C 0.86098 0.45259 0.86777 0.0
C320 C 0.87709 0.44362 0.88445 0.0
C321 C 0.89803 0.47375 1.00602 0.0
C322 C 0.88238 0.48325 0.99173 0.0
H323 H 0.87617 0.42977 0.83513 0.0
H324 H 0.91398 0.48387 0.0517 0.0
H325 H 0.91872 0.43002 0.73551 0.0
H326 H 0.94379 0.50363 0.66134 0.0
H327 H 0.91639 0.40191 0.26406 0.0
H328 H 0.84765 0.44475 0.80896 0.0
H329 H 0.8857 0.49942 0.03241 0.0
C330 C 0.56116 0.48786 0.84595 0.0
C331 C 0.56136 0.4906 0.74565 0.0
N332 N 0.58115 0.49042 0.7085 0.0
N333 N 0.58086 0.4862 0.87316 0.0
C334 C 0.59264 0.48774 0.78788 0.0
H335 H 0.54733 0.48689 0.89574 0.0
Co336 Co 0.58816 0.48196 1.00267 0.0
C337 C 0.6411 0.49485 0.99187 0.0
O338 O 0.6368 0.47632 0.04873 0.0
N339 N 0.59511 0.47743 0.13739 0.0
C340 C 0.59971 0.46045 0.27475 0.0
C341 C 0.59706 0.45844 0.17449 0.0
C342 C 0.59651 0.49058 0.21904 0.0
N343 N 0.59935 0.48065 0.30252 0.0
O344 O 0.59108 0.51339 0.03478 0.0
H345 H 0.59616 0.44346 0.1325 0.0
H346 H 0.59477 0.50676 0.21926 0.0
O347 O 0.62354 0.49861 0.96847 0.0
C348 C 0.57158 0.51146 0.07251 0.0
O349 O 0.55364 0.48954 0.09631 0.0
N350 N 0.582 0.45021 0.9683 0.0
C351 C 0.5637 0.40062 0.92338 0.0
C352 C 0.58647 0.41875 0.88649 0.0
C353 C 0.59531 0.44352 0.90955 0.0
C354 C 0.55944 0.43287 1.00137 0.0
C355 C 0.55012 0.40802 0.98108 0.0
H356 H 0.61252 0.45712 0.87817 0.0
H357 H 0.54863 0.43847 0.04439 0.0
H358 H 0.60884 0.48602 0.78416 0.0
H359 H 0.54774 0.49235 0.70348 0.0
H360 H 0.60039 0.44731 0.32413 0.0
H361 H 0.59728 0.41382 0.83985 0.0
H362 H 0.53211 0.39475 1.00836 0.0
C363 C 0.57644 0.09785 0.76879 0.0
C364 C 0.57756 0.09759 0.66772 0.0
N365 N 0.56252 0.10512 0.631 0.0
N366 N 0.56078 0.1055 0.79584 0.0
C367 C 0.55224 0.10935 0.71046 0.0
H368 H 0.58704 0.0936 0.81953 0.0
Co369 Co 0.55572 0.1119 0.92471 0.0
C370 C 0.54462 0.15227 0.90457 0.0
O371 O 0.56119 0.16421 0.97277 0.0
N372 N 0.54991 0.11748 0.05716 0.0
C373 C 0.52914 0.11927 0.18701 0.0
C374 C 0.5298 0.11838 0.08635 0.0
C375 C 0.56048 0.11661 0.14298 0.0
N376 N 0.54847 0.11816 0.22256 0.0
O377 O 0.52444 0.08184 0.92494 0.0
H378 H 0.51557 0.11704 0.03785 0.0
H379 H 0.57581 0.11351 0.14844 0.0
O380 O 0.54036 0.131 0.87718 0.0
C381 C 0.52626 0.06485 0.96835 0.0
O382 O 0.54746 0.07021 1.00746 0.0
N383 N 0.58799 0.13984 0.92264 0.0
C384 C 0.63852 0.17041 0.88779 0.0
C385 C 0.6211 0.17347 0.83479 0.0
C386 C 0.59596 0.15775 0.85202 0.0
C387 C 0.60482 0.13694 0.97529 0.0
C388 C 0.63002 0.15239 0.96128 0.0
H389 H 0.5831 0.15876 0.80246 0.0
H390 H 0.59889 0.12109 1.02146 0.0
H391 H 0.53887 0.11531 0.70674 0.0
H392 H 0.58924 0.09311 0.6247 0.0
H393 H 0.51472 0.11914 0.23085 0.0
H394 H 0.62677 0.18668 0.77552 0.0
H395 H 0.64272 0.14922 1.00381 0.0
C396 C 0.48083 0.9503 0.24514 0.0
C397 C 0.47911 0.95171 0.3455 0.0
N398 N 0.46024 0.93034 0.37786 0.0
N399 N 0.46315 0.92814 0.21365 0.0
C400 C 0.45092 0.91636 0.29629 0.0
H401 H 0.4948 0.96419 0.19871 0.0
Co402 Co 0.45991 0.9168 0.08422 0.0
C403 C 0.40737 0.87781 0.06323 0.0
O404 O 0.41366 0.86575 1.00216 0.0
N405 N 0.45716 0.90563 0.95054 0.0
C406 C 0.4624 0.88956 0.81287 0.0
C407 C 0.46489 0.89074 0.91309 0.0
C408 C 0.44958 0.91283 0.86987 0.0
N409 N 0.453 0.90367 0.78479 0.0
O410 O 0.45835 0.94533 0.03983 0.0
H411 H 0.4725 0.8815 0.95428 0.0
H412 H 0.44196 0.92484 0.87362 0.0
O413 O 0.42395 0.89793 0.10124 0.0
C414 C 0.47856 0.96108 0.99982 0.0
O415 O 0.49587 0.95538 0.98936 0.0
N416 N 0.46497 0.8913 0.13051 0.0
C417 C 0.48337 0.86136 0.19741 0.0
C418 C 0.45826 0.85384 0.20632 0.0
C419 C 0.44939 0.86911 0.17251 0.0
C420 C 0.48946 0.89932 0.12597 0.0
C421 C 0.49891 0.88455 0.15649 0.0
H422 H 0.43027 0.86329 0.18328 0.0
H423 H 0.50172 0.91726 0.09556 0.0
H424 H 0.43593 0.89761 0.29719 0.0
H425 H 0.49179 0.96676 0.39161 0.0
H426 H 0.46827 0.87992 0.76398 0.0
H427 H 0.44564 0.83665 0.24143 0.0
H428 H 0.51835 0.89134 0.1474 0.0
C429 C 0.10726 0.56998 0.2094 0.0
C430 C 0.10603 0.5712 0.31018 0.0
N431 N 0.11316 0.55618 0.35026 0.0
N432 N 0.11535 0.55446 0.1856 0.0
C433 C 0.11859 0.5462 0.27296 0.0
H434 H 0.10323 0.58033 0.15662 0.0
Co435 Co 0.12167 0.54888 0.05663 0.0
C436 C 0.15996 0.53402 0.0738 0.0
O437 O 0.1716 0.54815 0.9985 0.0
N438 N 0.12703 0.54288 0.9237 0.0
C439 C 0.12637 0.52163 0.79093 0.0
C440 C 0.12597 0.52198 0.89194 0.0
C441 C 0.12702 0.5544 0.83924 0.0
N442 N 0.12679 0.54193 0.758 0.0
O443 O 0.09117 0.51781 0.05693 0.0
H444 H 0.12355 0.50711 0.93908 0.0
H445 H 0.1256 0.57075 0.83608 0.0
O446 O 0.14023 0.53291 0.10573 0.0
C447 C 0.07438 0.5175 1.00287 0.0
O448 O 0.07955 0.53703 0.95061 0.0
N449 N 0.14984 0.58067 0.05744 0.0
C450 C 0.1802 0.63107 0.09333 0.0
C451 C 0.18477 0.61377 0.13927 0.0
C452 C 0.16915 0.58859 0.12149 0.0
C453 C 0.14566 0.5974 1.01072 0.0
C454 C 0.16091 0.62255 0.02535 0.0
H455 H 0.17138 0.57568 0.16616 0.0
H456 H 0.12894 0.59127 0.96958 0.0
H457 H 0.12488 0.53316 0.28012 0.0
H458 H 0.10124 0.58301 0.35056 0.0
H459 H 0.12474 0.50682 0.74514 0.0
H460 H 0.19912 0.61952 0.19399 0.0
H461 H 0.1566 0.63517 0.98839 0.0
C462 C 0.46936 0.54829 0.27551 0.0
C463 C 0.46765 0.54652 0.37641 0.0
N464 N 0.48327 0.5687 0.41446 0.0
N465 N 0.48584 0.57152 0.25014 0.0
C466 C 0.49428 0.58348 0.33655 0.0
H467 H 0.45878 0.53375 0.22362 0.0
Co468 Co 0.49173 0.58297 0.12119 0.0
C469 C 0.50467 0.63514 0.13775 0.0
O470 O 0.4888 0.63113 0.06724 0.0
N471 N 0.4982 0.59429 0.98868 0.0
C472 C 0.52006 0.61567 0.85886 0.0
C473 C 0.51911 0.61443 0.95952 0.0
C474 C 0.4872 0.58314 0.90301 0.0
N475 N 0.50001 0.59591 0.82287 0.0
O476 O 0.52279 0.58347 0.12425 0.0
H477 H 0.53357 0.6269 1.00827 0.0
H478 H 0.47133 0.56505 0.89878 0.0
O479 O 0.50769 0.61753 0.16808 0.0
C480 C 0.52321 0.56683 0.07194 0.0
O481 O 0.50378 0.55223 1.01953 0.0
N482 N 0.45983 0.57947 0.12023 0.0
C483 C 0.40946 0.5616 0.1503 0.0
C484 C 0.42721 0.58235 0.20095 0.0
C485 C 0.45221 0.59061 0.18673 0.0
C486 C 0.44273 0.55934 0.07022 0.0
C487 C 0.41758 0.55043 0.08255 0.0
H488 H 0.46517 0.60476 0.23502 0.0
H489 H 0.44838 0.54858 0.02776 0.0
H490 H 0.50758 0.60282 0.34263 0.0
H491 H 0.45582 0.53022 0.41854 0.0
H492 H 0.53489 0.62965 0.81557 0.0
H493 H 0.42185 0.59148 0.25468 0.0
H494 H 0.4046 0.53384 0.0445 0.0
C495 C 0.60741 0.81838 0.19517 0.0
C496 C 0.60815 0.81973 0.09392 0.0
N497 N 0.60085 0.79719 0.05775 0.0
N498 N 0.59972 0.7951 0.22282 0.0
C499 C 0.59639 0.78275 0.13757 0.0
H500 H 0.61116 0.83316 0.24546 0.0
Co501 Co 0.59209 0.78315 0.35151 0.0
C502 C 0.55142 0.73203 0.31869 0.0
O503 O 0.5378 0.73617 0.3802 0.0
N504 N 0.58528 0.77114 0.4839 0.0
C505 C 0.58082 0.74751 0.61383 0.0
C506 C 0.58138 0.7489 0.51311 0.0
C507 C 0.58835 0.78331 0.57004 0.0
N508 N 0.58516 0.76917 0.64973 0.0
O509 O 0.62215 0.78179 0.35599 0.0
H510 H 0.58077 0.73496 0.46505 0.0
H511 H 0.59451 0.80263 0.57535 0.0
O512 O 0.57347 0.74899 0.30094 0.0
C513 C 0.63902 0.79859 0.4085 0.0
O514 O 0.63424 0.81394 0.45551 0.0
N515 N 0.56388 0.78732 0.34544 0.0
C516 C 0.5318 0.80583 0.31306 0.0
C517 C 0.53205 0.78836 0.24941 0.0
C518 C 0.54809 0.77933 0.26693 0.0
C519 C 0.56387 0.80434 0.40738 0.0
C520 C 0.54757 0.81313 0.39467 0.0
H521 H 0.54904 0.76731 0.21268 0.0
H522 H 0.57788 0.81296 0.46222 0.0
H523 H 0.59028 0.76339 0.13391 0.0
H524 H 0.61257 0.83581 0.05033 0.0
H525 H 0.57906 0.7323 0.65726 0.0
H526 H 0.52124 0.78286 0.18271 0.0
H527 H 0.54842 0.82672 0.44575 0.0
C528 C 0.221 0.80172 0.09794 0.0
C529 C 0.21874 0.80127 0.9971 0.0
N530 N 0.24134 0.81436 0.95774 0.0
N531 N 0.24491 0.81486 0.12238 0.0
C532 C 0.25685 0.82248 0.03545 0.0
H533 H 0.20625 0.79227 0.15022 0.0
Co534 Co 0.25674 0.81817 0.25088 0.0
C535 C 0.3075 0.82757 0.21702 0.0
O536 O 0.30272 0.80918 0.27603 0.0
N537 N 0.26835 0.82224 0.38371 0.0
C538 C 0.29148 0.83955 0.51695 0.0
C539 C 0.29099 0.83906 0.41605 0.0
C540 C 0.25514 0.81375 0.46803 0.0
N541 N 0.26885 0.82377 0.54968 0.0
O542 O 0.25875 0.84984 0.2597 0.0
H543 H 0.30597 0.8518 0.37027 0.0
H544 H 0.23552 0.80164 0.47017 0.0
O545 O 0.29102 0.83348 0.20096 0.0
C546 C 0.24041 0.84833 0.3063 0.0
O547 O 0.22395 0.82692 0.34159 0.0
N548 N 0.25176 0.78556 0.24132 0.0
C549 C 0.23194 0.73506 0.20533 0.0
C550 C 0.25033 0.75263 0.14454 0.0
C551 C 0.25975 0.77772 0.16293 0.0
C552 C 0.2342 0.76856 0.30181 0.0
C553 C 0.2246 0.74342 0.2869 0.0
H554 H 0.27231 0.79072 0.11007 0.0
H555 H 0.22591 0.77415 0.35735 0.0
H556 H 0.2766 0.83324 0.02875 0.0
H557 H 0.20184 0.79105 0.95612 0.0
H558 H 0.30686 0.85182 0.56268 0.0
H559 H 0.25627 0.74706 0.07965 0.0
H560 H 0.21051 0.7306 0.33622 0.0
C561 C 0.24395 0.43222 0.10227 0.0
C562 C 0.24517 0.43128 1.00153 0.0
N563 N 0.22964 0.43787 0.96215 0.0
N564 N 0.22799 0.43967 0.12679 0.0
C565 C 0.21947 0.44289 0.03999 0.0
H566 H 0.25457 0.42842 0.15458 0.0
Co567 Co 0.22209 0.44522 0.25567 0.0
C568 C 0.20765 0.48343 0.24278 0.0
O569 O 0.22249 0.49466 0.31691 0.0
N570 N 0.21561 0.44989 0.38844 0.0
C571 C 0.19379 0.44871 0.51996 0.0
C572 C 0.19435 0.44822 0.4191 0.0
C573 C 0.22718 0.45035 0.47332 0.0
N574 N 0.21435 0.44983 0.55389 0.0
O575 O 0.19122 0.41449 0.2536 0.0
H576 H 0.17947 0.44549 0.3712 0.0
H577 H 0.24395 0.44967 0.47714 0.0
O578 O 0.20594 0.46365 0.20836 0.0
C579 C 0.19219 0.39789 0.30416 0.0
O580 O 0.21261 0.40346 0.35071 0.0
N581 N 0.25377 0.47368 0.25697 0.0
C582 C 0.30415 0.50724 0.23463 0.0
C583 C 0.28649 0.51047 0.18405 0.0
C584 C 0.26145 0.49329 0.19486 0.0
C585 C 0.27076 0.47005 0.30467 0.0
C586 C 0.29587 0.48669 0.29586 0.0
H587 H 0.24856 0.495 0.14793 0.0
H588 H 0.26499 0.45304 0.34314 0.0
H589 H 0.2062 0.44896 0.03373 0.0
H590 H 0.25734 0.42703 0.96086 0.0
H591 H 0.17873 0.44675 0.56503 0.0
H592 H 0.29204 0.52562 0.13344 0.0
H593 H 0.30874 0.48255 0.33175 0.0
C594 C 0.18367 0.15674 0.49229 0.0
C595 C 0.18448 0.14908 0.58875 0.0
C596 C 0.17221 0.17048 0.47114 0.0
C597 C 0.16075 0.17681 0.54523 0.0
H598 H 0.1928 0.15291 0.4332 0.0
H599 H 0.17266 0.17654 0.39625 0.0
S600 S 0.15639 0.15994 0.80863 0.0
N601 N 0.17197 0.148 0.75839 0.0
N602 N 0.15008 0.17346 0.71831 0.0
C603 C 0.16061 0.16848 0.6413 0.0
C604 C 0.17261 0.15478 0.66315 0.0
C605 C 0.89955 0.03004 0.55085 0.0
C606 C 0.88692 0.0431 0.56305 0.0
C607 C 0.88702 1.00495 0.52546 0.0
C608 C 0.86145 0.99207 0.50964 0.0
H609 H 0.91921 0.03922 0.56214 0.0
H610 H 0.89744 0.99563 0.51717 0.0
S611 S 0.81989 0.01784 0.53103 0.0
N612 N 0.84742 0.04123 0.55496 0.0
N613 N 0.82397 0.9943 0.51016 0.0
C614 C 0.84868 1.00497 0.5215 0.0
C615 C 0.86137 0.03038 0.54735 0.0
C616 C 1.01056 0.87225 0.51103 0.0
C617 C 0.99598 0.84714 0.48858 0.0
C618 C 0.03573 0.88538 0.48754 0.0
C619 C 0.04732 0.87398 0.43993 0.0
H620 H 1.00263 0.88167 0.54974 0.0
H621 H 0.04625 0.90458 0.5075 0.0
S622 S 1.017 0.80875 0.36132 0.0
N623 N 0.99474 0.81174 0.41117 0.0
N624 N 0.04193 0.83594 0.37074 0.0
C625 C 0.03276 0.84898 0.41526 0.0
C626 C 1.00718 0.83571 0.43865 0.0
C627 C 0.86668 0.87086 0.54626 0.0
C628 C 0.84168 0.85814 0.52068 0.0
C629 C 0.87812 0.85866 0.58699 0.0
C630 C 0.86523 0.83309 0.60121 0.0
H631 H 0.87754 0.89049 0.53494 0.0
H632 H 0.89744 0.86933 0.60529 0.0
S633 S 0.7994 0.79118 0.54565 0.0
N634 N 0.8042 0.81857 0.51379 0.0
N635 N 0.82598 0.79542 0.58676 0.0
C636 C 0.84021 0.82007 0.57561 0.0
C637 C 0.82836 0.83265 0.53652 0.0
C638 C 0.18415 0.02305 0.59418 0.0
C639 C 0.2088 0.03926 0.56886 0.0
C640 C 0.171 0.99956 0.55331 0.0
C641 C 0.18189 0.99089 0.48625 0.0
H642 H 0.17459 0.02862 0.64495 0.0
H643 H 0.15195 0.98808 0.57434 0.0
S644 S 0.24611 0.02535 0.39719 0.0
N645 N 0.24382 0.0446 0.47311 0.0
N646 N 0.21899 1.00003 0.39753 0.0
C647 C 0.20669 1.00647 0.46188 0.0
C648 C 0.22013 0.03075 0.50259 0.0
C649 C 1.01251 0.1627 0.5303 0.0
C650 C 1.00097 0.1762 0.55461 0.0
C651 C 0.03576 0.17394 0.48629 0.0
C652 C 0.0488 0.19931 0.46721 0.0
H653 H 1.00341 0.14318 0.54489 0.0
H654 H 0.04379 0.16267 0.46882 0.0
S655 S 0.02684 0.243 0.51754 0.0
N656 N 1.00413 0.21627 0.55517 0.0
N657 N 0.0484 0.23765 0.47585 0.0
C658 C 0.03759 0.21312 0.49167 0.0
C659 C 1.0135 0.20149 0.53421 0.0
C660 C 0.86227 0.51101 0.87858 0.0
C661 C 0.84967 0.48546 0.89375 0.0
C662 C 0.84983 0.52344 0.852 0.0
C663 C 0.82417 0.51095 0.8396 0.0
H664 H 0.88204 0.52155 0.88633 0.0
H665 H 0.86045 0.54315 0.84245 0.0
S666 S 0.78244 0.44398 0.86996 0.0
N667 N 0.80995 0.44804 0.89432 0.0
N668 N 0.78657 0.47141 0.84365 0.0
C669 C 0.81128 0.48538 0.85439 0.0
C670 C 0.82401 0.47265 0.88113 0.0
C671 C 0.53875 0.342 0.77223 0.0
C672 C 0.52865 0.32335 0.84385 0.0
C673 C 0.551 0.36694 0.79866 0.0
C674 C 0.55329 0.37421 0.89771 0.0
H675 H 0.53679 0.33726 0.69493 0.0
H676 H 0.5579 0.38061 0.7409 0.0
S677 S 0.53104 0.3327 0.11372 0.0
N678 N 0.52256 0.31399 1.01832 0.0
N679 N 0.54548 0.36075 0.0679 0.0
C680 C 0.54388 0.35577 0.97012 0.0
C681 C 0.53163 0.3304 0.94327 0.0
C682 C 0.70262 0.22244 0.81814 0.0
C683 C 0.71584 0.21012 0.80213 0.0
C684 C 0.67766 0.20959 0.84548 0.0
C685 C 0.66505 0.18397 0.85945 0.0
H686 H 0.71156 0.24213 0.80839 0.0
H687 H 0.66821 0.21982 0.85664 0.0
S688 S 0.69137 0.14311 0.82824 0.0
N689 N 0.71446 0.17083 0.80492 0.0
N690 N 0.66773 0.14678 0.85307 0.0
C691 C 0.67813 0.1715 0.84382 0.0
C692 C 0.70342 0.18452 0.81607 0.0
C693 C 0.53479 0.20268 0.80211 0.0
C694 C 0.50978 0.19047 0.77626 0.0
C695 C 0.54573 0.19003 0.84283 0.0
C696 C 0.53233 0.16451 0.85719 0.0
H697 H 0.546 0.22234 0.79241 0.0
H698 H 0.56497 0.20038 0.86274 0.0
S699 S 0.46644 0.12368 0.79974 0.0
N700 N 0.47186 0.15128 0.76779 0.0
N701 N 0.49274 0.12731 0.84137 0.0
C702 C 0.50742 0.1519 0.83012 0.0
C703 C 0.49605 0.16494 0.79073 0.0
C704 C 0.87277 0.33795 0.82529 0.0
C705 C 0.84749 0.32558 0.80363 0.0
C706 C 0.88455 0.36183 0.86544 0.0
C707 C 0.87127 0.37376 0.8878 0.0
H708 H 0.88358 0.32934 0.80932 0.0
H709 H 0.90403 0.37078 0.88094 0.0
S710 S 0.80469 0.34907 0.84663 0.0
N711 N 0.80969 0.32713 0.80752 0.0
N712 N 0.83152 0.37136 0.8852 0.0
C713 C 0.84598 0.36142 0.86734 0.0
C714 C 0.83417 0.3375 0.82471 0.0
C715 C 0.6783 0.49629 0.92092 0.0
C716 C 0.66553 0.50869 0.9441 0.0
C717 C 0.70151 0.50846 0.87676 0.0
C718 C 0.71328 0.5337 0.8563 0.0
H719 H 0.67015 0.47685 0.93575 0.0
H720 H 0.71044 0.49801 0.85937 0.0
S721 S 0.68795 0.57477 0.90251 0.0
N722 N 0.66628 0.54765 0.94186 0.0
N723 N 0.71048 0.57079 0.86202 0.0
C724 C 0.70093 0.54647 0.87984 0.0
C725 C 0.67689 0.53389 0.92263 0.0
C726 C 0.51711 0.85737 0.2789 0.0
C727 C 0.49398 0.84598 0.23255 0.0
C728 C 0.52879 0.84421 0.30531 0.0
C729 C 0.51779 0.81875 0.28882 0.0
H730 H 0.52659 0.87687 0.29414 0.0
H731 H 0.547 0.85441 0.33668 0.0
S732 S 0.45645 0.77948 0.17602 0.0
N733 N 0.46016 0.80736 0.17313 0.0
N734 N 0.48141 0.78231 0.22852 0.0
C735 C 0.49421 0.80685 0.24579 0.0
C736 C 0.48244 0.82044 0.21701 0.0
C737 C 0.23166 0.69632 0.15242 0.0
C738 C 0.21871 0.7084 0.17859 0.0
C739 C 0.21924 0.67126 0.12632 0.0
C740 C 0.19341 0.65745 0.12381 0.0
H741 H 0.25153 0.70626 0.15279 0.0
H742 H 0.22992 0.66274 0.10649 0.0
S743 S 0.15088 0.68031 0.18579 0.0
N744 N 0.1785 0.70449 0.19878 0.0
N745 N 0.15538 0.65764 0.15283 0.0
C746 C 0.18031 0.66931 0.15044 0.0
C747 C 0.19288 0.69468 0.17691 0.0
C748 C 0.36516 0.54207 0.0982 0.0
C749 C 0.38273 0.55004 0.1741 0.0
C750 C 0.33985 0.52917 0.11855 0.0
C751 C 0.33101 0.52349 0.21572 0.0
H752 H 0.37103 0.54548 1.02217 0.0
H753 H 0.32714 0.5228 0.05734 0.0
S754 S 0.36926 0.54082 0.44149 0.0
N755 N 0.38935 0.55158 0.35076 0.0
N756 N 0.34196 0.52791 0.38887 0.0
C757 C 0.34837 0.53194 0.29242 0.0
C758 C 0.37413 0.54508 0.27173 0.0
C759 C 0.179 0.50739 0.05845 0.0
C760 C 0.16988 0.51923 0.11892 0.0
C761 C 0.19018 0.49475 0.09865 0.0
C762 C 0.19325 0.4941 0.20077 0.0
H763 H 0.17767 0.50808 0.97923 0.0
H764 H 0.19732 0.4863 0.04936 0.0
S765 S 0.17236 0.52172 0.39108 0.0
N766 N 0.16427 0.52887 0.28614 0.0
N767 N 0.18559 0.50565 0.36148 0.0
C768 C 0.18387 0.5055 0.26189 0.0
C769 C 0.17209 0.51791 0.22111 0.0
C770 C 0.51583 0.69578 0.24168 0.0
C771 C 0.54063 0.70771 0.27017 0.0
C772 C 0.50454 0.6724 0.19878 0.0
C773 C 0.51736 0.65963 0.18526 0.0
H774 H 0.50506 0.70469 0.25183 0.0
H775 H 0.48544 0.66409 0.17726 0.0
S776 S 0.58263 0.6826 0.24795 0.0
N777 N 0.57784 0.70515 0.28069 0.0
N778 N 0.55628 0.66067 0.20342 0.0
C779 C 0.54212 0.6712 0.21413 0.0
C780 C 0.55386 0.69539 0.25547 0.0
C781 C 0.36758 0.84012 0.10246 0.0
C782 C 0.38156 0.8659 0.09867 0.0
C783 C 0.34355 0.82805 0.13929 0.0
C784 C 0.33218 0.84117 0.17139 0.0
H785 H 0.37548 0.8291 0.07928 0.0
H786 H 0.3338 0.8082 0.14297 0.0
S787 S 0.36028 0.90884 0.17369 0.0
N788 N 0.38206 0.90419 0.12924 0.0
N789 N 0.33646 0.88136 0.19516 0.0
C790 C 0.3456 0.86691 0.16556 0.0
C791 C 0.37041 0.8793 0.1303 0.0
C792 C 0.14992 0.33497 0.40603 0.0
C793 C 0.1481 0.31983 0.32673 0.0
C794 C 0.16216 0.36064 0.39556 0.0
C795 C 0.17235 0.37196 0.30489 0.0
H796 H 0.14403 0.32716 0.47868 0.0
H797 H 0.1653 0.3718 0.46052 0.0
S798 S 0.16997 0.34024 0.07253 0.0
N799 N 0.15579 0.31783 0.15313 0.0
N800 N 0.1779 0.36594 0.13281 0.0
C801 C 0.16867 0.35689 0.22326 0.0
C802 C 0.15676 0.33083 0.23439 0.0
C803 C 0.67707 0.80892 0.31473 0.0
C804 C 0.66484 0.80419 0.40541 0.0
C805 C 0.70287 0.82202 0.31023 0.0
C806 C 0.71727 0.83019 0.3962 0.0
H807 H 0.66674 0.80457 0.24676 0.0
H808 H 0.71159 0.82723 0.23878 0.0
S809 S 0.69397 0.81965 0.6518 0.0
N810 N 0.66895 0.80678 0.58313 0.0
N811 N 0.71734 0.83051 0.57456 0.0
C812 C 0.70524 0.82353 0.48731 0.0
C813 C 0.67902 0.81076 0.49188 0.0
C814 C 0.22775 0.87307 0.40673 0.0
C815 C 0.23549 0.86893 0.31518 0.0
C816 C 0.21535 0.88638 0.41412 0.0
C817 C 0.21001 0.89583 0.33009 0.0
H818 H 0.22963 0.86435 0.47224 0.0
H819 H 0.2079 0.88728 0.4848 0.0
S820 S 0.22767 0.89154 0.07418 0.0
N821 N 0.23852 0.87695 0.13981 0.0
N822 N 0.2147 0.90148 0.15341 0.0
C823 C 0.21913 0.89331 0.23912 0.0
C824 C 0.23207 0.88003 0.23173 0.0
C825 C 0.37256 0.16119 0.56818 0.0
C826 C 0.38676 0.16578 0.6539 0.0
C827 C 0.34678 0.14736 0.57115 0.0
C828 C 0.33438 0.13834 0.66069 0.0
H829 H 0.38137 0.1698 0.49968 0.0
H830 H 0.33655 0.14583 0.50488 0.0
S831 S 0.36299 0.14375 0.90451 0.0
N832 N 0.38651 0.15833 0.829 0.0
N833 N 0.33811 0.13338 0.83566 0.0
C834 C 0.34837 0.14144 0.74566 0.0
C835 C 0.37459 0.15491 0.74204 0.0
C836 C 0.88619 0.2243 0.59493 0.0
C837 C 0.87824 0.23037 0.68188 0.0
C838 C 0.89948 0.21179 0.59769 0.0
C839 C 0.90466 0.20433 0.68757 0.0
H840 H 0.88063 0.22776 0.5241 0.0
H841 H 0.90362 0.2059 0.52905 0.0
S842 S 0.89001 0.21773 0.93591 0.0
N843 N 0.87865 0.23007 0.8602 0.0
N844 N 0.90279 0.20581 0.86557 0.0
C845 C 0.89836 0.21183 0.77497 0.0
C846 C 0.88536 0.22508 0.77214 0.0
C847 C 0.82895 0.67279 0.82374 0.0
C848 C 0.81348 0.65851 0.74702 0.0
C849 C 0.84315 0.69839 0.81531 0.0
C850 C 0.84201 0.71073 0.73094 0.0
H851 H 0.83182 0.66398 0.88671 0.0
H852 H 0.85651 0.70841 0.87216 0.0
S853 S 0.80304 0.68167 0.51212 0.0
N854 N 0.79697 0.65843 0.58575 0.0
N855 N 0.82287 0.70672 0.57172 0.0
C856 C 0.82513 0.6968 0.65701 0.0
C857 C 0.81109 0.67061 0.66458 0.0
C858 C 0.03454 0.49014 0.91964 0.0
C859 C 0.04845 0.49755 1.00703 0.0
C860 C 1.00873 0.47689 0.92172 0.0
C861 C 0.99599 0.47121 1.01139 0.0
H862 H 0.04366 0.49601 0.84913 0.0
H863 H 0.99878 0.47313 0.85296 0.0
S864 S 1.0237 0.48443 0.26044 0.0
N865 N 0.04751 0.49616 0.1853 0.0
N866 N 0.99908 0.47211 0.18944 0.0
C867 C 1.00967 0.47704 0.09905 0.0
C868 C 0.03592 0.48998 0.09687 0.0
C869 C 0.54449 0.54914 0.16653 0.0
C870 C 0.54284 0.56053 0.08035 0.0
C871 C 0.55615 0.53503 0.16604 0.0
C872 C 0.5671 0.53237 0.08013 0.0
H873 H 0.53469 0.54914 0.23202 0.0
H874 H 0.5551 0.52474 0.23148 0.0
S875 S 0.57014 0.56091 0.8386 0.0
N876 N 0.55457 0.56974 0.90905 0.0
N877 N 0.57753 0.54428 0.90951 0.0
C878 C 0.56754 0.54557 0.9962 0.0
C879 C 0.55508 0.55936 0.99594 0.0
C880 C 0.49091 0.02609 0.03371 0.0
C881 C 0.50773 0.03864 0.95751 0.0
C882 C 0.47917 1.00031 0.04166 0.0
C883 C 0.48449 0.98645 0.97519 0.0
H884 H 0.48824 0.03637 0.09145 0.0
H885 H 0.46767 0.9915 0.10505 0.0
S886 S 0.52574 1.01065 0.75884 0.0
N887 N 0.52743 0.03519 0.81031 0.0
N888 N 0.50631 0.98716 0.82675 0.0
C889 C 0.50008 0.99876 0.89545 0.0
C890 C 0.5115 0.02477 0.88635 0.0
C891 C 0.11608 0.26384 0.88885 0.0
C892 C 0.12783 0.25652 0.82013 0.0
C893 C 0.11422 0.25691 0.98842 0.0
C894 C 0.12428 0.24264 0.02262 0.0
H895 H 0.10831 0.27494 0.86523 0.0
H896 H 0.1047 0.26261 0.03873 0.0
S897 S 0.15957 0.22171 0.87112 0.0
N898 N 0.15086 0.23581 0.79231 0.0
N899 N 0.14848 0.22355 0.97871 0.0
C900 C 0.1367 0.23591 0.9539 0.0
C901 C 0.13821 0.24268 0.8529 0.0
C902 C 0.77882 0.86284 0.87728 0.0
C903 C 0.78523 0.88611 0.84017 0.0
C904 C 0.78227 0.85951 0.97689 0.0
C905 C 0.79255 0.87937 0.04344 0.0
H906 H 0.77077 0.84705 0.82903 0.0
H907 H 0.77655 0.84111 1.00199 0.0
S908 S 0.81453 0.94447 0.98029 0.0
N909 N 0.80346 0.92955 0.87596 0.0
N910 N 0.81043 0.92345 0.06252 0.0
C911 C 0.79939 0.90283 1.00659 0.0
C912 C 0.79564 0.90616 0.90524 0.0
C913 C 0.16132 0.89649 0.84745 0.0
C914 C 0.16477 0.91323 0.77161 0.0
C915 C 0.16186 0.90264 0.94719 0.0
C916 C 0.16598 0.92588 0.97581 0.0
H917 H 0.15759 0.87819 0.82963 0.0
H918 H 0.15801 0.8887 1.00195 0.0
S919 S 0.17908 0.97764 0.80823 0.0
N920 N 0.17394 0.95483 0.73408 0.0
N921 N 0.17644 0.9667 0.92051 0.0
C922 C 0.17099 0.94332 0.90126 0.0
C923 C 0.17007 0.93697 0.79964 0.0
C924 C 0.25019 0.12273 0.06343 0.0
C925 C 0.26185 0.11027 0.02647 0.0
C926 C 0.25199 0.12922 0.16317 0.0
C927 C 0.26536 0.12333 0.22993 0.0
H928 H 0.23927 0.12715 1.01516 0.0
H929 H 0.24252 0.13855 0.18876 0.0
S930 S 0.30169 0.09353 0.1696 0.0
N931 N 0.28917 0.09437 0.06405 0.0
N932 N 0.29183 0.10597 0.25144 0.0
C933 C 0.27747 0.11133 0.19397 0.0
C934 C 0.27591 0.10496 0.09233 0.0
C935 C 0.90886 0.15003 0.0606 0.0
C936 C 0.93215 0.15453 0.03091 0.0
C937 C 0.90233 0.14741 0.16053 0.0
C938 C 0.91879 0.14905 0.23456 0.0
H939 H 0.89587 0.1492 1.00635 0.0
H940 H 0.88439 0.14449 0.18009 0.0
S941 S 0.98108 0.15789 0.19315 0.0
N942 N 0.97111 0.15901 0.08201 0.0
N943 N 0.95876 0.15341 0.26913 0.0
C944 C 0.9419 0.15284 0.20511 0.0
C945 C 0.94859 0.15573 0.10355 0.0
C946 C 0.8952 0.79778 0.20743 0.0
C947 C 0.87925 0.7734 0.23622 0.0
C948 C 0.89922 0.80442 0.10776 0.0
C949 C 0.88752 0.78699 0.03228 0.0
H950 H 0.90559 0.81166 0.26206 0.0
H951 H 0.91227 0.82329 0.08961 0.0
S952 S 0.84125 0.72127 0.06977 0.0
N953 N 0.84941 0.73234 0.18203 0.0
N954 N 0.85746 0.74452 0.99498 0.0
C955 C 0.87032 0.76282 0.06043 0.0
C956 C 0.86616 0.7561 0.16217 0.0
C957 C 0.80466 0.57889 0.24732 0.0
C958 C 0.79737 0.59124 0.18115 0.0
C959 C 0.79806 0.57642 0.34717 0.0
C960 C 0.78404 0.58634 0.38475 0.0
H961 H 0.81513 0.57064 0.22114 0.0
H962 H 0.80354 0.56625 0.39495 0.0
S963 S 0.76341 0.62338 0.24396 0.0
N964 N 0.77718 0.6152 0.1614 0.0
N965 N 0.76528 0.61121 0.34884 0.0
C966 C 0.77742 0.59952 0.31968 0.0
C967 C 0.78394 0.60179 0.21801 0.0
C968 C 0.47956 0.21796 0.24616 0.0
C969 C 0.46202 0.21175 0.32133 0.0
C970 C 0.47297 0.21555 0.14654 0.0
C971 C 0.4485 0.20678 0.11763 0.0
H972 H 0.49875 0.22552 0.26458 0.0
H973 H 0.48737 0.22173 0.092 0.0
S974 S 0.39498 0.18532 0.28439 0.0
N975 N 0.41874 0.1949 0.35904 0.0
N976 N 0.40626 0.18941 0.17206 0.0
C977 C 0.43053 0.19908 0.19174 0.0
C978 C 0.43728 0.20172 0.2934 0.0
C979 C 0.84845 0.26492 0.26485 0.0
C980 C 0.82849 0.25569 0.33091 0.0
C981 C 0.84512 0.25822 0.1652 0.0
C982 C 0.82177 0.24176 0.1276 0.0
H983 H 0.86691 0.27725 0.29035 0.0
H984 H 0.86097 0.26568 0.11732 0.0
S985 S 0.7632 0.21367 0.26614 0.0
N986 N 0.78426 0.23024 0.34888 0.0
N987 N 0.77819 0.21726 0.16222 0.0
C988 C 0.80163 0.23245 0.19211 0.0
C989 C 0.80495 0.23948 0.2935 0.0
C990 C 0.93551 0.44265 0.5241 0.0
C991 C 0.9273 0.45804 0.56183 0.0
C992 C 0.93252 0.43607 0.42437 0.0
C993 C 0.92085 0.4443 0.3584 0.0
H994 H 0.94465 0.43598 0.57194 0.0
H995 H 0.93971 0.42463 0.39877 0.0
S996 S 0.89412 0.48331 0.42357 0.0
N997 N 0.90609 0.48052 0.52748 0.0
N998 N 0.89982 0.46765 0.34066 0.0
C999 C 0.91221 0.45944 0.39596 0.0
C1000 C 0.91556 0.46639 0.49742 0.0
C1001 C 0.56788 0.48172 0.53422 0.0
C1002 C 0.58682 0.49026 0.60511 0.0
C1003 C 0.5724 0.47983 0.43457 0.0
C1004 C 0.59593 0.48615 0.40171 0.0
H1005 H 0.54916 0.47557 0.5559 0.0
H1006 H 0.55721 0.47242 0.38318 0.0
S1007 S 0.65245 0.51162 0.55176 0.0
N1008 N 0.63076 0.50728 0.63106 0.0
N1009 N 0.63863 0.50234 0.44419 0.0
C1010 C 0.61517 0.49526 0.46995 0.0
C1011 C 0.61077 0.49766 0.57148 0.0
C1012 C 0.56121 0.09415 0.45532 0.0
C1013 C 0.55932 0.10899 0.52846 0.0
C1014 C 0.55825 0.09758 0.35526 0.0
C1015 C 0.55311 0.11586 0.32463 0.0
H1016 H 0.56459 0.07948 0.47568 0.0
H1017 H 0.55934 0.08545 0.30166 0.0
S1018 S 0.54889 0.16131 0.48414 0.0
N1019 N 0.55407 0.14413 0.56111 0.0
N1020 N 0.54779 0.14994 0.37367 0.0
C1021 C 0.55166 0.13112 0.39632 0.0
C1022 C 0.55492 0.12785 0.49802 0.0
C1023 C 0.44878 0.89909 0.50837 0.0
C1024 C 0.45452 0.92281 0.47946 0.0
C1025 C 0.44687 0.89262 0.6081 0.0
C1026 C 0.45065 0.90956 0.68356 0.0
H1027 H 0.44695 0.88577 0.45376 0.0
H1028 H 0.44319 0.87435 0.62624 0.0
S1029 S 0.46213 0.97291 0.64535 0.0
N1030 N 0.4608 0.96231 0.5332 0.0
N1031 N 0.4578 0.95048 0.72041 0.0
C1032 C 0.45471 0.93285 0.65518 0.0
C1033 C 0.4566 0.93939 0.55335 0.0
C1034 C 0.13609 0.55008 0.48468 0.0
C1035 C 0.11643 0.5531 0.45362 0.0
C1036 C 0.13955 0.54673 0.58429 0.0
C1037 C 0.12381 0.54689 0.65707 0.0
H1038 H 0.14908 0.55064 0.43147 0.0
H1039 H 0.15472 0.54413 0.60489 0.0
S1040 S 0.06897 0.55309 0.61578 0.0
N1041 N 0.0804 0.55507 0.50464 0.0
N1042 N 0.08748 0.54965 0.69198 0.0
C1043 C 0.10423 0.55014 0.6277 0.0
C1044 C 0.10043 0.55311 0.52604 0.0
C1045 C 0.51493 0.59582 0.6543 0.0
C1046 C 0.49524 0.58875 0.72047 0.0
C1047 C 0.51088 0.58943 0.55446 0.0
C1048 C 0.48701 0.5754 0.51691 0.0
H1049 H 0.5337 0.60614 0.67988 0.0
H1050 H 0.52653 0.59511 0.50645 0.0
S1051 S 0.42909 0.5538 0.65551 0.0
N1052 N 0.45086 0.56817 0.73849 0.0
N1053 N 0.44339 0.55563 0.55138 0.0
C1054 C 0.46715 0.56832 0.58142 0.0
C1055 C 0.47122 0.57508 0.68299 0.0
C1056 C 0.61188 0.80591 0.88156 0.0
C1057 C 0.5966 0.78986 0.95551 0.0
C1058 C 0.60789 0.79927 0.78168 0.0
C1059 C 0.58848 0.7763 0.75198 0.0
H1060 H 0.62725 0.82362 0.90124 0.0
H1061 H 0.62037 0.81197 0.7275 0.0
S1062 S 0.54161 0.72864 0.91466 0.0
N1063 N 0.56008 0.75069 0.9904 0.0
N1064 N 0.55291 0.73818 0.80352 0.0
C1065 C 0.57281 0.7603 0.82478 0.0
C1066 C 0.57677 0.76707 0.92624 0.0
C1067 C 0.27586 0.81898 0.72475 0.0
C1068 C 0.26103 0.82057 0.65104 0.0
C1069 C 0.26936 0.81702 0.82443 0.0
C1070 C 0.24783 0.81677 0.85464 0.0
H1071 H 0.29258 0.8191 0.70487 0.0
H1072 H 0.28116 0.81538 0.87814 0.0
S1073 S 0.204 0.82299 0.691 0.0
N1074 N 0.22464 0.82326 0.6153 0.0
N1075 N 0.21249 0.81985 0.80247 0.0
C1076 C 0.23301 0.81873 0.7816 0.0
C1077 C 0.23959 0.82057 0.67994 0.0
C1078 C 0.21723 0.46195 0.7279 0.0
C1079 C 0.21933 0.44725 0.65519 0.0
C1080 C 0.22065 0.45883 0.82779 0.0
C1081 C 0.22595 0.44062 0.85891 0.0
H1082 H 0.21302 0.47604 0.70702 0.0
H1083 H 0.21934 0.47093 0.88088 0.0
S1084 S 0.23041 0.39547 0.697 0.0
N1085 N 0.22546 0.41293 0.62063 0.0
N1086 N 0.23121 0.40645 0.80804 0.0
C1087 C 0.22754 0.42544 0.78652 0.0
C1088 C 0.22438 0.42889 0.68481 0.0
loop_
_geom_bond_atom_site_label_1
_geom_bond_atom_site_label_2
_geom_bond_distance
_geom_bond_site_symmetry_2
_ccdc_geom_bond_type
C0 C1 1.351 . S
C0 N3 1.368 . S
C0 H5 0.931 . S
C1 C0 1.351 . S
C1 N2 1.373 . S
C1 H29 0.930 . S
N2 C1 1.373 . S
N2 C4 1.340 . S
N3 C0 1.368 . S
N3 C4 1.321 . S
N3 Co6 2.135 . S
C4 N2 1.340 . S
C4 N3 1.321 . S
C4 H28 0.930 . S
H5 C0 0.931 . S
Co6 N3 2.135 . S
Co6 N9 2.121 . S
Co6 O14 2.055 . S
Co6 O17 2.039 . S
Co6 N20 2.140 . S
C7 O8 1.227 . S
C7 O17 1.265 . S
O8 C7 1.227 . S
N9 Co6 2.121 . S
N9 C11 1.375 . S
N9 C12 1.313 . S
C10 C11 1.338 . S
C10 N13 1.377 . S
C10 H30 0.930 . S
C11 N9 1.375 . S
C11 C10 1.338 . S
C11 H15 0.931 . S
C12 N9 1.313 . S
C12 N13 1.344 . S
C12 H16 0.930 . S
N13 C10 1.377 . S
N13 C12 1.344 . S
O14 Co6 2.055 . S
O14 C18 1.253 . S
H15 C11 0.931 . S
H16 C12 0.930 . S
O17 Co6 2.039 . S
O17 C7 1.265 . S
C18 O14 1.253 . S
C18 O19 1.227 . S
O19 C18 1.227 . S
N20 Co6 2.140 . S
N20 C23 1.346 . S
N20 C24 1.345 . S
C21 C22 1.387 . S
C21 C25 1.391 . S
C22 C21 1.387 . S
C22 C23 1.369 . S
C22 H31 0.929 . S
C23 N20 1.346 . S
C23 C22 1.369 . S
C23 H26 0.928 . S
C24 N20 1.345 . S
C24 C25 1.371 . S
C24 H27 0.931 . S
C25 C21 1.391 . S
C25 C24 1.371 . S
C25 H32 0.930 . S
H26 C23 0.928 . S
H27 C24 0.931 . S
H28 C4 0.930 . S
H29 C1 0.930 . S
H30 C10 0.930 . S
H31 C22 0.929 . S
H32 C25 0.930 . S
C33 C34 1.351 . S
C33 N36 1.368 . S
C33 H38 0.931 . S
C34 C33 1.351 . S
C34 N35 1.373 . S
C34 H62 0.930 . S
N35 C34 1.373 . S
N35 C37 1.340 . S
N36 C33 1.368 . S
N36 C37 1.321 . S
N36 Co39 2.135 . S
C37 N35 1.340 . S
C37 N36 1.321 . S
C37 H61 0.930 . S
H38 C33 0.931 . S
Co39 N36 2.135 . S
Co39 N42 2.121 . S
Co39 O47 2.055 . S
Co39 O50 2.039 . S
Co39 N53 2.140 . S
C40 O41 1.227 . S
C40 O50 1.265 . S
O41 C40 1.227 . S
N42 Co39 2.121 . S
N42 C44 1.375 . S
N42 C45 1.313 . S
C43 C44 1.338 . S
C43 N46 1.377 . S
C43 H63 0.930 . S
C44 N42 1.375 . S
C44 C43 1.338 . S
C44 H48 0.931 . S
C45 N42 1.313 . S
C45 N46 1.344 . S
C45 H49 0.930 . S
N46 C43 1.377 . S
N46 C45 1.344 . S
O47 Co39 2.055 . S
O47 C51 1.253 . S
H48 C44 0.931 . S
H49 C45 0.930 . S
O50 Co39 2.039 . S
O50 C40 1.265 . S
C51 O47 1.253 . S
C51 O52 1.227 . S
O52 C51 1.227 . S
N53 Co39 2.140 . S
N53 C56 1.346 . S
N53 C57 1.345 . S
C54 C55 1.387 . S
C54 C58 1.391 . S
C55 C54 1.387 . S
C55 C56 1.369 . S
C55 H64 0.929 . S
C56 N53 1.346 . S
C56 C55 1.369 . S
C56 H59 0.928 . S
C57 N53 1.345 . S
C57 C58 1.371 . S
C57 H60 0.931 . S
C58 C54 1.391 . S
C58 C57 1.371 . S
C58 H65 0.930 . S
H59 C56 0.928 . S
H60 C57 0.931 . S
H61 C37 0.930 . S
H62 C34 0.930 . S
H63 C43 0.930 . S
H64 C55 0.929 . S
H65 C58 0.930 . S
C66 C67 1.351 . S
C66 N69 1.368 . S
C66 H71 0.931 . S
C67 C66 1.351 . S
C67 N68 1.373 . S
C67 H95 0.930 . S
N68 C67 1.373 . S
N68 C70 1.340 . S
N69 C66 1.368 . S
N69 C70 1.321 . S
N69 Co72 2.135 . S
C70 N68 1.340 . S
C70 N69 1.321 . S
C70 H94 0.930 . S
H71 C66 0.931 . S
Co72 N69 2.135 . S
Co72 N75 2.121 . S
Co72 O80 2.055 . S
Co72 O83 2.039 . S
Co72 N86 2.140 . S
C73 O74 1.227 . S
C73 O83 1.265 . S
O74 C73 1.227 . S
N75 Co72 2.121 . S
N75 C77 1.375 . S
N75 C78 1.313 . S
C76 C77 1.338 . S
C76 N79 1.377 . S
C76 H96 0.930 . S
C77 N75 1.375 . S
C77 C76 1.338 . S
C77 H81 0.931 . S
C78 N75 1.313 . S
C78 N79 1.344 . S
C78 H82 0.930 . S
N79 C76 1.377 . S
N79 C78 1.344 . S
O80 Co72 2.055 . S
O80 C84 1.253 . S
H81 C77 0.931 . S
H82 C78 0.930 . S
O83 Co72 2.039 . S
O83 C73 1.265 . S
C84 O80 1.253 . S
C84 O85 1.227 . S
O85 C84 1.227 . S
N86 Co72 2.140 . S
N86 C89 1.346 . S
N86 C90 1.345 . S
C87 C88 1.387 . S
C87 C91 1.391 . S
C88 C87 1.387 . S
C88 C89 1.369 . S
C88 H97 0.929 . S
C89 N86 1.346 . S
C89 C88 1.369 . S
C89 H92 0.928 . S
C90 N86 1.345 . S
C90 C91 1.371 . S
C90 H93 0.931 . S
C91 C87 1.391 . S
C91 C90 1.371 . S
C91 H98 0.930 . S
H92 C89 0.928 . S
H93 C90 0.931 . S
H94 C70 0.930 . S
H95 C67 0.930 . S
H96 C76 0.930 . S
H97 C88 0.929 . S
H98 C91 0.930 . S
C99 C100 1.351 . S
C99 N102 1.368 . S
C99 H104 0.931 . S
C100 C99 1.351 . S
C100 N101 1.373 . S
C100 H128 0.930 . S
N101 C100 1.373 . S
N101 C103 1.340 . S
N102 C99 1.368 . S
N102 C103 1.321 . S
N102 Co105 2.135 . S
C103 N101 1.340 . S
C103 N102 1.321 . S
C103 H127 0.930 . S
H104 C99 0.931 . S
Co105 N102 2.135 . S
Co105 N108 2.121 . S
Co105 O113 2.055 . S
Co105 O116 2.039 . S
Co105 N119 2.140 . S
C106 O107 1.227 . S
C106 O116 1.265 . S
O107 C106 1.227 . S
N108 Co105 2.121 . S
N108 C110 1.375 . S
N108 C111 1.313 . S
C109 C110 1.338 . S
C109 N112 1.377 . S
C109 H129 0.930 . S
C110 N108 1.375 . S
C110 C109 1.338 . S
C110 H114 0.931 . S
C111 N108 1.313 . S
C111 N112 1.344 . S
C111 H115 0.930 . S
N112 C109 1.377 . S
N112 C111 1.344 . S
O113 Co105 2.055 . S
O113 C117 1.253 . S
H114 C110 0.931 . S
H115 C111 0.930 . S
O116 Co105 2.039 . S
O116 C106 1.265 . S
C117 O113 1.253 . S
C117 O118 1.227 . S
O118 C117 1.227 . S
N119 Co105 2.140 . S
N119 C122 1.346 . S
N119 C123 1.345 . S
C120 C121 1.387 . S
C120 C124 1.391 . S
C121 C120 1.387 . S
C121 C122 1.369 . S
C121 H130 0.929 . S
C122 N119 1.346 . S
C122 C121 1.369 . S
C122 H125 0.928 . S
C123 N119 1.345 . S
C123 C124 1.371 . S
C123 H126 0.931 . S
C124 C120 1.391 . S
C124 C123 1.371 . S
C124 H131 0.930 . S
H125 C122 0.928 . S
H126 C123 0.931 . S
H127 C103 0.930 . S
H128 C100 0.930 . S
H129 C109 0.930 . S
H130 C121 0.929 . S
H131 C124 0.930 . S
C132 C133 1.351 . S
C132 N135 1.368 . S
C132 H137 0.931 . S
C133 C132 1.351 . S
C133 N134 1.373 . S
C133 H161 0.930 . S
N134 C133 1.373 . S
N134 C136 1.340 . S
N135 C132 1.368 . S
N135 C136 1.321 . S
N135 Co138 2.135 . S
C136 N134 1.340 . S
C136 N135 1.321 . S
C136 H160 0.930 . S
H137 C132 0.931 . S
Co138 N135 2.135 . S
Co138 N141 2.121 . S
Co138 O146 2.055 . S
Co138 O149 2.039 . S
Co138 N152 2.140 . S
C139 O140 1.227 . S
C139 O149 1.265 . S
O140 C139 1.227 . S
N141 Co138 2.121 . S
N141 C143 1.375 . S
N141 C144 1.313 . S
C142 C143 1.338 . S
C142 N145 1.377 . S
C142 H162 0.930 . S
C143 N141 1.375 . S
C143 C142 1.338 . S
C143 H147 0.931 . S
C144 N141 1.313 . S
C144 N145 1.344 . S
C144 H148 0.930 . S
N145 C142 1.377 . S
N145 C144 1.344 . S
O146 Co138 2.055 . S
O146 C150 1.253 . S
H147 C143 0.931 . S
H148 C144 0.930 . S
O149 Co138 2.039 . S
O149 C139 1.265 . S
C150 O146 1.253 . S
C150 O151 1.227 . S
O151 C150 1.227 . S
N152 Co138 2.140 . S
N152 C155 1.346 . S
N152 C156 1.345 . S
C153 C154 1.387 . S
C153 C157 1.391 . S
C154 C153 1.387 . S
C154 C155 1.369 . S
C154 H163 0.929 . S
C155 N152 1.346 . S
C155 C154 1.369 . S
C155 H158 0.928 . S
C156 N152 1.345 . S
C156 C157 1.371 . S
C156 H159 0.931 . S
C157 C153 1.391 . S
C157 C156 1.371 . S
C157 H164 0.930 . S
H158 C155 0.928 . S
H159 C156 0.931 . S
H160 C136 0.930 . S
H161 C133 0.930 . S
H162 C142 0.930 . S
H163 C154 0.929 . S
H164 C157 0.930 . S
C165 C166 1.351 . S
C165 N168 1.368 . S
C165 H170 0.931 . S
C166 C165 1.351 . S
C166 N167 1.373 . S
C166 H194 0.930 . S
N167 C166 1.373 . S
N167 C169 1.340 . S
N168 C165 1.368 . S
N168 C169 1.321 . S
N168 Co171 2.135 . S
C169 N167 1.340 . S
C169 N168 1.321 . S
C169 H193 0.930 . S
H170 C165 0.931 . S
Co171 N168 2.135 . S
Co171 N174 2.121 . S
Co171 O179 2.055 . S
Co171 O182 2.039 . S
Co171 N185 2.140 . S
C172 O173 1.227 . S
C172 O182 1.265 . S
O173 C172 1.227 . S
N174 Co171 2.121 . S
N174 C176 1.375 . S
N174 C177 1.313 . S
C175 C176 1.338 . S
C175 N178 1.377 . S
C175 H195 0.930 . S
C176 N174 1.375 . S
C176 C175 1.338 . S
C176 H180 0.931 . S
C177 N174 1.313 . S
C177 N178 1.344 . S
C177 H181 0.930 . S
N178 C175 1.377 . S
N178 C177 1.344 . S
O179 Co171 2.055 . S
O179 C183 1.253 . S
H180 C176 0.931 . S
H181 C177 0.930 . S
O182 Co171 2.039 . S
O182 C172 1.265 . S
C183 O179 1.253 . S
C183 O184 1.227 . S
O184 C183 1.227 . S
N185 Co171 2.140 . S
N185 C188 1.346 . S
N185 C189 1.345 . S
C186 C187 1.387 . S
C186 C190 1.391 . S
C187 C186 1.387 . S
C187 C188 1.369 . S
C187 H196 0.929 . S
C188 N185 1.346 . S
C188 C187 1.369 . S
C188 H191 0.928 . S
C189 N185 1.345 . S
C189 C190 1.371 . S
C189 H192 0.931 . S
C190 C186 1.391 . S
C190 C189 1.371 . S
C190 H197 0.930 . S
H191 C188 0.928 . S
H192 C189 0.931 . S
H193 C169 0.930 . S
H194 C166 0.930 . S
H195 C175 0.930 . S
H196 C187 0.929 . S
H197 C190 0.930 . S
C198 C199 1.351 1_556 S
C198 N201 1.368 . S
C198 H203 0.931 . S
C199 C198 1.351 1_554 S
C199 N200 1.373 . S
C199 H227 0.930 . S
N200 C199 1.373 . S
N200 C202 1.340 1_554 S
N201 C198 1.368 . S
N201 C202 1.321 . S
N201 Co204 2.135 . S
C202 N200 1.340 1_556 S
C202 N201 1.321 . S
C202 H226 0.930 . S
H203 C198 0.931 . S
Co204 N201 2.135 . S
Co204 N207 2.121 . S
Co204 O212 2.055 . S
Co204 O215 2.039 . S
Co204 N218 2.140 . S
C205 O206 1.227 . S
C205 O215 1.265 . S
O206 C205 1.227 . S
N207 Co204 2.121 . S
N207 C209 1.375 . S
N207 C210 1.313 . S
C208 C209 1.338 . S
C208 N211 1.377 . S
C208 H228 0.930 . S
C209 N207 1.375 . S
C209 C208 1.338 . S
C209 H213 0.931 . S
C210 N207 1.313 . S
C210 N211 1.344 . S
C210 H214 0.930 . S
N211 C208 1.377 . S
N211 C210 1.344 . S
O212 Co204 2.055 . S
O212 C216 1.253 . S
H213 C209 0.931 . S
H214 C210 0.930 . S
O215 Co204 2.039 . S
O215 C205 1.265 . S
C216 O212 1.253 . S
C216 O217 1.227 . S
O217 C216 1.227 . S
N218 Co204 2.140 . S
N218 C221 1.346 . S
N218 C222 1.345 . S
C219 C220 1.387 . S
C219 C223 1.391 . S
C220 C219 1.387 . S
C220 C221 1.369 . S
C220 H229 0.929 . S
C221 N218 1.346 . S
C221 C220 1.369 . S
C221 H224 0.928 . S
C222 N218 1.345 . S
C222 C223 1.371 . S
C222 H225 0.931 . S
C223 C219 1.391 . S
C223 C222 1.371 . S
C223 H230 0.930 . S
H224 C221 0.928 . S
H225 C222 0.931 . S
H226 C202 0.930 . S
H227 C199 0.930 . S
H228 C208 0.930 . S
H229 C220 0.929 . S
H230 C223 0.930 . S
C231 C232 1.351 1_556 S
C231 N234 1.368 . S
C231 H236 0.931 . S
C232 C231 1.351 1_554 S
C232 N233 1.373 . S
C232 H260 0.930 . S
N233 C232 1.373 . S
N233 C235 1.340 1_554 S
N234 C231 1.368 . S
N234 C235 1.321 . S
N234 Co237 2.135 . S
C235 N233 1.340 1_556 S
C235 N234 1.321 . S
C235 H259 0.930 . S
H236 C231 0.931 . S
Co237 N234 2.135 . S
Co237 N240 2.121 . S
Co237 O245 2.055 . S
Co237 O248 2.039 . S
Co237 N251 2.140 . S
C238 O239 1.227 . S
C238 O248 1.265 . S
O239 C238 1.227 . S
N240 Co237 2.121 . S
N240 C242 1.375 . S
N240 C243 1.313 . S
C241 C242 1.338 . S
C241 N244 1.377 . S
C241 H261 0.930 . S
C242 N240 1.375 . S
C242 C241 1.338 . S
C242 H246 0.931 . S
C243 N240 1.313 . S
C243 N244 1.344 . S
C243 H247 0.930 . S
N244 C241 1.377 . S
N244 C243 1.344 . S
O245 Co237 2.055 . S
O245 C249 1.253 . S
H246 C242 0.931 . S
H247 C243 0.930 . S
O248 Co237 2.039 . S
O248 C238 1.265 . S
C249 O245 1.253 . S
C249 O250 1.227 . S
O250 C249 1.227 . S
N251 Co237 2.140 . S
N251 C254 1.346 . S
N251 C255 1.345 . S
C252 C253 1.387 . S
C252 C256 1.391 . S
C253 C252 1.387 . S
C253 C254 1.369 . S
C253 H262 0.929 . S
C254 N251 1.346 . S
C254 C253 1.369 . S
C254 H257 0.928 . S
C255 N251 1.345 . S
C255 C256 1.371 . S
C255 H258 0.931 . S
C256 C252 1.391 . S
C256 C255 1.371 . S
C256 H263 0.930 . S
H257 C254 0.928 . S
H258 C255 0.931 . S
H259 C235 0.930 . S
H260 C232 0.930 . S
H261 C241 0.930 . S
H262 C253 0.929 . S
H263 C256 0.930 . S
C264 C265 1.351 1_556 S
C264 N267 1.368 . S
C264 H269 0.931 . S
C265 C264 1.351 1_554 S
C265 N266 1.373 . S
C265 H293 0.930 . S
N266 C265 1.373 . S
N266 C268 1.340 1_554 S
N267 C264 1.368 . S
N267 C268 1.321 . S
N267 Co270 2.135 . S
C268 N266 1.340 1_556 S
C268 N267 1.321 . S
C268 H292 0.930 . S
H269 C264 0.931 . S
Co270 N267 2.135 . S
Co270 N273 2.121 . S
Co270 O278 2.055 . S
Co270 O281 2.039 . S
Co270 N284 2.140 . S
C271 O272 1.227 . S
C271 O281 1.265 . S
O272 C271 1.227 . S
N273 Co270 2.121 . S
N273 C275 1.375 . S
N273 C276 1.313 . S
C274 C275 1.338 . S
C274 N277 1.377 . S
C274 H294 0.930 . S
C275 N273 1.375 . S
C275 C274 1.338 . S
C275 H279 0.931 . S
C276 N273 1.313 . S
C276 N277 1.344 . S
C276 H280 0.930 . S
N277 C274 1.377 . S
N277 C276 1.344 . S
O278 Co270 2.055 . S
O278 C282 1.253 . S
H279 C275 0.931 . S
H280 C276 0.930 . S
O281 Co270 2.039 . S
O281 C271 1.265 . S
C282 O278 1.253 . S
C282 O283 1.227 . S
O283 C282 1.227 . S
N284 Co270 2.140 . S
N284 C287 1.346 . S
N284 C288 1.345 . S
C285 C286 1.387 . S
C285 C289 1.391 . S
C286 C285 1.387 . S
C286 C287 1.369 . S
C286 H295 0.929 . S
C287 N284 1.346 . S
C287 C286 1.369 . S
C287 H290 0.928 . S
C288 N284 1.345 . S
C288 C289 1.371 . S
C288 H291 0.931 . S
C289 C285 1.391 . S
C289 C288 1.371 . S
C289 H296 0.930 . S
H290 C287 0.928 . S
H291 C288 0.931 . S
H292 C268 0.930 . S
H293 C265 0.930 . S
H294 C274 0.930 . S
H295 C286 0.929 . S
H296 C289 0.930 . S
C297 C298 1.351 . S
C297 N300 1.368 . S
C297 H302 0.931 . S
C298 C297 1.351 . S
C298 N299 1.373 . S
C298 H326 0.930 . S
N299 C298 1.373 . S
N299 C301 1.340 . S
N300 C297 1.368 . S
N300 C301 1.321 . S
N300 Co303 2.135 . S
C301 N299 1.340 . S
C301 N300 1.321 . S
C301 H325 0.930 . S
H302 C297 0.931 . S
Co303 N300 2.135 . S
Co303 N306 2.121 1_556 S
Co303 O311 2.055 . S
Co303 O314 2.039 . S
Co303 N317 2.140 . S
C304 O305 1.227 . S
C304 O314 1.265 . S
O305 C304 1.227 . S
N306 Co303 2.121 1_554 S
N306 C308 1.375 . S
N306 C309 1.313 . S
C307 C308 1.338 . S
C307 N310 1.377 . S
C307 H327 0.930 . S
C308 N306 1.375 . S
C308 C307 1.338 . S
C308 H312 0.931 . S
C309 N306 1.313 . S
C309 N310 1.344 . S
C309 H313 0.930 . S
N310 C307 1.377 . S
N310 C309 1.344 . S
O311 Co303 2.055 . S
O311 C315 1.253 . S
H312 C308 0.931 . S
H313 C309 0.930 . S
O314 Co303 2.039 . S
O314 C304 1.265 . S
C315 O311 1.253 . S
C315 O316 1.227 . S
O316 C315 1.227 . S
N317 Co303 2.140 . S
N317 C320 1.346 . S
N317 C321 1.345 . S
C318 C319 1.387 . S
C318 C322 1.391 . S
C319 C318 1.387 . S
C319 C320 1.369 . S
C319 H328 0.929 . S
C320 N317 1.346 . S
C320 C319 1.369 . S
C320 H323 0.928 . S
C321 N317 1.345 . S
C321 C322 1.371 . S
C321 H324 0.928 1_556 S
C322 C318 1.391 . S
C322 C321 1.371 . S
C322 H329 0.930 . S
H323 C320 0.928 . S
H324 C321 0.928 1_554 S
H325 C301 0.930 . S
H326 C298 0.930 . S
H327 C307 0.930 . S
H328 C319 0.929 . S
H329 C322 0.930 . S
C330 C331 1.351 . S
C330 N333 1.368 . S
C330 H335 0.931 . S
C331 C330 1.351 . S
C331 N332 1.373 . S
C331 H359 0.930 . S
N332 C331 1.373 . S
N332 C334 1.340 . S
N333 C330 1.368 . S
N333 C334 1.321 . S
N333 Co336 2.135 . S
C334 N332 1.340 . S
C334 N333 1.321 . S
C334 H358 0.930 . S
H335 C330 0.931 . S
Co336 N333 2.135 . S
Co336 N339 2.121 1_556 S
Co336 O344 2.055 . S
Co336 O347 2.039 . S
Co336 N350 2.140 . S
C337 O338 1.227 . S
C337 O347 1.265 . S
O338 C337 1.227 . S
N339 Co336 2.121 1_554 S
N339 C341 1.375 . S
N339 C342 1.313 . S
C340 C341 1.338 . S
C340 N343 1.377 . S
C340 H360 0.930 . S
C341 N339 1.375 . S
C341 C340 1.338 . S
C341 H345 0.931 . S
C342 N339 1.313 . S
C342 N343 1.344 . S
C342 H346 0.930 . S
N343 C340 1.377 . S
N343 C342 1.344 . S
O344 Co336 2.055 . S
O344 C348 1.253 . S
H345 C341 0.931 . S
H346 C342 0.930 . S
O347 Co336 2.039 . S
O347 C337 1.265 . S
C348 O344 1.253 . S
C348 O349 1.227 . S
O349 C348 1.227 . S
N350 Co336 2.140 . S
N350 C353 1.346 . S
N350 C354 1.345 . S
C351 C352 1.387 . S
C351 C355 1.391 . S
C352 C351 1.387 . S
C352 C353 1.369 . S
C352 H361 0.929 . S
C353 N350 1.346 . S
C353 C352 1.369 . S
C353 H356 0.928 . S
C354 N350 1.345 . S
C354 C355 1.371 . S
C354 H357 0.930 1_556 S
C355 C351 1.391 . S
C355 C354 1.371 . S
C355 H362 0.930 . S
H356 C353 0.928 . S
H357 C354 0.930 1_554 S
H358 C334 0.930 . S
H359 C331 0.930 . S
H360 C340 0.930 . S
H361 C352 0.929 . S
H362 C355 0.930 . S
C363 C364 1.351 . S
C363 N366 1.368 . S
C363 H368 0.931 . S
C364 C363 1.351 . S
C364 N365 1.373 . S
C364 H392 0.930 . S
N365 C364 1.373 . S
N365 C367 1.340 . S
N366 C363 1.368 . S
N366 C367 1.321 . S
N366 Co369 2.135 . S
C367 N365 1.340 . S
C367 N366 1.321 . S
C367 H391 0.930 . S
H368 C363 0.931 . S
Co369 N366 2.135 . S
Co369 N372 2.121 1_556 S
Co369 O377 2.055 . S
Co369 O380 2.039 . S
Co369 N383 2.140 . S
C370 O371 1.227 . S
C370 O380 1.265 . S
O371 C370 1.227 . S
N372 Co369 2.121 1_554 S
N372 C374 1.375 . S
N372 C375 1.313 . S
C373 C374 1.338 . S
C373 N376 1.377 . S
C373 H393 0.930 . S
C374 N372 1.375 . S
C374 C373 1.338 . S
C374 H378 0.931 . S
C375 N372 1.313 . S
C375 N376 1.344 . S
C375 H379 0.930 . S
N376 C373 1.377 . S
N376 C375 1.344 . S
O377 Co369 2.055 . S
O377 C381 1.253 . S
H378 C374 0.931 . S
H379 C375 0.930 . S
O380 Co369 2.039 . S
O380 C370 1.265 . S
C381 O377 1.253 . S
C381 O382 1.227 . S
O382 C381 1.227 . S
N383 Co369 2.140 . S
N383 C386 1.346 . S
N383 C387 1.345 . S
C384 C385 1.387 . S
C384 C388 1.391 . S
C385 C384 1.387 . S
C385 C386 1.369 . S
C385 H394 0.929 . S
C386 N383 1.346 . S
C386 C385 1.369 . S
C386 H389 0.928 . S
C387 N383 1.345 . S
C387 C388 1.371 . S
C387 H390 0.930 1_556 S
C388 C384 1.391 . S
C388 C387 1.371 . S
C388 H395 0.930 . S
H389 C386 0.928 . S
H390 C387 0.930 1_554 S
H391 C367 0.930 . S
H392 C364 0.930 . S
H393 C373 0.930 . S
H394 C385 0.929 . S
H395 C388 0.930 . S
C396 C397 1.351 . S
C396 N399 1.368 . S
C396 H401 0.931 . S
C397 C396 1.351 . S
C397 N398 1.373 . S
C397 H425 0.930 . S
N398 C397 1.373 . S
N398 C400 1.340 . S
N399 C396 1.368 . S
N399 C400 1.321 . S
N399 Co402 2.135 . S
C400 N398 1.340 . S
C400 N399 1.321 . S
C400 H424 0.930 . S
H401 C396 0.931 . S
Co402 N399 2.135 . S
Co402 N405 2.121 1_554 S
Co402 O410 2.055 . S
Co402 O413 2.039 . S
Co402 N416 2.140 . S
C403 O404 1.227 . S
C403 O413 1.265 . S
O404 C403 1.227 . S
N405 Co402 2.121 1_556 S
N405 C407 1.375 . S
N405 C408 1.313 . S
C406 C407 1.338 . S
C406 N409 1.377 . S
C406 H426 0.930 . S
C407 N405 1.375 . S
C407 C406 1.338 . S
C407 H411 0.931 . S
C408 N405 1.313 . S
C408 N409 1.344 . S
C408 H412 0.930 . S
N409 C406 1.377 . S
N409 C408 1.344 . S
O410 Co402 2.055 . S
O410 C414 1.253 . S
H411 C407 0.931 . S
H412 C408 0.930 . S
O413 Co402 2.039 . S
O413 C403 1.265 . S
C414 O410 1.253 . S
C414 O415 1.227 . S
O415 C414 1.227 . S
N416 Co402 2.140 . S
N416 C419 1.346 . S
N416 C420 1.345 . S
C417 C418 1.387 . S
C417 C421 1.391 . S
C418 C417 1.387 . S
C418 C419 1.369 . S
C418 H427 0.929 . S
C419 N416 1.346 . S
C419 C418 1.369 . S
C419 H422 0.928 . S
C420 N416 1.345 . S
C420 C421 1.371 . S
C420 H423 0.928 1_554 S
C421 C417 1.391 . S
C421 C420 1.371 . S
C421 H428 0.930 . S
H422 C419 0.928 . S
H423 C420 0.928 1_556 S
H424 C400 0.930 . S
H425 C397 0.930 . S
H426 C406 0.930 . S
H427 C418 0.929 . S
H428 C421 0.930 . S
C429 C430 1.351 . S
C429 N432 1.368 . S
C429 H434 0.931 . S
C430 C429 1.351 . S
C430 N431 1.373 . S
C430 H458 0.930 . S
N431 C430 1.373 . S
N431 C433 1.340 . S
N432 C429 1.368 . S
N432 C433 1.321 . S
N432 Co435 2.135 . S
C433 N431 1.340 . S
C433 N432 1.321 . S
C433 H457 0.930 . S
H434 C429 0.931 . S
Co435 N432 2.135 . S
Co435 N438 2.121 1_554 S
Co435 O443 2.055 . S
Co435 O446 2.039 . S
Co435 N449 2.140 . S
C436 O437 1.227 . S
C436 O446 1.265 . S
O437 C436 1.227 . S
N438 Co435 2.121 1_556 S
N438 C440 1.375 . S
N438 C441 1.313 . S
C439 C440 1.338 . S
C439 N442 1.377 . S
C439 H459 0.930 . S
C440 N438 1.375 . S
C440 C439 1.338 . S
C440 H444 0.931 . S
C441 N438 1.313 . S
C441 N442 1.344 . S
C441 H445 0.930 . S
N442 C439 1.377 . S
N442 C441 1.344 . S
O443 Co435 2.055 . S
O443 C447 1.253 . S
H444 C440 0.931 . S
H445 C441 0.930 . S
O446 Co435 2.039 . S
O446 C436 1.265 . S
C447 O443 1.253 . S
C447 O448 1.227 . S
O448 C447 1.227 . S
N449 Co435 2.140 . S
N449 C452 1.346 . S
N449 C453 1.345 . S
C450 C451 1.387 . S
C450 C454 1.391 . S
C451 C450 1.387 . S
C451 C452 1.369 . S
C451 H460 0.929 . S
C452 N449 1.346 . S
C452 C451 1.369 . S
C452 H455 0.928 . S
C453 N449 1.345 . S
C453 C454 1.371 . S
C453 H456 0.930 1_554 S
C454 C450 1.391 . S
C454 C453 1.371 . S
C454 H461 0.930 . S
H455 C452 0.928 . S
H456 C453 0.930 1_556 S
H457 C433 0.930 . S
H458 C430 0.930 . S
H459 C439 0.930 . S
H460 C451 0.929 . S
H461 C454 0.930 . S
C462 C463 1.351 . S
C462 N465 1.368 . S
C462 H467 0.931 . S
C463 C462 1.351 . S
C463 N464 1.373 . S
C463 H491 0.930 . S
N464 C463 1.373 . S
N464 C466 1.340 . S
N465 C462 1.368 . S
N465 C466 1.321 . S
N465 Co468 2.135 . S
C466 N464 1.340 . S
C466 N465 1.321 . S
C466 H490 0.930 . S
H467 C462 0.931 . S
Co468 N465 2.135 . S
Co468 N471 2.121 1_554 S
Co468 O476 2.055 . S
Co468 O479 2.039 . S
Co468 N482 2.140 . S
C469 O470 1.227 . S
C469 O479 1.265 . S
O470 C469 1.227 . S
N471 Co468 2.121 1_556 S
N471 C473 1.375 . S
N471 C474 1.313 . S
C472 C473 1.338 . S
C472 N475 1.377 . S
C472 H492 0.930 . S
C473 N471 1.375 . S
C473 C472 1.338 . S
C473 H477 0.931 . S
C474 N471 1.313 . S
C474 N475 1.344 . S
C474 H478 0.930 . S
N475 C472 1.377 . S
N475 C474 1.344 . S
O476 Co468 2.055 . S
O476 C480 1.253 . S
H477 C473 0.931 . S
H478 C474 0.930 . S
O479 Co468 2.039 . S
O479 C469 1.265 . S
C480 O476 1.253 . S
C480 O481 1.227 . S
O481 C480 1.227 . S
N482 Co468 2.140 . S
N482 C485 1.346 . S
N482 C486 1.345 . S
C483 C484 1.387 . S
C483 C487 1.391 . S
C484 C483 1.387 . S
C484 C485 1.369 . S
C484 H493 0.929 . S
C485 N482 1.346 . S
C485 C484 1.369 . S
C485 H488 0.928 . S
C486 N482 1.345 . S
C486 C487 1.371 . S
C486 H489 0.930 1_554 S
C487 C483 1.391 . S
C487 C486 1.371 . S
C487 H494 0.930 . S
H488 C485 0.928 . S
H489 C486 0.930 1_556 S
H490 C466 0.930 . S
H491 C463 0.930 . S
H492 C472 0.930 . S
H493 C484 0.929 . S
H494 C487 0.930 . S
C495 C496 1.351 1_554 S
C495 N498 1.368 . S
C495 H500 0.931 . S
C496 C495 1.351 1_556 S
C496 N497 1.373 . S
C496 H524 0.930 . S
N497 C496 1.373 . S
N497 C499 1.340 1_556 S
N498 C495 1.368 . S
N498 C499 1.321 . S
N498 Co501 2.135 . S
C499 N497 1.340 1_554 S
C499 N498 1.321 . S
C499 H523 0.930 . S
H500 C495 0.931 . S
Co501 N498 2.135 . S
Co501 N504 2.121 . S
Co501 O509 2.055 . S
Co501 O512 2.039 . S
Co501 N515 2.140 . S
C502 O503 1.227 . S
C502 O512 1.265 . S
O503 C502 1.227 . S
N504 Co501 2.121 . S
N504 C506 1.375 . S
N504 C507 1.313 . S
C505 C506 1.338 . S
C505 N508 1.377 . S
C505 H525 0.930 . S
C506 N504 1.375 . S
C506 C505 1.338 . S
C506 H510 0.931 . S
C507 N504 1.313 . S
C507 N508 1.344 . S
C507 H511 0.930 . S
N508 C505 1.377 . S
N508 C507 1.344 . S
O509 Co501 2.055 . S
O509 C513 1.253 . S
H510 C506 0.931 . S
H511 C507 0.930 . S
O512 Co501 2.039 . S
O512 C502 1.265 . S
C513 O509 1.253 . S
C513 O514 1.227 . S
O514 C513 1.227 . S
N515 Co501 2.140 . S
N515 C518 1.346 . S
N515 C519 1.345 . S
C516 C517 1.387 . S
C516 C520 1.391 . S
C517 C516 1.387 . S
C517 C518 1.369 . S
C517 H526 0.929 . S
C518 N515 1.346 . S
C518 C517 1.369 . S
C518 H521 0.928 . S
C519 N515 1.345 . S
C519 C520 1.371 . S
C519 H522 0.931 . S
C520 C516 1.391 . S
C520 C519 1.371 . S
C520 H527 0.930 . S
H521 C518 0.928 . S
H522 C519 0.931 . S
H523 C499 0.930 . S
H524 C496 0.930 . S
H525 C505 0.930 . S
H526 C517 0.929 . S
H527 C520 0.930 . S
C528 C529 1.351 1_554 S
C528 N531 1.368 . S
C528 H533 0.931 . S
C529 C528 1.351 1_556 S
C529 N530 1.373 . S
C529 H557 0.930 . S
N530 C529 1.373 . S
N530 C532 1.340 1_556 S
N531 C528 1.368 . S
N531 C532 1.321 . S
N531 Co534 2.135 . S
C532 N530 1.340 1_554 S
C532 N531 1.321 . S
C532 H556 0.930 . S
H533 C528 0.931 . S
Co534 N531 2.135 . S
Co534 N537 2.121 . S
Co534 O542 2.055 . S
Co534 O545 2.039 . S
Co534 N548 2.140 . S
C535 O536 1.227 . S
C535 O545 1.265 . S
O536 C535 1.227 . S
N537 Co534 2.121 . S
N537 C539 1.375 . S
N537 C540 1.313 . S
C538 C539 1.338 . S
C538 N541 1.377 . S
C538 H558 0.930 . S
C539 N537 1.375 . S
C539 C538 1.338 . S
C539 H543 0.931 . S
C540 N537 1.313 . S
C540 N541 1.344 . S
C540 H544 0.930 . S
N541 C538 1.377 . S
N541 C540 1.344 . S
O542 Co534 2.055 . S
O542 C546 1.253 . S
H543 C539 0.931 . S
H544 C540 0.930 . S
O545 Co534 2.039 . S
O545 C535 1.265 . S
C546 O542 1.253 . S
C546 O547 1.227 . S
O547 C546 1.227 . S
N548 Co534 2.140 . S
N548 C551 1.346 . S
N548 C552 1.345 . S
C549 C550 1.387 . S
C549 C553 1.391 . S
C550 C549 1.387 . S
C550 C551 1.369 . S
C550 H559 0.929 . S
C551 N548 1.346 . S
C551 C550 1.369 . S
C551 H554 0.928 . S
C552 N548 1.345 . S
C552 C553 1.371 . S
C552 H555 0.931 . S
C553 C549 1.391 . S
C553 C552 1.371 . S
C553 H560 0.930 . S
H554 C551 0.928 . S
H555 C552 0.931 . S
H556 C532 0.930 . S
H557 C529 0.930 . S
H558 C538 0.930 . S
H559 C550 0.929 . S
H560 C553 0.930 . S
C561 C562 1.351 1_554 S
C561 N564 1.368 . S
C561 H566 0.931 . S
C562 C561 1.351 1_556 S
C562 N563 1.373 . S
C562 H590 0.930 . S
N563 C562 1.373 . S
N563 C565 1.340 1_556 S
N564 C561 1.368 . S
N564 C565 1.321 . S
N564 Co567 2.135 . S
C565 N563 1.340 1_554 S
C565 N564 1.321 . S
C565 H589 0.930 . S
H566 C561 0.931 . S
Co567 N564 2.135 . S
Co567 N570 2.121 . S
Co567 O575 2.055 . S
Co567 O578 2.039 . S
Co567 N581 2.140 . S
C568 O569 1.227 . S
C568 O578 1.265 . S
O569 C568 1.227 . S
N570 Co567 2.121 . S
N570 C572 1.375 . S
N570 C573 1.313 . S
C571 C572 1.338 . S
C571 N574 1.377 . S
C571 H591 0.930 . S
C572 N570 1.375 . S
C572 C571 1.338 . S
C572 H576 0.931 . S
C573 N570 1.313 . S
C573 N574 1.344 . S
C573 H577 0.930 . S
N574 C571 1.377 . S
N574 C573 1.344 . S
O575 Co567 2.055 . S
O575 C579 1.253 . S
H576 C572 0.931 . S
H577 C573 0.930 . S
O578 Co567 2.039 . S
O578 C568 1.265 . S
C579 O575 1.253 . S
C579 O580 1.227 . S
O580 C579 1.227 . S
N581 Co567 2.140 . S
N581 C584 1.346 . S
N581 C585 1.345 . S
C582 C583 1.387 . S
C582 C586 1.391 . S
C583 C582 1.387 . S
C583 C584 1.369 . S
C583 H592 0.929 . S
C584 N581 1.346 . S
C584 C583 1.369 . S
C584 H587 0.928 . S
C585 N581 1.345 . S
C585 C586 1.371 . S
C585 H588 0.931 . S
C586 C582 1.391 . S
C586 C585 1.371 . S
C586 H593 0.930 . S
H587 C584 0.928 . S
H588 C585 0.931 . S
H589 C565 0.930 . S
H590 C562 0.930 . S
H591 C571 0.930 . S
H592 C583 0.929 . S
H593 C586 0.930 . S
C594 C595 1.369 . S
C594 C596 1.419 . S
C594 H598 0.930 . S
C595 C594 1.369 . S
C595 C604 1.429 . S
C596 C594 1.419 . S
C596 C597 1.363 . S
C596 H599 0.929 . S
C597 C596 1.363 . S
C597 C603 1.428 . S
H598 C594 0.930 . S
H599 C596 0.929 . S
S600 N601 1.613 . S
S600 N602 1.610 . S
N601 S600 1.613 . S
N601 C604 1.350 . S
N602 S600 1.610 . S
N602 C603 1.351 . S
C603 C597 1.428 . S
C603 N602 1.351 . S
C603 C604 1.434 . S
C604 C595 1.429 . S
C604 N601 1.350 . S
C604 C603 1.434 . S
C605 C606 1.369 . S
C605 C607 1.419 1_545 S
C605 H609 0.930 . S
C606 C605 1.369 . S
C606 C615 1.429 . S
C607 C605 1.419 1_565 S
C607 C608 1.363 . S
C607 H610 0.929 . S
C608 C607 1.363 . S
C608 C614 1.428 . S
H609 C605 0.930 . S
H610 C607 0.929 . S
S611 N612 1.613 1_565 S
S611 N613 1.610 . S
N612 S611 1.613 1_545 S
N612 C615 1.350 . S
N613 S611 1.610 . S
N613 C614 1.351 . S
C614 C608 1.428 . S
C614 N613 1.351 . S
C614 C615 1.434 1_565 S
C615 C606 1.429 . S
C615 N612 1.350 . S
C615 C614 1.434 1_545 S
C616 C617 1.369 . S
C616 C618 1.419 1_655 S
C616 H620 0.930 . S
C617 C616 1.369 . S
C617 C626 1.429 . S
C618 C616 1.419 1_455 S
C618 C619 1.363 . S
C618 H621 0.929 . S
C619 C618 1.363 . S
C619 C625 1.428 . S
H620 C616 0.930 . S
H621 C618 0.929 . S
S622 N623 1.613 . S
S622 N624 1.610 1_655 S
N623 S622 1.613 . S
N623 C626 1.350 . S
N624 S622 1.610 1_455 S
N624 C625 1.351 . S
C625 C619 1.428 . S
C625 N624 1.351 . S
C625 C626 1.434 1_455 S
C626 C617 1.429 . S
C626 N623 1.350 . S
C626 C625 1.434 1_655 S
C627 C628 1.369 . S
C627 C629 1.419 . S
C627 H631 0.930 . S
C628 C627 1.369 . S
C628 C637 1.429 . S
C629 C627 1.419 . S
C629 C630 1.363 . S
C629 H632 0.929 . S
C630 C629 1.363 . S
C630 C636 1.428 . S
H631 C627 0.930 . S
H632 C629 0.929 . S
S633 N634 1.613 . S
S633 N635 1.610 . S
N634 S633 1.613 . S
N634 C637 1.350 . S
N635 S633 1.610 . S
N635 C636 1.351 . S
C636 C630 1.428 . S
C636 N635 1.351 . S
C636 C637 1.434 . S
C637 C628 1.429 . S
C637 N634 1.350 . S
C637 C636 1.434 . S
C638 C639 1.369 . S
C638 C640 1.419 1_545 S
C638 H642 0.930 . S
C639 C638 1.369 . S
C639 C648 1.429 . S
C640 C638 1.419 1_565 S
C640 C641 1.363 . S
C640 H643 0.929 . S
C641 C640 1.363 . S
C641 C647 1.428 . S
H642 C638 0.930 . S
H643 C640 0.929 . S
S644 N645 1.613 . S
S644 N646 1.610 1_545 S
N645 S644 1.613 . S
N645 C648 1.350 . S
N646 S644 1.610 1_565 S
N646 C647 1.351 . S
C647 C641 1.428 . S
C647 N646 1.351 . S
C647 C648 1.434 1_565 S
C648 C639 1.429 . S
C648 N645 1.350 . S
C648 C647 1.434 1_545 S
C649 C650 1.369 . S
C649 C651 1.419 1_655 S
C649 H653 0.930 . S
C650 C649 1.369 . S
C650 C659 1.429 . S
C651 C649 1.419 1_455 S
C651 C652 1.363 . S
C651 H654 0.929 . S
C652 C651 1.363 . S
C652 C658 1.428 . S
H653 C649 0.930 . S
H654 C651 0.929 . S
S655 N656 1.613 1_455 S
S655 N657 1.610 . S
N656 S655 1.613 1_655 S
N656 C659 1.350 . S
N657 S655 1.610 . S
N657 C658 1.351 . S
C658 C652 1.428 . S
C658 N657 1.351 . S
C658 C659 1.434 1_455 S
C659 C650 1.429 . S
C659 N656 1.350 . S
C659 C658 1.434 1_655 S
C660 C661 1.369 . S
C660 C662 1.419 . S
C660 H664 0.930 . S
C661 C660 1.369 . S
C661 C670 1.429 . S
C662 C660 1.419 . S
C662 C663 1.363 . S
C662 H665 0.929 . S
C663 C662 1.363 . S
C663 C669 1.428 . S
H664 C660 0.930 . S
H665 C662 0.929 . S
S666 N667 1.613 1_554 S
S666 N668 1.610 1_554 S
N667 S666 1.613 1_556 S
N667 C670 1.350 . S
N668 S666 1.610 1_556 S
N668 C669 1.351 . S
C669 C663 1.428 . S
C669 N668 1.351 . S
C669 C670 1.434 . S
C670 C661 1.429 . S
C670 N667 1.350 . S
C670 C669 1.434 . S
C671 C672 1.369 . S
C671 C673 1.419 . S
C671 H675 0.930 . S
C672 C671 1.369 . S
C672 C681 1.429 . S
C673 C671 1.419 . S
C673 C674 1.363 . S
C673 H676 0.929 . S
C674 C673 1.363 . S
C674 C680 1.428 . S
H675 C671 0.930 . S
H676 C673 0.929 . S
S677 N678 1.613 1_554 S
S677 N679 1.610 . S
N678 S677 1.613 1_556 S
N678 C681 1.350 . S
N679 S677 1.610 . S
N679 C680 1.351 1_554 S
C680 C674 1.428 . S
C680 N679 1.351 1_556 S
C680 C681 1.434 . S
C681 C672 1.429 . S
C681 N678 1.350 . S
C681 C680 1.434 . S
C682 C683 1.369 . S
C682 C684 1.419 . S
C682 H686 0.930 . S
C683 C682 1.369 . S
C683 C692 1.429 . S
C684 C682 1.419 . S
C684 C685 1.363 . S
C684 H687 0.929 . S
C685 C684 1.363 . S
C685 C691 1.428 . S
H686 C682 0.930 . S
H687 C684 0.929 . S
S688 N689 1.613 . S
S688 N690 1.610 . S
N689 S688 1.613 . S
N689 C692 1.350 . S
N690 S688 1.610 . S
N690 C691 1.351 . S
C691 C685 1.428 . S
C691 N690 1.351 . S
C691 C692 1.434 . S
C692 C683 1.429 . S
C692 N689 1.350 . S
C692 C691 1.434 . S
C693 C694 1.369 . S
C693 C695 1.419 . S
C693 H697 0.930 . S
C694 C693 1.369 . S
C694 C703 1.429 . S
C695 C693 1.419 . S
C695 C696 1.363 . S
C695 H698 0.929 . S
C696 C695 1.363 . S
C696 C702 1.428 . S
H697 C693 0.930 . S
H698 C695 0.929 . S
S699 N700 1.613 . S
S699 N701 1.610 . S
N700 S699 1.613 . S
N700 C703 1.350 . S
N701 S699 1.610 . S
N701 C702 1.351 . S
C702 C696 1.428 . S
C702 N701 1.351 . S
C702 C703 1.434 . S
C703 C694 1.429 . S
C703 N700 1.350 . S
C703 C702 1.434 . S
C704 C705 1.369 . S
C704 C706 1.419 . S
C704 H708 0.930 . S
C705 C704 1.369 . S
C705 C714 1.429 . S
C706 C704 1.419 . S
C706 C707 1.363 . S
C706 H709 0.929 . S
C707 C706 1.363 . S
C707 C713 1.428 . S
H708 C704 0.930 . S
H709 C706 0.929 . S
S710 N711 1.613 . S
S710 N712 1.610 . S
N711 S710 1.613 . S
N711 C714 1.350 . S
N712 S710 1.610 . S
N712 C713 1.351 . S
C713 C707 1.428 . S
C713 N712 1.351 . S
C713 C714 1.434 . S
C714 C705 1.429 . S
C714 N711 1.350 . S
C714 C713 1.434 . S
C715 C716 1.369 . S
C715 C717 1.419 . S
C715 H719 0.930 . S
C716 C715 1.369 . S
C716 C725 1.429 . S
C717 C715 1.419 . S
C717 C718 1.363 . S
C717 H720 0.929 . S
C718 C717 1.363 . S
C718 C724 1.428 . S
H719 C715 0.930 . S
H720 C717 0.929 . S
S721 N722 1.613 . S
S721 N723 1.610 . S
N722 S721 1.613 . S
N722 C725 1.350 . S
N723 S721 1.610 . S
N723 C724 1.351 . S
C724 C718 1.428 . S
C724 N723 1.351 . S
C724 C725 1.434 . S
C725 C716 1.429 . S
C725 N722 1.350 . S
C725 C724 1.434 . S
C726 C727 1.369 . S
C726 C728 1.419 . S
C726 H730 0.930 . S
C727 C726 1.369 . S
C727 C736 1.429 . S
C728 C726 1.419 . S
C728 C729 1.363 . S
C728 H731 0.929 . S
C729 C728 1.363 . S
C729 C735 1.428 . S
H730 C726 0.930 . S
H731 C728 0.929 . S
S732 N733 1.613 . S
S732 N734 1.610 . S
N733 S732 1.613 . S
N733 C736 1.350 . S
N734 S732 1.610 . S
N734 C735 1.351 . S
C735 C729 1.428 . S
C735 N734 1.351 . S
C735 C736 1.434 . S
C736 C727 1.429 . S
C736 N733 1.350 . S
C736 C735 1.434 . S
C737 C738 1.369 . S
C737 C739 1.419 . S
C737 H741 0.930 . S
C738 C737 1.369 . S
C738 C747 1.429 . S
C739 C737 1.419 . S
C739 C740 1.363 . S
C739 H742 0.929 . S
C740 C739 1.363 . S
C740 C746 1.428 . S
H741 C737 0.930 . S
H742 C739 0.929 . S
S743 N744 1.613 . S
S743 N745 1.610 . S
N744 S743 1.613 . S
N744 C747 1.350 . S
N745 S743 1.610 . S
N745 C746 1.351 . S
C746 C740 1.428 . S
C746 N745 1.351 . S
C746 C747 1.434 . S
C747 C738 1.429 . S
C747 N744 1.350 . S
C747 C746 1.434 . S
C748 C749 1.369 . S
C748 C750 1.419 . S
C748 H752 0.930 . S
C749 C748 1.369 . S
C749 C758 1.429 . S
C750 C748 1.419 . S
C750 C751 1.363 . S
C750 H753 0.929 . S
C751 C750 1.363 . S
C751 C757 1.428 . S
H752 C748 0.930 . S
H753 C750 0.929 . S
S754 N755 1.613 . S
S754 N756 1.610 . S
N755 S754 1.613 . S
N755 C758 1.350 . S
N756 S754 1.610 . S
N756 C757 1.351 . S
C757 C751 1.428 . S
C757 N756 1.351 . S
C757 C758 1.434 . S
C758 C749 1.429 . S
C758 N755 1.350 . S
C758 C757 1.434 . S
C759 C760 1.369 . S
C759 C761 1.419 . S
C759 H763 0.930 . S
C760 C759 1.369 . S
C760 C769 1.429 . S
C761 C759 1.419 . S
C761 C762 1.363 . S
C761 H764 0.929 . S
C762 C761 1.363 . S
C762 C768 1.428 . S
H763 C759 0.930 . S
H764 C761 0.929 . S
S765 N766 1.613 . S
S765 N767 1.610 . S
N766 S765 1.613 . S
N766 C769 1.350 . S
N767 S765 1.610 . S
N767 C768 1.351 . S
C768 C762 1.428 . S
C768 N767 1.351 . S
C768 C769 1.434 . S
C769 C760 1.429 . S
C769 N766 1.350 . S
C769 C768 1.434 . S
C770 C771 1.369 . S
C770 C772 1.419 . S
C770 H774 0.930 . S
C771 C770 1.369 . S
C771 C780 1.429 . S
C772 C770 1.419 . S
C772 C773 1.363 . S
C772 H775 0.929 . S
C773 C772 1.363 . S
C773 C779 1.428 . S
H774 C770 0.930 . S
H775 C772 0.929 . S
S776 N777 1.613 1_556 S
S776 N778 1.610 1_556 S
N777 S776 1.613 1_554 S
N777 C780 1.350 . S
N778 S776 1.610 1_554 S
N778 C779 1.351 . S
C779 C773 1.428 . S
C779 N778 1.351 . S
C779 C780 1.434 . S
C780 C771 1.429 . S
C780 N777 1.350 . S
C780 C779 1.434 . S
C781 C782 1.369 . S
C781 C783 1.419 . S
C781 H785 0.930 . S
C782 C781 1.369 . S
C782 C791 1.429 . S
C783 C781 1.419 . S
C783 C784 1.363 . S
C783 H786 0.929 . S
C784 C783 1.363 . S
C784 C790 1.428 . S
H785 C781 0.930 . S
H786 C783 0.929 . S
S787 N788 1.613 . S
S787 N789 1.610 . S
N788 S787 1.613 . S
N788 C791 1.350 . S
N789 S787 1.610 . S
N789 C790 1.351 . S
C790 C784 1.428 . S
C790 N789 1.351 . S
C790 C791 1.434 . S
C791 C782 1.429 . S
C791 N788 1.350 . S
C791 C790 1.434 . S
C792 C793 1.369 . S
C792 C794 1.419 . S
C792 H796 0.930 . S
C793 C792 1.369 . S
C793 C802 1.429 . S
C794 C792 1.419 . S
C794 C795 1.363 . S
C794 H797 0.929 . S
C795 C794 1.363 . S
C795 C801 1.428 . S
H796 C792 0.930 . S
H797 C794 0.929 . S
S798 N799 1.613 . S
S798 N800 1.610 . S
N799 S798 1.613 . S
N799 C802 1.350 . S
N800 S798 1.610 . S
N800 C801 1.351 . S
C801 C795 1.428 . S
C801 N800 1.351 . S
C801 C802 1.434 . S
C802 C793 1.429 . S
C802 N799 1.350 . S
C802 C801 1.434 . S
C803 C804 1.369 . S
C803 C805 1.419 . S
C803 H807 0.930 . S
C804 C803 1.369 . S
C804 C813 1.429 . S
C805 C803 1.419 . S
C805 C806 1.363 . S
C805 H808 0.929 . S
C806 C805 1.363 . S
C806 C812 1.428 . S
H807 C803 0.930 . S
H808 C805 0.929 . S
S809 N810 1.613 . S
S809 N811 1.610 . S
N810 S809 1.613 . S
N810 C813 1.350 . S
N811 S809 1.610 . S
N811 C812 1.351 . S
C812 C806 1.428 . S
C812 N811 1.351 . S
C812 C813 1.434 . S
C813 C804 1.429 . S
C813 N810 1.350 . S
C813 C812 1.434 . S
C814 C815 1.369 . S
C814 C816 1.419 . S
C814 H818 0.930 . S
C815 C814 1.369 . S
C815 C824 1.429 . S
C816 C814 1.419 . S
C816 C817 1.363 . S
C816 H819 0.929 . S
C817 C816 1.363 . S
C817 C823 1.428 . S
H818 C814 0.930 . S
H819 C816 0.929 . S
S820 N821 1.613 . S
S820 N822 1.610 . S
N821 S820 1.613 . S
N821 C824 1.350 . S
N822 S820 1.610 . S
N822 C823 1.351 . S
C823 C817 1.428 . S
C823 N822 1.351 . S
C823 C824 1.434 . S
C824 C815 1.429 . S
C824 N821 1.350 . S
C824 C823 1.434 . S
C825 C826 1.369 . S
C825 C827 1.419 . S
C825 H829 0.930 . S
C826 C825 1.369 . S
C826 C835 1.429 . S
C827 C825 1.419 . S
C827 C828 1.363 . S
C827 H830 0.929 . S
C828 C827 1.363 . S
C828 C834 1.428 . S
H829 C825 0.930 . S
H830 C827 0.929 . S
S831 N832 1.613 . S
S831 N833 1.610 . S
N832 S831 1.613 . S
N832 C835 1.350 . S
N833 S831 1.610 . S
N833 C834 1.351 . S
C834 C828 1.428 . S
C834 N833 1.351 . S
C834 C835 1.434 . S
C835 C826 1.429 . S
C835 N832 1.350 . S
C835 C834 1.434 . S
C836 C837 1.369 . S
C836 C838 1.419 . S
C836 H840 0.930 . S
C837 C836 1.369 . S
C837 C846 1.429 . S
C838 C836 1.419 . S
C838 C839 1.363 . S
C838 H841 0.929 . S
C839 C838 1.363 . S
C839 C845 1.428 . S
H840 C836 0.930 . S
H841 C838 0.929 . S
S842 N843 1.613 . S
S842 N844 1.610 . S
N843 S842 1.613 . S
N843 C846 1.350 . S
N844 S842 1.610 . S
N844 C845 1.351 . S
C845 C839 1.428 . S
C845 N844 1.351 . S
C845 C846 1.434 . S
C846 C837 1.429 . S
C846 N843 1.350 . S
C846 C845 1.434 . S
C847 C848 1.369 . S
C847 C849 1.419 . S
C847 H851 0.930 . S
C848 C847 1.369 . S
C848 C857 1.429 . S
C849 C847 1.419 . S
C849 C850 1.363 . S
C849 H852 0.929 . S
C850 C849 1.363 . S
C850 C856 1.428 . S
H851 C847 0.930 . S
H852 C849 0.929 . S
S853 N854 1.613 . S
S853 N855 1.610 . S
N854 S853 1.613 . S
N854 C857 1.350 . S
N855 S853 1.610 . S
N855 C856 1.351 . S
C856 C850 1.428 . S
C856 N855 1.351 . S
C856 C857 1.434 . S
C857 C848 1.429 . S
C857 N854 1.350 . S
C857 C856 1.434 . S
C858 C859 1.369 1_556 S
C858 C860 1.419 1_455 S
C858 H862 0.930 . S
C859 C858 1.369 1_554 S
C859 C868 1.429 . S
C860 C858 1.419 1_655 S
C860 C861 1.363 . S
C860 H863 0.929 . S
C861 C860 1.363 . S
C861 C867 1.428 1_556 S
H862 C858 0.930 . S
H863 C860 0.929 . S
S864 N865 1.613 1_655 S
S864 N866 1.610 . S
N865 S864 1.613 1_455 S
N865 C868 1.350 . S
N866 S864 1.610 . S
N866 C867 1.351 . S
C867 C861 1.428 1_554 S
C867 N866 1.351 . S
C867 C868 1.434 1_655 S
C868 C859 1.429 . S
C868 N865 1.350 . S
C868 C867 1.434 1_455 S
C869 C870 1.369 . S
C869 C871 1.419 . S
C869 H873 0.930 . S
C870 C869 1.369 . S
C870 C879 1.429 1_554 S
C871 C869 1.419 . S
C871 C872 1.363 1_554 S
C871 H874 0.929 . S
C872 C871 1.363 1_556 S
C872 C878 1.428 . S
H873 C869 0.930 . S
H874 C871 0.929 . S
S875 N876 1.613 . S
S875 N877 1.610 . S
N876 S875 1.613 . S
N876 C879 1.350 . S
N877 S875 1.610 . S
N877 C878 1.351 . S
C878 C872 1.428 . S
C878 N877 1.351 . S
C878 C879 1.434 . S
C879 C870 1.429 1_556 S
C879 N876 1.350 . S
C879 C878 1.434 . S
C880 C881 1.369 . S
C880 C882 1.419 1_546 S
C880 H884 0.930 . S
C881 C880 1.369 . S
C881 C890 1.429 . S
C882 C880 1.419 1_564 S
C882 C883 1.363 . S
C882 H885 0.929 . S
C883 C882 1.363 . S
C883 C889 1.428 . S
H884 C880 0.930 . S
H885 C882 0.929 . S
S886 N887 1.613 1_565 S
S886 N888 1.610 1_556 S
N887 S886 1.613 1_545 S
N887 C890 1.350 . S
N888 S886 1.610 1_554 S
N888 C889 1.351 . S
C889 C883 1.428 . S
C889 N888 1.351 . S
C889 C890 1.434 1_564 S
C890 C881 1.429 . S
C890 N887 1.350 . S
C890 C889 1.434 1_546 S
C891 C892 1.369 . S
C891 C893 1.419 . S
C891 H895 0.930 . S
C892 C891 1.369 . S
C892 C901 1.429 . S
C893 C891 1.419 . S
C893 C894 1.363 1_556 S
C893 H896 0.929 1_556 S
C894 C893 1.363 1_554 S
C894 C900 1.428 1_554 S
H895 C891 0.930 . S
H896 C893 0.929 1_554 S
S897 N898 1.613 . S
S897 N899 1.610 1_556 S
N898 S897 1.613 . S
N898 C901 1.350 . S
N899 S897 1.610 1_554 S
N899 C900 1.351 1_554 S
C900 C894 1.428 1_556 S
C900 N899 1.351 1_556 S
C900 C901 1.434 . S
C901 C892 1.429 . S
C901 N898 1.350 . S
C901 C900 1.434 . S
C902 C903 1.369 . S
C902 C904 1.419 . S
C902 H906 0.930 . S
C903 C902 1.369 . S
C903 C912 1.429 . S
C904 C902 1.419 . S
C904 C905 1.363 1_556 S
C904 H907 0.929 1_556 S
C905 C904 1.363 1_554 S
C905 C911 1.428 1_554 S
H906 C902 0.930 . S
H907 C904 0.929 1_554 S
S908 N909 1.613 . S
S908 N910 1.610 1_556 S
N909 S908 1.613 . S
N909 C912 1.350 . S
N910 S908 1.610 1_554 S
N910 C911 1.351 1_554 S
C911 C905 1.428 1_556 S
C911 N910 1.351 1_556 S
C911 C912 1.434 . S
C912 C903 1.429 . S
C912 N909 1.350 . S
C912 C911 1.434 . S
C913 C914 1.369 . S
C913 C915 1.419 . S
C913 H917 0.930 . S
C914 C913 1.369 . S
C914 C923 1.429 . S
C915 C913 1.419 . S
C915 C916 1.363 1_556 S
C915 H918 0.929 1_556 S
C916 C915 1.363 1_554 S
C916 C922 1.428 1_554 S
H917 C913 0.930 . S
H918 C915 0.929 1_554 S
S919 N920 1.613 . S
S919 N921 1.610 1_556 S
N920 S919 1.613 . S
N920 C923 1.350 . S
N921 S919 1.610 1_554 S
N921 C922 1.351 1_554 S
C922 C916 1.428 1_556 S
C922 N921 1.351 1_556 S
C922 C923 1.434 . S
C923 C914 1.429 . S
C923 N920 1.350 . S
C923 C922 1.434 . S
C924 C925 1.369 1_554 S
C924 C926 1.419 . S
C924 H928 0.930 1_554 S
C925 C924 1.369 1_556 S
C925 C934 1.429 1_556 S
C926 C924 1.419 . S
C926 C927 1.363 . S
C926 H929 0.929 . S
C927 C926 1.363 . S
C927 C933 1.428 . S
H928 C924 0.930 1_556 S
H929 C926 0.929 . S
S930 N931 1.613 1_554 S
S930 N932 1.610 . S
N931 S930 1.613 1_556 S
N931 C934 1.350 1_556 S
N932 S930 1.610 . S
N932 C933 1.351 . S
C933 C927 1.428 . S
C933 N932 1.351 . S
C933 C934 1.434 . S
C934 C925 1.429 1_554 S
C934 N931 1.350 1_554 S
C934 C933 1.434 . S
C935 C936 1.369 1_554 S
C935 C937 1.419 . S
C935 H939 0.930 1_554 S
C936 C935 1.369 1_556 S
C936 C945 1.429 1_556 S
C937 C935 1.419 . S
C937 C938 1.363 . S
C937 H940 0.929 . S
C938 C937 1.363 . S
C938 C944 1.428 . S
H939 C935 0.930 1_556 S
H940 C937 0.929 . S
S941 N942 1.613 1_554 S
S941 N943 1.610 . S
N942 S941 1.613 1_556 S
N942 C945 1.350 1_556 S
N943 S941 1.610 . S
N943 C944 1.351 . S
C944 C938 1.428 . S
C944 N943 1.351 . S
C944 C945 1.434 . S
C945 C936 1.429 1_554 S
C945 N942 1.350 1_554 S
C945 C944 1.434 . S
C946 C947 1.369 . S
C946 C948 1.419 . S
C946 H950 0.930 . S
C947 C946 1.369 . S
C947 C956 1.429 . S
C948 C946 1.419 . S
C948 C949 1.363 1_554 S
C948 H951 0.929 1_554 S
C949 C948 1.363 1_556 S
C949 C955 1.428 1_556 S
H950 C946 0.930 . S
H951 C948 0.929 1_556 S
S952 N953 1.613 . S
S952 N954 1.610 1_554 S
N953 S952 1.613 . S
N953 C956 1.350 . S
N954 S952 1.610 1_556 S
N954 C955 1.351 1_556 S
C955 C949 1.428 1_554 S
C955 N954 1.351 1_554 S
C955 C956 1.434 . S
C956 C947 1.429 . S
C956 N953 1.350 . S
C956 C955 1.434 . S
C957 C958 1.369 . S
C957 C959 1.419 . S
C957 H961 0.930 . S
C958 C957 1.369 . S
C958 C967 1.429 . S
C959 C957 1.419 . S
C959 C960 1.363 . S
C959 H962 0.929 . S
C960 C959 1.363 . S
C960 C966 1.428 . S
H961 C957 0.930 . S
H962 C959 0.929 . S
S963 N964 1.613 . S
S963 N965 1.610 . S
N964 S963 1.613 . S
N964 C967 1.350 . S
N965 S963 1.610 . S
N965 C966 1.351 . S
C966 C960 1.428 . S
C966 N965 1.351 . S
C966 C967 1.434 . S
C967 C958 1.429 . S
C967 N964 1.350 . S
C967 C966 1.434 . S
C968 C969 1.369 . S
C968 C970 1.419 . S
C968 H972 0.930 . S
C969 C968 1.369 . S
C969 C978 1.429 . S
C970 C968 1.419 . S
C970 C971 1.363 . S
C970 H973 0.929 . S
C971 C970 1.363 . S
C971 C977 1.428 . S
H972 C968 0.930 . S
H973 C970 0.929 . S
S974 N975 1.613 . S
S974 N976 1.610 . S
N975 S974 1.613 . S
N975 C978 1.350 . S
N976 S974 1.610 . S
N976 C977 1.351 . S
C977 C971 1.428 . S
C977 N976 1.351 . S
C977 C978 1.434 . S
C978 C969 1.429 . S
C978 N975 1.350 . S
C978 C977 1.434 . S
C979 C980 1.369 . S
C979 C981 1.419 . S
C979 H983 0.930 . S
C980 C979 1.369 . S
C980 C989 1.429 . S
C981 C979 1.419 . S
C981 C982 1.363 . S
C981 H984 0.929 . S
C982 C981 1.363 . S
C982 C988 1.428 . S
H983 C979 0.930 . S
H984 C981 0.929 . S
S985 N986 1.613 . S
S985 N987 1.610 . S
N986 S985 1.613 . S
N986 C989 1.350 . S
N987 S985 1.610 . S
N987 C988 1.351 . S
C988 C982 1.428 . S
C988 N987 1.351 . S
C988 C989 1.434 . S
C989 C980 1.429 . S
C989 N986 1.350 . S
C989 C988 1.434 . S
C990 C991 1.369 . S
C990 C992 1.419 . S
C990 H994 0.930 . S
C991 C990 1.369 . S
C991 C1000 1.429 . S
C992 C990 1.419 . S
C992 C993 1.363 . S
C992 H995 0.929 . S
C993 C992 1.363 . S
C993 C999 1.428 . S
H994 C990 0.930 . S
H995 C992 0.929 . S
S996 N997 1.613 . S
S996 N998 1.610 . S
N997 S996 1.613 . S
N997 C1000 1.350 . S
N998 S996 1.610 . S
N998 C999 1.351 . S
C999 C993 1.428 . S
C999 N998 1.351 . S
C999 C1000 1.434 . S
C1000 C991 1.429 . S
C1000 N997 1.350 . S
C1000 C999 1.434 . S
C1001 C1002 1.369 . S
C1001 C1003 1.419 . S
C1001 H1005 0.930 . S
C1002 C1001 1.369 . S
C1002 C1011 1.429 . S
C1003 C1001 1.419 . S
C1003 C1004 1.363 . S
C1003 H1006 0.929 . S
C1004 C1003 1.363 . S
C1004 C1010 1.428 . S
H1005 C1001 0.930 . S
H1006 C1003 0.929 . S
S1007 N1008 1.613 . S
S1007 N1009 1.610 . S
N1008 S1007 1.613 . S
N1008 C1011 1.350 . S
N1009 S1007 1.610 . S
N1009 C1010 1.351 . S
C1010 C1004 1.428 . S
C1010 N1009 1.351 . S
C1010 C1011 1.434 . S
C1011 C1002 1.429 . S
C1011 N1008 1.350 . S
C1011 C1010 1.434 . S
C1012 C1013 1.369 . S
C1012 C1014 1.419 . S
C1012 H1016 0.930 . S
C1013 C1012 1.369 . S
C1013 C1022 1.429 . S
C1014 C1012 1.419 . S
C1014 C1015 1.363 . S
C1014 H1017 0.929 . S
C1015 C1014 1.363 . S
C1015 C1021 1.428 . S
H1016 C1012 0.930 . S
H1017 C1014 0.929 . S
S1018 N1019 1.613 . S
S1018 N1020 1.610 . S
N1019 S1018 1.613 . S
N1019 C1022 1.350 . S
N1020 S1018 1.610 . S
N1020 C1021 1.351 . S
C1021 C1015 1.428 . S
C1021 N1020 1.351 . S
C1021 C1022 1.434 . S
C1022 C1013 1.429 . S
C1022 N1019 1.350 . S
C1022 C1021 1.434 . S
C1023 C1024 1.369 . S
C1023 C1025 1.419 . S
C1023 H1027 0.930 . S
C1024 C1023 1.369 . S
C1024 C1033 1.429 . S
C1025 C1023 1.419 . S
C1025 C1026 1.363 . S
C1025 H1028 0.929 . S
C1026 C1025 1.363 . S
C1026 C1032 1.428 . S
H1027 C1023 0.930 . S
H1028 C1025 0.929 . S
S1029 N1030 1.613 . S
S1029 N1031 1.610 . S
N1030 S1029 1.613 . S
N1030 C1033 1.350 . S
N1031 S1029 1.610 . S
N1031 C1032 1.351 . S
C1032 C1026 1.428 . S
C1032 N1031 1.351 . S
C1032 C1033 1.434 . S
C1033 C1024 1.429 . S
C1033 N1030 1.350 . S
C1033 C1032 1.434 . S
C1034 C1035 1.369 . S
C1034 C1036 1.419 . S
C1034 H1038 0.930 . S
C1035 C1034 1.369 . S
C1035 C1044 1.429 . S
C1036 C1034 1.419 . S
C1036 C1037 1.363 . S
C1036 H1039 0.929 . S
C1037 C1036 1.363 . S
C1037 C1043 1.428 . S
H1038 C1034 0.930 . S
H1039 C1036 0.929 . S
S1040 N1041 1.613 . S
S1040 N1042 1.610 . S
N1041 S1040 1.613 . S
N1041 C1044 1.350 . S
N1042 S1040 1.610 . S
N1042 C1043 1.351 . S
C1043 C1037 1.428 . S
C1043 N1042 1.351 . S
C1043 C1044 1.434 . S
C1044 C1035 1.429 . S
C1044 N1041 1.350 . S
C1044 C1043 1.434 . S
C1045 C1046 1.369 . S
C1045 C1047 1.419 . S
C1045 H1049 0.930 . S
C1046 C1045 1.369 . S
C1046 C1055 1.429 . S
C1047 C1045 1.419 . S
C1047 C1048 1.363 . S
C1047 H1050 0.929 . S
C1048 C1047 1.363 . S
C1048 C1054 1.428 . S
H1049 C1045 0.930 . S
H1050 C1047 0.929 . S
S1051 N1052 1.613 . S
S1051 N1053 1.610 . S
N1052 S1051 1.613 . S
N1052 C1055 1.350 . S
N1053 S1051 1.610 . S
N1053 C1054 1.351 . S
C1054 C1048 1.428 . S
C1054 N1053 1.351 . S
C1054 C1055 1.434 . S
C1055 C1046 1.429 . S
C1055 N1052 1.350 . S
C1055 C1054 1.434 . S
C1056 C1057 1.369 . S
C1056 C1058 1.419 . S
C1056 H1060 0.930 . S
C1057 C1056 1.369 . S
C1057 C1066 1.429 . S
C1058 C1056 1.419 . S
C1058 C1059 1.363 . S
C1058 H1061 0.929 . S
C1059 C1058 1.363 . S
C1059 C1065 1.428 . S
H1060 C1056 0.930 . S
H1061 C1058 0.929 . S
S1062 N1063 1.613 . S
S1062 N1064 1.610 . S
N1063 S1062 1.613 . S
N1063 C1066 1.350 . S
N1064 S1062 1.610 . S
N1064 C1065 1.351 . S
C1065 C1059 1.428 . S
C1065 N1064 1.351 . S
C1065 C1066 1.434 . S
C1066 C1057 1.429 . S
C1066 N1063 1.350 . S
C1066 C1065 1.434 . S
C1067 C1068 1.369 . S
C1067 C1069 1.419 . S
C1067 H1071 0.930 . S
C1068 C1067 1.369 . S
C1068 C1077 1.429 . S
C1069 C1067 1.419 . S
C1069 C1070 1.363 . S
C1069 H1072 0.929 . S
C1070 C1069 1.363 . S
C1070 C1076 1.428 . S
H1071 C1067 0.930 . S
H1072 C1069 0.929 . S
S1073 N1074 1.613 . S
S1073 N1075 1.610 . S
N1074 S1073 1.613 . S
N1074 C1077 1.350 . S
N1075 S1073 1.610 . S
N1075 C1076 1.351 . S
C1076 C1070 1.428 . S
C1076 N1075 1.351 . S
C1076 C1077 1.434 . S
C1077 C1068 1.429 . S
C1077 N1074 1.350 . S
C1077 C1076 1.434 . S
C1078 C1079 1.369 . S
C1078 C1080 1.419 . S
C1078 H1082 0.930 . S
C1079 C1078 1.369 . S
C1079 C1088 1.429 . S
C1080 C1078 1.419 . S
C1080 C1081 1.363 . S
C1080 H1083 0.929 . S
C1081 C1080 1.363 . S
C1081 C1087 1.428 . S
H1082 C1078 0.930 . S
H1083 C1080 0.929 . S
S1084 N1085 1.613 . S
S1084 N1086 1.610 . S
N1085 S1084 1.613 . S
N1085 C1088 1.350 . S
N1086 S1084 1.610 . S
N1086 C1087 1.351 . S
C1087 C1081 1.428 . S
C1087 N1086 1.351 . S
C1087 C1088 1.434 . S
C1088 C1079 1.429 . S
C1088 N1085 1.350 . S
C1088 C1087 1.434 . S
C595 C120 1.500 . S
C597 C21 1.497 . S
C606 C153 1.500 . S
C608 C54 1.498 . S
C617 C186 1.498 . S
C619 C87 1.499 . S
C628 C40 1.470 . S
C630 C172 1.470 . S
C639 C106 1.470 . S
C641 C73 1.471 . S
C650 C139 1.471 . S
C652 C7 1.470 . S
C661 C318 1.499 . S
C663 C219 1.498 . S
C672 C252 1.497 . S
C674 C351 1.499 . S
C683 C285 1.500 . S
C685 C384 1.497 . S
C694 C238 1.471 . S
C696 C370 1.470 . S
C705 C271 1.471 . S
C707 C304 1.470 . S
C716 C337 1.469 . S
C718 C205 1.471 . S
C727 C417 1.499 . S
C729 C516 1.498 . S
C738 C549 1.499 . S
C740 C450 1.498 . S
C749 C483 1.497 . S
C751 C582 1.499 . S
C760 C436 1.470 . S
C762 C568 1.470 . S
C771 C502 1.469 . S
C773 C469 1.472 . S
C782 C403 1.469 . S
C784 C535 1.471 . S
C793 C18 1.539 . S
C795 C579 1.541 . S
C804 C513 1.540 . S
C806 C51 1.541 . S
C815 C546 1.542 . S
C817 C84 1.539 . S
C826 C249 1.541 . S
C828 C117 1.539 . S
C837 C282 1.541 . S
C839 C150 1.539 . S
C848 C216 1.539 . S
C850 C183 1.541 . S
C859 C447 1.542 . S
C861 C315 1.539 . S
C870 C480 1.539 . S
C872 C348 1.542 . S
C881 C381 1.541 . S
C883 C414 1.540 . S
C892 N2 1.438 . S
C894 N13 1.436 . S
C903 N35 1.434 . S
C905 N46 1.439 . S
C914 N68 1.439 . S
C916 N79 1.435 . S
C925 N112 1.435 . S
C927 N101 1.437 . S
C936 N145 1.436 . S
C938 N134 1.437 . S
C947 N167 1.435 . S
C949 N178 1.438 . S
C958 N200 1.435 . S
C960 N211 1.437 . S
C969 N244 1.437 . S
C971 N233 1.435 . S
C980 N277 1.440 . S
C982 N266 1.434 . S
C991 N299 1.435 . S
C993 N310 1.438 . S
C1002 N332 1.436 . S
C1004 N343 1.437 . S
C1013 N365 1.437 . S
C1015 N376 1.437 . S
C1024 N398 1.434 . S
C1026 N409 1.438 . S
C1035 N431 1.433 . S
C1037 N442 1.439 . S
C1046 N475 1.439 . S
C1048 N464 1.434 . S
C1057 N497 1.438 . S
C1059 N508 1.436 . S
C1068 N541 1.438 . S
C1070 N530 1.435 . S
C1079 N574 1.439 . S
C1081 N563 1.434 . S
