# Generated by pormake.
# Topology ukh, (4)-cn, num edge types: 1
# Building blocks:
#     Node 0, Type 0, BuildingBlock: TATPOV_clean_sbu_0, # of connection points: 4
#     Node 1, Type 0, BuildingBlock: TATPOV_clean_sbu_0, # of connection points: 4
#     Node 2, Type 0, BuildingBlock: TATPOV_clean_sbu_0, # of connection points: 4
#     Node 3, Type 0, BuildingBlock: TATPOV_clean_sbu_0, # of connection points: 4
#     Node 4, Type 0, BuildingBlock: TATPOV_clean_sbu_0, # of connection points: 4
#     Node 5, Type 0, BuildingBlock: TATPOV_clean_sbu_0, # of connection points: 4
#     Node 6, Type 0, BuildingBlock: TATPOV_clean_sbu_0, # of connection points: 4
#     Node 7, Type 0, BuildingBlock: TATPOV_clean_sbu_0, # of connection points: 4
#     Node 8, Type 0, BuildingBlock: TATPOV_clean_sbu_0, # of connection points: 4
#     Node 9, Type 0, BuildingBlock: TATPOV_clean_sbu_0, # of connection points: 4
#     Node 10, Type 0, BuildingBlock: TATPOV_clean_sbu_0, # of connection points: 4
#     Node 11, Type 0, BuildingBlock: TATPOV_clean_sbu_0, # of connection points: 4
#     Edge 12, Type (0, 0), BuildingBlock: KIFKEQ_clean_linker_1, # of connection points: 2
#     Edge 13, Type (0, 0), BuildingBlock: KIFKEQ_clean_linker_1, # of connection points: 2
#     Edge 14, Type (0, 0), BuildingBlock: KIFKEQ_clean_linker_1, # of connection points: 2
#     Edge 15, Type (0, 0), BuildingBlock: KIFKEQ_clean_linker_1, # of connection points: 2
#     Edge 16, Type (0, 0), BuildingBlock: KIFKEQ_clean_linker_1, # of connection points: 2
#     Edge 17, Type (0, 0), BuildingBlock: KIFKEQ_clean_linker_1, # of connection points: 2
#     Edge 18, Type (0, 0), BuildingBlock: KIFKEQ_clean_linker_1, # of connection points: 2
#     Edge 19, Type (0, 0), BuildingBlock: KIFKEQ_clean_linker_1, # of connection points: 2
#     Edge 20, Type (0, 0), BuildingBlock: KIFKEQ_clean_linker_1, # of connection points: 2
#     Edge 21, Type (0, 0), BuildingBlock: KIFKEQ_clean_linker_1, # of connection points: 2
#     Edge 22, Type (0, 0), BuildingBlock: KIFKEQ_clean_linker_1, # of connection points: 2
#     Edge 23, Type (0, 0), BuildingBlock: KIFKEQ_clean_linker_1, # of connection points: 2
#     Edge 24, Type (0, 0), BuildingBlock: KIFKEQ_clean_linker_1, # of connection points: 2
#     Edge 25, Type (0, 0), BuildingBlock: KIFKEQ_clean_linker_1, # of connection points: 2
#     Edge 26, Type (0, 0), BuildingBlock: KIFKEQ_clean_linker_1, # of connection points: 2
#     Edge 27, Type (0, 0), BuildingBlock: KIFKEQ_clean_linker_1, # of connection points: 2
#     Edge 28, Type (0, 0), BuildingBlock: KIFKEQ_clean_linker_1, # of connection points: 2
#     Edge 29, Type (0, 0), BuildingBlock: KIFKEQ_clean_linker_1, # of connection points: 2
#     Edge 30, Type (0, 0), BuildingBlock: KIFKEQ_clean_linker_1, # of connection points: 2
#     Edge 31, Type (0, 0), BuildingBlock: KIFKEQ_clean_linker_1, # of connection points: 2
#     Edge 32, Type (0, 0), BuildingBlock: KIFKEQ_clean_linker_1, # of connection points: 2
#     Edge 33, Type (0, 0), BuildingBlock: KIFKEQ_clean_linker_1, # of connection points: 2
#     Edge 34, Type (0, 0), BuildingBlock: KIFKEQ_clean_linker_1, # of connection points: 2
#     Edge 35, Type (0, 0), BuildingBlock: KIFKEQ_clean_linker_1, # of connection points: 2
# Relax obj value: 0.152
# Max RMSD: 0.200
# Mean RMSD: 0.200
data_MOF--net-ukh--node1-TATPOV_clean_sbu_0--edge1-KIFKEQ_clean_linker_1
_symmetry_space_group_name_H-M    P1
_symmetry_Int_Tables_number       1
_symmetry_cell_setting            triclinic
loop_
_symmetry_equiv_pos_as_xyz
'x, y, z'
_cell_length_a     31.373059
_cell_length_b     31.462486
_cell_length_c     65.540656
_cell_angle_alpha  89.988576
_cell_angle_beta   89.942434
_cell_angle_gamma 120.16489
loop_
_atom_site_label
_atom_site_type_symbol
_atom_site_fract_x
_atom_site_fract_y
_atom_site_fract_z
_atom_type_partial_charge
Zn0 Zn 0.36018 0.23414 0.02733 0.0
Zn1 Zn 0.33461 0.21501 0.06631 0.0
O2 O 0.35486 0.16447 0.05669 0.0
O3 O 0.38377 0.18637 0.02552 0.0
O4 O 0.31981 0.20045 0.0965 0.0
O5 O 0.40763 0.30419 0.03396 0.0
O6 O 0.38732 0.28871 0.06638 0.0
C7 C 0.37443 0.15828 0.0407 0.0
C8 C 0.25798 0.20341 0.03484 0.0
O9 O 0.26999 0.20404 0.05347 0.0
O10 O 0.28918 0.21276 0.02076 0.0
C11 C 0.30284 0.15769 0.10407 0.0
O12 O 0.2927 0.12068 0.09187 0.0
C13 C 0.41238 0.31879 0.05223 0.0
Zn14 Zn 0.10023 0.36235 0.34958 0.0
Zn15 Zn 0.09766 0.33393 0.38823 0.0
O16 O 0.16932 0.35842 0.37833 0.0
O17 O 0.17131 0.38419 0.34691 0.0
O18 O 0.09767 0.31726 0.41806 0.0
O19 O 0.07947 0.41002 0.35837 0.0
O20 O 0.07494 0.38479 0.39003 0.0
C21 C 0.19277 0.37723 0.36175 0.0
C22 C 0.03188 0.25901 0.35612 0.0
O23 O 0.0458 0.26923 0.37464 0.0
O24 O 0.04996 0.2922 0.34256 0.0
C25 C 0.11699 0.2935 0.42546 0.0
O26 O 0.13845 0.27697 0.41315 0.0
C27 C 0.07003 0.41201 0.377 0.0
Zn28 Zn 0.73702 0.10542 0.69267 0.0
Zn29 Zn 0.77403 0.10015 0.72889 0.0
O30 O 0.82514 0.16817 0.71699 0.0
O31 O 0.79359 0.17336 0.68775 0.0
O32 O 0.79563 0.0996 0.75795 0.0
O33 O 0.67387 0.09467 0.70524 0.0
O34 O 0.70241 0.08298 0.73404 0.0
C35 C 0.82814 0.19178 0.70069 0.0
C36 C 0.76252 0.0277 0.69609 0.0
O37 O 0.7766 0.04438 0.71405 0.0
O38 O 0.74423 0.04679 0.68453 0.0
C39 C 0.83873 0.12517 0.76531 0.0
O40 O 0.87533 0.1542 0.75321 0.0
C41 C 0.66784 0.08305 0.72392 0.0
Zn42 Zn 0.63544 0.75228 0.013 0.0
Zn43 Zn 0.66231 0.78471 0.0511 0.0
O44 O 0.64442 0.83389 0.03793 0.0
O45 O 0.62277 0.80668 0.00651 0.0
O46 O 0.67727 0.80457 0.08084 0.0
O47 O 0.58123 0.68747 0.02289 0.0
O48 O 0.60743 0.71234 0.05412 0.0
C49 C 0.63012 0.838 0.02017 0.0
C50 C 0.73641 0.78026 0.02215 0.0
O51 O 0.72654 0.79127 0.03958 0.0
O52 O 0.70359 0.76255 0.00843 0.0
C53 C 0.68584 0.84503 0.08875 0.0
O54 O 0.68713 0.87949 0.077 0.0
C55 C 0.57841 0.67891 0.04185 0.0
Zn56 Zn 0.85934 0.63468 0.34268 0.0
Zn57 Zn 0.85252 0.65939 0.38137 0.0
O58 O 0.78473 0.63816 0.3681 0.0
O59 O 0.78889 0.61289 0.33723 0.0
O60 O 0.8449 0.67411 0.41082 0.0
O61 O 0.87758 0.5861 0.35299 0.0
O62 O 0.87251 0.6068 0.3846 0.0
C63 C 0.76474 0.62007 0.35089 0.0
C64 C 0.92716 0.73684 0.35213 0.0
O65 O 0.90882 0.72431 0.36999 0.0
O66 O 0.91159 0.70577 0.33774 0.0
C67 C 0.88047 0.68526 0.42305 0.0
O68 O 0.92136 0.68899 0.41589 0.0
C69 C 0.88105 0.58124 0.37198 0.0
Zn70 Zn 0.24633 0.87735 0.69266 0.0
Zn71 Zn 0.20706 0.88031 0.72868 0.0
O72 O 0.15749 0.81366 0.71535 0.0
O73 O 0.19088 0.80971 0.6864 0.0
O74 O 0.18029 0.87652 0.75723 0.0
O75 O 0.30826 0.88738 0.70607 0.0
O76 O 0.2783 0.89748 0.73486 0.0
C77 C 0.15548 0.79077 0.69897 0.0
C78 C 0.22086 0.95508 0.69662 0.0
O79 O 0.20589 0.93745 0.71441 0.0
O80 O 0.23943 0.93642 0.68496 0.0
C81 C 0.16481 0.83672 0.7672 0.0
O82 O 0.16471 0.79926 0.75829 0.0
C83 C 0.31332 0.89791 0.72486 0.0
Zn84 Zn 0.73776 0.62211 0.64907 0.0
Zn85 Zn 0.77661 0.66471 0.61312 0.0
O86 O 0.82617 0.64746 0.62629 0.0
O87 O 0.79296 0.60958 0.65517 0.0
O88 O 0.80298 0.68728 0.58449 0.0
O89 O 0.67541 0.57033 0.63585 0.0
O90 O 0.70504 0.61096 0.60714 0.0
C91 C 0.82829 0.62631 0.64257 0.0
C92 C 0.76372 0.72567 0.64536 0.0
O93 O 0.77844 0.72323 0.62749 0.0
O94 O 0.74514 0.68821 0.65692 0.0
C95 C 0.81691 0.66177 0.57446 0.0
O96 O 0.81573 0.62379 0.58339 0.0
C97 C 0.67005 0.57624 0.61714 0.0
Zn98 Zn 0.1231 0.7506 0.99612 0.0
Zn99 Zn 0.12851 0.79155 0.9592 0.0
O100 O 0.19564 0.8372 0.97297 0.0
O101 O 0.19176 0.80342 1.00286 0.0
O102 O 0.13544 0.81825 0.93051 0.0
O103 O 0.1115 0.68809 0.98292 0.0
O104 O 0.10918 0.71999 0.95333 0.0
C105 C 0.21527 0.83752 0.99007 0.0
C106 C 0.05105 0.78235 0.98959 0.0
O107 O 0.07203 0.79668 0.97226 0.0
O108 O 0.06554 0.76148 1.00209 0.0
C109 C 0.09954 0.79507 0.91828 0.0
O110 O 0.05877 0.75722 0.92519 0.0
C111 C 0.10496 0.68405 0.96382 0.0
Zn112 Zn 0.34081 0.11691 0.33775 0.0
Zn113 Zn 0.32517 0.12874 0.29854 0.0
O114 O 0.3468 0.19587 0.31259 0.0
O115 O 0.36314 0.18646 0.34441 0.0
O116 O 0.3171 0.14076 0.26873 0.0
O117 O 0.38954 0.09715 0.32924 0.0
O118 O 0.37621 0.10618 0.29698 0.0
C119 C 0.36082 0.21314 0.33054 0.0
C120 C 0.24049 0.05309 0.32518 0.0
O121 O 0.25683 0.07275 0.30777 0.0
O122 O 0.26873 0.06646 0.34054 0.0
C123 C 0.28957 0.10568 0.25679 0.0
O124 O 0.26446 0.06082 0.26414 0.0
C125 C 0.39807 0.09503 0.3105 0.0
Zn126 Zn 0.24782 0.36284 0.65144 0.0
Zn127 Zn 0.20934 0.32087 0.61527 0.0
O128 O 0.15888 0.33763 0.62794 0.0
O129 O 0.19151 0.37404 0.65713 0.0
O130 O 0.18661 0.29905 0.58623 0.0
O131 O 0.31052 0.41546 0.63859 0.0
O132 O 0.28083 0.37536 0.60983 0.0
C133 C 0.15645 0.35795 0.64444 0.0
C134 C 0.22208 0.25954 0.6475 0.0
O135 O 0.20729 0.26231 0.6297 0.0
O136 O 0.24083 0.29682 0.65914 0.0
C137 C 0.14471 0.28707 0.57869 0.0
O138 O 0.11016 0.28537 0.59059 0.0
C139 C 0.31584 0.40994 0.61982 0.0
Zn140 Zn 0.89493 0.25879 0.99239 0.0
Zn141 Zn 0.89584 0.22373 0.95485 0.0
O142 O 0.82552 0.17721 0.96614 0.0
O143 O 0.82478 0.20696 0.9965 0.0
O144 O 0.89471 0.20265 0.92559 0.0
O145 O 0.91222 0.32457 0.9806 0.0
O146 O 0.91803 0.29646 0.95059 0.0
C147 C 0.80318 0.17496 0.98277 0.0
C148 C 0.96451 0.22364 0.98757 0.0
O149 O 0.94867 0.21449 0.96927 0.0
O150 O 0.94777 0.24245 1.00006 0.0
C151 C 0.86972 0.15942 0.91838 0.0
O152 O 0.84213 0.12278 0.93071 0.0
C153 C 0.92193 0.33132 0.96174 0.0
Zn154 Zn 0.62935 0.87623 0.3209 0.0
Zn155 Zn 0.65166 0.88457 0.28149 0.0
O156 O 0.63053 0.81256 0.28937 0.0
O157 O 0.60471 0.80454 0.32113 0.0
O158 O 0.66405 0.88739 0.25105 0.0
O159 O 0.5818 0.89943 0.31602 0.0
O160 O 0.59911 0.90544 0.28323 0.0
C161 C 0.61157 0.78603 0.30524 0.0
C162 C 0.73119 0.94701 0.31268 0.0
O163 O 0.71767 0.93662 0.29412 0.0
O164 O 0.70084 0.92484 0.327 0.0
C165 C 0.68901 0.87056 0.24258 0.0
O166 O 0.70925 0.85118 0.25401 0.0
C167 C 0.57527 0.9097 0.29806 0.0
H168 H 0.58402 0.63705 0.07777 0.0
H169 H 0.50071 0.60554 0.02178 0.0
H170 H 0.54407 0.54855 0.08491 0.0
H171 H 0.46146 0.51799 0.02897 0.0
H172 H 0.48439 0.38701 0.02813 0.0
H173 H 0.52093 0.47569 0.03019 0.0
H174 H 0.44558 0.46069 0.08715 0.0
H175 H 0.40812 0.37081 0.08514 0.0
C176 C 0.55614 0.61145 0.06735 0.0
C177 C 0.54614 0.62806 0.049 0.0
C178 C 0.53345 0.56099 0.07146 0.0
C179 C 0.50063 0.52698 0.05726 0.0
C180 C 0.48727 0.5438 0.03996 0.0
C181 C 0.50973 0.59386 0.03587 0.0
C182 C 0.47622 0.40244 0.04133 0.0
C183 C 0.44273 0.37195 0.05629 0.0
C184 C 0.49707 0.45314 0.04246 0.0
C185 C 0.48507 0.47446 0.0586 0.0
C186 C 0.45498 0.44469 0.07453 0.0
C187 C 0.43382 0.3935 0.07338 0.0
H188 H 0.00992 0.39975 0.4096 0.0
H189 H 0.0809 0.49234 0.35722 0.0
H190 H 0.95968 0.43907 0.41394 0.0
H191 H 0.03117 0.53114 0.36169 0.0
H192 H 0.87523 0.5032 0.35208 0.0
H193 H 0.92293 0.46323 0.35912 0.0
H194 H 0.97921 0.54812 0.41428 0.0
H195 H 0.93095 0.58856 0.40735 0.0
C196 C 0.01591 0.42947 0.39947 0.0
C197 C 0.0486 0.44251 0.38285 0.0
C198 C 0.98725 0.4518 0.40198 0.0
C199 C 0.99155 0.48745 0.38798 0.0
C200 C 0.02725 0.50339 0.37254 0.0
C201 C 0.05552 0.48112 0.36998 0.0
C202 C 0.89671 0.51251 0.36599 0.0
C203 C 0.90012 0.54951 0.37899 0.0
C204 C 0.92382 0.48958 0.37002 0.0
C205 C 0.95482 0.50325 0.38707 0.0
C206 C 0.95525 0.53712 0.40108 0.0
C207 C 0.92773 0.56009 0.3971 0.0
H208 H 0.35721 0.97412 0.75149 0.0
H209 H 0.3811 0.87002 0.71776 0.0
H210 H 0.44575 0.02269 0.75875 0.0
H211 H 0.46908 0.91749 0.72574 0.0
H212 H 0.62446 0.0087 0.75153 0.0
H213 H 0.5362 0.96061 0.75943 0.0
H214 H 0.51125 0.06195 0.72425 0.0
H215 H 0.59896 0.10894 0.71566 0.0
C216 C 0.38104 0.96049 0.74643 0.0
C217 C 0.36262 0.91854 0.73399 0.0
C218 C 0.43153 0.98831 0.75055 0.0
C219 C 0.46378 0.97356 0.74282 0.0
C220 C 0.44465 0.92917 0.73203 0.0
C221 C 0.39449 0.90216 0.72742 0.0
C222 C 0.60035 0.02158 0.74606 0.0
C223 C 0.61826 0.06229 0.73288 0.0
C224 C 0.55002 0.99405 0.75056 0.0
C225 C 0.51739 0.00789 0.74249 0.0
C226 C 0.53599 0.05103 0.73083 0.0
C227 C 0.58599 0.07772 0.72585 0.0
H228 H 0.62632 0.60981 0.59105 0.0
H229 H 0.60156 0.48056 0.62409 0.0
H230 H 0.53768 0.57083 0.58423 0.0
H231 H 0.51344 0.44104 0.61652 0.0
H232 H 0.35764 0.37884 0.59157 0.0
H233 H 0.44559 0.41837 0.5832 0.0
H234 H 0.47318 0.54459 0.61909 0.0
H235 H 0.38577 0.50448 0.62814 0.0
C236 C 0.60225 0.57229 0.59604 0.0
C237 C 0.6205 0.54812 0.60817 0.0
C238 C 0.5517 0.55018 0.59218 0.0
C239 C 0.51918 0.50311 0.59984 0.0
C240 C 0.53806 0.47721 0.61029 0.0
C241 C 0.5883 0.4998 0.61466 0.0
C242 C 0.38225 0.41571 0.5971 0.0
C243 C 0.36517 0.43861 0.6106 0.0
C244 C 0.43241 0.43814 0.59233 0.0
C245 C 0.4657 0.48437 0.60047 0.0
C246 C 0.44792 0.50911 0.61246 0.0
C247 C 0.39809 0.48615 0.6177 0.0
H248 H -0.00358 0.37535 0.93415 0.0
H249 H 0.8972 0.40003 0.97134 0.0
H250 H 0.04489 0.46376 0.92681 0.0
H251 H 0.94439 0.48778 0.96327 0.0
H252 H 0.03297 0.64184 0.93522 0.0
H253 H 0.98561 0.55389 0.92701 0.0
H254 H 0.08561 0.529 0.96332 0.0
H255 H 0.13162 0.61625 0.97228 0.0
C256 C 0.98388 0.39939 0.94004 0.0
C257 C 0.94342 0.38128 0.95341 0.0
C258 C 0.01153 0.44971 0.93582 0.0
C259 C -0.00211 0.48198 0.94439 0.0
C260 C 0.95502 0.46323 0.95631 0.0
C261 C 0.92829 0.41327 0.961 0.0
C262 C 0.04577 0.61779 0.94082 0.0
C263 C 0.0856 0.6354 0.95447 0.0
C264 C 0.01873 0.56772 0.93613 0.0
C265 C 0.03239 0.53526 0.94449 0.0
C266 C 0.07496 0.5537 0.95653 0.0
C267 C 0.10105 0.60338 0.96171 0.0
H268 H 0.40317 0.05624 0.27361 0.0
H269 H 0.46455 0.08813 0.33447 0.0
H270 H 0.44464 0.00897 0.2669 0.0
H271 H 0.50554 0.04154 0.32771 0.0
H272 H 0.5018 0.89918 0.32293 0.0
H273 H 0.46048 0.94693 0.32249 0.0
H274 H 0.53511 0.01703 0.26644 0.0
H275 H 0.57686 0.96859 0.26675 0.0
C276 C 0.42633 0.05412 0.28534 0.0
C277 C 0.42994 0.07503 0.3047 0.0
C278 C 0.44989 0.0271 0.2815 0.0
C279 C 0.4771 0.02082 0.29699 0.0
C280 C 0.48371 0.04496 0.3157 0.0
C281 C 0.46036 0.07173 0.31954 0.0
C282 C 0.50886 0.9241 0.3103 0.0
C283 C 0.54321 0.93089 0.29508 0.0
C284 C 0.48532 0.95149 0.31009 0.0
C285 C 0.49572 0.98638 0.29471 0.0
C286 C 0.52688 0.99047 0.27851 0.0
C287 C 0.55058 0.96277 0.27869 0.0
H288 H 0.34833 0.19002 0.23525 0.0
H289 H 0.22726 0.04143 0.22815 0.0
H290 H 0.34915 0.2026 0.19854 0.0
H291 H 0.22689 0.05447 0.19155 0.0
H292 H 0.27969 0.07414 0.12537 0.0
H293 H 0.27455 0.06259 0.16216 0.0
H294 H 0.30653 0.21209 0.17043 0.0
H295 H 0.3133 0.22409 0.13355 0.0
C296 C 0.32145 0.16023 0.22589 0.0
C297 C 0.28793 0.11462 0.23465 0.0
C298 C 0.32172 0.16752 0.20481 0.0
C299 C 0.28823 0.12949 0.19197 0.0
C300 C 0.25388 0.0843 0.20086 0.0
C301 C 0.25387 0.07691 0.2219 0.0
C302 C 0.28542 0.10452 0.13501 0.0
C303 C 0.29706 0.15009 0.12648 0.0
C304 C 0.28216 0.0978 0.15617 0.0
C305 C 0.29011 0.13638 0.16937 0.0
C306 C 0.30094 0.18176 0.16079 0.0
C307 C 0.30451 0.18857 0.13961 0.0
H308 H 0.07717 0.32455 0.45496 0.0
H309 H 0.15703 0.24696 0.44677 0.0
H310 H 0.08099 0.31741 0.49178 0.0
H311 H 0.15992 0.23886 0.48371 0.0
H312 H 0.21065 0.29419 0.54962 0.0
H313 H 0.20085 0.29095 0.51273 0.0
H314 H 0.05118 0.26043 0.52004 0.0
H315 H 0.06135 0.26478 0.55702 0.0
C316 C 0.09514 0.30551 0.461 0.0
C317 C 0.11703 0.28656 0.44787 0.0
C318 C 0.09701 0.30109 0.48216 0.0
C319 C 0.12078 0.27756 0.49077 0.0
C320 C 0.14186 0.25776 0.47762 0.0
C321 C 0.13999 0.26219 0.45642 0.0
C322 C 0.17546 0.28633 0.5434 0.0
C323 C 0.1369 0.28011 0.55632 0.0
C324 C 0.16975 0.2842 0.52219 0.0
C325 C 0.12531 0.27571 0.51336 0.0
C326 C 0.08619 0.26785 0.52631 0.0
C327 C 0.09191 0.27003 0.54753 0.0
H328 H 0.92492 0.17734 0.78673 0.0
H329 H 0.7696 0.07365 0.79462 0.0
H330 H 0.93575 0.18219 0.82369 0.0
H331 H 0.78018 0.07944 0.83146 0.0
H332 H 0.81918 0.07266 0.89732 0.0
H333 H 0.81513 0.0608 0.86041 0.0
H334 H 0.91438 0.21653 0.85202 0.0
H335 H 0.91937 0.22818 0.88879 0.0
C336 C 0.89313 0.15538 0.79632 0.0
C337 C 0.84636 0.12532 0.78768 0.0
C338 C 0.89928 0.15839 0.81753 0.0
C339 C 0.85879 0.13145 0.83061 0.0
C340 C 0.81232 0.10027 0.8219 0.0
C341 C 0.8062 0.0972 0.80073 0.0
C342 C 0.84048 0.10429 0.8876 0.0
C343 C 0.86941 0.15139 0.89605 0.0
C344 C 0.83795 0.09753 0.86642 0.0
C345 C 0.86427 0.13773 0.85318 0.0
C346 C 0.89413 0.18461 0.8617 0.0
C347 C 0.89671 0.19134 0.88284 0.0
H348 H 0.6826 0.78009 0.11734 0.0
H349 H 0.70127 0.92523 0.11108 0.0
H350 H 0.68667 0.78902 0.15429 0.0
H351 H 0.70635 0.93454 0.14812 0.0
H352 H 0.64945 0.90546 0.21455 0.0
H353 H 0.65234 0.90163 0.17749 0.0
H354 H 0.74138 0.83286 0.18233 0.0
H355 H 0.73766 0.83577 0.21944 0.0
C356 C 0.68807 0.81414 0.12382 0.0
C357 C 0.6914 0.85187 0.11121 0.0
C358 C 0.69071 0.81938 0.14505 0.0
C359 C 0.69676 0.86247 0.15422 0.0
C360 C 0.70099 0.90058 0.14158 0.0
C361 C 0.69838 0.89535 0.12033 0.0
C362 C 0.66987 0.88972 0.20773 0.0
C363 C 0.69312 0.8707 0.22001 0.0
C364 C 0.67178 0.88782 0.18644 0.0
C365 C 0.697 0.86684 0.17688 0.0
C366 C 0.72103 0.84864 0.18917 0.0
C367 C 0.71913 0.85056 0.21047 0.0
H368 H 0.86208 0.62418 0.55119 0.0
H369 H 0.80323 0.72216 0.54832 0.0
H370 H 0.88014 0.63574 0.51483 0.0
H371 H 0.82155 0.73382 0.51173 0.0
H372 H 0.80179 0.68123 0.44325 0.0
H373 H 0.79006 0.68148 0.48013 0.0
H374 H 0.93436 0.6997 0.49 0.0
H375 H 0.94609 0.69921 0.45327 0.0
C376 C 0.85336 0.64854 0.54283 0.0
C377 C 0.83111 0.67215 0.55266 0.0
C378 C 0.86399 0.65538 0.52199 0.0
C379 C 0.85228 0.6857 0.51038 0.0
C380 C 0.83066 0.70995 0.52024 0.0
C381 C 0.82048 0.70351 0.54121 0.0
C382 C 0.83121 0.68577 0.45328 0.0
C383 C 0.87471 0.68978 0.44529 0.0
C384 C 0.82458 0.68619 0.47441 0.0
C385 C 0.86115 0.69027 0.48798 0.0
C386 C 0.90523 0.69584 0.47995 0.0
C387 C 0.912 0.69577 0.45887 0.0
H388 H 0.03289 0.74632 0.88799 0.0
H389 H 0.17912 0.86961 0.89837 0.0
H390 H 0.04493 0.75936 0.85131 0.0
H391 H 0.19115 0.88241 0.86153 0.0
H392 H 0.18056 0.91148 0.79333 0.0
H393 H 0.16159 0.9051 0.82986 0.0
H394 H 0.09803 0.74761 0.82662 0.0
H395 H 0.11674 0.75385 0.79033 0.0
C396 C 0.06745 0.77655 0.88248 0.0
C397 C 0.10521 0.80666 0.89615 0.0
C398 C 0.07439 0.78385 0.86143 0.0
C399 C 0.11914 0.82162 0.85351 0.0
C400 C 0.15614 0.85316 0.86717 0.0
C401 C 0.14931 0.84567 0.88827 0.0
C402 C 0.16207 0.87548 0.8004 0.0
C403 C 0.15025 0.83317 0.78893 0.0
C404 C 0.1515 0.87188 0.82133 0.0
C405 C 0.12831 0.82586 0.83113 0.0
C406 C 0.1154 0.78355 0.8195 0.0
C407 C 0.12641 0.78717 0.7987 0.0
H408 H 0.26599 0.85049 0.02563 0.0
H409 H 0.26919 0.92423 0.9695 0.0
H410 H 0.32709 0.9288 0.04034 0.0
H411 H 0.32956 0.00225 0.98426 0.0
H412 H 0.42605 0.14074 0.01167 0.0
H413 H 0.40813 0.05998 0.9999 0.0
H414 H 0.31004 0.99301 0.0512 0.0
H415 H 0.32861 0.07357 0.06312 0.0
C416 C 0.28071 0.88316 0.0162 0.0
C417 C 0.26169 0.88139 0.99657 0.0
C418 C 0.3157 0.92802 0.02468 0.0
C419 C 0.33241 0.97185 0.01366 0.0
C420 C 0.31763 0.9692 0.9932 0.0
C421 C 0.28264 0.92438 0.98473 0.0
C422 C 0.40206 0.10887 0.02084 0.0
C423 C 0.3775 0.11328 0.03797 0.0
C424 C 0.39173 0.06262 0.01405 0.0
C425 C 0.3566 0.02005 0.02426 0.0
C426 C 0.33725 0.02503 0.04292 0.0
C427 C 0.34776 0.07135 0.04976 0.0
H428 H 0.23568 0.38267 0.32523 0.0
H429 H 0.26048 0.38354 0.39004 0.0
H430 H 0.3 0.36497 0.31856 0.0
H431 H 0.32975 0.37102 0.38343 0.0
H432 H 0.35246 0.24182 0.36854 0.0
H433 H 0.33437 0.30483 0.37721 0.0
H434 H 0.36665 0.35938 0.31505 0.0
H435 H 0.37952 0.29162 0.306 0.0
C436 C 0.25642 0.38104 0.33812 0.0
C437 C 0.24162 0.38235 0.35821 0.0
C438 C 0.29428 0.37127 0.33427 0.0
C439 C 0.31935 0.36384 0.35046 0.0
C440 C 0.30955 0.37324 0.37051 0.0
C441 C 0.27018 0.38114 0.37438 0.0
C442 C 0.35653 0.26774 0.35674 0.0
C443 C 0.36537 0.26054 0.33639 0.0
C444 C 0.34654 0.30481 0.36179 0.0
C445 C 0.34643 0.33663 0.34669 0.0
C446 C 0.36314 0.33399 0.32694 0.0
C447 C 0.37124 0.29548 0.32171 0.0
H448 H 0.91667 0.23292 0.7207 0.0
H449 H 0.84634 0.25045 0.66724 0.0
H450 H -0.00301 0.29027 0.70636 0.0
H451 H 0.92682 0.30822 0.65301 0.0
H452 H 0.13863 0.3957 0.67886 0.0
H453 H 0.05831 0.37202 0.69348 0.0
H454 H 0.98764 0.28838 0.63919 0.0
H455 H 0.06778 0.3123 0.62448 0.0
C456 C 0.91821 0.25021 0.70622 0.0
C457 C 0.8751 0.2362 0.69494 0.0
C458 C 0.96436 0.28332 0.69799 0.0
C459 C 0.96827 0.3031 0.67835 0.0
C460 C 0.92499 0.29285 0.668 0.0
C461 C 0.87887 0.25985 0.67623 0.0
C462 C 0.10604 0.37337 0.66977 0.0
C463 C 0.1096 0.35499 0.65065 0.0
C464 C 0.06 0.35969 0.67823 0.0
C465 C 0.01662 0.32761 0.66768 0.0
C466 C 0.02035 0.3133 0.64772 0.0
C467 C 0.0664 0.32688 0.63928 0.0
H468 H 0.62148 0.90432 0.04464 0.0
H469 H 0.64008 0.87447 0.98199 0.0
H470 H 0.6394 0.98641 0.0349 0.0
H471 H 0.66288 0.95669 0.97255 0.0
H472 H 0.73204 0.10883 0.95678 0.0
H473 H 0.66576 0.02675 0.96564 0.0
H474 H 0.70734 0.05742 0.02932 0.0
H475 H 0.76874 0.13974 0.02054 0.0
C476 C 0.62903 0.91525 0.02877 0.0
C477 C 0.63052 0.88343 0.01419 0.0
C478 C 0.63998 0.96262 0.02313 0.0
C479 C 0.65495 0.97987 1.003 0.0
C480 C 0.6517 0.94592 0.98819 0.0
C481 C 0.63898 0.89825 0.99367 0.0
C482 C 0.72555 0.09815 0.9727 0.0
C483 C 0.75627 0.13021 0.98789 0.0
C484 C 0.68796 0.05077 0.97785 0.0
C485 C 0.68209 0.03374 0.99819 0.0
C486 C 0.70987 0.068 0.01348 0.0
C487 C 0.74591 0.11574 0.00841 0.0
H488 H 0.55644 0.71449 0.33289 0.0
H489 H 0.65474 0.74649 0.28165 0.0
H490 H 0.57062 0.64832 0.34334 0.0
H491 H 0.6695 0.68102 0.29223 0.0
H492 H 0.71162 0.58093 0.31599 0.0
H493 H 0.64971 0.59792 0.30215 0.0
H494 H 0.64898 0.6673 0.35894 0.0
H495 H 0.71031 0.65 0.37281 0.0
C496 C 0.57973 0.70626 0.32345 0.0
C497 C 0.6058 0.73662 0.30684 0.0
C498 C 0.58785 0.66838 0.32946 0.0
C499 C 0.62226 0.66042 0.319 0.0
C500 C 0.64279 0.68621 0.3007 0.0
C501 C 0.6345 0.724 0.29462 0.0
C502 C 0.69702 0.59835 0.32578 0.0
C503 C 0.71704 0.61564 0.34528 0.0
C504 C 0.66154 0.60804 0.3178 0.0
C505 C 0.64536 0.63498 0.32923 0.0
C506 C 0.6606 0.64642 0.34968 0.0
C507 C 0.69613 0.63678 0.35765 0.0
H508 H 0.1383 0.73453 0.66479 0.0
H509 H 0.06679 0.74749 0.71892 0.0
H510 H 0.05819 0.67664 0.65037 0.0
H511 H 0.98688 0.69026 0.70437 0.0
H512 H 0.91688 0.67243 0.62256 0.0
H513 H -0.00307 0.69565 0.63706 0.0
H514 H 0.92607 0.60978 0.69095 0.0
H515 H 0.84581 0.58702 0.67658 0.0
C516 C 0.10561 0.72413 0.67386 0.0
C517 C 0.10888 0.74652 0.69283 0.0
C518 C 0.05969 0.69106 0.66552 0.0
C519 C 0.01616 0.67958 0.67602 0.0
C520 C 0.01968 0.69813 0.69588 0.0
C521 C 0.0656 0.73123 0.70421 0.0
C522 C 0.91821 0.65726 0.63723 0.0
C523 C 0.87499 0.62886 0.64861 0.0
C524 C 0.96421 0.6704 0.64554 0.0
C525 C 0.96788 0.65527 0.66535 0.0
C526 C 0.92444 0.62279 0.67583 0.0
C527 C 0.87844 0.60962 0.66753 0.0
H528 H 0.03679 0.2224 0.9648 0.0
H529 H 0.97857 0.20065 0.026 0.0
H530 H 0.10402 0.21155 0.97694 0.0
H531 H 0.04361 0.1864 0.03806 0.0
H532 H 0.19999 0.22762 0.05719 0.0
H533 H 0.12623 0.22765 0.04584 0.0
H534 H 0.13076 0.16013 0.98895 0.0
H535 H 0.20644 0.16343 0.99993 0.0
C536 C 0.03792 0.21431 0.9808 0.0
C537 C 0.00284 0.21285 0.99449 0.0
C538 C 0.07627 0.20767 0.9878 0.0
C539 C 0.07972 0.19823 0.0086 0.0
C540 C 0.04318 0.19484 0.02208 0.0
C541 C 0.0056 0.20265 0.01515 0.0
C542 C 0.18471 0.21219 0.04239 0.0
C543 C 0.20904 0.19587 0.02938 0.0
C544 C 0.14219 0.21197 0.03584 0.0
C545 C 0.12242 0.19434 0.0163 0.0
C546 C 0.14546 0.17535 1.00382 0.0
C547 C 0.18859 0.17669 0.01019 0.0
H548 H 0.79186 0.02697 0.28947 0.0
H549 H 0.78238 0.9589 0.34777 0.0
H550 H 0.8679 0.09947 0.30012 0.0
H551 H 0.85993 0.03009 0.35812 0.0
H552 H 0.95851 0.18901 0.37989 0.0
H553 H 0.88959 0.11057 0.36882 0.0
H554 H 0.95109 0.13681 0.30791 0.0
H555 H 0.01817 0.21631 0.31882 0.0
C556 C 0.80681 0.02704 0.30437 0.0
C557 C 0.78102 0.98752 0.31784 0.0
C558 C 0.85062 0.06858 0.31051 0.0
C559 C 0.87015 0.07112 0.33013 0.0
C560 C 0.84552 0.0302 0.34313 0.0
C561 C 0.80125 0.98913 0.33713 0.0
C562 C 0.9574 0.17767 0.3642 0.0
C563 C -0.00665 0.20894 0.35018 0.0
C564 C 0.91802 0.1325 0.35782 0.0
C565 C 0.91428 0.1172 0.33735 0.0
C566 C 0.95182 0.1477 0.32363 0.0
C567 C 0.99056 0.19319 0.32992 0.0
H568 H 0.79712 0.81251 0.62462 0.0
H569 H 0.73916 0.74363 0.68306 0.0
H570 H 0.80126 0.88776 0.63695 0.0
H571 H 0.74259 0.8183 0.69516 0.0
H572 H 0.79598 0.97441 0.71677 0.0
H573 H 0.80072 0.90372 0.70438 0.0
H574 H 0.74289 0.91483 0.64609 0.0
H575 H 0.73886 0.98573 0.65827 0.0
C576 C 0.78534 0.8134 0.64008 0.0
C577 C 0.76764 0.77196 0.65281 0.0
C578 C 0.78752 0.85643 0.64711 0.0
C579 C 0.77222 0.85897 0.66703 0.0
C580 C 0.75527 0.81778 0.67983 0.0
C581 C 0.75296 0.77481 0.67281 0.0
C582 C 0.78451 0.96192 0.70128 0.0
C583 C 0.76685 0.98563 0.68856 0.0
C584 C 0.78704 0.9213 0.69421 0.0
C585 C 0.77211 0.90364 0.67425 0.0
C586 C 0.75525 0.92788 0.66144 0.0
C587 C 0.75261 0.96835 0.66851 0.0
H588 H 0.76945 0.76511 0.98596 0.0
H589 H 0.815 0.81032 0.04823 0.0
H590 H 0.84818 0.77123 0.97871 0.0
H591 H 0.89471 0.81733 0.04077 0.0
H592 H -0.00183 0.75581 0.02512 0.0
H593 H 0.92534 0.7611 0.03334 0.0
H594 H 0.93568 0.82944 0.97495 0.0
H595 H 0.00812 0.82328 0.9665 0.0
C596 C 0.79645 0.77682 0.99809 0.0
C597 C 0.78574 0.78694 0.01773 0.0
C598 C 0.84184 0.78072 0.99386 0.0
C599 C 0.87777 0.79484 0.00914 0.0
C600 C 0.86755 0.80589 0.02872 0.0
C601 C 0.822 0.80209 0.03296 0.0
C602 C 0.98516 0.77226 0.01405 0.0
C603 C 0.00877 0.78872 0.99506 0.0
C604 C 0.94358 0.77564 0.01886 0.0
C605 C 0.92459 0.79553 1.00478 0.0
C606 C 0.94903 0.8133 0.98602 0.0
C607 C 0.99065 0.80994 0.9812 0.0
H608 H 0.95126 0.78658 0.31606 0.0
H609 H -0.00442 0.80023 0.37915 0.0
H610 H 0.02169 0.86741 0.30883 0.0
H611 H 0.06781 0.87952 0.37182 0.0
H612 H 0.18147 0.03348 0.35826 0.0
H613 H 0.10097 0.96145 0.36428 0.0
H614 H 0.10591 0.90696 0.30418 0.0
H615 H 0.18489 0.98098 0.29783 0.0
C616 C 0.97626 0.80695 0.32837 0.0
C617 C 0.96807 0.78716 0.34815 0.0
C618 C 0.01693 0.85319 0.32422 0.0
C619 C 0.05104 0.88027 0.33965 0.0
C620 C 0.04209 0.86055 0.35955 0.0
C621 C 0.00079 0.8148 0.36379 0.0
C622 C 0.16475 0.00638 0.34624 0.0
C623 C 0.18932 0.01254 0.32763 0.0
C624 C 0.1188 0.96476 0.34974 0.0
C625 C 0.09694 0.92755 0.33491 0.0
C626 C 0.12096 0.93485 0.31594 0.0
C627 C 0.16643 0.97721 0.31226 0.0
H628 H 0.24553 -0.00153 0.65906 0.0
H629 H 0.18779 0.00824 0.7177 0.0
H630 H 0.24227 0.07009 0.64731 0.0
H631 H 0.18386 0.0797 0.70574 0.0
H632 H 0.2464 0.24061 0.68506 0.0
H633 H 0.24256 0.16546 0.69683 0.0
H634 H 0.18396 0.0975 0.63845 0.0
H635 H 0.18848 0.17316 0.62647 0.0
C636 C 0.23183 0.01568 0.66943 0.0
C637 C 0.21714 -0.00229 0.68938 0.0
C638 C 0.22963 0.05657 0.66261 0.0
C639 C 0.21279 0.08056 0.67558 0.0
C640 C 0.19751 0.06229 0.69546 0.0
C641 C 0.19957 0.02123 0.70228 0.0
C642 C 0.23253 0.20966 0.67471 0.0
C643 C 0.21797 0.21303 0.65476 0.0
C644 C 0.23 0.16642 0.68154 0.0
C645 C 0.21295 0.12553 0.66858 0.0
C646 C 0.19778 0.1286 0.64872 0.0
C647 C 0.20017 0.17187 0.64189 0.0
loop_
_geom_bond_atom_site_label_1
_geom_bond_atom_site_label_2
_geom_bond_distance
_geom_bond_site_symmetry_2
_ccdc_geom_bond_type
Zn0 O3 2.031 . S
Zn0 O5 2.049 . S
Zn0 O10 2.067 . S
Zn1 O2 1.962 . S
Zn1 O4 1.986 . S
Zn1 O6 1.996 . S
Zn1 O9 1.943 . S
O2 Zn1 1.962 . S
O2 C7 1.254 . S
O3 Zn0 2.031 . S
O3 C7 1.269 . S
O4 Zn1 1.986 . S
O4 C11 1.262 . S
O5 Zn0 2.049 . S
O5 C13 1.260 . S
O6 Zn1 1.996 . S
O6 C13 1.257 . S
C7 O2 1.254 . S
C7 O3 1.269 . S
C8 O9 1.249 . S
C8 O10 1.270 . S
O9 Zn1 1.943 . S
O9 C8 1.249 . S
O10 Zn0 2.067 . S
O10 C8 1.270 . S
C11 O4 1.262 . S
C11 O12 1.232 . S
O12 C11 1.232 . S
C13 O5 1.260 . S
C13 O6 1.257 . S
Zn14 O17 2.031 . S
Zn14 O19 2.049 . S
Zn14 O24 2.067 . S
Zn15 O16 1.962 . S
Zn15 O18 1.986 . S
Zn15 O20 1.996 . S
Zn15 O23 1.943 . S
O16 Zn15 1.962 . S
O16 C21 1.254 . S
O17 Zn14 2.031 . S
O17 C21 1.269 . S
O18 Zn15 1.986 . S
O18 C25 1.262 . S
O19 Zn14 2.049 . S
O19 C27 1.260 . S
O20 Zn15 1.996 . S
O20 C27 1.257 . S
C21 O16 1.254 . S
C21 O17 1.269 . S
C22 O23 1.249 . S
C22 O24 1.270 . S
O23 Zn15 1.943 . S
O23 C22 1.249 . S
O24 Zn14 2.067 . S
O24 C22 1.270 . S
C25 O18 1.262 . S
C25 O26 1.232 . S
O26 C25 1.232 . S
C27 O19 1.260 . S
C27 O20 1.257 . S
Zn28 O31 2.031 . S
Zn28 O33 2.049 . S
Zn28 O38 2.067 . S
Zn29 O30 1.962 . S
Zn29 O32 1.986 . S
Zn29 O34 1.996 . S
Zn29 O37 1.943 . S
O30 Zn29 1.962 . S
O30 C35 1.254 . S
O31 Zn28 2.031 . S
O31 C35 1.269 . S
O32 Zn29 1.986 . S
O32 C39 1.262 . S
O33 Zn28 2.049 . S
O33 C41 1.260 . S
O34 Zn29 1.996 . S
O34 C41 1.257 . S
C35 O30 1.254 . S
C35 O31 1.269 . S
C36 O37 1.249 . S
C36 O38 1.270 . S
O37 Zn29 1.943 . S
O37 C36 1.249 . S
O38 Zn28 2.067 . S
O38 C36 1.270 . S
C39 O32 1.262 . S
C39 O40 1.232 . S
O40 C39 1.232 . S
C41 O33 1.260 . S
C41 O34 1.257 . S
Zn42 O45 2.031 . S
Zn42 O47 2.049 . S
Zn42 O52 2.067 . S
Zn43 O44 1.962 . S
Zn43 O46 1.986 . S
Zn43 O48 1.996 . S
Zn43 O51 1.943 . S
O44 Zn43 1.962 . S
O44 C49 1.254 . S
O45 Zn42 2.031 . S
O45 C49 1.269 . S
O46 Zn43 1.986 . S
O46 C53 1.262 . S
O47 Zn42 2.049 . S
O47 C55 1.260 . S
O48 Zn43 1.996 . S
O48 C55 1.257 . S
C49 O44 1.254 . S
C49 O45 1.269 . S
C50 O51 1.249 . S
C50 O52 1.270 . S
O51 Zn43 1.943 . S
O51 C50 1.249 . S
O52 Zn42 2.067 . S
O52 C50 1.270 . S
C53 O46 1.262 . S
C53 O54 1.232 . S
O54 C53 1.232 . S
C55 O47 1.260 . S
C55 O48 1.257 . S
Zn56 O59 2.031 . S
Zn56 O61 2.049 . S
Zn56 O66 2.067 . S
Zn57 O58 1.962 . S
Zn57 O60 1.986 . S
Zn57 O62 1.996 . S
Zn57 O65 1.943 . S
O58 Zn57 1.962 . S
O58 C63 1.254 . S
O59 Zn56 2.031 . S
O59 C63 1.269 . S
O60 Zn57 1.986 . S
O60 C67 1.262 . S
O61 Zn56 2.049 . S
O61 C69 1.260 . S
O62 Zn57 1.996 . S
O62 C69 1.257 . S
C63 O58 1.254 . S
C63 O59 1.269 . S
C64 O65 1.249 . S
C64 O66 1.270 . S
O65 Zn57 1.943 . S
O65 C64 1.249 . S
O66 Zn56 2.067 . S
O66 C64 1.270 . S
C67 O60 1.262 . S
C67 O68 1.232 . S
O68 C67 1.232 . S
C69 O61 1.260 . S
C69 O62 1.257 . S
Zn70 O73 2.031 . S
Zn70 O75 2.049 . S
Zn70 O80 2.067 . S
Zn71 O72 1.962 . S
Zn71 O74 1.986 . S
Zn71 O76 1.996 . S
Zn71 O79 1.943 . S
O72 Zn71 1.962 . S
O72 C77 1.254 . S
O73 Zn70 2.031 . S
O73 C77 1.269 . S
O74 Zn71 1.986 . S
O74 C81 1.262 . S
O75 Zn70 2.049 . S
O75 C83 1.260 . S
O76 Zn71 1.996 . S
O76 C83 1.257 . S
C77 O72 1.254 . S
C77 O73 1.269 . S
C78 O79 1.249 . S
C78 O80 1.270 . S
O79 Zn71 1.943 . S
O79 C78 1.249 . S
O80 Zn70 2.067 . S
O80 C78 1.270 . S
C81 O74 1.262 . S
C81 O82 1.232 . S
O82 C81 1.232 . S
C83 O75 1.260 . S
C83 O76 1.257 . S
Zn84 O87 2.031 . S
Zn84 O89 2.049 . S
Zn84 O94 2.067 . S
Zn85 O86 1.962 . S
Zn85 O88 1.986 . S
Zn85 O90 1.996 . S
Zn85 O93 1.943 . S
O86 Zn85 1.962 . S
O86 C91 1.254 . S
O87 Zn84 2.031 . S
O87 C91 1.269 . S
O88 Zn85 1.986 . S
O88 C95 1.262 . S
O89 Zn84 2.049 . S
O89 C97 1.260 . S
O90 Zn85 1.996 . S
O90 C97 1.257 . S
C91 O86 1.254 . S
C91 O87 1.269 . S
C92 O93 1.249 . S
C92 O94 1.270 . S
O93 Zn85 1.943 . S
O93 C92 1.249 . S
O94 Zn84 2.067 . S
O94 C92 1.270 . S
C95 O88 1.262 . S
C95 O96 1.232 . S
O96 C95 1.232 . S
C97 O89 1.260 . S
C97 O90 1.257 . S
Zn98 O101 2.031 . S
Zn98 O103 2.049 . S
Zn98 O108 2.067 . S
Zn99 O100 1.962 . S
Zn99 O102 1.986 . S
Zn99 O104 1.996 . S
Zn99 O107 1.943 . S
O100 Zn99 1.962 . S
O100 C105 1.254 . S
O101 Zn98 2.031 . S
O101 C105 1.269 . S
O102 Zn99 1.986 . S
O102 C109 1.262 . S
O103 Zn98 2.049 . S
O103 C111 1.260 . S
O104 Zn99 1.996 . S
O104 C111 1.257 . S
C105 O100 1.254 . S
C105 O101 1.269 . S
C106 O107 1.249 . S
C106 O108 1.270 . S
O107 Zn99 1.943 . S
O107 C106 1.249 . S
O108 Zn98 2.067 . S
O108 C106 1.270 . S
C109 O102 1.262 . S
C109 O110 1.232 . S
O110 C109 1.232 . S
C111 O103 1.260 . S
C111 O104 1.257 . S
Zn112 O115 2.031 . S
Zn112 O117 2.049 . S
Zn112 O122 2.067 . S
Zn113 O114 1.962 . S
Zn113 O116 1.986 . S
Zn113 O118 1.996 . S
Zn113 O121 1.943 . S
O114 Zn113 1.962 . S
O114 C119 1.254 . S
O115 Zn112 2.031 . S
O115 C119 1.269 . S
O116 Zn113 1.986 . S
O116 C123 1.262 . S
O117 Zn112 2.049 . S
O117 C125 1.260 . S
O118 Zn113 1.996 . S
O118 C125 1.257 . S
C119 O114 1.254 . S
C119 O115 1.269 . S
C120 O121 1.249 . S
C120 O122 1.270 . S
O121 Zn113 1.943 . S
O121 C120 1.249 . S
O122 Zn112 2.067 . S
O122 C120 1.270 . S
C123 O116 1.262 . S
C123 O124 1.232 . S
O124 C123 1.232 . S
C125 O117 1.260 . S
C125 O118 1.257 . S
Zn126 O129 2.031 . S
Zn126 O131 2.049 . S
Zn126 O136 2.067 . S
Zn127 O128 1.962 . S
Zn127 O130 1.986 . S
Zn127 O132 1.996 . S
Zn127 O135 1.943 . S
O128 Zn127 1.962 . S
O128 C133 1.254 . S
O129 Zn126 2.031 . S
O129 C133 1.269 . S
O130 Zn127 1.986 . S
O130 C137 1.262 . S
O131 Zn126 2.049 . S
O131 C139 1.260 . S
O132 Zn127 1.996 . S
O132 C139 1.257 . S
C133 O128 1.254 . S
C133 O129 1.269 . S
C134 O135 1.249 . S
C134 O136 1.270 . S
O135 Zn127 1.943 . S
O135 C134 1.249 . S
O136 Zn126 2.067 . S
O136 C134 1.270 . S
C137 O130 1.262 . S
C137 O138 1.232 . S
O138 C137 1.232 . S
C139 O131 1.260 . S
C139 O132 1.257 . S
Zn140 O143 2.031 . S
Zn140 O145 2.049 . S
Zn140 O150 2.067 . S
Zn141 O142 1.962 . S
Zn141 O144 1.986 . S
Zn141 O146 1.996 . S
Zn141 O149 1.943 . S
O142 Zn141 1.962 . S
O142 C147 1.254 . S
O143 Zn140 2.031 . S
O143 C147 1.269 . S
O144 Zn141 1.986 . S
O144 C151 1.262 . S
O145 Zn140 2.049 . S
O145 C153 1.260 . S
O146 Zn141 1.996 . S
O146 C153 1.257 . S
C147 O142 1.254 . S
C147 O143 1.269 . S
C148 O149 1.249 . S
C148 O150 1.270 . S
O149 Zn141 1.943 . S
O149 C148 1.249 . S
O150 Zn140 2.067 . S
O150 C148 1.270 . S
C151 O144 1.262 . S
C151 O152 1.232 . S
O152 C151 1.232 . S
C153 O145 1.260 . S
C153 O146 1.257 . S
Zn154 O157 2.031 . S
Zn154 O159 2.049 . S
Zn154 O164 2.067 . S
Zn155 O156 1.962 . S
Zn155 O158 1.986 . S
Zn155 O160 1.996 . S
Zn155 O163 1.943 . S
O156 Zn155 1.962 . S
O156 C161 1.254 . S
O157 Zn154 2.031 . S
O157 C161 1.269 . S
O158 Zn155 1.986 . S
O158 C165 1.262 . S
O159 Zn154 2.049 . S
O159 C167 1.260 . S
O160 Zn155 1.996 . S
O160 C167 1.257 . S
C161 O156 1.254 . S
C161 O157 1.269 . S
C162 O163 1.249 . S
C162 O164 1.270 . S
O163 Zn155 1.943 . S
O163 C162 1.249 . S
O164 Zn154 2.067 . S
O164 C162 1.270 . S
C165 O158 1.262 . S
C165 O166 1.232 . S
O166 C165 1.232 . S
C167 O159 1.260 . S
C167 O160 1.257 . S
H168 C176 0.950 . S
H169 C181 0.950 . S
H170 C178 0.950 . S
H171 C180 0.950 . S
H172 C182 0.950 . S
H173 C184 0.950 . S
H174 C186 0.950 . S
H175 C187 0.950 . S
C176 H168 0.950 . S
C176 C177 1.386 . S
C176 C178 1.391 . S
C177 C176 1.386 . S
C177 C181 1.393 . S
C178 H170 0.950 . S
C178 C176 1.391 . S
C178 C179 1.400 . S
C179 C178 1.400 . S
C179 C180 1.398 . S
C179 C185 1.491 . S
C180 H171 0.950 . S
C180 C179 1.398 . S
C180 C181 1.391 . S
C181 H169 0.950 . S
C181 C177 1.393 . S
C181 C180 1.391 . S
C182 H172 0.950 . S
C182 C183 1.386 . S
C182 C184 1.391 . S
C183 C182 1.386 . S
C183 C187 1.393 . S
C184 H173 0.950 . S
C184 C182 1.391 . S
C184 C185 1.400 . S
C185 C179 1.491 . S
C185 C184 1.400 . S
C185 C186 1.398 . S
C186 H174 0.950 . S
C186 C185 1.398 . S
C186 C187 1.391 . S
C187 H175 0.950 . S
C187 C183 1.393 . S
C187 C186 1.391 . S
H188 C196 0.950 . S
H189 C201 0.950 . S
H190 C198 0.950 . S
H191 C200 0.950 1_655 S
H192 C202 0.950 . S
H193 C204 0.950 . S
H194 C206 0.950 1_455 S
H195 C207 0.950 . S
C196 H188 0.950 . S
C196 C197 1.386 . S
C196 C198 1.391 . S
C197 C196 1.386 . S
C197 C201 1.393 . S
C198 H190 0.950 . S
C198 C196 1.391 . S
C198 C199 1.400 . S
C199 C198 1.400 . S
C199 C200 1.398 . S
C199 C205 1.491 1_455 S
C200 H191 0.950 1_455 S
C200 C199 1.398 . S
C200 C201 1.391 . S
C201 H189 0.950 . S
C201 C197 1.393 . S
C201 C200 1.391 . S
C202 H192 0.950 . S
C202 C203 1.386 . S
C202 C204 1.391 . S
C203 C202 1.386 . S
C203 C207 1.393 . S
C204 H193 0.950 . S
C204 C202 1.391 . S
C204 C205 1.400 . S
C205 C199 1.491 1_655 S
C205 C204 1.400 . S
C205 C206 1.398 . S
C206 H194 0.950 1_655 S
C206 C205 1.398 . S
C206 C207 1.391 . S
C207 H195 0.950 . S
C207 C203 1.393 . S
C207 C206 1.391 . S
H208 C216 0.950 . S
H209 C221 0.950 . S
H210 C218 0.950 . S
H211 C220 0.950 . S
H212 C222 0.950 . S
H213 C224 0.950 . S
H214 C226 0.950 . S
H215 C227 0.950 . S
C216 H208 0.950 . S
C216 C217 1.386 . S
C216 C218 1.391 1_565 S
C217 C216 1.386 . S
C217 C221 1.393 . S
C218 H210 0.950 . S
C218 C216 1.391 1_545 S
C218 C219 1.400 1_545 S
C219 C218 1.400 1_565 S
C219 C220 1.398 . S
C219 C225 1.491 1_565 S
C220 H211 0.950 . S
C220 C219 1.398 . S
C220 C221 1.391 . S
C221 H209 0.950 . S
C221 C217 1.393 . S
C221 C220 1.391 . S
C222 H212 0.950 . S
C222 C223 1.386 . S
C222 C224 1.391 1_545 S
C223 C222 1.386 . S
C223 C227 1.393 . S
C224 H213 0.950 . S
C224 C222 1.391 1_565 S
C224 C225 1.400 1_565 S
C225 C219 1.491 1_545 S
C225 C224 1.400 1_545 S
C225 C226 1.398 . S
C226 H214 0.950 . S
C226 C225 1.398 . S
C226 C227 1.391 . S
C227 H215 0.950 . S
C227 C223 1.393 . S
C227 C226 1.391 . S
H228 C236 0.950 . S
H229 C241 0.950 . S
H230 C238 0.950 . S
H231 C240 0.950 . S
H232 C242 0.950 . S
H233 C244 0.950 . S
H234 C246 0.950 . S
H235 C247 0.950 . S
C236 H228 0.950 . S
C236 C237 1.386 . S
C236 C238 1.391 . S
C237 C236 1.386 . S
C237 C241 1.393 . S
C238 H230 0.950 . S
C238 C236 1.391 . S
C238 C239 1.400 . S
C239 C238 1.400 . S
C239 C240 1.398 . S
C239 C245 1.491 . S
C240 H231 0.950 . S
C240 C239 1.398 . S
C240 C241 1.391 . S
C241 H229 0.950 . S
C241 C237 1.393 . S
C241 C240 1.391 . S
C242 H232 0.950 . S
C242 C243 1.386 . S
C242 C244 1.391 . S
C243 C242 1.386 . S
C243 C247 1.393 . S
C244 H233 0.950 . S
C244 C242 1.391 . S
C244 C245 1.400 . S
C245 C239 1.491 . S
C245 C244 1.400 . S
C245 C246 1.398 . S
C246 H234 0.950 . S
C246 C245 1.398 . S
C246 C247 1.391 . S
C247 H235 0.950 . S
C247 C243 1.393 . S
C247 C246 1.391 . S
H248 C256 0.950 . S
H249 C261 0.950 . S
H250 C258 0.950 . S
H251 C260 0.950 . S
H252 C262 0.950 . S
H253 C264 0.950 . S
H254 C266 0.950 . S
H255 C267 0.950 . S
C256 H248 0.950 . S
C256 C257 1.386 . S
C256 C258 1.391 1_655 S
C257 C256 1.386 . S
C257 C261 1.393 . S
C258 H250 0.950 . S
C258 C256 1.391 1_455 S
C258 C259 1.400 1_455 S
C259 C258 1.400 1_655 S
C259 C260 1.398 . S
C259 C265 1.491 1_655 S
C260 H251 0.950 . S
C260 C259 1.398 . S
C260 C261 1.391 . S
C261 H249 0.950 . S
C261 C257 1.393 . S
C261 C260 1.391 . S
C262 H252 0.950 . S
C262 C263 1.386 . S
C262 C264 1.391 1_455 S
C263 C262 1.386 . S
C263 C267 1.393 . S
C264 H253 0.950 . S
C264 C262 1.391 1_655 S
C264 C265 1.400 1_655 S
C265 C259 1.491 1_455 S
C265 C264 1.400 1_455 S
C265 C266 1.398 . S
C266 H254 0.950 . S
C266 C265 1.398 . S
C266 C267 1.391 . S
C267 H255 0.950 . S
C267 C263 1.393 . S
C267 C266 1.391 . S
H268 C276 0.950 . S
H269 C281 0.950 . S
H270 C278 0.950 1_565 S
H271 C280 0.950 . S
H272 C282 0.950 . S
H273 C284 0.950 1_545 S
H274 C286 0.950 . S
H275 C287 0.950 . S
C276 H268 0.950 . S
C276 C277 1.386 . S
C276 C278 1.391 . S
C277 C276 1.386 . S
C277 C281 1.393 . S
C278 H270 0.950 1_545 S
C278 C276 1.391 . S
C278 C279 1.400 . S
C279 C278 1.400 . S
C279 C280 1.398 . S
C279 C285 1.491 1_545 S
C280 H271 0.950 . S
C280 C279 1.398 . S
C280 C281 1.391 . S
C281 H269 0.950 . S
C281 C277 1.393 . S
C281 C280 1.391 . S
C282 H272 0.950 . S
C282 C283 1.386 . S
C282 C284 1.391 . S
C283 C282 1.386 . S
C283 C287 1.393 . S
C284 H273 0.950 1_565 S
C284 C282 1.391 . S
C284 C285 1.400 . S
C285 C279 1.491 1_565 S
C285 C284 1.400 . S
C285 C286 1.398 . S
C286 H274 0.950 . S
C286 C285 1.398 . S
C286 C287 1.391 . S
C287 H275 0.950 . S
C287 C283 1.393 . S
C287 C286 1.391 . S
H288 C296 0.950 . S
H289 C301 0.950 . S
H290 C298 0.950 . S
H291 C300 0.950 . S
H292 C302 0.950 . S
H293 C304 0.950 . S
H294 C306 0.950 . S
H295 C307 0.950 . S
C296 H288 0.950 . S
C296 C297 1.386 . S
C296 C298 1.391 . S
C297 C296 1.386 . S
C297 C301 1.393 . S
C298 H290 0.950 . S
C298 C296 1.391 . S
C298 C299 1.400 . S
C299 C298 1.400 . S
C299 C300 1.398 . S
C299 C305 1.491 . S
C300 H291 0.950 . S
C300 C299 1.398 . S
C300 C301 1.391 . S
C301 H289 0.950 . S
C301 C297 1.393 . S
C301 C300 1.391 . S
C302 H292 0.950 . S
C302 C303 1.386 . S
C302 C304 1.391 . S
C303 C302 1.386 . S
C303 C307 1.393 . S
C304 H293 0.950 . S
C304 C302 1.391 . S
C304 C305 1.400 . S
C305 C299 1.491 . S
C305 C304 1.400 . S
C305 C306 1.398 . S
C306 H294 0.950 . S
C306 C305 1.398 . S
C306 C307 1.391 . S
C307 H295 0.950 . S
C307 C303 1.393 . S
C307 C306 1.391 . S
H308 C316 0.950 . S
H309 C321 0.950 . S
H310 C318 0.950 . S
H311 C320 0.950 . S
H312 C322 0.950 . S
H313 C324 0.950 . S
H314 C326 0.950 . S
H315 C327 0.950 . S
C316 H308 0.950 . S
C316 C317 1.386 . S
C316 C318 1.391 . S
C317 C316 1.386 . S
C317 C321 1.393 . S
C318 H310 0.950 . S
C318 C316 1.391 . S
C318 C319 1.400 . S
C319 C318 1.400 . S
C319 C320 1.398 . S
C319 C325 1.491 . S
C320 H311 0.950 . S
C320 C319 1.398 . S
C320 C321 1.391 . S
C321 H309 0.950 . S
C321 C317 1.393 . S
C321 C320 1.391 . S
C322 H312 0.950 . S
C322 C323 1.386 . S
C322 C324 1.391 . S
C323 C322 1.386 . S
C323 C327 1.393 . S
C324 H313 0.950 . S
C324 C322 1.391 . S
C324 C325 1.400 . S
C325 C319 1.491 . S
C325 C324 1.400 . S
C325 C326 1.398 . S
C326 H314 0.950 . S
C326 C325 1.398 . S
C326 C327 1.391 . S
C327 H315 0.950 . S
C327 C323 1.393 . S
C327 C326 1.391 . S
H328 C336 0.950 . S
H329 C341 0.950 . S
H330 C338 0.950 . S
H331 C340 0.950 . S
H332 C342 0.950 . S
H333 C344 0.950 . S
H334 C346 0.950 . S
H335 C347 0.950 . S
C336 H328 0.950 . S
C336 C337 1.386 . S
C336 C338 1.391 . S
C337 C336 1.386 . S
C337 C341 1.393 . S
C338 H330 0.950 . S
C338 C336 1.391 . S
C338 C339 1.400 . S
C339 C338 1.400 . S
C339 C340 1.398 . S
C339 C345 1.491 . S
C340 H331 0.950 . S
C340 C339 1.398 . S
C340 C341 1.391 . S
C341 H329 0.950 . S
C341 C337 1.393 . S
C341 C340 1.391 . S
C342 H332 0.950 . S
C342 C343 1.386 . S
C342 C344 1.391 . S
C343 C342 1.386 . S
C343 C347 1.393 . S
C344 H333 0.950 . S
C344 C342 1.391 . S
C344 C345 1.400 . S
C345 C339 1.491 . S
C345 C344 1.400 . S
C345 C346 1.398 . S
C346 H334 0.950 . S
C346 C345 1.398 . S
C346 C347 1.391 . S
C347 H335 0.950 . S
C347 C343 1.393 . S
C347 C346 1.391 . S
H348 C356 0.950 . S
H349 C361 0.950 . S
H350 C358 0.950 . S
H351 C360 0.950 . S
H352 C362 0.950 . S
H353 C364 0.950 . S
H354 C366 0.950 . S
H355 C367 0.950 . S
C356 H348 0.950 . S
C356 C357 1.386 . S
C356 C358 1.391 . S
C357 C356 1.386 . S
C357 C361 1.393 . S
C358 H350 0.950 . S
C358 C356 1.391 . S
C358 C359 1.400 . S
C359 C358 1.400 . S
C359 C360 1.398 . S
C359 C365 1.491 . S
C360 H351 0.950 . S
C360 C359 1.398 . S
C360 C361 1.391 . S
C361 H349 0.950 . S
C361 C357 1.393 . S
C361 C360 1.391 . S
C362 H352 0.950 . S
C362 C363 1.386 . S
C362 C364 1.391 . S
C363 C362 1.386 . S
C363 C367 1.393 . S
C364 H353 0.950 . S
C364 C362 1.391 . S
C364 C365 1.400 . S
C365 C359 1.491 . S
C365 C364 1.400 . S
C365 C366 1.398 . S
C366 H354 0.950 . S
C366 C365 1.398 . S
C366 C367 1.391 . S
C367 H355 0.950 . S
C367 C363 1.393 . S
C367 C366 1.391 . S
H368 C376 0.950 . S
H369 C381 0.950 . S
H370 C378 0.950 . S
H371 C380 0.950 . S
H372 C382 0.950 . S
H373 C384 0.950 . S
H374 C386 0.950 . S
H375 C387 0.950 . S
C376 H368 0.950 . S
C376 C377 1.386 . S
C376 C378 1.391 . S
C377 C376 1.386 . S
C377 C381 1.393 . S
C378 H370 0.950 . S
C378 C376 1.391 . S
C378 C379 1.400 . S
C379 C378 1.400 . S
C379 C380 1.398 . S
C379 C385 1.491 . S
C380 H371 0.950 . S
C380 C379 1.398 . S
C380 C381 1.391 . S
C381 H369 0.950 . S
C381 C377 1.393 . S
C381 C380 1.391 . S
C382 H372 0.950 . S
C382 C383 1.386 . S
C382 C384 1.391 . S
C383 C382 1.386 . S
C383 C387 1.393 . S
C384 H373 0.950 . S
C384 C382 1.391 . S
C384 C385 1.400 . S
C385 C379 1.491 . S
C385 C384 1.400 . S
C385 C386 1.398 . S
C386 H374 0.950 . S
C386 C385 1.398 . S
C386 C387 1.391 . S
C387 H375 0.950 . S
C387 C383 1.393 . S
C387 C386 1.391 . S
H388 C396 0.950 . S
H389 C401 0.950 . S
H390 C398 0.950 . S
H391 C400 0.950 . S
H392 C402 0.950 . S
H393 C404 0.950 . S
H394 C406 0.950 . S
H395 C407 0.950 . S
C396 H388 0.950 . S
C396 C397 1.386 . S
C396 C398 1.391 . S
C397 C396 1.386 . S
C397 C401 1.393 . S
C398 H390 0.950 . S
C398 C396 1.391 . S
C398 C399 1.400 . S
C399 C398 1.400 . S
C399 C400 1.398 . S
C399 C405 1.491 . S
C400 H391 0.950 . S
C400 C399 1.398 . S
C400 C401 1.391 . S
C401 H389 0.950 . S
C401 C397 1.393 . S
C401 C400 1.391 . S
C402 H392 0.950 . S
C402 C403 1.386 . S
C402 C404 1.391 . S
C403 C402 1.386 . S
C403 C407 1.393 . S
C404 H393 0.950 . S
C404 C402 1.391 . S
C404 C405 1.400 . S
C405 C399 1.491 . S
C405 C404 1.400 . S
C405 C406 1.398 . S
C406 H394 0.950 . S
C406 C405 1.398 . S
C406 C407 1.391 . S
C407 H395 0.950 . S
C407 C403 1.393 . S
C407 C406 1.391 . S
H408 C416 0.961 . S
H409 C421 0.950 . S
H410 C418 0.950 . S
H411 C420 0.950 . S
H412 C422 0.961 . S
H413 C424 0.950 . S
H414 C426 0.950 . S
H415 C427 0.950 . S
C416 H408 0.961 . S
C416 C417 1.367 1_554 S
C416 C418 1.399 . S
C417 C416 1.367 1_556 S
C417 C421 1.393 . S
C418 H410 0.950 . S
C418 C416 1.399 . S
C418 C419 1.400 1_554 S
C419 C418 1.400 1_556 S
C419 C420 1.398 . S
C419 C425 1.491 1_566 S
C420 H411 0.950 . S
C420 C419 1.398 . S
C420 C421 1.391 . S
C421 H409 0.950 . S
C421 C417 1.393 . S
C421 C420 1.391 . S
C422 H412 0.961 . S
C422 C423 1.367 1_556 S
C422 C424 1.399 . S
C423 C422 1.367 1_554 S
C423 C427 1.393 . S
C424 H413 0.950 . S
C424 C422 1.399 . S
C424 C425 1.400 1_556 S
C425 C419 1.491 1_544 S
C425 C424 1.400 1_554 S
C425 C426 1.398 . S
C426 H414 0.950 . S
C426 C425 1.398 . S
C426 C427 1.391 . S
C427 H415 0.950 . S
C427 C423 1.393 . S
C427 C426 1.391 . S
H428 C436 0.950 . S
H429 C441 0.950 . S
H430 C438 0.950 . S
H431 C440 0.950 . S
H432 C442 0.950 . S
H433 C444 0.950 . S
H434 C446 0.950 . S
H435 C447 0.950 . S
C436 H428 0.950 . S
C436 C437 1.386 . S
C436 C438 1.391 . S
C437 C436 1.386 . S
C437 C441 1.393 . S
C438 H430 0.950 . S
C438 C436 1.391 . S
C438 C439 1.400 . S
C439 C438 1.400 . S
C439 C440 1.398 . S
C439 C445 1.491 . S
C440 H431 0.950 . S
C440 C439 1.398 . S
C440 C441 1.391 . S
C441 H429 0.950 . S
C441 C437 1.393 . S
C441 C440 1.391 . S
C442 H432 0.950 . S
C442 C443 1.386 . S
C442 C444 1.391 . S
C443 C442 1.386 . S
C443 C447 1.393 . S
C444 H433 0.950 . S
C444 C442 1.391 . S
C444 C445 1.400 . S
C445 C439 1.491 . S
C445 C444 1.400 . S
C445 C446 1.398 . S
C446 H434 0.950 . S
C446 C445 1.398 . S
C446 C447 1.391 . S
C447 H435 0.950 . S
C447 C443 1.393 . S
C447 C446 1.391 . S
H448 C456 0.950 . S
H449 C461 0.950 . S
H450 C458 0.950 . S
H451 C460 0.950 . S
H452 C462 0.950 . S
H453 C464 0.950 . S
H454 C466 0.950 . S
H455 C467 0.950 . S
C456 H448 0.950 . S
C456 C457 1.386 . S
C456 C458 1.391 . S
C457 C456 1.386 . S
C457 C461 1.393 . S
C458 H450 0.950 . S
C458 C456 1.391 . S
C458 C459 1.400 . S
C459 C458 1.400 . S
C459 C460 1.398 . S
C459 C465 1.491 1_655 S
C460 H451 0.950 . S
C460 C459 1.398 . S
C460 C461 1.391 . S
C461 H449 0.950 . S
C461 C457 1.393 . S
C461 C460 1.391 . S
C462 H452 0.950 . S
C462 C463 1.386 . S
C462 C464 1.391 . S
C463 C462 1.386 . S
C463 C467 1.393 . S
C464 H453 0.950 . S
C464 C462 1.391 . S
C464 C465 1.400 . S
C465 C459 1.491 1_455 S
C465 C464 1.400 . S
C465 C466 1.398 . S
C466 H454 0.950 . S
C466 C465 1.398 . S
C466 C467 1.391 . S
C467 H455 0.950 . S
C467 C463 1.393 . S
C467 C466 1.391 . S
H468 C476 0.950 . S
H469 C481 0.950 1_556 S
H470 C478 0.950 . S
H471 C480 0.950 . S
H472 C482 0.950 . S
H473 C484 0.950 . S
H474 C486 0.950 . S
H475 C487 0.950 1_554 S
C476 H468 0.950 . S
C476 C477 1.386 . S
C476 C478 1.391 . S
C477 C476 1.386 . S
C477 C481 1.393 . S
C478 H470 0.950 . S
C478 C476 1.391 . S
C478 C479 1.400 . S
C479 C478 1.400 . S
C479 C480 1.398 1_554 S
C479 C485 1.491 1_564 S
C480 H471 0.950 . S
C480 C479 1.398 1_556 S
C480 C481 1.391 1_556 S
C481 H469 0.950 1_554 S
C481 C477 1.393 . S
C481 C480 1.391 1_554 S
C482 H472 0.950 . S
C482 C483 1.386 . S
C482 C484 1.391 . S
C483 C482 1.386 . S
C483 C487 1.393 . S
C484 H473 0.950 . S
C484 C482 1.391 . S
C484 C485 1.400 . S
C485 C479 1.491 1_546 S
C485 C484 1.400 . S
C485 C486 1.398 1_556 S
C486 H474 0.950 . S
C486 C485 1.398 1_554 S
C486 C487 1.391 1_554 S
C487 H475 0.950 1_556 S
C487 C483 1.393 . S
C487 C486 1.391 1_556 S
H488 C496 0.950 . S
H489 C501 0.950 . S
H490 C498 0.950 . S
H491 C500 0.950 . S
H492 C502 0.950 . S
H493 C504 0.950 . S
H494 C506 0.950 . S
H495 C507 0.950 . S
C496 H488 0.950 . S
C496 C497 1.386 . S
C496 C498 1.391 . S
C497 C496 1.386 . S
C497 C501 1.393 . S
C498 H490 0.950 . S
C498 C496 1.391 . S
C498 C499 1.400 . S
C499 C498 1.400 . S
C499 C500 1.398 . S
C499 C505 1.491 . S
C500 H491 0.950 . S
C500 C499 1.398 . S
C500 C501 1.391 . S
C501 H489 0.950 . S
C501 C497 1.393 . S
C501 C500 1.391 . S
C502 H492 0.950 . S
C502 C503 1.386 . S
C502 C504 1.391 . S
C503 C502 1.386 . S
C503 C507 1.393 . S
C504 H493 0.950 . S
C504 C502 1.391 . S
C504 C505 1.400 . S
C505 C499 1.491 . S
C505 C504 1.400 . S
C505 C506 1.398 . S
C506 H494 0.950 . S
C506 C505 1.398 . S
C506 C507 1.391 . S
C507 H495 0.950 . S
C507 C503 1.393 . S
C507 C506 1.391 . S
H508 C516 0.950 . S
H509 C521 0.950 . S
H510 C518 0.950 . S
H511 C520 0.950 . S
H512 C522 0.950 . S
H513 C524 0.950 . S
H514 C526 0.950 . S
H515 C527 0.950 . S
C516 H508 0.950 . S
C516 C517 1.386 . S
C516 C518 1.391 . S
C517 C516 1.386 . S
C517 C521 1.393 . S
C518 H510 0.950 . S
C518 C516 1.391 . S
C518 C519 1.400 . S
C519 C518 1.400 . S
C519 C520 1.398 . S
C519 C525 1.491 1_455 S
C520 H511 0.950 . S
C520 C519 1.398 . S
C520 C521 1.391 . S
C521 H509 0.950 . S
C521 C517 1.393 . S
C521 C520 1.391 . S
C522 H512 0.950 . S
C522 C523 1.386 . S
C522 C524 1.391 . S
C523 C522 1.386 . S
C523 C527 1.393 . S
C524 H513 0.950 . S
C524 C522 1.391 . S
C524 C525 1.400 . S
C525 C519 1.491 1_655 S
C525 C524 1.400 . S
C525 C526 1.398 . S
C526 H514 0.950 . S
C526 C525 1.398 . S
C526 C527 1.391 . S
C527 H515 0.950 . S
C527 C523 1.393 . S
C527 C526 1.391 . S
H528 C536 0.950 . S
H529 C541 0.950 1_655 S
H530 C538 0.950 . S
H531 C540 0.950 . S
H532 C542 0.950 . S
H533 C544 0.950 . S
H534 C546 0.950 . S
H535 C547 0.950 . S
C536 H528 0.950 . S
C536 C537 1.386 . S
C536 C538 1.391 . S
C537 C536 1.386 . S
C537 C541 1.393 . S
C538 H530 0.950 . S
C538 C536 1.391 . S
C538 C539 1.400 . S
C539 C538 1.400 . S
C539 C540 1.398 1_556 S
C539 C545 1.491 1_556 S
C540 H531 0.950 . S
C540 C539 1.398 1_554 S
C540 C541 1.391 1_554 S
C541 H529 0.950 1_455 S
C541 C537 1.393 . S
C541 C540 1.391 1_556 S
C542 H532 0.950 . S
C542 C543 1.386 . S
C542 C544 1.391 . S
C543 C542 1.386 . S
C543 C547 1.393 . S
C544 H533 0.950 . S
C544 C542 1.391 . S
C544 C545 1.400 . S
C545 C539 1.491 1_554 S
C545 C544 1.400 . S
C545 C546 1.398 1_554 S
C546 H534 0.950 . S
C546 C545 1.398 1_556 S
C546 C547 1.391 1_556 S
C547 H535 0.950 . S
C547 C543 1.393 . S
C547 C546 1.391 1_554 S
H548 C556 0.950 . S
H549 C561 0.950 1_565 S
H550 C558 0.950 . S
H551 C560 0.950 . S
H552 C562 0.950 . S
H553 C564 0.950 . S
H554 C566 0.950 . S
H555 C567 0.950 1_455 S
C556 H548 0.950 . S
C556 C557 1.386 . S
C556 C558 1.391 . S
C557 C556 1.386 . S
C557 C561 1.393 . S
C558 H550 0.950 . S
C558 C556 1.391 . S
C558 C559 1.400 . S
C559 C558 1.400 . S
C559 C560 1.398 . S
C559 C565 1.491 . S
C560 H551 0.950 . S
C560 C559 1.398 . S
C560 C561 1.391 . S
C561 H549 0.950 1_545 S
C561 C557 1.393 . S
C561 C560 1.391 . S
C562 H552 0.950 . S
C562 C563 1.386 . S
C562 C564 1.391 . S
C563 C562 1.386 . S
C563 C567 1.393 . S
C564 H553 0.950 . S
C564 C562 1.391 . S
C564 C565 1.400 . S
C565 C559 1.491 . S
C565 C564 1.400 . S
C565 C566 1.398 . S
C566 H554 0.950 . S
C566 C565 1.398 . S
C566 C567 1.391 . S
C567 H555 0.950 1_655 S
C567 C563 1.393 . S
C567 C566 1.391 . S
H568 C576 0.950 . S
H569 C581 0.950 . S
H570 C578 0.950 . S
H571 C580 0.950 . S
H572 C582 0.950 . S
H573 C584 0.950 . S
H574 C586 0.950 . S
H575 C587 0.950 1_545 S
C576 H568 0.950 . S
C576 C577 1.386 . S
C576 C578 1.391 . S
C577 C576 1.386 . S
C577 C581 1.393 . S
C578 H570 0.950 . S
C578 C576 1.391 . S
C578 C579 1.400 . S
C579 C578 1.400 . S
C579 C580 1.398 . S
C579 C585 1.491 . S
C580 H571 0.950 . S
C580 C579 1.398 . S
C580 C581 1.391 . S
C581 H569 0.950 . S
C581 C577 1.393 . S
C581 C580 1.391 . S
C582 H572 0.950 . S
C582 C583 1.386 . S
C582 C584 1.391 . S
C583 C582 1.386 . S
C583 C587 1.393 . S
C584 H573 0.950 . S
C584 C582 1.391 . S
C584 C585 1.400 . S
C585 C579 1.491 . S
C585 C584 1.400 . S
C585 C586 1.398 . S
C586 H574 0.950 . S
C586 C585 1.398 . S
C586 C587 1.391 . S
C587 H575 0.950 1_565 S
C587 C583 1.393 . S
C587 C586 1.391 . S
H588 C596 0.950 . S
H589 C601 0.950 . S
H590 C598 0.950 . S
H591 C600 0.950 . S
H592 C602 0.950 1_455 S
H593 C604 0.950 . S
H594 C606 0.950 . S
H595 C607 0.950 . S
C596 H588 0.950 . S
C596 C597 1.386 . S
C596 C598 1.391 . S
C597 C596 1.386 . S
C597 C601 1.393 . S
C598 H590 0.950 . S
C598 C596 1.391 . S
C598 C599 1.400 . S
C599 C598 1.400 . S
C599 C600 1.398 . S
C599 C605 1.491 1_554 S
C600 H591 0.950 . S
C600 C599 1.398 . S
C600 C601 1.391 . S
C601 H589 0.950 . S
C601 C597 1.393 . S
C601 C600 1.391 . S
C602 H592 0.950 1_655 S
C602 C603 1.386 . S
C602 C604 1.391 . S
C603 C602 1.386 . S
C603 C607 1.393 . S
C604 H593 0.950 . S
C604 C602 1.391 . S
C604 C605 1.400 . S
C605 C599 1.491 1_556 S
C605 C604 1.400 . S
C605 C606 1.398 . S
C606 H594 0.950 . S
C606 C605 1.398 . S
C606 C607 1.391 . S
C607 H595 0.950 . S
C607 C603 1.393 . S
C607 C606 1.391 . S
H608 C616 0.947 1_655 S
H609 C621 0.950 . S
H610 C618 0.950 . S
H611 C620 0.950 . S
H612 C622 0.950 1_545 S
H613 C624 0.950 . S
H614 C626 0.950 . S
H615 C627 0.950 . S
C616 H608 0.947 1_455 S
C616 C617 1.386 . S
C616 C618 1.391 . S
C617 C616 1.386 . S
C617 C621 1.393 . S
C618 H610 0.950 . S
C618 C616 1.391 . S
C618 C619 1.400 . S
C619 C618 1.400 . S
C619 C620 1.398 . S
C619 C625 1.491 . S
C620 H611 0.950 . S
C620 C619 1.398 . S
C620 C621 1.391 . S
C621 H609 0.950 . S
C621 C617 1.393 . S
C621 C620 1.391 . S
C622 H612 0.950 1_565 S
C622 C623 1.386 . S
C622 C624 1.391 . S
C623 C622 1.386 . S
C623 C627 1.393 . S
C624 H613 0.950 . S
C624 C622 1.391 . S
C624 C625 1.400 . S
C625 C619 1.491 . S
C625 C624 1.400 . S
C625 C626 1.398 . S
C626 H614 0.950 . S
C626 C625 1.398 . S
C626 C627 1.391 . S
C627 H615 0.950 . S
C627 C623 1.393 . S
C627 C626 1.391 . S
H628 C636 0.950 1_565 S
H629 C641 0.950 . S
H630 C638 0.950 . S
H631 C640 0.950 . S
H632 C642 0.950 . S
H633 C644 0.950 . S
H634 C646 0.950 . S
H635 C647 0.950 . S
C636 H628 0.950 1_545 S
C636 C637 1.386 . S
C636 C638 1.391 . S
C637 C636 1.386 . S
C637 C641 1.393 . S
C638 H630 0.950 . S
C638 C636 1.391 . S
C638 C639 1.400 . S
C639 C638 1.400 . S
C639 C640 1.398 . S
C639 C645 1.491 . S
C640 H631 0.950 . S
C640 C639 1.398 . S
C640 C641 1.391 . S
C641 H629 0.950 . S
C641 C637 1.393 . S
C641 C640 1.391 . S
C642 H632 0.950 . S
C642 C643 1.386 . S
C642 C644 1.391 . S
C643 C642 1.386 . S
C643 C647 1.393 . S
C644 H633 0.950 . S
C644 C642 1.391 . S
C644 C645 1.400 . S
C645 C639 1.491 . S
C645 C644 1.400 . S
C645 C646 1.398 . S
C646 H634 0.950 . S
C646 C645 1.398 . S
C646 C647 1.391 . S
C647 H635 0.950 . S
C647 C643 1.393 . S
C647 C646 1.391 . S
C177 C55 1.349 . S
C183 C13 1.361 . S
C197 C27 1.347 . S
C203 C69 1.362 . S
C217 C83 1.364 . S
C223 C41 1.338 . S
C237 C97 1.351 . S
C243 C139 1.330 . S
C257 C153 1.358 . S
C263 C111 1.330 . S
C277 C125 1.363 . S
C283 C167 1.347 . S
C297 C123 1.539 . S
C303 C11 1.539 . S
C317 C25 1.535 . S
C323 C137 1.535 . S
C337 C39 1.535 . S
C343 C151 1.535 . S
C357 C53 1.533 . S
C363 C165 1.533 . S
C377 C95 1.531 . S
C383 C67 1.531 . S
C397 C109 1.530 . S
C403 C81 1.530 . S
C417 C105 0.962 . S
C423 C7 0.941 . S
C437 C21 0.955 . S
C443 C119 0.941 . S
C457 C35 0.959 . S
C463 C133 0.946 . S
C477 C49 0.947 . S
C483 C147 0.959 . S
C497 C161 0.962 . S
C503 C63 0.943 . S
C517 C77 0.942 . S
C523 C91 0.953 . S
C537 C148 1.283 1_455 S
C543 C8 1.298 . S
C557 C162 1.285 1_545 S
C563 C22 1.301 1_655 S
C577 C92 1.303 . S
C583 C36 1.311 1_565 S
C597 C50 1.287 . S
C603 C106 1.282 1_655 S
C617 C64 1.303 1_455 S
C623 C120 1.287 1_565 S
C637 C78 1.310 1_545 S
C643 C134 1.306 . S
