# Generated by pormake.
# Topology ske, (6)-cn, num edge types: 1
# Building blocks:
#     Node 0, Type 0, BuildingBlock: KUMJIN_clean_sbu_1, # of connection points: 6
#     Node 1, Type 0, BuildingBlock: KUMJIN_clean_sbu_1, # of connection points: 6
#     Node 2, Type 0, BuildingBlock: KUMJIN_clean_sbu_1, # of connection points: 6
#     Node 3, Type 0, BuildingBlock: KUMJIN_clean_sbu_1, # of connection points: 6
#     Node 4, Type 0, BuildingBlock: KUMJIN_clean_sbu_1, # of connection points: 6
#     Node 5, Type 0, BuildingBlock: KUMJIN_clean_sbu_1, # of connection points: 6
#     Node 6, Type 0, BuildingBlock: KUMJIN_clean_sbu_1, # of connection points: 6
#     Node 7, Type 0, BuildingBlock: KUMJIN_clean_sbu_1, # of connection points: 6
#     Edge 8, Type (0, 0), BuildingBlock: XUDNAN_clean_linker_2, # of connection points: 2
#     Edge 9, Type (0, 0), BuildingBlock: XUDNAN_clean_linker_2, # of connection points: 2
#     Edge 10, Type (0, 0), BuildingBlock: XUDNAN_clean_linker_2, # of connection points: 2
#     Edge 11, Type (0, 0), BuildingBlock: XUDNAN_clean_linker_2, # of connection points: 2
#     Edge 12, Type (0, 0), BuildingBlock: XUDNAN_clean_linker_2, # of connection points: 2
#     Edge 13, Type (0, 0), BuildingBlock: XUDNAN_clean_linker_2, # of connection points: 2
#     Edge 14, Type (0, 0), BuildingBlock: XUDNAN_clean_linker_2, # of connection points: 2
#     Edge 15, Type (0, 0), BuildingBlock: XUDNAN_clean_linker_2, # of connection points: 2
#     Edge 16, Type (0, 0), BuildingBlock: XUDNAN_clean_linker_2, # of connection points: 2
#     Edge 17, Type (0, 0), BuildingBlock: XUDNAN_clean_linker_2, # of connection points: 2
#     Edge 18, Type (0, 0), BuildingBlock: XUDNAN_clean_linker_2, # of connection points: 2
#     Edge 19, Type (0, 0), BuildingBlock: XUDNAN_clean_linker_2, # of connection points: 2
#     Edge 20, Type (0, 0), BuildingBlock: XUDNAN_clean_linker_2, # of connection points: 2
#     Edge 21, Type (0, 0), BuildingBlock: XUDNAN_clean_linker_2, # of connection points: 2
#     Edge 22, Type (0, 0), BuildingBlock: XUDNAN_clean_linker_2, # of connection points: 2
#     Edge 23, Type (0, 0), BuildingBlock: XUDNAN_clean_linker_2, # of connection points: 2
#     Edge 24, Type (0, 0), BuildingBlock: XUDNAN_clean_linker_2, # of connection points: 2
#     Edge 25, Type (0, 0), BuildingBlock: XUDNAN_clean_linker_2, # of connection points: 2
#     Edge 26, Type (0, 0), BuildingBlock: XUDNAN_clean_linker_2, # of connection points: 2
#     Edge 27, Type (0, 0), BuildingBlock: XUDNAN_clean_linker_2, # of connection points: 2
#     Edge 28, Type (0, 0), BuildingBlock: XUDNAN_clean_linker_2, # of connection points: 2
#     Edge 29, Type (0, 0), BuildingBlock: XUDNAN_clean_linker_2, # of connection points: 2
#     Edge 30, Type (0, 0), BuildingBlock: XUDNAN_clean_linker_2, # of connection points: 2
#     Edge 31, Type (0, 0), BuildingBlock: XUDNAN_clean_linker_2, # of connection points: 2
# Relax obj value: 0.218
# Max RMSD: 0.233
# Mean RMSD: 0.231
data_MOF--net-ske--node1-KUMJIN_clean_sbu_1--edge1-XUDNAN_clean_linker_2
_symmetry_space_group_name_H-M    P1
_symmetry_Int_Tables_number       1
_symmetry_cell_setting            triclinic
loop_
_symmetry_equiv_pos_as_xyz
'x, y, z'
_cell_length_a     98.659327
_cell_length_b     29.813643
_cell_length_c     15.038282
_cell_angle_alpha  98.031995
_cell_angle_beta   90.103354
_cell_angle_gamma 90.004982
loop_
_atom_site_label
_atom_site_type_symbol
_atom_site_fract_x
_atom_site_fract_y
_atom_site_fract_z
_atom_type_partial_charge
Eu0 Eu 0.15519 0.25264 0.52396 0.0
C1 C 0.10147 0.25163 0.72924 0.0
N2 N 0.10865 0.22157 0.67112 0.0
C3 C 0.10765 0.16707 0.77377 0.0
C4 C 0.09768 0.24114 0.81435 0.0
C5 C 0.11114 0.17904 0.69012 0.0
C6 C 0.10106 0.19848 0.83671 0.0
C7 C 0.09114 0.32595 0.76418 0.0
C8 C 0.09818 0.29352 0.70423 0.0
C9 C 0.08746 0.31571 0.84928 0.0
C10 C 0.09071 0.27344 0.87427 0.0
Eu11 Eu 0.1144 0.24551 0.53291 0.0
N12 N 0.1021 0.30288 0.62211 0.0
C13 C 0.08812 0.3679 0.73708 0.0
C14 C 0.09902 0.34343 0.59475 0.0
C15 C 0.09204 0.3766 0.65191 0.0
H16 H 0.11553 0.15409 0.64021 0.0
H17 H 0.08968 0.40883 0.63021 0.0
H18 H 0.15995 0.36051 0.48571 0.0
H19 H 0.17358 0.09479 0.33528 0.0
H20 H 0.10182 0.35017 0.52851 0.0
H21 H 0.08275 0.39374 0.78127 0.0
H22 H 0.16241 0.14252 0.46139 0.0
H23 H 0.10991 0.13347 0.78922 0.0
H24 H 0.08209 0.34028 0.89633 0.0
H25 H 0.0878 0.26608 0.94014 0.0
H26 H 0.16858 0.40077 0.36551 0.0
H27 H 0.09838 0.18917 0.90156 0.0
H28 H 0.18343 0.13 0.21054 0.0
N29 N 0.16291 0.29492 0.41248 0.0
C30 C 0.1693 0.27057 0.34126 0.0
C31 C 0.16859 0.36411 0.35687 0.0
C32 C 0.17509 0.29237 0.27297 0.0
C33 C 0.16325 0.3411 0.42375 0.0
C34 C 0.17433 0.33961 0.28041 0.0
N35 N 0.16513 0.20358 0.40568 0.0
C36 C 0.16628 0.15802 0.40599 0.0
C37 C 0.17739 0.19797 0.26626 0.0
C38 C 0.1706 0.22382 0.33831 0.0
C39 C 0.17833 0.15102 0.26498 0.0
C40 C 0.17275 0.13098 0.33517 0.0
H41 H 0.17866 0.35757 0.22936 0.0
H42 H 0.18639 0.28288 0.14833 0.0
H43 H 0.18843 0.20039 0.14262 0.0
O44 O 0.17479 0.22737 0.56443 0.0
O45 O 0.14403 0.22756 0.39039 0.0
O46 O 0.12299 0.26172 0.40253 0.0
O47 O 0.16982 0.29805 0.60003 0.0
O48 O 0.14675 0.18985 0.57179 0.0
O49 O 0.12658 0.18034 0.4939 0.0
O50 O 0.09358 0.25482 0.4831 0.0
O51 O 0.12605 0.27578 0.65787 0.0
O52 O 0.14615 0.23731 0.65594 0.0
O53 O 0.10244 0.18707 0.47773 0.0
O54 O 0.12272 0.30787 0.4815 0.0
O55 O 0.14306 0.31876 0.55917 0.0
C56 C 0.13342 0.2452 0.35425 0.0
C57 C 0.19318 0.27893 0.58272 0.0
C58 C 0.21731 0.27818 0.62225 0.0
C59 C 0.22005 0.30361 0.55212 0.0
C60 C 0.19625 0.3039 0.51302 0.0
C61 C 0.20961 0.31603 0.49781 0.0
C62 C 0.20374 0.26581 0.63659 0.0
C63 C 0.13691 0.16413 0.53473 0.0
C64 C 0.17905 0.26685 0.60154 0.0
C65 C 0.18187 0.26666 0.20125 0.0
C66 C 0.18309 0.21968 0.19819 0.0
C67 C 0.13605 0.25872 0.69989 0.0
C68 C 0.07951 0.18969 0.42038 0.0
C69 C 0.05513 0.19021 0.38992 0.0
C70 C 0.05597 0.14464 0.35082 0.0
C71 C 0.08003 0.14416 0.38056 0.0
C72 C 0.06702 0.21292 0.42374 0.0
C73 C 0.06835 0.12196 0.34576 0.0
C74 C 0.1327 0.33411 0.51627 0.0
C75 C 0.09192 0.21125 0.46197 0.0
H76 H 0.23024 0.31472 0.53996 0.0
H77 H 0.18838 0.31445 0.4708 0.0
H78 H 0.21186 0.33564 0.44425 0.0
H79 H 0.20134 0.24583 0.68937 0.0
H80 H 0.04704 0.12662 0.32327 0.0
H81 H 0.08948 0.12548 0.37671 0.0
H82 H 0.06645 0.24792 0.4549 0.0
H83 H 0.06888 0.0869 0.31524 0.0
Eu84 Eu 0.90356 0.25531 0.57361 0.0
C85 C 0.84838 0.25877 0.38248 0.0
N86 N 0.85402 0.29101 0.44419 0.0
C87 C 0.84842 0.34844 0.35366 0.0
C88 C 0.84297 0.27004 0.30169 0.0
C89 C 0.85356 0.33562 0.43307 0.0
C90 C 0.84326 0.31541 0.28708 0.0
C91 C 0.84142 0.18076 0.3408 0.0
C92 C 0.84769 0.21473 0.40187 0.0
C93 C 0.83642 0.19141 0.25873 0.0
C94 C 0.83715 0.23599 0.23938 0.0
Eu95 Eu 0.86292 0.26692 0.57536 0.0
N96 N 0.8523 0.20581 0.48286 0.0
C97 C 0.83985 0.13754 0.36562 0.0
C98 C 0.84966 0.16495 0.51029 0.0
C99 C 0.84377 0.12986 0.45144 0.0
H100 H 0.85737 0.36108 0.4852 0.0
H101 H 0.84201 0.0972 0.47298 0.0
H102 H 0.90878 0.14295 0.58162 0.0
H103 H 0.92298 0.39868 0.80206 0.0
H104 H 0.85179 0.15954 0.57825 0.0
H105 H 0.8351 0.1105 0.32061 0.0
H106 H 0.91249 0.35962 0.66234 0.0
H107 H 0.84838 0.38375 0.34407 0.0
H108 H 0.83165 0.16568 0.21077 0.0
H109 H 0.83297 0.24391 0.17674 0.0
H110 H 0.91444 0.09356 0.6943 0.0
H111 H 0.83923 0.32542 0.22574 0.0
H112 H 0.92929 0.35483 0.92411 0.0
N113 N 0.91021 0.20401 0.67322 0.0
C114 C 0.91507 0.22322 0.75446 0.0
C115 C 0.91439 0.12998 0.71282 0.0
C116 C 0.91913 0.19629 0.81987 0.0
C117 C 0.91078 0.15812 0.64967 0.0
C118 C 0.91832 0.14914 0.79901 0.0
N119 N 0.91273 0.29504 0.70657 0.0
C120 C 0.91524 0.34048 0.71562 0.0
C121 C 0.92265 0.29069 0.85145 0.0
C122 C 0.91677 0.26989 0.77051 0.0
C123 C 0.92478 0.33761 0.86293 0.0
C124 C 0.9212 0.36252 0.79428 0.0
H125 H 0.9213 0.12727 0.84744 0.0
H126 H 0.92736 0.19693 0.95384 0.0
H127 H 0.93048 0.27956 0.98132 0.0
O128 O 0.91857 0.29336 0.50866 0.0
O129 O 0.89182 0.28816 0.6982 0.0
O130 O 0.87266 0.24613 0.70145 0.0
O131 O 0.92357 0.22631 0.53654 0.0
O132 O 0.8952 0.31989 0.52975 0.0
O133 O 0.87496 0.33274 0.60736 0.0
O134 O 0.84202 0.25755 0.61764 0.0
O135 O 0.87447 0.27565 0.44627 0.0
O136 O 0.89311 0.22914 0.44043 0.0
O137 O 0.85239 0.32032 0.66306 0.0
O138 O 0.87239 0.2031 0.61447 0.0
O139 O 0.89167 0.19007 0.52884 0.0
C140 C 0.8829 0.26772 0.74383 0.0
C141 C 0.93588 0.25464 0.42072 0.0
C142 C 0.95822 0.25328 0.35094 0.0
C143 C 0.95198 0.25014 0.26623 0.0
C144 C 0.92979 0.2507 0.33565 0.0
C145 C 0.93784 0.2484 0.25873 0.0
C146 C 0.95008 0.25517 0.42797 0.0
C147 C 0.88532 0.34682 0.56335 0.0
C148 C 0.92775 0.26178 0.5032 0.0
C149 C 0.92434 0.21707 0.9025 0.0
C150 C 0.92617 0.26412 0.91804 0.0
C151 C 0.88362 0.25006 0.40002 0.0
C152 C 0.82841 0.32319 0.64611 0.0
C153 C 0.80378 0.3303 0.6631 0.0
C154 C 0.80429 0.37028 0.62328 0.0
C155 C 0.82866 0.3633 0.60712 0.0
C156 C 0.81596 0.30682 0.67359 0.0
C157 C 0.81664 0.38648 0.5954 0.0
C158 C 0.88121 0.17521 0.57072 0.0
C159 C 0.84096 0.29829 0.66085 0.0
H160 H 0.95805 0.24859 0.20591 0.0
H161 H 0.91887 0.25008 0.32898 0.0
H162 H 0.93311 0.24572 0.19319 0.0
H163 H 0.9548 0.25854 0.49378 0.0
H164 H 0.7952 0.38966 0.61536 0.0
H165 H 0.83811 0.37702 0.58647 0.0
H166 H 0.81579 0.27564 0.70302 0.0
H167 H 0.81691 0.41747 0.56554 0.0
Eu168 Eu 0.15378 0.74796 0.49927 0.0
C169 C 0.10313 0.78726 0.29592 0.0
N170 N 0.10632 0.80224 0.38317 0.0
C171 C 0.10074 0.87829 0.3611 0.0
C172 C 0.09932 0.81783 0.23668 0.0
C173 C 0.10431 0.84664 0.41745 0.0
C174 C 0.09853 0.86399 0.26989 0.0
C175 C 0.09915 0.72413 0.17794 0.0
C176 C 0.10304 0.74095 0.26655 0.0
C177 C 0.09588 0.7546 0.11795 0.0
C178 C 0.09602 0.80133 0.14713 0.0
Eu179 Eu 0.11296 0.74549 0.47076 0.0
N180 N 0.10675 0.71222 0.32495 0.0
C181 C 0.09854 0.67713 0.15266 0.0
C182 C 0.10565 0.66641 0.3021 0.0
C183 C 0.1017 0.64816 0.2152 0.0
H184 H 0.10523 0.85794 0.48857 0.0
H185 H 0.10107 0.61182 0.19655 0.0
H186 H 0.15908 0.64742 0.56654 0.0
H187 H 0.16716 0.91682 0.6694 0.0
H188 H 0.10806 0.64415 0.35082 0.0
H189 H 0.09543 0.66285 0.08552 0.0
H190 H 0.16134 0.85982 0.54018 0.0
H191 H 0.09949 0.91359 0.38842 0.0
H192 H 0.09302 0.74237 0.04924 0.0
H193 H 0.09324 0.82439 0.10049 0.0
H194 H 0.16607 0.61637 0.70405 0.0
H195 H 0.09567 0.88857 0.22655 0.0
H196 H 0.17093 0.89339 0.81894 0.0
N197 N 0.1599 0.71587 0.62871 0.0
C198 C 0.1634 0.74514 0.70281 0.0
C199 C 0.16522 0.65261 0.70479 0.0
C200 C 0.16738 0.72905 0.78262 0.0
C201 C 0.16122 0.67016 0.62737 0.0
C202 C 0.16825 0.68216 0.78286 0.0
N203 N 0.1603 0.80525 0.61737 0.0
C204 C 0.16234 0.84935 0.60576 0.0
C205 C 0.16714 0.82242 0.77253 0.0
C206 C 0.16333 0.7912 0.69737 0.0
C207 C 0.16805 0.86832 0.76283 0.0
C208 C 0.16592 0.88169 0.67858 0.0
H209 H 0.1715 0.66843 0.84237 0.0
H210 H 0.17352 0.74849 0.92107 0.0
H211 H 0.17322 0.83028 0.91247 0.0
O212 O 0.17414 0.77227 0.47426 0.0
O213 O 0.13998 0.72729 0.61103 0.0
O214 O 0.12091 0.77097 0.61225 0.0
O215 O 0.16907 0.7032 0.42649 0.0
O216 O 0.14335 0.81212 0.46702 0.0
O217 O 0.12266 0.81101 0.53799 0.0
O218 O 0.09864 0.70012 0.52414 0.0
O219 O 0.12692 0.72356 0.34977 0.0
O220 O 0.14508 0.77105 0.37167 0.0
O221 O 0.09159 0.76425 0.49157 0.0
O222 O 0.12287 0.68028 0.50117 0.0
O223 O 0.14435 0.68101 0.43738 0.0
C224 C 0.13043 0.75171 0.65559 0.0
C225 C 0.19203 0.71973 0.46847 0.0
C226 C 0.21613 0.70175 0.44337 0.0
C227 C 0.2174 0.69729 0.53498 0.0
C228 C 0.19375 0.71536 0.5594 0.0
C229 C 0.2063 0.70403 0.59224 0.0
C230 C 0.20333 0.71327 0.41036 0.0
C231 C 0.1329 0.83299 0.50838 0.0
C232 C 0.17868 0.73348 0.436 0.0
C233 C 0.17061 0.76013 0.85868 0.0
C234 C 0.17041 0.80673 0.8538 0.0
C235 C 0.13594 0.7495 0.31781 0.0
C236 C 0.07913 0.7319 0.60108 0.0
C237 C 0.05596 0.73431 0.6591 0.0
C238 C 0.06116 0.73464 0.7462 0.0
C239 C 0.08414 0.73299 0.68876 0.0
C240 C 0.06503 0.73328 0.5867 0.0
C241 C 0.07516 0.73442 0.76089 0.0
C242 C 0.1339 0.65962 0.4668 0.0
C243 C 0.08834 0.72739 0.52333 0.0
H244 H 0.22709 0.68942 0.56305 0.0
H245 H 0.18549 0.7215 0.60576 0.0
H246 H 0.20746 0.701 0.66275 0.0
H247 H 0.20215 0.71707 0.34014 0.0
H248 H 0.05436 0.73538 0.80291 0.0
H249 H 0.09495 0.73222 0.70125 0.0
H250 H 0.0611 0.73235 0.51907 0.0
H251 H 0.07906 0.73496 0.82836 0.0
Eu252 Eu 0.89977 0.75586 0.49179 0.0
C253 C 0.84994 0.66627 0.6308 0.0
N254 N 0.8515 0.67366 0.54462 0.0
C255 C 0.84588 0.5961 0.49289 0.0
C256 C 0.84704 0.62273 0.65206 0.0
C257 C 0.84864 0.64011 0.47556 0.0
C258 C 0.84541 0.58711 0.58161 0.0
C259 C 0.84657 0.69832 0.78596 0.0
C260 C 0.84969 0.70335 0.6965 0.0
C261 C 0.84488 0.65463 0.80929 0.0
C262 C 0.84512 0.6168 0.74228 0.0
Eu263 Eu 0.85854 0.74737 0.52153 0.0
N264 N 0.85113 0.74483 0.67087 0.0
C265 C 0.84457 0.73739 0.84792 0.0
C266 C 0.84802 0.78293 0.72881 0.0
C267 C 0.84494 0.77986 0.81858 0.0
H268 H 0.84907 0.64703 0.40687 0.0
H269 H 0.84295 0.81022 0.86509 0.0
H270 H 0.90694 0.83445 0.36093 0.0
H271 H 0.91772 0.57984 0.43976 0.0
H272 H 0.84854 0.81581 0.70629 0.0
H273 H 0.84219 0.73506 0.91744 0.0
H274 H 0.91174 0.65311 0.52884 0.0
H275 H 0.84416 0.56917 0.43791 0.0
H276 H 0.84276 0.64991 0.87804 0.0
H277 H 0.84316 0.58347 0.76034 0.0
H278 H 0.91241 0.8387 0.20135 0.0
H279 H 0.84315 0.55312 0.5949 0.0
H280 H 0.91867 0.57283 0.27389 0.0
N281 N 0.90666 0.76252 0.34338 0.0
C282 C 0.90915 0.72371 0.28769 0.0
C283 C 0.91144 0.8061 0.22462 0.0
C284 C 0.91226 0.7243 0.19643 0.0
C285 C 0.90842 0.80364 0.31469 0.0
C286 C 0.91311 0.76619 0.16476 0.0
N287 N 0.90804 0.686 0.41418 0.0
C288 C 0.91183 0.65018 0.45633 0.0
C289 C 0.91347 0.64317 0.27063 0.0
C290 C 0.90971 0.68388 0.32424 0.0
C291 C 0.91581 0.60483 0.31259 0.0
C292 C 0.91534 0.6087 0.40618 0.0
H293 H 0.91549 0.76809 0.0951 0.0
H294 H 0.91706 0.68292 0.07019 0.0
H295 H 0.91816 0.61164 0.13538 0.0
O296 O 0.92205 0.75545 0.50237 0.0
O297 O 0.88505 0.77848 0.38694 0.0
O298 O 0.86758 0.72804 0.38097 0.0
O299 O 0.9103 0.80695 0.58616 0.0
O300 O 0.89011 0.69399 0.53928 0.0
O301 O 0.87127 0.68937 0.45197 0.0
O302 O 0.84733 0.79138 0.44229 0.0
O303 O 0.8718 0.77716 0.64235 0.0
O304 O 0.89176 0.73749 0.62591 0.0
O305 O 0.83635 0.74551 0.51351 0.0
O306 O 0.86716 0.8186 0.55667 0.0
O307 O 0.88902 0.82377 0.49802 0.0
C308 C 0.87603 0.7526 0.33999 0.0
C309 C 0.93491 0.81128 0.60415 0.0
C310 C 0.95953 0.80953 0.62805 0.0
C311 C 0.95875 0.85319 0.67718 0.0
C312 C 0.93449 0.85472 0.6541 0.0
C313 C 0.94633 0.87544 0.69018 0.0
C314 C 0.9475 0.7886 0.5917 0.0
C315 C 0.88062 0.66971 0.49467 0.0
C316 C 0.92226 0.79092 0.56322 0.0
C317 C 0.91492 0.68333 0.14095 0.0
C318 C 0.91551 0.64274 0.17803 0.0
C319 C 0.88196 0.75684 0.67753 0.0
C320 C 0.82712 0.75937 0.37537 0.0
C321 C 0.8052 0.75548 0.29771 0.0
C322 C 0.8115 0.73244 0.22084 0.0
C323 C 0.83309 0.73576 0.29795 0.0
C324 C 0.81307 0.76864 0.37551 0.0
C325 C 0.82531 0.72243 0.2213 0.0
C326 C 0.87771 0.84188 0.53364 0.0
C327 C 0.83553 0.77391 0.45575 0.0
H328 H 0.96774 0.8699 0.70709 0.0
H329 H 0.92501 0.87299 0.66456 0.0
H330 H 0.94587 0.90895 0.72851 0.0
H331 H 0.94797 0.75508 0.55321 0.0
H332 H 0.80568 0.72201 0.16028 0.0
H333 H 0.8438 0.72775 0.29655 0.0
H334 H 0.80836 0.78678 0.43499 0.0
H335 H 0.83003 0.70446 0.16178 0.0
Eu336 Eu 0.65202 0.75791 0.05015 0.0
C337 C 0.59824 0.73934 0.24391 0.0
N338 N 0.60365 0.7123 0.17248 0.0
C339 C 0.59704 0.64586 0.23414 0.0
C340 C 0.59218 0.72023 0.31467 0.0
C341 C 0.60295 0.66628 0.16555 0.0
C342 C 0.59157 0.67293 0.30878 0.0
C343 C 0.59353 0.81483 0.32092 0.0
C344 C 0.5988 0.78626 0.24616 0.0
C345 C 0.58772 0.79583 0.39228 0.0
C346 C 0.58688 0.74874 0.3886 0.0
Eu347 Eu 0.61107 0.749 0.05369 0.0
N348 N 0.60407 0.80387 0.17462 0.0
C349 C 0.59389 0.86171 0.32078 0.0
C350 C 0.60353 0.84947 0.17189 0.0
C351 C 0.59879 0.87904 0.24561 0.0
H352 H 0.60676 0.64544 0.10637 0.0
H353 H 0.5986 0.91517 0.24339 0.0
H354 H 0.66004 0.86917 0.09391 0.0
H355 H 0.66994 0.63227 0.77658 0.0
H356 H 0.60622 0.8636 0.11237 0.0
H357 H 0.59 0.88473 0.37708 0.0
H358 H 0.65995 0.65931 0.9257 0.0
H359 H 0.59654 0.60932 0.22885 0.0
H360 H 0.5836 0.81732 0.44997 0.0
H361 H 0.58215 0.73467 0.44352 0.0
H362 H 0.66909 0.92891 1.01237 0.0
H363 H 0.58689 0.65699 0.3615 0.0
H364 H 0.67788 0.68772 0.68 0.0
N365 N 0.66161 0.8173 0.98178 0.0
C366 C 0.66676 0.80531 0.89805 0.0
C367 C 0.66836 0.89439 0.97903 0.0
C368 C 0.67242 0.83811 0.84987 0.0
C369 C 0.66303 0.86058 0.02452 0.0
C370 C 0.67288 0.88325 0.89077 0.0
N371 N 0.66172 0.72885 0.91052 0.0
C372 C 0.66339 0.68349 0.88338 0.0
C373 C 0.67271 0.74606 0.7766 0.0
C374 C 0.6669 0.75983 0.86162 0.0
C375 C 0.67349 0.69965 0.74503 0.0
C376 C 0.66902 0.66822 0.79934 0.0
H377 H 0.67709 0.90946 0.85588 0.0
H378 H 0.6819 0.84953 0.72506 0.0
H379 H 0.68217 0.76896 0.66098 0.0
O380 O 0.66363 0.7169 0.13362 0.0
O381 O 0.64096 0.7331 0.91765 0.0
O382 O 0.61997 0.76741 0.92275 0.0
O383 O 0.67317 0.7741 0.08633 0.0
O384 O 0.64286 0.68944 0.06826 0.0
O385 O 0.62205 0.68511 0.99438 0.0
O386 O 0.59008 0.76982 0.03553 0.0
O387 O 0.62408 0.7341 0.17434 0.0
O388 O 0.64075 0.78702 0.17635 0.0
O389 O 0.59655 0.70316 0.97745 0.0
O390 O 0.61977 0.81342 1.01244 0.0
O391 O 0.6397 0.82225 0.09325 0.0
C392 C 0.63094 0.75202 0.87846 0.0
C393 C 0.68272 0.75024 0.21674 0.0
C394 C 0.70512 0.76253 0.28787 0.0
C395 C 0.69886 0.76481 0.3724 0.0
C396 C 0.67673 0.75297 0.30181 0.0
C397 C 0.68479 0.76018 0.37909 0.0
C398 C 0.69688 0.75509 0.21028 0.0
C399 C 0.63285 0.66635 0.0252 0.0
C400 C 0.67463 0.74108 0.13333 0.0
C401 C 0.67766 0.82474 0.76343 0.0
C402 C 0.67782 0.77884 0.72691 0.0
C403 C 0.63271 0.76239 0.21963 0.0
C404 C 0.57836 0.73646 0.90606 0.0
C405 C 0.5563 0.74962 0.83924 0.0
C406 C 0.56266 0.74795 0.75517 0.0
C407 C 0.58446 0.73504 0.8215 0.0
C408 C 0.56423 0.7433 0.91456 0.0
C409 C 0.57661 0.74045 0.74644 0.0
C410 C 0.63021 0.83809 0.04429 0.0
C411 C 0.58661 0.73221 0.98636 0.0
H412 H 0.70481 0.77098 0.43349 0.0
H413 H 0.66587 0.74933 0.30851 0.0
H414 H 0.6801 0.76228 0.44459 0.0
H415 H 0.70149 0.75235 0.14436 0.0
H416 H 0.55681 0.75261 0.69611 0.0
H417 H 0.5953 0.73003 0.81361 0.0
H418 H 0.5595 0.74506 0.97997 0.0
H419 H 0.58137 0.73932 0.68135 0.0
Eu420 Eu 0.40212 0.75045 0.05181 0.0
C421 C 0.35203 0.80249 0.85525 0.0
N422 N 0.35536 0.81635 0.94251 0.0
C423 C 0.35125 0.89359 0.92222 0.0
C424 C 0.34888 0.83406 0.79666 0.0
C425 C 0.3541 0.86087 0.97779 0.0
C426 C 0.34892 0.88021 0.83075 0.0
C427 C 0.34699 0.74067 0.73694 0.0
C428 C 0.35106 0.75647 0.8256 0.0
C429 C 0.34445 0.77194 0.67718 0.0
C430 C 0.34543 0.81854 0.70692 0.0
Eu431 Eu 0.36123 0.75856 0.02936 0.0
N432 N 0.35395 0.72705 0.88428 0.0
C433 C 0.34543 0.69393 0.71153 0.0
C434 C 0.35189 0.68161 0.86139 0.0
C435 C 0.34776 0.66432 0.77431 0.0
H436 H 0.35518 0.87131 0.04911 0.0
H437 H 0.34639 0.62822 0.7556 0.0
H438 H 0.4075 0.65001 0.11723 0.0
H439 H 0.41596 0.91947 0.2232 0.0
H440 H 0.35376 0.65883 0.91006 0.0
H441 H 0.34222 0.68041 0.64418 0.0
H442 H 0.41046 0.86311 0.09308 0.0
H443 H 0.35069 0.92901 0.95022 0.0
H444 H 0.3415 0.76047 0.60833 0.0
H445 H 0.34316 0.84229 0.66061 0.0
H446 H 0.41425 0.61844 0.25486 0.0
H447 H 0.34663 0.90558 0.78792 0.0
H448 H 0.41965 0.89539 0.37217 0.0
N449 N 0.4087 0.71825 0.17961 0.0
C450 C 0.41237 0.74734 0.25347 0.0
C451 C 0.41365 0.65473 0.25556 0.0
C452 C 0.41617 0.73101 0.33344 0.0
C453 C 0.40979 0.67254 0.1781 0.0
C454 C 0.41674 0.68408 0.33381 0.0
N455 N 0.40912 0.80795 0.16904 0.0
C456 C 0.41121 0.8522 0.15832 0.0
C457 C 0.41602 0.8245 0.32434 0.0
C458 C 0.41227 0.79352 0.24863 0.0
C459 C 0.41683 0.87051 0.31561 0.0
C460 C 0.4147 0.88426 0.23174 0.0
H461 H 0.41975 0.67017 0.39364 0.0
H462 H 0.42216 0.75006 0.47232 0.0
H463 H 0.42199 0.8319 0.46447 0.0
O464 O 0.4237 0.7658 0.03996 0.0
O465 O 0.38838 0.73212 0.16533 0.0
O466 O 0.37069 0.78165 0.16767 0.0
O467 O 0.41568 0.70372 0.96941 0.0
O468 O 0.39336 0.8166 1.01597 0.0
O469 O 0.37307 0.82062 0.09188 0.0
O470 O 0.34518 0.7166 0.07762 0.0
O471 O 0.37452 0.73282 0.90632 0.0
O472 O 0.394 0.77458 0.92382 0.0
O473 O 0.34182 0.78766 0.07604 0.0
O474 O 0.36952 0.69145 0.06106 0.0
O475 O 0.39099 0.68508 0.99618 0.0
C476 C 0.37942 0.75889 0.21041 0.0
C477 C 0.43455 0.73669 0.90458 0.0
C478 C 0.45657 0.75206 0.83982 0.0
C479 C 0.45012 0.7532 0.75661 0.0
C480 C 0.42838 0.73833 0.8209 0.0
C481 C 0.43616 0.74621 0.74731 0.0
C482 C 0.4487 0.74318 0.91363 0.0
C483 C 0.38315 0.84007 0.05484 0.0
C484 C 0.42629 0.72982 0.98338 0.0
C485 C 0.41938 0.76189 0.40985 0.0
C486 C 0.41925 0.80852 0.40541 0.0
C487 C 0.38414 0.75582 0.87226 0.0
C488 C 0.32255 0.74098 0.05574 0.0
C489 C 0.29852 0.72694 0.08287 0.0
C490 C 0.29563 0.73327 0.99392 0.0
C491 C 0.31937 0.7469 0.96713 0.0
C492 C 0.31209 0.73053 0.11325 0.0
C493 C 0.30601 0.74287 0.93647 0.0
C494 C 0.37996 0.66726 0.02687 0.0
C495 C 0.33646 0.74962 0.09064 0.0
H496 H 0.4559 0.75966 0.69856 0.0
H497 H 0.41753 0.73379 0.81253 0.0
H498 H 0.43134 0.74736 0.68295 0.0
H499 H 0.45348 0.74267 0.97843 0.0
H500 H 0.28534 0.73029 0.9685 0.0
H501 H 0.32716 0.7556 0.92217 0.0
H502 H 0.31445 0.72652 0.18214 0.0
H503 H 0.30367 0.74766 0.86808 0.0
Eu504 Eu 0.65746 0.24885 0.03206 0.0
C505 C 0.60484 0.24803 0.81683 0.0
N506 N 0.60911 0.27958 0.88504 0.0
C507 C 0.60398 0.33907 0.79856 0.0
C508 C 0.60063 0.26077 0.73436 0.0
C509 C 0.60816 0.32473 0.87891 0.0
C510 C 0.60036 0.30693 0.72558 0.0
C511 C 0.59966 0.16959 0.76223 0.0
C512 C 0.60441 0.20306 0.83078 0.0
C513 C 0.59613 0.18173 0.67819 0.0
C514 C 0.5966 0.22724 0.66431 0.0
Eu515 Eu 0.61704 0.25253 1.0158 0.0
N516 N 0.60782 0.19251 0.91304 0.0
C517 C 0.59816 0.12522 0.7812 0.0
C518 C 0.60527 0.15019 0.93398 0.0
C519 C 0.6007 0.11572 0.86802 0.0
H520 H 0.61096 0.34944 0.93553 0.0
H521 H 0.59906 0.08192 0.88436 0.0
H522 H 0.66522 0.13698 1.01655 0.0
H523 H 0.66979 0.3849 0.30162 0.0
H524 H 0.60675 0.1427 1.00156 0.0
H525 H 0.59455 0.09851 0.73038 0.0
H526 H 0.66294 0.35136 0.14776 0.0
H527 H 0.60355 0.37484 0.79293 0.0
H528 H 0.59264 0.15636 0.62434 0.0
H529 H 0.59352 0.23626 0.59991 0.0
H530 H 0.67177 0.08241 0.11737 0.0
H531 H 0.59707 0.31814 0.66354 0.0
H532 H 0.67535 0.33488 0.41482 0.0
N533 N 0.66477 0.19343 0.12038 0.0
C534 C 0.66819 0.2091 0.20687 0.0
C535 C 0.67054 0.11782 0.14388 0.0
C536 C 0.67219 0.17909 0.26673 0.0
C537 C 0.66661 0.14885 0.08714 0.0
C538 C 0.67304 0.13282 0.23456 0.0
N539 N 0.6644 0.28363 0.17563 0.0
C540 C 0.66546 0.32955 0.1971 0.0
C541 C 0.67205 0.27301 0.32328 0.0
C542 C 0.66822 0.25551 0.23491 0.0
C543 C 0.67243 0.32011 0.34757 0.0
C544 C 0.6693 0.34848 0.28385 0.0
H545 H 0.67608 0.10865 0.27832 0.0
H546 H 0.67842 0.17364 0.40314 0.0
H547 H 0.67825 0.25585 0.45272 0.0
O548 O 0.67148 0.29257 0.97165 0.0
O549 O 0.64407 0.27326 0.15556 0.0
O550 O 0.62603 0.22575 0.13787 0.0
O551 O 0.67839 0.22784 1.00158 0.0
O552 O 0.64875 0.31378 0.99433 0.0
O553 O 0.6277 0.31977 0.06269 0.0
O554 O 0.59523 0.24274 0.04212 0.0
O555 O 0.62974 0.2689 0.89576 0.0
O556 O 0.648 0.22173 0.89569 0.0
O557 O 0.60628 0.30083 0.11225 0.0
O558 O 0.62672 0.1867 0.04659 0.0
O559 O 0.64712 0.18333 0.97115 0.0
C560 C 0.6352 0.24775 0.19034 0.0
C561 C 0.68822 0.25525 0.87716 0.0
C562 C 0.70914 0.25395 0.7898 0.0
C563 C 0.70161 0.23942 0.7114 0.0
C564 C 0.68091 0.24082 0.79828 0.0
C565 C 0.6876 0.23302 0.71582 0.0
C566 C 0.70227 0.26188 0.87267 0.0
C567 C 0.63823 0.33766 0.02694 0.0
C568 C 0.68137 0.26346 0.96464 0.0
C569 C 0.67552 0.19625 0.35592 0.0
C570 C 0.67545 0.24309 0.38412 0.0
C571 C 0.639 0.24292 0.85184 0.0
C572 C 0.58267 0.29525 0.15299 0.0
C573 C 0.55812 0.29646 0.17556 0.0
C574 C 0.56001 0.32451 0.25791 0.0
C575 C 0.58425 0.32355 0.23525 0.0
C576 C 0.56954 0.28191 0.12302 0.0
C577 C 0.57298 0.33798 0.28725 0.0
C578 C 0.63668 0.16358 1.00375 0.0
C579 C 0.59484 0.27907 0.10111 0.0
H580 H 0.70655 0.23238 0.64673 0.0
H581 H 0.67007 0.2356 0.80042 0.0
H582 H 0.68191 0.2218 0.65513 0.0
H583 H 0.7078 0.27377 0.9338 0.0
H584 H 0.5514 0.33666 0.29908 0.0
H585 H 0.59423 0.33413 0.26004 0.0
H586 H 0.56822 0.26007 0.05966 0.0
H587 H 0.5743 0.35971 0.35061 0.0
Eu588 Eu 0.4023 0.24748 0.95314 0.0
C589 C 0.35004 0.2697 0.18036 0.0
N590 N 0.35323 0.23444 0.11681 0.0
C591 C 0.34637 0.18179 0.21484 0.0
C592 C 0.34552 0.26234 0.26597 0.0
C593 C 0.35088 0.1909 0.1311 0.0
C594 C 0.34385 0.21768 0.28302 0.0
C595 C 0.34648 0.35031 0.21981 0.0
C596 C 0.35053 0.31297 0.15742 0.0
C597 C 0.34285 0.3436 0.30733 0.0
C598 C 0.34234 0.29964 0.33033 0.0
Eu599 Eu 0.36181 0.25221 0.97927 0.0
N600 N 0.3538 0.31802 0.07173 0.0
C601 C 0.3456 0.39289 0.19107 0.0
C602 C 0.35167 0.35854 0.0413 0.0
C603 C 0.3479 0.3968 0.10086 0.0
H604 H 0.35295 0.16329 0.07852 0.0
H605 H 0.3467 0.42919 0.07702 0.0
H606 H 0.40926 0.35998 0.95451 0.0
H607 H 0.41247 0.10574 0.69205 0.0
H608 H 0.35306 0.36166 0.97115 0.0
H609 H 0.34256 0.42247 0.23691 0.0
H610 H 0.40613 0.14289 0.84415 0.0
H611 H 0.34487 0.14717 0.22675 0.0
H612 H 0.3399 0.37196 0.35659 0.0
H613 H 0.33906 0.29476 0.39703 0.0
H614 H 0.41488 0.41117 0.84567 0.0
H615 H 0.34021 0.2106 0.34751 0.0
H616 H 0.41829 0.15248 0.5739 0.0
N617 N 0.40852 0.30078 0.85695 0.0
C618 C 0.41186 0.28271 0.77149 0.0
C619 C 0.41383 0.37521 0.82351 0.0
C620 C 0.41573 0.31078 0.70765 0.0
C621 C 0.41026 0.34605 0.88476 0.0
C622 C 0.41636 0.35761 0.73421 0.0
N623 N 0.4079 0.2094 0.81016 0.0
C624 C 0.40859 0.16329 0.79239 0.0
C625 C 0.41542 0.21617 0.6605 0.0
C626 C 0.41175 0.23584 0.74789 0.0
C627 C 0.41551 0.16885 0.64025 0.0
C628 C 0.4122 0.14232 0.70672 0.0
H629 H 0.41923 0.38029 0.68709 0.0
H630 H 0.42189 0.31243 0.56983 0.0
H631 H 0.42168 0.22973 0.52878 0.0
O632 O 0.41708 0.20608 1.01401 0.0
O633 O 0.38763 0.22319 0.83602 0.0
O634 O 0.37103 0.27574 0.85513 0.0
O635 O 0.42365 0.26663 0.9636 0.0
O636 O 0.39345 0.18319 0.99219 0.0
O637 O 0.37083 0.18083 0.94596 0.0
O638 O 0.34041 0.26496 0.95272 0.0
O639 O 0.3744 0.23279 0.09747 0.0
O640 O 0.39425 0.27301 0.09494 0.0
O641 O 0.35018 0.20585 0.88239 0.0
O642 O 0.37329 0.31425 0.94535 0.0
O643 O 0.39346 0.31393 0.02133 0.0
C644 C 0.37926 0.25041 0.80125 0.0
C645 C 0.43633 0.24458 0.082 0.0
C646 C 0.4595 0.2582 0.13775 0.0
C647 C 0.4542 0.27218 0.22417 0.0
C648 C 0.43127 0.25859 0.16842 0.0
C649 C 0.44021 0.27205 0.23923 0.0
C650 C 0.45038 0.244 0.06717 0.0
C651 C 0.38203 0.16148 0.971 0.0
C652 C 0.4272 0.23309 1.00496 0.0
C653 C 0.41904 0.29132 0.61985 0.0
C654 C 0.41892 0.24418 0.59644 0.0
C655 C 0.38462 0.25488 0.13967 0.0
C656 C 0.32659 0.2008 0.91154 0.0
C657 C 0.30194 0.19224 0.90462 0.0
C658 C 0.30312 0.15236 0.94394 0.0
C659 C 0.32754 0.16022 0.9486 0.0
C660 C 0.31375 0.21635 0.88843 0.0
C661 C 0.31585 0.13634 0.9651 0.0
C662 C 0.38298 0.33562 0.99417 0.0
C663 C 0.33879 0.22766 0.89782 0.0
H664 H 0.4608 0.28423 0.28 0.0
H665 H 0.42045 0.25963 0.18081 0.0
H666 H 0.43628 0.28316 0.30582 0.0
H667 H 0.45415 0.23264 1.00015 0.0
H668 H 0.29418 0.13316 0.95682 0.0
H669 H 0.33729 0.14686 0.96462 0.0
H670 H 0.31294 0.24749 0.85917 0.0
H671 H 0.31667 0.10523 0.99421 0.0
H672 H 0.24373 0.25548 0.57441 0.0
H673 H 0.21657 0.27281 0.8038 0.0
H674 H 0.23523 0.25325 0.90062 0.0
H675 H 0.26296 0.1629 0.63573 0.0
H676 H 0.27886 0.18287 0.59726 0.0
H677 H 0.26323 0.1968 0.54543 0.0
H678 H 0.26914 0.28216 0.57994 0.0
H679 H 0.28476 0.2685 0.63218 0.0
H680 H 0.27284 0.30667 0.69386 0.0
H681 H 0.25685 0.23051 0.97247 0.0
H682 H 0.27992 0.20792 1.01384 0.0
H683 H 0.29332 0.21107 0.74047 0.0
C684 C 0.24167 0.2557 0.64512 0.0
C685 C 0.22855 0.26559 0.68089 0.0
C686 C 0.22638 0.26453 0.77384 0.0
C687 C 0.23697 0.25385 0.82977 0.0
C688 C 0.24975 0.24469 0.79223 0.0
C689 C 0.25215 0.24572 0.70212 0.0
C690 C 0.26686 0.23513 0.67864 0.0
C691 C 0.26804 0.19185 0.61023 0.0
C692 C 0.27381 0.27553 0.64413 0.0
C693 C 0.27236 0.22785 0.76964 0.0
C694 C 0.2623 0.23324 0.83419 0.0
C695 C 0.26481 0.22654 0.92263 0.0
C696 C 0.27791 0.21369 0.9455 0.0
C697 C 0.28837 0.20819 0.88051 0.0
C698 C 0.28555 0.21578 0.79171 0.0
H699 H 0.72363 0.28991 0.66006 0.0
H700 H 0.72855 0.23333 0.90906 0.0
H701 H 0.75323 0.246 0.90318 0.0
H702 H 0.75415 0.24046 0.55371 0.0
H703 H 0.75784 0.28917 0.4991 0.0
H704 H 0.74055 0.2757 0.52314 0.0
H705 H 0.73738 0.35619 0.61098 0.0
H706 H 0.75466 0.36986 0.58746 0.0
H707 H 0.74878 0.37588 0.70192 0.0
H708 H 0.77737 0.26632 0.87172 0.0
H709 H 0.79914 0.29222 0.81656 0.0
H710 H 0.77858 0.33164 0.58384 0.0
C711 C 0.72988 0.27963 0.71289 0.0
C712 C 0.72408 0.26077 0.78528 0.0
C713 C 0.73268 0.24854 0.85367 0.0
C714 C 0.74674 0.25529 0.85061 0.0
C715 C 0.75209 0.27406 0.77846 0.0
C716 C 0.74394 0.28589 0.71066 0.0
C717 C 0.75222 0.30561 0.64073 0.0
C718 C 0.75112 0.27596 0.54873 0.0
C719 C 0.74801 0.35481 0.63499 0.0
C720 C 0.7663 0.30337 0.68018 0.0
C721 C 0.76601 0.28503 0.75958 0.0
C722 C 0.77774 0.28035 0.80917 0.0
C723 C 0.79009 0.2949 0.77686 0.0
C724 C 0.79066 0.31381 0.69546 0.0
C725 C 0.77854 0.31778 0.64665 0.0
H726 H 0.27399 0.77041 0.11258 0.0
H727 H 0.29773 0.65913 0.18774 0.0
H728 H 0.27866 0.63816 0.28031 0.0
H729 H 0.25842 0.80127 0.33027 0.0
H730 H 0.24241 0.81621 0.28459 0.0
H731 H 0.25782 0.82172 0.22304 0.0
H732 H 0.24763 0.77065 0.08569 0.0
H733 H 0.23224 0.76454 0.14725 0.0
H734 H 0.24147 0.71498 0.09857 0.0
H735 H 0.2569 0.62803 0.36094 0.0
H736 H 0.2349 0.63421 0.43895 0.0
H737 H 0.22533 0.75415 0.31746 0.0
C738 C 0.27514 0.74157 0.14846 0.0
C739 C 0.28733 0.71618 0.1427 0.0
C740 C 0.28853 0.67913 0.19163 0.0
C741 C 0.27771 0.6668 0.24376 0.0
C742 C 0.26579 0.69214 0.24703 0.0
C743 C 0.2645 0.72916 0.20181 0.0
C744 C 0.25078 0.75178 0.21986 0.0
C745 C 0.25246 0.80064 0.26727 0.0
C746 C 0.24255 0.75039 0.13263 0.0
C747 C 0.24452 0.72152 0.28196 0.0
C748 C 0.25334 0.68711 0.29591 0.0
C749 C 0.24996 0.65501 0.35101 0.0
C750 C 0.23743 0.65888 0.39515 0.0
C751 C 0.2284 0.69487 0.38506 0.0
C752 C 0.23192 0.72603 0.32598 0.0
H753 H 0.7256 0.72926 0.38705 0.0
H754 H 0.71872 0.80991 0.17214 0.0
H755 H 0.74339 0.81975 0.15749 0.0
H756 H 0.75432 0.79434 0.48901 0.0
H757 H 0.76328 0.74518 0.51548 0.0
H758 H 0.74502 0.74499 0.5109 0.0
H759 H 0.74552 0.6724 0.3942 0.0
H760 H 0.76376 0.67226 0.3987 0.0
H761 H 0.75521 0.67201 0.29259 0.0
H762 H 0.76876 0.8188 0.16168 0.0
H763 H 0.79323 0.80613 0.18334 0.0
H764 H 0.78413 0.72832 0.39864 0.0
C765 C 0.72927 0.74944 0.33759 0.0
C766 C 0.72012 0.76868 0.28048 0.0
C767 C 0.72544 0.79422 0.21577 0.0
C768 C 0.73946 0.80034 0.20741 0.0
C769 C 0.74815 0.78087 0.2644 0.0
C770 C 0.74329 0.75591 0.32828 0.0
C771 C 0.7549 0.73758 0.37933 0.0
C772 C 0.75434 0.75668 0.47964 0.0
C773 C 0.75484 0.68547 0.36534 0.0
C774 C 0.76703 0.75603 0.33395 0.0
C775 C 0.76287 0.78093 0.26785 0.0
C776 C 0.77213 0.79976 0.2138 0.0
C777 C 0.786 0.79245 0.2266 0.0
C778 C 0.79055 0.76682 0.29331 0.0
C779 C 0.78092 0.74886 0.34845 0.0
H780 H 0.13325 0.89484 0.3892 0.0
H781 H 0.13316 0.88309 0.6728 0.0
H782 H 0.13505 0.96623 0.70976 0.0
H783 H 0.15589 0.98972 0.39534 0.0
H784 H 0.14647 0.017 0.31518 0.0
H785 H 0.14584 0.95629 0.31027 0.0
H786 H 0.1197 0.95941 0.32074 0.0
H787 H 0.12017 0.0201 0.32558 0.0
H788 H 0.11178 0.99502 0.41296 0.0
H789 H 0.1391 0.04959 0.71492 0.0
H790 H 0.14034 0.12982 0.69051 0.0
H791 H 0.13402 0.08986 0.4051 0.0
C792 C 0.13362 0.91002 0.45891 0.0
C793 C 0.13323 0.88282 0.52862 0.0
C794 C 0.13343 0.90353 0.61898 0.0
C795 C 0.1346 0.95064 0.64038 0.0
C796 C 0.13509 0.97666 0.57037 0.0
C797 C 0.13422 0.95731 0.48147 0.0
C798 C 0.13398 0.99347 0.41966 0.0
C799 C 0.14628 0.98883 0.35637 0.0
C800 C 0.12061 0.9919 0.36663 0.0
C801 C 0.13497 0.03605 0.48774 0.0
C802 C 0.13598 0.02536 0.57406 0.0
C803 C 0.13802 0.05848 0.64791 0.0
C804 C 0.13879 0.10383 0.63341 0.0
C805 C 0.13697 0.11579 0.54641 0.0
C806 C 0.1351 0.08147 0.47255 0.0
H807 H 0.88692 0.42909 0.6717 0.0
H808 H 0.8819 0.36733 0.39548 0.0
H809 H 0.88001 0.44294 0.34743 0.0
H810 H 0.86412 0.52213 0.66522 0.0
H811 H 0.87441 0.56371 0.733 0.0
H812 H 0.87542 0.50493 0.74836 0.0
H813 H 0.90125 0.50401 0.7205 0.0
H814 H 0.90056 0.56318 0.70787 0.0
H815 H 0.90778 0.52292 0.62015 0.0
H816 H 0.87755 0.52527 0.33033 0.0
H817 H 0.8768 0.60904 0.34392 0.0
H818 H 0.88533 0.61805 0.62838 0.0
C819 C 0.88545 0.43177 0.60124 0.0
C820 C 0.88462 0.39257 0.53684 0.0
C821 C 0.88281 0.39705 0.44522 0.0
C822 C 0.88159 0.43984 0.41755 0.0
C823 C 0.88246 0.47798 0.48231 0.0
C824 C 0.88454 0.47448 0.57214 0.0
C825 C 0.88559 0.52104 0.62731 0.0
C826 C 0.87421 0.52839 0.69763 0.0
C827 C 0.89963 0.5282 0.67155 0.0
C828 C 0.88367 0.55103 0.55463 0.0
C829 C 0.8817 0.5255 0.47167 0.0
C830 C 0.87921 0.54562 0.39485 0.0
C831 C 0.87876 0.59309 0.4031 0.0
C832 C 0.88105 0.6198 0.48711 0.0
C833 C 0.88364 0.59842 0.56344 0.0
H834 H 0.89053 0.90513 0.44496 0.0
H835 H 0.86315 0.89205 0.66559 0.0
H836 H 0.86191 0.97525 0.70063 0.0
H837 H 0.90865 0.00482 0.55061 0.0
H838 H 0.9098 0.03041 0.44918 0.0
H839 H 0.90912 0.96963 0.4429 0.0
H840 H 0.88825 0.96729 0.33737 0.0
H841 H 0.88892 0.02802 0.34321 0.0
H842 H 0.87355 1.00099 0.37293 0.0
H843 H 0.86408 0.05892 0.71546 0.0
H844 H 0.8676 0.13907 0.70094 0.0
H845 H 0.89219 0.10036 0.46327 0.0
C846 C 0.88434 0.91986 0.50092 0.0
C847 C 0.87697 0.89203 0.55286 0.0
C848 C 0.86883 0.91258 0.62467 0.0
C849 C 0.86812 0.95984 0.64542 0.0
C850 C 0.87548 0.98627 0.5931 0.0
C851 C 0.88331 0.96721 0.52167 0.0
C852 C 0.88969 0.00377 0.47404 0.0
C853 C 0.90524 1.00203 0.47953 0.0
C854 C 0.88481 0.99977 0.37608 0.0
C855 C 0.88417 0.04625 0.52985 0.0
C856 C 0.87617 0.03512 0.59889 0.0
C857 C 0.87018 0.06806 0.66103 0.0
C858 C 0.87222 0.11361 0.65185 0.0
C859 C 0.87998 0.12626 0.57996 0.0
C860 C 0.88614 0.0919 0.51859 0.0
H861 H 0.13043 0.60624 0.59905 0.0
H862 H 0.1385 0.6014 0.3147 0.0
H863 H 0.13871 0.51752 0.29718 0.0
H864 H 0.15286 0.51262 0.6288 0.0
H865 H 0.14218 0.49148 0.71083 0.0
H866 H 0.14212 0.55098 0.70041 0.0
H867 H 0.11613 0.54793 0.67604 0.0
H868 H 0.1161 0.48839 0.68584 0.0
H869 H 0.10908 0.50775 0.58723 0.0
H870 H 0.13682 0.43507 0.30897 0.0
H871 H 0.13568 0.3583 0.35158 0.0
H872 H 0.13088 0.41484 0.63087 0.0
C873 C 0.13218 0.58727 0.53323 0.0
C874 C 0.13431 0.60982 0.45775 0.0
C875 C 0.13684 0.58441 0.37293 0.0
C876 C 0.13693 0.53692 0.36246 0.0
C877 C 0.13477 0.51552 0.438 0.0
C878 C 0.13268 0.53975 0.52209 0.0
C879 C 0.1313 0.50822 0.59276 0.0
C880 C 0.1428 0.51631 0.66231 0.0
C881 C 0.11732 0.5134 0.63813 0.0
C882 C 0.1327 0.46244 0.53494 0.0
C883 C 0.13451 0.46765 0.44573 0.0
C884 C 0.13547 0.43062 0.3786 0.0
C885 C 0.13464 0.38712 0.40316 0.0
C886 C 0.13317 0.38078 0.49401 0.0
C887 C 0.1322 0.41892 0.56096 0.0
H888 H 0.6332 0.60753 0.14913 0.0
H889 H 0.63456 0.6141 0.86334 0.0
H890 H 0.63626 0.53038 0.8329 0.0
H891 H 0.65598 0.51322 0.15358 0.0
H892 H 0.6463 0.4881 0.2354 0.0
H893 H 0.64578 0.54846 0.23474 0.0
H894 H 0.61962 0.54531 0.22095 0.0
H895 H 0.62003 0.48493 0.22162 0.0
H896 H 0.6119 0.50788 0.13043 0.0
H897 H 0.63894 0.44677 0.83446 0.0
H898 H 0.64022 0.36769 0.86635 0.0
H899 H 0.6347 0.414 0.15011 0.0
C900 C 0.63396 0.59109 0.08037 0.0
C901 C 0.63394 0.61674 1.00828 0.0
C902 C 0.63464 0.59461 0.91902 0.0
C903 C 0.63562 0.54727 0.90131 0.0
C904 C 0.63559 0.52268 0.97372 0.0
C905 C 0.63458 0.54371 0.06143 0.0
C906 C 0.63412 0.50918 0.12656 0.0
C907 C 0.64627 0.5151 0.19139 0.0
C908 C 0.62061 0.51199 0.17791 0.0
C909 C 0.63519 0.46545 0.06188 0.0
C910 C 0.63621 0.47416 0.97414 0.0
C911 C 0.63799 0.43952 0.90271 0.0
C912 C 0.63875 0.39483 0.92137 0.0
C913 C 0.63741 0.38508 1.01029 0.0
C914 C 0.63553 0.42076 0.08141 0.0
H915 H 0.39076 0.89154 0.92521 0.0
H916 H 0.37535 0.90106 0.19684 0.0
H917 H 0.37355 0.98422 0.20399 0.0
H918 H 0.40965 0.99614 0.94762 0.0
H919 H 0.40473 0.00995 0.83917 0.0
H920 H 0.40571 0.95158 0.85737 0.0
H921 H 0.38074 0.93891 0.80523 0.0
H922 H 0.37984 0.99717 0.78592 0.0
H923 H 0.36772 0.97555 0.85872 0.0
H924 H 0.37373 0.06574 0.18282 0.0
H925 H 0.37484 0.14086 0.13245 0.0
H926 H 0.3878 0.07928 0.86867 0.0
C927 C 0.38708 0.91123 0.98616 0.0
C928 C 0.38319 0.89002 0.06057 0.0
C929 C 0.37837 0.91678 0.13923 0.0
C930 C 0.3773 0.96395 0.14378 0.0
C931 C 0.38086 0.98374 0.06843 0.0
C932 C 0.38555 0.9583 0.99075 0.0
C933 C 0.38796 0.9879 0.91778 0.0
C934 C 0.4029 0.98629 0.88881 0.0
C935 C 0.3785 0.97404 0.83715 0.0
C936 C 0.38417 0.03413 0.9673 0.0
C937 C 0.38016 0.03074 0.05426 0.0
C938 C 0.37661 0.06868 0.11447 0.0
C939 C 0.37715 0.11119 0.08519 0.0
C940 C 0.38091 0.11557 0.99624 0.0
C941 C 0.38456 0.07658 0.93648 0.0
H942 H 0.38065 0.39808 0.87688 0.0
H943 H 0.38435 0.3851 0.15895 0.0
H944 H 0.38338 0.46835 0.19787 0.0
H945 H 0.40242 0.49608 0.88728 0.0
H946 H 0.39283 0.52222 0.80622 0.0
H947 H 0.39295 0.46146 0.80075 0.0
H948 H 0.36676 0.46089 0.80804 0.0
H949 H 0.36649 0.52166 0.81362 0.0
H950 H 0.35825 0.49507 0.89958 0.0
H951 H 0.38105 0.55249 0.20641 0.0
H952 H 0.38002 0.63303 0.18363 0.0
H953 H 0.38031 0.59322 0.89527 0.0
C954 C 0.3812 0.413 0.9467 0.0
C955 C 0.38253 0.38545 1.01542 0.0
C956 C 0.38344 0.40581 0.10582 0.0
C957 C 0.38281 0.45299 0.12838 0.0
C958 C 0.38157 0.4794 0.05932 0.0
C959 C 0.38099 0.46028 0.97017 0.0
C960 C 0.38044 0.49666 0.90892 0.0
C961 C 0.3929 0.49394 0.84715 0.0
C962 C 0.36719 0.49336 0.85432 0.0
C963 C 0.38073 0.53916 0.97761 0.0
C964 C 0.38114 0.52826 0.06401 0.0
C965 C 0.38088 0.56145 0.13912 0.0
C966 C 0.38026 0.60699 0.12566 0.0
C967 C 0.38026 0.61896 0.03798 0.0
C968 C 0.38051 0.58469 0.96296 0.0
H969 H 0.63814 0.1082 0.13386 0.0
H970 H 0.63401 0.10713 0.84695 0.0
H971 H 0.63178 0.02346 0.82647 0.0
H972 H 0.65897 0.00674 0.11836 0.0
H973 H 0.65153 0.9871 0.21525 0.0
H974 H 0.65231 0.04689 0.20868 0.0
H975 H 0.62643 0.0537 0.23174 0.0
H976 H 0.62546 0.994 0.23929 0.0
H977 H 0.61525 0.01782 0.15808 0.0
H978 H 0.6273 0.94167 0.84076 0.0
H979 H 0.62501 0.86514 0.88356 0.0
H980 H 0.63606 0.91685 0.15755 0.0
C981 C 0.63678 0.09021 0.06696 0.0
C982 C 0.63608 0.11375 0.99188 0.0
C983 C 0.63455 0.08937 0.90496 0.0
C984 C 0.63323 0.04203 0.89294 0.0
C985 C 0.63388 0.01969 0.96845 0.0
C986 C 0.63595 0.04282 0.05357 0.0
C987 C 0.63679 0.01042 0.12289 0.0
C988 C 0.65074 0.01296 0.16896 0.0
C989 C 0.6253 0.01954 0.19209 0.0
C990 C 0.6348 0.96545 0.06349 0.0
C991 C 0.6328 0.9718 0.97502 0.0
C992 C 0.62935 0.93609 0.90908 0.0
C993 C 0.62817 0.89268 0.93382 0.0
C994 C 0.63107 0.88482 0.02249 0.0
C995 C 0.63432 0.92178 0.08846 0.0
H996 H 0.14688 0.19759 0.20411 0.0
H997 H 0.11891 0.30857 0.28417 0.0
H998 H 0.11808 0.32536 0.13041 0.0
H999 H 0.16505 0.24436 0.03242 0.0
H1000 H 0.16509 0.19469 0.94892 0.0
H1001 H 0.16454 0.18848 0.06606 0.0
H1002 H 0.14281 0.14163 0.0476 0.0
H1003 H 0.14336 0.14425 0.92861 0.0
H1004 H 0.12838 0.16245 0.99196 0.0
H1005 H 0.1201 0.33285 0.97198 0.0
H1006 H 0.1231 0.32508 0.80865 0.0
H1007 H 0.14781 0.20518 0.81715 0.0
C1008 C 0.14074 0.2257 0.18916 0.0
C1009 C 0.13333 0.25265 0.25798 0.0
C1010 C 0.125 0.28799 0.23435 0.0
C1011 C 0.1244 0.29794 0.14658 0.0
C1012 C 0.13181 0.27135 0.08091 0.0
C1013 C 0.13959 0.23526 0.09975 0.0
C1014 C 0.14542 0.21006 1.0128 0.0
C1015 C 0.16096 0.20946 1.01529 0.0
C1016 C 0.13965 0.16173 0.99417 0.0
C1017 C 0.14017 0.23903 0.94413 0.0
C1018 C 0.13232 0.27407 0.98578 0.0
C1019 C 0.12618 0.30542 0.93829 0.0
C1020 C 0.12793 0.30063 0.84527 0.0
C1021 C 0.13562 0.26444 0.79968 0.0
C1022 C 0.14197 0.23344 0.85014 0.0
H1023 H 0.87304 0.20019 0.24474 0.0
H1024 H 0.8989 0.3145 0.33876 0.0
H1025 H 0.90077 0.33256 0.18373 0.0
H1026 H 0.89249 0.16784 0.03371 0.0
H1027 H 0.87764 0.14913 0.96899 0.0
H1028 H 0.87818 0.14539 0.08756 0.0
H1029 H 0.8561 0.19125 0.10763 0.0
H1030 H 0.85558 0.19745 0.99038 0.0
H1031 H 0.85532 0.24703 0.0741 0.0
H1032 H 0.89828 0.34228 0.02046 0.0
H1033 H 0.89458 0.33648 0.85705 0.0
H1034 H 0.8728 0.21051 0.86006 0.0
C1035 C 0.87921 0.22866 0.23214 0.0
C1036 C 0.8857 0.25646 0.30424 0.0
C1037 C 0.89367 0.29333 0.28505 0.0
C1038 C 0.89482 0.30376 0.19701 0.0
C1039 C 0.88815 0.27638 0.12758 0.0
C1040 C 0.88077 0.23889 0.14348 0.0
C1041 C 0.87517 0.2141 0.0553 0.0
C1042 C 0.88123 0.16627 0.03522 0.0
C1043 C 0.85961 0.21241 0.05701 0.0
C1044 C 0.8802 0.24422 0.98817 0.0
C1045 C 0.88759 0.28012 0.03182 0.0
C1046 C 0.89279 0.31367 0.9855 0.0
C1047 C 0.89073 0.30991 0.8922 0.0
C1048 C 0.88386 0.2723 0.84444 0.0
C1049 C 0.87829 0.23942 0.89395 0.0
H1050 H 0.13448 0.68675 0.16228 0.0
H1051 H 0.13548 0.83089 0.25566 0.0
H1052 H 0.13337 0.84658 0.09888 0.0
H1053 H 0.15548 0.69325 0.9693 0.0
H1054 H 0.14679 0.64931 0.8958 0.0
H1055 H 0.147 0.64823 1.01522 0.0
H1056 H 0.12085 0.64656 0.01947 0.0
H1057 H 0.12064 0.64576 0.89945 0.0
H1058 H 0.11139 0.6888 0.97035 0.0
H1059 H 0.12967 0.84665 0.93144 0.0
H1060 H 0.12809 0.83172 0.76599 0.0
H1061 H 0.13306 0.68815 0.77452 0.0
C1062 C 0.13425 0.72158 0.14941 0.0
C1063 C 0.1351 0.75773 0.22171 0.0
C1064 C 0.13492 0.80275 0.20181 0.0
C1065 C 0.13363 0.81194 0.11276 0.0
C1066 C 0.13287 0.77576 0.04302 0.0
C1067 C 0.1334 0.7314 0.06002 0.0
C1068 C 0.13337 0.69896 0.97185 0.0
C1069 C 0.14645 0.67078 0.96238 0.0
C1070 C 0.12081 0.6682 0.965 0.0
C1071 C 0.13271 0.73193 0.90281 0.0
C1072 C 0.13207 0.77601 0.9458 0.0
C1073 C 0.1304 0.8123 0.89731 0.0
C1074 C 0.12949 0.80353 0.80298 0.0
C1075 C 0.13067 0.75904 0.75655 0.0
C1076 C 0.13232 0.72271 0.80772 0.0
H1077 H 0.87841 0.81916 0.83348 0.0
H1078 H 0.88401 0.67633 0.74115 0.0
H1079 H 0.8824 0.65983 0.89714 0.0
H1080 H 0.89923 0.82068 0.03136 0.0
H1081 H 0.88903 0.86044 0.10381 0.0
H1082 H 0.88933 0.8624 0.98458 0.0
H1083 H 0.86332 0.85364 0.9735 0.0
H1084 H 0.86279 0.85407 0.09343 0.0
H1085 H 0.85525 0.80787 0.01991 0.0
H1086 H 0.87909 0.65816 0.06422 0.0
H1087 H 0.87712 0.67215 0.22982 0.0
H1088 H 0.87643 0.81678 0.22133 0.0
C1089 C 0.87929 0.78445 0.84637 0.0
C1090 C 0.88126 0.7488 0.77412 0.0
C1091 C 0.88252 0.70405 0.79452 0.0
C1092 C 0.88155 0.69438 0.88334 0.0
C1093 C 0.87964 0.73001 0.95292 0.0
C1094 C 0.87874 0.77432 0.93585 0.0
C1095 C 0.87744 0.80639 0.02408 0.0
C1096 C 0.88947 0.83943 0.03675 0.0
C1097 C 0.8639 0.83202 0.02789 0.0
C1098 C 0.87777 0.77327 0.09303 0.0
C1099 C 0.87874 0.72929 0.05001 0.0
C1100 C 0.87847 0.69253 0.09838 0.0
C1101 C 0.87727 0.70076 0.19267 0.0
C1102 C 0.87673 0.74545 0.23911 0.0
C1103 C 0.877 0.7822 0.18808 0.0
H1104 H 0.62286 0.70477 0.33735 0.0
H1105 H 0.64481 0.83055 0.33151 0.0
H1106 H 0.64691 0.84015 0.49612 0.0
H1107 H 0.60421 0.73972 0.54248 0.0
H1108 H 0.60575 0.68704 0.58751 0.0
H1109 H 0.60577 0.68682 0.46817 0.0
H1110 H 0.62859 0.64577 0.45062 0.0
H1111 H 0.62867 0.64336 0.56973 0.0
H1112 H 0.64281 0.6681 0.51833 0.0
H1113 H 0.64623 0.83825 0.66242 0.0
H1114 H 0.64314 0.82336 0.81833 0.0
H1115 H 0.62232 0.6981 0.72296 0.0
C1116 C 0.62798 0.73456 0.37079 0.0
C1117 C 0.63358 0.76712 0.32039 0.0
C1118 C 0.64042 0.80508 0.36749 0.0
C1119 C 0.64166 0.81093 0.46149 0.0
C1120 C 0.63607 0.77849 0.50893 0.0
C1121 C 0.62939 0.7409 0.46553 0.0
C1122 C 0.62464 0.71078 0.53376 0.0
C1123 C 0.60916 0.70588 0.53283 0.0
C1124 C 0.6316 0.66424 0.51711 0.0
C1125 C 0.62941 0.73783 0.62167 0.0
C1126 C 0.63602 0.77673 0.60542 0.0
C1127 C 0.6411 0.80777 0.67554 0.0
C1128 C 0.63931 0.79906 0.7642 0.0
C1129 C 0.63258 0.75962 0.7831 0.0
C1130 C 0.62757 0.72851 0.71057 0.0
H1131 H 0.38213 0.69327 0.71643 0.0
H1132 H 0.38424 0.83706 0.81032 0.0
H1133 H 0.38279 0.85331 0.65391 0.0
H1134 H 0.40342 0.69722 0.52321 0.0
H1135 H 0.39425 0.65455 0.44982 0.0
H1136 H 0.39437 0.65336 0.56925 0.0
H1137 H 0.36817 0.65524 0.57382 0.0
H1138 H 0.368 0.65467 0.45381 0.0
H1139 H 0.35929 0.69889 0.52542 0.0
H1140 H 0.3802 0.85418 0.48593 0.0
H1141 H 0.37889 0.83966 0.31996 0.0
H1142 H 0.38103 0.69523 0.32922 0.0
C1143 C 0.38228 0.72813 0.70374 0.0
C1144 C 0.38335 0.76408 0.77618 0.0
C1145 C 0.38362 0.80911 0.75644 0.0
C1146 C 0.3827 0.81862 0.66749 0.0
C1147 C 0.38178 0.78263 0.59754 0.0
C1148 C 0.38174 0.7382 0.6144 0.0
C1149 C 0.38139 0.7059 0.5262 0.0
C1150 C 0.39412 0.67598 0.51649 0.0
C1151 C 0.36844 0.67695 0.51949 0.0
C1152 C 0.38122 0.73902 0.45736 0.0
C1153 C 0.38118 0.78314 0.50035 0.0
C1154 C 0.38034 0.81974 0.45179 0.0
C1155 C 0.37952 0.81119 0.35735 0.0
C1156 C 0.37988 0.76644 0.31118 0.0
C1157 C 0.38083 0.72988 0.36236 0.0
H1158 H 0.63598 0.31014 0.34703 0.0
H1159 H 0.6368 0.16641 0.25106 0.0
H1160 H 0.6387 0.14992 0.40712 0.0
H1161 H 0.6586 0.30973 0.5406 0.0
H1162 H 0.64879 0.35095 0.61247 0.0
H1163 H 0.64875 0.35137 0.49271 0.0
H1164 H 0.62256 0.34576 0.49239 0.0
H1165 H 0.62257 0.3445 0.61181 0.0
H1166 H 0.61454 0.29952 0.53743 0.0
H1167 H 0.64131 0.14901 0.57509 0.0
H1168 H 0.64179 0.16301 0.74124 0.0
H1169 H 0.63619 0.30656 0.7338 0.0
C1170 C 0.63664 0.27526 0.35917 0.0
C1171 C 0.63638 0.23939 0.2862 0.0
C1172 C 0.637 0.19428 0.30529 0.0
C1173 C 0.63814 0.18466 0.39404 0.0
C1174 C 0.63827 0.22051 0.4645 0.0
C1175 C 0.63732 0.26495 0.44833 0.0
C1176 C 0.63672 0.29685 0.53698 0.0
C1177 C 0.64894 0.32915 0.5462 0.0
C1178 C 0.6233 0.32323 0.54515 0.0
C1179 C 0.6375 0.2635 0.60522 0.0
C1180 C 0.63868 0.2197 0.56163 0.0
C1181 C 0.64024 0.18316 0.6097 0.0
C1182 C 0.64054 0.19142 0.70429 0.0
C1183 C 0.63894 0.23572 0.75103 0.0
C1184 C 0.63731 0.27221 0.70028 0.0
H1185 H 0.38052 0.19186 0.25801 0.0
H1186 H 0.38952 0.33341 0.2515 0.0
H1187 H 0.3885 0.34776 0.41725 0.0
H1188 H 0.35849 0.20328 0.45418 0.0
H1189 H 0.36556 0.15455 0.49566 0.0
H1190 H 0.3657 0.15777 0.37688 0.0
H1191 H 0.39168 0.14469 0.37905 0.0
H1192 H 0.39159 0.14448 0.49887 0.0
H1193 H 0.40224 0.18381 0.45044 0.0
H1194 H 0.38444 0.3478 0.58481 0.0
H1195 H 0.38179 0.33176 0.74083 0.0
H1196 H 0.37939 0.1881 0.64431 0.0
C1197 C 0.38224 0.22586 0.29141 0.0
C1198 C 0.38482 0.26184 0.24073 0.0
C1199 C 0.38734 0.30553 0.28794 0.0
C1200 C 0.38677 0.31396 0.38247 0.0
C1201 C 0.38413 0.27798 0.4303 0.0
C1202 C 0.38226 0.23451 0.38649 0.0
C1203 C 0.38066 0.20135 0.4546 0.0
C1204 C 0.36678 0.17783 0.4446 0.0
C1205 C 0.39223 0.16652 0.44522 0.0
C1206 C 0.38162 0.23308 0.54333 0.0
C1207 C 0.38332 0.2773 0.52738 0.0
C1208 C 0.38336 0.31319 0.59783 0.0
C1209 C 0.38177 0.30378 0.68646 0.0
C1210 C 0.38061 0.25871 0.7054 0.0
C1211 C 0.38055 0.22287 0.63235 0.0
H1212 H 0.03139 0.16017 0.45357 0.0
H1213 H 0.04864 0.2709 0.3328 0.0
H1214 H 0.02563 0.30269 0.31885 0.0
H1215 H 1.00306 0.14241 0.31729 0.0
H1216 H 0.99157 0.13015 0.40382 0.0
H1217 H 0.0094 0.11923 0.41375 0.0
H1218 H 0.01005 0.16977 0.56854 0.0
H1219 H 0.99215 0.18051 0.55962 0.0
H1220 H 1.0039 0.22719 0.57843 0.0
H1221 H 1.00046 0.31581 0.29891 0.0
H1222 H 0.97538 0.31372 0.28882 0.0
H1223 H 0.97473 0.19646 0.4295 0.0
C1224 C 0.03033 0.19162 0.42583 0.0
C1225 C 0.04175 0.21316 0.39412 0.0
C1226 C 0.04001 0.25418 0.35817 0.0
C1227 C 0.02699 0.2723 0.34969 0.0
C1228 C 0.01587 0.24936 0.37899 0.0
C1229 C 0.01745 0.21037 0.41801 0.0
C1230 C 1.00389 0.19112 0.4409 0.0
C1231 C 1.00187 0.14289 0.39094 0.0
C1232 C 1.00241 0.19224 0.54294 0.0
C1233 C 0.99437 0.22446 0.40595 0.0
C1234 C 1.00145 0.25783 0.37045 0.0
C1235 C 0.99482 0.29037 0.32809 0.0
C1236 C 0.98061 0.28879 0.32215 0.0
C1237 C 0.97319 0.2552 0.35909 0.0
C1238 C 0.98018 0.22295 0.40215 0.0
H1239 H 0.98396 0.84434 0.58285 0.0
H1240 H 0.96544 0.72236 0.65401 0.0
H1241 H 0.98813 0.68717 0.65792 0.0
H1242 H 0.01146 0.78681 0.44201 0.0
H1243 H 0.02352 0.83088 0.47944 0.0
H1244 H 1.00576 0.8443 0.47312 0.0
H1245 H 1.00616 0.87982 0.64047 0.0
H1246 H 0.02387 0.86626 0.64752 0.0
H1247 H 0.01197 0.84635 0.72403 0.0
H1248 H 0.01306 0.66951 0.67396 0.0
H1249 H 0.03809 0.66842 0.68853 0.0
H1250 H 0.04037 0.80043 0.60047 0.0
C1251 C 0.98466 0.80993 0.59785 0.0
C1252 C 0.97291 0.78607 0.61819 0.0
C1253 C 0.97426 0.74109 0.63725 0.0
C1254 C 0.98712 0.72093 0.64003 0.0
C1255 C 0.99853 0.74592 0.62217 0.0
C1256 C 0.99739 0.7892 0.59995 0.0
C1257 C 0.01123 0.80957 0.58714 0.0
C1258 C 0.0131 0.8184 0.48962 0.0
C1259 C 0.01343 0.85306 0.65377 0.0
C1260 C 0.02037 0.77162 0.60848 0.0
C1261 C 0.01285 0.73514 0.62841 0.0
C1262 C 0.01903 0.69748 0.65672 0.0
C1263 C 0.03322 0.69717 0.66508 0.0
C1264 C 0.04109 0.73402 0.64438 0.0
C1265 C 0.03457 0.77145 0.61483 0.0
H1266 H 0.53574 0.70114 0.90761 0.0
H1267 H 0.54367 0.82237 0.78705 0.0
H1268 H 0.51917 0.83916 0.78752 0.0
H1269 H 0.50632 0.66856 0.78078 0.0
H1270 H 0.49718 0.64745 0.86995 0.0
H1271 H 0.51542 0.64718 0.8701 0.0
H1272 H 0.51557 0.6936 0.02899 0.0
H1273 H 0.4973 0.69394 0.02939 0.0
H1274 H 0.50653 0.74659 0.04864 0.0
H1275 H 0.49406 0.84015 0.78905 0.0
H1276 H 0.46951 0.82478 0.78953 0.0
H1277 H 0.47698 0.70251 0.90792 0.0
C1278 C 0.53228 0.73166 0.88316 0.0
C1279 C 0.5416 0.76067 0.84764 0.0
C1280 C 0.5367 0.79976 0.81441 0.0
C1281 C 0.52282 0.80965 0.81475 0.0
C1282 C 0.51386 0.78008 0.84843 0.0
C1283 C 0.51834 0.74187 0.88219 0.0
C1284 C 0.50638 0.71424 0.90844 0.0
C1285 C 0.50633 0.66654 0.85405 0.0
C1286 C 0.50645 0.71197 1.00991 0.0
C1287 C 0.49453 0.74244 0.88231 0.0
C1288 C 0.49916 0.78048 0.8487 0.0
C1289 C 0.49031 0.81071 0.81595 0.0
C1290 C 0.47638 0.80161 0.81617 0.0
C1291 C 0.47132 0.76255 0.84881 0.0
C1292 C 0.48054 0.73297 0.88377 0.0
H1293 H 0.48048 0.24159 0.25069 0.0
H1294 H 0.47251 0.27976 0.98706 0.0
H1295 H 0.49706 0.28485 0.96114 0.0
H1296 H 0.50685 0.3201 0.30537 0.0
H1297 H 0.5167 0.28359 0.36642 0.0
H1298 H 0.49858 0.27725 0.35945 0.0
H1299 H 0.50149 0.19268 0.29362 0.0
H1300 H 0.51965 0.19886 0.29997 0.0
H1301 H 0.51167 0.17776 0.19448 0.0
H1302 H 0.52266 0.2906 0.9675 0.0
H1303 H 0.54679 0.30179 1.0108 0.0
H1304 H 0.53781 0.26403 0.27253 0.0
C1305 C 0.48383 0.25098 0.18732 0.0
C1306 C 0.47442 0.25978 0.12073 0.0
C1307 C 0.4794 0.27165 0.03858 0.0
C1308 C 0.49338 0.27488 0.02324 0.0
C1309 C 0.50232 0.26637 0.09069 0.0
C1310 C 0.49772 0.2549 0.1713 0.0
C1311 C 0.50934 0.25088 0.23562 0.0
C1312 C 0.50777 0.285 0.32177 0.0
C1313 C 0.51061 0.20214 0.25716 0.0
C1314 C 0.52116 0.26303 0.17952 0.0
C1315 C 0.51696 0.27102 0.09545 0.0
C1316 C 0.52607 0.28411 0.03294 0.0
C1317 C 0.53976 0.29018 0.05786 0.0
C1318 C 0.54414 0.28381 0.14492 0.0
C1319 C 0.53472 0.26924 0.20557 0.0
loop_
_geom_bond_atom_site_label_1
_geom_bond_atom_site_label_2
_geom_bond_distance
_geom_bond_site_symmetry_2
_ccdc_geom_bond_type
Eu0 N29 2.600 . S
Eu0 N35 2.562 . S
Eu0 O44 2.462 . S
Eu0 O45 2.373 . S
Eu0 O47 2.432 . S
Eu0 O48 2.291 . S
Eu0 O52 2.335 . S
Eu0 O55 2.372 . S
Eu0 C64 2.787 . S
C1 N2 1.365 . S
C1 C4 1.405 . S
C1 C8 1.448 . S
N2 C1 1.365 . S
N2 C5 1.319 . S
N2 Eu11 2.600 . S
C3 C5 1.397 . S
C3 C6 1.367 . S
C3 H23 0.931 . S
C4 C1 1.405 . S
C4 C6 1.403 . S
C4 C10 1.439 . S
C5 N2 1.319 . S
C5 C3 1.397 . S
C5 H16 0.930 . S
C6 C3 1.367 . S
C6 C4 1.403 . S
C6 H27 0.929 . S
C7 C8 1.430 . S
C7 C9 1.387 . S
C7 C13 1.404 . S
C8 C1 1.448 . S
C8 C7 1.430 . S
C8 N12 1.351 . S
C9 C7 1.387 . S
C9 C10 1.374 . S
C9 H24 0.931 . S
C10 C4 1.439 . S
C10 C9 1.374 . S
C10 H25 0.931 . S
Eu11 N2 2.600 . S
Eu11 N12 2.562 . S
Eu11 O46 2.335 . S
Eu11 O49 2.372 . S
Eu11 O50 2.462 . S
Eu11 O51 2.373 . S
Eu11 O53 2.432 . S
Eu11 O54 2.291 . S
Eu11 C75 2.787 . S
N12 C8 1.351 . S
N12 Eu11 2.562 . S
N12 C14 1.325 . S
C13 C7 1.404 . S
C13 C15 1.366 . S
C13 H21 0.930 . S
C14 N12 1.325 . S
C14 C15 1.416 . S
C14 H20 0.929 . S
C15 C13 1.366 . S
C15 C14 1.416 . S
C15 H17 0.930 . S
H16 C5 0.930 . S
H17 C15 0.930 . S
H18 C33 0.930 . S
H19 C40 0.930 . S
H20 C14 0.929 . S
H21 C13 0.930 . S
H22 C36 0.929 . S
H23 C3 0.931 . S
H24 C9 0.931 . S
H25 C10 0.931 . S
H26 C31 0.931 . S
H27 C6 0.929 . S
H28 C39 0.930 . S
N29 Eu0 2.600 . S
N29 C30 1.365 . S
N29 C33 1.319 . S
C30 N29 1.365 . S
C30 C32 1.405 . S
C30 C38 1.448 . S
C31 H26 0.931 . S
C31 C33 1.397 . S
C31 C34 1.367 . S
C32 C30 1.405 . S
C32 C34 1.403 . S
C32 C65 1.439 . S
C33 H18 0.930 . S
C33 N29 1.319 . S
C33 C31 1.397 . S
C34 C31 1.367 . S
C34 C32 1.403 . S
C34 H41 0.929 . S
N35 Eu0 2.562 . S
N35 C36 1.325 . S
N35 C38 1.351 . S
C36 H22 0.929 . S
C36 N35 1.325 . S
C36 C40 1.416 . S
C37 C38 1.430 . S
C37 C39 1.404 . S
C37 C66 1.387 . S
C38 C30 1.448 . S
C38 N35 1.351 . S
C38 C37 1.430 . S
C39 H28 0.930 . S
C39 C37 1.404 . S
C39 C40 1.366 . S
C40 H19 0.930 . S
C40 C36 1.416 . S
C40 C39 1.366 . S
H41 C34 0.929 . S
H42 C65 0.931 . S
H43 C66 0.931 . S
O44 Eu0 2.462 . S
O44 C64 1.252 . S
O45 Eu0 2.373 . S
O45 C56 1.249 . S
O46 Eu11 2.335 . S
O46 C56 1.264 . S
O47 Eu0 2.432 . S
O47 C64 1.268 . S
O48 Eu0 2.291 . S
O48 C63 1.255 . S
O49 Eu11 2.372 . S
O49 C63 1.257 . S
O50 Eu11 2.462 . S
O50 C75 1.252 . S
O51 Eu11 2.373 . S
O51 C67 1.249 . S
O52 Eu0 2.335 . S
O52 C67 1.264 . S
O53 Eu11 2.432 . S
O53 C75 1.268 . S
O54 Eu11 2.291 . S
O54 C74 1.255 . S
O55 Eu0 2.372 . S
O55 C74 1.257 . S
C56 O45 1.249 . S
C56 O46 1.264 . S
C57 C60 1.382 . S
C57 C62 1.390 . S
C57 C64 1.506 . S
C58 C59 1.398 . S
C58 C62 1.392 . S
C59 C58 1.398 . S
C59 C61 1.372 . S
C59 H76 0.931 . S
C60 C57 1.382 . S
C60 C61 1.390 . S
C60 H77 0.931 . S
C61 C59 1.372 . S
C61 C60 1.390 . S
C61 H78 0.929 . S
C62 C57 1.390 . S
C62 C58 1.392 . S
C62 H79 0.930 . S
C63 O48 1.255 . S
C63 O49 1.257 . S
C64 Eu0 2.787 . S
C64 O44 1.252 . S
C64 O47 1.268 . S
C64 C57 1.506 . S
C65 C32 1.439 . S
C65 H42 0.931 . S
C65 C66 1.374 . S
C66 C37 1.387 . S
C66 H43 0.931 . S
C66 C65 1.374 . S
C67 O51 1.249 . S
C67 O52 1.264 . S
C68 C71 1.382 . S
C68 C72 1.390 . S
C68 C75 1.506 . S
C69 C70 1.398 . S
C69 C72 1.392 . S
C70 C69 1.398 . S
C70 C73 1.372 . S
C70 H80 0.931 . S
C71 C68 1.382 . S
C71 C73 1.390 . S
C71 H81 0.931 . S
C72 C68 1.390 . S
C72 C69 1.392 . S
C72 H82 0.930 . S
C73 C70 1.372 . S
C73 C71 1.390 . S
C73 H83 0.929 . S
C74 O54 1.255 . S
C74 O55 1.257 . S
C75 Eu11 2.787 . S
C75 O50 1.252 . S
C75 O53 1.268 . S
C75 C68 1.506 . S
H76 C59 0.931 . S
H77 C60 0.931 . S
H78 C61 0.929 . S
H79 C62 0.930 . S
H80 C70 0.931 . S
H81 C71 0.931 . S
H82 C72 0.930 . S
H83 C73 0.929 . S
Eu84 N113 2.600 . S
Eu84 N119 2.562 . S
Eu84 O128 2.462 . S
Eu84 O129 2.373 . S
Eu84 O131 2.432 . S
Eu84 O132 2.291 . S
Eu84 O136 2.335 . S
Eu84 O139 2.372 . S
Eu84 C148 2.787 . S
C85 N86 1.365 . S
C85 C88 1.405 . S
C85 C92 1.448 . S
N86 C85 1.365 . S
N86 C89 1.319 . S
N86 Eu95 2.600 . S
C87 C89 1.397 . S
C87 C90 1.367 . S
C87 H107 0.931 . S
C88 C85 1.405 . S
C88 C90 1.403 . S
C88 C94 1.439 . S
C89 N86 1.319 . S
C89 C87 1.397 . S
C89 H100 0.930 . S
C90 C87 1.367 . S
C90 C88 1.403 . S
C90 H111 0.929 . S
C91 C92 1.430 . S
C91 C93 1.387 . S
C91 C97 1.404 . S
C92 C85 1.448 . S
C92 C91 1.430 . S
C92 N96 1.351 . S
C93 C91 1.387 . S
C93 C94 1.374 . S
C93 H108 0.931 . S
C94 C88 1.439 . S
C94 C93 1.374 . S
C94 H109 0.931 . S
Eu95 N86 2.600 . S
Eu95 N96 2.562 . S
Eu95 O130 2.335 . S
Eu95 O133 2.372 . S
Eu95 O134 2.462 . S
Eu95 O135 2.373 . S
Eu95 O137 2.432 . S
Eu95 O138 2.291 . S
Eu95 C159 2.787 . S
N96 C92 1.351 . S
N96 Eu95 2.562 . S
N96 C98 1.325 . S
C97 C91 1.404 . S
C97 C99 1.366 . S
C97 H105 0.930 . S
C98 N96 1.325 . S
C98 C99 1.416 . S
C98 H104 0.929 . S
C99 C97 1.366 . S
C99 C98 1.416 . S
C99 H101 0.930 . S
H100 C89 0.930 . S
H101 C99 0.930 . S
H102 C117 0.930 . S
H103 C124 0.930 . S
H104 C98 0.929 . S
H105 C97 0.930 . S
H106 C120 0.929 . S
H107 C87 0.931 . S
H108 C93 0.931 . S
H109 C94 0.931 . S
H110 C115 0.931 . S
H111 C90 0.929 . S
H112 C123 0.930 . S
N113 Eu84 2.600 . S
N113 C114 1.365 . S
N113 C117 1.319 . S
C114 N113 1.365 . S
C114 C116 1.405 . S
C114 C122 1.448 . S
C115 H110 0.931 . S
C115 C117 1.397 . S
C115 C118 1.367 . S
C116 C114 1.405 . S
C116 C118 1.403 . S
C116 C149 1.439 . S
C117 H102 0.930 . S
C117 N113 1.319 . S
C117 C115 1.397 . S
C118 C115 1.367 . S
C118 C116 1.403 . S
C118 H125 0.929 . S
N119 Eu84 2.562 . S
N119 C120 1.325 . S
N119 C122 1.351 . S
C120 H106 0.929 . S
C120 N119 1.325 . S
C120 C124 1.416 . S
C121 C122 1.430 . S
C121 C123 1.404 . S
C121 C150 1.387 . S
C122 C114 1.448 . S
C122 N119 1.351 . S
C122 C121 1.430 . S
C123 H112 0.930 . S
C123 C121 1.404 . S
C123 C124 1.366 . S
C124 H103 0.930 . S
C124 C120 1.416 . S
C124 C123 1.366 . S
H125 C118 0.929 . S
H126 C149 0.931 . S
H127 C150 0.931 . S
O128 Eu84 2.462 . S
O128 C148 1.252 . S
O129 Eu84 2.373 . S
O129 C140 1.249 . S
O130 Eu95 2.335 . S
O130 C140 1.264 . S
O131 Eu84 2.432 . S
O131 C148 1.268 . S
O132 Eu84 2.291 . S
O132 C147 1.255 . S
O133 Eu95 2.372 . S
O133 C147 1.257 . S
O134 Eu95 2.462 . S
O134 C159 1.252 . S
O135 Eu95 2.373 . S
O135 C151 1.249 . S
O136 Eu84 2.335 . S
O136 C151 1.264 . S
O137 Eu95 2.432 . S
O137 C159 1.268 . S
O138 Eu95 2.291 . S
O138 C158 1.255 . S
O139 Eu84 2.372 . S
O139 C158 1.257 . S
C140 O129 1.249 . S
C140 O130 1.264 . S
C141 C144 1.382 . S
C141 C146 1.390 . S
C141 C148 1.506 . S
C142 C143 1.398 . S
C142 C146 1.392 . S
C143 C142 1.398 . S
C143 C145 1.372 . S
C143 H160 0.931 . S
C144 C141 1.382 . S
C144 C145 1.390 . S
C144 H161 0.931 . S
C145 C143 1.372 . S
C145 C144 1.390 . S
C145 H162 0.929 . S
C146 C141 1.390 . S
C146 C142 1.392 . S
C146 H163 0.930 . S
C147 O132 1.255 . S
C147 O133 1.257 . S
C148 Eu84 2.787 . S
C148 O128 1.252 . S
C148 O131 1.268 . S
C148 C141 1.506 . S
C149 C116 1.439 . S
C149 H126 0.931 . S
C149 C150 1.374 . S
C150 C121 1.387 . S
C150 H127 0.931 . S
C150 C149 1.374 . S
C151 O135 1.249 . S
C151 O136 1.264 . S
C152 C155 1.382 . S
C152 C156 1.390 . S
C152 C159 1.506 . S
C153 C154 1.398 . S
C153 C156 1.392 . S
C154 C153 1.398 . S
C154 C157 1.372 . S
C154 H164 0.931 . S
C155 C152 1.382 . S
C155 C157 1.390 . S
C155 H165 0.931 . S
C156 C152 1.390 . S
C156 C153 1.392 . S
C156 H166 0.930 . S
C157 C154 1.372 . S
C157 C155 1.390 . S
C157 H167 0.929 . S
C158 O138 1.255 . S
C158 O139 1.257 . S
C159 Eu95 2.787 . S
C159 O134 1.252 . S
C159 O137 1.268 . S
C159 C152 1.506 . S
H160 C143 0.931 . S
H161 C144 0.931 . S
H162 C145 0.929 . S
H163 C146 0.930 . S
H164 C154 0.931 . S
H165 C155 0.931 . S
H166 C156 0.930 . S
H167 C157 0.929 . S
Eu168 N197 2.600 . S
Eu168 N203 2.562 . S
Eu168 O212 2.462 . S
Eu168 O213 2.373 . S
Eu168 O215 2.432 . S
Eu168 O216 2.291 . S
Eu168 O220 2.335 . S
Eu168 O223 2.372 . S
Eu168 C232 2.787 . S
C169 N170 1.365 . S
C169 C172 1.405 . S
C169 C176 1.448 . S
N170 C169 1.365 . S
N170 C173 1.319 . S
N170 Eu179 2.600 . S
C171 C173 1.397 . S
C171 C174 1.367 . S
C171 H191 0.931 . S
C172 C169 1.405 . S
C172 C174 1.403 . S
C172 C178 1.439 . S
C173 N170 1.319 . S
C173 C171 1.397 . S
C173 H184 0.930 . S
C174 C171 1.367 . S
C174 C172 1.403 . S
C174 H195 0.929 . S
C175 C176 1.430 . S
C175 C177 1.387 . S
C175 C181 1.404 . S
C176 C169 1.448 . S
C176 C175 1.430 . S
C176 N180 1.351 . S
C177 C175 1.387 . S
C177 C178 1.374 . S
C177 H192 0.931 . S
C178 C172 1.439 . S
C178 C177 1.374 . S
C178 H193 0.931 . S
Eu179 N170 2.600 . S
Eu179 N180 2.562 . S
Eu179 O214 2.335 . S
Eu179 O217 2.372 . S
Eu179 O218 2.462 . S
Eu179 O219 2.373 . S
Eu179 O221 2.432 . S
Eu179 O222 2.291 . S
Eu179 C243 2.787 . S
N180 C176 1.351 . S
N180 Eu179 2.562 . S
N180 C182 1.325 . S
C181 C175 1.404 . S
C181 C183 1.366 . S
C181 H189 0.930 . S
C182 N180 1.325 . S
C182 C183 1.416 . S
C182 H188 0.929 . S
C183 C181 1.366 . S
C183 C182 1.416 . S
C183 H185 0.930 . S
H184 C173 0.930 . S
H185 C183 0.930 . S
H186 C201 0.930 . S
H187 C208 0.930 . S
H188 C182 0.929 . S
H189 C181 0.930 . S
H190 C204 0.929 . S
H191 C171 0.931 . S
H192 C177 0.931 . S
H193 C178 0.931 . S
H194 C199 0.931 . S
H195 C174 0.929 . S
H196 C207 0.930 . S
N197 Eu168 2.600 . S
N197 C198 1.365 . S
N197 C201 1.319 . S
C198 N197 1.365 . S
C198 C200 1.405 . S
C198 C206 1.448 . S
C199 H194 0.931 . S
C199 C201 1.397 . S
C199 C202 1.367 . S
C200 C198 1.405 . S
C200 C202 1.403 . S
C200 C233 1.439 . S
C201 H186 0.930 . S
C201 N197 1.319 . S
C201 C199 1.397 . S
C202 C199 1.367 . S
C202 C200 1.403 . S
C202 H209 0.929 . S
N203 Eu168 2.562 . S
N203 C204 1.325 . S
N203 C206 1.351 . S
C204 H190 0.929 . S
C204 N203 1.325 . S
C204 C208 1.416 . S
C205 C206 1.430 . S
C205 C207 1.404 . S
C205 C234 1.387 . S
C206 C198 1.448 . S
C206 N203 1.351 . S
C206 C205 1.430 . S
C207 H196 0.930 . S
C207 C205 1.404 . S
C207 C208 1.366 . S
C208 H187 0.930 . S
C208 C204 1.416 . S
C208 C207 1.366 . S
H209 C202 0.929 . S
H210 C233 0.931 . S
H211 C234 0.931 . S
O212 Eu168 2.462 . S
O212 C232 1.252 . S
O213 Eu168 2.373 . S
O213 C224 1.249 . S
O214 Eu179 2.335 . S
O214 C224 1.264 . S
O215 Eu168 2.432 . S
O215 C232 1.268 . S
O216 Eu168 2.291 . S
O216 C231 1.255 . S
O217 Eu179 2.372 . S
O217 C231 1.257 . S
O218 Eu179 2.462 . S
O218 C243 1.252 . S
O219 Eu179 2.373 . S
O219 C235 1.249 . S
O220 Eu168 2.335 . S
O220 C235 1.264 . S
O221 Eu179 2.432 . S
O221 C243 1.268 . S
O222 Eu179 2.291 . S
O222 C242 1.255 . S
O223 Eu168 2.372 . S
O223 C242 1.257 . S
C224 O213 1.249 . S
C224 O214 1.264 . S
C225 C228 1.382 . S
C225 C230 1.390 . S
C225 C232 1.506 . S
C226 C227 1.398 . S
C226 C230 1.392 . S
C227 C226 1.398 . S
C227 C229 1.372 . S
C227 H244 0.931 . S
C228 C225 1.382 . S
C228 C229 1.390 . S
C228 H245 0.931 . S
C229 C227 1.372 . S
C229 C228 1.390 . S
C229 H246 0.929 . S
C230 C225 1.390 . S
C230 C226 1.392 . S
C230 H247 0.930 . S
C231 O216 1.255 . S
C231 O217 1.257 . S
C232 Eu168 2.787 . S
C232 O212 1.252 . S
C232 O215 1.268 . S
C232 C225 1.506 . S
C233 C200 1.439 . S
C233 H210 0.931 . S
C233 C234 1.374 . S
C234 C205 1.387 . S
C234 H211 0.931 . S
C234 C233 1.374 . S
C235 O219 1.249 . S
C235 O220 1.264 . S
C236 C239 1.382 . S
C236 C240 1.390 . S
C236 C243 1.506 . S
C237 C238 1.398 . S
C237 C240 1.392 . S
C238 C237 1.398 . S
C238 C241 1.372 . S
C238 H248 0.931 . S
C239 C236 1.382 . S
C239 C241 1.390 . S
C239 H249 0.931 . S
C240 C236 1.390 . S
C240 C237 1.392 . S
C240 H250 0.930 . S
C241 C238 1.372 . S
C241 C239 1.390 . S
C241 H251 0.929 . S
C242 O222 1.255 . S
C242 O223 1.257 . S
C243 Eu179 2.787 . S
C243 O218 1.252 . S
C243 O221 1.268 . S
C243 C236 1.506 . S
H244 C227 0.931 . S
H245 C228 0.931 . S
H246 C229 0.929 . S
H247 C230 0.930 . S
H248 C238 0.931 . S
H249 C239 0.931 . S
H250 C240 0.930 . S
H251 C241 0.929 . S
Eu252 N281 2.600 . S
Eu252 N287 2.562 . S
Eu252 O296 2.462 . S
Eu252 O297 2.373 . S
Eu252 O299 2.432 . S
Eu252 O300 2.291 . S
Eu252 O304 2.335 . S
Eu252 O307 2.372 . S
Eu252 C316 2.787 . S
C253 N254 1.365 . S
C253 C256 1.405 . S
C253 C260 1.448 . S
N254 C253 1.365 . S
N254 C257 1.319 . S
N254 Eu263 2.600 . S
C255 C257 1.397 . S
C255 C258 1.367 . S
C255 H275 0.931 . S
C256 C253 1.405 . S
C256 C258 1.403 . S
C256 C262 1.439 . S
C257 N254 1.319 . S
C257 C255 1.397 . S
C257 H268 0.930 . S
C258 C255 1.367 . S
C258 C256 1.403 . S
C258 H279 0.929 . S
C259 C260 1.430 . S
C259 C261 1.387 . S
C259 C265 1.404 . S
C260 C253 1.448 . S
C260 C259 1.430 . S
C260 N264 1.351 . S
C261 C259 1.387 . S
C261 C262 1.374 . S
C261 H276 0.931 . S
C262 C256 1.439 . S
C262 C261 1.374 . S
C262 H277 0.931 . S
Eu263 N254 2.600 . S
Eu263 N264 2.562 . S
Eu263 O298 2.335 . S
Eu263 O301 2.372 . S
Eu263 O302 2.462 . S
Eu263 O303 2.373 . S
Eu263 O305 2.432 . S
Eu263 O306 2.291 . S
Eu263 C327 2.787 . S
N264 C260 1.351 . S
N264 Eu263 2.562 . S
N264 C266 1.325 . S
C265 C259 1.404 . S
C265 C267 1.366 . S
C265 H273 0.930 . S
C266 N264 1.325 . S
C266 C267 1.416 . S
C266 H272 0.929 . S
C267 C265 1.366 . S
C267 C266 1.416 . S
C267 H269 0.930 . S
H268 C257 0.930 . S
H269 C267 0.930 . S
H270 C285 0.930 . S
H271 C292 0.930 . S
H272 C266 0.929 . S
H273 C265 0.930 . S
H274 C288 0.929 . S
H275 C255 0.931 . S
H276 C261 0.931 . S
H277 C262 0.931 . S
H278 C283 0.931 . S
H279 C258 0.929 . S
H280 C291 0.930 . S
N281 Eu252 2.600 . S
N281 C282 1.365 . S
N281 C285 1.319 . S
C282 N281 1.365 . S
C282 C284 1.405 . S
C282 C290 1.448 . S
C283 H278 0.931 . S
C283 C285 1.397 . S
C283 C286 1.367 . S
C284 C282 1.405 . S
C284 C286 1.403 . S
C284 C317 1.439 . S
C285 H270 0.930 . S
C285 N281 1.319 . S
C285 C283 1.397 . S
C286 C283 1.367 . S
C286 C284 1.403 . S
C286 H293 0.929 . S
N287 Eu252 2.562 . S
N287 C288 1.325 . S
N287 C290 1.351 . S
C288 H274 0.929 . S
C288 N287 1.325 . S
C288 C292 1.416 . S
C289 C290 1.430 . S
C289 C291 1.404 . S
C289 C318 1.387 . S
C290 C282 1.448 . S
C290 N287 1.351 . S
C290 C289 1.430 . S
C291 H280 0.930 . S
C291 C289 1.404 . S
C291 C292 1.366 . S
C292 H271 0.930 . S
C292 C288 1.416 . S
C292 C291 1.366 . S
H293 C286 0.929 . S
H294 C317 0.931 . S
H295 C318 0.931 . S
O296 Eu252 2.462 . S
O296 C316 1.252 . S
O297 Eu252 2.373 . S
O297 C308 1.249 . S
O298 Eu263 2.335 . S
O298 C308 1.264 . S
O299 Eu252 2.432 . S
O299 C316 1.268 . S
O300 Eu252 2.291 . S
O300 C315 1.255 . S
O301 Eu263 2.372 . S
O301 C315 1.257 . S
O302 Eu263 2.462 . S
O302 C327 1.252 . S
O303 Eu263 2.373 . S
O303 C319 1.249 . S
O304 Eu252 2.335 . S
O304 C319 1.264 . S
O305 Eu263 2.432 . S
O305 C327 1.268 . S
O306 Eu263 2.291 . S
O306 C326 1.255 . S
O307 Eu252 2.372 . S
O307 C326 1.257 . S
C308 O297 1.249 . S
C308 O298 1.264 . S
C309 C312 1.382 . S
C309 C314 1.390 . S
C309 C316 1.506 . S
C310 C311 1.398 . S
C310 C314 1.392 . S
C311 C310 1.398 . S
C311 C313 1.372 . S
C311 H328 0.931 . S
C312 C309 1.382 . S
C312 C313 1.390 . S
C312 H329 0.931 . S
C313 C311 1.372 . S
C313 C312 1.390 . S
C313 H330 0.929 . S
C314 C309 1.390 . S
C314 C310 1.392 . S
C314 H331 0.930 . S
C315 O300 1.255 . S
C315 O301 1.257 . S
C316 Eu252 2.787 . S
C316 O296 1.252 . S
C316 O299 1.268 . S
C316 C309 1.506 . S
C317 C284 1.439 . S
C317 H294 0.931 . S
C317 C318 1.374 . S
C318 C289 1.387 . S
C318 H295 0.931 . S
C318 C317 1.374 . S
C319 O303 1.249 . S
C319 O304 1.264 . S
C320 C323 1.382 . S
C320 C324 1.390 . S
C320 C327 1.506 . S
C321 C322 1.398 . S
C321 C324 1.392 . S
C322 C321 1.398 . S
C322 C325 1.372 . S
C322 H332 0.931 . S
C323 C320 1.382 . S
C323 C325 1.390 . S
C323 H333 0.931 . S
C324 C320 1.390 . S
C324 C321 1.392 . S
C324 H334 0.930 . S
C325 C322 1.372 . S
C325 C323 1.390 . S
C325 H335 0.929 . S
C326 O306 1.255 . S
C326 O307 1.257 . S
C327 Eu263 2.787 . S
C327 O302 1.252 . S
C327 O305 1.268 . S
C327 C320 1.506 . S
H328 C311 0.931 . S
H329 C312 0.931 . S
H330 C313 0.929 . S
H331 C314 0.930 . S
H332 C322 0.931 . S
H333 C323 0.931 . S
H334 C324 0.930 . S
H335 C325 0.929 . S
Eu336 N365 2.600 . S
Eu336 N371 2.562 . S
Eu336 O380 2.462 1_556 S
Eu336 O381 2.373 . S
Eu336 O383 2.432 1_556 S
Eu336 O384 2.291 . S
Eu336 O388 2.335 1_556 S
Eu336 O391 2.372 1_556 S
Eu336 C400 2.787 1_556 S
C337 N338 1.365 . S
C337 C340 1.405 . S
C337 C344 1.448 . S
N338 C337 1.365 . S
N338 C341 1.319 . S
N338 Eu347 2.600 . S
C339 C341 1.397 . S
C339 C342 1.367 . S
C339 H359 0.931 . S
C340 C337 1.405 . S
C340 C342 1.403 . S
C340 C346 1.439 . S
C341 N338 1.319 . S
C341 C339 1.397 . S
C341 H352 0.930 . S
C342 C339 1.367 . S
C342 C340 1.403 . S
C342 H363 0.929 . S
C343 C344 1.430 . S
C343 C345 1.387 . S
C343 C349 1.404 . S
C344 C337 1.448 . S
C344 C343 1.430 . S
C344 N348 1.351 . S
C345 C343 1.387 . S
C345 C346 1.374 . S
C345 H360 0.931 . S
C346 C340 1.439 . S
C346 C345 1.374 . S
C346 H361 0.931 . S
Eu347 N338 2.600 . S
Eu347 N348 2.562 . S
Eu347 O382 2.335 1_554 S
Eu347 O385 2.372 1_554 S
Eu347 O386 2.462 1_554 S
Eu347 O387 2.373 . S
Eu347 O389 2.432 1_554 S
Eu347 O390 2.291 . S
Eu347 C411 2.787 1_554 S
N348 C344 1.351 . S
N348 Eu347 2.562 . S
N348 C350 1.325 . S
C349 C343 1.404 . S
C349 C351 1.366 . S
C349 H357 0.930 . S
C350 N348 1.325 . S
C350 C351 1.416 . S
C350 H356 0.929 . S
C351 C349 1.366 . S
C351 C350 1.416 . S
C351 H353 0.930 . S
H352 C341 0.930 . S
H353 C351 0.930 . S
H354 C369 0.930 . S
H355 C376 0.930 . S
H356 C350 0.929 . S
H357 C349 0.930 . S
H358 C372 0.929 . S
H359 C339 0.931 . S
H360 C345 0.931 . S
H361 C346 0.931 . S
H362 C367 0.931 . S
H363 C342 0.929 . S
H364 C375 0.930 . S
N365 Eu336 2.600 . S
N365 C366 1.365 . S
N365 C369 1.319 . S
C366 N365 1.365 . S
C366 C368 1.405 . S
C366 C374 1.448 . S
C367 H362 0.931 . S
C367 C369 1.397 . S
C367 C370 1.367 . S
C368 C366 1.405 . S
C368 C370 1.403 . S
C368 C401 1.439 . S
C369 H354 0.930 . S
C369 N365 1.319 . S
C369 C367 1.397 . S
C370 C367 1.367 . S
C370 C368 1.403 . S
C370 H377 0.929 . S
N371 Eu336 2.562 . S
N371 C372 1.325 . S
N371 C374 1.351 . S
C372 H358 0.929 . S
C372 N371 1.325 . S
C372 C376 1.416 . S
C373 C374 1.430 . S
C373 C375 1.404 . S
C373 C402 1.387 . S
C374 C366 1.448 . S
C374 N371 1.351 . S
C374 C373 1.430 . S
C375 H364 0.930 . S
C375 C373 1.404 . S
C375 C376 1.366 . S
C376 H355 0.930 . S
C376 C372 1.416 . S
C376 C375 1.366 . S
H377 C370 0.929 . S
H378 C401 0.931 . S
H379 C402 0.931 . S
O380 Eu336 2.462 1_554 S
O380 C400 1.252 . S
O381 Eu336 2.373 . S
O381 C392 1.249 . S
O382 Eu347 2.335 1_556 S
O382 C392 1.264 . S
O383 Eu336 2.432 1_554 S
O383 C400 1.268 . S
O384 Eu336 2.291 . S
O384 C399 1.255 . S
O385 Eu347 2.372 1_556 S
O385 C399 1.257 . S
O386 Eu347 2.462 1_556 S
O386 C411 1.252 . S
O387 Eu347 2.373 . S
O387 C403 1.249 . S
O388 Eu336 2.335 1_554 S
O388 C403 1.264 . S
O389 Eu347 2.432 1_556 S
O389 C411 1.268 . S
O390 Eu347 2.291 . S
O390 C410 1.255 . S
O391 Eu336 2.372 1_554 S
O391 C410 1.257 . S
C392 O381 1.249 . S
C392 O382 1.264 . S
C393 C396 1.382 . S
C393 C398 1.390 . S
C393 C400 1.506 . S
C394 C395 1.398 . S
C394 C398 1.392 . S
C395 C394 1.398 . S
C395 C397 1.372 . S
C395 H412 0.931 . S
C396 C393 1.382 . S
C396 C397 1.390 . S
C396 H413 0.931 . S
C397 C395 1.372 . S
C397 C396 1.390 . S
C397 H414 0.929 . S
C398 C393 1.390 . S
C398 C394 1.392 . S
C398 H415 0.930 . S
C399 O384 1.255 . S
C399 O385 1.257 . S
C400 Eu336 2.787 1_554 S
C400 O380 1.252 . S
C400 O383 1.268 . S
C400 C393 1.506 . S
C401 C368 1.439 . S
C401 H378 0.931 . S
C401 C402 1.374 . S
C402 C373 1.387 . S
C402 H379 0.931 . S
C402 C401 1.374 . S
C403 O387 1.249 . S
C403 O388 1.264 . S
C404 C407 1.382 . S
C404 C408 1.390 . S
C404 C411 1.506 . S
C405 C406 1.398 . S
C405 C408 1.392 . S
C406 C405 1.398 . S
C406 C409 1.372 . S
C406 H416 0.931 . S
C407 C404 1.382 . S
C407 C409 1.390 . S
C407 H417 0.931 . S
C408 C404 1.390 . S
C408 C405 1.392 . S
C408 H418 0.930 . S
C409 C406 1.372 . S
C409 C407 1.390 . S
C409 H419 0.929 . S
C410 O390 1.255 . S
C410 O391 1.257 . S
C411 Eu347 2.787 1_556 S
C411 O386 1.252 . S
C411 O389 1.268 . S
C411 C404 1.506 . S
H412 C395 0.931 . S
H413 C396 0.931 . S
H414 C397 0.929 . S
H415 C398 0.930 . S
H416 C406 0.931 . S
H417 C407 0.931 . S
H418 C408 0.930 . S
H419 C409 0.929 . S
Eu420 N449 2.600 . S
Eu420 N455 2.562 . S
Eu420 O464 2.462 1_554 S
Eu420 O465 2.373 . S
Eu420 O467 2.432 1_554 S
Eu420 O468 2.291 . S
Eu420 O472 2.335 1_554 S
Eu420 O475 2.372 1_554 S
Eu420 C484 2.787 1_554 S
C421 N422 1.365 . S
C421 C424 1.405 . S
C421 C428 1.448 . S
N422 C421 1.365 . S
N422 C425 1.319 . S
N422 Eu431 2.600 . S
C423 C425 1.397 . S
C423 C426 1.367 . S
C423 H443 0.931 . S
C424 C421 1.405 . S
C424 C426 1.403 . S
C424 C430 1.439 . S
C425 N422 1.319 . S
C425 C423 1.397 . S
C425 H436 0.930 . S
C426 C423 1.367 . S
C426 C424 1.403 . S
C426 H447 0.929 . S
C427 C428 1.430 . S
C427 C429 1.387 . S
C427 C433 1.404 . S
C428 C421 1.448 . S
C428 C427 1.430 . S
C428 N432 1.351 . S
C429 C427 1.387 . S
C429 C430 1.374 . S
C429 H444 0.931 . S
C430 C424 1.439 . S
C430 C429 1.374 . S
C430 H445 0.931 . S
Eu431 N422 2.600 . S
Eu431 N432 2.562 . S
Eu431 O466 2.335 1_556 S
Eu431 O469 2.372 1_556 S
Eu431 O470 2.462 1_556 S
Eu431 O471 2.373 . S
Eu431 O473 2.432 1_556 S
Eu431 O474 2.291 . S
Eu431 C495 2.787 1_556 S
N432 C428 1.351 . S
N432 Eu431 2.562 . S
N432 C434 1.325 . S
C433 C427 1.404 . S
C433 C435 1.366 . S
C433 H441 0.930 . S
C434 N432 1.325 . S
C434 C435 1.416 . S
C434 H440 0.929 . S
C435 C433 1.366 . S
C435 C434 1.416 . S
C435 H437 0.930 . S
H436 C425 0.930 . S
H437 C435 0.930 . S
H438 C453 0.930 . S
H439 C460 0.930 . S
H440 C434 0.929 . S
H441 C433 0.930 . S
H442 C456 0.929 . S
H443 C423 0.931 . S
H444 C429 0.931 . S
H445 C430 0.931 . S
H446 C451 0.931 . S
H447 C426 0.929 . S
H448 C459 0.930 . S
N449 Eu420 2.600 . S
N449 C450 1.365 . S
N449 C453 1.319 . S
C450 N449 1.365 . S
C450 C452 1.405 . S
C450 C458 1.448 . S
C451 H446 0.931 . S
C451 C453 1.397 . S
C451 C454 1.367 . S
C452 C450 1.405 . S
C452 C454 1.403 . S
C452 C485 1.439 . S
C453 H438 0.930 . S
C453 N449 1.319 . S
C453 C451 1.397 . S
C454 C451 1.367 . S
C454 C452 1.403 . S
C454 H461 0.929 . S
N455 Eu420 2.562 . S
N455 C456 1.325 . S
N455 C458 1.351 . S
C456 H442 0.929 . S
C456 N455 1.325 . S
C456 C460 1.416 . S
C457 C458 1.430 . S
C457 C459 1.404 . S
C457 C486 1.387 . S
C458 C450 1.448 . S
C458 N455 1.351 . S
C458 C457 1.430 . S
C459 H448 0.930 . S
C459 C457 1.404 . S
C459 C460 1.366 . S
C460 H439 0.930 . S
C460 C456 1.416 . S
C460 C459 1.366 . S
H461 C454 0.929 . S
H462 C485 0.931 . S
H463 C486 0.931 . S
O464 Eu420 2.462 1_556 S
O464 C484 1.252 . S
O465 Eu420 2.373 . S
O465 C476 1.249 . S
O466 Eu431 2.335 1_554 S
O466 C476 1.264 . S
O467 Eu420 2.432 1_556 S
O467 C484 1.268 . S
O468 Eu420 2.291 . S
O468 C483 1.255 . S
O469 Eu431 2.372 1_554 S
O469 C483 1.257 . S
O470 Eu431 2.462 1_554 S
O470 C495 1.252 . S
O471 Eu431 2.373 . S
O471 C487 1.249 . S
O472 Eu420 2.335 1_556 S
O472 C487 1.264 . S
O473 Eu431 2.432 1_554 S
O473 C495 1.268 . S
O474 Eu431 2.291 . S
O474 C494 1.255 . S
O475 Eu420 2.372 1_556 S
O475 C494 1.257 . S
C476 O465 1.249 . S
C476 O466 1.264 . S
C477 C480 1.382 . S
C477 C482 1.390 . S
C477 C484 1.506 . S
C478 C479 1.398 . S
C478 C482 1.392 . S
C479 C478 1.398 . S
C479 C481 1.372 . S
C479 H496 0.931 . S
C480 C477 1.382 . S
C480 C481 1.390 . S
C480 H497 0.931 . S
C481 C479 1.372 . S
C481 C480 1.390 . S
C481 H498 0.929 . S
C482 C477 1.390 . S
C482 C478 1.392 . S
C482 H499 0.930 . S
C483 O468 1.255 . S
C483 O469 1.257 . S
C484 Eu420 2.787 1_556 S
C484 O464 1.252 . S
C484 O467 1.268 . S
C484 C477 1.506 . S
C485 C452 1.439 . S
C485 H462 0.931 . S
C485 C486 1.374 . S
C486 C457 1.387 . S
C486 H463 0.931 . S
C486 C485 1.374 . S
C487 O471 1.249 . S
C487 O472 1.264 . S
C488 C491 1.382 . S
C488 C492 1.390 . S
C488 C495 1.506 . S
C489 C490 1.398 . S
C489 C492 1.392 . S
C490 C489 1.398 . S
C490 C493 1.372 . S
C490 H500 0.931 . S
C491 C488 1.382 . S
C491 C493 1.390 . S
C491 H501 0.931 . S
C492 C488 1.390 . S
C492 C489 1.392 . S
C492 H502 0.930 . S
C493 C490 1.372 . S
C493 C491 1.390 . S
C493 H503 0.929 . S
C494 O474 1.255 . S
C494 O475 1.257 . S
C495 Eu431 2.787 1_554 S
C495 O470 1.252 . S
C495 O473 1.268 . S
C495 C488 1.506 . S
H496 C479 0.931 . S
H497 C480 0.931 . S
H498 C481 0.929 . S
H499 C482 0.930 . S
H500 C490 0.931 . S
H501 C491 0.931 . S
H502 C492 0.930 . S
H503 C493 0.929 . S
Eu504 N533 2.600 . S
Eu504 N539 2.562 . S
Eu504 O548 2.462 1_554 S
Eu504 O549 2.373 . S
Eu504 O551 2.432 1_554 S
Eu504 O552 2.291 . S
Eu504 O556 2.335 1_554 S
Eu504 O559 2.372 1_554 S
Eu504 C568 2.787 1_554 S
C505 N506 1.365 . S
C505 C508 1.405 . S
C505 C512 1.448 . S
N506 C505 1.365 . S
N506 C509 1.319 . S
N506 Eu515 2.600 . S
C507 C509 1.397 . S
C507 C510 1.367 . S
C507 H527 0.931 . S
C508 C505 1.405 . S
C508 C510 1.403 . S
C508 C514 1.439 . S
C509 N506 1.319 . S
C509 C507 1.397 . S
C509 H520 0.930 . S
C510 C507 1.367 . S
C510 C508 1.403 . S
C510 H531 0.929 . S
C511 C512 1.430 . S
C511 C513 1.387 . S
C511 C517 1.404 . S
C512 C505 1.448 . S
C512 C511 1.430 . S
C512 N516 1.351 . S
C513 C511 1.387 . S
C513 C514 1.374 . S
C513 H528 0.931 . S
C514 C508 1.439 . S
C514 C513 1.374 . S
C514 H529 0.931 . S
Eu515 N506 2.600 . S
Eu515 N516 2.562 . S
Eu515 O550 2.335 1_556 S
Eu515 O553 2.372 1_556 S
Eu515 O554 2.462 1_556 S
Eu515 O555 2.373 . S
Eu515 O557 2.432 1_556 S
Eu515 O558 2.291 . S
Eu515 C579 2.787 1_556 S
N516 C512 1.351 . S
N516 Eu515 2.562 . S
N516 C518 1.325 . S
C517 C511 1.404 . S
C517 C519 1.366 . S
C517 H525 0.930 . S
C518 N516 1.325 . S
C518 C519 1.416 . S
C518 H524 0.929 . S
C519 C517 1.366 . S
C519 C518 1.416 . S
C519 H521 0.930 . S
H520 C509 0.930 . S
H521 C519 0.930 . S
H522 C537 0.930 . S
H523 C544 0.930 . S
H524 C518 0.929 . S
H525 C517 0.930 . S
H526 C540 0.929 . S
H527 C507 0.931 . S
H528 C513 0.931 . S
H529 C514 0.931 . S
H530 C535 0.931 . S
H531 C510 0.929 . S
H532 C543 0.930 . S
N533 Eu504 2.600 . S
N533 C534 1.365 . S
N533 C537 1.319 . S
C534 N533 1.365 . S
C534 C536 1.405 . S
C534 C542 1.448 . S
C535 H530 0.931 . S
C535 C537 1.397 . S
C535 C538 1.367 . S
C536 C534 1.405 . S
C536 C538 1.403 . S
C536 C569 1.439 . S
C537 H522 0.930 . S
C537 N533 1.319 . S
C537 C535 1.397 . S
C538 C535 1.367 . S
C538 C536 1.403 . S
C538 H545 0.929 . S
N539 Eu504 2.562 . S
N539 C540 1.325 . S
N539 C542 1.351 . S
C540 H526 0.929 . S
C540 N539 1.325 . S
C540 C544 1.416 . S
C541 C542 1.430 . S
C541 C543 1.404 . S
C541 C570 1.387 . S
C542 C534 1.448 . S
C542 N539 1.351 . S
C542 C541 1.430 . S
C543 H532 0.930 . S
C543 C541 1.404 . S
C543 C544 1.366 . S
C544 H523 0.930 . S
C544 C540 1.416 . S
C544 C543 1.366 . S
H545 C538 0.929 . S
H546 C569 0.931 . S
H547 C570 0.931 . S
O548 Eu504 2.462 1_556 S
O548 C568 1.252 . S
O549 Eu504 2.373 . S
O549 C560 1.249 . S
O550 Eu515 2.335 1_554 S
O550 C560 1.264 . S
O551 Eu504 2.432 1_556 S
O551 C568 1.268 . S
O552 Eu504 2.291 . S
O552 C567 1.255 . S
O553 Eu515 2.372 1_554 S
O553 C567 1.257 . S
O554 Eu515 2.462 1_554 S
O554 C579 1.252 . S
O555 Eu515 2.373 . S
O555 C571 1.249 . S
O556 Eu504 2.335 1_556 S
O556 C571 1.264 . S
O557 Eu515 2.432 1_554 S
O557 C579 1.268 . S
O558 Eu515 2.291 . S
O558 C578 1.255 . S
O559 Eu504 2.372 1_556 S
O559 C578 1.257 . S
C560 O549 1.249 . S
C560 O550 1.264 . S
C561 C564 1.382 . S
C561 C566 1.390 . S
C561 C568 1.506 . S
C562 C563 1.398 . S
C562 C566 1.392 . S
C563 C562 1.398 . S
C563 C565 1.372 . S
C563 H580 0.931 . S
C564 C561 1.382 . S
C564 C565 1.390 . S
C564 H581 0.931 . S
C565 C563 1.372 . S
C565 C564 1.390 . S
C565 H582 0.929 . S
C566 C561 1.390 . S
C566 C562 1.392 . S
C566 H583 0.930 . S
C567 O552 1.255 . S
C567 O553 1.257 . S
C568 Eu504 2.787 1_556 S
C568 O548 1.252 . S
C568 O551 1.268 . S
C568 C561 1.506 . S
C569 C536 1.439 . S
C569 H546 0.931 . S
C569 C570 1.374 . S
C570 C541 1.387 . S
C570 H547 0.931 . S
C570 C569 1.374 . S
C571 O555 1.249 . S
C571 O556 1.264 . S
C572 C575 1.382 . S
C572 C576 1.390 . S
C572 C579 1.506 . S
C573 C574 1.398 . S
C573 C576 1.392 . S
C574 C573 1.398 . S
C574 C577 1.372 . S
C574 H584 0.931 . S
C575 C572 1.382 . S
C575 C577 1.390 . S
C575 H585 0.931 . S
C576 C572 1.390 . S
C576 C573 1.392 . S
C576 H586 0.930 . S
C577 C574 1.372 . S
C577 C575 1.390 . S
C577 H587 0.929 . S
C578 O558 1.255 . S
C578 O559 1.257 . S
C579 Eu515 2.787 1_554 S
C579 O554 1.252 . S
C579 O557 1.268 . S
C579 C572 1.506 . S
H580 C563 0.931 . S
H581 C564 0.931 . S
H582 C565 0.929 . S
H583 C566 0.930 . S
H584 C574 0.931 . S
H585 C575 0.931 . S
H586 C576 0.930 . S
H587 C577 0.929 . S
Eu588 N617 2.600 . S
Eu588 N623 2.562 . S
Eu588 O632 2.462 1_556 S
Eu588 O633 2.373 . S
Eu588 O635 2.432 1_556 S
Eu588 O636 2.291 . S
Eu588 O640 2.335 1_556 S
Eu588 O643 2.372 1_556 S
Eu588 C652 2.787 1_556 S
C589 N590 1.365 . S
C589 C592 1.405 . S
C589 C596 1.448 . S
N590 C589 1.365 . S
N590 C593 1.319 . S
N590 Eu599 2.600 . S
C591 C593 1.397 . S
C591 C594 1.367 . S
C591 H611 0.931 . S
C592 C589 1.405 . S
C592 C594 1.403 . S
C592 C598 1.439 . S
C593 N590 1.319 . S
C593 C591 1.397 . S
C593 H604 0.930 . S
C594 C591 1.367 . S
C594 C592 1.403 . S
C594 H615 0.929 . S
C595 C596 1.430 . S
C595 C597 1.387 . S
C595 C601 1.404 . S
C596 C589 1.448 . S
C596 C595 1.430 . S
C596 N600 1.351 . S
C597 C595 1.387 . S
C597 C598 1.374 . S
C597 H612 0.931 . S
C598 C592 1.439 . S
C598 C597 1.374 . S
C598 H613 0.931 . S
Eu599 N590 2.600 . S
Eu599 N600 2.562 . S
Eu599 O634 2.335 1_554 S
Eu599 O637 2.372 1_554 S
Eu599 O638 2.462 1_554 S
Eu599 O639 2.373 . S
Eu599 O641 2.432 1_554 S
Eu599 O642 2.291 . S
Eu599 C663 2.787 1_554 S
N600 C596 1.351 . S
N600 Eu599 2.562 . S
N600 C602 1.325 . S
C601 C595 1.404 . S
C601 C603 1.366 . S
C601 H609 0.930 . S
C602 N600 1.325 . S
C602 C603 1.416 . S
C602 H608 0.929 . S
C603 C601 1.366 . S
C603 C602 1.416 . S
C603 H605 0.930 . S
H604 C593 0.930 . S
H605 C603 0.930 . S
H606 C621 0.930 . S
H607 C628 0.930 . S
H608 C602 0.929 . S
H609 C601 0.930 . S
H610 C624 0.929 . S
H611 C591 0.931 . S
H612 C597 0.931 . S
H613 C598 0.931 . S
H614 C619 0.931 . S
H615 C594 0.929 . S
H616 C627 0.930 . S
N617 Eu588 2.600 . S
N617 C618 1.365 . S
N617 C621 1.319 . S
C618 N617 1.365 . S
C618 C620 1.405 . S
C618 C626 1.448 . S
C619 H614 0.931 . S
C619 C621 1.397 . S
C619 C622 1.367 . S
C620 C618 1.405 . S
C620 C622 1.403 . S
C620 C653 1.439 . S
C621 H606 0.930 . S
C621 N617 1.319 . S
C621 C619 1.397 . S
C622 C619 1.367 . S
C622 C620 1.403 . S
C622 H629 0.929 . S
N623 Eu588 2.562 . S
N623 C624 1.325 . S
N623 C626 1.351 . S
C624 H610 0.929 . S
C624 N623 1.325 . S
C624 C628 1.416 . S
C625 C626 1.430 . S
C625 C627 1.404 . S
C625 C654 1.387 . S
C626 C618 1.448 . S
C626 N623 1.351 . S
C626 C625 1.430 . S
C627 H616 0.930 . S
C627 C625 1.404 . S
C627 C628 1.366 . S
C628 H607 0.930 . S
C628 C624 1.416 . S
C628 C627 1.366 . S
H629 C622 0.929 . S
H630 C653 0.931 . S
H631 C654 0.931 . S
O632 Eu588 2.462 1_554 S
O632 C652 1.252 . S
O633 Eu588 2.373 . S
O633 C644 1.249 . S
O634 Eu599 2.335 1_556 S
O634 C644 1.264 . S
O635 Eu588 2.432 1_554 S
O635 C652 1.268 . S
O636 Eu588 2.291 . S
O636 C651 1.255 . S
O637 Eu599 2.372 1_556 S
O637 C651 1.257 . S
O638 Eu599 2.462 1_556 S
O638 C663 1.252 . S
O639 Eu599 2.373 . S
O639 C655 1.249 . S
O640 Eu588 2.335 1_554 S
O640 C655 1.264 . S
O641 Eu599 2.432 1_556 S
O641 C663 1.268 . S
O642 Eu599 2.291 . S
O642 C662 1.255 . S
O643 Eu588 2.372 1_554 S
O643 C662 1.257 . S
C644 O633 1.249 . S
C644 O634 1.264 . S
C645 C648 1.382 . S
C645 C650 1.390 . S
C645 C652 1.506 . S
C646 C647 1.398 . S
C646 C650 1.392 . S
C647 C646 1.398 . S
C647 C649 1.372 . S
C647 H664 0.931 . S
C648 C645 1.382 . S
C648 C649 1.390 . S
C648 H665 0.931 . S
C649 C647 1.372 . S
C649 C648 1.390 . S
C649 H666 0.929 . S
C650 C645 1.390 . S
C650 C646 1.392 . S
C650 H667 0.930 . S
C651 O636 1.255 . S
C651 O637 1.257 . S
C652 Eu588 2.787 1_554 S
C652 O632 1.252 . S
C652 O635 1.268 . S
C652 C645 1.506 . S
C653 C620 1.439 . S
C653 H630 0.931 . S
C653 C654 1.374 . S
C654 C625 1.387 . S
C654 H631 0.931 . S
C654 C653 1.374 . S
C655 O639 1.249 . S
C655 O640 1.264 . S
C656 C659 1.382 . S
C656 C660 1.390 . S
C656 C663 1.506 . S
C657 C658 1.398 . S
C657 C660 1.392 . S
C658 C657 1.398 . S
C658 C661 1.372 . S
C658 H668 0.931 . S
C659 C656 1.382 . S
C659 C661 1.390 . S
C659 H669 0.931 . S
C660 C656 1.390 . S
C660 C657 1.392 . S
C660 H670 0.930 . S
C661 C658 1.372 . S
C661 C659 1.390 . S
C661 H671 0.929 . S
C662 O642 1.255 . S
C662 O643 1.257 . S
C663 Eu599 2.787 1_556 S
C663 O638 1.252 . S
C663 O641 1.268 . S
C663 C656 1.506 . S
H664 C647 0.931 . S
H665 C648 0.931 . S
H666 C649 0.929 . S
H667 C650 0.930 . S
H668 C658 0.931 . S
H669 C659 0.931 . S
H670 C660 0.930 . S
H671 C661 0.929 . S
H672 C684 0.930 . S
H673 C686 0.930 . S
H674 C687 0.930 . S
H675 C691 0.959 . S
H676 C691 0.959 . S
H677 C691 0.961 . S
H678 C692 0.960 . S
H679 C692 0.961 . S
H680 C692 0.959 . S
H681 C695 0.929 . S
H682 C696 0.931 . S
H683 C698 0.930 . S
C684 H672 0.930 . S
C684 C685 1.399 . S
C684 C689 1.399 . S
C685 C684 1.399 . S
C685 C686 1.376 . S
C686 H673 0.930 . S
C686 C685 1.376 . S
C686 C687 1.388 . S
C687 H674 0.930 . S
C687 C686 1.388 . S
C687 C688 1.390 . S
C688 C687 1.390 . S
C688 C689 1.394 . S
C688 C694 1.465 . S
C689 C684 1.399 . S
C689 C688 1.394 . S
C689 C690 1.516 . S
C690 C689 1.516 . S
C690 C691 1.502 . S
C690 C692 1.561 . S
C690 C693 1.526 . S
C691 H675 0.959 . S
C691 H676 0.959 . S
C691 H677 0.961 . S
C691 C690 1.502 . S
C692 H678 0.960 . S
C692 H679 0.961 . S
C692 H680 0.959 . S
C692 C690 1.561 . S
C693 C690 1.526 . S
C693 C694 1.396 . S
C693 C698 1.390 . S
C694 C688 1.465 . S
C694 C693 1.396 . S
C694 C695 1.399 . S
C695 H681 0.929 . S
C695 C694 1.399 . S
C695 C696 1.385 . S
C696 H682 0.931 . S
C696 C695 1.385 . S
C696 C697 1.389 . S
C697 C696 1.389 . S
C697 C698 1.387 . S
C698 H683 0.930 . S
C698 C693 1.390 . S
C698 C697 1.387 . S
H699 C711 0.930 . S
H700 C713 0.930 . S
H701 C714 0.930 . S
H702 C718 0.959 . S
H703 C718 0.959 . S
H704 C718 0.961 . S
H705 C719 0.960 . S
H706 C719 0.961 . S
H707 C719 0.959 . S
H708 C722 0.929 . S
H709 C723 0.931 . S
H710 C725 0.930 . S
C711 H699 0.930 . S
C711 C712 1.399 . S
C711 C716 1.399 . S
C712 C711 1.399 . S
C712 C713 1.376 . S
C713 H700 0.930 . S
C713 C712 1.376 . S
C713 C714 1.388 . S
C714 H701 0.930 . S
C714 C713 1.388 . S
C714 C715 1.390 . S
C715 C714 1.390 . S
C715 C716 1.394 . S
C715 C721 1.465 . S
C716 C711 1.399 . S
C716 C715 1.394 . S
C716 C717 1.516 . S
C717 C716 1.516 . S
C717 C718 1.502 . S
C717 C719 1.561 . S
C717 C720 1.526 . S
C718 H702 0.959 . S
C718 H703 0.959 . S
C718 H704 0.961 . S
C718 C717 1.502 . S
C719 H705 0.960 . S
C719 H706 0.961 . S
C719 H707 0.959 . S
C719 C717 1.561 . S
C720 C717 1.526 . S
C720 C721 1.396 . S
C720 C725 1.390 . S
C721 C715 1.465 . S
C721 C720 1.396 . S
C721 C722 1.399 . S
C722 H708 0.929 . S
C722 C721 1.399 . S
C722 C723 1.385 . S
C723 H709 0.931 . S
C723 C722 1.385 . S
C723 C724 1.389 . S
C724 C723 1.389 . S
C724 C725 1.387 . S
C725 H710 0.930 . S
C725 C720 1.390 . S
C725 C724 1.387 . S
H726 C738 0.930 . S
H727 C740 0.930 . S
H728 C741 0.930 . S
H729 C745 0.959 . S
H730 C745 0.959 . S
H731 C745 0.961 . S
H732 C746 0.960 . S
H733 C746 0.961 . S
H734 C746 0.959 . S
H735 C749 0.929 . S
H736 C750 0.931 . S
H737 C752 0.930 . S
C738 H726 0.930 . S
C738 C739 1.399 . S
C738 C743 1.399 . S
C739 C738 1.399 . S
C739 C740 1.376 . S
C740 H727 0.930 . S
C740 C739 1.376 . S
C740 C741 1.388 . S
C741 H728 0.930 . S
C741 C740 1.388 . S
C741 C742 1.390 . S
C742 C741 1.390 . S
C742 C743 1.394 . S
C742 C748 1.465 . S
C743 C738 1.399 . S
C743 C742 1.394 . S
C743 C744 1.516 . S
C744 C743 1.516 . S
C744 C745 1.502 . S
C744 C746 1.561 . S
C744 C747 1.526 . S
C745 H729 0.959 . S
C745 H730 0.959 . S
C745 H731 0.961 . S
C745 C744 1.502 . S
C746 H732 0.960 . S
C746 H733 0.961 . S
C746 H734 0.959 . S
C746 C744 1.561 . S
C747 C744 1.526 . S
C747 C748 1.396 . S
C747 C752 1.390 . S
C748 C742 1.465 . S
C748 C747 1.396 . S
C748 C749 1.399 . S
C749 H735 0.929 . S
C749 C748 1.399 . S
C749 C750 1.385 . S
C750 H736 0.931 . S
C750 C749 1.385 . S
C750 C751 1.389 . S
C751 C750 1.389 . S
C751 C752 1.387 . S
C752 H737 0.930 . S
C752 C747 1.390 . S
C752 C751 1.387 . S
H753 C765 0.930 . S
H754 C767 0.930 . S
H755 C768 0.930 . S
H756 C772 0.959 . S
H757 C772 0.959 . S
H758 C772 0.961 . S
H759 C773 0.960 . S
H760 C773 0.961 . S
H761 C773 0.959 . S
H762 C776 0.929 . S
H763 C777 0.931 . S
H764 C779 0.930 . S
C765 H753 0.930 . S
C765 C766 1.399 . S
C765 C770 1.399 . S
C766 C765 1.399 . S
C766 C767 1.376 . S
C767 H754 0.930 . S
C767 C766 1.376 . S
C767 C768 1.388 . S
C768 H755 0.930 . S
C768 C767 1.388 . S
C768 C769 1.390 . S
C769 C768 1.390 . S
C769 C770 1.394 . S
C769 C775 1.465 . S
C770 C765 1.399 . S
C770 C769 1.394 . S
C770 C771 1.516 . S
C771 C770 1.516 . S
C771 C772 1.502 . S
C771 C773 1.561 . S
C771 C774 1.526 . S
C772 H756 0.959 . S
C772 H757 0.959 . S
C772 H758 0.961 . S
C772 C771 1.502 . S
C773 H759 0.960 . S
C773 H760 0.961 . S
C773 H761 0.959 . S
C773 C771 1.561 . S
C774 C771 1.526 . S
C774 C775 1.396 . S
C774 C779 1.390 . S
C775 C769 1.465 . S
C775 C774 1.396 . S
C775 C776 1.399 . S
C776 H762 0.929 . S
C776 C775 1.399 . S
C776 C777 1.385 . S
C777 H763 0.931 . S
C777 C776 1.385 . S
C777 C778 1.389 . S
C778 C777 1.389 . S
C778 C779 1.387 . S
C779 H764 0.930 . S
C779 C774 1.390 . S
C779 C778 1.387 . S
H780 C792 0.930 . S
H781 C794 0.930 . S
H782 C795 0.930 . S
H783 C799 0.964 . S
H784 C799 0.959 1_545 S
H785 C799 0.961 . S
H786 C800 0.960 . S
H787 C800 0.961 . S
H788 C800 0.959 . S
H789 C803 0.929 . S
H790 C804 0.931 . S
H791 C806 0.930 . S
C792 H780 0.930 . S
C792 C793 1.399 . S
C792 C797 1.399 . S
C793 C792 1.399 . S
C793 C794 1.376 . S
C794 H781 0.930 . S
C794 C793 1.376 . S
C794 C795 1.388 . S
C795 H782 0.930 . S
C795 C794 1.388 . S
C795 C796 1.390 . S
C796 C795 1.390 . S
C796 C797 1.394 . S
C796 C802 1.465 1_565 S
C797 C792 1.399 . S
C797 C796 1.394 . S
C797 C798 1.516 . S
C798 C797 1.516 . S
C798 C799 1.502 . S
C798 C800 1.561 . S
C798 C801 1.526 1_565 S
C799 H783 0.964 . S
C799 H784 0.959 1_565 S
C799 H785 0.961 . S
C799 C798 1.502 . S
C800 H786 0.960 . S
C800 H787 0.961 . S
C800 H788 0.959 . S
C800 C798 1.561 . S
C801 C798 1.526 1_545 S
C801 C802 1.396 . S
C801 C806 1.390 . S
C802 C796 1.465 1_545 S
C802 C801 1.396 . S
C802 C803 1.399 . S
C803 H789 0.929 . S
C803 C802 1.399 . S
C803 C804 1.385 . S
C804 H790 0.931 . S
C804 C803 1.385 . S
C804 C805 1.389 . S
C805 C804 1.389 . S
C805 C806 1.387 . S
C806 H791 0.930 . S
C806 C801 1.390 . S
C806 C805 1.387 . S
H807 C819 0.930 . S
H808 C821 0.930 . S
H809 C822 0.930 . S
H810 C826 0.959 . S
H811 C826 0.959 . S
H812 C826 0.961 . S
H813 C827 0.960 . S
H814 C827 0.961 . S
H815 C827 0.959 . S
H816 C830 0.929 . S
H817 C831 0.931 . S
H818 C833 0.930 . S
C819 H807 0.930 . S
C819 C820 1.399 . S
C819 C824 1.399 . S
C820 C819 1.399 . S
C820 C821 1.376 . S
C821 H808 0.930 . S
C821 C820 1.376 . S
C821 C822 1.388 . S
C822 H809 0.930 . S
C822 C821 1.388 . S
C822 C823 1.390 . S
C823 C822 1.390 . S
C823 C824 1.394 . S
C823 C829 1.465 . S
C824 C819 1.399 . S
C824 C823 1.394 . S
C824 C825 1.516 . S
C825 C824 1.516 . S
C825 C826 1.502 . S
C825 C827 1.561 . S
C825 C828 1.526 . S
C826 H810 0.959 . S
C826 H811 0.959 . S
C826 H812 0.961 . S
C826 C825 1.502 . S
C827 H813 0.960 . S
C827 H814 0.961 . S
C827 H815 0.959 . S
C827 C825 1.561 . S
C828 C825 1.526 . S
C828 C829 1.396 . S
C828 C833 1.390 . S
C829 C823 1.465 . S
C829 C828 1.396 . S
C829 C830 1.399 . S
C830 H816 0.929 . S
C830 C829 1.399 . S
C830 C831 1.385 . S
C831 H817 0.931 . S
C831 C830 1.385 . S
C831 C832 1.389 . S
C832 C831 1.389 . S
C832 C833 1.387 . S
C833 H818 0.930 . S
C833 C828 1.390 . S
C833 C832 1.387 . S
H834 C846 0.930 . S
H835 C848 0.930 . S
H836 C849 0.930 . S
H837 C853 0.959 1_545 S
H838 C853 0.959 1_545 S
H839 C853 0.961 . S
H840 C854 0.960 . S
H841 C854 0.943 1_545 S
H842 C854 0.959 . S
H843 C857 0.929 . S
H844 C858 0.931 . S
H845 C860 0.930 . S
C846 H834 0.930 . S
C846 C847 1.399 . S
C846 C851 1.399 . S
C847 C846 1.399 . S
C847 C848 1.376 . S
C848 H835 0.930 . S
C848 C847 1.376 . S
C848 C849 1.388 . S
C849 H836 0.930 . S
C849 C848 1.388 . S
C849 C850 1.390 . S
C850 C849 1.390 . S
C850 C851 1.394 . S
C850 C856 1.465 1_565 S
C851 C846 1.399 . S
C851 C850 1.394 . S
C851 C852 1.516 . S
C852 C851 1.516 . S
C852 C853 1.502 . S
C852 C854 1.561 . S
C852 C855 1.526 1_565 S
C853 H837 0.959 1_565 S
C853 H838 0.959 1_565 S
C853 H839 0.961 . S
C853 C852 1.502 . S
C854 H840 0.960 . S
C854 H841 0.943 1_565 S
C854 H842 0.959 . S
C854 C852 1.561 . S
C855 C852 1.526 1_545 S
C855 C856 1.396 . S
C855 C860 1.390 . S
C856 C850 1.465 1_545 S
C856 C855 1.396 . S
C856 C857 1.399 . S
C857 H843 0.929 . S
C857 C856 1.399 . S
C857 C858 1.385 . S
C858 H844 0.931 . S
C858 C857 1.385 . S
C858 C859 1.389 . S
C859 C858 1.389 . S
C859 C860 1.387 . S
C860 H845 0.930 . S
C860 C855 1.390 . S
C860 C859 1.387 . S
H861 C873 0.930 . S
H862 C875 0.930 . S
H863 C876 0.930 . S
H864 C880 0.959 . S
H865 C880 0.959 . S
H866 C880 0.961 . S
H867 C881 0.960 . S
H868 C881 0.961 . S
H869 C881 0.959 . S
H870 C884 0.929 . S
H871 C885 0.931 . S
H872 C887 0.930 . S
C873 H861 0.930 . S
C873 C874 1.399 . S
C873 C878 1.399 . S
C874 C873 1.399 . S
C874 C875 1.376 . S
C875 H862 0.930 . S
C875 C874 1.376 . S
C875 C876 1.388 . S
C876 H863 0.930 . S
C876 C875 1.388 . S
C876 C877 1.390 . S
C877 C876 1.390 . S
C877 C878 1.394 . S
C877 C883 1.465 . S
C878 C873 1.399 . S
C878 C877 1.394 . S
C878 C879 1.516 . S
C879 C878 1.516 . S
C879 C880 1.502 . S
C879 C881 1.561 . S
C879 C882 1.526 . S
C880 H864 0.959 . S
C880 H865 0.959 . S
C880 H866 0.961 . S
C880 C879 1.502 . S
C881 H867 0.960 . S
C881 H868 0.961 . S
C881 H869 0.959 . S
C881 C879 1.561 . S
C882 C879 1.526 . S
C882 C883 1.396 . S
C882 C887 1.390 . S
C883 C877 1.465 . S
C883 C882 1.396 . S
C883 C884 1.399 . S
C884 H870 0.929 . S
C884 C883 1.399 . S
C884 C885 1.385 . S
C885 H871 0.931 . S
C885 C884 1.385 . S
C885 C886 1.389 . S
C886 C885 1.389 . S
C886 C887 1.387 . S
C887 H872 0.930 . S
C887 C882 1.390 . S
C887 C886 1.387 . S
H888 C900 0.930 . S
H889 C902 0.930 . S
H890 C903 0.930 . S
H891 C907 0.959 . S
H892 C907 0.959 . S
H893 C907 0.961 . S
H894 C908 0.960 . S
H895 C908 0.961 . S
H896 C908 0.959 . S
H897 C911 0.929 . S
H898 C912 0.931 . S
H899 C914 0.930 . S
C900 H888 0.930 . S
C900 C901 1.399 1_554 S
C900 C905 1.399 . S
C901 C900 1.399 1_556 S
C901 C902 1.376 . S
C902 H889 0.930 . S
C902 C901 1.376 . S
C902 C903 1.388 . S
C903 H890 0.930 . S
C903 C902 1.388 . S
C903 C904 1.390 . S
C904 C903 1.390 . S
C904 C905 1.394 1_556 S
C904 C910 1.465 . S
C905 C900 1.399 . S
C905 C904 1.394 1_554 S
C905 C906 1.516 . S
C906 C905 1.516 . S
C906 C907 1.502 . S
C906 C908 1.561 . S
C906 C909 1.526 . S
C907 H891 0.959 . S
C907 H892 0.959 . S
C907 H893 0.961 . S
C907 C906 1.502 . S
C908 H894 0.960 . S
C908 H895 0.961 . S
C908 H896 0.959 . S
C908 C906 1.561 . S
C909 C906 1.526 . S
C909 C910 1.396 1_554 S
C909 C914 1.390 . S
C910 C904 1.465 . S
C910 C909 1.396 1_556 S
C910 C911 1.399 . S
C911 H897 0.929 . S
C911 C910 1.399 . S
C911 C912 1.385 . S
C912 H898 0.931 . S
C912 C911 1.385 . S
C912 C913 1.377 1_556 S
C913 C912 1.377 1_554 S
C913 C914 1.394 . S
C914 H899 0.930 . S
C914 C909 1.390 . S
C914 C913 1.394 . S
H915 C927 0.930 . S
H916 C929 0.930 . S
H917 C930 0.930 . S
H918 C934 0.959 1_545 S
H919 C934 0.959 1_545 S
H920 C934 0.961 . S
H921 C935 0.960 . S
H922 C935 0.961 1_545 S
H923 C935 0.959 . S
H924 C938 0.929 . S
H925 C939 0.931 . S
H926 C941 0.930 . S
C927 H915 0.930 . S
C927 C928 1.399 1_556 S
C927 C932 1.399 . S
C928 C927 1.399 1_554 S
C928 C929 1.376 . S
C929 H916 0.930 . S
C929 C928 1.376 . S
C929 C930 1.388 . S
C930 H917 0.930 . S
C930 C929 1.388 . S
C930 C931 1.390 . S
C931 C930 1.390 . S
C931 C932 1.394 1_554 S
C931 C937 1.465 1_565 S
C932 C927 1.399 . S
C932 C931 1.394 1_556 S
C932 C933 1.516 . S
C933 C932 1.516 . S
C933 C934 1.502 . S
C933 C935 1.561 . S
C933 C936 1.526 1_565 S
C934 H918 0.959 1_565 S
C934 H919 0.959 1_565 S
C934 H920 0.961 . S
C934 C933 1.502 . S
C935 H921 0.960 . S
C935 H922 0.961 1_565 S
C935 H923 0.959 . S
C935 C933 1.561 . S
C936 C933 1.526 1_545 S
C936 C937 1.396 1_556 S
C936 C941 1.390 . S
C937 C931 1.465 1_545 S
C937 C936 1.396 1_554 S
C937 C938 1.399 . S
C938 H924 0.929 . S
C938 C937 1.399 . S
C938 C939 1.385 . S
C939 H925 0.931 . S
C939 C938 1.385 . S
C939 C940 1.389 1_554 S
C940 C939 1.389 1_556 S
C940 C941 1.387 . S
C941 H926 0.930 . S
C941 C936 1.390 . S
C941 C940 1.387 . S
H942 C954 0.930 . S
H943 C956 0.930 . S
H944 C957 0.930 . S
H945 C961 0.959 . S
H946 C961 0.959 . S
H947 C961 0.961 . S
H948 C962 0.960 . S
H949 C962 0.961 . S
H950 C962 0.959 . S
H951 C965 0.929 . S
H952 C966 0.931 . S
H953 C968 0.930 . S
C954 H942 0.930 . S
C954 C955 1.399 1_556 S
C954 C959 1.399 . S
C955 C954 1.399 1_554 S
C955 C956 1.376 . S
C956 H943 0.930 . S
C956 C955 1.376 . S
C956 C957 1.388 . S
C957 H944 0.930 . S
C957 C956 1.388 . S
C957 C958 1.390 . S
C958 C957 1.390 . S
C958 C959 1.394 1_554 S
C958 C964 1.465 . S
C959 C954 1.399 . S
C959 C958 1.394 1_556 S
C959 C960 1.516 . S
C960 C959 1.516 . S
C960 C961 1.502 . S
C960 C962 1.561 . S
C960 C963 1.526 . S
C961 H945 0.959 . S
C961 H946 0.959 . S
C961 H947 0.961 . S
C961 C960 1.502 . S
C962 H948 0.960 . S
C962 H949 0.961 . S
C962 H950 0.959 . S
C962 C960 1.561 . S
C963 C960 1.526 . S
C963 C964 1.396 1_556 S
C963 C968 1.390 . S
C964 C958 1.465 . S
C964 C963 1.396 1_554 S
C964 C965 1.399 . S
C965 H951 0.929 . S
C965 C964 1.399 . S
C965 C966 1.385 . S
C966 H952 0.931 . S
C966 C965 1.385 . S
C966 C967 1.382 1_554 S
C967 C966 1.382 1_556 S
C967 C968 1.391 . S
C968 H953 0.930 . S
C968 C963 1.390 . S
C968 C967 1.391 . S
H969 C981 0.930 . S
H970 C983 0.930 . S
H971 C984 0.930 . S
H972 C988 0.959 . S
H973 C988 0.959 1_565 S
H974 C988 0.961 . S
H975 C989 0.960 . S
H976 C989 0.961 1_565 S
H977 C989 0.959 . S
H978 C992 0.929 . S
H979 C993 0.931 . S
H980 C995 0.930 . S
C981 H969 0.930 . S
C981 C982 1.399 1_554 S
C981 C986 1.399 . S
C982 C981 1.399 1_556 S
C982 C983 1.376 . S
C983 H970 0.930 . S
C983 C982 1.376 . S
C983 C984 1.388 . S
C984 H971 0.930 . S
C984 C983 1.388 . S
C984 C985 1.390 . S
C985 C984 1.390 . S
C985 C986 1.394 1_556 S
C985 C991 1.465 1_545 S
C986 C981 1.399 . S
C986 C985 1.394 1_554 S
C986 C987 1.516 . S
C987 C986 1.516 . S
C987 C988 1.502 . S
C987 C989 1.561 . S
C987 C990 1.526 1_545 S
C988 H972 0.959 . S
C988 H973 0.959 1_545 S
C988 H974 0.961 . S
C988 C987 1.502 . S
C989 H975 0.960 . S
C989 H976 0.961 1_545 S
C989 H977 0.959 . S
C989 C987 1.561 . S
C990 C987 1.526 1_565 S
C990 C991 1.396 1_554 S
C990 C995 1.390 . S
C991 C985 1.465 1_565 S
C991 C990 1.396 1_556 S
C991 C992 1.399 . S
C992 H978 0.929 . S
C992 C991 1.399 . S
C992 C993 1.385 . S
C993 H979 0.931 . S
C993 C992 1.385 . S
C993 C994 1.389 1_556 S
C994 C993 1.389 1_554 S
C994 C995 1.387 . S
C995 H980 0.930 . S
C995 C990 1.390 . S
C995 C994 1.387 . S
H996 C1008 0.930 . S
H997 C1010 0.930 . S
H998 C1011 0.930 . S
H999 C1015 0.959 . S
H1000 C1015 0.959 . S
H1001 C1015 0.961 1_554 S
H1002 C1016 0.960 . S
H1003 C1016 0.961 . S
H1004 C1016 0.959 . S
H1005 C1019 0.929 . S
H1006 C1020 0.931 . S
H1007 C1022 0.930 . S
C1008 H996 0.930 . S
C1008 C1009 1.399 . S
C1008 C1013 1.399 . S
C1009 C1008 1.399 . S
C1009 C1010 1.376 . S
C1010 H997 0.930 . S
C1010 C1009 1.376 . S
C1010 C1011 1.388 . S
C1011 H998 0.930 . S
C1011 C1010 1.388 . S
C1011 C1012 1.390 . S
C1012 C1011 1.390 . S
C1012 C1013 1.394 . S
C1012 C1018 1.465 1_554 S
C1013 C1008 1.399 . S
C1013 C1012 1.394 . S
C1013 C1014 1.516 1_554 S
C1014 C1013 1.516 1_556 S
C1014 C1015 1.502 . S
C1014 C1016 1.561 . S
C1014 C1017 1.526 . S
C1015 H999 0.959 . S
C1015 H1000 0.959 . S
C1015 H1001 0.961 1_556 S
C1015 C1014 1.502 . S
C1016 H1002 0.960 . S
C1016 H1003 0.961 . S
C1016 H1004 0.959 . S
C1016 C1014 1.561 . S
C1017 C1014 1.526 . S
C1017 C1018 1.396 . S
C1017 C1022 1.390 . S
C1018 C1012 1.465 1_556 S
C1018 C1017 1.396 . S
C1018 C1019 1.399 . S
C1019 H1005 0.929 . S
C1019 C1018 1.399 . S
C1019 C1020 1.385 . S
C1020 H1006 0.931 . S
C1020 C1019 1.385 . S
C1020 C1021 1.389 . S
C1021 C1020 1.389 . S
C1021 C1022 1.387 . S
C1022 H1007 0.930 . S
C1022 C1017 1.390 . S
C1022 C1021 1.387 . S
H1023 C1035 0.930 . S
H1024 C1037 0.930 . S
H1025 C1038 0.930 . S
H1026 C1042 0.959 . S
H1027 C1042 0.959 . S
H1028 C1042 0.961 . S
H1029 C1043 0.960 1_554 S
H1030 C1043 0.961 . S
H1031 C1043 0.959 . S
H1032 C1046 0.929 . S
H1033 C1047 0.931 . S
H1034 C1049 0.930 . S
C1035 H1023 0.930 . S
C1035 C1036 1.399 . S
C1035 C1040 1.399 . S
C1036 C1035 1.399 . S
C1036 C1037 1.376 . S
C1037 H1024 0.930 . S
C1037 C1036 1.376 . S
C1037 C1038 1.388 . S
C1038 H1025 0.930 . S
C1038 C1037 1.388 . S
C1038 C1039 1.390 . S
C1039 C1038 1.390 . S
C1039 C1040 1.394 . S
C1039 C1045 1.465 1_554 S
C1040 C1035 1.399 . S
C1040 C1039 1.394 . S
C1040 C1041 1.516 1_554 S
C1041 C1040 1.516 1_556 S
C1041 C1042 1.502 . S
C1041 C1043 1.561 . S
C1041 C1044 1.526 . S
C1042 H1026 0.959 . S
C1042 H1027 0.959 . S
C1042 H1028 0.961 . S
C1042 C1041 1.502 . S
C1043 H1029 0.960 1_556 S
C1043 H1030 0.961 . S
C1043 H1031 0.959 . S
C1043 C1041 1.561 . S
C1044 C1041 1.526 . S
C1044 C1045 1.396 . S
C1044 C1049 1.390 . S
C1045 C1039 1.465 1_556 S
C1045 C1044 1.396 . S
C1045 C1046 1.399 . S
C1046 H1032 0.929 . S
C1046 C1045 1.399 . S
C1046 C1047 1.385 . S
C1047 H1033 0.931 . S
C1047 C1046 1.385 . S
C1047 C1048 1.389 . S
C1048 C1047 1.389 . S
C1048 C1049 1.387 . S
C1049 H1034 0.930 . S
C1049 C1044 1.390 . S
C1049 C1048 1.387 . S
H1050 C1062 0.930 . S
H1051 C1064 0.930 . S
H1052 C1065 0.930 . S
H1053 C1069 0.959 . S
H1054 C1069 0.959 . S
H1055 C1069 0.961 1_554 S
H1056 C1070 0.960 1_554 S
H1057 C1070 0.961 . S
H1058 C1070 0.959 . S
H1059 C1073 0.929 . S
H1060 C1074 0.931 . S
H1061 C1076 0.930 . S
C1062 H1050 0.930 . S
C1062 C1063 1.399 . S
C1062 C1067 1.399 . S
C1063 C1062 1.399 . S
C1063 C1064 1.376 . S
C1064 H1051 0.930 . S
C1064 C1063 1.376 . S
C1064 C1065 1.388 . S
C1065 H1052 0.930 . S
C1065 C1064 1.388 . S
C1065 C1066 1.390 . S
C1066 C1065 1.390 . S
C1066 C1067 1.394 . S
C1066 C1072 1.465 1_554 S
C1067 C1062 1.399 . S
C1067 C1066 1.394 . S
C1067 C1068 1.516 1_554 S
C1068 C1067 1.516 1_556 S
C1068 C1069 1.502 . S
C1068 C1070 1.561 . S
C1068 C1071 1.526 . S
C1069 H1053 0.959 . S
C1069 H1054 0.959 . S
C1069 H1055 0.961 1_556 S
C1069 C1068 1.502 . S
C1070 H1056 0.960 1_556 S
C1070 H1057 0.961 . S
C1070 H1058 0.959 . S
C1070 C1068 1.561 . S
C1071 C1068 1.526 . S
C1071 C1072 1.396 . S
C1071 C1076 1.390 . S
C1072 C1066 1.465 1_556 S
C1072 C1071 1.396 . S
C1072 C1073 1.399 . S
C1073 H1059 0.929 . S
C1073 C1072 1.399 . S
C1073 C1074 1.385 . S
C1074 H1060 0.931 . S
C1074 C1073 1.385 . S
C1074 C1075 1.389 . S
C1075 C1074 1.389 . S
C1075 C1076 1.387 . S
C1076 H1061 0.930 . S
C1076 C1071 1.390 . S
C1076 C1075 1.387 . S
H1077 C1089 0.930 . S
H1078 C1091 0.930 . S
H1079 C1092 0.930 . S
H1080 C1096 0.959 . S
H1081 C1096 0.959 . S
H1082 C1096 0.961 . S
H1083 C1097 0.960 . S
H1084 C1097 0.961 . S
H1085 C1097 0.959 . S
H1086 C1100 0.929 . S
H1087 C1101 0.931 . S
H1088 C1103 0.930 . S
C1089 H1077 0.930 . S
C1089 C1090 1.399 . S
C1089 C1094 1.399 . S
C1090 C1089 1.399 . S
C1090 C1091 1.376 . S
C1091 H1078 0.930 . S
C1091 C1090 1.376 . S
C1091 C1092 1.388 . S
C1092 H1079 0.930 . S
C1092 C1091 1.388 . S
C1092 C1093 1.390 . S
C1093 C1092 1.390 . S
C1093 C1094 1.394 . S
C1093 C1099 1.465 1_556 S
C1094 C1089 1.399 . S
C1094 C1093 1.394 . S
C1094 C1095 1.516 1_556 S
C1095 C1094 1.516 1_554 S
C1095 C1096 1.502 . S
C1095 C1097 1.561 . S
C1095 C1098 1.526 . S
C1096 H1080 0.959 . S
C1096 H1081 0.959 . S
C1096 H1082 0.961 . S
C1096 C1095 1.502 . S
C1097 H1083 0.960 . S
C1097 H1084 0.961 . S
C1097 H1085 0.959 . S
C1097 C1095 1.561 . S
C1098 C1095 1.526 . S
C1098 C1099 1.396 . S
C1098 C1103 1.390 . S
C1099 C1093 1.465 1_554 S
C1099 C1098 1.396 . S
C1099 C1100 1.399 . S
C1100 H1086 0.929 . S
C1100 C1099 1.399 . S
C1100 C1101 1.385 . S
C1101 H1087 0.931 . S
C1101 C1100 1.385 . S
C1101 C1102 1.389 . S
C1102 C1101 1.389 . S
C1102 C1103 1.387 . S
C1103 H1088 0.930 . S
C1103 C1098 1.390 . S
C1103 C1102 1.387 . S
H1104 C1116 0.930 . S
H1105 C1118 0.930 . S
H1106 C1119 0.930 . S
H1107 C1123 0.959 . S
H1108 C1123 0.959 . S
H1109 C1123 0.961 . S
H1110 C1124 0.960 . S
H1111 C1124 0.961 . S
H1112 C1124 0.959 . S
H1113 C1127 0.929 . S
H1114 C1128 0.931 . S
H1115 C1130 0.930 . S
C1116 H1104 0.930 . S
C1116 C1117 1.399 . S
C1116 C1121 1.399 . S
C1117 C1116 1.399 . S
C1117 C1118 1.376 . S
C1118 H1105 0.930 . S
C1118 C1117 1.376 . S
C1118 C1119 1.388 . S
C1119 H1106 0.930 . S
C1119 C1118 1.388 . S
C1119 C1120 1.390 . S
C1120 C1119 1.390 . S
C1120 C1121 1.394 . S
C1120 C1126 1.465 . S
C1121 C1116 1.399 . S
C1121 C1120 1.394 . S
C1121 C1122 1.516 . S
C1122 C1121 1.516 . S
C1122 C1123 1.502 . S
C1122 C1124 1.561 . S
C1122 C1125 1.526 . S
C1123 H1107 0.959 . S
C1123 H1108 0.959 . S
C1123 H1109 0.961 . S
C1123 C1122 1.502 . S
C1124 H1110 0.960 . S
C1124 H1111 0.961 . S
C1124 H1112 0.959 . S
C1124 C1122 1.561 . S
C1125 C1122 1.526 . S
C1125 C1126 1.396 . S
C1125 C1130 1.390 . S
C1126 C1120 1.465 . S
C1126 C1125 1.396 . S
C1126 C1127 1.399 . S
C1127 H1113 0.929 . S
C1127 C1126 1.399 . S
C1127 C1128 1.385 . S
C1128 H1114 0.931 . S
C1128 C1127 1.385 . S
C1128 C1129 1.389 . S
C1129 C1128 1.389 . S
C1129 C1130 1.387 . S
C1130 H1115 0.930 . S
C1130 C1125 1.390 . S
C1130 C1129 1.387 . S
H1131 C1143 0.930 . S
H1132 C1145 0.930 . S
H1133 C1146 0.930 . S
H1134 C1150 0.959 . S
H1135 C1150 0.959 . S
H1136 C1150 0.961 . S
H1137 C1151 0.960 . S
H1138 C1151 0.961 . S
H1139 C1151 0.959 . S
H1140 C1154 0.929 . S
H1141 C1155 0.931 . S
H1142 C1157 0.930 . S
C1143 H1131 0.930 . S
C1143 C1144 1.399 . S
C1143 C1148 1.399 . S
C1144 C1143 1.399 . S
C1144 C1145 1.376 . S
C1145 H1132 0.930 . S
C1145 C1144 1.376 . S
C1145 C1146 1.388 . S
C1146 H1133 0.930 . S
C1146 C1145 1.388 . S
C1146 C1147 1.390 . S
C1147 C1146 1.390 . S
C1147 C1148 1.394 . S
C1147 C1153 1.465 . S
C1148 C1143 1.399 . S
C1148 C1147 1.394 . S
C1148 C1149 1.516 . S
C1149 C1148 1.516 . S
C1149 C1150 1.502 . S
C1149 C1151 1.561 . S
C1149 C1152 1.526 . S
C1150 H1134 0.959 . S
C1150 H1135 0.959 . S
C1150 H1136 0.961 . S
C1150 C1149 1.502 . S
C1151 H1137 0.960 . S
C1151 H1138 0.961 . S
C1151 H1139 0.959 . S
C1151 C1149 1.561 . S
C1152 C1149 1.526 . S
C1152 C1153 1.396 . S
C1152 C1157 1.390 . S
C1153 C1147 1.465 . S
C1153 C1152 1.396 . S
C1153 C1154 1.399 . S
C1154 H1140 0.929 . S
C1154 C1153 1.399 . S
C1154 C1155 1.385 . S
C1155 H1141 0.931 . S
C1155 C1154 1.385 . S
C1155 C1156 1.389 . S
C1156 C1155 1.389 . S
C1156 C1157 1.387 . S
C1157 H1142 0.930 . S
C1157 C1152 1.390 . S
C1157 C1156 1.387 . S
H1158 C1170 0.930 . S
H1159 C1172 0.930 . S
H1160 C1173 0.930 . S
H1161 C1177 0.959 . S
H1162 C1177 0.959 . S
H1163 C1177 0.961 . S
H1164 C1178 0.960 . S
H1165 C1178 0.961 . S
H1166 C1178 0.959 . S
H1167 C1181 0.929 . S
H1168 C1182 0.931 . S
H1169 C1184 0.930 . S
C1170 H1158 0.930 . S
C1170 C1171 1.399 . S
C1170 C1175 1.399 . S
C1171 C1170 1.399 . S
C1171 C1172 1.376 . S
C1172 H1159 0.930 . S
C1172 C1171 1.376 . S
C1172 C1173 1.388 . S
C1173 H1160 0.930 . S
C1173 C1172 1.388 . S
C1173 C1174 1.390 . S
C1174 C1173 1.390 . S
C1174 C1175 1.394 . S
C1174 C1180 1.465 . S
C1175 C1170 1.399 . S
C1175 C1174 1.394 . S
C1175 C1176 1.516 . S
C1176 C1175 1.516 . S
C1176 C1177 1.502 . S
C1176 C1178 1.561 . S
C1176 C1179 1.526 . S
C1177 H1161 0.959 . S
C1177 H1162 0.959 . S
C1177 H1163 0.961 . S
C1177 C1176 1.502 . S
C1178 H1164 0.960 . S
C1178 H1165 0.961 . S
C1178 H1166 0.959 . S
C1178 C1176 1.561 . S
C1179 C1176 1.526 . S
C1179 C1180 1.396 . S
C1179 C1184 1.390 . S
C1180 C1174 1.465 . S
C1180 C1179 1.396 . S
C1180 C1181 1.399 . S
C1181 H1167 0.929 . S
C1181 C1180 1.399 . S
C1181 C1182 1.385 . S
C1182 H1168 0.931 . S
C1182 C1181 1.385 . S
C1182 C1183 1.389 . S
C1183 C1182 1.389 . S
C1183 C1184 1.387 . S
C1184 H1169 0.930 . S
C1184 C1179 1.390 . S
C1184 C1183 1.387 . S
H1185 C1197 0.930 . S
H1186 C1199 0.930 . S
H1187 C1200 0.930 . S
H1188 C1204 0.959 . S
H1189 C1204 0.959 . S
H1190 C1204 0.961 . S
H1191 C1205 0.960 . S
H1192 C1205 0.961 . S
H1193 C1205 0.959 . S
H1194 C1208 0.929 . S
H1195 C1209 0.931 . S
H1196 C1211 0.930 . S
C1197 H1185 0.930 . S
C1197 C1198 1.399 . S
C1197 C1202 1.399 . S
C1198 C1197 1.399 . S
C1198 C1199 1.376 . S
C1199 H1186 0.930 . S
C1199 C1198 1.376 . S
C1199 C1200 1.388 . S
C1200 H1187 0.930 . S
C1200 C1199 1.388 . S
C1200 C1201 1.390 . S
C1201 C1200 1.390 . S
C1201 C1202 1.394 . S
C1201 C1207 1.465 . S
C1202 C1197 1.399 . S
C1202 C1201 1.394 . S
C1202 C1203 1.516 . S
C1203 C1202 1.516 . S
C1203 C1204 1.502 . S
C1203 C1205 1.561 . S
C1203 C1206 1.526 . S
C1204 H1188 0.959 . S
C1204 H1189 0.959 . S
C1204 H1190 0.961 . S
C1204 C1203 1.502 . S
C1205 H1191 0.960 . S
C1205 H1192 0.961 . S
C1205 H1193 0.959 . S
C1205 C1203 1.561 . S
C1206 C1203 1.526 . S
C1206 C1207 1.396 . S
C1206 C1211 1.390 . S
C1207 C1201 1.465 . S
C1207 C1206 1.396 . S
C1207 C1208 1.399 . S
C1208 H1194 0.929 . S
C1208 C1207 1.399 . S
C1208 C1209 1.385 . S
C1209 H1195 0.931 . S
C1209 C1208 1.385 . S
C1209 C1210 1.389 . S
C1210 C1209 1.389 . S
C1210 C1211 1.387 . S
C1211 H1196 0.930 . S
C1211 C1206 1.390 . S
C1211 C1210 1.387 . S
H1212 C1224 0.930 . S
H1213 C1226 0.930 . S
H1214 C1227 0.930 . S
H1215 C1231 0.961 . S
H1216 C1231 0.975 . S
H1217 C1231 0.943 1_455 S
H1218 C1232 0.961 1_455 S
H1219 C1232 0.960 . S
H1220 C1232 0.955 . S
H1221 C1235 0.929 . S
H1222 C1236 0.931 . S
H1223 C1238 0.930 . S
C1224 H1212 0.930 . S
C1224 C1225 1.399 . S
C1224 C1229 1.399 . S
C1225 C1224 1.399 . S
C1225 C1226 1.376 . S
C1226 H1213 0.930 . S
C1226 C1225 1.376 . S
C1226 C1227 1.388 . S
C1227 H1214 0.930 . S
C1227 C1226 1.388 . S
C1227 C1228 1.390 . S
C1228 C1227 1.390 . S
C1228 C1229 1.394 . S
C1228 C1234 1.465 1_455 S
C1229 C1224 1.399 . S
C1229 C1228 1.394 . S
C1229 C1230 1.520 1_455 S
C1230 C1229 1.520 1_655 S
C1230 C1231 1.502 . S
C1230 C1232 1.561 . S
C1230 C1233 1.522 . S
C1231 H1215 0.961 . S
C1231 H1216 0.975 . S
C1231 H1217 0.943 1_655 S
C1231 C1230 1.502 . S
C1232 H1218 0.961 1_655 S
C1232 H1219 0.960 . S
C1232 H1220 0.955 . S
C1232 C1230 1.561 . S
C1233 C1230 1.522 . S
C1233 C1234 1.396 . S
C1233 C1238 1.390 . S
C1234 C1228 1.465 1_655 S
C1234 C1233 1.396 . S
C1234 C1235 1.399 . S
C1235 H1221 0.929 . S
C1235 C1234 1.399 . S
C1235 C1236 1.385 . S
C1236 H1222 0.931 . S
C1236 C1235 1.385 . S
C1236 C1237 1.389 . S
C1237 C1236 1.389 . S
C1237 C1238 1.387 . S
C1238 H1223 0.930 . S
C1238 C1233 1.390 . S
C1238 C1237 1.387 . S
H1239 C1251 0.930 . S
H1240 C1253 0.930 . S
H1241 C1254 0.930 . S
H1242 C1258 0.961 . S
H1243 C1258 0.975 . S
H1244 C1258 0.943 1_655 S
H1245 C1259 0.961 1_655 S
H1246 C1259 0.960 . S
H1247 C1259 0.955 . S
H1248 C1262 0.929 . S
H1249 C1263 0.931 . S
H1250 C1265 0.930 . S
C1251 H1239 0.930 . S
C1251 C1252 1.399 . S
C1251 C1256 1.399 . S
C1252 C1251 1.399 . S
C1252 C1253 1.376 . S
C1253 H1240 0.930 . S
C1253 C1252 1.376 . S
C1253 C1254 1.388 . S
C1254 H1241 0.930 . S
C1254 C1253 1.388 . S
C1254 C1255 1.390 . S
C1255 C1254 1.390 . S
C1255 C1256 1.394 . S
C1255 C1261 1.465 1_655 S
C1256 C1251 1.399 . S
C1256 C1255 1.394 . S
C1256 C1257 1.520 1_655 S
C1257 C1256 1.520 1_455 S
C1257 C1258 1.502 . S
C1257 C1259 1.561 . S
C1257 C1260 1.522 . S
C1258 H1242 0.961 . S
C1258 H1243 0.975 . S
C1258 H1244 0.943 1_455 S
C1258 C1257 1.502 . S
C1259 H1245 0.961 1_455 S
C1259 H1246 0.960 . S
C1259 H1247 0.955 . S
C1259 C1257 1.561 . S
C1260 C1257 1.522 . S
C1260 C1261 1.396 . S
C1260 C1265 1.390 . S
C1261 C1255 1.465 1_455 S
C1261 C1260 1.396 . S
C1261 C1262 1.399 . S
C1262 H1248 0.929 . S
C1262 C1261 1.399 . S
C1262 C1263 1.385 . S
C1263 H1249 0.931 . S
C1263 C1262 1.385 . S
C1263 C1264 1.389 . S
C1264 C1263 1.389 . S
C1264 C1265 1.387 . S
C1265 H1250 0.930 . S
C1265 C1260 1.390 . S
C1265 C1264 1.387 . S
H1266 C1278 0.930 . S
H1267 C1280 0.930 . S
H1268 C1281 0.930 . S
H1269 C1285 0.959 . S
H1270 C1285 0.959 . S
H1271 C1285 0.961 . S
H1272 C1286 0.960 1_554 S
H1273 C1286 0.961 1_554 S
H1274 C1286 0.959 1_554 S
H1275 C1289 0.929 . S
H1276 C1290 0.931 . S
H1277 C1292 0.930 . S
C1278 H1266 0.930 . S
C1278 C1279 1.399 . S
C1278 C1283 1.399 . S
C1279 C1278 1.399 . S
C1279 C1280 1.376 . S
C1280 H1267 0.930 . S
C1280 C1279 1.376 . S
C1280 C1281 1.388 . S
C1281 H1268 0.930 . S
C1281 C1280 1.388 . S
C1281 C1282 1.390 . S
C1282 C1281 1.390 . S
C1282 C1283 1.394 . S
C1282 C1288 1.465 . S
C1283 C1278 1.399 . S
C1283 C1282 1.394 . S
C1283 C1284 1.516 . S
C1284 C1283 1.516 . S
C1284 C1285 1.502 . S
C1284 C1286 1.561 . S
C1284 C1287 1.526 . S
C1285 H1269 0.959 . S
C1285 H1270 0.959 . S
C1285 H1271 0.961 . S
C1285 C1284 1.502 . S
C1286 H1272 0.960 1_556 S
C1286 H1273 0.961 1_556 S
C1286 H1274 0.959 1_556 S
C1286 C1284 1.561 . S
C1287 C1284 1.526 . S
C1287 C1288 1.396 . S
C1287 C1292 1.390 . S
C1288 C1282 1.465 . S
C1288 C1287 1.396 . S
C1288 C1289 1.399 . S
C1289 H1275 0.929 . S
C1289 C1288 1.399 . S
C1289 C1290 1.385 . S
C1290 H1276 0.931 . S
C1290 C1289 1.385 . S
C1290 C1291 1.389 . S
C1291 C1290 1.389 . S
C1291 C1292 1.387 . S
C1292 H1277 0.930 . S
C1292 C1287 1.390 . S
C1292 C1291 1.387 . S
H1293 C1305 0.930 . S
H1294 C1307 0.930 . S
H1295 C1308 0.930 . S
H1296 C1312 0.959 . S
H1297 C1312 0.959 . S
H1298 C1312 0.961 . S
H1299 C1313 0.960 . S
H1300 C1313 0.961 . S
H1301 C1313 0.959 . S
H1302 C1316 0.929 . S
H1303 C1317 0.931 . S
H1304 C1319 0.930 . S
C1305 H1293 0.930 . S
C1305 C1306 1.399 . S
C1305 C1310 1.399 . S
C1306 C1305 1.399 . S
C1306 C1307 1.376 . S
C1307 H1294 0.930 . S
C1307 C1306 1.376 . S
C1307 C1308 1.388 . S
C1308 H1295 0.930 . S
C1308 C1307 1.388 . S
C1308 C1309 1.390 . S
C1309 C1308 1.390 . S
C1309 C1310 1.394 . S
C1309 C1315 1.465 . S
C1310 C1305 1.399 . S
C1310 C1309 1.394 . S
C1310 C1311 1.516 . S
C1311 C1310 1.516 . S
C1311 C1312 1.502 . S
C1311 C1313 1.561 . S
C1311 C1314 1.526 . S
C1312 H1296 0.959 . S
C1312 H1297 0.959 . S
C1312 H1298 0.961 . S
C1312 C1311 1.502 . S
C1313 H1299 0.960 . S
C1313 H1300 0.961 . S
C1313 H1301 0.959 . S
C1313 C1311 1.561 . S
C1314 C1311 1.526 . S
C1314 C1315 1.396 . S
C1314 C1319 1.390 . S
C1315 C1309 1.465 . S
C1315 C1314 1.396 . S
C1315 C1316 1.399 . S
C1316 H1302 0.929 . S
C1316 C1315 1.399 . S
C1316 C1317 1.385 . S
C1317 H1303 0.931 . S
C1317 C1316 1.385 . S
C1317 C1318 1.389 . S
C1318 C1317 1.389 . S
C1318 C1319 1.387 . S
C1319 H1304 0.930 . S
C1319 C1314 1.390 . S
C1319 C1318 1.387 . S
C685 C58 1.511 . S
C697 C657 1.555 . S
C712 C562 1.523 . S
C724 C153 1.581 . S
C739 C489 1.586 . S
C751 C226 1.485 . S
C766 C394 1.486 . S
C778 C321 1.606 . S
C793 C231 2.422 . S
C805 C63 2.429 . S
C820 C147 0.712 . S
C832 C315 0.654 . S
C847 C326 2.459 . S
C859 C158 2.459 . S
C874 C242 0.665 . S
C886 C74 0.694 . S
C901 C399 2.431 . S
C913 C567 2.446 . S
C928 C483 0.532 . S
C940 C651 0.562 . S
C955 C662 2.460 . S
C967 C494 2.465 . S
C982 C578 0.648 . S
C994 C410 0.655 . S
C1009 C56 1.755 . S
C1021 C67 1.765 . S
C1036 C151 1.739 . S
C1048 C140 1.767 . S
C1063 C235 1.732 . S
C1075 C224 1.780 . S
C1090 C319 1.731 . S
C1102 C308 1.780 . S
C1117 C403 1.779 . S
C1129 C392 1.732 . S
C1144 C487 1.738 . S
C1156 C476 1.778 . S
C1171 C560 1.747 . S
C1183 C571 1.771 . S
C1198 C655 1.781 . S
C1210 C644 1.732 . S
C1225 C69 2.025 . S
C1237 C142 2.011 . S
C1252 C310 1.980 . S
C1264 C237 1.996 . S
C1279 C405 2.043 . S
C1291 C478 2.043 . S
C1306 C646 2.019 . S
C1318 C573 2.004 . S
