# Generated by pormake.
# Topology snk, (6)-cn, num edge types: 1
# Building blocks:
#     Node 0, Type 0, BuildingBlock: KUMBUR_clean_sbu_0, # of connection points: 6
#     Node 1, Type 0, BuildingBlock: KUMBUR_clean_sbu_0, # of connection points: 6
#     Node 2, Type 0, BuildingBlock: KUMBUR_clean_sbu_0, # of connection points: 6
#     Node 3, Type 0, BuildingBlock: KUMBUR_clean_sbu_0, # of connection points: 6
#     Node 4, Type 0, BuildingBlock: KUMBUR_clean_sbu_0, # of connection points: 6
#     Node 5, Type 0, BuildingBlock: KUMBUR_clean_sbu_0, # of connection points: 6
#     Node 6, Type 0, BuildingBlock: KUMBUR_clean_sbu_0, # of connection points: 6
#     Node 7, Type 0, BuildingBlock: KUMBUR_clean_sbu_0, # of connection points: 6
#     Edge 8, Type (0, 0), BuildingBlock: OJICUG_clean_linker_0, # of connection points: 2
#     Edge 9, Type (0, 0), BuildingBlock: OJICUG_clean_linker_0, # of connection points: 2
#     Edge 10, Type (0, 0), BuildingBlock: OJICUG_clean_linker_0, # of connection points: 2
#     Edge 11, Type (0, 0), BuildingBlock: OJICUG_clean_linker_0, # of connection points: 2
#     Edge 12, Type (0, 0), BuildingBlock: OJICUG_clean_linker_0, # of connection points: 2
#     Edge 13, Type (0, 0), BuildingBlock: OJICUG_clean_linker_0, # of connection points: 2
#     Edge 14, Type (0, 0), BuildingBlock: OJICUG_clean_linker_0, # of connection points: 2
#     Edge 15, Type (0, 0), BuildingBlock: OJICUG_clean_linker_0, # of connection points: 2
#     Edge 16, Type (0, 0), BuildingBlock: OJICUG_clean_linker_0, # of connection points: 2
#     Edge 17, Type (0, 0), BuildingBlock: OJICUG_clean_linker_0, # of connection points: 2
#     Edge 18, Type (0, 0), BuildingBlock: OJICUG_clean_linker_0, # of connection points: 2
#     Edge 19, Type (0, 0), BuildingBlock: OJICUG_clean_linker_0, # of connection points: 2
#     Edge 20, Type (0, 0), BuildingBlock: OJICUG_clean_linker_0, # of connection points: 2
#     Edge 21, Type (0, 0), BuildingBlock: OJICUG_clean_linker_0, # of connection points: 2
#     Edge 22, Type (0, 0), BuildingBlock: OJICUG_clean_linker_0, # of connection points: 2
#     Edge 23, Type (0, 0), BuildingBlock: OJICUG_clean_linker_0, # of connection points: 2
#     Edge 24, Type (0, 0), BuildingBlock: OJICUG_clean_linker_0, # of connection points: 2
#     Edge 25, Type (0, 0), BuildingBlock: OJICUG_clean_linker_0, # of connection points: 2
#     Edge 26, Type (0, 0), BuildingBlock: OJICUG_clean_linker_0, # of connection points: 2
#     Edge 27, Type (0, 0), BuildingBlock: OJICUG_clean_linker_0, # of connection points: 2
#     Edge 28, Type (0, 0), BuildingBlock: OJICUG_clean_linker_0, # of connection points: 2
#     Edge 29, Type (0, 0), BuildingBlock: OJICUG_clean_linker_0, # of connection points: 2
#     Edge 30, Type (0, 0), BuildingBlock: OJICUG_clean_linker_0, # of connection points: 2
#     Edge 31, Type (0, 0), BuildingBlock: OJICUG_clean_linker_0, # of connection points: 2
# Relax obj value: 0.002
# Max RMSD: 0.037
# Mean RMSD: 0.036
data_MOF--net-snk--node1-KUMBUR_clean_sbu_0--edge1-OJICUG_clean_linker_0
_symmetry_space_group_name_H-M    P1
_symmetry_Int_Tables_number       1
_symmetry_cell_setting            triclinic
loop_
_symmetry_equiv_pos_as_xyz
'x, y, z'
_cell_length_a     26.261292
_cell_length_b     26.239592
_cell_length_c     19.847834
_cell_angle_alpha  87.376602
_cell_angle_beta   87.38696
_cell_angle_gamma 89.713089
loop_
_atom_site_label
_atom_site_type_symbol
_atom_site_fract_x
_atom_site_fract_y
_atom_site_fract_z
_atom_type_partial_charge
Tb0 Tb 1.00105 0.96901 0.4691 0.0
C1 C 1.00712 0.16472 0.64342 0.0
C2 C 0.09229 0.1997 0.63572 0.0
C3 C 0.02303 0.24748 0.68866 0.0
C4 C 0.05783 0.16037 0.6238 0.0
C5 C 0.98885 0.20857 0.67536 0.0
C6 C 0.07469 0.24307 0.66884 0.0
C7 C 0.90462 0.1721 0.67882 0.0
N8 N 0.97606 0.12502 0.63334 0.0
C9 C 0.9249 0.12858 0.64944 0.0
C10 C 0.93691 0.21171 0.69358 0.0
Tb11 Tb 0.01638 0.05034 0.60624 0.0
N12 N 0.07416 0.11569 0.59855 0.0
C13 C 0.12499 0.10803 0.58444 0.0
C14 C 0.14368 0.19327 0.61648 0.0
C15 C 0.16012 0.14722 0.59055 0.0
H16 H 0.89922 0.09809 0.63982 0.0
H17 H 0.20014 0.14113 0.57783 0.0
H18 H 0.10067 0.27335 0.67934 0.0
H19 H 0.86418 0.17461 0.69107 0.0
H20 H 0.13894 0.07106 0.57052 0.0
H21 H 0.81731 0.87805 0.49609 0.0
H22 H 0.17109 0.22295 0.62319 0.0
H23 H 0.11843 0.92112 0.43704 0.0
H24 H 0.87846 0.94801 0.50456 0.0
H25 H 0.15366 0.84496 0.38524 0.0
H26 H 0.0098 0.28128 0.7136 0.0
H27 H 0.84647 0.79659 0.44973 0.0
H28 H 0.91713 0.74649 0.3936 0.0
H29 H 0.92126 0.24481 0.71798 0.0
H30 H 1.00812 0.73875 0.35983 0.0
N31 N 0.94333 0.90358 0.47632 0.0
C32 C 0.89247 0.91113 0.49033 0.0
C33 C 0.87388 0.82615 0.45712 0.0
C34 C 0.92534 0.8198 0.43818 0.0
C35 C 0.85737 0.87201 0.48355 0.0
C36 C 0.95974 0.85904 0.45075 0.0
H37 H 0.09667 0.77515 0.35658 0.0
N38 N 0.04153 0.89437 0.44218 0.0
C39 C 0.11316 0.84747 0.39697 0.0
C40 C 0.01051 0.85478 0.4314 0.0
C41 C 0.09276 0.89079 0.4267 0.0
C42 C 0.08092 0.80809 0.38125 0.0
C43 C 0.0289 0.81115 0.39908 0.0
O44 O 0.02302 0.98678 0.36765 0.0
O45 O 0.03428 0.03958 0.50047 0.0
O46 O 0.97232 0.09389 0.53066 0.0
O47 O 0.93708 0.02302 0.48486 0.0
O48 O 0.07509 0.9998 0.43129 0.0
O49 O 0.94357 0.97929 0.39906 0.0
O50 O 0.99458 0.03247 0.70771 0.0
O51 O 0.98309 0.98009 0.57459 0.0
O52 O 0.04457 0.92525 0.54514 0.0
O53 O 0.08013 0.9961 0.59042 0.0
O54 O 0.9425 0.01925 0.6445 0.0
O55 O 0.07397 0.04011 0.67611 0.0
C56 C 0.07551 0.04072 0.46408 0.0
C57 C 0.96834 0.95904 0.28679 0.0
C58 C 0.98025 0.95722 0.1646 0.0
C59 C 0.98477 0.98231 0.22495 0.0
C60 C 0.96112 0.90719 0.16722 0.0
C61 C 0.94628 0.91045 0.2881 0.0
C62 C 0.94402 0.8841 0.22882 0.0
C63 C 0.93816 0.07301 0.49283 0.0
C64 C 0.97636 0.98634 0.34835 0.0
C65 C 0.99479 0.77237 0.38509 0.0
C66 C 0.94306 0.77668 0.40463 0.0
C67 C 0.94205 0.97854 0.61128 0.0
C68 C 0.04932 0.06025 0.78842 0.0
C69 C 0.03315 0.03689 0.8503 0.0
C70 C 0.0376 0.06202 0.91063 0.0
C71 C 0.05652 0.11213 0.90796 0.0
C72 C 0.07108 0.10899 0.78701 0.0
C73 C 0.07339 0.13532 0.84631 0.0
C74 C 0.0787 0.94605 0.58311 0.0
C75 C 0.04127 0.03294 0.7269 0.0
H76 H 1.00146 0.02001 0.22402 0.0
H77 H 0.95794 0.88655 0.12159 0.0
H78 H 0.93061 0.89294 0.33433 0.0
H79 H 0.92831 0.84598 0.23053 0.0
H80 H 0.01664 0.99909 0.85127 0.0
H81 H 0.05973 0.13278 0.95357 0.0
H82 H 0.08643 0.12665 0.74069 0.0
H83 H 0.08897 0.17349 0.84457 0.0
Tb84 Tb 0.31139 0.75771 0.71946 0.0
C85 C 0.0922 0.75788 0.81937 0.0
C86 C 0.06484 0.84345 0.79068 0.0
C87 C 1.00875 0.77207 0.77423 0.0
C88 C 0.10247 0.80881 0.81234 0.0
C89 C 0.04479 0.73858 0.8025 0.0
C90 C 0.01867 0.82464 0.76887 0.0
C91 C 0.06972 0.65728 0.85298 0.0
N92 N 0.12813 0.72763 0.84712 0.0
C93 C 0.11639 0.6786 0.86846 0.0
C94 C 0.03454 0.68692 0.81749 0.0
Tb95 Tb 0.20861 0.76135 0.84983 0.0
N96 N 0.14834 0.82451 0.83171 0.0
C97 C 0.15659 0.87553 0.83839 0.0
C98 C 0.0742 0.89563 0.79379 0.0
C99 C 0.11975 0.91169 0.81955 0.0
H100 H 0.14438 0.65488 0.89313 0.0
H101 H 0.12693 0.95198 0.82378 0.0
H102 H 0.98951 0.85056 0.75125 0.0
H103 H 0.06136 0.61779 0.86725 0.0
H104 H 0.19167 0.88923 0.85696 0.0
H105 H 0.39521 0.56849 0.75008 0.0
H106 H 0.04608 0.92357 0.77823 0.0
H107 H 0.37446 0.86437 0.67298 0.0
H108 H 0.32965 0.63015 0.71557 0.0
H109 H 0.45716 0.90285 0.6974 0.0
H110 H 0.97212 0.75828 0.76018 0.0
H111 H 0.47558 0.5985 0.79526 0.0
H112 H 0.53104 0.67289 0.82143 0.0
H113 H 0.99867 0.67029 0.80515 0.0
H114 H 0.54747 0.76532 0.80968 0.0
N115 N 0.37239 0.69563 0.73906 0.0
C116 C 0.3647 0.64443 0.73355 0.0
C117 C 0.44723 0.62594 0.77887 0.0
C118 C 0.45597 0.67834 0.78082 0.0
C119 C 0.40194 0.60895 0.75329 0.0
C120 C 0.41804 0.7122 0.75807 0.0
H121 H 0.52039 0.85212 0.76099 0.0
N122 N 0.3915 0.79252 0.72103 0.0
C123 C 0.4492 0.86349 0.7129 0.0
C124 C 0.42774 0.76317 0.74962 0.0
C125 C 0.40271 0.84137 0.69825 0.0
C126 C 0.48468 0.83486 0.74924 0.0
C127 C 0.4749 0.78334 0.766 0.0
O128 O 0.31619 0.7931 0.62142 0.0
O129 O 0.23502 0.78305 0.74782 0.0
O130 O 0.18444 0.71282 0.77095 0.0
O131 O 0.26222 0.69048 0.71777 0.0
O132 O 0.28011 0.83255 0.68968 0.0
O133 O 0.3064 0.71195 0.63556 0.0
O134 O 0.20245 0.72485 0.9471 0.0
O135 O 0.28507 0.73591 0.82171 0.0
O136 O 0.33528 0.80775 0.7969 0.0
O137 O 0.25759 0.82858 0.8516 0.0
O138 O 0.23935 0.68608 0.87843 0.0
O139 O 0.21497 0.80572 0.93481 0.0
C140 C 0.23514 0.82643 0.71705 0.0
C141 C 0.3319 0.74356 0.52472 0.0
C142 C 0.32183 0.7431 0.40231 0.0
C143 C 0.30181 0.75144 0.4681 0.0
C144 C 0.37293 0.72695 0.39449 0.0
C145 C 0.38254 0.72745 0.51572 0.0
C146 C 0.40291 0.71931 0.45073 0.0
C147 C 0.21281 0.68405 0.73101 0.0
C148 C 0.3082 0.75071 0.59231 0.0
C149 C 0.51112 0.75079 0.79566 0.0
C150 C 0.50174 0.69813 0.80262 0.0
C151 C 0.28458 0.69227 0.85192 0.0
C152 C 0.18759 0.77357 0.04463 0.0
C153 C 0.21728 0.76544 0.10158 0.0
C154 C 0.1968 0.77343 0.16722 0.0
C155 C 0.14566 0.78951 0.1746 0.0
C156 C 0.13687 0.78957 0.05317 0.0
C157 C 0.11605 0.79736 0.11803 0.0
C158 C 0.30669 0.83609 0.83714 0.0
C159 C 0.21167 0.76651 0.97726 0.0
H160 H 0.26232 0.76297 0.47561 0.0
H161 H 0.38995 0.72069 0.3448 0.0
H162 H 0.40601 0.72089 0.55879 0.0
H163 H 0.44211 0.70687 0.44388 0.0
H164 H 0.25681 0.75393 0.09444 0.0
H165 H 0.12832 0.79554 0.22417 0.0
H166 H 0.11369 0.79628 1.00984 0.0
H167 H 0.07679 0.8097 0.12453 0.0
Tb168 Tb 0.50766 0.95865 0.09925 0.0
C169 C 0.51118 0.17245 1.01384 0.0
C170 C 0.42422 0.19784 0.03964 0.0
C171 C 0.49413 0.25178 0.06919 0.0
C172 C 0.45967 0.16184 1.0153 0.0
C173 C 0.52902 0.21826 0.0385 0.0
C174 C 0.44174 0.24159 0.06957 0.0
C175 C 0.6131 0.19688 0.99309 0.0
N176 N 0.54371 0.13859 0.98522 0.0
C177 C 0.59356 0.15162 0.97002 0.0
C178 C 0.58102 0.22956 1.02937 0.0
Tb179 Tb 0.50938 0.05995 0.97057 0.0
N180 N 0.44436 0.11789 0.98869 0.0
C181 C 0.39402 0.11181 0.97537 0.0
C182 C 0.37247 0.18977 1.03078 0.0
C183 C 0.35748 0.14744 0.99657 0.0
H184 H 0.61885 0.12544 0.94439 0.0
H185 H 0.31767 0.14188 0.98714 0.0
H186 H 0.41496 0.26908 0.08959 0.0
H187 H 0.65298 0.2062 0.98377 0.0
H188 H 0.38089 0.0799 0.94875 0.0
H189 H 0.70104 0.88051 0.08869 0.0
H190 H 0.34419 0.21703 0.04772 0.0
H191 H 0.403 0.88665 0.13057 0.0
H192 H 0.6353 0.94052 0.12601 0.0
H193 H 0.37098 0.80563 0.0888 0.0
H194 H 0.50694 0.28684 0.08957 0.0
H195 H 0.6779 0.80594 1.02455 0.0
H196 H 0.60969 0.7531 0.97817 0.0
H197 H 0.59634 0.26437 0.04744 0.0
H198 H 0.51819 0.733 0.97548 0.0
N199 N 0.57432 0.90257 0.08049 0.0
C200 C 0.62393 0.90918 0.09697 0.0
C201 C 0.64876 0.83264 0.0403 0.0
C202 C 0.59762 0.82385 1.0284 0.0
C203 C 0.66179 0.87461 0.0766 0.0
C204 C 0.56087 0.85897 0.05159 0.0
H205 H 0.42813 0.75196 1.01931 0.0
N206 N 0.47665 0.87889 0.08265 0.0
C207 C 0.41003 0.8172 0.07724 0.0
C208 C 0.50986 0.84716 0.0515 0.0
C209 C 0.42836 0.86256 0.10151 0.0
C210 C 0.44235 0.78717 0.0374 0.0
C211 C 0.49365 0.80085 1.02657 0.0
O212 O 0.49859 0.91298 0.1894 0.0
O213 O 0.48145 0.03463 0.07116 0.0
O214 O 0.55484 0.08029 0.05367 0.0
O215 O 0.57633 1.00423 0.11033 0.0
O216 O 0.43004 0.98676 0.12122 0.0
O217 O 0.50954 0.9934 0.19321 0.0
O218 O 0.51726 0.1054 0.88007 0.0
O219 O 0.5352 0.9836 0.9982 0.0
O220 O 0.45373 0.94095 1.02262 0.0
O221 O 0.44062 0.01652 0.95847 0.0
O222 O 0.58754 0.0324 0.95168 0.0
O223 O 0.50982 0.0244 0.87716 0.0
C224 C 0.43654 0.03303 0.09749 0.0
C225 C 0.53201 0.94354 0.28997 0.0
C226 C 0.54166 0.95944 0.41016 0.0
C227 C 0.51545 0.96724 0.34974 0.0
C228 C 0.58479 0.9273 0.40921 0.0
C229 C 0.57527 0.91205 0.29069 0.0
C230 C 0.60138 0.90404 0.35004 0.0
C231 C 0.58172 0.05373 0.09736 0.0
C232 C 0.50246 0.95107 0.22847 0.0
C233 C 0.52975 0.76847 0.99602 0.0
C234 C 0.58183 0.77991 0.99731 0.0
C235 C 0.58057 0.98577 0.97356 0.0
C236 C 0.48439 0.07231 0.78053 0.0
C237 C 0.50075 0.04775 0.72133 0.0
C238 C 0.47356 0.05356 0.66142 0.0
C239 C 0.42953 0.08448 0.66249 0.0
C240 C 0.44015 0.10237 0.77996 0.0
C241 C 0.41301 0.10837 0.72122 0.0
C242 C 0.42987 0.9687 0.97647 0.0
C243 C 0.51486 0.06679 0.84145 0.0
H244 H 0.48226 0.99193 0.34889 0.0
H245 H 0.60538 0.91935 0.45458 0.0
H246 H 0.58857 0.8933 0.24564 0.0
H247 H 0.63447 0.87926 0.35037 0.0
H248 H 0.53458 0.02395 0.72228 0.0
H249 H 0.40814 0.09109 0.61753 0.0
H250 H 0.42684 0.12156 0.82466 0.0
H251 H 0.37917 0.1321 0.72096 0.0
Tb252 Tb 0.29763 0.26701 0.35628 0.0
C253 C 0.10717 0.25605 0.17094 0.0
C254 C 0.07514 0.16977 0.17463 0.0
C255 C 0.02595 0.23843 0.12264 0.0
C256 C 0.11291 0.20525 0.18898 0.0
C257 C 0.06351 0.27352 0.13797 0.0
C258 C 0.03174 0.18659 0.14102 0.0
C259 C 0.09687 0.35894 0.13943 0.0
N260 N 0.14492 0.28827 0.18511 0.0
C261 C 0.14005 0.33952 0.17049 0.0
C262 C 0.05895 0.32569 0.12159 0.0
Tb263 Tb 0.21975 0.25057 0.2166 0.0
N264 N 0.15644 0.19045 0.21853 0.0
C265 C 0.16479 0.13986 0.23395 0.0
C266 C 0.08255 0.11842 0.19354 0.0
C267 C 0.12752 0.10343 0.22369 0.0
H268 H 0.16934 0.36585 0.18257 0.0
H269 H 0.13429 0.06358 0.23691 0.0
H270 H 1.00236 0.15991 0.12941 0.0
H271 H 0.09319 0.3995 0.1287 0.0
H272 H 0.20086 0.12691 0.25223 0.0
H273 H 0.38143 0.4546 0.33667 0.0
H274 H 0.05438 0.09006 0.18375 0.0
H275 H 0.34854 0.15207 0.39143 0.0
H276 H 0.31569 0.39057 0.3203 0.0
H277 H 0.42417 0.11915 0.44788 0.0
H278 H 0.99212 0.25107 0.09733 0.0
H279 H 0.4609 0.429 0.39161 0.0
H280 H 0.51253 0.35971 0.44798 0.0
H281 H 0.02588 0.34077 0.09663 0.0
H282 H 0.52349 0.26862 0.47991 0.0
N283 N 0.36054 0.32749 0.35437 0.0
C284 C 0.35177 0.37801 0.33894 0.0
C285 C 0.43319 0.40031 0.38118 0.0
C286 C 0.44086 0.34903 0.40034 0.0
C287 C 0.3885 0.41481 0.34996 0.0
C288 C 0.40383 0.31311 0.38482 0.0
H289 H 0.49087 0.17856 0.47971 0.0
N290 N 0.37263 0.22977 0.38817 0.0
C291 C 0.42053 0.15962 0.4358 0.0
C292 C 0.40988 0.26236 0.40298 0.0
C293 C 0.37764 0.17861 0.4035 0.0
C294 C 0.45808 0.19324 0.45377 0.0
C295 C 0.45321 0.24535 0.43706 0.0
O296 O 0.28391 0.24533 0.45921 0.0
O297 O 0.22776 0.23338 0.32325 0.0
O298 O 0.17406 0.2944 0.29085 0.0
O299 O 0.24399 0.3307 0.33676 0.0
O300 O 0.26682 0.19272 0.39342 0.0
O301 O 0.27626 0.32378 0.42279 0.0
O302 O 0.23331 0.27194 0.11344 0.0
O303 O 0.28971 0.28429 0.24964 0.0
O304 O 0.34266 0.22194 0.28226 0.0
O305 O 0.27221 0.18635 0.23681 0.0
O306 O 0.2507 0.32492 0.17964 0.0
O307 O 0.24139 0.19375 0.15057 0.0
C308 C 0.22625 0.19231 0.35999 0.0
C309 C 0.29758 0.30956 0.53673 0.0
C310 C 0.29796 0.30465 0.65965 0.0
C311 C 0.28172 0.28619 0.59895 0.0
C312 C 0.33109 0.3466 0.65745 0.0
C313 C 0.33057 0.35162 0.5353 0.0
C314 C 0.34724 0.36989 0.59547 0.0
C315 C 0.19414 0.32929 0.32834 0.0
C316 C 0.27499 0.29223 0.47535 0.0
C317 C 0.48999 0.28088 0.4536 0.0
C318 C 0.48379 0.33269 0.43533 0.0
C319 C 0.2913 0.32544 0.21302 0.0
C320 C 0.22129 0.20695 1.0362 0.0
C321 C 0.23783 0.2299 0.97399 0.0
C322 C 0.22319 0.21025 0.91325 0.0
C323 C 0.19126 0.16742 0.91527 0.0
C324 C 0.18918 0.1642 0.03752 0.0
C325 C 0.17437 0.1446 0.97722 0.0
C326 C 0.32203 0.1872 0.24489 0.0
C327 C 0.24286 0.22503 0.0978 0.0
H328 H 0.25608 0.2539 0.6001 0.0
H329 H 0.34326 0.36215 0.70366 0.0
H330 H 0.34252 0.37115 0.48812 0.0
H331 H 0.37177 0.40295 0.59402 0.0
H332 H 0.26282 0.2627 0.97289 0.0
H333 H 0.18055 0.15092 0.86898 0.0
H334 H 0.17662 0.14512 0.08477 0.0
H335 H 0.15069 0.11092 0.97859 0.0
Tb336 Tb 0.80833 0.25484 0.22518 0.0
C337 C 0.59033 0.25808 0.32744 0.0
C338 C 0.56243 0.34326 0.29678 0.0
C339 C 0.50745 0.271 0.28006 0.0
C340 C 0.60005 0.30925 0.32007 0.0
C341 C 0.54355 0.23806 0.30924 0.0
C342 C 0.51681 0.32369 0.27422 0.0
C343 C 0.5711 0.15579 0.35408 0.0
N344 N 0.62726 0.22785 0.35314 0.0
C345 C 0.61744 0.17755 0.36997 0.0
C346 C 0.53457 0.18588 0.32175 0.0
Tb347 Tb 0.70689 0.26358 0.35635 0.0
N348 N 0.646 0.32572 0.33829 0.0
C349 C 0.6544 0.37691 0.34237 0.0
C350 C 0.57165 0.39563 0.29793 0.0
C351 C 0.61731 0.41251 0.32259 0.0
H352 H 0.64641 0.15349 0.39184 0.0
H353 H 0.62452 0.45297 0.32477 0.0
H354 H 0.48781 0.34907 0.25484 0.0
H355 H 0.56407 0.11562 0.36533 0.0
H356 H 0.68995 0.39096 0.35915 0.0
H357 H 0.88715 0.06358 0.2563 0.0
H358 H 0.54354 0.42316 0.28106 0.0
H359 H 0.87378 0.35978 0.1774 0.0
H360 H 0.82287 0.12691 0.2226 0.0
H361 H 0.95751 0.39632 0.20111 0.0
H362 H 0.47149 0.25651 0.2645 0.0
H363 H 0.96918 0.09172 0.29891 0.0
H364 H 0.02722 0.16441 0.32263 0.0
H365 H 0.49916 0.1688 0.30845 0.0
H366 H 0.04571 0.25655 0.31121 0.0
N367 N 0.86785 0.19127 0.24432 0.0
C368 C 0.85856 0.14027 0.2397 0.0
C369 C 0.9413 0.11975 0.28301 0.0
C370 C 0.95156 0.17187 0.28426 0.0
C371 C 0.89509 0.10387 0.2589 0.0
C372 C 0.91421 0.20666 0.26226 0.0
H373 H 0.01991 0.34412 0.26419 0.0
N374 N 0.88939 0.28756 0.22538 0.0
C375 C 0.94873 0.35714 0.21664 0.0
C376 C 0.92515 0.25734 0.25352 0.0
C377 C 0.90164 0.33611 0.20238 0.0
C378 C 0.98375 0.32768 0.25267 0.0
C379 C 0.97296 0.27635 0.26921 0.0
O380 O 0.81375 0.28893 0.12667 0.0
O381 O 0.73385 0.28409 0.25452 0.0
O382 O 0.68091 0.22183 0.27284 0.0
O383 O 0.75664 0.18848 0.22832 0.0
O384 O 0.7792 0.33037 0.19288 0.0
O385 O 0.7996 0.20851 0.14239 0.0
O386 O 0.70062 0.22837 0.45424 0.0
O387 O 0.78237 0.23568 0.32818 0.0
O388 O 0.8341 0.30474 0.30202 0.0
O389 O 0.75742 0.32969 0.35617 0.0
O390 O 0.73618 0.18788 0.38686 0.0
O391 O 0.71224 0.30961 0.43985 0.0
C392 C 0.73463 0.32678 0.22218 0.0
C393 C 0.82712 0.23803 1.03128 0.0
C394 C 0.81814 0.23886 0.90864 0.0
C395 C 0.79793 0.24759 0.97418 0.0
C396 C 0.86848 0.22039 0.90151 0.0
C397 C 0.8771 0.2198 1.02302 0.0
C398 C 0.89762 0.21108 0.95825 0.0
C399 C 0.70644 0.18784 0.23771 0.0
C400 C 0.80341 0.24676 0.09841 0.0
C401 C 1.00881 0.24288 0.29791 0.0
C402 C 0.99826 0.19044 0.30475 0.0
C403 C 0.7813 0.19264 0.3596 0.0
C404 C 0.68558 0.27839 0.55063 0.0
C405 C 0.71506 0.26858 0.60741 0.0
C406 C 0.69515 0.27702 0.67317 0.0
C407 C 0.64478 0.29531 0.68086 0.0
C408 C 0.63561 0.29653 0.55944 0.0
C409 C 0.61536 0.30485 0.62445 0.0
C410 C 0.80684 0.33475 0.34175 0.0
C411 C 0.70925 0.2708 0.48319 0.0
H412 H 0.75899 0.261 0.98111 0.0
H413 H 0.8856 0.21371 0.852 0.0
H414 H 0.9 0.21221 0.06645 0.0
H415 H 0.93629 0.197 0.95195 0.0
H416 H 0.75404 0.2554 0.60005 0.0
H417 H 0.62788 0.30177 0.73056 0.0
H418 H 0.61258 0.30449 0.51624 0.0
H419 H 0.5767 0.31888 0.63118 0.0
Tb420 Tb 0.79831 0.76758 0.85581 0.0
C421 C 0.60796 0.75697 0.66999 0.0
C422 C 0.57573 0.67073 0.67427 0.0
C423 C 0.52713 0.73918 0.62079 0.0
C424 C 0.6134 0.70625 0.68882 0.0
C425 C 0.56466 0.77429 0.63606 0.0
C426 C 0.53266 0.68743 0.63984 0.0
C427 C 0.59878 0.85955 0.63515 0.0
N428 N 0.64582 0.78917 0.6838 0.0
C429 C 0.64149 0.84028 0.66759 0.0
C430 C 0.56062 0.82628 0.61815 0.0
Tb431 Tb 0.72036 0.75118 0.71611 0.0
N432 N 0.65677 0.69146 0.71879 0.0
C433 C 0.66512 0.64088 0.73426 0.0
C434 C 0.58296 0.61943 0.69362 0.0
C435 C 0.62783 0.60446 0.72406 0.0
H436 H 0.67097 0.86657 0.67908 0.0
H437 H 0.63457 0.56462 0.73737 0.0
H438 H 0.50337 0.66072 0.62803 0.0
H439 H 0.59572 0.89996 0.62228 0.0
H440 H 0.70132 0.62799 0.75225 0.0
H441 H 0.88305 0.95493 0.83775 0.0
H442 H 0.55483 0.59106 0.68371 0.0
H443 H 0.84934 0.65222 0.88764 0.0
H444 H 0.81673 0.89153 0.8216 0.0
H445 H 0.92588 0.61838 0.94031 0.0
H446 H 0.49361 0.75171 0.59473 0.0
H447 H 0.96312 0.92833 0.89043 0.0
H448 H 0.01541 0.85824 0.94383 0.0
H449 H 0.52797 0.84117 0.59209 0.0
H450 H 0.0262 0.76683 0.9741 0.0
N451 N 0.8614 0.8279 0.85442 0.0
C452 C 0.85284 0.87856 0.83971 0.0
C453 C 0.93505 0.89996 0.88029 0.0
C454 C 0.94268 0.8485 0.89844 0.0
C455 C 0.88999 0.91501 0.85042 0.0
C456 C 0.90506 0.81301 0.88359 0.0
H457 H 0.99303 0.67704 0.97305 0.0
N458 N 0.87343 0.72988 0.88621 0.0
C459 C 0.92197 0.65901 0.93036 0.0
C460 C 0.91107 0.7621 0.90075 0.0
C461 C 0.87856 0.67854 0.89997 0.0
C462 C 0.9598 0.69221 0.94856 0.0
C463 C 0.9549 0.7445 0.9332 0.0
O464 O 0.78549 0.74538 0.95882 0.0
O465 O 0.72806 0.73393 0.82298 0.0
O466 O 0.67545 0.79683 0.78948 0.0
O467 O 0.74576 0.83196 0.83616 0.0
O468 O 0.7679 0.69294 0.89196 0.0
O469 O 0.77641 0.82374 0.92273 0.0
O470 O 0.7345 0.77202 0.61301 0.0
O471 O 0.78971 0.78504 0.74964 0.0
O472 O 0.84403 0.72441 0.78084 0.0
O473 O 0.77419 0.68761 0.73545 0.0
O474 O 0.75189 0.82496 0.67777 0.0
O475 O 0.74102 0.69367 0.65042 0.0
C476 C 0.72705 0.69253 0.85913 0.0
C477 C 0.79726 0.80994 0.03679 0.0
C478 C 0.7954 0.80619 0.15976 0.0
C479 C 0.78093 0.78665 0.09887 0.0
C480 C 0.82705 0.84923 0.15798 0.0
C481 C 0.8291 0.85287 1.03572 0.0
C482 C 0.84383 0.87233 0.09616 0.0
C483 C 0.69603 0.8315 0.82701 0.0
C484 C 0.77562 0.79207 0.97511 0.0
C485 C 0.99228 0.77958 0.9491 0.0
C486 C 0.98618 0.83156 0.93175 0.0
C487 C 0.79189 0.82574 0.71226 0.0
C488 C 0.72026 0.70743 0.53621 0.0
C489 C 0.73642 0.73046 0.47391 0.0
C490 C 0.72028 0.71181 0.41328 0.0
C491 C 0.687 0.66997 0.41563 0.0
C492 C 0.68705 0.66553 0.53782 0.0
C493 C 0.67056 0.64701 0.47771 0.0
C494 C 0.82408 0.68937 0.74344 0.0
C495 C 0.74284 0.72487 0.59751 0.0
H496 H 0.7562 0.75366 0.09977 0.0
H497 H 0.83758 0.86569 0.20438 0.0
H498 H 0.84148 0.87222 0.98858 0.0
H499 H 0.86729 0.90615 0.09499 0.0
H500 H 0.7622 0.76264 0.47268 0.0
H501 H 0.67489 0.65426 0.3695 0.0
H502 H 0.67479 0.64634 0.58511 0.0
H503 H 0.6459 0.61405 0.4793 0.0
Tb504 Tb 0.5033 0.46765 0.96952 0.0
C505 C 0.50591 0.66673 0.13487 0.0
C506 C 0.59123 0.70134 0.12816 0.0
C507 C 0.52114 0.75119 0.17532 0.0
C508 C 0.55696 0.66158 0.11744 0.0
C509 C 0.48715 0.71185 0.16317 0.0
C510 C 0.57313 0.74589 0.158 0.0
C511 C 0.40297 0.67526 0.167 0.0
N512 N 0.475 0.6265 0.12679 0.0
C513 C 0.42368 0.63052 0.14149 0.0
C514 C 0.43498 0.71563 0.17962 0.0
Tb515 Tb 0.51542 0.55089 0.10457 0.0
N516 N 0.57371 0.61582 0.0961 0.0
C517 C 0.62476 0.60756 0.08461 0.0
C518 C 0.64297 0.69411 0.11162 0.0
C519 C 0.65982 0.64698 0.08958 0.0
H520 H 0.3982 0.59949 0.1336 0.0
H521 H 0.70003 0.64037 0.07887 0.0
H522 H 0.59901 0.77636 0.16809 0.0
H523 H 0.36241 0.67813 0.17805 0.0
H524 H 0.63886 0.57011 0.07313 0.0
H525 H 0.31798 0.37963 0.99211 0.0
H526 H 0.67027 0.72405 0.11758 0.0
H527 H 0.62033 0.41796 0.94237 0.0
H528 H 0.37977 0.44889 1.00108 0.0
H529 H 0.65577 0.33962 0.89655 0.0
H530 H 0.5076 0.78591 0.19778 0.0
H531 H 0.34699 0.2968 0.94974 0.0
H532 H 0.41805 0.24475 0.8981 0.0
H533 H 0.41899 0.74963 0.20141 0.0
H534 H 0.50957 0.23463 0.86947 0.0
N535 N 0.44457 0.40309 0.97664 0.0
C536 C 0.39358 0.41161 0.98832 0.0
C537 C 0.3746 0.32613 0.95738 0.0
C538 C 0.42633 0.31866 0.94104 0.0
C539 C 0.35816 0.3728 0.98145 0.0
C540 C 0.46094 0.35768 0.95371 0.0
H541 H 0.59869 0.26942 0.86959 0.0
N542 N 0.54322 0.3919 0.94666 0.0
C543 C 0.61513 0.34289 0.90663 0.0
C544 C 0.51201 0.35228 0.93672 0.0
C545 C 0.59462 0.38743 0.93299 0.0
C546 C 0.58283 0.30327 0.89192 0.0
C547 C 0.53053 0.30753 0.9072 0.0
O548 O 0.52819 0.48245 0.86843 0.0
O549 O 0.53543 0.53907 0.99969 0.0
O550 O 0.47336 0.59353 1.02631 0.0
O551 O 0.43907 0.52218 0.98073 0.0
O552 O 0.57845 0.49768 0.93474 0.0
O553 O 0.44791 0.47798 0.89669 0.0
O554 O 0.49083 0.53654 0.20582 0.0
O555 O 0.48339 0.47953 0.07427 0.0
O556 O 0.54534 0.42502 0.04804 0.0
O557 O 0.5796 0.49636 0.09378 0.0
O558 O 0.44062 0.52019 0.14014 0.0
O559 O 0.57104 0.54173 0.17726 0.0
C560 C 0.57767 0.53956 0.96558 0.0
C561 C 0.47419 0.45639 0.78563 0.0
C562 C 0.48398 0.45636 0.66324 0.0
C563 C 0.48869 0.4809 0.72391 0.0
C564 C 0.46628 0.40582 0.66523 0.0
C565 C 0.45394 0.40702 0.78664 0.0
C566 C 0.45106 0.38145 0.7268 0.0
C567 C 0.43999 0.5723 0.98777 0.0
C568 C 0.48201 0.48354 0.84726 0.0
C569 C 0.49621 0.26901 0.89293 0.0
C570 C 0.44416 0.27465 0.90961 0.0
C571 C 0.44138 0.47851 0.1089 0.0
C572 C 0.54459 0.56413 0.28792 0.0
C573 C 0.53059 0.53994 0.35003 0.0
C574 C 0.53524 0.56504 0.41031 0.0
C575 C 0.55223 0.61585 0.40747 0.0
C576 C 0.56403 0.61386 0.28603 0.0
C577 C 0.56682 0.63996 0.34547 0.0
C578 C 0.57872 0.44626 0.08666 0.0
C579 C 0.53705 0.53625 0.22684 0.0
H580 H 0.50404 0.51918 0.72333 0.0
H581 H 0.46286 0.38569 0.61922 0.0
H582 H 0.44014 0.38831 0.833 0.0
H583 H 0.43639 0.34292 0.7281 0.0
H584 H 0.51565 0.50146 0.35126 0.0
H585 H 0.55558 0.63642 0.45313 0.0
H586 H 0.57723 0.63247 0.23928 0.0
H587 H 0.58099 0.6787 0.34355 0.0
Tb588 Tb 0.01168 0.45814 0.60031 0.0
C589 C 0.01106 0.67653 0.50892 0.0
C590 C 0.92553 0.7021 0.54017 0.0
C591 C 0.9967 0.75693 0.56232 0.0
C592 C 0.96026 0.66588 0.51509 0.0
C593 C 0.03023 0.72277 0.5302 0.0
C594 C 0.94419 0.74666 0.56691 0.0
C595 C 0.11122 0.70091 0.47615 0.0
N596 N 0.04124 0.64229 0.47759 0.0
C597 C 0.09003 0.65522 0.45658 0.0
C598 C 0.0817 0.73394 0.51541 0.0
Tb599 Tb 1.00815 0.56174 0.47133 0.0
N600 N 0.94479 0.62126 0.49145 0.0
C601 C 0.89395 0.61342 0.48335 0.0
C602 C 0.87347 0.69316 0.53526 0.0
C603 C 0.85766 0.64928 0.5049 0.0
H604 H 0.11375 0.62854 0.42942 0.0
H605 H 0.81748 0.64247 0.49935 0.0
H606 H 0.91817 0.7746 0.5874 0.0
H607 H 0.15054 0.7101 0.46217 0.0
H608 H 0.88054 0.57945 0.46143 0.0
H609 H 0.20154 0.37583 0.57064 0.0
H610 H 0.84553 0.72052 0.55286 0.0
H611 H 0.90542 0.39274 0.64299 0.0
H612 H 0.13926 0.43959 0.60855 0.0
H613 H 0.86778 0.31119 0.61176 0.0
H614 H 0.01031 0.79258 0.57995 0.0
H615 H 0.17243 0.29757 0.5186 0.0
H616 H 0.09909 0.24373 0.48584 0.0
H617 H 0.09822 0.76907 0.53073 0.0
H618 H 1.00684 0.22647 0.49458 0.0
N619 N 0.0744 0.39799 0.58004 0.0
C620 C 0.1254 0.40553 0.58733 0.0
C621 C 0.14484 0.32526 0.53622 0.0
C622 C 0.09266 0.31664 0.53216 0.0
C623 C 0.16125 0.36926 0.56576 0.0
C624 C 0.05839 0.35329 0.55722 0.0
H625 H 0.91939 0.25106 0.54409 0.0
N626 N 0.97776 0.37785 0.59504 0.0
C627 C 0.90717 0.31988 0.59754 0.0
C628 C 1.00752 0.34305 0.56409 0.0
C629 C 0.92884 0.36561 0.61621 0.0
C630 C 0.93629 0.28619 0.5588 0.0
C631 C 0.98781 0.29681 0.54356 0.0
O632 O 0.97534 0.44989 0.69759 0.0
O633 O 0.98663 0.53504 0.57352 0.0
O634 O 0.05769 0.58441 0.54985 0.0
O635 O 0.07928 0.50648 0.60304 0.0
O636 O 0.93664 0.48899 0.62937 0.0
O637 O 0.05583 0.46435 0.68554 0.0
O638 O 0.04472 0.57129 0.37436 0.0
O639 O 0.03317 0.485 0.49828 0.0
O640 O 0.96287 0.43508 0.52132 0.0
O641 O 0.94088 0.51293 0.46817 0.0
O642 O 0.08304 0.53063 0.44176 0.0
O643 O 0.96458 0.55481 0.38565 0.0
C644 C 0.94307 0.53451 0.60382 0.0
C645 C 0.02416 0.43699 0.79574 0.0
C646 C 0.02516 0.44775 0.91807 0.0
C647 C 0.01638 0.46741 0.85218 0.0
C648 C 0.04155 0.39672 0.92616 0.0
C649 C 0.04044 0.38641 0.80513 0.0
C650 C 0.04893 0.36641 0.87019 0.0
C651 C 0.08625 0.55578 0.5896 0.0
C652 C 0.01666 0.46016 0.72788 0.0
C653 C 0.02087 0.26215 0.51159 0.0
C654 C 0.07344 0.27201 0.50626 0.0
C655 C 0.07654 0.48518 0.46757 0.0
C656 C 0.99615 0.58342 0.27587 0.0
C657 C 1.00405 0.55316 0.21931 0.0
C658 C 0.99528 0.57295 0.15347 0.0
C659 C 0.97878 0.62395 0.14557 0.0
C660 C 0.97974 0.63397 0.26668 0.0
C661 C 0.97126 0.6541 0.20167 0.0
C662 C 0.93428 0.46355 0.48144 0.0
C663 C 1.00385 0.56016 0.34363 0.0
H664 H 1.00457 0.50683 0.84446 0.0
H665 H 0.0482 0.37999 0.97587 0.0
H666 H 0.04686 0.36268 0.76228 0.0
H667 H 0.06148 0.32725 0.87733 0.0
H668 H 0.01597 0.51377 0.22688 0.0
H669 H 0.97215 0.64079 0.09591 0.0
H670 H 0.97323 0.65758 0.30964 0.0
H671 H 0.95863 0.69325 0.19469 0.0
C672 C 0.09683 0.13385 0.42461 0.0
C673 C 0.11173 0.08319 0.44162 0.0
H674 H 0.12022 0.20804 0.38091 0.0
C675 C 0.16271 0.06955 0.42676 0.0
H676 H 0.05768 0.14554 0.43418 0.0
C677 C 0.19813 0.10503 0.39842 0.0
C678 C 0.18393 0.15542 0.38056 0.0
H679 H 0.17553 0.03086 0.43778 0.0
H680 H 0.23732 0.0928 0.39024 0.0
C681 C 0.13249 0.16948 0.39348 0.0
C682 C 0.11341 0.8604 0.62631 0.0
C683 C 0.11774 0.91386 0.61787 0.0
H684 H 0.14641 0.7903 0.66586 0.0
C685 C 0.15956 0.93742 0.64557 0.0
H686 H 0.08166 0.84106 0.60609 0.0
C687 C 0.19607 0.90866 0.67985 0.0
C688 C 0.19149 0.85553 0.68925 0.0
H689 H 0.16467 0.97835 0.64016 0.0
H690 H 0.22838 0.9281 0.69893 0.0
C691 C 0.15 0.83144 0.66152 0.0
C692 C 0.3262 0.87759 0.94214 0.0
C693 C 0.33149 0.87646 0.87167 0.0
H694 H 0.35225 0.91039 1.03096 0.0
C695 C 0.36302 0.91201 0.83552 0.0
H696 H 0.30147 0.8509 0.97092 0.0
C697 C 0.39268 0.94529 0.86987 0.0
C698 C 0.39074 0.94315 0.94063 0.0
H699 H 0.36543 0.91342 0.78102 0.0
H700 H 0.41915 0.97045 0.84133 0.0
C701 C 0.35563 0.91096 0.97643 0.0
C702 C 0.35577 0.07256 0.14017 0.0
C703 C 0.40892 0.07526 0.1315 0.0
H704 H 0.28747 0.10431 0.18261 0.0
C705 C 0.43446 0.11359 0.16421 0.0
H706 H 0.33509 0.04254 0.11761 0.0
C707 C 0.40701 0.14975 0.20226 0.0
C708 C 0.35343 0.14774 0.20927 0.0
H709 H 0.47557 0.11523 0.16088 0.0
H710 H 0.42763 0.17941 0.22546 0.0
C711 C 0.32851 0.10817 0.17799 0.0
C712 C 0.92109 0.88522 0.64966 0.0
C713 C 0.90596 0.93591 0.63322 0.0
H714 H 0.89794 0.81065 0.6922 0.0
C715 C 0.85494 0.94929 0.64821 0.0
H716 H 0.9603 0.87377 0.64003 0.0
C717 C 0.81963 0.91348 0.67596 0.0
C718 C 0.83405 0.86304 0.69315 0.0
H719 H 0.84198 0.988 0.63764 0.0
H720 H 0.78036 0.92546 0.6841 0.0
C721 C 0.88555 0.84927 0.68019 0.0
C722 C 0.90353 0.15844 0.44907 0.0
C723 C 0.89868 0.10511 0.4589 0.0
H724 H 0.87097 0.22834 0.40832 0.0
C725 C 0.85602 0.08162 0.43318 0.0
H726 H 0.93591 0.17772 0.46777 0.0
C727 C 0.81925 0.11034 0.39928 0.0
C728 C 0.82449 0.16329 0.3882 0.0
H729 H 0.85054 0.04078 0.43978 0.0
H730 H 0.78639 0.091 0.38155 0.0
C731 C 0.86678 0.1873 0.41409 0.0
C732 C 0.62641 0.16499 0.18784 0.0
C733 C 0.67614 0.15102 0.20339 0.0
H734 H 0.55788 0.14438 0.14459 0.0
C735 C 0.69489 0.10266 0.18665 0.0
H736 H 0.61104 0.20218 0.19894 0.0
C737 C 0.66373 0.06887 0.15433 0.0
C738 C 0.61424 0.08393 0.1381 0.0
H739 H 0.73321 0.0911 0.19853 0.0
H740 H 0.67864 0.0321 0.14026 0.0
C741 C 0.59587 0.13181 0.1562 0.0
C742 C 0.61079 0.87015 0.86669 0.0
C743 C 0.66447 0.87144 0.86158 0.0
H744 H 0.54172 0.90474 0.90687 0.0
C745 C 0.68918 0.91066 0.89381 0.0
H746 H 0.59038 0.84081 0.84268 0.0
C747 C 0.66162 0.94643 0.93104 0.0
C748 C 0.60836 0.94418 0.93827 0.0
H749 H 0.73029 0.91396 0.89066 0.0
H750 H 0.68218 0.976 0.9547 0.0
C751 C 0.58298 0.90636 0.90429 0.0
C752 C 0.66459 0.56943 0.92765 0.0
C753 C 0.61331 0.58236 0.94176 0.0
H754 H 0.73902 0.59343 0.89143 0.0
C755 C 0.59781 0.6327 0.92376 0.0
H756 H 0.67795 0.53105 0.93949 0.0
C757 C 0.63318 0.6687 0.89267 0.0
C758 C 0.68494 0.65535 0.88047 0.0
H759 H 0.55842 0.64386 0.9326 0.0
H760 H 0.62036 0.70693 0.87928 0.0
C761 C 0.69965 0.60523 0.89911 0.0
C762 C 0.69613 0.40925 0.18389 0.0
C763 C 0.69113 0.35623 0.19442 0.0
H764 H 0.66502 0.4788 0.14294 0.0
C765 C 0.64916 0.33222 0.16769 0.0
H766 H 0.72877 0.42863 0.20218 0.0
C767 C 0.61266 0.36102 0.13215 0.0
C768 C 0.61749 0.41436 0.1224 0.0
H769 H 0.6452 0.29118 0.17282 0.0
H770 H 0.58059 0.34163 0.11262 0.0
C771 C 0.65962 0.43794 0.14936 0.0
C772 C 0.8594 0.40677 0.48135 0.0
C773 C 0.89553 0.43771 0.44554 0.0
H774 H 0.80276 0.34901 0.47569 0.0
C775 C 0.89786 0.43954 0.37483 0.0
H776 H 0.85577 0.40662 0.53582 0.0
C777 C 0.86678 0.40769 0.34042 0.0
C778 C 0.83367 0.37362 0.37648 0.0
H779 H 0.9253 0.46366 0.34636 0.0
H780 H 0.86908 0.40923 0.28592 0.0
C781 C 0.82865 0.37464 0.44699 0.0
C782 C 0.91012 0.65411 0.70108 0.0
C783 C 0.85659 0.65031 0.70875 0.0
H784 H 0.98002 0.6212 0.66054 0.0
C785 C 0.83296 0.60911 0.67954 0.0
H786 H 0.92966 0.68522 0.72259 0.0
C787 C 0.86144 0.57328 0.64364 0.0
C788 C 0.91452 0.57761 0.63435 0.0
H789 H 0.79205 0.60405 0.68458 0.0
H790 H 0.84174 0.54173 0.62304 0.0
C791 C 0.93887 0.61795 0.66453 0.0
C792 C 0.38527 0.34908 0.18002 0.0
C793 C 0.33357 0.3626 0.19235 0.0
H794 H 0.46019 0.37382 0.14058 0.0
C795 C 0.31906 0.41286 0.17414 0.0
H796 H 0.39788 0.31066 0.19278 0.0
C797 C 0.35431 0.44867 0.14603 0.0
C798 C 0.40555 0.43563 0.13188 0.0
H799 H 0.27973 0.42476 0.18182 0.0
H800 H 0.34109 0.48716 0.13459 0.0
C801 C 0.42083 0.38511 0.14939 0.0
C802 C 0.359 0.58097 0.92543 0.0
C803 C 0.40127 0.60433 0.95223 0.0
H804 H 0.29002 0.59061 0.87246 0.0
C805 C 0.40638 0.65765 0.94251 0.0
H806 H 0.35344 0.54013 0.93178 0.0
C807 C 0.36986 0.68676 0.90736 0.0
C808 C 0.32784 0.66292 0.88055 0.0
H809 H 0.43889 0.67666 0.96143 0.0
H810 H 0.37406 0.72782 0.90204 0.0
C811 C 0.32266 0.60987 0.89093 0.0
C812 C 0.15511 0.60954 0.73097 0.0
C813 C 0.18722 0.64483 0.69541 0.0
H814 H 0.09722 0.55308 0.72443 0.0
C815 C 0.19148 0.64519 0.62477 0.0
H816 H 0.15336 0.60703 0.78547 0.0
C817 C 0.16073 0.61333 0.58994 0.0
C818 C 0.12531 0.58133 0.62544 0.0
H819 H 0.21659 0.6718 0.59644 0.0
H820 H 0.16375 0.61454 0.53542 0.0
C821 C 0.12401 0.578 0.69614 0.0
C822 C 0.10835 0.36497 0.37099 0.0
C823 C 0.16187 0.36862 0.36277 0.0
H824 H 0.03882 0.39831 0.41202 0.0
C825 C 0.18584 0.40989 0.39138 0.0
H826 H 0.08854 0.33377 0.34997 0.0
C827 C 0.15773 0.44596 0.42725 0.0
C828 C 0.10468 0.44183 0.4371 0.0
H829 H 0.22675 0.41478 0.38593 0.0
H830 H 0.17768 0.47754 0.44738 0.0
C831 C 0.07996 0.4014 0.40755 0.0
C832 C 0.99613 0.06111 1.02679 0.0
C833 C 0.02304 0.03538 0.97588 0.0
H834 H 0.96066 0.05621 0.12588 0.0
C835 C 0.03581 0.98366 0.98737 0.0
H836 H 0.98513 0.10072 1.01902 0.0
C837 C 0.02178 0.95812 0.04847 0.0
C838 C 0.99488 0.98386 0.09938 0.0
H839 H 0.05725 0.96302 0.94939 0.0
H840 H 0.03273 0.9185 0.05622 0.0
C841 C 0.9821 0.03558 0.0879 0.0
C842 C 0.29255 0.71669 0.28941 0.0
C843 C 0.28953 0.75076 0.34225 0.0
H844 H 0.26552 0.69652 0.19382 0.0
C845 C 0.25549 0.79224 0.337 0.0
H846 H 0.31753 0.68379 0.29221 0.0
C847 C 0.22564 0.79955 0.28045 0.0
C848 C 0.22873 0.76552 0.22758 0.0
H849 H 0.25256 0.8197 0.3761 0.0
H850 H 0.20075 0.83251 0.2775 0.0
C851 C 0.26264 0.72398 0.23292 0.0
C852 C 0.4557 0.01037 0.5531 0.0
C853 C 0.49113 0.02854 0.59761 0.0
H854 H 0.44338 0.97447 0.4603 0.0
C855 C 0.54334 0.02375 0.57949 0.0
H856 H 0.41518 0.01237 0.56543 0.0
C857 C 0.55954 1.00181 0.5189 0.0
C858 C 0.5241 0.9839 0.47429 0.0
H859 H 0.57193 0.03794 0.61143 0.0
H860 H 0.60006 0.99964 0.50657 0.0
C861 C 0.4719 0.98857 0.49242 0.0
C862 C 0.29466 0.24397 0.83656 0.0
C863 C 0.24239 0.23388 0.84802 0.0
H864 H 0.35332 0.27438 0.76771 0.0
C865 C 0.20855 0.24733 0.79741 0.0
H866 H 0.32153 0.23296 0.87441 0.0
C867 C 0.22666 0.27098 0.73662 0.0
C868 C 0.27894 0.28093 0.72499 0.0
H869 H 0.16803 0.24043 0.80538 0.0
H870 H 0.1997 0.28231 0.69904 0.0
C871 C 0.31279 0.26748 0.77564 0.0
C872 C 0.78834 0.21503 0.79488 0.0
C873 C 0.78677 0.24873 0.84813 0.0
H874 H 0.76067 0.197 0.6988 0.0
C875 C 0.75488 0.29189 0.84308 0.0
H876 H 0.81167 0.18093 0.79753 0.0
C877 C 0.72543 0.30104 0.78651 0.0
C878 C 0.7269 0.26728 0.73334 0.0
H879 H 0.75325 0.31916 0.88246 0.0
H880 H 0.70206 0.33512 0.78392 0.0
C881 C 0.75895 0.22422 0.73825 0.0
C882 C 0.70576 0.74831 0.29687 0.0
C883 C 0.73947 0.73534 0.34788 0.0
H884 H 0.69715 0.78255 0.19795 0.0
C885 C 0.7917 0.74577 0.33662 0.0
H886 H 0.66527 0.74112 0.30453 0.0
C887 C 0.80988 0.76937 0.27582 0.0
C888 C 0.77617 0.78237 0.22488 0.0
H889 H 0.81857 0.73495 0.37455 0.0
H890 H 0.85035 0.77667 0.26817 0.0
C891 C 0.72396 0.77182 0.23599 0.0
C892 C 0.52457 0.45973 0.54669 0.0
C893 C 0.49712 0.48406 0.59836 0.0
H894 H 0.55916 0.46672 0.44726 0.0
C895 C 0.48262 0.53543 0.58813 0.0
H896 H 0.53689 0.42044 0.55358 0.0
C897 C 0.49537 0.56198 0.52734 0.0
C898 C 0.52269 0.5376 0.47558 0.0
H899 H 0.46081 0.55496 0.62683 0.0
H900 H 0.48297 0.60124 0.52043 0.0
C901 C 0.53735 0.48628 0.48593 0.0
C902 C 0.05222 0.47772 1.03039 0.0
C903 C 0.01765 0.4802 0.97811 0.0
H904 H 0.0727 0.50479 0.12589 0.0
C905 C 0.97568 0.51352 0.98418 0.0
H906 H 0.08556 0.45341 1.0268 0.0
C907 C 0.96836 0.54314 0.04101 0.0
C908 C 1.0029 0.54063 0.09332 0.0
H909 H 0.94786 0.51603 0.94553 0.0
H910 H 0.93502 0.56746 0.0446 0.0
C911 C 0.04489 0.50734 0.08722 0.0
loop_
_geom_bond_atom_site_label_1
_geom_bond_atom_site_label_2
_geom_bond_distance
_geom_bond_site_symmetry_2
_ccdc_geom_bond_type
Tb0 N31 2.650 1_455 S
Tb0 N38 2.600 1_455 S
Tb0 O44 2.551 . S
Tb0 O45 2.613 1_565 S
Tb0 O47 2.312 1_465 S
Tb0 O48 2.559 1_565 S
Tb0 O49 2.411 1_455 S
Tb0 O51 2.358 1_455 S
Tb0 O52 2.429 . S
Tb0 C64 2.835 . S
C1 C4 1.432 . S
C1 C5 1.414 . S
C1 N8 1.359 . S
C2 C4 1.417 . S
C2 C6 1.432 . S
C2 C14 1.410 . S
C3 C5 1.444 . S
C3 C6 1.317 . S
C3 H26 0.929 . S
C4 C1 1.432 . S
C4 C2 1.417 . S
C4 N12 1.360 . S
C5 C1 1.414 . S
C5 C3 1.444 . S
C5 C10 1.385 . S
C6 C2 1.432 . S
C6 C3 1.317 . S
C6 H18 0.930 . S
C7 C9 1.392 . S
C7 C10 1.370 1_655 S
C7 H19 0.931 . S
N8 C1 1.359 . S
N8 C9 1.327 1_455 S
N8 Tb11 2.600 1_455 S
C9 C7 1.392 . S
C9 N8 1.327 1_655 S
C9 H16 0.930 . S
C10 C5 1.385 . S
C10 C7 1.370 1_455 S
C10 H29 0.930 . S
Tb11 N8 2.600 1_655 S
Tb11 N12 2.655 1_655 S
Tb11 O45 2.360 1_655 S
Tb11 O46 2.425 . S
Tb11 O50 2.548 . S
Tb11 O51 2.611 1_545 S
Tb11 O53 2.316 1_645 S
Tb11 O54 2.556 1_545 S
Tb11 O55 2.412 1_655 S
Tb11 C75 2.834 . S
N12 C4 1.360 . S
N12 Tb11 2.655 1_455 S
N12 C13 1.305 . S
C13 N12 1.305 . S
C13 C15 1.407 . S
C13 H20 0.930 . S
C14 C2 1.410 . S
C14 C15 1.345 . S
C14 H22 0.930 . S
C15 C13 1.407 . S
C15 C14 1.345 . S
C15 H17 0.930 . S
H16 C9 0.930 . S
H17 C15 0.930 . S
H18 C6 0.930 . S
H19 C7 0.931 . S
H20 C13 0.930 . S
H21 C35 0.930 . S
H22 C14 0.930 . S
H23 C41 0.930 . S
H24 C32 0.930 . S
H25 C39 0.931 . S
H26 C3 0.929 . S
H27 C33 0.930 . S
H28 C66 0.930 . S
H29 C10 0.930 . S
H30 C65 0.929 . S
N31 Tb0 2.650 1_655 S
N31 C32 1.305 . S
N31 C36 1.360 . S
C32 H24 0.930 . S
C32 N31 1.305 . S
C32 C35 1.407 . S
C33 H27 0.930 . S
C33 C34 1.410 . S
C33 C35 1.345 . S
C34 C33 1.410 . S
C34 C36 1.417 . S
C34 C66 1.432 . S
C35 H21 0.930 . S
C35 C32 1.407 . S
C35 C33 1.345 . S
C36 N31 1.360 . S
C36 C34 1.417 . S
C36 C40 1.432 . S
H37 C42 0.930 . S
N38 Tb0 2.600 1_655 S
N38 C40 1.359 . S
N38 C41 1.327 1_655 S
C39 H25 0.931 . S
C39 C41 1.392 . S
C39 C42 1.370 1_455 S
C40 C36 1.432 . S
C40 N38 1.359 . S
C40 C43 1.414 . S
C41 H23 0.930 . S
C41 N38 1.327 1_455 S
C41 C39 1.392 . S
C42 H37 0.930 . S
C42 C39 1.370 1_655 S
C42 C43 1.385 . S
C43 C40 1.414 . S
C43 C42 1.385 . S
C43 C65 1.444 . S
O44 Tb0 2.551 . S
O44 C64 1.251 . S
O45 Tb0 2.613 1_545 S
O45 Tb11 2.360 1_455 S
O45 C56 1.283 . S
O46 Tb11 2.425 . S
O46 C63 1.262 . S
O47 Tb0 2.312 1_645 S
O47 C63 1.260 . S
O48 Tb0 2.559 1_545 S
O48 C56 1.243 . S
O49 Tb0 2.411 1_655 S
O49 C64 1.256 1_655 S
O50 Tb11 2.548 . S
O50 C75 1.251 . S
O51 Tb0 2.358 1_655 S
O51 Tb11 2.611 1_565 S
O51 C67 1.283 . S
O52 Tb0 2.429 . S
O52 C74 1.262 . S
O53 Tb11 2.316 1_465 S
O53 C74 1.260 . S
O54 Tb11 2.556 1_565 S
O54 C67 1.243 . S
O55 Tb11 2.412 1_455 S
O55 C75 1.256 1_455 S
C56 O45 1.283 . S
C56 O48 1.243 . S
C57 C59 1.382 . S
C57 C61 1.393 . S
C57 C64 1.500 . S
C58 C59 1.400 . S
C58 C60 1.384 . S
C59 C57 1.382 . S
C59 C58 1.400 . S
C59 H76 0.930 1_455 S
C60 C58 1.384 . S
C60 C62 1.392 . S
C60 H77 0.931 . S
C61 C57 1.393 . S
C61 C62 1.401 . S
C61 H78 0.930 . S
C62 C60 1.392 . S
C62 C61 1.401 . S
C62 H79 0.930 . S
C63 O46 1.262 . S
C63 O47 1.260 . S
C64 Tb0 2.835 . S
C64 O44 1.251 . S
C64 O49 1.256 1_455 S
C64 C57 1.500 . S
C65 H30 0.929 . S
C65 C43 1.444 . S
C65 C66 1.317 . S
C66 H28 0.930 . S
C66 C34 1.432 . S
C66 C65 1.317 . S
C67 O51 1.283 . S
C67 O54 1.243 . S
C68 C69 1.382 . S
C68 C72 1.393 . S
C68 C75 1.500 . S
C69 C68 1.382 . S
C69 C70 1.400 . S
C69 H80 0.930 1_655 S
C70 C69 1.400 . S
C70 C71 1.384 . S
C71 C70 1.384 . S
C71 C73 1.392 . S
C71 H81 0.931 . S
C72 C68 1.393 . S
C72 C73 1.401 . S
C72 H82 0.930 . S
C73 C71 1.392 . S
C73 C72 1.401 . S
C73 H83 0.930 . S
C74 O52 1.262 . S
C74 O53 1.260 . S
C75 Tb11 2.834 . S
C75 O50 1.251 . S
C75 O55 1.256 1_655 S
C75 C68 1.500 . S
H76 C59 0.930 1_655 S
H77 C60 0.931 . S
H78 C61 0.930 . S
H79 C62 0.930 . S
H80 C69 0.930 1_455 S
H81 C71 0.931 . S
H82 C72 0.930 . S
H83 C73 0.930 . S
Tb84 N115 2.660 . S
Tb84 N122 2.600 . S
Tb84 O128 2.546 . S
Tb84 O129 2.610 . S
Tb84 O131 2.320 . S
Tb84 O132 2.552 . S
Tb84 O133 2.413 . S
Tb84 O135 2.362 . S
Tb84 O136 2.421 . S
Tb84 C148 2.833 . S
C85 C88 1.432 . S
C85 C89 1.414 . S
C85 N92 1.359 . S
C86 C88 1.417 . S
C86 C90 1.432 . S
C86 C98 1.410 . S
C87 C89 1.444 . S
C87 C90 1.317 . S
C87 H110 0.929 1_455 S
C88 C85 1.432 . S
C88 C86 1.417 . S
C88 N96 1.360 . S
C89 C85 1.414 . S
C89 C87 1.444 . S
C89 C94 1.385 . S
C90 C86 1.432 . S
C90 C87 1.317 . S
C90 H102 0.930 . S
C91 C93 1.392 . S
C91 C94 1.370 . S
C91 H103 0.931 . S
N92 C85 1.359 . S
N92 C93 1.327 . S
N92 Tb95 2.600 . S
C93 C91 1.392 . S
C93 N92 1.327 . S
C93 H100 0.930 . S
C94 C89 1.385 . S
C94 C91 1.370 . S
C94 H113 0.930 1_455 S
Tb95 N92 2.600 . S
Tb95 N96 2.660 . S
Tb95 O129 2.362 . S
Tb95 O130 2.421 . S
Tb95 O134 2.546 . S
Tb95 O135 2.610 . S
Tb95 O137 2.320 . S
Tb95 O138 2.552 . S
Tb95 O139 2.413 . S
Tb95 C159 2.833 . S
N96 C88 1.360 . S
N96 Tb95 2.660 . S
N96 C97 1.305 . S
C97 N96 1.305 . S
C97 C99 1.407 . S
C97 H104 0.930 . S
C98 C86 1.410 . S
C98 C99 1.345 . S
C98 H106 0.930 . S
C99 C97 1.407 . S
C99 C98 1.345 . S
C99 H101 0.930 . S
H100 C93 0.930 . S
H101 C99 0.930 . S
H102 C90 0.930 . S
H103 C91 0.931 . S
H104 C97 0.930 . S
H105 C119 0.930 . S
H106 C98 0.930 . S
H107 C125 0.930 . S
H108 C116 0.930 . S
H109 C123 0.931 . S
H110 C87 0.929 1_655 S
H111 C117 0.930 . S
H112 C150 0.930 . S
H113 C94 0.930 1_655 S
H114 C149 0.929 . S
N115 Tb84 2.660 . S
N115 C116 1.305 . S
N115 C120 1.360 . S
C116 H108 0.930 . S
C116 N115 1.305 . S
C116 C119 1.407 . S
C117 H111 0.930 . S
C117 C118 1.410 . S
C117 C119 1.345 . S
C118 C117 1.410 . S
C118 C120 1.417 . S
C118 C150 1.432 . S
C119 H105 0.930 . S
C119 C116 1.407 . S
C119 C117 1.345 . S
C120 N115 1.360 . S
C120 C118 1.417 . S
C120 C124 1.432 . S
H121 C126 0.930 . S
N122 Tb84 2.600 . S
N122 C124 1.359 . S
N122 C125 1.327 . S
C123 H109 0.931 . S
C123 C125 1.392 . S
C123 C126 1.370 . S
C124 C120 1.432 . S
C124 N122 1.359 . S
C124 C127 1.414 . S
C125 H107 0.930 . S
C125 N122 1.327 . S
C125 C123 1.392 . S
C126 H121 0.930 . S
C126 C123 1.370 . S
C126 C127 1.385 . S
C127 C124 1.414 . S
C127 C126 1.385 . S
C127 C149 1.444 . S
O128 Tb84 2.546 . S
O128 C148 1.251 . S
O129 Tb84 2.610 . S
O129 Tb95 2.362 . S
O129 C140 1.283 . S
O130 Tb95 2.421 . S
O130 C147 1.262 . S
O131 Tb84 2.320 . S
O131 C147 1.260 . S
O132 Tb84 2.552 . S
O132 C140 1.243 . S
O133 Tb84 2.413 . S
O133 C148 1.256 . S
O134 Tb95 2.546 . S
O134 C159 1.251 . S
O135 Tb84 2.362 . S
O135 Tb95 2.610 . S
O135 C151 1.283 . S
O136 Tb84 2.421 . S
O136 C158 1.262 . S
O137 Tb95 2.320 . S
O137 C158 1.260 . S
O138 Tb95 2.552 . S
O138 C151 1.243 . S
O139 Tb95 2.413 . S
O139 C159 1.256 . S
C140 O129 1.283 . S
C140 O132 1.243 . S
C141 C143 1.382 . S
C141 C145 1.393 . S
C141 C148 1.500 . S
C142 C143 1.400 . S
C142 C144 1.384 . S
C143 C141 1.382 . S
C143 C142 1.400 . S
C143 H160 0.930 . S
C144 C142 1.384 . S
C144 C146 1.392 . S
C144 H161 0.931 . S
C145 C141 1.393 . S
C145 C146 1.401 . S
C145 H162 0.930 . S
C146 C144 1.392 . S
C146 C145 1.401 . S
C146 H163 0.930 . S
C147 O130 1.262 . S
C147 O131 1.260 . S
C148 Tb84 2.833 . S
C148 O128 1.251 . S
C148 O133 1.256 . S
C148 C141 1.500 . S
C149 H114 0.929 . S
C149 C127 1.444 . S
C149 C150 1.317 . S
C150 H112 0.930 . S
C150 C118 1.432 . S
C150 C149 1.317 . S
C151 O135 1.283 . S
C151 O138 1.243 . S
C152 C153 1.382 . S
C152 C156 1.393 . S
C152 C159 1.500 1_554 S
C153 C152 1.382 . S
C153 C154 1.400 . S
C153 H164 0.930 . S
C154 C153 1.400 . S
C154 C155 1.384 . S
C155 C154 1.384 . S
C155 C157 1.392 . S
C155 H165 0.931 . S
C156 C152 1.393 . S
C156 C157 1.401 . S
C156 H166 0.930 . S
C157 C155 1.392 . S
C157 C156 1.401 . S
C157 H167 0.930 . S
C158 O136 1.262 . S
C158 O137 1.260 . S
C159 Tb95 2.833 . S
C159 O134 1.251 . S
C159 O139 1.256 . S
C159 C152 1.500 1_556 S
H160 C143 0.930 . S
H161 C144 0.931 . S
H162 C145 0.930 . S
H163 C146 0.930 . S
H164 C153 0.930 . S
H165 C155 0.931 . S
H166 C156 0.930 . S
H167 C157 0.930 . S
Tb168 N199 2.660 . S
Tb168 N206 2.600 . S
Tb168 O212 2.546 . S
Tb168 O213 2.610 1_565 S
Tb168 O215 2.320 1_565 S
Tb168 O216 2.552 1_565 S
Tb168 O217 2.413 . S
Tb168 O219 2.362 1_554 S
Tb168 O220 2.421 . S
Tb168 C232 2.833 . S
C169 C172 1.432 . S
C169 C173 1.414 . S
C169 N176 1.359 . S
C170 C172 1.417 . S
C170 C174 1.432 . S
C170 C182 1.410 . S
C171 C173 1.444 . S
C171 C174 1.317 . S
C171 H194 0.929 . S
C172 C169 1.432 . S
C172 C170 1.417 . S
C172 N180 1.360 . S
C173 C169 1.414 . S
C173 C171 1.444 . S
C173 C178 1.385 . S
C174 C170 1.432 . S
C174 C171 1.317 . S
C174 H186 0.930 . S
C175 C177 1.392 . S
C175 C178 1.370 . S
C175 H187 0.931 . S
N176 C169 1.359 . S
N176 C177 1.327 . S
N176 Tb179 2.600 . S
C177 C175 1.392 . S
C177 N176 1.327 . S
C177 H184 0.930 . S
C178 C173 1.385 . S
C178 C175 1.370 . S
C178 H197 0.930 . S
Tb179 N176 2.600 . S
Tb179 N180 2.660 . S
Tb179 O213 2.362 1_556 S
Tb179 O214 2.421 . S
Tb179 O218 2.546 . S
Tb179 O219 2.610 1_545 S
Tb179 O221 2.320 1_545 S
Tb179 O222 2.552 1_545 S
Tb179 O223 2.413 . S
Tb179 C243 2.833 . S
N180 C172 1.360 . S
N180 Tb179 2.660 . S
N180 C181 1.305 . S
C181 N180 1.305 . S
C181 C183 1.407 . S
C181 H188 0.930 . S
C182 C170 1.410 . S
C182 C183 1.345 . S
C182 H190 0.930 . S
C183 C181 1.407 . S
C183 C182 1.345 . S
C183 H185 0.930 . S
H184 C177 0.930 . S
H185 C183 0.930 . S
H186 C174 0.930 . S
H187 C175 0.931 . S
H188 C181 0.930 . S
H189 C203 0.930 . S
H190 C182 0.930 . S
H191 C209 0.930 . S
H192 C200 0.930 . S
H193 C207 0.931 . S
H194 C171 0.929 . S
H195 C201 0.930 . S
H196 C234 0.930 . S
H197 C178 0.930 . S
H198 C233 0.929 . S
N199 Tb168 2.660 . S
N199 C200 1.305 . S
N199 C204 1.360 . S
C200 H192 0.930 . S
C200 N199 1.305 . S
C200 C203 1.407 . S
C201 H195 0.930 . S
C201 C202 1.410 . S
C201 C203 1.345 . S
C202 C201 1.410 . S
C202 C204 1.417 . S
C202 C234 1.432 . S
C203 H189 0.930 . S
C203 C200 1.407 . S
C203 C201 1.345 . S
C204 N199 1.360 . S
C204 C202 1.417 . S
C204 C208 1.432 . S
H205 C210 0.930 . S
N206 Tb168 2.600 . S
N206 C208 1.359 . S
N206 C209 1.327 . S
C207 H193 0.931 . S
C207 C209 1.392 . S
C207 C210 1.370 . S
C208 C204 1.432 . S
C208 N206 1.359 . S
C208 C211 1.414 . S
C209 H191 0.930 . S
C209 N206 1.327 . S
C209 C207 1.392 . S
C210 H205 0.930 . S
C210 C207 1.370 . S
C210 C211 1.385 . S
C211 C208 1.414 . S
C211 C210 1.385 . S
C211 C233 1.444 . S
O212 Tb168 2.546 . S
O212 C232 1.251 . S
O213 Tb168 2.610 1_545 S
O213 Tb179 2.362 1_554 S
O213 C224 1.283 . S
O214 Tb179 2.421 . S
O214 C231 1.262 1_556 S
O215 Tb168 2.320 1_545 S
O215 C231 1.260 . S
O216 Tb168 2.552 1_545 S
O216 C224 1.243 . S
O217 Tb168 2.413 . S
O217 C232 1.256 . S
O218 Tb179 2.546 . S
O218 C243 1.251 . S
O219 Tb168 2.362 1_556 S
O219 Tb179 2.610 1_565 S
O219 C235 1.283 . S
O220 Tb168 2.421 . S
O220 C242 1.262 1_554 S
O221 Tb179 2.320 1_565 S
O221 C242 1.260 . S
O222 Tb179 2.552 1_565 S
O222 C235 1.243 . S
O223 Tb179 2.413 . S
O223 C243 1.256 . S
C224 O213 1.283 . S
C224 O216 1.243 . S
C225 C227 1.382 . S
C225 C229 1.393 . S
C225 C232 1.500 . S
C226 C227 1.400 . S
C226 C228 1.384 . S
C227 C225 1.382 . S
C227 C226 1.400 . S
C227 H244 0.936 . S
C228 C226 1.384 . S
C228 C230 1.392 . S
C228 H245 0.931 . S
C229 C225 1.393 . S
C229 C230 1.401 . S
C229 H246 0.930 . S
C230 C228 1.392 . S
C230 C229 1.401 . S
C230 H247 0.930 . S
C231 O214 1.262 1_554 S
C231 O215 1.260 . S
C232 Tb168 2.833 . S
C232 O212 1.251 . S
C232 O217 1.256 . S
C232 C225 1.500 . S
C233 H198 0.929 . S
C233 C211 1.444 . S
C233 C234 1.317 . S
C234 H196 0.930 . S
C234 C202 1.432 . S
C234 C233 1.317 . S
C235 O219 1.283 . S
C235 O222 1.243 . S
C236 C237 1.382 . S
C236 C240 1.393 . S
C236 C243 1.500 . S
C237 C236 1.382 . S
C237 C238 1.400 . S
C237 H248 0.941 . S
C238 C237 1.400 . S
C238 C239 1.384 . S
C239 C238 1.384 . S
C239 C241 1.392 . S
C239 H249 0.931 . S
C240 C236 1.393 . S
C240 C241 1.401 . S
C240 H250 0.930 . S
C241 C239 1.392 . S
C241 C240 1.401 . S
C241 H251 0.930 . S
C242 O220 1.262 1_556 S
C242 O221 1.260 . S
C243 Tb179 2.833 . S
C243 O218 1.251 . S
C243 O223 1.256 . S
C243 C236 1.500 . S
H244 C227 0.936 . S
H245 C228 0.931 . S
H246 C229 0.930 . S
H247 C230 0.930 . S
H248 C237 0.941 . S
H249 C239 0.931 . S
H250 C240 0.930 . S
H251 C241 0.930 . S
Tb252 N283 2.660 . S
Tb252 N290 2.600 . S
Tb252 O296 2.546 . S
Tb252 O297 2.610 . S
Tb252 O299 2.320 . S
Tb252 O300 2.552 . S
Tb252 O301 2.413 . S
Tb252 O303 2.362 . S
Tb252 O304 2.421 . S
Tb252 C316 2.833 . S
C253 C256 1.432 . S
C253 C257 1.414 . S
C253 N260 1.359 . S
C254 C256 1.417 . S
C254 C258 1.432 . S
C254 C266 1.410 . S
C255 C257 1.444 . S
C255 C258 1.317 . S
C255 H278 0.929 1_455 S
C256 C253 1.432 . S
C256 C254 1.417 . S
C256 N264 1.360 . S
C257 C253 1.414 . S
C257 C255 1.444 . S
C257 C262 1.385 . S
C258 C254 1.432 . S
C258 C255 1.317 . S
C258 H270 0.930 . S
C259 C261 1.392 . S
C259 C262 1.370 . S
C259 H271 0.931 . S
N260 C253 1.359 . S
N260 C261 1.327 . S
N260 Tb263 2.600 . S
C261 C259 1.392 . S
C261 N260 1.327 . S
C261 H268 0.930 . S
C262 C257 1.385 . S
C262 C259 1.370 . S
C262 H281 0.930 1_455 S
Tb263 N260 2.600 . S
Tb263 N264 2.660 . S
Tb263 O297 2.362 . S
Tb263 O298 2.421 . S
Tb263 O302 2.546 . S
Tb263 O303 2.610 . S
Tb263 O305 2.320 . S
Tb263 O306 2.552 . S
Tb263 O307 2.413 . S
Tb263 C327 2.833 . S
N264 C256 1.360 . S
N264 Tb263 2.660 . S
N264 C265 1.305 . S
C265 N264 1.305 . S
C265 C267 1.407 . S
C265 H272 0.930 . S
C266 C254 1.410 . S
C266 C267 1.345 . S
C266 H274 0.930 . S
C267 C265 1.407 . S
C267 C266 1.345 . S
C267 H269 0.930 . S
H268 C261 0.930 . S
H269 C267 0.930 . S
H270 C258 0.930 . S
H271 C259 0.931 . S
H272 C265 0.930 . S
H273 C287 0.930 . S
H274 C266 0.930 . S
H275 C293 0.930 . S
H276 C284 0.930 . S
H277 C291 0.931 . S
H278 C255 0.929 1_655 S
H279 C285 0.930 . S
H280 C318 0.930 . S
H281 C262 0.930 1_655 S
H282 C317 0.929 . S
N283 Tb252 2.660 . S
N283 C284 1.305 . S
N283 C288 1.360 . S
C284 H276 0.930 . S
C284 N283 1.305 . S
C284 C287 1.407 . S
C285 H279 0.930 . S
C285 C286 1.410 . S
C285 C287 1.345 . S
C286 C285 1.410 . S
C286 C288 1.417 . S
C286 C318 1.432 . S
C287 H273 0.930 . S
C287 C284 1.407 . S
C287 C285 1.345 . S
C288 N283 1.360 . S
C288 C286 1.417 . S
C288 C292 1.432 . S
H289 C294 0.930 . S
N290 Tb252 2.600 . S
N290 C292 1.359 . S
N290 C293 1.327 . S
C291 H277 0.931 . S
C291 C293 1.392 . S
C291 C294 1.370 . S
C292 C288 1.432 . S
C292 N290 1.359 . S
C292 C295 1.414 . S
C293 H275 0.930 . S
C293 N290 1.327 . S
C293 C291 1.392 . S
C294 H289 0.930 . S
C294 C291 1.370 . S
C294 C295 1.385 . S
C295 C292 1.414 . S
C295 C294 1.385 . S
C295 C317 1.444 . S
O296 Tb252 2.546 . S
O296 C316 1.251 . S
O297 Tb252 2.610 . S
O297 Tb263 2.362 . S
O297 C308 1.283 . S
O298 Tb263 2.421 . S
O298 C315 1.262 . S
O299 Tb252 2.320 . S
O299 C315 1.260 . S
O300 Tb252 2.552 . S
O300 C308 1.243 . S
O301 Tb252 2.413 . S
O301 C316 1.256 . S
O302 Tb263 2.546 . S
O302 C327 1.251 . S
O303 Tb252 2.362 . S
O303 Tb263 2.610 . S
O303 C319 1.283 . S
O304 Tb252 2.421 . S
O304 C326 1.262 . S
O305 Tb263 2.320 . S
O305 C326 1.260 . S
O306 Tb263 2.552 . S
O306 C319 1.243 . S
O307 Tb263 2.413 . S
O307 C327 1.256 . S
C308 O297 1.283 . S
C308 O300 1.243 . S
C309 C311 1.382 . S
C309 C313 1.393 . S
C309 C316 1.500 . S
C310 C311 1.400 . S
C310 C312 1.384 . S
C311 C309 1.382 . S
C311 C310 1.400 . S
C311 H328 0.930 . S
C312 C310 1.384 . S
C312 C314 1.392 . S
C312 H329 0.931 . S
C313 C309 1.393 . S
C313 C314 1.401 . S
C313 H330 0.930 . S
C314 C312 1.392 . S
C314 C313 1.401 . S
C314 H331 0.930 . S
C315 O298 1.262 . S
C315 O299 1.260 . S
C316 Tb252 2.833 . S
C316 O296 1.251 . S
C316 O301 1.256 . S
C316 C309 1.500 . S
C317 H282 0.929 . S
C317 C295 1.444 . S
C317 C318 1.317 . S
C318 H280 0.930 . S
C318 C286 1.432 . S
C318 C317 1.317 . S
C319 O303 1.283 . S
C319 O306 1.243 . S
C320 C321 1.382 . S
C320 C324 1.393 . S
C320 C327 1.500 1_556 S
C321 C320 1.382 . S
C321 C322 1.400 . S
C321 H332 0.930 . S
C322 C321 1.400 . S
C322 C323 1.384 . S
C323 C322 1.384 . S
C323 C325 1.392 . S
C323 H333 0.931 . S
C324 C320 1.393 . S
C324 C325 1.401 . S
C324 H334 0.930 . S
C325 C323 1.392 . S
C325 C324 1.401 . S
C325 H335 0.930 . S
C326 O304 1.262 . S
C326 O305 1.260 . S
C327 Tb263 2.833 . S
C327 O302 1.251 . S
C327 O307 1.256 . S
C327 C320 1.500 1_554 S
H328 C311 0.930 . S
H329 C312 0.931 . S
H330 C313 0.930 . S
H331 C314 0.930 . S
H332 C321 0.930 . S
H333 C323 0.931 . S
H334 C324 0.930 . S
H335 C325 0.930 . S
Tb336 N367 2.660 . S
Tb336 N374 2.600 . S
Tb336 O380 2.546 . S
Tb336 O381 2.610 . S
Tb336 O383 2.320 . S
Tb336 O384 2.552 . S
Tb336 O385 2.413 . S
Tb336 O387 2.362 . S
Tb336 O388 2.421 . S
Tb336 C400 2.833 . S
C337 C340 1.432 . S
C337 C341 1.414 . S
C337 N344 1.359 . S
C338 C340 1.417 . S
C338 C342 1.432 . S
C338 C350 1.410 . S
C339 C341 1.444 . S
C339 C342 1.317 . S
C339 H362 0.929 . S
C340 C337 1.432 . S
C340 C338 1.417 . S
C340 N348 1.360 . S
C341 C337 1.414 . S
C341 C339 1.444 . S
C341 C346 1.385 . S
C342 C338 1.432 . S
C342 C339 1.317 . S
C342 H354 0.930 . S
C343 C345 1.392 . S
C343 C346 1.370 . S
C343 H355 0.931 . S
N344 C337 1.359 . S
N344 C345 1.327 . S
N344 Tb347 2.600 . S
C345 C343 1.392 . S
C345 N344 1.327 . S
C345 H352 0.930 . S
C346 C341 1.385 . S
C346 C343 1.370 . S
C346 H365 0.930 . S
Tb347 N344 2.600 . S
Tb347 N348 2.660 . S
Tb347 O381 2.362 . S
Tb347 O382 2.421 . S
Tb347 O386 2.546 . S
Tb347 O387 2.610 . S
Tb347 O389 2.320 . S
Tb347 O390 2.552 . S
Tb347 O391 2.413 . S
Tb347 C411 2.833 . S
N348 C340 1.360 . S
N348 Tb347 2.660 . S
N348 C349 1.305 . S
C349 N348 1.305 . S
C349 C351 1.407 . S
C349 H356 0.930 . S
C350 C338 1.410 . S
C350 C351 1.345 . S
C350 H358 0.930 . S
C351 C349 1.407 . S
C351 C350 1.345 . S
C351 H353 0.930 . S
H352 C345 0.930 . S
H353 C351 0.930 . S
H354 C342 0.930 . S
H355 C343 0.931 . S
H356 C349 0.930 . S
H357 C371 0.930 . S
H358 C350 0.930 . S
H359 C377 0.930 . S
H360 C368 0.930 . S
H361 C375 0.931 . S
H362 C339 0.929 . S
H363 C369 0.930 . S
H364 C402 0.930 . S
H365 C346 0.930 . S
H366 C401 0.929 1_455 S
N367 Tb336 2.660 . S
N367 C368 1.305 . S
N367 C372 1.360 . S
C368 H360 0.930 . S
C368 N367 1.305 . S
C368 C371 1.407 . S
C369 H363 0.930 . S
C369 C370 1.410 . S
C369 C371 1.345 . S
C370 C369 1.410 . S
C370 C372 1.417 . S
C370 C402 1.432 . S
C371 H357 0.930 . S
C371 C368 1.407 . S
C371 C369 1.345 . S
C372 N367 1.360 . S
C372 C370 1.417 . S
C372 C376 1.432 . S
H373 C378 0.930 1_455 S
N374 Tb336 2.600 . S
N374 C376 1.359 . S
N374 C377 1.327 . S
C375 H361 0.931 . S
C375 C377 1.392 . S
C375 C378 1.370 . S
C376 C372 1.432 . S
C376 N374 1.359 . S
C376 C379 1.414 . S
C377 H359 0.930 . S
C377 N374 1.327 . S
C377 C375 1.392 . S
C378 H373 0.930 1_655 S
C378 C375 1.370 . S
C378 C379 1.385 . S
C379 C376 1.414 . S
C379 C378 1.385 . S
C379 C401 1.444 . S
O380 Tb336 2.546 . S
O380 C400 1.251 . S
O381 Tb336 2.610 . S
O381 Tb347 2.362 . S
O381 C392 1.283 . S
O382 Tb347 2.421 . S
O382 C399 1.262 . S
O383 Tb336 2.320 . S
O383 C399 1.260 . S
O384 Tb336 2.552 . S
O384 C392 1.243 . S
O385 Tb336 2.413 . S
O385 C400 1.256 . S
O386 Tb347 2.546 . S
O386 C411 1.251 . S
O387 Tb336 2.362 . S
O387 Tb347 2.610 . S
O387 C403 1.283 . S
O388 Tb336 2.421 . S
O388 C410 1.262 . S
O389 Tb347 2.320 . S
O389 C410 1.260 . S
O390 Tb347 2.552 . S
O390 C403 1.243 . S
O391 Tb347 2.413 . S
O391 C411 1.256 . S
C392 O381 1.283 . S
C392 O384 1.243 . S
C393 C395 1.382 . S
C393 C397 1.393 . S
C393 C400 1.500 1_556 S
C394 C395 1.400 . S
C394 C396 1.384 . S
C395 C393 1.382 . S
C395 C394 1.400 . S
C395 H412 0.930 . S
C396 C394 1.384 . S
C396 C398 1.392 . S
C396 H413 0.931 . S
C397 C393 1.393 . S
C397 C398 1.401 . S
C397 H414 0.930 . S
C398 C396 1.392 . S
C398 C397 1.401 . S
C398 H415 0.930 . S
C399 O382 1.262 . S
C399 O383 1.260 . S
C400 Tb336 2.833 . S
C400 O380 1.251 . S
C400 O385 1.256 . S
C400 C393 1.500 1_554 S
C401 H366 0.929 1_655 S
C401 C379 1.444 . S
C401 C402 1.317 . S
C402 H364 0.930 . S
C402 C370 1.432 . S
C402 C401 1.317 . S
C403 O387 1.283 . S
C403 O390 1.243 . S
C404 C405 1.382 . S
C404 C408 1.393 . S
C404 C411 1.500 . S
C405 C404 1.382 . S
C405 C406 1.400 . S
C405 H416 0.930 . S
C406 C405 1.400 . S
C406 C407 1.384 . S
C407 C406 1.384 . S
C407 C409 1.392 . S
C407 H417 0.931 . S
C408 C404 1.393 . S
C408 C409 1.401 . S
C408 H418 0.930 . S
C409 C407 1.392 . S
C409 C408 1.401 . S
C409 H419 0.930 . S
C410 O388 1.262 . S
C410 O389 1.260 . S
C411 Tb347 2.833 . S
C411 O386 1.251 . S
C411 O391 1.256 . S
C411 C404 1.500 . S
H412 C395 0.930 . S
H413 C396 0.931 . S
H414 C397 0.930 . S
H415 C398 0.930 . S
H416 C405 0.930 . S
H417 C407 0.931 . S
H418 C408 0.930 . S
H419 C409 0.930 . S
Tb420 N451 2.660 . S
Tb420 N458 2.600 . S
Tb420 O464 2.546 . S
Tb420 O465 2.610 . S
Tb420 O467 2.320 . S
Tb420 O468 2.552 . S
Tb420 O469 2.413 . S
Tb420 O471 2.362 . S
Tb420 O472 2.421 . S
Tb420 C484 2.833 . S
C421 C424 1.432 . S
C421 C425 1.414 . S
C421 N428 1.359 . S
C422 C424 1.417 . S
C422 C426 1.432 . S
C422 C434 1.410 . S
C423 C425 1.444 . S
C423 C426 1.317 . S
C423 H446 0.929 . S
C424 C421 1.432 . S
C424 C422 1.417 . S
C424 N432 1.360 . S
C425 C421 1.414 . S
C425 C423 1.444 . S
C425 C430 1.385 . S
C426 C422 1.432 . S
C426 C423 1.317 . S
C426 H438 0.930 . S
C427 C429 1.392 . S
C427 C430 1.370 . S
C427 H439 0.931 . S
N428 C421 1.359 . S
N428 C429 1.327 . S
N428 Tb431 2.600 . S
C429 C427 1.392 . S
C429 N428 1.327 . S
C429 H436 0.930 . S
C430 C425 1.385 . S
C430 C427 1.370 . S
C430 H449 0.930 . S
Tb431 N428 2.600 . S
Tb431 N432 2.660 . S
Tb431 O465 2.362 . S
Tb431 O466 2.421 . S
Tb431 O470 2.546 . S
Tb431 O471 2.610 . S
Tb431 O473 2.320 . S
Tb431 O474 2.552 . S
Tb431 O475 2.413 . S
Tb431 C495 2.833 . S
N432 C424 1.360 . S
N432 Tb431 2.660 . S
N432 C433 1.305 . S
C433 N432 1.305 . S
C433 C435 1.407 . S
C433 H440 0.930 . S
C434 C422 1.410 . S
C434 C435 1.345 . S
C434 H442 0.930 . S
C435 C433 1.407 . S
C435 C434 1.345 . S
C435 H437 0.930 . S
H436 C429 0.930 . S
H437 C435 0.930 . S
H438 C426 0.930 . S
H439 C427 0.931 . S
H440 C433 0.930 . S
H441 C455 0.930 . S
H442 C434 0.930 . S
H443 C461 0.930 . S
H444 C452 0.930 . S
H445 C459 0.931 . S
H446 C423 0.929 . S
H447 C453 0.930 . S
H448 C486 0.930 . S
H449 C430 0.930 . S
H450 C485 0.929 1_455 S
N451 Tb420 2.660 . S
N451 C452 1.305 . S
N451 C456 1.360 . S
C452 H444 0.930 . S
C452 N451 1.305 . S
C452 C455 1.407 . S
C453 H447 0.930 . S
C453 C454 1.410 . S
C453 C455 1.345 . S
C454 C453 1.410 . S
C454 C456 1.417 . S
C454 C486 1.432 . S
C455 H441 0.930 . S
C455 C452 1.407 . S
C455 C453 1.345 . S
C456 N451 1.360 . S
C456 C454 1.417 . S
C456 C460 1.432 . S
H457 C462 0.930 1_455 S
N458 Tb420 2.600 . S
N458 C460 1.359 . S
N458 C461 1.327 . S
C459 H445 0.931 . S
C459 C461 1.392 . S
C459 C462 1.370 . S
C460 C456 1.432 . S
C460 N458 1.359 . S
C460 C463 1.414 . S
C461 H443 0.930 . S
C461 N458 1.327 . S
C461 C459 1.392 . S
C462 H457 0.930 1_655 S
C462 C459 1.370 . S
C462 C463 1.385 . S
C463 C460 1.414 . S
C463 C462 1.385 . S
C463 C485 1.444 . S
O464 Tb420 2.546 . S
O464 C484 1.251 . S
O465 Tb420 2.610 . S
O465 Tb431 2.362 . S
O465 C476 1.283 . S
O466 Tb431 2.421 . S
O466 C483 1.262 . S
O467 Tb420 2.320 . S
O467 C483 1.260 . S
O468 Tb420 2.552 . S
O468 C476 1.243 . S
O469 Tb420 2.413 . S
O469 C484 1.256 . S
O470 Tb431 2.546 . S
O470 C495 1.251 . S
O471 Tb420 2.362 . S
O471 Tb431 2.610 . S
O471 C487 1.283 . S
O472 Tb420 2.421 . S
O472 C494 1.262 . S
O473 Tb431 2.320 . S
O473 C494 1.260 . S
O474 Tb431 2.552 . S
O474 C487 1.243 . S
O475 Tb431 2.413 . S
O475 C495 1.256 . S
C476 O465 1.283 . S
C476 O468 1.243 . S
C477 C479 1.382 . S
C477 C481 1.393 . S
C477 C484 1.500 1_554 S
C478 C479 1.400 . S
C478 C480 1.384 . S
C479 C477 1.382 . S
C479 C478 1.400 . S
C479 H496 0.930 . S
C480 C478 1.384 . S
C480 C482 1.392 . S
C480 H497 0.931 . S
C481 C477 1.393 . S
C481 C482 1.401 . S
C481 H498 0.930 . S
C482 C480 1.392 . S
C482 C481 1.401 . S
C482 H499 0.930 . S
C483 O466 1.262 . S
C483 O467 1.260 . S
C484 Tb420 2.833 . S
C484 O464 1.251 . S
C484 O469 1.256 . S
C484 C477 1.500 1_556 S
C485 H450 0.929 1_655 S
C485 C463 1.444 . S
C485 C486 1.317 . S
C486 H448 0.930 . S
C486 C454 1.432 . S
C486 C485 1.317 . S
C487 O471 1.283 . S
C487 O474 1.243 . S
C488 C489 1.382 . S
C488 C492 1.393 . S
C488 C495 1.500 . S
C489 C488 1.382 . S
C489 C490 1.400 . S
C489 H500 0.930 . S
C490 C489 1.400 . S
C490 C491 1.384 . S
C491 C490 1.384 . S
C491 C493 1.392 . S
C491 H501 0.931 . S
C492 C488 1.393 . S
C492 C493 1.401 . S
C492 H502 0.930 . S
C493 C491 1.392 . S
C493 C492 1.401 . S
C493 H503 0.930 . S
C494 O472 1.262 . S
C494 O473 1.260 . S
C495 Tb431 2.833 . S
C495 O470 1.251 . S
C495 O475 1.256 . S
C495 C488 1.500 . S
H496 C479 0.930 . S
H497 C480 0.931 . S
H498 C481 0.930 . S
H499 C482 0.930 . S
H500 C489 0.930 . S
H501 C491 0.931 . S
H502 C492 0.930 . S
H503 C493 0.930 . S
Tb504 N535 2.660 . S
Tb504 N542 2.600 . S
Tb504 O548 2.546 . S
Tb504 O549 2.610 . S
Tb504 O551 2.320 . S
Tb504 O552 2.552 . S
Tb504 O553 2.413 . S
Tb504 O555 2.362 1_556 S
Tb504 O556 2.421 . S
Tb504 C568 2.833 . S
C505 C508 1.432 . S
C505 C509 1.414 . S
C505 N512 1.359 . S
C506 C508 1.417 . S
C506 C510 1.432 . S
C506 C518 1.410 . S
C507 C509 1.444 . S
C507 C510 1.317 . S
C507 H530 0.929 . S
C508 C505 1.432 . S
C508 C506 1.417 . S
C508 N516 1.360 . S
C509 C505 1.414 . S
C509 C507 1.444 . S
C509 C514 1.385 . S
C510 C506 1.432 . S
C510 C507 1.317 . S
C510 H522 0.930 . S
C511 C513 1.392 . S
C511 C514 1.370 . S
C511 H523 0.931 . S
N512 C505 1.359 . S
N512 C513 1.327 . S
N512 Tb515 2.600 . S
C513 C511 1.392 . S
C513 N512 1.327 . S
C513 H520 0.930 . S
C514 C509 1.385 . S
C514 C511 1.370 . S
C514 H533 0.930 . S
Tb515 N512 2.600 . S
Tb515 N516 2.660 . S
Tb515 O549 2.362 1_554 S
Tb515 O550 2.421 . S
Tb515 O554 2.546 . S
Tb515 O555 2.610 . S
Tb515 O557 2.320 . S
Tb515 O558 2.552 . S
Tb515 O559 2.413 . S
Tb515 C579 2.833 . S
N516 C508 1.360 . S
N516 Tb515 2.660 . S
N516 C517 1.305 . S
C517 N516 1.305 . S
C517 C519 1.407 . S
C517 H524 0.930 . S
C518 C506 1.410 . S
C518 C519 1.345 . S
C518 H526 0.930 . S
C519 C517 1.407 . S
C519 C518 1.345 . S
C519 H521 0.930 . S
H520 C513 0.930 . S
H521 C519 0.930 . S
H522 C510 0.930 . S
H523 C511 0.931 . S
H524 C517 0.930 . S
H525 C539 0.930 . S
H526 C518 0.930 . S
H527 C545 0.930 . S
H528 C536 0.930 . S
H529 C543 0.931 . S
H530 C507 0.929 . S
H531 C537 0.930 . S
H532 C570 0.930 . S
H533 C514 0.930 . S
H534 C569 0.929 . S
N535 Tb504 2.660 . S
N535 C536 1.305 . S
N535 C540 1.360 . S
C536 H528 0.930 . S
C536 N535 1.305 . S
C536 C539 1.407 . S
C537 H531 0.930 . S
C537 C538 1.410 . S
C537 C539 1.345 . S
C538 C537 1.410 . S
C538 C540 1.417 . S
C538 C570 1.432 . S
C539 H525 0.930 . S
C539 C536 1.407 . S
C539 C537 1.345 . S
C540 N535 1.360 . S
C540 C538 1.417 . S
C540 C544 1.432 . S
H541 C546 0.930 . S
N542 Tb504 2.600 . S
N542 C544 1.359 . S
N542 C545 1.327 . S
C543 H529 0.931 . S
C543 C545 1.392 . S
C543 C546 1.370 . S
C544 C540 1.432 . S
C544 N542 1.359 . S
C544 C547 1.414 . S
C545 H527 0.930 . S
C545 N542 1.327 . S
C545 C543 1.392 . S
C546 H541 0.930 . S
C546 C543 1.370 . S
C546 C547 1.385 . S
C547 C544 1.414 . S
C547 C546 1.385 . S
C547 C569 1.444 . S
O548 Tb504 2.546 . S
O548 C568 1.251 . S
O549 Tb504 2.610 . S
O549 Tb515 2.362 1_556 S
O549 C560 1.283 . S
O550 Tb515 2.421 . S
O550 C567 1.262 1_554 S
O551 Tb504 2.320 . S
O551 C567 1.260 . S
O552 Tb504 2.552 . S
O552 C560 1.243 . S
O553 Tb504 2.413 . S
O553 C568 1.256 . S
O554 Tb515 2.546 . S
O554 C579 1.251 . S
O555 Tb504 2.362 1_554 S
O555 Tb515 2.610 . S
O555 C571 1.283 . S
O556 Tb504 2.421 . S
O556 C578 1.262 1_556 S
O557 Tb515 2.320 . S
O557 C578 1.260 . S
O558 Tb515 2.552 . S
O558 C571 1.243 . S
O559 Tb515 2.413 . S
O559 C579 1.256 . S
C560 O549 1.283 . S
C560 O552 1.243 . S
C561 C563 1.382 . S
C561 C565 1.393 . S
C561 C568 1.500 . S
C562 C563 1.400 . S
C562 C564 1.384 . S
C563 C561 1.382 . S
C563 C562 1.400 . S
C563 H580 0.930 . S
C564 C562 1.384 . S
C564 C566 1.392 . S
C564 H581 0.931 . S
C565 C561 1.393 . S
C565 C566 1.401 . S
C565 H582 0.930 . S
C566 C564 1.392 . S
C566 C565 1.401 . S
C566 H583 0.930 . S
C567 O550 1.262 1_556 S
C567 O551 1.260 . S
C568 Tb504 2.833 . S
C568 O548 1.251 . S
C568 O553 1.256 . S
C568 C561 1.500 . S
C569 H534 0.929 . S
C569 C547 1.444 . S
C569 C570 1.317 . S
C570 H532 0.930 . S
C570 C538 1.432 . S
C570 C569 1.317 . S
C571 O555 1.283 . S
C571 O558 1.243 . S
C572 C573 1.382 . S
C572 C576 1.393 . S
C572 C579 1.500 . S
C573 C572 1.382 . S
C573 C574 1.400 . S
C573 H584 0.930 . S
C574 C573 1.400 . S
C574 C575 1.384 . S
C575 C574 1.384 . S
C575 C577 1.392 . S
C575 H585 0.931 . S
C576 C572 1.393 . S
C576 C577 1.401 . S
C576 H586 0.930 . S
C577 C575 1.392 . S
C577 C576 1.401 . S
C577 H587 0.930 . S
C578 O556 1.262 1_554 S
C578 O557 1.260 . S
C579 Tb515 2.833 . S
C579 O554 1.251 . S
C579 O559 1.256 . S
C579 C572 1.500 . S
H580 C563 0.930 . S
H581 C564 0.931 . S
H582 C565 0.930 . S
H583 C566 0.930 . S
H584 C573 0.930 . S
H585 C575 0.931 . S
H586 C576 0.930 . S
H587 C577 0.930 . S
Tb588 N619 2.655 1_655 S
Tb588 N626 2.600 1_655 S
Tb588 O632 2.548 . S
Tb588 O633 2.611 . S
Tb588 O635 2.316 1_655 S
Tb588 O636 2.556 . S
Tb588 O637 2.412 1_655 S
Tb588 O639 2.360 1_655 S
Tb588 O640 2.425 . S
Tb588 C652 2.834 . S
C589 C592 1.432 . S
C589 C593 1.414 . S
C589 N596 1.359 . S
C590 C592 1.417 . S
C590 C594 1.432 . S
C590 C602 1.410 . S
C591 C593 1.444 . S
C591 C594 1.317 . S
C591 H614 0.929 . S
C592 C589 1.432 . S
C592 C590 1.417 . S
C592 N600 1.360 . S
C593 C589 1.414 . S
C593 C591 1.444 . S
C593 C598 1.385 . S
C594 C590 1.432 . S
C594 C591 1.317 . S
C594 H606 0.930 . S
C595 C597 1.392 . S
C595 C598 1.370 1_455 S
C595 H607 0.931 . S
N596 C589 1.359 . S
N596 C597 1.327 1_655 S
N596 Tb599 2.600 1_655 S
C597 C595 1.392 . S
C597 N596 1.327 1_455 S
C597 H604 0.930 . S
C598 C593 1.385 . S
C598 C595 1.370 1_655 S
C598 H617 0.930 . S
Tb599 N596 2.600 1_455 S
Tb599 N600 2.650 1_455 S
Tb599 O633 2.358 1_455 S
Tb599 O634 2.429 . S
Tb599 O638 2.551 . S
Tb599 O639 2.613 . S
Tb599 O641 2.313 1_455 S
Tb599 O642 2.559 . S
Tb599 O643 2.411 1_455 S
Tb599 C663 2.834 . S
N600 C592 1.360 . S
N600 Tb599 2.650 1_655 S
N600 C601 1.305 . S
C601 N600 1.305 . S
C601 C603 1.407 . S
C601 H608 0.930 . S
C602 C590 1.410 . S
C602 C603 1.345 . S
C602 H610 0.930 . S
C603 C601 1.407 . S
C603 C602 1.345 . S
C603 H605 0.930 . S
H604 C597 0.930 . S
H605 C603 0.930 . S
H606 C594 0.930 . S
H607 C595 0.931 . S
H608 C601 0.930 . S
H609 C623 0.930 . S
H610 C602 0.930 . S
H611 C629 0.930 . S
H612 C620 0.930 . S
H613 C627 0.931 . S
H614 C591 0.929 . S
H615 C621 0.930 . S
H616 C654 0.930 . S
H617 C598 0.930 . S
H618 C653 0.929 . S
N619 Tb588 2.655 1_455 S
N619 C620 1.305 . S
N619 C624 1.360 . S
C620 H612 0.930 . S
C620 N619 1.305 . S
C620 C623 1.407 . S
C621 H615 0.930 . S
C621 C622 1.410 . S
C621 C623 1.345 . S
C622 C621 1.410 . S
C622 C624 1.417 . S
C622 C654 1.432 . S
C623 H609 0.930 . S
C623 C620 1.407 . S
C623 C621 1.345 . S
C624 N619 1.360 . S
C624 C622 1.417 . S
C624 C628 1.432 . S
H625 C630 0.930 . S
N626 Tb588 2.600 1_455 S
N626 C628 1.359 . S
N626 C629 1.327 1_455 S
C627 H613 0.931 . S
C627 C629 1.392 . S
C627 C630 1.370 1_655 S
C628 C624 1.432 . S
C628 N626 1.359 . S
C628 C631 1.414 . S
C629 H611 0.930 . S
C629 N626 1.327 1_655 S
C629 C627 1.392 . S
C630 H625 0.930 . S
C630 C627 1.370 1_455 S
C630 C631 1.385 . S
C631 C628 1.414 . S
C631 C630 1.385 . S
C631 C653 1.444 . S
O632 Tb588 2.548 . S
O632 C652 1.251 . S
O633 Tb588 2.611 . S
O633 Tb599 2.358 1_655 S
O633 C644 1.283 . S
O634 Tb599 2.429 . S
O634 C651 1.262 . S
O635 Tb588 2.316 1_455 S
O635 C651 1.260 . S
O636 Tb588 2.556 . S
O636 C644 1.243 . S
O637 Tb588 2.412 1_455 S
O637 C652 1.256 1_455 S
O638 Tb599 2.551 . S
O638 C663 1.251 . S
O639 Tb588 2.360 1_455 S
O639 Tb599 2.613 . S
O639 C655 1.283 . S
O640 Tb588 2.425 . S
O640 C662 1.262 . S
O641 Tb599 2.313 1_655 S
O641 C662 1.260 . S
O642 Tb599 2.559 . S
O642 C655 1.243 . S
O643 Tb599 2.411 1_655 S
O643 C663 1.256 1_655 S
C644 O633 1.283 . S
C644 O636 1.243 . S
C645 C647 1.382 . S
C645 C649 1.393 . S
C645 C652 1.500 . S
C646 C647 1.400 . S
C646 C648 1.384 . S
C647 C645 1.382 . S
C647 C646 1.400 . S
C647 H664 0.930 1_655 S
C648 C646 1.384 . S
C648 C650 1.392 . S
C648 H665 0.931 . S
C649 C645 1.393 . S
C649 C650 1.401 . S
C649 H666 0.930 . S
C650 C648 1.392 . S
C650 C649 1.401 . S
C650 H667 0.930 . S
C651 O634 1.262 . S
C651 O635 1.260 . S
C652 Tb588 2.834 . S
C652 O632 1.251 . S
C652 O637 1.256 1_655 S
C652 C645 1.500 . S
C653 H618 0.929 . S
C653 C631 1.444 . S
C653 C654 1.317 . S
C654 H616 0.930 . S
C654 C622 1.432 . S
C654 C653 1.317 . S
C655 O639 1.283 . S
C655 O642 1.243 . S
C656 C657 1.382 . S
C656 C660 1.393 . S
C656 C663 1.500 . S
C657 C656 1.382 . S
C657 C658 1.400 . S
C657 H668 0.930 1_455 S
C658 C657 1.400 . S
C658 C659 1.384 . S
C659 C658 1.384 . S
C659 C661 1.392 . S
C659 H669 0.931 . S
C660 C656 1.393 . S
C660 C661 1.401 . S
C660 H670 0.930 . S
C661 C659 1.392 . S
C661 C660 1.401 . S
C661 H671 0.930 . S
C662 O640 1.262 . S
C662 O641 1.260 . S
C663 Tb599 2.834 . S
C663 O638 1.251 . S
C663 O643 1.256 1_455 S
C663 C656 1.500 . S
H664 C647 0.930 1_455 S
H665 C648 0.931 . S
H666 C649 0.930 . S
H667 C650 0.930 . S
H668 C657 0.930 1_655 S
H669 C659 0.931 . S
H670 C660 0.930 . S
H671 C661 0.930 . S
C672 C673 1.387 . S
C672 H676 0.950 . S
C672 C681 1.390 . S
C673 C672 1.387 . S
C673 C675 1.387 . S
H674 C681 0.950 . S
C675 C673 1.387 . S
C675 C677 1.390 . S
C675 H679 0.950 . S
H676 C672 0.950 . S
C677 C675 1.390 . S
C677 C678 1.387 . S
C677 H680 0.950 . S
C678 C677 1.387 . S
C678 C681 1.387 . S
H679 C675 0.950 . S
H680 C677 0.950 . S
C681 C672 1.390 . S
C681 H674 0.950 . S
C681 C678 1.387 . S
C682 C683 1.387 . S
C682 H686 0.950 . S
C682 C691 1.390 . S
C683 C682 1.387 . S
C683 C685 1.387 . S
H684 C691 0.950 . S
C685 C683 1.387 . S
C685 C687 1.390 . S
C685 H689 0.950 . S
H686 C682 0.950 . S
C687 C685 1.390 . S
C687 C688 1.387 . S
C687 H690 0.950 . S
C688 C687 1.387 . S
C688 C691 1.387 . S
H689 C685 0.950 . S
H690 C687 0.950 . S
C691 C682 1.390 . S
C691 H684 0.950 . S
C691 C688 1.387 . S
C692 C693 1.387 . S
C692 H696 0.950 . S
C692 C701 1.390 . S
C693 C692 1.387 . S
C693 C695 1.387 . S
H694 C701 0.950 . S
C695 C693 1.387 . S
C695 C697 1.390 . S
C695 H699 0.950 . S
H696 C692 0.950 . S
C697 C695 1.390 . S
C697 C698 1.387 . S
C697 H700 0.950 . S
C698 C697 1.387 . S
C698 C701 1.387 . S
H699 C695 0.950 . S
H700 C697 0.950 . S
C701 C692 1.390 . S
C701 H694 0.950 . S
C701 C698 1.387 . S
C702 C703 1.387 . S
C702 H706 0.950 . S
C702 C711 1.390 . S
C703 C702 1.387 . S
C703 C705 1.387 . S
H704 C711 0.950 . S
C705 C703 1.387 . S
C705 C707 1.390 . S
C705 H709 0.950 . S
H706 C702 0.950 . S
C707 C705 1.390 . S
C707 C708 1.387 . S
C707 H710 0.950 . S
C708 C707 1.387 . S
C708 C711 1.387 . S
H709 C705 0.950 . S
H710 C707 0.950 . S
C711 C702 1.390 . S
C711 H704 0.950 . S
C711 C708 1.387 . S
C712 C713 1.387 . S
C712 H716 0.950 . S
C712 C721 1.390 . S
C713 C712 1.387 . S
C713 C715 1.387 . S
H714 C721 0.950 . S
C715 C713 1.387 . S
C715 C717 1.390 . S
C715 H719 0.950 . S
H716 C712 0.950 . S
C717 C715 1.390 . S
C717 C718 1.387 . S
C717 H720 0.950 . S
C718 C717 1.387 . S
C718 C721 1.387 . S
H719 C715 0.950 . S
H720 C717 0.950 . S
C721 C712 1.390 . S
C721 H714 0.950 . S
C721 C718 1.387 . S
C722 C723 1.387 . S
C722 H726 0.950 . S
C722 C731 1.390 . S
C723 C722 1.387 . S
C723 C725 1.387 . S
H724 C731 0.950 . S
C725 C723 1.387 . S
C725 C727 1.390 . S
C725 H729 0.950 . S
H726 C722 0.950 . S
C727 C725 1.390 . S
C727 C728 1.387 . S
C727 H730 0.950 . S
C728 C727 1.387 . S
C728 C731 1.387 . S
H729 C725 0.950 . S
H730 C727 0.950 . S
C731 C722 1.390 . S
C731 H724 0.950 . S
C731 C728 1.387 . S
C732 C733 1.387 . S
C732 H736 0.950 . S
C732 C741 1.390 . S
C733 C732 1.387 . S
C733 C735 1.387 . S
H734 C741 0.950 . S
C735 C733 1.387 . S
C735 C737 1.390 . S
C735 H739 0.950 . S
H736 C732 0.950 . S
C737 C735 1.390 . S
C737 C738 1.387 . S
C737 H740 0.950 . S
C738 C737 1.387 . S
C738 C741 1.387 . S
H739 C735 0.950 . S
H740 C737 0.950 . S
C741 C732 1.390 . S
C741 H734 0.950 . S
C741 C738 1.387 . S
C742 C743 1.387 . S
C742 H746 0.950 . S
C742 C751 1.390 . S
C743 C742 1.387 . S
C743 C745 1.387 . S
H744 C751 0.950 . S
C745 C743 1.387 . S
C745 C747 1.390 . S
C745 H749 0.950 . S
H746 C742 0.950 . S
C747 C745 1.390 . S
C747 C748 1.387 . S
C747 H750 0.950 . S
C748 C747 1.387 . S
C748 C751 1.387 . S
H749 C745 0.950 . S
H750 C747 0.950 . S
C751 C742 1.390 . S
C751 H744 0.950 . S
C751 C748 1.387 . S
C752 C753 1.387 . S
C752 H756 0.950 . S
C752 C761 1.390 . S
C753 C752 1.387 . S
C753 C755 1.387 . S
H754 C761 0.950 . S
C755 C753 1.387 . S
C755 C757 1.390 . S
C755 H759 0.950 . S
H756 C752 0.950 . S
C757 C755 1.390 . S
C757 C758 1.387 . S
C757 H760 0.950 . S
C758 C757 1.387 . S
C758 C761 1.387 . S
H759 C755 0.950 . S
H760 C757 0.950 . S
C761 C752 1.390 . S
C761 H754 0.950 . S
C761 C758 1.387 . S
C762 C763 1.387 . S
C762 H766 0.950 . S
C762 C771 1.390 . S
C763 C762 1.387 . S
C763 C765 1.387 . S
H764 C771 0.950 . S
C765 C763 1.387 . S
C765 C767 1.390 . S
C765 H769 0.950 . S
H766 C762 0.950 . S
C767 C765 1.390 . S
C767 C768 1.387 . S
C767 H770 0.950 . S
C768 C767 1.387 . S
C768 C771 1.387 . S
H769 C765 0.950 . S
H770 C767 0.950 . S
C771 C762 1.390 . S
C771 H764 0.950 . S
C771 C768 1.387 . S
C772 C773 1.387 . S
C772 H776 0.950 . S
C772 C781 1.390 . S
C773 C772 1.387 . S
C773 C775 1.387 . S
H774 C781 0.950 . S
C775 C773 1.387 . S
C775 C777 1.390 . S
C775 H779 0.950 . S
H776 C772 0.950 . S
C777 C775 1.390 . S
C777 C778 1.387 . S
C777 H780 0.950 . S
C778 C777 1.387 . S
C778 C781 1.387 . S
H779 C775 0.950 . S
H780 C777 0.950 . S
C781 C772 1.390 . S
C781 H774 0.950 . S
C781 C778 1.387 . S
C782 C783 1.387 . S
C782 H786 0.950 . S
C782 C791 1.390 . S
C783 C782 1.387 . S
C783 C785 1.387 . S
H784 C791 0.950 . S
C785 C783 1.387 . S
C785 C787 1.390 . S
C785 H789 0.950 . S
H786 C782 0.950 . S
C787 C785 1.390 . S
C787 C788 1.387 . S
C787 H790 0.950 . S
C788 C787 1.387 . S
C788 C791 1.387 . S
H789 C785 0.950 . S
H790 C787 0.950 . S
C791 C782 1.390 . S
C791 H784 0.950 . S
C791 C788 1.387 . S
C792 C793 1.387 . S
C792 H796 0.950 . S
C792 C801 1.390 . S
C793 C792 1.387 . S
C793 C795 1.387 . S
H794 C801 0.950 . S
C795 C793 1.387 . S
C795 C797 1.390 . S
C795 H799 0.950 . S
H796 C792 0.950 . S
C797 C795 1.390 . S
C797 C798 1.387 . S
C797 H800 0.950 . S
C798 C797 1.387 . S
C798 C801 1.387 . S
H799 C795 0.950 . S
H800 C797 0.950 . S
C801 C792 1.390 . S
C801 H794 0.950 . S
C801 C798 1.387 . S
C802 C803 1.387 . S
C802 H806 0.950 . S
C802 C811 1.390 . S
C803 C802 1.387 . S
C803 C805 1.387 . S
H804 C811 0.950 . S
C805 C803 1.387 . S
C805 C807 1.390 . S
C805 H809 0.950 . S
H806 C802 0.950 . S
C807 C805 1.390 . S
C807 C808 1.387 . S
C807 H810 0.950 . S
C808 C807 1.387 . S
C808 C811 1.387 . S
H809 C805 0.950 . S
H810 C807 0.950 . S
C811 C802 1.390 . S
C811 H804 0.950 . S
C811 C808 1.387 . S
C812 C813 1.387 . S
C812 H816 0.950 . S
C812 C821 1.390 . S
C813 C812 1.387 . S
C813 C815 1.387 . S
H814 C821 0.950 . S
C815 C813 1.387 . S
C815 C817 1.390 . S
C815 H819 0.950 . S
H816 C812 0.950 . S
C817 C815 1.390 . S
C817 C818 1.387 . S
C817 H820 0.950 . S
C818 C817 1.387 . S
C818 C821 1.387 . S
H819 C815 0.950 . S
H820 C817 0.950 . S
C821 C812 1.390 . S
C821 H814 0.950 . S
C821 C818 1.387 . S
C822 C823 1.387 . S
C822 H826 0.950 . S
C822 C831 1.390 . S
C823 C822 1.387 . S
C823 C825 1.387 . S
H824 C831 0.950 . S
C825 C823 1.387 . S
C825 C827 1.390 . S
C825 H829 0.950 . S
H826 C822 0.950 . S
C827 C825 1.390 . S
C827 C828 1.387 . S
C827 H830 0.950 . S
C828 C827 1.387 . S
C828 C831 1.387 . S
H829 C825 0.950 . S
H830 C827 0.950 . S
C831 C822 1.390 . S
C831 H824 0.950 . S
C831 C828 1.387 . S
C832 C833 1.387 . S
C832 H836 0.950 . S
C832 C841 1.390 1_556 S
C833 C832 1.387 . S
C833 C835 1.387 1_645 S
H834 C841 0.950 . S
C835 C833 1.387 1_465 S
C835 C837 1.390 1_556 S
C835 H839 0.950 . S
H836 C832 0.950 . S
C837 C835 1.390 1_554 S
C837 C838 1.387 . S
C837 H840 0.950 . S
C838 C837 1.387 . S
C838 C841 1.387 1_465 S
H839 C835 0.950 . S
H840 C837 0.950 . S
C841 C832 1.390 1_554 S
C841 H834 0.950 . S
C841 C838 1.387 1_645 S
C842 C843 1.387 . S
C842 H846 0.950 . S
C842 C851 1.390 . S
C843 C842 1.387 . S
C843 C845 1.387 . S
H844 C851 0.950 . S
C845 C843 1.387 . S
C845 C847 1.390 . S
C845 H849 0.950 . S
H846 C842 0.950 . S
C847 C845 1.390 . S
C847 C848 1.387 . S
C847 H850 0.950 . S
C848 C847 1.387 . S
C848 C851 1.387 . S
H849 C845 0.950 . S
H850 C847 0.950 . S
C851 C842 1.390 . S
C851 H844 0.950 . S
C851 C848 1.387 . S
C852 C853 1.387 . S
C852 H856 0.950 . S
C852 C861 1.390 . S
C853 C852 1.387 . S
C853 C855 1.387 1_545 S
H854 C861 0.950 . S
C855 C853 1.387 1_565 S
C855 C857 1.390 . S
C855 H859 0.950 . S
H856 C852 0.950 . S
C857 C855 1.390 . S
C857 C858 1.387 . S
C857 H860 0.950 . S
C858 C857 1.387 . S
C858 C861 1.387 1_565 S
H859 C855 0.950 . S
H860 C857 0.950 . S
C861 C852 1.390 . S
C861 H854 0.950 . S
C861 C858 1.387 1_545 S
C862 C863 1.387 . S
C862 H866 0.950 . S
C862 C871 1.390 . S
C863 C862 1.387 . S
C863 C865 1.387 . S
H864 C871 0.950 . S
C865 C863 1.387 . S
C865 C867 1.390 . S
C865 H869 0.950 . S
H866 C862 0.950 . S
C867 C865 1.390 . S
C867 C868 1.387 . S
C867 H870 0.950 . S
C868 C867 1.387 . S
C868 C871 1.387 . S
H869 C865 0.950 . S
H870 C867 0.950 . S
C871 C862 1.390 . S
C871 H864 0.950 . S
C871 C868 1.387 . S
C872 C873 1.387 . S
C872 H876 0.950 . S
C872 C881 1.390 . S
C873 C872 1.387 . S
C873 C875 1.387 . S
H874 C881 0.950 . S
C875 C873 1.387 . S
C875 C877 1.390 . S
C875 H879 0.950 . S
H876 C872 0.950 . S
C877 C875 1.390 . S
C877 C878 1.387 . S
C877 H880 0.950 . S
C878 C877 1.387 . S
C878 C881 1.387 . S
H879 C875 0.950 . S
H880 C877 0.950 . S
C881 C872 1.390 . S
C881 H874 0.950 . S
C881 C878 1.387 . S
C882 C883 1.387 . S
C882 H886 0.950 . S
C882 C891 1.390 . S
C883 C882 1.387 . S
C883 C885 1.387 . S
H884 C891 0.950 . S
C885 C883 1.387 . S
C885 C887 1.390 . S
C885 H889 0.950 . S
H886 C882 0.950 . S
C887 C885 1.390 . S
C887 C888 1.387 . S
C887 H890 0.950 . S
C888 C887 1.387 . S
C888 C891 1.387 . S
H889 C885 0.950 . S
H890 C887 0.950 . S
C891 C882 1.390 . S
C891 H884 0.950 . S
C891 C888 1.387 . S
C892 C893 1.387 . S
C892 H896 0.950 . S
C892 C901 1.390 . S
C893 C892 1.387 . S
C893 C895 1.387 . S
H894 C901 0.950 . S
C895 C893 1.387 . S
C895 C897 1.390 . S
C895 H899 0.950 . S
H896 C892 0.950 . S
C897 C895 1.390 . S
C897 C898 1.387 . S
C897 H900 0.950 . S
C898 C897 1.387 . S
C898 C901 1.387 . S
H899 C895 0.950 . S
H900 C897 0.950 . S
C901 C892 1.390 . S
C901 H894 0.950 . S
C901 C898 1.387 . S
C902 C903 1.387 1_455 S
C902 H906 0.950 . S
C902 C911 1.390 1_556 S
C903 C902 1.387 1_655 S
C903 C905 1.387 . S
H904 C911 0.950 . S
C905 C903 1.387 . S
C905 C907 1.390 1_556 S
C905 H909 0.950 . S
H906 C902 0.950 . S
C907 C905 1.390 1_554 S
C907 C908 1.388 1_655 S
C907 H910 0.950 1_655 S
C908 C907 1.388 1_455 S
C908 C911 1.387 . S
H909 C905 0.950 . S
H910 C907 0.950 1_455 S
C911 C902 1.390 1_554 S
C911 H904 0.950 . S
C911 C908 1.387 . S
C673 C56 1.565 . S
C678 C308 1.564 . S
C683 C74 1.474 . S
C688 C140 1.433 . S
C693 C158 1.343 . S
C698 C242 1.348 . S
C703 C224 1.435 . S
C708 C326 1.472 . S
C713 C67 1.567 . S
C718 C487 1.568 . S
C723 C63 1.473 . S
C728 C403 1.437 . S
C733 C399 1.343 . S
C738 C231 1.341 . S
C743 C483 1.473 . S
C748 C235 1.438 . S
C753 C560 1.565 . S
C758 C476 1.568 . S
C763 C392 1.435 . S
C768 C578 1.473 . S
C773 C662 1.345 . S
C778 C410 1.345 . S
C783 C494 1.475 . S
C788 C644 1.435 . S
C793 C319 1.567 . S
C798 C571 1.566 . S
C803 C567 1.475 . S
C808 C151 1.433 . S
C813 C147 1.343 . S
C818 C651 1.344 . S
C823 C315 1.474 . S
C828 C655 1.433 . S
C833 C70 1.380 . S
C838 C58 1.380 . S
C843 C142 1.360 . S
C848 C154 1.360 . S
C853 C238 1.363 . S
C858 C226 1.363 . S
C863 C322 1.384 . S
C868 C310 1.384 . S
C873 C394 1.360 . S
C878 C406 1.360 . S
C883 C490 1.379 . S
C888 C478 1.379 . S
C893 C562 1.383 . S
C898 C574 1.383 . S
C903 C646 1.362 . S
C908 C658 1.362 . S
