# Generated by pormake.
# Topology qtz-e, (6)-cn, num edge types: 1
# Building blocks:
#     Node 0, Type 0, BuildingBlock: PAMTOO_clean_sbu_0, # of connection points: 6
#     Node 1, Type 0, BuildingBlock: PAMTOO_clean_sbu_0, # of connection points: 6
#     Node 2, Type 0, BuildingBlock: PAMTOO_clean_sbu_0, # of connection points: 6
#     Node 3, Type 0, BuildingBlock: PAMTOO_clean_sbu_0, # of connection points: 6
#     Node 4, Type 0, BuildingBlock: PAMTOO_clean_sbu_0, # of connection points: 6
#     Node 5, Type 0, BuildingBlock: PAMTOO_clean_sbu_0, # of connection points: 6
#     Edge 6, Type (0, 0), BuildingBlock: FUNLAD_clean_linker_0, # of connection points: 2
#     Edge 7, Type (0, 0), BuildingBlock: FUNLAD_clean_linker_0, # of connection points: 2
#     Edge 8, Type (0, 0), BuildingBlock: FUNLAD_clean_linker_0, # of connection points: 2
#     Edge 9, Type (0, 0), BuildingBlock: FUNLAD_clean_linker_0, # of connection points: 2
#     Edge 10, Type (0, 0), BuildingBlock: FUNLAD_clean_linker_0, # of connection points: 2
#     Edge 11, Type (0, 0), BuildingBlock: FUNLAD_clean_linker_0, # of connection points: 2
#     Edge 12, Type (0, 0), BuildingBlock: FUNLAD_clean_linker_0, # of connection points: 2
#     Edge 13, Type (0, 0), BuildingBlock: FUNLAD_clean_linker_0, # of connection points: 2
#     Edge 14, Type (0, 0), BuildingBlock: FUNLAD_clean_linker_0, # of connection points: 2
#     Edge 15, Type (0, 0), BuildingBlock: FUNLAD_clean_linker_0, # of connection points: 2
#     Edge 16, Type (0, 0), BuildingBlock: FUNLAD_clean_linker_0, # of connection points: 2
#     Edge 17, Type (0, 0), BuildingBlock: FUNLAD_clean_linker_0, # of connection points: 2
#     Edge 18, Type (0, 0), BuildingBlock: FUNLAD_clean_linker_0, # of connection points: 2
#     Edge 19, Type (0, 0), BuildingBlock: FUNLAD_clean_linker_0, # of connection points: 2
#     Edge 20, Type (0, 0), BuildingBlock: FUNLAD_clean_linker_0, # of connection points: 2
#     Edge 21, Type (0, 0), BuildingBlock: FUNLAD_clean_linker_0, # of connection points: 2
#     Edge 22, Type (0, 0), BuildingBlock: FUNLAD_clean_linker_0, # of connection points: 2
#     Edge 23, Type (0, 0), BuildingBlock: FUNLAD_clean_linker_0, # of connection points: 2
# Relax obj value: 0.178
# Max RMSD: 0.204
# Mean RMSD: 0.204
data_MOF--net-qtz-e--node1-PAMTOO_clean_sbu_0--edge1-FUNLAD_clean_linker_0
_symmetry_space_group_name_H-M    P1
_symmetry_Int_Tables_number       1
_symmetry_cell_setting            triclinic
loop_
_symmetry_equiv_pos_as_xyz
'x, y, z'
_cell_length_a     31.591214
_cell_length_b     31.458643
_cell_length_c     57.357902
_cell_angle_alpha  90.038925
_cell_angle_beta   89.926305
_cell_angle_gamma 120.13722
loop_
_atom_site_label
_atom_site_type_symbol
_atom_site_fract_x
_atom_site_fract_y
_atom_site_fract_z
_atom_type_partial_charge
Dy0 Dy 0.13485 0.36359 0.13167 0.0
Dy1 Dy 0.21247 0.46337 0.16165 0.0
C2 C 0.23969 0.38573 0.14699 0.0
O3 O 0.11594 0.34504 0.16957 0.0
O4 O 0.14627 0.4234 0.18372 0.0
O5 O 0.11003 0.2873 0.12401 0.0
O6 O 0.08026 0.32577 0.10503 0.0
O7 O 0.1577 0.4805 0.14671 0.0
O8 O 0.09364 0.40341 0.13693 0.0
O9 O 0.24515 0.47471 0.12605 0.0
O10 O 0.17408 0.42445 0.10605 0.0
O11 O 0.25367 0.54179 0.16813 0.0
O12 O 0.26197 0.49144 0.19079 0.0
C13 C 0.11797 0.37567 0.18582 0.0
O14 O 0.20972 0.37353 0.12933 0.0
O15 O 0.23144 0.40459 0.16551 0.0
C16 C 0.09774 0.27278 0.08365 0.0
C17 C 0.12333 0.24767 0.04064 0.0
C18 C 0.15662 0.29094 0.05246 0.0
C19 C 0.14396 0.30332 0.07372 0.0
C20 C 0.06428 0.22965 0.07202 0.0
C21 C 0.07692 0.21719 0.05067 0.0
C22 C 0.08476 0.2868 0.1059 0.0
C23 C 0.11219 0.45099 0.14014 0.0
C24 C 0.21994 0.46017 0.10657 0.0
C25 C 0.26556 0.56069 0.20821 0.0
C26 C 0.25596 0.60581 0.24873 0.0
C27 C 0.21968 0.55774 0.24277 0.0
C28 C 0.22436 0.53545 0.22264 0.0
C29 C 0.30144 0.60887 0.21384 0.0
C30 C 0.29664 0.63137 0.23393 0.0
C31 C 0.27171 0.53651 0.18762 0.0
H32 H 0.19231 0.31572 0.04512 0.0
H33 H 0.17021 0.33701 0.08236 0.0
H34 H 0.02843 0.20567 0.07942 0.0
H35 H 0.05057 0.1834 0.04216 0.0
H36 H 0.1876 0.53741 0.25365 0.0
H37 H 0.19607 0.49831 0.21847 0.0
H38 H 0.33343 0.62886 0.20286 0.0
H39 H 0.3253 0.66832 0.23816 0.0
Dy40 Dy 0.84931 0.21383 0.41842 0.0
Dy41 Dy 0.77527 0.2417 0.38942 0.0
C42 C 0.74301 0.13381 0.40225 0.0
O43 O 0.86318 0.20803 0.38057 0.0
O44 O 0.83873 0.26035 0.36609 0.0
O45 O 0.87376 0.1624 0.42631 0.0
O46 O 0.90569 0.23238 0.44424 0.0
O47 O 0.82486 0.30585 0.4114 0.0
O48 O 0.89118 0.29492 0.4114 0.0
O49 O 0.73991 0.21859 0.4245 0.0
O50 O 0.80718 0.22896 0.44514 0.0
O51 O 0.75515 0.2945 0.37804 0.0
O52 O 0.71335 0.21921 0.36633 0.0
C53 C 0.86219 0.23595 0.36377 0.0
O54 O 0.77377 0.14908 0.41972 0.0
O55 O 0.75149 0.16265 0.3843 0.0
C56 C 0.89169 0.16363 0.46632 0.0
C57 C 0.87448 0.11868 0.51068 0.0
C58 C 0.83677 0.12091 0.49871 0.0
C59 C 0.84533 0.14325 0.47677 0.0
C60 C 0.92934 0.16131 0.47805 0.0
C61 C 0.92086 0.13905 0.50004 0.0
C62 C 0.90115 0.18882 0.44363 0.0
C63 C 0.87197 0.3233 0.4139 0.0
C64 C 0.76242 0.22183 0.44431 0.0
C65 C 0.72466 0.28113 0.33973 0.0
C66 C 0.73091 0.31635 0.29388 0.0
C67 C 0.7728 0.32173 0.30523 0.0
C68 C 0.76967 0.30427 0.32793 0.0
C69 C 0.68267 0.275 0.32843 0.0
C70 C 0.68572 0.29241 0.30569 0.0
C71 C 0.72146 0.26384 0.36385 0.0
H72 H 0.80084 0.10625 0.50649 0.0
H73 H 0.81586 0.14507 0.46806 0.0
H74 H 0.96539 0.17696 0.47028 0.0
H75 H 0.95057 0.1375 0.50862 0.0
H76 H 0.80802 0.33935 0.29654 0.0
H77 H 0.80249 0.30924 0.33637 0.0
H78 H 0.64762 0.25721 0.33729 0.0
H79 H 0.65288 0.28813 0.29755 0.0
Dy80 Dy 0.64977 0.78797 0.79466 0.0
Dy81 Dy 0.54706 0.73728 0.82558 0.0
C82 C 0.59798 0.85038 0.80996 0.0
O83 O 0.66857 0.77086 0.82998 0.0
O84 O 0.60783 0.77217 0.85131 0.0
O85 O 0.72375 0.84623 0.78752 0.0
O86 O 0.69063 0.78053 0.76629 0.0
O87 O 0.57468 0.68512 0.82308 0.0
O88 O 0.6056 0.70727 0.78671 0.0
O89 O 0.52387 0.72861 0.78806 0.0
O90 O 0.59472 0.78963 0.77127 0.0
O91 O 0.47895 0.67123 0.83395 0.0
O92 O 0.49884 0.74027 0.85118 0.0
C93 C 0.64942 0.77236 0.85017 0.0
O94 O 0.63877 0.85118 0.80415 0.0
O95 O 0.55797 0.81012 0.8161 0.0
C96 C 0.74101 0.85509 0.74706 0.0
C97 C 0.76275 0.9057 0.70399 0.0
C98 C 0.72606 0.90363 0.71875 0.0
C99 C 0.7152 0.87844 0.74001 0.0
C100 C 0.77807 0.85762 0.73266 0.0
C101 C 0.78889 0.88267 0.71135 0.0
C102 C 0.72713 0.82526 0.76851 0.0
C103 C 0.58368 0.67318 0.80264 0.0
C104 C 0.54745 0.75844 0.77059 0.0
C105 C 0.45504 0.66744 0.8733 0.0
C106 C 0.42364 0.62056 0.91691 0.0
C107 C 0.39698 0.59801 0.89652 0.0
C108 C 0.41244 0.62139 0.87495 0.0
C109 C 0.483 0.68912 0.89343 0.0
C110 C 0.46733 0.66598 0.91504 0.0
C111 C 0.46882 0.69288 0.85067 0.0
H112 H 0.7056 0.9214 0.71387 0.0
H113 H 0.68616 0.87661 0.75081 0.0
H114 H 0.79799 0.83933 0.73768 0.0
H115 H 0.81681 0.88276 0.70035 0.0
H116 H 0.36373 0.56255 0.89725 0.0
H117 H 0.39065 0.60384 0.85959 0.0
H118 H 0.51635 0.7245 0.8926 0.0
H119 H 0.48855 0.68462 0.93037 0.0
Dy120 Dy 0.7721 0.63812 0.08701 0.0
Dy121 Dy 0.74727 0.53912 0.05561 0.0
C122 C 0.85294 0.61289 0.07205 0.0
O123 O 0.77434 0.65845 0.04913 0.0
O124 O 0.72181 0.58157 0.03477 0.0
O125 O 0.82464 0.71397 0.09485 0.0
O126 O 0.75592 0.6766 0.11361 0.0
O127 O 0.67542 0.52239 0.07028 0.0
O128 O 0.69077 0.59905 0.08257 0.0
O129 O 0.76453 0.52261 0.09118 0.0
O130 O 0.7529 0.57788 0.11275 0.0
O131 O 0.71206 0.4612 0.0485 0.0
O132 O 0.76592 0.51363 0.02448 0.0
C133 C 0.744 0.62956 0.03292 0.0
O134 O 0.83553 0.62594 0.08957 0.0
O135 O 0.82649 0.59498 0.05327 0.0
C136 C 0.82598 0.73088 0.13499 0.0
C137 C 0.87501 0.75944 0.17838 0.0
C138 C 0.86961 0.71776 0.16654 0.0
C139 C 0.84528 0.7036 0.1451 0.0
C140 C 0.83123 0.77241 0.14663 0.0
C141 C 0.85549 0.78659 0.16811 0.0
C142 C 0.79952 0.71535 0.11264 0.0
C143 C 0.66073 0.55207 0.07823 0.0
C144 C 0.75826 0.53908 0.11125 0.0
C145 C 0.70118 0.44225 0.0083 0.0
C146 C 0.64484 0.39886 0.96796 0.0
C147 C 0.63174 0.4247 0.98371 0.0
C148 C 0.6598 0.44639 0.00367 0.0
C149 C 0.714 0.41602 0.99291 0.0
C150 C 0.68616 0.39454 0.97291 0.0
C151 C 0.73313 0.46779 0.02819 0.0
H152 H 0.88462 0.69629 0.1737 0.0
H153 H 0.84147 0.67127 0.13639 0.0
H154 H 0.81626 0.79371 0.13918 0.0
H155 H 0.85824 0.81841 0.17684 0.0
H156 H 0.59984 0.42825 0.98062 0.0
H157 H 0.64961 0.46691 0.01533 0.0
H158 H 0.74619 0.413 0.99611 0.0
H159 H 0.69784 0.37568 0.96101 0.0
Dy160 Dy 0.20516 0.85629 0.46119 0.0
Dy161 Dy 0.24727 0.79827 0.49432 0.0
C162 C 0.13484 0.74426 0.47795 0.0
O163 O 0.2261 0.89615 0.4955 0.0
O164 O 0.22112 0.83485 0.51913 0.0
O165 O 0.15222 0.87879 0.45338 0.0
O166 O 0.21586 0.9026 0.4314 0.0
O167 O 0.30742 0.87559 0.49032 0.0
O168 O 0.28529 0.88847 0.45436 0.0
O169 O 0.25655 0.78207 0.45716 0.0
O170 O 0.20044 0.79662 0.43866 0.0
O171 O 0.30526 0.78294 0.50212 0.0
O172 O 0.23796 0.74861 0.52228 0.0
C173 C 0.22434 0.87784 0.51637 0.0
O174 O 0.13825 0.78611 0.47173 0.0
O175 O 0.17254 0.74042 0.48436 0.0
C176 C 0.14238 0.88342 0.41272 0.0
C177 C 0.0888 0.85351 0.37054 0.0
C178 C 0.08966 0.81871 0.3857 0.0
C179 C 0.1163 0.83354 0.40652 0.0
C180 C 0.14118 0.91821 0.39792 0.0
C181 C 0.11463 0.90346 0.37705 0.0
C182 C 0.17341 0.89956 0.43373 0.0
C183 C 0.31905 0.89771 0.47005 0.0
C184 C 0.22959 0.77819 0.4389 0.0
C185 C 0.31024 0.76297 0.54129 0.0
C186 C 0.36219 0.7732 0.58274 0.0
C187 C 0.3349 0.79709 0.58019 0.0
C188 C 0.30922 0.79216 0.55955 0.0
C189 C 0.33781 0.73963 0.54367 0.0
C190 C 0.36361 0.74471 0.56419 0.0
C191 C 0.28188 0.75503 0.51986 0.0
H192 H 0.06973 0.77991 0.38149 0.0
H193 H 0.11706 0.80611 0.41765 0.0
H194 H 0.16154 0.95694 0.40229 0.0
H195 H 0.11545 0.93138 0.36573 0.0
H196 H 0.33358 0.81973 0.59409 0.0
H197 H 0.2883 0.81073 0.55794 0.0
H198 H 0.33887 0.71688 0.52975 0.0
H199 H 0.38381 0.72539 0.56573 0.0
Dy200 Dy 0.33872 0.1354 0.75698 0.0
Dy201 Dy 0.4413 0.18765 0.72564 0.0
C202 C 0.3887 0.2481 0.74029 0.0
O203 O 0.32073 0.0951 0.72282 0.0
O204 O 0.37997 0.15547 0.69999 0.0
O205 O 0.2644 0.11907 0.76345 0.0
O206 O 0.29766 0.08858 0.78573 0.0
O207 O 0.4205 0.10952 0.7304 0.0
O208 O 0.38131 0.09793 0.76527 0.0
O209 O 0.46476 0.20097 0.76312 0.0
O210 O 0.39488 0.19225 0.78031 0.0
O211 O 0.51032 0.19416 0.71569 0.0
O212 O 0.48718 0.24229 0.70046 0.0
C213 C 0.3391 0.11328 0.70218 0.0
O214 O 0.34764 0.20764 0.7454 0.0
O215 O 0.42958 0.24861 0.7359 0.0
C216 C 0.24412 0.11008 0.80357 0.0
C217 C 0.21443 0.13487 0.84549 0.0
C218 C 0.26117 0.16623 0.83603 0.0
C219 C 0.27584 0.15397 0.81525 0.0
C220 C 0.1973 0.07909 0.81268 0.0
C221 C 0.18251 0.09137 0.83341 0.0
C222 C 0.2605 0.09515 0.78265 0.0
C223 C 0.40666 0.08735 0.7506 0.0
C224 C 0.4418 0.20684 0.78094 0.0
C225 C 0.53458 0.22152 0.67695 0.0
C226 C 0.56279 0.21259 0.63147 0.0
C227 C 0.52492 0.17146 0.64293 0.0
C228 C 0.51078 0.17593 0.66551 0.0
C229 C 0.572 0.26252 0.66557 0.0
C230 C 0.58592 0.2582 0.64303 0.0
C231 C 0.51942 0.22806 0.70018 0.0
H232 H 0.28645 0.20028 0.84468 0.0
H233 H 0.31219 0.17841 0.80846 0.0
H234 H 0.17244 0.04492 0.80398 0.0
H235 H 0.14652 0.06609 0.84031 0.0
H236 H 0.50662 0.13577 0.63457 0.0
H237 H 0.4813 0.14398 0.67399 0.0
H238 H 0.59015 0.29813 0.67405 0.0
H239 H 0.61444 0.29083 0.63455 0.0
C240 C 0.20601 0.75082 0.39758 0.0
C241 C 0.23256 0.75299 0.41767 0.0
C242 C 0.20958 0.72829 0.37729 0.0
C243 C 0.23992 0.70748 0.37657 0.0
C244 C 0.26548 0.70856 0.39677 0.0
C245 C 0.26213 0.73135 0.41708 0.0
C246 C 0.24455 0.68326 0.35526 0.0
C247 C 0.2392 0.69634 0.33357 0.0
C248 C 0.24394 0.67247 0.31216 0.0
C249 C 0.25769 0.69916 0.29121 0.0
C250 C 0.26192 0.67771 0.27064 0.0
C251 C 0.25171 0.6288 0.27054 0.0
H252 H 0.22132 0.60113 0.32766 0.0
C253 C 0.23728 0.60183 0.29143 0.0
C254 C 0.2334 0.62337 0.31203 0.0
H255 H 0.22934 0.5641 0.2919 0.0
H256 H 0.18245 0.76663 0.39745 0.0
H257 H 0.18797 0.7267 0.36233 0.0
H258 H 0.28866 0.6923 0.39676 0.0
H259 H 0.28284 0.73209 0.43226 0.0
H260 H 0.25522 0.65566 0.35758 0.0
H261 H 0.23345 0.72734 0.33123 0.0
H262 H 0.26546 0.73684 0.29077 0.0
H263 H 0.2725 0.69919 0.25474 0.0
C264 C 0.62878 0.23397 0.60192 0.0
C265 C 0.57881 0.20831 0.60767 0.0
C266 C 0.64432 0.23155 0.57948 0.0
C267 C 0.61029 0.20258 0.56225 0.0
C268 C 0.56028 0.17713 0.56789 0.0
C269 C 0.54464 0.17973 0.59042 0.0
C270 C 0.62616 0.1998 0.53817 0.0
C271 C 0.6706 0.20551 0.53373 0.0
C272 C 0.69074 0.20686 0.51015 0.0
C273 C 0.73487 0.20647 0.5088 0.0
C274 C 0.75766 0.21103 0.48744 0.0
C275 C 0.73691 0.2161 0.46672 0.0
H276 H 0.63588 0.2126 0.48957 0.0
C277 C 0.69223 0.2156 0.46785 0.0
C278 C 0.66941 0.2113 0.48938 0.0
H279 H 0.67533 0.21942 0.45218 0.0
H280 H 0.65613 0.25606 0.6148 0.0
H281 H 0.68303 0.25323 0.57568 0.0
H282 H 0.53327 0.15507 0.55486 0.0
H283 H 0.5058 0.16011 0.5942 0.0
H284 H 0.60018 0.19174 0.52417 0.0
H285 H 0.69404 0.20915 0.54834 0.0
H286 H 0.75227 0.20318 0.52443 0.0
H287 H 0.7918 0.21073 0.48727 0.0
C288 C 0.2947 0.50793 0.08178 0.0
C289 C 0.24355 0.48321 0.08427 0.0
C290 C 0.31632 0.52742 0.06015 0.0
C291 C 0.28699 0.52279 0.04078 0.0
C292 C 0.23608 0.49924 0.04352 0.0
C293 C 0.21452 0.47921 0.06495 0.0
C294 C 0.30774 0.54267 0.01751 0.0
C295 C 0.34917 0.54585 0.00926 0.0
C296 C 0.36735 0.56286 0.98522 0.0
C297 C 0.41744 0.58345 0.98043 0.0
C298 C 0.43581 0.60126 0.95814 0.0
C299 C 0.40427 0.5985 0.94016 0.0
H300 H 0.29647 0.54073 0.96957 0.0
C301 C 0.35391 0.57628 0.94481 0.0
C302 C 0.33559 0.55829 0.96697 0.0
H303 H 0.32852 0.57373 0.93146 0.0
H304 H 0.31794 0.5115 0.0964 0.0
H305 H 0.35581 0.54648 0.05876 0.0
H306 H 0.21275 0.49557 0.02891 0.0
H307 H 0.175 0.46066 0.06636 0.0
H308 H 0.28651 0.55307 0.0065 0.0
H309 H 0.37068 0.53594 0.02038 0.0
H310 H 0.44259 0.58659 0.99405 0.0
H311 H 0.4747 0.61734 0.95504 0.0
C312 C 0.774 0.38339 0.26423 0.0
C313 C 0.73461 0.33682 0.2701 0.0
C314 C 0.77681 0.40352 0.24218 0.0
C315 C 0.74007 0.37761 0.22546 0.0
C316 C 0.70149 0.33051 0.23109 0.0
C317 C 0.69856 0.31044 0.2532 0.0
C318 C 0.74101 0.3986 0.20208 0.0
C319 C 0.76171 0.44732 0.19832 0.0
C320 C 0.76038 0.46927 0.17556 0.0
C321 C 0.76445 0.51577 0.17558 0.0
C322 C 0.76348 0.53809 0.15474 0.0
C323 C 0.75909 0.51473 0.13323 0.0
H324 H 0.75462 0.41066 0.15329 0.0
C325 C 0.75596 0.46853 0.1331 0.0
C326 C 0.75648 0.44592 0.15406 0.0
H327 H 0.75291 0.44973 0.11682 0.0
H328 H 0.80233 0.40477 0.27684 0.0
H329 H 0.80797 0.43926 0.23829 0.0
H330 H 0.67301 0.30949 0.21847 0.0
H331 H 0.66817 0.27414 0.25703 0.0
H332 H 0.72098 0.37303 0.18811 0.0
H333 H 0.77751 0.47244 0.21293 0.0
H334 H 0.76799 0.53484 0.19185 0.0
H335 H 0.76656 0.57395 0.15554 0.0
C336 C 0.54358 0.7955 0.73273 0.0
C337 C 0.52019 0.75851 0.74964 0.0
C338 C 0.51846 0.79638 0.71294 0.0
C339 C 0.46935 0.75986 0.70938 0.0
C340 C 0.44565 0.72341 0.72648 0.0
C341 C 0.47081 0.72263 0.7464 0.0
C342 C 0.44169 0.75939 0.68832 0.0
C343 C 0.46366 0.78007 0.66793 0.0
C344 C 0.43679 0.77902 0.64651 0.0
C345 C 0.45976 0.78479 0.62484 0.0
C346 C 0.43583 0.78354 0.6042 0.0
C347 C 0.38845 0.77699 0.60477 0.0
H348 H 0.37143 0.77064 0.66351 0.0
C349 C 0.36589 0.7726 0.62646 0.0
C350 C 0.38979 0.77365 0.64715 0.0
H351 H 0.32935 0.76743 0.62745 0.0
H352 H 0.58136 0.8243 0.73483 0.0
H353 H 0.53761 0.82628 0.70072 0.0
H354 H 0.40769 0.69515 0.72432 0.0
H355 H 0.45163 0.69382 0.75917 0.0
H356 H 0.40202 0.73908 0.68941 0.0
H357 H 0.50301 0.79617 0.66629 0.0
H358 H 0.49621 0.78969 0.62384 0.0
H359 H 0.45449 0.78783 0.58776 0.0
C360 C 0.60839 0.33217 0.93762 0.0
C361 C 0.61649 0.37761 0.94613 0.0
C362 C 0.58343 0.31308 0.91667 0.0
C363 C 0.56594 0.33905 0.90372 0.0
C364 C 0.57288 0.38375 0.91248 0.0
C365 C 0.59816 0.40304 0.93335 0.0
C366 C 0.53905 0.31979 0.88144 0.0
C367 C 0.54699 0.29078 0.86693 0.0
C368 C 0.51999 0.27113 0.84469 0.0
C369 C 0.5419 0.25853 0.82671 0.0
C370 C 0.51697 0.23847 0.80582 0.0
C371 C 0.46922 0.22992 0.80261 0.0
H372 H 0.4535 0.27053 0.85511 0.0
C373 C 0.44721 0.24238 0.82065 0.0
C374 C 0.47224 0.2627 0.84145 0.0
H375 H 0.41038 0.23611 0.81882 0.0
H376 H 0.62094 0.31101 0.94728 0.0
H377 H 0.57722 0.27764 0.9109 0.0
H378 H 0.55942 0.40429 0.90294 0.0
H379 H 0.60415 0.43837 0.93921 0.0
H380 H 0.51382 0.33208 0.87637 0.0
H381 H 0.57578 0.28264 0.87092 0.0
H382 H 0.57847 0.26422 0.82883 0.0
H383 H 0.53489 0.22901 0.79236 0.0
C384 C 0.30074 0.37904 0.12187 0.0
C385 C 0.28922 0.39316 0.1431 0.0
C386 C 0.34941 0.39548 0.11586 0.0
C387 C 0.38766 0.42687 0.13092 0.0
C388 C 0.37577 0.43753 0.15292 0.0
C389 C 0.32709 0.42091 0.15897 0.0
C390 C 0.44016 0.45083 0.12415 0.0
C391 C 0.45578 0.45593 0.10191 0.0
C392 C 0.50833 0.48251 0.09561 0.0
C393 C 0.52415 0.46523 0.07693 0.0
C394 C 0.57365 0.48859 0.07097 0.0
C395 C 0.60809 0.53051 0.0832 0.0
H396 H 0.53111 0.54027 0.12153 0.0
C397 C 0.592 0.54925 0.10121 0.0
C398 C 0.54253 0.52525 0.10748 0.0
H399 H 0.61781 0.58149 0.11092 0.0
H400 H 0.27233 0.35706 0.10939 0.0
H401 H 0.35656 0.38427 0.0992 0.0
H402 H 0.40437 0.46082 0.16506 0.0
H403 H 0.31951 0.43223 0.17555 0.0
H404 H 0.4671 0.46698 0.13801 0.0
H405 H 0.42991 0.43972 0.0877 0.0
H406 H 0.49833 0.43281 0.06732 0.0
H407 H 0.58502 0.47358 0.05688 0.0
C408 C 0.06819 0.68723 0.4516 0.0
C409 C 0.08892 0.69805 0.47397 0.0
C410 C 0.03259 0.6391 0.44586 0.0
C411 C 0.01656 0.60154 0.46262 0.0
C412 C 0.03463 0.61323 0.48544 0.0
C413 C 0.07134 0.66097 0.49097 0.0
C414 C 0.98293 0.54961 0.45635 0.0
C415 C -0.00898 0.52907 0.43753 0.0
C416 C 0.96034 0.4761 0.43192 0.0
C417 C 0.98188 0.45109 0.4215 0.0
C418 C 0.95356 0.40108 0.41601 0.0
C419 C 0.90295 0.37562 0.42031 0.0
H420 H 0.89188 0.46896 0.44387 0.0
C421 C 0.8814 0.40091 0.43047 0.0
C422 C 0.90978 0.45051 0.43632 0.0
H423 H 0.84246 0.38233 0.43401 0.0
H424 H 0.08194 0.71515 0.43812 0.0
H425 H 0.0186 0.63095 0.42821 0.0
H426 H 0.02251 0.5848 0.49862 0.0
H427 H 0.08739 0.66853 0.50823 0.0
H428 H 0.95431 0.52683 0.4687 0.0
H429 H 0.02311 0.5511 0.42676 0.0
H430 H 0.02078 0.47019 0.41781 0.0
H431 H 0.97107 0.38263 0.40805 0.0
C432 C 0.46393 0.05457 0.74585 0.0
C433 C 0.42604 0.05552 0.75834 0.0
C434 C 0.48635 0.02926 0.75459 0.0
C435 C 0.47118 0.00418 0.77599 0.0
C436 C 0.43197 0.00343 0.78793 0.0
C437 C 0.40989 0.02913 0.77932 0.0
C438 C 0.49409 0.97713 0.78609 0.0
C439 C 0.54083 0.98877 0.78208 0.0
C440 C 0.56192 0.95962 0.79185 0.0
C441 C 0.59882 0.95671 0.77945 0.0
C442 C 0.61434 0.9241 0.78653 0.0
C443 C 0.59315 0.89407 0.80615 0.0
H444 H 0.51787 0.93606 0.82346 0.0
C445 C 0.55955 0.90023 0.81967 0.0
C446 C 0.54441 0.93297 0.81274 0.0
H447 H 0.54313 0.87791 0.83505 0.0
H448 H 0.47722 0.07443 0.72959 0.0
H449 H 0.51527 0.02925 0.74447 0.0
H450 H 0.41908 0.98378 0.80428 0.0
H451 H 0.38071 0.02897 0.78934 0.0
H452 H 0.47116 0.94658 0.79751 0.0
H453 H 0.56375 0.01896 0.77047 0.0
H454 H 0.61357 0.97751 0.76352 0.0
H455 H 0.64006 0.91978 0.7757 0.0
C456 C 0.55684 0.60569 0.77307 0.0
C457 C 0.56011 0.62045 0.79644 0.0
C458 C 0.5288 0.55601 0.76698 0.0
C459 C 0.50336 0.52004 0.78418 0.0
C460 C 0.50855 0.53471 0.80761 0.0
C461 C 0.53633 0.5843 0.81367 0.0
C462 C 0.47253 0.46686 0.77862 0.0
C463 C 0.45252 0.44946 0.75753 0.0
C464 C 0.42693 0.39624 0.75194 0.0
C465 C 0.43471 0.38166 0.73 0.0
C466 C 0.41829 0.33221 0.72545 0.0
C467 C 0.39241 0.29635 0.74248 0.0
H468 H 0.39019 0.37007 0.78527 0.0
C469 C 0.3805 0.31022 0.76364 0.0
C470 C 0.39791 0.35996 0.76842 0.0
H471 H 0.36117 0.28317 0.77714 0.0
H472 H 0.57484 0.6326 0.75937 0.0
H473 H 0.52744 0.54618 0.74882 0.0
H474 H 0.49011 0.50779 0.82126 0.0
H475 H 0.53822 0.59433 0.83187 0.0
H476 H 0.46655 0.441 0.79254 0.0
H477 H 0.45848 0.47466 0.74333 0.0
H478 H 0.45651 0.40886 0.71695 0.0
H479 H 0.42824 0.32225 0.70909 0.0
C480 C 0.04418 0.4526 0.11859 0.0
C481 C 0.08177 0.47334 0.13523 0.0
C482 C 0.0188 0.47669 0.11236 0.0
C483 C 0.03024 0.52161 0.12291 0.0
C484 C 0.06632 0.54113 0.14025 0.0
C485 C 0.09232 0.5176 0.14614 0.0
C486 C 0.00414 0.54811 0.11671 0.0
C487 C -0.00993 0.5498 0.09473 0.0
C488 C 0.96093 0.57318 0.08802 0.0
C489 C 0.9376 0.56143 0.06622 0.0
C490 C 0.90506 0.57745 0.0602 0.0
C491 C 0.89513 0.60562 0.07592 0.0
H492 H 0.97269 0.61676 0.11947 0.0
C493 C 0.92129 0.62063 0.09697 0.0
C494 C 0.95403 0.60483 0.10293 0.0
H495 H 0.91496 0.64291 0.10933 0.0
H496 H 0.03534 0.41854 0.1099 0.0
H497 H -0.0099 0.45998 0.09941 0.0
H498 H 0.07523 0.5753 0.14885 0.0
H499 H 0.12088 0.53423 0.15917 0.0
H500 H -0.00257 0.56703 0.13075 0.0
H501 H -0.0015 0.53126 0.08105 0.0
H502 H 0.94277 0.53785 0.05418 0.0
H503 H 0.88571 0.56538 0.04377 0.0
C504 C 0.3852 0.9437 0.44059 0.0
C505 C 0.37136 0.92818 0.46373 0.0
C506 C 0.4345 0.96779 0.43404 0.0
C507 C 0.47103 0.97686 0.45054 0.0
C508 C 0.4573 0.9632 0.47384 0.0
C509 C 0.40802 0.93885 0.48036 0.0
C510 C 0.52378 0.00166 0.44434 0.0
C511 C 0.54049 0.00095 0.42278 0.0
C512 C 0.59334 0.02861 0.41675 0.0
C513 C 0.60735 0.04797 0.3942 0.0
C514 C 0.65666 0.07955 0.38882 0.0
C515 C 0.69294 0.09188 0.40588 0.0
H516 H 0.62056 0.02158 0.45046 0.0
C517 C 0.67918 0.06895 0.42781 0.0
C518 C 0.62989 0.03763 0.43321 0.0
H519 H 0.7062 0.07714 0.4413 0.0
H520 H 0.35792 0.93633 0.42736 0.0
H521 H 0.44366 0.97942 0.4161 0.0
H522 H 0.48474 0.97044 0.48697 0.0
H523 H 0.39868 0.92762 0.49836 0.0
H524 H 0.54968 0.02106 0.45827 0.0
H525 H 0.51486 0.98194 0.40872 0.0
H526 H 0.57992 0.04081 0.38106 0.0
H527 H 0.66602 0.09627 0.37169 0.0
C528 C 0.23251 0.16584 0.88684 0.0
C529 C 0.19942 0.14679 0.86811 0.0
C530 C 0.21814 0.17573 0.90832 0.0
C531 C 0.17024 0.16721 0.91159 0.0
C532 C 0.13724 0.14808 0.89285 0.0
C533 C 0.1516 0.13809 0.8714 0.0
C534 C 0.15257 0.17605 0.93428 0.0
C535 C 0.18235 0.20477 0.95151 0.0
C536 C 0.16501 0.21356 0.9743 0.0
C537 C 0.19842 0.23262 0.99286 0.0
C538 C 0.18472 0.24294 0.01438 0.0
C539 C 0.13716 0.23481 0.01792 0.0
H540 H 0.09053 0.19187 0.96395 0.0
C541 C 0.10351 0.21554 0.99942 0.0
C542 C 0.11723 0.20518 0.97784 0.0
H543 H 0.06684 0.20963 1.00139 0.0
H544 H 0.26932 0.17199 0.8851 0.0
H545 H 0.24452 0.18887 0.92234 0.0
H546 H 0.10009 0.14089 0.89477 0.0
H547 H 0.12525 0.12383 0.85731 0.0
H548 H 0.11323 0.15809 0.9366 0.0
H549 H 0.22167 0.22282 0.94915 0.0
H550 H 0.23546 0.23956 0.99075 0.0
H551 H 0.21146 0.25714 0.0283 0.0
C552 C 0.88476 0.2679 0.32302 0.0
C553 C 0.88918 0.24153 0.34172 0.0
C554 C 0.91147 0.27538 0.30253 0.0
C555 C 0.94382 0.25715 0.30027 0.0
C556 C 0.94682 0.22905 0.31853 0.0
C557 C 0.91992 0.22145 0.33912 0.0
C558 C 0.97513 0.26771 0.27918 0.0
C559 C -0.00775 0.31018 0.2673 0.0
C560 C 0.02543 0.32465 0.24678 0.0
C561 C 0.05351 0.37484 0.24155 0.0
C562 C 0.08373 0.39091 0.22201 0.0
C563 C 0.08644 0.35716 0.20687 0.0
H564 H 0.00624 0.25142 0.23505 0.0
C565 C 0.05836 0.30669 0.212 0.0
C566 C 0.02815 0.29051 0.23184 0.0
H567 H 0.05947 0.27973 0.20065 0.0
H568 H 0.86079 0.28311 0.32415 0.0
H569 H 0.90659 0.29552 0.2885 0.0
H570 H 0.971 0.21407 0.31713 0.0
H571 H 0.92389 0.20059 0.35309 0.0
H572 H -0.01305 0.24185 0.27446 0.0
H573 H 0.98383 0.33761 0.27373 0.0
H574 H 0.05199 0.40197 0.25264 0.0
H575 H 0.10446 0.43006 0.21866 0.0
C576 C 0.82065 0.95728 0.67188 0.0
C577 C 0.7727 0.93045 0.68076 0.0
C578 C 0.8297 0.97935 0.64983 0.0
C579 C 0.79093 0.97549 0.63609 0.0
C580 C 0.74309 0.94863 0.645 0.0
C581 C 0.73406 0.92648 0.66699 0.0
C582 C 0.79806 -0.00278 0.6122 0.0
C583 C 0.84175 0.03104 0.60321 0.0
C584 C 0.84851 0.05257 0.5793 0.0
C585 C 0.89246 0.09598 0.57413 0.0
C586 C 0.9009 0.11732 0.55196 0.0
C587 C 0.86561 0.0957 0.53427 0.0
H588 H 0.77964 -0.0037 0.56426 0.0
C589 C 0.82175 0.05203 0.53931 0.0
C590 C 0.81335 0.03055 0.56147 0.0
H591 H 0.79416 0.03387 0.52597 0.0
H592 H 0.8514 0.96145 0.68202 0.0
H593 H 0.86707 -0.00142 0.64366 0.0
H594 H 0.71233 0.94448 0.63485 0.0
H595 H 0.69653 0.90537 0.67297 0.0
H596 H 0.76519 0.98564 0.60198 0.0
H597 H 0.87426 0.04537 0.61396 0.0
H598 H 0.92041 0.11375 0.58737 0.0
H599 H 0.9349 0.1512 0.5488 0.0
C600 C 0.64717 0.76243 0.89365 0.0
C601 C 0.6719 0.76879 0.87236 0.0
C602 C 0.66489 0.75346 0.91429 0.0
C603 C 0.70796 0.75068 0.91425 0.0
C604 C 0.73412 0.75958 0.89327 0.0
C605 C 0.71611 0.76812 0.87249 0.0
C606 C 0.72553 0.73755 0.93573 0.0
C607 C 0.69421 0.70549 0.9516 0.0
C608 C 0.70929 0.6876 0.97226 0.0
C609 C 0.67708 0.64006 0.98049 0.0
C610 C 0.68878 0.62156 1.00002 0.0
C611 C 0.73263 0.65055 0.01227 0.0
H612 H 0.77858 0.7541 0.97878 0.0
C613 C 0.76472 0.69863 0.00436 0.0
C614 C 0.75337 0.7169 0.98439 0.0
H615 H 0.79875 0.72188 0.01344 0.0
H616 H 0.61323 0.76306 0.89437 0.0
H617 H 0.64453 0.74838 0.93025 0.0
H618 H 0.7677 0.75821 0.89277 0.0
H619 H 0.73627 0.77309 0.85647 0.0
H620 H 0.76451 0.75117 0.93747 0.0
H621 H 0.65512 0.68828 0.9484 0.0
H622 H 0.64272 0.61681 0.97163 0.0
H623 H 0.66298 0.58452 0.00568 0.0
C624 C 0.03643 0.86056 0.33926 0.0
C625 C 0.06202 0.83794 0.34786 0.0
C626 C 0.0118 0.84623 0.31786 0.0
C627 C 0.01228 0.80895 0.30445 0.0
C628 C 0.0373 0.78599 0.31318 0.0
C629 C 0.06206 0.80041 0.33451 0.0
C630 C -0.01403 0.79186 0.28174 0.0
C631 C 0.97506 0.81977 0.26791 0.0
C632 C 0.94952 0.80297 0.245 0.0
C633 C 0.95515 0.83838 0.22847 0.0
C634 C 0.93133 0.82436 0.2069 0.0
C635 C 0.90073 0.77441 0.20135 0.0
H636 H 0.91191 0.72444 0.25203 0.0
C637 C 0.89467 0.73891 0.218 0.0
C638 C 0.91864 0.75294 0.23956 0.0
H639 H 0.87058 0.70015 0.21458 0.0
H640 H 0.0347 0.88887 0.34925 0.0
H641 H -0.00833 0.86383 0.3122 0.0
H642 H 0.03816 0.75701 0.30334 0.0
H643 H 0.08184 0.78254 0.34034 0.0
H644 H 0.97763 0.75573 0.27574 0.0
H645 H -0.01262 0.8575 0.27291 0.0
H646 H 0.97845 0.87717 0.23217 0.0
H647 H 0.93739 0.85277 0.19447 0.0
C648 C 0.33687 0.10099 0.65872 0.0
C649 C 0.31574 0.08372 0.68082 0.0
C650 C 0.31785 0.07141 0.63885 0.0
C651 C 0.27692 0.0237 0.64054 0.0
C652 C 0.2553 0.00687 0.66256 0.0
C653 C 0.27427 0.03648 0.68242 0.0
C654 C 0.25803 0.98919 0.62024 0.0
C655 C 0.2666 0.00354 0.59768 0.0
C656 C 0.25117 0.96887 0.57745 0.0
C657 C 0.24937 0.98631 0.55511 0.0
C658 C 0.23894 0.95633 0.53539 0.0
C659 C 0.23042 0.9081 0.53746 0.0
H660 H 0.24386 0.90549 0.59626 0.0
C661 C 0.2313 0.89028 0.55986 0.0
C662 C 0.24164 0.92023 0.57958 0.0
H663 H 0.22534 0.8535 0.56219 0.0
H664 H 0.36911 0.13698 0.65678 0.0
H665 H 0.33662 0.08559 0.62245 0.0
H666 H 0.22398 0.97024 0.6645 0.0
H667 H 0.25709 0.02176 0.69911 0.0
H668 H 0.23563 0.95036 0.62424 0.0
H669 H 0.28528 0.04248 0.59361 0.0
H670 H 0.25684 0.02364 0.55283 0.0
H671 H 0.23882 0.97148 0.51846 0.0
loop_
_geom_bond_atom_site_label_1
_geom_bond_atom_site_label_2
_geom_bond_distance
_geom_bond_site_symmetry_2
_ccdc_geom_bond_type
Dy0 O3 2.307 . S
Dy0 O5 2.395 . S
Dy0 O6 2.379 . S
Dy0 O8 2.339 . S
Dy0 O10 2.298 . S
Dy0 O14 2.275 . S
Dy0 C22 2.738 . S
Dy1 O4 2.298 . S
Dy1 O7 2.275 . S
Dy1 O9 2.307 . S
Dy1 O11 2.395 . S
Dy1 O12 2.379 . S
Dy1 O15 2.339 . S
Dy1 C31 2.738 . S
C2 O14 1.254 . S
C2 O15 1.257 . S
O3 Dy0 2.307 . S
O3 C13 1.266 . S
O4 Dy1 2.298 . S
O4 C13 1.236 . S
O5 Dy0 2.395 . S
O5 C22 1.255 . S
O6 Dy0 2.379 . S
O6 C22 1.249 . S
O7 Dy1 2.275 . S
O7 C23 1.254 . S
O8 Dy0 2.339 . S
O8 C23 1.257 . S
O9 Dy1 2.307 . S
O9 C24 1.266 . S
O10 Dy0 2.298 . S
O10 C24 1.236 . S
O11 Dy1 2.395 . S
O11 C31 1.255 . S
O12 Dy1 2.379 . S
O12 C31 1.249 . S
C13 O3 1.266 . S
C13 O4 1.236 . S
O14 Dy0 2.275 . S
O14 C2 1.254 . S
O15 Dy1 2.339 . S
O15 C2 1.257 . S
C16 C19 1.344 . S
C16 C20 1.328 . S
C16 C22 1.516 . S
C17 C18 1.304 . S
C17 C21 1.323 . S
C18 C17 1.304 . S
C18 C19 1.371 . S
C18 H32 0.930 . S
C19 C16 1.344 . S
C19 C18 1.371 . S
C19 H33 0.931 . S
C20 C16 1.328 . S
C20 C21 1.433 . S
C20 H34 0.931 . S
C21 C17 1.323 . S
C21 C20 1.433 . S
C21 H35 0.933 . S
C22 Dy0 2.738 . S
C22 O5 1.255 . S
C22 O6 1.249 . S
C22 C16 1.516 . S
C23 O7 1.254 . S
C23 O8 1.257 . S
C24 O9 1.266 . S
C24 O10 1.236 . S
C25 C28 1.344 . S
C25 C29 1.328 . S
C25 C31 1.516 . S
C26 C27 1.304 . S
C26 C30 1.323 . S
C27 C26 1.304 . S
C27 C28 1.371 . S
C27 H36 0.930 . S
C28 C25 1.344 . S
C28 C27 1.371 . S
C28 H37 0.931 . S
C29 C25 1.328 . S
C29 C30 1.433 . S
C29 H38 0.931 . S
C30 C26 1.323 . S
C30 C29 1.433 . S
C30 H39 0.933 . S
C31 Dy1 2.738 . S
C31 O11 1.255 . S
C31 O12 1.249 . S
C31 C25 1.516 . S
H32 C18 0.930 . S
H33 C19 0.931 . S
H34 C20 0.931 . S
H35 C21 0.933 . S
H36 C27 0.930 . S
H37 C28 0.931 . S
H38 C29 0.931 . S
H39 C30 0.933 . S
Dy40 O43 2.307 . S
Dy40 O45 2.395 . S
Dy40 O46 2.379 . S
Dy40 O48 2.339 . S
Dy40 O50 2.298 . S
Dy40 O54 2.275 . S
Dy40 C62 2.738 . S
Dy41 O44 2.298 . S
Dy41 O47 2.275 . S
Dy41 O49 2.307 . S
Dy41 O51 2.395 . S
Dy41 O52 2.379 . S
Dy41 O55 2.339 . S
Dy41 C71 2.738 . S
C42 O54 1.254 . S
C42 O55 1.257 . S
O43 Dy40 2.307 . S
O43 C53 1.266 . S
O44 Dy41 2.298 . S
O44 C53 1.236 . S
O45 Dy40 2.395 . S
O45 C62 1.255 . S
O46 Dy40 2.379 . S
O46 C62 1.249 . S
O47 Dy41 2.275 . S
O47 C63 1.254 . S
O48 Dy40 2.339 . S
O48 C63 1.257 . S
O49 Dy41 2.307 . S
O49 C64 1.266 . S
O50 Dy40 2.298 . S
O50 C64 1.236 . S
O51 Dy41 2.395 . S
O51 C71 1.255 . S
O52 Dy41 2.379 . S
O52 C71 1.249 . S
C53 O43 1.266 . S
C53 O44 1.236 . S
O54 Dy40 2.275 . S
O54 C42 1.254 . S
O55 Dy41 2.339 . S
O55 C42 1.257 . S
C56 C59 1.344 . S
C56 C60 1.328 . S
C56 C62 1.516 . S
C57 C58 1.304 . S
C57 C61 1.323 . S
C58 C57 1.304 . S
C58 C59 1.371 . S
C58 H72 0.930 . S
C59 C56 1.344 . S
C59 C58 1.371 . S
C59 H73 0.931 . S
C60 C56 1.328 . S
C60 C61 1.433 . S
C60 H74 0.931 . S
C61 C57 1.323 . S
C61 C60 1.433 . S
C61 H75 0.933 . S
C62 Dy40 2.738 . S
C62 O45 1.255 . S
C62 O46 1.249 . S
C62 C56 1.516 . S
C63 O47 1.254 . S
C63 O48 1.257 . S
C64 O49 1.266 . S
C64 O50 1.236 . S
C65 C68 1.344 . S
C65 C69 1.328 . S
C65 C71 1.516 . S
C66 C67 1.304 . S
C66 C70 1.323 . S
C67 C66 1.304 . S
C67 C68 1.371 . S
C67 H76 0.930 . S
C68 C65 1.344 . S
C68 C67 1.371 . S
C68 H77 0.931 . S
C69 C65 1.328 . S
C69 C70 1.433 . S
C69 H78 0.931 . S
C70 C66 1.323 . S
C70 C69 1.433 . S
C70 H79 0.933 . S
C71 Dy41 2.738 . S
C71 O51 1.255 . S
C71 O52 1.249 . S
C71 C65 1.516 . S
H72 C58 0.930 . S
H73 C59 0.931 . S
H74 C60 0.931 . S
H75 C61 0.933 . S
H76 C67 0.930 . S
H77 C68 0.931 . S
H78 C69 0.931 . S
H79 C70 0.933 . S
Dy80 O83 2.307 . S
Dy80 O85 2.395 . S
Dy80 O86 2.379 . S
Dy80 O88 2.339 . S
Dy80 O90 2.298 . S
Dy80 O94 2.275 . S
Dy80 C102 2.738 . S
Dy81 O84 2.298 . S
Dy81 O87 2.275 . S
Dy81 O89 2.307 . S
Dy81 O91 2.395 . S
Dy81 O92 2.379 . S
Dy81 O95 2.339 . S
Dy81 C111 2.738 . S
C82 O94 1.254 . S
C82 O95 1.257 . S
O83 Dy80 2.307 . S
O83 C93 1.266 . S
O84 Dy81 2.298 . S
O84 C93 1.236 . S
O85 Dy80 2.395 . S
O85 C102 1.255 . S
O86 Dy80 2.379 . S
O86 C102 1.249 . S
O87 Dy81 2.275 . S
O87 C103 1.254 . S
O88 Dy80 2.339 . S
O88 C103 1.257 . S
O89 Dy81 2.307 . S
O89 C104 1.266 . S
O90 Dy80 2.298 . S
O90 C104 1.236 . S
O91 Dy81 2.395 . S
O91 C111 1.255 . S
O92 Dy81 2.379 . S
O92 C111 1.249 . S
C93 O83 1.266 . S
C93 O84 1.236 . S
O94 Dy80 2.275 . S
O94 C82 1.254 . S
O95 Dy81 2.339 . S
O95 C82 1.257 . S
C96 C99 1.344 . S
C96 C100 1.328 . S
C96 C102 1.516 . S
C97 C98 1.304 . S
C97 C101 1.323 . S
C98 C97 1.304 . S
C98 C99 1.371 . S
C98 H112 0.930 . S
C99 C96 1.344 . S
C99 C98 1.371 . S
C99 H113 0.931 . S
C100 C96 1.328 . S
C100 C101 1.433 . S
C100 H114 0.931 . S
C101 C97 1.323 . S
C101 C100 1.433 . S
C101 H115 0.933 . S
C102 Dy80 2.738 . S
C102 O85 1.255 . S
C102 O86 1.249 . S
C102 C96 1.516 . S
C103 O87 1.254 . S
C103 O88 1.257 . S
C104 O89 1.266 . S
C104 O90 1.236 . S
C105 C108 1.344 . S
C105 C109 1.328 . S
C105 C111 1.516 . S
C106 C107 1.304 . S
C106 C110 1.323 . S
C107 C106 1.304 . S
C107 C108 1.371 . S
C107 H116 0.930 . S
C108 C105 1.344 . S
C108 C107 1.371 . S
C108 H117 0.931 . S
C109 C105 1.328 . S
C109 C110 1.433 . S
C109 H118 0.931 . S
C110 C106 1.323 . S
C110 C109 1.433 . S
C110 H119 0.933 . S
C111 Dy81 2.738 . S
C111 O91 1.255 . S
C111 O92 1.249 . S
C111 C105 1.516 . S
H112 C98 0.930 . S
H113 C99 0.931 . S
H114 C100 0.931 . S
H115 C101 0.933 . S
H116 C107 0.930 . S
H117 C108 0.931 . S
H118 C109 0.931 . S
H119 C110 0.933 . S
Dy120 O123 2.307 . S
Dy120 O125 2.395 . S
Dy120 O126 2.379 . S
Dy120 O128 2.339 . S
Dy120 O130 2.298 . S
Dy120 O134 2.275 . S
Dy120 C142 2.738 . S
Dy121 O124 2.298 . S
Dy121 O127 2.275 . S
Dy121 O129 2.307 . S
Dy121 O131 2.395 . S
Dy121 O132 2.379 . S
Dy121 O135 2.339 . S
Dy121 C151 2.738 . S
C122 O134 1.254 . S
C122 O135 1.257 . S
O123 Dy120 2.307 . S
O123 C133 1.266 . S
O124 Dy121 2.298 . S
O124 C133 1.236 . S
O125 Dy120 2.395 . S
O125 C142 1.255 . S
O126 Dy120 2.379 . S
O126 C142 1.249 . S
O127 Dy121 2.275 . S
O127 C143 1.254 . S
O128 Dy120 2.339 . S
O128 C143 1.257 . S
O129 Dy121 2.307 . S
O129 C144 1.266 . S
O130 Dy120 2.298 . S
O130 C144 1.236 . S
O131 Dy121 2.395 . S
O131 C151 1.255 . S
O132 Dy121 2.379 . S
O132 C151 1.249 . S
C133 O123 1.266 . S
C133 O124 1.236 . S
O134 Dy120 2.275 . S
O134 C122 1.254 . S
O135 Dy121 2.339 . S
O135 C122 1.257 . S
C136 C139 1.344 . S
C136 C140 1.328 . S
C136 C142 1.516 . S
C137 C138 1.304 . S
C137 C141 1.323 . S
C138 C137 1.304 . S
C138 C139 1.371 . S
C138 H152 0.930 . S
C139 C136 1.344 . S
C139 C138 1.371 . S
C139 H153 0.931 . S
C140 C136 1.328 . S
C140 C141 1.433 . S
C140 H154 0.931 . S
C141 C137 1.323 . S
C141 C140 1.433 . S
C141 H155 0.933 . S
C142 Dy120 2.738 . S
C142 O125 1.255 . S
C142 O126 1.249 . S
C142 C136 1.516 . S
C143 O127 1.254 . S
C143 O128 1.257 . S
C144 O129 1.266 . S
C144 O130 1.236 . S
C145 C148 1.344 . S
C145 C149 1.328 . S
C145 C151 1.516 1_556 S
C146 C147 1.304 . S
C146 C150 1.323 . S
C147 C146 1.304 . S
C147 C148 1.371 . S
C147 H156 0.930 . S
C148 C145 1.344 . S
C148 C147 1.371 . S
C148 H157 0.931 . S
C149 C145 1.328 . S
C149 C150 1.433 . S
C149 H158 0.931 . S
C150 C146 1.323 . S
C150 C149 1.433 . S
C150 H159 0.933 . S
C151 Dy121 2.738 . S
C151 O131 1.255 . S
C151 O132 1.249 . S
C151 C145 1.516 1_554 S
H152 C138 0.930 . S
H153 C139 0.931 . S
H154 C140 0.931 . S
H155 C141 0.933 . S
H156 C147 0.930 . S
H157 C148 0.931 . S
H158 C149 0.931 . S
H159 C150 0.933 . S
Dy160 O163 2.307 . S
Dy160 O165 2.395 . S
Dy160 O166 2.379 . S
Dy160 O168 2.339 . S
Dy160 O170 2.298 . S
Dy160 O174 2.275 . S
Dy160 C182 2.738 . S
Dy161 O164 2.298 . S
Dy161 O167 2.275 . S
Dy161 O169 2.307 . S
Dy161 O171 2.395 . S
Dy161 O172 2.379 . S
Dy161 O175 2.339 . S
Dy161 C191 2.738 . S
C162 O174 1.254 . S
C162 O175 1.257 . S
O163 Dy160 2.307 . S
O163 C173 1.266 . S
O164 Dy161 2.298 . S
O164 C173 1.236 . S
O165 Dy160 2.395 . S
O165 C182 1.255 . S
O166 Dy160 2.379 . S
O166 C182 1.249 . S
O167 Dy161 2.275 . S
O167 C183 1.254 . S
O168 Dy160 2.339 . S
O168 C183 1.257 . S
O169 Dy161 2.307 . S
O169 C184 1.266 . S
O170 Dy160 2.298 . S
O170 C184 1.236 . S
O171 Dy161 2.395 . S
O171 C191 1.255 . S
O172 Dy161 2.379 . S
O172 C191 1.249 . S
C173 O163 1.266 . S
C173 O164 1.236 . S
O174 Dy160 2.275 . S
O174 C162 1.254 . S
O175 Dy161 2.339 . S
O175 C162 1.257 . S
C176 C179 1.344 . S
C176 C180 1.328 . S
C176 C182 1.516 . S
C177 C178 1.304 . S
C177 C181 1.323 . S
C178 C177 1.304 . S
C178 C179 1.371 . S
C178 H192 0.930 . S
C179 C176 1.344 . S
C179 C178 1.371 . S
C179 H193 0.931 . S
C180 C176 1.328 . S
C180 C181 1.433 . S
C180 H194 0.931 . S
C181 C177 1.323 . S
C181 C180 1.433 . S
C181 H195 0.933 . S
C182 Dy160 2.738 . S
C182 O165 1.255 . S
C182 O166 1.249 . S
C182 C176 1.516 . S
C183 O167 1.254 . S
C183 O168 1.257 . S
C184 O169 1.266 . S
C184 O170 1.236 . S
C185 C188 1.344 . S
C185 C189 1.328 . S
C185 C191 1.516 . S
C186 C187 1.304 . S
C186 C190 1.323 . S
C187 C186 1.304 . S
C187 C188 1.371 . S
C187 H196 0.930 . S
C188 C185 1.344 . S
C188 C187 1.371 . S
C188 H197 0.931 . S
C189 C185 1.328 . S
C189 C190 1.433 . S
C189 H198 0.931 . S
C190 C186 1.323 . S
C190 C189 1.433 . S
C190 H199 0.933 . S
C191 Dy161 2.738 . S
C191 O171 1.255 . S
C191 O172 1.249 . S
C191 C185 1.516 . S
H192 C178 0.930 . S
H193 C179 0.931 . S
H194 C180 0.931 . S
H195 C181 0.933 . S
H196 C187 0.930 . S
H197 C188 0.931 . S
H198 C189 0.931 . S
H199 C190 0.933 . S
Dy200 O203 2.307 . S
Dy200 O205 2.395 . S
Dy200 O206 2.379 . S
Dy200 O208 2.339 . S
Dy200 O210 2.298 . S
Dy200 O214 2.275 . S
Dy200 C222 2.738 . S
Dy201 O204 2.298 . S
Dy201 O207 2.275 . S
Dy201 O209 2.307 . S
Dy201 O211 2.395 . S
Dy201 O212 2.379 . S
Dy201 O215 2.339 . S
Dy201 C231 2.738 . S
C202 O214 1.254 . S
C202 O215 1.257 . S
O203 Dy200 2.307 . S
O203 C213 1.266 . S
O204 Dy201 2.298 . S
O204 C213 1.236 . S
O205 Dy200 2.395 . S
O205 C222 1.255 . S
O206 Dy200 2.379 . S
O206 C222 1.249 . S
O207 Dy201 2.275 . S
O207 C223 1.254 . S
O208 Dy200 2.339 . S
O208 C223 1.257 . S
O209 Dy201 2.307 . S
O209 C224 1.266 . S
O210 Dy200 2.298 . S
O210 C224 1.236 . S
O211 Dy201 2.395 . S
O211 C231 1.255 . S
O212 Dy201 2.379 . S
O212 C231 1.249 . S
C213 O203 1.266 . S
C213 O204 1.236 . S
O214 Dy200 2.275 . S
O214 C202 1.254 . S
O215 Dy201 2.339 . S
O215 C202 1.257 . S
C216 C219 1.344 . S
C216 C220 1.328 . S
C216 C222 1.516 . S
C217 C218 1.304 . S
C217 C221 1.323 . S
C218 C217 1.304 . S
C218 C219 1.371 . S
C218 H232 0.930 . S
C219 C216 1.344 . S
C219 C218 1.371 . S
C219 H233 0.931 . S
C220 C216 1.328 . S
C220 C221 1.433 . S
C220 H234 0.931 . S
C221 C217 1.323 . S
C221 C220 1.433 . S
C221 H235 0.933 . S
C222 Dy200 2.738 . S
C222 O205 1.255 . S
C222 O206 1.249 . S
C222 C216 1.516 . S
C223 O207 1.254 . S
C223 O208 1.257 . S
C224 O209 1.266 . S
C224 O210 1.236 . S
C225 C228 1.344 . S
C225 C229 1.328 . S
C225 C231 1.516 . S
C226 C227 1.304 . S
C226 C230 1.323 . S
C227 C226 1.304 . S
C227 C228 1.371 . S
C227 H236 0.930 . S
C228 C225 1.344 . S
C228 C227 1.371 . S
C228 H237 0.931 . S
C229 C225 1.328 . S
C229 C230 1.433 . S
C229 H238 0.931 . S
C230 C226 1.323 . S
C230 C229 1.433 . S
C230 H239 0.933 . S
C231 Dy201 2.738 . S
C231 O211 1.255 . S
C231 O212 1.249 . S
C231 C225 1.516 . S
H232 C218 0.930 . S
H233 C219 0.931 . S
H234 C220 0.931 . S
H235 C221 0.933 . S
H236 C227 0.930 . S
H237 C228 0.931 . S
H238 C229 0.931 . S
H239 C230 0.933 . S
C240 C241 1.386 . S
C240 C242 1.383 . S
C240 H256 0.951 . S
C241 C240 1.386 . S
C241 C245 1.383 . S
C242 C240 1.383 . S
C242 C243 1.402 . S
C242 H257 0.951 . S
C243 C242 1.402 . S
C243 C244 1.375 . S
C243 C246 1.481 . S
C244 C243 1.375 . S
C244 C245 1.367 . S
C244 H258 0.951 . S
C245 C241 1.383 . S
C245 C244 1.367 . S
C245 H259 0.950 . S
C246 C243 1.481 . S
C246 C247 1.297 . S
C246 H260 0.950 . S
C247 C246 1.297 . S
C247 C248 1.479 . S
C247 H261 0.950 . S
C248 C247 1.479 . S
C248 C249 1.375 . S
C248 C254 1.404 . S
C249 C248 1.375 . S
C249 C250 1.369 . S
C249 H262 0.950 . S
C250 C249 1.369 . S
C250 C251 1.392 . S
C250 H263 0.951 . S
C251 C250 1.392 . S
C251 C253 1.384 . S
H252 C254 0.949 . S
C253 C251 1.384 . S
C253 C254 1.385 . S
C253 H255 0.950 . S
C254 C248 1.404 . S
C254 H252 0.949 . S
C254 C253 1.385 . S
H255 C253 0.950 . S
H256 C240 0.951 . S
H257 C242 0.951 . S
H258 C244 0.951 . S
H259 C245 0.950 . S
H260 C246 0.950 . S
H261 C247 0.950 . S
H262 C249 0.950 . S
H263 C250 0.951 . S
C264 C265 1.386 . S
C264 C266 1.383 . S
C264 H280 0.951 . S
C265 C264 1.386 . S
C265 C269 1.383 . S
C266 C264 1.383 . S
C266 C267 1.402 . S
C266 H281 0.951 . S
C267 C266 1.402 . S
C267 C268 1.375 . S
C267 C270 1.481 . S
C268 C267 1.375 . S
C268 C269 1.367 . S
C268 H282 0.951 . S
C269 C265 1.383 . S
C269 C268 1.367 . S
C269 H283 0.950 . S
C270 C267 1.481 . S
C270 C271 1.297 . S
C270 H284 0.950 . S
C271 C270 1.297 . S
C271 C272 1.479 . S
C271 H285 0.950 . S
C272 C271 1.479 . S
C272 C273 1.375 . S
C272 C278 1.404 . S
C273 C272 1.375 . S
C273 C274 1.369 . S
C273 H286 0.950 . S
C274 C273 1.369 . S
C274 C275 1.392 . S
C274 H287 0.951 . S
C275 C274 1.392 . S
C275 C277 1.384 . S
H276 C278 0.949 . S
C277 C275 1.384 . S
C277 C278 1.385 . S
C277 H279 0.950 . S
C278 C272 1.404 . S
C278 H276 0.949 . S
C278 C277 1.385 . S
H279 C277 0.950 . S
H280 C264 0.951 . S
H281 C266 0.951 . S
H282 C268 0.951 . S
H283 C269 0.950 . S
H284 C270 0.950 . S
H285 C271 0.950 . S
H286 C273 0.950 . S
H287 C274 0.951 . S
C288 C289 1.386 . S
C288 C290 1.383 . S
C288 H304 0.951 . S
C289 C288 1.386 . S
C289 C293 1.383 . S
C290 C288 1.383 . S
C290 C291 1.402 . S
C290 H305 0.951 . S
C291 C290 1.402 . S
C291 C292 1.375 . S
C291 C294 1.481 . S
C292 C291 1.375 . S
C292 C293 1.367 . S
C292 H306 0.951 . S
C293 C289 1.383 . S
C293 C292 1.367 . S
C293 H307 0.950 . S
C294 C291 1.481 . S
C294 C295 1.297 . S
C294 H308 0.950 . S
C295 C294 1.297 . S
C295 C296 1.479 1_554 S
C295 H309 0.950 . S
C296 C295 1.479 1_556 S
C296 C297 1.375 . S
C296 C302 1.404 . S
C297 C296 1.375 . S
C297 C298 1.369 . S
C297 H310 0.950 . S
C298 C297 1.369 . S
C298 C299 1.392 . S
C298 H311 0.951 . S
C299 C298 1.392 . S
C299 C301 1.384 . S
H300 C302 0.949 . S
C301 C299 1.384 . S
C301 C302 1.385 . S
C301 H303 0.950 . S
C302 C296 1.404 . S
C302 H300 0.949 . S
C302 C301 1.385 . S
H303 C301 0.950 . S
H304 C288 0.951 . S
H305 C290 0.951 . S
H306 C292 0.951 . S
H307 C293 0.950 . S
H308 C294 0.950 . S
H309 C295 0.950 . S
H310 C297 0.950 . S
H311 C298 0.951 . S
C312 C313 1.386 . S
C312 C314 1.383 . S
C312 H328 0.951 . S
C313 C312 1.386 . S
C313 C317 1.383 . S
C314 C312 1.383 . S
C314 C315 1.402 . S
C314 H329 0.951 . S
C315 C314 1.402 . S
C315 C316 1.375 . S
C315 C318 1.481 . S
C316 C315 1.375 . S
C316 C317 1.367 . S
C316 H330 0.951 . S
C317 C313 1.383 . S
C317 C316 1.367 . S
C317 H331 0.950 . S
C318 C315 1.481 . S
C318 C319 1.297 . S
C318 H332 0.950 . S
C319 C318 1.297 . S
C319 C320 1.479 . S
C319 H333 0.950 . S
C320 C319 1.479 . S
C320 C321 1.375 . S
C320 C326 1.404 . S
C321 C320 1.375 . S
C321 C322 1.369 . S
C321 H334 0.950 . S
C322 C321 1.369 . S
C322 C323 1.392 . S
C322 H335 0.951 . S
C323 C322 1.392 . S
C323 C325 1.384 . S
H324 C326 0.949 . S
C325 C323 1.384 . S
C325 C326 1.385 . S
C325 H327 0.950 . S
C326 C320 1.404 . S
C326 H324 0.949 . S
C326 C325 1.385 . S
H327 C325 0.950 . S
H328 C312 0.951 . S
H329 C314 0.951 . S
H330 C316 0.951 . S
H331 C317 0.950 . S
H332 C318 0.950 . S
H333 C319 0.950 . S
H334 C321 0.950 . S
H335 C322 0.951 . S
C336 C337 1.386 . S
C336 C338 1.383 . S
C336 H352 0.951 . S
C337 C336 1.386 . S
C337 C341 1.383 . S
C338 C336 1.383 . S
C338 C339 1.402 . S
C338 H353 0.951 . S
C339 C338 1.402 . S
C339 C340 1.375 . S
C339 C342 1.481 . S
C340 C339 1.375 . S
C340 C341 1.367 . S
C340 H354 0.951 . S
C341 C337 1.383 . S
C341 C340 1.367 . S
C341 H355 0.950 . S
C342 C339 1.481 . S
C342 C343 1.297 . S
C342 H356 0.950 . S
C343 C342 1.297 . S
C343 C344 1.479 . S
C343 H357 0.950 . S
C344 C343 1.479 . S
C344 C345 1.375 . S
C344 C350 1.404 . S
C345 C344 1.375 . S
C345 C346 1.369 . S
C345 H358 0.950 . S
C346 C345 1.369 . S
C346 C347 1.392 . S
C346 H359 0.951 . S
C347 C346 1.392 . S
C347 C349 1.384 . S
H348 C350 0.949 . S
C349 C347 1.384 . S
C349 C350 1.385 . S
C349 H351 0.950 . S
C350 C344 1.404 . S
C350 H348 0.949 . S
C350 C349 1.385 . S
H351 C349 0.950 . S
H352 C336 0.951 . S
H353 C338 0.951 . S
H354 C340 0.951 . S
H355 C341 0.950 . S
H356 C342 0.950 . S
H357 C343 0.950 . S
H358 C345 0.950 . S
H359 C346 0.951 . S
C360 C361 1.386 . S
C360 C362 1.383 . S
C360 H376 0.951 . S
C361 C360 1.386 . S
C361 C365 1.383 . S
C362 C360 1.383 . S
C362 C363 1.402 . S
C362 H377 0.951 . S
C363 C362 1.402 . S
C363 C364 1.375 . S
C363 C366 1.481 . S
C364 C363 1.375 . S
C364 C365 1.367 . S
C364 H378 0.951 . S
C365 C361 1.383 . S
C365 C364 1.367 . S
C365 H379 0.950 . S
C366 C363 1.481 . S
C366 C367 1.297 . S
C366 H380 0.950 . S
C367 C366 1.297 . S
C367 C368 1.479 . S
C367 H381 0.950 . S
C368 C367 1.479 . S
C368 C369 1.375 . S
C368 C374 1.404 . S
C369 C368 1.375 . S
C369 C370 1.369 . S
C369 H382 0.950 . S
C370 C369 1.369 . S
C370 C371 1.392 . S
C370 H383 0.951 . S
C371 C370 1.392 . S
C371 C373 1.384 . S
H372 C374 0.949 . S
C373 C371 1.384 . S
C373 C374 1.385 . S
C373 H375 0.950 . S
C374 C368 1.404 . S
C374 H372 0.949 . S
C374 C373 1.385 . S
H375 C373 0.950 . S
H376 C360 0.951 . S
H377 C362 0.951 . S
H378 C364 0.951 . S
H379 C365 0.950 . S
H380 C366 0.950 . S
H381 C367 0.950 . S
H382 C369 0.950 . S
H383 C370 0.951 . S
C384 C385 1.386 . S
C384 C386 1.383 . S
C384 H400 0.951 . S
C385 C384 1.386 . S
C385 C389 1.383 . S
C386 C384 1.383 . S
C386 C387 1.402 . S
C386 H401 0.951 . S
C387 C386 1.402 . S
C387 C388 1.375 . S
C387 C390 1.481 . S
C388 C387 1.375 . S
C388 C389 1.367 . S
C388 H402 0.951 . S
C389 C385 1.383 . S
C389 C388 1.367 . S
C389 H403 0.950 . S
C390 C387 1.481 . S
C390 C391 1.297 . S
C390 H404 0.950 . S
C391 C390 1.297 . S
C391 C392 1.479 . S
C391 H405 0.950 . S
C392 C391 1.479 . S
C392 C393 1.375 . S
C392 C398 1.404 . S
C393 C392 1.375 . S
C393 C394 1.369 . S
C393 H406 0.950 . S
C394 C393 1.369 . S
C394 C395 1.392 . S
C394 H407 0.951 . S
C395 C394 1.392 . S
C395 C397 1.384 . S
H396 C398 0.949 . S
C397 C395 1.384 . S
C397 C398 1.385 . S
C397 H399 0.950 . S
C398 C392 1.404 . S
C398 H396 0.949 . S
C398 C397 1.385 . S
H399 C397 0.950 . S
H400 C384 0.951 . S
H401 C386 0.951 . S
H402 C388 0.951 . S
H403 C389 0.950 . S
H404 C390 0.950 . S
H405 C391 0.950 . S
H406 C393 0.950 . S
H407 C394 0.951 . S
C408 C409 1.386 . S
C408 C410 1.383 . S
C408 H424 0.951 . S
C409 C408 1.386 . S
C409 C413 1.383 . S
C410 C408 1.383 . S
C410 C411 1.402 . S
C410 H425 0.951 . S
C411 C410 1.402 . S
C411 C412 1.375 . S
C411 C414 1.481 . S
C412 C411 1.375 . S
C412 C413 1.367 . S
C412 H426 0.951 . S
C413 C409 1.383 . S
C413 C412 1.367 . S
C413 H427 0.950 . S
C414 C411 1.481 . S
C414 C415 1.297 . S
C414 H428 0.950 . S
C415 C414 1.297 . S
C415 C416 1.479 . S
C415 H429 0.950 . S
C416 C415 1.479 . S
C416 C417 1.375 . S
C416 C422 1.404 . S
C417 C416 1.375 . S
C417 C418 1.369 . S
C417 H430 0.950 . S
C418 C417 1.369 . S
C418 C419 1.392 1_455 S
C418 H431 0.951 . S
C419 C418 1.392 1_655 S
C419 C421 1.384 . S
H420 C422 0.949 . S
C421 C419 1.384 . S
C421 C422 1.385 1_655 S
C421 H423 0.950 . S
C422 C416 1.404 . S
C422 H420 0.949 . S
C422 C421 1.385 1_455 S
H423 C421 0.950 . S
H424 C408 0.951 . S
H425 C410 0.951 . S
H426 C412 0.951 . S
H427 C413 0.950 . S
H428 C414 0.950 . S
H429 C415 0.950 . S
H430 C417 0.950 . S
H431 C418 0.951 . S
C432 C433 1.386 . S
C432 C434 1.383 . S
C432 H448 0.951 . S
C433 C432 1.386 . S
C433 C437 1.383 1_545 S
C434 C432 1.383 . S
C434 C435 1.402 1_545 S
C434 H449 0.951 . S
C435 C434 1.402 1_565 S
C435 C436 1.375 . S
C435 C438 1.481 . S
C436 C435 1.375 . S
C436 C437 1.367 . S
C436 H450 0.951 . S
C437 C433 1.383 1_565 S
C437 C436 1.367 . S
C437 H451 0.950 . S
C438 C435 1.481 . S
C438 C439 1.297 . S
C438 H452 0.950 . S
C439 C438 1.297 . S
C439 C440 1.479 . S
C439 H453 0.950 . S
C440 C439 1.479 . S
C440 C441 1.375 . S
C440 C446 1.404 . S
C441 C440 1.375 . S
C441 C442 1.369 . S
C441 H454 0.950 . S
C442 C441 1.369 . S
C442 C443 1.392 . S
C442 H455 0.951 . S
C443 C442 1.392 . S
C443 C445 1.384 . S
H444 C446 0.949 . S
C445 C443 1.384 . S
C445 C446 1.385 . S
C445 H447 0.950 . S
C446 C440 1.404 . S
C446 H444 0.949 . S
C446 C445 1.385 . S
H447 C445 0.950 . S
H448 C432 0.951 . S
H449 C434 0.951 . S
H450 C436 0.951 . S
H451 C437 0.950 . S
H452 C438 0.950 . S
H453 C439 0.950 . S
H454 C441 0.950 . S
H455 C442 0.951 . S
C456 C457 1.386 . S
C456 C458 1.383 . S
C456 H472 0.951 . S
C457 C456 1.386 . S
C457 C461 1.383 . S
C458 C456 1.383 . S
C458 C459 1.402 . S
C458 H473 0.951 . S
C459 C458 1.402 . S
C459 C460 1.375 . S
C459 C462 1.481 . S
C460 C459 1.375 . S
C460 C461 1.367 . S
C460 H474 0.951 . S
C461 C457 1.383 . S
C461 C460 1.367 . S
C461 H475 0.950 . S
C462 C459 1.481 . S
C462 C463 1.297 . S
C462 H476 0.950 . S
C463 C462 1.297 . S
C463 C464 1.479 . S
C463 H477 0.950 . S
C464 C463 1.479 . S
C464 C465 1.375 . S
C464 C470 1.404 . S
C465 C464 1.375 . S
C465 C466 1.369 . S
C465 H478 0.950 . S
C466 C465 1.369 . S
C466 C467 1.392 . S
C466 H479 0.951 . S
C467 C466 1.392 . S
C467 C469 1.384 . S
H468 C470 0.949 . S
C469 C467 1.384 . S
C469 C470 1.385 . S
C469 H471 0.950 . S
C470 C464 1.404 . S
C470 H468 0.949 . S
C470 C469 1.385 . S
H471 C469 0.950 . S
H472 C456 0.951 . S
H473 C458 0.951 . S
H474 C460 0.951 . S
H475 C461 0.950 . S
H476 C462 0.950 . S
H477 C463 0.950 . S
H478 C465 0.950 . S
H479 C466 0.951 . S
C480 C481 1.386 1_655 S
C480 C482 1.383 . S
C480 H496 0.951 . S
C481 C480 1.386 1_455 S
C481 C485 1.383 . S
C482 C480 1.383 . S
C482 C483 1.402 . S
C482 H497 0.951 . S
C483 C482 1.402 . S
C483 C484 1.375 1_655 S
C483 C486 1.481 . S
C484 C483 1.375 1_455 S
C484 C485 1.367 . S
C484 H498 0.951 . S
C485 C481 1.383 . S
C485 C484 1.367 . S
C485 H499 0.950 . S
C486 C483 1.481 . S
C486 C487 1.297 . S
C486 H500 0.950 . S
C487 C486 1.297 . S
C487 C488 1.479 . S
C487 H501 0.950 . S
C488 C487 1.479 . S
C488 C489 1.375 . S
C488 C494 1.404 . S
C489 C488 1.375 . S
C489 C490 1.369 . S
C489 H502 0.950 . S
C490 C489 1.369 . S
C490 C491 1.392 . S
C490 H503 0.951 . S
C491 C490 1.392 . S
C491 C493 1.384 . S
H492 C494 0.949 . S
C493 C491 1.384 . S
C493 C494 1.385 . S
C493 H495 0.950 . S
C494 C488 1.404 . S
C494 H492 0.949 . S
C494 C493 1.385 . S
H495 C493 0.950 . S
H496 C480 0.951 . S
H497 C482 0.951 . S
H498 C484 0.951 . S
H499 C485 0.950 . S
H500 C486 0.950 . S
H501 C487 0.950 . S
H502 C489 0.950 . S
H503 C490 0.951 . S
C504 C505 1.386 1_545 S
C504 C506 1.383 . S
C504 H520 0.951 1_545 S
C505 C504 1.386 1_565 S
C505 C509 1.383 . S
C506 C504 1.383 . S
C506 C507 1.402 . S
C506 H521 0.951 . S
C507 C506 1.402 . S
C507 C508 1.375 . S
C507 C510 1.481 . S
C508 C507 1.375 . S
C508 C509 1.367 1_545 S
C508 H522 0.951 . S
C509 C505 1.383 . S
C509 C508 1.367 1_565 S
C509 H523 0.950 . S
C510 C507 1.481 . S
C510 C511 1.297 . S
C510 H524 0.950 . S
C511 C510 1.297 . S
C511 C512 1.479 . S
C511 H525 0.950 . S
C512 C511 1.479 . S
C512 C513 1.375 . S
C512 C518 1.404 . S
C513 C512 1.375 . S
C513 C514 1.369 . S
C513 H526 0.950 . S
C514 C513 1.369 . S
C514 C515 1.392 . S
C514 H527 0.951 . S
C515 C514 1.392 . S
C515 C517 1.384 . S
H516 C518 0.949 . S
C517 C515 1.384 . S
C517 C518 1.385 . S
C517 H519 0.950 . S
C518 C512 1.404 . S
C518 H516 0.949 . S
C518 C517 1.385 . S
H519 C517 0.950 . S
H520 C504 0.951 1_565 S
H521 C506 0.951 . S
H522 C508 0.951 . S
H523 C509 0.950 . S
H524 C510 0.950 . S
H525 C511 0.950 . S
H526 C513 0.950 . S
H527 C514 0.951 . S
C528 C529 1.386 . S
C528 C530 1.383 . S
C528 H544 0.951 . S
C529 C528 1.386 . S
C529 C533 1.383 . S
C530 C528 1.383 . S
C530 C531 1.402 . S
C530 H545 0.951 . S
C531 C530 1.402 . S
C531 C532 1.375 . S
C531 C534 1.481 . S
C532 C531 1.375 . S
C532 C533 1.367 . S
C532 H546 0.951 . S
C533 C529 1.383 . S
C533 C532 1.367 . S
C533 H547 0.950 . S
C534 C531 1.481 . S
C534 C535 1.297 . S
C534 H548 0.950 . S
C535 C534 1.297 . S
C535 C536 1.479 . S
C535 H549 0.950 . S
C536 C535 1.479 . S
C536 C537 1.375 . S
C536 C542 1.404 . S
C537 C536 1.375 . S
C537 C538 1.369 1_556 S
C537 H550 0.950 . S
C538 C537 1.369 1_554 S
C538 C539 1.392 . S
C538 H551 0.951 . S
C539 C538 1.392 . S
C539 C541 1.384 1_554 S
H540 C542 0.949 . S
C541 C539 1.384 1_556 S
C541 C542 1.385 . S
C541 H543 0.950 . S
C542 C536 1.404 . S
C542 H540 0.949 . S
C542 C541 1.385 . S
H543 C541 0.950 . S
H544 C528 0.951 . S
H545 C530 0.951 . S
H546 C532 0.951 . S
H547 C533 0.950 . S
H548 C534 0.950 . S
H549 C535 0.950 . S
H550 C537 0.950 . S
H551 C538 0.951 . S
C552 C553 1.386 . S
C552 C554 1.383 . S
C552 H568 0.951 . S
C553 C552 1.386 . S
C553 C557 1.383 . S
C554 C552 1.383 . S
C554 C555 1.402 . S
C554 H569 0.951 1_655 S
C555 C554 1.402 . S
C555 C556 1.375 . S
C555 C558 1.481 1_655 S
C556 C555 1.375 . S
C556 C557 1.367 . S
C556 H570 0.951 . S
C557 C553 1.383 . S
C557 C556 1.367 . S
C557 H571 0.950 . S
C558 C555 1.481 1_455 S
C558 C559 1.297 . S
C558 H572 0.950 1_455 S
C559 C558 1.297 . S
C559 C560 1.479 . S
C559 H573 0.950 . S
C560 C559 1.479 . S
C560 C561 1.375 . S
C560 C566 1.404 . S
C561 C560 1.375 . S
C561 C562 1.369 . S
C561 H574 0.950 . S
C562 C561 1.369 . S
C562 C563 1.392 . S
C562 H575 0.951 . S
C563 C562 1.392 . S
C563 C565 1.384 . S
H564 C566 0.949 . S
C565 C563 1.384 . S
C565 C566 1.385 . S
C565 H567 0.950 . S
C566 C560 1.404 . S
C566 H564 0.949 . S
C566 C565 1.385 . S
H567 C565 0.950 . S
H568 C552 0.951 . S
H569 C554 0.951 1_455 S
H570 C556 0.951 . S
H571 C557 0.950 . S
H572 C558 0.950 1_655 S
H573 C559 0.950 . S
H574 C561 0.950 . S
H575 C562 0.951 . S
C576 C577 1.386 . S
C576 C578 1.383 . S
C576 H592 0.951 . S
C577 C576 1.386 . S
C577 C581 1.383 . S
C578 C576 1.383 . S
C578 C579 1.402 . S
C578 H593 0.951 . S
C579 C578 1.402 . S
C579 C580 1.375 . S
C579 C582 1.481 . S
C580 C579 1.375 . S
C580 C581 1.367 . S
C580 H594 0.951 . S
C581 C577 1.383 . S
C581 C580 1.367 . S
C581 H595 0.950 . S
C582 C579 1.481 . S
C582 C583 1.297 1_565 S
C582 H596 0.950 . S
C583 C582 1.297 1_545 S
C583 C584 1.479 . S
C583 H597 0.950 . S
C584 C583 1.479 . S
C584 C585 1.375 . S
C584 C590 1.404 . S
C585 C584 1.375 . S
C585 C586 1.369 . S
C585 H598 0.950 . S
C586 C585 1.369 . S
C586 C587 1.392 . S
C586 H599 0.951 . S
C587 C586 1.392 . S
C587 C589 1.384 . S
H588 C590 0.949 1_565 S
C589 C587 1.384 . S
C589 C590 1.385 . S
C589 H591 0.950 . S
C590 C584 1.404 . S
C590 H588 0.949 1_545 S
C590 C589 1.385 . S
H591 C589 0.950 . S
H592 C576 0.951 . S
H593 C578 0.951 . S
H594 C580 0.951 . S
H595 C581 0.950 . S
H596 C582 0.950 . S
H597 C583 0.950 . S
H598 C585 0.950 . S
H599 C586 0.951 . S
C600 C601 1.386 . S
C600 C602 1.383 . S
C600 H616 0.951 . S
C601 C600 1.386 . S
C601 C605 1.383 . S
C602 C600 1.383 . S
C602 C603 1.402 . S
C602 H617 0.951 . S
C603 C602 1.402 . S
C603 C604 1.375 . S
C603 C606 1.481 . S
C604 C603 1.375 . S
C604 C605 1.367 . S
C604 H618 0.951 . S
C605 C601 1.383 . S
C605 C604 1.367 . S
C605 H619 0.950 . S
C606 C603 1.481 . S
C606 C607 1.297 . S
C606 H620 0.950 . S
C607 C606 1.297 . S
C607 C608 1.479 . S
C607 H621 0.950 . S
C608 C607 1.479 . S
C608 C609 1.375 . S
C608 C614 1.404 . S
C609 C608 1.375 . S
C609 C610 1.369 1_556 S
C609 H622 0.950 . S
C610 C609 1.369 1_554 S
C610 C611 1.392 . S
C610 H623 0.951 . S
C611 C610 1.392 . S
C611 C613 1.384 1_554 S
H612 C614 0.949 . S
C613 C611 1.384 1_556 S
C613 C614 1.385 . S
C613 H615 0.950 1_556 S
C614 C608 1.404 . S
C614 H612 0.949 . S
C614 C613 1.385 . S
H615 C613 0.950 1_554 S
H616 C600 0.951 . S
H617 C602 0.951 . S
H618 C604 0.951 . S
H619 C605 0.950 . S
H620 C606 0.950 . S
H621 C607 0.950 . S
H622 C609 0.950 . S
H623 C610 0.951 . S
C624 C625 1.386 . S
C624 C626 1.383 . S
C624 H640 0.951 . S
C625 C624 1.386 . S
C625 C629 1.383 . S
C626 C624 1.383 . S
C626 C627 1.402 . S
C626 H641 0.951 . S
C627 C626 1.402 . S
C627 C628 1.375 . S
C627 C630 1.481 . S
C628 C627 1.375 . S
C628 C629 1.367 . S
C628 H642 0.951 . S
C629 C625 1.383 . S
C629 C628 1.367 . S
C629 H643 0.950 . S
C630 C627 1.481 . S
C630 C631 1.297 . S
C630 H644 0.950 . S
C631 C630 1.297 . S
C631 C632 1.479 1_455 S
C631 H645 0.950 . S
C632 C631 1.479 1_655 S
C632 C633 1.375 . S
C632 C638 1.404 . S
C633 C632 1.375 . S
C633 C634 1.369 . S
C633 H646 0.950 . S
C634 C633 1.369 . S
C634 C635 1.392 . S
C634 H647 0.951 . S
C635 C634 1.392 . S
C635 C637 1.384 . S
H636 C638 0.949 . S
C637 C635 1.384 . S
C637 C638 1.385 . S
C637 H639 0.950 . S
C638 C632 1.404 . S
C638 H636 0.949 . S
C638 C637 1.385 . S
H639 C637 0.950 . S
H640 C624 0.951 . S
H641 C626 0.951 . S
H642 C628 0.951 . S
H643 C629 0.950 . S
H644 C630 0.950 . S
H645 C631 0.950 . S
H646 C633 0.950 . S
H647 C634 0.951 . S
C648 C649 1.386 . S
C648 C650 1.383 . S
C648 H664 0.951 . S
C649 C648 1.386 . S
C649 C653 1.383 . S
C650 C648 1.383 . S
C650 C651 1.402 . S
C650 H665 0.951 . S
C651 C650 1.402 . S
C651 C652 1.375 1_545 S
C651 C654 1.481 1_545 S
C652 C651 1.375 1_565 S
C652 C653 1.367 1_565 S
C652 H666 0.951 . S
C653 C649 1.383 . S
C653 C652 1.367 1_545 S
C653 H667 0.950 . S
C654 C651 1.481 1_565 S
C654 C655 1.297 . S
C654 H668 0.950 . S
C655 C654 1.297 . S
C655 C656 1.479 . S
C655 H669 0.950 1_565 S
C656 C655 1.479 . S
C656 C657 1.375 . S
C656 C662 1.404 . S
C657 C656 1.375 . S
C657 C658 1.369 . S
C657 H670 0.950 1_565 S
C658 C657 1.369 . S
C658 C659 1.392 . S
C658 H671 0.951 . S
C659 C658 1.392 . S
C659 C661 1.384 . S
H660 C662 0.949 . S
C661 C659 1.384 . S
C661 C662 1.385 . S
C661 H663 0.950 . S
C662 C656 1.404 . S
C662 H660 0.949 . S
C662 C661 1.385 . S
H663 C661 0.950 . S
H664 C648 0.951 . S
H665 C650 0.951 . S
H666 C652 0.951 . S
H667 C653 0.950 . S
H668 C654 0.950 . S
H669 C655 0.950 1_545 S
H670 C657 0.950 1_545 S
H671 C658 0.951 . S
C241 C184 1.256 . S
C251 C26 1.220 . S
C265 C226 1.264 . S
C275 C64 1.222 . S
C289 C24 1.234 . S
C299 C106 1.258 . S
C313 C66 1.237 . S
C323 C144 1.249 . S
C337 C104 1.258 . S
C347 C186 1.221 . S
C361 C146 1.267 . S
C371 C224 1.234 . S
C385 C2 1.341 . S
C395 C143 1.493 . S
C409 C162 1.374 . S
C419 C63 1.449 . S
C433 C223 1.432 . S
C443 C82 1.425 . S
C457 C103 1.466 . S
C467 C202 1.353 . S
C481 C23 1.474 . S
C491 C122 1.330 . S
C505 C183 1.480 . S
C515 C42 1.302 . S
C529 C217 0.700 . S
C539 C17 0.651 . S
C553 C53 1.525 . S
C563 C13 1.495 . S
C577 C97 0.717 . S
C587 C57 0.765 . S
C601 C93 1.524 . S
C611 C133 1.481 . S
C625 C177 0.684 . S
C635 C137 0.717 . S
C649 C213 1.519 . S
C659 C173 1.480 . S
