# Generated by pormake.
# Topology wmi, (6)-cn, num edge types: 1
# Building blocks:
#     Node 0, Type 0, BuildingBlock: BETDEL_clean_sbu_0, # of connection points: 6
#     Node 1, Type 0, BuildingBlock: BETDEL_clean_sbu_0, # of connection points: 6
#     Node 2, Type 0, BuildingBlock: BETDEL_clean_sbu_0, # of connection points: 6
#     Node 3, Type 0, BuildingBlock: BETDEL_clean_sbu_0, # of connection points: 6
#     Node 4, Type 0, BuildingBlock: BETDEL_clean_sbu_0, # of connection points: 6
#     Node 5, Type 0, BuildingBlock: BETDEL_clean_sbu_0, # of connection points: 6
#     Node 6, Type 0, BuildingBlock: BETDEL_clean_sbu_0, # of connection points: 6
#     Node 7, Type 0, BuildingBlock: BETDEL_clean_sbu_0, # of connection points: 6
#     Node 8, Type 0, BuildingBlock: BETDEL_clean_sbu_0, # of connection points: 6
#     Node 9, Type 0, BuildingBlock: BETDEL_clean_sbu_0, # of connection points: 6
#     Node 10, Type 0, BuildingBlock: BETDEL_clean_sbu_0, # of connection points: 6
#     Node 11, Type 0, BuildingBlock: BETDEL_clean_sbu_0, # of connection points: 6
#     Node 12, Type 0, BuildingBlock: BETDEL_clean_sbu_0, # of connection points: 6
#     Node 13, Type 0, BuildingBlock: BETDEL_clean_sbu_0, # of connection points: 6
#     Node 14, Type 0, BuildingBlock: BETDEL_clean_sbu_0, # of connection points: 6
#     Node 15, Type 0, BuildingBlock: BETDEL_clean_sbu_0, # of connection points: 6
#     Node 16, Type 0, BuildingBlock: BETDEL_clean_sbu_0, # of connection points: 6
#     Node 17, Type 0, BuildingBlock: BETDEL_clean_sbu_0, # of connection points: 6
#     Edge 18, Type (0, 0), BuildingBlock: UVAHIK_clean_linker_0, # of connection points: 2
#     Edge 19, Type (0, 0), BuildingBlock: UVAHIK_clean_linker_0, # of connection points: 2
#     Edge 20, Type (0, 0), BuildingBlock: UVAHIK_clean_linker_0, # of connection points: 2
#     Edge 21, Type (0, 0), BuildingBlock: UVAHIK_clean_linker_0, # of connection points: 2
#     Edge 22, Type (0, 0), BuildingBlock: UVAHIK_clean_linker_0, # of connection points: 2
#     Edge 23, Type (0, 0), BuildingBlock: UVAHIK_clean_linker_0, # of connection points: 2
#     Edge 24, Type (0, 0), BuildingBlock: UVAHIK_clean_linker_0, # of connection points: 2
#     Edge 25, Type (0, 0), BuildingBlock: UVAHIK_clean_linker_0, # of connection points: 2
#     Edge 26, Type (0, 0), BuildingBlock: UVAHIK_clean_linker_0, # of connection points: 2
#     Edge 27, Type (0, 0), BuildingBlock: UVAHIK_clean_linker_0, # of connection points: 2
#     Edge 28, Type (0, 0), BuildingBlock: UVAHIK_clean_linker_0, # of connection points: 2
#     Edge 29, Type (0, 0), BuildingBlock: UVAHIK_clean_linker_0, # of connection points: 2
#     Edge 30, Type (0, 0), BuildingBlock: UVAHIK_clean_linker_0, # of connection points: 2
#     Edge 31, Type (0, 0), BuildingBlock: UVAHIK_clean_linker_0, # of connection points: 2
#     Edge 32, Type (0, 0), BuildingBlock: UVAHIK_clean_linker_0, # of connection points: 2
#     Edge 33, Type (0, 0), BuildingBlock: UVAHIK_clean_linker_0, # of connection points: 2
#     Edge 34, Type (0, 0), BuildingBlock: UVAHIK_clean_linker_0, # of connection points: 2
#     Edge 35, Type (0, 0), BuildingBlock: UVAHIK_clean_linker_0, # of connection points: 2
#     Edge 36, Type (0, 0), BuildingBlock: UVAHIK_clean_linker_0, # of connection points: 2
#     Edge 37, Type (0, 0), BuildingBlock: UVAHIK_clean_linker_0, # of connection points: 2
#     Edge 38, Type (0, 0), BuildingBlock: UVAHIK_clean_linker_0, # of connection points: 2
#     Edge 39, Type (0, 0), BuildingBlock: UVAHIK_clean_linker_0, # of connection points: 2
#     Edge 40, Type (0, 0), BuildingBlock: UVAHIK_clean_linker_0, # of connection points: 2
#     Edge 41, Type (0, 0), BuildingBlock: UVAHIK_clean_linker_0, # of connection points: 2
#     Edge 42, Type (0, 0), BuildingBlock: UVAHIK_clean_linker_0, # of connection points: 2
#     Edge 43, Type (0, 0), BuildingBlock: UVAHIK_clean_linker_0, # of connection points: 2
#     Edge 44, Type (0, 0), BuildingBlock: UVAHIK_clean_linker_0, # of connection points: 2
#     Edge 45, Type (0, 0), BuildingBlock: UVAHIK_clean_linker_0, # of connection points: 2
#     Edge 46, Type (0, 0), BuildingBlock: UVAHIK_clean_linker_0, # of connection points: 2
#     Edge 47, Type (0, 0), BuildingBlock: UVAHIK_clean_linker_0, # of connection points: 2
#     Edge 48, Type (0, 0), BuildingBlock: UVAHIK_clean_linker_0, # of connection points: 2
#     Edge 49, Type (0, 0), BuildingBlock: UVAHIK_clean_linker_0, # of connection points: 2
#     Edge 50, Type (0, 0), BuildingBlock: UVAHIK_clean_linker_0, # of connection points: 2
#     Edge 51, Type (0, 0), BuildingBlock: UVAHIK_clean_linker_0, # of connection points: 2
#     Edge 52, Type (0, 0), BuildingBlock: UVAHIK_clean_linker_0, # of connection points: 2
#     Edge 53, Type (0, 0), BuildingBlock: UVAHIK_clean_linker_0, # of connection points: 2
#     Edge 54, Type (0, 0), BuildingBlock: UVAHIK_clean_linker_0, # of connection points: 2
#     Edge 55, Type (0, 0), BuildingBlock: UVAHIK_clean_linker_0, # of connection points: 2
#     Edge 56, Type (0, 0), BuildingBlock: UVAHIK_clean_linker_0, # of connection points: 2
#     Edge 57, Type (0, 0), BuildingBlock: UVAHIK_clean_linker_0, # of connection points: 2
#     Edge 58, Type (0, 0), BuildingBlock: UVAHIK_clean_linker_0, # of connection points: 2
#     Edge 59, Type (0, 0), BuildingBlock: UVAHIK_clean_linker_0, # of connection points: 2
#     Edge 60, Type (0, 0), BuildingBlock: UVAHIK_clean_linker_0, # of connection points: 2
#     Edge 61, Type (0, 0), BuildingBlock: UVAHIK_clean_linker_0, # of connection points: 2
#     Edge 62, Type (0, 0), BuildingBlock: UVAHIK_clean_linker_0, # of connection points: 2
#     Edge 63, Type (0, 0), BuildingBlock: UVAHIK_clean_linker_0, # of connection points: 2
#     Edge 64, Type (0, 0), BuildingBlock: UVAHIK_clean_linker_0, # of connection points: 2
#     Edge 65, Type (0, 0), BuildingBlock: UVAHIK_clean_linker_0, # of connection points: 2
#     Edge 66, Type (0, 0), BuildingBlock: UVAHIK_clean_linker_0, # of connection points: 2
#     Edge 67, Type (0, 0), BuildingBlock: UVAHIK_clean_linker_0, # of connection points: 2
#     Edge 68, Type (0, 0), BuildingBlock: UVAHIK_clean_linker_0, # of connection points: 2
#     Edge 69, Type (0, 0), BuildingBlock: UVAHIK_clean_linker_0, # of connection points: 2
#     Edge 70, Type (0, 0), BuildingBlock: UVAHIK_clean_linker_0, # of connection points: 2
#     Edge 71, Type (0, 0), BuildingBlock: UVAHIK_clean_linker_0, # of connection points: 2
# Relax obj value: 0.083
# Max RMSD: 0.174
# Mean RMSD: 0.174
data_MOF--net-wmi--node1-BETDEL_clean_sbu_0--edge1-UVAHIK_clean_linker_0
_symmetry_space_group_name_H-M    P1
_symmetry_Int_Tables_number       1
_symmetry_cell_setting            triclinic
loop_
_symmetry_equiv_pos_as_xyz
'x, y, z'
_cell_length_a     41.865727
_cell_length_b     41.783837
_cell_length_c     103.85932
_cell_angle_alpha  89.899754
_cell_angle_beta   90.053804
_cell_angle_gamma 119.93389
loop_
_atom_site_label
_atom_site_type_symbol
_atom_site_fract_x
_atom_site_fract_y
_atom_site_fract_z
_atom_type_partial_charge
Dy0 Dy 0.5204 0.0371 0.1196 0.0
C1 C 0.37114 0.91061 0.12223 0.0
C2 C 0.59314 0.08824 0.11654 0.0
Dy3 Dy 0.43694 0.97205 0.11714 0.0
O4 O 0.5797 0.06508 0.1261 0.0
O5 O 0.56684 0.08342 0.10872 0.0
O6 O 0.50511 0.05089 0.13912 0.0
O7 O 0.47745 -0.00294 0.13221 0.0
C8 C 0.47791 0.01754 0.14108 0.0
C9 C 0.46815 0.99114 0.09362 0.0
O10 O 0.43176 0.02359 0.11891 0.0
O11 O 0.492 0.06693 0.11288 0.0
O12 O 0.39979 0.9112 0.11728 0.0
O13 O 0.37786 0.9442 0.12432 0.0
O14 O 0.43418 0.96565 0.09555 0.0
O15 O 0.48239 0.00505 0.10433 0.0
O16 O 0.52771 0.98803 0.11694 0.0
O17 O 0.46827 0.94328 0.12276 0.0
C18 C 0.45731 0.05753 0.11524 0.0
C19 C 0.50316 0.95364 0.12013 0.0
Dy20 Dy 0.98342 0.48467 0.11779 0.0
C21 C 0.09469 0.44268 0.12371 0.0
C22 C 0.92828 0.50119 0.11547 0.0
Dy23 Dy 0.04181 0.45795 0.11577 0.0
O24 O 0.92725 0.4755 0.12283 0.0
O25 O 0.9594 0.51776 0.10928 0.0
O26 O -0.00187 0.49393 0.13915 0.0
O27 O -0.00014 0.45163 0.12921 0.0
C28 C 0.00617 0.46768 0.13984 0.0
C29 C 0.03525 0.4832 0.09263 0.0
O30 O 0.98853 0.4039 0.11453 0.0
O31 O 0.95135 0.42872 0.10878 0.0
O32 O 0.07314 0.42739 0.11383 0.0
O33 O 0.08633 0.46519 0.1294 0.0
O34 O 0.05681 0.46977 0.09489 0.0
O35 O 0.01851 0.48192 0.10291 0.0
O36 O 0.03429 0.53895 0.11702 0.0
O37 O 0.07494 0.51787 0.12185 0.0
C38 C 0.95691 0.40027 0.11022 0.0
C39 C 0.06726 0.54495 0.12036 0.0
Dy40 Dy 0.52574 0.49566 0.12245 0.0
C41 C 0.57358 0.65193 0.12337 0.0
C42 C 0.50619 0.42244 0.12086 0.0
Dy43 Dy 0.55707 0.58168 0.11755 0.0
O44 O 0.49992 0.43782 0.13067 0.0
O45 O 0.52317 0.44712 0.11196 0.0
O46 O 0.51707 0.50625 0.14338 0.0
O47 O 0.55966 0.54741 0.13262 0.0
C48 C 0.54346 0.54055 0.14326 0.0
C49 C 0.53082 0.54467 0.09536 0.0
O50 O 0.61038 0.58001 0.11737 0.0
O51 O 0.58531 0.51576 0.11888 0.0
O52 O 0.58868 0.64321 0.11405 0.0
O53 O 0.5506 0.62241 0.12967 0.0
O54 O 0.5454 0.58026 0.09637 0.0
O55 O 0.53144 0.53144 0.10626 0.0
O56 O 0.47453 0.49601 0.1176 0.0
O57 O 0.4967 0.55775 0.12268 0.0
C58 C 0.6137 0.54982 0.11756 0.0
C59 C 0.46911 0.52385 0.12027 0.0
Dy60 Dy 0.03267 0.51734 0.93495 0.0
C61 C 0.92047 0.36402 0.92964 0.0
C62 C 0.0872 0.58943 0.93729 0.0
Dy63 Dy 0.97467 0.43182 0.93735 0.0
O64 O 0.08922 0.56466 0.93033 0.0
O65 O 0.05541 0.57475 0.94304 0.0
O66 O 0.0185 0.51172 0.91349 0.0
O67 O 0.01563 0.46756 0.92367 0.0
C68 C 0.00946 0.4771 0.91296 0.0
C69 C 0.98253 0.46389 0.96045 0.0
O70 O 0.0287 0.43195 0.93827 0.0
O71 O 0.06535 0.49408 0.94396 0.0
O72 O 0.94317 0.36973 0.93912 0.0
O73 O 0.92839 0.39518 0.92424 0.0
O74 O 0.96101 0.42883 0.95833 0.0
O75 O -0.0014 0.47932 0.95005 0.0
O76 O 0.98137 0.51997 0.93663 0.0
O77 O 0.94085 0.45835 0.93171 0.0
C78 C 0.06032 0.46029 0.94248 0.0
C79 C 0.94816 0.49282 0.93362 0.0
Dy80 Dy 0.49992 0.53403 0.93616 0.0
C81 C 0.65246 0.57257 0.9317 0.0
C82 C 0.42771 0.51663 0.9385 0.0
Dy83 Dy 0.58491 0.56003 0.93929 0.0
O84 O 0.4414 0.50776 0.92885 0.0
O85 O 0.45354 0.53522 0.94686 0.0
O86 O 0.50741 0.52881 0.91459 0.0
O87 O 0.55081 0.56777 0.92552 0.0
C88 C 0.54215 0.55368 0.91456 0.0
C89 C 0.55059 0.53293 0.96191 0.0
O90 O 0.58671 0.61503 0.94068 0.0
O91 O 0.52307 0.59294 0.94211 0.0
O92 O 0.64659 0.58786 0.94168 0.0
O93 O 0.62163 0.55172 0.92571 0.0
O94 O 0.58576 0.54643 0.96015 0.0
O95 O 0.53624 0.53522 0.95146 0.0
O96 O 0.49707 0.4803 0.93934 0.0
O97 O 0.55757 0.49987 0.93341 0.0
C98 C 0.55796 0.62002 0.94267 0.0
C99 C 0.52321 0.47325 0.93576 0.0
Dy100 Dy 0.48891 0.98794 0.93393 0.0
C101 C 0.44133 0.09667 0.93218 0.0
C102 C 0.50866 0.93491 0.9366 0.0
Dy103 Dy 0.45778 0.04294 0.93797 0.0
O104 O 0.5191 0.95879 0.92726 0.0
O105 O 0.4874 0.93999 0.94443 0.0
O106 O 0.49573 0.00328 0.91257 0.0
O107 O 0.45492 0.00494 0.92339 0.0
C108 C 0.47022 0.01242 0.91259 0.0
C109 C 0.48451 0.03399 0.96042 0.0
O110 O 0.40426 0.98783 0.93824 0.0
O111 O 0.42943 0.94865 0.93766 0.0
O112 O 0.42708 0.07349 0.94173 0.0
O113 O 0.46351 0.08959 0.92564 0.0
O114 O 0.46963 0.05462 0.95906 0.0
O115 O 0.48377 0.01936 0.9497 0.0
O116 O 0.54002 0.04002 0.93845 0.0
O117 O 0.5178 0.07879 0.93232 0.0
C118 C 0.40092 0.95427 0.9385 0.0
C119 C 0.54546 0.07288 0.93508 0.0
Dy120 Dy 0.18047 0.37413 0.45127 0.0
C121 C 0.02593 0.26082 0.45435 0.0
C122 C 0.25223 0.42836 0.4488 0.0
Dy123 Dy 0.09558 0.31369 0.44805 0.0
O124 O 0.22798 0.43026 0.45609 0.0
O125 O 0.23718 0.39692 0.44278 0.0
O126 O 0.17302 0.36204 0.4728 0.0
O127 O 0.12918 0.35658 0.46164 0.0
C128 C 0.13814 0.35184 0.47269 0.0
C129 C 0.13192 0.32113 0.42587 0.0
O130 O 0.09414 0.36668 0.44591 0.0
O131 O 0.15683 0.40548 0.44149 0.0
O132 O 0.03486 0.28098 0.44396 0.0
O133 O 0.05494 0.27055 0.46146 0.0
O134 O 0.09693 0.29816 0.42735 0.0
O135 O 0.14467 0.33795 0.43634 0.0
O136 O 0.18427 0.32319 0.45198 0.0
O137 O 0.12196 0.28136 0.45543 0.0
C138 C 0.12234 0.39887 0.44206 0.0
C139 C 0.15708 0.28983 0.45493 0.0
Dy140 Dy 0.64854 0.82671 0.45453 0.0
C141 C 0.75824 0.78112 0.45648 0.0
C142 C 0.59459 0.84584 0.45276 0.0
Dy143 Dy 0.70427 0.79688 0.45019 0.0
O144 O 0.6153 0.85107 0.46276 0.0
O145 O 0.60335 0.83007 0.44373 0.0
O146 O 0.66543 0.83362 0.47574 0.0
O147 O 0.66565 0.79226 0.46476 0.0
C148 C 0.6736 0.80738 0.47558 0.0
C149 C 0.69586 0.82414 0.42783 0.0
O150 O 0.64989 0.74296 0.44943 0.0
O151 O 0.61004 0.76726 0.45035 0.0
O152 O 0.73544 0.76646 0.44686 0.0
O153 O 0.75044 0.80312 0.46284 0.0
O154 O 0.71649 0.80928 0.42927 0.0
O155 O 0.68047 0.82302 0.43847 0.0
O156 O 0.69988 0.87912 0.45099 0.0
O157 O 0.73987 0.85719 0.45572 0.0
C158 C 0.61625 0.73915 0.44921 0.0
C159 C 0.73298 0.88473 0.4539 0.0
Dy160 Dy 0.19666 0.83623 0.45166 0.0
C161 C 0.22173 0.98706 0.45349 0.0
C162 C 0.17415 0.76316 0.44839 0.0
Dy163 Dy 0.21716 0.92073 0.44898 0.0
O164 O 0.16494 0.77667 0.45806 0.0
O165 O 0.19556 0.78957 0.44058 0.0
O166 O 0.22544 0.85111 0.47123 0.0
O167 O 0.20071 0.88 0.46409 0.0
C168 C 0.22026 0.87903 0.47305 0.0
C169 C 0.20394 0.8886 0.42558 0.0
O170 O 0.2733 0.9248 0.45063 0.0
O171 O 0.25497 0.86369 0.44511 0.0
O172 O 0.19499 0.95911 0.4477 0.0
O173 O 0.24732 0.97938 0.45674 0.0
O174 O 0.21345 0.92296 0.42736 0.0
O175 O 0.20357 0.8746 0.43637 0.0
O176 O 0.14088 0.83032 0.4491 0.0
O177 O 0.15737 0.89041 0.45487 0.0
C178 C 0.28081 0.89841 0.44724 0.0
C179 C 0.13208 0.85565 0.45231 0.0
Dy180 Dy 0.70379 0.85687 0.26706 0.0
C181 C 0.58117 0.70482 0.2694 0.0
C182 C 0.75455 0.93007 0.26956 0.0
Dy183 Dy 0.642 0.7727 0.27208 0.0
O184 O 0.73157 0.91584 0.25998 0.0
O185 O 0.74965 0.9043 0.27769 0.0
O186 O 0.71224 0.84029 0.24704 0.0
O187 O 0.6611 0.81099 0.25608 0.0
C188 C 0.67933 0.81142 0.24641 0.0
C189 C 0.66747 0.80823 0.29466 0.0
O190 O 0.69323 0.76814 0.26889 0.0
O191 O 0.73794 0.83081 0.2708 0.0
O192 O 0.58312 0.73208 0.27596 0.0
O193 O 0.61322 0.7141 0.26439 0.0
O194 O 0.64264 0.77357 0.29377 0.0
O195 O 0.67776 0.82072 0.28344 0.0
O196 O 0.65441 0.86301 0.27018 0.0
O197 O 0.60943 0.80118 0.26769 0.0
C198 C 0.72815 0.79549 0.26968 0.0
C199 C 0.61955 0.8367 0.26887 0.0
Dy200 Dy 0.16595 0.86502 0.26604 0.0
C201 C 0.32267 0.91483 0.26482 0.0
C202 C 0.09302 0.84594 0.26657 0.0
Dy203 Dy 0.25149 0.89506 0.27034 0.0
O204 O 0.11759 0.86934 0.25862 0.0
O205 O 0.10834 0.83295 0.27428 0.0
O206 O 0.17654 0.85785 0.245 0.0
O207 O 0.2174 0.90048 0.25589 0.0
C208 C 0.21037 0.88512 0.24509 0.0
C209 C 0.2153 0.8664 0.29251 0.0
O210 O 0.24919 0.94777 0.2722 0.0
O211 O 0.18542 0.92019 0.27498 0.0
O212 O 0.31216 0.92581 0.27487 0.0
O213 O 0.29437 0.89423 0.25759 0.0
O214 O 0.25067 0.88063 0.29118 0.0
O215 O 0.2017 0.86834 0.28185 0.0
O216 O 0.16537 0.81209 0.26777 0.0
O217 O 0.2281 0.83544 0.2641 0.0
C218 C 0.21904 0.94955 0.27508 0.0
C219 C 0.19377 0.80742 0.26536 0.0
Dy220 Dy 0.15332 0.31793 0.26795 0.0
C221 C 0.11475 0.43294 0.26182 0.0
C222 C 0.17055 0.26361 0.27167 0.0
Dy223 Dy 0.12807 0.37852 0.26968 0.0
O224 O 0.14192 0.25962 0.26537 0.0
O225 O 0.18956 0.29715 0.276 0.0
O226 O 0.16256 0.32968 0.24646 0.0
O227 O 0.12302 0.33698 0.25612 0.0
C228 C 0.13969 0.34209 0.24564 0.0
C229 C 0.15207 0.36988 0.29283 0.0
O230 O 0.07359 0.32544 0.27053 0.0
O231 O 0.09693 0.28711 0.27665 0.0
O232 O 0.09894 0.41138 0.27168 0.0
O233 O 0.13661 0.42373 0.25615 0.0
O234 O 0.14005 0.39274 0.29074 0.0
O235 O 0.15029 0.35358 0.28242 0.0
O236 O 0.20781 0.36897 0.26877 0.0
O237 O 0.18807 0.41091 0.26404 0.0
C238 C 0.06908 0.2934 0.27488 0.0
C239 C 0.21448 0.40239 0.26556 0.0
Dy240 Dy 0.84798 0.70792 0.7877 0.0
C241 C 0.69645 0.5833 0.78792 0.0
C242 C 0.92148 0.75762 0.7851 0.0
Dy243 Dy 0.76331 0.64489 0.78416 0.0
O244 O 0.9071 0.733 0.79421 0.0
O245 O 0.89567 0.75502 0.77745 0.0
O246 O 0.83357 0.71858 0.80782 0.0
O247 O 0.80345 0.6666 0.79952 0.0
C248 C 0.8048 0.68579 0.809 0.0
C249 C 0.79658 0.66692 0.76101 0.0
O250 O 0.75932 0.69647 0.78726 0.0
O251 O 0.82109 0.74093 0.7833 0.0
O252 O 0.72511 0.5843 0.7828 0.0
O253 O 0.70379 0.6166 0.79095 0.0
O254 O 0.76221 0.64198 0.7625 0.0
O255 O 0.81002 0.67914 0.77198 0.0
O256 O 0.85313 0.65812 0.78397 0.0
O257 O 0.79299 0.61427 0.78944 0.0
C258 C 0.78615 0.73122 0.78534 0.0
C259 C 0.82766 0.62378 0.78678 0.0
Dy260 Dy 0.30862 0.15433 0.78505 0.0
C261 C 0.42667 0.11996 0.7882 0.0
C262 C 0.25348 0.17096 0.78232 0.0
Dy263 Dy 0.36987 0.13075 0.78147 0.0
O264 O 0.2757 0.18011 0.79209 0.0
O265 O 0.26115 0.15239 0.77408 0.0
O266 O 0.31977 0.15806 0.80669 0.0
O267 O 0.32816 0.12203 0.79541 0.0
C268 C 0.33241 0.13528 0.80649 0.0
C269 C 0.36061 0.15838 0.75921 0.0
O270 O 0.31748 0.07499 0.78041 0.0
O271 O 0.27424 0.09517 0.77919 0.0
O272 O 0.40337 0.10245 0.77893 0.0
O273 O 0.41808 0.14227 0.79392 0.0
O274 O 0.38341 0.146 0.76057 0.0
O275 O 0.34443 0.15483 0.76981 0.0
O276 O 0.35896 0.20891 0.78239 0.0
O277 O 0.40039 0.1899 0.78836 0.0
C278 C 0.28322 0.06882 0.7786 0.0
C279 C 0.3921 0.21627 0.78619 0.0
Dy280 Dy 0.86115 0.1711 0.78656 0.0
C281 C 0.90235 0.32565 0.78873 0.0
C282 C 0.84433 0.09887 0.78571 0.0
Dy283 Dy 0.8866 0.25616 0.78242 0.0
O284 O 0.8687 0.124 0.79327 0.0
O285 O 0.82934 0.11331 0.77853 0.0
O286 O 0.85461 0.1803 0.80785 0.0
O287 O 0.89421 0.22306 0.7967 0.0
C288 C 0.87969 0.21509 0.80763 0.0
C289 C 0.85953 0.21944 0.76027 0.0
O290 O 0.94068 0.25668 0.78098 0.0
O291 O 0.91622 0.1935 0.77713 0.0
O292 O 0.9176 0.31775 0.77924 0.0
O293 O 0.87934 0.29572 0.79482 0.0
O294 O 0.87191 0.25465 0.76152 0.0
O295 O 0.86249 0.2065 0.77092 0.0
O296 O 0.80673 0.16753 0.78522 0.0
O297 O 0.82698 0.22984 0.78877 0.0
C298 C 0.94426 0.22793 0.77749 0.0
C299 C 0.80026 0.19485 0.78761 0.0
Dy300 Dy 0.3774 0.18488 0.59988 0.0
C301 C 0.26454 0.03429 0.60186 0.0
C302 C 0.43276 0.25754 0.60103 0.0
Dy303 Dy 0.32261 0.10481 0.60401 0.0
O304 O 0.41139 0.24191 0.59122 0.0
O305 O 0.42409 0.23337 0.61018 0.0
O306 O 0.36108 0.1765 0.57863 0.0
O307 O 0.36172 0.13438 0.58902 0.0
C308 C 0.35396 0.14253 0.57832 0.0
C309 C 0.34734 0.14204 0.62611 0.0
O310 O 0.37389 0.10041 0.60291 0.0
O311 O 0.41397 0.1629 0.60633 0.0
O312 O 0.27995 0.05064 0.61257 0.0
O313 O 0.28137 0.05623 0.59225 0.0
O314 O 0.33976 0.10824 0.62427 0.0
O315 O 0.33978 0.15452 0.61606 0.0
O316 O 0.32802 0.19059 0.6023 0.0
O317 O 0.28683 0.12913 0.59829 0.0
C318 C 0.40714 0.12834 0.60574 0.0
C319 C 0.29453 0.1639 0.59945 0.0
Dy320 Dy 0.84077 0.20275 0.60149 0.0
C321 C 0.99001 0.2262 0.59894 0.0
C322 C 0.76727 0.1783 0.60367 0.0
Dy323 Dy 0.92414 0.22178 0.60399 0.0
O324 O 0.78229 0.16907 0.59453 0.0
O325 O 0.79245 0.20106 0.61158 0.0
O326 O 0.85571 0.23257 0.58213 0.0
O327 O 0.88392 0.20662 0.58882 0.0
C328 C 0.88314 0.2269 0.58007 0.0
C329 C 0.8931 0.20869 0.62755 0.0
O330 O 0.92873 0.27824 0.60241 0.0
O331 O 0.86839 0.26062 0.6085 0.0
O332 O 0.96113 0.1979 0.60367 0.0
O333 O 0.9835 0.25331 0.59704 0.0
O334 O 0.92729 0.21818 0.62552 0.0
O335 O 0.87843 0.20819 0.61688 0.0
O336 O 0.83377 0.14648 0.60389 0.0
O337 O 0.89343 0.16188 0.59825 0.0
C338 C 0.90302 0.28626 0.60618 0.0
C339 C 0.85849 0.13702 0.60064 0.0
Dy340 Dy 0.82701 0.64863 0.60097 0.0
C341 C 0.79778 0.77111 0.59844 0.0
C342 C 0.85156 0.5989 0.60255 0.0
Dy343 Dy 0.80583 0.71148 0.60374 0.0
O344 O 0.85941 0.62277 0.59332 0.0
O345 O 0.83039 0.60233 0.61093 0.0
O346 O 0.79718 0.63474 0.58152 0.0
O347 O 0.82268 0.68829 0.58853 0.0
C348 C 0.80288 0.66797 0.57962 0.0
C349 C 0.81889 0.69395 0.62732 0.0
O350 O 0.7505 0.65866 0.60157 0.0
O351 O 0.7694 0.61711 0.60799 0.0
O352 O 0.82815 0.77205 0.60157 0.0
O353 O 0.77081 0.737 0.59818 0.0
O354 O 0.80862 0.71808 0.62513 0.0
O355 O 0.82025 0.67965 0.61674 0.0
O356 O 0.88266 0.69836 0.60369 0.0
O357 O 0.8664 0.74295 0.59919 0.0
C358 C 0.74326 0.62523 0.60547 0.0
C359 C 0.89153 0.73299 0.60129 0.0
C360 C 0.54834 0.93219 0.11544 0.0
C361 C 0.51529 0.92589 0.12119 0.0
C362 C 0.55941 0.90567 0.11629 0.0
C363 C 0.54858 0.82752 0.13576 0.0
H364 H 0.57415 0.79457 0.10458 0.0
C365 C 0.55263 0.6919 0.1338 0.0
C366 C 0.57606 0.68824 0.12502 0.0
C367 C 0.55034 0.72412 0.13412 0.0
C368 C 0.56792 0.8039 0.11345 0.0
H369 H 0.46821 0.88696 0.1325 0.0
H370 H 0.48791 0.84108 0.13416 0.0
H371 H 0.56027 0.84467 0.10353 0.0
H372 H 0.61698 0.71611 0.11014 0.0
H373 H 0.61412 0.77313 0.11099 0.0
H374 H 0.55653 0.78727 0.14576 0.0
C375 C 0.50516 0.86648 0.12896 0.0
C376 C 0.55975 0.83253 0.11281 0.0
C377 C 0.49379 0.89268 0.12793 0.0
C378 C 0.59861 0.71818 0.117 0.0
C379 C 0.59662 0.75069 0.1174 0.0
C380 C 0.55726 0.79928 0.13644 0.0
C381 C 0.53799 0.87261 0.1231 0.0
C382 C 0.54934 0.84416 0.12392 0.0
C383 C 0.57176 0.75376 0.12575 0.0
C384 C 0.56634 0.78651 0.12525 0.0
H385 H 0.56548 0.95741 0.11013 0.0
H386 H 0.5849 0.91117 0.11171 0.0
H387 H 0.54119 0.83633 0.14452 0.0
H388 H 0.53476 0.66919 0.14007 0.0
H389 H 0.53046 0.72498 0.14056 0.0
C390 C 0.30331 0.87448 0.12731 0.0
C391 C 0.33717 0.87596 0.12531 0.0
C392 C 0.27117 0.84028 0.12918 0.0
C393 C 0.23871 0.74301 0.13808 0.0
H394 H 0.15805 0.71877 0.11448 0.0
C395 C 0.13309 0.59287 0.12483 0.0
C396 C 0.09631 0.58363 0.12276 0.0
C397 C 0.16029 0.62962 0.1269 0.0
C398 C 0.17998 0.72519 0.12131 0.0
H399 H 0.36451 0.84353 0.12425 0.0
H400 H 0.30907 0.78456 0.12765 0.0
H401 H 0.20884 0.78227 0.11582 0.0
H402 H 0.05918 0.60578 0.12156 0.0
H403 H 0.10638 0.66945 0.12535 0.0
H404 H 0.2104 0.68593 0.14341 0.0
C405 C 0.30699 0.80938 0.12777 0.0
C406 C 0.20901 0.76161 0.1221 0.0
C407 C 0.33871 0.84318 0.12571 0.0
C408 C 0.08729 0.61187 0.12299 0.0
C409 C 0.1144 0.6485 0.12513 0.0
C410 C 0.20963 0.70667 0.13735 0.0
C411 C 0.2728 0.80742 0.12935 0.0
C412 C 0.23912 0.77065 0.13023 0.0
C413 C 0.15127 0.65789 0.12702 0.0
C414 C 0.18039 0.69712 0.12872 0.0
H415 H 0.30154 0.89946 0.12704 0.0
H416 H 0.24507 0.83944 0.13039 0.0
H417 H 0.26143 0.74935 0.14454 0.0
H418 H 0.141 0.57183 0.12468 0.0
H419 H 0.18854 0.63595 0.12813 0.0
C420 C 0.15487 0.46718 0.13496 0.0
C421 C 0.12919 0.4423 0.12609 0.0
C422 C 0.19071 0.47295 0.13537 0.0
C423 C 0.25664 0.46475 0.11398 0.0
H424 H 0.31798 0.4934 0.14456 0.0
C425 C 0.40283 0.48451 0.11452 0.0
C426 C 0.4306 0.51603 0.12073 0.0
C427 C 0.36602 0.47535 0.11543 0.0
C428 C 0.30119 0.48577 0.13594 0.0
H429 H 0.11968 0.40169 0.11144 0.0
H430 H 0.18188 0.41061 0.11246 0.0
H431 H 0.25251 0.47351 0.1465 0.0
H432 H 0.4416 0.56292 0.13268 0.0
H433 H 0.37673 0.54659 0.13439 0.0
H434 H 0.30526 0.47652 0.10347 0.0
C435 C 0.17482 0.42668 0.11881 0.0
C436 C 0.26369 0.47431 0.13704 0.0
C437 C 0.13905 0.4212 0.11832 0.0
C438 C 0.4208 0.53854 0.12776 0.0
C439 C 0.38373 0.52905 0.12882 0.0
C440 C 0.29397 0.47582 0.11292 0.0
C441 C 0.2015 0.45365 0.12699 0.0
C442 C 0.24094 0.46374 0.12606 0.0
C443 C 0.35602 0.49728 0.12269 0.0
C444 C 0.31664 0.48652 0.12387 0.0
H445 H 0.14798 0.48386 0.14107 0.0
H446 H 0.21043 0.49407 0.14174 0.0
H447 H 0.24031 0.45777 0.10527 0.0
H448 H 0.40948 0.46667 0.10897 0.0
H449 H 0.34524 0.4506 0.11067 0.0
C450 C 0.92218 0.53414 0.93798 0.0
C451 C 0.91821 0.50176 0.93236 0.0
C452 C 0.89446 0.54327 0.93679 0.0
C453 C 0.79522 0.50312 0.92853 0.0
H454 H 0.82178 0.60626 0.9267 0.0
C455 C 0.68682 0.54723 0.91997 0.0
C456 C 0.68676 0.57174 0.9292 0.0
C457 C 0.7166 0.54106 0.91906 0.0
C458 C 0.814 0.57737 0.92723 0.0
H459 H 0.88203 0.45365 0.921 0.0
H460 H 0.834 0.47012 0.91854 0.0
H461 H 0.87012 0.58986 0.92744 0.0
H462 H 0.71861 0.61062 0.94421 0.0
H463 H 0.77125 0.60044 0.94242 0.0
H464 H 0.73905 0.49081 0.92809 0.0
C465 C 0.8582 0.48809 0.92415 0.0
C466 C 0.84166 0.56788 0.92773 0.0
C467 C 0.88581 0.47867 0.92551 0.0
C468 C 0.718 0.59166 0.93699 0.0
C469 C 0.74808 0.58582 0.93596 0.0
C470 C 0.76762 0.51262 0.92784 0.0
C471 C 0.86215 0.52057 0.92978 0.0
C472 C 0.83267 0.53061 0.92856 0.0
C473 C 0.74715 0.55962 0.92725 0.0
C474 C 0.77671 0.54983 0.9273 0.0
H475 H 0.94662 0.55236 0.94346 0.0
H476 H 0.89826 0.56796 0.94154 0.0
H477 H 0.78706 0.47421 0.92939 0.0
H478 H 0.66311 0.5315 0.91382 0.0
H479 H 0.71537 0.52108 0.91215 0.0
C480 C 0.42866 0.14474 0.94101 0.0
C481 C 0.43984 0.13099 0.9307 0.0
C482 C 0.43423 0.18064 0.94058 0.0
C483 C 0.43816 0.25422 0.93622 0.0
H484 H 0.52889 0.32746 0.91998 0.0
C485 C 0.47597 0.40674 0.93291 0.0
C486 C 0.51317 0.43409 0.93427 0.0
C487 C 0.46589 0.3696 0.93172 0.0
C488 C 0.50363 0.30749 0.92468 0.0
H489 H 0.46309 0.14266 0.9115 0.0
H490 H 0.47128 0.20464 0.91046 0.0
H491 H 0.51177 0.26276 0.9193 0.0
H492 H 0.56903 0.44391 0.93542 0.0
H493 H 0.55141 0.37886 0.93379 0.0
H494 H 0.43104 0.29913 0.94222 0.0
C495 C 0.45952 0.18843 0.9191 0.0
C496 C 0.49341 0.27015 0.92409 0.0
C497 C 0.45443 0.15275 0.91961 0.0
C498 C 0.54015 0.42349 0.93433 0.0
C499 C 0.53 0.38616 0.93332 0.0
C500 C 0.4486 0.29159 0.93695 0.0
C501 C 0.45066 0.20335 0.92975 0.0
C502 C 0.46055 0.24296 0.92987 0.0
C503 C 0.49266 0.35868 0.93205 0.0
C504 C 0.48152 0.31879 0.9312 0.0
H505 H 0.41762 0.1286 0.94971 0.0
H506 H 0.42734 0.19111 0.94902 0.0
H507 H 0.41248 0.23417 0.94068 0.0
H508 H 0.4545 0.414 0.93266 0.0
H509 H 0.43699 0.3495 0.93045 0.0
C510 C 0.61215 0.10049 0.94041 0.0
C511 C 0.58401 0.10336 0.93408 0.0
C512 C 0.64897 0.12774 0.9389 0.0
C513 C 0.70917 0.2244 0.92804 0.0
H514 H 0.78317 0.19435 0.92711 0.0
C515 C 0.86113 0.32868 0.91792 0.0
C516 C 0.88575 0.32935 0.92726 0.0
C517 C 0.82511 0.29905 0.9173 0.0
C518 C 0.76279 0.2031 0.92737 0.0
H519 H 0.57233 0.13732 0.92132 0.0
H520 H 0.63687 0.18468 0.9184 0.0
H521 H 0.71815 0.14764 0.92898 0.0
H522 H 0.89301 0.29855 0.94266 0.0
H523 H 0.82998 0.24625 0.94146 0.0
H524 H 0.75396 0.27985 0.9263 0.0
C525 C 0.63043 0.16163 0.92474 0.0
C526 C 0.72553 0.17641 0.92852 0.0
C527 C 0.59342 0.13448 0.92638 0.0
C528 C 0.87458 0.29866 0.93536 0.0
C529 C 0.83853 0.26878 0.93467 0.0
C530 C 0.74637 0.25101 0.92674 0.0
C531 C 0.65872 0.15841 0.93089 0.0
C532 C 0.69824 0.18674 0.92904 0.0
C533 C 0.81311 0.26935 0.92594 0.0
C534 C 0.77358 0.24066 0.92651 0.0
H535 H 0.60578 0.07706 0.94655 0.0
H536 H 0.66978 0.12474 0.94408 0.0
H537 H 0.68911 0.2335 0.9286 0.0
H538 H 0.86909 0.35193 0.9115 0.0
H539 H 0.80626 0.2999 0.91034 0.0
C540 C 0.2516 0.0537 0.46046 0.0
C541 C 0.22038 0.0208 0.45654 0.0
C542 C 0.24894 0.08542 0.46277 0.0
C543 C 0.18146 0.11509 0.47022 0.0
H544 H 0.24472 0.20362 0.4507 0.0
C545 C 0.13928 0.22344 0.45835 0.0
C546 C 0.16668 0.26082 0.45765 0.0
C547 C 0.14884 0.19613 0.46027 0.0
C548 C 0.22722 0.17944 0.45644 0.0
H549 H 0.16192 0.99483 0.45231 0.0
H550 H 0.15729 0.04941 0.45647 0.0
H551 H 0.25761 0.15272 0.45101 0.0
H552 H 0.22564 0.29887 0.45889 0.0
H553 H 0.24212 0.25141 0.46246 0.0
H554 H 0.15061 0.14124 0.47549 0.0
C555 C 0.18375 0.05104 0.45776 0.0
C556 C 0.23471 0.15032 0.45661 0.0
C557 C 0.18652 0.01984 0.45527 0.0
C558 C 0.20377 0.27031 0.45924 0.0
C559 C 0.2133 0.24306 0.46124 0.0
C560 C 0.17412 0.14422 0.47013 0.0
C561 C 0.21486 0.08423 0.46145 0.0
C562 C 0.21125 0.11747 0.4632 0.0
C563 C 0.18602 0.20559 0.46164 0.0
C564 C 0.19627 0.17635 0.46293 0.0
H565 H 0.27799 0.05506 0.46151 0.0
H566 H 0.27335 0.11078 0.46559 0.0
H567 H 0.16316 0.09017 0.4755 0.0
H568 H 0.11047 0.21514 0.45712 0.0
H569 H 0.1271 0.16751 0.46032 0.0
C570 C 0.98455 0.20557 0.46754 0.0
C571 C 0.99071 0.22635 0.45625 0.0
C572 C 0.95461 0.16967 0.4684 0.0
C573 C 0.90802 0.0874 0.46379 0.0
H574 H 0.81447 0.05708 0.44706 0.0
C575 C 0.80009 0.93354 0.45445 0.0
C576 C 0.76278 0.92347 0.45538 0.0
C577 C 0.82762 0.97077 0.45526 0.0
C578 C 0.84025 0.06503 0.45193 0.0
H579 H 0.96963 0.22681 0.43724 0.0
H580 H 0.9178 0.16407 0.43858 0.0
H581 H 0.86051 0.12218 0.44798 0.0
H582 H 0.72512 0.94427 0.45854 0.0
H583 H 0.77271 0.0084 0.46033 0.0
H584 H 0.88725 0.03022 0.46804 0.0
C585 C 0.93561 0.17544 0.44689 0.0
C586 C 0.86689 0.10243 0.45231 0.0
C587 C 0.96536 0.21144 0.44609 0.0
C588 C 0.7536 0.95111 0.45754 0.0
C589 C 0.78095 0.98804 0.4585 0.0
C590 C 0.88122 0.04996 0.4635 0.0
C591 C 0.93042 0.15373 0.45792 0.0
C592 C 0.90121 0.11411 0.45817 0.0
C593 C 0.81828 -0.0015 0.45717 0.0
C594 C 0.84702 0.03828 0.45753 0.0
H595 H 0.00367 0.21654 0.47554 0.0
H596 H 0.95095 0.15409 0.47715 0.0
H597 H 0.93437 0.09527 0.4682 0.0
H598 H 0.80798 0.91284 0.45277 0.0
H599 H 0.8561 0.97785 0.45408 0.0
C600 C 0.08219 0.86691 0.46042 0.0
C601 C 0.09261 0.84467 0.45353 0.0
C602 C 0.04508 0.85696 0.46149 0.0
C603 C 0.94912 0.77809 0.45684 0.0
H604 H 0.92554 0.85678 0.45733 0.0
C605 C 0.80202 0.75949 0.44988 0.0
C606 C 0.79278 0.78009 0.45821 0.0
C607 C 0.83743 0.76372 0.45019 0.0
C608 C 0.93171 0.83449 0.45732 0.0
H609 H 0.07212 0.79453 0.4423 0.0
H610 H 0.0075 0.77783 0.44374 0.0
H611 H 0.98947 0.87197 0.45563 0.0
H612 H 0.81255 0.81972 0.47384 0.0
H613 H 0.87424 0.82733 0.47428 0.0
H614 H 0.89074 0.74069 0.45805 0.0
C615 C 0.02785 0.80248 0.44865 0.0
C616 C 0.96845 0.84317 0.45641 0.0
C617 C 0.065 0.81217 0.44775 0.0
C618 C 0.81888 0.80352 0.46727 0.0
C619 C 0.85428 0.80807 0.46748 0.0
C620 C 0.9122 0.7694 0.45756 0.0
C621 C 0.01733 0.82482 0.4555 0.0
C622 C 0.97782 0.81516 0.45627 0.0
C623 C 0.86424 0.78896 0.45873 0.0
C624 C 0.90318 0.79756 0.45792 0.0
H625 H 0.1027 0.89194 0.46511 0.0
H626 H 0.03823 0.87449 0.46711 0.0
H627 H 0.95511 0.75571 0.45693 0.0
H628 H 0.78245 0.7413 0.44277 0.0
H629 H 0.84439 0.74869 0.44332 0.0
C630 C 0.38362 0.92889 0.27385 0.0
C631 C 0.35899 0.91742 0.26343 0.0
C632 C 0.41463 0.92449 0.27351 0.0
C633 C 0.48555 0.92274 0.26934 0.0
H634 H 0.46953 0.83175 0.25366 0.0
C635 C 0.60094 0.88498 0.26649 0.0
C636 C 0.59091 0.84767 0.26805 0.0
C637 C 0.57402 0.89534 0.26541 0.0
C638 C 0.47443 0.85712 0.2582 0.0
H639 H 0.34868 0.89485 0.24414 0.0
H640 H 0.40346 0.8884 0.24331 0.0
H641 H 0.42151 0.84811 0.25253 0.0
H642 H 0.54454 0.79206 0.26993 0.0
H643 H 0.49766 0.81016 0.26841 0.0
H644 H 0.53782 0.93082 0.27553 0.0
C645 C 0.39834 0.89966 0.25194 0.0
C646 C 0.44705 0.86689 0.25735 0.0
C647 C 0.36715 0.90373 0.25234 0.0
C648 C 0.55328 0.82101 0.26864 0.0
C649 C 0.52634 0.83141 0.26768 0.0
C650 C 0.51285 0.91282 0.27028 0.0
C651 C 0.42184 0.90882 0.26268 0.0
C652 C 0.45211 0.89974 0.26296 0.0
C653 C 0.53633 0.86871 0.26598 0.0
C654 C 0.50757 0.87974 0.26478 0.0
H655 H 0.37787 0.93934 0.28256 0.0
H656 H 0.43181 0.93161 0.28201 0.0
H657 H 0.49067 0.94843 0.27367 0.0
H658 H 0.62966 0.90628 0.2659 0.0
H659 H 0.58284 0.92423 0.26392 0.0
C660 C 0.20921 0.76037 0.25691 0.0
C661 C 0.18612 0.769 0.26409 0.0
C662 C 0.20009 0.72347 0.25525 0.0
C663 C 0.12041 0.62732 0.25828 0.0
H664 H 0.19659 0.60043 0.2579 0.0
C665 C 0.09555 0.47936 0.26704 0.0
C666 C 0.1152 0.46784 0.2592 0.0
C667 C 0.10153 0.51536 0.266 0.0
C668 C 0.17504 0.6076 0.25783 0.0
H669 H 0.13632 0.74598 0.27563 0.0
H670 H 0.12131 0.68233 0.27319 0.0
H671 H 0.21384 0.66524 0.25967 0.0
H672 H 0.15479 0.48395 0.24362 0.0
H673 H 0.16543 0.5468 0.24191 0.0
H674 H 0.08164 0.56932 0.25697 0.0
C675 C 0.14561 0.70357 0.26837 0.0
C676 C 0.18491 0.64478 0.25881 0.0
C677 C 0.15441 0.74022 0.26986 0.0
C678 C 0.13935 0.49216 0.24983 0.0
C679 C 0.14564 0.52818 0.2489 0.0
C680 C 0.11055 0.59012 0.25749 0.0
C681 C 0.16798 0.69456 0.2609 0.0
C682 C 0.15771 0.65514 0.25917 0.0
C683 C 0.12754 0.54044 0.2572 0.0
C684 C 0.13776 0.57989 0.25733 0.0
H685 H 0.23374 0.78199 0.25231 0.0
H686 H 0.21785 0.71762 0.24934 0.0
H687 H 0.09868 0.63421 0.25821 0.0
H688 H 0.07686 0.46118 0.27436 0.0
H689 H 0.08728 0.52416 0.27254 0.0
C690 C 0.54459 0.63957 0.26115 0.0
C691 C 0.54612 0.67057 0.26701 0.0
C692 C 0.51037 0.60782 0.25886 0.0
C693 C 0.41377 0.57827 0.25329 0.0
H694 H 0.38841 0.48651 0.2707 0.0
C695 C 0.26337 0.46886 0.26343 0.0
C696 C 0.2533 0.4314 0.26356 0.0
C697 C 0.30028 0.49617 0.26196 0.0
C698 C 0.39512 0.51159 0.26552 0.0
H699 H 0.51345 0.69302 0.27494 0.0
H700 H 0.45433 0.63838 0.2707 0.0
H701 H 0.45213 0.53726 0.27096 0.0
H702 H 0.27391 0.39313 0.26182 0.0
H703 H 0.33801 0.44064 0.25891 0.0
H704 H 0.35709 0.5532 0.24789 0.0
C705 C 0.47928 0.63835 0.26794 0.0
C706 C 0.43164 0.5406 0.26569 0.0
C707 C 0.51316 0.6695 0.27044 0.0
C708 C 0.2808 0.42179 0.26191 0.0
C709 C 0.31763 0.44907 0.26029 0.0
C710 C 0.37744 0.5492 0.25297 0.0
C711 C 0.4775 0.60728 0.26213 0.0
C712 C 0.44096 0.57449 0.2599 0.0
C713 C 0.32793 0.48664 0.26041 0.0
C714 C 0.36738 0.51588 0.25942 0.0
H715 H 0.56967 0.63984 0.2584 0.0
H716 H 0.5095 0.58399 0.2544 0.0
H717 H 0.42048 0.60419 0.24869 0.0
H718 H 0.24288 0.47719 0.26474 0.0
H719 H 0.30717 0.52481 0.26236 0.0
C720 C 0.81679 0.56241 0.79442 0.0
C721 C 0.83862 0.59527 0.78759 0.0
C722 C 0.82717 0.53551 0.7953 0.0
C723 C 0.90666 0.51993 0.79045 0.0
H724 H 0.82913 0.41731 0.79034 0.0
C725 C 0.92499 0.39141 0.78243 0.0
C726 C 0.9046 0.36158 0.7908 0.0
C727 C 0.92135 0.42293 0.78304 0.0
C728 C 0.85106 0.44588 0.79049 0.0
H729 H 0.88832 0.62562 0.7762 0.0
H730 H 0.90574 0.57806 0.77729 0.0
H731 H 0.81308 0.4656 0.78881 0.0
H732 H 0.86658 0.34216 0.80691 0.0
H733 H 0.85998 0.39688 0.80784 0.0
H734 H 0.94459 0.49948 0.79163 0.0
C735 C 0.88115 0.57345 0.78231 0.0
C736 C 0.84189 0.47363 0.78967 0.0
C737 C 0.87104 0.60064 0.78161 0.0
C738 C 0.88243 0.36466 0.80028 0.0
C739 C 0.87852 0.39587 0.80079 0.0
C740 C 0.91585 0.492 0.79106 0.0
C741 C 0.85931 0.54047 0.78916 0.0
C742 C 0.86951 0.51106 0.78977 0.0
C743 C 0.89702 0.42475 0.79192 0.0
C744 C 0.88806 0.45476 0.79122 0.0
H745 H 0.79186 0.55761 0.79926 0.0
H746 H 0.81006 0.51092 0.8009 0.0
H747 H 0.92867 0.54841 0.7907 0.0
H748 H 0.94228 0.38967 0.77504 0.0
H749 H 0.93588 0.44489 0.77609 0.0
C750 C 0.62836 0.54712 0.79276 0.0
C751 C 0.662 0.54841 0.79038 0.0
C752 C 0.59593 0.51291 0.79431 0.0
C753 C 0.56295 0.41568 0.80266 0.0
H754 H 0.48172 0.39107 0.77929 0.0
C755 C 0.45762 0.26519 0.79033 0.0
C756 C 0.42072 0.25539 0.78818 0.0
C757 C 0.48458 0.30214 0.79212 0.0
C758 C 0.50378 0.39759 0.78607 0.0
H759 H 0.68851 0.51546 0.78817 0.0
H760 H 0.63262 0.45648 0.79109 0.0
H761 H 0.53272 0.45465 0.78045 0.0
H762 H 0.38314 0.27681 0.78643 0.0
H763 H 0.43001 0.34108 0.78978 0.0
H764 H 0.53461 0.35882 0.80821 0.0
C765 C 0.63097 0.4815 0.79171 0.0
C766 C 0.53295 0.43405 0.78673 0.0
C767 C 0.66294 0.51532 0.78995 0.0
C768 C 0.41136 0.28338 0.78797 0.0
C769 C 0.43828 0.32032 0.78984 0.0
C770 C 0.53374 0.37938 0.80209 0.0
C771 C 0.59708 0.47982 0.79379 0.0
C772 C 0.56328 0.44317 0.79477 0.0
C773 C 0.47527 0.33021 0.79191 0.0
C774 C 0.50429 0.36962 0.79352 0.0
H775 H 0.62701 0.57232 0.79312 0.0
H776 H 0.57005 0.51227 0.79589 0.0
H777 H 0.58587 0.4221 0.80904 0.0
H778 H 0.46585 0.24438 0.79049 0.0
H779 H 0.51288 0.30874 0.79343 0.0
C780 C 0.47087 0.09775 0.78318 0.0
C781 C 0.46164 0.12029 0.79041 0.0
C782 C 0.50628 0.10228 0.78402 0.0
C783 C 0.59432 0.14978 0.80292 0.0
H784 H 0.63693 0.14272 0.77067 0.0
C785 C 0.75156 0.20977 0.79456 0.0
C786 C 0.76129 0.18555 0.78869 0.0
C787 C 0.71447 0.20034 0.79547 0.0
C788 C 0.62531 0.14458 0.77976 0.0
H789 H 0.48146 0.16411 0.80458 0.0
H790 H 0.54321 0.17282 0.80577 0.0
H791 H 0.57263 0.12708 0.77132 0.0
H792 H 0.73971 0.13265 0.77904 0.0
H793 H 0.67542 0.11671 0.78045 0.0
H794 H 0.64779 0.16862 0.81119 0.0
C795 C 0.52325 0.1511 0.79963 0.0
C796 C 0.58832 0.13531 0.78018 0.0
C797 C 0.4878 0.14625 0.79891 0.0
C798 C 0.73323 0.1519 0.78369 0.0
C799 C 0.69637 0.14279 0.78442 0.0
C800 C 0.63151 0.15956 0.80245 0.0
C801 C 0.53329 0.12976 0.79199 0.0
C802 C 0.57226 0.1378 0.79176 0.0
C803 C 0.68658 0.16686 0.79031 0.0
C804 C 0.64733 0.15703 0.79086 0.0
H805 H 0.45113 0.07741 0.77659 0.0
H806 H 0.51266 0.0847 0.77821 0.0
H807 H 0.58288 0.1515 0.81207 0.0
H808 H 0.77253 0.23585 0.79852 0.0
H809 H 0.70762 0.21948 0.8 0.0
C810 C 0.05817 0.25793 0.59437 0.0
C811 C 0.02404 0.22554 0.59594 0.0
C812 C 0.09029 0.25575 0.5926 0.0
C813 C 0.12258 0.19114 0.58324 0.0
H814 H 0.20263 0.24575 0.60723 0.0
C815 C 0.2284 0.14599 0.59562 0.0
C816 C 0.26521 0.1735 0.59764 0.0
C817 C 0.20103 0.15552 0.59392 0.0
C818 C 0.18085 0.23073 0.6003 0.0
H819 H -0.00376 0.16568 0.59633 0.0
H820 H 0.05163 0.16194 0.59312 0.0
H821 H 0.15189 0.25862 0.60603 0.0
H822 H 0.30217 0.2327 0.59926 0.0
H823 H 0.25463 0.24915 0.59614 0.0
H824 H 0.151 0.16272 0.57766 0.0
C825 C 0.05396 0.18896 0.59326 0.0
C826 C 0.15185 0.23822 0.5996 0.0
C827 C 0.02225 0.19114 0.59521 0.0
C828 C 0.27405 0.21071 0.59782 0.0
C829 C 0.24675 0.22021 0.59608 0.0
C830 C 0.1516 0.18376 0.5839 0.0
C831 C 0.0884 0.22115 0.59212 0.0
C832 C 0.12198 0.21783 0.5913 0.0
C833 C 0.20988 0.19276 0.59415 0.0
C834 C 0.18065 0.20283 0.59266 0.0
H835 H 0.06015 0.28475 0.5949 0.0
H836 H 0.11656 0.281 0.59173 0.0
H837 H 0.10009 0.1753 0.57664 0.0
H838 H 0.22064 0.11709 0.59545 0.0
H839 H 0.17279 0.13361 0.59266 0.0
C840 C 0.76265 0.80538 0.59636 0.0
C841 C 0.79584 0.80476 0.59574 0.0
C842 C 0.76284 0.83895 0.59503 0.0
C843 C 0.82005 0.93477 0.58304 0.0
H844 H 0.77637 0.96263 0.61059 0.0
C845 C 0.87197 0.08635 0.59551 0.0
C846 C 0.84645 0.09729 0.59906 0.0
C847 C 0.86073 0.04905 0.59381 0.0
C848 C 0.7882 0.95512 0.60269 0.0
H849 H 0.85482 0.83805 0.59272 0.0
H850 H 0.85507 0.89589 0.59024 0.0
H851 H 0.76403 0.89901 0.60921 0.0
H852 H 0.78895 0.07733 0.60364 0.0
H853 H 0.76937 0.01214 0.60061 0.0
H854 H 0.84502 0.99087 0.57669 0.0
C855 C 0.82892 0.87087 0.59176 0.0
C856 C 0.78103 0.91864 0.60189 0.0
C857 C 0.8288 0.83771 0.59327 0.0
C858 C 0.80939 0.06992 0.60092 0.0
C859 C 0.79814 0.03252 0.59923 0.0
C860 C 0.82713 0.97109 0.58382 0.0
C861 C 0.79611 0.87206 0.59279 0.0
C862 C 0.79784 0.90842 0.59229 0.0
C863 C 0.82368 0.02166 0.59559 0.0
C864 C 0.81225 0.982 0.59389 0.0
H865 H 0.73691 0.78029 0.5983 0.0
H866 H 0.73713 0.83911 0.59584 0.0
H867 H 0.83292 0.92755 0.57541 0.0
H868 H 0.90076 0.10657 0.59405 0.0
H869 H 0.88129 0.04165 0.59126 0.0
C870 C 0.21315 0.98479 0.58897 0.0
C871 C 0.22987 -0.0014 0.60096 0.0
C872 C 0.17822 0.95319 0.58828 0.0
C873 C 0.09517 0.9041 0.59039 0.0
H874 H 0.06335 0.8224 0.6143 0.0
C875 C 0.94151 0.79904 0.59881 0.0
C876 C 0.93108 0.76173 0.60064 0.0
C877 C 0.97871 0.82622 0.59826 0.0
C878 C 0.07184 0.84477 0.60745 0.0
H879 H 0.22391 0.9897 0.62158 0.0
H880 H 0.16294 0.93495 0.62042 0.0
H881 H 0.1277 0.87134 0.61408 0.0
H882 H 0.95184 0.72381 0.60326 0.0
H883 H 0.01671 0.77119 0.60213 0.0
H884 H 0.03945 0.87738 0.58366 0.0
C885 C 0.17679 0.94805 0.61152 0.0
C886 C 0.10869 0.87307 0.60742 0.0
C887 C 0.2117 0.97956 0.6122 0.0
C888 C 0.95882 0.75227 0.60188 0.0
C889 C -0.00393 0.77949 0.6013 0.0
C890 C 0.05836 0.87579 0.5904 0.0
C891 C 0.15929 0.93483 0.59957 0.0
C892 C 0.12075 0.90331 0.59899 0.0
C893 C 0.00649 0.81682 0.59948 0.0
C894 C 0.04611 0.84598 0.59904 0.0
H895 H 0.22662 -0.00107 0.58015 0.0
H896 H 0.16583 0.94344 0.57891 0.0
H897 H 0.10331 0.92712 0.58386 0.0
H898 H 0.92096 0.80743 0.59789 0.0
H899 H 0.98568 0.85474 0.59707 0.0
C900 C 0.50565 0.03242 0.07535 0.0
C901 C 0.48643 -0.00272 0.081 0.0
C902 C 0.51507 0.03605 0.06221 0.0
C903 C 0.48342 0.97942 0.0323 0.0
H904 H 0.56483 0.06565 1.01658 0.0
C905 C 0.4952 0.99595 0.97695 0.0
C906 C 0.49899 0.02973 0.9729 0.0
C907 C 0.50194 0.99107 0.98988 0.0
C908 C 0.54203 0.04127 1.02083 0.0
H909 H 0.46453 0.93885 0.07783 0.0
H910 H 0.48267 0.94513 0.05533 0.0
H911 H 0.56151 0.05953 0.04003 0.0
H912 H 0.51522 0.0855 0.97879 0.0
H913 H 0.52755 0.07735 1.00104 0.0
H914 H 0.46353 0.96155 1.01317 0.0
C915 C 0.48921 0.96987 0.06068 0.0
C916 C 0.53999 0.03787 0.03429 0.0
C917 C 0.4792 0.96627 0.07364 0.0
C918 C 0.51207 0.05913 0.98167 0.0
C919 C 0.51934 0.05452 0.99444 0.0
C920 C 0.48561 0.9827 1.01888 0.0
C921 C 0.50581 0.00458 0.05459 0.0
C922 C 0.51027 0.00718 0.04024 0.0
C923 C 0.51318 0.02011 0.99885 0.0
C924 C 0.51449 0.01401 1.01296 0.0
H925 H 0.51108 0.05669 0.08081 0.0
H926 H 0.52767 0.06325 0.05789 0.0
H927 H 0.45962 0.95571 0.03642 0.0
H928 H 0.48488 0.97279 0.97038 0.0
H929 H 0.49717 0.96427 0.99296 0.0
C930 C 0.9626 0.45854 0.98312 0.0
C931 C 0.9871 0.48043 0.9734 0.0
C932 C 0.9675 0.47078 0.99581 0.0
C933 C 0.04027 0.53296 1.01813 0.0
H934 H 0.95722 0.49305 0.04165 0.0
C935 C 0.05392 0.49566 0.06975 0.0
C936 C 0.03113 0.4956 0.07967 0.0
C937 C 0.04982 0.50455 0.05716 0.0
C938 C 0.98086 0.5052 0.03529 0.0
H939 H 0.0353 0.53323 0.96924 0.0
H940 H 0.04401 0.55523 0.99166 0.0
H941 H 0.94655 0.49098 1.01859 0.0
H942 H 0.98673 0.50601 0.08426 0.0
H943 H 0.97957 0.52218 0.06204 0.0
H944 H 0.07459 0.54753 0.03484 0.0
C945 C 0.02104 0.52819 0.98941 0.0
C946 C 0.97471 0.50352 1.02199 0.0
C947 C 0.01602 0.51578 0.97656 0.0
C948 C 0.00463 0.50578 0.07678 0.0
C949 C 0.0005 0.51486 0.06405 0.0
C950 C 0.04644 0.53516 0.03144 0.0
C951 C -0.00292 0.5055 0.99925 0.0
C952 C 0.00419 0.51559 1.0132 0.0
C953 C 0.02287 0.51397 0.05403 0.0
C954 C 0.01673 0.51954 0.04019 0.0
H955 H 0.93994 0.43116 0.98102 0.0
H956 H 0.94888 0.45201 1.00302 0.0
H957 H 0.06375 0.54276 1.01175 0.0
H958 H 0.07463 0.48792 0.07163 0.0
H959 H 0.067 0.50254 0.04979 0.0
C960 C 0.5036 0.52388 0.97893 0.0
C961 C 0.53283 0.5193 0.9746 0.0
C962 C 0.49253 0.51708 0.99192 0.0
C963 C 0.50172 0.47391 1.02234 0.0
H964 H 0.49924 0.55532 0.0391 0.0
C965 C 0.5303 0.50546 0.07702 0.0
C966 C 0.5154 0.52496 0.08314 0.0
C967 C 0.52357 0.49673 0.06386 0.0
C968 C 0.49896 0.53178 0.03464 0.0
H969 H 0.57177 0.50195 0.98016 0.0
H970 H 0.55223 0.48951 1.00249 0.0
H971 H 0.50159 0.55374 1.01577 0.0
H972 H 0.47991 0.54834 0.08071 0.0
H973 H 0.46634 0.53133 0.05813 0.0
H974 H 0.49986 0.45231 0.04125 0.0
C975 C 0.53777 0.49837 0.99605 0.0
C976 C 0.50032 0.53095 1.02118 0.0
C977 C 0.54912 0.5057 0.98323 0.0
C978 C 0.49156 0.53308 0.0762 0.0
C979 C 0.48429 0.52384 0.06318 0.0
C980 C 0.50009 0.47459 0.03583 0.0
C981 C 0.51008 0.50494 1.0007 0.0
C982 C 0.50258 0.50248 1.01485 0.0
C983 C 0.50157 0.50712 0.05663 0.0
C984 C 0.49943 0.50394 0.04221 0.0
H985 H 0.4908 0.53462 0.9725 0.0
H986 H 0.47095 0.52222 0.99518 0.0
H987 H 0.50305 0.45133 1.01777 0.0
H988 H 0.54942 0.49961 0.08211 0.0
H989 H 0.53761 0.48406 0.05921 0.0
C990 C 0.14243 0.29532 0.40599 0.0
C991 C 0.15112 0.32649 0.41348 0.0
C992 C 0.15262 0.29898 0.39304 0.0
C993 C 0.20482 0.36784 0.36686 0.0
H994 H 0.127 0.29367 0.34555 0.0
C995 C 0.17559 0.3928 0.31475 0.0
C996 C 0.16404 0.36438 0.30563 0.0
C997 C 0.18219 0.38721 0.3275 0.0
C998 C 0.14939 0.31423 0.35132 0.0
H999 H 0.17854 0.38611 0.41358 0.0
H1000 H 0.19527 0.39284 0.39074 0.0
H1001 H 0.12362 0.28638 0.36876 0.0
H1002 H 0.15153 0.3081 0.30253 0.0
H1003 H 0.16231 0.29779 0.3251 0.0
H1004 H 0.22922 0.39667 0.34925 0.0
C1005 C 0.18154 0.36541 0.3949 0.0
C1006 C 0.14757 0.31009 0.36472 0.0
C1007 C 0.17205 0.3617 0.40801 0.0
C1008 C 0.1606 0.3305 0.30938 0.0
C1009 C 0.16656 0.32461 0.32228 0.0
C1010 C 0.20638 0.37219 0.35344 0.0
C1011 C 0.17072 0.33395 0.3871 0.0
C1012 C 0.17495 0.33708 0.37274 0.0
C1013 C 0.1768 0.35277 0.33153 0.0
C1014 C 0.17833 0.34572 0.34553 0.0
H1015 H 0.12631 0.26785 0.41003 0.0
H1016 H 0.14487 0.27414 0.38756 0.0
H1017 H 0.22679 0.38892 0.37262 0.0
H1018 H 0.17849 0.41923 0.31211 0.0
H1019 H 0.18961 0.40933 0.33436 0.0
C1020 C 0.65947 0.83502 0.41062 0.0
C1021 C 0.69285 0.83933 0.4153 0.0
C1022 C 0.65622 0.84215 0.39755 0.0
C1023 C 0.71142 0.88318 0.36727 0.0
H1024 H 0.62583 0.80428 0.35042 0.0
C1025 C 0.7079 0.84447 0.31319 0.0
C1026 C 0.67396 0.82905 0.30676 0.0
C1027 C 0.71033 0.85436 0.32625 0.0
C1028 C 0.64968 0.82703 0.35492 0.0
H1029 H 0.74946 0.85675 0.41034 0.0
H1030 H 0.74406 0.86932 0.38793 0.0
H1031 H 0.62854 0.80693 0.37379 0.0
H1032 H 0.61663 0.81385 0.30854 0.0
H1033 H 0.62101 0.83229 0.33101 0.0
H1034 H 0.7331 0.90242 0.34832 0.0
C1035 C 0.72029 0.86064 0.3941 0.0
C1036 C 0.65115 0.82858 0.36839 0.0
C1037 C 0.72336 0.85322 0.40699 0.0
C1038 C 0.64321 0.82598 0.31329 0.0
C1039 C 0.64563 0.83607 0.32622 0.0
C1040 C 0.70999 0.88157 0.35377 0.0
C1041 C 0.68643 0.85411 0.38904 0.0
C1042 C 0.68239 0.85618 0.37478 0.0
C1043 C 0.6788 0.84892 0.33306 0.0
C1044 C 0.67936 0.85307 0.3474 0.0
H1045 H 0.63545 0.82403 0.4168 0.0
H1046 H 0.62978 0.83715 0.39402 0.0
H1047 H 0.73573 0.9052 0.37182 0.0
H1048 H 0.73179 0.84635 0.30843 0.0
H1049 H 0.73631 0.86397 0.3312 0.0
C1050 C 0.21173 0.83635 0.31335 0.0
C1051 C 0.19649 0.85145 0.30492 0.0
C1052 C 0.20099 0.82968 0.32624 0.0
C1053 C 0.16952 0.86825 0.3513 0.0
H1054 H 0.16902 0.79124 0.37238 0.0
C1055 C 0.16599 0.87747 0.40613 0.0
C1056 C 0.18996 0.8697 0.41314 0.0
C1057 C 0.15786 0.86688 0.39327 0.0
C1058 C 0.16928 0.81306 0.36666 0.0
H1059 H 0.15653 0.86962 0.30311 0.0
H1060 H 0.13756 0.85812 0.32587 0.0
H1061 H 0.16846 0.78645 0.34891 0.0
H1062 H 0.2232 0.84343 0.41247 0.0
H1063 H 0.21 0.82566 0.3897 0.0
H1064 H 0.17207 0.89582 0.36886 0.0
C1065 C 0.15794 0.8514 0.32245 0.0
C1066 C 0.16875 0.81021 0.35319 0.0
C1067 C 0.16843 0.85763 0.30941 0.0
C1068 C 0.20427 0.84932 0.40727 0.0
C1069 C 0.19666 0.83923 0.39423 0.0
C1070 C 0.17023 0.87119 0.36472 0.0
C1071 C 0.175 0.83842 0.33111 0.0
C1072 C 0.16953 0.83813 0.34533 0.0
C1073 C 0.17432 0.84905 0.38693 0.0
C1074 C 0.17066 0.84393 0.37263 0.0
H1075 H 0.23352 0.83143 0.31013 0.0
H1076 H 0.21502 0.82005 0.33257 0.0
H1077 H 0.17094 0.89066 0.3456 0.0
H1078 H 0.15448 0.89305 0.41049 0.0
H1079 H 0.13964 0.87393 0.38817 0.0
C1080 C 0.8345 0.70542 0.74232 0.0
C1081 C 0.81629 0.67144 0.74878 0.0
C1082 C 0.8442 0.70678 0.72927 0.0
C1083 C 0.81302 0.64528 0.70073 0.0
H1084 H 0.89516 0.72801 0.68381 0.0
C1085 C 0.82412 0.6548 0.64496 0.0
C1086 C 0.83051 0.68903 0.64028 0.0
C1087 C 0.82979 0.6507 0.6581 0.0
C1088 C 0.87207 0.70461 0.68839 0.0
H1089 H 0.79625 0.61283 0.74715 0.0
H1090 H 0.81442 0.61527 0.72475 0.0
H1091 H 0.89195 0.72581 0.7073 0.0
H1092 H 0.84991 0.74612 0.64535 0.0
H1093 H 0.86002 0.73921 0.66787 0.0
H1094 H 0.79249 0.62468 0.68186 0.0
C1095 C 0.82033 0.64077 0.72945 0.0
C1096 C 0.87018 0.70345 0.70187 0.0
C1097 C 0.81032 0.63941 0.74234 0.0
C1098 C 0.84465 0.71933 0.6487 0.0
C1099 C 0.85074 0.71543 0.66164 0.0
C1100 C 0.81492 0.64645 0.68727 0.0
C1101 C 0.83594 0.67416 0.72255 0.0
C1102 C 0.84024 0.67411 0.70824 0.0
C1103 C 0.84252 0.68093 0.66665 0.0
C1104 C 0.84398 0.67656 0.68089 0.0
H1105 H 0.83882 0.73038 0.74703 0.0
H1106 H 0.85604 0.73301 0.72428 0.0
H1107 H 0.78918 0.62247 0.70522 0.0
H1108 H 0.813 0.63097 0.63867 0.0
H1109 H 0.82338 0.62374 0.66163 0.0
C1110 C 0.35403 0.13578 0.64956 0.0
C1111 C 0.34961 0.15571 0.63946 0.0
C1112 C 0.35111 0.14383 0.66237 0.0
C1113 C 0.36325 0.21216 0.68538 0.0
H1114 H 0.2947 0.12762 0.70579 0.0
C1115 C 0.38496 0.19049 0.73846 0.0
C1116 C 0.35473 0.17193 0.74679 0.0
C1117 C 0.37993 0.19699 0.72564 0.0
C1118 C 0.31341 0.1518 0.70025 0.0
H1119 H 0.34067 0.20129 0.63497 0.0
H1120 H 0.3368 0.2164 0.65772 0.0
H1121 H 0.29489 0.12263 0.68238 0.0
H1122 H 0.29554 0.14693 0.74843 0.0
H1123 H 0.28638 0.15752 0.72572 0.0
H1124 H 0.38342 0.2406 0.70336 0.0
C1125 C 0.34181 0.19396 0.65552 0.0
C1126 C 0.31367 0.14884 0.68684 0.0
C1127 C 0.34418 0.18545 0.64254 0.0
C1128 C 0.31933 0.16167 0.74223 0.0
C1129 C 0.31413 0.1675 0.72923 0.0
C1130 C 0.36334 0.215 0.69886 0.0
C1131 C 0.34425 0.17244 0.66552 0.0
C1132 C 0.33934 0.17858 0.6793 0.0
C1133 C 0.34437 0.18438 0.7207 0.0
C1134 C 0.33918 0.18444 0.70648 0.0
H1135 H 0.35868 0.11298 0.64758 0.0
H1136 H 0.35387 0.1273 0.66987 0.0
H1137 H 0.38341 0.23543 0.6798 0.0
H1138 H 0.41254 0.19853 0.74174 0.0
H1139 H 0.40378 0.20963 0.71937 0.0
C1140 C 0.84477 0.20077 0.64386 0.0
C1141 C 0.87559 0.19781 0.64037 0.0
C1142 C 0.83192 0.19388 0.65665 0.0
C1143 C 0.83728 0.15054 0.6874 0.0
H1144 H 0.83141 0.23049 0.70387 0.0
C1145 C 0.86048 0.18053 0.74214 0.0
C1146 C 0.84508 0.19991 0.74799 0.0
C1147 C 0.85459 0.17185 0.72897 0.0
C1148 C 0.83199 0.20731 0.69948 0.0
H1149 H 0.91586 0.18358 0.64724 0.0
H1150 H 0.89327 0.17104 0.66921 0.0
H1151 H 0.83696 0.23017 0.6806 0.0
H1152 H 0.80927 0.22278 0.74516 0.0
H1153 H 0.79707 0.20573 0.72254 0.0
H1154 H 0.83308 0.128 0.70629 0.0
C1155 C 0.87897 0.17873 0.66226 0.0
C1156 C 0.83521 0.20724 0.68607 0.0
C1157 C 0.89212 0.18625 0.64966 0.0
C1158 C 0.82139 0.20773 0.74082 0.0
C1159 C 0.81488 0.19844 0.7278 0.0
C1160 C 0.83371 0.1504 0.70083 0.0
C1161 C 0.8492 0.1831 0.66601 0.0
C1162 C 0.83893 0.17942 0.6799 0.0
C1163 C 0.83284 0.18205 0.7215 0.0
C1164 C 0.83195 0.1793 0.7071 0.0
H1165 H 0.83164 0.20976 0.63688 0.0
H1166 H 0.80887 0.19746 0.65928 0.0
H1167 H 0.83973 0.12848 0.68291 0.0
H1168 H 0.87942 0.17486 0.74744 0.0
H1169 H 0.86914 0.15944 0.7245 0.0
C1170 C 0.23067 0.87628 0.22311 0.0
C1171 C 0.23714 0.89768 0.23424 0.0
C1172 C 0.25666 0.88876 0.21305 0.0
C1173 C 0.35546 0.95941 0.20564 0.0
H1174 H 0.32283 0.93543 0.17026 0.0
C1175 C 0.4527 0.02882 0.16162 0.0
C1176 C 0.45072 0.00479 0.15181 0.0
C1177 C 0.42676 0.01593 0.17169 0.0
C1178 C 0.33242 0.94225 0.1801 0.0
H1179 H 0.2757 0.94915 0.24349 0.0
H1180 H 0.31999 0.97143 0.22598 0.0
H1181 H 0.27754 0.91233 0.1876 0.0
H1182 H 0.4203 0.94832 0.14499 0.0
H1183 H 0.37465 0.92625 0.16223 0.0
H1184 H 0.41032 0.99012 0.19801 0.0
C1185 C 0.29563 0.9445 0.22501 0.0
C1186 C 0.3064 0.92877 0.1901 0.0
C1187 C 0.26995 0.93185 0.23507 0.0
C1188 C 0.42227 0.96772 0.15228 0.0
C1189 C 0.39607 0.95502 0.16218 0.0
C1190 C 0.38138 0.97331 0.19563 0.0
C1191 C 0.2896 0.92318 0.21382 0.0
C1192 C 0.31744 0.93709 0.20307 0.0
C1193 C 0.39798 0.97888 0.17205 0.0
C1194 C 0.37024 0.96486 0.18272 0.0
H1195 H 0.20574 0.84973 0.22222 0.0
H1196 H 0.25104 0.87112 0.20475 0.0
H1197 H 0.36546 0.96587 0.21544 0.0
H1198 H 0.47432 0.0575 0.16154 0.0
H1199 H 0.42893 0.03509 0.17912 0.0
C1200 C 0.01745 0.42215 0.15154 0.0
C1201 C 0.02086 0.45736 0.15112 0.0
C1202 C 0.03134 0.41158 0.16194 0.0
C1203 C 0.10175 0.4435 0.18625 0.0
H1204 H 0.03447 0.35519 0.20517 0.0
C1205 C 0.14924 0.3936 0.23097 0.0
C1206 C 0.13061 0.35578 0.23387 0.0
C1207 C 0.13703 0.40731 0.22091 0.0
C1208 C 0.05399 0.37949 0.19988 0.0
H1209 H 0.04225 0.50946 0.16115 0.0
H1210 H 0.06779 0.49122 0.17931 0.0
H1211 H 0.01129 0.37703 0.18776 0.0
H1212 H 0.08583 0.30229 0.22833 0.0
H1213 H 0.06594 0.32539 0.21024 0.0
H1214 H 0.14486 0.4452 0.19784 0.0
C1215 C 0.05374 0.47173 0.1716 0.0
C1216 C 0.04046 0.39222 0.18998 0.0
C1217 C 0.03899 0.48207 0.16128 0.0
C1218 C 0.10063 0.33161 0.22624 0.0
C1219 C 0.08891 0.34511 0.21599 0.0
C1220 C 0.11551 0.43032 0.196 0.0
C1221 C 0.04973 0.43623 0.17206 0.0
C1222 C 0.06416 0.42427 0.18304 0.0
C1223 C 0.1063 0.38333 0.21334 0.0
C1224 C 0.09187 0.39792 0.20295 0.0
H1225 H 0.00373 0.40254 0.14383 0.0
H1226 H 0.02806 0.38417 0.162 0.0
H1227 H 0.12068 0.46809 0.18095 0.0
H1228 H 0.1725 0.41275 0.23676 0.0
H1229 H 0.15108 0.43687 0.2194 0.0
C1230 C 0.62834 0.75406 0.23624 0.0
C1231 C 0.66495 0.78335 0.23594 0.0
C1232 C 0.61463 0.72715 0.22654 0.0
C1233 C 0.64532 0.68985 0.19923 0.0
H1234 H 0.5425 0.6439 0.18926 0.0
C1235 C 0.58895 0.60093 0.1532 0.0
C1236 C 0.55551 0.56731 0.15413 0.0
C1237 C 0.60141 0.62634 0.16335 0.0
C1238 C 0.57121 0.65621 0.19201 0.0
H1239 H 0.71567 0.80781 0.225 0.0
H1240 H 0.69162 0.76193 0.20779 0.0
H1241 H 0.56608 0.69035 0.20625 0.0
H1242 H 0.50861 0.53434 0.16643 0.0
H1243 H 0.53017 0.57915 0.1842 0.0
H1244 H 0.65049 0.65631 0.1847 0.0
C1245 C 0.67358 0.7588 0.21574 0.0
C1246 C 0.58483 0.68289 0.20182 0.0
C1247 C 0.6874 0.78545 0.22557 0.0
C1248 C 0.53451 0.55995 0.16543 0.0
C1249 C 0.54681 0.58569 0.17558 0.0
C1250 C 0.63179 0.66355 0.18933 0.0
C1251 C 0.63696 0.72904 0.21608 0.0
C1252 C 0.62219 0.70026 0.2056 0.0
C1253 C 0.58063 0.61911 0.17471 0.0
C1254 C 0.59457 0.6464 0.18555 0.0
H1255 H 0.61015 0.75186 0.24402 0.0
H1256 H 0.58654 0.70461 0.22736 0.0
H1257 H 0.67396 0.70169 0.20197 0.0
H1258 H 0.60578 0.60758 0.14461 0.0
H1259 H 0.62727 0.65193 0.16224 0.0
C1260 C 0.98542 0.41471 0.90307 0.0
C1261 C 0.99453 0.45185 0.90171 0.0
C1262 C 0.97076 0.39003 0.89276 0.0
C1263 C 0.97518 0.37993 0.85936 0.0
H1264 H 0.87548 0.29676 0.8602 0.0
C1265 C 0.91824 0.27889 0.81641 0.0
C1266 C 0.89091 0.24194 0.81844 0.0
C1267 C 0.92908 0.30497 0.82629 0.0
C1268 C 0.90361 0.31935 0.85983 0.0
H1269 H -0.00338 0.49248 0.88825 0.0
H1270 H 0.97258 0.4494 0.86989 0.0
H1271 H 0.89774 0.34144 0.8778 0.0
H1272 H 0.85447 0.20306 0.83268 0.0
H1273 H 0.87498 0.24783 0.85025 0.0
H1274 H 0.98255 0.35725 0.84199 0.0
C1275 C 0.97582 0.43941 0.87916 0.0
C1276 C 0.91614 0.34524 0.86988 0.0
C1277 C 0.98959 0.464 0.88963 0.0
C1278 C 0.87531 0.23143 0.83076 0.0
C1279 C 0.88693 0.25739 0.84082 0.0
C1280 C 0.96306 0.35363 0.84947 0.0
C1281 C 0.966 0.40212 0.88069 0.0
C1282 C 0.95197 0.37584 0.8697 0.0
C1283 C 0.91402 0.29475 0.83876 0.0
C1284 C 0.92696 0.32285 0.84946 0.0
H1285 H 0.98956 0.40456 0.91216 0.0
H1286 H 0.96382 0.36157 0.89415 0.0
H1287 H 0.00317 0.40296 0.85912 0.0
H1288 H 0.93125 0.28788 0.80707 0.0
H1289 H 0.94921 0.33328 0.82402 0.0
C1290 C 0.60227 0.5985 0.90434 0.0
C1291 C 0.56782 0.566 0.90339 0.0
C1292 C 0.62688 0.61096 0.89396 0.0
C1293 C 0.65275 0.58072 0.86448 0.0
H1294 H 0.70091 0.68429 0.85507 0.0
C1295 C 0.74743 0.63622 0.81954 0.0
C1296 C 0.77757 0.67241 0.81972 0.0
C1297 C 0.72132 0.62321 0.82949 0.0
C1298 C 0.68831 0.65539 0.85765 0.0
H1299 H 0.53242 0.52084 0.89079 0.0
H1300 H 0.57587 0.54232 0.87261 0.0
H1301 H 0.65674 0.66143 0.87273 0.0
H1302 H 0.80434 0.72316 0.83066 0.0
H1303 H 0.75983 0.70023 0.84832 0.0
H1304 H 0.68499 0.57465 0.84974 0.0
C1305 C 0.58365 0.55824 0.88143 0.0
C1306 C 0.6627 0.64223 0.86777 0.0
C1307 C 0.5587 0.546 0.89181 0.0
C1308 C 0.78129 0.6952 0.8302 0.0
C1309 C 0.75544 0.68203 0.84028 0.0
C1310 C 0.67877 0.59395 0.85447 0.0
C1311 C 0.61798 0.59106 0.88235 0.0
C1312 C 0.64457 0.60473 0.87133 0.0
C1313 C 0.72489 0.64579 0.84009 0.0
C1314 C 0.69703 0.63156 0.85085 0.0
H1315 H 0.61022 0.61453 0.91314 0.0
H1316 H 0.65319 0.63605 0.89508 0.0
H1317 H 0.63967 0.55177 0.86707 0.0
H1318 H 0.74393 0.61781 0.81167 0.0
H1319 H 0.6981 0.59545 0.82874 0.0
C1320 C 0.36129 0.10015 0.81562 0.0
C1321 C 0.34786 0.12468 0.81753 0.0
C1322 C 0.37642 0.09018 0.82584 0.0
C1323 C 0.36913 0.07213 0.85965 0.0
H1324 H 0.47008 0.09224 0.85891 0.0
C1325 C 0.42969 0.03469 0.9033 0.0
C1326 C 0.45805 0.02643 0.90154 0.0
C1327 C 0.4178 0.04823 0.89316 0.0
C1328 C 0.44161 0.08566 0.85925 0.0
H1329 H 0.33867 0.15696 0.83179 0.0
H1330 H 0.36352 0.13792 0.84987 0.0
H1331 H 0.44635 0.11259 0.8411 0.0
H1332 H 0.49532 0.02463 0.88753 0.0
H1333 H 0.47303 0.04589 0.86952 0.0
H1334 H 0.36302 0.04327 0.87724 0.0
C1335 C 0.36324 0.12739 0.84032 0.0
C1336 C 0.42819 0.09776 0.84905 0.0
C1337 C 0.34903 0.13825 0.83 0.0
C1338 C 0.47368 0.03115 0.88923 0.0
C1339 C 0.46101 0.04375 0.87892 0.0
C1340 C 0.38215 0.05917 0.86967 0.0
C1341 C 0.37733 0.10347 0.83831 0.0
C1342 C 0.39191 0.09135 0.84921 0.0
C1343 C 0.43283 0.05262 0.88071 0.0
C1344 C 0.41877 0.06595 0.86974 0.0
H1345 H 0.36004 0.08852 0.8062 0.0
H1346 H 0.38666 0.07136 0.82405 0.0
H1347 H 0.34086 0.06631 0.85991 0.0
H1348 H 0.41659 0.03082 0.9126 0.0
H1349 H 0.39686 0.05545 0.89522 0.0
C1350 C 0.93868 0.23363 0.56862 0.0
C1351 C 0.90938 0.24098 0.56911 0.0
C1352 C 0.96378 0.24654 0.55839 0.0
C1353 C 0.9732 0.27278 0.52444 0.0
H1354 H 0.07835 0.32335 0.53106 0.0
C1355 C 0.07849 0.33755 0.48293 0.0
C1356 C 0.11265 0.33896 0.48387 0.0
C1357 C 0.05408 0.32588 0.49336 0.0
C1358 C 0.04913 0.30872 0.52897 0.0
H1359 H 0.88307 0.26718 0.55911 0.0
H1360 H 0.92649 0.28896 0.54094 0.0
H1361 H 0.03518 0.30283 0.54905 0.0
H1362 H 0.14783 0.32871 0.49642 0.0
H1363 H 0.10472 0.30691 0.51453 0.0
H1364 H 0.98665 0.27717 0.50443 0.0
C1365 C 0.93021 0.27354 0.54861 0.0
C1366 C 0.02435 0.2972 0.53933 0.0
C1367 C 0.90543 0.26119 0.55902 0.0
C1368 C 0.12178 0.32812 0.49545 0.0
C1369 C 0.09705 0.31586 0.50587 0.0
C1370 C -0.0021 0.28371 0.51408 0.0
C1371 C 0.95977 0.26648 0.54822 0.0
C1372 C 0.98611 0.27925 0.53719 0.0
C1373 C 0.06279 0.31466 0.50501 0.0
C1374 C 0.03634 0.3021 0.51615 0.0
H1375 H 0.94212 0.21761 0.57612 0.0
H1376 H 0.98593 0.24024 0.5583 0.0
H1377 H 0.94388 0.2585 0.52248 0.0
H1378 H 0.07071 0.34595 0.47415 0.0
H1379 H 0.02857 0.32629 0.49228 0.0
C1380 C 0.68659 0.7604 0.48545 0.0
C1381 C 0.68689 0.79411 0.48654 0.0
C1382 C 0.69841 0.74685 0.49564 0.0
C1383 C 0.75727 0.7749 0.52444 0.0
H1384 H 0.69843 0.67194 0.5343 0.0
C1385 C 0.79592 0.7178 0.56894 0.0
C1386 C 0.78833 0.68102 0.56898 0.0
C1387 C 0.78283 0.73114 0.55909 0.0
C1388 C 0.71564 0.70061 0.53159 0.0
H1389 H 0.70036 0.8403 0.49916 0.0
H1390 H 0.72181 0.81691 0.51698 0.0
H1391 H 0.67753 0.69642 0.51694 0.0
H1392 H 0.7613 0.62941 0.55854 0.0
H1393 H 0.73954 0.65291 0.54098 0.0
H1394 H 0.79604 0.77911 0.53869 0.0
C1395 C 0.71213 0.80087 0.50822 0.0
C1396 C 0.70346 0.71472 0.52164 0.0
C1397 C 0.69974 0.81423 0.49804 0.0
C1398 C 0.76745 0.65784 0.55882 0.0
C1399 C 0.75475 0.67137 0.5488 0.0
C1400 C 0.76976 0.7607 0.53425 0.0
C1401 C 0.71135 0.76684 0.50716 0.0
C1402 C 0.72405 0.75207 0.51795 0.0
C1403 C 0.76228 0.70834 0.54876 0.0
C1404 C 0.7491 0.72331 0.53806 0.0
H1405 H 0.67696 0.74422 0.47671 0.0
H1406 H 0.69786 0.72084 0.49441 0.0
H1407 H 0.77411 0.80364 0.52172 0.0
H1408 H 0.81216 0.73651 0.57656 0.0
H1409 H 0.78869 0.75942 0.55971 0.0
C1410 C 0.2569 0.90405 0.49357 0.0
C1411 C 0.23488 0.90619 0.48378 0.0
C1412 C 0.27019 0.93002 0.50364 0.0
C1413 C 0.25547 0.00302 0.51927 0.0
H1414 H 0.35001 0.03201 0.535 0.0
C1415 C 0.32708 0.12477 0.55593 0.0
C1416 C 0.34127 0.11719 0.56706 0.0
C1417 C 0.31439 0.09976 0.54557 0.0
C1418 C 0.32345 0.0241 0.53074 0.0
H1419 H 0.20929 0.93707 0.47697 0.0
H1420 H 0.23372 0.98308 0.49392 0.0
H1421 H 0.32775 0.98725 0.51749 0.0
H1422 H 0.35351 0.07758 0.57599 0.0
H1423 H 0.33211 0.0346 0.55794 0.0
H1424 H 0.25178 0.04067 0.53242 0.0
C1425 C 0.24017 0.96102 0.49418 0.0
C1426 C 0.31049 -0.00185 0.52072 0.0
C1427 C 0.22651 0.93482 0.48428 0.0
C1428 C 0.34282 0.08434 0.56755 0.0
C1429 C 0.3307 0.05972 0.55716 0.0
C1430 C 0.2687 0.02935 0.52918 0.0
C1431 C 0.26209 0.95903 0.5041 0.0
C1432 C 0.27616 0.98698 0.51483 0.0
C1433 C 0.3162 0.06697 0.54604 0.0
C1434 C 0.30276 0.04008 0.53511 0.0
H1435 H 0.26366 0.88218 0.49351 0.0
H1436 H 0.28639 0.92693 0.51115 0.0
H1437 H 0.22859 0.99483 0.51527 0.0
H1438 H 0.32543 0.14978 0.55529 0.0
H1439 H 0.30353 0.10627 0.53712 0.0
C1440 C 0.47718 0.35819 0.13006 0.0
C1441 C 0.49614 0.38304 0.11999 0.0
C1442 C 0.46847 0.32114 0.12927 0.0
C1443 C 0.4979 0.26169 0.1127 0.0
H1444 H 0.40449 0.18049 0.12443 0.0
C1445 C 0.46427 0.11312 0.10402 0.0
C1446 C 0.44881 0.08787 0.11422 0.0
C1447 C 0.465 0.1469 0.10428 0.0
C1448 C 0.43083 0.20285 0.12121 0.0
H1449 H 0.52025 0.38841 0.10111 0.0
H1450 H 0.50508 0.32404 0.09969 0.0
H1451 H 0.41628 0.244 0.12594 0.0
H1452 H 0.42047 0.07744 0.13248 0.0
H1453 H 0.42205 0.13701 0.13308 0.0
H1454 H 0.51291 0.22113 0.10815 0.0
C1455 C 0.49725 0.33309 0.10829 0.0
C1456 C 0.43761 0.2393 0.12208 0.0
C1457 C 0.50581 0.37 0.10906 0.0
C1458 C 0.43203 0.09617 0.12438 0.0
C1459 C 0.43315 0.13041 0.12474 0.0
C1460 C 0.49121 0.22546 0.11187 0.0
C1461 C 0.47871 0.30816 0.11841 0.0
C1462 C 0.47118 0.26921 0.11774 0.0
C1463 C 0.45093 0.1568 0.1149 0.0
C1464 C 0.45747 0.19539 0.11599 0.0
H1465 H 0.46934 0.36744 0.1386 0.0
H1466 H 0.45448 0.3029 0.1373 0.0
H1467 H 0.52441 0.28396 0.10955 0.0
H1468 H 0.47738 0.10741 0.09605 0.0
H1469 H 0.47789 0.16587 0.09633 0.0
C1470 C 0.6428 0.14204 0.1047 0.0
C1471 C 0.63227 0.11668 0.11489 0.0
C1472 C 0.67945 0.17002 0.10334 0.0
C1473 C 0.77532 0.19902 0.11245 0.0
H1474 H 0.7909 0.29723 0.10608 0.0
C1475 C 0.9185 0.33336 0.11616 0.0
C1476 C 0.9247 0.36312 0.10819 0.0
C1477 C 0.88429 0.3006 0.11601 0.0
C1478 C 0.78721 0.26994 0.10761 0.0
H1479 H 0.65185 0.09998 0.13149 0.0
H1480 H 0.71623 0.14905 0.12911 0.0
H1481 H 0.72857 0.2455 0.1078 0.0
H1482 H 0.90142 0.38095 0.09306 0.0
H1483 H 0.84269 0.3236 0.09237 0.0
H1484 H 0.83419 0.22366 0.11221 0.0
C1485 C 0.69609 0.14718 0.12215 0.0
C1486 C 0.75135 0.24026 0.10865 0.0
C1487 C 0.65926 0.11926 0.12355 0.0
C1488 C 0.89723 0.35858 0.09942 0.0
C1489 C 0.86341 0.32581 0.09913 0.0
C1490 C 0.81138 0.22882 0.1113 0.0
C1491 C 0.70647 0.17317 0.11212 0.0
C1492 C 0.74492 0.20444 0.11105 0.0
C1493 C 0.85588 0.29694 0.10778 0.0
C1494 C 0.81777 0.26468 0.10881 0.0
H1495 H 0.6226 0.14059 0.09784 0.0
H1496 H 0.68666 0.18932 0.09542 0.0
H1497 H 0.77119 0.17167 0.11423 0.0
H1498 H 0.93912 0.33624 0.12309 0.0
H1499 H 0.87951 0.27904 0.12284 0.0
C1500 C 0.65474 0.52505 0.1232 0.0
C1501 C 0.65048 0.55289 0.11723 0.0
C1502 C 0.6873 0.52413 0.12196 0.0
C1503 C 0.7855 0.57639 0.11411 0.0
H1504 H 0.7694 0.47802 0.10748 0.0
C1505 C 0.90339 0.54101 0.10732 0.0
C1506 C 0.89854 0.51029 0.11447 0.0
C1507 C 0.87497 0.54946 0.10651 0.0
C1508 C 0.77439 0.50564 0.10936 0.0
H1509 H 0.67799 0.60297 0.10585 0.0
H1510 H 0.73578 0.60123 0.10356 0.0
H1511 H 0.71712 0.48824 0.1081 0.0
H1512 H 0.8605 0.46452 0.12642 0.0
H1513 H 0.81094 0.47895 0.12494 0.0
H1514 H 0.84306 0.59346 0.11552 0.0
C1515 C 0.71344 0.58008 0.1092 0.0
C1516 C 0.74446 0.51153 0.10971 0.0
C1517 C 0.6805 0.58112 0.11051 0.0
C1518 C 0.86493 0.48825 0.1208 0.0
C1519 C 0.83652 0.49645 0.1199 0.0
C1520 C 0.81569 0.57048 0.1137 0.0
C1521 C 0.71664 0.55087 0.11463 0.0
C1522 C 0.74947 0.54668 0.11249 0.0
C1523 C 0.84112 0.52702 0.11271 0.0
C1524 C 0.81023 0.53478 0.11169 0.0
H1525 H 0.63251 0.50335 0.12873 0.0
H1526 H 0.68926 0.50194 0.12661 0.0
H1527 H 0.79019 0.60376 0.11627 0.0
H1528 H 0.92913 0.55852 0.10237 0.0
H1529 H 0.87922 0.57309 0.10087 0.0
C1530 C 0.36228 0.48389 0.9307 0.0
C1531 C 0.38868 0.50705 0.93975 0.0
C1532 C 0.32543 0.47513 0.93182 0.0
C1533 C 0.26812 0.51042 0.94566 0.0
H1534 H 0.18671 0.41119 0.9401 0.0
C1535 C 0.11988 0.47888 0.95354 0.0
C1536 C 0.09311 0.45615 0.94453 0.0
C1537 C 0.15425 0.48104 0.95393 0.0
C1538 C 0.20907 0.43913 0.94156 0.0
H1539 H 0.39719 0.53892 0.95713 0.0
H1540 H 0.33298 0.52397 0.95902 0.0
H1541 H 0.25015 0.4234 0.93861 0.0
H1542 H 0.08076 0.41655 0.92923 0.0
H1543 H 0.14128 0.42087 0.92967 0.0
H1544 H 0.22764 0.52664 0.94826 0.0
C1545 C 0.34073 0.51264 0.95103 0.0
C1546 C 0.24547 0.4461 0.94073 0.0
C1547 C 0.37748 0.52111 0.94998 0.0
C1548 C 0.10074 0.43403 0.93636 0.0
C1549 C 0.13552 0.43661 0.93662 0.0
C1550 C 0.2319 0.50356 0.94639 0.0
C1551 C 0.31425 0.48966 0.94194 0.0
C1552 C 0.27543 0.48184 0.94283 0.0
C1553 C 0.16317 0.46109 0.94515 0.0
C1554 C 0.20176 0.46778 0.94444 0.0
H1555 H 0.37013 0.47261 0.92272 0.0
H1556 H 0.30584 0.45765 0.92458 0.0
H1557 H 0.29051 0.53839 0.94708 0.0
H1558 H 0.11467 0.49602 0.96004 0.0
H1559 H 0.17423 0.49926 0.96093 0.0
C1560 C 0.50299 0.87952 0.94792 0.0
C1561 C 0.51867 0.90577 0.93803 0.0
C1562 C 0.51131 0.85113 0.94909 0.0
C1563 C 0.57856 0.8222 0.94012 0.0
H1564 H 0.49578 0.72389 0.94576 0.0
C1565 C 0.58761 0.68718 0.93674 0.0
C1566 C 0.56356 0.65749 0.94461 0.0
C1567 C 0.58623 0.7201 0.93672 0.0
C1568 C 0.51942 0.75119 0.94443 0.0
H1569 H 0.55601 0.9235 0.92176 0.0
H1570 H 0.5707 0.87379 0.92381 0.0
H1571 H 0.48531 0.77586 0.94413 0.0
H1572 H 0.52153 0.63977 0.95934 0.0
H1573 H 0.52034 0.69733 0.95979 0.0
H1574 H 0.61269 0.7973 0.94048 0.0
C1575 C 0.55204 0.87525 0.93069 0.0
C1576 C 0.51332 0.78103 0.94344 0.0
C1577 C 0.54347 0.90356 0.92946 0.0
C1578 C 0.54017 0.66218 0.9531 0.0
C1579 C 0.5392 0.69506 0.95324 0.0
C1580 C 0.58475 0.79223 0.94121 0.0
C1581 C 0.53569 0.84844 0.94043 0.0
C1582 C 0.54276 0.81693 0.94134 0.0
C1583 C 0.56102 0.72391 0.94466 0.0
C1584 C 0.55523 0.75632 0.94347 0.0
H1585 H 0.48392 0.88064 0.9547 0.0
H1586 H 0.49861 0.83121 0.9568 0.0
H1587 H 0.60186 0.84959 0.93856 0.0
H1588 H 0.60561 0.68406 0.93001 0.0
H1589 H 0.60342 0.74166 0.92997 0.0
C1590 C 0.36078 0.88852 0.93265 0.0
C1591 C 0.36416 0.92037 0.93851 0.0
C1592 C 0.32823 0.85487 0.93351 0.0
C1593 C 0.22902 0.80801 0.93979 0.0
H1594 H 0.24485 0.72572 0.94688 0.0
C1595 C 0.1108 0.65415 0.9452 0.0
C1596 C 0.11666 0.62843 0.93841 0.0
C1597 C 0.13898 0.69108 0.94622 0.0
C1598 C 0.23992 0.74834 0.94485 0.0
H1599 H 0.33503 0.94224 0.94928 0.0
H1600 H 0.27719 0.88237 0.95088 0.0
H1601 H 0.2969 0.78838 0.947 0.0
H1602 H 0.15629 0.62111 0.9273 0.0
H1603 H 0.20543 0.68523 0.92915 0.0
H1604 H 0.17177 0.76735 0.93751 0.0
C1605 C 0.30027 0.88392 0.94564 0.0
C1606 C 0.26974 0.78428 0.94493 0.0
C1607 C 0.33326 0.9181 0.94473 0.0
C1608 C 0.15105 0.64027 0.93264 0.0
C1609 C 0.17922 0.67697 0.93375 0.0
C1610 C 0.19894 0.77178 0.93977 0.0
C1611 C 0.2979 0.85176 0.94033 0.0
C1612 C 0.26491 0.81448 0.94201 0.0
C1613 C 0.17363 0.70279 0.9406 0.0
C1614 C 0.20432 0.74152 0.94194 0.0
H1615 H 0.38367 0.88936 0.92749 0.0
H1616 H 0.327 0.83099 0.92894 0.0
H1617 H 0.22444 0.8307 0.9375 0.0
H1618 H 0.08446 0.64573 0.94972 0.0
H1619 H 0.1339 0.71028 0.9516 0.0
C1620 C 0.13881 0.6967 0.45526 0.0
C1621 C 0.16321 0.7239 0.44665 0.0
C1622 C 0.12977 0.65977 0.45376 0.0
C1623 C 0.16733 0.60447 0.44017 0.0
H1624 H 0.06799 0.52152 0.44344 0.0
C1625 C 0.14019 0.45839 0.43104 0.0
C1626 C 0.11695 0.43075 0.43972 0.0
C1627 C 0.14115 0.49225 0.43065 0.0
C1628 C 0.09593 0.54435 0.44261 0.0
H1629 H 0.19666 0.7338 0.42959 0.0
H1630 H 0.18116 0.66961 0.42703 0.0
H1631 H 0.07907 0.58464 0.4456 0.0
H1632 H 0.07505 0.41606 0.45434 0.0
H1633 H 0.07731 0.4757 0.45393 0.0
H1634 H 0.18468 0.56484 0.43758 0.0
C1635 C 0.16914 0.67672 0.43498 0.0
C1636 C 0.10225 0.58049 0.44384 0.0
C1637 C 0.17791 0.71346 0.43641 0.0
C1638 C 0.09298 0.43679 0.44746 0.0
C1639 C 0.09437 0.47104 0.44723 0.0
C1640 C 0.16112 0.56853 0.43906 0.0
C1641 C 0.14527 0.64949 0.4437 0.0
C1642 C 0.13803 0.61095 0.44254 0.0
C1643 C 0.11946 0.49968 0.43913 0.0
C1644 C 0.12533 0.5379 0.44016 0.0
H1645 H 0.12703 0.70402 0.46323 0.0
H1646 H 0.11149 0.63947 0.46069 0.0
H1647 H 0.19533 0.62729 0.43939 0.0
H1648 H 0.15873 0.45433 0.42487 0.0
H1649 H 0.15993 0.5131 0.42397 0.0
C1650 C 0.55169 0.6974 0.45571 0.0
C1651 C 0.58294 0.70215 0.44905 0.0
C1652 C 0.51816 0.66489 0.4546 0.0
C1653 C 0.4705 0.56742 0.44613 0.0
H1654 H 0.38946 0.58591 0.44041 0.0
C1655 C 0.31619 0.45179 0.44038 0.0
C1656 C 0.2912 0.4575 0.44767 0.0
C1657 C 0.35317 0.47963 0.43938 0.0
C1658 C 0.41173 0.58025 0.44203 0.0
H1659 H 0.60422 0.67556 0.43662 0.0
H1660 H 0.5445 0.61772 0.43457 0.0
H1661 H 0.45239 0.63736 0.44072 0.0
H1662 H 0.28513 0.49638 0.45972 0.0
H1663 H 0.34941 0.54496 0.45793 0.0
H1664 H 0.42925 0.51007 0.44768 0.0
C1665 C 0.54641 0.63967 0.44063 0.0
C1666 C 0.44778 0.60968 0.44218 0.0
C1667 C 0.58046 0.6726 0.44181 0.0
C1668 C 0.30376 0.49133 0.45398 0.0
C1669 C 0.34052 0.51917 0.45291 0.0
C1670 C 0.43415 0.53773 0.44594 0.0
C1671 C 0.51473 0.63613 0.44672 0.0
C1672 C 0.47747 0.60379 0.44464 0.0
C1673 C 0.3656 0.51374 0.44554 0.0
C1674 C 0.40438 0.54407 0.44428 0.0
H1675 H 0.55288 0.71929 0.46164 0.0
H1676 H 0.49456 0.66256 0.45972 0.0
H1677 H 0.49289 0.56213 0.44804 0.0
H1678 H 0.30717 0.42584 0.43545 0.0
H1679 H 0.37185 0.47475 0.4336 0.0
C1680 C 0.55905 0.8744 0.46195 0.0
C1681 C 0.56525 0.85587 0.45182 0.0
C1682 C 0.53089 0.88329 0.46112 0.0
C1683 C 0.44272 0.85503 0.44432 0.0
H1684 H 0.45555 0.94861 0.45629 0.0
C1685 C 0.32833 0.88983 0.43601 0.0
C1686 C 0.31928 0.90602 0.44616 0.0
C1687 C 0.36102 0.8885 0.43622 0.0
C1688 C 0.45135 0.9222 0.45301 0.0
H1689 H 0.54712 0.83259 0.43281 0.0
H1690 H 0.49807 0.84796 0.43133 0.0
H1691 H 0.5068 0.93626 0.45778 0.0
H1692 H 0.33812 0.9349 0.46428 0.0
H1693 H 0.3954 0.93222 0.46481 0.0
H1694 H 0.38735 0.84043 0.43978 0.0
C1695 C 0.51468 0.8554 0.43999 0.0
C1696 C 0.48079 0.91512 0.45386 0.0
C1697 C 0.54293 0.84672 0.4408 0.0
C1698 C 0.34471 0.92279 0.45622 0.0
C1699 C 0.37744 0.92104 0.45653 0.0
C1700 C 0.41337 0.86199 0.44353 0.0
C1701 C 0.50809 0.87362 0.45017 0.0
C1702 C 0.47692 0.88149 0.44944 0.0
C1703 C 0.38538 0.90266 0.44673 0.0
C1704 C 0.41724 0.89579 0.44775 0.0
H1705 H 0.57583 0.88184 0.47057 0.0
H1706 H 0.52646 0.89701 0.46918 0.0
H1707 H 0.43834 0.8285 0.4411 0.0
H1708 H 0.30923 0.8767 0.42812 0.0
H1709 H 0.36654 0.87518 0.42829 0.0
C1710 C 0.7672 0.76862 0.27711 0.0
C1711 C 0.75899 0.78826 0.26796 0.0
C1712 C 0.80149 0.76999 0.27681 0.0
C1713 C 0.89632 0.83321 0.26547 0.0
H1714 H 0.91521 0.75307 0.27256 0.0
C1715 C 0.04036 0.85139 0.25773 0.0
C1716 C 0.05372 0.83603 0.26681 0.0
C1717 C 0.00353 0.84287 0.258 0.0
C1718 C 0.91042 0.77584 0.2707 0.0
H1719 H 0.77871 0.82264 0.25095 0.0
H1720 H 0.83752 0.82411 0.25015 0.0
H1721 H 0.85166 0.74137 0.27261 0.0
H1722 H 0.03884 0.79924 0.28321 0.0
H1723 H 0.97442 0.78463 0.28382 0.0
H1724 H 0.95462 0.86782 0.26367 0.0
C1725 C 0.8183 0.80842 0.25774 0.0
C1726 C 0.87398 0.76909 0.27071 0.0
C1727 C 0.78442 0.80724 0.2581 0.0
C1728 C 0.0293 0.81152 0.27609 0.0
C1729 C 0.99233 0.80299 0.27638 0.0
C1730 C 0.93251 0.83994 0.26549 0.0
C1731 C 0.82797 0.79107 0.26736 0.0
C1732 C 0.86647 0.79764 0.2679 0.0
C1733 C 0.97903 0.81885 0.2674 0.0
C1734 C 0.94015 0.81132 0.26792 0.0
H1735 H 0.74821 0.75427 0.28492 0.0
H1736 H 0.80805 0.75632 0.28437 0.0
H1737 H 0.89175 0.85614 0.26363 0.0
H1738 H 0.05843 0.87016 0.2504 0.0
H1739 H 0.99422 0.85508 0.25077 0.0
C1740 C 0.18901 0.98628 0.2808 0.0
C1741 C 0.22138 0.98566 0.27766 0.0
C1742 C 0.18906 0.01947 0.28193 0.0
C1743 C 0.2407 0.11738 0.27178 0.0
H1744 H 0.16877 0.12248 0.29393 0.0
C1745 C 0.21642 0.24379 0.27701 0.0
C1746 C 0.18041 0.23454 0.27346 0.0
C1747 C 0.22586 0.2162 0.27852 0.0
C1748 C 0.18908 0.12146 0.28775 0.0
H1749 H 0.27975 0.02008 0.27373 0.0
H1750 H 0.28012 0.07869 0.27609 0.0
H1751 H 0.17953 0.07051 0.29588 0.0
H1752 H 0.12597 0.18945 0.26884 0.0
H1753 H 0.14214 0.1411 0.27196 0.0
H1754 H 0.2504 0.16908 0.26387 0.0
C1755 C 0.25443 0.05308 0.2774 0.0
C1756 C 0.19516 0.0916 0.28878 0.0
C1757 C 0.25432 0.0195 0.27616 0.0
C1758 C 0.15391 0.19729 0.27157 0.0
C1759 C 0.16311 0.1697 0.27337 0.0
C1760 C 0.23513 0.14775 0.27095 0.0
C1761 C 0.2216 0.05342 0.28015 0.0
C1762 C 0.22006 0.08839 0.28049 0.0
C1763 C 0.19917 0.17893 0.27681 0.0
C1764 C 0.20848 0.14941 0.27867 0.0
H1765 H 0.16298 0.96095 0.28205 0.0
H1766 H 0.16301 0.01823 0.28374 0.0
H1767 H 0.25988 0.11587 0.26517 0.0
H1768 H 0.23739 0.27236 0.27848 0.0
H1769 H 0.2538 0.22389 0.28119 0.0
C1770 C 0.78624 0.99586 0.26186 0.0
C1771 C 0.78311 0.96936 0.27089 0.0
C1772 C 0.81442 0.03276 0.26298 0.0
C1773 C 0.90721 0.08822 0.27661 0.0
H1774 H 0.89231 0.17192 0.27181 0.0
C1775 C 0.02607 0.23405 0.28571 0.0
C1776 C 0.0316 0.26152 0.27674 0.0
C1777 C 0.9931 0.20038 0.2859 0.0
C1778 C 0.897 0.14886 0.27307 0.0
H1779 H 0.80633 0.96072 0.28831 0.0
H1780 H 0.85544 0.02481 0.29024 0.0
H1781 H 0.8399 0.10901 0.27 0.0
H1782 H 0.00622 0.27607 0.26136 0.0
H1783 H 0.94865 0.2167 0.26145 0.0
H1784 H 0.96412 0.12739 0.27935 0.0
C1785 C 0.8364 0.01718 0.28224 0.0
C1786 C 0.86696 0.11284 0.27203 0.0
C1787 C 0.80818 0.9805 0.28117 0.0
C1788 C 0.00257 0.25546 0.26845 0.0
C1789 C 0.96961 0.22139 0.2685 0.0
C1790 C 0.93713 0.12402 0.27754 0.0
C1791 C 0.84014 0.04369 0.2731 0.0
C1792 C 0.87173 0.08213 0.27391 0.0
C1793 C 0.96498 0.19295 0.27695 0.0
C1794 C 0.93249 0.15491 0.27592 0.0
H1795 H 0.76721 0.98801 0.25385 0.0
H1796 H 0.81672 0.05249 0.25574 0.0
H1797 H 0.91199 0.06519 0.27783 0.0
H1798 H 0.04783 0.23811 0.29231 0.0
H1799 H 0.99016 0.17969 0.29283 0.0
C1800 C 0.75998 0.77053 0.77774 0.0
C1801 C 0.77917 0.76218 0.787 0.0
C1802 C 0.76205 0.80519 0.77783 0.0
C1803 C 0.82749 0.89997 0.78799 0.0
H1804 H 0.74878 0.92139 0.78176 0.0
C1805 C 0.85107 0.04674 0.79438 0.0
C1806 C 0.83457 0.0596 0.78559 0.0
C1807 C 0.84188 0.00965 0.7944 0.0
C1808 C 0.77115 0.91588 0.78336 0.0
H1809 H 0.81362 0.78198 0.80396 0.0
H1810 H 0.81655 0.84168 0.80434 0.0
H1811 H 0.73507 0.85708 0.78233 0.0
H1812 H 0.79534 0.04376 0.76994 0.0
H1813 H 0.77969 0.97894 0.76978 0.0
H1814 H 0.86373 0.95829 0.78885 0.0
C1815 C 0.80044 0.82212 0.79688 0.0
C1816 C 0.76323 0.87903 0.78371 0.0
C1817 C 0.79844 0.78781 0.79676 0.0
C1818 C 0.80851 0.03457 0.77683 0.0
C1819 C 0.79937 -0.00262 0.7768 0.0
C1820 C 0.8354 0.9366 0.78757 0.0
C1821 C 0.78354 0.83186 0.78714 0.0
C1822 C 0.79128 0.87068 0.78623 0.0
C1823 C 0.81608 0.98446 0.78556 0.0
C1824 C 0.80733 0.94515 0.78543 0.0
H1825 H 0.74548 0.75136 0.76999 0.0
H1826 H 0.74876 0.8119 0.77019 0.0
H1827 H 0.84994 0.89458 0.78961 0.0
H1828 H 0.87103 0.06534 0.80132 0.0
H1829 H 0.85483 0.00067 0.80145 0.0
C1830 C 0.2499 0.00104 0.784 0.0
C1831 C 0.25219 0.03073 0.77687 0.0
C1832 C 0.2171 0.96675 0.78406 0.0
C1833 C 0.12863 0.91063 0.76675 0.0
H1834 H 0.08762 0.87278 0.80051 0.0
C1835 C 0.97311 0.81217 0.7741 0.0
C1836 C 0.96119 0.78492 0.7837 0.0
C1837 C 0.01048 0.83852 0.77285 0.0
C1838 C 0.09881 0.88242 0.79099 0.0
H1839 H 0.22299 0.04733 0.76367 0.0
H1840 H 0.16652 0.98766 0.76351 0.0
H1841 H 0.15074 0.92394 0.79862 0.0
H1842 H 0.97904 0.76347 0.79942 0.0
H1843 H 0.04449 0.80905 0.79712 0.0
H1844 H 0.07682 0.86953 0.75908 0.0
C1845 C 0.18968 0.99066 0.76912 0.0
C1846 C 0.13508 0.91181 0.78991 0.0
C1847 C 0.22202 0.02492 0.76924 0.0
C1848 C 0.98745 0.78429 0.79196 0.0
C1849 C 0.02494 0.81056 0.79067 0.0
C1850 C 0.09252 0.8811 0.76781 0.0
C1851 C 0.18641 0.96143 0.77678 0.0
C1852 C 0.15009 0.92682 0.7778 0.0
C1853 C 0.03699 0.83816 0.78112 0.0
C1854 C 0.07673 0.86715 0.77996 0.0
H1855 H 0.27261 0.0049 0.79006 0.0
H1856 H 0.21544 0.94465 0.79001 0.0
H1857 H 0.13957 0.92128 0.75727 0.0
H1858 H 0.95347 0.81344 0.76762 0.0
H1859 H 0.01842 0.85968 0.76555 0.0
C1860 C 0.22087 0.20423 0.78959 0.0
C1861 C 0.22425 0.18068 0.78075 0.0
C1862 C 0.19312 0.21337 0.78813 0.0
C1863 C 0.10145 0.17841 0.7739 0.0
H1864 H 0.11983 0.2783 0.77855 0.0
C1865 C 0.98479 0.20975 0.76599 0.0
C1866 C 0.98113 0.2327 0.775 0.0
C1867 C 0.01713 0.20791 0.76536 0.0
C1868 C 0.11413 0.2502 0.77734 0.0
H1869 H 0.2016 0.14849 0.76339 0.0
H1870 H 0.15284 0.16407 0.7609 0.0
H1871 H 0.17076 0.26563 0.78039 0.0
H1872 H 0.009 0.27315 0.79 0.0
H1873 H 0.06542 0.26931 0.78919 0.0
H1874 H 0.04491 0.16246 0.77127 0.0
C1875 C 0.17157 0.17543 0.76898 0.0
C1876 C 0.14335 0.24297 0.77837 0.0
C1877 C 0.19952 0.16659 0.77038 0.0
C1878 C 0.01129 0.2555 0.78287 0.0
C1879 C 0.04359 0.25319 0.78241 0.0
C1880 C 0.07229 0.18552 0.77299 0.0
C1881 C 0.16796 0.19883 0.77786 0.0
C1882 C 0.13731 0.20698 0.77663 0.0
C1883 C 0.04639 0.22836 0.77393 0.0
C1884 C 0.07815 0.22152 0.77464 0.0
H1885 H 0.23964 0.21556 0.79766 0.0
H1886 H 0.19084 0.23116 0.79519 0.0
H1887 H 0.09574 0.15027 0.77276 0.0
H1888 H 0.96202 0.1921 0.75973 0.0
H1889 H 0.01863 0.18941 0.75842 0.0
C1890 C 0.4684 0.14653 0.61519 0.0
C1891 C 0.43855 0.12206 0.6075 0.0
C1892 C 0.50022 0.14384 0.61588 0.0
C1893 C 0.55508 0.11794 0.59645 0.0
H1894 H 0.60943 0.13168 0.62816 0.0
C1895 C 0.70217 0.13811 0.59642 0.0
C1896 C 0.72752 0.16518 0.60482 0.0
C1897 C 0.66455 0.12622 0.59737 0.0
C1898 C 0.59476 0.12809 0.6192 0.0
H1899 H 0.41803 0.07488 0.59476 0.0
H1900 H 0.47447 0.07063 0.59573 0.0
H1901 H 0.54678 0.12145 0.62899 0.0
H1902 H 0.73365 0.20092 0.62084 0.0
H1903 H 0.66831 0.18111 0.6223 0.0
H1904 H 0.60352 0.12646 0.58659 0.0
C1905 C 0.47289 0.09168 0.60131 0.0
C1906 C 0.55879 0.12196 0.6197 0.0
C1907 C 0.44062 0.09396 0.60081 0.0
C1908 C 0.71465 0.17992 0.61426 0.0
C1909 C 0.67711 0.16828 0.61516 0.0
C1910 C 0.59122 0.12444 0.59594 0.0
C1911 C 0.50316 0.11695 0.60872 0.0
C1912 C 0.53889 0.11764 0.60832 0.0
C1913 C 0.65155 0.14137 0.60669 0.0
C1914 C 0.61183 0.13047 0.6073 0.0
H1915 H 0.46747 0.16837 0.6205 0.0
H1916 H 0.5232 0.16392 0.62157 0.0
H1917 H 0.54053 0.11513 0.58752 0.0
H1918 H 0.71141 0.12613 0.5891 0.0
H1919 H 0.64566 0.10513 0.59081 0.0
C1920 C 0.89271 0.33381 0.61668 0.0
C1921 C 0.91141 0.32506 0.60735 0.0
C1922 C 0.89434 0.36801 0.61659 0.0
C1923 C 0.90572 0.4409 0.59426 0.0
H1924 H 0.9051 0.4908 0.62562 0.0
C1925 C 0.88691 0.56982 0.59368 0.0
C1926 C 0.86404 0.57136 0.60327 0.0
C1927 C 0.89799 0.54321 0.59425 0.0
C1928 C 0.90492 0.47709 0.61676 0.0
H1929 H 0.94753 0.34585 0.5908 0.0
H1930 H 0.95036 0.40611 0.59057 0.0
H1931 H 0.91719 0.43952 0.62669 0.0
H1932 H 0.83494 0.54634 0.62098 0.0
H1933 H 0.85369 0.4997 0.62192 0.0
H1934 H 0.89234 0.47773 0.58436 0.0
C1935 C 0.93443 0.38629 0.59799 0.0
C1936 C 0.91204 0.44774 0.61738 0.0
C1937 C 0.9332 0.35201 0.5982 0.0
C1938 C 0.85269 0.54594 0.61348 0.0
C1939 C 0.86371 0.51934 0.61405 0.0
C1940 C 0.89846 0.47022 0.59364 0.0
C1941 C 0.91439 0.39439 0.60705 0.0
C1942 C 0.91182 0.42875 0.60617 0.0
C1943 C 0.88645 0.51748 0.60443 0.0
C1944 C 0.89722 0.48827 0.60492 0.0
H1945 H 0.87559 0.31355 0.62383 0.0
H1946 H 0.87825 0.37299 0.62363 0.0
H1947 H 0.90487 0.42666 0.58545 0.0
H1948 H 0.89619 0.58913 0.58571 0.0
H1949 H 0.91582 0.54298 0.58675 0.0
C1950 C 0.46783 0.32125 0.59151 0.0
C1951 C 0.46211 0.29687 0.60174 0.0
C1952 C 0.49567 0.35841 0.5922 0.0
C1953 C 0.5837 0.41954 0.60878 0.0
H1954 H 0.56904 0.49912 0.59663 0.0
C1955 C 0.69603 0.5693 0.61685 0.0
C1956 C 0.70497 0.59414 0.60655 0.0
C1957 C 0.66357 0.53513 0.61671 0.0
C1958 C 0.57371 0.47722 0.59996 0.0
H1959 H 0.48072 0.29239 0.62077 0.0
H1960 H 0.52924 0.35706 0.62199 0.0
H1961 H 0.51848 0.43513 0.59532 0.0
H1962 H 0.68617 0.60343 0.58826 0.0
H1963 H 0.62926 0.54312 0.58787 0.0
H1964 H 0.63884 0.46103 0.61322 0.0
C1965 C 0.51252 0.34751 0.61337 0.0
C1966 C 0.5447 0.4405 0.59921 0.0
C1967 C 0.4846 0.31045 0.6127 0.0
C1968 C 0.67965 0.58499 0.59641 0.0
C1969 C 0.64715 0.55035 0.59619 0.0
C1970 C 0.6126 0.45604 0.60948 0.0
C1971 C 0.51858 0.372 0.6031 0.0
C1972 C 0.54928 0.41119 0.6037 0.0
C1973 C 0.6394 0.52441 0.60613 0.0
C1974 C 0.60803 0.48552 0.6052 0.0
H1975 H 0.45087 0.31157 0.58295 0.0
H1976 H 0.49973 0.37632 0.58407 0.0
H1977 H 0.58858 0.39772 0.61205 0.0
H1978 H 0.71504 0.5757 0.6248 0.0
H1979 H 0.65811 0.51652 0.62474 0.0
loop_
_geom_bond_atom_site_label_1
_geom_bond_atom_site_label_2
_geom_bond_distance
_geom_bond_site_symmetry_2
_ccdc_geom_bond_type
Dy0 O4 2.398 . S
Dy0 O5 2.491 . S
Dy0 O6 2.403 . S
Dy0 O7 2.664 1_545 S
Dy0 O11 2.326 . S
Dy0 O15 2.310 . S
Dy0 O16 2.351 1_545 S
C1 O12 1.185 . S
C1 O13 1.355 . S
C2 O4 1.185 . S
C2 O5 1.355 . S
Dy3 O7 2.310 . S
Dy3 O10 2.351 1_565 S
Dy3 O12 2.398 . S
Dy3 O13 2.491 . S
Dy3 O14 2.403 . S
Dy3 O15 2.664 1_565 S
Dy3 O17 2.326 . S
O4 Dy0 2.398 . S
O4 C2 1.185 . S
O5 Dy0 2.491 . S
O5 C2 1.355 . S
O6 Dy0 2.403 . S
O6 C8 1.254 . S
O7 Dy0 2.664 1_565 S
O7 Dy3 2.310 . S
O7 C8 1.268 1_565 S
C8 O6 1.254 . S
C8 O7 1.268 1_545 S
C9 O14 1.254 1_545 S
C9 O15 1.268 . S
O10 Dy3 2.351 1_545 S
O10 C18 1.249 . S
O11 Dy0 2.326 . S
O11 C18 1.267 . S
O12 C1 1.185 . S
O12 Dy3 2.398 . S
O13 C1 1.355 . S
O13 Dy3 2.491 . S
O14 Dy3 2.403 . S
O14 C9 1.254 1_565 S
O15 Dy0 2.310 . S
O15 Dy3 2.664 1_545 S
O15 C9 1.268 . S
O16 Dy0 2.351 1_565 S
O16 C19 1.249 . S
O17 Dy3 2.326 . S
O17 C19 1.267 . S
C18 O10 1.249 . S
C18 O11 1.267 . S
C19 O16 1.249 . S
C19 O17 1.267 . S
Dy20 O24 2.398 . S
Dy20 O25 2.491 . S
Dy20 O26 2.403 1_655 S
Dy20 O27 2.664 1_655 S
Dy20 O31 2.326 . S
Dy20 O35 2.310 1_655 S
Dy20 O36 2.351 1_655 S
C21 O32 1.185 . S
C21 O33 1.355 . S
C22 O24 1.185 . S
C22 O25 1.355 . S
Dy23 O27 2.310 . S
Dy23 O30 2.351 1_455 S
Dy23 O32 2.398 . S
Dy23 O33 2.491 . S
Dy23 O34 2.403 . S
Dy23 O35 2.664 . S
Dy23 O37 2.326 . S
O24 Dy20 2.398 . S
O24 C22 1.185 . S
O25 Dy20 2.491 . S
O25 C22 1.355 . S
O26 Dy20 2.403 1_455 S
O26 C28 1.254 . S
O27 Dy20 2.664 1_455 S
O27 Dy23 2.310 . S
O27 C28 1.268 . S
C28 O26 1.254 . S
C28 O27 1.268 . S
C29 O34 1.254 . S
C29 O35 1.268 . S
O30 Dy23 2.351 1_655 S
O30 C38 1.249 . S
O31 Dy20 2.326 . S
O31 C38 1.267 . S
O32 C21 1.185 . S
O32 Dy23 2.398 . S
O33 C21 1.355 . S
O33 Dy23 2.491 . S
O34 Dy23 2.403 . S
O34 C29 1.254 . S
O35 Dy20 2.310 1_455 S
O35 Dy23 2.664 . S
O35 C29 1.268 . S
O36 Dy20 2.351 1_455 S
O36 C39 1.249 . S
O37 Dy23 2.326 . S
O37 C39 1.267 . S
C38 O30 1.249 . S
C38 O31 1.267 . S
C39 O36 1.249 . S
C39 O37 1.267 . S
Dy40 O44 2.398 . S
Dy40 O45 2.491 . S
Dy40 O46 2.403 . S
Dy40 O47 2.664 . S
Dy40 O51 2.326 . S
Dy40 O55 2.310 . S
Dy40 O56 2.351 . S
C41 O52 1.185 . S
C41 O53 1.355 . S
C42 O44 1.185 . S
C42 O45 1.355 . S
Dy43 O47 2.310 . S
Dy43 O50 2.351 . S
Dy43 O52 2.398 . S
Dy43 O53 2.491 . S
Dy43 O54 2.403 . S
Dy43 O55 2.664 . S
Dy43 O57 2.326 . S
O44 Dy40 2.398 . S
O44 C42 1.185 . S
O45 Dy40 2.491 . S
O45 C42 1.355 . S
O46 Dy40 2.403 . S
O46 C48 1.254 . S
O47 Dy40 2.664 . S
O47 Dy43 2.310 . S
O47 C48 1.268 . S
C48 O46 1.254 . S
C48 O47 1.268 . S
C49 O54 1.254 . S
C49 O55 1.268 . S
O50 Dy43 2.351 . S
O50 C58 1.249 . S
O51 Dy40 2.326 . S
O51 C58 1.267 . S
O52 C41 1.185 . S
O52 Dy43 2.398 . S
O53 C41 1.355 . S
O53 Dy43 2.491 . S
O54 Dy43 2.403 . S
O54 C49 1.254 . S
O55 Dy40 2.310 . S
O55 Dy43 2.664 . S
O55 C49 1.268 . S
O56 Dy40 2.351 . S
O56 C59 1.249 . S
O57 Dy43 2.326 . S
O57 C59 1.267 . S
C58 O50 1.249 . S
C58 O51 1.267 . S
C59 O56 1.249 . S
C59 O57 1.267 . S
Dy60 O64 2.398 . S
Dy60 O65 2.491 . S
Dy60 O66 2.403 . S
Dy60 O67 2.664 1_455 S
Dy60 O71 2.326 . S
Dy60 O75 2.310 . S
Dy60 O76 2.351 1_455 S
C61 O72 1.185 . S
C61 O73 1.355 . S
C62 O64 1.185 . S
C62 O65 1.355 . S
Dy63 O67 2.310 . S
Dy63 O70 2.351 1_655 S
Dy63 O72 2.398 . S
Dy63 O73 2.491 . S
Dy63 O74 2.403 . S
Dy63 O75 2.664 1_655 S
Dy63 O77 2.326 . S
O64 Dy60 2.398 . S
O64 C62 1.185 . S
O65 Dy60 2.491 . S
O65 C62 1.355 . S
O66 Dy60 2.403 . S
O66 C68 1.254 . S
O67 Dy60 2.664 1_655 S
O67 Dy63 2.310 . S
O67 C68 1.268 1_655 S
C68 O66 1.254 . S
C68 O67 1.268 1_455 S
C69 O74 1.254 1_455 S
C69 O75 1.268 . S
O70 Dy63 2.351 1_455 S
O70 C78 1.249 . S
O71 Dy60 2.326 . S
O71 C78 1.267 . S
O72 C61 1.185 . S
O72 Dy63 2.398 . S
O73 C61 1.355 . S
O73 Dy63 2.491 . S
O74 Dy63 2.403 . S
O74 C69 1.254 1_655 S
O75 Dy60 2.310 . S
O75 Dy63 2.664 1_455 S
O75 C69 1.268 . S
O76 Dy60 2.351 1_655 S
O76 C79 1.249 . S
O77 Dy63 2.326 . S
O77 C79 1.267 . S
C78 O70 1.249 . S
C78 O71 1.267 . S
C79 O76 1.249 . S
C79 O77 1.267 . S
Dy80 O84 2.398 . S
Dy80 O85 2.491 . S
Dy80 O86 2.403 . S
Dy80 O87 2.664 . S
Dy80 O91 2.326 . S
Dy80 O95 2.310 . S
Dy80 O96 2.351 . S
C81 O92 1.185 . S
C81 O93 1.355 . S
C82 O84 1.185 . S
C82 O85 1.355 . S
Dy83 O87 2.310 . S
Dy83 O90 2.351 . S
Dy83 O92 2.398 . S
Dy83 O93 2.491 . S
Dy83 O94 2.403 . S
Dy83 O95 2.664 . S
Dy83 O97 2.326 . S
O84 Dy80 2.398 . S
O84 C82 1.185 . S
O85 Dy80 2.491 . S
O85 C82 1.355 . S
O86 Dy80 2.403 . S
O86 C88 1.254 . S
O87 Dy80 2.664 . S
O87 Dy83 2.310 . S
O87 C88 1.268 . S
C88 O86 1.254 . S
C88 O87 1.268 . S
C89 O94 1.254 . S
C89 O95 1.268 . S
O90 Dy83 2.351 . S
O90 C98 1.249 . S
O91 Dy80 2.326 . S
O91 C98 1.267 . S
O92 C81 1.185 . S
O92 Dy83 2.398 . S
O93 C81 1.355 . S
O93 Dy83 2.491 . S
O94 Dy83 2.403 . S
O94 C89 1.254 . S
O95 Dy80 2.310 . S
O95 Dy83 2.664 . S
O95 C89 1.268 . S
O96 Dy80 2.351 . S
O96 C99 1.249 . S
O97 Dy83 2.326 . S
O97 C99 1.267 . S
C98 O90 1.249 . S
C98 O91 1.267 . S
C99 O96 1.249 . S
C99 O97 1.267 . S
Dy100 O104 2.398 . S
Dy100 O105 2.491 . S
Dy100 O106 2.403 1_565 S
Dy100 O107 2.664 1_565 S
Dy100 O111 2.326 . S
Dy100 O115 2.310 1_565 S
Dy100 O116 2.351 1_565 S
C101 O112 1.185 . S
C101 O113 1.355 . S
C102 O104 1.185 . S
C102 O105 1.355 . S
Dy103 O107 2.310 . S
Dy103 O110 2.351 1_545 S
Dy103 O112 2.398 . S
Dy103 O113 2.491 . S
Dy103 O114 2.403 . S
Dy103 O115 2.664 . S
Dy103 O117 2.326 . S
O104 Dy100 2.398 . S
O104 C102 1.185 . S
O105 Dy100 2.491 . S
O105 C102 1.355 . S
O106 Dy100 2.403 1_545 S
O106 C108 1.254 . S
O107 Dy100 2.664 1_545 S
O107 Dy103 2.310 . S
O107 C108 1.268 . S
C108 O106 1.254 . S
C108 O107 1.268 . S
C109 O114 1.254 . S
C109 O115 1.268 . S
O110 Dy103 2.351 1_565 S
O110 C118 1.249 . S
O111 Dy100 2.326 . S
O111 C118 1.267 . S
O112 C101 1.185 . S
O112 Dy103 2.398 . S
O113 C101 1.355 . S
O113 Dy103 2.491 . S
O114 Dy103 2.403 . S
O114 C109 1.254 . S
O115 Dy100 2.310 1_545 S
O115 Dy103 2.664 . S
O115 C109 1.268 . S
O116 Dy100 2.351 1_545 S
O116 C119 1.249 . S
O117 Dy103 2.326 . S
O117 C119 1.267 . S
C118 O110 1.249 . S
C118 O111 1.267 . S
C119 O116 1.249 . S
C119 O117 1.267 . S
Dy120 O124 2.398 . S
Dy120 O125 2.491 . S
Dy120 O126 2.403 . S
Dy120 O127 2.664 . S
Dy120 O131 2.326 . S
Dy120 O135 2.310 . S
Dy120 O136 2.351 . S
C121 O132 1.185 . S
C121 O133 1.355 . S
C122 O124 1.185 . S
C122 O125 1.355 . S
Dy123 O127 2.310 . S
Dy123 O130 2.351 . S
Dy123 O132 2.398 . S
Dy123 O133 2.491 . S
Dy123 O134 2.403 . S
Dy123 O135 2.664 . S
Dy123 O137 2.326 . S
O124 Dy120 2.398 . S
O124 C122 1.185 . S
O125 Dy120 2.491 . S
O125 C122 1.355 . S
O126 Dy120 2.403 . S
O126 C128 1.254 . S
O127 Dy120 2.664 . S
O127 Dy123 2.310 . S
O127 C128 1.268 . S
C128 O126 1.254 . S
C128 O127 1.268 . S
C129 O134 1.254 . S
C129 O135 1.268 . S
O130 Dy123 2.351 . S
O130 C138 1.249 . S
O131 Dy120 2.326 . S
O131 C138 1.267 . S
O132 C121 1.185 . S
O132 Dy123 2.398 . S
O133 C121 1.355 . S
O133 Dy123 2.491 . S
O134 Dy123 2.403 . S
O134 C129 1.254 . S
O135 Dy120 2.310 . S
O135 Dy123 2.664 . S
O135 C129 1.268 . S
O136 Dy120 2.351 . S
O136 C139 1.249 . S
O137 Dy123 2.326 . S
O137 C139 1.267 . S
C138 O130 1.249 . S
C138 O131 1.267 . S
C139 O136 1.249 . S
C139 O137 1.267 . S
Dy140 O144 2.398 . S
Dy140 O145 2.491 . S
Dy140 O146 2.403 . S
Dy140 O147 2.664 . S
Dy140 O151 2.326 . S
Dy140 O155 2.310 . S
Dy140 O156 2.351 . S
C141 O152 1.185 . S
C141 O153 1.355 . S
C142 O144 1.185 . S
C142 O145 1.355 . S
Dy143 O147 2.310 . S
Dy143 O150 2.351 . S
Dy143 O152 2.398 . S
Dy143 O153 2.491 . S
Dy143 O154 2.403 . S
Dy143 O155 2.664 . S
Dy143 O157 2.326 . S
O144 Dy140 2.398 . S
O144 C142 1.185 . S
O145 Dy140 2.491 . S
O145 C142 1.355 . S
O146 Dy140 2.403 . S
O146 C148 1.254 . S
O147 Dy140 2.664 . S
O147 Dy143 2.310 . S
O147 C148 1.268 . S
C148 O146 1.254 . S
C148 O147 1.268 . S
C149 O154 1.254 . S
C149 O155 1.268 . S
O150 Dy143 2.351 . S
O150 C158 1.249 . S
O151 Dy140 2.326 . S
O151 C158 1.267 . S
O152 C141 1.185 . S
O152 Dy143 2.398 . S
O153 C141 1.355 . S
O153 Dy143 2.491 . S
O154 Dy143 2.403 . S
O154 C149 1.254 . S
O155 Dy140 2.310 . S
O155 Dy143 2.664 . S
O155 C149 1.268 . S
O156 Dy140 2.351 . S
O156 C159 1.249 . S
O157 Dy143 2.326 . S
O157 C159 1.267 . S
C158 O150 1.249 . S
C158 O151 1.267 . S
C159 O156 1.249 . S
C159 O157 1.267 . S
Dy160 O164 2.398 . S
Dy160 O165 2.491 . S
Dy160 O166 2.403 . S
Dy160 O167 2.664 . S
Dy160 O171 2.326 . S
Dy160 O175 2.310 . S
Dy160 O176 2.351 . S
C161 O172 1.185 . S
C161 O173 1.355 . S
C162 O164 1.185 . S
C162 O165 1.355 . S
Dy163 O167 2.310 . S
Dy163 O170 2.351 . S
Dy163 O172 2.398 . S
Dy163 O173 2.491 . S
Dy163 O174 2.403 . S
Dy163 O175 2.664 . S
Dy163 O177 2.326 . S
O164 Dy160 2.398 . S
O164 C162 1.185 . S
O165 Dy160 2.491 . S
O165 C162 1.355 . S
O166 Dy160 2.403 . S
O166 C168 1.254 . S
O167 Dy160 2.664 . S
O167 Dy163 2.310 . S
O167 C168 1.268 . S
C168 O166 1.254 . S
C168 O167 1.268 . S
C169 O174 1.254 . S
C169 O175 1.268 . S
O170 Dy163 2.351 . S
O170 C178 1.249 . S
O171 Dy160 2.326 . S
O171 C178 1.267 . S
O172 C161 1.185 . S
O172 Dy163 2.398 . S
O173 C161 1.355 . S
O173 Dy163 2.491 . S
O174 Dy163 2.403 . S
O174 C169 1.254 . S
O175 Dy160 2.310 . S
O175 Dy163 2.664 . S
O175 C169 1.268 . S
O176 Dy160 2.351 . S
O176 C179 1.249 . S
O177 Dy163 2.326 . S
O177 C179 1.267 . S
C178 O170 1.249 . S
C178 O171 1.267 . S
C179 O176 1.249 . S
C179 O177 1.267 . S
Dy180 O184 2.398 . S
Dy180 O185 2.491 . S
Dy180 O186 2.403 . S
Dy180 O187 2.664 . S
Dy180 O191 2.326 . S
Dy180 O195 2.310 . S
Dy180 O196 2.351 . S
C181 O192 1.185 . S
C181 O193 1.355 . S
C182 O184 1.185 . S
C182 O185 1.355 . S
Dy183 O187 2.310 . S
Dy183 O190 2.351 . S
Dy183 O192 2.398 . S
Dy183 O193 2.491 . S
Dy183 O194 2.403 . S
Dy183 O195 2.664 . S
Dy183 O197 2.326 . S
O184 Dy180 2.398 . S
O184 C182 1.185 . S
O185 Dy180 2.491 . S
O185 C182 1.355 . S
O186 Dy180 2.403 . S
O186 C188 1.254 . S
O187 Dy180 2.664 . S
O187 Dy183 2.310 . S
O187 C188 1.268 . S
C188 O186 1.254 . S
C188 O187 1.268 . S
C189 O194 1.254 . S
C189 O195 1.268 . S
O190 Dy183 2.351 . S
O190 C198 1.249 . S
O191 Dy180 2.326 . S
O191 C198 1.267 . S
O192 C181 1.185 . S
O192 Dy183 2.398 . S
O193 C181 1.355 . S
O193 Dy183 2.491 . S
O194 Dy183 2.403 . S
O194 C189 1.254 . S
O195 Dy180 2.310 . S
O195 Dy183 2.664 . S
O195 C189 1.268 . S
O196 Dy180 2.351 . S
O196 C199 1.249 . S
O197 Dy183 2.326 . S
O197 C199 1.267 . S
C198 O190 1.249 . S
C198 O191 1.267 . S
C199 O196 1.249 . S
C199 O197 1.267 . S
Dy200 O204 2.398 . S
Dy200 O205 2.491 . S
Dy200 O206 2.403 . S
Dy200 O207 2.664 . S
Dy200 O211 2.326 . S
Dy200 O215 2.310 . S
Dy200 O216 2.351 . S
C201 O212 1.185 . S
C201 O213 1.355 . S
C202 O204 1.185 . S
C202 O205 1.355 . S
Dy203 O207 2.310 . S
Dy203 O210 2.351 . S
Dy203 O212 2.398 . S
Dy203 O213 2.491 . S
Dy203 O214 2.403 . S
Dy203 O215 2.664 . S
Dy203 O217 2.326 . S
O204 Dy200 2.398 . S
O204 C202 1.185 . S
O205 Dy200 2.491 . S
O205 C202 1.355 . S
O206 Dy200 2.403 . S
O206 C208 1.254 . S
O207 Dy200 2.664 . S
O207 Dy203 2.310 . S
O207 C208 1.268 . S
C208 O206 1.254 . S
C208 O207 1.268 . S
C209 O214 1.254 . S
C209 O215 1.268 . S
O210 Dy203 2.351 . S
O210 C218 1.249 . S
O211 Dy200 2.326 . S
O211 C218 1.267 . S
O212 C201 1.185 . S
O212 Dy203 2.398 . S
O213 C201 1.355 . S
O213 Dy203 2.491 . S
O214 Dy203 2.403 . S
O214 C209 1.254 . S
O215 Dy200 2.310 . S
O215 Dy203 2.664 . S
O215 C209 1.268 . S
O216 Dy200 2.351 . S
O216 C219 1.249 . S
O217 Dy203 2.326 . S
O217 C219 1.267 . S
C218 O210 1.249 . S
C218 O211 1.267 . S
C219 O216 1.249 . S
C219 O217 1.267 . S
Dy220 O224 2.398 . S
Dy220 O225 2.491 . S
Dy220 O226 2.403 . S
Dy220 O227 2.664 . S
Dy220 O231 2.326 . S
Dy220 O235 2.310 . S
Dy220 O236 2.351 . S
C221 O232 1.185 . S
C221 O233 1.355 . S
C222 O224 1.185 . S
C222 O225 1.355 . S
Dy223 O227 2.310 . S
Dy223 O230 2.351 . S
Dy223 O232 2.398 . S
Dy223 O233 2.491 . S
Dy223 O234 2.403 . S
Dy223 O235 2.664 . S
Dy223 O237 2.326 . S
O224 Dy220 2.398 . S
O224 C222 1.185 . S
O225 Dy220 2.491 . S
O225 C222 1.355 . S
O226 Dy220 2.403 . S
O226 C228 1.254 . S
O227 Dy220 2.664 . S
O227 Dy223 2.310 . S
O227 C228 1.268 . S
C228 O226 1.254 . S
C228 O227 1.268 . S
C229 O234 1.254 . S
C229 O235 1.268 . S
O230 Dy223 2.351 . S
O230 C238 1.249 . S
O231 Dy220 2.326 . S
O231 C238 1.267 . S
O232 C221 1.185 . S
O232 Dy223 2.398 . S
O233 C221 1.355 . S
O233 Dy223 2.491 . S
O234 Dy223 2.403 . S
O234 C229 1.254 . S
O235 Dy220 2.310 . S
O235 Dy223 2.664 . S
O235 C229 1.268 . S
O236 Dy220 2.351 . S
O236 C239 1.249 . S
O237 Dy223 2.326 . S
O237 C239 1.267 . S
C238 O230 1.249 . S
C238 O231 1.267 . S
C239 O236 1.249 . S
C239 O237 1.267 . S
Dy240 O244 2.398 . S
Dy240 O245 2.491 . S
Dy240 O246 2.403 . S
Dy240 O247 2.664 . S
Dy240 O251 2.326 . S
Dy240 O255 2.310 . S
Dy240 O256 2.351 . S
C241 O252 1.185 . S
C241 O253 1.355 . S
C242 O244 1.185 . S
C242 O245 1.355 . S
Dy243 O247 2.310 . S
Dy243 O250 2.351 . S
Dy243 O252 2.398 . S
Dy243 O253 2.491 . S
Dy243 O254 2.403 . S
Dy243 O255 2.664 . S
Dy243 O257 2.326 . S
O244 Dy240 2.398 . S
O244 C242 1.185 . S
O245 Dy240 2.491 . S
O245 C242 1.355 . S
O246 Dy240 2.403 . S
O246 C248 1.254 . S
O247 Dy240 2.664 . S
O247 Dy243 2.310 . S
O247 C248 1.268 . S
C248 O246 1.254 . S
C248 O247 1.268 . S
C249 O254 1.254 . S
C249 O255 1.268 . S
O250 Dy243 2.351 . S
O250 C258 1.249 . S
O251 Dy240 2.326 . S
O251 C258 1.267 . S
O252 C241 1.185 . S
O252 Dy243 2.398 . S
O253 C241 1.355 . S
O253 Dy243 2.491 . S
O254 Dy243 2.403 . S
O254 C249 1.254 . S
O255 Dy240 2.310 . S
O255 Dy243 2.664 . S
O255 C249 1.268 . S
O256 Dy240 2.351 . S
O256 C259 1.249 . S
O257 Dy243 2.326 . S
O257 C259 1.267 . S
C258 O250 1.249 . S
C258 O251 1.267 . S
C259 O256 1.249 . S
C259 O257 1.267 . S
Dy260 O264 2.398 . S
Dy260 O265 2.491 . S
Dy260 O266 2.403 . S
Dy260 O267 2.664 . S
Dy260 O271 2.326 . S
Dy260 O275 2.310 . S
Dy260 O276 2.351 . S
C261 O272 1.185 . S
C261 O273 1.355 . S
C262 O264 1.185 . S
C262 O265 1.355 . S
Dy263 O267 2.310 . S
Dy263 O270 2.351 . S
Dy263 O272 2.398 . S
Dy263 O273 2.491 . S
Dy263 O274 2.403 . S
Dy263 O275 2.664 . S
Dy263 O277 2.326 . S
O264 Dy260 2.398 . S
O264 C262 1.185 . S
O265 Dy260 2.491 . S
O265 C262 1.355 . S
O266 Dy260 2.403 . S
O266 C268 1.254 . S
O267 Dy260 2.664 . S
O267 Dy263 2.310 . S
O267 C268 1.268 . S
C268 O266 1.254 . S
C268 O267 1.268 . S
C269 O274 1.254 . S
C269 O275 1.268 . S
O270 Dy263 2.351 . S
O270 C278 1.249 . S
O271 Dy260 2.326 . S
O271 C278 1.267 . S
O272 C261 1.185 . S
O272 Dy263 2.398 . S
O273 C261 1.355 . S
O273 Dy263 2.491 . S
O274 Dy263 2.403 . S
O274 C269 1.254 . S
O275 Dy260 2.310 . S
O275 Dy263 2.664 . S
O275 C269 1.268 . S
O276 Dy260 2.351 . S
O276 C279 1.249 . S
O277 Dy263 2.326 . S
O277 C279 1.267 . S
C278 O270 1.249 . S
C278 O271 1.267 . S
C279 O276 1.249 . S
C279 O277 1.267 . S
Dy280 O284 2.398 . S
Dy280 O285 2.491 . S
Dy280 O286 2.403 . S
Dy280 O287 2.664 . S
Dy280 O291 2.326 . S
Dy280 O295 2.310 . S
Dy280 O296 2.351 . S
C281 O292 1.185 . S
C281 O293 1.355 . S
C282 O284 1.185 . S
C282 O285 1.355 . S
Dy283 O287 2.310 . S
Dy283 O290 2.351 . S
Dy283 O292 2.398 . S
Dy283 O293 2.491 . S
Dy283 O294 2.403 . S
Dy283 O295 2.664 . S
Dy283 O297 2.326 . S
O284 Dy280 2.398 . S
O284 C282 1.185 . S
O285 Dy280 2.491 . S
O285 C282 1.355 . S
O286 Dy280 2.403 . S
O286 C288 1.254 . S
O287 Dy280 2.664 . S
O287 Dy283 2.310 . S
O287 C288 1.268 . S
C288 O286 1.254 . S
C288 O287 1.268 . S
C289 O294 1.254 . S
C289 O295 1.268 . S
O290 Dy283 2.351 . S
O290 C298 1.249 . S
O291 Dy280 2.326 . S
O291 C298 1.267 . S
O292 C281 1.185 . S
O292 Dy283 2.398 . S
O293 C281 1.355 . S
O293 Dy283 2.491 . S
O294 Dy283 2.403 . S
O294 C289 1.254 . S
O295 Dy280 2.310 . S
O295 Dy283 2.664 . S
O295 C289 1.268 . S
O296 Dy280 2.351 . S
O296 C299 1.249 . S
O297 Dy283 2.326 . S
O297 C299 1.267 . S
C298 O290 1.249 . S
C298 O291 1.267 . S
C299 O296 1.249 . S
C299 O297 1.267 . S
Dy300 O304 2.398 . S
Dy300 O305 2.491 . S
Dy300 O306 2.403 . S
Dy300 O307 2.664 . S
Dy300 O311 2.326 . S
Dy300 O315 2.310 . S
Dy300 O316 2.351 . S
C301 O312 1.185 . S
C301 O313 1.355 . S
C302 O304 1.185 . S
C302 O305 1.355 . S
Dy303 O307 2.310 . S
Dy303 O310 2.351 . S
Dy303 O312 2.398 . S
Dy303 O313 2.491 . S
Dy303 O314 2.403 . S
Dy303 O315 2.664 . S
Dy303 O317 2.326 . S
O304 Dy300 2.398 . S
O304 C302 1.185 . S
O305 Dy300 2.491 . S
O305 C302 1.355 . S
O306 Dy300 2.403 . S
O306 C308 1.254 . S
O307 Dy300 2.664 . S
O307 Dy303 2.310 . S
O307 C308 1.268 . S
C308 O306 1.254 . S
C308 O307 1.268 . S
C309 O314 1.254 . S
C309 O315 1.268 . S
O310 Dy303 2.351 . S
O310 C318 1.249 . S
O311 Dy300 2.326 . S
O311 C318 1.267 . S
O312 C301 1.185 . S
O312 Dy303 2.398 . S
O313 C301 1.355 . S
O313 Dy303 2.491 . S
O314 Dy303 2.403 . S
O314 C309 1.254 . S
O315 Dy300 2.310 . S
O315 Dy303 2.664 . S
O315 C309 1.268 . S
O316 Dy300 2.351 . S
O316 C319 1.249 . S
O317 Dy303 2.326 . S
O317 C319 1.267 . S
C318 O310 1.249 . S
C318 O311 1.267 . S
C319 O316 1.249 . S
C319 O317 1.267 . S
Dy320 O324 2.398 . S
Dy320 O325 2.491 . S
Dy320 O326 2.403 . S
Dy320 O327 2.664 . S
Dy320 O331 2.326 . S
Dy320 O335 2.310 . S
Dy320 O336 2.351 . S
C321 O332 1.185 . S
C321 O333 1.355 . S
C322 O324 1.185 . S
C322 O325 1.355 . S
Dy323 O327 2.310 . S
Dy323 O330 2.351 . S
Dy323 O332 2.398 . S
Dy323 O333 2.491 . S
Dy323 O334 2.403 . S
Dy323 O335 2.664 . S
Dy323 O337 2.326 . S
O324 Dy320 2.398 . S
O324 C322 1.185 . S
O325 Dy320 2.491 . S
O325 C322 1.355 . S
O326 Dy320 2.403 . S
O326 C328 1.254 . S
O327 Dy320 2.664 . S
O327 Dy323 2.310 . S
O327 C328 1.268 . S
C328 O326 1.254 . S
C328 O327 1.268 . S
C329 O334 1.254 . S
C329 O335 1.268 . S
O330 Dy323 2.351 . S
O330 C338 1.249 . S
O331 Dy320 2.326 . S
O331 C338 1.267 . S
O332 C321 1.185 . S
O332 Dy323 2.398 . S
O333 C321 1.355 . S
O333 Dy323 2.491 . S
O334 Dy323 2.403 . S
O334 C329 1.254 . S
O335 Dy320 2.310 . S
O335 Dy323 2.664 . S
O335 C329 1.268 . S
O336 Dy320 2.351 . S
O336 C339 1.249 . S
O337 Dy323 2.326 . S
O337 C339 1.267 . S
C338 O330 1.249 . S
C338 O331 1.267 . S
C339 O336 1.249 . S
C339 O337 1.267 . S
Dy340 O344 2.398 . S
Dy340 O345 2.491 . S
Dy340 O346 2.403 . S
Dy340 O347 2.664 . S
Dy340 O351 2.326 . S
Dy340 O355 2.310 . S
Dy340 O356 2.351 . S
C341 O352 1.185 . S
C341 O353 1.355 . S
C342 O344 1.185 . S
C342 O345 1.355 . S
Dy343 O347 2.310 . S
Dy343 O350 2.351 . S
Dy343 O352 2.398 . S
Dy343 O353 2.491 . S
Dy343 O354 2.403 . S
Dy343 O355 2.664 . S
Dy343 O357 2.326 . S
O344 Dy340 2.398 . S
O344 C342 1.185 . S
O345 Dy340 2.491 . S
O345 C342 1.355 . S
O346 Dy340 2.403 . S
O346 C348 1.254 . S
O347 Dy340 2.664 . S
O347 Dy343 2.310 . S
O347 C348 1.268 . S
C348 O346 1.254 . S
C348 O347 1.268 . S
C349 O354 1.254 . S
C349 O355 1.268 . S
O350 Dy343 2.351 . S
O350 C358 1.249 . S
O351 Dy340 2.326 . S
O351 C358 1.267 . S
O352 C341 1.185 . S
O352 Dy343 2.398 . S
O353 C341 1.355 . S
O353 Dy343 2.491 . S
O354 Dy343 2.403 . S
O354 C349 1.254 . S
O355 Dy340 2.310 . S
O355 Dy343 2.664 . S
O355 C349 1.268 . S
O356 Dy340 2.351 . S
O356 C359 1.249 . S
O357 Dy343 2.326 . S
O357 C359 1.267 . S
C358 O350 1.249 . S
C358 O351 1.267 . S
C359 O356 1.249 . S
C359 O357 1.267 . S
C360 C361 1.349 . S
C360 C362 1.327 . S
C360 H385 0.950 . S
C361 C360 1.349 . S
C361 C377 1.349 . S
C362 C360 1.327 . S
C362 C381 1.429 . S
C362 H386 0.950 . S
C363 C380 1.574 . S
C363 C382 1.368 . S
C363 H387 0.949 . S
H364 C368 0.949 . S
C365 C366 1.349 . S
C365 C367 1.327 . S
C365 H388 0.950 . S
C366 C365 1.349 . S
C366 C378 1.349 . S
C367 C365 1.327 . S
C367 C383 1.429 . S
C367 H389 0.950 . S
C368 H364 0.949 . S
C368 C376 1.574 . S
C368 C384 1.368 . S
H369 C377 0.950 . S
H370 C375 0.950 . S
H371 C376 0.949 . S
H372 C378 0.950 . S
H373 C379 0.950 . S
H374 C380 0.949 . S
C375 H370 0.950 . S
C375 C377 1.327 . S
C375 C381 1.429 . S
C376 C368 1.574 . S
C376 H371 0.949 . S
C376 C382 1.368 . S
C377 C361 1.349 . S
C377 H369 0.950 . S
C377 C375 1.327 . S
C378 C366 1.349 . S
C378 H372 0.950 . S
C378 C379 1.327 . S
C379 H373 0.950 . S
C379 C378 1.327 . S
C379 C383 1.429 . S
C380 C363 1.574 . S
C380 H374 0.949 . S
C380 C384 1.368 . S
C381 C362 1.429 . S
C381 C375 1.429 . S
C381 C382 1.523 . S
C382 C363 1.368 . S
C382 C376 1.368 . S
C382 C381 1.523 . S
C383 C367 1.429 . S
C383 C379 1.429 . S
C383 C384 1.523 . S
C384 C368 1.368 . S
C384 C380 1.368 . S
C384 C383 1.523 . S
H385 C360 0.950 . S
H386 C362 0.950 . S
H387 C363 0.949 . S
H388 C365 0.950 . S
H389 C367 0.950 . S
C390 C391 1.349 . S
C390 C392 1.327 . S
C390 H415 0.950 . S
C391 C390 1.349 . S
C391 C407 1.349 . S
C392 C390 1.327 . S
C392 C411 1.429 . S
C392 H416 0.950 . S
C393 C410 1.574 . S
C393 C412 1.368 . S
C393 H417 0.949 . S
H394 C398 0.949 . S
C395 C396 1.349 . S
C395 C397 1.327 . S
C395 H418 0.950 . S
C396 C395 1.349 . S
C396 C408 1.349 . S
C397 C395 1.327 . S
C397 C413 1.429 . S
C397 H419 0.950 . S
C398 H394 0.949 . S
C398 C406 1.574 . S
C398 C414 1.368 . S
H399 C407 0.950 . S
H400 C405 0.950 . S
H401 C406 0.949 . S
H402 C408 0.950 . S
H403 C409 0.950 . S
H404 C410 0.949 . S
C405 H400 0.950 . S
C405 C407 1.327 . S
C405 C411 1.429 . S
C406 C398 1.574 . S
C406 H401 0.949 . S
C406 C412 1.368 . S
C407 C391 1.349 . S
C407 H399 0.950 . S
C407 C405 1.327 . S
C408 C396 1.349 . S
C408 H402 0.950 . S
C408 C409 1.327 . S
C409 H403 0.950 . S
C409 C408 1.327 . S
C409 C413 1.429 . S
C410 C393 1.574 . S
C410 H404 0.949 . S
C410 C414 1.368 . S
C411 C392 1.429 . S
C411 C405 1.429 . S
C411 C412 1.523 . S
C412 C393 1.368 . S
C412 C406 1.368 . S
C412 C411 1.523 . S
C413 C397 1.429 . S
C413 C409 1.429 . S
C413 C414 1.523 . S
C414 C398 1.368 . S
C414 C410 1.368 . S
C414 C413 1.523 . S
H415 C390 0.950 . S
H416 C392 0.950 . S
H417 C393 0.949 . S
H418 C395 0.950 . S
H419 C397 0.950 . S
C420 C421 1.349 . S
C420 C422 1.327 . S
C420 H445 0.950 . S
C421 C420 1.349 . S
C421 C437 1.349 . S
C422 C420 1.327 . S
C422 C441 1.429 . S
C422 H446 0.950 . S
C423 C440 1.574 . S
C423 C442 1.368 . S
C423 H447 0.949 . S
H424 C428 0.949 . S
C425 C426 1.349 . S
C425 C427 1.327 . S
C425 H448 0.950 . S
C426 C425 1.349 . S
C426 C438 1.349 . S
C427 C425 1.327 . S
C427 C443 1.429 . S
C427 H449 0.950 . S
C428 H424 0.949 . S
C428 C436 1.574 . S
C428 C444 1.368 . S
H429 C437 0.950 . S
H430 C435 0.950 . S
H431 C436 0.949 . S
H432 C438 0.950 . S
H433 C439 0.950 . S
H434 C440 0.949 . S
C435 H430 0.950 . S
C435 C437 1.327 . S
C435 C441 1.429 . S
C436 C428 1.574 . S
C436 H431 0.949 . S
C436 C442 1.368 . S
C437 C421 1.349 . S
C437 H429 0.950 . S
C437 C435 1.327 . S
C438 C426 1.349 . S
C438 H432 0.950 . S
C438 C439 1.327 . S
C439 H433 0.950 . S
C439 C438 1.327 . S
C439 C443 1.429 . S
C440 C423 1.574 . S
C440 H434 0.949 . S
C440 C444 1.368 . S
C441 C422 1.429 . S
C441 C435 1.429 . S
C441 C442 1.523 . S
C442 C423 1.368 . S
C442 C436 1.368 . S
C442 C441 1.523 . S
C443 C427 1.429 . S
C443 C439 1.429 . S
C443 C444 1.523 . S
C444 C428 1.368 . S
C444 C440 1.368 . S
C444 C443 1.523 . S
H445 C420 0.950 . S
H446 C422 0.950 . S
H447 C423 0.949 . S
H448 C425 0.950 . S
H449 C427 0.950 . S
C450 C451 1.349 . S
C450 C452 1.327 . S
C450 H475 0.950 . S
C451 C450 1.349 . S
C451 C467 1.349 . S
C452 C450 1.327 . S
C452 C471 1.429 . S
C452 H476 0.950 . S
C453 C470 1.574 . S
C453 C472 1.368 . S
C453 H477 0.949 . S
H454 C458 0.949 . S
C455 C456 1.349 . S
C455 C457 1.327 . S
C455 H478 0.950 . S
C456 C455 1.349 . S
C456 C468 1.349 . S
C457 C455 1.327 . S
C457 C473 1.429 . S
C457 H479 0.950 . S
C458 H454 0.949 . S
C458 C466 1.574 . S
C458 C474 1.368 . S
H459 C467 0.950 . S
H460 C465 0.950 . S
H461 C466 0.949 . S
H462 C468 0.950 . S
H463 C469 0.950 . S
H464 C470 0.949 . S
C465 H460 0.950 . S
C465 C467 1.327 . S
C465 C471 1.429 . S
C466 C458 1.574 . S
C466 H461 0.949 . S
C466 C472 1.368 . S
C467 C451 1.349 . S
C467 H459 0.950 . S
C467 C465 1.327 . S
C468 C456 1.349 . S
C468 H462 0.950 . S
C468 C469 1.327 . S
C469 H463 0.950 . S
C469 C468 1.327 . S
C469 C473 1.429 . S
C470 C453 1.574 . S
C470 H464 0.949 . S
C470 C474 1.368 . S
C471 C452 1.429 . S
C471 C465 1.429 . S
C471 C472 1.523 . S
C472 C453 1.368 . S
C472 C466 1.368 . S
C472 C471 1.523 . S
C473 C457 1.429 . S
C473 C469 1.429 . S
C473 C474 1.523 . S
C474 C458 1.368 . S
C474 C470 1.368 . S
C474 C473 1.523 . S
H475 C450 0.950 . S
H476 C452 0.950 . S
H477 C453 0.949 . S
H478 C455 0.950 . S
H479 C457 0.950 . S
C480 C481 1.349 . S
C480 C482 1.327 . S
C480 H505 0.950 . S
C481 C480 1.349 . S
C481 C497 1.349 . S
C482 C480 1.327 . S
C482 C501 1.429 . S
C482 H506 0.950 . S
C483 C500 1.574 . S
C483 C502 1.368 . S
C483 H507 0.949 . S
H484 C488 0.949 . S
C485 C486 1.349 . S
C485 C487 1.327 . S
C485 H508 0.950 . S
C486 C485 1.349 . S
C486 C498 1.349 . S
C487 C485 1.327 . S
C487 C503 1.429 . S
C487 H509 0.950 . S
C488 H484 0.949 . S
C488 C496 1.574 . S
C488 C504 1.368 . S
H489 C497 0.950 . S
H490 C495 0.950 . S
H491 C496 0.949 . S
H492 C498 0.950 . S
H493 C499 0.950 . S
H494 C500 0.949 . S
C495 H490 0.950 . S
C495 C497 1.327 . S
C495 C501 1.429 . S
C496 C488 1.574 . S
C496 H491 0.949 . S
C496 C502 1.368 . S
C497 C481 1.349 . S
C497 H489 0.950 . S
C497 C495 1.327 . S
C498 C486 1.349 . S
C498 H492 0.950 . S
C498 C499 1.327 . S
C499 H493 0.950 . S
C499 C498 1.327 . S
C499 C503 1.429 . S
C500 C483 1.574 . S
C500 H494 0.949 . S
C500 C504 1.368 . S
C501 C482 1.429 . S
C501 C495 1.429 . S
C501 C502 1.523 . S
C502 C483 1.368 . S
C502 C496 1.368 . S
C502 C501 1.523 . S
C503 C487 1.429 . S
C503 C499 1.429 . S
C503 C504 1.523 . S
C504 C488 1.368 . S
C504 C500 1.368 . S
C504 C503 1.523 . S
H505 C480 0.950 . S
H506 C482 0.950 . S
H507 C483 0.949 . S
H508 C485 0.950 . S
H509 C487 0.950 . S
C510 C511 1.349 . S
C510 C512 1.327 . S
C510 H535 0.950 . S
C511 C510 1.349 . S
C511 C527 1.349 . S
C512 C510 1.327 . S
C512 C531 1.429 . S
C512 H536 0.950 . S
C513 C530 1.574 . S
C513 C532 1.368 . S
C513 H537 0.949 . S
H514 C518 0.949 . S
C515 C516 1.349 . S
C515 C517 1.327 . S
C515 H538 0.950 . S
C516 C515 1.349 . S
C516 C528 1.349 . S
C517 C515 1.327 . S
C517 C533 1.429 . S
C517 H539 0.950 . S
C518 H514 0.949 . S
C518 C526 1.574 . S
C518 C534 1.368 . S
H519 C527 0.950 . S
H520 C525 0.950 . S
H521 C526 0.949 . S
H522 C528 0.950 . S
H523 C529 0.950 . S
H524 C530 0.949 . S
C525 H520 0.950 . S
C525 C527 1.327 . S
C525 C531 1.429 . S
C526 C518 1.574 . S
C526 H521 0.949 . S
C526 C532 1.368 . S
C527 C511 1.349 . S
C527 H519 0.950 . S
C527 C525 1.327 . S
C528 C516 1.349 . S
C528 H522 0.950 . S
C528 C529 1.327 . S
C529 H523 0.950 . S
C529 C528 1.327 . S
C529 C533 1.429 . S
C530 C513 1.574 . S
C530 H524 0.949 . S
C530 C534 1.368 . S
C531 C512 1.429 . S
C531 C525 1.429 . S
C531 C532 1.523 . S
C532 C513 1.368 . S
C532 C526 1.368 . S
C532 C531 1.523 . S
C533 C517 1.429 . S
C533 C529 1.429 . S
C533 C534 1.523 . S
C534 C518 1.368 . S
C534 C530 1.368 . S
C534 C533 1.523 . S
H535 C510 0.950 . S
H536 C512 0.950 . S
H537 C513 0.949 . S
H538 C515 0.950 . S
H539 C517 0.950 . S
C540 C541 1.349 . S
C540 C542 1.327 . S
C540 H565 0.950 . S
C541 C540 1.349 . S
C541 C557 1.349 . S
C542 C540 1.327 . S
C542 C561 1.429 . S
C542 H566 0.950 . S
C543 C560 1.574 . S
C543 C562 1.368 . S
C543 H567 0.949 . S
H544 C548 0.949 . S
C545 C546 1.349 . S
C545 C547 1.327 . S
C545 H568 0.950 . S
C546 C545 1.349 . S
C546 C558 1.349 . S
C547 C545 1.327 . S
C547 C563 1.429 . S
C547 H569 0.950 . S
C548 H544 0.949 . S
C548 C556 1.574 . S
C548 C564 1.368 . S
H549 C557 0.950 1_565 S
H550 C555 0.950 . S
H551 C556 0.949 . S
H552 C558 0.950 . S
H553 C559 0.950 . S
H554 C560 0.949 . S
C555 H550 0.950 . S
C555 C557 1.327 . S
C555 C561 1.429 . S
C556 C548 1.574 . S
C556 H551 0.949 . S
C556 C562 1.368 . S
C557 C541 1.349 . S
C557 H549 0.950 1_545 S
C557 C555 1.327 . S
C558 C546 1.349 . S
C558 H552 0.950 . S
C558 C559 1.327 . S
C559 H553 0.950 . S
C559 C558 1.327 . S
C559 C563 1.429 . S
C560 C543 1.574 . S
C560 H554 0.949 . S
C560 C564 1.368 . S
C561 C542 1.429 . S
C561 C555 1.429 . S
C561 C562 1.523 . S
C562 C543 1.368 . S
C562 C556 1.368 . S
C562 C561 1.523 . S
C563 C547 1.429 . S
C563 C559 1.429 . S
C563 C564 1.523 . S
C564 C548 1.368 . S
C564 C560 1.368 . S
C564 C563 1.523 . S
H565 C540 0.950 . S
H566 C542 0.950 . S
H567 C543 0.949 . S
H568 C545 0.950 . S
H569 C547 0.950 . S
C570 C571 1.349 1_655 S
C570 C572 1.327 . S
C570 H595 0.950 . S
C571 C570 1.349 1_455 S
C571 C587 1.349 . S
C572 C570 1.327 . S
C572 C591 1.429 . S
C572 H596 0.950 . S
C573 C590 1.574 . S
C573 C592 1.368 . S
C573 H597 0.949 . S
H574 C578 0.949 . S
C575 C576 1.349 . S
C575 C577 1.327 . S
C575 H598 0.950 . S
C576 C575 1.349 . S
C576 C588 1.349 . S
C577 C575 1.327 . S
C577 C593 1.429 . S
C577 H599 0.950 . S
C578 H574 0.949 . S
C578 C586 1.574 . S
C578 C594 1.368 . S
H579 C587 0.950 . S
H580 C585 0.950 . S
H581 C586 0.949 . S
H582 C588 0.950 . S
H583 C589 0.950 . S
H584 C590 0.949 . S
C585 H580 0.950 . S
C585 C587 1.327 1_655 S
C585 C591 1.429 . S
C586 C578 1.574 . S
C586 H581 0.949 . S
C586 C592 1.368 . S
C587 C571 1.349 . S
C587 H579 0.950 . S
C587 C585 1.327 1_455 S
C588 C576 1.349 . S
C588 H582 0.950 . S
C588 C589 1.327 . S
C589 H583 0.950 . S
C589 C588 1.327 . S
C589 C593 1.429 . S
C590 C573 1.574 . S
C590 H584 0.949 . S
C590 C594 1.368 . S
C591 C572 1.429 . S
C591 C585 1.429 . S
C591 C592 1.523 . S
C592 C573 1.368 . S
C592 C586 1.368 . S
C592 C591 1.523 . S
C593 C577 1.429 . S
C593 C589 1.429 . S
C593 C594 1.523 1_565 S
C594 C578 1.368 . S
C594 C590 1.368 . S
C594 C593 1.523 1_545 S
H595 C570 0.950 . S
H596 C572 0.950 . S
H597 C573 0.949 . S
H598 C575 0.950 . S
H599 C577 0.950 . S
C600 C601 1.349 . S
C600 C602 1.327 . S
C600 H625 0.950 . S
C601 C600 1.349 . S
C601 C617 1.349 . S
C602 C600 1.327 . S
C602 C621 1.429 . S
C602 H626 0.950 . S
C603 C620 1.574 . S
C603 C622 1.368 1_655 S
C603 H627 0.949 . S
H604 C608 0.949 . S
C605 C606 1.349 . S
C605 C607 1.327 . S
C605 H628 0.950 . S
C606 C605 1.349 . S
C606 C618 1.349 . S
C607 C605 1.327 . S
C607 C623 1.429 . S
C607 H629 0.950 . S
C608 H604 0.949 . S
C608 C616 1.547 1_655 S
C608 C624 1.368 . S
H609 C617 0.950 . S
H610 C615 0.950 . S
H611 C616 0.960 . S
H612 C618 0.950 . S
H613 C619 0.950 . S
H614 C620 0.949 . S
C615 H610 0.950 . S
C615 C617 1.327 . S
C615 C621 1.429 . S
C616 C608 1.547 1_455 S
C616 H611 0.960 . S
C616 C622 1.383 . S
C617 C601 1.349 . S
C617 H609 0.950 . S
C617 C615 1.327 . S
C618 C606 1.349 . S
C618 H612 0.950 . S
C618 C619 1.327 . S
C619 H613 0.950 . S
C619 C618 1.327 . S
C619 C623 1.429 . S
C620 C603 1.574 . S
C620 H614 0.949 . S
C620 C624 1.368 . S
C621 C602 1.429 . S
C621 C615 1.429 . S
C621 C622 1.523 . S
C622 C603 1.368 1_455 S
C622 C616 1.383 . S
C622 C621 1.523 . S
C623 C607 1.429 . S
C623 C619 1.429 . S
C623 C624 1.523 . S
C624 C608 1.368 . S
C624 C620 1.368 . S
C624 C623 1.523 . S
H625 C600 0.950 . S
H626 C602 0.950 . S
H627 C603 0.949 . S
H628 C605 0.950 . S
H629 C607 0.950 . S
C630 C631 1.349 . S
C630 C632 1.327 . S
C630 H655 0.950 . S
C631 C630 1.349 . S
C631 C647 1.349 . S
C632 C630 1.327 . S
C632 C651 1.429 . S
C632 H656 0.950 . S
C633 C650 1.574 . S
C633 C652 1.368 . S
C633 H657 0.949 . S
H634 C638 0.949 . S
C635 C636 1.349 . S
C635 C637 1.327 . S
C635 H658 0.950 . S
C636 C635 1.349 . S
C636 C648 1.349 . S
C637 C635 1.327 . S
C637 C653 1.429 . S
C637 H659 0.950 . S
C638 H634 0.949 . S
C638 C646 1.574 . S
C638 C654 1.368 . S
H639 C647 0.950 . S
H640 C645 0.950 . S
H641 C646 0.949 . S
H642 C648 0.950 . S
H643 C649 0.950 . S
H644 C650 0.949 . S
C645 H640 0.950 . S
C645 C647 1.327 . S
C645 C651 1.429 . S
C646 C638 1.574 . S
C646 H641 0.949 . S
C646 C652 1.368 . S
C647 C631 1.349 . S
C647 H639 0.950 . S
C647 C645 1.327 . S
C648 C636 1.349 . S
C648 H642 0.950 . S
C648 C649 1.327 . S
C649 H643 0.950 . S
C649 C648 1.327 . S
C649 C653 1.429 . S
C650 C633 1.574 . S
C650 H644 0.949 . S
C650 C654 1.368 . S
C651 C632 1.429 . S
C651 C645 1.429 . S
C651 C652 1.523 . S
C652 C633 1.368 . S
C652 C646 1.368 . S
C652 C651 1.523 . S
C653 C637 1.429 . S
C653 C649 1.429 . S
C653 C654 1.523 . S
C654 C638 1.368 . S
C654 C650 1.368 . S
C654 C653 1.523 . S
H655 C630 0.950 . S
H656 C632 0.950 . S
H657 C633 0.949 . S
H658 C635 0.950 . S
H659 C637 0.950 . S
C660 C661 1.349 . S
C660 C662 1.327 . S
C660 H685 0.950 . S
C661 C660 1.349 . S
C661 C677 1.349 . S
C662 C660 1.327 . S
C662 C681 1.429 . S
C662 H686 0.950 . S
C663 C680 1.574 . S
C663 C682 1.368 . S
C663 H687 0.949 . S
H664 C668 0.949 . S
C665 C666 1.349 . S
C665 C667 1.327 . S
C665 H688 0.950 . S
C666 C665 1.349 . S
C666 C678 1.349 . S
C667 C665 1.327 . S
C667 C683 1.429 . S
C667 H689 0.950 . S
C668 H664 0.949 . S
C668 C676 1.574 . S
C668 C684 1.368 . S
H669 C677 0.950 . S
H670 C675 0.950 . S
H671 C676 0.949 . S
H672 C678 0.950 . S
H673 C679 0.950 . S
H674 C680 0.949 . S
C675 H670 0.950 . S
C675 C677 1.327 . S
C675 C681 1.429 . S
C676 C668 1.574 . S
C676 H671 0.949 . S
C676 C682 1.368 . S
C677 C661 1.349 . S
C677 H669 0.950 . S
C677 C675 1.327 . S
C678 C666 1.349 . S
C678 H672 0.950 . S
C678 C679 1.327 . S
C679 H673 0.950 . S
C679 C678 1.327 . S
C679 C683 1.429 . S
C680 C663 1.574 . S
C680 H674 0.949 . S
C680 C684 1.368 . S
C681 C662 1.429 . S
C681 C675 1.429 . S
C681 C682 1.523 . S
C682 C663 1.368 . S
C682 C676 1.368 . S
C682 C681 1.523 . S
C683 C667 1.429 . S
C683 C679 1.429 . S
C683 C684 1.523 . S
C684 C668 1.368 . S
C684 C680 1.368 . S
C684 C683 1.523 . S
H685 C660 0.950 . S
H686 C662 0.950 . S
H687 C663 0.949 . S
H688 C665 0.950 . S
H689 C667 0.950 . S
C690 C691 1.349 . S
C690 C692 1.327 . S
C690 H715 0.950 . S
C691 C690 1.349 . S
C691 C707 1.349 . S
C692 C690 1.327 . S
C692 C711 1.429 . S
C692 H716 0.950 . S
C693 C710 1.574 . S
C693 C712 1.368 . S
C693 H717 0.949 . S
H694 C698 0.949 . S
C695 C696 1.349 . S
C695 C697 1.327 . S
C695 H718 0.950 . S
C696 C695 1.349 . S
C696 C708 1.349 . S
C697 C695 1.327 . S
C697 C713 1.429 . S
C697 H719 0.950 . S
C698 H694 0.949 . S
C698 C706 1.574 . S
C698 C714 1.368 . S
H699 C707 0.950 . S
H700 C705 0.950 . S
H701 C706 0.949 . S
H702 C708 0.950 . S
H703 C709 0.950 . S
H704 C710 0.949 . S
C705 H700 0.950 . S
C705 C707 1.327 . S
C705 C711 1.429 . S
C706 C698 1.574 . S
C706 H701 0.949 . S
C706 C712 1.368 . S
C707 C691 1.349 . S
C707 H699 0.950 . S
C707 C705 1.327 . S
C708 C696 1.349 . S
C708 H702 0.950 . S
C708 C709 1.327 . S
C709 H703 0.950 . S
C709 C708 1.327 . S
C709 C713 1.429 . S
C710 C693 1.574 . S
C710 H704 0.949 . S
C710 C714 1.368 . S
C711 C692 1.429 . S
C711 C705 1.429 . S
C711 C712 1.523 . S
C712 C693 1.368 . S
C712 C706 1.368 . S
C712 C711 1.523 . S
C713 C697 1.429 . S
C713 C709 1.429 . S
C713 C714 1.523 . S
C714 C698 1.368 . S
C714 C710 1.368 . S
C714 C713 1.523 . S
H715 C690 0.950 . S
H716 C692 0.950 . S
H717 C693 0.949 . S
H718 C695 0.950 . S
H719 C697 0.950 . S
C720 C721 1.349 . S
C720 C722 1.327 . S
C720 H745 0.950 . S
C721 C720 1.349 . S
C721 C737 1.349 . S
C722 C720 1.327 . S
C722 C741 1.429 . S
C722 H746 0.950 . S
C723 C740 1.574 . S
C723 C742 1.368 . S
C723 H747 0.949 . S
H724 C728 0.949 . S
C725 C726 1.349 . S
C725 C727 1.327 . S
C725 H748 0.950 . S
C726 C725 1.349 . S
C726 C738 1.349 . S
C727 C725 1.327 . S
C727 C743 1.429 . S
C727 H749 0.950 . S
C728 H724 0.949 . S
C728 C736 1.574 . S
C728 C744 1.368 . S
H729 C737 0.950 . S
H730 C735 0.950 . S
H731 C736 0.949 . S
H732 C738 0.950 . S
H733 C739 0.950 . S
H734 C740 0.949 . S
C735 H730 0.950 . S
C735 C737 1.327 . S
C735 C741 1.429 . S
C736 C728 1.574 . S
C736 H731 0.949 . S
C736 C742 1.368 . S
C737 C721 1.349 . S
C737 H729 0.950 . S
C737 C735 1.327 . S
C738 C726 1.349 . S
C738 H732 0.950 . S
C738 C739 1.327 . S
C739 H733 0.950 . S
C739 C738 1.327 . S
C739 C743 1.429 . S
C740 C723 1.574 . S
C740 H734 0.949 . S
C740 C744 1.368 . S
C741 C722 1.429 . S
C741 C735 1.429 . S
C741 C742 1.523 . S
C742 C723 1.368 . S
C742 C736 1.368 . S
C742 C741 1.523 . S
C743 C727 1.429 . S
C743 C739 1.429 . S
C743 C744 1.523 . S
C744 C728 1.368 . S
C744 C740 1.368 . S
C744 C743 1.523 . S
H745 C720 0.950 . S
H746 C722 0.950 . S
H747 C723 0.949 . S
H748 C725 0.950 . S
H749 C727 0.950 . S
C750 C751 1.349 . S
C750 C752 1.327 . S
C750 H775 0.950 . S
C751 C750 1.349 . S
C751 C767 1.349 . S
C752 C750 1.327 . S
C752 C771 1.429 . S
C752 H776 0.950 . S
C753 C770 1.574 . S
C753 C772 1.368 . S
C753 H777 0.949 . S
H754 C758 0.949 . S
C755 C756 1.349 . S
C755 C757 1.327 . S
C755 H778 0.950 . S
C756 C755 1.349 . S
C756 C768 1.349 . S
C757 C755 1.327 . S
C757 C773 1.429 . S
C757 H779 0.950 . S
C758 H754 0.949 . S
C758 C766 1.574 . S
C758 C774 1.368 . S
H759 C767 0.950 . S
H760 C765 0.950 . S
H761 C766 0.949 . S
H762 C768 0.950 . S
H763 C769 0.950 . S
H764 C770 0.949 . S
C765 H760 0.950 . S
C765 C767 1.327 . S
C765 C771 1.429 . S
C766 C758 1.574 . S
C766 H761 0.949 . S
C766 C772 1.368 . S
C767 C751 1.349 . S
C767 H759 0.950 . S
C767 C765 1.327 . S
C768 C756 1.349 . S
C768 H762 0.950 . S
C768 C769 1.327 . S
C769 H763 0.950 . S
C769 C768 1.327 . S
C769 C773 1.429 . S
C770 C753 1.574 . S
C770 H764 0.949 . S
C770 C774 1.368 . S
C771 C752 1.429 . S
C771 C765 1.429 . S
C771 C772 1.523 . S
C772 C753 1.368 . S
C772 C766 1.368 . S
C772 C771 1.523 . S
C773 C757 1.429 . S
C773 C769 1.429 . S
C773 C774 1.523 . S
C774 C758 1.368 . S
C774 C770 1.368 . S
C774 C773 1.523 . S
H775 C750 0.950 . S
H776 C752 0.950 . S
H777 C753 0.949 . S
H778 C755 0.950 . S
H779 C757 0.950 . S
C780 C781 1.349 . S
C780 C782 1.327 . S
C780 H805 0.950 . S
C781 C780 1.349 . S
C781 C797 1.349 . S
C782 C780 1.327 . S
C782 C801 1.429 . S
C782 H806 0.950 . S
C783 C800 1.574 . S
C783 C802 1.368 . S
C783 H807 0.949 . S
H784 C788 0.949 . S
C785 C786 1.349 . S
C785 C787 1.327 . S
C785 H808 0.950 . S
C786 C785 1.349 . S
C786 C798 1.349 . S
C787 C785 1.327 . S
C787 C803 1.429 . S
C787 H809 0.950 . S
C788 H784 0.949 . S
C788 C796 1.574 . S
C788 C804 1.368 . S
H789 C797 0.950 . S
H790 C795 0.950 . S
H791 C796 0.949 . S
H792 C798 0.950 . S
H793 C799 0.950 . S
H794 C800 0.949 . S
C795 H790 0.950 . S
C795 C797 1.327 . S
C795 C801 1.429 . S
C796 C788 1.574 . S
C796 H791 0.949 . S
C796 C802 1.368 . S
C797 C781 1.349 . S
C797 H789 0.950 . S
C797 C795 1.327 . S
C798 C786 1.349 . S
C798 H792 0.950 . S
C798 C799 1.327 . S
C799 H793 0.950 . S
C799 C798 1.327 . S
C799 C803 1.429 . S
C800 C783 1.574 . S
C800 H794 0.949 . S
C800 C804 1.368 . S
C801 C782 1.429 . S
C801 C795 1.429 . S
C801 C802 1.523 . S
C802 C783 1.368 . S
C802 C796 1.368 . S
C802 C801 1.523 . S
C803 C787 1.429 . S
C803 C799 1.429 . S
C803 C804 1.523 . S
C804 C788 1.368 . S
C804 C800 1.368 . S
C804 C803 1.523 . S
H805 C780 0.950 . S
H806 C782 0.950 . S
H807 C783 0.949 . S
H808 C785 0.950 . S
H809 C787 0.950 . S
C810 C811 1.349 . S
C810 C812 1.327 . S
C810 H835 0.950 . S
C811 C810 1.349 . S
C811 C827 1.349 . S
C812 C810 1.327 . S
C812 C831 1.429 . S
C812 H836 0.950 . S
C813 C830 1.574 . S
C813 C832 1.368 . S
C813 H837 0.949 . S
H814 C818 0.949 . S
C815 C816 1.349 . S
C815 C817 1.327 . S
C815 H838 0.950 . S
C816 C815 1.349 . S
C816 C828 1.349 . S
C817 C815 1.327 . S
C817 C833 1.429 . S
C817 H839 0.950 . S
C818 H814 0.949 . S
C818 C826 1.574 . S
C818 C834 1.368 . S
H819 C827 0.950 1_655 S
H820 C825 0.950 . S
H821 C826 0.949 . S
H822 C828 0.950 . S
H823 C829 0.950 . S
H824 C830 0.949 . S
C825 H820 0.950 . S
C825 C827 1.327 . S
C825 C831 1.429 . S
C826 C818 1.574 . S
C826 H821 0.949 . S
C826 C832 1.368 . S
C827 C811 1.349 . S
C827 H819 0.950 1_455 S
C827 C825 1.327 . S
C828 C816 1.349 . S
C828 H822 0.950 . S
C828 C829 1.327 . S
C829 H823 0.950 . S
C829 C828 1.327 . S
C829 C833 1.429 . S
C830 C813 1.574 . S
C830 H824 0.949 . S
C830 C834 1.368 . S
C831 C812 1.429 . S
C831 C825 1.429 . S
C831 C832 1.523 . S
C832 C813 1.368 . S
C832 C826 1.368 . S
C832 C831 1.523 . S
C833 C817 1.429 . S
C833 C829 1.429 . S
C833 C834 1.523 . S
C834 C818 1.368 . S
C834 C830 1.368 . S
C834 C833 1.523 . S
H835 C810 0.950 . S
H836 C812 0.950 . S
H837 C813 0.949 . S
H838 C815 0.950 . S
H839 C817 0.950 . S
C840 C841 1.349 . S
C840 C842 1.327 . S
C840 H865 0.950 . S
C841 C840 1.349 . S
C841 C857 1.349 . S
C842 C840 1.327 . S
C842 C861 1.429 . S
C842 H866 0.950 . S
C843 C860 1.574 . S
C843 C862 1.368 . S
C843 H867 0.949 . S
H844 C848 0.949 . S
C845 C846 1.349 . S
C845 C847 1.327 . S
C845 H868 0.950 . S
C846 C845 1.349 . S
C846 C858 1.349 . S
C847 C845 1.327 . S
C847 C863 1.429 . S
C847 H869 0.950 . S
C848 H844 0.949 . S
C848 C856 1.574 . S
C848 C864 1.368 1_565 S
H849 C857 0.950 . S
H850 C855 0.950 . S
H851 C856 0.949 . S
H852 C858 0.950 . S
H853 C859 0.950 . S
H854 C860 0.949 1_545 S
C855 H850 0.950 . S
C855 C857 1.327 . S
C855 C861 1.429 . S
C856 C848 1.574 . S
C856 H851 0.949 . S
C856 C862 1.368 . S
C857 C841 1.349 . S
C857 H849 0.950 . S
C857 C855 1.327 . S
C858 C846 1.349 . S
C858 H852 0.950 . S
C858 C859 1.327 . S
C859 H853 0.950 . S
C859 C858 1.327 . S
C859 C863 1.429 . S
C860 C843 1.574 . S
C860 H854 0.949 1_565 S
C860 C864 1.368 1_565 S
C861 C842 1.429 . S
C861 C855 1.429 . S
C861 C862 1.523 . S
C862 C843 1.368 . S
C862 C856 1.368 . S
C862 C861 1.523 . S
C863 C847 1.429 . S
C863 C859 1.429 . S
C863 C864 1.523 . S
C864 C848 1.368 1_545 S
C864 C860 1.368 1_545 S
C864 C863 1.523 . S
H865 C840 0.950 . S
H866 C842 0.950 . S
H867 C843 0.949 . S
H868 C845 0.950 . S
H869 C847 0.950 . S
C870 C871 1.349 1_565 S
C870 C872 1.327 . S
C870 H895 0.950 . S
C871 C870 1.349 1_545 S
C871 C887 1.349 . S
C872 C870 1.327 . S
C872 C891 1.429 . S
C872 H896 0.950 . S
C873 C890 1.574 . S
C873 C892 1.368 . S
C873 H897 0.949 . S
H874 C878 0.949 . S
C875 C876 1.349 . S
C875 C877 1.327 . S
C875 H898 0.950 . S
C876 C875 1.349 . S
C876 C888 1.349 . S
C877 C875 1.327 . S
C877 C893 1.429 . S
C877 H899 0.950 . S
C878 H874 0.949 . S
C878 C886 1.574 . S
C878 C894 1.368 . S
H879 C887 0.950 . S
H880 C885 0.950 . S
H881 C886 0.949 . S
H882 C888 0.950 . S
H883 C889 0.950 . S
H884 C890 0.949 . S
C885 H880 0.950 . S
C885 C887 1.327 1_565 S
C885 C891 1.429 . S
C886 C878 1.574 . S
C886 H881 0.949 . S
C886 C892 1.368 . S
C887 C871 1.349 . S
C887 H879 0.950 . S
C887 C885 1.327 1_545 S
C888 C876 1.349 . S
C888 H882 0.950 . S
C888 C889 1.327 . S
C889 H883 0.950 . S
C889 C888 1.327 . S
C889 C893 1.429 . S
C890 C873 1.574 . S
C890 H884 0.949 . S
C890 C894 1.368 . S
C891 C872 1.429 . S
C891 C885 1.429 . S
C891 C892 1.523 . S
C892 C873 1.368 . S
C892 C886 1.368 . S
C892 C891 1.523 . S
C893 C877 1.429 . S
C893 C889 1.429 . S
C893 C894 1.523 1_655 S
C894 C878 1.368 . S
C894 C890 1.368 . S
C894 C893 1.523 1_455 S
H895 C870 0.950 . S
H896 C872 0.950 . S
H897 C873 0.949 . S
H898 C875 0.950 . S
H899 C877 0.950 . S
C900 C901 1.349 . S
C900 C902 1.327 . S
C900 H925 0.950 . S
C901 C900 1.349 . S
C901 C917 1.349 1_545 S
C902 C900 1.327 . S
C902 C921 1.429 . S
C902 H926 0.950 . S
C903 C920 1.574 1_554 S
C903 C922 1.368 1_565 S
C903 H927 0.949 . S
H904 C908 0.949 . S
C905 C906 1.349 1_565 S
C905 C907 1.327 . S
C905 H928 0.950 . S
C906 C905 1.349 1_545 S
C906 C918 1.349 . S
C907 C905 1.327 . S
C907 C923 1.429 1_565 S
C907 H929 0.950 . S
C908 H904 0.949 . S
C908 C916 1.574 1_556 S
C908 C924 1.368 . S
H909 C917 0.950 . S
H910 C915 0.950 . S
H911 C916 0.949 . S
H912 C918 0.950 . S
H913 C919 0.950 . S
H914 C920 0.949 . S
C915 H910 0.950 . S
C915 C917 1.327 . S
C915 C921 1.429 1_565 S
C916 C908 1.574 1_554 S
C916 H911 0.949 . S
C916 C922 1.368 . S
C917 C901 1.349 1_565 S
C917 H909 0.950 . S
C917 C915 1.327 . S
C918 C906 1.349 . S
C918 H912 0.950 . S
C918 C919 1.327 . S
C919 H913 0.950 . S
C919 C918 1.327 . S
C919 C923 1.429 . S
C920 C903 1.574 1_556 S
C920 H914 0.949 . S
C920 C924 1.368 1_565 S
C921 C902 1.429 . S
C921 C915 1.429 1_545 S
C921 C922 1.523 . S
C922 C903 1.368 1_545 S
C922 C916 1.368 . S
C922 C921 1.523 . S
C923 C907 1.429 1_545 S
C923 C919 1.429 . S
C923 C924 1.523 . S
C924 C908 1.368 . S
C924 C920 1.368 1_545 S
C924 C923 1.523 . S
H925 C900 0.950 . S
H926 C902 0.950 . S
H927 C903 0.949 . S
H928 C905 0.950 . S
H929 C907 0.950 . S
C930 C931 1.349 . S
C930 C932 1.327 . S
C930 H955 0.950 . S
C931 C930 1.349 . S
C931 C947 1.349 . S
C932 C930 1.327 . S
C932 C951 1.429 . S
C932 H956 0.950 . S
C933 C950 1.574 1_556 S
C933 C952 1.368 . S
C933 H957 0.949 . S
H934 C938 0.949 . S
C935 C936 1.349 . S
C935 C937 1.327 . S
C935 H958 0.950 . S
C936 C935 1.349 . S
C936 C948 1.349 . S
C937 C935 1.327 . S
C937 C953 1.429 . S
C937 H959 0.950 . S
C938 H934 0.949 . S
C938 C946 1.574 1_554 S
C938 C954 1.368 . S
H939 C947 0.950 . S
H940 C945 0.950 . S
H941 C946 0.949 . S
H942 C948 0.950 . S
H943 C949 0.950 . S
H944 C950 0.949 . S
C945 H940 0.950 . S
C945 C947 1.327 . S
C945 C951 1.429 . S
C946 C938 1.574 1_556 S
C946 H941 0.949 . S
C946 C952 1.368 . S
C947 C931 1.349 . S
C947 H939 0.950 . S
C947 C945 1.327 . S
C948 C936 1.349 . S
C948 H942 0.950 . S
C948 C949 1.327 . S
C949 H943 0.950 . S
C949 C948 1.327 . S
C949 C953 1.429 . S
C950 C933 1.574 1_554 S
C950 H944 0.949 . S
C950 C954 1.368 . S
C951 C932 1.429 . S
C951 C945 1.429 . S
C951 C952 1.523 . S
C952 C933 1.368 . S
C952 C946 1.368 . S
C952 C951 1.523 . S
C953 C937 1.429 . S
C953 C949 1.429 . S
C953 C954 1.523 . S
C954 C938 1.368 . S
C954 C950 1.368 . S
C954 C953 1.523 . S
H955 C930 0.950 . S
H956 C932 0.950 . S
H957 C933 0.949 . S
H958 C935 0.950 . S
H959 C937 0.950 . S
C960 C961 1.349 . S
C960 C962 1.327 . S
C960 H985 0.950 . S
C961 C960 1.349 . S
C961 C977 1.349 . S
C962 C960 1.327 . S
C962 C981 1.429 . S
C962 H986 0.950 . S
C963 C980 1.574 1_556 S
C963 C982 1.368 . S
C963 H987 0.949 . S
H964 C968 0.949 . S
C965 C966 1.349 . S
C965 C967 1.327 . S
C965 H988 0.950 . S
C966 C965 1.349 . S
C966 C978 1.349 . S
C967 C965 1.327 . S
C967 C983 1.429 . S
C967 H989 0.950 . S
C968 H964 0.949 . S
C968 C976 1.574 1_554 S
C968 C984 1.368 . S
H969 C977 0.950 . S
H970 C975 0.950 . S
H971 C976 0.949 . S
H972 C978 0.950 . S
H973 C979 0.950 . S
H974 C980 0.949 . S
C975 H970 0.950 . S
C975 C977 1.327 . S
C975 C981 1.429 . S
C976 C968 1.574 1_556 S
C976 H971 0.949 . S
C976 C982 1.368 . S
C977 C961 1.349 . S
C977 H969 0.950 . S
C977 C975 1.327 . S
C978 C966 1.349 . S
C978 H972 0.950 . S
C978 C979 1.327 . S
C979 H973 0.950 . S
C979 C978 1.327 . S
C979 C983 1.429 . S
C980 C963 1.574 1_554 S
C980 H974 0.949 . S
C980 C984 1.368 . S
C981 C962 1.429 . S
C981 C975 1.429 . S
C981 C982 1.523 . S
C982 C963 1.368 . S
C982 C976 1.368 . S
C982 C981 1.523 . S
C983 C967 1.429 . S
C983 C979 1.429 . S
C983 C984 1.523 . S
C984 C968 1.368 . S
C984 C980 1.368 . S
C984 C983 1.523 . S
H985 C960 0.950 . S
H986 C962 0.950 . S
H987 C963 0.949 . S
H988 C965 0.950 . S
H989 C967 0.950 . S
C990 C991 1.349 . S
C990 C992 1.327 . S
C990 H1015 0.950 . S
C991 C990 1.349 . S
C991 C1007 1.349 . S
C992 C990 1.327 . S
C992 C1011 1.429 . S
C992 H1016 0.950 . S
C993 C1010 1.574 . S
C993 C1012 1.368 . S
C993 H1017 0.949 . S
H994 C998 0.949 . S
C995 C996 1.349 . S
C995 C997 1.327 . S
C995 H1018 0.950 . S
C996 C995 1.349 . S
C996 C1008 1.349 . S
C997 C995 1.327 . S
C997 C1013 1.429 . S
C997 H1019 0.950 . S
C998 H994 0.949 . S
C998 C1006 1.574 . S
C998 C1014 1.368 . S
H999 C1007 0.950 . S
H1000 C1005 0.950 . S
H1001 C1006 0.949 . S
H1002 C1008 0.950 . S
H1003 C1009 0.950 . S
H1004 C1010 0.949 . S
C1005 H1000 0.950 . S
C1005 C1007 1.327 . S
C1005 C1011 1.429 . S
C1006 C998 1.574 . S
C1006 H1001 0.949 . S
C1006 C1012 1.368 . S
C1007 C991 1.349 . S
C1007 H999 0.950 . S
C1007 C1005 1.327 . S
C1008 C996 1.349 . S
C1008 H1002 0.950 . S
C1008 C1009 1.327 . S
C1009 H1003 0.950 . S
C1009 C1008 1.327 . S
C1009 C1013 1.429 . S
C1010 C993 1.574 . S
C1010 H1004 0.949 . S
C1010 C1014 1.368 . S
C1011 C992 1.429 . S
C1011 C1005 1.429 . S
C1011 C1012 1.523 . S
C1012 C993 1.368 . S
C1012 C1006 1.368 . S
C1012 C1011 1.523 . S
C1013 C997 1.429 . S
C1013 C1009 1.429 . S
C1013 C1014 1.523 . S
C1014 C998 1.368 . S
C1014 C1010 1.368 . S
C1014 C1013 1.523 . S
H1015 C990 0.950 . S
H1016 C992 0.950 . S
H1017 C993 0.949 . S
H1018 C995 0.950 . S
H1019 C997 0.950 . S
C1020 C1021 1.349 . S
C1020 C1022 1.327 . S
C1020 H1045 0.950 . S
C1021 C1020 1.349 . S
C1021 C1037 1.349 . S
C1022 C1020 1.327 . S
C1022 C1041 1.429 . S
C1022 H1046 0.950 . S
C1023 C1040 1.574 . S
C1023 C1042 1.368 . S
C1023 H1047 0.949 . S
H1024 C1028 0.949 . S
C1025 C1026 1.349 . S
C1025 C1027 1.327 . S
C1025 H1048 0.950 . S
C1026 C1025 1.349 . S
C1026 C1038 1.349 . S
C1027 C1025 1.327 . S
C1027 C1043 1.429 . S
C1027 H1049 0.950 . S
C1028 H1024 0.949 . S
C1028 C1036 1.574 . S
C1028 C1044 1.368 . S
H1029 C1037 0.950 . S
H1030 C1035 0.950 . S
H1031 C1036 0.949 . S
H1032 C1038 0.950 . S
H1033 C1039 0.950 . S
H1034 C1040 0.949 . S
C1035 H1030 0.950 . S
C1035 C1037 1.327 . S
C1035 C1041 1.429 . S
C1036 C1028 1.574 . S
C1036 H1031 0.949 . S
C1036 C1042 1.368 . S
C1037 C1021 1.349 . S
C1037 H1029 0.950 . S
C1037 C1035 1.327 . S
C1038 C1026 1.349 . S
C1038 H1032 0.950 . S
C1038 C1039 1.327 . S
C1039 H1033 0.950 . S
C1039 C1038 1.327 . S
C1039 C1043 1.429 . S
C1040 C1023 1.574 . S
C1040 H1034 0.949 . S
C1040 C1044 1.368 . S
C1041 C1022 1.429 . S
C1041 C1035 1.429 . S
C1041 C1042 1.523 . S
C1042 C1023 1.368 . S
C1042 C1036 1.368 . S
C1042 C1041 1.523 . S
C1043 C1027 1.429 . S
C1043 C1039 1.429 . S
C1043 C1044 1.523 . S
C1044 C1028 1.368 . S
C1044 C1040 1.368 . S
C1044 C1043 1.523 . S
H1045 C1020 0.950 . S
H1046 C1022 0.950 . S
H1047 C1023 0.949 . S
H1048 C1025 0.950 . S
H1049 C1027 0.950 . S
C1050 C1051 1.349 . S
C1050 C1052 1.327 . S
C1050 H1075 0.950 . S
C1051 C1050 1.349 . S
C1051 C1067 1.349 . S
C1052 C1050 1.327 . S
C1052 C1071 1.429 . S
C1052 H1076 0.950 . S
C1053 C1070 1.574 . S
C1053 C1072 1.368 . S
C1053 H1077 0.949 . S
H1054 C1058 0.949 . S
C1055 C1056 1.349 . S
C1055 C1057 1.327 . S
C1055 H1078 0.950 . S
C1056 C1055 1.349 . S
C1056 C1068 1.349 . S
C1057 C1055 1.327 . S
C1057 C1073 1.429 . S
C1057 H1079 0.950 . S
C1058 H1054 0.949 . S
C1058 C1066 1.574 . S
C1058 C1074 1.368 . S
H1059 C1067 0.950 . S
H1060 C1065 0.950 . S
H1061 C1066 0.949 . S
H1062 C1068 0.950 . S
H1063 C1069 0.950 . S
H1064 C1070 0.949 . S
C1065 H1060 0.950 . S
C1065 C1067 1.327 . S
C1065 C1071 1.429 . S
C1066 C1058 1.574 . S
C1066 H1061 0.949 . S
C1066 C1072 1.368 . S
C1067 C1051 1.349 . S
C1067 H1059 0.950 . S
C1067 C1065 1.327 . S
C1068 C1056 1.349 . S
C1068 H1062 0.950 . S
C1068 C1069 1.327 . S
C1069 H1063 0.950 . S
C1069 C1068 1.327 . S
C1069 C1073 1.429 . S
C1070 C1053 1.574 . S
C1070 H1064 0.949 . S
C1070 C1074 1.368 . S
C1071 C1052 1.429 . S
C1071 C1065 1.429 . S
C1071 C1072 1.523 . S
C1072 C1053 1.368 . S
C1072 C1066 1.368 . S
C1072 C1071 1.523 . S
C1073 C1057 1.429 . S
C1073 C1069 1.429 . S
C1073 C1074 1.523 . S
C1074 C1058 1.368 . S
C1074 C1070 1.368 . S
C1074 C1073 1.523 . S
H1075 C1050 0.950 . S
H1076 C1052 0.950 . S
H1077 C1053 0.949 . S
H1078 C1055 0.950 . S
H1079 C1057 0.950 . S
C1080 C1081 1.349 . S
C1080 C1082 1.327 . S
C1080 H1105 0.950 . S
C1081 C1080 1.349 . S
C1081 C1097 1.349 . S
C1082 C1080 1.327 . S
C1082 C1101 1.429 . S
C1082 H1106 0.950 . S
C1083 C1100 1.574 . S
C1083 C1102 1.368 . S
C1083 H1107 0.949 . S
H1084 C1088 0.949 . S
C1085 C1086 1.349 . S
C1085 C1087 1.327 . S
C1085 H1108 0.950 . S
C1086 C1085 1.349 . S
C1086 C1098 1.349 . S
C1087 C1085 1.327 . S
C1087 C1103 1.429 . S
C1087 H1109 0.950 . S
C1088 H1084 0.949 . S
C1088 C1096 1.574 . S
C1088 C1104 1.368 . S
H1089 C1097 0.950 . S
H1090 C1095 0.950 . S
H1091 C1096 0.949 . S
H1092 C1098 0.950 . S
H1093 C1099 0.950 . S
H1094 C1100 0.949 . S
C1095 H1090 0.950 . S
C1095 C1097 1.327 . S
C1095 C1101 1.429 . S
C1096 C1088 1.574 . S
C1096 H1091 0.949 . S
C1096 C1102 1.368 . S
C1097 C1081 1.349 . S
C1097 H1089 0.950 . S
C1097 C1095 1.327 . S
C1098 C1086 1.349 . S
C1098 H1092 0.950 . S
C1098 C1099 1.327 . S
C1099 H1093 0.950 . S
C1099 C1098 1.327 . S
C1099 C1103 1.429 . S
C1100 C1083 1.574 . S
C1100 H1094 0.949 . S
C1100 C1104 1.368 . S
C1101 C1082 1.429 . S
C1101 C1095 1.429 . S
C1101 C1102 1.523 . S
C1102 C1083 1.368 . S
C1102 C1096 1.368 . S
C1102 C1101 1.523 . S
C1103 C1087 1.429 . S
C1103 C1099 1.429 . S
C1103 C1104 1.523 . S
C1104 C1088 1.368 . S
C1104 C1100 1.368 . S
C1104 C1103 1.523 . S
H1105 C1080 0.950 . S
H1106 C1082 0.950 . S
H1107 C1083 0.949 . S
H1108 C1085 0.950 . S
H1109 C1087 0.950 . S
C1110 C1111 1.349 . S
C1110 C1112 1.327 . S
C1110 H1135 0.950 . S
C1111 C1110 1.349 . S
C1111 C1127 1.349 . S
C1112 C1110 1.327 . S
C1112 C1131 1.429 . S
C1112 H1136 0.950 . S
C1113 C1130 1.574 . S
C1113 C1132 1.368 . S
C1113 H1137 0.949 . S
H1114 C1118 0.949 . S
C1115 C1116 1.349 . S
C1115 C1117 1.327 . S
C1115 H1138 0.950 . S
C1116 C1115 1.349 . S
C1116 C1128 1.349 . S
C1117 C1115 1.327 . S
C1117 C1133 1.429 . S
C1117 H1139 0.950 . S
C1118 H1114 0.949 . S
C1118 C1126 1.574 . S
C1118 C1134 1.368 . S
H1119 C1127 0.950 . S
H1120 C1125 0.950 . S
H1121 C1126 0.949 . S
H1122 C1128 0.950 . S
H1123 C1129 0.950 . S
H1124 C1130 0.949 . S
C1125 H1120 0.950 . S
C1125 C1127 1.327 . S
C1125 C1131 1.429 . S
C1126 C1118 1.574 . S
C1126 H1121 0.949 . S
C1126 C1132 1.368 . S
C1127 C1111 1.349 . S
C1127 H1119 0.950 . S
C1127 C1125 1.327 . S
C1128 C1116 1.349 . S
C1128 H1122 0.950 . S
C1128 C1129 1.327 . S
C1129 H1123 0.950 . S
C1129 C1128 1.327 . S
C1129 C1133 1.429 . S
C1130 C1113 1.574 . S
C1130 H1124 0.949 . S
C1130 C1134 1.368 . S
C1131 C1112 1.429 . S
C1131 C1125 1.429 . S
C1131 C1132 1.523 . S
C1132 C1113 1.368 . S
C1132 C1126 1.368 . S
C1132 C1131 1.523 . S
C1133 C1117 1.429 . S
C1133 C1129 1.429 . S
C1133 C1134 1.523 . S
C1134 C1118 1.368 . S
C1134 C1130 1.368 . S
C1134 C1133 1.523 . S
H1135 C1110 0.950 . S
H1136 C1112 0.950 . S
H1137 C1113 0.949 . S
H1138 C1115 0.950 . S
H1139 C1117 0.950 . S
C1140 C1141 1.349 . S
C1140 C1142 1.327 . S
C1140 H1165 0.950 . S
C1141 C1140 1.349 . S
C1141 C1157 1.349 . S
C1142 C1140 1.327 . S
C1142 C1161 1.429 . S
C1142 H1166 0.950 . S
C1143 C1160 1.574 . S
C1143 C1162 1.368 . S
C1143 H1167 0.949 . S
H1144 C1148 0.949 . S
C1145 C1146 1.349 . S
C1145 C1147 1.327 . S
C1145 H1168 0.950 . S
C1146 C1145 1.349 . S
C1146 C1158 1.349 . S
C1147 C1145 1.327 . S
C1147 C1163 1.429 . S
C1147 H1169 0.950 . S
C1148 H1144 0.949 . S
C1148 C1156 1.574 . S
C1148 C1164 1.368 . S
H1149 C1157 0.950 . S
H1150 C1155 0.950 . S
H1151 C1156 0.949 . S
H1152 C1158 0.950 . S
H1153 C1159 0.950 . S
H1154 C1160 0.949 . S
C1155 H1150 0.950 . S
C1155 C1157 1.327 . S
C1155 C1161 1.429 . S
C1156 C1148 1.574 . S
C1156 H1151 0.949 . S
C1156 C1162 1.368 . S
C1157 C1141 1.349 . S
C1157 H1149 0.950 . S
C1157 C1155 1.327 . S
C1158 C1146 1.349 . S
C1158 H1152 0.950 . S
C1158 C1159 1.327 . S
C1159 H1153 0.950 . S
C1159 C1158 1.327 . S
C1159 C1163 1.429 . S
C1160 C1143 1.574 . S
C1160 H1154 0.949 . S
C1160 C1164 1.368 . S
C1161 C1142 1.429 . S
C1161 C1155 1.429 . S
C1161 C1162 1.523 . S
C1162 C1143 1.368 . S
C1162 C1156 1.368 . S
C1162 C1161 1.523 . S
C1163 C1147 1.429 . S
C1163 C1159 1.429 . S
C1163 C1164 1.523 . S
C1164 C1148 1.368 . S
C1164 C1160 1.368 . S
C1164 C1163 1.523 . S
H1165 C1140 0.950 . S
H1166 C1142 0.950 . S
H1167 C1143 0.949 . S
H1168 C1145 0.950 . S
H1169 C1147 0.950 . S
C1170 C1171 1.349 . S
C1170 C1172 1.327 . S
C1170 H1195 0.950 . S
C1171 C1170 1.349 . S
C1171 C1187 1.349 . S
C1172 C1170 1.327 . S
C1172 C1191 1.429 . S
C1172 H1196 0.950 . S
C1173 C1190 1.574 . S
C1173 C1192 1.368 . S
C1173 H1197 0.949 . S
H1174 C1178 0.949 . S
C1175 C1176 1.349 1_545 S
C1175 C1177 1.327 1_545 S
C1175 H1198 0.950 . S
C1176 C1175 1.349 1_565 S
C1176 C1188 1.349 . S
C1177 C1175 1.327 1_565 S
C1177 C1193 1.429 . S
C1177 H1199 0.950 1_565 S
C1178 H1174 0.949 . S
C1178 C1186 1.574 . S
C1178 C1194 1.368 . S
H1179 C1187 0.950 . S
H1180 C1185 0.950 . S
H1181 C1186 0.949 . S
H1182 C1188 0.950 . S
H1183 C1189 0.950 . S
H1184 C1190 0.949 . S
C1185 H1180 0.950 . S
C1185 C1187 1.327 . S
C1185 C1191 1.429 . S
C1186 C1178 1.574 . S
C1186 H1181 0.949 . S
C1186 C1192 1.368 . S
C1187 C1171 1.349 . S
C1187 H1179 0.950 . S
C1187 C1185 1.327 . S
C1188 C1176 1.349 . S
C1188 H1182 0.950 . S
C1188 C1189 1.327 . S
C1189 H1183 0.950 . S
C1189 C1188 1.327 . S
C1189 C1193 1.429 . S
C1190 C1173 1.574 . S
C1190 H1184 0.949 . S
C1190 C1194 1.368 . S
C1191 C1172 1.429 . S
C1191 C1185 1.429 . S
C1191 C1192 1.523 . S
C1192 C1173 1.368 . S
C1192 C1186 1.368 . S
C1192 C1191 1.523 . S
C1193 C1177 1.429 . S
C1193 C1189 1.429 . S
C1193 C1194 1.523 . S
C1194 C1178 1.368 . S
C1194 C1190 1.368 . S
C1194 C1193 1.523 . S
H1195 C1170 0.950 . S
H1196 C1172 0.950 . S
H1197 C1173 0.949 . S
H1198 C1175 0.950 . S
H1199 C1177 0.950 1_545 S
C1200 C1201 1.349 . S
C1200 C1202 1.327 . S
C1200 H1225 0.950 . S
C1201 C1200 1.349 . S
C1201 C1217 1.349 . S
C1202 C1200 1.327 . S
C1202 C1221 1.429 . S
C1202 H1226 0.950 . S
C1203 C1220 1.574 . S
C1203 C1222 1.368 . S
C1203 H1227 0.949 . S
H1204 C1208 0.949 . S
C1205 C1206 1.349 . S
C1205 C1207 1.327 . S
C1205 H1228 0.950 . S
C1206 C1205 1.349 . S
C1206 C1218 1.349 . S
C1207 C1205 1.327 . S
C1207 C1223 1.429 . S
C1207 H1229 0.950 . S
C1208 H1204 0.949 . S
C1208 C1216 1.574 . S
C1208 C1224 1.368 . S
H1209 C1217 0.950 . S
H1210 C1215 0.950 . S
H1211 C1216 0.949 . S
H1212 C1218 0.950 . S
H1213 C1219 0.950 . S
H1214 C1220 0.949 . S
C1215 H1210 0.950 . S
C1215 C1217 1.327 . S
C1215 C1221 1.429 . S
C1216 C1208 1.574 . S
C1216 H1211 0.949 . S
C1216 C1222 1.368 . S
C1217 C1201 1.349 . S
C1217 H1209 0.950 . S
C1217 C1215 1.327 . S
C1218 C1206 1.349 . S
C1218 H1212 0.950 . S
C1218 C1219 1.327 . S
C1219 H1213 0.950 . S
C1219 C1218 1.327 . S
C1219 C1223 1.429 . S
C1220 C1203 1.574 . S
C1220 H1214 0.949 . S
C1220 C1224 1.368 . S
C1221 C1202 1.429 . S
C1221 C1215 1.429 . S
C1221 C1222 1.523 . S
C1222 C1203 1.368 . S
C1222 C1216 1.368 . S
C1222 C1221 1.523 . S
C1223 C1207 1.429 . S
C1223 C1219 1.429 . S
C1223 C1224 1.523 . S
C1224 C1208 1.368 . S
C1224 C1220 1.368 . S
C1224 C1223 1.523 . S
H1225 C1200 0.950 . S
H1226 C1202 0.950 . S
H1227 C1203 0.949 . S
H1228 C1205 0.950 . S
H1229 C1207 0.950 . S
C1230 C1231 1.349 . S
C1230 C1232 1.327 . S
C1230 H1255 0.950 . S
C1231 C1230 1.349 . S
C1231 C1247 1.349 . S
C1232 C1230 1.327 . S
C1232 C1251 1.429 . S
C1232 H1256 0.950 . S
C1233 C1250 1.574 . S
C1233 C1252 1.368 . S
C1233 H1257 0.949 . S
H1234 C1238 0.949 . S
C1235 C1236 1.349 . S
C1235 C1237 1.327 . S
C1235 H1258 0.950 . S
C1236 C1235 1.349 . S
C1236 C1248 1.349 . S
C1237 C1235 1.327 . S
C1237 C1253 1.429 . S
C1237 H1259 0.950 . S
C1238 H1234 0.949 . S
C1238 C1246 1.574 . S
C1238 C1254 1.368 . S
H1239 C1247 0.950 . S
H1240 C1245 0.950 . S
H1241 C1246 0.949 . S
H1242 C1248 0.950 . S
H1243 C1249 0.950 . S
H1244 C1250 0.949 . S
C1245 H1240 0.950 . S
C1245 C1247 1.327 . S
C1245 C1251 1.429 . S
C1246 C1238 1.574 . S
C1246 H1241 0.949 . S
C1246 C1252 1.368 . S
C1247 C1231 1.349 . S
C1247 H1239 0.950 . S
C1247 C1245 1.327 . S
C1248 C1236 1.349 . S
C1248 H1242 0.950 . S
C1248 C1249 1.327 . S
C1249 H1243 0.950 . S
C1249 C1248 1.327 . S
C1249 C1253 1.429 . S
C1250 C1233 1.574 . S
C1250 H1244 0.949 . S
C1250 C1254 1.368 . S
C1251 C1232 1.429 . S
C1251 C1245 1.429 . S
C1251 C1252 1.523 . S
C1252 C1233 1.368 . S
C1252 C1246 1.368 . S
C1252 C1251 1.523 . S
C1253 C1237 1.429 . S
C1253 C1249 1.429 . S
C1253 C1254 1.523 . S
C1254 C1238 1.368 . S
C1254 C1250 1.368 . S
C1254 C1253 1.523 . S
H1255 C1230 0.950 . S
H1256 C1232 0.950 . S
H1257 C1233 0.949 . S
H1258 C1235 0.950 . S
H1259 C1237 0.950 . S
C1260 C1261 1.349 . S
C1260 C1262 1.327 . S
C1260 H1285 0.950 . S
C1261 C1260 1.349 . S
C1261 C1277 1.349 1_655 S
C1262 C1260 1.327 . S
C1262 C1281 1.429 . S
C1262 H1286 0.950 . S
C1263 C1280 1.574 . S
C1263 C1282 1.368 . S
C1263 H1287 0.949 . S
H1264 C1268 0.949 . S
C1265 C1266 1.349 . S
C1265 C1267 1.327 . S
C1265 H1288 0.950 . S
C1266 C1265 1.349 . S
C1266 C1278 1.349 . S
C1267 C1265 1.327 . S
C1267 C1283 1.429 . S
C1267 H1289 0.950 . S
C1268 H1264 0.949 . S
C1268 C1276 1.574 . S
C1268 C1284 1.368 . S
H1269 C1277 0.950 . S
H1270 C1275 0.950 1_455 S
H1271 C1276 0.949 . S
H1272 C1278 0.950 . S
H1273 C1279 0.950 . S
H1274 C1280 0.949 . S
C1275 H1270 0.950 1_655 S
C1275 C1277 1.327 1_655 S
C1275 C1281 1.429 . S
C1276 C1268 1.574 . S
C1276 H1271 0.949 . S
C1276 C1282 1.368 . S
C1277 C1261 1.349 1_455 S
C1277 H1269 0.950 . S
C1277 C1275 1.327 1_455 S
C1278 C1266 1.349 . S
C1278 H1272 0.950 . S
C1278 C1279 1.327 . S
C1279 H1273 0.950 . S
C1279 C1278 1.327 . S
C1279 C1283 1.429 . S
C1280 C1263 1.574 . S
C1280 H1274 0.949 . S
C1280 C1284 1.368 . S
C1281 C1262 1.429 . S
C1281 C1275 1.429 . S
C1281 C1282 1.523 . S
C1282 C1263 1.368 . S
C1282 C1276 1.368 . S
C1282 C1281 1.523 . S
C1283 C1267 1.429 . S
C1283 C1279 1.429 . S
C1283 C1284 1.523 . S
C1284 C1268 1.368 . S
C1284 C1280 1.368 . S
C1284 C1283 1.523 . S
H1285 C1260 0.950 . S
H1286 C1262 0.950 . S
H1287 C1263 0.949 . S
H1288 C1265 0.950 . S
H1289 C1267 0.950 . S
C1290 C1291 1.349 . S
C1290 C1292 1.327 . S
C1290 H1315 0.950 . S
C1291 C1290 1.349 . S
C1291 C1307 1.349 . S
C1292 C1290 1.327 . S
C1292 C1311 1.429 . S
C1292 H1316 0.950 . S
C1293 C1310 1.574 . S
C1293 C1312 1.368 . S
C1293 H1317 0.949 . S
H1294 C1298 0.949 . S
C1295 C1296 1.349 . S
C1295 C1297 1.327 . S
C1295 H1318 0.950 . S
C1296 C1295 1.349 . S
C1296 C1308 1.349 . S
C1297 C1295 1.327 . S
C1297 C1313 1.429 . S
C1297 H1319 0.950 . S
C1298 H1294 0.949 . S
C1298 C1306 1.574 . S
C1298 C1314 1.368 . S
H1299 C1307 0.950 . S
H1300 C1305 0.950 . S
H1301 C1306 0.949 . S
H1302 C1308 0.950 . S
H1303 C1309 0.950 . S
H1304 C1310 0.949 . S
C1305 H1300 0.950 . S
C1305 C1307 1.327 . S
C1305 C1311 1.429 . S
C1306 C1298 1.574 . S
C1306 H1301 0.949 . S
C1306 C1312 1.368 . S
C1307 C1291 1.349 . S
C1307 H1299 0.950 . S
C1307 C1305 1.327 . S
C1308 C1296 1.349 . S
C1308 H1302 0.950 . S
C1308 C1309 1.327 . S
C1309 H1303 0.950 . S
C1309 C1308 1.327 . S
C1309 C1313 1.429 . S
C1310 C1293 1.574 . S
C1310 H1304 0.949 . S
C1310 C1314 1.368 . S
C1311 C1292 1.429 . S
C1311 C1305 1.429 . S
C1311 C1312 1.523 . S
C1312 C1293 1.368 . S
C1312 C1306 1.368 . S
C1312 C1311 1.523 . S
C1313 C1297 1.429 . S
C1313 C1309 1.429 . S
C1313 C1314 1.523 . S
C1314 C1298 1.368 . S
C1314 C1310 1.368 . S
C1314 C1313 1.523 . S
H1315 C1290 0.950 . S
H1316 C1292 0.950 . S
H1317 C1293 0.949 . S
H1318 C1295 0.950 . S
H1319 C1297 0.950 . S
C1320 C1321 1.349 . S
C1320 C1322 1.327 . S
C1320 H1345 0.950 . S
C1321 C1320 1.349 . S
C1321 C1337 1.349 . S
C1322 C1320 1.327 . S
C1322 C1341 1.429 . S
C1322 H1346 0.950 . S
C1323 C1340 1.574 . S
C1323 C1342 1.368 . S
C1323 H1347 0.949 . S
H1324 C1328 0.949 . S
C1325 C1326 1.349 . S
C1325 C1327 1.327 . S
C1325 H1348 0.950 . S
C1326 C1325 1.349 . S
C1326 C1338 1.349 . S
C1327 C1325 1.327 . S
C1327 C1343 1.429 . S
C1327 H1349 0.950 . S
C1328 H1324 0.949 . S
C1328 C1336 1.574 . S
C1328 C1344 1.368 . S
H1329 C1337 0.950 . S
H1330 C1335 0.950 . S
H1331 C1336 0.949 . S
H1332 C1338 0.950 . S
H1333 C1339 0.950 . S
H1334 C1340 0.949 . S
C1335 H1330 0.950 . S
C1335 C1337 1.327 . S
C1335 C1341 1.429 . S
C1336 C1328 1.574 . S
C1336 H1331 0.949 . S
C1336 C1342 1.368 . S
C1337 C1321 1.349 . S
C1337 H1329 0.950 . S
C1337 C1335 1.327 . S
C1338 C1326 1.349 . S
C1338 H1332 0.950 . S
C1338 C1339 1.327 . S
C1339 H1333 0.950 . S
C1339 C1338 1.327 . S
C1339 C1343 1.429 . S
C1340 C1323 1.574 . S
C1340 H1334 0.949 . S
C1340 C1344 1.368 . S
C1341 C1322 1.429 . S
C1341 C1335 1.429 . S
C1341 C1342 1.523 . S
C1342 C1323 1.368 . S
C1342 C1336 1.368 . S
C1342 C1341 1.523 . S
C1343 C1327 1.429 . S
C1343 C1339 1.429 . S
C1343 C1344 1.523 . S
C1344 C1328 1.368 . S
C1344 C1340 1.368 . S
C1344 C1343 1.523 . S
H1345 C1320 0.950 . S
H1346 C1322 0.950 . S
H1347 C1323 0.949 . S
H1348 C1325 0.950 . S
H1349 C1327 0.950 . S
C1350 C1351 1.349 . S
C1350 C1352 1.327 . S
C1350 H1375 0.950 . S
C1351 C1350 1.349 . S
C1351 C1367 1.349 . S
C1352 C1350 1.327 . S
C1352 C1371 1.429 . S
C1352 H1376 0.950 . S
C1353 C1370 1.574 1_655 S
C1353 C1372 1.368 . S
C1353 H1377 0.949 . S
H1354 C1358 0.949 . S
C1355 C1356 1.349 . S
C1355 C1357 1.327 . S
C1355 H1378 0.950 . S
C1356 C1355 1.349 . S
C1356 C1368 1.349 . S
C1357 C1355 1.327 . S
C1357 C1373 1.429 . S
C1357 H1379 0.950 . S
C1358 H1354 0.949 . S
C1358 C1366 1.574 . S
C1358 C1374 1.368 . S
H1359 C1367 0.950 . S
H1360 C1365 0.950 . S
H1361 C1366 0.949 . S
H1362 C1368 0.950 . S
H1363 C1369 0.950 . S
H1364 C1370 0.949 1_655 S
C1365 H1360 0.950 . S
C1365 C1367 1.327 . S
C1365 C1371 1.429 . S
C1366 C1358 1.574 . S
C1366 H1361 0.949 . S
C1366 C1372 1.368 1_455 S
C1367 C1351 1.349 . S
C1367 H1359 0.950 . S
C1367 C1365 1.327 . S
C1368 C1356 1.349 . S
C1368 H1362 0.950 . S
C1368 C1369 1.327 . S
C1369 H1363 0.950 . S
C1369 C1368 1.327 . S
C1369 C1373 1.429 . S
C1370 C1353 1.574 1_455 S
C1370 H1364 0.949 1_455 S
C1370 C1374 1.368 . S
C1371 C1352 1.429 . S
C1371 C1365 1.429 . S
C1371 C1372 1.523 . S
C1372 C1353 1.368 . S
C1372 C1366 1.368 1_655 S
C1372 C1371 1.523 . S
C1373 C1357 1.429 . S
C1373 C1369 1.429 . S
C1373 C1374 1.523 . S
C1374 C1358 1.368 . S
C1374 C1370 1.368 . S
C1374 C1373 1.523 . S
H1375 C1350 0.950 . S
H1376 C1352 0.950 . S
H1377 C1353 0.949 . S
H1378 C1355 0.950 . S
H1379 C1357 0.950 . S
C1380 C1381 1.349 . S
C1380 C1382 1.327 . S
C1380 H1405 0.950 . S
C1381 C1380 1.349 . S
C1381 C1397 1.349 . S
C1382 C1380 1.327 . S
C1382 C1401 1.429 . S
C1382 H1406 0.950 . S
C1383 C1400 1.574 . S
C1383 C1402 1.368 . S
C1383 H1407 0.949 . S
H1384 C1388 0.949 . S
C1385 C1386 1.349 . S
C1385 C1387 1.327 . S
C1385 H1408 0.950 . S
C1386 C1385 1.349 . S
C1386 C1398 1.349 . S
C1387 C1385 1.327 . S
C1387 C1403 1.429 . S
C1387 H1409 0.950 . S
C1388 H1384 0.949 . S
C1388 C1396 1.574 . S
C1388 C1404 1.368 . S
H1389 C1397 0.950 . S
H1390 C1395 0.950 . S
H1391 C1396 0.949 . S
H1392 C1398 0.950 . S
H1393 C1399 0.950 . S
H1394 C1400 0.949 . S
C1395 H1390 0.950 . S
C1395 C1397 1.327 . S
C1395 C1401 1.429 . S
C1396 C1388 1.574 . S
C1396 H1391 0.949 . S
C1396 C1402 1.368 . S
C1397 C1381 1.349 . S
C1397 H1389 0.950 . S
C1397 C1395 1.327 . S
C1398 C1386 1.349 . S
C1398 H1392 0.950 . S
C1398 C1399 1.327 . S
C1399 H1393 0.950 . S
C1399 C1398 1.327 . S
C1399 C1403 1.429 . S
C1400 C1383 1.574 . S
C1400 H1394 0.949 . S
C1400 C1404 1.368 . S
C1401 C1382 1.429 . S
C1401 C1395 1.429 . S
C1401 C1402 1.523 . S
C1402 C1383 1.368 . S
C1402 C1396 1.368 . S
C1402 C1401 1.523 . S
C1403 C1387 1.429 . S
C1403 C1399 1.429 . S
C1403 C1404 1.523 . S
C1404 C1388 1.368 . S
C1404 C1400 1.368 . S
C1404 C1403 1.523 . S
H1405 C1380 0.950 . S
H1406 C1382 0.950 . S
H1407 C1383 0.949 . S
H1408 C1385 0.950 . S
H1409 C1387 0.950 . S
C1410 C1411 1.349 . S
C1410 C1412 1.327 . S
C1410 H1435 0.950 . S
C1411 C1410 1.349 . S
C1411 C1427 1.349 . S
C1412 C1410 1.327 . S
C1412 C1431 1.429 . S
C1412 H1436 0.950 . S
C1413 C1430 1.574 . S
C1413 C1432 1.368 1_545 S
C1413 H1437 0.949 . S
H1414 C1418 0.949 . S
C1415 C1416 1.349 . S
C1415 C1417 1.327 . S
C1415 H1438 0.950 . S
C1416 C1415 1.349 . S
C1416 C1428 1.349 . S
C1417 C1415 1.327 . S
C1417 C1433 1.429 . S
C1417 H1439 0.950 . S
C1418 H1414 0.949 . S
C1418 C1426 1.574 1_545 S
C1418 C1434 1.368 . S
H1419 C1427 0.950 . S
H1420 C1425 0.950 . S
H1421 C1426 0.949 . S
H1422 C1428 0.950 . S
H1423 C1429 0.950 . S
H1424 C1430 0.949 . S
C1425 H1420 0.950 . S
C1425 C1427 1.327 . S
C1425 C1431 1.429 . S
C1426 C1418 1.574 1_565 S
C1426 H1421 0.949 . S
C1426 C1432 1.368 . S
C1427 C1411 1.349 . S
C1427 H1419 0.950 . S
C1427 C1425 1.327 . S
C1428 C1416 1.349 . S
C1428 H1422 0.950 . S
C1428 C1429 1.327 . S
C1429 H1423 0.950 . S
C1429 C1428 1.327 . S
C1429 C1433 1.429 . S
C1430 C1413 1.574 . S
C1430 H1424 0.949 . S
C1430 C1434 1.368 . S
C1431 C1412 1.429 . S
C1431 C1425 1.429 . S
C1431 C1432 1.523 . S
C1432 C1413 1.368 1_565 S
C1432 C1426 1.368 . S
C1432 C1431 1.523 . S
C1433 C1417 1.429 . S
C1433 C1429 1.429 . S
C1433 C1434 1.523 . S
C1434 C1418 1.368 . S
C1434 C1430 1.368 . S
C1434 C1433 1.523 . S
H1435 C1410 0.950 . S
H1436 C1412 0.950 . S
H1437 C1413 0.949 . S
H1438 C1415 0.950 . S
H1439 C1417 0.950 . S
C1440 C1441 1.349 . S
C1440 C1442 1.327 . S
C1440 H1465 0.950 . S
C1441 C1440 1.349 . S
C1441 C1457 1.349 . S
C1442 C1440 1.327 . S
C1442 C1461 1.429 . S
C1442 H1466 0.950 . S
C1443 C1460 1.574 . S
C1443 C1462 1.368 . S
C1443 H1467 0.949 . S
H1444 C1448 0.949 . S
C1445 C1446 1.349 . S
C1445 C1447 1.327 . S
C1445 H1468 0.950 . S
C1446 C1445 1.349 . S
C1446 C1458 1.349 . S
C1447 C1445 1.327 . S
C1447 C1463 1.429 . S
C1447 H1469 0.950 . S
C1448 H1444 0.949 . S
C1448 C1456 1.574 . S
C1448 C1464 1.368 . S
H1449 C1457 0.950 . S
H1450 C1455 0.950 . S
H1451 C1456 0.949 . S
H1452 C1458 0.950 . S
H1453 C1459 0.950 . S
H1454 C1460 0.949 . S
C1455 H1450 0.950 . S
C1455 C1457 1.327 . S
C1455 C1461 1.429 . S
C1456 C1448 1.574 . S
C1456 H1451 0.949 . S
C1456 C1462 1.368 . S
C1457 C1441 1.349 . S
C1457 H1449 0.950 . S
C1457 C1455 1.327 . S
C1458 C1446 1.349 . S
C1458 H1452 0.950 . S
C1458 C1459 1.327 . S
C1459 H1453 0.950 . S
C1459 C1458 1.327 . S
C1459 C1463 1.429 . S
C1460 C1443 1.574 . S
C1460 H1454 0.949 . S
C1460 C1464 1.368 . S
C1461 C1442 1.429 . S
C1461 C1455 1.429 . S
C1461 C1462 1.523 . S
C1462 C1443 1.368 . S
C1462 C1456 1.368 . S
C1462 C1461 1.523 . S
C1463 C1447 1.429 . S
C1463 C1459 1.429 . S
C1463 C1464 1.523 . S
C1464 C1448 1.368 . S
C1464 C1460 1.368 . S
C1464 C1463 1.523 . S
H1465 C1440 0.950 . S
H1466 C1442 0.950 . S
H1467 C1443 0.949 . S
H1468 C1445 0.950 . S
H1469 C1447 0.950 . S
C1470 C1471 1.349 . S
C1470 C1472 1.327 . S
C1470 H1495 0.950 . S
C1471 C1470 1.349 . S
C1471 C1487 1.349 . S
C1472 C1470 1.327 . S
C1472 C1491 1.429 . S
C1472 H1496 0.950 . S
C1473 C1490 1.574 . S
C1473 C1492 1.368 . S
C1473 H1497 0.949 . S
H1474 C1478 0.949 . S
C1475 C1476 1.349 . S
C1475 C1477 1.327 . S
C1475 H1498 0.950 . S
C1476 C1475 1.349 . S
C1476 C1488 1.349 . S
C1477 C1475 1.327 . S
C1477 C1493 1.429 . S
C1477 H1499 0.950 . S
C1478 H1474 0.949 . S
C1478 C1486 1.574 . S
C1478 C1494 1.368 . S
H1479 C1487 0.950 . S
H1480 C1485 0.950 . S
H1481 C1486 0.949 . S
H1482 C1488 0.950 . S
H1483 C1489 0.950 . S
H1484 C1490 0.949 . S
C1485 H1480 0.950 . S
C1485 C1487 1.327 . S
C1485 C1491 1.429 . S
C1486 C1478 1.574 . S
C1486 H1481 0.949 . S
C1486 C1492 1.368 . S
C1487 C1471 1.349 . S
C1487 H1479 0.950 . S
C1487 C1485 1.327 . S
C1488 C1476 1.349 . S
C1488 H1482 0.950 . S
C1488 C1489 1.327 . S
C1489 H1483 0.950 . S
C1489 C1488 1.327 . S
C1489 C1493 1.429 . S
C1490 C1473 1.574 . S
C1490 H1484 0.949 . S
C1490 C1494 1.368 . S
C1491 C1472 1.429 . S
C1491 C1485 1.429 . S
C1491 C1492 1.523 . S
C1492 C1473 1.368 . S
C1492 C1486 1.368 . S
C1492 C1491 1.523 . S
C1493 C1477 1.429 . S
C1493 C1489 1.429 . S
C1493 C1494 1.523 . S
C1494 C1478 1.368 . S
C1494 C1490 1.368 . S
C1494 C1493 1.523 . S
H1495 C1470 0.950 . S
H1496 C1472 0.950 . S
H1497 C1473 0.949 . S
H1498 C1475 0.950 . S
H1499 C1477 0.950 . S
C1500 C1501 1.349 . S
C1500 C1502 1.327 . S
C1500 H1525 0.950 . S
C1501 C1500 1.349 . S
C1501 C1517 1.349 . S
C1502 C1500 1.327 . S
C1502 C1521 1.429 . S
C1502 H1526 0.950 . S
C1503 C1520 1.574 . S
C1503 C1522 1.368 . S
C1503 H1527 0.949 . S
H1504 C1508 0.949 . S
C1505 C1506 1.349 . S
C1505 C1507 1.327 . S
C1505 H1528 0.950 . S
C1506 C1505 1.349 . S
C1506 C1518 1.349 . S
C1507 C1505 1.327 . S
C1507 C1523 1.429 . S
C1507 H1529 0.950 . S
C1508 H1504 0.949 . S
C1508 C1516 1.574 . S
C1508 C1524 1.368 . S
H1509 C1517 0.950 . S
H1510 C1515 0.950 . S
H1511 C1516 0.949 . S
H1512 C1518 0.950 . S
H1513 C1519 0.950 . S
H1514 C1520 0.949 . S
C1515 H1510 0.950 . S
C1515 C1517 1.327 . S
C1515 C1521 1.429 . S
C1516 C1508 1.574 . S
C1516 H1511 0.949 . S
C1516 C1522 1.368 . S
C1517 C1501 1.349 . S
C1517 H1509 0.950 . S
C1517 C1515 1.327 . S
C1518 C1506 1.349 . S
C1518 H1512 0.950 . S
C1518 C1519 1.327 . S
C1519 H1513 0.950 . S
C1519 C1518 1.327 . S
C1519 C1523 1.429 . S
C1520 C1503 1.574 . S
C1520 H1514 0.949 . S
C1520 C1524 1.368 . S
C1521 C1502 1.429 . S
C1521 C1515 1.429 . S
C1521 C1522 1.523 . S
C1522 C1503 1.368 . S
C1522 C1516 1.368 . S
C1522 C1521 1.523 . S
C1523 C1507 1.429 . S
C1523 C1519 1.429 . S
C1523 C1524 1.523 . S
C1524 C1508 1.368 . S
C1524 C1520 1.368 . S
C1524 C1523 1.523 . S
H1525 C1500 0.950 . S
H1526 C1502 0.950 . S
H1527 C1503 0.949 . S
H1528 C1505 0.950 . S
H1529 C1507 0.950 . S
C1530 C1531 1.349 . S
C1530 C1532 1.327 . S
C1530 H1555 0.950 . S
C1531 C1530 1.349 . S
C1531 C1547 1.349 . S
C1532 C1530 1.327 . S
C1532 C1551 1.429 . S
C1532 H1556 0.950 . S
C1533 C1550 1.574 . S
C1533 C1552 1.368 . S
C1533 H1557 0.949 . S
H1534 C1538 0.949 . S
C1535 C1536 1.349 . S
C1535 C1537 1.327 . S
C1535 H1558 0.950 . S
C1536 C1535 1.349 . S
C1536 C1548 1.349 . S
C1537 C1535 1.327 . S
C1537 C1553 1.429 . S
C1537 H1559 0.950 . S
C1538 H1534 0.949 . S
C1538 C1546 1.574 . S
C1538 C1554 1.368 . S
H1539 C1547 0.950 . S
H1540 C1545 0.950 . S
H1541 C1546 0.949 . S
H1542 C1548 0.950 . S
H1543 C1549 0.950 . S
H1544 C1550 0.949 . S
C1545 H1540 0.950 . S
C1545 C1547 1.327 . S
C1545 C1551 1.429 . S
C1546 C1538 1.574 . S
C1546 H1541 0.949 . S
C1546 C1552 1.368 . S
C1547 C1531 1.349 . S
C1547 H1539 0.950 . S
C1547 C1545 1.327 . S
C1548 C1536 1.349 . S
C1548 H1542 0.950 . S
C1548 C1549 1.327 . S
C1549 H1543 0.950 . S
C1549 C1548 1.327 . S
C1549 C1553 1.429 . S
C1550 C1533 1.574 . S
C1550 H1544 0.949 . S
C1550 C1554 1.368 . S
C1551 C1532 1.429 . S
C1551 C1545 1.429 . S
C1551 C1552 1.523 . S
C1552 C1533 1.368 . S
C1552 C1546 1.368 . S
C1552 C1551 1.523 . S
C1553 C1537 1.429 . S
C1553 C1549 1.429 . S
C1553 C1554 1.523 . S
C1554 C1538 1.368 . S
C1554 C1550 1.368 . S
C1554 C1553 1.523 . S
H1555 C1530 0.950 . S
H1556 C1532 0.950 . S
H1557 C1533 0.949 . S
H1558 C1535 0.950 . S
H1559 C1537 0.950 . S
C1560 C1561 1.349 . S
C1560 C1562 1.327 . S
C1560 H1585 0.950 . S
C1561 C1560 1.349 . S
C1561 C1577 1.349 . S
C1562 C1560 1.327 . S
C1562 C1581 1.429 . S
C1562 H1586 0.950 . S
C1563 C1580 1.574 . S
C1563 C1582 1.368 . S
C1563 H1587 0.949 . S
H1564 C1568 0.949 . S
C1565 C1566 1.349 . S
C1565 C1567 1.327 . S
C1565 H1588 0.950 . S
C1566 C1565 1.349 . S
C1566 C1578 1.349 . S
C1567 C1565 1.327 . S
C1567 C1583 1.429 . S
C1567 H1589 0.950 . S
C1568 H1564 0.949 . S
C1568 C1576 1.574 . S
C1568 C1584 1.368 . S
H1569 C1577 0.950 . S
H1570 C1575 0.950 . S
H1571 C1576 0.949 . S
H1572 C1578 0.950 . S
H1573 C1579 0.950 . S
H1574 C1580 0.949 . S
C1575 H1570 0.950 . S
C1575 C1577 1.327 . S
C1575 C1581 1.429 . S
C1576 C1568 1.574 . S
C1576 H1571 0.949 . S
C1576 C1582 1.368 . S
C1577 C1561 1.349 . S
C1577 H1569 0.950 . S
C1577 C1575 1.327 . S
C1578 C1566 1.349 . S
C1578 H1572 0.950 . S
C1578 C1579 1.327 . S
C1579 H1573 0.950 . S
C1579 C1578 1.327 . S
C1579 C1583 1.429 . S
C1580 C1563 1.574 . S
C1580 H1574 0.949 . S
C1580 C1584 1.368 . S
C1581 C1562 1.429 . S
C1581 C1575 1.429 . S
C1581 C1582 1.523 . S
C1582 C1563 1.368 . S
C1582 C1576 1.368 . S
C1582 C1581 1.523 . S
C1583 C1567 1.429 . S
C1583 C1579 1.429 . S
C1583 C1584 1.523 . S
C1584 C1568 1.368 . S
C1584 C1580 1.368 . S
C1584 C1583 1.523 . S
H1585 C1560 0.950 . S
H1586 C1562 0.950 . S
H1587 C1563 0.949 . S
H1588 C1565 0.950 . S
H1589 C1567 0.950 . S
C1590 C1591 1.349 . S
C1590 C1592 1.327 . S
C1590 H1615 0.950 . S
C1591 C1590 1.349 . S
C1591 C1607 1.349 . S
C1592 C1590 1.327 . S
C1592 C1611 1.429 . S
C1592 H1616 0.950 . S
C1593 C1610 1.574 . S
C1593 C1612 1.368 . S
C1593 H1617 0.949 . S
H1594 C1598 0.949 . S
C1595 C1596 1.349 . S
C1595 C1597 1.327 . S
C1595 H1618 0.950 . S
C1596 C1595 1.349 . S
C1596 C1608 1.349 . S
C1597 C1595 1.327 . S
C1597 C1613 1.429 . S
C1597 H1619 0.950 . S
C1598 H1594 0.949 . S
C1598 C1606 1.574 . S
C1598 C1614 1.368 . S
H1599 C1607 0.950 . S
H1600 C1605 0.950 . S
H1601 C1606 0.949 . S
H1602 C1608 0.950 . S
H1603 C1609 0.950 . S
H1604 C1610 0.949 . S
C1605 H1600 0.950 . S
C1605 C1607 1.327 . S
C1605 C1611 1.429 . S
C1606 C1598 1.574 . S
C1606 H1601 0.949 . S
C1606 C1612 1.368 . S
C1607 C1591 1.349 . S
C1607 H1599 0.950 . S
C1607 C1605 1.327 . S
C1608 C1596 1.349 . S
C1608 H1602 0.950 . S
C1608 C1609 1.327 . S
C1609 H1603 0.950 . S
C1609 C1608 1.327 . S
C1609 C1613 1.429 . S
C1610 C1593 1.574 . S
C1610 H1604 0.949 . S
C1610 C1614 1.368 . S
C1611 C1592 1.429 . S
C1611 C1605 1.429 . S
C1611 C1612 1.523 . S
C1612 C1593 1.368 . S
C1612 C1606 1.368 . S
C1612 C1611 1.523 . S
C1613 C1597 1.429 . S
C1613 C1609 1.429 . S
C1613 C1614 1.523 . S
C1614 C1598 1.368 . S
C1614 C1610 1.368 . S
C1614 C1613 1.523 . S
H1615 C1590 0.950 . S
H1616 C1592 0.950 . S
H1617 C1593 0.949 . S
H1618 C1595 0.950 . S
H1619 C1597 0.950 . S
C1620 C1621 1.349 . S
C1620 C1622 1.327 . S
C1620 H1645 0.950 . S
C1621 C1620 1.349 . S
C1621 C1637 1.349 . S
C1622 C1620 1.327 . S
C1622 C1641 1.429 . S
C1622 H1646 0.950 . S
C1623 C1640 1.574 . S
C1623 C1642 1.368 . S
C1623 H1647 0.949 . S
H1624 C1628 0.949 . S
C1625 C1626 1.349 . S
C1625 C1627 1.327 . S
C1625 H1648 0.950 . S
C1626 C1625 1.349 . S
C1626 C1638 1.349 . S
C1627 C1625 1.327 . S
C1627 C1643 1.429 . S
C1627 H1649 0.950 . S
C1628 H1624 0.949 . S
C1628 C1636 1.574 . S
C1628 C1644 1.368 . S
H1629 C1637 0.950 . S
H1630 C1635 0.950 . S
H1631 C1636 0.949 . S
H1632 C1638 0.950 . S
H1633 C1639 0.950 . S
H1634 C1640 0.949 . S
C1635 H1630 0.950 . S
C1635 C1637 1.327 . S
C1635 C1641 1.429 . S
C1636 C1628 1.574 . S
C1636 H1631 0.949 . S
C1636 C1642 1.368 . S
C1637 C1621 1.349 . S
C1637 H1629 0.950 . S
C1637 C1635 1.327 . S
C1638 C1626 1.349 . S
C1638 H1632 0.950 . S
C1638 C1639 1.327 . S
C1639 H1633 0.950 . S
C1639 C1638 1.327 . S
C1639 C1643 1.429 . S
C1640 C1623 1.574 . S
C1640 H1634 0.949 . S
C1640 C1644 1.368 . S
C1641 C1622 1.429 . S
C1641 C1635 1.429 . S
C1641 C1642 1.523 . S
C1642 C1623 1.368 . S
C1642 C1636 1.368 . S
C1642 C1641 1.523 . S
C1643 C1627 1.429 . S
C1643 C1639 1.429 . S
C1643 C1644 1.523 . S
C1644 C1628 1.368 . S
C1644 C1640 1.368 . S
C1644 C1643 1.523 . S
H1645 C1620 0.950 . S
H1646 C1622 0.950 . S
H1647 C1623 0.949 . S
H1648 C1625 0.950 . S
H1649 C1627 0.950 . S
C1650 C1651 1.349 . S
C1650 C1652 1.327 . S
C1650 H1675 0.950 . S
C1651 C1650 1.349 . S
C1651 C1667 1.349 . S
C1652 C1650 1.327 . S
C1652 C1671 1.429 . S
C1652 H1676 0.950 . S
C1653 C1670 1.574 . S
C1653 C1672 1.368 . S
C1653 H1677 0.949 . S
H1654 C1658 0.949 . S
C1655 C1656 1.349 . S
C1655 C1657 1.327 . S
C1655 H1678 0.950 . S
C1656 C1655 1.349 . S
C1656 C1668 1.349 . S
C1657 C1655 1.327 . S
C1657 C1673 1.429 . S
C1657 H1679 0.950 . S
C1658 H1654 0.949 . S
C1658 C1666 1.574 . S
C1658 C1674 1.368 . S
H1659 C1667 0.950 . S
H1660 C1665 0.950 . S
H1661 C1666 0.949 . S
H1662 C1668 0.950 . S
H1663 C1669 0.950 . S
H1664 C1670 0.949 . S
C1665 H1660 0.950 . S
C1665 C1667 1.327 . S
C1665 C1671 1.429 . S
C1666 C1658 1.574 . S
C1666 H1661 0.949 . S
C1666 C1672 1.368 . S
C1667 C1651 1.349 . S
C1667 H1659 0.950 . S
C1667 C1665 1.327 . S
C1668 C1656 1.349 . S
C1668 H1662 0.950 . S
C1668 C1669 1.327 . S
C1669 H1663 0.950 . S
C1669 C1668 1.327 . S
C1669 C1673 1.429 . S
C1670 C1653 1.574 . S
C1670 H1664 0.949 . S
C1670 C1674 1.368 . S
C1671 C1652 1.429 . S
C1671 C1665 1.429 . S
C1671 C1672 1.523 . S
C1672 C1653 1.368 . S
C1672 C1666 1.368 . S
C1672 C1671 1.523 . S
C1673 C1657 1.429 . S
C1673 C1669 1.429 . S
C1673 C1674 1.523 . S
C1674 C1658 1.368 . S
C1674 C1670 1.368 . S
C1674 C1673 1.523 . S
H1675 C1650 0.950 . S
H1676 C1652 0.950 . S
H1677 C1653 0.949 . S
H1678 C1655 0.950 . S
H1679 C1657 0.950 . S
C1680 C1681 1.349 . S
C1680 C1682 1.327 . S
C1680 H1705 0.950 . S
C1681 C1680 1.349 . S
C1681 C1697 1.349 . S
C1682 C1680 1.327 . S
C1682 C1701 1.429 . S
C1682 H1706 0.950 . S
C1683 C1700 1.574 . S
C1683 C1702 1.368 . S
C1683 H1707 0.949 . S
H1684 C1688 0.949 . S
C1685 C1686 1.349 . S
C1685 C1687 1.327 . S
C1685 H1708 0.950 . S
C1686 C1685 1.349 . S
C1686 C1698 1.349 . S
C1687 C1685 1.327 . S
C1687 C1703 1.429 . S
C1687 H1709 0.950 . S
C1688 H1684 0.949 . S
C1688 C1696 1.574 . S
C1688 C1704 1.368 . S
H1689 C1697 0.950 . S
H1690 C1695 0.950 . S
H1691 C1696 0.949 . S
H1692 C1698 0.950 . S
H1693 C1699 0.950 . S
H1694 C1700 0.949 . S
C1695 H1690 0.950 . S
C1695 C1697 1.327 . S
C1695 C1701 1.429 . S
C1696 C1688 1.574 . S
C1696 H1691 0.949 . S
C1696 C1702 1.368 . S
C1697 C1681 1.349 . S
C1697 H1689 0.950 . S
C1697 C1695 1.327 . S
C1698 C1686 1.349 . S
C1698 H1692 0.950 . S
C1698 C1699 1.327 . S
C1699 H1693 0.950 . S
C1699 C1698 1.327 . S
C1699 C1703 1.429 . S
C1700 C1683 1.574 . S
C1700 H1694 0.949 . S
C1700 C1704 1.368 . S
C1701 C1682 1.429 . S
C1701 C1695 1.429 . S
C1701 C1702 1.523 . S
C1702 C1683 1.368 . S
C1702 C1696 1.368 . S
C1702 C1701 1.523 . S
C1703 C1687 1.429 . S
C1703 C1699 1.429 . S
C1703 C1704 1.523 . S
C1704 C1688 1.368 . S
C1704 C1700 1.368 . S
C1704 C1703 1.523 . S
H1705 C1680 0.950 . S
H1706 C1682 0.950 . S
H1707 C1683 0.949 . S
H1708 C1685 0.950 . S
H1709 C1687 0.950 . S
C1710 C1711 1.349 . S
C1710 C1712 1.327 . S
C1710 H1735 0.950 . S
C1711 C1710 1.349 . S
C1711 C1727 1.349 . S
C1712 C1710 1.327 . S
C1712 C1731 1.429 . S
C1712 H1736 0.950 . S
C1713 C1730 1.574 . S
C1713 C1732 1.368 . S
C1713 H1737 0.949 . S
H1714 C1718 0.949 . S
C1715 C1716 1.349 . S
C1715 C1717 1.327 . S
C1715 H1738 0.950 . S
C1716 C1715 1.349 . S
C1716 C1728 1.349 . S
C1717 C1715 1.327 . S
C1717 C1733 1.429 1_455 S
C1717 H1739 0.950 . S
C1718 H1714 0.949 . S
C1718 C1726 1.574 . S
C1718 C1734 1.368 . S
H1719 C1727 0.950 . S
H1720 C1725 0.950 . S
H1721 C1726 0.949 . S
H1722 C1728 0.950 . S
H1723 C1729 0.950 1_655 S
H1724 C1730 0.949 . S
C1725 H1720 0.950 . S
C1725 C1727 1.327 . S
C1725 C1731 1.429 . S
C1726 C1718 1.574 . S
C1726 H1721 0.949 . S
C1726 C1732 1.368 . S
C1727 C1711 1.349 . S
C1727 H1719 0.950 . S
C1727 C1725 1.327 . S
C1728 C1716 1.349 . S
C1728 H1722 0.950 . S
C1728 C1729 1.327 . S
C1729 H1723 0.950 1_455 S
C1729 C1728 1.327 . S
C1729 C1733 1.429 1_455 S
C1730 C1713 1.574 . S
C1730 H1724 0.949 . S
C1730 C1734 1.368 . S
C1731 C1712 1.429 . S
C1731 C1725 1.429 . S
C1731 C1732 1.523 . S
C1732 C1713 1.368 . S
C1732 C1726 1.368 . S
C1732 C1731 1.523 . S
C1733 C1717 1.429 1_655 S
C1733 C1729 1.429 1_655 S
C1733 C1734 1.523 . S
C1734 C1718 1.368 . S
C1734 C1730 1.368 . S
C1734 C1733 1.523 . S
H1735 C1710 0.950 . S
H1736 C1712 0.950 . S
H1737 C1713 0.949 . S
H1738 C1715 0.950 . S
H1739 C1717 0.950 . S
C1740 C1741 1.349 . S
C1740 C1742 1.326 1_565 S
C1740 H1765 0.950 . S
C1741 C1740 1.349 . S
C1741 C1757 1.356 . S
C1742 C1740 1.326 1_545 S
C1742 C1761 1.429 . S
C1742 H1766 0.953 1_545 S
C1743 C1760 1.574 . S
C1743 C1762 1.368 . S
C1743 H1767 0.949 . S
H1744 C1748 0.949 . S
C1745 C1746 1.349 . S
C1745 C1747 1.327 . S
C1745 H1768 0.950 . S
C1746 C1745 1.349 . S
C1746 C1758 1.349 . S
C1747 C1745 1.327 . S
C1747 C1763 1.429 . S
C1747 H1769 0.950 . S
C1748 H1744 0.949 . S
C1748 C1756 1.574 . S
C1748 C1764 1.368 . S
H1749 C1757 0.954 . S
H1750 C1755 0.950 . S
H1751 C1756 0.949 . S
H1752 C1758 0.950 . S
H1753 C1759 0.950 . S
H1754 C1760 0.949 . S
C1755 H1750 0.950 . S
C1755 C1757 1.315 1_545 S
C1755 C1761 1.429 . S
C1756 C1748 1.574 . S
C1756 H1751 0.949 . S
C1756 C1762 1.368 . S
C1757 C1741 1.356 . S
C1757 H1749 0.954 . S
C1757 C1755 1.315 1_565 S
C1758 C1746 1.349 . S
C1758 H1752 0.950 . S
C1758 C1759 1.327 . S
C1759 H1753 0.950 . S
C1759 C1758 1.327 . S
C1759 C1763 1.429 . S
C1760 C1743 1.574 . S
C1760 H1754 0.949 . S
C1760 C1764 1.368 . S
C1761 C1742 1.429 . S
C1761 C1755 1.429 . S
C1761 C1762 1.523 . S
C1762 C1743 1.368 . S
C1762 C1756 1.368 . S
C1762 C1761 1.523 . S
C1763 C1747 1.429 . S
C1763 C1759 1.429 . S
C1763 C1764 1.523 . S
C1764 C1748 1.368 . S
C1764 C1760 1.368 . S
C1764 C1763 1.523 . S
H1765 C1740 0.950 . S
H1766 C1742 0.953 1_565 S
H1767 C1743 0.949 . S
H1768 C1745 0.950 . S
H1769 C1747 0.950 . S
C1770 C1771 1.349 . S
C1770 C1772 1.327 1_565 S
C1770 H1795 0.950 . S
C1771 C1770 1.349 . S
C1771 C1787 1.349 . S
C1772 C1770 1.327 1_545 S
C1772 C1791 1.429 . S
C1772 H1796 0.950 . S
C1773 C1790 1.574 . S
C1773 C1792 1.368 . S
C1773 H1797 0.949 . S
H1774 C1778 0.949 . S
C1775 C1776 1.349 . S
C1775 C1777 1.327 . S
C1775 H1798 0.950 . S
C1776 C1775 1.349 . S
C1776 C1788 1.349 . S
C1777 C1775 1.327 . S
C1777 C1793 1.429 1_455 S
C1777 H1799 0.950 . S
C1778 H1774 0.949 . S
C1778 C1786 1.574 . S
C1778 C1794 1.368 . S
H1779 C1787 0.950 . S
H1780 C1785 0.950 . S
H1781 C1786 0.949 . S
H1782 C1788 0.950 . S
H1783 C1789 0.950 1_655 S
H1784 C1790 0.949 . S
C1785 H1780 0.950 . S
C1785 C1787 1.327 1_545 S
C1785 C1791 1.429 . S
C1786 C1778 1.574 . S
C1786 H1781 0.949 . S
C1786 C1792 1.368 . S
C1787 C1771 1.349 . S
C1787 H1779 0.950 . S
C1787 C1785 1.327 1_565 S
C1788 C1776 1.349 . S
C1788 H1782 0.950 . S
C1788 C1789 1.327 . S
C1789 H1783 0.950 1_455 S
C1789 C1788 1.327 . S
C1789 C1793 1.429 1_455 S
C1790 C1773 1.574 . S
C1790 H1784 0.949 . S
C1790 C1794 1.368 . S
C1791 C1772 1.429 . S
C1791 C1785 1.429 . S
C1791 C1792 1.523 . S
C1792 C1773 1.368 . S
C1792 C1786 1.368 . S
C1792 C1791 1.523 . S
C1793 C1777 1.429 1_655 S
C1793 C1789 1.429 1_655 S
C1793 C1794 1.523 . S
C1794 C1778 1.368 . S
C1794 C1790 1.368 . S
C1794 C1793 1.523 . S
H1795 C1770 0.950 . S
H1796 C1772 0.950 . S
H1797 C1773 0.949 . S
H1798 C1775 0.950 . S
H1799 C1777 0.950 . S
C1800 C1801 1.349 . S
C1800 C1802 1.327 . S
C1800 H1825 0.950 . S
C1801 C1800 1.349 . S
C1801 C1817 1.349 . S
C1802 C1800 1.327 . S
C1802 C1821 1.429 . S
C1802 H1826 0.950 . S
C1803 C1820 1.574 . S
C1803 C1822 1.368 . S
C1803 H1827 0.949 . S
H1804 C1808 0.949 . S
C1805 C1806 1.349 . S
C1805 C1807 1.327 . S
C1805 H1828 0.950 . S
C1806 C1805 1.349 . S
C1806 C1818 1.349 . S
C1807 C1805 1.327 . S
C1807 C1823 1.429 1_545 S
C1807 H1829 0.950 . S
C1808 H1804 0.949 . S
C1808 C1816 1.574 . S
C1808 C1824 1.368 . S
H1809 C1817 0.950 . S
H1810 C1815 0.950 . S
H1811 C1816 0.949 . S
H1812 C1818 0.950 . S
H1813 C1819 0.950 1_565 S
H1814 C1820 0.949 . S
C1815 H1810 0.950 . S
C1815 C1817 1.327 . S
C1815 C1821 1.429 . S
C1816 C1808 1.574 . S
C1816 H1811 0.949 . S
C1816 C1822 1.368 . S
C1817 C1801 1.349 . S
C1817 H1809 0.950 . S
C1817 C1815 1.327 . S
C1818 C1806 1.349 . S
C1818 H1812 0.950 . S
C1818 C1819 1.327 . S
C1819 H1813 0.950 1_545 S
C1819 C1818 1.327 . S
C1819 C1823 1.429 1_545 S
C1820 C1803 1.574 . S
C1820 H1814 0.949 . S
C1820 C1824 1.368 . S
C1821 C1802 1.429 . S
C1821 C1815 1.429 . S
C1821 C1822 1.523 . S
C1822 C1803 1.368 . S
C1822 C1816 1.368 . S
C1822 C1821 1.523 . S
C1823 C1807 1.429 1_565 S
C1823 C1819 1.429 1_565 S
C1823 C1824 1.523 . S
C1824 C1808 1.368 . S
C1824 C1820 1.368 . S
C1824 C1823 1.523 . S
H1825 C1800 0.950 . S
H1826 C1802 0.950 . S
H1827 C1803 0.949 . S
H1828 C1805 0.950 . S
H1829 C1807 0.950 . S
C1830 C1831 1.349 . S
C1830 C1832 1.327 . S
C1830 H1855 0.950 . S
C1831 C1830 1.349 . S
C1831 C1847 1.349 . S
C1832 C1830 1.327 . S
C1832 C1851 1.429 1_545 S
C1832 H1856 0.950 . S
C1833 C1850 1.574 . S
C1833 C1852 1.368 . S
C1833 H1857 0.949 . S
H1834 C1838 0.949 . S
C1835 C1836 1.349 . S
C1835 C1837 1.327 1_655 S
C1835 H1858 0.950 . S
C1836 C1835 1.349 . S
C1836 C1848 1.349 . S
C1837 C1835 1.327 1_455 S
C1837 C1853 1.429 . S
C1837 H1859 0.950 . S
C1838 H1834 0.949 . S
C1838 C1846 1.574 . S
C1838 C1854 1.368 . S
H1839 C1847 0.950 . S
H1840 C1845 0.929 1_565 S
H1841 C1846 0.949 . S
H1842 C1848 0.950 . S
H1843 C1849 0.950 . S
H1844 C1850 0.949 . S
C1845 H1840 0.929 1_545 S
C1845 C1847 1.339 . S
C1845 C1851 1.438 1_545 S
C1846 C1838 1.574 . S
C1846 H1841 0.949 . S
C1846 C1852 1.368 . S
C1847 C1831 1.349 . S
C1847 H1839 0.950 . S
C1847 C1845 1.339 . S
C1848 C1836 1.349 . S
C1848 H1842 0.950 . S
C1848 C1849 1.327 1_655 S
C1849 H1843 0.950 . S
C1849 C1848 1.327 1_455 S
C1849 C1853 1.429 . S
C1850 C1833 1.574 . S
C1850 H1844 0.949 . S
C1850 C1854 1.368 . S
C1851 C1832 1.429 1_565 S
C1851 C1845 1.438 1_565 S
C1851 C1852 1.523 . S
C1852 C1833 1.368 . S
C1852 C1846 1.368 . S
C1852 C1851 1.523 . S
C1853 C1837 1.429 . S
C1853 C1849 1.429 . S
C1853 C1854 1.523 . S
C1854 C1838 1.368 . S
C1854 C1850 1.368 . S
C1854 C1853 1.523 . S
H1855 C1830 0.950 . S
H1856 C1832 0.950 . S
H1857 C1833 0.949 . S
H1858 C1835 0.950 . S
H1859 C1837 0.950 . S
C1860 C1861 1.349 . S
C1860 C1862 1.327 . S
C1860 H1885 0.950 . S
C1861 C1860 1.349 . S
C1861 C1877 1.349 . S
C1862 C1860 1.327 . S
C1862 C1881 1.429 . S
C1862 H1886 0.950 . S
C1863 C1880 1.574 . S
C1863 C1882 1.368 . S
C1863 H1887 0.949 . S
H1864 C1868 0.949 . S
C1865 C1866 1.349 . S
C1865 C1867 1.327 . S
C1865 H1888 0.950 . S
C1866 C1865 1.349 . S
C1866 C1878 1.349 1_655 S
C1867 C1865 1.327 . S
C1867 C1883 1.429 1_655 S
C1867 H1889 0.950 . S
C1868 H1864 0.949 . S
C1868 C1876 1.574 . S
C1868 C1884 1.368 . S
H1869 C1877 0.950 . S
H1870 C1875 0.950 . S
H1871 C1876 0.949 . S
H1872 C1878 0.950 . S
H1873 C1879 0.950 . S
H1874 C1880 0.949 . S
C1875 H1870 0.950 . S
C1875 C1877 1.327 . S
C1875 C1881 1.429 . S
C1876 C1868 1.574 . S
C1876 H1871 0.949 . S
C1876 C1882 1.368 . S
C1877 C1861 1.349 . S
C1877 H1869 0.950 . S
C1877 C1875 1.327 . S
C1878 C1866 1.349 1_455 S
C1878 H1872 0.950 . S
C1878 C1879 1.327 . S
C1879 H1873 0.950 . S
C1879 C1878 1.327 . S
C1879 C1883 1.429 . S
C1880 C1863 1.574 . S
C1880 H1874 0.949 . S
C1880 C1884 1.368 . S
C1881 C1862 1.429 . S
C1881 C1875 1.429 . S
C1881 C1882 1.523 . S
C1882 C1863 1.368 . S
C1882 C1876 1.368 . S
C1882 C1881 1.523 . S
C1883 C1867 1.429 1_455 S
C1883 C1879 1.429 . S
C1883 C1884 1.523 . S
C1884 C1868 1.368 . S
C1884 C1880 1.368 . S
C1884 C1883 1.523 . S
H1885 C1860 0.950 . S
H1886 C1862 0.950 . S
H1887 C1863 0.949 . S
H1888 C1865 0.950 . S
H1889 C1867 0.950 . S
C1890 C1891 1.349 . S
C1890 C1892 1.327 . S
C1890 H1915 0.950 . S
C1891 C1890 1.349 . S
C1891 C1907 1.349 . S
C1892 C1890 1.327 . S
C1892 C1911 1.429 . S
C1892 H1916 0.950 . S
C1893 C1910 1.574 . S
C1893 C1912 1.368 . S
C1893 H1917 0.949 . S
H1894 C1898 0.949 . S
C1895 C1896 1.349 . S
C1895 C1897 1.327 . S
C1895 H1918 0.950 . S
C1896 C1895 1.349 . S
C1896 C1908 1.349 . S
C1897 C1895 1.327 . S
C1897 C1913 1.429 . S
C1897 H1919 0.950 . S
C1898 H1894 0.949 . S
C1898 C1906 1.574 . S
C1898 C1914 1.368 . S
H1899 C1907 0.950 . S
H1900 C1905 0.950 . S
H1901 C1906 0.949 . S
H1902 C1908 0.950 . S
H1903 C1909 0.950 . S
H1904 C1910 0.949 . S
C1905 H1900 0.950 . S
C1905 C1907 1.327 . S
C1905 C1911 1.429 . S
C1906 C1898 1.574 . S
C1906 H1901 0.949 . S
C1906 C1912 1.368 . S
C1907 C1891 1.349 . S
C1907 H1899 0.950 . S
C1907 C1905 1.327 . S
C1908 C1896 1.349 . S
C1908 H1902 0.950 . S
C1908 C1909 1.327 . S
C1909 H1903 0.950 . S
C1909 C1908 1.327 . S
C1909 C1913 1.429 . S
C1910 C1893 1.574 . S
C1910 H1904 0.949 . S
C1910 C1914 1.368 . S
C1911 C1892 1.429 . S
C1911 C1905 1.429 . S
C1911 C1912 1.523 . S
C1912 C1893 1.368 . S
C1912 C1906 1.368 . S
C1912 C1911 1.523 . S
C1913 C1897 1.429 . S
C1913 C1909 1.429 . S
C1913 C1914 1.523 . S
C1914 C1898 1.368 . S
C1914 C1910 1.368 . S
C1914 C1913 1.523 . S
H1915 C1890 0.950 . S
H1916 C1892 0.950 . S
H1917 C1893 0.949 . S
H1918 C1895 0.950 . S
H1919 C1897 0.950 . S
C1920 C1921 1.349 . S
C1920 C1922 1.327 . S
C1920 H1945 0.950 . S
C1921 C1920 1.349 . S
C1921 C1937 1.349 . S
C1922 C1920 1.327 . S
C1922 C1941 1.429 . S
C1922 H1946 0.950 . S
C1923 C1940 1.574 . S
C1923 C1942 1.368 . S
C1923 H1947 0.949 . S
H1924 C1928 0.949 . S
C1925 C1926 1.349 . S
C1925 C1927 1.327 . S
C1925 H1948 0.950 . S
C1926 C1925 1.349 . S
C1926 C1938 1.349 . S
C1927 C1925 1.327 . S
C1927 C1943 1.429 . S
C1927 H1949 0.950 . S
C1928 H1924 0.949 . S
C1928 C1936 1.574 . S
C1928 C1944 1.368 . S
H1929 C1937 0.950 . S
H1930 C1935 0.950 . S
H1931 C1936 0.949 . S
H1932 C1938 0.950 . S
H1933 C1939 0.950 . S
H1934 C1940 0.949 . S
C1935 H1930 0.950 . S
C1935 C1937 1.327 . S
C1935 C1941 1.429 . S
C1936 C1928 1.574 . S
C1936 H1931 0.949 . S
C1936 C1942 1.368 . S
C1937 C1921 1.349 . S
C1937 H1929 0.950 . S
C1937 C1935 1.327 . S
C1938 C1926 1.349 . S
C1938 H1932 0.950 . S
C1938 C1939 1.327 . S
C1939 H1933 0.950 . S
C1939 C1938 1.327 . S
C1939 C1943 1.429 . S
C1940 C1923 1.574 . S
C1940 H1934 0.949 . S
C1940 C1944 1.368 . S
C1941 C1922 1.429 . S
C1941 C1935 1.429 . S
C1941 C1942 1.523 . S
C1942 C1923 1.368 . S
C1942 C1936 1.368 . S
C1942 C1941 1.523 . S
C1943 C1927 1.429 . S
C1943 C1939 1.429 . S
C1943 C1944 1.523 . S
C1944 C1928 1.368 . S
C1944 C1940 1.368 . S
C1944 C1943 1.523 . S
H1945 C1920 0.950 . S
H1946 C1922 0.950 . S
H1947 C1923 0.949 . S
H1948 C1925 0.950 . S
H1949 C1927 0.950 . S
C1950 C1951 1.349 . S
C1950 C1952 1.327 . S
C1950 H1975 0.950 . S
C1951 C1950 1.349 . S
C1951 C1967 1.349 . S
C1952 C1950 1.327 . S
C1952 C1971 1.429 . S
C1952 H1976 0.950 . S
C1953 C1970 1.574 . S
C1953 C1972 1.368 . S
C1953 H1977 0.949 . S
H1954 C1958 0.949 . S
C1955 C1956 1.349 . S
C1955 C1957 1.327 . S
C1955 H1978 0.950 . S
C1956 C1955 1.349 . S
C1956 C1968 1.349 . S
C1957 C1955 1.327 . S
C1957 C1973 1.429 . S
C1957 H1979 0.950 . S
C1958 H1954 0.949 . S
C1958 C1966 1.574 . S
C1958 C1974 1.368 . S
H1959 C1967 0.950 . S
H1960 C1965 0.950 . S
H1961 C1966 0.949 . S
H1962 C1968 0.950 . S
H1963 C1969 0.950 . S
H1964 C1970 0.949 . S
C1965 H1960 0.950 . S
C1965 C1967 1.327 . S
C1965 C1971 1.429 . S
C1966 C1958 1.574 . S
C1966 H1961 0.949 . S
C1966 C1972 1.368 . S
C1967 C1951 1.349 . S
C1967 H1959 0.950 . S
C1967 C1965 1.327 . S
C1968 C1956 1.349 . S
C1968 H1962 0.950 . S
C1968 C1969 1.327 . S
C1969 H1963 0.950 . S
C1969 C1968 1.327 . S
C1969 C1973 1.429 . S
C1970 C1953 1.574 . S
C1970 H1964 0.949 . S
C1970 C1974 1.368 . S
C1971 C1952 1.429 . S
C1971 C1965 1.429 . S
C1971 C1972 1.523 . S
C1972 C1953 1.368 . S
C1972 C1966 1.368 . S
C1972 C1971 1.523 . S
C1973 C1957 1.429 . S
C1973 C1969 1.429 . S
C1973 C1974 1.523 . S
C1974 C1958 1.368 . S
C1974 C1970 1.368 . S
C1974 C1973 1.523 . S
H1975 C1950 0.950 . S
H1976 C1952 0.950 . S
H1977 C1953 0.949 . S
H1978 C1955 0.950 . S
H1979 C1957 0.950 . S
C361 C19 1.035 . S
C366 C41 1.050 . S
C391 C1 1.050 . S
C396 C39 1.035 . S
C421 C21 1.050 . S
C426 C59 1.035 . S
C451 C79 1.035 . S
C456 C81 1.050 . S
C481 C101 1.050 . S
C486 C99 1.035 . S
C511 C119 1.035 . S
C516 C61 1.050 . S
C541 C161 1.050 1_545 S
C546 C139 1.035 . S
C571 C121 1.050 . S
C576 C159 1.035 . S
C601 C179 1.035 . S
C606 C141 1.050 . S
C631 C201 1.050 . S
C636 C199 1.035 . S
C661 C219 1.035 . S
C666 C221 1.049 . S
C691 C181 1.050 . S
C696 C239 1.035 . S
C721 C259 1.035 . S
C726 C281 1.050 . S
C751 C241 1.050 . S
C756 C279 1.035 . S
C781 C261 1.049 . S
C786 C299 1.035 . S
C811 C321 1.050 1_455 S
C816 C319 1.035 . S
C841 C341 1.050 . S
C846 C339 1.035 . S
C871 C301 1.050 . S
C876 C359 1.035 . S
C901 C9 1.634 . S
C906 C109 1.634 . S
C931 C69 1.633 . S
C936 C29 1.633 . S
C961 C89 1.633 . S
C966 C49 1.633 . S
C991 C129 1.633 . S
C996 C229 1.633 . S
C1021 C149 1.633 . S
C1026 C189 1.633 . S
C1051 C209 1.633 . S
C1056 C169 1.633 . S
C1081 C249 1.633 . S
C1086 C349 1.633 . S
C1111 C309 1.633 . S
C1116 C269 1.633 . S
C1141 C329 1.633 . S
C1146 C289 1.633 . S
C1171 C208 1.986 . S
C1176 C8 1.986 1_565 S
C1201 C28 1.986 . S
C1206 C228 1.986 . S
C1231 C188 1.987 . S
C1236 C48 1.987 . S
C1261 C68 1.987 1_655 S
C1266 C288 1.987 . S
C1291 C88 1.987 . S
C1296 C248 1.987 . S
C1321 C268 1.986 . S
C1326 C108 1.986 . S
C1351 C328 1.986 . S
C1356 C128 1.986 . S
C1381 C148 1.986 . S
C1386 C348 1.986 . S
C1411 C168 1.986 . S
C1416 C308 1.986 . S
C1441 C42 1.571 . S
C1446 C18 1.596 . S
C1471 C2 1.571 . S
C1476 C38 1.596 . S
C1501 C58 1.596 . S
C1506 C22 1.571 . S
C1531 C82 1.571 . S
C1536 C78 1.596 . S
C1561 C102 1.571 . S
C1566 C98 1.596 . S
C1591 C118 1.596 . S
C1596 C62 1.571 . S
C1621 C162 1.571 . S
C1626 C138 1.596 . S
C1651 C158 1.596 . S
C1656 C122 1.571 . S
C1681 C142 1.571 . S
C1686 C178 1.596 . S
C1711 C198 1.596 . S
C1716 C202 1.571 . S
C1741 C218 1.596 . S
C1746 C222 1.571 . S
C1771 C182 1.571 . S
C1776 C238 1.596 . S
C1801 C258 1.596 . S
C1806 C282 1.571 . S
C1831 C278 1.596 . S
C1836 C242 1.571 . S
C1861 C262 1.571 . S
C1866 C298 1.596 . S
C1891 C318 1.596 . S
C1896 C322 1.571 . S
C1921 C338 1.596 . S
C1926 C342 1.571 . S
C1951 C302 1.571 . S
C1956 C358 1.596 . S
