# Generated by pormake.
# Topology gan, (5)-cn, num edge types: 1
# Building blocks:
#     Node 0, Type 0, BuildingBlock: BEQFEK_clean_sbu_0, # of connection points: 5
#     Node 1, Type 0, BuildingBlock: BEQFEK_clean_sbu_0, # of connection points: 5
#     Node 2, Type 0, BuildingBlock: BEQFEK_clean_sbu_0, # of connection points: 5
#     Node 3, Type 0, BuildingBlock: BEQFEK_clean_sbu_0, # of connection points: 5
#     Node 4, Type 0, BuildingBlock: BEQFEK_clean_sbu_0, # of connection points: 5
#     Node 5, Type 0, BuildingBlock: BEQFEK_clean_sbu_0, # of connection points: 5
#     Node 6, Type 0, BuildingBlock: BEQFEK_clean_sbu_0, # of connection points: 5
#     Node 7, Type 0, BuildingBlock: BEQFEK_clean_sbu_0, # of connection points: 5
#     Node 8, Type 0, BuildingBlock: BEQFEK_clean_sbu_0, # of connection points: 5
#     Node 9, Type 0, BuildingBlock: BEQFEK_clean_sbu_0, # of connection points: 5
#     Node 10, Type 0, BuildingBlock: BEQFEK_clean_sbu_0, # of connection points: 5
#     Node 11, Type 0, BuildingBlock: BEQFEK_clean_sbu_0, # of connection points: 5
#     Node 12, Type 0, BuildingBlock: BEQFEK_clean_sbu_0, # of connection points: 5
#     Node 13, Type 0, BuildingBlock: BEQFEK_clean_sbu_0, # of connection points: 5
#     Node 14, Type 0, BuildingBlock: BEQFEK_clean_sbu_0, # of connection points: 5
#     Node 15, Type 0, BuildingBlock: BEQFEK_clean_sbu_0, # of connection points: 5
#     Edge 16, Type (0, 0), BuildingBlock: TEMPAE_clean_linker_10, # of connection points: 2
#     Edge 17, Type (0, 0), BuildingBlock: TEMPAE_clean_linker_10, # of connection points: 2
#     Edge 18, Type (0, 0), BuildingBlock: TEMPAE_clean_linker_10, # of connection points: 2
#     Edge 19, Type (0, 0), BuildingBlock: TEMPAE_clean_linker_10, # of connection points: 2
#     Edge 20, Type (0, 0), BuildingBlock: TEMPAE_clean_linker_10, # of connection points: 2
#     Edge 21, Type (0, 0), BuildingBlock: TEMPAE_clean_linker_10, # of connection points: 2
#     Edge 22, Type (0, 0), BuildingBlock: TEMPAE_clean_linker_10, # of connection points: 2
#     Edge 23, Type (0, 0), BuildingBlock: TEMPAE_clean_linker_10, # of connection points: 2
#     Edge 24, Type (0, 0), BuildingBlock: TEMPAE_clean_linker_10, # of connection points: 2
#     Edge 25, Type (0, 0), BuildingBlock: TEMPAE_clean_linker_10, # of connection points: 2
#     Edge 26, Type (0, 0), BuildingBlock: TEMPAE_clean_linker_10, # of connection points: 2
#     Edge 27, Type (0, 0), BuildingBlock: TEMPAE_clean_linker_10, # of connection points: 2
#     Edge 28, Type (0, 0), BuildingBlock: TEMPAE_clean_linker_10, # of connection points: 2
#     Edge 29, Type (0, 0), BuildingBlock: TEMPAE_clean_linker_10, # of connection points: 2
#     Edge 30, Type (0, 0), BuildingBlock: TEMPAE_clean_linker_10, # of connection points: 2
#     Edge 31, Type (0, 0), BuildingBlock: TEMPAE_clean_linker_10, # of connection points: 2
#     Edge 32, Type (0, 0), BuildingBlock: TEMPAE_clean_linker_10, # of connection points: 2
#     Edge 33, Type (0, 0), BuildingBlock: TEMPAE_clean_linker_10, # of connection points: 2
#     Edge 34, Type (0, 0), BuildingBlock: TEMPAE_clean_linker_10, # of connection points: 2
#     Edge 35, Type (0, 0), BuildingBlock: TEMPAE_clean_linker_10, # of connection points: 2
#     Edge 36, Type (0, 0), BuildingBlock: TEMPAE_clean_linker_10, # of connection points: 2
#     Edge 37, Type (0, 0), BuildingBlock: TEMPAE_clean_linker_10, # of connection points: 2
#     Edge 38, Type (0, 0), BuildingBlock: TEMPAE_clean_linker_10, # of connection points: 2
#     Edge 39, Type (0, 0), BuildingBlock: TEMPAE_clean_linker_10, # of connection points: 2
#     Edge 40, Type (0, 0), BuildingBlock: TEMPAE_clean_linker_10, # of connection points: 2
#     Edge 41, Type (0, 0), BuildingBlock: TEMPAE_clean_linker_10, # of connection points: 2
#     Edge 42, Type (0, 0), BuildingBlock: TEMPAE_clean_linker_10, # of connection points: 2
#     Edge 43, Type (0, 0), BuildingBlock: TEMPAE_clean_linker_10, # of connection points: 2
#     Edge 44, Type (0, 0), BuildingBlock: TEMPAE_clean_linker_10, # of connection points: 2
#     Edge 45, Type (0, 0), BuildingBlock: TEMPAE_clean_linker_10, # of connection points: 2
#     Edge 46, Type (0, 0), BuildingBlock: TEMPAE_clean_linker_10, # of connection points: 2
#     Edge 47, Type (0, 0), BuildingBlock: TEMPAE_clean_linker_10, # of connection points: 2
#     Edge 48, Type (0, 0), BuildingBlock: TEMPAE_clean_linker_10, # of connection points: 2
#     Edge 49, Type (0, 0), BuildingBlock: TEMPAE_clean_linker_10, # of connection points: 2
#     Edge 50, Type (0, 0), BuildingBlock: TEMPAE_clean_linker_10, # of connection points: 2
#     Edge 51, Type (0, 0), BuildingBlock: TEMPAE_clean_linker_10, # of connection points: 2
#     Edge 52, Type (0, 0), BuildingBlock: TEMPAE_clean_linker_10, # of connection points: 2
#     Edge 53, Type (0, 0), BuildingBlock: TEMPAE_clean_linker_10, # of connection points: 2
#     Edge 54, Type (0, 0), BuildingBlock: TEMPAE_clean_linker_10, # of connection points: 2
#     Edge 55, Type (0, 0), BuildingBlock: TEMPAE_clean_linker_10, # of connection points: 2
# Relax obj value: 0.119
# Max RMSD: 0.207
# Mean RMSD: 0.185
data_MOF--net-gan--node1-BEQFEK_clean_sbu_0--edge1-TEMPAE_clean_linker_10
_symmetry_space_group_name_H-M    P1
_symmetry_Int_Tables_number       1
_symmetry_cell_setting            triclinic
loop_
_symmetry_equiv_pos_as_xyz
'x, y, z'
_cell_length_a     45.207016
_cell_length_b     45.647259
_cell_length_c     44.67654
_cell_angle_alpha  91.783324
_cell_angle_beta   91.221247
_cell_angle_gamma 93.926216
loop_
_atom_site_label
_atom_site_type_symbol
_atom_site_fract_x
_atom_site_fract_y
_atom_site_fract_z
_atom_type_partial_charge
Co0 Co 0.09697 0.11737 0.09298 0.0
Co1 Co 0.14241 0.15831 0.12857 0.0
C2 C 0.12387 0.10252 0.1539 0.0
O3 O 0.1087 0.09652 0.1298 0.0
O4 O 0.13823 0.12734 0.15836 0.0
C5 C 0.04115 0.08612 0.09178 0.0
O6 O 0.04222 0.09263 0.12066 0.0
C7 C 0.18911 0.19387 0.16222 0.0
C8 C 0.19403 0.23228 0.13318 0.0
C9 C 0.20582 0.22002 0.1583 0.0
N10 N 0.1686 0.19065 0.14006 0.0
N11 N 0.17165 0.21361 0.12279 0.0
C12 C 0.19184 0.17259 0.18679 0.0
H13 H 0.1695 0.16388 0.19334 0.0
H14 H 0.2037 0.18311 0.20675 0.0
H15 H 0.20416 0.15387 0.17853 0.0
C16 C 0.06126 0.16963 0.09874 0.0
N17 N 0.08631 0.15569 0.10275 0.0
N18 N 0.10506 0.17239 0.11969 0.0
C19 C 0.09223 0.19704 0.12806 0.0
C20 C 0.06406 0.19623 0.11489 0.0
C21 C 0.03557 0.15813 0.07908 0.0
H22 H 0.04336 0.14459 0.06018 0.0
H23 H 0.01997 0.14428 0.09237 0.0
H24 H 0.0235 0.17646 0.07011 0.0
O25 O 0.12878 0.11749 0.06351 0.0
O26 O 0.16198 0.14277 0.09281 0.0
H27 H 0.11796 0.23705 0.13923 0.0
H28 H 0.08772 0.22915 0.16387 0.0
C29 C 0.10536 0.21924 0.15084 0.0
H30 H 0.12066 0.20889 0.1664 0.0
H31 H 0.15884 0.21616 0.10345 0.0
O32 O 0.06256 0.09479 0.07561 0.0
C33 C 0.1551 0.12822 0.06868 0.0
Co34 Co 0.0986 0.90371 0.38515 0.0
Co35 Co 0.13801 0.86593 0.34346 0.0
C36 C 0.16101 0.89001 0.40317 0.0
O37 O 0.13654 0.90161 0.40783 0.0
O38 O 0.16508 0.87501 0.37913 0.0
C39 C 0.08142 0.95158 0.42457 0.0
O40 O 0.10997 0.95904 0.42709 0.0
C41 C 0.1814 0.83037 0.31105 0.0
C42 C 0.15597 0.81989 0.26883 0.0
C43 C 0.18214 0.81479 0.28378 0.0
N44 N 0.15597 0.84417 0.31192 0.0
N45 N 0.14088 0.83751 0.28668 0.0
C46 C 0.20417 0.83202 0.33591 0.0
H47 H 0.20741 0.85492 0.34506 0.0
H48 H 0.22566 0.82461 0.32812 0.0
H49 H 0.19608 0.81791 0.35423 0.0
C50 C 0.10185 0.94249 0.33315 0.0
N51 N 0.10727 0.91718 0.34631 0.0
N52 N 0.12447 0.90207 0.32911 0.0
C53 C 0.13088 0.91761 0.30455 0.0
C54 C 0.11665 0.94371 0.30622 0.0
C55 C 0.08563 0.96632 0.34791 0.0
H56 H 0.09849 0.97489 0.36809 0.0
H57 H 0.08254 0.98486 0.33299 0.0
H58 H 0.06372 0.95711 0.35524 0.0
O59 O 0.07621 0.865 0.38322 0.0
O60 O 0.10423 0.83871 0.35441 0.0
H61 H 0.15863 0.92572 0.266 0.0
H62 H 0.16931 0.89663 0.28961 0.0
C63 C 0.15027 0.90754 0.28 0.0
H64 H 0.13711 0.89154 0.26504 0.0
H65 H 0.11975 0.84431 0.282 0.0
O66 O 0.07245 0.92986 0.40746 0.0
C67 C 0.08128 0.84086 0.37004 0.0
Co68 Co 0.38025 0.93443 0.58963 0.0
Co69 Co 0.33712 0.89514 0.62765 0.0
C70 C 0.36121 0.95363 0.65139 0.0
O71 O 0.37556 0.95797 0.62748 0.0
O72 O 0.34472 0.93022 0.65445 0.0
C73 C 0.43615 0.96527 0.57981 0.0
O74 O 0.44078 0.96041 0.60831 0.0
C75 C 0.30913 0.86028 0.67584 0.0
C76 C 0.28385 0.82561 0.64839 0.0
C77 C 0.29059 0.83487 0.6777 0.0
N78 N 0.31343 0.86541 0.64668 0.0
N79 N 0.29802 0.84474 0.63047 0.0
C80 C 0.32144 0.8802 0.70099 0.0
H81 H 0.31753 0.90321 0.69592 0.0
H82 H 0.34575 0.87846 0.70309 0.0
H83 H 0.31092 0.87491 0.72254 0.0
C84 C 0.415 0.88102 0.59258 0.0
N85 N 0.39128 0.89623 0.59912 0.0
N86 N 0.37359 0.88034 0.61628 0.0
C87 C 0.38577 0.85487 0.62173 0.0
C88 C 0.4123 0.85435 0.60675 0.0
C89 C 0.43903 0.89114 0.57201 0.0
H90 H 0.42979 0.90405 0.55385 0.0
H91 H 0.45602 0.90532 0.58489 0.0
H92 H 0.44992 0.8722 0.56203 0.0
O93 O 0.3438 0.93118 0.56354 0.0
O94 O 0.31388 0.90344 0.59127 0.0
H95 H 0.35385 0.81999 0.63161 0.0
H96 H 0.38982 0.81685 0.64914 0.0
C97 C 0.37324 0.83245 0.64263 0.0
H98 H 0.36576 0.84361 0.66318 0.0
H99 H 0.29754 0.8435 0.6071 0.0
O100 O 0.4118 0.95567 0.56717 0.0
C101 C 0.31883 0.91731 0.56743 0.0
Co102 Co 0.36501 0.15875 0.84823 0.0
Co103 Co 0.40369 0.11901 0.88893 0.0
C104 C 0.38553 0.10006 0.82618 0.0
O105 O 0.37241 0.12371 0.82321 0.0
O106 O 0.39909 0.09463 0.85063 0.0
C107 C 0.31602 0.17279 0.80881 0.0
O108 O 0.31162 0.14414 0.80507 0.0
C109 C 0.43549 0.07391 0.92372 0.0
C110 C 0.44529 0.10007 0.96563 0.0
C111 C 0.44893 0.07292 0.9521 0.0
N112 N 0.42434 0.10045 0.92093 0.0
N113 N 0.43065 0.1159 0.94605 0.0
C114 C 0.43255 0.04994 0.90007 0.0
H115 H 0.45078 0.05332 0.88403 0.0
H116 H 0.41118 0.05071 0.88753 0.0
H117 H 0.43395 0.02809 0.91004 0.0
C118 C 0.32342 0.1495 0.89768 0.0
N119 N 0.34981 0.14604 0.88513 0.0
N120 N 0.36514 0.12874 0.90166 0.0
C121 C 0.34862 0.12027 0.9251 0.0
C122 C 0.32171 0.13327 0.92341 0.0
C123 C 0.29942 0.16591 0.88366 0.0
H124 H 0.30855 0.18806 0.87762 0.0
H125 H 0.29124 0.15391 0.86284 0.0
H126 H 0.28034 0.16803 0.89853 0.0
O127 O 0.40203 0.18355 0.85467 0.0
O128 O 0.42915 0.15558 0.88233 0.0
H129 H 0.3747 0.11331 0.96423 0.0
H130 H 0.34015 0.09175 0.9625 0.0
C131 C 0.3587 0.10056 0.9489 0.0
H132 H 0.36998 0.08209 0.93856 0.0
H133 H 0.42488 0.13743 0.94983 0.0
O134 O 0.33695 0.18327 0.82634 0.0
C135 C 0.42601 0.17933 0.86876 0.0
Co136 Co 0.60872 0.40398 0.89662 0.0
Co137 Co 0.64755 0.36681 0.85381 0.0
C138 C 0.66836 0.38357 0.91642 0.0
O139 O 0.64462 0.39659 0.92057 0.0
O140 O 0.67319 0.37062 0.89135 0.0
C141 C 0.57998 0.42692 0.94712 0.0
O142 O 0.59187 0.40475 0.95972 0.0
C143 C 0.68909 0.33022 0.81956 0.0
C144 C 0.66441 0.32514 0.77628 0.0
C145 C 0.68946 0.31674 0.79113 0.0
N146 N 0.66494 0.34597 0.82116 0.0
N147 N 0.65029 0.34252 0.79523 0.0
C148 C 0.71104 0.32813 0.84478 0.0
H149 H 0.71473 0.34974 0.85681 0.0
H150 H 0.73245 0.32097 0.83651 0.0
H151 H 0.70193 0.31201 0.86086 0.0
C152 C 0.6163 0.44627 0.84823 0.0
N153 N 0.62053 0.41995 0.85978 0.0
N154 N 0.63749 0.40523 0.84198 0.0
C155 C 0.64483 0.42206 0.81851 0.0
C156 C 0.63141 0.44859 0.82157 0.0
C157 C 0.59983 0.46946 0.86381 0.0
H158 H 0.60859 0.47292 0.88712 0.0
H159 H 0.60197 0.49067 0.85235 0.0
H160 H 0.57605 0.4618 0.86489 0.0
O161 O 0.58328 0.36739 0.89054 0.0
O162 O 0.61117 0.34136 0.86128 0.0
H163 H 0.67403 0.43124 0.78141 0.0
H164 H 0.68099 0.39873 0.8016 0.0
C165 C 0.6635 0.41246 0.7932 0.0
H166 H 0.64919 0.39931 0.77658 0.0
H167 H 0.63004 0.35138 0.79077 0.0
O168 O 0.58473 0.43144 0.91964 0.0
C169 C 0.58753 0.34388 0.87578 0.0
Co170 Co 0.83121 0.3787 0.15425 0.0
Co171 Co 0.87316 0.42121 0.11823 0.0
C172 C 0.81504 0.3974 0.09168 0.0
O173 O 0.80918 0.38319 0.1153 0.0
O174 O 0.83908 0.41353 0.08974 0.0
C175 C 0.79678 0.32473 0.16759 0.0
O176 O 0.79636 0.3191 0.13856 0.0
C177 C 0.91411 0.45024 0.07458 0.0
C178 C 0.94375 0.47644 0.10685 0.0
C179 C 0.93911 0.46987 0.0766 0.0
N180 N 0.90479 0.44533 0.10253 0.0
N181 N 0.92255 0.46122 0.12157 0.0
C182 C 0.89859 0.43741 0.04678 0.0
H183 H 0.87463 0.43296 0.05065 0.0
H184 H 0.90797 0.41629 0.04058 0.0
H185 H 0.90159 0.4525 0.02791 0.0
C186 C 0.88443 0.34334 0.15203 0.0
N187 N 0.87019 0.36765 0.14627 0.0
N188 N 0.88735 0.3852 0.1302 0.0
C189 C 0.91277 0.37242 0.12478 0.0
C190 C 0.91175 0.34554 0.13841 0.0
C191 C 0.87129 0.31762 0.16832 0.0
H192 H 0.86057 0.32538 0.18891 0.0
H193 H 0.85415 0.30553 0.15369 0.0
H194 H 0.88827 0.30228 0.17438 0.0
O195 O 0.83298 0.41499 0.18026 0.0
O196 O 0.86217 0.44431 0.15362 0.0
H197 H 0.94597 0.40686 0.11734 0.0
H198 H 0.95613 0.37111 0.10497 0.0
C199 C 0.93749 0.38561 0.10669 0.0
H200 H 0.92893 0.38984 0.08392 0.0
H201 H 0.92036 0.46142 0.14477 0.0
O202 O 0.81004 0.3484 0.17803 0.0
C203 C 0.8469 0.43975 0.17673 0.0
Co204 Co 0.85769 0.65981 0.35849 0.0
Co205 Co 0.89483 0.61974 0.40031 0.0
C206 C 0.87161 0.59744 0.34049 0.0
O207 O 0.86 0.62173 0.33614 0.0
O208 O 0.88664 0.59328 0.36436 0.0
C209 C 0.80617 0.67582 0.32346 0.0
O210 O 0.79633 0.64838 0.32677 0.0
C211 C 0.92736 0.57563 0.43535 0.0
C212 C 0.93414 0.60071 0.4783 0.0
C213 C 0.94002 0.57444 0.46407 0.0
N214 N 0.91471 0.60147 0.43299 0.0
N215 N 0.91908 0.61625 0.45879 0.0
C216 C 0.92634 0.55237 0.41096 0.0
H217 H 0.90496 0.552 0.39827 0.0
H218 H 0.92906 0.5304 0.42021 0.0
H219 H 0.94449 0.55752 0.39523 0.0
C220 C 0.81895 0.65828 0.41107 0.0
N221 N 0.844 0.65175 0.39734 0.0
N222 N 0.85787 0.63301 0.41346 0.0
C223 C 0.84122 0.62584 0.43716 0.0
C224 C 0.81608 0.64183 0.43667 0.0
C225 C 0.79875 0.68053 0.40019 0.0
H226 H 0.81161 0.69809 0.38847 0.0
H227 H 0.78203 0.66967 0.38422 0.0
H228 H 0.78702 0.69052 0.41911 0.0
O229 O 0.89671 0.68144 0.36109 0.0
O230 O 0.9226 0.65389 0.39045 0.0
H231 H 0.86054 0.61011 0.47717 0.0
H232 H 0.82619 0.59049 0.46536 0.0
C233 C 0.8472 0.60125 0.45739 0.0
H234 H 0.85971 0.58457 0.44547 0.0
H235 H 0.91186 0.63718 0.46302 0.0
O236 O 0.83101 0.68494 0.33549 0.0
C237 C 0.92068 0.67662 0.37487 0.0
Co238 Co 0.86235 0.84643 0.8564 0.0
Co239 Co 0.89679 0.88444 0.90485 0.0
C240 C 0.8823 0.91122 0.84875 0.0
O241 O 0.86766 0.88719 0.84097 0.0
O242 O 0.89733 0.91401 0.87326 0.0
C243 C 0.85715 0.82157 0.79699 0.0
O244 O 0.87884 0.84089 0.79071 0.0
C245 C 0.9228 0.92478 0.95188 0.0
C246 C 0.93079 0.89361 0.98772 0.0
C247 C 0.93195 0.92313 0.98153 0.0
N248 N 0.91621 0.89735 0.94108 0.0
N249 N 0.92084 0.87885 0.96261 0.0
C250 C 0.92035 0.95169 0.93394 0.0
H251 H 0.89665 0.95635 0.93169 0.0
H252 H 0.92881 0.94779 0.91115 0.0
H253 H 0.93305 0.97104 0.94464 0.0
C254 C 0.91381 0.80975 0.86344 0.0
N255 N 0.89843 0.8331 0.87077 0.0
N256 N 0.91388 0.84997 0.8906 0.0
C257 C 0.9401 0.83839 0.89585 0.0
C258 C 0.94082 0.8124 0.87898 0.0
C259 C 0.9025 0.78488 0.84275 0.0
H260 H 0.87821 0.78068 0.84498 0.0
H261 H 0.90713 0.79079 0.81933 0.0
H262 H 0.91358 0.76454 0.8476 0.0
O263 O 0.83171 0.84477 0.88707 0.0
O264 O 0.85534 0.87749 0.9181 0.0
H265 H 0.96439 0.84508 0.93733 0.0
H266 H 0.98684 0.84799 0.90479 0.0
C267 C 0.96522 0.85322 0.91421 0.0
H268 H 0.96364 0.87737 0.915 0.0
H269 H 0.91626 0.85615 0.96044 0.0
O270 O 0.84733 0.82076 0.82335 0.0
C271 C 0.83238 0.86114 0.91055 0.0
Co272 Co 0.85002 0.14056 0.65104 0.0
Co273 Co 0.89489 0.10449 0.61389 0.0
C274 C 0.83538 0.11725 0.58793 0.0
O275 O 0.82882 0.13149 0.61172 0.0
O276 O 0.86004 0.10531 0.58583 0.0
C277 C 0.79696 0.1627 0.67933 0.0
O278 O 0.78108 0.14677 0.65904 0.0
C279 C 0.92644 0.06413 0.57328 0.0
C280 C 0.97096 0.06826 0.59507 0.0
C281 C 0.95507 0.05494 0.57096 0.0
N282 N 0.92555 0.08192 0.59786 0.0
N283 N 0.95235 0.08442 0.6105 0.0
C284 C 0.90039 0.05609 0.55279 0.0
H285 H 0.87987 0.05359 0.56593 0.0
H286 H 0.90344 0.03543 0.5398 0.0
H287 H 0.89786 0.07406 0.53696 0.0
C288 C 0.85707 0.09156 0.69262 0.0
N289 N 0.86347 0.10547 0.66713 0.0
N290 N 0.88253 0.09065 0.65197 0.0
C291 C 0.88912 0.06697 0.66753 0.0
C292 C 0.87316 0.06667 0.6939 0.0
C293 C 0.83462 0.10122 0.7143 0.0
H294 H 0.84407 0.12088 0.72733 0.0
H295 H 0.81467 0.10749 0.70185 0.0
H296 H 0.82797 0.08365 0.72991 0.0
O297 O 0.88384 0.1696 0.64525 0.0
O298 O 0.9143 0.14435 0.61821 0.0
H299 H 0.93395 0.05864 0.65875 0.0
H300 H 0.91342 0.02771 0.67311 0.0
C301 C 0.91192 0.04642 0.65815 0.0
H302 H 0.90698 0.0381 0.63486 0.0
H303 H 0.95805 0.09758 0.62955 0.0
O304 O 0.82502 0.16178 0.67988 0.0
C305 C 0.9079 0.1681 0.63128 0.0
Co306 Co 0.62172 0.07627 0.39867 0.0
Co307 Co 0.65932 0.11892 0.35886 0.0
C308 C 0.68487 0.10209 0.41595 0.0
O309 O 0.66104 0.08602 0.41972 0.0
O310 O 0.68829 0.11731 0.39261 0.0
C311 C 0.58985 0.0679 0.45231 0.0
O312 O 0.60147 0.09455 0.45891 0.0
C313 C 0.6933 0.16537 0.32462 0.0
C314 C 0.6634 0.16481 0.2847 0.0
C315 C 0.68918 0.17845 0.29724 0.0
N316 N 0.67073 0.14499 0.32798 0.0
N317 N 0.65319 0.14472 0.30392 0.0
C318 C 0.71701 0.17321 0.34789 0.0
H319 H 0.73564 0.15898 0.34431 0.0
H320 H 0.70834 0.16933 0.37058 0.0
H321 H 0.7255 0.19649 0.34632 0.0
C322 C 0.57841 0.12222 0.39044 0.0
N323 N 0.60501 0.11112 0.38665 0.0
N324 N 0.62262 0.13049 0.37344 0.0
C325 C 0.60873 0.15541 0.37038 0.0
C326 C 0.57977 0.15102 0.38046 0.0
C327 C 0.55171 0.1044 0.40074 0.0
H328 H 0.55412 0.08066 0.39618 0.0
H329 H 0.54945 0.10808 0.42522 0.0
H330 H 0.53129 0.11085 0.38919 0.0
O331 O 0.6258 0.04987 0.36363 0.0
O332 O 0.65398 0.0801 0.33675 0.0
H333 H 0.62177 0.18553 0.33648 0.0
H334 H 0.61491 0.20279 0.37234 0.0
C335 C 0.62428 0.18361 0.36108 0.0
H336 H 0.64827 0.18393 0.36691 0.0
H337 H 0.63386 0.13099 0.30084 0.0
O338 O 0.59558 0.05568 0.42735 0.0
C339 C 0.64025 0.05516 0.34009 0.0
Co340 Co 0.59563 0.89311 0.10354 0.0
Co341 Co 0.63233 0.84847 0.14052 0.0
C342 C 0.62212 0.90869 0.16528 0.0
O343 O 0.60684 0.91487 0.14217 0.0
O344 O 0.63354 0.88398 0.16733 0.0
C345 C 0.57796 0.94656 0.07365 0.0
O346 O 0.59713 0.96112 0.09208 0.0
C347 C 0.6761 0.8186 0.17873 0.0
C348 C 0.66745 0.77289 0.16143 0.0
C349 C 0.68449 0.79005 0.18226 0.0
N350 N 0.65517 0.81816 0.15669 0.0
N351 N 0.65003 0.79066 0.14675 0.0
C352 C 0.68816 0.84588 0.19538 0.0
H353 H 0.6881 0.86493 0.18054 0.0
H354 H 0.71101 0.84337 0.20407 0.0
H355 H 0.67373 0.85021 0.21458 0.0
C356 C 0.64434 0.8839 0.06104 0.0
N357 N 0.63024 0.87808 0.0867 0.0
N358 N 0.64491 0.85904 0.10167 0.0
C359 C 0.66845 0.85174 0.08576 0.0
C360 C 0.66906 0.86737 0.0595 0.0
C361 C 0.63555 0.90679 0.03995 0.0
H362 H 0.63221 0.92738 0.05284 0.0
H363 H 0.65257 0.91152 0.02294 0.0
H364 H 0.61416 0.8993 0.02861 0.0
O365 O 0.56565 0.86036 0.11128 0.0
O366 O 0.59156 0.83073 0.13822 0.0
H367 H 0.67587 0.80815 0.09842 0.0
H368 H 0.70574 0.82482 0.07807 0.0
C369 C 0.68898 0.8291 0.09508 0.0
H370 H 0.70021 0.83623 0.11667 0.0
H371 H 0.63449 0.784 0.12986 0.0
O372 O 0.5749 0.91866 0.07472 0.0
C373 C 0.5673 0.83706 0.12599 0.0
Co374 Co 0.35341 0.64221 0.15495 0.0
Co375 Co 0.39939 0.60775 0.1175 0.0
C376 C 0.33861 0.6173 0.0926 0.0
O377 O 0.33196 0.63173 0.1162 0.0
O378 O 0.36373 0.60631 0.09024 0.0
C379 C 0.29943 0.66226 0.18236 0.0
O380 O 0.2846 0.64542 0.16202 0.0
C381 C 0.43319 0.56545 0.08025 0.0
C382 C 0.47858 0.5807 0.09561 0.0
C383 C 0.46309 0.56088 0.07597 0.0
N384 N 0.43146 0.58694 0.10148 0.0
N385 N 0.45874 0.5958 0.11044 0.0
C386 C 0.40695 0.55123 0.06317 0.0
H387 H 0.38774 0.56487 0.06477 0.0
H388 H 0.40071 0.52966 0.07288 0.0
H389 H 0.41234 0.54756 0.03928 0.0
C390 C 0.36298 0.59363 0.19655 0.0
N391 N 0.36886 0.60806 0.17124 0.0
N392 N 0.38878 0.59435 0.15613 0.0
C393 C 0.39679 0.57122 0.17173 0.0
C394 C 0.38056 0.56975 0.19788 0.0
C395 C 0.33923 0.6014 0.21763 0.0
H396 H 0.31987 0.60848 0.2048 0.0
H397 H 0.33191 0.58254 0.23137 0.0
H398 H 0.34783 0.62002 0.23264 0.0
O399 O 0.38561 0.67282 0.14807 0.0
O400 O 0.41637 0.64856 0.12045 0.0
H401 H 0.44078 0.56597 0.15691 0.0
H402 H 0.427 0.5371 0.18009 0.0
C403 C 0.42073 0.55202 0.16229 0.0
H404 H 0.41328 0.539 0.14179 0.0
H405 H 0.46386 0.61258 0.12649 0.0
O406 O 0.32758 0.66253 0.18356 0.0
C407 C 0.40924 0.67218 0.13324 0.0
Co408 Co 0.12673 0.58512 0.89988 0.0
Co409 Co 0.17019 0.61981 0.85862 0.0
C410 C 0.18942 0.60223 0.91987 0.0
O411 O 0.16411 0.58918 0.92415 0.0
O412 O 0.19489 0.61536 0.89559 0.0
C413 C 0.09878 0.54728 0.9417 0.0
O414 O 0.12527 0.5373 0.94408 0.0
C415 C 0.20844 0.66847 0.83401 0.0
C416 C 0.20865 0.65331 0.78654 0.0
C417 C 0.21933 0.67584 0.80615 0.0
N418 N 0.19198 0.6428 0.83074 0.0
N419 N 0.19236 0.63389 0.80234 0.0
C420 C 0.21467 0.68459 0.86339 0.0
H421 H 0.19917 0.70221 0.86607 0.0
H422 H 0.23764 0.69492 0.86423 0.0
H423 H 0.21142 0.66951 0.8822 0.0
C424 C 0.09275 0.63759 0.89214 0.0
N425 N 0.11659 0.62229 0.88678 0.0
N426 N 0.13395 0.63662 0.86812 0.0
C427 C 0.1211 0.66116 0.86017 0.0
C428 C 0.09461 0.66271 0.87529 0.0
C429 C 0.06965 0.62894 0.91435 0.0
H430 H 0.0804 0.62068 0.93466 0.0
H431 H 0.05662 0.6477 0.92104 0.0
H432 H 0.05445 0.61096 0.90437 0.0
O433 O 0.12923 0.55712 0.86541 0.0
O434 O 0.16154 0.58147 0.83733 0.0
H435 H 0.11448 0.69334 0.82663 0.0
H436 H 0.14929 0.69777 0.84709 0.0
C437 C 0.1326 0.68142 0.83672 0.0
H438 H 0.14325 0.66889 0.81879 0.0
H439 H 0.18125 0.61461 0.79363 0.0
O440 O 0.09467 0.56816 0.92433 0.0
C441 C 0.14451 0.55882 0.8419 0.0
Co442 Co 0.09003 0.39303 0.60936 0.0
Co443 Co 0.13026 0.3503 0.64465 0.0
C444 C 0.11609 0.40762 0.67207 0.0
O445 O 0.10061 0.41364 0.64902 0.0
O446 O 0.129 0.38367 0.67343 0.0
C447 C 0.07374 0.44655 0.5791 0.0
O448 O 0.09662 0.45989 0.5937 0.0
C449 C 0.17364 0.31916 0.68205 0.0
C450 C 0.17588 0.27852 0.65424 0.0
C451 C 0.18691 0.2925 0.68048 0.0
N452 N 0.15568 0.32073 0.65773 0.0
N453 N 0.15705 0.29622 0.64143 0.0
C454 C 0.17895 0.34333 0.70529 0.0
H455 H 0.1804 0.36487 0.69438 0.0
H456 H 0.19962 0.34085 0.71854 0.0
H457 H 0.1599 0.34296 0.72057 0.0
C458 C 0.13815 0.38696 0.56524 0.0
N459 N 0.12522 0.38079 0.59146 0.0
N460 N 0.14253 0.36453 0.60706 0.0
C461 C 0.16743 0.36083 0.59182 0.0
C462 C 0.16534 0.37444 0.56459 0.0
C463 C 0.12418 0.40361 0.54099 0.0
H464 H 0.09987 0.39828 0.54005 0.0
H465 H 0.12835 0.4275 0.54603 0.0
H466 H 0.13353 0.39833 0.51886 0.0
O467 O 0.06222 0.35849 0.61558 0.0
O468 O 0.09048 0.32964 0.64094 0.0
H469 H 0.19195 0.3233 0.59983 0.0
H470 H 0.21474 0.35645 0.59416 0.0
C471 C 0.1941 0.34736 0.60447 0.0
H472 H 0.19593 0.35165 0.62901 0.0
H473 H 0.14518 0.29164 0.62135 0.0
O474 O 0.06789 0.41919 0.58255 0.0
C475 C 0.06565 0.33474 0.629 0.0
Co476 Co 0.59456 0.61854 0.6096 0.0
Co477 Co 0.635 0.66556 0.64398 0.0
C478 C 0.6238 0.60761 0.66999 0.0
O479 O 0.60814 0.5998 0.64666 0.0
O480 O 0.63591 0.63362 0.67341 0.0
C481 C 0.54244 0.5801 0.60591 0.0
O482 O 0.54205 0.58407 0.63515 0.0
C483 C 0.6821 0.70313 0.67359 0.0
C484 C 0.67944 0.74375 0.64812 0.0
C485 C 0.69621 0.73052 0.66935 0.0
N486 N 0.65799 0.70022 0.65549 0.0
N487 N 0.65662 0.72447 0.64022 0.0
C488 C 0.69193 0.67951 0.69324 0.0
H489 H 0.70107 0.66201 0.67912 0.0
H490 H 0.67261 0.66954 0.70507 0.0
H491 H 0.70905 0.68821 0.70999 0.0
C492 C 0.55387 0.66721 0.61058 0.0
N493 N 0.57954 0.6556 0.61801 0.0
N494 N 0.59552 0.67448 0.63553 0.0
C495 C 0.57982 0.69802 0.64124 0.0
C496 C 0.55319 0.69441 0.62518 0.0
C497 C 0.53035 0.65235 0.59022 0.0
H498 H 0.54069 0.64085 0.57132 0.0
H499 H 0.51716 0.6358 0.60297 0.0
H500 H 0.51505 0.66819 0.58144 0.0
O501 O 0.62688 0.62104 0.58094 0.0
O502 O 0.65525 0.65453 0.60686 0.0
H503 H 0.59733 0.74256 0.64765 0.0
H504 H 0.57146 0.73069 0.67518 0.0
C505 C 0.59 0.72371 0.66141 0.0
H506 H 0.60835 0.7181 0.67655 0.0
H507 H 0.64115 0.72715 0.62303 0.0
O508 O 0.56302 0.59274 0.59119 0.0
C509 C 0.65054 0.63753 0.58398 0.0
Co510 Co 0.35482 0.34899 0.36205 0.0
Co511 Co 0.39635 0.38452 0.40681 0.0
C512 C 0.38168 0.41102 0.35048 0.0
O513 O 0.36485 0.38799 0.34403 0.0
O514 O 0.3973 0.41343 0.37463 0.0
C515 C 0.34806 0.31964 0.30588 0.0
O516 O 0.37402 0.33318 0.30101 0.0
C517 C 0.42835 0.42313 0.45164 0.0
C518 C 0.44018 0.39091 0.48516 0.0
C519 C 0.44086 0.42061 0.47992 0.0
N520 N 0.42045 0.39601 0.44065 0.0
N521 N 0.42742 0.37688 0.46083 0.0
C522 C 0.42321 0.45062 0.43547 0.0
H523 H 0.39928 0.4546 0.43604 0.0
H524 H 0.42928 0.44789 0.41169 0.0
H525 H 0.43639 0.4699 0.44572 0.0
C526 C 0.39946 0.30475 0.37139 0.0
N527 N 0.38872 0.33123 0.3764 0.0
N528 N 0.40839 0.34815 0.39185 0.0
C529 C 0.43341 0.33407 0.39511 0.0
C530 C 0.42857 0.30553 0.38285 0.0
C531 C 0.38108 0.27884 0.35811 0.0
H532 H 0.35719 0.28148 0.36169 0.0
H533 H 0.38469 0.27717 0.33365 0.0
H534 H 0.38725 0.25822 0.36837 0.0
O535 O 0.32605 0.354 0.3932 0.0
O536 O 0.3559 0.38114 0.42442 0.0
H537 H 0.46631 0.34497 0.42978 0.0
H538 H 0.48096 0.34103 0.39287 0.0
C539 C 0.46235 0.34925 0.40579 0.0
H540 H 0.46197 0.37335 0.40333 0.0
H541 H 0.42222 0.35428 0.45858 0.0
O542 O 0.33578 0.32362 0.33079 0.0
C543 C 0.33044 0.36882 0.41755 0.0
C544 C 0.25335 0.21535 0.18645 0.0
C545 C 0.23123 0.23289 0.17628 0.0
C546 C 0.27667 0.22741 0.20504 0.0
C547 C 0.27762 0.25759 0.21342 0.0
C548 C 0.25627 0.27568 0.20169 0.0
C549 C 0.23334 0.26306 0.18305 0.0
C550 C 0.2994 0.20765 0.2168 0.0
C551 C 0.25658 0.30799 0.21024 0.0
C552 C 0.30617 0.28455 0.2896 0.0
C553 C 0.33242 0.30073 0.28256 0.0
C554 C 0.28892 0.26904 0.26735 0.0
C555 C 0.2983 0.26964 0.23739 0.0
C556 C 0.32572 0.28432 0.23035 0.0
C557 C 0.34255 0.29985 0.25314 0.0
C558 C 0.2598 0.25349 0.27571 0.0
C559 C 0.33648 0.28496 0.19861 0.0
H560 H 0.25225 0.19218 0.18014 0.0
H561 H 0.21637 0.2766 0.17473 0.0
H562 H 0.32214 0.21805 0.21467 0.0
H563 H 0.29585 0.20417 0.24097 0.0
H564 H 0.29798 0.18587 0.20486 0.0
H565 H 0.23994 0.31939 0.19712 0.0
H566 H 0.25171 0.31065 0.23437 0.0
H567 H 0.27884 0.31896 0.20677 0.0
H568 H 0.2985 0.28474 0.31243 0.0
H569 H 0.36301 0.31211 0.2477 0.0
H570 H 0.25824 0.23047 0.26682 0.0
H571 H 0.24116 0.26462 0.26553 0.0
H572 H 0.2569 0.25331 0.30034 0.0
H573 H 0.33383 0.26272 0.18776 0.0
H574 H 0.36011 0.29325 0.19763 0.0
H575 H 0.32293 0.29951 0.18538 0.0
C576 C 0.9879 0.01596 0.55556 0.0
C577 C 0.96821 0.03685 0.54733 0.0
C578 C 0.00398 0.00121 0.53398 0.0
C579 C 0.00084 0.00805 0.50342 0.0
C580 C 0.98035 0.0286 0.49487 0.0
C581 C 0.96411 0.04267 0.51696 0.0
C582 C 0.02513 0.97906 0.54405 0.0
C583 C 0.97667 0.03679 0.46261 0.0
C584 C 0.06854 0.99418 0.45735 0.0
C585 C 0.05995 0.9672 0.44276 0.0
C586 C 0.04904 0.00829 0.47616 0.0
C587 C 0.02038 0.99489 0.4809 0.0
C588 C 0.01132 0.968 0.46569 0.0
C589 C 0.03113 0.9546 0.44663 0.0
C590 C 0.05941 0.03719 0.4916 0.0
C591 C 0.98114 0.95281 0.47044 0.0
H592 H 0.99113 0.01153 0.57907 0.0
H593 H 0.94939 0.05931 0.51062 0.0
H594 H 0.02094 0.95811 0.53091 0.0
H595 H 0.04828 0.98739 0.53997 0.0
H596 H 0.02317 0.97449 0.56823 0.0
H597 H 0.9582 0.0513 0.45931 0.0
H598 H 0.99748 0.04837 0.45516 0.0
H599 H 0.97247 0.01679 0.44799 0.0
H600 H 0.09067 0.00418 0.45431 0.0
H601 H 0.0243 0.93371 0.43549 0.0
H602 H 0.06116 0.03434 0.51613 0.0
H603 H 0.04304 0.05378 0.48771 0.0
H604 H 0.08134 0.04585 0.48369 0.0
H605 H 0.97952 0.94607 0.49403 0.0
H606 H 0.97675 0.933 0.45551 0.0
H607 H 0.96353 0.96808 0.46643 0.0
C608 C 0.23064 0.7305 0.80804 0.0
C609 C 0.23649 0.70254 0.79672 0.0
C610 C 0.24228 0.75594 0.79434 0.0
C611 C 0.2596 0.75315 0.7685 0.0
C612 C 0.26736 0.72504 0.75846 0.0
C613 C 0.25576 0.70012 0.77277 0.0
C614 C 0.23412 0.78559 0.80608 0.0
C615 C 0.28576 0.72101 0.73099 0.0
C616 C 0.25306 0.80345 0.70368 0.0
C617 C 0.28116 0.8184 0.70419 0.0
C618 C 0.24506 0.78353 0.72576 0.0
C619 C 0.26568 0.77853 0.74904 0.0
C620 C 0.29339 0.79498 0.7508 0.0
C621 C 0.30101 0.81448 0.72805 0.0
C622 C 0.21532 0.76631 0.72289 0.0
C623 C 0.31575 0.7906 0.77554 0.0
H624 H 0.21536 0.73261 0.82617 0.0
H625 H 0.26051 0.67852 0.76412 0.0
H626 H 0.25338 0.80198 0.80552 0.0
H627 H 0.21623 0.79346 0.79164 0.0
H628 H 0.22606 0.78459 0.82937 0.0
H629 H 0.29222 0.69808 0.72794 0.0
H630 H 0.27288 0.72667 0.7108 0.0
H631 H 0.30618 0.73594 0.73238 0.0
H632 H 0.23771 0.80647 0.68522 0.0
H633 H 0.32311 0.82527 0.72813 0.0
H634 H 0.20345 0.76739 0.74432 0.0
H635 H 0.21869 0.74284 0.71772 0.0
H636 H 0.20099 0.7745 0.70491 0.0
H637 H 0.30474 0.78851 0.79741 0.0
H638 H 0.33314 0.80903 0.77736 0.0
H639 H 0.32672 0.76999 0.77092 0.0
C640 C 0.4611 0.04448 0.99693 0.0
C641 C 0.465 0.04944 0.9664 0.0
C642 C 0.47871 0.02552 0.01248 0.0
C643 C 0.50136 0.0115 0.99735 0.0
C644 C 0.50486 0.01573 0.96624 0.0
C645 C 0.48653 0.03455 0.95109 0.0
C646 C 0.47376 0.02137 0.04545 0.0
C647 C 0.52889 0.00152 0.9493 0.0
C648 C 0.56584 0.99265 0.04803 0.0
C649 C 0.55948 0.96258 0.05243 0.0
C650 C 0.54778 0.00848 0.02927 0.0
C651 C 0.5224 0.99409 0.01471 0.0
C652 C 0.51619 0.96359 0.01852 0.0
C653 C 0.53486 0.9482 0.03716 0.0
C654 C 0.55549 0.04087 0.02562 0.0
C655 C 0.48924 0.94742 0.00373 0.0
H656 H 0.44451 0.05596 0.00888 0.0
H657 H 0.49009 0.03876 0.92765 0.0
H658 H 0.47133 0.99762 0.0502 0.0
H659 H 0.49329 0.03105 0.05865 0.0
H660 H 0.45374 0.03185 0.05332 0.0
H661 H 0.52713 0.00486 0.92482 0.0
H662 H 0.55092 0.01096 0.95764 0.0
H663 H 0.52796 0.97759 0.95318 0.0
H664 H 0.58489 0.00397 0.05949 0.0
H665 H 0.52968 0.92499 0.04036 0.0
H666 H 0.53799 0.05376 0.03554 0.0
H667 H 0.55642 0.04589 0.00151 0.0
H668 H 0.5771 0.04834 0.03659 0.0
H669 H 0.46885 0.95613 0.01288 0.0
H670 H 0.48851 0.92341 0.00731 0.0
H671 H 0.48889 0.95107 0.9793 0.0
C672 C 0.25287 0.6806 0.20348 0.0
C673 C 0.28387 0.68304 0.20172 0.0
C674 C 0.23775 0.70166 0.21961 0.0
C675 C 0.25397 0.72602 0.23396 0.0
C676 C 0.28532 0.72813 0.23302 0.0
C677 C 0.29989 0.70653 0.21712 0.0
C678 C 0.20433 0.69832 0.22045 0.0
C679 C 0.30343 0.75389 0.2477 0.0
C680 C 0.21158 0.79475 0.24247 0.0
C681 C 0.20372 0.79428 0.27262 0.0
C682 C 0.22885 0.77329 0.22998 0.0
C683 C 0.23795 0.75033 0.24791 0.0
C684 C 0.2306 0.75009 0.2786 0.0
C685 C 0.21363 0.77217 0.29064 0.0
C686 C 0.23657 0.77471 0.1973 0.0
C687 C 0.23953 0.72581 0.29836 0.0
H688 H 0.24032 0.66245 0.19185 0.0
H689 H 0.32386 0.70868 0.21586 0.0
H690 H 0.19687 0.70026 0.24388 0.0
H691 H 0.19481 0.7162 0.20791 0.0
H692 H 0.1952 0.67691 0.21046 0.0
H693 H 0.32764 0.75127 0.24676 0.0
H694 H 0.29856 0.77433 0.2363 0.0
H695 H 0.29732 0.75675 0.27147 0.0
H696 H 0.20378 0.81175 0.22848 0.0
H697 H 0.20693 0.77129 0.31376 0.0
H698 H 0.22561 0.75549 0.1847 0.0
H699 H 0.26084 0.77375 0.19472 0.0
H700 H 0.22954 0.79505 0.18701 0.0
H701 H 0.22803 0.70466 0.29037 0.0
H702 H 0.23393 0.72987 0.32215 0.0
H703 H 0.2637 0.72332 0.29705 0.0
C704 C 0.45201 0.99239 0.53453 0.0
C705 C 0.45929 0.98097 0.56231 0.0
C706 C 0.47368 0.00716 0.5175 0.0
C707 C 0.50345 0.01014 0.52828 0.0
C708 C 0.51095 0.99865 0.5563 0.0
C709 C 0.48871 0.98439 0.57311 0.0
C710 C 0.46474 0.0195 0.48792 0.0
C711 C 0.54254 0.00103 0.56829 0.0
C712 C 0.56189 0.02262 0.46944 0.0
C713 C 0.56882 0.05298 0.47271 0.0
C714 C 0.54121 0.00828 0.48792 0.0
C715 C 0.52675 0.02479 0.50985 0.0
C716 C 0.53383 0.05542 0.51343 0.0
C717 C 0.55499 0.06912 0.49495 0.0
C718 C 0.53456 0.97551 0.48374 0.0
C719 C 0.51855 0.07381 0.53627 0.0
H720 H 0.42926 0.98999 0.52616 0.0
H721 H 0.49448 0.97546 0.59449 0.0
H722 H 0.47133 0.04336 0.48778 0.0
H723 H 0.47646 0.00879 0.46944 0.0
H724 H 0.44048 0.01625 0.48326 0.0
H725 H 0.54467 0.99109 0.59054 0.0
H726 H 0.55699 0.98988 0.55242 0.0
H727 H 0.55094 0.02443 0.5703 0.0
H728 H 0.57267 0.01001 0.4524 0.0
H729 H 0.56014 0.09262 0.49745 0.0
H730 H 0.51104 0.97077 0.47655 0.0
H731 H 0.53777 0.96459 0.5053 0.0
H732 H 0.54885 0.96565 0.46677 0.0
H733 H 0.49435 0.07261 0.53116 0.0
H734 H 0.52707 0.09724 0.5367 0.0
H735 H 0.52157 0.0651 0.55895 0.0
C736 C 0.30512 0.22276 0.79114 0.0
C737 C 0.29686 0.19263 0.79269 0.0
C738 C 0.28788 0.24143 0.77466 0.0
C739 C 0.26151 0.22981 0.75969 0.0
C740 C 0.25262 0.1996 0.76196 0.0
C741 C 0.27048 0.18137 0.77821 0.0
C742 C 0.29834 0.2734 0.77253 0.0
C743 C 0.22448 0.18635 0.74668 0.0
C744 C 0.20287 0.2798 0.73245 0.0
C745 C 0.20792 0.27981 0.7016 0.0
C746 C 0.22062 0.26427 0.75186 0.0
C747 C 0.2441 0.24866 0.74013 0.0
C748 C 0.24991 0.24964 0.70914 0.0
C749 C 0.23156 0.2649 0.69026 0.0
C750 C 0.21341 0.26346 0.78466 0.0
C751 C 0.27495 0.23376 0.69571 0.0
H752 H 0.32548 0.23167 0.80222 0.0
H753 H 0.26376 0.1582 0.77947 0.0
H754 H 0.30344 0.27825 0.74894 0.0
H755 H 0.28057 0.28761 0.77942 0.0
H756 H 0.31848 0.27937 0.7867 0.0
H757 H 0.21962 0.163 0.75229 0.0
H758 H 0.20539 0.19899 0.75323 0.0
H759 H 0.22643 0.1876 0.72204 0.0
H760 H 0.18421 0.29076 0.7412 0.0
H761 H 0.23547 0.26484 0.66639 0.0
H762 H 0.23357 0.26956 0.79869 0.0
H763 H 0.20556 0.24077 0.79029 0.0
H764 H 0.19599 0.27848 0.79067 0.0
H765 H 0.29604 0.24003 0.70819 0.0
H766 H 0.27799 0.2386 0.67171 0.0
H767 H 0.27042 0.20971 0.69762 0.0
C768 C 0.01499 0.06263 0.04707 0.0
C769 C 0.01672 0.0669 0.07825 0.0
C770 C 0.99556 0.04073 0.03376 0.0
C771 C 0.97726 0.02291 0.05216 0.0
C772 C 0.97681 0.02894 0.08338 0.0
C773 C 0.99676 0.05093 0.09618 0.0
C774 C 0.99651 0.0351 1.00028 0.0
C775 C 0.95692 0.01085 0.10349 0.0
C776 C 0.92429 0.97167 0.00596 0.0
C777 C 0.94122 0.94726 0.00274 0.0
C778 C 0.93456 0.99589 0.02421 0.0
C779 C 0.96249 0.99553 0.03899 0.0
C780 C 0.97863 0.97002 0.03734 0.0
C781 C 0.96756 0.94599 0.01938 0.0
C782 C 0.9164 0.02239 0.02622 0.0
C783 C 0.0086 0.96888 0.05272 0.0
H784 H 0.02992 0.07543 0.03305 0.0
H785 H 0.99773 0.0545 0.1203 0.0
H786 H 0.00631 0.01383 0.9956 0.0
H787 H 0.9738 0.03348 0.99024 0.0
H788 H 0.00993 0.05262 0.98899 0.0
H789 H 0.95441 0.02215 0.12558 0.0
H790 H 0.93463 0.00597 0.09289 0.0
H791 H 0.96661 0.98957 0.10735 0.0
H792 H 0.90336 0.97206 0.99372 0.0
H793 H 0.98031 0.9268 0.01705 0.0
H794 H 0.92593 0.0396 0.01155 0.0
H795 H 0.91688 0.03183 0.04943 0.0
H796 H 0.89296 0.01691 0.01896 0.0
H797 H 0.02485 0.98453 0.04225 0.0
H798 H 0.01704 0.9466 0.05116 0.0
H799 H 0.00744 0.97561 0.0767 0.0
C800 C 0.75173 0.18274 0.70179 0.0
C801 C 0.7827 0.18356 0.69981 0.0
C802 C 0.73794 0.2038 0.71929 0.0
C803 C 0.7555 0.22651 0.73491 0.0
C804 C 0.78679 0.22696 0.73368 0.0
C805 C 0.8 0.2054 0.71633 0.0
C806 C 0.70451 0.20227 0.72029 0.0
C807 C 0.80632 0.2509 0.74972 0.0
C808 C 0.71754 0.29736 0.74839 0.0
C809 C 0.70966 0.29551 0.77848 0.0
C810 C 0.73333 0.27559 0.73433 0.0
C811 C 0.74101 0.25094 0.75058 0.0
C812 C 0.7337 0.24925 0.78121 0.0
C813 C 0.71815 0.27163 0.79485 0.0
C814 C 0.74101 0.27855 0.70178 0.0
C815 C 0.74117 0.22322 0.79923 0.0
H816 H 0.73816 0.16587 0.6893 0.0
H817 H 0.82395 0.20629 0.71496 0.0
H818 H 0.69726 0.20314 0.74386 0.0
H819 H 0.69608 0.22152 0.70914 0.0
H820 H 0.69416 0.18196 0.70901 0.0
H821 H 0.83026 0.24704 0.74825 0.0
H822 H 0.80257 0.27236 0.7398 0.0
H823 H 0.80053 0.25261 0.77368 0.0
H824 H 0.71087 0.31574 0.73564 0.0
H825 H 0.71143 0.26968 0.81787 0.0
H826 H 0.72902 0.26061 0.68813 0.0
H827 H 0.76509 0.27644 0.69885 0.0
H828 H 0.73514 0.29991 0.69289 0.0
H829 H 0.72848 0.20315 0.79004 0.0
H830 H 0.73589 0.22617 0.82326 0.0
H831 H 0.76506 0.21945 0.79748 0.0
C832 C 0.04465 0.54071 0.95172 0.0
C833 C 0.07387 0.53448 0.95897 0.0
C834 C 0.0208 0.52931 0.96831 0.0
C835 C 0.0264 0.51167 0.993 0.0
C836 C 0.05579 0.50495 1.00016 0.0
C837 C 0.07918 0.51629 0.9829 0.0
C838 C 0.9897 0.53658 0.95979 0.0
C839 C 0.06262 0.48652 0.0266 0.0
C840 C 0.97317 0.50939 0.05716 0.0
C841 C 0.95869 0.48137 0.05297 0.0
C842 C 0.99471 0.5198 0.03734 0.0
C843 C 0.00183 0.50177 0.01257 0.0
C844 C 0.98658 0.47386 0.00755 0.0
C845 C 0.96536 0.46383 0.02804 0.0
C846 C 0.01062 0.54963 0.04356 0.0
C847 C 0.99348 0.45417 0.9812 0.0
H848 H 0.04038 0.55457 0.93305 0.0
H849 H 0.10172 0.51144 0.9886 0.0
H850 H 0.97504 0.51613 0.95694 0.0
H851 H 0.98052 0.55005 0.978 0.0
H852 H 0.98892 0.54887 0.93875 0.0
H853 H 0.08653 0.48243 0.02849 0.0
H854 H 0.05614 0.49776 0.0476 0.0
H855 H 0.04953 0.46506 0.02472 0.0
H856 H 0.96812 0.52301 0.07645 0.0
H857 H 0.95505 0.44179 0.02515 0.0
H858 H 0.00883 0.56349 0.02373 0.0
H859 H 0.03456 0.54713 0.04792 0.0
H860 H 0.00163 0.56135 0.06316 0.0
H861 H 0.9929 0.46643 0.96016 0.0
H862 H 0.97764 0.43448 0.9788 0.0
H863 H 0.0162 0.44675 0.98403 0.0
C864 C 0.80203 0.72236 0.29544 0.0
C865 C 0.78886 0.69568 0.3052 0.0
C866 C 0.7864 0.74043 0.27664 0.0
C867 C 0.75674 0.73186 0.26767 0.0
C868 C 0.74304 0.70544 0.2783 0.0
C869 C 0.7593 0.68761 0.29671 0.0
C870 C 0.80196 0.7682 0.26556 0.0
C871 C 0.71134 0.69564 0.26965 0.0
C872 C 0.70582 0.78652 0.23442 0.0
C873 C 0.70571 0.77834 0.2039 0.0
C874 C 0.72295 0.77218 0.25544 0.0
C875 C 0.74057 0.74935 0.24564 0.0
C876 C 0.74141 0.74194 0.21466 0.0
C877 C 0.72376 0.75627 0.19428 0.0
C878 C 0.72109 0.78049 0.28827 0.0
C879 C 0.76022 0.71813 0.20309 0.0
H880 H 0.82487 0.72879 0.30183 0.0
H881 H 0.74883 0.66718 0.30432 0.0
H882 H 0.80413 0.76633 0.24089 0.0
H883 H 0.7887 0.78728 0.2704 0.0
H884 H 0.82444 0.77269 0.27593 0.0
H885 H 0.70324 0.67572 0.2815 0.0
H886 H 0.69658 0.7135 0.27473 0.0
H887 H 0.70951 0.69074 0.24517 0.0
H888 H 0.69142 0.8031 0.24206 0.0
H889 H 0.7237 0.74987 0.1707 0.0
H890 H 0.74363 0.78488 0.2984 0.0
H891 H 0.71014 0.7619 0.3002 0.0
H892 H 0.70835 0.80019 0.29206 0.0
H893 H 0.78342 0.72224 0.21157 0.0
H894 H 0.76026 0.71664 0.17822 0.0
H895 H 0.75171 0.69658 0.2114 0.0
C896 C 0.9788 0.53717 0.46198 0.0
C897 C 0.95743 0.55166 0.47798 0.0
C898 C 0.99764 0.51835 0.4764 0.0
C899 C 0.9951 0.51395 0.50757 0.0
C900 C 0.97298 0.5279 0.52356 0.0
C901 C 0.95462 0.54664 0.50865 0.0
C902 C 0.02101 0.50406 0.45853 0.0
C903 C 0.96924 0.52374 0.55671 0.0
C904 C 0.0288 0.44965 0.54531 0.0
C905 C 0.05446 0.46334 0.55935 0.0
C906 C 0.00971 0.46561 0.52774 0.0
C907 C 0.01638 0.49603 0.52396 0.0
C908 C 0.04263 0.5098 0.53744 0.0
C909 C 0.06127 0.49334 0.55496 0.0
C910 C 0.98197 0.45006 0.51385 0.0
C911 C 0.05071 0.54214 0.53395 0.0
H912 H 0.98173 0.54152 0.43849 0.0
H913 H 0.9382 0.55781 0.52118 0.0
H914 H 0.04335 0.51304 0.46642 0.0
H915 H 0.0198 0.48006 0.46201 0.0
H916 H 0.01867 0.5078 0.43417 0.0
H917 H 0.94994 0.5348 0.56553 0.0
H918 H 0.9663 0.5 0.56136 0.0
H919 H 0.98952 0.53276 0.56916 0.0
H920 H 0.0233 0.42648 0.54842 0.0
H921 H 0.08106 0.50417 0.56553 0.0
H922 H 0.98095 0.45373 0.48943 0.0
H923 H 0.96213 0.45926 0.52369 0.0
H924 H 0.98079 0.42603 0.51739 0.0
H925 H 0.05105 0.54737 0.50987 0.0
H926 H 0.07269 0.54919 0.54436 0.0
H927 H 0.0337 0.55522 0.54451 0.0
C928 C 0.54313 0.46553 0.95036 0.0
C929 C 0.561 0.446 0.96469 0.0
C930 C 0.525 0.48357 0.9669 0.0
C931 C 0.52512 0.4824 0.99855 0.0
C932 C 0.54299 0.46261 0.01309 0.0
C933 C 0.56054 0.44453 0.99599 0.0
C934 C 0.50597 0.50411 0.95056 0.0
C935 C 0.54413 0.46101 0.04682 0.0
C936 C 0.50598 0.54949 0.04452 0.0
C937 C 0.47744 0.54112 0.05441 0.0
C938 C 0.52142 0.53083 0.02593 0.0
C939 C 0.50799 0.50305 0.01666 0.0
C940 C 0.47894 0.49462 0.02593 0.0
C941 C 0.46413 0.51361 0.04499 0.0
C942 C 0.55248 0.54059 0.01687 0.0
C943 C 0.46381 0.46522 0.01634 0.0
H944 H 0.54319 0.46663 0.92615 0.0
H945 H 0.5743 0.42954 0.00725 0.0
H946 H 0.48253 0.50049 0.95722 0.0
H947 H 0.51328 0.52722 0.95682 0.0
H948 H 0.50702 0.50113 0.92584 0.0
H949 H 0.55852 0.44388 0.05463 0.0
H950 H 0.5527 0.48255 0.05688 0.0
H951 H 0.52151 0.45625 0.05536 0.0
H952 H 0.51652 0.57069 0.05161 0.0
H953 H 0.44262 0.50637 0.05319 0.0
H954 H 0.55396 0.53992 0.99211 0.0
H955 H 0.5684 0.5253 0.02562 0.0
H956 H 0.55948 0.56318 0.02539 0.0
H957 H 0.46449 0.46204 0.99165 0.0
H958 H 0.44031 0.46301 0.02325 0.0
H959 H 0.47574 0.44735 0.02638 0.0
C960 C 0.72663 0.77092 0.69524 0.0
C961 C 0.72466 0.74271 0.6821 0.0
C962 C 0.75291 0.78223 0.70958 0.0
C963 C 0.77782 0.76499 0.71004 0.0
C964 C 0.77656 0.73737 0.69468 0.0
C965 C 0.74974 0.72637 0.68104 0.0
C966 C 0.75334 0.81174 0.72594 0.0
C967 C 0.80296 0.71886 0.69394 0.0
C968 C 0.84501 0.80884 0.74309 0.0
C969 C 0.84181 0.80272 0.77343 0.0
C970 C 0.82587 0.79456 0.72131 0.0
C971 C 0.80311 0.77416 0.73042 0.0
C972 C 0.80173 0.76593 0.76062 0.0
C973 C 0.82129 0.78019 0.78174 0.0
C974 C 0.82855 0.80301 0.68905 0.0
C975 C 0.77783 0.74413 0.77123 0.0
H976 H 0.70717 0.78356 0.6955 0.0
H977 H 0.74825 0.70486 0.66988 0.0
H978 H 0.75568 0.80872 0.75041 0.0
H979 H 0.77263 0.82613 0.71915 0.0
H980 H 0.73281 0.82313 0.72162 0.0
H981 H 0.80042 0.70136 0.67603 0.0
H982 H 0.8237 0.73264 0.69038 0.0
H983 H 0.80541 0.7082 0.71574 0.0
H984 H 0.8612 0.82592 0.73654 0.0
H985 H 0.81929 0.77485 0.80513 0.0
H986 H 0.81174 0.81879 0.68374 0.0
H987 H 0.82432 0.78352 0.6737 0.0
H988 H 0.85083 0.81359 0.68463 0.0
H989 H 0.75598 0.75373 0.76947 0.0
H990 H 0.78163 0.73816 0.79486 0.0
H991 H 0.77659 0.72376 0.75695 0.0
C992 C 0.73807 0.20189 0.28191 0.0
C993 C 0.70714 0.2021 0.28291 0.0
C994 C 0.75454 0.22213 0.26463 0.0
C995 C 0.73963 0.24302 0.24826 0.0
C996 C 0.70851 0.24395 0.25022 0.0
C997 C 0.69266 0.22333 0.26732 0.0
C998 C 0.78768 0.22036 0.26289 0.0
C999 C 0.69181 0.26613 0.23348 0.0
C1000 C 0.78097 0.31097 0.21889 0.0
C1001 C 0.78302 0.30339 0.18833 0.0
C1002 C 0.76759 0.29126 0.23883 0.0
C1003 C 0.75615 0.26321 0.22802 0.0
C1004 C 0.75874 0.25515 0.19736 0.0
C1005 C 0.77204 0.2754 0.17784 0.0
C1006 C 0.76499 0.30074 0.27131 0.0
C1007 C 0.74696 0.22534 0.18504 0.0
H1008 H 0.74923 0.1851 0.29344 0.0
H1009 H 0.66871 0.22349 0.26813 0.0
H1010 H 0.79348 0.21378 0.23974 0.0
H1011 H 0.79924 0.24221 0.26808 0.0
H1012 H 0.79615 0.20426 0.27853 0.0
H1013 H 0.66789 0.26505 0.23885 0.0
H1014 H 0.70153 0.28869 0.23893 0.0
H1015 H 0.69382 0.26219 0.209 0.0
H1016 H 0.78946 0.33254 0.22723 0.0
H1017 H 0.77375 0.26928 0.15434 0.0
H1018 H 0.77453 0.28452 0.28606 0.0
H1019 H 0.74125 0.30156 0.27687 0.0
H1020 H 0.77641 0.32269 0.27648 0.0
H1021 H 0.75625 0.20777 0.19822 0.0
H1022 H 0.75239 0.2218 0.16113 0.0
H1023 H 0.7225 0.22303 0.1871 0.0
C1024 C 0.47842 0.44285 0.51627 0.0
C1025 C 0.45097 0.44406 0.5016 0.0
C1026 C 0.48924 0.46564 0.53599 0.0
C1027 C 0.47178 0.48976 0.54144 0.0
C1028 C 0.4432 0.49016 0.52804 0.0
C1029 C 0.43314 0.46724 0.50804 0.0
C1030 C 0.51997 0.46461 0.54972 0.0
C1031 C 0.42381 0.51526 0.53391 0.0
C1032 C 0.50222 0.53969 0.60546 0.0
C1033 C 0.5204 0.55983 0.58993 0.0
C1034 C 0.48442 0.51766 0.58986 0.0
C1035 C 0.48515 0.51591 0.55821 0.0
C1036 C 0.50181 0.5375 0.54246 0.0
C1037 C 0.51916 0.55928 0.55855 0.0
C1038 C 0.46638 0.49524 0.60724 0.0
C1039 C 0.50303 0.53642 0.50865 0.0
H1040 H 0.49189 0.42459 0.51142 0.0
H1041 H 0.41143 0.4675 0.49731 0.0
H1042 H 0.53477 0.48262 0.54097 0.0
H1043 H 0.51937 0.46803 0.57438 0.0
H1044 H 0.5298 0.44341 0.54469 0.0
H1045 H 0.40077 0.51022 0.52519 0.0
H1046 H 0.42316 0.5206 0.55828 0.0
H1047 H 0.4332 0.53518 0.52295 0.0
H1048 H 0.50289 0.54028 0.62975 0.0
H1049 H 0.53272 0.57521 0.54643 0.0
H1050 H 0.4774 0.47426 0.60687 0.0
H1051 H 0.44395 0.49074 0.59685 0.0
H1052 H 0.46405 0.50256 0.63098 0.0
H1053 H 0.51453 0.51687 0.50113 0.0
H1054 H 0.51498 0.55631 0.49986 0.0
H1055 H 0.48033 0.53425 0.49857 0.0
C1056 C 0.12176 0.05019 0.16859 0.0
C1057 C 0.12435 0.0801 0.17705 0.0
C1058 C 0.12144 0.02846 0.19014 0.0
C1059 C 0.12278 0.03685 0.22094 0.0
C1060 C 0.12525 0.06706 0.22964 0.0
C1061 C 0.1265 0.08835 0.20754 0.0
C1062 C 0.1197 0.99652 0.17991 0.0
C1063 C 0.12583 0.07686 0.26224 0.0
C1064 C 0.09224 0.97862 0.27326 0.0
C1065 C 0.11828 0.96815 0.28511 0.0
C1066 C 0.09337 0.00167 0.25313 0.0
C1067 C 0.12125 0.01389 0.24395 0.0
C1068 C 0.14762 0.00342 0.25598 0.0
C1069 C 0.14579 0.98109 0.2769 0.0
C1070 C 0.06473 0.01277 0.2415 0.0
C1071 C 0.17777 0.01535 0.24626 0.0
H1072 H 0.12032 0.04375 0.14501 0.0
H1073 H 0.12825 0.11148 0.21412 0.0
H1074 H 0.13835 0.98537 0.19003 0.0
H1075 H 0.09884 0.98525 0.18758 0.0
H1076 H 0.12044 0.99373 0.15515 0.0
H1077 H 0.12753 0.10117 0.26527 0.0
H1078 H 0.10536 0.06801 0.27303 0.0
H1079 H 0.14487 0.06801 0.27417 0.0
H1080 H 0.07095 0.96864 0.27969 0.0
H1081 H 0.16593 0.97356 0.28672 0.0
H1082 H 0.06227 0.00797 0.21705 0.0
H1083 H 0.06507 0.03696 0.245 0.0
H1084 H 0.04505 0.00254 0.25264 0.0
H1085 H 0.17957 0.01205 0.22167 0.0
H1086 H 0.1961 0.00456 0.25748 0.0
H1087 H 0.18068 0.03932 0.25129 0.0
C1088 C 0.21048 0.87865 0.42517 0.0
C1089 C 0.18522 0.89484 0.42617 0.0
C1090 C 0.23309 0.88294 0.44732 0.0
C1091 C 0.2305 0.90412 0.47084 0.0
C1092 C 0.20536 0.92092 0.47159 0.0
C1093 C 0.18301 0.91599 0.4494 0.0
C1094 C 0.25945 0.86439 0.44592 0.0
C1095 C 0.20185 0.94389 0.49611 0.0
C1096 C 0.27087 0.89521 0.54507 0.0
C1097 C 0.29581 0.91512 0.54307 0.0
C1098 C 0.24972 0.89124 0.52161 0.0
C1099 C 0.2533 0.90779 0.49551 0.0
C1100 C 0.27817 0.9282 0.49341 0.0
C1101 C 0.29922 0.93153 0.51715 0.0
C1102 C 0.22361 0.86914 0.5247 0.0
C1103 C 0.28253 0.9465 0.46608 0.0
H1104 H 0.21241 0.86229 0.40734 0.0
H1105 H 0.16375 0.92885 0.45029 0.0
H1106 H 0.28032 0.87867 0.44601 0.0
H1107 H 0.26025 0.85079 0.46604 0.0
H1108 H 0.25866 0.84961 0.42564 0.0
H1109 H 0.1817 0.95613 0.49263 0.0
H1110 H 0.20039 0.93329 0.51809 0.0
H1111 H 0.22153 0.95983 0.4973 0.0
H1112 H 0.26806 0.88223 0.56484 0.0
H1113 H 0.31839 0.94692 0.51535 0.0
H1114 H 0.22305 0.85254 0.50598 0.0
H1115 H 0.2026 0.8803 0.52337 0.0
H1116 H 0.22439 0.85757 0.54619 0.0
H1117 H 0.28385 0.93198 0.44585 0.0
H1118 H 0.30298 0.96145 0.46794 0.0
H1119 H 0.26322 0.95987 0.46269 0.0
C1120 C 0.38843 0.99739 0.67717 0.0
C1121 C 0.36518 0.97535 0.67684 0.0
C1122 C 0.39334 0.01716 0.70179 0.0
C1123 C 0.37441 0.01502 0.72658 0.0
C1124 C 0.35087 0.9929 0.72637 0.0
C1125 C 0.34658 0.97332 0.70155 0.0
C1126 C 0.41871 0.04043 0.70121 0.0
C1127 C 0.32998 0.99011 0.75222 0.0
C1128 C 0.39855 0.05233 0.80154 0.0
C1129 C 0.38375 0.07834 0.80061 0.0
C1130 C 0.39603 0.0316 0.77746 0.0
C1131 C 0.37815 0.03694 0.75201 0.0
C1132 C 0.36332 0.06318 0.75093 0.0
C1133 C 0.36637 0.08352 0.7751 0.0
C1134 C 0.41231 0.00391 0.77931 0.0
C1135 C 0.34389 0.06966 0.72432 0.0
H1136 H 0.40309 0.99901 0.65832 0.0
H1137 H 0.32849 0.95649 0.70149 0.0
H1138 H 0.41 0.06257 0.70211 0.0
H1139 H 0.43344 0.03892 0.7212 0.0
H1140 H 0.43213 0.03841 0.68079 0.0
H1141 H 0.31338 0.97111 0.74903 0.0
H1142 H 0.34267 0.98754 0.77339 0.0
H1143 H 0.31802 0.01043 0.75486 0.0
H1144 H 0.41203 0.04811 0.82109 0.0
H1145 H 0.35473 0.10346 0.77405 0.0
H1146 H 0.42707 0.00199 0.75992 0.0
H1147 H 0.3962 0.98443 0.77816 0.0
H1148 H 0.42586 0.00334 0.80029 0.0
H1149 H 0.35699 0.06968 0.70361 0.0
H1150 H 0.334 0.09119 0.7269 0.0
H1151 H 0.32566 0.05221 0.72122 0.0
C1152 C 0.2832 0.10273 0.95006 0.0
C1153 C 0.2966 0.13041 0.94398 0.0
C1154 C 0.2594 0.09992 0.96968 0.0
C1155 C 0.24836 0.1255 0.9828 0.0
C1156 C 0.26147 0.15354 0.97613 0.0
C1157 C 0.2857 0.15561 0.95708 0.0
C1158 C 0.24638 0.06965 0.97673 0.0
C1159 C 0.25006 0.18137 0.9893 0.0
C1160 C 0.17141 0.12319 0.0157 0.0
C1161 C 0.17834 0.12456 0.04645 0.0
C1162 C 0.19398 0.12284 0.99456 0.0
C1163 C 0.22396 0.12311 0.00454 0.0
C1164 C 0.23086 0.123 0.03557 0.0
C1165 C 0.20799 0.12412 0.05614 0.0
C1166 C 0.18585 0.12356 0.96166 0.0
C1167 C 0.26248 0.12256 0.0471 0.0
H1168 H 0.29138 0.08329 0.93945 0.0
H1169 H 0.29619 0.177 0.95236 0.0
H1170 H 0.24854 0.06623 1.00114 0.0
H1171 H 0.22237 0.06754 0.97078 0.0
H1172 H 0.25744 0.05201 0.96454 0.0
H1173 H 0.26149 0.20144 0.98033 0.0
H1174 H 0.2259 0.18177 0.9845 0.0
H1175 H 0.25327 0.18204 0.014 0.0
H1176 H 0.14849 0.1237 0.0082 0.0
H1177 H 0.21335 0.12486 0.07994 0.0
H1178 H 0.19584 0.10552 0.9491 0.0
H1179 H 0.19494 0.14454 0.95249 0.0
H1180 H 0.16146 0.12156 0.9575 0.0
H1181 H 0.27359 0.10443 0.03585 0.0
H1182 H 0.26381 0.1198 0.0717 0.0
H1183 H 0.27506 0.14341 0.04183 0.0
C1184 C 0.04938 0.24798 0.11682 0.0
C1185 C 0.04149 0.21792 0.11886 0.0
C1186 C 0.02829 0.26882 0.12081 0.0
C1187 C 0.99858 0.25927 0.12666 0.0
C1188 C 0.99051 0.2289 0.12878 0.0
C1189 C 0.01215 0.20858 0.12503 0.0
C1190 C 0.03774 0.30104 0.11855 0.0
C1191 C 0.95902 0.21789 0.13485 0.0
C1192 C 0.94858 0.31411 0.1611 0.0
C1193 C 0.93333 0.32292 0.13574 0.0
C1194 C 0.96992 0.2933 0.15853 0.0
C1195 C 0.9758 0.28102 0.12992 0.0
C1196 C 0.96007 0.2897 0.10431 0.0
C1197 C 0.93905 0.31069 0.10754 0.0
C1198 C 0.98642 0.28473 0.18629 0.0
C1199 C 0.96553 0.27692 0.07349 0.0
H1200 H 0.07202 0.25517 0.11179 0.0
H1201 H 0.00616 0.18538 0.12723 0.0
H1202 H 0.02549 0.31045 0.09977 0.0
H1203 H 0.03217 0.31318 0.13935 0.0
H1204 H 0.06191 0.30486 0.11487 0.0
H1205 H 0.95642 0.19356 0.13581 0.0
H1206 H 0.95191 0.22751 0.15642 0.0
H1207 H 0.94386 0.22502 0.11706 0.0
H1208 H 0.94409 0.32385 0.18284 0.0
H1209 H 0.92703 0.31761 0.08802 0.0
H1210 H 0.01057 0.29004 0.18393 0.0
H1211 H 0.98315 0.26067 0.18911 0.0
H1212 H 0.97906 0.29616 0.20685 0.0
H1213 H 0.98898 0.28195 0.06754 0.0
H1214 H 0.951 0.28562 0.05599 0.0
H1215 H 0.96165 0.25265 0.07333 0.0
C1216 C 0.54015 0.31976 0.89417 0.0
C1217 C 0.56454 0.31905 0.8753 0.0
C1218 C 0.51807 0.29656 0.8937 0.0
C1219 C 0.52029 0.27216 0.87373 0.0
C1220 C 0.5449 0.27121 0.85475 0.0
C1221 C 0.56678 0.2946 0.85583 0.0
C1222 C 0.49225 0.29827 0.91444 0.0
C1223 C 0.54793 0.24565 0.833 0.0
C1224 C 0.47526 0.20094 0.88887 0.0
C1225 C 0.45051 0.20271 0.86966 0.0
C1226 C 0.49819 0.22336 0.8904 0.0
C1227 C 0.49643 0.24801 0.87214 0.0
C1228 C 0.4717 0.24977 0.85248 0.0
C1229 C 0.44901 0.22718 0.85156 0.0
C1230 C 0.52414 0.22082 0.91178 0.0
C1231 C 0.46913 0.2756 0.83248 0.0
H1232 H 0.53827 0.33846 0.9094 0.0
H1233 H 0.58549 0.29385 0.84112 0.0
H1234 H 0.47124 0.29822 0.90114 0.0
H1235 H 0.49059 0.2787 0.92858 0.0
H1236 H 0.49428 0.31831 0.92929 0.0
H1237 H 0.56867 0.24801 0.82014 0.0
H1238 H 0.54769 0.22484 0.8452 0.0
H1239 H 0.52877 0.24373 0.81695 0.0
H1240 H 0.47659 0.18219 0.90301 0.0
H1241 H 0.43006 0.22872 0.83656 0.0
H1242 H 0.52571 0.23971 0.92811 0.0
H1243 H 0.54512 0.2216 0.89932 0.0
H1244 H 0.52226 0.20016 0.92433 0.0
H1245 H 0.4689 0.29619 0.84631 0.0
H1246 H 0.44874 0.27337 0.81804 0.0
H1247 H 0.48868 0.27787 0.81792 0.0
C1248 C 0.94559 0.72172 0.35365 0.0
C1249 C 0.94633 0.69859 0.37358 0.0
C1250 C 0.96876 0.74372 0.35321 0.0
C1251 C 0.99326 0.74275 0.37332 0.0
C1252 C 0.99449 0.7192 0.39311 0.0
C1253 C 0.97104 0.69733 0.39295 0.0
C1254 C 0.96674 0.76834 0.33158 0.0
C1255 C 0.02024 0.7175 0.41493 0.0
C1256 C 0.06283 0.78942 0.35466 0.0
C1257 C 0.05972 0.81504 0.37221 0.0
C1258 C 0.04175 0.7654 0.35534 0.0
C1259 C 0.01706 0.76696 0.37412 0.0
C1260 C 0.01421 0.7924 0.3925 0.0
C1261 C 0.03551 0.81615 0.39126 0.0
C1262 C 0.04547 0.7387 0.33532 0.0
C1263 C 0.98826 0.7948 0.41296 0.0
H1264 H 0.92671 0.72282 0.33847 0.0
H1265 H 0.97179 0.6796 0.40847 0.0
H1266 H 0.96603 0.7896 0.34419 0.0
H1267 H 0.98671 0.7699 0.31755 0.0
H1268 H 0.94676 0.76526 0.31661 0.0
H1269 H 0.01842 0.69718 0.428 0.0
H1270 H 0.04142 0.71826 0.4028 0.0
H1271 H 0.02131 0.73677 0.43077 0.0
H1272 H 0.08145 0.7883 0.33988 0.0
H1273 H 0.03299 0.83574 0.40504 0.0
H1274 H 0.02695 0.73604 0.31855 0.0
H1275 H 0.04459 0.71859 0.34869 0.0
H1276 H 0.06674 0.74027 0.32326 0.0
H1277 H 0.96735 0.79432 0.39944 0.0
H1278 H 0.99019 0.81534 0.42708 0.0
H1279 H 0.98648 0.77577 0.42783 0.0
C1280 C 0.51537 0.72634 0.64559 0.0
C1281 C 0.53134 0.71656 0.62121 0.0
C1282 C 0.49582 0.74867 0.64238 0.0
C1283 C 0.49233 0.76141 0.61411 0.0
C1284 C 0.50826 0.75128 0.58934 0.0
C1285 C 0.52763 0.72891 0.59323 0.0
C1286 C 0.47911 0.75882 0.66927 0.0
C1287 C 0.50516 0.76435 0.5589 0.0
C1288 C 0.42277 0.80161 0.60076 0.0
C1289 C 0.4332 0.83085 0.6067 0.0
C1290 C 0.44188 0.77878 0.60268 0.0
C1291 C 0.47213 0.78547 0.61056 0.0
C1292 C 0.48292 0.8151 0.61579 0.0
C1293 C 0.46326 0.83748 0.6138 0.0
C1294 C 0.42958 0.74747 0.59685 0.0
C1295 C 0.51507 0.82308 0.62415 0.0
H1296 H 0.51827 0.71655 0.66716 0.0
H1297 H 0.54033 0.72138 0.57451 0.0
H1298 H 0.48494 0.78251 0.67423 0.0
H1299 H 0.45489 0.75626 0.6644 0.0
H1300 H 0.48406 0.74638 0.68955 0.0
H1301 H 0.51872 0.75361 0.54185 0.0
H1302 H 0.4816 0.76223 0.55117 0.0
H1303 H 0.5121 0.78815 0.56035 0.0
H1304 H 0.39953 0.79661 0.59492 0.0
H1305 H 0.47122 0.86012 0.61859 0.0
H1306 H 0.43225 0.73468 0.61733 0.0
H1307 H 0.44214 0.73688 0.57892 0.0
H1308 H 0.40572 0.74609 0.59011 0.0
H1309 H 0.52065 0.81328 0.6458 0.0
H1310 H 0.52015 0.84722 0.62626 0.0
H1311 H 0.52963 0.81392 0.60706 0.0
C1312 C 0.87067 0.01474 0.71072 0.0
C1313 C 0.87349 0.0449 0.71795 0.0
C1314 C 0.87283 0.99387 0.73295 0.0
C1315 C 0.87638 0.00335 0.76338 0.0
C1316 C 0.87795 0.0338 0.77096 0.0
C1317 C 0.877 0.05423 0.74809 0.0
C1318 C 0.87167 0.96168 0.72377 0.0
C1319 C 0.88057 0.04479 0.80318 0.0
C1320 C 0.85358 0.94499 0.81885 0.0
C1321 C 0.8811 0.93628 0.82885 0.0
C1322 C 0.85176 0.96778 0.79864 0.0
C1323 C 0.87811 0.98127 0.78717 0.0
C1324 C 0.90602 0.97257 0.79738 0.0
C1325 C 0.90717 0.95052 0.8186 0.0
C1326 C 0.82162 0.97713 0.78929 0.0
C1327 C 0.93458 0.98566 0.78495 0.0
H1328 H 0.86705 0.00743 0.68754 0.0
H1329 H 0.87919 0.07755 0.75377 0.0
H1330 H 0.89152 0.95161 0.73283 0.0
H1331 H 0.85192 0.94995 0.73328 0.0
H1332 H 0.87071 0.95808 0.69905 0.0
H1333 H 0.87982 0.06903 0.80539 0.0
H1334 H 0.8623 0.03437 0.81623 0.0
H1335 H 0.90171 0.03855 0.81339 0.0
H1336 H 0.83344 0.934 0.82699 0.0
H1337 H 0.92842 0.94352 0.82623 0.0
H1338 H 0.81712 0.97121 0.76529 0.0
H1339 H 0.82104 0.00134 0.79191 0.0
H1340 H 0.80356 0.9666 0.80257 0.0
H1341 H 0.93485 0.981 0.76042 0.0
H1342 H 0.95443 0.97677 0.79547 0.0
H1343 H 0.93618 0.00987 0.78843 0.0
C1344 C 0.78848 0.13075 0.56225 0.0
C1345 C 0.81404 0.11491 0.562 0.0
C1346 C 0.76826 0.12898 0.53782 0.0
C1347 C 0.77352 0.11075 0.51252 0.0
C1348 C 0.79926 0.09473 0.51206 0.0
C1349 C 0.81923 0.09707 0.53672 0.0
C1350 C 0.74116 0.14653 0.53915 0.0
C1351 C 0.80557 0.07487 0.48564 0.0
C1352 C 0.70628 0.08448 0.46385 0.0
C1353 C 0.70846 0.10356 0.4398 0.0
C1354 C 0.72755 0.08628 0.48731 0.0
C1355 C 0.75159 0.10781 0.48696 0.0
C1356 C 0.7542 0.12691 0.46261 0.0
C1357 C 0.73268 0.12449 0.43927 0.0
C1358 C 0.72406 0.06533 0.51272 0.0
C1359 C 0.77943 0.15026 0.46148 0.0
H1360 H 0.78426 0.14471 0.58154 0.0
H1361 H 0.83884 0.0847 0.53623 0.0
H1362 H 0.74045 0.16102 0.5197 0.0
H1363 H 0.7208 0.13149 0.53777 0.0
H1364 H 0.74071 0.16031 0.56005 0.0
H1365 H 0.82681 0.06429 0.48852 0.0
H1366 H 0.78734 0.05743 0.48242 0.0
H1367 H 0.80648 0.08759 0.46488 0.0
H1368 H 0.68777 0.06813 0.46449 0.0
H1369 H 0.73457 0.13939 0.42087 0.0
H1370 H 0.72124 0.07782 0.53404 0.0
H1371 H 0.74433 0.05318 0.51535 0.0
H1372 H 0.70469 0.04917 0.50913 0.0
H1373 H 0.77856 0.16579 0.481 0.0
H1374 H 0.77873 0.16289 0.44065 0.0
H1375 H 0.80098 0.1401 0.46297 0.0
C1376 C 0.65797 0.03684 0.29057 0.0
C1377 C 0.63975 0.03264 0.31535 0.0
C1378 C 0.65641 0.01663 0.26615 0.0
C1379 C 0.63596 0.99174 0.26635 0.0
C1380 C 0.61782 0.98711 0.29146 0.0
C1381 C 0.62004 0.00753 0.3157 0.0
C1382 C 0.67636 0.02214 0.23993 0.0
C1383 C 0.59561 0.96092 0.29243 0.0
C1384 C 0.60987 0.95544 0.19178 0.0
C1385 C 0.6263 0.93045 0.19067 0.0
C1386 C 0.61288 0.9756 0.21623 0.0
C1387 C 0.63302 0.97085 0.24002 0.0
C1388 C 0.65002 0.94595 0.23883 0.0
C1389 C 0.64637 0.926 0.21426 0.0
C1390 C 0.59421 0.0018 0.21679 0.0
C1391 C 0.67195 0.94028 0.2636 0.0
H1392 H 0.67334 0.05611 0.2901 0.0
H1393 H 0.60578 0.00412 0.33466 0.0
H1394 H 0.68946 0.00284 0.23553 0.0
H1395 H 0.66275 0.02518 0.21946 0.0
H1396 H 0.69191 0.04188 0.24377 0.0
H1397 H 0.58356 0.96018 0.31384 0.0
H1398 H 0.57916 0.9616 0.27371 0.0
H1399 H 0.60695 0.94028 0.28943 0.0
H1400 H 0.59426 0.95906 0.17374 0.0
H1401 H 0.65931 0.90688 0.21357 0.0
H1402 H 0.60869 0.02243 0.21864 0.0
H1403 H 0.58001 0.00125 0.23675 0.0
H1404 H 0.57975 0.00247 0.19643 0.0
H1405 H 0.68838 0.95938 0.26679 0.0
H1406 H 0.68402 0.9203 0.25891 0.0
H1407 H 0.66025 0.93759 0.28502 0.0
C1408 C 0.68349 0.86445 0.00571 0.0
C1409 C 0.69181 0.86736 0.0361 0.0
C1410 C 0.70498 0.8639 0.98348 0.0
C1411 C 0.73541 0.86522 0.992 0.0
C1412 C 0.74387 0.86805 0.0227 0.0
C1413 C 0.72197 0.8698 0.0443 0.0
C1414 C 0.69515 0.862 0.95093 0.0
C1415 C 0.77603 0.86889 0.03281 0.0
C1416 C 0.79121 0.83582 0.93822 0.0
C1417 C 0.80614 0.86188 0.92939 0.0
C1418 C 0.76784 0.83653 0.95841 0.0
C1419 C 0.75859 0.86398 0.96896 0.0
C1420 C 0.77277 0.89035 0.95884 0.0
C1421 C 0.79681 0.88896 0.93966 0.0
C1422 C 0.75395 0.80797 0.96948 0.0
C1423 C 0.7629 0.92003 0.96867 0.0
H1424 H 0.66015 0.86245 0.99934 0.0
H1425 H 0.72846 0.87276 0.06776 0.0
H1426 H 0.70616 0.88042 0.93878 0.0
H1427 H 0.7019 0.84131 0.94028 0.0
H1428 H 0.67075 0.86274 0.94804 0.0
H1429 H 0.7787 0.86932 0.0576 0.0
H1430 H 0.78647 0.84939 0.02348 0.0
H1431 H 0.78831 0.88864 0.02424 0.0
H1432 H 0.79868 0.81492 0.93037 0.0
H1433 H 0.80831 0.9091 0.93254 0.0
H1434 H 0.72963 0.8066 0.96528 0.0
H1435 H 0.75771 0.80708 0.99406 0.0
H1436 H 0.76321 0.78851 0.95858 0.0
H1437 H 0.73856 0.92063 0.96531 0.0
H1438 H 0.77409 0.93818 0.95624 0.0
H1439 H 0.7679 0.92403 0.99292 0.0
C1440 C 0.08267 0.71549 0.87585 0.0
C1441 C 0.073 0.68566 0.87371 0.0
C1442 C 0.06226 0.73736 0.87561 0.0
C1443 C 0.03149 0.7291 0.87363 0.0
C1444 C 0.02168 0.69897 0.87105 0.0
C1445 C 0.04259 0.67765 0.87081 0.0
C1446 C 0.07359 0.76925 0.87796 0.0
C1447 C 0.98906 0.68924 0.8691 0.0
C1448 C 0.9768 0.78154 0.90402 0.0
C1449 C 0.96501 0.79222 0.87762 0.0
C1450 C 0.99877 0.76126 0.90307 0.0
C1451 C 0.00941 0.75182 0.87502 0.0
C1452 C 0.99809 0.76322 0.84831 0.0
C1453 C 0.97584 0.78319 0.84994 0.0
C1454 C 0.01001 0.74934 0.93201 0.0
C1455 C 0.0092 0.75407 0.81804 0.0
H1456 H 0.10618 0.72172 0.8783 0.0
H1457 H 0.03511 0.65459 0.86858 0.0
H1458 H 0.06432 0.78143 0.85922 0.0
H1459 H 0.0661 0.77944 0.89909 0.0
H1460 H 0.09818 0.77203 0.87756 0.0
H1461 H 0.98513 0.66496 0.86709 0.0
H1462 H 0.97787 0.6972 0.88936 0.0
H1463 H 0.97849 0.69898 0.84948 0.0
H1464 H 0.96822 0.78844 0.92539 0.0
H1465 H 0.96691 0.7918 0.82956 0.0
H1466 H 0.03446 0.75328 0.934 0.0
H1467 H 0.00486 0.72522 0.93208 0.0
H1468 H 0.99999 0.75949 0.95196 0.0
H1469 H 0.03369 0.75794 0.81758 0.0
H1470 H 0.99925 0.76616 0.79957 0.0
H1471 H 0.00387 0.7302 0.8138 0.0
C1472 C 0.42512 0.72428 0.1489 0.0
C1473 C 0.42923 0.69908 0.13108 0.0
C1474 C 0.44517 0.74915 0.14816 0.0
C1475 C 0.46971 0.74881 0.12903 0.0
C1476 C 0.47334 0.72387 0.11022 0.0
C1477 C 0.45314 0.6993 0.11154 0.0
C1478 C 0.44069 0.77534 0.16862 0.0
C1479 C 0.49915 0.72271 0.08937 0.0
C1480 C 0.51571 0.81825 0.10996 0.0
C1481 C 0.54094 0.81622 0.12841 0.0
C1482 C 0.49174 0.79699 0.1106 0.0
C1483 C 0.49306 0.77337 0.13029 0.0
C1484 C 0.51793 0.77193 0.14981 0.0
C1485 C 0.54157 0.79329 0.14857 0.0
C1486 C 0.46559 0.79915 0.08941 0.0
C1487 C 0.52009 0.7472 0.17129 0.0
H1488 H 0.40668 0.72432 0.16401 0.0
H1489 H 0.45636 0.68006 0.09746 0.0
H1490 H 0.45888 0.77784 0.18577 0.0
H1491 H 0.44157 0.79576 0.15575 0.0
H1492 H 0.4192 0.77316 0.18024 0.0
H1493 H 0.49758 0.70256 0.07467 0.0
H1494 H 0.50032 0.74217 0.07507 0.0
H1495 H 0.52022 0.72329 0.10266 0.0
H1496 H 0.51504 0.83591 0.09435 0.0
H1497 H 0.56083 0.7917 0.16315 0.0
H1498 H 0.44455 0.79718 0.10175 0.0
H1499 H 0.46485 0.78073 0.07255 0.0
H1500 H 0.46674 0.82016 0.07745 0.0
H1501 H 0.5 0.74516 0.18511 0.0
H1502 H 0.53991 0.75046 0.18647 0.0
H1503 H 0.5213 0.7261 0.15851 0.0
C1504 C 0.95313 0.19427 0.61099 0.0
C1505 C 0.92912 0.19423 0.6304 0.0
C1506 C 0.97403 0.21836 0.61047 0.0
C1507 C 0.97106 0.24291 0.63002 0.0
C1508 C 0.94667 0.24325 0.64936 0.0
C1509 C 0.92589 0.21893 0.64922 0.0
C1510 C 0.99961 0.21731 0.58932 0.0
C1511 C 0.94296 0.26897 0.6707 0.0
C1512 C 0.04245 0.28852 0.64941 0.0
C1513 C 0.04058 0.31222 0.63035 0.0
C1514 C 0.01956 0.26627 0.65011 0.0
C1515 C 0.99429 0.26757 0.63109 0.0
C1516 C 0.99197 0.29166 0.61219 0.0
C1517 C 0.0151 0.31381 0.61215 0.0
C1518 C 0.02271 0.24104 0.67079 0.0
C1519 C 0.96543 0.29362 0.59142 0.0
H1520 H 0.9557 0.17538 0.59621 0.0
H1521 H 0.90743 0.21906 0.66431 0.0
H1522 H 1.00057 0.23686 0.57515 0.0
H1523 H 0.02083 0.21786 0.60233 0.0
H1524 H 0.99788 0.19724 0.57449 0.0
H1525 H 0.92214 0.26634 0.68341 0.0
H1526 H 0.96198 0.27143 0.68689 0.0
H1527 H 0.94288 0.28961 0.65824 0.0
H1528 H 0.06195 0.28722 0.66373 0.0
H1529 H 0.0135 0.33201 0.59732 0.0
H1530 H 0.02367 0.22025 0.65742 0.0
H1531 H 0.00311 0.2385 0.68525 0.0
H1532 H 0.04299 0.24414 0.68534 0.0
H1533 H 0.96423 0.27494 0.57485 0.0
H1534 H 0.96638 0.31444 0.57913 0.0
H1535 H 0.94468 0.29196 0.60425 0.0
C1536 C 0.44869 0.2604 0.3589 0.0
C1537 C 0.44965 0.28167 0.38233 0.0
C1538 C 0.46769 0.23732 0.35888 0.0
C1539 C 0.49031 0.23695 0.38135 0.0
C1540 C 0.49218 0.25907 0.40443 0.0
C1541 C 0.47097 0.2801 0.40539 0.0
C1542 C 0.46314 0.2137 0.33447 0.0
C1543 C 0.51645 0.26111 0.42834 0.0
C1544 C 0.53448 0.17212 0.40232 0.0
C1545 C 0.55599 0.1722 0.38014 0.0
C1546 C 0.51192 0.19179 0.40192 0.0
C1547 C 0.51235 0.21404 0.38041 0.0
C1548 C 0.53452 0.21473 0.35841 0.0
C1549 C 0.55494 0.19295 0.3577 0.0
C1550 C 0.48803 0.18842 0.42493 0.0
C1551 C 0.53731 0.23837 0.33551 0.0
H1552 H 0.43317 0.26158 0.34032 0.0
H1553 H 0.47142 0.29538 0.42438 0.0
H1554 H 0.47262 0.22205 0.31343 0.0
H1555 H 0.47343 0.19312 0.34005 0.0
H1556 H 0.43907 0.2084 0.32996 0.0
H1557 H 0.52239 0.28439 0.43529 0.0
H1558 H 0.50828 0.24973 0.44845 0.0
H1559 H 0.53686 0.25116 0.42086 0.0
H1560 H 0.53516 0.15685 0.4203 0.0
H1561 H 0.57034 0.1926 0.33953 0.0
H1562 H 0.46767 0.19925 0.41866 0.0
H1563 H 0.49679 0.19786 0.44679 0.0
H1564 H 0.48188 0.16477 0.42823 0.0
H1565 H 0.52546 0.23034 0.31454 0.0
H1566 H 0.56092 0.24333 0.32991 0.0
H1567 H 0.52806 0.25911 0.34327 0.0
C1568 C 0.65863 0.48664 0.79109 0.0
C1569 C 0.6318 0.47333 0.80073 0.0
C1570 C 0.65899 0.50939 0.77056 0.0
C1571 C 0.63187 0.51976 0.76029 0.0
C1572 C 0.60474 0.50714 0.77094 0.0
C1573 C 0.60505 0.48384 0.79073 0.0
C1574 C 0.68835 0.52185 0.75935 0.0
C1575 C 0.57535 0.51793 0.7611 0.0
C1576 C 0.63194 0.59412 0.72352 0.0
C1577 C 0.62774 0.58561 0.69322 0.0
C1578 C 0.6335 0.57297 0.74568 0.0
C1579 C 0.63165 0.54269 0.7372 0.0
C1580 C 0.6285 0.53412 0.70651 0.0
C1581 C 0.62618 0.55562 0.68499 0.0
C1582 C 0.63614 0.58296 0.77821 0.0
C1583 C 0.62719 0.50216 0.69639 0.0
H1584 H 0.67937 0.47923 0.79959 0.0
H1585 H 0.58427 0.47364 0.79826 0.0
H1586 H 0.68902 0.5184 0.73468 0.0
H1587 H 0.69095 0.54588 0.76413 0.0
H1588 H 0.70746 0.51153 0.76971 0.0
H1589 H 0.55649 0.50745 0.77332 0.0
H1590 H 0.57556 0.5421 0.76475 0.0
H1591 H 0.57154 0.51317 0.73677 0.0
H1592 H 0.63299 0.61726 0.72999 0.0
H1593 H 0.62324 0.54892 0.66155 0.0
H1594 H 0.65574 0.574 0.78902 0.0
H1595 H 0.61631 0.57435 0.79023 0.0
H1596 H 0.63815 0.60728 0.78107 0.0
H1597 H 0.64665 0.49155 0.70556 0.0
H1598 H 0.62676 0.49928 0.6716 0.0
H1599 H 0.60704 0.49042 0.70511 0.0
C1600 C 0.68678 0.40188 0.96728 0.0
C1601 C 0.69064 0.38425 0.94149 0.0
C1602 C 0.70736 0.4033 0.99129 0.0
C1603 C 0.73248 0.38651 0.98979 0.0
C1604 C 0.73653 0.3685 0.96397 0.0
C1605 C 0.71563 0.36767 0.94005 0.0
C1606 C 0.70227 0.42298 0.01825 0.0
C1607 C 0.76294 0.35011 0.96164 0.0
C1608 C 0.79807 0.41255 0.04092 0.0
C1609 C 0.794 0.39439 0.06552 0.0
C1610 C 0.7786 0.40981 0.0159 0.0
C1611 C 0.75452 0.38824 0.01525 0.0
C1612 C 0.75051 0.36954 0.03977 0.0
C1613 C 0.77019 0.37292 0.06464 0.0
C1614 C 0.78348 0.4304 0.99038 0.0
C1615 C 0.72522 0.34617 0.03989 0.0
H1616 H 0.66766 0.4149 0.96871 0.0
H1617 H 0.71881 0.35392 0.92031 0.0
H1618 H 0.70087 0.40984 0.0387 0.0
H1619 H 0.72126 0.43956 0.02166 0.0
H1620 H 0.68161 0.43466 0.01591 0.0
H1621 H 0.76268 0.33692 0.9403 0.0
H1622 H 0.78375 0.36448 0.96323 0.0
H1623 H 0.76335 0.33498 0.98059 0.0
H1624 H 0.81637 0.4292 0.04129 0.0
H1625 H 0.76696 0.35859 0.08336 0.0
H1626 H 0.76425 0.44407 0.98803 0.0
H1627 H 0.78511 0.41767 0.96899 0.0
H1628 H 0.80391 0.44519 0.99376 0.0
H1629 H 0.70376 0.3566 0.03952 0.0
H1630 H 0.7261 0.33235 0.05988 0.0
H1631 H 0.7256 0.33174 0.01947 0.0
C1632 C 0.86695 0.4883 0.19859 0.0
C1633 C 0.84773 0.46299 0.20078 0.0
C1634 C 0.8701 0.50958 0.22192 0.0
C1635 C 0.85339 0.50572 0.24808 0.0
C1636 C 0.83344 0.4806 0.25028 0.0
C1637 C 0.83094 0.45943 0.22664 0.0
C1638 C 0.8917 0.536 0.21874 0.0
C1639 C 0.81496 0.47598 0.2777 0.0
C1640 C 0.88309 0.54851 0.31802 0.0
C1641 C 0.86656 0.5734 0.31747 0.0
C1642 C 0.8786 0.52596 0.29592 0.0
C1643 C 0.85685 0.52823 0.27296 0.0
C1644 C 0.83962 0.55294 0.27272 0.0
C1645 C 0.84479 0.57527 0.29484 0.0
C1646 C 0.89763 0.50006 0.29672 0.0
C1647 C 0.81603 0.55604 0.24879 0.0
H1648 H 0.88014 0.4913 0.17879 0.0
H1649 H 0.81604 0.43998 0.22856 0.0
H1650 H 0.87991 0.55648 0.22063 0.0
H1651 H 0.90869 0.53689 0.2371 0.0
H1652 H 0.90316 0.53563 0.19699 0.0
H1653 H 0.79995 0.45568 0.27562 0.0
H1654 H 0.82965 0.47454 0.29773 0.0
H1655 H 0.8014 0.49503 0.28164 0.0
H1656 H 0.89991 0.54685 0.33543 0.0
H1657 H 0.83163 0.59424 0.29439 0.0
H1658 H 0.91127 0.49947 0.27638 0.0
H1659 H 0.88345 0.47924 0.29659 0.0
H1660 H 0.91267 0.50096 0.31677 0.0
H1661 H 0.82643 0.55785 0.2266 0.0
H1662 H 0.80327 0.57568 0.25288 0.0
H1663 H 0.80034 0.53624 0.24762 0.0
C1664 C 0.68877 0.66371 0.55369 0.0
C1665 C 0.67313 0.63738 0.56075 0.0
C1666 C 0.7111 0.66408 0.53241 0.0
C1667 C 0.71866 0.63731 0.51874 0.0
C1668 C 0.70294 0.6106 0.52586 0.0
C1669 C 0.67992 0.61103 0.54646 0.0
C1670 C 0.72667 0.69311 0.52468 0.0
C1671 C 0.71105 0.58154 0.51245 0.0
C1672 C 0.76169 0.63997 0.44676 0.0
C1673 C 0.79103 0.64014 0.45759 0.0
C1674 C 0.73788 0.63921 0.4664 0.0
C1675 C 0.74351 0.63733 0.49753 0.0
C1676 C 0.77303 0.63651 0.50853 0.0
C1677 C 0.79647 0.63849 0.48847 0.0
C1678 C 0.70677 0.64091 0.45388 0.0
C1679 C 0.77989 0.63376 0.54152 0.0
H1680 H 0.6833 0.68411 0.56465 0.0
H1681 H 0.66795 0.59065 0.5522 0.0
H1682 H 0.75042 0.69358 0.53155 0.0
H1683 H 0.72569 0.69584 0.50009 0.0
H1684 H 0.71675 0.71208 0.53582 0.0
H1685 H 0.6966 0.56278 0.5203 0.0
H1686 H 0.70935 0.58172 0.48767 0.0
H1687 H 0.73443 0.57792 0.5185 0.0
H1688 H 0.75725 0.64039 0.42287 0.0
H1689 H 0.81911 0.63899 0.49702 0.0
H1690 H 0.69658 0.66012 0.46418 0.0
H1691 H 0.69279 0.62103 0.45955 0.0
H1692 H 0.70625 0.64294 0.42916 0.0
H1693 H 0.77368 0.65368 0.55406 0.0
H1694 H 0.80377 0.63094 0.54609 0.0
H1695 H 0.76663 0.61472 0.55036 0.0
C1696 C 0.38125 0.51732 0.21283 0.0
C1697 C 0.38103 0.54717 0.22117 0.0
C1698 C 0.38265 0.49576 0.23445 0.0
C1699 C 0.38239 0.50407 0.26525 0.0
C1700 C 0.38135 0.53412 0.27383 0.0
C1701 C 0.38123 0.55535 0.25168 0.0
C1702 C 0.38444 0.46408 0.2243 0.0
C1703 C 0.37997 0.54381 0.30635 0.0
C1704 C 0.35551 0.44326 0.31634 0.0
C1705 C 0.38208 0.43561 0.32974 0.0
C1706 C 0.35521 0.46624 0.2962 0.0
C1707 C 0.3823 0.48115 0.28833 0.0
C1708 C 0.40926 0.4734 0.30176 0.0
C1709 C 0.40876 0.45108 0.32281 0.0
C1710 C 0.32588 0.47448 0.28329 0.0
C1711 C 0.43868 0.48804 0.29319 0.0
H1712 H 0.38031 0.51077 0.18929 0.0
H1713 H 0.38129 0.5784 0.25827 0.0
H1714 H 0.40358 0.45467 0.23557 0.0
H1715 H 0.36414 0.45095 0.23068 0.0
H1716 H 0.38686 0.46159 0.19967 0.0
H1717 H 0.37823 0.56789 0.30923 0.0
H1718 H 0.36055 0.53232 0.31677 0.0
H1719 H 0.40006 0.53776 0.31873 0.0
H1720 H 0.33483 0.43147 0.32196 0.0
H1721 H 0.42931 0.44501 0.33307 0.0
H1722 H 0.32483 0.46965 0.2588 0.0
H1723 H 0.32371 0.49842 0.28673 0.0
H1724 H 0.30671 0.46239 0.29357 0.0
H1725 H 0.44193 0.48446 0.26883 0.0
H1726 H 0.45762 0.47949 0.30564 0.0
H1727 H 0.43895 0.5121 0.29758 0.0
C1728 C 0.20882 0.58456 0.96858 0.0
C1729 C 0.21249 0.60291 0.9441 0.0
C1730 C 0.22972 0.58581 0.99237 0.0
C1731 C 0.25479 0.60614 0.9919 0.0
C1732 C 0.25885 0.62447 0.9671 0.0
C1733 C 0.23776 0.62252 0.94342 0.0
C1734 C 0.22475 0.56565 0.01823 0.0
C1735 C 0.28516 0.6466 0.96588 0.0
C1736 C 0.29178 0.6304 0.06668 0.0
C1737 C 0.31692 0.61396 0.06704 0.0
C1738 C 0.27153 0.62817 0.04231 0.0
C1739 C 0.27628 0.6088 0.01777 0.0
C1740 C 0.30141 0.59192 0.01809 0.0
C1741 C 0.3215 0.59481 0.04262 0.0
C1742 C 0.24512 0.64673 0.04273 0.0
C1743 C 0.30706 0.57077 0.99252 0.0
H1744 H 0.18948 0.5692 0.96926 0.0
H1745 H 0.24075 0.63687 0.92468 0.0
H1746 H 0.24436 0.5527 0.02169 0.0
H1747 H 0.22201 0.57882 0.03915 0.0
H1748 H 0.20482 0.55021 0.01459 0.0
H1749 H 0.28546 0.65878 0.94473 0.0
H1750 H 0.28474 0.66267 0.98499 0.0
H1751 H 0.30609 0.63542 0.96802 0.0
H1752 H 0.28807 0.64536 0.08532 0.0
H1753 H 0.34075 0.58194 0.04266 0.0
H1754 H 0.22427 0.63241 0.04121 0.0
H1755 H 0.24537 0.66089 0.02297 0.0
H1756 H 0.24478 0.66096 0.06333 0.0
H1757 H 0.28794 0.5543 0.98937 0.0
H1758 H 0.32746 0.55901 0.99632 0.0
H1759 H 0.30927 0.58277 0.97138 0.0
C1760 C 0.11876 0.5123 0.82013 0.0
C1761 C 0.1412 0.53498 0.8185 0.0
C1762 C 0.1141 0.49087 0.79696 0.0
C1763 C 0.13244 0.49203 0.77167 0.0
C1764 C 0.15552 0.51446 0.77018 0.0
C1765 C 0.15957 0.53569 0.79355 0.0
C1766 C 0.08922 0.46729 0.79928 0.0
C1767 C 0.17572 0.51628 0.7437 0.0
C1768 C 0.13798 0.42342 0.72246 0.0
C1769 C 0.11957 0.42898 0.69785 0.0
C1770 C 0.14212 0.4436 0.74675 0.0
C1771 C 0.1274 0.46996 0.74657 0.0
C1772 C 0.10849 0.47558 0.72204 0.0
C1773 C 0.10485 0.45507 0.69793 0.0
C1774 C 0.16258 0.43688 0.77244 0.0
C1775 C 0.09232 0.50342 0.72113 0.0
H1776 H 0.10439 0.51161 0.83924 0.0
H1777 H 0.17703 0.55305 0.79209 0.0
H1778 H 0.07306 0.46876 0.78044 0.0
H1779 H 0.09807 0.44524 0.79749 0.0
H1780 H 0.07731 0.46912 0.82068 0.0
H1781 H 0.19307 0.53468 0.74632 0.0
H1782 H 0.18674 0.49544 0.74066 0.0
H1783 H 0.16252 0.51931 0.72295 0.0
H1784 H 0.14946 0.40336 0.72271 0.0
H1785 H 0.09053 0.45956 0.6791 0.0
H1786 H 0.15052 0.43727 0.79379 0.0
H1787 H 0.18121 0.454 0.77459 0.0
H1788 H 0.1719 0.4151 0.76943 0.0
H1789 H 0.07859 0.50548 0.74128 0.0
H1790 H 0.07773 0.50409 0.70087 0.0
H1791 H 0.10856 0.52279 0.72145 0.0
C1792 C 0.31094 0.38003 0.46832 0.0
C1793 C 0.30553 0.37194 0.43806 0.0
C1794 C 0.28746 0.38197 0.48817 0.0
C1795 C 0.25789 0.37621 0.47736 0.0
C1796 C 0.25226 0.36899 0.44665 0.0
C1797 C 0.27616 0.36666 0.42742 0.0
C1798 C 0.29434 0.38928 0.52089 0.0
C1799 C 0.22101 0.36322 0.4342 0.0
C1800 C 0.20067 0.34904 0.53259 0.0
C1801 C 0.18745 0.37492 0.54064 0.0
C1802 C 0.22357 0.3492 0.51198 0.0
C1803 C 0.23299 0.3758 0.49854 0.0
C1804 C 0.21897 0.40185 0.50574 0.0
C1805 C 0.19646 0.40115 0.52697 0.0
C1806 C 0.2381 0.321 0.50509 0.0
C1807 C 0.22811 0.4305 0.49146 0.0
H1808 H 0.33359 0.38411 0.47667 0.0
H1809 H 0.27182 0.36076 0.40397 0.0
H1810 H 0.28233 0.40848 0.52839 0.0
H1811 H 0.28658 0.3705 0.53456 0.0
H1812 H 0.31844 0.39424 0.52549 0.0
H1813 H 0.22034 0.36009 0.40943 0.0
H1814 H 0.21048 0.34321 0.44409 0.0
H1815 H 0.20746 0.38176 0.44037 0.0
H1816 H 0.19333 0.32865 0.54278 0.0
H1817 H 0.18644 0.42123 0.53341 0.0
H1818 H 0.26214 0.32391 0.51088 0.0
H1819 H 0.236 0.31536 0.48078 0.0
H1820 H 0.22821 0.30225 0.51762 0.0
H1821 H 0.25137 0.43751 0.4981 0.0
H1822 H 0.21374 0.4483 0.49805 0.0
H1823 H 0.22722 0.42761 0.46669 0.0
loop_
_geom_bond_atom_site_label_1
_geom_bond_atom_site_label_2
_geom_bond_distance
_geom_bond_site_symmetry_2
_ccdc_geom_bond_type
Co0 O3 1.970 . S
Co0 N17 1.989 . S
Co0 O25 1.967 . S
Co0 O32 1.920 . S
Co1 O4 1.966 . S
Co1 N10 2.022 . S
Co1 N18 1.993 . S
Co1 O26 1.941 . S
C2 O3 1.258 . S
C2 O4 1.263 . S
O3 Co0 1.970 . S
O3 C2 1.258 . S
O4 Co1 1.966 . S
O4 C2 1.263 . S
C5 O6 1.235 . S
C5 O32 1.289 . S
O6 C5 1.235 . S
C7 C9 1.400 . S
C7 N10 1.351 . S
C7 C12 1.501 . S
C8 C9 1.387 . S
C8 N11 1.341 . S
C9 C7 1.400 . S
C9 C8 1.387 . S
N10 Co1 2.022 . S
N10 C7 1.351 . S
N10 N11 1.365 . S
N11 C8 1.341 . S
N11 N10 1.365 . S
N11 H31 0.862 . S
C12 C7 1.501 . S
C12 H13 0.961 . S
C12 H14 0.961 . S
C12 H15 0.960 . S
H13 C12 0.961 . S
H14 C12 0.961 . S
H15 C12 0.960 . S
C16 N17 1.342 . S
C16 C20 1.401 . S
C16 C21 1.499 . S
N17 Co0 1.989 . S
N17 C16 1.342 . S
N17 N18 1.388 . S
N18 Co1 1.993 . S
N18 N17 1.388 . S
N18 C19 1.346 . S
C19 N18 1.346 . S
C19 C20 1.396 . S
C19 C29 1.510 . S
C20 C16 1.401 . S
C20 C19 1.396 . S
C21 C16 1.499 . S
C21 H22 0.959 . S
C21 H23 0.960 . S
C21 H24 0.961 . S
H22 C21 0.959 . S
H23 C21 0.960 . S
H24 C21 0.961 . S
O25 Co0 1.967 . S
O25 C33 1.258 . S
O26 Co1 1.941 . S
O26 C33 1.266 . S
H27 C29 0.959 . S
H28 C29 0.961 . S
C29 C19 1.510 . S
C29 H27 0.959 . S
C29 H28 0.961 . S
C29 H30 0.960 . S
H30 C29 0.960 . S
H31 N11 0.862 . S
O32 Co0 1.920 . S
O32 C5 1.289 . S
C33 O25 1.258 . S
C33 O26 1.266 . S
Co34 O37 1.970 . S
Co34 N51 1.989 . S
Co34 O59 1.967 . S
Co34 O66 1.920 . S
Co35 O38 1.966 . S
Co35 N44 2.022 . S
Co35 N52 1.993 . S
Co35 O60 1.941 . S
C36 O37 1.258 . S
C36 O38 1.263 . S
O37 Co34 1.970 . S
O37 C36 1.258 . S
O38 Co35 1.966 . S
O38 C36 1.263 . S
C39 O40 1.235 . S
C39 O66 1.289 . S
O40 C39 1.235 . S
C41 C43 1.400 . S
C41 N44 1.351 . S
C41 C46 1.501 . S
C42 C43 1.387 . S
C42 N45 1.341 . S
C43 C41 1.400 . S
C43 C42 1.387 . S
N44 Co35 2.022 . S
N44 C41 1.351 . S
N44 N45 1.365 . S
N45 C42 1.341 . S
N45 N44 1.365 . S
N45 H65 0.862 . S
C46 C41 1.501 . S
C46 H47 0.961 . S
C46 H48 0.961 . S
C46 H49 0.960 . S
H47 C46 0.961 . S
H48 C46 0.961 . S
H49 C46 0.960 . S
C50 N51 1.342 . S
C50 C54 1.401 . S
C50 C55 1.499 . S
N51 Co34 1.989 . S
N51 C50 1.342 . S
N51 N52 1.388 . S
N52 Co35 1.993 . S
N52 N51 1.388 . S
N52 C53 1.346 . S
C53 N52 1.346 . S
C53 C54 1.396 . S
C53 C63 1.510 . S
C54 C50 1.401 . S
C54 C53 1.396 . S
C55 C50 1.499 . S
C55 H56 0.959 . S
C55 H57 0.960 . S
C55 H58 0.961 . S
H56 C55 0.959 . S
H57 C55 0.960 . S
H58 C55 0.961 . S
O59 Co34 1.967 . S
O59 C67 1.258 . S
O60 Co35 1.941 . S
O60 C67 1.266 . S
H61 C63 0.959 . S
H62 C63 0.961 . S
C63 C53 1.510 . S
C63 H61 0.959 . S
C63 H62 0.961 . S
C63 H64 0.960 . S
H64 C63 0.960 . S
H65 N45 0.862 . S
O66 Co34 1.920 . S
O66 C39 1.289 . S
C67 O59 1.258 . S
C67 O60 1.266 . S
Co68 O71 1.970 . S
Co68 N85 1.989 . S
Co68 O93 1.967 . S
Co68 O100 1.920 . S
Co69 O72 1.966 . S
Co69 N78 2.022 . S
Co69 N86 1.993 . S
Co69 O94 1.941 . S
C70 O71 1.258 . S
C70 O72 1.263 . S
O71 Co68 1.970 . S
O71 C70 1.258 . S
O72 Co69 1.966 . S
O72 C70 1.263 . S
C73 O74 1.235 . S
C73 O100 1.289 . S
O74 C73 1.235 . S
C75 C77 1.400 . S
C75 N78 1.351 . S
C75 C80 1.501 . S
C76 C77 1.387 . S
C76 N79 1.341 . S
C77 C75 1.400 . S
C77 C76 1.387 . S
N78 Co69 2.022 . S
N78 C75 1.351 . S
N78 N79 1.365 . S
N79 C76 1.341 . S
N79 N78 1.365 . S
N79 H99 0.862 . S
C80 C75 1.501 . S
C80 H81 0.961 . S
C80 H82 0.961 . S
C80 H83 0.960 . S
H81 C80 0.961 . S
H82 C80 0.961 . S
H83 C80 0.960 . S
C84 N85 1.342 . S
C84 C88 1.401 . S
C84 C89 1.499 . S
N85 Co68 1.989 . S
N85 C84 1.342 . S
N85 N86 1.388 . S
N86 Co69 1.993 . S
N86 N85 1.388 . S
N86 C87 1.346 . S
C87 N86 1.346 . S
C87 C88 1.396 . S
C87 C97 1.510 . S
C88 C84 1.401 . S
C88 C87 1.396 . S
C89 C84 1.499 . S
C89 H90 0.959 . S
C89 H91 0.960 . S
C89 H92 0.961 . S
H90 C89 0.959 . S
H91 C89 0.960 . S
H92 C89 0.961 . S
O93 Co68 1.967 . S
O93 C101 1.258 . S
O94 Co69 1.941 . S
O94 C101 1.266 . S
H95 C97 0.959 . S
H96 C97 0.961 . S
C97 C87 1.510 . S
C97 H95 0.959 . S
C97 H96 0.961 . S
C97 H98 0.960 . S
H98 C97 0.960 . S
H99 N79 0.862 . S
O100 Co68 1.920 . S
O100 C73 1.289 . S
C101 O93 1.258 . S
C101 O94 1.266 . S
Co102 O105 1.970 . S
Co102 N119 1.989 . S
Co102 O127 1.967 . S
Co102 O134 1.920 . S
Co103 O106 1.966 . S
Co103 N112 2.022 . S
Co103 N120 1.993 . S
Co103 O128 1.941 . S
C104 O105 1.258 . S
C104 O106 1.263 . S
O105 Co102 1.970 . S
O105 C104 1.258 . S
O106 Co103 1.966 . S
O106 C104 1.263 . S
C107 O108 1.235 . S
C107 O134 1.289 . S
O108 C107 1.235 . S
C109 C111 1.400 . S
C109 N112 1.351 . S
C109 C114 1.501 . S
C110 C111 1.387 . S
C110 N113 1.341 . S
C111 C109 1.400 . S
C111 C110 1.387 . S
N112 Co103 2.022 . S
N112 C109 1.351 . S
N112 N113 1.365 . S
N113 C110 1.341 . S
N113 N112 1.365 . S
N113 H133 0.862 . S
C114 C109 1.501 . S
C114 H115 0.961 . S
C114 H116 0.961 . S
C114 H117 0.960 . S
H115 C114 0.961 . S
H116 C114 0.961 . S
H117 C114 0.960 . S
C118 N119 1.342 . S
C118 C122 1.401 . S
C118 C123 1.499 . S
N119 Co102 1.989 . S
N119 C118 1.342 . S
N119 N120 1.388 . S
N120 Co103 1.993 . S
N120 N119 1.388 . S
N120 C121 1.346 . S
C121 N120 1.346 . S
C121 C122 1.396 . S
C121 C131 1.510 . S
C122 C118 1.401 . S
C122 C121 1.396 . S
C123 C118 1.499 . S
C123 H124 0.959 . S
C123 H125 0.960 . S
C123 H126 0.961 . S
H124 C123 0.959 . S
H125 C123 0.960 . S
H126 C123 0.961 . S
O127 Co102 1.967 . S
O127 C135 1.258 . S
O128 Co103 1.941 . S
O128 C135 1.266 . S
H129 C131 0.959 . S
H130 C131 0.961 . S
C131 C121 1.510 . S
C131 H129 0.959 . S
C131 H130 0.961 . S
C131 H132 0.960 . S
H132 C131 0.960 . S
H133 N113 0.862 . S
O134 Co102 1.920 . S
O134 C107 1.289 . S
C135 O127 1.258 . S
C135 O128 1.266 . S
Co136 O139 1.970 . S
Co136 N153 1.989 . S
Co136 O161 1.967 . S
Co136 O168 1.920 . S
Co137 O140 1.966 . S
Co137 N146 2.022 . S
Co137 N154 1.993 . S
Co137 O162 1.941 . S
C138 O139 1.258 . S
C138 O140 1.263 . S
O139 Co136 1.970 . S
O139 C138 1.258 . S
O140 Co137 1.966 . S
O140 C138 1.263 . S
C141 O142 1.235 . S
C141 O168 1.289 . S
O142 C141 1.235 . S
C143 C145 1.400 . S
C143 N146 1.351 . S
C143 C148 1.501 . S
C144 C145 1.387 . S
C144 N147 1.341 . S
C145 C143 1.400 . S
C145 C144 1.387 . S
N146 Co137 2.022 . S
N146 C143 1.351 . S
N146 N147 1.365 . S
N147 C144 1.341 . S
N147 N146 1.365 . S
N147 H167 0.862 . S
C148 C143 1.501 . S
C148 H149 0.961 . S
C148 H150 0.961 . S
C148 H151 0.960 . S
H149 C148 0.961 . S
H150 C148 0.961 . S
H151 C148 0.960 . S
C152 N153 1.342 . S
C152 C156 1.401 . S
C152 C157 1.499 . S
N153 Co136 1.989 . S
N153 C152 1.342 . S
N153 N154 1.388 . S
N154 Co137 1.993 . S
N154 N153 1.388 . S
N154 C155 1.346 . S
C155 N154 1.346 . S
C155 C156 1.396 . S
C155 C165 1.510 . S
C156 C152 1.401 . S
C156 C155 1.396 . S
C157 C152 1.499 . S
C157 H158 0.959 . S
C157 H159 0.960 . S
C157 H160 0.961 . S
H158 C157 0.959 . S
H159 C157 0.960 . S
H160 C157 0.961 . S
O161 Co136 1.967 . S
O161 C169 1.258 . S
O162 Co137 1.941 . S
O162 C169 1.266 . S
H163 C165 0.959 . S
H164 C165 0.961 . S
C165 C155 1.510 . S
C165 H163 0.959 . S
C165 H164 0.961 . S
C165 H166 0.960 . S
H166 C165 0.960 . S
H167 N147 0.862 . S
O168 Co136 1.920 . S
O168 C141 1.289 . S
C169 O161 1.258 . S
C169 O162 1.266 . S
Co170 O173 1.970 . S
Co170 N187 1.989 . S
Co170 O195 1.967 . S
Co170 O202 1.920 . S
Co171 O174 1.966 . S
Co171 N180 2.022 . S
Co171 N188 1.993 . S
Co171 O196 1.941 . S
C172 O173 1.258 . S
C172 O174 1.263 . S
O173 Co170 1.970 . S
O173 C172 1.258 . S
O174 Co171 1.966 . S
O174 C172 1.263 . S
C175 O176 1.235 . S
C175 O202 1.289 . S
O176 C175 1.235 . S
C177 C179 1.400 . S
C177 N180 1.351 . S
C177 C182 1.501 . S
C178 C179 1.387 . S
C178 N181 1.341 . S
C179 C177 1.400 . S
C179 C178 1.387 . S
N180 Co171 2.022 . S
N180 C177 1.351 . S
N180 N181 1.365 . S
N181 C178 1.341 . S
N181 N180 1.365 . S
N181 H201 0.862 . S
C182 C177 1.501 . S
C182 H183 0.961 . S
C182 H184 0.961 . S
C182 H185 0.960 . S
H183 C182 0.961 . S
H184 C182 0.961 . S
H185 C182 0.960 . S
C186 N187 1.342 . S
C186 C190 1.401 . S
C186 C191 1.499 . S
N187 Co170 1.989 . S
N187 C186 1.342 . S
N187 N188 1.388 . S
N188 Co171 1.993 . S
N188 N187 1.388 . S
N188 C189 1.346 . S
C189 N188 1.346 . S
C189 C190 1.396 . S
C189 C199 1.510 . S
C190 C186 1.401 . S
C190 C189 1.396 . S
C191 C186 1.499 . S
C191 H192 0.959 . S
C191 H193 0.960 . S
C191 H194 0.961 . S
H192 C191 0.959 . S
H193 C191 0.960 . S
H194 C191 0.961 . S
O195 Co170 1.967 . S
O195 C203 1.258 . S
O196 Co171 1.941 . S
O196 C203 1.266 . S
H197 C199 0.959 . S
H198 C199 0.961 . S
C199 C189 1.510 . S
C199 H197 0.959 . S
C199 H198 0.961 . S
C199 H200 0.960 . S
H200 C199 0.960 . S
H201 N181 0.862 . S
O202 Co170 1.920 . S
O202 C175 1.289 . S
C203 O195 1.258 . S
C203 O196 1.266 . S
Co204 O207 1.970 . S
Co204 N221 1.989 . S
Co204 O229 1.967 . S
Co204 O236 1.920 . S
Co205 O208 1.966 . S
Co205 N214 2.022 . S
Co205 N222 1.993 . S
Co205 O230 1.941 . S
C206 O207 1.258 . S
C206 O208 1.263 . S
O207 Co204 1.970 . S
O207 C206 1.258 . S
O208 Co205 1.966 . S
O208 C206 1.263 . S
C209 O210 1.235 . S
C209 O236 1.289 . S
O210 C209 1.235 . S
C211 C213 1.400 . S
C211 N214 1.351 . S
C211 C216 1.501 . S
C212 C213 1.387 . S
C212 N215 1.341 . S
C213 C211 1.400 . S
C213 C212 1.387 . S
N214 Co205 2.022 . S
N214 C211 1.351 . S
N214 N215 1.365 . S
N215 C212 1.341 . S
N215 N214 1.365 . S
N215 H235 0.862 . S
C216 C211 1.501 . S
C216 H217 0.961 . S
C216 H218 0.961 . S
C216 H219 0.960 . S
H217 C216 0.961 . S
H218 C216 0.961 . S
H219 C216 0.960 . S
C220 N221 1.342 . S
C220 C224 1.401 . S
C220 C225 1.499 . S
N221 Co204 1.989 . S
N221 C220 1.342 . S
N221 N222 1.388 . S
N222 Co205 1.993 . S
N222 N221 1.388 . S
N222 C223 1.346 . S
C223 N222 1.346 . S
C223 C224 1.396 . S
C223 C233 1.510 . S
C224 C220 1.401 . S
C224 C223 1.396 . S
C225 C220 1.499 . S
C225 H226 0.959 . S
C225 H227 0.960 . S
C225 H228 0.961 . S
H226 C225 0.959 . S
H227 C225 0.960 . S
H228 C225 0.961 . S
O229 Co204 1.967 . S
O229 C237 1.258 . S
O230 Co205 1.941 . S
O230 C237 1.266 . S
H231 C233 0.959 . S
H232 C233 0.961 . S
C233 C223 1.510 . S
C233 H231 0.959 . S
C233 H232 0.961 . S
C233 H234 0.960 . S
H234 C233 0.960 . S
H235 N215 0.862 . S
O236 Co204 1.920 . S
O236 C209 1.289 . S
C237 O229 1.258 . S
C237 O230 1.266 . S
Co238 O241 1.970 . S
Co238 N255 1.989 . S
Co238 O263 1.967 . S
Co238 O270 1.920 . S
Co239 O242 1.966 . S
Co239 N248 2.022 . S
Co239 N256 1.993 . S
Co239 O264 1.941 . S
C240 O241 1.258 . S
C240 O242 1.263 . S
O241 Co238 1.970 . S
O241 C240 1.258 . S
O242 Co239 1.966 . S
O242 C240 1.263 . S
C243 O244 1.235 . S
C243 O270 1.289 . S
O244 C243 1.235 . S
C245 C247 1.400 . S
C245 N248 1.351 . S
C245 C250 1.501 . S
C246 C247 1.387 . S
C246 N249 1.341 . S
C247 C245 1.400 . S
C247 C246 1.387 . S
N248 Co239 2.022 . S
N248 C245 1.351 . S
N248 N249 1.365 . S
N249 C246 1.341 . S
N249 N248 1.365 . S
N249 H269 0.862 . S
C250 C245 1.501 . S
C250 H251 0.961 . S
C250 H252 0.961 . S
C250 H253 0.960 . S
H251 C250 0.961 . S
H252 C250 0.961 . S
H253 C250 0.960 . S
C254 N255 1.342 . S
C254 C258 1.401 . S
C254 C259 1.499 . S
N255 Co238 1.989 . S
N255 C254 1.342 . S
N255 N256 1.388 . S
N256 Co239 1.993 . S
N256 N255 1.388 . S
N256 C257 1.346 . S
C257 N256 1.346 . S
C257 C258 1.396 . S
C257 C267 1.510 . S
C258 C254 1.401 . S
C258 C257 1.396 . S
C259 C254 1.499 . S
C259 H260 0.959 . S
C259 H261 0.960 . S
C259 H262 0.961 . S
H260 C259 0.959 . S
H261 C259 0.960 . S
H262 C259 0.961 . S
O263 Co238 1.967 . S
O263 C271 1.258 . S
O264 Co239 1.941 . S
O264 C271 1.266 . S
H265 C267 0.959 . S
H266 C267 0.961 . S
C267 C257 1.510 . S
C267 H265 0.959 . S
C267 H266 0.961 . S
C267 H268 0.960 . S
H268 C267 0.960 . S
H269 N249 0.862 . S
O270 Co238 1.920 . S
O270 C243 1.289 . S
C271 O263 1.258 . S
C271 O264 1.266 . S
Co272 O275 1.970 . S
Co272 N289 1.989 . S
Co272 O297 1.967 . S
Co272 O304 1.920 . S
Co273 O276 1.966 . S
Co273 N282 2.022 . S
Co273 N290 1.993 . S
Co273 O298 1.941 . S
C274 O275 1.258 . S
C274 O276 1.263 . S
O275 Co272 1.970 . S
O275 C274 1.258 . S
O276 Co273 1.966 . S
O276 C274 1.263 . S
C277 O278 1.235 . S
C277 O304 1.289 . S
O278 C277 1.235 . S
C279 C281 1.400 . S
C279 N282 1.351 . S
C279 C284 1.501 . S
C280 C281 1.387 . S
C280 N283 1.341 . S
C281 C279 1.400 . S
C281 C280 1.387 . S
N282 Co273 2.022 . S
N282 C279 1.351 . S
N282 N283 1.365 . S
N283 C280 1.341 . S
N283 N282 1.365 . S
N283 H303 0.862 . S
C284 C279 1.501 . S
C284 H285 0.961 . S
C284 H286 0.961 . S
C284 H287 0.960 . S
H285 C284 0.961 . S
H286 C284 0.961 . S
H287 C284 0.960 . S
C288 N289 1.342 . S
C288 C292 1.401 . S
C288 C293 1.499 . S
N289 Co272 1.989 . S
N289 C288 1.342 . S
N289 N290 1.388 . S
N290 Co273 1.993 . S
N290 N289 1.388 . S
N290 C291 1.346 . S
C291 N290 1.346 . S
C291 C292 1.396 . S
C291 C301 1.510 . S
C292 C288 1.401 . S
C292 C291 1.396 . S
C293 C288 1.499 . S
C293 H294 0.959 . S
C293 H295 0.960 . S
C293 H296 0.961 . S
H294 C293 0.959 . S
H295 C293 0.960 . S
H296 C293 0.961 . S
O297 Co272 1.967 . S
O297 C305 1.258 . S
O298 Co273 1.941 . S
O298 C305 1.266 . S
H299 C301 0.959 . S
H300 C301 0.961 . S
C301 C291 1.510 . S
C301 H299 0.959 . S
C301 H300 0.961 . S
C301 H302 0.960 . S
H302 C301 0.960 . S
H303 N283 0.862 . S
O304 Co272 1.920 . S
O304 C277 1.289 . S
C305 O297 1.258 . S
C305 O298 1.266 . S
Co306 O309 1.970 . S
Co306 N323 1.989 . S
Co306 O331 1.967 . S
Co306 O338 1.920 . S
Co307 O310 1.966 . S
Co307 N316 2.022 . S
Co307 N324 1.993 . S
Co307 O332 1.941 . S
C308 O309 1.258 . S
C308 O310 1.263 . S
O309 Co306 1.970 . S
O309 C308 1.258 . S
O310 Co307 1.966 . S
O310 C308 1.263 . S
C311 O312 1.235 . S
C311 O338 1.289 . S
O312 C311 1.235 . S
C313 C315 1.400 . S
C313 N316 1.351 . S
C313 C318 1.501 . S
C314 C315 1.387 . S
C314 N317 1.341 . S
C315 C313 1.400 . S
C315 C314 1.387 . S
N316 Co307 2.022 . S
N316 C313 1.351 . S
N316 N317 1.365 . S
N317 C314 1.341 . S
N317 N316 1.365 . S
N317 H337 0.862 . S
C318 C313 1.501 . S
C318 H319 0.961 . S
C318 H320 0.961 . S
C318 H321 0.960 . S
H319 C318 0.961 . S
H320 C318 0.961 . S
H321 C318 0.960 . S
C322 N323 1.342 . S
C322 C326 1.401 . S
C322 C327 1.499 . S
N323 Co306 1.989 . S
N323 C322 1.342 . S
N323 N324 1.388 . S
N324 Co307 1.993 . S
N324 N323 1.388 . S
N324 C325 1.346 . S
C325 N324 1.346 . S
C325 C326 1.396 . S
C325 C335 1.510 . S
C326 C322 1.401 . S
C326 C325 1.396 . S
C327 C322 1.499 . S
C327 H328 0.959 . S
C327 H329 0.960 . S
C327 H330 0.961 . S
H328 C327 0.959 . S
H329 C327 0.960 . S
H330 C327 0.961 . S
O331 Co306 1.967 . S
O331 C339 1.258 . S
O332 Co307 1.941 . S
O332 C339 1.266 . S
H333 C335 0.959 . S
H334 C335 0.961 . S
C335 C325 1.510 . S
C335 H333 0.959 . S
C335 H334 0.961 . S
C335 H336 0.960 . S
H336 C335 0.960 . S
H337 N317 0.862 . S
O338 Co306 1.920 . S
O338 C311 1.289 . S
C339 O331 1.258 . S
C339 O332 1.266 . S
Co340 O343 1.970 . S
Co340 N357 1.989 . S
Co340 O365 1.967 . S
Co340 O372 1.920 . S
Co341 O344 1.966 . S
Co341 N350 2.022 . S
Co341 N358 1.993 . S
Co341 O366 1.941 . S
C342 O343 1.258 . S
C342 O344 1.263 . S
O343 Co340 1.970 . S
O343 C342 1.258 . S
O344 Co341 1.966 . S
O344 C342 1.263 . S
C345 O346 1.235 . S
C345 O372 1.289 . S
O346 C345 1.235 . S
C347 C349 1.400 . S
C347 N350 1.351 . S
C347 C352 1.501 . S
C348 C349 1.387 . S
C348 N351 1.341 . S
C349 C347 1.400 . S
C349 C348 1.387 . S
N350 Co341 2.022 . S
N350 C347 1.351 . S
N350 N351 1.365 . S
N351 C348 1.341 . S
N351 N350 1.365 . S
N351 H371 0.862 . S
C352 C347 1.501 . S
C352 H353 0.961 . S
C352 H354 0.961 . S
C352 H355 0.960 . S
H353 C352 0.961 . S
H354 C352 0.961 . S
H355 C352 0.960 . S
C356 N357 1.342 . S
C356 C360 1.401 . S
C356 C361 1.499 . S
N357 Co340 1.989 . S
N357 C356 1.342 . S
N357 N358 1.388 . S
N358 Co341 1.993 . S
N358 N357 1.388 . S
N358 C359 1.346 . S
C359 N358 1.346 . S
C359 C360 1.396 . S
C359 C369 1.510 . S
C360 C356 1.401 . S
C360 C359 1.396 . S
C361 C356 1.499 . S
C361 H362 0.959 . S
C361 H363 0.960 . S
C361 H364 0.961 . S
H362 C361 0.959 . S
H363 C361 0.960 . S
H364 C361 0.961 . S
O365 Co340 1.967 . S
O365 C373 1.258 . S
O366 Co341 1.941 . S
O366 C373 1.266 . S
H367 C369 0.959 . S
H368 C369 0.961 . S
C369 C359 1.510 . S
C369 H367 0.959 . S
C369 H368 0.961 . S
C369 H370 0.960 . S
H370 C369 0.960 . S
H371 N351 0.862 . S
O372 Co340 1.920 . S
O372 C345 1.289 . S
C373 O365 1.258 . S
C373 O366 1.266 . S
Co374 O377 1.970 . S
Co374 N391 1.989 . S
Co374 O399 1.967 . S
Co374 O406 1.920 . S
Co375 O378 1.966 . S
Co375 N384 2.022 . S
Co375 N392 1.993 . S
Co375 O400 1.941 . S
C376 O377 1.258 . S
C376 O378 1.263 . S
O377 Co374 1.970 . S
O377 C376 1.258 . S
O378 Co375 1.966 . S
O378 C376 1.263 . S
C379 O380 1.235 . S
C379 O406 1.289 . S
O380 C379 1.235 . S
C381 C383 1.400 . S
C381 N384 1.351 . S
C381 C386 1.501 . S
C382 C383 1.387 . S
C382 N385 1.341 . S
C383 C381 1.400 . S
C383 C382 1.387 . S
N384 Co375 2.022 . S
N384 C381 1.351 . S
N384 N385 1.365 . S
N385 C382 1.341 . S
N385 N384 1.365 . S
N385 H405 0.862 . S
C386 C381 1.501 . S
C386 H387 0.961 . S
C386 H388 0.961 . S
C386 H389 0.960 . S
H387 C386 0.961 . S
H388 C386 0.961 . S
H389 C386 0.960 . S
C390 N391 1.342 . S
C390 C394 1.401 . S
C390 C395 1.499 . S
N391 Co374 1.989 . S
N391 C390 1.342 . S
N391 N392 1.388 . S
N392 Co375 1.993 . S
N392 N391 1.388 . S
N392 C393 1.346 . S
C393 N392 1.346 . S
C393 C394 1.396 . S
C393 C403 1.510 . S
C394 C390 1.401 . S
C394 C393 1.396 . S
C395 C390 1.499 . S
C395 H396 0.959 . S
C395 H397 0.960 . S
C395 H398 0.961 . S
H396 C395 0.959 . S
H397 C395 0.960 . S
H398 C395 0.961 . S
O399 Co374 1.967 . S
O399 C407 1.258 . S
O400 Co375 1.941 . S
O400 C407 1.266 . S
H401 C403 0.959 . S
H402 C403 0.961 . S
C403 C393 1.510 . S
C403 H401 0.959 . S
C403 H402 0.961 . S
C403 H404 0.960 . S
H404 C403 0.960 . S
H405 N385 0.862 . S
O406 Co374 1.920 . S
O406 C379 1.289 . S
C407 O399 1.258 . S
C407 O400 1.266 . S
Co408 O411 1.970 . S
Co408 N425 1.989 . S
Co408 O433 1.967 . S
Co408 O440 1.920 . S
Co409 O412 1.966 . S
Co409 N418 2.022 . S
Co409 N426 1.993 . S
Co409 O434 1.941 . S
C410 O411 1.258 . S
C410 O412 1.263 . S
O411 Co408 1.970 . S
O411 C410 1.258 . S
O412 Co409 1.966 . S
O412 C410 1.263 . S
C413 O414 1.235 . S
C413 O440 1.289 . S
O414 C413 1.235 . S
C415 C417 1.400 . S
C415 N418 1.351 . S
C415 C420 1.501 . S
C416 C417 1.387 . S
C416 N419 1.341 . S
C417 C415 1.400 . S
C417 C416 1.387 . S
N418 Co409 2.022 . S
N418 C415 1.351 . S
N418 N419 1.365 . S
N419 C416 1.341 . S
N419 N418 1.365 . S
N419 H439 0.862 . S
C420 C415 1.501 . S
C420 H421 0.961 . S
C420 H422 0.961 . S
C420 H423 0.960 . S
H421 C420 0.961 . S
H422 C420 0.961 . S
H423 C420 0.960 . S
C424 N425 1.342 . S
C424 C428 1.401 . S
C424 C429 1.499 . S
N425 Co408 1.989 . S
N425 C424 1.342 . S
N425 N426 1.388 . S
N426 Co409 1.993 . S
N426 N425 1.388 . S
N426 C427 1.346 . S
C427 N426 1.346 . S
C427 C428 1.396 . S
C427 C437 1.510 . S
C428 C424 1.401 . S
C428 C427 1.396 . S
C429 C424 1.499 . S
C429 H430 0.959 . S
C429 H431 0.960 . S
C429 H432 0.961 . S
H430 C429 0.959 . S
H431 C429 0.960 . S
H432 C429 0.961 . S
O433 Co408 1.967 . S
O433 C441 1.258 . S
O434 Co409 1.941 . S
O434 C441 1.266 . S
H435 C437 0.959 . S
H436 C437 0.961 . S
C437 C427 1.510 . S
C437 H435 0.959 . S
C437 H436 0.961 . S
C437 H438 0.960 . S
H438 C437 0.960 . S
H439 N419 0.862 . S
O440 Co408 1.920 . S
O440 C413 1.289 . S
C441 O433 1.258 . S
C441 O434 1.266 . S
Co442 O445 1.970 . S
Co442 N459 1.989 . S
Co442 O467 1.967 . S
Co442 O474 1.920 . S
Co443 O446 1.966 . S
Co443 N452 2.022 . S
Co443 N460 1.993 . S
Co443 O468 1.941 . S
C444 O445 1.258 . S
C444 O446 1.263 . S
O445 Co442 1.970 . S
O445 C444 1.258 . S
O446 Co443 1.966 . S
O446 C444 1.263 . S
C447 O448 1.235 . S
C447 O474 1.289 . S
O448 C447 1.235 . S
C449 C451 1.400 . S
C449 N452 1.351 . S
C449 C454 1.501 . S
C450 C451 1.387 . S
C450 N453 1.341 . S
C451 C449 1.400 . S
C451 C450 1.387 . S
N452 Co443 2.022 . S
N452 C449 1.351 . S
N452 N453 1.365 . S
N453 C450 1.341 . S
N453 N452 1.365 . S
N453 H473 0.862 . S
C454 C449 1.501 . S
C454 H455 0.961 . S
C454 H456 0.961 . S
C454 H457 0.960 . S
H455 C454 0.961 . S
H456 C454 0.961 . S
H457 C454 0.960 . S
C458 N459 1.342 . S
C458 C462 1.401 . S
C458 C463 1.499 . S
N459 Co442 1.989 . S
N459 C458 1.342 . S
N459 N460 1.388 . S
N460 Co443 1.993 . S
N460 N459 1.388 . S
N460 C461 1.346 . S
C461 N460 1.346 . S
C461 C462 1.396 . S
C461 C471 1.510 . S
C462 C458 1.401 . S
C462 C461 1.396 . S
C463 C458 1.499 . S
C463 H464 0.959 . S
C463 H465 0.960 . S
C463 H466 0.961 . S
H464 C463 0.959 . S
H465 C463 0.960 . S
H466 C463 0.961 . S
O467 Co442 1.967 . S
O467 C475 1.258 . S
O468 Co443 1.941 . S
O468 C475 1.266 . S
H469 C471 0.959 . S
H470 C471 0.961 . S
C471 C461 1.510 . S
C471 H469 0.959 . S
C471 H470 0.961 . S
C471 H472 0.960 . S
H472 C471 0.960 . S
H473 N453 0.862 . S
O474 Co442 1.920 . S
O474 C447 1.289 . S
C475 O467 1.258 . S
C475 O468 1.266 . S
Co476 O479 1.970 . S
Co476 N493 1.989 . S
Co476 O501 1.967 . S
Co476 O508 1.920 . S
Co477 O480 1.966 . S
Co477 N486 2.022 . S
Co477 N494 1.993 . S
Co477 O502 1.941 . S
C478 O479 1.258 . S
C478 O480 1.263 . S
O479 Co476 1.970 . S
O479 C478 1.258 . S
O480 Co477 1.966 . S
O480 C478 1.263 . S
C481 O482 1.235 . S
C481 O508 1.289 . S
O482 C481 1.235 . S
C483 C485 1.400 . S
C483 N486 1.351 . S
C483 C488 1.501 . S
C484 C485 1.387 . S
C484 N487 1.341 . S
C485 C483 1.400 . S
C485 C484 1.387 . S
N486 Co477 2.022 . S
N486 C483 1.351 . S
N486 N487 1.365 . S
N487 C484 1.341 . S
N487 N486 1.365 . S
N487 H507 0.862 . S
C488 C483 1.501 . S
C488 H489 0.961 . S
C488 H490 0.961 . S
C488 H491 0.960 . S
H489 C488 0.961 . S
H490 C488 0.961 . S
H491 C488 0.960 . S
C492 N493 1.342 . S
C492 C496 1.401 . S
C492 C497 1.499 . S
N493 Co476 1.989 . S
N493 C492 1.342 . S
N493 N494 1.388 . S
N494 Co477 1.993 . S
N494 N493 1.388 . S
N494 C495 1.346 . S
C495 N494 1.346 . S
C495 C496 1.396 . S
C495 C505 1.510 . S
C496 C492 1.401 . S
C496 C495 1.396 . S
C497 C492 1.499 . S
C497 H498 0.959 . S
C497 H499 0.960 . S
C497 H500 0.961 . S
H498 C497 0.959 . S
H499 C497 0.960 . S
H500 C497 0.961 . S
O501 Co476 1.967 . S
O501 C509 1.258 . S
O502 Co477 1.941 . S
O502 C509 1.266 . S
H503 C505 0.959 . S
H504 C505 0.961 . S
C505 C495 1.510 . S
C505 H503 0.959 . S
C505 H504 0.961 . S
C505 H506 0.960 . S
H506 C505 0.960 . S
H507 N487 0.862 . S
O508 Co476 1.920 . S
O508 C481 1.289 . S
C509 O501 1.258 . S
C509 O502 1.266 . S
Co510 O513 1.970 . S
Co510 N527 1.989 . S
Co510 O535 1.967 . S
Co510 O542 1.920 . S
Co511 O514 1.966 . S
Co511 N520 2.022 . S
Co511 N528 1.993 . S
Co511 O536 1.941 . S
C512 O513 1.258 . S
C512 O514 1.263 . S
O513 Co510 1.970 . S
O513 C512 1.258 . S
O514 Co511 1.966 . S
O514 C512 1.263 . S
C515 O516 1.235 . S
C515 O542 1.289 . S
O516 C515 1.235 . S
C517 C519 1.400 . S
C517 N520 1.351 . S
C517 C522 1.501 . S
C518 C519 1.387 . S
C518 N521 1.341 . S
C519 C517 1.400 . S
C519 C518 1.387 . S
N520 Co511 2.022 . S
N520 C517 1.351 . S
N520 N521 1.365 . S
N521 C518 1.341 . S
N521 N520 1.365 . S
N521 H541 0.862 . S
C522 C517 1.501 . S
C522 H523 0.961 . S
C522 H524 0.961 . S
C522 H525 0.960 . S
H523 C522 0.961 . S
H524 C522 0.961 . S
H525 C522 0.960 . S
C526 N527 1.342 . S
C526 C530 1.401 . S
C526 C531 1.499 . S
N527 Co510 1.989 . S
N527 C526 1.342 . S
N527 N528 1.388 . S
N528 Co511 1.993 . S
N528 N527 1.388 . S
N528 C529 1.346 . S
C529 N528 1.346 . S
C529 C530 1.396 . S
C529 C539 1.510 . S
C530 C526 1.401 . S
C530 C529 1.396 . S
C531 C526 1.499 . S
C531 H532 0.959 . S
C531 H533 0.960 . S
C531 H534 0.961 . S
H532 C531 0.959 . S
H533 C531 0.960 . S
H534 C531 0.961 . S
O535 Co510 1.967 . S
O535 C543 1.258 . S
O536 Co511 1.941 . S
O536 C543 1.266 . S
H537 C539 0.959 . S
H538 C539 0.961 . S
C539 C529 1.510 . S
C539 H537 0.959 . S
C539 H538 0.961 . S
C539 H540 0.960 . S
H540 C539 0.960 . S
H541 N521 0.862 . S
O542 Co510 1.920 . S
O542 C515 1.289 . S
C543 O535 1.258 . S
C543 O536 1.266 . S
C544 C545 1.391 . S
C544 C546 1.394 . S
C544 H560 0.931 . S
C545 C544 1.391 . S
C545 C549 1.376 . S
C546 C544 1.394 . S
C546 C547 1.369 . S
C546 C550 1.531 . S
C547 C546 1.369 . S
C547 C548 1.410 . S
C547 C555 1.503 . S
C548 C547 1.410 . S
C548 C549 1.392 . S
C548 C551 1.511 . S
C549 C545 1.376 . S
C549 C548 1.392 . S
C549 H561 0.929 . S
C550 C546 1.531 . S
C550 H562 0.960 . S
C550 H563 0.962 . S
C550 H564 0.960 . S
C551 C548 1.511 . S
C551 H565 0.961 . S
C551 H566 0.961 . S
C551 H567 0.961 . S
C552 C553 1.370 . S
C552 C554 1.363 . S
C552 H568 0.931 . S
C553 C552 1.370 . S
C553 C557 1.408 . S
C554 C552 1.363 . S
C554 C555 1.370 . S
C554 C558 1.524 . S
C555 C547 1.503 . S
C555 C554 1.370 . S
C555 C556 1.403 . S
C556 C555 1.403 . S
C556 C557 1.404 . S
C556 C559 1.539 . S
C557 C553 1.408 . S
C557 C556 1.404 . S
C557 H569 0.930 . S
C558 C554 1.524 . S
C558 H570 0.956 . S
C558 H571 0.961 . S
C558 H572 0.961 . S
C559 C556 1.539 . S
C559 H573 0.958 . S
C559 H574 0.961 . S
C559 H575 0.960 . S
H560 C544 0.931 . S
H561 C549 0.929 . S
H562 C550 0.960 . S
H563 C550 0.962 . S
H564 C550 0.960 . S
H565 C551 0.961 . S
H566 C551 0.961 . S
H567 C551 0.961 . S
H568 C552 0.931 . S
H569 C557 0.930 . S
H570 C558 0.956 . S
H571 C558 0.961 . S
H572 C558 0.961 . S
H573 C559 0.958 . S
H574 C559 0.961 . S
H575 C559 0.960 . S
C576 C577 1.391 . S
C576 C578 1.394 1_545 S
C576 H592 0.931 . S
C577 C576 1.391 . S
C577 C581 1.376 . S
C578 C576 1.394 1_565 S
C578 C579 1.369 . S
C578 C582 1.531 1_655 S
C579 C578 1.369 . S
C579 C580 1.410 . S
C579 C587 1.503 1_655 S
C580 C579 1.410 . S
C580 C581 1.392 1_565 S
C580 C583 1.511 . S
C581 C577 1.376 . S
C581 C580 1.392 1_545 S
C581 H593 0.929 . S
C582 C578 1.531 1_455 S
C582 H594 0.960 . S
C582 H595 0.962 1_565 S
C582 H596 0.960 . S
C583 C580 1.511 . S
C583 H597 0.961 . S
C583 H598 0.961 . S
C583 H599 0.961 . S
C584 C585 1.370 . S
C584 C586 1.363 . S
C584 H600 0.909 1_565 S
C585 C584 1.370 . S
C585 C589 1.408 . S
C586 C584 1.363 . S
C586 C587 1.370 . S
C586 C590 1.524 1_565 S
C587 C579 1.503 1_455 S
C587 C586 1.370 . S
C587 C588 1.403 . S
C588 C587 1.403 . S
C588 C589 1.404 . S
C588 C591 1.539 1_455 S
C589 C585 1.408 . S
C589 C588 1.404 . S
C589 H601 0.930 . S
C590 C586 1.524 1_545 S
C590 H602 0.956 . S
C590 H603 0.961 . S
C590 H604 0.961 . S
C591 C588 1.539 1_655 S
C591 H605 0.958 1_655 S
C591 H606 0.961 . S
C591 H607 0.960 . S
H592 C576 0.931 . S
H593 C581 0.929 . S
H594 C582 0.960 . S
H595 C582 0.962 1_545 S
H596 C582 0.960 . S
H597 C583 0.961 . S
H598 C583 0.961 . S
H599 C583 0.961 . S
H600 C584 0.909 1_545 S
H601 C589 0.930 . S
H602 C590 0.956 . S
H603 C590 0.961 . S
H604 C590 0.961 . S
H605 C591 0.958 1_455 S
H606 C591 0.961 . S
H607 C591 0.960 . S
C608 C609 1.391 . S
C608 C610 1.394 . S
C608 H624 0.931 . S
C609 C608 1.391 . S
C609 C613 1.376 . S
C610 C608 1.394 . S
C610 C611 1.369 . S
C610 C614 1.531 . S
C611 C610 1.369 . S
C611 C612 1.410 . S
C611 C619 1.503 . S
C612 C611 1.410 . S
C612 C613 1.392 . S
C612 C615 1.511 . S
C613 C609 1.376 . S
C613 C612 1.392 . S
C613 H625 0.929 . S
C614 C610 1.531 . S
C614 H626 0.960 . S
C614 H627 0.962 . S
C614 H628 0.960 . S
C615 C612 1.511 . S
C615 H629 0.961 . S
C615 H630 0.961 . S
C615 H631 0.961 . S
C616 C617 1.370 . S
C616 C618 1.363 . S
C616 H632 0.931 . S
C617 C616 1.370 . S
C617 C621 1.408 . S
C618 C616 1.363 . S
C618 C619 1.370 . S
C618 C622 1.524 . S
C619 C611 1.503 . S
C619 C618 1.370 . S
C619 C620 1.403 . S
C620 C619 1.403 . S
C620 C621 1.404 . S
C620 C623 1.539 . S
C621 C617 1.408 . S
C621 C620 1.404 . S
C621 H633 0.930 . S
C622 C618 1.524 . S
C622 H634 0.956 . S
C622 H635 0.961 . S
C622 H636 0.961 . S
C623 C620 1.539 . S
C623 H637 0.958 . S
C623 H638 0.961 . S
C623 H639 0.960 . S
H624 C608 0.931 . S
H625 C613 0.929 . S
H626 C614 0.960 . S
H627 C614 0.962 . S
H628 C614 0.960 . S
H629 C615 0.961 . S
H630 C615 0.961 . S
H631 C615 0.961 . S
H632 C616 0.931 . S
H633 C621 0.930 . S
H634 C622 0.956 . S
H635 C622 0.961 . S
H636 C622 0.961 . S
H637 C623 0.958 . S
H638 C623 0.961 . S
H639 C623 0.960 . S
C640 C641 1.391 . S
C640 C642 1.394 1_546 S
C640 H656 0.924 1_556 S
C641 C640 1.391 . S
C641 C645 1.376 . S
C642 C640 1.394 1_564 S
C642 C643 1.375 . S
C642 C646 1.531 . S
C643 C642 1.375 . S
C643 C644 1.392 1_564 S
C643 C651 1.515 . S
C644 C643 1.392 1_546 S
C644 C645 1.392 . S
C644 C647 1.511 . S
C645 C641 1.376 . S
C645 C644 1.392 . S
C645 H657 0.929 . S
C646 C642 1.531 . S
C646 H658 0.960 . S
C646 H659 0.962 . S
C646 H660 0.960 . S
C647 C644 1.511 . S
C647 H661 0.961 . S
C647 H662 0.959 1_545 S
C647 H663 0.961 1_545 S
C648 C649 1.370 . S
C648 C650 1.363 . S
C648 H664 0.931 . S
C649 C648 1.370 . S
C649 C653 1.408 . S
C650 C648 1.363 . S
C650 C651 1.370 . S
C650 C654 1.524 1_565 S
C651 C643 1.515 . S
C651 C650 1.370 . S
C651 C652 1.403 . S
C652 C651 1.403 . S
C652 C653 1.404 . S
C652 C655 1.539 1_554 S
C653 C649 1.408 . S
C653 C652 1.404 . S
C653 H665 0.930 . S
C654 C650 1.524 1_545 S
C654 H666 0.956 . S
C654 H667 0.961 . S
C654 H668 0.961 . S
C655 C652 1.539 1_556 S
C655 H669 0.958 . S
C655 H670 0.961 . S
C655 H671 0.960 . S
H656 C640 0.924 1_554 S
H657 C645 0.929 . S
H658 C646 0.960 . S
H659 C646 0.962 . S
H660 C646 0.960 . S
H661 C647 0.961 . S
H662 C647 0.959 1_565 S
H663 C647 0.961 1_565 S
H664 C648 0.931 . S
H665 C653 0.930 . S
H666 C654 0.956 . S
H667 C654 0.961 . S
H668 C654 0.961 . S
H669 C655 0.958 . S
H670 C655 0.961 . S
H671 C655 0.960 . S
C672 C673 1.391 . S
C672 C674 1.394 . S
C672 H688 0.931 . S
C673 C672 1.391 . S
C673 C677 1.376 . S
C674 C672 1.394 . S
C674 C675 1.369 . S
C674 C678 1.531 . S
C675 C674 1.369 . S
C675 C676 1.410 . S
C675 C683 1.503 . S
C676 C675 1.410 . S
C676 C677 1.392 . S
C676 C679 1.511 . S
C677 C673 1.376 . S
C677 C676 1.392 . S
C677 H689 0.929 . S
C678 C674 1.531 . S
C678 H690 0.960 . S
C678 H691 0.962 . S
C678 H692 0.960 . S
C679 C676 1.511 . S
C679 H693 0.961 . S
C679 H694 0.961 . S
C679 H695 0.961 . S
C680 C681 1.370 . S
C680 C682 1.363 . S
C680 H696 0.931 . S
C681 C680 1.370 . S
C681 C685 1.408 . S
C682 C680 1.363 . S
C682 C683 1.370 . S
C682 C686 1.524 . S
C683 C675 1.503 . S
C683 C682 1.370 . S
C683 C684 1.403 . S
C684 C683 1.403 . S
C684 C685 1.404 . S
C684 C687 1.539 . S
C685 C681 1.408 . S
C685 C684 1.404 . S
C685 H697 0.930 . S
C686 C682 1.524 . S
C686 H698 0.956 . S
C686 H699 0.961 . S
C686 H700 0.961 . S
C687 C684 1.539 . S
C687 H701 0.958 . S
C687 H702 0.961 . S
C687 H703 0.960 . S
H688 C672 0.931 . S
H689 C677 0.929 . S
H690 C678 0.960 . S
H691 C678 0.962 . S
H692 C678 0.960 . S
H693 C679 0.961 . S
H694 C679 0.961 . S
H695 C679 0.961 . S
H696 C680 0.931 . S
H697 C685 0.930 . S
H698 C686 0.956 . S
H699 C686 0.961 . S
H700 C686 0.961 . S
H701 C687 0.958 . S
H702 C687 0.961 . S
H703 C687 0.960 . S
C704 C705 1.391 . S
C704 C706 1.394 1_565 S
C704 H720 0.931 1_565 S
C705 C704 1.391 . S
C705 C709 1.376 . S
C706 C704 1.394 1_545 S
C706 C707 1.369 . S
C706 C710 1.531 . S
C707 C706 1.369 . S
C707 C708 1.410 1_545 S
C707 C715 1.503 . S
C708 C707 1.410 1_565 S
C708 C709 1.392 . S
C708 C711 1.511 . S
C709 C705 1.376 . S
C709 C708 1.392 . S
C709 H721 0.929 . S
C710 C706 1.531 . S
C710 H722 0.960 . S
C710 H723 0.962 . S
C710 H724 0.960 . S
C711 C708 1.511 . S
C711 H725 0.961 . S
C711 H726 0.961 . S
C711 H727 0.961 . S
C712 C713 1.370 . S
C712 C714 1.363 . S
C712 H728 0.931 . S
C713 C712 1.370 . S
C713 C717 1.408 . S
C714 C712 1.363 . S
C714 C715 1.370 . S
C714 C718 1.524 1_545 S
C715 C707 1.503 . S
C715 C714 1.370 . S
C715 C716 1.403 . S
C716 C715 1.403 . S
C716 C717 1.404 . S
C716 C719 1.539 . S
C717 C713 1.408 . S
C717 C716 1.404 . S
C717 H729 0.930 . S
C718 C714 1.524 1_565 S
C718 H730 0.956 . S
C718 H731 0.961 . S
C718 H732 0.961 . S
C719 C716 1.539 . S
C719 H733 0.958 . S
C719 H734 0.961 . S
C719 H735 0.960 . S
H720 C704 0.931 1_545 S
H721 C709 0.929 . S
H722 C710 0.960 . S
H723 C710 0.962 . S
H724 C710 0.960 . S
H725 C711 0.961 . S
H726 C711 0.961 . S
H727 C711 0.961 . S
H728 C712 0.931 . S
H729 C717 0.930 . S
H730 C718 0.956 . S
H731 C718 0.961 . S
H732 C718 0.961 . S
H733 C719 0.958 . S
H734 C719 0.961 . S
H735 C719 0.960 . S
C736 C737 1.391 . S
C736 C738 1.394 . S
C736 H752 0.931 . S
C737 C736 1.391 . S
C737 C741 1.376 . S
C738 C736 1.394 . S
C738 C739 1.369 . S
C738 C742 1.531 . S
C739 C738 1.369 . S
C739 C740 1.410 . S
C739 C747 1.503 . S
C740 C739 1.410 . S
C740 C741 1.392 . S
C740 C743 1.511 . S
C741 C737 1.376 . S
C741 C740 1.392 . S
C741 H753 0.929 . S
C742 C738 1.531 . S
C742 H754 0.960 . S
C742 H755 0.962 . S
C742 H756 0.960 . S
C743 C740 1.511 . S
C743 H757 0.961 . S
C743 H758 0.961 . S
C743 H759 0.961 . S
C744 C745 1.370 . S
C744 C746 1.363 . S
C744 H760 0.931 . S
C745 C744 1.370 . S
C745 C749 1.408 . S
C746 C744 1.363 . S
C746 C747 1.370 . S
C746 C750 1.524 . S
C747 C739 1.503 . S
C747 C746 1.370 . S
C747 C748 1.403 . S
C748 C747 1.403 . S
C748 C749 1.404 . S
C748 C751 1.539 . S
C749 C745 1.408 . S
C749 C748 1.404 . S
C749 H761 0.930 . S
C750 C746 1.524 . S
C750 H762 0.956 . S
C750 H763 0.961 . S
C750 H764 0.961 . S
C751 C748 1.539 . S
C751 H765 0.958 . S
C751 H766 0.961 . S
C751 H767 0.960 . S
H752 C736 0.931 . S
H753 C741 0.929 . S
H754 C742 0.960 . S
H755 C742 0.962 . S
H756 C742 0.960 . S
H757 C743 0.961 . S
H758 C743 0.961 . S
H759 C743 0.961 . S
H760 C744 0.931 . S
H761 C749 0.930 . S
H762 C750 0.956 . S
H763 C750 0.961 . S
H764 C750 0.961 . S
H765 C751 0.958 . S
H766 C751 0.961 . S
H767 C751 0.960 . S
C768 C769 1.391 . S
C768 C770 1.394 . S
C768 H784 0.931 . S
C769 C768 1.391 . S
C769 C773 1.376 . S
C770 C768 1.394 . S
C770 C771 1.369 . S
C770 C774 1.531 1_554 S
C771 C770 1.369 . S
C771 C772 1.410 . S
C771 C779 1.503 1_554 S
C772 C771 1.410 . S
C772 C773 1.392 . S
C772 C775 1.511 1_545 S
C773 C769 1.376 . S
C773 C772 1.392 . S
C773 H785 0.929 . S
C774 C770 1.531 1_556 S
C774 H786 0.960 . S
C774 H787 0.962 1_456 S
C774 H788 0.960 . S
C775 C772 1.511 1_565 S
C775 H789 0.961 . S
C775 H790 0.961 . S
C775 H791 0.961 . S
C776 C777 1.370 . S
C776 C778 1.363 1_556 S
C776 H792 0.931 . S
C777 C776 1.370 . S
C777 C781 1.408 1_655 S
C778 C776 1.363 1_554 S
C778 C779 1.370 1_664 S
C778 C782 1.524 . S
C779 C771 1.503 1_556 S
C779 C778 1.370 1_446 S
C779 C780 1.406 . S
C780 C779 1.406 . S
C780 C781 1.393 1_545 S
C780 C783 1.546 . S
C781 C777 1.408 1_455 S
C781 C780 1.393 1_565 S
C781 H793 0.930 . S
C782 C778 1.524 . S
C782 H794 0.956 1_565 S
C782 H795 0.961 . S
C782 H796 0.961 . S
C783 C780 1.546 . S
C783 H797 0.958 . S
C783 H798 0.964 . S
C783 H799 0.960 . S
H784 C768 0.931 . S
H785 C773 0.929 . S
H786 C774 0.960 . S
H787 C774 0.962 1_654 S
H788 C774 0.960 . S
H789 C775 0.961 . S
H790 C775 0.961 . S
H791 C775 0.961 . S
H792 C776 0.931 . S
H793 C781 0.930 . S
H794 C782 0.956 1_545 S
H795 C782 0.961 . S
H796 C782 0.961 . S
H797 C783 0.958 . S
H798 C783 0.964 . S
H799 C783 0.960 . S
C800 C801 1.391 . S
C800 C802 1.394 . S
C800 H816 0.931 . S
C801 C800 1.391 . S
C801 C805 1.376 . S
C802 C800 1.394 . S
C802 C803 1.369 . S
C802 C806 1.531 . S
C803 C802 1.369 . S
C803 C804 1.410 . S
C803 C811 1.503 . S
C804 C803 1.410 . S
C804 C805 1.392 . S
C804 C807 1.511 . S
C805 C801 1.376 . S
C805 C804 1.392 . S
C805 H817 0.929 . S
C806 C802 1.531 . S
C806 H818 0.960 . S
C806 H819 0.962 . S
C806 H820 0.960 . S
C807 C804 1.511 . S
C807 H821 0.961 . S
C807 H822 0.961 . S
C807 H823 0.961 . S
C808 C809 1.370 . S
C808 C810 1.363 . S
C808 H824 0.931 . S
C809 C808 1.370 . S
C809 C813 1.408 . S
C810 C808 1.363 . S
C810 C811 1.370 . S
C810 C814 1.524 . S
C811 C803 1.503 . S
C811 C810 1.370 . S
C811 C812 1.403 . S
C812 C811 1.403 . S
C812 C813 1.404 . S
C812 C815 1.539 . S
C813 C809 1.408 . S
C813 C812 1.404 . S
C813 H825 0.930 . S
C814 C810 1.524 . S
C814 H826 0.956 . S
C814 H827 0.961 . S
C814 H828 0.961 . S
C815 C812 1.539 . S
C815 H829 0.958 . S
C815 H830 0.961 . S
C815 H831 0.960 . S
H816 C800 0.931 . S
H817 C805 0.929 . S
H818 C806 0.960 . S
H819 C806 0.962 . S
H820 C806 0.960 . S
H821 C807 0.961 . S
H822 C807 0.961 . S
H823 C807 0.961 . S
H824 C808 0.931 . S
H825 C813 0.930 . S
H826 C814 0.956 . S
H827 C814 0.961 . S
H828 C814 0.961 . S
H829 C815 0.958 . S
H830 C815 0.961 . S
H831 C815 0.960 . S
C832 C833 1.391 . S
C832 C834 1.394 . S
C832 H848 0.931 . S
C833 C832 1.391 . S
C833 C837 1.376 . S
C834 C832 1.394 . S
C834 C835 1.369 . S
C834 C838 1.531 1_455 S
C835 C834 1.369 . S
C835 C836 1.422 . S
C835 C843 1.503 1_455 S
C836 C835 1.422 . S
C836 C837 1.405 . S
C836 C839 1.486 1_556 S
C837 C833 1.376 . S
C837 C836 1.405 . S
C837 H849 0.929 . S
C838 C834 1.531 1_655 S
C838 H850 0.960 . S
C838 H851 0.962 . S
C838 H852 0.960 . S
C839 C836 1.486 1_554 S
C839 H853 0.961 . S
C839 H854 0.961 . S
C839 H855 0.961 . S
C840 C841 1.370 . S
C840 C842 1.363 . S
C840 H856 0.931 . S
C841 C840 1.370 . S
C841 C845 1.408 . S
C842 C840 1.363 . S
C842 C843 1.377 1_554 S
C842 C846 1.524 . S
C843 C835 1.503 1_655 S
C843 C842 1.377 1_556 S
C843 C844 1.399 1_655 S
C844 C843 1.399 1_455 S
C844 C845 1.404 1_456 S
C844 C847 1.539 . S
C845 C841 1.408 . S
C845 C844 1.404 1_654 S
C845 H857 0.930 . S
C846 C842 1.524 . S
C846 H858 0.956 1_554 S
C846 H859 0.961 . S
C846 H860 0.961 . S
C847 C844 1.539 . S
C847 H861 0.958 . S
C847 H862 0.961 . S
C847 H863 0.960 . S
H848 C832 0.931 . S
H849 C837 0.929 . S
H850 C838 0.960 . S
H851 C838 0.962 . S
H852 C838 0.960 . S
H853 C839 0.961 . S
H854 C839 0.961 . S
H855 C839 0.961 . S
H856 C840 0.931 . S
H857 C845 0.930 . S
H858 C846 0.956 1_556 S
H859 C846 0.961 . S
H860 C846 0.961 . S
H861 C847 0.958 . S
H862 C847 0.961 . S
H863 C847 0.960 . S
C864 C865 1.391 . S
C864 C866 1.394 . S
C864 H880 0.931 . S
C865 C864 1.391 . S
C865 C869 1.376 . S
C866 C864 1.394 . S
C866 C867 1.369 . S
C866 C870 1.531 . S
C867 C866 1.369 . S
C867 C868 1.410 . S
C867 C875 1.503 . S
C868 C867 1.410 . S
C868 C869 1.392 . S
C868 C871 1.511 . S
C869 C865 1.376 . S
C869 C868 1.392 . S
C869 H881 0.929 . S
C870 C866 1.531 . S
C870 H882 0.960 . S
C870 H883 0.962 . S
C870 H884 0.960 . S
C871 C868 1.511 . S
C871 H885 0.961 . S
C871 H886 0.961 . S
C871 H887 0.961 . S
C872 C873 1.370 . S
C872 C874 1.363 . S
C872 H888 0.931 . S
C873 C872 1.370 . S
C873 C877 1.408 . S
C874 C872 1.363 . S
C874 C875 1.370 . S
C874 C878 1.524 . S
C875 C867 1.503 . S
C875 C874 1.370 . S
C875 C876 1.403 . S
C876 C875 1.403 . S
C876 C877 1.404 . S
C876 C879 1.539 . S
C877 C873 1.408 . S
C877 C876 1.404 . S
C877 H889 0.930 . S
C878 C874 1.524 . S
C878 H890 0.956 . S
C878 H891 0.961 . S
C878 H892 0.961 . S
C879 C876 1.539 . S
C879 H893 0.958 . S
C879 H894 0.961 . S
C879 H895 0.960 . S
H880 C864 0.931 . S
H881 C869 0.929 . S
H882 C870 0.960 . S
H883 C870 0.962 . S
H884 C870 0.960 . S
H885 C871 0.961 . S
H886 C871 0.961 . S
H887 C871 0.961 . S
H888 C872 0.931 . S
H889 C877 0.930 . S
H890 C878 0.956 . S
H891 C878 0.961 . S
H892 C878 0.961 . S
H893 C879 0.958 . S
H894 C879 0.961 . S
H895 C879 0.960 . S
C896 C897 1.391 . S
C896 C898 1.394 . S
C896 H912 0.931 . S
C897 C896 1.391 . S
C897 C901 1.376 . S
C898 C896 1.394 . S
C898 C899 1.369 . S
C898 C902 1.531 1_655 S
C899 C898 1.369 . S
C899 C900 1.410 . S
C899 C907 1.503 1_655 S
C900 C899 1.410 . S
C900 C901 1.392 . S
C900 C903 1.511 . S
C901 C897 1.376 . S
C901 C900 1.392 . S
C901 H913 0.929 . S
C902 C898 1.531 1_455 S
C902 H914 0.960 . S
C902 H915 0.962 . S
C902 H916 0.960 . S
C903 C900 1.511 . S
C903 H917 0.961 . S
C903 H918 0.961 . S
C903 H919 0.961 . S
C904 C905 1.370 . S
C904 C906 1.343 1_455 S
C904 H920 0.931 . S
C905 C904 1.370 . S
C905 C909 1.408 . S
C906 C904 1.343 1_655 S
C906 C907 1.365 1_655 S
C906 C910 1.550 . S
C907 C899 1.503 1_455 S
C907 C906 1.365 1_455 S
C907 C908 1.403 . S
C908 C907 1.403 . S
C908 C909 1.404 . S
C908 C911 1.539 . S
C909 C905 1.408 . S
C909 C908 1.404 . S
C909 H921 0.930 . S
C910 C906 1.550 . S
C910 H922 0.956 . S
C910 H923 0.961 . S
C910 H924 0.961 . S
C911 C908 1.539 . S
C911 H925 0.958 . S
C911 H926 0.961 . S
C911 H927 0.960 . S
H912 C896 0.931 . S
H913 C901 0.929 . S
H914 C902 0.960 . S
H915 C902 0.962 . S
H916 C902 0.960 . S
H917 C903 0.961 . S
H918 C903 0.961 . S
H919 C903 0.961 . S
H920 C904 0.931 . S
H921 C909 0.930 . S
H922 C910 0.956 . S
H923 C910 0.961 . S
H924 C910 0.961 . S
H925 C911 0.958 . S
H926 C911 0.961 . S
H927 C911 0.960 . S
C928 C929 1.391 . S
C928 C930 1.394 . S
C928 H944 0.931 . S
C929 C928 1.391 . S
C929 C933 1.376 . S
C930 C928 1.394 . S
C930 C931 1.369 . S
C930 C934 1.531 . S
C931 C930 1.369 . S
C931 C932 1.410 . S
C931 C939 1.503 . S
C932 C931 1.410 . S
C932 C933 1.392 . S
C932 C935 1.511 1_556 S
C933 C929 1.376 . S
C933 C932 1.392 . S
C933 H945 0.929 . S
C934 C930 1.531 . S
C934 H946 0.960 . S
C934 H947 0.962 . S
C934 H948 0.960 . S
C935 C932 1.511 1_554 S
C935 H949 0.961 . S
C935 H950 0.961 . S
C935 H951 0.961 . S
C936 C937 1.370 . S
C936 C938 1.363 . S
C936 H952 0.931 . S
C937 C936 1.370 . S
C937 C941 1.408 . S
C938 C936 1.363 . S
C938 C939 1.370 1_554 S
C938 C942 1.524 1_554 S
C939 C931 1.503 . S
C939 C938 1.370 1_556 S
C939 C940 1.403 1_556 S
C940 C939 1.403 1_554 S
C940 C941 1.404 . S
C940 C943 1.539 1_554 S
C941 C937 1.408 . S
C941 C940 1.404 . S
C941 H953 0.930 . S
C942 C938 1.524 1_556 S
C942 H954 0.956 . S
C942 H955 0.961 . S
C942 H956 0.958 1_556 S
C943 C940 1.539 1_556 S
C943 H957 0.958 . S
C943 H958 0.961 1_556 S
C943 H959 0.960 . S
H944 C928 0.931 . S
H945 C933 0.929 . S
H946 C934 0.960 . S
H947 C934 0.962 . S
H948 C934 0.960 . S
H949 C935 0.961 . S
H950 C935 0.961 . S
H951 C935 0.961 . S
H952 C936 0.931 . S
H953 C941 0.930 . S
H954 C942 0.956 . S
H955 C942 0.961 . S
H956 C942 0.958 1_554 S
H957 C943 0.958 . S
H958 C943 0.961 1_554 S
H959 C943 0.960 . S
C960 C961 1.391 . S
C960 C962 1.394 . S
C960 H976 0.931 . S
C961 C960 1.391 . S
C961 C965 1.376 . S
C962 C960 1.394 . S
C962 C963 1.369 . S
C962 C966 1.531 . S
C963 C962 1.369 . S
C963 C964 1.410 . S
C963 C971 1.503 . S
C964 C963 1.410 . S
C964 C965 1.392 . S
C964 C967 1.511 . S
C965 C961 1.376 . S
C965 C964 1.392 . S
C965 H977 0.929 . S
C966 C962 1.531 . S
C966 H978 0.960 . S
C966 H979 0.962 . S
C966 H980 0.960 . S
C967 C964 1.511 . S
C967 H981 0.961 . S
C967 H982 0.961 . S
C967 H983 0.961 . S
C968 C969 1.370 . S
C968 C970 1.363 . S
C968 H984 0.931 . S
C969 C968 1.370 . S
C969 C973 1.408 . S
C970 C968 1.363 . S
C970 C971 1.370 . S
C970 C974 1.524 . S
C971 C963 1.503 . S
C971 C970 1.370 . S
C971 C972 1.403 . S
C972 C971 1.403 . S
C972 C973 1.404 . S
C972 C975 1.539 . S
C973 C969 1.408 . S
C973 C972 1.404 . S
C973 H985 0.930 . S
C974 C970 1.524 . S
C974 H986 0.956 . S
C974 H987 0.961 . S
C974 H988 0.961 . S
C975 C972 1.539 . S
C975 H989 0.958 . S
C975 H990 0.961 . S
C975 H991 0.960 . S
H976 C960 0.931 . S
H977 C965 0.929 . S
H978 C966 0.960 . S
H979 C966 0.962 . S
H980 C966 0.960 . S
H981 C967 0.961 . S
H982 C967 0.961 . S
H983 C967 0.961 . S
H984 C968 0.931 . S
H985 C973 0.930 . S
H986 C974 0.956 . S
H987 C974 0.961 . S
H988 C974 0.961 . S
H989 C975 0.958 . S
H990 C975 0.961 . S
H991 C975 0.960 . S
C992 C993 1.391 . S
C992 C994 1.394 . S
C992 H1008 0.931 . S
C993 C992 1.391 . S
C993 C997 1.376 . S
C994 C992 1.394 . S
C994 C995 1.369 . S
C994 C998 1.531 . S
C995 C994 1.369 . S
C995 C996 1.410 . S
C995 C1003 1.503 . S
C996 C995 1.410 . S
C996 C997 1.392 . S
C996 C999 1.511 . S
C997 C993 1.376 . S
C997 C996 1.392 . S
C997 H1009 0.929 . S
C998 C994 1.531 . S
C998 H1010 0.960 . S
C998 H1011 0.962 . S
C998 H1012 0.960 . S
C999 C996 1.511 . S
C999 H1013 0.961 . S
C999 H1014 0.961 . S
C999 H1015 0.961 . S
C1000 C1001 1.370 . S
C1000 C1002 1.363 . S
C1000 H1016 0.931 . S
C1001 C1000 1.370 . S
C1001 C1005 1.408 . S
C1002 C1000 1.363 . S
C1002 C1003 1.370 . S
C1002 C1006 1.524 . S
C1003 C995 1.503 . S
C1003 C1002 1.370 . S
C1003 C1004 1.403 . S
C1004 C1003 1.403 . S
C1004 C1005 1.404 . S
C1004 C1007 1.539 . S
C1005 C1001 1.408 . S
C1005 C1004 1.404 . S
C1005 H1017 0.930 . S
C1006 C1002 1.524 . S
C1006 H1018 0.956 . S
C1006 H1019 0.961 . S
C1006 H1020 0.961 . S
C1007 C1004 1.539 . S
C1007 H1021 0.958 . S
C1007 H1022 0.961 . S
C1007 H1023 0.960 . S
H1008 C992 0.931 . S
H1009 C997 0.929 . S
H1010 C998 0.960 . S
H1011 C998 0.962 . S
H1012 C998 0.960 . S
H1013 C999 0.961 . S
H1014 C999 0.961 . S
H1015 C999 0.961 . S
H1016 C1000 0.931 . S
H1017 C1005 0.930 . S
H1018 C1006 0.956 . S
H1019 C1006 0.961 . S
H1020 C1006 0.961 . S
H1021 C1007 0.958 . S
H1022 C1007 0.961 . S
H1023 C1007 0.960 . S
C1024 C1025 1.391 . S
C1024 C1026 1.394 . S
C1024 H1040 0.931 . S
C1025 C1024 1.391 . S
C1025 C1029 1.376 . S
C1026 C1024 1.394 . S
C1026 C1027 1.369 . S
C1026 C1030 1.531 . S
C1027 C1026 1.369 . S
C1027 C1028 1.410 . S
C1027 C1035 1.503 . S
C1028 C1027 1.410 . S
C1028 C1029 1.392 . S
C1028 C1031 1.511 . S
C1029 C1025 1.376 . S
C1029 C1028 1.392 . S
C1029 H1041 0.929 . S
C1030 C1026 1.531 . S
C1030 H1042 0.960 . S
C1030 H1043 0.962 . S
C1030 H1044 0.960 . S
C1031 C1028 1.511 . S
C1031 H1045 0.961 . S
C1031 H1046 0.961 . S
C1031 H1047 0.961 . S
C1032 C1033 1.370 . S
C1032 C1034 1.363 . S
C1032 H1048 0.931 . S
C1033 C1032 1.370 . S
C1033 C1037 1.408 . S
C1034 C1032 1.363 . S
C1034 C1035 1.370 . S
C1034 C1038 1.524 . S
C1035 C1027 1.503 . S
C1035 C1034 1.370 . S
C1035 C1036 1.403 . S
C1036 C1035 1.403 . S
C1036 C1037 1.404 . S
C1036 C1039 1.539 . S
C1037 C1033 1.408 . S
C1037 C1036 1.404 . S
C1037 H1049 0.930 . S
C1038 C1034 1.524 . S
C1038 H1050 0.956 . S
C1038 H1051 0.961 . S
C1038 H1052 0.961 . S
C1039 C1036 1.539 . S
C1039 H1053 0.958 . S
C1039 H1054 0.961 . S
C1039 H1055 0.960 . S
H1040 C1024 0.931 . S
H1041 C1029 0.929 . S
H1042 C1030 0.960 . S
H1043 C1030 0.962 . S
H1044 C1030 0.960 . S
H1045 C1031 0.961 . S
H1046 C1031 0.961 . S
H1047 C1031 0.961 . S
H1048 C1032 0.931 . S
H1049 C1037 0.930 . S
H1050 C1038 0.956 . S
H1051 C1038 0.961 . S
H1052 C1038 0.961 . S
H1053 C1039 0.958 . S
H1054 C1039 0.961 . S
H1055 C1039 0.960 . S
C1056 C1057 1.391 . S
C1056 C1058 1.394 . S
C1056 H1072 0.931 . S
C1057 C1056 1.391 . S
C1057 C1061 1.376 . S
C1058 C1056 1.394 . S
C1058 C1059 1.369 . S
C1058 C1062 1.531 1_545 S
C1059 C1058 1.369 . S
C1059 C1060 1.410 . S
C1059 C1067 1.503 1_545 S
C1060 C1059 1.410 . S
C1060 C1061 1.392 . S
C1060 C1063 1.511 . S
C1061 C1057 1.376 . S
C1061 C1060 1.392 . S
C1061 H1073 0.929 . S
C1062 C1058 1.531 1_565 S
C1062 H1074 0.960 . S
C1062 H1075 0.962 . S
C1062 H1076 0.960 . S
C1063 C1060 1.511 . S
C1063 H1077 0.961 . S
C1063 H1078 0.961 . S
C1063 H1079 0.961 . S
C1064 C1065 1.370 . S
C1064 C1066 1.363 . S
C1064 H1080 0.931 . S
C1065 C1064 1.370 . S
C1065 C1069 1.408 . S
C1066 C1064 1.363 . S
C1066 C1067 1.370 . S
C1066 C1070 1.524 1_565 S
C1067 C1059 1.503 1_565 S
C1067 C1066 1.370 . S
C1067 C1068 1.403 . S
C1068 C1067 1.403 . S
C1068 C1069 1.404 . S
C1068 C1071 1.539 . S
C1069 C1065 1.408 . S
C1069 C1068 1.404 . S
C1069 H1081 0.930 . S
C1070 C1066 1.524 1_545 S
C1070 H1082 0.956 . S
C1070 H1083 0.961 . S
C1070 H1084 0.961 . S
C1071 C1068 1.539 . S
C1071 H1085 0.958 . S
C1071 H1086 0.961 . S
C1071 H1087 0.960 . S
H1072 C1056 0.931 . S
H1073 C1061 0.929 . S
H1074 C1062 0.960 . S
H1075 C1062 0.962 . S
H1076 C1062 0.960 . S
H1077 C1063 0.961 . S
H1078 C1063 0.961 . S
H1079 C1063 0.961 . S
H1080 C1064 0.931 . S
H1081 C1069 0.930 . S
H1082 C1070 0.956 . S
H1083 C1070 0.961 . S
H1084 C1070 0.961 . S
H1085 C1071 0.958 . S
H1086 C1071 0.961 . S
H1087 C1071 0.960 . S
C1088 C1089 1.391 . S
C1088 C1090 1.394 . S
C1088 H1104 0.931 . S
C1089 C1088 1.391 . S
C1089 C1093 1.376 . S
C1090 C1088 1.394 . S
C1090 C1091 1.369 . S
C1090 C1094 1.531 . S
C1091 C1090 1.369 . S
C1091 C1092 1.410 . S
C1091 C1099 1.503 . S
C1092 C1091 1.410 . S
C1092 C1093 1.392 . S
C1092 C1095 1.511 . S
C1093 C1089 1.376 . S
C1093 C1092 1.392 . S
C1093 H1105 0.929 . S
C1094 C1090 1.531 . S
C1094 H1106 0.960 . S
C1094 H1107 0.962 . S
C1094 H1108 0.960 . S
C1095 C1092 1.511 . S
C1095 H1109 0.961 . S
C1095 H1110 0.961 . S
C1095 H1111 0.961 . S
C1096 C1097 1.370 . S
C1096 C1098 1.363 . S
C1096 H1112 0.931 . S
C1097 C1096 1.370 . S
C1097 C1101 1.408 . S
C1098 C1096 1.363 . S
C1098 C1099 1.370 . S
C1098 C1102 1.524 . S
C1099 C1091 1.503 . S
C1099 C1098 1.370 . S
C1099 C1100 1.403 . S
C1100 C1099 1.403 . S
C1100 C1101 1.404 . S
C1100 C1103 1.539 . S
C1101 C1097 1.408 . S
C1101 C1100 1.404 . S
C1101 H1113 0.930 . S
C1102 C1098 1.524 . S
C1102 H1114 0.956 . S
C1102 H1115 0.961 . S
C1102 H1116 0.961 . S
C1103 C1100 1.539 . S
C1103 H1117 0.958 . S
C1103 H1118 0.961 . S
C1103 H1119 0.960 . S
H1104 C1088 0.931 . S
H1105 C1093 0.929 . S
H1106 C1094 0.960 . S
H1107 C1094 0.962 . S
H1108 C1094 0.960 . S
H1109 C1095 0.961 . S
H1110 C1095 0.961 . S
H1111 C1095 0.961 . S
H1112 C1096 0.931 . S
H1113 C1101 0.930 . S
H1114 C1102 0.956 . S
H1115 C1102 0.961 . S
H1116 C1102 0.961 . S
H1117 C1103 0.958 . S
H1118 C1103 0.961 . S
H1119 C1103 0.960 . S
C1120 C1121 1.391 . S
C1120 C1122 1.394 . S
C1120 H1136 0.931 . S
C1121 C1120 1.391 . S
C1121 C1125 1.376 . S
C1122 C1120 1.394 . S
C1122 C1123 1.369 1_565 S
C1122 C1126 1.531 . S
C1123 C1122 1.369 1_545 S
C1123 C1124 1.410 . S
C1123 C1131 1.503 . S
C1124 C1123 1.410 . S
C1124 C1125 1.392 1_545 S
C1124 C1127 1.511 . S
C1125 C1121 1.376 . S
C1125 C1124 1.392 1_565 S
C1125 H1137 0.929 . S
C1126 C1122 1.531 . S
C1126 H1138 0.960 1_565 S
C1126 H1139 0.962 . S
C1126 H1140 0.960 . S
C1127 C1124 1.511 . S
C1127 H1141 0.961 . S
C1127 H1142 0.961 . S
C1127 H1143 0.961 . S
C1128 C1129 1.370 . S
C1128 C1130 1.363 . S
C1128 H1144 0.931 . S
C1129 C1128 1.370 . S
C1129 C1133 1.408 . S
C1130 C1128 1.363 . S
C1130 C1131 1.370 . S
C1130 C1134 1.524 1_545 S
C1131 C1123 1.503 . S
C1131 C1130 1.370 . S
C1131 C1132 1.403 . S
C1132 C1131 1.403 . S
C1132 C1133 1.404 . S
C1132 C1135 1.539 . S
C1133 C1129 1.408 . S
C1133 C1132 1.404 . S
C1133 H1145 0.930 . S
C1134 C1130 1.524 1_565 S
C1134 H1146 0.956 . S
C1134 H1147 0.961 . S
C1134 H1148 0.961 . S
C1135 C1132 1.539 . S
C1135 H1149 0.958 . S
C1135 H1150 0.961 . S
C1135 H1151 0.960 . S
H1136 C1120 0.931 . S
H1137 C1125 0.929 . S
H1138 C1126 0.960 1_545 S
H1139 C1126 0.962 . S
H1140 C1126 0.960 . S
H1141 C1127 0.961 . S
H1142 C1127 0.961 . S
H1143 C1127 0.961 . S
H1144 C1128 0.931 . S
H1145 C1133 0.930 . S
H1146 C1134 0.956 . S
H1147 C1134 0.961 . S
H1148 C1134 0.961 . S
H1149 C1135 0.958 . S
H1150 C1135 0.961 . S
H1151 C1135 0.960 . S
C1152 C1153 1.391 . S
C1152 C1154 1.394 . S
C1152 H1168 0.931 . S
C1153 C1152 1.391 . S
C1153 C1157 1.376 . S
C1154 C1152 1.394 . S
C1154 C1155 1.369 1_556 S
C1154 C1158 1.531 . S
C1155 C1154 1.369 1_554 S
C1155 C1156 1.410 . S
C1155 C1163 1.503 . S
C1156 C1155 1.410 . S
C1156 C1157 1.392 1_554 S
C1156 C1159 1.511 . S
C1157 C1153 1.376 . S
C1157 C1156 1.392 1_556 S
C1157 H1169 0.929 . S
C1158 C1154 1.531 . S
C1158 H1170 0.960 . S
C1158 H1171 0.962 . S
C1158 H1172 0.960 . S
C1159 C1156 1.511 . S
C1159 H1173 0.961 . S
C1159 H1174 0.961 . S
C1159 H1175 0.961 . S
C1160 C1161 1.370 . S
C1160 C1162 1.363 . S
C1160 H1176 0.931 . S
C1161 C1160 1.370 . S
C1161 C1165 1.408 . S
C1162 C1160 1.363 . S
C1162 C1163 1.370 . S
C1162 C1166 1.524 1_554 S
C1163 C1155 1.503 . S
C1163 C1162 1.370 . S
C1163 C1164 1.403 . S
C1164 C1163 1.403 . S
C1164 C1165 1.404 . S
C1164 C1167 1.539 . S
C1165 C1161 1.408 . S
C1165 C1164 1.404 . S
C1165 H1177 0.930 . S
C1166 C1162 1.524 1_556 S
C1166 H1178 0.956 . S
C1166 H1179 0.961 . S
C1166 H1180 0.961 . S
C1167 C1164 1.539 . S
C1167 H1181 0.958 . S
C1167 H1182 0.961 . S
C1167 H1183 0.960 . S
H1168 C1152 0.931 . S
H1169 C1157 0.929 . S
H1170 C1158 0.960 . S
H1171 C1158 0.962 . S
H1172 C1158 0.960 . S
H1173 C1159 0.961 . S
H1174 C1159 0.961 . S
H1175 C1159 0.961 . S
H1176 C1160 0.931 . S
H1177 C1165 0.930 . S
H1178 C1166 0.956 . S
H1179 C1166 0.961 . S
H1180 C1166 0.961 . S
H1181 C1167 0.958 . S
H1182 C1167 0.961 . S
H1183 C1167 0.960 . S
C1184 C1185 1.391 . S
C1184 C1186 1.394 . S
C1184 H1200 0.931 . S
C1185 C1184 1.391 . S
C1185 C1189 1.376 . S
C1186 C1184 1.394 . S
C1186 C1187 1.369 . S
C1186 C1190 1.531 . S
C1187 C1186 1.369 . S
C1187 C1188 1.410 . S
C1187 C1195 1.503 1_455 S
C1188 C1187 1.410 . S
C1188 C1189 1.392 . S
C1188 C1191 1.511 1_455 S
C1189 C1185 1.376 . S
C1189 C1188 1.392 . S
C1189 H1201 0.929 . S
C1190 C1186 1.531 . S
C1190 H1202 0.960 . S
C1190 H1203 0.962 . S
C1190 H1204 0.960 . S
C1191 C1188 1.511 1_655 S
C1191 H1205 0.961 . S
C1191 H1206 0.961 . S
C1191 H1207 0.961 . S
C1192 C1193 1.370 . S
C1192 C1194 1.384 . S
C1192 H1208 0.931 . S
C1193 C1192 1.370 . S
C1193 C1197 1.408 . S
C1194 C1192 1.384 . S
C1194 C1195 1.374 . S
C1194 C1198 1.501 1_655 S
C1195 C1187 1.503 1_655 S
C1195 C1194 1.374 . S
C1195 C1196 1.403 . S
C1196 C1195 1.403 . S
C1196 C1197 1.404 . S
C1196 C1199 1.539 . S
C1197 C1193 1.408 . S
C1197 C1196 1.404 . S
C1197 H1209 0.930 . S
C1198 C1194 1.501 1_455 S
C1198 H1210 0.956 . S
C1198 H1211 0.961 . S
C1198 H1212 0.961 . S
C1199 C1196 1.539 . S
C1199 H1213 0.958 . S
C1199 H1214 0.961 . S
C1199 H1215 0.960 . S
H1200 C1184 0.931 . S
H1201 C1189 0.929 . S
H1202 C1190 0.960 . S
H1203 C1190 0.962 . S
H1204 C1190 0.960 . S
H1205 C1191 0.961 . S
H1206 C1191 0.961 . S
H1207 C1191 0.961 . S
H1208 C1192 0.931 . S
H1209 C1197 0.930 . S
H1210 C1198 0.956 . S
H1211 C1198 0.961 . S
H1212 C1198 0.961 . S
H1213 C1199 0.958 . S
H1214 C1199 0.961 . S
H1215 C1199 0.960 . S
C1216 C1217 1.391 . S
C1216 C1218 1.394 . S
C1216 H1232 0.931 . S
C1217 C1216 1.391 . S
C1217 C1221 1.376 . S
C1218 C1216 1.394 . S
C1218 C1219 1.369 . S
C1218 C1222 1.531 . S
C1219 C1218 1.369 . S
C1219 C1220 1.410 . S
C1219 C1227 1.503 . S
C1220 C1219 1.410 . S
C1220 C1221 1.392 . S
C1220 C1223 1.511 . S
C1221 C1217 1.376 . S
C1221 C1220 1.392 . S
C1221 H1233 0.929 . S
C1222 C1218 1.531 . S
C1222 H1234 0.960 . S
C1222 H1235 0.962 . S
C1222 H1236 0.960 . S
C1223 C1220 1.511 . S
C1223 H1237 0.961 . S
C1223 H1238 0.961 . S
C1223 H1239 0.961 . S
C1224 C1225 1.370 . S
C1224 C1226 1.363 . S
C1224 H1240 0.931 . S
C1225 C1224 1.370 . S
C1225 C1229 1.408 . S
C1226 C1224 1.363 . S
C1226 C1227 1.370 . S
C1226 C1230 1.524 . S
C1227 C1219 1.503 . S
C1227 C1226 1.370 . S
C1227 C1228 1.403 . S
C1228 C1227 1.403 . S
C1228 C1229 1.404 . S
C1228 C1231 1.539 . S
C1229 C1225 1.408 . S
C1229 C1228 1.404 . S
C1229 H1241 0.930 . S
C1230 C1226 1.524 . S
C1230 H1242 0.956 . S
C1230 H1243 0.961 . S
C1230 H1244 0.961 . S
C1231 C1228 1.539 . S
C1231 H1245 0.958 . S
C1231 H1246 0.961 . S
C1231 H1247 0.960 . S
H1232 C1216 0.931 . S
H1233 C1221 0.929 . S
H1234 C1222 0.960 . S
H1235 C1222 0.962 . S
H1236 C1222 0.960 . S
H1237 C1223 0.961 . S
H1238 C1223 0.961 . S
H1239 C1223 0.961 . S
H1240 C1224 0.931 . S
H1241 C1229 0.930 . S
H1242 C1230 0.956 . S
H1243 C1230 0.961 . S
H1244 C1230 0.961 . S
H1245 C1231 0.958 . S
H1246 C1231 0.961 . S
H1247 C1231 0.960 . S
C1248 C1249 1.391 . S
C1248 C1250 1.394 . S
C1248 H1264 0.931 . S
C1249 C1248 1.391 . S
C1249 C1253 1.376 . S
C1250 C1248 1.394 . S
C1250 C1251 1.369 . S
C1250 C1254 1.531 . S
C1251 C1250 1.369 . S
C1251 C1252 1.410 . S
C1251 C1259 1.503 1_655 S
C1252 C1251 1.410 . S
C1252 C1253 1.392 . S
C1252 C1255 1.511 . S
C1253 C1249 1.376 . S
C1253 C1252 1.392 . S
C1253 H1265 0.929 . S
C1254 C1250 1.531 . S
C1254 H1266 0.960 1_655 S
C1254 H1267 0.962 1_655 S
C1254 H1268 0.960 . S
C1255 C1252 1.511 . S
C1255 H1269 0.961 . S
C1255 H1270 0.961 . S
C1255 H1271 0.961 . S
C1256 C1257 1.370 . S
C1256 C1258 1.363 . S
C1256 H1272 0.931 . S
C1257 C1256 1.370 . S
C1257 C1261 1.408 . S
C1258 C1256 1.363 . S
C1258 C1259 1.370 . S
C1258 C1262 1.524 . S
C1259 C1251 1.503 1_455 S
C1259 C1258 1.370 . S
C1259 C1260 1.403 . S
C1260 C1259 1.403 . S
C1260 C1261 1.404 . S
C1260 C1263 1.539 1_455 S
C1261 C1257 1.408 . S
C1261 C1260 1.404 . S
C1261 H1273 0.930 . S
C1262 C1258 1.524 . S
C1262 H1274 0.956 . S
C1262 H1275 0.961 . S
C1262 H1276 0.961 . S
C1263 C1260 1.539 1_655 S
C1263 H1277 0.958 . S
C1263 H1278 0.961 . S
C1263 H1279 0.960 . S
H1264 C1248 0.931 . S
H1265 C1253 0.929 . S
H1266 C1254 0.960 1_455 S
H1267 C1254 0.962 1_455 S
H1268 C1254 0.960 . S
H1269 C1255 0.961 . S
H1270 C1255 0.961 . S
H1271 C1255 0.961 . S
H1272 C1256 0.931 . S
H1273 C1261 0.930 . S
H1274 C1262 0.956 . S
H1275 C1262 0.961 . S
H1276 C1262 0.961 . S
H1277 C1263 0.958 . S
H1278 C1263 0.961 . S
H1279 C1263 0.960 . S
C1280 C1281 1.391 . S
C1280 C1282 1.394 . S
C1280 H1296 0.931 . S
C1281 C1280 1.391 . S
C1281 C1285 1.376 . S
C1282 C1280 1.394 . S
C1282 C1283 1.369 . S
C1282 C1286 1.531 . S
C1283 C1282 1.369 . S
C1283 C1284 1.410 . S
C1283 C1291 1.503 . S
C1284 C1283 1.410 . S
C1284 C1285 1.392 . S
C1284 C1287 1.511 . S
C1285 C1281 1.376 . S
C1285 C1284 1.392 . S
C1285 H1297 0.929 . S
C1286 C1282 1.531 . S
C1286 H1298 0.960 . S
C1286 H1299 0.962 . S
C1286 H1300 0.960 . S
C1287 C1284 1.511 . S
C1287 H1301 0.961 . S
C1287 H1302 0.961 . S
C1287 H1303 0.961 . S
C1288 C1289 1.370 . S
C1288 C1290 1.363 . S
C1288 H1304 0.931 . S
C1289 C1288 1.370 . S
C1289 C1293 1.408 . S
C1290 C1288 1.363 . S
C1290 C1291 1.370 . S
C1290 C1294 1.524 . S
C1291 C1283 1.503 . S
C1291 C1290 1.370 . S
C1291 C1292 1.403 . S
C1292 C1291 1.403 . S
C1292 C1293 1.404 . S
C1292 C1295 1.539 . S
C1293 C1289 1.408 . S
C1293 C1292 1.404 . S
C1293 H1305 0.930 . S
C1294 C1290 1.524 . S
C1294 H1306 0.956 . S
C1294 H1307 0.961 . S
C1294 H1308 0.961 . S
C1295 C1292 1.539 . S
C1295 H1309 0.958 . S
C1295 H1310 0.961 . S
C1295 H1311 0.960 . S
H1296 C1280 0.931 . S
H1297 C1285 0.929 . S
H1298 C1286 0.960 . S
H1299 C1286 0.962 . S
H1300 C1286 0.960 . S
H1301 C1287 0.961 . S
H1302 C1287 0.961 . S
H1303 C1287 0.961 . S
H1304 C1288 0.931 . S
H1305 C1293 0.930 . S
H1306 C1294 0.956 . S
H1307 C1294 0.961 . S
H1308 C1294 0.961 . S
H1309 C1295 0.958 . S
H1310 C1295 0.961 . S
H1311 C1295 0.960 . S
C1312 C1313 1.391 . S
C1312 C1314 1.394 1_545 S
C1312 H1328 0.931 . S
C1313 C1312 1.391 . S
C1313 C1317 1.376 . S
C1314 C1312 1.394 1_565 S
C1314 C1315 1.369 1_565 S
C1314 C1318 1.531 . S
C1315 C1314 1.369 1_545 S
C1315 C1316 1.410 . S
C1315 C1323 1.503 1_545 S
C1316 C1315 1.410 . S
C1316 C1317 1.392 . S
C1316 C1319 1.511 . S
C1317 C1313 1.376 . S
C1317 C1316 1.392 . S
C1317 H1329 0.929 . S
C1318 C1314 1.531 . S
C1318 H1330 0.960 . S
C1318 H1331 0.962 . S
C1318 H1332 0.960 . S
C1319 C1316 1.511 . S
C1319 H1333 0.961 . S
C1319 H1334 0.961 . S
C1319 H1335 0.961 . S
C1320 C1321 1.370 . S
C1320 C1322 1.363 . S
C1320 H1336 0.931 . S
C1321 C1320 1.370 . S
C1321 C1325 1.408 . S
C1322 C1320 1.363 . S
C1322 C1323 1.370 . S
C1322 C1326 1.524 1_565 S
C1323 C1315 1.503 1_565 S
C1323 C1322 1.370 . S
C1323 C1324 1.403 . S
C1324 C1323 1.403 . S
C1324 C1325 1.404 . S
C1324 C1327 1.539 . S
C1325 C1321 1.408 . S
C1325 C1324 1.404 . S
C1325 H1337 0.930 . S
C1326 C1322 1.524 1_545 S
C1326 H1338 0.956 . S
C1326 H1339 0.961 . S
C1326 H1340 0.961 . S
C1327 C1324 1.539 . S
C1327 H1341 0.958 . S
C1327 H1342 0.961 . S
C1327 H1343 0.960 . S
H1328 C1312 0.931 . S
H1329 C1317 0.929 . S
H1330 C1318 0.960 . S
H1331 C1318 0.962 . S
H1332 C1318 0.960 . S
H1333 C1319 0.961 . S
H1334 C1319 0.961 . S
H1335 C1319 0.961 . S
H1336 C1320 0.931 . S
H1337 C1325 0.930 . S
H1338 C1326 0.956 . S
H1339 C1326 0.961 . S
H1340 C1326 0.961 . S
H1341 C1327 0.958 . S
H1342 C1327 0.961 . S
H1343 C1327 0.960 . S
C1344 C1345 1.391 . S
C1344 C1346 1.394 . S
C1344 H1360 0.931 . S
C1345 C1344 1.391 . S
C1345 C1349 1.376 . S
C1346 C1344 1.394 . S
C1346 C1347 1.369 . S
C1346 C1350 1.531 . S
C1347 C1346 1.369 . S
C1347 C1348 1.410 . S
C1347 C1355 1.503 . S
C1348 C1347 1.410 . S
C1348 C1349 1.392 . S
C1348 C1351 1.511 . S
C1349 C1345 1.376 . S
C1349 C1348 1.392 . S
C1349 H1361 0.929 . S
C1350 C1346 1.531 . S
C1350 H1362 0.960 . S
C1350 H1363 0.962 . S
C1350 H1364 0.960 . S
C1351 C1348 1.511 . S
C1351 H1365 0.961 . S
C1351 H1366 0.961 . S
C1351 H1367 0.961 . S
C1352 C1353 1.370 . S
C1352 C1354 1.363 . S
C1352 H1368 0.931 . S
C1353 C1352 1.370 . S
C1353 C1357 1.408 . S
C1354 C1352 1.363 . S
C1354 C1355 1.370 . S
C1354 C1358 1.524 . S
C1355 C1347 1.503 . S
C1355 C1354 1.370 . S
C1355 C1356 1.403 . S
C1356 C1355 1.403 . S
C1356 C1357 1.404 . S
C1356 C1359 1.539 . S
C1357 C1353 1.408 . S
C1357 C1356 1.404 . S
C1357 H1369 0.930 . S
C1358 C1354 1.524 . S
C1358 H1370 0.956 . S
C1358 H1371 0.961 . S
C1358 H1372 0.961 . S
C1359 C1356 1.539 . S
C1359 H1373 0.958 . S
C1359 H1374 0.961 . S
C1359 H1375 0.960 . S
H1360 C1344 0.931 . S
H1361 C1349 0.929 . S
H1362 C1350 0.960 . S
H1363 C1350 0.962 . S
H1364 C1350 0.960 . S
H1365 C1351 0.961 . S
H1366 C1351 0.961 . S
H1367 C1351 0.961 . S
H1368 C1352 0.931 . S
H1369 C1357 0.930 . S
H1370 C1358 0.956 . S
H1371 C1358 0.961 . S
H1372 C1358 0.961 . S
H1373 C1359 0.958 . S
H1374 C1359 0.961 . S
H1375 C1359 0.960 . S
C1376 C1377 1.391 . S
C1376 C1378 1.394 1_545 S
C1376 H1392 0.931 . S
C1377 C1376 1.391 . S
C1377 C1381 1.376 . S
C1378 C1376 1.394 1_565 S
C1378 C1379 1.369 . S
C1378 C1382 1.531 . S
C1379 C1378 1.369 . S
C1379 C1380 1.410 1_565 S
C1379 C1387 1.503 . S
C1380 C1379 1.410 1_545 S
C1380 C1381 1.392 . S
C1380 C1383 1.511 . S
C1381 C1377 1.376 . S
C1381 C1380 1.392 . S
C1381 H1393 0.929 . S
C1382 C1378 1.531 . S
C1382 H1394 0.960 . S
C1382 H1395 0.962 . S
C1382 H1396 0.960 . S
C1383 C1380 1.511 . S
C1383 H1397 0.961 . S
C1383 H1398 0.961 . S
C1383 H1399 0.941 1_545 S
C1384 C1385 1.370 . S
C1384 C1386 1.363 . S
C1384 H1400 0.931 . S
C1385 C1384 1.370 . S
C1385 C1389 1.408 . S
C1386 C1384 1.363 . S
C1386 C1387 1.370 . S
C1386 C1390 1.524 1_565 S
C1387 C1379 1.503 . S
C1387 C1386 1.370 . S
C1387 C1388 1.403 . S
C1388 C1387 1.403 . S
C1388 C1389 1.404 . S
C1388 C1391 1.539 . S
C1389 C1385 1.408 . S
C1389 C1388 1.404 . S
C1389 H1401 0.930 . S
C1390 C1386 1.524 1_545 S
C1390 H1402 0.956 . S
C1390 H1403 0.961 . S
C1390 H1404 0.961 . S
C1391 C1388 1.539 . S
C1391 H1405 0.958 . S
C1391 H1406 0.961 . S
C1391 H1407 0.960 . S
H1392 C1376 0.931 . S
H1393 C1381 0.929 . S
H1394 C1382 0.960 . S
H1395 C1382 0.962 . S
H1396 C1382 0.960 . S
H1397 C1383 0.961 . S
H1398 C1383 0.961 . S
H1399 C1383 0.941 1_565 S
H1400 C1384 0.931 . S
H1401 C1389 0.930 . S
H1402 C1390 0.956 . S
H1403 C1390 0.961 . S
H1404 C1390 0.961 . S
H1405 C1391 0.958 . S
H1406 C1391 0.961 . S
H1407 C1391 0.960 . S
C1408 C1409 1.391 . S
C1408 C1410 1.394 1_554 S
C1408 H1424 0.931 . S
C1409 C1408 1.391 . S
C1409 C1413 1.376 . S
C1410 C1408 1.394 1_556 S
C1410 C1411 1.369 1_556 S
C1410 C1414 1.531 . S
C1411 C1410 1.369 1_554 S
C1411 C1412 1.410 . S
C1411 C1419 1.503 1_554 S
C1412 C1411 1.410 . S
C1412 C1413 1.392 . S
C1412 C1415 1.511 . S
C1413 C1409 1.376 . S
C1413 C1412 1.392 . S
C1413 H1425 0.929 . S
C1414 C1410 1.531 . S
C1414 H1426 0.960 . S
C1414 H1427 0.962 . S
C1414 H1428 0.960 . S
C1415 C1412 1.511 . S
C1415 H1429 0.961 . S
C1415 H1430 0.961 . S
C1415 H1431 0.961 . S
C1416 C1417 1.370 . S
C1416 C1418 1.363 . S
C1416 H1432 0.931 . S
C1417 C1416 1.370 . S
C1417 C1421 1.408 . S
C1418 C1416 1.363 . S
C1418 C1419 1.370 . S
C1418 C1422 1.524 . S
C1419 C1411 1.503 1_556 S
C1419 C1418 1.370 . S
C1419 C1420 1.403 . S
C1420 C1419 1.403 . S
C1420 C1421 1.404 . S
C1420 C1423 1.539 . S
C1421 C1417 1.408 . S
C1421 C1420 1.404 . S
C1421 H1433 0.930 . S
C1422 C1418 1.524 . S
C1422 H1434 0.956 . S
C1422 H1435 0.961 1_556 S
C1422 H1436 0.961 . S
C1423 C1420 1.539 . S
C1423 H1437 0.958 . S
C1423 H1438 0.961 . S
C1423 H1439 0.960 . S
H1424 C1408 0.931 . S
H1425 C1413 0.929 . S
H1426 C1414 0.960 . S
H1427 C1414 0.962 . S
H1428 C1414 0.960 . S
H1429 C1415 0.961 . S
H1430 C1415 0.961 . S
H1431 C1415 0.961 . S
H1432 C1416 0.931 . S
H1433 C1421 0.930 . S
H1434 C1422 0.956 . S
H1435 C1422 0.961 1_554 S
H1436 C1422 0.961 . S
H1437 C1423 0.958 . S
H1438 C1423 0.961 . S
H1439 C1423 0.960 . S
C1440 C1441 1.391 . S
C1440 C1442 1.394 . S
C1440 H1456 0.931 . S
C1441 C1440 1.391 . S
C1441 C1445 1.376 . S
C1442 C1440 1.394 . S
C1442 C1443 1.369 . S
C1442 C1446 1.531 . S
C1443 C1442 1.369 . S
C1443 C1444 1.410 1_455 S
C1443 C1451 1.503 1_455 S
C1444 C1443 1.410 1_655 S
C1444 C1445 1.392 1_655 S
C1444 C1447 1.511 . S
C1445 C1441 1.376 . S
C1445 C1444 1.392 1_455 S
C1445 H1457 0.929 . S
C1446 C1442 1.531 . S
C1446 H1458 0.960 . S
C1446 H1459 0.962 . S
C1446 H1460 0.960 . S
C1447 C1444 1.511 . S
C1447 H1461 0.961 . S
C1447 H1462 0.961 . S
C1447 H1463 0.961 . S
C1448 C1449 1.370 . S
C1448 C1450 1.363 . S
C1448 H1464 0.931 . S
C1449 C1448 1.370 . S
C1449 C1453 1.408 . S
C1450 C1448 1.363 . S
C1450 C1451 1.370 . S
C1450 C1454 1.524 1_655 S
C1451 C1443 1.503 1_655 S
C1451 C1450 1.370 . S
C1451 C1452 1.403 . S
C1452 C1451 1.403 . S
C1452 C1453 1.404 . S
C1452 C1455 1.539 . S
C1453 C1449 1.408 . S
C1453 C1452 1.404 . S
C1453 H1465 0.930 . S
C1454 C1450 1.524 1_455 S
C1454 H1466 0.956 . S
C1454 H1467 0.960 1_455 S
C1454 H1468 0.961 1_455 S
C1455 C1452 1.539 . S
C1455 H1469 0.958 . S
C1455 H1470 0.961 . S
C1455 H1471 0.960 . S
H1456 C1440 0.931 . S
H1457 C1445 0.929 . S
H1458 C1446 0.960 . S
H1459 C1446 0.962 . S
H1460 C1446 0.960 . S
H1461 C1447 0.961 . S
H1462 C1447 0.961 . S
H1463 C1447 0.961 . S
H1464 C1448 0.931 . S
H1465 C1453 0.930 . S
H1466 C1454 0.956 . S
H1467 C1454 0.960 1_655 S
H1468 C1454 0.961 1_655 S
H1469 C1455 0.958 . S
H1470 C1455 0.961 . S
H1471 C1455 0.960 . S
C1472 C1473 1.391 . S
C1472 C1474 1.394 . S
C1472 H1488 0.931 . S
C1473 C1472 1.391 . S
C1473 C1477 1.376 . S
C1474 C1472 1.394 . S
C1474 C1475 1.369 . S
C1474 C1478 1.531 . S
C1475 C1474 1.369 . S
C1475 C1476 1.410 . S
C1475 C1483 1.503 . S
C1476 C1475 1.410 . S
C1476 C1477 1.392 . S
C1476 C1479 1.511 . S
C1477 C1473 1.376 . S
C1477 C1476 1.392 . S
C1477 H1489 0.929 . S
C1478 C1474 1.531 . S
C1478 H1490 0.960 . S
C1478 H1491 0.962 . S
C1478 H1492 0.960 . S
C1479 C1476 1.511 . S
C1479 H1493 0.961 . S
C1479 H1494 0.961 . S
C1479 H1495 0.961 . S
C1480 C1481 1.370 . S
C1480 C1482 1.363 . S
C1480 H1496 0.931 . S
C1481 C1480 1.370 . S
C1481 C1485 1.408 . S
C1482 C1480 1.363 . S
C1482 C1483 1.370 . S
C1482 C1486 1.524 . S
C1483 C1475 1.503 . S
C1483 C1482 1.370 . S
C1483 C1484 1.403 . S
C1484 C1483 1.403 . S
C1484 C1485 1.404 . S
C1484 C1487 1.539 . S
C1485 C1481 1.408 . S
C1485 C1484 1.404 . S
C1485 H1497 0.930 . S
C1486 C1482 1.524 . S
C1486 H1498 0.956 . S
C1486 H1499 0.961 . S
C1486 H1500 0.961 . S
C1487 C1484 1.539 . S
C1487 H1501 0.958 . S
C1487 H1502 0.961 . S
C1487 H1503 0.960 . S
H1488 C1472 0.931 . S
H1489 C1477 0.929 . S
H1490 C1478 0.960 . S
H1491 C1478 0.962 . S
H1492 C1478 0.960 . S
H1493 C1479 0.961 . S
H1494 C1479 0.961 . S
H1495 C1479 0.961 . S
H1496 C1480 0.931 . S
H1497 C1485 0.930 . S
H1498 C1486 0.956 . S
H1499 C1486 0.961 . S
H1500 C1486 0.961 . S
H1501 C1487 0.958 . S
H1502 C1487 0.961 . S
H1503 C1487 0.960 . S
C1504 C1505 1.391 . S
C1504 C1506 1.394 . S
C1504 H1520 0.931 . S
C1505 C1504 1.391 . S
C1505 C1509 1.376 . S
C1506 C1504 1.394 . S
C1506 C1507 1.369 . S
C1506 C1510 1.531 1_655 S
C1507 C1506 1.369 . S
C1507 C1508 1.410 . S
C1507 C1515 1.503 . S
C1508 C1507 1.410 . S
C1508 C1509 1.392 . S
C1508 C1511 1.511 . S
C1509 C1505 1.376 . S
C1509 C1508 1.392 . S
C1509 H1521 0.929 . S
C1510 C1506 1.531 1_455 S
C1510 H1522 0.960 . S
C1510 H1523 0.962 . S
C1510 H1524 0.959 1_455 S
C1511 C1508 1.511 . S
C1511 H1525 0.961 . S
C1511 H1526 0.961 . S
C1511 H1527 0.961 . S
C1512 C1513 1.370 . S
C1512 C1514 1.363 . S
C1512 H1528 0.931 . S
C1513 C1512 1.370 . S
C1513 C1517 1.408 . S
C1514 C1512 1.363 . S
C1514 C1515 1.370 1_455 S
C1514 C1518 1.524 . S
C1515 C1507 1.503 . S
C1515 C1514 1.370 1_655 S
C1515 C1516 1.403 . S
C1516 C1515 1.403 . S
C1516 C1517 1.404 1_655 S
C1516 C1519 1.539 . S
C1517 C1513 1.408 . S
C1517 C1516 1.404 1_455 S
C1517 H1529 0.930 . S
C1518 C1514 1.524 . S
C1518 H1530 0.956 . S
C1518 H1531 0.961 1_455 S
C1518 H1532 0.961 . S
C1519 C1516 1.539 . S
C1519 H1533 0.958 . S
C1519 H1534 0.961 . S
C1519 H1535 0.960 . S
H1520 C1504 0.931 . S
H1521 C1509 0.929 . S
H1522 C1510 0.960 . S
H1523 C1510 0.962 . S
H1524 C1510 0.959 1_655 S
H1525 C1511 0.961 . S
H1526 C1511 0.961 . S
H1527 C1511 0.961 . S
H1528 C1512 0.931 . S
H1529 C1517 0.930 . S
H1530 C1518 0.956 . S
H1531 C1518 0.961 1_655 S
H1532 C1518 0.961 . S
H1533 C1519 0.958 . S
H1534 C1519 0.961 . S
H1535 C1519 0.960 . S
C1536 C1537 1.391 . S
C1536 C1538 1.394 . S
C1536 H1552 0.931 . S
C1537 C1536 1.391 . S
C1537 C1541 1.376 . S
C1538 C1536 1.394 . S
C1538 C1539 1.369 . S
C1538 C1542 1.531 . S
C1539 C1538 1.369 . S
C1539 C1540 1.410 . S
C1539 C1547 1.503 . S
C1540 C1539 1.410 . S
C1540 C1541 1.392 . S
C1540 C1543 1.511 . S
C1541 C1537 1.376 . S
C1541 C1540 1.392 . S
C1541 H1553 0.929 . S
C1542 C1538 1.531 . S
C1542 H1554 0.960 . S
C1542 H1555 0.962 . S
C1542 H1556 0.960 . S
C1543 C1540 1.511 . S
C1543 H1557 0.961 . S
C1543 H1558 0.961 . S
C1543 H1559 0.961 . S
C1544 C1545 1.370 . S
C1544 C1546 1.363 . S
C1544 H1560 0.931 . S
C1545 C1544 1.370 . S
C1545 C1549 1.408 . S
C1546 C1544 1.363 . S
C1546 C1547 1.370 . S
C1546 C1550 1.524 . S
C1547 C1539 1.503 . S
C1547 C1546 1.370 . S
C1547 C1548 1.403 . S
C1548 C1547 1.403 . S
C1548 C1549 1.404 . S
C1548 C1551 1.539 . S
C1549 C1545 1.408 . S
C1549 C1548 1.404 . S
C1549 H1561 0.930 . S
C1550 C1546 1.524 . S
C1550 H1562 0.956 . S
C1550 H1563 0.961 . S
C1550 H1564 0.961 . S
C1551 C1548 1.539 . S
C1551 H1565 0.958 . S
C1551 H1566 0.961 . S
C1551 H1567 0.960 . S
H1552 C1536 0.931 . S
H1553 C1541 0.929 . S
H1554 C1542 0.960 . S
H1555 C1542 0.962 . S
H1556 C1542 0.960 . S
H1557 C1543 0.961 . S
H1558 C1543 0.961 . S
H1559 C1543 0.961 . S
H1560 C1544 0.931 . S
H1561 C1549 0.930 . S
H1562 C1550 0.956 . S
H1563 C1550 0.961 . S
H1564 C1550 0.961 . S
H1565 C1551 0.958 . S
H1566 C1551 0.961 . S
H1567 C1551 0.960 . S
C1568 C1569 1.391 . S
C1568 C1570 1.394 . S
C1568 H1584 0.931 . S
C1569 C1568 1.391 . S
C1569 C1573 1.376 . S
C1570 C1568 1.394 . S
C1570 C1571 1.369 . S
C1570 C1574 1.531 . S
C1571 C1570 1.369 . S
C1571 C1572 1.410 . S
C1571 C1579 1.503 . S
C1572 C1571 1.410 . S
C1572 C1573 1.392 . S
C1572 C1575 1.511 . S
C1573 C1569 1.376 . S
C1573 C1572 1.392 . S
C1573 H1585 0.929 . S
C1574 C1570 1.531 . S
C1574 H1586 0.960 . S
C1574 H1587 0.962 . S
C1574 H1588 0.960 . S
C1575 C1572 1.511 . S
C1575 H1589 0.961 . S
C1575 H1590 0.961 . S
C1575 H1591 0.961 . S
C1576 C1577 1.370 . S
C1576 C1578 1.363 . S
C1576 H1592 0.931 . S
C1577 C1576 1.370 . S
C1577 C1581 1.408 . S
C1578 C1576 1.363 . S
C1578 C1579 1.370 . S
C1578 C1582 1.524 . S
C1579 C1571 1.503 . S
C1579 C1578 1.370 . S
C1579 C1580 1.403 . S
C1580 C1579 1.403 . S
C1580 C1581 1.404 . S
C1580 C1583 1.539 . S
C1581 C1577 1.408 . S
C1581 C1580 1.404 . S
C1581 H1593 0.930 . S
C1582 C1578 1.524 . S
C1582 H1594 0.956 . S
C1582 H1595 0.961 . S
C1582 H1596 0.961 . S
C1583 C1580 1.539 . S
C1583 H1597 0.958 . S
C1583 H1598 0.961 . S
C1583 H1599 0.960 . S
H1584 C1568 0.931 . S
H1585 C1573 0.929 . S
H1586 C1574 0.960 . S
H1587 C1574 0.962 . S
H1588 C1574 0.960 . S
H1589 C1575 0.961 . S
H1590 C1575 0.961 . S
H1591 C1575 0.961 . S
H1592 C1576 0.931 . S
H1593 C1581 0.930 . S
H1594 C1582 0.956 . S
H1595 C1582 0.961 . S
H1596 C1582 0.961 . S
H1597 C1583 0.958 . S
H1598 C1583 0.961 . S
H1599 C1583 0.960 . S
C1600 C1601 1.391 . S
C1600 C1602 1.394 . S
C1600 H1616 0.931 . S
C1601 C1600 1.391 . S
C1601 C1605 1.376 . S
C1602 C1600 1.394 . S
C1602 C1603 1.369 . S
C1602 C1606 1.531 1_556 S
C1603 C1602 1.369 . S
C1603 C1604 1.410 . S
C1603 C1611 1.503 1_556 S
C1604 C1603 1.410 . S
C1604 C1605 1.392 . S
C1604 C1607 1.511 . S
C1605 C1601 1.376 . S
C1605 C1604 1.392 . S
C1605 H1617 0.929 . S
C1606 C1602 1.531 1_554 S
C1606 H1618 0.960 . S
C1606 H1619 0.962 . S
C1606 H1620 0.960 . S
C1607 C1604 1.511 . S
C1607 H1621 0.961 . S
C1607 H1622 0.961 . S
C1607 H1623 0.961 . S
C1608 C1609 1.370 . S
C1608 C1610 1.363 . S
C1608 H1624 0.931 . S
C1609 C1608 1.370 . S
C1609 C1613 1.408 . S
C1610 C1608 1.363 . S
C1610 C1611 1.370 . S
C1610 C1614 1.524 . S
C1611 C1603 1.503 1_554 S
C1611 C1610 1.370 . S
C1611 C1612 1.403 . S
C1612 C1611 1.403 . S
C1612 C1613 1.404 . S
C1612 C1615 1.539 . S
C1613 C1609 1.408 . S
C1613 C1612 1.404 . S
C1613 H1625 0.930 . S
C1614 C1610 1.524 . S
C1614 H1626 0.956 . S
C1614 H1627 0.961 1_554 S
C1614 H1628 0.961 . S
C1615 C1612 1.539 . S
C1615 H1629 0.958 . S
C1615 H1630 0.961 . S
C1615 H1631 0.960 1_554 S
H1616 C1600 0.931 . S
H1617 C1605 0.929 . S
H1618 C1606 0.960 . S
H1619 C1606 0.962 . S
H1620 C1606 0.960 . S
H1621 C1607 0.961 . S
H1622 C1607 0.961 . S
H1623 C1607 0.961 . S
H1624 C1608 0.931 . S
H1625 C1613 0.930 . S
H1626 C1614 0.956 . S
H1627 C1614 0.961 1_556 S
H1628 C1614 0.961 . S
H1629 C1615 0.958 . S
H1630 C1615 0.961 . S
H1631 C1615 0.960 1_556 S
C1632 C1633 1.391 . S
C1632 C1634 1.394 . S
C1632 H1648 0.931 . S
C1633 C1632 1.391 . S
C1633 C1637 1.376 . S
C1634 C1632 1.394 . S
C1634 C1635 1.369 . S
C1634 C1638 1.531 . S
C1635 C1634 1.369 . S
C1635 C1636 1.410 . S
C1635 C1643 1.503 . S
C1636 C1635 1.410 . S
C1636 C1637 1.392 . S
C1636 C1639 1.511 . S
C1637 C1633 1.376 . S
C1637 C1636 1.392 . S
C1637 H1649 0.929 . S
C1638 C1634 1.531 . S
C1638 H1650 0.960 . S
C1638 H1651 0.962 . S
C1638 H1652 0.960 . S
C1639 C1636 1.511 . S
C1639 H1653 0.961 . S
C1639 H1654 0.961 . S
C1639 H1655 0.961 . S
C1640 C1641 1.370 . S
C1640 C1642 1.363 . S
C1640 H1656 0.931 . S
C1641 C1640 1.370 . S
C1641 C1645 1.408 . S
C1642 C1640 1.363 . S
C1642 C1643 1.370 . S
C1642 C1646 1.524 . S
C1643 C1635 1.503 . S
C1643 C1642 1.370 . S
C1643 C1644 1.403 . S
C1644 C1643 1.403 . S
C1644 C1645 1.404 . S
C1644 C1647 1.539 . S
C1645 C1641 1.408 . S
C1645 C1644 1.404 . S
C1645 H1657 0.930 . S
C1646 C1642 1.524 . S
C1646 H1658 0.956 . S
C1646 H1659 0.961 . S
C1646 H1660 0.961 . S
C1647 C1644 1.539 . S
C1647 H1661 0.958 . S
C1647 H1662 0.961 . S
C1647 H1663 0.960 . S
H1648 C1632 0.931 . S
H1649 C1637 0.929 . S
H1650 C1638 0.960 . S
H1651 C1638 0.962 . S
H1652 C1638 0.960 . S
H1653 C1639 0.961 . S
H1654 C1639 0.961 . S
H1655 C1639 0.961 . S
H1656 C1640 0.931 . S
H1657 C1645 0.930 . S
H1658 C1646 0.956 . S
H1659 C1646 0.961 . S
H1660 C1646 0.961 . S
H1661 C1647 0.958 . S
H1662 C1647 0.961 . S
H1663 C1647 0.960 . S
C1664 C1665 1.391 . S
C1664 C1666 1.394 . S
C1664 H1680 0.931 . S
C1665 C1664 1.391 . S
C1665 C1669 1.376 . S
C1666 C1664 1.394 . S
C1666 C1667 1.369 . S
C1666 C1670 1.531 . S
C1667 C1666 1.369 . S
C1667 C1668 1.410 . S
C1667 C1675 1.503 . S
C1668 C1667 1.410 . S
C1668 C1669 1.392 . S
C1668 C1671 1.511 . S
C1669 C1665 1.376 . S
C1669 C1668 1.392 . S
C1669 H1681 0.929 . S
C1670 C1666 1.531 . S
C1670 H1682 0.960 . S
C1670 H1683 0.962 . S
C1670 H1684 0.960 . S
C1671 C1668 1.511 . S
C1671 H1685 0.961 . S
C1671 H1686 0.961 . S
C1671 H1687 0.961 . S
C1672 C1673 1.370 . S
C1672 C1674 1.363 . S
C1672 H1688 0.931 . S
C1673 C1672 1.370 . S
C1673 C1677 1.408 . S
C1674 C1672 1.363 . S
C1674 C1675 1.370 . S
C1674 C1678 1.524 . S
C1675 C1667 1.503 . S
C1675 C1674 1.370 . S
C1675 C1676 1.403 . S
C1676 C1675 1.403 . S
C1676 C1677 1.404 . S
C1676 C1679 1.539 . S
C1677 C1673 1.408 . S
C1677 C1676 1.404 . S
C1677 H1689 0.930 . S
C1678 C1674 1.524 . S
C1678 H1690 0.956 . S
C1678 H1691 0.961 . S
C1678 H1692 0.961 . S
C1679 C1676 1.539 . S
C1679 H1693 0.958 . S
C1679 H1694 0.961 . S
C1679 H1695 0.960 . S
H1680 C1664 0.931 . S
H1681 C1669 0.929 . S
H1682 C1670 0.960 . S
H1683 C1670 0.962 . S
H1684 C1670 0.960 . S
H1685 C1671 0.961 . S
H1686 C1671 0.961 . S
H1687 C1671 0.961 . S
H1688 C1672 0.931 . S
H1689 C1677 0.930 . S
H1690 C1678 0.956 . S
H1691 C1678 0.961 . S
H1692 C1678 0.961 . S
H1693 C1679 0.958 . S
H1694 C1679 0.961 . S
H1695 C1679 0.960 . S
C1696 C1697 1.391 . S
C1696 C1698 1.394 . S
C1696 H1712 0.931 . S
C1697 C1696 1.391 . S
C1697 C1701 1.376 . S
C1698 C1696 1.394 . S
C1698 C1699 1.369 . S
C1698 C1702 1.531 . S
C1699 C1698 1.369 . S
C1699 C1700 1.410 . S
C1699 C1707 1.503 . S
C1700 C1699 1.410 . S
C1700 C1701 1.392 . S
C1700 C1703 1.511 . S
C1701 C1697 1.376 . S
C1701 C1700 1.392 . S
C1701 H1713 0.929 . S
C1702 C1698 1.531 . S
C1702 H1714 0.960 . S
C1702 H1715 0.962 . S
C1702 H1716 0.960 . S
C1703 C1700 1.511 . S
C1703 H1717 0.961 . S
C1703 H1718 0.961 . S
C1703 H1719 0.961 . S
C1704 C1705 1.370 . S
C1704 C1706 1.363 . S
C1704 H1720 0.931 . S
C1705 C1704 1.370 . S
C1705 C1709 1.408 . S
C1706 C1704 1.363 . S
C1706 C1707 1.370 . S
C1706 C1710 1.524 . S
C1707 C1699 1.503 . S
C1707 C1706 1.370 . S
C1707 C1708 1.403 . S
C1708 C1707 1.403 . S
C1708 C1709 1.404 . S
C1708 C1711 1.539 . S
C1709 C1705 1.408 . S
C1709 C1708 1.404 . S
C1709 H1721 0.930 . S
C1710 C1706 1.524 . S
C1710 H1722 0.956 . S
C1710 H1723 0.961 . S
C1710 H1724 0.961 . S
C1711 C1708 1.539 . S
C1711 H1725 0.958 . S
C1711 H1726 0.961 . S
C1711 H1727 0.960 . S
H1712 C1696 0.931 . S
H1713 C1701 0.929 . S
H1714 C1702 0.960 . S
H1715 C1702 0.962 . S
H1716 C1702 0.960 . S
H1717 C1703 0.961 . S
H1718 C1703 0.961 . S
H1719 C1703 0.961 . S
H1720 C1704 0.931 . S
H1721 C1709 0.930 . S
H1722 C1710 0.956 . S
H1723 C1710 0.961 . S
H1724 C1710 0.961 . S
H1725 C1711 0.958 . S
H1726 C1711 0.961 . S
H1727 C1711 0.960 . S
C1728 C1729 1.391 . S
C1728 C1730 1.394 . S
C1728 H1744 0.931 . S
C1729 C1728 1.391 . S
C1729 C1733 1.376 . S
C1730 C1728 1.394 . S
C1730 C1731 1.369 . S
C1730 C1734 1.531 1_556 S
C1731 C1730 1.369 . S
C1731 C1732 1.410 . S
C1731 C1739 1.492 1_556 S
C1732 C1731 1.410 . S
C1732 C1733 1.392 . S
C1732 C1735 1.511 . S
C1733 C1729 1.376 . S
C1733 C1732 1.392 . S
C1733 H1745 0.929 . S
C1734 C1730 1.531 1_554 S
C1734 H1746 0.960 . S
C1734 H1747 0.962 . S
C1734 H1748 0.960 . S
C1735 C1732 1.511 . S
C1735 H1749 0.961 . S
C1735 H1750 0.961 . S
C1735 H1751 0.961 . S
C1736 C1737 1.370 . S
C1736 C1738 1.363 . S
C1736 H1752 0.931 . S
C1737 C1736 1.370 . S
C1737 C1741 1.408 . S
C1738 C1736 1.363 . S
C1738 C1739 1.380 . S
C1738 C1742 1.524 . S
C1739 C1731 1.492 1_554 S
C1739 C1738 1.380 . S
C1739 C1740 1.404 . S
C1740 C1739 1.404 . S
C1740 C1741 1.404 . S
C1740 C1743 1.539 1_554 S
C1741 C1737 1.408 . S
C1741 C1740 1.404 . S
C1741 H1753 0.930 . S
C1742 C1738 1.524 . S
C1742 H1754 0.956 . S
C1742 H1755 0.961 1_554 S
C1742 H1756 0.961 . S
C1743 C1740 1.539 1_556 S
C1743 H1757 0.958 . S
C1743 H1758 0.961 . S
C1743 H1759 0.960 . S
H1744 C1728 0.931 . S
H1745 C1733 0.929 . S
H1746 C1734 0.960 . S
H1747 C1734 0.962 . S
H1748 C1734 0.960 . S
H1749 C1735 0.961 . S
H1750 C1735 0.961 . S
H1751 C1735 0.961 . S
H1752 C1736 0.931 . S
H1753 C1741 0.930 . S
H1754 C1742 0.956 . S
H1755 C1742 0.961 1_556 S
H1756 C1742 0.961 . S
H1757 C1743 0.958 . S
H1758 C1743 0.961 . S
H1759 C1743 0.960 . S
C1760 C1761 1.391 . S
C1760 C1762 1.394 . S
C1760 H1776 0.931 . S
C1761 C1760 1.391 . S
C1761 C1765 1.376 . S
C1762 C1760 1.394 . S
C1762 C1763 1.369 . S
C1762 C1766 1.531 . S
C1763 C1762 1.369 . S
C1763 C1764 1.410 . S
C1763 C1771 1.503 . S
C1764 C1763 1.410 . S
C1764 C1765 1.392 . S
C1764 C1767 1.511 . S
C1765 C1761 1.376 . S
C1765 C1764 1.392 . S
C1765 H1777 0.929 . S
C1766 C1762 1.531 . S
C1766 H1778 0.960 . S
C1766 H1779 0.962 . S
C1766 H1780 0.960 . S
C1767 C1764 1.511 . S
C1767 H1781 0.961 . S
C1767 H1782 0.961 . S
C1767 H1783 0.961 . S
C1768 C1769 1.370 . S
C1768 C1770 1.363 . S
C1768 H1784 0.931 . S
C1769 C1768 1.370 . S
C1769 C1773 1.408 . S
C1770 C1768 1.363 . S
C1770 C1771 1.370 . S
C1770 C1774 1.524 . S
C1771 C1763 1.503 . S
C1771 C1770 1.370 . S
C1771 C1772 1.403 . S
C1772 C1771 1.403 . S
C1772 C1773 1.404 . S
C1772 C1775 1.539 . S
C1773 C1769 1.408 . S
C1773 C1772 1.404 . S
C1773 H1785 0.930 . S
C1774 C1770 1.524 . S
C1774 H1786 0.956 . S
C1774 H1787 0.961 . S
C1774 H1788 0.961 . S
C1775 C1772 1.539 . S
C1775 H1789 0.958 . S
C1775 H1790 0.961 . S
C1775 H1791 0.960 . S
H1776 C1760 0.931 . S
H1777 C1765 0.929 . S
H1778 C1766 0.960 . S
H1779 C1766 0.962 . S
H1780 C1766 0.960 . S
H1781 C1767 0.961 . S
H1782 C1767 0.961 . S
H1783 C1767 0.961 . S
H1784 C1768 0.931 . S
H1785 C1773 0.930 . S
H1786 C1774 0.956 . S
H1787 C1774 0.961 . S
H1788 C1774 0.961 . S
H1789 C1775 0.958 . S
H1790 C1775 0.961 . S
H1791 C1775 0.960 . S
C1792 C1793 1.391 . S
C1792 C1794 1.394 . S
C1792 H1808 0.931 . S
C1793 C1792 1.391 . S
C1793 C1797 1.376 . S
C1794 C1792 1.394 . S
C1794 C1795 1.369 . S
C1794 C1798 1.531 . S
C1795 C1794 1.369 . S
C1795 C1796 1.410 . S
C1795 C1803 1.503 . S
C1796 C1795 1.410 . S
C1796 C1797 1.392 . S
C1796 C1799 1.511 . S
C1797 C1793 1.376 . S
C1797 C1796 1.392 . S
C1797 H1809 0.929 . S
C1798 C1794 1.531 . S
C1798 H1810 0.960 . S
C1798 H1811 0.962 . S
C1798 H1812 0.960 . S
C1799 C1796 1.511 . S
C1799 H1813 0.961 . S
C1799 H1814 0.961 . S
C1799 H1815 0.961 . S
C1800 C1801 1.370 . S
C1800 C1802 1.363 . S
C1800 H1816 0.931 . S
C1801 C1800 1.370 . S
C1801 C1805 1.408 . S
C1802 C1800 1.363 . S
C1802 C1803 1.370 . S
C1802 C1806 1.524 . S
C1803 C1795 1.503 . S
C1803 C1802 1.370 . S
C1803 C1804 1.403 . S
C1804 C1803 1.403 . S
C1804 C1805 1.404 . S
C1804 C1807 1.539 . S
C1805 C1801 1.408 . S
C1805 C1804 1.404 . S
C1805 H1817 0.930 . S
C1806 C1802 1.524 . S
C1806 H1818 0.956 . S
C1806 H1819 0.961 . S
C1806 H1820 0.961 . S
C1807 C1804 1.539 . S
C1807 H1821 0.958 . S
C1807 H1822 0.961 . S
C1807 H1823 0.960 . S
H1808 C1792 0.931 . S
H1809 C1797 0.929 . S
H1810 C1798 0.960 . S
H1811 C1798 0.962 . S
H1812 C1798 0.960 . S
H1813 C1799 0.961 . S
H1814 C1799 0.961 . S
H1815 C1799 0.961 . S
H1816 C1800 0.931 . S
H1817 C1805 0.930 . S
H1818 C1806 0.956 . S
H1819 C1806 0.961 . S
H1820 C1806 0.961 . S
H1821 C1807 0.958 . S
H1822 C1807 0.961 . S
H1823 C1807 0.960 . S
C545 C9 0.794 . S
C553 C515 0.910 . S
C577 C281 1.771 . S
C585 C39 1.939 . S
C609 C417 1.198 . S
C617 C77 1.199 . S
C641 C111 1.725 . S
C649 C345 1.827 . S
C673 C379 1.625 . S
C681 C43 1.474 . S
C705 C73 1.486 . S
C713 C311 1.485 . S
C737 C107 1.814 . S
C745 C451 1.653 . S
C769 C5 1.148 . S
C777 C247 1.082 . S
C801 C277 1.677 . S
C809 C145 1.538 . S
C833 C413 1.227 . S
C841 C179 1.142 . S
C865 C209 1.904 . S
C873 C349 1.728 . S
C897 C213 1.587 . S
C905 C447 1.760 . S
C929 C141 1.840 . S
C937 C383 1.677 . S
C961 C485 0.994 . S
C969 C243 1.003 . S
C993 C315 1.430 . S
C1001 C175 1.632 . S
C1025 C519 0.984 . S
C1033 C481 1.054 . S
C1057 C2 1.605 . S
C1065 C54 1.586 . S
C1089 C36 1.894 . S
C1097 C101 1.934 . S
C1121 C70 1.789 . S
C1129 C104 1.813 . S
C1153 C122 1.212 . S
C1161 C33 1.220 . S
C1185 C20 1.549 . S
C1193 C190 1.543 . S
C1217 C169 1.366 . S
C1225 C135 1.380 . S
C1249 C237 1.621 . S
C1257 C67 1.621 . S
C1281 C496 1.539 . S
C1289 C88 1.532 . S
C1313 C292 1.812 . S
C1321 C240 1.783 . S
C1345 C274 1.775 . S
C1353 C308 1.769 . S
C1377 C339 1.855 . S
C1385 C342 1.832 . S
C1409 C360 1.554 . S
C1417 C271 1.591 . S
C1441 C428 1.488 . S
C1449 C258 1.464 . S
C1473 C407 1.248 . S
C1481 C373 1.251 . S
C1505 C305 1.259 . S
C1513 C475 1.253 . S
C1537 C530 1.383 . S
C1545 C326 1.413 . S
C1569 C156 1.751 . S
C1577 C478 1.732 . S
C1601 C138 2.122 . S
C1609 C172 2.102 . S
C1633 C203 1.615 . S
C1641 C206 1.600 . S
C1665 C509 1.065 . S
C1673 C224 1.078 . S
C1697 C394 1.791 . S
C1705 C512 1.760 . S
C1729 C410 1.709 . S
C1737 C376 1.693 . S
C1761 C441 1.786 . S
C1769 C444 1.752 . S
C1793 C543 1.562 . S
C1801 C462 1.542 . S
