# Generated by pormake.
# Topology uon, (4)-cn, num edge types: 1
# Building blocks:
#     Node 0, Type 0, BuildingBlock: QUQFOY_clean_sbu_1, # of connection points: 4
#     Node 1, Type 0, BuildingBlock: QUQFOY_clean_sbu_1, # of connection points: 4
#     Node 2, Type 0, BuildingBlock: QUQFOY_clean_sbu_1, # of connection points: 4
#     Node 3, Type 0, BuildingBlock: QUQFOY_clean_sbu_1, # of connection points: 4
#     Node 4, Type 0, BuildingBlock: QUQFOY_clean_sbu_1, # of connection points: 4
#     Node 5, Type 0, BuildingBlock: QUQFOY_clean_sbu_1, # of connection points: 4
#     Edge 6, Type (0, 0), BuildingBlock: MIFKUJ_clean_linker_0, # of connection points: 2
#     Edge 7, Type (0, 0), BuildingBlock: MIFKUJ_clean_linker_0, # of connection points: 2
#     Edge 8, Type (0, 0), BuildingBlock: MIFKUJ_clean_linker_0, # of connection points: 2
#     Edge 9, Type (0, 0), BuildingBlock: MIFKUJ_clean_linker_0, # of connection points: 2
#     Edge 10, Type (0, 0), BuildingBlock: MIFKUJ_clean_linker_0, # of connection points: 2
#     Edge 11, Type (0, 0), BuildingBlock: MIFKUJ_clean_linker_0, # of connection points: 2
#     Edge 12, Type (0, 0), BuildingBlock: MIFKUJ_clean_linker_0, # of connection points: 2
#     Edge 13, Type (0, 0), BuildingBlock: MIFKUJ_clean_linker_0, # of connection points: 2
#     Edge 14, Type (0, 0), BuildingBlock: MIFKUJ_clean_linker_0, # of connection points: 2
#     Edge 15, Type (0, 0), BuildingBlock: MIFKUJ_clean_linker_0, # of connection points: 2
#     Edge 16, Type (0, 0), BuildingBlock: MIFKUJ_clean_linker_0, # of connection points: 2
#     Edge 17, Type (0, 0), BuildingBlock: MIFKUJ_clean_linker_0, # of connection points: 2
# Relax obj value: 0.076
# Max RMSD: 0.264
# Mean RMSD: 0.264
data_MOF--net-uon--node1-QUQFOY_clean_sbu_1--edge1-MIFKUJ_clean_linker_0
_symmetry_space_group_name_H-M    P1
_symmetry_Int_Tables_number       1
_symmetry_cell_setting            triclinic
loop_
_symmetry_equiv_pos_as_xyz
'x, y, z'
_cell_length_a     51.240158
_cell_length_b     51.179047
_cell_length_c     15.817209
_cell_angle_alpha  90.039448
_cell_angle_beta   89.944521
_cell_angle_gamma 119.93584
loop_
_atom_site_label
_atom_site_type_symbol
_atom_site_fract_x
_atom_site_fract_y
_atom_site_fract_z
_atom_type_partial_charge
O0 O 0.27951 0.49324 0.91578 0.0
Cd1 Cd 0.26517 0.46123 0.01001 0.0
Cd2 Cd 0.21218 0.46013 0.97806 0.0
O3 O 0.2361 0.48944 0.87987 0.0
O4 O 0.29732 0.45005 0.01999 0.0
O5 O 0.2512 0.41809 0.97599 0.0
C6 C 0.27832 0.42376 0.99102 0.0
C7 C 0.16087 0.42336 0.97145 0.0
C8 C 0.26452 0.50164 0.87051 0.0
C9 C 0.24367 0.48629 0.14533 0.0
O10 O 0.22273 0.48106 0.09346 0.0
O11 O 0.26285 0.47817 0.12793 0.0
O12 O 0.16992 0.45168 0.9647 0.0
O13 O 0.1812 0.4155 0.97533 0.0
O14 O 0.78912 0.27271 0.224 0.0
Cd15 Cd 0.81064 0.26372 0.31906 0.0
Cd16 Cd 0.75581 0.21415 0.33471 0.0
O17 O 0.74375 0.23309 0.23679 0.0
O18 O 0.85283 0.29722 0.29989 0.0
O19 O 0.84071 0.24952 0.29522 0.0
C20 C 0.86093 0.27752 0.28635 0.0
C21 C 0.74223 0.16318 0.34282 0.0
C22 C 0.76139 0.25873 0.20425 0.0
C23 C 0.77423 0.25988 0.47204 0.0
O24 O 0.75491 0.2337 0.44673 0.0
O25 O 0.79928 0.27489 0.43364 0.0
O26 O 0.72227 0.17146 0.34284 0.0
O27 O 0.77013 0.18376 0.33433 0.0
O28 O 0.52682 0.79154 0.54725 0.0
Cd29 Cd 0.55596 0.80783 0.64694 0.0
Cd30 Cd 0.55379 0.75489 0.63392 0.0
O31 O 0.52564 0.74813 0.5315 0.0
O32 O 0.56731 0.8513 0.65305 0.0
O33 O 0.60033 0.83672 0.62521 0.0
C34 C 0.59444 0.85834 0.63371 0.0
C35 C 0.59202 0.7424 0.64441 0.0
C36 C 0.51547 0.76566 0.51319 0.0
C37 C 0.52042 0.76219 0.77851 0.0
O38 O 0.5284 0.74542 0.74072 0.0
O39 O 0.53144 0.78966 0.7568 0.0
O40 O 0.56452 0.72221 0.62899 0.0
O41 O 0.59839 0.77019 0.64802 0.0
O42 O 0.75496 0.53304 0.91601 0.0
Cd43 Cd 0.7603 0.56021 0.0166 0.0
Cd44 Cd 0.81242 0.55839 0.03987 0.0
O45 O 0.79465 0.52801 0.94004 0.0
O46 O 0.72576 0.568 0.00291 0.0
O47 O 0.77307 0.60435 -0.00322 0.0
C48 C 0.74488 0.59603 0.9908 0.0
C49 C 0.8644 0.59294 0.05902 0.0
C50 C 0.76959 0.51939 0.90291 0.0
C51 C 0.76286 0.52314 0.16068 0.0
O52 O 0.79092 0.5351 0.1464 0.0
O53 O 0.74735 0.53258 0.12211 0.0
O54 O 0.85415 0.56439 0.05331 0.0
O55 O 0.84545 0.60238 0.04978 0.0
O56 O 0.22733 0.73326 0.32783 0.0
Cd57 Cd 0.21401 0.75158 0.42194 0.0
Cd58 Cd 0.26707 0.80107 0.37662 0.0
O59 O 0.26739 0.77387 0.27867 0.0
O60 O 0.17 0.7219 0.43644 0.0
O61 O 0.18693 0.76786 0.38619 0.0
C62 C 0.16435 0.7415 0.40292 0.0
C63 C 0.28154 0.85239 0.36688 0.0
C64 C 0.24918 0.74553 0.2761 0.0
C65 C 0.26406 0.77132 0.5455 0.0
O66 O 0.27939 0.79069 0.48924 0.0
O67 O 0.23575 0.75416 0.53599 0.0
O68 O 0.30043 0.84315 0.35359 0.0
O69 O 0.25371 0.83221 0.37957 0.0
O70 O 0.50385 0.23716 0.54158 0.0
Cd71 Cd 0.47886 0.21356 0.64445 0.0
Cd72 Cd 0.476 0.26484 0.67379 0.0
O73 O 0.50577 0.2801 0.57289 0.0
O74 O 0.47248 0.17197 0.6254 0.0
O75 O 0.43484 0.18109 0.63326 0.0
C76 C 0.44395 0.16196 0.62148 0.0
C77 C 0.43914 0.27922 0.69286 0.0
C78 C 0.51539 0.26541 0.53078 0.0
C79 C 0.51289 0.2522 0.79435 0.0
O80 O 0.49994 0.26743 0.78005 0.0
O81 O 0.50616 0.22872 0.75087 0.0
O82 O 0.46739 0.29873 0.68994 0.0
O83 O 0.43133 0.25127 0.68203 0.0
H84 H 0.26071 0.3847 0.85781 0.0
H85 H 0.28362 0.35527 0.80993 0.0
H86 H 0.34084 0.38353 0.03073 0.0
H87 H 0.31953 0.41476 0.07462 0.0
H88 H 0.37367 0.38915 0.91346 0.0
H89 H 0.27842 0.30656 0.98903 0.0
H90 H 0.22309 0.27497 -0.00675 0.0
H91 H 0.22127 0.26102 0.72511 0.0
H92 H 0.27658 0.29286 0.71908 0.0
H93 H 0.38648 0.24827 0.78184 0.0
H94 H 0.35492 0.26812 0.83609 0.0
H95 H 0.4098 0.35141 0.70168 0.0
H96 H 0.44235 0.33235 0.65237 0.0
H97 H 0.32003 0.28687 0.7872 0.0
H98 H 0.41842 0.41119 0.80368 0.0
H99 H 0.4735 0.43887 0.82415 0.0
H100 H 0.46814 0.36261 0.95355 0.0
H101 H 0.41301 0.33463 0.93486 0.0
C102 C 0.27782 0.38415 0.8967 0.0
C103 C 0.28835 0.40197 0.96992 0.0
C104 C 0.29087 0.36716 0.86954 0.0
C105 C 0.31398 0.36676 0.91674 0.0
C106 C 0.32334 0.38351 0.99231 0.0
C107 C 0.311 0.40123 0.01788 0.0
C108 C 0.33008 0.35106 0.88452 0.0
C109 C 0.36174 0.3667 0.8864 0.0
C110 C 0.3149 0.32147 0.85029 0.0
C111 C 0.28164 0.30232 0.85352 0.0
C112 C 0.2662 0.29694 0.93086 0.0
C113 C 0.23485 0.27895 0.93359 0.0
C114 C 0.21867 0.26606 0.85947 0.0
C115 C 0.23383 0.27106 0.78247 0.0
C116 C 0.26519 0.28904 0.77937 0.0
C117 C 0.39153 0.27068 0.76326 0.0
C118 C 0.41705 0.28891 0.71374 0.0
C119 C 0.37348 0.28205 0.79428 0.0
C120 C 0.38036 0.31168 0.77517 0.0
C121 C 0.40453 0.32892 0.72012 0.0
C122 C 0.42302 0.31792 0.69123 0.0
C123 C 0.36341 0.32518 0.81568 0.0
C124 C 0.33175 0.30922 0.81495 0.0
C125 C 0.37848 0.35394 0.85481 0.0
C126 C 0.41162 0.37073 0.86709 0.0
C127 C 0.42899 0.40038 0.83679 0.0
C128 C 0.46022 0.41611 0.84803 0.0
C129 C 0.47432 0.40247 0.88988 0.0
C130 C 0.45721 0.37311 0.92088 0.0
C131 C 0.42597 0.3573 0.90993 0.0
H132 H 0.4985 0.41467 0.89844 0.0
H133 H 0.1944 0.25214 0.86172 0.0
H134 H 0.90415 0.33409 0.24134 0.0
H135 H 0.95335 0.34994 0.17919 0.0
H136 H 0.93762 0.25922 0.19907 0.0
H137 H 0.88765 0.24282 0.26078 0.0
H138 H 0.99864 0.30929 0.25158 0.0
H139 H 0.93032 0.2764 0.01733 0.0
H140 H 0.88857 0.27315 0.93195 0.0
H141 H 0.9382 0.36884 0.89123 0.0
H142 H 0.98008 0.37274 0.97751 0.0
H143 H 0.13414 0.36304 0.01121 0.0
H144 H 0.08165 0.32969 0.05399 0.0
H145 H 0.06228 0.40136 0.00778 0.0
H146 H 0.1141 0.43429 0.96327 0.0
H147 H 0.01633 0.3504 0.95991 0.0
H148 H 0.07966 0.38528 0.20901 0.0
H149 H 0.12122 0.39154 0.30114 0.0
H150 H 0.08134 0.29538 0.31945 0.0
H151 H 0.03972 0.28857 0.22648 0.0
C152 C 0.91111 0.31743 0.23335 0.0
C153 C 0.89185 0.28711 0.25584 0.0
C154 C 0.93927 0.32657 0.19752 0.0
C155 C 0.94901 0.30573 0.18383 0.0
C156 C 0.93045 0.27563 0.20899 0.0
C157 C 0.90193 0.26631 0.2441 0.0
C158 C 0.97826 0.31575 0.14066 0.0
C159 C 1.00243 0.31761 0.18709 0.0
C160 C 0.98325 0.32714 0.05716 0.0
C161 C 0.95827 0.32487 0.00435 0.0
C162 C 0.93225 0.29678 0.99068 0.0
C163 C 0.90857 0.29482 0.94204 0.0
C164 C 0.91071 0.32077 0.90629 0.0
C165 C 0.93657 0.34875 0.91896 0.0
C166 C 0.96031 0.35084 0.96764 0.0
C167 C 0.11851 0.37145 0.00852 0.0
C168 C 0.1284 0.40141 0.98426 0.0
C169 C 0.08855 0.35244 0.0337 0.0
C170 C 0.06804 0.36314 0.03571 0.0
C171 C 0.07757 0.39251 0.0071 0.0
C172 C 0.10734 0.4114 0.98171 0.0
C173 C 0.03712 0.34475 0.07143 0.0
C174 C 0.01255 0.34142 0.02366 0.0
C175 C 0.03187 0.33236 0.15408 0.0
C176 C 0.05682 0.33642 0.20997 0.0
C177 C 0.07989 0.36548 0.23217 0.0
C178 C 0.10343 0.36912 0.28461 0.0
C179 C 0.10398 0.34387 0.31589 0.0
C180 C 0.08093 0.31492 0.29499 0.0
C181 C 0.05736 0.31115 0.24245 0.0
H182 H 0.12221 0.34674 0.3565 0.0
H183 H 0.89235 0.31921 0.86868 0.0
H184 H 0.69197 0.1131 0.28724 0.0
H185 H 0.6728 0.06109 0.33337 0.0
H186 H 0.75139 0.08999 0.49042 0.0
H187 H 0.7716 0.14173 0.43898 0.0
H188 H 0.73543 0.03702 0.44353 0.0
H189 H 0.68114 0.08034 0.56731 0.0
H190 H 0.65169 0.10648 0.57105 0.0
H191 H 0.58138 0.03491 0.42675 0.0
H192 H 0.61059 0.00853 0.42123 0.0
H193 H 0.60089 0.9085 0.71183 0.0
H194 H 0.63294 0.96092 0.66872 0.0
H195 H 0.66821 0.93181 0.46375 0.0
H196 H 0.63776 0.87956 0.51128 0.0
H197 H 0.62964 0.98668 0.54375 0.0
H198 H 0.73283 0.98783 0.38361 0.0
H199 H 0.76542 0.96565 0.40543 0.0
H200 H 0.74328 0.95434 0.66973 0.0
H201 H 0.71089 0.97679 0.64974 0.0
C202 C 0.70543 0.10816 0.33007 0.0
C203 C 0.73316 0.13138 0.35992 0.0
C204 C 0.69435 0.07848 0.35718 0.0
C205 C 0.71006 0.0716 0.41794 0.0
C206 C 0.73864 0.09458 0.44408 0.0
C207 C 0.75022 0.12417 0.41466 0.0
C208 C 0.69579 0.04108 0.45798 0.0
C209 C 0.7123 0.026 0.46552 0.0
C210 C 0.66593 0.02692 0.48969 0.0
C211 C 0.64817 0.0426 0.49323 0.0
C212 C 0.65947 0.07027 0.53599 0.0
C213 C 0.64281 0.08512 0.53845 0.0
C214 C 0.61471 0.0724 0.49899 0.0
C215 C 0.60316 0.04475 0.45719 0.0
C216 C 0.61975 0.02983 0.45443 0.0
C217 C 0.61615 0.91345 0.65903 0.0
C218 C 0.61701 0.89006 0.61518 0.0
C219 C 0.63433 0.94343 0.63386 0.0
C220 C 0.65318 0.95069 0.56261 0.0
C221 C 0.65456 0.92722 0.52003 0.0
C222 C 0.63703 0.89725 0.547 0.0
C223 C 0.66914 0.98227 0.5292 0.0
C224 C 0.65285 0.99759 0.52242 0.0
C225 C 0.69962 0.99711 0.50224 0.0
C226 C 0.71918 0.98371 0.51492 0.0
C227 C 0.735 0.9807 0.44643 0.0
C228 C 0.75342 0.96806 0.45847 0.0
C229 C 0.75633 0.9585 0.53886 0.0
C230 C 0.7409 0.96164 0.60743 0.0
C231 C 0.72247 0.97428 0.59575 0.0
H232 H 0.77059 0.94872 0.54804 0.0
H233 H 0.60186 0.08393 0.50095 0.0
H234 H 0.77055 0.64179 0.87562 0.0
H235 H 0.74858 0.67059 0.81599 0.0
H236 H 0.67392 0.62699 0.99006 0.0
H237 H 0.69475 0.59658 0.04446 0.0
H238 H 0.65139 0.62651 0.85521 0.0
H239 H 0.73441 0.7069 -0.00239 0.0
H240 H 0.78739 0.74016 0.03884 0.0
H241 H 0.81045 0.76905 0.78125 0.0
H242 H 0.75766 0.73566 0.73828 0.0
H243 H 0.63809 0.76924 0.7578 0.0
H244 H 0.66784 0.74824 0.8169 0.0
H245 H 0.62689 0.6744 0.63952 0.0
H246 H 0.59559 0.69424 0.58492 0.0
H247 H 0.70745 0.73511 0.78136 0.0
H248 H 0.61673 0.61021 0.71762 0.0
H249 H 0.56154 0.57924 0.70275 0.0
H250 H 0.55026 0.64326 0.85092 0.0
H251 H 0.60533 0.67439 0.86756 0.0
C252 C 0.7497 0.6388 0.90192 0.0
C253 C 0.73438 0.61704 0.96481 0.0
C254 C 0.73714 0.65539 0.86804 0.0
C255 C 0.70953 0.65139 0.89859 0.0
C256 C 0.69502 0.6305 0.96431 0.0
C257 C 0.70706 0.61324 -0.00393 0.0
C258 C 0.69466 0.66724 0.85891 0.0
C259 C 0.6638 0.65032 0.83961 0.0
C260 C 0.71036 0.69846 0.83914 0.0
C261 C 0.74213 0.71855 0.86462 0.0
C262 C 0.75082 0.72018 0.94966 0.0
C263 C 0.78081 0.73908 0.97335 0.0
C264 C 0.80229 0.75665 0.91266 0.0
C265 C 0.7938 0.7554 0.82817 0.0
C266 C 0.76384 0.73651 0.80412 0.0
C267 C 0.6358 0.74876 0.73064 0.0
C268 C 0.61433 0.73322 0.66727 0.0
C269 C 0.65283 0.73671 0.76454 0.0
C270 C 0.64912 0.70915 0.73468 0.0
C271 C 0.62949 0.69505 0.66618 0.0
C272 C 0.6118 0.70658 0.63419 0.0
C273 C 0.66432 0.69432 0.7781 0.0
C274 C 0.69517 0.71136 0.79751 0.0
C275 C 0.64833 0.6635 0.80204 0.0
C276 C 0.61515 0.64477 0.79301 0.0
C277 C 0.60245 0.61761 0.74725 0.0
C278 C 0.5712 0.60004 0.73847 0.0
C279 C 0.55241 0.60933 0.77562 0.0
C280 C 0.56483 0.63614 0.82192 0.0
C281 C 0.59606 0.65376 0.83099 0.0
H282 H 0.52823 0.59572 0.76867 0.0
H283 H 0.82549 0.77127 0.93114 0.0
H284 H 0.88756 0.64371 0.15688 0.0
H285 H 0.93877 0.6727 0.21276 0.0
H286 H 0.96482 0.61805 0.06664 0.0
H287 H 0.91309 0.58772 0.01626 0.0
H288 H 0.98746 0.62287 0.2044 0.0
H289 H 0.98848 0.69798 0.02582 0.0
H290 H 0.97109 0.73102 0.96517 0.0
H291 H 0.98007 0.77255 0.2075 0.0
H292 H 0.99717 0.73948 0.26989 0.0
H293 H 0.14718 0.7641 0.27123 0.0
H294 H 0.09682 0.74264 0.20947 0.0
H295 H 0.06074 0.67771 0.41233 0.0
H296 H 0.11134 0.69789 0.47084 0.0
H297 H 0.04485 0.73397 0.23838 0.0
H298 H 1.00496 0.61145 0.35126 0.0
H299 H 0.02695 0.57945 0.38564 0.0
H300 H 0.1031 0.63418 0.22713 0.0
H301 H 0.08138 0.66624 0.19094 0.0
C302 C 0.9044 0.63825 0.13577 0.0
C303 C 0.89635 0.61351 0.08201 0.0
C304 C 0.93382 0.65496 0.16749 0.0
C305 C 0.95618 0.64799 0.14373 0.0
C306 C 0.94823 0.62394 0.08704 0.0
C307 C 0.91864 0.60669 0.05755 0.0
C308 C 0.98719 0.66428 0.1816 0.0
C309 C 0.9999 0.64719 0.21128 0.0
C310 C 1.00414 0.69614 0.18983 0.0
C311 C 0.99383 0.71605 0.15268 0.0
C312 C 0.98654 0.71401 0.06632 0.0
C313 C 0.97677 0.73276 0.03161 0.0
C314 C 0.9744 0.75381 0.0825 0.0
C315 C 0.98188 0.7562 0.16819 0.0
C316 C 0.99164 0.73748 0.20324 0.0
C317 C 0.1284 0.74553 0.3033 0.0
C318 C 0.13327 0.73252 0.37552 0.0
C319 C 0.09954 0.73321 0.26784 0.0
C320 C 0.07484 0.70789 0.30458 0.0
C321 C 0.07941 0.6965 0.38071 0.0
C322 C 0.10835 0.70827 0.41479 0.0
C323 C 0.04481 0.69246 0.26124 0.0
C324 C 0.03231 0.70967 0.23099 0.0
C325 C 0.02862 0.66081 0.24848 0.0
C326 C 0.04168 0.64142 0.26918 0.0
C327 C 0.02634 0.61657 0.32352 0.0
C328 C 0.03877 0.59844 0.34335 0.0
C329 C 0.06645 0.60484 0.30882 0.0
C330 C 0.08171 0.62931 0.25408 0.0
C331 C 0.06936 0.64748 0.23393 0.0
H332 H 0.07605 0.59081 0.32434 0.0
H333 H 0.96683 0.76831 0.0555 0.0
H334 H 0.45463 0.11493 0.63074 0.0
H335 H 0.42179 0.0628 0.5856 0.0
H336 H 0.35319 0.08409 0.51607 0.0
H337 H 0.38586 0.13641 0.56267 0.0
H338 H 0.36299 0.01851 0.6368 0.0
H339 H 0.32319 0.04359 0.32446 0.0
H340 H 0.33929 0.08477 0.22049 0.0
H341 H 0.43185 0.11711 0.28484 0.0
H342 H 0.41631 0.0759 0.38822 0.0
H343 H 0.25408 0.87901 0.45076 0.0
H344 H 0.27652 0.93236 0.48976 0.0
H345 H 0.35621 0.95297 0.3469 0.0
H346 H 0.33422 0.89969 0.30906 0.0
H347 H 0.33724 0.99767 0.3325 0.0
H348 H 0.3586 0.94166 0.54291 0.0
H349 H 0.34397 0.90028 0.64524 0.0
H350 H 0.29154 0.93017 0.78376 0.0
H351 H 0.30552 0.97147 0.68136 0.0
C352 C 0.43242 0.10849 0.60674 0.0
C353 C 0.42287 0.12985 0.6003 0.0
C354 C 0.41364 0.07864 0.58115 0.0
C355 C 0.38509 0.06955 0.54705 0.0
C356 C 0.37519 0.09064 0.5419 0.0
C357 C 0.39383 0.12049 0.56884 0.0
C358 C 0.36641 0.03828 0.51423 0.0
C359 C 0.3571 0.014 0.57043 0.0
C360 C 0.35886 0.03228 0.42752 0.0
C361 C 0.36854 0.0569 0.36476 0.0
C362 C 0.34697 0.05946 0.31621 0.0
C363 C 0.356 0.0828 0.25739 0.0
C364 C 0.38656 0.10362 0.24631 0.0
C365 C 0.40817 0.10106 0.29375 0.0
C366 C 0.39926 0.07774 0.35254 0.0
C367 C 0.27608 0.89501 0.42599 0.0
C368 C 0.29242 0.88509 0.37701 0.0
C369 C 0.28892 0.92547 0.44863 0.0
C370 C 0.31812 0.94661 0.42165 0.0
C371 C 0.33364 0.93707 0.36828 0.0
C372 C 0.32106 0.90659 0.34685 0.0
C373 C 0.3337 0.97798 0.4552 0.0
C374 C 0.34257 1.00223 0.39914 0.0
C375 C 0.34095 0.984 0.54203 0.0
C376 C 0.33282 0.95941 0.60402 0.0
C377 C 0.34376 0.93925 0.59481 0.0
C378 C 0.33562 0.91584 0.65286 0.0
C379 C 0.31677 0.91255 0.72083 0.0
C380 C 0.30609 0.93272 0.731 0.0
C381 C 0.31412 0.95613 0.673 0.0
H382 H 0.31049 0.89441 0.76572 0.0
H383 H 0.39351 0.12168 0.20081 0.0
H384 H 0.20972 0.69069 0.21089 0.0
H385 H 0.22016 0.64948 0.19331 0.0
H386 H 0.3151 0.71175 0.22092 0.0
H387 H 0.30484 0.75331 0.23871 0.0
H388 H 0.29417 0.65171 0.11642 0.0
H389 H 0.2864 0.69244 0.38394 0.0
H390 H 0.26044 0.7141 0.46234 0.0
H391 H 0.17906 0.6281 0.46342 0.0
H392 H 0.20383 0.60673 0.37612 0.0
H393 H 0.29696 0.52422 0.22581 0.0
H394 H 0.30927 0.57347 0.28269 0.0
H395 H 0.2156 0.5484 0.2712 0.0
H396 H 0.20302 0.49897 0.21761 0.0
H397 H 0.24976 0.59719 0.38571 0.0
H398 H 0.24958 0.57108 0.07933 0.0
H399 H 0.26302 0.53902 -0.00338 0.0
H400 H 0.35437 0.59007 0.08279 0.0
H401 H 0.34126 0.62245 0.16754 0.0
C402 C 0.23297 0.69593 0.20869 0.0
C403 C 0.2564 0.72513 0.22785 0.0
C404 C 0.23892 0.6723 0.19862 0.0
C405 C 0.26835 0.67746 0.20814 0.0
C406 C 0.29225 0.70728 0.21385 0.0
C407 C 0.28632 0.73108 0.22379 0.0
C408 C 0.27259 0.65183 0.23327 0.0
C409 C 0.28535 0.6404 0.17633 0.0
C410 C 0.26082 0.63675 0.31136 0.0
C411 C 0.24696 0.64811 0.37292 0.0
C412 C 0.26297 0.67815 0.40077 0.0
C413 C 0.24839 0.69042 0.44652 0.0
C414 C 0.2182 0.6724 0.46946 0.0
C415 C 0.20248 0.64204 0.44586 0.0
C416 C 0.2167 0.62992 0.39723 0.0
C417 C 0.27874 0.52846 0.24031 0.0
C418 C 0.24915 0.50813 0.21419 0.0
C419 C 0.28585 0.55679 0.27256 0.0
C420 C 0.26351 0.56506 0.27774 0.0
C421 C 0.23332 0.54275 0.26653 0.0
C422 C 0.22616 0.51444 0.23524 0.0
C423 C 0.27135 0.59713 0.26917 0.0
C424 C 0.2602 0.60951 0.32814 0.0
C425 C 0.28471 0.61318 0.1935 0.0
C426 C 0.2946 0.59955 0.12785 0.0
C427 C 0.27282 0.57627 0.07772 0.0
C428 C 0.28039 0.55793 0.03088 0.0
C429 C 0.30986 0.5631 0.03195 0.0
C430 C 0.33181 0.58669 0.08016 0.0
C431 C 0.32437 0.60516 0.12738 0.0
H432 H 0.31559 0.54854 -0.00323 0.0
H433 H 0.20694 0.682 0.50496 0.0
H434 H 0.54019 0.24785 0.40519 0.0
H435 H 0.59298 0.26076 0.40304 0.0
H436 H 0.61396 0.33 0.58949 0.0
H437 H 0.5618 0.31848 0.58799 0.0
H438 H 0.6634 0.34342 0.51188 0.0
H439 H 0.58726 0.2554 0.64531 0.0
H440 H 0.53907 0.2075 0.65617 0.0
H441 H 0.57004 0.1671 0.47329 0.0
H442 H 0.61812 0.21492 0.45996 0.0
H443 H 0.74069 0.24391 0.61805 0.0
H444 H 0.70397 0.25967 0.65259 0.0
H445 H 0.73831 0.32334 0.44589 0.0
H446 H 0.77708 0.31089 0.42078 0.0
H447 H 0.66129 0.2469 0.56584 0.0
H448 H 0.71314 0.36548 0.41834 0.0
H449 H 0.76209 0.4127 0.4178 0.0
H450 H 0.78109 0.39209 0.66544 0.0
H451 H 0.73176 0.34504 0.66743 0.0
C452 C 0.55637 0.26692 0.44211 0.0
C453 C 0.54663 0.28165 0.49802 0.0
C454 C 0.58648 0.27396 0.44214 0.0
C455 C 0.60705 0.29512 0.50003 0.0
C456 C 0.5984 0.31302 0.54602 0.0
C457 C 0.56845 0.30654 0.5443 0.0
C458 C 0.63537 0.29513 0.52168 0.0
C459 C 0.66299 0.32236 0.52387 0.0
C460 C 0.63486 0.26791 0.54215 0.0
C461 C 0.60625 0.2388 0.55148 0.0
C462 C 0.58376 0.23629 0.60746 0.0
C463 C 0.55645 0.20919 0.61387 0.0
C464 C 0.55151 0.18429 0.56553 0.0
C465 C 0.57389 0.18642 0.51071 0.0
C466 C 0.60118 0.21352 0.50365 0.0
C467 C 0.74168 0.26287 0.58474 0.0
C468 C 0.76201 0.27648 0.51772 0.0
C469 C 0.72029 0.27152 0.60312 0.0
C470 C 0.71789 0.29277 0.55189 0.0
C471 C 0.7399 0.3079 0.48933 0.0
C472 C 0.76228 0.30056 0.47449 0.0
C473 C 0.68988 0.29507 0.55274 0.0
C474 C 0.66201 0.26818 0.55538 0.0
C475 C 0.69018 0.3227 0.54048 0.0
C476 C 0.71867 0.35202 0.54316 0.0
C477 C 0.72744 0.37149 0.47328 0.0
C478 C 0.75539 0.39799 0.47235 0.0
C479 C 0.77479 0.40529 0.54143 0.0
C480 C 0.76612 0.38625 0.61178 0.0
C481 C 0.73815 0.35971 0.61283 0.0
H482 H 0.79646 0.4258 0.54069 0.0
H483 H 0.53034 0.16334 0.57056 0.0
H484 H 0.47638 0.77741 0.78145 0.0
H485 H 0.42258 0.74096 0.79757 0.0
H486 H 0.44393 0.67413 0.88402 0.0
H487 H 0.49761 0.71026 0.86946 0.0
H488 H 0.39955 0.68313 0.69364 0.0
H489 H 0.3928 0.63428 0.02091 0.0
H490 H 0.41505 0.65281 0.16186 0.0
H491 H 0.42029 0.73771 0.11091 0.0
H492 H 0.39613 0.71882 0.97232 0.0
H493 H 0.32087 0.52606 0.80312 0.0
H494 H 0.35523 0.57978 0.77918 0.0
H495 H 0.28264 0.59786 0.82086 0.0
H496 H 0.24766 0.54384 0.84073 0.0
H497 H 0.34148 0.62383 0.94266 0.0
H498 H 0.30441 0.62215 0.66477 0.0
H499 H 0.28775 0.60055 0.52238 0.0
H500 H 0.3765 0.6164 0.46662 0.0
H501 H 0.39352 0.63736 0.60944 0.0
C502 C 0.46973 0.75544 0.80795 0.0
C503 C 0.49129 0.7466 0.82361 0.0
C504 C 0.43896 0.7345 0.81499 0.0
C505 C 0.42945 0.70475 0.83887 0.0
C506 C 0.4509 0.69698 0.86446 0.0
C507 C 0.48159 0.71776 0.85714 0.0
C508 C 0.39761 0.68071 0.82955 0.0
C509 C 0.38644 0.6704 0.74788 0.0
C510 C 0.38058 0.66449 0.90045 0.0
C511 C 0.39208 0.67485 0.98715 0.0
C512 C 0.39768 0.65645 0.04124 0.0
C513 C 0.41079 0.6671 0.12047 0.0
C514 C 0.419 0.6964 0.14551 0.0
C515 C 0.41373 0.71494 0.09178 0.0
C516 C 0.40001 0.70415 0.01331 0.0
C517 C 0.31185 0.54122 0.80298 0.0
C518 C 0.28159 0.53068 0.82467 0.0
C519 C 0.33157 0.57197 0.78997 0.0
C520 C 0.32151 0.59275 0.79938 0.0
C521 C 0.29079 0.58212 0.81326 0.0
C522 C 0.27079 0.55117 0.82368 0.0
C523 C 0.34409 0.62524 0.80677 0.0
C524 C 0.35381 0.63702 0.88826 0.0
C525 C 0.35991 0.64259 0.73552 0.0
C526 C 0.35015 0.63103 0.64835 0.0
C527 C 0.3203 0.62073 0.62252 0.0
C528 C 0.31076 0.60852 0.5418 0.0
C529 C 0.33096 0.60676 0.48592 0.0
C530 C 0.36082 0.61754 0.51028 0.0
C531 C 0.37042 0.62961 0.59112 0.0
H532 H 0.32357 0.59745 0.42338 0.0
H533 H 0.42942 0.70473 0.20653 0.0
H534 H 0.70493 0.47827 0.129 0.0
H535 H 0.6885 0.42441 0.12523 0.0
H536 H 0.77046 0.44215 0.24996 0.0
H537 H 0.78694 0.49584 0.2553 0.0
H538 H 0.74694 0.41358 0.05156 0.0
H539 H 0.71185 0.41819 0.3388 0.0
H540 H 0.67094 0.41931 0.41321 0.0
H541 H 0.6109 0.32727 0.34723 0.0
H542 H 0.65017 0.32674 0.25978 0.0
H543 H 0.79288 0.31218 0.12174 0.0
H544 H 0.77755 0.34937 0.10331 0.0
H545 H 0.68661 0.28393 0.17535 0.0
H546 H 0.70263 0.24677 0.19985 0.0
H547 H 0.6981 0.32947 0.25601 0.0
H548 H 0.70434 0.32163 0.96668 0.0
H549 H 0.72175 0.3145 0.82762 0.0
H550 H 0.80544 0.39711 0.85996 0.0
H551 H 0.78867 0.40462 -0.00046 0.0
C552 C 0.71884 0.47063 0.15957 0.0
C553 C 0.74749 0.49157 0.19191 0.0
C554 C 0.70954 0.43983 0.15601 0.0
C555 C 0.72851 0.42952 0.18608 0.0
C556 C 0.75563 0.44983 0.22592 0.0
C557 C 0.76483 0.48048 0.22997 0.0
C558 C 0.72244 0.39863 0.16813 0.0
C559 C 0.73584 0.39493 0.09538 0.0
C560 C 0.70588 0.37372 0.22277 0.0
C561 C 0.68397 0.37313 0.28665 0.0
C562 C 0.68978 0.3985 0.3356 0.0
C563 C 0.6668 0.39885 0.38204 0.0
C564 C 0.63844 0.37315 0.38687 0.0
C565 C 0.63297 0.3471 0.34419 0.0
C566 C 0.65549 0.347 0.29453 0.0
C567 C 0.76935 0.30523 0.13114 0.0
C568 C 0.74913 0.27645 0.1631 0.0
C569 C 0.76044 0.32667 0.12 0.0
C570 C 0.73075 0.31975 0.13755 0.0
C571 C 0.70972 0.2901 0.16197 0.0
C572 C 0.71881 0.26864 0.17465 0.0
C573 C 0.72333 0.34458 0.13956 0.0
C574 C 0.70795 0.34747 0.20975 0.0
C575 C 0.73488 0.36766 0.07784 0.0
C576 C 0.74535 0.3635 -0.00601 0.0
C577 C 0.72656 0.33815 0.94442 0.0
C578 C 0.73628 0.33408 0.86545 0.0
C579 C 0.76477 0.35522 0.83534 0.0
C580 C 0.78344 0.38068 0.88361 0.0
C581 C 0.77381 0.38489 0.96259 0.0
H582 H 0.77239 0.35186 0.77461 0.0
H583 H 0.62074 0.37344 0.42355 0.0
H584 H 0.24821 0.7163 0.61565 0.0
H585 H 0.28539 0.70017 0.63648 0.0
H586 H 0.35644 0.79305 0.6366 0.0
H587 H 0.31973 0.80903 0.61051 0.0
H588 H 0.32394 0.71689 0.49488 0.0
H589 H 0.41788 0.79773 0.7311 0.0
H590 H 0.42283 0.81305 0.88075 0.0
H591 H 0.33945 0.73286 0.93878 0.0
H592 H 0.33412 0.71692 0.78966 0.0
H593 H 0.49069 0.79558 0.43474 0.0
H594 H 0.43814 0.7823 0.45243 0.0
H595 H 0.41652 0.69467 0.54499 0.0
H596 H 0.46906 0.70769 0.52774 0.0
H597 H 0.41841 0.75351 0.65742 0.0
H598 H 0.34254 0.6646 0.45131 0.0
H599 H 0.33616 0.64346 0.30751 0.0
H600 H 0.37886 0.73296 0.20362 0.0
H601 H 0.38655 0.75431 0.34754 0.0
C602 C 0.27159 0.73336 0.62415 0.0
C603 C 0.28126 0.7638 0.60673 0.0
C604 C 0.29287 0.72405 0.63593 0.0
C605 C 0.32379 0.74536 0.63583 0.0
C606 C 0.33275 0.77613 0.63617 0.0
C607 C 0.31164 0.78531 0.62158 0.0
C608 C 0.34642 0.7365 0.61268 0.0
C609 C 0.34417 0.72403 0.53194 0.0
C610 C 0.37301 0.74599 0.66015 0.0
C611 C 0.37546 0.75629 0.74894 0.0
C612 C 0.40054 0.78342 0.77569 0.0
C613 C 0.40344 0.79219 0.86048 0.0
C614 C 0.38142 0.77399 0.91918 0.0
C615 C 0.35641 0.74702 0.89316 0.0
C616 C 0.35338 0.73817 0.80844 0.0
C617 C 0.47448 0.77285 0.45421 0.0
C618 C 0.48426 0.75292 0.48103 0.0
C619 C 0.44444 0.76537 0.46494 0.0
C620 C 0.42365 0.73773 0.50151 0.0
C621 C 0.43232 0.71617 0.51709 0.0
C622 C 0.4624 0.72358 0.50605 0.0
C623 C 0.39584 0.73454 0.54004 0.0
C624 C 0.39753 0.7452 0.62274 0.0
C625 C 0.36861 0.72306 0.49532 0.0
C626 C 0.36536 0.71081 0.40942 0.0
C627 C 0.35088 0.67956 0.39751 0.0
C628 C 0.34709 0.66761 0.31616 0.0
C629 C 0.35715 0.68684 0.24621 0.0
C630 C 0.37142 0.71807 0.25778 0.0
C631 C 0.37565 0.7301 0.33924 0.0
H632 H 0.35377 0.67757 0.18305 0.0
H633 H 0.38378 0.78074 0.98486 0.0
H634 H 0.55979 0.24091 0.78384 0.0
H635 H 0.61275 0.27837 0.80797 0.0
H636 H 0.58577 0.33686 0.92778 0.0
H637 H 0.53308 0.29997 0.90274 0.0
H638 H 0.63631 0.33799 0.73271 0.0
H639 H 0.63025 0.37572 0.06212 0.0
H640 H 0.5974 0.35007 0.18434 0.0
H641 H 0.60313 0.27067 0.13302 0.0
H642 H 0.63571 0.29577 0.00982 0.0
H643 H 0.71525 0.49301 0.82236 0.0
H644 H 0.67945 0.43917 0.81534 0.0
H645 H 0.74747 0.41979 0.90312 0.0
H646 H 0.78344 0.47397 0.91483 0.0
H647 H 0.68621 0.3907 -0.00132 0.0
H648 H 0.72983 0.40436 0.71606 0.0
H649 H 0.74736 0.43901 0.59404 0.0
H650 H 0.65752 0.42251 0.55451 0.0
H651 H 0.63955 0.38798 0.67578 0.0
C652 C 0.56505 0.26125 0.81812 0.0
C653 C 0.54213 0.26765 0.83983 0.0
C654 C 0.5954 0.28275 0.83122 0.0
C655 C 0.60323 0.31051 0.86894 0.0
C656 C 0.58029 0.31551 0.89898 0.0
C657 C 0.55006 0.29426 0.885 0.0
C658 C 0.63487 0.33583 0.86868 0.0
C659 C 0.64786 0.34895 0.79073 0.0
C660 C 0.64959 0.35043 0.94439 0.0
C661 C 0.63539 0.33761 0.02702 0.0
C662 C 0.62502 0.35303 0.07804 0.0
C663 C 0.60601 0.3384 0.14652 0.0
C664 C 0.59776 0.30857 0.1655 0.0
C665 C 0.60923 0.29363 0.1176 0.0
C666 C 0.62796 0.30804 0.0485 0.0
C667 C 0.72299 0.47745 0.83855 0.0
C668 C 0.7523 0.48805 0.86986 0.0
C669 C 0.70231 0.4466 0.83544 0.0
C670 C 0.71058 0.42554 0.86155 0.0
C671 C 0.74044 0.43576 0.88579 0.0
C672 C 0.76117 0.46677 0.8901 0.0
C673 C 0.68761 0.39294 0.86254 0.0
C674 C 0.67601 0.37872 0.94058 0.0
C675 C 0.6737 0.37761 0.7868 0.0
C676 C 0.68332 0.39332 0.70441 0.0
C677 C 0.71371 0.40751 0.67971 0.0
C678 C 0.72376 0.42724 0.61093 0.0
C679 C 0.70356 0.43264 0.56571 0.0
C680 C 0.67315 0.41799 0.58853 0.0
C681 C 0.66296 0.39818 0.657 0.0
H682 H 0.71158 0.4484 0.51349 0.0
H683 H 0.58284 0.29719 0.21812 0.0
loop_
_geom_bond_atom_site_label_1
_geom_bond_atom_site_label_2
_geom_bond_distance
_geom_bond_site_symmetry_2
_ccdc_geom_bond_type
O0 Cd1 2.223 . S
O0 C8 1.315 1_554 S
Cd1 O0 2.223 . S
Cd1 O4 2.297 . S
Cd1 O5 2.439 . S
Cd1 O11 2.240 . S
Cd2 O3 2.240 . S
Cd2 O10 2.223 1_556 S
Cd2 O12 2.297 . S
Cd2 O13 2.439 1_556 S
O3 Cd2 2.240 . S
O3 C8 1.279 . S
O4 Cd1 2.297 . S
O4 C6 1.247 . S
O5 Cd1 2.439 . S
O5 C6 1.208 . S
C6 O4 1.247 . S
C6 O5 1.208 . S
C7 O12 1.247 1_554 S
C7 O13 1.208 . S
C8 O0 1.315 1_556 S
C8 O3 1.279 . S
C9 O10 1.315 . S
C9 O11 1.279 . S
O10 Cd2 2.223 1_554 S
O10 C9 1.315 . S
O11 Cd1 2.240 . S
O11 C9 1.279 . S
O12 Cd2 2.297 . S
O12 C7 1.247 1_556 S
O13 Cd2 2.439 1_554 S
O13 C7 1.208 . S
O14 Cd15 2.223 . S
O14 C22 1.315 . S
Cd15 O14 2.223 . S
Cd15 O18 2.297 . S
Cd15 O19 2.439 . S
Cd15 O25 2.240 . S
Cd16 O17 2.240 . S
Cd16 O24 2.223 . S
Cd16 O26 2.297 . S
Cd16 O27 2.439 . S
O17 Cd16 2.240 . S
O17 C22 1.279 . S
O18 Cd15 2.297 . S
O18 C20 1.247 . S
O19 Cd15 2.439 . S
O19 C20 1.208 . S
C20 O18 1.247 . S
C20 O19 1.208 . S
C21 O26 1.247 . S
C21 O27 1.208 . S
C22 O14 1.315 . S
C22 O17 1.279 . S
C23 O24 1.315 . S
C23 O25 1.279 . S
O24 Cd16 2.223 . S
O24 C23 1.315 . S
O25 Cd15 2.240 . S
O25 C23 1.279 . S
O26 Cd16 2.297 . S
O26 C21 1.247 . S
O27 Cd16 2.439 . S
O27 C21 1.208 . S
O28 Cd29 2.223 . S
O28 C36 1.315 . S
Cd29 O28 2.223 . S
Cd29 O32 2.297 . S
Cd29 O33 2.439 . S
Cd29 O39 2.240 . S
Cd30 O31 2.240 . S
Cd30 O38 2.223 . S
Cd30 O40 2.297 . S
Cd30 O41 2.439 . S
O31 Cd30 2.240 . S
O31 C36 1.279 . S
O32 Cd29 2.297 . S
O32 C34 1.247 . S
O33 Cd29 2.439 . S
O33 C34 1.208 . S
C34 O32 1.247 . S
C34 O33 1.208 . S
C35 O40 1.247 . S
C35 O41 1.208 . S
C36 O28 1.315 . S
C36 O31 1.279 . S
C37 O38 1.315 . S
C37 O39 1.279 . S
O38 Cd30 2.223 . S
O38 C37 1.315 . S
O39 Cd29 2.240 . S
O39 C37 1.279 . S
O40 Cd30 2.297 . S
O40 C35 1.247 . S
O41 Cd30 2.439 . S
O41 C35 1.208 . S
O42 Cd43 2.223 . S
O42 C50 1.315 1_554 S
Cd43 O42 2.223 . S
Cd43 O46 2.297 . S
Cd43 O47 2.439 . S
Cd43 O53 2.240 . S
Cd44 O45 2.240 . S
Cd44 O52 2.223 1_556 S
Cd44 O54 2.297 . S
Cd44 O55 2.439 1_556 S
O45 Cd44 2.240 . S
O45 C50 1.279 . S
O46 Cd43 2.297 . S
O46 C48 1.247 . S
O47 Cd43 2.439 . S
O47 C48 1.208 . S
C48 O46 1.247 . S
C48 O47 1.208 . S
C49 O54 1.247 1_554 S
C49 O55 1.208 . S
C50 O42 1.315 1_556 S
C50 O45 1.279 . S
C51 O52 1.315 . S
C51 O53 1.279 . S
O52 Cd44 2.223 1_554 S
O52 C51 1.315 . S
O53 Cd43 2.240 . S
O53 C51 1.279 . S
O54 Cd44 2.297 . S
O54 C49 1.247 1_556 S
O55 Cd44 2.439 1_554 S
O55 C49 1.208 . S
O56 Cd57 2.223 . S
O56 C64 1.315 . S
Cd57 O56 2.223 . S
Cd57 O60 2.297 . S
Cd57 O61 2.439 . S
Cd57 O67 2.240 . S
Cd58 O59 2.240 . S
Cd58 O66 2.223 . S
Cd58 O68 2.297 . S
Cd58 O69 2.439 . S
O59 Cd58 2.240 . S
O59 C64 1.279 . S
O60 Cd57 2.297 . S
O60 C62 1.247 . S
O61 Cd57 2.439 . S
O61 C62 1.208 . S
C62 O60 1.247 . S
C62 O61 1.208 . S
C63 O68 1.247 . S
C63 O69 1.208 . S
C64 O56 1.315 . S
C64 O59 1.279 . S
C65 O66 1.315 . S
C65 O67 1.279 . S
O66 Cd58 2.223 . S
O66 C65 1.315 . S
O67 Cd57 2.240 . S
O67 C65 1.279 . S
O68 Cd58 2.297 . S
O68 C63 1.247 . S
O69 Cd58 2.439 . S
O69 C63 1.208 . S
O70 Cd71 2.223 . S
O70 C78 1.315 . S
Cd71 O70 2.223 . S
Cd71 O74 2.297 . S
Cd71 O75 2.439 . S
Cd71 O81 2.240 . S
Cd72 O73 2.240 . S
Cd72 O80 2.223 . S
Cd72 O82 2.297 . S
Cd72 O83 2.439 . S
O73 Cd72 2.240 . S
O73 C78 1.279 . S
O74 Cd71 2.297 . S
O74 C76 1.247 . S
O75 Cd71 2.439 . S
O75 C76 1.208 . S
C76 O74 1.247 . S
C76 O75 1.208 . S
C77 O82 1.247 . S
C77 O83 1.208 . S
C78 O70 1.315 . S
C78 O73 1.279 . S
C79 O80 1.315 . S
C79 O81 1.279 . S
O80 Cd72 2.223 . S
O80 C79 1.315 . S
O81 Cd71 2.240 . S
O81 C79 1.279 . S
O82 Cd72 2.297 . S
O82 C77 1.247 . S
O83 Cd72 2.439 . S
O83 C77 1.208 . S
H84 C102 0.951 . S
H85 C104 0.951 . S
H86 C106 0.950 . S
H87 C107 0.950 . S
H88 C109 0.950 . S
H89 C112 0.950 1_554 S
H90 C113 0.950 1_554 S
H91 C115 0.950 . S
H92 C116 0.950 . S
H93 C117 0.951 . S
H94 C119 0.951 . S
H95 C121 0.950 . S
H96 C122 0.950 . S
H97 C124 0.950 . S
H98 C127 0.950 . S
H99 C128 0.950 . S
H100 C130 0.950 . S
H101 C131 0.950 . S
C102 H84 0.951 . S
C102 C103 1.367 . S
C102 C104 1.388 . S
C103 C102 1.367 . S
C103 C107 1.384 1_556 S
C104 H85 0.951 . S
C104 C102 1.388 . S
C104 C105 1.366 . S
C105 C104 1.366 . S
C105 C106 1.414 1_556 S
C105 C108 1.499 . S
C106 H86 0.950 . S
C106 C105 1.414 1_554 S
C106 C107 1.374 . S
C107 H87 0.950 . S
C107 C103 1.384 1_554 S
C107 C106 1.374 . S
C108 C105 1.499 . S
C108 C109 1.373 . S
C108 C110 1.389 . S
C109 H88 0.950 . S
C109 C108 1.373 . S
C109 C125 1.377 . S
C110 C108 1.389 . S
C110 C111 1.524 . S
C110 C124 1.377 . S
C111 C110 1.524 . S
C111 C112 1.397 . S
C111 C116 1.363 . S
C112 H89 0.950 1_556 S
C112 C111 1.397 . S
C112 C113 1.334 . S
C113 H90 0.950 1_556 S
C113 C112 1.334 . S
C113 C114 1.287 . S
C114 C113 1.287 . S
C114 C115 1.524 . S
C114 H133 0.913 . S
C115 H91 0.950 . S
C115 C114 1.524 . S
C115 C116 1.415 . S
C116 H92 0.950 . S
C116 C111 1.363 . S
C116 C115 1.415 . S
C117 H93 0.951 . S
C117 C118 1.366 . S
C117 C119 1.388 . S
C118 C117 1.366 . S
C118 C122 1.385 . S
C119 H94 0.951 . S
C119 C117 1.388 . S
C119 C120 1.366 . S
C120 C119 1.366 . S
C120 C121 1.414 . S
C120 C123 1.499 . S
C121 H95 0.950 . S
C121 C120 1.414 . S
C121 C122 1.374 . S
C122 H96 0.950 . S
C122 C118 1.385 . S
C122 C121 1.374 . S
C123 C120 1.499 . S
C123 C124 1.373 . S
C123 C125 1.389 . S
C124 H97 0.950 . S
C124 C110 1.377 . S
C124 C123 1.373 . S
C125 C109 1.377 . S
C125 C123 1.389 . S
C125 C126 1.524 . S
C126 C125 1.524 . S
C126 C127 1.397 . S
C126 C131 1.363 . S
C127 H98 0.950 . S
C127 C126 1.397 . S
C127 C128 1.334 . S
C128 H99 0.950 . S
C128 C127 1.334 . S
C128 C129 1.287 . S
C129 C128 1.287 . S
C129 C130 1.524 . S
C129 H132 0.999 . S
C130 H100 0.950 . S
C130 C129 1.524 . S
C130 C131 1.415 . S
C131 H101 0.950 . S
C131 C126 1.363 . S
C131 C130 1.415 . S
H132 C129 0.999 . S
H133 C114 0.913 . S
H134 C152 0.951 . S
H135 C154 0.951 . S
H136 C156 0.950 . S
H137 C157 0.950 . S
H138 C159 0.950 . S
H139 C162 0.950 . S
H140 C163 0.949 1_556 S
H141 C165 0.950 . S
H142 C166 0.950 . S
H143 C167 0.951 . S
H144 C169 0.951 . S
H145 C171 0.950 . S
H146 C172 0.950 . S
H147 C174 0.950 . S
H148 C177 0.950 . S
H149 C178 0.950 . S
H150 C180 0.950 . S
H151 C181 0.950 . S
C152 H134 0.951 . S
C152 C153 1.366 . S
C152 C154 1.388 . S
C153 C152 1.366 . S
C153 C157 1.385 . S
C154 H135 0.951 . S
C154 C152 1.388 . S
C154 C155 1.366 . S
C155 C154 1.366 . S
C155 C156 1.414 . S
C155 C158 1.499 . S
C156 H136 0.950 . S
C156 C155 1.414 . S
C156 C157 1.374 . S
C157 H137 0.950 . S
C157 C153 1.385 . S
C157 C156 1.374 . S
C158 C155 1.499 . S
C158 C159 1.373 . S
C158 C160 1.389 . S
C159 H138 0.950 . S
C159 C158 1.373 . S
C159 C175 1.377 1_655 S
C160 C158 1.389 . S
C160 C161 1.524 . S
C160 C174 1.377 1_655 S
C161 C160 1.524 . S
C161 C162 1.397 . S
C161 C166 1.363 . S
C162 H139 0.950 . S
C162 C161 1.397 . S
C162 C163 1.334 . S
C163 H140 0.949 1_554 S
C163 C162 1.334 . S
C163 C164 1.287 1_554 S
C164 C163 1.287 1_556 S
C164 C165 1.524 . S
C164 H183 0.913 . S
C165 H141 0.950 . S
C165 C164 1.524 . S
C165 C166 1.415 1_556 S
C166 H142 0.950 . S
C166 C161 1.363 . S
C166 C165 1.415 1_554 S
C167 H143 0.951 . S
C167 C168 1.366 . S
C167 C169 1.388 . S
C168 C167 1.366 . S
C168 C172 1.385 . S
C169 H144 0.951 . S
C169 C167 1.388 . S
C169 C170 1.366 . S
C170 C169 1.366 . S
C170 C171 1.414 . S
C170 C173 1.499 . S
C171 H145 0.950 . S
C171 C170 1.414 . S
C171 C172 1.374 . S
C172 H146 0.950 . S
C172 C168 1.385 . S
C172 C171 1.374 . S
C173 C170 1.499 . S
C173 C174 1.373 . S
C173 C175 1.389 . S
C174 H147 0.950 . S
C174 C160 1.377 1_455 S
C174 C173 1.373 . S
C175 C159 1.377 1_455 S
C175 C173 1.389 . S
C175 C176 1.524 . S
C176 C175 1.524 . S
C176 C177 1.397 . S
C176 C181 1.363 . S
C177 H148 0.950 . S
C177 C176 1.397 . S
C177 C178 1.334 . S
C178 H149 0.950 . S
C178 C177 1.334 . S
C178 C179 1.287 . S
C179 C178 1.287 . S
C179 C180 1.524 . S
C179 H182 0.999 . S
C180 H150 0.950 . S
C180 C179 1.524 . S
C180 C181 1.415 . S
C181 H151 0.950 . S
C181 C176 1.363 . S
C181 C180 1.415 . S
H182 C179 0.999 . S
H183 C164 0.913 . S
H184 C202 0.951 . S
H185 C204 0.951 . S
H186 C206 0.950 . S
H187 C207 0.950 . S
H188 C209 0.950 . S
H189 C212 0.950 . S
H190 C213 0.950 . S
H191 C215 0.950 . S
H192 C216 0.950 1_565 S
H193 C217 0.951 . S
H194 C219 0.951 . S
H195 C221 0.950 . S
H196 C222 0.950 . S
H197 C224 0.950 . S
H198 C227 0.950 . S
H199 C228 0.950 . S
H200 C230 0.950 . S
H201 C231 0.950 1_545 S
C202 H184 0.951 . S
C202 C203 1.366 . S
C202 C204 1.388 . S
C203 C202 1.366 . S
C203 C207 1.385 . S
C204 H185 0.951 . S
C204 C202 1.388 . S
C204 C205 1.366 . S
C205 C204 1.366 . S
C205 C206 1.414 . S
C205 C208 1.499 . S
C206 H186 0.950 . S
C206 C205 1.414 . S
C206 C207 1.374 . S
C207 H187 0.950 . S
C207 C203 1.385 . S
C207 C206 1.374 . S
C208 C205 1.499 . S
C208 C209 1.373 . S
C208 C210 1.389 . S
C209 H188 0.950 . S
C209 C208 1.373 . S
C209 C225 1.377 1_545 S
C210 C208 1.389 . S
C210 C211 1.524 . S
C210 C224 1.377 1_545 S
C211 C210 1.524 . S
C211 C212 1.397 . S
C211 C216 1.363 . S
C212 H189 0.950 . S
C212 C211 1.397 . S
C212 C213 1.334 . S
C213 H190 0.950 . S
C213 C212 1.334 . S
C213 C214 1.287 . S
C214 C213 1.287 . S
C214 C215 1.524 . S
C214 H233 0.913 . S
C215 H191 0.950 . S
C215 C214 1.524 . S
C215 C216 1.415 . S
C216 H192 0.950 1_545 S
C216 C211 1.363 . S
C216 C215 1.415 . S
C217 H193 0.951 . S
C217 C218 1.366 . S
C217 C219 1.388 . S
C218 C217 1.366 . S
C218 C222 1.385 . S
C219 H194 0.951 . S
C219 C217 1.388 . S
C219 C220 1.366 . S
C220 C219 1.366 . S
C220 C221 1.414 . S
C220 C223 1.499 . S
C221 H195 0.950 . S
C221 C220 1.414 . S
C221 C222 1.374 . S
C222 H196 0.950 . S
C222 C218 1.385 . S
C222 C221 1.374 . S
C223 C220 1.499 . S
C223 C224 1.373 . S
C223 C225 1.389 . S
C224 H197 0.950 . S
C224 C210 1.377 1_565 S
C224 C223 1.373 . S
C225 C209 1.377 1_565 S
C225 C223 1.389 . S
C225 C226 1.524 . S
C226 C225 1.524 . S
C226 C227 1.397 . S
C226 C231 1.363 . S
C227 H198 0.950 . S
C227 C226 1.397 . S
C227 C228 1.334 . S
C228 H199 0.950 . S
C228 C227 1.334 . S
C228 C229 1.287 . S
C229 C228 1.287 . S
C229 C230 1.524 . S
C229 H232 0.999 . S
C230 H200 0.950 . S
C230 C229 1.524 . S
C230 C231 1.415 . S
C231 H201 0.950 1_565 S
C231 C226 1.363 . S
C231 C230 1.415 . S
H232 C229 0.999 . S
H233 C214 0.913 . S
H234 C252 0.951 . S
H235 C254 0.951 . S
H236 C256 0.950 . S
H237 C257 0.950 . S
H238 C259 0.950 . S
H239 C262 0.950 1_554 S
H240 C263 0.950 1_554 S
H241 C265 0.950 . S
H242 C266 0.950 . S
H243 C267 0.951 . S
H244 C269 0.951 . S
H245 C271 0.950 . S
H246 C272 0.950 . S
H247 C274 0.950 . S
H248 C277 0.950 . S
H249 C278 0.950 . S
H250 C280 0.950 . S
H251 C281 0.950 . S
C252 H234 0.951 . S
C252 C253 1.367 . S
C252 C254 1.388 . S
C253 C252 1.367 . S
C253 C257 1.384 1_556 S
C254 H235 0.951 . S
C254 C252 1.388 . S
C254 C255 1.366 . S
C255 C254 1.366 . S
C255 C256 1.414 1_556 S
C255 C258 1.499 . S
C256 H236 0.950 . S
C256 C255 1.414 1_554 S
C256 C257 1.374 . S
C257 H237 0.950 . S
C257 C253 1.384 1_554 S
C257 C256 1.374 . S
C258 C255 1.499 . S
C258 C259 1.373 . S
C258 C260 1.389 . S
C259 H238 0.950 . S
C259 C258 1.373 . S
C259 C275 1.377 . S
C260 C258 1.389 . S
C260 C261 1.524 . S
C260 C274 1.377 . S
C261 C260 1.524 . S
C261 C262 1.397 . S
C261 C266 1.363 . S
C262 H239 0.950 1_556 S
C262 C261 1.397 . S
C262 C263 1.334 . S
C263 H240 0.950 1_556 S
C263 C262 1.334 . S
C263 C264 1.287 . S
C264 C263 1.287 . S
C264 C265 1.524 . S
C264 H283 0.913 . S
C265 H241 0.950 . S
C265 C264 1.524 . S
C265 C266 1.415 . S
C266 H242 0.950 . S
C266 C261 1.363 . S
C266 C265 1.415 . S
C267 H243 0.951 . S
C267 C268 1.366 . S
C267 C269 1.388 . S
C268 C267 1.366 . S
C268 C272 1.385 . S
C269 H244 0.951 . S
C269 C267 1.388 . S
C269 C270 1.366 . S
C270 C269 1.366 . S
C270 C271 1.414 . S
C270 C273 1.499 . S
C271 H245 0.950 . S
C271 C270 1.414 . S
C271 C272 1.374 . S
C272 H246 0.950 . S
C272 C268 1.385 . S
C272 C271 1.374 . S
C273 C270 1.499 . S
C273 C274 1.373 . S
C273 C275 1.389 . S
C274 H247 0.950 . S
C274 C260 1.377 . S
C274 C273 1.373 . S
C275 C259 1.377 . S
C275 C273 1.389 . S
C275 C276 1.524 . S
C276 C275 1.524 . S
C276 C277 1.397 . S
C276 C281 1.363 . S
C277 H248 0.950 . S
C277 C276 1.397 . S
C277 C278 1.334 . S
C278 H249 0.950 . S
C278 C277 1.334 . S
C278 C279 1.287 . S
C279 C278 1.287 . S
C279 C280 1.524 . S
C279 H282 0.999 . S
C280 H250 0.950 . S
C280 C279 1.524 . S
C280 C281 1.415 . S
C281 H251 0.950 . S
C281 C276 1.363 . S
C281 C280 1.415 . S
H282 C279 0.999 . S
H283 C264 0.913 . S
H284 C302 0.951 . S
H285 C304 0.951 . S
H286 C306 0.950 1_556 S
H287 C307 0.950 . S
H288 C309 0.950 . S
H289 C312 0.950 . S
H290 C313 0.950 . S
H291 C315 0.950 . S
H292 C316 0.950 . S
H293 C317 0.951 . S
H294 C319 0.951 . S
H295 C321 0.950 . S
H296 C322 0.950 . S
H297 C324 0.950 . S
H298 C327 0.950 . S
H299 C328 0.950 . S
H300 C330 0.950 . S
H301 C331 0.950 . S
C302 H284 0.951 . S
C302 C303 1.366 . S
C302 C304 1.388 . S
C303 C302 1.366 . S
C303 C307 1.385 1_554 S
C304 H285 0.951 . S
C304 C302 1.388 . S
C304 C305 1.366 . S
C305 C304 1.366 . S
C305 C306 1.414 . S
C305 C308 1.499 . S
C306 H286 0.950 1_554 S
C306 C305 1.414 . S
C306 C307 1.374 1_554 S
C307 H287 0.950 . S
C307 C303 1.385 1_556 S
C307 C306 1.374 1_556 S
C308 C305 1.499 . S
C308 C309 1.373 . S
C308 C310 1.389 . S
C309 H288 0.950 . S
C309 C308 1.373 . S
C309 C325 1.377 1_655 S
C310 C308 1.389 . S
C310 C311 1.524 . S
C310 C324 1.377 1_655 S
C311 C310 1.524 . S
C311 C312 1.397 . S
C311 C316 1.363 . S
C312 H289 0.950 . S
C312 C311 1.397 . S
C312 C313 1.334 . S
C313 H290 0.950 . S
C313 C312 1.334 . S
C313 C314 1.287 . S
C314 C313 1.287 . S
C314 C315 1.524 . S
C314 H333 0.913 . S
C315 H291 0.950 . S
C315 C314 1.524 . S
C315 C316 1.415 . S
C316 H292 0.950 . S
C316 C311 1.363 . S
C316 C315 1.415 . S
C317 H293 0.951 . S
C317 C318 1.366 . S
C317 C319 1.388 . S
C318 C317 1.366 . S
C318 C322 1.385 . S
C319 H294 0.951 . S
C319 C317 1.388 . S
C319 C320 1.366 . S
C320 C319 1.366 . S
C320 C321 1.414 . S
C320 C323 1.499 . S
C321 H295 0.950 . S
C321 C320 1.414 . S
C321 C322 1.374 . S
C322 H296 0.950 . S
C322 C318 1.385 . S
C322 C321 1.374 . S
C323 C320 1.499 . S
C323 C324 1.373 . S
C323 C325 1.389 . S
C324 H297 0.950 . S
C324 C310 1.377 1_455 S
C324 C323 1.373 . S
C325 C309 1.377 1_455 S
C325 C323 1.389 . S
C325 C326 1.524 . S
C326 C325 1.524 . S
C326 C327 1.397 . S
C326 C331 1.363 . S
C327 H298 0.950 . S
C327 C326 1.397 . S
C327 C328 1.334 . S
C328 H299 0.950 . S
C328 C327 1.334 . S
C328 C329 1.287 . S
C329 C328 1.287 . S
C329 C330 1.524 . S
C329 H332 0.999 . S
C330 H300 0.950 . S
C330 C329 1.524 . S
C330 C331 1.415 . S
C331 H301 0.950 . S
C331 C326 1.363 . S
C331 C330 1.415 . S
H332 C329 0.999 . S
H333 C314 0.913 . S
H334 C352 0.951 . S
H335 C354 0.951 . S
H336 C356 0.950 . S
H337 C357 0.950 . S
H338 C359 0.950 . S
H339 C362 0.950 . S
H340 C363 0.950 . S
H341 C365 0.950 . S
H342 C366 0.950 . S
H343 C367 0.951 . S
H344 C369 0.951 . S
H345 C371 0.950 . S
H346 C372 0.950 . S
H347 C374 0.950 . S
H348 C377 0.950 . S
H349 C378 0.950 . S
H350 C380 0.950 . S
H351 C381 0.950 . S
C352 H334 0.951 . S
C352 C353 1.366 . S
C352 C354 1.388 . S
C353 C352 1.366 . S
C353 C357 1.385 . S
C354 H335 0.951 . S
C354 C352 1.388 . S
C354 C355 1.366 . S
C355 C354 1.366 . S
C355 C356 1.414 . S
C355 C358 1.499 . S
C356 H336 0.950 . S
C356 C355 1.414 . S
C356 C357 1.374 . S
C357 H337 0.950 . S
C357 C353 1.385 . S
C357 C356 1.374 . S
C358 C355 1.499 . S
C358 C359 1.373 . S
C358 C360 1.389 . S
C359 H338 0.950 . S
C359 C358 1.373 . S
C359 C375 1.377 1_545 S
C360 C358 1.389 . S
C360 C361 1.524 . S
C360 C374 1.377 1_545 S
C361 C360 1.524 . S
C361 C362 1.397 . S
C361 C366 1.363 . S
C362 H339 0.950 . S
C362 C361 1.397 . S
C362 C363 1.334 . S
C363 H340 0.950 . S
C363 C362 1.334 . S
C363 C364 1.287 . S
C364 C363 1.287 . S
C364 C365 1.524 . S
C364 H383 0.913 . S
C365 H341 0.950 . S
C365 C364 1.524 . S
C365 C366 1.415 . S
C366 H342 0.950 . S
C366 C361 1.363 . S
C366 C365 1.415 . S
C367 H343 0.951 . S
C367 C368 1.366 . S
C367 C369 1.388 . S
C368 C367 1.366 . S
C368 C372 1.385 . S
C369 H344 0.951 . S
C369 C367 1.388 . S
C369 C370 1.366 . S
C370 C369 1.366 . S
C370 C371 1.414 . S
C370 C373 1.499 . S
C371 H345 0.950 . S
C371 C370 1.414 . S
C371 C372 1.374 . S
C372 H346 0.950 . S
C372 C368 1.385 . S
C372 C371 1.374 . S
C373 C370 1.499 . S
C373 C374 1.373 . S
C373 C375 1.389 . S
C374 H347 0.950 . S
C374 C360 1.377 1_565 S
C374 C373 1.373 . S
C375 C359 1.377 1_565 S
C375 C373 1.389 . S
C375 C376 1.524 . S
C376 C375 1.524 . S
C376 C377 1.397 . S
C376 C381 1.363 . S
C377 H348 0.950 . S
C377 C376 1.397 . S
C377 C378 1.334 . S
C378 H349 0.950 . S
C378 C377 1.334 . S
C378 C379 1.287 . S
C379 C378 1.287 . S
C379 C380 1.524 . S
C379 H382 0.999 . S
C380 H350 0.950 . S
C380 C379 1.524 . S
C380 C381 1.415 . S
C381 H351 0.950 . S
C381 C376 1.363 . S
C381 C380 1.415 . S
H382 C379 0.999 . S
H383 C364 0.913 . S
H384 C402 0.951 . S
H385 C404 0.951 . S
H386 C406 0.950 . S
H387 C407 0.950 . S
H388 C409 0.950 . S
H389 C412 0.950 . S
H390 C413 0.950 . S
H391 C415 0.950 1_556 S
H392 C416 0.950 . S
H393 C417 0.951 . S
H394 C419 0.951 . S
H395 C421 0.950 . S
H396 C422 0.950 . S
H397 C424 0.950 . S
H398 C427 0.950 . S
H399 C428 0.950 . S
H400 C430 0.950 . S
H401 C431 0.950 . S
C402 H384 0.951 . S
C402 C403 1.366 . S
C402 C404 1.388 . S
C403 C402 1.366 . S
C403 C407 1.385 . S
C404 H385 0.951 . S
C404 C402 1.388 . S
C404 C405 1.366 . S
C405 C404 1.366 . S
C405 C406 1.414 . S
C405 C408 1.499 . S
C406 H386 0.950 . S
C406 C405 1.414 . S
C406 C407 1.374 . S
C407 H387 0.950 . S
C407 C403 1.385 . S
C407 C406 1.374 . S
C408 C405 1.499 . S
C408 C409 1.373 . S
C408 C410 1.389 . S
C409 H388 0.950 . S
C409 C408 1.373 . S
C409 C425 1.377 . S
C410 C408 1.389 . S
C410 C411 1.524 . S
C410 C424 1.377 . S
C411 C410 1.524 . S
C411 C412 1.397 . S
C411 C416 1.363 . S
C412 H389 0.950 . S
C412 C411 1.397 . S
C412 C413 1.334 . S
C413 H390 0.950 . S
C413 C412 1.334 . S
C413 C414 1.287 . S
C414 C413 1.287 . S
C414 C415 1.524 . S
C414 H433 0.913 . S
C415 H391 0.950 1_554 S
C415 C414 1.524 . S
C415 C416 1.415 . S
C416 H392 0.950 . S
C416 C411 1.363 . S
C416 C415 1.415 . S
C417 H393 0.951 . S
C417 C418 1.366 . S
C417 C419 1.388 . S
C418 C417 1.366 . S
C418 C422 1.385 . S
C419 H394 0.951 . S
C419 C417 1.388 . S
C419 C420 1.366 . S
C420 C419 1.366 . S
C420 C421 1.414 . S
C420 C423 1.499 . S
C421 H395 0.950 . S
C421 C420 1.414 . S
C421 C422 1.374 . S
C422 H396 0.950 . S
C422 C418 1.385 . S
C422 C421 1.374 . S
C423 C420 1.499 . S
C423 C424 1.373 . S
C423 C425 1.389 . S
C424 H397 0.950 . S
C424 C410 1.377 . S
C424 C423 1.373 . S
C425 C409 1.377 . S
C425 C423 1.389 . S
C425 C426 1.524 . S
C426 C425 1.524 . S
C426 C427 1.397 . S
C426 C431 1.363 . S
C427 H398 0.950 . S
C427 C426 1.397 . S
C427 C428 1.334 . S
C428 H399 0.950 . S
C428 C427 1.334 . S
C428 C429 1.287 . S
C429 C428 1.287 . S
C429 C430 1.524 . S
C429 H432 0.999 . S
C430 H400 0.950 . S
C430 C429 1.524 . S
C430 C431 1.415 . S
C431 H401 0.950 . S
C431 C426 1.363 . S
C431 C430 1.415 . S
H432 C429 0.999 . S
H433 C414 0.913 . S
H434 C452 0.951 . S
H435 C454 0.951 . S
H436 C456 0.950 . S
H437 C457 0.950 . S
H438 C459 0.950 . S
H439 C462 0.950 . S
H440 C463 0.950 . S
H441 C465 0.950 . S
H442 C466 0.950 . S
H443 C467 0.951 . S
H444 C469 0.951 . S
H445 C471 0.950 . S
H446 C472 0.950 . S
H447 C474 0.950 . S
H448 C477 0.950 . S
H449 C478 0.950 . S
H450 C480 0.950 . S
H451 C481 0.950 . S
C452 H434 0.951 . S
C452 C453 1.366 . S
C452 C454 1.388 . S
C453 C452 1.366 . S
C453 C457 1.385 . S
C454 H435 0.951 . S
C454 C452 1.388 . S
C454 C455 1.366 . S
C455 C454 1.366 . S
C455 C456 1.414 . S
C455 C458 1.499 . S
C456 H436 0.950 . S
C456 C455 1.414 . S
C456 C457 1.374 . S
C457 H437 0.950 . S
C457 C453 1.385 . S
C457 C456 1.374 . S
C458 C455 1.499 . S
C458 C459 1.373 . S
C458 C460 1.389 . S
C459 H438 0.950 . S
C459 C458 1.373 . S
C459 C475 1.377 . S
C460 C458 1.389 . S
C460 C461 1.524 . S
C460 C474 1.377 . S
C461 C460 1.524 . S
C461 C462 1.397 . S
C461 C466 1.363 . S
C462 H439 0.950 . S
C462 C461 1.397 . S
C462 C463 1.334 . S
C463 H440 0.950 . S
C463 C462 1.334 . S
C463 C464 1.287 . S
C464 C463 1.287 . S
C464 C465 1.524 . S
C464 H483 0.913 . S
C465 H441 0.950 . S
C465 C464 1.524 . S
C465 C466 1.415 . S
C466 H442 0.950 . S
C466 C461 1.363 . S
C466 C465 1.415 . S
C467 H443 0.951 . S
C467 C468 1.366 . S
C467 C469 1.388 . S
C468 C467 1.366 . S
C468 C472 1.385 . S
C469 H444 0.951 . S
C469 C467 1.388 . S
C469 C470 1.366 . S
C470 C469 1.366 . S
C470 C471 1.414 . S
C470 C473 1.499 . S
C471 H445 0.950 . S
C471 C470 1.414 . S
C471 C472 1.374 . S
C472 H446 0.950 . S
C472 C468 1.385 . S
C472 C471 1.374 . S
C473 C470 1.499 . S
C473 C474 1.373 . S
C473 C475 1.389 . S
C474 H447 0.950 . S
C474 C460 1.377 . S
C474 C473 1.373 . S
C475 C459 1.377 . S
C475 C473 1.389 . S
C475 C476 1.524 . S
C476 C475 1.524 . S
C476 C477 1.397 . S
C476 C481 1.363 . S
C477 H448 0.950 . S
C477 C476 1.397 . S
C477 C478 1.334 . S
C478 H449 0.950 . S
C478 C477 1.334 . S
C478 C479 1.287 . S
C479 C478 1.287 . S
C479 C480 1.524 . S
C479 H482 0.999 . S
C480 H450 0.950 . S
C480 C479 1.524 . S
C480 C481 1.415 . S
C481 H451 0.950 . S
C481 C476 1.363 . S
C481 C480 1.415 . S
H482 C479 0.999 . S
H483 C464 0.913 . S
H484 C502 0.951 . S
H485 C504 0.951 . S
H486 C506 0.950 . S
H487 C507 0.950 . S
H488 C509 0.950 . S
H489 C512 0.950 1_556 S
H490 C513 0.950 . S
H491 C515 0.950 . S
H492 C516 0.950 . S
H493 C517 0.951 . S
H494 C519 0.951 . S
H495 C521 0.950 . S
H496 C522 0.950 . S
H497 C524 0.950 . S
H498 C527 0.950 . S
H499 C528 0.950 . S
H500 C530 0.950 . S
H501 C531 0.950 . S
C502 H484 0.951 . S
C502 C503 1.366 . S
C502 C504 1.388 . S
C503 C502 1.366 . S
C503 C507 1.385 . S
C504 H485 0.951 . S
C504 C502 1.388 . S
C504 C505 1.366 . S
C505 C504 1.366 . S
C505 C506 1.414 . S
C505 C508 1.499 . S
C506 H486 0.950 . S
C506 C505 1.414 . S
C506 C507 1.374 . S
C507 H487 0.950 . S
C507 C503 1.385 . S
C507 C506 1.374 . S
C508 C505 1.499 . S
C508 C509 1.373 . S
C508 C510 1.389 . S
C509 H488 0.950 . S
C509 C508 1.373 . S
C509 C525 1.377 . S
C510 C508 1.389 . S
C510 C511 1.524 1_556 S
C510 C524 1.377 . S
C511 C510 1.524 1_554 S
C511 C512 1.397 . S
C511 C516 1.363 . S
C512 H489 0.950 1_554 S
C512 C511 1.397 . S
C512 C513 1.334 . S
C513 H490 0.950 . S
C513 C512 1.334 . S
C513 C514 1.287 . S
C514 C513 1.287 . S
C514 C515 1.524 . S
C514 H533 0.913 . S
C515 H491 0.950 . S
C515 C514 1.524 . S
C515 C516 1.415 . S
C516 H492 0.950 . S
C516 C511 1.363 . S
C516 C515 1.415 . S
C517 H493 0.951 . S
C517 C518 1.366 . S
C517 C519 1.388 . S
C518 C517 1.366 . S
C518 C522 1.385 . S
C519 H494 0.951 . S
C519 C517 1.388 . S
C519 C520 1.366 . S
C520 C519 1.366 . S
C520 C521 1.414 . S
C520 C523 1.499 . S
C521 H495 0.950 . S
C521 C520 1.414 . S
C521 C522 1.374 . S
C522 H496 0.950 . S
C522 C518 1.385 . S
C522 C521 1.374 . S
C523 C520 1.499 . S
C523 C524 1.373 . S
C523 C525 1.389 . S
C524 H497 0.950 . S
C524 C510 1.377 . S
C524 C523 1.373 . S
C525 C509 1.377 . S
C525 C523 1.389 . S
C525 C526 1.524 . S
C526 C525 1.524 . S
C526 C527 1.397 . S
C526 C531 1.363 . S
C527 H498 0.950 . S
C527 C526 1.397 . S
C527 C528 1.334 . S
C528 H499 0.950 . S
C528 C527 1.334 . S
C528 C529 1.287 . S
C529 C528 1.287 . S
C529 C530 1.524 . S
C529 H532 0.999 . S
C530 H500 0.950 . S
C530 C529 1.524 . S
C530 C531 1.415 . S
C531 H501 0.950 . S
C531 C526 1.363 . S
C531 C530 1.415 . S
H532 C529 0.999 . S
H533 C514 0.913 . S
H534 C552 0.951 . S
H535 C554 0.951 . S
H536 C556 0.950 . S
H537 C557 0.950 . S
H538 C559 0.950 . S
H539 C562 0.950 . S
H540 C563 0.950 . S
H541 C565 0.950 . S
H542 C566 0.950 . S
H543 C567 0.951 . S
H544 C569 0.951 . S
H545 C571 0.950 . S
H546 C572 0.950 . S
H547 C574 0.950 . S
H548 C577 0.950 . S
H549 C578 0.950 . S
H550 C580 0.950 . S
H551 C581 0.950 . S
C552 H534 0.951 . S
C552 C553 1.366 . S
C552 C554 1.388 . S
C553 C552 1.366 . S
C553 C557 1.385 . S
C554 H535 0.951 . S
C554 C552 1.388 . S
C554 C555 1.366 . S
C555 C554 1.366 . S
C555 C556 1.414 . S
C555 C558 1.499 . S
C556 H536 0.950 . S
C556 C555 1.414 . S
C556 C557 1.374 . S
C557 H537 0.950 . S
C557 C553 1.385 . S
C557 C556 1.374 . S
C558 C555 1.499 . S
C558 C559 1.373 . S
C558 C560 1.389 . S
C559 H538 0.950 . S
C559 C558 1.373 . S
C559 C575 1.377 . S
C560 C558 1.389 . S
C560 C561 1.524 . S
C560 C574 1.377 . S
C561 C560 1.524 . S
C561 C562 1.397 . S
C561 C566 1.363 . S
C562 H539 0.950 . S
C562 C561 1.397 . S
C562 C563 1.334 . S
C563 H540 0.950 . S
C563 C562 1.334 . S
C563 C564 1.287 . S
C564 C563 1.287 . S
C564 C565 1.524 . S
C564 H583 0.913 . S
C565 H541 0.950 . S
C565 C564 1.524 . S
C565 C566 1.415 . S
C566 H542 0.950 . S
C566 C561 1.363 . S
C566 C565 1.415 . S
C567 H543 0.951 . S
C567 C568 1.366 . S
C567 C569 1.388 . S
C568 C567 1.366 . S
C568 C572 1.385 . S
C569 H544 0.951 . S
C569 C567 1.388 . S
C569 C570 1.366 . S
C570 C569 1.366 . S
C570 C571 1.414 . S
C570 C573 1.499 . S
C571 H545 0.950 . S
C571 C570 1.414 . S
C571 C572 1.374 . S
C572 H546 0.950 . S
C572 C568 1.385 . S
C572 C571 1.374 . S
C573 C570 1.499 . S
C573 C574 1.373 . S
C573 C575 1.389 . S
C574 H547 0.950 . S
C574 C560 1.377 . S
C574 C573 1.373 . S
C575 C559 1.377 . S
C575 C573 1.389 . S
C575 C576 1.524 . S
C576 C575 1.524 . S
C576 C577 1.397 . S
C576 C581 1.363 . S
C577 H548 0.950 . S
C577 C576 1.397 . S
C577 C578 1.334 . S
C578 H549 0.950 . S
C578 C577 1.334 . S
C578 C579 1.287 . S
C579 C578 1.287 . S
C579 C580 1.524 . S
C579 H582 0.999 . S
C580 H550 0.950 . S
C580 C579 1.524 . S
C580 C581 1.415 . S
C581 H551 0.950 . S
C581 C576 1.363 . S
C581 C580 1.415 . S
H582 C579 0.999 . S
H583 C564 0.913 . S
H584 C602 0.951 . S
H585 C604 0.951 . S
H586 C606 0.950 . S
H587 C607 0.950 . S
H588 C609 0.950 . S
H589 C612 0.950 . S
H590 C613 0.950 . S
H591 C615 0.950 . S
H592 C616 0.950 . S
H593 C617 0.951 . S
H594 C619 0.951 . S
H595 C621 0.950 . S
H596 C622 0.950 . S
H597 C624 0.950 . S
H598 C627 0.950 . S
H599 C628 0.950 . S
H600 C630 0.950 . S
H601 C631 0.950 . S
C602 H584 0.951 . S
C602 C603 1.366 . S
C602 C604 1.388 . S
C603 C602 1.366 . S
C603 C607 1.385 . S
C604 H585 0.951 . S
C604 C602 1.388 . S
C604 C605 1.366 . S
C605 C604 1.366 . S
C605 C606 1.414 . S
C605 C608 1.499 . S
C606 H586 0.950 . S
C606 C605 1.414 . S
C606 C607 1.374 . S
C607 H587 0.950 . S
C607 C603 1.385 . S
C607 C606 1.374 . S
C608 C605 1.499 . S
C608 C609 1.373 . S
C608 C610 1.389 . S
C609 H588 0.950 . S
C609 C608 1.373 . S
C609 C625 1.377 . S
C610 C608 1.389 . S
C610 C611 1.524 . S
C610 C624 1.377 . S
C611 C610 1.524 . S
C611 C612 1.397 . S
C611 C616 1.363 . S
C612 H589 0.950 . S
C612 C611 1.397 . S
C612 C613 1.334 . S
C613 H590 0.950 . S
C613 C612 1.334 . S
C613 C614 1.287 . S
C614 C613 1.287 . S
C614 C615 1.524 . S
C614 H633 0.913 . S
C615 H591 0.950 . S
C615 C614 1.524 . S
C615 C616 1.415 . S
C616 H592 0.950 . S
C616 C611 1.363 . S
C616 C615 1.415 . S
C617 H593 0.951 . S
C617 C618 1.366 . S
C617 C619 1.388 . S
C618 C617 1.366 . S
C618 C622 1.385 . S
C619 H594 0.951 . S
C619 C617 1.388 . S
C619 C620 1.366 . S
C620 C619 1.366 . S
C620 C621 1.414 . S
C620 C623 1.499 . S
C621 H595 0.950 . S
C621 C620 1.414 . S
C621 C622 1.374 . S
C622 H596 0.950 . S
C622 C618 1.385 . S
C622 C621 1.374 . S
C623 C620 1.499 . S
C623 C624 1.373 . S
C623 C625 1.389 . S
C624 H597 0.950 . S
C624 C610 1.377 . S
C624 C623 1.373 . S
C625 C609 1.377 . S
C625 C623 1.389 . S
C625 C626 1.524 . S
C626 C625 1.524 . S
C626 C627 1.397 . S
C626 C631 1.363 . S
C627 H598 0.950 . S
C627 C626 1.397 . S
C627 C628 1.334 . S
C628 H599 0.950 . S
C628 C627 1.334 . S
C628 C629 1.287 . S
C629 C628 1.287 . S
C629 C630 1.524 . S
C629 H632 0.999 . S
C630 H600 0.950 . S
C630 C629 1.524 . S
C630 C631 1.415 . S
C631 H601 0.950 . S
C631 C626 1.363 . S
C631 C630 1.415 . S
H632 C629 0.999 . S
H633 C614 0.913 . S
H634 C652 0.951 . S
H635 C654 0.951 . S
H636 C656 0.950 . S
H637 C657 0.950 . S
H638 C659 0.950 . S
H639 C662 0.950 . S
H640 C663 0.950 . S
H641 C665 0.950 . S
H642 C666 0.950 . S
H643 C667 0.951 . S
H644 C669 0.951 . S
H645 C671 0.950 1_554 S
H646 C672 0.950 1_554 S
H647 C674 0.950 . S
H648 C677 0.950 . S
H649 C678 0.950 . S
H650 C680 0.950 . S
H651 C681 0.950 . S
C652 H634 0.951 . S
C652 C653 1.366 . S
C652 C654 1.388 . S
C653 C652 1.366 . S
C653 C657 1.385 . S
C654 H635 0.951 . S
C654 C652 1.388 . S
C654 C655 1.366 . S
C655 C654 1.366 . S
C655 C656 1.414 . S
C655 C658 1.499 . S
C656 H636 0.950 . S
C656 C655 1.414 . S
C656 C657 1.374 . S
C657 H637 0.950 . S
C657 C653 1.385 . S
C657 C656 1.374 . S
C658 C655 1.499 . S
C658 C659 1.373 . S
C658 C660 1.389 . S
C659 H638 0.950 . S
C659 C658 1.373 . S
C659 C675 1.377 . S
C660 C658 1.389 . S
C660 C661 1.524 . S
C660 C674 1.377 . S
C661 C660 1.524 . S
C661 C662 1.397 . S
C661 C666 1.363 1_556 S
C662 H639 0.950 . S
C662 C661 1.397 . S
C662 C663 1.334 . S
C663 H640 0.950 . S
C663 C662 1.334 . S
C663 C664 1.287 1_556 S
C664 C663 1.287 1_554 S
C664 C665 1.524 . S
C664 H683 0.913 . S
C665 H641 0.950 . S
C665 C664 1.524 . S
C665 C666 1.415 . S
C666 H642 0.950 . S
C666 C661 1.363 1_554 S
C666 C665 1.415 . S
C667 H643 0.951 . S
C667 C668 1.366 . S
C667 C669 1.388 . S
C668 C667 1.366 . S
C668 C672 1.385 . S
C669 H644 0.951 . S
C669 C667 1.388 . S
C669 C670 1.366 . S
C670 C669 1.366 . S
C670 C671 1.414 . S
C670 C673 1.499 . S
C671 H645 0.950 1_556 S
C671 C670 1.414 . S
C671 C672 1.374 . S
C672 H646 0.950 1_556 S
C672 C668 1.385 . S
C672 C671 1.374 . S
C673 C670 1.499 . S
C673 C674 1.373 . S
C673 C675 1.389 . S
C674 H647 0.950 . S
C674 C660 1.377 . S
C674 C673 1.373 . S
C675 C659 1.377 . S
C675 C673 1.389 . S
C675 C676 1.524 . S
C676 C675 1.524 . S
C676 C677 1.397 . S
C676 C681 1.363 . S
C677 H648 0.950 . S
C677 C676 1.397 . S
C677 C678 1.334 . S
C678 H649 0.950 . S
C678 C677 1.334 . S
C678 C679 1.287 . S
C679 C678 1.287 . S
C679 C680 1.524 . S
C679 H682 0.999 . S
C680 H650 0.950 . S
C680 C679 1.524 . S
C680 C681 1.415 . S
C681 H651 0.950 . S
C681 C676 1.363 . S
C681 C680 1.415 . S
H682 C679 0.999 . S
H683 C664 0.913 . S
C103 C6 1.381 1_556 S
C118 C77 1.382 . S
C153 C20 1.382 . S
C168 C7 1.382 . S
C203 C21 1.383 . S
C218 C34 1.382 . S
C253 C48 1.381 1_556 S
C268 C35 1.383 . S
C303 C49 1.381 . S
C318 C62 1.382 . S
C353 C76 1.382 . S
C368 C63 1.383 . S
C403 C64 1.119 . S
C418 C9 1.118 . S
C453 C78 1.119 . S
C468 C23 1.118 . S
C503 C37 1.118 . S
C518 C8 1.118 . S
C553 C51 1.118 . S
C568 C22 1.118 . S
C603 C65 1.119 . S
C618 C36 1.118 . S
C653 C79 1.119 . S
C668 C50 1.118 . S
