# Generated by pormake.
# Topology smu, (6)-cn, num edge types: 1
# Building blocks:
#     Node 0, Type 0, BuildingBlock: PAMTOO_clean_sbu_0, # of connection points: 6
#     Node 1, Type 0, BuildingBlock: PAMTOO_clean_sbu_0, # of connection points: 6
#     Node 2, Type 0, BuildingBlock: PAMTOO_clean_sbu_0, # of connection points: 6
#     Node 3, Type 0, BuildingBlock: PAMTOO_clean_sbu_0, # of connection points: 6
#     Node 4, Type 0, BuildingBlock: PAMTOO_clean_sbu_0, # of connection points: 6
#     Node 5, Type 0, BuildingBlock: PAMTOO_clean_sbu_0, # of connection points: 6
#     Edge 6, Type (0, 0), BuildingBlock: TEMPAE_clean_linker_10, # of connection points: 2
#     Edge 7, Type (0, 0), BuildingBlock: TEMPAE_clean_linker_10, # of connection points: 2
#     Edge 8, Type (0, 0), BuildingBlock: TEMPAE_clean_linker_10, # of connection points: 2
#     Edge 9, Type (0, 0), BuildingBlock: TEMPAE_clean_linker_10, # of connection points: 2
#     Edge 10, Type (0, 0), BuildingBlock: TEMPAE_clean_linker_10, # of connection points: 2
#     Edge 11, Type (0, 0), BuildingBlock: TEMPAE_clean_linker_10, # of connection points: 2
#     Edge 12, Type (0, 0), BuildingBlock: TEMPAE_clean_linker_10, # of connection points: 2
#     Edge 13, Type (0, 0), BuildingBlock: TEMPAE_clean_linker_10, # of connection points: 2
#     Edge 14, Type (0, 0), BuildingBlock: TEMPAE_clean_linker_10, # of connection points: 2
#     Edge 15, Type (0, 0), BuildingBlock: TEMPAE_clean_linker_10, # of connection points: 2
#     Edge 16, Type (0, 0), BuildingBlock: TEMPAE_clean_linker_10, # of connection points: 2
#     Edge 17, Type (0, 0), BuildingBlock: TEMPAE_clean_linker_10, # of connection points: 2
#     Edge 18, Type (0, 0), BuildingBlock: TEMPAE_clean_linker_10, # of connection points: 2
#     Edge 19, Type (0, 0), BuildingBlock: TEMPAE_clean_linker_10, # of connection points: 2
#     Edge 20, Type (0, 0), BuildingBlock: TEMPAE_clean_linker_10, # of connection points: 2
#     Edge 21, Type (0, 0), BuildingBlock: TEMPAE_clean_linker_10, # of connection points: 2
#     Edge 22, Type (0, 0), BuildingBlock: TEMPAE_clean_linker_10, # of connection points: 2
#     Edge 23, Type (0, 0), BuildingBlock: TEMPAE_clean_linker_10, # of connection points: 2
# Relax obj value: 0.217
# Max RMSD: 0.311
# Mean RMSD: 0.311
data_MOF--net-smu--node1-PAMTOO_clean_sbu_0--edge1-TEMPAE_clean_linker_10
_symmetry_space_group_name_H-M    P1
_symmetry_Int_Tables_number       1
_symmetry_cell_setting            triclinic
loop_
_symmetry_equiv_pos_as_xyz
'x, y, z'
_cell_length_a     39.838582
_cell_length_b     39.823883
_cell_length_c     28.43428
_cell_angle_alpha  90.099846
_cell_angle_beta   90.003317
_cell_angle_gamma 119.96123
loop_
_atom_site_label
_atom_site_type_symbol
_atom_site_fract_x
_atom_site_fract_y
_atom_site_fract_z
_atom_type_partial_charge
Dy0 Dy 0.37505 0.08225 0.25947 0.0
Dy1 Dy 0.31283 0.11301 0.25938 0.0
C2 C 0.32809 0.07761 0.35201 0.0
O3 O 0.31618 0.02731 0.26312 0.0
O4 O 0.27581 0.05133 0.24143 0.0
O5 O 0.41267 0.06694 0.29755 0.0
O6 O 0.41466 0.06987 0.22172 0.0
O7 O 0.3195 0.10264 0.18219 0.0
O8 O 0.34669 0.06369 0.19007 0.0
O9 O 0.36903 0.15685 0.29066 0.0
O10 O 0.40591 0.14536 0.24124 0.0
O11 O 0.30376 0.15968 0.23707 0.0
O12 O 0.26412 0.11646 0.28685 0.0
C13 C 0.28207 0.02244 0.24986 0.0
O14 O 0.36264 0.08794 0.33518 0.0
O15 O 0.30209 0.08029 0.32655 0.0
C16 C 0.47429 0.08897 0.26071 0.0
C17 C 0.55654 0.12764 0.26169 0.0
C18 C 0.53546 0.12082 0.30379 0.0
C19 C 0.49487 0.10171 0.30331 0.0
C20 C 0.49534 0.09615 0.21864 0.0
C21 C 0.53585 0.1154 0.21909 0.0
C22 C 0.4312 0.06689 0.25974 0.0
C23 C 0.32841 0.07717 0.16497 0.0
C24 C 0.40104 0.16977 0.26693 0.0
C25 C 0.24143 0.15459 0.24752 0.0
C26 C 0.18889 0.18147 0.2314 0.0
C27 C 0.22043 0.192 0.20097 0.0
C28 C 0.24655 0.17881 0.20905 0.0
C29 C 0.20884 0.14249 0.27643 0.0
C30 C 0.18287 0.15575 0.26849 0.0
C31 C 0.27292 0.14789 0.26326 0.0
H32 H 0.55025 0.12933 0.33735 0.0
H33 H 0.47964 0.09645 0.33643 0.0
H34 H 0.48047 0.08659 0.18519 0.0
H35 H 0.55095 0.12066 0.18587 0.0
H36 H 0.22557 0.21132 0.17167 0.0
H37 H 0.27163 0.18902 0.18642 0.0
H38 H 0.20453 0.12448 0.30691 0.0
H39 H 0.15924 0.14745 0.29304 0.0
Dy40 Dy 0.7175 0.64084 0.26089 0.0
Dy41 Dy 0.81058 0.70176 0.26096 0.0
C42 C 0.76011 0.68583 0.35388 0.0
O43 O 0.72261 0.7002 0.26662 0.0
O44 O 0.78704 0.74009 0.24493 0.0
O45 O 0.66457 0.60384 0.29908 0.0
O46 O 0.66512 0.60219 0.22319 0.0
O47 O 0.79341 0.69673 0.18387 0.0
O48 O 0.72741 0.67016 0.19234 0.0
O49 O 0.79762 0.64454 0.28918 0.0
O50 O 0.74859 0.60932 0.23979 0.0
O51 O 0.86649 0.7131 0.23551 0.0
O52 O 0.86254 0.74742 0.293 0.0
C53 C 0.75218 0.7343 0.25402 0.0
O54 O 0.73611 0.65143 0.33647 0.0
O55 O 0.78858 0.71207 0.3285 0.0
C56 C 0.62436 0.54259 0.26171 0.0
C57 C 0.58067 0.46042 0.2618 0.0
C58 C 0.59601 0.48118 0.30392 0.0
C59 C 0.61756 0.52176 0.30389 0.0
C60 C 0.6094 0.52183 0.21959 0.0
C61 C 0.58804 0.48133 0.21959 0.0
C62 C 0.6457 0.58566 0.26122 0.0
C63 C 0.75904 0.68828 0.16709 0.0
C64 C 0.77799 0.61319 0.26434 0.0
C65 C 0.92495 0.77197 0.25715 0.0
C66 C 1.00542 0.82314 0.24834 0.0
C67 C 0.98373 0.79997 0.21006 0.0
C68 C 0.94382 0.77446 0.21447 0.0
C69 C 0.94635 0.79613 0.29468 0.0
C70 C 0.98607 0.82135 0.2904 0.0
C71 C 0.88516 0.74051 0.26655 0.0
H72 H 0.59055 0.46614 0.33718 0.0
H73 H 0.62842 0.53678 0.33705 0.0
H74 H 0.61396 0.53693 0.18649 0.0
H75 H 0.57727 0.46639 0.18638 0.0
H76 H 0.99771 0.80109 0.17697 0.0
H77 H 0.92809 0.75586 0.1851 0.0
H78 H 0.93268 0.79418 0.3283 0.0
H79 H 1.00187 0.83826 0.32083 0.0
Dy80 Dy 0.93545 0.2995 0.24805 0.0
Dy81 Dy 0.90554 0.20649 0.26242 0.0
C82 C 0.94494 0.26674 0.34544 0.0
O83 O 0.98985 0.29673 0.23552 0.0
O84 O 0.96933 0.23281 0.25674 0.0
O85 O 0.95393 0.35549 0.27918 0.0
O86 O 0.94503 0.34787 0.20399 0.0
O87 O 0.92974 0.21939 0.189 0.0
O88 O 0.92314 0.27272 0.17623 0.0
O89 O 0.85452 0.2118 0.24275 0.0
O90 O 0.87403 0.27136 0.27367 0.0
O91 O 0.86102 0.1482 0.24742 0.0
O92 O 0.90526 0.15847 0.29939 0.0
C93 C 0.99631 0.26783 0.24412 0.0
O94 O 0.96193 0.29423 0.31417 0.0
O95 O 0.91379 0.23379 0.33427 0.0
C96 C 0.92872 0.39143 0.24119 0.0
C97 C 0.8894 0.43429 0.24326 0.0
C98 C 0.89266 0.41625 0.28416 0.0
C99 C 0.91201 0.39504 0.28314 0.0
C100 C 0.92508 0.40899 0.20024 0.0
C101 C 0.90551 0.42999 0.20117 0.0
C102 C 0.95092 0.37061 0.2399 0.0
C103 C 0.93217 0.24694 0.16111 0.0
C104 C 0.84646 0.23724 0.26001 0.0
C105 C 0.86826 0.09393 0.26717 0.0
C106 C 0.83976 0.0136 0.25767 0.0
C107 C 0.83722 0.03504 0.21997 0.0
C108 C 0.85135 0.07485 0.22465 0.0
C109 C 0.87279 0.07295 0.30378 0.0
C110 C 0.85878 0.03321 0.29907 0.0
C111 C 0.87409 0.13282 0.27751 0.0
H112 H 0.88113 0.41931 0.31736 0.0
H113 H 0.91427 0.38196 0.31546 0.0
H114 H 0.93764 0.40671 0.16744 0.0
H115 H 0.90305 0.44287 0.1688 0.0
H116 H 0.82332 0.02081 0.18734 0.0
H117 H 0.84728 0.0902 0.19581 0.0
H118 H 0.88515 0.08683 0.33714 0.0
H119 H 0.86097 0.0175 0.32886 0.0
Dy120 Dy 0.08383 0.37145 0.76643 0.0
Dy121 Dy 0.10599 0.30137 0.75098 0.0
C122 C 0.07623 0.33303 0.66452 0.0
O123 O 0.02908 0.31491 0.78029 0.0
O124 O 0.04371 0.27624 0.73468 0.0
O125 O 0.06116 0.40787 0.74211 0.0
O126 O 0.08743 0.41708 0.81099 0.0
O127 O 0.08533 0.2935 0.82599 0.0
O128 O 0.08349 0.34991 0.83921 0.0
O129 O 0.15993 0.35322 0.77573 0.0
O130 O 0.14683 0.39932 0.74782 0.0
O131 O 0.14184 0.2826 0.71573 0.0
O132 O 0.09489 0.24287 0.76132 0.0
C133 C 0.01919 0.28158 0.75961 0.0
O134 O 0.06379 0.35012 0.69356 0.0
O135 O 0.09935 0.32017 0.6785 0.0
C136 C 0.09282 0.47256 0.77346 0.0
C137 C 0.12736 0.55419 0.76518 0.0
C138 C 0.12258 0.53104 0.72536 0.0
C139 C 0.10547 0.49062 0.72944 0.0
C140 C 0.09818 0.49569 0.81316 0.0
C141 C 0.11535 0.5359 0.80917 0.0
C142 C 0.07293 0.4299 0.77944 0.0
C143 C 0.07988 0.31692 0.8537 0.0
C144 C 0.17152 0.38874 0.76206 0.0
C145 C 0.14377 0.22711 0.74305 0.0
C146 C 0.18314 0.18561 0.75788 0.0
C147 C 0.19232 0.21879 0.78503 0.0
C148 C 0.17269 0.23945 0.77767 0.0
C149 C 0.13482 0.19433 0.71599 0.0
C150 C 0.15431 0.1739 0.72311 0.0
C151 C 0.12255 0.2476 0.73282 0.0
H152 H 0.13122 0.54403 0.69085 0.0
H153 H 0.10178 0.47357 0.69814 0.0
H154 H 0.08878 0.48254 0.84752 0.0
H155 H 0.11925 0.55267 0.84078 0.0
H156 H 0.21425 0.22845 0.81223 0.0
H157 H 0.18001 0.26486 0.79881 0.0
H158 H 0.11277 0.18459 0.68887 0.0
H159 H 0.14705 0.1491 0.70082 0.0
Dy160 Dy 0.29995 0.93213 0.75633 0.0
Dy161 Dy 0.20772 0.90487 0.75781 0.0
C162 C 0.25748 0.9368 0.66377 0.0
O163 O 0.2982 0.98805 0.75009 0.0
O164 O 0.23507 0.96734 0.77443 0.0
O165 O 0.35147 0.94401 0.71738 0.0
O166 O 0.35244 0.94498 0.7933 0.0
O167 O 0.22545 0.91581 0.83455 0.0
O168 O 0.29168 0.95201 0.82585 0.0
O169 O 0.21707 0.85829 0.72828 0.0
O170 O 0.26643 0.86933 0.77593 0.0
O171 O 0.15143 0.86024 0.7813 0.0
O172 O 0.15639 0.90383 0.73076 0.0
C173 C 0.27036 0.99487 0.76388 0.0
O174 O 0.28123 0.92589 0.68077 0.0
O175 O 0.22955 0.93552 0.68946 0.0
C176 C 0.39152 0.92331 0.75588 0.0
C177 C 0.43537 0.88492 0.75745 0.0
C178 C 0.41659 0.88609 0.71602 0.0
C179 C 0.39495 0.90505 0.71523 0.0
C180 C 0.40972 0.92159 0.79742 0.0
C181 C 0.43115 0.9025 0.79828 0.0
C182 C 0.37085 0.94572 0.75514 0.0
C183 C 0.26036 0.93988 0.85148 0.0
C184 C 0.23612 0.84501 0.75158 0.0
C185 C 0.09348 0.86339 0.76558 0.0
C186 C 0.01272 0.83213 0.77487 0.0
C187 C 0.03388 0.82566 0.80978 0.0
C188 C 0.0739 0.84104 0.80511 0.0
C189 C 0.07266 0.87134 0.7319 0.0
C190 C 0.03276 0.85591 0.73645 0.0
C191 C 0.13329 0.87254 0.75423 0.0
H192 H 0.4195 0.8733 0.68374 0.0
H193 H 0.38149 0.90594 0.68252 0.0
H194 H 0.40777 0.93545 0.82931 0.0
H195 H 0.44456 0.90166 0.83106 0.0
H196 H 0.01936 0.80795 0.84017 0.0
H197 H 0.08913 0.83411 0.83145 0.0
H198 H 0.08688 0.88783 0.70061 0.0
H199 H 0.01738 0.8611 0.70858 0.0
Dy200 Dy 0.64219 0.71318 0.75647 0.0
Dy201 Dy 0.70622 0.80557 0.76093 0.0
C202 C 0.69082 0.75758 0.66608 0.0
O203 O 0.70012 0.71536 0.75131 0.0
O204 O 0.74094 0.77815 0.77781 0.0
O205 O 0.6031 0.66271 0.71508 0.0
O206 O 0.60306 0.65939 0.79089 0.0
O207 O 0.69675 0.78592 0.83676 0.0
O208 O 0.66878 0.72008 0.82677 0.0
O209 O 0.65089 0.79804 0.73234 0.0
O210 O 0.61199 0.74594 0.77652 0.0
O211 O 0.72326 0.86024 0.79555 0.0
O212 O 0.75401 0.85809 0.73223 0.0
C213 C 0.73412 0.74326 0.76678 0.0
O214 O 0.65574 0.73421 0.68194 0.0
O215 O 0.7173 0.78461 0.69297 0.0
C216 C 0.54269 0.62086 0.75214 0.0
C217 C 0.46074 0.57542 0.75351 0.0
C218 C 0.48197 0.57514 0.71408 0.0
C219 C 0.52244 0.59753 0.71348 0.0
C220 C 0.52152 0.6219 0.7912 0.0
C221 C 0.48104 0.59944 0.79185 0.0
C222 C 0.58567 0.64204 0.75208 0.0
C223 C 0.68678 0.75117 0.85309 0.0
C224 C 0.61791 0.77692 0.75367 0.0
C225 C 0.77626 0.9214 0.76746 0.0
C226 C 0.8237 1.00258 0.77214 0.0
C227 C 0.81103 0.98035 0.81353 0.0
C228 C 0.78723 0.94015 0.81117 0.0
C229 C 0.78916 0.94325 0.7261 0.0
C230 C 0.81236 0.9835 0.72838 0.0
C231 C 0.75077 0.87925 0.765 0.0
H232 H 0.46741 0.55671 0.68414 0.0
H233 H 0.53802 0.59603 0.68306 0.0
H234 H 0.53616 0.63966 0.82159 0.0
H235 H 0.46564 0.60084 0.82249 0.0
H236 H 0.81981 0.99389 0.84779 0.0
H237 H 0.77772 0.92367 0.84352 0.0
H238 H 0.78068 0.92928 0.692 0.0
H239 H 0.82093 0.99966 0.69578 0.0
C240 C 0.23393 0.95208 0.92685 0.0
C241 C 0.26549 0.9586 0.8985 0.0
C242 C 0.23971 0.97214 0.96983 0.0
C243 C 0.27783 0.99957 0.9845 0.0
C244 C 0.30957 0.0066 0.95564 0.0
C245 C 0.30306 0.98603 0.91346 0.0
C246 C 0.20516 0.96365 0.99989 0.0
C247 C 0.35075 0.03533 0.9698 0.0
C248 C 0.30286 0.07455 0.08239 0.0
C249 C 0.31258 0.05749 0.11908 0.0
C250 C 0.28966 0.05534 0.0387 0.0
C251 C 0.28554 0.01807 0.03206 0.0
C252 C 0.29335 1.00007 0.06993 0.0
C253 C 0.30681 0.01993 0.11259 0.0
C254 C 0.28165 0.07548 0.99906 0.0
C255 C 0.28924 0.96039 0.06485 0.0
H256 H 0.20479 0.93144 0.91548 0.0
H257 H 0.32786 0.9918 0.89202 0.0
H258 H 0.20726 0.95164 0.03424 0.0
H259 H 0.20486 0.99086 1.00732 0.0
H260 H 0.17733 0.94268 0.98289 0.0
H261 H 0.37199 0.03953 0.94187 0.0
H262 H 0.35353 0.06384 0.97811 0.0
H263 H 0.35852 0.02506 1.00204 0.0
H264 H 0.3067 0.10326 0.08729 0.0
H265 H 0.31304 1.0058 0.14106 0.0
H266 H 0.25277 0.05595 0.98345 0.0
H267 H 0.30343 0.08274 0.97082 0.0
H268 H 0.28272 0.10261 0.01085 0.0
H269 H 0.26041 0.93952 0.05014 0.0
H270 H 0.29288 0.94891 0.09889 0.0
H271 H 0.31141 0.9619 0.03996 0.0
C272 C 0.67591 0.7368 0.58172 0.0
C273 C 0.70212 0.74999 0.61936 0.0
C274 C 0.68599 0.72752 0.53811 0.0
C275 C 0.72249 0.72983 0.5327 0.0
C276 C 0.74889 0.74281 0.57089 0.0
C277 C 0.73868 0.75345 0.61339 0.0
C278 C 0.65756 0.7152 0.49782 0.0
C279 C 0.78752 0.74448 0.56733 0.0
C280 C 0.73121 0.66887 0.43487 0.0
C281 C 0.75228 0.69695 0.40072 0.0
C282 C 0.72195 0.67925 0.4783 0.0
C283 C 0.73299 0.71849 0.48724 0.0
C284 C 0.75398 0.74689 0.45262 0.0
C285 C 0.7638 0.73586 0.41014 0.0
C286 C 0.7003 0.64819 0.5146 0.0
C287 C 0.76537 0.78883 0.46001 0.0
H288 H 0.64765 0.7341 0.58629 0.0
H289 H 0.75882 0.76312 0.64267 0.0
H290 H 0.67167 0.73363 0.46662 0.0
H291 H 0.64815 0.68487 0.48766 0.0
H292 H 0.63147 0.7172 0.50684 0.0
H293 H 0.80451 0.75472 0.60045 0.0
H294 H 0.78293 0.71527 0.55881 0.0
H295 H 0.80489 0.76413 0.5384 0.0
H296 H 0.72211 0.63876 0.42771 0.0
H297 H 0.77946 0.75767 0.38355 0.0
H298 H 0.67176 0.64566 0.52174 0.0
H299 H 0.71667 0.6562 0.54822 0.0
H300 H 0.69547 0.61942 0.50316 0.0
H301 H 0.73923 0.7911 0.46749 0.0
H302 H 0.78036 0.80707 0.42892 0.0
H303 H 0.78482 0.80075 0.49093 0.0
C304 C 0.96064 0.22614 0.09538 0.0
C305 C 0.95105 0.25299 0.11402 0.0
C306 C 0.98244 0.23399 0.0536 0.0
C307 C 0.9954 0.26971 0.02996 0.0
C308 C 0.98562 0.29677 0.04847 0.0
C309 C 0.9635 0.28803 0.08988 0.0
C310 C 0.99156 0.20403 0.03466 0.0
C311 C 0.99893 0.33531 0.02477 0.0
C312 C 0.07938 0.30964 0.94178 0.0
C313 C 0.05951 0.30176 0.89898 0.0
C314 C 0.05895 0.2984 0.98481 0.0
C315 C 0.01775 0.27847 0.98482 0.0
C316 C 0.9978 0.26961 0.94132 0.0
C317 C 0.01892 0.28203 0.89924 0.0
C318 C 0.08145 0.30884 0.03027 0.0
C319 C 0.95407 0.24834 0.93913 0.0
H320 H 0.95158 0.19915 0.1138 0.0
H321 H 0.9569 0.30936 0.10403 0.0
H322 H 0.97816 0.1942 0.99943 0.0
H323 H 0.0233 0.2169 0.0302 0.0
H324 H 0.98081 0.17838 0.05805 0.0
H325 H 0.99018 0.35382 0.04449 0.0
H326 H 0.03094 0.35124 0.02121 0.0
H327 H 0.98659 0.3306 0.98879 0.0
H328 H 0.11078 0.32547 0.94165 0.0
H329 H 1.0035 0.2773 0.86641 0.0
H330 H 0.07334 0.28219 0.05064 0.0
H331 H 0.07401 0.32734 0.05206 0.0
H332 H 0.11326 0.32441 0.02441 0.0
H333 H 0.94173 0.22194 0.96131 0.0
H334 H 0.94306 0.2397 0.90264 0.0
H335 H 0.94325 0.2672 0.95314 0.0
C336 C 0.27877 0.02772 0.40547 0.0
C337 C 0.31666 0.05844 0.39851 0.0
C338 C 0.26801 0.00666 0.44773 0.0
C339 C 0.29536 0.0175 0.48472 0.0
C340 C 0.33335 0.04925 0.47829 0.0
C341 C 0.34377 0.06881 0.4349 0.0
C342 C 0.22767 0.97218 0.45231 0.0
C343 C 0.36303 0.06259 0.51726 0.0
C344 C 0.25629 0.98487 0.60859 0.0
C345 C 0.26509 0.95536 0.61681 0.0
C346 C 0.26631 1.00555 0.56607 0.0
C347 C 0.28431 0.99557 0.53004 0.0
C348 C 0.29219 0.96497 0.53761 0.0
C349 C 0.2832 0.94576 0.58126 0.0
C350 C 0.25876 0.03891 0.56039 0.0
C351 C 0.3102 0.95256 0.49962 0.0
H352 H 0.25787 0.01915 0.37708 0.0
H353 H 0.37306 0.09249 0.42957 0.0
H354 H 0.22933 0.94589 0.46104 0.0
H355 H 0.21206 0.97697 0.4815 0.0
H356 H 0.21042 0.96651 0.41955 0.0
H357 H 0.39051 0.08908 0.5076 0.0
H358 H 0.35129 0.06869 0.54952 0.0
H359 H 0.36959 0.03935 0.52599 0.0
H360 H 0.24275 0.99281 0.63616 0.0
H361 H 0.29007 0.92301 0.58747 0.0
H362 H 0.24086 0.03462 0.52867 0.0
H363 H 0.28665 0.06623 0.55535 0.0
H364 H 0.24376 0.04241 0.59136 0.0
H365 H 0.29303 0.94598 0.46671 0.0
H366 H 0.31201 0.9266 0.50985 0.0
H367 H 0.33983 0.97648 0.49172 0.0
C368 C 0.72506 0.77858 0.92822 0.0
C369 C 0.70049 0.74655 0.90013 0.0
C370 C 0.73992 0.77365 0.97111 0.0
C371 C 0.73023 0.73589 0.98602 0.0
C372 C 0.70597 0.70365 0.95741 0.0
C373 C 0.69137 0.70934 0.91521 0.0
C374 C 0.76549 0.80871 1.00084 0.0
C375 C 0.69458 0.66282 0.97191 0.0
C376 C 0.78167 0.71356 0.0844 0.0
C377 C 0.75492 0.70375 0.12114 0.0
C378 C 0.77514 0.72595 0.0405 0.0
C379 C 0.74144 0.72903 0.03366 0.0
C380 C 0.71563 0.72116 0.07154 0.0
C381 C 0.72263 0.70865 0.11445 0.0
C382 C 0.80342 0.73432 1.00089 0.0
C383 C 0.67947 0.72419 0.06622 0.0
H384 H 0.73284 0.80749 0.91667 0.0
H385 H 0.67276 0.68426 0.89384 0.0
H386 H 0.75136 0.80661 0.0352 0.0
H387 H 0.79334 0.80979 0.00829 0.0
H388 H 0.77165 0.83621 0.98356 0.0
H389 H 0.67784 0.64119 0.94414 0.0
H390 H 0.72076 0.66088 0.98024 0.0
H391 H 0.67662 0.65494 1.00422 0.0
H392 H 0.80692 0.7104 0.08944 0.0
H393 H 0.70224 0.70234 0.14293 0.0
H394 H 0.81251 0.76321 0.98557 0.0
H395 H 0.78916 0.71261 0.97244 0.0
H396 H 0.82961 0.73353 0.01265 0.0
H397 H 0.68672 0.75274 0.05129 0.0
H398 H 0.66422 0.72042 0.10019 0.0
H399 H 0.65919 0.70159 0.04141 0.0
C400 C 0.9432 0.25217 0.43231 0.0
C401 C 0.96359 0.27314 0.39247 0.0
C402 C 0.96134 0.26012 0.47683 0.0
C403 C 1.00089 0.28921 0.48137 0.0
C404 C 0.02181 0.30938 0.44088 0.0
C405 C 1.00293 0.30129 0.39723 0.0
C406 C 0.938 0.23803 0.51919 0.0
C407 C 0.06409 0.34016 0.44373 0.0
C408 C 0.03926 0.34131 0.59843 0.0
C409 C 0.05943 0.32354 0.61622 0.0
C410 C 0.01985 0.33012 0.55498 0.0
C411 C 0.0202 0.30013 0.52851 0.0
C412 C 0.04064 0.28214 0.54607 0.0
C413 C 0.06011 0.29413 0.58956 0.0
C414 C 0.9989 0.35047 0.53738 0.0
C415 C 0.04175 0.25006 0.519 0.0
H416 H 0.91292 0.23026 0.4289 0.0
H417 H 0.01926 0.31719 0.36656 0.0
H418 H 0.95242 0.22401 0.53738 0.0
H419 H 0.93643 0.25838 0.54462 0.0
H420 H 0.90804 0.21542 0.50968 0.0
H421 H 0.07674 0.35174 0.4086 0.0
H422 H 0.06744 0.36455 0.46601 0.0
H423 H 0.08103 0.32822 0.46049 0.0
H424 H 0.03838 0.36393 0.61869 0.0
H425 H 0.07504 0.27973 0.6032 0.0
H426 H 0.96794 0.32904 0.53095 0.0
H427 H 0.0115 0.36489 0.50337 0.0
H428 H 1.00062 0.37262 0.56258 0.0
H429 H 0.01184 0.22584 0.51296 0.0
H430 H 0.05845 0.23863 0.53766 0.0
H431 H 0.05501 0.26077 0.48395 0.0
C432 C 0.62225 0.1767 0.29364 0.0
C433 C 0.59977 0.14638 0.2622 0.0
C434 C 0.66285 0.19379 0.29505 0.0
C435 C 0.68164 0.18068 0.26389 0.0
C436 C 0.65923 0.15048 0.23169 0.0
C437 C 0.6187 0.13356 0.23149 0.0
C438 C 0.68563 0.22554 0.33035 0.0
C439 C 0.67802 0.13569 0.19767 0.0
C440 C 0.78968 0.24474 0.2389 0.0
C441 C 0.80532 0.226 0.26489 0.0
C442 C 0.74944 0.23053 0.23849 0.0
C443 C 0.7246 0.19757 0.26586 0.0
C444 C 0.74071 0.17961 0.29364 0.0
C445 C 0.78079 0.19361 0.29207 0.0
C446 C 0.73335 0.24975 0.20726 0.0
C447 C 0.71552 0.14508 0.32423 0.0
H448 H 0.60814 0.18726 0.3171 0.0
H449 H 0.60176 0.10971 0.20767 0.0
H450 H 0.7019 0.21662 0.35405 0.0
H451 H 0.70722 0.25221 0.312 0.0
H452 H 0.66676 0.23256 0.35206 0.0
H453 H 0.65676 0.11366 0.17301 0.0
H454 H 0.70061 0.16008 0.17689 0.0
H455 H 0.69256 0.12249 0.21735 0.0
H456 H 0.80871 0.26937 0.21724 0.0
H457 H 0.79303 0.17904 0.3119 0.0
H458 H 0.71549 0.25852 0.22816 0.0
H459 H 0.71414 0.22882 0.18022 0.0
H460 H 0.75655 0.27571 0.18919 0.0
H461 H 0.6971 0.15164 0.34737 0.0
H462 H 0.73286 0.13646 0.34653 0.0
H463 H 0.69586 0.12001 0.30189 0.0
C464 C 0.56515 0.39453 0.29128 0.0
C465 C 0.55612 0.41728 0.26196 0.0
C466 C 0.54157 0.35396 0.29249 0.0
C467 C 0.50825 0.33557 0.26347 0.0
C468 C 0.49922 0.35826 0.2334 0.0
C469 C 0.52311 0.39874 0.23316 0.0
C470 C 0.55203 0.33079 0.32525 0.0
C471 C 0.46394 0.33982 0.20195 0.0
C472 C 0.46175 0.22754 0.23695 0.0
C473 C 0.42991 0.21183 0.26756 0.0
C474 C 0.48778 0.26773 0.23558 0.0
C475 C 0.48197 0.29274 0.26574 0.0
C476 C 0.45029 0.27693 0.29731 0.0
C477 C 0.42465 0.23677 0.29774 0.0
C478 C 0.52106 0.28351 0.2012 0.0
C479 C 0.44313 0.30251 0.33023 0.0
H480 H 0.59082 0.40843 0.31321 0.0
H481 H 0.51541 0.41597 0.21099 0.0
H482 H 0.5283 0.31493 0.35093 0.0
H483 H 0.55543 0.30882 0.30505 0.0
H484 H 0.57927 0.34935 0.34491 0.0
H485 H 0.46189 0.36135 0.17913 0.0
H486 H 0.46461 0.31748 0.17926 0.0
H487 H 0.43732 0.32501 0.22369 0.0
H488 H 0.46595 0.20853 0.21339 0.0
H489 H 0.40017 0.22496 0.32158 0.0
H490 H 0.54892 0.30085 0.2201 0.0
H491 H 0.51825 0.30318 0.17594 0.0
H492 H 0.52226 0.26018 0.18112 0.0
H493 H 0.46916 0.32015 0.35222 0.0
H494 H 0.41797 0.28556 0.35378 0.0
H495 H 0.43767 0.32294 0.30963 0.0
C496 C 0.88581 0.49316 0.21918 0.0
C497 C 0.8704 0.45849 0.24483 0.0
C498 C 0.86906 0.5169 0.22128 0.0
C499 C 0.8363 0.50606 0.2502 0.0
C500 C 0.82037 0.47102 0.27594 0.0
C501 C 0.83745 0.44758 0.27276 0.0
C502 C 0.88693 0.55401 0.19321 0.0
C503 C 0.78566 0.45863 0.30747 0.0
C504 C 0.82023 0.58749 0.2926 0.0
C505 C 0.79091 0.58414 0.26223 0.0
C506 C 0.83472 0.56188 0.28955 0.0
C507 C 0.8198 0.53227 0.25502 0.0
C508 C 0.78989 0.5284 0.22458 0.0
C509 C 0.77566 0.55428 0.22869 0.0
C510 C 0.86641 0.56686 0.32293 0.0
C511 C 0.77353 0.49745 0.18702 0.0
H512 H 0.91162 0.50231 0.19815 0.0
H513 H 0.82491 0.42062 0.2922 0.0
H514 H 0.86464 0.55494 0.17074 0.0
H515 H 0.89832 0.57925 0.21738 0.0
H516 H 0.91101 0.55722 0.17042 0.0
H517 H 0.77619 0.43015 0.32436 0.0
H518 H 0.7927 0.48064 0.33544 0.0
H519 H 0.76107 0.45673 0.28697 0.0
H520 H 0.8322 0.61043 0.31869 0.0
H521 H 0.75319 0.55164 0.20492 0.0
H522 H 0.89286 0.57344 0.30283 0.0
H523 H 0.85728 0.53951 0.34239 0.0
H524 H 0.87396 0.59053 0.34879 0.0
H525 H 0.79681 0.50173 0.16216 0.0
H526 H 0.74978 0.49771 0.16684 0.0
H527 H 0.76227 0.46843 0.20312 0.0
C528 C 0.17535 0.6194 0.73111 0.0
C529 C 0.14406 0.59709 0.76123 0.0
C530 C 0.19156 0.65989 0.72809 0.0
C531 C 0.17633 0.67866 0.75601 0.0
C532 C 0.14467 0.65631 0.78626 0.0
C533 C 0.12884 0.61594 0.78828 0.0
C534 C 0.22509 0.68263 0.69511 0.0
C535 C 0.12744 0.67505 0.8166 0.0
C536 C 0.23818 0.78683 0.78216 0.0
C537 C 0.2224 0.80274 0.75126 0.0
C538 C 0.22378 0.74657 0.78373 0.0
C539 C 0.19312 0.7216 0.75337 0.0
C540 C 0.17758 0.7376 0.72151 0.0
C541 C 0.19225 0.77785 0.721 0.0
C542 C 0.24085 0.73067 0.8186 0.0
C543 C 0.14507 0.71212 0.68833 0.0
H544 H 0.18763 0.60532 0.71039 0.0
H545 H 0.10418 0.59903 0.81092 0.0
H546 H 0.21752 0.69885 0.66958 0.0
H547 H 0.25067 0.70429 0.71525 0.0
H548 H 0.2333 0.66374 0.67531 0.0
H549 H 0.10336 0.6537 0.83896 0.0
H550 H 0.15012 0.69726 0.83974 0.0
H551 H 0.11629 0.69008 0.79415 0.0
H552 H 0.26131 0.80575 0.80583 0.0
H553 H 0.17985 0.78979 0.69693 0.0
H554 H 0.25156 0.71333 0.80004 0.0
H555 H 0.21811 0.71098 0.84355 0.0
H556 H 0.26514 0.75393 0.839 0.0
H557 H 0.15347 0.69426 0.66674 0.0
H558 H 0.13723 0.72917 0.66441 0.0
H559 H 0.11898 0.69188 0.70871 0.0
C560 C 0.49528 0.88385 0.78312 0.0
C561 C 0.46031 0.86668 0.75779 0.0
C562 C 0.51953 0.86763 0.7832 0.0
C563 C 0.50893 0.83355 0.75686 0.0
C564 C 0.47367 0.81593 0.73133 0.0
C565 C 0.44973 0.83257 0.73226 0.0
C566 C 0.55684 0.88735 0.81097 0.0
C567 C 0.46149 0.77978 0.70248 0.0
C568 C 0.59144 0.81708 0.7203 0.0
C569 C 0.58846 0.78941 0.7531 0.0
C570 C 0.5652 0.83092 0.72045 0.0
C571 C 0.53551 0.81727 0.75473 0.0
C572 C 0.53209 0.78906 0.78769 0.0
C573 C 0.55841 0.77521 0.78624 0.0
C574 C 0.5696 0.86057 0.68425 0.0
C575 C 0.50122 0.77423 0.82524 0.0
H576 H 0.50421 0.91056 0.80226 0.0
H577 H 0.42259 0.81873 0.71307 0.0
H578 H 0.55822 0.86645 0.83552 0.0
H579 H 0.58191 0.89769 0.78678 0.0
H580 H 0.55994 0.91249 0.83155 0.0
H581 H 0.43294 0.76926 0.68518 0.0
H582 H 0.48348 0.78562 0.67496 0.0
H583 H 0.45983 0.75634 0.72512 0.0
H584 H 0.61445 0.82808 0.69439 0.0
H585 H 0.55607 0.75404 0.81188 0.0
H586 H 0.57615 0.88802 0.70198 0.0
H587 H 0.54205 0.85016 0.66467 0.0
H588 H 0.59307 0.86686 0.65863 0.0
H589 H 0.50534 0.7986 0.84816 0.0
H590 H 0.50177 0.75163 0.84751 0.0
H591 H 0.47214 0.76196 0.8089 0.0
C592 C 0.24005 0.40455 0.75034 0.0
C593 C 0.2136 0.41701 0.7608 0.0
C594 C 0.28003 0.43098 0.74814 0.0
C595 C 0.29404 0.47067 0.75812 0.0
C596 C 0.26743 0.48332 0.76923 0.0
C597 C 0.22746 0.45642 0.76967 0.0
C598 C 0.30726 0.41645 0.73485 0.0
C599 C 0.28123 0.52515 0.78128 0.0
C600 C 0.3995 0.52985 0.79655 0.0
C601 C 0.41777 0.54982 0.75516 0.0
C602 C 0.35924 0.50456 0.7982 0.0
C603 C 0.33657 0.49878 0.7574 0.0
C604 C 0.35472 0.51908 0.71564 0.0
C605 C 0.39501 0.54442 0.71507 0.0
C606 C 0.34103 0.4836 0.84349 0.0
C607 C 0.33167 0.51358 0.67129 0.0
H608 H 0.22937 0.37416 0.74292 0.0
H609 H 0.20707 0.46607 0.77799 0.0
H610 H 0.32481 0.43261 0.70387 0.0
H611 H 0.32772 0.4217 0.76414 0.0
H612 H 0.29163 0.385 0.7264 0.0
H613 H 0.25689 0.53027 0.7895 0.0
H614 H 0.30095 0.53401 0.8121 0.0
H615 H 0.29801 0.54412 0.75154 0.0
H616 H 0.41681 0.53331 0.82752 0.0
H617 H 0.40872 0.56009 0.68313 0.0
H618 H 0.32799 0.45189 0.83826 0.0
H619 H 0.31733 0.48902 0.85402 0.0
H620 H 0.36234 0.4927 0.87272 0.0
H621 H 0.31713 0.48273 0.66026 0.0
H622 H 0.35006 0.53177 0.64186 0.0
H623 H 0.30865 0.52092 0.67793 0.0
C624 C 0.18011 0.23879 0.2167 0.0
C625 C 0.16382 0.19914 0.22677 0.0
C626 C 0.15721 0.25649 0.21599 0.0
C627 C 0.11721 0.23411 0.22606 0.0
C628 C 0.10044 0.19396 0.23535 0.0
C629 C 0.1239 0.17696 0.23532 0.0
C630 C 0.17594 0.29929 0.20574 0.0
C631 C 0.05777 0.16902 0.24608 0.0
C632 C 0.05711 0.27519 0.27556 0.0
C633 C 0.03465 0.27254 0.23647 0.0
C634 C 0.08648 0.26567 0.27182 0.0
C635 C 0.09265 0.25243 0.22814 0.0
C636 C 0.07157 0.25218 0.1879 0.0
C637 C 0.04293 0.26264 0.19254 0.0
C638 C 0.10825 0.2663 0.31557 0.0
C639 C 0.07699 0.23787 0.1409 0.0
H640 H 0.21102 0.25633 0.21078 0.0
H641 H 0.11099 0.14623 0.2424 0.0
H642 H 0.16053 0.30431 0.17651 0.0
H643 H 0.17367 0.3147 0.23706 0.0
H644 H 0.207 0.31221 0.1962 0.0
H645 H 0.04917 0.13815 0.2517 0.0
H646 H 0.05043 0.17991 0.27816 0.0
H647 H 0.04025 0.17064 0.21677 0.0
H648 H 0.0498 0.28191 0.30972 0.0
H649 H 0.02479 0.25989 0.1627 0.0
H650 H 0.13973 0.28004 0.30827 0.0
H651 H 0.09812 0.23612 0.3271 0.0
H652 H 0.1038 0.2821 0.34494 0.0
H653 H 0.10711 0.25675 0.12844 0.0
H654 H 0.05661 0.23735 0.11392 0.0
H655 H 0.07238 0.2081 0.14429 0.0
C656 C 0.07095 0.83477 0.22355 0.0
C657 C 0.04822 0.84814 0.24549 0.0
C658 C 0.11153 0.85776 0.22226 0.0
C659 C 0.12972 0.89486 0.24351 0.0
C660 C 0.10696 0.90839 0.26593 0.0
C661 C 0.06656 0.88496 0.26646 0.0
C662 C 0.13494 0.84253 0.19795 0.0
C663 C 0.12521 0.94801 0.28863 0.0
C664 C 0.23553 0.95562 0.27765 0.0
C665 C 0.24855 0.98367 0.24228 0.0
C666 C 0.1974 0.92408 0.27656 0.0
C667 C 0.17223 0.92116 0.23945 0.0
C668 C 0.18675 0.94755 0.20151 0.0
C669 C 0.22483 0.97836 0.20335 0.0
C670 C 0.18309 0.89607 0.31721 0.0
C671 C 0.16106 0.94591 0.16143 0.0
H672 H 0.05706 0.8061 0.20795 0.0
H673 H 0.04922 0.89573 0.28292 0.0
H674 H 0.15095 0.86151 0.16786 0.0
H675 H 0.15682 0.84306 0.22255 0.0
H676 H 0.11653 0.81249 0.18467 0.0
H677 H 0.10349 0.95356 0.30608 0.0
H678 H 0.1469 0.95097 0.31524 0.0
H679 H 0.14068 0.97073 0.26168 0.0
H680 H 0.25385 0.96003 0.30793 0.0
H681 H 0.23514 1.00017 0.17592 0.0
H682 H 0.16443 0.86591 0.30457 0.0
H683 H 0.16534 0.90315 0.34088 0.0
H684 H 0.20745 0.89761 0.33799 0.0
H685 H 0.17807 0.96479 0.13165 0.0
H686 H 0.14102 0.95571 0.17418 0.0
H687 H 0.14313 0.91584 0.14822 0.0
C688 C 0.83961 0.95154 0.2724 0.0
C689 C 0.82075 0.97069 0.25502 0.0
C690 C 0.82158 0.91099 0.27141 0.0
C691 C 0.78364 0.88899 0.25275 0.0
C692 C 0.76428 0.90807 0.23548 0.0
C693 C 0.78311 0.94873 0.23672 0.0
C694 C 0.84346 0.89174 0.28957 0.0
C695 C 0.72383 0.88551 0.21551 0.0
C696 C 0.76408 0.79156 0.20877 0.0
C697 C 0.74774 0.76846 0.24864 0.0
C698 C 0.77328 0.83033 0.20826 0.0
C699 C 0.76567 0.84622 0.24866 0.0
C700 C 0.74556 0.82187 0.28727 0.0
C701 C 0.73686 0.78301 0.28687 0.0
C702 C 0.79484 0.85509 0.16643 0.0
C703 C 0.73644 0.83764 0.33067 0.0
H704 H 0.86877 0.96837 0.28624 0.0
H705 H 0.76811 0.96334 0.22399 0.0
H706 H 0.82653 0.87066 0.31758 0.0
H707 H 0.84761 0.87536 0.26073 0.0
H708 H 0.87233 0.91297 0.30403 0.0
H709 H 0.7122 0.90462 0.2051 0.0
H710 H 0.72372 0.8688 0.1842 0.0
H711 H 0.70405 0.86427 0.24179 0.0
H712 H 0.77261 0.78012 0.17932 0.0
H713 H 0.72474 0.76519 0.31792 0.0
H714 H 0.82574 0.87421 0.176 0.0
H715 H 0.78302 0.87398 0.15608 0.0
H716 H 0.79348 0.8373 0.13555 0.0
H717 H 0.76339 0.85503 0.35126 0.0
H718 H 0.71502 0.81408 0.35355 0.0
H719 H 0.72502 0.85704 0.32098 0.0
C720 C 0.24343 0.18131 0.77182 0.0
C721 C 0.20317 0.16286 0.76495 0.0
C722 C 0.2626 0.15974 0.77449 0.0
C723 C 0.24104 0.1189 0.76976 0.0
C724 C 0.20032 0.10013 0.76407 0.0
C725 C 0.18194 0.12226 0.7622 0.0
C726 C 0.30594 0.18059 0.78136 0.0
C727 C 0.17609 0.05658 0.75904 0.0
C728 C 0.27997 0.05502 0.72644 0.0
C729 C 0.2772 0.0345 0.76744 0.0
C730 C 0.27143 0.08525 0.72723 0.0
C731 C 0.26045 0.09521 0.77022 0.0
C732 C 0.26186 0.0772 0.81248 0.0
C733 C 0.26979 0.04668 0.81046 0.0
C734 C 0.26991 0.10332 0.68126 0.0
C735 C 0.25099 0.08719 0.85917 0.0
H736 H 0.2601 0.21266 0.77375 0.0
H737 H 0.15073 0.10768 0.75806 0.0
H738 H 0.31345 0.16817 0.81177 0.0
H739 H 0.31994 0.17647 0.74987 0.0
H740 H 0.31821 0.21216 0.78735 0.0
H741 H 0.14479 0.04657 0.75444 0.0
H742 H 0.18608 0.04679 0.72824 0.0
H743 H 0.17957 0.04226 0.7906 0.0
H744 H 0.28512 0.04506 0.69315 0.0
H745 H 0.26726 0.03033 0.84206 0.0
H746 H 0.28184 0.13498 0.68524 0.0
H747 H 0.23926 0.09041 0.66988 0.0
H748 H 0.28618 0.09819 0.65311 0.0
H749 H 0.26362 0.11898 0.86291 0.0
H750 H 0.26078 0.07636 0.88916 0.0
H751 H 0.21902 0.07373 0.86124 0.0
C752 C 0.94764 0.77368 0.7905 0.0
C753 C 0.96972 0.81269 0.77692 0.0
C754 C 0.90696 0.75452 0.79037 0.0
C755 C 0.88796 0.77479 0.77614 0.0
C756 C 0.91007 0.81417 0.76252 0.0
C757 C 0.95062 0.83263 0.76323 0.0
C758 C 0.88427 0.71261 0.80529 0.0
C759 C 0.8909 0.83698 0.74751 0.0
C760 C 0.78394 0.7296 0.73439 0.0
C761 C 0.76712 0.73708 0.77319 0.0
C762 C 0.82289 0.73877 0.73601 0.0
C763 C 0.845 0.75577 0.77731 0.0
C764 C 0.8267 0.75955 0.81798 0.0
C765 C 0.78788 0.75001 0.81539 0.0
C766 C 0.84128 0.73387 0.69209 0.0
C767 C 0.84902 0.77768 0.86268 0.0
H768 H 0.96214 0.75786 0.80038 0.0
H769 H 0.96744 0.86288 0.75328 0.0
H770 H 0.8656 0.70955 0.83581 0.0
H771 H 0.86486 0.69476 0.77632 0.0
H772 H 0.90339 0.70086 0.81512 0.0
H773 H 0.91228 0.86712 0.73706 0.0
H774 H 0.87119 0.82241 0.71738 0.0
H775 H 0.87306 0.83816 0.77674 0.0
H776 H 0.76793 0.72009 0.70163 0.0
H777 H 0.7747 0.75599 0.84527 0.0
H778 H 0.86099 0.72261 0.70074 0.0
H779 H 0.85884 0.76249 0.67495 0.0
H780 H 0.81918 0.71394 0.6665 0.0
H781 H 0.86792 0.76559 0.87189 0.0
H782 H 0.82948 0.77324 0.89283 0.0
H783 H 0.86799 0.80932 0.85735 0.0
C784 C 0.98957 0.22003 0.80185 0.0
C785 C 0.98437 0.24603 0.774 0.0
C786 C 0.9601 0.18165 0.80704 0.0
C787 C 0.9248 0.16878 0.78275 0.0
C788 C 0.91843 0.19557 0.75697 0.0
C789 C 0.94857 0.2342 0.75275 0.0
C790 C 0.96825 0.15423 0.83495 0.0
C791 C 0.88105 0.18272 0.73071 0.0
C792 C 0.87864 0.06474 0.7415 0.0
C793 C 0.84889 0.04541 0.77448 0.0
C794 C 0.90266 0.10504 0.74302 0.0
C795 C 0.89731 0.12658 0.77894 0.0
C796 C 0.86762 0.10742 0.81258 0.0
C797 C 0.84348 0.06707 0.80968 0.0
C798 C 0.93438 0.12444 0.70675 0.0
C799 C 0.86183 0.12948 0.85199 0.0
H800 H 0.01766 0.22918 0.81747 0.0
H801 H 0.94507 0.25426 0.73039 0.0
H802 H 0.94315 0.13502 0.85739 0.0
H803 H 0.9733 0.13551 0.81041 0.0
H804 H 0.99426 0.16999 0.85769 0.0
H805 H 0.87845 0.20773 0.71817 0.0
H806 H 0.87981 0.16509 0.69978 0.0
H807 H 0.85581 0.16419 0.75335 0.0
H808 H 0.8837 0.04829 0.71485 0.0
H809 H 0.82028 0.05253 0.83497 0.0
H810 H 0.96311 0.13783 0.72424 0.0
H811 H 0.93211 0.14799 0.68893 0.0
H812 H 0.93326 0.10379 0.67963 0.0
H813 H 0.88852 0.1445 0.87366 0.0
H814 H 0.83725 0.11028 0.87523 0.0
H815 H 0.85641 0.15212 0.83728 0.0
loop_
_geom_bond_atom_site_label_1
_geom_bond_atom_site_label_2
_geom_bond_distance
_geom_bond_site_symmetry_2
_ccdc_geom_bond_type
Dy0 O3 2.307 . S
Dy0 O5 2.395 . S
Dy0 O6 2.379 . S
Dy0 O8 2.339 . S
Dy0 O10 2.298 . S
Dy0 O14 2.275 . S
Dy0 C22 2.738 . S
Dy1 O4 2.298 . S
Dy1 O7 2.275 . S
Dy1 O9 2.307 . S
Dy1 O11 2.395 . S
Dy1 O12 2.379 . S
Dy1 O15 2.339 . S
Dy1 C31 2.738 . S
C2 O14 1.254 . S
C2 O15 1.257 . S
O3 Dy0 2.307 . S
O3 C13 1.266 . S
O4 Dy1 2.298 . S
O4 C13 1.236 . S
O5 Dy0 2.395 . S
O5 C22 1.255 . S
O6 Dy0 2.379 . S
O6 C22 1.249 . S
O7 Dy1 2.275 . S
O7 C23 1.254 . S
O8 Dy0 2.339 . S
O8 C23 1.257 . S
O9 Dy1 2.307 . S
O9 C24 1.266 . S
O10 Dy0 2.298 . S
O10 C24 1.236 . S
O11 Dy1 2.395 . S
O11 C31 1.255 . S
O12 Dy1 2.379 . S
O12 C31 1.249 . S
C13 O3 1.266 . S
C13 O4 1.236 . S
O14 Dy0 2.275 . S
O14 C2 1.254 . S
O15 Dy1 2.339 . S
O15 C2 1.257 . S
C16 C19 1.344 . S
C16 C20 1.328 . S
C16 C22 1.516 . S
C17 C18 1.304 . S
C17 C21 1.323 . S
C18 C17 1.304 . S
C18 C19 1.371 . S
C18 H32 0.930 . S
C19 C16 1.344 . S
C19 C18 1.371 . S
C19 H33 0.931 . S
C20 C16 1.328 . S
C20 C21 1.433 . S
C20 H34 0.931 . S
C21 C17 1.323 . S
C21 C20 1.433 . S
C21 H35 0.933 . S
C22 Dy0 2.738 . S
C22 O5 1.255 . S
C22 O6 1.249 . S
C22 C16 1.516 . S
C23 O7 1.254 . S
C23 O8 1.257 . S
C24 O9 1.266 . S
C24 O10 1.236 . S
C25 C28 1.344 . S
C25 C29 1.328 . S
C25 C31 1.516 . S
C26 C27 1.304 . S
C26 C30 1.323 . S
C27 C26 1.304 . S
C27 C28 1.371 . S
C27 H36 0.930 . S
C28 C25 1.344 . S
C28 C27 1.371 . S
C28 H37 0.931 . S
C29 C25 1.328 . S
C29 C30 1.433 . S
C29 H38 0.931 . S
C30 C26 1.323 . S
C30 C29 1.433 . S
C30 H39 0.933 . S
C31 Dy1 2.738 . S
C31 O11 1.255 . S
C31 O12 1.249 . S
C31 C25 1.516 . S
H32 C18 0.930 . S
H33 C19 0.931 . S
H34 C20 0.931 . S
H35 C21 0.933 . S
H36 C27 0.930 . S
H37 C28 0.931 . S
H38 C29 0.931 . S
H39 C30 0.933 . S
Dy40 O43 2.307 . S
Dy40 O45 2.395 . S
Dy40 O46 2.379 . S
Dy40 O48 2.339 . S
Dy40 O50 2.298 . S
Dy40 O54 2.275 . S
Dy40 C62 2.738 . S
Dy41 O44 2.298 . S
Dy41 O47 2.275 . S
Dy41 O49 2.307 . S
Dy41 O51 2.395 . S
Dy41 O52 2.379 . S
Dy41 O55 2.339 . S
Dy41 C71 2.738 . S
C42 O54 1.254 . S
C42 O55 1.257 . S
O43 Dy40 2.307 . S
O43 C53 1.266 . S
O44 Dy41 2.298 . S
O44 C53 1.236 . S
O45 Dy40 2.395 . S
O45 C62 1.255 . S
O46 Dy40 2.379 . S
O46 C62 1.249 . S
O47 Dy41 2.275 . S
O47 C63 1.254 . S
O48 Dy40 2.339 . S
O48 C63 1.257 . S
O49 Dy41 2.307 . S
O49 C64 1.266 . S
O50 Dy40 2.298 . S
O50 C64 1.236 . S
O51 Dy41 2.395 . S
O51 C71 1.255 . S
O52 Dy41 2.379 . S
O52 C71 1.249 . S
C53 O43 1.266 . S
C53 O44 1.236 . S
O54 Dy40 2.275 . S
O54 C42 1.254 . S
O55 Dy41 2.339 . S
O55 C42 1.257 . S
C56 C59 1.344 . S
C56 C60 1.328 . S
C56 C62 1.516 . S
C57 C58 1.304 . S
C57 C61 1.323 . S
C58 C57 1.304 . S
C58 C59 1.371 . S
C58 H72 0.930 . S
C59 C56 1.344 . S
C59 C58 1.371 . S
C59 H73 0.931 . S
C60 C56 1.328 . S
C60 C61 1.433 . S
C60 H74 0.931 . S
C61 C57 1.323 . S
C61 C60 1.433 . S
C61 H75 0.933 . S
C62 Dy40 2.738 . S
C62 O45 1.255 . S
C62 O46 1.249 . S
C62 C56 1.516 . S
C63 O47 1.254 . S
C63 O48 1.257 . S
C64 O49 1.266 . S
C64 O50 1.236 . S
C65 C68 1.344 . S
C65 C69 1.328 . S
C65 C71 1.516 . S
C66 C67 1.304 . S
C66 C70 1.323 . S
C67 C66 1.304 . S
C67 C68 1.371 . S
C67 H76 0.930 . S
C68 C65 1.344 . S
C68 C67 1.371 . S
C68 H77 0.931 . S
C69 C65 1.328 . S
C69 C70 1.433 . S
C69 H78 0.931 . S
C70 C66 1.323 . S
C70 C69 1.433 . S
C70 H79 0.933 1_655 S
C71 Dy41 2.738 . S
C71 O51 1.255 . S
C71 O52 1.249 . S
C71 C65 1.516 . S
H72 C58 0.930 . S
H73 C59 0.931 . S
H74 C60 0.931 . S
H75 C61 0.933 . S
H76 C67 0.930 . S
H77 C68 0.931 . S
H78 C69 0.931 . S
H79 C70 0.933 1_455 S
Dy80 O83 2.307 . S
Dy80 O85 2.395 . S
Dy80 O86 2.379 . S
Dy80 O88 2.339 . S
Dy80 O90 2.298 . S
Dy80 O94 2.275 . S
Dy80 C102 2.738 . S
Dy81 O84 2.298 . S
Dy81 O87 2.275 . S
Dy81 O89 2.307 . S
Dy81 O91 2.395 . S
Dy81 O92 2.379 . S
Dy81 O95 2.339 . S
Dy81 C111 2.738 . S
C82 O94 1.254 . S
C82 O95 1.257 . S
O83 Dy80 2.307 . S
O83 C93 1.266 . S
O84 Dy81 2.298 . S
O84 C93 1.236 . S
O85 Dy80 2.395 . S
O85 C102 1.255 . S
O86 Dy80 2.379 . S
O86 C102 1.249 . S
O87 Dy81 2.275 . S
O87 C103 1.254 . S
O88 Dy80 2.339 . S
O88 C103 1.257 . S
O89 Dy81 2.307 . S
O89 C104 1.266 . S
O90 Dy80 2.298 . S
O90 C104 1.236 . S
O91 Dy81 2.395 . S
O91 C111 1.255 . S
O92 Dy81 2.379 . S
O92 C111 1.249 . S
C93 O83 1.266 . S
C93 O84 1.236 . S
O94 Dy80 2.275 . S
O94 C82 1.254 . S
O95 Dy81 2.339 . S
O95 C82 1.257 . S
C96 C99 1.344 . S
C96 C100 1.328 . S
C96 C102 1.516 . S
C97 C98 1.304 . S
C97 C101 1.323 . S
C98 C97 1.304 . S
C98 C99 1.371 . S
C98 H112 0.930 . S
C99 C96 1.344 . S
C99 C98 1.371 . S
C99 H113 0.931 . S
C100 C96 1.328 . S
C100 C101 1.433 . S
C100 H114 0.931 . S
C101 C97 1.323 . S
C101 C100 1.433 . S
C101 H115 0.933 . S
C102 Dy80 2.738 . S
C102 O85 1.255 . S
C102 O86 1.249 . S
C102 C96 1.516 . S
C103 O87 1.254 . S
C103 O88 1.257 . S
C104 O89 1.266 . S
C104 O90 1.236 . S
C105 C108 1.344 . S
C105 C109 1.328 . S
C105 C111 1.516 . S
C106 C107 1.304 . S
C106 C110 1.323 . S
C107 C106 1.304 . S
C107 C108 1.371 . S
C107 H116 0.930 . S
C108 C105 1.344 . S
C108 C107 1.371 . S
C108 H117 0.931 . S
C109 C105 1.328 . S
C109 C110 1.433 . S
C109 H118 0.931 . S
C110 C106 1.323 . S
C110 C109 1.433 . S
C110 H119 0.933 1_545 S
C111 Dy81 2.738 . S
C111 O91 1.255 . S
C111 O92 1.249 . S
C111 C105 1.516 . S
H112 C98 0.930 . S
H113 C99 0.931 . S
H114 C100 0.931 . S
H115 C101 0.933 . S
H116 C107 0.930 . S
H117 C108 0.931 . S
H118 C109 0.931 . S
H119 C110 0.933 1_565 S
Dy120 O123 2.307 . S
Dy120 O125 2.395 . S
Dy120 O126 2.379 . S
Dy120 O128 2.339 . S
Dy120 O130 2.298 . S
Dy120 O134 2.275 . S
Dy120 C142 2.738 . S
Dy121 O124 2.298 . S
Dy121 O127 2.275 . S
Dy121 O129 2.307 . S
Dy121 O131 2.395 . S
Dy121 O132 2.379 . S
Dy121 O135 2.339 . S
Dy121 C151 2.738 . S
C122 O134 1.254 . S
C122 O135 1.257 . S
O123 Dy120 2.307 . S
O123 C133 1.266 . S
O124 Dy121 2.298 . S
O124 C133 1.236 . S
O125 Dy120 2.395 . S
O125 C142 1.255 . S
O126 Dy120 2.379 . S
O126 C142 1.249 . S
O127 Dy121 2.275 . S
O127 C143 1.254 . S
O128 Dy120 2.339 . S
O128 C143 1.257 . S
O129 Dy121 2.307 . S
O129 C144 1.266 . S
O130 Dy120 2.298 . S
O130 C144 1.236 . S
O131 Dy121 2.395 . S
O131 C151 1.255 . S
O132 Dy121 2.379 . S
O132 C151 1.249 . S
C133 O123 1.266 . S
C133 O124 1.236 . S
O134 Dy120 2.275 . S
O134 C122 1.254 . S
O135 Dy121 2.339 . S
O135 C122 1.257 . S
C136 C139 1.344 . S
C136 C140 1.328 . S
C136 C142 1.516 . S
C137 C138 1.304 . S
C137 C141 1.323 . S
C138 C137 1.304 . S
C138 C139 1.371 . S
C138 H152 0.930 . S
C139 C136 1.344 . S
C139 C138 1.371 . S
C139 H153 0.931 . S
C140 C136 1.328 . S
C140 C141 1.433 . S
C140 H154 0.931 . S
C141 C137 1.323 . S
C141 C140 1.433 . S
C141 H155 0.933 . S
C142 Dy120 2.738 . S
C142 O125 1.255 . S
C142 O126 1.249 . S
C142 C136 1.516 . S
C143 O127 1.254 . S
C143 O128 1.257 . S
C144 O129 1.266 . S
C144 O130 1.236 . S
C145 C148 1.344 . S
C145 C149 1.328 . S
C145 C151 1.516 . S
C146 C147 1.304 . S
C146 C150 1.323 . S
C147 C146 1.304 . S
C147 C148 1.371 . S
C147 H156 0.930 . S
C148 C145 1.344 . S
C148 C147 1.371 . S
C148 H157 0.931 . S
C149 C145 1.328 . S
C149 C150 1.433 . S
C149 H158 0.931 . S
C150 C146 1.323 . S
C150 C149 1.433 . S
C150 H159 0.933 . S
C151 Dy121 2.738 . S
C151 O131 1.255 . S
C151 O132 1.249 . S
C151 C145 1.516 . S
H152 C138 0.930 . S
H153 C139 0.931 . S
H154 C140 0.931 . S
H155 C141 0.933 . S
H156 C147 0.930 . S
H157 C148 0.931 . S
H158 C149 0.931 . S
H159 C150 0.933 . S
Dy160 O163 2.307 . S
Dy160 O165 2.395 . S
Dy160 O166 2.379 . S
Dy160 O168 2.339 . S
Dy160 O170 2.298 . S
Dy160 O174 2.275 . S
Dy160 C182 2.738 . S
Dy161 O164 2.298 . S
Dy161 O167 2.275 . S
Dy161 O169 2.307 . S
Dy161 O171 2.395 . S
Dy161 O172 2.379 . S
Dy161 O175 2.339 . S
Dy161 C191 2.738 . S
C162 O174 1.254 . S
C162 O175 1.257 . S
O163 Dy160 2.307 . S
O163 C173 1.266 . S
O164 Dy161 2.298 . S
O164 C173 1.236 . S
O165 Dy160 2.395 . S
O165 C182 1.255 . S
O166 Dy160 2.379 . S
O166 C182 1.249 . S
O167 Dy161 2.275 . S
O167 C183 1.254 . S
O168 Dy160 2.339 . S
O168 C183 1.257 . S
O169 Dy161 2.307 . S
O169 C184 1.266 . S
O170 Dy160 2.298 . S
O170 C184 1.236 . S
O171 Dy161 2.395 . S
O171 C191 1.255 . S
O172 Dy161 2.379 . S
O172 C191 1.249 . S
C173 O163 1.266 . S
C173 O164 1.236 . S
O174 Dy160 2.275 . S
O174 C162 1.254 . S
O175 Dy161 2.339 . S
O175 C162 1.257 . S
C176 C179 1.344 . S
C176 C180 1.328 . S
C176 C182 1.516 . S
C177 C178 1.304 . S
C177 C181 1.323 . S
C178 C177 1.304 . S
C178 C179 1.371 . S
C178 H192 0.930 . S
C179 C176 1.344 . S
C179 C178 1.371 . S
C179 H193 0.931 . S
C180 C176 1.328 . S
C180 C181 1.433 . S
C180 H194 0.931 . S
C181 C177 1.323 . S
C181 C180 1.433 . S
C181 H195 0.933 . S
C182 Dy160 2.738 . S
C182 O165 1.255 . S
C182 O166 1.249 . S
C182 C176 1.516 . S
C183 O167 1.254 . S
C183 O168 1.257 . S
C184 O169 1.266 . S
C184 O170 1.236 . S
C185 C188 1.344 . S
C185 C189 1.328 . S
C185 C191 1.516 . S
C186 C187 1.304 . S
C186 C190 1.323 . S
C187 C186 1.304 . S
C187 C188 1.371 . S
C187 H196 0.930 . S
C188 C185 1.344 . S
C188 C187 1.371 . S
C188 H197 0.931 . S
C189 C185 1.328 . S
C189 C190 1.433 . S
C189 H198 0.931 . S
C190 C186 1.323 . S
C190 C189 1.433 . S
C190 H199 0.933 1_455 S
C191 Dy161 2.738 . S
C191 O171 1.255 . S
C191 O172 1.249 . S
C191 C185 1.516 . S
H192 C178 0.930 . S
H193 C179 0.931 . S
H194 C180 0.931 . S
H195 C181 0.933 . S
H196 C187 0.930 . S
H197 C188 0.931 . S
H198 C189 0.931 . S
H199 C190 0.933 1_655 S
Dy200 O203 2.307 . S
Dy200 O205 2.395 . S
Dy200 O206 2.379 . S
Dy200 O208 2.339 . S
Dy200 O210 2.298 . S
Dy200 O214 2.275 . S
Dy200 C222 2.738 . S
Dy201 O204 2.298 . S
Dy201 O207 2.275 . S
Dy201 O209 2.307 . S
Dy201 O211 2.395 . S
Dy201 O212 2.379 . S
Dy201 O215 2.339 . S
Dy201 C231 2.738 . S
C202 O214 1.254 . S
C202 O215 1.257 . S
O203 Dy200 2.307 . S
O203 C213 1.266 . S
O204 Dy201 2.298 . S
O204 C213 1.236 . S
O205 Dy200 2.395 . S
O205 C222 1.255 . S
O206 Dy200 2.379 . S
O206 C222 1.249 . S
O207 Dy201 2.275 . S
O207 C223 1.254 . S
O208 Dy200 2.339 . S
O208 C223 1.257 . S
O209 Dy201 2.307 . S
O209 C224 1.266 . S
O210 Dy200 2.298 . S
O210 C224 1.236 . S
O211 Dy201 2.395 . S
O211 C231 1.255 . S
O212 Dy201 2.379 . S
O212 C231 1.249 . S
C213 O203 1.266 . S
C213 O204 1.236 . S
O214 Dy200 2.275 . S
O214 C202 1.254 . S
O215 Dy201 2.339 . S
O215 C202 1.257 . S
C216 C219 1.344 . S
C216 C220 1.328 . S
C216 C222 1.516 . S
C217 C218 1.304 . S
C217 C221 1.323 . S
C218 C217 1.304 . S
C218 C219 1.371 . S
C218 H232 0.930 . S
C219 C216 1.344 . S
C219 C218 1.371 . S
C219 H233 0.931 . S
C220 C216 1.328 . S
C220 C221 1.433 . S
C220 H234 0.931 . S
C221 C217 1.323 . S
C221 C220 1.433 . S
C221 H235 0.933 . S
C222 Dy200 2.738 . S
C222 O205 1.255 . S
C222 O206 1.249 . S
C222 C216 1.516 . S
C223 O207 1.254 . S
C223 O208 1.257 . S
C224 O209 1.266 . S
C224 O210 1.236 . S
C225 C228 1.344 . S
C225 C229 1.328 . S
C225 C231 1.516 . S
C226 C227 1.304 . S
C226 C230 1.323 . S
C227 C226 1.304 . S
C227 C228 1.371 . S
C227 H236 0.930 . S
C228 C225 1.344 . S
C228 C227 1.371 . S
C228 H237 0.931 . S
C229 C225 1.328 . S
C229 C230 1.433 . S
C229 H238 0.931 . S
C230 C226 1.323 . S
C230 C229 1.433 . S
C230 H239 0.933 1_565 S
C231 Dy201 2.738 . S
C231 O211 1.255 . S
C231 O212 1.249 . S
C231 C225 1.516 . S
H232 C218 0.930 . S
H233 C219 0.931 . S
H234 C220 0.931 . S
H235 C221 0.933 . S
H236 C227 0.930 . S
H237 C228 0.931 . S
H238 C229 0.931 . S
H239 C230 0.933 1_545 S
C240 C241 1.391 . S
C240 C242 1.394 . S
C240 H256 0.931 . S
C241 C240 1.391 . S
C241 C245 1.376 . S
C242 C240 1.394 . S
C242 C243 1.369 . S
C242 C246 1.531 1_556 S
C243 C242 1.369 . S
C243 C244 1.410 . S
C243 C251 1.503 1_566 S
C244 C243 1.410 . S
C244 C245 1.392 . S
C244 C247 1.511 1_565 S
C245 C241 1.376 . S
C245 C244 1.392 . S
C245 H257 0.929 . S
C246 C242 1.531 1_554 S
C246 H258 0.960 . S
C246 H259 0.962 . S
C246 H260 0.960 . S
C247 C244 1.511 1_545 S
C247 H261 0.961 . S
C247 H262 0.961 . S
C247 H263 0.961 1_545 S
C248 C249 1.370 . S
C248 C250 1.363 . S
C248 H264 0.931 . S
C249 C248 1.370 . S
C249 C253 1.408 . S
C250 C248 1.363 . S
C250 C251 1.370 . S
C250 C254 1.524 1_554 S
C251 C243 1.503 1_544 S
C251 C250 1.370 . S
C251 C252 1.403 . S
C252 C251 1.403 . S
C252 C253 1.404 . S
C252 C255 1.539 1_545 S
C253 C249 1.408 . S
C253 C252 1.404 . S
C253 H265 0.930 . S
C254 C250 1.524 1_556 S
C254 H266 0.956 . S
C254 H267 0.961 . S
C254 H268 0.961 . S
C255 C252 1.539 1_565 S
C255 H269 0.958 . S
C255 H270 0.961 . S
C255 H271 0.960 . S
H256 C240 0.931 . S
H257 C245 0.929 . S
H258 C246 0.960 . S
H259 C246 0.962 . S
H260 C246 0.960 . S
H261 C247 0.961 . S
H262 C247 0.961 . S
H263 C247 0.961 1_565 S
H264 C248 0.931 . S
H265 C253 0.930 . S
H266 C254 0.956 . S
H267 C254 0.961 . S
H268 C254 0.961 . S
H269 C255 0.958 . S
H270 C255 0.961 . S
H271 C255 0.960 . S
C272 C273 1.391 . S
C272 C274 1.394 . S
C272 H288 0.931 . S
C273 C272 1.391 . S
C273 C277 1.376 . S
C274 C272 1.394 . S
C274 C275 1.369 . S
C274 C278 1.531 . S
C275 C274 1.369 . S
C275 C276 1.410 . S
C275 C283 1.503 . S
C276 C275 1.410 . S
C276 C277 1.392 . S
C276 C279 1.511 . S
C277 C273 1.376 . S
C277 C276 1.392 . S
C277 H289 0.929 . S
C278 C274 1.531 . S
C278 H290 0.960 . S
C278 H291 0.962 . S
C278 H292 0.960 . S
C279 C276 1.511 . S
C279 H293 0.961 . S
C279 H294 0.961 . S
C279 H295 0.961 . S
C280 C281 1.370 . S
C280 C282 1.363 . S
C280 H296 0.931 . S
C281 C280 1.370 . S
C281 C285 1.408 . S
C282 C280 1.363 . S
C282 C283 1.370 . S
C282 C286 1.524 . S
C283 C275 1.503 . S
C283 C282 1.370 . S
C283 C284 1.403 . S
C284 C283 1.403 . S
C284 C285 1.404 . S
C284 C287 1.539 . S
C285 C281 1.408 . S
C285 C284 1.404 . S
C285 H297 0.930 . S
C286 C282 1.524 . S
C286 H298 0.956 . S
C286 H299 0.961 . S
C286 H300 0.961 . S
C287 C284 1.539 . S
C287 H301 0.958 . S
C287 H302 0.961 . S
C287 H303 0.960 . S
H288 C272 0.931 . S
H289 C277 0.929 . S
H290 C278 0.960 . S
H291 C278 0.962 . S
H292 C278 0.960 . S
H293 C279 0.961 . S
H294 C279 0.961 . S
H295 C279 0.961 . S
H296 C280 0.931 . S
H297 C285 0.930 . S
H298 C286 0.956 . S
H299 C286 0.961 . S
H300 C286 0.961 . S
H301 C287 0.958 . S
H302 C287 0.961 . S
H303 C287 0.960 . S
C304 C305 1.391 . S
C304 C306 1.394 . S
C304 H320 0.931 . S
C305 C304 1.391 . S
C305 C309 1.376 . S
C306 C304 1.394 . S
C306 C307 1.369 . S
C306 C310 1.531 . S
C307 C306 1.369 . S
C307 C308 1.410 . S
C307 C315 1.503 1_654 S
C308 C307 1.410 . S
C308 C309 1.392 . S
C308 C311 1.511 . S
C309 C305 1.376 . S
C309 C308 1.392 . S
C309 H321 0.929 . S
C310 C306 1.531 . S
C310 H322 0.960 1_554 S
C310 H323 0.962 1_655 S
C310 H324 0.960 . S
C311 C308 1.511 . S
C311 H325 0.961 . S
C311 H326 0.961 1_654 S
C311 H327 0.961 1_554 S
C312 C313 1.370 . S
C312 C314 1.363 . S
C312 H328 0.931 . S
C313 C312 1.370 . S
C313 C317 1.408 . S
C314 C312 1.363 . S
C314 C315 1.370 . S
C314 C318 1.524 1_556 S
C315 C307 1.503 1_456 S
C315 C314 1.370 . S
C315 C316 1.403 1_455 S
C316 C315 1.403 1_655 S
C316 C317 1.404 1_655 S
C316 C319 1.539 . S
C317 C313 1.408 . S
C317 C316 1.404 1_455 S
C317 H329 0.930 . S
C318 C314 1.524 1_554 S
C318 H330 0.956 . S
C318 H331 0.961 . S
C318 H332 0.961 . S
C319 C316 1.539 . S
C319 H333 0.958 . S
C319 H334 0.961 . S
C319 H335 0.960 . S
H320 C304 0.931 . S
H321 C309 0.929 . S
H322 C310 0.960 1_556 S
H323 C310 0.962 1_455 S
H324 C310 0.960 . S
H325 C311 0.961 . S
H326 C311 0.961 1_456 S
H327 C311 0.961 1_556 S
H328 C312 0.931 . S
H329 C317 0.930 . S
H330 C318 0.956 . S
H331 C318 0.961 . S
H332 C318 0.961 . S
H333 C319 0.958 . S
H334 C319 0.961 . S
H335 C319 0.960 . S
C336 C337 1.391 . S
C336 C338 1.394 . S
C336 H352 0.931 . S
C337 C336 1.391 . S
C337 C341 1.376 . S
C338 C336 1.394 . S
C338 C339 1.369 . S
C338 C342 1.531 1_545 S
C339 C338 1.369 . S
C339 C340 1.410 . S
C339 C347 1.503 1_545 S
C340 C339 1.410 . S
C340 C341 1.392 . S
C340 C343 1.511 . S
C341 C337 1.376 . S
C341 C340 1.392 . S
C341 H353 0.929 . S
C342 C338 1.531 1_565 S
C342 H354 0.960 . S
C342 H355 0.962 . S
C342 H356 0.960 . S
C343 C340 1.511 . S
C343 H357 0.961 . S
C343 H358 0.961 . S
C343 H359 0.961 . S
C344 C345 1.370 . S
C344 C346 1.363 . S
C344 H360 0.931 . S
C345 C344 1.370 . S
C345 C349 1.408 . S
C346 C344 1.363 . S
C346 C347 1.370 . S
C346 C350 1.524 1_565 S
C347 C339 1.503 1_565 S
C347 C346 1.370 . S
C347 C348 1.403 . S
C348 C347 1.403 . S
C348 C349 1.404 . S
C348 C351 1.539 . S
C349 C345 1.408 . S
C349 C348 1.404 . S
C349 H361 0.930 . S
C350 C346 1.524 1_545 S
C350 H362 0.956 . S
C350 H363 0.961 . S
C350 H364 0.961 . S
C351 C348 1.539 . S
C351 H365 0.958 . S
C351 H366 0.961 . S
C351 H367 0.960 . S
H352 C336 0.931 . S
H353 C341 0.929 . S
H354 C342 0.960 . S
H355 C342 0.962 . S
H356 C342 0.960 . S
H357 C343 0.961 . S
H358 C343 0.961 . S
H359 C343 0.961 . S
H360 C344 0.931 . S
H361 C349 0.930 . S
H362 C350 0.956 . S
H363 C350 0.961 . S
H364 C350 0.961 . S
H365 C351 0.958 . S
H366 C351 0.961 . S
H367 C351 0.960 . S
C368 C369 1.391 . S
C368 C370 1.394 . S
C368 H384 0.931 . S
C369 C368 1.391 . S
C369 C373 1.376 . S
C370 C368 1.394 . S
C370 C371 1.369 . S
C370 C374 1.531 1_556 S
C371 C370 1.369 . S
C371 C372 1.410 . S
C371 C379 1.503 1_556 S
C372 C371 1.410 . S
C372 C373 1.392 . S
C372 C375 1.511 . S
C373 C369 1.376 . S
C373 C372 1.392 . S
C373 H385 0.929 . S
C374 C370 1.531 1_554 S
C374 H386 0.960 . S
C374 H387 0.962 . S
C374 H388 0.960 . S
C375 C372 1.511 . S
C375 H389 0.961 . S
C375 H390 0.961 . S
C375 H391 0.961 . S
C376 C377 1.370 . S
C376 C378 1.363 . S
C376 H392 0.931 . S
C377 C376 1.370 . S
C377 C381 1.408 . S
C378 C376 1.363 . S
C378 C379 1.370 . S
C378 C382 1.524 1_554 S
C379 C371 1.503 1_554 S
C379 C378 1.370 . S
C379 C380 1.403 . S
C380 C379 1.403 . S
C380 C381 1.404 . S
C380 C383 1.539 . S
C381 C377 1.408 . S
C381 C380 1.404 . S
C381 H393 0.930 . S
C382 C378 1.524 1_556 S
C382 H394 0.956 . S
C382 H395 0.961 . S
C382 H396 0.961 . S
C383 C380 1.539 . S
C383 H397 0.958 . S
C383 H398 0.961 . S
C383 H399 0.960 . S
H384 C368 0.931 . S
H385 C373 0.929 . S
H386 C374 0.960 . S
H387 C374 0.962 . S
H388 C374 0.960 . S
H389 C375 0.961 . S
H390 C375 0.961 . S
H391 C375 0.961 . S
H392 C376 0.931 . S
H393 C381 0.930 . S
H394 C382 0.956 . S
H395 C382 0.961 . S
H396 C382 0.961 . S
H397 C383 0.958 . S
H398 C383 0.961 . S
H399 C383 0.960 . S
C400 C401 1.391 . S
C400 C402 1.394 . S
C400 H416 0.931 . S
C401 C400 1.391 . S
C401 C405 1.376 . S
C402 C400 1.394 . S
C402 C403 1.369 . S
C402 C406 1.531 . S
C403 C402 1.369 . S
C403 C404 1.410 . S
C403 C411 1.503 1_655 S
C404 C403 1.410 . S
C404 C405 1.392 . S
C404 C407 1.511 1_655 S
C405 C401 1.376 . S
C405 C404 1.392 . S
C405 H417 0.929 . S
C406 C402 1.531 . S
C406 H418 0.960 . S
C406 H419 0.962 . S
C406 H420 0.960 . S
C407 C404 1.511 1_455 S
C407 H421 0.961 . S
C407 H422 0.961 . S
C407 H423 0.961 . S
C408 C409 1.370 . S
C408 C410 1.363 . S
C408 H424 0.931 . S
C409 C408 1.370 . S
C409 C413 1.408 . S
C410 C408 1.363 . S
C410 C411 1.370 . S
C410 C414 1.524 . S
C411 C403 1.503 1_455 S
C411 C410 1.370 . S
C411 C412 1.403 . S
C412 C411 1.403 . S
C412 C413 1.404 . S
C412 C415 1.539 . S
C413 C409 1.408 . S
C413 C412 1.404 . S
C413 H425 0.930 . S
C414 C410 1.524 . S
C414 H426 0.956 1_455 S
C414 H427 0.961 . S
C414 H428 0.961 . S
C415 C412 1.539 . S
C415 H429 0.958 1_455 S
C415 H430 0.961 . S
C415 H431 0.960 1_455 S
H416 C400 0.931 . S
H417 C405 0.929 . S
H418 C406 0.960 . S
H419 C406 0.962 . S
H420 C406 0.960 . S
H421 C407 0.961 . S
H422 C407 0.961 . S
H423 C407 0.961 . S
H424 C408 0.931 . S
H425 C413 0.930 . S
H426 C414 0.956 1_655 S
H427 C414 0.961 . S
H428 C414 0.961 . S
H429 C415 0.958 1_655 S
H430 C415 0.961 . S
H431 C415 0.960 1_655 S
C432 C433 1.391 . S
C432 C434 1.394 . S
C432 H448 0.931 . S
C433 C432 1.391 . S
C433 C437 1.376 . S
C434 C432 1.394 . S
C434 C435 1.369 . S
C434 C438 1.531 . S
C435 C434 1.369 . S
C435 C436 1.410 . S
C435 C443 1.503 . S
C436 C435 1.410 . S
C436 C437 1.392 . S
C436 C439 1.511 . S
C437 C433 1.376 . S
C437 C436 1.392 . S
C437 H449 0.929 . S
C438 C434 1.531 . S
C438 H450 0.960 . S
C438 H451 0.962 . S
C438 H452 0.960 . S
C439 C436 1.511 . S
C439 H453 0.961 . S
C439 H454 0.961 . S
C439 H455 0.961 . S
C440 C441 1.370 . S
C440 C442 1.363 . S
C440 H456 0.931 . S
C441 C440 1.370 . S
C441 C445 1.408 . S
C442 C440 1.363 . S
C442 C443 1.370 . S
C442 C446 1.524 . S
C443 C435 1.503 . S
C443 C442 1.370 . S
C443 C444 1.403 . S
C444 C443 1.403 . S
C444 C445 1.404 . S
C444 C447 1.539 . S
C445 C441 1.408 . S
C445 C444 1.404 . S
C445 H457 0.930 . S
C446 C442 1.524 . S
C446 H458 0.956 . S
C446 H459 0.961 . S
C446 H460 0.961 . S
C447 C444 1.539 . S
C447 H461 0.958 . S
C447 H462 0.961 . S
C447 H463 0.960 . S
H448 C432 0.931 . S
H449 C437 0.929 . S
H450 C438 0.960 . S
H451 C438 0.962 . S
H452 C438 0.960 . S
H453 C439 0.961 . S
H454 C439 0.961 . S
H455 C439 0.961 . S
H456 C440 0.931 . S
H457 C445 0.930 . S
H458 C446 0.956 . S
H459 C446 0.961 . S
H460 C446 0.961 . S
H461 C447 0.958 . S
H462 C447 0.961 . S
H463 C447 0.960 . S
C464 C465 1.391 . S
C464 C466 1.394 . S
C464 H480 0.931 . S
C465 C464 1.391 . S
C465 C469 1.376 . S
C466 C464 1.394 . S
C466 C467 1.369 . S
C466 C470 1.531 . S
C467 C466 1.369 . S
C467 C468 1.410 . S
C467 C475 1.503 . S
C468 C467 1.410 . S
C468 C469 1.392 . S
C468 C471 1.511 . S
C469 C465 1.376 . S
C469 C468 1.392 . S
C469 H481 0.929 . S
C470 C466 1.531 . S
C470 H482 0.960 . S
C470 H483 0.962 . S
C470 H484 0.960 . S
C471 C468 1.511 . S
C471 H485 0.961 . S
C471 H486 0.961 . S
C471 H487 0.961 . S
C472 C473 1.370 . S
C472 C474 1.363 . S
C472 H488 0.931 . S
C473 C472 1.370 . S
C473 C477 1.408 . S
C474 C472 1.363 . S
C474 C475 1.370 . S
C474 C478 1.524 . S
C475 C467 1.503 . S
C475 C474 1.370 . S
C475 C476 1.403 . S
C476 C475 1.403 . S
C476 C477 1.404 . S
C476 C479 1.539 . S
C477 C473 1.408 . S
C477 C476 1.404 . S
C477 H489 0.930 . S
C478 C474 1.524 . S
C478 H490 0.956 . S
C478 H491 0.961 . S
C478 H492 0.961 . S
C479 C476 1.539 . S
C479 H493 0.958 . S
C479 H494 0.961 . S
C479 H495 0.960 . S
H480 C464 0.931 . S
H481 C469 0.929 . S
H482 C470 0.960 . S
H483 C470 0.962 . S
H484 C470 0.960 . S
H485 C471 0.961 . S
H486 C471 0.961 . S
H487 C471 0.961 . S
H488 C472 0.931 . S
H489 C477 0.930 . S
H490 C478 0.956 . S
H491 C478 0.961 . S
H492 C478 0.961 . S
H493 C479 0.958 . S
H494 C479 0.961 . S
H495 C479 0.960 . S
C496 C497 1.391 . S
C496 C498 1.394 . S
C496 H512 0.931 . S
C497 C496 1.391 . S
C497 C501 1.376 . S
C498 C496 1.394 . S
C498 C499 1.369 . S
C498 C502 1.531 . S
C499 C498 1.369 . S
C499 C500 1.410 . S
C499 C507 1.503 . S
C500 C499 1.410 . S
C500 C501 1.392 . S
C500 C503 1.511 . S
C501 C497 1.376 . S
C501 C500 1.392 . S
C501 H513 0.929 . S
C502 C498 1.531 . S
C502 H514 0.960 . S
C502 H515 0.962 . S
C502 H516 0.960 . S
C503 C500 1.511 . S
C503 H517 0.961 . S
C503 H518 0.961 . S
C503 H519 0.961 . S
C504 C505 1.370 . S
C504 C506 1.363 . S
C504 H520 0.931 . S
C505 C504 1.370 . S
C505 C509 1.408 . S
C506 C504 1.363 . S
C506 C507 1.370 . S
C506 C510 1.524 . S
C507 C499 1.503 . S
C507 C506 1.370 . S
C507 C508 1.403 . S
C508 C507 1.403 . S
C508 C509 1.404 . S
C508 C511 1.539 . S
C509 C505 1.408 . S
C509 C508 1.404 . S
C509 H521 0.930 . S
C510 C506 1.524 . S
C510 H522 0.956 . S
C510 H523 0.961 . S
C510 H524 0.961 . S
C511 C508 1.539 . S
C511 H525 0.958 . S
C511 H526 0.961 . S
C511 H527 0.960 . S
H512 C496 0.931 . S
H513 C501 0.929 . S
H514 C502 0.960 . S
H515 C502 0.962 . S
H516 C502 0.960 . S
H517 C503 0.961 . S
H518 C503 0.961 . S
H519 C503 0.961 . S
H520 C504 0.931 . S
H521 C509 0.930 . S
H522 C510 0.956 . S
H523 C510 0.961 . S
H524 C510 0.961 . S
H525 C511 0.958 . S
H526 C511 0.961 . S
H527 C511 0.960 . S
C528 C529 1.391 . S
C528 C530 1.394 . S
C528 H544 0.931 . S
C529 C528 1.391 . S
C529 C533 1.376 . S
C530 C528 1.394 . S
C530 C531 1.369 . S
C530 C534 1.531 . S
C531 C530 1.369 . S
C531 C532 1.410 . S
C531 C539 1.503 . S
C532 C531 1.410 . S
C532 C533 1.392 . S
C532 C535 1.511 . S
C533 C529 1.376 . S
C533 C532 1.392 . S
C533 H545 0.929 . S
C534 C530 1.531 . S
C534 H546 0.960 . S
C534 H547 0.962 . S
C534 H548 0.960 . S
C535 C532 1.511 . S
C535 H549 0.961 . S
C535 H550 0.961 . S
C535 H551 0.961 . S
C536 C537 1.370 . S
C536 C538 1.363 . S
C536 H552 0.931 . S
C537 C536 1.370 . S
C537 C541 1.408 . S
C538 C536 1.363 . S
C538 C539 1.370 . S
C538 C542 1.524 . S
C539 C531 1.503 . S
C539 C538 1.370 . S
C539 C540 1.403 . S
C540 C539 1.403 . S
C540 C541 1.404 . S
C540 C543 1.539 . S
C541 C537 1.408 . S
C541 C540 1.404 . S
C541 H553 0.930 . S
C542 C538 1.524 . S
C542 H554 0.956 . S
C542 H555 0.961 . S
C542 H556 0.961 . S
C543 C540 1.539 . S
C543 H557 0.958 . S
C543 H558 0.961 . S
C543 H559 0.960 . S
H544 C528 0.931 . S
H545 C533 0.929 . S
H546 C534 0.960 . S
H547 C534 0.962 . S
H548 C534 0.960 . S
H549 C535 0.961 . S
H550 C535 0.961 . S
H551 C535 0.961 . S
H552 C536 0.931 . S
H553 C541 0.930 . S
H554 C542 0.956 . S
H555 C542 0.961 . S
H556 C542 0.961 . S
H557 C543 0.958 . S
H558 C543 0.961 . S
H559 C543 0.960 . S
C560 C561 1.391 . S
C560 C562 1.394 . S
C560 H576 0.931 . S
C561 C560 1.391 . S
C561 C565 1.376 . S
C562 C560 1.394 . S
C562 C563 1.369 . S
C562 C566 1.531 . S
C563 C562 1.369 . S
C563 C564 1.410 . S
C563 C571 1.503 . S
C564 C563 1.410 . S
C564 C565 1.392 . S
C564 C567 1.511 . S
C565 C561 1.376 . S
C565 C564 1.392 . S
C565 H577 0.929 . S
C566 C562 1.531 . S
C566 H578 0.960 . S
C566 H579 0.962 . S
C566 H580 0.960 . S
C567 C564 1.511 . S
C567 H581 0.961 . S
C567 H582 0.961 . S
C567 H583 0.961 . S
C568 C569 1.370 . S
C568 C570 1.363 . S
C568 H584 0.931 . S
C569 C568 1.370 . S
C569 C573 1.408 . S
C570 C568 1.363 . S
C570 C571 1.370 . S
C570 C574 1.524 . S
C571 C563 1.503 . S
C571 C570 1.370 . S
C571 C572 1.403 . S
C572 C571 1.403 . S
C572 C573 1.404 . S
C572 C575 1.539 . S
C573 C569 1.408 . S
C573 C572 1.404 . S
C573 H585 0.930 . S
C574 C570 1.524 . S
C574 H586 0.956 . S
C574 H587 0.961 . S
C574 H588 0.961 . S
C575 C572 1.539 . S
C575 H589 0.958 . S
C575 H590 0.961 . S
C575 H591 0.960 . S
H576 C560 0.931 . S
H577 C565 0.929 . S
H578 C566 0.960 . S
H579 C566 0.962 . S
H580 C566 0.960 . S
H581 C567 0.961 . S
H582 C567 0.961 . S
H583 C567 0.961 . S
H584 C568 0.931 . S
H585 C573 0.930 . S
H586 C574 0.956 . S
H587 C574 0.961 . S
H588 C574 0.961 . S
H589 C575 0.958 . S
H590 C575 0.961 . S
H591 C575 0.960 . S
C592 C593 1.391 . S
C592 C594 1.394 . S
C592 H608 0.931 . S
C593 C592 1.391 . S
C593 C597 1.376 . S
C594 C592 1.394 . S
C594 C595 1.369 . S
C594 C598 1.531 . S
C595 C594 1.369 . S
C595 C596 1.410 . S
C595 C603 1.503 . S
C596 C595 1.410 . S
C596 C597 1.392 . S
C596 C599 1.511 . S
C597 C593 1.376 . S
C597 C596 1.392 . S
C597 H609 0.929 . S
C598 C594 1.531 . S
C598 H610 0.960 . S
C598 H611 0.962 . S
C598 H612 0.960 . S
C599 C596 1.511 . S
C599 H613 0.961 . S
C599 H614 0.961 . S
C599 H615 0.961 . S
C600 C601 1.370 . S
C600 C602 1.363 . S
C600 H616 0.931 . S
C601 C600 1.370 . S
C601 C605 1.408 . S
C602 C600 1.363 . S
C602 C603 1.370 . S
C602 C606 1.524 . S
C603 C595 1.503 . S
C603 C602 1.370 . S
C603 C604 1.403 . S
C604 C603 1.403 . S
C604 C605 1.404 . S
C604 C607 1.539 . S
C605 C601 1.408 . S
C605 C604 1.404 . S
C605 H617 0.930 . S
C606 C602 1.524 . S
C606 H618 0.956 . S
C606 H619 0.961 . S
C606 H620 0.961 . S
C607 C604 1.539 . S
C607 H621 0.958 . S
C607 H622 0.961 . S
C607 H623 0.960 . S
H608 C592 0.931 . S
H609 C597 0.929 . S
H610 C598 0.960 . S
H611 C598 0.962 . S
H612 C598 0.960 . S
H613 C599 0.961 . S
H614 C599 0.961 . S
H615 C599 0.961 . S
H616 C600 0.931 . S
H617 C605 0.930 . S
H618 C606 0.956 . S
H619 C606 0.961 . S
H620 C606 0.961 . S
H621 C607 0.958 . S
H622 C607 0.961 . S
H623 C607 0.960 . S
C624 C625 1.391 . S
C624 C626 1.394 . S
C624 H640 0.931 . S
C625 C624 1.391 . S
C625 C629 1.376 . S
C626 C624 1.394 . S
C626 C627 1.369 . S
C626 C630 1.531 . S
C627 C626 1.369 . S
C627 C628 1.410 . S
C627 C635 1.503 . S
C628 C627 1.410 . S
C628 C629 1.392 . S
C628 C631 1.511 1_455 S
C629 C625 1.376 . S
C629 C628 1.392 . S
C629 H641 0.929 . S
C630 C626 1.531 . S
C630 H642 0.960 . S
C630 H643 0.962 . S
C630 H644 0.960 . S
C631 C628 1.511 1_655 S
C631 H645 0.961 . S
C631 H646 0.961 . S
C631 H647 0.961 . S
C632 C633 1.370 1_455 S
C632 C634 1.363 . S
C632 H648 0.931 . S
C633 C632 1.370 1_655 S
C633 C637 1.408 . S
C634 C632 1.363 . S
C634 C635 1.370 . S
C634 C638 1.524 . S
C635 C627 1.503 . S
C635 C634 1.370 . S
C635 C636 1.403 . S
C636 C635 1.403 . S
C636 C637 1.404 1_455 S
C636 C639 1.539 . S
C637 C633 1.408 . S
C637 C636 1.404 1_655 S
C637 H649 0.930 . S
C638 C634 1.524 . S
C638 H650 0.956 . S
C638 H651 0.961 . S
C638 H652 0.961 . S
C639 C636 1.539 . S
C639 H653 0.958 . S
C639 H654 0.961 1_455 S
C639 H655 0.960 . S
H640 C624 0.931 . S
H641 C629 0.929 . S
H642 C630 0.960 . S
H643 C630 0.962 . S
H644 C630 0.960 . S
H645 C631 0.961 . S
H646 C631 0.961 . S
H647 C631 0.961 . S
H648 C632 0.931 . S
H649 C637 0.930 . S
H650 C638 0.956 . S
H651 C638 0.961 . S
H652 C638 0.961 . S
H653 C639 0.958 . S
H654 C639 0.961 1_655 S
H655 C639 0.960 . S
C656 C657 1.391 . S
C656 C658 1.394 . S
C656 H672 0.931 . S
C657 C656 1.391 . S
C657 C661 1.376 . S
C658 C656 1.394 . S
C658 C659 1.369 . S
C658 C662 1.531 . S
C659 C658 1.369 . S
C659 C660 1.410 . S
C659 C667 1.503 . S
C660 C659 1.410 . S
C660 C661 1.392 . S
C660 C663 1.511 . S
C661 C657 1.376 . S
C661 C660 1.392 . S
C661 H673 0.929 . S
C662 C658 1.531 . S
C662 H674 0.960 . S
C662 H675 0.962 . S
C662 H676 0.960 . S
C663 C660 1.511 . S
C663 H677 0.961 . S
C663 H678 0.961 . S
C663 H679 0.961 . S
C664 C665 1.370 1_565 S
C664 C666 1.363 . S
C664 H680 0.931 . S
C665 C664 1.370 1_545 S
C665 C669 1.408 . S
C666 C664 1.363 . S
C666 C667 1.370 . S
C666 C670 1.524 . S
C667 C659 1.503 . S
C667 C666 1.370 . S
C667 C668 1.403 1_565 S
C668 C667 1.403 1_545 S
C668 C669 1.404 . S
C668 C671 1.539 . S
C669 C665 1.408 . S
C669 C668 1.404 . S
C669 H681 0.930 . S
C670 C666 1.524 . S
C670 H682 0.956 . S
C670 H683 0.961 . S
C670 H684 0.961 . S
C671 C668 1.539 . S
C671 H685 0.958 . S
C671 H686 0.961 . S
C671 H687 0.960 . S
H672 C656 0.931 . S
H673 C661 0.929 . S
H674 C662 0.960 . S
H675 C662 0.962 . S
H676 C662 0.960 . S
H677 C663 0.961 . S
H678 C663 0.961 . S
H679 C663 0.961 . S
H680 C664 0.931 . S
H681 C669 0.930 . S
H682 C670 0.956 . S
H683 C670 0.961 . S
H684 C670 0.961 . S
H685 C671 0.958 . S
H686 C671 0.961 . S
H687 C671 0.960 . S
C688 C689 1.391 . S
C688 C690 1.394 . S
C688 H704 0.931 . S
C689 C688 1.391 . S
C689 C693 1.376 . S
C690 C688 1.394 . S
C690 C691 1.369 . S
C690 C694 1.531 . S
C691 C690 1.369 . S
C691 C692 1.410 . S
C691 C699 1.503 . S
C692 C691 1.410 . S
C692 C693 1.392 . S
C692 C695 1.511 . S
C693 C689 1.376 . S
C693 C692 1.392 . S
C693 H705 0.929 . S
C694 C690 1.531 . S
C694 H706 0.960 . S
C694 H707 0.962 . S
C694 H708 0.960 . S
C695 C692 1.511 . S
C695 H709 0.961 . S
C695 H710 0.961 . S
C695 H711 0.961 . S
C696 C697 1.370 . S
C696 C698 1.363 . S
C696 H712 0.931 . S
C697 C696 1.370 . S
C697 C701 1.408 . S
C698 C696 1.363 . S
C698 C699 1.370 . S
C698 C702 1.524 . S
C699 C691 1.503 . S
C699 C698 1.370 . S
C699 C700 1.403 . S
C700 C699 1.403 . S
C700 C701 1.404 . S
C700 C703 1.539 . S
C701 C697 1.408 . S
C701 C700 1.404 . S
C701 H713 0.930 . S
C702 C698 1.524 . S
C702 H714 0.956 . S
C702 H715 0.961 . S
C702 H716 0.961 . S
C703 C700 1.539 . S
C703 H717 0.958 . S
C703 H718 0.961 . S
C703 H719 0.960 . S
H704 C688 0.931 . S
H705 C693 0.929 . S
H706 C694 0.960 . S
H707 C694 0.962 . S
H708 C694 0.960 . S
H709 C695 0.961 . S
H710 C695 0.961 . S
H711 C695 0.961 . S
H712 C696 0.931 . S
H713 C701 0.930 . S
H714 C702 0.956 . S
H715 C702 0.961 . S
H716 C702 0.961 . S
H717 C703 0.958 . S
H718 C703 0.961 . S
H719 C703 0.960 . S
C720 C721 1.391 . S
C720 C722 1.394 . S
C720 H736 0.931 . S
C721 C720 1.391 . S
C721 C725 1.376 . S
C722 C720 1.394 . S
C722 C723 1.369 . S
C722 C726 1.531 . S
C723 C722 1.369 . S
C723 C724 1.410 . S
C723 C731 1.503 . S
C724 C723 1.410 . S
C724 C725 1.392 . S
C724 C727 1.511 1_545 S
C725 C721 1.376 . S
C725 C724 1.392 . S
C725 H737 0.929 . S
C726 C722 1.531 . S
C726 H738 0.960 . S
C726 H739 0.962 . S
C726 H740 0.960 . S
C727 C724 1.511 1_565 S
C727 H741 0.961 . S
C727 H742 0.961 . S
C727 H743 0.961 . S
C728 C729 1.370 . S
C728 C730 1.363 1_565 S
C728 H744 0.931 . S
C729 C728 1.370 . S
C729 C733 1.408 . S
C730 C728 1.363 1_545 S
C730 C731 1.370 . S
C730 C734 1.524 . S
C731 C723 1.503 . S
C731 C730 1.370 . S
C731 C732 1.403 . S
C732 C731 1.403 . S
C732 C733 1.404 1_545 S
C732 C735 1.539 . S
C733 C729 1.408 . S
C733 C732 1.404 1_565 S
C733 H745 0.930 . S
C734 C730 1.524 . S
C734 H746 0.956 . S
C734 H747 0.961 . S
C734 H748 0.961 . S
C735 C732 1.539 . S
C735 H749 0.958 . S
C735 H750 0.961 . S
C735 H751 0.960 . S
H736 C720 0.931 . S
H737 C725 0.929 . S
H738 C726 0.960 . S
H739 C726 0.962 . S
H740 C726 0.960 . S
H741 C727 0.961 . S
H742 C727 0.961 . S
H743 C727 0.961 . S
H744 C728 0.931 . S
H745 C733 0.930 . S
H746 C734 0.956 . S
H747 C734 0.961 . S
H748 C734 0.961 . S
H749 C735 0.958 . S
H750 C735 0.961 . S
H751 C735 0.960 . S
C752 C753 1.391 . S
C752 C754 1.394 . S
C752 H768 0.931 . S
C753 C752 1.391 . S
C753 C757 1.376 . S
C754 C752 1.394 . S
C754 C755 1.369 . S
C754 C758 1.531 . S
C755 C754 1.369 . S
C755 C756 1.410 . S
C755 C763 1.503 . S
C756 C755 1.410 . S
C756 C757 1.392 . S
C756 C759 1.511 . S
C757 C753 1.376 . S
C757 C756 1.392 . S
C757 H769 0.929 . S
C758 C754 1.531 . S
C758 H770 0.960 . S
C758 H771 0.962 . S
C758 H772 0.960 . S
C759 C756 1.511 . S
C759 H773 0.961 . S
C759 H774 0.961 . S
C759 H775 0.961 . S
C760 C761 1.370 . S
C760 C762 1.363 . S
C760 H776 0.931 . S
C761 C760 1.370 . S
C761 C765 1.408 . S
C762 C760 1.363 . S
C762 C763 1.370 . S
C762 C766 1.524 . S
C763 C755 1.503 . S
C763 C762 1.370 . S
C763 C764 1.403 . S
C764 C763 1.403 . S
C764 C765 1.404 . S
C764 C767 1.539 . S
C765 C761 1.408 . S
C765 C764 1.404 . S
C765 H777 0.930 . S
C766 C762 1.524 . S
C766 H778 0.956 . S
C766 H779 0.961 . S
C766 H780 0.961 . S
C767 C764 1.539 . S
C767 H781 0.958 . S
C767 H782 0.961 . S
C767 H783 0.960 . S
H768 C752 0.931 . S
H769 C757 0.929 . S
H770 C758 0.960 . S
H771 C758 0.962 . S
H772 C758 0.960 . S
H773 C759 0.961 . S
H774 C759 0.961 . S
H775 C759 0.961 . S
H776 C760 0.931 . S
H777 C765 0.930 . S
H778 C766 0.956 . S
H779 C766 0.961 . S
H780 C766 0.961 . S
H781 C767 0.958 . S
H782 C767 0.961 . S
H783 C767 0.960 . S
C784 C785 1.391 . S
C784 C786 1.394 . S
C784 H800 0.931 . S
C785 C784 1.391 . S
C785 C789 1.376 1_455 S
C786 C784 1.394 . S
C786 C787 1.369 1_455 S
C786 C790 1.531 . S
C787 C786 1.369 1_655 S
C787 C788 1.410 . S
C787 C795 1.503 . S
C788 C787 1.410 . S
C788 C789 1.392 . S
C788 C791 1.511 . S
C789 C785 1.376 1_655 S
C789 C788 1.392 . S
C789 H801 0.929 . S
C790 C786 1.531 . S
C790 H802 0.960 . S
C790 H803 0.962 . S
C790 H804 0.960 . S
C791 C788 1.511 . S
C791 H805 0.961 . S
C791 H806 0.961 . S
C791 H807 0.961 . S
C792 C793 1.370 . S
C792 C794 1.363 . S
C792 H808 0.931 . S
C793 C792 1.370 . S
C793 C797 1.408 . S
C794 C792 1.363 . S
C794 C795 1.370 . S
C794 C798 1.524 . S
C795 C787 1.503 . S
C795 C794 1.370 . S
C795 C796 1.403 . S
C796 C795 1.403 . S
C796 C797 1.404 . S
C796 C799 1.539 . S
C797 C793 1.408 . S
C797 C796 1.404 . S
C797 H809 0.930 . S
C798 C794 1.524 . S
C798 H810 0.956 . S
C798 H811 0.961 . S
C798 H812 0.961 . S
C799 C796 1.539 . S
C799 H813 0.958 . S
C799 H814 0.961 . S
C799 H815 0.960 . S
H800 C784 0.931 . S
H801 C789 0.929 . S
H802 C790 0.960 . S
H803 C790 0.962 . S
H804 C790 0.960 . S
H805 C791 0.961 . S
H806 C791 0.961 . S
H807 C791 0.961 . S
H808 C792 0.931 . S
H809 C797 0.930 . S
H810 C798 0.956 . S
H811 C798 0.961 . S
H812 C798 0.961 . S
H813 C799 0.958 . S
H814 C799 0.961 . S
H815 C799 0.960 . S
C241 C183 2.291 . S
C249 C23 2.273 . S
C273 C202 2.486 . S
C281 C42 2.491 . S
C305 C103 2.304 . S
C313 C143 2.274 . S
C337 C2 2.489 . S
C345 C162 2.510 . S
C369 C223 2.291 . S
C377 C63 2.273 . S
C401 C82 2.483 . S
C409 C122 2.492 . S
C433 C17 1.813 . S
C441 C104 1.809 . S
C465 C57 1.817 . S
C473 C24 1.808 . S
C497 C97 1.785 . S
C505 C64 1.818 . S
C529 C137 1.815 . S
C537 C184 1.808 . S
C561 C177 1.788 . S
C569 C224 1.817 . S
C593 C144 1.825 . S
C601 C217 1.798 . S
C625 C26 1.040 . S
C633 C93 1.025 . S
C657 C66 1.068 1_455 S
C665 C13 1.009 . S
C689 C106 0.994 1_565 S
C697 C53 1.042 . S
C721 C146 1.031 . S
C729 C173 1.029 . S
C753 C186 1.062 1_655 S
C761 C213 1.013 . S
C785 C133 1.032 . S
C793 C226 1.032 1_545 S
