# Generated by pormake.
# Topology umr, (4)-cn, num edge types: 1
# Building blocks:
#     Node 0, Type 0, BuildingBlock: QUQFOY_clean_sbu_3, # of connection points: 4
#     Node 1, Type 0, BuildingBlock: QUQFOY_clean_sbu_3, # of connection points: 4
#     Node 2, Type 0, BuildingBlock: QUQFOY_clean_sbu_3, # of connection points: 4
#     Node 3, Type 0, BuildingBlock: QUQFOY_clean_sbu_3, # of connection points: 4
#     Node 4, Type 0, BuildingBlock: QUQFOY_clean_sbu_3, # of connection points: 4
#     Node 5, Type 0, BuildingBlock: QUQFOY_clean_sbu_3, # of connection points: 4
#     Node 6, Type 0, BuildingBlock: QUQFOY_clean_sbu_3, # of connection points: 4
#     Node 7, Type 0, BuildingBlock: QUQFOY_clean_sbu_3, # of connection points: 4
#     Node 8, Type 0, BuildingBlock: QUQFOY_clean_sbu_3, # of connection points: 4
#     Node 9, Type 0, BuildingBlock: QUQFOY_clean_sbu_3, # of connection points: 4
#     Node 10, Type 0, BuildingBlock: QUQFOY_clean_sbu_3, # of connection points: 4
#     Node 11, Type 0, BuildingBlock: QUQFOY_clean_sbu_3, # of connection points: 4
#     Node 12, Type 0, BuildingBlock: QUQFOY_clean_sbu_3, # of connection points: 4
#     Node 13, Type 0, BuildingBlock: QUQFOY_clean_sbu_3, # of connection points: 4
#     Node 14, Type 0, BuildingBlock: QUQFOY_clean_sbu_3, # of connection points: 4
#     Node 15, Type 0, BuildingBlock: QUQFOY_clean_sbu_3, # of connection points: 4
#     Node 16, Type 0, BuildingBlock: QUQFOY_clean_sbu_3, # of connection points: 4
#     Node 17, Type 0, BuildingBlock: QUQFOY_clean_sbu_3, # of connection points: 4
#     Node 18, Type 0, BuildingBlock: QUQFOY_clean_sbu_3, # of connection points: 4
#     Node 19, Type 0, BuildingBlock: QUQFOY_clean_sbu_3, # of connection points: 4
#     Node 20, Type 0, BuildingBlock: QUQFOY_clean_sbu_3, # of connection points: 4
#     Node 21, Type 0, BuildingBlock: QUQFOY_clean_sbu_3, # of connection points: 4
#     Node 22, Type 0, BuildingBlock: QUQFOY_clean_sbu_3, # of connection points: 4
#     Node 23, Type 0, BuildingBlock: QUQFOY_clean_sbu_3, # of connection points: 4
#     Node 24, Type 0, BuildingBlock: QUQFOY_clean_sbu_3, # of connection points: 4
#     Node 25, Type 0, BuildingBlock: QUQFOY_clean_sbu_3, # of connection points: 4
#     Node 26, Type 0, BuildingBlock: QUQFOY_clean_sbu_3, # of connection points: 4
#     Node 27, Type 0, BuildingBlock: QUQFOY_clean_sbu_3, # of connection points: 4
#     Node 28, Type 0, BuildingBlock: QUQFOY_clean_sbu_3, # of connection points: 4
#     Node 29, Type 0, BuildingBlock: QUQFOY_clean_sbu_3, # of connection points: 4
#     Node 30, Type 0, BuildingBlock: QUQFOY_clean_sbu_3, # of connection points: 4
#     Node 31, Type 0, BuildingBlock: QUQFOY_clean_sbu_3, # of connection points: 4
#     Edge 32, Type (0, 0), BuildingBlock: ZUJKAS_clean_linker_0, # of connection points: 2
#     Edge 33, Type (0, 0), BuildingBlock: ZUJKAS_clean_linker_0, # of connection points: 2
#     Edge 34, Type (0, 0), BuildingBlock: ZUJKAS_clean_linker_0, # of connection points: 2
#     Edge 35, Type (0, 0), BuildingBlock: ZUJKAS_clean_linker_0, # of connection points: 2
#     Edge 36, Type (0, 0), BuildingBlock: ZUJKAS_clean_linker_0, # of connection points: 2
#     Edge 37, Type (0, 0), BuildingBlock: ZUJKAS_clean_linker_0, # of connection points: 2
#     Edge 38, Type (0, 0), BuildingBlock: ZUJKAS_clean_linker_0, # of connection points: 2
#     Edge 39, Type (0, 0), BuildingBlock: ZUJKAS_clean_linker_0, # of connection points: 2
#     Edge 40, Type (0, 0), BuildingBlock: ZUJKAS_clean_linker_0, # of connection points: 2
#     Edge 41, Type (0, 0), BuildingBlock: ZUJKAS_clean_linker_0, # of connection points: 2
#     Edge 42, Type (0, 0), BuildingBlock: ZUJKAS_clean_linker_0, # of connection points: 2
#     Edge 43, Type (0, 0), BuildingBlock: ZUJKAS_clean_linker_0, # of connection points: 2
#     Edge 44, Type (0, 0), BuildingBlock: ZUJKAS_clean_linker_0, # of connection points: 2
#     Edge 45, Type (0, 0), BuildingBlock: ZUJKAS_clean_linker_0, # of connection points: 2
#     Edge 46, Type (0, 0), BuildingBlock: ZUJKAS_clean_linker_0, # of connection points: 2
#     Edge 47, Type (0, 0), BuildingBlock: ZUJKAS_clean_linker_0, # of connection points: 2
#     Edge 48, Type (0, 0), BuildingBlock: ZUJKAS_clean_linker_0, # of connection points: 2
#     Edge 49, Type (0, 0), BuildingBlock: ZUJKAS_clean_linker_0, # of connection points: 2
#     Edge 50, Type (0, 0), BuildingBlock: ZUJKAS_clean_linker_0, # of connection points: 2
#     Edge 51, Type (0, 0), BuildingBlock: ZUJKAS_clean_linker_0, # of connection points: 2
#     Edge 52, Type (0, 0), BuildingBlock: ZUJKAS_clean_linker_0, # of connection points: 2
#     Edge 53, Type (0, 0), BuildingBlock: ZUJKAS_clean_linker_0, # of connection points: 2
#     Edge 54, Type (0, 0), BuildingBlock: ZUJKAS_clean_linker_0, # of connection points: 2
#     Edge 55, Type (0, 0), BuildingBlock: ZUJKAS_clean_linker_0, # of connection points: 2
#     Edge 56, Type (0, 0), BuildingBlock: ZUJKAS_clean_linker_0, # of connection points: 2
#     Edge 57, Type (0, 0), BuildingBlock: ZUJKAS_clean_linker_0, # of connection points: 2
#     Edge 58, Type (0, 0), BuildingBlock: ZUJKAS_clean_linker_0, # of connection points: 2
#     Edge 59, Type (0, 0), BuildingBlock: ZUJKAS_clean_linker_0, # of connection points: 2
#     Edge 60, Type (0, 0), BuildingBlock: ZUJKAS_clean_linker_0, # of connection points: 2
#     Edge 61, Type (0, 0), BuildingBlock: ZUJKAS_clean_linker_0, # of connection points: 2
#     Edge 62, Type (0, 0), BuildingBlock: ZUJKAS_clean_linker_0, # of connection points: 2
#     Edge 63, Type (0, 0), BuildingBlock: ZUJKAS_clean_linker_0, # of connection points: 2
#     Edge 64, Type (0, 0), BuildingBlock: ZUJKAS_clean_linker_0, # of connection points: 2
#     Edge 65, Type (0, 0), BuildingBlock: ZUJKAS_clean_linker_0, # of connection points: 2
#     Edge 66, Type (0, 0), BuildingBlock: ZUJKAS_clean_linker_0, # of connection points: 2
#     Edge 67, Type (0, 0), BuildingBlock: ZUJKAS_clean_linker_0, # of connection points: 2
#     Edge 68, Type (0, 0), BuildingBlock: ZUJKAS_clean_linker_0, # of connection points: 2
#     Edge 69, Type (0, 0), BuildingBlock: ZUJKAS_clean_linker_0, # of connection points: 2
#     Edge 70, Type (0, 0), BuildingBlock: ZUJKAS_clean_linker_0, # of connection points: 2
#     Edge 71, Type (0, 0), BuildingBlock: ZUJKAS_clean_linker_0, # of connection points: 2
#     Edge 72, Type (0, 0), BuildingBlock: ZUJKAS_clean_linker_0, # of connection points: 2
#     Edge 73, Type (0, 0), BuildingBlock: ZUJKAS_clean_linker_0, # of connection points: 2
#     Edge 74, Type (0, 0), BuildingBlock: ZUJKAS_clean_linker_0, # of connection points: 2
#     Edge 75, Type (0, 0), BuildingBlock: ZUJKAS_clean_linker_0, # of connection points: 2
#     Edge 76, Type (0, 0), BuildingBlock: ZUJKAS_clean_linker_0, # of connection points: 2
#     Edge 77, Type (0, 0), BuildingBlock: ZUJKAS_clean_linker_0, # of connection points: 2
#     Edge 78, Type (0, 0), BuildingBlock: ZUJKAS_clean_linker_0, # of connection points: 2
#     Edge 79, Type (0, 0), BuildingBlock: ZUJKAS_clean_linker_0, # of connection points: 2
#     Edge 80, Type (0, 0), BuildingBlock: ZUJKAS_clean_linker_0, # of connection points: 2
#     Edge 81, Type (0, 0), BuildingBlock: ZUJKAS_clean_linker_0, # of connection points: 2
#     Edge 82, Type (0, 0), BuildingBlock: ZUJKAS_clean_linker_0, # of connection points: 2
#     Edge 83, Type (0, 0), BuildingBlock: ZUJKAS_clean_linker_0, # of connection points: 2
#     Edge 84, Type (0, 0), BuildingBlock: ZUJKAS_clean_linker_0, # of connection points: 2
#     Edge 85, Type (0, 0), BuildingBlock: ZUJKAS_clean_linker_0, # of connection points: 2
#     Edge 86, Type (0, 0), BuildingBlock: ZUJKAS_clean_linker_0, # of connection points: 2
#     Edge 87, Type (0, 0), BuildingBlock: ZUJKAS_clean_linker_0, # of connection points: 2
#     Edge 88, Type (0, 0), BuildingBlock: ZUJKAS_clean_linker_0, # of connection points: 2
#     Edge 89, Type (0, 0), BuildingBlock: ZUJKAS_clean_linker_0, # of connection points: 2
#     Edge 90, Type (0, 0), BuildingBlock: ZUJKAS_clean_linker_0, # of connection points: 2
#     Edge 91, Type (0, 0), BuildingBlock: ZUJKAS_clean_linker_0, # of connection points: 2
#     Edge 92, Type (0, 0), BuildingBlock: ZUJKAS_clean_linker_0, # of connection points: 2
#     Edge 93, Type (0, 0), BuildingBlock: ZUJKAS_clean_linker_0, # of connection points: 2
#     Edge 94, Type (0, 0), BuildingBlock: ZUJKAS_clean_linker_0, # of connection points: 2
#     Edge 95, Type (0, 0), BuildingBlock: ZUJKAS_clean_linker_0, # of connection points: 2
# Relax obj value: 0.089
# Max RMSD: 0.108
# Mean RMSD: 0.108
data_MOF--net-umr--node1-QUQFOY_clean_sbu_3--edge1-ZUJKAS_clean_linker_0
_symmetry_space_group_name_H-M    P1
_symmetry_Int_Tables_number       1
_symmetry_cell_setting            triclinic
loop_
_symmetry_equiv_pos_as_xyz
'x, y, z'
_cell_length_a     110.43197
_cell_length_b     110.43396
_cell_length_c     34.887326
_cell_angle_alpha  90.021118
_cell_angle_beta   89.984843
_cell_angle_gamma 89.95258
loop_
_atom_site_label
_atom_site_type_symbol
_atom_site_fract_x
_atom_site_fract_y
_atom_site_fract_z
_atom_type_partial_charge
C0 C 0.15155 0.26878 -0.00919 0.0
O1 O 0.15392 0.26041 0.01459 0.0
Cd2 Cd 0.16212 0.26344 0.07631 0.0
O3 O 0.15326 0.27988 -0.00049 0.0
Cd4 Cd 0.16007 0.29133 0.05732 0.0
C5 C 0.18781 0.27892 0.04974 0.0
O6 O 0.14886 0.27864 0.10079 0.0
O7 O 0.16206 0.29006 0.12791 0.0
O8 O 0.14545 0.30675 0.0383 0.0
C9 C 0.15317 0.2829 0.13143 0.0
O10 O 0.1832 0.26938 0.06416 0.0
C11 C 0.15164 0.31562 0.05059 0.0
O12 O 0.18124 0.2881 0.04252 0.0
O13 O 0.16202 0.31323 0.06422 0.0
C14 C 0.97477 0.90523 0.24822 0.0
O15 O 0.98191 0.90857 0.27471 0.0
Cd16 Cd 0.97646 0.91399 0.33793 0.0
O17 O 0.96336 0.90463 0.25393 0.0
Cd18 Cd 0.94975 0.90896 0.30946 0.0
C19 C 0.95877 0.93823 0.31431 0.0
O20 O 0.96248 0.89848 0.3545 0.0
O21 O 0.94845 0.9092 0.38027 0.0
O22 O 0.93611 0.89273 0.29027 0.0
C23 C 0.95672 0.90134 0.38436 0.0
O24 O 0.96828 0.93441 0.33103 0.0
C25 C 0.92649 0.89873 0.29648 0.0
O26 O 0.95091 0.93082 0.30165 0.0
O27 O 0.92777 0.90977 0.30575 0.0
C28 C 0.34642 0.72483 0.4883 0.0
O29 O 0.34295 0.73325 0.51054 0.0
Cd30 Cd 0.33433 0.73107 0.57212 0.0
O31 O 0.34541 0.71372 0.49799 0.0
Cd32 Cd 0.33811 0.70271 0.55591 0.0
C33 C 0.30965 0.71392 0.54725 0.0
O34 O 0.34784 0.71665 0.59869 0.0
O35 O 0.33612 0.70397 0.62669 0.0
O36 O 0.35386 0.68768 0.54525 0.0
C37 C 0.34391 0.71233 0.62969 0.0
O38 O 0.31373 0.72384 0.56059 0.0
C39 C 0.34726 0.67864 0.55348 0.0
O40 O 0.31671 0.70504 0.54085 0.0
O41 O 0.33617 0.68076 0.56036 0.0
C42 C 0.51651 0.09194 0.74606 0.0
O43 O 0.50807 0.09005 0.77009 0.0
Cd44 Cd 0.51032 0.0835 0.83407 0.0
O45 O 0.52761 0.09037 0.75517 0.0
Cd46 Cd 0.53885 0.08446 0.81433 0.0
C47 C 0.52526 0.05686 0.81573 0.0
O48 O 0.52597 0.09708 0.85271 0.0
O49 O 0.53858 0.08653 0.88529 0.0
O50 O 0.55525 0.09735 0.79117 0.0
C51 C 0.53055 0.09472 0.8849 0.0
O52 O 0.51565 0.06206 0.82742 0.0
C53 C 0.56362 0.09083 0.80526 0.0
O54 O 0.53468 0.06299 0.80792 0.0
O55 O 0.56046 0.08103 0.82134 0.0
C56 C 0.14808 0.72476 0.48479 0.0
O57 O 0.15084 0.73214 0.45832 0.0
Cd58 Cd 0.15979 0.72677 0.39921 0.0
O59 O 0.14963 0.71338 0.48038 0.0
Cd60 Cd 0.15672 0.69997 0.42726 0.0
C61 C 0.1847 0.71163 0.43409 0.0
O62 O 0.14687 0.71103 0.37671 0.0
O63 O 0.16108 0.69916 0.35772 0.0
O64 O 0.14096 0.68526 0.44177 0.0
C65 C 0.15219 0.70589 0.34913 0.0
O66 O 0.18057 0.72071 0.41572 0.0
C67 C 0.14777 0.67605 0.43805 0.0
O68 O 0.17774 0.70302 0.444 0.0
O69 O 0.15891 0.67805 0.43176 0.0
C70 C 0.5209 0.89579 0.74295 0.0
O71 O 0.51224 0.89663 0.7192 0.0
Cd72 Cd 0.51376 0.90682 0.66001 0.0
O73 O 0.53153 0.89942 0.7344 0.0
Cd74 Cd 0.54198 0.90696 0.67544 0.0
C75 C 0.52774 0.93327 0.69047 0.0
O76 O 0.52974 0.89609 0.62959 0.0
O77 O 0.53954 0.91124 0.60655 0.0
O78 O 0.55805 0.89245 0.68803 0.0
C79 C 0.53308 0.90196 0.6004 0.0
O80 O 0.5183 0.92796 0.67782 0.0
C81 C 0.56659 0.89935 0.6773 0.0
O82 O 0.5377 0.92758 0.69381 0.0
O83 O 0.56375 0.91008 0.66777 0.0
C84 C 0.34811 0.26432 0.98668 0.0
O85 O 0.34535 0.25676 0.96068 0.0
Cd86 Cd 0.33731 0.26144 0.89954 0.0
O87 O 0.34689 0.27568 0.98121 0.0
Cd88 Cd 0.34028 0.28881 0.92713 0.0
C89 C 0.31207 0.27678 0.92948 0.0
O90 O 0.35059 0.27713 0.87898 0.0
O91 O 0.33824 0.29033 0.85653 0.0
O92 O 0.35519 0.30419 0.94393 0.0
C93 C 0.3464 0.28252 0.85002 0.0
O94 O 0.31629 0.2675 0.91238 0.0
C95 C 0.34789 0.31303 0.94047 0.0
O96 O 0.31901 0.28539 0.93951 0.0
O97 O 0.33694 0.31047 0.93307 0.0
C98 C 0.97837 0.09908 0.23751 0.0
O99 O 0.98559 0.09488 0.21252 0.0
Cd100 Cd 0.97985 0.08487 0.15546 0.0
O101 O 0.96693 0.09841 0.23273 0.0
Cd102 Cd 0.95335 0.09061 0.1811 0.0
C103 C 0.96283 0.06209 0.19525 0.0
O104 O 0.96513 0.09804 0.1279 0.0
O105 O 0.95245 0.08401 0.11352 0.0
O106 O 0.93936 0.10752 0.189 0.0
C107 C 0.9597 0.09213 0.10215 0.0
O108 O 0.97221 0.06505 0.17616 0.0
C109 C 0.92987 0.10104 0.18743 0.0
O110 O 0.95481 0.06994 0.20346 0.0
O111 O 0.93139 0.08967 0.18549 0.0
C112 C 0.8456 0.72838 0.98096 0.0
O113 O 0.8431 0.736 0.95491 0.0
Cd114 Cd 0.83374 0.73118 0.89592 0.0
O115 O 0.84367 0.71709 0.97627 0.0
Cd116 Cd 0.83665 0.70391 0.92261 0.0
C117 C 0.80863 0.71592 0.92887 0.0
O118 O 0.84673 0.71548 0.8738 0.0
O119 O 0.83394 0.70258 0.85206 0.0
O120 O 0.85238 0.68939 0.93889 0.0
C121 C 0.84229 0.71013 0.84514 0.0
O122 O 0.81292 0.72521 0.91203 0.0
C123 C 0.84578 0.68009 0.93434 0.0
O124 O 0.81546 0.70706 0.93762 0.0
O125 O 0.83467 0.68194 0.92691 0.0
C126 C 0.01548 0.0896 0.73307 0.0
O127 O 0.008 0.08753 0.70622 0.0
Cd128 Cd 0.01329 0.08155 0.64322 0.0
O129 O 0.02689 0.08905 0.72742 0.0
Cd130 Cd 0.04016 0.08539 0.67085 0.0
C131 C 0.03008 0.05657 0.66639 0.0
O132 O 0.02773 0.09675 0.62725 0.0
O133 O 0.04108 0.0857 0.59955 0.0
O134 O 0.0544 0.10083 0.69235 0.0
C135 C 0.03315 0.09396 0.59673 0.0
O136 O 0.02066 0.06062 0.6497 0.0
C137 C 0.06379 0.09457 0.68512 0.0
O138 O 0.0382 0.06374 0.67862 0.0
O139 O 0.06209 0.08379 0.67373 0.0
C140 C 0.65336 0.2612 0.48027 0.0
O141 O 0.65689 0.25413 0.45385 0.0
Cd142 Cd 0.66339 0.26006 0.39208 0.0
O143 O 0.65292 0.27263 0.47494 0.0
Cd144 Cd 0.65715 0.28651 0.4203 0.0
C145 C 0.68672 0.27853 0.4193 0.0
O146 O 0.64759 0.2736 0.37392 0.0
O147 O 0.65784 0.28815 0.34937 0.0
O148 O 0.6402 0.29932 0.43927 0.0
C149 C 0.6504 0.27956 0.34445 0.0
O150 O 0.68348 0.26881 0.40258 0.0
C151 C 0.64582 0.30922 0.43422 0.0
O152 O 0.67887 0.2862 0.43035 0.0
O153 O 0.65694 0.30848 0.42533 0.0
C154 C 0.47405 0.8976 0.24159 0.0
O155 O 0.48248 0.89979 0.2179 0.0
Cd156 Cd 0.47971 0.90901 0.15741 0.0
O157 O 0.46299 0.89966 0.23319 0.0
Cd158 Cd 0.45199 0.90634 0.17437 0.0
C159 C 0.4635 0.9341 0.18613 0.0
O160 O 0.46501 0.89608 0.12938 0.0
O161 O 0.45425 0.9103 0.10491 0.0
O162 O 0.43684 0.89087 0.18704 0.0
C163 C 0.4612 0.90132 0.09963 0.0
O164 O 0.47311 0.92993 0.1708 0.0
C165 C 0.42794 0.89719 0.17554 0.0
O166 O 0.45454 0.92722 0.19313 0.0
O167 O 0.43015 0.90804 0.16586 0.0
C168 C 0.84524 0.2653 0.49819 0.0
O169 O 0.84199 0.25822 0.52494 0.0
Cd170 Cd 0.83347 0.26453 0.58387 0.0
O171 O 0.84447 0.27676 0.50221 0.0
Cd172 Cd 0.83823 0.29088 0.55436 0.0
C173 C 0.80956 0.28093 0.54812 0.0
O174 O 0.84733 0.2796 0.60582 0.0
O175 O 0.83391 0.29253 0.62371 0.0
O176 O 0.85478 0.30469 0.53995 0.0
C177 C 0.84236 0.28532 0.6329 0.0
O178 O 0.81306 0.27169 0.56698 0.0
C179 C 0.84834 0.31421 0.54161 0.0
O180 O 0.81709 0.28901 0.53794 0.0
O181 O 0.83706 0.31277 0.54682 0.0
C182 C 0.47695 0.09433 0.24205 0.0
O183 O 0.48471 0.09024 0.2656 0.0
Cd184 Cd 0.48098 0.08299 0.32829 0.0
O185 O 0.4657 0.09448 0.25037 0.0
Cd186 Cd 0.45366 0.08775 0.30678 0.0
C187 C 0.46377 0.05885 0.3025 0.0
O188 O 0.46695 0.09756 0.35153 0.0
O189 O 0.45419 0.08552 0.3777 0.0
O190 O 0.43882 0.10362 0.29402 0.0
C191 C 0.46226 0.09357 0.38191 0.0
O192 O 0.47317 0.06247 0.32018 0.0
C193 C 0.42967 0.09704 0.30129 0.0
O194 O 0.45575 0.06633 0.2913 0.0
O195 O 0.4317 0.08597 0.30861 0.0
C196 C 0.64768 0.72653 0.98833 0.0
O197 O 0.64937 0.735 0.01228 0.0
Cd198 Cd 0.65837 0.73243 0.07315 0.0
O199 O 0.65004 0.71554 -0.00316 0.0
Cd200 Cd 0.65637 0.70467 0.0563 0.0
C201 C 0.68407 0.7167 0.04681 0.0
O202 O 0.64566 0.71746 0.10104 0.0
O203 O 0.65969 0.70652 0.12604 0.0
O204 O 0.64096 0.68939 0.04487 0.0
C205 C 0.65064 0.7134 0.13095 0.0
O206 O 0.67948 0.72641 0.06023 0.0
C207 C 0.64762 0.68049 0.05421 0.0
O208 O 0.67749 0.70746 0.04078 0.0
O209 O 0.65862 0.68279 0.06188 0.0
C210 C 0.01287 0.89743 0.74519 0.0
O211 O 0.00542 0.9014 0.76995 0.0
Cd212 Cd 0.01036 0.91016 0.82984 0.0
O213 O 0.02427 0.89779 0.75119 0.0
Cd214 Cd 0.0374 0.90451 0.80512 0.0
C215 C 0.02765 0.93341 0.79565 0.0
O216 O 0.02453 0.8957 0.85288 0.0
O217 O 0.03828 0.90729 0.87593 0.0
O218 O 0.05143 0.88806 0.79137 0.0
C219 C 0.02994 0.89966 0.88209 0.0
O220 O 0.0182 0.93033 0.81418 0.0
C221 C 0.0609 0.89438 0.7965 0.0
O222 O 0.03563 0.92561 0.78668 0.0
O223 O 0.05938 0.90559 0.80297 0.0
C224 C 0.64812 0.77 0.48842 0.0
O225 O 0.64962 0.76163 0.51285 0.0
Cd226 Cd 0.65976 0.76422 0.57184 0.0
O227 O 0.65139 0.78086 0.49544 0.0
Cd228 Cd 0.6595 0.79222 0.55182 0.0
C229 C 0.68604 0.778 0.5397 0.0
O230 O 0.64853 0.78052 0.59866 0.0
O231 O 0.66329 0.79092 0.6215 0.0
O232 O 0.6452 0.80808 0.53467 0.0
C233 C 0.65407 0.7844 0.62781 0.0
O234 O 0.68093 0.7688 0.55466 0.0
C235 C 0.6519 0.81677 0.5455 0.0
O236 O 0.6801 0.78769 0.53369 0.0
O237 O 0.66241 0.81408 0.55744 0.0
C238 C 0.4715 0.3959 0.73618 0.0
O239 O 0.4802 0.39846 0.75856 0.0
Cd240 Cd 0.47855 0.40695 0.82052 0.0
O241 O 0.46052 0.3975 0.74639 0.0
Cd242 Cd 0.45014 0.40435 0.80602 0.0
C243 C 0.4622 0.43233 0.79691 0.0
O244 O 0.46385 0.39394 0.84825 0.0
O245 O 0.45213 0.4066 0.87645 0.0
O246 O 0.43429 0.3894 0.79563 0.0
C247 C 0.46001 0.39831 0.87934 0.0
O248 O 0.47209 0.42794 0.80954 0.0
C249 C 0.42565 0.39648 0.8044 0.0
O250 O 0.45307 0.42556 0.79125 0.0
O251 O 0.42839 0.40739 0.81176 0.0
C252 C 0.84282 0.22836 -0.00321 0.0
O253 O 0.84036 0.23589 0.02317 0.0
Cd254 Cd 0.83181 0.23078 0.08333 0.0
O255 O 0.84139 0.217 0.0017 0.0
Cd256 Cd 0.83541 0.2037 0.05613 0.0
C257 C 0.80712 0.2149 0.05081 0.0
O258 O 0.84541 0.21551 0.10459 0.0
O259 O 0.83258 0.20264 0.12648 0.0
O260 O 0.85131 0.18938 0.03939 0.0
C261 C 0.84101 0.21012 0.13327 0.0
O262 O 0.81102 0.22411 0.069 0.0
C263 C 0.84487 0.18003 0.04517 0.0
O264 O 0.81427 0.20646 0.04067 0.0
O265 O 0.8338 0.18175 0.05324 0.0
C266 C 0.01885 0.59454 0.24569 0.0
O267 O 0.0105 0.59322 0.27033 0.0
Cd268 Cd 0.01306 0.58551 0.33291 0.0
O269 O 0.0299 0.59234 0.25387 0.0
Cd270 Cd 0.04117 0.5867 0.31329 0.0
C271 C 0.0281 0.5591 0.31064 0.0
O272 O 0.02866 0.59841 0.35573 0.0
O273 O 0.04013 0.58563 0.38434 0.0
O274 O 0.05706 0.60118 0.2978 0.0
C275 C 0.03277 0.5944 0.38694 0.0
O276 O 0.01856 0.5641 0.32377 0.0
C277 C 0.06573 0.59415 0.30659 0.0
O278 O 0.03742 0.56538 0.30286 0.0
O279 O 0.06296 0.58341 0.31611 0.0
C280 C 0.64593 0.22392 0.98201 0.0
O281 O 0.64881 0.23141 0.95596 0.0
Cd282 Cd 0.65763 0.22657 0.89604 0.0
O283 O 0.64746 0.21256 0.97724 0.0
Cd284 Cd 0.65491 0.19945 0.92423 0.0
C285 C 0.6827 0.21179 0.93028 0.0
O286 O 0.64485 0.21068 0.87426 0.0
O287 O 0.6584 0.19828 0.85425 0.0
O288 O 0.63987 0.18426 0.94146 0.0
C289 C 0.64984 0.20548 0.84621 0.0
O290 O 0.67854 0.22062 0.91084 0.0
C291 C 0.64671 0.17528 0.9343 0.0
O292 O 0.6758 0.20325 0.94133 0.0
O293 O 0.6576 0.17759 0.92535 0.0
C294 C 0.02055 0.39568 0.24665 0.0
O295 O 0.01177 0.39751 0.22395 0.0
Cd296 Cd 0.01328 0.40841 0.16592 0.0
O297 O 0.0313 0.39895 0.2381 0.0
Cd298 Cd 0.04155 0.40745 0.18021 0.0
C299 C 0.02819 0.43409 0.198 0.0
O300 O 0.02875 0.39749 0.13379 0.0
O301 O 0.0389 0.41257 0.11189 0.0
O302 O 0.05724 0.39235 0.19032 0.0
C303 C 0.03214 0.40356 0.10508 0.0
O304 O 0.01865 0.42928 0.18417 0.0
C305 C 0.06592 0.39904 0.17951 0.0
O306 O 0.03786 0.42793 0.20179 0.0
O307 O 0.06337 0.40994 0.17111 0.0
C308 C 0.84688 0.76381 0.47753 0.0
O309 O 0.84467 0.75639 0.45064 0.0
Cd310 Cd 0.83634 0.76168 0.39052 0.0
O311 O 0.84513 0.77515 0.47298 0.0
Cd312 Cd 0.83844 0.78844 0.41924 0.0
C313 C 0.8107 0.77601 0.42319 0.0
O314 O 0.84915 0.77774 0.36952 0.0
O315 O 0.83495 0.78947 0.34943 0.0
O316 O 0.85382 0.80334 0.43533 0.0
C317 C 0.84412 0.78301 0.34165 0.0
O318 O 0.81524 0.76707 0.40507 0.0
C319 C 0.84697 0.81246 0.43073 0.0
O320 O 0.81733 0.78481 0.43375 0.0
O321 O 0.83589 0.81033 0.4237 0.0
C322 C 0.47859 0.59189 0.73302 0.0
O323 O 0.48571 0.58851 0.70651 0.0
Cd324 Cd 0.47992 0.58061 0.64623 0.0
O325 O 0.46711 0.59141 0.72869 0.0
Cd326 Cd 0.45307 0.58551 0.67586 0.0
C327 C 0.46309 0.55654 0.67789 0.0
O328 O 0.46512 0.59508 0.62741 0.0
O329 O 0.45095 0.58387 0.60503 0.0
O330 O 0.43933 0.6018 0.69382 0.0
C331 C 0.45923 0.59154 0.59859 0.0
O332 O 0.47247 0.56019 0.66011 0.0
C333 C 0.42977 0.59553 0.69007 0.0
O334 O 0.45498 0.56399 0.68855 0.0
O335 O 0.43115 0.58438 0.68239 0.0
C336 C 0.34202 0.22622 0.48651 0.0
O337 O 0.33902 0.23375 0.46072 0.0
Cd338 Cd 0.33135 0.22888 0.39953 0.0
O339 O 0.3412 0.21483 0.48067 0.0
Cd340 Cd 0.33518 0.20176 0.42541 0.0
C341 C 0.30655 0.21253 0.42815 0.0
O342 O 0.34558 0.21403 0.37925 0.0
O343 O 0.33347 0.20108 0.35432 0.0
O344 O 0.35108 0.18745 0.44257 0.0
C345 C 0.34178 0.20883 0.34945 0.0
O346 O 0.31064 0.22195 0.41157 0.0
C347 C 0.34479 0.17806 0.43585 0.0
O348 O 0.31366 0.20404 0.4382 0.0
O349 O 0.33377 0.17974 0.42697 0.0
C350 C 0.51449 0.59088 0.23186 0.0
O351 O 0.50805 0.58659 0.20494 0.0
Cd352 Cd 0.51464 0.58134 0.14245 0.0
O353 O 0.52583 0.59263 0.22729 0.0
Cd354 Cd 0.54039 0.58919 0.17387 0.0
C355 C 0.5342 0.55908 0.16874 0.0
O356 O 0.52735 0.59806 0.12624 0.0
O357 O 0.54302 0.58916 0.10329 0.0
O358 O 0.55335 0.60614 0.19283 0.0
C359 C 0.53385 0.5958 0.0974 0.0
O360 O 0.52453 0.56171 0.15071 0.0
C361 C 0.56311 0.60008 0.19044 0.0
O362 O 0.541 0.5674 0.18177 0.0
O363 O 0.56211 0.58889 0.1829 0.0
C364 C 0.14658 0.76367 0.98654 0.0
O365 O 0.1489 0.75601 0.96043 0.0
Cd366 Cd 0.15738 0.76083 0.90011 0.0
O367 O 0.14794 0.77501 0.98086 0.0
Cd368 Cd 0.15331 0.78809 0.92505 0.0
C369 C 0.18185 0.77749 0.93108 0.0
O370 O 0.14357 0.77569 0.8774 0.0
O371 O 0.15587 0.78893 0.85467 0.0
O372 O 0.13713 0.80222 0.94043 0.0
C373 C 0.14777 0.78107 0.84837 0.0
O374 O 0.17799 0.76784 0.91523 0.0
C375 C 0.14352 0.81164 0.93533 0.0
O376 O 0.17462 0.78609 0.93905 0.0
O377 O 0.15468 0.81003 0.92816 0.0
C378 C 0.97469 0.39958 0.74257 0.0
O379 O 0.98336 0.4011 0.71918 0.0
Cd380 Cd 0.98135 0.4094 0.65711 0.0
O381 O 0.96376 0.40179 0.73298 0.0
Cd382 Cd 0.95336 0.40757 0.67215 0.0
C383 C 0.96546 0.43537 0.67917 0.0
O384 O 0.96654 0.39633 0.63003 0.0
O385 O 0.95562 0.40979 0.602 0.0
O386 O 0.93795 0.39236 0.68412 0.0
C387 C 0.96269 0.4008 0.59906 0.0
O388 O 0.97528 0.43064 0.6671 0.0
C389 C 0.92909 0.39901 0.6743 0.0
O390 O 0.95617 0.42885 0.68517 0.0
O391 O 0.93148 0.40993 0.66584 0.0
C392 C 0.33847 0.76523 -0.00602 0.0
O393 O 0.33525 0.75711 0.01765 0.0
Cd394 Cd 0.32938 0.76013 0.08193 0.0
O395 O 0.33854 0.7764 0.00347 0.0
Cd396 Cd 0.33357 0.78808 0.06267 0.0
C397 C 0.30463 0.77771 0.06322 0.0
O398 O 0.34493 0.77391 0.10018 0.0
O399 O 0.33534 0.78699 0.13386 0.0
O400 O 0.34806 0.80319 0.03993 0.0
C401 C 0.34298 0.77843 0.13271 0.0
O402 O 0.30867 0.76776 0.07642 0.0
C403 C 0.34241 0.81212 0.05434 0.0
O404 O 0.31183 0.78625 0.05439 0.0
O405 O 0.3324 0.80988 0.07069 0.0
C406 C 0.97576 0.59761 0.74393 0.0
O407 O 0.9839 0.59472 0.76792 0.0
Cd408 Cd 0.98051 0.585 0.8273 0.0
O409 O 0.96459 0.59573 0.75122 0.0
Cd410 Cd 0.95274 0.5878 0.80663 0.0
C411 C 0.96484 0.56014 0.79416 0.0
O412 O 0.96508 0.59717 0.85511 0.0
O413 O 0.95356 0.5829 0.87566 0.0
O414 O 0.93792 0.60375 0.7969 0.0
C415 C 0.96068 0.59156 0.88336 0.0
O416 O 0.97427 0.56434 0.81043 0.0
C417 C 0.92872 0.59707 0.80239 0.0
O418 O 0.95582 0.56695 0.78709 0.0
O419 O 0.93068 0.58586 0.8075 0.0
C420 C 0.1448 0.22469 0.48569 0.0
O421 O 0.14716 0.23336 0.50836 0.0
Cd422 Cd 0.15668 0.23146 0.56868 0.0
O423 O 0.14687 0.21371 0.49503 0.0
Cd424 Cd 0.15373 0.20322 0.55472 0.0
C425 C 0.18172 0.21472 0.54258 0.0
O426 O 0.14393 0.21698 0.59843 0.0
O427 O 0.15705 0.20533 0.62474 0.0
O428 O 0.13809 0.18793 0.54616 0.0
C429 C 0.14875 0.21316 0.62885 0.0
O430 O 0.17746 0.22469 0.55505 0.0
C431 C 0.14489 0.17903 0.55445 0.0
O432 O 0.17488 0.20558 0.53801 0.0
O433 O 0.15598 0.18135 0.5606 0.0
C434 C 0.51751 0.40389 0.23634 0.0
O435 O 0.50948 0.40842 0.25809 0.0
Cd436 Cd 0.5124 0.41593 0.32065 0.0
O437 O 0.52852 0.40306 0.24725 0.0
Cd438 Cd 0.53954 0.40816 0.30763 0.0
C439 C 0.53305 0.43795 0.29945 0.0
O440 O 0.52389 0.39974 0.34701 0.0
O441 O 0.53714 0.40982 0.37855 0.0
O442 O 0.55259 0.39064 0.29743 0.0
C443 C 0.52813 0.40273 0.37913 0.0
O444 O 0.52253 0.43539 0.31194 0.0
C445 C 0.56225 0.39598 0.30769 0.0
O446 O 0.54077 0.42962 0.29333 0.0
O447 O 0.5614 0.40716 0.31565 0.0
H448 H 0.29435 0.26012 0.91355 0.0
H449 H 0.27308 0.26083 0.93318 0.0
H450 H 0.27906 0.29541 0.9873 0.0
H451 H 0.30031 0.2948 0.96812 0.0
H452 H 0.2672 0.27798 0.03403 0.0
H453 H 0.24567 0.28276 0.89079 0.0
H454 H 0.25633 0.27053 0.89523 0.0
H455 H 0.2615 0.2859 0.89901 0.0
C456 C 0.29113 0.26793 0.92934 0.0
C457 C 0.29904 0.27741 0.93925 0.0
C458 C 0.27896 0.26833 0.94039 0.0
C459 C 0.27452 0.27822 0.96137 0.0
C460 C 0.28234 0.28772 0.97102 0.0
H461 H 0.20027 0.29702 0.01366 0.0
H462 H 0.22147 0.2969 -0.0064 0.0
C463 C 0.29448 0.28735 0.95995 0.0
C464 C 0.26183 0.27847 0.97472 0.0
H465 H 0.23256 0.27953 0.94363 0.0
C466 C 0.25961 0.27833 0.01432 0.0
C467 C 0.252 0.27904 0.94885 0.0
C468 C 0.25394 0.27967 0.90608 0.0
C469 C 0.24777 0.27862 0.0288 0.0
C470 C 0.23793 0.27893 0.00292 0.0
C471 C 0.24015 0.27921 0.96332 0.0
C472 C 0.22525 0.27909 0.01637 0.0
C473 C 0.24586 0.27878 0.07163 0.0
C474 C 0.22041 0.26909 0.03583 0.0
C475 C 0.20829 0.26911 0.04735 0.0
C476 C 0.20081 0.27913 0.0395 0.0
C477 C 0.20577 0.28917 0.02029 0.0
C478 C 0.21787 0.28912 0.00869 0.0
H479 H 0.25427 0.28124 0.08728 0.0
H480 H 0.2386 0.28528 0.07958 0.0
H481 H 0.24302 0.26964 0.08125 0.0
H482 H 0.22595 0.2612 0.04153 0.0
H483 H 0.20476 0.26121 0.06195 0.0
H484 H 0.93995 0.94972 0.27828 0.0
H485 H 0.93867 0.97112 0.26064 0.0
H486 H 0.97305 0.97775 0.31531 0.0
H487 H 0.97436 0.95646 0.33359 0.0
H488 H 0.9556 0.99575 0.32973 0.0
H489 H 0.9598 0.98522 0.17435 0.0
H490 H 0.94755 0.97779 0.19876 0.0
H491 H 0.96292 0.97418 0.21118 0.0
C492 C 0.94719 0.95575 0.2869 0.0
C493 C 0.95732 0.95135 0.30701 0.0
C494 C 0.94646 0.96796 0.27662 0.0
C495 C 0.95587 0.97593 0.28608 0.0
C496 C 0.96572 0.9717 0.30759 0.0
H497 H 0.97837 0.04305 0.18519 0.0
H498 H 0.97591 0.02228 0.20804 0.0
C499 C 0.96646 0.95952 0.31796 0.0
C500 C 0.95578 0.98859 0.27234 0.0
H501 H 0.95741 0.00576 0.19119 0.0
C502 C 0.95592 -0.00203 0.29946 0.0
C503 C 0.95636 0.99139 0.23282 0.0
C504 C 0.95675 0.98164 0.20251 0.0
C505 C 0.95671 0.01013 0.28809 0.0
C506 C 0.95721 0.01292 0.24856 0.0
C507 C 0.95696 0.00355 0.22146 0.0
C508 C 0.95852 0.0255 0.23471 0.0
C509 C 0.95741 0.01984 0.31844 0.0
C510 C 0.94947 0.03412 0.24179 0.0
C511 C 0.95085 0.04601 0.22887 0.0
C512 C 0.96128 0.04945 0.20842 0.0
C513 C 0.97024 0.04072 0.20091 0.0
C514 C 0.96885 0.02885 0.2139 0.0
H515 H 0.95966 0.01604 0.34706 0.0
H516 H 0.96431 0.02674 0.31084 0.0
H517 H 0.9485 0.02446 0.32064 0.0
H518 H 0.94132 0.03165 0.25718 0.0
H519 H 0.94373 0.05249 0.23494 0.0
H520 H 0.19637 0.69412 0.47551 0.0
H521 H 0.21758 0.69381 0.49534 0.0
H522 H 0.22356 0.72782 0.4378 0.0
H523 H 0.20237 0.72822 0.4175 0.0
H524 H 0.24149 0.70975 0.42342 0.0
H525 H 0.23233 0.71599 0.5789 0.0
H526 H 0.2243 0.70375 0.55646 0.0
H527 H 0.22113 0.71908 0.54248 0.0
C528 C 0.20218 0.70154 0.46698 0.0
C529 C 0.19764 0.71123 0.44505 0.0
C530 C 0.21428 0.70136 0.47852 0.0
C531 C 0.22205 0.71087 0.46847 0.0
C532 C 0.21765 0.72043 0.44597 0.0
H533 H 0.29188 0.73083 0.55843 0.0
H534 H 0.27063 0.72955 0.53946 0.0
C535 C 0.20554 0.72064 0.43445 0.0
C536 C 0.23481 0.71085 0.48127 0.0
H537 H 0.25267 0.71227 0.56096 0.0
C538 C 0.24396 0.71028 0.45346 0.0
C539 C 0.23794 0.71166 0.52048 0.0
C540 C 0.22844 0.71276 0.55138 0.0
C541 C 0.25623 0.71044 0.46387 0.0
C542 C 0.25936 0.71105 0.50312 0.0
C543 C 0.2502 0.71169 0.53092 0.0
C544 C 0.27212 0.71151 0.51579 0.0
C545 C 0.26574 0.71022 0.4328 0.0
C546 C 0.2799 0.70167 0.50939 0.0
C547 C 0.29206 0.70236 0.5202 0.0
C548 C 0.29663 0.7129 0.53769 0.0
C549 C 0.28869 0.72261 0.54489 0.0
C550 C 0.27654 0.7219 0.53413 0.0
H551 H 0.26186 0.71236 0.40421 0.0
H552 H 0.27308 0.71678 0.43915 0.0
H553 H 0.26982 0.70104 0.43137 0.0
H554 H 0.27658 0.6935 0.49582 0.0
H555 H 0.29791 0.69469 0.5144 0.0
H556 H 0.5058 0.04152 0.81474 0.0
H557 H 0.50567 0.02009 0.79669 0.0
H558 H 0.54441 0.02097 0.78176 0.0
H559 H 0.54468 0.04237 0.7996 0.0
H560 H 0.51561 0.01132 0.72242 0.0
H561 H 0.53712 0.99041 0.85047 0.0
H562 H 0.52974 0.00502 0.85204 0.0
H563 H 0.54452 0.00357 0.83113 0.0
C564 C 0.51432 0.03712 0.80816 0.0
C565 C 0.52525 0.04366 0.80855 0.0
C566 C 0.51421 0.0249 0.79777 0.0
C567 C 0.52503 0.01899 0.78818 0.0
C568 C 0.53599 0.02537 0.78951 0.0
H569 H 0.54647 0.94826 0.70938 0.0
H570 H 0.54531 0.96915 0.73201 0.0
C571 C 0.53611 0.03761 0.79958 0.0
C572 C 0.52483 0.00635 0.77443 0.0
H573 H 0.53434 0.9778 0.79626 0.0
C574 C 0.51961 0.00394 0.7386 0.0
C575 C 0.53015 -0.00315 0.79561 0.0
C576 C 0.53564 -0.00099 0.8346 0.0
C577 C 0.51984 0.99226 0.72283 0.0
C578 C 0.52517 0.98272 0.74401 0.0
C579 C 0.53027 0.98514 0.78008 0.0
C580 C 0.52576 0.97018 0.72906 0.0
C581 C 0.51475 0.99034 0.68314 0.0
C582 C 0.51515 0.96382 0.71994 0.0
C583 C 0.51578 0.9519 0.70661 0.0
C584 C 0.52705 0.94608 0.70275 0.0
C585 C 0.53765 0.95248 0.71203 0.0
C586 C 0.53701 0.96441 0.72503 0.0
H587 H 0.51412 -0.00102 0.66693 0.0
H588 H 0.5204 0.98389 0.66649 0.0
H589 H 0.50549 0.98654 0.6855 0.0
H590 H 0.50635 0.96801 0.72368 0.0
H591 H 0.50744 0.94719 0.70009 0.0
H592 H 0.69642 0.69808 0.01302 0.0
H593 H 0.71771 0.69763 -0.00595 0.0
H594 H 0.72248 0.73379 0.03809 0.0
H595 H 0.70119 0.73435 0.05741 0.0
H596 H 0.72928 0.71419 0.94274 0.0
H597 H 0.75032 0.71381 0.08748 0.0
H598 H 0.73464 0.70991 0.0795 0.0
H599 H 0.73926 0.7255 0.07959 0.0
C600 C 0.702 0.70592 0.01899 0.0
C601 C 0.69709 0.71625 0.03682 0.0
C602 C 0.71415 0.70564 0.00804 0.0
C603 C 0.72165 0.71563 0.015 0.0
C604 C 0.71685 0.72593 0.033 0.0
H605 H 0.79109 0.7327 0.9127 0.0
H606 H 0.76986 0.73239 0.93267 0.0
C607 C 0.70467 0.72624 0.04386 0.0
C608 C 0.7344 0.7154 0.00217 0.0
H609 H 0.76355 0.71621 0.03448 0.0
C610 C 0.73679 0.71461 0.96274 0.0
C611 C 0.74413 0.71583 0.02845 0.0
C612 C 0.74202 0.71621 0.07116 0.0
C613 C 0.7487 0.71441 0.9488 0.0
C614 C 0.75842 0.71514 0.97503 0.0
C615 C 0.75604 0.71575 0.01449 0.0
C616 C 0.77117 0.7152 0.9621 0.0
C617 C 0.75081 0.71327 0.90622 0.0
C618 C 0.77892 0.70569 0.97242 0.0
C619 C 0.79105 0.70583 0.9611 0.0
C620 C 0.79566 0.71556 0.93951 0.0
C621 C 0.78783 0.72506 0.92918 0.0
C622 C 0.77569 0.72488 0.94043 0.0
H623 H 0.74258 0.71009 0.89094 0.0
H624 H 0.75333 0.72226 0.89444 0.0
H625 H 0.75835 0.70689 0.90018 0.0
H626 H 0.77558 0.69816 0.98927 0.0
H627 H 0.79683 0.69838 0.96966 0.0
H628 H 0.01724 0.95382 0.82536 0.0
H629 H 0.01864 0.97446 0.80039 0.0
H630 H 0.04184 0.9619 0.70906 0.0
H631 H 0.04098 0.94139 0.73504 0.0
H632 H 0.04988 0.98235 0.7343 0.0
H633 H 0.00063 0.98737 0.71073 0.0
H634 H 0.00393 0.98427 0.76004 0.0
H635 H 0.0074 0.97311 0.72392 0.0
C636 C 0.02268 0.95549 0.80007 0.0
C637 C 0.02895 0.94599 0.78203 0.0
C638 C 0.02338 0.96726 0.78559 0.0
C639 C 0.03006 0.96968 0.75217 0.0
C640 C 0.03656 0.96025 0.73471 0.0
H641 H 0.01885 0.03776 0.62966 0.0
H642 H 0.01981 0.01624 0.64633 0.0
C643 C 0.03607 0.94853 0.74963 0.0
C644 C 0.03037 0.98205 0.73554 0.0
H645 H 0.01237 0.00552 0.70733 0.0
C646 C 0.04167 0.98737 0.72806 0.0
C647 C 0.01967 0.98851 0.72644 0.0
C648 C 0.00724 0.98296 0.73029 0.0
C649 C 0.04257 -0.00092 0.71278 0.0
C650 C 0.03188 0.00586 0.70626 0.0
C651 C 0.02058 0.00041 0.71273 0.0
C652 C 0.03214 0.01873 0.69397 0.0
C653 C 0.05499 0.00394 0.70326 0.0
C654 C 0.03878 0.02728 0.71501 0.0
C655 C 0.03846 0.0395 0.705 0.0
C656 C 0.03119 0.04349 0.67442 0.0
C657 C 0.02453 0.03494 0.65334 0.0
C658 C 0.02506 0.02266 0.66289 0.0
H659 H 0.06139 -0.00352 0.69643 0.0
H660 H 0.0547 0.01026 0.67853 0.0
H661 H 0.05864 0.00885 0.7285 0.0
H662 H 0.04397 0.02457 0.73991 0.0
H663 H 0.04355 0.04589 0.72219 0.0
H664 H 0.6968 0.29782 0.45675 0.0
H665 H 0.71789 0.30025 0.47647 0.0
H666 H 0.72692 0.26619 0.42309 0.0
H667 H 0.7059 0.26371 0.40285 0.0
H668 H 0.73039 0.28454 0.52437 0.0
H669 H 0.75349 0.28887 0.38393 0.0
H670 H 0.73735 0.29083 0.38951 0.0
H671 H 0.74378 0.27588 0.38707 0.0
C672 C 0.7033 0.29092 0.4487 0.0
C673 C 0.69966 0.28056 0.42823 0.0
C674 C 0.71534 0.29233 0.46005 0.0
C675 C 0.72397 0.28346 0.4509 0.0
C676 C 0.72043 0.27325 0.4298 0.0
H677 H 0.79099 0.2651 0.56195 0.0
H678 H 0.77006 0.26664 0.53967 0.0
C679 C 0.7084 0.27182 0.41843 0.0
C680 C 0.73647 0.28446 0.46568 0.0
H681 H 0.7661 0.2847 0.43804 0.0
C682 C 0.73821 0.2847 0.50553 0.0
C683 C 0.74661 0.2848 0.441 0.0
C684 C 0.74525 0.2852 0.39799 0.0
C685 C 0.74987 0.28487 0.5214 0.0
C686 C 0.76002 0.2846 0.49672 0.0
C687 C 0.75828 0.28477 0.45688 0.0
C688 C 0.77253 0.28393 0.51161 0.0
C689 C 0.75123 0.28535 0.56441 0.0
C690 C 0.78087 0.29307 0.50276 0.0
C691 C 0.79284 0.2922 0.51525 0.0
C692 C 0.79672 0.28211 0.53664 0.0
C693 C 0.78829 0.27301 0.54571 0.0
C694 C 0.77631 0.2739 0.53317 0.0
H695 H 0.74289 0.28883 0.57847 0.0
H696 H 0.75295 0.27608 0.57541 0.0
H697 H 0.75898 0.29118 0.57281 0.0
H698 H 0.77811 0.30086 0.48599 0.0
H699 H 0.79909 0.29937 0.5077 0.0
H700 H 0.47614 0.95312 0.15608 0.0
H701 H 0.47537 0.97432 0.1764 0.0
H702 H 0.44924 0.96509 0.26364 0.0
H703 H 0.44949 0.94406 0.24207 0.0
H704 H 0.44292 0.98518 0.2317 0.0
H705 H 0.49162 0.98853 0.26723 0.0
H706 H 0.48937 0.98452 0.21799 0.0
H707 H 0.48453 0.97433 0.25532 0.0
C708 C 0.47023 0.95564 0.17955 0.0
C709 C 0.46292 0.94695 0.19762 0.0
C710 C 0.46987 0.96773 0.19137 0.0
C711 C 0.46248 0.97126 0.22223 0.0
C712 C 0.45505 0.96259 0.23989 0.0
H713 H 0.47338 0.03963 0.34096 0.0
H714 H 0.47208 0.01821 0.32364 0.0
C715 C 0.4552 0.95057 0.22754 0.0
C716 C 0.46235 0.98398 0.23593 0.0
H717 H 0.48063 0.00711 0.26505 0.0
C718 C 0.45116 0.98994 0.23928 0.0
C719 C 0.47308 0.99014 0.24661 0.0
C720 C 0.4853 0.984 0.24702 0.0
C721 C 0.4504 0.00192 0.25247 0.0
C722 C 0.46119 0.0083 0.26101 0.0
C723 C 0.47236 0.00228 0.25814 0.0
C724 C 0.46118 0.02121 0.2729 0.0
C725 C 0.43802 0.00746 0.25797 0.0
C726 C 0.45543 0.03004 0.25032 0.0
C727 C 0.45592 0.04225 0.26074 0.0
C728 C 0.46248 0.04588 0.29324 0.0
C729 C 0.46828 0.03707 0.31572 0.0
C730 C 0.46755 0.02484 0.3058 0.0
H731 H 0.43106 0.00039 0.26318 0.0
H732 H 0.4379 0.0139 0.2824 0.0
H733 H 0.4354 0.0124 0.23155 0.0
H734 H 0.45081 0.02755 0.22413 0.0
H735 H 0.45152 0.04887 0.24257 0.0
H736 H 0.69941 0.79541 0.50353 0.0
H737 H 0.7205 0.79416 0.48298 0.0
H738 H 0.723 0.75798 0.52875 0.0
H739 H 0.70187 0.75913 0.54971 0.0
H740 H 0.74258 0.77366 0.54882 0.0
H741 H 0.73333 0.77355 0.39236 0.0
H742 H 0.72619 0.78567 0.41832 0.0
H743 H 0.72181 0.77028 0.42764 0.0
C744 C 0.70441 0.78717 0.50928 0.0
C745 C 0.69892 0.77734 0.52815 0.0
C746 C 0.71645 0.78646 0.4973 0.0
C747 C 0.72321 0.77591 0.50384 0.0
C748 C 0.71787 0.76617 0.52324 0.0
H749 H 0.79361 0.759 0.40469 0.0
H750 H 0.77236 0.75854 0.42461 0.0
C751 C 0.7058 0.76685 0.53517 0.0
C752 C 0.73594 0.77518 0.49101 0.0
H753 H 0.75385 0.77619 0.41133 0.0
C754 C 0.74506 0.77414 0.51878 0.0
C755 C 0.73909 0.77567 0.45175 0.0
C756 C 0.7296 0.77624 0.4207 0.0
C757 C 0.75732 0.77391 0.50834 0.0
C758 C 0.76049 0.77487 0.46919 0.0
C759 C 0.75136 0.77557 0.44135 0.0
C760 C 0.77326 0.77529 0.45662 0.0
C761 C 0.76679 0.77259 0.53924 0.0
C762 C 0.78069 0.78499 0.46744 0.0
C763 C 0.7928 0.78532 0.45607 0.0
C764 C 0.7977 0.77594 0.43355 0.0
C765 C 0.79014 0.76635 0.42211 0.0
C766 C 0.77801 0.76606 0.43344 0.0
H767 H 0.76287 0.76901 0.56629 0.0
H768 H 0.77419 0.76647 0.5298 0.0
H769 H 0.77079 0.7816 0.54544 0.0
H770 H 0.77711 0.79231 0.48476 0.0
H771 H 0.79834 0.79287 0.46528 0.0
H772 H 0.47969 0.4497 0.80569 0.0
H773 H 0.47865 0.47095 0.78631 0.0
H774 H 0.44205 0.46571 0.74664 0.0
H775 H 0.44299 0.44444 0.76564 0.0
H776 H 0.45759 0.47724 0.69323 0.0
H777 H 0.45939 0.49886 0.83689 0.0
H778 H 0.47112 0.48792 0.828 0.0
H779 H 0.4556 0.48309 0.83018 0.0
C780 C 0.47138 0.45307 0.79315 0.0
C781 C 0.46142 0.44536 0.78724 0.0
C782 C 0.47079 0.46523 0.78226 0.0
C783 C 0.46023 0.46989 0.76543 0.0
C784 C 0.45026 0.46227 0.75974 0.0
H785 H 0.44526 0.54585 0.72052 0.0
H786 H 0.44392 0.52464 0.74014 0.0
C787 C 0.45082 0.45012 0.77068 0.0
C788 C 0.45978 0.48259 0.75219 0.0
H789 H 0.46172 0.51184 0.78302 0.0
C790 C 0.45843 0.48482 0.71283 0.0
C791 C 0.46074 0.49242 0.77796 0.0
C792 C 0.46169 0.49051 0.82067 0.0
C793 C 0.4583 0.49667 0.69839 0.0
C794 C 0.45969 0.50648 0.72402 0.0
C795 C 0.46075 0.50426 0.76347 0.0
C796 C 0.46021 0.51914 0.71044 0.0
C797 C 0.45661 0.4986 0.65592 0.0
C798 C 0.46983 0.52302 0.68724 0.0
C799 C 0.47064 0.53513 0.67599 0.0
C800 C 0.46187 0.54357 0.68787 0.0
C801 C 0.45216 0.53959 0.71076 0.0
C802 C 0.45138 0.52749 0.72209 0.0
H803 H 0.45274 0.49047 0.64172 0.0
H804 H 0.45057 0.50646 0.65037 0.0
H805 H 0.46553 0.50052 0.6426 0.0
H806 H 0.47683 0.51673 0.67847 0.0
H807 H 0.47825 0.53789 0.65847 0.0
H808 H 0.70153 0.22336 0.89522 0.0
H809 H 0.72285 0.22325 0.91441 0.0
H810 H 0.71405 0.20049 0.01102 0.0
H811 H 0.6929 0.20008 -0.0091 0.0
H812 H 0.73344 0.23145 0.97555 0.0
H813 H 0.74194 0.18215 0.96882 0.0
H814 H 0.72832 0.1889 0.95002 0.0
H815 H 0.72963 0.1856 0.00045 0.0
C816 C 0.70419 0.21824 0.92032 0.0
C817 C 0.69559 0.21163 0.94135 0.0
C818 C 0.71635 0.21819 0.93129 0.0
C819 C 0.72011 0.21166 0.96374 0.0
C820 C 0.71147 0.20525 0.98516 0.0
H821 H 0.78778 0.22636 0.08387 0.0
H822 H 0.76658 0.2255 0.06358 0.0
C823 C 0.69936 0.20509 0.97377 0.0
C824 C 0.73297 0.21195 0.976 0.0
H825 H 0.7567 0.19396 0.00213 0.0
C826 C 0.73856 0.22325 0.98105 0.0
C827 C 0.73971 0.20124 0.98264 0.0
C828 C 0.73463 0.1888 0.97479 0.0
C829 C 0.75066 0.22416 -0.00706 0.0
C830 C 0.7572 0.21347 0.00155 0.0
C831 C 0.75164 0.20216 -0.00392 0.0
C832 C 0.76994 0.21374 0.01499 0.0
C833 C 0.75635 0.23656 -0.00491 0.0
C834 C 0.77879 0.20697 -0.0044 0.0
C835 C 0.79081 0.20716 0.00782 0.0
C836 C 0.79426 0.21426 0.03942 0.0
C837 C 0.78539 0.22092 0.05916 0.0
C838 C 0.7733 0.22052 0.04737 0.0
H839 H 0.75155 0.24315 0.97642 0.0
H840 H 0.75578 0.23996 0.02497 0.0
H841 H 0.76603 0.2363 0.98647 0.0
H842 H 0.77642 0.20163 0.97064 0.0
H843 H 0.79745 0.20196 -0.00807 0.0
H844 H 0.0099 0.4506 0.18891 0.0
H845 H 0.00967 0.47178 0.20956 0.0
H846 H 0.04568 0.4678 0.25556 0.0
H847 H 0.04603 0.44662 0.23514 0.0
H848 H 0.02781 0.47939 0.30578 0.0
H849 H 0.0303 0.49951 0.15977 0.0
H850 H 0.01884 0.48818 0.16701 0.0
H851 H 0.03453 0.48401 0.16948 0.0
C852 C 0.01778 0.45422 0.20336 0.0
C853 C 0.02801 0.44692 0.21024 0.0
C854 C 0.01764 0.46633 0.21502 0.0
C855 C 0.02769 0.47133 0.23375 0.0
C856 C 0.03785 0.46407 0.24103 0.0
H857 H 0.04608 0.54594 0.27652 0.0
H858 H 0.04583 0.52447 0.25981 0.0
C859 C 0.03804 0.45199 0.22923 0.0
C860 C 0.02762 0.48413 0.24594 0.0
H861 H 0.02772 0.51305 0.21161 0.0
C862 C 0.02777 0.48677 0.28528 0.0
C863 C 0.02768 0.49368 0.21898 0.0
C864 C 0.02792 0.49128 0.17641 0.0
C865 C 0.02789 0.49878 0.29843 0.0
C866 C 0.02778 0.50832 0.27147 0.0
C867 C 0.02772 0.50568 0.23213 0.0
C868 C 0.02803 0.52115 0.2834 0.0
C869 C 0.02833 0.5012 0.34096 0.0
C870 C 0.01809 0.52635 0.30227 0.0
C871 C 0.01817 0.53865 0.31181 0.0
C872 C 0.0282 0.54593 0.3026 0.0
C873 C 0.03821 0.5406 0.28414 0.0
C874 C 0.03809 0.52834 0.27448 0.0
H875 H 0.03069 0.49294 0.35754 0.0
H876 H 0.03505 0.50839 0.34754 0.0
H877 H 0.01932 0.50442 0.35073 0.0
H878 H 0.01018 0.52095 0.30895 0.0
H879 H 0.01031 0.54247 0.32593 0.0
H880 H 0.28865 0.22862 0.4095 0.0
H881 H 0.2674 0.22803 0.4291 0.0
H882 H 0.27362 0.19424 0.48776 0.0
H883 H 0.29492 0.19474 0.46855 0.0
H884 H 0.24946 0.20966 0.41591 0.0
H885 H 0.25907 0.21713 0.57064 0.0
H886 H 0.27011 0.22008 0.53361 0.0
H887 H 0.26711 0.20481 0.5485 0.0
C888 C 0.28551 0.22102 0.42643 0.0
C889 C 0.29351 0.21177 0.43767 0.0
C890 C 0.27337 0.22071 0.43756 0.0
C891 C 0.26903 0.21119 0.46029 0.0
C892 C 0.27687 0.20176 0.47071 0.0
H893 H 0.19356 0.19533 0.51114 0.0
H894 H 0.21477 0.19417 0.4915 0.0
C895 C 0.28902 0.20204 0.45952 0.0
C896 C 0.25631 0.21124 0.47344 0.0
H897 H 0.23866 0.21361 0.55346 0.0
C898 C 0.24707 0.21049 0.44596 0.0
C899 C 0.25329 0.21247 0.51265 0.0
C900 C 0.26289 0.21377 0.54314 0.0
C901 C 0.23484 0.21085 0.45671 0.0
C902 C 0.23182 0.2119 0.49597 0.0
C903 C 0.24105 0.21272 0.52343 0.0
C904 C 0.2191 0.21245 0.50898 0.0
C905 C 0.22523 0.21037 0.42599 0.0
C906 C 0.21462 0.22302 0.52619 0.0
C907 C 0.20251 0.22373 0.53754 0.0
C908 C 0.19468 0.21383 0.53209 0.0
C909 C 0.19931 0.20315 0.51561 0.0
C910 C 0.21141 0.20247 0.5042 0.0
H911 H 0.22903 0.21217 0.39705 0.0
H912 H 0.22108 0.20122 0.42569 0.0
H913 H 0.21795 0.21706 0.43186 0.0
H914 H 0.22046 0.2308 0.53026 0.0
H915 H 0.19926 0.23207 0.55025 0.0
H916 H 0.55361 0.44645 0.26477 0.0
H917 H 0.55764 0.46715 0.24326 0.0
H918 H 0.52325 0.47868 0.28913 0.0
H919 H 0.51916 0.45811 0.31098 0.0
H920 H 0.54334 0.48003 0.19109 0.0
H921 H 0.54686 0.50436 0.32945 0.0
H922 H 0.54818 0.48809 0.32574 0.0
H923 H 0.5335 0.49517 0.32622 0.0
C924 C 0.54698 0.45342 0.27082 0.0
C925 C 0.53605 0.45062 0.28958 0.0
C926 C 0.5493 0.46523 0.25844 0.0
C927 C 0.5408 0.47444 0.26501 0.0
C928 C 0.53002 0.47174 0.28445 0.0
H929 H 0.52099 0.53895 0.15041 0.0
H930 H 0.52473 0.51815 0.17087 0.0
C931 C 0.52767 0.45995 0.29672 0.0
C932 C 0.5427 0.48669 0.24913 0.0
H933 H 0.5427 0.51654 0.27393 0.0
C934 C 0.5434 0.48802 0.20918 0.0
C935 C 0.54296 0.49706 0.27282 0.0
C936 C 0.54296 0.49612 0.31596 0.0
C937 C 0.54368 0.49952 0.19219 0.0
C938 C 0.54305 0.5099 0.21582 0.0
C939 C 0.54305 0.50856 0.25583 0.0
C940 C 0.54158 0.52221 0.19984 0.0
C941 C 0.54446 0.50046 0.14912 0.0
C942 C 0.54979 0.5314 0.20947 0.0
C943 C 0.54763 0.54332 0.19807 0.0
C944 C 0.53716 0.54629 0.17706 0.0
C945 C 0.52915 0.53698 0.16645 0.0
C946 C 0.53132 0.52506 0.1779 0.0
H947 H 0.54868 0.49224 0.13644 0.0
H948 H 0.53519 0.50131 0.13715 0.0
H949 H 0.54976 0.50852 0.14025 0.0
H950 H 0.55773 0.52938 0.22656 0.0
H951 H 0.554 0.55026 0.20668 0.0
H952 H 0.28659 0.76128 0.07687 0.0
H953 H 0.26554 0.76239 0.05543 0.0
H954 H 0.272 0.79793 0.00868 0.0
H955 H 0.29308 0.79693 0.02975 0.0
H956 H 0.24681 0.78009 0.0702 0.0
H957 H 0.25995 0.77714 0.91653 0.0
H958 H 0.27022 0.77333 0.95496 0.0
H959 H 0.26722 0.78891 0.94371 0.0
C960 C 0.28352 0.7694 0.0624 0.0
C961 C 0.29156 0.77896 0.05469 0.0
C962 C 0.27149 0.77 0.05019 0.0
C963 C 0.26733 0.78014 0.02994 0.0
C964 C 0.27514 0.78994 0.02373 0.0
H965 H 0.19284 0.79629 0.96833 0.0
H966 H 0.21365 0.79724 -0.00825 0.0
C967 C 0.28716 0.78937 0.03598 0.0
C968 C 0.25493 0.78025 0.01413 0.0
H969 H 0.23915 0.7799 0.93 0.0
C970 C 0.2451 0.78008 0.03958 0.0
C971 C 0.25281 0.78008 0.97415 0.0
C972 C 0.26308 0.77978 0.94563 0.0
C973 C 0.23315 0.77984 0.02605 0.0
C974 C 0.23103 0.77988 0.98607 0.0
C975 C 0.24085 0.77996 0.96062 0.0
C976 C 0.21865 0.77957 0.97014 0.0
C977 C 0.22288 0.7793 0.05455 0.0
C978 C 0.21472 0.76948 0.94916 0.0
C979 C 0.20284 0.7689 0.93558 0.0
C980 C 0.19471 0.77846 0.94261 0.0
C981 C 0.19883 0.78874 0.96257 0.0
C982 C 0.2107 0.78929 0.97617 0.0
H983 H 0.22607 0.77669 0.08361 0.0
H984 H 0.21856 0.78835 0.05661 0.0
H985 H 0.21588 0.77273 0.04513 0.0
H986 H 0.22079 0.76193 0.94405 0.0
H987 H 0.19997 0.76087 0.92023 0.0
H988 H 0.94657 0.44803 0.71011 0.0
H989 H 0.94604 0.46944 0.72757 0.0
H990 H 0.98257 0.4738 0.68624 0.0
H991 H 0.98322 0.45237 0.66847 0.0
H992 H 0.96236 0.48103 0.77975 0.0
H993 H 0.96313 0.50165 0.63441 0.0
H994 H 0.959 0.48604 0.64258 0.0
H995 H 0.97464 0.49048 0.64346 0.0
C996 C 0.95447 0.45354 0.70437 0.0
C997 C 0.96494 0.44848 0.68785 0.0
C998 C 0.95414 0.46577 0.71444 0.0
C999 C 0.96422 0.47318 0.70787 0.0
C1000 C 0.97464 0.46824 0.69101 0.0
H1001 H 0.98162 0.54252 0.80917 0.0
H1002 H 0.98117 0.52134 0.78872 0.0
C1003 C 0.975 0.45598 0.68103 0.0
C1004 C 0.96399 0.48597 0.72027 0.0
H1005 H 0.96527 0.51502 0.68723 0.0
C1006 C 0.96296 0.48848 0.75957 0.0
C1007 C 0.96467 0.49562 0.69375 0.0
C1008 C 0.96532 0.49338 0.65114 0.0
C1009 C 0.9628 0.50042 0.77316 0.0
C1010 C 0.96379 0.51006 0.74672 0.0
C1011 C 0.9646 0.50757 0.70737 0.0
C1012 C 0.96398 0.52282 0.75941 0.0
C1013 C 0.96145 0.50267 0.81561 0.0
C1014 C 0.95452 0.53065 0.74926 0.0
C1015 C 0.95472 0.54275 0.76091 0.0
C1016 C 0.96447 0.54724 0.78262 0.0
C1017 C 0.97396 0.53935 0.79258 0.0
C1018 C 0.97371 0.52724 0.78105 0.0
H1019 H 0.95817 0.49449 0.83099 0.0
H1020 H 0.97038 0.50521 0.82777 0.0
H1021 H 0.95506 0.51025 0.82107 0.0
H1022 H 0.94695 0.52738 0.73242 0.0
H1023 H 0.94728 0.54859 0.75261 0.0
H1024 H 0.15038 0.28302 0.92648 0.0
H1025 H 0.14596 0.2763 0.86094 0.0
H1026 H 0.13918 0.24016 0.90258 0.0
H1027 H 0.1434 0.24674 0.96768 0.0
H1028 H 0.15974 0.25891 0.82549 0.0
H1029 H 0.11177 0.24471 0.82635 0.0
H1030 H 0.11808 0.25457 0.86256 0.0
H1031 H 0.11993 0.2384 0.86606 0.0
C1032 C 0.14767 0.27371 0.92171 0.0
C1033 C 0.14735 0.26538 0.95215 0.0
C1034 C 0.14514 0.26991 0.88434 0.0
C1035 C 0.1421 0.25778 0.87708 0.0
C1036 C 0.14123 0.24962 0.90767 0.0
H1037 H 0.1605 0.20968 0.69694 0.0
H1038 H 0.15801 0.22147 0.75588 0.0
C1039 C 0.14379 0.25338 0.94485 0.0
C1040 C 0.14149 0.25312 0.8375 0.0
H1041 H 0.12463 0.23508 0.77884 0.0
C1042 C 0.15197 0.25391 0.81492 0.0
C1043 C 0.13133 0.24669 0.82372 0.0
C1044 C 0.1196 0.24615 0.84583 0.0
C1045 C 0.15282 0.24781 0.77986 0.0
C1046 C 0.14299 0.24061 0.76755 0.0
C1047 C 0.13223 0.24042 0.78889 0.0
C1048 C 0.14388 0.23299 0.733 0.0
C1049 C 0.16429 0.24893 0.75665 0.0
C1050 C 0.13643 0.2353 0.70141 0.0
C1051 C 0.13779 0.22857 0.66787 0.0
C1052 C 0.14659 0.21938 0.66555 0.0
C1053 C 0.1537 0.21675 0.69784 0.0
C1054 C 0.15234 0.22351 0.73137 0.0
H1055 H 0.16952 0.25714 0.76466 0.0
H1056 H 0.17011 0.24091 0.76207 0.0
H1057 H 0.16227 0.24928 0.72549 0.0
H1058 H 0.12979 0.24252 0.70237 0.0
H1059 H 0.13212 0.23075 0.64349 0.0
H1060 H 0.03829 0.90827 0.95081 0.0
H1061 H 0.02876 0.90569 0.0138 0.0
H1062 H 0.00119 0.88317 0.96312 0.0
H1063 H 0.01061 0.88561 0.90034 0.0
H1064 H 0.99322 0.90468 0.00651 0.0
H1065 H 0.02524 0.87494 0.08575 0.0
H1066 H 0.03186 0.88728 0.05938 0.0
H1067 H 0.02443 0.87526 0.034 0.0
C1068 C 0.03031 0.90262 0.95324 0.0
C1069 C 0.02513 0.89723 0.92069 0.0
C1070 C 0.02493 0.90111 0.98916 0.0
C1071 C 0.01434 0.89419 -0.00715 0.0
C1072 C 0.00939 0.88849 0.96067 0.0
H1073 H 0.96369 0.89392 0.18751 0.0
H1074 H 0.97258 0.88945 0.12463 0.0
C1075 C 0.01478 0.88993 0.92489 0.0
C1076 C 0.00776 0.89391 0.02948 0.0
H1077 H 0.00985 0.88459 0.12226 0.0
C1078 C -0.00326 0.90018 0.03182 0.0
C1079 C 0.01245 0.888 0.06207 0.0
C1080 C 0.02411 0.8809 0.06035 0.0
C1081 C 0.99053 0.90122 0.06665 0.0
C1082 C 0.99535 0.89554 0.09962 0.0
C1083 C 0.00617 0.88889 0.09686 0.0
C1084 C 0.99 0.8974 0.13794 0.0
C1085 C 0.97922 0.90891 0.06821 0.0
C1086 C -0.00303 0.90299 0.16641 0.0
C1087 C 0.99201 0.90539 0.20225 0.0
C1088 C 0.97992 0.9023 0.21032 0.0
C1089 C 0.97298 0.89651 0.18196 0.0
C1090 C 0.97803 0.89399 0.14607 0.0
H1091 H 0.97827 0.91473 0.04242 0.0
H1092 H 0.97117 0.90293 0.06973 0.0
H1093 H 0.97924 0.9148 0.09401 0.0
H1094 H 0.00623 0.90571 0.16066 0.0
H1095 H -0.00238 0.90986 0.22341 0.0
H1096 H 0.35177 0.70986 0.4276 0.0
H1097 H 0.35754 0.7161 0.36264 0.0
H1098 H 0.35748 0.75348 0.39871 0.0
H1099 H 0.35203 0.74741 0.46314 0.0
H1100 H 0.34302 0.72981 0.31946 0.0
H1101 H 0.38688 0.75318 0.3314 0.0
H1102 H 0.38136 0.74311 0.36828 0.0
H1103 H 0.37674 0.75878 0.36735 0.0
C1104 C 0.35328 0.71938 0.42181 0.0
C1105 C 0.35131 0.72815 0.45037 0.0
C1106 C 0.35661 0.72291 0.38479 0.0
C1107 C 0.35815 0.73523 0.37605 0.0
C1108 C 0.3567 0.7439 0.40501 0.0
H1109 H 0.33776 0.78381 0.20746 0.0
H1110 H 0.34382 0.7722 0.26421 0.0
C1111 C 0.35339 0.74041 0.4418 0.0
C1112 C 0.35922 0.73936 0.33596 0.0
H1113 H 0.37314 0.76089 0.28137 0.0
C1114 C 0.34983 0.7363 0.31066 0.0
C1115 C 0.36813 0.74782 0.32448 0.0
C1116 C 0.37891 0.75079 0.34928 0.0
C1117 C 0.34854 0.74227 0.27554 0.0
C1118 C 0.3568 0.75149 0.26579 0.0
C1119 C 0.36672 0.75392 0.28953 0.0
C1120 C 0.35459 0.75927 0.23242 0.0
C1121 C 0.33794 0.73923 0.24998 0.0
C1122 C 0.3589 0.75588 0.19631 0.0
C1123 C 0.35545 0.76244 0.16399 0.0
C1124 C 0.34761 0.77245 0.16744 0.0
C1125 C 0.34376 0.77613 0.20397 0.0
C1126 C 0.34723 0.76954 0.23631 0.0
H1127 H 0.3328 0.73125 0.26047 0.0
H1128 H 0.33171 0.74711 0.24851 0.0
H1129 H 0.34117 0.73735 0.22042 0.0
H1130 H 0.36457 0.74794 0.19303 0.0
H1131 H 0.35863 0.75944 0.13618 0.0
H1132 H 0.53081 0.09222 0.68167 0.0
H1133 H 0.52423 0.09636 0.61577 0.0
H1134 H 0.48814 0.10395 0.65661 0.0
H1135 H 0.49457 0.10002 0.72197 0.0
H1136 H 0.50656 0.0828 0.58054 0.0
H1137 H 0.4934 0.13108 0.57978 0.0
H1138 H 0.50311 0.12467 0.6162 0.0
H1139 H 0.4869 0.12321 0.61977 0.0
C1140 C 0.52154 0.09503 0.67661 0.0
C1141 C 0.51318 0.09569 0.70691 0.0
C1142 C 0.51782 0.0974 0.63905 0.0
C1143 C 0.50575 0.10062 0.63151 0.0
C1144 C 0.49755 0.10176 0.66192 0.0
H1145 H 0.45773 0.08258 0.45069 0.0
H1146 H 0.46911 0.08523 0.51039 0.0
C1147 C 0.50123 0.09935 0.69925 0.0
C1148 C 0.50116 0.10121 0.5919 0.0
H1149 H 0.48347 0.11828 0.53274 0.0
C1150 C 0.50173 0.09064 0.56971 0.0
C1151 C 0.49494 0.11148 0.57782 0.0
C1152 C 0.49466 0.12329 0.59952 0.0
C1153 C 0.4956 0.08981 0.53472 0.0
C1154 C 0.4886 0.09976 0.52212 0.0
C1155 C 0.48865 0.11059 0.54306 0.0
C1156 C 0.48107 0.09896 0.48743 0.0
C1157 C 0.49648 0.07824 0.51186 0.0
C1158 C 0.48374 0.10618 0.45561 0.0
C1159 C 0.47726 0.10473 0.42168 0.0
C1160 C 0.46797 0.09605 0.41918 0.0
C1161 C 0.46489 0.08926 0.45176 0.0
C1162 C 0.47141 0.09072 0.48571 0.0
H1163 H 0.50454 0.07282 0.5202 0.0
H1164 H 0.4883 0.07266 0.51723 0.0
H1165 H 0.49697 0.08017 0.48066 0.0
H1166 H 0.49111 0.11265 0.45665 0.0
H1167 H 0.47976 0.11016 0.39708 0.0
H1168 H 0.15803 0.78818 0.78061 0.0
H1169 H 0.15487 0.77905 0.71737 0.0
H1170 H 0.12839 0.75471 0.76548 0.0
H1171 H 0.13137 0.76382 0.82847 0.0
H1172 H 0.15936 0.75442 0.70398 0.0
H1173 H 0.11204 0.76669 0.66645 0.0
H1174 H 0.12064 0.77467 0.70253 0.0
H1175 H 0.11392 0.76027 0.7134 0.0
C1176 C 0.15138 0.78103 0.77755 0.0
C1177 C 0.14501 0.77664 0.80949 0.0
C1178 C 0.14958 0.77584 0.74149 0.0
C1179 C 0.14132 0.7663 0.73686 0.0
C1180 C 0.13464 0.76221 0.7684 0.0
H1181 H 0.14647 0.71298 0.55378 0.0
H1182 H 0.14304 0.72229 0.61665 0.0
C1183 C 0.13643 0.76737 0.80442 0.0
C1184 C 0.14065 0.75976 0.70009 0.0
H1185 H 0.1216 0.75183 0.62733 0.0
C1186 C 0.15112 0.75386 0.68714 0.0
C1187 C 0.12986 0.75908 0.67843 0.0
C1188 C 0.11849 0.76559 0.69065 0.0
C1189 C 0.15112 0.74727 0.6529 0.0
C1190 C 0.14029 0.74642 0.63149 0.0
C1191 C 0.12981 0.75235 0.64431 0.0
C1192 C 0.1401 0.74029 0.59399 0.0
C1193 C 0.16279 0.74153 0.6394 0.0
C1194 C 0.13898 0.74726 0.56069 0.0
C1195 C 0.14093 0.74201 0.52493 0.0
C1196 C 0.14399 0.72967 0.52193 0.0
C1197 C 0.14421 0.72251 0.55521 0.0
C1198 C 0.14229 0.72781 0.59109 0.0
H1199 H 0.17076 0.74492 0.6556 0.0
H1200 H 0.16226 0.73158 0.64344 0.0
H1201 H 0.16426 0.74333 0.60843 0.0
H1202 H 0.13726 0.75691 0.56248 0.0
H1203 H 0.14053 0.74774 0.49978 0.0
H1204 H 0.47245 0.88061 0.07766 0.0
H1205 H 0.48339 0.87689 0.01786 0.0
H1206 H 0.47409 0.91277 0.97859 0.0
H1207 H 0.4627 0.91634 0.03769 0.0
H1208 H 0.47178 0.89683 0.92298 0.0
H1209 H 0.51631 0.88997 -0.00684 0.0
H1210 H 0.50498 0.87955 0.00942 0.0
H1211 H 0.50324 0.89549 0.01877 0.0
C1212 C 0.47268 0.88766 0.05609 0.0
C1213 C 0.46682 0.89879 0.06228 0.0
C1214 C 0.47902 0.88557 0.02216 0.0
C1215 C 0.47984 0.89468 -0.00569 0.0
C1216 C 0.47365 0.90566 -8e-05 0.0
H1217 H 0.52961 0.90527 0.80933 0.0
H1218 H 0.52031 0.90312 0.8727 0.0
C1219 C 0.46713 0.90768 0.03358 0.0
C1220 C 0.48705 0.89279 0.9591 0.0
H1221 H 0.51543 0.88613 0.92625 0.0
C1222 C 0.48132 0.89448 0.92368 0.0
C1223 C 0.49954 0.88988 0.9602 0.0
C1224 C 0.50642 0.88874 -0.00258 0.0
C1225 C 0.48774 0.89348 0.88923 0.0
C1226 C 0.50014 0.89019 0.89023 0.0
C1227 C 0.50587 0.88843 0.92563 0.0
C1228 C 0.50742 0.88947 0.85476 0.0
C1229 C 0.48125 0.89647 0.8523 0.0
C1230 C 0.50378 0.88194 0.82452 0.0
C1231 C 0.50889 0.88334 0.78827 0.0
C1232 C 0.51799 0.892 0.78218 0.0
C1233 C 0.52262 0.89851 0.81345 0.0
C1234 C 0.51729 0.89731 0.84956 0.0
H1235 H 0.4729 0.90187 0.85747 0.0
H1236 H 0.48719 0.90165 0.83257 0.0
H1237 H 0.47853 0.88795 0.83784 0.0
H1238 H 0.49644 0.87555 0.82833 0.0
H1239 H 0.50528 0.87814 0.76455 0.0
H1240 H 0.35002 0.27684 0.05423 0.0
H1241 H 0.353 0.26821 0.1182 0.0
H1242 H 0.35724 0.2327 0.0684 0.0
H1243 H 0.35445 0.24119 0.00468 0.0
H1244 H 0.3369 0.25125 0.14589 0.0
H1245 H 0.3836 0.233 0.15021 0.0
H1246 H 0.37882 0.24421 0.11563 0.0
H1247 H 0.37546 0.22845 0.10809 0.0
C1248 C 0.3519 0.26725 0.05686 0.0
C1249 C 0.35186 0.25967 0.02448 0.0
C1250 C 0.3536 0.26234 0.09336 0.0
C1251 C 0.35543 0.24985 0.09788 0.0
C1252 C 0.35608 0.2424 0.06546 0.0
H1253 H 0.33141 0.20343 0.28024 0.0
H1254 H 0.33565 0.21319 0.21856 0.0
C1255 C 0.35435 0.24726 0.02907 0.0
C1256 C 0.35487 0.24428 0.13624 0.0
H1257 H 0.36955 0.22474 0.19606 0.0
C1258 C 0.3441 0.24559 0.15714 0.0
C1259 C 0.3643 0.23692 0.15071 0.0
C1260 C 0.37625 0.23564 0.13016 0.0
C1261 C 0.34233 0.2394 0.19164 0.0
C1262 C 0.3515 0.23157 0.20514 0.0
C1263 C 0.36246 0.23059 0.18506 0.0
C1264 C 0.34992 0.22464 0.2408 0.0
C1265 C 0.33065 0.24127 0.21337 0.0
C1266 C 0.35688 0.22756 0.27299 0.0
C1267 C 0.3545 0.22203 0.30805 0.0
C1268 C 0.34514 0.21345 0.31135 0.0
C1269 C 0.33862 0.21006 0.27854 0.0
C1270 C 0.341 0.21564 0.24342 0.0
H1271 H 0.32575 0.24949 0.20359 0.0
H1272 H 0.32466 0.23334 0.20873 0.0
H1273 H 0.33239 0.24207 0.24462 0.0
H1274 H 0.36384 0.23445 0.27132 0.0
H1275 H 0.35975 0.22474 0.33282 0.0
H1276 H 0.01649 0.11165 0.58455 0.0
H1277 H 0.00705 0.11728 0.52376 0.0
H1278 H 0.03003 0.09195 0.46416 0.0
H1279 H 0.03962 0.08621 0.52499 0.0
H1280 H 0.02204 0.12194 0.4366 0.0
H1281 H 0.98848 0.08506 0.46236 0.0
H1282 H 0.99474 0.09374 0.50148 0.0
H1283 H 0.00405 0.083 0.47667 0.0
C1284 C 0.01968 0.10741 0.55846 0.0
C1285 C 0.02868 0.09838 0.5595 0.0
C1286 C 0.01432 0.11068 0.52384 0.0
C1287 C 0.01788 0.105 0.48984 0.0
C1288 C 0.02726 0.09643 0.49036 0.0
H1289 H 0.00218 0.10209 0.25528 0.0
H1290 H 0.01078 0.10658 0.31766 0.0
C1291 C 0.03267 0.09316 0.52502 0.0
C1292 C 0.01091 0.10699 0.45456 0.0
H1293 H 0.98761 0.09507 0.40314 0.0
C1294 C 0.01443 0.11617 0.42924 0.0
C1295 C 0.00089 0.09958 0.44581 0.0
C1296 C -0.00329 0.08978 0.47289 0.0
C1297 C 0.00839 0.11783 0.39425 0.0
C1298 C -0.00122 0.10994 0.38442 0.0
C1299 C 0.99495 0.10113 0.41074 0.0
C1300 C 0.99351 0.10956 0.3455 0.0
C1301 C 0.01243 0.12791 0.36808 0.0
C1302 C 0.9809 0.10976 0.34028 0.0
C1303 C 0.9759 0.10698 0.30455 0.0
C1304 C 0.98345 0.10389 0.27362 0.0
C1305 C 0.99608 0.10438 0.27851 0.0
C1306 C 0.00105 0.1071 0.31414 0.0
H1307 H 0.01632 0.13555 0.38472 0.0
H1308 H 0.01962 0.12446 0.34868 0.0
H1309 H 0.00483 0.13136 0.35035 0.0
H1310 H 0.97493 0.11155 0.36427 0.0
H1311 H 0.96614 0.10672 0.30168 0.0
H1312 H 0.86078 0.74733 -0.00803 0.0
H1313 H 0.86591 0.75697 0.05288 0.0
H1314 H 0.84489 0.73004 0.11305 0.0
H1315 H 0.84038 0.71999 0.05233 0.0
H1316 H 0.85079 0.76767 0.09573 0.0
H1317 H 0.87242 0.73261 0.18465 0.0
H1318 H 0.87033 0.73068 0.13372 0.0
H1319 H 0.85832 0.72697 0.16678 0.0
C1320 C 0.85756 0.7433 0.01839 0.0
C1321 C 0.85019 0.73295 0.01769 0.0
C1322 C 0.86048 0.7488 0.05311 0.0
C1323 C 0.85588 0.74419 0.08764 0.0
C1324 C 0.84887 0.73357 0.08699 0.0
H1325 H 0.82958 0.78343 0.27859 0.0
H1326 H 0.83429 0.77528 0.21525 0.0
C1327 C 0.84621 0.72787 0.05228 0.0
C1328 C 0.85703 0.75132 0.1234 0.0
H1329 H 0.86181 0.74856 0.21942 0.0
C1330 C 0.85347 0.76354 0.12264 0.0
C1331 C 0.86074 0.74608 0.15844 0.0
C1332 C 0.8658 0.7334 0.1608 0.0
C1333 C 0.85286 0.77044 0.15625 0.0
C1334 C 0.85539 0.76482 0.19174 0.0
C1335 C 0.85965 0.75283 0.19227 0.0
C1336 C 0.85295 0.77088 0.22878 0.0
C1337 C 0.84944 0.78364 0.15323 0.0
C1338 C 0.86179 0.77094 0.25764 0.0
C1339 C 0.85899 0.77527 0.29413 0.0
C1340 C 0.84736 0.77974 0.30216 0.0
C1341 C 0.83866 0.78015 0.27293 0.0
C1342 C 0.84138 0.77558 0.23666 0.0
H1343 H 0.85242 0.78751 0.12539 0.0
H1344 H 0.83943 0.78451 0.15459 0.0
H1345 H 0.85347 0.78908 0.17675 0.0
H1346 H 0.87075 0.76733 0.25224 0.0
H1347 H 0.86586 0.7749 0.31627 0.0
H1348 H 0.96027 0.0739 0.04954 0.0
H1349 H 0.96999 0.0744 0.9865 0.0
H1350 H 0.97779 0.11241 0.00158 0.0
H1351 H 0.96872 0.11175 0.06549 0.0
H1352 H 0.9662 0.08582 0.92283 0.0
H1353 H 0.01085 0.10018 0.97866 0.0
H1354 H -0.0014 0.09577 0.00978 0.0
H1355 H -0.00078 0.11087 -0.00965 0.0
C1356 C 0.96399 0.08236 0.03919 0.0
C1357 C 0.9639 0.09276 0.06232 0.0
C1358 C 0.96956 0.08264 0.00329 0.0
C1359 C 0.97494 0.09336 0.98985 0.0
C1360 C 0.97412 0.10393 0.01199 0.0
H1361 H 0.99507 0.10197 0.75115 0.0
H1362 H 0.98564 0.10378 0.81425 0.0
C1363 C 0.96883 0.10359 0.04824 0.0
C1364 C 0.98146 0.09342 0.95282 0.0
H1365 H 0.00836 0.10086 0.91084 0.0
C1366 C 0.97544 0.08905 0.92024 0.0
C1367 C 0.99361 0.09739 0.94965 0.0
C1368 C 0.00098 0.10118 0.98407 0.0
C1369 C 0.98119 0.08864 0.88448 0.0
C1370 C 0.99309 0.09327 0.88089 0.0
C1371 C -0.00084 0.09751 0.91354 0.0
C1372 C -0.00049 0.09348 0.84368 0.0
C1373 C 0.97453 0.08291 0.8513 0.0
C1374 C 0.01088 0.08789 0.83985 0.0
C1375 C 0.01649 0.08723 0.80403 0.0
C1376 C 0.01069 0.09198 0.77158 0.0
C1377 C -0.00038 0.09809 0.77577 0.0
C1378 C 0.99417 0.09902 0.81167 0.0
H1379 H 0.96746 0.07651 0.86139 0.0
H1380 H 0.96994 0.09009 0.83443 0.0
H1381 H 0.98082 0.07793 0.8321 0.0
H1382 H 0.01521 0.08367 0.8643 0.0
H1383 H 0.02502 0.08245 0.80139 0.0
H1384 H 0.64919 0.27318 0.54795 0.0
H1385 H 0.64581 0.26404 0.61114 0.0
H1386 H 0.64701 0.22844 0.56045 0.0
H1387 H 0.65028 0.23738 0.49751 0.0
H1388 H 0.62819 0.23216 0.61744 0.0
H1389 H 0.67442 0.24578 0.66461 0.0
H1390 H 0.66476 0.25762 0.64674 0.0
H1391 H 0.6699 0.24593 0.6149 0.0
C1392 C 0.64858 0.26341 0.55023 0.0
C1393 C 0.65016 0.25599 0.51785 0.0
C1394 C 0.64668 0.25823 0.58627 0.0
C1395 C 0.6463 0.2456 0.59025 0.0
C1396 C 0.6473 0.23822 0.5578 0.0
H1397 H 0.6625 0.19963 0.78152 0.0
H1398 H 0.66044 0.20889 0.7181 0.0
C1399 C 0.64923 0.24336 0.52192 0.0
C1400 C 0.64574 0.2399 0.62834 0.0
H1401 H 0.66267 0.23464 0.70829 0.0
C1402 C 0.63566 0.23276 0.63754 0.0
C1403 C 0.65562 0.2406 0.65395 0.0
C1404 C 0.66685 0.24781 0.64465 0.0
C1405 C 0.63522 0.2262 0.67192 0.0
C1406 C 0.64511 0.22691 0.69748 0.0
C1407 C 0.65514 0.23413 0.68839 0.0
C1408 C 0.6453 0.22028 0.73406 0.0
C1409 C 0.62438 0.21833 0.68026 0.0
C1410 C 0.63733 0.22353 0.76355 0.0
C1411 C 0.6385 0.21829 0.79969 0.0
C1412 C 0.6477 0.20978 0.80687 0.0
C1413 C 0.65535 0.20617 0.7768 0.0
C1414 C 0.65419 0.21145 0.74066 0.0
H1415 H 0.61875 0.21681 0.6543 0.0
H1416 H 0.62727 0.20942 0.69183 0.0
H1417 H 0.61865 0.22281 0.70224 0.0
H1418 H 0.63053 0.23045 0.75902 0.0
H1419 H 0.63245 0.22122 0.82235 0.0
H1420 H 0.46473 0.90561 0.30912 0.0
H1421 H 0.47413 0.90332 0.37232 0.0
H1422 H 0.50026 0.87847 0.32442 0.0
H1423 H 0.49131 0.88129 0.26091 0.0
H1424 H 0.48009 0.88606 0.42318 0.0
H1425 H 0.5217 0.90566 0.35918 0.0
H1426 H 0.50759 0.90482 0.33343 0.0
H1427 H 0.51723 0.89171 0.33708 0.0
C1428 C 0.47229 0.89943 0.3124 0.0
C1429 C 0.47746 0.89376 0.28034 0.0
C1430 C 0.47767 0.89815 0.3484 0.0
C1431 C 0.48814 0.89104 0.35268 0.0
C1432 C 0.49245 0.88432 0.3214 0.0
H1433 H 0.52286 0.88098 0.57582 0.0
H1434 H 0.51222 0.87747 0.51535 0.0
C1435 C 0.48728 0.88585 0.28529 0.0
C1436 C 0.49522 0.89167 0.38858 0.0
H1437 H 0.52297 0.89946 0.42368 0.0
C1438 C 0.48948 0.88896 0.42339 0.0
C1439 C 0.50739 0.89573 0.38872 0.0
C1440 C 0.51381 0.89977 0.35268 0.0
C1441 C 0.49557 0.89022 0.45845 0.0
C1442 C 0.50785 0.8939 0.45841 0.0
C1443 C 0.5136 0.89652 0.42357 0.0
C1444 C 0.51479 0.89572 0.4942 0.0
C1445 C 0.48864 0.88805 0.4951 0.0
C1446 C 0.52033 0.90694 0.50142 0.0
C1447 C 0.52671 0.90885 0.53539 0.0
C1448 C 0.5275 0.89962 0.56288 0.0
C1449 C 0.52225 0.88829 0.5552 0.0
C1450 C 0.51607 0.88631 0.5209 0.0
H1451 H 0.4787 0.88875 0.49057 0.0
H1452 H 0.4906 0.87878 0.50565 0.0
H1453 H 0.4913 0.89462 0.51767 0.0
H1454 H 0.51953 0.9143 0.48105 0.0
H1455 H 0.53065 0.91767 0.54065 0.0
H1456 H 0.8295 0.20428 0.20027 0.0
H1457 H 0.8331 0.2132 0.26361 0.0
H1458 H 0.86263 0.23416 0.21749 0.0
H1459 H 0.85917 0.22528 0.15432 0.0
H1460 H 0.86678 0.22332 0.293 0.0
H1461 H 0.82408 0.2498 0.28021 0.0
H1462 H 0.82266 0.23373 0.27323 0.0
H1463 H 0.83122 0.24258 0.23962 0.0
C1464 C 0.83685 0.21065 0.20378 0.0
C1465 C 0.84394 0.21422 0.17233 0.0
C1466 C 0.83888 0.21575 0.23986 0.0
C1467 C 0.84802 0.22443 0.24483 0.0
C1468 C 0.85552 0.2275 0.21401 0.0
H1469 H 0.84859 0.27697 0.42973 0.0
H1470 H 0.85157 0.26754 0.36689 0.0
C1471 C 0.85348 0.22245 0.17799 0.0
C1472 C 0.84923 0.23098 0.28137 0.0
H1473 H 0.83462 0.25118 0.33894 0.0
C1474 C 0.85979 0.22944 0.30315 0.0
C1475 C 0.84018 0.23913 0.29382 0.0
C1476 C 0.82893 0.24153 0.27044 0.0
C1477 C 0.86137 0.23562 0.33792 0.0
C1478 C 0.85211 0.24343 0.35103 0.0
C1479 C 0.84171 0.24519 0.32869 0.0
C1480 C 0.85253 0.24927 0.38902 0.0
C1481 C 0.87292 0.23378 0.36024 0.0
C1482 C 0.85235 0.2421 0.42211 0.0
C1483 C 0.85062 0.24742 0.4579 0.0
C1484 C 0.84897 0.26001 0.46117 0.0
C1485 C 0.84982 0.26725 0.42814 0.0
C1486 C 0.85152 0.26189 0.39227 0.0
H1487 H 0.88038 0.23049 0.34154 0.0
H1488 H 0.87583 0.2423 0.37438 0.0
H1489 H 0.87137 0.22688 0.38282 0.0
H1490 H 0.85289 0.23232 0.42011 0.0
H1491 H 0.85008 0.24159 0.4828 0.0
H1492 H 0.4641 0.10664 0.18691 0.0
H1493 H 0.47146 0.11311 0.12375 0.0
H1494 H 0.50662 0.0981 0.1494 0.0
H1495 H 0.49955 0.09198 0.2123 0.0
H1496 H 0.50815 0.12015 0.11333 0.0
H1497 H 0.47647 0.08899 0.03726 0.0
H1498 H 0.46981 0.1003 0.06771 0.0
H1499 H 0.47865 0.08831 0.08842 0.0
C1500 C 0.47341 0.10479 0.17906 0.0
C1501 C 0.48121 0.0987 0.20443 0.0
C1502 C 0.47758 0.10848 0.14303 0.0
C1503 C 0.48953 0.10595 0.13185 0.0
C1504 C 0.49737 0.10018 0.15756 0.0
H1505 H 0.53799 0.09097 0.95862 0.0
H1506 H 0.52759 0.09739 0.01716 0.0
C1507 C 0.49328 0.09662 0.19348 0.0
C1508 C 0.49392 0.10848 0.09272 0.0
H1509 H 0.49182 0.09794 0.00114 0.0
C1510 C 0.50445 0.1155 0.08857 0.0
C1511 C 0.48903 0.10243 0.06053 0.0
C1512 C 0.47792 0.09452 0.06349 0.0
C1513 C 0.51066 0.11596 0.0536 0.0
C1514 C 0.5062 0.10925 0.02226 0.0
C1515 C 0.49518 0.10303 0.0255 0.0
C1516 C 0.51346 0.10724 0.98746 0.0
C1517 C 0.5222 0.1232 0.05082 0.0
C1518 C 0.50896 0.11072 0.95163 0.0
C1519 C 0.51485 0.10706 0.91825 0.0
C1520 C 0.52524 0.09969 0.92027 0.0
C1521 C 0.52999 0.0966 0.95626 0.0
C1522 C 0.52413 0.10035 0.98965 0.0
H1523 H 0.52256 0.13042 0.07297 0.0
H1524 H 0.53005 0.11708 0.05539 0.0
H1525 H 0.52314 0.12739 0.02205 0.0
H1526 H 0.50067 0.11594 0.94951 0.0
H1527 H 0.511 0.10962 0.89088 0.0
H1528 H 0.65631 0.71716 0.92161 0.0
H1529 H 0.65449 0.72646 0.85811 0.0
H1530 H 0.62909 0.7525 0.90352 0.0
H1531 H 0.63141 0.74364 0.96736 0.0
H1532 H 0.63754 0.73221 0.80585 0.0
H1533 H 0.65645 0.77404 0.87047 0.0
H1534 H 0.65551 0.75997 0.89639 0.0
H1535 H 0.64237 0.76952 0.89166 0.0
C1536 C 0.65011 0.72468 0.91771 0.0
C1537 C 0.64414 0.72985 0.94921 0.0
C1538 C 0.6491 0.73 0.88154 0.0
C1539 C 0.64196 0.74041 0.87651 0.0
C1540 C 0.63496 0.74472 0.90716 0.0
H1541 H 0.63298 0.77443 0.65219 0.0
H1542 H 0.62922 0.76411 0.71302 0.0
C1543 C 0.63621 0.73961 0.94344 0.0
C1544 C 0.64282 0.74743 0.84055 0.0
H1545 H 0.65068 0.77517 0.8055 0.0
C1546 C 0.64038 0.74161 0.80568 0.0
C1547 C 0.64682 0.75962 0.84048 0.0
C1548 C 0.65057 0.76612 0.87669 0.0
C1549 C 0.64184 0.74765 0.77062 0.0
C1550 C 0.64543 0.75996 0.77068 0.0
C1551 C 0.64781 0.76578 0.80558 0.0
C1552 C 0.64736 0.76686 0.73489 0.0
C1553 C 0.63995 0.74064 0.73395 0.0
C1554 C 0.65858 0.77244 0.72799 0.0
C1555 C 0.66063 0.77864 0.69377 0.0
C1556 C 0.65154 0.77921 0.66576 0.0
C1557 C 0.64019 0.77398 0.67322 0.0
C1558 C 0.63807 0.76798 0.70773 0.0
H1559 H 0.64072 0.73072 0.73869 0.0
H1560 H 0.63072 0.7425 0.72282 0.0
H1561 H 0.64662 0.74333 0.71173 0.0
H1562 H 0.66584 0.77177 0.74875 0.0
H1563 H 0.66947 0.78258 0.68867 0.0
H1564 H 0.97409 0.88458 0.39967 0.0
H1565 H 0.98346 0.88026 0.46156 0.0
H1566 H 0.95899 0.90528 0.51654 0.0
H1567 H 0.94956 0.90974 0.45457 0.0
H1568 H 0.98437 0.90975 0.52716 0.0
H1569 H 0.9718 0.86205 0.55938 0.0
H1570 H 0.9774 0.86495 0.51183 0.0
H1571 H 0.96324 0.87142 0.52667 0.0
C1572 C 0.97055 0.88902 0.42505 0.0
C1573 C 0.96117 0.8976 0.42233 0.0
C1574 C 0.97586 0.88646 0.46035 0.0
C1575 C 0.97184 0.89239 0.49344 0.0
C1576 C 0.96214 0.90058 0.49115 0.0
H1577 H 0.98973 0.89081 0.72901 0.0
H1578 H 0.98093 0.88752 0.6658 0.0
C1579 C 0.95678 0.90312 0.45583 0.0
C1580 C 0.97864 0.89114 0.52948 0.0
H1581 H 0.9863 0.87125 0.60023 0.0
C1582 C 0.98482 0.90134 0.54316 0.0
C1583 C 0.9792 0.88011 0.54991 0.0
C1584 C 0.9725 0.869 0.53648 0.0
C1585 C 0.99147 0.90087 0.5772 0.0
C1586 C 0.99206 0.88985 0.59769 0.0
C1587 C 0.98595 0.8796 0.58394 0.0
C1588 C -0.00209 0.88932 0.63552 0.0
C1589 C -0.00248 0.91225 0.59164 0.0
C1590 C 0.01046 0.89091 0.63926 0.0
C1591 C 0.01555 0.89281 0.67542 0.0
C1592 C 0.0081 0.89322 0.70807 0.0
C1593 C 0.99567 0.89072 0.7043 0.0
C1594 C 0.99063 0.88876 0.66829 0.0
H1595 H 0.99463 0.92041 0.57537 0.0
H1596 H 0.99543 0.9137 0.62245 0.0
H1597 H 0.00748 0.91132 0.58874 0.0
H1598 H 0.01619 0.89128 0.61409 0.0
H1599 H 0.02516 0.89465 0.67751 0.0
H1600 H 0.65558 0.77839 0.41914 0.0
H1601 H 0.65113 0.76933 0.35684 0.0
H1602 H 0.62539 0.74523 0.41026 0.0
H1603 H 0.63041 0.75379 0.47286 0.0
H1604 H 0.64054 0.73277 0.37231 0.0
H1605 H 0.62574 0.76969 0.27706 0.0
H1606 H 0.63981 0.77372 0.29911 0.0
H1607 H 0.62651 0.77156 0.32839 0.0
C1608 C 0.64871 0.77141 0.41729 0.0
C1609 C 0.64338 0.7667 0.45056 0.0
C1610 C 0.6461 0.76629 0.38165 0.0
C1611 C 0.63783 0.75665 0.37875 0.0
C1612 C 0.63181 0.75263 0.4118 0.0
H1613 H 0.62968 0.72464 0.15073 0.0
H1614 H 0.62468 0.73404 0.21221 0.0
C1615 C 0.63466 0.75752 0.44748 0.0
C1616 C 0.63695 0.74958 0.34279 0.0
H1617 H 0.63526 0.7524 0.24567 0.0
C1618 C 0.63911 0.73705 0.34469 0.0
C1619 C 0.63491 0.75506 0.30674 0.0
C1620 C 0.63147 0.76823 0.3028 0.0
C1621 C 0.63993 0.72999 0.3115 0.0
C1622 C 0.63903 0.73569 0.27537 0.0
C1623 C 0.63619 0.74807 0.27343 0.0
C1624 C 0.64162 0.72913 0.23933 0.0
C1625 C 0.64182 0.71651 0.31564 0.0
C1626 C 0.65276 0.7232 0.2343 0.0
C1627 C 0.65555 0.71765 0.19946 0.0
C1628 C 0.64735 0.71823 0.16882 0.0
C1629 C 0.63617 0.7241 0.17394 0.0
C1630 C 0.63331 0.72947 0.20897 0.0
H1631 H 0.63793 0.71313 0.34297 0.0
H1632 H 0.63766 0.71143 0.29155 0.0
H1633 H 0.65168 0.71455 0.31613 0.0
H1634 H 0.65946 0.72313 0.25696 0.0
H1635 H 0.66428 0.7133 0.19611 0.0
H1636 H 0.45709 0.39687 0.67236 0.0
H1637 H 0.46364 0.39392 0.60583 0.0
H1638 H 0.49911 0.38336 0.64545 0.0
H1639 H 0.49267 0.38615 0.71149 0.0
H1640 H 0.48205 0.40811 0.5778 0.0
H1641 H 0.49358 0.35982 0.55765 0.0
H1642 H 0.48381 0.36503 0.59581 0.0
H1643 H 0.50002 0.36576 0.60095 0.0
C1644 C 0.46616 0.39356 0.66684 0.0
C1645 C 0.47442 0.39189 0.69699 0.0
C1646 C 0.46988 0.39188 0.62891 0.0
C1647 C 0.48182 0.38833 0.62084 0.0
C1648 C 0.48979 0.38586 0.65107 0.0
H1649 H 0.5322 0.41125 0.45172 0.0
H1650 H 0.52004 0.40708 0.50907 0.0
C1651 C 0.48612 0.3876 0.68881 0.0
C1652 C 0.48668 0.38918 0.58158 0.0
H1653 H 0.50425 0.37409 0.51688 0.0
C1654 C 0.48668 0.40061 0.56404 0.0
C1655 C 0.49268 0.37938 0.56374 0.0
C1656 C 0.49242 0.36678 0.58037 0.0
C1657 C 0.49313 0.40267 0.53014 0.0
C1658 C 0.49985 0.39308 0.51385 0.0
C1659 C 0.49927 0.38147 0.53005 0.0
C1660 C 0.50761 0.39501 0.48009 0.0
C1661 C 0.49287 0.41513 0.51241 0.0
C1662 C 0.50481 0.38927 0.44546 0.0
C1663 C 0.51171 0.39161 0.41288 0.0
C1664 C 0.52156 0.39967 0.41452 0.0
C1665 C 0.52462 0.40506 0.44964 0.0
C1666 C 0.51767 0.40274 0.48226 0.0
H1667 H 0.48503 0.42053 0.52274 0.0
H1668 H 0.50128 0.42004 0.5203 0.0
H1669 H 0.49246 0.41455 0.48065 0.0
H1670 H 0.49712 0.38322 0.44344 0.0
H1671 H 0.50919 0.38725 0.38624 0.0
H1672 H 0.86325 0.27693 0.66358 0.0
H1673 H 0.86609 0.26813 0.72731 0.0
H1674 H 0.82863 0.27548 0.75409 0.0
H1675 H 0.82597 0.28494 0.69124 0.0
H1676 H 0.84196 0.27931 0.81408 0.0
H1677 H 0.85497 0.23487 0.75258 0.0
H1678 H 0.86511 0.24677 0.73885 0.0
H1679 H 0.84955 0.24718 0.72337 0.0
C1680 C 0.85569 0.27681 0.6834 0.0
C1681 C 0.84437 0.28149 0.67264 0.0
C1682 C 0.85729 0.27168 0.71956 0.0
C1683 C 0.84747 0.27078 0.74492 0.0
C1684 C 0.8363 0.27599 0.73481 0.0
H1685 H 0.83624 0.21979 0.92681 0.0
H1686 H 0.83875 0.23013 0.86529 0.0
C1687 C 0.83479 0.2814 0.699 0.0
C1688 C 0.84867 0.26415 0.78158 0.0
H1689 H 0.85634 0.23678 0.82003 0.0
C1690 C 0.84511 0.27001 0.81541 0.0
C1691 C 0.8526 0.25194 0.78311 0.0
C1692 C 0.85565 0.24478 0.7475 0.0
C1693 C 0.84516 0.26397 0.85069 0.0
C1694 C 0.84948 0.2519 0.85244 0.0
C1695 C 0.8532 0.24609 0.81868 0.0
C1696 C 0.8494 0.24489 0.88857 0.0
C1697 C 0.84006 0.27045 0.88526 0.0
C1698 C 0.85502 0.24944 0.92161 0.0
C1699 C 0.85333 0.24371 0.9568 0.0
C1700 C 0.84637 0.2331 0.95916 0.0
C1701 C 0.84166 0.22795 0.92559 0.0
C1702 C 0.84308 0.23387 0.89053 0.0
H1703 H 0.83404 0.27807 0.87684 0.0
H1704 H 0.83482 0.26418 0.90376 0.0
H1705 H 0.84761 0.27429 0.90236 0.0
H1706 H 0.86033 0.25767 0.92048 0.0
H1707 H 0.85718 0.24775 0.98236 0.0
H1708 H 0.00151 0.61047 0.22415 0.0
H1709 H 0.99255 0.61246 0.16038 0.0
H1710 H 0.01856 0.58689 0.11574 0.0
H1711 H 0.02795 0.58537 0.17924 0.0
H1712 H 0.0131 0.6039 0.0635 0.0
H1713 H 0.9709 0.5853 0.12626 0.0
H1714 H 0.9754 0.59928 0.14813 0.0
H1715 H 0.98489 0.58609 0.15271 0.0
C1716 C 0.00549 0.60553 0.20044 0.0
C1717 C 0.0153 0.59767 0.20642 0.0
C1718 C 0.00032 0.60659 0.1642 0.0
C1719 C 0.00462 0.59948 0.13379 0.0
C1720 C 0.01503 0.59235 0.13902 0.0
H1721 H 0.96167 0.57519 0.94185 0.0
H1722 H 0.97253 0.57746 0.00257 0.0
C1723 C 0.02041 0.59151 0.17517 0.0
C1724 C -0.00229 0.59873 0.09762 0.0
H1725 H 0.96983 0.59183 0.06172 0.0
C1726 C 0.00364 0.60125 0.06302 0.0
C1727 C 0.98545 0.59498 0.09712 0.0
C1728 C 0.97882 0.59113 0.13299 0.0
C1729 C -0.0024 0.60024 0.02782 0.0
C1730 C 0.98519 0.59703 0.0275 0.0
C1731 C 0.9793 0.59444 0.06211 0.0
C1732 C 0.97821 0.59591 -0.00846 0.0
C1733 C 0.0047 0.60226 -0.00861 0.0
C1734 C 0.97748 0.60565 0.96587 0.0
C1735 C 0.97147 0.6043 0.93103 0.0
C1736 C 0.96581 0.5933 0.92178 0.0
C1737 C 0.96595 0.58377 0.94837 0.0
C1738 C 0.97218 0.58505 0.98294 0.0
H1739 H 0.01458 0.60099 -0.00397 0.0
H1740 H 0.00173 0.596 0.96835 0.0
H1741 H 0.00327 0.6117 0.98143 0.0
H1742 H 0.9817 0.61425 0.97254 0.0
H1743 H 0.97135 0.61183 0.91111 0.0
H1744 H 0.65849 0.2876 0.27482 0.0
H1745 H 0.65412 0.27866 0.212 0.0
H1746 H 0.63015 0.25282 0.26519 0.0
H1747 H 0.63435 0.26171 0.32778 0.0
H1748 H 0.65945 0.25408 0.1971 0.0
H1749 H 0.61093 0.26443 0.17054 0.0
H1750 H 0.62003 0.27282 0.20444 0.0
H1751 H 0.6142 0.25816 0.21692 0.0
C1752 C 0.65211 0.28015 0.27298 0.0
C1753 C 0.64683 0.27527 0.30615 0.0
C1754 C 0.64962 0.27509 0.23718 0.0
C1755 C 0.64174 0.26517 0.23411 0.0
C1756 C 0.63609 0.2606 0.26697 0.0
H1757 H 0.64488 0.21202 0.05083 0.0
H1758 H 0.64188 0.22127 0.114 0.0
C1759 C 0.63859 0.26563 0.30272 0.0
C1760 C 0.64051 0.25871 0.19738 0.0
H1761 H 0.62021 0.25005 0.12897 0.0
C1762 C 0.65089 0.25322 0.18211 0.0
C1763 C 0.6293 0.25761 0.17821 0.0
C1764 C 0.61798 0.26364 0.19312 0.0
C1765 C 0.65037 0.24662 0.14796 0.0
C1766 C 0.63913 0.24535 0.12901 0.0
C1767 C 0.62874 0.2509 0.14411 0.0
C1768 C 0.63838 0.2392 0.09166 0.0
C1769 C 0.6619 0.24126 0.13194 0.0
C1770 C 0.6368 0.24616 0.05852 0.0
C1771 C 0.63853 0.24095 0.02258 0.0
C1772 C 0.64183 0.22869 0.0193 0.0
C1773 C 0.64242 0.2215 0.05249 0.0
C1774 C 0.64073 0.22676 0.08853 0.0
H1775 H 0.67008 0.24482 0.14664 0.0
H1776 H 0.66173 0.23128 0.13563 0.0
H1777 H 0.66269 0.24321 0.10081 0.0
H1778 H 0.63496 0.25578 0.06052 0.0
H1779 H 0.63785 0.24668 -0.00252 0.0
H1780 H 0.96281 0.41332 0.53165 0.0
H1781 H 0.97324 0.40771 0.47248 0.0
H1782 H 0.98461 0.37404 0.52398 0.0
H1783 H 0.9746 0.37983 0.58375 0.0
H1784 H 0.00299 0.38449 0.48978 0.0
H1785 H 0.96427 0.38439 0.38991 0.0
H1786 H 0.96515 0.39862 0.41442 0.0
H1787 H 0.96227 0.38495 0.4412 0.0
C1788 C 0.96739 0.40466 0.53015 0.0
C1789 C 0.96791 0.397 0.56218 0.0
C1790 C 0.97329 0.40142 0.49628 0.0
C1791 C 0.97952 0.39035 0.49362 0.0
C1792 C 0.97982 0.38259 0.52539 0.0
H1793 H 0.00549 0.37708 0.26306 0.0
H1794 H -0.00284 0.37203 0.32597 0.0
C1795 C 0.97408 0.3859 0.55943 0.0
C1796 C 0.98637 0.38729 0.45851 0.0
H1797 H 0.98401 0.3871 0.36132 0.0
C1798 C -0.00119 0.38482 0.46166 0.0
C1799 C 0.98087 0.3874 0.42195 0.0
C1800 C 0.96738 0.38884 0.41672 0.0
C1801 C 0.00604 0.3832 0.42901 0.0
C1802 C 0.00074 0.38449 0.39235 0.0
C1803 C 0.98816 0.38623 0.38937 0.0
C1804 C 0.00801 0.38517 0.35673 0.0
C1805 C 0.01927 0.38023 0.43428 0.0
C1806 C 0.01734 0.39377 0.35336 0.0
C1807 C 0.02235 0.39638 0.31756 0.0
C1808 C 0.01783 0.3907 0.28462 0.0
C1809 C 0.00908 0.38157 0.28822 0.0
C1810 C 0.00431 0.37872 0.32408 0.0
H1811 H 0.02072 0.37486 0.46081 0.0
H1812 H 0.02295 0.37507 0.40956 0.0
H1813 H 0.02448 0.38877 0.43738 0.0
H1814 H 0.02013 0.39911 0.37781 0.0
H1815 H 0.02898 0.40357 0.31526 0.0
H1816 H 0.83185 0.70292 0.77776 0.0
H1817 H 0.8356 0.71132 0.71384 0.0
H1818 H 0.86291 0.73497 0.76079 0.0
H1819 H 0.85937 0.72656 0.82439 0.0
H1820 H 0.83223 0.73576 0.6971 0.0
H1821 H 0.87932 0.72143 0.66445 0.0
H1822 H 0.87025 0.71429 0.70113 0.0
H1823 H 0.87751 0.72855 0.71041 0.0
C1824 C 0.8388 0.70976 0.77429 0.0
C1825 C 0.84526 0.71414 0.80602 0.0
C1826 C 0.84093 0.71453 0.73786 0.0
C1827 C 0.84961 0.72366 0.73268 0.0
C1828 C 0.85634 0.72776 0.76411 0.0
H1829 H 0.8478 0.77583 0.54625 0.0
H1830 H 0.85017 0.76671 0.60981 0.0
C1831 C 0.85423 0.72301 0.80046 0.0
C1832 C 0.85078 0.72977 0.69532 0.0
H1833 H 0.87076 0.73655 0.62387 0.0
C1834 C 0.84064 0.7359 0.68097 0.0
C1835 C 0.86178 0.72992 0.67457 0.0
C1836 C 0.87282 0.72311 0.68819 0.0
C1837 C 0.84117 0.74224 0.64631 0.0
C1838 C 0.85223 0.74261 0.62592 0.0
C1839 C 0.86238 0.7364 0.64007 0.0
C1840 C 0.85303 0.74856 0.58823 0.0
C1841 C 0.82983 0.74824 0.63134 0.0
C1842 C 0.8545 0.74144 0.55536 0.0
C1843 C 0.85319 0.74659 0.51918 0.0
C1844 C 0.85041 0.75897 0.51532 0.0
C1845 C 0.84985 0.76626 0.54831 0.0
C1846 C 0.85115 0.76107 0.58458 0.0
H1847 H 0.82159 0.74509 0.64664 0.0
H1848 H 0.83057 0.75818 0.63532 0.0
H1849 H 0.82868 0.74643 0.60024 0.0
H1850 H 0.85602 0.73177 0.55773 0.0
H1851 H 0.85384 0.74075 0.49431 0.0
H1852 H 0.54427 0.58961 0.02901 0.0
H1853 H 0.53565 0.59249 0.96497 0.0
H1854 H 0.50507 0.61117 0.01433 0.0
H1855 H 0.51366 0.60851 0.07814 0.0
H1856 H 0.51336 0.58269 0.94572 0.0
H1857 H 0.51342 0.63239 0.92193 0.0
H1858 H 0.52274 0.62516 0.95781 0.0
H1859 H 0.50694 0.62784 0.9669 0.0
C1860 C 0.53583 0.59454 0.0261 0.0
C1861 C 0.52958 0.59875 0.05853 0.0
C1862 C 0.53094 0.59619 0.98958 0.0
C1863 C 0.5198 0.60214 0.98502 0.0
C1864 C 0.5138 0.60678 0.01721 0.0
H1865 H 0.46721 0.59438 0.80244 0.0
H1866 H 0.47688 0.59839 0.86452 0.0
C1867 C 0.51867 0.60515 0.05367 0.0
C1868 C 0.51373 0.60218 0.9474 0.0
H1869 H 0.50134 0.62055 0.87911 0.0
C1870 C 0.5108 0.59096 0.93103 0.0
C1871 C 0.51036 0.61302 0.92858 0.0
C1872 C 0.51361 0.62529 0.94449 0.0
C1873 C 0.50447 0.59027 0.89642 0.0
C1874 C 0.50097 0.60108 0.87792 0.0
C1875 C 0.50395 0.61232 0.89392 0.0
C1876 C 0.49481 0.60065 0.84066 0.0
C1877 C 0.50159 0.57802 0.87955 0.0
C1878 C 0.50173 0.60089 0.80713 0.0
C1879 C 0.49631 0.59851 0.7719 0.0
C1880 C 0.48386 0.5959 0.76972 0.0
C1881 C 0.47682 0.59634 0.80326 0.0
C1882 C 0.48229 0.59865 0.83863 0.0
H1883 H 0.50527 0.57047 0.89709 0.0
H1884 H 0.49162 0.57693 0.87726 0.0
H1885 H 0.50539 0.57735 0.85015 0.0
H1886 H 0.51142 0.60238 0.80842 0.0
H1887 H 0.50196 0.59835 0.74653 0.0
H1888 H 0.34461 0.21379 0.55418 0.0
H1889 H 0.34868 0.22251 0.61759 0.0
H1890 H 0.35224 0.25792 0.56675 0.0
H1891 H 0.34833 0.24937 0.50365 0.0
H1892 H 0.3695 0.25262 0.62629 0.0
H1893 H 0.32151 0.24366 0.66673 0.0
H1894 H 0.33026 0.23083 0.65104 0.0
H1895 H 0.32676 0.24274 0.61783 0.0
C1896 C 0.34646 0.22339 0.55648 0.0
C1897 C 0.34595 0.23093 0.52405 0.0
C1898 C 0.34875 0.22835 0.59264 0.0
C1899 C 0.35059 0.24086 0.59666 0.0
C1900 C 0.35081 0.24825 0.56411 0.0
H1901 H 0.33532 0.289 0.78303 0.0
H1902 H 0.33772 0.27925 0.72042 0.0
C1903 C 0.3485 0.24334 0.52813 0.0
C1904 C 0.35116 0.24656 0.63477 0.0
H1905 H 0.33357 0.25391 0.71163 0.0
C1906 C 0.36171 0.25282 0.64523 0.0
C1907 C 0.34087 0.24695 0.65883 0.0
C1908 C 0.32916 0.24078 0.64811 0.0
C1909 C 0.3622 0.25957 0.67926 0.0
C1910 C 0.3519 0.25995 0.70322 0.0
C1911 C 0.34142 0.25359 0.69295 0.0
C1912 C 0.3517 0.26687 0.7393 0.0
C1913 C 0.37357 0.26651 0.68883 0.0
C1914 C 0.35893 0.26323 0.77018 0.0
C1915 C 0.35757 0.26875 0.80586 0.0
C1916 C 0.3489 0.27794 0.81119 0.0
C1917 C 0.34205 0.28193 0.77975 0.0
C1918 C 0.3434 0.27638 0.74406 0.0
H1919 H 0.37967 0.26737 0.66365 0.0
H1920 H 0.37132 0.2757 0.69958 0.0
H1921 H 0.37856 0.26167 0.71181 0.0
H1922 H 0.36525 0.25579 0.76712 0.0
H1923 H 0.363 0.26551 0.82959 0.0
H1924 H 0.4777 0.60652 0.57907 0.0
H1925 H 0.48638 0.6096 0.51553 0.0
H1926 H 0.4592 0.58625 0.46651 0.0
H1927 H 0.4504 0.58306 0.53027 0.0
H1928 H 0.49485 0.58869 0.47167 0.0
H1929 H 0.46101 0.61685 0.39415 0.0
H1930 H 0.46203 0.6165 0.44586 0.0
H1931 H 0.45519 0.60412 0.42056 0.0
C1932 C 0.47344 0.60217 0.55473 0.0
C1933 C 0.46344 0.59444 0.55962 0.0
C1934 C 0.4784 0.60398 0.51851 0.0
C1935 C 0.47337 0.59821 0.48656 0.0
C1936 C 0.46308 0.5909 0.49095 0.0
H1937 H 0.49166 0.58481 0.25395 0.0
H1938 H 0.48227 0.58794 0.31623 0.0
C1939 C 0.45811 0.58904 0.52731 0.0
C1940 C 0.47971 0.59877 0.44949 0.0
H1941 H 0.47692 0.60834 0.35711 0.0
C1942 C 0.49102 0.59308 0.44663 0.0
C1943 C 0.47459 0.60448 0.41718 0.0
C1944 C 0.46257 0.61093 0.41941 0.0
C1945 C 0.49722 0.59256 0.41168 0.0
C1946 C 0.49207 0.59818 0.3791 0.0
C1947 C 0.48086 0.60411 0.38225 0.0
C1948 C 0.49771 0.59713 0.34088 0.0
C1949 C 0.50894 0.58553 0.40962 0.0
C1950 C 0.50945 0.60146 0.33394 0.0
C1951 C 0.51495 0.59955 0.29836 0.0
C1952 C 0.50869 0.59344 0.2691 0.0
C1953 C 0.49676 0.58952 0.27586 0.0
C1954 C 0.49134 0.59133 0.31142 0.0
H1955 H 0.51013 0.57947 0.43477 0.0
H1956 H 0.50933 0.57995 0.38317 0.0
H1957 H 0.51665 0.59195 0.40913 0.0
H1958 H 0.51441 0.60619 0.35616 0.0
H1959 H 0.5241 0.60279 0.29386 0.0
H1960 H 0.16845 0.70742 0.29053 0.0
H1961 H 0.16529 0.71728 0.22852 0.0
H1962 H 0.12766 0.72305 0.25675 0.0
H1963 H 0.13096 0.7138 0.31957 0.0
H1964 H 0.1518 0.71325 0.16867 0.0
H1965 H 0.13759 0.75688 0.23308 0.0
H1966 H 0.1436 0.74462 0.26135 0.0
H1967 H 0.12794 0.7446 0.24693 0.0
C1968 C 0.15949 0.71069 0.28326 0.0
C1969 C 0.14997 0.71001 0.30978 0.0
C1970 C 0.1577 0.71635 0.24795 0.0
C1971 C 0.14632 0.72122 0.23852 0.0
C1972 C 0.13661 0.71977 0.26401 0.0
H1973 H 0.13284 0.74405 0.00353 0.0
H1974 H 0.13095 0.73418 0.066 0.0
C1975 C 0.13847 0.71437 0.29965 0.0
C1976 C 0.14473 0.728 0.2023 0.0
H1977 H 0.13555 0.75515 0.16558 0.0
C1978 C 0.14826 0.72242 0.16798 0.0
C1979 C 0.14031 0.74005 0.2016 0.0
C1980 C 0.13727 0.74694 0.23775 0.0
C1981 C 0.14757 0.72855 0.13293 0.0
C1982 C 0.14267 0.74041 0.13201 0.0
C1983 C 0.1391 0.74599 0.16632 0.0
C1984 C 0.14188 0.74741 0.09598 0.0
C1985 C 0.15256 0.7224 0.0976 0.0
C1986 C 0.14776 0.75865 0.09292 0.0
C1987 C 0.14847 0.76452 0.05754 0.0
C1988 C 0.14349 0.7591 0.02479 0.0
C1989 C 0.13689 0.7483 0.02842 0.0
C1990 C 0.13591 0.74261 0.06393 0.0
H1991 H 0.15904 0.71507 0.10511 0.0
H1992 H 0.14501 0.71823 0.08132 0.0
H1993 H 0.15726 0.72896 0.07865 0.0
H1994 H 0.15232 0.76258 0.11743 0.0
H1995 H 0.15364 0.77283 0.05535 0.0
H1996 H 0.96493 0.40865 0.80819 0.0
H1997 H 0.9737 0.40697 0.87255 0.0
H1998 H -0.00017 0.38115 0.83015 0.0
H1999 H 0.9915 0.3833 0.76556 0.0
H2000 H 0.97895 0.38991 0.9259 0.0
H2001 H 0.02123 0.40866 0.86394 0.0
H2002 H 0.00732 0.40777 0.83715 0.0
H2003 H 0.01682 0.39461 0.84231 0.0
C2004 C 0.97235 0.4024 0.81294 0.0
C2005 C 0.97771 0.39624 0.78211 0.0
C2006 C 0.97736 0.40146 0.84959 0.0
C2007 C 0.98765 0.39423 0.8557 0.0
C2008 C 0.99214 0.38708 0.82568 0.0
H2009 H 0.02108 0.38318 0.0793 0.0
H2010 H 0.01029 0.38044 0.01873 0.0
C2011 C 0.98733 0.38823 0.78896 0.0
C2012 C 0.99441 0.39513 0.89214 0.0
H2013 H 0.02206 0.40252 0.92875 0.0
C2014 C 0.98838 0.39266 0.92663 0.0
C2015 C 0.00662 0.39902 0.89294 0.0
C2016 C 0.01334 0.40279 0.85716 0.0
C2017 C 0.99428 0.39388 0.96203 0.0
C2018 C 0.00664 0.39729 0.96265 0.0
C2019 C 0.01263 0.39979 0.92814 0.0
C2020 C 0.0135 0.39873 -0.00123 0.0
C2021 C 0.9871 0.39188 -0.0017 0.0
C2022 C 0.01941 0.4097 0.0067 0.0
C2023 C 0.02586 0.41117 0.04075 0.0
C2024 C 0.02637 0.40172 0.06757 0.0
C2025 C 0.0207 0.39065 0.05921 0.0
C2026 C 0.01443 0.38912 0.02486 0.0
H2027 H 0.97722 0.39294 -0.00672 0.0
H2028 H 0.98869 0.38252 0.00872 0.0
H2029 H 0.98988 0.3983 0.02115 0.0
H2030 H 0.01888 0.41721 0.98676 0.0
H2031 H 0.03013 0.41981 0.04656 0.0
H2032 H 0.3395 0.74227 0.96619 0.0
H2033 H 0.34496 0.73578 0.90209 0.0
H2034 H 0.35152 0.77285 0.86926 0.0
H2035 H 0.34586 0.77957 0.93392 0.0
H2036 H 0.33669 0.76058 0.8193 0.0
H2037 H 0.37744 0.73313 0.84879 0.0
H2038 H 0.36526 0.72896 0.88008 0.0
H2039 H 0.37154 0.744 0.88272 0.0
C2040 C 0.34221 0.74909 0.94561 0.0
C2041 C 0.34223 0.76146 0.95518 0.0
C2042 C 0.34546 0.74533 0.90904 0.0
C2043 C 0.34893 0.75381 0.88132 0.0
C2044 C 0.34904 0.76617 0.89059 0.0
H2045 H 0.35849 0.73183 0.64133 0.0
H2046 H 0.36159 0.74294 0.70117 0.0
C2047 C 0.34576 0.76998 0.9274 0.0
C2048 C 0.35119 0.74963 0.84184 0.0
H2049 H 0.36589 0.72748 0.79192 0.0
C2050 C 0.3433 0.75359 0.81295 0.0
C2051 C 0.35986 0.74054 0.83372 0.0
C2052 C 0.36908 0.73652 0.86294 0.0
C2053 C 0.34323 0.74801 0.77692 0.0
C2054 C 0.35123 0.73829 0.76997 0.0
C2055 C 0.35967 0.73486 0.79784 0.0
C2056 C 0.35027 0.73106 0.73484 0.0
C2057 C 0.33419 0.75203 0.74712 0.0
C2058 C 0.34305 0.72063 0.7346 0.0
C2059 C 0.34121 0.71428 0.70054 0.0
C2060 C 0.34659 0.7183 0.66641 0.0
C2061 C 0.35418 0.72854 0.66719 0.0
C2062 C 0.35599 0.73489 0.70123 0.0
H2063 H 0.32873 0.75991 0.75681 0.0
H2064 H 0.33899 0.75451 0.72028 0.0
H2065 H 0.32797 0.74443 0.74026 0.0
H2066 H 0.33859 0.71761 0.76056 0.0
H2067 H 0.33536 0.7064 0.70076 0.0
H2068 H -0.00191 0.60575 0.72371 0.0
H2069 H 0.00545 0.60987 0.65942 0.0
H2070 H 0.96955 0.60424 0.61407 0.0
H2071 H 0.96208 0.59987 0.67873 0.0
H2072 H 0.98633 0.58952 0.58192 0.0
H2073 H 0.00348 0.63648 0.58012 0.0
H2074 H 0.00905 0.62836 0.62096 0.0
H2075 H 0.99304 0.6311 0.61618 0.0
C2076 C 0.99167 0.60564 0.70025 0.0
C2077 C 0.97953 0.60231 0.7062 0.0
C2078 C 0.99588 0.60816 0.66351 0.0
C2079 C 0.98802 0.60749 0.63206 0.0
C2080 C 0.97572 0.60489 0.63811 0.0
H2081 H 0.01655 0.61256 0.3989 0.0
H2082 H 0.00518 0.61679 0.45752 0.0
C2083 C 0.97148 0.60239 0.67501 0.0
C2084 C 0.99315 0.60747 0.59299 0.0
H2085 H 0.01286 0.62258 0.53485 0.0
C2086 C 0.99192 0.59686 0.57125 0.0
C2087 C 0.00039 0.61707 0.57909 0.0
C2088 C 0.00147 0.62894 0.60019 0.0
C2089 C -0.00168 0.5953 0.53699 0.0
C2090 C 0.00626 0.60451 0.52462 0.0
C2091 C 0.00694 0.61543 0.54503 0.0
C2092 C 0.01402 0.60282 0.4907 0.0
C2093 C -0.0033 0.5837 0.51468 0.0
C2094 C 0.02301 0.59383 0.49061 0.0
C2095 C 0.02953 0.59138 0.45722 0.0
C2096 C 0.02712 0.5979 0.42354 0.0
C2097 C 0.01853 0.60732 0.42438 0.0
C2098 C 0.01204 0.60977 0.45777 0.0
H2099 H 0.98818 0.57897 0.52267 0.0
H2100 H -0.00341 0.58548 0.48336 0.0
H2101 H 0.00438 0.57752 0.52092 0.0
H2102 H 0.02475 0.58851 0.51611 0.0
H2103 H 0.03615 0.58414 0.45746 0.0
H2104 H 0.13205 0.27156 0.14816 0.0
H2105 H 0.12644 0.26169 0.2083 0.0
H2106 H 0.16064 0.27236 0.2577 0.0
H2107 H 0.16606 0.28269 0.19817 0.0
H2108 H 0.13668 0.24311 0.24144 0.0
H2109 H 0.13817 0.28169 0.342 0.0
H2110 H 0.13854 0.28375 0.29074 0.0
H2111 H 0.15223 0.28032 0.31674 0.0
C2112 C 0.13828 0.27196 0.17212 0.0
C2113 C 0.14947 0.27791 0.16868 0.0
C2114 C 0.13507 0.26631 0.20638 0.0
C2115 C 0.14304 0.26643 0.23765 0.0
C2116 C 0.1542 0.27245 0.23432 0.0
H2117 H 0.15325 0.21595 0.41805 0.0
H2118 H 0.15016 0.22517 0.3551 0.0
C2119 C 0.15732 0.27829 0.20025 0.0
C2120 C 0.14005 0.2596 0.27287 0.0
H2121 H 0.13995 0.26185 0.37012 0.0
C2122 C 0.13719 0.24724 0.26961 0.0
C2123 C 0.14043 0.26504 0.3095 0.0
C2124 C 0.14237 0.27846 0.31492 0.0
C2125 C 0.13527 0.24005 0.30217 0.0
C2126 C 0.13667 0.24529 0.33889 0.0
C2127 C 0.13898 0.25776 0.34201 0.0
C2128 C 0.13663 0.23802 0.37457 0.0
C2129 C 0.1318 0.22696 0.29674 0.0
C2130 C 0.12995 0.24203 0.4064 0.0
C2131 C 0.13201 0.23703 0.44247 0.0
C2132 C 0.14056 0.22774 0.4471 0.0
C2133 C 0.14647 0.22299 0.41489 0.0
C2134 C 0.14466 0.22822 0.37889 0.0
H2135 H 0.12663 0.22569 0.26972 0.0
H2136 H 0.14013 0.22138 0.29462 0.0
H2137 H 0.12625 0.22356 0.32099 0.0
H2138 H 0.12369 0.24954 0.40376 0.0
H2139 H 0.12737 0.24082 0.46708 0.0
H2140 H 0.53199 0.39837 0.17455 0.0
H2141 H 0.5252 0.39329 0.10938 0.0
H2142 H 0.48802 0.39494 0.14698 0.0
H2143 H 0.49461 0.39987 0.21152 0.0
H2144 H 0.49372 0.37512 0.09589 0.0
H2145 H 0.50876 0.42051 0.04416 0.0
H2146 H 0.51971 0.41091 0.06734 0.0
H2147 H 0.5074 0.41712 0.09457 0.0
C2148 C 0.52239 0.39749 0.16893 0.0
C2149 C 0.51383 0.3997 0.19796 0.0
C2150 C 0.51854 0.3946 0.1318 0.0
C2151 C 0.50613 0.39386 0.12355 0.0
C2152 C 0.49764 0.39547 0.15291 0.0
H2153 H 0.457 0.40964 0.94828 0.0
H2154 H 0.46925 0.40687 0.00609 0.0
C2155 C 0.50144 0.39839 0.18971 0.0
C2156 C 0.50164 0.39253 0.08404 0.0
H2157 H 0.49629 0.40917 0.00355 0.0
C2158 C 0.49449 0.38241 0.0752 0.0
C2159 C 0.50259 0.40217 0.05759 0.0
C2160 C 0.50997 0.41334 0.0662 0.0
C2161 C 0.48776 0.38194 0.04118 0.0
C2162 C 0.48829 0.39183 0.01565 0.0
C2163 C 0.49592 0.40166 0.02353 0.0
C2164 C 0.48035 0.39263 0.98192 0.0
C2165 C 0.47959 0.37126 0.03367 0.0
C2166 C 0.4825 0.38539 0.94972 0.0
C2167 C 0.47555 0.38696 0.91673 0.0
C2168 C 0.46638 0.39581 0.91555 0.0
C2169 C 0.46399 0.40276 0.94838 0.0
C2170 C 0.47099 0.40122 0.9813 0.0
H2171 H 0.47931 0.36488 0.05827 0.0
H2172 H 0.47024 0.37442 0.0275 0.0
H2173 H 0.48288 0.36628 0.00805 0.0
H2174 H 0.48976 0.37879 0.94975 0.0
H2175 H 0.47757 0.38145 0.89183 0.0
H2176 H 0.13349 0.3254 0.00762 0.0
H2177 H 0.12178 0.34359 0.02266 0.0
H2178 H 0.14518 0.35063 0.11925 0.0
H2179 H 0.15731 0.33295 0.10277 0.0
H2180 H 0.10906 0.3448 0.08249 0.0
H2181 H 0.13934 0.3844 0.08782 0.0
H2182 H 0.14389 0.37031 0.06585 0.0
H2183 H 0.14538 0.37248 0.11689 0.0
C2184 C 0.13638 0.33111 0.03117 0.0
C2185 C 0.14626 0.32777 0.05412 0.0
C2186 C 0.12968 0.34149 0.03982 0.0
C2187 C 0.13258 0.34855 0.07209 0.0
C2188 C 0.14291 0.34558 0.09364 0.0
H2189 H 0.07602 0.3789 0.21124 0.0
H2190 H 0.09361 0.36779 0.18717 0.0
C2191 C 0.1498 0.33539 0.08435 0.0
C2192 C 0.12376 0.35758 0.08684 0.0
H2193 H 0.1211 0.38573 0.12672 0.0
C2194 C 0.1117 0.35382 0.09149 0.0
C2195 C 0.1271 0.3694 0.09848 0.0
C2196 C 0.13962 0.37441 0.09157 0.0
C2197 C 0.10301 0.36135 0.10827 0.0
C2198 C 0.10656 0.37281 0.12255 0.0
C2199 C 0.11848 0.37681 0.11674 0.0
C2200 C 0.09781 0.38077 0.14261 0.0
C2201 C 0.09007 0.35696 0.11001 0.0
C2202 C 0.09503 0.39224 0.12776 0.0
C2203 C 0.08519 0.39878 0.14224 0.0
C2204 C 0.07794 0.39383 0.17141 0.0
C2205 C 0.08138 0.38284 0.18841 0.0
C2206 C 0.09136 0.37645 0.17449 0.0
H2207 H 0.08825 0.34995 0.0879 0.0
H2208 H 0.08835 0.35282 0.13847 0.0
H2209 H 0.08357 0.36452 0.1058 0.0
H2210 H 0.09997 0.3958 0.10341 0.0
H2211 H 0.08273 0.40724 0.12862 0.0
H2212 H 0.83526 0.83309 0.40808 0.0
H2213 H 0.8448 0.85188 0.38626 0.0
H2214 H 0.87967 0.83827 0.42145 0.0
H2215 H 0.87025 0.81955 0.44356 0.0
H2216 H 0.87599 0.86379 0.43403 0.0
H2217 H 0.86486 0.84875 0.28563 0.0
H2218 H 0.8525 0.85029 0.31887 0.0
H2219 H 0.86369 0.83873 0.32631 0.0
C2220 C 0.84491 0.83424 0.41219 0.0
C2221 C 0.85205 0.82477 0.42698 0.0
C2222 C 0.85034 0.84495 0.39948 0.0
C2223 C 0.86294 0.8463 0.4015 0.0
C2224 C 0.86992 0.83733 0.41944 0.0
H2225 H 0.92133 0.87498 0.28272 0.0
H2226 H 0.9034 0.86402 0.30435 0.0
C2227 C 0.86453 0.82664 0.43207 0.0
C2228 C 0.86914 0.85632 0.38144 0.0
H2229 H 0.87769 0.8655 0.29196 0.0
C2230 C 0.87619 0.86437 0.403 0.0
C2231 C 0.86944 0.85689 0.34091 0.0
C2232 C 0.8623 0.84819 0.31637 0.0
C2233 C 0.88395 0.87267 0.3851 0.0
C2234 C 0.88453 0.87298 0.34456 0.0
C2235 C 0.8771 0.86529 0.32299 0.0
C2236 C 0.894 0.88 0.32454 0.0
C2237 C 0.89203 0.8805 0.40966 0.0
C2238 C 0.89432 0.89267 0.32679 0.0
C2239 C 0.90457 0.89897 0.31441 0.0
C2240 C 0.91462 0.89266 0.29965 0.0
C2241 C 0.91377 0.88009 0.29418 0.0
C2242 C 0.90353 0.87381 0.30655 0.0
H2243 H 0.8917 0.87787 0.44038 0.0
H2244 H 0.90156 0.87993 0.39967 0.0
H2245 H 0.88909 0.89008 0.4073 0.0
H2246 H 0.88694 0.8976 0.34001 0.0
H2247 H 0.90492 0.90868 0.31876 0.0
H2248 H 0.33611 0.65855 0.58274 0.0
H2249 H 0.34605 0.64028 0.60719 0.0
H2250 H 0.38041 0.6534 0.56574 0.0
H2251 H 0.37058 0.67159 0.541 0.0
H2252 H 0.37659 0.62778 0.55684 0.0
H2253 H 0.36738 0.64462 0.70469 0.0
H2254 H 0.35463 0.64268 0.67319 0.0
H2255 H 0.36568 0.65415 0.66303 0.0
C2256 C 0.34573 0.6574 0.57798 0.0
C2257 C 0.3526 0.66658 0.56041 0.0
C2258 C 0.35139 0.647 0.59218 0.0
C2259 C 0.36397 0.64566 0.58891 0.0
C2260 C 0.37069 0.65434 0.56871 0.0
H2261 H 0.42429 0.61933 0.70168 0.0
H2262 H 0.40577 0.62964 0.68193 0.0
C2263 C 0.36506 0.66473 0.55459 0.0
C2264 C 0.37046 0.63591 0.60938 0.0
H2265 H 0.38035 0.62793 0.69861 0.0
C2266 C 0.37723 0.6276 0.58786 0.0
C2267 C 0.37131 0.63585 0.64986 0.0
C2268 C 0.36444 0.64482 0.67424 0.0
C2269 C 0.38532 0.61958 0.60565 0.0
C2270 C 0.38651 0.61982 0.64606 0.0
C2271 C 0.3793 0.62773 0.6677 0.0
C2272 C 0.39641 0.61324 0.66546 0.0
C2273 C 0.39311 0.61149 0.58093 0.0
C2274 C 0.39698 0.60056 0.66473 0.0
C2275 C 0.40758 0.59462 0.67599 0.0
C2276 C 0.41773 0.60131 0.68811 0.0
C2277 C 0.41667 0.61393 0.69221 0.0
C2278 C 0.40609 0.61984 0.68095 0.0
H2279 H 0.39226 0.61368 0.54996 0.0
H2280 H 0.40278 0.6123 0.58928 0.0
H2281 H 0.39035 0.60192 0.58509 0.0
H2282 H 0.3895 0.59532 0.65344 0.0
H2283 H 0.40809 0.58488 0.67279 0.0
H2284 H 0.65583 0.15699 0.89073 0.0
H2285 H 0.64458 0.13953 0.86684 0.0
H2286 H 0.61497 0.14825 0.94268 0.0
H2287 H 0.62592 0.16615 0.96519 0.0
H2288 H 0.63335 0.11927 0.88975 0.0
H2289 H 0.59962 0.15275 0.83917 0.0
H2290 H 0.61388 0.15718 0.8599 0.0
H2291 H 0.6013 0.15315 0.89025 0.0
C2292 C 0.64705 0.15501 0.90309 0.0
C2293 C 0.64161 0.16305 0.92921 0.0
C2294 C 0.64063 0.14503 0.88933 0.0
C2295 C 0.62877 0.14287 0.90198 0.0
C2296 C 0.62395 0.15003 0.93158 0.0
H2297 H 0.5802 0.08472 0.85921 0.0
H2298 H 0.59813 0.09621 0.87655 0.0
C2299 C 0.63024 0.16018 0.94467 0.0
C2300 C 0.62099 0.13413 0.88125 0.0
H2301 H 0.59399 0.13208 0.83465 0.0
C2302 C 0.62477 0.12205 0.87743 0.0
C2303 C 0.61005 0.13789 0.86378 0.0
C2304 C 0.60604 0.15097 0.86305 0.0
C2305 C 0.6176 0.11349 0.85809 0.0
C2306 C 0.6062 0.11706 0.84335 0.0
C2307 C 0.60269 0.12926 0.846 0.0
C2308 C 0.59721 0.10835 0.82783 0.0
C2309 C 0.62242 0.1008 0.85338 0.0
C2310 C 0.59073 0.11115 0.79426 0.0
C2311 C 0.58016 0.10484 0.78507 0.0
C2312 C 0.57608 0.09545 0.80881 0.0
C2313 C 0.5832 0.09187 0.8402 0.0
C2314 C 0.59356 0.09839 0.85 0.0
H2315 H 0.63247 0.10081 0.85136 0.0
H2316 H 0.61994 0.09536 0.87893 0.0
H2317 H 0.61869 0.09633 0.82744 0.0
H2318 H 0.59339 0.11876 0.77656 0.0
H2319 H 0.57486 0.10774 0.76062 0.0
H2320 H 0.07429 0.61649 0.28744 0.0
H2321 H 0.09319 0.62563 0.30899 0.0
H2322 H 0.10412 0.59165 0.35919 0.0
H2323 H 0.08515 0.58241 0.33784 0.0
H2324 H 0.10344 0.61052 0.41102 0.0
H2325 H 0.12912 0.62417 0.28219 0.0
H2326 H 0.11352 0.62861 0.27902 0.0
H2327 H 0.11738 0.61277 0.28082 0.0
C2328 C 0.08087 0.61085 0.30201 0.0
C2329 C 0.07819 0.59877 0.31124 0.0
C2330 C 0.09171 0.61607 0.31413 0.0
C2331 C 0.10008 0.60929 0.33551 0.0
C2332 C 0.09779 0.597 0.34256 0.0
H2333 H 0.15933 0.65532 0.41587 0.0
H2334 H 0.14977 0.63625 0.39694 0.0
C2335 C 0.08696 0.59175 0.33026 0.0
C2336 C 0.11013 0.61557 0.35519 0.0
H2337 H 0.1325 0.63621 0.33952 0.0
C2338 C 0.11002 0.61589 0.39544 0.0
C2339 C 0.1188 0.62245 0.33491 0.0
C2340 C 0.11981 0.62189 0.29184 0.0
C2341 C 0.11769 0.6237 0.41579 0.0
C2342 C 0.12554 0.63143 0.39527 0.0
C2343 C 0.12637 0.63035 0.35523 0.0
C2344 C 0.13174 0.64174 0.41384 0.0
C2345 C 0.11697 0.62395 0.45895 0.0
C2346 C 0.1248 0.65099 0.43062 0.0
C2347 C 0.13021 0.66188 0.44133 0.0
C2348 C 0.14264 0.66374 0.43527 0.0
C2349 C 0.14972 0.65415 0.42095 0.0
C2350 C 0.14429 0.64326 0.41003 0.0
H2351 H 0.11394 0.61508 0.47048 0.0
H2352 H 0.12586 0.62629 0.47188 0.0
H2353 H 0.11026 0.63088 0.46789 0.0
H2354 H 0.11507 0.65009 0.43316 0.0
H2355 H 0.12452 0.6691 0.45224 0.0
H2356 H 0.63393 0.82724 0.50357 0.0
H2357 H 0.6226 0.8455 0.52041 0.0
H2358 H 0.64653 0.85146 0.61643 0.0
H2359 H 0.6583 0.83371 0.59812 0.0
H2360 H 0.61027 0.84602 0.58141 0.0
H2361 H 0.64062 0.8856 0.58835 0.0
H2362 H 0.645 0.87171 0.56482 0.0
H2363 H 0.64672 0.87336 0.61596 0.0
C2364 C 0.63703 0.83275 0.52732 0.0
C2365 C 0.64693 0.82907 0.54965 0.0
C2366 C 0.63055 0.84316 0.53701 0.0
C2367 C 0.63367 0.84991 0.56975 0.0
C2368 C 0.64407 0.84666 0.59054 0.0
H2369 H 0.57709 0.87967 0.71067 0.0
H2370 H 0.59502 0.86886 0.68766 0.0
C2371 C 0.65076 0.83642 0.58019 0.0
C2372 C 0.62495 0.85881 0.58579 0.0
H2373 H 0.6224 0.88676 0.62716 0.0
C2374 C 0.61293 0.85499 0.59079 0.0
C2375 C 0.62835 0.87055 0.59805 0.0
C2376 C 0.64085 0.87557 0.59111 0.0
C2377 C 0.60429 0.86243 0.60821 0.0
C2378 C 0.60786 0.87384 0.62279 0.0
C2379 C 0.61977 0.87787 0.6169 0.0
C2380 C 0.59909 0.88178 0.64282 0.0
C2381 C 0.59136 0.85801 0.61018 0.0
C2382 C 0.59614 0.89314 0.62749 0.0
C2383 C 0.5861 0.8995 0.64134 0.0
C2384 C 0.57882 0.89448 0.67031 0.0
C2385 C 0.58246 0.88365 0.68797 0.0
C2386 C 0.59264 0.87744 0.67468 0.0
H2387 H 0.58952 0.85095 0.58823 0.0
H2388 H 0.58968 0.85392 0.63874 0.0
H2389 H 0.58484 0.86555 0.60594 0.0
H2390 H 0.60107 0.8967 0.60313 0.0
H2391 H 0.5835 0.90785 0.62725 0.0
H2392 H 0.41696 0.37401 0.7877 0.0
H2393 H 0.39829 0.36499 0.81162 0.0
H2394 H 0.38789 0.39921 0.86143 0.0
H2395 H 0.40663 0.40834 0.83759 0.0
H2396 H 0.38906 0.38043 0.91396 0.0
H2397 H 0.36208 0.36656 0.78818 0.0
H2398 H 0.37765 0.36221 0.78308 0.0
H2399 H 0.37372 0.37803 0.78548 0.0
C2400 C 0.41054 0.37972 0.80273 0.0
C2401 C 0.4133 0.39184 0.81104 0.0
C2402 C 0.39983 0.37457 0.8162 0.0
C2403 C 0.39168 0.38146 0.83808 0.0
C2404 C 0.39404 0.39378 0.84439 0.0
H2405 H 0.33498 0.33331 0.92195 0.0
H2406 H 0.34329 0.35306 0.90442 0.0
C2407 C 0.40474 0.39896 0.83069 0.0
C2408 C 0.38182 0.37527 0.85891 0.0
H2409 H 0.35967 0.35427 0.84562 0.0
C2410 C 0.38239 0.37496 0.89912 0.0
C2411 C 0.37301 0.36831 0.83961 0.0
C2412 C 0.37149 0.36889 0.7967 0.0
C2413 C 0.37511 0.36699 0.92026 0.0
C2414 C 0.36722 0.35909 0.90056 0.0
C2415 C 0.36584 0.36024 0.8607 0.0
C2416 C 0.36173 0.34844 0.91941 0.0
C2417 C 0.37635 0.3667 0.96329 0.0
C2418 C 0.36929 0.33946 0.93484 0.0
C2419 C 0.3646 0.32817 0.94475 0.0
C2420 C 0.35226 0.32565 0.93916 0.0
C2421 C 0.34453 0.33497 0.92653 0.0
C2422 C 0.34926 0.34626 0.91646 0.0
H2423 H 0.37909 0.3757 0.9746 0.0
H2424 H 0.36776 0.36392 0.97726 0.0
H2425 H 0.38351 0.36011 0.97126 0.0
H2426 H 0.37898 0.34087 0.93667 0.0
H2427 H 0.37077 0.32118 0.95442 0.0
H2428 H 0.86799 0.17345 0.02701 0.0
H2429 H 0.87859 0.15538 0.04927 0.0
H2430 H 0.84528 0.14145 0.09629 0.0
H2431 H 0.83456 0.15951 0.07399 0.0
H2432 H 0.86418 0.14487 0.15009 0.0
H2433 H 0.88003 0.11886 0.02387 0.0
H2434 H 0.88271 0.13484 0.01978 0.0
H2435 H 0.86742 0.12928 0.02172 0.0
C2436 C 0.86283 0.16636 0.0409 0.0
C2437 C 0.85047 0.16795 0.04909 0.0
C2438 C 0.86889 0.15601 0.05348 0.0
C2439 C 0.8627 0.14709 0.07435 0.0
C2440 C 0.85019 0.14823 0.08008 0.0
H2441 H 0.90889 0.08967 0.16726 0.0
H2442 H 0.89022 0.0993 0.14492 0.0
C2443 C 0.84408 0.15854 0.06721 0.0
C2444 C 0.86967 0.13777 0.09518 0.0
H2445 H 0.89135 0.11617 0.08241 0.0
C2446 C 0.86992 0.13838 0.13538 0.0
C2447 C 0.87707 0.12929 0.07593 0.0
C2448 C 0.87673 0.12792 0.03294 0.0
C2449 C 0.87802 0.1313 0.1567 0.0
C2450 C 0.88605 0.12348 0.13721 0.0
C2451 C 0.88521 0.12225 0.09724 0.0
C2452 C 0.89626 0.11752 0.15699 0.0
C2453 C 0.87823 0.13254 0.19974 0.0
C2454 C 0.90567 0.1246 0.17205 0.0
C2455 C 0.91636 0.11916 0.1846 0.0
C2456 C 0.9178 0.10654 0.18226 0.0
C2457 C 0.90804 0.09941 0.16952 0.0
C2458 C 0.89738 0.10489 0.15664 0.0
H2459 H 0.86949 0.13608 0.21088 0.0
H2460 H 0.88019 0.12371 0.21365 0.0
H2461 H 0.88547 0.139 0.20799 0.0
H2462 H 0.90502 0.13439 0.17205 0.0
H2463 H 0.92372 0.12488 0.19422 0.0
H2464 H 0.86922 0.67367 0.94777 0.0
H2465 H 0.8791 0.65495 0.92765 0.0
H2466 H 0.8446 0.64019 0.89367 0.0
H2467 H 0.8346 0.659 0.91338 0.0
H2468 H 0.8763 0.62962 0.9425 0.0
H2469 H 0.86434 0.64269 0.79285 0.0
H2470 H 0.86279 0.65307 0.83249 0.0
H2471 H 0.85211 0.64097 0.82646 0.0
C2472 C 0.86367 0.66634 0.93694 0.0
C2473 C 0.85116 0.66788 0.93154 0.0
C2474 C 0.86934 0.65564 0.92548 0.0
C2475 C 0.86259 0.64633 0.90845 0.0
C2476 C 0.84996 0.64739 0.90618 0.0
H2477 H 0.9082 0.5858 0.82805 0.0
H2478 H 0.88961 0.59566 0.85052 0.0
C2479 C 0.84427 0.65811 0.91766 0.0
C2480 C 0.86908 0.63629 0.88932 0.0
H2481 H 0.87804 0.62672 0.80065 0.0
C2482 C 0.8765 0.62876 0.91154 0.0
C2483 C 0.86935 0.63533 0.84886 0.0
C2484 C 0.8618 0.64346 0.82357 0.0
C2485 C 0.88468 0.62069 0.8943 0.0
C2486 C 0.88531 0.6201 0.85382 0.0
C2487 C 0.87743 0.62717 0.83165 0.0
C2488 C 0.89531 0.61368 0.83431 0.0
C2489 C 0.89317 0.6135 0.91944 0.0
C2490 C 0.90431 0.62049 0.8159 0.0
C2491 C 0.91487 0.61491 0.80294 0.0
C2492 C 0.9166 0.60241 0.80811 0.0
C2493 C 0.90715 0.59546 0.82382 0.0
C2494 C 0.89656 0.60107 0.83689 0.0
H2495 H 0.89254 0.6162 0.95006 0.0
H2496 H 0.89091 0.60374 0.91725 0.0
H2497 H 0.90268 0.61468 0.90978 0.0
H2498 H 0.90346 0.63023 0.8135 0.0
H2499 H 0.92195 0.6205 0.79075 0.0
H2500 H 0.1563 0.15953 0.58638 0.0
H2501 H 0.1468 0.14088 0.60948 0.0
H2502 H 0.11254 0.15262 0.56323 0.0
H2503 H 0.12192 0.17123 0.54006 0.0
H2504 H 0.12781 0.14158 0.66322 0.0
H2505 H 0.11415 0.11672 0.53251 0.0
H2506 H 0.12569 0.12831 0.53216 0.0
H2507 H 0.10992 0.13241 0.53091 0.0
C2508 C 0.14682 0.15799 0.58021 0.0
C2509 C 0.13983 0.16687 0.56155 0.0
C2510 C 0.14141 0.14735 0.59353 0.0
C2511 C 0.12901 0.14536 0.58784 0.0
C2512 C 0.12218 0.1539 0.56735 0.0
H2513 H 0.06996 0.11773 0.70409 0.0
H2514 H 0.0886 0.12817 0.68658 0.0
C2515 C 0.12754 0.16456 0.55427 0.0
C2516 C 0.1228 0.13519 0.60703 0.0
H2517 H 0.10274 0.11241 0.58998 0.0
C2518 C 0.12254 0.135 0.64727 0.0
C2519 C 0.11608 0.12653 0.5862 0.0
C2520 C 0.11655 0.1259 0.54304 0.0
C2521 C 0.115 0.12695 0.66718 0.0
C2522 C 0.10748 0.11901 0.64619 0.0
C2523 C 0.10844 0.11858 0.60607 0.0
C2524 C 0.09753 0.11216 0.66446 0.0
C2525 C 0.11485 0.1273 0.71038 0.0
C2526 C 0.09648 0.09964 0.65871 0.0
C2527 C 0.08579 0.09364 0.6686 0.0
C2528 C 0.07594 0.10013 0.68394 0.0
C2529 C 0.07738 0.11249 0.69232 0.0
C2530 C 0.08807 0.11846 0.68251 0.0
H2531 H 0.12365 0.13053 0.72193 0.0
H2532 H 0.10773 0.1337 0.72008 0.0
H2533 H 0.11286 0.11824 0.72262 0.0
H2534 H 0.10367 0.09464 0.64469 0.0
H2535 H 0.08497 0.0841 0.66185 0.0
H2536 H 0.56651 0.37199 0.29464 0.0
H2537 H 0.58365 0.36007 0.31799 0.0
H2538 H 0.60049 0.39252 0.36134 0.0
H2539 H 0.58335 0.40455 0.33822 0.0
H2540 H 0.6097 0.36195 0.30636 0.0
H2541 H 0.59495 0.37019 0.45688 0.0
H2542 H 0.58518 0.37303 0.41637 0.0
H2543 H 0.59731 0.38328 0.4271 0.0
C2544 C 0.57396 0.37663 0.30846 0.0
C2545 C 0.57352 0.38918 0.31497 0.0
C2546 C 0.58373 0.36981 0.3218 0.0
C2547 C 0.59317 0.37542 0.34194 0.0
C2548 C 0.59317 0.38804 0.34633 0.0
H2549 H 0.655 0.3314 0.41538 0.0
H2550 H 0.64336 0.34938 0.39738 0.0
C2551 C 0.58341 0.39488 0.3329 0.0
C2552 C 0.60253 0.36789 0.36049 0.0
H2553 H 0.61149 0.3571 0.44772 0.0
C2554 C 0.61025 0.361 0.33726 0.0
C2555 C 0.60305 0.36663 0.40082 0.0
C2556 C 0.59465 0.37359 0.42692 0.0
C2557 C 0.61834 0.35262 0.35329 0.0
C2558 C 0.61874 0.35123 0.3936 0.0
C2559 C 0.61121 0.35833 0.41689 0.0
C2560 C 0.62599 0.34153 0.41148 0.0
C2561 C 0.62596 0.3449 0.32693 0.0
C2562 C 0.62009 0.33149 0.42747 0.0
C2563 C 0.62669 0.32123 0.43791 0.0
C2564 C 0.6393 0.32088 0.43251 0.0
C2565 C 0.64529 0.33137 0.41963 0.0
C2566 C 0.63866 0.34162 0.40915 0.0
H2567 H 0.62316 0.34578 0.29647 0.0
H2568 H 0.63558 0.3477 0.32927 0.0
H2569 H 0.62537 0.33521 0.3353 0.0
H2570 H 0.6103 0.33131 0.42966 0.0
H2571 H 0.62183 0.31333 0.44795 0.0
H2572 H 0.33728 0.8298 0.10589 0.0
H2573 H 0.34956 0.84749 0.12036 0.0
H2574 H 0.3724 0.83964 0.023 0.0
H2575 H 0.36052 0.82141 0.00988 0.0
H2576 H 0.38551 0.84153 0.08178 0.0
H2577 H 0.35493 0.88093 0.08554 0.0
H2578 H 0.34906 0.86928 0.11597 0.0
H2579 H 0.35035 0.86663 0.06508 0.0
C2580 C 0.34471 0.83203 0.08689 0.0
C2581 C 0.34803 0.82419 0.05695 0.0
C2582 C 0.35168 0.84225 0.09501 0.0
C2583 C 0.36187 0.84502 0.07261 0.0
C2584 C 0.3646 0.83769 0.04077 0.0
H2585 H 0.41073 0.9048 0.12515 0.0
H2586 H 0.3938 0.89285 0.10064 0.0
C2587 C 0.3578 0.82729 0.03322 0.0
C2588 C 0.3707 0.85422 0.08606 0.0
H2589 H 0.37319 0.88258 0.12436 0.0
C2590 C 0.38281 0.85058 0.0904 0.0
C2591 C 0.36728 0.86608 0.0971 0.0
C2592 C 0.35471 0.87098 0.09024 0.0
C2593 C 0.39148 0.85827 0.10649 0.0
C2594 C 0.38785 0.86976 0.12041 0.0
C2595 C 0.37587 0.87363 0.11474 0.0
C2596 C 0.39655 0.87791 0.13984 0.0
C2597 C 0.40448 0.85401 0.10791 0.0
C2598 C 0.40324 0.8738 0.17151 0.0
C2599 C 0.41307 0.88049 0.18505 0.0
C2600 C 0.4161 0.89157 0.16787 0.0
C2601 C 0.4086 0.89627 0.1389 0.0
C2602 C 0.39893 0.88944 0.1248 0.0
H2603 H 0.4063 0.84697 0.08589 0.0
H2604 H 0.41088 0.86163 0.10332 0.0
H2605 H 0.40633 0.84995 0.13639 0.0
H2606 H 0.40127 0.8651 0.1844 0.0
H2607 H 0.41862 0.87673 0.20773 0.0
H2608 H 0.92147 0.37617 0.69097 0.0
H2609 H 0.9034 0.36617 0.66623 0.0
H2610 H 0.89134 0.39982 0.6165 0.0
H2611 H 0.9095 0.40994 0.64093 0.0
H2612 H 0.87776 0.3704 0.67075 0.0
H2613 H 0.89675 0.37665 0.52398 0.0
H2614 H 0.9057 0.3791 0.56652 0.0
H2615 H 0.89443 0.38997 0.55275 0.0
C2616 C 0.91485 0.38152 0.67556 0.0
C2617 C 0.91699 0.39379 0.66739 0.0
C2618 C 0.90452 0.3758 0.66147 0.0
C2619 C 0.89619 0.38223 0.63894 0.0
C2620 C 0.89778 0.39469 0.63335 0.0
H2621 H 0.8371 0.33594 0.5542 0.0
H2622 H 0.84691 0.35501 0.57213 0.0
C2623 C 0.90812 0.40045 0.64752 0.0
C2624 C 0.88667 0.37546 0.61837 0.0
H2625 H 0.88009 0.36371 0.53027 0.0
C2626 C 0.87804 0.36913 0.63993 0.0
C2627 C 0.88721 0.37379 0.57818 0.0
C2628 C 0.89654 0.38015 0.55383 0.0
C2629 C 0.87033 0.36065 0.62265 0.0
C2630 C 0.87122 0.3586 0.58268 0.0
C2631 C 0.87941 0.36541 0.56082 0.0
C2632 C 0.86511 0.3482 0.56444 0.0
C2633 C 0.8619 0.35334 0.64765 0.0
C2634 C 0.87212 0.33836 0.55195 0.0
C2635 C 0.86658 0.32751 0.54151 0.0
C2636 C 0.85393 0.32634 0.54342 0.0
C2637 C 0.84688 0.33655 0.55273 0.0
C2638 C 0.85245 0.34742 0.56317 0.0
H2639 H 0.86355 0.3549 0.67868 0.0
H2640 H 0.8524 0.35589 0.64126 0.0
H2641 H 0.86295 0.34352 0.64164 0.0
H2642 H 0.88192 0.33882 0.55256 0.0
H2643 H 0.87225 0.31983 0.53423 0.0
H2644 H 0.33457 0.15725 0.40864 0.0
H2645 H 0.34531 0.13895 0.38835 0.0
H2646 H 0.37867 0.15355 0.43292 0.0
H2647 H 0.36804 0.17181 0.45338 0.0
H2648 H 0.36369 0.14081 0.33408 0.0
H2649 H 0.38051 0.1179 0.46464 0.0
H2650 H 0.36812 0.1286 0.46559 0.0
H2651 H 0.38354 0.13387 0.46502 0.0
C2652 C 0.34412 0.15639 0.41525 0.0
C2653 C 0.35049 0.16601 0.43233 0.0
C2654 C 0.35023 0.14595 0.40353 0.0
C2655 C 0.36276 0.14489 0.40925 0.0
C2656 C 0.36896 0.1541 0.42879 0.0
H2657 H 0.42263 0.12029 0.287 0.0
H2658 H 0.40401 0.13006 0.30871 0.0
C2659 C 0.36288 0.16456 0.44032 0.0
C2660 C 0.36969 0.13516 0.3901 0.0
H2661 H 0.39169 0.11411 0.40624 0.0
C2662 C 0.36962 0.13477 0.34986 0.0
C2663 C 0.37732 0.12722 0.41069 0.0
C2664 C 0.37731 0.12681 0.4539 0.0
C2665 C 0.37759 0.12722 0.32963 0.0
C2666 C 0.38589 0.11999 0.35025 0.0
C2667 C 0.38538 0.11975 0.39047 0.0
C2668 C 0.396 0.11363 0.33112 0.0
C2669 C 0.37734 0.12733 0.28642 0.0
C2670 C 0.39756 0.10112 0.33589 0.0
C2671 C 0.4082 0.09551 0.32343 0.0
C2672 C 0.41751 0.10237 0.30655 0.0
C2673 C 0.41562 0.11477 0.29984 0.0
C2674 C 0.40495 0.12035 0.3121 0.0
H2675 H 0.36833 0.13018 0.27543 0.0
H2676 H 0.38415 0.1339 0.27574 0.0
H2677 H 0.37956 0.11827 0.27453 0.0
H2678 H 0.39077 0.09581 0.35067 0.0
H2679 H 0.4094 0.08594 0.32907 0.0
H2680 H 0.65808 0.66154 0.09204 0.0
H2681 H 0.6477 0.64372 0.11766 0.0
H2682 H 0.61483 0.65465 0.06062 0.0
H2683 H 0.62508 0.67248 0.03507 0.0
H2684 H 0.62721 0.64712 0.16646 0.0
H2685 H 0.61639 0.61762 0.04266 0.0
H2686 H 0.6284 0.62873 0.04147 0.0
H2687 H 0.61292 0.63329 0.03441 0.0
C2688 C 0.64875 0.65995 0.08396 0.0
C2689 C 0.64235 0.66845 0.06175 0.0
C2690 C 0.64284 0.64979 0.09874 0.0
C2691 C 0.63054 0.64788 0.09091 0.0
C2692 C 0.62438 0.65589 0.06654 0.0
H2693 H 0.56808 0.62413 0.19977 0.0
H2694 H 0.58693 0.63435 0.18288 0.0
C2695 C 0.63024 0.6661 0.05206 0.0
C2696 C 0.62364 0.63858 0.11204 0.0
H2697 H 0.6038 0.61538 0.09857 0.0
C2698 C 0.62229 0.63998 0.15182 0.0
C2699 C 0.61734 0.62925 0.09291 0.0
C2700 C 0.61891 0.62703 0.05054 0.0
C2701 C 0.61412 0.6328 0.17256 0.0
C2702 C 0.60714 0.62409 0.15287 0.0
C2703 C 0.60912 0.62213 0.11358 0.0
C2704 C 0.59683 0.61783 0.17113 0.0
C2705 C 0.61276 0.63485 0.21508 0.0
C2706 C 0.59626 0.60516 0.17114 0.0
C2707 C 0.58549 0.59929 0.18079 0.0
C2708 C 0.57508 0.60603 0.19006 0.0
C2709 C 0.57594 0.61869 0.19278 0.0
C2710 C 0.58673 0.62455 0.18327 0.0
H2711 H 0.62107 0.6389 0.22759 0.0
H2712 H 0.60515 0.64122 0.22018 0.0
H2713 H 0.61073 0.62624 0.23025 0.0
H2714 H 0.60396 0.59983 0.16173 0.0
H2715 H 0.58513 0.58951 0.17852 0.0
H2716 H 0.06672 0.87061 0.78609 0.0
H2717 H 0.08498 0.86042 0.80885 0.0
H2718 H 0.10037 0.89482 0.84098 0.0
H2719 H 0.08208 0.90514 0.81845 0.0
H2720 H 0.11084 0.86299 0.79538 0.0
H2721 H 0.09621 0.87549 0.94318 0.0
H2722 H 0.08621 0.87675 0.90247 0.0
H2723 H 0.09816 0.88755 0.90908 0.0
C2724 C 0.0741 0.87605 0.79706 0.0
C2725 C 0.07289 0.88865 0.80105 0.0
C2726 C 0.08453 0.87021 0.81005 0.0
C2727 C 0.09387 0.87687 0.82725 0.0
C2728 C 0.09315 0.88954 0.82828 0.0
H2729 H 0.15435 0.83278 0.91338 0.0
H2730 H 0.14406 0.85114 0.8913 0.0
C2731 C 0.08272 0.8954 0.8152 0.0
C2732 C 0.1036 0.87035 0.84763 0.0
H2733 H 0.11234 0.86181 0.93753 0.0
C2734 C 0.11139 0.8629 0.82642 0.0
C2735 C 0.10413 0.87023 0.88816 0.0
C2736 C 0.09571 0.87786 0.91227 0.0
C2737 C 0.11936 0.85489 0.84474 0.0
C2738 C 0.11958 0.85445 0.88528 0.0
C2739 C 0.11218 0.86229 0.90648 0.0
C2740 C 0.12613 0.84475 0.90571 0.0
C2741 C 0.12692 0.84641 0.82063 0.0
C2742 C 0.11948 0.83546 0.92322 0.0
C2743 C 0.12531 0.82499 0.93596 0.0
C2744 C 0.13788 0.82369 0.93139 0.0
C2745 C 0.14464 0.83349 0.91705 0.0
C2746 C 0.13879 0.84396 0.90424 0.0
H2747 H 0.12447 0.84682 0.78978 0.0
H2748 H 0.13662 0.84886 0.82349 0.0
H2749 H 0.12584 0.83693 0.83069 0.0
H2750 H 0.10969 0.83596 0.92477 0.0
H2751 H 0.11986 0.81764 0.9471 0.0
loop_
_geom_bond_atom_site_label_1
_geom_bond_atom_site_label_2
_geom_bond_distance
_geom_bond_site_symmetry_2
_ccdc_geom_bond_type
C0 O1 1.306 1_556 S
C0 O3 1.167 . S
O1 C0 1.306 1_554 S
O1 Cd2 2.228 . S
Cd2 O1 2.228 . S
Cd2 O6 2.273 . S
Cd2 O10 2.277 . S
O3 C0 1.167 . S
O3 Cd4 2.179 1_556 S
Cd4 O3 2.179 1_554 S
Cd4 O6 2.411 . S
Cd4 O7 2.333 . S
Cd4 O8 2.352 . S
Cd4 O12 2.277 . S
Cd4 O13 2.356 . S
C5 O10 1.209 . S
C5 O12 1.226 . S
O6 Cd2 2.273 . S
O6 Cd4 2.411 . S
O6 C9 1.320 . S
O7 Cd4 2.333 . S
O7 C9 1.214 . S
O8 Cd4 2.352 . S
O8 C11 1.258 . S
C9 O6 1.320 . S
C9 O7 1.214 . S
O10 Cd2 2.277 . S
O10 C5 1.209 . S
C11 O8 1.258 . S
C11 O13 1.282 . S
O12 Cd4 2.277 . S
O12 C5 1.226 . S
O13 Cd4 2.356 . S
O13 C11 1.282 . S
C14 O15 1.306 . S
C14 O17 1.160 . S
O15 C14 1.306 . S
O15 Cd16 2.228 . S
Cd16 O15 2.228 . S
Cd16 O20 2.273 . S
Cd16 O24 2.277 . S
O17 C14 1.160 . S
O17 Cd18 2.203 . S
Cd18 O17 2.203 . S
Cd18 O20 2.411 . S
Cd18 O21 2.333 . S
Cd18 O22 2.352 . S
Cd18 O26 2.277 . S
Cd18 O27 2.356 . S
C19 O24 1.209 . S
C19 O26 1.226 . S
O20 Cd16 2.273 . S
O20 Cd18 2.411 . S
O20 C23 1.320 . S
O21 Cd18 2.333 . S
O21 C23 1.214 . S
O22 Cd18 2.352 . S
O22 C25 1.258 . S
C23 O20 1.320 . S
C23 O21 1.214 . S
O24 Cd16 2.277 . S
O24 C19 1.209 . S
C25 O22 1.258 . S
C25 O27 1.282 . S
O26 Cd18 2.277 . S
O26 C19 1.226 . S
O27 Cd18 2.356 . S
O27 C25 1.282 . S
C28 O29 1.306 . S
C28 O31 1.160 . S
O29 C28 1.306 . S
O29 Cd30 2.228 . S
Cd30 O29 2.228 . S
Cd30 O34 2.273 . S
Cd30 O38 2.277 . S
O31 C28 1.160 . S
O31 Cd32 2.203 . S
Cd32 O31 2.203 . S
Cd32 O34 2.411 . S
Cd32 O35 2.333 . S
Cd32 O36 2.352 . S
Cd32 O40 2.277 . S
Cd32 O41 2.356 . S
C33 O38 1.209 . S
C33 O40 1.226 . S
O34 Cd30 2.273 . S
O34 Cd32 2.411 . S
O34 C37 1.320 . S
O35 Cd32 2.333 . S
O35 C37 1.214 . S
O36 Cd32 2.352 . S
O36 C39 1.258 . S
C37 O34 1.320 . S
C37 O35 1.214 . S
O38 Cd30 2.277 . S
O38 C33 1.209 . S
C39 O36 1.258 . S
C39 O41 1.282 . S
O40 Cd32 2.277 . S
O40 C33 1.226 . S
O41 Cd32 2.356 . S
O41 C39 1.282 . S
C42 O43 1.306 . S
C42 O45 1.160 . S
O43 C42 1.306 . S
O43 Cd44 2.228 . S
Cd44 O43 2.228 . S
Cd44 O48 2.273 . S
Cd44 O52 2.277 . S
O45 C42 1.160 . S
O45 Cd46 2.203 . S
Cd46 O45 2.203 . S
Cd46 O48 2.411 . S
Cd46 O49 2.333 . S
Cd46 O50 2.352 . S
Cd46 O54 2.277 . S
Cd46 O55 2.356 . S
C47 O52 1.209 . S
C47 O54 1.226 . S
O48 Cd44 2.273 . S
O48 Cd46 2.411 . S
O48 C51 1.320 . S
O49 Cd46 2.333 . S
O49 C51 1.214 . S
O50 Cd46 2.352 . S
O50 C53 1.258 . S
C51 O48 1.320 . S
C51 O49 1.214 . S
O52 Cd44 2.277 . S
O52 C47 1.209 . S
C53 O50 1.258 . S
C53 O55 1.282 . S
O54 Cd46 2.277 . S
O54 C47 1.226 . S
O55 Cd46 2.356 . S
O55 C53 1.282 . S
C56 O57 1.306 . S
C56 O59 1.160 . S
O57 C56 1.306 . S
O57 Cd58 2.228 . S
Cd58 O57 2.228 . S
Cd58 O62 2.273 . S
Cd58 O66 2.277 . S
O59 C56 1.160 . S
O59 Cd60 2.203 . S
Cd60 O59 2.203 . S
Cd60 O62 2.411 . S
Cd60 O63 2.333 . S
Cd60 O64 2.352 . S
Cd60 O68 2.277 . S
Cd60 O69 2.356 . S
C61 O66 1.209 . S
C61 O68 1.226 . S
O62 Cd58 2.273 . S
O62 Cd60 2.411 . S
O62 C65 1.320 . S
O63 Cd60 2.333 . S
O63 C65 1.214 . S
O64 Cd60 2.352 . S
O64 C67 1.258 . S
C65 O62 1.320 . S
C65 O63 1.214 . S
O66 Cd58 2.277 . S
O66 C61 1.209 . S
C67 O64 1.258 . S
C67 O69 1.282 . S
O68 Cd60 2.277 . S
O68 C61 1.226 . S
O69 Cd60 2.356 . S
O69 C67 1.282 . S
C70 O71 1.306 . S
C70 O73 1.160 . S
O71 C70 1.306 . S
O71 Cd72 2.228 . S
Cd72 O71 2.228 . S
Cd72 O76 2.273 . S
Cd72 O80 2.277 . S
O73 C70 1.160 . S
O73 Cd74 2.203 . S
Cd74 O73 2.203 . S
Cd74 O76 2.411 . S
Cd74 O77 2.333 . S
Cd74 O78 2.352 . S
Cd74 O82 2.277 . S
Cd74 O83 2.356 . S
C75 O80 1.209 . S
C75 O82 1.226 . S
O76 Cd72 2.273 . S
O76 Cd74 2.411 . S
O76 C79 1.320 . S
O77 Cd74 2.333 . S
O77 C79 1.214 . S
O78 Cd74 2.352 . S
O78 C81 1.258 . S
C79 O76 1.320 . S
C79 O77 1.214 . S
O80 Cd72 2.277 . S
O80 C75 1.209 . S
C81 O78 1.258 . S
C81 O83 1.282 . S
O82 Cd74 2.277 . S
O82 C75 1.226 . S
O83 Cd74 2.356 . S
O83 C81 1.282 . S
C84 O85 1.306 1_554 S
C84 O87 1.167 . S
O85 C84 1.306 1_556 S
O85 Cd86 2.228 . S
Cd86 O85 2.228 . S
Cd86 O90 2.273 . S
Cd86 O94 2.277 . S
O87 C84 1.167 . S
O87 Cd88 2.180 1_554 S
Cd88 O87 2.180 1_556 S
Cd88 O90 2.411 . S
Cd88 O91 2.333 . S
Cd88 O92 2.352 . S
Cd88 O96 2.277 . S
Cd88 O97 2.356 . S
C89 O94 1.209 . S
C89 O96 1.226 . S
O90 Cd86 2.273 . S
O90 Cd88 2.411 . S
O90 C93 1.320 . S
O91 Cd88 2.333 . S
O91 C93 1.214 . S
O92 Cd88 2.352 . S
O92 C95 1.258 . S
C93 O90 1.320 . S
C93 O91 1.214 . S
O94 Cd86 2.277 . S
O94 C89 1.209 . S
C95 O92 1.258 . S
C95 O97 1.282 . S
O96 Cd88 2.277 . S
O96 C89 1.226 . S
O97 Cd88 2.356 . S
O97 C95 1.282 . S
C98 O99 1.306 . S
C98 O101 1.160 . S
O99 C98 1.306 . S
O99 Cd100 2.228 . S
Cd100 O99 2.228 . S
Cd100 O104 2.273 . S
Cd100 O108 2.277 . S
O101 C98 1.160 . S
O101 Cd102 2.203 . S
Cd102 O101 2.203 . S
Cd102 O104 2.411 . S
Cd102 O105 2.333 . S
Cd102 O106 2.352 . S
Cd102 O110 2.277 . S
Cd102 O111 2.356 . S
C103 O108 1.209 . S
C103 O110 1.226 . S
O104 Cd100 2.273 . S
O104 Cd102 2.411 . S
O104 C107 1.320 . S
O105 Cd102 2.333 . S
O105 C107 1.214 . S
O106 Cd102 2.352 . S
O106 C109 1.258 . S
C107 O104 1.320 . S
C107 O105 1.214 . S
O108 Cd100 2.277 . S
O108 C103 1.209 . S
C109 O106 1.258 . S
C109 O111 1.282 . S
O110 Cd102 2.277 . S
O110 C103 1.226 . S
O111 Cd102 2.356 . S
O111 C109 1.282 . S
C112 O113 1.306 1_554 S
C112 O115 1.167 . S
O113 C112 1.306 1_556 S
O113 Cd114 2.228 . S
Cd114 O113 2.228 . S
Cd114 O118 2.273 . S
Cd114 O122 2.277 . S
O115 C112 1.167 . S
O115 Cd116 2.179 1_554 S
Cd116 O115 2.179 1_556 S
Cd116 O118 2.411 . S
Cd116 O119 2.333 . S
Cd116 O120 2.352 . S
Cd116 O124 2.277 . S
Cd116 O125 2.356 . S
C117 O122 1.209 . S
C117 O124 1.226 . S
O118 Cd114 2.273 . S
O118 Cd116 2.411 . S
O118 C121 1.320 . S
O119 Cd116 2.333 . S
O119 C121 1.214 . S
O120 Cd116 2.352 . S
O120 C123 1.258 . S
C121 O118 1.320 . S
C121 O119 1.214 . S
O122 Cd114 2.277 . S
O122 C117 1.209 . S
C123 O120 1.258 . S
C123 O125 1.282 . S
O124 Cd116 2.277 . S
O124 C117 1.226 . S
O125 Cd116 2.356 . S
O125 C123 1.282 . S
C126 O127 1.306 . S
C126 O129 1.160 . S
O127 C126 1.306 . S
O127 Cd128 2.228 . S
Cd128 O127 2.228 . S
Cd128 O132 2.273 . S
Cd128 O136 2.277 . S
O129 C126 1.160 . S
O129 Cd130 2.203 . S
Cd130 O129 2.203 . S
Cd130 O132 2.411 . S
Cd130 O133 2.333 . S
Cd130 O134 2.352 . S
Cd130 O138 2.277 . S
Cd130 O139 2.356 . S
C131 O136 1.209 . S
C131 O138 1.226 . S
O132 Cd128 2.273 . S
O132 Cd130 2.411 . S
O132 C135 1.320 . S
O133 Cd130 2.333 . S
O133 C135 1.214 . S
O134 Cd130 2.352 . S
O134 C137 1.258 . S
C135 O132 1.320 . S
C135 O133 1.214 . S
O136 Cd128 2.277 . S
O136 C131 1.209 . S
C137 O134 1.258 . S
C137 O139 1.282 . S
O138 Cd130 2.277 . S
O138 C131 1.226 . S
O139 Cd130 2.356 . S
O139 C137 1.282 . S
C140 O141 1.306 . S
C140 O143 1.160 . S
O141 C140 1.306 . S
O141 Cd142 2.228 . S
Cd142 O141 2.228 . S
Cd142 O146 2.273 . S
Cd142 O150 2.277 . S
O143 C140 1.160 . S
O143 Cd144 2.203 . S
Cd144 O143 2.203 . S
Cd144 O146 2.411 . S
Cd144 O147 2.333 . S
Cd144 O148 2.352 . S
Cd144 O152 2.277 . S
Cd144 O153 2.356 . S
C145 O150 1.209 . S
C145 O152 1.226 . S
O146 Cd142 2.273 . S
O146 Cd144 2.411 . S
O146 C149 1.320 . S
O147 Cd144 2.333 . S
O147 C149 1.214 . S
O148 Cd144 2.352 . S
O148 C151 1.258 . S
C149 O146 1.320 . S
C149 O147 1.214 . S
O150 Cd142 2.277 . S
O150 C145 1.209 . S
C151 O148 1.258 . S
C151 O153 1.282 . S
O152 Cd144 2.277 . S
O152 C145 1.226 . S
O153 Cd144 2.356 . S
O153 C151 1.282 . S
C154 O155 1.306 . S
C154 O157 1.160 . S
O155 C154 1.306 . S
O155 Cd156 2.228 . S
Cd156 O155 2.228 . S
Cd156 O160 2.273 . S
Cd156 O164 2.277 . S
O157 C154 1.160 . S
O157 Cd158 2.203 . S
Cd158 O157 2.203 . S
Cd158 O160 2.411 . S
Cd158 O161 2.333 . S
Cd158 O162 2.352 . S
Cd158 O166 2.277 . S
Cd158 O167 2.356 . S
C159 O164 1.209 . S
C159 O166 1.226 . S
O160 Cd156 2.273 . S
O160 Cd158 2.411 . S
O160 C163 1.320 . S
O161 Cd158 2.333 . S
O161 C163 1.214 . S
O162 Cd158 2.352 . S
O162 C165 1.258 . S
C163 O160 1.320 . S
C163 O161 1.214 . S
O164 Cd156 2.277 . S
O164 C159 1.209 . S
C165 O162 1.258 . S
C165 O167 1.282 . S
O166 Cd158 2.277 . S
O166 C159 1.226 . S
O167 Cd158 2.356 . S
O167 C165 1.282 . S
C168 O169 1.306 . S
C168 O171 1.160 . S
O169 C168 1.306 . S
O169 Cd170 2.228 . S
Cd170 O169 2.228 . S
Cd170 O174 2.273 . S
Cd170 O178 2.277 . S
O171 C168 1.160 . S
O171 Cd172 2.203 . S
Cd172 O171 2.203 . S
Cd172 O174 2.411 . S
Cd172 O175 2.333 . S
Cd172 O176 2.352 . S
Cd172 O180 2.277 . S
Cd172 O181 2.356 . S
C173 O178 1.209 . S
C173 O180 1.226 . S
O174 Cd170 2.273 . S
O174 Cd172 2.411 . S
O174 C177 1.320 . S
O175 Cd172 2.333 . S
O175 C177 1.214 . S
O176 Cd172 2.352 . S
O176 C179 1.258 . S
C177 O174 1.320 . S
C177 O175 1.214 . S
O178 Cd170 2.277 . S
O178 C173 1.209 . S
C179 O176 1.258 . S
C179 O181 1.282 . S
O180 Cd172 2.277 . S
O180 C173 1.226 . S
O181 Cd172 2.356 . S
O181 C179 1.282 . S
C182 O183 1.306 . S
C182 O185 1.160 . S
O183 C182 1.306 . S
O183 Cd184 2.228 . S
Cd184 O183 2.228 . S
Cd184 O188 2.273 . S
Cd184 O192 2.277 . S
O185 C182 1.160 . S
O185 Cd186 2.203 . S
Cd186 O185 2.203 . S
Cd186 O188 2.411 . S
Cd186 O189 2.333 . S
Cd186 O190 2.352 . S
Cd186 O194 2.277 . S
Cd186 O195 2.356 . S
C187 O192 1.209 . S
C187 O194 1.226 . S
O188 Cd184 2.273 . S
O188 Cd186 2.411 . S
O188 C191 1.320 . S
O189 Cd186 2.333 . S
O189 C191 1.214 . S
O190 Cd186 2.352 . S
O190 C193 1.258 . S
C191 O188 1.320 . S
C191 O189 1.214 . S
O192 Cd184 2.277 . S
O192 C187 1.209 . S
C193 O190 1.258 . S
C193 O195 1.282 . S
O194 Cd186 2.277 . S
O194 C187 1.226 . S
O195 Cd186 2.356 . S
O195 C193 1.282 . S
C196 O197 1.306 1_556 S
C196 O199 1.167 . S
O197 C196 1.306 1_554 S
O197 Cd198 2.228 . S
Cd198 O197 2.228 . S
Cd198 O202 2.273 . S
Cd198 O206 2.277 . S
O199 C196 1.167 . S
O199 Cd200 2.180 1_556 S
Cd200 O199 2.180 1_554 S
Cd200 O202 2.411 . S
Cd200 O203 2.333 . S
Cd200 O204 2.352 . S
Cd200 O208 2.277 . S
Cd200 O209 2.356 . S
C201 O206 1.209 . S
C201 O208 1.226 . S
O202 Cd198 2.273 . S
O202 Cd200 2.411 . S
O202 C205 1.320 . S
O203 Cd200 2.333 . S
O203 C205 1.214 . S
O204 Cd200 2.352 . S
O204 C207 1.258 . S
C205 O202 1.320 . S
C205 O203 1.214 . S
O206 Cd198 2.277 . S
O206 C201 1.209 . S
C207 O204 1.258 . S
C207 O209 1.282 . S
O208 Cd200 2.277 . S
O208 C201 1.226 . S
O209 Cd200 2.356 . S
O209 C207 1.282 . S
C210 O211 1.306 . S
C210 O213 1.160 . S
O211 C210 1.306 . S
O211 Cd212 2.228 . S
Cd212 O211 2.228 . S
Cd212 O216 2.273 . S
Cd212 O220 2.277 . S
O213 C210 1.160 . S
O213 Cd214 2.203 . S
Cd214 O213 2.203 . S
Cd214 O216 2.411 . S
Cd214 O217 2.333 . S
Cd214 O218 2.352 . S
Cd214 O222 2.277 . S
Cd214 O223 2.356 . S
C215 O220 1.209 . S
C215 O222 1.226 . S
O216 Cd212 2.273 . S
O216 Cd214 2.411 . S
O216 C219 1.320 . S
O217 Cd214 2.333 . S
O217 C219 1.214 . S
O218 Cd214 2.352 . S
O218 C221 1.258 . S
C219 O216 1.320 . S
C219 O217 1.214 . S
O220 Cd212 2.277 . S
O220 C215 1.209 . S
C221 O218 1.258 . S
C221 O223 1.282 . S
O222 Cd214 2.277 . S
O222 C215 1.226 . S
O223 Cd214 2.356 . S
O223 C221 1.282 . S
C224 O225 1.306 . S
C224 O227 1.160 . S
O225 C224 1.306 . S
O225 Cd226 2.228 . S
Cd226 O225 2.228 . S
Cd226 O230 2.273 . S
Cd226 O234 2.277 . S
O227 C224 1.160 . S
O227 Cd228 2.203 . S
Cd228 O227 2.203 . S
Cd228 O230 2.411 . S
Cd228 O231 2.333 . S
Cd228 O232 2.352 . S
Cd228 O236 2.277 . S
Cd228 O237 2.356 . S
C229 O234 1.209 . S
C229 O236 1.226 . S
O230 Cd226 2.273 . S
O230 Cd228 2.411 . S
O230 C233 1.320 . S
O231 Cd228 2.333 . S
O231 C233 1.214 . S
O232 Cd228 2.352 . S
O232 C235 1.258 . S
C233 O230 1.320 . S
C233 O231 1.214 . S
O234 Cd226 2.277 . S
O234 C229 1.209 . S
C235 O232 1.258 . S
C235 O237 1.282 . S
O236 Cd228 2.277 . S
O236 C229 1.226 . S
O237 Cd228 2.356 . S
O237 C235 1.282 . S
C238 O239 1.306 . S
C238 O241 1.160 . S
O239 C238 1.306 . S
O239 Cd240 2.228 . S
Cd240 O239 2.228 . S
Cd240 O244 2.273 . S
Cd240 O248 2.277 . S
O241 C238 1.160 . S
O241 Cd242 2.203 . S
Cd242 O241 2.203 . S
Cd242 O244 2.411 . S
Cd242 O245 2.333 . S
Cd242 O246 2.352 . S
Cd242 O250 2.277 . S
Cd242 O251 2.356 . S
C243 O248 1.209 . S
C243 O250 1.226 . S
O244 Cd240 2.273 . S
O244 Cd242 2.411 . S
O244 C247 1.320 . S
O245 Cd242 2.333 . S
O245 C247 1.214 . S
O246 Cd242 2.352 . S
O246 C249 1.258 . S
C247 O244 1.320 . S
C247 O245 1.214 . S
O248 Cd240 2.277 . S
O248 C243 1.209 . S
C249 O246 1.258 . S
C249 O251 1.282 . S
O250 Cd242 2.277 . S
O250 C243 1.226 . S
O251 Cd242 2.356 . S
O251 C249 1.282 . S
C252 O253 1.306 1_556 S
C252 O255 1.167 . S
O253 C252 1.306 1_554 S
O253 Cd254 2.228 . S
Cd254 O253 2.228 . S
Cd254 O258 2.273 . S
Cd254 O262 2.277 . S
O255 C252 1.167 . S
O255 Cd256 2.179 1_556 S
Cd256 O255 2.179 1_554 S
Cd256 O258 2.411 . S
Cd256 O259 2.333 . S
Cd256 O260 2.352 . S
Cd256 O264 2.277 . S
Cd256 O265 2.356 . S
C257 O262 1.209 . S
C257 O264 1.226 . S
O258 Cd254 2.273 . S
O258 Cd256 2.411 . S
O258 C261 1.320 . S
O259 Cd256 2.333 . S
O259 C261 1.214 . S
O260 Cd256 2.352 . S
O260 C263 1.258 . S
C261 O258 1.320 . S
C261 O259 1.214 . S
O262 Cd254 2.277 . S
O262 C257 1.209 . S
C263 O260 1.258 . S
C263 O265 1.282 . S
O264 Cd256 2.277 . S
O264 C257 1.226 . S
O265 Cd256 2.356 . S
O265 C263 1.282 . S
C266 O267 1.306 . S
C266 O269 1.160 . S
O267 C266 1.306 . S
O267 Cd268 2.228 . S
Cd268 O267 2.228 . S
Cd268 O272 2.273 . S
Cd268 O276 2.277 . S
O269 C266 1.160 . S
O269 Cd270 2.203 . S
Cd270 O269 2.203 . S
Cd270 O272 2.411 . S
Cd270 O273 2.333 . S
Cd270 O274 2.352 . S
Cd270 O278 2.277 . S
Cd270 O279 2.356 . S
C271 O276 1.209 . S
C271 O278 1.226 . S
O272 Cd268 2.273 . S
O272 Cd270 2.411 . S
O272 C275 1.320 . S
O273 Cd270 2.333 . S
O273 C275 1.214 . S
O274 Cd270 2.352 . S
O274 C277 1.258 . S
C275 O272 1.320 . S
C275 O273 1.214 . S
O276 Cd268 2.277 . S
O276 C271 1.209 . S
C277 O274 1.258 . S
C277 O279 1.282 . S
O278 Cd270 2.277 . S
O278 C271 1.226 . S
O279 Cd270 2.356 . S
O279 C277 1.282 . S
C280 O281 1.306 1_554 S
C280 O283 1.167 . S
O281 C280 1.306 1_556 S
O281 Cd282 2.228 . S
Cd282 O281 2.228 . S
Cd282 O286 2.273 . S
Cd282 O290 2.277 . S
O283 C280 1.167 . S
O283 Cd284 2.180 1_554 S
Cd284 O283 2.180 1_556 S
Cd284 O286 2.411 . S
Cd284 O287 2.333 . S
Cd284 O288 2.352 . S
Cd284 O292 2.277 . S
Cd284 O293 2.356 . S
C285 O290 1.209 . S
C285 O292 1.226 . S
O286 Cd282 2.273 . S
O286 Cd284 2.411 . S
O286 C289 1.320 . S
O287 Cd284 2.333 . S
O287 C289 1.214 . S
O288 Cd284 2.352 . S
O288 C291 1.258 . S
C289 O286 1.320 . S
C289 O287 1.214 . S
O290 Cd282 2.277 . S
O290 C285 1.209 . S
C291 O288 1.258 . S
C291 O293 1.282 . S
O292 Cd284 2.277 . S
O292 C285 1.226 . S
O293 Cd284 2.356 . S
O293 C291 1.282 . S
C294 O295 1.306 . S
C294 O297 1.160 . S
O295 C294 1.306 . S
O295 Cd296 2.228 . S
Cd296 O295 2.228 . S
Cd296 O300 2.273 . S
Cd296 O304 2.277 . S
O297 C294 1.160 . S
O297 Cd298 2.203 . S
Cd298 O297 2.203 . S
Cd298 O300 2.411 . S
Cd298 O301 2.333 . S
Cd298 O302 2.352 . S
Cd298 O306 2.277 . S
Cd298 O307 2.356 . S
C299 O304 1.209 . S
C299 O306 1.226 . S
O300 Cd296 2.273 . S
O300 Cd298 2.411 . S
O300 C303 1.320 . S
O301 Cd298 2.333 . S
O301 C303 1.214 . S
O302 Cd298 2.352 . S
O302 C305 1.258 . S
C303 O300 1.320 . S
C303 O301 1.214 . S
O304 Cd296 2.277 . S
O304 C299 1.209 . S
C305 O302 1.258 . S
C305 O307 1.282 . S
O306 Cd298 2.277 . S
O306 C299 1.226 . S
O307 Cd298 2.356 . S
O307 C305 1.282 . S
C308 O309 1.306 . S
C308 O311 1.160 . S
O309 C308 1.306 . S
O309 Cd310 2.228 . S
Cd310 O309 2.228 . S
Cd310 O314 2.273 . S
Cd310 O318 2.277 . S
O311 C308 1.160 . S
O311 Cd312 2.203 . S
Cd312 O311 2.203 . S
Cd312 O314 2.411 . S
Cd312 O315 2.333 . S
Cd312 O316 2.352 . S
Cd312 O320 2.277 . S
Cd312 O321 2.356 . S
C313 O318 1.209 . S
C313 O320 1.226 . S
O314 Cd310 2.273 . S
O314 Cd312 2.411 . S
O314 C317 1.320 . S
O315 Cd312 2.333 . S
O315 C317 1.214 . S
O316 Cd312 2.352 . S
O316 C319 1.258 . S
C317 O314 1.320 . S
C317 O315 1.214 . S
O318 Cd310 2.277 . S
O318 C313 1.209 . S
C319 O316 1.258 . S
C319 O321 1.282 . S
O320 Cd312 2.277 . S
O320 C313 1.226 . S
O321 Cd312 2.356 . S
O321 C319 1.282 . S
C322 O323 1.306 . S
C322 O325 1.160 . S
O323 C322 1.306 . S
O323 Cd324 2.228 . S
Cd324 O323 2.228 . S
Cd324 O328 2.273 . S
Cd324 O332 2.277 . S
O325 C322 1.160 . S
O325 Cd326 2.203 . S
Cd326 O325 2.203 . S
Cd326 O328 2.411 . S
Cd326 O329 2.333 . S
Cd326 O330 2.352 . S
Cd326 O334 2.277 . S
Cd326 O335 2.356 . S
C327 O332 1.209 . S
C327 O334 1.226 . S
O328 Cd324 2.273 . S
O328 Cd326 2.411 . S
O328 C331 1.320 . S
O329 Cd326 2.333 . S
O329 C331 1.214 . S
O330 Cd326 2.352 . S
O330 C333 1.258 . S
C331 O328 1.320 . S
C331 O329 1.214 . S
O332 Cd324 2.277 . S
O332 C327 1.209 . S
C333 O330 1.258 . S
C333 O335 1.282 . S
O334 Cd326 2.277 . S
O334 C327 1.226 . S
O335 Cd326 2.356 . S
O335 C333 1.282 . S
C336 O337 1.306 . S
C336 O339 1.160 . S
O337 C336 1.306 . S
O337 Cd338 2.228 . S
Cd338 O337 2.228 . S
Cd338 O342 2.273 . S
Cd338 O346 2.277 . S
O339 C336 1.160 . S
O339 Cd340 2.203 . S
Cd340 O339 2.203 . S
Cd340 O342 2.411 . S
Cd340 O343 2.333 . S
Cd340 O344 2.352 . S
Cd340 O348 2.277 . S
Cd340 O349 2.356 . S
C341 O346 1.209 . S
C341 O348 1.226 . S
O342 Cd338 2.273 . S
O342 Cd340 2.411 . S
O342 C345 1.320 . S
O343 Cd340 2.333 . S
O343 C345 1.214 . S
O344 Cd340 2.352 . S
O344 C347 1.258 . S
C345 O342 1.320 . S
C345 O343 1.214 . S
O346 Cd338 2.277 . S
O346 C341 1.209 . S
C347 O344 1.258 . S
C347 O349 1.282 . S
O348 Cd340 2.277 . S
O348 C341 1.226 . S
O349 Cd340 2.356 . S
O349 C347 1.282 . S
C350 O351 1.306 . S
C350 O353 1.160 . S
O351 C350 1.306 . S
O351 Cd352 2.228 . S
Cd352 O351 2.228 . S
Cd352 O356 2.273 . S
Cd352 O360 2.277 . S
O353 C350 1.160 . S
O353 Cd354 2.203 . S
Cd354 O353 2.203 . S
Cd354 O356 2.411 . S
Cd354 O357 2.333 . S
Cd354 O358 2.352 . S
Cd354 O362 2.277 . S
Cd354 O363 2.356 . S
C355 O360 1.209 . S
C355 O362 1.226 . S
O356 Cd352 2.273 . S
O356 Cd354 2.411 . S
O356 C359 1.320 . S
O357 Cd354 2.333 . S
O357 C359 1.214 . S
O358 Cd354 2.352 . S
O358 C361 1.258 . S
C359 O356 1.320 . S
C359 O357 1.214 . S
O360 Cd352 2.277 . S
O360 C355 1.209 . S
C361 O358 1.258 . S
C361 O363 1.282 . S
O362 Cd354 2.277 . S
O362 C355 1.226 . S
O363 Cd354 2.356 . S
O363 C361 1.282 . S
C364 O365 1.306 1_554 S
C364 O367 1.167 . S
O365 C364 1.306 1_556 S
O365 Cd366 2.228 . S
Cd366 O365 2.228 . S
Cd366 O370 2.273 . S
Cd366 O374 2.277 . S
O367 C364 1.167 . S
O367 Cd368 2.179 1_554 S
Cd368 O367 2.179 1_556 S
Cd368 O370 2.411 . S
Cd368 O371 2.333 . S
Cd368 O372 2.352 . S
Cd368 O376 2.277 . S
Cd368 O377 2.356 . S
C369 O374 1.209 . S
C369 O376 1.226 . S
O370 Cd366 2.273 . S
O370 Cd368 2.411 . S
O370 C373 1.320 . S
O371 Cd368 2.333 . S
O371 C373 1.214 . S
O372 Cd368 2.352 . S
O372 C375 1.258 . S
C373 O370 1.320 . S
C373 O371 1.214 . S
O374 Cd366 2.277 . S
O374 C369 1.209 . S
C375 O372 1.258 . S
C375 O377 1.282 . S
O376 Cd368 2.277 . S
O376 C369 1.226 . S
O377 Cd368 2.356 . S
O377 C375 1.282 . S
C378 O379 1.306 . S
C378 O381 1.160 . S
O379 C378 1.306 . S
O379 Cd380 2.228 . S
Cd380 O379 2.228 . S
Cd380 O384 2.273 . S
Cd380 O388 2.277 . S
O381 C378 1.160 . S
O381 Cd382 2.203 . S
Cd382 O381 2.203 . S
Cd382 O384 2.411 . S
Cd382 O385 2.333 . S
Cd382 O386 2.352 . S
Cd382 O390 2.277 . S
Cd382 O391 2.356 . S
C383 O388 1.209 . S
C383 O390 1.226 . S
O384 Cd380 2.273 . S
O384 Cd382 2.411 . S
O384 C387 1.320 . S
O385 Cd382 2.333 . S
O385 C387 1.214 . S
O386 Cd382 2.352 . S
O386 C389 1.258 . S
C387 O384 1.320 . S
C387 O385 1.214 . S
O388 Cd380 2.277 . S
O388 C383 1.209 . S
C389 O386 1.258 . S
C389 O391 1.282 . S
O390 Cd382 2.277 . S
O390 C383 1.226 . S
O391 Cd382 2.356 . S
O391 C389 1.282 . S
C392 O393 1.306 1_556 S
C392 O395 1.167 . S
O393 C392 1.306 1_554 S
O393 Cd394 2.228 . S
Cd394 O393 2.228 . S
Cd394 O398 2.273 . S
Cd394 O402 2.277 . S
O395 C392 1.167 . S
O395 Cd396 2.180 1_556 S
Cd396 O395 2.180 1_554 S
Cd396 O398 2.411 . S
Cd396 O399 2.333 . S
Cd396 O400 2.352 . S
Cd396 O404 2.277 . S
Cd396 O405 2.356 . S
C397 O402 1.209 . S
C397 O404 1.226 . S
O398 Cd394 2.273 . S
O398 Cd396 2.411 . S
O398 C401 1.320 . S
O399 Cd396 2.333 . S
O399 C401 1.214 . S
O400 Cd396 2.352 . S
O400 C403 1.258 . S
C401 O398 1.320 . S
C401 O399 1.214 . S
O402 Cd394 2.277 . S
O402 C397 1.209 . S
C403 O400 1.258 . S
C403 O405 1.282 . S
O404 Cd396 2.277 . S
O404 C397 1.226 . S
O405 Cd396 2.356 . S
O405 C403 1.282 . S
C406 O407 1.306 . S
C406 O409 1.160 . S
O407 C406 1.306 . S
O407 Cd408 2.228 . S
Cd408 O407 2.228 . S
Cd408 O412 2.273 . S
Cd408 O416 2.277 . S
O409 C406 1.160 . S
O409 Cd410 2.203 . S
Cd410 O409 2.203 . S
Cd410 O412 2.411 . S
Cd410 O413 2.333 . S
Cd410 O414 2.352 . S
Cd410 O418 2.277 . S
Cd410 O419 2.356 . S
C411 O416 1.209 . S
C411 O418 1.226 . S
O412 Cd408 2.273 . S
O412 Cd410 2.411 . S
O412 C415 1.320 . S
O413 Cd410 2.333 . S
O413 C415 1.214 . S
O414 Cd410 2.352 . S
O414 C417 1.258 . S
C415 O412 1.320 . S
C415 O413 1.214 . S
O416 Cd408 2.277 . S
O416 C411 1.209 . S
C417 O414 1.258 . S
C417 O419 1.282 . S
O418 Cd410 2.277 . S
O418 C411 1.226 . S
O419 Cd410 2.356 . S
O419 C417 1.282 . S
C420 O421 1.306 . S
C420 O423 1.160 . S
O421 C420 1.306 . S
O421 Cd422 2.228 . S
Cd422 O421 2.228 . S
Cd422 O426 2.273 . S
Cd422 O430 2.277 . S
O423 C420 1.160 . S
O423 Cd424 2.203 . S
Cd424 O423 2.203 . S
Cd424 O426 2.411 . S
Cd424 O427 2.333 . S
Cd424 O428 2.352 . S
Cd424 O432 2.277 . S
Cd424 O433 2.356 . S
C425 O430 1.209 . S
C425 O432 1.226 . S
O426 Cd422 2.273 . S
O426 Cd424 2.411 . S
O426 C429 1.320 . S
O427 Cd424 2.333 . S
O427 C429 1.214 . S
O428 Cd424 2.352 . S
O428 C431 1.258 . S
C429 O426 1.320 . S
C429 O427 1.214 . S
O430 Cd422 2.277 . S
O430 C425 1.209 . S
C431 O428 1.258 . S
C431 O433 1.282 . S
O432 Cd424 2.277 . S
O432 C425 1.226 . S
O433 Cd424 2.356 . S
O433 C431 1.282 . S
C434 O435 1.306 . S
C434 O437 1.160 . S
O435 C434 1.306 . S
O435 Cd436 2.228 . S
Cd436 O435 2.228 . S
Cd436 O440 2.273 . S
Cd436 O444 2.277 . S
O437 C434 1.160 . S
O437 Cd438 2.203 . S
Cd438 O437 2.203 . S
Cd438 O440 2.411 . S
Cd438 O441 2.333 . S
Cd438 O442 2.352 . S
Cd438 O446 2.277 . S
Cd438 O447 2.356 . S
C439 O444 1.209 . S
C439 O446 1.226 . S
O440 Cd436 2.273 . S
O440 Cd438 2.411 . S
O440 C443 1.320 . S
O441 Cd438 2.333 . S
O441 C443 1.214 . S
O442 Cd438 2.352 . S
O442 C445 1.258 . S
C443 O440 1.320 . S
C443 O441 1.214 . S
O444 Cd436 2.277 . S
O444 C439 1.209 . S
C445 O442 1.258 . S
C445 O447 1.282 . S
O446 Cd438 2.277 . S
O446 C439 1.226 . S
O447 Cd438 2.356 . S
O447 C445 1.282 . S
H448 C456 0.929 . S
H449 C458 0.930 1_554 S
H450 C460 0.930 . S
H451 C463 0.929 . S
H452 C466 0.930 . S
H453 C468 0.960 . S
H454 C468 0.960 . S
H455 C468 0.960 . S
C456 H448 0.929 . S
C456 C457 1.377 . S
C456 C458 1.384 . S
C457 C456 1.377 . S
C457 C463 1.390 . S
C458 H449 0.930 1_556 S
C458 C456 1.384 . S
C458 C459 1.372 . S
C459 C458 1.372 . S
C459 C460 1.400 . S
C459 C464 1.490 . S
C460 H450 0.930 . S
C460 C459 1.400 . S
C460 C463 1.386 . S
H461 C477 0.930 . S
H462 C478 0.931 1_556 S
C463 H451 0.929 . S
C463 C457 1.390 . S
C463 C460 1.386 . S
C464 C459 1.490 . S
C464 C466 1.395 1_556 S
C464 C467 1.403 . S
H465 C471 0.930 . S
C466 H452 0.930 . S
C466 C464 1.395 1_554 S
C466 C469 1.403 . S
C467 C464 1.403 . S
C467 C468 1.524 . S
C467 C471 1.400 . S
C468 H453 0.960 . S
C468 H454 0.960 . S
C468 H455 0.960 . S
C468 C467 1.524 . S
C469 C466 1.403 . S
C469 C470 1.392 . S
C469 C473 1.495 . S
C470 C469 1.392 . S
C470 C471 1.385 1_554 S
C470 C472 1.478 . S
C471 H465 0.930 . S
C471 C467 1.400 . S
C471 C470 1.385 1_556 S
C472 C470 1.478 . S
C472 C474 1.381 . S
C472 C478 1.383 . S
C473 C469 1.495 . S
C473 H479 0.959 . S
C473 H480 0.961 . S
C473 H481 0.960 . S
C474 C472 1.381 . S
C474 C475 1.394 . S
C474 H482 0.930 . S
C475 C474 1.394 . S
C475 C476 1.383 . S
C475 H483 0.929 . S
C476 C475 1.383 . S
C476 C477 1.377 . S
C477 H461 0.930 . S
C477 C476 1.377 . S
C477 C478 1.379 . S
C478 H462 0.931 1_554 S
C478 C472 1.383 . S
C478 C477 1.379 . S
H479 C473 0.959 . S
H480 C473 0.961 . S
H481 C473 0.960 . S
H482 C474 0.930 . S
H483 C475 0.929 . S
H484 C492 0.929 . S
H485 C494 0.930 . S
H486 C496 0.930 . S
H487 C499 0.929 . S
H488 C502 0.930 . S
H489 C504 0.960 . S
H490 C504 0.960 . S
H491 C504 0.960 . S
C492 H484 0.929 . S
C492 C493 1.377 . S
C492 C494 1.384 . S
C493 C492 1.377 . S
C493 C499 1.390 . S
C494 H485 0.930 . S
C494 C492 1.384 . S
C494 C495 1.372 . S
C495 C494 1.372 . S
C495 C496 1.400 . S
C495 C500 1.490 . S
C496 H486 0.930 . S
C496 C495 1.400 . S
C496 C499 1.386 . S
H497 C513 0.930 . S
H498 C514 0.931 . S
C499 H487 0.929 . S
C499 C493 1.390 . S
C499 C496 1.386 . S
C500 C495 1.490 . S
C500 C502 1.395 . S
C500 C503 1.403 . S
H501 C507 0.930 . S
C502 H488 0.930 . S
C502 C500 1.395 . S
C502 C505 1.403 1_565 S
C503 C500 1.403 . S
C503 C504 1.524 . S
C503 C507 1.400 1_565 S
C504 H489 0.960 . S
C504 H490 0.960 . S
C504 H491 0.960 . S
C504 C503 1.524 . S
C505 C502 1.403 1_545 S
C505 C506 1.392 . S
C505 C509 1.495 . S
C506 C505 1.392 . S
C506 C507 1.385 . S
C506 C508 1.478 . S
C507 H501 0.930 . S
C507 C503 1.400 1_545 S
C507 C506 1.385 . S
C508 C506 1.478 . S
C508 C510 1.381 . S
C508 C514 1.383 . S
C509 C505 1.495 . S
C509 H515 0.959 . S
C509 H516 0.961 . S
C509 H517 0.960 . S
C510 C508 1.381 . S
C510 C511 1.394 . S
C510 H518 0.930 . S
C511 C510 1.394 . S
C511 C512 1.383 . S
C511 H519 0.929 . S
C512 C511 1.383 . S
C512 C513 1.377 . S
C513 H497 0.930 . S
C513 C512 1.377 . S
C513 C514 1.379 . S
C514 H498 0.931 . S
C514 C508 1.383 . S
C514 C513 1.379 . S
H515 C509 0.959 . S
H516 C509 0.961 . S
H517 C509 0.960 . S
H518 C510 0.930 . S
H519 C511 0.929 . S
H520 C528 0.929 . S
H521 C530 0.930 . S
H522 C532 0.930 . S
H523 C535 0.929 . S
H524 C538 0.930 . S
H525 C540 0.960 . S
H526 C540 0.960 . S
H527 C540 0.960 . S
C528 H520 0.929 . S
C528 C529 1.377 . S
C528 C530 1.384 . S
C529 C528 1.377 . S
C529 C535 1.390 . S
C530 H521 0.930 . S
C530 C528 1.384 . S
C530 C531 1.372 . S
C531 C530 1.372 . S
C531 C532 1.400 . S
C531 C536 1.490 . S
C532 H522 0.930 . S
C532 C531 1.400 . S
C532 C535 1.386 . S
H533 C549 0.930 . S
H534 C550 0.931 . S
C535 H523 0.929 . S
C535 C529 1.390 . S
C535 C532 1.386 . S
C536 C531 1.490 . S
C536 C538 1.395 . S
C536 C539 1.403 . S
H537 C543 0.930 . S
C538 H524 0.930 . S
C538 C536 1.395 . S
C538 C541 1.403 . S
C539 C536 1.403 . S
C539 C540 1.524 . S
C539 C543 1.400 . S
C540 H525 0.960 . S
C540 H526 0.960 . S
C540 H527 0.960 . S
C540 C539 1.524 . S
C541 C538 1.403 . S
C541 C542 1.392 . S
C541 C545 1.495 . S
C542 C541 1.392 . S
C542 C543 1.385 . S
C542 C544 1.478 . S
C543 H537 0.930 . S
C543 C539 1.400 . S
C543 C542 1.385 . S
C544 C542 1.478 . S
C544 C546 1.381 . S
C544 C550 1.383 . S
C545 C541 1.495 . S
C545 H551 0.959 . S
C545 H552 0.961 . S
C545 H553 0.960 . S
C546 C544 1.381 . S
C546 C547 1.394 . S
C546 H554 0.930 . S
C547 C546 1.394 . S
C547 C548 1.383 . S
C547 H555 0.929 . S
C548 C547 1.383 . S
C548 C549 1.377 . S
C549 H533 0.930 . S
C549 C548 1.377 . S
C549 C550 1.379 . S
C550 H534 0.931 . S
C550 C544 1.383 . S
C550 C549 1.379 . S
H551 C545 0.959 . S
H552 C545 0.961 . S
H553 C545 0.960 . S
H554 C546 0.930 . S
H555 C547 0.929 . S
H556 C564 0.929 . S
H557 C566 0.930 . S
H558 C568 0.930 . S
H559 C571 0.929 . S
H560 C574 0.930 . S
H561 C576 1.039 . S
H562 C576 0.960 . S
H563 C576 0.960 . S
C564 H556 0.929 . S
C564 C565 1.377 . S
C564 C566 1.384 . S
C565 C564 1.377 . S
C565 C571 1.390 . S
C566 H557 0.930 . S
C566 C564 1.384 . S
C566 C567 1.372 . S
C567 C566 1.372 . S
C567 C568 1.400 . S
C567 C572 1.490 . S
C568 H558 0.930 . S
C568 C567 1.400 . S
C568 C571 1.386 . S
H569 C585 0.930 . S
H570 C586 0.931 . S
C571 H559 0.929 . S
C571 C565 1.390 . S
C571 C568 1.386 . S
C572 C567 1.490 . S
C572 C574 1.395 . S
C572 C575 1.403 . S
H573 C579 0.930 . S
C574 H560 0.930 . S
C574 C572 1.395 . S
C574 C577 1.403 1_545 S
C575 C572 1.403 . S
C575 C576 1.524 . S
C575 C579 1.400 1_545 S
C576 H561 1.039 . S
C576 H562 0.960 . S
C576 H563 0.960 . S
C576 C575 1.524 . S
C577 C574 1.403 1_565 S
C577 C578 1.392 . S
C577 C581 1.495 . S
C578 C577 1.392 . S
C578 C579 1.385 . S
C578 C580 1.478 . S
C579 H573 0.930 . S
C579 C575 1.400 1_565 S
C579 C578 1.385 . S
C580 C578 1.478 . S
C580 C582 1.381 . S
C580 C586 1.383 . S
C581 C577 1.495 . S
C581 H587 0.959 . S
C581 H588 0.961 . S
C581 H589 0.960 . S
C582 C580 1.381 . S
C582 C583 1.394 . S
C582 H590 0.930 . S
C583 C582 1.394 . S
C583 C584 1.383 . S
C583 H591 0.929 . S
C584 C583 1.383 . S
C584 C585 1.377 . S
C585 H569 0.930 . S
C585 C584 1.377 . S
C585 C586 1.379 . S
C586 H570 0.931 . S
C586 C580 1.383 . S
C586 C585 1.379 . S
H587 C581 0.959 . S
H588 C581 0.961 . S
H589 C581 0.960 . S
H590 C582 0.930 . S
H591 C583 0.929 . S
H592 C600 0.916 1_556 S
H593 C602 0.930 1_556 S
H594 C604 0.930 . S
H595 C607 0.929 . S
H596 C610 0.930 . S
H597 C612 0.960 . S
H598 C612 0.960 . S
H599 C612 0.960 . S
C600 H592 0.916 1_554 S
C600 C601 1.377 . S
C600 C602 1.384 . S
C601 C600 1.377 . S
C601 C607 1.390 . S
C602 H593 0.930 1_554 S
C602 C600 1.384 . S
C602 C603 1.372 . S
C603 C602 1.372 . S
C603 C604 1.400 . S
C603 C608 1.490 . S
C604 H594 0.930 . S
C604 C603 1.400 . S
C604 C607 1.386 . S
H605 C621 0.930 . S
H606 C622 0.931 1_554 S
C607 H595 0.929 . S
C607 C601 1.390 . S
C607 C604 1.386 . S
C608 C603 1.490 . S
C608 C610 1.395 1_554 S
C608 C611 1.403 . S
H609 C615 0.930 . S
C610 H596 0.930 . S
C610 C608 1.395 1_556 S
C610 C613 1.403 . S
C611 C608 1.403 . S
C611 C612 1.524 . S
C611 C615 1.400 . S
C612 H597 0.960 . S
C612 H598 0.960 . S
C612 H599 0.960 . S
C612 C611 1.524 . S
C613 C610 1.403 . S
C613 C614 1.392 . S
C613 C617 1.495 . S
C614 C613 1.392 . S
C614 C615 1.385 1_556 S
C614 C616 1.478 . S
C615 H609 0.930 . S
C615 C611 1.400 . S
C615 C614 1.385 1_554 S
C616 C614 1.478 . S
C616 C618 1.381 . S
C616 C622 1.383 . S
C617 C613 1.495 . S
C617 H623 0.959 . S
C617 H624 0.961 . S
C617 H625 0.960 . S
C618 C616 1.381 . S
C618 C619 1.394 . S
C618 H626 0.930 . S
C619 C618 1.394 . S
C619 C620 1.383 . S
C619 H627 0.929 . S
C620 C619 1.383 . S
C620 C621 1.377 . S
C621 H605 0.930 . S
C621 C620 1.377 . S
C621 C622 1.379 . S
C622 H606 0.931 1_556 S
C622 C616 1.383 . S
C622 C621 1.379 . S
H623 C617 0.959 . S
H624 C617 0.961 . S
H625 C617 0.960 . S
H626 C618 0.930 . S
H627 C619 0.929 . S
H628 C636 0.929 . S
H629 C638 0.930 . S
H630 C640 0.930 . S
H631 C643 0.929 . S
H632 C646 0.930 . S
H633 C648 0.960 . S
H634 C648 0.960 . S
H635 C648 0.960 . S
C636 H628 0.929 . S
C636 C637 1.377 . S
C636 C638 1.384 . S
C637 C636 1.377 . S
C637 C643 1.390 . S
C638 H629 0.930 . S
C638 C636 1.384 . S
C638 C639 1.372 . S
C639 C638 1.372 . S
C639 C640 1.400 . S
C639 C644 1.490 . S
C640 H630 0.930 . S
C640 C639 1.400 . S
C640 C643 1.386 . S
H641 C657 0.930 . S
H642 C658 0.931 . S
C643 H631 0.929 . S
C643 C637 1.390 . S
C643 C640 1.386 . S
C644 C639 1.490 . S
C644 C646 1.395 . S
C644 C647 1.403 . S
H645 C651 0.930 . S
C646 H632 0.930 . S
C646 C644 1.395 . S
C646 C649 1.403 1_565 S
C647 C644 1.403 . S
C647 C648 1.524 . S
C647 C651 1.400 1_565 S
C648 H633 0.960 . S
C648 H634 0.960 . S
C648 H635 0.960 . S
C648 C647 1.524 . S
C649 C646 1.403 1_545 S
C649 C650 1.392 . S
C649 C653 1.495 . S
C650 C649 1.392 . S
C650 C651 1.385 . S
C650 C652 1.478 . S
C651 H645 0.930 . S
C651 C647 1.400 1_545 S
C651 C650 1.385 . S
C652 C650 1.478 . S
C652 C654 1.381 . S
C652 C658 1.383 . S
C653 C649 1.495 . S
C653 H659 0.959 . S
C653 H660 0.961 . S
C653 H661 0.960 . S
C654 C652 1.381 . S
C654 C655 1.394 . S
C654 H662 0.930 . S
C655 C654 1.394 . S
C655 C656 1.383 . S
C655 H663 0.929 . S
C656 C655 1.383 . S
C656 C657 1.377 . S
C657 H641 0.930 . S
C657 C656 1.377 . S
C657 C658 1.379 . S
C658 H642 0.931 . S
C658 C652 1.383 . S
C658 C657 1.379 . S
H659 C653 0.959 . S
H660 C653 0.961 . S
H661 C653 0.960 . S
H662 C654 0.930 . S
H663 C655 0.929 . S
H664 C672 0.929 . S
H665 C674 0.930 . S
H666 C676 0.930 . S
H667 C679 0.929 . S
H668 C682 0.930 . S
H669 C684 0.960 . S
H670 C684 0.960 . S
H671 C684 0.960 . S
C672 H664 0.929 . S
C672 C673 1.377 . S
C672 C674 1.384 . S
C673 C672 1.377 . S
C673 C679 1.390 . S
C674 H665 0.930 . S
C674 C672 1.384 . S
C674 C675 1.372 . S
C675 C674 1.372 . S
C675 C676 1.400 . S
C675 C680 1.490 . S
C676 H666 0.930 . S
C676 C675 1.400 . S
C676 C679 1.386 . S
H677 C693 0.930 . S
H678 C694 0.931 . S
C679 H667 0.929 . S
C679 C673 1.390 . S
C679 C676 1.386 . S
C680 C675 1.490 . S
C680 C682 1.395 . S
C680 C683 1.403 . S
H681 C687 0.930 . S
C682 H668 0.930 . S
C682 C680 1.395 . S
C682 C685 1.403 . S
C683 C680 1.403 . S
C683 C684 1.524 . S
C683 C687 1.400 . S
C684 H669 0.960 . S
C684 H670 0.960 . S
C684 H671 0.960 . S
C684 C683 1.524 . S
C685 C682 1.403 . S
C685 C686 1.392 . S
C685 C689 1.495 . S
C686 C685 1.392 . S
C686 C687 1.385 . S
C686 C688 1.478 . S
C687 H681 0.930 . S
C687 C683 1.400 . S
C687 C686 1.385 . S
C688 C686 1.478 . S
C688 C690 1.381 . S
C688 C694 1.383 . S
C689 C685 1.495 . S
C689 H695 0.959 . S
C689 H696 0.961 . S
C689 H697 0.960 . S
C690 C688 1.381 . S
C690 C691 1.394 . S
C690 H698 0.930 . S
C691 C690 1.394 . S
C691 C692 1.383 . S
C691 H699 0.929 . S
C692 C691 1.383 . S
C692 C693 1.377 . S
C693 H677 0.930 . S
C693 C692 1.377 . S
C693 C694 1.379 . S
C694 H678 0.931 . S
C694 C688 1.383 . S
C694 C693 1.379 . S
H695 C689 0.959 . S
H696 C689 0.961 . S
H697 C689 0.960 . S
H698 C690 0.930 . S
H699 C691 0.929 . S
H700 C708 0.929 . S
H701 C710 0.930 . S
H702 C712 0.930 . S
H703 C715 0.929 . S
H704 C718 0.930 . S
H705 C720 0.960 . S
H706 C720 0.960 . S
H707 C720 0.960 . S
C708 H700 0.929 . S
C708 C709 1.377 . S
C708 C710 1.384 . S
C709 C708 1.377 . S
C709 C715 1.390 . S
C710 H701 0.930 . S
C710 C708 1.384 . S
C710 C711 1.372 . S
C711 C710 1.372 . S
C711 C712 1.400 . S
C711 C716 1.490 . S
C712 H702 0.930 . S
C712 C711 1.400 . S
C712 C715 1.386 . S
H713 C729 0.930 . S
H714 C730 0.931 . S
C715 H703 0.929 . S
C715 C709 1.390 . S
C715 C712 1.386 . S
C716 C711 1.490 . S
C716 C718 1.395 . S
C716 C719 1.403 . S
H717 C723 0.930 . S
C718 H704 0.930 . S
C718 C716 1.395 . S
C718 C721 1.403 1_565 S
C719 C716 1.403 . S
C719 C720 1.524 . S
C719 C723 1.400 1_565 S
C720 H705 0.960 . S
C720 H706 0.960 . S
C720 H707 0.960 . S
C720 C719 1.524 . S
C721 C718 1.403 1_545 S
C721 C722 1.392 . S
C721 C725 1.495 . S
C722 C721 1.392 . S
C722 C723 1.385 . S
C722 C724 1.478 . S
C723 H717 0.930 . S
C723 C719 1.400 1_545 S
C723 C722 1.385 . S
C724 C722 1.478 . S
C724 C726 1.381 . S
C724 C730 1.383 . S
C725 C721 1.495 . S
C725 H731 0.959 . S
C725 H732 0.961 . S
C725 H733 0.960 . S
C726 C724 1.381 . S
C726 C727 1.394 . S
C726 H734 0.930 . S
C727 C726 1.394 . S
C727 C728 1.383 . S
C727 H735 0.929 . S
C728 C727 1.383 . S
C728 C729 1.377 . S
C729 H713 0.930 . S
C729 C728 1.377 . S
C729 C730 1.379 . S
C730 H714 0.931 . S
C730 C724 1.383 . S
C730 C729 1.379 . S
H731 C725 0.959 . S
H732 C725 0.961 . S
H733 C725 0.960 . S
H734 C726 0.930 . S
H735 C727 0.929 . S
H736 C744 0.929 . S
H737 C746 0.930 . S
H738 C748 0.930 . S
H739 C751 0.929 . S
H740 C754 0.930 . S
H741 C756 0.960 . S
H742 C756 0.960 . S
H743 C756 0.960 . S
C744 H736 0.929 . S
C744 C745 1.377 . S
C744 C746 1.384 . S
C745 C744 1.377 . S
C745 C751 1.390 . S
C746 H737 0.930 . S
C746 C744 1.384 . S
C746 C747 1.372 . S
C747 C746 1.372 . S
C747 C748 1.400 . S
C747 C752 1.490 . S
C748 H738 0.930 . S
C748 C747 1.400 . S
C748 C751 1.386 . S
H749 C765 0.930 . S
H750 C766 0.931 . S
C751 H739 0.929 . S
C751 C745 1.390 . S
C751 C748 1.386 . S
C752 C747 1.490 . S
C752 C754 1.395 . S
C752 C755 1.403 . S
H753 C759 0.930 . S
C754 H740 0.930 . S
C754 C752 1.395 . S
C754 C757 1.403 . S
C755 C752 1.403 . S
C755 C756 1.524 . S
C755 C759 1.400 . S
C756 H741 0.960 . S
C756 H742 0.960 . S
C756 H743 0.960 . S
C756 C755 1.524 . S
C757 C754 1.403 . S
C757 C758 1.392 . S
C757 C761 1.495 . S
C758 C757 1.392 . S
C758 C759 1.385 . S
C758 C760 1.478 . S
C759 H753 0.930 . S
C759 C755 1.400 . S
C759 C758 1.385 . S
C760 C758 1.478 . S
C760 C762 1.381 . S
C760 C766 1.383 . S
C761 C757 1.495 . S
C761 H767 0.959 . S
C761 H768 0.961 . S
C761 H769 0.960 . S
C762 C760 1.381 . S
C762 C763 1.394 . S
C762 H770 0.930 . S
C763 C762 1.394 . S
C763 C764 1.383 . S
C763 H771 0.929 . S
C764 C763 1.383 . S
C764 C765 1.377 . S
C765 H749 0.930 . S
C765 C764 1.377 . S
C765 C766 1.379 . S
C766 H750 0.931 . S
C766 C760 1.383 . S
C766 C765 1.379 . S
H767 C761 0.959 . S
H768 C761 0.961 . S
H769 C761 0.960 . S
H770 C762 0.930 . S
H771 C763 0.929 . S
H772 C780 0.929 . S
H773 C782 0.930 . S
H774 C784 0.930 . S
H775 C787 0.929 . S
H776 C790 0.930 . S
H777 C792 0.960 . S
H778 C792 0.960 . S
H779 C792 0.960 . S
C780 H772 0.929 . S
C780 C781 1.377 . S
C780 C782 1.384 . S
C781 C780 1.377 . S
C781 C787 1.390 . S
C782 H773 0.930 . S
C782 C780 1.384 . S
C782 C783 1.372 . S
C783 C782 1.372 . S
C783 C784 1.400 . S
C783 C788 1.490 . S
C784 H774 0.930 . S
C784 C783 1.400 . S
C784 C787 1.386 . S
H785 C801 0.930 . S
H786 C802 0.931 . S
C787 H775 0.929 . S
C787 C781 1.390 . S
C787 C784 1.386 . S
C788 C783 1.490 . S
C788 C790 1.395 . S
C788 C791 1.403 . S
H789 C795 0.930 . S
C790 H776 0.930 . S
C790 C788 1.395 . S
C790 C793 1.403 . S
C791 C788 1.403 . S
C791 C792 1.524 . S
C791 C795 1.400 . S
C792 H777 0.960 . S
C792 H778 0.960 . S
C792 H779 0.960 . S
C792 C791 1.524 . S
C793 C790 1.403 . S
C793 C794 1.392 . S
C793 C797 1.495 . S
C794 C793 1.392 . S
C794 C795 1.385 . S
C794 C796 1.478 . S
C795 H789 0.930 . S
C795 C791 1.400 . S
C795 C794 1.385 . S
C796 C794 1.478 . S
C796 C798 1.381 . S
C796 C802 1.383 . S
C797 C793 1.495 . S
C797 H803 0.959 . S
C797 H804 0.961 . S
C797 H805 0.960 . S
C798 C796 1.381 . S
C798 C799 1.394 . S
C798 H806 0.930 . S
C799 C798 1.394 . S
C799 C800 1.383 . S
C799 H807 0.929 . S
C800 C799 1.383 . S
C800 C801 1.377 . S
C801 H785 0.930 . S
C801 C800 1.377 . S
C801 C802 1.379 . S
C802 H786 0.931 . S
C802 C796 1.383 . S
C802 C801 1.379 . S
H803 C797 0.959 . S
H804 C797 0.961 . S
H805 C797 0.960 . S
H806 C798 0.930 . S
H807 C799 0.929 . S
H808 C816 0.929 . S
H809 C818 0.930 . S
H810 C820 0.930 . S
H811 C823 0.929 1_554 S
H812 C826 0.930 . S
H813 C828 0.960 1_554 S
H814 C828 0.960 . S
H815 C828 0.960 1_554 S
C816 H808 0.929 . S
C816 C817 1.377 . S
C816 C818 1.384 . S
C817 C816 1.377 . S
C817 C823 1.390 . S
C818 H809 0.930 . S
C818 C816 1.384 . S
C818 C819 1.372 . S
C819 C818 1.372 . S
C819 C820 1.400 1_556 S
C819 C824 1.490 . S
C820 H810 0.930 . S
C820 C819 1.400 1_554 S
C820 C823 1.386 1_554 S
H821 C837 0.930 . S
H822 C838 0.931 . S
C823 H811 0.929 1_556 S
C823 C817 1.390 . S
C823 C820 1.386 1_556 S
C824 C819 1.490 . S
C824 C826 1.395 . S
C824 C827 1.403 . S
H825 C831 0.930 . S
C826 H812 0.930 . S
C826 C824 1.395 . S
C826 C829 1.403 . S
C827 C824 1.403 . S
C827 C828 1.524 . S
C827 C831 1.400 1_556 S
C828 H813 0.960 1_556 S
C828 H814 0.960 . S
C828 H815 0.960 1_556 S
C828 C827 1.524 . S
C829 C826 1.403 . S
C829 C830 1.392 1_556 S
C829 C833 1.495 . S
C830 C829 1.392 1_554 S
C830 C831 1.385 . S
C830 C832 1.478 . S
C831 H825 0.930 . S
C831 C827 1.400 1_554 S
C831 C830 1.385 . S
C832 C830 1.478 . S
C832 C834 1.381 1_554 S
C832 C838 1.383 . S
C833 C829 1.495 . S
C833 H839 0.959 . S
C833 H840 0.961 1_556 S
C833 H841 0.960 . S
C834 C832 1.381 1_556 S
C834 C835 1.394 1_556 S
C834 H842 0.930 . S
C835 C834 1.394 1_554 S
C835 C836 1.383 . S
C835 H843 0.929 1_554 S
C836 C835 1.383 . S
C836 C837 1.377 . S
C837 H821 0.930 . S
C837 C836 1.377 . S
C837 C838 1.379 . S
C838 H822 0.931 . S
C838 C832 1.383 . S
C838 C837 1.379 . S
H839 C833 0.959 . S
H840 C833 0.961 1_554 S
H841 C833 0.960 . S
H842 C834 0.930 . S
H843 C835 0.929 1_556 S
H844 C852 0.929 . S
H845 C854 0.930 . S
H846 C856 0.930 . S
H847 C859 0.929 . S
H848 C862 0.930 . S
H849 C864 0.960 . S
H850 C864 0.960 . S
H851 C864 0.960 . S
C852 H844 0.929 . S
C852 C853 1.377 . S
C852 C854 1.384 . S
C853 C852 1.377 . S
C853 C859 1.390 . S
C854 H845 0.930 . S
C854 C852 1.384 . S
C854 C855 1.372 . S
C855 C854 1.372 . S
C855 C856 1.400 . S
C855 C860 1.490 . S
C856 H846 0.930 . S
C856 C855 1.400 . S
C856 C859 1.386 . S
H857 C873 0.930 . S
H858 C874 0.931 . S
C859 H847 0.929 . S
C859 C853 1.390 . S
C859 C856 1.386 . S
C860 C855 1.490 . S
C860 C862 1.395 . S
C860 C863 1.403 . S
H861 C867 0.930 . S
C862 H848 0.930 . S
C862 C860 1.395 . S
C862 C865 1.403 . S
C863 C860 1.403 . S
C863 C864 1.524 . S
C863 C867 1.400 . S
C864 H849 0.960 . S
C864 H850 0.960 . S
C864 H851 0.960 . S
C864 C863 1.524 . S
C865 C862 1.403 . S
C865 C866 1.392 . S
C865 C869 1.495 . S
C866 C865 1.392 . S
C866 C867 1.385 . S
C866 C868 1.478 . S
C867 H861 0.930 . S
C867 C863 1.400 . S
C867 C866 1.385 . S
C868 C866 1.478 . S
C868 C870 1.381 . S
C868 C874 1.383 . S
C869 C865 1.495 . S
C869 H875 0.959 . S
C869 H876 0.961 . S
C869 H877 0.960 . S
C870 C868 1.381 . S
C870 C871 1.394 . S
C870 H878 0.930 . S
C871 C870 1.394 . S
C871 C872 1.383 . S
C871 H879 0.929 . S
C872 C871 1.383 . S
C872 C873 1.377 . S
C873 H857 0.930 . S
C873 C872 1.377 . S
C873 C874 1.379 . S
C874 H858 0.931 . S
C874 C868 1.383 . S
C874 C873 1.379 . S
H875 C869 0.959 . S
H876 C869 0.961 . S
H877 C869 0.960 . S
H878 C870 0.930 . S
H879 C871 0.929 . S
H880 C888 0.929 . S
H881 C890 0.930 . S
H882 C892 0.930 . S
H883 C895 0.929 . S
H884 C898 0.930 . S
H885 C900 0.960 . S
H886 C900 0.960 . S
H887 C900 0.960 . S
C888 H880 0.929 . S
C888 C889 1.377 . S
C888 C890 1.384 . S
C889 C888 1.377 . S
C889 C895 1.390 . S
C890 H881 0.930 . S
C890 C888 1.384 . S
C890 C891 1.372 . S
C891 C890 1.372 . S
C891 C892 1.400 . S
C891 C896 1.490 . S
C892 H882 0.930 . S
C892 C891 1.400 . S
C892 C895 1.386 . S
H893 C909 0.930 . S
H894 C910 0.931 . S
C895 H883 0.929 . S
C895 C889 1.390 . S
C895 C892 1.386 . S
C896 C891 1.490 . S
C896 C898 1.395 . S
C896 C899 1.403 . S
H897 C903 0.930 . S
C898 H884 0.930 . S
C898 C896 1.395 . S
C898 C901 1.403 . S
C899 C896 1.403 . S
C899 C900 1.524 . S
C899 C903 1.400 . S
C900 H885 0.960 . S
C900 H886 0.960 . S
C900 H887 0.960 . S
C900 C899 1.524 . S
C901 C898 1.403 . S
C901 C902 1.392 . S
C901 C905 1.495 . S
C902 C901 1.392 . S
C902 C903 1.385 . S
C902 C904 1.478 . S
C903 H897 0.930 . S
C903 C899 1.400 . S
C903 C902 1.385 . S
C904 C902 1.478 . S
C904 C906 1.381 . S
C904 C910 1.383 . S
C905 C901 1.495 . S
C905 H911 0.959 . S
C905 H912 0.961 . S
C905 H913 0.960 . S
C906 C904 1.381 . S
C906 C907 1.394 . S
C906 H914 0.930 . S
C907 C906 1.394 . S
C907 C908 1.383 . S
C907 H915 0.929 . S
C908 C907 1.383 . S
C908 C909 1.377 . S
C909 H893 0.930 . S
C909 C908 1.377 . S
C909 C910 1.379 . S
C910 H894 0.931 . S
C910 C904 1.383 . S
C910 C909 1.379 . S
H911 C905 0.959 . S
H912 C905 0.961 . S
H913 C905 0.960 . S
H914 C906 0.930 . S
H915 C907 0.929 . S
H916 C924 0.929 . S
H917 C926 0.930 . S
H918 C928 0.930 . S
H919 C931 0.929 . S
H920 C934 0.930 . S
H921 C936 0.960 . S
H922 C936 0.960 . S
H923 C936 0.960 . S
C924 H916 0.929 . S
C924 C925 1.377 . S
C924 C926 1.384 . S
C925 C924 1.377 . S
C925 C931 1.390 . S
C926 H917 0.930 . S
C926 C924 1.384 . S
C926 C927 1.372 . S
C927 C926 1.372 . S
C927 C928 1.400 . S
C927 C932 1.490 . S
C928 H918 0.930 . S
C928 C927 1.400 . S
C928 C931 1.386 . S
H929 C945 0.930 . S
H930 C946 0.931 . S
C931 H919 0.929 . S
C931 C925 1.390 . S
C931 C928 1.386 . S
C932 C927 1.490 . S
C932 C934 1.395 . S
C932 C935 1.403 . S
H933 C939 0.930 . S
C934 H920 0.930 . S
C934 C932 1.395 . S
C934 C937 1.403 . S
C935 C932 1.403 . S
C935 C936 1.524 . S
C935 C939 1.400 . S
C936 H921 0.960 . S
C936 H922 0.960 . S
C936 H923 0.960 . S
C936 C935 1.524 . S
C937 C934 1.403 . S
C937 C938 1.392 . S
C937 C941 1.495 . S
C938 C937 1.392 . S
C938 C939 1.385 . S
C938 C940 1.478 . S
C939 H933 0.930 . S
C939 C935 1.400 . S
C939 C938 1.385 . S
C940 C938 1.478 . S
C940 C942 1.381 . S
C940 C946 1.383 . S
C941 C937 1.495 . S
C941 H947 0.959 . S
C941 H948 0.961 . S
C941 H949 0.960 . S
C942 C940 1.381 . S
C942 C943 1.394 . S
C942 H950 0.930 . S
C943 C942 1.394 . S
C943 C944 1.383 . S
C943 H951 0.929 . S
C944 C943 1.383 . S
C944 C945 1.377 . S
C945 H929 0.930 . S
C945 C944 1.377 . S
C945 C946 1.379 . S
C946 H930 0.931 . S
C946 C940 1.383 . S
C946 C945 1.379 . S
H947 C941 0.959 . S
H948 C941 0.961 . S
H949 C941 0.960 . S
H950 C942 0.930 . S
H951 C943 0.929 . S
H952 C960 0.929 . S
H953 C962 0.930 . S
H954 C964 0.930 . S
H955 C967 0.929 1_556 S
H956 C970 0.930 . S
H957 C972 0.960 . S
H958 C972 0.960 . S
H959 C972 0.960 . S
C960 H952 0.929 . S
C960 C961 1.377 . S
C960 C962 1.384 . S
C961 C960 1.377 . S
C961 C967 1.390 . S
C962 H953 0.930 . S
C962 C960 1.384 . S
C962 C963 1.372 . S
C963 C962 1.372 . S
C963 C964 1.400 1_554 S
C963 C968 1.490 . S
C964 H954 0.930 . S
C964 C963 1.400 1_556 S
C964 C967 1.386 1_556 S
H965 C981 0.930 . S
H966 C982 0.931 . S
C967 H955 0.929 1_554 S
C967 C961 1.390 . S
C967 C964 1.386 1_554 S
C968 C963 1.490 . S
C968 C970 1.395 . S
C968 C971 1.403 1_554 S
H969 C975 0.930 . S
C970 H956 0.930 . S
C970 C968 1.395 . S
C970 C973 1.403 . S
C971 C968 1.403 1_556 S
C971 C972 1.524 . S
C971 C975 1.400 . S
C972 H957 0.960 . S
C972 H958 0.960 . S
C972 H959 0.960 . S
C972 C971 1.524 . S
C973 C970 1.403 . S
C973 C974 1.392 1_554 S
C973 C977 1.495 . S
C974 C973 1.392 1_556 S
C974 C975 1.385 . S
C974 C976 1.478 . S
C975 H969 0.930 . S
C975 C971 1.400 . S
C975 C974 1.385 . S
C976 C974 1.478 . S
C976 C978 1.381 1_556 S
C976 C982 1.383 . S
C977 C973 1.495 . S
C977 H983 0.959 . S
C977 H984 0.961 . S
C977 H985 0.960 . S
C978 C976 1.381 1_554 S
C978 C979 1.394 1_554 S
C978 H986 0.930 . S
C979 C978 1.394 1_556 S
C979 C980 1.383 . S
C979 H987 0.929 1_556 S
C980 C979 1.383 . S
C980 C981 1.377 . S
C981 H965 0.930 . S
C981 C980 1.377 . S
C981 C982 1.379 . S
C982 H966 0.931 . S
C982 C976 1.383 . S
C982 C981 1.379 . S
H983 C977 0.959 . S
H984 C977 0.961 . S
H985 C977 0.960 . S
H986 C978 0.930 . S
H987 C979 0.929 1_554 S
H988 C996 0.929 . S
H989 C998 0.930 . S
H990 C1000 0.930 . S
H991 C1003 0.929 . S
H992 C1006 0.930 . S
H993 C1008 0.960 . S
H994 C1008 0.960 . S
H995 C1008 0.960 . S
C996 H988 0.929 . S
C996 C997 1.377 . S
C996 C998 1.384 . S
C997 C996 1.377 . S
C997 C1003 1.390 . S
C998 H989 0.930 . S
C998 C996 1.384 . S
C998 C999 1.372 . S
C999 C998 1.372 . S
C999 C1000 1.400 . S
C999 C1004 1.490 . S
C1000 H990 0.930 . S
C1000 C999 1.400 . S
C1000 C1003 1.386 . S
H1001 C1017 0.930 . S
H1002 C1018 0.931 . S
C1003 H991 0.929 . S
C1003 C997 1.390 . S
C1003 C1000 1.386 . S
C1004 C999 1.490 . S
C1004 C1006 1.395 . S
C1004 C1007 1.403 . S
H1005 C1011 0.930 . S
C1006 H992 0.930 . S
C1006 C1004 1.395 . S
C1006 C1009 1.403 . S
C1007 C1004 1.403 . S
C1007 C1008 1.524 . S
C1007 C1011 1.400 . S
C1008 H993 0.960 . S
C1008 H994 0.960 . S
C1008 H995 0.960 . S
C1008 C1007 1.524 . S
C1009 C1006 1.403 . S
C1009 C1010 1.392 . S
C1009 C1013 1.495 . S
C1010 C1009 1.392 . S
C1010 C1011 1.385 . S
C1010 C1012 1.478 . S
C1011 H1005 0.930 . S
C1011 C1007 1.400 . S
C1011 C1010 1.385 . S
C1012 C1010 1.478 . S
C1012 C1014 1.381 . S
C1012 C1018 1.383 . S
C1013 C1009 1.495 . S
C1013 H1019 0.959 . S
C1013 H1020 0.961 . S
C1013 H1021 0.960 . S
C1014 C1012 1.381 . S
C1014 C1015 1.394 . S
C1014 H1022 0.930 . S
C1015 C1014 1.394 . S
C1015 C1016 1.383 . S
C1015 H1023 0.929 . S
C1016 C1015 1.383 . S
C1016 C1017 1.377 . S
C1017 H1001 0.930 . S
C1017 C1016 1.377 . S
C1017 C1018 1.379 . S
C1018 H1002 0.931 . S
C1018 C1012 1.383 . S
C1018 C1017 1.379 . S
H1019 C1013 0.959 . S
H1020 C1013 0.961 . S
H1021 C1013 0.960 . S
H1022 C1014 0.930 . S
H1023 C1015 0.929 . S
H1024 C1032 0.929 . S
H1025 C1034 0.930 . S
H1026 C1036 0.930 . S
H1027 C1039 0.929 . S
H1028 C1042 0.930 . S
H1029 C1044 0.960 . S
H1030 C1044 0.960 . S
H1031 C1044 0.960 . S
C1032 H1024 0.929 . S
C1032 C1033 1.377 . S
C1032 C1034 1.384 . S
C1033 C1032 1.377 . S
C1033 C1039 1.390 . S
C1034 H1025 0.930 . S
C1034 C1032 1.384 . S
C1034 C1035 1.372 . S
C1035 C1034 1.372 . S
C1035 C1036 1.400 . S
C1035 C1040 1.490 . S
C1036 H1026 0.930 . S
C1036 C1035 1.400 . S
C1036 C1039 1.386 . S
H1037 C1053 0.930 . S
H1038 C1054 0.931 . S
C1039 H1027 0.929 . S
C1039 C1033 1.390 . S
C1039 C1036 1.386 . S
C1040 C1035 1.490 . S
C1040 C1042 1.395 . S
C1040 C1043 1.403 . S
H1041 C1047 0.930 . S
C1042 H1028 0.930 . S
C1042 C1040 1.395 . S
C1042 C1045 1.403 . S
C1043 C1040 1.403 . S
C1043 C1044 1.524 . S
C1043 C1047 1.400 . S
C1044 H1029 0.960 . S
C1044 H1030 0.960 . S
C1044 H1031 0.960 . S
C1044 C1043 1.524 . S
C1045 C1042 1.403 . S
C1045 C1046 1.392 . S
C1045 C1049 1.495 . S
C1046 C1045 1.392 . S
C1046 C1047 1.385 . S
C1046 C1048 1.478 . S
C1047 H1041 0.930 . S
C1047 C1043 1.400 . S
C1047 C1046 1.385 . S
C1048 C1046 1.478 . S
C1048 C1050 1.381 . S
C1048 C1054 1.383 . S
C1049 C1045 1.495 . S
C1049 H1055 0.959 . S
C1049 H1056 0.961 . S
C1049 H1057 0.960 . S
C1050 C1048 1.381 . S
C1050 C1051 1.394 . S
C1050 H1058 0.930 . S
C1051 C1050 1.394 . S
C1051 C1052 1.383 . S
C1051 H1059 0.929 . S
C1052 C1051 1.383 . S
C1052 C1053 1.377 . S
C1053 H1037 0.930 . S
C1053 C1052 1.377 . S
C1053 C1054 1.379 . S
C1054 H1038 0.931 . S
C1054 C1048 1.383 . S
C1054 C1053 1.379 . S
H1055 C1049 0.959 . S
H1056 C1049 0.961 . S
H1057 C1049 0.960 . S
H1058 C1050 0.930 . S
H1059 C1051 0.929 . S
H1060 C1068 0.929 . S
H1061 C1070 0.930 . S
H1062 C1072 0.930 . S
H1063 C1075 0.929 . S
H1064 C1078 0.930 . S
H1065 C1080 0.960 . S
H1066 C1080 0.960 . S
H1067 C1080 0.960 . S
C1068 H1060 0.929 . S
C1068 C1069 1.377 . S
C1068 C1070 1.384 . S
C1069 C1068 1.377 . S
C1069 C1075 1.390 . S
C1070 H1061 0.930 . S
C1070 C1068 1.384 . S
C1070 C1071 1.372 . S
C1071 C1070 1.372 . S
C1071 C1072 1.400 . S
C1071 C1076 1.490 1_556 S
C1072 H1062 0.930 . S
C1072 C1071 1.400 . S
C1072 C1075 1.386 . S
H1073 C1089 0.930 . S
H1074 C1090 0.931 . S
C1075 H1063 0.929 . S
C1075 C1069 1.390 . S
C1075 C1072 1.386 . S
C1076 C1071 1.490 1_554 S
C1076 C1078 1.395 1_455 S
C1076 C1079 1.403 . S
H1077 C1083 0.930 . S
C1078 H1064 0.930 . S
C1078 C1076 1.395 1_655 S
C1078 C1081 1.403 . S
C1079 C1076 1.403 . S
C1079 C1080 1.524 . S
C1079 C1083 1.400 . S
C1080 H1065 0.960 . S
C1080 H1066 0.960 . S
C1080 H1067 0.960 . S
C1080 C1079 1.524 . S
C1081 C1078 1.403 . S
C1081 C1082 1.392 . S
C1081 C1085 1.495 . S
C1082 C1081 1.392 . S
C1082 C1083 1.385 1_655 S
C1082 C1084 1.478 . S
C1083 H1077 0.930 . S
C1083 C1079 1.400 . S
C1083 C1082 1.385 1_455 S
C1084 C1082 1.478 . S
C1084 C1086 1.381 . S
C1084 C1090 1.383 . S
C1085 C1081 1.495 . S
C1085 H1091 0.959 . S
C1085 H1092 0.961 . S
C1085 H1093 0.960 . S
C1086 C1084 1.381 . S
C1086 C1087 1.394 . S
C1086 H1094 0.930 . S
C1087 C1086 1.394 . S
C1087 C1088 1.383 . S
C1087 H1095 0.929 . S
C1088 C1087 1.383 . S
C1088 C1089 1.377 . S
C1089 H1073 0.930 . S
C1089 C1088 1.377 . S
C1089 C1090 1.379 . S
C1090 H1074 0.931 . S
C1090 C1084 1.383 . S
C1090 C1089 1.379 . S
H1091 C1085 0.959 . S
H1092 C1085 0.961 . S
H1093 C1085 0.960 . S
H1094 C1086 0.930 . S
H1095 C1087 0.929 . S
H1096 C1104 0.929 . S
H1097 C1106 0.930 . S
H1098 C1108 0.930 . S
H1099 C1111 0.929 . S
H1100 C1114 0.930 . S
H1101 C1116 0.960 . S
H1102 C1116 0.960 . S
H1103 C1116 0.960 . S
C1104 H1096 0.929 . S
C1104 C1105 1.377 . S
C1104 C1106 1.384 . S
C1105 C1104 1.377 . S
C1105 C1111 1.390 . S
C1106 H1097 0.930 . S
C1106 C1104 1.384 . S
C1106 C1107 1.372 . S
C1107 C1106 1.372 . S
C1107 C1108 1.400 . S
C1107 C1112 1.490 . S
C1108 H1098 0.930 . S
C1108 C1107 1.400 . S
C1108 C1111 1.386 . S
H1109 C1125 0.930 . S
H1110 C1126 0.931 . S
C1111 H1099 0.929 . S
C1111 C1105 1.390 . S
C1111 C1108 1.386 . S
C1112 C1107 1.490 . S
C1112 C1114 1.395 . S
C1112 C1115 1.403 . S
H1113 C1119 0.930 . S
C1114 H1100 0.930 . S
C1114 C1112 1.395 . S
C1114 C1117 1.403 . S
C1115 C1112 1.403 . S
C1115 C1116 1.524 . S
C1115 C1119 1.400 . S
C1116 H1101 0.960 . S
C1116 H1102 0.960 . S
C1116 H1103 0.960 . S
C1116 C1115 1.524 . S
C1117 C1114 1.403 . S
C1117 C1118 1.392 . S
C1117 C1121 1.495 . S
C1118 C1117 1.392 . S
C1118 C1119 1.385 . S
C1118 C1120 1.478 . S
C1119 H1113 0.930 . S
C1119 C1115 1.400 . S
C1119 C1118 1.385 . S
C1120 C1118 1.478 . S
C1120 C1122 1.381 . S
C1120 C1126 1.383 . S
C1121 C1117 1.495 . S
C1121 H1127 0.959 . S
C1121 H1128 0.961 . S
C1121 H1129 0.960 . S
C1122 C1120 1.381 . S
C1122 C1123 1.394 . S
C1122 H1130 0.930 . S
C1123 C1122 1.394 . S
C1123 C1124 1.383 . S
C1123 H1131 0.929 . S
C1124 C1123 1.383 . S
C1124 C1125 1.377 . S
C1125 H1109 0.930 . S
C1125 C1124 1.377 . S
C1125 C1126 1.379 . S
C1126 H1110 0.931 . S
C1126 C1120 1.383 . S
C1126 C1125 1.379 . S
H1127 C1121 0.959 . S
H1128 C1121 0.961 . S
H1129 C1121 0.960 . S
H1130 C1122 0.930 . S
H1131 C1123 0.929 . S
H1132 C1140 0.929 . S
H1133 C1142 0.930 . S
H1134 C1144 0.930 . S
H1135 C1147 0.929 . S
H1136 C1150 0.930 . S
H1137 C1152 0.960 . S
H1138 C1152 0.960 . S
H1139 C1152 0.960 . S
C1140 H1132 0.929 . S
C1140 C1141 1.377 . S
C1140 C1142 1.384 . S
C1141 C1140 1.377 . S
C1141 C1147 1.390 . S
C1142 H1133 0.930 . S
C1142 C1140 1.384 . S
C1142 C1143 1.372 . S
C1143 C1142 1.372 . S
C1143 C1144 1.400 . S
C1143 C1148 1.490 . S
C1144 H1134 0.930 . S
C1144 C1143 1.400 . S
C1144 C1147 1.386 . S
H1145 C1161 0.930 . S
H1146 C1162 0.931 . S
C1147 H1135 0.929 . S
C1147 C1141 1.390 . S
C1147 C1144 1.386 . S
C1148 C1143 1.490 . S
C1148 C1150 1.395 . S
C1148 C1151 1.403 . S
H1149 C1155 0.930 . S
C1150 H1136 0.930 . S
C1150 C1148 1.395 . S
C1150 C1153 1.403 . S
C1151 C1148 1.403 . S
C1151 C1152 1.524 . S
C1151 C1155 1.400 . S
C1152 H1137 0.960 . S
C1152 H1138 0.960 . S
C1152 H1139 0.960 . S
C1152 C1151 1.524 . S
C1153 C1150 1.403 . S
C1153 C1154 1.392 . S
C1153 C1157 1.495 . S
C1154 C1153 1.392 . S
C1154 C1155 1.385 . S
C1154 C1156 1.478 . S
C1155 H1149 0.930 . S
C1155 C1151 1.400 . S
C1155 C1154 1.385 . S
C1156 C1154 1.478 . S
C1156 C1158 1.381 . S
C1156 C1162 1.383 . S
C1157 C1153 1.495 . S
C1157 H1163 0.959 . S
C1157 H1164 0.961 . S
C1157 H1165 0.960 . S
C1158 C1156 1.381 . S
C1158 C1159 1.394 . S
C1158 H1166 0.930 . S
C1159 C1158 1.394 . S
C1159 C1160 1.383 . S
C1159 H1167 0.929 . S
C1160 C1159 1.383 . S
C1160 C1161 1.377 . S
C1161 H1145 0.930 . S
C1161 C1160 1.377 . S
C1161 C1162 1.379 . S
C1162 H1146 0.931 . S
C1162 C1156 1.383 . S
C1162 C1161 1.379 . S
H1163 C1157 0.959 . S
H1164 C1157 0.961 . S
H1165 C1157 0.960 . S
H1166 C1158 0.930 . S
H1167 C1159 0.929 . S
H1168 C1176 0.929 . S
H1169 C1178 0.930 . S
H1170 C1180 0.930 . S
H1171 C1183 0.929 . S
H1172 C1186 0.930 . S
H1173 C1188 0.960 . S
H1174 C1188 0.960 . S
H1175 C1188 0.960 . S
C1176 H1168 0.929 . S
C1176 C1177 1.377 . S
C1176 C1178 1.384 . S
C1177 C1176 1.377 . S
C1177 C1183 1.390 . S
C1178 H1169 0.930 . S
C1178 C1176 1.384 . S
C1178 C1179 1.372 . S
C1179 C1178 1.372 . S
C1179 C1180 1.400 . S
C1179 C1184 1.490 . S
C1180 H1170 0.930 . S
C1180 C1179 1.400 . S
C1180 C1183 1.386 . S
H1181 C1197 0.930 . S
H1182 C1198 0.931 . S
C1183 H1171 0.929 . S
C1183 C1177 1.390 . S
C1183 C1180 1.386 . S
C1184 C1179 1.490 . S
C1184 C1186 1.395 . S
C1184 C1187 1.403 . S
H1185 C1191 0.930 . S
C1186 H1172 0.930 . S
C1186 C1184 1.395 . S
C1186 C1189 1.403 . S
C1187 C1184 1.403 . S
C1187 C1188 1.524 . S
C1187 C1191 1.400 . S
C1188 H1173 0.960 . S
C1188 H1174 0.960 . S
C1188 H1175 0.960 . S
C1188 C1187 1.524 . S
C1189 C1186 1.403 . S
C1189 C1190 1.392 . S
C1189 C1193 1.495 . S
C1190 C1189 1.392 . S
C1190 C1191 1.385 . S
C1190 C1192 1.478 . S
C1191 H1185 0.930 . S
C1191 C1187 1.400 . S
C1191 C1190 1.385 . S
C1192 C1190 1.478 . S
C1192 C1194 1.381 . S
C1192 C1198 1.383 . S
C1193 C1189 1.495 . S
C1193 H1199 0.959 . S
C1193 H1200 0.961 . S
C1193 H1201 0.960 . S
C1194 C1192 1.381 . S
C1194 C1195 1.394 . S
C1194 H1202 0.930 . S
C1195 C1194 1.394 . S
C1195 C1196 1.383 . S
C1195 H1203 0.929 . S
C1196 C1195 1.383 . S
C1196 C1197 1.377 . S
C1197 H1181 0.930 . S
C1197 C1196 1.377 . S
C1197 C1198 1.379 . S
C1198 H1182 0.931 . S
C1198 C1192 1.383 . S
C1198 C1197 1.379 . S
H1199 C1193 0.959 . S
H1200 C1193 0.961 . S
H1201 C1193 0.960 . S
H1202 C1194 0.930 . S
H1203 C1195 0.929 . S
H1204 C1212 0.929 . S
H1205 C1214 0.930 . S
H1206 C1216 0.930 . S
H1207 C1219 0.929 . S
H1208 C1222 0.930 . S
H1209 C1224 0.960 1_556 S
H1210 C1224 0.960 . S
H1211 C1224 0.960 . S
C1212 H1204 0.929 . S
C1212 C1213 1.377 . S
C1212 C1214 1.384 . S
C1213 C1212 1.377 . S
C1213 C1219 1.390 . S
C1214 H1205 0.930 . S
C1214 C1212 1.384 . S
C1214 C1215 1.372 . S
C1215 C1214 1.372 . S
C1215 C1216 1.400 . S
C1215 C1220 1.490 1_554 S
C1216 H1206 0.930 . S
C1216 C1215 1.400 . S
C1216 C1219 1.386 . S
H1217 C1233 0.930 . S
H1218 C1234 0.931 . S
C1219 H1207 0.929 . S
C1219 C1213 1.390 . S
C1219 C1216 1.386 . S
C1220 C1215 1.490 1_556 S
C1220 C1222 1.395 . S
C1220 C1223 1.403 . S
H1221 C1227 0.930 . S
C1222 H1208 0.930 . S
C1222 C1220 1.395 . S
C1222 C1225 1.403 . S
C1223 C1220 1.403 . S
C1223 C1224 1.524 1_556 S
C1223 C1227 1.400 . S
C1224 H1209 0.960 1_554 S
C1224 H1210 0.960 . S
C1224 H1211 0.960 . S
C1224 C1223 1.524 1_554 S
C1225 C1222 1.403 . S
C1225 C1226 1.392 . S
C1225 C1229 1.495 . S
C1226 C1225 1.392 . S
C1226 C1227 1.385 . S
C1226 C1228 1.478 . S
C1227 H1221 0.930 . S
C1227 C1223 1.400 . S
C1227 C1226 1.385 . S
C1228 C1226 1.478 . S
C1228 C1230 1.381 . S
C1228 C1234 1.383 . S
C1229 C1225 1.495 . S
C1229 H1235 0.959 . S
C1229 H1236 0.961 . S
C1229 H1237 0.960 . S
C1230 C1228 1.381 . S
C1230 C1231 1.394 . S
C1230 H1238 0.930 . S
C1231 C1230 1.394 . S
C1231 C1232 1.383 . S
C1231 H1239 0.929 . S
C1232 C1231 1.383 . S
C1232 C1233 1.377 . S
C1233 H1217 0.930 . S
C1233 C1232 1.377 . S
C1233 C1234 1.379 . S
C1234 H1218 0.931 . S
C1234 C1228 1.383 . S
C1234 C1233 1.379 . S
H1235 C1229 0.959 . S
H1236 C1229 0.961 . S
H1237 C1229 0.960 . S
H1238 C1230 0.930 . S
H1239 C1231 0.929 . S
H1240 C1248 0.929 . S
H1241 C1250 0.930 . S
H1242 C1252 0.930 . S
H1243 C1255 0.929 . S
H1244 C1258 0.930 . S
H1245 C1260 0.960 . S
H1246 C1260 0.960 . S
H1247 C1260 0.960 . S
C1248 H1240 0.929 . S
C1248 C1249 1.377 . S
C1248 C1250 1.384 . S
C1249 C1248 1.377 . S
C1249 C1255 1.390 . S
C1250 H1241 0.930 . S
C1250 C1248 1.384 . S
C1250 C1251 1.372 . S
C1251 C1250 1.372 . S
C1251 C1252 1.400 . S
C1251 C1256 1.490 . S
C1252 H1242 0.930 . S
C1252 C1251 1.400 . S
C1252 C1255 1.386 . S
H1253 C1269 0.930 . S
H1254 C1270 0.931 . S
C1255 H1243 0.929 . S
C1255 C1249 1.390 . S
C1255 C1252 1.386 . S
C1256 C1251 1.490 . S
C1256 C1258 1.395 . S
C1256 C1259 1.403 . S
H1257 C1263 0.930 . S
C1258 H1244 0.930 . S
C1258 C1256 1.395 . S
C1258 C1261 1.403 . S
C1259 C1256 1.403 . S
C1259 C1260 1.524 . S
C1259 C1263 1.400 . S
C1260 H1245 0.960 . S
C1260 H1246 0.960 . S
C1260 H1247 0.960 . S
C1260 C1259 1.524 . S
C1261 C1258 1.403 . S
C1261 C1262 1.392 . S
C1261 C1265 1.495 . S
C1262 C1261 1.392 . S
C1262 C1263 1.385 . S
C1262 C1264 1.478 . S
C1263 H1257 0.930 . S
C1263 C1259 1.400 . S
C1263 C1262 1.385 . S
C1264 C1262 1.478 . S
C1264 C1266 1.381 . S
C1264 C1270 1.383 . S
C1265 C1261 1.495 . S
C1265 H1271 0.959 . S
C1265 H1272 0.961 . S
C1265 H1273 0.960 . S
C1266 C1264 1.381 . S
C1266 C1267 1.394 . S
C1266 H1274 0.930 . S
C1267 C1266 1.394 . S
C1267 C1268 1.383 . S
C1267 H1275 0.929 . S
C1268 C1267 1.383 . S
C1268 C1269 1.377 . S
C1269 H1253 0.930 . S
C1269 C1268 1.377 . S
C1269 C1270 1.379 . S
C1270 H1254 0.931 . S
C1270 C1264 1.383 . S
C1270 C1269 1.379 . S
H1271 C1265 0.959 . S
H1272 C1265 0.961 . S
H1273 C1265 0.960 . S
H1274 C1266 0.930 . S
H1275 C1267 0.929 . S
H1276 C1284 0.929 . S
H1277 C1286 0.930 . S
H1278 C1288 0.930 . S
H1279 C1291 0.929 . S
H1280 C1294 0.930 . S
H1281 C1296 0.960 . S
H1282 C1296 0.960 . S
H1283 C1296 0.960 . S
C1284 H1276 0.929 . S
C1284 C1285 1.377 . S
C1284 C1286 1.384 . S
C1285 C1284 1.377 . S
C1285 C1291 1.390 . S
C1286 H1277 0.930 . S
C1286 C1284 1.384 . S
C1286 C1287 1.372 . S
C1287 C1286 1.372 . S
C1287 C1288 1.400 . S
C1287 C1292 1.490 . S
C1288 H1278 0.930 . S
C1288 C1287 1.400 . S
C1288 C1291 1.386 . S
H1289 C1305 0.930 . S
H1290 C1306 0.931 . S
C1291 H1279 0.929 . S
C1291 C1285 1.390 . S
C1291 C1288 1.386 . S
C1292 C1287 1.490 . S
C1292 C1294 1.395 . S
C1292 C1295 1.403 1_455 S
H1293 C1299 0.930 . S
C1294 H1280 0.930 . S
C1294 C1292 1.395 . S
C1294 C1297 1.403 . S
C1295 C1292 1.403 1_655 S
C1295 C1296 1.524 . S
C1295 C1299 1.400 . S
C1296 H1281 0.960 . S
C1296 H1282 0.960 . S
C1296 H1283 0.960 . S
C1296 C1295 1.524 . S
C1297 C1294 1.403 . S
C1297 C1298 1.392 1_455 S
C1297 C1301 1.495 . S
C1298 C1297 1.392 1_655 S
C1298 C1299 1.385 . S
C1298 C1300 1.478 . S
C1299 H1293 0.930 . S
C1299 C1295 1.400 . S
C1299 C1298 1.385 . S
C1300 C1298 1.478 . S
C1300 C1302 1.381 . S
C1300 C1306 1.383 . S
C1301 C1297 1.495 . S
C1301 H1307 0.959 . S
C1301 H1308 0.961 . S
C1301 H1309 0.960 . S
C1302 C1300 1.381 . S
C1302 C1303 1.394 . S
C1302 H1310 0.930 . S
C1303 C1302 1.394 . S
C1303 C1304 1.383 . S
C1303 H1311 0.929 . S
C1304 C1303 1.383 . S
C1304 C1305 1.377 . S
C1305 H1289 0.930 . S
C1305 C1304 1.377 . S
C1305 C1306 1.379 . S
C1306 H1290 0.931 . S
C1306 C1300 1.383 . S
C1306 C1305 1.379 . S
H1307 C1301 0.959 . S
H1308 C1301 0.961 . S
H1309 C1301 0.960 . S
H1310 C1302 0.930 . S
H1311 C1303 0.929 . S
H1312 C1320 0.929 . S
H1313 C1322 0.930 . S
H1314 C1324 0.930 . S
H1315 C1327 0.929 . S
H1316 C1330 0.930 . S
H1317 C1332 0.960 . S
H1318 C1332 0.960 . S
H1319 C1332 0.960 . S
C1320 H1312 0.929 . S
C1320 C1321 1.377 . S
C1320 C1322 1.384 . S
C1321 C1320 1.377 . S
C1321 C1327 1.390 . S
C1322 H1313 0.930 . S
C1322 C1320 1.384 . S
C1322 C1323 1.372 . S
C1323 C1322 1.372 . S
C1323 C1324 1.400 . S
C1323 C1328 1.490 . S
C1324 H1314 0.930 . S
C1324 C1323 1.400 . S
C1324 C1327 1.386 . S
H1325 C1341 0.930 . S
H1326 C1342 0.931 . S
C1327 H1315 0.929 . S
C1327 C1321 1.390 . S
C1327 C1324 1.386 . S
C1328 C1323 1.490 . S
C1328 C1330 1.395 . S
C1328 C1331 1.403 . S
H1329 C1335 0.930 . S
C1330 H1316 0.930 . S
C1330 C1328 1.395 . S
C1330 C1333 1.403 . S
C1331 C1328 1.403 . S
C1331 C1332 1.524 . S
C1331 C1335 1.400 . S
C1332 H1317 0.960 . S
C1332 H1318 0.960 . S
C1332 H1319 0.960 . S
C1332 C1331 1.524 . S
C1333 C1330 1.403 . S
C1333 C1334 1.392 . S
C1333 C1337 1.495 . S
C1334 C1333 1.392 . S
C1334 C1335 1.385 . S
C1334 C1336 1.478 . S
C1335 H1329 0.930 . S
C1335 C1331 1.400 . S
C1335 C1334 1.385 . S
C1336 C1334 1.478 . S
C1336 C1338 1.381 . S
C1336 C1342 1.383 . S
C1337 C1333 1.495 . S
C1337 H1343 0.959 . S
C1337 H1344 0.961 . S
C1337 H1345 0.960 . S
C1338 C1336 1.381 . S
C1338 C1339 1.394 . S
C1338 H1346 0.930 . S
C1339 C1338 1.394 . S
C1339 C1340 1.383 . S
C1339 H1347 0.929 . S
C1340 C1339 1.383 . S
C1340 C1341 1.377 . S
C1341 H1325 0.930 . S
C1341 C1340 1.377 . S
C1341 C1342 1.379 . S
C1342 H1326 0.931 . S
C1342 C1336 1.383 . S
C1342 C1341 1.379 . S
H1343 C1337 0.959 . S
H1344 C1337 0.961 . S
H1345 C1337 0.960 . S
H1346 C1338 0.930 . S
H1347 C1339 0.929 . S
H1348 C1356 0.929 . S
H1349 C1358 0.906 1_455 S
H1350 C1360 0.930 . S
H1351 C1363 0.929 . S
H1352 C1366 0.930 . S
H1353 C1368 0.960 . S
H1354 C1368 0.960 1_554 S
H1355 C1368 0.960 1_655 S
C1356 H1348 0.929 . S
C1356 C1357 1.377 . S
C1356 C1358 1.384 . S
C1357 C1356 1.377 . S
C1357 C1363 1.390 . S
C1358 H1349 0.906 1_655 S
C1358 C1356 1.384 . S
C1358 C1359 1.372 . S
C1359 C1358 1.372 . S
C1359 C1360 1.400 . S
C1359 C1364 1.490 1_554 S
C1360 H1350 0.930 . S
C1360 C1359 1.400 . S
C1360 C1363 1.386 . S
H1361 C1377 0.930 . S
H1362 C1378 0.870 1_655 S
C1363 H1351 0.929 . S
C1363 C1357 1.390 . S
C1363 C1360 1.386 . S
C1364 C1359 1.490 1_556 S
C1364 C1366 1.395 . S
C1364 C1367 1.403 1_655 S
H1365 C1371 0.930 . S
C1366 H1352 0.930 . S
C1366 C1364 1.395 . S
C1366 C1369 1.397 1_655 S
C1367 C1364 1.403 1_455 S
C1367 C1368 1.524 . S
C1367 C1371 1.400 . S
C1368 H1353 0.960 . S
C1368 H1354 0.960 1_556 S
C1368 H1355 0.960 1_455 S
C1368 C1367 1.524 . S
C1369 C1366 1.397 1_455 S
C1369 C1370 1.400 . S
C1369 C1373 1.491 1_455 S
C1370 C1369 1.400 . S
C1370 C1371 1.385 . S
C1370 C1372 1.478 . S
C1371 H1365 0.930 . S
C1371 C1367 1.400 . S
C1371 C1370 1.385 . S
C1372 C1370 1.478 . S
C1372 C1374 1.381 . S
C1372 C1378 1.383 . S
C1373 C1369 1.491 1_655 S
C1373 H1379 0.994 . S
C1373 H1380 1.000 . S
C1373 H1381 0.895 1_655 S
C1374 C1372 1.381 . S
C1374 C1375 1.394 . S
C1374 H1382 0.930 . S
C1375 C1374 1.394 . S
C1375 C1376 1.383 . S
C1375 H1383 0.929 . S
C1376 C1375 1.383 . S
C1376 C1377 1.377 . S
C1377 H1361 0.930 . S
C1377 C1376 1.377 . S
C1377 C1378 1.379 . S
C1378 H1362 0.870 1_455 S
C1378 C1372 1.383 . S
C1378 C1377 1.379 . S
H1379 C1373 0.994 . S
H1380 C1373 1.000 . S
H1381 C1373 0.895 1_455 S
H1382 C1374 0.930 . S
H1383 C1375 0.929 . S
H1384 C1392 0.929 . S
H1385 C1394 0.930 . S
H1386 C1396 0.930 . S
H1387 C1399 0.929 . S
H1388 C1402 0.930 . S
H1389 C1404 0.960 . S
H1390 C1404 0.960 . S
H1391 C1404 0.960 . S
C1392 H1384 0.929 . S
C1392 C1393 1.377 . S
C1392 C1394 1.384 . S
C1393 C1392 1.377 . S
C1393 C1399 1.390 . S
C1394 H1385 0.930 . S
C1394 C1392 1.384 . S
C1394 C1395 1.372 . S
C1395 C1394 1.372 . S
C1395 C1396 1.400 . S
C1395 C1400 1.490 . S
C1396 H1386 0.930 . S
C1396 C1395 1.400 . S
C1396 C1399 1.386 . S
H1397 C1413 0.930 . S
H1398 C1414 0.931 . S
C1399 H1387 0.929 . S
C1399 C1393 1.390 . S
C1399 C1396 1.386 . S
C1400 C1395 1.490 . S
C1400 C1402 1.395 . S
C1400 C1403 1.403 . S
H1401 C1407 0.930 . S
C1402 H1388 0.930 . S
C1402 C1400 1.395 . S
C1402 C1405 1.403 . S
C1403 C1400 1.403 . S
C1403 C1404 1.524 . S
C1403 C1407 1.400 . S
C1404 H1389 0.960 . S
C1404 H1390 0.960 . S
C1404 H1391 0.960 . S
C1404 C1403 1.524 . S
C1405 C1402 1.403 . S
C1405 C1406 1.392 . S
C1405 C1409 1.495 . S
C1406 C1405 1.392 . S
C1406 C1407 1.385 . S
C1406 C1408 1.478 . S
C1407 H1401 0.930 . S
C1407 C1403 1.400 . S
C1407 C1406 1.385 . S
C1408 C1406 1.478 . S
C1408 C1410 1.381 . S
C1408 C1414 1.383 . S
C1409 C1405 1.495 . S
C1409 H1415 0.959 . S
C1409 H1416 0.961 . S
C1409 H1417 0.960 . S
C1410 C1408 1.381 . S
C1410 C1411 1.394 . S
C1410 H1418 0.930 . S
C1411 C1410 1.394 . S
C1411 C1412 1.383 . S
C1411 H1419 0.929 . S
C1412 C1411 1.383 . S
C1412 C1413 1.377 . S
C1413 H1397 0.930 . S
C1413 C1412 1.377 . S
C1413 C1414 1.379 . S
C1414 H1398 0.931 . S
C1414 C1408 1.383 . S
C1414 C1413 1.379 . S
H1415 C1409 0.959 . S
H1416 C1409 0.961 . S
H1417 C1409 0.960 . S
H1418 C1410 0.930 . S
H1419 C1411 0.929 . S
H1420 C1428 0.929 . S
H1421 C1430 0.930 . S
H1422 C1432 0.930 . S
H1423 C1435 0.929 . S
H1424 C1438 0.930 . S
H1425 C1440 0.960 . S
H1426 C1440 0.960 . S
H1427 C1440 0.960 . S
C1428 H1420 0.929 . S
C1428 C1429 1.377 . S
C1428 C1430 1.384 . S
C1429 C1428 1.377 . S
C1429 C1435 1.390 . S
C1430 H1421 0.930 . S
C1430 C1428 1.384 . S
C1430 C1431 1.372 . S
C1431 C1430 1.372 . S
C1431 C1432 1.400 . S
C1431 C1436 1.490 . S
C1432 H1422 0.930 . S
C1432 C1431 1.400 . S
C1432 C1435 1.386 . S
H1433 C1449 0.930 . S
H1434 C1450 0.931 . S
C1435 H1423 0.929 . S
C1435 C1429 1.390 . S
C1435 C1432 1.386 . S
C1436 C1431 1.490 . S
C1436 C1438 1.395 . S
C1436 C1439 1.403 . S
H1437 C1443 0.930 . S
C1438 H1424 0.930 . S
C1438 C1436 1.395 . S
C1438 C1441 1.403 . S
C1439 C1436 1.403 . S
C1439 C1440 1.524 . S
C1439 C1443 1.400 . S
C1440 H1425 0.960 . S
C1440 H1426 0.960 . S
C1440 H1427 0.960 . S
C1440 C1439 1.524 . S
C1441 C1438 1.403 . S
C1441 C1442 1.392 . S
C1441 C1445 1.495 . S
C1442 C1441 1.392 . S
C1442 C1443 1.385 . S
C1442 C1444 1.478 . S
C1443 H1437 0.930 . S
C1443 C1439 1.400 . S
C1443 C1442 1.385 . S
C1444 C1442 1.478 . S
C1444 C1446 1.381 . S
C1444 C1450 1.383 . S
C1445 C1441 1.495 . S
C1445 H1451 0.959 . S
C1445 H1452 0.961 . S
C1445 H1453 0.960 . S
C1446 C1444 1.381 . S
C1446 C1447 1.394 . S
C1446 H1454 0.930 . S
C1447 C1446 1.394 . S
C1447 C1448 1.383 . S
C1447 H1455 0.929 . S
C1448 C1447 1.383 . S
C1448 C1449 1.377 . S
C1449 H1433 0.930 . S
C1449 C1448 1.377 . S
C1449 C1450 1.379 . S
C1450 H1434 0.931 . S
C1450 C1444 1.383 . S
C1450 C1449 1.379 . S
H1451 C1445 0.959 . S
H1452 C1445 0.961 . S
H1453 C1445 0.960 . S
H1454 C1446 0.930 . S
H1455 C1447 0.929 . S
H1456 C1464 0.929 . S
H1457 C1466 0.930 . S
H1458 C1468 0.930 . S
H1459 C1471 0.929 . S
H1460 C1474 0.930 . S
H1461 C1476 0.960 . S
H1462 C1476 0.960 . S
H1463 C1476 0.960 . S
C1464 H1456 0.929 . S
C1464 C1465 1.377 . S
C1464 C1466 1.384 . S
C1465 C1464 1.377 . S
C1465 C1471 1.390 . S
C1466 H1457 0.930 . S
C1466 C1464 1.384 . S
C1466 C1467 1.372 . S
C1467 C1466 1.372 . S
C1467 C1468 1.400 . S
C1467 C1472 1.490 . S
C1468 H1458 0.930 . S
C1468 C1467 1.400 . S
C1468 C1471 1.386 . S
H1469 C1485 0.930 . S
H1470 C1486 0.931 . S
C1471 H1459 0.929 . S
C1471 C1465 1.390 . S
C1471 C1468 1.386 . S
C1472 C1467 1.490 . S
C1472 C1474 1.395 . S
C1472 C1475 1.403 . S
H1473 C1479 0.930 . S
C1474 H1460 0.930 . S
C1474 C1472 1.395 . S
C1474 C1477 1.403 . S
C1475 C1472 1.403 . S
C1475 C1476 1.524 . S
C1475 C1479 1.400 . S
C1476 H1461 0.960 . S
C1476 H1462 0.960 . S
C1476 H1463 0.960 . S
C1476 C1475 1.524 . S
C1477 C1474 1.403 . S
C1477 C1478 1.392 . S
C1477 C1481 1.495 . S
C1478 C1477 1.392 . S
C1478 C1479 1.385 . S
C1478 C1480 1.478 . S
C1479 H1473 0.930 . S
C1479 C1475 1.400 . S
C1479 C1478 1.385 . S
C1480 C1478 1.478 . S
C1480 C1482 1.381 . S
C1480 C1486 1.383 . S
C1481 C1477 1.495 . S
C1481 H1487 0.959 . S
C1481 H1488 0.961 . S
C1481 H1489 0.960 . S
C1482 C1480 1.381 . S
C1482 C1483 1.394 . S
C1482 H1490 0.930 . S
C1483 C1482 1.394 . S
C1483 C1484 1.383 . S
C1483 H1491 0.929 . S
C1484 C1483 1.383 . S
C1484 C1485 1.377 . S
C1485 H1469 0.930 . S
C1485 C1484 1.377 . S
C1485 C1486 1.379 . S
C1486 H1470 0.931 . S
C1486 C1480 1.383 . S
C1486 C1485 1.379 . S
H1487 C1481 0.959 . S
H1488 C1481 0.961 . S
H1489 C1481 0.960 . S
H1490 C1482 0.930 . S
H1491 C1483 0.929 . S
H1492 C1500 0.929 . S
H1493 C1502 0.930 . S
H1494 C1504 0.930 . S
H1495 C1507 0.929 . S
H1496 C1510 0.930 . S
H1497 C1512 0.960 . S
H1498 C1512 0.960 . S
H1499 C1512 0.960 . S
C1500 H1492 0.929 . S
C1500 C1501 1.377 . S
C1500 C1502 1.384 . S
C1501 C1500 1.377 . S
C1501 C1507 1.390 . S
C1502 H1493 0.930 . S
C1502 C1500 1.384 . S
C1502 C1503 1.372 . S
C1503 C1502 1.372 . S
C1503 C1504 1.400 . S
C1503 C1508 1.490 . S
C1504 H1494 0.930 . S
C1504 C1503 1.400 . S
C1504 C1507 1.386 . S
H1505 C1521 0.930 . S
H1506 C1522 0.931 . S
C1507 H1495 0.929 . S
C1507 C1501 1.390 . S
C1507 C1504 1.386 . S
C1508 C1503 1.490 . S
C1508 C1510 1.395 . S
C1508 C1511 1.403 . S
H1509 C1515 0.930 . S
C1510 H1496 0.930 . S
C1510 C1508 1.395 . S
C1510 C1513 1.403 . S
C1511 C1508 1.403 . S
C1511 C1512 1.524 . S
C1511 C1515 1.400 . S
C1512 H1497 0.960 . S
C1512 H1498 0.960 . S
C1512 H1499 0.960 . S
C1512 C1511 1.524 . S
C1513 C1510 1.403 . S
C1513 C1514 1.392 . S
C1513 C1517 1.495 . S
C1514 C1513 1.392 . S
C1514 C1515 1.385 . S
C1514 C1516 1.478 1_554 S
C1515 H1509 0.930 . S
C1515 C1511 1.400 . S
C1515 C1514 1.385 . S
C1516 C1514 1.478 1_556 S
C1516 C1518 1.381 . S
C1516 C1522 1.383 . S
C1517 C1513 1.495 . S
C1517 H1523 0.959 . S
C1517 H1524 0.961 . S
C1517 H1525 0.960 . S
C1518 C1516 1.381 . S
C1518 C1519 1.394 . S
C1518 H1526 0.930 . S
C1519 C1518 1.394 . S
C1519 C1520 1.383 . S
C1519 H1527 0.929 . S
C1520 C1519 1.383 . S
C1520 C1521 1.377 . S
C1521 H1505 0.930 . S
C1521 C1520 1.377 . S
C1521 C1522 1.379 . S
C1522 H1506 0.931 . S
C1522 C1516 1.383 . S
C1522 C1521 1.379 . S
H1523 C1517 0.959 . S
H1524 C1517 0.961 . S
H1525 C1517 0.960 . S
H1526 C1518 0.930 . S
H1527 C1519 0.929 . S
H1528 C1536 0.929 . S
H1529 C1538 0.930 . S
H1530 C1540 0.930 . S
H1531 C1543 0.929 . S
H1532 C1546 0.930 . S
H1533 C1548 0.960 . S
H1534 C1548 0.960 . S
H1535 C1548 0.960 . S
C1536 H1528 0.929 . S
C1536 C1537 1.377 . S
C1536 C1538 1.384 . S
C1537 C1536 1.377 . S
C1537 C1543 1.390 . S
C1538 H1529 0.930 . S
C1538 C1536 1.384 . S
C1538 C1539 1.372 . S
C1539 C1538 1.372 . S
C1539 C1540 1.400 . S
C1539 C1544 1.490 . S
C1540 H1530 0.930 . S
C1540 C1539 1.400 . S
C1540 C1543 1.386 . S
H1541 C1557 0.930 . S
H1542 C1558 0.931 . S
C1543 H1531 0.929 . S
C1543 C1537 1.390 . S
C1543 C1540 1.386 . S
C1544 C1539 1.490 . S
C1544 C1546 1.395 . S
C1544 C1547 1.403 . S
H1545 C1551 0.930 . S
C1546 H1532 0.930 . S
C1546 C1544 1.395 . S
C1546 C1549 1.403 . S
C1547 C1544 1.403 . S
C1547 C1548 1.524 . S
C1547 C1551 1.400 . S
C1548 H1533 0.960 . S
C1548 H1534 0.960 . S
C1548 H1535 0.960 . S
C1548 C1547 1.524 . S
C1549 C1546 1.403 . S
C1549 C1550 1.392 . S
C1549 C1553 1.495 . S
C1550 C1549 1.392 . S
C1550 C1551 1.385 . S
C1550 C1552 1.478 . S
C1551 H1545 0.930 . S
C1551 C1547 1.400 . S
C1551 C1550 1.385 . S
C1552 C1550 1.478 . S
C1552 C1554 1.381 . S
C1552 C1558 1.383 . S
C1553 C1549 1.495 . S
C1553 H1559 0.959 . S
C1553 H1560 0.961 . S
C1553 H1561 0.960 . S
C1554 C1552 1.381 . S
C1554 C1555 1.394 . S
C1554 H1562 0.930 . S
C1555 C1554 1.394 . S
C1555 C1556 1.383 . S
C1555 H1563 0.929 . S
C1556 C1555 1.383 . S
C1556 C1557 1.377 . S
C1557 H1541 0.930 . S
C1557 C1556 1.377 . S
C1557 C1558 1.379 . S
C1558 H1542 0.931 . S
C1558 C1552 1.383 . S
C1558 C1557 1.379 . S
H1559 C1553 0.959 . S
H1560 C1553 0.961 . S
H1561 C1553 0.960 . S
H1562 C1554 0.930 . S
H1563 C1555 0.929 . S
H1564 C1572 0.929 . S
H1565 C1574 0.962 . S
H1566 C1576 0.930 . S
H1567 C1579 0.929 . S
H1568 C1582 0.930 . S
H1569 C1584 0.960 . S
H1570 C1584 0.960 . S
H1571 C1584 0.960 1_655 S
C1572 H1564 0.929 . S
C1572 C1573 1.377 . S
C1572 C1574 1.384 . S
C1573 C1572 1.377 . S
C1573 C1579 1.390 . S
C1574 H1565 0.962 . S
C1574 C1572 1.384 . S
C1574 C1575 1.372 . S
C1575 C1574 1.372 . S
C1575 C1576 1.400 . S
C1575 C1580 1.490 . S
C1576 H1566 0.930 . S
C1576 C1575 1.400 . S
C1576 C1579 1.386 . S
H1577 C1593 0.930 . S
H1578 C1594 0.927 1_655 S
C1579 H1567 0.929 . S
C1579 C1573 1.390 . S
C1579 C1576 1.386 . S
C1580 C1575 1.490 . S
C1580 C1582 1.395 . S
C1580 C1583 1.403 1_655 S
H1581 C1587 0.930 . S
C1582 H1568 0.930 . S
C1582 C1580 1.395 . S
C1582 C1585 1.423 . S
C1583 C1580 1.403 1_455 S
C1583 C1584 1.524 . S
C1583 C1587 1.400 . S
C1584 H1569 0.960 . S
C1584 H1570 0.960 . S
C1584 H1571 0.960 1_455 S
C1584 C1583 1.524 . S
C1585 C1582 1.423 . S
C1585 C1586 1.368 1_655 S
C1585 C1589 1.503 . S
C1586 C1585 1.368 1_455 S
C1586 C1587 1.385 . S
C1586 C1588 1.478 . S
C1587 H1581 0.930 . S
C1587 C1583 1.400 . S
C1587 C1586 1.385 . S
C1588 C1586 1.478 . S
C1588 C1590 1.381 . S
C1588 C1594 1.383 . S
C1589 C1585 1.503 . S
C1589 H1595 0.959 . S
C1589 H1596 0.961 . S
C1589 H1597 0.960 1_655 S
C1590 C1588 1.381 . S
C1590 C1591 1.394 . S
C1590 H1598 0.930 . S
C1591 C1590 1.394 . S
C1591 C1592 1.383 . S
C1591 H1599 0.929 . S
C1592 C1591 1.383 . S
C1592 C1593 1.377 . S
C1593 H1577 0.930 . S
C1593 C1592 1.377 . S
C1593 C1594 1.379 . S
C1594 H1578 0.927 1_455 S
C1594 C1588 1.383 . S
C1594 C1593 1.379 . S
H1595 C1589 0.959 . S
H1596 C1589 0.961 . S
H1597 C1589 0.960 1_455 S
H1598 C1590 0.930 . S
H1599 C1591 0.929 . S
H1600 C1608 0.929 . S
H1601 C1610 0.930 . S
H1602 C1612 0.930 . S
H1603 C1615 0.929 . S
H1604 C1618 0.930 . S
H1605 C1620 0.960 . S
H1606 C1620 0.960 . S
H1607 C1620 0.960 . S
C1608 H1600 0.929 . S
C1608 C1609 1.377 . S
C1608 C1610 1.384 . S
C1609 C1608 1.377 . S
C1609 C1615 1.390 . S
C1610 H1601 0.930 . S
C1610 C1608 1.384 . S
C1610 C1611 1.372 . S
C1611 C1610 1.372 . S
C1611 C1612 1.400 . S
C1611 C1616 1.490 . S
C1612 H1602 0.930 . S
C1612 C1611 1.400 . S
C1612 C1615 1.386 . S
H1613 C1629 0.930 . S
H1614 C1630 0.931 . S
C1615 H1603 0.929 . S
C1615 C1609 1.390 . S
C1615 C1612 1.386 . S
C1616 C1611 1.490 . S
C1616 C1618 1.395 . S
C1616 C1619 1.403 . S
H1617 C1623 0.930 . S
C1618 H1604 0.930 . S
C1618 C1616 1.395 . S
C1618 C1621 1.403 . S
C1619 C1616 1.403 . S
C1619 C1620 1.524 . S
C1619 C1623 1.400 . S
C1620 H1605 0.960 . S
C1620 H1606 0.960 . S
C1620 H1607 0.960 . S
C1620 C1619 1.524 . S
C1621 C1618 1.403 . S
C1621 C1622 1.392 . S
C1621 C1625 1.495 . S
C1622 C1621 1.392 . S
C1622 C1623 1.385 . S
C1622 C1624 1.478 . S
C1623 H1617 0.930 . S
C1623 C1619 1.400 . S
C1623 C1622 1.385 . S
C1624 C1622 1.478 . S
C1624 C1626 1.381 . S
C1624 C1630 1.383 . S
C1625 C1621 1.495 . S
C1625 H1631 0.959 . S
C1625 H1632 0.961 . S
C1625 H1633 0.960 . S
C1626 C1624 1.381 . S
C1626 C1627 1.394 . S
C1626 H1634 0.930 . S
C1627 C1626 1.394 . S
C1627 C1628 1.383 . S
C1627 H1635 0.929 . S
C1628 C1627 1.383 . S
C1628 C1629 1.377 . S
C1629 H1613 0.930 . S
C1629 C1628 1.377 . S
C1629 C1630 1.379 . S
C1630 H1614 0.931 . S
C1630 C1624 1.383 . S
C1630 C1629 1.379 . S
H1631 C1625 0.959 . S
H1632 C1625 0.961 . S
H1633 C1625 0.960 . S
H1634 C1626 0.930 . S
H1635 C1627 0.929 . S
H1636 C1644 0.929 . S
H1637 C1646 0.930 . S
H1638 C1648 0.930 . S
H1639 C1651 0.929 . S
H1640 C1654 0.930 . S
H1641 C1656 0.960 . S
H1642 C1656 0.960 . S
H1643 C1656 0.960 . S
C1644 H1636 0.929 . S
C1644 C1645 1.377 . S
C1644 C1646 1.384 . S
C1645 C1644 1.377 . S
C1645 C1651 1.390 . S
C1646 H1637 0.930 . S
C1646 C1644 1.384 . S
C1646 C1647 1.372 . S
C1647 C1646 1.372 . S
C1647 C1648 1.400 . S
C1647 C1652 1.490 . S
C1648 H1638 0.930 . S
C1648 C1647 1.400 . S
C1648 C1651 1.386 . S
H1649 C1665 0.930 . S
H1650 C1666 0.931 . S
C1651 H1639 0.929 . S
C1651 C1645 1.390 . S
C1651 C1648 1.386 . S
C1652 C1647 1.490 . S
C1652 C1654 1.395 . S
C1652 C1655 1.403 . S
H1653 C1659 0.930 . S
C1654 H1640 0.930 . S
C1654 C1652 1.395 . S
C1654 C1657 1.403 . S
C1655 C1652 1.403 . S
C1655 C1656 1.524 . S
C1655 C1659 1.400 . S
C1656 H1641 0.960 . S
C1656 H1642 0.960 . S
C1656 H1643 0.960 . S
C1656 C1655 1.524 . S
C1657 C1654 1.403 . S
C1657 C1658 1.392 . S
C1657 C1661 1.495 . S
C1658 C1657 1.392 . S
C1658 C1659 1.385 . S
C1658 C1660 1.478 . S
C1659 H1653 0.930 . S
C1659 C1655 1.400 . S
C1659 C1658 1.385 . S
C1660 C1658 1.478 . S
C1660 C1662 1.381 . S
C1660 C1666 1.383 . S
C1661 C1657 1.495 . S
C1661 H1667 0.959 . S
C1661 H1668 0.961 . S
C1661 H1669 0.960 . S
C1662 C1660 1.381 . S
C1662 C1663 1.394 . S
C1662 H1670 0.930 . S
C1663 C1662 1.394 . S
C1663 C1664 1.383 . S
C1663 H1671 0.929 . S
C1664 C1663 1.383 . S
C1664 C1665 1.377 . S
C1665 H1649 0.930 . S
C1665 C1664 1.377 . S
C1665 C1666 1.379 . S
C1666 H1650 0.931 . S
C1666 C1660 1.383 . S
C1666 C1665 1.379 . S
H1667 C1661 0.959 . S
H1668 C1661 0.961 . S
H1669 C1661 0.960 . S
H1670 C1662 0.930 . S
H1671 C1663 0.929 . S
H1672 C1680 0.929 . S
H1673 C1682 0.930 . S
H1674 C1684 0.930 . S
H1675 C1687 0.929 . S
H1676 C1690 0.930 . S
H1677 C1692 0.960 . S
H1678 C1692 0.960 . S
H1679 C1692 0.960 . S
C1680 H1672 0.929 . S
C1680 C1681 1.377 . S
C1680 C1682 1.384 . S
C1681 C1680 1.377 . S
C1681 C1687 1.390 . S
C1682 H1673 0.930 . S
C1682 C1680 1.384 . S
C1682 C1683 1.372 . S
C1683 C1682 1.372 . S
C1683 C1684 1.400 . S
C1683 C1688 1.490 . S
C1684 H1674 0.930 . S
C1684 C1683 1.400 . S
C1684 C1687 1.386 . S
H1685 C1701 0.930 . S
H1686 C1702 0.931 . S
C1687 H1675 0.929 . S
C1687 C1681 1.390 . S
C1687 C1684 1.386 . S
C1688 C1683 1.490 . S
C1688 C1690 1.395 . S
C1688 C1691 1.403 . S
H1689 C1695 0.930 . S
C1690 H1676 0.930 . S
C1690 C1688 1.395 . S
C1690 C1693 1.403 . S
C1691 C1688 1.403 . S
C1691 C1692 1.524 . S
C1691 C1695 1.400 . S
C1692 H1677 0.960 . S
C1692 H1678 0.960 . S
C1692 H1679 0.960 . S
C1692 C1691 1.524 . S
C1693 C1690 1.403 . S
C1693 C1694 1.392 . S
C1693 C1697 1.495 . S
C1694 C1693 1.392 . S
C1694 C1695 1.385 . S
C1694 C1696 1.478 . S
C1695 H1689 0.930 . S
C1695 C1691 1.400 . S
C1695 C1694 1.385 . S
C1696 C1694 1.478 . S
C1696 C1698 1.381 . S
C1696 C1702 1.383 . S
C1697 C1693 1.495 . S
C1697 H1703 0.959 . S
C1697 H1704 0.961 . S
C1697 H1705 0.960 . S
C1698 C1696 1.381 . S
C1698 C1699 1.394 . S
C1698 H1706 0.930 . S
C1699 C1698 1.394 . S
C1699 C1700 1.383 . S
C1699 H1707 0.929 . S
C1700 C1699 1.383 . S
C1700 C1701 1.377 . S
C1701 H1685 0.930 . S
C1701 C1700 1.377 . S
C1701 C1702 1.379 . S
C1702 H1686 0.931 . S
C1702 C1696 1.383 . S
C1702 C1701 1.379 . S
H1703 C1697 0.959 . S
H1704 C1697 0.961 . S
H1705 C1697 0.960 . S
H1706 C1698 0.930 . S
H1707 C1699 0.929 . S
H1708 C1716 0.929 . S
H1709 C1718 0.930 . S
H1710 C1720 0.930 . S
H1711 C1723 0.929 . S
H1712 C1726 0.930 . S
H1713 C1728 0.960 . S
H1714 C1728 0.960 . S
H1715 C1728 0.960 . S
C1716 H1708 0.929 . S
C1716 C1717 1.377 . S
C1716 C1718 1.384 . S
C1717 C1716 1.377 . S
C1717 C1723 1.390 . S
C1718 H1709 0.930 . S
C1718 C1716 1.384 . S
C1718 C1719 1.372 . S
C1719 C1718 1.372 . S
C1719 C1720 1.400 . S
C1719 C1724 1.490 . S
C1720 H1710 0.930 . S
C1720 C1719 1.400 . S
C1720 C1723 1.386 . S
H1721 C1737 0.930 . S
H1722 C1738 0.931 . S
C1723 H1711 0.929 . S
C1723 C1717 1.390 . S
C1723 C1720 1.386 . S
C1724 C1719 1.490 . S
C1724 C1726 1.395 . S
C1724 C1727 1.403 1_455 S
H1725 C1731 0.930 . S
C1726 H1712 0.930 . S
C1726 C1724 1.395 . S
C1726 C1729 1.403 . S
C1727 C1724 1.403 1_655 S
C1727 C1728 1.524 . S
C1727 C1731 1.400 . S
C1728 H1713 0.960 . S
C1728 H1714 0.960 . S
C1728 H1715 0.960 . S
C1728 C1727 1.524 . S
C1729 C1726 1.403 . S
C1729 C1730 1.392 1_455 S
C1729 C1733 1.495 1_554 S
C1730 C1729 1.392 1_655 S
C1730 C1731 1.385 . S
C1730 C1732 1.478 1_554 S
C1731 H1725 0.930 . S
C1731 C1727 1.400 . S
C1731 C1730 1.385 . S
C1732 C1730 1.478 1_556 S
C1732 C1734 1.381 . S
C1732 C1738 1.383 . S
C1733 C1729 1.495 1_556 S
C1733 H1739 0.959 1_556 S
C1733 H1740 0.961 . S
C1733 H1741 0.960 . S
C1734 C1732 1.381 . S
C1734 C1735 1.394 . S
C1734 H1742 0.930 . S
C1735 C1734 1.394 . S
C1735 C1736 1.383 . S
C1735 H1743 0.929 . S
C1736 C1735 1.383 . S
C1736 C1737 1.377 . S
C1737 H1721 0.930 . S
C1737 C1736 1.377 . S
C1737 C1738 1.379 . S
C1738 H1722 0.931 . S
C1738 C1732 1.383 . S
C1738 C1737 1.379 . S
H1739 C1733 0.959 1_554 S
H1740 C1733 0.961 . S
H1741 C1733 0.960 . S
H1742 C1734 0.930 . S
H1743 C1735 0.929 . S
H1744 C1752 0.929 . S
H1745 C1754 0.930 . S
H1746 C1756 0.930 . S
H1747 C1759 0.929 . S
H1748 C1762 0.930 . S
H1749 C1764 0.960 . S
H1750 C1764 0.960 . S
H1751 C1764 0.960 . S
C1752 H1744 0.929 . S
C1752 C1753 1.377 . S
C1752 C1754 1.384 . S
C1753 C1752 1.377 . S
C1753 C1759 1.390 . S
C1754 H1745 0.930 . S
C1754 C1752 1.384 . S
C1754 C1755 1.372 . S
C1755 C1754 1.372 . S
C1755 C1756 1.400 . S
C1755 C1760 1.490 . S
C1756 H1746 0.930 . S
C1756 C1755 1.400 . S
C1756 C1759 1.386 . S
H1757 C1773 0.930 . S
H1758 C1774 0.931 . S
C1759 H1747 0.929 . S
C1759 C1753 1.390 . S
C1759 C1756 1.386 . S
C1760 C1755 1.490 . S
C1760 C1762 1.395 . S
C1760 C1763 1.403 . S
H1761 C1767 0.930 . S
C1762 H1748 0.930 . S
C1762 C1760 1.395 . S
C1762 C1765 1.403 . S
C1763 C1760 1.403 . S
C1763 C1764 1.524 . S
C1763 C1767 1.400 . S
C1764 H1749 0.960 . S
C1764 H1750 0.960 . S
C1764 H1751 0.960 . S
C1764 C1763 1.524 . S
C1765 C1762 1.403 . S
C1765 C1766 1.392 . S
C1765 C1769 1.495 . S
C1766 C1765 1.392 . S
C1766 C1767 1.385 . S
C1766 C1768 1.478 . S
C1767 H1761 0.930 . S
C1767 C1763 1.400 . S
C1767 C1766 1.385 . S
C1768 C1766 1.478 . S
C1768 C1770 1.381 . S
C1768 C1774 1.383 . S
C1769 C1765 1.495 . S
C1769 H1775 0.959 . S
C1769 H1776 0.961 . S
C1769 H1777 0.960 . S
C1770 C1768 1.381 . S
C1770 C1771 1.394 . S
C1770 H1778 0.930 . S
C1771 C1770 1.394 . S
C1771 C1772 1.383 . S
C1771 H1779 0.929 . S
C1772 C1771 1.383 . S
C1772 C1773 1.377 . S
C1773 H1757 0.930 . S
C1773 C1772 1.377 . S
C1773 C1774 1.379 . S
C1774 H1758 0.931 . S
C1774 C1768 1.383 . S
C1774 C1773 1.379 . S
H1775 C1769 0.959 . S
H1776 C1769 0.961 . S
H1777 C1769 0.960 . S
H1778 C1770 0.930 . S
H1779 C1771 0.929 . S
H1780 C1788 0.929 . S
H1781 C1790 0.930 1_455 S
H1782 C1792 0.930 . S
H1783 C1795 0.929 . S
H1784 C1798 0.930 . S
H1785 C1800 0.960 . S
H1786 C1800 0.960 . S
H1787 C1800 0.960 . S
C1788 H1780 0.929 . S
C1788 C1789 1.377 . S
C1788 C1790 1.384 . S
C1789 C1788 1.377 . S
C1789 C1795 1.390 . S
C1790 H1781 0.930 1_655 S
C1790 C1788 1.384 . S
C1790 C1791 1.372 . S
C1791 C1790 1.372 . S
C1791 C1792 1.400 . S
C1791 C1796 1.490 . S
C1792 H1782 0.930 . S
C1792 C1791 1.400 . S
C1792 C1795 1.386 . S
H1793 C1809 0.930 . S
H1794 C1810 0.931 . S
C1795 H1783 0.929 . S
C1795 C1789 1.390 . S
C1795 C1792 1.386 . S
C1796 C1791 1.490 . S
C1796 C1798 1.395 1_655 S
C1796 C1799 1.403 . S
H1797 C1803 0.930 . S
C1798 H1784 0.930 . S
C1798 C1796 1.395 1_455 S
C1798 C1801 1.403 . S
C1799 C1796 1.403 . S
C1799 C1800 1.524 . S
C1799 C1803 1.400 . S
C1800 H1785 0.960 . S
C1800 H1786 0.960 . S
C1800 H1787 0.960 . S
C1800 C1799 1.524 . S
C1801 C1798 1.403 . S
C1801 C1802 1.392 . S
C1801 C1805 1.495 . S
C1802 C1801 1.392 . S
C1802 C1803 1.385 1_455 S
C1802 C1804 1.478 . S
C1803 H1797 0.930 . S
C1803 C1799 1.400 . S
C1803 C1802 1.385 1_655 S
C1804 C1802 1.478 . S
C1804 C1806 1.381 . S
C1804 C1810 1.383 . S
C1805 C1801 1.495 . S
C1805 H1811 0.959 . S
C1805 H1812 0.961 . S
C1805 H1813 0.960 . S
C1806 C1804 1.381 . S
C1806 C1807 1.394 . S
C1806 H1814 0.930 . S
C1807 C1806 1.394 . S
C1807 C1808 1.383 . S
C1807 H1815 0.929 . S
C1808 C1807 1.383 . S
C1808 C1809 1.377 . S
C1809 H1793 0.930 . S
C1809 C1808 1.377 . S
C1809 C1810 1.379 . S
C1810 H1794 0.931 . S
C1810 C1804 1.383 . S
C1810 C1809 1.379 . S
H1811 C1805 0.959 . S
H1812 C1805 0.961 . S
H1813 C1805 0.960 . S
H1814 C1806 0.930 . S
H1815 C1807 0.929 . S
H1816 C1824 0.929 . S
H1817 C1826 0.930 . S
H1818 C1828 0.930 . S
H1819 C1831 0.929 . S
H1820 C1834 0.930 . S
H1821 C1836 0.960 . S
H1822 C1836 0.960 . S
H1823 C1836 0.960 . S
C1824 H1816 0.929 . S
C1824 C1825 1.377 . S
C1824 C1826 1.384 . S
C1825 C1824 1.377 . S
C1825 C1831 1.390 . S
C1826 H1817 0.930 . S
C1826 C1824 1.384 . S
C1826 C1827 1.372 . S
C1827 C1826 1.372 . S
C1827 C1828 1.400 . S
C1827 C1832 1.490 . S
C1828 H1818 0.930 . S
C1828 C1827 1.400 . S
C1828 C1831 1.386 . S
H1829 C1845 0.930 . S
H1830 C1846 0.931 . S
C1831 H1819 0.929 . S
C1831 C1825 1.390 . S
C1831 C1828 1.386 . S
C1832 C1827 1.490 . S
C1832 C1834 1.395 . S
C1832 C1835 1.403 . S
H1833 C1839 0.930 . S
C1834 H1820 0.930 . S
C1834 C1832 1.395 . S
C1834 C1837 1.403 . S
C1835 C1832 1.403 . S
C1835 C1836 1.524 . S
C1835 C1839 1.400 . S
C1836 H1821 0.960 . S
C1836 H1822 0.960 . S
C1836 H1823 0.960 . S
C1836 C1835 1.524 . S
C1837 C1834 1.403 . S
C1837 C1838 1.392 . S
C1837 C1841 1.495 . S
C1838 C1837 1.392 . S
C1838 C1839 1.385 . S
C1838 C1840 1.478 . S
C1839 H1833 0.930 . S
C1839 C1835 1.400 . S
C1839 C1838 1.385 . S
C1840 C1838 1.478 . S
C1840 C1842 1.381 . S
C1840 C1846 1.383 . S
C1841 C1837 1.495 . S
C1841 H1847 0.959 . S
C1841 H1848 0.961 . S
C1841 H1849 0.960 . S
C1842 C1840 1.381 . S
C1842 C1843 1.394 . S
C1842 H1850 0.930 . S
C1843 C1842 1.394 . S
C1843 C1844 1.383 . S
C1843 H1851 0.929 . S
C1844 C1843 1.383 . S
C1844 C1845 1.377 . S
C1845 H1829 0.930 . S
C1845 C1844 1.377 . S
C1845 C1846 1.379 . S
C1846 H1830 0.931 . S
C1846 C1840 1.383 . S
C1846 C1845 1.379 . S
H1847 C1841 0.959 . S
H1848 C1841 0.961 . S
H1849 C1841 0.960 . S
H1850 C1842 0.930 . S
H1851 C1843 0.929 . S
H1852 C1860 0.929 . S
H1853 C1862 0.954 . S
H1854 C1864 0.930 . S
H1855 C1867 0.929 . S
H1856 C1870 0.930 . S
H1857 C1872 0.960 . S
H1858 C1872 0.960 . S
H1859 C1872 0.960 1_554 S
C1860 H1852 0.929 . S
C1860 C1861 1.377 . S
C1860 C1862 1.384 . S
C1861 C1860 1.377 . S
C1861 C1867 1.390 . S
C1862 H1853 0.954 . S
C1862 C1860 1.384 . S
C1862 C1863 1.372 . S
C1863 C1862 1.372 . S
C1863 C1864 1.400 . S
C1863 C1868 1.490 1_554 S
C1864 H1854 0.930 . S
C1864 C1863 1.400 . S
C1864 C1867 1.386 . S
H1865 C1881 0.930 . S
H1866 C1882 0.931 . S
C1867 H1855 0.929 . S
C1867 C1861 1.390 . S
C1867 C1864 1.386 . S
C1868 C1863 1.490 1_556 S
C1868 C1870 1.395 . S
C1868 C1871 1.403 . S
H1869 C1875 0.930 . S
C1870 H1856 0.930 . S
C1870 C1868 1.395 . S
C1870 C1873 1.403 . S
C1871 C1868 1.403 . S
C1871 C1872 1.524 . S
C1871 C1875 1.400 . S
C1872 H1857 0.960 . S
C1872 H1858 0.960 . S
C1872 H1859 0.960 1_556 S
C1872 C1871 1.524 . S
C1873 C1870 1.403 . S
C1873 C1874 1.392 . S
C1873 C1877 1.495 . S
C1874 C1873 1.392 . S
C1874 C1875 1.385 . S
C1874 C1876 1.478 . S
C1875 H1869 0.930 . S
C1875 C1871 1.400 . S
C1875 C1874 1.385 . S
C1876 C1874 1.478 . S
C1876 C1878 1.381 . S
C1876 C1882 1.383 . S
C1877 C1873 1.495 . S
C1877 H1883 0.959 . S
C1877 H1884 0.961 . S
C1877 H1885 0.960 . S
C1878 C1876 1.381 . S
C1878 C1879 1.394 . S
C1878 H1886 0.930 . S
C1879 C1878 1.394 . S
C1879 C1880 1.383 . S
C1879 H1887 0.929 . S
C1880 C1879 1.383 . S
C1880 C1881 1.377 . S
C1881 H1865 0.930 . S
C1881 C1880 1.377 . S
C1881 C1882 1.379 . S
C1882 H1866 0.931 . S
C1882 C1876 1.383 . S
C1882 C1881 1.379 . S
H1883 C1877 0.959 . S
H1884 C1877 0.961 . S
H1885 C1877 0.960 . S
H1886 C1878 0.930 . S
H1887 C1879 0.929 . S
H1888 C1896 0.929 . S
H1889 C1898 0.930 . S
H1890 C1900 0.930 . S
H1891 C1903 0.929 . S
H1892 C1906 0.930 . S
H1893 C1908 0.960 . S
H1894 C1908 0.960 . S
H1895 C1908 0.960 . S
C1896 H1888 0.929 . S
C1896 C1897 1.377 . S
C1896 C1898 1.384 . S
C1897 C1896 1.377 . S
C1897 C1903 1.390 . S
C1898 H1889 0.930 . S
C1898 C1896 1.384 . S
C1898 C1899 1.372 . S
C1899 C1898 1.372 . S
C1899 C1900 1.400 . S
C1899 C1904 1.490 . S
C1900 H1890 0.930 . S
C1900 C1899 1.400 . S
C1900 C1903 1.386 . S
H1901 C1917 0.930 . S
H1902 C1918 0.931 . S
C1903 H1891 0.929 . S
C1903 C1897 1.390 . S
C1903 C1900 1.386 . S
C1904 C1899 1.490 . S
C1904 C1906 1.395 . S
C1904 C1907 1.403 . S
H1905 C1911 0.930 . S
C1906 H1892 0.930 . S
C1906 C1904 1.395 . S
C1906 C1909 1.403 . S
C1907 C1904 1.403 . S
C1907 C1908 1.524 . S
C1907 C1911 1.400 . S
C1908 H1893 0.960 . S
C1908 H1894 0.960 . S
C1908 H1895 0.960 . S
C1908 C1907 1.524 . S
C1909 C1906 1.403 . S
C1909 C1910 1.392 . S
C1909 C1913 1.495 . S
C1910 C1909 1.392 . S
C1910 C1911 1.385 . S
C1910 C1912 1.478 . S
C1911 H1905 0.930 . S
C1911 C1907 1.400 . S
C1911 C1910 1.385 . S
C1912 C1910 1.478 . S
C1912 C1914 1.381 . S
C1912 C1918 1.383 . S
C1913 C1909 1.495 . S
C1913 H1919 0.959 . S
C1913 H1920 0.961 . S
C1913 H1921 0.960 . S
C1914 C1912 1.381 . S
C1914 C1915 1.394 . S
C1914 H1922 0.930 . S
C1915 C1914 1.394 . S
C1915 C1916 1.383 . S
C1915 H1923 0.929 . S
C1916 C1915 1.383 . S
C1916 C1917 1.377 . S
C1917 H1901 0.930 . S
C1917 C1916 1.377 . S
C1917 C1918 1.379 . S
C1918 H1902 0.931 . S
C1918 C1912 1.383 . S
C1918 C1917 1.379 . S
H1919 C1913 0.959 . S
H1920 C1913 0.961 . S
H1921 C1913 0.960 . S
H1922 C1914 0.930 . S
H1923 C1915 0.929 . S
H1924 C1932 0.929 . S
H1925 C1934 0.930 . S
H1926 C1936 0.930 . S
H1927 C1939 0.929 . S
H1928 C1942 0.930 . S
H1929 C1944 0.960 . S
H1930 C1944 0.960 . S
H1931 C1944 0.960 . S
C1932 H1924 0.929 . S
C1932 C1933 1.377 . S
C1932 C1934 1.384 . S
C1933 C1932 1.377 . S
C1933 C1939 1.390 . S
C1934 H1925 0.930 . S
C1934 C1932 1.384 . S
C1934 C1935 1.372 . S
C1935 C1934 1.372 . S
C1935 C1936 1.400 . S
C1935 C1940 1.490 . S
C1936 H1926 0.930 . S
C1936 C1935 1.400 . S
C1936 C1939 1.386 . S
H1937 C1953 0.930 . S
H1938 C1954 0.931 . S
C1939 H1927 0.929 . S
C1939 C1933 1.390 . S
C1939 C1936 1.386 . S
C1940 C1935 1.490 . S
C1940 C1942 1.395 . S
C1940 C1943 1.403 . S
H1941 C1947 0.930 . S
C1942 H1928 0.930 . S
C1942 C1940 1.395 . S
C1942 C1945 1.403 . S
C1943 C1940 1.403 . S
C1943 C1944 1.524 . S
C1943 C1947 1.400 . S
C1944 H1929 0.960 . S
C1944 H1930 0.960 . S
C1944 H1931 0.960 . S
C1944 C1943 1.524 . S
C1945 C1942 1.403 . S
C1945 C1946 1.392 . S
C1945 C1949 1.495 . S
C1946 C1945 1.392 . S
C1946 C1947 1.385 . S
C1946 C1948 1.478 . S
C1947 H1941 0.930 . S
C1947 C1943 1.400 . S
C1947 C1946 1.385 . S
C1948 C1946 1.478 . S
C1948 C1950 1.381 . S
C1948 C1954 1.383 . S
C1949 C1945 1.495 . S
C1949 H1955 0.959 . S
C1949 H1956 0.961 . S
C1949 H1957 0.960 . S
C1950 C1948 1.381 . S
C1950 C1951 1.394 . S
C1950 H1958 0.930 . S
C1951 C1950 1.394 . S
C1951 C1952 1.383 . S
C1951 H1959 0.929 . S
C1952 C1951 1.383 . S
C1952 C1953 1.377 . S
C1953 H1937 0.930 . S
C1953 C1952 1.377 . S
C1953 C1954 1.379 . S
C1954 H1938 0.931 . S
C1954 C1948 1.383 . S
C1954 C1953 1.379 . S
H1955 C1949 0.959 . S
H1956 C1949 0.961 . S
H1957 C1949 0.960 . S
H1958 C1950 0.930 . S
H1959 C1951 0.929 . S
H1960 C1968 0.929 . S
H1961 C1970 0.930 . S
H1962 C1972 0.930 . S
H1963 C1975 0.929 . S
H1964 C1978 0.930 . S
H1965 C1980 0.960 . S
H1966 C1980 0.960 . S
H1967 C1980 0.960 . S
C1968 H1960 0.929 . S
C1968 C1969 1.377 . S
C1968 C1970 1.384 . S
C1969 C1968 1.377 . S
C1969 C1975 1.390 . S
C1970 H1961 0.930 . S
C1970 C1968 1.384 . S
C1970 C1971 1.372 . S
C1971 C1970 1.372 . S
C1971 C1972 1.400 . S
C1971 C1976 1.490 . S
C1972 H1962 0.930 . S
C1972 C1971 1.400 . S
C1972 C1975 1.386 . S
H1973 C1989 0.930 . S
H1974 C1990 0.931 . S
C1975 H1963 0.929 . S
C1975 C1969 1.390 . S
C1975 C1972 1.386 . S
C1976 C1971 1.490 . S
C1976 C1978 1.395 . S
C1976 C1979 1.403 . S
H1977 C1983 0.930 . S
C1978 H1964 0.930 . S
C1978 C1976 1.395 . S
C1978 C1981 1.403 . S
C1979 C1976 1.403 . S
C1979 C1980 1.524 . S
C1979 C1983 1.400 . S
C1980 H1965 0.960 . S
C1980 H1966 0.960 . S
C1980 H1967 0.960 . S
C1980 C1979 1.524 . S
C1981 C1978 1.403 . S
C1981 C1982 1.392 . S
C1981 C1985 1.495 . S
C1982 C1981 1.392 . S
C1982 C1983 1.385 . S
C1982 C1984 1.478 . S
C1983 H1977 0.930 . S
C1983 C1979 1.400 . S
C1983 C1982 1.385 . S
C1984 C1982 1.478 . S
C1984 C1986 1.381 . S
C1984 C1990 1.383 . S
C1985 C1981 1.495 . S
C1985 H1991 0.959 . S
C1985 H1992 0.961 . S
C1985 H1993 0.960 . S
C1986 C1984 1.381 . S
C1986 C1987 1.394 . S
C1986 H1994 0.930 . S
C1987 C1986 1.394 . S
C1987 C1988 1.383 . S
C1987 H1995 0.929 . S
C1988 C1987 1.383 . S
C1988 C1989 1.377 . S
C1989 H1973 0.930 . S
C1989 C1988 1.377 . S
C1989 C1990 1.379 . S
C1990 H1974 0.931 . S
C1990 C1984 1.383 . S
C1990 C1989 1.379 . S
H1991 C1985 0.959 . S
H1992 C1985 0.961 . S
H1993 C1985 0.960 . S
H1994 C1986 0.930 . S
H1995 C1987 0.929 . S
H1996 C2004 0.929 . S
H1997 C2006 0.930 . S
H1998 C2008 0.930 . S
H1999 C2011 0.929 . S
H2000 C2014 0.930 . S
H2001 C2016 0.960 . S
H2002 C2016 0.960 . S
H2003 C2016 0.960 . S
C2004 H1996 0.929 . S
C2004 C2005 1.377 . S
C2004 C2006 1.384 . S
C2005 C2004 1.377 . S
C2005 C2011 1.390 . S
C2006 H1997 0.930 . S
C2006 C2004 1.384 . S
C2006 C2007 1.372 . S
C2007 C2006 1.372 . S
C2007 C2008 1.400 . S
C2007 C2012 1.490 . S
C2008 H1998 0.930 . S
C2008 C2007 1.400 . S
C2008 C2011 1.386 . S
H2009 C2025 0.930 . S
H2010 C2026 0.931 . S
C2011 H1999 0.929 . S
C2011 C2005 1.390 . S
C2011 C2008 1.386 . S
C2012 C2007 1.490 . S
C2012 C2014 1.395 . S
C2012 C2015 1.403 1_655 S
H2013 C2019 0.930 . S
C2014 H2000 0.930 . S
C2014 C2012 1.395 . S
C2014 C2017 1.403 . S
C2015 C2012 1.403 1_455 S
C2015 C2016 1.524 . S
C2015 C2019 1.400 . S
C2016 H2001 0.960 . S
C2016 H2002 0.960 . S
C2016 H2003 0.960 . S
C2016 C2015 1.524 . S
C2017 C2014 1.403 . S
C2017 C2018 1.392 1_655 S
C2017 C2021 1.495 1_556 S
C2018 C2017 1.392 1_455 S
C2018 C2019 1.385 . S
C2018 C2020 1.478 1_556 S
C2019 H2013 0.930 . S
C2019 C2015 1.400 . S
C2019 C2018 1.385 . S
C2020 C2018 1.478 1_554 S
C2020 C2022 1.381 . S
C2020 C2026 1.383 . S
C2021 C2017 1.495 1_554 S
C2021 H2027 0.968 . S
C2021 H2028 0.961 . S
C2021 H2029 0.960 . S
C2022 C2020 1.381 . S
C2022 C2023 1.394 . S
C2022 H2030 0.892 1_455 S
C2023 C2022 1.394 . S
C2023 C2024 1.383 . S
C2023 H2031 0.929 . S
C2024 C2023 1.383 . S
C2024 C2025 1.377 . S
C2025 H2009 0.930 . S
C2025 C2024 1.377 . S
C2025 C2026 1.379 . S
C2026 H2010 0.931 . S
C2026 C2020 1.383 . S
C2026 C2025 1.379 . S
H2027 C2021 0.968 . S
H2028 C2021 0.961 . S
H2029 C2021 0.960 . S
H2030 C2022 0.892 1_655 S
H2031 C2023 0.929 . S
H2032 C2040 0.929 . S
H2033 C2042 0.930 . S
H2034 C2044 0.930 . S
H2035 C2047 0.929 . S
H2036 C2050 0.930 . S
H2037 C2052 0.960 . S
H2038 C2052 0.960 . S
H2039 C2052 0.960 . S
C2040 H2032 0.929 . S
C2040 C2041 1.377 . S
C2040 C2042 1.384 . S
C2041 C2040 1.377 . S
C2041 C2047 1.390 . S
C2042 H2033 0.930 . S
C2042 C2040 1.384 . S
C2042 C2043 1.372 . S
C2043 C2042 1.372 . S
C2043 C2044 1.400 . S
C2043 C2048 1.490 . S
C2044 H2034 0.930 . S
C2044 C2043 1.400 . S
C2044 C2047 1.386 . S
H2045 C2061 0.930 . S
H2046 C2062 0.931 . S
C2047 H2035 0.929 . S
C2047 C2041 1.390 . S
C2047 C2044 1.386 . S
C2048 C2043 1.490 . S
C2048 C2050 1.395 . S
C2048 C2051 1.403 . S
H2049 C2055 0.930 . S
C2050 H2036 0.930 . S
C2050 C2048 1.395 . S
C2050 C2053 1.403 . S
C2051 C2048 1.403 . S
C2051 C2052 1.524 . S
C2051 C2055 1.400 . S
C2052 H2037 0.960 . S
C2052 H2038 0.960 . S
C2052 H2039 0.960 . S
C2052 C2051 1.524 . S
C2053 C2050 1.403 . S
C2053 C2054 1.392 . S
C2053 C2057 1.495 . S
C2054 C2053 1.392 . S
C2054 C2055 1.385 . S
C2054 C2056 1.478 . S
C2055 H2049 0.930 . S
C2055 C2051 1.400 . S
C2055 C2054 1.385 . S
C2056 C2054 1.478 . S
C2056 C2058 1.381 . S
C2056 C2062 1.383 . S
C2057 C2053 1.495 . S
C2057 H2063 0.959 . S
C2057 H2064 0.961 . S
C2057 H2065 0.960 . S
C2058 C2056 1.381 . S
C2058 C2059 1.394 . S
C2058 H2066 0.930 . S
C2059 C2058 1.394 . S
C2059 C2060 1.383 . S
C2059 H2067 0.929 . S
C2060 C2059 1.383 . S
C2060 C2061 1.377 . S
C2061 H2045 0.930 . S
C2061 C2060 1.377 . S
C2061 C2062 1.379 . S
C2062 H2046 0.931 . S
C2062 C2056 1.383 . S
C2062 C2061 1.379 . S
H2063 C2057 0.959 . S
H2064 C2057 0.961 . S
H2065 C2057 0.960 . S
H2066 C2058 0.930 . S
H2067 C2059 0.929 . S
H2068 C2076 0.929 . S
H2069 C2078 0.930 . S
H2070 C2080 0.930 . S
H2071 C2083 0.929 . S
H2072 C2086 0.930 . S
H2073 C2088 0.960 . S
H2074 C2088 0.960 . S
H2075 C2088 0.960 . S
C2076 H2068 0.929 . S
C2076 C2077 1.377 . S
C2076 C2078 1.384 . S
C2077 C2076 1.377 . S
C2077 C2083 1.390 . S
C2078 H2069 0.930 . S
C2078 C2076 1.384 . S
C2078 C2079 1.372 . S
C2079 C2078 1.372 . S
C2079 C2080 1.400 . S
C2079 C2084 1.490 . S
C2080 H2070 0.930 . S
C2080 C2079 1.400 . S
C2080 C2083 1.386 . S
H2081 C2097 0.930 . S
H2082 C2098 0.931 . S
C2083 H2071 0.929 . S
C2083 C2077 1.390 . S
C2083 C2080 1.386 . S
C2084 C2079 1.490 . S
C2084 C2086 1.395 . S
C2084 C2087 1.403 1_655 S
H2085 C2091 0.930 . S
C2086 H2072 0.930 . S
C2086 C2084 1.395 . S
C2086 C2089 1.403 . S
C2087 C2084 1.403 1_455 S
C2087 C2088 1.524 . S
C2087 C2091 1.400 . S
C2088 H2073 0.960 . S
C2088 H2074 0.960 . S
C2088 H2075 0.960 . S
C2088 C2087 1.524 . S
C2089 C2086 1.403 . S
C2089 C2090 1.392 1_655 S
C2089 C2093 1.495 . S
C2090 C2089 1.392 1_455 S
C2090 C2091 1.385 . S
C2090 C2092 1.478 . S
C2091 H2085 0.930 . S
C2091 C2087 1.400 . S
C2091 C2090 1.385 . S
C2092 C2090 1.478 . S
C2092 C2094 1.381 . S
C2092 C2098 1.383 . S
C2093 C2089 1.495 . S
C2093 H2099 0.959 . S
C2093 H2100 0.961 . S
C2093 H2101 0.960 . S
C2094 C2092 1.381 . S
C2094 C2095 1.394 . S
C2094 H2102 0.930 . S
C2095 C2094 1.394 . S
C2095 C2096 1.383 . S
C2095 H2103 0.929 . S
C2096 C2095 1.383 . S
C2096 C2097 1.377 . S
C2097 H2081 0.930 . S
C2097 C2096 1.377 . S
C2097 C2098 1.379 . S
C2098 H2082 0.931 . S
C2098 C2092 1.383 . S
C2098 C2097 1.379 . S
H2099 C2093 0.959 . S
H2100 C2093 0.961 . S
H2101 C2093 0.960 . S
H2102 C2094 0.930 . S
H2103 C2095 0.929 . S
H2104 C2112 0.929 . S
H2105 C2114 0.930 . S
H2106 C2116 0.930 . S
H2107 C2119 0.929 . S
H2108 C2122 0.930 . S
H2109 C2124 0.960 . S
H2110 C2124 0.960 . S
H2111 C2124 0.960 . S
C2112 H2104 0.929 . S
C2112 C2113 1.377 . S
C2112 C2114 1.384 . S
C2113 C2112 1.377 . S
C2113 C2119 1.390 . S
C2114 H2105 0.930 . S
C2114 C2112 1.384 . S
C2114 C2115 1.372 . S
C2115 C2114 1.372 . S
C2115 C2116 1.400 . S
C2115 C2120 1.490 . S
C2116 H2106 0.930 . S
C2116 C2115 1.400 . S
C2116 C2119 1.386 . S
H2117 C2133 0.930 . S
H2118 C2134 0.931 . S
C2119 H2107 0.929 . S
C2119 C2113 1.390 . S
C2119 C2116 1.386 . S
C2120 C2115 1.490 . S
C2120 C2122 1.395 . S
C2120 C2123 1.403 . S
H2121 C2127 0.930 . S
C2122 H2108 0.930 . S
C2122 C2120 1.395 . S
C2122 C2125 1.403 . S
C2123 C2120 1.403 . S
C2123 C2124 1.524 . S
C2123 C2127 1.400 . S
C2124 H2109 0.960 . S
C2124 H2110 0.960 . S
C2124 H2111 0.960 . S
C2124 C2123 1.524 . S
C2125 C2122 1.403 . S
C2125 C2126 1.392 . S
C2125 C2129 1.495 . S
C2126 C2125 1.392 . S
C2126 C2127 1.385 . S
C2126 C2128 1.478 . S
C2127 H2121 0.930 . S
C2127 C2123 1.400 . S
C2127 C2126 1.385 . S
C2128 C2126 1.478 . S
C2128 C2130 1.381 . S
C2128 C2134 1.383 . S
C2129 C2125 1.495 . S
C2129 H2135 0.959 . S
C2129 H2136 0.961 . S
C2129 H2137 0.960 . S
C2130 C2128 1.381 . S
C2130 C2131 1.394 . S
C2130 H2138 0.930 . S
C2131 C2130 1.394 . S
C2131 C2132 1.383 . S
C2131 H2139 0.929 . S
C2132 C2131 1.383 . S
C2132 C2133 1.377 . S
C2133 H2117 0.930 . S
C2133 C2132 1.377 . S
C2133 C2134 1.379 . S
C2134 H2118 0.931 . S
C2134 C2128 1.383 . S
C2134 C2133 1.379 . S
H2135 C2129 0.959 . S
H2136 C2129 0.961 . S
H2137 C2129 0.960 . S
H2138 C2130 0.930 . S
H2139 C2131 0.929 . S
H2140 C2148 0.929 . S
H2141 C2150 0.930 . S
H2142 C2152 0.930 . S
H2143 C2155 0.929 . S
H2144 C2158 0.930 . S
H2145 C2160 0.960 . S
H2146 C2160 0.960 . S
H2147 C2160 0.960 . S
C2148 H2140 0.929 . S
C2148 C2149 1.377 . S
C2148 C2150 1.384 . S
C2149 C2148 1.377 . S
C2149 C2155 1.390 . S
C2150 H2141 0.930 . S
C2150 C2148 1.384 . S
C2150 C2151 1.372 . S
C2151 C2150 1.372 . S
C2151 C2152 1.400 . S
C2151 C2156 1.490 . S
C2152 H2142 0.930 . S
C2152 C2151 1.400 . S
C2152 C2155 1.386 . S
H2153 C2169 0.930 . S
H2154 C2170 0.953 . S
C2155 H2143 0.929 . S
C2155 C2149 1.390 . S
C2155 C2152 1.386 . S
C2156 C2151 1.490 . S
C2156 C2158 1.395 . S
C2156 C2159 1.403 . S
H2157 C2163 0.930 . S
C2158 H2144 0.930 . S
C2158 C2156 1.395 . S
C2158 C2161 1.403 . S
C2159 C2156 1.403 . S
C2159 C2160 1.524 . S
C2159 C2163 1.400 . S
C2160 H2145 0.960 . S
C2160 H2146 0.960 . S
C2160 H2147 0.960 . S
C2160 C2159 1.524 . S
C2161 C2158 1.403 . S
C2161 C2162 1.392 . S
C2161 C2165 1.495 . S
C2162 C2161 1.392 . S
C2162 C2163 1.385 . S
C2162 C2164 1.478 1_554 S
C2163 H2157 0.930 . S
C2163 C2159 1.400 . S
C2163 C2162 1.385 . S
C2164 C2162 1.478 1_556 S
C2164 C2166 1.381 . S
C2164 C2170 1.383 . S
C2165 C2161 1.495 . S
C2165 H2171 0.959 . S
C2165 H2172 0.961 . S
C2165 H2173 0.960 1_554 S
C2166 C2164 1.381 . S
C2166 C2167 1.394 . S
C2166 H2174 0.930 . S
C2167 C2166 1.394 . S
C2167 C2168 1.383 . S
C2167 H2175 0.929 . S
C2168 C2167 1.383 . S
C2168 C2169 1.377 . S
C2169 H2153 0.930 . S
C2169 C2168 1.377 . S
C2169 C2170 1.379 . S
C2170 H2154 0.953 . S
C2170 C2164 1.383 . S
C2170 C2169 1.379 . S
H2171 C2165 0.959 . S
H2172 C2165 0.961 . S
H2173 C2165 0.960 1_556 S
H2174 C2166 0.930 . S
H2175 C2167 0.929 . S
H2176 C2184 0.929 . S
H2177 C2186 0.930 . S
H2178 C2188 0.930 . S
H2179 C2191 0.929 . S
H2180 C2194 0.930 . S
H2181 C2196 0.960 . S
H2182 C2196 0.960 . S
H2183 C2196 0.960 . S
C2184 H2176 0.929 . S
C2184 C2185 1.377 . S
C2184 C2186 1.384 . S
C2185 C2184 1.377 . S
C2185 C2191 1.390 . S
C2186 H2177 0.930 . S
C2186 C2184 1.384 . S
C2186 C2187 1.372 . S
C2187 C2186 1.372 . S
C2187 C2188 1.400 . S
C2187 C2192 1.490 . S
C2188 H2178 0.930 . S
C2188 C2187 1.400 . S
C2188 C2191 1.386 . S
H2189 C2205 0.930 . S
H2190 C2206 0.931 . S
C2191 H2179 0.929 . S
C2191 C2185 1.390 . S
C2191 C2188 1.386 . S
C2192 C2187 1.490 . S
C2192 C2194 1.395 . S
C2192 C2195 1.403 . S
H2193 C2199 0.930 . S
C2194 H2180 0.930 . S
C2194 C2192 1.395 . S
C2194 C2197 1.403 . S
C2195 C2192 1.403 . S
C2195 C2196 1.524 . S
C2195 C2199 1.400 . S
C2196 H2181 0.960 . S
C2196 H2182 0.960 . S
C2196 H2183 0.960 . S
C2196 C2195 1.524 . S
C2197 C2194 1.403 . S
C2197 C2198 1.392 . S
C2197 C2201 1.495 . S
C2198 C2197 1.392 . S
C2198 C2199 1.385 . S
C2198 C2200 1.478 . S
C2199 H2193 0.930 . S
C2199 C2195 1.400 . S
C2199 C2198 1.385 . S
C2200 C2198 1.478 . S
C2200 C2202 1.381 . S
C2200 C2206 1.383 . S
C2201 C2197 1.495 . S
C2201 H2207 0.959 . S
C2201 H2208 0.961 . S
C2201 H2209 0.960 . S
C2202 C2200 1.381 . S
C2202 C2203 1.394 . S
C2202 H2210 0.930 . S
C2203 C2202 1.394 . S
C2203 C2204 1.383 . S
C2203 H2211 0.929 . S
C2204 C2203 1.383 . S
C2204 C2205 1.377 . S
C2205 H2189 0.930 . S
C2205 C2204 1.377 . S
C2205 C2206 1.379 . S
C2206 H2190 0.931 . S
C2206 C2200 1.383 . S
C2206 C2205 1.379 . S
H2207 C2201 0.959 . S
H2208 C2201 0.961 . S
H2209 C2201 0.960 . S
H2210 C2202 0.930 . S
H2211 C2203 0.929 . S
H2212 C2220 0.929 . S
H2213 C2222 0.930 . S
H2214 C2224 0.930 . S
H2215 C2227 0.929 . S
H2216 C2230 0.930 . S
H2217 C2232 0.960 . S
H2218 C2232 0.960 . S
H2219 C2232 0.960 . S
C2220 H2212 0.929 . S
C2220 C2221 1.377 . S
C2220 C2222 1.384 . S
C2221 C2220 1.377 . S
C2221 C2227 1.390 . S
C2222 H2213 0.930 . S
C2222 C2220 1.384 . S
C2222 C2223 1.372 . S
C2223 C2222 1.372 . S
C2223 C2224 1.400 . S
C2223 C2228 1.490 . S
C2224 H2214 0.930 . S
C2224 C2223 1.400 . S
C2224 C2227 1.386 . S
H2225 C2241 0.930 . S
H2226 C2242 0.931 . S
C2227 H2215 0.929 . S
C2227 C2221 1.390 . S
C2227 C2224 1.386 . S
C2228 C2223 1.490 . S
C2228 C2230 1.395 . S
C2228 C2231 1.403 . S
H2229 C2235 0.930 . S
C2230 H2216 0.930 . S
C2230 C2228 1.395 . S
C2230 C2233 1.403 . S
C2231 C2228 1.403 . S
C2231 C2232 1.524 . S
C2231 C2235 1.400 . S
C2232 H2217 0.960 . S
C2232 H2218 0.960 . S
C2232 H2219 0.960 . S
C2232 C2231 1.524 . S
C2233 C2230 1.403 . S
C2233 C2234 1.392 . S
C2233 C2237 1.495 . S
C2234 C2233 1.392 . S
C2234 C2235 1.385 . S
C2234 C2236 1.478 . S
C2235 H2229 0.930 . S
C2235 C2231 1.400 . S
C2235 C2234 1.385 . S
C2236 C2234 1.478 . S
C2236 C2238 1.381 . S
C2236 C2242 1.383 . S
C2237 C2233 1.495 . S
C2237 H2243 0.959 . S
C2237 H2244 0.961 . S
C2237 H2245 0.960 . S
C2238 C2236 1.381 . S
C2238 C2239 1.394 . S
C2238 H2246 0.930 . S
C2239 C2238 1.394 . S
C2239 C2240 1.383 . S
C2239 H2247 0.929 . S
C2240 C2239 1.383 . S
C2240 C2241 1.377 . S
C2241 H2225 0.930 . S
C2241 C2240 1.377 . S
C2241 C2242 1.379 . S
C2242 H2226 0.931 . S
C2242 C2236 1.383 . S
C2242 C2241 1.379 . S
H2243 C2237 0.959 . S
H2244 C2237 0.961 . S
H2245 C2237 0.960 . S
H2246 C2238 0.930 . S
H2247 C2239 0.929 . S
H2248 C2256 0.929 . S
H2249 C2258 0.930 . S
H2250 C2260 0.930 . S
H2251 C2263 0.929 . S
H2252 C2266 0.930 . S
H2253 C2268 0.960 . S
H2254 C2268 0.960 . S
H2255 C2268 0.960 . S
C2256 H2248 0.929 . S
C2256 C2257 1.377 . S
C2256 C2258 1.384 . S
C2257 C2256 1.377 . S
C2257 C2263 1.390 . S
C2258 H2249 0.930 . S
C2258 C2256 1.384 . S
C2258 C2259 1.372 . S
C2259 C2258 1.372 . S
C2259 C2260 1.400 . S
C2259 C2264 1.490 . S
C2260 H2250 0.930 . S
C2260 C2259 1.400 . S
C2260 C2263 1.386 . S
H2261 C2277 0.930 . S
H2262 C2278 0.931 . S
C2263 H2251 0.929 . S
C2263 C2257 1.390 . S
C2263 C2260 1.386 . S
C2264 C2259 1.490 . S
C2264 C2266 1.395 . S
C2264 C2267 1.403 . S
H2265 C2271 0.930 . S
C2266 H2252 0.930 . S
C2266 C2264 1.395 . S
C2266 C2269 1.403 . S
C2267 C2264 1.403 . S
C2267 C2268 1.524 . S
C2267 C2271 1.400 . S
C2268 H2253 0.960 . S
C2268 H2254 0.960 . S
C2268 H2255 0.960 . S
C2268 C2267 1.524 . S
C2269 C2266 1.403 . S
C2269 C2270 1.392 . S
C2269 C2273 1.495 . S
C2270 C2269 1.392 . S
C2270 C2271 1.385 . S
C2270 C2272 1.478 . S
C2271 H2265 0.930 . S
C2271 C2267 1.400 . S
C2271 C2270 1.385 . S
C2272 C2270 1.478 . S
C2272 C2274 1.381 . S
C2272 C2278 1.383 . S
C2273 C2269 1.495 . S
C2273 H2279 0.959 . S
C2273 H2280 0.961 . S
C2273 H2281 0.960 . S
C2274 C2272 1.381 . S
C2274 C2275 1.394 . S
C2274 H2282 0.930 . S
C2275 C2274 1.394 . S
C2275 C2276 1.383 . S
C2275 H2283 0.929 . S
C2276 C2275 1.383 . S
C2276 C2277 1.377 . S
C2277 H2261 0.930 . S
C2277 C2276 1.377 . S
C2277 C2278 1.379 . S
C2278 H2262 0.931 . S
C2278 C2272 1.383 . S
C2278 C2277 1.379 . S
H2279 C2273 0.959 . S
H2280 C2273 0.961 . S
H2281 C2273 0.960 . S
H2282 C2274 0.930 . S
H2283 C2275 0.929 . S
H2284 C2292 0.929 . S
H2285 C2294 0.930 . S
H2286 C2296 0.930 . S
H2287 C2299 0.929 . S
H2288 C2302 0.930 . S
H2289 C2304 0.960 . S
H2290 C2304 0.960 . S
H2291 C2304 0.960 . S
C2292 H2284 0.929 . S
C2292 C2293 1.377 . S
C2292 C2294 1.384 . S
C2293 C2292 1.377 . S
C2293 C2299 1.390 . S
C2294 H2285 0.930 . S
C2294 C2292 1.384 . S
C2294 C2295 1.372 . S
C2295 C2294 1.372 . S
C2295 C2296 1.400 . S
C2295 C2300 1.490 . S
C2296 H2286 0.930 . S
C2296 C2295 1.400 . S
C2296 C2299 1.386 . S
H2297 C2313 0.930 . S
H2298 C2314 0.931 . S
C2299 H2287 0.929 . S
C2299 C2293 1.390 . S
C2299 C2296 1.386 . S
C2300 C2295 1.490 . S
C2300 C2302 1.395 . S
C2300 C2303 1.403 . S
H2301 C2307 0.930 . S
C2302 H2288 0.930 . S
C2302 C2300 1.395 . S
C2302 C2305 1.403 . S
C2303 C2300 1.403 . S
C2303 C2304 1.524 . S
C2303 C2307 1.400 . S
C2304 H2289 0.960 . S
C2304 H2290 0.960 . S
C2304 H2291 0.960 . S
C2304 C2303 1.524 . S
C2305 C2302 1.403 . S
C2305 C2306 1.392 . S
C2305 C2309 1.495 . S
C2306 C2305 1.392 . S
C2306 C2307 1.385 . S
C2306 C2308 1.478 . S
C2307 H2301 0.930 . S
C2307 C2303 1.400 . S
C2307 C2306 1.385 . S
C2308 C2306 1.478 . S
C2308 C2310 1.381 . S
C2308 C2314 1.383 . S
C2309 C2305 1.495 . S
C2309 H2315 0.959 . S
C2309 H2316 0.961 . S
C2309 H2317 0.960 . S
C2310 C2308 1.381 . S
C2310 C2311 1.394 . S
C2310 H2318 0.930 . S
C2311 C2310 1.394 . S
C2311 C2312 1.383 . S
C2311 H2319 0.929 . S
C2312 C2311 1.383 . S
C2312 C2313 1.377 . S
C2313 H2297 0.930 . S
C2313 C2312 1.377 . S
C2313 C2314 1.379 . S
C2314 H2298 0.931 . S
C2314 C2308 1.383 . S
C2314 C2313 1.379 . S
H2315 C2309 0.959 . S
H2316 C2309 0.961 . S
H2317 C2309 0.960 . S
H2318 C2310 0.930 . S
H2319 C2311 0.929 . S
H2320 C2328 0.929 . S
H2321 C2330 0.930 . S
H2322 C2332 0.930 . S
H2323 C2335 0.929 . S
H2324 C2338 0.930 . S
H2325 C2340 0.960 . S
H2326 C2340 0.960 . S
H2327 C2340 0.960 . S
C2328 H2320 0.929 . S
C2328 C2329 1.377 . S
C2328 C2330 1.384 . S
C2329 C2328 1.377 . S
C2329 C2335 1.390 . S
C2330 H2321 0.930 . S
C2330 C2328 1.384 . S
C2330 C2331 1.372 . S
C2331 C2330 1.372 . S
C2331 C2332 1.400 . S
C2331 C2336 1.490 . S
C2332 H2322 0.930 . S
C2332 C2331 1.400 . S
C2332 C2335 1.386 . S
H2333 C2349 0.930 . S
H2334 C2350 0.931 . S
C2335 H2323 0.929 . S
C2335 C2329 1.390 . S
C2335 C2332 1.386 . S
C2336 C2331 1.490 . S
C2336 C2338 1.395 . S
C2336 C2339 1.403 . S
H2337 C2343 0.930 . S
C2338 H2324 0.930 . S
C2338 C2336 1.395 . S
C2338 C2341 1.403 . S
C2339 C2336 1.403 . S
C2339 C2340 1.524 . S
C2339 C2343 1.400 . S
C2340 H2325 0.960 . S
C2340 H2326 0.960 . S
C2340 H2327 0.960 . S
C2340 C2339 1.524 . S
C2341 C2338 1.403 . S
C2341 C2342 1.392 . S
C2341 C2345 1.495 . S
C2342 C2341 1.392 . S
C2342 C2343 1.385 . S
C2342 C2344 1.478 . S
C2343 H2337 0.930 . S
C2343 C2339 1.400 . S
C2343 C2342 1.385 . S
C2344 C2342 1.478 . S
C2344 C2346 1.381 . S
C2344 C2350 1.383 . S
C2345 C2341 1.495 . S
C2345 H2351 0.959 . S
C2345 H2352 0.961 . S
C2345 H2353 0.960 . S
C2346 C2344 1.381 . S
C2346 C2347 1.394 . S
C2346 H2354 0.930 . S
C2347 C2346 1.394 . S
C2347 C2348 1.383 . S
C2347 H2355 0.929 . S
C2348 C2347 1.383 . S
C2348 C2349 1.377 . S
C2349 H2333 0.930 . S
C2349 C2348 1.377 . S
C2349 C2350 1.379 . S
C2350 H2334 0.931 . S
C2350 C2344 1.383 . S
C2350 C2349 1.379 . S
H2351 C2345 0.959 . S
H2352 C2345 0.961 . S
H2353 C2345 0.960 . S
H2354 C2346 0.930 . S
H2355 C2347 0.929 . S
H2356 C2364 0.929 . S
H2357 C2366 0.930 . S
H2358 C2368 0.930 . S
H2359 C2371 0.929 . S
H2360 C2374 0.930 . S
H2361 C2376 0.960 . S
H2362 C2376 0.960 . S
H2363 C2376 0.960 . S
C2364 H2356 0.929 . S
C2364 C2365 1.377 . S
C2364 C2366 1.384 . S
C2365 C2364 1.377 . S
C2365 C2371 1.390 . S
C2366 H2357 0.930 . S
C2366 C2364 1.384 . S
C2366 C2367 1.372 . S
C2367 C2366 1.372 . S
C2367 C2368 1.400 . S
C2367 C2372 1.490 . S
C2368 H2358 0.930 . S
C2368 C2367 1.400 . S
C2368 C2371 1.386 . S
H2369 C2385 0.930 . S
H2370 C2386 0.931 . S
C2371 H2359 0.929 . S
C2371 C2365 1.390 . S
C2371 C2368 1.386 . S
C2372 C2367 1.490 . S
C2372 C2374 1.395 . S
C2372 C2375 1.403 . S
H2373 C2379 0.930 . S
C2374 H2360 0.930 . S
C2374 C2372 1.395 . S
C2374 C2377 1.403 . S
C2375 C2372 1.403 . S
C2375 C2376 1.524 . S
C2375 C2379 1.400 . S
C2376 H2361 0.960 . S
C2376 H2362 0.960 . S
C2376 H2363 0.960 . S
C2376 C2375 1.524 . S
C2377 C2374 1.403 . S
C2377 C2378 1.392 . S
C2377 C2381 1.495 . S
C2378 C2377 1.392 . S
C2378 C2379 1.385 . S
C2378 C2380 1.478 . S
C2379 H2373 0.930 . S
C2379 C2375 1.400 . S
C2379 C2378 1.385 . S
C2380 C2378 1.478 . S
C2380 C2382 1.381 . S
C2380 C2386 1.383 . S
C2381 C2377 1.495 . S
C2381 H2387 0.959 . S
C2381 H2388 0.961 . S
C2381 H2389 0.960 . S
C2382 C2380 1.381 . S
C2382 C2383 1.394 . S
C2382 H2390 0.930 . S
C2383 C2382 1.394 . S
C2383 C2384 1.383 . S
C2383 H2391 0.929 . S
C2384 C2383 1.383 . S
C2384 C2385 1.377 . S
C2385 H2369 0.930 . S
C2385 C2384 1.377 . S
C2385 C2386 1.379 . S
C2386 H2370 0.931 . S
C2386 C2380 1.383 . S
C2386 C2385 1.379 . S
H2387 C2381 0.959 . S
H2388 C2381 0.961 . S
H2389 C2381 0.960 . S
H2390 C2382 0.930 . S
H2391 C2383 0.929 . S
H2392 C2400 0.929 . S
H2393 C2402 0.930 . S
H2394 C2404 0.930 . S
H2395 C2407 0.929 . S
H2396 C2410 0.930 . S
H2397 C2412 0.960 . S
H2398 C2412 0.960 . S
H2399 C2412 0.960 . S
C2400 H2392 0.929 . S
C2400 C2401 1.377 . S
C2400 C2402 1.384 . S
C2401 C2400 1.377 . S
C2401 C2407 1.390 . S
C2402 H2393 0.930 . S
C2402 C2400 1.384 . S
C2402 C2403 1.372 . S
C2403 C2402 1.372 . S
C2403 C2404 1.400 . S
C2403 C2408 1.490 . S
C2404 H2394 0.930 . S
C2404 C2403 1.400 . S
C2404 C2407 1.386 . S
H2405 C2421 0.930 . S
H2406 C2422 0.931 . S
C2407 H2395 0.929 . S
C2407 C2401 1.390 . S
C2407 C2404 1.386 . S
C2408 C2403 1.490 . S
C2408 C2410 1.395 . S
C2408 C2411 1.403 . S
H2409 C2415 0.930 . S
C2410 H2396 0.930 . S
C2410 C2408 1.395 . S
C2410 C2413 1.403 . S
C2411 C2408 1.403 . S
C2411 C2412 1.524 . S
C2411 C2415 1.400 . S
C2412 H2397 0.960 . S
C2412 H2398 0.960 . S
C2412 H2399 0.960 . S
C2412 C2411 1.524 . S
C2413 C2410 1.403 . S
C2413 C2414 1.392 . S
C2413 C2417 1.495 . S
C2414 C2413 1.392 . S
C2414 C2415 1.385 . S
C2414 C2416 1.478 . S
C2415 H2409 0.930 . S
C2415 C2411 1.400 . S
C2415 C2414 1.385 . S
C2416 C2414 1.478 . S
C2416 C2418 1.381 . S
C2416 C2422 1.383 . S
C2417 C2413 1.495 . S
C2417 H2423 0.959 . S
C2417 H2424 0.961 . S
C2417 H2425 0.960 . S
C2418 C2416 1.381 . S
C2418 C2419 1.394 . S
C2418 H2426 0.930 . S
C2419 C2418 1.394 . S
C2419 C2420 1.383 . S
C2419 H2427 0.929 . S
C2420 C2419 1.383 . S
C2420 C2421 1.377 . S
C2421 H2405 0.930 . S
C2421 C2420 1.377 . S
C2421 C2422 1.379 . S
C2422 H2406 0.931 . S
C2422 C2416 1.383 . S
C2422 C2421 1.379 . S
H2423 C2417 0.959 . S
H2424 C2417 0.961 . S
H2425 C2417 0.960 . S
H2426 C2418 0.930 . S
H2427 C2419 0.929 . S
H2428 C2436 0.929 . S
H2429 C2438 0.930 . S
H2430 C2440 0.930 . S
H2431 C2443 0.929 . S
H2432 C2446 0.930 . S
H2433 C2448 0.960 . S
H2434 C2448 0.960 . S
H2435 C2448 0.960 . S
C2436 H2428 0.929 . S
C2436 C2437 1.377 . S
C2436 C2438 1.384 . S
C2437 C2436 1.377 . S
C2437 C2443 1.390 . S
C2438 H2429 0.930 . S
C2438 C2436 1.384 . S
C2438 C2439 1.372 . S
C2439 C2438 1.372 . S
C2439 C2440 1.400 . S
C2439 C2444 1.490 . S
C2440 H2430 0.930 . S
C2440 C2439 1.400 . S
C2440 C2443 1.386 . S
H2441 C2457 0.930 . S
H2442 C2458 0.931 . S
C2443 H2431 0.929 . S
C2443 C2437 1.390 . S
C2443 C2440 1.386 . S
C2444 C2439 1.490 . S
C2444 C2446 1.395 . S
C2444 C2447 1.403 . S
H2445 C2451 0.930 . S
C2446 H2432 0.930 . S
C2446 C2444 1.395 . S
C2446 C2449 1.403 . S
C2447 C2444 1.403 . S
C2447 C2448 1.524 . S
C2447 C2451 1.400 . S
C2448 H2433 0.960 . S
C2448 H2434 0.960 . S
C2448 H2435 0.960 . S
C2448 C2447 1.524 . S
C2449 C2446 1.403 . S
C2449 C2450 1.392 . S
C2449 C2453 1.495 . S
C2450 C2449 1.392 . S
C2450 C2451 1.385 . S
C2450 C2452 1.478 . S
C2451 H2445 0.930 . S
C2451 C2447 1.400 . S
C2451 C2450 1.385 . S
C2452 C2450 1.478 . S
C2452 C2454 1.381 . S
C2452 C2458 1.383 . S
C2453 C2449 1.495 . S
C2453 H2459 0.959 . S
C2453 H2460 0.961 . S
C2453 H2461 0.960 . S
C2454 C2452 1.381 . S
C2454 C2455 1.394 . S
C2454 H2462 0.930 . S
C2455 C2454 1.394 . S
C2455 C2456 1.383 . S
C2455 H2463 0.929 . S
C2456 C2455 1.383 . S
C2456 C2457 1.377 . S
C2457 H2441 0.930 . S
C2457 C2456 1.377 . S
C2457 C2458 1.379 . S
C2458 H2442 0.931 . S
C2458 C2452 1.383 . S
C2458 C2457 1.379 . S
H2459 C2453 0.959 . S
H2460 C2453 0.961 . S
H2461 C2453 0.960 . S
H2462 C2454 0.930 . S
H2463 C2455 0.929 . S
H2464 C2472 0.929 . S
H2465 C2474 0.930 . S
H2466 C2476 0.930 . S
H2467 C2479 0.929 . S
H2468 C2482 0.930 . S
H2469 C2484 0.960 . S
H2470 C2484 0.960 . S
H2471 C2484 0.960 . S
C2472 H2464 0.929 . S
C2472 C2473 1.377 . S
C2472 C2474 1.384 . S
C2473 C2472 1.377 . S
C2473 C2479 1.390 . S
C2474 H2465 0.930 . S
C2474 C2472 1.384 . S
C2474 C2475 1.372 . S
C2475 C2474 1.372 . S
C2475 C2476 1.400 . S
C2475 C2480 1.490 . S
C2476 H2466 0.930 . S
C2476 C2475 1.400 . S
C2476 C2479 1.386 . S
H2477 C2493 0.930 . S
H2478 C2494 0.931 . S
C2479 H2467 0.929 . S
C2479 C2473 1.390 . S
C2479 C2476 1.386 . S
C2480 C2475 1.490 . S
C2480 C2482 1.395 . S
C2480 C2483 1.403 . S
H2481 C2487 0.930 . S
C2482 H2468 0.930 . S
C2482 C2480 1.395 . S
C2482 C2485 1.403 . S
C2483 C2480 1.403 . S
C2483 C2484 1.524 . S
C2483 C2487 1.400 . S
C2484 H2469 0.960 . S
C2484 H2470 0.960 . S
C2484 H2471 0.960 . S
C2484 C2483 1.524 . S
C2485 C2482 1.403 . S
C2485 C2486 1.392 . S
C2485 C2489 1.495 . S
C2486 C2485 1.392 . S
C2486 C2487 1.385 . S
C2486 C2488 1.478 . S
C2487 H2481 0.930 . S
C2487 C2483 1.400 . S
C2487 C2486 1.385 . S
C2488 C2486 1.478 . S
C2488 C2490 1.381 . S
C2488 C2494 1.383 . S
C2489 C2485 1.495 . S
C2489 H2495 0.959 . S
C2489 H2496 0.961 . S
C2489 H2497 0.960 . S
C2490 C2488 1.381 . S
C2490 C2491 1.394 . S
C2490 H2498 0.930 . S
C2491 C2490 1.394 . S
C2491 C2492 1.383 . S
C2491 H2499 0.929 . S
C2492 C2491 1.383 . S
C2492 C2493 1.377 . S
C2493 H2477 0.930 . S
C2493 C2492 1.377 . S
C2493 C2494 1.379 . S
C2494 H2478 0.931 . S
C2494 C2488 1.383 . S
C2494 C2493 1.379 . S
H2495 C2489 0.959 . S
H2496 C2489 0.961 . S
H2497 C2489 0.960 . S
H2498 C2490 0.930 . S
H2499 C2491 0.929 . S
H2500 C2508 0.929 . S
H2501 C2510 0.930 . S
H2502 C2512 0.930 . S
H2503 C2515 0.929 . S
H2504 C2518 0.930 . S
H2505 C2520 0.960 . S
H2506 C2520 0.960 . S
H2507 C2520 0.960 . S
C2508 H2500 0.929 . S
C2508 C2509 1.377 . S
C2508 C2510 1.384 . S
C2509 C2508 1.377 . S
C2509 C2515 1.390 . S
C2510 H2501 0.930 . S
C2510 C2508 1.384 . S
C2510 C2511 1.372 . S
C2511 C2510 1.372 . S
C2511 C2512 1.400 . S
C2511 C2516 1.490 . S
C2512 H2502 0.930 . S
C2512 C2511 1.400 . S
C2512 C2515 1.386 . S
H2513 C2529 0.930 . S
H2514 C2530 0.931 . S
C2515 H2503 0.929 . S
C2515 C2509 1.390 . S
C2515 C2512 1.386 . S
C2516 C2511 1.490 . S
C2516 C2518 1.395 . S
C2516 C2519 1.403 . S
H2517 C2523 0.930 . S
C2518 H2504 0.930 . S
C2518 C2516 1.395 . S
C2518 C2521 1.403 . S
C2519 C2516 1.403 . S
C2519 C2520 1.524 . S
C2519 C2523 1.400 . S
C2520 H2505 0.960 . S
C2520 H2506 0.960 . S
C2520 H2507 0.960 . S
C2520 C2519 1.524 . S
C2521 C2518 1.403 . S
C2521 C2522 1.392 . S
C2521 C2525 1.495 . S
C2522 C2521 1.392 . S
C2522 C2523 1.385 . S
C2522 C2524 1.478 . S
C2523 H2517 0.930 . S
C2523 C2519 1.400 . S
C2523 C2522 1.385 . S
C2524 C2522 1.478 . S
C2524 C2526 1.381 . S
C2524 C2530 1.383 . S
C2525 C2521 1.495 . S
C2525 H2531 0.959 . S
C2525 H2532 0.961 . S
C2525 H2533 0.960 . S
C2526 C2524 1.381 . S
C2526 C2527 1.394 . S
C2526 H2534 0.930 . S
C2527 C2526 1.394 . S
C2527 C2528 1.383 . S
C2527 H2535 0.929 . S
C2528 C2527 1.383 . S
C2528 C2529 1.377 . S
C2529 H2513 0.930 . S
C2529 C2528 1.377 . S
C2529 C2530 1.379 . S
C2530 H2514 0.931 . S
C2530 C2524 1.383 . S
C2530 C2529 1.379 . S
H2531 C2525 0.959 . S
H2532 C2525 0.961 . S
H2533 C2525 0.960 . S
H2534 C2526 0.930 . S
H2535 C2527 0.929 . S
H2536 C2544 0.929 . S
H2537 C2546 0.930 . S
H2538 C2548 0.930 . S
H2539 C2551 0.929 . S
H2540 C2554 0.930 . S
H2541 C2556 0.960 . S
H2542 C2556 0.960 . S
H2543 C2556 0.960 . S
C2544 H2536 0.929 . S
C2544 C2545 1.377 . S
C2544 C2546 1.384 . S
C2545 C2544 1.377 . S
C2545 C2551 1.390 . S
C2546 H2537 0.930 . S
C2546 C2544 1.384 . S
C2546 C2547 1.372 . S
C2547 C2546 1.372 . S
C2547 C2548 1.400 . S
C2547 C2552 1.490 . S
C2548 H2538 0.930 . S
C2548 C2547 1.400 . S
C2548 C2551 1.386 . S
H2549 C2565 0.930 . S
H2550 C2566 0.931 . S
C2551 H2539 0.929 . S
C2551 C2545 1.390 . S
C2551 C2548 1.386 . S
C2552 C2547 1.490 . S
C2552 C2554 1.395 . S
C2552 C2555 1.403 . S
H2553 C2559 0.930 . S
C2554 H2540 0.930 . S
C2554 C2552 1.395 . S
C2554 C2557 1.403 . S
C2555 C2552 1.403 . S
C2555 C2556 1.524 . S
C2555 C2559 1.400 . S
C2556 H2541 0.960 . S
C2556 H2542 0.960 . S
C2556 H2543 0.960 . S
C2556 C2555 1.524 . S
C2557 C2554 1.403 . S
C2557 C2558 1.392 . S
C2557 C2561 1.495 . S
C2558 C2557 1.392 . S
C2558 C2559 1.385 . S
C2558 C2560 1.478 . S
C2559 H2553 0.930 . S
C2559 C2555 1.400 . S
C2559 C2558 1.385 . S
C2560 C2558 1.478 . S
C2560 C2562 1.381 . S
C2560 C2566 1.383 . S
C2561 C2557 1.495 . S
C2561 H2567 0.959 . S
C2561 H2568 0.961 . S
C2561 H2569 0.960 . S
C2562 C2560 1.381 . S
C2562 C2563 1.394 . S
C2562 H2570 0.930 . S
C2563 C2562 1.394 . S
C2563 C2564 1.383 . S
C2563 H2571 0.929 . S
C2564 C2563 1.383 . S
C2564 C2565 1.377 . S
C2565 H2549 0.930 . S
C2565 C2564 1.377 . S
C2565 C2566 1.379 . S
C2566 H2550 0.931 . S
C2566 C2560 1.383 . S
C2566 C2565 1.379 . S
H2567 C2561 0.959 . S
H2568 C2561 0.961 . S
H2569 C2561 0.960 . S
H2570 C2562 0.930 . S
H2571 C2563 0.929 . S
H2572 C2580 0.929 . S
H2573 C2582 0.930 . S
H2574 C2584 0.930 . S
H2575 C2587 0.929 . S
H2576 C2590 0.930 . S
H2577 C2592 0.960 . S
H2578 C2592 0.960 . S
H2579 C2592 0.960 . S
C2580 H2572 0.929 . S
C2580 C2581 1.377 . S
C2580 C2582 1.384 . S
C2581 C2580 1.377 . S
C2581 C2587 1.390 . S
C2582 H2573 0.930 . S
C2582 C2580 1.384 . S
C2582 C2583 1.372 . S
C2583 C2582 1.372 . S
C2583 C2584 1.400 . S
C2583 C2588 1.490 . S
C2584 H2574 0.930 . S
C2584 C2583 1.400 . S
C2584 C2587 1.386 . S
H2585 C2601 0.930 . S
H2586 C2602 0.931 . S
C2587 H2575 0.929 . S
C2587 C2581 1.390 . S
C2587 C2584 1.386 . S
C2588 C2583 1.490 . S
C2588 C2590 1.395 . S
C2588 C2591 1.403 . S
H2589 C2595 0.930 . S
C2590 H2576 0.930 . S
C2590 C2588 1.395 . S
C2590 C2593 1.403 . S
C2591 C2588 1.403 . S
C2591 C2592 1.524 . S
C2591 C2595 1.400 . S
C2592 H2577 0.960 . S
C2592 H2578 0.960 . S
C2592 H2579 0.960 . S
C2592 C2591 1.524 . S
C2593 C2590 1.403 . S
C2593 C2594 1.392 . S
C2593 C2597 1.495 . S
C2594 C2593 1.392 . S
C2594 C2595 1.385 . S
C2594 C2596 1.478 . S
C2595 H2589 0.930 . S
C2595 C2591 1.400 . S
C2595 C2594 1.385 . S
C2596 C2594 1.478 . S
C2596 C2598 1.381 . S
C2596 C2602 1.383 . S
C2597 C2593 1.495 . S
C2597 H2603 0.959 . S
C2597 H2604 0.961 . S
C2597 H2605 0.960 . S
C2598 C2596 1.381 . S
C2598 C2599 1.394 . S
C2598 H2606 0.930 . S
C2599 C2598 1.394 . S
C2599 C2600 1.383 . S
C2599 H2607 0.929 . S
C2600 C2599 1.383 . S
C2600 C2601 1.377 . S
C2601 H2585 0.930 . S
C2601 C2600 1.377 . S
C2601 C2602 1.379 . S
C2602 H2586 0.931 . S
C2602 C2596 1.383 . S
C2602 C2601 1.379 . S
H2603 C2597 0.959 . S
H2604 C2597 0.961 . S
H2605 C2597 0.960 . S
H2606 C2598 0.930 . S
H2607 C2599 0.929 . S
H2608 C2616 0.929 . S
H2609 C2618 0.930 . S
H2610 C2620 0.930 . S
H2611 C2623 0.929 . S
H2612 C2626 0.930 . S
H2613 C2628 0.960 . S
H2614 C2628 0.960 . S
H2615 C2628 0.960 . S
C2616 H2608 0.929 . S
C2616 C2617 1.377 . S
C2616 C2618 1.384 . S
C2617 C2616 1.377 . S
C2617 C2623 1.390 . S
C2618 H2609 0.930 . S
C2618 C2616 1.384 . S
C2618 C2619 1.372 . S
C2619 C2618 1.372 . S
C2619 C2620 1.400 . S
C2619 C2624 1.490 . S
C2620 H2610 0.930 . S
C2620 C2619 1.400 . S
C2620 C2623 1.386 . S
H2621 C2637 0.930 . S
H2622 C2638 0.931 . S
C2623 H2611 0.929 . S
C2623 C2617 1.390 . S
C2623 C2620 1.386 . S
C2624 C2619 1.490 . S
C2624 C2626 1.395 . S
C2624 C2627 1.403 . S
H2625 C2631 0.930 . S
C2626 H2612 0.930 . S
C2626 C2624 1.395 . S
C2626 C2629 1.403 . S
C2627 C2624 1.403 . S
C2627 C2628 1.524 . S
C2627 C2631 1.400 . S
C2628 H2613 0.960 . S
C2628 H2614 0.960 . S
C2628 H2615 0.960 . S
C2628 C2627 1.524 . S
C2629 C2626 1.403 . S
C2629 C2630 1.392 . S
C2629 C2633 1.495 . S
C2630 C2629 1.392 . S
C2630 C2631 1.385 . S
C2630 C2632 1.478 . S
C2631 H2625 0.930 . S
C2631 C2627 1.400 . S
C2631 C2630 1.385 . S
C2632 C2630 1.478 . S
C2632 C2634 1.381 . S
C2632 C2638 1.383 . S
C2633 C2629 1.495 . S
C2633 H2639 0.959 . S
C2633 H2640 0.961 . S
C2633 H2641 0.960 . S
C2634 C2632 1.381 . S
C2634 C2635 1.394 . S
C2634 H2642 0.930 . S
C2635 C2634 1.394 . S
C2635 C2636 1.383 . S
C2635 H2643 0.929 . S
C2636 C2635 1.383 . S
C2636 C2637 1.377 . S
C2637 H2621 0.930 . S
C2637 C2636 1.377 . S
C2637 C2638 1.379 . S
C2638 H2622 0.931 . S
C2638 C2632 1.383 . S
C2638 C2637 1.379 . S
H2639 C2633 0.959 . S
H2640 C2633 0.961 . S
H2641 C2633 0.960 . S
H2642 C2634 0.930 . S
H2643 C2635 0.929 . S
H2644 C2652 0.929 . S
H2645 C2654 0.930 . S
H2646 C2656 0.930 . S
H2647 C2659 0.929 . S
H2648 C2662 0.930 . S
H2649 C2664 0.960 . S
H2650 C2664 0.960 . S
H2651 C2664 0.960 . S
C2652 H2644 0.929 . S
C2652 C2653 1.377 . S
C2652 C2654 1.384 . S
C2653 C2652 1.377 . S
C2653 C2659 1.390 . S
C2654 H2645 0.930 . S
C2654 C2652 1.384 . S
C2654 C2655 1.372 . S
C2655 C2654 1.372 . S
C2655 C2656 1.400 . S
C2655 C2660 1.490 . S
C2656 H2646 0.930 . S
C2656 C2655 1.400 . S
C2656 C2659 1.386 . S
H2657 C2673 0.930 . S
H2658 C2674 0.931 . S
C2659 H2647 0.929 . S
C2659 C2653 1.390 . S
C2659 C2656 1.386 . S
C2660 C2655 1.490 . S
C2660 C2662 1.395 . S
C2660 C2663 1.403 . S
H2661 C2667 0.930 . S
C2662 H2648 0.930 . S
C2662 C2660 1.395 . S
C2662 C2665 1.403 . S
C2663 C2660 1.403 . S
C2663 C2664 1.524 . S
C2663 C2667 1.400 . S
C2664 H2649 0.960 . S
C2664 H2650 0.960 . S
C2664 H2651 0.960 . S
C2664 C2663 1.524 . S
C2665 C2662 1.403 . S
C2665 C2666 1.392 . S
C2665 C2669 1.495 . S
C2666 C2665 1.392 . S
C2666 C2667 1.385 . S
C2666 C2668 1.478 . S
C2667 H2661 0.930 . S
C2667 C2663 1.400 . S
C2667 C2666 1.385 . S
C2668 C2666 1.478 . S
C2668 C2670 1.381 . S
C2668 C2674 1.383 . S
C2669 C2665 1.495 . S
C2669 H2675 0.959 . S
C2669 H2676 0.961 . S
C2669 H2677 0.960 . S
C2670 C2668 1.381 . S
C2670 C2671 1.394 . S
C2670 H2678 0.930 . S
C2671 C2670 1.394 . S
C2671 C2672 1.383 . S
C2671 H2679 0.929 . S
C2672 C2671 1.383 . S
C2672 C2673 1.377 . S
C2673 H2657 0.930 . S
C2673 C2672 1.377 . S
C2673 C2674 1.379 . S
C2674 H2658 0.931 . S
C2674 C2668 1.383 . S
C2674 C2673 1.379 . S
H2675 C2669 0.959 . S
H2676 C2669 0.961 . S
H2677 C2669 0.960 . S
H2678 C2670 0.930 . S
H2679 C2671 0.929 . S
H2680 C2688 0.929 . S
H2681 C2690 0.930 . S
H2682 C2692 0.930 . S
H2683 C2695 0.929 . S
H2684 C2698 0.930 . S
H2685 C2700 0.960 . S
H2686 C2700 0.960 . S
H2687 C2700 0.960 . S
C2688 H2680 0.929 . S
C2688 C2689 1.377 . S
C2688 C2690 1.384 . S
C2689 C2688 1.377 . S
C2689 C2695 1.390 . S
C2690 H2681 0.930 . S
C2690 C2688 1.384 . S
C2690 C2691 1.372 . S
C2691 C2690 1.372 . S
C2691 C2692 1.400 . S
C2691 C2696 1.490 . S
C2692 H2682 0.930 . S
C2692 C2691 1.400 . S
C2692 C2695 1.386 . S
H2693 C2709 0.930 . S
H2694 C2710 0.931 . S
C2695 H2683 0.929 . S
C2695 C2689 1.390 . S
C2695 C2692 1.386 . S
C2696 C2691 1.490 . S
C2696 C2698 1.395 . S
C2696 C2699 1.403 . S
H2697 C2703 0.930 . S
C2698 H2684 0.930 . S
C2698 C2696 1.395 . S
C2698 C2701 1.403 . S
C2699 C2696 1.403 . S
C2699 C2700 1.524 . S
C2699 C2703 1.400 . S
C2700 H2685 0.960 . S
C2700 H2686 0.960 . S
C2700 H2687 0.960 . S
C2700 C2699 1.524 . S
C2701 C2698 1.403 . S
C2701 C2702 1.392 . S
C2701 C2705 1.495 . S
C2702 C2701 1.392 . S
C2702 C2703 1.385 . S
C2702 C2704 1.478 . S
C2703 H2697 0.930 . S
C2703 C2699 1.400 . S
C2703 C2702 1.385 . S
C2704 C2702 1.478 . S
C2704 C2706 1.381 . S
C2704 C2710 1.383 . S
C2705 C2701 1.495 . S
C2705 H2711 0.959 . S
C2705 H2712 0.961 . S
C2705 H2713 0.960 . S
C2706 C2704 1.381 . S
C2706 C2707 1.394 . S
C2706 H2714 0.930 . S
C2707 C2706 1.394 . S
C2707 C2708 1.383 . S
C2707 H2715 0.929 . S
C2708 C2707 1.383 . S
C2708 C2709 1.377 . S
C2709 H2693 0.930 . S
C2709 C2708 1.377 . S
C2709 C2710 1.379 . S
C2710 H2694 0.931 . S
C2710 C2704 1.383 . S
C2710 C2709 1.379 . S
H2711 C2705 0.959 . S
H2712 C2705 0.961 . S
H2713 C2705 0.960 . S
H2714 C2706 0.930 . S
H2715 C2707 0.929 . S
H2716 C2724 0.929 . S
H2717 C2726 0.930 . S
H2718 C2728 0.930 . S
H2719 C2731 0.929 . S
H2720 C2734 0.930 . S
H2721 C2736 0.960 . S
H2722 C2736 0.960 . S
H2723 C2736 0.960 . S
C2724 H2716 0.929 . S
C2724 C2725 1.377 . S
C2724 C2726 1.384 . S
C2725 C2724 1.377 . S
C2725 C2731 1.390 . S
C2726 H2717 0.930 . S
C2726 C2724 1.384 . S
C2726 C2727 1.372 . S
C2727 C2726 1.372 . S
C2727 C2728 1.400 . S
C2727 C2732 1.490 . S
C2728 H2718 0.930 . S
C2728 C2727 1.400 . S
C2728 C2731 1.386 . S
H2729 C2745 0.930 . S
H2730 C2746 0.931 . S
C2731 H2719 0.929 . S
C2731 C2725 1.390 . S
C2731 C2728 1.386 . S
C2732 C2727 1.490 . S
C2732 C2734 1.395 . S
C2732 C2735 1.403 . S
H2733 C2739 0.930 . S
C2734 H2720 0.930 . S
C2734 C2732 1.395 . S
C2734 C2737 1.403 . S
C2735 C2732 1.403 . S
C2735 C2736 1.524 . S
C2735 C2739 1.400 . S
C2736 H2721 0.960 . S
C2736 H2722 0.960 . S
C2736 H2723 0.960 . S
C2736 C2735 1.524 . S
C2737 C2734 1.403 . S
C2737 C2738 1.392 . S
C2737 C2741 1.495 . S
C2738 C2737 1.392 . S
C2738 C2739 1.385 . S
C2738 C2740 1.478 . S
C2739 H2733 0.930 . S
C2739 C2735 1.400 . S
C2739 C2738 1.385 . S
C2740 C2738 1.478 . S
C2740 C2742 1.381 . S
C2740 C2746 1.383 . S
C2741 C2737 1.495 . S
C2741 H2747 0.959 . S
C2741 H2748 0.961 . S
C2741 H2749 0.960 . S
C2742 C2740 1.381 . S
C2742 C2743 1.394 . S
C2742 H2750 0.930 . S
C2743 C2742 1.394 . S
C2743 C2744 1.383 . S
C2743 H2751 0.929 . S
C2744 C2743 1.383 . S
C2744 C2745 1.377 . S
C2745 H2729 0.930 . S
C2745 C2744 1.377 . S
C2745 C2746 1.379 . S
C2746 H2730 0.931 . S
C2746 C2740 1.383 . S
C2746 C2745 1.379 . S
H2747 C2741 0.959 . S
H2748 C2741 0.961 . S
H2749 C2741 0.960 . S
H2750 C2742 0.930 . S
H2751 C2743 0.929 . S
C457 C89 1.461 . S
C476 C5 1.468 . S
C493 C19 1.464 . S
C512 C103 1.450 . S
C529 C61 1.462 . S
C548 C33 1.452 . S
C565 C47 1.464 . S
C584 C75 1.458 . S
C601 C201 1.464 . S
C620 C117 1.463 . S
C637 C215 1.463 . S
C656 C131 1.464 . S
C673 C145 1.463 . S
C692 C173 1.460 . S
C709 C159 1.462 . S
C728 C187 1.463 . S
C745 C229 1.463 . S
C764 C313 1.452 . S
C781 C243 1.461 . S
C800 C327 1.468 . S
C817 C285 1.464 . S
C836 C257 1.452 . S
C853 C299 1.462 . S
C872 C271 1.466 . S
C889 C341 1.461 . S
C908 C425 1.450 . S
C925 C439 1.464 . S
C944 C355 1.464 . S
C961 C397 1.461 . S
C980 C369 1.458 . S
C997 C383 1.464 . S
C1016 C411 1.468 . S
C1033 C0 1.162 . S
C1052 C429 1.182 . S
C1069 C219 1.175 . S
C1088 C14 1.157 . S
C1105 C28 1.162 . S
C1124 C401 1.186 . S
C1141 C42 1.161 . S
C1160 C191 1.186 . S
C1177 C373 1.174 . S
C1196 C56 1.127 . S
C1213 C163 1.176 . S
C1232 C70 1.139 . S
C1249 C84 1.162 . S
C1268 C345 1.183 . S
C1285 C135 1.177 . S
C1304 C98 1.158 . S
C1321 C112 1.162 . S
C1340 C317 1.162 . S
C1357 C107 1.178 . S
C1376 C126 1.127 . S
C1393 C140 1.158 . S
C1412 C289 1.165 . S
C1429 C154 1.151 . S
C1448 C79 1.184 . S
C1465 C261 1.176 . S
C1484 C168 1.167 . S
C1501 C182 1.161 . S
C1520 C51 1.161 . S
C1537 C196 1.151 . S
C1556 C233 1.185 . S
C1573 C23 1.178 . S
C1592 C210 1.127 . S
C1609 C224 1.154 . S
C1628 C205 1.163 . S
C1645 C238 1.160 . S
C1664 C443 1.176 . S
C1681 C177 1.175 . S
C1700 C252 1.134 . S
C1717 C266 1.157 . S
C1736 C415 1.180 . S
C1753 C149 1.175 . S
C1772 C280 1.133 . S
C1789 C387 1.177 . S
C1808 C294 1.174 . S
C1825 C121 1.174 . S
C1844 C308 1.130 . S
C1861 C359 1.174 . S
C1880 C322 1.127 . S
C1897 C336 1.161 . S
C1916 C93 1.162 . S
C1933 C331 1.174 . S
C1952 C350 1.158 . S
C1969 C65 1.178 . S
C1988 C364 1.128 . S
C2005 C378 1.151 . S
C2024 C303 1.183 . S
C2041 C392 1.152 . S
C2060 C37 1.185 . S
C2077 C406 1.153 . S
C2096 C275 1.185 . S
C2113 C9 1.174 . S
C2132 C420 1.170 . S
C2149 C434 1.156 . S
C2168 C247 1.168 . S
C2185 C11 1.364 . S
C2204 C305 1.361 . S
C2221 C319 1.361 . S
C2240 C25 1.348 . S
C2257 C39 1.361 . S
C2276 C333 1.352 . S
C2293 C291 1.362 . S
C2312 C53 1.358 . S
C2329 C277 1.366 . S
C2348 C67 1.373 . S
C2365 C235 1.364 . S
C2384 C81 1.360 . S
C2401 C249 1.366 . S
C2420 C95 1.370 . S
C2437 C263 1.366 . S
C2456 C109 1.370 . S
C2473 C123 1.360 . S
C2492 C417 1.364 . S
C2509 C431 1.366 . S
C2528 C137 1.363 . S
C2545 C445 1.364 . S
C2564 C151 1.347 . S
C2581 C403 1.361 . S
C2600 C165 1.370 . S
C2617 C389 1.365 . S
C2636 C179 1.347 . S
C2653 C347 1.366 . S
C2672 C193 1.361 . S
C2689 C207 1.364 . S
C2708 C361 1.372 . S
C2725 C221 1.360 . S
C2744 C375 1.364 . S
