# Generated by pormake.
# Topology cag, (4)-cn, num edge types: 1
# Building blocks:
#     Node 0, Type 0, BuildingBlock: ICAMEG_clean_sbu_1, # of connection points: 4
#     Node 1, Type 0, BuildingBlock: ICAMEG_clean_sbu_1, # of connection points: 4
#     Node 2, Type 0, BuildingBlock: ICAMEG_clean_sbu_1, # of connection points: 4
#     Node 3, Type 0, BuildingBlock: ICAMEG_clean_sbu_1, # of connection points: 4
#     Node 4, Type 0, BuildingBlock: ICAMEG_clean_sbu_1, # of connection points: 4
#     Node 5, Type 0, BuildingBlock: ICAMEG_clean_sbu_1, # of connection points: 4
#     Node 6, Type 0, BuildingBlock: ICAMEG_clean_sbu_1, # of connection points: 4
#     Node 7, Type 0, BuildingBlock: ICAMEG_clean_sbu_1, # of connection points: 4
#     Node 8, Type 0, BuildingBlock: ICAMEG_clean_sbu_1, # of connection points: 4
#     Node 9, Type 0, BuildingBlock: ICAMEG_clean_sbu_1, # of connection points: 4
#     Node 10, Type 0, BuildingBlock: ICAMEG_clean_sbu_1, # of connection points: 4
#     Node 11, Type 0, BuildingBlock: ICAMEG_clean_sbu_1, # of connection points: 4
#     Node 12, Type 0, BuildingBlock: ICAMEG_clean_sbu_1, # of connection points: 4
#     Node 13, Type 0, BuildingBlock: ICAMEG_clean_sbu_1, # of connection points: 4
#     Node 14, Type 0, BuildingBlock: ICAMEG_clean_sbu_1, # of connection points: 4
#     Node 15, Type 0, BuildingBlock: ICAMEG_clean_sbu_1, # of connection points: 4
#     Edge 16, Type (0, 0), None
#     Edge 17, Type (0, 0), None
#     Edge 18, Type (0, 0), None
#     Edge 19, Type (0, 0), None
#     Edge 20, Type (0, 0), None
#     Edge 21, Type (0, 0), None
#     Edge 22, Type (0, 0), None
#     Edge 23, Type (0, 0), None
#     Edge 24, Type (0, 0), None
#     Edge 25, Type (0, 0), None
#     Edge 26, Type (0, 0), None
#     Edge 27, Type (0, 0), None
#     Edge 28, Type (0, 0), None
#     Edge 29, Type (0, 0), None
#     Edge 30, Type (0, 0), None
#     Edge 31, Type (0, 0), None
#     Edge 32, Type (0, 0), None
#     Edge 33, Type (0, 0), None
#     Edge 34, Type (0, 0), None
#     Edge 35, Type (0, 0), None
#     Edge 36, Type (0, 0), None
#     Edge 37, Type (0, 0), None
#     Edge 38, Type (0, 0), None
#     Edge 39, Type (0, 0), None
#     Edge 40, Type (0, 0), None
#     Edge 41, Type (0, 0), None
#     Edge 42, Type (0, 0), None
#     Edge 43, Type (0, 0), None
#     Edge 44, Type (0, 0), None
#     Edge 45, Type (0, 0), None
#     Edge 46, Type (0, 0), None
#     Edge 47, Type (0, 0), None
# Relax obj value: 0.155
# Max RMSD: 0.206
# Mean RMSD: 0.205
data_MOF--net-cag--node1-ICAMEG_clean_sbu_1--edge1-none
_symmetry_space_group_name_H-M    P1
_symmetry_Int_Tables_number       1
_symmetry_cell_setting            triclinic
loop_
_symmetry_equiv_pos_as_xyz
'x, y, z'
_cell_length_a     21.167497
_cell_length_b     25.199044
_cell_length_c     22.386984
_cell_angle_alpha  90.000011
_cell_angle_beta   89.999945
_cell_angle_gamma 90.000052
loop_
_atom_site_label
_atom_site_type_symbol
_atom_site_fract_x
_atom_site_fract_y
_atom_site_fract_z
_atom_type_partial_charge
Co0 Co 0.36122 0.14792 0.99622 0.0
Co1 Co 0.3627 0.08969 0.13646 0.0
O2 O 0.33652 0.14127 0.07873 0.0
C3 C 0.33272 0.26335 0.03356 0.0
O4 O 0.31141 0.25043 0.08643 0.0
C5 C 0.23777 0.08429 0.21675 0.0
O6 O 0.17674 0.08963 0.21071 0.0
O7 O 0.34976 0.02881 0.07392 0.0
O8 O 0.36473 0.06928 0.98476 0.0
H9 H 0.48501 0.02191 0.31533 0.0
H10 H 0.2388 0.18527 0.0523 0.0
O11 O 0.36047 0.22877 0.00147 0.0
H12 H 0.18107 0.06157 0.89242 0.0
H13 H 0.32352 0.24124 0.80268 0.0
H14 H 0.43377 0.08991 0.89601 0.0
H15 H 0.28892 0.09303 0.90089 0.0
H16 H 0.31641 0.22549 0.90905 0.0
O17 O 0.2704 0.08418 0.16718 0.0
H18 H 0.47187 0.07608 0.22611 0.0
H19 H 0.30832 0.9891 0.17684 0.0
H20 H 0.4348 0.10365 0.78433 0.0
H21 H 0.12908 0.15684 0.04325 0.0
H22 H 0.38206 0.17832 0.73925 0.0
H23 H 0.09921 0.09248 0.96414 0.0
O24 O 0.45488 0.14594 0.02319 0.0
H25 H 0.29464 0.26536 0.21703 0.0
H26 H 0.47841 0.15043 0.18656 0.0
H27 H 0.49418 0.2422 0.20934 0.0
H28 H 0.40223 0.30211 0.22213 0.0
H29 H 0.279 0.17497 0.18618 0.0
H30 H 0.31952 0.93358 0.26692 0.0
H31 H 0.41 0.94908 0.33592 0.0
O32 O 0.45241 0.0951 0.10775 0.0
C33 C 0.35565 0.0276 0.01563 0.0
C34 C 0.44532 0.01509 0.28579 0.0
C35 C 0.35278 0.96533 0.25841 0.0
N36 N 0.38722 0.03822 0.19719 0.0
C37 C 0.43727 0.04628 0.23478 0.0
C38 C 0.34718 0.99651 0.20704 0.0
C39 C 0.40284 0.97438 0.29754 0.0
C40 C 0.22632 0.16099 0.01494 0.0
N41 N 0.27135 0.14333 0.97585 0.0
C42 C 0.16382 0.14352 0.01109 0.0
C43 C 0.14712 0.10729 0.96693 0.0
C44 C 0.19248 0.09055 0.92616 0.0
C45 C 0.25412 0.1094 0.93087 0.0
C46 C 0.34901 0.2087 0.82276 0.0
C47 C 0.41037 0.12366 0.87612 0.0
C48 C 0.34754 0.20049 0.88417 0.0
N49 N 0.3793 0.1593 0.91115 0.0
C50 C 0.41047 0.13017 0.81355 0.0
C51 C 0.381 0.17318 0.7872 0.0
C52 C 0.48247 0.12184 0.06813 0.0
C53 C 0.33484 0.23919 0.21295 0.0
C54 C 0.43656 0.17287 0.1956 0.0
C55 C 0.44659 0.22648 0.20771 0.0
C56 C 0.39526 0.26001 0.2151 0.0
N57 N 0.37673 0.15244 0.1883 0.0
C58 C 0.32636 0.18592 0.19785 0.0
Co59 Co 0.14122 0.85529 0.49623 0.0
Co60 Co 0.13973 0.91353 0.63647 0.0
O61 O 0.16592 0.86194 0.57874 0.0
C62 C 0.16972 0.73986 0.53357 0.0
O63 O 0.19102 0.75278 0.58644 0.0
C64 C 0.26467 0.91892 0.71676 0.0
O65 O 0.32569 0.91357 0.71071 0.0
O66 O 0.15268 0.97441 0.57392 0.0
O67 O 0.13771 0.93393 0.48476 0.0
H68 H 0.01742 0.98133 0.81532 0.0
H69 H 0.26364 0.81795 0.55232 0.0
O70 O 0.14196 0.77444 0.50148 0.0
H71 H 0.32138 0.94163 0.39242 0.0
H72 H 0.17891 0.76197 0.30269 0.0
H73 H 0.06867 0.91331 0.39602 0.0
H74 H 0.21352 0.91017 0.4009 0.0
H75 H 0.18602 0.77772 0.40906 0.0
O76 O 0.23203 0.91903 0.66718 0.0
H77 H 0.03056 0.92716 0.72611 0.0
H78 H 0.19413 0.01412 0.67685 0.0
H79 H 0.06765 0.89956 0.28433 0.0
H80 H 0.37335 0.84637 0.54327 0.0
H81 H 0.12038 0.8249 0.23926 0.0
H82 H 0.40323 0.91072 0.46415 0.0
O83 O 0.04755 0.85728 0.5232 0.0
H84 H 0.20777 0.73786 0.71704 0.0
H85 H 0.02401 0.8528 0.68657 0.0
H86 H 0.00823 0.76104 0.70936 0.0
H87 H 0.10018 0.70112 0.72215 0.0
H88 H 0.22342 0.82824 0.68618 0.0
H89 H 0.18293 0.06964 0.76692 0.0
H90 H 0.09244 0.05415 0.83591 0.0
O91 O 0.05002 0.90812 0.60776 0.0
C92 C 0.14679 0.97562 0.51564 0.0
C93 C 0.05711 0.98814 0.78579 0.0
C94 C 0.14966 0.03789 0.75841 0.0
N95 N 0.11522 0.965 0.6972 0.0
C96 C 0.06516 0.95696 0.73477 0.0
C97 C 0.15527 0.00671 0.70704 0.0
C98 C 0.0996 0.02885 0.79754 0.0
C99 C 0.27612 0.84222 0.51495 0.0
N100 N 0.23108 0.85988 0.47586 0.0
C101 C 0.33862 0.85969 0.5111 0.0
C102 C 0.35532 0.89591 0.46694 0.0
C103 C 0.30996 0.91265 0.42616 0.0
C104 C 0.24832 0.89381 0.43088 0.0
C105 C 0.15343 0.79451 0.32277 0.0
C106 C 0.09207 0.87955 0.37613 0.0
C107 C 0.15489 0.80272 0.38418 0.0
N108 N 0.12313 0.84392 0.41116 0.0
C109 C 0.09197 0.87304 0.31356 0.0
C110 C 0.12144 0.83003 0.28721 0.0
C111 C 0.01996 0.88138 0.56814 0.0
C112 C 0.16757 0.76403 0.71296 0.0
C113 C 0.06587 0.83036 0.69562 0.0
C114 C 0.05583 0.77675 0.70773 0.0
C115 C 0.10715 0.74321 0.71511 0.0
N116 N 0.1257 0.85078 0.68831 0.0
C117 C 0.17606 0.8173 0.69786 0.0
Co118 Co 0.36122 0.85528 0.00011 0.0
Co119 Co 0.3627 0.91352 0.85987 0.0
O120 O 0.33652 0.86193 0.91761 0.0
C121 C 0.33272 0.73986 0.96277 0.0
O122 O 0.31141 0.75278 0.9099 0.0
C123 C 0.23777 0.9189 0.77958 0.0
O124 O 0.17674 0.91359 0.78563 0.0
O125 O 0.34975 0.9744 0.92242 0.0
O126 O 0.36473 0.93393 0.01158 0.0
H127 H 0.48501 0.98131 0.68101 0.0
H128 H 0.2388 0.81795 0.94403 0.0
O129 O 0.36047 0.77443 0.99486 0.0
H130 H 0.18108 0.94164 0.10393 0.0
H131 H 0.32353 0.76197 0.19366 0.0
H132 H 0.43378 0.9133 0.10032 0.0
H133 H 0.28893 0.91017 0.09545 0.0
H134 H 0.31642 0.77771 0.08728 0.0
O135 O 0.2704 0.91902 0.82916 0.0
H136 H 0.47188 0.92715 0.77024 0.0
H137 H 0.30831 0.01411 0.81949 0.0
H138 H 0.4348 0.89955 0.21201 0.0
H139 H 0.12908 0.84637 0.95309 0.0
H140 H 0.38207 0.82488 0.25709 0.0
H141 H 0.09922 0.91073 0.0322 0.0
O142 O 0.45489 0.85727 0.97314 0.0
H143 H 0.29466 0.73785 0.77931 0.0
H144 H 0.47842 0.85279 0.80977 0.0
H145 H 0.4942 0.76102 0.78699 0.0
H146 H 0.40225 0.7011 0.77421 0.0
H147 H 0.27901 0.82823 0.81016 0.0
H148 H 0.31951 0.06962 0.72941 0.0
H149 H 0.40999 0.05413 0.66042 0.0
O150 O 0.45241 0.90811 0.88858 0.0
C151 C 0.35565 0.97561 0.9807 0.0
C152 C 0.44532 0.98813 0.71055 0.0
C153 C 0.35277 0.03788 0.73792 0.0
N154 N 0.38722 0.96499 0.79914 0.0
C155 C 0.43727 0.95694 0.76157 0.0
C156 C 0.34717 0.0067 0.7893 0.0
C157 C 0.40283 0.02883 0.69879 0.0
C158 C 0.22632 0.84222 0.9814 0.0
N159 N 0.27136 0.85988 0.02049 0.0
C160 C 0.16382 0.85969 0.98525 0.0
C161 C 0.14713 0.89592 0.02941 0.0
C162 C 0.19248 0.91266 0.07019 0.0
C163 C 0.25413 0.89381 0.06547 0.0
C164 C 0.34902 0.79451 0.17357 0.0
C165 C 0.41038 0.87954 0.12021 0.0
C166 C 0.34755 0.80271 0.11217 0.0
N167 N 0.37931 0.84391 0.08518 0.0
C168 C 0.41048 0.87303 0.18279 0.0
C169 C 0.38101 0.83002 0.20913 0.0
C170 C 0.48247 0.88137 0.9282 0.0
C171 C 0.33486 0.76402 0.78339 0.0
C172 C 0.43656 0.83035 0.80073 0.0
C173 C 0.4466 0.77674 0.78862 0.0
C174 C 0.39527 0.7432 0.78124 0.0
N175 N 0.37673 0.85077 0.80804 0.0
C176 C 0.32637 0.81729 0.79848 0.0
Co177 Co 0.14121 0.14793 0.5001 0.0
Co178 Co 0.13973 0.08969 0.35987 0.0
O179 O 0.16591 0.14128 0.4176 0.0
C180 C 0.16972 0.26336 0.46276 0.0
O181 O 0.19102 0.25043 0.40989 0.0
C182 C 0.26466 0.08431 0.27958 0.0
O183 O 0.32569 0.08964 0.28562 0.0
O184 O 0.15269 0.02881 0.42242 0.0
O185 O 0.13771 0.06929 0.51157 0.0
H186 H 0.01742 0.02187 0.18103 0.0
H187 H 0.26363 0.18527 0.44402 0.0
O188 O 0.14196 0.22878 0.49485 0.0
H189 H 0.32137 0.06159 0.60392 0.0
H190 H 0.1789 0.24125 0.69365 0.0
H191 H 0.06867 0.08991 0.60032 0.0
H192 H 0.21351 0.09305 0.59544 0.0
H193 H 0.18601 0.2255 0.58727 0.0
O194 O 0.23203 0.08419 0.32916 0.0
H195 H 0.03055 0.07604 0.27024 0.0
H196 H 0.19414 0.9891 0.31949 0.0
H197 H 0.06764 0.10366 0.712 0.0
H198 H 0.37335 0.15684 0.45307 0.0
H199 H 0.12037 0.17833 0.75708 0.0
H200 H 0.40322 0.0925 0.53219 0.0
O201 O 0.04755 0.14594 0.47313 0.0
H202 H 0.20776 0.26536 0.27931 0.0
H203 H 0.02401 0.1504 0.30975 0.0
H204 H 0.00822 0.24217 0.28697 0.0
H205 H 0.10016 0.3021 0.27419 0.0
H206 H 0.22342 0.17498 0.31016 0.0
H207 H 0.18295 0.93359 0.22941 0.0
H208 H 0.09245 0.94906 0.16043 0.0
O209 O 0.05002 0.09509 0.38858 0.0
C210 C 0.14679 0.0276 0.4807 0.0
C211 C 0.05711 0.01506 0.21056 0.0
C212 C 0.14968 0.96533 0.23792 0.0
N213 N 0.11522 0.03821 0.29914 0.0
C214 C 0.06516 0.04625 0.26157 0.0
C215 C 0.15527 0.99651 0.2893 0.0
C216 C 0.09961 0.97436 0.1988 0.0
C217 C 0.27611 0.161 0.48139 0.0
N218 N 0.23108 0.14334 0.52048 0.0
C219 C 0.33861 0.14353 0.48524 0.0
C220 C 0.35531 0.1073 0.5294 0.0
C221 C 0.30996 0.09057 0.57018 0.0
C222 C 0.24831 0.10941 0.56547 0.0
C223 C 0.15342 0.20871 0.67356 0.0
C224 C 0.09206 0.12367 0.62021 0.0
C225 C 0.15488 0.2005 0.61216 0.0
N226 N 0.12312 0.1593 0.58517 0.0
C227 C 0.09196 0.13018 0.68278 0.0
C228 C 0.12143 0.17319 0.70913 0.0
C229 C 0.01996 0.12184 0.4282 0.0
C230 C 0.16756 0.23919 0.28338 0.0
C231 C 0.06586 0.17285 0.30071 0.0
C232 C 0.05582 0.22646 0.2886 0.0
C233 C 0.10714 0.26 0.28123 0.0
N234 N 0.12569 0.15243 0.30803 0.0
C235 C 0.17605 0.18592 0.29848 0.0
Co236 Co 0.66835 0.9275 0.86531 0.0
Co237 Co 0.67074 0.85626 0.9922 0.0
O238 O 0.70676 0.8729 0.91426 0.0
C239 C 0.735 0.85384 0.77736 0.0
O240 O 0.75645 0.82334 0.81997 0.0
C241 C 0.80578 0.81063 0.00301 0.0
O242 O 0.82334 0.82259 0.94843 0.0
O243 O 0.6911 0.93278 0.01638 0.0
O244 O 0.64565 0.96974 0.93652 0.0
H245 H 0.52476 0.87038 0.16419 0.0
H246 H 0.80729 0.89733 0.86414 0.0
O247 O 0.69407 0.89012 0.78824 0.0
H248 H 0.8007 0.08901 0.90262 0.0
H249 H 0.65046 0.0673 0.70524 0.0
H250 H 0.54802 0.98092 0.87543 0.0
H251 H 0.70481 0.04207 0.87163 0.0
H252 H 0.70118 0.98999 0.75438 0.0
O253 O 0.75403 0.82838 0.02394 0.0
H254 H 0.58866 0.9088 0.08333 0.0
H255 H 0.68436 0.76174 0.06786 0.0
H256 H 0.49094 0.0446 0.81998 0.0
H257 H 0.90436 0.94335 0.89085 0.0
H258 H 0.54118 0.09138 0.73224 0.0
H259 H 0.90139 0.0396 0.91397 0.0
O260 O 0.58272 0.8889 0.87238 0.0
H261 H 0.6904 0.70218 0.85114 0.0
H262 H 0.55499 0.78747 0.00191 0.0
H263 H 0.51284 0.71374 0.94255 0.0
H264 H 0.57958 0.67186 0.86452 0.0
H265 H 0.73038 0.77565 0.91218 0.0
H266 H 0.616 0.72167 0.1437 0.0
H267 H 0.52776 0.77568 0.18554 0.0
O268 O 0.58399 0.88123 0.97136 0.0
C269 C 0.67523 0.97436 0.98527 0.0
C270 C 0.55817 0.84664 0.14199 0.0
C271 C 0.61045 0.76302 0.13169 0.0
N272 N 0.63843 0.83688 0.06941 0.0
C273 C 0.59609 0.86833 0.09774 0.0
C274 C 0.64985 0.78639 0.08953 0.0
C275 C 0.56193 0.79314 0.15569 0.0
C276 C 0.80508 0.93943 0.8697 0.0
N277 N 0.74902 0.96626 0.86512 0.0
C278 C 0.86068 0.96535 0.88643 0.0
C279 C 0.85897 0.0192 0.89974 0.0
C280 C 0.80253 0.0469 0.89331 0.0
C281 C 0.74841 0.02002 0.87432 0.0
C282 C 0.62632 0.04544 0.73951 0.0
C283 C 0.5698 0.99704 0.83595 0.0
C284 C 0.6556 0.00321 0.76886 0.0
N285 N 0.62782 0.98084 0.81769 0.0
C286 C 0.53733 0.03509 0.80461 0.0
C287 C 0.56555 0.06005 0.75598 0.0
C288 C 0.55363 0.88189 0.92279 0.0
C289 C 0.6605 0.72038 0.8846 0.0
C290 C 0.58581 0.76817 0.97017 0.0
C291 C 0.56106 0.72678 0.9359 0.0
C292 C 0.59836 0.70353 0.89194 0.0
N293 N 0.64619 0.78631 0.96112 0.0
C294 C 0.68363 0.76161 0.92011 0.0
Co295 Co 0.83408 0.07571 0.3653 0.0
Co296 Co 0.83169 0.14696 0.49219 0.0
O297 O 0.79567 0.13031 0.41426 0.0
C298 C 0.76744 0.14937 0.27735 0.0
O299 O 0.74599 0.17988 0.31996 0.0
C300 C 0.69666 0.19258 0.50301 0.0
O301 O 0.6791 0.18062 0.44843 0.0
O302 O 0.81134 0.07044 0.51638 0.0
O303 O 0.85678 0.03347 0.43652 0.0
H304 H 0.97769 0.13285 0.66418 0.0
H305 H 0.69515 0.10589 0.36413 0.0
O306 O 0.80836 0.11309 0.28823 0.0
H307 H 0.70172 0.91421 0.40264 0.0
H308 H 0.85196 0.93589 0.20525 0.0
H309 H 0.95441 0.02228 0.37542 0.0
H310 H 0.79761 0.96114 0.37163 0.0
H311 H 0.80124 0.01321 0.25438 0.0
O312 O 0.7484 0.17484 0.52394 0.0
H313 H 0.91378 0.09442 0.58332 0.0
H314 H 0.81807 0.24147 0.56785 0.0
H315 H 0.01148 0.9586 0.31998 0.0
H316 H 0.59807 0.05988 0.39085 0.0
H317 H 0.96123 0.9118 0.23226 0.0
H318 H 0.60104 0.96363 0.41399 0.0
O319 O 0.91972 0.1143 0.37237 0.0
H320 H 0.81203 0.30103 0.35113 0.0
H321 H 0.94745 0.21574 0.5019 0.0
H322 H 0.98959 0.28948 0.44254 0.0
H323 H 0.92284 0.33136 0.36451 0.0
H324 H 0.77205 0.22756 0.41218 0.0
H325 H 0.88643 0.28155 0.64368 0.0
H326 H 0.97468 0.22755 0.68552 0.0
O327 O 0.91844 0.12198 0.47135 0.0
C328 C 0.82721 0.02885 0.48527 0.0
C329 C 0.94427 0.15658 0.64198 0.0
C330 C 0.89198 0.2402 0.63167 0.0
N331 N 0.864 0.16633 0.5694 0.0
C332 C 0.90635 0.13489 0.59773 0.0
C333 C 0.85258 0.21683 0.58952 0.0
C334 C 0.94051 0.21009 0.65568 0.0
C335 C 0.69735 0.06378 0.3697 0.0
N336 N 0.75341 0.03695 0.36513 0.0
C337 C 0.64174 0.03787 0.38644 0.0
C338 C 0.64346 0.98402 0.39976 0.0
C339 C 0.69989 0.95632 0.39332 0.0
C340 C 0.75401 0.9832 0.37432 0.0
C341 C 0.8761 0.95775 0.23952 0.0
C342 C 0.93262 0.00616 0.33594 0.0
C343 C 0.84682 0.99999 0.26886 0.0
N344 N 0.87461 0.02236 0.31769 0.0
C345 C 0.96509 0.96811 0.30462 0.0
C346 C 0.93686 0.94314 0.25598 0.0
C347 C 0.94881 0.12132 0.42278 0.0
C348 C 0.84193 0.28284 0.38459 0.0
C349 C 0.91663 0.23504 0.47016 0.0
C350 C 0.94138 0.27643 0.43589 0.0
C351 C 0.90407 0.29969 0.39194 0.0
N352 N 0.85625 0.2169 0.46111 0.0
C353 C 0.8188 0.24161 0.4201 0.0
Co354 Co 0.66835 0.07571 0.13103 0.0
Co355 Co 0.67074 0.14695 0.00414 0.0
O356 O 0.70676 0.1303 0.08207 0.0
C357 C 0.73498 0.14938 0.21898 0.0
O358 O 0.75648 0.17986 0.17637 0.0
C359 C 0.80578 0.19257 0.99332 0.0
O360 O 0.82334 0.18062 0.0479 0.0
O361 O 0.69109 0.07043 0.97994 0.0
O362 O 0.64565 0.03347 0.05982 0.0
H363 H 0.52475 0.13284 0.83215 0.0
H364 H 0.80729 0.10587 0.1322 0.0
O365 O 0.69406 0.11309 0.20809 0.0
H366 H 0.80068 0.91419 0.09373 0.0
H367 H 0.65044 0.93593 0.29111 0.0
H368 H 0.54801 0.02229 0.12091 0.0
H369 H 0.70479 0.96114 0.12472 0.0
H370 H 0.70117 0.01323 0.24197 0.0
O371 O 0.75403 0.17483 0.97239 0.0
H372 H 0.58865 0.09442 0.913 0.0
H373 H 0.68436 0.24146 0.92848 0.0
H374 H 0.49092 0.95862 0.17637 0.0
H375 H 0.90435 0.05985 0.1055 0.0
H376 H 0.54116 0.91184 0.26411 0.0
H377 H 0.90137 0.9636 0.08238 0.0
O378 O 0.58271 0.11431 0.12395 0.0
H379 H 0.69041 0.30102 0.1452 0.0
H380 H 0.55499 0.21574 0.99443 0.0
H381 H 0.51285 0.28948 0.05379 0.0
H382 H 0.57959 0.33135 0.13182 0.0
H383 H 0.73038 0.22755 0.08415 0.0
H384 H 0.61601 0.28155 0.85264 0.0
H385 H 0.52776 0.22755 0.8108 0.0
O386 O 0.58399 0.12198 0.02497 0.0
C387 C 0.67523 0.02885 0.01107 0.0
C388 C 0.55816 0.15658 0.85435 0.0
C389 C 0.61046 0.24019 0.86465 0.0
N390 N 0.63843 0.16633 0.92693 0.0
C391 C 0.59608 0.13489 0.89859 0.0
C392 C 0.64985 0.21682 0.9068 0.0
C393 C 0.56193 0.21008 0.84064 0.0
C394 C 0.80507 0.06376 0.12664 0.0
N395 N 0.74901 0.03694 0.13122 0.0
C396 C 0.86068 0.03785 0.10991 0.0
C397 C 0.85896 0.98399 0.0966 0.0
C398 C 0.80251 0.9563 0.10304 0.0
C399 C 0.7484 0.98319 0.12203 0.0
C400 C 0.6263 0.95778 0.25683 0.0
C401 C 0.56979 0.00618 0.16039 0.0
C402 C 0.65558 1.0 0.22748 0.0
N403 N 0.62781 0.02237 0.17865 0.0
C404 C 0.53732 0.96813 0.19173 0.0
C405 C 0.56554 0.94317 0.24037 0.0
C406 C 0.55362 0.12132 0.07354 0.0
C407 C 0.66051 0.28282 0.11174 0.0
C408 C 0.58581 0.23504 0.02617 0.0
C409 C 0.56106 0.27643 0.06044 0.0
C410 C 0.59837 0.29968 0.1044 0.0
N411 N 0.64619 0.2169 0.03522 0.0
C412 C 0.68363 0.2416 0.07623 0.0
Co413 Co 0.83408 0.9275 0.63103 0.0
Co414 Co 0.83169 0.85626 0.50414 0.0
O415 O 0.79567 0.87291 0.58208 0.0
C416 C 0.76745 0.85384 0.71898 0.0
O417 O 0.74596 0.82335 0.67638 0.0
C418 C 0.69666 0.81064 0.49333 0.0
O419 O 0.6791 0.82259 0.54791 0.0
O420 O 0.81134 0.93278 0.47995 0.0
O421 O 0.85678 0.96974 0.55982 0.0
H422 H 0.9777 0.87035 0.33216 0.0
H423 H 0.69515 0.89734 0.63221 0.0
O424 O 0.80837 0.89012 0.7081 0.0
H425 H 0.70174 0.08902 0.59371 0.0
H426 H 0.85198 0.06731 0.7911 0.0
H427 H 0.95442 0.98093 0.62091 0.0
H428 H 0.79763 0.04208 0.62471 0.0
H429 H 0.80125 0.99 0.74196 0.0
O430 O 0.7484 0.82838 0.4724 0.0
H431 H 0.91379 0.90879 0.41301 0.0
H432 H 0.81807 0.76175 0.42849 0.0
H433 H 0.0115 0.04461 0.67636 0.0
H434 H 0.59808 0.94335 0.60549 0.0
H435 H 0.96125 0.09139 0.76409 0.0
H436 H 0.60105 0.0396 0.58236 0.0
O437 O 0.91972 0.88891 0.62396 0.0
H438 H 0.81202 0.70219 0.64521 0.0
H439 H 0.94745 0.78747 0.49444 0.0
H440 H 0.98958 0.71374 0.5538 0.0
H441 H 0.92284 0.67186 0.63183 0.0
H442 H 0.77205 0.77566 0.58416 0.0
H443 H 0.88642 0.72165 0.35266 0.0
H444 H 0.97468 0.77565 0.31082 0.0
O445 O 0.91844 0.88123 0.52498 0.0
C446 C 0.8272 0.97436 0.51107 0.0
C447 C 0.94428 0.84662 0.35436 0.0
C448 C 0.89198 0.76301 0.36466 0.0
N449 N 0.864 0.83688 0.42694 0.0
C450 C 0.90636 0.86832 0.3986 0.0
C451 C 0.85258 0.78639 0.40681 0.0
C452 C 0.94051 0.79312 0.34066 0.0
C453 C 0.69736 0.93944 0.62664 0.0
N454 N 0.75342 0.96627 0.63122 0.0
C455 C 0.64175 0.96535 0.60991 0.0
C456 C 0.64347 0.01921 0.59659 0.0
C457 C 0.69991 0.04691 0.60302 0.0
C458 C 0.75403 0.02002 0.62202 0.0
C459 C 0.87612 0.04545 0.75682 0.0
C460 C 0.93263 0.99705 0.66039 0.0
C461 C 0.84684 0.00322 0.72748 0.0
N462 N 0.87461 0.98085 0.67865 0.0
C463 C 0.9651 0.0351 0.69173 0.0
C464 C 0.93688 0.06007 0.74036 0.0
C465 C 0.94881 0.8819 0.57355 0.0
C466 C 0.84192 0.72039 0.61175 0.0
C467 C 0.91662 0.76817 0.52618 0.0
C468 C 0.94137 0.72679 0.56045 0.0
C469 C 0.90406 0.70353 0.6044 0.0
N470 N 0.85624 0.78632 0.53523 0.0
C471 C 0.8188 0.76162 0.57624 0.0
Co472 Co 0.86121 0.64792 0.99623 0.0
Co473 Co 0.8627 0.58969 0.13647 0.0
O474 O 0.83652 0.64127 0.07874 0.0
C475 C 0.83274 0.76335 0.03359 0.0
O476 O 0.81141 0.75044 0.08645 0.0
C477 C 0.73777 0.5843 0.21676 0.0
O478 O 0.67674 0.58964 0.21071 0.0
O479 O 0.84975 0.52881 0.07392 0.0
O480 O 0.86472 0.56928 0.98477 0.0
H481 H 0.98501 0.52188 0.31532 0.0
H482 H 0.7388 0.68527 0.05232 0.0
O483 O 0.86047 0.72877 0.00148 0.0
H484 H 0.68105 0.56158 0.89243 0.0
H485 H 0.82352 0.74124 0.80269 0.0
H486 H 0.93376 0.5899 0.89602 0.0
H487 H 0.78891 0.59304 0.9009 0.0
H488 H 0.81642 0.7255 0.90906 0.0
O489 O 0.7704 0.58418 0.16718 0.0
H490 H 0.97188 0.57604 0.2261 0.0
H491 H 0.8083 0.48909 0.17685 0.0
H492 H 0.93478 0.60365 0.78434 0.0
H493 H 0.62908 0.65685 0.04327 0.0
H494 H 0.88205 0.67832 0.73926 0.0
H495 H 0.59921 0.5925 0.96416 0.0
O496 O 0.95488 0.64594 0.0232 0.0
H497 H 0.79467 0.76535 0.21704 0.0
H498 H 0.97842 0.6504 0.18658 0.0
H499 H 0.9942 0.74217 0.20936 0.0
H500 H 0.90226 0.80209 0.22215 0.0
H501 H 0.77901 0.67497 0.18619 0.0
H502 H 0.8195 0.43357 0.26692 0.0
H503 H 0.90999 0.44905 0.33591 0.0
O504 O 0.95241 0.59509 0.10776 0.0
C505 C 0.85565 0.5276 0.01564 0.0
C506 C 0.94532 0.51506 0.28579 0.0
C507 C 0.85277 0.46532 0.25841 0.0
N508 N 0.88722 0.53821 0.19719 0.0
C509 C 0.93727 0.54625 0.23477 0.0
C510 C 0.84717 0.4965 0.20704 0.0
C511 C 0.90283 0.47436 0.29754 0.0
C512 C 0.72632 0.661 0.01495 0.0
N513 N 0.77135 0.64333 0.97586 0.0
C514 C 0.66382 0.64353 0.01111 0.0
C515 C 0.64712 0.6073 0.96695 0.0
C516 C 0.69247 0.59056 0.92617 0.0
C517 C 0.75411 0.6094 0.93088 0.0
C518 C 0.84901 0.7087 0.82277 0.0
C519 C 0.91036 0.62366 0.87613 0.0
C520 C 0.84754 0.70049 0.88418 0.0
N521 N 0.8793 0.6593 0.91116 0.0
C522 C 0.91046 0.63017 0.81356 0.0
C523 C 0.88099 0.67318 0.78721 0.0
C524 C 0.98247 0.62184 0.06814 0.0
C525 C 0.83486 0.73918 0.21297 0.0
C526 C 0.93657 0.67285 0.19562 0.0
C527 C 0.94661 0.72646 0.20773 0.0
C528 C 0.89528 0.76 0.21512 0.0
N529 N 0.87674 0.65243 0.18831 0.0
C530 C 0.82638 0.68591 0.19786 0.0
Co531 Co 0.64122 0.35529 0.49622 0.0
Co532 Co 0.63973 0.41352 0.63646 0.0
O533 O 0.66592 0.36194 0.57873 0.0
C534 C 0.6697 0.23986 0.53358 0.0
O535 O 0.69102 0.25277 0.58645 0.0
C536 C 0.76466 0.41892 0.71675 0.0
O537 O 0.82569 0.41358 0.71071 0.0
O538 O 0.65268 0.4744 0.57392 0.0
O539 O 0.63771 0.43393 0.48476 0.0
H540 H 0.51743 0.4813 0.81533 0.0
H541 H 0.76363 0.31794 0.5523 0.0
O542 O 0.64196 0.27444 0.50147 0.0
H543 H 0.82137 0.44165 0.39243 0.0
H544 H 0.67891 0.26198 0.30268 0.0
H545 H 0.56866 0.41331 0.39601 0.0
H546 H 0.71351 0.41018 0.4009 0.0
H547 H 0.68602 0.27772 0.40905 0.0
O548 O 0.73203 0.41903 0.66718 0.0
H549 H 0.53056 0.42714 0.72611 0.0
H550 H 0.69412 0.51412 0.67684 0.0
H551 H 0.56764 0.39956 0.28433 0.0
H552 H 0.87335 0.34636 0.54326 0.0
H553 H 0.62037 0.3249 0.23925 0.0
H554 H 0.90322 0.41072 0.46415 0.0
O555 O 0.54755 0.35727 0.52319 0.0
H556 H 0.70779 0.23786 0.71704 0.0
H557 H 0.52402 0.35279 0.68656 0.0
H558 H 0.50825 0.26102 0.70934 0.0
H559 H 0.6002 0.20111 0.72214 0.0
H560 H 0.72343 0.32824 0.68618 0.0
H561 H 0.68291 0.56963 0.76692 0.0
H562 H 0.59243 0.55414 0.83592 0.0
O563 O 0.55002 0.40812 0.60775 0.0
C564 C 0.64678 0.47562 0.51563 0.0
C565 C 0.55711 0.48812 0.78579 0.0
C566 C 0.64965 0.53788 0.75841 0.0
N567 N 0.61521 0.46499 0.69719 0.0
C568 C 0.56516 0.45694 0.73478 0.0
C569 C 0.65525 0.5067 0.70704 0.0
C570 C 0.5996 0.52884 0.79754 0.0
C571 C 0.77612 0.34221 0.51494 0.0
N572 N 0.73108 0.35988 0.47585 0.0
C573 C 0.83862 0.35969 0.51109 0.0
C574 C 0.85531 0.39592 0.46694 0.0
C575 C 0.80996 0.41266 0.42616 0.0
C576 C 0.74831 0.39382 0.43087 0.0
C577 C 0.65342 0.29452 0.32276 0.0
C578 C 0.59207 0.37955 0.37612 0.0
C579 C 0.65489 0.30272 0.38417 0.0
N580 N 0.62313 0.34392 0.41116 0.0
C581 C 0.59196 0.37304 0.31355 0.0
C582 C 0.62144 0.33003 0.2872 0.0
C583 C 0.51996 0.38137 0.56813 0.0
C584 C 0.66758 0.26403 0.71296 0.0
C585 C 0.56587 0.33035 0.69561 0.0
C586 C 0.55584 0.27674 0.70772 0.0
C587 C 0.60717 0.2432 0.7151 0.0
N588 N 0.6257 0.35078 0.6883 0.0
C589 C 0.67607 0.3173 0.69786 0.0
Co590 Co 0.86122 0.35528 0.0001 0.0
Co591 Co 0.8627 0.41353 0.85987 0.0
O592 O 0.83652 0.36194 0.9176 0.0
C593 C 0.83274 0.23986 0.96274 0.0
O594 O 0.81141 0.25276 0.90988 0.0
C595 C 0.73777 0.4189 0.77958 0.0
O596 O 0.67674 0.41358 0.78562 0.0
O597 O 0.84975 0.4744 0.92242 0.0
O598 O 0.86473 0.43392 0.01157 0.0
H599 H 0.98502 0.48135 0.68103 0.0
H600 H 0.7388 0.31794 0.94402 0.0
O601 O 0.86047 0.27443 0.99485 0.0
H602 H 0.68106 0.44162 0.10392 0.0
H603 H 0.82353 0.26196 0.19364 0.0
H604 H 0.93377 0.4133 0.10032 0.0
H605 H 0.78892 0.41016 0.09544 0.0
H606 H 0.81642 0.27771 0.08727 0.0
O607 O 0.7704 0.41902 0.82916 0.0
H608 H 0.97189 0.42718 0.77024 0.0
H609 H 0.80829 0.51411 0.81949 0.0
H610 H 0.93479 0.39955 0.212 0.0
H611 H 0.62909 0.34636 0.95307 0.0
H612 H 0.88206 0.32488 0.25708 0.0
H613 H 0.59921 0.41071 0.03218 0.0
O614 O 0.95489 0.35727 0.97313 0.0
H615 H 0.79468 0.23785 0.7793 0.0
H616 H 0.97843 0.35282 0.80975 0.0
H617 H 0.99422 0.26105 0.78697 0.0
H618 H 0.90228 0.20112 0.77419 0.0
H619 H 0.77902 0.32823 0.81015 0.0
H620 H 0.81948 0.56963 0.72941 0.0
H621 H 0.90998 0.55416 0.66043 0.0
O622 O 0.95241 0.40812 0.88858 0.0
C623 C 0.85564 0.47561 0.9807 0.0
C624 C 0.94532 0.48816 0.71056 0.0
C625 C 0.85276 0.53789 0.73792 0.0
N626 N 0.88721 0.46501 0.79914 0.0
C627 C 0.93727 0.45697 0.76157 0.0
C628 C 0.84716 0.50671 0.7893 0.0
C629 C 0.90282 0.52885 0.6988 0.0
C630 C 0.72632 0.34221 0.98139 0.0
N631 N 0.77135 0.35987 0.02047 0.0
C632 C 0.66382 0.35968 0.98523 0.0
C633 C 0.64712 0.3959 0.02939 0.0
C634 C 0.69247 0.41265 0.07017 0.0
C635 C 0.75412 0.3938 0.06546 0.0
C636 C 0.84902 0.2945 0.17356 0.0
C637 C 0.91037 0.37954 0.12021 0.0
C638 C 0.84755 0.30271 0.11215 0.0
N639 N 0.87931 0.34391 0.08517 0.0
C640 C 0.91047 0.37303 0.18278 0.0
C641 C 0.881 0.33002 0.20912 0.0
C642 C 0.98247 0.38137 0.9282 0.0
C643 C 0.83488 0.26403 0.78337 0.0
C644 C 0.93657 0.33037 0.80071 0.0
C645 C 0.94662 0.27676 0.7886 0.0
C646 C 0.8953 0.24322 0.78122 0.0
N647 N 0.87674 0.35079 0.80803 0.0
C648 C 0.82638 0.3173 0.79847 0.0
Co649 Co 0.64121 0.64793 0.50011 0.0
Co650 Co 0.63973 0.58969 0.35987 0.0
O651 O 0.66591 0.64128 0.41761 0.0
C652 C 0.6697 0.76336 0.46275 0.0
O653 O 0.69103 0.75045 0.40989 0.0
C654 C 0.76466 0.58431 0.27958 0.0
O655 O 0.82569 0.58962 0.28563 0.0
O656 O 0.65268 0.52881 0.42242 0.0
O657 O 0.6377 0.56929 0.51158 0.0
H658 H 0.51742 0.52189 0.18102 0.0
H659 H 0.76363 0.68527 0.44403 0.0
O660 O 0.64196 0.72878 0.49486 0.0
H661 H 0.82136 0.56158 0.60392 0.0
H662 H 0.6789 0.74125 0.69365 0.0
H663 H 0.56866 0.58992 0.60032 0.0
H664 H 0.7135 0.59304 0.59544 0.0
H665 H 0.68601 0.7255 0.58728 0.0
O666 O 0.73203 0.58419 0.32916 0.0
H667 H 0.53055 0.57606 0.27024 0.0
H668 H 0.69413 0.4891 0.31949 0.0
H669 H 0.56763 0.60367 0.71201 0.0
H670 H 0.87335 0.65685 0.45308 0.0
H671 H 0.62036 0.67833 0.75708 0.0
H672 H 0.90321 0.59249 0.53219 0.0
O673 O 0.54754 0.64595 0.47314 0.0
H674 H 0.70777 0.76536 0.27931 0.0
H675 H 0.52401 0.65042 0.30977 0.0
H676 H 0.50823 0.74218 0.28699 0.0
H677 H 0.60018 0.80211 0.2742 0.0
H678 H 0.72342 0.67498 0.31016 0.0
H679 H 0.68293 0.43359 0.22941 0.0
H680 H 0.59244 0.44907 0.16042 0.0
O681 O 0.55002 0.5951 0.38858 0.0
C682 C 0.64678 0.5276 0.4807 0.0
C683 C 0.55711 0.51508 0.21055 0.0
C684 C 0.64966 0.46533 0.23792 0.0
N685 N 0.61521 0.53822 0.29915 0.0
C686 C 0.56516 0.54626 0.26157 0.0
C687 C 0.65526 0.49651 0.2893 0.0
C688 C 0.5996 0.47438 0.1988 0.0
C689 C 0.77611 0.661 0.4814 0.0
N690 N 0.73108 0.64334 0.52048 0.0
C691 C 0.83861 0.64353 0.48525 0.0
C692 C 0.85531 0.6073 0.5294 0.0
C693 C 0.80995 0.59056 0.57018 0.0
C694 C 0.74831 0.60941 0.56547 0.0
C695 C 0.65341 0.70871 0.67357 0.0
C696 C 0.59206 0.62367 0.62021 0.0
C697 C 0.65488 0.7005 0.61216 0.0
N698 N 0.62312 0.6593 0.58518 0.0
C699 C 0.59195 0.63018 0.68278 0.0
C700 C 0.62143 0.67319 0.70913 0.0
C701 C 0.51996 0.62185 0.4282 0.0
C702 C 0.66757 0.73919 0.28338 0.0
C703 C 0.56587 0.67286 0.30073 0.0
C704 C 0.55583 0.72647 0.28861 0.0
C705 C 0.60716 0.76001 0.28123 0.0
N706 N 0.6257 0.65244 0.30804 0.0
C707 C 0.67606 0.68592 0.29848 0.0
Co708 Co 0.16836 0.4275 0.8653 0.0
Co709 Co 0.17074 0.35625 0.99219 0.0
O710 O 0.20676 0.3729 0.91425 0.0
C711 C 0.235 0.35384 0.77735 0.0
O712 O 0.25644 0.32333 0.81996 0.0
C713 C 0.30579 0.31066 0.003 0.0
O714 O 0.32335 0.32258 0.94842 0.0
O715 O 0.1911 0.43278 0.01638 0.0
O716 O 0.14565 0.46974 0.93652 0.0
H717 H 0.02474 0.37036 0.16418 0.0
H718 H 0.30729 0.39732 0.86412 0.0
O719 O 0.19407 0.39012 0.78823 0.0
H720 H 0.30071 0.589 0.90264 0.0
H721 H 0.15048 0.56732 0.70525 0.0
H722 H 0.04802 0.48093 0.87542 0.0
H723 H 0.20482 0.54207 0.87163 0.0
H724 H 0.20119 0.49 0.75438 0.0
O725 O 0.25403 0.32838 0.02393 0.0
H726 H 0.08865 0.40879 0.08332 0.0
H727 H 0.18437 0.26174 0.06785 0.0
H728 H 0.99096 0.54462 0.81998 0.0
H729 H 0.40436 0.44333 0.89085 0.0
H730 H 0.04121 0.59141 0.73226 0.0
H731 H 0.4014 0.53958 0.91399 0.0
O732 O 0.08271 0.38891 0.87237 0.0
H733 H 0.19042 0.20218 0.85114 0.0
H734 H 0.05499 0.28747 0.00189 0.0
H735 H 0.01285 0.21373 0.94253 0.0
H736 H 0.0796 0.17186 0.86451 0.0
H737 H 0.23039 0.27565 0.91218 0.0
H738 H 0.11601 0.22166 0.14368 0.0
H739 H 0.02776 0.27565 0.18552 0.0
O740 O 0.08399 0.38123 0.97135 0.0
C741 C 0.17523 0.47436 0.98527 0.0
C742 C 0.05816 0.34662 0.14198 0.0
C743 C 0.11046 0.26301 0.13167 0.0
N744 N 0.13843 0.33688 0.0694 0.0
C745 C 0.09608 0.36832 0.09773 0.0
C746 C 0.14985 0.28639 0.08952 0.0
C747 C 0.06193 0.29312 0.15568 0.0
C748 C 0.30508 0.43943 0.8697 0.0
N749 N 0.24902 0.46626 0.86512 0.0
C750 C 0.36069 0.46534 0.88643 0.0
C751 C 0.35898 0.51919 0.89976 0.0
C752 C 0.30254 0.54689 0.89332 0.0
C753 C 0.24842 0.52001 0.87432 0.0
C754 C 0.12633 0.54546 0.73953 0.0
C755 C 0.06981 0.49705 0.83594 0.0
C756 C 0.15561 0.50323 0.76886 0.0
N757 N 0.12783 0.48085 0.81769 0.0
C758 C 0.03735 0.53511 0.80462 0.0
C759 C 0.06557 0.56008 0.75599 0.0
C760 C 0.05362 0.3819 0.92278 0.0
C761 C 0.16051 0.22038 0.88459 0.0
C762 C 0.08581 0.26817 0.97015 0.0
C763 C 0.06106 0.22678 0.93589 0.0
C764 C 0.09837 0.20353 0.89193 0.0
N765 N 0.14619 0.28631 0.96111 0.0
C766 C 0.18363 0.26161 0.9201 0.0
Co767 Co 0.33408 0.57572 0.36531 0.0
Co768 Co 0.33169 0.64696 0.4922 0.0
O769 O 0.29567 0.63031 0.41426 0.0
C770 C 0.26743 0.64937 0.27736 0.0
O771 O 0.24598 0.67988 0.31997 0.0
C772 C 0.19664 0.69255 0.50301 0.0
O773 O 0.17908 0.68063 0.44843 0.0
O774 O 0.31133 0.57044 0.51638 0.0
O775 O 0.35678 0.53348 0.43652 0.0
H776 H 0.47768 0.63284 0.66419 0.0
H777 H 0.19514 0.60588 0.36413 0.0
O778 O 0.30836 0.61309 0.28824 0.0
H779 H 0.20173 0.4142 0.40262 0.0
H780 H 0.35197 0.43591 0.20524 0.0
H781 H 0.45442 0.52229 0.37543 0.0
H782 H 0.29762 0.46114 0.37163 0.0
H783 H 0.30125 0.51322 0.25438 0.0
O784 O 0.2484 0.67484 0.52394 0.0
H785 H 0.41377 0.59442 0.58333 0.0
H786 H 0.31807 0.74147 0.56786 0.0
H787 H 0.51149 0.45861 0.31998 0.0
H788 H 0.09807 0.55987 0.39084 0.0
H789 H 0.46125 0.41183 0.23224 0.0
H790 H 0.10105 0.46362 0.41396 0.0
O791 O 0.41972 0.61431 0.37238 0.0
H792 H 0.31202 0.80103 0.35114 0.0
H793 H 0.44744 0.71575 0.50191 0.0
H794 H 0.48959 0.78948 0.44254 0.0
H795 H 0.42284 0.83135 0.36452 0.0
H796 H 0.27205 0.72756 0.41219 0.0
H797 H 0.38642 0.78155 0.6437 0.0
H798 H 0.47467 0.72754 0.68554 0.0
O799 O 0.41844 0.62199 0.47136 0.0
C800 C 0.32721 0.52885 0.48527 0.0
C801 C 0.44426 0.65658 0.64199 0.0
C802 C 0.39198 0.74019 0.63169 0.0
N803 N 0.364 0.66633 0.56941 0.0
C804 C 0.40634 0.63489 0.59774 0.0
C805 C 0.35258 0.71682 0.58953 0.0
C806 C 0.4405 0.71008 0.65569 0.0
C807 C 0.19735 0.56378 0.3697 0.0
N808 N 0.25341 0.53695 0.36512 0.0
C809 C 0.14175 0.53787 0.38643 0.0
C810 C 0.14346 0.48401 0.39974 0.0
C811 C 0.1999 0.45631 0.39331 0.0
C812 C 0.25402 0.4832 0.37432 0.0
C813 C 0.37611 0.45777 0.23952 0.0
C814 C 0.43263 0.50617 0.33595 0.0
C815 C 0.34683 0.5 0.26886 0.0
N816 N 0.37461 0.52237 0.31769 0.0
C817 C 0.4651 0.46812 0.30461 0.0
C818 C 0.43688 0.44315 0.25598 0.0
C819 C 0.44881 0.62132 0.42279 0.0
C820 C 0.34192 0.78283 0.3846 0.0
C821 C 0.41662 0.73504 0.47017 0.0
C822 C 0.44137 0.77643 0.4359 0.0
C823 C 0.40407 0.79968 0.39194 0.0
N824 N 0.35624 0.7169 0.46112 0.0
C825 C 0.3188 0.7416 0.42011 0.0
Co826 Co 0.16835 0.57571 0.13103 0.0
Co827 Co 0.17074 0.64695 0.00414 0.0
O828 O 0.20676 0.6303 0.08208 0.0
C829 C 0.23498 0.64938 0.21898 0.0
O830 O 0.25647 0.67987 0.17638 0.0
C831 C 0.30579 0.69255 0.99333 0.0
O832 O 0.32335 0.68062 0.04792 0.0
O833 O 0.19109 0.57043 0.97995 0.0
O834 O 0.14565 0.53347 0.05982 0.0
H835 H 0.02473 0.63287 0.83216 0.0
H836 H 0.30729 0.60588 0.13221 0.0
O837 O 0.19406 0.61309 0.2081 0.0
H838 H 0.30069 0.4142 0.09371 0.0
H839 H 0.15046 0.4359 0.2911 0.0
H840 H 0.04801 0.52228 0.12091 0.0
H841 H 0.20481 0.46114 0.12471 0.0
H842 H 0.20118 0.51321 0.24196 0.0
O843 O 0.25404 0.67483 0.9724 0.0
H844 H 0.08864 0.59443 0.91301 0.0
H845 H 0.18437 0.74146 0.92849 0.0
H846 H 0.99094 0.4586 0.17636 0.0
H847 H 0.40436 0.55986 0.10549 0.0
H848 H 0.04119 0.41181 0.26409 0.0
H849 H 0.40138 0.46361 0.08236 0.0
O850 O 0.08271 0.6143 0.12396 0.0
H851 H 0.19042 0.80102 0.1452 0.0
H852 H 0.05499 0.71575 0.99444 0.0
H853 H 0.01285 0.78948 0.05381 0.0
H854 H 0.07961 0.83135 0.13183 0.0
H855 H 0.23039 0.72755 0.08415 0.0
H856 H 0.11602 0.78156 0.85266 0.0
H857 H 0.02776 0.72757 0.81082 0.0
O858 O 0.08399 0.62198 0.02498 0.0
C859 C 0.17523 0.52885 0.01107 0.0
C860 C 0.05815 0.6566 0.85436 0.0
C861 C 0.11046 0.7402 0.86466 0.0
N862 N 0.13843 0.66633 0.92694 0.0
C863 C 0.09608 0.6349 0.8986 0.0
C864 C 0.14986 0.71683 0.90681 0.0
C865 C 0.06193 0.7101 0.84066 0.0
C866 C 0.30508 0.56377 0.12664 0.0
N867 N 0.24902 0.53694 0.13122 0.0
C868 C 0.36068 0.53786 0.10991 0.0
C869 C 0.35897 0.484 0.09659 0.0
C870 C 0.30253 0.4563 0.10302 0.0
C871 C 0.24841 0.48319 0.12202 0.0
C872 C 0.12632 0.45776 0.25682 0.0
C873 C 0.0698 0.50616 0.16039 0.0
C874 C 0.1556 0.49999 0.22748 0.0
N875 N 0.12782 0.52236 0.17865 0.0
C876 C 0.03733 0.46811 0.19172 0.0
C877 C 0.06555 0.44314 0.24036 0.0
C878 C 0.05362 0.62131 0.07355 0.0
C879 C 0.16052 0.78283 0.11175 0.0
C880 C 0.08581 0.73504 0.02618 0.0
C881 C 0.06107 0.77643 0.06045 0.0
C882 C 0.09838 0.79968 0.1044 0.0
N883 N 0.14619 0.7169 0.03523 0.0
C884 C 0.18364 0.7416 0.07623 0.0
Co885 Co 0.33408 0.4275 0.63103 0.0
Co886 Co 0.33169 0.35626 0.50414 0.0
O887 O 0.29567 0.37291 0.58207 0.0
C888 C 0.26745 0.35383 0.71898 0.0
O889 O 0.24596 0.32335 0.67637 0.0
C890 C 0.19664 0.31066 0.49332 0.0
O891 O 0.17908 0.32259 0.54791 0.0
O892 O 0.31134 0.43278 0.47994 0.0
O893 O 0.35679 0.46974 0.55982 0.0
H894 H 0.47769 0.37036 0.33215 0.0
H895 H 0.19515 0.39734 0.6322 0.0
O896 O 0.30837 0.39012 0.70809 0.0
H897 H 0.20175 0.58902 0.59373 0.0
H898 H 0.35199 0.56729 0.79111 0.0
H899 H 0.45442 0.48092 0.6209 0.0
H900 H 0.29764 0.54207 0.62472 0.0
H901 H 0.30126 0.48999 0.74197 0.0
O902 O 0.2484 0.32838 0.47239 0.0
H903 H 0.41378 0.40879 0.413 0.0
H904 H 0.31806 0.26175 0.42848 0.0
H905 H 0.51151 0.54459 0.67636 0.0
H906 H 0.09808 0.44336 0.6055 0.0
H907 H 0.46127 0.59137 0.7641 0.0
H908 H 0.10106 0.53961 0.58238 0.0
O909 O 0.41972 0.3889 0.62395 0.0
H910 H 0.31202 0.2022 0.6452 0.0
H911 H 0.44744 0.28747 0.49443 0.0
H912 H 0.48958 0.21374 0.5538 0.0
H913 H 0.42283 0.17187 0.63182 0.0
H914 H 0.27204 0.27567 0.58415 0.0
H915 H 0.38641 0.22166 0.35264 0.0
H916 H 0.47467 0.27566 0.3108 0.0
O917 O 0.41844 0.38123 0.52497 0.0
C918 C 0.3272 0.47436 0.51107 0.0
C919 C 0.44427 0.34663 0.35435 0.0
C920 C 0.39197 0.26302 0.36465 0.0
N921 N 0.364 0.33688 0.42693 0.0
C922 C 0.40635 0.36832 0.39859 0.0
C923 C 0.35258 0.28639 0.4068 0.0
C924 C 0.4405 0.29313 0.34064 0.0
C925 C 0.19736 0.43945 0.62664 0.0
N926 N 0.25342 0.46627 0.63122 0.0
C927 C 0.14175 0.46536 0.60992 0.0
C928 C 0.14347 0.51922 0.5966 0.0
C929 C 0.19992 0.54691 0.60304 0.0
C930 C 0.25403 0.52002 0.62203 0.0
C931 C 0.37613 0.54544 0.75683 0.0
C932 C 0.43264 0.49704 0.66039 0.0
C933 C 0.34685 0.50321 0.72748 0.0
N934 N 0.37462 0.48084 0.67865 0.0
C935 C 0.46511 0.53508 0.69173 0.0
C936 C 0.4369 0.56005 0.74037 0.0
C937 C 0.44881 0.38189 0.57354 0.0
C938 C 0.34192 0.22039 0.61174 0.0
C939 C 0.41662 0.26817 0.52617 0.0
C940 C 0.44137 0.22679 0.56044 0.0
C941 C 0.40406 0.20353 0.6044 0.0
N942 N 0.35624 0.28632 0.53522 0.0
C943 C 0.3188 0.26162 0.57623 0.0
loop_
_geom_bond_atom_site_label_1
_geom_bond_atom_site_label_2
_geom_bond_distance
_geom_bond_site_symmetry_2
_ccdc_geom_bond_type
Co0 O2 2.143 . S
Co0 O8 2.074 . S
Co0 O11 2.093 1_554 S
Co0 O24 2.097 . S
Co0 N41 2.151 1_554 S
Co0 N49 2.214 1_554 S
Co1 O2 2.160 . S
Co1 O7 2.058 . S
Co1 O17 2.057 . S
Co1 O32 2.037 . S
Co1 N36 2.145 . S
Co1 N57 2.257 . S
O2 Co0 2.143 . S
O2 Co1 2.160 . S
C3 O4 1.278 . S
C3 O11 1.224 1_554 S
O4 C3 1.278 . S
C5 O6 1.245 . S
C5 O17 1.232 . S
O6 C5 1.245 . S
O7 Co1 2.058 . S
O7 C33 1.269 . S
O8 Co0 2.074 . S
O8 C33 1.257 . S
H9 C34 0.930 . S
H10 C40 0.930 1_554 S
O11 Co0 2.093 1_556 S
O11 C3 1.224 1_556 S
H12 C44 0.929 . S
H13 C46 0.930 . S
H14 C47 0.930 . S
H15 C45 0.929 . S
H16 C48 0.928 . S
O17 Co1 2.057 . S
O17 C5 1.232 . S
H18 C37 0.929 . S
H19 C38 0.929 . S
H20 C50 0.931 . S
H21 C42 0.929 . S
H22 C51 0.930 . S
H23 C43 0.931 . S
O24 Co0 2.097 . S
O24 C52 1.214 . S
H25 C53 0.929 . S
H26 C54 0.929 . S
H27 C55 0.930 . S
H28 C56 0.929 . S
H29 C58 0.930 . S
H30 C35 0.930 1_565 S
H31 C39 0.930 . S
O32 Co1 2.037 . S
O32 C52 1.234 . S
C33 O7 1.269 . S
C33 O8 1.257 . S
C34 H9 0.930 . S
C34 C37 1.388 1_565 S
C34 C39 1.418 . S
C35 H30 0.930 1_545 S
C35 C38 1.404 . S
C35 C39 1.353 1_545 S
N36 Co1 2.145 . S
N36 C37 1.397 . S
N36 C38 1.334 . S
C37 H18 0.929 . S
C37 C34 1.388 1_545 S
C37 N36 1.397 . S
C38 H19 0.929 . S
C38 C35 1.404 . S
C38 N36 1.334 . S
C39 H31 0.930 . S
C39 C34 1.418 . S
C39 C35 1.353 1_565 S
C40 H10 0.930 1_556 S
C40 N41 1.330 . S
C40 C42 1.446 . S
N41 Co0 2.151 1_556 S
N41 C40 1.330 . S
N41 C45 1.418 . S
C42 H21 0.929 . S
C42 C40 1.446 . S
C42 C43 1.332 . S
C43 H23 0.931 . S
C43 C42 1.332 . S
C43 C44 1.267 . S
C44 H12 0.929 . S
C44 C43 1.267 . S
C44 C45 1.251 . S
C45 H15 0.929 . S
C45 N41 1.418 . S
C45 C44 1.251 . S
C46 H13 0.930 . S
C46 C48 1.406 . S
C46 C51 1.261 . S
C47 H14 0.930 . S
C47 N49 1.325 . S
C47 C50 1.357 . S
C48 H16 0.928 . S
C48 C46 1.406 . S
C48 N49 1.261 . S
N49 Co0 2.214 1_556 S
N49 C47 1.325 . S
N49 C48 1.261 . S
C50 H20 0.931 . S
C50 C47 1.357 . S
C50 C51 1.312 . S
C51 H22 0.930 . S
C51 C46 1.261 . S
C51 C50 1.312 . S
C52 O24 1.214 . S
C52 O32 1.234 . S
C53 H25 0.929 . S
C53 C56 1.391 . S
C53 C58 1.391 . S
C54 H26 0.929 . S
C54 C55 1.390 . S
C54 N57 1.391 . S
C55 H27 0.930 . S
C55 C54 1.390 . S
C55 C56 1.392 . S
C56 H28 0.929 . S
C56 C53 1.391 . S
C56 C55 1.392 . S
N57 Co1 2.257 . S
N57 C54 1.391 . S
N57 C58 1.388 . S
C58 H29 0.930 . S
C58 C53 1.391 . S
C58 N57 1.388 . S
Co59 O61 2.143 . S
Co59 O67 2.074 . S
Co59 O70 2.093 . S
Co59 O83 2.097 . S
Co59 N100 2.151 . S
Co59 N108 2.214 . S
Co60 O61 2.160 . S
Co60 O66 2.058 . S
Co60 O76 2.057 . S
Co60 O91 2.037 . S
Co60 N95 2.145 . S
Co60 N116 2.257 . S
O61 Co59 2.143 . S
O61 Co60 2.160 . S
C62 O63 1.278 . S
C62 O70 1.224 . S
O63 C62 1.278 . S
C64 O65 1.245 . S
C64 O76 1.232 . S
O65 C64 1.245 . S
O66 Co60 2.058 . S
O66 C92 1.269 . S
O67 Co59 2.074 . S
O67 C92 1.257 . S
H68 C93 0.930 . S
H69 C99 0.930 . S
O70 Co59 2.093 . S
O70 C62 1.224 . S
H71 C103 0.929 . S
H72 C105 0.930 . S
H73 C106 0.930 . S
H74 C104 0.929 . S
H75 C107 0.928 . S
O76 Co60 2.057 . S
O76 C64 1.232 . S
H77 C96 0.933 . S
H78 C97 0.929 . S
H79 C109 0.931 1_655 S
H80 C101 0.929 . S
H81 C110 0.930 . S
H82 C102 0.931 . S
O83 Co59 2.097 . S
O83 C111 1.214 . S
H84 C112 0.929 . S
H85 C113 0.929 1_655 S
H86 C114 0.926 1_655 S
H87 C115 0.929 . S
H88 C117 0.930 . S
H89 C94 0.930 1_545 S
H90 C98 0.930 . S
O91 Co60 2.037 . S
O91 C111 1.234 . S
C92 O66 1.269 . S
C92 O67 1.257 . S
C93 H68 0.930 . S
C93 C96 1.394 1_545 S
C93 C98 1.418 . S
C94 H89 0.930 1_565 S
C94 C97 1.404 . S
C94 C98 1.353 1_465 S
N95 Co60 2.145 . S
N95 C96 1.387 1_455 S
N95 C97 1.334 . S
C96 H77 0.933 . S
C96 C93 1.394 1_565 S
C96 N95 1.387 1_655 S
C97 H78 0.929 . S
C97 C94 1.404 . S
C97 N95 1.334 . S
C98 H90 0.930 . S
C98 C93 1.418 . S
C98 C94 1.353 1_645 S
C99 H69 0.930 . S
C99 N100 1.330 . S
C99 C101 1.446 . S
N100 Co59 2.151 . S
N100 C99 1.330 . S
N100 C104 1.418 . S
C101 H80 0.929 . S
C101 C99 1.446 . S
C101 C102 1.332 . S
C102 H82 0.931 . S
C102 C101 1.332 . S
C102 C103 1.267 . S
C103 H71 0.929 . S
C103 C102 1.267 . S
C103 C104 1.251 . S
C104 H74 0.929 . S
C104 N100 1.418 . S
C104 C103 1.251 . S
C105 H72 0.930 . S
C105 C107 1.406 . S
C105 C110 1.261 . S
C106 H73 0.930 . S
C106 N108 1.325 . S
C106 C109 1.357 . S
C107 H75 0.928 . S
C107 C105 1.406 . S
C107 N108 1.261 . S
N108 Co59 2.214 . S
N108 C106 1.325 . S
N108 C107 1.261 . S
C109 H79 0.931 1_455 S
C109 C106 1.357 . S
C109 C110 1.312 . S
C110 H81 0.930 . S
C110 C105 1.261 . S
C110 C109 1.312 . S
C111 O83 1.214 . S
C111 O91 1.234 . S
C112 H84 0.929 . S
C112 C115 1.391 . S
C112 C117 1.391 . S
C113 H85 0.929 1_455 S
C113 C114 1.391 . S
C113 N116 1.391 . S
C114 H86 0.926 1_455 S
C114 C113 1.391 . S
C114 C115 1.395 . S
C115 H87 0.929 . S
C115 C112 1.391 . S
C115 C114 1.395 . S
N116 Co60 2.257 . S
N116 C113 1.391 . S
N116 C117 1.388 . S
C117 H88 0.930 . S
C117 C112 1.391 . S
C117 N116 1.388 . S
Co118 O120 2.143 . S
Co118 O126 2.074 . S
Co118 O129 2.093 1_556 S
Co118 O142 2.097 . S
Co118 N159 2.151 1_556 S
Co118 N167 2.214 1_556 S
Co119 O120 2.160 . S
Co119 O125 2.058 . S
Co119 O135 2.057 . S
Co119 O150 2.037 . S
Co119 N154 2.145 . S
Co119 N175 2.257 . S
O120 Co118 2.143 . S
O120 Co119 2.160 . S
C121 O122 1.278 . S
C121 O129 1.224 1_556 S
O122 C121 1.278 . S
C123 O124 1.245 . S
C123 O135 1.232 . S
O124 C123 1.245 . S
O125 Co119 2.058 . S
O125 C151 1.269 . S
O126 Co118 2.074 . S
O126 C151 1.257 . S
H127 C152 0.930 . S
H128 C158 0.930 1_556 S
O129 Co118 2.093 1_554 S
O129 C121 1.224 1_554 S
H130 C162 0.929 . S
H131 C164 0.930 . S
H132 C165 0.930 . S
H133 C163 0.929 . S
H134 C166 0.928 . S
O135 Co119 2.057 . S
O135 C123 1.232 . S
H136 C155 0.929 . S
H137 C156 0.929 . S
H138 C168 0.931 . S
H139 C160 0.929 . S
H140 C169 0.930 . S
H141 C161 0.931 . S
O142 Co118 2.097 . S
O142 C170 1.214 . S
H143 C171 0.929 . S
H144 C172 0.929 . S
H145 C173 0.930 . S
H146 C174 0.929 . S
H147 C176 0.930 . S
H148 C153 0.930 1_545 S
H149 C157 0.930 . S
O150 Co119 2.037 . S
O150 C170 1.234 . S
C151 O125 1.269 . S
C151 O126 1.257 . S
C152 H127 0.930 . S
C152 C155 1.388 1_545 S
C152 C157 1.418 . S
C153 H148 0.930 1_565 S
C153 C156 1.404 . S
C153 C157 1.353 1_565 S
N154 Co119 2.145 . S
N154 C155 1.397 . S
N154 C156 1.334 . S
C155 H136 0.929 . S
C155 C152 1.388 1_565 S
C155 N154 1.397 . S
C156 H137 0.929 . S
C156 C153 1.404 . S
C156 N154 1.334 . S
C157 H149 0.930 . S
C157 C152 1.418 . S
C157 C153 1.353 1_545 S
C158 H128 0.930 1_554 S
C158 N159 1.330 . S
C158 C160 1.446 . S
N159 Co118 2.151 1_554 S
N159 C158 1.330 . S
N159 C163 1.418 . S
C160 H139 0.929 . S
C160 C158 1.446 . S
C160 C161 1.332 . S
C161 H141 0.931 . S
C161 C160 1.332 . S
C161 C162 1.267 . S
C162 H130 0.929 . S
C162 C161 1.267 . S
C162 C163 1.251 . S
C163 H133 0.929 . S
C163 N159 1.418 . S
C163 C162 1.251 . S
C164 H131 0.930 . S
C164 C166 1.406 . S
C164 C169 1.261 . S
C165 H132 0.930 . S
C165 N167 1.325 . S
C165 C168 1.357 . S
C166 H134 0.928 . S
C166 C164 1.406 . S
C166 N167 1.261 . S
N167 Co118 2.214 1_554 S
N167 C165 1.325 . S
N167 C166 1.261 . S
C168 H138 0.931 . S
C168 C165 1.357 . S
C168 C169 1.312 . S
C169 H140 0.930 . S
C169 C164 1.261 . S
C169 C168 1.312 . S
C170 O142 1.214 . S
C170 O150 1.234 . S
C171 H143 0.929 . S
C171 C174 1.391 . S
C171 C176 1.391 . S
C172 H144 0.929 . S
C172 C173 1.390 . S
C172 N175 1.391 . S
C173 H145 0.930 . S
C173 C172 1.390 . S
C173 C174 1.392 . S
C174 H146 0.929 . S
C174 C171 1.391 . S
C174 C173 1.392 . S
N175 Co119 2.257 . S
N175 C172 1.391 . S
N175 C176 1.388 . S
C176 H147 0.930 . S
C176 C171 1.391 . S
C176 N175 1.388 . S
Co177 O179 2.143 . S
Co177 O185 2.074 . S
Co177 O188 2.093 . S
Co177 O201 2.097 . S
Co177 N218 2.151 . S
Co177 N226 2.214 . S
Co178 O179 2.160 . S
Co178 O184 2.058 . S
Co178 O194 2.057 . S
Co178 O209 2.037 . S
Co178 N213 2.145 . S
Co178 N234 2.257 . S
O179 Co177 2.143 . S
O179 Co178 2.160 . S
C180 O181 1.278 . S
C180 O188 1.224 . S
O181 C180 1.278 . S
C182 O183 1.245 . S
C182 O194 1.232 . S
O183 C182 1.245 . S
O184 Co178 2.058 . S
O184 C210 1.269 . S
O185 Co177 2.074 . S
O185 C210 1.257 . S
H186 C211 0.930 . S
H187 C217 0.930 . S
O188 Co177 2.093 . S
O188 C180 1.224 . S
H189 C221 0.929 . S
H190 C223 0.930 . S
H191 C224 0.930 . S
H192 C222 0.929 . S
H193 C225 0.928 . S
O194 Co178 2.057 . S
O194 C182 1.232 . S
H195 C214 0.933 . S
H196 C215 0.929 . S
H197 C227 0.931 1_655 S
H198 C219 0.929 . S
H199 C228 0.930 . S
H200 C220 0.931 . S
O201 Co177 2.097 . S
O201 C229 1.214 . S
H202 C230 0.929 . S
H203 C231 0.929 1_655 S
H204 C232 0.926 1_655 S
H205 C233 0.929 . S
H206 C235 0.930 . S
H207 C212 0.930 1_565 S
H208 C216 0.930 . S
O209 Co178 2.037 . S
O209 C229 1.234 . S
C210 O184 1.269 . S
C210 O185 1.257 . S
C211 H186 0.930 . S
C211 C214 1.394 1_565 S
C211 C216 1.418 . S
C212 H207 0.930 1_545 S
C212 C215 1.404 . S
C212 C216 1.353 1_445 S
N213 Co178 2.145 . S
N213 C214 1.387 1_455 S
N213 C215 1.334 . S
C214 H195 0.933 . S
C214 C211 1.394 1_545 S
C214 N213 1.387 1_655 S
C215 H196 0.929 . S
C215 C212 1.404 . S
C215 N213 1.334 . S
C216 H208 0.930 . S
C216 C211 1.418 . S
C216 C212 1.353 1_665 S
C217 H187 0.930 . S
C217 N218 1.330 . S
C217 C219 1.446 . S
N218 Co177 2.151 . S
N218 C217 1.330 . S
N218 C222 1.418 . S
C219 H198 0.929 . S
C219 C217 1.446 . S
C219 C220 1.332 . S
C220 H200 0.931 . S
C220 C219 1.332 . S
C220 C221 1.267 . S
C221 H189 0.929 . S
C221 C220 1.267 . S
C221 C222 1.251 . S
C222 H192 0.929 . S
C222 N218 1.418 . S
C222 C221 1.251 . S
C223 H190 0.930 . S
C223 C225 1.406 . S
C223 C228 1.261 . S
C224 H191 0.930 . S
C224 N226 1.325 . S
C224 C227 1.357 . S
C225 H193 0.928 . S
C225 C223 1.406 . S
C225 N226 1.261 . S
N226 Co177 2.214 . S
N226 C224 1.325 . S
N226 C225 1.261 . S
C227 H197 0.931 1_455 S
C227 C224 1.357 . S
C227 C228 1.312 . S
C228 H199 0.930 . S
C228 C223 1.261 . S
C228 C227 1.312 . S
C229 O201 1.214 . S
C229 O209 1.234 . S
C230 H202 0.929 . S
C230 C233 1.391 . S
C230 C235 1.391 . S
C231 H203 0.929 1_455 S
C231 C232 1.391 . S
C231 N234 1.391 . S
C232 H204 0.926 1_455 S
C232 C231 1.391 . S
C232 C233 1.395 . S
C233 H205 0.929 . S
C233 C230 1.391 . S
C233 C232 1.395 . S
N234 Co178 2.257 . S
N234 C231 1.391 . S
N234 C235 1.388 . S
C235 H206 0.930 . S
C235 C230 1.391 . S
C235 N234 1.388 . S
Co236 O238 2.143 . S
Co236 O244 2.074 . S
Co236 O247 2.093 . S
Co236 O260 2.097 . S
Co236 N277 2.151 . S
Co236 N285 2.214 1_565 S
Co237 O238 2.160 . S
Co237 O243 2.058 1_556 S
Co237 O253 2.057 1_556 S
Co237 O268 2.037 . S
Co237 N272 2.145 1_556 S
Co237 N293 2.257 . S
O238 Co236 2.143 . S
O238 Co237 2.160 . S
C239 O240 1.278 . S
C239 O247 1.224 . S
O240 C239 1.278 . S
C241 O242 1.237 1_554 S
C241 O253 1.235 . S
O242 C241 1.237 1_556 S
O243 Co237 2.058 1_554 S
O243 C269 1.269 . S
O244 Co236 2.074 . S
O244 C269 1.257 1_556 S
H245 C270 0.930 . S
H246 C276 0.930 . S
O247 Co236 2.093 . S
O247 C239 1.224 . S
H248 C280 0.929 . S
H249 C282 0.930 . S
H250 C283 0.930 . S
H251 C281 0.929 . S
H252 C284 0.928 . S
O253 Co237 2.057 1_554 S
O253 C241 1.235 . S
H254 C273 0.929 . S
H255 C274 0.929 . S
H256 C286 0.931 . S
H257 C278 0.929 . S
H258 C287 0.930 . S
H259 C279 0.931 . S
O260 Co236 2.097 . S
O260 C288 1.214 . S
H261 C289 0.929 . S
H262 C290 0.929 . S
H263 C291 0.930 . S
H264 C292 0.929 . S
H265 C294 0.930 . S
H266 C271 0.930 . S
H267 C275 0.930 . S
O268 Co237 2.037 . S
O268 C288 1.234 . S
C269 O243 1.269 . S
C269 O244 1.257 1_554 S
C270 H245 0.930 . S
C270 C273 1.388 . S
C270 C275 1.418 . S
C271 H266 0.930 . S
C271 C274 1.404 . S
C271 C275 1.353 . S
N272 Co237 2.145 1_554 S
N272 C273 1.397 . S
N272 C274 1.334 . S
C273 H254 0.929 . S
C273 C270 1.388 . S
C273 N272 1.397 . S
C274 H255 0.929 . S
C274 C271 1.404 . S
C274 N272 1.334 . S
C275 H267 0.930 . S
C275 C270 1.418 . S
C275 C271 1.353 . S
C276 H246 0.930 . S
C276 N277 1.330 . S
C276 C278 1.446 . S
N277 Co236 2.151 . S
N277 C276 1.330 . S
N277 C281 1.418 1_565 S
C278 H257 0.929 . S
C278 C276 1.446 . S
C278 C279 1.332 1_565 S
C279 H259 0.931 . S
C279 C278 1.332 1_545 S
C279 C280 1.267 . S
C280 H248 0.929 . S
C280 C279 1.267 . S
C280 C281 1.251 . S
C281 H251 0.929 . S
C281 N277 1.418 1_545 S
C281 C280 1.251 . S
C282 H249 0.930 . S
C282 C284 1.406 . S
C282 C287 1.261 . S
C283 H250 0.930 . S
C283 N285 1.325 . S
C283 C286 1.357 . S
C284 H252 0.928 . S
C284 C282 1.406 . S
C284 N285 1.261 . S
N285 Co236 2.214 1_545 S
N285 C283 1.325 . S
N285 C284 1.261 . S
C286 H256 0.931 . S
C286 C283 1.357 . S
C286 C287 1.312 . S
C287 H258 0.930 . S
C287 C282 1.261 . S
C287 C286 1.312 . S
C288 O260 1.214 . S
C288 O268 1.234 . S
C289 H261 0.929 . S
C289 C292 1.391 . S
C289 C294 1.391 . S
C290 H262 0.929 . S
C290 C291 1.390 . S
C290 N293 1.391 . S
C291 H263 0.930 . S
C291 C290 1.390 . S
C291 C292 1.392 . S
C292 H264 0.929 . S
C292 C289 1.391 . S
C292 C291 1.392 . S
N293 Co237 2.257 . S
N293 C290 1.391 . S
N293 C294 1.388 . S
C294 H265 0.930 . S
C294 C289 1.391 . S
C294 N293 1.388 . S
Co295 O297 2.143 . S
Co295 O303 2.074 . S
Co295 O306 2.093 . S
Co295 O319 2.097 . S
Co295 N336 2.151 . S
Co295 N344 2.214 1_545 S
Co296 O297 2.160 . S
Co296 O302 2.058 . S
Co296 O312 2.057 . S
Co296 O327 2.037 . S
Co296 N331 2.145 . S
Co296 N352 2.257 . S
O297 Co295 2.143 . S
O297 Co296 2.160 . S
C298 O299 1.278 . S
C298 O306 1.224 . S
O299 C298 1.278 . S
C300 O301 1.245 . S
C300 O312 1.232 . S
O301 C300 1.245 . S
O302 Co296 2.058 . S
O302 C328 1.269 . S
O303 Co295 2.074 . S
O303 C328 1.257 . S
H304 C329 0.930 1_455 S
H305 C335 0.930 . S
O306 Co295 2.093 . S
O306 C298 1.224 . S
H307 C339 0.929 . S
H308 C341 0.930 . S
H309 C342 0.930 . S
H310 C340 0.929 . S
H311 C343 0.928 . S
O312 Co296 2.057 . S
O312 C300 1.232 . S
H313 C332 0.929 . S
H314 C333 0.929 . S
H315 C345 0.931 . S
H316 C337 0.929 . S
H317 C346 0.930 . S
H318 C338 0.931 . S
O319 Co295 2.097 . S
O319 C347 1.214 . S
H320 C348 0.929 . S
H321 C349 0.929 . S
H322 C350 0.930 . S
H323 C351 0.929 . S
H324 C353 0.930 . S
H325 C330 0.930 . S
H326 C334 0.930 . S
O327 Co296 2.037 . S
O327 C347 1.234 . S
C328 O302 1.269 . S
C328 O303 1.257 . S
C329 H304 0.930 1_655 S
C329 C332 1.388 . S
C329 C334 1.418 . S
C330 H325 0.930 . S
C330 C333 1.404 . S
C330 C334 1.353 . S
N331 Co296 2.145 . S
N331 C332 1.397 . S
N331 C333 1.334 . S
C332 H313 0.929 . S
C332 C329 1.388 . S
C332 N331 1.397 . S
C333 H314 0.929 . S
C333 C330 1.404 . S
C333 N331 1.334 . S
C334 H326 0.930 . S
C334 C329 1.418 . S
C334 C330 1.353 . S
C335 H305 0.930 . S
C335 N336 1.330 . S
C335 C337 1.446 . S
N336 Co295 2.151 . S
N336 C335 1.330 . S
N336 C340 1.418 1_545 S
C337 H316 0.929 . S
C337 C335 1.446 . S
C337 C338 1.332 1_545 S
C338 H318 0.931 . S
C338 C337 1.332 1_565 S
C338 C339 1.267 . S
C339 H307 0.929 . S
C339 C338 1.267 . S
C339 C340 1.251 . S
C340 H310 0.929 . S
C340 N336 1.418 1_565 S
C340 C339 1.251 . S
C341 H308 0.930 . S
C341 C343 1.406 . S
C341 C346 1.261 . S
C342 H309 0.930 . S
C342 N344 1.325 . S
C342 C345 1.357 . S
C343 H311 0.928 . S
C343 C341 1.406 . S
C343 N344 1.261 . S
N344 Co295 2.214 1_565 S
N344 C342 1.325 . S
N344 C343 1.261 . S
C345 H315 0.931 . S
C345 C342 1.357 . S
C345 C346 1.312 . S
C346 H317 0.930 . S
C346 C341 1.261 . S
C346 C345 1.312 . S
C347 O319 1.214 . S
C347 O327 1.234 . S
C348 H320 0.929 . S
C348 C351 1.391 . S
C348 C353 1.391 . S
C349 H321 0.929 . S
C349 C350 1.390 . S
C349 N352 1.391 . S
C350 H322 0.930 . S
C350 C349 1.390 . S
C350 C351 1.392 . S
C351 H323 0.929 . S
C351 C348 1.391 . S
C351 C350 1.392 . S
N352 Co296 2.257 . S
N352 C349 1.391 . S
N352 C353 1.388 . S
C353 H324 0.930 . S
C353 C348 1.391 . S
C353 N352 1.388 . S
Co354 O356 2.143 . S
Co354 O362 2.074 . S
Co354 O365 2.093 . S
Co354 O378 2.097 . S
Co354 N395 2.151 . S
Co354 N403 2.214 1_545 S
Co355 O356 2.160 . S
Co355 O361 2.058 1_554 S
Co355 O371 2.057 1_554 S
Co355 O386 2.037 . S
Co355 N390 2.145 1_554 S
Co355 N411 2.257 . S
O356 Co354 2.143 . S
O356 Co355 2.160 . S
C357 O358 1.278 . S
C357 O365 1.224 . S
O358 C357 1.278 . S
C359 O360 1.237 1_556 S
C359 O371 1.235 . S
O360 C359 1.237 1_554 S
O361 Co355 2.058 1_556 S
O361 C387 1.269 . S
O362 Co354 2.074 . S
O362 C387 1.257 1_554 S
H363 C388 0.930 . S
H364 C394 0.930 . S
O365 Co354 2.093 . S
O365 C357 1.224 . S
H366 C398 0.929 . S
H367 C400 0.930 . S
H368 C401 0.930 . S
H369 C399 0.929 . S
H370 C402 0.928 . S
O371 Co355 2.057 1_556 S
O371 C359 1.235 . S
H372 C391 0.929 . S
H373 C392 0.929 . S
H374 C404 0.931 . S
H375 C396 0.929 . S
H376 C405 0.930 . S
H377 C397 0.931 . S
O378 Co354 2.097 . S
O378 C406 1.214 . S
H379 C407 0.929 . S
H380 C408 0.929 . S
H381 C409 0.930 . S
H382 C410 0.929 . S
H383 C412 0.930 . S
H384 C389 0.930 . S
H385 C393 0.930 . S
O386 Co355 2.037 . S
O386 C406 1.234 . S
C387 O361 1.269 . S
C387 O362 1.257 1_556 S
C388 H363 0.930 . S
C388 C391 1.388 . S
C388 C393 1.418 . S
C389 H384 0.930 . S
C389 C392 1.404 . S
C389 C393 1.353 . S
N390 Co355 2.145 1_556 S
N390 C391 1.397 . S
N390 C392 1.334 . S
C391 H372 0.929 . S
C391 C388 1.388 . S
C391 N390 1.397 . S
C392 H373 0.929 . S
C392 C389 1.404 . S
C392 N390 1.334 . S
C393 H385 0.930 . S
C393 C388 1.418 . S
C393 C389 1.353 . S
C394 H364 0.930 . S
C394 N395 1.330 . S
C394 C396 1.446 . S
N395 Co354 2.151 . S
N395 C394 1.330 . S
N395 C399 1.418 1_545 S
C396 H375 0.929 . S
C396 C394 1.446 . S
C396 C397 1.332 1_545 S
C397 H377 0.931 . S
C397 C396 1.332 1_565 S
C397 C398 1.267 . S
C398 H366 0.929 . S
C398 C397 1.267 . S
C398 C399 1.251 . S
C399 H369 0.929 . S
C399 N395 1.418 1_565 S
C399 C398 1.251 . S
C400 H367 0.930 . S
C400 C402 1.406 . S
C400 C405 1.261 . S
C401 H368 0.930 . S
C401 N403 1.325 . S
C401 C404 1.357 . S
C402 H370 0.928 . S
C402 C400 1.406 . S
C402 N403 1.261 . S
N403 Co354 2.214 1_565 S
N403 C401 1.325 . S
N403 C402 1.261 . S
C404 H374 0.931 . S
C404 C401 1.357 . S
C404 C405 1.312 . S
C405 H376 0.930 . S
C405 C400 1.261 . S
C405 C404 1.312 . S
C406 O378 1.214 . S
C406 O386 1.234 . S
C407 H379 0.929 . S
C407 C410 1.391 . S
C407 C412 1.391 . S
C408 H380 0.929 . S
C408 C409 1.390 . S
C408 N411 1.391 . S
C409 H381 0.930 . S
C409 C408 1.390 . S
C409 C410 1.392 . S
C410 H382 0.929 . S
C410 C407 1.391 . S
C410 C409 1.392 . S
N411 Co355 2.257 . S
N411 C408 1.391 . S
N411 C412 1.388 . S
C412 H383 0.930 . S
C412 C407 1.391 . S
C412 N411 1.388 . S
Co413 O415 2.143 . S
Co413 O421 2.074 . S
Co413 O424 2.093 . S
Co413 O437 2.097 . S
Co413 N454 2.151 . S
Co413 N462 2.214 1_565 S
Co414 O415 2.160 . S
Co414 O420 2.058 . S
Co414 O430 2.057 . S
Co414 O445 2.037 . S
Co414 N449 2.145 . S
Co414 N470 2.257 . S
O415 Co413 2.143 . S
O415 Co414 2.160 . S
C416 O417 1.278 . S
C416 O424 1.224 . S
O417 C416 1.278 . S
C418 O419 1.245 . S
C418 O430 1.232 . S
O419 C418 1.245 . S
O420 Co414 2.058 . S
O420 C446 1.269 . S
O421 Co413 2.074 . S
O421 C446 1.257 . S
H422 C447 0.930 1_455 S
H423 C453 0.930 . S
O424 Co413 2.093 . S
O424 C416 1.224 . S
H425 C457 0.929 . S
H426 C459 0.930 . S
H427 C460 0.930 . S
H428 C458 0.929 . S
H429 C461 0.928 . S
O430 Co414 2.057 . S
O430 C418 1.232 . S
H431 C450 0.929 . S
H432 C451 0.929 . S
H433 C463 0.931 . S
H434 C455 0.929 . S
H435 C464 0.930 . S
H436 C456 0.931 . S
O437 Co413 2.097 . S
O437 C465 1.214 . S
H438 C466 0.929 . S
H439 C467 0.929 . S
H440 C468 0.930 . S
H441 C469 0.929 . S
H442 C471 0.930 . S
H443 C448 0.930 . S
H444 C452 0.930 . S
O445 Co414 2.037 . S
O445 C465 1.234 . S
C446 O420 1.269 . S
C446 O421 1.257 . S
C447 H422 0.930 1_655 S
C447 C450 1.388 . S
C447 C452 1.418 . S
C448 H443 0.930 . S
C448 C451 1.404 . S
C448 C452 1.353 . S
N449 Co414 2.145 . S
N449 C450 1.397 . S
N449 C451 1.334 . S
C450 H431 0.929 . S
C450 C447 1.388 . S
C450 N449 1.397 . S
C451 H432 0.929 . S
C451 C448 1.404 . S
C451 N449 1.334 . S
C452 H444 0.930 . S
C452 C447 1.418 . S
C452 C448 1.353 . S
C453 H423 0.930 . S
C453 N454 1.330 . S
C453 C455 1.446 . S
N454 Co413 2.151 . S
N454 C453 1.330 . S
N454 C458 1.418 1_565 S
C455 H434 0.929 . S
C455 C453 1.446 . S
C455 C456 1.332 1_565 S
C456 H436 0.931 . S
C456 C455 1.332 1_545 S
C456 C457 1.267 . S
C457 H425 0.929 . S
C457 C456 1.267 . S
C457 C458 1.251 . S
C458 H428 0.929 . S
C458 N454 1.418 1_545 S
C458 C457 1.251 . S
C459 H426 0.930 . S
C459 C461 1.406 . S
C459 C464 1.261 . S
C460 H427 0.930 . S
C460 N462 1.325 . S
C460 C463 1.357 . S
C461 H429 0.928 . S
C461 C459 1.406 . S
C461 N462 1.261 . S
N462 Co413 2.214 1_545 S
N462 C460 1.325 . S
N462 C461 1.261 . S
C463 H433 0.931 . S
C463 C460 1.357 . S
C463 C464 1.312 . S
C464 H435 0.930 . S
C464 C459 1.261 . S
C464 C463 1.312 . S
C465 O437 1.214 . S
C465 O445 1.234 . S
C466 H438 0.929 . S
C466 C469 1.391 . S
C466 C471 1.391 . S
C467 H439 0.929 . S
C467 C468 1.390 . S
C467 N470 1.391 . S
C468 H440 0.930 . S
C468 C467 1.390 . S
C468 C469 1.392 . S
C469 H441 0.929 . S
C469 C466 1.391 . S
C469 C468 1.392 . S
N470 Co414 2.257 . S
N470 C467 1.391 . S
N470 C471 1.388 . S
C471 H442 0.930 . S
C471 C466 1.391 . S
C471 N470 1.388 . S
Co472 O474 2.143 . S
Co472 O480 2.074 . S
Co472 O483 2.093 1_554 S
Co472 O496 2.097 . S
Co472 N513 2.151 1_554 S
Co472 N521 2.214 1_554 S
Co473 O474 2.160 . S
Co473 O479 2.058 . S
Co473 O489 2.057 . S
Co473 O504 2.037 . S
Co473 N508 2.145 . S
Co473 N529 2.257 . S
O474 Co472 2.143 . S
O474 Co473 2.160 . S
C475 O476 1.278 . S
C475 O483 1.224 1_554 S
O476 C475 1.278 . S
C477 O478 1.245 . S
C477 O489 1.232 . S
O478 C477 1.245 . S
O479 Co473 2.058 . S
O479 C505 1.269 . S
O480 Co472 2.074 . S
O480 C505 1.257 . S
H481 C506 0.930 . S
H482 C512 0.930 1_554 S
O483 Co472 2.093 1_556 S
O483 C475 1.224 1_556 S
H484 C516 0.929 . S
H485 C518 0.930 . S
H486 C519 0.930 . S
H487 C517 0.929 . S
H488 C520 0.928 . S
O489 Co473 2.057 . S
O489 C477 1.232 . S
H490 C509 0.933 . S
H491 C510 0.929 . S
H492 C522 0.931 1_455 S
H493 C514 0.929 . S
H494 C523 0.930 . S
H495 C515 0.931 . S
O496 Co472 2.097 . S
O496 C524 1.214 . S
H497 C525 0.929 . S
H498 C526 0.929 1_455 S
H499 C527 0.926 1_455 S
H500 C528 0.929 . S
H501 C530 0.930 . S
H502 C507 0.930 . S
H503 C511 0.930 . S
O504 Co473 2.037 . S
O504 C524 1.234 . S
C505 O479 1.269 . S
C505 O480 1.257 . S
C506 H481 0.930 . S
C506 C509 1.394 . S
C506 C511 1.418 . S
C507 H502 0.930 . S
C507 C510 1.404 . S
C507 C511 1.353 1_655 S
N508 Co473 2.145 . S
N508 C509 1.387 1_655 S
N508 C510 1.334 . S
C509 H490 0.933 . S
C509 C506 1.394 . S
C509 N508 1.387 1_455 S
C510 H491 0.929 . S
C510 C507 1.404 . S
C510 N508 1.334 . S
C511 H503 0.930 . S
C511 C506 1.418 . S
C511 C507 1.353 1_455 S
C512 H482 0.930 1_556 S
C512 N513 1.330 . S
C512 C514 1.446 . S
N513 Co472 2.151 1_556 S
N513 C512 1.330 . S
N513 C517 1.418 . S
C514 H493 0.929 . S
C514 C512 1.446 . S
C514 C515 1.332 . S
C515 H495 0.931 . S
C515 C514 1.332 . S
C515 C516 1.267 . S
C516 H484 0.929 . S
C516 C515 1.267 . S
C516 C517 1.251 . S
C517 H487 0.929 . S
C517 N513 1.418 . S
C517 C516 1.251 . S
C518 H485 0.930 . S
C518 C520 1.406 . S
C518 C523 1.261 . S
C519 H486 0.930 . S
C519 N521 1.325 . S
C519 C522 1.357 . S
C520 H488 0.928 . S
C520 C518 1.406 . S
C520 N521 1.261 . S
N521 Co472 2.214 1_556 S
N521 C519 1.325 . S
N521 C520 1.261 . S
C522 H492 0.931 1_655 S
C522 C519 1.357 . S
C522 C523 1.312 . S
C523 H494 0.930 . S
C523 C518 1.261 . S
C523 C522 1.312 . S
C524 O496 1.214 . S
C524 O504 1.234 . S
C525 H497 0.929 . S
C525 C528 1.391 . S
C525 C530 1.391 . S
C526 H498 0.929 1_655 S
C526 C527 1.391 . S
C526 N529 1.391 . S
C527 H499 0.926 1_655 S
C527 C526 1.391 . S
C527 C528 1.395 . S
C528 H500 0.929 . S
C528 C525 1.391 . S
C528 C527 1.395 . S
N529 Co473 2.257 . S
N529 C526 1.391 . S
N529 C530 1.388 . S
C530 H501 0.930 . S
C530 C525 1.391 . S
C530 N529 1.388 . S
Co531 O533 2.143 . S
Co531 O539 2.074 . S
Co531 O542 2.093 . S
Co531 O555 2.097 . S
Co531 N572 2.151 . S
Co531 N580 2.214 . S
Co532 O533 2.160 . S
Co532 O538 2.058 . S
Co532 O548 2.057 . S
Co532 O563 2.037 . S
Co532 N567 2.145 . S
Co532 N588 2.257 . S
O533 Co531 2.143 . S
O533 Co532 2.160 . S
C534 O535 1.278 . S
C534 O542 1.224 . S
O535 C534 1.278 . S
C536 O537 1.245 . S
C536 O548 1.232 . S
O537 C536 1.245 . S
O538 Co532 2.058 . S
O538 C564 1.269 . S
O539 Co531 2.074 . S
O539 C564 1.257 . S
H540 C565 0.930 . S
H541 C571 0.930 . S
O542 Co531 2.093 . S
O542 C534 1.224 . S
H543 C575 0.929 . S
H544 C577 0.930 . S
H545 C578 0.930 . S
H546 C576 0.929 . S
H547 C579 0.928 . S
O548 Co532 2.057 . S
O548 C536 1.232 . S
H549 C568 0.929 . S
H550 C569 0.929 . S
H551 C581 0.931 . S
H552 C573 0.929 . S
H553 C582 0.930 . S
H554 C574 0.931 . S
O555 Co531 2.097 . S
O555 C583 1.214 . S
H556 C584 0.929 . S
H557 C585 0.929 . S
H558 C586 0.930 . S
H559 C587 0.929 . S
H560 C589 0.930 . S
H561 C566 0.930 . S
H562 C570 0.930 . S
O563 Co532 2.037 . S
O563 C583 1.234 . S
C564 O538 1.269 . S
C564 O539 1.257 . S
C565 H540 0.930 . S
C565 C568 1.388 . S
C565 C570 1.418 . S
C566 H561 0.930 . S
C566 C569 1.404 . S
C566 C570 1.353 . S
N567 Co532 2.145 . S
N567 C568 1.397 . S
N567 C569 1.334 . S
C568 H549 0.929 . S
C568 C565 1.388 . S
C568 N567 1.397 . S
C569 H550 0.929 . S
C569 C566 1.404 . S
C569 N567 1.334 . S
C570 H562 0.930 . S
C570 C565 1.418 . S
C570 C566 1.353 . S
C571 H541 0.930 . S
C571 N572 1.330 . S
C571 C573 1.446 . S
N572 Co531 2.151 . S
N572 C571 1.330 . S
N572 C576 1.418 . S
C573 H552 0.929 . S
C573 C571 1.446 . S
C573 C574 1.332 . S
C574 H554 0.931 . S
C574 C573 1.332 . S
C574 C575 1.267 . S
C575 H543 0.929 . S
C575 C574 1.267 . S
C575 C576 1.251 . S
C576 H546 0.929 . S
C576 N572 1.418 . S
C576 C575 1.251 . S
C577 H544 0.930 . S
C577 C579 1.406 . S
C577 C582 1.261 . S
C578 H545 0.930 . S
C578 N580 1.325 . S
C578 C581 1.357 . S
C579 H547 0.928 . S
C579 C577 1.406 . S
C579 N580 1.261 . S
N580 Co531 2.214 . S
N580 C578 1.325 . S
N580 C579 1.261 . S
C581 H551 0.931 . S
C581 C578 1.357 . S
C581 C582 1.312 . S
C582 H553 0.930 . S
C582 C577 1.261 . S
C582 C581 1.312 . S
C583 O555 1.214 . S
C583 O563 1.234 . S
C584 H556 0.929 . S
C584 C587 1.391 . S
C584 C589 1.391 . S
C585 H557 0.929 . S
C585 C586 1.390 . S
C585 N588 1.391 . S
C586 H558 0.930 . S
C586 C585 1.390 . S
C586 C587 1.392 . S
C587 H559 0.929 . S
C587 C584 1.391 . S
C587 C586 1.392 . S
N588 Co532 2.257 . S
N588 C585 1.391 . S
N588 C589 1.388 . S
C589 H560 0.930 . S
C589 C584 1.391 . S
C589 N588 1.388 . S
Co590 O592 2.143 . S
Co590 O598 2.074 . S
Co590 O601 2.093 1_556 S
Co590 O614 2.097 . S
Co590 N631 2.151 1_556 S
Co590 N639 2.214 1_556 S
Co591 O592 2.160 . S
Co591 O597 2.058 . S
Co591 O607 2.057 . S
Co591 O622 2.037 . S
Co591 N626 2.145 . S
Co591 N647 2.257 . S
O592 Co590 2.143 . S
O592 Co591 2.160 . S
C593 O594 1.278 . S
C593 O601 1.224 1_556 S
O594 C593 1.278 . S
C595 O596 1.245 . S
C595 O607 1.232 . S
O596 C595 1.245 . S
O597 Co591 2.058 . S
O597 C623 1.269 . S
O598 Co590 2.074 . S
O598 C623 1.257 . S
H599 C624 0.930 . S
H600 C630 0.930 1_556 S
O601 Co590 2.093 1_554 S
O601 C593 1.224 1_554 S
H602 C634 0.929 . S
H603 C636 0.930 . S
H604 C637 0.930 . S
H605 C635 0.929 . S
H606 C638 0.928 . S
O607 Co591 2.057 . S
O607 C595 1.232 . S
H608 C627 0.933 . S
H609 C628 0.929 . S
H610 C640 0.931 1_455 S
H611 C632 0.929 . S
H612 C641 0.930 . S
H613 C633 0.931 . S
O614 Co590 2.097 . S
O614 C642 1.214 . S
H615 C643 0.929 . S
H616 C644 0.929 1_455 S
H617 C645 0.926 1_455 S
H618 C646 0.929 . S
H619 C648 0.930 . S
H620 C625 0.930 . S
H621 C629 0.930 . S
O622 Co591 2.037 . S
O622 C642 1.234 . S
C623 O597 1.269 . S
C623 O598 1.257 . S
C624 H599 0.930 . S
C624 C627 1.394 . S
C624 C629 1.418 . S
C625 H620 0.930 . S
C625 C628 1.404 . S
C625 C629 1.353 1_655 S
N626 Co591 2.145 . S
N626 C627 1.387 1_655 S
N626 C628 1.334 . S
C627 H608 0.933 . S
C627 C624 1.394 . S
C627 N626 1.387 1_455 S
C628 H609 0.929 . S
C628 C625 1.404 . S
C628 N626 1.334 . S
C629 H621 0.930 . S
C629 C624 1.418 . S
C629 C625 1.353 1_455 S
C630 H600 0.930 1_554 S
C630 N631 1.330 . S
C630 C632 1.446 . S
N631 Co590 2.151 1_554 S
N631 C630 1.330 . S
N631 C635 1.418 . S
C632 H611 0.929 . S
C632 C630 1.446 . S
C632 C633 1.332 . S
C633 H613 0.931 . S
C633 C632 1.332 . S
C633 C634 1.267 . S
C634 H602 0.929 . S
C634 C633 1.267 . S
C634 C635 1.251 . S
C635 H605 0.929 . S
C635 N631 1.418 . S
C635 C634 1.251 . S
C636 H603 0.930 . S
C636 C638 1.406 . S
C636 C641 1.261 . S
C637 H604 0.930 . S
C637 N639 1.325 . S
C637 C640 1.357 . S
C638 H606 0.928 . S
C638 C636 1.406 . S
C638 N639 1.261 . S
N639 Co590 2.214 1_554 S
N639 C637 1.325 . S
N639 C638 1.261 . S
C640 H610 0.931 1_655 S
C640 C637 1.357 . S
C640 C641 1.312 . S
C641 H612 0.930 . S
C641 C636 1.261 . S
C641 C640 1.312 . S
C642 O614 1.214 . S
C642 O622 1.234 . S
C643 H615 0.929 . S
C643 C646 1.391 . S
C643 C648 1.391 . S
C644 H616 0.929 1_655 S
C644 C645 1.391 . S
C644 N647 1.391 . S
C645 H617 0.926 1_655 S
C645 C644 1.391 . S
C645 C646 1.395 . S
C646 H618 0.929 . S
C646 C643 1.391 . S
C646 C645 1.395 . S
N647 Co591 2.257 . S
N647 C644 1.391 . S
N647 C648 1.388 . S
C648 H619 0.930 . S
C648 C643 1.391 . S
C648 N647 1.388 . S
Co649 O651 2.143 . S
Co649 O657 2.074 . S
Co649 O660 2.093 . S
Co649 O673 2.097 . S
Co649 N690 2.151 . S
Co649 N698 2.214 . S
Co650 O651 2.160 . S
Co650 O656 2.058 . S
Co650 O666 2.057 . S
Co650 O681 2.037 . S
Co650 N685 2.145 . S
Co650 N706 2.257 . S
O651 Co649 2.143 . S
O651 Co650 2.160 . S
C652 O653 1.278 . S
C652 O660 1.224 . S
O653 C652 1.278 . S
C654 O655 1.245 . S
C654 O666 1.232 . S
O655 C654 1.245 . S
O656 Co650 2.058 . S
O656 C682 1.269 . S
O657 Co649 2.074 . S
O657 C682 1.257 . S
H658 C683 0.930 . S
H659 C689 0.930 . S
O660 Co649 2.093 . S
O660 C652 1.224 . S
H661 C693 0.929 . S
H662 C695 0.930 . S
H663 C696 0.930 . S
H664 C694 0.929 . S
H665 C697 0.928 . S
O666 Co650 2.057 . S
O666 C654 1.232 . S
H667 C686 0.929 . S
H668 C687 0.929 . S
H669 C699 0.931 . S
H670 C691 0.929 . S
H671 C700 0.930 . S
H672 C692 0.931 . S
O673 Co649 2.097 . S
O673 C701 1.214 . S
H674 C702 0.929 . S
H675 C703 0.929 . S
H676 C704 0.930 . S
H677 C705 0.929 . S
H678 C707 0.930 . S
H679 C684 0.930 . S
H680 C688 0.930 . S
O681 Co650 2.037 . S
O681 C701 1.234 . S
C682 O656 1.269 . S
C682 O657 1.257 . S
C683 H658 0.930 . S
C683 C686 1.388 . S
C683 C688 1.418 . S
C684 H679 0.930 . S
C684 C687 1.404 . S
C684 C688 1.353 . S
N685 Co650 2.145 . S
N685 C686 1.397 . S
N685 C687 1.334 . S
C686 H667 0.929 . S
C686 C683 1.388 . S
C686 N685 1.397 . S
C687 H668 0.929 . S
C687 C684 1.404 . S
C687 N685 1.334 . S
C688 H680 0.930 . S
C688 C683 1.418 . S
C688 C684 1.353 . S
C689 H659 0.930 . S
C689 N690 1.330 . S
C689 C691 1.446 . S
N690 Co649 2.151 . S
N690 C689 1.330 . S
N690 C694 1.418 . S
C691 H670 0.929 . S
C691 C689 1.446 . S
C691 C692 1.332 . S
C692 H672 0.931 . S
C692 C691 1.332 . S
C692 C693 1.267 . S
C693 H661 0.929 . S
C693 C692 1.267 . S
C693 C694 1.251 . S
C694 H664 0.929 . S
C694 N690 1.418 . S
C694 C693 1.251 . S
C695 H662 0.930 . S
C695 C697 1.406 . S
C695 C700 1.261 . S
C696 H663 0.930 . S
C696 N698 1.325 . S
C696 C699 1.357 . S
C697 H665 0.928 . S
C697 C695 1.406 . S
C697 N698 1.261 . S
N698 Co649 2.214 . S
N698 C696 1.325 . S
N698 C697 1.261 . S
C699 H669 0.931 . S
C699 C696 1.357 . S
C699 C700 1.312 . S
C700 H671 0.930 . S
C700 C695 1.261 . S
C700 C699 1.312 . S
C701 O673 1.214 . S
C701 O681 1.234 . S
C702 H674 0.929 . S
C702 C705 1.391 . S
C702 C707 1.391 . S
C703 H675 0.929 . S
C703 C704 1.390 . S
C703 N706 1.391 . S
C704 H676 0.930 . S
C704 C703 1.390 . S
C704 C705 1.392 . S
C705 H677 0.929 . S
C705 C702 1.391 . S
C705 C704 1.392 . S
N706 Co650 2.257 . S
N706 C703 1.391 . S
N706 C707 1.388 . S
C707 H678 0.930 . S
C707 C702 1.391 . S
C707 N706 1.388 . S
Co708 O710 2.143 . S
Co708 O716 2.074 . S
Co708 O719 2.093 . S
Co708 O732 2.097 . S
Co708 N749 2.151 . S
Co708 N757 2.214 . S
Co709 O710 2.160 . S
Co709 O715 2.058 1_556 S
Co709 O725 2.057 1_556 S
Co709 O740 2.037 . S
Co709 N744 2.145 1_556 S
Co709 N765 2.257 . S
O710 Co708 2.143 . S
O710 Co709 2.160 . S
C711 O712 1.278 . S
C711 O719 1.224 . S
O712 C711 1.278 . S
C713 O714 1.237 1_554 S
C713 O725 1.235 . S
O714 C713 1.237 1_556 S
O715 Co709 2.058 1_554 S
O715 C741 1.269 . S
O716 Co708 2.074 . S
O716 C741 1.257 1_556 S
H717 C742 0.930 1_655 S
H718 C748 0.930 . S
O719 Co708 2.093 . S
O719 C711 1.224 . S
H720 C752 0.929 . S
H721 C754 0.930 . S
H722 C755 0.930 . S
H723 C753 0.929 . S
H724 C756 0.928 . S
O725 Co709 2.057 1_554 S
O725 C713 1.235 . S
H726 C745 0.929 . S
H727 C746 0.929 . S
H728 C758 0.931 . S
H729 C750 0.929 . S
H730 C759 0.930 . S
H731 C751 0.931 . S
O732 Co708 2.097 . S
O732 C760 1.214 . S
H733 C761 0.929 . S
H734 C762 0.929 . S
H735 C763 0.930 . S
H736 C764 0.929 . S
H737 C766 0.930 . S
H738 C743 0.930 . S
H739 C747 0.930 . S
O740 Co709 2.037 . S
O740 C760 1.234 . S
C741 O715 1.269 . S
C741 O716 1.257 1_554 S
C742 H717 0.930 1_455 S
C742 C745 1.388 . S
C742 C747 1.418 . S
C743 H738 0.930 . S
C743 C746 1.404 . S
C743 C747 1.353 . S
N744 Co709 2.145 1_554 S
N744 C745 1.397 . S
N744 C746 1.334 . S
C745 H726 0.929 . S
C745 C742 1.388 . S
C745 N744 1.397 . S
C746 H727 0.929 . S
C746 C743 1.404 . S
C746 N744 1.334 . S
C747 H739 0.930 . S
C747 C742 1.418 . S
C747 C743 1.353 . S
C748 H718 0.930 . S
C748 N749 1.330 . S
C748 C750 1.446 . S
N749 Co708 2.151 . S
N749 C748 1.330 . S
N749 C753 1.418 . S
C750 H729 0.929 . S
C750 C748 1.446 . S
C750 C751 1.332 . S
C751 H731 0.931 . S
C751 C750 1.332 . S
C751 C752 1.267 . S
C752 H720 0.929 . S
C752 C751 1.267 . S
C752 C753 1.251 . S
C753 H723 0.929 . S
C753 N749 1.418 . S
C753 C752 1.251 . S
C754 H721 0.930 . S
C754 C756 1.406 . S
C754 C759 1.261 . S
C755 H722 0.930 . S
C755 N757 1.325 . S
C755 C758 1.357 . S
C756 H724 0.928 . S
C756 C754 1.406 . S
C756 N757 1.261 . S
N757 Co708 2.214 . S
N757 C755 1.325 . S
N757 C756 1.261 . S
C758 H728 0.931 . S
C758 C755 1.357 . S
C758 C759 1.312 . S
C759 H730 0.930 . S
C759 C754 1.261 . S
C759 C758 1.312 . S
C760 O732 1.214 . S
C760 O740 1.234 . S
C761 H733 0.929 . S
C761 C764 1.391 . S
C761 C766 1.391 . S
C762 H734 0.929 . S
C762 C763 1.390 . S
C762 N765 1.391 . S
C763 H735 0.930 . S
C763 C762 1.390 . S
C763 C764 1.392 . S
C764 H736 0.929 . S
C764 C761 1.391 . S
C764 C763 1.392 . S
N765 Co709 2.257 . S
N765 C762 1.391 . S
N765 C766 1.388 . S
C766 H737 0.930 . S
C766 C761 1.391 . S
C766 N765 1.388 . S
Co767 O769 2.143 . S
Co767 O775 2.074 . S
Co767 O778 2.093 . S
Co767 O791 2.097 . S
Co767 N808 2.151 . S
Co767 N816 2.214 . S
Co768 O769 2.160 . S
Co768 O774 2.058 . S
Co768 O784 2.057 . S
Co768 O799 2.037 . S
Co768 N803 2.145 . S
Co768 N824 2.257 . S
O769 Co767 2.143 . S
O769 Co768 2.160 . S
C770 O771 1.278 . S
C770 O778 1.224 . S
O771 C770 1.278 . S
C772 O773 1.245 . S
C772 O784 1.232 . S
O773 C772 1.245 . S
O774 Co768 2.058 . S
O774 C800 1.269 . S
O775 Co767 2.074 . S
O775 C800 1.257 . S
H776 C801 0.930 . S
H777 C807 0.930 . S
O778 Co767 2.093 . S
O778 C770 1.224 . S
H779 C811 0.929 . S
H780 C813 0.930 . S
H781 C814 0.930 . S
H782 C812 0.929 . S
H783 C815 0.928 . S
O784 Co768 2.057 . S
O784 C772 1.232 . S
H785 C804 0.929 . S
H786 C805 0.929 . S
H787 C817 0.931 . S
H788 C809 0.929 . S
H789 C818 0.930 . S
H790 C810 0.931 . S
O791 Co767 2.097 . S
O791 C819 1.214 . S
H792 C820 0.929 . S
H793 C821 0.929 . S
H794 C822 0.930 . S
H795 C823 0.929 . S
H796 C825 0.930 . S
H797 C802 0.930 . S
H798 C806 0.930 . S
O799 Co768 2.037 . S
O799 C819 1.234 . S
C800 O774 1.269 . S
C800 O775 1.257 . S
C801 H776 0.930 . S
C801 C804 1.388 . S
C801 C806 1.418 . S
C802 H797 0.930 . S
C802 C805 1.404 . S
C802 C806 1.353 . S
N803 Co768 2.145 . S
N803 C804 1.397 . S
N803 C805 1.334 . S
C804 H785 0.929 . S
C804 C801 1.388 . S
C804 N803 1.397 . S
C805 H786 0.929 . S
C805 C802 1.404 . S
C805 N803 1.334 . S
C806 H798 0.930 . S
C806 C801 1.418 . S
C806 C802 1.353 . S
C807 H777 0.930 . S
C807 N808 1.330 . S
C807 C809 1.446 . S
N808 Co767 2.151 . S
N808 C807 1.330 . S
N808 C812 1.418 . S
C809 H788 0.929 . S
C809 C807 1.446 . S
C809 C810 1.332 . S
C810 H790 0.931 . S
C810 C809 1.332 . S
C810 C811 1.267 . S
C811 H779 0.929 . S
C811 C810 1.267 . S
C811 C812 1.251 . S
C812 H782 0.929 . S
C812 N808 1.418 . S
C812 C811 1.251 . S
C813 H780 0.930 . S
C813 C815 1.406 . S
C813 C818 1.261 . S
C814 H781 0.930 . S
C814 N816 1.325 . S
C814 C817 1.357 . S
C815 H783 0.928 . S
C815 C813 1.406 . S
C815 N816 1.261 . S
N816 Co767 2.214 . S
N816 C814 1.325 . S
N816 C815 1.261 . S
C817 H787 0.931 . S
C817 C814 1.357 . S
C817 C818 1.312 . S
C818 H789 0.930 . S
C818 C813 1.261 . S
C818 C817 1.312 . S
C819 O791 1.214 . S
C819 O799 1.234 . S
C820 H792 0.929 . S
C820 C823 1.391 . S
C820 C825 1.391 . S
C821 H793 0.929 . S
C821 C822 1.390 . S
C821 N824 1.391 . S
C822 H794 0.930 . S
C822 C821 1.390 . S
C822 C823 1.392 . S
C823 H795 0.929 . S
C823 C820 1.391 . S
C823 C822 1.392 . S
N824 Co768 2.257 . S
N824 C821 1.391 . S
N824 C825 1.388 . S
C825 H796 0.930 . S
C825 C820 1.391 . S
C825 N824 1.388 . S
Co826 O828 2.143 . S
Co826 O834 2.074 . S
Co826 O837 2.093 . S
Co826 O850 2.097 . S
Co826 N867 2.151 . S
Co826 N875 2.214 . S
Co827 O828 2.160 . S
Co827 O833 2.058 1_554 S
Co827 O843 2.057 1_554 S
Co827 O858 2.037 . S
Co827 N862 2.145 1_554 S
Co827 N883 2.257 . S
O828 Co826 2.143 . S
O828 Co827 2.160 . S
C829 O830 1.278 . S
C829 O837 1.224 . S
O830 C829 1.278 . S
C831 O832 1.237 1_556 S
C831 O843 1.235 . S
O832 C831 1.237 1_554 S
O833 Co827 2.058 1_556 S
O833 C859 1.269 . S
O834 Co826 2.074 . S
O834 C859 1.257 1_554 S
H835 C860 0.930 1_655 S
H836 C866 0.930 . S
O837 Co826 2.093 . S
O837 C829 1.224 . S
H838 C870 0.929 . S
H839 C872 0.930 . S
H840 C873 0.930 . S
H841 C871 0.929 . S
H842 C874 0.928 . S
O843 Co827 2.057 1_556 S
O843 C831 1.235 . S
H844 C863 0.929 . S
H845 C864 0.929 . S
H846 C876 0.931 . S
H847 C868 0.929 . S
H848 C877 0.930 . S
H849 C869 0.931 . S
O850 Co826 2.097 . S
O850 C878 1.214 . S
H851 C879 0.929 . S
H852 C880 0.929 . S
H853 C881 0.930 . S
H854 C882 0.929 . S
H855 C884 0.930 . S
H856 C861 0.930 . S
H857 C865 0.930 . S
O858 Co827 2.037 . S
O858 C878 1.234 . S
C859 O833 1.269 . S
C859 O834 1.257 1_556 S
C860 H835 0.930 1_455 S
C860 C863 1.388 . S
C860 C865 1.418 . S
C861 H856 0.930 . S
C861 C864 1.404 . S
C861 C865 1.353 . S
N862 Co827 2.145 1_556 S
N862 C863 1.397 . S
N862 C864 1.334 . S
C863 H844 0.929 . S
C863 C860 1.388 . S
C863 N862 1.397 . S
C864 H845 0.929 . S
C864 C861 1.404 . S
C864 N862 1.334 . S
C865 H857 0.930 . S
C865 C860 1.418 . S
C865 C861 1.353 . S
C866 H836 0.930 . S
C866 N867 1.330 . S
C866 C868 1.446 . S
N867 Co826 2.151 . S
N867 C866 1.330 . S
N867 C871 1.418 . S
C868 H847 0.929 . S
C868 C866 1.446 . S
C868 C869 1.332 . S
C869 H849 0.931 . S
C869 C868 1.332 . S
C869 C870 1.267 . S
C870 H838 0.929 . S
C870 C869 1.267 . S
C870 C871 1.251 . S
C871 H841 0.929 . S
C871 N867 1.418 . S
C871 C870 1.251 . S
C872 H839 0.930 . S
C872 C874 1.406 . S
C872 C877 1.261 . S
C873 H840 0.930 . S
C873 N875 1.325 . S
C873 C876 1.357 . S
C874 H842 0.928 . S
C874 C872 1.406 . S
C874 N875 1.261 . S
N875 Co826 2.214 . S
N875 C873 1.325 . S
N875 C874 1.261 . S
C876 H846 0.931 . S
C876 C873 1.357 . S
C876 C877 1.312 . S
C877 H848 0.930 . S
C877 C872 1.261 . S
C877 C876 1.312 . S
C878 O850 1.214 . S
C878 O858 1.234 . S
C879 H851 0.929 . S
C879 C882 1.391 . S
C879 C884 1.391 . S
C880 H852 0.929 . S
C880 C881 1.390 . S
C880 N883 1.391 . S
C881 H853 0.930 . S
C881 C880 1.390 . S
C881 C882 1.392 . S
C882 H854 0.929 . S
C882 C879 1.391 . S
C882 C881 1.392 . S
N883 Co827 2.257 . S
N883 C880 1.391 . S
N883 C884 1.388 . S
C884 H855 0.930 . S
C884 C879 1.391 . S
C884 N883 1.388 . S
Co885 O887 2.143 . S
Co885 O893 2.074 . S
Co885 O896 2.093 . S
Co885 O909 2.097 . S
Co885 N926 2.151 . S
Co885 N934 2.214 . S
Co886 O887 2.160 . S
Co886 O892 2.058 . S
Co886 O902 2.057 . S
Co886 O917 2.037 . S
Co886 N921 2.145 . S
Co886 N942 2.257 . S
O887 Co885 2.143 . S
O887 Co886 2.160 . S
C888 O889 1.278 . S
C888 O896 1.224 . S
O889 C888 1.278 . S
C890 O891 1.245 . S
C890 O902 1.232 . S
O891 C890 1.245 . S
O892 Co886 2.058 . S
O892 C918 1.269 . S
O893 Co885 2.074 . S
O893 C918 1.257 . S
H894 C919 0.930 . S
H895 C925 0.930 . S
O896 Co885 2.093 . S
O896 C888 1.224 . S
H897 C929 0.929 . S
H898 C931 0.930 . S
H899 C932 0.930 . S
H900 C930 0.929 . S
H901 C933 0.928 . S
O902 Co886 2.057 . S
O902 C890 1.232 . S
H903 C922 0.929 . S
H904 C923 0.929 . S
H905 C935 0.931 . S
H906 C927 0.929 . S
H907 C936 0.930 . S
H908 C928 0.931 . S
O909 Co885 2.097 . S
O909 C937 1.214 . S
H910 C938 0.929 . S
H911 C939 0.929 . S
H912 C940 0.930 . S
H913 C941 0.929 . S
H914 C943 0.930 . S
H915 C920 0.930 . S
H916 C924 0.930 . S
O917 Co886 2.037 . S
O917 C937 1.234 . S
C918 O892 1.269 . S
C918 O893 1.257 . S
C919 H894 0.930 . S
C919 C922 1.388 . S
C919 C924 1.418 . S
C920 H915 0.930 . S
C920 C923 1.404 . S
C920 C924 1.353 . S
N921 Co886 2.145 . S
N921 C922 1.397 . S
N921 C923 1.334 . S
C922 H903 0.929 . S
C922 C919 1.388 . S
C922 N921 1.397 . S
C923 H904 0.929 . S
C923 C920 1.404 . S
C923 N921 1.334 . S
C924 H916 0.930 . S
C924 C919 1.418 . S
C924 C920 1.353 . S
C925 H895 0.930 . S
C925 N926 1.330 . S
C925 C927 1.446 . S
N926 Co885 2.151 . S
N926 C925 1.330 . S
N926 C930 1.418 . S
C927 H906 0.929 . S
C927 C925 1.446 . S
C927 C928 1.332 . S
C928 H908 0.931 . S
C928 C927 1.332 . S
C928 C929 1.267 . S
C929 H897 0.929 . S
C929 C928 1.267 . S
C929 C930 1.251 . S
C930 H900 0.929 . S
C930 N926 1.418 . S
C930 C929 1.251 . S
C931 H898 0.930 . S
C931 C933 1.406 . S
C931 C936 1.261 . S
C932 H899 0.930 . S
C932 N934 1.325 . S
C932 C935 1.357 . S
C933 H901 0.928 . S
C933 C931 1.406 . S
C933 N934 1.261 . S
N934 Co885 2.214 . S
N934 C932 1.325 . S
N934 C933 1.261 . S
C935 H905 0.931 . S
C935 C932 1.357 . S
C935 C936 1.312 . S
C936 H907 0.930 . S
C936 C931 1.261 . S
C936 C935 1.312 . S
C937 O909 1.214 . S
C937 O917 1.234 . S
C938 H910 0.929 . S
C938 C941 1.391 . S
C938 C943 1.391 . S
C939 H911 0.929 . S
C939 C940 1.390 . S
C939 N942 1.391 . S
C940 H912 0.930 . S
C940 C939 1.390 . S
C940 C941 1.392 . S
C941 H913 0.929 . S
C941 C938 1.391 . S
C941 C940 1.392 . S
N942 Co886 2.257 . S
N942 C939 1.391 . S
N942 C943 1.388 . S
C943 H914 0.930 . S
C943 C938 1.391 . S
C943 N942 1.388 . S
C3 C713 1.707 . S
C772 C62 1.702 . S
C121 C831 1.707 . S
C890 C180 1.702 . S
C475 C241 1.707 . S
C300 C534 1.702 . S
C593 C359 1.707 . S
C418 C652 1.702 . S
C33 C151 2.388 1_544 S
C92 C210 2.388 1_565 S
C269 C387 2.129 1_564 S
C328 C446 2.129 1_545 S
C623 C505 2.388 1_556 S
C564 C682 2.388 . S
C859 C741 2.129 1_556 S
C800 C918 2.129 . S
C406 C52 1.957 . S
C465 C111 1.957 1_655 S
C170 C288 1.957 . S
C229 C347 1.957 1_455 S
C878 C524 1.957 1_455 S
C583 C937 1.957 . S
C760 C642 1.957 1_455 S
C701 C819 1.957 . S
C5 C182 2.002 . S
C123 C64 2.002 . S
C239 C416 1.407 . S
C298 C357 1.407 . S
C654 C477 2.002 . S
C536 C595 2.002 . S
C888 C711 1.407 . S
C770 C829 1.407 . S
