# Generated by pormake.
# Topology sog, (5)-cn, num edge types: 1
# Building blocks:
#     Node 0, Type 0, BuildingBlock: BEQFEK_clean_sbu_0, # of connection points: 5
#     Node 1, Type 0, BuildingBlock: BEQFEK_clean_sbu_0, # of connection points: 5
#     Node 2, Type 0, BuildingBlock: BEQFEK_clean_sbu_0, # of connection points: 5
#     Node 3, Type 0, BuildingBlock: BEQFEK_clean_sbu_0, # of connection points: 5
#     Node 4, Type 0, BuildingBlock: BEQFEK_clean_sbu_0, # of connection points: 5
#     Node 5, Type 0, BuildingBlock: BEQFEK_clean_sbu_0, # of connection points: 5
#     Node 6, Type 0, BuildingBlock: BEQFEK_clean_sbu_0, # of connection points: 5
#     Node 7, Type 0, BuildingBlock: BEQFEK_clean_sbu_0, # of connection points: 5
#     Node 8, Type 0, BuildingBlock: BEQFEK_clean_sbu_0, # of connection points: 5
#     Node 9, Type 0, BuildingBlock: BEQFEK_clean_sbu_0, # of connection points: 5
#     Node 10, Type 0, BuildingBlock: BEQFEK_clean_sbu_0, # of connection points: 5
#     Node 11, Type 0, BuildingBlock: BEQFEK_clean_sbu_0, # of connection points: 5
#     Node 12, Type 0, BuildingBlock: BEQFEK_clean_sbu_0, # of connection points: 5
#     Node 13, Type 0, BuildingBlock: BEQFEK_clean_sbu_0, # of connection points: 5
#     Node 14, Type 0, BuildingBlock: BEQFEK_clean_sbu_0, # of connection points: 5
#     Node 15, Type 0, BuildingBlock: BEQFEK_clean_sbu_0, # of connection points: 5
#     Node 16, Type 0, BuildingBlock: BEQFEK_clean_sbu_0, # of connection points: 5
#     Node 17, Type 0, BuildingBlock: BEQFEK_clean_sbu_0, # of connection points: 5
#     Node 18, Type 0, BuildingBlock: BEQFEK_clean_sbu_0, # of connection points: 5
#     Node 19, Type 0, BuildingBlock: BEQFEK_clean_sbu_0, # of connection points: 5
#     Node 20, Type 0, BuildingBlock: BEQFEK_clean_sbu_0, # of connection points: 5
#     Node 21, Type 0, BuildingBlock: BEQFEK_clean_sbu_0, # of connection points: 5
#     Node 22, Type 0, BuildingBlock: BEQFEK_clean_sbu_0, # of connection points: 5
#     Node 23, Type 0, BuildingBlock: BEQFEK_clean_sbu_0, # of connection points: 5
#     Node 24, Type 0, BuildingBlock: BEQFEK_clean_sbu_0, # of connection points: 5
#     Node 25, Type 0, BuildingBlock: BEQFEK_clean_sbu_0, # of connection points: 5
#     Node 26, Type 0, BuildingBlock: BEQFEK_clean_sbu_0, # of connection points: 5
#     Node 27, Type 0, BuildingBlock: BEQFEK_clean_sbu_0, # of connection points: 5
#     Node 28, Type 0, BuildingBlock: BEQFEK_clean_sbu_0, # of connection points: 5
#     Node 29, Type 0, BuildingBlock: BEQFEK_clean_sbu_0, # of connection points: 5
#     Node 30, Type 0, BuildingBlock: BEQFEK_clean_sbu_0, # of connection points: 5
#     Node 31, Type 0, BuildingBlock: BEQFEK_clean_sbu_0, # of connection points: 5
#     Edge 32, Type (0, 0), BuildingBlock: XIVTED_clean_linker_0, # of connection points: 2
#     Edge 33, Type (0, 0), BuildingBlock: XIVTED_clean_linker_0, # of connection points: 2
#     Edge 34, Type (0, 0), BuildingBlock: XIVTED_clean_linker_0, # of connection points: 2
#     Edge 35, Type (0, 0), BuildingBlock: XIVTED_clean_linker_0, # of connection points: 2
#     Edge 36, Type (0, 0), BuildingBlock: XIVTED_clean_linker_0, # of connection points: 2
#     Edge 37, Type (0, 0), BuildingBlock: XIVTED_clean_linker_0, # of connection points: 2
#     Edge 38, Type (0, 0), BuildingBlock: XIVTED_clean_linker_0, # of connection points: 2
#     Edge 39, Type (0, 0), BuildingBlock: XIVTED_clean_linker_0, # of connection points: 2
#     Edge 40, Type (0, 0), BuildingBlock: XIVTED_clean_linker_0, # of connection points: 2
#     Edge 41, Type (0, 0), BuildingBlock: XIVTED_clean_linker_0, # of connection points: 2
#     Edge 42, Type (0, 0), BuildingBlock: XIVTED_clean_linker_0, # of connection points: 2
#     Edge 43, Type (0, 0), BuildingBlock: XIVTED_clean_linker_0, # of connection points: 2
#     Edge 44, Type (0, 0), BuildingBlock: XIVTED_clean_linker_0, # of connection points: 2
#     Edge 45, Type (0, 0), BuildingBlock: XIVTED_clean_linker_0, # of connection points: 2
#     Edge 46, Type (0, 0), BuildingBlock: XIVTED_clean_linker_0, # of connection points: 2
#     Edge 47, Type (0, 0), BuildingBlock: XIVTED_clean_linker_0, # of connection points: 2
#     Edge 48, Type (0, 0), BuildingBlock: XIVTED_clean_linker_0, # of connection points: 2
#     Edge 49, Type (0, 0), BuildingBlock: XIVTED_clean_linker_0, # of connection points: 2
#     Edge 50, Type (0, 0), BuildingBlock: XIVTED_clean_linker_0, # of connection points: 2
#     Edge 51, Type (0, 0), BuildingBlock: XIVTED_clean_linker_0, # of connection points: 2
#     Edge 52, Type (0, 0), BuildingBlock: XIVTED_clean_linker_0, # of connection points: 2
#     Edge 53, Type (0, 0), BuildingBlock: XIVTED_clean_linker_0, # of connection points: 2
#     Edge 54, Type (0, 0), BuildingBlock: XIVTED_clean_linker_0, # of connection points: 2
#     Edge 55, Type (0, 0), BuildingBlock: XIVTED_clean_linker_0, # of connection points: 2
#     Edge 56, Type (0, 0), BuildingBlock: XIVTED_clean_linker_0, # of connection points: 2
#     Edge 57, Type (0, 0), BuildingBlock: XIVTED_clean_linker_0, # of connection points: 2
#     Edge 58, Type (0, 0), BuildingBlock: XIVTED_clean_linker_0, # of connection points: 2
#     Edge 59, Type (0, 0), BuildingBlock: XIVTED_clean_linker_0, # of connection points: 2
#     Edge 60, Type (0, 0), BuildingBlock: XIVTED_clean_linker_0, # of connection points: 2
#     Edge 61, Type (0, 0), BuildingBlock: XIVTED_clean_linker_0, # of connection points: 2
#     Edge 62, Type (0, 0), BuildingBlock: XIVTED_clean_linker_0, # of connection points: 2
#     Edge 63, Type (0, 0), BuildingBlock: XIVTED_clean_linker_0, # of connection points: 2
#     Edge 64, Type (0, 0), BuildingBlock: XIVTED_clean_linker_0, # of connection points: 2
#     Edge 65, Type (0, 0), BuildingBlock: XIVTED_clean_linker_0, # of connection points: 2
#     Edge 66, Type (0, 0), BuildingBlock: XIVTED_clean_linker_0, # of connection points: 2
#     Edge 67, Type (0, 0), BuildingBlock: XIVTED_clean_linker_0, # of connection points: 2
#     Edge 68, Type (0, 0), BuildingBlock: XIVTED_clean_linker_0, # of connection points: 2
#     Edge 69, Type (0, 0), BuildingBlock: XIVTED_clean_linker_0, # of connection points: 2
#     Edge 70, Type (0, 0), BuildingBlock: XIVTED_clean_linker_0, # of connection points: 2
#     Edge 71, Type (0, 0), BuildingBlock: XIVTED_clean_linker_0, # of connection points: 2
#     Edge 72, Type (0, 0), BuildingBlock: XIVTED_clean_linker_0, # of connection points: 2
#     Edge 73, Type (0, 0), BuildingBlock: XIVTED_clean_linker_0, # of connection points: 2
#     Edge 74, Type (0, 0), BuildingBlock: XIVTED_clean_linker_0, # of connection points: 2
#     Edge 75, Type (0, 0), BuildingBlock: XIVTED_clean_linker_0, # of connection points: 2
#     Edge 76, Type (0, 0), BuildingBlock: XIVTED_clean_linker_0, # of connection points: 2
#     Edge 77, Type (0, 0), BuildingBlock: XIVTED_clean_linker_0, # of connection points: 2
#     Edge 78, Type (0, 0), BuildingBlock: XIVTED_clean_linker_0, # of connection points: 2
#     Edge 79, Type (0, 0), BuildingBlock: XIVTED_clean_linker_0, # of connection points: 2
#     Edge 80, Type (0, 0), BuildingBlock: XIVTED_clean_linker_0, # of connection points: 2
#     Edge 81, Type (0, 0), BuildingBlock: XIVTED_clean_linker_0, # of connection points: 2
#     Edge 82, Type (0, 0), BuildingBlock: XIVTED_clean_linker_0, # of connection points: 2
#     Edge 83, Type (0, 0), BuildingBlock: XIVTED_clean_linker_0, # of connection points: 2
#     Edge 84, Type (0, 0), BuildingBlock: XIVTED_clean_linker_0, # of connection points: 2
#     Edge 85, Type (0, 0), BuildingBlock: XIVTED_clean_linker_0, # of connection points: 2
#     Edge 86, Type (0, 0), BuildingBlock: XIVTED_clean_linker_0, # of connection points: 2
#     Edge 87, Type (0, 0), BuildingBlock: XIVTED_clean_linker_0, # of connection points: 2
#     Edge 88, Type (0, 0), BuildingBlock: XIVTED_clean_linker_0, # of connection points: 2
#     Edge 89, Type (0, 0), BuildingBlock: XIVTED_clean_linker_0, # of connection points: 2
#     Edge 90, Type (0, 0), BuildingBlock: XIVTED_clean_linker_0, # of connection points: 2
#     Edge 91, Type (0, 0), BuildingBlock: XIVTED_clean_linker_0, # of connection points: 2
#     Edge 92, Type (0, 0), BuildingBlock: XIVTED_clean_linker_0, # of connection points: 2
#     Edge 93, Type (0, 0), BuildingBlock: XIVTED_clean_linker_0, # of connection points: 2
#     Edge 94, Type (0, 0), BuildingBlock: XIVTED_clean_linker_0, # of connection points: 2
#     Edge 95, Type (0, 0), BuildingBlock: XIVTED_clean_linker_0, # of connection points: 2
#     Edge 96, Type (0, 0), BuildingBlock: XIVTED_clean_linker_0, # of connection points: 2
#     Edge 97, Type (0, 0), BuildingBlock: XIVTED_clean_linker_0, # of connection points: 2
#     Edge 98, Type (0, 0), BuildingBlock: XIVTED_clean_linker_0, # of connection points: 2
#     Edge 99, Type (0, 0), BuildingBlock: XIVTED_clean_linker_0, # of connection points: 2
#     Edge 100, Type (0, 0), BuildingBlock: XIVTED_clean_linker_0, # of connection points: 2
#     Edge 101, Type (0, 0), BuildingBlock: XIVTED_clean_linker_0, # of connection points: 2
#     Edge 102, Type (0, 0), BuildingBlock: XIVTED_clean_linker_0, # of connection points: 2
#     Edge 103, Type (0, 0), BuildingBlock: XIVTED_clean_linker_0, # of connection points: 2
#     Edge 104, Type (0, 0), BuildingBlock: XIVTED_clean_linker_0, # of connection points: 2
#     Edge 105, Type (0, 0), BuildingBlock: XIVTED_clean_linker_0, # of connection points: 2
#     Edge 106, Type (0, 0), BuildingBlock: XIVTED_clean_linker_0, # of connection points: 2
#     Edge 107, Type (0, 0), BuildingBlock: XIVTED_clean_linker_0, # of connection points: 2
#     Edge 108, Type (0, 0), BuildingBlock: XIVTED_clean_linker_0, # of connection points: 2
#     Edge 109, Type (0, 0), BuildingBlock: XIVTED_clean_linker_0, # of connection points: 2
#     Edge 110, Type (0, 0), BuildingBlock: XIVTED_clean_linker_0, # of connection points: 2
#     Edge 111, Type (0, 0), BuildingBlock: XIVTED_clean_linker_0, # of connection points: 2
# Relax obj value: 0.262
# Max RMSD: 0.208
# Mean RMSD: 0.208
data_MOF--net-sog--node1-BEQFEK_clean_sbu_0--edge1-XIVTED_clean_linker_0
_symmetry_space_group_name_H-M    P1
_symmetry_Int_Tables_number       1
_symmetry_cell_setting            triclinic
loop_
_symmetry_equiv_pos_as_xyz
'x, y, z'
_cell_length_a     79.159885
_cell_length_b     18.362345
_cell_length_c     118.67462
_cell_angle_alpha  90.005563
_cell_angle_beta   89.996866
_cell_angle_gamma 89.989587
loop_
_atom_site_label
_atom_site_type_symbol
_atom_site_fract_x
_atom_site_fract_y
_atom_site_fract_z
_atom_type_partial_charge
Co0 Co 0.46755 0.22512 0.06182 0.0
Co1 Co 0.44736 0.08036 0.06361 0.0
C2 C 0.46868 0.14002 0.0828 0.0
O3 O 0.47393 0.19447 0.0772 0.0
O4 O 0.45849 0.09426 0.0785 0.0
C5 C 0.48483 0.3583 0.06544 0.0
O6 O 0.48758 0.33103 0.07551 0.0
C7 C 0.4495 0.92643 0.06644 0.0
C8 C 0.42539 0.88451 0.05968 0.0
C9 C 0.44088 0.86288 0.06401 0.0
N10 N 0.43965 0.98297 0.06365 0.0
N11 N 0.4251 0.95795 0.05981 0.0
C12 C 0.46771 0.93387 0.0697 0.0
H13 H 0.46889 0.92781 0.07896 0.0
H14 H 0.47268 0.98808 0.06727 0.0
H15 H 0.47547 0.89095 0.06562 0.0
C16 C 0.4816 0.15142 0.04168 0.0
N17 N 0.47182 0.15259 0.05097 0.0
N18 N 0.46267 0.09288 0.05135 0.0
C19 C 0.46609 0.05228 0.04215 0.0
C20 C 0.47824 0.08785 0.03576 0.0
C21 C 0.49277 0.21305 0.03816 0.0
H22 H 0.48481 0.26103 0.03613 0.0
H23 H 0.50111 0.22848 0.04529 0.0
H24 H 0.50051 0.19883 0.03069 0.0
O25 O 0.44324 0.25072 0.06169 0.0
O26 O 0.42815 0.14904 0.06228 0.0
H27 H 0.44403 0.98505 0.04093 0.0
H28 H 0.46015 0.96335 0.03071 0.0
C29 C 0.45783 0.98093 0.0395 0.0
H30 H 0.46302 0.93838 0.04513 0.0
H31 H 0.41536 0.99079 0.05676 0.0
O32 O 0.47849 0.31777 0.05788 0.0
C33 C 0.42903 0.21825 0.06176 0.0
Co34 Co 0.78284 0.00877 0.06135 0.0
Co35 Co 0.8028 0.15377 0.0637 0.0
C36 C 0.78102 0.09183 0.08248 0.0
O37 O 0.77605 0.03746 0.07674 0.0
O38 O 0.79125 0.13819 0.07838 0.0
C39 C 0.76483 0.87608 0.06423 0.0
O40 O 0.76105 0.90341 0.07414 0.0
C41 C 0.79984 0.30745 0.06637 0.0
C42 C 0.82438 0.351 0.06061 0.0
C43 C 0.80841 0.37155 0.06425 0.0
N44 N 0.81017 0.25158 0.06408 0.0
N45 N 0.82496 0.2776 0.06083 0.0
C46 C 0.78142 0.29877 0.06897 0.0
H47 H 0.77695 0.2435 0.0667 0.0
H48 H 0.77383 0.33991 0.06435 0.0
H49 H 0.77939 0.30694 0.07813 0.0
C50 C 0.76855 0.08631 0.04155 0.0
N51 N 0.77857 0.08272 0.0507 0.0
N52 N 0.78775 0.14224 0.05132 0.0
C53 C 0.78414 0.18503 0.04241 0.0
C54 C 0.77169 0.15161 0.036 0.0
C55 C 0.75624 0.02829 0.03828 0.0
H56 H 0.75065 0.00337 0.04593 0.0
H57 H 0.74605 0.05063 0.03286 0.0
H58 H 0.76302 0.98504 0.03356 0.0
O59 O 0.80726 0.98399 0.06138 0.0
O60 O 0.82215 0.08611 0.06238 0.0
H61 H 0.79328 0.2627 0.03014 0.0
H62 H 0.78806 0.29997 0.04371 0.0
C63 C 0.79374 0.25249 0.03935 0.0
H64 H 0.80712 0.24712 0.04192 0.0
H65 H 0.8351 0.24541 0.05823 0.0
O66 O 0.77218 0.9162 0.05702 0.0
C67 C 0.8214 0.01695 0.06168 0.0
Co68 Co 0.46668 0.01942 0.18676 0.0
Co69 Co 0.44638 0.16371 0.18518 0.0
C70 C 0.46799 0.10677 0.16597 0.0
O71 O 0.47323 0.05205 0.17151 0.0
O72 O 0.45765 0.15187 0.1703 0.0
C73 C 0.48259 0.88519 0.18261 0.0
O74 O 0.48321 0.91079 0.17228 0.0
C75 C 0.44822 0.31771 0.18278 0.0
C76 C 0.42383 0.35805 0.18935 0.0
C77 C 0.43938 0.38068 0.18523 0.0
N78 N 0.43843 0.26058 0.18533 0.0
N79 N 0.42373 0.28463 0.18907 0.0
C80 C 0.46651 0.31111 0.17967 0.0
H81 H 0.46787 0.31775 0.17043 0.0
H82 H 0.47153 0.25689 0.18205 0.0
H83 H 0.47411 0.35395 0.18389 0.0
C84 C 0.48048 0.09168 0.20711 0.0
N85 N 0.47076 0.09099 0.19779 0.0
N86 N 0.46155 0.15055 0.19749 0.0
C87 C 0.46484 0.19047 0.20678 0.0
C88 C 0.477 0.1547 0.21313 0.0
C89 C 0.49176 0.03021 0.21053 0.0
H90 H 0.4839 0.98176 0.21246 0.0
H91 H 0.50017 0.01566 0.2034 0.0
H92 H 0.49944 0.04419 0.21804 0.0
O93 O 0.44237 0.99268 0.18675 0.0
O94 O 0.42732 0.09454 0.1863 0.0
H95 H 0.44266 0.25711 0.20797 0.0
H96 H 0.45849 0.27759 0.21845 0.0
C97 C 0.45641 0.26127 0.20957 0.0
H98 H 0.46171 0.30471 0.20415 0.0
H99 H 0.41398 0.2511 0.19192 0.0
O100 O 0.47794 0.92719 0.19052 0.0
C101 C 0.42818 0.02531 0.1867 0.0
Co102 Co 0.78304 0.22516 0.18599 0.0
Co103 Co 0.80326 0.08068 0.18413 0.0
C104 C 0.78114 0.13864 0.16521 0.0
O105 O 0.77598 0.19323 0.17082 0.0
O106 O 0.79162 0.09369 0.16941 0.0
C107 C 0.76606 0.35861 0.1824 0.0
O108 O 0.76364 0.33177 0.17227 0.0
C109 C 0.80093 0.92713 0.18129 0.0
C110 C 0.82522 0.88422 0.18761 0.0
C111 C 0.80959 0.86331 0.18343 0.0
N112 N 0.81091 0.98326 0.18405 0.0
N113 N 0.82555 0.95768 0.18765 0.0
C114 C 0.78262 0.93501 0.17831 0.0
H115 H 0.77773 0.98887 0.18098 0.0
H116 H 0.775 0.89155 0.18235 0.0
H117 H 0.78115 0.93011 0.16905 0.0
C118 C 0.76973 0.15265 0.20644 0.0
N119 N 0.77923 0.15343 0.19703 0.0
N120 N 0.78839 0.09377 0.19659 0.0
C121 C 0.78526 0.05358 0.20588 0.0
C122 C 0.77328 0.08938 0.21238 0.0
C123 C 0.7586 0.21428 0.21002 0.0
H124 H 0.76656 0.26259 0.21186 0.0
H125 H 0.74999 0.22901 0.203 0.0
H126 H 0.75112 0.20043 0.21763 0.0
O127 O 0.80736 0.25105 0.18565 0.0
O128 O 0.82248 0.1494 0.18508 0.0
H129 H 0.80737 0.9865 0.20689 0.0
H130 H 0.7915 0.965 0.2173 0.0
C131 C 0.79361 0.98233 0.20848 0.0
H132 H 0.78831 0.93964 0.20292 0.0
H133 H 0.83543 0.99012 0.1906 0.0
O134 O 0.77215 0.31772 0.19001 0.0
C135 C 0.82158 0.21865 0.18545 0.0
Co136 Co 0.53442 0.76232 0.93659 0.0
Co137 Co 0.55389 0.90841 0.93449 0.0
C138 C 0.53255 0.84632 0.91552 0.0
O139 O 0.52767 0.79165 0.92122 0.0
O140 O 0.5426 0.89312 0.9197 0.0
C141 C 0.51626 0.63024 0.93344 0.0
O142 O 0.51273 0.6579 0.92351 0.0
C143 C 0.55104 0.06168 0.93143 0.0
C144 C 0.57507 0.10616 0.93792 0.0
C145 C 0.55942 0.12607 0.93365 0.0
N146 N 0.56118 0.00623 0.93426 0.0
N147 N 0.57568 0.03275 0.93794 0.0
C148 C 0.5328 0.05252 0.92833 0.0
H149 H 0.5281 -0.00184 0.93091 0.0
H150 H 0.52494 0.09518 0.93238 0.0
H151 H 0.53144 0.0577 0.91906 0.0
C152 C 0.52031 0.83589 0.95672 0.0
N153 N 0.52997 0.83501 0.94738 0.0
N154 N 0.53884 0.89545 0.94687 0.0
C155 C 0.53537 0.93626 0.95603 0.0
C156 C 0.52346 0.90005 0.96254 0.0
C157 C 0.50945 0.77361 0.96038 0.0
H158 H 0.51762 0.7262 0.96237 0.0
H159 H 0.501 0.75746 0.95335 0.0
H160 H 0.50181 0.78751 0.96792 0.0
O161 O 0.55887 0.73823 0.9366 0.0
O162 O 0.57338 0.84143 0.93577 0.0
H163 H 0.55715 0.00534 0.95703 0.0
H164 H 0.54108 0.0262 0.96733 0.0
C165 C 0.54336 0.00841 0.95855 0.0
H166 H 0.53789 0.05023 0.9529 0.0
H167 H 0.58561 0.00097 0.94098 0.0
O168 O 0.52365 0.66974 0.9407 0.0
C169 C 0.57289 0.77219 0.93638 0.0
Co170 Co 0.21654 0.97818 0.93686 0.0
Co171 Co 0.1966 0.83311 0.93476 0.0
C172 C 0.21841 0.89355 0.91588 0.0
O173 O 0.22344 0.94805 0.92156 0.0
O174 O 0.20812 0.84765 0.92004 0.0
C175 C 0.23418 0.111 0.93361 0.0
O176 O 0.2373 0.08387 0.92359 0.0
C177 C 0.19926 0.67969 0.93178 0.0
C178 C 0.17505 0.63585 0.93808 0.0
C179 C 0.19074 0.61551 0.93393 0.0
N180 N 0.18915 0.73543 0.93453 0.0
N181 N 0.17455 0.70929 0.93811 0.0
C182 C 0.21756 0.68831 0.92882 0.0
H183 H 0.22229 0.74257 0.93143 0.0
H184 H 0.22529 0.64548 0.93295 0.0
H185 H 0.21908 0.68295 0.91957 0.0
C186 C 0.23024 0.90416 0.95707 0.0
N187 N 0.22063 0.90552 0.94771 0.0
N188 N 0.21154 0.8457 0.94721 0.0
C189 C 0.2148 0.80487 0.9564 0.0
C190 C 0.22682 0.84037 0.96291 0.0
C191 C 0.24137 0.96563 0.96071 0.0
H192 H 0.23338 0.01349 0.96277 0.0
H193 H 0.24978 0.98145 0.95364 0.0
H194 H 0.24904 0.95103 0.9682 0.0
O195 O 0.19217 0.00325 0.93672 0.0
O196 O 0.17726 0.90109 0.93592 0.0
H197 H 0.19278 0.73717 0.95728 0.0
H198 H 0.20855 0.71605 0.96777 0.0
C199 C 0.20652 0.73338 0.95894 0.0
H200 H 0.21197 0.69087 0.95341 0.0
H201 H 0.1646 0.74134 0.94106 0.0
O202 O 0.22736 0.07066 0.94101 0.0
C203 C 0.17802 0.97032 0.93648 0.0
Co204 Co 0.53447 0.97299 0.81164 0.0
Co205 Co 0.55451 0.8281 0.81364 0.0
C206 C 0.53276 0.88799 0.8326 0.0
O207 O 0.52764 0.94238 0.82693 0.0
O208 O 0.54308 0.84228 0.82842 0.0
C209 C 0.51713 0.10613 0.81506 0.0
O210 O 0.51433 0.07912 0.82513 0.0
C211 C 0.55214 0.67461 0.81664 0.0
C212 C 0.5763 0.63141 0.81016 0.0
C213 C 0.56072 0.61066 0.81444 0.0
N214 N 0.56211 0.73061 0.81381 0.0
N215 N 0.57669 0.70485 0.81013 0.0
C216 C 0.53387 0.68276 0.81974 0.0
H217 H 0.529 0.73673 0.8171 0.0
H218 H 0.52615 0.63947 0.81573 0.0
H219 H 0.53253 0.67785 0.82901 0.0
C220 C 0.52075 0.89923 0.79142 0.0
N221 N 0.5304 0.90051 0.80075 0.0
N222 N 0.53949 0.84065 0.80123 0.0
C223 C 0.53616 0.79981 0.79205 0.0
C224 C 0.52412 0.83541 0.78556 0.0
C225 C 0.50961 0.96079 0.78781 0.0
H226 H 0.51758 0.00895 0.7859 0.0
H227 H 0.50108 0.97591 0.79486 0.0
H228 H 0.50206 0.94669 0.78025 0.0
O229 O 0.55881 -0.00158 0.81177 0.0
O230 O 0.57379 0.8964 0.81247 0.0
H231 H 0.55812 0.73181 0.79105 0.0
H232 H 0.54212 0.71025 0.78073 0.0
C233 C 0.54434 0.72808 0.78952 0.0
H234 H 0.53899 0.68595 0.79516 0.0
H235 H 0.58653 0.73716 0.80709 0.0
O236 O 0.5236 0.06551 0.80755 0.0
C237 C 0.57298 0.96563 0.81197 0.0
Co238 Co 0.21736 0.76044 0.81222 0.0
Co239 Co 0.1973 0.90543 0.81398 0.0
C240 C 0.21895 0.84659 0.83307 0.0
O241 O 0.22407 0.7918 0.82749 0.0
O242 O 0.20867 0.89214 0.8288 0.0
C243 C 0.23474 0.62735 0.8158 0.0
O244 O 0.23755 0.65466 0.82586 0.0
C245 C 0.19957 0.05933 0.8167 0.0
C246 C 0.17539 0.10147 0.81009 0.0
C247 C 0.19095 0.12293 0.81433 0.0
N248 N 0.18965 0.00288 0.81399 0.0
N249 N 0.17506 0.02804 0.81023 0.0
C250 C 0.21783 0.05173 0.81985 0.0
H251 H 0.22275 -0.00248 0.81737 0.0
H252 H 0.22554 0.09465 0.81574 0.0
H253 H 0.21912 0.05767 0.82911 0.0
C254 C 0.23128 0.83328 0.79197 0.0
N255 N 0.22152 0.83241 0.80127 0.0
N256 N 0.21242 0.89225 0.80164 0.0
C257 C 0.21582 0.93261 0.79242 0.0
C258 C 0.22794 0.89677 0.78603 0.0
C259 C 0.24248 0.77164 0.7885 0.0
H260 H 0.23455 0.7234 0.78656 0.0
H261 H 0.2509 0.75677 0.79562 0.0
H262 H 0.25016 0.78555 0.78098 0.0
O263 O 0.19302 0.73498 0.81227 0.0
O264 O 0.17804 0.83699 0.81283 0.0
H265 H 0.19385 0.00053 0.7913 0.0
H266 H 0.20985 0.02128 0.78094 0.0
C267 C 0.20763 0.00414 0.78976 0.0
H268 H 0.21299 0.04672 0.79532 0.0
H269 H 0.16526 -0.00473 0.80726 0.0
O270 O 0.22826 0.66773 0.80827 0.0
C271 C 0.17885 0.76775 0.81239 0.0
Co272 Co 0.46664 0.7209 0.56169 0.0
Co273 Co 0.44659 0.5759 0.56336 0.0
C274 C 0.46824 0.63422 0.58248 0.0
O275 O 0.47336 0.68919 0.57695 0.0
O276 O 0.45797 0.58882 0.57817 0.0
C277 C 0.48396 0.85401 0.56533 0.0
O278 O 0.48667 0.82676 0.5754 0.0
C279 C 0.44885 0.42202 0.56602 0.0
C280 C 0.42466 0.37995 0.55941 0.0
C281 C 0.44022 0.35846 0.56365 0.0
N282 N 0.43894 0.47849 0.56332 0.0
N283 N 0.42434 0.45339 0.55956 0.0
C284 C 0.46711 0.42953 0.56917 0.0
H285 H 0.47204 0.48372 0.56669 0.0
H286 H 0.47481 0.38658 0.56506 0.0
H287 H 0.46841 0.42356 0.57843 0.0
C288 C 0.48053 0.64848 0.54138 0.0
N289 N 0.47079 0.64917 0.55068 0.0
N290 N 0.46168 0.58935 0.55102 0.0
C291 C 0.46508 0.54917 0.54178 0.0
C292 C 0.47719 0.58513 0.5354 0.0
C293 C 0.49174 0.71014 0.53794 0.0
H294 H 0.48383 0.75845 0.53602 0.0
H295 H 0.50016 0.72484 0.54506 0.0
H296 H 0.49942 0.69633 0.53042 0.0
O297 O 0.44229 0.74646 0.56178 0.0
O298 O 0.42734 0.64437 0.56228 0.0
H299 H 0.44311 0.48132 0.54062 0.0
H300 H 0.45911 0.46068 0.53027 0.0
C301 C 0.45689 0.4777 0.53909 0.0
H302 H 0.46224 0.43504 0.54463 0.0
H303 H 0.41454 0.4862 0.5566 0.0
O304 O 0.47754 0.81361 0.55778 0.0
C305 C 0.42813 0.71363 0.56189 0.0
Co306 Co 0.7822 0.50737 0.56182 0.0
Co307 Co 0.80267 0.65131 0.56367 0.0
C308 C 0.78103 0.5922 0.58277 0.0
O309 O 0.77566 0.53786 0.57719 0.0
O310 O 0.79141 0.6372 0.57847 0.0
C311 C 0.76505 0.3739 0.56525 0.0
O312 O 0.76248 0.40048 0.57538 0.0
C313 C 0.79983 0.80468 0.56637 0.0
C314 C 0.82424 0.84884 0.5605 0.0
C315 C 0.80836 0.86895 0.56435 0.0
N316 N 0.81011 0.74905 0.56387 0.0
N317 N 0.82481 0.77539 0.56052 0.0
C318 C 0.78146 0.79587 0.56913 0.0
H319 H 0.77688 0.74105 0.56671 0.0
H320 H 0.7738 0.83782 0.56474 0.0
H321 H 0.77966 0.80273 0.57834 0.0
C322 C 0.76791 0.58363 0.5419 0.0
N323 N 0.77801 0.58043 0.55102 0.0
N324 N 0.78738 0.63944 0.55144 0.0
C325 C 0.78381 0.68153 0.54245 0.0
C326 C 0.7712 0.64815 0.53618 0.0
C327 C 0.75541 0.52591 0.53883 0.0
H328 H 0.76202 0.48191 0.53417 0.0
H329 H 0.74985 0.50195 0.54657 0.0
H330 H 0.74522 0.54825 0.53342 0.0
O331 O 0.80657 0.48155 0.5618 0.0
O332 O 0.82185 0.58275 0.56235 0.0
H333 H 0.80698 0.74212 0.54169 0.0
H334 H 0.79298 0.75799 0.53 0.0
C335 C 0.79357 0.74821 0.53922 0.0
H336 H 0.78815 0.79624 0.54358 0.0
H337 H 0.83492 0.74345 0.55779 0.0
O338 O 0.77131 0.4149 0.55772 0.0
C339 C 0.82084 0.51356 0.56188 0.0
Co340 Co 0.46728 0.51087 0.68645 0.0
Co341 Co 0.44737 0.65617 0.68476 0.0
C342 C 0.46861 0.59647 0.66553 0.0
O343 O 0.47377 0.54167 0.67109 0.0
O344 O 0.45846 0.64226 0.66987 0.0
C345 C 0.48475 0.37804 0.68284 0.0
O346 O 0.48742 0.40519 0.67276 0.0
C347 C 0.44987 0.80961 0.68181 0.0
C348 C 0.42588 0.85327 0.6885 0.0
C349 C 0.4414 0.8737 0.68409 0.0
N350 N 0.43989 0.7538 0.68471 0.0
N351 N 0.42542 0.77983 0.68853 0.0
C352 C 0.46807 0.80115 0.67856 0.0
H353 H 0.46925 0.80641 0.66928 0.0
H354 H 0.47293 0.747 0.68111 0.0
H355 H 0.47591 0.84414 0.68254 0.0
C356 C 0.48152 0.58372 0.7066 0.0
N357 N 0.4717 0.58299 0.69734 0.0
N358 N 0.46266 0.64304 0.69699 0.0
C359 C 0.4662 0.68345 0.70618 0.0
C360 C 0.47831 0.64738 0.71254 0.0
C361 C 0.4926 0.52171 0.71008 0.0
H362 H 0.48459 0.47383 0.71207 0.0
H363 H 0.50095 0.50636 0.70296 0.0
H364 H 0.50035 0.53548 0.71757 0.0
O365 O 0.4429 0.48579 0.68658 0.0
O366 O 0.42806 0.58825 0.68609 0.0
H367 H 0.44428 0.75154 0.70747 0.0
H368 H 0.46055 0.77276 0.71762 0.0
C369 C 0.4581 0.75516 0.70885 0.0
H370 H 0.46332 0.79741 0.70317 0.0
H371 H 0.41559 0.74771 0.69164 0.0
O372 O 0.47823 0.41832 0.69037 0.0
C373 C 0.42877 0.51899 0.68655 0.0
Co374 Co 0.78466 0.72113 0.68642 0.0
Co375 Co 0.8047 0.57617 0.68479 0.0
C376 C 0.78294 0.63406 0.66568 0.0
O377 O 0.77781 0.68907 0.6712 0.0
O378 O 0.79328 0.58893 0.66998 0.0
C379 C 0.76749 0.85426 0.68272 0.0
O380 O 0.76509 0.8273 0.6726 0.0
C381 C 0.80224 0.42268 0.682 0.0
C382 C 0.8264 0.37937 0.68848 0.0
C383 C 0.81081 0.35874 0.6842 0.0
N384 N 0.81223 0.47864 0.68481 0.0
N385 N 0.8268 0.45283 0.68851 0.0
C386 C 0.78398 0.43081 0.67891 0.0
H387 H 0.7791 0.48484 0.68151 0.0
H388 H 0.77626 0.38761 0.68294 0.0
H389 H 0.78262 0.42563 0.66964 0.0
C390 C 0.77087 0.64937 0.70679 0.0
N391 N 0.78055 0.64972 0.69746 0.0
N392 N 0.78963 0.58982 0.69712 0.0
C393 C 0.78629 0.5499 0.7064 0.0
C394 C 0.77424 0.58614 0.71279 0.0
C395 C 0.75977 0.71135 0.71025 0.0
H396 H 0.76776 0.75953 0.71212 0.0
H397 H 0.75129 0.72607 0.70316 0.0
H398 H 0.75215 0.69787 0.71782 0.0
O399 O 0.80902 0.74663 0.68629 0.0
O400 O 0.82397 0.64447 0.68587 0.0
H401 H 0.80829 0.48229 0.70762 0.0
H402 H 0.79221 0.46145 0.71792 0.0
C403 C 0.7945 0.47851 0.7091 0.0
H404 H 0.78923 0.43582 0.70353 0.0
H405 H 0.83667 0.48512 0.69151 0.0
O406 O 0.77372 0.81372 0.69032 0.0
C407 C 0.82319 0.71374 0.68622 0.0
Co408 Co 0.53397 0.25941 0.43638 0.0
Co409 Co 0.55379 0.40485 0.43452 0.0
C410 C 0.53217 0.3452 0.41549 0.0
O411 O 0.52719 0.29025 0.42109 0.0
O412 O 0.54236 0.39119 0.41974 0.0
C413 C 0.51629 0.12667 0.43295 0.0
O414 O 0.51314 0.15415 0.42295 0.0
C415 C 0.55138 0.55868 0.4318 0.0
C416 C 0.57557 0.60109 0.43836 0.0
C417 C 0.55997 0.62237 0.43416 0.0
N418 N 0.56135 0.50236 0.43448 0.0
N419 N 0.57595 0.52767 0.4382 0.0
C420 C 0.53311 0.55087 0.4287 0.0
H421 H 0.52825 0.49655 0.43116 0.0
H422 H 0.52539 0.59361 0.43284 0.0
H423 H 0.53175 0.55698 0.41944 0.0
C424 C 0.52 0.33231 0.45661 0.0
N425 N 0.52973 0.3315 0.44731 0.0
N426 N 0.53875 0.39154 0.4469 0.0
C427 C 0.53533 0.43196 0.45612 0.0
C428 C 0.52328 0.39596 0.46253 0.0
C429 C 0.50888 0.27051 0.46012 0.0
H430 H 0.51686 0.22249 0.46209 0.0
H431 H 0.50048 0.25528 0.45302 0.0
H432 H 0.50119 0.28445 0.46763 0.0
O433 O 0.55835 0.23442 0.4363 0.0
O434 O 0.57314 0.33692 0.43564 0.0
H435 H 0.55722 0.50038 0.45717 0.0
H436 H 0.54127 0.52078 0.46757 0.0
C437 C 0.54344 0.50368 0.45874 0.0
H438 H 0.53799 0.54613 0.4532 0.0
H439 H 0.58579 0.49501 0.44115 0.0
O440 O 0.52314 0.16671 0.44037 0.0
C441 C 0.57247 0.26768 0.43613 0.0
Co442 Co 0.21698 0.47017 0.43691 0.0
Co443 Co 0.19683 0.3253 0.43511 0.0
C444 C 0.21736 0.38702 0.41571 0.0
O445 O 0.22276 0.44095 0.42137 0.0
O446 O 0.20734 0.34073 0.42006 0.0
C447 C 0.23438 0.60308 0.43325 0.0
O448 O 0.237 0.57588 0.42317 0.0
C449 C 0.19916 0.17185 0.4319 0.0
C450 C 0.1754 0.12825 0.43895 0.0
C451 C 0.19077 0.10773 0.43431 0.0
N452 N 0.18929 0.22769 0.43498 0.0
N453 N 0.17494 0.20168 0.439 0.0
C454 C 0.21724 0.18035 0.42838 0.0
H455 H 0.22217 0.23453 0.43086 0.0
H456 H 0.22523 0.1374 0.43225 0.0
H457 H 0.21811 0.17517 0.41909 0.0
C458 C 0.23172 0.39535 0.45668 0.0
N459 N 0.22173 0.39681 0.4475 0.0
N460 N 0.21262 0.33698 0.44713 0.0
C461 C 0.2163 0.29593 0.45623 0.0
C462 C 0.22856 0.33139 0.46254 0.0
C463 C 0.24277 0.4573 0.46022 0.0
H464 H 0.23471 0.50457 0.46247 0.0
H465 H 0.25089 0.47397 0.45305 0.0
H466 H 0.25075 0.44282 0.46757 0.0
O467 O 0.19267 0.49509 0.43762 0.0
O468 O 0.17758 0.39338 0.43699 0.0
H469 H 0.19423 0.22903 0.45775 0.0
H470 H 0.21077 0.20628 0.46762 0.0
C471 C 0.20808 0.22454 0.45892 0.0
H472 H 0.21298 0.18233 0.45311 0.0
H473 H 0.16524 0.23381 0.44228 0.0
O474 O 0.22803 0.56264 0.44082 0.0
C475 C 0.17848 0.4625 0.43773 0.0
Co476 Co 0.53412 0.48086 0.31192 0.0
Co477 Co 0.55443 0.33648 0.31379 0.0
C478 C 0.53233 0.39441 0.33273 0.0
O479 O 0.52717 0.44906 0.32713 0.0
O480 O 0.54278 0.34935 0.32851 0.0
C481 C 0.51709 0.61441 0.3155 0.0
O482 O 0.51445 0.58737 0.32559 0.0
C483 C 0.55229 0.18252 0.31644 0.0
C484 C 0.57668 0.14086 0.3101 0.0
C485 C 0.56105 0.11908 0.31417 0.0
N486 N 0.5622 0.23917 0.31384 0.0
N487 N 0.57691 0.21431 0.31023 0.0
C488 C 0.53396 0.18973 0.31941 0.0
H489 H 0.52903 0.24383 0.31689 0.0
H490 H 0.52639 0.14663 0.31523 0.0
H491 H 0.53246 0.18376 0.32866 0.0
C492 C 0.52072 0.40775 0.29153 0.0
N493 N 0.5303 0.40889 0.30091 0.0
N494 N 0.53954 0.34943 0.30133 0.0
C495 C 0.5364 0.30911 0.29206 0.0
C496 C 0.52432 0.34452 0.28559 0.0
C497 C 0.50943 0.46891 0.288 0.0
H498 H 0.51728 0.51731 0.28602 0.0
H499 H 0.50096 0.48379 0.29509 0.0
H500 H 0.5018 0.45446 0.28048 0.0
O501 O 0.55842 0.50691 0.31221 0.0
O502 O 0.57361 0.40547 0.31282 0.0
H503 H 0.55857 0.24228 0.29111 0.0
H504 H 0.54289 0.22128 0.28055 0.0
C505 C 0.54484 0.2381 0.28942 0.0
H506 H 0.53945 0.19502 0.29487 0.0
H507 H 0.58675 0.24727 0.30736 0.0
O508 O 0.52325 0.57355 0.30791 0.0
C509 C 0.57265 0.47469 0.31242 0.0
Co510 Co 0.21623 0.26736 0.31124 0.0
Co511 Co 0.19631 0.41265 0.31324 0.0
C512 C 0.21695 0.34964 0.33249 0.0
O513 O 0.22216 0.29552 0.32679 0.0
O514 O 0.20701 0.39652 0.32821 0.0
C515 C 0.23429 0.13492 0.31444 0.0
O516 O 0.23779 0.16246 0.32438 0.0
C517 C 0.19926 0.56627 0.31597 0.0
C518 C 0.17505 0.61017 0.30969 0.0
C519 C 0.19084 0.6305 0.31366 0.0
N520 N 0.189 0.51056 0.31347 0.0
N521 N 0.1744 0.53679 0.30991 0.0
C522 C 0.21753 0.55727 0.31897 0.0
H523 H 0.22206 0.50189 0.31681 0.0
H524 H 0.22539 0.59823 0.31452 0.0
H525 H 0.21911 0.56544 0.32817 0.0
C526 C 0.23131 0.34389 0.29168 0.0
N527 N 0.2211 0.34125 0.30074 0.0
N528 N 0.212 0.40105 0.30119 0.0
C529 C 0.21589 0.44323 0.29226 0.0
C530 C 0.2284 0.40889 0.28601 0.0
C531 C 0.24345 0.28487 0.28854 0.0
H532 H 0.24901 0.26061 0.29626 0.0
H533 H 0.25368 0.30603 0.28305 0.0
H534 H 0.23654 0.24139 0.28397 0.0
O535 O 0.19185 0.24327 0.31059 0.0
O536 O 0.17694 0.34541 0.3114 0.0
H537 H 0.20727 0.52084 0.2798 0.0
H538 H 0.21196 0.55819 0.29346 0.0
C539 C 0.20645 0.51072 0.289 0.0
H540 H 0.19297 0.50551 0.29135 0.0
H541 H 0.16436 0.50475 0.3071 0.0
O542 O 0.22706 0.17475 0.30715 0.0
C543 C 0.17771 0.27631 0.31058 0.0
Co544 Co 0.96515 0.21741 0.56187 0.0
Co545 Co 0.94489 0.07319 0.56398 0.0
C546 C 0.96694 0.13284 0.58283 0.0
O547 O 0.97211 0.18714 0.57715 0.0
O548 O 0.95649 0.08758 0.57867 0.0
C549 C 0.98261 0.35061 0.56505 0.0
O550 O 0.98564 0.32386 0.57511 0.0
C551 C 0.94792 0.91987 0.56666 0.0
C552 C 0.9234 0.87536 0.56106 0.0
C553 C 0.93939 0.85548 0.56474 0.0
N554 N 0.93754 0.97535 0.56427 0.0
N555 N 0.92277 0.94879 0.56109 0.0
C556 C 0.96634 0.92898 0.56923 0.0
H557 H 0.97082 0.9838 0.56673 0.0
H558 H 0.97393 0.88701 0.5648 0.0
H559 H 0.96835 0.92246 0.57843 0.0
C560 C 0.97888 0.1419 0.54175 0.0
N561 N 0.96912 0.1445 0.55104 0.0
N562 N 0.95985 0.08522 0.55157 0.0
C563 C 0.96317 0.04347 0.54249 0.0
C564 C 0.97548 0.07751 0.53603 0.0
C565 C 0.99118 0.20007 0.53852 0.0
H566 H 0.98433 0.24416 0.53405 0.0
H567 H 0.99703 0.22373 0.54619 0.0
H568 H 0.00119 0.17827 0.53291 0.0
O569 O 0.94078 0.24282 0.56206 0.0
O570 O 0.9256 0.14141 0.56281 0.0
H571 H 0.95384 0.96643 0.53017 0.0
H572 H 0.95906 0.92866 0.54372 0.0
C573 C 0.95346 0.9764 0.53939 0.0
H574 H 0.9401 0.98211 0.54202 0.0
H575 H 0.91258 0.98058 0.55846 0.0
O576 O 0.9759 0.30991 0.55766 0.0
C577 C 0.92655 0.2106 0.56228 0.0
Co578 Co 0.28468 0.01388 0.56227 0.0
Co579 Co 0.30466 0.15896 0.56394 0.0
C580 C 0.28321 0.09999 0.58311 0.0
O581 O 0.27804 0.04519 0.57756 0.0
O582 O 0.29345 0.14547 0.57879 0.0
C583 C 0.26731 0.88095 0.56589 0.0
O584 O 0.26474 0.90801 0.57599 0.0
C585 C 0.30216 0.31242 0.56682 0.0
C586 C 0.3262 0.356 0.56021 0.0
C587 C 0.31064 0.37647 0.56457 0.0
N588 N 0.31215 0.25657 0.56396 0.0
N589 N 0.32666 0.28255 0.56018 0.0
C590 C 0.28393 0.30402 0.57001 0.0
H591 H 0.27908 0.24993 0.56743 0.0
H592 H 0.27613 0.34711 0.56602 0.0
H593 H 0.28268 0.30915 0.57929 0.0
C594 C 0.27069 0.0862 0.54201 0.0
N595 N 0.28041 0.0857 0.55132 0.0
N596 N 0.28947 0.14565 0.55166 0.0
C597 C 0.28605 0.18579 0.54242 0.0
C598 C 0.27399 0.14962 0.53604 0.0
C599 C 0.25962 0.02415 0.53852 0.0
H600 H 0.26764 0.97612 0.53663 0.0
H601 H 0.25117 0.00915 0.54562 0.0
H602 H 0.25197 0.03768 0.53098 0.0
O603 O 0.30904 0.9886 0.56225 0.0
O604 O 0.32397 0.09081 0.56272 0.0
H605 H 0.30801 0.25356 0.54115 0.0
H606 H 0.29182 0.27474 0.53095 0.0
C607 C 0.2942 0.25733 0.53974 0.0
H608 H 0.28898 0.29978 0.54538 0.0
H609 H 0.33651 0.25038 0.55712 0.0
O610 O 0.27373 0.92133 0.55835 0.0
C611 C 0.32319 0.02155 0.5623 0.0
Co612 Co 0.96674 0.01319 0.68679 0.0
Co613 Co 0.94673 0.15813 0.68482 0.0
C614 C 0.96826 0.09748 0.66579 0.0
O615 O 0.9734 0.04295 0.67142 0.0
O616 O 0.95802 0.1433 0.67004 0.0
C617 C 0.98448 0.88039 0.6836 0.0
O618 O 0.98765 0.90738 0.67357 0.0
C619 C 0.94983 0.31136 0.68208 0.0
C620 C 0.92549 0.35621 0.68796 0.0
C621 C 0.9414 0.37586 0.68411 0.0
N622 N 0.93947 0.25604 0.68459 0.0
N623 N 0.9248 0.2828 0.68793 0.0
C624 C 0.96818 0.30197 0.67932 0.0
H625 H 0.97268 0.24705 0.68177 0.0
H626 H 0.97591 0.34375 0.68369 0.0
H627 H 0.96999 0.30859 0.67011 0.0
C628 C 0.98114 0.08875 0.70671 0.0
N629 N 0.97109 0.08616 0.69756 0.0
N630 N 0.96194 0.14582 0.69709 0.0
C631 C 0.96563 0.18782 0.70608 0.0
C632 C 0.97806 0.15356 0.7124 0.0
C633 C 0.99342 0.03025 0.70983 0.0
H634 H 0.9866 0.98631 0.71436 0.0
H635 H 0.99909 0.00647 0.70211 0.0
H636 H 0.00356 0.05175 0.71537 0.0
O637 O 0.94232 0.98837 0.68681 0.0
O638 O 0.92738 0.09051 0.68614 0.0
H639 H 0.94274 0.25042 0.70678 0.0
H640 H 0.95685 0.26574 0.71844 0.0
C641 C 0.95619 0.25549 0.70924 0.0
H642 H 0.96181 0.3028 0.7048 0.0
H643 H 0.91465 0.25115 0.69067 0.0
O644 O 0.97751 0.92065 0.69094 0.0
C645 C 0.92816 0.02129 0.68666 0.0
Co646 Co 0.28492 0.22207 0.68706 0.0
Co647 Co 0.30479 0.07671 0.68524 0.0
C648 C 0.28332 0.13663 0.66615 0.0
O649 O 0.27824 0.19143 0.67174 0.0
O650 O 0.29351 0.09078 0.67043 0.0
C651 C 0.26731 0.35481 0.68361 0.0
O652 O 0.26442 0.32761 0.67356 0.0
C653 C 0.30217 0.9233 0.6823 0.0
C654 C 0.32624 0.87941 0.68883 0.0
C655 C 0.31064 0.85913 0.68452 0.0
N656 N 0.31222 0.97902 0.68513 0.0
N657 N 0.32674 0.95285 0.68886 0.0
C658 C 0.28393 0.93194 0.67916 0.0
H659 H 0.27914 0.98615 0.68174 0.0
H660 H 0.27613 0.88905 0.6832 0.0
H661 H 0.28261 0.92666 0.6699 0.0
C662 C 0.27085 0.149 0.70725 0.0
N663 N 0.28062 0.14988 0.69796 0.0
N664 N 0.28965 0.08985 0.69756 0.0
C665 C 0.28618 0.04931 0.70675 0.0
C666 C 0.2741 0.08528 0.71315 0.0
C667 C 0.25974 0.21084 0.71076 0.0
H668 H 0.26773 0.25881 0.71274 0.0
H669 H 0.25135 0.22614 0.70365 0.0
H670 H 0.25204 0.19691 0.71827 0.0
O671 O 0.30932 0.24703 0.68706 0.0
O672 O 0.32414 0.14454 0.68647 0.0
H673 H 0.30808 0.98097 0.70787 0.0
H674 H 0.29199 0.96011 0.71816 0.0
C675 C 0.29428 0.97755 0.70937 0.0
H676 H 0.28893 0.93528 0.70375 0.0
H677 H 0.33663 0.98488 0.6919 0.0
O678 O 0.27403 0.31463 0.69107 0.0
C679 C 0.32344 0.2138 0.68694 0.0
Co680 Co 0.03489 0.7671 0.43639 0.0
Co681 Co 0.05648 0.90803 0.43683 0.0
C682 C 0.03768 0.85456 0.41598 0.0
O683 O 0.03005 0.80304 0.421 0.0
O684 O 0.04821 0.89473 0.42117 0.0
C685 C 0.02068 0.632 0.43096 0.0
O686 O 0.02201 0.65822 0.4207 0.0
C687 C 0.05454 0.06147 0.43404 0.0
C688 C 0.07772 0.10472 0.44193 0.0
C689 C 0.06276 0.12542 0.43675 0.0
N690 N 0.06412 0.00546 0.4374 0.0
N691 N 0.07812 0.03124 0.44198 0.0
C692 C 0.03689 0.05318 0.42964 0.0
H693 H 0.03712 0.05697 0.42031 0.0
H694 H 0.03158 -0.00053 0.432 0.0
H695 H 0.02859 0.09696 0.43294 0.0
C696 C 0.0185 0.83905 0.45597 0.0
N697 N 0.02966 0.83725 0.44741 0.0
N698 N 0.03921 0.89571 0.44781 0.0
C699 C 0.03461 0.93622 0.45677 0.0
C700 C 0.02121 0.90218 0.46217 0.0
C701 C 0.00563 0.7811 0.45813 0.0
H702 H 0.01171 0.73565 0.46278 0.0
H703 H 0.00081 0.7594 0.45002 0.0
H704 H 0.99498 0.80242 0.46324 0.0
O705 O 0.05921 0.73926 0.43753 0.0
O706 O 0.07499 0.83844 0.43934 0.0
H707 H 0.04197 0.01148 0.46994 0.0
H708 H 0.03972 0.05045 0.4561 0.0
C709 C 0.04407 0.00182 0.46082 0.0
H710 H 0.05779 -0.00558 0.45937 0.0
H711 H 0.08756 -0.00108 0.44554 0.0
O712 O 0.02337 0.67408 0.43926 0.0
C713 C 0.07356 0.76942 0.43889 0.0
Co714 Co 0.71815 0.98068 0.43639 0.0
Co715 Co 0.69791 0.8361 0.43484 0.0
C716 C 0.71969 0.89285 0.41571 0.0
O717 O 0.72489 0.94768 0.42123 0.0
O718 O 0.70932 0.84794 0.42002 0.0
C719 C 0.73462 0.1136 0.432 0.0
O720 O 0.7358 0.08568 0.42185 0.0
C721 C 0.70183 0.68221 0.43453 0.0
C722 C 0.67601 0.63788 0.43612 0.0
C723 C 0.69288 0.61829 0.43536 0.0
N724 N 0.69092 0.73786 0.43499 0.0
N725 N 0.67544 0.71138 0.43585 0.0
C726 C 0.72055 0.69019 0.43312 0.0
H727 H 0.72415 0.7479 0.43186 0.0
H728 H 0.72714 0.669 0.44068 0.0
H729 H 0.7248 0.65724 0.4258 0.0
C730 C 0.73198 0.90785 0.45681 0.0
N731 N 0.72224 0.90947 0.4475 0.0
N732 N 0.71268 0.85099 0.44727 0.0
C733 C 0.71557 0.81149 0.45664 0.0
C734 C 0.72816 0.8452 0.46287 0.0
C735 C 0.74454 0.96551 0.45979 0.0
H736 H 0.73797 0.00998 0.46436 0.0
H737 H 0.75018 0.98873 0.45202 0.0
H738 H 0.75466 0.94329 0.46528 0.0
O739 O 0.69365 0.00588 0.43625 0.0
O740 O 0.67861 0.90386 0.43575 0.0
H741 H 0.69197 0.75305 0.45683 0.0
H742 H 0.70385 0.74796 0.46977 0.0
C743 C 0.70484 0.74893 0.46045 0.0
H744 H 0.71069 0.69701 0.45774 0.0
H745 H 0.66456 0.7433 0.4364 0.0
O746 O 0.72922 0.07388 0.43999 0.0
C747 C 0.67945 0.97312 0.43612 0.0
Co748 Co 0.03507 0.96704 0.31157 0.0
Co749 Co 0.05637 0.82515 0.31157 0.0
C750 C 0.03719 0.88035 0.33212 0.0
O751 O 0.02979 0.93178 0.32693 0.0
O752 O 0.04777 0.83944 0.32713 0.0
C753 C 0.02023 0.10176 0.31677 0.0
O754 O 0.02082 0.07521 0.32704 0.0
C755 C 0.0547 0.67176 0.31476 0.0
C756 C 0.07756 0.6286 0.30644 0.0
C757 C 0.06285 0.60779 0.31193 0.0
N758 N 0.06408 0.72778 0.31115 0.0
N759 N 0.0779 0.70205 0.30634 0.0
C760 C 0.03713 0.68005 0.31931 0.0
H761 H 0.03167 0.7332 0.31678 0.0
H762 H 0.02883 0.6356 0.31624 0.0
H763 H 0.03756 0.6777 0.32864 0.0
C764 C 0.01954 0.89643 0.29162 0.0
N765 N 0.0301 0.89678 0.30052 0.0
N766 N 0.03947 0.83769 0.30031 0.0
C767 C 0.03537 0.79819 0.29113 0.0
C768 C 0.02259 0.83398 0.28534 0.0
C769 C 0.00798 0.95807 0.28873 0.0
H770 H 0.01567 0.00655 0.28651 0.0
H771 H 1.00026 0.97242 0.29621 0.0
H772 H 0.9996 0.94441 0.28154 0.0
O773 O 0.05944 -0.00564 0.31068 0.0
O774 O 0.07501 0.8943 0.3092 0.0
H775 H 0.05759 0.73426 0.28825 0.0
H776 H 0.03994 0.70934 0.27938 0.0
C777 C 0.04368 0.72792 0.2879 0.0
H778 H 0.03991 0.68508 0.29397 0.0
H779 H 0.08713 0.73438 0.30254 0.0
O780 O 0.02362 0.06008 0.30854 0.0
C781 C 0.07375 0.96341 0.30953 0.0
Co782 Co 0.71698 0.77037 0.31189 0.0
Co783 Co 0.69673 0.91494 0.31369 0.0
C784 C 0.71867 0.85689 0.33269 0.0
O785 O 0.72383 0.80222 0.3271 0.0
O786 O 0.70828 0.90212 0.32846 0.0
C787 C 0.73399 0.63692 0.31556 0.0
O788 O 0.73656 0.6641 0.32565 0.0
C789 C 0.69878 0.06896 0.31636 0.0
C790 C 0.67447 0.11036 0.30983 0.0
C791 C 0.69002 0.13229 0.31402 0.0
N792 N 0.68894 0.0122 0.31368 0.0
N793 N 0.67428 0.03691 0.30996 0.0
C794 C 0.71706 0.06193 0.31945 0.0
H795 H 0.72206 0.00794 0.31693 0.0
H796 H 0.72467 0.1052 0.31534 0.0
H797 H 0.71841 0.06773 0.32871 0.0
C798 C 0.73045 0.84291 0.29149 0.0
N799 N 0.72089 0.84218 0.30088 0.0
N800 N 0.71172 0.90184 0.30127 0.0
C801 C 0.7149 0.94195 0.29199 0.0
C802 C 0.72693 0.90611 0.28553 0.0
C803 C 0.74159 0.78123 0.28794 0.0
H804 H 0.73363 0.73302 0.28606 0.0
H805 H 0.75011 0.76634 0.295 0.0
H806 H 0.74915 0.79511 0.28038 0.0
O807 O 0.69269 0.74443 0.31212 0.0
O808 O 0.67755 0.84599 0.31268 0.0
H809 H 0.69277 0.00883 0.29088 0.0
H810 H 0.70869 0.03023 0.2805 0.0
C811 C 0.70653 0.01307 0.28933 0.0
H812 H 0.71179 0.05593 0.29488 0.0
H813 H 0.6645 0.00384 0.30703 0.0
O814 O 0.72787 0.67765 0.30794 0.0
C815 C 0.67847 0.77676 0.31229 0.0
Co816 Co 0.96689 0.73073 0.0615 0.0
Co817 Co 0.94704 0.58556 0.06369 0.0
C818 C 0.96868 0.64721 0.08257 0.0
O819 O 0.9737 0.70166 0.07687 0.0
O820 O 0.95846 0.601 0.07841 0.0
C821 C 0.98491 0.86321 0.06447 0.0
O822 O 0.98846 0.83605 0.07443 0.0
C823 C 0.95032 0.43237 0.06645 0.0
C824 C 0.92592 0.38717 0.06074 0.0
C825 C 0.94191 0.36774 0.06447 0.0
N826 N 0.93987 0.48754 0.06402 0.0
N827 N 0.92517 0.46057 0.06079 0.0
C828 C 0.9687 0.44205 0.06908 0.0
H829 H 0.97309 0.49714 0.06665 0.0
H830 H 0.97641 0.40056 0.06462 0.0
H831 H 0.97067 0.43519 0.07827 0.0
C832 C 0.98109 0.6549 0.04155 0.0
N833 N 0.97121 0.65743 0.05078 0.0
N834 N 0.96211 0.59769 0.05133 0.0
C835 C 0.96565 0.55569 0.04232 0.0
C836 C 0.97794 0.59006 0.03589 0.0
C837 C 0.99323 0.71365 0.0383 0.0
H838 H 0.98625 0.75743 0.03384 0.0
H839 H 0.99904 0.73758 0.04596 0.0
H840 H 0.00327 0.69233 0.03267 0.0
O841 O 0.94246 0.75519 0.06153 0.0
O842 O 0.92762 0.65285 0.06237 0.0
H843 H 0.94273 0.49325 0.0418 0.0
H844 H 0.9566 0.47797 0.03002 0.0
C845 C 0.95613 0.48812 0.03923 0.0
H846 H 0.96182 0.44072 0.0436 0.0
H847 H 0.91495 0.49206 0.05812 0.0
O848 O 0.97759 0.82321 0.05725 0.0
C849 C 0.92833 0.72206 0.06175 0.0
Co850 Co 0.28463 0.51446 0.0616 0.0
Co851 Co 0.30505 0.65857 0.06314 0.0
C852 C 0.28337 0.60152 0.08235 0.0
O853 O 0.278 0.54685 0.07685 0.0
O854 O 0.29379 0.64609 0.078 0.0
C855 C 0.26801 0.38078 0.0655 0.0
O856 O 0.26615 0.40744 0.07569 0.0
C857 C 0.30289 0.81218 0.06595 0.0
C858 C 0.32705 0.85476 0.05937 0.0
C859 C 0.31154 0.87588 0.06373 0.0
N860 N 0.31276 0.7559 0.0631 0.0
N861 N 0.32733 0.78129 0.05933 0.0
C862 C 0.28465 0.80461 0.06913 0.0
H863 H 0.27966 0.75076 0.06654 0.0
H864 H 0.27696 0.84808 0.06514 0.0
H865 H 0.28339 0.80978 0.0784 0.0
C866 C 0.27084 0.58695 0.04128 0.0
N867 N 0.28059 0.58606 0.05057 0.0
N868 N 0.28984 0.64549 0.05087 0.0
C869 C 0.28653 0.6856 0.04161 0.0
C870 C 0.27433 0.65002 0.03526 0.0
C871 C 0.25952 0.52563 0.03785 0.0
H872 H 0.26736 0.47717 0.03587 0.0
H873 H 0.25115 0.51098 0.04501 0.0
H874 H 0.25179 0.53977 0.03037 0.0
O875 O 0.30893 0.48812 0.06166 0.0
O876 O 0.32417 0.58946 0.06199 0.0
H877 H 0.3087 0.75207 0.04032 0.0
H878 H 0.29261 0.77376 0.03007 0.0
C879 C 0.29491 0.75656 0.03888 0.0
H880 H 0.2898 0.79952 0.04447 0.0
H881 H 0.33712 0.7487 0.05628 0.0
O882 O 0.27359 0.42192 0.05776 0.0
C883 C 0.32319 0.52023 0.06167 0.0
Co884 Co 0.96615 0.51273 0.18606 0.0
Co885 Co 0.94595 0.65735 0.18417 0.0
C886 C 0.96819 0.59939 0.1653 0.0
O887 O 0.97326 0.54461 0.1709 0.0
O888 O 0.95772 0.64448 0.16949 0.0
C889 C 0.98338 0.37939 0.18258 0.0
O890 O 0.98621 0.40649 0.17251 0.0
C891 C 0.94826 0.81125 0.18155 0.0
C892 C 0.92387 0.85333 0.18783 0.0
C893 C 0.93956 0.87482 0.1838 0.0
N894 N 0.93827 0.75477 0.18411 0.0
N895 N 0.92357 0.77988 0.18768 0.0
C896 C 0.96661 0.80371 0.17863 0.0
H897 H 0.97147 0.74955 0.18118 0.0
H898 H 0.97419 0.8467 0.18283 0.0
H899 H 0.96817 0.8096 0.16939 0.0
C900 C 0.9795 0.58554 0.20648 0.0
N901 N 0.96992 0.58451 0.19711 0.0
N902 N 0.96073 0.64408 0.19669 0.0
C903 C 0.96388 0.68437 0.20596 0.0
C904 C 0.97594 0.6488 0.21242 0.0
C905 C 0.99082 0.52438 0.20999 0.0
H906 H 0.983 0.47571 0.21185 0.0
H907 H 0.99937 0.51009 0.20292 0.0
H908 H 0.99835 0.53849 0.21756 0.0
O909 O 0.94183 0.48694 0.18568 0.0
O910 O 0.92672 0.5886 0.18506 0.0
H911 H 0.94184 0.75203 0.20681 0.0
H912 H 0.95745 0.77237 0.21744 0.0
C913 C 0.95556 0.75569 0.20856 0.0
H914 H 0.9611 0.79859 0.20314 0.0
H915 H 0.91367 0.74709 0.19051 0.0
O916 O 0.97697 0.42003 0.1901 0.0
C917 C 0.92762 0.51936 0.18544 0.0
Co918 Co 0.28451 0.72744 0.18632 0.0
Co919 Co 0.30441 0.58219 0.18455 0.0
C920 C 0.28319 0.64266 0.16536 0.0
O921 O 0.27804 0.69745 0.17092 0.0
O922 O 0.29333 0.59676 0.16969 0.0
C923 C 0.26669 0.86004 0.183 0.0
O924 O 0.2636 0.83293 0.17297 0.0
C925 C 0.30123 0.42901 0.18186 0.0
C926 C 0.32547 0.38389 0.18787 0.0
C927 C 0.30959 0.36443 0.18394 0.0
N928 N 0.3116 0.48421 0.18441 0.0
N929 N 0.32621 0.4573 0.18783 0.0
C930 C 0.28291 0.43859 0.179 0.0
H931 H 0.27843 0.4936 0.1814 0.0
H932 H 0.27511 0.39696 0.18334 0.0
H933 H 0.28122 0.43183 0.16978 0.0
C934 C 0.26984 0.6528 0.20622 0.0
N935 N 0.27995 0.65482 0.1971 0.0
N936 N 0.28904 0.59499 0.19672 0.0
C937 C 0.28524 0.5534 0.20572 0.0
C938 C 0.27281 0.58817 0.21198 0.0
C939 C 0.25763 0.71176 0.20927 0.0
H940 H 0.25194 0.73506 0.20153 0.0
H941 H 0.2475 0.69088 0.21487 0.0
H942 H 0.26453 0.75592 0.2137 0.0
O943 O 0.30895 0.75192 0.18651 0.0
O944 O 0.32379 0.6495 0.18597 0.0
H945 H 0.29384 0.47573 0.21818 0.0
H946 H 0.28902 0.43835 0.20454 0.0
C947 C 0.29461 0.48572 0.20898 0.0
H948 H 0.30808 0.49057 0.20658 0.0
H949 H 0.33634 0.48884 0.19062 0.0
O950 O 0.27369 0.82003 0.19037 0.0
C951 C 0.32308 0.71874 0.18648 0.0
Co952 Co 0.03288 0.26047 0.93646 0.0
Co953 Co 0.05306 0.4051 0.93486 0.0
C954 C 0.0315 0.34696 0.91567 0.0
O955 O 0.02628 0.29194 0.92116 0.0
O956 O 0.04178 0.39209 0.92003 0.0
C957 C 0.01549 0.12731 0.93291 0.0
O958 O 0.01271 0.15433 0.92283 0.0
C959 C 0.0503 0.55882 0.9325 0.0
C960 C 0.07474 0.60191 0.93851 0.0
C961 C 0.05889 0.62271 0.93469 0.0
N962 N 0.06052 0.50276 0.93488 0.0
N963 N 0.07524 0.52848 0.9383 0.0
C964 C 0.03194 0.55055 0.92968 0.0
H965 H 0.0273 0.49563 0.932 0.0
H966 H 0.0243 0.59233 0.93412 0.0
H967 H 0.0302 0.55803 0.92048 0.0
C968 C 0.01853 0.33442 0.95655 0.0
N969 N 0.02858 0.3325 0.9474 0.0
N970 N 0.0378 0.39198 0.94708 0.0
C971 C 0.03416 0.43317 0.95616 0.0
C972 C 0.02168 0.39859 0.9624 0.0
C973 C 0.0062 0.27585 0.95955 0.0
H974 H 0.01299 0.23138 0.96397 0.0
H975 H 0.00051 0.25289 0.95178 0.0
H976 H 0.99609 0.29702 0.96514 0.0
O977 O 0.05726 0.23499 0.93647 0.0
O978 O 0.0723 0.33686 0.93606 0.0
H979 H 0.05715 0.49493 0.95703 0.0
H980 H 0.04305 0.50955 0.96871 0.0
C981 C 0.04371 0.50021 0.95949 0.0
H982 H 0.03818 0.54814 0.95516 0.0
H983 H 0.08531 0.49608 0.94097 0.0
O984 O 0.02202 0.16776 0.94041 0.0
C985 C 0.07145 0.26762 0.93644 0.0
Co986 Co 0.71772 0.48156 0.93638 0.0
Co987 Co 0.69785 0.33609 0.93456 0.0
C988 C 0.71937 0.3955 0.91551 0.0
O989 O 0.72438 0.45026 0.92112 0.0
O990 O 0.70918 0.34955 0.91976 0.0
C991 C 0.73504 0.61369 0.93237 0.0
O992 O 0.73719 0.58526 0.92232 0.0
C993 C 0.70202 0.18228 0.93388 0.0
C994 C 0.67632 0.13712 0.93576 0.0
C995 C 0.69319 0.11806 0.93474 0.0
N996 N 0.69103 0.2376 0.93453 0.0
N997 N 0.67562 0.21061 0.93555 0.0
C998 C 0.72071 0.19084 0.93239 0.0
H999 H 0.72426 0.24886 0.93144 0.0
H1000 H 0.72743 0.16777 0.93977 0.0
H1001 H 0.72485 0.15978 0.92486 0.0
C1002 C 0.73192 0.40737 0.95657 0.0
N1003 N 0.72207 0.40948 0.94731 0.0
N1004 N 0.71267 0.35055 0.94698 0.0
C1005 C 0.71577 0.31024 0.95623 0.0
C1006 C 0.72833 0.3439 0.96249 0.0
C1007 C 0.74436 0.46531 0.95964 0.0
H1008 H 0.74995 0.48925 0.95191 0.0
H1009 H 0.75454 0.44312 0.96509 0.0
H1010 H 0.73771 0.50923 0.96428 0.0
O1011 O 0.69317 0.50579 0.93638 0.0
O1012 O 0.67842 0.40305 0.93565 0.0
H1013 H 0.70441 0.24456 0.96926 0.0
H1014 H 0.71125 0.19545 0.95705 0.0
C1015 C 0.70527 0.24667 0.95993 0.0
H1016 H 0.69234 0.25049 0.9564 0.0
H1017 H 0.66471 0.24218 0.9363 0.0
O1018 O 0.7287 0.57472 0.94013 0.0
C1019 C 0.67907 0.47231 0.93619 0.0
Co1020 Co 0.03389 0.47636 0.8119 0.0
Co1021 Co 0.05409 0.33187 0.81372 0.0
C1022 C 0.03234 0.39078 0.83277 0.0
O1023 O 0.02713 0.44549 0.82721 0.0
O1024 O 0.04269 0.34561 0.82849 0.0
C1025 C 0.01654 0.60957 0.81531 0.0
O1026 O 0.01381 0.58282 0.82541 0.0
C1027 C 0.05118 0.17854 0.81635 0.0
C1028 C 0.0756 0.13425 0.81051 0.0
C1029 C 0.0597 0.11425 0.81435 0.0
N1030 N 0.06147 0.2341 0.81386 0.0
N1031 N 0.07618 0.2077 0.81054 0.0
C1032 C 0.0328 0.18743 0.81909 0.0
H1033 H 0.02823 0.24219 0.81663 0.0
H1034 H 0.02515 0.14538 0.81473 0.0
H1035 H 0.03098 0.18082 0.8283 0.0
C1036 C 0.01965 0.4014 0.79187 0.0
N1037 N 0.02969 0.40388 0.80102 0.0
N1038 N 0.03891 0.34442 0.80144 0.0
C1039 C 0.03528 0.30266 0.79242 0.0
C1040 C 0.0228 0.33687 0.78612 0.0
C1041 C 0.00727 0.45966 0.78881 0.0
H1042 H 0.01402 0.50391 0.78431 0.0
H1043 H 0.00159 0.48306 0.79655 0.0
H1044 H 0.99715 0.43806 0.78327 0.0
O1045 O 0.05827 0.50178 0.81197 0.0
O1046 O 0.07335 0.40001 0.81251 0.0
H1047 H 0.05822 0.24044 0.79167 0.0
H1048 H 0.04411 0.22517 0.78001 0.0
C1049 C 0.04478 0.23521 0.78922 0.0
H1050 H 0.0392 0.18772 0.79363 0.0
H1051 H 0.0863 0.23959 0.80782 0.0
O1052 O 0.02305 0.5689 0.80783 0.0
C1053 C 0.07248 0.46924 0.81208 0.0
Co1054 Co 0.71626 0.26669 0.81174 0.0
Co1055 Co 0.69627 0.4118 0.81371 0.0
C1056 C 0.7181 0.35228 0.83264 0.0
O1057 O 0.72312 0.29766 0.82698 0.0
O1058 O 0.7078 0.39813 0.82847 0.0
C1059 C 0.73369 0.13367 0.8152 0.0
O1060 O 0.73672 0.16109 0.82522 0.0
C1061 C 0.69846 0.56575 0.81646 0.0
C1062 C 0.6742 0.60759 0.80994 0.0
C1063 C 0.68977 0.62925 0.81412 0.0
N1064 N 0.68857 0.50918 0.81378 0.0
N1065 N 0.67393 0.53415 0.81007 0.0
C1066 C 0.71674 0.55836 0.81956 0.0
H1067 H 0.7181 0.56417 0.82882 0.0
H1068 H 0.72168 0.50424 0.81705 0.0
H1069 H 0.7244 0.60143 0.81544 0.0
C1070 C 0.72993 0.33983 0.79147 0.0
N1071 N 0.72032 0.33892 0.80082 0.0
N1072 N 0.71125 0.39886 0.80128 0.0
C1073 C 0.71455 0.43934 0.79205 0.0
C1074 C 0.72655 0.40346 0.78558 0.0
C1075 C 0.741 0.27804 0.78788 0.0
H1076 H 0.73299 0.23003 0.78596 0.0
H1077 H 0.7495 0.26277 0.79493 0.0
H1078 H 0.74858 0.29198 0.78032 0.0
O1079 O 0.69193 0.24133 0.8119 0.0
O1080 O 0.67699 0.34342 0.81261 0.0
H1081 H 0.69255 0.50716 0.79103 0.0
H1082 H 0.70848 0.52817 0.78063 0.0
C1083 C 0.70632 0.51087 0.78945 0.0
H1084 H 0.7117 0.55337 0.79502 0.0
H1085 H 0.66413 0.50126 0.80713 0.0
O1086 O 0.72709 0.17401 0.80771 0.0
C1087 C 0.67777 0.27419 0.81211 0.0
H1088 H 0.46813 0.01703 0.09577 0.0
H1089 H 0.46685 0.23 0.15304 0.0
H1090 H 0.4791 0.24706 0.09727 0.0
H1091 H 0.47942 0.00146 0.15155 0.0
H1092 H 0.47099 0.2383 0.13265 0.0
H1093 H 0.47193 0.00951 0.11619 0.0
C1094 C 0.47155 0.06576 0.10038 0.0
C1095 C 0.47321 0.13285 0.09483 0.0
C1096 C 0.4731 0.18663 0.13682 0.0
C1097 C 0.47726 0.12485 0.11819 0.0
C1098 C 0.47069 0.1818 0.14844 0.0
C1099 C 0.47269 0.11483 0.15398 0.0
C1100 C 0.47715 0.12372 0.13066 0.0
C1101 C 0.47774 0.05416 0.14762 0.0
C1102 C 0.47377 0.06138 0.11202 0.0
C1103 C 0.47771 0.19424 0.10122 0.0
N1104 N 0.47951 0.05975 0.13626 0.0
N1105 N 0.47929 0.18904 0.1126 0.0
H1106 H 0.77041 0.98415 0.09678 0.0
H1107 H 0.76892 0.24318 0.15092 0.0
H1108 H 0.78051 0.21497 0.09539 0.0
H1109 H 0.7822 0.01533 0.1523 0.0
H1110 H 0.76467 0.23172 0.13054 0.0
H1111 H 0.76624 -0.00566 0.1172 0.0
C1112 C 0.77143 0.03716 0.10073 0.0
C1113 C 0.77601 0.09871 0.09442 0.0
C1114 C 0.76827 0.18412 0.13537 0.0
C1115 C 0.77114 0.11061 0.11766 0.0
C1116 C 0.77062 0.19045 0.14698 0.0
C1117 C 0.7761 0.13025 0.15329 0.0
C1118 C 0.77116 0.11691 0.13007 0.0
C1119 C 0.77815 0.06329 0.14774 0.0
C1120 C 0.76913 0.0428 0.11236 0.0
C1121 C 0.7772 0.16603 0.09997 0.0
N1122 N 0.77575 0.05846 0.13643 0.0
N1123 N 0.77486 0.17016 0.11129 0.0
H1124 H 0.52178 0.73846 0.9013 0.0
H1125 H 0.52109 -0.00575 0.8468 0.0
H1126 H 0.53261 0.96874 0.90241 0.0
H1127 H 0.5336 0.76553 0.8457 0.0
H1128 H 0.517 0.98439 0.86721 0.0
H1129 H 0.5178 0.74767 0.88086 0.0
C1130 C 0.523 0.79118 0.89729 0.0
C1131 C 0.52771 0.85284 0.90354 0.0
C1132 C 0.52041 0.93626 0.86244 0.0
C1133 C 0.52307 0.86361 0.88025 0.0
C1134 C 0.52266 0.94169 0.85081 0.0
C1135 C 0.52787 0.88073 0.84457 0.0
C1136 C 0.5231 0.86921 0.86783 0.0
C1137 C 0.52976 0.81403 0.85021 0.0
C1138 C 0.52081 0.79625 0.88564 0.0
C1139 C 0.52917 0.91972 0.89789 0.0
N1140 N 0.52745 0.81009 0.86154 0.0
N1141 N 0.52693 0.92331 0.88655 0.0
H1142 H 0.23044 0.74109 0.84745 0.0
H1143 H 0.2296 0.00019 0.90158 0.0
H1144 H 0.21818 0.96997 0.84597 0.0
H1145 H 0.21826 0.77043 0.90293 0.0
H1146 H 0.23382 0.98963 0.88118 0.0
H1147 H 0.23441 0.75221 0.86786 0.0
C1148 C 0.2289 0.79394 0.85138 0.0
C1149 C 0.22379 0.85458 0.84503 0.0
C1150 C 0.23065 0.94146 0.886 0.0
C1151 C 0.22841 0.86753 0.86828 0.0
C1152 C 0.22832 0.9473 0.89763 0.0
C1153 C 0.2234 0.88619 0.90393 0.0
C1154 C 0.22832 0.87387 0.8807 0.0
C1155 C 0.22187 0.81904 0.89837 0.0
C1156 C 0.23109 0.80009 0.86301 0.0
C1157 C 0.22193 0.92169 0.85057 0.0
N1158 N 0.22425 0.8147 0.88706 0.0
N1159 N 0.22418 0.92634 0.86189 0.0
H1160 H 0.46804 0.72013 0.65273 0.0
H1161 H 0.46758 0.51031 0.59524 0.0
H1162 H 0.47938 0.4905 0.65096 0.0
H1163 H 0.47944 0.73943 0.59702 0.0
H1164 H 0.47179 0.50104 0.6156 0.0
H1165 H 0.47209 0.72905 0.63236 0.0
C1166 C 0.4716 0.67178 0.64808 0.0
C1167 C 0.47326 0.60438 0.65354 0.0
C1168 C 0.47374 0.55307 0.61151 0.0
C1169 C 0.47762 0.61398 0.63022 0.0
C1170 C 0.47129 0.55846 0.5999 0.0
C1171 C 0.47305 0.62586 0.59445 0.0
C1172 C 0.47759 0.61584 0.61775 0.0
C1173 C 0.47794 0.68642 0.60089 0.0
C1174 C 0.47396 0.67696 0.63646 0.0
C1175 C 0.47796 0.54353 0.64709 0.0
N1176 N 0.47975 0.68027 0.61224 0.0
N1177 N 0.47968 0.5495 0.63573 0.0
H1178 H 0.78377 0.50976 0.65301 0.0
H1179 H 0.78133 0.71657 0.59537 0.0
H1180 H 0.77108 0.73805 0.65115 0.0
H1181 H 0.7706 0.48655 0.59749 0.0
H1182 H 0.77759 0.72635 0.61576 0.0
H1183 H 0.77902 0.49927 0.63273 0.0
C1184 C 0.77977 0.55746 0.64836 0.0
C1185 C 0.77794 0.625 0.65377 0.0
C1186 C 0.77577 0.67399 0.61174 0.0
C1187 C 0.77276 0.61359 0.63054 0.0
C1188 C 0.77796 0.66831 0.60011 0.0
C1189 C 0.77639 0.60054 0.59475 0.0
C1190 C 0.7724 0.61115 0.61808 0.0
C1191 C 0.77193 0.53983 0.60129 0.0
C1192 C 0.777 0.55137 0.6368 0.0
C1193 C 0.77266 0.68496 0.64733 0.0
N1194 N 0.7704 0.54629 0.61266 0.0
N1195 N 0.77055 0.67816 0.63601 0.0
H1196 H 0.52113 0.23898 0.40108 0.0
H1197 H 0.52063 0.4995 0.34712 0.0
H1198 H 0.53234 0.4688 0.40265 0.0
H1199 H 0.533 0.27076 0.34556 0.0
H1200 H 0.51648 0.4879 0.36751 0.0
H1201 H 0.51705 0.25014 0.38067 0.0
C1202 C 0.52241 0.29201 0.39717 0.0
C1203 C 0.52726 0.35296 0.40354 0.0
C1204 C 0.51987 0.44015 0.36264 0.0
C1205 C 0.52251 0.36595 0.3803 0.0
C1206 C 0.52215 0.44657 0.35102 0.0
C1207 C 0.52735 0.38611 0.34466 0.0
C1208 C 0.52252 0.37261 0.36789 0.0
C1209 C 0.52918 0.3189 0.35016 0.0
C1210 C 0.52017 0.29819 0.38554 0.0
C1211 C 0.5288 0.4203 0.39804 0.0
N1212 N 0.52684 0.31399 0.36148 0.0
N1213 N 0.5265 0.42497 0.38672 0.0
H1214 H 0.2274 0.2412 0.3467 0.0
H1215 H 0.22824 0.49449 0.40147 0.0
H1216 H 0.21636 0.47135 0.34577 0.0
H1217 H 0.21598 0.26551 0.40241 0.0
H1218 H 0.23175 0.48584 0.381 0.0
H1219 H 0.2311 0.24957 0.36716 0.0
C1220 C 0.22604 0.29369 0.35077 0.0
C1221 C 0.2214 0.35557 0.34455 0.0
C1222 C 0.2285 0.43742 0.38573 0.0
C1223 C 0.22571 0.36539 0.36787 0.0
C1224 C 0.22658 0.44216 0.39741 0.0
C1225 C 0.22166 0.38072 0.40363 0.0
C1226 C 0.22576 0.37058 0.3803 0.0
C1227 C 0.21962 0.31435 0.39792 0.0
C1228 C 0.22807 0.29828 0.36243 0.0
C1229 C 0.21975 0.42217 0.35026 0.0
N1230 N 0.22163 0.31105 0.38656 0.0
N1231 N 0.22186 0.4253 0.36161 0.0
H1232 H 0.96803 0.22101 0.65297 0.0
H1233 H 0.96652 0.00936 0.59567 0.0
H1234 H 0.97887 0.99091 0.65129 0.0
H1235 H 0.97846 0.23848 0.59718 0.0
H1236 H 0.97114 0.00064 0.61599 0.0
H1237 H 0.97197 0.22934 0.63258 0.0
C1238 C 0.97146 0.17243 0.64833 0.0
C1239 C 0.973 0.10505 0.65381 0.0
C1240 C 0.97302 0.05256 0.61184 0.0
C1241 C 0.97723 0.114 0.63048 0.0
C1242 C 0.97033 0.05764 0.60026 0.0
C1243 C 0.97198 0.12488 0.59475 0.0
C1244 C 0.97701 0.11549 0.61801 0.0
C1245 C 0.97703 0.1856 0.6011 0.0
C1246 C 0.97377 0.17727 0.6367 0.0
C1247 C 0.97755 0.04391 0.64739 0.0
N1248 N 0.97907 0.17976 0.61244 0.0
N1249 N 0.97921 0.04957 0.63602 0.0
H1250 H 0.28404 0.22361 0.59594 0.0
H1251 H 0.28371 0.01305 0.65332 0.0
H1252 H 0.272 -0.00537 0.59763 0.0
H1253 H 0.27245 0.24278 0.65166 0.0
H1254 H 0.27951 0.00439 0.63296 0.0
H1255 H 0.27989 0.2326 0.6163 0.0
C1256 C 0.2803 0.17544 0.60057 0.0
C1257 C 0.27848 0.10816 0.59509 0.0
C1258 C 0.27769 0.05644 0.63708 0.0
C1259 C 0.27401 0.11785 0.6184 0.0
C1260 C 0.28013 0.06148 0.64869 0.0
C1261 C 0.27854 0.12884 0.65418 0.0
C1262 C 0.27401 0.11952 0.63087 0.0
C1263 C 0.27382 0.18979 0.64777 0.0
C1264 C 0.27789 0.18067 0.61218 0.0
C1265 C 0.27356 0.04755 0.60151 0.0
N1266 N 0.27202 0.18396 0.63641 0.0
N1267 N 0.27179 0.05354 0.61287 0.0
H1268 H 0.06018 0.91548 0.40153 0.0
H1269 H 0.00998 0.92019 0.34525 0.0
H1270 H 0.01101 0.81384 0.40244 0.0
H1271 H 0.05969 0.82401 0.34698 0.0
H1272 H 0.0083 0.91453 0.36602 0.0
H1273 H 0.05846 0.92015 0.38099 0.0
C1274 C 0.0489 0.89517 0.39743 0.0
C1275 C 0.03574 0.86384 0.40369 0.0
C1276 C 0.01944 0.8942 0.36175 0.0
C1277 C 0.03369 0.87017 0.38026 0.0
C1278 C 0.02044 0.8975 0.34997 0.0
C1279 C 0.03499 0.8724 0.34441 0.0
C1280 C 0.0333 0.86798 0.36788 0.0
C1281 C 0.04821 0.84356 0.35091 0.0
C1282 C 0.048 0.89755 0.38574 0.0
C1283 C 0.02146 0.83798 0.3979 0.0
N1284 N 0.04716 0.8433 0.36231 0.0
N1285 N 0.02075 0.84196 0.38644 0.0
H1286 H 0.71799 0.98028 0.34558 0.0
H1287 H 0.7192 0.76891 0.40294 0.0
H1288 H 0.73009 0.75129 0.34708 0.0
H1289 H 0.7305 -0.00143 0.40117 0.0
H1290 H 0.72306 0.7603 0.38252 0.0
H1291 H 0.7224 0.98878 0.36592 0.0
C1292 C 0.72179 0.93201 0.35017 0.0
C1293 C 0.72357 0.86488 0.34464 0.0
C1294 C 0.72496 0.8123 0.38663 0.0
C1295 C 0.72834 0.87398 0.36793 0.0
C1296 C 0.72271 0.8173 0.39827 0.0
C1297 C 0.7244 0.88466 0.40373 0.0
C1298 C 0.72855 0.87542 0.3804 0.0
C1299 C 0.72906 0.94557 0.39729 0.0
C1300 C 0.72436 0.93695 0.36177 0.0
C1301 C 0.72858 0.80411 0.351 0.0
N1302 N 0.73067 0.93978 0.38592 0.0
N1303 N 0.7305 0.80981 0.36235 0.0
H1304 H 0.98027 0.49467 0.15099 0.0
H1305 H 0.97939 0.75443 0.09693 0.0
H1306 H 0.96742 0.72297 0.15245 0.0
H1307 H 0.96891 0.52395 0.09546 0.0
H1308 H 0.98347 0.7439 0.11735 0.0
H1309 H 0.98459 0.50628 0.13062 0.0
C1310 C 0.97867 0.54752 0.14707 0.0
C1311 C 0.97329 0.60782 0.15339 0.0
C1312 C 0.98051 0.69558 0.1125 0.0
C1313 C 0.97831 0.62132 0.13019 0.0
C1314 C 0.97827 0.70141 0.10086 0.0
C1315 C 0.97362 0.64007 0.09452 0.0
C1316 C 0.97837 0.62778 0.11777 0.0
C1317 C 0.97229 0.57274 0.10006 0.0
C1318 C 0.98107 0.55394 0.13546 0.0
C1319 C 0.97139 0.67493 0.14787 0.0
N1320 N 0.97458 0.56842 0.11138 0.0
N1321 N 0.97382 0.67984 0.13657 0.0
H1322 H 0.28463 0.7257 0.09502 0.0
H1323 H 0.28327 0.51845 0.1527 0.0
H1324 H 0.27174 0.49769 0.09699 0.0
H1325 H 0.27281 0.74876 0.1507 0.0
H1326 H 0.27918 0.50894 0.13233 0.0
H1327 H 0.28045 0.7361 0.11536 0.0
C1328 C 0.2807 0.67805 0.09971 0.0
C1329 C 0.27864 0.61062 0.09432 0.0
C1330 C 0.27751 0.56132 0.13638 0.0
C1331 C 0.27413 0.62189 0.11761 0.0
C1332 C 0.2799 0.56685 0.14799 0.0
C1333 C 0.2785 0.6346 0.15338 0.0
C1334 C 0.27409 0.62428 0.13007 0.0
C1335 C 0.27402 0.69549 0.14688 0.0
C1336 C 0.27826 0.68408 0.11131 0.0
C1337 C 0.27347 0.5507 0.10081 0.0
N1338 N 0.27227 0.68914 0.13552 0.0
N1339 N 0.27169 0.55743 0.11216 0.0
H1340 H 0.03267 0.26617 0.84533 0.0
H1341 H 0.03196 0.47182 0.90316 0.0
H1342 H 0.02118 0.49555 0.84742 0.0
H1343 H 0.02062 0.24239 0.90091 0.0
H1344 H 0.02794 0.48252 0.88281 0.0
H1345 H 0.02821 0.25562 0.86564 0.0
C1346 C 0.029 0.31413 0.85004 0.0
C1347 C 0.02742 0.38196 0.8447 0.0
C1348 C 0.02606 0.43009 0.88679 0.0
C1349 C 0.02258 0.37046 0.86795 0.0
C1350 C 0.0284 0.42389 0.8984 0.0
C1351 C 0.02675 0.35599 0.90371 0.0
C1352 C 0.02242 0.36765 0.88042 0.0
C1353 C 0.02204 0.29574 0.89715 0.0
C1354 C 0.0264 0.30801 0.86163 0.0
C1355 C 0.02255 0.44224 0.85121 0.0
N1356 N 0.02034 0.30271 0.8858 0.0
N1357 N 0.0206 0.43536 0.86254 0.0
H1358 H 0.72985 0.24605 0.8468 0.0
H1359 H 0.73004 0.50271 0.90117 0.0
H1360 H 0.71744 0.47489 0.84573 0.0
H1361 H 0.7192 0.27248 0.90252 0.0
H1362 H 0.73375 0.49294 0.88074 0.0
H1363 H 0.73423 0.25605 0.86718 0.0
C1364 C 0.72835 0.29866 0.8508 0.0
C1365 C 0.7231 0.35962 0.84458 0.0
C1366 C 0.73079 0.44449 0.88555 0.0
C1367 C 0.72818 0.37127 0.86781 0.0
C1368 C 0.72876 0.44986 0.89721 0.0
C1369 C 0.72412 0.3884 0.90352 0.0
C1370 C 0.72842 0.37703 0.88023 0.0
C1371 C 0.72257 0.32135 0.89794 0.0
C1372 C 0.73077 0.30415 0.86242 0.0
C1373 C 0.7213 0.42638 0.85022 0.0
N1374 N 0.72465 0.31748 0.88659 0.0
N1375 N 0.72378 0.43039 0.86153 0.0
H1376 H 0.49059 0.92827 0.96763 0.0
H1377 H 0.51108 0.05777 0.03079 0.0
H1378 H 0.5405 0.92543 0.98206 0.0
H1379 H 0.46133 0.0643 0.01613 0.0
H1380 H 0.52224 0.01001 0.01296 0.0
H1381 H 0.47944 0.97595 0.98547 0.0
C1382 C 0.49913 0.93732 0.97462 0.0
C1383 C 0.51643 0.92361 0.97345 0.0
C1384 C 0.50888 0.02199 0.01362 0.0
C1385 C 0.50396 0.97843 0.99376 0.0
C1386 C 0.50257 0.04953 0.02375 0.0
C1387 C 0.48531 0.06429 0.02486 0.0
C1388 C 0.4978 0.00933 0.00456 0.0
C1389 C 0.47472 0.05276 0.01557 0.0
C1390 C 0.49283 0.96482 0.98476 0.0
C1391 C 0.52708 0.93612 0.98268 0.0
N1392 N 0.48111 0.02566 0.00581 0.0
N1393 N 0.52069 0.9631 0.99245 0.0
H1394 H 0.75915 0.28706 0.03194 0.0
H1395 H 0.74 0.20783 0.96683 0.0
H1396 H 0.7677 0.07931 0.01602 0.0
H1397 H 0.73308 0.41811 0.9823 0.0
H1398 H 0.75 0.15964 0.98482 0.0
H1399 H 0.74906 0.33574 0.01396 0.0
C1400 C 0.75882 0.25169 0.02463 0.0
C1401 C 0.76426 0.17921 0.02541 0.0
C1402 C 0.74637 0.2164 0.9843 0.0
C1403 C 0.75276 0.23425 0.00484 0.0
C1404 C 0.74065 0.24385 0.97404 0.0
C1405 C 0.7357 0.3169 0.97313 0.0
C1406 C 0.74711 0.26234 0.99374 0.0
C1407 C 0.73695 0.36162 0.98266 0.0
C1408 C 0.75307 0.27943 0.01439 0.0
C1409 C 0.76344 0.13531 0.01577 0.0
N1410 N 0.74248 0.33352 0.9926 0.0
N1411 N 0.75786 0.16361 0.00587 0.0
H1412 H 0.46008 0.17465 0.23284 0.0
H1413 H 0.54137 0.32293 0.26597 0.0
H1414 H 0.5097 0.18753 0.21809 0.0
H1415 H 0.49165 0.3116 0.2806 0.0
H1416 H 0.53005 0.27386 0.24831 0.0
H1417 H 0.47145 0.22303 0.25052 0.0
C1418 C 0.47341 0.18749 0.23339 0.0
C1419 C 0.48401 0.17781 0.22407 0.0
C1420 C 0.52158 0.28221 0.25535 0.0
C1421 C 0.49712 0.2331 0.24415 0.0
C1422 C 0.52803 0.31025 0.26539 0.0
C1423 C 0.51738 0.32066 0.27467 0.0
C1424 C 0.50434 0.26459 0.25462 0.0
C1425 C 0.5002 0.30421 0.27357 0.0
C1426 C 0.4799 0.21516 0.24345 0.0
C1427 C 0.50118 0.19441 0.22515 0.0
N1428 N 0.4942 0.27665 0.26372 0.0
N1429 N 0.50722 0.22162 0.23501 0.0
H1430 H 0.79069 0.06718 0.23184 0.0
H1431 H 0.70956 0.92765 0.26604 0.0
H1432 H 0.7406 0.05889 0.21773 0.0
H1433 H 0.75961 0.93681 0.2802 0.0
H1434 H 0.7207 0.9745 0.24818 0.0
H1435 H 0.77957 0.02018 0.24969 0.0
C1436 C 0.77732 0.05555 0.23257 0.0
C1437 C 0.7665 0.06623 0.22338 0.0
C1438 C 0.72928 0.96618 0.25517 0.0
C1439 C 0.75368 0.01263 0.24366 0.0
C1440 C 0.72293 0.93943 0.26532 0.0
C1441 C 0.73373 0.92906 0.27453 0.0
C1442 C 0.74657 0.98249 0.25424 0.0
C1443 C 0.75094 0.94424 0.27323 0.0
C1444 C 0.77098 0.02872 0.24272 0.0
C1445 C 0.74928 0.05123 0.22468 0.0
N1446 N 0.75685 0.97054 0.26328 0.0
N1447 N 0.74339 0.02485 0.23464 0.0
H1448 H 0.20975 0.81731 0.98247 0.0
H1449 H 0.29125 0.67104 0.01559 0.0
H1450 H 0.25954 0.80853 0.96791 0.0
H1451 H 0.24159 0.68218 0.03031 0.0
H1452 H 0.27983 0.71954 0.99793 0.0
H1453 H 0.22112 0.76817 0.00011 0.0
C1454 C 0.22312 0.80516 0.98306 0.0
C1455 C 0.23377 0.81631 0.97381 0.0
C1456 C 0.27138 0.71126 0.00499 0.0
C1457 C 0.24688 0.76018 0.99384 0.0
C1458 C 0.2779 0.68353 0.01503 0.0
C1459 C 0.2673 0.6733 0.02434 0.0
C1460 C 0.25413 0.7287 0.00428 0.0
C1461 C 0.2501 0.68946 0.02326 0.0
C1462 C 0.2296 0.77709 0.99309 0.0
C1463 C 0.25099 0.80055 0.97492 0.0
N1464 N 0.24404 0.71673 0.01341 0.0
N1465 N 0.25702 0.77293 0.98476 0.0
H1466 H 0.51123 0.67624 0.71744 0.0
H1467 H 0.49125 0.80596 0.78065 0.0
H1468 H 0.46154 0.67139 0.7322 0.0
H1469 H 0.541 0.81003 0.76597 0.0
H1470 H 0.47999 0.75787 0.76288 0.0
H1471 H 0.52256 0.72361 0.73524 0.0
C1472 C 0.50277 0.68476 0.72449 0.0
C1473 C 0.48548 0.67061 0.72343 0.0
C1474 C 0.49337 0.76934 0.76352 0.0
C1475 C 0.49816 0.72511 0.74369 0.0
C1476 C 0.49974 0.79707 0.77362 0.0
C1477 C 0.51702 0.8113 0.7747 0.0
C1478 C 0.50441 0.75598 0.75447 0.0
C1479 C 0.52759 0.79894 0.76543 0.0
C1480 C 0.50918 0.71208 0.73461 0.0
C1481 C 0.47495 0.68246 0.73273 0.0
N1482 N 0.52113 0.77172 0.75569 0.0
N1483 N 0.48144 0.70932 0.74248 0.0
H1484 H 0.24119 0.05592 0.71797 0.0
H1485 H 0.26083 0.92668 0.78125 0.0
H1486 H 0.29081 0.06084 0.73283 0.0
H1487 H 0.21125 0.92067 0.76633 0.0
H1488 H 0.27221 0.9746 0.7635 0.0
H1489 H 0.22981 0.00803 0.73572 0.0
C1490 C 0.24962 0.04729 0.72503 0.0
C1491 C 0.26691 0.06165 0.72401 0.0
C1492 C 0.25884 0.96271 0.76408 0.0
C1493 C 0.25417 0.00656 0.74422 0.0
C1494 C 0.25241 0.93507 0.77417 0.0
C1495 C 0.23513 0.92041 0.77517 0.0
C1496 C 0.24787 0.97554 0.75497 0.0
C1497 C 0.22465 0.93213 0.76584 0.0
C1498 C 0.24319 0.01967 0.73512 0.0
C1499 C 0.27741 0.04964 0.73333 0.0
N1500 N 0.23117 0.9593 0.75613 0.0
N1501 N 0.27089 0.02251 0.74304 0.0
H1502 H 0.51007 0.55505 0.53061 0.0
H1503 H 0.49038 0.42579 0.46734 0.0
H1504 H 0.4605 0.56161 0.51569 0.0
H1505 H 0.53999 0.42008 0.48222 0.0
H1506 H 0.47902 0.47398 0.48508 0.0
H1507 H 0.52143 0.50698 0.51287 0.0
C1508 C 0.50165 0.54677 0.52353 0.0
C1509 C 0.48438 0.56162 0.52454 0.0
C1510 C 0.49239 0.4621 0.48449 0.0
C1511 C 0.4971 0.50629 0.50433 0.0
C1512 C 0.49881 0.43429 0.47441 0.0
C1513 C 0.51609 0.41963 0.47339 0.0
C1514 C 0.50338 0.47509 0.49359 0.0
C1515 C 0.52659 0.4315 0.48271 0.0
C1516 C 0.50807 0.51904 0.51345 0.0
C1517 C 0.4739 0.55003 0.5152 0.0
N1518 N 0.52008 0.45882 0.49242 0.0
N1519 N 0.4804 0.52275 0.50549 0.0
H1520 H 0.73304 0.92173 0.48245 0.0
H1521 H 0.76685 0.57328 0.51646 0.0
H1522 H 0.73925 0.70886 0.4677 0.0
H1523 H 0.75913 0.7839 0.53166 0.0
H1524 H 0.75653 0.6218 0.49852 0.0
H1525 H 0.74316 0.87339 0.5005 0.0
C1526 C 0.73672 0.86505 0.483 0.0
C1527 C 0.73533 0.81909 0.47363 0.0
C1528 C 0.75703 0.65742 0.50578 0.0
C1529 C 0.74661 0.76311 0.49419 0.0
C1530 C 0.76277 0.62951 0.51603 0.0
C1531 C 0.76381 0.67476 0.5255 0.0
C1532 C 0.75232 0.73114 0.50502 0.0
C1533 C 0.75864 0.74752 0.52449 0.0
C1534 C 0.74235 0.83728 0.49331 0.0
C1535 C 0.74 0.74581 0.4748 0.0
N1536 N 0.75317 0.77358 0.51442 0.0
N1537 N 0.7454 0.72003 0.48489 0.0
H1538 H 0.70944 0.4267 0.76603 0.0
H1539 H 0.79128 0.56398 0.73239 0.0
H1540 H 0.75933 0.43339 0.78046 0.0
H1541 H 0.74143 0.55663 0.71791 0.0
H1542 H 0.77981 0.51753 0.75016 0.0
H1543 H 0.72088 0.47377 0.74828 0.0
C1544 C 0.72284 0.43802 0.76539 0.0
C1545 C 0.7335 0.42685 0.77464 0.0
C1546 C 0.77134 0.52616 0.74313 0.0
C1547 C 0.7467 0.48048 0.75447 0.0
C1548 C 0.77788 0.55268 0.73302 0.0
C1549 C 0.76724 0.56343 0.72374 0.0
C1550 C 0.75401 0.51046 0.74394 0.0
C1551 C 0.74998 0.54888 0.72493 0.0
C1552 C 0.72936 0.46487 0.7553 0.0
C1553 C 0.75076 0.44144 0.77346 0.0
N1554 N 0.74388 0.52279 0.73484 0.0
N1555 N 0.75684 0.46783 0.76355 0.0
H1556 H 0.24112 0.17819 0.53098 0.0
H1557 H 0.26142 0.30197 0.46753 0.0
H1558 H 0.29095 0.17297 0.51643 0.0
H1559 H 0.21166 0.30828 0.48217 0.0
H1560 H 0.27264 0.25574 0.48544 0.0
H1561 H 0.22992 0.22416 0.51306 0.0
C1562 C 0.24964 0.18638 0.52394 0.0
C1563 C 0.26693 0.17247 0.5251 0.0
C1564 C 0.25927 0.2673 0.48476 0.0
C1565 C 0.2544 0.22534 0.5047 0.0
C1566 C 0.25293 0.29394 0.47458 0.0
C1567 C 0.23565 0.30822 0.47345 0.0
C1568 C 0.2482 0.25511 0.49384 0.0
C1569 C 0.22506 0.29707 0.48275 0.0
C1570 C 0.24331 0.21289 0.51376 0.0
C1571 C 0.27754 0.18387 0.51582 0.0
N1572 N 0.23149 0.27089 0.49256 0.0
N1573 N 0.27112 0.20991 0.506 0.0
H1574 H 0.2597 0.45444 0.21651 0.0
H1575 H 0.24141 0.54286 0.28149 0.0
H1576 H 0.26922 0.66358 0.23172 0.0
H1577 H 0.23193 0.33381 0.26624 0.0
H1578 H 0.25176 0.58815 0.26337 0.0
H1579 H 0.24929 0.40937 0.23462 0.0
C1580 C 0.25951 0.49087 0.22369 0.0
C1581 C 0.2653 0.56268 0.22267 0.0
C1582 C 0.24749 0.53228 0.26397 0.0
C1583 C 0.25347 0.51179 0.2434 0.0
C1584 C 0.2416 0.50649 0.2743 0.0
C1585 C 0.23585 0.43461 0.27531 0.0
C1586 C 0.24761 0.48576 0.25458 0.0
C1587 C 0.23644 0.38937 0.26581 0.0
C1588 C 0.25358 0.46522 0.23402 0.0
C1589 C 0.26469 0.60803 0.23216 0.0
N1590 N 0.24217 0.41578 0.25582 0.0
N1591 N 0.25893 0.58174 0.24216 0.0
H1592 H 0.00827 0.03611 0.46674 0.0
H1593 H 0.98772 0.94254 0.53122 0.0
H1594 H 0.01552 0.8236 0.48137 0.0
H1595 H 0.97899 0.15321 0.51631 0.0
H1596 H 0.9978 0.8976 0.51301 0.0
H1597 H 0.997 0.07958 0.48473 0.0
C1598 C 0.00735 -0.00144 0.47375 0.0
C1599 C 0.01282 0.92635 0.47263 0.0
C1600 C 0.99371 0.9537 0.51371 0.0
C1601 C 1.00006 0.97545 0.49322 0.0
C1602 C 0.98797 0.97929 0.52409 0.0
C1603 C 0.98255 0.05158 0.52522 0.0
C1604 C 0.99405 0.00087 0.50439 0.0
C1605 C 0.98325 0.09731 0.51579 0.0
C1606 C 0.00094 0.02331 0.48401 0.0
C1607 C 0.01128 0.87955 0.4819 0.0
N1608 N 0.98887 0.07114 0.50575 0.0
N1609 N 0.00513 0.90503 0.49184 0.0
H1610 H 0.99094 0.28798 0.71677 0.0
H1611 H 0.01002 0.20233 0.78173 0.0
H1612 H 0.98186 0.07921 0.73222 0.0
H1613 H 0.01886 0.41145 0.76634 0.0
H1614 H 0.99955 0.15623 0.7637 0.0
H1615 H 0.00139 0.33415 0.73481 0.0
C1616 C 0.99122 0.25187 0.72399 0.0
C1617 C 0.98555 0.17982 0.72306 0.0
C1618 C 0.00371 0.21229 0.76425 0.0
C1619 C 0.99745 0.23197 0.7437 0.0
C1620 C 0.00968 0.23853 0.77453 0.0
C1621 C 0.0153 0.31065 0.77547 0.0
C1622 C 0.00337 0.25857 0.75483 0.0
C1623 C 0.01448 0.35567 0.76596 0.0
C1624 C 0.99718 0.27815 0.73427 0.0
C1625 C 0.9863 0.13492 0.73259 0.0
N1626 N 0.00868 0.32881 0.75601 0.0
N1627 N 0.99208 0.16181 0.74254 0.0
H1628 H 0.98963 0.80282 0.28081 0.0
H1629 H 0.00874 0.68041 0.21714 0.0
H1630 H 0.03874 0.81623 0.26533 0.0
H1631 H 0.95923 0.67243 0.23215 0.0
H1632 H 0.02008 0.72884 0.23485 0.0
H1633 H 0.97801 0.75671 0.263 0.0
C1634 C 0.99788 0.79659 0.27359 0.0
C1635 C 0.01511 0.81265 0.27446 0.0
C1636 C 0.00674 0.71647 0.2343 0.0
C1637 C 0.00212 0.7595 0.2542 0.0
C1638 C 1.00033 0.68851 0.22423 0.0
C1639 C 0.98309 0.67303 0.22326 0.0
C1640 C 0.99578 0.72876 0.24344 0.0
C1641 C 0.97261 0.68444 0.23261 0.0
C1642 C 0.99132 0.76997 0.26347 0.0
C1643 C 0.02538 0.80369 0.26495 0.0
N1644 N 0.97911 0.71185 0.24232 0.0
N1645 N 0.01875 0.77735 0.25522 0.0
H1646 H 0.01786 0.32246 0.98205 0.0
H1647 H 0.9812 0.66522 0.01611 0.0
H1648 H 0.00896 0.53286 0.96708 0.0
H1649 H 0.99064 0.45564 0.03121 0.0
H1650 H 0.9915 0.61808 0.99806 0.0
H1651 H 0.00734 0.36922 7e-05 0.0
C1652 C 0.01349 0.37826 0.98255 0.0
C1653 C 0.01425 0.424 0.97312 0.0
C1654 C 0.99137 0.58239 0.00533 0.0
C1655 C 0.00249 0.4783 0.99367 0.0
C1656 C 0.98564 0.60951 0.01563 0.0
C1657 C 0.98512 0.56416 0.02511 0.0
C1658 C 0.99662 0.50938 0.00452 0.0
C1659 C 0.99073 0.49207 0.02403 0.0
C1660 C 0.00762 0.40516 0.99284 0.0
C1661 C 0.00869 0.49615 0.97422 0.0
N1662 N 0.99622 0.46681 0.01392 0.0
N1663 N 0.00308 0.52117 0.98432 0.0
H1664 H 0.43808 0.7605 0.04755 0.0
H1665 H 0.49225 0.46428 0.0809 0.0
H1666 H 0.4598 0.7977 0.08037 0.0
H1667 H 0.47404 0.43386 0.04691 0.0
H1668 H 0.48287 0.59072 0.08017 0.0
H1669 H 0.45213 0.64184 0.04686 0.0
C1670 C 0.44572 0.74326 0.05464 0.0
C1671 C 0.44793 0.78876 0.06399 0.0
C1672 C 0.48114 0.55665 0.07282 0.0
C1673 C 0.4642 0.65417 0.06323 0.0
C1674 C 0.48662 0.48454 0.07319 0.0
C1675 C 0.48361 0.43797 0.06404 0.0
C1676 C 0.47253 0.58207 0.06325 0.0
C1677 C 0.47639 0.46748 0.05424 0.0
C1678 C 0.4539 0.67607 0.0542 0.0
C1679 C 0.45803 0.76448 0.07293 0.0
N1680 N 0.47083 0.53735 0.05417 0.0
N1681 N 0.4658 0.69874 0.07234 0.0
H1682 H 0.75588 0.77016 0.07934 0.0
H1683 H 0.8123 0.47363 0.04786 0.0
H1684 H 0.77661 0.80025 0.046 0.0
H1685 H 0.78782 0.43591 0.07979 0.0
H1686 H 0.79816 0.59188 0.04662 0.0
H1687 H 0.7649 0.64317 0.07883 0.0
C1688 C 0.76199 0.74973 0.07181 0.0
C1689 C 0.76583 0.79635 0.0628 0.0
C1690 C 0.7958 0.5576 0.05387 0.0
C1691 C 0.7765 0.65163 0.06227 0.0
C1692 C 0.80402 0.49063 0.05463 0.0
C1693 C 0.80109 0.44516 0.0639 0.0
C1694 C 0.78474 0.57934 0.06251 0.0
C1695 C 0.79017 0.4691 0.07242 0.0
C1696 C 0.76726 0.6773 0.07156 0.0
C1697 C 0.77363 0.76661 0.05322 0.0
N1698 N 0.78239 0.5347 0.07153 0.0
N1699 N 0.77898 0.69644 0.05329 0.0
H1700 H 0.47785 0.81196 0.20248 0.0
H1701 H 0.43505 0.48361 0.20148 0.0
H1702 H 0.48459 0.7775 0.16676 0.0
H1703 H 0.45905 0.44686 0.16937 0.0
H1704 H 0.44838 0.60318 0.20243 0.0
H1705 H 0.4687 0.68603 0.20441 0.0
C1706 C 0.47759 0.77763 0.19506 0.0
C1707 C 0.48155 0.80586 0.18439 0.0
C1708 C 0.45112 0.56856 0.19529 0.0
C1709 C 0.47029 0.66267 0.18644 0.0
C1710 C 0.4432 0.50087 0.19465 0.0
C1711 C 0.44622 0.45516 0.18543 0.0
C1712 C 0.46211 0.59043 0.1866 0.0
C1713 C 0.45677 0.47989 0.17676 0.0
C1714 C 0.47204 0.70594 0.19613 0.0
C1715 C 0.48135 0.75849 0.17512 0.0
N1716 N 0.46433 0.54592 0.17756 0.0
N1717 N 0.47553 0.68947 0.17634 0.0
H1718 H 0.77571 0.43348 0.20129 0.0
H1719 H 0.79077 0.80114 0.1668 0.0
H1720 H 0.75971 0.46504 0.16683 0.0
H1721 H 0.81214 0.75851 0.19956 0.0
H1722 H 0.77644 0.68338 0.16745 0.0
H1723 H 0.78504 0.55991 0.20191 0.0
C1724 C 0.77381 0.46737 0.19392 0.0
C1725 C 0.76725 0.43818 0.1839 0.0
C1726 C 0.78424 0.69971 0.17451 0.0
C1727 C 0.77817 0.58245 0.18452 0.0
C1728 C 0.79242 0.76675 0.17413 0.0
C1729 C 0.8025 0.78935 0.18318 0.0
C1730 C 0.7862 0.655 0.18401 0.0
C1731 C 0.80452 0.74258 0.19239 0.0
C1732 C 0.77929 0.5394 0.19426 0.0
C1733 C 0.76493 0.48493 0.17468 0.0
N1734 N 0.79637 0.67753 0.1926 0.0
N1735 N 0.77062 0.55456 0.17516 0.0
H1736 H 0.54015 0.18829 0.91721 0.0
H1737 H 0.52544 0.5539 0.95225 0.0
H1738 H 0.56167 0.22953 0.94997 0.0
H1739 H 0.50928 0.52493 0.91778 0.0
H1740 H 0.5343 0.42684 0.95274 0.0
H1741 H 0.52554 0.30542 0.91813 0.0
C1742 C 0.54177 0.22219 0.9246 0.0
C1743 C 0.552 0.19946 0.93356 0.0
C1744 C 0.52861 0.44803 0.94512 0.0
C1745 C 0.53538 0.33301 0.9347 0.0
C1746 C 0.5234 0.52043 0.94486 0.0
C1747 C 0.51697 0.55053 0.93487 0.0
C1748 C 0.52736 0.40556 0.93533 0.0
C1749 C 0.51441 0.50432 0.92561 0.0
C1750 C 0.53342 0.28886 0.92513 0.0
C1751 C 0.55396 0.24559 0.94286 0.0
N1752 N 0.51989 0.43431 0.926 0.0
N1753 N 0.54566 0.31026 0.94321 0.0
H1754 H 0.22435 0.18648 0.95239 0.0
H1755 H 0.21008 0.55327 0.91754 0.0
H1756 H 0.24113 0.21704 0.91808 0.0
H1757 H 0.18811 0.51142 0.95015 0.0
H1758 H 0.22455 0.43583 0.91844 0.0
H1759 H 0.21522 0.31321 0.95289 0.0
C1760 C 0.22646 0.22021 0.94504 0.0
C1761 C 0.23317 0.19064 0.93508 0.0
C1762 C 0.21659 0.4523 0.92541 0.0
C1763 C 0.22249 0.33528 0.93556 0.0
C1764 C 0.20834 0.51916 0.92489 0.0
C1765 C 0.19803 0.54186 0.93382 0.0
C1766 C 0.21447 0.40787 0.93493 0.0
C1767 C 0.19589 0.49541 0.94307 0.0
C1768 C 0.2211 0.29243 0.9453 0.0
C1769 C 0.23579 0.23721 0.92588 0.0
N1770 N 0.20411 0.43054 0.94341 0.0
N1771 N 0.23019 0.30703 0.92628 0.0
H1772 H 0.54181 0.54808 0.83101 0.0
H1773 H 0.52691 0.18136 0.79624 0.0
H1774 H 0.56318 0.5065 0.79821 0.0
H1775 H 0.51055 0.21232 0.83064 0.0
H1776 H 0.53619 0.30787 0.7957 0.0
H1777 H 0.52742 0.43048 0.83023 0.0
C1778 C 0.54345 0.51397 0.82364 0.0
C1779 C 0.55355 0.53682 0.81462 0.0
C1780 C 0.53037 0.28722 0.80332 0.0
C1781 C 0.53718 0.40265 0.81365 0.0
C1782 C 0.52492 0.21514 0.80361 0.0
C1783 C 0.51827 0.18574 0.81359 0.0
C1784 C 0.52914 0.33011 0.81307 0.0
C1785 C 0.51583 0.23236 0.82281 0.0
C1786 C 0.53523 0.44702 0.82319 0.0
C1787 C 0.55555 0.49039 0.80536 0.0
N1788 N 0.52151 0.30203 0.82239 0.0
N1789 N 0.54737 0.42542 0.80508 0.0
H1790 H 0.1881 0.22542 0.79789 0.0
H1791 H 0.24224 0.52143 0.83125 0.0
H1792 H 0.20999 0.18775 0.83064 0.0
H1793 H 0.22414 0.55171 0.79724 0.0
H1794 H 0.23297 0.39487 0.8305 0.0
H1795 H 0.2022 0.34396 0.79719 0.0
C1796 C 0.19578 0.24254 0.80496 0.0
C1797 C 0.19803 0.19697 0.8143 0.0
C1798 C 0.23124 0.42894 0.82314 0.0
C1799 C 0.21434 0.33139 0.81353 0.0
C1800 C 0.23666 0.50111 0.82353 0.0
C1801 C 0.23364 0.54767 0.81438 0.0
C1802 C 0.22267 0.40347 0.81356 0.0
C1803 C 0.22649 0.5181 0.80457 0.0
C1804 C 0.20399 0.30965 0.80451 0.0
C1805 C 0.20819 0.22106 0.82322 0.0
N1806 N 0.22097 0.44817 0.80448 0.0
N1807 N 0.21598 0.28674 0.82262 0.0
H1808 H 0.43744 0.25584 0.54722 0.0
H1809 H 0.49137 0.96001 0.58078 0.0
H1810 H 0.45916 0.29375 0.58002 0.0
H1811 H 0.47353 0.92955 0.54671 0.0
H1812 H 0.48211 0.08659 0.57998 0.0
H1813 H 0.45156 0.13727 0.54658 0.0
C1814 C 0.44509 0.23876 0.55432 0.0
C1815 C 0.44729 0.2844 0.56365 0.0
C1816 C 0.48044 0.05248 0.57262 0.0
C1817 C 0.46362 0.14998 0.56294 0.0
C1818 C 0.48585 0.98029 0.57304 0.0
C1819 C 0.48289 0.93368 0.56389 0.0
C1820 C 0.47194 0.0779 0.56301 0.0
C1821 C 0.47583 0.9632 0.55404 0.0
C1822 C 0.45331 0.17164 0.5539 0.0
C1823 C 0.4574 0.26038 0.5726 0.0
N1824 N 0.47032 0.03314 0.55393 0.0
N1825 N 0.4652 0.1947 0.57203 0.0
H1826 H 0.78879 0.93017 0.58069 0.0
H1827 H 0.77495 0.29939 0.54638 0.0
H1828 H 0.81125 0.9741 0.5483 0.0
H1829 H 0.75821 0.26703 0.58066 0.0
H1830 H 0.78405 0.17264 0.54572 0.0
H1831 H 0.77441 0.04777 0.57991 0.0
C1832 C 0.79065 0.96473 0.57341 0.0
C1833 C 0.80107 0.94259 0.5645 0.0
C1834 C 0.77819 0.19305 0.55333 0.0
C1835 C 0.78473 0.07688 0.56354 0.0
C1836 C 0.77284 0.26528 0.5537 0.0
C1837 C 0.76614 0.29433 0.56369 0.0
C1838 C 0.77679 0.14965 0.56302 0.0
C1839 C 0.76354 0.24727 0.57284 0.0
C1840 C 0.78245 0.03173 0.57296 0.0
C1841 C 0.80336 0.98968 0.55536 0.0
N1842 N 0.76912 0.17745 0.57234 0.0
N1843 N 0.79519 0.05471 0.55508 0.0
H1844 H 0.45994 0.93582 0.6673 0.0
H1845 H 0.4759 0.30256 0.70183 0.0
H1846 H 0.43947 0.97791 0.70034 0.0
H1847 H 0.49095 0.27204 0.66716 0.0
H1848 H 0.46681 0.17584 0.70252 0.0
H1849 H 0.47445 0.05322 0.66789 0.0
C1850 C 0.45853 0.97 0.67468 0.0
C1851 C 0.44864 0.94739 0.68382 0.0
C1852 C 0.4723 0.19663 0.69481 0.0
C1853 C 0.46514 0.08129 0.68458 0.0
C1854 C 0.47764 0.26883 0.69443 0.0
C1855 C 0.48384 0.29841 0.68433 0.0
C1856 C 0.47319 0.15381 0.68503 0.0
C1857 C 0.48601 0.25186 0.67507 0.0
C1858 C 0.46681 0.03682 0.67502 0.0
C1859 C 0.44693 0.99387 0.6931 0.0
N1860 N 0.48043 0.18206 0.67559 0.0
N1861 N 0.45517 0.05871 0.69326 0.0
H1862 H 0.77637 0.92939 0.70174 0.0
H1863 H 0.79226 0.29692 0.66741 0.0
H1864 H 0.76139 0.96052 0.66707 0.0
H1865 H 0.81294 0.25396 0.70035 0.0
H1866 H 0.77782 0.17938 0.66793 0.0
H1867 H 0.78553 0.05602 0.70248 0.0
C1868 C 0.77466 0.96322 0.69435 0.0
C1869 C 0.76846 0.93386 0.68424 0.0
C1870 C 0.78549 0.1956 0.67506 0.0
C1871 C 0.77918 0.07833 0.685 0.0
C1872 C 0.79373 0.26251 0.67475 0.0
C1873 C 0.80365 0.28492 0.68389 0.0
C1874 C 0.78723 0.15086 0.68458 0.0
C1875 C 0.80545 0.23815 0.69312 0.0
C1876 C 0.78004 0.03537 0.69476 0.0
C1877 C 0.76634 0.98054 0.67499 0.0
N1878 N 0.79724 0.17323 0.69326 0.0
N1879 N 0.77194 0.05028 0.67554 0.0
H1880 H 0.56282 0.72451 0.45064 0.0
H1881 H 0.50856 0.021 0.4175 0.0
H1882 H 0.54077 0.68721 0.41793 0.0
H1883 H 0.52681 0.05069 0.45149 0.0
H1884 H 0.51772 0.89426 0.41821 0.0
H1885 H 0.54865 0.84287 0.45143 0.0
C1886 C 0.55509 0.74168 0.4436 0.0
C1887 C 0.55282 0.69628 0.43424 0.0
C1888 C 0.5195 0.92824 0.42557 0.0
C1889 C 0.53643 0.83049 0.43511 0.0
C1890 C 0.51414 0.00052 0.42521 0.0
C1891 C 0.51726 0.04696 0.43436 0.0
C1892 C 0.52811 0.90258 0.43513 0.0
C1893 C 0.52441 0.01718 0.44416 0.0
C1894 C 0.54684 0.80868 0.4441 0.0
C1895 C 0.5426 0.72041 0.42536 0.0
N1896 N 0.52987 0.94717 0.44421 0.0
N1897 N 0.53477 0.786 0.42601 0.0
H1898 H 0.20916 0.04485 0.41748 0.0
H1899 H 0.22521 0.6787 0.45217 0.0
H1900 H 0.18901 0.004 0.45064 0.0
H1901 H 0.24049 0.709 0.41754 0.0
H1902 H 0.21599 0.80529 0.45279 0.0
H1903 H 0.22361 0.92729 0.41809 0.0
C1904 C 0.20781 0.01095 0.42489 0.0
C1905 C 0.19802 0.03399 0.43406 0.0
C1906 C 0.22156 0.78449 0.4451 0.0
C1907 C 0.21445 0.89983 0.43484 0.0
C1908 C 0.22697 0.71235 0.44476 0.0
C1909 C 0.2333 0.68274 0.4347 0.0
C1910 C 0.2225 0.82724 0.43532 0.0
C1911 C 0.23546 0.7292 0.42543 0.0
C1912 C 0.21606 0.94401 0.42524 0.0
C1913 C 0.19638 0.98776 0.44337 0.0
N1914 N 0.22982 0.79894 0.42591 0.0
N1915 N 0.20458 0.92282 0.44355 0.0
H1916 H 0.5644 0.01601 0.29785 0.0
H1917 H 0.50946 0.72076 0.33084 0.0
H1918 H 0.54177 0.05432 0.33037 0.0
H1919 H 0.52833 0.68944 0.29703 0.0
H1920 H 0.51891 0.84707 0.33014 0.0
H1921 H 0.55043 0.89714 0.29711 0.0
C1922 C 0.55658 -0.00103 0.30487 0.0
C1923 C 0.55407 0.04484 0.31414 0.0
C1924 C 0.52078 0.81283 0.32282 0.0
C1925 C 0.53791 0.91007 0.31332 0.0
C1926 C 0.51526 0.7408 0.32318 0.0
C1927 C 0.51841 0.69403 0.31407 0.0
C1928 C 0.52959 0.83798 0.31331 0.0
C1929 C 0.52585 0.72324 0.30433 0.0
C1930 C 0.54845 0.93167 0.30439 0.0
C1931 C 0.54376 0.02082 0.32299 0.0
N1932 N 0.53145 0.79305 0.30427 0.0
N1933 N 0.53605 0.95499 0.32237 0.0
H1934 H 0.18774 0.73249 0.29719 0.0
H1935 H 0.24258 0.02926 0.32977 0.0
H1936 H 0.21079 0.69471 0.32958 0.0
H1937 H 0.22352 0.05879 0.29597 0.0
H1938 H 0.23367 0.90216 0.32909 0.0
H1939 H 0.20196 0.85063 0.29621 0.0
C1940 C 0.19573 0.74945 0.30412 0.0
C1941 C 0.19823 0.704 0.31344 0.0
C1942 C 0.23167 0.93619 0.32176 0.0
C1943 C 0.21467 0.83807 0.31236 0.0
C1944 C 0.23688 0.00868 0.32211 0.0
C1945 C 0.23345 0.05517 0.31301 0.0
C1946 C 0.2229 0.91035 0.31228 0.0
C1947 C 0.22616 0.02526 0.30327 0.0
C1948 C 0.204 0.81635 0.30351 0.0
C1949 C 0.20878 0.72788 0.32217 0.0
N1950 N 0.22085 0.95504 0.30324 0.0
N1951 N 0.21661 0.79344 0.32143 0.0
H1952 H 0.97238 0.42541 0.5463 0.0
H1953 H 0.95948 0.79445 0.58082 0.0
H1954 H 0.98993 0.45725 0.58041 0.0
H1955 H 0.9361 0.75034 0.54872 0.0
H1956 H 0.97388 0.67692 0.57985 0.0
H1957 H 0.96334 0.55226 0.54576 0.0
C1958 C 0.97468 0.45943 0.5536 0.0
C1959 C 0.98158 0.43021 0.56352 0.0
C1960 C 0.96564 0.69292 0.573 0.0
C1961 C 0.97101 0.575 0.56299 0.0
C1962 C 0.95743 0.75988 0.57356 0.0
C1963 C 0.94673 0.78194 0.56479 0.0
C1964 C 0.96309 0.64776 0.56361 0.0
C1965 C 0.9442 0.73483 0.55568 0.0
C1966 C 0.96937 0.53172 0.55331 0.0
C1967 C 0.98443 0.47715 0.57265 0.0
N1968 N 0.95238 0.66987 0.5553 0.0
N1969 N 0.97889 0.54704 0.57223 0.0
H1970 H 0.29205 0.43848 0.58134 0.0
H1971 H 0.27621 0.80562 0.5469 0.0
H1972 H 0.31266 0.48089 0.54835 0.0
H1973 H 0.2611 0.77482 0.58155 0.0
H1974 H 0.28531 0.67891 0.54618 0.0
H1975 H 0.27757 0.55594 0.58076 0.0
C1976 C 0.2935 0.47274 0.57398 0.0
C1977 C 0.30342 0.4502 0.56484 0.0
C1978 C 0.27981 0.69964 0.5539 0.0
C1979 C 0.28694 0.58418 0.5641 0.0
C1980 C 0.27446 0.77184 0.55429 0.0
C1981 C 0.26824 0.80133 0.56439 0.0
C1982 C 0.2789 0.65673 0.56366 0.0
C1983 C 0.26607 0.7547 0.57364 0.0
C1984 C 0.28523 0.5396 0.57364 0.0
C1985 C 0.30518 0.49679 0.55559 0.0
N1986 N 0.27165 0.6849 0.57311 0.0
N1987 N 0.29695 0.56167 0.55543 0.0
H1988 H 0.9612 0.43693 0.66788 0.0
H1989 H 0.97484 0.8052 0.70244 0.0
H1990 H 0.93855 0.48056 0.70022 0.0
H1991 H 0.99165 0.77407 0.66814 0.0
H1992 H 0.96595 0.67819 0.70304 0.0
H1993 H 0.97572 0.55421 0.66878 0.0
C1994 C 0.95934 0.47135 0.67518 0.0
C1995 C 0.94881 0.44925 0.68403 0.0
C1996 C 0.97179 0.69891 0.69543 0.0
C1997 C 0.96529 0.5831 0.68514 0.0
C1998 C 0.97701 0.77129 0.69511 0.0
C1999 C 0.98364 0.80076 0.68513 0.0
C2000 C 0.97324 0.65581 0.68572 0.0
C2001 C 0.98635 0.75397 0.67596 0.0
C2002 C 0.96761 0.53814 0.6757 0.0
C2003 C 0.94651 0.49612 0.6932 0.0
N2004 N 0.98088 0.68399 0.67641 0.0
N2005 N 0.95475 0.56094 0.69355 0.0
H2006 H 0.29177 0.79708 0.66788 0.0
H2007 H 0.27641 0.43039 0.70253 0.0
H2008 H 0.3128 0.75498 0.70076 0.0
H2009 H 0.26081 0.46075 0.66797 0.0
H2010 H 0.28546 0.55718 0.70316 0.0
H2011 H 0.27725 0.67974 0.66859 0.0
C2012 C 0.2933 0.76292 0.67525 0.0
C2013 C 0.30336 0.78551 0.68431 0.0
C2014 C 0.27986 0.53634 0.69549 0.0
C2015 C 0.28684 0.65167 0.68521 0.0
C2016 C 0.27454 0.46409 0.69514 0.0
C2017 C 0.2682 0.43445 0.68509 0.0
C2018 C 0.2788 0.57913 0.68572 0.0
C2019 C 0.26587 0.48098 0.67585 0.0
C2020 C 0.28501 0.69613 0.67566 0.0
C2021 C 0.30521 0.73904 0.69358 0.0
N2022 N 0.27143 0.55082 0.67632 0.0
N2023 N 0.29696 0.67423 0.69381 0.0
H2024 H 0.04697 0.18606 0.41866 0.0
H2025 H 0.02653 0.55851 0.45067 0.0
H2026 H 0.06276 0.23222 0.45268 0.0
H2027 H 0.01785 0.52463 0.41512 0.0
H2028 H 0.03551 0.43189 0.45237 0.0
H2029 H 0.03307 0.3047 0.41783 0.0
C2030 C 0.04747 0.22136 0.42596 0.0
C2031 C 0.05586 0.19951 0.43578 0.0
C2032 C 0.03144 0.45197 0.44423 0.0
C2033 C 0.04004 0.335 0.43493 0.0
C2034 C 0.02614 0.52409 0.44327 0.0
C2035 C 0.02172 0.55257 0.43269 0.0
C2036 C 0.03225 0.40811 0.43456 0.0
C2037 C 0.02138 0.50524 0.42341 0.0
C2038 C 0.03954 0.28896 0.42549 0.0
C2039 C 0.05646 0.24752 0.44494 0.0
N2040 N 0.0268 0.43551 0.42454 0.0
N2041 N 0.04857 0.31312 0.44431 0.0
H2042 H 0.71411 0.56531 0.45129 0.0
H2043 H 0.7333 0.1919 0.45163 0.0
H2044 H 0.68844 0.50722 0.42056 0.0
H2045 H 0.73372 0.2163 0.41543 0.0
H2046 H 0.72474 0.31928 0.45339 0.0
H2047 H 0.72827 0.44655 0.45123 0.0
C2048 C 0.71139 0.52697 0.44459 0.0
C2049 C 0.70008 0.54499 0.43595 0.0
C2050 C 0.72718 0.29725 0.44509 0.0
C2051 C 0.71612 0.41039 0.4358 0.0
C2052 C 0.73206 0.22459 0.44407 0.0
C2053 C 0.73405 0.1933 0.43336 0.0
C2054 C 0.72412 0.33822 0.43531 0.0
C2055 C 0.73225 0.23803 0.42385 0.0
C2056 C 0.71939 0.45943 0.44459 0.0
C2057 C 0.69694 0.49436 0.42742 0.0
N2058 N 0.72699 0.30787 0.42504 0.0
N2059 N 0.70506 0.42924 0.4275 0.0
H2060 H 0.02656 0.17612 0.2972 0.0
H2061 H 0.04705 0.54589 0.32994 0.0
H2062 H 0.01695 0.20855 0.33268 0.0
H2063 H 0.06267 0.50237 0.29579 0.0
H2064 H 0.03297 0.42754 0.33052 0.0
H2065 H 0.03564 0.30269 0.29575 0.0
C2066 C 0.026 0.21021 0.30464 0.0
C2067 C 0.0213 0.18129 0.31514 0.0
C2068 C 0.03945 0.44381 0.32289 0.0
C2069 C 0.03194 0.32572 0.31355 0.0
C2070 C 0.04749 0.51122 0.32257 0.0
C2071 C 0.05588 0.53375 0.31278 0.0
C2072 C 0.03985 0.39864 0.31335 0.0
C2073 C 0.05637 0.48655 0.30351 0.0
C2074 C 0.03135 0.28232 0.30382 0.0
C2075 C 0.02071 0.22825 0.32445 0.0
N2076 N 0.04839 0.42116 0.30401 0.0
N2077 N 0.02621 0.29795 0.32347 0.0
H2078 H 0.68692 0.23523 0.29766 0.0
H2079 H 0.7413 0.53082 0.331 0.0
H2080 H 0.70896 0.19729 0.33037 0.0
H2081 H 0.72307 0.56164 0.29703 0.0
H2082 H 0.73181 0.40457 0.33028 0.0
H2083 H 0.70089 0.35412 0.29701 0.0
C2084 C 0.69461 0.25237 0.30474 0.0
C2085 C 0.69696 0.20659 0.31404 0.0
C2086 C 0.73009 0.43868 0.32292 0.0
C2087 C 0.71311 0.34138 0.31332 0.0
C2088 C 0.73564 0.51067 0.3233 0.0
C2089 C 0.73267 0.5573 0.31415 0.0
C2090 C 0.72145 0.41343 0.31335 0.0
C2091 C 0.7254 0.52797 0.30435 0.0
C2092 C 0.70273 0.31968 0.30432 0.0
C2093 C 0.7071 0.23074 0.32296 0.0
N2094 N 0.71977 0.4582 0.30428 0.0
N2095 N 0.71481 0.29657 0.32239 0.0
H2096 H 0.97499 0.93867 0.04572 0.0
H2097 H 0.96214 0.30668 0.08049 0.0
H2098 H 0.9925 0.96932 0.07987 0.0
H2099 H 0.93881 0.26327 0.04835 0.0
H2100 H 0.97668 0.18948 0.07941 0.0
H2101 H 0.96619 0.06582 0.04522 0.0
C2102 C 0.97733 0.9725 0.05304 0.0
C2103 C 0.98413 0.94286 0.06296 0.0
C2104 C 0.96842 0.2056 0.07257 0.0
C2105 C 0.97383 0.08797 0.06248 0.0
C2106 C 0.96013 0.27235 0.07319 0.0
C2107 C 0.9494 0.29447 0.06445 0.0
C2108 C 0.96591 0.16071 0.06315 0.0
C2109 C 0.94693 0.24769 0.05529 0.0
C2110 C 0.97216 0.04496 0.05277 0.0
C2111 C 0.98707 0.98956 0.07211 0.0
N2112 N 0.95518 0.18292 0.05485 0.0
N2113 N 0.98164 0.05962 0.07171 0.0
H2114 H 0.29328 0.93805 0.08063 0.0
H2115 H 0.27719 0.30624 0.04647 0.0
H2116 H 0.31367 0.98091 0.0476 0.0
H2117 H 0.26222 0.27409 0.08112 0.0
H2118 H 0.28657 0.17989 0.04568 0.0
H2119 H 0.27899 0.05594 0.08021 0.0
C2120 C 0.29473 0.97253 0.07329 0.0
C2121 C 0.30451 0.94995 0.0641 0.0
C2122 C 0.28104 0.20025 0.05341 0.0
C2123 C 0.28826 0.08447 0.06353 0.0
C2124 C 0.27552 0.27224 0.05385 0.0
C2125 C 0.26923 0.30124 0.06396 0.0
C2126 C 0.28021 0.15705 0.06315 0.0
C2127 C 0.26722 0.25436 0.0732 0.0
C2128 C 0.28657 0.03965 0.07304 0.0
C2129 C 0.30628 -0.00317 0.05487 0.0
N2130 N 0.27293 0.18478 0.07262 0.0
N2131 N 0.29815 0.06197 0.05479 0.0
H2132 H 0.93623 0.97773 0.20015 0.0
H2133 H 0.99118 0.27316 0.16725 0.0
H2134 H 0.959 0.93938 0.16768 0.0
H2135 H 0.97229 0.30412 0.20106 0.0
H2136 H 0.98186 0.14666 0.16795 0.0
H2137 H 0.95028 0.09641 0.20094 0.0
C2138 C 0.9441 -0.00528 0.19316 0.0
C2139 C 0.94661 0.94892 0.18388 0.0
C2140 C 0.97996 0.18087 0.17528 0.0
C2141 C 0.96285 0.08348 0.18475 0.0
C2142 C 0.98541 0.25301 0.17491 0.0
C2143 C 0.9822 0.29974 0.18401 0.0
C2144 C 0.97117 0.15559 0.18478 0.0
C2145 C 0.9748 0.27038 0.19377 0.0
C2146 C 0.95227 0.06191 0.19366 0.0
C2147 C 0.95699 0.97286 0.17506 0.0
N2148 N 0.96926 0.20047 0.19382 0.0
N2149 N 0.96474 0.0386 0.17571 0.0
H2150 H 0.29004 0.30363 0.16755 0.0
H2151 H 0.27571 0.93537 0.20196 0.0
H2152 H 0.31208 0.25975 0.20008 0.0
H2153 H 0.25977 0.96622 0.16748 0.0
H2154 H 0.28446 0.06253 0.20267 0.0
H2155 H 0.27546 0.18647 0.16833 0.0
C2156 C 0.29176 0.26918 0.17487 0.0
C2157 C 0.30214 0.29115 0.1838 0.0
C2158 C 0.27885 0.0417 0.195 0.0
C2159 C 0.28557 0.15747 0.18477 0.0
C2160 C 0.2737 0.96925 0.19461 0.0
C2161 C 0.26736 0.93967 0.18455 0.0
C2162 C 0.27762 0.08476 0.18527 0.0
C2163 C 0.26484 0.98641 0.17535 0.0
C2164 C 0.28344 0.20246 0.17532 0.0
C2165 C 0.30424 0.24426 0.19299 0.0
N2166 N 0.27024 0.05648 0.17587 0.0
N2167 N 0.29597 0.17952 0.19326 0.0
H2168 H 0.00774 0.02094 0.91759 0.0
H2169 H 0.0621 0.72612 0.95097 0.0
H2170 H 0.02593 0.05218 0.95156 0.0
H2171 H 0.03928 0.68611 0.91856 0.0
H2172 H 0.04797 0.84469 0.95165 0.0
H2173 H 0.01677 0.89408 0.91848 0.0
C2174 C 0.01329 0.00078 0.92532 0.0
C2175 C 0.01642 0.04767 0.93442 0.0
C2176 C 0.04597 0.80982 0.94441 0.0
C2177 C 0.02712 0.90314 0.9354 0.0
C2178 C 0.05419 0.74271 0.94397 0.0
C2179 C 0.0517 0.69653 0.93474 0.0
C2180 C 0.03538 0.83092 0.93548 0.0
C2181 C 0.04126 0.7199 0.92592 0.0
C2182 C 0.01857 0.92843 0.9258 0.0
C2183 C 0.02351 0.01831 0.94427 0.0
N2184 N 0.03349 0.78561 0.92649 0.0
N2185 N 0.02891 0.94821 0.94443 0.0
H2186 H 0.73293 0.69257 0.95188 0.0
H2187 H 0.71382 0.0656 0.95104 0.0
H2188 H 0.73515 0.71585 0.9157 0.0
H2189 H 0.68973 0.00737 0.91975 0.0
H2190 H 0.72813 0.94719 0.95125 0.0
H2191 H 0.72446 0.82018 0.95338 0.0
C2192 C 0.73212 0.72509 0.94429 0.0
C2193 C 0.73458 0.69344 0.93365 0.0
C2194 C 0.71957 0.95996 0.94442 0.0
C2195 C 0.72476 0.83866 0.93528 0.0
C2196 C 0.71147 0.02727 0.94428 0.0
C2197 C 0.70054 0.04509 0.93542 0.0
C2198 C 0.71677 0.9109 0.93556 0.0
C2199 C 0.69792 -0.0054 0.92679 0.0
C2200 C 0.72729 0.79789 0.94515 0.0
C2201 C 0.73331 0.73792 0.92407 0.0
N2202 N 0.70611 0.92964 0.92703 0.0
N2203 N 0.72809 0.80794 0.9251 0.0
H2204 H 0.02611 0.68432 0.7964 0.0
H2205 H 0.04017 0.05327 0.83072 0.0
H2206 H 0.00972 0.71621 0.83077 0.0
H2207 H 0.06252 0.00907 0.7983 0.0
H2208 H 0.02574 0.93579 0.82996 0.0
H2209 H 0.03513 0.81115 0.79572 0.0
C2210 C 0.02406 0.71835 0.80373 0.0
C2211 C 0.01749 0.68915 0.81375 0.0
C2212 C 0.03377 0.95175 0.823 0.0
C2213 C 0.02805 0.8339 0.81306 0.0
C2214 C 0.042 0.01866 0.82344 0.0
C2215 C 0.05241 0.04067 0.81452 0.0
C2216 C 0.03601 0.90659 0.81357 0.0
C2217 C 0.05465 0.99357 0.80537 0.0
C2218 C 0.02936 0.79062 0.80336 0.0
C2219 C 0.01495 0.7361 0.82293 0.0
N2220 N 0.04645 0.92864 0.80511 0.0
N2221 N 0.02048 0.80597 0.82242 0.0
H2222 H 0.74132 0.02793 0.83065 0.0
H2223 H 0.68667 0.73163 0.79769 0.0
H2224 H 0.72275 0.05787 0.79674 0.0
H2225 H 0.70894 0.6944 0.83035 0.0
H2226 H 0.70072 0.85026 0.7969 0.0
H2227 H 0.73193 0.9015 0.83001 0.0
C2228 C 0.73561 0.00756 0.82297 0.0
C2229 C 0.7325 0.05399 0.81382 0.0
C2230 C 0.7026 0.81603 0.80422 0.0
C2231 C 0.7214 0.90993 0.81313 0.0
C2232 C 0.69443 0.74887 0.80473 0.0
C2233 C 0.6968 0.70338 0.81406 0.0
C2234 C 0.71306 0.83789 0.81318 0.0
C2235 C 0.70704 0.72764 0.82292 0.0
C2236 C 0.73012 0.93546 0.82265 0.0
C2237 C 0.72518 0.02436 0.80407 0.0
N2238 N 0.7148 0.79335 0.82227 0.0
N2239 N 0.71961 0.9545 0.80405 0.0
H2240 H 0.32555 0.37156 0.06123 0.0
H2241 H 0.42655 0.36668 0.0608 0.0
H2242 H 0.35628 0.56594 0.06141 0.0
H2243 H 0.39594 0.17205 0.06186 0.0
H2244 H 0.40095 0.4401 0.0605 0.0
H2245 H 0.35113 0.29781 0.06096 0.0
C2246 C 0.33768 0.3989 0.0612 0.0
C2247 C 0.33873 0.47532 0.06136 0.0
C2248 C 0.39981 0.38136 0.06079 0.0
C2249 C 0.36816 0.39064 0.06105 0.0
C2250 C 0.41445 0.3392 0.06095 0.0
C2251 C 0.41344 0.26282 0.06137 0.0
C2252 C 0.38397 0.34718 0.06104 0.0
C2253 C 0.39735 0.23065 0.06155 0.0
C2254 C 0.3523 0.35657 0.06105 0.0
C2255 C 0.35483 0.50733 0.06131 0.0
N2256 N 0.38326 0.27301 0.06139 0.0
N2257 N 0.3689 0.46483 0.06116 0.0
H2258 H 0.82433 0.86855 0.06075 0.0
H2259 H 0.92536 0.87042 0.06093 0.0
H2260 H 0.85432 0.06494 0.06183 0.0
H2261 H 0.89541 0.67386 0.06177 0.0
H2262 H 0.89949 0.94223 0.06062 0.0
H2263 H 0.85019 0.79662 0.06049 0.0
C2264 C 0.83635 0.89671 0.06091 0.0
C2265 C 0.83712 0.97314 0.06133 0.0
C2266 C 0.89856 0.88342 0.06087 0.0
C2267 C 0.86686 0.89058 0.06103 0.0
C2268 C 0.91334 0.84219 0.06103 0.0
C2269 C 0.91259 0.76575 0.06139 0.0
C2270 C 0.88283 0.8482 0.06105 0.0
C2271 C 0.89662 0.73255 0.0615 0.0
C2272 C 0.85113 0.85542 0.06077 0.0
C2273 C 0.8531 0.00626 0.06152 0.0
N2274 N 0.88238 0.77399 0.06134 0.0
N2275 N 0.86733 0.96477 0.06138 0.0
H2276 H 0.35598 0.67041 0.18659 0.0
H2277 H 0.39526 0.07295 0.18697 0.0
H2278 H 0.32604 0.86706 0.18734 0.0
H2279 H 0.42536 0.87671 0.18714 0.0
H2280 H 0.36972 -0.00184 0.18724 0.0
H2281 H 0.38159 0.74492 0.18695 0.0
C2282 C 0.35477 0.72915 0.18685 0.0
C2283 C 0.33881 0.76239 0.18692 0.0
C2284 C 0.38193 0.97149 0.18723 0.0
C2285 C 0.36807 0.84804 0.1873 0.0
C2286 C 0.39652 0.01422 0.18707 0.0
C2287 C 0.41251 0.9812 0.18701 0.0
C2288 C 0.38331 0.89515 0.18732 0.0
C2289 C 0.41333 0.90471 0.18717 0.0
C2290 C 0.36941 0.77169 0.18705 0.0
C2291 C 0.33805 0.83886 0.18726 0.0
N2292 N 0.39895 0.86438 0.1873 0.0
N2293 N 0.35245 0.87897 0.18742 0.0
H2294 H 0.82409 0.36723 0.18587 0.0
H2295 H 0.9251 0.37079 0.18587 0.0
H2296 H 0.85464 0.17231 0.18535 0.0
H2297 H 0.89455 0.56572 0.18529 0.0
H2298 H 0.89946 0.29752 0.18598 0.0
H2299 H 0.84973 0.44051 0.18596 0.0
C2300 C 0.83619 0.33967 0.18578 0.0
C2301 C 0.83718 0.26325 0.18559 0.0
C2302 C 0.89835 0.35629 0.18583 0.0
C2303 C 0.86668 0.3474 0.1857 0.0
C2304 C 0.913 0.39835 0.18577 0.0
C2305 C 0.91202 0.47478 0.18557 0.0
C2306 C 0.88252 0.39064 0.18569 0.0
C2307 C 0.89595 0.50708 0.18544 0.0
C2308 C 0.85085 0.38174 0.18583 0.0
C2309 C 0.85325 0.23094 0.18549 0.0
N2310 N 0.88183 0.46483 0.18551 0.0
N2311 N 0.86736 0.2732 0.18554 0.0
H2312 H 0.64632 0.42262 0.93631 0.0
H2313 H 0.60562 0.82255 0.9363 0.0
H2314 H 0.67573 0.62072 0.93678 0.0
H2315 H 0.57638 0.62403 0.93717 0.0
H2316 H 0.6315 0.74968 0.9365 0.0
H2317 H 0.62053 0.49574 0.93663 0.0
C2318 C 0.64738 0.48142 0.93649 0.0
C2319 C 0.66325 0.51544 0.93651 0.0
C2320 C 0.6194 0.72213 0.93666 0.0
C2321 C 0.63374 0.59959 0.93686 0.0
C2322 C 0.60462 0.76374 0.93655 0.0
C2323 C 0.58877 0.7295 0.9367 0.0
C2324 C 0.61834 0.64572 0.93691 0.0
C2325 C 0.58829 0.65299 0.93704 0.0
C2326 C 0.63263 0.52319 0.93668 0.0
C2327 C 0.6638 0.59196 0.93676 0.0
N2328 N 0.60283 0.6138 0.93711 0.0
N2329 N 0.64928 0.63136 0.93691 0.0
H2330 H 0.17519 0.1187 0.93735 0.0
H2331 H 0.07417 0.11904 0.93691 0.0
H2332 H 0.14505 0.92275 0.93625 0.0
H2333 H 0.10443 0.31479 0.93666 0.0
H2334 H 0.09994 0.04645 0.93715 0.0
H2335 H 0.14941 0.19101 0.93758 0.0
C2336 C 0.16315 0.0907 0.93717 0.0
C2337 C 0.16232 0.01429 0.93676 0.0
C2338 C 0.10096 0.10526 0.93705 0.0
C2339 C 0.13265 0.09733 0.93703 0.0
C2340 C 0.08623 0.14692 0.93692 0.0
C2341 C 0.0871 0.22337 0.93675 0.0
C2342 C 0.11673 0.14006 0.93703 0.0
C2343 C 0.10312 0.25612 0.93678 0.0
C2344 C 0.14841 0.13222 0.9373 0.0
C2345 C 0.14632 0.98141 0.93655 0.0
N2346 N 0.1173 0.21427 0.93691 0.0
N2347 N 0.13212 0.02314 0.93668 0.0
H2348 H 0.6448 0.32168 0.8121 0.0
H2349 H 0.60596 0.91826 0.81205 0.0
H2350 H 0.67501 0.12575 0.81155 0.0
H2351 H 0.57572 0.11409 0.81135 0.0
H2352 H 0.63145 0.99348 0.81189 0.0
H2353 H 0.61929 0.24651 0.81186 0.0
C2354 C 0.64609 0.26297 0.81192 0.0
C2355 C 0.6621 0.23013 0.81185 0.0
C2356 C 0.61922 0.01993 0.81176 0.0
C2357 C 0.63295 0.14371 0.81159 0.0
C2358 C 0.60466 0.97697 0.81185 0.0
C2359 C 0.58865 0.00976 0.81172 0.0
C2360 C 0.61778 0.09625 0.81156 0.0
C2361 C 0.58777 0.08623 0.81146 0.0
C2362 C 0.63152 0.22003 0.81178 0.0
C2363 C 0.66296 0.15365 0.81161 0.0
N2364 N 0.60212 0.12677 0.8114 0.0
N2365 N 0.64861 0.11316 0.8115 0.0
H2366 H 0.07512 0.61781 0.81146 0.0
H2367 H 0.17614 0.61928 0.81173 0.0
H2368 H 0.10549 0.42238 0.81211 0.0
H2369 H 0.14584 0.81491 0.81233 0.0
H2370 H 0.15042 0.54664 0.81141 0.0
H2371 H 0.10084 0.69064 0.81131 0.0
C2372 C 0.0872 0.59005 0.81155 0.0
C2373 C 0.08811 0.51361 0.81181 0.0
C2374 C 0.14937 0.60543 0.81161 0.0
C2375 C 0.11769 0.59722 0.81165 0.0
C2376 C 0.16408 0.64713 0.81178 0.0
C2377 C 0.16319 0.72357 0.81207 0.0
C2378 C 0.13358 0.64014 0.81171 0.0
C2379 C 0.14716 0.75625 0.81212 0.0
C2380 C 0.1019 0.63185 0.81148 0.0
C2381 C 0.10415 0.48103 0.81192 0.0
N2382 N 0.13299 0.71434 0.81195 0.0
N2383 N 0.1183 0.52302 0.81185 0.0
H2384 H 0.39517 0.66608 0.56187 0.0
H2385 H 0.35614 0.06924 0.56213 0.0
H2386 H 0.42532 0.86213 0.56139 0.0
H2387 H 0.32602 0.8731 0.56169 0.0
H2388 H 0.38168 -0.00575 0.56179 0.0
H2389 H 0.36965 0.74113 0.56173 0.0
C2390 C 0.39645 0.7248 0.56172 0.0
C2391 C 0.41245 0.7577 0.56165 0.0
C2392 C 0.36947 0.96769 0.56176 0.0
C2393 C 0.38327 0.84401 0.56152 0.0
C2394 C 0.35488 0.01051 0.56195 0.0
C2395 C 0.33889 0.97757 0.56195 0.0
C2396 C 0.36807 0.89135 0.56158 0.0
C2397 C 0.33806 0.90109 0.56171 0.0
C2398 C 0.38186 0.76767 0.56165 0.0
C2399 C 0.41328 0.83419 0.56146 0.0
N2400 N 0.35242 0.86069 0.56155 0.0
N2401 N 0.39892 0.87463 0.56141 0.0
H2402 H 0.82315 0.3649 0.56124 0.0
H2403 H 0.92416 0.35913 0.56151 0.0
H2404 H 0.85395 0.55903 0.56188 0.0
H2405 H 0.89343 0.1648 0.56232 0.0
H2406 H 0.8986 0.43283 0.56115 0.0
H2407 H 0.8487 0.29097 0.56111 0.0
C2408 C 0.83529 0.39215 0.56133 0.0
C2409 C 0.83637 0.46855 0.56158 0.0
C2410 C 0.89742 0.3741 0.5614 0.0
C2411 C 0.86577 0.38366 0.56145 0.0
C2412 C 0.91203 0.33178 0.5616 0.0
C2413 C 0.91098 0.2554 0.56196 0.0
C2414 C 0.88156 0.34006 0.56154 0.0
C2415 C 0.89488 0.22339 0.56206 0.0
C2416 C 0.84989 0.34971 0.56127 0.0
C2417 C 0.85248 0.50044 0.56169 0.0
N2418 N 0.8808 0.2659 0.56185 0.0
N2419 N 0.86654 0.45783 0.56164 0.0
H2420 H 0.35632 0.16533 0.68694 0.0
H2421 H 0.39589 0.56743 0.68681 0.0
H2422 H 0.32645 0.36219 0.6876 0.0
H2423 H 0.42577 0.37058 0.6872 0.0
H2424 H 0.37026 0.49308 0.68719 0.0
H2425 H 0.38196 0.23966 0.68713 0.0
C2426 C 0.35514 0.22408 0.68715 0.0
C2427 C 0.33918 0.25742 0.68724 0.0
C2428 C 0.38244 0.46621 0.68721 0.0
C2429 C 0.36848 0.3429 0.68744 0.0
C2430 C 0.39708 0.50868 0.68699 0.0
C2431 C 0.41304 0.47535 0.68696 0.0
C2432 C 0.38374 0.38985 0.68738 0.0
C2433 C 0.41377 0.39885 0.68721 0.0
C2434 C 0.36978 0.26653 0.68725 0.0
C2435 C 0.33845 0.33391 0.68751 0.0
N2436 N 0.39936 0.3588 0.68739 0.0
N2437 N 0.35287 0.37395 0.68758 0.0
H2438 H 0.85613 0.66603 0.6865 0.0
H2439 H 0.89522 0.06902 0.68652 0.0
H2440 H 0.82601 0.86223 0.68663 0.0
H2441 H 0.92532 0.87285 0.68742 0.0
H2442 H 0.86967 0.99411 0.68661 0.0
H2443 H 0.88167 0.74096 0.68686 0.0
C2444 C 0.85487 0.72476 0.68661 0.0
C2445 C 0.83887 0.75774 0.68652 0.0
C2446 C 0.88188 0.96752 0.68681 0.0
C2447 C 0.86806 0.8439 0.68694 0.0
C2448 C 0.89647 0.0103 0.68676 0.0
C2449 C 0.91247 0.97733 0.68695 0.0
C2450 C 0.88327 0.89119 0.68704 0.0
C2451 C 0.91328 0.90086 0.68726 0.0
C2452 C 0.86946 0.76756 0.68682 0.0
C2453 C 0.83805 0.83423 0.68669 0.0
N2454 N 0.89891 0.86049 0.68728 0.0
N2455 N 0.85242 0.8746 0.68687 0.0
H2456 H 0.67656 0.12174 0.43657 0.0
H2457 H 0.57552 0.11933 0.43684 0.0
H2458 H 0.64655 0.92531 0.43618 0.0
H2459 H 0.60536 0.31619 0.43602 0.0
H2460 H 0.60141 0.04777 0.43703 0.0
H2461 H 0.65069 0.19373 0.43679 0.0
C2462 C 0.66454 0.0936 0.43654 0.0
C2463 C 0.66376 0.01714 0.43635 0.0
C2464 C 0.60232 0.1066 0.43682 0.0
C2465 C 0.63402 0.0997 0.4366 0.0
C2466 C 0.58752 0.14768 0.43671 0.0
C2467 C 0.58822 0.22413 0.4364 0.0
C2468 C 0.61803 0.14197 0.43662 0.0
C2469 C 0.60418 0.25748 0.43625 0.0
C2470 C 0.64975 0.1349 0.43666 0.0
C2471 C 0.64778 0.98401 0.43632 0.0
N2472 N 0.61845 0.21618 0.43636 0.0
N2473 N 0.63355 0.0255 0.43644 0.0
H2474 H 0.07525 0.62037 0.43827 0.0
H2475 H 0.17617 0.61004 0.44027 0.0
H2476 H 0.10666 0.81185 0.44111 0.0
H2477 H 0.1453 0.41701 0.4373 0.0
H2478 H 0.15071 0.68379 0.44128 0.0
H2479 H 0.10056 0.54456 0.43864 0.0
C2480 C 0.08746 0.64659 0.43901 0.0
C2481 C 0.0888 0.72283 0.43962 0.0
C2482 C 0.14947 0.62532 0.44044 0.0
C2483 C 0.11787 0.63596 0.44001 0.0
C2484 C 0.16403 0.58296 0.43985 0.0
C2485 C 0.16292 0.50698 0.43865 0.0
C2486 C 0.13357 0.5918 0.4398 0.0
C2487 C 0.14679 0.47532 0.4382 0.0
C2488 C 0.10191 0.60312 0.43922 0.0
C2489 C 0.10498 0.75344 0.44059 0.0
N2490 N 0.13274 0.51793 0.43874 0.0
N2491 N 0.11887 0.70992 0.44072 0.0
H2492 H 0.57505 0.6233 0.31189 0.0
H2493 H 0.67604 0.6282 0.31183 0.0
H2494 H 0.60575 0.42883 0.31251 0.0
H2495 H 0.64537 0.82278 0.31236 0.0
H2496 H 0.65046 0.55464 0.31173 0.0
H2497 H 0.60062 0.69695 0.31172 0.0
C2498 C 0.58717 0.59591 0.31198 0.0
C2499 C 0.58822 0.51951 0.31223 0.0
C2500 C 0.6493 0.61339 0.31186 0.0
C2501 C 0.61764 0.60409 0.31202 0.0
C2502 C 0.66393 0.65563 0.31191 0.0
C2503 C 0.66289 0.73204 0.31211 0.0
C2504 C 0.63345 0.64755 0.312 0.0
C2505 C 0.6468 0.76416 0.31221 0.0
C2506 C 0.60179 0.6382 0.31189 0.0
C2507 C 0.60431 0.48744 0.31233 0.0
N2508 N 0.63272 0.72174 0.31216 0.0
N2509 N 0.61839 0.52991 0.31223 0.0
H2510 H 0.14467 0.32338 0.31094 0.0
H2511 H 0.10673 0.91918 0.30738 0.0
H2512 H 0.17506 0.12868 0.30829 0.0
H2513 H 0.07585 0.11234 0.31018 0.0
H2514 H 0.13188 -0.00394 0.30701 0.0
H2515 H 0.11921 0.24785 0.31002 0.0
C2516 C 0.14601 0.2649 0.31014 0.0
C2517 C 0.16205 0.23244 0.30974 0.0
C2518 C 0.1196 0.02166 0.30767 0.0
C2519 C 0.13299 0.14573 0.30869 0.0
C2520 C 0.10521 0.97772 0.30788 0.0
C2521 C 0.08913 0.00919 0.30885 0.0
C2522 C 0.11792 0.09771 0.30847 0.0
C2523 C 0.08798 0.08552 0.30945 0.0
C2524 C 0.13147 0.22179 0.30962 0.0
C2525 C 0.16299 0.1563 0.30867 0.0
N2526 N 0.10218 0.12709 0.30928 0.0
N2527 N 0.14869 0.11568 0.30821 0.0
loop_
_geom_bond_atom_site_label_1
_geom_bond_atom_site_label_2
_geom_bond_distance
_geom_bond_site_symmetry_2
_ccdc_geom_bond_type
Co0 O3 1.970 . S
Co0 N17 1.989 . S
Co0 O25 1.967 . S
Co0 O32 1.920 . S
Co1 O4 1.966 . S
Co1 N10 2.022 1_545 S
Co1 N18 1.993 . S
Co1 O26 1.941 . S
C2 O3 1.258 . S
C2 O4 1.263 . S
O3 Co0 1.970 . S
O3 C2 1.258 . S
O4 Co1 1.966 . S
O4 C2 1.263 . S
C5 O6 1.235 . S
C5 O32 1.289 . S
O6 C5 1.235 . S
C7 C9 1.400 . S
C7 N10 1.351 . S
C7 C12 1.501 . S
C8 C9 1.387 . S
C8 N11 1.341 . S
C9 C7 1.400 . S
C9 C8 1.387 . S
N10 Co1 2.022 1_565 S
N10 C7 1.351 . S
N10 N11 1.365 . S
N11 C8 1.341 . S
N11 N10 1.365 . S
N11 H31 0.862 . S
C12 C7 1.501 . S
C12 H13 0.961 . S
C12 H14 0.961 . S
C12 H15 0.960 . S
H13 C12 0.961 . S
H14 C12 0.961 . S
H15 C12 0.960 . S
C16 N17 1.342 . S
C16 C20 1.401 . S
C16 C21 1.499 . S
N17 Co0 1.989 . S
N17 C16 1.342 . S
N17 N18 1.388 . S
N18 Co1 1.993 . S
N18 N17 1.388 . S
N18 C19 1.346 . S
C19 N18 1.346 . S
C19 C20 1.396 . S
C19 C29 1.510 1_545 S
C20 C16 1.401 . S
C20 C19 1.396 . S
C21 C16 1.499 . S
C21 H22 0.959 . S
C21 H23 0.960 . S
C21 H24 0.961 . S
H22 C21 0.959 . S
H23 C21 0.960 . S
H24 C21 0.961 . S
O25 Co0 1.967 . S
O25 C33 1.258 . S
O26 Co1 1.941 . S
O26 C33 1.266 . S
H27 C29 0.959 . S
H28 C29 0.961 . S
C29 C19 1.510 1_565 S
C29 H27 0.959 . S
C29 H28 0.961 . S
C29 H30 0.960 . S
H30 C29 0.960 . S
H31 N11 0.862 . S
O32 Co0 1.920 . S
O32 C5 1.289 . S
C33 O25 1.258 . S
C33 O26 1.266 . S
Co34 O37 1.970 . S
Co34 N51 1.989 . S
Co34 O59 1.967 . S
Co34 O66 1.920 1_545 S
Co35 O38 1.966 . S
Co35 N44 2.022 . S
Co35 N52 1.993 . S
Co35 O60 1.941 . S
C36 O37 1.258 . S
C36 O38 1.263 . S
O37 Co34 1.970 . S
O37 C36 1.258 . S
O38 Co35 1.966 . S
O38 C36 1.263 . S
C39 O40 1.235 . S
C39 O66 1.289 . S
O40 C39 1.235 . S
C41 C43 1.400 . S
C41 N44 1.351 . S
C41 C46 1.501 . S
C42 C43 1.387 . S
C42 N45 1.341 . S
C43 C41 1.400 . S
C43 C42 1.387 . S
N44 Co35 2.022 . S
N44 C41 1.351 . S
N44 N45 1.365 . S
N45 C42 1.341 . S
N45 N44 1.365 . S
N45 H65 0.862 . S
C46 C41 1.501 . S
C46 H47 0.961 . S
C46 H48 0.961 . S
C46 H49 0.960 . S
H47 C46 0.961 . S
H48 C46 0.961 . S
H49 C46 0.960 . S
C50 N51 1.342 . S
C50 C54 1.401 . S
C50 C55 1.499 1_545 S
N51 Co34 1.989 . S
N51 C50 1.342 . S
N51 N52 1.388 . S
N52 Co35 1.993 . S
N52 N51 1.388 . S
N52 C53 1.346 . S
C53 N52 1.346 . S
C53 C54 1.396 . S
C53 C63 1.510 . S
C54 C50 1.401 . S
C54 C53 1.396 . S
C55 C50 1.499 1_565 S
C55 H56 0.959 . S
C55 H57 0.960 . S
C55 H58 0.961 . S
H56 C55 0.959 . S
H57 C55 0.960 . S
H58 C55 0.961 . S
O59 Co34 1.967 . S
O59 C67 1.258 . S
O60 Co35 1.941 . S
O60 C67 1.266 . S
H61 C63 0.959 . S
H62 C63 0.961 . S
C63 C53 1.510 . S
C63 H61 0.959 . S
C63 H62 0.961 . S
C63 H64 0.960 . S
H64 C63 0.960 . S
H65 N45 0.862 . S
O66 Co34 1.920 1_565 S
O66 C39 1.289 . S
C67 O59 1.258 . S
C67 O60 1.266 . S
Co68 O71 1.970 . S
Co68 N85 1.989 . S
Co68 O93 1.967 . S
Co68 O100 1.920 1_545 S
Co69 O72 1.966 . S
Co69 N78 2.022 . S
Co69 N86 1.993 . S
Co69 O94 1.941 . S
C70 O71 1.258 . S
C70 O72 1.263 . S
O71 Co68 1.970 . S
O71 C70 1.258 . S
O72 Co69 1.966 . S
O72 C70 1.263 . S
C73 O74 1.235 . S
C73 O100 1.289 . S
O74 C73 1.235 . S
C75 C77 1.400 . S
C75 N78 1.351 . S
C75 C80 1.501 . S
C76 C77 1.387 . S
C76 N79 1.341 . S
C77 C75 1.400 . S
C77 C76 1.387 . S
N78 Co69 2.022 . S
N78 C75 1.351 . S
N78 N79 1.365 . S
N79 C76 1.341 . S
N79 N78 1.365 . S
N79 H99 0.862 . S
C80 C75 1.501 . S
C80 H81 0.961 . S
C80 H82 0.961 . S
C80 H83 0.960 . S
H81 C80 0.961 . S
H82 C80 0.961 . S
H83 C80 0.960 . S
C84 N85 1.342 . S
C84 C88 1.401 . S
C84 C89 1.499 1_545 S
N85 Co68 1.989 . S
N85 C84 1.342 . S
N85 N86 1.388 . S
N86 Co69 1.993 . S
N86 N85 1.388 . S
N86 C87 1.346 . S
C87 N86 1.346 . S
C87 C88 1.396 . S
C87 C97 1.510 . S
C88 C84 1.401 . S
C88 C87 1.396 . S
C89 C84 1.499 1_565 S
C89 H90 0.959 . S
C89 H91 0.960 . S
C89 H92 0.961 . S
H90 C89 0.959 . S
H91 C89 0.960 . S
H92 C89 0.961 . S
O93 Co68 1.967 . S
O93 C101 1.258 . S
O94 Co69 1.941 . S
O94 C101 1.266 . S
H95 C97 0.959 . S
H96 C97 0.961 . S
C97 C87 1.510 . S
C97 H95 0.959 . S
C97 H96 0.961 . S
C97 H98 0.960 . S
H98 C97 0.960 . S
H99 N79 0.862 . S
O100 Co68 1.920 1_565 S
O100 C73 1.289 . S
C101 O93 1.258 . S
C101 O94 1.266 . S
Co102 O105 1.970 . S
Co102 N119 1.989 . S
Co102 O127 1.967 . S
Co102 O134 1.920 . S
Co103 O106 1.966 . S
Co103 N112 2.022 1_545 S
Co103 N120 1.993 . S
Co103 O128 1.941 . S
C104 O105 1.258 . S
C104 O106 1.263 . S
O105 Co102 1.970 . S
O105 C104 1.258 . S
O106 Co103 1.966 . S
O106 C104 1.263 . S
C107 O108 1.235 . S
C107 O134 1.289 . S
O108 C107 1.235 . S
C109 C111 1.400 . S
C109 N112 1.351 . S
C109 C114 1.501 . S
C110 C111 1.387 . S
C110 N113 1.341 . S
C111 C109 1.400 . S
C111 C110 1.387 . S
N112 Co103 2.022 1_565 S
N112 C109 1.351 . S
N112 N113 1.365 . S
N113 C110 1.341 . S
N113 N112 1.365 . S
N113 H133 0.862 . S
C114 C109 1.501 . S
C114 H115 0.961 . S
C114 H116 0.961 . S
C114 H117 0.960 . S
H115 C114 0.961 . S
H116 C114 0.961 . S
H117 C114 0.960 . S
C118 N119 1.342 . S
C118 C122 1.401 . S
C118 C123 1.499 . S
N119 Co102 1.989 . S
N119 C118 1.342 . S
N119 N120 1.388 . S
N120 Co103 1.993 . S
N120 N119 1.388 . S
N120 C121 1.346 . S
C121 N120 1.346 . S
C121 C122 1.396 . S
C121 C131 1.510 1_545 S
C122 C118 1.401 . S
C122 C121 1.396 . S
C123 C118 1.499 . S
C123 H124 0.959 . S
C123 H125 0.960 . S
C123 H126 0.961 . S
H124 C123 0.959 . S
H125 C123 0.960 . S
H126 C123 0.961 . S
O127 Co102 1.967 . S
O127 C135 1.258 . S
O128 Co103 1.941 . S
O128 C135 1.266 . S
H129 C131 0.959 . S
H130 C131 0.961 . S
C131 C121 1.510 1_565 S
C131 H129 0.959 . S
C131 H130 0.961 . S
C131 H132 0.960 . S
H132 C131 0.960 . S
H133 N113 0.862 . S
O134 Co102 1.920 . S
O134 C107 1.289 . S
C135 O127 1.258 . S
C135 O128 1.266 . S
Co136 O139 1.970 . S
Co136 N153 1.989 . S
Co136 O161 1.967 . S
Co136 O168 1.920 . S
Co137 O140 1.966 . S
Co137 N146 2.022 1_565 S
Co137 N154 1.993 . S
Co137 O162 1.941 . S
C138 O139 1.258 . S
C138 O140 1.263 . S
O139 Co136 1.970 . S
O139 C138 1.258 . S
O140 Co137 1.966 . S
O140 C138 1.263 . S
C141 O142 1.235 . S
C141 O168 1.289 . S
O142 C141 1.235 . S
C143 C145 1.400 . S
C143 N146 1.351 . S
C143 C148 1.501 . S
C144 C145 1.387 . S
C144 N147 1.341 . S
C145 C143 1.400 . S
C145 C144 1.387 . S
N146 Co137 2.022 1_545 S
N146 C143 1.351 . S
N146 N147 1.365 . S
N147 C144 1.341 . S
N147 N146 1.365 . S
N147 H167 0.862 . S
C148 C143 1.501 . S
C148 H149 0.961 . S
C148 H150 0.961 . S
C148 H151 0.960 . S
H149 C148 0.961 . S
H150 C148 0.961 . S
H151 C148 0.960 . S
C152 N153 1.342 . S
C152 C156 1.401 . S
C152 C157 1.499 . S
N153 Co136 1.989 . S
N153 C152 1.342 . S
N153 N154 1.388 . S
N154 Co137 1.993 . S
N154 N153 1.388 . S
N154 C155 1.346 . S
C155 N154 1.346 . S
C155 C156 1.396 . S
C155 C165 1.510 1_565 S
C156 C152 1.401 . S
C156 C155 1.396 . S
C157 C152 1.499 . S
C157 H158 0.959 . S
C157 H159 0.960 . S
C157 H160 0.961 . S
H158 C157 0.959 . S
H159 C157 0.960 . S
H160 C157 0.961 . S
O161 Co136 1.967 . S
O161 C169 1.258 . S
O162 Co137 1.941 . S
O162 C169 1.266 . S
H163 C165 0.959 . S
H164 C165 0.961 . S
C165 C155 1.510 1_545 S
C165 H163 0.959 . S
C165 H164 0.961 . S
C165 H166 0.960 . S
H166 C165 0.960 . S
H167 N147 0.862 . S
O168 Co136 1.920 . S
O168 C141 1.289 . S
C169 O161 1.258 . S
C169 O162 1.266 . S
Co170 O173 1.970 . S
Co170 N187 1.989 . S
Co170 O195 1.967 . S
Co170 O202 1.920 1_565 S
Co171 O174 1.966 . S
Co171 N180 2.022 . S
Co171 N188 1.993 . S
Co171 O196 1.941 . S
C172 O173 1.258 . S
C172 O174 1.263 . S
O173 Co170 1.970 . S
O173 C172 1.258 . S
O174 Co171 1.966 . S
O174 C172 1.263 . S
C175 O176 1.235 . S
C175 O202 1.289 . S
O176 C175 1.235 . S
C177 C179 1.400 . S
C177 N180 1.351 . S
C177 C182 1.501 . S
C178 C179 1.387 . S
C178 N181 1.341 . S
C179 C177 1.400 . S
C179 C178 1.387 . S
N180 Co171 2.022 . S
N180 C177 1.351 . S
N180 N181 1.365 . S
N181 C178 1.341 . S
N181 N180 1.365 . S
N181 H201 0.862 . S
C182 C177 1.501 . S
C182 H183 0.961 . S
C182 H184 0.961 . S
C182 H185 0.960 . S
H183 C182 0.961 . S
H184 C182 0.961 . S
H185 C182 0.960 . S
C186 N187 1.342 . S
C186 C190 1.401 . S
C186 C191 1.499 1_565 S
N187 Co170 1.989 . S
N187 C186 1.342 . S
N187 N188 1.388 . S
N188 Co171 1.993 . S
N188 N187 1.388 . S
N188 C189 1.346 . S
C189 N188 1.346 . S
C189 C190 1.396 . S
C189 C199 1.510 . S
C190 C186 1.401 . S
C190 C189 1.396 . S
C191 C186 1.499 1_545 S
C191 H192 0.959 . S
C191 H193 0.960 . S
C191 H194 0.961 . S
H192 C191 0.959 . S
H193 C191 0.960 . S
H194 C191 0.961 . S
O195 Co170 1.967 . S
O195 C203 1.258 . S
O196 Co171 1.941 . S
O196 C203 1.266 . S
H197 C199 0.959 . S
H198 C199 0.961 . S
C199 C189 1.510 . S
C199 H197 0.959 . S
C199 H198 0.961 . S
C199 H200 0.960 . S
H200 C199 0.960 . S
H201 N181 0.862 . S
O202 Co170 1.920 1_545 S
O202 C175 1.289 . S
C203 O195 1.258 . S
C203 O196 1.266 . S
Co204 O207 1.970 . S
Co204 N221 1.989 . S
Co204 O229 1.967 . S
Co204 O236 1.920 1_565 S
Co205 O208 1.966 . S
Co205 N214 2.022 . S
Co205 N222 1.993 . S
Co205 O230 1.941 . S
C206 O207 1.258 . S
C206 O208 1.263 . S
O207 Co204 1.970 . S
O207 C206 1.258 . S
O208 Co205 1.966 . S
O208 C206 1.263 . S
C209 O210 1.235 . S
C209 O236 1.289 . S
O210 C209 1.235 . S
C211 C213 1.400 . S
C211 N214 1.351 . S
C211 C216 1.501 . S
C212 C213 1.387 . S
C212 N215 1.341 . S
C213 C211 1.400 . S
C213 C212 1.387 . S
N214 Co205 2.022 . S
N214 C211 1.351 . S
N214 N215 1.365 . S
N215 C212 1.341 . S
N215 N214 1.365 . S
N215 H235 0.862 . S
C216 C211 1.501 . S
C216 H217 0.961 . S
C216 H218 0.961 . S
C216 H219 0.960 . S
H217 C216 0.961 . S
H218 C216 0.961 . S
H219 C216 0.960 . S
C220 N221 1.342 . S
C220 C224 1.401 . S
C220 C225 1.499 1_565 S
N221 Co204 1.989 . S
N221 C220 1.342 . S
N221 N222 1.388 . S
N222 Co205 1.993 . S
N222 N221 1.388 . S
N222 C223 1.346 . S
C223 N222 1.346 . S
C223 C224 1.396 . S
C223 C233 1.510 . S
C224 C220 1.401 . S
C224 C223 1.396 . S
C225 C220 1.499 1_545 S
C225 H226 0.959 . S
C225 H227 0.960 . S
C225 H228 0.961 . S
H226 C225 0.959 . S
H227 C225 0.960 . S
H228 C225 0.961 . S
O229 Co204 1.967 . S
O229 C237 1.258 . S
O230 Co205 1.941 . S
O230 C237 1.266 . S
H231 C233 0.959 . S
H232 C233 0.961 . S
C233 C223 1.510 . S
C233 H231 0.959 . S
C233 H232 0.961 . S
C233 H234 0.960 . S
H234 C233 0.960 . S
H235 N215 0.862 . S
O236 Co204 1.920 1_545 S
O236 C209 1.289 . S
C237 O229 1.258 . S
C237 O230 1.266 . S
Co238 O241 1.970 . S
Co238 N255 1.989 . S
Co238 O263 1.967 . S
Co238 O270 1.920 . S
Co239 O242 1.966 . S
Co239 N248 2.022 1_565 S
Co239 N256 1.993 . S
Co239 O264 1.941 . S
C240 O241 1.258 . S
C240 O242 1.263 . S
O241 Co238 1.970 . S
O241 C240 1.258 . S
O242 Co239 1.966 . S
O242 C240 1.263 . S
C243 O244 1.235 . S
C243 O270 1.289 . S
O244 C243 1.235 . S
C245 C247 1.400 . S
C245 N248 1.351 . S
C245 C250 1.501 . S
C246 C247 1.387 . S
C246 N249 1.341 . S
C247 C245 1.400 . S
C247 C246 1.387 . S
N248 Co239 2.022 1_545 S
N248 C245 1.351 . S
N248 N249 1.365 . S
N249 C246 1.341 . S
N249 N248 1.365 . S
N249 H269 0.862 . S
C250 C245 1.501 . S
C250 H251 0.961 . S
C250 H252 0.961 . S
C250 H253 0.960 . S
H251 C250 0.961 . S
H252 C250 0.961 . S
H253 C250 0.960 . S
C254 N255 1.342 . S
C254 C258 1.401 . S
C254 C259 1.499 . S
N255 Co238 1.989 . S
N255 C254 1.342 . S
N255 N256 1.388 . S
N256 Co239 1.993 . S
N256 N255 1.388 . S
N256 C257 1.346 . S
C257 N256 1.346 . S
C257 C258 1.396 . S
C257 C267 1.510 1_565 S
C258 C254 1.401 . S
C258 C257 1.396 . S
C259 C254 1.499 . S
C259 H260 0.959 . S
C259 H261 0.960 . S
C259 H262 0.961 . S
H260 C259 0.959 . S
H261 C259 0.960 . S
H262 C259 0.961 . S
O263 Co238 1.967 . S
O263 C271 1.258 . S
O264 Co239 1.941 . S
O264 C271 1.266 . S
H265 C267 0.959 . S
H266 C267 0.961 . S
C267 C257 1.510 1_545 S
C267 H265 0.959 . S
C267 H266 0.961 . S
C267 H268 0.960 . S
H268 C267 0.960 . S
H269 N249 0.862 . S
O270 Co238 1.920 . S
O270 C243 1.289 . S
C271 O263 1.258 . S
C271 O264 1.266 . S
Co272 O275 1.970 . S
Co272 N289 1.989 . S
Co272 O297 1.967 . S
Co272 O304 1.920 . S
Co273 O276 1.966 . S
Co273 N282 2.022 . S
Co273 N290 1.993 . S
Co273 O298 1.941 . S
C274 O275 1.258 . S
C274 O276 1.263 . S
O275 Co272 1.970 . S
O275 C274 1.258 . S
O276 Co273 1.966 . S
O276 C274 1.263 . S
C277 O278 1.235 . S
C277 O304 1.289 . S
O278 C277 1.235 . S
C279 C281 1.400 . S
C279 N282 1.351 . S
C279 C284 1.501 . S
C280 C281 1.387 . S
C280 N283 1.341 . S
C281 C279 1.400 . S
C281 C280 1.387 . S
N282 Co273 2.022 . S
N282 C279 1.351 . S
N282 N283 1.365 . S
N283 C280 1.341 . S
N283 N282 1.365 . S
N283 H303 0.862 . S
C284 C279 1.501 . S
C284 H285 0.961 . S
C284 H286 0.961 . S
C284 H287 0.960 . S
H285 C284 0.961 . S
H286 C284 0.961 . S
H287 C284 0.960 . S
C288 N289 1.342 . S
C288 C292 1.401 . S
C288 C293 1.499 . S
N289 Co272 1.989 . S
N289 C288 1.342 . S
N289 N290 1.388 . S
N290 Co273 1.993 . S
N290 N289 1.388 . S
N290 C291 1.346 . S
C291 N290 1.346 . S
C291 C292 1.396 . S
C291 C301 1.510 . S
C292 C288 1.401 . S
C292 C291 1.396 . S
C293 C288 1.499 . S
C293 H294 0.959 . S
C293 H295 0.960 . S
C293 H296 0.961 . S
H294 C293 0.959 . S
H295 C293 0.960 . S
H296 C293 0.961 . S
O297 Co272 1.967 . S
O297 C305 1.258 . S
O298 Co273 1.941 . S
O298 C305 1.266 . S
H299 C301 0.959 . S
H300 C301 0.961 . S
C301 C291 1.510 . S
C301 H299 0.959 . S
C301 H300 0.961 . S
C301 H302 0.960 . S
H302 C301 0.960 . S
H303 N283 0.862 . S
O304 Co272 1.920 . S
O304 C277 1.289 . S
C305 O297 1.258 . S
C305 O298 1.266 . S
Co306 O309 1.970 . S
Co306 N323 1.989 . S
Co306 O331 1.967 . S
Co306 O338 1.920 . S
Co307 O310 1.966 . S
Co307 N316 2.022 . S
Co307 N324 1.993 . S
Co307 O332 1.941 . S
C308 O309 1.258 . S
C308 O310 1.263 . S
O309 Co306 1.970 . S
O309 C308 1.258 . S
O310 Co307 1.966 . S
O310 C308 1.263 . S
C311 O312 1.235 . S
C311 O338 1.289 . S
O312 C311 1.235 . S
C313 C315 1.400 . S
C313 N316 1.351 . S
C313 C318 1.501 . S
C314 C315 1.387 . S
C314 N317 1.341 . S
C315 C313 1.400 . S
C315 C314 1.387 . S
N316 Co307 2.022 . S
N316 C313 1.351 . S
N316 N317 1.365 . S
N317 C314 1.341 . S
N317 N316 1.365 . S
N317 H337 0.862 . S
C318 C313 1.501 . S
C318 H319 0.961 . S
C318 H320 0.961 . S
C318 H321 0.960 . S
H319 C318 0.961 . S
H320 C318 0.961 . S
H321 C318 0.960 . S
C322 N323 1.342 . S
C322 C326 1.401 . S
C322 C327 1.499 . S
N323 Co306 1.989 . S
N323 C322 1.342 . S
N323 N324 1.388 . S
N324 Co307 1.993 . S
N324 N323 1.388 . S
N324 C325 1.346 . S
C325 N324 1.346 . S
C325 C326 1.396 . S
C325 C335 1.510 . S
C326 C322 1.401 . S
C326 C325 1.396 . S
C327 C322 1.499 . S
C327 H328 0.959 . S
C327 H329 0.960 . S
C327 H330 0.961 . S
H328 C327 0.959 . S
H329 C327 0.960 . S
H330 C327 0.961 . S
O331 Co306 1.967 . S
O331 C339 1.258 . S
O332 Co307 1.941 . S
O332 C339 1.266 . S
H333 C335 0.959 . S
H334 C335 0.961 . S
C335 C325 1.510 . S
C335 H333 0.959 . S
C335 H334 0.961 . S
C335 H336 0.960 . S
H336 C335 0.960 . S
H337 N317 0.862 . S
O338 Co306 1.920 . S
O338 C311 1.289 . S
C339 O331 1.258 . S
C339 O332 1.266 . S
Co340 O343 1.970 . S
Co340 N357 1.989 . S
Co340 O365 1.967 . S
Co340 O372 1.920 . S
Co341 O344 1.966 . S
Co341 N350 2.022 . S
Co341 N358 1.993 . S
Co341 O366 1.941 . S
C342 O343 1.258 . S
C342 O344 1.263 . S
O343 Co340 1.970 . S
O343 C342 1.258 . S
O344 Co341 1.966 . S
O344 C342 1.263 . S
C345 O346 1.235 . S
C345 O372 1.289 . S
O346 C345 1.235 . S
C347 C349 1.400 . S
C347 N350 1.351 . S
C347 C352 1.501 . S
C348 C349 1.387 . S
C348 N351 1.341 . S
C349 C347 1.400 . S
C349 C348 1.387 . S
N350 Co341 2.022 . S
N350 C347 1.351 . S
N350 N351 1.365 . S
N351 C348 1.341 . S
N351 N350 1.365 . S
N351 H371 0.862 . S
C352 C347 1.501 . S
C352 H353 0.961 . S
C352 H354 0.961 . S
C352 H355 0.960 . S
H353 C352 0.961 . S
H354 C352 0.961 . S
H355 C352 0.960 . S
C356 N357 1.342 . S
C356 C360 1.401 . S
C356 C361 1.499 . S
N357 Co340 1.989 . S
N357 C356 1.342 . S
N357 N358 1.388 . S
N358 Co341 1.993 . S
N358 N357 1.388 . S
N358 C359 1.346 . S
C359 N358 1.346 . S
C359 C360 1.396 . S
C359 C369 1.510 . S
C360 C356 1.401 . S
C360 C359 1.396 . S
C361 C356 1.499 . S
C361 H362 0.959 . S
C361 H363 0.960 . S
C361 H364 0.961 . S
H362 C361 0.959 . S
H363 C361 0.960 . S
H364 C361 0.961 . S
O365 Co340 1.967 . S
O365 C373 1.258 . S
O366 Co341 1.941 . S
O366 C373 1.266 . S
H367 C369 0.959 . S
H368 C369 0.961 . S
C369 C359 1.510 . S
C369 H367 0.959 . S
C369 H368 0.961 . S
C369 H370 0.960 . S
H370 C369 0.960 . S
H371 N351 0.862 . S
O372 Co340 1.920 . S
O372 C345 1.289 . S
C373 O365 1.258 . S
C373 O366 1.266 . S
Co374 O377 1.970 . S
Co374 N391 1.989 . S
Co374 O399 1.967 . S
Co374 O406 1.920 . S
Co375 O378 1.966 . S
Co375 N384 2.022 . S
Co375 N392 1.993 . S
Co375 O400 1.941 . S
C376 O377 1.258 . S
C376 O378 1.263 . S
O377 Co374 1.970 . S
O377 C376 1.258 . S
O378 Co375 1.966 . S
O378 C376 1.263 . S
C379 O380 1.235 . S
C379 O406 1.289 . S
O380 C379 1.235 . S
C381 C383 1.400 . S
C381 N384 1.351 . S
C381 C386 1.501 . S
C382 C383 1.387 . S
C382 N385 1.341 . S
C383 C381 1.400 . S
C383 C382 1.387 . S
N384 Co375 2.022 . S
N384 C381 1.351 . S
N384 N385 1.365 . S
N385 C382 1.341 . S
N385 N384 1.365 . S
N385 H405 0.862 . S
C386 C381 1.501 . S
C386 H387 0.961 . S
C386 H388 0.961 . S
C386 H389 0.960 . S
H387 C386 0.961 . S
H388 C386 0.961 . S
H389 C386 0.960 . S
C390 N391 1.342 . S
C390 C394 1.401 . S
C390 C395 1.499 . S
N391 Co374 1.989 . S
N391 C390 1.342 . S
N391 N392 1.388 . S
N392 Co375 1.993 . S
N392 N391 1.388 . S
N392 C393 1.346 . S
C393 N392 1.346 . S
C393 C394 1.396 . S
C393 C403 1.510 . S
C394 C390 1.401 . S
C394 C393 1.396 . S
C395 C390 1.499 . S
C395 H396 0.959 . S
C395 H397 0.960 . S
C395 H398 0.961 . S
H396 C395 0.959 . S
H397 C395 0.960 . S
H398 C395 0.961 . S
O399 Co374 1.967 . S
O399 C407 1.258 . S
O400 Co375 1.941 . S
O400 C407 1.266 . S
H401 C403 0.959 . S
H402 C403 0.961 . S
C403 C393 1.510 . S
C403 H401 0.959 . S
C403 H402 0.961 . S
C403 H404 0.960 . S
H404 C403 0.960 . S
H405 N385 0.862 . S
O406 Co374 1.920 . S
O406 C379 1.289 . S
C407 O399 1.258 . S
C407 O400 1.266 . S
Co408 O411 1.970 . S
Co408 N425 1.989 . S
Co408 O433 1.967 . S
Co408 O440 1.920 . S
Co409 O412 1.966 . S
Co409 N418 2.022 . S
Co409 N426 1.993 . S
Co409 O434 1.941 . S
C410 O411 1.258 . S
C410 O412 1.263 . S
O411 Co408 1.970 . S
O411 C410 1.258 . S
O412 Co409 1.966 . S
O412 C410 1.263 . S
C413 O414 1.235 . S
C413 O440 1.289 . S
O414 C413 1.235 . S
C415 C417 1.400 . S
C415 N418 1.351 . S
C415 C420 1.501 . S
C416 C417 1.387 . S
C416 N419 1.341 . S
C417 C415 1.400 . S
C417 C416 1.387 . S
N418 Co409 2.022 . S
N418 C415 1.351 . S
N418 N419 1.365 . S
N419 C416 1.341 . S
N419 N418 1.365 . S
N419 H439 0.862 . S
C420 C415 1.501 . S
C420 H421 0.961 . S
C420 H422 0.961 . S
C420 H423 0.960 . S
H421 C420 0.961 . S
H422 C420 0.961 . S
H423 C420 0.960 . S
C424 N425 1.342 . S
C424 C428 1.401 . S
C424 C429 1.499 . S
N425 Co408 1.989 . S
N425 C424 1.342 . S
N425 N426 1.388 . S
N426 Co409 1.993 . S
N426 N425 1.388 . S
N426 C427 1.346 . S
C427 N426 1.346 . S
C427 C428 1.396 . S
C427 C437 1.510 . S
C428 C424 1.401 . S
C428 C427 1.396 . S
C429 C424 1.499 . S
C429 H430 0.959 . S
C429 H431 0.960 . S
C429 H432 0.961 . S
H430 C429 0.959 . S
H431 C429 0.960 . S
H432 C429 0.961 . S
O433 Co408 1.967 . S
O433 C441 1.258 . S
O434 Co409 1.941 . S
O434 C441 1.266 . S
H435 C437 0.959 . S
H436 C437 0.961 . S
C437 C427 1.510 . S
C437 H435 0.959 . S
C437 H436 0.961 . S
C437 H438 0.960 . S
H438 C437 0.960 . S
H439 N419 0.862 . S
O440 Co408 1.920 . S
O440 C413 1.289 . S
C441 O433 1.258 . S
C441 O434 1.266 . S
Co442 O445 1.970 . S
Co442 N459 1.989 . S
Co442 O467 1.967 . S
Co442 O474 1.920 . S
Co443 O446 1.966 . S
Co443 N452 2.022 . S
Co443 N460 1.993 . S
Co443 O468 1.941 . S
C444 O445 1.258 . S
C444 O446 1.263 . S
O445 Co442 1.970 . S
O445 C444 1.258 . S
O446 Co443 1.966 . S
O446 C444 1.263 . S
C447 O448 1.235 . S
C447 O474 1.289 . S
O448 C447 1.235 . S
C449 C451 1.400 . S
C449 N452 1.351 . S
C449 C454 1.501 . S
C450 C451 1.387 . S
C450 N453 1.341 . S
C451 C449 1.400 . S
C451 C450 1.387 . S
N452 Co443 2.022 . S
N452 C449 1.351 . S
N452 N453 1.365 . S
N453 C450 1.341 . S
N453 N452 1.365 . S
N453 H473 0.862 . S
C454 C449 1.501 . S
C454 H455 0.961 . S
C454 H456 0.961 . S
C454 H457 0.960 . S
H455 C454 0.961 . S
H456 C454 0.961 . S
H457 C454 0.960 . S
C458 N459 1.342 . S
C458 C462 1.401 . S
C458 C463 1.499 . S
N459 Co442 1.989 . S
N459 C458 1.342 . S
N459 N460 1.388 . S
N460 Co443 1.993 . S
N460 N459 1.388 . S
N460 C461 1.346 . S
C461 N460 1.346 . S
C461 C462 1.396 . S
C461 C471 1.510 . S
C462 C458 1.401 . S
C462 C461 1.396 . S
C463 C458 1.499 . S
C463 H464 0.959 . S
C463 H465 0.960 . S
C463 H466 0.961 . S
H464 C463 0.959 . S
H465 C463 0.960 . S
H466 C463 0.961 . S
O467 Co442 1.967 . S
O467 C475 1.258 . S
O468 Co443 1.941 . S
O468 C475 1.266 . S
H469 C471 0.959 . S
H470 C471 0.961 . S
C471 C461 1.510 . S
C471 H469 0.959 . S
C471 H470 0.961 . S
C471 H472 0.960 . S
H472 C471 0.960 . S
H473 N453 0.862 . S
O474 Co442 1.920 . S
O474 C447 1.289 . S
C475 O467 1.258 . S
C475 O468 1.266 . S
Co476 O479 1.970 . S
Co476 N493 1.989 . S
Co476 O501 1.967 . S
Co476 O508 1.920 . S
Co477 O480 1.966 . S
Co477 N486 2.022 . S
Co477 N494 1.993 . S
Co477 O502 1.941 . S
C478 O479 1.258 . S
C478 O480 1.263 . S
O479 Co476 1.970 . S
O479 C478 1.258 . S
O480 Co477 1.966 . S
O480 C478 1.263 . S
C481 O482 1.235 . S
C481 O508 1.289 . S
O482 C481 1.235 . S
C483 C485 1.400 . S
C483 N486 1.351 . S
C483 C488 1.501 . S
C484 C485 1.387 . S
C484 N487 1.341 . S
C485 C483 1.400 . S
C485 C484 1.387 . S
N486 Co477 2.022 . S
N486 C483 1.351 . S
N486 N487 1.365 . S
N487 C484 1.341 . S
N487 N486 1.365 . S
N487 H507 0.862 . S
C488 C483 1.501 . S
C488 H489 0.961 . S
C488 H490 0.961 . S
C488 H491 0.960 . S
H489 C488 0.961 . S
H490 C488 0.961 . S
H491 C488 0.960 . S
C492 N493 1.342 . S
C492 C496 1.401 . S
C492 C497 1.499 . S
N493 Co476 1.989 . S
N493 C492 1.342 . S
N493 N494 1.388 . S
N494 Co477 1.993 . S
N494 N493 1.388 . S
N494 C495 1.346 . S
C495 N494 1.346 . S
C495 C496 1.396 . S
C495 C505 1.510 . S
C496 C492 1.401 . S
C496 C495 1.396 . S
C497 C492 1.499 . S
C497 H498 0.959 . S
C497 H499 0.960 . S
C497 H500 0.961 . S
H498 C497 0.959 . S
H499 C497 0.960 . S
H500 C497 0.961 . S
O501 Co476 1.967 . S
O501 C509 1.258 . S
O502 Co477 1.941 . S
O502 C509 1.266 . S
H503 C505 0.959 . S
H504 C505 0.961 . S
C505 C495 1.510 . S
C505 H503 0.959 . S
C505 H504 0.961 . S
C505 H506 0.960 . S
H506 C505 0.960 . S
H507 N487 0.862 . S
O508 Co476 1.920 . S
O508 C481 1.289 . S
C509 O501 1.258 . S
C509 O502 1.266 . S
Co510 O513 1.970 . S
Co510 N527 1.989 . S
Co510 O535 1.967 . S
Co510 O542 1.920 . S
Co511 O514 1.966 . S
Co511 N520 2.022 . S
Co511 N528 1.993 . S
Co511 O536 1.941 . S
C512 O513 1.258 . S
C512 O514 1.263 . S
O513 Co510 1.970 . S
O513 C512 1.258 . S
O514 Co511 1.966 . S
O514 C512 1.263 . S
C515 O516 1.235 . S
C515 O542 1.289 . S
O516 C515 1.235 . S
C517 C519 1.400 . S
C517 N520 1.351 . S
C517 C522 1.501 . S
C518 C519 1.387 . S
C518 N521 1.341 . S
C519 C517 1.400 . S
C519 C518 1.387 . S
N520 Co511 2.022 . S
N520 C517 1.351 . S
N520 N521 1.365 . S
N521 C518 1.341 . S
N521 N520 1.365 . S
N521 H541 0.862 . S
C522 C517 1.501 . S
C522 H523 0.961 . S
C522 H524 0.961 . S
C522 H525 0.960 . S
H523 C522 0.961 . S
H524 C522 0.961 . S
H525 C522 0.960 . S
C526 N527 1.342 . S
C526 C530 1.401 . S
C526 C531 1.499 . S
N527 Co510 1.989 . S
N527 C526 1.342 . S
N527 N528 1.388 . S
N528 Co511 1.993 . S
N528 N527 1.388 . S
N528 C529 1.346 . S
C529 N528 1.346 . S
C529 C530 1.396 . S
C529 C539 1.510 . S
C530 C526 1.401 . S
C530 C529 1.396 . S
C531 C526 1.499 . S
C531 H532 0.959 . S
C531 H533 0.960 . S
C531 H534 0.961 . S
H532 C531 0.959 . S
H533 C531 0.960 . S
H534 C531 0.961 . S
O535 Co510 1.967 . S
O535 C543 1.258 . S
O536 Co511 1.941 . S
O536 C543 1.266 . S
H537 C539 0.959 . S
H538 C539 0.961 . S
C539 C529 1.510 . S
C539 H537 0.959 . S
C539 H538 0.961 . S
C539 H540 0.960 . S
H540 C539 0.960 . S
H541 N521 0.862 . S
O542 Co510 1.920 . S
O542 C515 1.289 . S
C543 O535 1.258 . S
C543 O536 1.266 . S
Co544 O547 1.970 . S
Co544 N561 1.989 . S
Co544 O569 1.967 . S
Co544 O576 1.920 . S
Co545 O548 1.966 . S
Co545 N554 2.022 1_545 S
Co545 N562 1.993 . S
Co545 O570 1.941 . S
C546 O547 1.258 . S
C546 O548 1.263 . S
O547 Co544 1.970 . S
O547 C546 1.258 . S
O548 Co545 1.966 . S
O548 C546 1.263 . S
C549 O550 1.235 . S
C549 O576 1.289 . S
O550 C549 1.235 . S
C551 C553 1.400 . S
C551 N554 1.351 . S
C551 C556 1.501 . S
C552 C553 1.387 . S
C552 N555 1.341 . S
C553 C551 1.400 . S
C553 C552 1.387 . S
N554 Co545 2.022 1_565 S
N554 C551 1.351 . S
N554 N555 1.365 . S
N555 C552 1.341 . S
N555 N554 1.365 . S
N555 H575 0.862 . S
C556 C551 1.501 . S
C556 H557 0.961 . S
C556 H558 0.961 . S
C556 H559 0.960 . S
H557 C556 0.961 . S
H558 C556 0.961 . S
H559 C556 0.960 . S
C560 N561 1.342 . S
C560 C564 1.401 . S
C560 C565 1.499 . S
N561 Co544 1.989 . S
N561 C560 1.342 . S
N561 N562 1.388 . S
N562 Co545 1.993 . S
N562 N561 1.388 . S
N562 C563 1.346 . S
C563 N562 1.346 . S
C563 C564 1.396 . S
C563 C573 1.510 1_545 S
C564 C560 1.401 . S
C564 C563 1.396 . S
C565 C560 1.499 . S
C565 H566 0.959 . S
C565 H567 0.960 . S
C565 H568 0.961 . S
H566 C565 0.959 . S
H567 C565 0.960 . S
H568 C565 0.961 . S
O569 Co544 1.967 . S
O569 C577 1.258 . S
O570 Co545 1.941 . S
O570 C577 1.266 . S
H571 C573 0.959 . S
H572 C573 0.961 . S
C573 C563 1.510 1_565 S
C573 H571 0.959 . S
C573 H572 0.961 . S
C573 H574 0.960 . S
H574 C573 0.960 . S
H575 N555 0.862 . S
O576 Co544 1.920 . S
O576 C549 1.289 . S
C577 O569 1.258 . S
C577 O570 1.266 . S
Co578 O581 1.970 . S
Co578 N595 1.989 . S
Co578 O603 1.967 . S
Co578 O610 1.920 1_545 S
Co579 O582 1.966 . S
Co579 N588 2.022 . S
Co579 N596 1.993 . S
Co579 O604 1.941 . S
C580 O581 1.258 . S
C580 O582 1.263 . S
O581 Co578 1.970 . S
O581 C580 1.258 . S
O582 Co579 1.966 . S
O582 C580 1.263 . S
C583 O584 1.235 . S
C583 O610 1.289 . S
O584 C583 1.235 . S
C585 C587 1.400 . S
C585 N588 1.351 . S
C585 C590 1.501 . S
C586 C587 1.387 . S
C586 N589 1.341 . S
C587 C585 1.400 . S
C587 C586 1.387 . S
N588 Co579 2.022 . S
N588 C585 1.351 . S
N588 N589 1.365 . S
N589 C586 1.341 . S
N589 N588 1.365 . S
N589 H609 0.862 . S
C590 C585 1.501 . S
C590 H591 0.961 . S
C590 H592 0.961 . S
C590 H593 0.960 . S
H591 C590 0.961 . S
H592 C590 0.961 . S
H593 C590 0.960 . S
C594 N595 1.342 . S
C594 C598 1.401 . S
C594 C599 1.499 1_545 S
N595 Co578 1.989 . S
N595 C594 1.342 . S
N595 N596 1.388 . S
N596 Co579 1.993 . S
N596 N595 1.388 . S
N596 C597 1.346 . S
C597 N596 1.346 . S
C597 C598 1.396 . S
C597 C607 1.510 . S
C598 C594 1.401 . S
C598 C597 1.396 . S
C599 C594 1.499 1_565 S
C599 H600 0.959 . S
C599 H601 0.960 . S
C599 H602 0.961 . S
H600 C599 0.959 . S
H601 C599 0.960 . S
H602 C599 0.961 . S
O603 Co578 1.967 . S
O603 C611 1.258 . S
O604 Co579 1.941 . S
O604 C611 1.266 . S
H605 C607 0.959 . S
H606 C607 0.961 . S
C607 C597 1.510 . S
C607 H605 0.959 . S
C607 H606 0.961 . S
C607 H608 0.960 . S
H608 C607 0.960 . S
H609 N589 0.862 . S
O610 Co578 1.920 1_565 S
O610 C583 1.289 . S
C611 O603 1.258 . S
C611 O604 1.266 . S
Co612 O615 1.970 . S
Co612 N629 1.989 . S
Co612 O637 1.967 . S
Co612 O644 1.920 1_545 S
Co613 O616 1.966 . S
Co613 N622 2.022 . S
Co613 N630 1.993 . S
Co613 O638 1.941 . S
C614 O615 1.258 . S
C614 O616 1.263 . S
O615 Co612 1.970 . S
O615 C614 1.258 . S
O616 Co613 1.966 . S
O616 C614 1.263 . S
C617 O618 1.235 . S
C617 O644 1.289 . S
O618 C617 1.235 . S
C619 C621 1.400 . S
C619 N622 1.351 . S
C619 C624 1.501 . S
C620 C621 1.387 . S
C620 N623 1.341 . S
C621 C619 1.400 . S
C621 C620 1.387 . S
N622 Co613 2.022 . S
N622 C619 1.351 . S
N622 N623 1.365 . S
N623 C620 1.341 . S
N623 N622 1.365 . S
N623 H643 0.862 . S
C624 C619 1.501 . S
C624 H625 0.961 . S
C624 H626 0.961 . S
C624 H627 0.960 . S
H625 C624 0.961 . S
H626 C624 0.961 . S
H627 C624 0.960 . S
C628 N629 1.342 . S
C628 C632 1.401 . S
C628 C633 1.499 1_545 S
N629 Co612 1.989 . S
N629 C628 1.342 . S
N629 N630 1.388 . S
N630 Co613 1.993 . S
N630 N629 1.388 . S
N630 C631 1.346 . S
C631 N630 1.346 . S
C631 C632 1.396 . S
C631 C641 1.510 . S
C632 C628 1.401 . S
C632 C631 1.396 . S
C633 C628 1.499 1_565 S
C633 H634 0.959 . S
C633 H635 0.960 . S
C633 H636 0.961 . S
H634 C633 0.959 . S
H635 C633 0.960 . S
H636 C633 0.961 . S
O637 Co612 1.967 . S
O637 C645 1.258 . S
O638 Co613 1.941 . S
O638 C645 1.266 . S
H639 C641 0.959 . S
H640 C641 0.961 . S
C641 C631 1.510 . S
C641 H639 0.959 . S
C641 H640 0.961 . S
C641 H642 0.960 . S
H642 C641 0.960 . S
H643 N623 0.862 . S
O644 Co612 1.920 1_565 S
O644 C617 1.289 . S
C645 O637 1.258 . S
C645 O638 1.266 . S
Co646 O649 1.970 . S
Co646 N663 1.989 . S
Co646 O671 1.967 . S
Co646 O678 1.920 . S
Co647 O650 1.966 . S
Co647 N656 2.022 1_545 S
Co647 N664 1.993 . S
Co647 O672 1.941 . S
C648 O649 1.258 . S
C648 O650 1.263 . S
O649 Co646 1.970 . S
O649 C648 1.258 . S
O650 Co647 1.966 . S
O650 C648 1.263 . S
C651 O652 1.235 . S
C651 O678 1.289 . S
O652 C651 1.235 . S
C653 C655 1.400 . S
C653 N656 1.351 . S
C653 C658 1.501 . S
C654 C655 1.387 . S
C654 N657 1.341 . S
C655 C653 1.400 . S
C655 C654 1.387 . S
N656 Co647 2.022 1_565 S
N656 C653 1.351 . S
N656 N657 1.365 . S
N657 C654 1.341 . S
N657 N656 1.365 . S
N657 H677 0.862 . S
C658 C653 1.501 . S
C658 H659 0.961 . S
C658 H660 0.961 . S
C658 H661 0.960 . S
H659 C658 0.961 . S
H660 C658 0.961 . S
H661 C658 0.960 . S
C662 N663 1.342 . S
C662 C666 1.401 . S
C662 C667 1.499 . S
N663 Co646 1.989 . S
N663 C662 1.342 . S
N663 N664 1.388 . S
N664 Co647 1.993 . S
N664 N663 1.388 . S
N664 C665 1.346 . S
C665 N664 1.346 . S
C665 C666 1.396 . S
C665 C675 1.510 1_545 S
C666 C662 1.401 . S
C666 C665 1.396 . S
C667 C662 1.499 . S
C667 H668 0.959 . S
C667 H669 0.960 . S
C667 H670 0.961 . S
H668 C667 0.959 . S
H669 C667 0.960 . S
H670 C667 0.961 . S
O671 Co646 1.967 . S
O671 C679 1.258 . S
O672 Co647 1.941 . S
O672 C679 1.266 . S
H673 C675 0.959 . S
H674 C675 0.961 . S
C675 C665 1.510 1_565 S
C675 H673 0.959 . S
C675 H674 0.961 . S
C675 H676 0.960 . S
H676 C675 0.960 . S
H677 N657 0.862 . S
O678 Co646 1.920 . S
O678 C651 1.289 . S
C679 O671 1.258 . S
C679 O672 1.266 . S
Co680 O683 1.970 . S
Co680 N697 1.989 . S
Co680 O705 1.967 . S
Co680 O712 1.920 . S
Co681 O684 1.966 . S
Co681 N690 2.022 1_565 S
Co681 N698 1.993 . S
Co681 O706 1.941 . S
C682 O683 1.258 . S
C682 O684 1.263 . S
O683 Co680 1.970 . S
O683 C682 1.258 . S
O684 Co681 1.966 . S
O684 C682 1.263 . S
C685 O686 1.235 . S
C685 O712 1.289 . S
O686 C685 1.235 . S
C687 C689 1.400 . S
C687 N690 1.351 . S
C687 C692 1.501 . S
C688 C689 1.387 . S
C688 N691 1.341 . S
C689 C687 1.400 . S
C689 C688 1.387 . S
N690 Co681 2.022 1_545 S
N690 C687 1.351 . S
N690 N691 1.365 . S
N691 C688 1.341 . S
N691 N690 1.365 . S
N691 H711 0.862 . S
C692 C687 1.501 . S
C692 H693 0.961 . S
C692 H694 0.961 . S
C692 H695 0.960 . S
H693 C692 0.961 . S
H694 C692 0.961 . S
H695 C692 0.960 . S
C696 N697 1.342 . S
C696 C700 1.401 . S
C696 C701 1.499 . S
N697 Co680 1.989 . S
N697 C696 1.342 . S
N697 N698 1.388 . S
N698 Co681 1.993 . S
N698 N697 1.388 . S
N698 C699 1.346 . S
C699 N698 1.346 . S
C699 C700 1.396 . S
C699 C709 1.510 1_565 S
C700 C696 1.401 . S
C700 C699 1.396 . S
C701 C696 1.499 . S
C701 H702 0.959 . S
C701 H703 0.960 . S
C701 H704 0.961 . S
H702 C701 0.959 . S
H703 C701 0.960 . S
H704 C701 0.961 . S
O705 Co680 1.967 . S
O705 C713 1.258 . S
O706 Co681 1.941 . S
O706 C713 1.266 . S
H707 C709 0.959 . S
H708 C709 0.961 . S
C709 C699 1.510 1_545 S
C709 H707 0.959 . S
C709 H708 0.961 . S
C709 H710 0.960 . S
H710 C709 0.960 . S
H711 N691 0.862 . S
O712 Co680 1.920 . S
O712 C685 1.289 . S
C713 O705 1.258 . S
C713 O706 1.266 . S
Co714 O717 1.970 . S
Co714 N731 1.989 . S
Co714 O739 1.967 . S
Co714 O746 1.920 1_565 S
Co715 O718 1.966 . S
Co715 N724 2.022 . S
Co715 N732 1.993 . S
Co715 O740 1.941 . S
C716 O717 1.258 . S
C716 O718 1.263 . S
O717 Co714 1.970 . S
O717 C716 1.258 . S
O718 Co715 1.966 . S
O718 C716 1.263 . S
C719 O720 1.235 . S
C719 O746 1.289 . S
O720 C719 1.235 . S
C721 C723 1.400 . S
C721 N724 1.351 . S
C721 C726 1.501 . S
C722 C723 1.387 . S
C722 N725 1.341 . S
C723 C721 1.400 . S
C723 C722 1.387 . S
N724 Co715 2.022 . S
N724 C721 1.351 . S
N724 N725 1.365 . S
N725 C722 1.341 . S
N725 N724 1.365 . S
N725 H745 0.862 . S
C726 C721 1.501 . S
C726 H727 0.961 . S
C726 H728 0.961 . S
C726 H729 0.960 . S
H727 C726 0.961 . S
H728 C726 0.961 . S
H729 C726 0.960 . S
C730 N731 1.342 . S
C730 C734 1.401 . S
C730 C735 1.499 1_565 S
N731 Co714 1.989 . S
N731 C730 1.342 . S
N731 N732 1.388 . S
N732 Co715 1.993 . S
N732 N731 1.388 . S
N732 C733 1.346 . S
C733 N732 1.346 . S
C733 C734 1.396 . S
C733 C743 1.510 . S
C734 C730 1.401 . S
C734 C733 1.396 . S
C735 C730 1.499 1_545 S
C735 H736 0.959 . S
C735 H737 0.960 . S
C735 H738 0.961 . S
H736 C735 0.959 . S
H737 C735 0.960 . S
H738 C735 0.961 . S
O739 Co714 1.967 . S
O739 C747 1.258 . S
O740 Co715 1.941 . S
O740 C747 1.266 . S
H741 C743 0.959 . S
H742 C743 0.961 . S
C743 C733 1.510 . S
C743 H741 0.959 . S
C743 H742 0.961 . S
C743 H744 0.960 . S
H744 C743 0.960 . S
H745 N725 0.862 . S
O746 Co714 1.920 1_545 S
O746 C719 1.289 . S
C747 O739 1.258 . S
C747 O740 1.266 . S
Co748 O751 1.970 . S
Co748 N765 1.989 . S
Co748 O773 1.967 . S
Co748 O780 1.920 1_565 S
Co749 O752 1.966 . S
Co749 N758 2.022 . S
Co749 N766 1.993 . S
Co749 O774 1.941 . S
C750 O751 1.258 . S
C750 O752 1.263 . S
O751 Co748 1.970 . S
O751 C750 1.258 . S
O752 Co749 1.966 . S
O752 C750 1.263 . S
C753 O754 1.235 . S
C753 O780 1.289 . S
O754 C753 1.235 . S
C755 C757 1.400 . S
C755 N758 1.351 . S
C755 C760 1.501 . S
C756 C757 1.387 . S
C756 N759 1.341 . S
C757 C755 1.400 . S
C757 C756 1.387 . S
N758 Co749 2.022 . S
N758 C755 1.351 . S
N758 N759 1.365 . S
N759 C756 1.341 . S
N759 N758 1.365 . S
N759 H779 0.862 . S
C760 C755 1.501 . S
C760 H761 0.961 . S
C760 H762 0.961 . S
C760 H763 0.960 . S
H761 C760 0.961 . S
H762 C760 0.961 . S
H763 C760 0.960 . S
C764 N765 1.342 . S
C764 C768 1.401 . S
C764 C769 1.499 1_565 S
N765 Co748 1.989 . S
N765 C764 1.342 . S
N765 N766 1.388 . S
N766 Co749 1.993 . S
N766 N765 1.388 . S
N766 C767 1.346 . S
C767 N766 1.346 . S
C767 C768 1.396 . S
C767 C777 1.510 . S
C768 C764 1.401 . S
C768 C767 1.396 . S
C769 C764 1.499 1_545 S
C769 H770 0.959 . S
C769 H771 0.960 . S
C769 H772 0.961 . S
H770 C769 0.959 . S
H771 C769 0.960 . S
H772 C769 0.961 . S
O773 Co748 1.967 . S
O773 C781 1.258 . S
O774 Co749 1.941 . S
O774 C781 1.266 . S
H775 C777 0.959 . S
H776 C777 0.961 . S
C777 C767 1.510 . S
C777 H775 0.959 . S
C777 H776 0.961 . S
C777 H778 0.960 . S
H778 C777 0.960 . S
H779 N759 0.862 . S
O780 Co748 1.920 1_545 S
O780 C753 1.289 . S
C781 O773 1.258 . S
C781 O774 1.266 . S
Co782 O785 1.970 . S
Co782 N799 1.989 . S
Co782 O807 1.967 . S
Co782 O814 1.920 . S
Co783 O786 1.966 . S
Co783 N792 2.022 1_565 S
Co783 N800 1.993 . S
Co783 O808 1.941 . S
C784 O785 1.258 . S
C784 O786 1.263 . S
O785 Co782 1.970 . S
O785 C784 1.258 . S
O786 Co783 1.966 . S
O786 C784 1.263 . S
C787 O788 1.235 . S
C787 O814 1.289 . S
O788 C787 1.235 . S
C789 C791 1.400 . S
C789 N792 1.351 . S
C789 C794 1.501 . S
C790 C791 1.387 . S
C790 N793 1.341 . S
C791 C789 1.400 . S
C791 C790 1.387 . S
N792 Co783 2.022 1_545 S
N792 C789 1.351 . S
N792 N793 1.365 . S
N793 C790 1.341 . S
N793 N792 1.365 . S
N793 H813 0.862 . S
C794 C789 1.501 . S
C794 H795 0.961 . S
C794 H796 0.961 . S
C794 H797 0.960 . S
H795 C794 0.961 . S
H796 C794 0.961 . S
H797 C794 0.960 . S
C798 N799 1.342 . S
C798 C802 1.401 . S
C798 C803 1.499 . S
N799 Co782 1.989 . S
N799 C798 1.342 . S
N799 N800 1.388 . S
N800 Co783 1.993 . S
N800 N799 1.388 . S
N800 C801 1.346 . S
C801 N800 1.346 . S
C801 C802 1.396 . S
C801 C811 1.510 1_565 S
C802 C798 1.401 . S
C802 C801 1.396 . S
C803 C798 1.499 . S
C803 H804 0.959 . S
C803 H805 0.960 . S
C803 H806 0.961 . S
H804 C803 0.959 . S
H805 C803 0.960 . S
H806 C803 0.961 . S
O807 Co782 1.967 . S
O807 C815 1.258 . S
O808 Co783 1.941 . S
O808 C815 1.266 . S
H809 C811 0.959 . S
H810 C811 0.961 . S
C811 C801 1.510 1_545 S
C811 H809 0.959 . S
C811 H810 0.961 . S
C811 H812 0.960 . S
H812 C811 0.960 . S
H813 N793 0.862 . S
O814 Co782 1.920 . S
O814 C787 1.289 . S
C815 O807 1.258 . S
C815 O808 1.266 . S
Co816 O819 1.970 . S
Co816 N833 1.989 . S
Co816 O841 1.967 . S
Co816 O848 1.920 . S
Co817 O820 1.966 . S
Co817 N826 2.022 . S
Co817 N834 1.993 . S
Co817 O842 1.941 . S
C818 O819 1.258 . S
C818 O820 1.263 . S
O819 Co816 1.970 . S
O819 C818 1.258 . S
O820 Co817 1.966 . S
O820 C818 1.263 . S
C821 O822 1.235 . S
C821 O848 1.289 . S
O822 C821 1.235 . S
C823 C825 1.400 . S
C823 N826 1.351 . S
C823 C828 1.501 . S
C824 C825 1.387 . S
C824 N827 1.341 . S
C825 C823 1.400 . S
C825 C824 1.387 . S
N826 Co817 2.022 . S
N826 C823 1.351 . S
N826 N827 1.365 . S
N827 C824 1.341 . S
N827 N826 1.365 . S
N827 H847 0.862 . S
C828 C823 1.501 . S
C828 H829 0.961 . S
C828 H830 0.961 . S
C828 H831 0.960 . S
H829 C828 0.961 . S
H830 C828 0.961 . S
H831 C828 0.960 . S
C832 N833 1.342 . S
C832 C836 1.401 . S
C832 C837 1.499 . S
N833 Co816 1.989 . S
N833 C832 1.342 . S
N833 N834 1.388 . S
N834 Co817 1.993 . S
N834 N833 1.388 . S
N834 C835 1.346 . S
C835 N834 1.346 . S
C835 C836 1.396 . S
C835 C845 1.510 . S
C836 C832 1.401 . S
C836 C835 1.396 . S
C837 C832 1.499 . S
C837 H838 0.959 . S
C837 H839 0.960 . S
C837 H840 0.961 . S
H838 C837 0.959 . S
H839 C837 0.960 . S
H840 C837 0.961 . S
O841 Co816 1.967 . S
O841 C849 1.258 . S
O842 Co817 1.941 . S
O842 C849 1.266 . S
H843 C845 0.959 . S
H844 C845 0.961 . S
C845 C835 1.510 . S
C845 H843 0.959 . S
C845 H844 0.961 . S
C845 H846 0.960 . S
H846 C845 0.960 . S
H847 N827 0.862 . S
O848 Co816 1.920 . S
O848 C821 1.289 . S
C849 O841 1.258 . S
C849 O842 1.266 . S
Co850 O853 1.970 . S
Co850 N867 1.989 . S
Co850 O875 1.967 . S
Co850 O882 1.920 . S
Co851 O854 1.966 . S
Co851 N860 2.022 . S
Co851 N868 1.993 . S
Co851 O876 1.941 . S
C852 O853 1.258 . S
C852 O854 1.263 . S
O853 Co850 1.970 . S
O853 C852 1.258 . S
O854 Co851 1.966 . S
O854 C852 1.263 . S
C855 O856 1.235 . S
C855 O882 1.289 . S
O856 C855 1.235 . S
C857 C859 1.400 . S
C857 N860 1.351 . S
C857 C862 1.501 . S
C858 C859 1.387 . S
C858 N861 1.341 . S
C859 C857 1.400 . S
C859 C858 1.387 . S
N860 Co851 2.022 . S
N860 C857 1.351 . S
N860 N861 1.365 . S
N861 C858 1.341 . S
N861 N860 1.365 . S
N861 H881 0.862 . S
C862 C857 1.501 . S
C862 H863 0.961 . S
C862 H864 0.961 . S
C862 H865 0.960 . S
H863 C862 0.961 . S
H864 C862 0.961 . S
H865 C862 0.960 . S
C866 N867 1.342 . S
C866 C870 1.401 . S
C866 C871 1.499 . S
N867 Co850 1.989 . S
N867 C866 1.342 . S
N867 N868 1.388 . S
N868 Co851 1.993 . S
N868 N867 1.388 . S
N868 C869 1.346 . S
C869 N868 1.346 . S
C869 C870 1.396 . S
C869 C879 1.510 . S
C870 C866 1.401 . S
C870 C869 1.396 . S
C871 C866 1.499 . S
C871 H872 0.959 . S
C871 H873 0.960 . S
C871 H874 0.961 . S
H872 C871 0.959 . S
H873 C871 0.960 . S
H874 C871 0.961 . S
O875 Co850 1.967 . S
O875 C883 1.258 . S
O876 Co851 1.941 . S
O876 C883 1.266 . S
H877 C879 0.959 . S
H878 C879 0.961 . S
C879 C869 1.510 . S
C879 H877 0.959 . S
C879 H878 0.961 . S
C879 H880 0.960 . S
H880 C879 0.960 . S
H881 N861 0.862 . S
O882 Co850 1.920 . S
O882 C855 1.289 . S
C883 O875 1.258 . S
C883 O876 1.266 . S
Co884 O887 1.970 . S
Co884 N901 1.989 . S
Co884 O909 1.967 . S
Co884 O916 1.920 . S
Co885 O888 1.966 . S
Co885 N894 2.022 . S
Co885 N902 1.993 . S
Co885 O910 1.941 . S
C886 O887 1.258 . S
C886 O888 1.263 . S
O887 Co884 1.970 . S
O887 C886 1.258 . S
O888 Co885 1.966 . S
O888 C886 1.263 . S
C889 O890 1.235 . S
C889 O916 1.289 . S
O890 C889 1.235 . S
C891 C893 1.400 . S
C891 N894 1.351 . S
C891 C896 1.501 . S
C892 C893 1.387 . S
C892 N895 1.341 . S
C893 C891 1.400 . S
C893 C892 1.387 . S
N894 Co885 2.022 . S
N894 C891 1.351 . S
N894 N895 1.365 . S
N895 C892 1.341 . S
N895 N894 1.365 . S
N895 H915 0.862 . S
C896 C891 1.501 . S
C896 H897 0.961 . S
C896 H898 0.961 . S
C896 H899 0.960 . S
H897 C896 0.961 . S
H898 C896 0.961 . S
H899 C896 0.960 . S
C900 N901 1.342 . S
C900 C904 1.401 . S
C900 C905 1.499 . S
N901 Co884 1.989 . S
N901 C900 1.342 . S
N901 N902 1.388 . S
N902 Co885 1.993 . S
N902 N901 1.388 . S
N902 C903 1.346 . S
C903 N902 1.346 . S
C903 C904 1.396 . S
C903 C913 1.510 . S
C904 C900 1.401 . S
C904 C903 1.396 . S
C905 C900 1.499 . S
C905 H906 0.959 . S
C905 H907 0.960 . S
C905 H908 0.961 . S
H906 C905 0.959 . S
H907 C905 0.960 . S
H908 C905 0.961 . S
O909 Co884 1.967 . S
O909 C917 1.258 . S
O910 Co885 1.941 . S
O910 C917 1.266 . S
H911 C913 0.959 . S
H912 C913 0.961 . S
C913 C903 1.510 . S
C913 H911 0.959 . S
C913 H912 0.961 . S
C913 H914 0.960 . S
H914 C913 0.960 . S
H915 N895 0.862 . S
O916 Co884 1.920 . S
O916 C889 1.289 . S
C917 O909 1.258 . S
C917 O910 1.266 . S
Co918 O921 1.970 . S
Co918 N935 1.989 . S
Co918 O943 1.967 . S
Co918 O950 1.920 . S
Co919 O922 1.966 . S
Co919 N928 2.022 . S
Co919 N936 1.993 . S
Co919 O944 1.941 . S
C920 O921 1.258 . S
C920 O922 1.263 . S
O921 Co918 1.970 . S
O921 C920 1.258 . S
O922 Co919 1.966 . S
O922 C920 1.263 . S
C923 O924 1.235 . S
C923 O950 1.289 . S
O924 C923 1.235 . S
C925 C927 1.400 . S
C925 N928 1.351 . S
C925 C930 1.501 . S
C926 C927 1.387 . S
C926 N929 1.341 . S
C927 C925 1.400 . S
C927 C926 1.387 . S
N928 Co919 2.022 . S
N928 C925 1.351 . S
N928 N929 1.365 . S
N929 C926 1.341 . S
N929 N928 1.365 . S
N929 H949 0.862 . S
C930 C925 1.501 . S
C930 H931 0.961 . S
C930 H932 0.961 . S
C930 H933 0.960 . S
H931 C930 0.961 . S
H932 C930 0.961 . S
H933 C930 0.960 . S
C934 N935 1.342 . S
C934 C938 1.401 . S
C934 C939 1.499 . S
N935 Co918 1.989 . S
N935 C934 1.342 . S
N935 N936 1.388 . S
N936 Co919 1.993 . S
N936 N935 1.388 . S
N936 C937 1.346 . S
C937 N936 1.346 . S
C937 C938 1.396 . S
C937 C947 1.510 . S
C938 C934 1.401 . S
C938 C937 1.396 . S
C939 C934 1.499 . S
C939 H940 0.959 . S
C939 H941 0.960 . S
C939 H942 0.961 . S
H940 C939 0.959 . S
H941 C939 0.960 . S
H942 C939 0.961 . S
O943 Co918 1.967 . S
O943 C951 1.258 . S
O944 Co919 1.941 . S
O944 C951 1.266 . S
H945 C947 0.959 . S
H946 C947 0.961 . S
C947 C937 1.510 . S
C947 H945 0.959 . S
C947 H946 0.961 . S
C947 H948 0.960 . S
H948 C947 0.960 . S
H949 N929 0.862 . S
O950 Co918 1.920 . S
O950 C923 1.289 . S
C951 O943 1.258 . S
C951 O944 1.266 . S
Co952 O955 1.970 . S
Co952 N969 1.989 . S
Co952 O977 1.967 . S
Co952 O984 1.920 . S
Co953 O956 1.966 . S
Co953 N962 2.022 . S
Co953 N970 1.993 . S
Co953 O978 1.941 . S
C954 O955 1.258 . S
C954 O956 1.263 . S
O955 Co952 1.970 . S
O955 C954 1.258 . S
O956 Co953 1.966 . S
O956 C954 1.263 . S
C957 O958 1.235 . S
C957 O984 1.289 . S
O958 C957 1.235 . S
C959 C961 1.400 . S
C959 N962 1.351 . S
C959 C964 1.501 . S
C960 C961 1.387 . S
C960 N963 1.341 . S
C961 C959 1.400 . S
C961 C960 1.387 . S
N962 Co953 2.022 . S
N962 C959 1.351 . S
N962 N963 1.365 . S
N963 C960 1.341 . S
N963 N962 1.365 . S
N963 H983 0.862 . S
C964 C959 1.501 . S
C964 H965 0.961 . S
C964 H966 0.961 . S
C964 H967 0.960 . S
H965 C964 0.961 . S
H966 C964 0.961 . S
H967 C964 0.960 . S
C968 N969 1.342 . S
C968 C972 1.401 . S
C968 C973 1.499 . S
N969 Co952 1.989 . S
N969 C968 1.342 . S
N969 N970 1.388 . S
N970 Co953 1.993 . S
N970 N969 1.388 . S
N970 C971 1.346 . S
C971 N970 1.346 . S
C971 C972 1.396 . S
C971 C981 1.510 . S
C972 C968 1.401 . S
C972 C971 1.396 . S
C973 C968 1.499 . S
C973 H974 0.959 . S
C973 H975 0.960 . S
C973 H976 0.961 . S
H974 C973 0.959 . S
H975 C973 0.960 . S
H976 C973 0.961 . S
O977 Co952 1.967 . S
O977 C985 1.258 . S
O978 Co953 1.941 . S
O978 C985 1.266 . S
H979 C981 0.959 . S
H980 C981 0.961 . S
C981 C971 1.510 . S
C981 H979 0.959 . S
C981 H980 0.961 . S
C981 H982 0.960 . S
H982 C981 0.960 . S
H983 N963 0.862 . S
O984 Co952 1.920 . S
O984 C957 1.289 . S
C985 O977 1.258 . S
C985 O978 1.266 . S
Co986 O989 1.970 . S
Co986 N1003 1.989 . S
Co986 O1011 1.967 . S
Co986 O1018 1.920 . S
Co987 O990 1.966 . S
Co987 N996 2.022 . S
Co987 N1004 1.993 . S
Co987 O1012 1.941 . S
C988 O989 1.258 . S
C988 O990 1.263 . S
O989 Co986 1.970 . S
O989 C988 1.258 . S
O990 Co987 1.966 . S
O990 C988 1.263 . S
C991 O992 1.235 . S
C991 O1018 1.289 . S
O992 C991 1.235 . S
C993 C995 1.400 . S
C993 N996 1.351 . S
C993 C998 1.501 . S
C994 C995 1.387 . S
C994 N997 1.341 . S
C995 C993 1.400 . S
C995 C994 1.387 . S
N996 Co987 2.022 . S
N996 C993 1.351 . S
N996 N997 1.365 . S
N997 C994 1.341 . S
N997 N996 1.365 . S
N997 H1017 0.862 . S
C998 C993 1.501 . S
C998 H999 0.961 . S
C998 H1000 0.961 . S
C998 H1001 0.960 . S
H999 C998 0.961 . S
H1000 C998 0.961 . S
H1001 C998 0.960 . S
C1002 N1003 1.342 . S
C1002 C1006 1.401 . S
C1002 C1007 1.499 . S
N1003 Co986 1.989 . S
N1003 C1002 1.342 . S
N1003 N1004 1.388 . S
N1004 Co987 1.993 . S
N1004 N1003 1.388 . S
N1004 C1005 1.346 . S
C1005 N1004 1.346 . S
C1005 C1006 1.396 . S
C1005 C1015 1.510 . S
C1006 C1002 1.401 . S
C1006 C1005 1.396 . S
C1007 C1002 1.499 . S
C1007 H1008 0.959 . S
C1007 H1009 0.960 . S
C1007 H1010 0.961 . S
H1008 C1007 0.959 . S
H1009 C1007 0.960 . S
H1010 C1007 0.961 . S
O1011 Co986 1.967 . S
O1011 C1019 1.258 . S
O1012 Co987 1.941 . S
O1012 C1019 1.266 . S
H1013 C1015 0.959 . S
H1014 C1015 0.961 . S
C1015 C1005 1.510 . S
C1015 H1013 0.959 . S
C1015 H1014 0.961 . S
C1015 H1016 0.960 . S
H1016 C1015 0.960 . S
H1017 N997 0.862 . S
O1018 Co986 1.920 . S
O1018 C991 1.289 . S
C1019 O1011 1.258 . S
C1019 O1012 1.266 . S
Co1020 O1023 1.970 . S
Co1020 N1037 1.989 . S
Co1020 O1045 1.967 . S
Co1020 O1052 1.920 . S
Co1021 O1024 1.966 . S
Co1021 N1030 2.022 . S
Co1021 N1038 1.993 . S
Co1021 O1046 1.941 . S
C1022 O1023 1.258 . S
C1022 O1024 1.263 . S
O1023 Co1020 1.970 . S
O1023 C1022 1.258 . S
O1024 Co1021 1.966 . S
O1024 C1022 1.263 . S
C1025 O1026 1.235 . S
C1025 O1052 1.289 . S
O1026 C1025 1.235 . S
C1027 C1029 1.400 . S
C1027 N1030 1.351 . S
C1027 C1032 1.501 . S
C1028 C1029 1.387 . S
C1028 N1031 1.341 . S
C1029 C1027 1.400 . S
C1029 C1028 1.387 . S
N1030 Co1021 2.022 . S
N1030 C1027 1.351 . S
N1030 N1031 1.365 . S
N1031 C1028 1.341 . S
N1031 N1030 1.365 . S
N1031 H1051 0.862 . S
C1032 C1027 1.501 . S
C1032 H1033 0.961 . S
C1032 H1034 0.961 . S
C1032 H1035 0.960 . S
H1033 C1032 0.961 . S
H1034 C1032 0.961 . S
H1035 C1032 0.960 . S
C1036 N1037 1.342 . S
C1036 C1040 1.401 . S
C1036 C1041 1.499 . S
N1037 Co1020 1.989 . S
N1037 C1036 1.342 . S
N1037 N1038 1.388 . S
N1038 Co1021 1.993 . S
N1038 N1037 1.388 . S
N1038 C1039 1.346 . S
C1039 N1038 1.346 . S
C1039 C1040 1.396 . S
C1039 C1049 1.510 . S
C1040 C1036 1.401 . S
C1040 C1039 1.396 . S
C1041 C1036 1.499 . S
C1041 H1042 0.959 . S
C1041 H1043 0.960 . S
C1041 H1044 0.961 . S
H1042 C1041 0.959 . S
H1043 C1041 0.960 . S
H1044 C1041 0.961 . S
O1045 Co1020 1.967 . S
O1045 C1053 1.258 . S
O1046 Co1021 1.941 . S
O1046 C1053 1.266 . S
H1047 C1049 0.959 . S
H1048 C1049 0.961 . S
C1049 C1039 1.510 . S
C1049 H1047 0.959 . S
C1049 H1048 0.961 . S
C1049 H1050 0.960 . S
H1050 C1049 0.960 . S
H1051 N1031 0.862 . S
O1052 Co1020 1.920 . S
O1052 C1025 1.289 . S
C1053 O1045 1.258 . S
C1053 O1046 1.266 . S
Co1054 O1057 1.970 . S
Co1054 N1071 1.989 . S
Co1054 O1079 1.967 . S
Co1054 O1086 1.920 . S
Co1055 O1058 1.966 . S
Co1055 N1064 2.022 . S
Co1055 N1072 1.993 . S
Co1055 O1080 1.941 . S
C1056 O1057 1.258 . S
C1056 O1058 1.263 . S
O1057 Co1054 1.970 . S
O1057 C1056 1.258 . S
O1058 Co1055 1.966 . S
O1058 C1056 1.263 . S
C1059 O1060 1.235 . S
C1059 O1086 1.289 . S
O1060 C1059 1.235 . S
C1061 C1063 1.400 . S
C1061 N1064 1.351 . S
C1061 C1066 1.501 . S
C1062 C1063 1.387 . S
C1062 N1065 1.341 . S
C1063 C1061 1.400 . S
C1063 C1062 1.387 . S
N1064 Co1055 2.022 . S
N1064 C1061 1.351 . S
N1064 N1065 1.365 . S
N1065 C1062 1.341 . S
N1065 N1064 1.365 . S
N1065 H1085 0.862 . S
C1066 C1061 1.501 . S
C1066 H1067 0.961 . S
C1066 H1068 0.961 . S
C1066 H1069 0.960 . S
H1067 C1066 0.961 . S
H1068 C1066 0.961 . S
H1069 C1066 0.960 . S
C1070 N1071 1.342 . S
C1070 C1074 1.401 . S
C1070 C1075 1.499 . S
N1071 Co1054 1.989 . S
N1071 C1070 1.342 . S
N1071 N1072 1.388 . S
N1072 Co1055 1.993 . S
N1072 N1071 1.388 . S
N1072 C1073 1.346 . S
C1073 N1072 1.346 . S
C1073 C1074 1.396 . S
C1073 C1083 1.510 . S
C1074 C1070 1.401 . S
C1074 C1073 1.396 . S
C1075 C1070 1.499 . S
C1075 H1076 0.959 . S
C1075 H1077 0.960 . S
C1075 H1078 0.961 . S
H1076 C1075 0.959 . S
H1077 C1075 0.960 . S
H1078 C1075 0.961 . S
O1079 Co1054 1.967 . S
O1079 C1087 1.258 . S
O1080 Co1055 1.941 . S
O1080 C1087 1.266 . S
H1081 C1083 0.959 . S
H1082 C1083 0.961 . S
C1083 C1073 1.510 . S
C1083 H1081 0.959 . S
C1083 H1082 0.961 . S
C1083 H1084 0.960 . S
H1084 C1083 0.960 . S
H1085 N1065 0.862 . S
O1086 Co1054 1.920 . S
O1086 C1059 1.289 . S
C1087 O1079 1.258 . S
C1087 O1080 1.266 . S
H1088 C1094 0.930 . S
H1089 C1098 0.930 . S
H1090 C1103 0.929 . S
H1091 C1101 0.929 . S
H1092 C1096 0.929 . S
H1093 C1102 0.929 . S
C1094 H1088 0.930 . S
C1094 C1095 1.367 . S
C1094 C1102 1.378 . S
C1095 C1094 1.367 . S
C1095 C1103 1.433 . S
C1096 H1092 0.929 . S
C1096 C1098 1.378 . S
C1096 C1100 1.350 . S
C1097 C1100 1.463 . S
C1097 C1102 1.350 . S
C1097 N1105 1.427 . S
C1098 H1089 0.930 . S
C1098 C1096 1.378 . S
C1098 C1099 1.367 . S
C1099 C1098 1.367 . S
C1099 C1101 1.433 . S
C1100 C1096 1.350 . S
C1100 C1097 1.463 . S
C1100 N1104 1.427 . S
C1101 H1091 0.929 . S
C1101 C1099 1.433 . S
C1101 N1104 1.384 . S
C1102 H1093 0.929 . S
C1102 C1094 1.378 . S
C1102 C1097 1.350 . S
C1103 H1090 0.929 . S
C1103 C1095 1.433 . S
C1103 N1105 1.384 . S
N1104 C1100 1.427 . S
N1104 C1101 1.384 . S
N1105 C1097 1.427 . S
N1105 C1103 1.384 . S
H1106 C1112 0.930 . S
H1107 C1116 0.930 . S
H1108 C1121 0.929 . S
H1109 C1119 0.929 . S
H1110 C1114 0.929 . S
H1111 C1120 0.929 . S
C1112 H1106 0.930 . S
C1112 C1113 1.367 . S
C1112 C1120 1.378 . S
C1113 C1112 1.367 . S
C1113 C1121 1.433 . S
C1114 H1110 0.929 . S
C1114 C1116 1.378 . S
C1114 C1118 1.350 . S
C1115 C1118 1.463 . S
C1115 C1120 1.350 . S
C1115 N1123 1.427 . S
C1116 H1107 0.930 . S
C1116 C1114 1.378 . S
C1116 C1117 1.367 . S
C1117 C1116 1.367 . S
C1117 C1119 1.433 . S
C1118 C1114 1.350 . S
C1118 C1115 1.463 . S
C1118 N1122 1.427 . S
C1119 H1109 0.929 . S
C1119 C1117 1.433 . S
C1119 N1122 1.384 . S
C1120 H1111 0.929 . S
C1120 C1112 1.378 . S
C1120 C1115 1.350 . S
C1121 H1108 0.929 . S
C1121 C1113 1.433 . S
C1121 N1123 1.384 . S
N1122 C1118 1.427 . S
N1122 C1119 1.384 . S
N1123 C1115 1.427 . S
N1123 C1121 1.384 . S
H1124 C1130 0.930 . S
H1125 C1134 0.930 1_545 S
H1126 C1139 0.929 . S
H1127 C1137 0.929 . S
H1128 C1132 0.929 . S
H1129 C1138 0.929 . S
C1130 H1124 0.930 . S
C1130 C1131 1.367 . S
C1130 C1138 1.378 . S
C1131 C1130 1.367 . S
C1131 C1139 1.433 . S
C1132 H1128 0.929 . S
C1132 C1134 1.378 . S
C1132 C1136 1.350 . S
C1133 C1136 1.463 . S
C1133 C1138 1.350 . S
C1133 N1141 1.427 . S
C1134 H1125 0.930 1_565 S
C1134 C1132 1.378 . S
C1134 C1135 1.367 . S
C1135 C1134 1.367 . S
C1135 C1137 1.433 . S
C1136 C1132 1.350 . S
C1136 C1133 1.463 . S
C1136 N1140 1.427 . S
C1137 H1127 0.929 . S
C1137 C1135 1.433 . S
C1137 N1140 1.384 . S
C1138 H1129 0.929 . S
C1138 C1130 1.378 . S
C1138 C1133 1.350 . S
C1139 H1126 0.929 . S
C1139 C1131 1.433 . S
C1139 N1141 1.384 . S
N1140 C1136 1.427 . S
N1140 C1137 1.384 . S
N1141 C1133 1.427 . S
N1141 C1139 1.384 . S
H1142 C1148 0.930 . S
H1143 C1152 0.930 . S
H1144 C1157 0.929 . S
H1145 C1155 0.929 . S
H1146 C1150 0.929 . S
H1147 C1156 0.929 . S
C1148 H1142 0.930 . S
C1148 C1149 1.367 . S
C1148 C1156 1.378 . S
C1149 C1148 1.367 . S
C1149 C1157 1.433 . S
C1150 H1146 0.929 . S
C1150 C1152 1.378 . S
C1150 C1154 1.350 . S
C1151 C1154 1.463 . S
C1151 C1156 1.350 . S
C1151 N1159 1.427 . S
C1152 H1143 0.930 . S
C1152 C1150 1.378 . S
C1152 C1153 1.367 . S
C1153 C1152 1.367 . S
C1153 C1155 1.433 . S
C1154 C1150 1.350 . S
C1154 C1151 1.463 . S
C1154 N1158 1.427 . S
C1155 H1145 0.929 . S
C1155 C1153 1.433 . S
C1155 N1158 1.384 . S
C1156 H1147 0.929 . S
C1156 C1148 1.378 . S
C1156 C1151 1.350 . S
C1157 H1144 0.929 . S
C1157 C1149 1.433 . S
C1157 N1159 1.384 . S
N1158 C1154 1.427 . S
N1158 C1155 1.384 . S
N1159 C1151 1.427 . S
N1159 C1157 1.384 . S
H1160 C1166 0.930 . S
H1161 C1170 0.930 . S
H1162 C1175 0.929 . S
H1163 C1173 0.929 . S
H1164 C1168 0.929 . S
H1165 C1174 0.929 . S
C1166 H1160 0.930 . S
C1166 C1167 1.367 . S
C1166 C1174 1.378 . S
C1167 C1166 1.367 . S
C1167 C1175 1.433 . S
C1168 H1164 0.929 . S
C1168 C1170 1.378 . S
C1168 C1172 1.350 . S
C1169 C1172 1.463 . S
C1169 C1174 1.350 . S
C1169 N1177 1.427 . S
C1170 H1161 0.930 . S
C1170 C1168 1.378 . S
C1170 C1171 1.367 . S
C1171 C1170 1.367 . S
C1171 C1173 1.433 . S
C1172 C1168 1.350 . S
C1172 C1169 1.463 . S
C1172 N1176 1.427 . S
C1173 H1163 0.929 . S
C1173 C1171 1.433 . S
C1173 N1176 1.384 . S
C1174 H1165 0.929 . S
C1174 C1166 1.378 . S
C1174 C1169 1.350 . S
C1175 H1162 0.929 . S
C1175 C1167 1.433 . S
C1175 N1177 1.384 . S
N1176 C1172 1.427 . S
N1176 C1173 1.384 . S
N1177 C1169 1.427 . S
N1177 C1175 1.384 . S
H1178 C1184 0.930 . S
H1179 C1188 0.930 . S
H1180 C1193 0.929 . S
H1181 C1191 0.929 . S
H1182 C1186 0.929 . S
H1183 C1192 0.929 . S
C1184 H1178 0.930 . S
C1184 C1185 1.367 . S
C1184 C1192 1.378 . S
C1185 C1184 1.367 . S
C1185 C1193 1.433 . S
C1186 H1182 0.929 . S
C1186 C1188 1.378 . S
C1186 C1190 1.350 . S
C1187 C1190 1.463 . S
C1187 C1192 1.350 . S
C1187 N1195 1.427 . S
C1188 H1179 0.930 . S
C1188 C1186 1.378 . S
C1188 C1189 1.367 . S
C1189 C1188 1.367 . S
C1189 C1191 1.433 . S
C1190 C1186 1.350 . S
C1190 C1187 1.463 . S
C1190 N1194 1.427 . S
C1191 H1181 0.929 . S
C1191 C1189 1.433 . S
C1191 N1194 1.384 . S
C1192 H1183 0.929 . S
C1192 C1184 1.378 . S
C1192 C1187 1.350 . S
C1193 H1180 0.929 . S
C1193 C1185 1.433 . S
C1193 N1195 1.384 . S
N1194 C1190 1.427 . S
N1194 C1191 1.384 . S
N1195 C1187 1.427 . S
N1195 C1193 1.384 . S
H1196 C1202 0.930 . S
H1197 C1206 0.930 . S
H1198 C1211 0.929 . S
H1199 C1209 0.929 . S
H1200 C1204 0.929 . S
H1201 C1210 0.929 . S
C1202 H1196 0.930 . S
C1202 C1203 1.367 . S
C1202 C1210 1.378 . S
C1203 C1202 1.367 . S
C1203 C1211 1.433 . S
C1204 H1200 0.929 . S
C1204 C1206 1.378 . S
C1204 C1208 1.350 . S
C1205 C1208 1.463 . S
C1205 C1210 1.350 . S
C1205 N1213 1.427 . S
C1206 H1197 0.930 . S
C1206 C1204 1.378 . S
C1206 C1207 1.367 . S
C1207 C1206 1.367 . S
C1207 C1209 1.433 . S
C1208 C1204 1.350 . S
C1208 C1205 1.463 . S
C1208 N1212 1.427 . S
C1209 H1199 0.929 . S
C1209 C1207 1.433 . S
C1209 N1212 1.384 . S
C1210 H1201 0.929 . S
C1210 C1202 1.378 . S
C1210 C1205 1.350 . S
C1211 H1198 0.929 . S
C1211 C1203 1.433 . S
C1211 N1213 1.384 . S
N1212 C1208 1.427 . S
N1212 C1209 1.384 . S
N1213 C1205 1.427 . S
N1213 C1211 1.384 . S
H1214 C1220 0.930 . S
H1215 C1224 0.930 . S
H1216 C1229 0.929 . S
H1217 C1227 0.929 . S
H1218 C1222 0.929 . S
H1219 C1228 0.929 . S
C1220 H1214 0.930 . S
C1220 C1221 1.367 . S
C1220 C1228 1.378 . S
C1221 C1220 1.367 . S
C1221 C1229 1.433 . S
C1222 H1218 0.929 . S
C1222 C1224 1.378 . S
C1222 C1226 1.350 . S
C1223 C1226 1.463 . S
C1223 C1228 1.350 . S
C1223 N1231 1.427 . S
C1224 H1215 0.930 . S
C1224 C1222 1.378 . S
C1224 C1225 1.367 . S
C1225 C1224 1.367 . S
C1225 C1227 1.433 . S
C1226 C1222 1.350 . S
C1226 C1223 1.463 . S
C1226 N1230 1.427 . S
C1227 H1217 0.929 . S
C1227 C1225 1.433 . S
C1227 N1230 1.384 . S
C1228 H1219 0.929 . S
C1228 C1220 1.378 . S
C1228 C1223 1.350 . S
C1229 H1216 0.929 . S
C1229 C1221 1.433 . S
C1229 N1231 1.384 . S
N1230 C1226 1.427 . S
N1230 C1227 1.384 . S
N1231 C1223 1.427 . S
N1231 C1229 1.384 . S
H1232 C1238 0.930 . S
H1233 C1242 0.930 . S
H1234 C1247 0.929 1_565 S
H1235 C1245 0.929 . S
H1236 C1240 0.929 . S
H1237 C1246 0.929 . S
C1238 H1232 0.930 . S
C1238 C1239 1.367 . S
C1238 C1246 1.378 . S
C1239 C1238 1.367 . S
C1239 C1247 1.433 . S
C1240 H1236 0.929 . S
C1240 C1242 1.378 . S
C1240 C1244 1.350 . S
C1241 C1244 1.463 . S
C1241 C1246 1.350 . S
C1241 N1249 1.427 . S
C1242 H1233 0.930 . S
C1242 C1240 1.378 . S
C1242 C1243 1.367 . S
C1243 C1242 1.367 . S
C1243 C1245 1.433 . S
C1244 C1240 1.350 . S
C1244 C1241 1.463 . S
C1244 N1248 1.427 . S
C1245 H1235 0.929 . S
C1245 C1243 1.433 . S
C1245 N1248 1.384 . S
C1246 H1237 0.929 . S
C1246 C1238 1.378 . S
C1246 C1241 1.350 . S
C1247 H1234 0.929 1_545 S
C1247 C1239 1.433 . S
C1247 N1249 1.384 . S
N1248 C1244 1.427 . S
N1248 C1245 1.384 . S
N1249 C1241 1.427 . S
N1249 C1247 1.384 . S
H1250 C1256 0.930 . S
H1251 C1260 0.930 . S
H1252 C1265 0.929 . S
H1253 C1263 0.929 . S
H1254 C1258 0.929 . S
H1255 C1264 0.929 . S
C1256 H1250 0.930 . S
C1256 C1257 1.367 . S
C1256 C1264 1.378 . S
C1257 C1256 1.367 . S
C1257 C1265 1.433 . S
C1258 H1254 0.929 . S
C1258 C1260 1.378 . S
C1258 C1262 1.350 . S
C1259 C1262 1.463 . S
C1259 C1264 1.350 . S
C1259 N1267 1.427 . S
C1260 H1251 0.930 . S
C1260 C1258 1.378 . S
C1260 C1261 1.367 . S
C1261 C1260 1.367 . S
C1261 C1263 1.433 . S
C1262 C1258 1.350 . S
C1262 C1259 1.463 . S
C1262 N1266 1.427 . S
C1263 H1253 0.929 . S
C1263 C1261 1.433 . S
C1263 N1266 1.384 . S
C1264 H1255 0.929 . S
C1264 C1256 1.378 . S
C1264 C1259 1.350 . S
C1265 H1252 0.929 . S
C1265 C1257 1.433 . S
C1265 N1267 1.384 . S
N1266 C1262 1.427 . S
N1266 C1263 1.384 . S
N1267 C1259 1.427 . S
N1267 C1265 1.384 . S
H1268 C1274 0.930 . S
H1269 C1278 0.930 . S
H1270 C1283 0.929 . S
H1271 C1281 0.929 . S
H1272 C1276 0.929 . S
H1273 C1282 0.929 . S
C1274 H1268 0.930 . S
C1274 C1275 1.367 . S
C1274 C1282 1.378 . S
C1275 C1274 1.367 . S
C1275 C1283 1.433 . S
C1276 H1272 0.929 . S
C1276 C1278 1.378 . S
C1276 C1280 1.350 . S
C1277 C1280 1.463 . S
C1277 C1282 1.350 . S
C1277 N1285 1.427 . S
C1278 H1269 0.930 . S
C1278 C1276 1.378 . S
C1278 C1279 1.367 . S
C1279 C1278 1.367 . S
C1279 C1281 1.433 . S
C1280 C1276 1.350 . S
C1280 C1277 1.463 . S
C1280 N1284 1.427 . S
C1281 H1271 0.929 . S
C1281 C1279 1.433 . S
C1281 N1284 1.384 . S
C1282 H1273 0.929 . S
C1282 C1274 1.378 . S
C1282 C1277 1.350 . S
C1283 H1270 0.929 . S
C1283 C1275 1.433 . S
C1283 N1285 1.384 . S
N1284 C1280 1.427 . S
N1284 C1281 1.384 . S
N1285 C1277 1.427 . S
N1285 C1283 1.384 . S
H1286 C1292 0.930 . S
H1287 C1296 0.930 . S
H1288 C1301 0.929 . S
H1289 C1299 0.929 . S
H1290 C1294 0.929 . S
H1291 C1300 0.929 . S
C1292 H1286 0.930 . S
C1292 C1293 1.367 . S
C1292 C1300 1.378 . S
C1293 C1292 1.367 . S
C1293 C1301 1.433 . S
C1294 H1290 0.929 . S
C1294 C1296 1.378 . S
C1294 C1298 1.350 . S
C1295 C1298 1.463 . S
C1295 C1300 1.350 . S
C1295 N1303 1.427 . S
C1296 H1287 0.930 . S
C1296 C1294 1.378 . S
C1296 C1297 1.367 . S
C1297 C1296 1.367 . S
C1297 C1299 1.433 . S
C1298 C1294 1.350 . S
C1298 C1295 1.463 . S
C1298 N1302 1.427 . S
C1299 H1289 0.929 . S
C1299 C1297 1.433 . S
C1299 N1302 1.384 . S
C1300 H1291 0.929 . S
C1300 C1292 1.378 . S
C1300 C1295 1.350 . S
C1301 H1288 0.929 . S
C1301 C1293 1.433 . S
C1301 N1303 1.384 . S
N1302 C1298 1.427 . S
N1302 C1299 1.384 . S
N1303 C1295 1.427 . S
N1303 C1301 1.384 . S
H1304 C1310 0.930 . S
H1305 C1314 0.930 . S
H1306 C1319 0.929 . S
H1307 C1317 0.929 . S
H1308 C1312 0.929 . S
H1309 C1318 0.929 . S
C1310 H1304 0.930 . S
C1310 C1311 1.367 . S
C1310 C1318 1.378 . S
C1311 C1310 1.367 . S
C1311 C1319 1.433 . S
C1312 H1308 0.929 . S
C1312 C1314 1.378 . S
C1312 C1316 1.350 . S
C1313 C1316 1.463 . S
C1313 C1318 1.350 . S
C1313 N1321 1.427 . S
C1314 H1305 0.930 . S
C1314 C1312 1.378 . S
C1314 C1315 1.367 . S
C1315 C1314 1.367 . S
C1315 C1317 1.433 . S
C1316 C1312 1.350 . S
C1316 C1313 1.463 . S
C1316 N1320 1.427 . S
C1317 H1307 0.929 . S
C1317 C1315 1.433 . S
C1317 N1320 1.384 . S
C1318 H1309 0.929 . S
C1318 C1310 1.378 . S
C1318 C1313 1.350 . S
C1319 H1306 0.929 . S
C1319 C1311 1.433 . S
C1319 N1321 1.384 . S
N1320 C1316 1.427 . S
N1320 C1317 1.384 . S
N1321 C1313 1.427 . S
N1321 C1319 1.384 . S
H1322 C1328 0.930 . S
H1323 C1332 0.930 . S
H1324 C1337 0.929 . S
H1325 C1335 0.929 . S
H1326 C1330 0.929 . S
H1327 C1336 0.929 . S
C1328 H1322 0.930 . S
C1328 C1329 1.367 . S
C1328 C1336 1.378 . S
C1329 C1328 1.367 . S
C1329 C1337 1.433 . S
C1330 H1326 0.929 . S
C1330 C1332 1.378 . S
C1330 C1334 1.350 . S
C1331 C1334 1.463 . S
C1331 C1336 1.350 . S
C1331 N1339 1.427 . S
C1332 H1323 0.930 . S
C1332 C1330 1.378 . S
C1332 C1333 1.367 . S
C1333 C1332 1.367 . S
C1333 C1335 1.433 . S
C1334 C1330 1.350 . S
C1334 C1331 1.463 . S
C1334 N1338 1.427 . S
C1335 H1325 0.929 . S
C1335 C1333 1.433 . S
C1335 N1338 1.384 . S
C1336 H1327 0.929 . S
C1336 C1328 1.378 . S
C1336 C1331 1.350 . S
C1337 H1324 0.929 . S
C1337 C1329 1.433 . S
C1337 N1339 1.384 . S
N1338 C1334 1.427 . S
N1338 C1335 1.384 . S
N1339 C1331 1.427 . S
N1339 C1337 1.384 . S
H1340 C1346 0.930 . S
H1341 C1350 0.930 . S
H1342 C1355 0.929 . S
H1343 C1353 0.929 . S
H1344 C1348 0.929 . S
H1345 C1354 0.929 . S
C1346 H1340 0.930 . S
C1346 C1347 1.367 . S
C1346 C1354 1.378 . S
C1347 C1346 1.367 . S
C1347 C1355 1.433 . S
C1348 H1344 0.929 . S
C1348 C1350 1.378 . S
C1348 C1352 1.350 . S
C1349 C1352 1.463 . S
C1349 C1354 1.350 . S
C1349 N1357 1.427 . S
C1350 H1341 0.930 . S
C1350 C1348 1.378 . S
C1350 C1351 1.367 . S
C1351 C1350 1.367 . S
C1351 C1353 1.433 . S
C1352 C1348 1.350 . S
C1352 C1349 1.463 . S
C1352 N1356 1.427 . S
C1353 H1343 0.929 . S
C1353 C1351 1.433 . S
C1353 N1356 1.384 . S
C1354 H1345 0.929 . S
C1354 C1346 1.378 . S
C1354 C1349 1.350 . S
C1355 H1342 0.929 . S
C1355 C1347 1.433 . S
C1355 N1357 1.384 . S
N1356 C1352 1.427 . S
N1356 C1353 1.384 . S
N1357 C1349 1.427 . S
N1357 C1355 1.384 . S
H1358 C1364 0.930 . S
H1359 C1368 0.930 . S
H1360 C1373 0.929 . S
H1361 C1371 0.929 . S
H1362 C1366 0.929 . S
H1363 C1372 0.929 . S
C1364 H1358 0.930 . S
C1364 C1365 1.367 . S
C1364 C1372 1.378 . S
C1365 C1364 1.367 . S
C1365 C1373 1.433 . S
C1366 H1362 0.929 . S
C1366 C1368 1.378 . S
C1366 C1370 1.350 . S
C1367 C1370 1.463 . S
C1367 C1372 1.350 . S
C1367 N1375 1.427 . S
C1368 H1359 0.930 . S
C1368 C1366 1.378 . S
C1368 C1369 1.367 . S
C1369 C1368 1.367 . S
C1369 C1371 1.433 . S
C1370 C1366 1.350 . S
C1370 C1367 1.463 . S
C1370 N1374 1.427 . S
C1371 H1361 0.929 . S
C1371 C1369 1.433 . S
C1371 N1374 1.384 . S
C1372 H1363 0.929 . S
C1372 C1364 1.378 . S
C1372 C1367 1.350 . S
C1373 H1360 0.929 . S
C1373 C1365 1.433 . S
C1373 N1375 1.384 . S
N1374 C1370 1.427 . S
N1374 C1371 1.384 . S
N1375 C1367 1.427 . S
N1375 C1373 1.384 . S
H1376 C1382 0.930 . S
H1377 C1386 0.930 . S
H1378 C1391 0.929 1_545 S
H1379 C1389 0.929 1_565 S
H1380 C1384 0.980 . S
H1381 C1390 0.980 . S
C1382 H1376 0.930 . S
C1382 C1383 1.367 . S
C1382 C1390 1.378 . S
C1383 C1382 1.367 . S
C1383 C1391 1.433 . S
C1384 H1380 0.980 . S
C1384 C1386 1.378 . S
C1384 C1388 1.350 . S
C1385 C1388 1.463 1_566 S
C1385 C1390 1.350 . S
C1385 N1393 1.427 1_565 S
C1386 H1377 0.930 . S
C1386 C1384 1.378 . S
C1386 C1387 1.367 . S
C1387 C1386 1.367 . S
C1387 C1389 1.433 . S
C1388 C1384 1.350 . S
C1388 C1385 1.463 1_544 S
C1388 N1392 1.427 1_545 S
C1389 H1379 0.929 1_545 S
C1389 C1387 1.433 . S
C1389 N1392 1.384 1_545 S
C1390 H1381 0.980 . S
C1390 C1382 1.378 . S
C1390 C1385 1.350 . S
C1391 H1378 0.929 1_565 S
C1391 C1383 1.433 . S
C1391 N1393 1.384 1_565 S
N1392 C1388 1.427 1_565 S
N1392 C1389 1.384 1_565 S
N1393 C1385 1.427 1_545 S
N1393 C1391 1.384 1_545 S
H1394 C1400 0.930 . S
H1395 C1404 0.930 . S
H1396 C1409 0.929 . S
H1397 C1407 0.929 . S
H1398 C1402 0.929 . S
H1399 C1408 0.929 . S
C1400 H1394 0.930 . S
C1400 C1401 1.367 . S
C1400 C1408 1.378 . S
C1401 C1400 1.367 . S
C1401 C1409 1.433 . S
C1402 H1398 0.929 . S
C1402 C1404 1.378 . S
C1402 C1406 1.350 . S
C1403 C1406 1.463 1_554 S
C1403 C1408 1.350 . S
C1403 N1411 1.427 . S
C1404 H1395 0.930 . S
C1404 C1402 1.378 . S
C1404 C1405 1.367 . S
C1405 C1404 1.367 . S
C1405 C1407 1.433 . S
C1406 C1402 1.350 . S
C1406 C1403 1.463 1_556 S
C1406 N1410 1.427 . S
C1407 H1397 0.929 . S
C1407 C1405 1.433 . S
C1407 N1410 1.384 . S
C1408 H1399 0.929 . S
C1408 C1400 1.378 . S
C1408 C1403 1.350 . S
C1409 H1396 0.929 . S
C1409 C1401 1.433 . S
C1409 N1411 1.384 . S
N1410 C1406 1.427 . S
N1410 C1407 1.384 . S
N1411 C1403 1.427 . S
N1411 C1409 1.384 . S
H1412 C1418 0.930 . S
H1413 C1422 0.930 . S
H1414 C1427 0.929 . S
H1415 C1425 0.929 . S
H1416 C1420 0.929 . S
H1417 C1426 0.929 . S
C1418 H1412 0.930 . S
C1418 C1419 1.367 . S
C1418 C1426 1.378 . S
C1419 C1418 1.367 . S
C1419 C1427 1.433 . S
C1420 H1416 0.929 . S
C1420 C1422 1.378 . S
C1420 C1424 1.350 . S
C1421 C1424 1.463 . S
C1421 C1426 1.350 . S
C1421 N1429 1.427 . S
C1422 H1413 0.930 . S
C1422 C1420 1.378 . S
C1422 C1423 1.367 . S
C1423 C1422 1.367 . S
C1423 C1425 1.433 . S
C1424 C1420 1.350 . S
C1424 C1421 1.463 . S
C1424 N1428 1.427 . S
C1425 H1415 0.929 . S
C1425 C1423 1.433 . S
C1425 N1428 1.384 . S
C1426 H1417 0.929 . S
C1426 C1418 1.378 . S
C1426 C1421 1.350 . S
C1427 H1414 0.929 . S
C1427 C1419 1.433 . S
C1427 N1429 1.384 . S
N1428 C1424 1.427 . S
N1428 C1425 1.384 . S
N1429 C1421 1.427 . S
N1429 C1427 1.384 . S
H1430 C1436 0.930 . S
H1431 C1440 0.930 . S
H1432 C1445 0.929 . S
H1433 C1443 0.929 . S
H1434 C1438 0.929 1_545 S
H1435 C1444 0.929 1_565 S
C1436 H1430 0.930 . S
C1436 C1437 1.367 . S
C1436 C1444 1.378 . S
C1437 C1436 1.367 . S
C1437 C1445 1.433 . S
C1438 H1434 0.929 1_565 S
C1438 C1440 1.378 . S
C1438 C1442 1.350 . S
C1439 C1442 1.463 1_545 S
C1439 C1444 1.350 . S
C1439 N1447 1.427 . S
C1440 H1431 0.930 . S
C1440 C1438 1.378 . S
C1440 C1441 1.367 . S
C1441 C1440 1.367 . S
C1441 C1443 1.433 . S
C1442 C1438 1.350 . S
C1442 C1439 1.463 1_565 S
C1442 N1446 1.427 . S
C1443 H1433 0.929 . S
C1443 C1441 1.433 . S
C1443 N1446 1.384 . S
C1444 H1435 0.929 1_545 S
C1444 C1436 1.378 . S
C1444 C1439 1.350 . S
C1445 H1432 0.929 . S
C1445 C1437 1.433 . S
C1445 N1447 1.384 . S
N1446 C1442 1.427 . S
N1446 C1443 1.384 . S
N1447 C1439 1.427 . S
N1447 C1445 1.384 . S
H1448 C1454 0.930 . S
H1449 C1458 0.930 . S
H1450 C1463 0.929 . S
H1451 C1461 0.929 . S
H1452 C1456 0.855 1_556 S
H1453 C1462 0.855 1_554 S
C1454 H1448 0.930 . S
C1454 C1455 1.367 . S
C1454 C1462 1.378 . S
C1455 C1454 1.367 . S
C1455 C1463 1.433 . S
C1456 H1452 0.855 1_554 S
C1456 C1458 1.378 . S
C1456 C1460 1.350 . S
C1457 C1460 1.463 1_556 S
C1457 C1462 1.350 . S
C1457 N1465 1.427 . S
C1458 H1449 0.930 . S
C1458 C1456 1.378 . S
C1458 C1459 1.367 . S
C1459 C1458 1.367 . S
C1459 C1461 1.433 . S
C1460 C1456 1.350 . S
C1460 C1457 1.463 1_554 S
C1460 N1464 1.427 . S
C1461 H1451 0.929 . S
C1461 C1459 1.433 . S
C1461 N1464 1.384 . S
C1462 H1453 0.855 1_556 S
C1462 C1454 1.378 . S
C1462 C1457 1.350 . S
C1463 H1450 0.929 . S
C1463 C1455 1.433 . S
C1463 N1465 1.384 . S
N1464 C1460 1.427 . S
N1464 C1461 1.384 . S
N1465 C1457 1.427 . S
N1465 C1463 1.384 . S
H1466 C1472 0.930 . S
H1467 C1476 0.930 . S
H1468 C1481 0.929 . S
H1469 C1479 0.929 . S
H1470 C1474 0.929 . S
H1471 C1480 0.929 . S
C1472 H1466 0.930 . S
C1472 C1473 1.367 . S
C1472 C1480 1.378 . S
C1473 C1472 1.367 . S
C1473 C1481 1.433 . S
C1474 H1470 0.929 . S
C1474 C1476 1.378 . S
C1474 C1478 1.350 . S
C1475 C1478 1.463 . S
C1475 C1480 1.350 . S
C1475 N1483 1.427 . S
C1476 H1467 0.930 . S
C1476 C1474 1.378 . S
C1476 C1477 1.367 . S
C1477 C1476 1.367 . S
C1477 C1479 1.433 . S
C1478 C1474 1.350 . S
C1478 C1475 1.463 . S
C1478 N1482 1.427 . S
C1479 H1469 0.929 . S
C1479 C1477 1.433 . S
C1479 N1482 1.384 . S
C1480 H1471 0.929 . S
C1480 C1472 1.378 . S
C1480 C1475 1.350 . S
C1481 H1468 0.929 . S
C1481 C1473 1.433 . S
C1481 N1483 1.384 . S
N1482 C1478 1.427 . S
N1482 C1479 1.384 . S
N1483 C1475 1.427 . S
N1483 C1481 1.384 . S
H1484 C1490 0.930 . S
H1485 C1494 0.930 . S
H1486 C1499 0.929 . S
H1487 C1497 0.929 . S
H1488 C1492 0.929 . S
H1489 C1498 0.929 . S
C1490 H1484 0.930 . S
C1490 C1491 1.367 . S
C1490 C1498 1.378 . S
C1491 C1490 1.367 . S
C1491 C1499 1.433 . S
C1492 H1488 0.929 . S
C1492 C1494 1.378 . S
C1492 C1496 1.350 . S
C1493 C1496 1.463 1_545 S
C1493 C1498 1.350 . S
C1493 N1501 1.427 . S
C1494 H1485 0.930 . S
C1494 C1492 1.378 . S
C1494 C1495 1.367 . S
C1495 C1494 1.367 . S
C1495 C1497 1.433 . S
C1496 C1492 1.350 . S
C1496 C1493 1.463 1_565 S
C1496 N1500 1.427 . S
C1497 H1487 0.929 . S
C1497 C1495 1.433 . S
C1497 N1500 1.384 . S
C1498 H1489 0.929 . S
C1498 C1490 1.378 . S
C1498 C1493 1.350 . S
C1499 H1486 0.929 . S
C1499 C1491 1.433 . S
C1499 N1501 1.384 . S
N1500 C1496 1.427 . S
N1500 C1497 1.384 . S
N1501 C1493 1.427 . S
N1501 C1499 1.384 . S
H1502 C1508 0.930 . S
H1503 C1512 0.930 . S
H1504 C1517 0.929 . S
H1505 C1515 0.929 . S
H1506 C1510 0.929 . S
H1507 C1516 0.929 . S
C1508 H1502 0.930 . S
C1508 C1509 1.367 . S
C1508 C1516 1.378 . S
C1509 C1508 1.367 . S
C1509 C1517 1.433 . S
C1510 H1506 0.929 . S
C1510 C1512 1.378 . S
C1510 C1514 1.350 . S
C1511 C1514 1.463 . S
C1511 C1516 1.350 . S
C1511 N1519 1.427 . S
C1512 H1503 0.930 . S
C1512 C1510 1.378 . S
C1512 C1513 1.367 . S
C1513 C1512 1.367 . S
C1513 C1515 1.433 . S
C1514 C1510 1.350 . S
C1514 C1511 1.463 . S
C1514 N1518 1.427 . S
C1515 H1505 0.929 . S
C1515 C1513 1.433 . S
C1515 N1518 1.384 . S
C1516 H1507 0.929 . S
C1516 C1508 1.378 . S
C1516 C1511 1.350 . S
C1517 H1504 0.929 . S
C1517 C1509 1.433 . S
C1517 N1519 1.384 . S
N1518 C1514 1.427 . S
N1518 C1515 1.384 . S
N1519 C1511 1.427 . S
N1519 C1517 1.384 . S
H1520 C1526 0.930 . S
H1521 C1530 0.930 . S
H1522 C1535 0.929 . S
H1523 C1533 0.929 . S
H1524 C1528 0.929 . S
H1525 C1534 0.929 . S
C1526 H1520 0.930 . S
C1526 C1527 1.367 . S
C1526 C1534 1.378 . S
C1527 C1526 1.367 . S
C1527 C1535 1.433 . S
C1528 H1524 0.929 . S
C1528 C1530 1.378 . S
C1528 C1532 1.350 . S
C1529 C1532 1.463 . S
C1529 C1534 1.350 . S
C1529 N1537 1.427 . S
C1530 H1521 0.930 . S
C1530 C1528 1.378 . S
C1530 C1531 1.367 . S
C1531 C1530 1.367 . S
C1531 C1533 1.433 . S
C1532 C1528 1.350 . S
C1532 C1529 1.463 . S
C1532 N1536 1.427 . S
C1533 H1523 0.929 . S
C1533 C1531 1.433 . S
C1533 N1536 1.384 . S
C1534 H1525 0.929 . S
C1534 C1526 1.378 . S
C1534 C1529 1.350 . S
C1535 H1522 0.929 . S
C1535 C1527 1.433 . S
C1535 N1537 1.384 . S
N1536 C1532 1.427 . S
N1536 C1533 1.384 . S
N1537 C1529 1.427 . S
N1537 C1535 1.384 . S
H1538 C1544 0.930 . S
H1539 C1548 0.930 . S
H1540 C1553 0.929 . S
H1541 C1551 0.929 . S
H1542 C1546 0.929 . S
H1543 C1552 0.929 . S
C1544 H1538 0.930 . S
C1544 C1545 1.367 . S
C1544 C1552 1.378 . S
C1545 C1544 1.367 . S
C1545 C1553 1.433 . S
C1546 H1542 0.929 . S
C1546 C1548 1.378 . S
C1546 C1550 1.350 . S
C1547 C1550 1.463 . S
C1547 C1552 1.350 . S
C1547 N1555 1.427 . S
C1548 H1539 0.930 . S
C1548 C1546 1.378 . S
C1548 C1549 1.367 . S
C1549 C1548 1.367 . S
C1549 C1551 1.433 . S
C1550 C1546 1.350 . S
C1550 C1547 1.463 . S
C1550 N1554 1.427 . S
C1551 H1541 0.929 . S
C1551 C1549 1.433 . S
C1551 N1554 1.384 . S
C1552 H1543 0.929 . S
C1552 C1544 1.378 . S
C1552 C1547 1.350 . S
C1553 H1540 0.929 . S
C1553 C1545 1.433 . S
C1553 N1555 1.384 . S
N1554 C1550 1.427 . S
N1554 C1551 1.384 . S
N1555 C1547 1.427 . S
N1555 C1553 1.384 . S
H1556 C1562 0.930 . S
H1557 C1566 0.930 . S
H1558 C1571 0.929 . S
H1559 C1569 0.929 . S
H1560 C1564 0.929 . S
H1561 C1570 0.929 . S
C1562 H1556 0.930 . S
C1562 C1563 1.367 . S
C1562 C1570 1.378 . S
C1563 C1562 1.367 . S
C1563 C1571 1.433 . S
C1564 H1560 0.929 . S
C1564 C1566 1.378 . S
C1564 C1568 1.350 . S
C1565 C1568 1.463 . S
C1565 C1570 1.350 . S
C1565 N1573 1.427 . S
C1566 H1557 0.930 . S
C1566 C1564 1.378 . S
C1566 C1567 1.367 . S
C1567 C1566 1.367 . S
C1567 C1569 1.433 . S
C1568 C1564 1.350 . S
C1568 C1565 1.463 . S
C1568 N1572 1.427 . S
C1569 H1559 0.929 . S
C1569 C1567 1.433 . S
C1569 N1572 1.384 . S
C1570 H1561 0.929 . S
C1570 C1562 1.378 . S
C1570 C1565 1.350 . S
C1571 H1558 0.929 . S
C1571 C1563 1.433 . S
C1571 N1573 1.384 . S
N1572 C1568 1.427 . S
N1572 C1569 1.384 . S
N1573 C1565 1.427 . S
N1573 C1571 1.384 . S
H1574 C1580 0.930 . S
H1575 C1584 0.930 . S
H1576 C1589 0.929 . S
H1577 C1587 0.929 . S
H1578 C1582 0.929 . S
H1579 C1588 0.929 . S
C1580 H1574 0.930 . S
C1580 C1581 1.367 . S
C1580 C1588 1.378 . S
C1581 C1580 1.367 . S
C1581 C1589 1.433 . S
C1582 H1578 0.929 . S
C1582 C1584 1.378 . S
C1582 C1586 1.350 . S
C1583 C1586 1.463 . S
C1583 C1588 1.350 . S
C1583 N1591 1.427 . S
C1584 H1575 0.930 . S
C1584 C1582 1.378 . S
C1584 C1585 1.367 . S
C1585 C1584 1.367 . S
C1585 C1587 1.433 . S
C1586 C1582 1.350 . S
C1586 C1583 1.463 . S
C1586 N1590 1.427 . S
C1587 H1577 0.929 . S
C1587 C1585 1.433 . S
C1587 N1590 1.384 . S
C1588 H1579 0.929 . S
C1588 C1580 1.378 . S
C1588 C1583 1.350 . S
C1589 H1576 0.929 . S
C1589 C1581 1.433 . S
C1589 N1591 1.384 . S
N1590 C1586 1.427 . S
N1590 C1587 1.384 . S
N1591 C1583 1.427 . S
N1591 C1589 1.384 . S
H1592 C1598 0.930 1_545 S
H1593 C1602 0.930 1_565 S
H1594 C1607 0.929 . S
H1595 C1605 0.929 . S
H1596 C1600 0.929 1_455 S
H1597 C1606 0.929 1_655 S
C1598 H1592 0.930 1_565 S
C1598 C1599 1.367 . S
C1598 C1606 1.378 1_565 S
C1599 C1598 1.367 . S
C1599 C1607 1.433 . S
C1600 H1596 0.929 1_655 S
C1600 C1602 1.378 1_565 S
C1600 C1604 1.350 1_565 S
C1601 C1604 1.463 1_465 S
C1601 C1606 1.350 1_565 S
C1601 N1609 1.427 . S
C1602 H1593 0.930 1_545 S
C1602 C1600 1.378 1_545 S
C1602 C1603 1.367 . S
C1603 C1602 1.367 . S
C1603 C1605 1.433 . S
C1604 C1600 1.350 1_545 S
C1604 C1601 1.463 1_645 S
C1604 N1608 1.427 . S
C1605 H1595 0.929 . S
C1605 C1603 1.433 . S
C1605 N1608 1.384 . S
C1606 H1597 0.929 1_455 S
C1606 C1598 1.378 1_545 S
C1606 C1601 1.350 1_545 S
C1607 H1594 0.929 . S
C1607 C1599 1.433 . S
C1607 N1609 1.384 . S
N1608 C1604 1.427 . S
N1608 C1605 1.384 . S
N1609 C1601 1.427 . S
N1609 C1607 1.384 . S
H1610 C1616 0.951 . S
H1611 C1620 0.951 . S
H1612 C1625 0.929 . S
H1613 C1623 0.929 . S
H1614 C1618 0.929 . S
H1615 C1624 0.929 . S
C1616 H1610 0.951 . S
C1616 C1617 1.334 1_455 S
C1616 C1624 1.391 . S
C1617 C1616 1.334 1_655 S
C1617 C1625 1.433 . S
C1618 H1614 0.929 . S
C1618 C1620 1.391 . S
C1618 C1622 1.350 1_655 S
C1619 C1622 1.463 1_655 S
C1619 C1624 1.350 1_655 S
C1619 N1627 1.427 . S
C1620 H1611 0.951 . S
C1620 C1618 1.391 . S
C1620 C1621 1.334 1_655 S
C1621 C1620 1.334 1_455 S
C1621 C1623 1.433 . S
C1622 C1618 1.350 1_455 S
C1622 C1619 1.463 1_455 S
C1622 N1626 1.427 . S
C1623 H1613 0.929 . S
C1623 C1621 1.433 . S
C1623 N1626 1.384 . S
C1624 H1615 0.929 . S
C1624 C1616 1.391 . S
C1624 C1619 1.350 1_455 S
C1625 H1612 0.929 . S
C1625 C1617 1.433 . S
C1625 N1627 1.384 . S
N1626 C1622 1.427 . S
N1626 C1623 1.384 . S
N1627 C1619 1.427 . S
N1627 C1625 1.384 . S
H1628 C1634 0.935 . S
H1629 C1638 0.935 . S
H1630 C1643 0.929 . S
H1631 C1641 0.929 . S
H1632 C1636 0.929 . S
H1633 C1642 0.929 . S
C1634 H1628 0.935 . S
C1634 C1635 1.360 1_655 S
C1634 C1642 1.381 . S
C1635 C1634 1.360 1_455 S
C1635 C1643 1.433 . S
C1636 H1632 0.929 . S
C1636 C1638 1.381 . S
C1636 C1640 1.350 1_455 S
C1637 C1640 1.463 1_455 S
C1637 C1642 1.350 1_455 S
C1637 N1645 1.427 . S
C1638 H1629 0.935 . S
C1638 C1636 1.381 . S
C1638 C1639 1.360 1_455 S
C1639 C1638 1.360 1_655 S
C1639 C1641 1.433 . S
C1640 C1636 1.350 1_655 S
C1640 C1637 1.463 1_655 S
C1640 N1644 1.427 . S
C1641 H1631 0.929 . S
C1641 C1639 1.433 . S
C1641 N1644 1.384 . S
C1642 H1633 0.929 . S
C1642 C1634 1.381 . S
C1642 C1637 1.350 1_655 S
C1643 H1630 0.929 . S
C1643 C1635 1.433 . S
C1643 N1645 1.384 . S
N1644 C1640 1.427 . S
N1644 C1641 1.384 . S
N1645 C1637 1.427 . S
N1645 C1643 1.384 . S
H1646 C1652 0.930 . S
H1647 C1656 0.930 . S
H1648 C1661 0.964 . S
H1649 C1659 0.964 . S
H1650 C1654 0.929 1_556 S
H1651 C1660 0.929 1_554 S
C1652 H1646 0.930 . S
C1652 C1653 1.367 . S
C1652 C1660 1.378 . S
C1653 C1652 1.367 . S
C1653 C1661 1.380 1_455 S
C1654 H1650 0.929 1_554 S
C1654 C1656 1.378 . S
C1654 C1658 1.350 . S
C1655 C1658 1.463 1_456 S
C1655 C1660 1.350 . S
C1655 N1663 1.427 1_455 S
C1656 H1647 0.930 . S
C1656 C1654 1.378 . S
C1656 C1657 1.367 . S
C1657 C1656 1.367 . S
C1657 C1659 1.380 1_655 S
C1658 C1654 1.350 . S
C1658 C1655 1.463 1_654 S
C1658 N1662 1.427 1_655 S
C1659 H1649 0.964 . S
C1659 C1657 1.380 1_455 S
C1659 N1662 1.405 . S
C1660 H1651 0.929 1_556 S
C1660 C1652 1.378 . S
C1660 C1655 1.350 . S
C1661 H1648 0.964 . S
C1661 C1653 1.380 1_655 S
C1661 N1663 1.405 . S
N1662 C1658 1.427 1_455 S
N1662 C1659 1.405 . S
N1663 C1655 1.427 1_655 S
N1663 C1661 1.405 . S
H1664 C1670 0.930 . S
H1665 C1674 0.930 . S
H1666 C1679 0.929 . S
H1667 C1677 0.929 . S
H1668 C1672 0.929 . S
H1669 C1678 0.929 . S
C1670 H1664 0.930 . S
C1670 C1671 1.367 . S
C1670 C1678 1.378 . S
C1671 C1670 1.367 . S
C1671 C1679 1.433 . S
C1672 H1668 0.929 . S
C1672 C1674 1.378 . S
C1672 C1676 1.350 . S
C1673 C1676 1.463 . S
C1673 C1678 1.350 . S
C1673 N1681 1.427 . S
C1674 H1665 0.930 . S
C1674 C1672 1.378 . S
C1674 C1675 1.367 . S
C1675 C1674 1.367 . S
C1675 C1677 1.433 . S
C1676 C1672 1.350 . S
C1676 C1673 1.463 . S
C1676 N1680 1.427 . S
C1677 H1667 0.929 . S
C1677 C1675 1.433 . S
C1677 N1680 1.384 . S
C1678 H1669 0.929 . S
C1678 C1670 1.378 . S
C1678 C1673 1.350 . S
C1679 H1666 0.929 . S
C1679 C1671 1.433 . S
C1679 N1681 1.384 . S
N1680 C1676 1.427 . S
N1680 C1677 1.384 . S
N1681 C1673 1.427 . S
N1681 C1679 1.384 . S
H1682 C1688 0.930 . S
H1683 C1692 0.930 . S
H1684 C1697 0.929 . S
H1685 C1695 0.929 . S
H1686 C1690 0.929 . S
H1687 C1696 0.929 . S
C1688 H1682 0.930 . S
C1688 C1689 1.367 . S
C1688 C1696 1.378 . S
C1689 C1688 1.367 . S
C1689 C1697 1.433 . S
C1690 H1686 0.929 . S
C1690 C1692 1.378 . S
C1690 C1694 1.350 . S
C1691 C1694 1.463 . S
C1691 C1696 1.350 . S
C1691 N1699 1.427 . S
C1692 H1683 0.930 . S
C1692 C1690 1.378 . S
C1692 C1693 1.367 . S
C1693 C1692 1.367 . S
C1693 C1695 1.433 . S
C1694 C1690 1.350 . S
C1694 C1691 1.463 . S
C1694 N1698 1.427 . S
C1695 H1685 0.929 . S
C1695 C1693 1.433 . S
C1695 N1698 1.384 . S
C1696 H1687 0.929 . S
C1696 C1688 1.378 . S
C1696 C1691 1.350 . S
C1697 H1684 0.929 . S
C1697 C1689 1.433 . S
C1697 N1699 1.384 . S
N1698 C1694 1.427 . S
N1698 C1695 1.384 . S
N1699 C1691 1.427 . S
N1699 C1697 1.384 . S
H1700 C1706 0.930 . S
H1701 C1710 0.930 . S
H1702 C1715 0.929 . S
H1703 C1713 0.929 . S
H1704 C1708 0.929 . S
H1705 C1714 0.929 . S
C1706 H1700 0.930 . S
C1706 C1707 1.367 . S
C1706 C1714 1.378 . S
C1707 C1706 1.367 . S
C1707 C1715 1.433 . S
C1708 H1704 0.929 . S
C1708 C1710 1.378 . S
C1708 C1712 1.350 . S
C1709 C1712 1.463 . S
C1709 C1714 1.350 . S
C1709 N1717 1.427 . S
C1710 H1701 0.930 . S
C1710 C1708 1.378 . S
C1710 C1711 1.367 . S
C1711 C1710 1.367 . S
C1711 C1713 1.433 . S
C1712 C1708 1.350 . S
C1712 C1709 1.463 . S
C1712 N1716 1.427 . S
C1713 H1703 0.929 . S
C1713 C1711 1.433 . S
C1713 N1716 1.384 . S
C1714 H1705 0.929 . S
C1714 C1706 1.378 . S
C1714 C1709 1.350 . S
C1715 H1702 0.929 . S
C1715 C1707 1.433 . S
C1715 N1717 1.384 . S
N1716 C1712 1.427 . S
N1716 C1713 1.384 . S
N1717 C1709 1.427 . S
N1717 C1715 1.384 . S
H1718 C1724 0.930 . S
H1719 C1728 0.930 . S
H1720 C1733 0.929 . S
H1721 C1731 0.929 . S
H1722 C1726 0.929 . S
H1723 C1732 0.929 . S
C1724 H1718 0.930 . S
C1724 C1725 1.367 . S
C1724 C1732 1.378 . S
C1725 C1724 1.367 . S
C1725 C1733 1.433 . S
C1726 H1722 0.929 . S
C1726 C1728 1.378 . S
C1726 C1730 1.350 . S
C1727 C1730 1.463 . S
C1727 C1732 1.350 . S
C1727 N1735 1.427 . S
C1728 H1719 0.930 . S
C1728 C1726 1.378 . S
C1728 C1729 1.367 . S
C1729 C1728 1.367 . S
C1729 C1731 1.433 . S
C1730 C1726 1.350 . S
C1730 C1727 1.463 . S
C1730 N1734 1.427 . S
C1731 H1721 0.929 . S
C1731 C1729 1.433 . S
C1731 N1734 1.384 . S
C1732 H1723 0.929 . S
C1732 C1724 1.378 . S
C1732 C1727 1.350 . S
C1733 H1720 0.929 . S
C1733 C1725 1.433 . S
C1733 N1735 1.384 . S
N1734 C1730 1.427 . S
N1734 C1731 1.384 . S
N1735 C1727 1.427 . S
N1735 C1733 1.384 . S
H1736 C1742 0.930 . S
H1737 C1746 0.930 . S
H1738 C1751 0.929 . S
H1739 C1749 0.929 . S
H1740 C1744 0.929 . S
H1741 C1750 0.929 . S
C1742 H1736 0.930 . S
C1742 C1743 1.367 . S
C1742 C1750 1.378 . S
C1743 C1742 1.367 . S
C1743 C1751 1.433 . S
C1744 H1740 0.929 . S
C1744 C1746 1.378 . S
C1744 C1748 1.350 . S
C1745 C1748 1.463 . S
C1745 C1750 1.350 . S
C1745 N1753 1.427 . S
C1746 H1737 0.930 . S
C1746 C1744 1.378 . S
C1746 C1747 1.367 . S
C1747 C1746 1.367 . S
C1747 C1749 1.433 . S
C1748 C1744 1.350 . S
C1748 C1745 1.463 . S
C1748 N1752 1.427 . S
C1749 H1739 0.929 . S
C1749 C1747 1.433 . S
C1749 N1752 1.384 . S
C1750 H1741 0.929 . S
C1750 C1742 1.378 . S
C1750 C1745 1.350 . S
C1751 H1738 0.929 . S
C1751 C1743 1.433 . S
C1751 N1753 1.384 . S
N1752 C1748 1.427 . S
N1752 C1749 1.384 . S
N1753 C1745 1.427 . S
N1753 C1751 1.384 . S
H1754 C1760 0.930 . S
H1755 C1764 0.930 . S
H1756 C1769 0.929 . S
H1757 C1767 0.929 . S
H1758 C1762 0.929 . S
H1759 C1768 0.929 . S
C1760 H1754 0.930 . S
C1760 C1761 1.367 . S
C1760 C1768 1.378 . S
C1761 C1760 1.367 . S
C1761 C1769 1.433 . S
C1762 H1758 0.929 . S
C1762 C1764 1.378 . S
C1762 C1766 1.350 . S
C1763 C1766 1.463 . S
C1763 C1768 1.350 . S
C1763 N1771 1.427 . S
C1764 H1755 0.930 . S
C1764 C1762 1.378 . S
C1764 C1765 1.367 . S
C1765 C1764 1.367 . S
C1765 C1767 1.433 . S
C1766 C1762 1.350 . S
C1766 C1763 1.463 . S
C1766 N1770 1.427 . S
C1767 H1757 0.929 . S
C1767 C1765 1.433 . S
C1767 N1770 1.384 . S
C1768 H1759 0.929 . S
C1768 C1760 1.378 . S
C1768 C1763 1.350 . S
C1769 H1756 0.929 . S
C1769 C1761 1.433 . S
C1769 N1771 1.384 . S
N1770 C1766 1.427 . S
N1770 C1767 1.384 . S
N1771 C1763 1.427 . S
N1771 C1769 1.384 . S
H1772 C1778 0.930 . S
H1773 C1782 0.930 . S
H1774 C1787 0.929 . S
H1775 C1785 0.929 . S
H1776 C1780 0.929 . S
H1777 C1786 0.929 . S
C1778 H1772 0.930 . S
C1778 C1779 1.367 . S
C1778 C1786 1.378 . S
C1779 C1778 1.367 . S
C1779 C1787 1.433 . S
C1780 H1776 0.929 . S
C1780 C1782 1.378 . S
C1780 C1784 1.350 . S
C1781 C1784 1.463 . S
C1781 C1786 1.350 . S
C1781 N1789 1.427 . S
C1782 H1773 0.930 . S
C1782 C1780 1.378 . S
C1782 C1783 1.367 . S
C1783 C1782 1.367 . S
C1783 C1785 1.433 . S
C1784 C1780 1.350 . S
C1784 C1781 1.463 . S
C1784 N1788 1.427 . S
C1785 H1775 0.929 . S
C1785 C1783 1.433 . S
C1785 N1788 1.384 . S
C1786 H1777 0.929 . S
C1786 C1778 1.378 . S
C1786 C1781 1.350 . S
C1787 H1774 0.929 . S
C1787 C1779 1.433 . S
C1787 N1789 1.384 . S
N1788 C1784 1.427 . S
N1788 C1785 1.384 . S
N1789 C1781 1.427 . S
N1789 C1787 1.384 . S
H1790 C1796 0.930 . S
H1791 C1800 0.930 . S
H1792 C1805 0.929 . S
H1793 C1803 0.929 . S
H1794 C1798 0.929 . S
H1795 C1804 0.929 . S
C1796 H1790 0.930 . S
C1796 C1797 1.367 . S
C1796 C1804 1.378 . S
C1797 C1796 1.367 . S
C1797 C1805 1.433 . S
C1798 H1794 0.929 . S
C1798 C1800 1.378 . S
C1798 C1802 1.350 . S
C1799 C1802 1.463 . S
C1799 C1804 1.350 . S
C1799 N1807 1.427 . S
C1800 H1791 0.930 . S
C1800 C1798 1.378 . S
C1800 C1801 1.367 . S
C1801 C1800 1.367 . S
C1801 C1803 1.433 . S
C1802 C1798 1.350 . S
C1802 C1799 1.463 . S
C1802 N1806 1.427 . S
C1803 H1793 0.929 . S
C1803 C1801 1.433 . S
C1803 N1806 1.384 . S
C1804 H1795 0.929 . S
C1804 C1796 1.378 . S
C1804 C1799 1.350 . S
C1805 H1792 0.929 . S
C1805 C1797 1.433 . S
C1805 N1807 1.384 . S
N1806 C1802 1.427 . S
N1806 C1803 1.384 . S
N1807 C1799 1.427 . S
N1807 C1805 1.384 . S
H1808 C1814 0.930 . S
H1809 C1818 0.930 . S
H1810 C1823 0.929 . S
H1811 C1821 0.929 . S
H1812 C1816 0.929 . S
H1813 C1822 0.929 . S
C1814 H1808 0.930 . S
C1814 C1815 1.367 . S
C1814 C1822 1.378 . S
C1815 C1814 1.367 . S
C1815 C1823 1.433 . S
C1816 H1812 0.929 . S
C1816 C1818 1.378 1_545 S
C1816 C1820 1.350 . S
C1817 C1820 1.463 . S
C1817 C1822 1.350 . S
C1817 N1825 1.427 . S
C1818 H1809 0.930 . S
C1818 C1816 1.378 1_565 S
C1818 C1819 1.367 . S
C1819 C1818 1.367 . S
C1819 C1821 1.433 . S
C1820 C1816 1.350 . S
C1820 C1817 1.463 . S
C1820 N1824 1.427 . S
C1821 H1811 0.929 . S
C1821 C1819 1.433 . S
C1821 N1824 1.384 1_565 S
C1822 H1813 0.929 . S
C1822 C1814 1.378 . S
C1822 C1817 1.350 . S
C1823 H1810 0.929 . S
C1823 C1815 1.433 . S
C1823 N1825 1.384 . S
N1824 C1820 1.427 . S
N1824 C1821 1.384 1_545 S
N1825 C1817 1.427 . S
N1825 C1823 1.384 . S
H1826 C1832 0.930 1_565 S
H1827 C1836 0.930 . S
H1828 C1841 0.929 . S
H1829 C1839 0.929 . S
H1830 C1834 0.929 . S
H1831 C1840 0.929 . S
C1832 H1826 0.930 1_545 S
C1832 C1833 1.367 1_545 S
C1832 C1840 1.378 . S
C1833 C1832 1.367 1_565 S
C1833 C1841 1.433 . S
C1834 H1830 0.929 . S
C1834 C1836 1.378 . S
C1834 C1838 1.350 . S
C1835 C1838 1.463 . S
C1835 C1840 1.350 . S
C1835 N1843 1.427 . S
C1836 H1827 0.930 . S
C1836 C1834 1.378 . S
C1836 C1837 1.367 . S
C1837 C1836 1.367 . S
C1837 C1839 1.433 . S
C1838 C1834 1.350 . S
C1838 C1835 1.463 . S
C1838 N1842 1.427 . S
C1839 H1829 0.929 . S
C1839 C1837 1.433 . S
C1839 N1842 1.384 . S
C1840 H1831 0.929 . S
C1840 C1832 1.378 . S
C1840 C1835 1.350 . S
C1841 H1828 0.929 . S
C1841 C1833 1.433 . S
C1841 N1843 1.384 1_565 S
N1842 C1838 1.427 . S
N1842 C1839 1.384 . S
N1843 C1835 1.427 . S
N1843 C1841 1.384 1_545 S
H1844 C1850 0.930 1_565 S
H1845 C1854 0.930 . S
H1846 C1859 0.929 . S
H1847 C1857 0.929 . S
H1848 C1852 0.929 . S
H1849 C1858 0.929 . S
C1850 H1844 0.930 1_545 S
C1850 C1851 1.367 1_545 S
C1850 C1858 1.378 . S
C1851 C1850 1.367 1_565 S
C1851 C1859 1.433 . S
C1852 H1848 0.929 . S
C1852 C1854 1.378 . S
C1852 C1856 1.350 . S
C1853 C1856 1.463 . S
C1853 C1858 1.350 . S
C1853 N1861 1.427 . S
C1854 H1845 0.930 . S
C1854 C1852 1.378 . S
C1854 C1855 1.367 . S
C1855 C1854 1.367 . S
C1855 C1857 1.433 . S
C1856 C1852 1.350 . S
C1856 C1853 1.463 . S
C1856 N1860 1.427 . S
C1857 H1847 0.929 . S
C1857 C1855 1.433 . S
C1857 N1860 1.384 . S
C1858 H1849 0.929 . S
C1858 C1850 1.378 . S
C1858 C1853 1.350 . S
C1859 H1846 0.929 . S
C1859 C1851 1.433 . S
C1859 N1861 1.384 1_565 S
N1860 C1856 1.427 . S
N1860 C1857 1.384 . S
N1861 C1853 1.427 . S
N1861 C1859 1.384 1_545 S
H1862 C1868 0.930 . S
H1863 C1872 0.930 . S
H1864 C1877 0.929 . S
H1865 C1875 0.929 . S
H1866 C1870 0.929 . S
H1867 C1876 0.929 . S
C1868 H1862 0.930 . S
C1868 C1869 1.367 . S
C1868 C1876 1.378 1_565 S
C1869 C1868 1.367 . S
C1869 C1877 1.433 . S
C1870 H1866 0.929 . S
C1870 C1872 1.378 . S
C1870 C1874 1.350 . S
C1871 C1874 1.463 . S
C1871 C1876 1.350 . S
C1871 N1879 1.427 . S
C1872 H1863 0.930 . S
C1872 C1870 1.378 . S
C1872 C1873 1.367 . S
C1873 C1872 1.367 . S
C1873 C1875 1.433 . S
C1874 C1870 1.350 . S
C1874 C1871 1.463 . S
C1874 N1878 1.427 . S
C1875 H1865 0.929 . S
C1875 C1873 1.433 . S
C1875 N1878 1.384 . S
C1876 H1867 0.929 . S
C1876 C1868 1.378 1_545 S
C1876 C1871 1.350 . S
C1877 H1864 0.929 . S
C1877 C1869 1.433 . S
C1877 N1879 1.384 1_565 S
N1878 C1874 1.427 . S
N1878 C1875 1.384 . S
N1879 C1871 1.427 . S
N1879 C1877 1.384 1_545 S
H1880 C1886 0.930 . S
H1881 C1890 0.930 . S
H1882 C1895 0.929 . S
H1883 C1893 0.929 . S
H1884 C1888 0.929 . S
H1885 C1894 0.929 . S
C1886 H1880 0.930 . S
C1886 C1887 1.367 . S
C1886 C1894 1.378 . S
C1887 C1886 1.367 . S
C1887 C1895 1.433 . S
C1888 H1884 0.929 . S
C1888 C1890 1.378 1_565 S
C1888 C1892 1.350 . S
C1889 C1892 1.463 . S
C1889 C1894 1.350 . S
C1889 N1897 1.427 . S
C1890 H1881 0.930 . S
C1890 C1888 1.378 1_545 S
C1890 C1891 1.367 . S
C1891 C1890 1.367 . S
C1891 C1893 1.433 . S
C1892 C1888 1.350 . S
C1892 C1889 1.463 . S
C1892 N1896 1.427 . S
C1893 H1883 0.929 . S
C1893 C1891 1.433 . S
C1893 N1896 1.384 1_545 S
C1894 H1885 0.929 . S
C1894 C1886 1.378 . S
C1894 C1889 1.350 . S
C1895 H1882 0.929 . S
C1895 C1887 1.433 . S
C1895 N1897 1.384 . S
N1896 C1892 1.427 . S
N1896 C1893 1.384 1_565 S
N1897 C1889 1.427 . S
N1897 C1895 1.384 . S
H1898 C1904 0.931 . S
H1899 C1908 0.930 . S
H1900 C1913 0.929 . S
H1901 C1911 0.929 . S
H1902 C1906 0.929 . S
H1903 C1912 0.929 . S
C1904 H1898 0.931 . S
C1904 C1905 1.367 . S
C1904 C1912 1.377 1_545 S
C1905 C1904 1.367 . S
C1905 C1913 1.433 . S
C1906 H1902 0.929 . S
C1906 C1908 1.378 . S
C1906 C1910 1.350 . S
C1907 C1910 1.463 . S
C1907 C1912 1.350 . S
C1907 N1915 1.427 . S
C1908 H1899 0.930 . S
C1908 C1906 1.378 . S
C1908 C1909 1.367 . S
C1909 C1908 1.367 . S
C1909 C1911 1.433 . S
C1910 C1906 1.350 . S
C1910 C1907 1.463 . S
C1910 N1914 1.427 . S
C1911 H1901 0.929 . S
C1911 C1909 1.433 . S
C1911 N1914 1.384 . S
C1912 H1903 0.929 . S
C1912 C1904 1.377 1_565 S
C1912 C1907 1.350 . S
C1913 H1900 0.929 . S
C1913 C1905 1.433 . S
C1913 N1915 1.384 1_545 S
N1914 C1910 1.427 . S
N1914 C1911 1.384 . S
N1915 C1907 1.427 . S
N1915 C1913 1.384 1_565 S
H1916 C1922 0.930 . S
H1917 C1926 0.930 . S
H1918 C1931 0.929 . S
H1919 C1929 0.929 . S
H1920 C1924 0.929 . S
H1921 C1930 0.929 . S
C1922 H1916 0.930 . S
C1922 C1923 1.367 . S
C1922 C1930 1.378 1_545 S
C1923 C1922 1.367 . S
C1923 C1931 1.433 . S
C1924 H1920 0.929 . S
C1924 C1926 1.378 . S
C1924 C1928 1.350 . S
C1925 C1928 1.463 . S
C1925 C1930 1.350 . S
C1925 N1933 1.427 . S
C1926 H1917 0.930 . S
C1926 C1924 1.378 . S
C1926 C1927 1.367 . S
C1927 C1926 1.367 . S
C1927 C1929 1.433 . S
C1928 C1924 1.350 . S
C1928 C1925 1.463 . S
C1928 N1932 1.427 . S
C1929 H1919 0.929 . S
C1929 C1927 1.433 . S
C1929 N1932 1.384 . S
C1930 H1921 0.929 . S
C1930 C1922 1.378 1_565 S
C1930 C1925 1.350 . S
C1931 H1918 0.929 . S
C1931 C1923 1.433 . S
C1931 N1933 1.384 1_545 S
N1932 C1928 1.427 . S
N1932 C1929 1.384 . S
N1933 C1925 1.427 . S
N1933 C1931 1.384 1_565 S
H1934 C1940 0.930 . S
H1935 C1944 0.930 . S
H1936 C1949 0.929 . S
H1937 C1947 0.929 . S
H1938 C1942 0.929 . S
H1939 C1948 0.929 . S
C1940 H1934 0.930 . S
C1940 C1941 1.367 . S
C1940 C1948 1.378 . S
C1941 C1940 1.367 . S
C1941 C1949 1.433 . S
C1942 H1938 0.929 . S
C1942 C1944 1.378 1_565 S
C1942 C1946 1.350 . S
C1943 C1946 1.463 . S
C1943 C1948 1.350 . S
C1943 N1951 1.427 . S
C1944 H1935 0.930 . S
C1944 C1942 1.378 1_545 S
C1944 C1945 1.367 . S
C1945 C1944 1.367 . S
C1945 C1947 1.433 . S
C1946 C1942 1.350 . S
C1946 C1943 1.463 . S
C1946 N1950 1.427 . S
C1947 H1937 0.929 . S
C1947 C1945 1.433 . S
C1947 N1950 1.384 1_545 S
C1948 H1939 0.929 . S
C1948 C1940 1.378 . S
C1948 C1943 1.350 . S
C1949 H1936 0.929 . S
C1949 C1941 1.433 . S
C1949 N1951 1.384 . S
N1950 C1946 1.427 . S
N1950 C1947 1.384 1_565 S
N1951 C1943 1.427 . S
N1951 C1949 1.384 . S
H1952 C1958 0.930 . S
H1953 C1962 0.930 . S
H1954 C1967 0.929 . S
H1955 C1965 0.929 . S
H1956 C1960 0.929 . S
H1957 C1966 0.929 . S
C1958 H1952 0.930 . S
C1958 C1959 1.367 . S
C1958 C1966 1.378 . S
C1959 C1958 1.367 . S
C1959 C1967 1.433 . S
C1960 H1956 0.929 . S
C1960 C1962 1.378 . S
C1960 C1964 1.350 . S
C1961 C1964 1.463 . S
C1961 C1966 1.350 . S
C1961 N1969 1.427 . S
C1962 H1953 0.930 . S
C1962 C1960 1.378 . S
C1962 C1963 1.367 . S
C1963 C1962 1.367 . S
C1963 C1965 1.433 . S
C1964 C1960 1.350 . S
C1964 C1961 1.463 . S
C1964 N1968 1.427 . S
C1965 H1955 0.929 . S
C1965 C1963 1.433 . S
C1965 N1968 1.384 . S
C1966 H1957 0.929 . S
C1966 C1958 1.378 . S
C1966 C1961 1.350 . S
C1967 H1954 0.929 . S
C1967 C1959 1.433 . S
C1967 N1969 1.384 . S
N1968 C1964 1.427 . S
N1968 C1965 1.384 . S
N1969 C1961 1.427 . S
N1969 C1967 1.384 . S
H1970 C1976 0.930 . S
H1971 C1980 0.930 . S
H1972 C1985 0.929 . S
H1973 C1983 0.929 . S
H1974 C1978 0.929 . S
H1975 C1984 0.929 . S
C1976 H1970 0.930 . S
C1976 C1977 1.367 . S
C1976 C1984 1.378 . S
C1977 C1976 1.367 . S
C1977 C1985 1.433 . S
C1978 H1974 0.929 . S
C1978 C1980 1.378 . S
C1978 C1982 1.350 . S
C1979 C1982 1.463 . S
C1979 C1984 1.350 . S
C1979 N1987 1.427 . S
C1980 H1971 0.930 . S
C1980 C1978 1.378 . S
C1980 C1981 1.367 . S
C1981 C1980 1.367 . S
C1981 C1983 1.433 . S
C1982 C1978 1.350 . S
C1982 C1979 1.463 . S
C1982 N1986 1.427 . S
C1983 H1973 0.929 . S
C1983 C1981 1.433 . S
C1983 N1986 1.384 . S
C1984 H1975 0.929 . S
C1984 C1976 1.378 . S
C1984 C1979 1.350 . S
C1985 H1972 0.929 . S
C1985 C1977 1.433 . S
C1985 N1987 1.384 . S
N1986 C1982 1.427 . S
N1986 C1983 1.384 . S
N1987 C1979 1.427 . S
N1987 C1985 1.384 . S
H1988 C1994 0.930 . S
H1989 C1998 0.930 . S
H1990 C2003 0.929 . S
H1991 C2001 0.929 . S
H1992 C1996 0.929 . S
H1993 C2002 0.929 . S
C1994 H1988 0.930 . S
C1994 C1995 1.367 . S
C1994 C2002 1.378 . S
C1995 C1994 1.367 . S
C1995 C2003 1.433 . S
C1996 H1992 0.929 . S
C1996 C1998 1.378 . S
C1996 C2000 1.350 . S
C1997 C2000 1.463 . S
C1997 C2002 1.350 . S
C1997 N2005 1.427 . S
C1998 H1989 0.930 . S
C1998 C1996 1.378 . S
C1998 C1999 1.367 . S
C1999 C1998 1.367 . S
C1999 C2001 1.433 . S
C2000 C1996 1.350 . S
C2000 C1997 1.463 . S
C2000 N2004 1.427 . S
C2001 H1991 0.929 . S
C2001 C1999 1.433 . S
C2001 N2004 1.384 . S
C2002 H1993 0.929 . S
C2002 C1994 1.378 . S
C2002 C1997 1.350 . S
C2003 H1990 0.929 . S
C2003 C1995 1.433 . S
C2003 N2005 1.384 . S
N2004 C2000 1.427 . S
N2004 C2001 1.384 . S
N2005 C1997 1.427 . S
N2005 C2003 1.384 . S
H2006 C2012 0.930 . S
H2007 C2016 0.930 . S
H2008 C2021 0.929 . S
H2009 C2019 0.929 . S
H2010 C2014 0.929 . S
H2011 C2020 0.929 . S
C2012 H2006 0.930 . S
C2012 C2013 1.367 . S
C2012 C2020 1.378 . S
C2013 C2012 1.367 . S
C2013 C2021 1.433 . S
C2014 H2010 0.929 . S
C2014 C2016 1.378 . S
C2014 C2018 1.350 . S
C2015 C2018 1.463 . S
C2015 C2020 1.350 . S
C2015 N2023 1.427 . S
C2016 H2007 0.930 . S
C2016 C2014 1.378 . S
C2016 C2017 1.367 . S
C2017 C2016 1.367 . S
C2017 C2019 1.433 . S
C2018 C2014 1.350 . S
C2018 C2015 1.463 . S
C2018 N2022 1.427 . S
C2019 H2009 0.929 . S
C2019 C2017 1.433 . S
C2019 N2022 1.384 . S
C2020 H2011 0.929 . S
C2020 C2012 1.378 . S
C2020 C2015 1.350 . S
C2021 H2008 0.929 . S
C2021 C2013 1.433 . S
C2021 N2023 1.384 . S
N2022 C2018 1.427 . S
N2022 C2019 1.384 . S
N2023 C2015 1.427 . S
N2023 C2021 1.384 . S
H2024 C2030 0.930 . S
H2025 C2034 0.978 . S
H2026 C2039 0.929 . S
H2027 C2037 0.929 . S
H2028 C2032 0.929 . S
H2029 C2038 0.929 . S
C2030 H2024 0.930 . S
C2030 C2031 1.367 . S
C2030 C2038 1.378 . S
C2031 C2030 1.367 . S
C2031 C2039 1.433 . S
C2032 H2028 0.929 . S
C2032 C2034 1.378 . S
C2032 C2036 1.350 . S
C2033 C2036 1.463 . S
C2033 C2038 1.350 . S
C2033 N2041 1.427 . S
C2034 H2025 0.978 . S
C2034 C2032 1.378 . S
C2034 C2035 1.367 . S
C2035 C2034 1.367 . S
C2035 C2037 1.433 . S
C2036 C2032 1.350 . S
C2036 C2033 1.463 . S
C2036 N2040 1.427 . S
C2037 H2027 0.929 . S
C2037 C2035 1.433 . S
C2037 N2040 1.384 . S
C2038 H2029 0.929 . S
C2038 C2030 1.378 . S
C2038 C2033 1.350 . S
C2039 H2026 0.929 . S
C2039 C2031 1.433 . S
C2039 N2041 1.384 . S
N2040 C2036 1.427 . S
N2040 C2037 1.384 . S
N2041 C2033 1.427 . S
N2041 C2039 1.384 . S
H2042 C2048 0.930 . S
H2043 C2052 0.930 . S
H2044 C2057 0.929 . S
H2045 C2055 0.929 . S
H2046 C2050 0.929 . S
H2047 C2056 0.929 . S
C2048 H2042 0.930 . S
C2048 C2049 1.367 . S
C2048 C2056 1.378 . S
C2049 C2048 1.367 . S
C2049 C2057 1.433 . S
C2050 H2046 0.929 . S
C2050 C2052 1.378 . S
C2050 C2054 1.350 . S
C2051 C2054 1.463 . S
C2051 C2056 1.350 . S
C2051 N2059 1.427 . S
C2052 H2043 0.930 . S
C2052 C2050 1.378 . S
C2052 C2053 1.367 . S
C2053 C2052 1.367 . S
C2053 C2055 1.433 . S
C2054 C2050 1.350 . S
C2054 C2051 1.463 . S
C2054 N2058 1.427 . S
C2055 H2045 0.929 . S
C2055 C2053 1.433 . S
C2055 N2058 1.384 . S
C2056 H2047 0.929 . S
C2056 C2048 1.378 . S
C2056 C2051 1.350 . S
C2057 H2044 0.929 . S
C2057 C2049 1.433 . S
C2057 N2059 1.384 . S
N2058 C2054 1.427 . S
N2058 C2055 1.384 . S
N2059 C2051 1.427 . S
N2059 C2057 1.384 . S
H2060 C2066 0.930 . S
H2061 C2070 0.930 . S
H2062 C2075 0.929 . S
H2063 C2073 0.929 . S
H2064 C2068 0.929 . S
H2065 C2074 0.929 . S
C2066 H2060 0.930 . S
C2066 C2067 1.367 . S
C2066 C2074 1.378 . S
C2067 C2066 1.367 . S
C2067 C2075 1.433 . S
C2068 H2064 0.929 . S
C2068 C2070 1.378 . S
C2068 C2072 1.350 . S
C2069 C2072 1.463 . S
C2069 C2074 1.350 . S
C2069 N2077 1.427 . S
C2070 H2061 0.930 . S
C2070 C2068 1.378 . S
C2070 C2071 1.367 . S
C2071 C2070 1.367 . S
C2071 C2073 1.433 . S
C2072 C2068 1.350 . S
C2072 C2069 1.463 . S
C2072 N2076 1.427 . S
C2073 H2063 0.929 . S
C2073 C2071 1.433 . S
C2073 N2076 1.384 . S
C2074 H2065 0.929 . S
C2074 C2066 1.378 . S
C2074 C2069 1.350 . S
C2075 H2062 0.929 . S
C2075 C2067 1.433 . S
C2075 N2077 1.384 . S
N2076 C2072 1.427 . S
N2076 C2073 1.384 . S
N2077 C2069 1.427 . S
N2077 C2075 1.384 . S
H2078 C2084 0.930 . S
H2079 C2088 0.930 . S
H2080 C2093 0.929 . S
H2081 C2091 0.929 . S
H2082 C2086 0.929 . S
H2083 C2092 0.929 . S
C2084 H2078 0.930 . S
C2084 C2085 1.367 . S
C2084 C2092 1.378 . S
C2085 C2084 1.367 . S
C2085 C2093 1.433 . S
C2086 H2082 0.929 . S
C2086 C2088 1.378 . S
C2086 C2090 1.350 . S
C2087 C2090 1.463 . S
C2087 C2092 1.350 . S
C2087 N2095 1.427 . S
C2088 H2079 0.930 . S
C2088 C2086 1.378 . S
C2088 C2089 1.367 . S
C2089 C2088 1.367 . S
C2089 C2091 1.433 . S
C2090 C2086 1.350 . S
C2090 C2087 1.463 . S
C2090 N2094 1.427 . S
C2091 H2081 0.929 . S
C2091 C2089 1.433 . S
C2091 N2094 1.384 . S
C2092 H2083 0.929 . S
C2092 C2084 1.378 . S
C2092 C2087 1.350 . S
C2093 H2080 0.929 . S
C2093 C2085 1.433 . S
C2093 N2095 1.384 . S
N2094 C2090 1.427 . S
N2094 C2091 1.384 . S
N2095 C2087 1.427 . S
N2095 C2093 1.384 . S
H2096 C2102 0.930 . S
H2097 C2106 0.930 . S
H2098 C2111 0.929 . S
H2099 C2109 0.929 . S
H2100 C2104 0.929 . S
H2101 C2110 0.929 . S
C2102 H2096 0.930 . S
C2102 C2103 1.367 . S
C2102 C2110 1.378 1_565 S
C2103 C2102 1.367 . S
C2103 C2111 1.433 . S
C2104 H2100 0.929 . S
C2104 C2106 1.378 . S
C2104 C2108 1.350 . S
C2105 C2108 1.463 . S
C2105 C2110 1.350 . S
C2105 N2113 1.427 . S
C2106 H2097 0.930 . S
C2106 C2104 1.378 . S
C2106 C2107 1.367 . S
C2107 C2106 1.367 . S
C2107 C2109 1.433 . S
C2108 C2104 1.350 . S
C2108 C2105 1.463 . S
C2108 N2112 1.427 . S
C2109 H2099 0.929 . S
C2109 C2107 1.433 . S
C2109 N2112 1.384 . S
C2110 H2101 0.929 . S
C2110 C2102 1.378 1_545 S
C2110 C2105 1.350 . S
C2111 H2098 0.929 . S
C2111 C2103 1.433 . S
C2111 N2113 1.384 1_565 S
N2112 C2108 1.427 . S
N2112 C2109 1.384 . S
N2113 C2105 1.427 . S
N2113 C2111 1.384 1_545 S
H2114 C2120 0.930 1_565 S
H2115 C2124 0.930 . S
H2116 C2129 0.929 . S
H2117 C2127 0.929 . S
H2118 C2122 0.929 . S
H2119 C2128 0.929 . S
C2120 H2114 0.930 1_545 S
C2120 C2121 1.367 1_545 S
C2120 C2128 1.378 . S
C2121 C2120 1.367 1_565 S
C2121 C2129 1.433 . S
C2122 H2118 0.929 . S
C2122 C2124 1.378 . S
C2122 C2126 1.350 . S
C2123 C2126 1.463 . S
C2123 C2128 1.350 . S
C2123 N2131 1.427 . S
C2124 H2115 0.930 . S
C2124 C2122 1.378 . S
C2124 C2125 1.367 . S
C2125 C2124 1.367 . S
C2125 C2127 1.433 . S
C2126 C2122 1.350 . S
C2126 C2123 1.463 . S
C2126 N2130 1.427 . S
C2127 H2117 0.929 . S
C2127 C2125 1.433 . S
C2127 N2130 1.384 . S
C2128 H2119 0.929 . S
C2128 C2120 1.378 . S
C2128 C2123 1.350 . S
C2129 H2116 0.929 . S
C2129 C2121 1.433 . S
C2129 N2131 1.384 1_565 S
N2130 C2126 1.427 . S
N2130 C2127 1.384 . S
N2131 C2123 1.427 . S
N2131 C2129 1.384 1_545 S
H2132 C2138 0.930 . S
H2133 C2142 0.930 . S
H2134 C2147 0.929 1_565 S
H2135 C2145 0.929 . S
H2136 C2140 0.929 . S
H2137 C2146 0.929 . S
C2138 H2132 0.930 . S
C2138 C2139 1.367 . S
C2138 C2146 1.378 1_565 S
C2139 C2138 1.367 . S
C2139 C2147 1.433 1_565 S
C2140 H2136 0.929 . S
C2140 C2142 1.378 . S
C2140 C2144 1.350 . S
C2141 C2144 1.463 . S
C2141 C2146 1.350 . S
C2141 N2149 1.427 . S
C2142 H2133 0.930 . S
C2142 C2140 1.378 . S
C2142 C2143 1.367 . S
C2143 C2142 1.367 . S
C2143 C2145 1.433 . S
C2144 C2140 1.350 . S
C2144 C2141 1.463 . S
C2144 N2148 1.427 . S
C2145 H2135 0.929 . S
C2145 C2143 1.433 . S
C2145 N2148 1.384 . S
C2146 H2137 0.929 . S
C2146 C2138 1.378 1_545 S
C2146 C2141 1.350 . S
C2147 H2134 0.929 1_545 S
C2147 C2139 1.433 1_545 S
C2147 N2149 1.384 . S
N2148 C2144 1.427 . S
N2148 C2145 1.384 . S
N2149 C2141 1.427 . S
N2149 C2147 1.384 . S
H2150 C2156 0.930 . S
H2151 C2160 0.930 . S
H2152 C2165 0.929 . S
H2153 C2163 0.929 . S
H2154 C2158 0.929 . S
H2155 C2164 0.929 . S
C2156 H2150 0.930 . S
C2156 C2157 1.367 . S
C2156 C2164 1.378 . S
C2157 C2156 1.367 . S
C2157 C2165 1.433 . S
C2158 H2154 0.929 . S
C2158 C2160 1.378 1_545 S
C2158 C2162 1.350 . S
C2159 C2162 1.463 . S
C2159 C2164 1.350 . S
C2159 N2167 1.427 . S
C2160 H2151 0.930 . S
C2160 C2158 1.378 1_565 S
C2160 C2161 1.367 . S
C2161 C2160 1.367 . S
C2161 C2163 1.433 . S
C2162 C2158 1.350 . S
C2162 C2159 1.463 . S
C2162 N2166 1.427 . S
C2163 H2153 0.929 . S
C2163 C2161 1.433 . S
C2163 N2166 1.384 1_565 S
C2164 H2155 0.929 . S
C2164 C2156 1.378 . S
C2164 C2159 1.350 . S
C2165 H2152 0.929 . S
C2165 C2157 1.433 . S
C2165 N2167 1.384 . S
N2166 C2162 1.427 . S
N2166 C2163 1.384 1_545 S
N2167 C2159 1.427 . S
N2167 C2165 1.384 . S
H2168 C2174 0.930 . S
H2169 C2178 0.930 . S
H2170 C2183 0.929 . S
H2171 C2181 0.929 . S
H2172 C2176 0.929 . S
H2173 C2182 0.929 . S
C2174 H2168 0.930 . S
C2174 C2175 1.367 . S
C2174 C2182 1.378 1_545 S
C2175 C2174 1.367 . S
C2175 C2183 1.433 . S
C2176 H2172 0.929 . S
C2176 C2178 1.378 . S
C2176 C2180 1.350 . S
C2177 C2180 1.463 . S
C2177 C2182 1.350 . S
C2177 N2185 1.427 . S
C2178 H2169 0.930 . S
C2178 C2176 1.378 . S
C2178 C2179 1.367 . S
C2179 C2178 1.367 . S
C2179 C2181 1.433 . S
C2180 C2176 1.350 . S
C2180 C2177 1.463 . S
C2180 N2184 1.427 . S
C2181 H2171 0.929 . S
C2181 C2179 1.433 . S
C2181 N2184 1.384 . S
C2182 H2173 0.929 . S
C2182 C2174 1.378 1_565 S
C2182 C2177 1.350 . S
C2183 H2170 0.929 . S
C2183 C2175 1.433 . S
C2183 N2185 1.384 1_545 S
N2184 C2180 1.427 . S
N2184 C2181 1.384 . S
N2185 C2177 1.427 . S
N2185 C2183 1.384 1_565 S
H2186 C2192 0.930 . S
H2187 C2196 0.930 . S
H2188 C2201 0.929 . S
H2189 C2199 0.929 1_545 S
H2190 C2194 0.929 . S
H2191 C2200 0.929 . S
C2192 H2186 0.930 . S
C2192 C2193 1.367 . S
C2192 C2200 1.378 . S
C2193 C2192 1.367 . S
C2193 C2201 1.433 . S
C2194 H2190 0.929 . S
C2194 C2196 1.378 1_565 S
C2194 C2198 1.350 . S
C2195 C2198 1.463 . S
C2195 C2200 1.350 . S
C2195 N2203 1.427 . S
C2196 H2187 0.930 . S
C2196 C2194 1.378 1_545 S
C2196 C2197 1.367 . S
C2197 C2196 1.367 . S
C2197 C2199 1.433 1_545 S
C2198 C2194 1.350 . S
C2198 C2195 1.463 . S
C2198 N2202 1.427 . S
C2199 H2189 0.929 1_565 S
C2199 C2197 1.433 1_565 S
C2199 N2202 1.384 . S
C2200 H2191 0.929 . S
C2200 C2192 1.378 . S
C2200 C2195 1.350 . S
C2201 H2188 0.929 . S
C2201 C2193 1.433 . S
C2201 N2203 1.384 . S
N2202 C2198 1.427 . S
N2202 C2199 1.384 . S
N2203 C2195 1.427 . S
N2203 C2201 1.384 . S
H2204 C2210 0.930 . S
H2205 C2214 0.930 1_545 S
H2206 C2219 0.929 . S
H2207 C2217 0.929 . S
H2208 C2212 0.929 . S
H2209 C2218 0.929 . S
C2210 H2204 0.930 . S
C2210 C2211 1.367 . S
C2210 C2218 1.378 . S
C2211 C2210 1.367 . S
C2211 C2219 1.433 . S
C2212 H2208 0.929 . S
C2212 C2214 1.378 . S
C2212 C2216 1.350 . S
C2213 C2216 1.463 . S
C2213 C2218 1.350 . S
C2213 N2221 1.427 . S
C2214 H2205 0.930 1_565 S
C2214 C2212 1.378 . S
C2214 C2215 1.367 1_565 S
C2215 C2214 1.367 1_545 S
C2215 C2217 1.433 . S
C2216 C2212 1.350 . S
C2216 C2213 1.463 . S
C2216 N2220 1.427 . S
C2217 H2207 0.929 . S
C2217 C2215 1.433 . S
C2217 N2220 1.384 1_545 S
C2218 H2209 0.929 . S
C2218 C2210 1.378 . S
C2218 C2213 1.350 . S
C2219 H2206 0.929 . S
C2219 C2211 1.433 . S
C2219 N2221 1.384 . S
N2220 C2216 1.427 . S
N2220 C2217 1.384 1_565 S
N2221 C2213 1.427 . S
N2221 C2219 1.384 . S
H2222 C2228 0.930 . S
H2223 C2232 0.930 . S
H2224 C2237 0.929 . S
H2225 C2235 0.929 . S
H2226 C2230 0.929 . S
H2227 C2236 0.929 . S
C2228 H2222 0.930 . S
C2228 C2229 1.367 . S
C2228 C2236 1.378 1_545 S
C2229 C2228 1.367 . S
C2229 C2237 1.433 . S
C2230 H2226 0.929 . S
C2230 C2232 1.378 . S
C2230 C2234 1.350 . S
C2231 C2234 1.463 . S
C2231 C2236 1.350 . S
C2231 N2239 1.427 . S
C2232 H2223 0.930 . S
C2232 C2230 1.378 . S
C2232 C2233 1.367 . S
C2233 C2232 1.367 . S
C2233 C2235 1.433 . S
C2234 C2230 1.350 . S
C2234 C2231 1.463 . S
C2234 N2238 1.427 . S
C2235 H2225 0.929 . S
C2235 C2233 1.433 . S
C2235 N2238 1.384 . S
C2236 H2227 0.929 . S
C2236 C2228 1.378 1_565 S
C2236 C2231 1.350 . S
C2237 H2224 0.929 . S
C2237 C2229 1.433 . S
C2237 N2239 1.384 1_545 S
N2238 C2234 1.427 . S
N2238 C2235 1.384 . S
N2239 C2231 1.427 . S
N2239 C2237 1.384 1_565 S
H2240 C2246 0.930 . S
H2241 C2250 0.930 . S
H2242 C2255 0.929 . S
H2243 C2253 0.929 . S
H2244 C2248 0.929 . S
H2245 C2254 0.929 . S
C2246 H2240 0.930 . S
C2246 C2247 1.367 . S
C2246 C2254 1.378 . S
C2247 C2246 1.367 . S
C2247 C2255 1.433 . S
C2248 H2244 0.929 . S
C2248 C2250 1.378 . S
C2248 C2252 1.350 . S
C2249 C2252 1.463 . S
C2249 C2254 1.350 . S
C2249 N2257 1.427 . S
C2250 H2241 0.930 . S
C2250 C2248 1.378 . S
C2250 C2251 1.367 . S
C2251 C2250 1.367 . S
C2251 C2253 1.433 . S
C2252 C2248 1.350 . S
C2252 C2249 1.463 . S
C2252 N2256 1.427 . S
C2253 H2243 0.929 . S
C2253 C2251 1.433 . S
C2253 N2256 1.384 . S
C2254 H2245 0.929 . S
C2254 C2246 1.378 . S
C2254 C2249 1.350 . S
C2255 H2242 0.929 . S
C2255 C2247 1.433 . S
C2255 N2257 1.384 . S
N2256 C2252 1.427 . S
N2256 C2253 1.384 . S
N2257 C2249 1.427 . S
N2257 C2255 1.384 . S
H2258 C2264 0.930 . S
H2259 C2268 0.930 . S
H2260 C2273 0.929 1_545 S
H2261 C2271 0.929 . S
H2262 C2266 0.929 . S
H2263 C2272 0.929 . S
C2264 H2258 0.930 . S
C2264 C2265 1.367 1_565 S
C2264 C2272 1.378 . S
C2265 C2264 1.367 1_545 S
C2265 C2273 1.433 1_545 S
C2266 H2262 0.929 . S
C2266 C2268 1.378 . S
C2266 C2270 1.350 . S
C2267 C2270 1.463 . S
C2267 C2272 1.350 . S
C2267 N2275 1.427 . S
C2268 H2259 0.930 . S
C2268 C2266 1.378 . S
C2268 C2269 1.367 . S
C2269 C2268 1.367 . S
C2269 C2271 1.433 . S
C2270 C2266 1.350 . S
C2270 C2267 1.463 . S
C2270 N2274 1.427 . S
C2271 H2261 0.929 . S
C2271 C2269 1.433 . S
C2271 N2274 1.384 . S
C2272 H2263 0.929 . S
C2272 C2264 1.378 . S
C2272 C2267 1.350 . S
C2273 H2260 0.929 1_565 S
C2273 C2265 1.433 1_565 S
C2273 N2275 1.384 . S
N2274 C2270 1.427 . S
N2274 C2271 1.384 . S
N2275 C2267 1.427 . S
N2275 C2273 1.384 . S
H2276 C2282 0.930 . S
H2277 C2286 0.930 . S
H2278 C2291 0.929 . S
H2279 C2289 0.929 . S
H2280 C2284 0.929 . S
H2281 C2290 0.929 . S
C2282 H2276 0.930 . S
C2282 C2283 1.367 . S
C2282 C2290 1.378 . S
C2283 C2282 1.367 . S
C2283 C2291 1.433 . S
C2284 H2280 0.929 . S
C2284 C2286 1.378 1_565 S
C2284 C2288 1.350 . S
C2285 C2288 1.463 . S
C2285 C2290 1.350 . S
C2285 N2293 1.427 . S
C2286 H2277 0.930 . S
C2286 C2284 1.378 1_545 S
C2286 C2287 1.367 . S
C2287 C2286 1.367 . S
C2287 C2289 1.433 1_545 S
C2288 C2284 1.350 . S
C2288 C2285 1.463 . S
C2288 N2292 1.427 . S
C2289 H2279 0.929 . S
C2289 C2287 1.433 1_565 S
C2289 N2292 1.384 . S
C2290 H2281 0.929 . S
C2290 C2282 1.378 . S
C2290 C2285 1.350 . S
C2291 H2278 0.929 . S
C2291 C2283 1.433 . S
C2291 N2293 1.384 . S
N2292 C2288 1.427 . S
N2292 C2289 1.384 . S
N2293 C2285 1.427 . S
N2293 C2291 1.384 . S
H2294 C2300 0.930 . S
H2295 C2304 0.930 . S
H2296 C2309 0.929 . S
H2297 C2307 0.929 . S
H2298 C2302 0.929 . S
H2299 C2308 0.929 . S
C2300 H2294 0.930 . S
C2300 C2301 1.367 . S
C2300 C2308 1.378 . S
C2301 C2300 1.367 . S
C2301 C2309 1.433 . S
C2302 H2298 0.929 . S
C2302 C2304 1.378 . S
C2302 C2306 1.350 . S
C2303 C2306 1.463 . S
C2303 C2308 1.350 . S
C2303 N2311 1.427 . S
C2304 H2295 0.930 . S
C2304 C2302 1.378 . S
C2304 C2305 1.367 . S
C2305 C2304 1.367 . S
C2305 C2307 1.433 . S
C2306 C2302 1.350 . S
C2306 C2303 1.463 . S
C2306 N2310 1.427 . S
C2307 H2297 0.929 . S
C2307 C2305 1.433 . S
C2307 N2310 1.384 . S
C2308 H2299 0.929 . S
C2308 C2300 1.378 . S
C2308 C2303 1.350 . S
C2309 H2296 0.929 . S
C2309 C2301 1.433 . S
C2309 N2311 1.384 . S
N2310 C2306 1.427 . S
N2310 C2307 1.384 . S
N2311 C2303 1.427 . S
N2311 C2309 1.384 . S
H2312 C2318 0.930 . S
H2313 C2322 0.930 . S
H2314 C2327 0.929 . S
H2315 C2325 0.929 . S
H2316 C2320 0.929 . S
H2317 C2326 0.929 . S
C2318 H2312 0.930 . S
C2318 C2319 1.367 . S
C2318 C2326 1.378 . S
C2319 C2318 1.367 . S
C2319 C2327 1.433 . S
C2320 H2316 0.929 . S
C2320 C2322 1.378 . S
C2320 C2324 1.350 . S
C2321 C2324 1.463 . S
C2321 C2326 1.350 . S
C2321 N2329 1.427 . S
C2322 H2313 0.930 . S
C2322 C2320 1.378 . S
C2322 C2323 1.367 . S
C2323 C2322 1.367 . S
C2323 C2325 1.433 . S
C2324 C2320 1.350 . S
C2324 C2321 1.463 . S
C2324 N2328 1.427 . S
C2325 H2315 0.929 . S
C2325 C2323 1.433 . S
C2325 N2328 1.384 . S
C2326 H2317 0.929 . S
C2326 C2318 1.378 . S
C2326 C2321 1.350 . S
C2327 H2314 0.929 . S
C2327 C2319 1.433 . S
C2327 N2329 1.384 . S
N2328 C2324 1.427 . S
N2328 C2325 1.384 . S
N2329 C2321 1.427 . S
N2329 C2327 1.384 . S
H2330 C2336 0.930 . S
H2331 C2340 0.930 . S
H2332 C2345 0.929 . S
H2333 C2343 0.929 . S
H2334 C2338 0.929 . S
H2335 C2344 0.929 . S
C2336 H2330 0.930 . S
C2336 C2337 1.367 1_545 S
C2336 C2344 1.378 . S
C2337 C2336 1.367 1_565 S
C2337 C2345 1.433 . S
C2338 H2334 0.929 . S
C2338 C2340 1.378 . S
C2338 C2342 1.350 . S
C2339 C2342 1.463 . S
C2339 C2344 1.350 . S
C2339 N2347 1.427 . S
C2340 H2331 0.930 . S
C2340 C2338 1.378 . S
C2340 C2341 1.367 . S
C2341 C2340 1.367 . S
C2341 C2343 1.433 . S
C2342 C2338 1.350 . S
C2342 C2339 1.463 . S
C2342 N2346 1.427 . S
C2343 H2333 0.929 . S
C2343 C2341 1.433 . S
C2343 N2346 1.384 . S
C2344 H2335 0.929 . S
C2344 C2336 1.378 . S
C2344 C2339 1.350 . S
C2345 H2332 0.929 . S
C2345 C2337 1.433 . S
C2345 N2347 1.384 1_565 S
N2346 C2342 1.427 . S
N2346 C2343 1.384 . S
N2347 C2339 1.427 . S
N2347 C2345 1.384 1_545 S
H2348 C2354 0.930 . S
H2349 C2358 0.930 . S
H2350 C2363 0.929 . S
H2351 C2361 0.929 . S
H2352 C2356 0.929 . S
H2353 C2362 0.929 . S
C2354 H2348 0.930 . S
C2354 C2355 1.367 . S
C2354 C2362 1.378 . S
C2355 C2354 1.367 . S
C2355 C2363 1.433 . S
C2356 H2352 0.929 . S
C2356 C2358 1.378 1_545 S
C2356 C2360 1.350 . S
C2357 C2360 1.463 . S
C2357 C2362 1.350 . S
C2357 N2365 1.427 . S
C2358 H2349 0.930 . S
C2358 C2356 1.378 1_565 S
C2358 C2359 1.367 . S
C2359 C2358 1.367 . S
C2359 C2361 1.433 1_565 S
C2360 C2356 1.350 . S
C2360 C2357 1.463 . S
C2360 N2364 1.427 . S
C2361 H2351 0.929 . S
C2361 C2359 1.433 1_545 S
C2361 N2364 1.384 . S
C2362 H2353 0.929 . S
C2362 C2354 1.378 . S
C2362 C2357 1.350 . S
C2363 H2350 0.929 . S
C2363 C2355 1.433 . S
C2363 N2365 1.384 . S
N2364 C2360 1.427 . S
N2364 C2361 1.384 . S
N2365 C2357 1.427 . S
N2365 C2363 1.384 . S
H2366 C2372 0.930 . S
H2367 C2376 0.930 . S
H2368 C2381 0.929 . S
H2369 C2379 0.929 . S
H2370 C2374 0.929 . S
H2371 C2380 0.929 . S
C2372 H2366 0.930 . S
C2372 C2373 1.367 . S
C2372 C2380 1.378 . S
C2373 C2372 1.367 . S
C2373 C2381 1.433 . S
C2374 H2370 0.929 . S
C2374 C2376 1.378 . S
C2374 C2378 1.350 . S
C2375 C2378 1.463 . S
C2375 C2380 1.350 . S
C2375 N2383 1.427 . S
C2376 H2367 0.930 . S
C2376 C2374 1.378 . S
C2376 C2377 1.367 . S
C2377 C2376 1.367 . S
C2377 C2379 1.433 . S
C2378 C2374 1.350 . S
C2378 C2375 1.463 . S
C2378 N2382 1.427 . S
C2379 H2369 0.929 . S
C2379 C2377 1.433 . S
C2379 N2382 1.384 . S
C2380 H2371 0.929 . S
C2380 C2372 1.378 . S
C2380 C2375 1.350 . S
C2381 H2368 0.929 . S
C2381 C2373 1.433 . S
C2381 N2383 1.384 . S
N2382 C2378 1.427 . S
N2382 C2379 1.384 . S
N2383 C2375 1.427 . S
N2383 C2381 1.384 . S
H2384 C2390 0.930 . S
H2385 C2394 0.930 1_545 S
H2386 C2399 0.929 . S
H2387 C2397 0.929 . S
H2388 C2392 0.929 . S
H2389 C2398 0.929 . S
C2390 H2384 0.930 . S
C2390 C2391 1.367 . S
C2390 C2398 1.378 . S
C2391 C2390 1.367 . S
C2391 C2399 1.433 . S
C2392 H2388 0.929 . S
C2392 C2394 1.378 . S
C2392 C2396 1.350 . S
C2393 C2396 1.463 . S
C2393 C2398 1.350 . S
C2393 N2401 1.427 . S
C2394 H2385 0.930 1_565 S
C2394 C2392 1.378 . S
C2394 C2395 1.367 1_565 S
C2395 C2394 1.367 1_545 S
C2395 C2397 1.433 1_545 S
C2396 C2392 1.350 . S
C2396 C2393 1.463 . S
C2396 N2400 1.427 . S
C2397 H2387 0.929 . S
C2397 C2395 1.433 1_565 S
C2397 N2400 1.384 . S
C2398 H2389 0.929 . S
C2398 C2390 1.378 . S
C2398 C2393 1.350 . S
C2399 H2386 0.929 . S
C2399 C2391 1.433 . S
C2399 N2401 1.384 . S
N2400 C2396 1.427 . S
N2400 C2397 1.384 . S
N2401 C2393 1.427 . S
N2401 C2399 1.384 . S
H2402 C2408 0.930 . S
H2403 C2412 0.930 . S
H2404 C2417 0.929 . S
H2405 C2415 0.929 . S
H2406 C2410 0.929 . S
H2407 C2416 0.929 . S
C2408 H2402 0.930 . S
C2408 C2409 1.367 . S
C2408 C2416 1.378 . S
C2409 C2408 1.367 . S
C2409 C2417 1.433 . S
C2410 H2406 0.929 . S
C2410 C2412 1.378 . S
C2410 C2414 1.350 . S
C2411 C2414 1.463 . S
C2411 C2416 1.350 . S
C2411 N2419 1.427 . S
C2412 H2403 0.930 . S
C2412 C2410 1.378 . S
C2412 C2413 1.367 . S
C2413 C2412 1.367 . S
C2413 C2415 1.433 . S
C2414 C2410 1.350 . S
C2414 C2411 1.463 . S
C2414 N2418 1.427 . S
C2415 H2405 0.929 . S
C2415 C2413 1.433 . S
C2415 N2418 1.384 . S
C2416 H2407 0.929 . S
C2416 C2408 1.378 . S
C2416 C2411 1.350 . S
C2417 H2404 0.929 . S
C2417 C2409 1.433 . S
C2417 N2419 1.384 . S
N2418 C2414 1.427 . S
N2418 C2415 1.384 . S
N2419 C2411 1.427 . S
N2419 C2417 1.384 . S
H2420 C2426 0.930 . S
H2421 C2430 0.930 . S
H2422 C2435 0.929 . S
H2423 C2433 0.929 . S
H2424 C2428 0.929 . S
H2425 C2434 0.929 . S
C2426 H2420 0.930 . S
C2426 C2427 1.367 . S
C2426 C2434 1.378 . S
C2427 C2426 1.367 . S
C2427 C2435 1.433 . S
C2428 H2424 0.929 . S
C2428 C2430 1.378 . S
C2428 C2432 1.350 . S
C2429 C2432 1.463 . S
C2429 C2434 1.350 . S
C2429 N2437 1.427 . S
C2430 H2421 0.930 . S
C2430 C2428 1.378 . S
C2430 C2431 1.367 . S
C2431 C2430 1.367 . S
C2431 C2433 1.433 . S
C2432 C2428 1.350 . S
C2432 C2429 1.463 . S
C2432 N2436 1.427 . S
C2433 H2423 0.929 . S
C2433 C2431 1.433 . S
C2433 N2436 1.384 . S
C2434 H2425 0.929 . S
C2434 C2426 1.378 . S
C2434 C2429 1.350 . S
C2435 H2422 0.929 . S
C2435 C2427 1.433 . S
C2435 N2437 1.384 . S
N2436 C2432 1.427 . S
N2436 C2433 1.384 . S
N2437 C2429 1.427 . S
N2437 C2435 1.384 . S
H2438 C2444 0.930 . S
H2439 C2448 0.930 . S
H2440 C2453 0.929 . S
H2441 C2451 0.929 . S
H2442 C2446 0.929 . S
H2443 C2452 0.929 . S
C2444 H2438 0.930 . S
C2444 C2445 1.367 . S
C2444 C2452 1.378 . S
C2445 C2444 1.367 . S
C2445 C2453 1.433 . S
C2446 H2442 0.929 . S
C2446 C2448 1.378 1_565 S
C2446 C2450 1.350 . S
C2447 C2450 1.463 . S
C2447 C2452 1.350 . S
C2447 N2455 1.427 . S
C2448 H2439 0.930 . S
C2448 C2446 1.378 1_545 S
C2448 C2449 1.367 . S
C2449 C2448 1.367 . S
C2449 C2451 1.433 1_545 S
C2450 C2446 1.350 . S
C2450 C2447 1.463 . S
C2450 N2454 1.427 . S
C2451 H2441 0.929 . S
C2451 C2449 1.433 1_565 S
C2451 N2454 1.384 . S
C2452 H2443 0.929 . S
C2452 C2444 1.378 . S
C2452 C2447 1.350 . S
C2453 H2440 0.929 . S
C2453 C2445 1.433 . S
C2453 N2455 1.384 . S
N2454 C2450 1.427 . S
N2454 C2451 1.384 . S
N2455 C2447 1.427 . S
N2455 C2453 1.384 . S
H2456 C2462 0.930 . S
H2457 C2466 0.930 . S
H2458 C2471 0.929 . S
H2459 C2469 0.929 . S
H2460 C2464 0.929 . S
H2461 C2470 0.929 . S
C2462 H2456 0.930 . S
C2462 C2463 1.367 1_545 S
C2462 C2470 1.378 . S
C2463 C2462 1.367 1_565 S
C2463 C2471 1.433 . S
C2464 H2460 0.929 . S
C2464 C2466 1.378 . S
C2464 C2468 1.350 . S
C2465 C2468 1.463 . S
C2465 C2470 1.350 . S
C2465 N2473 1.427 . S
C2466 H2457 0.930 . S
C2466 C2464 1.378 . S
C2466 C2467 1.367 . S
C2467 C2466 1.367 . S
C2467 C2469 1.433 . S
C2468 C2464 1.350 . S
C2468 C2465 1.463 . S
C2468 N2472 1.427 . S
C2469 H2459 0.929 . S
C2469 C2467 1.433 . S
C2469 N2472 1.384 . S
C2470 H2461 0.929 . S
C2470 C2462 1.378 . S
C2470 C2465 1.350 . S
C2471 H2458 0.929 . S
C2471 C2463 1.433 . S
C2471 N2473 1.384 1_565 S
N2472 C2468 1.427 . S
N2472 C2469 1.384 . S
N2473 C2465 1.427 . S
N2473 C2471 1.384 1_545 S
H2474 C2480 0.930 . S
H2475 C2484 0.930 . S
H2476 C2489 0.929 . S
H2477 C2487 0.929 . S
H2478 C2482 0.929 . S
H2479 C2488 0.929 . S
C2480 H2474 0.930 . S
C2480 C2481 1.367 . S
C2480 C2488 1.378 . S
C2481 C2480 1.367 . S
C2481 C2489 1.433 . S
C2482 H2478 0.929 . S
C2482 C2484 1.378 . S
C2482 C2486 1.350 . S
C2483 C2486 1.463 . S
C2483 C2488 1.350 . S
C2483 N2491 1.427 . S
C2484 H2475 0.930 . S
C2484 C2482 1.378 . S
C2484 C2485 1.367 . S
C2485 C2484 1.367 . S
C2485 C2487 1.433 . S
C2486 C2482 1.350 . S
C2486 C2483 1.463 . S
C2486 N2490 1.427 . S
C2487 H2477 0.929 . S
C2487 C2485 1.433 . S
C2487 N2490 1.384 . S
C2488 H2479 0.929 . S
C2488 C2480 1.378 . S
C2488 C2483 1.350 . S
C2489 H2476 0.929 . S
C2489 C2481 1.433 . S
C2489 N2491 1.384 . S
N2490 C2486 1.427 . S
N2490 C2487 1.384 . S
N2491 C2483 1.427 . S
N2491 C2489 1.384 . S
H2492 C2498 0.930 . S
H2493 C2502 0.930 . S
H2494 C2507 0.929 . S
H2495 C2505 0.929 . S
H2496 C2500 0.929 . S
H2497 C2506 0.929 . S
C2498 H2492 0.930 . S
C2498 C2499 1.367 . S
C2498 C2506 1.378 . S
C2499 C2498 1.367 . S
C2499 C2507 1.433 . S
C2500 H2496 0.929 . S
C2500 C2502 1.378 . S
C2500 C2504 1.350 . S
C2501 C2504 1.463 . S
C2501 C2506 1.350 . S
C2501 N2509 1.427 . S
C2502 H2493 0.930 . S
C2502 C2500 1.378 . S
C2502 C2503 1.367 . S
C2503 C2502 1.367 . S
C2503 C2505 1.433 . S
C2504 C2500 1.350 . S
C2504 C2501 1.463 . S
C2504 N2508 1.427 . S
C2505 H2495 0.929 . S
C2505 C2503 1.433 . S
C2505 N2508 1.384 . S
C2506 H2497 0.929 . S
C2506 C2498 1.378 . S
C2506 C2501 1.350 . S
C2507 H2494 0.929 . S
C2507 C2499 1.433 . S
C2507 N2509 1.384 . S
N2508 C2504 1.427 . S
N2508 C2505 1.384 . S
N2509 C2501 1.427 . S
N2509 C2507 1.384 . S
H2510 C2516 0.930 . S
H2511 C2520 0.930 . S
H2512 C2525 0.929 . S
H2513 C2523 0.929 . S
H2514 C2518 0.929 . S
H2515 C2524 0.929 . S
C2516 H2510 0.930 . S
C2516 C2517 1.367 . S
C2516 C2524 1.378 . S
C2517 C2516 1.367 . S
C2517 C2525 1.433 . S
C2518 H2514 0.929 . S
C2518 C2520 1.378 1_545 S
C2518 C2522 1.350 . S
C2519 C2522 1.463 . S
C2519 C2524 1.350 . S
C2519 N2527 1.427 . S
C2520 H2511 0.930 . S
C2520 C2518 1.378 1_565 S
C2520 C2521 1.367 . S
C2521 C2520 1.367 . S
C2521 C2523 1.433 1_565 S
C2522 C2518 1.350 . S
C2522 C2519 1.463 . S
C2522 N2526 1.427 . S
C2523 H2513 0.929 . S
C2523 C2521 1.433 1_545 S
C2523 N2526 1.384 . S
C2524 H2515 0.929 . S
C2524 C2516 1.378 . S
C2524 C2519 1.350 . S
C2525 H2512 0.929 . S
C2525 C2517 1.433 . S
C2525 N2527 1.384 . S
N2526 C2522 1.427 . S
N2526 C2523 1.384 . S
N2527 C2519 1.427 . S
N2527 C2525 1.384 . S
C1095 C2 1.509 . S
C1099 C70 1.506 . S
C1113 C36 1.508 . S
C1117 C104 1.509 . S
C1131 C138 1.509 . S
C1135 C206 1.509 . S
C1149 C240 1.509 . S
C1153 C172 1.508 . S
C1167 C342 1.508 . S
C1171 C274 1.507 . S
C1185 C376 1.508 . S
C1189 C308 1.507 . S
C1203 C410 1.509 . S
C1207 C478 1.508 . S
C1221 C512 1.509 . S
C1225 C444 1.508 . S
C1239 C614 1.508 . S
C1243 C546 1.507 . S
C1257 C580 1.506 . S
C1261 C648 1.508 . S
C1275 C682 1.506 . S
C1279 C750 1.509 . S
C1293 C784 1.506 . S
C1297 C716 1.509 . S
C1311 C886 1.508 . S
C1315 C818 1.510 . S
C1329 C852 1.506 . S
C1333 C920 1.509 . S
C1347 C1022 1.506 . S
C1351 C954 1.508 . S
C1365 C1056 1.509 . S
C1369 C988 1.508 . S
C1383 C156 1.626 . S
C1387 C20 1.626 . S
C1401 C54 1.618 . S
C1405 C1006 1.618 . S
C1419 C88 1.619 . S
C1423 C496 1.619 . S
C1437 C122 1.620 . S
C1441 C802 1.620 . S
C1455 C190 1.621 . S
C1459 C870 1.621 . S
C1473 C360 1.625 . S
C1477 C224 1.625 . S
C1491 C666 1.624 . S
C1495 C258 1.624 . S
C1509 C292 1.625 . S
C1513 C428 1.625 . S
C1527 C734 1.623 . S
C1531 C326 1.623 . S
C1545 C1074 1.618 . S
C1549 C394 1.618 . S
C1563 C598 1.626 . S
C1567 C462 1.626 . S
C1581 C938 1.618 . S
C1585 C530 1.618 . S
C1599 C700 1.618 . S
C1603 C564 1.618 . S
C1617 C632 1.621 . S
C1621 C1040 1.621 . S
C1635 C768 1.625 . S
C1639 C904 1.625 . S
C1653 C972 1.623 . S
C1657 C836 1.623 . S
C1671 C9 1.008 . S
C1675 C5 1.001 . S
C1689 C39 1.001 . S
C1693 C43 1.005 . S
C1707 C73 1.006 . S
C1711 C77 1.015 . S
C1725 C107 1.010 . S
C1729 C111 1.015 . S
C1743 C145 1.013 . S
C1747 C141 1.015 . S
C1761 C175 1.014 . S
C1765 C179 1.013 . S
C1779 C213 1.014 . S
C1783 C209 1.014 . S
C1797 C247 1.005 . S
C1801 C243 1.001 . S
C1815 C281 1.000 . S
C1819 C277 1.007 . S
C1833 C315 1.013 . S
C1837 C311 1.015 . S
C1851 C349 1.010 . S
C1855 C345 1.016 . S
C1869 C379 1.012 . S
C1873 C383 1.015 . S
C1887 C417 1.004 . S
C1891 C413 1.002 . S
C1905 C451 1.015 . S
C1909 C447 1.012 . S
C1923 C485 1.000 . S
C1927 C481 1.007 . S
C1941 C519 1.000 . S
C1945 C515 1.010 . S
C1959 C549 1.015 . S
C1963 C553 1.012 . S
C1977 C587 1.014 . S
C1981 C583 1.014 . S
C1995 C621 1.011 . S
C1999 C617 1.016 . S
C2013 C655 1.014 . S
C2017 C651 1.013 . S
C2031 C689 1.008 . S
C2035 C685 1.016 . S
C2049 C723 1.015 . S
C2053 C719 1.006 . S
C2067 C753 1.016 . S
C2071 C757 1.011 . S
C2085 C791 1.000 . S
C2089 C787 1.010 . S
C2103 C821 1.010 . S
C2107 C825 1.016 . S
C2121 C859 1.013 . S
C2125 C855 1.014 . S
C2139 C893 1.004 . S
C2143 C889 1.002 . S
C2157 C927 1.012 . S
C2161 C923 1.015 . S
C2175 C957 1.005 . S
C2179 C961 1.001 . S
C2193 C991 1.006 . S
C2197 C995 1.015 . S
C2211 C1025 1.016 . S
C2215 C1029 1.010 . S
C2229 C1059 1.001 . S
C2233 C1063 1.010 . S
C2247 C883 1.662 . S
C2251 C33 1.663 . S
C2265 C67 1.665 . S
C2269 C849 1.664 . S
C2283 C951 1.669 . S
C2287 C101 1.670 . S
C2301 C135 1.664 . S
C2305 C917 1.665 . S
C2319 C1019 1.667 . S
C2323 C169 1.668 . S
C2337 C203 1.664 . S
C2341 C985 1.663 . S
C2355 C1087 1.669 . S
C2359 C237 1.670 . S
C2373 C1053 1.666 . S
C2377 C271 1.664 . S
C2391 C305 1.667 . S
C2395 C611 1.666 . S
C2409 C339 1.661 . S
C2413 C577 1.662 . S
C2427 C679 1.667 . S
C2431 C373 1.668 . S
C2445 C407 1.668 . S
C2449 C645 1.667 . S
C2463 C747 1.662 . S
C2467 C441 1.661 . S
C2481 C713 1.660 . S
C2485 C475 1.660 . S
C2499 C509 1.664 . S
C2503 C815 1.662 . S
C2517 C543 1.670 . S
C2521 C781 1.670 . S
