# Generated by pormake.
# Topology hbo, (4)-cn, num edge types: 1
# Building blocks:
#     Node 0, Type 0, BuildingBlock: KUFVIS_clean_sbu_0, # of connection points: 4
#     Node 1, Type 0, BuildingBlock: KUFVIS_clean_sbu_0, # of connection points: 4
#     Node 2, Type 0, BuildingBlock: KUFVIS_clean_sbu_0, # of connection points: 4
#     Node 3, Type 0, BuildingBlock: KUFVIS_clean_sbu_0, # of connection points: 4
#     Node 4, Type 0, BuildingBlock: KUFVIS_clean_sbu_0, # of connection points: 4
#     Node 5, Type 0, BuildingBlock: KUFVIS_clean_sbu_0, # of connection points: 4
#     Node 6, Type 0, BuildingBlock: KUFVIS_clean_sbu_0, # of connection points: 4
#     Node 7, Type 0, BuildingBlock: KUFVIS_clean_sbu_0, # of connection points: 4
#     Node 8, Type 0, BuildingBlock: KUFVIS_clean_sbu_0, # of connection points: 4
#     Node 9, Type 0, BuildingBlock: KUFVIS_clean_sbu_0, # of connection points: 4
#     Node 10, Type 0, BuildingBlock: KUFVIS_clean_sbu_0, # of connection points: 4
#     Node 11, Type 0, BuildingBlock: KUFVIS_clean_sbu_0, # of connection points: 4
#     Node 12, Type 0, BuildingBlock: KUFVIS_clean_sbu_0, # of connection points: 4
#     Node 13, Type 0, BuildingBlock: KUFVIS_clean_sbu_0, # of connection points: 4
#     Node 14, Type 0, BuildingBlock: KUFVIS_clean_sbu_0, # of connection points: 4
#     Node 15, Type 0, BuildingBlock: KUFVIS_clean_sbu_0, # of connection points: 4
#     Node 16, Type 0, BuildingBlock: KUFVIS_clean_sbu_0, # of connection points: 4
#     Node 17, Type 0, BuildingBlock: KUFVIS_clean_sbu_0, # of connection points: 4
#     Node 18, Type 0, BuildingBlock: KUFVIS_clean_sbu_0, # of connection points: 4
#     Node 19, Type 0, BuildingBlock: KUFVIS_clean_sbu_0, # of connection points: 4
#     Node 20, Type 0, BuildingBlock: KUFVIS_clean_sbu_0, # of connection points: 4
#     Node 21, Type 0, BuildingBlock: KUFVIS_clean_sbu_0, # of connection points: 4
#     Node 22, Type 0, BuildingBlock: KUFVIS_clean_sbu_0, # of connection points: 4
#     Node 23, Type 0, BuildingBlock: KUFVIS_clean_sbu_0, # of connection points: 4
#     Edge 24, Type (0, 0), BuildingBlock: ZUJKAS_clean_linker_0, # of connection points: 2
#     Edge 25, Type (0, 0), BuildingBlock: ZUJKAS_clean_linker_0, # of connection points: 2
#     Edge 26, Type (0, 0), BuildingBlock: ZUJKAS_clean_linker_0, # of connection points: 2
#     Edge 27, Type (0, 0), BuildingBlock: ZUJKAS_clean_linker_0, # of connection points: 2
#     Edge 28, Type (0, 0), BuildingBlock: ZUJKAS_clean_linker_0, # of connection points: 2
#     Edge 29, Type (0, 0), BuildingBlock: ZUJKAS_clean_linker_0, # of connection points: 2
#     Edge 30, Type (0, 0), BuildingBlock: ZUJKAS_clean_linker_0, # of connection points: 2
#     Edge 31, Type (0, 0), BuildingBlock: ZUJKAS_clean_linker_0, # of connection points: 2
#     Edge 32, Type (0, 0), BuildingBlock: ZUJKAS_clean_linker_0, # of connection points: 2
#     Edge 33, Type (0, 0), BuildingBlock: ZUJKAS_clean_linker_0, # of connection points: 2
#     Edge 34, Type (0, 0), BuildingBlock: ZUJKAS_clean_linker_0, # of connection points: 2
#     Edge 35, Type (0, 0), BuildingBlock: ZUJKAS_clean_linker_0, # of connection points: 2
#     Edge 36, Type (0, 0), BuildingBlock: ZUJKAS_clean_linker_0, # of connection points: 2
#     Edge 37, Type (0, 0), BuildingBlock: ZUJKAS_clean_linker_0, # of connection points: 2
#     Edge 38, Type (0, 0), BuildingBlock: ZUJKAS_clean_linker_0, # of connection points: 2
#     Edge 39, Type (0, 0), BuildingBlock: ZUJKAS_clean_linker_0, # of connection points: 2
#     Edge 40, Type (0, 0), BuildingBlock: ZUJKAS_clean_linker_0, # of connection points: 2
#     Edge 41, Type (0, 0), BuildingBlock: ZUJKAS_clean_linker_0, # of connection points: 2
#     Edge 42, Type (0, 0), BuildingBlock: ZUJKAS_clean_linker_0, # of connection points: 2
#     Edge 43, Type (0, 0), BuildingBlock: ZUJKAS_clean_linker_0, # of connection points: 2
#     Edge 44, Type (0, 0), BuildingBlock: ZUJKAS_clean_linker_0, # of connection points: 2
#     Edge 45, Type (0, 0), BuildingBlock: ZUJKAS_clean_linker_0, # of connection points: 2
#     Edge 46, Type (0, 0), BuildingBlock: ZUJKAS_clean_linker_0, # of connection points: 2
#     Edge 47, Type (0, 0), BuildingBlock: ZUJKAS_clean_linker_0, # of connection points: 2
#     Edge 48, Type (0, 0), BuildingBlock: ZUJKAS_clean_linker_0, # of connection points: 2
#     Edge 49, Type (0, 0), BuildingBlock: ZUJKAS_clean_linker_0, # of connection points: 2
#     Edge 50, Type (0, 0), BuildingBlock: ZUJKAS_clean_linker_0, # of connection points: 2
#     Edge 51, Type (0, 0), BuildingBlock: ZUJKAS_clean_linker_0, # of connection points: 2
#     Edge 52, Type (0, 0), BuildingBlock: ZUJKAS_clean_linker_0, # of connection points: 2
#     Edge 53, Type (0, 0), BuildingBlock: ZUJKAS_clean_linker_0, # of connection points: 2
#     Edge 54, Type (0, 0), BuildingBlock: ZUJKAS_clean_linker_0, # of connection points: 2
#     Edge 55, Type (0, 0), BuildingBlock: ZUJKAS_clean_linker_0, # of connection points: 2
#     Edge 56, Type (0, 0), BuildingBlock: ZUJKAS_clean_linker_0, # of connection points: 2
#     Edge 57, Type (0, 0), BuildingBlock: ZUJKAS_clean_linker_0, # of connection points: 2
#     Edge 58, Type (0, 0), BuildingBlock: ZUJKAS_clean_linker_0, # of connection points: 2
#     Edge 59, Type (0, 0), BuildingBlock: ZUJKAS_clean_linker_0, # of connection points: 2
#     Edge 60, Type (0, 0), BuildingBlock: ZUJKAS_clean_linker_0, # of connection points: 2
#     Edge 61, Type (0, 0), BuildingBlock: ZUJKAS_clean_linker_0, # of connection points: 2
#     Edge 62, Type (0, 0), BuildingBlock: ZUJKAS_clean_linker_0, # of connection points: 2
#     Edge 63, Type (0, 0), BuildingBlock: ZUJKAS_clean_linker_0, # of connection points: 2
#     Edge 64, Type (0, 0), BuildingBlock: ZUJKAS_clean_linker_0, # of connection points: 2
#     Edge 65, Type (0, 0), BuildingBlock: ZUJKAS_clean_linker_0, # of connection points: 2
#     Edge 66, Type (0, 0), BuildingBlock: ZUJKAS_clean_linker_0, # of connection points: 2
#     Edge 67, Type (0, 0), BuildingBlock: ZUJKAS_clean_linker_0, # of connection points: 2
#     Edge 68, Type (0, 0), BuildingBlock: ZUJKAS_clean_linker_0, # of connection points: 2
#     Edge 69, Type (0, 0), BuildingBlock: ZUJKAS_clean_linker_0, # of connection points: 2
#     Edge 70, Type (0, 0), BuildingBlock: ZUJKAS_clean_linker_0, # of connection points: 2
#     Edge 71, Type (0, 0), BuildingBlock: ZUJKAS_clean_linker_0, # of connection points: 2
# Relax obj value: 0.251
# Max RMSD: 0.307
# Mean RMSD: 0.266
data_MOF--net-hbo--node1-KUFVIS_clean_sbu_0--edge1-ZUJKAS_clean_linker_0
_symmetry_space_group_name_H-M    P1
_symmetry_Int_Tables_number       1
_symmetry_cell_setting            triclinic
loop_
_symmetry_equiv_pos_as_xyz
'x, y, z'
_cell_length_a     66.094771
_cell_length_b     67.664424
_cell_length_c     67.678962
_cell_angle_alpha  91.810026
_cell_angle_beta   89.973638
_cell_angle_gamma 96.172084
loop_
_atom_site_label
_atom_site_type_symbol
_atom_site_fract_x
_atom_site_fract_y
_atom_site_fract_z
_atom_type_partial_charge
Mn0 Mn 0.12758 0.34229 0.25426 0.0
Mn1 Mn 0.12392 0.36722 0.21227 0.0
C2 C 0.15612 0.34922 0.23512 0.0
C3 C 0.12225 0.31237 0.27035 0.0
C4 C 0.1261 0.38693 0.25329 0.0
O5 O 0.09726 0.34179 0.24991 0.0
O6 O 0.09648 0.35496 0.21989 0.0
C7 C 0.11203 0.33306 0.18482 0.0
N8 N 0.12489 0.34954 0.18984 0.0
C9 C 0.14416 0.34636 0.15997 0.0
C10 C 0.13107 0.3294 0.15441 0.0
C11 C 0.115 0.32266 0.16694 0.0
C12 C 0.14056 0.35598 0.17804 0.0
H13 H 0.09959 0.32793 0.19438 0.0
C14 C 0.08769 0.34674 0.23485 0.0
O15 O 0.12257 0.3293 0.27998 0.0
O16 O 0.12538 0.31284 0.25142 0.0
N17 N 0.14908 0.38007 0.20281 0.0
C18 C 0.16066 0.39631 0.21065 0.0
C19 C 0.17754 0.40477 0.20009 0.0
C20 C 0.18207 0.39673 0.18143 0.0
C21 C 0.16978 0.38016 0.17356 0.0
C22 C 0.15323 0.3723 0.1848 0.0
H23 H 0.15704 0.40277 0.22483 0.0
O24 O 0.15779 0.34402 0.25329 0.0
O25 O 0.13768 0.34897 0.22826 0.0
O26 O 0.12913 0.37162 0.26294 0.0
O27 O 0.12322 0.38659 0.23459 0.0
C28 C 0.17328 0.37113 0.155 0.0
C29 C 0.16063 0.35411 0.14831 0.0
H30 H 0.13325 0.3214 0.14058 0.0
H31 H 0.10487 0.30955 0.16278 0.0
H32 H 0.18693 0.41758 0.20624 0.0
H33 H 0.19501 0.40341 0.17327 0.0
H34 H 0.18576 0.37705 0.14581 0.0
H35 H 0.16369 0.34712 0.13417 0.0
Mn36 Mn 0.15653 0.63656 0.72657 0.0
Mn37 Mn 0.15748 0.62789 0.77526 0.0
C38 C 0.1871 0.63923 0.74325 0.0
C39 C 0.15365 0.65864 0.70155 0.0
C40 C 0.15022 0.59528 0.74331 0.0
O41 O 0.12724 0.63785 0.73502 0.0
O42 O 0.13015 0.63513 0.76801 0.0
C43 C 0.15333 0.66841 0.79139 0.0
N44 N 0.164 0.65229 0.79 0.0
C45 C 0.18983 0.66784 0.81216 0.0
C46 C 0.17906 0.68457 0.81392 0.0
C47 C 0.16075 0.68486 0.80345 0.0
C48 C 0.18165 0.65186 0.79997 0.0
H49 H 0.13928 0.66872 0.78332 0.0
C50 C 0.11988 0.63796 0.75247 0.0
O51 O 0.14974 0.63959 0.69821 0.0
O52 O 0.15873 0.66473 0.71938 0.0
N53 N 0.18326 0.62105 0.78412 0.0
C54 C 0.19239 0.60429 0.7799 0.0
C55 C 0.21118 0.60194 0.78872 0.0
C56 C 0.22031 0.61675 0.80186 0.0
C57 C 0.21056 0.63379 0.80608 0.0
C58 C 0.19182 0.63528 0.79692 0.0
H59 H 0.18543 0.59286 0.76983 0.0
O60 O 0.18667 0.63665 0.72418 0.0
O61 O 0.16966 0.64031 0.75182 0.0
O62 O 0.15297 0.6064 0.7285 0.0
O63 O 0.15104 0.60188 0.76124 0.0
C64 C 0.21883 0.64948 0.81881 0.0
C65 C 0.20853 0.66653 0.82178 0.0
H66 H 0.18478 0.69732 0.82315 0.0
H67 H 0.1524 0.69775 0.80466 0.0
H68 H 0.21863 0.58876 0.78536 0.0
H69 H 0.23487 0.61494 0.80852 0.0
H70 H 0.23321 0.64869 0.82625 0.0
H71 H 0.21521 0.67863 0.83134 0.0
Mn72 Mn 0.86351 0.66311 0.25607 0.0
Mn73 Mn 0.87556 0.66219 0.30447 0.0
C74 C 0.86558 0.69202 0.27504 0.0
C75 C 0.83881 0.6575 0.23149 0.0
C76 C 0.90658 0.6613 0.27148 0.0
O77 O 0.85992 0.63395 0.26197 0.0
O78 O 0.86557 0.63476 0.29476 0.0
C79 C 0.83417 0.65167 0.32026 0.0
N80 N 0.85172 0.66421 0.32004 0.0
C81 C 0.83944 0.68526 0.34566 0.0
C82 C 0.82128 0.67251 0.34626 0.0
C83 C 0.81861 0.65568 0.33344 0.0
C84 C 0.85438 0.68052 0.33219 0.0
H85 H 0.83208 0.63872 0.31043 0.0
C86 C 0.86067 0.62543 0.2784 0.0
O87 O 0.85793 0.65656 0.22753 0.0
O88 O 0.83421 0.66215 0.24956 0.0
N89 N 0.88534 0.68756 0.31612 0.0
C90 C 0.90334 0.69885 0.31302 0.0
C91 C 0.90812 0.71653 0.32427 0.0
C92 C 0.8945 0.72226 0.33877 0.0
C93 C 0.87622 0.71025 0.3419 0.0
C94 C 0.87227 0.69281 0.33023 0.0
H95 H 0.91391 0.69446 0.30197 0.0
O96 O 0.86647 0.69269 0.2559 0.0
O97 O 0.86278 0.67442 0.28244 0.0
O98 O 0.89437 0.66292 0.25716 0.0
O99 O 0.90103 0.66051 0.28956 0.0
C100 C 0.86166 0.71499 0.356 0.0
C101 C 0.84321 0.70259 0.35777 0.0
H102 H 0.80923 0.67556 0.3564 0.0
H103 H 0.8046 0.64582 0.33375 0.0
H104 H 0.92227 0.72571 0.32179 0.0
H105 H 0.8982 0.73596 0.34736 0.0
H106 H 0.8644 0.72823 0.36543 0.0
H107 H 0.832 0.70658 0.36843 0.0
Mn108 Mn 0.83697 0.35745 0.73552 0.0
Mn109 Mn 0.86331 0.361 0.69285 0.0
C110 C 0.83854 0.32991 0.71509 0.0
C111 C 0.80761 0.35829 0.75417 0.0
C112 C 0.88337 0.35947 0.73273 0.0
O113 O 0.84001 0.38705 0.73126 0.0
O114 O 0.85796 0.38793 0.70282 0.0
C115 C 0.83117 0.37481 0.6679 0.0
N116 N 0.84447 0.3613 0.67147 0.0
C117 C 0.83358 0.34195 0.6422 0.0
C118 C 0.81986 0.35573 0.63814 0.0
C119 C 0.81863 0.37221 0.65107 0.0
C120 C 0.84575 0.34536 0.65914 0.0
H121 H 0.8301 0.38745 0.67785 0.0
C122 C 0.84918 0.39637 0.71719 0.0
O123 O 0.82552 0.36096 0.76229 0.0
O124 O 0.80682 0.35626 0.73503 0.0
N125 N 0.86938 0.33604 0.68156 0.0
C126 C 0.88278 0.32371 0.68805 0.0
C127 C 0.88563 0.30636 0.67694 0.0
C128 C 0.87477 0.30194 0.65924 0.0
C129 C 0.86109 0.31488 0.65283 0.0
C130 C 0.85906 0.33207 0.66441 0.0
H131 H 0.89118 0.32705 0.70165 0.0
O132 O 0.83473 0.32793 0.73378 0.0
O133 O 0.84135 0.34798 0.7089 0.0
O134 O 0.86698 0.35858 0.74268 0.0
O135 O 0.88385 0.36029 0.71391 0.0
C136 C 0.84925 0.31132 0.63553 0.0
C137 C 0.83545 0.3248 0.63025 0.0
H138 H 0.81009 0.35373 0.62523 0.0
H139 H 0.808 0.38286 0.64809 0.0
H140 H 0.89616 0.29642 0.68201 0.0
H141 H 0.87704 0.28855 0.65072 0.0
H142 H 0.85047 0.29815 0.62627 0.0
H143 H 0.82625 0.32177 0.61704 0.0
Mn144 Mn 0.20941 0.14661 0.37162 0.0
Mn145 Mn 0.25961 0.15406 0.38213 0.0
C146 C 0.23253 0.15011 0.34635 0.0
C147 C 0.17914 0.16056 0.36796 0.0
C148 C 0.23504 0.11348 0.38199 0.0
O149 O 0.20993 0.15318 0.401 0.0
O150 O 0.24356 0.16058 0.40583 0.0
C151 C 0.26262 0.19784 0.3878 0.0
N152 N 0.26875 0.18144 0.37835 0.0
C153 C 0.2923 0.20161 0.35828 0.0
C154 C 0.28634 0.21871 0.36788 0.0
C155 C 0.27139 0.21681 0.38267 0.0
C156 C 0.28295 0.18311 0.36395 0.0
H157 H 0.25108 0.19645 0.39912 0.0
C158 C 0.22514 0.15934 0.41191 0.0
O159 O 0.17897 0.14177 0.37156 0.0
O160 O 0.19667 0.17099 0.36678 0.0
N161 N 0.27731 0.14861 0.36071 0.0
C162 C 0.28176 0.13064 0.35324 0.0
C163 C 0.29656 0.12993 0.33841 0.0
C164 C 0.30688 0.14766 0.33165 0.0
C165 C 0.30251 0.16594 0.33999 0.0
C166 C 0.28769 0.16572 0.3548 0.0
H167 H 0.274 0.11694 0.35846 0.0
O168 O 0.21399 0.14257 0.34281 0.0
O169 O 0.23673 0.15638 0.3644 0.0
O170 O 0.21806 0.11903 0.37652 0.0
O171 O 0.2511 0.12545 0.38543 0.0
C172 C 0.31231 0.18438 0.33422 0.0
C173 C 0.3071 0.20221 0.34325 0.0
H174 H 0.29309 0.23337 0.36398 0.0
H175 H 0.26665 0.22993 0.39009 0.0
H176 H 0.29998 0.11574 0.33218 0.0
H177 H 0.31818 0.14706 0.32011 0.0
H178 H 0.32384 0.18501 0.32282 0.0
H179 H 0.31463 0.2163 0.33857 0.0
Mn180 Mn 0.37506 0.77751 0.84635 0.0
Mn181 Mn 0.38354 0.73243 0.86253 0.0
C182 C 0.35187 0.75006 0.83975 0.0
C183 C 0.37794 0.80192 0.82285 0.0
C184 C 0.36798 0.76437 0.88883 0.0
O185 O 0.40523 0.78149 0.85288 0.0
O186 O 0.40907 0.75076 0.86318 0.0
C187 C 0.4098 0.72085 0.82961 0.0
N188 N 0.39287 0.717 0.84092 0.0
C189 C 0.38366 0.68586 0.82337 0.0
C190 C 0.40104 0.68944 0.81159 0.0
C191 C 0.41413 0.70705 0.81468 0.0
C192 C 0.38007 0.70021 0.83793 0.0
H193 H 0.41992 0.73435 0.83197 0.0
C194 C 0.41605 0.76868 0.85958 0.0
O195 O 0.37457 0.8062 0.84131 0.0
O196 O 0.38055 0.7836 0.81824 0.0
N197 N 0.36028 0.71301 0.86268 0.0
C198 C 0.34395 0.71203 0.87503 0.0
C199 C 0.32943 0.69529 0.87394 0.0
C200 C 0.33198 0.67966 0.86035 0.0
C201 C 0.3489 0.681 0.84776 0.0
C202 C 0.36294 0.69798 0.84963 0.0
H203 H 0.34203 0.7239 0.88567 0.0
O204 O 0.3463 0.76785 0.8394 0.0
O205 O 0.37091 0.74879 0.84371 0.0
O206 O 0.36801 0.77746 0.87571 0.0
O207 O 0.3735 0.74707 0.88547 0.0
C208 C 0.35243 0.66616 0.83348 0.0
C209 C 0.3697 0.66866 0.82119 0.0
H210 H 0.40446 0.67881 0.80009 0.0
H211 H 0.42755 0.70995 0.80562 0.0
H212 H 0.31638 0.69437 0.88367 0.0
H213 H 0.32089 0.66666 0.85978 0.0
H214 H 0.34191 0.6528 0.83175 0.0
H215 H 0.37212 0.65724 0.81012 0.0
Mn216 Mn 0.74163 0.86256 0.34761 0.0
Mn217 Mn 0.69184 0.8665 0.35561 0.0
C218 C 0.71812 0.85259 0.32329 0.0
C219 C 0.76976 0.84502 0.34987 0.0
C220 C 0.72274 0.90155 0.34682 0.0
O221 O 0.74 0.86609 0.37733 0.0
O222 O 0.70609 0.86561 0.38143 0.0
C223 C 0.67984 0.82749 0.37325 0.0
N224 N 0.67747 0.84076 0.35893 0.0
C225 C 0.65063 0.8188 0.34344 0.0
C226 C 0.65268 0.80497 0.35811 0.0
C227 C 0.66737 0.80933 0.37306 0.0
C228 C 0.66337 0.83673 0.34449 0.0
H229 H 0.69118 0.83072 0.38471 0.0
C230 C 0.72424 0.86585 0.38824 0.0
O231 O 0.77182 0.86423 0.34847 0.0
O232 O 0.75137 0.83612 0.35036 0.0
N233 N 0.67645 0.86699 0.33171 0.0
C234 C 0.67738 0.88129 0.31791 0.0
C235 C 0.66412 0.8789 0.3016 0.0
C236 C 0.65002 0.86188 0.29968 0.0
C237 C 0.64933 0.84736 0.31406 0.0
C238 C 0.66279 0.85064 0.33009 0.0
H239 H 0.68821 0.89439 0.31927 0.0
O240 O 0.73714 0.85695 0.31879 0.0
O241 O 0.71353 0.85404 0.34189 0.0
O242 O 0.73782 0.89159 0.34418 0.0
O243 O 0.70509 0.89378 0.35185 0.0
C244 C 0.63608 0.8296 0.31294 0.0
C245 C 0.63675 0.81532 0.3276 0.0
H246 H 0.64319 0.79087 0.35793 0.0
H247 H 0.66912 0.79867 0.38436 0.0
H248 H 0.6648 0.89013 0.29051 0.0
H249 H 0.63989 0.86006 0.28702 0.0
H250 H 0.62548 0.82665 0.30073 0.0
H251 H 0.6267 0.80159 0.32641 0.0
Mn252 Mn 0.62187 0.21191 0.84449 0.0
Mn253 Mn 0.61668 0.25867 0.86064 0.0
C254 C 0.64841 0.23672 0.841 0.0
C255 C 0.61717 0.18729 0.81974 0.0
C256 C 0.62294 0.22479 0.8877 0.0
O257 O 0.59131 0.21179 0.84871 0.0
O258 O 0.58953 0.24465 0.85425 0.0
C259 C 0.60172 0.27509 0.82403 0.0
N260 N 0.6156 0.27596 0.83899 0.0
C261 C 0.63351 0.3059 0.82669 0.0
C262 C 0.6193 0.30544 0.81126 0.0
C263 C 0.6034 0.2899 0.80987 0.0
C264 C 0.63112 0.29068 0.8403 0.0
H265 H 0.58952 0.26315 0.82291 0.0
C266 C 0.58129 0.22681 0.85111 0.0
O267 O 0.61902 0.18285 0.83813 0.0
O268 O 0.61758 0.20598 0.81583 0.0
N269 N 0.642 0.27394 0.86718 0.0
C270 C 0.65498 0.27169 0.88239 0.0
C271 C 0.67207 0.28566 0.88547 0.0
C272 C 0.67549 0.30194 0.87307 0.0
C273 C 0.66178 0.30408 0.85768 0.0
C274 C 0.64503 0.28968 0.85531 0.0
H275 H 0.65234 0.25932 0.89209 0.0
O276 O 0.65182 0.21819 0.83999 0.0
O277 O 0.62962 0.24005 0.8435 0.0
O278 O 0.62635 0.21201 0.87424 0.0
O279 O 0.61811 0.24213 0.88411 0.0
C280 C 0.66414 0.31988 0.84453 0.0
C281 C 0.65009 0.32073 0.82897 0.0
H282 H 0.62054 0.31684 0.80031 0.0
H283 H 0.59245 0.28937 0.79793 0.0
H284 H 0.68256 0.28392 0.8974 0.0
H285 H 0.68872 0.31266 0.87545 0.0
H286 H 0.67691 0.33129 0.84606 0.0
H287 H 0.6523 0.33275 0.81872 0.0
Mn288 Mn 0.26559 0.86129 0.63155 0.0
Mn289 Mn 0.22215 0.85469 0.60465 0.0
C290 C 0.24718 0.83047 0.62912 0.0
C291 C 0.28343 0.86998 0.66064 0.0
C292 C 0.26397 0.85584 0.58647 0.0
O293 O 0.25913 0.88954 0.62805 0.0
O294 O 0.23057 0.88347 0.6098 0.0
C295 C 0.19524 0.86964 0.63539 0.0
N296 N 0.19971 0.85493 0.62244 0.0
C297 C 0.1695 0.83412 0.63144 0.0
C298 C 0.16451 0.8491 0.64479 0.0
C299 C 0.17749 0.8669 0.64683 0.0
C300 C 0.18747 0.83764 0.62055 0.0
H301 H 0.20515 0.88337 0.63699 0.0
C302 C 0.24431 0.89534 0.61859 0.0
O303 O 0.29235 0.87086 0.64356 0.0
O304 O 0.26396 0.86459 0.66077 0.0
N305 N 0.21162 0.82777 0.59833 0.0
C306 C 0.21859 0.81482 0.58476 0.0
C307 C 0.20739 0.79624 0.58102 0.0
C308 C 0.18895 0.79132 0.59095 0.0
C309 C 0.18181 0.80509 0.60443 0.0
C310 C 0.19363 0.82337 0.60757 0.0
H311 H 0.23266 0.81858 0.57697 0.0
O312 O 0.26627 0.83218 0.63403 0.0
O313 O 0.23913 0.84689 0.62632 0.0
O314 O 0.27387 0.8592 0.60259 0.0
O315 O 0.24454 0.85372 0.58547 0.0
C316 C 0.16343 0.8014 0.61492 0.0
C317 C 0.15737 0.81583 0.62853 0.0
H318 H 0.15079 0.84707 0.65359 0.0
H319 H 0.17378 0.87851 0.65715 0.0
H320 H 0.21295 0.78574 0.5705 0.0
H321 H 0.1804 0.77694 0.58808 0.0
H322 H 0.15387 0.78747 0.61269 0.0
H323 H 0.14333 0.81272 0.63665 0.0
Mn324 Mn 0.65408 0.71025 0.1313 0.0
Mn325 Mn 0.65585 0.75986 0.12704 0.0
C326 C 0.65314 0.73018 0.15931 0.0
C327 C 0.67237 0.68301 0.1325 0.0
C328 C 0.61816 0.73105 0.11835 0.0
O329 O 0.66274 0.71489 0.10299 0.0
O330 O 0.66821 0.74833 0.10313 0.0
C331 C 0.70043 0.77047 0.12907 0.0
N332 N 0.68149 0.77255 0.13621 0.0
C333 C 0.69504 0.79652 0.16112 0.0
C334 C 0.71469 0.79473 0.15396 0.0
C335 C 0.7174 0.7816 0.1379 0.0
C336 C 0.67872 0.78506 0.15171 0.0
H337 H 0.70256 0.76035 0.11676 0.0
C338 C 0.66888 0.73114 0.0948 0.0
O339 O 0.65343 0.68076 0.12691 0.0
O340 O 0.68046 0.70077 0.13728 0.0
N341 N 0.64446 0.77301 0.14919 0.0
C342 C 0.62461 0.77235 0.15484 0.0
C343 C 0.61932 0.78442 0.17087 0.0
C344 C 0.63444 0.79714 0.18082 0.0
C345 C 0.65475 0.79764 0.17469 0.0
C346 C 0.65908 0.78543 0.15848 0.0
H347 H 0.6129 0.7627 0.14718 0.0
O348 O 0.64741 0.71127 0.16003 0.0
O349 O 0.6599 0.73662 0.1424 0.0
O350 O 0.62504 0.71531 0.12426 0.0
O351 O 0.62875 0.748 0.11778 0.0
C352 C 0.67089 0.80959 0.18416 0.0
C353 C 0.69103 0.80897 0.17743 0.0
H354 H 0.72783 0.80323 0.16077 0.0
H355 H 0.73253 0.78006 0.13235 0.0
H356 H 0.60361 0.78394 0.17552 0.0
H357 H 0.63027 0.80643 0.19316 0.0
H358 H 0.66802 0.81912 0.19679 0.0
H359 H 0.70335 0.81801 0.18501 0.0
Mn360 Mn 0.73548 0.11202 0.63957 0.0
Mn361 Mn 0.78441 0.11932 0.62456 0.0
C362 C 0.75235 0.14358 0.64032 0.0
C363 C 0.71151 0.10459 0.66409 0.0
C364 C 0.7486 0.11276 0.59631 0.0
O365 O 0.74422 0.08423 0.63909 0.0
O366 O 0.77709 0.09092 0.63045 0.0
C367 C 0.80408 0.11112 0.66227 0.0
N368 N 0.80181 0.12354 0.64717 0.0
C369 C 0.82751 0.14803 0.66083 0.0
C370 C 0.83022 0.13546 0.67648 0.0
C371 C 0.8184 0.11696 0.67723 0.0
C372 C 0.81297 0.14144 0.64639 0.0
H373 H 0.79504 0.09687 0.66287 0.0
C374 C 0.76177 0.07887 0.63533 0.0
O375 O 0.70684 0.10178 0.6455 0.0
O376 O 0.73025 0.11103 0.66837 0.0
N377 N 0.79392 0.14611 0.61834 0.0
C378 C 0.78888 0.15677 0.60266 0.0
C379 C 0.79902 0.17581 0.59997 0.0
C380 C 0.81444 0.18356 0.61321 0.0
C381 C 0.81957 0.17219 0.62906 0.0
C382 C 0.80894 0.15331 0.63099 0.0
H383 H 0.77716 0.1508 0.59234 0.0
O384 O 0.73263 0.14099 0.64037 0.0
O385 O 0.76171 0.12761 0.64036 0.0
O386 O 0.73469 0.11144 0.60939 0.0
O387 O 0.7676 0.11551 0.60039 0.0
C388 C 0.83467 0.17891 0.64314 0.0
C389 C 0.83853 0.1669 0.65909 0.0
H390 H 0.84125 0.1399 0.68805 0.0
H391 H 0.82035 0.1072 0.6893 0.0
H392 H 0.79499 0.18449 0.58768 0.0
H393 H 0.82219 0.19827 0.6111 0.0
H394 H 0.8433 0.19336 0.64196 0.0
H395 H 0.84997 0.17236 0.66997 0.0
Mn396 Mn 0.33189 0.24669 0.15096 0.0
Mn397 Mn 0.32795 0.19817 0.13714 0.0
C398 C 0.32841 0.22308 0.17456 0.0
C399 C 0.31545 0.27501 0.15577 0.0
C400 C 0.36784 0.22497 0.13813 0.0
O401 O 0.32648 0.24667 0.12163 0.0
O402 O 0.32052 0.21387 0.11434 0.0
C403 C 0.28326 0.19185 0.13181 0.0
N404 N 0.30042 0.18708 0.14082 0.0
C405 C 0.281 0.1631 0.16078 0.0
C406 C 0.26314 0.16765 0.15159 0.0
C407 C 0.26428 0.18209 0.13705 0.0
C408 C 0.29949 0.17323 0.15486 0.0
H409 H 0.28405 0.2031 0.12078 0.0
C410 C 0.32134 0.23214 0.10962 0.0
O411 O 0.33494 0.27643 0.15251 0.0
O412 O 0.30582 0.25732 0.15629 0.0
N413 N 0.33452 0.18123 0.15779 0.0
C414 C 0.35314 0.17878 0.16541 0.0
C415 C 0.35465 0.16487 0.18016 0.0
C416 C 0.33705 0.15358 0.18686 0.0
C417 C 0.3181 0.15612 0.17857 0.0
C418 C 0.31757 0.16998 0.16369 0.0
H419 H 0.36671 0.18745 0.16036 0.0
O420 O 0.33503 0.24132 0.17945 0.0
O421 O 0.32328 0.2195 0.15616 0.0
O422 O 0.36088 0.24042 0.1456 0.0
O423 O 0.35682 0.20871 0.13362 0.0
C424 C 0.2997 0.14563 0.18465 0.0
C425 C 0.28116 0.14916 0.1758 0.0
H426 H 0.24845 0.16024 0.15568 0.0
H427 H 0.25054 0.18577 0.12998 0.0
H428 H 0.36934 0.16295 0.18645 0.0
H429 H 0.33825 0.14305 0.19842 0.0
H430 H 0.29961 0.13494 0.19624 0.0
H431 H 0.26708 0.14115 0.18074 0.0
Mn432 Mn 0.87243 0.65027 0.7239 0.0
Mn433 Mn 0.86673 0.63959 0.77205 0.0
C434 C 0.84072 0.64939 0.73786 0.0
C435 C 0.88191 0.67373 0.70038 0.0
C436 C 0.871 0.60858 0.73943 0.0
O437 O 0.90117 0.65262 0.73453 0.0
O438 O 0.89572 0.64944 0.76714 0.0
C439 C 0.87458 0.6804 0.78937 0.0
N440 N 0.86215 0.66309 0.78703 0.0
C441 C 0.83671 0.67544 0.80813 0.0
C442 C 0.84929 0.69337 0.81088 0.0
C443 C 0.86828 0.69587 0.80141 0.0
C444 C 0.84379 0.66057 0.79595 0.0
H445 H 0.88916 0.68238 0.78207 0.0
C446 C 0.90749 0.65286 0.75231 0.0
O447 O 0.88292 0.65491 0.69663 0.0
O448 O 0.87545 0.67878 0.71773 0.0
N449 N 0.83955 0.62984 0.7792 0.0
C450 C 0.82908 0.61179 0.77469 0.0
C451 C 0.80981 0.60687 0.78304 0.0
C452 C 0.8016 0.62046 0.79606 0.0
C453 C 0.81269 0.63889 0.80056 0.0
C454 C 0.83193 0.64286 0.79201 0.0
H455 H 0.83538 0.6012 0.76485 0.0
O456 O 0.84265 0.64854 0.71877 0.0
O457 O 0.8575 0.65173 0.74815 0.0
O458 O 0.87071 0.62008 0.7249 0.0
O459 O 0.87077 0.61448 0.75756 0.0
C460 C 0.80536 0.65352 0.8131 0.0
C461 C 0.81732 0.67183 0.8168 0.0
H462 H 0.84447 0.70536 0.82012 0.0
H463 H 0.87803 0.7097 0.80338 0.0
H464 H 0.80135 0.59261 0.77951 0.0
H465 H 0.7868 0.61654 0.80256 0.0
H466 H 0.79046 0.65094 0.81981 0.0
H467 H 0.81143 0.68306 0.82629 0.0
Mn468 Mn 0.83678 0.37255 0.26326 0.0
Mn469 Mn 0.84292 0.38442 0.2154 0.0
C470 C 0.80911 0.36998 0.24238 0.0
C471 C 0.83709 0.34959 0.2879 0.0
C472 C 0.84268 0.41505 0.24905 0.0
O473 O 0.86712 0.37273 0.2592 0.0
O474 O 0.86939 0.37877 0.22669 0.0
C475 C 0.85295 0.3455 0.19923 0.0
N476 N 0.84097 0.36066 0.19917 0.0
C477 C 0.82076 0.34494 0.17233 0.0
C478 C 0.83297 0.32922 0.17202 0.0
C479 C 0.8491 0.32948 0.18557 0.0
C480 C 0.82535 0.36052 0.18626 0.0
H481 H 0.86535 0.34561 0.20963 0.0
C482 C 0.87723 0.37476 0.24322 0.0
O483 O 0.83968 0.36856 0.29206 0.0
O484 O 0.83453 0.34406 0.26945 0.0
N485 N 0.81845 0.38988 0.20249 0.0
C486 C 0.80743 0.40561 0.20545 0.0
C487 C 0.79037 0.40725 0.19349 0.0
C488 C 0.78494 0.39283 0.17849 0.0
C489 C 0.79664 0.37689 0.17559 0.0
C490 C 0.8135 0.37606 0.18794 0.0
H491 H 0.81155 0.41676 0.21693 0.0
O492 O 0.80658 0.37135 0.26137 0.0
O493 O 0.82772 0.36984 0.23622 0.0
O494 O 0.83937 0.40274 0.26283 0.0
O495 O 0.84465 0.40982 0.2309 0.0
C496 C 0.79207 0.36164 0.16111 0.0
C497 C 0.80405 0.34562 0.15955 0.0
H498 H 0.83001 0.31681 0.16155 0.0
H499 H 0.85853 0.31736 0.18549 0.0
H500 H 0.78141 0.41959 0.19583 0.0
H501 H 0.7717 0.39408 0.16938 0.0
H502 H 0.77925 0.36196 0.1512 0.0
H503 H 0.80018 0.33383 0.14856 0.0
Mn504 Mn 0.12072 0.34946 0.77049 0.0
Mn505 Mn 0.12266 0.37703 0.81303 0.0
C506 C 0.15153 0.35844 0.78572 0.0
C507 C 0.11551 0.31864 0.75406 0.0
C508 C 0.1186 0.39434 0.77267 0.0
O509 O 0.09147 0.34734 0.77933 0.0
O510 O 0.09421 0.36485 0.80821 0.0
C511 C 0.11368 0.3444 0.84088 0.0
N512 N 0.12613 0.36038 0.83477 0.0
C513 C 0.14936 0.35781 0.8617 0.0
C514 C 0.13672 0.34139 0.86837 0.0
C515 C 0.11884 0.33462 0.85786 0.0
C516 C 0.14343 0.36693 0.84467 0.0
H517 H 0.09992 0.33919 0.83285 0.0
C518 C 0.08378 0.35429 0.79497 0.0
O519 O 0.11264 0.33489 0.74524 0.0
O520 O 0.12122 0.32033 0.77243 0.0
N521 N 0.14907 0.38983 0.81981 0.0
C522 C 0.16009 0.40519 0.81082 0.0
C523 C 0.1787 0.41338 0.81915 0.0
C524 C 0.18562 0.4059 0.83675 0.0
C525 C 0.17391 0.39021 0.84582 0.0
C526 C 0.1555 0.38264 0.83683 0.0
H527 H 0.15476 0.4111 0.79738 0.0
O528 O 0.15069 0.35295 0.76716 0.0
O529 O 0.13425 0.35782 0.79509 0.0
O530 O 0.11911 0.37818 0.76254 0.0
O531 O 0.11956 0.3954 0.79153 0.0
C532 C 0.17987 0.38165 0.86331 0.0
C533 C 0.16768 0.36537 0.87116 0.0
H534 H 0.14065 0.3338 0.88145 0.0
H535 H 0.10906 0.32191 0.86287 0.0
H536 H 0.18765 0.42549 0.81206 0.0
H537 H 0.19996 0.41229 0.84314 0.0
H538 H 0.1939 0.38735 0.87073 0.0
H539 H 0.1726 0.35871 0.88444 0.0
Mn540 Mn 0.15648 0.63114 0.26299 0.0
Mn541 Mn 0.14643 0.60911 0.21821 0.0
C542 C 0.18234 0.62879 0.24057 0.0
C543 C 0.15876 0.65949 0.28338 0.0
C544 C 0.14892 0.58637 0.25598 0.0
O545 O 0.12587 0.63033 0.26068 0.0
O546 O 0.12093 0.6179 0.22953 0.0
C547 C 0.13584 0.64382 0.19637 0.0
N548 N 0.14765 0.6287 0.19838 0.0
C549 C 0.16669 0.63795 0.16917 0.0
C550 C 0.15464 0.65354 0.16671 0.0
C551 C 0.13917 0.6565 0.18039 0.0
C552 C 0.16256 0.6257 0.1853 0.0
H553 H 0.124 0.64621 0.2069 0.0
C554 C 0.11448 0.62524 0.24576 0.0
O555 O 0.15627 0.64187 0.29071 0.0
O556 O 0.15934 0.66053 0.26429 0.0
N557 N 0.16993 0.60027 0.20559 0.0
C558 C 0.18104 0.5854 0.2108 0.0
C559 C 0.19758 0.58099 0.19903 0.0
C560 C 0.20245 0.59183 0.182 0.0
C561 C 0.19071 0.60697 0.17686 0.0
C562 C 0.17433 0.61061 0.18908 0.0
H563 H 0.17741 0.57706 0.22391 0.0
O564 O 0.18643 0.63152 0.25927 0.0
O565 O 0.16326 0.62774 0.2356 0.0
O566 O 0.15384 0.60135 0.26751 0.0
O567 O 0.14535 0.58775 0.23753 0.0
C568 C 0.19485 0.61882 0.1603 0.0
C569 C 0.18289 0.63434 0.15648 0.0
H570 H 0.15725 0.66344 0.15448 0.0
H571 H 0.12988 0.66856 0.17865 0.0
H572 H 0.20659 0.56932 0.20313 0.0
H573 H 0.21533 0.58851 0.17306 0.0
H574 H 0.20738 0.6163 0.15054 0.0
H575 H 0.18643 0.64355 0.14388 0.0
Mn576 Mn 0.78028 0.82925 0.6248 0.0
Mn577 Mn 0.73008 0.83361 0.62952 0.0
C578 C 0.76601 0.82907 0.65577 0.0
C579 C 0.8057 0.80888 0.61801 0.0
C580 C 0.7619 0.86857 0.62315 0.0
O581 O 0.76963 0.8252 0.59682 0.0
O582 O 0.73607 0.82544 0.60187 0.0
C583 C 0.71536 0.79096 0.62372 0.0
N584 N 0.71622 0.80812 0.6349 0.0
C585 C 0.69446 0.79236 0.65963 0.0
C586 C 0.69323 0.77453 0.64834 0.0
C587 C 0.70379 0.77381 0.63034 0.0
C588 C 0.70636 0.8089 0.65235 0.0
H589 H 0.72346 0.79038 0.60989 0.0
C590 C 0.75135 0.82363 0.5906 0.0
O591 O 0.80867 0.82788 0.6152 0.0
O592 O 0.78804 0.80189 0.62463 0.0
N593 N 0.72139 0.84158 0.65524 0.0
C594 C 0.72401 0.85999 0.66423 0.0
C595 C 0.71402 0.86339 0.68214 0.0
C596 C 0.70122 0.84794 0.69044 0.0
C597 C 0.69866 0.82917 0.68088 0.0
C598 C 0.70878 0.82673 0.66294 0.0
H599 H 0.73353 0.87203 0.65774 0.0
O600 O 0.78559 0.83224 0.65371 0.0
O601 O 0.75539 0.82496 0.63966 0.0
O602 O 0.7775 0.85897 0.6235 0.0
O603 O 0.74358 0.86044 0.62461 0.0
C604 C 0.68639 0.81279 0.68839 0.0
C605 C 0.68443 0.79435 0.67785 0.0
H606 H 0.68428 0.76129 0.65336 0.0
H607 H 0.70298 0.76009 0.62158 0.0
H608 H 0.71602 0.87795 0.68941 0.0
H609 H 0.69326 0.8507 0.70407 0.0
H610 H 0.67852 0.81419 0.70232 0.0
H611 H 0.67509 0.78182 0.68385 0.0
Mn612 Mn 0.62522 0.23535 0.13424 0.0
Mn613 Mn 0.61924 0.27802 0.11152 0.0
C614 C 0.6503 0.26174 0.13619 0.0
C615 C 0.62131 0.21567 0.16183 0.0
C616 C 0.63047 0.241 0.08982 0.0
O617 O 0.59493 0.23294 0.12917 0.0
O618 O 0.59237 0.26199 0.11432 0.0
C619 C 0.59601 0.29702 0.14288 0.0
N620 N 0.61253 0.29749 0.1308 0.0
C621 C 0.62572 0.32978 0.14392 0.0
C622 C 0.60878 0.3297 0.15642 0.0
C623 C 0.59389 0.31323 0.15592 0.0
C624 C 0.62697 0.31325 0.13119 0.0
H625 H 0.58456 0.28436 0.1426 0.0
C626 C 0.58462 0.24533 0.121 0.0
O627 O 0.6235 0.20784 0.14428 0.0
O628 O 0.62076 0.23476 0.16316 0.0
N629 N 0.64399 0.295 0.10807 0.0
C630 C 0.65995 0.29223 0.09591 0.0
C631 C 0.67636 0.30717 0.09494 0.0
C632 C 0.67616 0.32481 0.10641 0.0
C633 C 0.65959 0.32731 0.11885 0.0
C634 C 0.64357 0.31199 0.11905 0.0
H635 H 0.66022 0.27868 0.08712 0.0
O636 O 0.6547 0.24379 0.13897 0.0
O637 O 0.6314 0.26366 0.13228 0.0
O638 O 0.6304 0.23005 0.10481 0.0
O639 O 0.62661 0.2591 0.09074 0.0
C640 C 0.65845 0.34427 0.13125 0.0
C641 C 0.64157 0.34548 0.14383 0.0
H642 H 0.60713 0.34213 0.16656 0.0
H643 H 0.58082 0.31301 0.16558 0.0
H644 H 0.68915 0.30509 0.0854 0.0
H645 H 0.68886 0.33628 0.10561 0.0
H646 H 0.67058 0.35639 0.1314 0.0
H647 H 0.641 0.35847 0.15349 0.0
Mn648 Mn 0.21938 0.14043 0.65521 0.0
Mn649 Mn 0.26703 0.13777 0.63829 0.0
C650 C 0.24491 0.13566 0.67706 0.0
C651 C 0.19468 0.16054 0.66531 0.0
C652 C 0.2333 0.10371 0.63455 0.0
O653 O 0.2184 0.15058 0.62747 0.0
O654 O 0.25127 0.15117 0.61866 0.0
C655 C 0.28163 0.1807 0.63953 0.0
N656 N 0.28374 0.16184 0.64502 0.0
C657 C 0.3146 0.17282 0.66284 0.0
C658 C 0.31283 0.19236 0.65729 0.0
C659 C 0.29623 0.19632 0.64564 0.0
C660 C 0.29958 0.15788 0.65632 0.0
H661 H 0.26889 0.18379 0.63057 0.0
C662 C 0.23291 0.15464 0.61539 0.0
O663 O 0.1896 0.14251 0.65845 0.0
O664 O 0.21393 0.16661 0.66633 0.0
N665 N 0.28415 0.12529 0.65574 0.0
C666 C 0.28289 0.10588 0.66088 0.0
C667 C 0.29793 0.09959 0.67314 0.0
C668 C 0.31423 0.11322 0.67975 0.0
C669 C 0.31531 0.13307 0.6741 0.0
C670 C 0.29986 0.13849 0.66191 0.0
H671 H 0.27045 0.09532 0.65574 0.0
O672 O 0.22597 0.13165 0.68198 0.0
O673 O 0.24832 0.14318 0.65975 0.0
O674 O 0.21966 0.11196 0.64414 0.0
O675 O 0.25107 0.11227 0.63105 0.0
C676 C 0.33097 0.14774 0.68028 0.0
C677 C 0.33054 0.16763 0.67479 0.0
H678 H 0.32405 0.20445 0.66199 0.0
H679 H 0.29471 0.21137 0.64137 0.0
H680 H 0.29698 0.08425 0.67744 0.0
H681 H 0.32578 0.10832 0.68924 0.0
H682 H 0.34329 0.14393 0.68947 0.0
H683 H 0.34246 0.17883 0.67996 0.0
Mn684 Mn 0.36646 0.75293 0.12868 0.0
Mn685 Mn 0.36685 0.70883 0.10388 0.0
C686 C 0.33997 0.72815 0.13206 0.0
C687 C 0.37398 0.7743 0.15588 0.0
C688 C 0.35633 0.74619 0.08477 0.0
O689 O 0.39616 0.75301 0.12091 0.0
O690 O 0.39476 0.723 0.10507 0.0
C691 C 0.39098 0.68868 0.13241 0.0
N692 N 0.37365 0.68915 0.12163 0.0
C693 C 0.35953 0.65756 0.13373 0.0
C694 C 0.37727 0.65668 0.14489 0.0
C695 C 0.39303 0.67234 0.14426 0.0
C696 C 0.35835 0.67422 0.1222 0.0
H697 H 0.40311 0.70069 0.13196 0.0
C698 C 0.40444 0.73938 0.11147 0.0
O699 O 0.37077 0.78096 0.13853 0.0
O700 O 0.37372 0.75516 0.15727 0.0
N701 N 0.34087 0.69349 0.10165 0.0
C702 C 0.32444 0.69705 0.09067 0.0
C703 C 0.30732 0.68286 0.08972 0.0
C704 C 0.30732 0.66513 0.09995 0.0
C705 C 0.32434 0.66186 0.11128 0.0
C706 C 0.34106 0.67643 0.11146 0.0
H707 H 0.32441 0.71058 0.08265 0.0
O708 O 0.33726 0.7466 0.13584 0.0
O709 O 0.35808 0.72471 0.12643 0.0
O710 O 0.35862 0.75747 0.10018 0.0
O711 O 0.35918 0.72784 0.08451 0.0
C712 C 0.32533 0.64478 0.12248 0.0
C713 C 0.34287 0.64269 0.13378 0.0
H714 H 0.3789 0.64413 0.15408 0.0
H715 H 0.40673 0.67181 0.15289 0.0
H716 H 0.29421 0.68551 0.08102 0.0
H717 H 0.29416 0.65413 0.09896 0.0
H718 H 0.31262 0.63327 0.12267 0.0
H719 H 0.34335 0.62961 0.14253 0.0
Mn720 Mn 0.73778 0.15049 0.35247 0.0
Mn721 Mn 0.78553 0.14286 0.36555 0.0
C722 C 0.76103 0.17721 0.36099 0.0
C723 C 0.71429 0.15386 0.3276 0.0
C724 C 0.7493 0.13667 0.39304 0.0
O725 O 0.73966 0.12196 0.34358 0.0
O726 O 0.7723 0.11889 0.35107 0.0
C727 C 0.80343 0.14112 0.32553 0.0
N728 N 0.80366 0.14931 0.34417 0.0
C729 C 0.83441 0.17044 0.33765 0.0
C730 C 0.83459 0.16217 0.3184 0.0
C731 C 0.81897 0.14751 0.31229 0.0
C732 C 0.81847 0.16358 0.35014 0.0
H733 H 0.79151 0.12978 0.32082 0.0
C734 C 0.75494 0.11203 0.34388 0.0
O735 O 0.70844 0.14778 0.34492 0.0
O736 O 0.73368 0.15808 0.32488 0.0
N737 N 0.80047 0.16464 0.37964 0.0
C738 C 0.79751 0.17177 0.39836 0.0
C739 C 0.81147 0.18693 0.40654 0.0
C740 C 0.82851 0.19432 0.39555 0.0
C741 C 0.83137 0.18657 0.37641 0.0
C742 C 0.81687 0.17158 0.36899 0.0
H743 H 0.78456 0.16596 0.40695 0.0
O744 O 0.74167 0.179 0.3612 0.0
O745 O 0.76627 0.16001 0.35504 0.0
O746 O 0.73603 0.14206 0.38123 0.0
O747 O 0.76803 0.13624 0.38851 0.0
C748 C 0.84796 0.19319 0.36436 0.0
C749 C 0.84938 0.18529 0.34493 0.0
H750 H 0.84658 0.16701 0.30817 0.0
H751 H 0.81896 0.14109 0.29743 0.0
H752 H 0.80918 0.19282 0.42133 0.0
H753 H 0.83928 0.20598 0.40193 0.0
H754 H 0.85962 0.20451 0.36981 0.0
H755 H 0.86201 0.19077 0.33569 0.0
Mn756 Mn 0.33161 0.25193 0.86211 0.0
Mn757 Mn 0.35483 0.29753 0.87453 0.0
C758 C 0.31516 0.27938 0.85666 0.0
C759 C 0.32713 0.22521 0.83972 0.0
C760 C 0.33446 0.26932 0.90423 0.0
O761 O 0.36074 0.24707 0.86625 0.0
O762 O 0.3756 0.27818 0.87216 0.0
C763 C 0.37816 0.30508 0.8377 0.0
N764 N 0.36434 0.31062 0.85115 0.0
C765 C 0.35966 0.33999 0.8333 0.0
C766 C 0.37396 0.33468 0.81933 0.0
C767 C 0.38322 0.31714 0.82153 0.0
C768 C 0.35533 0.32746 0.84918 0.0
H769 H 0.38523 0.29155 0.83928 0.0
C770 C 0.37635 0.25942 0.86952 0.0
O771 O 0.32373 0.22285 0.85845 0.0
O772 O 0.33301 0.24307 0.8341 0.0
N773 N 0.33684 0.31781 0.87718 0.0
C774 C 0.32263 0.32029 0.89139 0.0
C775 C 0.31152 0.33683 0.89097 0.0
C776 C 0.31526 0.35075 0.87609 0.0
C777 C 0.33019 0.34807 0.86182 0.0
C778 C 0.34088 0.33136 0.86306 0.0
H779 H 0.31962 0.30961 0.90283 0.0
O780 O 0.30502 0.26188 0.8573 0.0
O781 O 0.33486 0.28025 0.85857 0.0
O782 O 0.32798 0.2555 0.89186 0.0
O783 O 0.34502 0.28537 0.89939 0.0
C784 C 0.33455 0.36106 0.84615 0.0
C785 C 0.34925 0.35701 0.83189 0.0
H786 H 0.37781 0.34388 0.80677 0.0
H787 H 0.39419 0.31289 0.81075 0.0
H788 H 0.30002 0.33879 0.90204 0.0
H789 H 0.30649 0.36337 0.87568 0.0
H790 H 0.32647 0.37405 0.84476 0.0
H791 H 0.35228 0.36697 0.81976 0.0
Mn792 Mn 0.27867 0.86907 0.35052 0.0
Mn793 Mn 0.23482 0.87228 0.37552 0.0
C794 C 0.25583 0.84114 0.35434 0.0
C795 C 0.29805 0.87025 0.32182 0.0
C796 C 0.27519 0.8705 0.39566 0.0
O797 O 0.27681 0.89893 0.35149 0.0
O798 O 0.24779 0.89896 0.369 0.0
C799 C 0.21169 0.88698 0.3426 0.0
N800 N 0.21346 0.87337 0.35673 0.0
C801 C 0.18071 0.85615 0.34833 0.0
C802 C 0.17848 0.87002 0.33373 0.0
C803 C 0.19409 0.88545 0.33079 0.0
C804 C 0.1987 0.8583 0.35945 0.0
H805 H 0.2236 0.89893 0.3404 0.0
C806 C 0.26317 0.90785 0.36028 0.0
O807 O 0.30647 0.87274 0.33916 0.0
O808 O 0.27829 0.86808 0.32113 0.0
N809 N 0.2203 0.84776 0.38315 0.0
C810 C 0.22492 0.83559 0.39778 0.0
C811 C 0.21089 0.81941 0.40263 0.0
C812 C 0.1921 0.81619 0.39272 0.0
C813 C 0.18758 0.82908 0.3779 0.0
C814 C 0.2022 0.8449 0.37365 0.0
H815 H 0.23919 0.83824 0.40569 0.0
O816 O 0.2748 0.83949 0.35047 0.0
O817 O 0.25052 0.85911 0.3554 0.0
O818 O 0.28578 0.87001 0.37995 0.0
O819 O 0.25592 0.87091 0.39576 0.0
C820 C 0.1691 0.82696 0.36727 0.0
C821 C 0.16577 0.84033 0.35233 0.0
H822 H 0.16486 0.86897 0.32469 0.0
H823 H 0.1925 0.89619 0.31953 0.0
H824 H 0.21446 0.80956 0.41412 0.0
H825 H 0.18124 0.80381 0.39667 0.0
H826 H 0.15738 0.81503 0.37038 0.0
H827 H 0.15161 0.83838 0.34409 0.0
Mn828 Mn 0.66502 0.74305 0.84706 0.0
Mn829 Mn 0.64019 0.69757 0.85364 0.0
C830 C 0.67973 0.71518 0.83712 0.0
C831 C 0.67177 0.77083 0.82805 0.0
C832 C 0.66233 0.72257 0.88654 0.0
O833 O 0.63627 0.74903 0.8527 0.0
O834 O 0.62046 0.71794 0.85471 0.0
C835 C 0.61574 0.69377 0.81681 0.0
N836 N 0.62977 0.68681 0.82876 0.0
C837 C 0.63384 0.65954 0.80593 0.0
C838 C 0.61933 0.66634 0.79345 0.0
C839 C 0.61025 0.68354 0.79891 0.0
C840 C 0.63858 0.67025 0.82366 0.0
H841 H 0.60884 0.70708 0.82087 0.0
C842 C 0.62033 0.7369 0.85472 0.0
O843 O 0.67517 0.77183 0.84698 0.0
O844 O 0.66379 0.75396 0.82041 0.0
N845 N 0.65746 0.67657 0.85262 0.0
C846 C 0.67172 0.67239 0.86596 0.0
C847 C 0.68253 0.65586 0.86247 0.0
C848 C 0.67851 0.64377 0.84538 0.0
C849 C 0.6636 0.64822 0.83199 0.0
C850 C 0.65315 0.66476 0.83635 0.0
H851 H 0.67497 0.68169 0.87906 0.0
O852 O 0.69081 0.73202 0.84011 0.0
O853 O 0.66022 0.71526 0.83955 0.0
O854 O 0.669 0.73708 0.87596 0.0
O855 O 0.65102 0.70731 0.87983 0.0
C856 C 0.65892 0.6371 0.81433 0.0
C857 C 0.64406 0.64275 0.8013 0.0
H858 H 0.61516 0.65857 0.77956 0.0
H859 H 0.59912 0.68894 0.78931 0.0
H860 H 0.69403 0.65253 0.87287 0.0
H861 H 0.68702 0.63114 0.84265 0.0
H862 H 0.66681 0.62428 0.81052 0.0
H863 H 0.64075 0.63419 0.78768 0.0
H864 H 0.14316 0.55077 0.23566 0.0
H865 H 0.14072 0.51761 0.24896 0.0
H866 H 0.149 0.54278 0.30807 0.0
H867 H 0.15151 0.57638 0.29492 0.0
H868 H 0.17395 0.50392 0.27951 0.0
H869 H 0.09253 0.50024 0.30184 0.0
H870 H 0.10118 0.51564 0.28156 0.0
H871 H 0.11005 0.52238 0.30614 0.0
C872 C 0.14445 0.54939 0.2515 0.0
C873 C 0.14748 0.56628 0.26422 0.0
C874 C 0.14311 0.53041 0.25905 0.0
C875 C 0.14469 0.52789 0.27943 0.0
C876 C 0.14776 0.54456 0.29228 0.0
H877 H 0.14358 0.39819 0.28933 0.0
H878 H 0.14806 0.43198 0.30426 0.0
C879 C 0.14918 0.56368 0.28472 0.0
C880 C 0.14286 0.50752 0.2867 0.0
H881 H 0.10599 0.46963 0.29519 0.0
C882 C 0.15934 0.49639 0.28375 0.0
C883 C 0.12376 0.49799 0.29224 0.0
C884 C 0.10578 0.50959 0.29574 0.0
C885 C 0.15667 0.47558 0.28412 0.0
C886 C 0.13701 0.46588 0.28758 0.0
C887 C 0.12104 0.47717 0.29261 0.0
C888 C 0.13179 0.44494 0.28108 0.0
C889 C 0.17431 0.46407 0.27868 0.0
C890 C 0.12062 0.44108 0.26354 0.0
C891 C 0.11814 0.42203 0.25499 0.0
C892 C 0.12669 0.40638 0.26388 0.0
C893 C 0.13687 0.40999 0.28212 0.0
C894 C 0.13947 0.42923 0.29065 0.0
H895 H 0.18847 0.47397 0.27584 0.0
H896 H 0.17731 0.45417 0.29086 0.0
H897 H 0.17051 0.45456 0.26523 0.0
H898 H 0.11463 0.45306 0.25592 0.0
H899 H 0.11 0.4197 0.24107 0.0
H900 H 0.93738 0.66087 0.72491 0.0
H901 H 0.97399 0.66212 0.7298 0.0
H902 H 0.96492 0.65383 0.79221 0.0
H903 H 0.92807 0.65221 0.7875 0.0
H904 H 0.00199 0.68625 0.75411 0.0
H905 H 0.99538 0.60653 0.77394 0.0
H906 H 0.97459 0.61768 0.7631 0.0
H907 H 0.9809 0.62245 0.78873 0.0
C908 C 0.94309 0.65947 0.73974 0.0
C909 C 0.92972 0.6561 0.75577 0.0
C910 C 0.96405 0.66026 0.7425 0.0
C911 C 0.97207 0.65772 0.76129 0.0
C912 C 0.95893 0.65545 0.77753 0.0
H913 H 0.0978 0.63766 0.78674 0.0
H914 H 0.06244 0.64436 0.79089 0.0
C915 C 0.9379 0.65461 0.7748 0.0
C916 C 0.99408 0.65627 0.76341 0.0
H917 H 0.02831 0.62317 0.77191 0.0
C918 C 0.00779 0.67255 0.7582 0.0
C919 C 0.00151 0.63833 0.76873 0.0
C920 C 0.98739 0.62016 0.77382 0.0
C921 C 0.02881 0.67121 0.75777 0.0
C922 C 0.03616 0.65306 0.7624 0.0
C923 C 0.02253 0.63704 0.76835 0.0
C924 C 0.05779 0.64993 0.76003 0.0
C925 C 0.04296 0.68915 0.75218 0.0
C926 C 0.06672 0.65061 0.74123 0.0
C927 C 0.08688 0.6467 0.73874 0.0
C928 C 0.09845 0.64196 0.75503 0.0
C929 C 0.08937 0.64127 0.77386 0.0
C930 C 0.06918 0.64513 0.7763 0.0
H931 H 0.03574 0.70314 0.75447 0.0
H932 H 0.05728 0.69028 0.76091 0.0
H933 H 0.0469 0.68774 0.7363 0.0
H934 H 0.05798 0.65389 0.72843 0.0
H935 H 0.09334 0.64736 0.72404 0.0
H936 H 0.84382 0.44618 0.22406 0.0
H937 H 0.84496 0.48154 0.23305 0.0
H938 H 0.84502 0.46793 0.29485 0.0
H939 H 0.84394 0.43251 0.28613 0.0
H940 H 0.81511 0.49965 0.25936 0.0
H941 H 0.89539 0.5107 0.28619 0.0
H942 H 0.88611 0.49015 0.26977 0.0
H943 H 0.87911 0.48997 0.29537 0.0
C944 C 0.8442 0.45066 0.23957 0.0
C945 C 0.84385 0.4365 0.25437 0.0
C946 C 0.84477 0.47085 0.24466 0.0
C947 C 0.8452 0.47722 0.26457 0.0
C948 C 0.84489 0.46322 0.2794 0.0
H949 H 0.86133 0.60066 0.30974 0.0
H950 H 0.85519 0.56429 0.3088 0.0
C951 C 0.84421 0.44301 0.27435 0.0
C952 C 0.84574 0.49856 0.26975 0.0
H953 H 0.87711 0.53866 0.28699 0.0
C954 C 0.82858 0.50821 0.26553 0.0
C955 C 0.86328 0.50948 0.27801 0.0
C956 C 0.88212 0.49967 0.28255 0.0
C957 C 0.82867 0.52873 0.26898 0.0
C958 C 0.84655 0.53984 0.27639 0.0
C959 C 0.86344 0.53005 0.28131 0.0
C960 C 0.84874 0.56179 0.27743 0.0
C961 C 0.80969 0.53835 0.26452 0.0
C962 C 0.84722 0.5723 0.26009 0.0
C963 C 0.8507 0.59297 0.26053 0.0
C964 C 0.85598 0.60356 0.27834 0.0
C965 C 0.85729 0.59298 0.29578 0.0
C966 C 0.85378 0.57222 0.29529 0.0
H967 H 0.79586 0.52751 0.26536 0.0
H968 H 0.80796 0.55109 0.2749 0.0
H969 H 0.81065 0.54393 0.24927 0.0
H970 H 0.84384 0.56449 0.24606 0.0
H971 H 0.84959 0.60058 0.2468 0.0
H972 H 0.05984 0.37464 0.81963 0.0
H973 H 0.02283 0.37435 0.81786 0.0
H974 H 0.02027 0.32796 0.77245 0.0
H975 H 0.05703 0.32796 0.77422 0.0
H976 H 0.00514 0.38423 0.78328 0.0
H977 H 0.97075 0.31034 0.80591 0.0
H978 H -0.00354 0.32012 0.81253 0.0
H979 H 0.99105 0.30838 0.78859 0.0
C980 C 0.05134 0.36396 0.8097 0.0
C981 C 0.0614 0.35149 0.79689 0.0
C982 C 0.03021 0.36383 0.8087 0.0
C983 C 0.01884 0.35104 0.79514 0.0
C984 C 0.02871 0.33768 0.7833 0.0
H985 H 0.92205 0.36334 0.71777 0.0
H986 H 0.95389 0.36263 0.73587 0.0
C987 C 0.04978 0.33785 0.7842 0.0
C988 C -0.00262 0.35366 0.79094 0.0
H989 H 0.95081 0.32761 0.78325 0.0
C990 C 0.99313 0.37199 0.78371 0.0
C991 C 0.98173 0.33774 0.79163 0.0
C992 C 0.98518 0.3181 0.80029 0.0
C993 C 0.97397 0.37439 0.7759 0.0
C994 C 0.95884 0.35798 0.77513 0.0
C995 C 0.96261 0.34007 0.7836 0.0
C996 C 0.93953 0.35874 0.76443 0.0
C997 C 0.97024 0.3943 0.76802 0.0
C998 C 0.92096 0.35642 0.7745 0.0
C999 C 0.90272 0.3568 0.76422 0.0
C1000 C 0.90275 0.35932 0.74363 0.0
C1001 C 0.92145 0.36147 0.7336 0.0
C1002 C 0.93967 0.36117 0.74392 0.0
H1003 H 0.98098 0.40652 0.77458 0.0
H1004 H 0.9725 0.39404 0.75177 0.0
H1005 H 0.95442 0.39761 0.77107 0.0
H1006 H 0.92061 0.3544 0.79032 0.0
H1007 H 0.8886 0.35501 0.77243 0.0
H1008 H 0.12428 0.40108 0.73306 0.0
H1009 H 0.12606 0.43322 0.71693 0.0
H1010 H 0.11315 0.46193 0.77262 0.0
H1011 H 0.11115 0.43021 0.78874 0.0
H1012 H 0.09155 0.47443 0.73865 0.0
H1013 H 0.17547 0.47619 0.72778 0.0
H1014 H 0.15899 0.45512 0.71827 0.0
H1015 H 0.16201 0.45915 0.74446 0.0
C1016 C 0.12156 0.41421 0.74179 0.0
C1017 C 0.11778 0.41311 0.76224 0.0
C1018 C 0.12265 0.43253 0.73257 0.0
C1019 C 0.11991 0.44988 0.74366 0.0
C1020 C 0.1153 0.44866 0.76382 0.0
H1021 H 0.13584 0.56773 0.76982 0.0
H1022 H 0.12695 0.53218 0.76384 0.0
C1023 C 0.11427 0.4305 0.77303 0.0
C1024 C 0.12308 0.46975 0.73509 0.0
H1025 H 0.16125 0.5063 0.72573 0.0
C1026 C 0.10668 0.4813 0.73522 0.0
C1027 C 0.14284 0.47858 0.73053 0.0
C1028 C 0.16093 0.46675 0.73025 0.0
C1029 C 0.10982 0.50184 0.73257 0.0
C1030 C 0.12983 0.51094 0.72993 0.0
C1031 C 0.14594 0.49917 0.72787 0.0
C1032 C 0.13472 0.53261 0.73279 0.0
C1033 C 0.0919 0.51386 0.73386 0.0
C1034 C 0.14243 0.54447 0.71734 0.0
C1035 C 0.14752 0.56491 0.72069 0.0
C1036 C 0.14526 0.57365 0.73963 0.0
C1037 C 0.1378 0.56153 0.75508 0.0
C1038 C 0.13256 0.54124 0.75167 0.0
H1039 H 0.07743 0.50458 0.73009 0.0
H1040 H 0.09065 0.51985 0.74922 0.0
H1041 H 0.09388 0.5266 0.72383 0.0
H1042 H 0.14442 0.53793 0.70274 0.0
H1043 H 0.15332 0.57381 0.70849 0.0
H1044 H 0.93836 0.66371 0.29755 0.0
H1045 H 0.97375 0.65905 0.29047 0.0
H1046 H 0.95949 0.65047 0.22843 0.0
H1047 H 0.92389 0.65504 0.2353 0.0
H1048 H 0.98119 0.62033 0.24581 0.0
H1049 H 0.01747 0.69693 0.26232 0.0
H1050 H 0.00038 0.68698 0.28107 0.0
H1051 H 0.99063 0.69146 0.25703 0.0
C1052 C 0.94271 0.66099 0.28235 0.0
C1053 C 0.92826 0.65973 0.26699 0.0
C1054 C 0.96298 0.65845 0.27834 0.0
C1055 C 0.96918 0.65464 0.25892 0.0
C1056 C 0.95493 0.65354 0.2435 0.0
H1057 H 0.08614 0.62177 0.21597 0.0
H1058 H 0.05069 0.62878 0.21795 0.0
C1059 C 0.93463 0.65619 0.24747 0.0
C1060 C 0.99036 0.65071 0.25501 0.0
H1061 H 0.03956 0.6714 0.25955 0.0
C1062 C 0.99399 0.63151 0.24856 0.0
C1063 C 0.0069 0.66538 0.25872 0.0
C1064 C 0.00372 0.68641 0.26501 0.0
C1065 C 0.01388 0.62635 0.24644 0.0
C1066 C 0.03046 0.64092 0.25052 0.0
C1067 C 0.02678 0.66025 0.25652 0.0
C1068 C 0.05177 0.63631 0.24927 0.0
C1069 C 0.01698 0.60517 0.2406 0.0
C1070 C 0.06418 0.63857 0.26616 0.0
C1071 C 0.08447 0.63473 0.26509 0.0
C1072 C 0.09275 0.62859 0.24705 0.0
C1073 C 0.08022 0.62629 0.23014 0.0
C1074 C 0.05993 0.63022 0.23124 0.0
H1075 H 0.00293 0.59486 0.24263 0.0
H1076 H 0.02124 0.6044 0.22476 0.0
H1077 H 0.02944 0.59993 0.24938 0.0
H1078 H 0.05813 0.64331 0.28021 0.0
H1079 H 0.09366 0.63667 0.2784 0.0
H1080 H 0.85089 0.58763 0.70923 0.0
H1081 H 0.84582 0.55148 0.70436 0.0
H1082 H 0.88445 0.54506 0.75468 0.0
H1083 H 0.88852 0.58117 0.76029 0.0
H1084 H 0.86896 0.52422 0.69622 0.0
H1085 H 0.83585 0.5095 0.77 0.0
H1086 H 0.84079 0.5343 0.76093 0.0
H1087 H 0.8609 0.52242 0.7721 0.0
C1088 C 0.85837 0.57847 0.71917 0.0
C1089 C 0.86996 0.58707 0.73521 0.0
C1090 C 0.85543 0.55784 0.71641 0.0
C1091 C 0.8643 0.54553 0.72948 0.0
C1092 C 0.87682 0.55422 0.74487 0.0
H1093 H 0.8804 0.42233 0.70485 0.0
H1094 H 0.88309 0.45858 0.70711 0.0
C1095 C 0.87933 0.57482 0.74794 0.0
C1096 C 0.86044 0.52364 0.72696 0.0
H1097 H 0.8462 0.4814 0.75187 0.0
C1098 C 0.86379 0.51486 0.70835 0.0
C1099 C 0.85316 0.51145 0.74263 0.0
C1100 C 0.84725 0.51993 0.76245 0.0
C1101 C 0.86057 0.49421 0.70508 0.0
C1102 C 0.85477 0.48194 0.72113 0.0
C1103 C 0.85092 0.49076 0.73962 0.0
C1104 C 0.85292 0.45995 0.71928 0.0
C1105 C 0.86305 0.48589 0.68436 0.0
C1106 C 0.83541 0.4486 0.72613 0.0
C1107 C 0.83415 0.42787 0.7255 0.0
C1108 C 0.85024 0.41818 0.71767 0.0
C1109 C 0.86766 0.4295 0.71066 0.0
C1110 C 0.86913 0.4502 0.71178 0.0
H1111 H 0.86005 0.49688 0.67316 0.0
H1112 H 0.87896 0.48243 0.68232 0.0
H1113 H 0.85264 0.47211 0.68147 0.0
H1114 H 0.82275 0.45579 0.73208 0.0
H1115 H 0.82056 0.41942 0.73097 0.0
H1116 H 0.90428 0.37792 0.21257 0.0
H1117 H 0.93927 0.36961 0.21232 0.0
H1118 H 0.93421 0.35438 0.27364 0.0
H1119 H 0.89921 0.36292 0.27423 0.0
H1120 H 0.96987 0.37808 0.26474 0.0
H1121 H 0.95694 0.31345 0.21212 0.0
H1122 H 0.94826 0.33573 0.20306 0.0
H1123 H 0.93637 0.32436 0.22441 0.0
C1124 C 0.91057 0.37287 0.22606 0.0
C1125 C 0.89887 0.37102 0.24341 0.0
C1126 C 0.93052 0.36796 0.22581 0.0
C1127 C 0.93909 0.36095 0.24283 0.0
C1128 C 0.92773 0.35957 0.26031 0.0
H1129 H 0.06291 0.3331 0.26508 0.0
H1130 H 0.02613 0.33391 0.26757 0.0
C1131 C 0.90776 0.36452 0.26061 0.0
C1132 C 0.96018 0.35565 0.24246 0.0
H1133 H 0.99161 0.32598 0.21858 0.0
C1134 C 0.97461 0.36652 0.25485 0.0
C1135 C 0.9662 0.34052 0.22956 0.0
C1136 C 0.9511 0.3277 0.21666 0.0
C1137 C 0.99516 0.36323 0.25409 0.0
C1138 C 0.00128 0.34847 0.24079 0.0
C1139 C 0.98678 0.33727 0.22874 0.0
C1140 C 0.02289 0.34539 0.23841 0.0
C1141 C 0.01031 0.37606 0.26695 0.0
C1142 C 0.03296 0.35072 0.22084 0.0
C1143 C 0.05394 0.35024 0.2193 0.0
C1144 C 0.06519 0.34438 0.23534 0.0
C1145 C 0.05478 0.33787 0.2525 0.0
C1146 C 0.03378 0.33838 0.25401 0.0
H1147 H 0.00368 0.38911 0.27364 0.0
H1148 H 0.01537 0.3671 0.2791 0.0
H1149 H 0.02394 0.38146 0.25826 0.0
H1150 H 0.0247 0.35606 0.20861 0.0
H1151 H 0.06141 0.35518 0.2058 0.0
H1152 H 0.19546 0.16103 0.60091 0.0
H1153 H 0.18733 0.16963 0.56721 0.0
H1154 H 0.25108 0.17461 0.55234 0.0
H1155 H 0.25946 0.1663 0.58593 0.0
H1156 H 0.22785 0.20427 0.53533 0.0
H1157 H 0.19282 0.12601 0.52345 0.0
H1158 H 0.18333 0.14042 0.54351 0.0
H1159 H 0.20878 0.13356 0.54455 0.0
C1160 C 0.20781 0.16427 0.59058 0.0
C1161 C 0.22811 0.16259 0.59603 0.0
C1162 C 0.2031 0.16917 0.57135 0.0
C1163 C 0.21859 0.17243 0.55731 0.0
C1164 C 0.23892 0.17207 0.56302 0.0
H1165 H 0.2534 0.17322 0.43985 0.0
H1166 H 0.24776 0.18014 0.47476 0.0
C1167 C 0.24366 0.1672 0.58221 0.0
C1168 C 0.2138 0.17408 0.53618 0.0
H1169 H 0.19777 0.14547 0.49567 0.0
C1170 C 0.22091 0.19157 0.52665 0.0
C1171 C 0.20461 0.15751 0.525 0.0
C1172 C 0.19701 0.13824 0.53453 0.0
C1173 C 0.21999 0.19259 0.50601 0.0
C1174 C 0.21217 0.17552 0.49473 0.0
C1175 C 0.2038 0.15851 0.50438 0.0
C1176 C 0.21497 0.1739 0.47309 0.0
C1177 C 0.22791 0.21172 0.49647 0.0
C1178 C 0.19842 0.16779 0.46057 0.0
C1179 C 0.20161 0.16351 0.44054 0.0
C1180 C 0.22146 0.16511 0.43276 0.0
C1181 C 0.23792 0.17177 0.4453 0.0
C1182 C 0.23471 0.176 0.46526 0.0
H1183 H 0.2261 0.22477 0.50645 0.0
H1184 H 0.2444 0.21161 0.49344 0.0
H1185 H 0.21996 0.21358 0.48231 0.0
H1186 H 0.18309 0.16586 0.4664 0.0
H1187 H 0.18857 0.15849 0.43131 0.0
H1188 H 0.36021 0.80086 0.90426 0.0
H1189 H 0.35 0.80877 0.93823 0.0
H1190 H 0.3498 0.74713 0.95261 0.0
H1191 H 0.3599 0.73904 0.91902 0.0
H1192 H 0.31423 0.76873 0.96658 0.0
H1193 H 0.39156 0.80591 0.98579 0.0
H1194 H 0.37836 0.8128 0.96418 0.0
H1195 H 0.38801 0.78905 0.96458 0.0
C1196 C 0.35785 0.78897 0.91463 0.0
C1197 C 0.36107 0.76933 0.90897 0.0
C1198 C 0.35201 0.79354 0.93397 0.0
C1199 C 0.3492 0.77852 0.94779 0.0
C1200 C 0.35183 0.75889 0.94205 0.0
H1201 H 0.34372 0.72622 0.05062 0.0
H1202 H 0.33677 0.7402 0.01904 0.0
C1203 C 0.35775 0.75433 0.92286 0.0
C1204 C 0.34496 0.7829 0.96873 0.0
H1205 H 0.37092 0.79375 0.01182 0.0
C1206 C 0.32634 0.77482 0.97654 0.0
C1207 C 0.36069 0.79115 0.98158 0.0
C1208 C 0.38084 0.80026 0.97376 0.0
C1209 C 0.32382 0.7729 -0.00304 0.0
C1210 C 0.34049 0.77881 0.00965 0.0
C1211 C 0.35823 0.78904 0.002 0.0
C1212 C 0.34158 0.77088 0.02966 0.0
C1213 C 0.30381 0.76335 0.00463 0.0
C1214 C 0.34685 0.78351 0.0461 0.0
C1215 C 0.35104 0.77552 0.06427 0.0
C1216 C 0.35034 0.75478 0.06613 0.0
C1217 C 0.3445 0.74224 0.04972 0.0
C1218 C 0.34023 0.75022 0.03168 0.0
H1219 H 0.29097 0.76702 0.99533 0.0
H1220 H 0.30384 0.74694 0.00396 0.0
H1221 H 0.30118 0.76817 0.02018 0.0
H1222 H 0.34826 0.79951 0.04473 0.0
H1223 H 0.35549 0.78559 0.07664 0.0
H1224 H 0.69452 0.86095 0.4164 0.0
H1225 H 0.69862 0.85243 0.45081 0.0
H1226 H 0.7637 0.85662 0.44324 0.0
H1227 H 0.75985 0.86496 0.40872 0.0
H1228 H 0.74651 0.82078 0.45961 0.0
H1229 H 0.72059 0.88696 0.49866 0.0
H1230 H 0.70332 0.8756 0.48009 0.0
H1231 H 0.72794 0.88701 0.47297 0.0
C1232 C 0.70976 0.86045 0.42209 0.0
C1233 C 0.72685 0.86363 0.40974 0.0
C1234 C 0.71205 0.85559 0.44179 0.0
C1235 C 0.73146 0.854 0.44953 0.0
C1236 C 0.7486 0.85779 0.43748 0.0
H1237 H 0.77978 0.82398 0.56113 0.0
H1238 H 0.77413 0.82847 0.52604 0.0
C1239 C 0.74634 0.86263 0.41778 0.0
C1240 C 0.73379 0.84727 0.46984 0.0
H1241 H 0.72559 0.85945 0.5182 0.0
C1242 C 0.742 0.82923 0.47246 0.0
C1243 C 0.72779 0.85832 0.48647 0.0
C1244 C 0.71958 0.87814 0.4845 0.0
C1245 C 0.74421 0.82184 0.49137 0.0
C1246 C 0.73826 0.83293 0.508 0.0
C1247 C 0.72997 0.85092 0.50536 0.0
C1248 C 0.74135 0.8268 0.52842 0.0
C1249 C 0.75262 0.80213 0.49339 0.0
C1250 C 0.72474 0.824 0.54129 0.0
C1251 C 0.72789 0.82153 0.5614 0.0
C1252 C 0.74776 0.82202 0.56901 0.0
C1253 C 0.76428 0.82356 0.55581 0.0
C1254 C 0.76109 0.82604 0.5357 0.0
H1255 H 0.75111 0.79306 0.4794 0.0
H1256 H 0.76904 0.80484 0.49718 0.0
H1257 H 0.74478 0.79347 0.50537 0.0
H1258 H 0.70938 0.82455 0.53589 0.0
H1259 H 0.7148 0.82026 0.57109 0.0
H1260 H 0.62637 0.20165 0.07783 0.0
H1261 H 0.62951 0.18816 0.04397 0.0
H1262 H 0.64683 0.24737 0.02373 0.0
H1263 H 0.64359 0.26091 0.05714 0.0
H1264 H 0.60549 0.20045 0.01248 0.0
H1265 H 0.68753 0.21378 0.99558 0.0
H1266 H 0.67794 0.21214 0.02058 0.0
H1267 H 0.67826 0.23502 0.00765 0.0
C1268 C 0.63126 0.21171 0.0662 0.0
C1269 C 0.63464 0.23236 0.07012 0.0
C1270 C 0.63306 0.20399 0.04693 0.0
C1271 C 0.63871 0.21676 0.03147 0.0
C1272 C 0.64289 0.23723 0.03554 0.0
H1273 H 0.60845 0.24343 0.9202 0.0
H1274 H 0.61221 0.23529 0.95474 0.0
C1275 C 0.64083 0.24496 0.05464 0.0
C1276 C 0.63768 0.20954 0.01065 0.0
H1277 H 0.66434 0.21461 0.96766 0.0
C1278 C 0.61847 0.20289 0.0027 0.0
C1279 C 0.65466 0.21253 -0.00201 0.0
C1280 C 0.6758 0.21857 0.00592 0.0
C1281 C 0.61544 0.20116 0.9822 0.0
C1282 C 0.63202 0.20629 0.96953 0.0
C1283 C 0.6516 0.21093 0.97748 0.0
C1284 C 0.62883 0.20997 0.94846 0.0
C1285 C 0.59431 0.19504 0.97424 0.0
C1286 C 0.63717 0.19852 0.93356 0.0
C1287 C 0.63499 0.20309 0.91372 0.0
C1288 C 0.62475 0.21941 0.90857 0.0
C1289 C 0.61645 0.2308 0.92363 0.0
C1290 C 0.61845 0.22609 0.94336 0.0
H1291 H 0.58483 0.18615 0.98504 0.0
H1292 H 0.58682 0.20856 0.9713 0.0
H1293 H 0.59485 0.18622 0.96016 0.0
H1294 H 0.64544 0.18616 0.9373 0.0
H1295 H 0.64165 0.19408 0.90246 0.0
H1296 H 0.26243 0.88479 0.43084 0.0
H1297 H 0.27779 0.8824 0.46319 0.0
H1298 H 0.32667 0.85349 0.4367 0.0
H1299 H 0.31133 0.85598 0.4039 0.0
H1300 H 0.30552 0.83246 0.46744 0.0
H1301 H 0.32865 0.91001 0.49176 0.0
H1302 H 0.30423 0.90805 0.47988 0.0
H1303 H 0.32622 0.90232 0.46594 0.0
C1304 C 0.2766 0.87818 0.43181 0.0
C1305 C 0.28562 0.87046 0.41489 0.0
C1306 C 0.28551 0.87706 0.45027 0.0
C1307 C 0.30357 0.86813 0.45224 0.0
C1308 C 0.31292 0.86073 0.43537 0.0
H1309 H 0.30468 0.86667 0.58055 0.0
H1310 H 0.32311 0.86638 0.54913 0.0
C1311 C 0.30411 0.86212 0.41673 0.0
C1312 C 0.3105 0.86426 0.47231 0.0
H1313 H 0.31324 0.88795 0.51745 0.0
C1314 C 0.30809 0.84453 0.47839 0.0
C1315 C 0.31442 0.87993 0.48653 0.0
C1316 C 0.31876 0.90126 0.48063 0.0
C1317 C 0.30635 0.84031 0.49849 0.0
C1318 C 0.30681 0.85624 0.51255 0.0
C1319 C 0.31242 0.87573 0.5066 0.0
C1320 C 0.29703 0.85362 0.53203 0.0
C1321 C 0.30225 0.81895 0.50436 0.0
C1322 C 0.27628 0.84664 0.53272 0.0
C1323 C 0.26567 0.84701 0.55046 0.0
C1324 C 0.2756 0.85441 0.56793 0.0
C1325 C 0.29658 0.86086 0.56734 0.0
C1326 C 0.30717 0.86063 0.54946 0.0
H1327 H 0.31011 0.80905 0.49423 0.0
H1328 H 0.30728 0.81699 0.51977 0.0
H1329 H 0.28567 0.81421 0.50326 0.0
H1330 H 0.26801 0.84171 0.51932 0.0
H1331 H 0.24957 0.84188 0.55037 0.0
H1332 H 0.68862 0.76106 0.07345 0.0
H1333 H 0.69499 0.76059 0.03786 0.0
H1334 H 0.67041 0.69893 0.03351 0.0
H1335 H 0.66445 0.69904 0.06905 0.0
H1336 H 0.70352 0.70778 0.00864 0.0
H1337 H 0.64579 0.76132 0.00168 0.0
H1338 H 0.6671 0.76976 0.01733 0.0
H1339 H 0.64967 0.74893 0.02435 0.0
C1340 C 0.68484 0.74731 0.06497 0.0
C1341 C 0.67565 0.73019 0.07402 0.0
C1342 C 0.68846 0.74709 0.04465 0.0
C1343 C 0.68269 0.72987 0.03306 0.0
C1344 C 0.67485 0.7124 0.04223 0.0
H1345 H 0.65504 0.69339 0.91361 0.0
H1346 H 0.66331 0.69564 0.94884 0.0
C1347 C 0.67141 0.71253 0.06255 0.0
C1348 C 0.68299 0.73038 0.01128 0.0
H1349 H 0.66059 0.75042 0.97235 0.0
C1350 C 0.69429 0.71721 0.00066 0.0
C1351 C 0.67078 0.74263 0.00099 0.0
C1352 C 0.6575 0.75634 0.01161 0.0
C1353 C 0.69353 0.71582 0.97995 0.0
C1354 C 0.68103 0.7278 0.96975 0.0
C1355 C 0.6702 0.74134 0.98031 0.0
C1356 C 0.67792 0.72581 0.94819 0.0
C1357 C 0.70595 0.7015 0.96912 0.0
C1358 C 0.68323 0.74211 0.93629 0.0
C1359 C 0.67843 0.74095 0.9162 0.0
C1360 C 0.66803 0.7235 0.9077 0.0
C1361 C 0.66299 0.70707 0.91967 0.0
C1362 C 0.66788 0.70825 0.93976 0.0
H1363 H 0.71851 0.69728 0.97848 0.0
H1364 H 0.69596 0.68776 0.96495 0.0
H1365 H 0.7125 0.70802 0.95537 0.0
H1366 H 0.69081 0.75585 0.94264 0.0
H1367 H 0.68256 0.75388 0.90744 0.0
H1368 H 0.71069 0.1149 0.5805 0.0
H1369 H 0.70141 0.114 0.54538 0.0
H1370 H 0.76342 0.1066 0.5296 0.0
H1371 H 0.77287 0.10749 0.56441 0.0
H1372 H 0.7201 0.14131 0.51717 0.0
H1373 H 0.72884 0.06307 0.49593 0.0
H1374 H 0.72502 0.07127 0.52121 0.0
H1375 H 0.74991 0.07478 0.51027 0.0
C1376 C 0.7223 0.11284 0.56955 0.0
C1377 C 0.74254 0.11129 0.57525 0.0
C1378 C 0.71695 0.11232 0.54953 0.0
C1379 C 0.73167 0.1099 0.535 0.0
C1380 C 0.75176 0.10807 0.54065 0.0
H1381 H 0.77315 0.12482 0.42235 0.0
H1382 H 0.76335 0.11657 0.45594 0.0
C1383 C 0.75717 0.10876 0.56056 0.0
C1384 C 0.72681 0.11097 0.51383 0.0
H1385 H 0.7329 0.08669 0.46971 0.0
C1386 C 0.72228 0.12924 0.50673 0.0
C1387 C 0.72957 0.09511 0.50038 0.0
C1388 C 0.7334 0.07488 0.50734 0.0
C1389 C 0.72235 0.13265 0.48639 0.0
C1390 C 0.72677 0.11725 0.47299 0.0
C1391 C 0.72962 0.09848 0.48008 0.0
C1392 C 0.73173 0.12121 0.45213 0.0
C1393 C 0.71933 0.15312 0.47947 0.0
C1394 C 0.71708 0.12636 0.43881 0.0
C1395 C 0.72265 0.13121 0.41946 0.0
C1396 C 0.74295 0.13091 0.41321 0.0
C1397 C 0.7574 0.12529 0.42659 0.0
C1398 C 0.75183 0.12048 0.44582 0.0
H1399 H 0.71826 0.16399 0.49199 0.0
H1400 H 0.7321 0.15873 0.46978 0.0
H1401 H 0.70508 0.15234 0.4707 0.0
H1402 H 0.70143 0.12679 0.44341 0.0
H1403 H 0.71111 0.13536 0.40951 0.0
H1404 H 0.32335 0.26876 0.09334 0.0
H1405 H 0.32068 0.2761 0.05847 0.0
H1406 H 0.3076 0.21355 0.0439 0.0
H1407 H 0.31017 0.20591 0.07882 0.0
H1408 H 0.3474 0.2592 0.03026 0.0
H1409 H 0.26549 0.24134 0.01117 0.0
H1410 H 0.27427 0.24704 0.0362 0.0
H1411 H 0.27689 0.22308 0.02495 0.0
C1412 C 0.31956 0.25652 0.08282 0.0
C1413 C 0.3172 0.2367 0.08888 0.0
C1414 C 0.318 0.26079 0.06291 0.0
C1415 C 0.31383 0.24537 0.04874 0.0
C1416 C 0.31054 0.22565 0.05473 0.0
H1417 H 0.31899 0.23512 0.92184 0.0
H1418 H 0.31301 0.23021 0.95705 0.0
C1419 C 0.31216 0.22132 0.07467 0.0
C1420 C 0.31535 0.24975 0.02758 0.0
H1421 H 0.28838 0.2478 0.98451 0.0
C1422 C 0.33449 0.25688 0.02025 0.0
C1423 C 0.29846 0.24648 0.01468 0.0
C1424 C 0.27755 0.2392 0.02209 0.0
C1425 C 0.33735 0.26049 0.00015 0.0
C1426 C 0.32045 0.25734 0.98719 0.0
C1427 C 0.30125 0.25028 0.99455 0.0
C1428 C 0.32265 0.26079 0.96585 0.0
C1429 C 0.35855 0.26704 0.9929 0.0
C1430 C 0.32961 0.27972 0.95918 0.0
C1431 C 0.33326 0.28255 0.93912 0.0
C1432 C 0.32973 0.26653 0.92536 0.0
C1433 C 0.32195 0.24775 0.93205 0.0
C1434 C 0.31847 0.24492 0.95214 0.0
H1435 H 0.37038 0.26379 0.00363 0.0
H1436 H 0.36152 0.2596 0.97849 0.0
H1437 H 0.36015 0.28334 0.99084 0.0
H1438 H 0.3325 0.29224 0.96953 0.0
H1439 H 0.33897 0.29727 0.93444 0.0
H1440 H 0.55874 0.25724 0.09353 0.0
H1441 H 0.52156 0.25156 0.09335 0.0
H1442 H 0.5232 0.21832 0.14663 0.0
H1443 H 0.56036 0.22308 0.14628 0.0
H1444 H 0.49482 0.20135 0.12269 0.0
H1445 H 0.48721 0.28214 0.12875 0.0
H1446 H 0.50041 0.27534 0.10685 0.0
H1447 H 0.51142 0.2724 0.13078 0.0
C1448 C 0.55113 0.24861 0.10511 0.0
C1449 C 0.56236 0.24075 0.12003 0.0
C1450 C 0.52991 0.24548 0.10506 0.0
C1451 C 0.5196 0.235 0.12029 0.0
C1452 C 0.53084 0.22655 0.13479 0.0
H1453 H 0.39775 0.24717 0.15894 0.0
H1454 H 0.43442 0.24837 0.15394 0.0
C1455 C 0.55206 0.22928 0.13459 0.0
C1456 C 0.49713 0.23329 0.12153 0.0
H1457 H 0.45678 0.26067 0.12437 0.0
C1458 C 0.48647 0.21431 0.12308 0.0
C1459 C 0.48633 0.25026 0.12235 0.0
C1460 C 0.49694 0.27118 0.1223 0.0
C1461 C 0.4653 0.21182 0.12564 0.0
C1462 C 0.45445 0.22876 0.12586 0.0
C1463 C 0.46511 0.2477 0.12405 0.0
C1464 C 0.43218 0.22742 0.12896 0.0
C1465 C 0.45497 0.19117 0.12884 0.0
C1466 C 0.41872 0.21529 0.11654 0.0
C1467 C 0.39775 0.21426 0.11966 0.0
C1468 C 0.38992 0.22581 0.13487 0.0
C1469 C 0.40338 0.23821 0.14703 0.0
C1470 C 0.42432 0.23889 0.14419 0.0
H1471 H 0.46588 0.18106 0.13406 0.0
H1472 H 0.44249 0.19143 0.13979 0.0
H1473 H 0.44841 0.18483 0.11463 0.0
H1474 H 0.42439 0.20677 0.10433 0.0
H1475 H 0.38765 0.20475 0.10994 0.0
H1476 H 0.58222 0.71672 0.85248 0.0
H1477 H 0.54965 0.73064 0.85395 0.0
H1478 H 0.58084 0.7896 0.86235 0.0
H1479 H 0.61363 0.77589 0.86091 0.0
H1480 H 0.54629 0.77844 0.8891 0.0
H1481 H 0.52811 0.76523 0.80943 0.0
H1482 H 0.53623 0.74408 0.8214 0.0
H1483 H 0.55369 0.76616 0.81912 0.0
C1484 C 0.58223 0.73264 0.85472 0.0
C1485 C 0.60056 0.74519 0.85649 0.0
C1486 C 0.5636 0.74056 0.85544 0.0
C1487 C 0.56296 0.76113 0.85798 0.0
C1488 C 0.58113 0.77369 0.86024 0.0
H1489 H 0.44093 0.79743 0.84107 0.0
H1490 H 0.47829 0.80198 0.84204 0.0
C1491 C 0.5998 0.76581 0.85938 0.0
C1492 C 0.54316 0.7693 0.85838 0.0
H1493 H 0.50026 0.77069 0.83083 0.0
C1494 C 0.53632 0.77714 0.87629 0.0
C1495 C 0.53043 0.76795 0.84153 0.0
C1496 C 0.53752 0.76058 0.82171 0.0
C1497 C 0.51638 0.78226 0.87815 0.0
C1498 C 0.50307 0.77928 0.86173 0.0
C1499 C 0.51047 0.7729 0.84344 0.0
C1500 C 0.48086 0.77961 0.86378 0.0
C1501 C 0.5095 0.79013 0.89785 0.0
C1502 C 0.47005 0.76577 0.8759 0.0
C1503 C 0.44889 0.76304 0.87525 0.0
C1504 C 0.4381 0.77408 0.86244 0.0
C1505 C 0.44887 0.78878 0.85113 0.0
C1506 C 0.47016 0.79138 0.85166 0.0
H1507 H 0.52251 0.79796 0.90636 0.0
H1508 H 0.49774 0.80048 0.89599 0.0
H1509 H 0.50287 0.77749 0.90668 0.0
H1510 H 0.47801 0.75624 0.88504 0.0
H1511 H 0.44101 0.75168 0.88423 0.0
H1512 H 0.75845 0.92385 0.33834 0.0
H1513 H 0.76391 0.95955 0.33341 0.0
H1514 H 0.70006 0.96414 0.34287 0.0
H1515 H 0.69426 0.92826 0.34774 0.0
H1516 H 0.71981 0.98556 0.30858 0.0
H1517 H 0.76016 0.00088 0.3805 0.0
H1518 H 0.76903 0.98162 0.3649 0.0
H1519 H 0.7439 0.97815 0.37519 0.0
C1520 C 0.74549 0.93237 0.33935 0.0
C1521 C 0.72592 0.92319 0.34363 0.0
C1522 C 0.74869 0.95277 0.33652 0.0
C1523 C 0.73241 0.96437 0.33794 0.0
C1524 C 0.71278 0.95532 0.34176 0.0
H1525 H 0.71906 0.08907 0.33596 0.0
H1526 H 0.71408 0.05303 0.33111 0.0
C1527 C 0.70955 0.93487 0.34464 0.0
C1528 C 0.73613 0.98609 0.33615 0.0
H1529 H 0.75926 0.02783 0.35945 0.0
C1530 C 0.72842 0.99488 0.31966 0.0
C1531 C 0.74742 -0.00197 0.35064 0.0
C1532 C 0.75551 0.98929 0.36891 0.0
C1533 C 0.73194 0.01548 0.31717 0.0
C1534 C 0.74312 0.02745 0.33176 0.0
C1535 C 0.75085 0.01857 0.3482 0.0
C1536 C 0.74621 0.04937 0.33105 0.0
C1537 C 0.72392 0.02418 0.29887 0.0
C1538 C 0.76595 0.05928 0.3324 0.0
C1539 C 0.76886 0.07987 0.33545 0.0
C1540 C 0.75206 0.09089 0.33724 0.0
C1541 C 0.73234 0.08104 0.33463 0.0
C1542 C 0.72945 0.06042 0.33172 0.0
H1543 H 0.72136 0.01282 0.28665 0.0
H1544 H 0.70912 0.02981 0.30231 0.0
H1545 H 0.73456 0.03678 0.2937 0.0
H1546 H 0.77908 0.05096 0.33195 0.0
H1547 H 0.78426 0.08701 0.33721 0.0
H1548 H 0.38438 0.22151 0.85992 0.0
H1549 H 0.41747 0.20878 0.85795 0.0
H1550 H 0.44679 0.26632 0.87667 0.0
H1551 H 0.4137 0.27936 0.8787 0.0
H1552 H 0.45003 0.22545 0.83308 0.0
H1553 H 0.47188 0.22556 0.91228 0.0
H1554 H 0.44582 0.22559 0.90417 0.0
H1555 H 0.46277 0.24822 0.90461 0.0
C1556 C 0.3978 0.23148 0.86386 0.0
C1557 C 0.39637 0.25151 0.86947 0.0
C1558 C 0.41668 0.22412 0.86271 0.0
C1559 C 0.43444 0.23655 0.86739 0.0
C1560 C 0.43313 0.25643 0.87333 0.0
H1561 H 0.55595 0.25316 0.83956 0.0
H1562 H 0.519 0.25028 0.84213 0.0
C1563 C 0.41424 0.26388 0.87436 0.0
C1564 C 0.45449 0.22925 0.86457 0.0
H1565 H 0.49873 0.22379 0.88864 0.0
C1566 C 0.46057 0.22468 0.84525 0.0
C1567 C 0.46801 0.22803 0.88052 0.0
C1568 C 0.46178 0.23193 0.90161 0.0
C1569 C 0.48043 0.22027 0.84133 0.0
C1570 C 0.49437 0.22045 0.85713 0.0
C1571 C 0.4879 0.22367 0.87658 0.0
C1572 C 0.51633 0.22061 0.85351 0.0
C1573 C 0.48671 0.21636 0.82027 0.0
C1574 C 0.52693 0.20472 0.85889 0.0
C1575 C 0.54815 0.20622 0.85721 0.0
C1576 C 0.5589 0.22383 0.8506 0.0
C1577 C 0.54808 0.23945 0.84479 0.0
C1578 C 0.52699 0.23781 0.84615 0.0
H1579 H 0.47333 0.21201 0.81054 0.0
H1580 H 0.49508 0.23009 0.81453 0.0
H1581 H 0.49703 0.20444 0.81946 0.0
H1582 H 0.51884 0.1914 0.86476 0.0
H1583 H 0.55617 0.19402 0.8619 0.0
H1584 H 0.26896 0.93474 0.33081 0.0
H1585 H 0.26601 0.97066 0.33425 0.0
H1586 H 0.25933 0.96531 0.39737 0.0
H1587 H 0.26147 0.92962 0.39384 0.0
H1588 H 0.22903 0.98278 0.38189 0.0
H1589 H 0.30305 0.01851 0.35492 0.0
H1590 H 0.29016 0.00061 0.3378 0.0
H1591 H 0.29917 0.99258 0.36096 0.0
C1592 C 0.26737 0.94145 0.34539 0.0
C1593 C 0.26539 0.92962 0.36207 0.0
C1594 C 0.26572 0.9619 0.34738 0.0
C1595 C 0.26251 0.97065 0.3661 0.0
C1596 C 0.26171 0.95887 0.3828 0.0
H1597 H 0.26541 0.09534 0.39891 0.0
H1598 H 0.27119 0.06036 0.3955 0.0
C1599 C 0.26299 0.93853 0.38079 0.0
C1600 C 0.25802 0.99156 0.36839 0.0
H1601 H 0.27721 0.03965 0.36138 0.0
C1602 C 0.2396 0.99523 0.37744 0.0
C1603 C 0.27188 0.00774 0.36271 0.0
C1604 C 0.29226 0.00474 0.35372 0.0
C1605 C 0.23471 0.01463 0.38115 0.0
C1606 C 0.24835 0.03081 0.37509 0.0
C1607 C 0.26674 0.02718 0.36594 0.0
C1608 C 0.24394 0.05165 0.37826 0.0
C1609 C 0.21524 0.01757 0.39201 0.0
C1610 C 0.22652 0.05827 0.36997 0.0
C1611 C 0.223 0.0782 0.37214 0.0
C1612 C 0.23704 0.09194 0.38235 0.0
C1613 C 0.25427 0.08515 0.39098 0.0
C1614 C 0.25767 0.06519 0.38896 0.0
H1615 H 0.20969 0.00431 0.40054 0.0
H1616 H 0.21733 0.03071 0.40234 0.0
H1617 H 0.20327 0.02 0.38114 0.0
H1618 H 0.21594 0.04815 0.36132 0.0
H1619 H 0.20974 0.08298 0.36506 0.0
H1620 H 0.5864 0.70731 0.13356 0.0
H1621 H 0.55017 0.70941 0.12809 0.0
H1622 H 0.56481 0.75494 0.08554 0.0
H1623 H 0.60105 0.75356 0.09171 0.0
H1624 H 0.53803 0.76625 0.1098 0.0
H1625 H 0.5119 0.68917 0.08523 0.0
H1626 H 0.52451 0.68949 0.10868 0.0
H1627 H 0.53854 0.69817 0.0872 0.0
C1628 C 0.58186 0.71746 0.12275 0.0
C1629 C 0.59648 0.73023 0.11302 0.0
C1630 C 0.56115 0.7186 0.11956 0.0
C1631 C 0.55473 0.73211 0.10615 0.0
C1632 C 0.56938 0.74438 0.09592 0.0
H1633 H 0.42517 0.72603 0.08003 0.0
H1634 H 0.46203 0.72673 0.07647 0.0
C1635 C 0.59007 0.74355 0.09942 0.0
C1636 C 0.53282 0.73458 0.104 0.0
H1637 H 0.486 0.70877 0.09751 0.0
C1638 C 0.52667 0.75371 0.10681 0.0
C1639 C 0.51801 0.71832 0.09975 0.0
C1640 C 0.52362 0.6977 0.09482 0.0
C1641 C 0.50608 0.75693 0.10614 0.0
C1642 C 0.49117 0.74044 0.10337 0.0
C1643 C 0.49738 0.72141 0.0999 0.0
C1644 C 0.46905 0.74234 0.10447 0.0
C1645 C 0.50063 0.77799 0.10821 0.0
C1646 C 0.46071 0.75124 0.12121 0.0
C1647 C 0.43965 0.7513 0.12302 0.0
C1648 C 0.4266 0.74191 0.1084 0.0
C1649 C 0.43494 0.73332 0.09153 0.0
C1650 C 0.45597 0.73368 0.08951 0.0
H1651 H 0.51322 0.78879 0.10302 0.0
H1652 H 0.48666 0.77999 0.09972 0.0
H1653 H 0.49799 0.78164 0.12404 0.0
H1654 H 0.47039 0.75748 0.13324 0.0
H1655 H 0.43355 0.75775 0.1363 0.0
H1656 H 0.79712 0.89313 0.62981 0.0
H1657 H 0.80104 0.92958 0.63146 0.0
H1658 H 0.73776 0.92978 0.61613 0.0
H1659 H 0.73359 0.8935 0.61448 0.0
H1660 H 0.77002 0.95806 0.59528 0.0
H1661 H 0.77065 0.96051 0.67775 0.0
H1662 H 0.78672 0.94452 0.66484 0.0
H1663 H 0.75962 0.93893 0.66361 0.0
C1664 C 0.78411 0.90092 0.62652 0.0
C1665 C 0.765 0.89043 0.62214 0.0
C1666 C 0.78637 0.92169 0.62755 0.0
C1667 C 0.76963 0.93217 0.62406 0.0
C1668 C 0.7508 0.92182 0.61891 0.0
H1669 H 0.73403 0.04811 0.64626 0.0
H1670 H 0.73794 0.01256 0.64411 0.0
C1671 C 0.74847 0.90111 0.61803 0.0
C1672 C 0.7713 0.95393 0.62663 0.0
H1673 H 0.77155 0.99107 0.66192 0.0
C1674 C 0.77062 0.96537 0.6098 0.0
C1675 C 0.77184 0.96318 0.64565 0.0
C1676 C 0.77217 0.95125 0.66409 0.0
C1677 C 0.77018 0.986 0.61153 0.0
C1678 C 0.77047 0.99523 0.63057 0.0
C1679 C 0.77142 0.98382 0.64739 0.0
C1680 C 0.76882 0.01664 0.63322 0.0
C1681 C 0.76877 -0.00224 0.5931 0.0
C1682 C 0.7851 0.03051 0.62821 0.0
C1683 C 0.78299 0.05079 0.62946 0.0
C1684 C 0.7645 0.05749 0.63568 0.0
C1685 C 0.74843 0.04347 0.64131 0.0
C1686 C 0.75062 0.02319 0.64013 0.0
H1687 H 0.76594 0.98799 0.57966 0.0
H1688 H 0.75638 0.00756 0.59455 0.0
H1689 H 0.78325 0.0074 0.59107 0.0
H1690 H 0.79931 0.02562 0.62301 0.0
H1691 H 0.79573 0.06115 0.62509 0.0
H1692 H 0.24794 0.08538 0.60215 0.0
H1693 H 0.24622 0.04962 0.59502 0.0
H1694 H 0.20944 0.03863 0.64706 0.0
H1695 H 0.21035 0.07443 0.6537 0.0
H1696 H 0.26247 0.02527 0.61729 0.0
H1697 H 0.18081 -0.00151 0.6096 0.0
H1698 H 0.19007 0.02455 0.6092 0.0
H1699 H 0.18575 0.0124 0.63238 0.0
C1700 C 0.23902 0.07531 0.61173 0.0
C1701 C 0.22926 0.08259 0.62845 0.0
C1702 C 0.23807 0.05491 0.60768 0.0
C1703 C 0.2276 0.04141 0.62042 0.0
C1704 C 0.21716 0.04872 0.63671 0.0
H1705 H 0.26159 0.9249 0.64363 0.0
H1706 H 0.25746 0.96033 0.64306 0.0
C1707 C 0.21776 0.06918 0.64056 0.0
C1708 C 0.22971 0.01989 0.61802 0.0
H1709 H 0.20313 0.97379 0.61715 0.0
C1710 C 0.24945 0.01404 0.61698 0.0
C1711 C 0.21277 0.00522 0.61739 0.0
C1712 C 0.19117 0.0105 0.61698 0.0
C1713 C 0.25275 0.99394 0.61584 0.0
C1714 C 0.23586 0.97926 0.61651 0.0
C1715 C 0.21609 0.98508 0.61695 0.0
C1716 C 0.23838 0.95781 0.61689 0.0
C1717 C 0.2743 0.9887 0.61372 0.0
C1718 C 0.2285 0.94455 0.60277 0.0
C1719 C 0.23051 0.92426 0.60329 0.0
C1720 C 0.24255 0.91687 0.6179 0.0
C1721 C 0.25244 0.93018 0.63204 0.0
C1722 C 0.25017 0.95044 0.63167 0.0
H1723 H 0.28431 0.00093 0.60701 0.0
H1724 H 0.28052 0.98628 0.62857 0.0
H1725 H 0.27494 0.97495 0.60446 0.0
H1726 H 0.21926 0.94991 0.59128 0.0
H1727 H 0.22271 0.91438 0.59217 0.0
H1728 H 0.11156 0.2755 0.25364 0.0
H1729 H 0.10717 0.24375 0.27028 0.0
H1730 H 0.12103 0.27455 0.32627 0.0
H1731 H 0.12452 0.30628 0.30985 0.0
H1732 H 0.13528 0.22786 0.28768 0.0
H1733 H 0.07608 0.23549 0.34362 0.0
H1734 H 0.08022 0.2525 0.32363 0.0
H1735 H 0.09502 0.25641 0.34609 0.0
C1736 C 0.11332 0.27549 0.26955 0.0
C1737 C 0.11848 0.29333 0.28046 0.0
C1738 C 0.1107 0.25735 0.27906 0.0
C1739 C 0.11335 0.25671 0.29961 0.0
C1740 C 0.11816 0.27462 0.31053 0.0
H1741 H 0.17148 0.1978 0.37816 0.0
H1742 H 0.14728 0.21683 0.36201 0.0
C1743 C 0.12044 0.29277 0.30108 0.0
C1744 C 0.1141 0.2374 0.30927 0.0
H1745 H 0.10236 0.21389 0.35236 0.0
C1746 C 0.1275 0.22443 0.30147 0.0
C1747 C 0.10384 0.23276 0.32718 0.0
C1748 C 0.08782 0.24497 0.33544 0.0
C1749 C 0.13247 0.20813 0.31202 0.0
C1750 C 0.12373 0.20469 0.33084 0.0
C1751 C 0.10906 0.21662 0.33794 0.0
C1752 C 0.13298 0.19176 0.34466 0.0
C1753 C 0.1484 0.19577 0.30374 0.0
C1754 C 0.13201 0.1711 0.34117 0.0
C1755 C 0.14577 0.16011 0.3506 0.0
C1756 C 0.16068 0.16983 0.36335 0.0
C1757 C 0.16015 0.19005 0.36831 0.0
C1758 C 0.14629 0.2009 0.35914 0.0
H1759 H 0.15455 0.2012 0.28938 0.0
H1760 H 0.16124 0.19592 0.31435 0.0
H1761 H 0.14168 0.18012 0.30147 0.0
H1762 H 0.12177 0.16382 0.33003 0.0
H1763 H 0.14602 0.14454 0.34648 0.0
H1764 H 0.31276 0.7392 0.85019 0.0
H1765 H 0.28855 0.71406 0.83345 0.0
H1766 H 0.33573 0.69921 0.79334 0.0
H1767 H 0.35994 0.72437 0.81005 0.0
H1768 H 0.29728 0.71299 0.77702 0.0
H1769 H 0.28269 0.65094 0.82923 0.0
H1770 H 0.28907 0.67596 0.83896 0.0
H1771 H 0.30782 0.6636 0.82567 0.0
C1772 C 0.318 0.73019 0.83811 0.0
C1773 C 0.33821 0.73323 0.83166 0.0
C1774 C 0.30427 0.71581 0.82867 0.0
C1775 C 0.31052 0.70458 0.81243 0.0
C1776 C 0.33078 0.70749 0.80609 0.0
H1777 H 0.22253 0.62196 0.74384 0.0
H1778 H 0.25501 0.63613 0.7591 0.0
C1779 C 0.34455 0.72176 0.81564 0.0
C1780 C 0.29517 0.69208 0.80046 0.0
H1781 H 0.26094 0.65064 0.80171 0.0
C1782 C 0.28947 0.69924 0.78229 0.0
C1783 C 0.28516 0.67413 0.80737 0.0
C1784 C 0.2914 0.66554 0.82638 0.0
C1785 C 0.27322 0.68942 0.77134 0.0
C1786 C 0.26252 0.67205 0.77879 0.0
C1787 C 0.26901 0.66419 0.79631 0.0
C1788 C 0.2433 0.66317 0.76972 0.0
C1789 C 0.26719 0.69796 0.75216 0.0
C1790 C 0.22616 0.67365 0.77094 0.0
C1791 C 0.2078 0.66556 0.76252 0.0
C1792 C 0.20625 0.64677 0.75301 0.0
C1793 C 0.22344 0.63633 0.75149 0.0
C1794 C 0.24187 0.64438 0.76011 0.0
H1795 H 0.27974 0.70824 0.74608 0.0
H1796 H 0.26268 0.68594 0.74097 0.0
H1797 H 0.25392 0.70645 0.7548 0.0
H1798 H 0.22701 0.68811 0.77844 0.0
H1799 H 0.19482 0.67406 0.76333 0.0
H1800 H 0.83483 0.69868 0.29962 0.0
H1801 H 0.82944 0.72982 0.31721 0.0
H1802 H 0.88534 0.75794 0.29305 0.0
H1803 H 0.89073 0.72658 0.27535 0.0
H1804 H 0.85546 0.75485 0.34507 0.0
H1805 H 0.84023 0.79168 0.27482 0.0
H1806 H 0.84024 0.76506 0.27578 0.0
H1807 H 0.8638 0.7809 0.27725 0.0
C1808 C 0.84615 0.71141 0.29845 0.0
C1809 C 0.86346 0.71025 0.28672 0.0
C1810 C 0.84306 0.72916 0.30841 0.0
C1811 C 0.85703 0.74611 0.30644 0.0
C1812 C 0.87441 0.74499 0.29471 0.0
H1813 H 0.80897 0.85791 0.33989 0.0
H1814 H 0.83652 0.83715 0.33307 0.0
C1815 C 0.87747 0.72717 0.28468 0.0
C1816 C 0.85223 0.76512 0.3156 0.0
H1817 H 0.8313 0.80725 0.30435 0.0
C1818 C 0.8506 0.76654 0.33624 0.0
C1819 C 0.8462 0.78047 0.30399 0.0
C1820 C 0.84757 0.77957 0.28172 0.0
C1821 C 0.8416 0.78219 0.34552 0.0
C1822 C 0.83387 0.79656 0.33378 0.0
C1823 C 0.83721 0.79614 0.3133 0.0
C1824 C 0.81923 0.80981 0.34168 0.0
C1825 C 0.83957 0.78266 0.36772 0.0
C1826 C 0.80055 0.80134 0.34908 0.0
C1827 C 0.7848 0.81306 0.3528 0.0
C1828 C 0.78744 0.83348 0.34915 0.0
C1829 C 0.80654 0.8422 0.34287 0.0
C1830 C 0.82229 0.83039 0.33898 0.0
H1831 H 0.85218 0.77578 0.37475 0.0
H1832 H 0.83947 0.7981 0.37374 0.0
H1833 H 0.82507 0.77394 0.37182 0.0
H1834 H 0.7977 0.78542 0.35083 0.0
H1835 H 0.77027 0.80594 0.35768 0.0
H1836 H 0.76823 0.35087 0.74148 0.0
H1837 H 0.73953 0.33572 0.76054 0.0
H1838 H 0.77677 0.34044 0.81312 0.0
H1839 H 0.80553 0.35569 0.79425 0.0
H1840 H 0.76058 0.30053 0.79904 0.0
H1841 H 0.70105 0.35236 0.80619 0.0
H1842 H 0.71242 0.35035 0.78214 0.0
H1843 H 0.72764 0.36087 0.80261 0.0
C1844 C 0.77012 0.34932 0.75724 0.0
C1845 C 0.78919 0.35423 0.76632 0.0
C1846 C 0.75369 0.34073 0.76811 0.0
C1847 C 0.75611 0.337 0.78819 0.0
C1848 C 0.77465 0.3433 0.79763 0.0
H1849 H 0.6854 0.24719 0.85805 0.0
H1850 H 0.71175 0.2729 0.84723 0.0
C1851 C 0.79104 0.35202 0.78681 0.0
C1852 C 0.74062 0.32361 0.79829 0.0
H1853 H 0.69115 0.31847 0.81292 0.0
C1854 C 0.74547 0.30451 0.80247 0.0
C1855 C 0.72092 0.32882 0.80231 0.0
C1856 C 0.71514 0.34926 0.79823 0.0
C1857 C 0.73089 0.29015 0.81003 0.0
C1858 C 0.71109 0.29533 0.81417 0.0
C1859 C 0.70637 0.31459 0.81015 0.0
C1860 C 0.6948 0.28073 0.82173 0.0
C1861 C 0.73662 0.26934 0.81239 0.0
C1862 C 0.67617 0.27722 0.81157 0.0
C1863 C 0.66096 0.26307 0.81814 0.0
C1864 C 0.66413 0.25224 0.83496 0.0
C1865 C 0.68271 0.25555 0.84509 0.0
C1866 C 0.69777 0.27007 0.8388 0.0
H1867 H 0.74985 0.26644 0.803 0.0
H1868 H 0.74099 0.26748 0.82799 0.0
H1869 H 0.72374 0.25799 0.80847 0.0
H1870 H 0.67349 0.28523 0.79837 0.0
H1871 H 0.6468 0.26042 0.80996 0.0
H1872 H 0.21362 0.82129 0.65114 0.0
H1873 H 0.19444 0.78851 0.65434 0.0
H1874 H 0.23479 0.76337 0.61261 0.0
H1875 H 0.25449 0.79611 0.61011 0.0
H1876 H 0.17353 0.76336 0.62795 0.0
H1877 H 0.2385 0.72795 0.65844 0.0
H1878 H 0.23958 0.75441 0.65545 0.0
H1879 H 0.24269 0.73809 0.63443 0.0
C1880 C 0.21824 0.80873 0.6426 0.0
C1881 C 0.23514 0.81108 0.63007 0.0
C1882 C 0.20734 0.79006 0.64441 0.0
C1883 C 0.21327 0.77347 0.6338 0.0
C1884 C 0.23016 0.77588 0.62118 0.0
H1885 H 0.16483 0.65248 0.66327 0.0
H1886 H 0.17595 0.67857 0.63999 0.0
C1887 C 0.2413 0.79452 0.61967 0.0
C1888 C 0.20207 0.75365 0.63673 0.0
H1889 H 0.20707 0.70855 0.65622 0.0
C1890 C 0.1809 0.75127 0.63384 0.0
C1891 C 0.21176 0.73781 0.64432 0.0
C1892 C 0.23434 0.73966 0.64852 0.0
C1893 C 0.169 0.73394 0.63939 0.0
C1894 C 0.17857 0.71862 0.64792 0.0
C1895 C 0.19985 0.72035 0.64949 0.0
C1896 C 0.167 0.70258 0.65876 0.0
C1897 C 0.14621 0.73249 0.63696 0.0
C1898 C 0.15777 0.7075 0.67665 0.0
C1899 C 0.15181 0.69277 0.69002 0.0
C1900 C 0.15477 0.6729 0.68558 0.0
C1901 C 0.16225 0.66771 0.66691 0.0
C1902 C 0.16861 0.68255 0.65364 0.0
H1903 H 0.14178 0.74239 0.62529 0.0
H1904 H 0.13984 0.71696 0.63321 0.0
H1905 H 0.13932 0.73712 0.65109 0.0
H1906 H 0.15673 0.72291 0.68099 0.0
H1907 H 0.14607 0.69709 0.70434 0.0
H1908 H 0.69867 0.66997 0.10577 0.0
H1909 H 0.72795 0.65236 0.11392 0.0
H1910 H 0.70443 0.64406 0.17295 0.0
H1911 H 0.675 0.66092 0.16448 0.0
H1912 H 0.75289 0.67031 0.1395 0.0
H1913 H 0.73269 0.59535 0.16715 0.0
H1914 H 0.7153 0.60744 0.15222 0.0
H1915 H 0.71644 0.6118 0.17868 0.0
C1916 C 0.69923 0.66323 0.12004 0.0
C1917 C 0.68457 0.6664 0.13444 0.0
C1918 C 0.716 0.65331 0.12476 0.0
C1919 C 0.71844 0.64676 0.14404 0.0
C1920 C 0.70273 0.6484 0.15783 0.0
H1921 H 0.79793 0.65636 0.23677 0.0
H1922 H 0.77118 0.64962 0.21192 0.0
C1923 C 0.68588 0.6581 0.15302 0.0
C1924 C 0.73884 0.64289 0.1512 0.0
H1925 H 0.76159 0.61526 0.18428 0.0
C1926 C 0.75502 0.65786 0.14871 0.0
C1927 C 0.74172 0.62669 0.16321 0.0
C1928 C 0.72561 0.60934 0.16526 0.0
C1929 C 0.77319 0.65812 0.15942 0.0
C1930 C 0.77527 0.6429 0.17285 0.0
C1931 C 0.75984 0.62702 0.1741 0.0
C1932 C 0.79175 0.64495 0.18777 0.0
C1933 C 0.78932 0.67553 0.15757 0.0
C1934 C 0.8122 0.64439 0.1824 0.0
C1935 C 0.82762 0.64836 0.19661 0.0
C1936 C 0.82275 0.65296 0.21635 0.0
C1937 C 0.80221 0.65302 0.22168 0.0
C1938 C 0.78688 0.64902 0.20753 0.0
H1939 H 0.78444 0.68709 0.14785 0.0
H1940 H 0.79319 0.68248 0.17237 0.0
H1941 H 0.80335 0.67025 0.15129 0.0
H1942 H 0.81621 0.64117 0.16721 0.0
H1943 H 0.84331 0.64804 0.1921 0.0
H1944 H 0.77964 0.1553 0.66918 0.0
H1945 H 0.79589 0.1891 0.67634 0.0
H1946 H 0.76311 0.21077 0.62786 0.0
H1947 H 0.74703 0.17682 0.62048 0.0
H1948 H 0.81861 0.21753 0.64471 0.0
H1949 H 0.75052 0.24246 0.68281 0.0
H1950 H 0.75484 0.21654 0.6813 0.0
H1951 H 0.74737 0.22853 0.65966 0.0
C1952 C 0.77628 0.16725 0.65984 0.0
C1953 C 0.76277 0.16356 0.64388 0.0
C1954 C 0.78542 0.18647 0.66399 0.0
C1955 C 0.78075 0.20224 0.65249 0.0
C1956 C 0.76694 0.19866 0.63675 0.0
H1957 H 0.81306 0.32738 0.68373 0.0
H1958 H 0.80078 0.29735 0.66425 0.0
C1959 C 0.75782 0.1794 0.63257 0.0
C1960 C 0.78982 0.22256 0.6576 0.0
H1961 H 0.78028 0.26479 0.68302 0.0
C1962 C 0.8103 0.22793 0.653 0.0
C1963 C 0.77868 0.23609 0.6681 0.0
C1964 C 0.75663 0.23075 0.67338 0.0
C1965 C 0.82019 0.24644 0.65921 0.0
C1966 C 0.8093 0.25966 0.67046 0.0
C1967 C 0.78857 0.25456 0.67437 0.0
C1968 C 0.81932 0.27824 0.67962 0.0
C1969 C 0.84212 0.25179 0.65363 0.0
C1970 C 0.83395 0.2774 0.69452 0.0
C1971 C 0.84105 0.29454 0.70552 0.0
C1972 C 0.83378 0.31271 0.70158 0.0
C1973 C 0.81942 0.31362 0.68647 0.0
C1974 C 0.81232 0.2965 0.67547 0.0
H1975 H 0.84703 0.24181 0.64161 0.0
H1976 H 0.84442 0.26735 0.64876 0.0
H1977 H 0.852 0.25057 0.66669 0.0
H1978 H 0.83909 0.26333 0.69832 0.0
H1979 H 0.85175 0.29351 0.71747 0.0
H1980 H 0.18985 0.37426 0.24382 0.0
H1981 H 0.22276 0.37593 0.22677 0.0
H1982 H 0.19702 0.33218 0.18346 0.0
H1983 H 0.16427 0.33057 0.20049 0.0
H1984 H 0.24355 0.34398 0.22398 0.0
H1985 H 0.23223 0.36918 0.14839 0.0
H1986 H 0.21632 0.37514 0.16896 0.0
H1987 H 0.21168 0.35147 0.15582 0.0
C1988 C 0.19118 0.36549 0.2303 0.0
C1989 C 0.17452 0.35271 0.22305 0.0
C1990 C 0.2099 0.3665 0.22056 0.0
C1991 C 0.21226 0.35455 0.20357 0.0
C1992 C 0.19541 0.34209 0.19611 0.0
H1993 H 0.27538 0.27669 0.1499 0.0
H1994 H 0.25524 0.30318 0.16027 0.0
C1995 C 0.17672 0.34109 0.20585 0.0
C1996 C 0.23281 0.35222 0.19567 0.0
H1997 H 0.25738 0.34583 0.15201 0.0
C1998 C 0.24697 0.34507 0.20835 0.0
C1999 C 0.2374 0.3539 0.17536 0.0
C2000 C 0.22367 0.36305 0.16137 0.0
C2001 C 0.26438 0.33734 0.20087 0.0
C2002 C 0.26767 0.33693 0.18023 0.0
C2003 C 0.25471 0.34605 0.16783 0.0
C2004 C 0.28096 0.32303 0.17113 0.0
C2005 C 0.27798 0.32781 0.21481 0.0
C2006 C 0.30223 0.32573 0.17324 0.0
C2007 C 0.31389 0.3105 0.1672 0.0
C2008 C 0.30428 0.29245 0.15926 0.0
C2009 C 0.28316 0.29036 0.15619 0.0
C2010 C 0.27164 0.30553 0.16199 0.0
H2011 H 0.27294 0.32894 0.23043 0.0
H2012 H 0.27824 0.31185 0.21057 0.0
H2013 H 0.29378 0.33514 0.21379 0.0
H2014 H 0.30966 0.33922 0.1802 0.0
H2015 H 0.33018 0.31243 0.16969 0.0
H2016 H 0.29005 0.20885 0.18294 0.0
H2017 H 0.27828 0.19095 0.21224 0.0
H2018 H 0.34066 0.18828 0.23015 0.0
H2019 H 0.35229 0.20795 0.20164 0.0
H2020 H 0.28056 0.15762 0.22719 0.0
H2021 H 0.32167 0.21435 0.278 0.0
H2022 H 0.32097 0.2174 0.25173 0.0
H2023 H 0.33825 0.2017 0.26229 0.0
C2024 C 0.30118 0.20422 0.1931 0.0
C2025 C 0.32199 0.20942 0.19014 0.0
C2026 C 0.2945 0.19399 0.2098 0.0
C2027 C 0.30857 0.18864 0.22371 0.0
C2028 C 0.3295 0.19286 0.22006 0.0
H2029 H 0.24737 0.12304 0.32159 0.0
H2030 H 0.26894 0.12983 0.29259 0.0
C2031 C 0.33615 0.2038 0.20369 0.0
C2032 C 0.30098 0.17994 0.24248 0.0
H2033 H 0.30217 0.18786 0.29245 0.0
C2034 C 0.2853 0.1642 0.24151 0.0
C2035 C 0.30712 0.18862 0.26114 0.0
C2036 C 0.32277 0.20656 0.2634 0.0
C2037 C 0.27466 0.15777 0.25846 0.0
C2038 C 0.28086 0.16641 0.27713 0.0
C2039 C 0.29744 0.18123 0.27819 0.0
C2040 C 0.26931 0.16188 0.29552 0.0
C2041 C 0.25608 0.14284 0.25582 0.0
C2042 C 0.26338 0.17759 0.30754 0.0
C2043 C 0.25209 0.1737 0.32463 0.0
C2044 C 0.24635 0.15406 0.32981 0.0
C2045 C 0.25197 0.13831 0.31782 0.0
C2046 C 0.26397 0.14219 0.30113 0.0
H2047 H 0.25014 0.14235 0.24044 0.0
H2048 H 0.26019 0.12778 0.25896 0.0
H2049 H 0.24366 0.14636 0.26596 0.0
H2050 H 0.26719 0.19292 0.30354 0.0
H2051 H 0.24741 0.186 0.33352 0.0
H2052 H 0.36593 0.83922 0.82739 0.0
H2053 H 0.35386 0.85918 0.80118 0.0
H2054 H 0.37233 0.81729 0.75725 0.0
H2055 H 0.38431 0.79715 0.78327 0.0
H2056 H 0.37113 0.8748 0.76039 0.0
H2057 H 0.30676 0.81457 0.75931 0.0
H2058 H 0.32412 0.81904 0.77994 0.0
H2059 H 0.33182 0.80658 0.75782 0.0
C2060 C 0.36802 0.83458 0.81213 0.0
C2061 C 0.37572 0.81643 0.80737 0.0
C2062 C 0.36117 0.84605 0.7972 0.0
C2063 C 0.36205 0.83953 0.77739 0.0
C2064 C 0.37151 0.82246 0.77251 0.0
H2065 H 0.32471 0.87401 0.66476 0.0
H2066 H 0.34389 0.87142 0.69515 0.0
C2067 C 0.37829 0.81096 0.7874 0.0
C2068 C 0.35007 0.84836 0.76226 0.0
H2069 H 0.30736 0.83788 0.73412 0.0
C2070 C 0.3571 0.86689 0.75468 0.0
C2071 C 0.33158 0.83814 0.75526 0.0
C2072 C 0.32295 0.81855 0.76356 0.0
C2073 C 0.34639 0.87511 0.73956 0.0
C2074 C 0.32842 0.86434 0.73184 0.0
C2075 C 0.3211 0.84617 0.74004 0.0
C2076 C 0.31759 0.87054 0.71431 0.0
C2077 C 0.3544 0.89517 0.73201 0.0
C2078 C 0.29643 0.87121 0.71495 0.0
C2079 C 0.28535 0.87229 0.69753 0.0
C2080 C 0.29529 0.87279 0.67918 0.0
C2081 C 0.31663 0.87365 0.67869 0.0
C2082 C 0.32767 0.87236 0.6961 0.0
H2083 H 0.36358 0.9042 0.74349 0.0
H2084 H 0.36444 0.89305 0.71915 0.0
H2085 H 0.34183 0.90358 0.72722 0.0
H2086 H 0.28834 0.86976 0.72885 0.0
H2087 H 0.26894 0.87174 0.69837 0.0
H2088 H 0.71094 0.86171 0.28535 0.0
H2089 H 0.69288 0.8398 0.26006 0.0
H2090 H 0.67794 0.79547 0.30374 0.0
H2091 H 0.69682 0.81695 0.32868 0.0
H2092 H 0.69627 0.78072 0.2728 0.0
H2093 H 0.6343 0.82184 0.24591 0.0
H2094 H 0.65847 0.83672 0.24596 0.0
H2095 H 0.64749 0.82828 0.26895 0.0
C2096 C 0.70333 0.84748 0.28953 0.0
C2097 C 0.7046 0.84117 0.30896 0.0
C2098 C 0.69287 0.83507 0.27519 0.0
C2099 C 0.68368 0.81619 0.28013 0.0
C2100 C 0.68466 0.81009 0.29969 0.0
H2101 H 0.62459 0.73642 0.18703 0.0
H2102 H 0.62997 0.75572 0.21841 0.0
C2103 C 0.69527 0.82241 0.31394 0.0
C2104 C 0.67576 0.80176 0.26443 0.0
H2105 H 0.64467 0.796 0.22403 0.0
C2106 C 0.68474 0.78394 0.26232 0.0
C2107 C 0.66055 0.80584 0.25092 0.0
C2108 C 0.64949 0.82413 0.25314 0.0
C2109 C 0.67971 0.77057 0.24646 0.0
C2110 C 0.66563 0.77538 0.23216 0.0
C2111 C 0.65574 0.79258 0.23486 0.0
C2112 C 0.66219 0.7635 0.21361 0.0
C2113 C 0.68976 0.75158 0.245 0.0
C2114 C 0.6785 0.76168 0.20064 0.0
C2115 C 0.67541 0.75085 0.18287 0.0
C2116 C 0.65592 0.74209 0.17765 0.0
C2117 C 0.63965 0.7435 0.19074 0.0
C2118 C 0.64271 0.75443 0.20855 0.0
H2119 H 0.69476 0.74716 0.25974 0.0
H2120 H 0.67934 0.73918 0.23835 0.0
H2121 H 0.70345 0.75391 0.23551 0.0
H2122 H 0.69358 0.76882 0.20417 0.0
H2123 H 0.68824 0.74939 0.17315 0.0
H2124 H 0.67018 0.10108 0.65935 0.0
H2125 H 0.64513 0.10721 0.68492 0.0
H2126 H 0.69227 0.11153 0.72929 0.0
H2127 H 0.71742 0.1056 0.70392 0.0
H2128 H 0.64043 0.09089 0.73401 0.0
H2129 H 0.6652 0.16916 0.71411 0.0
H2130 H 0.66389 0.14898 0.69593 0.0
H2131 H 0.68376 0.1515 0.71412 0.0
C2132 C 0.67509 0.10265 0.67464 0.0
C2133 C 0.6958 0.10318 0.67963 0.0
C2134 C 0.66074 0.10607 0.6892 0.0
C2135 C 0.66695 0.10982 0.70889 0.0
C2136 C 0.68725 0.10853 0.71415 0.0
H2137 H 0.6311 0.15092 0.82094 0.0
H2138 H 0.63773 0.12932 0.79267 0.0
C2139 C 0.7016 0.10526 0.69962 0.0
C2140 C 0.65359 0.11893 0.72314 0.0
H2141 H 0.64532 0.16435 0.7425 0.0
C2142 C 0.64115 0.10693 0.73576 0.0
C2143 C 0.65447 0.13982 0.72511 0.0
C2144 C 0.66746 0.15324 0.71161 0.0
C2145 C 0.63004 0.11547 0.75094 0.0
C2146 C 0.63194 0.13643 0.7537 0.0
C2147 C 0.64374 0.1483 0.74041 0.0
C2148 C 0.62366 0.14664 0.77117 0.0
C2149 C 0.61654 0.10194 0.76386 0.0
C2150 C 0.61331 0.16348 0.76865 0.0
C2151 C 0.61008 0.17617 0.78473 0.0
C2152 C 0.61684 0.17206 0.80367 0.0
C2153 C 0.62563 0.15436 0.8065 0.0
C2154 C 0.62925 0.14188 0.79033 0.0
H2155 H 0.61059 0.08809 0.75558 0.0
H2156 H 0.62557 0.0976 0.77652 0.0
H2157 H 0.60348 0.10936 0.76969 0.0
H2158 H 0.60885 0.16747 0.75402 0.0
H2159 H 0.60313 0.18966 0.78219 0.0
H2160 H 0.8454 0.81873 0.60658 0.0
H2161 H 0.87272 0.7968 0.60576 0.0
H2162 H 0.82955 0.7478 0.62268 0.0
H2163 H 0.80253 0.76912 0.62278 0.0
H2164 H 0.88718 0.78081 0.63531 0.0
H2165 H 0.86196 0.71794 0.58613 0.0
H2166 H 0.85094 0.74117 0.58468 0.0
H2167 H 0.84003 0.72183 0.60059 0.0
C2168 C 0.84174 0.80312 0.60956 0.0
C2169 C 0.82186 0.79566 0.61488 0.0
C2170 C 0.85733 0.79061 0.60904 0.0
C2171 C 0.85321 0.77048 0.61371 0.0
C2172 C 0.83314 0.763 0.61822 0.0
H2173 H 0.87686 0.71289 0.70356 0.0
H2174 H 0.88006 0.73697 0.67783 0.0
C2175 C 0.81766 0.77536 0.61862 0.0
C2176 C 0.86978 0.75791 0.61755 0.0
H2177 H 0.8739 0.70843 0.62019 0.0
C2178 C 0.88487 0.76507 0.63136 0.0
C2179 C 0.86791 0.73753 0.61172 0.0
C2180 C 0.85446 0.72934 0.59474 0.0
C2181 C 0.89525 0.75186 0.64205 0.0
C2182 C 0.88966 0.73117 0.63939 0.0
C2183 C 0.87755 0.72427 0.62303 0.0
C2184 C 0.89171 0.71728 0.65566 0.0
C2185 C 0.91087 0.76025 0.65716 0.0
C2186 C 0.89679 0.69786 0.65191 0.0
C2187 C 0.89436 0.68372 0.66665 0.0
C2188 C 0.88684 0.68883 0.68536 0.0
C2189 C 0.88275 0.70847 0.68934 0.0
C2190 C 0.88493 0.72243 0.67463 0.0
H2191 H 0.9206 0.77301 0.65103 0.0
H2192 H 0.90306 0.76602 0.67032 0.0
H2193 H 0.92073 0.74894 0.66183 0.0
H2194 H 0.90184 0.69342 0.63736 0.0
H2195 H 0.89772 0.66868 0.66321 0.0
H2196 H 0.64234 0.29058 0.16253 0.0
H2197 H 0.66672 0.31625 0.17794 0.0
H2198 H 0.71495 0.29488 0.14298 0.0
H2199 H 0.69036 0.26952 0.1271 0.0
H2200 H 0.69874 0.30534 0.19982 0.0
H2201 H 0.72804 0.35552 0.14042 0.0
H2202 H 0.70334 0.34124 0.13935 0.0
H2203 H 0.72582 0.32942 0.1338 0.0
C2204 C 0.65802 0.29192 0.15761 0.0
C2205 C 0.66449 0.27861 0.14323 0.0
C2206 C 0.67191 0.30647 0.16648 0.0
C2207 C 0.69253 0.30771 0.16131 0.0
C2208 C 0.69899 0.29456 0.14673 0.0
H2209 H 0.80459 0.33771 0.2179 0.0
H2210 H 0.77468 0.32552 0.19792 0.0
C2211 C 0.68504 0.28 0.13781 0.0
C2212 C 0.70768 0.32059 0.1732 0.0
H2213 H 0.74772 0.3566 0.17002 0.0
C2214 C 0.70924 0.31678 0.19338 0.0
C2215 C 0.72128 0.33551 0.16473 0.0
C2216 C 0.71953 0.34085 0.14341 0.0
C2217 C 0.72477 0.32679 0.20508 0.0
C2218 C 0.73896 0.34094 0.19635 0.0
C2219 C 0.73687 0.34552 0.17647 0.0
C2220 C 0.75723 0.34942 0.20723 0.0
C2221 C 0.72656 0.32165 0.22649 0.0
C2222 C 0.7571 0.36685 0.21897 0.0
C2223 C 0.77421 0.37386 0.23031 0.0
C2224 C 0.79161 0.36367 0.22962 0.0
C2225 C 0.79155 0.34614 0.21803 0.0
C2226 C 0.77452 0.33915 0.20675 0.0
H2227 H 0.71344 0.31132 0.23141 0.0
H2228 H 0.74075 0.31456 0.22868 0.0
H2229 H 0.72759 0.3354 0.23599 0.0
H2230 H 0.74369 0.37475 0.21962 0.0
H2231 H 0.77389 0.38718 0.23957 0.0
H2232 H 0.09892 0.30924 0.71746 0.0
H2233 H 0.09966 0.27792 0.69844 0.0
H2234 H 0.1298 0.25346 0.74714 0.0
H2235 H 0.12829 0.2842 0.76638 0.0
H2236 H 0.13186 0.26443 0.68578 0.0
H2237 H 0.09368 0.20548 0.73063 0.0
H2238 H 0.0907 0.23138 0.73565 0.0
H2239 H 0.11172 0.22023 0.74615 0.0
C2240 C 0.10524 0.29697 0.72425 0.0
C2241 C 0.11364 0.29918 0.74336 0.0
C2242 C 0.10559 0.27907 0.71339 0.0
C2243 C 0.11447 0.26313 0.72143 0.0
C2244 C 0.12221 0.26518 0.7408 0.0
H2245 H 0.20233 0.19809 0.68049 0.0
H2246 H 0.17806 0.22095 0.69043 0.0
C2247 C 0.12159 0.28292 0.75173 0.0
C2248 C 0.11875 0.24573 0.70879 0.0
H2249 H 0.12339 0.19611 0.71126 0.0
C2250 C 0.12938 0.2494 0.69108 0.0
C2251 C 0.11516 0.22595 0.71524 0.0
C2252 C 0.10196 0.22057 0.73285 0.0
C2253 C 0.1384 0.23428 0.68093 0.0
C2254 C 0.13722 0.21518 0.68898 0.0
C2255 C 0.12471 0.21092 0.70538 0.0
C2256 C 0.15142 0.20077 0.68259 0.0
C2257 C 0.1501 0.23921 0.66226 0.0
C2258 C 0.14447 0.18151 0.67551 0.0
C2259 C 0.15845 0.1682 0.66987 0.0
C2260 C 0.1795 0.17399 0.67146 0.0
C2261 C 0.18625 0.19317 0.67891 0.0
C2262 C 0.17238 0.20635 0.68449 0.0
H2263 H 0.14355 0.25117 0.65431 0.0
H2264 H 0.16608 0.24469 0.66614 0.0
H2265 H 0.15014 0.22596 0.65215 0.0
H2266 H 0.12831 0.17687 0.6742 0.0
H2267 H 0.15282 0.15347 0.66424 0.0
H2268 H 0.21811 0.61239 0.23831 0.0
H2269 H 0.24711 0.62261 0.2167 0.0
H2270 H 0.21251 0.66547 0.19023 0.0
H2271 H 0.18384 0.65558 0.21193 0.0
H2272 H 0.23723 0.64027 0.16304 0.0
H2273 H 0.27862 0.68045 0.22669 0.0
H2274 H 0.26843 0.65493 0.22952 0.0
H2275 H 0.25145 0.67367 0.22713 0.0
C2276 C 0.2167 0.62372 0.22759 0.0
C2277 C 0.19869 0.63283 0.22622 0.0
C2278 C 0.23316 0.62952 0.21533 0.0
C2279 C 0.23179 0.64469 0.20189 0.0
C2280 C 0.21369 0.65357 0.20037 0.0
H2281 H 0.29916 0.7239 0.12556 0.0
H2282 H 0.27381 0.7 0.14085 0.0
C2283 C 0.19734 0.64785 0.21265 0.0
C2284 C 0.24966 0.65276 0.19061 0.0
H2285 H 0.29308 0.68458 0.19532 0.0
C2286 C 0.2496 0.64977 0.17003 0.0
C2287 C 0.26573 0.66503 0.19993 0.0
C2288 C 0.26618 0.66888 0.22202 0.0
C2289 C 0.26509 0.65919 0.15839 0.0
C2290 C 0.28068 0.67223 0.16761 0.0
C2291 C 0.28109 0.67458 0.18829 0.0
C2292 C 0.29598 0.68469 0.1562 0.0
C2293 C 0.26485 0.65492 0.13642 0.0
C2294 C 0.31677 0.68428 0.16008 0.0
C2295 C 0.33113 0.69813 0.15167 0.0
C2296 C 0.32496 0.71233 0.13895 0.0
C2297 C 0.30422 0.7127 0.13493 0.0
C2298 C 0.28981 0.69893 0.14346 0.0
H2299 H 0.25452 0.64138 0.13227 0.0
H2300 H 0.25962 0.66765 0.12866 0.0
H2301 H 0.28041 0.65284 0.13129 0.0
H2302 H 0.32183 0.67367 0.17015 0.0
H2303 H 0.34702 0.69813 0.15559 0.0
H2304 H 0.83808 0.30979 0.28289 0.0
H2305 H 0.83196 0.28458 0.30774 0.0
H2306 H 0.82731 0.33031 0.35286 0.0
H2307 H 0.83347 0.35587 0.3279 0.0
H2308 H 0.85192 0.27928 0.34661 0.0
H2309 H 0.7707 0.29476 0.35073 0.0
H2310 H 0.78662 0.30328 0.33037 0.0
H2311 H 0.79073 0.31479 0.35447 0.0
C2312 C 0.83604 0.31455 0.29813 0.0
C2313 C 0.836 0.33476 0.30344 0.0
C2314 C 0.83267 0.30014 0.31232 0.0
C2315 C 0.82907 0.30565 0.33204 0.0
C2316 C 0.82998 0.32585 0.33765 0.0
H2317 H 0.76221 0.20564 0.39031 0.0
H2318 H 0.78262 0.23825 0.3909 0.0
C2319 C 0.83351 0.34037 0.32341 0.0
C2320 C 0.82236 0.28986 0.34584 0.0
H2321 H 0.77853 0.26403 0.36155 0.0
C2322 C 0.83599 0.27618 0.35048 0.0
C2323 C 0.80163 0.28603 0.35104 0.0
C2324 C 0.78645 0.3004 0.34644 0.0
C2325 C 0.82905 0.25791 0.35861 0.0
C2326 C 0.80797 0.25313 0.36171 0.0
C2327 C 0.79469 0.26767 0.35901 0.0
C2328 C 0.7989 0.23237 0.36396 0.0
C2329 C 0.84416 0.24347 0.36288 0.0
C2330 C 0.80136 0.2183 0.34869 0.0
C2331 C 0.78965 0.19989 0.34827 0.0
C2332 C 0.77555 0.19511 0.36328 0.0
C2333 C 0.77338 0.20893 0.37883 0.0
C2334 C 0.78504 0.22745 0.37921 0.0
H2335 H 0.85941 0.25137 0.36638 0.0
H2336 H 0.83904 0.23408 0.37546 0.0
H2337 H 0.84572 0.23372 0.3496 0.0
H2338 H 0.81139 0.22202 0.33638 0.0
H2339 H 0.79089 0.18978 0.3357 0.0
H2340 H 0.16183 0.34054 0.81885 0.0
H2341 H 0.1961 0.33967 0.83219 0.0
H2342 H 0.22063 0.37813 0.78642 0.0
H2343 H 0.18609 0.37976 0.77358 0.0
H2344 H 0.23359 0.33757 0.78839 0.0
H2345 H 0.2425 0.38081 0.85922 0.0
H2346 H 0.21882 0.36516 0.85686 0.0
H2347 H 0.22426 0.3855 0.84048 0.0
C2348 C 0.17442 0.34963 0.81232 0.0
C2349 C 0.17137 0.3608 0.7957 0.0
C2350 C 0.19397 0.34906 0.81986 0.0
C2351 C 0.2108 0.35914 0.81048 0.0
C2352 C 0.20776 0.37062 0.79407 0.0
H2353 H 0.32435 0.30434 0.82648 0.0
H2354 H 0.30381 0.32977 0.81471 0.0
C2355 C 0.18812 0.37146 0.78673 0.0
C2356 C 0.23137 0.35442 0.81562 0.0
H2357 H 0.2637 0.3541 0.85475 0.0
C2358 C 0.24059 0.34156 0.80267 0.0
C2359 C 0.24025 0.3597 0.83423 0.0
C2360 C 0.23104 0.37372 0.84846 0.0
C2361 C 0.25739 0.33221 0.80862 0.0
C2362 C 0.26559 0.33653 0.82781 0.0
C2363 C 0.25739 0.35078 0.84007 0.0
C2364 C 0.28012 0.32409 0.83658 0.0
C2365 C 0.26494 0.31653 0.79494 0.0
C2366 C 0.2742 0.3133 0.8534 0.0
C2367 C 0.28622 0.29937 0.86046 0.0
C2368 C 0.30447 0.29618 0.85099 0.0
C2369 C 0.31065 0.30715 0.83439 0.0
C2370 C 0.29878 0.32139 0.82749 0.0
H2371 H 0.25437 0.31241 0.78236 0.0
H2372 H 0.27988 0.32229 0.78874 0.0
H2373 H 0.26693 0.30285 0.80304 0.0
H2374 H 0.2598 0.31501 0.86056 0.0
H2375 H 0.28102 0.29071 0.87304 0.0
H2376 H 0.22185 0.83426 0.33174 0.0
H2377 H 0.20056 0.80264 0.32666 0.0
H2378 H 0.23629 0.77582 0.36974 0.0
H2379 H 0.25798 0.8074 0.37433 0.0
H2380 H 0.23398 0.75501 0.33621 0.0
H2381 H 0.15565 0.77088 0.35518 0.0
H2382 H 0.16869 0.78919 0.33974 0.0
H2383 H 0.17808 0.78591 0.36427 0.0
C2384 C 0.22469 0.82174 0.34055 0.0
C2385 C 0.24115 0.82325 0.35376 0.0
C2386 C 0.21246 0.80371 0.33774 0.0
C2387 C 0.21651 0.78691 0.34816 0.0
C2388 C 0.23273 0.78862 0.36172 0.0
H2389 H 0.16891 0.66221 0.32262 0.0
H2390 H 0.18122 0.6926 0.34168 0.0
C2391 C 0.2451 0.80659 0.36433 0.0
C2392 C 0.20577 0.76708 0.34281 0.0
H2393 H 0.15866 0.7421 0.33444 0.0
C2394 C 0.21752 0.75207 0.33625 0.0
C2395 C 0.18428 0.7632 0.34281 0.0
C2396 C 0.17089 0.77808 0.35104 0.0
C2397 C 0.20837 0.7337 0.32883 0.0
C2398 C 0.18694 0.73028 0.32798 0.0
C2399 C 0.17512 0.74491 0.33512 0.0
C2400 C 0.17675 0.71231 0.3179 0.0
C2401 C 0.22161 0.71837 0.32105 0.0
C2402 C 0.16964 0.71359 0.29855 0.0
C2403 C 0.16276 0.69636 0.28764 0.0
C2404 C 0.16277 0.67762 0.296 0.0
C2405 C 0.16872 0.67647 0.31583 0.0
C2406 C 0.17578 0.69375 0.32671 0.0
H2407 H 0.23805 0.72392 0.32152 0.0
H2408 H 0.21917 0.70489 0.33004 0.0
H2409 H 0.21731 0.7139 0.30556 0.0
H2410 H 0.17031 0.72784 0.29159 0.0
H2411 H 0.15816 0.6977 0.27242 0.0
H2412 H 0.80691 0.62316 0.73322 0.0
H2413 H 0.77268 0.6268 0.74631 0.0
H2414 H 0.7953 0.68338 0.77358 0.0
H2415 H 0.82931 0.67976 0.76047 0.0
H2416 H 0.76077 0.63246 0.787 0.0
H2417 H 0.74538 0.695 0.74056 0.0
H2418 H 0.76488 0.679 0.73463 0.0
H2419 H 0.76975 0.69916 0.75256 0.0
C2420 C 0.80444 0.63627 0.74211 0.0
C2421 C 0.82063 0.65093 0.74645 0.0
C2422 C 0.785 0.63835 0.74951 0.0
C2423 C 0.78151 0.65541 0.76074 0.0
C2424 C 0.79768 0.67021 0.76474 0.0
H2425 H 0.71286 0.69855 0.8487 0.0
H2426 H 0.73294 0.67748 0.82835 0.0
C2427 C 0.81708 0.66805 0.7575 0.0
C2428 C 0.76113 0.65793 0.76867 0.0
H2429 H 0.72633 0.69152 0.77085 0.0
C2430 C 0.75302 0.64516 0.78329 0.0
C2431 C 0.75069 0.6741 0.76328 0.0
C2432 C 0.758 0.68748 0.74674 0.0
C2433 C 0.73572 0.64929 0.79401 0.0
C2434 C 0.7265 0.66662 0.78995 0.0
C2435 C 0.73352 0.67831 0.77408 0.0
C2436 C 0.71188 0.67475 0.80365 0.0
C2437 C 0.72789 0.63557 0.81008 0.0
C2438 C 0.69329 0.68 0.79659 0.0
C2439 C 0.68188 0.69211 0.80822 0.0
C2440 C 0.68888 0.69892 0.82704 0.0
C2441 C 0.70701 0.693 0.8344 0.0
C2442 C 0.71835 0.68085 0.82285 0.0
H2443 H 0.73192 0.62023 0.80711 0.0
H2444 H 0.73495 0.64102 0.82438 0.0
H2445 H 0.71111 0.63509 0.81155 0.0
H2446 H 0.68824 0.67573 0.78169 0.0
H2447 H 0.66826 0.69712 0.80205 0.0
H2448 H 0.77025 0.85802 0.68444 0.0
H2449 H 0.75707 0.85614 0.71842 0.0
H2450 H 0.7305 0.79599 0.70581 0.0
H2451 H 0.74368 0.79788 0.67195 0.0
H2452 H 0.71526 0.84753 0.73059 0.0
H2453 H 0.76481 0.79281 0.75685 0.0
H2454 H 0.77058 0.80729 0.73518 0.0
H2455 H 0.7526 0.78537 0.7337 0.0
C2456 C 0.7615 0.84448 0.68903 0.0
C2457 C 0.75734 0.82828 0.67565 0.0
C2458 C 0.75406 0.84341 0.70833 0.0
C2459 C 0.74298 0.82589 0.71458 0.0
C2460 C 0.73922 0.80956 0.70128 0.0
H2461 H 0.65779 0.77793 0.79157 0.0
H2462 H 0.67596 0.79835 0.76673 0.0
C2463 C 0.7465 0.8107 0.68196 0.0
C2464 C 0.73485 0.82458 0.73485 0.0
H2465 H 0.73407 0.79573 0.77524 0.0
C2466 C 0.71941 0.83632 0.74042 0.0
C2467 C 0.74095 0.81053 0.748 0.0
C2468 C 0.7583 0.79841 0.74325 0.0
C2469 C 0.7085 0.83294 0.75798 0.0
C2470 C 0.71356 0.8178 0.77034 0.0
C2471 C 0.73019 0.80731 0.76563 0.0
C2472 C 0.70019 0.81041 0.78653 0.0
C2473 C 0.69109 0.84491 0.76282 0.0
C2474 C 0.70747 0.8111 0.80603 0.0
C2475 C 0.69695 0.79963 0.82034 0.0
C2476 C 0.67937 0.787 0.81509 0.0
C2477 C 0.67133 0.78754 0.79594 0.0
C2478 C 0.68163 0.79925 0.78178 0.0
H2479 H 0.6923 0.85902 0.75472 0.0
H2480 H 0.67656 0.83607 0.75847 0.0
H2481 H 0.6905 0.84838 0.77894 0.0
H2482 H 0.7219 0.81949 0.80984 0.0
H2483 H 0.70352 0.79935 0.83497 0.0
H2484 H 0.6739 0.13939 0.32563 0.0
H2485 H 0.65044 0.14157 0.29783 0.0
H2486 H 0.69831 0.1751 0.2658 0.0
H2487 H 0.7218 0.17245 0.29302 0.0
H2488 H 0.63653 0.17247 0.28106 0.0
H2489 H 0.6789 0.13356 0.22475 0.0
H2490 H 0.68463 0.13287 0.25078 0.0
H2491 H 0.69565 0.15316 0.23622 0.0
C2492 C 0.67938 0.14713 0.31258 0.0
C2493 C 0.69972 0.1556 0.31139 0.0
C2494 C 0.666 0.14832 0.29673 0.0
C2495 C 0.67278 0.158 0.2795 0.0
C2496 C 0.69292 0.16692 0.27861 0.0
H2497 H 0.62515 0.22968 0.19981 0.0
H2498 H 0.63199 0.21122 0.22876 0.0
C2499 C 0.7063 0.16555 0.29428 0.0
C2500 C 0.65882 0.15985 0.26268 0.0
H2501 H 0.65818 0.15834 0.21235 0.0
C2502 C 0.64097 0.16895 0.26603 0.0
C2503 C 0.66409 0.15457 0.2431 0.0
C2504 C 0.68174 0.14277 0.23855 0.0
C2505 C 0.62942 0.1747 0.25021 0.0
C2506 C 0.63634 0.17187 0.23061 0.0
C2507 C 0.65302 0.16097 0.22732 0.0
C2508 C 0.62854 0.1823 0.21368 0.0
C2509 C 0.61024 0.18418 0.25475 0.0
C2510 C 0.62446 0.17234 0.19533 0.0
C2511 C 0.6211 0.18304 0.17849 0.0
C2512 C 0.62162 0.20386 0.17978 0.0
C2513 C 0.62452 0.21364 0.19833 0.0
C2514 C 0.6282 0.20302 0.21503 0.0
H2515 H 0.60249 0.17745 0.26788 0.0
H2516 H 0.61423 0.20023 0.25836 0.0
H2517 H 0.59945 0.18255 0.24209 0.0
H2518 H 0.62475 0.15639 0.19386 0.0
H2519 H 0.61885 0.17511 0.16437 0.0
H2520 H 0.27294 0.16612 0.68752 0.0
H2521 H 0.29484 0.16878 0.71672 0.0
H2522 H 0.27174 0.10919 0.73208 0.0
H2523 H 0.2503 0.10625 0.70222 0.0
H2524 H 0.26512 0.13992 0.76016 0.0
H2525 H 0.34581 0.14495 0.73797 0.0
H2526 H 0.33129 0.15958 0.72283 0.0
H2527 H 0.32544 0.13291 0.7226 0.0
C2528 C 0.27339 0.15324 0.69655 0.0
C2529 C 0.26061 0.13574 0.69233 0.0
C2530 C 0.28583 0.15476 0.71325 0.0
C2531 C 0.28521 0.13901 0.72632 0.0
C2532 C 0.27273 0.12132 0.72193 0.0
H2533 H 0.31723 0.18564 0.84675 0.0
H2534 H 0.31009 0.15848 0.82199 0.0
C2535 C 0.26049 0.1197 0.705 0.0
C2536 C 0.29444 0.14286 0.7461 0.0
H2537 H 0.33828 0.16415 0.76772 0.0
C2538 C 0.28123 0.14457 0.76213 0.0
C2539 C 0.31543 0.14875 0.74855 0.0
C2540 C 0.33034 0.14626 0.73208 0.0
C2541 C 0.28809 0.15433 0.77985 0.0
C2542 C 0.30879 0.16209 0.78156 0.0
C2543 C 0.32239 0.15833 0.7663 0.0
C2544 C 0.3156 0.17737 0.7969 0.0
C2545 C 0.27275 0.15801 0.79572 0.0
C2546 C 0.32177 0.19676 0.79097 0.0
C2547 C 0.326 0.21215 0.80496 0.0
C2548 C 0.32405 0.20848 0.8252 0.0
C2549 C 0.31862 0.18891 0.83122 0.0
C2550 C 0.31453 0.17341 0.81713 0.0
H2551 H 0.25689 0.15295 0.79099 0.0
H2552 H 0.27608 0.14987 0.8091 0.0
H2553 H 0.27372 0.1741 0.79986 0.0
H2554 H 0.32263 0.20014 0.77542 0.0
H2555 H 0.33026 0.22703 0.79985 0.0
H2556 H 0.28467 0.86449 0.2837 0.0
H2557 H 0.30366 0.85238 0.25563 0.0
H2558 H 0.35787 0.85595 0.29154 0.0
H2559 H 0.33909 0.86836 0.31966 0.0
H2560 H 0.36475 0.86653 0.25064 0.0
H2561 H 0.31779 0.79424 0.25935 0.0
H2562 H 0.30325 0.81486 0.2561 0.0
H2563 H 0.31874 0.81412 0.27784 0.0
C2564 C 0.30075 0.86316 0.28552 0.0
C2565 C 0.31032 0.86709 0.30397 0.0
C2566 C 0.31155 0.85618 0.26948 0.0
C2567 C 0.33202 0.85289 0.27169 0.0
C2568 C 0.34204 0.85829 0.28961 0.0
H2569 H 0.38038 0.76485 0.1942 0.0
H2570 H 0.37506 0.78531 0.22379 0.0
C2571 C 0.33127 0.86537 0.30566 0.0
C2572 C 0.34222 0.84189 0.25606 0.0
H2573 H 0.33877 0.79717 0.23101 0.0
C2574 C 0.35921 0.85133 0.24637 0.0
C2575 C 0.33526 0.82189 0.25094 0.0
C2576 C 0.31789 0.81057 0.2617 0.0
C2577 C 0.36891 0.84148 0.23105 0.0
C2578 C 0.3612 0.82183 0.22521 0.0
C2579 C 0.34468 0.81224 0.23544 0.0
C2580 C 0.3689 0.8112 0.20775 0.0
C2581 C 0.38731 0.85217 0.22134 0.0
C2582 C 0.3679 0.81918 0.18893 0.0
C2583 C 0.3711 0.80757 0.17202 0.0
C2584 C 0.37504 0.78767 0.17362 0.0
C2585 C 0.3773 0.7801 0.19249 0.0
C2586 C 0.37426 0.79178 0.20941 0.0
H2587 H 0.39526 0.86367 0.23152 0.0
H2588 H 0.39824 0.84165 0.21646 0.0
H2589 H 0.38235 0.85979 0.20819 0.0
H2590 H 0.36336 0.83394 0.18722 0.0
H2591 H 0.36921 0.81383 0.15769 0.0
loop_
_geom_bond_atom_site_label_1
_geom_bond_atom_site_label_2
_geom_bond_distance
_geom_bond_site_symmetry_2
_ccdc_geom_bond_type
Mn0 O5 2.095 . S
Mn0 O15 2.162 . S
Mn0 O16 2.297 . S
Mn0 O24 2.385 . S
Mn0 O25 2.209 . S
Mn0 O26 2.094 . S
Mn1 O6 2.121 . S
Mn1 N8 2.257 . S
Mn1 N17 2.282 . S
Mn1 O25 2.215 . S
Mn1 O27 2.117 . S
C2 O24 1.234 . S
C2 O25 1.283 . S
C3 O15 1.281 . S
C3 O16 1.236 . S
C4 O26 1.240 . S
C4 O27 1.264 . S
O5 Mn0 2.095 . S
O5 C14 1.250 . S
O6 Mn1 2.121 . S
O6 C14 1.258 . S
C7 N8 1.326 . S
C7 C11 1.460 . S
C7 H13 0.929 . S
N8 Mn1 2.257 . S
N8 C7 1.326 . S
N8 C12 1.362 . S
C9 C10 1.258 . S
C9 C12 1.431 . S
C9 C29 1.449 . S
C10 C9 1.258 . S
C10 C11 1.477 . S
C10 H30 0.931 . S
C11 C7 1.460 . S
C11 C10 1.477 . S
C11 H31 0.930 . S
C12 N8 1.362 . S
C12 C9 1.431 . S
C12 C22 1.476 . S
H13 C7 0.929 . S
C14 O5 1.250 . S
C14 O6 1.258 . S
O15 Mn0 2.162 . S
O15 C3 1.281 . S
O16 Mn0 2.297 . S
O16 C3 1.236 . S
N17 Mn1 2.282 . S
N17 C18 1.328 . S
N17 C22 1.318 . S
C18 N17 1.328 . S
C18 C19 1.457 . S
C18 H23 0.929 . S
C19 C18 1.457 . S
C19 C20 1.291 . S
C19 H32 0.931 . S
C20 C19 1.291 . S
C20 C21 1.373 . S
C20 H33 0.929 . S
C21 C20 1.373 . S
C21 C22 1.396 . S
C21 C28 1.403 . S
C22 C12 1.476 . S
C22 N17 1.318 . S
C22 C21 1.396 . S
H23 C18 0.929 . S
O24 Mn0 2.385 . S
O24 C2 1.234 . S
O25 Mn0 2.209 . S
O25 Mn1 2.215 . S
O25 C2 1.283 . S
O26 Mn0 2.094 . S
O26 C4 1.240 . S
O27 Mn1 2.117 . S
O27 C4 1.264 . S
C28 C21 1.403 . S
C28 C29 1.399 . S
C28 H34 0.929 . S
C29 C9 1.449 . S
C29 C28 1.399 . S
C29 H35 0.930 . S
H30 C10 0.931 . S
H31 C11 0.930 . S
H32 C19 0.931 . S
H33 C20 0.929 . S
H34 C28 0.929 . S
H35 C29 0.930 . S
Mn36 O41 2.095 . S
Mn36 O51 2.162 . S
Mn36 O52 2.297 . S
Mn36 O60 2.385 . S
Mn36 O61 2.209 . S
Mn36 O62 2.094 . S
Mn37 O42 2.121 . S
Mn37 N44 2.257 . S
Mn37 N53 2.282 . S
Mn37 O61 2.215 . S
Mn37 O63 2.117 . S
C38 O60 1.234 . S
C38 O61 1.283 . S
C39 O51 1.281 . S
C39 O52 1.236 . S
C40 O62 1.240 . S
C40 O63 1.264 . S
O41 Mn36 2.095 . S
O41 C50 1.250 . S
O42 Mn37 2.121 . S
O42 C50 1.258 . S
C43 N44 1.326 . S
C43 C47 1.460 . S
C43 H49 0.929 . S
N44 Mn37 2.257 . S
N44 C43 1.326 . S
N44 C48 1.362 . S
C45 C46 1.258 . S
C45 C48 1.431 . S
C45 C65 1.449 . S
C46 C45 1.258 . S
C46 C47 1.477 . S
C46 H66 0.931 . S
C47 C43 1.460 . S
C47 C46 1.477 . S
C47 H67 0.930 . S
C48 N44 1.362 . S
C48 C45 1.431 . S
C48 C58 1.476 . S
H49 C43 0.929 . S
C50 O41 1.250 . S
C50 O42 1.258 . S
O51 Mn36 2.162 . S
O51 C39 1.281 . S
O52 Mn36 2.297 . S
O52 C39 1.236 . S
N53 Mn37 2.282 . S
N53 C54 1.328 . S
N53 C58 1.318 . S
C54 N53 1.328 . S
C54 C55 1.457 . S
C54 H59 0.929 . S
C55 C54 1.457 . S
C55 C56 1.291 . S
C55 H68 0.931 . S
C56 C55 1.291 . S
C56 C57 1.373 . S
C56 H69 0.929 . S
C57 C56 1.373 . S
C57 C58 1.396 . S
C57 C64 1.403 . S
C58 C48 1.476 . S
C58 N53 1.318 . S
C58 C57 1.396 . S
H59 C54 0.929 . S
O60 Mn36 2.385 . S
O60 C38 1.234 . S
O61 Mn36 2.209 . S
O61 Mn37 2.215 . S
O61 C38 1.283 . S
O62 Mn36 2.094 . S
O62 C40 1.240 . S
O63 Mn37 2.117 . S
O63 C40 1.264 . S
C64 C57 1.403 . S
C64 C65 1.399 . S
C64 H70 0.929 . S
C65 C45 1.449 . S
C65 C64 1.399 . S
C65 H71 0.930 . S
H66 C46 0.931 . S
H67 C47 0.930 . S
H68 C55 0.931 . S
H69 C56 0.929 . S
H70 C64 0.929 . S
H71 C65 0.930 . S
Mn72 O77 2.095 . S
Mn72 O87 2.162 . S
Mn72 O88 2.297 . S
Mn72 O96 2.385 . S
Mn72 O97 2.209 . S
Mn72 O98 2.094 . S
Mn73 O78 2.121 . S
Mn73 N80 2.257 . S
Mn73 N89 2.282 . S
Mn73 O97 2.215 . S
Mn73 O99 2.117 . S
C74 O96 1.234 . S
C74 O97 1.283 . S
C75 O87 1.281 . S
C75 O88 1.236 . S
C76 O98 1.240 . S
C76 O99 1.264 . S
O77 Mn72 2.095 . S
O77 C86 1.250 . S
O78 Mn73 2.121 . S
O78 C86 1.258 . S
C79 N80 1.326 . S
C79 C83 1.460 . S
C79 H85 0.929 . S
N80 Mn73 2.257 . S
N80 C79 1.326 . S
N80 C84 1.362 . S
C81 C82 1.258 . S
C81 C84 1.431 . S
C81 C101 1.449 . S
C82 C81 1.258 . S
C82 C83 1.477 . S
C82 H102 0.931 . S
C83 C79 1.460 . S
C83 C82 1.477 . S
C83 H103 0.930 . S
C84 N80 1.362 . S
C84 C81 1.431 . S
C84 C94 1.476 . S
H85 C79 0.929 . S
C86 O77 1.250 . S
C86 O78 1.258 . S
O87 Mn72 2.162 . S
O87 C75 1.281 . S
O88 Mn72 2.297 . S
O88 C75 1.236 . S
N89 Mn73 2.282 . S
N89 C90 1.328 . S
N89 C94 1.318 . S
C90 N89 1.328 . S
C90 C91 1.457 . S
C90 H95 0.929 . S
C91 C90 1.457 . S
C91 C92 1.291 . S
C91 H104 0.931 . S
C92 C91 1.291 . S
C92 C93 1.373 . S
C92 H105 0.929 . S
C93 C92 1.373 . S
C93 C94 1.396 . S
C93 C100 1.403 . S
C94 C84 1.476 . S
C94 N89 1.318 . S
C94 C93 1.396 . S
H95 C90 0.929 . S
O96 Mn72 2.385 . S
O96 C74 1.234 . S
O97 Mn72 2.209 . S
O97 Mn73 2.215 . S
O97 C74 1.283 . S
O98 Mn72 2.094 . S
O98 C76 1.240 . S
O99 Mn73 2.117 . S
O99 C76 1.264 . S
C100 C93 1.403 . S
C100 C101 1.399 . S
C100 H106 0.929 . S
C101 C81 1.449 . S
C101 C100 1.399 . S
C101 H107 0.930 . S
H102 C82 0.931 . S
H103 C83 0.930 . S
H104 C91 0.931 . S
H105 C92 0.929 . S
H106 C100 0.929 . S
H107 C101 0.930 . S
Mn108 O113 2.095 . S
Mn108 O123 2.162 . S
Mn108 O124 2.297 . S
Mn108 O132 2.385 . S
Mn108 O133 2.209 . S
Mn108 O134 2.094 . S
Mn109 O114 2.121 . S
Mn109 N116 2.257 . S
Mn109 N125 2.282 . S
Mn109 O133 2.215 . S
Mn109 O135 2.117 . S
C110 O132 1.234 . S
C110 O133 1.283 . S
C111 O123 1.281 . S
C111 O124 1.236 . S
C112 O134 1.240 . S
C112 O135 1.264 . S
O113 Mn108 2.095 . S
O113 C122 1.250 . S
O114 Mn109 2.121 . S
O114 C122 1.258 . S
C115 N116 1.326 . S
C115 C119 1.460 . S
C115 H121 0.929 . S
N116 Mn109 2.257 . S
N116 C115 1.326 . S
N116 C120 1.362 . S
C117 C118 1.258 . S
C117 C120 1.431 . S
C117 C137 1.449 . S
C118 C117 1.258 . S
C118 C119 1.477 . S
C118 H138 0.931 . S
C119 C115 1.460 . S
C119 C118 1.477 . S
C119 H139 0.930 . S
C120 N116 1.362 . S
C120 C117 1.431 . S
C120 C130 1.476 . S
H121 C115 0.929 . S
C122 O113 1.250 . S
C122 O114 1.258 . S
O123 Mn108 2.162 . S
O123 C111 1.281 . S
O124 Mn108 2.297 . S
O124 C111 1.236 . S
N125 Mn109 2.282 . S
N125 C126 1.328 . S
N125 C130 1.318 . S
C126 N125 1.328 . S
C126 C127 1.457 . S
C126 H131 0.929 . S
C127 C126 1.457 . S
C127 C128 1.291 . S
C127 H140 0.931 . S
C128 C127 1.291 . S
C128 C129 1.373 . S
C128 H141 0.929 . S
C129 C128 1.373 . S
C129 C130 1.396 . S
C129 C136 1.403 . S
C130 C120 1.476 . S
C130 N125 1.318 . S
C130 C129 1.396 . S
H131 C126 0.929 . S
O132 Mn108 2.385 . S
O132 C110 1.234 . S
O133 Mn108 2.209 . S
O133 Mn109 2.215 . S
O133 C110 1.283 . S
O134 Mn108 2.094 . S
O134 C112 1.240 . S
O135 Mn109 2.117 . S
O135 C112 1.264 . S
C136 C129 1.403 . S
C136 C137 1.399 . S
C136 H142 0.929 . S
C137 C117 1.449 . S
C137 C136 1.399 . S
C137 H143 0.930 . S
H138 C118 0.931 . S
H139 C119 0.930 . S
H140 C127 0.931 . S
H141 C128 0.929 . S
H142 C136 0.929 . S
H143 C137 0.930 . S
Mn144 O149 2.095 . S
Mn144 O159 2.162 . S
Mn144 O160 2.297 . S
Mn144 O168 2.385 . S
Mn144 O169 2.209 . S
Mn144 O170 2.094 . S
Mn145 O150 2.121 . S
Mn145 N152 2.257 . S
Mn145 N161 2.282 . S
Mn145 O169 2.215 . S
Mn145 O171 2.117 . S
C146 O168 1.234 . S
C146 O169 1.283 . S
C147 O159 1.281 . S
C147 O160 1.236 . S
C148 O170 1.240 . S
C148 O171 1.264 . S
O149 Mn144 2.095 . S
O149 C158 1.250 . S
O150 Mn145 2.121 . S
O150 C158 1.258 . S
C151 N152 1.326 . S
C151 C155 1.460 . S
C151 H157 0.929 . S
N152 Mn145 2.257 . S
N152 C151 1.326 . S
N152 C156 1.362 . S
C153 C154 1.258 . S
C153 C156 1.431 . S
C153 C173 1.449 . S
C154 C153 1.258 . S
C154 C155 1.477 . S
C154 H174 0.931 . S
C155 C151 1.460 . S
C155 C154 1.477 . S
C155 H175 0.930 . S
C156 N152 1.362 . S
C156 C153 1.431 . S
C156 C166 1.476 . S
H157 C151 0.929 . S
C158 O149 1.250 . S
C158 O150 1.258 . S
O159 Mn144 2.162 . S
O159 C147 1.281 . S
O160 Mn144 2.297 . S
O160 C147 1.236 . S
N161 Mn145 2.282 . S
N161 C162 1.328 . S
N161 C166 1.318 . S
C162 N161 1.328 . S
C162 C163 1.457 . S
C162 H167 0.929 . S
C163 C162 1.457 . S
C163 C164 1.291 . S
C163 H176 0.931 . S
C164 C163 1.291 . S
C164 C165 1.373 . S
C164 H177 0.929 . S
C165 C164 1.373 . S
C165 C166 1.396 . S
C165 C172 1.403 . S
C166 C156 1.476 . S
C166 N161 1.318 . S
C166 C165 1.396 . S
H167 C162 0.929 . S
O168 Mn144 2.385 . S
O168 C146 1.234 . S
O169 Mn144 2.209 . S
O169 Mn145 2.215 . S
O169 C146 1.283 . S
O170 Mn144 2.094 . S
O170 C148 1.240 . S
O171 Mn145 2.117 . S
O171 C148 1.264 . S
C172 C165 1.403 . S
C172 C173 1.399 . S
C172 H178 0.929 . S
C173 C153 1.449 . S
C173 C172 1.399 . S
C173 H179 0.930 . S
H174 C154 0.931 . S
H175 C155 0.930 . S
H176 C163 0.931 . S
H177 C164 0.929 . S
H178 C172 0.929 . S
H179 C173 0.930 . S
Mn180 O185 2.095 . S
Mn180 O195 2.162 . S
Mn180 O196 2.297 . S
Mn180 O204 2.385 . S
Mn180 O205 2.209 . S
Mn180 O206 2.094 . S
Mn181 O186 2.121 . S
Mn181 N188 2.257 . S
Mn181 N197 2.282 . S
Mn181 O205 2.215 . S
Mn181 O207 2.117 . S
C182 O204 1.234 . S
C182 O205 1.283 . S
C183 O195 1.281 . S
C183 O196 1.236 . S
C184 O206 1.240 . S
C184 O207 1.264 . S
O185 Mn180 2.095 . S
O185 C194 1.250 . S
O186 Mn181 2.121 . S
O186 C194 1.258 . S
C187 N188 1.326 . S
C187 C191 1.460 . S
C187 H193 0.929 . S
N188 Mn181 2.257 . S
N188 C187 1.326 . S
N188 C192 1.362 . S
C189 C190 1.258 . S
C189 C192 1.431 . S
C189 C209 1.449 . S
C190 C189 1.258 . S
C190 C191 1.477 . S
C190 H210 0.931 . S
C191 C187 1.460 . S
C191 C190 1.477 . S
C191 H211 0.930 . S
C192 N188 1.362 . S
C192 C189 1.431 . S
C192 C202 1.476 . S
H193 C187 0.929 . S
C194 O185 1.250 . S
C194 O186 1.258 . S
O195 Mn180 2.162 . S
O195 C183 1.281 . S
O196 Mn180 2.297 . S
O196 C183 1.236 . S
N197 Mn181 2.282 . S
N197 C198 1.328 . S
N197 C202 1.318 . S
C198 N197 1.328 . S
C198 C199 1.457 . S
C198 H203 0.929 . S
C199 C198 1.457 . S
C199 C200 1.291 . S
C199 H212 0.931 . S
C200 C199 1.291 . S
C200 C201 1.373 . S
C200 H213 0.929 . S
C201 C200 1.373 . S
C201 C202 1.396 . S
C201 C208 1.403 . S
C202 C192 1.476 . S
C202 N197 1.318 . S
C202 C201 1.396 . S
H203 C198 0.929 . S
O204 Mn180 2.385 . S
O204 C182 1.234 . S
O205 Mn180 2.209 . S
O205 Mn181 2.215 . S
O205 C182 1.283 . S
O206 Mn180 2.094 . S
O206 C184 1.240 . S
O207 Mn181 2.117 . S
O207 C184 1.264 . S
C208 C201 1.403 . S
C208 C209 1.399 . S
C208 H214 0.929 . S
C209 C189 1.449 . S
C209 C208 1.399 . S
C209 H215 0.930 . S
H210 C190 0.931 . S
H211 C191 0.930 . S
H212 C199 0.931 . S
H213 C200 0.929 . S
H214 C208 0.929 . S
H215 C209 0.930 . S
Mn216 O221 2.095 . S
Mn216 O231 2.162 . S
Mn216 O232 2.297 . S
Mn216 O240 2.385 . S
Mn216 O241 2.209 . S
Mn216 O242 2.094 . S
Mn217 O222 2.121 . S
Mn217 N224 2.257 . S
Mn217 N233 2.282 . S
Mn217 O241 2.215 . S
Mn217 O243 2.117 . S
C218 O240 1.234 . S
C218 O241 1.283 . S
C219 O231 1.281 . S
C219 O232 1.236 . S
C220 O242 1.240 . S
C220 O243 1.264 . S
O221 Mn216 2.095 . S
O221 C230 1.250 . S
O222 Mn217 2.121 . S
O222 C230 1.258 . S
C223 N224 1.326 . S
C223 C227 1.460 . S
C223 H229 0.929 . S
N224 Mn217 2.257 . S
N224 C223 1.326 . S
N224 C228 1.362 . S
C225 C226 1.258 . S
C225 C228 1.431 . S
C225 C245 1.449 . S
C226 C225 1.258 . S
C226 C227 1.477 . S
C226 H246 0.931 . S
C227 C223 1.460 . S
C227 C226 1.477 . S
C227 H247 0.930 . S
C228 N224 1.362 . S
C228 C225 1.431 . S
C228 C238 1.476 . S
H229 C223 0.929 . S
C230 O221 1.250 . S
C230 O222 1.258 . S
O231 Mn216 2.162 . S
O231 C219 1.281 . S
O232 Mn216 2.297 . S
O232 C219 1.236 . S
N233 Mn217 2.282 . S
N233 C234 1.328 . S
N233 C238 1.318 . S
C234 N233 1.328 . S
C234 C235 1.457 . S
C234 H239 0.929 . S
C235 C234 1.457 . S
C235 C236 1.291 . S
C235 H248 0.931 . S
C236 C235 1.291 . S
C236 C237 1.373 . S
C236 H249 0.929 . S
C237 C236 1.373 . S
C237 C238 1.396 . S
C237 C244 1.403 . S
C238 C228 1.476 . S
C238 N233 1.318 . S
C238 C237 1.396 . S
H239 C234 0.929 . S
O240 Mn216 2.385 . S
O240 C218 1.234 . S
O241 Mn216 2.209 . S
O241 Mn217 2.215 . S
O241 C218 1.283 . S
O242 Mn216 2.094 . S
O242 C220 1.240 . S
O243 Mn217 2.117 . S
O243 C220 1.264 . S
C244 C237 1.403 . S
C244 C245 1.399 . S
C244 H250 0.929 . S
C245 C225 1.449 . S
C245 C244 1.399 . S
C245 H251 0.930 . S
H246 C226 0.931 . S
H247 C227 0.930 . S
H248 C235 0.931 . S
H249 C236 0.929 . S
H250 C244 0.929 . S
H251 C245 0.930 . S
Mn252 O257 2.095 . S
Mn252 O267 2.162 . S
Mn252 O268 2.297 . S
Mn252 O276 2.385 . S
Mn252 O277 2.209 . S
Mn252 O278 2.094 . S
Mn253 O258 2.121 . S
Mn253 N260 2.257 . S
Mn253 N269 2.282 . S
Mn253 O277 2.215 . S
Mn253 O279 2.117 . S
C254 O276 1.234 . S
C254 O277 1.283 . S
C255 O267 1.281 . S
C255 O268 1.236 . S
C256 O278 1.240 . S
C256 O279 1.264 . S
O257 Mn252 2.095 . S
O257 C266 1.250 . S
O258 Mn253 2.121 . S
O258 C266 1.258 . S
C259 N260 1.326 . S
C259 C263 1.460 . S
C259 H265 0.929 . S
N260 Mn253 2.257 . S
N260 C259 1.326 . S
N260 C264 1.362 . S
C261 C262 1.258 . S
C261 C264 1.431 . S
C261 C281 1.449 . S
C262 C261 1.258 . S
C262 C263 1.477 . S
C262 H282 0.931 . S
C263 C259 1.460 . S
C263 C262 1.477 . S
C263 H283 0.930 . S
C264 N260 1.362 . S
C264 C261 1.431 . S
C264 C274 1.476 . S
H265 C259 0.929 . S
C266 O257 1.250 . S
C266 O258 1.258 . S
O267 Mn252 2.162 . S
O267 C255 1.281 . S
O268 Mn252 2.297 . S
O268 C255 1.236 . S
N269 Mn253 2.282 . S
N269 C270 1.328 . S
N269 C274 1.318 . S
C270 N269 1.328 . S
C270 C271 1.457 . S
C270 H275 0.929 . S
C271 C270 1.457 . S
C271 C272 1.291 . S
C271 H284 0.931 . S
C272 C271 1.291 . S
C272 C273 1.373 . S
C272 H285 0.929 . S
C273 C272 1.373 . S
C273 C274 1.396 . S
C273 C280 1.403 . S
C274 C264 1.476 . S
C274 N269 1.318 . S
C274 C273 1.396 . S
H275 C270 0.929 . S
O276 Mn252 2.385 . S
O276 C254 1.234 . S
O277 Mn252 2.209 . S
O277 Mn253 2.215 . S
O277 C254 1.283 . S
O278 Mn252 2.094 . S
O278 C256 1.240 . S
O279 Mn253 2.117 . S
O279 C256 1.264 . S
C280 C273 1.403 . S
C280 C281 1.399 . S
C280 H286 0.929 . S
C281 C261 1.449 . S
C281 C280 1.399 . S
C281 H287 0.930 . S
H282 C262 0.931 . S
H283 C263 0.930 . S
H284 C271 0.931 . S
H285 C272 0.929 . S
H286 C280 0.929 . S
H287 C281 0.930 . S
Mn288 O293 2.095 . S
Mn288 O303 2.162 . S
Mn288 O304 2.297 . S
Mn288 O312 2.385 . S
Mn288 O313 2.209 . S
Mn288 O314 2.094 . S
Mn289 O294 2.121 . S
Mn289 N296 2.257 . S
Mn289 N305 2.282 . S
Mn289 O313 2.215 . S
Mn289 O315 2.117 . S
C290 O312 1.234 . S
C290 O313 1.283 . S
C291 O303 1.281 . S
C291 O304 1.236 . S
C292 O314 1.240 . S
C292 O315 1.264 . S
O293 Mn288 2.095 . S
O293 C302 1.250 . S
O294 Mn289 2.121 . S
O294 C302 1.258 . S
C295 N296 1.326 . S
C295 C299 1.460 . S
C295 H301 0.929 . S
N296 Mn289 2.257 . S
N296 C295 1.326 . S
N296 C300 1.362 . S
C297 C298 1.258 . S
C297 C300 1.431 . S
C297 C317 1.449 . S
C298 C297 1.258 . S
C298 C299 1.477 . S
C298 H318 0.931 . S
C299 C295 1.460 . S
C299 C298 1.477 . S
C299 H319 0.930 . S
C300 N296 1.362 . S
C300 C297 1.431 . S
C300 C310 1.476 . S
H301 C295 0.929 . S
C302 O293 1.250 . S
C302 O294 1.258 . S
O303 Mn288 2.162 . S
O303 C291 1.281 . S
O304 Mn288 2.297 . S
O304 C291 1.236 . S
N305 Mn289 2.282 . S
N305 C306 1.328 . S
N305 C310 1.318 . S
C306 N305 1.328 . S
C306 C307 1.457 . S
C306 H311 0.929 . S
C307 C306 1.457 . S
C307 C308 1.291 . S
C307 H320 0.931 . S
C308 C307 1.291 . S
C308 C309 1.373 . S
C308 H321 0.929 . S
C309 C308 1.373 . S
C309 C310 1.396 . S
C309 C316 1.403 . S
C310 C300 1.476 . S
C310 N305 1.318 . S
C310 C309 1.396 . S
H311 C306 0.929 . S
O312 Mn288 2.385 . S
O312 C290 1.234 . S
O313 Mn288 2.209 . S
O313 Mn289 2.215 . S
O313 C290 1.283 . S
O314 Mn288 2.094 . S
O314 C292 1.240 . S
O315 Mn289 2.117 . S
O315 C292 1.264 . S
C316 C309 1.403 . S
C316 C317 1.399 . S
C316 H322 0.929 . S
C317 C297 1.449 . S
C317 C316 1.399 . S
C317 H323 0.930 . S
H318 C298 0.931 . S
H319 C299 0.930 . S
H320 C307 0.931 . S
H321 C308 0.929 . S
H322 C316 0.929 . S
H323 C317 0.930 . S
Mn324 O329 2.095 . S
Mn324 O339 2.162 . S
Mn324 O340 2.297 . S
Mn324 O348 2.385 . S
Mn324 O349 2.209 . S
Mn324 O350 2.094 . S
Mn325 O330 2.121 . S
Mn325 N332 2.257 . S
Mn325 N341 2.282 . S
Mn325 O349 2.215 . S
Mn325 O351 2.117 . S
C326 O348 1.234 . S
C326 O349 1.283 . S
C327 O339 1.281 . S
C327 O340 1.236 . S
C328 O350 1.240 . S
C328 O351 1.264 . S
O329 Mn324 2.095 . S
O329 C338 1.250 . S
O330 Mn325 2.121 . S
O330 C338 1.258 . S
C331 N332 1.326 . S
C331 C335 1.460 . S
C331 H337 0.929 . S
N332 Mn325 2.257 . S
N332 C331 1.326 . S
N332 C336 1.362 . S
C333 C334 1.258 . S
C333 C336 1.431 . S
C333 C353 1.449 . S
C334 C333 1.258 . S
C334 C335 1.477 . S
C334 H354 0.931 . S
C335 C331 1.460 . S
C335 C334 1.477 . S
C335 H355 0.930 . S
C336 N332 1.362 . S
C336 C333 1.431 . S
C336 C346 1.476 . S
H337 C331 0.929 . S
C338 O329 1.250 . S
C338 O330 1.258 . S
O339 Mn324 2.162 . S
O339 C327 1.281 . S
O340 Mn324 2.297 . S
O340 C327 1.236 . S
N341 Mn325 2.282 . S
N341 C342 1.328 . S
N341 C346 1.318 . S
C342 N341 1.328 . S
C342 C343 1.457 . S
C342 H347 0.929 . S
C343 C342 1.457 . S
C343 C344 1.291 . S
C343 H356 0.931 . S
C344 C343 1.291 . S
C344 C345 1.373 . S
C344 H357 0.929 . S
C345 C344 1.373 . S
C345 C346 1.396 . S
C345 C352 1.403 . S
C346 C336 1.476 . S
C346 N341 1.318 . S
C346 C345 1.396 . S
H347 C342 0.929 . S
O348 Mn324 2.385 . S
O348 C326 1.234 . S
O349 Mn324 2.209 . S
O349 Mn325 2.215 . S
O349 C326 1.283 . S
O350 Mn324 2.094 . S
O350 C328 1.240 . S
O351 Mn325 2.117 . S
O351 C328 1.264 . S
C352 C345 1.403 . S
C352 C353 1.399 . S
C352 H358 0.929 . S
C353 C333 1.449 . S
C353 C352 1.399 . S
C353 H359 0.930 . S
H354 C334 0.931 . S
H355 C335 0.930 . S
H356 C343 0.931 . S
H357 C344 0.929 . S
H358 C352 0.929 . S
H359 C353 0.930 . S
Mn360 O365 2.095 . S
Mn360 O375 2.162 . S
Mn360 O376 2.297 . S
Mn360 O384 2.385 . S
Mn360 O385 2.209 . S
Mn360 O386 2.094 . S
Mn361 O366 2.121 . S
Mn361 N368 2.257 . S
Mn361 N377 2.282 . S
Mn361 O385 2.215 . S
Mn361 O387 2.117 . S
C362 O384 1.234 . S
C362 O385 1.283 . S
C363 O375 1.281 . S
C363 O376 1.236 . S
C364 O386 1.240 . S
C364 O387 1.264 . S
O365 Mn360 2.095 . S
O365 C374 1.250 . S
O366 Mn361 2.121 . S
O366 C374 1.258 . S
C367 N368 1.326 . S
C367 C371 1.460 . S
C367 H373 0.929 . S
N368 Mn361 2.257 . S
N368 C367 1.326 . S
N368 C372 1.362 . S
C369 C370 1.258 . S
C369 C372 1.431 . S
C369 C389 1.449 . S
C370 C369 1.258 . S
C370 C371 1.477 . S
C370 H390 0.931 . S
C371 C367 1.460 . S
C371 C370 1.477 . S
C371 H391 0.930 . S
C372 N368 1.362 . S
C372 C369 1.431 . S
C372 C382 1.476 . S
H373 C367 0.929 . S
C374 O365 1.250 . S
C374 O366 1.258 . S
O375 Mn360 2.162 . S
O375 C363 1.281 . S
O376 Mn360 2.297 . S
O376 C363 1.236 . S
N377 Mn361 2.282 . S
N377 C378 1.328 . S
N377 C382 1.318 . S
C378 N377 1.328 . S
C378 C379 1.457 . S
C378 H383 0.929 . S
C379 C378 1.457 . S
C379 C380 1.291 . S
C379 H392 0.931 . S
C380 C379 1.291 . S
C380 C381 1.373 . S
C380 H393 0.929 . S
C381 C380 1.373 . S
C381 C382 1.396 . S
C381 C388 1.403 . S
C382 C372 1.476 . S
C382 N377 1.318 . S
C382 C381 1.396 . S
H383 C378 0.929 . S
O384 Mn360 2.385 . S
O384 C362 1.234 . S
O385 Mn360 2.209 . S
O385 Mn361 2.215 . S
O385 C362 1.283 . S
O386 Mn360 2.094 . S
O386 C364 1.240 . S
O387 Mn361 2.117 . S
O387 C364 1.264 . S
C388 C381 1.403 . S
C388 C389 1.399 . S
C388 H394 0.929 . S
C389 C369 1.449 . S
C389 C388 1.399 . S
C389 H395 0.930 . S
H390 C370 0.931 . S
H391 C371 0.930 . S
H392 C379 0.931 . S
H393 C380 0.929 . S
H394 C388 0.929 . S
H395 C389 0.930 . S
Mn396 O401 2.095 . S
Mn396 O411 2.162 . S
Mn396 O412 2.297 . S
Mn396 O420 2.385 . S
Mn396 O421 2.209 . S
Mn396 O422 2.094 . S
Mn397 O402 2.121 . S
Mn397 N404 2.257 . S
Mn397 N413 2.282 . S
Mn397 O421 2.215 . S
Mn397 O423 2.117 . S
C398 O420 1.234 . S
C398 O421 1.283 . S
C399 O411 1.281 . S
C399 O412 1.236 . S
C400 O422 1.240 . S
C400 O423 1.264 . S
O401 Mn396 2.095 . S
O401 C410 1.250 . S
O402 Mn397 2.121 . S
O402 C410 1.258 . S
C403 N404 1.326 . S
C403 C407 1.460 . S
C403 H409 0.929 . S
N404 Mn397 2.257 . S
N404 C403 1.326 . S
N404 C408 1.362 . S
C405 C406 1.258 . S
C405 C408 1.431 . S
C405 C425 1.449 . S
C406 C405 1.258 . S
C406 C407 1.477 . S
C406 H426 0.931 . S
C407 C403 1.460 . S
C407 C406 1.477 . S
C407 H427 0.930 . S
C408 N404 1.362 . S
C408 C405 1.431 . S
C408 C418 1.476 . S
H409 C403 0.929 . S
C410 O401 1.250 . S
C410 O402 1.258 . S
O411 Mn396 2.162 . S
O411 C399 1.281 . S
O412 Mn396 2.297 . S
O412 C399 1.236 . S
N413 Mn397 2.282 . S
N413 C414 1.328 . S
N413 C418 1.318 . S
C414 N413 1.328 . S
C414 C415 1.457 . S
C414 H419 0.929 . S
C415 C414 1.457 . S
C415 C416 1.291 . S
C415 H428 0.931 . S
C416 C415 1.291 . S
C416 C417 1.373 . S
C416 H429 0.929 . S
C417 C416 1.373 . S
C417 C418 1.396 . S
C417 C424 1.403 . S
C418 C408 1.476 . S
C418 N413 1.318 . S
C418 C417 1.396 . S
H419 C414 0.929 . S
O420 Mn396 2.385 . S
O420 C398 1.234 . S
O421 Mn396 2.209 . S
O421 Mn397 2.215 . S
O421 C398 1.283 . S
O422 Mn396 2.094 . S
O422 C400 1.240 . S
O423 Mn397 2.117 . S
O423 C400 1.264 . S
C424 C417 1.403 . S
C424 C425 1.399 . S
C424 H430 0.929 . S
C425 C405 1.449 . S
C425 C424 1.399 . S
C425 H431 0.930 . S
H426 C406 0.931 . S
H427 C407 0.930 . S
H428 C415 0.931 . S
H429 C416 0.929 . S
H430 C424 0.929 . S
H431 C425 0.930 . S
Mn432 O437 2.095 . S
Mn432 O447 2.162 . S
Mn432 O448 2.297 . S
Mn432 O456 2.385 . S
Mn432 O457 2.209 . S
Mn432 O458 2.094 . S
Mn433 O438 2.121 . S
Mn433 N440 2.257 . S
Mn433 N449 2.282 . S
Mn433 O457 2.215 . S
Mn433 O459 2.117 . S
C434 O456 1.234 . S
C434 O457 1.283 . S
C435 O447 1.281 . S
C435 O448 1.236 . S
C436 O458 1.240 . S
C436 O459 1.264 . S
O437 Mn432 2.095 . S
O437 C446 1.250 . S
O438 Mn433 2.121 . S
O438 C446 1.258 . S
C439 N440 1.326 . S
C439 C443 1.460 . S
C439 H445 0.929 . S
N440 Mn433 2.257 . S
N440 C439 1.326 . S
N440 C444 1.362 . S
C441 C442 1.258 . S
C441 C444 1.431 . S
C441 C461 1.449 . S
C442 C441 1.258 . S
C442 C443 1.477 . S
C442 H462 0.931 . S
C443 C439 1.460 . S
C443 C442 1.477 . S
C443 H463 0.930 . S
C444 N440 1.362 . S
C444 C441 1.431 . S
C444 C454 1.476 . S
H445 C439 0.929 . S
C446 O437 1.250 . S
C446 O438 1.258 . S
O447 Mn432 2.162 . S
O447 C435 1.281 . S
O448 Mn432 2.297 . S
O448 C435 1.236 . S
N449 Mn433 2.282 . S
N449 C450 1.328 . S
N449 C454 1.318 . S
C450 N449 1.328 . S
C450 C451 1.457 . S
C450 H455 0.929 . S
C451 C450 1.457 . S
C451 C452 1.291 . S
C451 H464 0.931 . S
C452 C451 1.291 . S
C452 C453 1.373 . S
C452 H465 0.929 . S
C453 C452 1.373 . S
C453 C454 1.396 . S
C453 C460 1.403 . S
C454 C444 1.476 . S
C454 N449 1.318 . S
C454 C453 1.396 . S
H455 C450 0.929 . S
O456 Mn432 2.385 . S
O456 C434 1.234 . S
O457 Mn432 2.209 . S
O457 Mn433 2.215 . S
O457 C434 1.283 . S
O458 Mn432 2.094 . S
O458 C436 1.240 . S
O459 Mn433 2.117 . S
O459 C436 1.264 . S
C460 C453 1.403 . S
C460 C461 1.399 . S
C460 H466 0.929 . S
C461 C441 1.449 . S
C461 C460 1.399 . S
C461 H467 0.930 . S
H462 C442 0.931 . S
H463 C443 0.930 . S
H464 C451 0.931 . S
H465 C452 0.929 . S
H466 C460 0.929 . S
H467 C461 0.930 . S
Mn468 O473 2.095 . S
Mn468 O483 2.162 . S
Mn468 O484 2.297 . S
Mn468 O492 2.385 . S
Mn468 O493 2.209 . S
Mn468 O494 2.094 . S
Mn469 O474 2.121 . S
Mn469 N476 2.257 . S
Mn469 N485 2.282 . S
Mn469 O493 2.215 . S
Mn469 O495 2.117 . S
C470 O492 1.234 . S
C470 O493 1.283 . S
C471 O483 1.281 . S
C471 O484 1.236 . S
C472 O494 1.240 . S
C472 O495 1.264 . S
O473 Mn468 2.095 . S
O473 C482 1.250 . S
O474 Mn469 2.121 . S
O474 C482 1.258 . S
C475 N476 1.326 . S
C475 C479 1.460 . S
C475 H481 0.929 . S
N476 Mn469 2.257 . S
N476 C475 1.326 . S
N476 C480 1.362 . S
C477 C478 1.258 . S
C477 C480 1.431 . S
C477 C497 1.449 . S
C478 C477 1.258 . S
C478 C479 1.477 . S
C478 H498 0.931 . S
C479 C475 1.460 . S
C479 C478 1.477 . S
C479 H499 0.930 . S
C480 N476 1.362 . S
C480 C477 1.431 . S
C480 C490 1.476 . S
H481 C475 0.929 . S
C482 O473 1.250 . S
C482 O474 1.258 . S
O483 Mn468 2.162 . S
O483 C471 1.281 . S
O484 Mn468 2.297 . S
O484 C471 1.236 . S
N485 Mn469 2.282 . S
N485 C486 1.328 . S
N485 C490 1.318 . S
C486 N485 1.328 . S
C486 C487 1.457 . S
C486 H491 0.929 . S
C487 C486 1.457 . S
C487 C488 1.291 . S
C487 H500 0.931 . S
C488 C487 1.291 . S
C488 C489 1.373 . S
C488 H501 0.929 . S
C489 C488 1.373 . S
C489 C490 1.396 . S
C489 C496 1.403 . S
C490 C480 1.476 . S
C490 N485 1.318 . S
C490 C489 1.396 . S
H491 C486 0.929 . S
O492 Mn468 2.385 . S
O492 C470 1.234 . S
O493 Mn468 2.209 . S
O493 Mn469 2.215 . S
O493 C470 1.283 . S
O494 Mn468 2.094 . S
O494 C472 1.240 . S
O495 Mn469 2.117 . S
O495 C472 1.264 . S
C496 C489 1.403 . S
C496 C497 1.399 . S
C496 H502 0.929 . S
C497 C477 1.449 . S
C497 C496 1.399 . S
C497 H503 0.930 . S
H498 C478 0.931 . S
H499 C479 0.930 . S
H500 C487 0.931 . S
H501 C488 0.929 . S
H502 C496 0.929 . S
H503 C497 0.930 . S
Mn504 O509 2.095 . S
Mn504 O519 2.162 . S
Mn504 O520 2.297 . S
Mn504 O528 2.385 . S
Mn504 O529 2.209 . S
Mn504 O530 2.094 . S
Mn505 O510 2.121 . S
Mn505 N512 2.257 . S
Mn505 N521 2.282 . S
Mn505 O529 2.215 . S
Mn505 O531 2.117 . S
C506 O528 1.234 . S
C506 O529 1.283 . S
C507 O519 1.281 . S
C507 O520 1.236 . S
C508 O530 1.240 . S
C508 O531 1.264 . S
O509 Mn504 2.095 . S
O509 C518 1.250 . S
O510 Mn505 2.121 . S
O510 C518 1.258 . S
C511 N512 1.326 . S
C511 C515 1.460 . S
C511 H517 0.929 . S
N512 Mn505 2.257 . S
N512 C511 1.326 . S
N512 C516 1.362 . S
C513 C514 1.258 . S
C513 C516 1.431 . S
C513 C533 1.449 . S
C514 C513 1.258 . S
C514 C515 1.477 . S
C514 H534 0.931 . S
C515 C511 1.460 . S
C515 C514 1.477 . S
C515 H535 0.930 . S
C516 N512 1.362 . S
C516 C513 1.431 . S
C516 C526 1.476 . S
H517 C511 0.929 . S
C518 O509 1.250 . S
C518 O510 1.258 . S
O519 Mn504 2.162 . S
O519 C507 1.281 . S
O520 Mn504 2.297 . S
O520 C507 1.236 . S
N521 Mn505 2.282 . S
N521 C522 1.328 . S
N521 C526 1.318 . S
C522 N521 1.328 . S
C522 C523 1.457 . S
C522 H527 0.929 . S
C523 C522 1.457 . S
C523 C524 1.291 . S
C523 H536 0.931 . S
C524 C523 1.291 . S
C524 C525 1.373 . S
C524 H537 0.929 . S
C525 C524 1.373 . S
C525 C526 1.396 . S
C525 C532 1.403 . S
C526 C516 1.476 . S
C526 N521 1.318 . S
C526 C525 1.396 . S
H527 C522 0.929 . S
O528 Mn504 2.385 . S
O528 C506 1.234 . S
O529 Mn504 2.209 . S
O529 Mn505 2.215 . S
O529 C506 1.283 . S
O530 Mn504 2.094 . S
O530 C508 1.240 . S
O531 Mn505 2.117 . S
O531 C508 1.264 . S
C532 C525 1.403 . S
C532 C533 1.399 . S
C532 H538 0.929 . S
C533 C513 1.449 . S
C533 C532 1.399 . S
C533 H539 0.930 . S
H534 C514 0.931 . S
H535 C515 0.930 . S
H536 C523 0.931 . S
H537 C524 0.929 . S
H538 C532 0.929 . S
H539 C533 0.930 . S
Mn540 O545 2.095 . S
Mn540 O555 2.162 . S
Mn540 O556 2.297 . S
Mn540 O564 2.385 . S
Mn540 O565 2.209 . S
Mn540 O566 2.094 . S
Mn541 O546 2.121 . S
Mn541 N548 2.257 . S
Mn541 N557 2.282 . S
Mn541 O565 2.215 . S
Mn541 O567 2.117 . S
C542 O564 1.234 . S
C542 O565 1.283 . S
C543 O555 1.281 . S
C543 O556 1.236 . S
C544 O566 1.240 . S
C544 O567 1.264 . S
O545 Mn540 2.095 . S
O545 C554 1.250 . S
O546 Mn541 2.121 . S
O546 C554 1.258 . S
C547 N548 1.326 . S
C547 C551 1.460 . S
C547 H553 0.929 . S
N548 Mn541 2.257 . S
N548 C547 1.326 . S
N548 C552 1.362 . S
C549 C550 1.258 . S
C549 C552 1.431 . S
C549 C569 1.449 . S
C550 C549 1.258 . S
C550 C551 1.477 . S
C550 H570 0.931 . S
C551 C547 1.460 . S
C551 C550 1.477 . S
C551 H571 0.930 . S
C552 N548 1.362 . S
C552 C549 1.431 . S
C552 C562 1.476 . S
H553 C547 0.929 . S
C554 O545 1.250 . S
C554 O546 1.258 . S
O555 Mn540 2.162 . S
O555 C543 1.281 . S
O556 Mn540 2.297 . S
O556 C543 1.236 . S
N557 Mn541 2.282 . S
N557 C558 1.328 . S
N557 C562 1.318 . S
C558 N557 1.328 . S
C558 C559 1.457 . S
C558 H563 0.929 . S
C559 C558 1.457 . S
C559 C560 1.291 . S
C559 H572 0.931 . S
C560 C559 1.291 . S
C560 C561 1.373 . S
C560 H573 0.929 . S
C561 C560 1.373 . S
C561 C562 1.396 . S
C561 C568 1.403 . S
C562 C552 1.476 . S
C562 N557 1.318 . S
C562 C561 1.396 . S
H563 C558 0.929 . S
O564 Mn540 2.385 . S
O564 C542 1.234 . S
O565 Mn540 2.209 . S
O565 Mn541 2.215 . S
O565 C542 1.283 . S
O566 Mn540 2.094 . S
O566 C544 1.240 . S
O567 Mn541 2.117 . S
O567 C544 1.264 . S
C568 C561 1.403 . S
C568 C569 1.399 . S
C568 H574 0.929 . S
C569 C549 1.449 . S
C569 C568 1.399 . S
C569 H575 0.930 . S
H570 C550 0.931 . S
H571 C551 0.930 . S
H572 C559 0.931 . S
H573 C560 0.929 . S
H574 C568 0.929 . S
H575 C569 0.930 . S
Mn576 O581 2.095 . S
Mn576 O591 2.162 . S
Mn576 O592 2.297 . S
Mn576 O600 2.385 . S
Mn576 O601 2.209 . S
Mn576 O602 2.094 . S
Mn577 O582 2.121 . S
Mn577 N584 2.257 . S
Mn577 N593 2.282 . S
Mn577 O601 2.215 . S
Mn577 O603 2.117 . S
C578 O600 1.234 . S
C578 O601 1.283 . S
C579 O591 1.281 . S
C579 O592 1.236 . S
C580 O602 1.240 . S
C580 O603 1.264 . S
O581 Mn576 2.095 . S
O581 C590 1.250 . S
O582 Mn577 2.121 . S
O582 C590 1.258 . S
C583 N584 1.326 . S
C583 C587 1.460 . S
C583 H589 0.929 . S
N584 Mn577 2.257 . S
N584 C583 1.326 . S
N584 C588 1.362 . S
C585 C586 1.258 . S
C585 C588 1.431 . S
C585 C605 1.449 . S
C586 C585 1.258 . S
C586 C587 1.477 . S
C586 H606 0.931 . S
C587 C583 1.460 . S
C587 C586 1.477 . S
C587 H607 0.930 . S
C588 N584 1.362 . S
C588 C585 1.431 . S
C588 C598 1.476 . S
H589 C583 0.929 . S
C590 O581 1.250 . S
C590 O582 1.258 . S
O591 Mn576 2.162 . S
O591 C579 1.281 . S
O592 Mn576 2.297 . S
O592 C579 1.236 . S
N593 Mn577 2.282 . S
N593 C594 1.328 . S
N593 C598 1.318 . S
C594 N593 1.328 . S
C594 C595 1.457 . S
C594 H599 0.929 . S
C595 C594 1.457 . S
C595 C596 1.291 . S
C595 H608 0.931 . S
C596 C595 1.291 . S
C596 C597 1.373 . S
C596 H609 0.929 . S
C597 C596 1.373 . S
C597 C598 1.396 . S
C597 C604 1.403 . S
C598 C588 1.476 . S
C598 N593 1.318 . S
C598 C597 1.396 . S
H599 C594 0.929 . S
O600 Mn576 2.385 . S
O600 C578 1.234 . S
O601 Mn576 2.209 . S
O601 Mn577 2.215 . S
O601 C578 1.283 . S
O602 Mn576 2.094 . S
O602 C580 1.240 . S
O603 Mn577 2.117 . S
O603 C580 1.264 . S
C604 C597 1.403 . S
C604 C605 1.399 . S
C604 H610 0.929 . S
C605 C585 1.449 . S
C605 C604 1.399 . S
C605 H611 0.930 . S
H606 C586 0.931 . S
H607 C587 0.930 . S
H608 C595 0.931 . S
H609 C596 0.929 . S
H610 C604 0.929 . S
H611 C605 0.930 . S
Mn612 O617 2.095 . S
Mn612 O627 2.162 . S
Mn612 O628 2.297 . S
Mn612 O636 2.385 . S
Mn612 O637 2.209 . S
Mn612 O638 2.094 . S
Mn613 O618 2.121 . S
Mn613 N620 2.257 . S
Mn613 N629 2.282 . S
Mn613 O637 2.215 . S
Mn613 O639 2.117 . S
C614 O636 1.234 . S
C614 O637 1.283 . S
C615 O627 1.281 . S
C615 O628 1.236 . S
C616 O638 1.240 . S
C616 O639 1.264 . S
O617 Mn612 2.095 . S
O617 C626 1.250 . S
O618 Mn613 2.121 . S
O618 C626 1.258 . S
C619 N620 1.326 . S
C619 C623 1.460 . S
C619 H625 0.929 . S
N620 Mn613 2.257 . S
N620 C619 1.326 . S
N620 C624 1.362 . S
C621 C622 1.258 . S
C621 C624 1.431 . S
C621 C641 1.449 . S
C622 C621 1.258 . S
C622 C623 1.477 . S
C622 H642 0.931 . S
C623 C619 1.460 . S
C623 C622 1.477 . S
C623 H643 0.930 . S
C624 N620 1.362 . S
C624 C621 1.431 . S
C624 C634 1.476 . S
H625 C619 0.929 . S
C626 O617 1.250 . S
C626 O618 1.258 . S
O627 Mn612 2.162 . S
O627 C615 1.281 . S
O628 Mn612 2.297 . S
O628 C615 1.236 . S
N629 Mn613 2.282 . S
N629 C630 1.328 . S
N629 C634 1.318 . S
C630 N629 1.328 . S
C630 C631 1.457 . S
C630 H635 0.929 . S
C631 C630 1.457 . S
C631 C632 1.291 . S
C631 H644 0.931 . S
C632 C631 1.291 . S
C632 C633 1.373 . S
C632 H645 0.929 . S
C633 C632 1.373 . S
C633 C634 1.396 . S
C633 C640 1.403 . S
C634 C624 1.476 . S
C634 N629 1.318 . S
C634 C633 1.396 . S
H635 C630 0.929 . S
O636 Mn612 2.385 . S
O636 C614 1.234 . S
O637 Mn612 2.209 . S
O637 Mn613 2.215 . S
O637 C614 1.283 . S
O638 Mn612 2.094 . S
O638 C616 1.240 . S
O639 Mn613 2.117 . S
O639 C616 1.264 . S
C640 C633 1.403 . S
C640 C641 1.399 . S
C640 H646 0.929 . S
C641 C621 1.449 . S
C641 C640 1.399 . S
C641 H647 0.930 . S
H642 C622 0.931 . S
H643 C623 0.930 . S
H644 C631 0.931 . S
H645 C632 0.929 . S
H646 C640 0.929 . S
H647 C641 0.930 . S
Mn648 O653 2.095 . S
Mn648 O663 2.162 . S
Mn648 O664 2.297 . S
Mn648 O672 2.385 . S
Mn648 O673 2.209 . S
Mn648 O674 2.094 . S
Mn649 O654 2.121 . S
Mn649 N656 2.257 . S
Mn649 N665 2.282 . S
Mn649 O673 2.215 . S
Mn649 O675 2.117 . S
C650 O672 1.234 . S
C650 O673 1.283 . S
C651 O663 1.281 . S
C651 O664 1.236 . S
C652 O674 1.240 . S
C652 O675 1.264 . S
O653 Mn648 2.095 . S
O653 C662 1.250 . S
O654 Mn649 2.121 . S
O654 C662 1.258 . S
C655 N656 1.326 . S
C655 C659 1.460 . S
C655 H661 0.929 . S
N656 Mn649 2.257 . S
N656 C655 1.326 . S
N656 C660 1.362 . S
C657 C658 1.258 . S
C657 C660 1.431 . S
C657 C677 1.449 . S
C658 C657 1.258 . S
C658 C659 1.477 . S
C658 H678 0.931 . S
C659 C655 1.460 . S
C659 C658 1.477 . S
C659 H679 0.930 . S
C660 N656 1.362 . S
C660 C657 1.431 . S
C660 C670 1.476 . S
H661 C655 0.929 . S
C662 O653 1.250 . S
C662 O654 1.258 . S
O663 Mn648 2.162 . S
O663 C651 1.281 . S
O664 Mn648 2.297 . S
O664 C651 1.236 . S
N665 Mn649 2.282 . S
N665 C666 1.328 . S
N665 C670 1.318 . S
C666 N665 1.328 . S
C666 C667 1.457 . S
C666 H671 0.929 . S
C667 C666 1.457 . S
C667 C668 1.291 . S
C667 H680 0.931 . S
C668 C667 1.291 . S
C668 C669 1.373 . S
C668 H681 0.929 . S
C669 C668 1.373 . S
C669 C670 1.396 . S
C669 C676 1.403 . S
C670 C660 1.476 . S
C670 N665 1.318 . S
C670 C669 1.396 . S
H671 C666 0.929 . S
O672 Mn648 2.385 . S
O672 C650 1.234 . S
O673 Mn648 2.209 . S
O673 Mn649 2.215 . S
O673 C650 1.283 . S
O674 Mn648 2.094 . S
O674 C652 1.240 . S
O675 Mn649 2.117 . S
O675 C652 1.264 . S
C676 C669 1.403 . S
C676 C677 1.399 . S
C676 H682 0.929 . S
C677 C657 1.449 . S
C677 C676 1.399 . S
C677 H683 0.930 . S
H678 C658 0.931 . S
H679 C659 0.930 . S
H680 C667 0.931 . S
H681 C668 0.929 . S
H682 C676 0.929 . S
H683 C677 0.930 . S
Mn684 O689 2.095 . S
Mn684 O699 2.162 . S
Mn684 O700 2.297 . S
Mn684 O708 2.385 . S
Mn684 O709 2.209 . S
Mn684 O710 2.094 . S
Mn685 O690 2.121 . S
Mn685 N692 2.257 . S
Mn685 N701 2.282 . S
Mn685 O709 2.215 . S
Mn685 O711 2.117 . S
C686 O708 1.234 . S
C686 O709 1.283 . S
C687 O699 1.281 . S
C687 O700 1.236 . S
C688 O710 1.240 . S
C688 O711 1.264 . S
O689 Mn684 2.095 . S
O689 C698 1.250 . S
O690 Mn685 2.121 . S
O690 C698 1.258 . S
C691 N692 1.326 . S
C691 C695 1.460 . S
C691 H697 0.929 . S
N692 Mn685 2.257 . S
N692 C691 1.326 . S
N692 C696 1.362 . S
C693 C694 1.258 . S
C693 C696 1.431 . S
C693 C713 1.449 . S
C694 C693 1.258 . S
C694 C695 1.477 . S
C694 H714 0.931 . S
C695 C691 1.460 . S
C695 C694 1.477 . S
C695 H715 0.930 . S
C696 N692 1.362 . S
C696 C693 1.431 . S
C696 C706 1.476 . S
H697 C691 0.929 . S
C698 O689 1.250 . S
C698 O690 1.258 . S
O699 Mn684 2.162 . S
O699 C687 1.281 . S
O700 Mn684 2.297 . S
O700 C687 1.236 . S
N701 Mn685 2.282 . S
N701 C702 1.328 . S
N701 C706 1.318 . S
C702 N701 1.328 . S
C702 C703 1.457 . S
C702 H707 0.929 . S
C703 C702 1.457 . S
C703 C704 1.291 . S
C703 H716 0.931 . S
C704 C703 1.291 . S
C704 C705 1.373 . S
C704 H717 0.929 . S
C705 C704 1.373 . S
C705 C706 1.396 . S
C705 C712 1.403 . S
C706 C696 1.476 . S
C706 N701 1.318 . S
C706 C705 1.396 . S
H707 C702 0.929 . S
O708 Mn684 2.385 . S
O708 C686 1.234 . S
O709 Mn684 2.209 . S
O709 Mn685 2.215 . S
O709 C686 1.283 . S
O710 Mn684 2.094 . S
O710 C688 1.240 . S
O711 Mn685 2.117 . S
O711 C688 1.264 . S
C712 C705 1.403 . S
C712 C713 1.399 . S
C712 H718 0.929 . S
C713 C693 1.449 . S
C713 C712 1.399 . S
C713 H719 0.930 . S
H714 C694 0.931 . S
H715 C695 0.930 . S
H716 C703 0.931 . S
H717 C704 0.929 . S
H718 C712 0.929 . S
H719 C713 0.930 . S
Mn720 O725 2.095 . S
Mn720 O735 2.162 . S
Mn720 O736 2.297 . S
Mn720 O744 2.385 . S
Mn720 O745 2.209 . S
Mn720 O746 2.094 . S
Mn721 O726 2.121 . S
Mn721 N728 2.257 . S
Mn721 N737 2.282 . S
Mn721 O745 2.215 . S
Mn721 O747 2.117 . S
C722 O744 1.234 . S
C722 O745 1.283 . S
C723 O735 1.281 . S
C723 O736 1.236 . S
C724 O746 1.240 . S
C724 O747 1.264 . S
O725 Mn720 2.095 . S
O725 C734 1.250 . S
O726 Mn721 2.121 . S
O726 C734 1.258 . S
C727 N728 1.326 . S
C727 C731 1.460 . S
C727 H733 0.929 . S
N728 Mn721 2.257 . S
N728 C727 1.326 . S
N728 C732 1.362 . S
C729 C730 1.258 . S
C729 C732 1.431 . S
C729 C749 1.449 . S
C730 C729 1.258 . S
C730 C731 1.477 . S
C730 H750 0.931 . S
C731 C727 1.460 . S
C731 C730 1.477 . S
C731 H751 0.930 . S
C732 N728 1.362 . S
C732 C729 1.431 . S
C732 C742 1.476 . S
H733 C727 0.929 . S
C734 O725 1.250 . S
C734 O726 1.258 . S
O735 Mn720 2.162 . S
O735 C723 1.281 . S
O736 Mn720 2.297 . S
O736 C723 1.236 . S
N737 Mn721 2.282 . S
N737 C738 1.328 . S
N737 C742 1.318 . S
C738 N737 1.328 . S
C738 C739 1.457 . S
C738 H743 0.929 . S
C739 C738 1.457 . S
C739 C740 1.291 . S
C739 H752 0.931 . S
C740 C739 1.291 . S
C740 C741 1.373 . S
C740 H753 0.929 . S
C741 C740 1.373 . S
C741 C742 1.396 . S
C741 C748 1.403 . S
C742 C732 1.476 . S
C742 N737 1.318 . S
C742 C741 1.396 . S
H743 C738 0.929 . S
O744 Mn720 2.385 . S
O744 C722 1.234 . S
O745 Mn720 2.209 . S
O745 Mn721 2.215 . S
O745 C722 1.283 . S
O746 Mn720 2.094 . S
O746 C724 1.240 . S
O747 Mn721 2.117 . S
O747 C724 1.264 . S
C748 C741 1.403 . S
C748 C749 1.399 . S
C748 H754 0.929 . S
C749 C729 1.449 . S
C749 C748 1.399 . S
C749 H755 0.930 . S
H750 C730 0.931 . S
H751 C731 0.930 . S
H752 C739 0.931 . S
H753 C740 0.929 . S
H754 C748 0.929 . S
H755 C749 0.930 . S
Mn756 O761 2.095 . S
Mn756 O771 2.162 . S
Mn756 O772 2.297 . S
Mn756 O780 2.385 . S
Mn756 O781 2.209 . S
Mn756 O782 2.094 . S
Mn757 O762 2.121 . S
Mn757 N764 2.257 . S
Mn757 N773 2.282 . S
Mn757 O781 2.215 . S
Mn757 O783 2.117 . S
C758 O780 1.234 . S
C758 O781 1.283 . S
C759 O771 1.281 . S
C759 O772 1.236 . S
C760 O782 1.240 . S
C760 O783 1.264 . S
O761 Mn756 2.095 . S
O761 C770 1.250 . S
O762 Mn757 2.121 . S
O762 C770 1.258 . S
C763 N764 1.326 . S
C763 C767 1.460 . S
C763 H769 0.929 . S
N764 Mn757 2.257 . S
N764 C763 1.326 . S
N764 C768 1.362 . S
C765 C766 1.258 . S
C765 C768 1.431 . S
C765 C785 1.449 . S
C766 C765 1.258 . S
C766 C767 1.477 . S
C766 H786 0.931 . S
C767 C763 1.460 . S
C767 C766 1.477 . S
C767 H787 0.930 . S
C768 N764 1.362 . S
C768 C765 1.431 . S
C768 C778 1.476 . S
H769 C763 0.929 . S
C770 O761 1.250 . S
C770 O762 1.258 . S
O771 Mn756 2.162 . S
O771 C759 1.281 . S
O772 Mn756 2.297 . S
O772 C759 1.236 . S
N773 Mn757 2.282 . S
N773 C774 1.328 . S
N773 C778 1.318 . S
C774 N773 1.328 . S
C774 C775 1.457 . S
C774 H779 0.929 . S
C775 C774 1.457 . S
C775 C776 1.291 . S
C775 H788 0.931 . S
C776 C775 1.291 . S
C776 C777 1.373 . S
C776 H789 0.929 . S
C777 C776 1.373 . S
C777 C778 1.396 . S
C777 C784 1.403 . S
C778 C768 1.476 . S
C778 N773 1.318 . S
C778 C777 1.396 . S
H779 C774 0.929 . S
O780 Mn756 2.385 . S
O780 C758 1.234 . S
O781 Mn756 2.209 . S
O781 Mn757 2.215 . S
O781 C758 1.283 . S
O782 Mn756 2.094 . S
O782 C760 1.240 . S
O783 Mn757 2.117 . S
O783 C760 1.264 . S
C784 C777 1.403 . S
C784 C785 1.399 . S
C784 H790 0.929 . S
C785 C765 1.449 . S
C785 C784 1.399 . S
C785 H791 0.930 . S
H786 C766 0.931 . S
H787 C767 0.930 . S
H788 C775 0.931 . S
H789 C776 0.929 . S
H790 C784 0.929 . S
H791 C785 0.930 . S
Mn792 O797 2.095 . S
Mn792 O807 2.162 . S
Mn792 O808 2.297 . S
Mn792 O816 2.385 . S
Mn792 O817 2.209 . S
Mn792 O818 2.094 . S
Mn793 O798 2.121 . S
Mn793 N800 2.257 . S
Mn793 N809 2.282 . S
Mn793 O817 2.215 . S
Mn793 O819 2.117 . S
C794 O816 1.234 . S
C794 O817 1.283 . S
C795 O807 1.281 . S
C795 O808 1.236 . S
C796 O818 1.240 . S
C796 O819 1.264 . S
O797 Mn792 2.095 . S
O797 C806 1.250 . S
O798 Mn793 2.121 . S
O798 C806 1.258 . S
C799 N800 1.326 . S
C799 C803 1.460 . S
C799 H805 0.929 . S
N800 Mn793 2.257 . S
N800 C799 1.326 . S
N800 C804 1.362 . S
C801 C802 1.258 . S
C801 C804 1.431 . S
C801 C821 1.449 . S
C802 C801 1.258 . S
C802 C803 1.477 . S
C802 H822 0.931 . S
C803 C799 1.460 . S
C803 C802 1.477 . S
C803 H823 0.930 . S
C804 N800 1.362 . S
C804 C801 1.431 . S
C804 C814 1.476 . S
H805 C799 0.929 . S
C806 O797 1.250 . S
C806 O798 1.258 . S
O807 Mn792 2.162 . S
O807 C795 1.281 . S
O808 Mn792 2.297 . S
O808 C795 1.236 . S
N809 Mn793 2.282 . S
N809 C810 1.328 . S
N809 C814 1.318 . S
C810 N809 1.328 . S
C810 C811 1.457 . S
C810 H815 0.929 . S
C811 C810 1.457 . S
C811 C812 1.291 . S
C811 H824 0.931 . S
C812 C811 1.291 . S
C812 C813 1.373 . S
C812 H825 0.929 . S
C813 C812 1.373 . S
C813 C814 1.396 . S
C813 C820 1.403 . S
C814 C804 1.476 . S
C814 N809 1.318 . S
C814 C813 1.396 . S
H815 C810 0.929 . S
O816 Mn792 2.385 . S
O816 C794 1.234 . S
O817 Mn792 2.209 . S
O817 Mn793 2.215 . S
O817 C794 1.283 . S
O818 Mn792 2.094 . S
O818 C796 1.240 . S
O819 Mn793 2.117 . S
O819 C796 1.264 . S
C820 C813 1.403 . S
C820 C821 1.399 . S
C820 H826 0.929 . S
C821 C801 1.449 . S
C821 C820 1.399 . S
C821 H827 0.930 . S
H822 C802 0.931 . S
H823 C803 0.930 . S
H824 C811 0.931 . S
H825 C812 0.929 . S
H826 C820 0.929 . S
H827 C821 0.930 . S
Mn828 O833 2.095 . S
Mn828 O843 2.162 . S
Mn828 O844 2.297 . S
Mn828 O852 2.385 . S
Mn828 O853 2.209 . S
Mn828 O854 2.094 . S
Mn829 O834 2.121 . S
Mn829 N836 2.257 . S
Mn829 N845 2.282 . S
Mn829 O853 2.215 . S
Mn829 O855 2.117 . S
C830 O852 1.234 . S
C830 O853 1.283 . S
C831 O843 1.281 . S
C831 O844 1.236 . S
C832 O854 1.240 . S
C832 O855 1.264 . S
O833 Mn828 2.095 . S
O833 C842 1.250 . S
O834 Mn829 2.121 . S
O834 C842 1.258 . S
C835 N836 1.326 . S
C835 C839 1.460 . S
C835 H841 0.929 . S
N836 Mn829 2.257 . S
N836 C835 1.326 . S
N836 C840 1.362 . S
C837 C838 1.258 . S
C837 C840 1.431 . S
C837 C857 1.449 . S
C838 C837 1.258 . S
C838 C839 1.477 . S
C838 H858 0.931 . S
C839 C835 1.460 . S
C839 C838 1.477 . S
C839 H859 0.930 . S
C840 N836 1.362 . S
C840 C837 1.431 . S
C840 C850 1.476 . S
H841 C835 0.929 . S
C842 O833 1.250 . S
C842 O834 1.258 . S
O843 Mn828 2.162 . S
O843 C831 1.281 . S
O844 Mn828 2.297 . S
O844 C831 1.236 . S
N845 Mn829 2.282 . S
N845 C846 1.328 . S
N845 C850 1.318 . S
C846 N845 1.328 . S
C846 C847 1.457 . S
C846 H851 0.929 . S
C847 C846 1.457 . S
C847 C848 1.291 . S
C847 H860 0.931 . S
C848 C847 1.291 . S
C848 C849 1.373 . S
C848 H861 0.929 . S
C849 C848 1.373 . S
C849 C850 1.396 . S
C849 C856 1.403 . S
C850 C840 1.476 . S
C850 N845 1.318 . S
C850 C849 1.396 . S
H851 C846 0.929 . S
O852 Mn828 2.385 . S
O852 C830 1.234 . S
O853 Mn828 2.209 . S
O853 Mn829 2.215 . S
O853 C830 1.283 . S
O854 Mn828 2.094 . S
O854 C832 1.240 . S
O855 Mn829 2.117 . S
O855 C832 1.264 . S
C856 C849 1.403 . S
C856 C857 1.399 . S
C856 H862 0.929 . S
C857 C837 1.449 . S
C857 C856 1.399 . S
C857 H863 0.930 . S
H858 C838 0.931 . S
H859 C839 0.930 . S
H860 C847 0.931 . S
H861 C848 0.929 . S
H862 C856 0.929 . S
H863 C857 0.930 . S
H864 C872 0.929 . S
H865 C874 0.930 . S
H866 C876 0.930 . S
H867 C879 0.929 . S
H868 C882 0.930 . S
H869 C884 0.960 . S
H870 C884 0.960 . S
H871 C884 0.960 . S
C872 H864 0.929 . S
C872 C873 1.377 . S
C872 C874 1.384 . S
C873 C872 1.377 . S
C873 C879 1.390 . S
C874 H865 0.930 . S
C874 C872 1.384 . S
C874 C875 1.372 . S
C875 C874 1.372 . S
C875 C876 1.400 . S
C875 C880 1.490 . S
C876 H866 0.930 . S
C876 C875 1.400 . S
C876 C879 1.386 . S
H877 C893 0.930 . S
H878 C894 0.931 . S
C879 H867 0.929 . S
C879 C873 1.390 . S
C879 C876 1.386 . S
C880 C875 1.490 . S
C880 C882 1.395 . S
C880 C883 1.403 . S
H881 C887 0.930 . S
C882 H868 0.930 . S
C882 C880 1.395 . S
C882 C885 1.403 . S
C883 C880 1.403 . S
C883 C884 1.524 . S
C883 C887 1.400 . S
C884 H869 0.960 . S
C884 H870 0.960 . S
C884 H871 0.960 . S
C884 C883 1.524 . S
C885 C882 1.403 . S
C885 C886 1.392 . S
C885 C889 1.495 . S
C886 C885 1.392 . S
C886 C887 1.385 . S
C886 C888 1.478 . S
C887 H881 0.930 . S
C887 C883 1.400 . S
C887 C886 1.385 . S
C888 C886 1.478 . S
C888 C890 1.381 . S
C888 C894 1.383 . S
C889 C885 1.495 . S
C889 H895 0.959 . S
C889 H896 0.961 . S
C889 H897 0.960 . S
C890 C888 1.381 . S
C890 C891 1.394 . S
C890 H898 0.930 . S
C891 C890 1.394 . S
C891 C892 1.383 . S
C891 H899 0.929 . S
C892 C891 1.383 . S
C892 C893 1.377 . S
C893 H877 0.930 . S
C893 C892 1.377 . S
C893 C894 1.379 . S
C894 H878 0.931 . S
C894 C888 1.383 . S
C894 C893 1.379 . S
H895 C889 0.959 . S
H896 C889 0.961 . S
H897 C889 0.960 . S
H898 C890 0.930 . S
H899 C891 0.929 . S
H900 C908 0.929 . S
H901 C910 0.930 . S
H902 C912 0.930 . S
H903 C915 0.929 . S
H904 C918 0.930 . S
H905 C920 0.960 1_455 S
H906 C920 0.960 . S
H907 C920 0.960 . S
C908 H900 0.929 . S
C908 C909 1.377 . S
C908 C910 1.384 . S
C909 C908 1.377 . S
C909 C915 1.390 . S
C910 H901 0.930 . S
C910 C908 1.384 . S
C910 C911 1.372 . S
C911 C910 1.372 . S
C911 C912 1.400 . S
C911 C916 1.490 . S
C912 H902 0.930 . S
C912 C911 1.400 . S
C912 C915 1.386 . S
H913 C929 0.930 . S
H914 C930 0.931 . S
C915 H903 0.929 . S
C915 C909 1.390 . S
C915 C912 1.386 . S
C916 C911 1.490 . S
C916 C918 1.395 . S
C916 C919 1.409 . S
H917 C923 0.930 . S
C918 H904 0.930 . S
C918 C916 1.395 . S
C918 C921 1.403 1_655 S
C919 C916 1.409 . S
C919 C920 1.528 . S
C919 C923 1.389 1_655 S
C920 H905 0.960 1_655 S
C920 H906 0.960 . S
C920 H907 0.960 . S
C920 C919 1.528 . S
C921 C918 1.403 1_455 S
C921 C922 1.392 . S
C921 C925 1.495 . S
C922 C921 1.392 . S
C922 C923 1.385 . S
C922 C924 1.478 . S
C923 H917 0.930 . S
C923 C919 1.389 1_455 S
C923 C922 1.385 . S
C924 C922 1.478 . S
C924 C926 1.381 . S
C924 C930 1.383 . S
C925 C921 1.495 . S
C925 H931 0.959 . S
C925 H932 0.961 . S
C925 H933 0.960 . S
C926 C924 1.381 . S
C926 C927 1.394 . S
C926 H934 0.930 . S
C927 C926 1.394 . S
C927 C928 1.383 . S
C927 H935 0.929 . S
C928 C927 1.383 . S
C928 C929 1.377 . S
C929 H913 0.930 . S
C929 C928 1.377 . S
C929 C930 1.379 . S
C930 H914 0.931 . S
C930 C924 1.383 . S
C930 C929 1.379 . S
H931 C925 0.959 . S
H932 C925 0.961 . S
H933 C925 0.960 . S
H934 C926 0.930 . S
H935 C927 0.929 . S
H936 C944 0.929 . S
H937 C946 0.930 . S
H938 C948 0.930 . S
H939 C951 0.929 . S
H940 C954 0.930 . S
H941 C956 0.960 . S
H942 C956 0.960 . S
H943 C956 0.960 . S
C944 H936 0.929 . S
C944 C945 1.377 . S
C944 C946 1.384 . S
C945 C944 1.377 . S
C945 C951 1.390 . S
C946 H937 0.930 . S
C946 C944 1.384 . S
C946 C947 1.372 . S
C947 C946 1.372 . S
C947 C948 1.400 . S
C947 C952 1.490 . S
C948 H938 0.930 . S
C948 C947 1.400 . S
C948 C951 1.386 . S
H949 C965 0.930 . S
H950 C966 0.931 . S
C951 H939 0.929 . S
C951 C945 1.390 . S
C951 C948 1.386 . S
C952 C947 1.490 . S
C952 C954 1.395 . S
C952 C955 1.403 . S
H953 C959 0.930 . S
C954 H940 0.930 . S
C954 C952 1.395 . S
C954 C957 1.403 . S
C955 C952 1.403 . S
C955 C956 1.524 . S
C955 C959 1.400 . S
C956 H941 0.960 . S
C956 H942 0.960 . S
C956 H943 0.960 . S
C956 C955 1.524 . S
C957 C954 1.403 . S
C957 C958 1.392 . S
C957 C961 1.495 . S
C958 C957 1.392 . S
C958 C959 1.385 . S
C958 C960 1.478 . S
C959 H953 0.930 . S
C959 C955 1.400 . S
C959 C958 1.385 . S
C960 C958 1.478 . S
C960 C962 1.381 . S
C960 C966 1.383 . S
C961 C957 1.495 . S
C961 H967 0.959 . S
C961 H968 0.961 . S
C961 H969 0.960 . S
C962 C960 1.381 . S
C962 C963 1.394 . S
C962 H970 0.930 . S
C963 C962 1.394 . S
C963 C964 1.383 . S
C963 H971 0.929 . S
C964 C963 1.383 . S
C964 C965 1.377 . S
C965 H949 0.930 . S
C965 C964 1.377 . S
C965 C966 1.379 . S
C966 H950 0.931 . S
C966 C960 1.383 . S
C966 C965 1.379 . S
H967 C961 0.959 . S
H968 C961 0.961 . S
H969 C961 0.960 . S
H970 C962 0.930 . S
H971 C963 0.929 . S
H972 C980 0.929 . S
H973 C982 0.930 . S
H974 C984 0.930 . S
H975 C987 0.929 . S
H976 C990 0.930 . S
H977 C992 0.962 . S
H978 C992 0.960 . S
H979 C992 0.960 . S
C980 H972 0.929 . S
C980 C981 1.377 . S
C980 C982 1.384 . S
C981 C980 1.377 . S
C981 C987 1.390 . S
C982 H973 0.930 . S
C982 C980 1.384 . S
C982 C983 1.372 . S
C983 C982 1.372 . S
C983 C984 1.400 . S
C983 C988 1.490 . S
C984 H974 0.930 . S
C984 C983 1.400 . S
C984 C987 1.386 . S
H985 C1001 0.930 . S
H986 C1002 0.931 . S
C987 H975 0.929 . S
C987 C981 1.390 . S
C987 C984 1.386 . S
C988 C983 1.490 . S
C988 C990 1.395 . S
C988 C991 1.403 . S
H989 C995 0.930 . S
C990 H976 0.930 . S
C990 C988 1.395 . S
C990 C993 1.403 1_455 S
C991 C988 1.403 . S
C991 C992 1.524 . S
C991 C995 1.400 1_455 S
C992 H977 0.962 . S
C992 H978 0.960 . S
C992 H979 0.960 . S
C992 C991 1.524 . S
C993 C990 1.403 1_655 S
C993 C994 1.392 . S
C993 C997 1.495 . S
C994 C993 1.392 . S
C994 C995 1.385 . S
C994 C996 1.478 . S
C995 H989 0.930 . S
C995 C991 1.400 1_655 S
C995 C994 1.385 . S
C996 C994 1.478 . S
C996 C998 1.381 . S
C996 C1002 1.383 . S
C997 C993 1.495 . S
C997 H1003 0.959 . S
C997 H1004 0.961 . S
C997 H1005 0.960 . S
C998 C996 1.381 . S
C998 C999 1.394 . S
C998 H1006 0.930 . S
C999 C998 1.394 . S
C999 C1000 1.383 . S
C999 H1007 0.929 . S
C1000 C999 1.383 . S
C1000 C1001 1.377 . S
C1001 H985 0.930 . S
C1001 C1000 1.377 . S
C1001 C1002 1.379 . S
C1002 H986 0.931 . S
C1002 C996 1.383 . S
C1002 C1001 1.379 . S
H1003 C997 0.959 . S
H1004 C997 0.961 . S
H1005 C997 0.960 . S
H1006 C998 0.930 . S
H1007 C999 0.929 . S
H1008 C1016 0.929 . S
H1009 C1018 0.930 . S
H1010 C1020 0.930 . S
H1011 C1023 0.929 . S
H1012 C1026 0.930 . S
H1013 C1028 0.960 . S
H1014 C1028 0.960 . S
H1015 C1028 0.960 . S
C1016 H1008 0.929 . S
C1016 C1017 1.377 . S
C1016 C1018 1.384 . S
C1017 C1016 1.377 . S
C1017 C1023 1.390 . S
C1018 H1009 0.930 . S
C1018 C1016 1.384 . S
C1018 C1019 1.372 . S
C1019 C1018 1.372 . S
C1019 C1020 1.400 . S
C1019 C1024 1.490 . S
C1020 H1010 0.930 . S
C1020 C1019 1.400 . S
C1020 C1023 1.386 . S
H1021 C1037 0.930 . S
H1022 C1038 0.931 . S
C1023 H1011 0.929 . S
C1023 C1017 1.390 . S
C1023 C1020 1.386 . S
C1024 C1019 1.490 . S
C1024 C1026 1.395 . S
C1024 C1027 1.403 . S
H1025 C1031 0.930 . S
C1026 H1012 0.930 . S
C1026 C1024 1.395 . S
C1026 C1029 1.403 . S
C1027 C1024 1.403 . S
C1027 C1028 1.524 . S
C1027 C1031 1.400 . S
C1028 H1013 0.960 . S
C1028 H1014 0.960 . S
C1028 H1015 0.960 . S
C1028 C1027 1.524 . S
C1029 C1026 1.403 . S
C1029 C1030 1.392 . S
C1029 C1033 1.495 . S
C1030 C1029 1.392 . S
C1030 C1031 1.385 . S
C1030 C1032 1.478 . S
C1031 H1025 0.930 . S
C1031 C1027 1.400 . S
C1031 C1030 1.385 . S
C1032 C1030 1.478 . S
C1032 C1034 1.381 . S
C1032 C1038 1.383 . S
C1033 C1029 1.495 . S
C1033 H1039 0.959 . S
C1033 H1040 0.961 . S
C1033 H1041 0.960 . S
C1034 C1032 1.381 . S
C1034 C1035 1.394 . S
C1034 H1042 0.930 . S
C1035 C1034 1.394 . S
C1035 C1036 1.383 . S
C1035 H1043 0.929 . S
C1036 C1035 1.383 . S
C1036 C1037 1.377 . S
C1037 H1021 0.930 . S
C1037 C1036 1.377 . S
C1037 C1038 1.379 . S
C1038 H1022 0.931 . S
C1038 C1032 1.383 . S
C1038 C1037 1.379 . S
H1039 C1033 0.959 . S
H1040 C1033 0.961 . S
H1041 C1033 0.960 . S
H1042 C1034 0.930 . S
H1043 C1035 0.929 . S
H1044 C1052 0.929 . S
H1045 C1054 0.930 . S
H1046 C1056 0.930 . S
H1047 C1059 0.929 . S
H1048 C1062 0.930 1_655 S
H1049 C1064 0.979 . S
H1050 C1064 0.945 1_655 S
H1051 C1064 0.945 1_655 S
C1052 H1044 0.929 . S
C1052 C1053 1.377 . S
C1052 C1054 1.384 . S
C1053 C1052 1.377 . S
C1053 C1059 1.390 . S
C1054 H1045 0.930 . S
C1054 C1052 1.384 . S
C1054 C1055 1.372 . S
C1055 C1054 1.372 . S
C1055 C1056 1.400 . S
C1055 C1060 1.490 . S
C1056 H1046 0.930 . S
C1056 C1055 1.400 . S
C1056 C1059 1.386 . S
H1057 C1073 0.930 . S
H1058 C1074 0.931 . S
C1059 H1047 0.929 . S
C1059 C1053 1.390 . S
C1059 C1056 1.386 . S
C1060 C1055 1.490 . S
C1060 C1062 1.395 1_655 S
C1060 C1063 1.403 1_655 S
H1061 C1067 0.930 . S
C1062 H1048 0.930 1_455 S
C1062 C1060 1.395 1_455 S
C1062 C1065 1.403 . S
C1063 C1060 1.403 1_455 S
C1063 C1064 1.535 . S
C1063 C1067 1.400 . S
C1064 H1049 0.979 . S
C1064 H1050 0.945 1_455 S
C1064 H1051 0.945 1_455 S
C1064 C1063 1.535 . S
C1065 C1062 1.403 . S
C1065 C1066 1.392 . S
C1065 C1069 1.495 . S
C1066 C1065 1.392 . S
C1066 C1067 1.385 . S
C1066 C1068 1.478 . S
C1067 H1061 0.930 . S
C1067 C1063 1.400 . S
C1067 C1066 1.385 . S
C1068 C1066 1.478 . S
C1068 C1070 1.381 . S
C1068 C1074 1.383 . S
C1069 C1065 1.495 . S
C1069 H1075 0.959 . S
C1069 H1076 0.961 . S
C1069 H1077 0.960 . S
C1070 C1068 1.381 . S
C1070 C1071 1.394 . S
C1070 H1078 0.930 . S
C1071 C1070 1.394 . S
C1071 C1072 1.383 . S
C1071 H1079 0.929 . S
C1072 C1071 1.383 . S
C1072 C1073 1.377 . S
C1073 H1057 0.930 . S
C1073 C1072 1.377 . S
C1073 C1074 1.379 . S
C1074 H1058 0.931 . S
C1074 C1068 1.383 . S
C1074 C1073 1.379 . S
H1075 C1069 0.959 . S
H1076 C1069 0.961 . S
H1077 C1069 0.960 . S
H1078 C1070 0.930 . S
H1079 C1071 0.929 . S
H1080 C1088 0.929 . S
H1081 C1090 0.930 . S
H1082 C1092 0.930 . S
H1083 C1095 0.929 . S
H1084 C1098 0.930 . S
H1085 C1100 0.960 . S
H1086 C1100 0.960 . S
H1087 C1100 0.960 . S
C1088 H1080 0.929 . S
C1088 C1089 1.377 . S
C1088 C1090 1.384 . S
C1089 C1088 1.377 . S
C1089 C1095 1.390 . S
C1090 H1081 0.930 . S
C1090 C1088 1.384 . S
C1090 C1091 1.372 . S
C1091 C1090 1.372 . S
C1091 C1092 1.400 . S
C1091 C1096 1.490 . S
C1092 H1082 0.930 . S
C1092 C1091 1.400 . S
C1092 C1095 1.386 . S
H1093 C1109 0.930 . S
H1094 C1110 0.931 . S
C1095 H1083 0.929 . S
C1095 C1089 1.390 . S
C1095 C1092 1.386 . S
C1096 C1091 1.490 . S
C1096 C1098 1.395 . S
C1096 C1099 1.403 . S
H1097 C1103 0.930 . S
C1098 H1084 0.930 . S
C1098 C1096 1.395 . S
C1098 C1101 1.403 . S
C1099 C1096 1.403 . S
C1099 C1100 1.524 . S
C1099 C1103 1.400 . S
C1100 H1085 0.960 . S
C1100 H1086 0.960 . S
C1100 H1087 0.960 . S
C1100 C1099 1.524 . S
C1101 C1098 1.403 . S
C1101 C1102 1.392 . S
C1101 C1105 1.495 . S
C1102 C1101 1.392 . S
C1102 C1103 1.385 . S
C1102 C1104 1.478 . S
C1103 H1097 0.930 . S
C1103 C1099 1.400 . S
C1103 C1102 1.385 . S
C1104 C1102 1.478 . S
C1104 C1106 1.381 . S
C1104 C1110 1.383 . S
C1105 C1101 1.495 . S
C1105 H1111 0.959 . S
C1105 H1112 0.961 . S
C1105 H1113 0.960 . S
C1106 C1104 1.381 . S
C1106 C1107 1.394 . S
C1106 H1114 0.930 . S
C1107 C1106 1.394 . S
C1107 C1108 1.383 . S
C1107 H1115 0.929 . S
C1108 C1107 1.383 . S
C1108 C1109 1.377 . S
C1109 H1093 0.930 . S
C1109 C1108 1.377 . S
C1109 C1110 1.379 . S
C1110 H1094 0.931 . S
C1110 C1104 1.383 . S
C1110 C1109 1.379 . S
H1111 C1105 0.959 . S
H1112 C1105 0.961 . S
H1113 C1105 0.960 . S
H1114 C1106 0.930 . S
H1115 C1107 0.929 . S
H1116 C1124 0.929 . S
H1117 C1126 0.930 . S
H1118 C1128 0.930 . S
H1119 C1131 0.929 . S
H1120 C1134 0.930 . S
H1121 C1136 0.960 . S
H1122 C1136 0.960 . S
H1123 C1136 0.960 . S
C1124 H1116 0.929 . S
C1124 C1125 1.377 . S
C1124 C1126 1.384 . S
C1125 C1124 1.377 . S
C1125 C1131 1.390 . S
C1126 H1117 0.930 . S
C1126 C1124 1.384 . S
C1126 C1127 1.372 . S
C1127 C1126 1.372 . S
C1127 C1128 1.400 . S
C1127 C1132 1.490 . S
C1128 H1118 0.930 . S
C1128 C1127 1.400 . S
C1128 C1131 1.386 . S
H1129 C1145 0.930 . S
H1130 C1146 0.931 . S
C1131 H1119 0.929 . S
C1131 C1125 1.390 . S
C1131 C1128 1.386 . S
C1132 C1127 1.490 . S
C1132 C1134 1.395 . S
C1132 C1135 1.403 . S
H1133 C1139 0.930 1_455 S
C1134 H1120 0.930 . S
C1134 C1132 1.395 . S
C1134 C1137 1.416 . S
C1135 C1132 1.403 . S
C1135 C1136 1.524 . S
C1135 C1139 1.400 . S
C1136 H1121 0.960 . S
C1136 H1122 0.960 . S
C1136 H1123 0.960 . S
C1136 C1135 1.524 . S
C1137 C1134 1.416 . S
C1137 C1138 1.385 1_655 S
C1137 C1141 1.490 1_655 S
C1138 C1137 1.385 1_455 S
C1138 C1139 1.385 1_455 S
C1138 C1140 1.478 . S
C1139 H1133 0.930 1_655 S
C1139 C1135 1.400 . S
C1139 C1138 1.385 1_655 S
C1140 C1138 1.478 . S
C1140 C1142 1.381 . S
C1140 C1146 1.383 . S
C1141 C1137 1.490 1_455 S
C1141 H1147 0.959 . S
C1141 H1148 0.961 . S
C1141 H1149 0.960 . S
C1142 C1140 1.381 . S
C1142 C1143 1.394 . S
C1142 H1150 0.930 . S
C1143 C1142 1.394 . S
C1143 C1144 1.383 . S
C1143 H1151 0.929 . S
C1144 C1143 1.383 . S
C1144 C1145 1.377 . S
C1145 H1129 0.930 . S
C1145 C1144 1.377 . S
C1145 C1146 1.379 . S
C1146 H1130 0.931 . S
C1146 C1140 1.383 . S
C1146 C1145 1.379 . S
H1147 C1141 0.959 . S
H1148 C1141 0.961 . S
H1149 C1141 0.960 . S
H1150 C1142 0.930 . S
H1151 C1143 0.929 . S
H1152 C1160 0.929 . S
H1153 C1162 0.930 . S
H1154 C1164 0.930 . S
H1155 C1167 0.929 . S
H1156 C1170 0.930 . S
H1157 C1172 0.960 . S
H1158 C1172 0.960 . S
H1159 C1172 0.960 . S
C1160 H1152 0.929 . S
C1160 C1161 1.377 . S
C1160 C1162 1.384 . S
C1161 C1160 1.377 . S
C1161 C1167 1.390 . S
C1162 H1153 0.930 . S
C1162 C1160 1.384 . S
C1162 C1163 1.372 . S
C1163 C1162 1.372 . S
C1163 C1164 1.400 . S
C1163 C1168 1.490 . S
C1164 H1154 0.930 . S
C1164 C1163 1.400 . S
C1164 C1167 1.386 . S
H1165 C1181 0.930 . S
H1166 C1182 0.931 . S
C1167 H1155 0.929 . S
C1167 C1161 1.390 . S
C1167 C1164 1.386 . S
C1168 C1163 1.490 . S
C1168 C1170 1.395 . S
C1168 C1171 1.403 . S
H1169 C1175 0.930 . S
C1170 H1156 0.930 . S
C1170 C1168 1.395 . S
C1170 C1173 1.403 . S
C1171 C1168 1.403 . S
C1171 C1172 1.524 . S
C1171 C1175 1.400 . S
C1172 H1157 0.960 . S
C1172 H1158 0.960 . S
C1172 H1159 0.960 . S
C1172 C1171 1.524 . S
C1173 C1170 1.403 . S
C1173 C1174 1.392 . S
C1173 C1177 1.495 . S
C1174 C1173 1.392 . S
C1174 C1175 1.385 . S
C1174 C1176 1.478 . S
C1175 H1169 0.930 . S
C1175 C1171 1.400 . S
C1175 C1174 1.385 . S
C1176 C1174 1.478 . S
C1176 C1178 1.381 . S
C1176 C1182 1.383 . S
C1177 C1173 1.495 . S
C1177 H1183 0.959 . S
C1177 H1184 0.961 . S
C1177 H1185 0.960 . S
C1178 C1176 1.381 . S
C1178 C1179 1.394 . S
C1178 H1186 0.930 . S
C1179 C1178 1.394 . S
C1179 C1180 1.383 . S
C1179 H1187 0.929 . S
C1180 C1179 1.383 . S
C1180 C1181 1.377 . S
C1181 H1165 0.930 . S
C1181 C1180 1.377 . S
C1181 C1182 1.379 . S
C1182 H1166 0.931 . S
C1182 C1176 1.383 . S
C1182 C1181 1.379 . S
H1183 C1177 0.959 . S
H1184 C1177 0.961 . S
H1185 C1177 0.960 . S
H1186 C1178 0.930 . S
H1187 C1179 0.929 . S
H1188 C1196 0.929 . S
H1189 C1198 0.930 . S
H1190 C1200 0.930 . S
H1191 C1203 0.929 . S
H1192 C1206 0.930 . S
H1193 C1208 0.960 . S
H1194 C1208 0.960 . S
H1195 C1208 0.960 . S
C1196 H1188 0.929 . S
C1196 C1197 1.377 . S
C1196 C1198 1.384 . S
C1197 C1196 1.377 . S
C1197 C1203 1.390 . S
C1198 H1189 0.930 . S
C1198 C1196 1.384 . S
C1198 C1199 1.372 . S
C1199 C1198 1.372 . S
C1199 C1200 1.400 . S
C1199 C1204 1.490 . S
C1200 H1190 0.930 . S
C1200 C1199 1.400 . S
C1200 C1203 1.386 . S
H1201 C1217 0.930 . S
H1202 C1218 0.931 . S
C1203 H1191 0.929 . S
C1203 C1197 1.390 . S
C1203 C1200 1.386 . S
C1204 C1199 1.490 . S
C1204 C1206 1.395 . S
C1204 C1207 1.403 . S
H1205 C1211 0.930 . S
C1206 H1192 0.930 . S
C1206 C1204 1.395 . S
C1206 C1209 1.403 1_556 S
C1207 C1204 1.403 . S
C1207 C1208 1.524 . S
C1207 C1211 1.400 1_556 S
C1208 H1193 0.960 . S
C1208 H1194 0.960 . S
C1208 H1195 0.960 . S
C1208 C1207 1.524 . S
C1209 C1206 1.403 1_554 S
C1209 C1210 1.392 . S
C1209 C1213 1.495 . S
C1210 C1209 1.392 . S
C1210 C1211 1.385 . S
C1210 C1212 1.478 . S
C1211 H1205 0.930 . S
C1211 C1207 1.400 1_554 S
C1211 C1210 1.385 . S
C1212 C1210 1.478 . S
C1212 C1214 1.381 . S
C1212 C1218 1.383 . S
C1213 C1209 1.495 . S
C1213 H1219 0.955 1_554 S
C1213 H1220 0.961 . S
C1213 H1221 0.960 . S
C1214 C1212 1.381 . S
C1214 C1215 1.394 . S
C1214 H1222 0.930 . S
C1215 C1214 1.394 . S
C1215 C1216 1.383 . S
C1215 H1223 0.929 . S
C1216 C1215 1.383 . S
C1216 C1217 1.377 . S
C1217 H1201 0.930 . S
C1217 C1216 1.377 . S
C1217 C1218 1.379 . S
C1218 H1202 0.931 . S
C1218 C1212 1.383 . S
C1218 C1217 1.379 . S
H1219 C1213 0.955 1_556 S
H1220 C1213 0.961 . S
H1221 C1213 0.960 . S
H1222 C1214 0.930 . S
H1223 C1215 0.929 . S
H1224 C1232 0.929 . S
H1225 C1234 0.930 . S
H1226 C1236 0.930 . S
H1227 C1239 0.929 . S
H1228 C1242 0.930 . S
H1229 C1244 0.960 . S
H1230 C1244 0.960 . S
H1231 C1244 0.960 . S
C1232 H1224 0.929 . S
C1232 C1233 1.377 . S
C1232 C1234 1.384 . S
C1233 C1232 1.377 . S
C1233 C1239 1.390 . S
C1234 H1225 0.930 . S
C1234 C1232 1.384 . S
C1234 C1235 1.372 . S
C1235 C1234 1.372 . S
C1235 C1236 1.400 . S
C1235 C1240 1.490 . S
C1236 H1226 0.930 . S
C1236 C1235 1.400 . S
C1236 C1239 1.386 . S
H1237 C1253 0.930 . S
H1238 C1254 0.931 . S
C1239 H1227 0.929 . S
C1239 C1233 1.390 . S
C1239 C1236 1.386 . S
C1240 C1235 1.490 . S
C1240 C1242 1.395 . S
C1240 C1243 1.403 . S
H1241 C1247 0.930 . S
C1242 H1228 0.930 . S
C1242 C1240 1.395 . S
C1242 C1245 1.403 . S
C1243 C1240 1.403 . S
C1243 C1244 1.524 . S
C1243 C1247 1.400 . S
C1244 H1229 0.960 . S
C1244 H1230 0.960 . S
C1244 H1231 0.960 . S
C1244 C1243 1.524 . S
C1245 C1242 1.403 . S
C1245 C1246 1.392 . S
C1245 C1249 1.495 . S
C1246 C1245 1.392 . S
C1246 C1247 1.385 . S
C1246 C1248 1.478 . S
C1247 H1241 0.930 . S
C1247 C1243 1.400 . S
C1247 C1246 1.385 . S
C1248 C1246 1.478 . S
C1248 C1250 1.381 . S
C1248 C1254 1.383 . S
C1249 C1245 1.495 . S
C1249 H1255 0.959 . S
C1249 H1256 0.961 . S
C1249 H1257 0.960 . S
C1250 C1248 1.381 . S
C1250 C1251 1.394 . S
C1250 H1258 0.930 . S
C1251 C1250 1.394 . S
C1251 C1252 1.383 . S
C1251 H1259 0.929 . S
C1252 C1251 1.383 . S
C1252 C1253 1.377 . S
C1253 H1237 0.930 . S
C1253 C1252 1.377 . S
C1253 C1254 1.379 . S
C1254 H1238 0.931 . S
C1254 C1248 1.383 . S
C1254 C1253 1.379 . S
H1255 C1249 0.959 . S
H1256 C1249 0.961 . S
H1257 C1249 0.960 . S
H1258 C1250 0.930 . S
H1259 C1251 0.929 . S
H1260 C1268 0.929 . S
H1261 C1270 0.930 . S
H1262 C1272 0.930 . S
H1263 C1275 0.929 . S
H1264 C1278 0.930 . S
H1265 C1280 0.960 . S
H1266 C1280 0.960 . S
H1267 C1280 0.960 . S
C1268 H1260 0.929 . S
C1268 C1269 1.377 . S
C1268 C1270 1.384 . S
C1269 C1268 1.377 . S
C1269 C1275 1.390 . S
C1270 H1261 0.930 . S
C1270 C1268 1.384 . S
C1270 C1271 1.372 . S
C1271 C1270 1.372 . S
C1271 C1272 1.400 . S
C1271 C1276 1.490 . S
C1272 H1262 0.930 . S
C1272 C1271 1.400 . S
C1272 C1275 1.386 . S
H1273 C1289 0.930 . S
H1274 C1290 0.931 . S
C1275 H1263 0.929 . S
C1275 C1269 1.390 . S
C1275 C1272 1.386 . S
C1276 C1271 1.490 . S
C1276 C1278 1.395 . S
C1276 C1279 1.403 . S
H1277 C1283 0.930 . S
C1278 H1264 0.930 . S
C1278 C1276 1.395 . S
C1278 C1281 1.403 1_554 S
C1279 C1276 1.403 . S
C1279 C1280 1.524 . S
C1279 C1283 1.400 1_554 S
C1280 H1265 0.960 . S
C1280 H1266 0.960 . S
C1280 H1267 0.960 . S
C1280 C1279 1.524 . S
C1281 C1278 1.403 1_556 S
C1281 C1282 1.392 . S
C1281 C1285 1.495 . S
C1282 C1281 1.392 . S
C1282 C1283 1.385 . S
C1282 C1284 1.478 . S
C1283 H1277 0.930 . S
C1283 C1279 1.400 1_556 S
C1283 C1282 1.385 . S
C1284 C1282 1.478 . S
C1284 C1286 1.381 . S
C1284 C1290 1.383 . S
C1285 C1281 1.495 . S
C1285 H1291 0.959 . S
C1285 H1292 0.961 . S
C1285 H1293 0.960 . S
C1286 C1284 1.381 . S
C1286 C1287 1.394 . S
C1286 H1294 0.930 . S
C1287 C1286 1.394 . S
C1287 C1288 1.383 . S
C1287 H1295 0.929 . S
C1288 C1287 1.383 . S
C1288 C1289 1.377 . S
C1289 H1273 0.930 . S
C1289 C1288 1.377 . S
C1289 C1290 1.379 . S
C1290 H1274 0.931 . S
C1290 C1284 1.383 . S
C1290 C1289 1.379 . S
H1291 C1285 0.959 . S
H1292 C1285 0.961 . S
H1293 C1285 0.960 . S
H1294 C1286 0.930 . S
H1295 C1287 0.929 . S
H1296 C1304 0.929 . S
H1297 C1306 0.930 . S
H1298 C1308 0.930 . S
H1299 C1311 0.929 . S
H1300 C1314 0.930 . S
H1301 C1316 0.960 . S
H1302 C1316 0.960 . S
H1303 C1316 0.960 . S
C1304 H1296 0.929 . S
C1304 C1305 1.377 . S
C1304 C1306 1.384 . S
C1305 C1304 1.377 . S
C1305 C1311 1.390 . S
C1306 H1297 0.930 . S
C1306 C1304 1.384 . S
C1306 C1307 1.372 . S
C1307 C1306 1.372 . S
C1307 C1308 1.400 . S
C1307 C1312 1.490 . S
C1308 H1298 0.930 . S
C1308 C1307 1.400 . S
C1308 C1311 1.386 . S
H1309 C1325 0.930 . S
H1310 C1326 0.931 . S
C1311 H1299 0.929 . S
C1311 C1305 1.390 . S
C1311 C1308 1.386 . S
C1312 C1307 1.490 . S
C1312 C1314 1.395 . S
C1312 C1315 1.403 . S
H1313 C1319 0.930 . S
C1314 H1300 0.930 . S
C1314 C1312 1.395 . S
C1314 C1317 1.403 . S
C1315 C1312 1.403 . S
C1315 C1316 1.524 . S
C1315 C1319 1.400 . S
C1316 H1301 0.960 . S
C1316 H1302 0.960 . S
C1316 H1303 0.960 . S
C1316 C1315 1.524 . S
C1317 C1314 1.403 . S
C1317 C1318 1.392 . S
C1317 C1321 1.495 . S
C1318 C1317 1.392 . S
C1318 C1319 1.385 . S
C1318 C1320 1.478 . S
C1319 H1313 0.930 . S
C1319 C1315 1.400 . S
C1319 C1318 1.385 . S
C1320 C1318 1.478 . S
C1320 C1322 1.381 . S
C1320 C1326 1.383 . S
C1321 C1317 1.495 . S
C1321 H1327 0.959 . S
C1321 H1328 0.961 . S
C1321 H1329 0.960 . S
C1322 C1320 1.381 . S
C1322 C1323 1.394 . S
C1322 H1330 0.930 . S
C1323 C1322 1.394 . S
C1323 C1324 1.383 . S
C1323 H1331 0.929 . S
C1324 C1323 1.383 . S
C1324 C1325 1.377 . S
C1325 H1309 0.930 . S
C1325 C1324 1.377 . S
C1325 C1326 1.379 . S
C1326 H1310 0.931 . S
C1326 C1320 1.383 . S
C1326 C1325 1.379 . S
H1327 C1321 0.959 . S
H1328 C1321 0.961 . S
H1329 C1321 0.960 . S
H1330 C1322 0.930 . S
H1331 C1323 0.929 . S
H1332 C1340 0.929 . S
H1333 C1342 0.930 . S
H1334 C1344 0.930 . S
H1335 C1347 0.929 . S
H1336 C1350 0.930 . S
H1337 C1352 0.960 . S
H1338 C1352 0.960 . S
H1339 C1352 0.960 . S
C1340 H1332 0.929 . S
C1340 C1341 1.377 . S
C1340 C1342 1.384 . S
C1341 C1340 1.377 . S
C1341 C1347 1.390 . S
C1342 H1333 0.930 . S
C1342 C1340 1.384 . S
C1342 C1343 1.372 . S
C1343 C1342 1.372 . S
C1343 C1344 1.400 . S
C1343 C1348 1.490 . S
C1344 H1334 0.930 . S
C1344 C1343 1.400 . S
C1344 C1347 1.386 . S
H1345 C1361 0.930 . S
H1346 C1362 0.931 . S
C1347 H1335 0.929 . S
C1347 C1341 1.390 . S
C1347 C1344 1.386 . S
C1348 C1343 1.490 . S
C1348 C1350 1.395 . S
C1348 C1351 1.403 . S
H1349 C1355 0.930 . S
C1350 H1336 0.930 . S
C1350 C1348 1.395 . S
C1350 C1353 1.403 1_554 S
C1351 C1348 1.403 . S
C1351 C1352 1.524 . S
C1351 C1355 1.400 1_554 S
C1352 H1337 0.960 . S
C1352 H1338 0.960 . S
C1352 H1339 0.960 . S
C1352 C1351 1.524 . S
C1353 C1350 1.403 1_556 S
C1353 C1354 1.392 . S
C1353 C1357 1.495 . S
C1354 C1353 1.392 . S
C1354 C1355 1.385 . S
C1354 C1356 1.478 . S
C1355 H1349 0.930 . S
C1355 C1351 1.400 1_556 S
C1355 C1354 1.385 . S
C1356 C1354 1.478 . S
C1356 C1358 1.381 . S
C1356 C1362 1.383 . S
C1357 C1353 1.495 . S
C1357 H1363 0.959 . S
C1357 H1364 0.961 . S
C1357 H1365 0.960 . S
C1358 C1356 1.381 . S
C1358 C1359 1.394 . S
C1358 H1366 0.930 . S
C1359 C1358 1.394 . S
C1359 C1360 1.383 . S
C1359 H1367 0.929 . S
C1360 C1359 1.383 . S
C1360 C1361 1.377 . S
C1361 H1345 0.930 . S
C1361 C1360 1.377 . S
C1361 C1362 1.379 . S
C1362 H1346 0.931 . S
C1362 C1356 1.383 . S
C1362 C1361 1.379 . S
H1363 C1357 0.959 . S
H1364 C1357 0.961 . S
H1365 C1357 0.960 . S
H1366 C1358 0.930 . S
H1367 C1359 0.929 . S
H1368 C1376 0.929 . S
H1369 C1378 0.930 . S
H1370 C1380 0.930 . S
H1371 C1383 0.929 . S
H1372 C1386 0.930 . S
H1373 C1388 0.960 . S
H1374 C1388 0.960 . S
H1375 C1388 0.960 . S
C1376 H1368 0.929 . S
C1376 C1377 1.377 . S
C1376 C1378 1.384 . S
C1377 C1376 1.377 . S
C1377 C1383 1.390 . S
C1378 H1369 0.930 . S
C1378 C1376 1.384 . S
C1378 C1379 1.372 . S
C1379 C1378 1.372 . S
C1379 C1380 1.400 . S
C1379 C1384 1.490 . S
C1380 H1370 0.930 . S
C1380 C1379 1.400 . S
C1380 C1383 1.386 . S
H1381 C1397 0.930 . S
H1382 C1398 0.931 . S
C1383 H1371 0.929 . S
C1383 C1377 1.390 . S
C1383 C1380 1.386 . S
C1384 C1379 1.490 . S
C1384 C1386 1.395 . S
C1384 C1387 1.403 . S
H1385 C1391 0.930 . S
C1386 H1372 0.930 . S
C1386 C1384 1.395 . S
C1386 C1389 1.403 . S
C1387 C1384 1.403 . S
C1387 C1388 1.524 . S
C1387 C1391 1.400 . S
C1388 H1373 0.960 . S
C1388 H1374 0.960 . S
C1388 H1375 0.960 . S
C1388 C1387 1.524 . S
C1389 C1386 1.403 . S
C1389 C1390 1.392 . S
C1389 C1393 1.495 . S
C1390 C1389 1.392 . S
C1390 C1391 1.385 . S
C1390 C1392 1.478 . S
C1391 H1385 0.930 . S
C1391 C1387 1.400 . S
C1391 C1390 1.385 . S
C1392 C1390 1.478 . S
C1392 C1394 1.381 . S
C1392 C1398 1.383 . S
C1393 C1389 1.495 . S
C1393 H1399 0.959 . S
C1393 H1400 0.961 . S
C1393 H1401 0.960 . S
C1394 C1392 1.381 . S
C1394 C1395 1.394 . S
C1394 H1402 0.930 . S
C1395 C1394 1.394 . S
C1395 C1396 1.383 . S
C1395 H1403 0.929 . S
C1396 C1395 1.383 . S
C1396 C1397 1.377 . S
C1397 H1381 0.930 . S
C1397 C1396 1.377 . S
C1397 C1398 1.379 . S
C1398 H1382 0.931 . S
C1398 C1392 1.383 . S
C1398 C1397 1.379 . S
H1399 C1393 0.959 . S
H1400 C1393 0.961 . S
H1401 C1393 0.960 . S
H1402 C1394 0.930 . S
H1403 C1395 0.929 . S
H1404 C1412 0.929 . S
H1405 C1414 0.930 . S
H1406 C1416 0.930 . S
H1407 C1419 0.929 . S
H1408 C1422 0.930 . S
H1409 C1424 0.960 . S
H1410 C1424 0.960 . S
H1411 C1424 0.960 . S
C1412 H1404 0.929 . S
C1412 C1413 1.377 . S
C1412 C1414 1.384 . S
C1413 C1412 1.377 . S
C1413 C1419 1.390 . S
C1414 H1405 0.930 . S
C1414 C1412 1.384 . S
C1414 C1415 1.372 . S
C1415 C1414 1.372 . S
C1415 C1416 1.400 . S
C1415 C1420 1.490 . S
C1416 H1406 0.930 . S
C1416 C1415 1.400 . S
C1416 C1419 1.386 . S
H1417 C1433 0.930 . S
H1418 C1434 0.931 . S
C1419 H1407 0.929 . S
C1419 C1413 1.390 . S
C1419 C1416 1.386 . S
C1420 C1415 1.490 . S
C1420 C1422 1.395 . S
C1420 C1423 1.403 . S
H1421 C1427 0.965 . S
C1422 H1408 0.930 . S
C1422 C1420 1.395 . S
C1422 C1425 1.403 . S
C1423 C1420 1.403 . S
C1423 C1424 1.524 . S
C1423 C1427 1.340 1_554 S
C1424 H1409 0.960 . S
C1424 H1410 0.960 . S
C1424 H1411 0.960 . S
C1424 C1423 1.524 . S
C1425 C1422 1.403 . S
C1425 C1426 1.392 1_554 S
C1425 C1429 1.495 1_554 S
C1426 C1425 1.392 1_556 S
C1426 C1427 1.414 . S
C1426 C1428 1.478 . S
C1427 H1421 0.965 . S
C1427 C1423 1.340 1_556 S
C1427 C1426 1.414 . S
C1428 C1426 1.478 . S
C1428 C1430 1.381 . S
C1428 C1434 1.383 . S
C1429 C1425 1.495 1_556 S
C1429 H1435 0.959 1_556 S
C1429 H1436 0.961 . S
C1429 H1437 0.960 . S
C1430 C1428 1.381 . S
C1430 C1431 1.394 . S
C1430 H1438 0.930 . S
C1431 C1430 1.394 . S
C1431 C1432 1.383 . S
C1431 H1439 0.929 . S
C1432 C1431 1.383 . S
C1432 C1433 1.377 . S
C1433 H1417 0.930 . S
C1433 C1432 1.377 . S
C1433 C1434 1.379 . S
C1434 H1418 0.931 . S
C1434 C1428 1.383 . S
C1434 C1433 1.379 . S
H1435 C1429 0.959 1_554 S
H1436 C1429 0.961 . S
H1437 C1429 0.960 . S
H1438 C1430 0.930 . S
H1439 C1431 0.929 . S
H1440 C1448 0.929 . S
H1441 C1450 0.930 . S
H1442 C1452 0.930 . S
H1443 C1455 0.929 . S
H1444 C1458 0.930 . S
H1445 C1460 0.960 . S
H1446 C1460 0.960 . S
H1447 C1460 0.960 . S
C1448 H1440 0.929 . S
C1448 C1449 1.377 . S
C1448 C1450 1.384 . S
C1449 C1448 1.377 . S
C1449 C1455 1.390 . S
C1450 H1441 0.930 . S
C1450 C1448 1.384 . S
C1450 C1451 1.372 . S
C1451 C1450 1.372 . S
C1451 C1452 1.400 . S
C1451 C1456 1.490 . S
C1452 H1442 0.930 . S
C1452 C1451 1.400 . S
C1452 C1455 1.386 . S
H1453 C1469 0.930 . S
H1454 C1470 0.931 . S
C1455 H1443 0.929 . S
C1455 C1449 1.390 . S
C1455 C1452 1.386 . S
C1456 C1451 1.490 . S
C1456 C1458 1.395 . S
C1456 C1459 1.403 . S
H1457 C1463 0.930 . S
C1458 H1444 0.930 . S
C1458 C1456 1.395 . S
C1458 C1461 1.403 . S
C1459 C1456 1.403 . S
C1459 C1460 1.524 . S
C1459 C1463 1.400 . S
C1460 H1445 0.960 . S
C1460 H1446 0.960 . S
C1460 H1447 0.960 . S
C1460 C1459 1.524 . S
C1461 C1458 1.403 . S
C1461 C1462 1.392 . S
C1461 C1465 1.495 . S
C1462 C1461 1.392 . S
C1462 C1463 1.385 . S
C1462 C1464 1.478 . S
C1463 H1457 0.930 . S
C1463 C1459 1.400 . S
C1463 C1462 1.385 . S
C1464 C1462 1.478 . S
C1464 C1466 1.381 . S
C1464 C1470 1.383 . S
C1465 C1461 1.495 . S
C1465 H1471 0.959 . S
C1465 H1472 0.961 . S
C1465 H1473 0.960 . S
C1466 C1464 1.381 . S
C1466 C1467 1.394 . S
C1466 H1474 0.930 . S
C1467 C1466 1.394 . S
C1467 C1468 1.383 . S
C1467 H1475 0.929 . S
C1468 C1467 1.383 . S
C1468 C1469 1.377 . S
C1469 H1453 0.930 . S
C1469 C1468 1.377 . S
C1469 C1470 1.379 . S
C1470 H1454 0.931 . S
C1470 C1464 1.383 . S
C1470 C1469 1.379 . S
H1471 C1465 0.959 . S
H1472 C1465 0.961 . S
H1473 C1465 0.960 . S
H1474 C1466 0.930 . S
H1475 C1467 0.929 . S
H1476 C1484 0.929 . S
H1477 C1486 0.930 . S
H1478 C1488 0.930 . S
H1479 C1491 0.929 . S
H1480 C1494 0.930 . S
H1481 C1496 0.960 . S
H1482 C1496 0.960 . S
H1483 C1496 0.960 . S
C1484 H1476 0.929 . S
C1484 C1485 1.377 . S
C1484 C1486 1.384 . S
C1485 C1484 1.377 . S
C1485 C1491 1.390 . S
C1486 H1477 0.930 . S
C1486 C1484 1.384 . S
C1486 C1487 1.372 . S
C1487 C1486 1.372 . S
C1487 C1488 1.400 . S
C1487 C1492 1.490 . S
C1488 H1478 0.930 . S
C1488 C1487 1.400 . S
C1488 C1491 1.386 . S
H1489 C1505 0.930 . S
H1490 C1506 0.931 . S
C1491 H1479 0.929 . S
C1491 C1485 1.390 . S
C1491 C1488 1.386 . S
C1492 C1487 1.490 . S
C1492 C1494 1.395 . S
C1492 C1495 1.403 . S
H1493 C1499 0.930 . S
C1494 H1480 0.930 . S
C1494 C1492 1.395 . S
C1494 C1497 1.403 . S
C1495 C1492 1.403 . S
C1495 C1496 1.524 . S
C1495 C1499 1.400 . S
C1496 H1481 0.960 . S
C1496 H1482 0.960 . S
C1496 H1483 0.960 . S
C1496 C1495 1.524 . S
C1497 C1494 1.403 . S
C1497 C1498 1.392 . S
C1497 C1501 1.495 . S
C1498 C1497 1.392 . S
C1498 C1499 1.385 . S
C1498 C1500 1.478 . S
C1499 H1493 0.930 . S
C1499 C1495 1.400 . S
C1499 C1498 1.385 . S
C1500 C1498 1.478 . S
C1500 C1502 1.381 . S
C1500 C1506 1.383 . S
C1501 C1497 1.495 . S
C1501 H1507 0.959 . S
C1501 H1508 0.961 . S
C1501 H1509 0.960 . S
C1502 C1500 1.381 . S
C1502 C1503 1.394 . S
C1502 H1510 0.930 . S
C1503 C1502 1.394 . S
C1503 C1504 1.383 . S
C1503 H1511 0.929 . S
C1504 C1503 1.383 . S
C1504 C1505 1.377 . S
C1505 H1489 0.930 . S
C1505 C1504 1.377 . S
C1505 C1506 1.379 . S
C1506 H1490 0.931 . S
C1506 C1500 1.383 . S
C1506 C1505 1.379 . S
H1507 C1501 0.959 . S
H1508 C1501 0.961 . S
H1509 C1501 0.960 . S
H1510 C1502 0.930 . S
H1511 C1503 0.929 . S
H1512 C1520 0.929 . S
H1513 C1522 0.930 . S
H1514 C1524 0.930 . S
H1515 C1527 0.929 . S
H1516 C1530 0.930 . S
H1517 C1532 0.960 . S
H1518 C1532 0.960 . S
H1519 C1532 0.960 . S
C1520 H1512 0.929 . S
C1520 C1521 1.377 . S
C1520 C1522 1.384 . S
C1521 C1520 1.377 . S
C1521 C1527 1.390 . S
C1522 H1513 0.930 . S
C1522 C1520 1.384 . S
C1522 C1523 1.372 . S
C1523 C1522 1.372 . S
C1523 C1524 1.400 . S
C1523 C1528 1.490 . S
C1524 H1514 0.930 . S
C1524 C1523 1.400 . S
C1524 C1527 1.386 . S
H1525 C1541 0.930 . S
H1526 C1542 0.931 . S
C1527 H1515 0.929 . S
C1527 C1521 1.390 . S
C1527 C1524 1.386 . S
C1528 C1523 1.490 . S
C1528 C1530 1.395 . S
C1528 C1531 1.403 . S
H1529 C1535 0.930 . S
C1530 H1516 0.930 . S
C1530 C1528 1.395 . S
C1530 C1533 1.403 1_565 S
C1531 C1528 1.403 . S
C1531 C1532 1.524 . S
C1531 C1535 1.400 1_565 S
C1532 H1517 0.960 . S
C1532 H1518 0.960 . S
C1532 H1519 0.960 . S
C1532 C1531 1.524 . S
C1533 C1530 1.403 1_545 S
C1533 C1534 1.392 . S
C1533 C1537 1.495 . S
C1534 C1533 1.392 . S
C1534 C1535 1.385 . S
C1534 C1536 1.478 . S
C1535 H1529 0.930 . S
C1535 C1531 1.400 1_545 S
C1535 C1534 1.385 . S
C1536 C1534 1.478 . S
C1536 C1538 1.381 . S
C1536 C1542 1.383 . S
C1537 C1533 1.495 . S
C1537 H1543 0.959 . S
C1537 H1544 0.961 . S
C1537 H1545 0.960 . S
C1538 C1536 1.381 . S
C1538 C1539 1.394 . S
C1538 H1546 0.930 . S
C1539 C1538 1.394 . S
C1539 C1540 1.383 . S
C1539 H1547 0.929 . S
C1540 C1539 1.383 . S
C1540 C1541 1.377 . S
C1541 H1525 0.930 . S
C1541 C1540 1.377 . S
C1541 C1542 1.379 . S
C1542 H1526 0.931 . S
C1542 C1536 1.383 . S
C1542 C1541 1.379 . S
H1543 C1537 0.959 . S
H1544 C1537 0.961 . S
H1545 C1537 0.960 . S
H1546 C1538 0.930 . S
H1547 C1539 0.929 . S
H1548 C1556 0.929 . S
H1549 C1558 0.930 . S
H1550 C1560 0.930 . S
H1551 C1563 0.929 . S
H1552 C1566 0.930 . S
H1553 C1568 0.960 . S
H1554 C1568 0.960 . S
H1555 C1568 0.960 . S
C1556 H1548 0.929 . S
C1556 C1557 1.377 . S
C1556 C1558 1.384 . S
C1557 C1556 1.377 . S
C1557 C1563 1.390 . S
C1558 H1549 0.930 . S
C1558 C1556 1.384 . S
C1558 C1559 1.372 . S
C1559 C1558 1.372 . S
C1559 C1560 1.400 . S
C1559 C1564 1.490 . S
C1560 H1550 0.930 . S
C1560 C1559 1.400 . S
C1560 C1563 1.386 . S
H1561 C1577 0.930 . S
H1562 C1578 0.931 . S
C1563 H1551 0.929 . S
C1563 C1557 1.390 . S
C1563 C1560 1.386 . S
C1564 C1559 1.490 . S
C1564 C1566 1.395 . S
C1564 C1567 1.403 . S
H1565 C1571 0.930 . S
C1566 H1552 0.930 . S
C1566 C1564 1.395 . S
C1566 C1569 1.403 . S
C1567 C1564 1.403 . S
C1567 C1568 1.524 . S
C1567 C1571 1.400 . S
C1568 H1553 0.960 . S
C1568 H1554 0.960 . S
C1568 H1555 0.960 . S
C1568 C1567 1.524 . S
C1569 C1566 1.403 . S
C1569 C1570 1.392 . S
C1569 C1573 1.495 . S
C1570 C1569 1.392 . S
C1570 C1571 1.385 . S
C1570 C1572 1.478 . S
C1571 H1565 0.930 . S
C1571 C1567 1.400 . S
C1571 C1570 1.385 . S
C1572 C1570 1.478 . S
C1572 C1574 1.381 . S
C1572 C1578 1.383 . S
C1573 C1569 1.495 . S
C1573 H1579 0.959 . S
C1573 H1580 0.961 . S
C1573 H1581 0.960 . S
C1574 C1572 1.381 . S
C1574 C1575 1.394 . S
C1574 H1582 0.930 . S
C1575 C1574 1.394 . S
C1575 C1576 1.383 . S
C1575 H1583 0.929 . S
C1576 C1575 1.383 . S
C1576 C1577 1.377 . S
C1577 H1561 0.930 . S
C1577 C1576 1.377 . S
C1577 C1578 1.379 . S
C1578 H1562 0.931 . S
C1578 C1572 1.383 . S
C1578 C1577 1.379 . S
H1579 C1573 0.959 . S
H1580 C1573 0.961 . S
H1581 C1573 0.960 . S
H1582 C1574 0.930 . S
H1583 C1575 0.929 . S
H1584 C1592 0.929 . S
H1585 C1594 0.930 . S
H1586 C1596 0.930 . S
H1587 C1599 0.929 . S
H1588 C1602 0.930 . S
H1589 C1604 0.960 1_545 S
H1590 C1604 0.960 . S
H1591 C1604 0.960 . S
C1592 H1584 0.929 . S
C1592 C1593 1.377 . S
C1592 C1594 1.384 . S
C1593 C1592 1.377 . S
C1593 C1599 1.390 . S
C1594 H1585 0.930 . S
C1594 C1592 1.384 . S
C1594 C1595 1.372 . S
C1595 C1594 1.372 . S
C1595 C1596 1.400 . S
C1595 C1600 1.490 . S
C1596 H1586 0.930 . S
C1596 C1595 1.400 . S
C1596 C1599 1.386 . S
H1597 C1613 0.930 . S
H1598 C1614 0.931 . S
C1599 H1587 0.929 . S
C1599 C1593 1.390 . S
C1599 C1596 1.386 . S
C1600 C1595 1.490 . S
C1600 C1602 1.395 . S
C1600 C1603 1.403 . S
H1601 C1607 0.930 . S
C1602 H1588 0.930 . S
C1602 C1600 1.395 . S
C1602 C1605 1.403 1_565 S
C1603 C1600 1.403 . S
C1603 C1604 1.524 . S
C1603 C1607 1.400 1_565 S
C1604 H1589 0.960 1_565 S
C1604 H1590 0.960 . S
C1604 H1591 0.960 . S
C1604 C1603 1.524 . S
C1605 C1602 1.403 1_545 S
C1605 C1606 1.392 . S
C1605 C1609 1.495 . S
C1606 C1605 1.392 . S
C1606 C1607 1.385 . S
C1606 C1608 1.478 . S
C1607 H1601 0.930 . S
C1607 C1603 1.400 1_545 S
C1607 C1606 1.385 . S
C1608 C1606 1.478 . S
C1608 C1610 1.381 . S
C1608 C1614 1.383 . S
C1609 C1605 1.495 . S
C1609 H1615 0.959 . S
C1609 H1616 0.961 . S
C1609 H1617 0.960 . S
C1610 C1608 1.381 . S
C1610 C1611 1.394 . S
C1610 H1618 0.930 . S
C1611 C1610 1.394 . S
C1611 C1612 1.383 . S
C1611 H1619 0.929 . S
C1612 C1611 1.383 . S
C1612 C1613 1.377 . S
C1613 H1597 0.930 . S
C1613 C1612 1.377 . S
C1613 C1614 1.379 . S
C1614 H1598 0.931 . S
C1614 C1608 1.383 . S
C1614 C1613 1.379 . S
H1615 C1609 0.959 . S
H1616 C1609 0.961 . S
H1617 C1609 0.960 . S
H1618 C1610 0.930 . S
H1619 C1611 0.929 . S
H1620 C1628 0.929 . S
H1621 C1630 0.930 . S
H1622 C1632 0.930 . S
H1623 C1635 0.929 . S
H1624 C1638 0.930 . S
H1625 C1640 0.960 . S
H1626 C1640 0.960 . S
H1627 C1640 0.960 . S
C1628 H1620 0.929 . S
C1628 C1629 1.377 . S
C1628 C1630 1.384 . S
C1629 C1628 1.377 . S
C1629 C1635 1.390 . S
C1630 H1621 0.930 . S
C1630 C1628 1.384 . S
C1630 C1631 1.372 . S
C1631 C1630 1.372 . S
C1631 C1632 1.400 . S
C1631 C1636 1.490 . S
C1632 H1622 0.930 . S
C1632 C1631 1.400 . S
C1632 C1635 1.386 . S
H1633 C1649 0.930 . S
H1634 C1650 0.931 . S
C1635 H1623 0.929 . S
C1635 C1629 1.390 . S
C1635 C1632 1.386 . S
C1636 C1631 1.490 . S
C1636 C1638 1.395 . S
C1636 C1639 1.403 . S
H1637 C1643 0.930 . S
C1638 H1624 0.930 . S
C1638 C1636 1.395 . S
C1638 C1641 1.403 . S
C1639 C1636 1.403 . S
C1639 C1640 1.524 . S
C1639 C1643 1.400 . S
C1640 H1625 0.960 . S
C1640 H1626 0.960 . S
C1640 H1627 0.960 . S
C1640 C1639 1.524 . S
C1641 C1638 1.403 . S
C1641 C1642 1.392 . S
C1641 C1645 1.495 . S
C1642 C1641 1.392 . S
C1642 C1643 1.385 . S
C1642 C1644 1.478 . S
C1643 H1637 0.930 . S
C1643 C1639 1.400 . S
C1643 C1642 1.385 . S
C1644 C1642 1.478 . S
C1644 C1646 1.381 . S
C1644 C1650 1.383 . S
C1645 C1641 1.495 . S
C1645 H1651 0.959 . S
C1645 H1652 0.961 . S
C1645 H1653 0.960 . S
C1646 C1644 1.381 . S
C1646 C1647 1.394 . S
C1646 H1654 0.930 . S
C1647 C1646 1.394 . S
C1647 C1648 1.383 . S
C1647 H1655 0.929 . S
C1648 C1647 1.383 . S
C1648 C1649 1.377 . S
C1649 H1633 0.930 . S
C1649 C1648 1.377 . S
C1649 C1650 1.379 . S
C1650 H1634 0.931 . S
C1650 C1644 1.383 . S
C1650 C1649 1.379 . S
H1651 C1645 0.959 . S
H1652 C1645 0.961 . S
H1653 C1645 0.960 . S
H1654 C1646 0.930 . S
H1655 C1647 0.929 . S
H1656 C1664 0.929 . S
H1657 C1666 0.930 . S
H1658 C1668 0.930 . S
H1659 C1671 0.929 . S
H1660 C1674 0.930 . S
H1661 C1676 0.960 . S
H1662 C1676 0.960 . S
H1663 C1676 0.960 . S
C1664 H1656 0.929 . S
C1664 C1665 1.377 . S
C1664 C1666 1.384 . S
C1665 C1664 1.377 . S
C1665 C1671 1.390 . S
C1666 H1657 0.930 . S
C1666 C1664 1.384 . S
C1666 C1667 1.372 . S
C1667 C1666 1.372 . S
C1667 C1668 1.400 . S
C1667 C1672 1.490 . S
C1668 H1658 0.930 . S
C1668 C1667 1.400 . S
C1668 C1671 1.386 . S
H1669 C1685 0.930 . S
H1670 C1686 0.931 . S
C1671 H1659 0.929 . S
C1671 C1665 1.390 . S
C1671 C1668 1.386 . S
C1672 C1667 1.490 . S
C1672 C1674 1.395 . S
C1672 C1675 1.403 . S
H1673 C1679 0.930 . S
C1674 H1660 0.930 . S
C1674 C1672 1.395 . S
C1674 C1677 1.403 1_565 S
C1675 C1672 1.403 . S
C1675 C1676 1.524 . S
C1675 C1679 1.400 1_565 S
C1676 H1661 0.960 . S
C1676 H1662 0.960 . S
C1676 H1663 0.960 . S
C1676 C1675 1.524 . S
C1677 C1674 1.403 1_545 S
C1677 C1678 1.392 . S
C1677 C1681 1.495 . S
C1678 C1677 1.392 . S
C1678 C1679 1.385 . S
C1678 C1680 1.478 . S
C1679 H1673 0.930 . S
C1679 C1675 1.400 1_545 S
C1679 C1678 1.385 . S
C1680 C1678 1.478 . S
C1680 C1682 1.381 . S
C1680 C1686 1.383 . S
C1681 C1677 1.495 . S
C1681 H1687 0.959 . S
C1681 H1688 0.961 . S
C1681 H1689 0.960 . S
C1682 C1680 1.381 . S
C1682 C1683 1.394 . S
C1682 H1690 0.930 . S
C1683 C1682 1.394 . S
C1683 C1684 1.383 . S
C1683 H1691 0.929 . S
C1684 C1683 1.383 . S
C1684 C1685 1.377 . S
C1685 H1669 0.930 . S
C1685 C1684 1.377 . S
C1685 C1686 1.379 . S
C1686 H1670 0.931 . S
C1686 C1680 1.383 . S
C1686 C1685 1.379 . S
H1687 C1681 0.959 . S
H1688 C1681 0.961 . S
H1689 C1681 0.960 . S
H1690 C1682 0.930 . S
H1691 C1683 0.929 . S
H1692 C1700 0.929 . S
H1693 C1702 0.930 . S
H1694 C1704 0.930 . S
H1695 C1707 0.929 . S
H1696 C1710 0.930 . S
H1697 C1712 0.960 1_565 S
H1698 C1712 0.960 . S
H1699 C1712 0.960 . S
C1700 H1692 0.929 . S
C1700 C1701 1.377 . S
C1700 C1702 1.384 . S
C1701 C1700 1.377 . S
C1701 C1707 1.390 . S
C1702 H1693 0.930 . S
C1702 C1700 1.384 . S
C1702 C1703 1.372 . S
C1703 C1702 1.372 . S
C1703 C1704 1.400 . S
C1703 C1708 1.490 . S
C1704 H1694 0.930 . S
C1704 C1703 1.400 . S
C1704 C1707 1.386 . S
H1705 C1721 0.930 . S
H1706 C1722 0.931 . S
C1707 H1695 0.929 . S
C1707 C1701 1.390 . S
C1707 C1704 1.386 . S
C1708 C1703 1.490 . S
C1708 C1710 1.395 . S
C1708 C1711 1.403 . S
H1709 C1715 0.930 . S
C1710 H1696 0.930 . S
C1710 C1708 1.395 . S
C1710 C1713 1.362 1_545 S
C1711 C1708 1.403 . S
C1711 C1712 1.524 . S
C1711 C1715 1.400 1_545 S
C1712 H1697 0.960 1_545 S
C1712 H1698 0.960 . S
C1712 H1699 0.960 . S
C1712 C1711 1.524 . S
C1713 C1710 1.362 1_565 S
C1713 C1714 1.425 . S
C1713 C1717 1.505 . S
C1714 C1713 1.425 . S
C1714 C1715 1.385 . S
C1714 C1716 1.478 . S
C1715 H1709 0.930 . S
C1715 C1711 1.400 1_565 S
C1715 C1714 1.385 . S
C1716 C1714 1.478 . S
C1716 C1718 1.381 . S
C1716 C1722 1.383 . S
C1717 C1713 1.505 . S
C1717 H1723 0.959 1_565 S
C1717 H1724 0.961 . S
C1717 H1725 0.960 . S
C1718 C1716 1.381 . S
C1718 C1719 1.394 . S
C1718 H1726 0.930 . S
C1719 C1718 1.394 . S
C1719 C1720 1.383 . S
C1719 H1727 0.929 . S
C1720 C1719 1.383 . S
C1720 C1721 1.377 . S
C1721 H1705 0.930 . S
C1721 C1720 1.377 . S
C1721 C1722 1.379 . S
C1722 H1706 0.931 . S
C1722 C1716 1.383 . S
C1722 C1721 1.379 . S
H1723 C1717 0.959 1_545 S
H1724 C1717 0.961 . S
H1725 C1717 0.960 . S
H1726 C1718 0.930 . S
H1727 C1719 0.929 . S
H1728 C1736 0.929 . S
H1729 C1738 0.930 . S
H1730 C1740 0.930 . S
H1731 C1743 0.929 . S
H1732 C1746 0.930 . S
H1733 C1748 0.960 . S
H1734 C1748 0.960 . S
H1735 C1748 0.960 . S
C1736 H1728 0.929 . S
C1736 C1737 1.377 . S
C1736 C1738 1.384 . S
C1737 C1736 1.377 . S
C1737 C1743 1.390 . S
C1738 H1729 0.930 . S
C1738 C1736 1.384 . S
C1738 C1739 1.372 . S
C1739 C1738 1.372 . S
C1739 C1740 1.400 . S
C1739 C1744 1.490 . S
C1740 H1730 0.930 . S
C1740 C1739 1.400 . S
C1740 C1743 1.386 . S
H1741 C1757 0.930 . S
H1742 C1758 0.931 . S
C1743 H1731 0.929 . S
C1743 C1737 1.390 . S
C1743 C1740 1.386 . S
C1744 C1739 1.490 . S
C1744 C1746 1.395 . S
C1744 C1747 1.403 . S
H1745 C1751 0.930 . S
C1746 H1732 0.930 . S
C1746 C1744 1.395 . S
C1746 C1749 1.403 . S
C1747 C1744 1.403 . S
C1747 C1748 1.524 . S
C1747 C1751 1.400 . S
C1748 H1733 0.960 . S
C1748 H1734 0.960 . S
C1748 H1735 0.960 . S
C1748 C1747 1.524 . S
C1749 C1746 1.403 . S
C1749 C1750 1.392 . S
C1749 C1753 1.495 . S
C1750 C1749 1.392 . S
C1750 C1751 1.385 . S
C1750 C1752 1.478 . S
C1751 H1745 0.930 . S
C1751 C1747 1.400 . S
C1751 C1750 1.385 . S
C1752 C1750 1.478 . S
C1752 C1754 1.381 . S
C1752 C1758 1.383 . S
C1753 C1749 1.495 . S
C1753 H1759 0.959 . S
C1753 H1760 0.961 . S
C1753 H1761 0.960 . S
C1754 C1752 1.381 . S
C1754 C1755 1.394 . S
C1754 H1762 0.930 . S
C1755 C1754 1.394 . S
C1755 C1756 1.383 . S
C1755 H1763 0.929 . S
C1756 C1755 1.383 . S
C1756 C1757 1.377 . S
C1757 H1741 0.930 . S
C1757 C1756 1.377 . S
C1757 C1758 1.379 . S
C1758 H1742 0.931 . S
C1758 C1752 1.383 . S
C1758 C1757 1.379 . S
H1759 C1753 0.959 . S
H1760 C1753 0.961 . S
H1761 C1753 0.960 . S
H1762 C1754 0.930 . S
H1763 C1755 0.929 . S
H1764 C1772 0.929 . S
H1765 C1774 0.930 . S
H1766 C1776 0.930 . S
H1767 C1779 0.929 . S
H1768 C1782 0.930 . S
H1769 C1784 0.960 . S
H1770 C1784 0.960 . S
H1771 C1784 0.960 . S
C1772 H1764 0.929 . S
C1772 C1773 1.377 . S
C1772 C1774 1.384 . S
C1773 C1772 1.377 . S
C1773 C1779 1.390 . S
C1774 H1765 0.930 . S
C1774 C1772 1.384 . S
C1774 C1775 1.372 . S
C1775 C1774 1.372 . S
C1775 C1776 1.400 . S
C1775 C1780 1.490 . S
C1776 H1766 0.930 . S
C1776 C1775 1.400 . S
C1776 C1779 1.386 . S
H1777 C1793 0.930 . S
H1778 C1794 0.931 . S
C1779 H1767 0.929 . S
C1779 C1773 1.390 . S
C1779 C1776 1.386 . S
C1780 C1775 1.490 . S
C1780 C1782 1.395 . S
C1780 C1783 1.403 . S
H1781 C1787 0.930 . S
C1782 H1768 0.930 . S
C1782 C1780 1.395 . S
C1782 C1785 1.403 . S
C1783 C1780 1.403 . S
C1783 C1784 1.524 . S
C1783 C1787 1.400 . S
C1784 H1769 0.960 . S
C1784 H1770 0.960 . S
C1784 H1771 0.960 . S
C1784 C1783 1.524 . S
C1785 C1782 1.403 . S
C1785 C1786 1.392 . S
C1785 C1789 1.495 . S
C1786 C1785 1.392 . S
C1786 C1787 1.385 . S
C1786 C1788 1.478 . S
C1787 H1781 0.930 . S
C1787 C1783 1.400 . S
C1787 C1786 1.385 . S
C1788 C1786 1.478 . S
C1788 C1790 1.381 . S
C1788 C1794 1.383 . S
C1789 C1785 1.495 . S
C1789 H1795 0.959 . S
C1789 H1796 0.961 . S
C1789 H1797 0.960 . S
C1790 C1788 1.381 . S
C1790 C1791 1.394 . S
C1790 H1798 0.930 . S
C1791 C1790 1.394 . S
C1791 C1792 1.383 . S
C1791 H1799 0.929 . S
C1792 C1791 1.383 . S
C1792 C1793 1.377 . S
C1793 H1777 0.930 . S
C1793 C1792 1.377 . S
C1793 C1794 1.379 . S
C1794 H1778 0.931 . S
C1794 C1788 1.383 . S
C1794 C1793 1.379 . S
H1795 C1789 0.959 . S
H1796 C1789 0.961 . S
H1797 C1789 0.960 . S
H1798 C1790 0.930 . S
H1799 C1791 0.929 . S
H1800 C1808 0.929 . S
H1801 C1810 0.930 . S
H1802 C1812 0.930 . S
H1803 C1815 0.929 . S
H1804 C1818 0.930 . S
H1805 C1820 0.960 . S
H1806 C1820 0.960 . S
H1807 C1820 0.960 . S
C1808 H1800 0.929 . S
C1808 C1809 1.377 . S
C1808 C1810 1.384 . S
C1809 C1808 1.377 . S
C1809 C1815 1.390 . S
C1810 H1801 0.930 . S
C1810 C1808 1.384 . S
C1810 C1811 1.372 . S
C1811 C1810 1.372 . S
C1811 C1812 1.400 . S
C1811 C1816 1.490 . S
C1812 H1802 0.930 . S
C1812 C1811 1.400 . S
C1812 C1815 1.386 . S
H1813 C1829 0.930 . S
H1814 C1830 0.931 . S
C1815 H1803 0.929 . S
C1815 C1809 1.390 . S
C1815 C1812 1.386 . S
C1816 C1811 1.490 . S
C1816 C1818 1.395 . S
C1816 C1819 1.403 . S
H1817 C1823 0.930 . S
C1818 H1804 0.930 . S
C1818 C1816 1.395 . S
C1818 C1821 1.403 . S
C1819 C1816 1.403 . S
C1819 C1820 1.524 . S
C1819 C1823 1.400 . S
C1820 H1805 0.960 . S
C1820 H1806 0.960 . S
C1820 H1807 0.960 . S
C1820 C1819 1.524 . S
C1821 C1818 1.403 . S
C1821 C1822 1.392 . S
C1821 C1825 1.495 . S
C1822 C1821 1.392 . S
C1822 C1823 1.385 . S
C1822 C1824 1.478 . S
C1823 H1817 0.930 . S
C1823 C1819 1.400 . S
C1823 C1822 1.385 . S
C1824 C1822 1.478 . S
C1824 C1826 1.381 . S
C1824 C1830 1.383 . S
C1825 C1821 1.495 . S
C1825 H1831 0.959 . S
C1825 H1832 0.961 . S
C1825 H1833 0.960 . S
C1826 C1824 1.381 . S
C1826 C1827 1.394 . S
C1826 H1834 0.930 . S
C1827 C1826 1.394 . S
C1827 C1828 1.383 . S
C1827 H1835 0.929 . S
C1828 C1827 1.383 . S
C1828 C1829 1.377 . S
C1829 H1813 0.930 . S
C1829 C1828 1.377 . S
C1829 C1830 1.379 . S
C1830 H1814 0.931 . S
C1830 C1824 1.383 . S
C1830 C1829 1.379 . S
H1831 C1825 0.959 . S
H1832 C1825 0.961 . S
H1833 C1825 0.960 . S
H1834 C1826 0.930 . S
H1835 C1827 0.929 . S
H1836 C1844 0.929 . S
H1837 C1846 0.930 . S
H1838 C1848 0.930 . S
H1839 C1851 0.929 . S
H1840 C1854 0.930 . S
H1841 C1856 0.960 . S
H1842 C1856 0.960 . S
H1843 C1856 0.960 . S
C1844 H1836 0.929 . S
C1844 C1845 1.377 . S
C1844 C1846 1.384 . S
C1845 C1844 1.377 . S
C1845 C1851 1.390 . S
C1846 H1837 0.930 . S
C1846 C1844 1.384 . S
C1846 C1847 1.372 . S
C1847 C1846 1.372 . S
C1847 C1848 1.400 . S
C1847 C1852 1.490 . S
C1848 H1838 0.930 . S
C1848 C1847 1.400 . S
C1848 C1851 1.386 . S
H1849 C1865 0.930 . S
H1850 C1866 0.931 . S
C1851 H1839 0.929 . S
C1851 C1845 1.390 . S
C1851 C1848 1.386 . S
C1852 C1847 1.490 . S
C1852 C1854 1.395 . S
C1852 C1855 1.403 . S
H1853 C1859 0.930 . S
C1854 H1840 0.930 . S
C1854 C1852 1.395 . S
C1854 C1857 1.403 . S
C1855 C1852 1.403 . S
C1855 C1856 1.524 . S
C1855 C1859 1.400 . S
C1856 H1841 0.960 . S
C1856 H1842 0.960 . S
C1856 H1843 0.960 . S
C1856 C1855 1.524 . S
C1857 C1854 1.403 . S
C1857 C1858 1.392 . S
C1857 C1861 1.495 . S
C1858 C1857 1.392 . S
C1858 C1859 1.385 . S
C1858 C1860 1.478 . S
C1859 H1853 0.930 . S
C1859 C1855 1.400 . S
C1859 C1858 1.385 . S
C1860 C1858 1.478 . S
C1860 C1862 1.381 . S
C1860 C1866 1.383 . S
C1861 C1857 1.495 . S
C1861 H1867 0.959 . S
C1861 H1868 0.961 . S
C1861 H1869 0.960 . S
C1862 C1860 1.381 . S
C1862 C1863 1.394 . S
C1862 H1870 0.930 . S
C1863 C1862 1.394 . S
C1863 C1864 1.383 . S
C1863 H1871 0.929 . S
C1864 C1863 1.383 . S
C1864 C1865 1.377 . S
C1865 H1849 0.930 . S
C1865 C1864 1.377 . S
C1865 C1866 1.379 . S
C1866 H1850 0.931 . S
C1866 C1860 1.383 . S
C1866 C1865 1.379 . S
H1867 C1861 0.959 . S
H1868 C1861 0.961 . S
H1869 C1861 0.960 . S
H1870 C1862 0.930 . S
H1871 C1863 0.929 . S
H1872 C1880 0.929 . S
H1873 C1882 0.930 . S
H1874 C1884 0.930 . S
H1875 C1887 0.929 . S
H1876 C1890 0.930 . S
H1877 C1892 0.960 . S
H1878 C1892 0.960 . S
H1879 C1892 0.960 . S
C1880 H1872 0.929 . S
C1880 C1881 1.377 . S
C1880 C1882 1.384 . S
C1881 C1880 1.377 . S
C1881 C1887 1.390 . S
C1882 H1873 0.930 . S
C1882 C1880 1.384 . S
C1882 C1883 1.372 . S
C1883 C1882 1.372 . S
C1883 C1884 1.400 . S
C1883 C1888 1.490 . S
C1884 H1874 0.930 . S
C1884 C1883 1.400 . S
C1884 C1887 1.386 . S
H1885 C1901 0.930 . S
H1886 C1902 0.931 . S
C1887 H1875 0.929 . S
C1887 C1881 1.390 . S
C1887 C1884 1.386 . S
C1888 C1883 1.490 . S
C1888 C1890 1.395 . S
C1888 C1891 1.403 . S
H1889 C1895 0.930 . S
C1890 H1876 0.930 . S
C1890 C1888 1.395 . S
C1890 C1893 1.403 . S
C1891 C1888 1.403 . S
C1891 C1892 1.524 . S
C1891 C1895 1.400 . S
C1892 H1877 0.960 . S
C1892 H1878 0.960 . S
C1892 H1879 0.960 . S
C1892 C1891 1.524 . S
C1893 C1890 1.403 . S
C1893 C1894 1.392 . S
C1893 C1897 1.495 . S
C1894 C1893 1.392 . S
C1894 C1895 1.385 . S
C1894 C1896 1.478 . S
C1895 H1889 0.930 . S
C1895 C1891 1.400 . S
C1895 C1894 1.385 . S
C1896 C1894 1.478 . S
C1896 C1898 1.381 . S
C1896 C1902 1.383 . S
C1897 C1893 1.495 . S
C1897 H1903 0.959 . S
C1897 H1904 0.961 . S
C1897 H1905 0.960 . S
C1898 C1896 1.381 . S
C1898 C1899 1.394 . S
C1898 H1906 0.930 . S
C1899 C1898 1.394 . S
C1899 C1900 1.383 . S
C1899 H1907 0.929 . S
C1900 C1899 1.383 . S
C1900 C1901 1.377 . S
C1901 H1885 0.930 . S
C1901 C1900 1.377 . S
C1901 C1902 1.379 . S
C1902 H1886 0.931 . S
C1902 C1896 1.383 . S
C1902 C1901 1.379 . S
H1903 C1897 0.959 . S
H1904 C1897 0.961 . S
H1905 C1897 0.960 . S
H1906 C1898 0.930 . S
H1907 C1899 0.929 . S
H1908 C1916 0.929 . S
H1909 C1918 0.930 . S
H1910 C1920 0.930 . S
H1911 C1923 0.929 . S
H1912 C1926 0.930 . S
H1913 C1928 0.960 . S
H1914 C1928 0.960 . S
H1915 C1928 0.960 . S
C1916 H1908 0.929 . S
C1916 C1917 1.377 . S
C1916 C1918 1.384 . S
C1917 C1916 1.377 . S
C1917 C1923 1.390 . S
C1918 H1909 0.930 . S
C1918 C1916 1.384 . S
C1918 C1919 1.372 . S
C1919 C1918 1.372 . S
C1919 C1920 1.400 . S
C1919 C1924 1.490 . S
C1920 H1910 0.930 . S
C1920 C1919 1.400 . S
C1920 C1923 1.386 . S
H1921 C1937 0.930 . S
H1922 C1938 0.931 . S
C1923 H1911 0.929 . S
C1923 C1917 1.390 . S
C1923 C1920 1.386 . S
C1924 C1919 1.490 . S
C1924 C1926 1.395 . S
C1924 C1927 1.403 . S
H1925 C1931 0.930 . S
C1926 H1912 0.930 . S
C1926 C1924 1.395 . S
C1926 C1929 1.403 . S
C1927 C1924 1.403 . S
C1927 C1928 1.524 . S
C1927 C1931 1.400 . S
C1928 H1913 0.960 . S
C1928 H1914 0.960 . S
C1928 H1915 0.960 . S
C1928 C1927 1.524 . S
C1929 C1926 1.403 . S
C1929 C1930 1.392 . S
C1929 C1933 1.495 . S
C1930 C1929 1.392 . S
C1930 C1931 1.385 . S
C1930 C1932 1.478 . S
C1931 H1925 0.930 . S
C1931 C1927 1.400 . S
C1931 C1930 1.385 . S
C1932 C1930 1.478 . S
C1932 C1934 1.381 . S
C1932 C1938 1.383 . S
C1933 C1929 1.495 . S
C1933 H1939 0.959 . S
C1933 H1940 0.961 . S
C1933 H1941 0.960 . S
C1934 C1932 1.381 . S
C1934 C1935 1.394 . S
C1934 H1942 0.930 . S
C1935 C1934 1.394 . S
C1935 C1936 1.383 . S
C1935 H1943 0.929 . S
C1936 C1935 1.383 . S
C1936 C1937 1.377 . S
C1937 H1921 0.930 . S
C1937 C1936 1.377 . S
C1937 C1938 1.379 . S
C1938 H1922 0.931 . S
C1938 C1932 1.383 . S
C1938 C1937 1.379 . S
H1939 C1933 0.959 . S
H1940 C1933 0.961 . S
H1941 C1933 0.960 . S
H1942 C1934 0.930 . S
H1943 C1935 0.929 . S
H1944 C1952 0.929 . S
H1945 C1954 0.930 . S
H1946 C1956 0.930 . S
H1947 C1959 0.929 . S
H1948 C1962 0.930 . S
H1949 C1964 0.960 . S
H1950 C1964 0.960 . S
H1951 C1964 0.960 . S
C1952 H1944 0.929 . S
C1952 C1953 1.377 . S
C1952 C1954 1.384 . S
C1953 C1952 1.377 . S
C1953 C1959 1.390 . S
C1954 H1945 0.930 . S
C1954 C1952 1.384 . S
C1954 C1955 1.372 . S
C1955 C1954 1.372 . S
C1955 C1956 1.400 . S
C1955 C1960 1.490 . S
C1956 H1946 0.930 . S
C1956 C1955 1.400 . S
C1956 C1959 1.386 . S
H1957 C1973 0.930 . S
H1958 C1974 0.931 . S
C1959 H1947 0.929 . S
C1959 C1953 1.390 . S
C1959 C1956 1.386 . S
C1960 C1955 1.490 . S
C1960 C1962 1.395 . S
C1960 C1963 1.403 . S
H1961 C1967 0.930 . S
C1962 H1948 0.930 . S
C1962 C1960 1.395 . S
C1962 C1965 1.403 . S
C1963 C1960 1.403 . S
C1963 C1964 1.524 . S
C1963 C1967 1.400 . S
C1964 H1949 0.960 . S
C1964 H1950 0.960 . S
C1964 H1951 0.960 . S
C1964 C1963 1.524 . S
C1965 C1962 1.403 . S
C1965 C1966 1.392 . S
C1965 C1969 1.495 . S
C1966 C1965 1.392 . S
C1966 C1967 1.385 . S
C1966 C1968 1.478 . S
C1967 H1961 0.930 . S
C1967 C1963 1.400 . S
C1967 C1966 1.385 . S
C1968 C1966 1.478 . S
C1968 C1970 1.381 . S
C1968 C1974 1.383 . S
C1969 C1965 1.495 . S
C1969 H1975 0.959 . S
C1969 H1976 0.961 . S
C1969 H1977 0.960 . S
C1970 C1968 1.381 . S
C1970 C1971 1.394 . S
C1970 H1978 0.930 . S
C1971 C1970 1.394 . S
C1971 C1972 1.383 . S
C1971 H1979 0.929 . S
C1972 C1971 1.383 . S
C1972 C1973 1.377 . S
C1973 H1957 0.930 . S
C1973 C1972 1.377 . S
C1973 C1974 1.379 . S
C1974 H1958 0.931 . S
C1974 C1968 1.383 . S
C1974 C1973 1.379 . S
H1975 C1969 0.959 . S
H1976 C1969 0.961 . S
H1977 C1969 0.960 . S
H1978 C1970 0.930 . S
H1979 C1971 0.929 . S
H1980 C1988 0.929 . S
H1981 C1990 0.930 . S
H1982 C1992 0.930 . S
H1983 C1995 0.929 . S
H1984 C1998 0.930 . S
H1985 C2000 0.960 . S
H1986 C2000 0.960 . S
H1987 C2000 0.960 . S
C1988 H1980 0.929 . S
C1988 C1989 1.377 . S
C1988 C1990 1.384 . S
C1989 C1988 1.377 . S
C1989 C1995 1.390 . S
C1990 H1981 0.930 . S
C1990 C1988 1.384 . S
C1990 C1991 1.372 . S
C1991 C1990 1.372 . S
C1991 C1992 1.400 . S
C1991 C1996 1.490 . S
C1992 H1982 0.930 . S
C1992 C1991 1.400 . S
C1992 C1995 1.386 . S
H1993 C2009 0.930 . S
H1994 C2010 0.931 . S
C1995 H1983 0.929 . S
C1995 C1989 1.390 . S
C1995 C1992 1.386 . S
C1996 C1991 1.490 . S
C1996 C1998 1.395 . S
C1996 C1999 1.403 . S
H1997 C2003 0.930 . S
C1998 H1984 0.930 . S
C1998 C1996 1.395 . S
C1998 C2001 1.403 . S
C1999 C1996 1.403 . S
C1999 C2000 1.524 . S
C1999 C2003 1.400 . S
C2000 H1985 0.960 . S
C2000 H1986 0.960 . S
C2000 H1987 0.960 . S
C2000 C1999 1.524 . S
C2001 C1998 1.403 . S
C2001 C2002 1.392 . S
C2001 C2005 1.495 . S
C2002 C2001 1.392 . S
C2002 C2003 1.385 . S
C2002 C2004 1.478 . S
C2003 H1997 0.930 . S
C2003 C1999 1.400 . S
C2003 C2002 1.385 . S
C2004 C2002 1.478 . S
C2004 C2006 1.381 . S
C2004 C2010 1.383 . S
C2005 C2001 1.495 . S
C2005 H2011 0.959 . S
C2005 H2012 0.961 . S
C2005 H2013 0.960 . S
C2006 C2004 1.381 . S
C2006 C2007 1.394 . S
C2006 H2014 0.930 . S
C2007 C2006 1.394 . S
C2007 C2008 1.383 . S
C2007 H2015 0.929 . S
C2008 C2007 1.383 . S
C2008 C2009 1.377 . S
C2009 H1993 0.930 . S
C2009 C2008 1.377 . S
C2009 C2010 1.379 . S
C2010 H1994 0.931 . S
C2010 C2004 1.383 . S
C2010 C2009 1.379 . S
H2011 C2005 0.959 . S
H2012 C2005 0.961 . S
H2013 C2005 0.960 . S
H2014 C2006 0.930 . S
H2015 C2007 0.929 . S
H2016 C2024 0.929 . S
H2017 C2026 0.930 . S
H2018 C2028 0.930 . S
H2019 C2031 0.929 . S
H2020 C2034 0.930 . S
H2021 C2036 0.960 . S
H2022 C2036 0.960 . S
H2023 C2036 0.960 . S
C2024 H2016 0.929 . S
C2024 C2025 1.377 . S
C2024 C2026 1.384 . S
C2025 C2024 1.377 . S
C2025 C2031 1.390 . S
C2026 H2017 0.930 . S
C2026 C2024 1.384 . S
C2026 C2027 1.372 . S
C2027 C2026 1.372 . S
C2027 C2028 1.400 . S
C2027 C2032 1.490 . S
C2028 H2018 0.930 . S
C2028 C2027 1.400 . S
C2028 C2031 1.386 . S
H2029 C2045 0.930 . S
H2030 C2046 0.931 . S
C2031 H2019 0.929 . S
C2031 C2025 1.390 . S
C2031 C2028 1.386 . S
C2032 C2027 1.490 . S
C2032 C2034 1.395 . S
C2032 C2035 1.403 . S
H2033 C2039 0.930 . S
C2034 H2020 0.930 . S
C2034 C2032 1.395 . S
C2034 C2037 1.403 . S
C2035 C2032 1.403 . S
C2035 C2036 1.524 . S
C2035 C2039 1.400 . S
C2036 H2021 0.960 . S
C2036 H2022 0.960 . S
C2036 H2023 0.960 . S
C2036 C2035 1.524 . S
C2037 C2034 1.403 . S
C2037 C2038 1.392 . S
C2037 C2041 1.495 . S
C2038 C2037 1.392 . S
C2038 C2039 1.385 . S
C2038 C2040 1.478 . S
C2039 H2033 0.930 . S
C2039 C2035 1.400 . S
C2039 C2038 1.385 . S
C2040 C2038 1.478 . S
C2040 C2042 1.381 . S
C2040 C2046 1.383 . S
C2041 C2037 1.495 . S
C2041 H2047 0.959 . S
C2041 H2048 0.961 . S
C2041 H2049 0.960 . S
C2042 C2040 1.381 . S
C2042 C2043 1.394 . S
C2042 H2050 0.930 . S
C2043 C2042 1.394 . S
C2043 C2044 1.383 . S
C2043 H2051 0.929 . S
C2044 C2043 1.383 . S
C2044 C2045 1.377 . S
C2045 H2029 0.930 . S
C2045 C2044 1.377 . S
C2045 C2046 1.379 . S
C2046 H2030 0.931 . S
C2046 C2040 1.383 . S
C2046 C2045 1.379 . S
H2047 C2041 0.959 . S
H2048 C2041 0.961 . S
H2049 C2041 0.960 . S
H2050 C2042 0.930 . S
H2051 C2043 0.929 . S
H2052 C2060 0.929 . S
H2053 C2062 0.930 . S
H2054 C2064 0.930 . S
H2055 C2067 0.929 . S
H2056 C2070 0.930 . S
H2057 C2072 0.960 . S
H2058 C2072 0.960 . S
H2059 C2072 0.960 . S
C2060 H2052 0.929 . S
C2060 C2061 1.377 . S
C2060 C2062 1.384 . S
C2061 C2060 1.377 . S
C2061 C2067 1.390 . S
C2062 H2053 0.930 . S
C2062 C2060 1.384 . S
C2062 C2063 1.372 . S
C2063 C2062 1.372 . S
C2063 C2064 1.400 . S
C2063 C2068 1.490 . S
C2064 H2054 0.930 . S
C2064 C2063 1.400 . S
C2064 C2067 1.386 . S
H2065 C2081 0.930 . S
H2066 C2082 0.931 . S
C2067 H2055 0.929 . S
C2067 C2061 1.390 . S
C2067 C2064 1.386 . S
C2068 C2063 1.490 . S
C2068 C2070 1.395 . S
C2068 C2071 1.403 . S
H2069 C2075 0.930 . S
C2070 H2056 0.930 . S
C2070 C2068 1.395 . S
C2070 C2073 1.403 . S
C2071 C2068 1.403 . S
C2071 C2072 1.524 . S
C2071 C2075 1.400 . S
C2072 H2057 0.960 . S
C2072 H2058 0.960 . S
C2072 H2059 0.960 . S
C2072 C2071 1.524 . S
C2073 C2070 1.403 . S
C2073 C2074 1.392 . S
C2073 C2077 1.495 . S
C2074 C2073 1.392 . S
C2074 C2075 1.385 . S
C2074 C2076 1.478 . S
C2075 H2069 0.930 . S
C2075 C2071 1.400 . S
C2075 C2074 1.385 . S
C2076 C2074 1.478 . S
C2076 C2078 1.381 . S
C2076 C2082 1.383 . S
C2077 C2073 1.495 . S
C2077 H2083 0.959 . S
C2077 H2084 0.961 . S
C2077 H2085 0.960 . S
C2078 C2076 1.381 . S
C2078 C2079 1.394 . S
C2078 H2086 0.930 . S
C2079 C2078 1.394 . S
C2079 C2080 1.383 . S
C2079 H2087 0.929 . S
C2080 C2079 1.383 . S
C2080 C2081 1.377 . S
C2081 H2065 0.930 . S
C2081 C2080 1.377 . S
C2081 C2082 1.379 . S
C2082 H2066 0.931 . S
C2082 C2076 1.383 . S
C2082 C2081 1.379 . S
H2083 C2077 0.959 . S
H2084 C2077 0.961 . S
H2085 C2077 0.960 . S
H2086 C2078 0.930 . S
H2087 C2079 0.929 . S
H2088 C2096 0.929 . S
H2089 C2098 0.930 . S
H2090 C2100 0.930 . S
H2091 C2103 0.929 . S
H2092 C2106 0.930 . S
H2093 C2108 0.960 . S
H2094 C2108 0.960 . S
H2095 C2108 0.960 . S
C2096 H2088 0.929 . S
C2096 C2097 1.377 . S
C2096 C2098 1.384 . S
C2097 C2096 1.377 . S
C2097 C2103 1.390 . S
C2098 H2089 0.930 . S
C2098 C2096 1.384 . S
C2098 C2099 1.372 . S
C2099 C2098 1.372 . S
C2099 C2100 1.400 . S
C2099 C2104 1.490 . S
C2100 H2090 0.930 . S
C2100 C2099 1.400 . S
C2100 C2103 1.386 . S
H2101 C2117 0.930 . S
H2102 C2118 0.931 . S
C2103 H2091 0.929 . S
C2103 C2097 1.390 . S
C2103 C2100 1.386 . S
C2104 C2099 1.490 . S
C2104 C2106 1.395 . S
C2104 C2107 1.403 . S
H2105 C2111 0.930 . S
C2106 H2092 0.930 . S
C2106 C2104 1.395 . S
C2106 C2109 1.403 . S
C2107 C2104 1.403 . S
C2107 C2108 1.524 . S
C2107 C2111 1.400 . S
C2108 H2093 0.960 . S
C2108 H2094 0.960 . S
C2108 H2095 0.960 . S
C2108 C2107 1.524 . S
C2109 C2106 1.403 . S
C2109 C2110 1.392 . S
C2109 C2113 1.495 . S
C2110 C2109 1.392 . S
C2110 C2111 1.385 . S
C2110 C2112 1.478 . S
C2111 H2105 0.930 . S
C2111 C2107 1.400 . S
C2111 C2110 1.385 . S
C2112 C2110 1.478 . S
C2112 C2114 1.381 . S
C2112 C2118 1.383 . S
C2113 C2109 1.495 . S
C2113 H2119 0.959 . S
C2113 H2120 0.961 . S
C2113 H2121 0.960 . S
C2114 C2112 1.381 . S
C2114 C2115 1.394 . S
C2114 H2122 0.930 . S
C2115 C2114 1.394 . S
C2115 C2116 1.383 . S
C2115 H2123 0.929 . S
C2116 C2115 1.383 . S
C2116 C2117 1.377 . S
C2117 H2101 0.930 . S
C2117 C2116 1.377 . S
C2117 C2118 1.379 . S
C2118 H2102 0.931 . S
C2118 C2112 1.383 . S
C2118 C2117 1.379 . S
H2119 C2113 0.959 . S
H2120 C2113 0.961 . S
H2121 C2113 0.960 . S
H2122 C2114 0.930 . S
H2123 C2115 0.929 . S
H2124 C2132 0.929 . S
H2125 C2134 0.930 . S
H2126 C2136 0.930 . S
H2127 C2139 0.929 . S
H2128 C2142 0.930 . S
H2129 C2144 0.960 . S
H2130 C2144 0.960 . S
H2131 C2144 0.960 . S
C2132 H2124 0.929 . S
C2132 C2133 1.377 . S
C2132 C2134 1.384 . S
C2133 C2132 1.377 . S
C2133 C2139 1.390 . S
C2134 H2125 0.930 . S
C2134 C2132 1.384 . S
C2134 C2135 1.372 . S
C2135 C2134 1.372 . S
C2135 C2136 1.400 . S
C2135 C2140 1.490 . S
C2136 H2126 0.930 . S
C2136 C2135 1.400 . S
C2136 C2139 1.386 . S
H2137 C2153 0.930 . S
H2138 C2154 0.931 . S
C2139 H2127 0.929 . S
C2139 C2133 1.390 . S
C2139 C2136 1.386 . S
C2140 C2135 1.490 . S
C2140 C2142 1.395 . S
C2140 C2143 1.403 . S
H2141 C2147 0.930 . S
C2142 H2128 0.930 . S
C2142 C2140 1.395 . S
C2142 C2145 1.403 . S
C2143 C2140 1.403 . S
C2143 C2144 1.524 . S
C2143 C2147 1.400 . S
C2144 H2129 0.960 . S
C2144 H2130 0.960 . S
C2144 H2131 0.960 . S
C2144 C2143 1.524 . S
C2145 C2142 1.403 . S
C2145 C2146 1.392 . S
C2145 C2149 1.495 . S
C2146 C2145 1.392 . S
C2146 C2147 1.385 . S
C2146 C2148 1.478 . S
C2147 H2141 0.930 . S
C2147 C2143 1.400 . S
C2147 C2146 1.385 . S
C2148 C2146 1.478 . S
C2148 C2150 1.381 . S
C2148 C2154 1.383 . S
C2149 C2145 1.495 . S
C2149 H2155 0.959 . S
C2149 H2156 0.961 . S
C2149 H2157 0.960 . S
C2150 C2148 1.381 . S
C2150 C2151 1.394 . S
C2150 H2158 0.930 . S
C2151 C2150 1.394 . S
C2151 C2152 1.383 . S
C2151 H2159 0.929 . S
C2152 C2151 1.383 . S
C2152 C2153 1.377 . S
C2153 H2137 0.930 . S
C2153 C2152 1.377 . S
C2153 C2154 1.379 . S
C2154 H2138 0.931 . S
C2154 C2148 1.383 . S
C2154 C2153 1.379 . S
H2155 C2149 0.959 . S
H2156 C2149 0.961 . S
H2157 C2149 0.960 . S
H2158 C2150 0.930 . S
H2159 C2151 0.929 . S
H2160 C2168 0.929 . S
H2161 C2170 0.930 . S
H2162 C2172 0.930 . S
H2163 C2175 0.929 . S
H2164 C2178 0.930 . S
H2165 C2180 0.960 . S
H2166 C2180 0.960 . S
H2167 C2180 0.960 . S
C2168 H2160 0.929 . S
C2168 C2169 1.377 . S
C2168 C2170 1.384 . S
C2169 C2168 1.377 . S
C2169 C2175 1.390 . S
C2170 H2161 0.930 . S
C2170 C2168 1.384 . S
C2170 C2171 1.372 . S
C2171 C2170 1.372 . S
C2171 C2172 1.400 . S
C2171 C2176 1.490 . S
C2172 H2162 0.930 . S
C2172 C2171 1.400 . S
C2172 C2175 1.386 . S
H2173 C2189 0.930 . S
H2174 C2190 0.931 . S
C2175 H2163 0.929 . S
C2175 C2169 1.390 . S
C2175 C2172 1.386 . S
C2176 C2171 1.490 . S
C2176 C2178 1.395 . S
C2176 C2179 1.403 . S
H2177 C2183 0.930 . S
C2178 H2164 0.930 . S
C2178 C2176 1.395 . S
C2178 C2181 1.403 . S
C2179 C2176 1.403 . S
C2179 C2180 1.524 . S
C2179 C2183 1.400 . S
C2180 H2165 0.960 . S
C2180 H2166 0.960 . S
C2180 H2167 0.960 . S
C2180 C2179 1.524 . S
C2181 C2178 1.403 . S
C2181 C2182 1.392 . S
C2181 C2185 1.495 . S
C2182 C2181 1.392 . S
C2182 C2183 1.385 . S
C2182 C2184 1.478 . S
C2183 H2177 0.930 . S
C2183 C2179 1.400 . S
C2183 C2182 1.385 . S
C2184 C2182 1.478 . S
C2184 C2186 1.381 . S
C2184 C2190 1.383 . S
C2185 C2181 1.495 . S
C2185 H2191 0.959 . S
C2185 H2192 0.961 . S
C2185 H2193 0.960 . S
C2186 C2184 1.381 . S
C2186 C2187 1.394 . S
C2186 H2194 0.930 . S
C2187 C2186 1.394 . S
C2187 C2188 1.383 . S
C2187 H2195 0.929 . S
C2188 C2187 1.383 . S
C2188 C2189 1.377 . S
C2189 H2173 0.930 . S
C2189 C2188 1.377 . S
C2189 C2190 1.379 . S
C2190 H2174 0.931 . S
C2190 C2184 1.383 . S
C2190 C2189 1.379 . S
H2191 C2185 0.959 . S
H2192 C2185 0.961 . S
H2193 C2185 0.960 . S
H2194 C2186 0.930 . S
H2195 C2187 0.929 . S
H2196 C2204 0.929 . S
H2197 C2206 0.930 . S
H2198 C2208 0.930 . S
H2199 C2211 0.929 . S
H2200 C2214 0.930 . S
H2201 C2216 0.960 . S
H2202 C2216 0.960 . S
H2203 C2216 0.960 . S
C2204 H2196 0.929 . S
C2204 C2205 1.377 . S
C2204 C2206 1.384 . S
C2205 C2204 1.377 . S
C2205 C2211 1.390 . S
C2206 H2197 0.930 . S
C2206 C2204 1.384 . S
C2206 C2207 1.372 . S
C2207 C2206 1.372 . S
C2207 C2208 1.400 . S
C2207 C2212 1.490 . S
C2208 H2198 0.930 . S
C2208 C2207 1.400 . S
C2208 C2211 1.386 . S
H2209 C2225 0.930 . S
H2210 C2226 0.931 . S
C2211 H2199 0.929 . S
C2211 C2205 1.390 . S
C2211 C2208 1.386 . S
C2212 C2207 1.490 . S
C2212 C2214 1.395 . S
C2212 C2215 1.403 . S
H2213 C2219 0.930 . S
C2214 H2200 0.930 . S
C2214 C2212 1.395 . S
C2214 C2217 1.403 . S
C2215 C2212 1.403 . S
C2215 C2216 1.524 . S
C2215 C2219 1.400 . S
C2216 H2201 0.960 . S
C2216 H2202 0.960 . S
C2216 H2203 0.960 . S
C2216 C2215 1.524 . S
C2217 C2214 1.403 . S
C2217 C2218 1.392 . S
C2217 C2221 1.495 . S
C2218 C2217 1.392 . S
C2218 C2219 1.385 . S
C2218 C2220 1.478 . S
C2219 H2213 0.930 . S
C2219 C2215 1.400 . S
C2219 C2218 1.385 . S
C2220 C2218 1.478 . S
C2220 C2222 1.381 . S
C2220 C2226 1.383 . S
C2221 C2217 1.495 . S
C2221 H2227 0.959 . S
C2221 H2228 0.961 . S
C2221 H2229 0.960 . S
C2222 C2220 1.381 . S
C2222 C2223 1.394 . S
C2222 H2230 0.930 . S
C2223 C2222 1.394 . S
C2223 C2224 1.383 . S
C2223 H2231 0.929 . S
C2224 C2223 1.383 . S
C2224 C2225 1.377 . S
C2225 H2209 0.930 . S
C2225 C2224 1.377 . S
C2225 C2226 1.379 . S
C2226 H2210 0.931 . S
C2226 C2220 1.383 . S
C2226 C2225 1.379 . S
H2227 C2221 0.959 . S
H2228 C2221 0.961 . S
H2229 C2221 0.960 . S
H2230 C2222 0.930 . S
H2231 C2223 0.929 . S
H2232 C2240 0.929 . S
H2233 C2242 0.930 . S
H2234 C2244 0.930 . S
H2235 C2247 0.929 . S
H2236 C2250 0.930 . S
H2237 C2252 0.960 . S
H2238 C2252 0.960 . S
H2239 C2252 0.960 . S
C2240 H2232 0.929 . S
C2240 C2241 1.377 . S
C2240 C2242 1.384 . S
C2241 C2240 1.377 . S
C2241 C2247 1.390 . S
C2242 H2233 0.930 . S
C2242 C2240 1.384 . S
C2242 C2243 1.372 . S
C2243 C2242 1.372 . S
C2243 C2244 1.400 . S
C2243 C2248 1.490 . S
C2244 H2234 0.930 . S
C2244 C2243 1.400 . S
C2244 C2247 1.386 . S
H2245 C2261 0.930 . S
H2246 C2262 0.931 . S
C2247 H2235 0.929 . S
C2247 C2241 1.390 . S
C2247 C2244 1.386 . S
C2248 C2243 1.490 . S
C2248 C2250 1.395 . S
C2248 C2251 1.403 . S
H2249 C2255 0.930 . S
C2250 H2236 0.930 . S
C2250 C2248 1.395 . S
C2250 C2253 1.403 . S
C2251 C2248 1.403 . S
C2251 C2252 1.524 . S
C2251 C2255 1.400 . S
C2252 H2237 0.960 . S
C2252 H2238 0.960 . S
C2252 H2239 0.960 . S
C2252 C2251 1.524 . S
C2253 C2250 1.403 . S
C2253 C2254 1.392 . S
C2253 C2257 1.495 . S
C2254 C2253 1.392 . S
C2254 C2255 1.385 . S
C2254 C2256 1.478 . S
C2255 H2249 0.930 . S
C2255 C2251 1.400 . S
C2255 C2254 1.385 . S
C2256 C2254 1.478 . S
C2256 C2258 1.381 . S
C2256 C2262 1.383 . S
C2257 C2253 1.495 . S
C2257 H2263 0.959 . S
C2257 H2264 0.961 . S
C2257 H2265 0.960 . S
C2258 C2256 1.381 . S
C2258 C2259 1.394 . S
C2258 H2266 0.930 . S
C2259 C2258 1.394 . S
C2259 C2260 1.383 . S
C2259 H2267 0.929 . S
C2260 C2259 1.383 . S
C2260 C2261 1.377 . S
C2261 H2245 0.930 . S
C2261 C2260 1.377 . S
C2261 C2262 1.379 . S
C2262 H2246 0.931 . S
C2262 C2256 1.383 . S
C2262 C2261 1.379 . S
H2263 C2257 0.959 . S
H2264 C2257 0.961 . S
H2265 C2257 0.960 . S
H2266 C2258 0.930 . S
H2267 C2259 0.929 . S
H2268 C2276 0.929 . S
H2269 C2278 0.930 . S
H2270 C2280 0.930 . S
H2271 C2283 0.929 . S
H2272 C2286 0.930 . S
H2273 C2288 0.960 . S
H2274 C2288 0.960 . S
H2275 C2288 0.960 . S
C2276 H2268 0.929 . S
C2276 C2277 1.377 . S
C2276 C2278 1.384 . S
C2277 C2276 1.377 . S
C2277 C2283 1.390 . S
C2278 H2269 0.930 . S
C2278 C2276 1.384 . S
C2278 C2279 1.372 . S
C2279 C2278 1.372 . S
C2279 C2280 1.400 . S
C2279 C2284 1.490 . S
C2280 H2270 0.930 . S
C2280 C2279 1.400 . S
C2280 C2283 1.386 . S
H2281 C2297 0.930 . S
H2282 C2298 0.931 . S
C2283 H2271 0.929 . S
C2283 C2277 1.390 . S
C2283 C2280 1.386 . S
C2284 C2279 1.490 . S
C2284 C2286 1.395 . S
C2284 C2287 1.403 . S
H2285 C2291 0.930 . S
C2286 H2272 0.930 . S
C2286 C2284 1.395 . S
C2286 C2289 1.403 . S
C2287 C2284 1.403 . S
C2287 C2288 1.524 . S
C2287 C2291 1.400 . S
C2288 H2273 0.960 . S
C2288 H2274 0.960 . S
C2288 H2275 0.960 . S
C2288 C2287 1.524 . S
C2289 C2286 1.403 . S
C2289 C2290 1.392 . S
C2289 C2293 1.495 . S
C2290 C2289 1.392 . S
C2290 C2291 1.385 . S
C2290 C2292 1.478 . S
C2291 H2285 0.930 . S
C2291 C2287 1.400 . S
C2291 C2290 1.385 . S
C2292 C2290 1.478 . S
C2292 C2294 1.381 . S
C2292 C2298 1.383 . S
C2293 C2289 1.495 . S
C2293 H2299 0.959 . S
C2293 H2300 0.961 . S
C2293 H2301 0.960 . S
C2294 C2292 1.381 . S
C2294 C2295 1.394 . S
C2294 H2302 0.930 . S
C2295 C2294 1.394 . S
C2295 C2296 1.383 . S
C2295 H2303 0.929 . S
C2296 C2295 1.383 . S
C2296 C2297 1.377 . S
C2297 H2281 0.930 . S
C2297 C2296 1.377 . S
C2297 C2298 1.379 . S
C2298 H2282 0.931 . S
C2298 C2292 1.383 . S
C2298 C2297 1.379 . S
H2299 C2293 0.959 . S
H2300 C2293 0.961 . S
H2301 C2293 0.960 . S
H2302 C2294 0.930 . S
H2303 C2295 0.929 . S
H2304 C2312 0.929 . S
H2305 C2314 0.930 . S
H2306 C2316 0.930 . S
H2307 C2319 0.929 . S
H2308 C2322 0.930 . S
H2309 C2324 0.960 . S
H2310 C2324 0.960 . S
H2311 C2324 0.960 . S
C2312 H2304 0.929 . S
C2312 C2313 1.377 . S
C2312 C2314 1.384 . S
C2313 C2312 1.377 . S
C2313 C2319 1.390 . S
C2314 H2305 0.930 . S
C2314 C2312 1.384 . S
C2314 C2315 1.372 . S
C2315 C2314 1.372 . S
C2315 C2316 1.400 . S
C2315 C2320 1.490 . S
C2316 H2306 0.930 . S
C2316 C2315 1.400 . S
C2316 C2319 1.386 . S
H2317 C2333 0.930 . S
H2318 C2334 0.931 . S
C2319 H2307 0.929 . S
C2319 C2313 1.390 . S
C2319 C2316 1.386 . S
C2320 C2315 1.490 . S
C2320 C2322 1.395 . S
C2320 C2323 1.403 . S
H2321 C2327 0.930 . S
C2322 H2308 0.930 . S
C2322 C2320 1.395 . S
C2322 C2325 1.403 . S
C2323 C2320 1.403 . S
C2323 C2324 1.524 . S
C2323 C2327 1.400 . S
C2324 H2309 0.960 . S
C2324 H2310 0.960 . S
C2324 H2311 0.960 . S
C2324 C2323 1.524 . S
C2325 C2322 1.403 . S
C2325 C2326 1.392 . S
C2325 C2329 1.495 . S
C2326 C2325 1.392 . S
C2326 C2327 1.385 . S
C2326 C2328 1.478 . S
C2327 H2321 0.930 . S
C2327 C2323 1.400 . S
C2327 C2326 1.385 . S
C2328 C2326 1.478 . S
C2328 C2330 1.381 . S
C2328 C2334 1.383 . S
C2329 C2325 1.495 . S
C2329 H2335 0.959 . S
C2329 H2336 0.961 . S
C2329 H2337 0.960 . S
C2330 C2328 1.381 . S
C2330 C2331 1.394 . S
C2330 H2338 0.930 . S
C2331 C2330 1.394 . S
C2331 C2332 1.383 . S
C2331 H2339 0.929 . S
C2332 C2331 1.383 . S
C2332 C2333 1.377 . S
C2333 H2317 0.930 . S
C2333 C2332 1.377 . S
C2333 C2334 1.379 . S
C2334 H2318 0.931 . S
C2334 C2328 1.383 . S
C2334 C2333 1.379 . S
H2335 C2329 0.959 . S
H2336 C2329 0.961 . S
H2337 C2329 0.960 . S
H2338 C2330 0.930 . S
H2339 C2331 0.929 . S
H2340 C2348 0.929 . S
H2341 C2350 0.930 . S
H2342 C2352 0.930 . S
H2343 C2355 0.929 . S
H2344 C2358 0.930 . S
H2345 C2360 0.960 . S
H2346 C2360 0.960 . S
H2347 C2360 0.960 . S
C2348 H2340 0.929 . S
C2348 C2349 1.377 . S
C2348 C2350 1.384 . S
C2349 C2348 1.377 . S
C2349 C2355 1.390 . S
C2350 H2341 0.930 . S
C2350 C2348 1.384 . S
C2350 C2351 1.372 . S
C2351 C2350 1.372 . S
C2351 C2352 1.400 . S
C2351 C2356 1.490 . S
C2352 H2342 0.930 . S
C2352 C2351 1.400 . S
C2352 C2355 1.386 . S
H2353 C2369 0.930 . S
H2354 C2370 0.931 . S
C2355 H2343 0.929 . S
C2355 C2349 1.390 . S
C2355 C2352 1.386 . S
C2356 C2351 1.490 . S
C2356 C2358 1.395 . S
C2356 C2359 1.403 . S
H2357 C2363 0.930 . S
C2358 H2344 0.930 . S
C2358 C2356 1.395 . S
C2358 C2361 1.403 . S
C2359 C2356 1.403 . S
C2359 C2360 1.524 . S
C2359 C2363 1.400 . S
C2360 H2345 0.960 . S
C2360 H2346 0.960 . S
C2360 H2347 0.960 . S
C2360 C2359 1.524 . S
C2361 C2358 1.403 . S
C2361 C2362 1.392 . S
C2361 C2365 1.495 . S
C2362 C2361 1.392 . S
C2362 C2363 1.385 . S
C2362 C2364 1.478 . S
C2363 H2357 0.930 . S
C2363 C2359 1.400 . S
C2363 C2362 1.385 . S
C2364 C2362 1.478 . S
C2364 C2366 1.381 . S
C2364 C2370 1.383 . S
C2365 C2361 1.495 . S
C2365 H2371 0.959 . S
C2365 H2372 0.961 . S
C2365 H2373 0.960 . S
C2366 C2364 1.381 . S
C2366 C2367 1.394 . S
C2366 H2374 0.930 . S
C2367 C2366 1.394 . S
C2367 C2368 1.383 . S
C2367 H2375 0.929 . S
C2368 C2367 1.383 . S
C2368 C2369 1.377 . S
C2369 H2353 0.930 . S
C2369 C2368 1.377 . S
C2369 C2370 1.379 . S
C2370 H2354 0.931 . S
C2370 C2364 1.383 . S
C2370 C2369 1.379 . S
H2371 C2365 0.959 . S
H2372 C2365 0.961 . S
H2373 C2365 0.960 . S
H2374 C2366 0.930 . S
H2375 C2367 0.929 . S
H2376 C2384 0.929 . S
H2377 C2386 0.930 . S
H2378 C2388 0.930 . S
H2379 C2391 0.929 . S
H2380 C2394 0.930 . S
H2381 C2396 0.960 . S
H2382 C2396 0.960 . S
H2383 C2396 0.960 . S
C2384 H2376 0.929 . S
C2384 C2385 1.377 . S
C2384 C2386 1.384 . S
C2385 C2384 1.377 . S
C2385 C2391 1.390 . S
C2386 H2377 0.930 . S
C2386 C2384 1.384 . S
C2386 C2387 1.372 . S
C2387 C2386 1.372 . S
C2387 C2388 1.400 . S
C2387 C2392 1.490 . S
C2388 H2378 0.930 . S
C2388 C2387 1.400 . S
C2388 C2391 1.386 . S
H2389 C2405 0.930 . S
H2390 C2406 0.931 . S
C2391 H2379 0.929 . S
C2391 C2385 1.390 . S
C2391 C2388 1.386 . S
C2392 C2387 1.490 . S
C2392 C2394 1.395 . S
C2392 C2395 1.403 . S
H2393 C2399 0.930 . S
C2394 H2380 0.930 . S
C2394 C2392 1.395 . S
C2394 C2397 1.403 . S
C2395 C2392 1.403 . S
C2395 C2396 1.524 . S
C2395 C2399 1.400 . S
C2396 H2381 0.960 . S
C2396 H2382 0.960 . S
C2396 H2383 0.960 . S
C2396 C2395 1.524 . S
C2397 C2394 1.403 . S
C2397 C2398 1.392 . S
C2397 C2401 1.495 . S
C2398 C2397 1.392 . S
C2398 C2399 1.385 . S
C2398 C2400 1.478 . S
C2399 H2393 0.930 . S
C2399 C2395 1.400 . S
C2399 C2398 1.385 . S
C2400 C2398 1.478 . S
C2400 C2402 1.381 . S
C2400 C2406 1.383 . S
C2401 C2397 1.495 . S
C2401 H2407 0.959 . S
C2401 H2408 0.961 . S
C2401 H2409 0.960 . S
C2402 C2400 1.381 . S
C2402 C2403 1.394 . S
C2402 H2410 0.930 . S
C2403 C2402 1.394 . S
C2403 C2404 1.383 . S
C2403 H2411 0.929 . S
C2404 C2403 1.383 . S
C2404 C2405 1.377 . S
C2405 H2389 0.930 . S
C2405 C2404 1.377 . S
C2405 C2406 1.379 . S
C2406 H2390 0.931 . S
C2406 C2400 1.383 . S
C2406 C2405 1.379 . S
H2407 C2401 0.959 . S
H2408 C2401 0.961 . S
H2409 C2401 0.960 . S
H2410 C2402 0.930 . S
H2411 C2403 0.929 . S
H2412 C2420 0.929 . S
H2413 C2422 0.930 . S
H2414 C2424 0.930 . S
H2415 C2427 0.929 . S
H2416 C2430 0.930 . S
H2417 C2432 0.960 . S
H2418 C2432 0.960 . S
H2419 C2432 0.960 . S
C2420 H2412 0.929 . S
C2420 C2421 1.377 . S
C2420 C2422 1.384 . S
C2421 C2420 1.377 . S
C2421 C2427 1.390 . S
C2422 H2413 0.930 . S
C2422 C2420 1.384 . S
C2422 C2423 1.372 . S
C2423 C2422 1.372 . S
C2423 C2424 1.400 . S
C2423 C2428 1.490 . S
C2424 H2414 0.930 . S
C2424 C2423 1.400 . S
C2424 C2427 1.386 . S
H2425 C2441 0.930 . S
H2426 C2442 0.931 . S
C2427 H2415 0.929 . S
C2427 C2421 1.390 . S
C2427 C2424 1.386 . S
C2428 C2423 1.490 . S
C2428 C2430 1.395 . S
C2428 C2431 1.403 . S
H2429 C2435 0.930 . S
C2430 H2416 0.930 . S
C2430 C2428 1.395 . S
C2430 C2433 1.403 . S
C2431 C2428 1.403 . S
C2431 C2432 1.524 . S
C2431 C2435 1.400 . S
C2432 H2417 0.960 . S
C2432 H2418 0.960 . S
C2432 H2419 0.960 . S
C2432 C2431 1.524 . S
C2433 C2430 1.403 . S
C2433 C2434 1.392 . S
C2433 C2437 1.495 . S
C2434 C2433 1.392 . S
C2434 C2435 1.385 . S
C2434 C2436 1.478 . S
C2435 H2429 0.930 . S
C2435 C2431 1.400 . S
C2435 C2434 1.385 . S
C2436 C2434 1.478 . S
C2436 C2438 1.381 . S
C2436 C2442 1.383 . S
C2437 C2433 1.495 . S
C2437 H2443 0.959 . S
C2437 H2444 0.961 . S
C2437 H2445 0.960 . S
C2438 C2436 1.381 . S
C2438 C2439 1.394 . S
C2438 H2446 0.930 . S
C2439 C2438 1.394 . S
C2439 C2440 1.383 . S
C2439 H2447 0.929 . S
C2440 C2439 1.383 . S
C2440 C2441 1.377 . S
C2441 H2425 0.930 . S
C2441 C2440 1.377 . S
C2441 C2442 1.379 . S
C2442 H2426 0.931 . S
C2442 C2436 1.383 . S
C2442 C2441 1.379 . S
H2443 C2437 0.959 . S
H2444 C2437 0.961 . S
H2445 C2437 0.960 . S
H2446 C2438 0.930 . S
H2447 C2439 0.929 . S
H2448 C2456 0.929 . S
H2449 C2458 0.930 . S
H2450 C2460 0.930 . S
H2451 C2463 0.929 . S
H2452 C2466 0.930 . S
H2453 C2468 0.960 . S
H2454 C2468 0.960 . S
H2455 C2468 0.960 . S
C2456 H2448 0.929 . S
C2456 C2457 1.377 . S
C2456 C2458 1.384 . S
C2457 C2456 1.377 . S
C2457 C2463 1.390 . S
C2458 H2449 0.930 . S
C2458 C2456 1.384 . S
C2458 C2459 1.372 . S
C2459 C2458 1.372 . S
C2459 C2460 1.400 . S
C2459 C2464 1.490 . S
C2460 H2450 0.930 . S
C2460 C2459 1.400 . S
C2460 C2463 1.386 . S
H2461 C2477 0.930 . S
H2462 C2478 0.931 . S
C2463 H2451 0.929 . S
C2463 C2457 1.390 . S
C2463 C2460 1.386 . S
C2464 C2459 1.490 . S
C2464 C2466 1.395 . S
C2464 C2467 1.403 . S
H2465 C2471 0.930 . S
C2466 H2452 0.930 . S
C2466 C2464 1.395 . S
C2466 C2469 1.403 . S
C2467 C2464 1.403 . S
C2467 C2468 1.524 . S
C2467 C2471 1.400 . S
C2468 H2453 0.960 . S
C2468 H2454 0.960 . S
C2468 H2455 0.960 . S
C2468 C2467 1.524 . S
C2469 C2466 1.403 . S
C2469 C2470 1.392 . S
C2469 C2473 1.495 . S
C2470 C2469 1.392 . S
C2470 C2471 1.385 . S
C2470 C2472 1.478 . S
C2471 H2465 0.930 . S
C2471 C2467 1.400 . S
C2471 C2470 1.385 . S
C2472 C2470 1.478 . S
C2472 C2474 1.381 . S
C2472 C2478 1.383 . S
C2473 C2469 1.495 . S
C2473 H2479 0.959 . S
C2473 H2480 0.961 . S
C2473 H2481 0.960 . S
C2474 C2472 1.381 . S
C2474 C2475 1.394 . S
C2474 H2482 0.930 . S
C2475 C2474 1.394 . S
C2475 C2476 1.383 . S
C2475 H2483 0.929 . S
C2476 C2475 1.383 . S
C2476 C2477 1.377 . S
C2477 H2461 0.930 . S
C2477 C2476 1.377 . S
C2477 C2478 1.379 . S
C2478 H2462 0.931 . S
C2478 C2472 1.383 . S
C2478 C2477 1.379 . S
H2479 C2473 0.959 . S
H2480 C2473 0.961 . S
H2481 C2473 0.960 . S
H2482 C2474 0.930 . S
H2483 C2475 0.929 . S
H2484 C2492 0.929 . S
H2485 C2494 0.930 . S
H2486 C2496 0.930 . S
H2487 C2499 0.929 . S
H2488 C2502 0.930 . S
H2489 C2504 0.960 . S
H2490 C2504 0.960 . S
H2491 C2504 0.960 . S
C2492 H2484 0.929 . S
C2492 C2493 1.377 . S
C2492 C2494 1.384 . S
C2493 C2492 1.377 . S
C2493 C2499 1.390 . S
C2494 H2485 0.930 . S
C2494 C2492 1.384 . S
C2494 C2495 1.372 . S
C2495 C2494 1.372 . S
C2495 C2496 1.400 . S
C2495 C2500 1.490 . S
C2496 H2486 0.930 . S
C2496 C2495 1.400 . S
C2496 C2499 1.386 . S
H2497 C2513 0.930 . S
H2498 C2514 0.931 . S
C2499 H2487 0.929 . S
C2499 C2493 1.390 . S
C2499 C2496 1.386 . S
C2500 C2495 1.490 . S
C2500 C2502 1.395 . S
C2500 C2503 1.403 . S
H2501 C2507 0.930 . S
C2502 H2488 0.930 . S
C2502 C2500 1.395 . S
C2502 C2505 1.403 . S
C2503 C2500 1.403 . S
C2503 C2504 1.524 . S
C2503 C2507 1.400 . S
C2504 H2489 0.960 . S
C2504 H2490 0.960 . S
C2504 H2491 0.960 . S
C2504 C2503 1.524 . S
C2505 C2502 1.403 . S
C2505 C2506 1.392 . S
C2505 C2509 1.495 . S
C2506 C2505 1.392 . S
C2506 C2507 1.385 . S
C2506 C2508 1.478 . S
C2507 H2501 0.930 . S
C2507 C2503 1.400 . S
C2507 C2506 1.385 . S
C2508 C2506 1.478 . S
C2508 C2510 1.381 . S
C2508 C2514 1.383 . S
C2509 C2505 1.495 . S
C2509 H2515 0.959 . S
C2509 H2516 0.961 . S
C2509 H2517 0.960 . S
C2510 C2508 1.381 . S
C2510 C2511 1.394 . S
C2510 H2518 0.930 . S
C2511 C2510 1.394 . S
C2511 C2512 1.383 . S
C2511 H2519 0.929 . S
C2512 C2511 1.383 . S
C2512 C2513 1.377 . S
C2513 H2497 0.930 . S
C2513 C2512 1.377 . S
C2513 C2514 1.379 . S
C2514 H2498 0.931 . S
C2514 C2508 1.383 . S
C2514 C2513 1.379 . S
H2515 C2509 0.959 . S
H2516 C2509 0.961 . S
H2517 C2509 0.960 . S
H2518 C2510 0.930 . S
H2519 C2511 0.929 . S
H2520 C2528 0.929 . S
H2521 C2530 0.930 . S
H2522 C2532 0.930 . S
H2523 C2535 0.929 . S
H2524 C2538 0.930 . S
H2525 C2540 0.960 . S
H2526 C2540 0.960 . S
H2527 C2540 0.960 . S
C2528 H2520 0.929 . S
C2528 C2529 1.377 . S
C2528 C2530 1.384 . S
C2529 C2528 1.377 . S
C2529 C2535 1.390 . S
C2530 H2521 0.930 . S
C2530 C2528 1.384 . S
C2530 C2531 1.372 . S
C2531 C2530 1.372 . S
C2531 C2532 1.400 . S
C2531 C2536 1.490 . S
C2532 H2522 0.930 . S
C2532 C2531 1.400 . S
C2532 C2535 1.386 . S
H2533 C2549 0.930 . S
H2534 C2550 0.931 . S
C2535 H2523 0.929 . S
C2535 C2529 1.390 . S
C2535 C2532 1.386 . S
C2536 C2531 1.490 . S
C2536 C2538 1.395 . S
C2536 C2539 1.403 . S
H2537 C2543 0.930 . S
C2538 H2524 0.930 . S
C2538 C2536 1.395 . S
C2538 C2541 1.403 . S
C2539 C2536 1.403 . S
C2539 C2540 1.524 . S
C2539 C2543 1.400 . S
C2540 H2525 0.960 . S
C2540 H2526 0.960 . S
C2540 H2527 0.960 . S
C2540 C2539 1.524 . S
C2541 C2538 1.403 . S
C2541 C2542 1.392 . S
C2541 C2545 1.495 . S
C2542 C2541 1.392 . S
C2542 C2543 1.385 . S
C2542 C2544 1.478 . S
C2543 H2537 0.930 . S
C2543 C2539 1.400 . S
C2543 C2542 1.385 . S
C2544 C2542 1.478 . S
C2544 C2546 1.381 . S
C2544 C2550 1.383 . S
C2545 C2541 1.495 . S
C2545 H2551 0.959 . S
C2545 H2552 0.961 . S
C2545 H2553 0.960 . S
C2546 C2544 1.381 . S
C2546 C2547 1.394 . S
C2546 H2554 0.930 . S
C2547 C2546 1.394 . S
C2547 C2548 1.383 . S
C2547 H2555 0.929 . S
C2548 C2547 1.383 . S
C2548 C2549 1.377 . S
C2549 H2533 0.930 . S
C2549 C2548 1.377 . S
C2549 C2550 1.379 . S
C2550 H2534 0.931 . S
C2550 C2544 1.383 . S
C2550 C2549 1.379 . S
H2551 C2545 0.959 . S
H2552 C2545 0.961 . S
H2553 C2545 0.960 . S
H2554 C2546 0.930 . S
H2555 C2547 0.929 . S
H2556 C2564 0.929 . S
H2557 C2566 0.930 . S
H2558 C2568 0.930 . S
H2559 C2571 0.929 . S
H2560 C2574 0.930 . S
H2561 C2576 0.960 . S
H2562 C2576 0.960 . S
H2563 C2576 0.960 . S
C2564 H2556 0.929 . S
C2564 C2565 1.377 . S
C2564 C2566 1.384 . S
C2565 C2564 1.377 . S
C2565 C2571 1.390 . S
C2566 H2557 0.930 . S
C2566 C2564 1.384 . S
C2566 C2567 1.372 . S
C2567 C2566 1.372 . S
C2567 C2568 1.400 . S
C2567 C2572 1.490 . S
C2568 H2558 0.930 . S
C2568 C2567 1.400 . S
C2568 C2571 1.386 . S
H2569 C2585 0.930 . S
H2570 C2586 0.931 . S
C2571 H2559 0.929 . S
C2571 C2565 1.390 . S
C2571 C2568 1.386 . S
C2572 C2567 1.490 . S
C2572 C2574 1.395 . S
C2572 C2575 1.403 . S
H2573 C2579 0.930 . S
C2574 H2560 0.930 . S
C2574 C2572 1.395 . S
C2574 C2577 1.403 . S
C2575 C2572 1.403 . S
C2575 C2576 1.524 . S
C2575 C2579 1.400 . S
C2576 H2561 0.960 . S
C2576 H2562 0.960 . S
C2576 H2563 0.960 . S
C2576 C2575 1.524 . S
C2577 C2574 1.403 . S
C2577 C2578 1.392 . S
C2577 C2581 1.495 . S
C2578 C2577 1.392 . S
C2578 C2579 1.385 . S
C2578 C2580 1.478 . S
C2579 H2573 0.930 . S
C2579 C2575 1.400 . S
C2579 C2578 1.385 . S
C2580 C2578 1.478 . S
C2580 C2582 1.381 . S
C2580 C2586 1.383 . S
C2581 C2577 1.495 . S
C2581 H2587 0.959 . S
C2581 H2588 0.961 . S
C2581 H2589 0.960 . S
C2582 C2580 1.381 . S
C2582 C2583 1.394 . S
C2582 H2590 0.930 . S
C2583 C2582 1.394 . S
C2583 C2584 1.383 . S
C2583 H2591 0.929 . S
C2584 C2583 1.383 . S
C2584 C2585 1.377 . S
C2585 H2569 0.930 . S
C2585 C2584 1.377 . S
C2585 C2586 1.379 . S
C2586 H2570 0.931 . S
C2586 C2580 1.383 . S
C2586 C2585 1.379 . S
H2587 C2581 0.959 . S
H2588 C2581 0.961 . S
H2589 C2581 0.960 . S
H2590 C2582 0.930 . S
H2591 C2583 0.929 . S
C873 C544 1.163 . S
C892 C4 1.130 . S
C909 C446 1.333 . S
C928 C50 1.353 . S
C945 C472 1.262 . S
C964 C86 1.255 . S
C981 C518 1.188 . S
C1000 C112 1.198 . S
C1017 C508 1.181 . S
C1036 C40 1.154 . S
C1053 C76 1.074 . S
C1072 C554 1.023 . S
C1089 C436 1.275 . S
C1108 C122 1.212 . S
C1125 C482 1.175 . S
C1144 C14 1.142 . S
C1161 C662 1.398 . S
C1180 C158 1.408 . S
C1197 C184 1.044 . S
C1216 C688 1.039 . S
C1233 C230 1.384 . S
C1252 C590 1.409 . S
C1269 C616 1.059 . S
C1288 C256 1.075 . S
C1305 C796 1.001 . S
C1324 C292 1.026 . S
C1341 C338 1.344 . S
C1360 C832 1.366 . S
C1377 C364 1.034 . S
C1396 C724 1.018 . S
C1413 C410 1.406 . S
C1432 C760 1.423 . S
C1449 C626 1.184 . S
C1468 C400 1.188 . S
C1485 C842 1.296 . S
C1504 C194 1.296 . S
C1521 C220 1.293 . S
C1540 C734 1.287 . S
C1557 C770 1.201 . S
C1576 C266 1.215 . S
C1593 C806 1.136 . S
C1612 C148 1.171 . S
C1629 C328 1.123 . S
C1648 C698 1.134 . S
C1665 C580 1.278 . S
C1684 C374 1.214 . S
C1701 C652 1.146 . S
C1720 C302 1.164 . S
C1737 C3 0.635 . S
C1756 C147 0.596 . S
C1773 C182 0.700 . S
C1792 C38 0.682 . S
C1809 C74 0.713 . S
C1828 C219 0.681 . S
C1845 C111 0.597 . S
C1864 C254 0.567 . S
C1881 C290 0.655 . S
C1900 C39 0.660 . S
C1917 C327 0.497 . S
C1936 C75 0.512 . S
C1953 C362 0.718 . S
C1972 C110 0.706 . S
C1989 C2 0.613 . S
C2008 C399 0.595 . S
C2025 C398 0.806 . S
C2044 C146 0.764 . S
C2061 C183 0.461 . S
C2080 C291 0.512 . S
C2097 C218 0.823 . S
C2116 C326 0.796 . S
C2133 C363 0.507 . S
C2152 C255 0.552 . S
C2169 C579 0.705 . S
C2188 C435 0.675 . S
C2205 C614 0.719 . S
C2224 C470 0.732 . S
C2241 C507 0.602 . S
C2260 C651 0.579 . S
C2277 C542 0.603 . S
C2296 C686 0.642 . S
C2313 C471 0.669 . S
C2332 C722 0.709 . S
C2349 C506 0.668 . S
C2368 C758 0.626 . S
C2385 C794 0.606 . S
C2404 C543 0.555 . S
C2421 C434 0.753 . S
C2440 C830 0.812 . S
C2457 C578 0.728 . S
C2476 C831 0.767 . S
C2493 C723 0.470 . S
C2512 C615 0.436 . S
C2529 C650 0.782 . S
C2548 C759 0.748 . S
C2565 C795 0.476 . S
C2584 C687 0.464 . S
