# Generated by pormake.
# Topology unp, (4)-cn, num edge types: 1
# Building blocks:
#     Node 0, Type 0, BuildingBlock: UXUYUI_clean_sbu_0, # of connection points: 4
#     Node 1, Type 0, BuildingBlock: UXUYUI_clean_sbu_0, # of connection points: 4
#     Node 2, Type 0, BuildingBlock: UXUYUI_clean_sbu_0, # of connection points: 4
#     Node 3, Type 0, BuildingBlock: UXUYUI_clean_sbu_0, # of connection points: 4
#     Node 4, Type 0, BuildingBlock: UXUYUI_clean_sbu_0, # of connection points: 4
#     Node 5, Type 0, BuildingBlock: UXUYUI_clean_sbu_0, # of connection points: 4
#     Node 6, Type 0, BuildingBlock: UXUYUI_clean_sbu_0, # of connection points: 4
#     Node 7, Type 0, BuildingBlock: UXUYUI_clean_sbu_0, # of connection points: 4
#     Node 8, Type 0, BuildingBlock: UXUYUI_clean_sbu_0, # of connection points: 4
#     Node 9, Type 0, BuildingBlock: UXUYUI_clean_sbu_0, # of connection points: 4
#     Node 10, Type 0, BuildingBlock: UXUYUI_clean_sbu_0, # of connection points: 4
#     Node 11, Type 0, BuildingBlock: UXUYUI_clean_sbu_0, # of connection points: 4
#     Node 12, Type 0, BuildingBlock: UXUYUI_clean_sbu_0, # of connection points: 4
#     Node 13, Type 0, BuildingBlock: UXUYUI_clean_sbu_0, # of connection points: 4
#     Node 14, Type 0, BuildingBlock: UXUYUI_clean_sbu_0, # of connection points: 4
#     Node 15, Type 0, BuildingBlock: UXUYUI_clean_sbu_0, # of connection points: 4
#     Node 16, Type 0, BuildingBlock: UXUYUI_clean_sbu_0, # of connection points: 4
#     Node 17, Type 0, BuildingBlock: UXUYUI_clean_sbu_0, # of connection points: 4
#     Edge 18, Type (0, 0), BuildingBlock: MIFKUJ_clean_linker_0, # of connection points: 2
#     Edge 19, Type (0, 0), BuildingBlock: MIFKUJ_clean_linker_0, # of connection points: 2
#     Edge 20, Type (0, 0), BuildingBlock: MIFKUJ_clean_linker_0, # of connection points: 2
#     Edge 21, Type (0, 0), BuildingBlock: MIFKUJ_clean_linker_0, # of connection points: 2
#     Edge 22, Type (0, 0), BuildingBlock: MIFKUJ_clean_linker_0, # of connection points: 2
#     Edge 23, Type (0, 0), BuildingBlock: MIFKUJ_clean_linker_0, # of connection points: 2
#     Edge 24, Type (0, 0), BuildingBlock: MIFKUJ_clean_linker_0, # of connection points: 2
#     Edge 25, Type (0, 0), BuildingBlock: MIFKUJ_clean_linker_0, # of connection points: 2
#     Edge 26, Type (0, 0), BuildingBlock: MIFKUJ_clean_linker_0, # of connection points: 2
#     Edge 27, Type (0, 0), BuildingBlock: MIFKUJ_clean_linker_0, # of connection points: 2
#     Edge 28, Type (0, 0), BuildingBlock: MIFKUJ_clean_linker_0, # of connection points: 2
#     Edge 29, Type (0, 0), BuildingBlock: MIFKUJ_clean_linker_0, # of connection points: 2
#     Edge 30, Type (0, 0), BuildingBlock: MIFKUJ_clean_linker_0, # of connection points: 2
#     Edge 31, Type (0, 0), BuildingBlock: MIFKUJ_clean_linker_0, # of connection points: 2
#     Edge 32, Type (0, 0), BuildingBlock: MIFKUJ_clean_linker_0, # of connection points: 2
#     Edge 33, Type (0, 0), BuildingBlock: MIFKUJ_clean_linker_0, # of connection points: 2
#     Edge 34, Type (0, 0), BuildingBlock: MIFKUJ_clean_linker_0, # of connection points: 2
#     Edge 35, Type (0, 0), BuildingBlock: MIFKUJ_clean_linker_0, # of connection points: 2
#     Edge 36, Type (0, 0), BuildingBlock: MIFKUJ_clean_linker_0, # of connection points: 2
#     Edge 37, Type (0, 0), BuildingBlock: MIFKUJ_clean_linker_0, # of connection points: 2
#     Edge 38, Type (0, 0), BuildingBlock: MIFKUJ_clean_linker_0, # of connection points: 2
#     Edge 39, Type (0, 0), BuildingBlock: MIFKUJ_clean_linker_0, # of connection points: 2
#     Edge 40, Type (0, 0), BuildingBlock: MIFKUJ_clean_linker_0, # of connection points: 2
#     Edge 41, Type (0, 0), BuildingBlock: MIFKUJ_clean_linker_0, # of connection points: 2
#     Edge 42, Type (0, 0), BuildingBlock: MIFKUJ_clean_linker_0, # of connection points: 2
#     Edge 43, Type (0, 0), BuildingBlock: MIFKUJ_clean_linker_0, # of connection points: 2
#     Edge 44, Type (0, 0), BuildingBlock: MIFKUJ_clean_linker_0, # of connection points: 2
#     Edge 45, Type (0, 0), BuildingBlock: MIFKUJ_clean_linker_0, # of connection points: 2
#     Edge 46, Type (0, 0), BuildingBlock: MIFKUJ_clean_linker_0, # of connection points: 2
#     Edge 47, Type (0, 0), BuildingBlock: MIFKUJ_clean_linker_0, # of connection points: 2
#     Edge 48, Type (0, 0), BuildingBlock: MIFKUJ_clean_linker_0, # of connection points: 2
#     Edge 49, Type (0, 0), BuildingBlock: MIFKUJ_clean_linker_0, # of connection points: 2
#     Edge 50, Type (0, 0), BuildingBlock: MIFKUJ_clean_linker_0, # of connection points: 2
#     Edge 51, Type (0, 0), BuildingBlock: MIFKUJ_clean_linker_0, # of connection points: 2
#     Edge 52, Type (0, 0), BuildingBlock: MIFKUJ_clean_linker_0, # of connection points: 2
#     Edge 53, Type (0, 0), BuildingBlock: MIFKUJ_clean_linker_0, # of connection points: 2
# Relax obj value: 0.501
# Max RMSD: 0.229
# Mean RMSD: 0.224
data_MOF--net-unp--node1-UXUYUI_clean_sbu_0--edge1-MIFKUJ_clean_linker_0
_symmetry_space_group_name_H-M    P1
_symmetry_Int_Tables_number       1
_symmetry_cell_setting            triclinic
loop_
_symmetry_equiv_pos_as_xyz
'x, y, z'
_cell_length_a     75.091177
_cell_length_b     75.097761
_cell_length_c     124.2063
_cell_angle_alpha  90.229764
_cell_angle_beta   89.772744
_cell_angle_gamma 120.52049
loop_
_atom_site_label
_atom_site_type_symbol
_atom_site_fract_x
_atom_site_fract_y
_atom_site_fract_z
_atom_type_partial_charge
Li0 Li 0.18312 0.22212 0.09091 0.0
Li1 Li 0.19516 0.23356 0.10934 0.0
Li2 Li 0.17695 0.19679 0.10476 0.0
Li3 Li 0.15915 0.21661 0.10561 0.0
C4 C 0.21916 0.22291 0.09217 0.0
N5 N 0.25005 0.23213 0.07724 0.0
C6 C 0.23788 0.24167 0.09278 0.0
C7 C 0.2162 0.20881 0.08399 0.0
C8 C 0.25331 0.24603 0.08516 0.0
C9 C 0.23198 0.21378 0.07651 0.0
C10 C 0.17024 0.25305 0.09842 0.0
C11 C 0.15347 0.27032 0.1061 0.0
N12 N 0.14596 0.27073 0.09621 0.0
C13 C 0.16243 0.25371 0.08833 0.0
C14 C 0.16582 0.26149 0.10738 0.0
C15 C 0.15017 0.26271 0.08738 0.0
C16 C 0.17411 0.21492 0.06882 0.0
N17 N 0.18863 0.22792 0.07596 0.0
C18 C 0.21193 0.24682 0.06164 0.0
C19 C 0.20697 0.24413 0.07259 0.0
C20 C 0.19752 0.23313 0.05414 0.0
C21 C 0.17822 0.21734 0.05779 0.0
H22 H 0.15949 0.20243 0.0717 0.0
H23 H 0.21798 0.25461 0.07842 0.0
C24 C 0.23062 0.2472 0.1214 0.0
N25 N 0.21753 0.25332 0.11778 0.0
C26 C 0.24751 0.26036 0.12774 0.0
C27 C 0.2372 0.28601 0.12658 0.0
C28 C 0.22044 0.27229 0.1202 0.0
C29 C 0.25104 0.28009 0.13038 0.0
H30 H 0.22784 0.23198 0.11935 0.0
H31 H 0.20978 0.27675 0.11719 0.0
C32 C 0.14427 0.17638 0.09219 0.0
N33 N 0.1191 0.13451 0.08842 0.0
C34 C 0.12533 0.1652 0.09755 0.0
C35 C 0.15037 0.16627 0.08488 0.0
C36 C 0.11282 0.14405 0.09552 0.0
C37 C 0.13745 0.14509 0.08311 0.0
C38 C 0.18007 0.21435 0.12756 0.0
C39 C 0.18914 0.20367 0.13185 0.0
C40 C 0.17985 0.23001 0.13358 0.0
C41 C 0.19801 0.20895 0.14209 0.0
C42 C 0.18892 0.23486 0.14378 0.0
N43 N 0.19774 0.22433 0.14778 0.0
C44 C 0.18996 0.16732 0.10453 0.0
C45 C 0.15741 0.15604 0.11273 0.0
C46 C 0.18792 0.14798 0.10613 0.0
N47 N 0.17463 0.17082 0.10763 0.0
C48 C 0.15464 0.13644 0.11442 0.0
C49 C 0.16993 0.13211 0.111 0.0
H50 H 0.20377 0.17951 0.10078 0.0
H51 H 0.14567 0.15941 0.11532 0.0
C52 C 0.12036 0.2101 0.10007 0.0
N53 N 0.13298 0.21371 0.10862 0.0
C54 C 0.09972 0.20425 0.10169 0.0
C55 C 0.10574 0.20714 0.12089 0.0
C56 C 0.12628 0.21277 0.1189 0.0
C57 C 0.09197 0.20215 0.11223 0.0
H58 H 0.12606 0.21061 0.092 0.0
H59 H 0.13659 0.21549 0.12555 0.0
O60 O 0.20378 0.21844 0.09949 0.0
O61 O 0.18188 0.2439 0.09956 0.0
O62 O 0.1569 0.19706 0.09417 0.0
O63 O 0.1718 0.20977 0.11744 0.0
H64 H 0.24041 0.25286 0.09898 0.0
H65 H 0.20178 0.19429 0.08336 0.0
H66 H 0.26783 0.26052 0.08551 0.0
H67 H 0.22983 0.20307 0.0701 0.0
H68 H 0.1498 0.27678 0.11297 0.0
H69 H 0.16566 0.24719 0.08133 0.0
H70 H 0.17162 0.26095 0.11526 0.0
H71 H 0.14394 0.26325 0.07963 0.0
H72 H 0.22689 0.25931 0.05907 0.0
H73 H 0.16675 0.20651 0.0522 0.0
H74 H 0.25756 0.25502 0.13066 0.0
H75 H 0.23945 0.30114 0.1284 0.0
H76 H 0.12044 0.17266 0.10333 0.0
H77 H 0.16497 0.17466 0.08068 0.0
H78 H 0.09816 0.1352 0.09964 0.0
H79 H 0.14203 0.13705 0.07752 0.0
H80 H 0.18954 0.19158 0.12729 0.0
H81 H 0.17308 0.23857 0.13033 0.0
H82 H 0.20518 0.20089 0.14549 0.0
H83 H 0.18902 0.24706 0.14848 0.0
H84 H 0.20031 0.14551 0.10358 0.0
H85 H 0.14044 0.12467 0.11813 0.0
H86 H 0.0897 0.20018 0.09475 0.0
H87 H 0.10053 0.20595 0.12914 0.0
Li88 Li 0.81328 0.99089 0.10344 0.0
Li89 Li 0.78938 0.95325 0.10438 0.0
Li90 Li 0.78643 0.97263 0.08966 0.0
Li91 Li 0.77706 0.97555 0.10833 0.0
C92 C 0.82608 0.96536 0.09328 0.0
N93 N 0.85773 0.95675 0.09411 0.0
C94 C 0.83505 0.96548 0.10315 0.0
C95 C 0.83325 0.9609 0.08384 0.0
C96 C 0.85101 0.96106 0.1034 0.0
C97 C 0.84927 0.95659 0.08442 0.0
C98 C 0.79469 0.97502 0.12679 0.0
C99 C 0.77141 0.96181 0.14198 0.0
N100 N 0.78517 0.97825 0.14797 0.0
C101 C 0.80874 0.99157 0.13317 0.0
C102 C 0.77603 0.95983 0.13129 0.0
C103 C 0.8036 0.993 0.14383 0.0
C104 C 0.84298 0.02938 0.11238 0.0
N105 N 0.84045 0.01444 0.10528 0.0
C106 C 0.87616 0.03392 0.10037 0.0
C107 C 0.85646 0.01671 0.0991 0.0
C108 C 0.87947 0.04918 0.10798 0.0
C109 C 0.86248 0.0469 0.11394 0.0
H110 H 0.82979 0.02775 0.11679 0.0
H111 H 0.854 0.0054 0.09303 0.0
C112 C 0.79058 0.91751 0.09909 0.0
N113 N 0.78876 0.92809 0.10751 0.0
C114 C 0.79423 0.90132 0.10091 0.0
C115 C 0.79259 0.90625 0.12005 0.0
C116 C 0.78923 0.92253 0.11785 0.0
C117 C 0.79587 0.89585 0.11152 0.0
H118 H 0.79041 0.92244 0.09094 0.0
H119 H 0.78798 0.93132 0.1244 0.0
C120 C 0.80334 0.0156 0.09175 0.0
N121 N 0.82391 0.05087 0.07935 0.0
C122 C 0.79968 0.03191 0.09331 0.0
C123 C 0.81753 0.01726 0.08392 0.0
C124 C 0.81022 0.04961 0.08694 0.0
C125 C 0.82775 0.0352 0.07772 0.0
C126 C 0.75183 0.9302 0.09754 0.0
C127 C 0.75039 0.92092 0.08755 0.0
C128 C 0.74144 0.91781 0.10642 0.0
C129 C 0.73891 0.8994 0.08666 0.0
C130 C 0.73013 0.89634 0.1052 0.0
N131 N 0.72913 0.88765 0.09543 0.0
C132 C 0.78628 0.96257 0.06788 0.0
C133 C 0.77356 0.98522 0.07116 0.0
C134 C 0.78444 0.96401 0.0568 0.0
N135 N 0.78106 0.97325 0.07478 0.0
C136 C 0.7719 0.98749 0.06011 0.0
C137 C 0.77764 0.97701 0.05273 0.0
H138 H 0.79207 0.95306 0.07101 0.0
H139 H 0.76954 0.99357 0.07683 0.0
C140 C 0.76775 0.99909 0.12211 0.0
N141 N 0.75921 0.98067 0.11687 0.0
C142 C 0.7557 0.0035 0.12893 0.0
C143 C 0.72616 0.97007 0.12462 0.0
C144 C 0.73883 0.96628 0.11789 0.0
C145 C 0.73463 0.98883 0.13031 0.0
H146 H 0.78402 0.01025 0.12107 0.0
H147 H 0.73247 0.9518 0.11357 0.0
O148 O 0.81005 0.96911 0.09285 0.0
O149 O 0.79932 0.97355 0.11625 0.0
O150 O 0.79327 0.99829 0.09801 0.0
O151 O 0.76339 0.95125 0.09861 0.0
H152 H 0.82974 0.96887 0.11056 0.0
H153 H 0.82652 0.96074 0.07613 0.0
H154 H 0.85804 0.96105 0.11098 0.0
H155 H 0.85496 0.9531 0.07718 0.0
H156 H 0.75689 0.95029 0.1455 0.0
H157 H 0.82356 0.00309 0.12998 0.0
H158 H 0.7651 0.94679 0.12654 0.0
H159 H 0.8143 0.00581 0.14883 0.0
H160 H 0.88863 0.03538 0.09532 0.0
H161 H 0.86427 0.05835 0.11983 0.0
H162 H 0.79697 0.89408 0.09406 0.0
H163 H 0.79338 0.90239 0.12836 0.0
H164 H 0.78882 0.03089 0.09938 0.0
H165 H 0.82065 0.00484 0.08263 0.0
H166 H 0.80753 0.06235 0.08805 0.0
H167 H 0.83875 0.03668 0.07163 0.0
H168 H 0.75814 0.93019 0.08057 0.0
H169 H 0.74211 0.92464 0.11418 0.0
H170 H 0.7378 0.89203 0.07899 0.0
H171 H 0.72213 0.88659 0.11203 0.0
H172 H 0.78853 0.95517 0.05149 0.0
H173 H 0.76685 0.9979 0.05743 0.0
H174 H 0.76278 0.01829 0.13303 0.0
H175 H 0.71003 0.95829 0.12552 0.0
Li176 Li 0.99768 0.82562 0.1102 0.0
Li177 Li 0.03554 0.8469 0.11037 0.0
Li178 Li 0.01762 0.81895 0.09635 0.0
Li179 Li 0.02034 0.81111 0.11504 0.0
C180 C 0.00897 0.85331 0.09183 0.0
N181 N 0.99447 0.87142 0.07769 0.0
C182 C 0.01615 0.8745 0.09245 0.0
C183 C 0.9947 0.84145 0.08385 0.0
C184 C 0.00855 0.88333 0.08529 0.0
C185 C 0.98749 0.85085 0.07682 0.0
C186 C 0.02383 0.84601 0.13099 0.0
C187 C 0.04997 0.8657 0.14427 0.0
N188 N 0.039 0.87462 0.14753 0.0
C189 C 0.0127 0.85522 0.13455 0.0
C190 C 0.04252 0.85113 0.13595 0.0
C191 C 0.02067 0.86971 0.1429 0.0
C192 C 0.95561 0.80874 0.11656 0.0
N193 N 0.97296 0.826 0.11308 0.0
C194 C 0.95538 0.84501 0.11299 0.0
C195 C 0.97326 0.84403 0.11151 0.0
C196 C 0.93701 0.82733 0.11632 0.0
C197 C 0.93732 0.80904 0.1182 0.0
H198 H 0.95591 0.79469 0.11795 0.0
H199 H 0.98739 0.85769 0.10908 0.0
C200 C 0.07717 0.88096 0.11076 0.0
N201 N 0.05701 0.87457 0.11285 0.0
C202 C 0.09234 0.90178 0.11205 0.0
C203 C 0.0657 0.90876 0.11787 0.0
C204 C 0.05112 0.88796 0.11637 0.0
C205 C 0.08661 0.91597 0.1156 0.0
H206 H 0.08139 0.86998 0.10788 0.0
H207 H 0.03494 0.88254 0.11773 0.0
C208 C 0.97801 0.78298 0.10105 0.0
N209 N 0.94348 0.75096 0.09127 0.0
C210 C 0.97374 0.76263 0.10202 0.0
C211 C 0.96446 0.78694 0.09528 0.0
C212 C 0.95629 0.74669 0.09696 0.0
C213 C 0.94716 0.77059 0.09035 0.0
C214 C 0.05581 0.81898 0.10611 0.0
C215 C 0.05529 0.80449 0.09883 0.0
C216 C 0.06906 0.82504 0.11497 0.0
C217 C 0.06779 0.79598 0.10066 0.0
C218 C 0.0813 0.81616 0.11652 0.0
N219 N 0.0804 0.80192 0.1094 0.0
C220 C 0.02622 0.82625 0.07416 0.0
C221 C 0.00844 0.79086 0.07906 0.0
C222 C 0.02488 0.82104 0.06328 0.0
N223 N 0.01757 0.81119 0.08175 0.0
C224 C 0.00666 0.78494 0.06827 0.0
C225 C 0.01462 0.80012 0.06022 0.0
H226 H 0.03366 0.84232 0.07656 0.0
H227 H 0.00238 0.77921 0.08525 0.0
C228 C 0.0226 0.79289 0.13462 0.0
N229 N 0.02198 0.79128 0.12371 0.0
C230 C 0.02169 0.77709 0.14093 0.0
C231 C 0.02005 0.7586 0.12464 0.0
C232 C 0.02103 0.77474 0.11866 0.0
C233 C 0.01995 0.75946 0.13593 0.0
H234 H 0.02307 0.80609 0.13843 0.0
H235 H 0.02041 0.7738 0.10998 0.0
O236 O 0.01631 0.84444 0.09881 0.0
O237 O 0.0164 0.83199 0.12273 0.0
O238 O 0.99511 0.79878 0.10595 0.0
O239 O 0.0435 0.82728 0.10453 0.0
H240 H 0.02742 0.88405 0.09843 0.0
H241 H 0.9895 0.82525 0.08294 0.0
H242 H 0.01388 0.89967 0.08575 0.0
H243 H 0.97643 0.84181 0.07063 0.0
H244 H 0.06449 0.86991 0.14813 0.0
H245 H 0.99814 0.85132 0.13086 0.0
H246 H 0.05123 0.84402 0.13336 0.0
H247 H 0.01228 0.87705 0.14569 0.0
H248 H 0.9559 0.85941 0.11133 0.0
H249 H 0.92364 0.79513 0.12094 0.0
H250 H 0.10831 0.90676 0.11022 0.0
H251 H 0.06054 0.91922 0.12039 0.0
H252 H 0.98381 0.75914 0.10658 0.0
H253 H 0.96702 0.8024 0.09476 0.0
H254 H 0.95291 0.7309 0.09759 0.0
H255 H 0.93659 0.77349 0.08585 0.0
H256 H 0.04521 0.79972 0.0919 0.0
H257 H 0.06983 0.83642 0.1206 0.0
H258 H 0.06744 0.78463 0.09513 0.0
H259 H 0.09153 0.8206 0.12338 0.0
H260 H 0.03115 0.83322 0.05731 0.0
H261 H 0.99903 0.76866 0.06626 0.0
H262 H 0.02138 0.77823 0.14962 0.0
H263 H 0.01892 0.74537 0.12047 0.0
Li264 Li 0.22981 0.18972 0.88864 0.0
Li265 Li 0.21911 0.17992 0.90782 0.0
Li266 Li 0.21709 0.15587 0.89451 0.0
Li267 Li 0.19291 0.16857 0.89288 0.0
C268 C 0.25548 0.17369 0.90191 0.0
N269 N 0.28161 0.15874 0.90616 0.0
C270 C 0.25881 0.16993 0.91251 0.0
C271 C 0.26574 0.1702 0.89349 0.0
C272 C 0.27201 0.16229 0.91449 0.0
C273 C 0.27879 0.16253 0.89579 0.0
C274 C 0.20234 0.20578 0.90208 0.0
C275 C 0.17678 0.20459 0.91434 0.0
N276 N 0.18057 0.22317 0.91055 0.0
C277 C 0.20594 0.22481 0.89827 0.0
C278 C 0.1876 0.19552 0.91015 0.0
C279 C 0.19479 0.23337 0.90267 0.0
C280 C 0.24029 0.21899 0.8723 0.0
N281 N 0.24838 0.21156 0.87957 0.0
C282 C 0.28266 0.23525 0.87349 0.0
C283 C 0.2691 0.21937 0.88034 0.0
C284 C 0.27464 0.24274 0.86571 0.0
C285 C 0.25321 0.23447 0.86513 0.0
H286 H 0.22377 0.21275 0.87204 0.0
H287 H 0.27508 0.21327 0.88628 0.0
C288 C 0.22013 0.1764 0.93052 0.0
N289 N 0.22417 0.18979 0.92228 0.0
C290 C 0.22192 0.18311 0.94118 0.0
C291 C 0.23242 0.21736 0.93466 0.0
C292 C 0.23077 0.21007 0.92414 0.0
C293 C 0.2277 0.20372 0.94331 0.0
H294 H 0.21526 0.16048 0.92882 0.0
H295 H 0.23424 0.22049 0.91744 0.0
C296 C 0.21271 0.16814 0.8707 0.0
N297 N 0.22207 0.1774 0.84916 0.0
C298 C 0.19935 0.17091 0.86405 0.0
C299 C 0.23062 0.16965 0.86634 0.0
C300 C 0.2044 0.17568 0.85319 0.0
C301 C 0.23515 0.17447 0.85545 0.0
C302 C 0.18341 0.13103 0.90556 0.0
C303 C 0.17325 0.1195 0.89638 0.0
C304 C 0.18245 0.12076 0.9151 0.0
C305 C 0.16255 0.09793 0.89687 0.0
C306 C 0.17156 0.09915 0.91527 0.0
N307 N 0.16196 0.08828 0.90622 0.0
C308 C 0.22166 0.12205 0.90123 0.0
C309 C 0.21225 0.12139 0.88299 0.0
C310 C 0.21752 0.10175 0.90047 0.0
N311 N 0.21838 0.1312 0.89264 0.0
C312 C 0.20767 0.101 0.8819 0.0
C313 C 0.20952 0.09062 0.89083 0.0
H314 H 0.22598 0.12992 0.90891 0.0
H315 H 0.20925 0.12875 0.87636 0.0
C316 C 0.16542 0.17908 0.88344 0.0
N317 N 0.16631 0.16453 0.88953 0.0
C318 C 0.1464 0.17737 0.88118 0.0
C319 C 0.12956 0.14571 0.89147 0.0
C320 C 0.14891 0.14824 0.8937 0.0
C321 C 0.12819 0.1604 0.88515 0.0
H322 H 0.17955 0.19212 0.88041 0.0
H323 H 0.14997 0.13735 0.89889 0.0
O324 O 0.24259 0.18115 0.89983 0.0
O325 O 0.21286 0.19703 0.89772 0.0
O326 O 0.20818 0.16375 0.88139 0.0
O327 O 0.19462 0.1522 0.90508 0.0
H328 H 0.25121 0.17277 0.91914 0.0
H329 H 0.26366 0.17338 0.88526 0.0
H330 H 0.2746 0.15917 0.92265 0.0
H331 H 0.28672 0.15963 0.88934 0.0
H332 H 0.16534 0.19684 0.92059 0.0
H333 H 0.2172 0.23285 0.89197 0.0
H334 H 0.18449 0.18068 0.91312 0.0
H335 H 0.19741 0.2481 0.89981 0.0
H336 H 0.29916 0.24143 0.87414 0.0
H337 H 0.24659 0.24015 0.8593 0.0
H338 H 0.21809 0.17212 0.94766 0.0
H339 H 0.23713 0.23341 0.93601 0.0
H340 H 0.18524 0.16941 0.86722 0.0
H341 H 0.24095 0.16724 0.87132 0.0
H342 H 0.19426 0.17801 0.84797 0.0
H343 H 0.24906 0.17588 0.852 0.0
H344 H 0.17394 0.12715 0.8889 0.0
H345 H 0.1901 0.12929 0.9223 0.0
H346 H 0.15483 0.08886 0.8898 0.0
H347 H 0.17082 0.09103 0.92258 0.0
H348 H 0.21942 0.09449 0.90753 0.0
H349 H 0.2012 0.09305 0.87437 0.0
H350 H 0.1459 0.18904 0.87631 0.0
H351 H 0.11584 0.13265 0.89485 0.0
Li352 Li 0.81116 0.02462 0.8845 0.0
Li353 Li 0.82201 0.02518 0.90317 0.0
Li354 Li 0.84709 0.04259 0.88862 0.0
Li355 Li 0.82725 0.00462 0.8897 0.0
C356 C 0.83739 0.06959 0.89528 0.0
N357 N 0.86251 0.11188 0.89739 0.0
C358 C 0.84427 0.07841 0.90545 0.0
C359 C 0.84312 0.08225 0.88619 0.0
C360 C 0.85699 0.09984 0.90634 0.0
C361 C 0.85589 0.1036 0.88742 0.0
C362 C 0.78456 0.99038 0.90142 0.0
C363 C 0.76908 0.96803 0.91675 0.0
N364 N 0.7518 0.96934 0.91547 0.0
C365 C 0.76663 0.99146 0.90024 0.0
C366 C 0.78579 0.97851 0.90971 0.0
C367 C 0.75024 0.98071 0.90743 0.0
C368 C 0.77707 0.00426 0.87122 0.0
N369 N 0.79003 0.02309 0.87561 0.0
C370 C 0.77235 0.03775 0.86668 0.0
C371 C 0.78796 0.03972 0.87356 0.0
C372 C 0.75903 0.01854 0.86185 0.0
C373 C 0.76147 0.00165 0.86424 0.0
H374 H 0.77897 0.99129 0.87313 0.0
H375 H 0.79847 0.05449 0.87722 0.0
C376 C 0.8309 0.02782 0.92513 0.0
N377 N 0.81632 0.02597 0.91805 0.0
C378 C 0.82683 0.02592 0.93616 0.0
C379 C 0.79311 0.02116 0.93246 0.0
C380 C 0.79803 0.02359 0.9215 0.0
C381 C 0.80742 0.02179 0.93995 0.0
H382 H 0.84556 0.03033 0.92221 0.0
H383 H 0.78693 0.02277 0.91572 0.0
C384 C 0.82666 0.01917 0.86659 0.0
N385 N 0.8111 0.01201 0.8459 0.0
C386 C 0.81725 0.99926 0.86221 0.0
C387 C 0.82834 0.03548 0.86041 0.0
C388 C 0.80945 0.99595 0.85174 0.0
C389 C 0.82031 0.03152 0.84998 0.0
C390 C 0.8591 0.01624 0.90289 0.0
C391 C 0.87859 0.02363 0.89824 0.0
C392 C 0.85136 -0.00033 0.91008 0.0
C393 C 0.88995 0.01418 0.90081 0.0
C394 C 0.86317 0.99061 0.91241 0.0
N395 N 0.88206 0.99798 0.90777 0.0
C396 C 0.88633 0.07643 0.89375 0.0
C397 C 0.88131 0.06736 0.87524 0.0
C398 C 0.9072 0.09069 0.89193 0.0
N399 N 0.87398 0.06495 0.88548 0.0
C400 C 0.90211 0.08133 0.87307 0.0
C401 C 0.91544 0.09283 0.88152 0.0
H402 H 0.8802 0.07375 0.90185 0.0
H403 H 0.87124 0.05775 0.86886 0.0
C404 C 0.81125 0.9614 0.88988 0.0
N405 N 0.82793 0.97997 0.88726 0.0
C406 C 0.812 0.94329 0.88874 0.0
C407 C 0.84683 0.96371 0.88186 0.0
C408 C 0.84531 0.98137 0.88304 0.0
C409 C 0.83011 0.94433 0.88487 0.0
H410 H 0.79738 0.96063 0.89292 0.0
H411 H 0.85817 0.99631 0.88078 0.0
O412 O 0.82519 0.04864 0.89422 0.0
O413 O 0.80083 0.00089 0.89449 0.0
O414 O 0.83396 0.02263 0.87691 0.0
O415 O 0.84757 0.02504 0.90034 0.0
H416 H 0.83996 0.06881 0.91256 0.0
H417 H 0.83796 0.07563 0.87826 0.0
H418 H 0.86252 0.10689 0.91416 0.0
H419 H 0.86057 0.11359 0.88045 0.0
H420 H 0.76988 0.95889 0.92324 0.0
H421 H 0.76544 0.00065 0.89392 0.0
H422 H 0.79957 0.97755 0.91076 0.0
H423 H 0.7363 0.98147 0.90665 0.0
H424 H 0.77092 0.05111 0.86502 0.0
H425 H 0.75128 0.98651 0.86082 0.0
H426 H 0.83868 0.0273 0.94161 0.0
H427 H 0.77795 0.01801 0.93495 0.0
H428 H 0.81578 0.98645 0.86689 0.0
H429 H 0.83551 0.05096 0.8637 0.0
H430 H 0.80202 0.9806 0.84827 0.0
H431 H 0.82134 0.04396 0.84514 0.0
H432 H 0.8848 0.03636 0.89261 0.0
H433 H 0.83632 0.99379 0.91376 0.0
H434 H 0.90501 0.01966 0.89723 0.0
H435 H 0.85731 0.97769 0.91791 0.0
H436 H 0.91702 0.09899 0.89869 0.0
H437 H 0.90786 0.0826 0.86493 0.0
H438 H 0.79855 0.92867 0.89092 0.0
H439 H 0.86118 0.96535 0.87893 0.0
Li440 Li 0.99594 0.8151 0.89767 0.0
Li441 Li 0.95931 0.79514 0.89681 0.0
Li442 Li 0.9775 0.78768 0.91075 0.0
Li443 Li 0.97933 0.77996 0.8909 0.0
C444 C 0.98058 0.82748 0.91646 0.0
N445 N 0.98967 0.85726 0.93207 0.0
C446 C 0.97278 0.84083 0.91564 0.0
C447 C 0.99299 0.8293 0.92526 0.0
C448 C 0.97757 0.85579 0.9236 0.0
C449 C 0.99741 0.84444 0.93305 0.0
C450 C 0.97836 0.8188 0.87865 0.0
C451 C 0.97658 0.83316 0.86162 0.0
N452 N 0.97693 0.84923 0.8669 0.0
C453 C 0.97871 0.83547 0.8839 0.0
C454 C 0.97729 0.81763 0.86741 0.0
C455 C 0.97797 0.85069 0.87783 0.0
C456 C 0.03021 0.84507 0.88576 0.0
N457 N 0.02001 0.84196 0.89529 0.0
C458 C 0.04389 0.87659 0.90081 0.0
C459 C 0.02663 0.85725 0.90279 0.0
C460 C 0.05465 0.88026 0.89105 0.0
C461 C 0.04778 0.86418 0.8835 0.0
H462 H 0.02466 0.83268 0.87992 0.0
H463 H 0.01868 0.85462 0.91033 0.0
C464 C 0.92666 0.80097 0.90282 0.0
N465 N 0.93504 0.79644 0.89429 0.0
C466 C 0.91091 0.80535 0.90124 0.0
C467 C 0.91168 0.79884 0.88221 0.0
C468 C 0.92748 0.79463 0.88417 0.0
C469 C 0.90363 0.80493 0.89078 0.0
H470 H 0.93284 0.80203 0.9108 0.0
H471 H 0.93422 0.79066 0.87755 0.0
C472 C 0.02291 0.8037 0.9013 0.0
N473 N 0.06551 0.82669 0.89997 0.0
C474 C 0.033 0.80282 0.89202 0.0
C475 C 0.03447 0.8161 0.90995 0.0
C476 C 0.05456 0.81459 0.89149 0.0
C477 C 0.05599 0.82766 0.90911 0.0
C478 C 0.93444 0.75591 0.8991 0.0
C479 C 0.92046 0.75223 0.90744 0.0
C480 C 0.92711 0.74833 0.88878 0.0
C481 C 0.89927 0.74108 0.90529 0.0
C482 C 0.90581 0.73724 0.88696 0.0
N483 N 0.89245 0.73389 0.89518 0.0
C484 C 0.96316 0.77849 0.93213 0.0
C485 C 0.99259 0.77569 0.9282 0.0
C486 C 0.96462 0.77507 0.94305 0.0
N487 N 0.97726 0.77908 0.92504 0.0
C488 C 0.99471 0.77235 0.93904 0.0
C489 C 0.98085 0.77242 0.94664 0.0
H490 H 0.95138 0.78162 0.92938 0.0
H491 H 0.00362 0.77635 0.92236 0.0
C492 C 0.98827 0.7676 0.8712 0.0
N493 N 0.98116 0.76142 0.88137 0.0
C494 C 0.99061 0.75432 0.86422 0.0
C495 C 0.978 0.72855 0.8783 0.0
C496 C 0.97588 0.74232 0.885 0.0
C497 C 0.98562 0.73457 0.86778 0.0
H498 H 0.99252 0.78299 0.86861 0.0
H499 H 0.97025 0.73791 0.89316 0.0
O500 O 0.9757 0.81249 0.90882 0.0
O501 O 0.97883 0.80355 0.8844 0.0
O502 O 0.00179 0.79277 0.90184 0.0
O503 O 0.95523 0.76734 0.90095 0.0
H504 H 0.96313 0.83971 0.90892 0.0
H505 H -0.00053 0.81941 0.92599 0.0
H506 H 0.97164 0.86621 0.92305 0.0
H507 H 0.00705 0.84604 0.93987 0.0
H508 H 0.97572 0.83242 0.85293 0.0
H509 H 0.97956 0.83668 0.89256 0.0
H510 H 0.97692 0.80478 0.86322 0.0
H511 H 0.97822 0.86367 0.8818 0.0
H512 H 0.04891 0.88854 0.9069 0.0
H513 H 0.05567 0.86646 0.87586 0.0
H514 H 0.90534 0.81013 0.90808 0.0
H515 H 0.90627 0.79795 0.87405 0.0
H516 H 0.02428 0.79333 0.88524 0.0
H517 H 0.0269 0.81697 0.91719 0.0
H518 H 0.06258 0.81416 0.88433 0.0
H519 H 0.06513 0.83746 0.9157 0.0
H520 H 0.92592 0.75811 0.91546 0.0
H521 H 0.93777 0.7512 0.88222 0.0
H522 H 0.88825 0.7382 0.91166 0.0
H523 H 0.8999 0.73136 0.879 0.0
H524 H 0.95381 0.77554 0.94867 0.0
H525 H 0.00732 0.77019 0.94149 0.0
H526 H 0.99684 0.7597 0.85624 0.0
H527 H 0.9738 0.7134 0.88132 0.0
Li528 Li 0.85499 0.55662 0.44528 0.0
Li529 Li 0.84027 0.54505 0.4273 0.0
Li530 Li 0.81862 0.5396 0.44309 0.0
Li531 Li 0.83625 0.51972 0.4408 0.0
C532 C 0.82855 0.57604 0.4362 0.0
N533 N 0.80432 0.59399 0.43563 0.0
C534 C 0.81989 0.57724 0.42649 0.0
C535 C 0.82503 0.58408 0.44561 0.0
C536 C 0.80765 0.58636 0.42638 0.0
C537 C 0.81268 0.59305 0.44516 0.0
C538 C 0.87613 0.54505 0.42664 0.0
C539 C 0.8858 0.53439 0.41037 0.0
N540 N 0.90419 0.55252 0.41032 0.0
C541 C 0.89514 0.56355 0.42645 0.0
C542 C 0.87144 0.53031 0.41857 0.0
C543 C 0.90912 0.56703 0.41813 0.0
C544 C 0.89242 0.57062 0.45537 0.0
N545 N 0.8785 0.57646 0.45298 0.0
C546 C 0.89888 0.6087 0.46208 0.0
C547 C 0.88134 0.59508 0.45615 0.0
C548 C 0.91356 0.60304 0.46464 0.0
C549 C 0.91011 0.5837 0.46122 0.0
H550 H 0.88963 0.55564 0.45279 0.0
H551 H 0.86997 0.59928 0.45413 0.0
C552 C 0.82785 0.53743 0.40571 0.0
N553 N 0.84354 0.5505 0.41227 0.0
C554 C 0.8304 0.53901 0.39457 0.0
C555 C 0.86492 0.56808 0.39712 0.0
C556 C 0.86151 0.5662 0.40822 0.0
C557 C 0.84942 0.55402 0.39012 0.0
H558 H 0.81347 0.52548 0.40914 0.0
H559 H 0.87352 0.57675 0.41363 0.0
C560 C 0.84292 0.53758 0.46372 0.0
N561 N 0.86395 0.54802 0.48305 0.0
C562 C 0.85316 0.52738 0.46708 0.0
C563 C 0.84322 0.55296 0.47023 0.0
C564 C 0.86373 0.53291 0.47687 0.0
C565 C 0.854 0.55806 0.47996 0.0
C566 C 0.80133 0.49939 0.42942 0.0
C567 C 0.78309 0.48853 0.4354 0.0
C568 C 0.80589 0.48908 0.42146 0.0
C569 C 0.76973 0.46753 0.43333 0.0
C570 C 0.79216 0.46805 0.41966 0.0
N571 N 0.77452 0.4578 0.42558 0.0
C572 C 0.77924 0.53355 0.43958 0.0
C573 C 0.78728 0.53334 0.458 0.0
C574 C 0.75856 0.52624 0.44212 0.0
N575 N 0.79291 0.53631 0.44746 0.0
C576 C 0.76675 0.52613 0.46092 0.0
C577 C 0.75192 0.52168 0.45288 0.0
H578 H 0.78409 0.53555 0.43125 0.0
H579 H 0.79841 0.53533 0.46408 0.0
C580 C 0.85003 0.4909 0.43972 0.0
N581 N 0.83445 0.4938 0.44309 0.0
C582 C 0.84845 0.47167 0.4409 0.0
C583 C 0.8151 0.45895 0.44933 0.0
C584 C 0.81745 0.4785 0.44809 0.0
C585 C 0.83063 0.45524 0.4456 0.0
H586 H 0.86371 0.50351 0.4361 0.0
H587 H 0.80556 0.4814 0.45098 0.0
O588 O 0.84028 0.56687 0.43652 0.0
O589 O 0.86213 0.54147 0.43465 0.0
O590 O 0.83301 0.53283 0.45401 0.0
O591 O 0.8147 0.51995 0.43136 0.0
H592 H 0.82245 0.57107 0.41915 0.0
H593 H 0.83153 0.58315 0.4532 0.0
H594 H 0.80076 0.58733 0.41893 0.0
H595 H 0.8097 0.59921 0.45238 0.0
H596 H 0.88231 0.52317 0.40403 0.0
H597 H 0.89898 0.57523 0.43257 0.0
H598 H 0.85678 0.51595 0.41857 0.0
H599 H 0.92384 0.58132 0.41785 0.0
H600 H 0.90103 0.6235 0.46457 0.0
H601 H 0.92079 0.57854 0.46321 0.0
H602 H 0.8177 0.52828 0.38952 0.0
H603 H 0.87986 0.57989 0.39413 0.0
H604 H 0.85315 0.51551 0.46211 0.0
H605 H 0.83552 0.56111 0.4677 0.0
H606 H 0.87183 0.52525 0.47955 0.0
H607 H 0.85453 0.57006 0.48503 0.0
H608 H 0.77938 0.4961 0.4417 0.0
H609 H 0.8199 0.4972 0.41674 0.0
H610 H 0.75561 0.45894 0.43793 0.0
H611 H 0.79555 0.45988 0.41355 0.0
H612 H 0.74769 0.52272 0.43563 0.0
H613 H 0.76236 0.52306 0.46932 0.0
H614 H 0.86106 0.46973 0.43815 0.0
H615 H 0.80102 0.44679 0.45294 0.0
Li616 Li 0.4734 0.30961 0.44202 0.0
Li617 Li 0.45117 0.27182 0.44045 0.0
Li618 Li 0.44818 0.2946 0.42741 0.0
Li619 Li 0.43617 0.29156 0.4462 0.0
C620 C 0.49194 0.29868 0.42685 0.0
N621 N 0.53263 0.31436 0.42073 0.0
C622 C 0.5027 0.28899 0.43018 0.0
C623 C 0.50184 0.31627 0.42037 0.0
C624 C 0.52326 0.29716 0.427 0.0
C625 C 0.52243 0.32399 0.41738 0.0
C626 C 0.45497 0.29044 0.46415 0.0
C627 C 0.43391 0.27645 0.48007 0.0
N628 N 0.44719 0.29388 0.48559 0.0
C629 C 0.46847 0.30817 0.47 0.0
C630 C 0.43761 0.27438 0.46924 0.0
C631 C 0.46425 0.30962 0.48083 0.0
C632 C 0.50315 0.35154 0.44567 0.0
N633 N 0.49997 0.33205 0.44579 0.0
C634 C 0.53514 0.3448 0.45073 0.0
C635 C 0.51531 0.32837 0.44852 0.0
C636 C 0.53911 0.36522 0.45036 0.0
C637 C 0.52267 0.36842 0.44795 0.0
H638 H 0.49054 0.35402 0.44381 0.0
H639 H 0.51221 0.31267 0.44887 0.0
C640 C 0.45603 0.23918 0.433 0.0
N641 N 0.4517 0.24692 0.44188 0.0
C642 C 0.46009 0.22307 0.43397 0.0
C643 C 0.45377 0.2223 0.45311 0.0
C644 C 0.45002 0.23856 0.45178 0.0
C645 C 0.45959 0.21481 0.44419 0.0
H646 H 0.45749 0.24632 0.42525 0.0
H647 H 0.44667 0.24509 0.45871 0.0
C648 C 0.45035 0.33134 0.43235 0.0
N649 N 0.44469 0.35978 0.42113 0.0
C650 C 0.43253 0.33249 0.43401 0.0
C651 C 0.46536 0.34477 0.42506 0.0
C652 C 0.42995 0.34696 0.42825 0.0
C653 C 0.46219 0.35899 0.41943 0.0
C654 C 0.41465 0.24953 0.43265 0.0
C655 C 0.41479 0.2425 0.42224 0.0
C656 C 0.4042 0.23531 0.44088 0.0
C657 C 0.40454 0.22125 0.42024 0.0
C658 C 0.39415 0.21418 0.43855 0.0
N659 N 0.39453 0.20765 0.42837 0.0
C660 C 0.45454 0.29465 0.40512 0.0
C661 C 0.43022 0.30459 0.40992 0.0
C662 C 0.45306 0.29853 0.39429 0.0
N663 N 0.44357 0.29817 0.4127 0.0
C664 C 0.4286 0.30911 0.3992 0.0
C665 C 0.4403 0.30627 0.39127 0.0
H666 H 0.46469 0.2891 0.40752 0.0
H667 H 0.42112 0.30658 0.41604 0.0
C668 C 0.42362 0.30894 0.46229 0.0
N669 N 0.41647 0.29298 0.45518 0.0
C670 C 0.41 0.31073 0.46923 0.0
C671 C 0.38168 0.28034 0.46095 0.0
C672 C 0.39596 0.27883 0.45433 0.0
C673 C 0.3888 0.29634 0.46856 0.0
H674 H 0.43994 0.32027 0.46256 0.0
H675 H 0.39071 0.2665 0.44846 0.0
O676 O 0.47182 0.29098 0.42992 0.0
O677 O 0.45873 0.28884 0.45351 0.0
O678 O 0.4531 0.31721 0.43788 0.0
O679 O 0.42506 0.27025 0.43483 0.0
H680 H 0.49536 0.27547 0.43527 0.0
H681 H 0.49372 0.3239 0.41768 0.0
H682 H 0.5318 0.28987 0.42955 0.0
H683 H 0.53031 0.33764 0.41239 0.0
H684 H 0.42044 0.26423 0.48408 0.0
H685 H 0.48199 0.32073 0.4662 0.0
H686 H 0.4269 0.26063 0.46481 0.0
H687 H 0.47451 0.32329 0.48543 0.0
H688 H 0.54729 0.3415 0.45247 0.0
H689 H 0.5248 0.3838 0.44785 0.0
H690 H 0.46484 0.21809 0.42688 0.0
H691 H 0.45294 0.21624 0.46111 0.0
H692 H 0.42075 0.32222 0.43963 0.0
H693 H 0.47927 0.34415 0.42371 0.0
H694 H 0.41621 0.34797 0.42942 0.0
H695 H 0.47362 0.3694 0.41372 0.0
H696 H 0.4229 0.25333 0.41579 0.0
H697 H 0.40405 0.24053 0.44899 0.0
H698 H 0.40459 0.21556 0.41223 0.0
H699 H 0.38609 0.20298 0.44485 0.0
H700 H 0.46229 0.29614 0.38837 0.0
H701 H 0.41839 0.3148 0.39712 0.0
H702 H 0.41588 0.32345 0.47491 0.0
H703 H 0.36535 0.26912 0.46021 0.0
Li704 Li 0.66746 0.14889 0.43617 0.0
Li705 Li 0.70509 0.17098 0.437 0.0
Li706 Li 0.68856 0.14443 0.42291 0.0
Li707 Li 0.6898 0.13526 0.44154 0.0
C708 C 0.68849 0.1773 0.41551 0.0
N709 N 0.69402 0.19293 0.39488 0.0
C710 C 0.70745 0.19432 0.41247 0.0
C711 C 0.67232 0.16829 0.40807 0.0
C712 C 0.70993 0.202 0.402 0.0
C713 C 0.67544 0.17639 0.39767 0.0
C714 C 0.69206 0.17029 0.45693 0.0
C715 C 0.71702 0.19077 0.47055 0.0
N716 N 0.70656 0.20086 0.47249 0.0
C717 C 0.68147 0.18074 0.45911 0.0
C718 C 0.70989 0.17521 0.46274 0.0
C719 C 0.68908 0.19619 0.46699 0.0
C720 C 0.62855 0.13745 0.44628 0.0
N721 N 0.64244 0.14903 0.43851 0.0
C722 C 0.62208 0.16384 0.43354 0.0
C723 C 0.63955 0.1621 0.43222 0.0
C724 C 0.60744 0.15212 0.44147 0.0
C725 C 0.6107 0.13861 0.44784 0.0
H726 H 0.63145 0.12749 0.45132 0.0
H727 H 0.65098 0.17146 0.42627 0.0
C728 C 0.74618 0.20537 0.44074 0.0
N729 N 0.72566 0.19869 0.44005 0.0
C730 C 0.76036 0.22623 0.44284 0.0
C731 C 0.73187 0.23261 0.44361 0.0
C732 C 0.71838 0.21184 0.44132 0.0
C733 C 0.75315 0.24005 0.44437 0.0
H734 H 0.75153 0.19457 0.43957 0.0
H735 H 0.70202 0.20612 0.4405 0.0
C736 C 0.64535 0.10901 0.43279 0.0
N737 N 0.60351 0.08204 0.4357 0.0
C738 C 0.63831 0.09562 0.4416 0.0
C739 C 0.63111 0.10863 0.42543 0.0
C740 C 0.61709 0.08209 0.44293 0.0
C741 C 0.61002 0.09492 0.42706 0.0
C742 C 0.72573 0.14338 0.43306 0.0
C743 C 0.72615 0.12997 0.42536 0.0
C744 C 0.73756 0.14787 0.44241 0.0
C745 C 0.73824 0.12102 0.42724 0.0
C746 C 0.74942 0.13858 0.44399 0.0
N747 N 0.7495 0.12545 0.43644 0.0
C748 C 0.70447 0.15002 0.40147 0.0
C749 C 0.67218 0.11964 0.40463 0.0
C750 C 0.70273 0.14594 0.39041 0.0
N751 N 0.68894 0.13726 0.40824 0.0
C752 C 0.66984 0.11493 0.39368 0.0
C753 C 0.68492 0.12848 0.38638 0.0
H754 H 0.71774 0.16382 0.40459 0.0
H755 H 0.6603 0.10953 0.41021 0.0
C756 C 0.68912 0.11598 0.46118 0.0
N757 N 0.69084 0.11523 0.45032 0.0
C758 C 0.68687 0.09969 0.46756 0.0
C759 C 0.68915 0.08268 0.45149 0.0
C760 C 0.69101 0.09912 0.44541 0.0
C761 C 0.68646 0.08252 0.4627 0.0
H762 H 0.68852 0.12875 0.46483 0.0
H763 H 0.69182 0.09867 0.43673 0.0
O764 O 0.68584 0.16935 0.42567 0.0
O765 O 0.68511 0.15543 0.4491 0.0
O766 O 0.66605 0.12253 0.43139 0.0
O767 O 0.71388 0.15216 0.4314 0.0
H768 H 0.72018 0.20142 0.41809 0.0
H769 H 0.6576 0.155 0.41026 0.0
H770 H 0.72454 0.21512 0.39953 0.0
H771 H 0.66312 0.16946 0.39181 0.0
H772 H 0.73089 0.19484 0.47505 0.0
H773 H 0.66765 0.17714 0.45468 0.0
H774 H 0.71824 0.16722 0.46117 0.0
H775 H 0.68112 0.20451 0.46872 0.0
H776 H 0.62008 0.17429 0.42838 0.0
H777 H 0.59986 0.12948 0.45412 0.0
H778 H 0.7767 0.2315 0.44331 0.0
H779 H 0.72578 0.24288 0.44451 0.0
H780 H 0.64905 0.09571 0.4474 0.0
H781 H 0.63627 0.11903 0.41862 0.0
H782 H 0.61143 0.07168 0.44973 0.0
H783 H 0.59883 0.09456 0.42147 0.0
H784 H 0.71712 0.12639 0.41807 0.0
H785 H 0.73746 0.15829 0.44841 0.0
H786 H 0.73863 0.11051 0.42139 0.0
H787 H 0.75854 0.1418 0.45122 0.0
H788 H 0.7147 0.15682 0.38504 0.0
H789 H 0.65612 0.10105 0.39094 0.0
H790 H 0.68444 0.10013 0.47613 0.0
H791 H 0.6892 0.06997 0.44738 0.0
Li792 Li 0.88713 0.5258 0.22311 0.0
Li793 Li 0.87689 0.5147 0.24205 0.0
Li794 Li 0.87332 0.49143 0.22791 0.0
Li795 Li 0.85031 0.5058 0.22742 0.0
C796 C 0.91155 0.50664 0.23469 0.0
N797 N 0.93558 0.4887 0.23709 0.0
C798 C 0.91573 0.50215 0.24496 0.0
C799 C 0.91991 0.50236 0.22566 0.0
C800 C 0.92784 0.493 0.246 0.0
C801 C 0.93192 0.49318 0.22703 0.0
C802 C 0.8617 0.54213 0.23841 0.0
C803 C 0.83682 0.53974 0.25153 0.0
N804 N 0.84213 0.55956 0.24931 0.0
C805 C 0.86687 0.56244 0.23623 0.0
C806 C 0.84651 0.53063 0.24609 0.0
C807 C 0.85682 0.57099 0.24184 0.0
C808 C 0.89844 0.55896 0.20928 0.0
N809 N 0.90595 0.54826 0.21446 0.0
C810 C 0.93952 0.56997 0.20693 0.0
C811 C 0.92605 0.55343 0.21348 0.0
C812 C 0.93207 0.58106 0.20133 0.0
C813 C 0.91126 0.57541 0.20257 0.0
H814 H 0.88243 0.55461 0.21035 0.0
H815 H 0.93161 0.54473 0.21777 0.0
C816 C 0.87876 0.5075 0.26414 0.0
N817 N 0.8824 0.52235 0.25682 0.0
C818 C 0.87999 0.51183 0.27514 0.0
C819 C 0.88962 0.54696 0.27085 0.0
C820 C 0.88853 0.54202 0.25993 0.0
C821 C 0.88479 0.53162 0.27863 0.0
H822 H 0.87462 0.4922 0.26143 0.0
H823 H 0.89182 0.55371 0.25395 0.0
C824 C 0.86936 0.50771 0.20489 0.0
N825 N 0.87933 0.5219 0.18397 0.0
C826 C 0.85737 0.51404 0.19934 0.0
C827 C 0.88617 0.50821 0.19971 0.0
C828 C 0.86272 0.52125 0.18879 0.0
C829 C 0.89104 0.51555 0.18917 0.0
C830 C 0.83916 0.46689 0.23934 0.0
C831 C 0.82944 0.45565 0.23003 0.0
C832 C 0.83633 0.45641 0.24905 0.0
C833 C 0.81739 0.43412 0.23054 0.0
C834 C 0.82414 0.43486 0.24923 0.0
N835 N 0.81504 0.42425 0.24005 0.0
C836 C 0.87496 0.45595 0.23399 0.0
C837 C 0.86783 0.45731 0.21553 0.0
C838 C 0.86974 0.43536 0.23293 0.0
N839 N 0.87324 0.46621 0.22543 0.0
C840 C 0.86242 0.43671 0.21411 0.0
C841 C 0.86253 0.42523 0.22299 0.0
H842 H 0.87884 0.46323 0.24183 0.0
H843 H 0.86615 0.46565 0.20892 0.0
C844 C 0.82352 0.51936 0.22022 0.0
N845 N 0.82394 0.50311 0.22477 0.0
C846 C 0.80474 0.51862 0.21867 0.0
C847 C 0.78712 0.4844 0.22642 0.0
C848 C 0.80623 0.48594 0.228 0.0
C849 C 0.78624 0.50089 0.22173 0.0
H850 H 0.83784 0.53299 0.21789 0.0
H851 H 0.80684 0.47356 0.23198 0.0
O852 O 0.89961 0.5155 0.23351 0.0
O853 O 0.87122 0.53348 0.23287 0.0
O854 O 0.86463 0.50102 0.21531 0.0
O855 O 0.85166 0.48797 0.23888 0.0
H856 H 0.90968 0.50565 0.25204 0.0
H857 H 0.91708 0.50596 0.21767 0.0
H858 H 0.93108 0.48932 0.2539 0.0
H859 H 0.93834 0.48962 0.2201 0.0
H860 H 0.82505 0.53104 0.2575 0.0
H861 H 0.87852 0.57148 0.23025 0.0
H862 H 0.84221 0.51484 0.24784 0.0
H863 H 0.86067 0.5867 0.24024 0.0
H864 H 0.95548 0.57389 0.20616 0.0
H865 H 0.90503 0.5838 0.19852 0.0
H866 H 0.8768 0.49966 0.28082 0.0
H867 H 0.89331 0.56241 0.2731 0.0
H868 H 0.84413 0.51346 0.20313 0.0
H869 H 0.89543 0.5031 0.20382 0.0
H870 H 0.85366 0.52634 0.18443 0.0
H871 H 0.90413 0.51619 0.18511 0.0
H872 H 0.83142 0.46348 0.22243 0.0
H873 H 0.84342 0.46475 0.25638 0.0
H874 H 0.80999 0.42525 0.22336 0.0
H875 H 0.82193 0.42656 0.25668 0.0
H876 H 0.87025 0.42714 0.23995 0.0
H877 H 0.85669 0.42947 0.20634 0.0
H878 H 0.80464 0.53167 0.21504 0.0
H879 H 0.77318 0.47064 0.22907 0.0
Li880 Li 0.47289 0.36701 0.22467 0.0
Li881 Li 0.48528 0.36853 0.24334 0.0
Li882 Li 0.50788 0.3868 0.22867 0.0
Li883 Li 0.49154 0.34898 0.22867 0.0
C884 C 0.49578 0.41175 0.23588 0.0
N885 N 0.51715 0.45425 0.23821 0.0
C886 C 0.50231 0.42068 0.24606 0.0
C887 C 0.49985 0.42444 0.22691 0.0
C888 C 0.51315 0.44219 0.24707 0.0
C889 C 0.51076 0.44589 0.22824 0.0
C890 C 0.45573 0.3257 0.2404 0.0
C891 C 0.45759 0.30331 0.25364 0.0
N892 N 0.43738 0.28909 0.25179 0.0
C893 C 0.43501 0.31086 0.2386 0.0
C894 C 0.46716 0.3219 0.24795 0.0
C895 C 0.42601 0.29245 0.24445 0.0
C896 C 0.43854 0.3453 0.21143 0.0
N897 N 0.45034 0.36385 0.21636 0.0
C898 C 0.43074 0.37725 0.2083 0.0
C899 C 0.44666 0.37966 0.21506 0.0
C900 C 0.41873 0.35845 0.20282 0.0
C901 C 0.42266 0.34229 0.20453 0.0
H902 H 0.4418 0.33299 0.2127 0.0
H903 H 0.45627 0.39422 0.21912 0.0
C904 C 0.49323 0.37698 0.26569 0.0
N905 N 0.47817 0.36719 0.25818 0.0
C906 C 0.48828 0.3744 0.27664 0.0
C907 C 0.45235 0.35209 0.27192 0.0
C908 C 0.45795 0.35541 0.26107 0.0
C909 C 0.46767 0.36142 0.27984 0.0
H910 H 0.5091 0.3866 0.26318 0.0
H911 H 0.44621 0.34814 0.25494 0.0
C912 C 0.48888 0.36538 0.20611 0.0
N913 N 0.4732 0.36064 0.18552 0.0
C914 C 0.48171 0.34672 0.20059 0.0
C915 C 0.48845 0.38177 0.20107 0.0
C916 C 0.47376 0.3446 0.19021 0.0
C917 C 0.48035 0.37903 0.19069 0.0
C918 C 0.53203 0.37662 0.23949 0.0
C919 C 0.54188 0.37673 0.22988 0.0
C920 C 0.54382 0.38515 0.24879 0.0
C921 C 0.56336 0.38567 0.2297 0.0
C922 C 0.56527 0.39392 0.24828 0.0
N923 N 0.57451 0.39405 0.23882 0.0
C924 C 0.54588 0.42378 0.23333 0.0
C925 C 0.54063 0.41362 0.21498 0.0
C926 C 0.56659 0.43834 0.2313 0.0
N927 N 0.53361 0.41128 0.22528 0.0
C928 C 0.56119 0.42802 0.21258 0.0
C929 C 0.57467 0.43999 0.22089 0.0
H930 H 0.54007 0.42131 0.24149 0.0
H931 H 0.53072 0.40332 0.20876 0.0
C932 C 0.47556 0.30784 0.2215 0.0
N933 N 0.49244 0.32434 0.22596 0.0
C934 C 0.47537 0.28939 0.21959 0.0
C935 C 0.50986 0.30518 0.22694 0.0
C936 C 0.50924 0.32316 0.22888 0.0
C937 C 0.49281 0.28806 0.22221 0.0
H938 H 0.46223 0.30904 0.21942 0.0
H939 H 0.52212 0.33602 0.23282 0.0
O940 O 0.48528 0.39071 0.23474 0.0
O941 O 0.46481 0.34369 0.23463 0.0
O942 O 0.49627 0.36759 0.21639 0.0
O943 O 0.51105 0.3686 0.23969 0.0
H944 H 0.49912 0.41112 0.25311 0.0
H945 H 0.49479 0.41783 0.21899 0.0
H946 H 0.5184 0.4493 0.2549 0.0
H947 H 0.51416 0.45589 0.22135 0.0
H948 H 0.46623 0.30016 0.25952 0.0
H949 H 0.42601 0.31355 0.23274 0.0
H950 H 0.48325 0.33317 0.2494 0.0
H951 H 0.40998 0.28082 0.24316 0.0
H952 H 0.42821 0.39008 0.20714 0.0
H953 H 0.41354 0.32747 0.20057 0.0
H954 H 0.50052 0.38184 0.28254 0.0
H955 H 0.43625 0.34218 0.2741 0.0
H956 H 0.48223 0.33399 0.20427 0.0
H957 H 0.4941 0.39637 0.20517 0.0
H958 H 0.46803 0.33018 0.18587 0.0
H959 H 0.47972 0.39152 0.18675 0.0
H960 H 0.53304 0.37024 0.22259 0.0
H961 H 0.53657 0.38508 0.25632 0.0
H962 H 0.57116 0.38607 0.22229 0.0
H963 H 0.57457 0.40068 0.25541 0.0
H964 H 0.57647 0.44703 0.23797 0.0
H965 H 0.56674 0.42898 0.20443 0.0
H966 H 0.46191 0.27643 0.21595 0.0
H967 H 0.52342 0.30455 0.22928 0.0
Li968 Li 0.6083 0.12904 0.22372 0.0
Li969 Li 0.64599 0.15205 0.22421 0.0
Li970 Li 0.62934 0.11548 0.21994 0.0
Li971 Li 0.62678 0.1257 0.2385 0.0
C972 C 0.62894 0.13112 0.20148 0.0
N973 N 0.63076 0.11706 0.18114 0.0
C974 C 0.64691 0.14176 0.19529 0.0
C975 C 0.61176 0.11355 0.19723 0.0
C976 C 0.64757 0.13435 0.18505 0.0
C977 C 0.61302 0.10662 0.18696 0.0
C978 C 0.61688 0.16298 0.2345 0.0
C979 C 0.59578 0.17559 0.2422 0.0
N980 N 0.59815 0.18649 0.23306 0.0
C981 C 0.61916 0.1744 0.22519 0.0
C982 C 0.6051 0.1636 0.24309 0.0
C983 C 0.60956 0.18616 0.22462 0.0
C984 C 0.56995 0.12704 0.22799 0.0
N985 N 0.58354 0.12918 0.22012 0.0
C986 C 0.56709 0.14036 0.20766 0.0
C987 C 0.58197 0.13507 0.21 0.0
C988 C 0.55391 0.1399 0.21585 0.0
C989 C 0.55493 0.13234 0.22602 0.0
H990 H 0.57183 0.12288 0.23604 0.0
H991 H 0.59316 0.13707 0.20393 0.0
C992 C 0.68588 0.17915 0.21611 0.0
N993 N 0.67017 0.17831 0.222 0.0
C994 C 0.70428 0.19793 0.21468 0.0
C995 C 0.69023 0.2145 0.2257 0.0
C996 C 0.67214 0.19542 0.22692 0.0
C997 C 0.70659 0.21597 0.21947 0.0
H998 H 0.68421 0.16514 0.21266 0.0
H999 H 0.65987 0.19423 0.23198 0.0
C1000 C 0.58446 0.09152 0.23174 0.0
N1001 N 0.5425 0.06856 0.23583 0.0
C1002 C 0.57701 0.08998 0.24223 0.0
C1003 C 0.57059 0.08114 0.22335 0.0
C1004 C 0.55573 0.07835 0.24413 0.0
C1005 C 0.54943 0.06969 0.22558 0.0
C1006 C 0.66934 0.14062 0.23645 0.0
C1007 C 0.68413 0.13465 0.23557 0.0
C1008 C 0.67231 0.15603 0.24381 0.0
C1009 C 0.7017 0.1442 0.24209 0.0
C1010 C 0.69007 0.1652 0.25018 0.0
N1011 N 0.70427 0.15915 0.2492 0.0
C1012 C 0.65376 0.10454 0.20824 0.0
C1013 C 0.61889 0.0773 0.20957 0.0
C1014 C 0.65884 0.09217 0.20212 0.0
N1015 N 0.6341 0.09696 0.2118 0.0
C1016 C 0.62327 0.06436 0.20341 0.0
C1017 C 0.64351 0.07178 0.19965 0.0
H1018 H 0.66546 0.1203 0.21011 0.0
H1019 H 0.60339 0.07173 0.21254 0.0
C1020 C 0.62512 0.13043 0.26112 0.0
N1021 N 0.62888 0.12026 0.25318 0.0
C1022 C 0.6289 0.12799 0.27184 0.0
C1023 C 0.64041 0.1047 0.26601 0.0
C1024 C 0.63612 0.10737 0.25541 0.0
C1025 C 0.63696 0.11525 0.27437 0.0
H1026 H 0.61978 0.14088 0.25909 0.0
H1027 H 0.63918 0.09968 0.2489 0.0
O1028 O 0.62815 0.1378 0.21165 0.0
O1029 O 0.62551 0.15071 0.23499 0.0
O1030 O 0.60524 0.10285 0.22973 0.0
O1031 O 0.65207 0.13136 0.23012 0.0
H1032 H 0.66022 0.15557 0.19834 0.0
H1033 H 0.59768 0.10523 0.20188 0.0
H1034 H 0.66143 0.14236 0.1802 0.0
H1035 H 0.5999 0.09292 0.18363 0.0
H1036 H 0.5865 0.17608 0.24876 0.0
H1037 H 0.62798 0.17391 0.2184 0.0
H1038 H 0.6028 0.15464 0.25028 0.0
H1039 H 0.61107 0.19491 0.21743 0.0
H1040 H 0.56668 0.14584 0.19966 0.0
H1041 H 0.54536 0.13204 0.23264 0.0
H1042 H 0.71651 0.19834 0.20985 0.0
H1043 H 0.69156 0.22788 0.2298 0.0
H1044 H 0.5875 0.09781 0.24883 0.0
H1045 H 0.57608 0.08197 0.21521 0.0
H1046 H 0.54974 0.07713 0.2522 0.0
H1047 H 0.53852 0.0617 0.21916 0.0
H1048 H 0.68205 0.12274 0.22991 0.0
H1049 H 0.66104 0.16087 0.2446 0.0
H1050 H 0.71327 0.13973 0.24149 0.0
H1051 H 0.69256 0.17714 0.25591 0.0
H1052 H 0.67454 0.09861 0.19922 0.0
H1053 H 0.61106 0.04869 0.20174 0.0
H1054 H 0.6263 0.1366 0.27805 0.0
H1055 H 0.64652 0.09467 0.26766 0.0
Li1056 Li 0.51028 0.87928 0.7573 0.0
Li1057 Li 0.52239 0.88775 0.77603 0.0
Li1058 Li 0.50137 0.85159 0.77099 0.0
Li1059 Li 0.48784 0.87527 0.7721 0.0
C1060 C 0.53683 0.8633 0.75891 0.0
N1061 N 0.55293 0.84536 0.74558 0.0
C1062 C 0.55759 0.86893 0.75977 0.0
C1063 C 0.52424 0.84852 0.75128 0.0
C1064 C 0.56544 0.85968 0.75296 0.0
C1065 C 0.53267 0.83965 0.74462 0.0
C1066 C 0.50401 0.91403 0.7647 0.0
C1067 C 0.49234 0.93677 0.7711 0.0
N1068 N 0.48826 0.9396 0.76079 0.0
C1069 C 0.49987 0.91731 0.75415 0.0
C1070 C 0.50039 0.92398 0.77324 0.0
C1071 C 0.49186 0.93025 0.75235 0.0
C1072 C 0.50523 0.87513 0.73463 0.0
N1073 N 0.51867 0.88557 0.74273 0.0
C1074 C 0.54672 0.90214 0.73028 0.0
C1075 C 0.53902 0.89908 0.74077 0.0
C1076 C 0.53324 0.89136 0.72176 0.0
C1077 C 0.51219 0.87798 0.72399 0.0
H1078 H 0.48931 0.864 0.73645 0.0
H1079 H 0.54938 0.90687 0.74743 0.0
C1080 C 0.55772 0.89833 0.78801 0.0
N1081 N 0.54564 0.90572 0.78446 0.0
C1082 C 0.57532 0.91089 0.79409 0.0
C1083 C 0.56768 0.93846 0.79274 0.0
C1084 C 0.55019 0.92532 0.78668 0.0
C1085 C 0.58058 0.93131 0.79646 0.0
H1086 H 0.55363 0.88263 0.78611 0.0
H1087 H 0.54033 0.93079 0.78368 0.0
C1088 C 0.46197 0.84386 0.76008 0.0
N1089 N 0.41924 0.82342 0.76009 0.0
C1090 C 0.4507 0.83022 0.76842 0.0
C1091 C 0.45146 0.84713 0.75177 0.0
C1092 C 0.42912 0.82004 0.76827 0.0
C1093 C 0.42986 0.83662 0.75191 0.0
C1094 C 0.50492 0.87143 0.79414 0.0
C1095 C 0.51297 0.86137 0.80008 0.0
C1096 C 0.50425 0.88813 0.79869 0.0
C1097 C 0.52058 0.86846 0.81043 0.0
C1098 C 0.51203 0.89476 0.80905 0.0
N1099 N 0.51999 0.88489 0.81465 0.0
C1100 C 0.51175 0.82233 0.77825 0.0
C1101 C 0.48233 0.80865 0.76696 0.0
C1102 C 0.51019 0.803 0.77887 0.0
N1103 N 0.49778 0.82471 0.77245 0.0
C1104 C 0.48011 0.78908 0.7674 0.0
C1105 C 0.4942 0.78604 0.77337 0.0
H1106 H 0.52442 0.83556 0.78217 0.0
H1107 H 0.47193 0.81106 0.76203 0.0
C1108 C 0.4533 0.88108 0.76871 0.0
N1109 N 0.46304 0.87533 0.77592 0.0
C1110 C 0.43294 0.87615 0.77052 0.0
C1111 C 0.43332 0.86041 0.78737 0.0
C1112 C 0.45372 0.86582 0.78529 0.0
C1113 C 0.42238 0.86485 0.77973 0.0
H1114 H 0.46066 0.88799 0.76116 0.0
H1115 H 0.46151 0.86088 0.79076 0.0
O1116 O 0.529 0.87232 0.76551 0.0
O1117 O 0.51202 0.90156 0.7666 0.0
O1118 O 0.48316 0.85446 0.7603 0.0
O1119 O 0.49791 0.86512 0.78388 0.0
H1120 H 0.56754 0.88035 0.76563 0.0
H1121 H 0.50814 0.84396 0.75049 0.0
H1122 H 0.58149 0.8639 0.75352 0.0
H1123 H 0.52311 0.82822 0.73867 0.0
H1124 H 0.48934 0.94445 0.77764 0.0
H1125 H 0.50267 0.90986 0.74744 0.0
H1126 H 0.50367 0.92178 0.78143 0.0
H1127 H 0.48848 0.93283 0.74424 0.0
H1128 H 0.56305 0.91258 0.72884 0.0
H1129 H 0.50142 0.86913 0.71764 0.0
H1130 H 0.58464 0.90464 0.79695 0.0
H1131 H 0.57129 0.95414 0.7943 0.0
H1132 H 0.45857 0.82783 0.77505 0.0
H1133 H 0.45983 0.85799 0.7454 0.0
H1134 H 0.42025 0.80957 0.77471 0.0
H1135 H 0.42154 0.83911 0.74556 0.0
H1136 H 0.51342 0.8483 0.79674 0.0
H1137 H 0.49795 0.89598 0.79422 0.0
H1138 H 0.52698 0.8609 0.81509 0.0
H1139 H 0.51176 0.90778 0.81263 0.0
H1140 H 0.52165 0.80148 0.78338 0.0
H1141 H 0.46745 0.77648 0.76308 0.0
H1142 H 0.42518 0.88003 0.76444 0.0
H1143 H 0.42576 0.85138 0.79448 0.0
Li1144 Li 0.1481 0.64714 0.772 0.0
Li1145 Li 0.1284 0.61058 0.77303 0.0
Li1146 Li 0.12086 0.62832 0.75881 0.0
Li1147 Li 0.11282 0.6304 0.77865 0.0
C1148 C 0.16141 0.63153 0.75375 0.0
N1149 N 0.1923 0.64006 0.73892 0.0
C1150 C 0.17509 0.62433 0.75541 0.0
C1151 C 0.1634 0.64297 0.7445 0.0
C1152 C 0.19062 0.62884 0.74784 0.0
C1153 C 0.17913 0.64715 0.73712 0.0
C1154 C 0.15134 0.63001 0.79145 0.0
C1155 C 0.16447 0.62811 0.80884 0.0
N1156 N 0.18109 0.62888 0.80396 0.0
C1157 C 0.16858 0.63083 0.78662 0.0
C1158 C 0.14926 0.62868 0.80265 0.0
C1159 C 0.18344 0.63022 0.79308 0.0
C1160 C 0.17828 0.681 0.78407 0.0
N1161 N 0.17477 0.67144 0.77432 0.0
C1162 C 0.20879 0.69637 0.76841 0.0
C1163 C 0.1895 0.67896 0.7665 0.0
C1164 C 0.21295 0.70635 0.77843 0.0
C1165 C 0.19734 0.69864 0.78629 0.0
H1166 H 0.16624 0.67489 0.79012 0.0
H1167 H 0.18639 0.67166 0.75874 0.0
C1168 C 0.13512 0.57839 0.76735 0.0
N1169 N 0.13025 0.58668 0.7758 0.0
C1170 C 0.14068 0.56353 0.76911 0.0
C1171 C 0.13456 0.56486 0.78814 0.0
C1172 C 0.12907 0.57969 0.78601 0.0
C1173 C 0.14115 0.55712 0.77966 0.0
H1174 H 0.13573 0.58414 0.75931 0.0
H1175 H 0.12479 0.58631 0.79255 0.0
C1176 C 0.13687 0.67379 0.76761 0.0
N1177 N 0.16045 0.71643 0.76789 0.0
C1178 C 0.13688 0.68481 0.77671 0.0
C1179 C 0.14871 0.68445 0.75863 0.0
C1180 C 0.14893 0.70637 0.7767 0.0
C1181 C 0.16057 0.70601 0.75894 0.0
C1182 C 0.0895 0.58525 0.77033 0.0
C1183 C 0.0865 0.57167 0.76188 0.0
C1184 C 0.08174 0.57747 0.78057 0.0
C1185 C 0.07582 0.55041 0.76385 0.0
C1186 C 0.07114 0.55611 0.7822 0.0
N1187 N 0.06843 0.54314 0.77388 0.0
C1188 C 0.11254 0.61489 0.73707 0.0
C1189 C 0.1083 0.64322 0.74165 0.0
C1190 C 0.10931 0.617 0.7262 0.0
N1191 N 0.11241 0.62821 0.74447 0.0
C1192 C 0.10515 0.64599 0.73088 0.0
C1193 C 0.10609 0.63307 0.72298 0.0
H1194 H 0.11613 0.60328 0.73956 0.0
H1195 H 0.10825 0.65355 0.74772 0.0
C1196 C 0.10118 0.64205 0.79768 0.0
N1197 N 0.09427 0.6326 0.78799 0.0
C1198 C 0.08821 0.64546 0.80434 0.0
C1199 C 0.06112 0.62881 0.79105 0.0
C1200 C 0.07464 0.62575 0.78463 0.0
C1201 C 0.06797 0.63908 0.80098 0.0
H1202 H 0.11697 0.64749 0.80005 0.0
H1203 H 0.06967 0.6183 0.77686 0.0
O1204 O 0.14578 0.62683 0.76097 0.0
O1205 O 0.13641 0.63031 0.7853 0.0
O1206 O 0.1257 0.65266 0.7676 0.0
O1207 O 0.10047 0.60611 0.76867 0.0
H1208 H 0.17376 0.6153 0.76245 0.0
H1209 H 0.15319 0.6489 0.7431 0.0
H1210 H 0.2013 0.62338 0.74903 0.0
H1211 H 0.1809 0.65608 0.72996 0.0
H1212 H 0.16303 0.62704 0.81751 0.0
H1213 H 0.17048 0.63198 0.778 0.0
H1214 H 0.13597 0.62798 0.80651 0.0
H1215 H 0.19685 0.63082 0.78943 0.0
H1216 H 0.22028 0.7021 0.76205 0.0
H1217 H 0.19998 0.70593 0.79413 0.0
H1218 H 0.14581 0.55815 0.76233 0.0
H1219 H 0.13442 0.5601 0.79638 0.0
H1220 H 0.12786 0.67679 0.78374 0.0
H1221 H 0.14896 0.67616 0.75154 0.0
H1222 H 0.1492 0.7151 0.78371 0.0
H1223 H 0.16994 0.71446 0.75207 0.0
H1224 H 0.09254 0.5775 0.75393 0.0
H1225 H 0.08409 0.58783 0.7872 0.0
H1226 H 0.07346 0.5397 0.7574 0.0
H1227 H 0.06512 0.54985 0.79009 0.0
H1228 H 0.11034 0.60687 0.72032 0.0
H1229 H 0.10249 0.65841 0.72872 0.0
H1230 H 0.09424 0.65372 0.81185 0.0
H1231 H 0.04558 0.62344 0.7882 0.0
Li1232 Li 0.3471 0.48679 0.77276 0.0
Li1233 Li 0.38525 0.50485 0.7715 0.0
Li1234 Li 0.36345 0.47857 0.75803 0.0
Li1235 Li 0.36647 0.46934 0.77672 0.0
C1236 C 0.3577 0.51751 0.75867 0.0
N1237 N 0.34122 0.54219 0.75411 0.0
C1238 C 0.36722 0.53778 0.76258 0.0
C1239 C 0.33992 0.50986 0.75236 0.0
C1240 C 0.35864 0.55 0.7602 0.0
C1241 C 0.33178 0.52256 0.75018 0.0
C1242 C 0.36724 0.48899 0.79493 0.0
C1243 C 0.3839 0.48561 0.8107 0.0
N1244 N 0.36605 0.47874 0.81636 0.0
C1245 C 0.3491 0.48207 0.80091 0.0
C1246 C 0.38484 0.49096 0.79987 0.0
C1247 C 0.3488 0.47691 0.81174 0.0
C1248 C 0.30464 0.47275 0.77502 0.0
N1249 N 0.32389 0.48932 0.77648 0.0
C1250 C 0.30978 0.51011 0.78208 0.0
C1251 C 0.32676 0.50764 0.78021 0.0
C1252 C 0.28969 0.49348 0.78021 0.0
C1253 C 0.28724 0.47449 0.77683 0.0
H1254 H 0.30276 0.4582 0.77234 0.0
H1255 H 0.34225 0.52046 0.7815 0.0
C1256 C 0.42063 0.54115 0.76431 0.0
N1257 N 0.40894 0.53148 0.77311 0.0
C1258 C 0.43528 0.5622 0.76469 0.0
C1259 C 0.42579 0.56287 0.78324 0.0
C1260 C 0.4116 0.5417 0.78256 0.0
C1261 C 0.43738 0.57357 0.7741 0.0
H1262 H 0.41773 0.53283 0.7568 0.0
H1263 H 0.40169 0.53373 0.78934 0.0
C1264 C 0.32804 0.44209 0.76223 0.0
N1265 N 0.30217 0.40736 0.75026 0.0
C1266 C 0.32826 0.42376 0.76372 0.0
C1267 C 0.31461 0.44274 0.75469 0.0
C1268 C 0.31505 0.40636 0.75759 0.0
C1269 C 0.30168 0.42502 0.7487 0.0
C1270 C 0.40877 0.49091 0.76334 0.0
C1271 C 0.41573 0.49495 0.75268 0.0
C1272 C 0.42303 0.49666 0.77172 0.0
C1273 C 0.43695 0.505 0.7506 0.0
C1274 C 0.44412 0.5067 0.7693 0.0
N1275 N 0.45058 0.51063 0.75888 0.0
C1276 C 0.36561 0.48809 0.73633 0.0
C1277 C 0.35458 0.45282 0.73917 0.0
C1278 C 0.3627 0.48482 0.72527 0.0
N1279 N 0.36104 0.47211 0.74305 0.0
C1280 C 0.35099 0.44872 0.72815 0.0
C1281 C 0.3547 0.46479 0.72103 0.0
H1282 H 0.37131 0.50342 0.73958 0.0
H1283 H 0.35167 0.44047 0.74463 0.0
C1284 C 0.34997 0.43871 0.79245 0.0
N1285 N 0.36615 0.44869 0.78554 0.0
C1286 C 0.34866 0.42326 0.79915 0.0
C1287 C 0.38013 0.42787 0.79112 0.0
C1288 C 0.38111 0.44364 0.78473 0.0
C1289 C 0.36381 0.41767 0.79847 0.0
H1290 H 0.33799 0.44265 0.79268 0.0
H1291 H 0.39362 0.45165 0.77903 0.0
O1292 O 0.3657 0.50519 0.76103 0.0
O1293 O 0.36775 0.49385 0.7843 0.0
O1294 O 0.34082 0.45926 0.76818 0.0
O1295 O 0.38808 0.48119 0.76554 0.0
H1296 H 0.38099 0.54396 0.76748 0.0
H1297 H 0.33241 0.49423 0.74925 0.0
H1298 H 0.36578 0.56569 0.76321 0.0
H1299 H 0.31794 0.5168 0.74537 0.0
H1300 H 0.39736 0.48691 0.81461 0.0
H1301 H 0.33536 0.48052 0.79721 0.0
H1302 H 0.39902 0.49642 0.79535 0.0
H1303 H 0.33484 0.4714 0.81645 0.0
H1304 H 0.31242 0.52506 0.78464 0.0
H1305 H 0.27204 0.46113 0.77552 0.0
H1306 H 0.44405 0.56966 0.75749 0.0
H1307 H 0.42652 0.57093 0.79062 0.0
H1308 H 0.33856 0.42298 0.76951 0.0
H1309 H 0.31431 0.45682 0.75341 0.0
H1310 H 0.31508 0.39209 0.75863 0.0
H1311 H 0.29129 0.42533 0.74279 0.0
H1312 H 0.40488 0.4905 0.7461 0.0
H1313 H 0.41786 0.4935 0.78 0.0
H1314 H 0.44258 0.50833 0.7424 0.0
H1315 H 0.45534 0.51135 0.77571 0.0
H1316 H 0.36655 0.4979 0.72012 0.0
H1317 H 0.34481 0.43301 0.72533 0.0
H1318 H 0.33564 0.41537 0.8046 0.0
H1319 H 0.39195 0.42372 0.79035 0.0
Li1320 Li 0.55311 0.85559 0.55582 0.0
Li1321 Li 0.54762 0.84696 0.57595 0.0
Li1322 Li 0.53579 0.82016 0.56202 0.0
Li1323 Li 0.51894 0.83943 0.56402 0.0
C1324 C 0.57426 0.83126 0.56313 0.0
N1325 N 0.59139 0.807 0.55886 0.0
C1326 C 0.57619 0.81971 0.57136 0.0
C1327 C 0.58111 0.83056 0.55275 0.0
C1328 C 0.58487 0.80751 0.56903 0.0
C1329 C 0.58972 0.81818 0.55075 0.0
C1330 C 0.53372 0.87828 0.56811 0.0
C1331 C 0.51407 0.89005 0.57816 0.0
N1332 N 0.51281 0.8997 0.5692 0.0
C1333 C 0.53232 0.88839 0.55902 0.0
C1334 C 0.5246 0.87916 0.57778 0.0
C1335 C 0.52166 0.89912 0.55973 0.0
C1336 C 0.56245 0.87734 0.53645 0.0
N1337 N 0.57089 0.87499 0.54559 0.0
C1338 C 0.60442 0.90218 0.54041 0.0
C1339 C 0.59143 0.88683 0.54766 0.0
C1340 C 0.59609 0.90534 0.53098 0.0
C1341 C 0.57482 0.89251 0.529 0.0
H1342 H 0.54599 0.86777 0.5351 0.0
H1343 H 0.59764 0.88454 0.55503 0.0
C1344 C 0.55758 0.84233 0.59737 0.0
N1345 N 0.55865 0.85603 0.5899 0.0
C1346 C 0.56213 0.84835 0.60814 0.0
C1347 C 0.56983 0.88265 0.60315 0.0
C1348 C 0.56525 0.87602 0.59249 0.0
C1349 C 0.56768 0.86857 0.61117 0.0
H1350 H 0.55201 0.82645 0.59507 0.0
H1351 H 0.566 0.88656 0.58636 0.0
C1352 C 0.51165 0.81709 0.54439 0.0
N1353 N 0.48005 0.78613 0.53244 0.0
C1354 C 0.49393 0.80166 0.54951 0.0
C1355 C 0.51329 0.81682 0.53319 0.0
C1356 C 0.47812 0.78613 0.54334 0.0
C1357 C 0.49715 0.80103 0.52729 0.0
C1358 C 0.50575 0.81189 0.58242 0.0
C1359 C 0.48968 0.79149 0.58097 0.0
C1360 C 0.50639 0.82248 0.59184 0.0
C1361 C 0.47443 0.78214 0.58889 0.0
C1362 C 0.49086 0.81258 0.59957 0.0
N1363 N 0.47533 0.79279 0.59795 0.0
C1364 C 0.52441 0.77928 0.56711 0.0
C1365 C 0.53193 0.78761 0.54863 0.0
C1366 C 0.51682 0.75841 0.56492 0.0
N1367 N 0.53102 0.79321 0.55895 0.0
C1368 C 0.52447 0.76688 0.54607 0.0
C1369 C 0.51612 0.75188 0.55423 0.0
H1370 H 0.52407 0.78424 0.57525 0.0
H1371 H 0.53758 0.79908 0.54232 0.0
C1372 C 0.48787 0.84287 0.55301 0.0
N1373 N 0.49305 0.8389 0.56284 0.0
C1374 C 0.4689 0.84177 0.55151 0.0
C1375 C 0.46124 0.83328 0.57033 0.0
C1376 C 0.48037 0.8347 0.57148 0.0
C1377 C 0.45517 0.83651 0.56021 0.0
H1378 H 0.4984 0.84668 0.5463 0.0
H1379 H 0.48499 0.8325 0.57929 0.0
O1380 O 0.56524 0.84279 0.56517 0.0
O1381 O 0.54351 0.86714 0.56748 0.0
O1382 O 0.52751 0.83225 0.55027 0.0
O1383 O 0.52111 0.82112 0.57486 0.0
H1384 H 0.57083 0.82001 0.57942 0.0
H1385 H 0.57957 0.83932 0.54629 0.0
H1386 H 0.58637 0.7984 0.5753 0.0
H1387 H 0.595 0.8174 0.54274 0.0
H1388 H 0.50682 0.89075 0.58557 0.0
H1389 H 0.5392 0.88777 0.55147 0.0
H1390 H 0.5254 0.8713 0.58488 0.0
H1391 H 0.52035 0.90691 0.55273 0.0
H1392 H 0.62075 0.91156 0.5422 0.0
H1393 H 0.56766 0.8946 0.52194 0.0
H1394 H 0.56012 0.83699 0.61411 0.0
H1395 H 0.57429 0.89843 0.60516 0.0
H1396 H 0.49239 0.80172 0.55814 0.0
H1397 H 0.52697 0.82861 0.5291 0.0
H1398 H 0.46433 0.77409 0.54721 0.0
H1399 H 0.49823 0.80059 0.51861 0.0
H1400 H 0.48899 0.78286 0.57384 0.0
H1401 H 0.51846 0.83831 0.5931 0.0
H1402 H 0.46191 0.76639 0.58785 0.0
H1403 H 0.49112 0.82067 0.60685 0.0
H1404 H 0.51044 0.7474 0.57146 0.0
H1405 H 0.52457 0.76257 0.53775 0.0
H1406 H 0.46479 0.84441 0.54357 0.0
H1407 H 0.45127 0.82966 0.5773 0.0
Li1408 Li 0.16326 0.67992 0.56022 0.0
Li1409 Li 0.17739 0.71748 0.56036 0.0
Li1410 Li 0.15559 0.6981 0.57506 0.0
Li1411 Li 0.14265 0.6959 0.55654 0.0
C1412 C 0.20334 0.70916 0.57091 0.0
N1413 N 0.24601 0.7286 0.57008 0.0
C1414 C 0.21337 0.71036 0.56119 0.0
C1415 C 0.21507 0.71765 0.58023 0.0
C1416 C 0.23493 0.72031 0.56092 0.0
C1417 C 0.23661 0.72743 0.57964 0.0
C1418 C 0.15869 0.69563 0.53787 0.0
C1419 C 0.14849 0.70829 0.52267 0.0
N1420 N 0.1418 0.68995 0.51753 0.0
C1421 C 0.15195 0.67701 0.53238 0.0
C1422 C 0.15718 0.7115 0.53293 0.0
C1423 C 0.14338 0.6744 0.52213 0.0
C1424 C 0.14912 0.63905 0.55328 0.0
N1425 N 0.16585 0.65629 0.55732 0.0
C1426 C 0.18515 0.63899 0.55787 0.0
C1427 C 0.18354 0.65643 0.55977 0.0
C1428 C 0.16818 0.62105 0.55367 0.0
C1429 C 0.14991 0.62108 0.55145 0.0
H1430 H 0.13511 0.63922 0.55155 0.0
H1431 H 0.19636 0.66989 0.56337 0.0
C1432 C 0.21406 0.75541 0.56514 0.0
N1433 N 0.20217 0.74292 0.55699 0.0
C1434 C 0.23452 0.77073 0.56319 0.0
C1435 C 0.22953 0.76127 0.54435 0.0
C1436 C 0.20921 0.74605 0.54668 0.0
C1437 C 0.24275 0.7732 0.55275 0.0
H1438 H 0.20826 0.7523 0.5733 0.0
H1439 H 0.19959 0.73573 0.54037 0.0
C1440 C 0.12837 0.65512 0.57238 0.0
N1441 N 0.11269 0.61924 0.5843 0.0
C1442 C 0.10775 0.6395 0.57117 0.0
C1443 C 0.14105 0.65247 0.57963 0.0
C1444 C 0.1001 0.62147 0.57728 0.0
C1445 C 0.13282 0.63423 0.58558 0.0
C1446 C 0.16325 0.74043 0.568 0.0
C1447 C 0.16947 0.7491 0.57825 0.0
C1448 C 0.16656 0.75325 0.55917 0.0
C1449 C 0.17924 0.77054 0.57948 0.0
C1450 C 0.17641 0.77461 0.56073 0.0
N1451 N 0.18251 0.78274 0.57076 0.0
C1452 C 0.16331 0.70524 0.5975 0.0
C1453 C 0.12816 0.68388 0.59266 0.0
C1454 C 0.15823 0.70168 0.60842 0.0
N1455 N 0.14839 0.69595 0.5899 0.0
C1456 C 0.12239 0.67967 0.60346 0.0
C1457 C 0.13757 0.6883 0.61152 0.0
H1458 H 0.17918 0.71522 0.5951 0.0
H1459 H 0.11654 0.67692 0.58645 0.0
C1460 C 0.10807 0.67197 0.54398 0.0
N1461 N 0.11935 0.69108 0.54842 0.0
C1462 C 0.09162 0.66749 0.53717 0.0
C1463 C 0.09813 0.7022 0.53998 0.0
C1464 C 0.11462 0.70608 0.5467 0.0
C1465 C 0.08662 0.68278 0.53501 0.0
H1466 H 0.1122 0.66037 0.54555 0.0
H1467 H 0.12388 0.72112 0.55037 0.0
O1468 O 0.18223 0.70015 0.57122 0.0
O1469 O 0.16663 0.69828 0.54804 0.0
O1470 O 0.13607 0.67278 0.56639 0.0
O1471 O 0.1538 0.71948 0.56664 0.0
H1472 H 0.20459 0.70391 0.55388 0.0
H1473 H 0.20772 0.71676 0.58785 0.0
H1474 H 0.24286 0.72155 0.55342 0.0
H1475 H 0.24585 0.73414 0.58679 0.0
H1476 H 0.14702 0.72037 0.5188 0.0
H1477 H 0.15324 0.66466 0.53601 0.0
H1478 H 0.16241 0.72605 0.53702 0.0
H1479 H 0.13797 0.66001 0.51782 0.0
H1480 H 0.19936 0.63936 0.55988 0.0
H1481 H 0.1365 0.60745 0.54824 0.0
H1482 H 0.2442 0.77931 0.56994 0.0
H1483 H 0.23517 0.76283 0.53617 0.0
H1484 H 0.09777 0.6413 0.56557 0.0
H1485 H 0.15707 0.66435 0.58065 0.0
H1486 H 0.08416 0.60926 0.57643 0.0
H1487 H 0.14244 0.63198 0.59123 0.0
H1488 H 0.16689 0.73941 0.58518 0.0
H1489 H 0.16176 0.74681 0.5512 0.0
H1490 H 0.18424 0.77747 0.58736 0.0
H1491 H 0.17922 0.78473 0.55395 0.0
H1492 H 0.1704 0.70914 0.61434 0.0
H1493 H 0.10631 0.66914 0.60541 0.0
H1494 H 0.08292 0.65223 0.53361 0.0
H1495 H 0.09476 0.71438 0.53848 0.0
Li1496 Li 0.27294 0.44963 0.55766 0.0
Li1497 Li 0.31089 0.47089 0.55713 0.0
Li1498 Li 0.29233 0.43359 0.55312 0.0
Li1499 Li 0.29368 0.44594 0.57172 0.0
C1500 C 0.29357 0.45245 0.53468 0.0
N1501 N 0.29839 0.4441 0.51353 0.0
C1502 C 0.31204 0.46529 0.52921 0.0
C1503 C 0.27749 0.43548 0.52936 0.0
C1504 C 0.31418 0.46078 0.51852 0.0
C1505 C 0.28025 0.43148 0.51868 0.0
C1506 C 0.2991 0.49036 0.57113 0.0
C1507 C 0.32345 0.52092 0.5809 0.0
N1508 N 0.31512 0.5315 0.57637 0.0
C1509 C 0.29072 0.50151 0.56661 0.0
C1510 C 0.31553 0.50009 0.57837 0.0
C1511 C 0.29905 0.5223 0.56935 0.0
C1512 C 0.24038 0.45563 0.56384 0.0
N1513 N 0.24908 0.45162 0.55526 0.0
C1514 C 0.2288 0.45843 0.54305 0.0
C1515 C 0.24318 0.45229 0.54501 0.0
C1516 C 0.22065 0.46414 0.55172 0.0
C1517 C 0.226 0.4619 0.56225 0.0
H1518 H 0.24572 0.45538 0.57188 0.0
H1519 H 0.25055 0.4493 0.53834 0.0
C1520 C 0.3534 0.50116 0.55549 0.0
N1521 N 0.33392 0.49729 0.55368 0.0
C1522 C 0.37039 0.52084 0.55367 0.0
C1523 C 0.34699 0.53197 0.54772 0.0
C1524 C 0.33048 0.51204 0.5496 0.0
C1525 C 0.36729 0.53667 0.5499 0.0
H1526 H 0.35579 0.48902 0.55841 0.0
H1527 H 0.31484 0.50839 0.54797 0.0
C1528 C 0.24882 0.41323 0.56524 0.0
N1529 N 0.20651 0.39393 0.56794 0.0
C1530 C 0.2405 0.41321 0.57532 0.0
C1531 C 0.23565 0.40332 0.55654 0.0
C1532 C 0.21906 0.40339 0.57652 0.0
C1533 C 0.21429 0.39368 0.55807 0.0
C1534 C 0.33063 0.44721 0.56822 0.0
C1535 C 0.33205 0.42949 0.5668 0.0
C1536 C 0.34303 0.46195 0.5759 0.0
C1537 C 0.34582 0.42678 0.57314 0.0
C1538 C 0.35658 0.45865 0.58209 0.0
N1539 N 0.35768 0.44128 0.5806 0.0
C1540 C 0.31051 0.41997 0.53803 0.0
C1541 C 0.27965 0.39295 0.54576 0.0
C1542 C 0.31278 0.40585 0.53175 0.0
N1543 N 0.294 0.41336 0.54473 0.0
C1544 C 0.28161 0.37819 0.53981 0.0
C1545 C 0.29828 0.38471 0.53267 0.0
H1546 H 0.32201 0.43623 0.53764 0.0
H1547 H 0.26687 0.38814 0.55131 0.0
C1548 C 0.28984 0.45208 0.59362 0.0
N1549 N 0.29529 0.4416 0.58671 0.0
C1550 C 0.2924 0.45125 0.60469 0.0
C1551 C 0.30565 0.42838 0.60136 0.0
C1552 C 0.30227 0.42921 0.59037 0.0
C1553 C 0.30107 0.43982 0.60872 0.0
H1554 H 0.28376 0.46135 0.59052 0.0
H1555 H 0.30584 0.42046 0.58476 0.0
O1556 O 0.29126 0.4565 0.54517 0.0
O1557 O 0.29132 0.47005 0.56846 0.0
O1558 O 0.26976 0.42318 0.56384 0.0
O1559 O 0.31719 0.45009 0.56211 0.0
H1560 H 0.32464 0.47849 0.53319 0.0
H1561 H 0.26312 0.42535 0.53349 0.0
H1562 H 0.32842 0.47052 0.5142 0.0
H1563 H 0.268 0.41831 0.5145 0.0
H1564 H 0.33622 0.52867 0.58645 0.0
H1565 H 0.27812 0.49429 0.56092 0.0
H1566 H 0.32213 0.49166 0.58198 0.0
H1567 H 0.29279 0.53114 0.56587 0.0
H1568 H 0.22494 0.45976 0.53481 0.0
H1569 H 0.22038 0.46646 0.56916 0.0
H1570 H 0.38578 0.52361 0.55522 0.0
H1571 H 0.34382 0.54369 0.54486 0.0
H1572 H 0.25051 0.42086 0.58212 0.0
H1573 H 0.24187 0.40323 0.54868 0.0
H1574 H 0.21239 0.40333 0.58427 0.0
H1575 H 0.2039 0.38605 0.5514 0.0
H1576 H 0.32254 0.4179 0.56091 0.0
H1577 H 0.3421 0.47572 0.57712 0.0
H1578 H 0.34704 0.41312 0.57215 0.0
H1579 H 0.36619 0.46989 0.5881 0.0
H1580 H 0.32603 0.41131 0.52645 0.0
H1581 H 0.27028 0.36194 0.54075 0.0
H1582 H 0.28784 0.45972 0.60999 0.0
H1583 H 0.31243 0.4194 0.60396 0.0
H1584 H 0.41171 0.3419 0.18268 0.0
H1585 H 0.38374 0.33555 0.1704 0.0
H1586 H 0.36089 0.36245 0.19339 0.0
H1587 H 0.38887 0.36869 0.20581 0.0
H1588 H 0.3304 0.32464 0.18566 0.0
H1589 H 0.38292 0.38845 0.17104 0.0
H1590 H 0.41761 0.41361 0.16419 0.0
H1591 H 0.41042 0.37223 0.13841 0.0
H1592 H 0.37579 0.34667 0.14519 0.0
H1593 H 0.25237 0.30453 0.14719 0.0
H1594 H 0.28144 0.32499 0.15936 0.0
H1595 H 0.31906 0.3072 0.14118 0.0
H1596 H 0.29042 0.2874 0.12884 0.0
H1597 H 0.34145 0.3467 0.14742 0.0
H1598 H 0.2929 0.28103 0.16386 0.0
H1599 H 0.25869 0.25459 0.17072 0.0
H1600 H 0.25908 0.29857 0.19306 0.0
H1601 H 0.2932 0.32537 0.18622 0.0
C1602 C 0.40075 0.34649 0.18511 0.0
C1603 C 0.40238 0.35568 0.19521 0.0
C1604 C 0.3849 0.34304 0.17806 0.0
C1605 C 0.37037 0.34872 0.18095 0.0
C1606 C 0.37204 0.35808 0.19099 0.0
C1607 C 0.38803 0.3617 0.19804 0.0
C1608 C 0.35283 0.34364 0.17369 0.0
C1609 C 0.33274 0.32988 0.17736 0.0
C1610 C 0.35598 0.35021 0.16283 0.0
C1611 C 0.37677 0.36559 0.15867 0.0
C1612 C 0.38878 0.38465 0.16395 0.0
C1613 C 0.40843 0.39899 0.16008 0.0
C1614 C 0.41623 0.39451 0.15088 0.0
C1615 C 0.40436 0.37568 0.14553 0.0
C1616 C 0.3847 0.36127 0.14938 0.0
C1617 C 0.26698 0.30535 0.14567 0.0
C1618 C 0.26904 0.29415 0.13715 0.0
C1619 C 0.28351 0.31691 0.15267 0.0
C1620 C 0.30231 0.31736 0.15126 0.0
C1621 C 0.30468 0.30703 0.14244 0.0
C1622 C 0.28823 0.29554 0.13546 0.0
C1623 C 0.31912 0.32727 0.15931 0.0
C1624 C 0.33906 0.3419 0.15578 0.0
C1625 C 0.31588 0.32137 0.17029 0.0
C1626 C 0.29545 0.30525 0.17444 0.0
C1627 C 0.28561 0.2851 0.17018 0.0
C1628 C 0.26625 0.27004 0.17407 0.0
C1629 C 0.25668 0.27492 0.1823 0.0
C1630 C 0.26649 0.29484 0.18667 0.0
C1631 C 0.28583 0.30996 0.18279 0.0
H1632 H 0.2417 0.26324 0.1853 0.0
H1633 H 0.43145 0.40564 0.14789 0.0
H1634 H 0.7449 0.00662 0.15024 0.0
H1635 H 0.72436 0.01531 0.16205 0.0
H1636 H 0.67437 0.98901 0.13912 0.0
H1637 H 0.69516 0.98083 0.12706 0.0
H1638 H 0.68218 0.02621 0.14596 0.0
H1639 H 0.67026 0.96411 0.16262 0.0
H1640 H 0.6795 0.93974 0.17041 0.0
H1641 H 0.71484 0.98388 0.19503 0.0
H1642 H 0.70607 0.00866 0.1873 0.0
H1643 H 0.62149 0.04578 0.18306 0.0
H1644 H 0.63178 0.02596 0.17152 0.0
H1645 H 0.68794 0.04852 0.18983 0.0
H1646 H 0.6775 0.06782 0.20155 0.0
H1647 H 0.67135 0.00807 0.18475 0.0
H1648 H 0.68747 0.07149 0.16646 0.0
H1649 H 0.67899 0.0964 0.15861 0.0
H1650 H 0.63603 0.04962 0.13699 0.0
H1651 H 0.64406 0.02434 0.14483 0.0
C1652 C 0.72956 0.00274 0.14769 0.0
C1653 C 0.72168 0.99312 0.1377 0.0
C1654 C 0.71774 0.00748 0.15451 0.0
C1655 C 0.69773 0.00256 0.15153 0.0
C1656 C 0.68973 0.99282 0.1416 0.0
C1657 C 0.70157 0.98805 0.13476 0.0
C1658 C 0.68573 0.00864 0.15858 0.0
C1659 C 0.67938 0.02185 0.15439 0.0
C1660 C 0.68238 0.00321 0.16961 0.0
C1661 C 0.6876 0.9883 0.17433 0.0
C1662 C 0.68012 0.96869 0.16965 0.0
C1663 C 0.68525 0.95478 0.17406 0.0
C1664 C 0.69777 0.96027 0.1832 0.0
C1665 C 0.70515 0.97966 0.18795 0.0
C1666 C 0.70007 0.99363 0.18357 0.0
C1667 C 0.63585 0.04621 0.18473 0.0
C1668 C 0.6488 0.05852 0.19314 0.0
C1669 C 0.64176 0.035 0.1781 0.0
C1670 C 0.66074 0.03599 0.17975 0.0
C1671 C 0.67326 0.04759 0.1884 0.0
C1672 C 0.66737 0.05877 0.19502 0.0
C1673 C 0.66827 0.02597 0.17217 0.0
C1674 C 0.67379 0.01205 0.17627 0.0
C1675 C 0.6709 0.03077 0.16106 0.0
C1676 C 0.66617 0.04598 0.15631 0.0
C1677 C 0.6761 0.06648 0.16009 0.0
C1678 C 0.67139 0.08067 0.15563 0.0
C1679 C 0.65693 0.07458 0.14733 0.0
C1680 C 0.64719 0.0543 0.14344 0.0
C1681 C 0.65182 0.04004 0.14788 0.0
H1682 H 0.65332 0.08559 0.14389 0.0
H1683 H 0.70174 0.94949 0.1866 0.0
H1684 H 0.97086 0.61306 0.2059 0.0
H1685 H 0.99231 0.6437 0.19483 0.0
H1686 H 0.94572 0.61944 0.17004 0.0
H1687 H 0.92433 0.58879 0.18101 0.0
H1688 H 0.98621 0.63765 0.16193 0.0
H1689 H 0.94626 0.6528 0.18744 0.0
H1690 H 0.93498 0.6558 0.2057 0.0
H1691 H 0.99777 0.69945 0.21432 0.0
H1692 H 0.00945 0.69647 0.19615 0.0
H1693 H 0.99178 0.71902 0.1321 0.0
H1694 H 0.98368 0.6893 0.14329 0.0
H1695 H 0.03133 0.72903 0.16571 0.0
H1696 H 0.03937 0.75906 0.15452 0.0
H1697 H 0.9972 0.70438 0.17609 0.0
H1698 H 0.03655 0.69396 0.14955 0.0
H1699 H 0.04799 0.69119 0.13131 0.0
H1700 H 0.98788 0.63915 0.12457 0.0
H1701 H 0.97596 0.64178 0.14272 0.0
C1702 C 0.96538 0.61414 0.19801 0.0
C1703 C 0.94588 0.59868 0.19433 0.0
C1704 C 0.97759 0.63164 0.19173 0.0
C1705 C 0.97049 0.63385 0.18167 0.0
C1706 C 0.95145 0.618 0.17779 0.0
C1707 C 0.93919 0.60062 0.18409 0.0
C1708 C 0.98208 0.65321 0.17545 0.0
C1709 C 0.98863 0.65227 0.16498 0.0
C1710 C 0.98579 0.67235 0.1796 0.0
C1711 C 0.97875 0.67422 0.1905 0.0
C1712 C 0.95767 0.6629 0.19327 0.0
C1713 C 0.9512 0.66462 0.20359 0.0
C1714 C 0.96566 0.67776 0.21118 0.0
C1715 C 0.9866 0.68925 0.20845 0.0
C1716 C 0.99315 0.68755 0.19814 0.0
C1717 C 0.00085 0.7214 0.13929 0.0
C1718 C 0.0163 0.74136 0.1424 0.0
C1719 C 0.99622 0.70437 0.14568 0.0
C1720 C 0.00713 0.70685 0.15526 0.0
C1721 C 0.02279 0.72674 0.15833 0.0
C1722 C 0.02733 0.74387 0.15195 0.0
C1723 C 0.00094 0.68882 0.16239 0.0
C1724 C 0.99532 0.68995 0.17305 0.0
C1725 C 0.99822 0.66989 0.15842 0.0
C1726 C 0.00533 0.66814 0.14749 0.0
C1727 C 0.02572 0.682 0.14416 0.0
C1728 C 0.0323 0.68045 0.13383 0.0
C1729 C 0.01867 0.66502 0.12678 0.0
C1730 C 0.99843 0.65109 0.13005 0.0
C1731 C 0.99176 0.65258 0.14036 0.0
H1732 H 0.02379 0.66385 0.11879 0.0
H1733 H 0.96062 0.67907 0.21917 0.0
H1734 H 0.35963 0.38144 0.79147 0.0
H1735 H 0.34999 0.35057 0.80235 0.0
H1736 H 0.35349 0.38443 0.83116 0.0
H1737 H 0.36256 0.41512 0.82028 0.0
H1738 H 0.36991 0.35405 0.83195 0.0
H1739 H 0.31047 0.36143 0.8226 0.0
H1740 H 0.28894 0.36635 0.80937 0.0
H1741 H 0.2782 0.31187 0.79237 0.0
H1742 H 0.30002 0.30687 0.80541 0.0
H1743 H 0.30515 0.28148 0.871 0.0
H1744 H 0.32544 0.31032 0.85874 0.0
H1745 H 0.29584 0.27 0.83153 0.0
H1746 H 0.27471 0.24151 0.84387 0.0
H1747 H 0.29516 0.30245 0.82837 0.0
H1748 H 0.34931 0.29089 0.83859 0.0
H1749 H 0.3719 0.28536 0.85076 0.0
H1750 H 0.39414 0.34536 0.86476 0.0
H1751 H 0.37146 0.35115 0.85278 0.0
C1752 C 0.35884 0.38237 0.80015 0.0
C1753 C 0.36174 0.40049 0.80509 0.0
C1754 C 0.35337 0.36481 0.80633 0.0
C1755 C 0.35109 0.36534 0.81753 0.0
C1756 C 0.35536 0.38385 0.82254 0.0
C1757 C 0.36041 0.40127 0.81634 0.0
C1758 C 0.34157 0.34604 0.82383 0.0
C1759 C 0.35357 0.34271 0.83125 0.0
C1760 C 0.32043 0.33111 0.82261 0.0
C1761 C 0.30706 0.33393 0.81489 0.0
C1762 C 0.30367 0.35062 0.81598 0.0
C1763 C 0.2914 0.3534 0.80853 0.0
C1764 C 0.28226 0.33946 0.80002 0.0
C1765 C 0.28533 0.32268 0.79896 0.0
C1766 C 0.29764 0.31986 0.80637 0.0
C1767 C 0.30326 0.27882 0.86239 0.0
C1768 C 0.28846 0.25943 0.85832 0.0
C1769 C 0.31495 0.29523 0.85538 0.0
C1770 C 0.31244 0.29234 0.84417 0.0
C1771 C 0.29807 0.27267 0.84013 0.0
C1772 C 0.28605 0.25641 0.84715 0.0
C1773 C 0.32339 0.31019 0.83672 0.0
C1774 C 0.31161 0.3134 0.82905 0.0
C1775 C 0.34484 0.32477 0.83761 0.0
C1776 C 0.35855 0.32139 0.84483 0.0
C1777 C 0.3589 0.30285 0.84431 0.0
C1778 C 0.37175 0.29968 0.85117 0.0
C1779 C 0.38442 0.31498 0.85854 0.0
C1780 C 0.38431 0.33352 0.85905 0.0
C1781 C 0.37148 0.33676 0.85222 0.0
H1782 H 0.39435 0.3125 0.86384 0.0
H1783 H 0.27275 0.34164 0.79426 0.0
H1784 H 0.74942 0.99919 0.8424 0.0
H1785 H 0.71998 0.9914 0.83093 0.0
H1786 H 0.70173 0.0238 0.853 0.0
H1787 H 0.73117 0.03145 0.86463 0.0
H1788 H 0.6699 0.98521 0.84806 0.0
H1789 H 0.71967 0.04408 0.82862 0.0
H1790 H 0.75289 0.06686 0.81955 0.0
H1791 H 0.74029 0.01899 0.7966 0.0
H1792 H 0.70712 0.9958 0.80562 0.0
H1793 H 0.58562 0.9587 0.8125 0.0
H1794 H 0.61676 0.98025 0.82314 0.0
H1795 H 0.64928 0.95604 0.8053 0.0
H1796 H 0.61854 0.93507 0.79441 0.0
H1797 H 0.67357 0.99687 0.80862 0.0
H1798 H 0.62772 0.93661 0.82989 0.0
H1799 H 0.59495 0.91278 0.83908 0.0
H1800 H 0.6008 0.96272 0.85867 0.0
H1801 H 0.63349 0.98691 0.84948 0.0
C1802 C 0.73922 0.0048 0.84476 0.0
C1803 C 0.74247 0.01581 0.85442 0.0
C1804 C 0.72253 0.0005 0.83816 0.0
C1805 C 0.70878 0.00717 0.84108 0.0
C1806 C 0.71225 0.01862 0.85059 0.0
C1807 C 0.72908 0.02306 0.85718 0.0
C1808 C 0.68996 0.00062 0.83457 0.0
C1809 C 0.67065 0.9882 0.83948 0.0
C1810 C 0.69102 0.00422 0.82335 0.0
C1811 C 0.71093 0.01815 0.81785 0.0
C1812 C 0.72404 0.03835 0.82169 0.0
C1813 C 0.74285 0.05135 0.81655 0.0
C1814 C 0.74871 0.04437 0.80751 0.0
C1815 C 0.73573 0.02438 0.80359 0.0
C1816 C 0.7169 0.01131 0.80871 0.0
C1817 C 0.5995 0.95821 0.81074 0.0
C1818 C 0.59957 0.94503 0.80268 0.0
C1819 C 0.61723 0.97042 0.81687 0.0
C1820 C 0.63525 0.96957 0.81508 0.0
C1821 C 0.63552 0.95691 0.80682 0.0
C1822 C 0.61787 0.94476 0.80069 0.0
C1823 C 0.65362 0.98102 0.82207 0.0
C1824 C 0.67281 0.99432 0.81724 0.0
C1825 C 0.65249 0.97813 0.83336 0.0
C1826 C 0.63289 0.9636 0.83891 0.0
C1827 C 0.62193 0.94253 0.83609 0.0
C1828 C 0.60339 0.92896 0.84132 0.0
C1829 C 0.59576 0.93625 0.84943 0.0
C1830 C 0.6067 0.95711 0.85237 0.0
C1831 C 0.62523 0.97076 0.84716 0.0
H1832 H 0.58141 0.92572 0.85347 0.0
H1833 H 0.76328 0.05445 0.80355 0.0
H1834 H 0.06324 0.63742 0.82291 0.0
H1835 H 0.04417 0.64961 0.83364 0.0
H1836 H 0.0232 0.66441 0.80456 0.0
H1837 H 0.04281 0.65295 0.79379 0.0
H1838 H 0.0391 0.69609 0.81816 0.0
H1839 H 0.9897 0.62395 0.82054 0.0
H1840 H 0.97732 0.58715 0.82395 0.0
H1841 H 0.99624 0.60101 0.85697 0.0
H1842 H 0.00902 0.63796 0.85372 0.0
H1843 H 0.97722 0.72696 0.84628 0.0
H1844 H 0.98624 0.70664 0.8344 0.0
H1845 H 0.01144 0.69087 0.86143 0.0
H1846 H 0.0025 0.71115 0.87334 0.0
H1847 H 0.9903 0.65803 0.84794 0.0
H1848 H 0.04274 0.73013 0.84506 0.0
H1849 H 0.05564 0.76709 0.84178 0.0
H1850 H 0.03133 0.75305 0.80965 0.0
H1851 H 0.01803 0.71595 0.8128 0.0
C1852 C 0.05449 0.64319 0.8188 0.0
C1853 C 0.05461 0.64428 0.8075 0.0
C1854 C 0.04341 0.64993 0.82494 0.0
C1855 C 0.03212 0.65777 0.81989 0.0
C1856 C 0.03175 0.65835 0.80861 0.0
C1857 C 0.04284 0.65163 0.80247 0.0
C1858 C 0.02213 0.66689 0.82639 0.0
C1859 C 0.02809 0.68761 0.82452 0.0
C1860 C 0.00817 0.65599 0.83486 0.0
C1861 C 0.00047 0.63377 0.83686 0.0
C1862 C 0.99138 0.61918 0.82851 0.0
C1863 C 0.98426 0.59829 0.83042 0.0
C1864 C 0.98603 0.59175 0.84067 0.0
C1865 C 0.99489 0.6061 0.84904 0.0
C1866 C 0.00205 0.62702 0.84717 0.0
C1867 C 0.98462 0.7191 0.84969 0.0
C1868 C 0.98931 0.72079 0.86073 0.0
C1869 C 0.98969 0.70745 0.8429 0.0
C1870 C -0.00027 0.69747 0.84702 0.0
C1871 C 0.00365 0.69842 0.8581 0.0
C1872 C 0.99851 0.70999 0.8649 0.0
C1873 C 0.00737 0.68717 0.83971 0.0
C1874 C 0.00107 0.66634 0.84146 0.0
C1875 C 0.02108 0.69795 0.83113 0.0
C1876 C 0.02919 0.72026 0.8292 0.0
C1877 C 0.04001 0.73492 0.83732 0.0
C1878 C 0.04742 0.75589 0.83548 0.0
C1879 C 0.04426 0.76241 0.82552 0.0
C1880 C 0.03374 0.74797 0.81737 0.0
C1881 C 0.02627 0.72698 0.81917 0.0
H1882 H 0.05 0.77865 0.82411 0.0
H1883 H 0.9805 0.57557 0.84213 0.0
H1884 H 0.95297 0.61179 0.46099 0.0
H1885 H 0.98258 0.62972 0.47303 0.0
H1886 H 0.94619 0.64344 0.49476 0.0
H1887 H 0.91624 0.62517 0.48279 0.0
H1888 H 0.98975 0.67649 0.49212 0.0
H1889 H 0.94811 0.60427 0.50079 0.0
H1890 H 0.92867 0.56707 0.49645 0.0
H1891 H 0.98417 0.5707 0.48451 0.0
H1892 H 0.00387 0.60804 0.48859 0.0
H1893 H 0.05563 0.69157 0.53752 0.0
H1894 H 0.02639 0.68203 0.52542 0.0
H1895 H 0.05045 0.65481 0.50334 0.0
H1896 H 0.07947 0.66411 0.51541 0.0
H1897 H 0.01096 0.62898 0.50724 0.0
H1898 H 0.05265 0.70099 0.49802 0.0
H1899 H 0.07233 0.73848 0.50162 0.0
H1900 H 0.01766 0.73569 0.51425 0.0
H1901 H 0.99769 0.69811 0.51085 0.0
C1902 C 0.95131 0.61879 0.46828 0.0
C1903 C 0.9322 0.61677 0.47106 0.0
C1904 C 0.96826 0.62913 0.4751 0.0
C1905 C 0.96643 0.63763 0.48482 0.0
C1906 C 0.94785 0.63696 0.48728 0.0
C1907 C 0.93079 0.62654 0.48044 0.0
C1908 C 0.98322 0.6451 0.49283 0.0
C1909 C 0.99427 0.66613 0.49558 0.0
C1910 C 0.98916 0.63153 0.49719 0.0
C1911 C 0.97743 0.60899 0.49491 0.0
C1912 C 0.95614 0.59717 0.49716 0.0
C1913 C 0.94508 0.57606 0.49476 0.0
C1914 C 0.95517 0.56653 0.49019 0.0
C1915 C 0.97637 0.5781 0.48804 0.0
C1916 C 0.98749 0.59924 0.4904 0.0
C1917 C 0.05477 0.68379 0.53001 0.0
C1918 C 0.06968 0.6784 0.52744 0.0
C1919 C 0.0381 0.67837 0.52311 0.0
C1920 C 0.03627 0.66775 0.51346 0.0
C1921 C 0.05148 0.66289 0.51077 0.0
C1922 C 0.06801 0.66815 0.51768 0.0
C1923 C 0.018 0.66058 0.5064 0.0
C1924 C 0.0065 0.63945 0.50386 0.0
C1925 C 0.01176 0.67411 0.50225 0.0
C1926 C 0.02374 0.6967 0.50429 0.0
C1927 C 0.04486 0.70834 0.50165 0.0
C1928 C 0.05606 0.72961 0.50364 0.0
C1929 C 0.04627 0.73945 0.50819 0.0
C1930 C 0.02523 0.72804 0.51074 0.0
C1931 C 0.01397 0.70676 0.50877 0.0
H1932 H 0.05497 0.75593 0.50972 0.0
H1933 H 0.94658 0.55018 0.48833 0.0
H1934 H 0.30066 0.38217 0.51095 0.0
H1935 H 0.31028 0.36012 0.50083 0.0
H1936 H 0.31374 0.33242 0.53051 0.0
H1937 H 0.30351 0.35404 0.54062 0.0
H1938 H 0.35147 0.35364 0.51584 0.0
H1939 H 0.27915 0.30177 0.51659 0.0
H1940 H 0.24201 0.28866 0.51389 0.0
H1941 H 0.25264 0.30239 0.48014 0.0
H1942 H 0.28993 0.3159 0.48268 0.0
H1943 H 0.38671 0.29416 0.49035 0.0
H1944 H 0.36574 0.30249 0.50217 0.0
H1945 H 0.33857 0.31366 0.47432 0.0
H1946 H 0.35876 0.3042 0.46253 0.0
H1947 H 0.31081 0.298 0.48934 0.0
H1948 H 0.38123 0.3532 0.48781 0.0
H1949 H 0.4191 0.36957 0.48924 0.0
H1950 H 0.4133 0.35411 0.52282 0.0
H1951 H 0.37534 0.33735 0.52154 0.0
C1952 C 0.30303 0.37102 0.51525 0.0
C1953 C 0.30134 0.36965 0.52651 0.0
C1954 C 0.30845 0.35845 0.50949 0.0
C1955 C 0.31261 0.34466 0.51496 0.0
C1956 C 0.31042 0.3429 0.52618 0.0
C1957 C 0.30455 0.35515 0.53193 0.0
C1958 C 0.3214 0.33384 0.50902 0.0
C1959 C 0.34254 0.34114 0.51022 0.0
C1960 C 0.30979 0.31818 0.5014 0.0
C1961 C 0.28737 0.31003 0.49985 0.0
C1962 C 0.27361 0.30219 0.50861 0.0
C1963 C 0.25252 0.29464 0.50711 0.0
C1964 C 0.24498 0.29474 0.49685 0.0
C1965 C 0.25851 0.30234 0.48808 0.0
C1966 C 0.27962 0.30993 0.48955 0.0
C1967 C 0.37591 0.29799 0.48681 0.0
C1968 C 0.3743 0.29869 0.4756 0.0
C1969 C 0.36405 0.30285 0.49353 0.0
C1970 C 0.35096 0.30922 0.48914 0.0
C1971 C 0.34859 0.30886 0.4779 0.0
C1972 C 0.36012 0.30352 0.47118 0.0
C1973 C 0.34102 0.31775 0.49616 0.0
C1974 C 0.31974 0.31022 0.4951 0.0
C1975 C 0.35261 0.33366 0.50373 0.0
C1976 C 0.37544 0.34381 0.50455 0.0
C1977 C 0.38803 0.35316 0.49548 0.0
C1978 C 0.40951 0.36252 0.49627 0.0
C1979 C 0.4186 0.36282 0.50611 0.0
C1980 C 0.40623 0.35382 0.51519 0.0
C1981 C 0.38473 0.34439 0.51444 0.0
H1982 H 0.43523 0.37008 0.50671 0.0
H1983 H 0.22864 0.28888 0.4957 0.0
H1984 H 0.66284 0.04194 0.45664 0.0
H1985 H 0.65169 0.01136 0.46764 0.0
H1986 H 0.68584 0.04976 0.49462 0.0
H1987 H 0.69823 0.08059 0.48343 0.0
H1988 H 0.68773 0.01501 0.49432 0.0
H1989 H 0.6343 0.03194 0.49189 0.0
H1990 H 0.61042 0.04017 0.48259 0.0
H1991 H 0.58171 0.98115 0.46672 0.0
H1992 H 0.60563 0.97269 0.47581 0.0
H1993 H 0.62649 0.94469 0.53612 0.0
H1994 H 0.64562 0.97381 0.5239 0.0
H1995 H 0.61403 0.93431 0.49679 0.0
H1996 H 0.59507 0.90499 0.50894 0.0
H1997 H 0.61162 0.96927 0.49699 0.0
H1998 H 0.66464 0.95194 0.50068 0.0
H1999 H 0.68843 0.94439 0.51059 0.0
H2000 H 0.71752 0.00476 0.525 0.0
H2001 H 0.6937 0.01257 0.5153 0.0
C2002 C 0.66853 0.04399 0.46481 0.0
C2003 C 0.68136 0.06385 0.46915 0.0
C2004 C 0.6619 0.02642 0.47114 0.0
C2005 C 0.66755 0.02831 0.48201 0.0
C2006 C 0.68115 0.04797 0.48626 0.0
C2007 C 0.68803 0.06559 0.47988 0.0
C2008 C 0.65816 0.00987 0.48909 0.0
C2009 C 0.67109 0.00511 0.495 0.0
C2010 C 0.63644 0.99681 0.48986 0.0
C2011 C 0.62189 0.00177 0.48446 0.0
C2012 C 0.62298 0.02078 0.48636 0.0
C2013 C 0.60943 0.02548 0.48113 0.0
C2014 C 0.59459 0.01121 0.47404 0.0
C2015 C 0.59323 0.99219 0.4722 0.0
C2016 C 0.60677 0.98743 0.47739 0.0
C2017 C 0.62395 0.94206 0.52754 0.0
C2018 C 0.60916 0.92252 0.52351 0.0
C2019 C 0.63488 0.95874 0.52057 0.0
C2020 C 0.63128 0.95619 0.50944 0.0
C2021 C 0.61699 0.9366 0.50536 0.0
C2022 C 0.6061 0.9199 0.51232 0.0
C2023 C 0.64116 0.97426 0.50216 0.0
C2024 C 0.62827 0.97905 0.49625 0.0
C2025 C 0.66286 0.9874 0.50151 0.0
C2026 C 0.67725 0.98276 0.50733 0.0
C2027 C 0.67599 0.96354 0.50603 0.0
C2028 C 0.68951 0.95923 0.5116 0.0
C2029 C 0.70444 0.97407 0.51844 0.0
C2030 C 0.70593 0.99327 0.51971 0.0
C2031 C 0.69244 0.99766 0.51417 0.0
H2032 H 0.7149 0.9707 0.52274 0.0
H2033 H 0.58412 0.01488 0.47 0.0
H2034 H 0.06853 0.17442 0.12789 0.0
H2035 H 0.03097 0.15338 0.1287 0.0
H2036 H 0.02622 0.18566 0.10125 0.0
H2037 H 0.06389 0.20739 0.10058 0.0
H2038 H 0.99551 0.15882 0.12925 0.0
H2039 H 0.9944 0.14652 0.08371 0.0
H2040 H 0.01837 0.15025 0.06905 0.0
H2041 H 0.05471 0.13833 0.0913 0.0
H2042 H 0.03075 0.13416 0.10602 0.0
H2043 H 0.89078 0.08986 0.11116 0.0
H2044 H 0.92585 0.11958 0.11318 0.0
H2045 H 0.95075 0.07912 0.11038 0.0
H2046 H 0.91592 0.04943 0.10852 0.0
H2047 H 0.97077 0.1124 0.09737 0.0
H2048 H 0.9483 0.09843 0.13447 0.0
H2049 H 0.92522 0.09366 0.14975 0.0
H2050 H 0.93676 0.15536 0.14553 0.0
H2051 H 0.95971 0.1604 0.13013 0.0
C2052 C 0.05958 0.17768 0.12227 0.0
C2053 C 0.06932 0.19244 0.11406 0.0
C2054 C 0.03805 0.16557 0.12275 0.0
C2055 C 0.02589 0.16783 0.11496 0.0
C2056 C 0.0354 0.18361 0.10729 0.0
C2057 C 0.05694 0.19587 0.10686 0.0
C2058 C 0.00384 0.15173 0.11389 0.0
C2059 C 0.98998 0.1488 0.12224 0.0
C2060 C 0.99679 0.13847 0.10482 0.0
C2061 C 0.01094 0.14029 0.09597 0.0
C2062 C 0.00746 0.1446 0.08545 0.0
C2063 C 0.02104 0.14679 0.07714 0.0
C2064 C 0.0381 0.1446 0.07925 0.0
C2065 C 0.04154 0.14009 0.08968 0.0
C2066 C 0.02797 0.13782 0.098 0.0
C2067 C 0.90372 0.08727 0.11112 0.0
C2068 C 0.90055 0.06728 0.10961 0.0
C2069 C 0.92374 0.10427 0.11224 0.0
C2070 C 0.94089 0.10154 0.11192 0.0
C2071 C 0.93774 0.08159 0.11056 0.0
C2072 C 0.91781 0.06465 0.10946 0.0
C2073 C 0.96226 0.11938 0.11274 0.0
C2074 C 0.97608 0.12263 0.10431 0.0
C2075 C 0.96925 0.1327 0.1218 0.0
C2076 C 0.95553 0.1297 0.13108 0.0
C2077 C 0.94578 0.11091 0.13675 0.0
C2078 C 0.93275 0.10817 0.14544 0.0
C2079 C 0.92948 0.12417 0.14859 0.0
C2080 C 0.93928 0.14297 0.14307 0.0
C2081 C 0.95231 0.14578 0.13436 0.0
H2082 H 0.91939 0.12202 0.15532 0.0
H2083 H 0.04862 0.14636 0.07282 0.0
H2084 H 0.78673 0.86055 0.10026 0.0
H2085 H 0.80353 0.84002 0.10197 0.0
H2086 H 0.83826 0.87708 0.12917 0.0
H2087 H 0.82227 0.89809 0.12732 0.0
H2088 H 0.84575 0.85705 0.09974 0.0
H2089 H 0.84819 0.84741 0.14606 0.0
H2090 H 0.82582 0.84102 0.16188 0.0
H2091 H 0.77201 0.81158 0.14175 0.0
H2092 H 0.79401 0.8175 0.12582 0.0
H2093 H 0.9327 0.85893 0.1244 0.0
H2094 H 0.90175 0.86182 0.12428 0.0
H2095 H 0.86631 0.80018 0.11133 0.0
H2096 H 0.89743 0.79738 0.11093 0.0
H2097 H 0.85302 0.82391 0.13262 0.0
H2098 H 0.86358 0.81579 0.09344 0.0
H2099 H 0.88742 0.8237 0.07809 0.0
H2100 H 0.91429 0.88869 0.08419 0.0
H2101 H 0.89076 0.88109 0.09967 0.0
C2102 C 0.79782 0.86425 0.10666 0.0
C2103 C 0.80321 0.88112 0.1136 0.0
C2104 C 0.80729 0.8524 0.10767 0.0
C2105 C 0.82204 0.85697 0.11573 0.0
C2106 C 0.82666 0.87307 0.12301 0.0
C2107 C 0.81739 0.88504 0.12195 0.0
C2108 C 0.83445 0.8467 0.11584 0.0
C2109 C 0.84689 0.84932 0.10684 0.0
C2110 C 0.83618 0.83687 0.12515 0.0
C2111 C 0.8228 0.83303 0.13472 0.0
C2112 C 0.83158 0.83946 0.14501 0.0
C2113 C 0.81896 0.83595 0.154 0.0
C2114 C 0.79751 0.82594 0.15282 0.0
C2115 C 0.78863 0.81939 0.14265 0.0
C2116 C 0.80118 0.82285 0.13363 0.0
C2117 C 0.91837 0.84596 0.1215 0.0
C2118 C 0.91766 0.82804 0.11752 0.0
C2119 C 0.90067 0.84758 0.12155 0.0
C2120 C 0.88189 0.83125 0.11775 0.0
C2121 C 0.88074 0.81292 0.11429 0.0
C2122 C 0.89853 0.81134 0.11413 0.0
C2123 C 0.86412 0.83436 0.11656 0.0
C2124 C 0.85112 0.83088 0.1254 0.0
C2125 C 0.86172 0.84329 0.10711 0.0
C2126 C 0.87558 0.84787 0.09773 0.0
C2127 C 0.87468 0.83175 0.09154 0.0
C2128 C 0.88811 0.83617 0.08282 0.0
C2129 C 0.9024 0.85668 0.08018 0.0
C2130 C 0.90324 0.87281 0.08625 0.0
C2131 C 0.88986 0.86845 0.09499 0.0
H2132 H 0.91278 0.86008 0.07343 0.0
H2133 H 0.78777 0.82324 0.15979 0.0
H2134 H 0.18048 0.11104 0.09674 0.0
H2135 H 0.17311 0.07553 0.09811 0.0
H2136 H 0.144 0.06941 0.12897 0.0
H2137 H 0.15222 0.10529 0.12792 0.0
H2138 H 0.16558 0.04975 0.12893 0.0
H2139 H 0.11556 0.05271 0.10588 0.0
H2140 H 0.10435 0.06507 0.09041 0.0
H2141 H 0.13363 0.04311 0.06868 0.0
H2142 H 0.14527 0.03088 0.08404 0.0
H2143 H 0.09064 0.94291 0.13156 0.0
H2144 H 0.11163 0.98059 0.13116 0.0
H2145 H 0.13794 0.97757 0.10075 0.0
H2146 H 0.11657 0.93981 0.10098 0.0
H2147 H 0.1221 0.00244 0.09976 0.0
H2148 H 0.16791 0.99502 0.12327 0.0
H2149 H 0.17794 0.98223 0.13901 0.0
H2150 H 0.15538 0.01173 0.1602 0.0
H2151 H 0.14494 0.02446 0.14459 0.0
C2152 C 0.17292 0.10233 0.10394 0.0
C2153 C 0.16677 0.11099 0.11218 0.0
C2154 C 0.16856 0.08195 0.10466 0.0
C2155 C 0.1577 0.06971 0.11355 0.0
C2156 C 0.15231 0.07855 0.122 0.0
C2157 C 0.1568 0.09899 0.12133 0.0
C2158 C 0.15074 0.04736 0.11375 0.0
C2159 C 0.15599 0.03935 0.12259 0.0
C2160 C 0.1386 0.0339 0.10536 0.0
C2161 C 0.13148 0.0411 0.09611 0.0
C2162 C 0.11973 0.05066 0.09781 0.0
C2163 C 0.11329 0.05762 0.08906 0.0
C2164 C 0.11833 0.05494 0.07857 0.0
C2165 C 0.12977 0.04522 0.07681 0.0
C2166 C 0.13629 0.03826 0.08553 0.0
C2167 C 0.10112 0.95027 0.12486 0.0
C2168 C 0.10185 0.93843 0.11626 0.0
C2169 C 0.11325 0.9718 0.12469 0.0
C2170 C 0.12642 0.9819 0.11594 0.0
C2171 C 0.12792 0.97007 0.10759 0.0
C2172 C 0.11581 0.9485 0.10777 0.0
C2173 C 0.13675 0.0047 0.11499 0.0
C2174 C 0.13203 0.01282 0.10602 0.0
C2175 C 0.14921 0.01817 0.12331 0.0
C2176 C 0.1555 0.01058 0.13274 0.0
C2177 C 0.16494 0.99865 0.13128 0.0
C2178 C 0.17073 0.99143 0.14019 0.0
C2179 C 0.16727 0.99613 0.1506 0.0
C2180 C 0.15805 0.0081 0.15213 0.0
C2181 C 0.15222 0.01534 0.14325 0.0
H2182 H 0.17176 0.99053 0.15749 0.0
H2183 H 0.11332 0.06034 0.07181 0.0
H2184 H 0.09284 0.88953 0.8837 0.0
H2185 H 0.12359 0.92408 0.88162 0.0
H2186 H 0.08795 0.9518 0.89151 0.0
H2187 H 0.05734 0.91749 0.89356 0.0
H2188 H 0.11375 0.97223 0.87436 0.0
H2189 H 0.11649 0.94537 0.90944 0.0
H2190 H 0.1173 0.91992 0.92161 0.0
H2191 H 0.1728 0.92935 0.90629 0.0
H2192 H 0.17214 0.95467 0.89392 0.0
H2193 H 0.18804 0.06278 0.90679 0.0
H2194 H 0.16737 0.02536 0.90519 0.0
H2195 H 0.18789 0.02894 0.87239 0.0
H2196 H 0.20945 0.06655 0.87402 0.0
H2197 H 0.1728 0.99172 0.89901 0.0
H2198 H 0.14202 0.99875 0.8582 0.0
H2199 H 0.14003 0.02503 0.84722 0.0
H2200 H 0.13846 0.05622 0.87595 0.0
H2201 H 0.14008 0.02996 0.88707 0.0
C2202 C 0.09157 0.90305 0.88527 0.0
C2203 C 0.07281 0.90091 0.88887 0.0
C2204 C 0.10911 0.92271 0.88412 0.0
C2205 C 0.10803 0.94045 0.88647 0.0
C2206 C 0.08909 0.9383 0.88964 0.0
C2207 C 0.07167 0.91872 0.89089 0.0
C2208 C 0.12672 0.96131 0.88627 0.0
C2209 C 0.12681 0.9764 0.87962 0.0
C2210 C 0.14366 0.9668 0.89321 0.0
C2211 C 0.14413 0.9517 0.90068 0.0
C2212 C 0.12877 0.94189 0.90861 0.0
C2213 C 0.12922 0.92751 0.91555 0.0
C2214 C 0.14506 0.92297 0.9147 0.0
C2215 C 0.16052 0.93285 0.90692 0.0
C2216 C 0.16012 0.94721 0.89995 0.0
C2217 C 0.18893 0.05568 0.89936 0.0
C2218 C 0.20034 0.06779 0.89049 0.0
C2219 C 0.17699 0.03421 0.89846 0.0
C2220 C 0.17597 0.02446 0.88865 0.0
C2221 C 0.18841 0.03626 0.88001 0.0
C2222 C 0.20057 0.05775 0.88094 0.0
C2223 C 0.15976 0.00257 0.88712 0.0
C2224 C 0.16006 0.98736 0.89349 0.0
C2225 C 0.14301 0.99699 0.88004 0.0
C2226 C 0.14145 0.01255 0.87344 0.0
C2227 C 0.14117 0.01118 0.86216 0.0
C2228 C 0.1401 0.02607 0.85591 0.0
C2229 C 0.13921 0.04233 0.86088 0.0
C2230 C 0.13924 0.04367 0.87211 0.0
C2231 C 0.14023 0.02879 0.87838 0.0
H2232 H 0.13843 0.05386 0.85603 0.0
H2233 H 0.14538 0.91184 0.92008 0.0
H2234 H 0.11622 0.18885 0.88818 0.0
H2235 H 0.08142 0.18368 0.88575 0.0
H2236 H 0.05963 0.12153 0.87457 0.0
H2237 H 0.09422 0.12651 0.87712 0.0
H2238 H 0.04543 0.14504 0.86224 0.0
H2239 H 0.05163 0.12661 0.89918 0.0
H2240 H 0.06801 0.13425 0.91709 0.0
H2241 H 0.05694 0.18467 0.92095 0.0
H2242 H 0.04076 0.1775 0.90298 0.0
H2243 H 0.9392 0.08148 0.87025 0.0
H2244 H 0.97672 0.09963 0.86899 0.0
H2245 H 0.98071 0.15013 0.88766 0.0
H2246 H 0.94289 0.13164 0.88916 0.0
H2247 H 0.00612 0.14014 0.8954 0.0
H2248 H 0.99442 0.15544 0.86022 0.0
H2249 H 0.97849 0.14928 0.84225 0.0
H2250 H 0.00041 0.10791 0.83456 0.0
H2251 H 0.01623 0.11357 0.85254 0.0
C2252 C 0.10402 0.17421 0.88507 0.0
C2253 C 0.10777 0.15802 0.88288 0.0
C2254 C 0.08422 0.17127 0.88371 0.0
C2255 C 0.06803 0.15223 0.88 0.0
C2256 C 0.07197 0.13635 0.8774 0.0
C2257 C 0.09164 0.13916 0.87893 0.0
C2258 C 0.04661 0.14815 0.87948 0.0
C2259 C 0.03674 0.14391 0.86946 0.0
C2260 C 0.03564 0.1475 0.88888 0.0
C2261 C 0.04524 0.1517 0.8997 0.0
C2262 C 0.05287 0.13945 0.90381 0.0
C2263 C 0.06208 0.14366 0.91398 0.0
C2264 C 0.06358 0.15998 0.92014 0.0
C2265 C 0.05581 0.17207 0.91616 0.0
C2266 C 0.04662 0.16794 0.90599 0.0
C2267 C 0.94802 0.09667 0.87387 0.0
C2268 C 0.9381 0.10519 0.87975 0.0
C2269 C 0.96952 0.10709 0.87312 0.0
C2270 C 0.98162 0.12644 0.87808 0.0
C2271 C 0.97172 0.13526 0.88374 0.0
C2272 C 0.95015 0.1247 0.88459 0.0
C2273 C 0.00451 0.13638 0.87813 0.0
C2274 C 0.01476 0.1417 0.88809 0.0
C2275 C 0.01588 0.13833 0.86863 0.0
C2276 C 0.00643 0.13486 0.85777 0.0
C2277 C 0.99573 0.14491 0.85473 0.0
C2278 C 0.98673 0.14153 0.84454 0.0
C2279 C 0.98841 0.12819 0.83728 0.0
C2280 C 0.99912 0.11824 0.84019 0.0
C2281 C 0.00814 0.12156 0.85038 0.0
H2282 H 0.98143 0.12559 0.82939 0.0
H2283 H 0.07071 0.16322 0.92801 0.0
H2284 H 0.87039 0.79892 0.90294 0.0
H2285 H 0.85082 0.81669 0.90109 0.0
H2286 H 0.88522 0.84673 0.87232 0.0
H2287 H 0.90503 0.8294 0.8742 0.0
H2288 H 0.8684 0.8582 0.90213 0.0
H2289 H 0.85625 0.85829 0.85596 0.0
H2290 H 0.84852 0.83499 0.8404 0.0
H2291 H 0.8193 0.78231 0.86132 0.0
H2292 H 0.82659 0.80525 0.87698 0.0
H2293 H 0.84954 0.93378 0.86949 0.0
H2294 H 0.85583 0.90492 0.86991 0.0
H2295 H 0.82023 0.88281 0.89921 0.0
H2296 H 0.81484 0.9122 0.89919 0.0
H2297 H 0.83299 0.86359 0.86973 0.0
H2298 H 0.84294 0.86448 0.91578 0.0
H2299 H 0.8522 0.88861 0.9311 0.0
H2300 H 0.88799 0.94001 0.91006 0.0
H2301 H 0.87919 0.91617 0.89465 0.0
C2302 C 0.87362 0.80913 0.89615 0.0
C2303 C 0.88937 0.81282 0.88875 0.0
C2304 C 0.86236 0.81919 0.89508 0.0
C2305 C 0.8665 0.83296 0.88655 0.0
C2306 C 0.8815 0.8359 0.87886 0.0
C2307 C 0.8928 0.82591 0.87994 0.0
C2308 C 0.85693 0.84602 0.8863 0.0
C2309 C 0.86021 0.859 0.89514 0.0
C2310 C 0.84679 0.8475 0.87706 0.0
C2311 C 0.84213 0.83353 0.86766 0.0
C2312 C 0.84809 0.84173 0.85724 0.0
C2313 C 0.8438 0.82858 0.8484 0.0
C2314 C 0.83348 0.80719 0.84987 0.0
C2315 C 0.82737 0.79889 0.86019 0.0
C2316 C 0.83161 0.81197 0.86906 0.0
C2317 C 0.84311 0.92283 0.87605 0.0
C2318 C 0.83194 0.92552 0.88439 0.0
C2319 C 0.8465 0.90619 0.8762 0.0
C2320 C 0.83876 0.89188 0.88467 0.0
C2321 C 0.82662 0.89384 0.89268 0.0
C2322 C 0.82338 0.91058 0.89259 0.0
C2323 C 0.84466 0.87585 0.88552 0.0
C2324 C 0.84082 0.86245 0.87678 0.0
C2325 C 0.85449 0.87408 0.89482 0.0
C2326 C 0.86019 0.88855 0.90405 0.0
C2327 C 0.85284 0.88093 0.91444 0.0
C2328 C 0.85801 0.89455 0.92313 0.0
C2329 C 0.87061 0.91583 0.92154 0.0
C2330 C 0.87817 0.92353 0.91127 0.0
C2331 C 0.87308 0.90997 0.90255 0.0
H2332 H 0.87456 0.92635 0.92828 0.0
H2333 H 0.83018 0.79704 0.84302 0.0
H2334 H 0.73227 0.48973 0.46708 0.0
H2335 H 0.69526 0.46588 0.46881 0.0
H2336 H 0.6834 0.50125 0.44567 0.0
H2337 H 0.72058 0.52583 0.44418 0.0
H2338 H 0.65334 0.48471 0.46162 0.0
H2339 H 0.68715 0.46189 0.43712 0.0
H2340 H 0.71377 0.45373 0.43155 0.0
H2341 H 0.69307 0.40698 0.45595 0.0
H2342 H 0.66658 0.41515 0.46182 0.0
H2343 H 0.55825 0.40286 0.44023 0.0
H2344 H 0.59344 0.4316 0.44288 0.0
H2345 H 0.60363 0.39663 0.467 0.0
H2346 H 0.56819 0.36801 0.46472 0.0
H2347 H 0.63428 0.41333 0.45112 0.0
H2348 H 0.59882 0.43562 0.47488 0.0
H2349 H 0.57235 0.44432 0.47993 0.0
H2350 H 0.59567 0.49205 0.45598 0.0
H2351 H 0.62211 0.48343 0.45066 0.0
C2352 C 0.72185 0.49295 0.46263 0.0
C2353 C 0.72945 0.50963 0.4554 0.0
C2354 C 0.70066 0.47914 0.46356 0.0
C2355 C 0.68665 0.48157 0.4572 0.0
C2356 C 0.69399 0.49903 0.45059 0.0
C2357 C 0.71524 0.51295 0.44968 0.0
C2358 C 0.66473 0.46481 0.45663 0.0
C2359 C 0.64912 0.46914 0.45924 0.0
C2360 C 0.65931 0.44447 0.45361 0.0
C2361 C 0.67502 0.43929 0.44999 0.0
C2362 C 0.68837 0.44998 0.44136 0.0
C2363 C 0.70343 0.44535 0.43814 0.0
C2364 C 0.70514 0.42988 0.44341 0.0
C2365 C 0.69175 0.41898 0.45189 0.0
C2366 C 0.67671 0.42361 0.45517 0.0
C2367 C 0.56777 0.40138 0.44627 0.0
C2368 C 0.56031 0.38304 0.45225 0.0
C2369 C 0.58793 0.41782 0.44773 0.0
C2370 C 0.60107 0.41625 0.45516 0.0
C2371 C 0.5937 0.3981 0.46121 0.0
C2372 C 0.57348 0.38171 0.45983 0.0
C2373 C 0.62283 0.43313 0.45622 0.0
C2374 C 0.63846 0.42885 0.4536 0.0
C2375 C 0.62819 0.4535 0.45912 0.0
C2376 C 0.61232 0.45874 0.4623 0.0
C2377 C 0.59819 0.44785 0.47062 0.0
C2378 C 0.58321 0.45279 0.47354 0.0
C2379 C 0.58229 0.46869 0.46826 0.0
C2380 C 0.59638 0.47972 0.46005 0.0
C2381 C 0.61138 0.47482 0.45709 0.0
H2382 H 0.57069 0.4725 0.47054 0.0
H2383 H 0.71679 0.4263 0.4409 0.0
H2384 H 0.48389 0.21481 0.46051 0.0
H2385 H 0.50274 0.19636 0.4611 0.0
H2386 H 0.47345 0.16468 0.43162 0.0
H2387 H 0.45408 0.18283 0.43105 0.0
H2388 H 0.49597 0.15613 0.46047 0.0
H2389 H 0.51294 0.17016 0.41532 0.0
H2390 H 0.51201 0.19212 0.40085 0.0
H2391 H 0.52378 0.23959 0.42392 0.0
H2392 H 0.52513 0.21806 0.43848 0.0
H2393 H 0.56691 0.1218 0.44447 0.0
H2394 H 0.53678 0.12631 0.44586 0.0
H2395 H 0.57698 0.19241 0.44361 0.0
H2396 H 0.60692 0.18803 0.44224 0.0
H2397 H 0.54547 0.17914 0.42991 0.0
H2398 H 0.55516 0.1691 0.46741 0.0
H2399 H 0.55797 0.15007 0.48282 0.0
H2400 H 0.4967 0.09947 0.47667 0.0
H2401 H 0.49363 0.11811 0.46112 0.0
C2402 C 0.48079 0.20336 0.45435 0.0
C2403 C 0.46765 0.20052 0.44564 0.0
C2404 C 0.49164 0.19282 0.45471 0.0
C2405 C 0.48968 0.17937 0.44634 0.0
C2406 C 0.4753 0.17517 0.4381 0.0
C2407 C 0.46438 0.18567 0.43775 0.0
C2408 C 0.50496 0.17253 0.44541 0.0
C2409 C 0.50663 0.16087 0.45373 0.0
C2410 C 0.51909 0.17908 0.4367 0.0
C2411 C 0.51886 0.19239 0.42798 0.0
C2412 C 0.51541 0.18532 0.41728 0.0
C2413 C 0.51481 0.19769 0.40907 0.0
C2414 C 0.51775 0.21721 0.41147 0.0
C2415 C 0.52143 0.22445 0.42208 0.0
C2416 C 0.52211 0.21217 0.43031 0.0
C2417 C 0.56927 0.13728 0.44441 0.0
C2418 C 0.58923 0.15456 0.44313 0.0
C2419 C 0.55208 0.13983 0.44518 0.0
C2420 C 0.55465 0.1597 0.44478 0.0
C2421 C 0.57462 0.17693 0.44381 0.0
C2422 C 0.59171 0.17441 0.44301 0.0
C2423 C 0.53669 0.16284 0.44503 0.0
C2424 C 0.53453 0.17389 0.43655 0.0
C2425 C 0.52244 0.15606 0.45369 0.0
C2426 C 0.52427 0.14488 0.46303 0.0
C2427 C 0.54236 0.15384 0.46929 0.0
C2428 C 0.54398 0.14314 0.47806 0.0
C2429 C 0.52755 0.12354 0.4807 0.0
C2430 C 0.50943 0.11463 0.4746 0.0
C2431 C 0.50774 0.12525 0.46581 0.0
H2432 H 0.52884 0.11529 0.4875 0.0
H2433 H 0.51723 0.22674 0.40511 0.0
H2434 H 0.81261 0.42689 0.4619 0.0
H2435 H 0.80561 0.39147 0.46229 0.0
H2436 H 0.83647 0.40076 0.43168 0.0
H2437 H 0.8424 0.4358 0.43091 0.0
H2438 H 0.8018 0.36642 0.43116 0.0
H2439 H 0.85771 0.39605 0.45596 0.0
H2440 H 0.87782 0.41643 0.47166 0.0
H2441 H 0.82833 0.37591 0.49276 0.0
H2442 H 0.80778 0.35544 0.47717 0.0
H2443 H 0.78776 0.26604 0.43286 0.0
H2444 H 0.80781 0.3039 0.43401 0.0
H2445 H 0.77061 0.30213 0.46099 0.0
H2446 H 0.75056 0.26435 0.45988 0.0
H2447 H 0.81325 0.33326 0.46277 0.0
H2448 H 0.75626 0.30725 0.43736 0.0
H2449 H 0.73656 0.28679 0.42158 0.0
H2450 H 0.7899 0.32132 0.40145 0.0
H2451 H 0.81002 0.34177 0.41717 0.0
C2452 C 0.81786 0.42142 0.45522 0.0
C2453 C 0.82798 0.43424 0.44634 0.0
C2454 C 0.81413 0.40121 0.45554 0.0
C2455 C 0.82076 0.39348 0.44708 0.0
C2456 C 0.83129 0.40639 0.43833 0.0
C2457 C 0.83484 0.42653 0.43795 0.0
C2458 C 0.8153 0.37149 0.44699 0.0
C2459 C 0.80478 0.35935 0.43799 0.0
C2460 C 0.81882 0.36207 0.45596 0.0
C2461 C 0.83114 0.37429 0.46537 0.0
C2462 C 0.85104 0.39157 0.46394 0.0
C2463 C 0.86253 0.40312 0.47282 0.0
C2464 C 0.85434 0.39749 0.4832 0.0
C2465 C 0.83465 0.38026 0.48471 0.0
C2466 C 0.82309 0.36866 0.47585 0.0
C2467 C 0.78426 0.27373 0.43921 0.0
C2468 C 0.76753 0.26236 0.44622 0.0
C2469 C 0.79565 0.29531 0.43984 0.0
C2470 C 0.79053 0.30576 0.44752 0.0
C2471 C 0.77479 0.29434 0.45501 0.0
C2472 C 0.76329 0.27281 0.45432 0.0
C2473 C 0.79975 0.32845 0.44701 0.0
C2474 C 0.81077 0.34059 0.45589 0.0
C2475 C 0.79686 0.33797 0.43792 0.0
C2476 C 0.78471 0.32585 0.42845 0.0
C2477 C 0.76383 0.31036 0.42959 0.0
C2478 C 0.75258 0.29878 0.42065 0.0
C2479 C 0.76199 0.30271 0.41053 0.0
C2480 C 0.78265 0.31826 0.40931 0.0
C2481 C 0.79398 0.32985 0.41822 0.0
H2482 H 0.75325 0.29373 0.40362 0.0
H2483 H 0.86326 0.40646 0.49006 0.0
H2484 H 0.71057 0.25375 0.21614 0.0
H2485 H 0.74235 0.28723 0.21501 0.0
H2486 H 0.77839 0.25754 0.2184 0.0
H2487 H 0.74652 0.22393 0.21995 0.0
H2488 H 0.79303 0.29021 0.23111 0.0
H2489 H 0.77623 0.27768 0.19415 0.0
H2490 H 0.75419 0.26775 0.17801 0.0
H2491 H 0.74433 0.31868 0.18315 0.0
H2492 H 0.76607 0.32875 0.19942 0.0
H2493 H 0.86525 0.40206 0.20656 0.0
H2494 H 0.84481 0.36439 0.20445 0.0
H2495 H 0.81629 0.35942 0.23538 0.0
H2496 H 0.83644 0.39675 0.23751 0.0
H2497 H 0.80444 0.34152 0.20287 0.0
H2498 H 0.80191 0.31457 0.24723 0.0
H2499 H 0.82557 0.32388 0.26267 0.0
H2500 H 0.87774 0.3506 0.24123 0.0
H2501 H 0.8544 0.34119 0.22565 0.0
C2502 C 0.72524 0.25432 0.21668 0.0
C2503 C 0.726 0.23617 0.21817 0.0
C2504 C 0.74342 0.27346 0.2159 0.0
C2505 C 0.76277 0.27487 0.21647 0.0
C2506 C 0.76362 0.25679 0.21787 0.0
C2507 C 0.7454 0.23759 0.21867 0.0
C2508 C 0.78195 0.29544 0.21617 0.0
C2509 C 0.79566 0.30139 0.22489 0.0
C2510 C 0.78574 0.30982 0.20787 0.0
C2511 C 0.77272 0.30392 0.19805 0.0
C2512 C 0.76926 0.28669 0.19188 0.0
C2513 C 0.75683 0.28104 0.1827 0.0
C2514 C 0.74785 0.29256 0.17956 0.0
C2515 C 0.75131 0.30977 0.18559 0.0
C2516 C 0.76372 0.31548 0.19478 0.0
C2517 C 0.85482 0.39287 0.21297 0.0
C2518 C 0.85256 0.4024 0.22222 0.0
C2519 C 0.8432 0.37137 0.21176 0.0
C2520 C 0.82918 0.35905 0.2198 0.0
C2521 C 0.82736 0.36851 0.22917 0.0
C2522 C 0.83896 0.38992 0.23039 0.0
C2523 C 0.81493 0.33658 0.21808 0.0
C2524 C 0.8021 0.33026 0.20898 0.0
C2525 C 0.81222 0.32177 0.22592 0.0
C2526 C 0.82637 0.32725 0.23526 0.0
C2527 C 0.81842 0.32231 0.24579 0.0
C2528 C 0.83178 0.32764 0.25458 0.0
C2529 C 0.85314 0.33786 0.25293 0.0
C2530 C 0.86119 0.34274 0.2425 0.0
C2531 C 0.84789 0.33743 0.23369 0.0
H2532 H 0.86346 0.34198 0.25975 0.0
H2533 H 0.73823 0.28816 0.17245 0.0
H2534 H 0.75183 0.46964 0.21233 0.0
H2535 H 0.71774 0.46623 0.21077 0.0
H2536 H 0.74085 0.52535 0.22636 0.0
H2537 H 0.77517 0.52894 0.22784 0.0
H2538 H 0.70332 0.49205 0.23529 0.0
H2539 H 0.73086 0.52396 0.20133 0.0
H2540 H 0.74866 0.52883 0.18393 0.0
H2541 H 0.70163 0.46819 0.17384 0.0
H2542 H 0.6837 0.46282 0.19125 0.0
H2543 H 0.60312 0.47839 0.22873 0.0
H2544 H 0.64089 0.49549 0.22745 0.0
H2545 H 0.63506 0.44516 0.20793 0.0
H2546 H 0.59758 0.42809 0.20916 0.0
H2547 H 0.66613 0.4811 0.20074 0.0
H2548 H 0.64236 0.44649 0.23496 0.0
H2549 H 0.62424 0.43923 0.25242 0.0
H2550 H 0.66396 0.50237 0.26211 0.0
H2551 H 0.6821 0.51007 0.24462 0.0
C2552 C 0.74965 0.48196 0.21535 0.0
C2553 C 0.76606 0.49954 0.22021 0.0
C2554 C 0.73025 0.48006 0.21441 0.0
C2555 C 0.72686 0.4956 0.2184 0.0
C2556 C 0.74324 0.51326 0.22319 0.0
C2557 C 0.76279 0.51532 0.22399 0.0
C2558 C 0.70583 0.49267 0.21801 0.0
C2559 C 0.69531 0.49018 0.22775 0.0
C2560 C 0.69534 0.48975 0.20815 0.0
C2561 C 0.706 0.49294 0.19764 0.0
C2562 C 0.72439 0.51159 0.19544 0.0
C2563 C 0.73449 0.51445 0.18557 0.0
C2564 C 0.7263 0.49881 0.17779 0.0
C2565 C 0.70796 0.48029 0.17987 0.0
C2566 C 0.69781 0.47734 0.18974 0.0
C2567 C 0.60993 0.47112 0.22406 0.0
C2568 C 0.59735 0.45189 0.21905 0.0
C2569 C 0.63148 0.48091 0.22333 0.0
C2570 C 0.64079 0.47149 0.21768 0.0
C2571 C 0.62824 0.45278 0.21228 0.0
C2572 C 0.60677 0.44306 0.21296 0.0
C2573 C 0.66345 0.48007 0.21803 0.0
C2574 C 0.67427 0.48351 0.20829 0.0
C2575 C 0.67416 0.48356 0.22789 0.0
C2576 C 0.6634 0.47892 0.23844 0.0
C2577 C 0.64712 0.45886 0.24079 0.0
C2578 C 0.63686 0.45466 0.25068 0.0
C2579 C 0.6429 0.47035 0.25835 0.0
C2580 C 0.65926 0.49025 0.25615 0.0
C2581 C 0.66953 0.49454 0.24624 0.0
H2582 H 0.63494 0.46707 0.26602 0.0
H2583 H 0.73414 0.50106 0.17015 0.0
H2584 H 0.52286 0.28489 0.21171 0.0
H2585 H 0.52524 0.25387 0.20904 0.0
H2586 H 0.46688 0.21731 0.22537 0.0
H2587 H 0.46432 0.24844 0.22795 0.0
H2588 H 0.5 0.21232 0.23313 0.0
H2589 H 0.46661 0.20921 0.20009 0.0
H2590 H 0.46075 0.22268 0.18324 0.0
H2591 H 0.52059 0.23724 0.17164 0.0
H2592 H 0.52696 0.22415 0.1885 0.0
H2593 H 0.51477 0.12726 0.22344 0.0
H2594 H 0.4967 0.14677 0.22297 0.0
H2595 H 0.54672 0.19458 0.20442 0.0
H2596 H 0.56491 0.17551 0.20499 0.0
H2597 H 0.50958 0.18804 0.19753 0.0
H2598 H 0.54577 0.19838 0.23124 0.0
H2599 H 0.5538 0.18676 0.24812 0.0
H2600 H 0.4908 0.16069 0.25851 0.0
H2601 H 0.48232 0.17186 0.24158 0.0
C2602 C 0.51047 0.27021 0.21465 0.0
C2603 C 0.49343 0.269 0.22005 0.0
C2604 C 0.51178 0.25251 0.21307 0.0
C2605 C 0.49616 0.23332 0.21695 0.0
C2606 C 0.47901 0.23199 0.22227 0.0
C2607 C 0.47754 0.2497 0.22371 0.0
C2608 C 0.49865 0.21505 0.21594 0.0
C2609 C 0.50154 0.20659 0.22536 0.0
C2610 C 0.50107 0.20795 0.20579 0.0
C2611 C 0.49731 0.21579 0.1956 0.0
C2612 C 0.47859 0.21543 0.19399 0.0
C2613 C 0.47517 0.22298 0.18442 0.0
C2614 C 0.4903 0.23084 0.17638 0.0
C2615 C 0.50888 0.23114 0.17788 0.0
C2616 C 0.5124 0.22363 0.18743 0.0
C2617 C 0.52179 0.14182 0.21916 0.0
C2618 C 0.54131 0.14982 0.21427 0.0
C2619 C 0.51142 0.1529 0.21887 0.0
C2620 C 0.52046 0.1722 0.21373 0.0
C2621 C 0.53939 0.17966 0.20837 0.0
C2622 C 0.54975 0.16865 0.20867 0.0
C2623 C 0.51141 0.18566 0.21472 0.0
C2624 C 0.50743 0.19332 0.20531 0.0
C2625 C 0.50823 0.19223 0.22488 0.0
C2626 C 0.51335 0.1857 0.2351 0.0
C2627 C 0.53359 0.19002 0.23709 0.0
C2628 C 0.53823 0.18353 0.24666 0.0
C2629 C 0.5228 0.17293 0.25437 0.0
C2630 C 0.50272 0.16885 0.25252 0.0
C2631 C 0.49798 0.17525 0.24294 0.0
H2632 H 0.52642 0.16793 0.26178 0.0
H2633 H 0.48762 0.23667 0.16898 0.0
H2634 H 0.22204 0.74332 0.78753 0.0
H2635 H 0.25642 0.77409 0.78997 0.0
H2636 H 0.28451 0.74113 0.77651 0.0
H2637 H 0.25038 0.71044 0.77415 0.0
H2638 H 0.30542 0.76383 0.79417 0.0
H2639 H 0.27709 0.7727 0.76104 0.0
H2640 H 0.2511 0.77524 0.75013 0.0
H2641 H 0.26007 0.82719 0.769 0.0
H2642 H 0.28592 0.82476 0.78012 0.0
H2643 H 0.39396 0.84749 0.76359 0.0
H2644 H 0.35668 0.82555 0.76542 0.0
H2645 H 0.3615 0.83672 0.79965 0.0
H2646 H 0.399 0.85926 0.79788 0.0
H2647 H 0.32303 0.82736 0.77368 0.0
H2648 H 0.33199 0.78831 0.81114 0.0
H2649 H 0.35894 0.78465 0.82047 0.0
H2650 H 0.38988 0.79092 0.79036 0.0
H2651 H 0.36295 0.79424 0.78085 0.0
C2652 C 0.2356 0.74262 0.78523 0.0
C2653 C 0.23358 0.72459 0.78058 0.0
C2654 C 0.25517 0.76019 0.78658 0.0
C2655 C 0.27297 0.75989 0.78336 0.0
C2656 C 0.27097 0.74167 0.77906 0.0
C2657 C 0.25148 0.72422 0.77763 0.0
C2658 C 0.29372 0.77869 0.78397 0.0
C2659 C 0.30919 0.77783 0.78983 0.0
C2660 C 0.29868 0.79687 0.77819 0.0
C2661 C 0.28323 0.79839 0.77149 0.0
C2662 C 0.27338 0.78455 0.76292 0.0
C2663 C 0.25871 0.78599 0.75668 0.0
C2664 C 0.25388 0.80133 0.75889 0.0
C2665 C 0.26378 0.81529 0.76732 0.0
C2666 C 0.27845 0.81389 0.77359 0.0
C2667 C 0.38712 0.846 0.77147 0.0
C2668 C 0.39955 0.85505 0.78061 0.0
C2669 C 0.36574 0.83336 0.77249 0.0
C2670 C 0.35639 0.82935 0.78267 0.0
C2671 C 0.36849 0.83951 0.79173 0.0
C2672 C 0.38991 0.85228 0.79071 0.0
C2673 C 0.33467 0.81243 0.78387 0.0
C2674 C 0.31908 0.8136 0.77831 0.0
C2675 C 0.32964 0.79434 0.78974 0.0
C2676 C 0.34561 0.79179 0.79533 0.0
C2677 C 0.34451 0.78881 0.80652 0.0
C2678 C 0.35977 0.7868 0.81184 0.0
C2679 C 0.37615 0.78763 0.80602 0.0
C2680 C 0.37723 0.79035 0.79486 0.0
C2681 C 0.36197 0.7923 0.78951 0.0
H2682 H 0.38798 0.78612 0.81015 0.0
H2683 H 0.24252 0.80242 0.75405 0.0
H2684 H 0.28216 0.51476 0.79586 0.0
H2685 H 0.25308 0.52074 0.79693 0.0
H2686 H 0.22675 0.48386 0.76834 0.0
H2687 H 0.25608 0.47843 0.76699 0.0
H2688 H 0.22746 0.51946 0.76693 0.0
H2689 H 0.20538 0.46587 0.79325 0.0
H2690 H 0.20865 0.44866 0.80936 0.0
H2691 H 0.21723 0.49953 0.82907 0.0
H2692 H 0.21431 0.51719 0.81305 0.0
H2693 H 0.13637 0.52352 0.76837 0.0
H2694 H 0.15751 0.50736 0.7699 0.0
H2695 H 0.18913 0.54621 0.7972 0.0
H2696 H 0.16821 0.56251 0.7957 0.0
H2697 H 0.18366 0.50699 0.79928 0.0
H2698 H 0.20903 0.56172 0.77303 0.0
H2699 H 0.20594 0.57948 0.75711 0.0
H2700 H 0.19185 0.5268 0.73742 0.0
H2701 H 0.1945 0.50859 0.75328 0.0
C2702 C 0.27018 0.50793 0.7898 0.0
C2703 C 0.27145 0.49611 0.78134 0.0
C2704 C 0.25345 0.51117 0.79049 0.0
C2705 C 0.23762 0.50256 0.78278 0.0
C2706 C 0.23873 0.49056 0.77441 0.0
C2707 C 0.25544 0.48734 0.7737 0.0
C2708 C 0.22057 0.50711 0.78303 0.0
C2709 C 0.21764 0.51635 0.77394 0.0
C2710 C 0.20809 0.50353 0.79227 0.0
C2711 C 0.2098 0.49293 0.80193 0.0
C2712 C 0.20813 0.47346 0.80101 0.0
C2713 C 0.20989 0.46362 0.81013 0.0
C2714 C 0.21319 0.47302 0.82023 0.0
C2715 C 0.21469 0.49227 0.82124 0.0
C2716 C 0.21296 0.5022 0.81214 0.0
C2717 C 0.1476 0.52837 0.77481 0.0
C2718 C 0.15079 0.54446 0.78183 0.0
C2719 C 0.1596 0.51909 0.77569 0.0
C2720 C 0.1751 0.52585 0.78356 0.0
C2721 C 0.17724 0.54078 0.79108 0.0
C2722 C 0.16522 0.55004 0.79022 0.0
C2723 C 0.19059 0.5192 0.78318 0.0
C2724 C 0.19333 0.50977 0.79225 0.0
C2725 C 0.20301 0.52266 0.77394 0.0
C2726 C 0.20174 0.53371 0.76436 0.0
C2727 C 0.20513 0.55387 0.76532 0.0
C2728 C 0.20347 0.56402 0.75631 0.0
C2729 C 0.19865 0.55425 0.74626 0.0
C2730 C 0.19554 0.53433 0.74521 0.0
C2731 C 0.19712 0.52409 0.75421 0.0
H2732 H 0.19737 0.56213 0.73929 0.0
H2733 H 0.21454 0.46537 0.82728 0.0
H2734 H 0.50031 0.76688 0.79058 0.0
H2735 H 0.49504 0.73191 0.79119 0.0
H2736 H 0.47802 0.72331 0.75765 0.0
H2737 H 0.48375 0.75829 0.75686 0.0
H2738 H 0.44945 0.69187 0.77071 0.0
H2739 H 0.52326 0.72975 0.76486 0.0
H2740 H 0.5593 0.75619 0.76901 0.0
H2741 H 0.55433 0.72803 0.79975 0.0
H2742 H 0.51813 0.70157 0.79584 0.0
H2743 H 0.44116 0.599 0.75745 0.0
H2744 H 0.45574 0.63615 0.75791 0.0
H2745 H 0.4736 0.63786 0.79101 0.0
H2746 H 0.46003 0.60052 0.79048 0.0
H2747 H 0.50193 0.67278 0.77981 0.0
H2748 H 0.42898 0.63475 0.78589 0.0
H2749 H 0.39296 0.60781 0.78205 0.0
H2750 H 0.39584 0.63637 0.75171 0.0
H2751 H 0.43202 0.6633 0.75528 0.0
C2752 C 0.4958 0.75768 0.78328 0.0
C2753 C 0.49224 0.76533 0.7737 0.0
C2754 C 0.49275 0.7377 0.78366 0.0
C2755 C 0.48611 0.72505 0.77447 0.0
C2756 C 0.48301 0.7328 0.76485 0.0
C2757 C 0.48616 0.75275 0.76444 0.0
C2758 C 0.48126 0.70334 0.77493 0.0
C2759 C 0.46099 0.68772 0.77259 0.0
C2760 C 0.49615 0.69794 0.77776 0.0
C2761 C 0.51791 0.71382 0.78011 0.0
C2762 C 0.52978 0.72931 0.77255 0.0
C2763 C 0.55026 0.74427 0.77485 0.0
C2764 C 0.55908 0.74383 0.78466 0.0
C2765 C 0.54746 0.72838 0.79217 0.0
C2766 C 0.52697 0.71338 0.78991 0.0
C2767 C 0.44882 0.60722 0.76474 0.0
C2768 C 0.44922 0.5966 0.77397 0.0
C2769 C 0.45695 0.62852 0.76502 0.0
C2770 C 0.46529 0.63966 0.77457 0.0
C2771 C 0.46704 0.62948 0.78359 0.0
C2772 C 0.45908 0.60811 0.78329 0.0
C2773 C 0.47026 0.66141 0.77532 0.0
C2774 C 0.49042 0.67697 0.77797 0.0
C2775 C 0.45521 0.66683 0.77288 0.0
C2776 C 0.43327 0.65096 0.77082 0.0
C2777 C 0.42197 0.63523 0.77837 0.0
C2778 C 0.40153 0.61996 0.77624 0.0
C2779 C 0.39213 0.62035 0.76663 0.0
C2780 C 0.40314 0.63608 0.75915 0.0
C2781 C 0.42362 0.65136 0.76122 0.0
H2782 H 0.37631 0.6085 0.76499 0.0
H2783 H 0.57494 0.75542 0.78642 0.0
H2784 H 0.51646 0.72026 0.56506 0.0
H2785 H 0.49377 0.68315 0.56207 0.0
H2786 H 0.46747 0.69574 0.53437 0.0
H2787 H 0.48958 0.73279 0.5375 0.0
H2788 H 0.43809 0.66983 0.54776 0.0
H2789 H 0.49789 0.67428 0.53151 0.0
H2790 H 0.53437 0.68354 0.53018 0.0
H2791 H 0.52655 0.64535 0.55749 0.0
H2792 H 0.49007 0.63607 0.55909 0.0
H2793 H 0.37377 0.56438 0.53386 0.0
H2794 H 0.40159 0.60047 0.53262 0.0
H2795 H 0.4288 0.59349 0.56164 0.0
H2796 H 0.40089 0.55755 0.56306 0.0
H2797 H 0.4582 0.61634 0.54607 0.0
H2798 H 0.39957 0.61454 0.56317 0.0
H2799 H 0.36307 0.60522 0.5646 0.0
H2800 H 0.36911 0.63886 0.53562 0.0
H2801 H 0.40559 0.64812 0.53393 0.0
C2802 C 0.50599 0.71511 0.55827 0.0
C2803 C 0.5048 0.72949 0.55154 0.0
C2804 C 0.49316 0.6939 0.55651 0.0
C2805 C 0.47897 0.68666 0.54797 0.0
C2806 C 0.47832 0.70098 0.541 0.0
C2807 C 0.49113 0.72217 0.54274 0.0
C2808 C 0.46357 0.66431 0.54689 0.0
C2809 C 0.44253 0.65818 0.54717 0.0
C2810 C 0.46934 0.64907 0.5464 0.0
C2811 C 0.49128 0.65463 0.54548 0.0
C2812 C 0.50399 0.66799 0.53729 0.0
C2813 C 0.52466 0.67322 0.53648 0.0
C2814 C 0.53279 0.66508 0.54376 0.0
C2815 C 0.52024 0.65166 0.55186 0.0
C2816 C 0.49955 0.64639 0.55272 0.0
C2817 C 0.38565 0.57052 0.53999 0.0
C2818 C 0.385 0.5581 0.54861 0.0
C2819 C 0.4016 0.5911 0.53923 0.0
C2820 C 0.41714 0.59967 0.54709 0.0
C2821 C 0.41699 0.58714 0.55547 0.0
C2822 C 0.40103 0.56657 0.55625 0.0
C2823 C 0.43285 0.62199 0.54695 0.0
C2824 C 0.45387 0.62808 0.54652 0.0
C2825 C 0.42711 0.63725 0.54731 0.0
C2826 C 0.40523 0.63182 0.54835 0.0
C2827 C 0.39307 0.6198 0.55705 0.0
C2828 C 0.37239 0.61455 0.55792 0.0
C2829 C 0.36376 0.62139 0.55019 0.0
C2830 C 0.37581 0.63354 0.54159 0.0
C2831 C 0.39648 0.6388 0.54068 0.0
H2832 H 0.34775 0.61731 0.55088 0.0
H2833 H 0.54879 0.66914 0.54311 0.0
H2834 H 0.26653 0.76305 0.54052 0.0
H2835 H 0.30405 0.78004 0.54022 0.0
H2836 H 0.30821 0.82803 0.5611 0.0
H2837 H 0.27042 0.81114 0.56137 0.0
H2838 H 0.33762 0.81707 0.53521 0.0
H2839 H 0.34382 0.83594 0.58048 0.0
H2840 H 0.32173 0.8248 0.59673 0.0
H2841 H 0.28379 0.76448 0.58292 0.0
H2842 H 0.3058 0.77518 0.56669 0.0
H2843 H 0.44444 0.86162 0.54957 0.0
H2844 H 0.40961 0.8563 0.54728 0.0
H2845 H 0.38411 0.79912 0.56499 0.0
H2846 H 0.41875 0.80461 0.56747 0.0
H2847 H 0.36639 0.81911 0.5714 0.0
H2848 H 0.38261 0.80113 0.53686 0.0
H2849 H 0.40311 0.80732 0.52027 0.0
H2850 H 0.3941 0.85769 0.51206 0.0
H2851 H 0.37376 0.85195 0.52868 0.0
C2852 C 0.27536 0.7776 0.54475 0.0
C2853 C 0.26544 0.78569 0.55102 0.0
C2854 C 0.29687 0.78728 0.54459 0.0
C2855 C 0.3089 0.80515 0.55073 0.0
C2856 C 0.29917 0.8141 0.55639 0.0
C2857 C 0.2776 0.8044 0.55657 0.0
C2858 C 0.3312 0.8127 0.55222 0.0
C2859 C 0.34403 0.81781 0.54313 0.0
C2860 C 0.3394 0.81318 0.56252 0.0
C2861 C 0.3263 0.80647 0.57233 0.0
C2862 C 0.33079 0.82029 0.58094 0.0
C2863 C 0.31829 0.81405 0.59014 0.0
C2864 C 0.30131 0.79397 0.59083 0.0
C2865 C 0.29688 0.78005 0.58236 0.0
C2866 C 0.30936 0.7862 0.57316 0.0
C2867 C 0.43135 0.84792 0.55294 0.0
C2868 C 0.43426 0.83355 0.55872 0.0
C2869 C 0.41148 0.84489 0.55163 0.0
C2870 C 0.39421 0.82724 0.55591 0.0
C2871 C 0.39719 0.81293 0.56168 0.0
C2872 C 0.41699 0.81607 0.5631 0.0
C2873 C 0.37291 0.82334 0.55438 0.0
C2874 C 0.36021 0.8189 0.56349 0.0
C2875 C 0.36471 0.82284 0.54406 0.0
C2876 C 0.37689 0.82627 0.53406 0.0
C2877 C 0.38514 0.81363 0.53155 0.0
C2878 C 0.39671 0.81703 0.52214 0.0
C2879 C 0.39996 0.83293 0.51513 0.0
C2880 C 0.3916 0.84541 0.51751 0.0
C2881 C 0.38005 0.84208 0.52692 0.0
H2882 H 0.40891 0.83554 0.50785 0.0
H2883 H 0.29163 0.78918 0.59795 0.0
H2884 H 0.22939 0.49389 0.53675 0.0
H2885 H 0.21531 0.51675 0.53568 0.0
H2886 H 0.17302 0.48357 0.56157 0.0
H2887 H 0.18684 0.4602 0.5626 0.0
H2888 H 0.15685 0.49869 0.54411 0.0
H2889 H 0.21411 0.52184 0.56886 0.0
H2890 H 0.24922 0.53005 0.57391 0.0
H2891 H 0.27504 0.57584 0.54898 0.0
H2892 H 0.24004 0.5676 0.54364 0.0
H2893 H 0.14232 0.58196 0.56106 0.0
H2894 H 0.14701 0.55204 0.55948 0.0
H2895 H 0.2019 0.58834 0.5403 0.0
H2896 H 0.19765 0.61838 0.54227 0.0
H2897 H 0.21009 0.56987 0.5549 0.0
H2898 H 0.15421 0.5478 0.52982 0.0
H2899 H 0.11956 0.53932 0.52369 0.0
H2900 H 0.09156 0.49213 0.54783 0.0
H2901 H 0.12606 0.50051 0.5542 0.0
C2902 C 0.2166 0.49092 0.54198 0.0
C2903 C 0.20931 0.47527 0.54981 0.0
C2904 C 0.20866 0.5041 0.54139 0.0
C2905 C 0.19331 0.50194 0.54862 0.0
C2906 C 0.18488 0.48545 0.55593 0.0
C2907 C 0.1929 0.47224 0.55656 0.0
C2908 C 0.18816 0.51846 0.54941 0.0
C2909 C 0.16833 0.51423 0.54658 0.0
C2910 C 0.20335 0.53874 0.55245 0.0
C2911 C 0.22444 0.54397 0.55579 0.0
C2912 C 0.22726 0.53354 0.5644 0.0
C2913 C 0.24714 0.53821 0.56732 0.0
C2914 C 0.26435 0.55344 0.56176 0.0
C2915 C 0.2617 0.56404 0.55327 0.0
C2916 C 0.24184 0.55938 0.5503 0.0
C2917 C 0.1552 0.58337 0.55639 0.0
C2918 C 0.16968 0.60241 0.55181 0.0
C2919 C 0.15784 0.56628 0.55545 0.0
C2920 C 0.17475 0.56785 0.5497 0.0
C2921 C 0.1888 0.58674 0.54482 0.0
C2922 C 0.18637 0.60388 0.54593 0.0
C2923 C 0.17876 0.5504 0.54936 0.0
C2924 C 0.19846 0.55441 0.55238 0.0
C2925 C 0.16348 0.53002 0.54638 0.0
C2926 C 0.14272 0.52493 0.54256 0.0
C2927 C 0.14066 0.53572 0.53388 0.0
C2928 C 0.12105 0.53091 0.53035 0.0
C2929 C 0.10337 0.51523 0.53539 0.0
C2930 C 0.10527 0.50429 0.54395 0.0
C2931 C 0.12484 0.50905 0.54751 0.0
H2932 H 0.0882 0.51153 0.53265 0.0
H2933 H 0.27973 0.55707 0.56404 0.0
H2934 H 0.23024 0.23238 0.04533 0.0
H2935 H 0.2374 0.23103 0.02622 0.0
H2936 H 0.18431 0.23607 0.01793 0.0
H2937 H 0.17656 0.23626 0.0371 0.0
H2938 H 0.18338 0.208 0.00645 0.0
H2939 H 0.2371 0.27675 0.01416 0.0
H2940 H 0.26686 0.30463 0.02386 0.0
H2941 H 0.30291 0.27645 0.01648 0.0
H2942 H 0.27328 0.24823 0.00685 0.0
H2943 H 0.20919 0.22451 0.95073 0.0
H2944 H 0.20639 0.23328 0.96945 0.0
H2945 H 0.24303 0.20717 0.97978 0.0
H2946 H 0.24567 0.19808 0.96106 0.0
H2947 H 0.25279 0.2479 0.9896 0.0
H2948 H 0.1963 0.17797 0.98264 0.0
H2949 H 0.16626 0.15197 0.97229 0.0
H2950 H 0.13514 0.18591 0.97774 0.0
H2951 H 0.16516 0.2123 0.98798 0.0
C2952 C 0.22031 0.23349 0.03939 0.0
C2953 C 0.20292 0.2345 0.04262 0.0
C2954 C 0.22445 0.23283 0.02847 0.0
C2955 C 0.2116 0.23378 0.02057 0.0
C2956 C 0.19447 0.2353 0.02384 0.0
C2957 C 0.19007 0.23548 0.03477 0.0
C2958 C 0.2152 0.23178 0.00895 0.0
C2959 C 0.19852 0.21706 0.00277 0.0
C2960 C 0.235 0.24329 0.0041 0.0
C2961 C 0.25289 0.26027 0.00986 0.0
C2962 C 0.25133 0.27642 0.01467 0.0
C2963 C 0.26818 0.2923 0.02014 0.0
C2964 C 0.28675 0.29229 0.02081 0.0
C2965 C 0.28851 0.27642 0.01597 0.0
C2966 C 0.2717 0.26049 0.01049 0.0
C2967 C 0.21691 0.22093 0.95698 0.0
C2968 C 0.22761 0.21059 0.95449 0.0
C2969 C 0.21526 0.2259 0.96764 0.0
C2970 C 0.22449 0.22083 0.97594 0.0
C2971 C 0.23587 0.21124 0.97345 0.0
C2972 C 0.23725 0.20596 0.96279 0.0
C2973 C 0.22104 0.22424 0.9873 0.0
C2974 C 0.2377 0.2391 0.99337 0.0
C2975 C 0.20119 0.21319 0.99202 0.0
C2976 C 0.18306 0.19721 0.98597 0.0
C2977 C 0.18313 0.17998 0.98155 0.0
C2978 C 0.16609 0.16516 0.97572 0.0
C2979 C 0.14882 0.16731 0.97433 0.0
C2980 C 0.14853 0.18427 0.9788 0.0
C2981 C 0.16555 0.19916 0.98462 0.0
H2982 H 0.13565 0.15582 0.96982 0.0
H2983 H 0.29978 0.30459 0.02505 0.0
H2984 H 0.81897 0.00111 0.95374 0.0
H2985 H 0.81002 0.99316 0.97258 0.0
H2986 H 0.77287 0.02194 0.97129 0.0
H2987 H 0.7831 0.03148 0.95251 0.0
H2988 H 0.7928 0.03181 0.98928 0.0
H2989 H 0.7508 0.96808 0.97146 0.0
H2990 H 0.74212 0.93924 0.95895 0.0
H2991 H 0.78206 0.92418 0.9763 0.0
H2992 H 0.79124 0.95313 0.98882 0.0
H2993 H 0.75048 0.98388 0.04108 0.0
H2994 H 0.7516 0.99093 0.02179 0.0
H2995 H 0.80471 0.98374 0.01821 0.0
H2996 H 0.8046 0.97792 0.03747 0.0
H2997 H 0.77033 0.96123 0.00259 0.0
H2998 H 0.81455 0.02911 0.01894 0.0
H2999 H 0.82105 0.05736 0.03146 0.0
H3000 H 0.77253 0.0629 0.01663 0.0
H3001 H 0.76555 0.03445 0.00413 0.0
C3002 C 0.80922 0.00617 0.95745 0.0
C3003 C 0.80186 0.01706 0.95154 0.0
C3004 C 0.80377 0.00123 0.96822 0.0
C3005 C 0.79034 0.00648 0.97331 0.0
C3006 C 0.7831 0.01754 0.96751 0.0
C3007 C 0.78882 0.02282 0.95673 0.0
C3008 C 0.78438 0.00073 0.98474 0.0
C3009 C 0.78747 0.01625 0.99213 0.0
C3010 C 0.77738 0.98044 0.98852 0.0
C3011 C 0.7718 0.96288 0.98105 0.0
C3012 C 0.75784 0.9587 0.97257 0.0
C3013 C 0.75281 0.94233 0.96548 0.0
C3014 C 0.76155 0.92991 0.96682 0.0
C3015 C 0.7753 0.93381 0.97527 0.0
C3016 C 0.7804 0.95019 0.98238 0.0
C3017 C 0.76256 0.98401 0.03624 0.0
C3018 C 0.77743 0.98028 0.04091 0.0
C3019 C 0.76304 0.98788 0.0252 0.0
C3020 C 0.7782 0.98778 0.01863 0.0
C3021 C 0.79279 0.98369 0.02317 0.0
C3022 C 0.79257 0.9802 0.0342 0.0
C3023 C 0.77936 0.99241 0.00702 0.0
C3024 C 0.77531 0.97665 -0.00036 0.0
C3025 C 0.78505 0.01233 0.00323 0.0
C3026 C 0.78935 0.02949 0.0107 0.0
C3027 C 0.80514 0.03622 0.01842 0.0
C3028 C 0.80894 0.05229 0.0255 0.0
C3029 C 0.79717 0.06187 0.02486 0.0
C3030 C 0.78161 0.05544 0.01713 0.0
C3031 C 0.77773 0.03935 0.01005 0.0
H3032 H 0.80014 0.07432 0.03035 0.0
H3033 H 0.75765 0.91724 0.96131 0.0
H3034 H 0.95206 0.74969 0.96205 0.0
H3035 H 0.9574 0.75059 0.98153 0.0
H3036 H 0.02242 0.79418 0.97703 0.0
H3037 H 0.01722 0.7931 0.95759 0.0
H3038 H 0.01719 0.76728 0.99227 0.0
H3039 H 0.98844 0.81008 0.98407 0.0
H3040 H 0.96293 0.8179 0.97641 0.0
H3041 H 0.91547 0.77147 0.99647 0.0
H3042 H 0.94066 0.76317 0.00414 0.0
H3043 H 0.04257 0.81673 0.0437 0.0
H3044 H 0.03633 0.80823 0.02451 0.0
H3045 H 0.97321 0.76167 0.03153 0.0
H3046 H 0.97924 0.7703 0.05069 0.0
H3047 H 0.97626 0.78763 0.01529 0.0
H3048 H 0.00698 0.74722 0.02452 0.0
H3049 H 0.03357 0.741 0.03218 0.0
H3050 H 0.07869 0.785 0.01027 0.0
H3051 H 0.05243 0.79171 0.00257 0.0
C3052 C 0.9675 0.75934 0.96523 0.0
C3053 C 0.9842 0.77139 0.95831 0.0
C3054 C 0.97054 0.75986 0.97634 0.0
C3055 C 0.99026 0.77271 0.98074 0.0
C3056 C 0.00708 0.78414 0.97381 0.0
C3057 C 0.00409 0.78348 0.9627 0.0
C3058 C 0.99327 0.7751 0.99256 0.0
C3059 C 0.00836 0.77189 0.99729 0.0
C3060 C 0.98152 0.78081 0.99915 0.0
C3061 C 0.96638 0.78585 0.99459 0.0
C3062 C 0.97253 0.80143 0.98679 0.0
C3063 C 0.95813 0.80597 0.98245 0.0
C3064 C 0.93758 0.79515 0.98593 0.0
C3065 C 0.93139 0.77981 0.99377 0.0
C3066 C 0.94572 0.77519 0.99812 0.0
C3067 C 0.02739 0.80465 0.04114 0.0
C3068 C 0.0114 0.79417 0.04868 0.0
C3069 C 0.0239 0.79969 0.03021 0.0
C3070 C 0.00435 0.78422 0.02663 0.0
C3071 C 0.98842 0.7736 0.03415 0.0
C3072 C 0.99194 0.77845 0.04508 0.0
C3073 C 0.00021 0.77987 0.01498 0.0
C3074 C 0.98495 0.78281 0.01028 0.0
C3075 C 0.01195 0.77415 0.00843 0.0
C3076 C 0.02777 0.77009 0.01303 0.0
C3077 C 0.02261 0.75569 0.02139 0.0
C3078 C 0.03762 0.75206 0.02573 0.0
C3079 C 0.05782 0.76263 0.02173 0.0
C3080 C 0.06304 0.77683 0.01336 0.0
C3081 C 0.0481 0.78054 0.009 0.0
H3082 H 0.06942 0.75979 0.0251 0.0
H3083 H 0.92646 0.79868 0.98256 0.0
H3084 H 0.85699 0.50528 0.2935 0.0
H3085 H 0.85309 0.51245 0.31217 0.0
H3086 H 0.9041 0.5749 0.30871 0.0
H3087 H 0.90905 0.56745 0.29011 0.0
H3088 H 0.90577 0.5604 0.32773 0.0
H3089 H 0.85372 0.56411 0.30803 0.0
H3090 H 0.82496 0.55286 0.29521 0.0
H3091 H 0.78708 0.49939 0.3146 0.0
H3092 H 0.81573 0.51015 0.32746 0.0
H3093 H 0.87291 0.58755 0.37696 0.0
H3094 H 0.88074 0.58709 0.35784 0.0
H3095 H 0.84232 0.52071 0.35739 0.0
H3096 H 0.83525 0.52077 0.37652 0.0
H3097 H 0.83559 0.54243 0.33998 0.0
H3098 H 0.89045 0.5387 0.35869 0.0
H3099 H 0.91956 0.55161 0.37142 0.0
H3100 H 0.95242 0.60818 0.35356 0.0
H3101 H 0.92332 0.59571 0.34082 0.0
C3102 C 0.86774 0.52042 0.29672 0.0
C3103 C 0.88333 0.53579 0.29023 0.0
C3104 C 0.86525 0.5246 0.30739 0.0
C3105 C 0.87796 0.54437 0.31177 0.0
C3106 C 0.89397 0.5596 0.30546 0.0
C3107 C 0.89665 0.55535 0.29479 0.0
C3108 C 0.87423 0.54901 0.32289 0.0
C3109 C 0.89051 0.55684 0.33035 0.0
C3110 C 0.85431 0.54435 0.32634 0.0
C3111 C 0.83694 0.53788 0.31867 0.0
C3112 C 0.8393 0.54988 0.30952 0.0
C3113 C 0.82301 0.5436 0.30225 0.0
C3114 C 0.80421 0.5254 0.30408 0.0
C3115 C 0.80165 0.51348 0.31319 0.0
C3116 C 0.81791 0.51967 0.32048 0.0
C3117 C 0.86626 0.57281 0.37285 0.0
C3118 C 0.85338 0.55419 0.37834 0.0
C3119 C 0.87065 0.57263 0.3619 0.0
C3120 C 0.86207 0.55387 0.35626 0.0
C3121 C 0.84894 0.53535 0.36163 0.0
C3122 C 0.8448 0.53547 0.37256 0.0
C3123 C 0.86695 0.55326 0.34478 0.0
C3124 C 0.85088 0.54625 0.33728 0.0
C3125 C 0.88709 0.55897 0.34127 0.0
C3126 C 0.90461 0.56638 0.34889 0.0
C3127 C 0.90379 0.55397 0.35754 0.0
C3128 C 0.92031 0.56119 0.36475 0.0
C3129 C 0.9378 0.58073 0.36332 0.0
C3130 C 0.93884 0.59306 0.35467 0.0
C3131 C 0.92235 0.58593 0.34745 0.0
H3132 H 0.95058 0.58629 0.36891 0.0
H3133 H 0.79162 0.52056 0.29843 0.0
H3134 H 0.47851 0.38871 0.29657 0.0
H3135 H 0.47113 0.38062 0.31574 0.0
H3136 H 0.43835 0.31543 0.30819 0.0
H3137 H 0.44499 0.32354 0.28903 0.0
H3138 H 0.41868 0.32162 0.3233 0.0
H3139 H 0.48986 0.34242 0.31759 0.0
H3140 H 0.52586 0.36541 0.31166 0.0
H3141 H 0.53165 0.41238 0.33361 0.0
H3142 H 0.49557 0.38976 0.33956 0.0
H3143 H 0.43332 0.28274 0.37328 0.0
H3144 H 0.43505 0.29341 0.35446 0.0
H3145 H 0.44905 0.35394 0.36503 0.0
H3146 H 0.4469 0.34319 0.38387 0.0
H3147 H 0.47731 0.35184 0.34899 0.0
H3148 H 0.40531 0.32749 0.35555 0.0
H3149 H 0.36994 0.30217 0.36148 0.0
H3150 H 0.36676 0.25882 0.33781 0.0
H3151 H 0.40225 0.28378 0.33184 0.0
C3152 C 0.46962 0.37268 0.29904 0.0
C3153 C 0.46236 0.35674 0.29136 0.0
C3154 C 0.46548 0.36805 0.30997 0.0
C3155 C 0.45451 0.34738 0.31345 0.0
C3156 C 0.44683 0.33148 0.30573 0.0
C3157 C 0.45063 0.33611 0.29479 0.0
C3158 C 0.45152 0.34223 0.3251 0.0
C3159 C 0.43156 0.32812 0.32888 0.0
C3160 C 0.46824 0.35089 0.33246 0.0
C3161 C 0.48995 0.36449 0.32893 0.0
C3162 C 0.49877 0.35771 0.32109 0.0
C3163 C 0.51919 0.37066 0.31774 0.0
C3164 C 0.53101 0.39036 0.32223 0.0
C3165 C 0.52246 0.39713 0.33012 0.0
C3166 C 0.50203 0.38425 0.33349 0.0
C3167 C 0.43655 0.29823 0.37156 0.0
C3168 C 0.43993 0.31215 0.37997 0.0
C3169 C 0.43748 0.30428 0.36085 0.0
C3170 C 0.44213 0.32442 0.35841 0.0
C3171 C 0.44538 0.33831 0.36679 0.0
C3172 C 0.44406 0.33214 0.37751 0.0
C3173 C 0.44459 0.33122 0.34708 0.0
C3174 C 0.46446 0.34555 0.34339 0.0
C3175 C 0.42789 0.32245 0.33977 0.0
C3176 C 0.40652 0.30744 0.34332 0.0
C3177 C 0.39715 0.31248 0.35168 0.0
C3178 C 0.37706 0.29821 0.35503 0.0
C3179 C 0.36613 0.27888 0.35004 0.0
C3180 C 0.37525 0.27379 0.34167 0.0
C3181 C 0.39535 0.28801 0.3383 0.0
H3182 H 0.35057 0.26785 0.35265 0.0
H3183 H 0.54682 0.40037 0.31963 0.0
H3184 H 0.7126 0.13296 0.37057 0.0
H3185 H 0.70636 0.12825 0.35111 0.0
H3186 H 0.64299 0.11195 0.35628 0.0
H3187 H 0.64909 0.1166 0.37561 0.0
H3188 H 0.64504 0.08657 0.34193 0.0
H3189 H 0.67972 0.16024 0.34797 0.0
H3190 H 0.70803 0.19394 0.35433 0.0
H3191 H 0.75065 0.18845 0.33339 0.0
H3192 H 0.72262 0.15456 0.32701 0.0
H3193 H 0.61386 0.10884 0.2925 0.0
H3194 H 0.62397 0.1083 0.31117 0.0
H3195 H 0.68286 0.11801 0.30025 0.0
H3196 H 0.67283 0.11861 0.28155 0.0
H3197 H 0.68601 0.14473 0.31687 0.0
H3198 H 0.6494 0.07232 0.30936 0.0
H3199 H 0.6203 0.03919 0.30295 0.0
H3200 H 0.58044 0.04281 0.32663 0.0
H3201 H 0.60924 0.07615 0.33309 0.0
C3202 C 0.69736 0.12839 0.36753 0.0
C3203 C 0.68132 0.12508 0.37462 0.0
C3204 C 0.69381 0.12568 0.35643 0.0
C3205 C 0.67423 0.11985 0.35225 0.0
C3206 C 0.65817 0.1163 0.35933 0.0
C3207 C 0.66168 0.11892 0.37039 0.0
C3208 C 0.67037 0.1179 0.34048 0.0
C3209 C 0.65393 0.09932 0.33646 0.0
C3210 C 0.68229 0.13438 0.33331 0.0
C3211 C 0.69914 0.15476 0.33711 0.0
C3212 C 0.69517 0.16614 0.34479 0.0
C3213 C 0.71116 0.18529 0.34839 0.0
C3214 C 0.73114 0.1933 0.34429 0.0
C3215 C 0.73517 0.18221 0.33657 0.0
C3216 C 0.71924 0.16303 0.33296 0.0
C3217 C 0.62892 0.11077 0.29409 0.0
C3218 C 0.64255 0.11373 0.2856 0.0
C3219 C 0.63462 0.11034 0.30473 0.0
C3220 C 0.6541 0.11298 0.30706 0.0
C3221 C 0.66773 0.11587 0.2986 0.0
C3222 C 0.66194 0.11607 0.28794 0.0
C3223 C 0.66044 0.11356 0.31838 0.0
C3224 C 0.67733 0.13188 0.32232 0.0
C3225 C 0.64883 0.09691 0.32549 0.0
C3226 C 0.63146 0.07683 0.32165 0.0
C3227 C 0.63439 0.06615 0.31315 0.0
C3228 C 0.61795 0.04731 0.30952 0.0
C3229 C 0.59852 0.03892 0.31437 0.0
C3230 C 0.59549 0.04934 0.32288 0.0
C3231 C 0.61188 0.0682 0.32653 0.0
H3232 H 0.58581 0.02433 0.31155 0.0
H3233 H 0.7435 0.20813 0.34709 0.0
H3234 H 0.55019 0.88834 0.62098 0.0
H3235 H 0.55008 0.8957 0.64008 0.0
H3236 H 0.58815 0.86913 0.6466 0.0
H3237 H 0.58782 0.86119 0.62739 0.0
H3238 H 0.55835 0.85523 0.66042 0.0
H3239 H 0.60727 0.92262 0.64847 0.0
H3240 H 0.62189 0.95372 0.63706 0.0
H3241 H 0.57223 0.96347 0.64611 0.0
H3242 H 0.55713 0.93225 0.65745 0.0
H3243 H 0.56604 0.88786 0.71527 0.0
H3244 H 0.57731 0.88751 0.69675 0.0
H3245 H 0.52956 0.89799 0.68479 0.0
H3246 H 0.51811 0.89818 0.70329 0.0
H3247 H 0.56984 0.9222 0.67449 0.0
H3248 H 0.51961 0.85153 0.68473 0.0
H3249 H 0.50642 0.82089 0.69642 0.0
H3250 H 0.56173 0.81866 0.69082 0.0
H3251 H 0.57538 0.8495 0.67923 0.0
C3252 C 0.55887 0.88441 0.62645 0.0
C3253 C 0.56918 0.87436 0.62269 0.0
C3254 C 0.55885 0.88868 0.63738 0.0
C3255 C 0.56945 0.88335 0.64479 0.0
C3256 C 0.57995 0.87348 0.64104 0.0
C3257 C 0.57976 0.86895 0.63008 0.0
C3258 C 0.56828 0.88689 0.65648 0.0
C3259 C 0.56135 0.87003 0.66351 0.0
C3260 C 0.57194 0.90613 0.66055 0.0
C3261 C 0.581 0.92499 0.65376 0.0
C3262 C 0.59938 0.93131 0.64797 0.0
C3263 C 0.60777 0.94898 0.64152 0.0
C3264 C 0.59798 0.96055 0.64085 0.0
C3265 C 0.5798 0.95449 0.64664 0.0
C3266 C 0.57134 0.93682 0.65309 0.0
C3267 C 0.55818 0.89042 0.70869 0.0
C3268 C 0.54119 0.89302 0.71067 0.0
C3269 C 0.56457 0.89014 0.69814 0.0
C3270 C 0.5542 0.89266 0.68944 0.0
C3271 C 0.53776 0.89606 0.69142 0.0
C3272 C 0.53117 0.89605 0.70195 0.0
C3273 C 0.5596 0.8905 0.67824 0.0
C3274 C 0.56726 0.90758 0.67136 0.0
C3275 C 0.5569 0.87158 0.67433 0.0
C3276 C 0.54862 0.85296 0.68122 0.0
C3277 C 0.52904 0.84461 0.68607 0.0
C3278 C 0.52146 0.82719 0.69266 0.0
C3279 C 0.53326 0.81787 0.69439 0.0
C3280 C 0.55263 0.82592 0.6895 0.0
C3281 C 0.56029 0.84336 0.68291 0.0
H3282 H 0.52736 0.80439 0.6995 0.0
H3283 H 0.6045 0.97422 0.63585 0.0
H3284 H 0.15992 0.68184 0.62677 0.0
H3285 H 0.1504 0.67109 0.64538 0.0
H3286 H 0.09264 0.66944 0.64085 0.0
H3287 H 0.10262 0.68147 0.62235 0.0
H3288 H 0.10737 0.68503 0.65963 0.0
H3289 H 0.095 0.62459 0.64102 0.0
H3290 H 0.10262 0.60317 0.62892 0.0
H3291 H 0.15213 0.61196 0.64962 0.0
H3292 H 0.14501 0.63369 0.66176 0.0
H3293 H 0.08403 0.6056 0.7069 0.0
H3294 H 0.08421 0.61304 0.68767 0.0
H3295 H 0.1276 0.67757 0.69381 0.0
H3296 H 0.12703 0.67029 0.71296 0.0
H3297 H 0.1131 0.62626 0.6735 0.0
H3298 H 0.12303 0.70846 0.67643 0.0
H3299 H 0.11132 0.72725 0.68806 0.0
H3300 H 0.05864 0.6698 0.69792 0.0
H3301 H 0.06985 0.65067 0.68624 0.0
C3302 C 0.14536 0.6796 0.62975 0.0
C3303 C 0.13204 0.68252 0.62301 0.0
C3304 C 0.13978 0.67312 0.64037 0.0
C3305 C 0.1206 0.66902 0.64445 0.0
C3306 C 0.10745 0.67235 0.63785 0.0
C3307 C 0.11311 0.67905 0.62724 0.0
C3308 C 0.11443 0.66134 0.65563 0.0
C3309 C 0.10852 0.67212 0.66265 0.0
C3310 C 0.11527 0.64407 0.6595 0.0
C3311 C 0.11955 0.63089 0.65226 0.0
C3312 C 0.1076 0.62207 0.64295 0.0
C3313 C 0.11182 0.60986 0.63609 0.0
C3314 C 0.12787 0.60624 0.63849 0.0
C3315 C 0.13971 0.61478 0.64777 0.0
C3316 C 0.13557 0.62703 0.65465 0.0
C3317 C 0.09345 0.62138 0.70412 0.0
C3318 C 0.10536 0.6374 0.71142 0.0
C3319 C 0.09355 0.62562 0.69315 0.0
C3320 C 0.10567 0.64592 0.6893 0.0
C3321 C 0.11766 0.66188 0.6966 0.0
C3322 C 0.11736 0.6577 0.70755 0.0
C3323 C 0.10675 0.65041 0.6776 0.0
C3324 C 0.1117 0.63902 0.67046 0.0
C3325 C 0.10439 0.66671 0.67356 0.0
C3326 C 0.09738 0.67813 0.68051 0.0
C3327 C 0.10888 0.69984 0.68103 0.0
C3328 C 0.10234 0.71055 0.68764 0.0
C3329 C 0.08427 0.69972 0.69374 0.0
C3330 C 0.07267 0.67816 0.69322 0.0
C3331 C 0.07913 0.66738 0.68662 0.0
H3332 H 0.07925 0.70805 0.69886 0.0
H3333 H 0.13112 0.59678 0.63317 0.0
H3334 H 0.31283 0.47215 0.62285 0.0
H3335 H 0.32166 0.47386 0.6417 0.0
H3336 H 0.312 0.41217 0.63993 0.0
H3337 H 0.30099 0.40944 0.62125 0.0
H3338 H 0.29869 0.41591 0.65806 0.0
H3339 H 0.36206 0.45782 0.63964 0.0
H3340 H 0.38653 0.4848 0.62723 0.0
H3341 H 0.38327 0.53127 0.64594 0.0
H3342 H 0.35854 0.50453 0.65838 0.0
H3343 H 0.35752 0.43666 0.70781 0.0
H3344 H 0.34857 0.42999 0.6887 0.0
H3345 H 0.33251 0.47752 0.68853 0.0
H3346 H 0.34013 0.48351 0.70768 0.0
H3347 H 0.3615 0.47878 0.67131 0.0
H3348 H 0.29517 0.43368 0.68888 0.0
H3349 H 0.27249 0.40553 0.70126 0.0
H3350 H 0.28478 0.36345 0.68379 0.0
H3351 H 0.30781 0.39147 0.6714 0.0
C3352 C 0.31203 0.45867 0.62645 0.0
C3353 C 0.30615 0.44064 0.62039 0.0
C3354 C 0.31756 0.45986 0.63725 0.0
C3355 C 0.31814 0.44339 0.6422 0.0
C3356 C 0.31192 0.42521 0.63628 0.0
C3357 C 0.30586 0.42378 0.62552 0.0
C3358 C 0.3251 0.44523 0.65356 0.0
C3359 C 0.31264 0.42951 0.66088 0.0
C3360 C 0.34332 0.46295 0.65732 0.0
C3361 C 0.35833 0.47913 0.6499 0.0
C3362 C 0.36647 0.47377 0.64107 0.0
C3363 C 0.38039 0.48903 0.63404 0.0
C3364 C 0.38642 0.50973 0.63578 0.0
C3365 C 0.37858 0.51523 0.64459 0.0
C3366 C 0.36463 0.50003 0.65165 0.0
C3367 C 0.35181 0.44552 0.70378 0.0
C3368 C 0.3497 0.46075 0.70935 0.0
C3369 C 0.34685 0.44177 0.69284 0.0
C3370 C 0.33999 0.45334 0.68726 0.0
C3371 C 0.33797 0.46857 0.69272 0.0
C3372 C 0.34253 0.47207 0.70366 0.0
C3373 C 0.33486 0.44975 0.67569 0.0
C3374 C 0.34772 0.46512 0.66837 0.0
C3375 C 0.31734 0.43155 0.6719 0.0
C3376 C 0.3034 0.41472 0.6793 0.0
C3377 C 0.2932 0.41848 0.68775 0.0
C3378 C 0.28025 0.40254 0.69475 0.0
C3379 C 0.27725 0.38273 0.69333 0.0
C3380 C 0.28715 0.37881 0.68489 0.0
C3381 C 0.30014 0.39471 0.67787 0.0
H3382 H 0.26721 0.3704 0.69876 0.0
H3383 H 0.3972 0.52152 0.63032 0.0
loop_
_geom_bond_atom_site_label_1
_geom_bond_atom_site_label_2
_geom_bond_distance
_geom_bond_site_symmetry_2
_ccdc_geom_bond_type
Li0 N17 1.990 . S
Li0 O60 1.956 . S
Li0 O61 1.970 . S
Li0 O62 1.961 . S
Li1 N25 1.990 . S
Li1 O60 1.970 . S
Li1 O61 1.956 . S
Li1 O63 1.961 . S
Li2 N47 1.990 . S
Li2 O60 1.961 . S
Li2 O62 1.956 . S
Li2 O63 1.970 . S
Li3 N53 1.990 . S
Li3 O61 1.961 . S
Li3 O62 1.970 . S
Li3 O63 1.956 . S
C4 C6 1.348 . S
C4 C7 1.356 . S
C4 O60 1.325 . S
N5 C8 1.314 . S
N5 C9 1.279 . S
C6 C4 1.348 . S
C6 C8 1.353 . S
C6 H64 0.929 . S
C7 C4 1.356 . S
C7 C9 1.358 . S
C7 H65 0.930 . S
C8 N5 1.314 . S
C8 C6 1.353 . S
C8 H66 0.930 . S
C9 N5 1.279 . S
C9 C7 1.358 . S
C9 H67 0.930 . S
C10 C13 1.348 . S
C10 C14 1.356 . S
C10 O61 1.325 . S
C11 N12 1.279 . S
C11 C14 1.358 . S
C11 H68 0.930 . S
N12 C11 1.279 . S
N12 C15 1.314 . S
C13 C10 1.348 . S
C13 C15 1.353 . S
C13 H69 0.929 . S
C14 C10 1.356 . S
C14 C11 1.358 . S
C14 H70 0.930 . S
C15 N12 1.314 . S
C15 C13 1.353 . S
C15 H71 0.930 . S
C16 N17 1.314 . S
C16 C21 1.353 . S
C16 H22 0.930 . S
N17 Li0 1.990 . S
N17 C16 1.314 . S
N17 C19 1.279 . S
C18 C19 1.358 . S
C18 C20 1.356 . S
C18 H72 0.930 . S
C19 N17 1.279 . S
C19 C18 1.358 . S
C19 H23 0.930 . S
C20 C18 1.356 . S
C20 C21 1.348 . S
C21 C16 1.353 . S
C21 C20 1.348 . S
C21 H73 0.929 . S
H22 C16 0.930 . S
H23 C19 0.930 . S
C24 N25 1.314 . S
C24 C26 1.353 . S
C24 H30 0.930 . S
N25 Li1 1.990 . S
N25 C24 1.314 . S
N25 C28 1.279 . S
C26 C24 1.353 . S
C26 C29 1.348 . S
C26 H74 0.929 . S
C27 C28 1.358 . S
C27 C29 1.356 . S
C27 H75 0.930 . S
C28 N25 1.279 . S
C28 C27 1.358 . S
C28 H31 0.930 . S
C29 C26 1.348 . S
C29 C27 1.356 . S
H30 C24 0.930 . S
H31 C28 0.930 . S
C32 C34 1.348 . S
C32 C35 1.356 . S
C32 O62 1.325 . S
N33 C36 1.314 . S
N33 C37 1.279 . S
C34 C32 1.348 . S
C34 C36 1.353 . S
C34 H76 0.929 . S
C35 C32 1.356 . S
C35 C37 1.358 . S
C35 H77 0.930 . S
C36 N33 1.314 . S
C36 C34 1.353 . S
C36 H78 0.930 . S
C37 N33 1.279 . S
C37 C35 1.358 . S
C37 H79 0.930 . S
C38 C39 1.348 . S
C38 C40 1.356 . S
C38 O63 1.325 . S
C39 C38 1.348 . S
C39 C41 1.353 . S
C39 H80 0.929 . S
C40 C38 1.356 . S
C40 C42 1.358 . S
C40 H81 0.930 . S
C41 C39 1.353 . S
C41 N43 1.314 . S
C41 H82 0.930 . S
C42 C40 1.358 . S
C42 N43 1.279 . S
C42 H83 0.930 . S
N43 C41 1.314 . S
N43 C42 1.279 . S
C44 C46 1.353 . S
C44 N47 1.314 . S
C44 H50 0.930 . S
C45 N47 1.279 . S
C45 C48 1.358 . S
C45 H51 0.930 . S
C46 C44 1.353 . S
C46 C49 1.348 . S
C46 H84 0.929 . S
N47 Li2 1.990 . S
N47 C44 1.314 . S
N47 C45 1.279 . S
C48 C45 1.358 . S
C48 C49 1.356 . S
C48 H85 0.930 . S
C49 C46 1.348 . S
C49 C48 1.356 . S
H50 C44 0.930 . S
H51 C45 0.930 . S
C52 N53 1.314 . S
C52 C54 1.353 . S
C52 H58 0.930 . S
N53 Li3 1.990 . S
N53 C52 1.314 . S
N53 C56 1.279 . S
C54 C52 1.353 . S
C54 C57 1.348 . S
C54 H86 0.929 . S
C55 C56 1.358 . S
C55 C57 1.356 . S
C55 H87 0.930 . S
C56 N53 1.279 . S
C56 C55 1.358 . S
C56 H59 0.930 . S
C57 C54 1.348 . S
C57 C55 1.356 . S
H58 C52 0.930 . S
H59 C56 0.930 . S
O60 Li0 1.956 . S
O60 Li1 1.970 . S
O60 Li2 1.961 . S
O60 C4 1.325 . S
O61 Li0 1.970 . S
O61 Li1 1.956 . S
O61 Li3 1.961 . S
O61 C10 1.325 . S
O62 Li0 1.961 . S
O62 Li2 1.956 . S
O62 Li3 1.970 . S
O62 C32 1.325 . S
O63 Li1 1.961 . S
O63 Li2 1.970 . S
O63 Li3 1.956 . S
O63 C38 1.325 . S
H64 C6 0.929 . S
H65 C7 0.930 . S
H66 C8 0.930 . S
H67 C9 0.930 . S
H68 C11 0.930 . S
H69 C13 0.929 . S
H70 C14 0.930 . S
H71 C15 0.930 . S
H72 C18 0.930 . S
H73 C21 0.929 . S
H74 C26 0.929 . S
H75 C27 0.930 . S
H76 C34 0.929 . S
H77 C35 0.930 . S
H78 C36 0.930 . S
H79 C37 0.930 . S
H80 C39 0.929 . S
H81 C40 0.930 . S
H82 C41 0.930 . S
H83 C42 0.930 . S
H84 C46 0.929 . S
H85 C48 0.930 . S
H86 C54 0.929 . S
H87 C55 0.930 . S
Li88 N105 1.990 . S
Li88 O148 1.956 1_545 S
Li88 O149 1.970 . S
Li88 O150 1.961 . S
Li89 N113 1.990 . S
Li89 O148 1.970 . S
Li89 O149 1.956 1_565 S
Li89 O151 1.961 . S
Li90 N135 1.991 . S
Li90 O148 1.966 . S
Li90 O150 1.949 1_565 S
Li90 O151 1.974 . S
Li91 N141 1.990 . S
Li91 O149 1.961 . S
Li91 O150 1.970 . S
Li91 O151 1.956 1_545 S
C92 C94 1.348 . S
C92 C95 1.356 1_565 S
C92 O148 1.325 . S
N93 C96 1.314 . S
N93 C97 1.279 1_565 S
C94 C92 1.348 . S
C94 C96 1.353 . S
C94 H152 0.929 . S
C95 C92 1.356 1_545 S
C95 C97 1.358 . S
C95 H153 0.930 . S
C96 N93 1.314 . S
C96 C94 1.353 . S
C96 H154 0.930 . S
C97 N93 1.279 1_545 S
C97 C95 1.358 . S
C97 H155 0.930 . S
C98 C101 1.348 . S
C98 C102 1.356 1_545 S
C98 O149 1.325 . S
C99 N100 1.279 1_565 S
C99 C102 1.358 . S
C99 H156 0.930 . S
N100 C99 1.279 1_545 S
N100 C103 1.314 . S
C101 C98 1.348 . S
C101 C103 1.353 . S
C101 H157 0.929 . S
C102 C98 1.356 1_565 S
C102 C99 1.358 . S
C102 H158 0.930 . S
C103 N100 1.314 . S
C103 C101 1.353 . S
C103 H159 0.930 . S
C104 N105 1.314 . S
C104 C109 1.353 . S
C104 H110 0.930 . S
N105 Li88 1.990 . S
N105 C104 1.314 . S
N105 C107 1.279 . S
C106 C107 1.358 . S
C106 C108 1.356 . S
C106 H160 0.930 . S
C107 N105 1.279 . S
C107 C106 1.358 . S
C107 H111 0.930 . S
C108 C106 1.356 . S
C108 C109 1.348 . S
C109 C104 1.353 . S
C109 C108 1.348 . S
C109 H161 0.929 . S
H110 C104 0.930 . S
H111 C107 0.930 . S
C112 N113 1.314 . S
C112 C114 1.353 . S
C112 H118 0.930 . S
N113 Li89 1.990 . S
N113 C112 1.314 . S
N113 C116 1.279 . S
C114 C112 1.353 . S
C114 C117 1.348 . S
C114 H162 0.929 . S
C115 C116 1.358 . S
C115 C117 1.356 . S
C115 H163 0.930 . S
C116 N113 1.279 . S
C116 C115 1.358 . S
C116 H119 0.930 . S
C117 C114 1.348 . S
C117 C115 1.356 . S
H118 C112 0.930 . S
H119 C116 0.930 . S
C120 C122 1.348 . S
C120 C123 1.356 . S
C120 O150 1.325 . S
N121 C124 1.314 . S
N121 C125 1.279 . S
C122 C120 1.348 . S
C122 C124 1.353 . S
C122 H164 0.929 . S
C123 C120 1.356 . S
C123 C125 1.358 . S
C123 H165 0.930 . S
C124 N121 1.314 . S
C124 C122 1.353 . S
C124 H166 0.930 . S
C125 N121 1.279 . S
C125 C123 1.358 . S
C125 H167 0.930 . S
C126 C127 1.348 . S
C126 C128 1.356 . S
C126 O151 1.325 . S
C127 C126 1.348 . S
C127 C129 1.353 . S
C127 H168 0.929 . S
C128 C126 1.356 . S
C128 C130 1.358 . S
C128 H169 0.930 . S
C129 C127 1.353 . S
C129 N131 1.314 . S
C129 H170 0.930 . S
C130 C128 1.358 . S
C130 N131 1.279 . S
C130 H171 0.930 . S
N131 C129 1.314 . S
N131 C130 1.279 . S
C132 C134 1.353 . S
C132 N135 1.324 . S
C132 H138 0.930 . S
C133 N135 1.268 1_545 S
C133 C136 1.358 . S
C133 H139 0.930 . S
C134 C132 1.353 . S
C134 C137 1.348 . S
C134 H172 0.929 . S
N135 Li90 1.991 . S
N135 C132 1.324 . S
N135 C133 1.268 1_565 S
C136 C133 1.358 . S
C136 C137 1.356 1_545 S
C136 H173 0.930 . S
C137 C134 1.348 . S
C137 C136 1.356 1_565 S
H138 C132 0.930 . S
H139 C133 0.930 . S
C140 N141 1.314 . S
C140 C142 1.353 . S
C140 H146 0.930 . S
N141 Li91 1.990 . S
N141 C140 1.314 . S
N141 C144 1.279 1_545 S
C142 C140 1.353 . S
C142 C145 1.348 . S
C142 H174 0.929 . S
C143 C144 1.370 . S
C143 C145 1.343 1_565 S
C143 H175 0.931 . S
C144 N141 1.279 1_565 S
C144 C143 1.370 . S
C144 H147 0.930 . S
C145 C142 1.348 . S
C145 C143 1.343 1_545 S
H146 C140 0.930 . S
H147 C144 0.930 . S
O148 Li88 1.956 1_565 S
O148 Li89 1.970 . S
O148 Li90 1.966 . S
O148 C92 1.325 . S
O149 Li88 1.970 . S
O149 Li89 1.956 1_545 S
O149 Li91 1.961 . S
O149 C98 1.325 . S
O150 Li88 1.961 . S
O150 Li90 1.949 1_545 S
O150 Li91 1.970 . S
O150 C120 1.325 . S
O151 Li89 1.961 . S
O151 Li90 1.974 . S
O151 Li91 1.956 1_565 S
O151 C126 1.325 . S
H152 C94 0.929 . S
H153 C95 0.930 . S
H154 C96 0.930 . S
H155 C97 0.930 . S
H156 C99 0.930 . S
H157 C101 0.929 . S
H158 C102 0.930 . S
H159 C103 0.930 . S
H160 C106 0.930 . S
H161 C109 0.929 . S
H162 C114 0.929 . S
H163 C115 0.930 . S
H164 C122 0.929 . S
H165 C123 0.930 . S
H166 C124 0.930 . S
H167 C125 0.930 . S
H168 C127 0.929 . S
H169 C128 0.930 . S
H170 C129 0.930 . S
H171 C130 0.930 . S
H172 C134 0.929 . S
H173 C136 0.930 . S
H174 C142 0.929 . S
H175 C143 0.931 . S
Li176 N193 1.990 . S
Li176 O236 1.956 1_655 S
Li176 O237 1.970 . S
Li176 O238 1.961 . S
Li177 N201 1.990 . S
Li177 O236 1.970 . S
Li177 O237 1.956 1_455 S
Li177 O239 1.961 . S
Li178 N223 1.990 . S
Li178 O236 1.959 . S
Li178 O238 1.952 1_455 S
Li178 O239 1.975 . S
Li179 N229 1.990 . S
Li179 O237 1.961 . S
Li179 O238 1.970 . S
Li179 O239 1.956 1_655 S
C180 C182 1.348 . S
C180 C183 1.356 1_455 S
C180 O236 1.325 . S
N181 C184 1.314 . S
N181 C185 1.279 1_455 S
C182 C180 1.348 . S
C182 C184 1.353 . S
C182 H240 0.929 . S
C183 C180 1.356 1_655 S
C183 C185 1.358 . S
C183 H241 0.930 . S
C184 N181 1.314 . S
C184 C182 1.353 . S
C184 H242 0.930 . S
C185 N181 1.279 1_655 S
C185 C183 1.358 . S
C185 H243 0.930 . S
C186 C189 1.348 . S
C186 C190 1.356 1_655 S
C186 O237 1.325 . S
C187 N188 1.279 1_455 S
C187 C190 1.358 . S
C187 H244 0.930 . S
N188 C187 1.279 1_655 S
N188 C191 1.314 . S
C189 C186 1.348 . S
C189 C191 1.353 . S
C189 H245 0.929 . S
C190 C186 1.356 1_455 S
C190 C187 1.358 . S
C190 H246 0.930 . S
C191 N188 1.314 . S
C191 C189 1.353 . S
C191 H247 0.930 . S
C192 N193 1.314 . S
C192 C197 1.353 . S
C192 H198 0.930 . S
N193 Li176 1.990 . S
N193 C192 1.314 . S
N193 C195 1.279 . S
C194 C195 1.358 . S
C194 C196 1.356 . S
C194 H248 0.930 . S
C195 N193 1.279 . S
C195 C194 1.358 . S
C195 H199 0.930 . S
C196 C194 1.356 . S
C196 C197 1.348 . S
C197 C192 1.353 . S
C197 C196 1.348 . S
C197 H249 0.929 . S
H198 C192 0.930 . S
H199 C195 0.930 . S
C200 N201 1.314 . S
C200 C202 1.353 . S
C200 H206 0.930 . S
N201 Li177 1.990 . S
N201 C200 1.314 . S
N201 C204 1.279 . S
C202 C200 1.353 . S
C202 C205 1.348 . S
C202 H250 0.929 . S
C203 C204 1.358 . S
C203 C205 1.356 . S
C203 H251 0.930 . S
C204 N201 1.279 . S
C204 C203 1.358 . S
C204 H207 0.930 . S
C205 C202 1.348 . S
C205 C203 1.356 . S
H206 C200 0.930 . S
H207 C204 0.930 . S
C208 C210 1.348 . S
C208 C211 1.356 . S
C208 O238 1.325 . S
N209 C212 1.314 . S
N209 C213 1.279 . S
C210 C208 1.348 . S
C210 C212 1.353 . S
C210 H252 0.929 . S
C211 C208 1.356 . S
C211 C213 1.358 . S
C211 H253 0.930 . S
C212 N209 1.314 . S
C212 C210 1.353 . S
C212 H254 0.930 . S
C213 N209 1.279 . S
C213 C211 1.358 . S
C213 H255 0.930 . S
C214 C215 1.348 . S
C214 C216 1.356 . S
C214 O239 1.325 . S
C215 C214 1.348 . S
C215 C217 1.353 . S
C215 H256 0.929 . S
C216 C214 1.356 . S
C216 C218 1.358 . S
C216 H257 0.930 . S
C217 C215 1.353 . S
C217 N219 1.314 . S
C217 H258 0.930 . S
C218 C216 1.358 . S
C218 N219 1.279 . S
C218 H259 0.930 . S
N219 C217 1.314 . S
N219 C218 1.279 . S
C220 C222 1.353 . S
C220 N223 1.318 . S
C220 H226 0.930 . S
C221 N223 1.278 1_655 S
C221 C224 1.358 . S
C221 H227 0.930 . S
C222 C220 1.353 . S
C222 C225 1.348 . S
C222 H260 0.929 . S
N223 Li178 1.990 . S
N223 C220 1.318 . S
N223 C221 1.278 1_455 S
C224 C221 1.358 . S
C224 C225 1.356 1_655 S
C224 H261 0.930 . S
C225 C222 1.348 . S
C225 C224 1.356 1_455 S
H226 C220 0.930 . S
H227 C221 0.930 . S
C228 N229 1.314 . S
C228 C230 1.353 . S
C228 H234 0.930 . S
N229 Li179 1.990 . S
N229 C228 1.314 . S
N229 C232 1.279 1_655 S
C230 C228 1.353 . S
C230 C233 1.348 . S
C230 H262 0.929 . S
C231 C232 1.363 1_655 S
C231 C233 1.367 . S
C231 H263 0.914 1_655 S
C232 N229 1.279 1_455 S
C232 C231 1.363 1_455 S
C232 H235 0.930 . S
C233 C230 1.348 . S
C233 C231 1.367 . S
H234 C228 0.930 . S
H235 C232 0.930 . S
O236 Li176 1.956 1_455 S
O236 Li177 1.970 . S
O236 Li178 1.959 . S
O236 C180 1.325 . S
O237 Li176 1.970 . S
O237 Li177 1.956 1_655 S
O237 Li179 1.961 . S
O237 C186 1.325 . S
O238 Li176 1.961 . S
O238 Li178 1.952 1_655 S
O238 Li179 1.970 . S
O238 C208 1.325 . S
O239 Li177 1.961 . S
O239 Li178 1.975 . S
O239 Li179 1.956 1_455 S
O239 C214 1.325 . S
H240 C182 0.929 . S
H241 C183 0.930 . S
H242 C184 0.930 . S
H243 C185 0.930 . S
H244 C187 0.930 . S
H245 C189 0.929 . S
H246 C190 0.930 . S
H247 C191 0.930 . S
H248 C194 0.930 . S
H249 C197 0.929 . S
H250 C202 0.929 . S
H251 C203 0.930 . S
H252 C210 0.929 . S
H253 C211 0.930 . S
H254 C212 0.930 . S
H255 C213 0.930 . S
H256 C215 0.929 . S
H257 C216 0.930 . S
H258 C217 0.930 . S
H259 C218 0.930 . S
H260 C222 0.929 . S
H261 C224 0.930 . S
H262 C230 0.929 . S
H263 C231 0.914 1_455 S
Li264 N281 1.990 . S
Li264 O324 1.956 . S
Li264 O325 1.970 . S
Li264 O326 1.961 . S
Li265 N289 1.990 . S
Li265 O324 1.970 . S
Li265 O325 1.956 . S
Li265 O327 1.961 . S
Li266 N311 1.990 . S
Li266 O324 1.961 . S
Li266 O326 1.956 . S
Li266 O327 1.970 . S
Li267 N317 1.990 . S
Li267 O325 1.961 . S
Li267 O326 1.970 . S
Li267 O327 1.956 . S
C268 C270 1.348 . S
C268 C271 1.356 . S
C268 O324 1.325 . S
N269 C272 1.314 . S
N269 C273 1.279 . S
C270 C268 1.348 . S
C270 C272 1.353 . S
C270 H328 0.929 . S
C271 C268 1.356 . S
C271 C273 1.358 . S
C271 H329 0.930 . S
C272 N269 1.314 . S
C272 C270 1.353 . S
C272 H330 0.930 . S
C273 N269 1.279 . S
C273 C271 1.358 . S
C273 H331 0.930 . S
C274 C277 1.348 . S
C274 C278 1.356 . S
C274 O325 1.325 . S
C275 N276 1.279 . S
C275 C278 1.358 . S
C275 H332 0.930 . S
N276 C275 1.279 . S
N276 C279 1.314 . S
C277 C274 1.348 . S
C277 C279 1.353 . S
C277 H333 0.929 . S
C278 C274 1.356 . S
C278 C275 1.358 . S
C278 H334 0.930 . S
C279 N276 1.314 . S
C279 C277 1.353 . S
C279 H335 0.930 . S
C280 N281 1.314 . S
C280 C285 1.353 . S
C280 H286 0.930 . S
N281 Li264 1.990 . S
N281 C280 1.314 . S
N281 C283 1.279 . S
C282 C283 1.358 . S
C282 C284 1.356 . S
C282 H336 0.930 . S
C283 N281 1.279 . S
C283 C282 1.358 . S
C283 H287 0.930 . S
C284 C282 1.356 . S
C284 C285 1.348 . S
C285 C280 1.353 . S
C285 C284 1.348 . S
C285 H337 0.929 . S
H286 C280 0.930 . S
H287 C283 0.930 . S
C288 N289 1.314 . S
C288 C290 1.353 . S
C288 H294 0.930 . S
N289 Li265 1.990 . S
N289 C288 1.314 . S
N289 C292 1.279 . S
C290 C288 1.353 . S
C290 C293 1.348 . S
C290 H338 0.929 . S
C291 C292 1.358 . S
C291 C293 1.356 . S
C291 H339 0.930 . S
C292 N289 1.279 . S
C292 C291 1.358 . S
C292 H295 0.930 . S
C293 C290 1.348 . S
C293 C291 1.356 . S
H294 C288 0.930 . S
H295 C292 0.930 . S
C296 C298 1.348 . S
C296 C299 1.356 . S
C296 O326 1.325 . S
N297 C300 1.314 . S
N297 C301 1.279 . S
C298 C296 1.348 . S
C298 C300 1.353 . S
C298 H340 0.929 . S
C299 C296 1.356 . S
C299 C301 1.358 . S
C299 H341 0.930 . S
C300 N297 1.314 . S
C300 C298 1.353 . S
C300 H342 0.930 . S
C301 N297 1.279 . S
C301 C299 1.358 . S
C301 H343 0.930 . S
C302 C303 1.348 . S
C302 C304 1.356 . S
C302 O327 1.325 . S
C303 C302 1.348 . S
C303 C305 1.353 . S
C303 H344 0.929 . S
C304 C302 1.356 . S
C304 C306 1.358 . S
C304 H345 0.930 . S
C305 C303 1.353 . S
C305 N307 1.314 . S
C305 H346 0.930 . S
C306 C304 1.358 . S
C306 N307 1.279 . S
C306 H347 0.930 . S
N307 C305 1.314 . S
N307 C306 1.279 . S
C308 C310 1.353 . S
C308 N311 1.314 . S
C308 H314 0.930 . S
C309 N311 1.279 . S
C309 C312 1.358 . S
C309 H315 0.930 . S
C310 C308 1.353 . S
C310 C313 1.348 . S
C310 H348 0.929 . S
N311 Li266 1.990 . S
N311 C308 1.314 . S
N311 C309 1.279 . S
C312 C309 1.358 . S
C312 C313 1.356 . S
C312 H349 0.930 . S
C313 C310 1.348 . S
C313 C312 1.356 . S
H314 C308 0.930 . S
H315 C309 0.930 . S
C316 N317 1.314 . S
C316 C318 1.353 . S
C316 H322 0.930 . S
N317 Li267 1.990 . S
N317 C316 1.314 . S
N317 C320 1.279 . S
C318 C316 1.353 . S
C318 C321 1.348 . S
C318 H350 0.929 . S
C319 C320 1.358 . S
C319 C321 1.356 . S
C319 H351 0.930 . S
C320 N317 1.279 . S
C320 C319 1.358 . S
C320 H323 0.930 . S
C321 C318 1.348 . S
C321 C319 1.356 . S
H322 C316 0.930 . S
H323 C320 0.930 . S
O324 Li264 1.956 . S
O324 Li265 1.970 . S
O324 Li266 1.961 . S
O324 C268 1.325 . S
O325 Li264 1.970 . S
O325 Li265 1.956 . S
O325 Li267 1.961 . S
O325 C274 1.325 . S
O326 Li264 1.961 . S
O326 Li266 1.956 . S
O326 Li267 1.970 . S
O326 C296 1.325 . S
O327 Li265 1.961 . S
O327 Li266 1.970 . S
O327 Li267 1.956 . S
O327 C302 1.325 . S
H328 C270 0.929 . S
H329 C271 0.930 . S
H330 C272 0.930 . S
H331 C273 0.930 . S
H332 C275 0.930 . S
H333 C277 0.929 . S
H334 C278 0.930 . S
H335 C279 0.930 . S
H336 C282 0.930 . S
H337 C285 0.929 . S
H338 C290 0.929 . S
H339 C291 0.930 . S
H340 C298 0.929 . S
H341 C299 0.930 . S
H342 C300 0.930 . S
H343 C301 0.930 . S
H344 C303 0.929 . S
H345 C304 0.930 . S
H346 C305 0.930 . S
H347 C306 0.930 . S
H348 C310 0.929 . S
H349 C312 0.930 . S
H350 C318 0.929 . S
H351 C319 0.930 . S
Li352 N369 1.990 . S
Li352 O412 1.956 1_565 S
Li352 O413 1.970 . S
Li352 O414 1.961 . S
Li353 N377 1.990 . S
Li353 O412 1.975 . S
Li353 O413 1.952 1_545 S
Li353 O415 1.959 . S
Li354 N399 1.990 . S
Li354 O412 1.961 . S
Li354 O414 1.956 1_545 S
Li354 O415 1.970 . S
Li355 N405 1.990 . S
Li355 O413 1.961 . S
Li355 O414 1.970 . S
Li355 O415 1.956 1_565 S
C356 C358 1.348 . S
C356 C359 1.356 . S
C356 O412 1.325 . S
N357 C360 1.314 . S
N357 C361 1.279 . S
C358 C356 1.348 . S
C358 C360 1.353 . S
C358 H416 0.929 . S
C359 C356 1.356 . S
C359 C361 1.358 . S
C359 H417 0.930 . S
C360 N357 1.314 . S
C360 C358 1.353 . S
C360 H418 0.930 . S
C361 N357 1.279 . S
C361 C359 1.358 . S
C361 H419 0.930 . S
C362 C365 1.348 . S
C362 C366 1.356 . S
C362 O413 1.325 . S
C363 N364 1.279 . S
C363 C366 1.358 . S
C363 H420 0.930 . S
N364 C363 1.279 . S
N364 C367 1.314 . S
C365 C362 1.348 . S
C365 C367 1.353 . S
C365 H421 0.929 . S
C366 C362 1.356 . S
C366 C363 1.358 . S
C366 H422 0.930 . S
C367 N364 1.314 . S
C367 C365 1.353 . S
C367 H423 0.930 . S
C368 N369 1.314 . S
C368 C373 1.353 . S
C368 H374 0.930 . S
N369 Li352 1.990 . S
N369 C368 1.314 . S
N369 C371 1.279 1_565 S
C370 C371 1.363 1_565 S
C370 C372 1.367 . S
C370 H424 0.914 1_565 S
C371 N369 1.279 1_545 S
C371 C370 1.363 1_545 S
C371 H375 0.930 . S
C372 C370 1.367 . S
C372 C373 1.348 . S
C373 C368 1.353 . S
C373 C372 1.348 . S
C373 H425 0.929 . S
H374 C368 0.930 . S
H375 C371 0.930 . S
C376 N377 1.318 . S
C376 C378 1.353 . S
C376 H382 0.930 . S
N377 Li353 1.990 . S
N377 C376 1.318 . S
N377 C380 1.278 1_545 S
C378 C376 1.353 . S
C378 C381 1.348 . S
C378 H426 0.929 . S
C379 C380 1.358 . S
C379 C381 1.356 1_565 S
C379 H427 0.930 . S
C380 N377 1.278 1_565 S
C380 C379 1.358 . S
C380 H383 0.930 . S
C381 C378 1.348 . S
C381 C379 1.356 1_545 S
H382 C376 0.930 . S
H383 C380 0.930 . S
C384 C386 1.348 . S
C384 C387 1.356 1_565 S
C384 O414 1.325 . S
N385 C388 1.314 . S
N385 C389 1.279 1_565 S
C386 C384 1.348 . S
C386 C388 1.353 . S
C386 H428 0.929 . S
C387 C384 1.356 1_545 S
C387 C389 1.358 . S
C387 H429 0.930 . S
C388 N385 1.314 . S
C388 C386 1.353 . S
C388 H430 0.930 . S
C389 N385 1.279 1_545 S
C389 C387 1.358 . S
C389 H431 0.930 . S
C390 C391 1.348 . S
C390 C392 1.356 1_545 S
C390 O415 1.325 . S
C391 C390 1.348 . S
C391 C393 1.353 . S
C391 H432 0.929 . S
C392 C390 1.356 1_565 S
C392 C394 1.358 . S
C392 H433 0.930 . S
C393 C391 1.353 . S
C393 N395 1.314 . S
C393 H434 0.930 . S
C394 C392 1.358 . S
C394 N395 1.279 1_565 S
C394 H435 0.930 . S
N395 C393 1.314 . S
N395 C394 1.279 1_545 S
C396 C398 1.353 . S
C396 N399 1.314 . S
C396 H402 0.930 . S
C397 N399 1.279 . S
C397 C400 1.358 . S
C397 H403 0.930 . S
C398 C396 1.353 . S
C398 C401 1.348 . S
C398 H436 0.929 . S
N399 Li354 1.990 . S
N399 C396 1.314 . S
N399 C397 1.279 . S
C400 C397 1.358 . S
C400 C401 1.356 . S
C400 H437 0.930 . S
C401 C398 1.348 . S
C401 C400 1.356 . S
H402 C396 0.930 . S
H403 C397 0.930 . S
C404 N405 1.314 . S
C404 C406 1.353 . S
C404 H410 0.930 . S
N405 Li355 1.990 . S
N405 C404 1.314 . S
N405 C408 1.279 . S
C406 C404 1.353 . S
C406 C409 1.348 . S
C406 H438 0.929 . S
C407 C408 1.358 . S
C407 C409 1.356 . S
C407 H439 0.930 . S
C408 N405 1.279 . S
C408 C407 1.358 . S
C408 H411 0.930 . S
C409 C406 1.348 . S
C409 C407 1.356 . S
H410 C404 0.930 . S
H411 C408 0.930 . S
O412 Li352 1.956 1_545 S
O412 Li353 1.975 . S
O412 Li354 1.961 . S
O412 C356 1.325 . S
O413 Li352 1.970 . S
O413 Li353 1.952 1_565 S
O413 Li355 1.961 . S
O413 C362 1.325 . S
O414 Li352 1.961 . S
O414 Li354 1.956 1_565 S
O414 Li355 1.970 . S
O414 C384 1.325 . S
O415 Li353 1.959 . S
O415 Li354 1.970 . S
O415 Li355 1.956 1_545 S
O415 C390 1.325 . S
H416 C358 0.929 . S
H417 C359 0.930 . S
H418 C360 0.930 . S
H419 C361 0.930 . S
H420 C363 0.930 . S
H421 C365 0.929 . S
H422 C366 0.930 . S
H423 C367 0.930 . S
H424 C370 0.914 1_545 S
H425 C373 0.929 . S
H426 C378 0.929 . S
H427 C379 0.930 . S
H428 C386 0.929 . S
H429 C387 0.930 . S
H430 C388 0.930 . S
H431 C389 0.930 . S
H432 C391 0.929 . S
H433 C392 0.930 . S
H434 C393 0.930 . S
H435 C394 0.930 . S
H436 C398 0.929 . S
H437 C400 0.930 . S
H438 C406 0.929 . S
H439 C407 0.930 . S
Li440 N457 1.990 . S
Li440 O500 1.956 1_455 S
Li440 O501 1.970 . S
Li440 O502 1.961 . S
Li441 N465 1.990 . S
Li441 O500 1.970 . S
Li441 O501 1.956 1_655 S
Li441 O503 1.961 . S
Li442 N487 1.991 . S
Li442 O500 1.966 . S
Li442 O502 1.949 1_655 S
Li442 O503 1.974 . S
Li443 N493 1.990 . S
Li443 O501 1.961 . S
Li443 O502 1.970 . S
Li443 O503 1.956 1_455 S
C444 C446 1.348 . S
C444 C447 1.356 1_655 S
C444 O500 1.325 . S
N445 C448 1.314 . S
N445 C449 1.279 1_655 S
C446 C444 1.348 . S
C446 C448 1.353 . S
C446 H504 0.929 . S
C447 C444 1.356 1_455 S
C447 C449 1.358 . S
C447 H505 0.930 . S
C448 N445 1.314 . S
C448 C446 1.353 . S
C448 H506 0.930 . S
C449 N445 1.279 1_455 S
C449 C447 1.358 . S
C449 H507 0.930 . S
C450 C453 1.348 . S
C450 C454 1.356 1_455 S
C450 O501 1.325 . S
C451 N452 1.279 1_655 S
C451 C454 1.358 . S
C451 H508 0.930 . S
N452 C451 1.279 1_455 S
N452 C455 1.314 . S
C453 C450 1.348 . S
C453 C455 1.353 . S
C453 H509 0.929 . S
C454 C450 1.356 1_655 S
C454 C451 1.358 . S
C454 H510 0.930 . S
C455 N452 1.314 . S
C455 C453 1.353 . S
C455 H511 0.930 . S
C456 N457 1.314 . S
C456 C461 1.353 . S
C456 H462 0.930 . S
N457 Li440 1.990 . S
N457 C456 1.314 . S
N457 C459 1.279 . S
C458 C459 1.358 . S
C458 C460 1.356 . S
C458 H512 0.930 . S
C459 N457 1.279 . S
C459 C458 1.358 . S
C459 H463 0.930 . S
C460 C458 1.356 . S
C460 C461 1.348 . S
C461 C456 1.353 . S
C461 C460 1.348 . S
C461 H513 0.929 . S
H462 C456 0.930 . S
H463 C459 0.930 . S
C464 N465 1.314 . S
C464 C466 1.353 . S
C464 H470 0.930 . S
N465 Li441 1.990 . S
N465 C464 1.314 . S
N465 C468 1.279 . S
C466 C464 1.353 . S
C466 C469 1.348 . S
C466 H514 0.929 . S
C467 C468 1.358 . S
C467 C469 1.356 . S
C467 H515 0.930 . S
C468 N465 1.279 . S
C468 C467 1.358 . S
C468 H471 0.930 . S
C469 C466 1.348 . S
C469 C467 1.356 . S
H470 C464 0.930 . S
H471 C468 0.930 . S
C472 C474 1.348 . S
C472 C475 1.356 . S
C472 O502 1.325 . S
N473 C476 1.314 . S
N473 C477 1.279 . S
C474 C472 1.348 . S
C474 C476 1.353 . S
C474 H516 0.929 . S
C475 C472 1.356 . S
C475 C477 1.358 . S
C475 H517 0.930 . S
C476 N473 1.314 . S
C476 C474 1.353 . S
C476 H518 0.930 . S
C477 N473 1.279 . S
C477 C475 1.358 . S
C477 H519 0.930 . S
C478 C479 1.348 . S
C478 C480 1.356 . S
C478 O503 1.325 . S
C479 C478 1.348 . S
C479 C481 1.353 . S
C479 H520 0.929 . S
C480 C478 1.356 . S
C480 C482 1.358 . S
C480 H521 0.930 . S
C481 C479 1.353 . S
C481 N483 1.314 . S
C481 H522 0.930 . S
C482 C480 1.358 . S
C482 N483 1.279 . S
C482 H523 0.930 . S
N483 C481 1.314 . S
N483 C482 1.279 . S
C484 C486 1.353 . S
C484 N487 1.324 . S
C484 H490 0.930 . S
C485 N487 1.268 1_455 S
C485 C488 1.358 . S
C485 H491 0.930 . S
C486 C484 1.353 . S
C486 C489 1.348 . S
C486 H524 0.929 . S
N487 Li442 1.991 . S
N487 C484 1.324 . S
N487 C485 1.268 1_655 S
C488 C485 1.358 . S
C488 C489 1.356 1_455 S
C488 H525 0.930 . S
C489 C486 1.348 . S
C489 C488 1.356 1_655 S
H490 C484 0.930 . S
H491 C485 0.930 . S
C492 N493 1.314 . S
C492 C494 1.353 . S
C492 H498 0.930 . S
N493 Li443 1.990 . S
N493 C492 1.314 . S
N493 C496 1.279 1_455 S
C494 C492 1.353 . S
C494 C497 1.348 . S
C494 H526 0.929 . S
C495 C496 1.370 . S
C495 C497 1.343 1_655 S
C495 H527 0.931 . S
C496 N493 1.279 1_655 S
C496 C495 1.370 . S
C496 H499 0.930 . S
C497 C494 1.348 . S
C497 C495 1.343 1_455 S
H498 C492 0.930 . S
H499 C496 0.930 . S
O500 Li440 1.956 1_655 S
O500 Li441 1.970 . S
O500 Li442 1.966 . S
O500 C444 1.325 . S
O501 Li440 1.970 . S
O501 Li441 1.956 1_455 S
O501 Li443 1.961 . S
O501 C450 1.325 . S
O502 Li440 1.961 . S
O502 Li442 1.949 1_455 S
O502 Li443 1.970 . S
O502 C472 1.325 . S
O503 Li441 1.961 . S
O503 Li442 1.974 . S
O503 Li443 1.956 1_655 S
O503 C478 1.325 . S
H504 C446 0.929 . S
H505 C447 0.930 . S
H506 C448 0.930 . S
H507 C449 0.930 . S
H508 C451 0.930 . S
H509 C453 0.929 . S
H510 C454 0.930 . S
H511 C455 0.930 . S
H512 C458 0.930 . S
H513 C461 0.929 . S
H514 C466 0.929 . S
H515 C467 0.930 . S
H516 C474 0.929 . S
H517 C475 0.930 . S
H518 C476 0.930 . S
H519 C477 0.930 . S
H520 C479 0.929 . S
H521 C480 0.930 . S
H522 C481 0.930 . S
H523 C482 0.930 . S
H524 C486 0.929 . S
H525 C488 0.930 . S
H526 C494 0.929 . S
H527 C495 0.931 . S
Li528 N545 1.990 . S
Li528 O588 1.956 . S
Li528 O589 1.970 . S
Li528 O590 1.961 . S
Li529 N553 1.990 . S
Li529 O588 1.970 . S
Li529 O589 1.956 . S
Li529 O591 1.961 . S
Li530 N575 1.990 . S
Li530 O588 1.961 . S
Li530 O590 1.956 . S
Li530 O591 1.970 . S
Li531 N581 1.990 . S
Li531 O589 1.961 . S
Li531 O590 1.970 . S
Li531 O591 1.956 . S
C532 C534 1.348 . S
C532 C535 1.356 . S
C532 O588 1.325 . S
N533 C536 1.314 . S
N533 C537 1.279 . S
C534 C532 1.348 . S
C534 C536 1.353 . S
C534 H592 0.929 . S
C535 C532 1.356 . S
C535 C537 1.358 . S
C535 H593 0.930 . S
C536 N533 1.314 . S
C536 C534 1.353 . S
C536 H594 0.930 . S
C537 N533 1.279 . S
C537 C535 1.358 . S
C537 H595 0.930 . S
C538 C541 1.348 . S
C538 C542 1.356 . S
C538 O589 1.325 . S
C539 N540 1.279 . S
C539 C542 1.358 . S
C539 H596 0.930 . S
N540 C539 1.279 . S
N540 C543 1.314 . S
C541 C538 1.348 . S
C541 C543 1.353 . S
C541 H597 0.929 . S
C542 C538 1.356 . S
C542 C539 1.358 . S
C542 H598 0.930 . S
C543 N540 1.314 . S
C543 C541 1.353 . S
C543 H599 0.930 . S
C544 N545 1.314 . S
C544 C549 1.353 . S
C544 H550 0.930 . S
N545 Li528 1.990 . S
N545 C544 1.314 . S
N545 C547 1.279 . S
C546 C547 1.358 . S
C546 C548 1.356 . S
C546 H600 0.930 . S
C547 N545 1.279 . S
C547 C546 1.358 . S
C547 H551 0.930 . S
C548 C546 1.356 . S
C548 C549 1.348 . S
C549 C544 1.353 . S
C549 C548 1.348 . S
C549 H601 0.929 . S
H550 C544 0.930 . S
H551 C547 0.930 . S
C552 N553 1.314 . S
C552 C554 1.353 . S
C552 H558 0.930 . S
N553 Li529 1.990 . S
N553 C552 1.314 . S
N553 C556 1.279 . S
C554 C552 1.353 . S
C554 C557 1.348 . S
C554 H602 0.929 . S
C555 C556 1.358 . S
C555 C557 1.356 . S
C555 H603 0.930 . S
C556 N553 1.279 . S
C556 C555 1.358 . S
C556 H559 0.930 . S
C557 C554 1.348 . S
C557 C555 1.356 . S
H558 C552 0.930 . S
H559 C556 0.930 . S
C560 C562 1.348 . S
C560 C563 1.356 . S
C560 O590 1.325 . S
N561 C564 1.314 . S
N561 C565 1.279 . S
C562 C560 1.348 . S
C562 C564 1.353 . S
C562 H604 0.929 . S
C563 C560 1.356 . S
C563 C565 1.358 . S
C563 H605 0.930 . S
C564 N561 1.314 . S
C564 C562 1.353 . S
C564 H606 0.930 . S
C565 N561 1.279 . S
C565 C563 1.358 . S
C565 H607 0.930 . S
C566 C567 1.348 . S
C566 C568 1.356 . S
C566 O591 1.325 . S
C567 C566 1.348 . S
C567 C569 1.353 . S
C567 H608 0.929 . S
C568 C566 1.356 . S
C568 C570 1.358 . S
C568 H609 0.930 . S
C569 C567 1.353 . S
C569 N571 1.314 . S
C569 H610 0.930 . S
C570 C568 1.358 . S
C570 N571 1.279 . S
C570 H611 0.930 . S
N571 C569 1.314 . S
N571 C570 1.279 . S
C572 C574 1.353 . S
C572 N575 1.314 . S
C572 H578 0.930 . S
C573 N575 1.279 . S
C573 C576 1.358 . S
C573 H579 0.930 . S
C574 C572 1.353 . S
C574 C577 1.348 . S
C574 H612 0.929 . S
N575 Li530 1.990 . S
N575 C572 1.314 . S
N575 C573 1.279 . S
C576 C573 1.358 . S
C576 C577 1.356 . S
C576 H613 0.930 . S
C577 C574 1.348 . S
C577 C576 1.356 . S
H578 C572 0.930 . S
H579 C573 0.930 . S
C580 N581 1.314 . S
C580 C582 1.353 . S
C580 H586 0.930 . S
N581 Li531 1.990 . S
N581 C580 1.314 . S
N581 C584 1.279 . S
C582 C580 1.353 . S
C582 C585 1.348 . S
C582 H614 0.929 . S
C583 C584 1.358 . S
C583 C585 1.356 . S
C583 H615 0.930 . S
C584 N581 1.279 . S
C584 C583 1.358 . S
C584 H587 0.930 . S
C585 C582 1.348 . S
C585 C583 1.356 . S
H586 C580 0.930 . S
H587 C584 0.930 . S
O588 Li528 1.956 . S
O588 Li529 1.970 . S
O588 Li530 1.961 . S
O588 C532 1.325 . S
O589 Li528 1.970 . S
O589 Li529 1.956 . S
O589 Li531 1.961 . S
O589 C538 1.325 . S
O590 Li528 1.961 . S
O590 Li530 1.956 . S
O590 Li531 1.970 . S
O590 C560 1.325 . S
O591 Li529 1.961 . S
O591 Li530 1.970 . S
O591 Li531 1.956 . S
O591 C566 1.325 . S
H592 C534 0.929 . S
H593 C535 0.930 . S
H594 C536 0.930 . S
H595 C537 0.930 . S
H596 C539 0.930 . S
H597 C541 0.929 . S
H598 C542 0.930 . S
H599 C543 0.930 . S
H600 C546 0.930 . S
H601 C549 0.929 . S
H602 C554 0.929 . S
H603 C555 0.930 . S
H604 C562 0.929 . S
H605 C563 0.930 . S
H606 C564 0.930 . S
H607 C565 0.930 . S
H608 C567 0.929 . S
H609 C568 0.930 . S
H610 C569 0.930 . S
H611 C570 0.930 . S
H612 C574 0.929 . S
H613 C576 0.930 . S
H614 C582 0.929 . S
H615 C583 0.930 . S
Li616 N633 1.990 . S
Li616 O676 1.956 . S
Li616 O677 1.970 . S
Li616 O678 1.961 . S
Li617 N641 1.990 . S
Li617 O676 1.970 . S
Li617 O677 1.956 . S
Li617 O679 1.961 . S
Li618 N663 1.990 . S
Li618 O676 1.961 . S
Li618 O678 1.956 . S
Li618 O679 1.970 . S
Li619 N669 1.990 . S
Li619 O677 1.961 . S
Li619 O678 1.970 . S
Li619 O679 1.956 . S
C620 C622 1.348 . S
C620 C623 1.356 . S
C620 O676 1.325 . S
N621 C624 1.314 . S
N621 C625 1.279 . S
C622 C620 1.348 . S
C622 C624 1.353 . S
C622 H680 0.929 . S
C623 C620 1.356 . S
C623 C625 1.358 . S
C623 H681 0.930 . S
C624 N621 1.314 . S
C624 C622 1.353 . S
C624 H682 0.930 . S
C625 N621 1.279 . S
C625 C623 1.358 . S
C625 H683 0.930 . S
C626 C629 1.348 . S
C626 C630 1.356 . S
C626 O677 1.325 . S
C627 N628 1.279 . S
C627 C630 1.358 . S
C627 H684 0.930 . S
N628 C627 1.279 . S
N628 C631 1.314 . S
C629 C626 1.348 . S
C629 C631 1.353 . S
C629 H685 0.929 . S
C630 C626 1.356 . S
C630 C627 1.358 . S
C630 H686 0.930 . S
C631 N628 1.314 . S
C631 C629 1.353 . S
C631 H687 0.930 . S
C632 N633 1.314 . S
C632 C637 1.353 . S
C632 H638 0.930 . S
N633 Li616 1.990 . S
N633 C632 1.314 . S
N633 C635 1.279 . S
C634 C635 1.358 . S
C634 C636 1.356 . S
C634 H688 0.930 . S
C635 N633 1.279 . S
C635 C634 1.358 . S
C635 H639 0.930 . S
C636 C634 1.356 . S
C636 C637 1.348 . S
C637 C632 1.353 . S
C637 C636 1.348 . S
C637 H689 0.929 . S
H638 C632 0.930 . S
H639 C635 0.930 . S
C640 N641 1.314 . S
C640 C642 1.353 . S
C640 H646 0.930 . S
N641 Li617 1.990 . S
N641 C640 1.314 . S
N641 C644 1.279 . S
C642 C640 1.353 . S
C642 C645 1.348 . S
C642 H690 0.929 . S
C643 C644 1.358 . S
C643 C645 1.356 . S
C643 H691 0.930 . S
C644 N641 1.279 . S
C644 C643 1.358 . S
C644 H647 0.930 . S
C645 C642 1.348 . S
C645 C643 1.356 . S
H646 C640 0.930 . S
H647 C644 0.930 . S
C648 C650 1.348 . S
C648 C651 1.356 . S
C648 O678 1.325 . S
N649 C652 1.314 . S
N649 C653 1.279 . S
C650 C648 1.348 . S
C650 C652 1.353 . S
C650 H692 0.929 . S
C651 C648 1.356 . S
C651 C653 1.358 . S
C651 H693 0.930 . S
C652 N649 1.314 . S
C652 C650 1.353 . S
C652 H694 0.930 . S
C653 N649 1.279 . S
C653 C651 1.358 . S
C653 H695 0.930 . S
C654 C655 1.348 . S
C654 C656 1.356 . S
C654 O679 1.325 . S
C655 C654 1.348 . S
C655 C657 1.353 . S
C655 H696 0.929 . S
C656 C654 1.356 . S
C656 C658 1.358 . S
C656 H697 0.930 . S
C657 C655 1.353 . S
C657 N659 1.314 . S
C657 H698 0.930 . S
C658 C656 1.358 . S
C658 N659 1.279 . S
C658 H699 0.930 . S
N659 C657 1.314 . S
N659 C658 1.279 . S
C660 C662 1.353 . S
C660 N663 1.314 . S
C660 H666 0.930 . S
C661 N663 1.279 . S
C661 C664 1.358 . S
C661 H667 0.930 . S
C662 C660 1.353 . S
C662 C665 1.348 . S
C662 H700 0.929 . S
N663 Li618 1.990 . S
N663 C660 1.314 . S
N663 C661 1.279 . S
C664 C661 1.358 . S
C664 C665 1.356 . S
C664 H701 0.930 . S
C665 C662 1.348 . S
C665 C664 1.356 . S
H666 C660 0.930 . S
H667 C661 0.930 . S
C668 N669 1.314 . S
C668 C670 1.353 . S
C668 H674 0.930 . S
N669 Li619 1.990 . S
N669 C668 1.314 . S
N669 C672 1.279 . S
C670 C668 1.353 . S
C670 C673 1.348 . S
C670 H702 0.929 . S
C671 C672 1.358 . S
C671 C673 1.356 . S
C671 H703 0.930 . S
C672 N669 1.279 . S
C672 C671 1.358 . S
C672 H675 0.930 . S
C673 C670 1.348 . S
C673 C671 1.356 . S
H674 C668 0.930 . S
H675 C672 0.930 . S
O676 Li616 1.956 . S
O676 Li617 1.970 . S
O676 Li618 1.961 . S
O676 C620 1.325 . S
O677 Li616 1.970 . S
O677 Li617 1.956 . S
O677 Li619 1.961 . S
O677 C626 1.325 . S
O678 Li616 1.961 . S
O678 Li618 1.956 . S
O678 Li619 1.970 . S
O678 C648 1.325 . S
O679 Li617 1.961 . S
O679 Li618 1.970 . S
O679 Li619 1.956 . S
O679 C654 1.325 . S
H680 C622 0.929 . S
H681 C623 0.930 . S
H682 C624 0.930 . S
H683 C625 0.930 . S
H684 C627 0.930 . S
H685 C629 0.929 . S
H686 C630 0.930 . S
H687 C631 0.930 . S
H688 C634 0.930 . S
H689 C637 0.929 . S
H690 C642 0.929 . S
H691 C643 0.930 . S
H692 C650 0.929 . S
H693 C651 0.930 . S
H694 C652 0.930 . S
H695 C653 0.930 . S
H696 C655 0.929 . S
H697 C656 0.930 . S
H698 C657 0.930 . S
H699 C658 0.930 . S
H700 C662 0.929 . S
H701 C664 0.930 . S
H702 C670 0.929 . S
H703 C671 0.930 . S
Li704 N721 1.990 . S
Li704 O764 1.956 . S
Li704 O765 1.970 . S
Li704 O766 1.961 . S
Li705 N729 1.990 . S
Li705 O764 1.970 . S
Li705 O765 1.956 . S
Li705 O767 1.961 . S
Li706 N751 1.990 . S
Li706 O764 1.961 . S
Li706 O766 1.956 . S
Li706 O767 1.970 . S
Li707 N757 1.990 . S
Li707 O765 1.961 . S
Li707 O766 1.970 . S
Li707 O767 1.956 . S
C708 C710 1.348 . S
C708 C711 1.356 . S
C708 O764 1.325 . S
N709 C712 1.314 . S
N709 C713 1.279 . S
C710 C708 1.348 . S
C710 C712 1.353 . S
C710 H768 0.929 . S
C711 C708 1.356 . S
C711 C713 1.358 . S
C711 H769 0.930 . S
C712 N709 1.314 . S
C712 C710 1.353 . S
C712 H770 0.930 . S
C713 N709 1.279 . S
C713 C711 1.358 . S
C713 H771 0.930 . S
C714 C717 1.348 . S
C714 C718 1.356 . S
C714 O765 1.325 . S
C715 N716 1.279 . S
C715 C718 1.358 . S
C715 H772 0.930 . S
N716 C715 1.279 . S
N716 C719 1.314 . S
C717 C714 1.348 . S
C717 C719 1.353 . S
C717 H773 0.929 . S
C718 C714 1.356 . S
C718 C715 1.358 . S
C718 H774 0.930 . S
C719 N716 1.314 . S
C719 C717 1.353 . S
C719 H775 0.930 . S
C720 N721 1.314 . S
C720 C725 1.353 . S
C720 H726 0.930 . S
N721 Li704 1.990 . S
N721 C720 1.314 . S
N721 C723 1.279 . S
C722 C723 1.358 . S
C722 C724 1.356 . S
C722 H776 0.930 . S
C723 N721 1.279 . S
C723 C722 1.358 . S
C723 H727 0.930 . S
C724 C722 1.356 . S
C724 C725 1.348 . S
C725 C720 1.353 . S
C725 C724 1.348 . S
C725 H777 0.929 . S
H726 C720 0.930 . S
H727 C723 0.930 . S
C728 N729 1.314 . S
C728 C730 1.353 . S
C728 H734 0.930 . S
N729 Li705 1.990 . S
N729 C728 1.314 . S
N729 C732 1.279 . S
C730 C728 1.353 . S
C730 C733 1.348 . S
C730 H778 0.929 . S
C731 C732 1.358 . S
C731 C733 1.356 . S
C731 H779 0.930 . S
C732 N729 1.279 . S
C732 C731 1.358 . S
C732 H735 0.930 . S
C733 C730 1.348 . S
C733 C731 1.356 . S
H734 C728 0.930 . S
H735 C732 0.930 . S
C736 C738 1.348 . S
C736 C739 1.356 . S
C736 O766 1.325 . S
N737 C740 1.314 . S
N737 C741 1.279 . S
C738 C736 1.348 . S
C738 C740 1.353 . S
C738 H780 0.929 . S
C739 C736 1.356 . S
C739 C741 1.358 . S
C739 H781 0.930 . S
C740 N737 1.314 . S
C740 C738 1.353 . S
C740 H782 0.930 . S
C741 N737 1.279 . S
C741 C739 1.358 . S
C741 H783 0.930 . S
C742 C743 1.348 . S
C742 C744 1.356 . S
C742 O767 1.325 . S
C743 C742 1.348 . S
C743 C745 1.353 . S
C743 H784 0.929 . S
C744 C742 1.356 . S
C744 C746 1.358 . S
C744 H785 0.930 . S
C745 C743 1.353 . S
C745 N747 1.314 . S
C745 H786 0.930 . S
C746 C744 1.358 . S
C746 N747 1.279 . S
C746 H787 0.930 . S
N747 C745 1.314 . S
N747 C746 1.279 . S
C748 C750 1.353 . S
C748 N751 1.314 . S
C748 H754 0.930 . S
C749 N751 1.279 . S
C749 C752 1.358 . S
C749 H755 0.930 . S
C750 C748 1.353 . S
C750 C753 1.348 . S
C750 H788 0.929 . S
N751 Li706 1.990 . S
N751 C748 1.314 . S
N751 C749 1.279 . S
C752 C749 1.358 . S
C752 C753 1.356 . S
C752 H789 0.930 . S
C753 C750 1.348 . S
C753 C752 1.356 . S
H754 C748 0.930 . S
H755 C749 0.930 . S
C756 N757 1.314 . S
C756 C758 1.353 . S
C756 H762 0.930 . S
N757 Li707 1.990 . S
N757 C756 1.314 . S
N757 C760 1.279 . S
C758 C756 1.353 . S
C758 C761 1.348 . S
C758 H790 0.929 . S
C759 C760 1.358 . S
C759 C761 1.356 . S
C759 H791 0.930 . S
C760 N757 1.279 . S
C760 C759 1.358 . S
C760 H763 0.930 . S
C761 C758 1.348 . S
C761 C759 1.356 . S
H762 C756 0.930 . S
H763 C760 0.930 . S
O764 Li704 1.956 . S
O764 Li705 1.970 . S
O764 Li706 1.961 . S
O764 C708 1.325 . S
O765 Li704 1.970 . S
O765 Li705 1.956 . S
O765 Li707 1.961 . S
O765 C714 1.325 . S
O766 Li704 1.961 . S
O766 Li706 1.956 . S
O766 Li707 1.970 . S
O766 C736 1.325 . S
O767 Li705 1.961 . S
O767 Li706 1.970 . S
O767 Li707 1.956 . S
O767 C742 1.325 . S
H768 C710 0.929 . S
H769 C711 0.930 . S
H770 C712 0.930 . S
H771 C713 0.930 . S
H772 C715 0.930 . S
H773 C717 0.929 . S
H774 C718 0.930 . S
H775 C719 0.930 . S
H776 C722 0.930 . S
H777 C725 0.929 . S
H778 C730 0.929 . S
H779 C731 0.930 . S
H780 C738 0.929 . S
H781 C739 0.930 . S
H782 C740 0.930 . S
H783 C741 0.930 . S
H784 C743 0.929 . S
H785 C744 0.930 . S
H786 C745 0.930 . S
H787 C746 0.930 . S
H788 C750 0.929 . S
H789 C752 0.930 . S
H790 C758 0.929 . S
H791 C759 0.930 . S
Li792 N809 1.990 . S
Li792 O852 1.956 . S
Li792 O853 1.970 . S
Li792 O854 1.961 . S
Li793 N817 1.990 . S
Li793 O852 1.970 . S
Li793 O853 1.956 . S
Li793 O855 1.961 . S
Li794 N839 1.990 . S
Li794 O852 1.961 . S
Li794 O854 1.956 . S
Li794 O855 1.970 . S
Li795 N845 1.990 . S
Li795 O853 1.961 . S
Li795 O854 1.970 . S
Li795 O855 1.956 . S
C796 C798 1.348 . S
C796 C799 1.356 . S
C796 O852 1.325 . S
N797 C800 1.314 . S
N797 C801 1.279 . S
C798 C796 1.348 . S
C798 C800 1.353 . S
C798 H856 0.929 . S
C799 C796 1.356 . S
C799 C801 1.358 . S
C799 H857 0.930 . S
C800 N797 1.314 . S
C800 C798 1.353 . S
C800 H858 0.930 . S
C801 N797 1.279 . S
C801 C799 1.358 . S
C801 H859 0.930 . S
C802 C805 1.348 . S
C802 C806 1.356 . S
C802 O853 1.325 . S
C803 N804 1.279 . S
C803 C806 1.358 . S
C803 H860 0.930 . S
N804 C803 1.279 . S
N804 C807 1.314 . S
C805 C802 1.348 . S
C805 C807 1.353 . S
C805 H861 0.929 . S
C806 C802 1.356 . S
C806 C803 1.358 . S
C806 H862 0.930 . S
C807 N804 1.314 . S
C807 C805 1.353 . S
C807 H863 0.930 . S
C808 N809 1.314 . S
C808 C813 1.353 . S
C808 H814 0.930 . S
N809 Li792 1.990 . S
N809 C808 1.314 . S
N809 C811 1.279 . S
C810 C811 1.358 . S
C810 C812 1.356 . S
C810 H864 0.930 . S
C811 N809 1.279 . S
C811 C810 1.358 . S
C811 H815 0.930 . S
C812 C810 1.356 . S
C812 C813 1.348 . S
C813 C808 1.353 . S
C813 C812 1.348 . S
C813 H865 0.929 . S
H814 C808 0.930 . S
H815 C811 0.930 . S
C816 N817 1.314 . S
C816 C818 1.353 . S
C816 H822 0.930 . S
N817 Li793 1.990 . S
N817 C816 1.314 . S
N817 C820 1.279 . S
C818 C816 1.353 . S
C818 C821 1.348 . S
C818 H866 0.929 . S
C819 C820 1.358 . S
C819 C821 1.356 . S
C819 H867 0.930 . S
C820 N817 1.279 . S
C820 C819 1.358 . S
C820 H823 0.930 . S
C821 C818 1.348 . S
C821 C819 1.356 . S
H822 C816 0.930 . S
H823 C820 0.930 . S
C824 C826 1.348 . S
C824 C827 1.356 . S
C824 O854 1.325 . S
N825 C828 1.314 . S
N825 C829 1.279 . S
C826 C824 1.348 . S
C826 C828 1.353 . S
C826 H868 0.929 . S
C827 C824 1.356 . S
C827 C829 1.358 . S
C827 H869 0.930 . S
C828 N825 1.314 . S
C828 C826 1.353 . S
C828 H870 0.930 . S
C829 N825 1.279 . S
C829 C827 1.358 . S
C829 H871 0.930 . S
C830 C831 1.348 . S
C830 C832 1.356 . S
C830 O855 1.325 . S
C831 C830 1.348 . S
C831 C833 1.353 . S
C831 H872 0.929 . S
C832 C830 1.356 . S
C832 C834 1.358 . S
C832 H873 0.930 . S
C833 C831 1.353 . S
C833 N835 1.314 . S
C833 H874 0.930 . S
C834 C832 1.358 . S
C834 N835 1.279 . S
C834 H875 0.930 . S
N835 C833 1.314 . S
N835 C834 1.279 . S
C836 C838 1.353 . S
C836 N839 1.314 . S
C836 H842 0.930 . S
C837 N839 1.279 . S
C837 C840 1.358 . S
C837 H843 0.930 . S
C838 C836 1.353 . S
C838 C841 1.348 . S
C838 H876 0.929 . S
N839 Li794 1.990 . S
N839 C836 1.314 . S
N839 C837 1.279 . S
C840 C837 1.358 . S
C840 C841 1.356 . S
C840 H877 0.930 . S
C841 C838 1.348 . S
C841 C840 1.356 . S
H842 C836 0.930 . S
H843 C837 0.930 . S
C844 N845 1.314 . S
C844 C846 1.353 . S
C844 H850 0.930 . S
N845 Li795 1.990 . S
N845 C844 1.314 . S
N845 C848 1.279 . S
C846 C844 1.353 . S
C846 C849 1.348 . S
C846 H878 0.929 . S
C847 C848 1.358 . S
C847 C849 1.356 . S
C847 H879 0.930 . S
C848 N845 1.279 . S
C848 C847 1.358 . S
C848 H851 0.930 . S
C849 C846 1.348 . S
C849 C847 1.356 . S
H850 C844 0.930 . S
H851 C848 0.930 . S
O852 Li792 1.956 . S
O852 Li793 1.970 . S
O852 Li794 1.961 . S
O852 C796 1.325 . S
O853 Li792 1.970 . S
O853 Li793 1.956 . S
O853 Li795 1.961 . S
O853 C802 1.325 . S
O854 Li792 1.961 . S
O854 Li794 1.956 . S
O854 Li795 1.970 . S
O854 C824 1.325 . S
O855 Li793 1.961 . S
O855 Li794 1.970 . S
O855 Li795 1.956 . S
O855 C830 1.325 . S
H856 C798 0.929 . S
H857 C799 0.930 . S
H858 C800 0.930 . S
H859 C801 0.930 . S
H860 C803 0.930 . S
H861 C805 0.929 . S
H862 C806 0.930 . S
H863 C807 0.930 . S
H864 C810 0.930 . S
H865 C813 0.929 . S
H866 C818 0.929 . S
H867 C819 0.930 . S
H868 C826 0.929 . S
H869 C827 0.930 . S
H870 C828 0.930 . S
H871 C829 0.930 . S
H872 C831 0.929 . S
H873 C832 0.930 . S
H874 C833 0.930 . S
H875 C834 0.930 . S
H876 C838 0.929 . S
H877 C840 0.930 . S
H878 C846 0.929 . S
H879 C847 0.930 . S
Li880 N897 1.990 . S
Li880 O940 1.956 . S
Li880 O941 1.970 . S
Li880 O942 1.961 . S
Li881 N905 1.990 . S
Li881 O940 1.970 . S
Li881 O941 1.956 . S
Li881 O943 1.961 . S
Li882 N927 1.990 . S
Li882 O940 1.961 . S
Li882 O942 1.956 . S
Li882 O943 1.970 . S
Li883 N933 1.990 . S
Li883 O941 1.961 . S
Li883 O942 1.970 . S
Li883 O943 1.956 . S
C884 C886 1.348 . S
C884 C887 1.356 . S
C884 O940 1.325 . S
N885 C888 1.314 . S
N885 C889 1.279 . S
C886 C884 1.348 . S
C886 C888 1.353 . S
C886 H944 0.929 . S
C887 C884 1.356 . S
C887 C889 1.358 . S
C887 H945 0.930 . S
C888 N885 1.314 . S
C888 C886 1.353 . S
C888 H946 0.930 . S
C889 N885 1.279 . S
C889 C887 1.358 . S
C889 H947 0.930 . S
C890 C893 1.348 . S
C890 C894 1.356 . S
C890 O941 1.325 . S
C891 N892 1.279 . S
C891 C894 1.358 . S
C891 H948 0.930 . S
N892 C891 1.279 . S
N892 C895 1.314 . S
C893 C890 1.348 . S
C893 C895 1.353 . S
C893 H949 0.929 . S
C894 C890 1.356 . S
C894 C891 1.358 . S
C894 H950 0.930 . S
C895 N892 1.314 . S
C895 C893 1.353 . S
C895 H951 0.930 . S
C896 N897 1.314 . S
C896 C901 1.353 . S
C896 H902 0.930 . S
N897 Li880 1.990 . S
N897 C896 1.314 . S
N897 C899 1.279 . S
C898 C899 1.358 . S
C898 C900 1.356 . S
C898 H952 0.930 . S
C899 N897 1.279 . S
C899 C898 1.358 . S
C899 H903 0.930 . S
C900 C898 1.356 . S
C900 C901 1.348 . S
C901 C896 1.353 . S
C901 C900 1.348 . S
C901 H953 0.929 . S
H902 C896 0.930 . S
H903 C899 0.930 . S
C904 N905 1.314 . S
C904 C906 1.353 . S
C904 H910 0.930 . S
N905 Li881 1.990 . S
N905 C904 1.314 . S
N905 C908 1.279 . S
C906 C904 1.353 . S
C906 C909 1.348 . S
C906 H954 0.929 . S
C907 C908 1.358 . S
C907 C909 1.356 . S
C907 H955 0.930 . S
C908 N905 1.279 . S
C908 C907 1.358 . S
C908 H911 0.930 . S
C909 C906 1.348 . S
C909 C907 1.356 . S
H910 C904 0.930 . S
H911 C908 0.930 . S
C912 C914 1.348 . S
C912 C915 1.356 . S
C912 O942 1.325 . S
N913 C916 1.314 . S
N913 C917 1.279 . S
C914 C912 1.348 . S
C914 C916 1.353 . S
C914 H956 0.929 . S
C915 C912 1.356 . S
C915 C917 1.358 . S
C915 H957 0.930 . S
C916 N913 1.314 . S
C916 C914 1.353 . S
C916 H958 0.930 . S
C917 N913 1.279 . S
C917 C915 1.358 . S
C917 H959 0.930 . S
C918 C919 1.348 . S
C918 C920 1.356 . S
C918 O943 1.325 . S
C919 C918 1.348 . S
C919 C921 1.353 . S
C919 H960 0.929 . S
C920 C918 1.356 . S
C920 C922 1.358 . S
C920 H961 0.930 . S
C921 C919 1.353 . S
C921 N923 1.314 . S
C921 H962 0.930 . S
C922 C920 1.358 . S
C922 N923 1.279 . S
C922 H963 0.930 . S
N923 C921 1.314 . S
N923 C922 1.279 . S
C924 C926 1.353 . S
C924 N927 1.314 . S
C924 H930 0.930 . S
C925 N927 1.279 . S
C925 C928 1.358 . S
C925 H931 0.930 . S
C926 C924 1.353 . S
C926 C929 1.348 . S
C926 H964 0.929 . S
N927 Li882 1.990 . S
N927 C924 1.314 . S
N927 C925 1.279 . S
C928 C925 1.358 . S
C928 C929 1.356 . S
C928 H965 0.930 . S
C929 C926 1.348 . S
C929 C928 1.356 . S
H930 C924 0.930 . S
H931 C925 0.930 . S
C932 N933 1.314 . S
C932 C934 1.353 . S
C932 H938 0.930 . S
N933 Li883 1.990 . S
N933 C932 1.314 . S
N933 C936 1.279 . S
C934 C932 1.353 . S
C934 C937 1.348 . S
C934 H966 0.929 . S
C935 C936 1.358 . S
C935 C937 1.356 . S
C935 H967 0.930 . S
C936 N933 1.279 . S
C936 C935 1.358 . S
C936 H939 0.930 . S
C937 C934 1.348 . S
C937 C935 1.356 . S
H938 C932 0.930 . S
H939 C936 0.930 . S
O940 Li880 1.956 . S
O940 Li881 1.970 . S
O940 Li882 1.961 . S
O940 C884 1.325 . S
O941 Li880 1.970 . S
O941 Li881 1.956 . S
O941 Li883 1.961 . S
O941 C890 1.325 . S
O942 Li880 1.961 . S
O942 Li882 1.956 . S
O942 Li883 1.970 . S
O942 C912 1.325 . S
O943 Li881 1.961 . S
O943 Li882 1.970 . S
O943 Li883 1.956 . S
O943 C918 1.325 . S
H944 C886 0.929 . S
H945 C887 0.930 . S
H946 C888 0.930 . S
H947 C889 0.930 . S
H948 C891 0.930 . S
H949 C893 0.929 . S
H950 C894 0.930 . S
H951 C895 0.930 . S
H952 C898 0.930 . S
H953 C901 0.929 . S
H954 C906 0.929 . S
H955 C907 0.930 . S
H956 C914 0.929 . S
H957 C915 0.930 . S
H958 C916 0.930 . S
H959 C917 0.930 . S
H960 C919 0.929 . S
H961 C920 0.930 . S
H962 C921 0.930 . S
H963 C922 0.930 . S
H964 C926 0.929 . S
H965 C928 0.930 . S
H966 C934 0.929 . S
H967 C935 0.930 . S
Li968 N985 1.990 . S
Li968 O1028 1.956 . S
Li968 O1029 1.970 . S
Li968 O1030 1.961 . S
Li969 N993 1.990 . S
Li969 O1028 1.970 . S
Li969 O1029 1.956 . S
Li969 O1031 1.961 . S
Li970 N1015 1.990 . S
Li970 O1028 1.961 . S
Li970 O1030 1.956 . S
Li970 O1031 1.970 . S
Li971 N1021 1.990 . S
Li971 O1029 1.961 . S
Li971 O1030 1.970 . S
Li971 O1031 1.956 . S
C972 C974 1.348 . S
C972 C975 1.356 . S
C972 O1028 1.325 . S
N973 C976 1.314 . S
N973 C977 1.279 . S
C974 C972 1.348 . S
C974 C976 1.353 . S
C974 H1032 0.929 . S
C975 C972 1.356 . S
C975 C977 1.358 . S
C975 H1033 0.930 . S
C976 N973 1.314 . S
C976 C974 1.353 . S
C976 H1034 0.930 . S
C977 N973 1.279 . S
C977 C975 1.358 . S
C977 H1035 0.930 . S
C978 C981 1.348 . S
C978 C982 1.356 . S
C978 O1029 1.325 . S
C979 N980 1.279 . S
C979 C982 1.358 . S
C979 H1036 0.930 . S
N980 C979 1.279 . S
N980 C983 1.314 . S
C981 C978 1.348 . S
C981 C983 1.353 . S
C981 H1037 0.929 . S
C982 C978 1.356 . S
C982 C979 1.358 . S
C982 H1038 0.930 . S
C983 N980 1.314 . S
C983 C981 1.353 . S
C983 H1039 0.930 . S
C984 N985 1.314 . S
C984 C989 1.353 . S
C984 H990 0.930 . S
N985 Li968 1.990 . S
N985 C984 1.314 . S
N985 C987 1.279 . S
C986 C987 1.358 . S
C986 C988 1.356 . S
C986 H1040 0.930 . S
C987 N985 1.279 . S
C987 C986 1.358 . S
C987 H991 0.930 . S
C988 C986 1.356 . S
C988 C989 1.348 . S
C989 C984 1.353 . S
C989 C988 1.348 . S
C989 H1041 0.929 . S
H990 C984 0.930 . S
H991 C987 0.930 . S
C992 N993 1.314 . S
C992 C994 1.353 . S
C992 H998 0.930 . S
N993 Li969 1.990 . S
N993 C992 1.314 . S
N993 C996 1.279 . S
C994 C992 1.353 . S
C994 C997 1.348 . S
C994 H1042 0.929 . S
C995 C996 1.358 . S
C995 C997 1.356 . S
C995 H1043 0.930 . S
C996 N993 1.279 . S
C996 C995 1.358 . S
C996 H999 0.930 . S
C997 C994 1.348 . S
C997 C995 1.356 . S
H998 C992 0.930 . S
H999 C996 0.930 . S
C1000 C1002 1.348 . S
C1000 C1003 1.356 . S
C1000 O1030 1.325 . S
N1001 C1004 1.314 . S
N1001 C1005 1.279 . S
C1002 C1000 1.348 . S
C1002 C1004 1.353 . S
C1002 H1044 0.929 . S
C1003 C1000 1.356 . S
C1003 C1005 1.358 . S
C1003 H1045 0.930 . S
C1004 N1001 1.314 . S
C1004 C1002 1.353 . S
C1004 H1046 0.930 . S
C1005 N1001 1.279 . S
C1005 C1003 1.358 . S
C1005 H1047 0.930 . S
C1006 C1007 1.348 . S
C1006 C1008 1.356 . S
C1006 O1031 1.325 . S
C1007 C1006 1.348 . S
C1007 C1009 1.353 . S
C1007 H1048 0.929 . S
C1008 C1006 1.356 . S
C1008 C1010 1.358 . S
C1008 H1049 0.930 . S
C1009 C1007 1.353 . S
C1009 N1011 1.314 . S
C1009 H1050 0.930 . S
C1010 C1008 1.358 . S
C1010 N1011 1.279 . S
C1010 H1051 0.930 . S
N1011 C1009 1.314 . S
N1011 C1010 1.279 . S
C1012 C1014 1.353 . S
C1012 N1015 1.314 . S
C1012 H1018 0.930 . S
C1013 N1015 1.279 . S
C1013 C1016 1.358 . S
C1013 H1019 0.930 . S
C1014 C1012 1.353 . S
C1014 C1017 1.348 . S
C1014 H1052 0.929 . S
N1015 Li970 1.990 . S
N1015 C1012 1.314 . S
N1015 C1013 1.279 . S
C1016 C1013 1.358 . S
C1016 C1017 1.356 . S
C1016 H1053 0.930 . S
C1017 C1014 1.348 . S
C1017 C1016 1.356 . S
H1018 C1012 0.930 . S
H1019 C1013 0.930 . S
C1020 N1021 1.314 . S
C1020 C1022 1.353 . S
C1020 H1026 0.930 . S
N1021 Li971 1.990 . S
N1021 C1020 1.314 . S
N1021 C1024 1.279 . S
C1022 C1020 1.353 . S
C1022 C1025 1.348 . S
C1022 H1054 0.929 . S
C1023 C1024 1.358 . S
C1023 C1025 1.356 . S
C1023 H1055 0.930 . S
C1024 N1021 1.279 . S
C1024 C1023 1.358 . S
C1024 H1027 0.930 . S
C1025 C1022 1.348 . S
C1025 C1023 1.356 . S
H1026 C1020 0.930 . S
H1027 C1024 0.930 . S
O1028 Li968 1.956 . S
O1028 Li969 1.970 . S
O1028 Li970 1.961 . S
O1028 C972 1.325 . S
O1029 Li968 1.970 . S
O1029 Li969 1.956 . S
O1029 Li971 1.961 . S
O1029 C978 1.325 . S
O1030 Li968 1.961 . S
O1030 Li970 1.956 . S
O1030 Li971 1.970 . S
O1030 C1000 1.325 . S
O1031 Li969 1.961 . S
O1031 Li970 1.970 . S
O1031 Li971 1.956 . S
O1031 C1006 1.325 . S
H1032 C974 0.929 . S
H1033 C975 0.930 . S
H1034 C976 0.930 . S
H1035 C977 0.930 . S
H1036 C979 0.930 . S
H1037 C981 0.929 . S
H1038 C982 0.930 . S
H1039 C983 0.930 . S
H1040 C986 0.930 . S
H1041 C989 0.929 . S
H1042 C994 0.929 . S
H1043 C995 0.930 . S
H1044 C1002 0.929 . S
H1045 C1003 0.930 . S
H1046 C1004 0.930 . S
H1047 C1005 0.930 . S
H1048 C1007 0.929 . S
H1049 C1008 0.930 . S
H1050 C1009 0.930 . S
H1051 C1010 0.930 . S
H1052 C1014 0.929 . S
H1053 C1016 0.930 . S
H1054 C1022 0.929 . S
H1055 C1023 0.930 . S
Li1056 N1073 1.990 . S
Li1056 O1116 1.956 . S
Li1056 O1117 1.970 . S
Li1056 O1118 1.961 . S
Li1057 N1081 1.990 . S
Li1057 O1116 1.970 . S
Li1057 O1117 1.956 . S
Li1057 O1119 1.961 . S
Li1058 N1103 1.990 . S
Li1058 O1116 1.961 . S
Li1058 O1118 1.956 . S
Li1058 O1119 1.970 . S
Li1059 N1109 1.990 . S
Li1059 O1117 1.961 . S
Li1059 O1118 1.970 . S
Li1059 O1119 1.956 . S
C1060 C1062 1.348 . S
C1060 C1063 1.356 . S
C1060 O1116 1.325 . S
N1061 C1064 1.314 . S
N1061 C1065 1.279 . S
C1062 C1060 1.348 . S
C1062 C1064 1.353 . S
C1062 H1120 0.929 . S
C1063 C1060 1.356 . S
C1063 C1065 1.358 . S
C1063 H1121 0.930 . S
C1064 N1061 1.314 . S
C1064 C1062 1.353 . S
C1064 H1122 0.930 . S
C1065 N1061 1.279 . S
C1065 C1063 1.358 . S
C1065 H1123 0.930 . S
C1066 C1069 1.348 . S
C1066 C1070 1.356 . S
C1066 O1117 1.325 . S
C1067 N1068 1.279 . S
C1067 C1070 1.358 . S
C1067 H1124 0.930 . S
N1068 C1067 1.279 . S
N1068 C1071 1.314 . S
C1069 C1066 1.348 . S
C1069 C1071 1.353 . S
C1069 H1125 0.929 . S
C1070 C1066 1.356 . S
C1070 C1067 1.358 . S
C1070 H1126 0.930 . S
C1071 N1068 1.314 . S
C1071 C1069 1.353 . S
C1071 H1127 0.930 . S
C1072 N1073 1.314 . S
C1072 C1077 1.353 . S
C1072 H1078 0.930 . S
N1073 Li1056 1.990 . S
N1073 C1072 1.314 . S
N1073 C1075 1.279 . S
C1074 C1075 1.358 . S
C1074 C1076 1.356 . S
C1074 H1128 0.930 . S
C1075 N1073 1.279 . S
C1075 C1074 1.358 . S
C1075 H1079 0.930 . S
C1076 C1074 1.356 . S
C1076 C1077 1.348 . S
C1077 C1072 1.353 . S
C1077 C1076 1.348 . S
C1077 H1129 0.929 . S
H1078 C1072 0.930 . S
H1079 C1075 0.930 . S
C1080 N1081 1.314 . S
C1080 C1082 1.353 . S
C1080 H1086 0.930 . S
N1081 Li1057 1.990 . S
N1081 C1080 1.314 . S
N1081 C1084 1.279 . S
C1082 C1080 1.353 . S
C1082 C1085 1.348 . S
C1082 H1130 0.929 . S
C1083 C1084 1.358 . S
C1083 C1085 1.356 . S
C1083 H1131 0.930 . S
C1084 N1081 1.279 . S
C1084 C1083 1.358 . S
C1084 H1087 0.930 . S
C1085 C1082 1.348 . S
C1085 C1083 1.356 . S
H1086 C1080 0.930 . S
H1087 C1084 0.930 . S
C1088 C1090 1.348 . S
C1088 C1091 1.356 . S
C1088 O1118 1.325 . S
N1089 C1092 1.314 . S
N1089 C1093 1.279 . S
C1090 C1088 1.348 . S
C1090 C1092 1.353 . S
C1090 H1132 0.929 . S
C1091 C1088 1.356 . S
C1091 C1093 1.358 . S
C1091 H1133 0.930 . S
C1092 N1089 1.314 . S
C1092 C1090 1.353 . S
C1092 H1134 0.930 . S
C1093 N1089 1.279 . S
C1093 C1091 1.358 . S
C1093 H1135 0.930 . S
C1094 C1095 1.348 . S
C1094 C1096 1.356 . S
C1094 O1119 1.325 . S
C1095 C1094 1.348 . S
C1095 C1097 1.353 . S
C1095 H1136 0.929 . S
C1096 C1094 1.356 . S
C1096 C1098 1.358 . S
C1096 H1137 0.930 . S
C1097 C1095 1.353 . S
C1097 N1099 1.314 . S
C1097 H1138 0.930 . S
C1098 C1096 1.358 . S
C1098 N1099 1.279 . S
C1098 H1139 0.930 . S
N1099 C1097 1.314 . S
N1099 C1098 1.279 . S
C1100 C1102 1.353 . S
C1100 N1103 1.314 . S
C1100 H1106 0.930 . S
C1101 N1103 1.279 . S
C1101 C1104 1.358 . S
C1101 H1107 0.930 . S
C1102 C1100 1.353 . S
C1102 C1105 1.348 . S
C1102 H1140 0.929 . S
N1103 Li1058 1.990 . S
N1103 C1100 1.314 . S
N1103 C1101 1.279 . S
C1104 C1101 1.358 . S
C1104 C1105 1.356 . S
C1104 H1141 0.930 . S
C1105 C1102 1.348 . S
C1105 C1104 1.356 . S
H1106 C1100 0.930 . S
H1107 C1101 0.930 . S
C1108 N1109 1.314 . S
C1108 C1110 1.353 . S
C1108 H1114 0.930 . S
N1109 Li1059 1.990 . S
N1109 C1108 1.314 . S
N1109 C1112 1.279 . S
C1110 C1108 1.353 . S
C1110 C1113 1.348 . S
C1110 H1142 0.929 . S
C1111 C1112 1.358 . S
C1111 C1113 1.356 . S
C1111 H1143 0.930 . S
C1112 N1109 1.279 . S
C1112 C1111 1.358 . S
C1112 H1115 0.930 . S
C1113 C1110 1.348 . S
C1113 C1111 1.356 . S
H1114 C1108 0.930 . S
H1115 C1112 0.930 . S
O1116 Li1056 1.956 . S
O1116 Li1057 1.970 . S
O1116 Li1058 1.961 . S
O1116 C1060 1.325 . S
O1117 Li1056 1.970 . S
O1117 Li1057 1.956 . S
O1117 Li1059 1.961 . S
O1117 C1066 1.325 . S
O1118 Li1056 1.961 . S
O1118 Li1058 1.956 . S
O1118 Li1059 1.970 . S
O1118 C1088 1.325 . S
O1119 Li1057 1.961 . S
O1119 Li1058 1.970 . S
O1119 Li1059 1.956 . S
O1119 C1094 1.325 . S
H1120 C1062 0.929 . S
H1121 C1063 0.930 . S
H1122 C1064 0.930 . S
H1123 C1065 0.930 . S
H1124 C1067 0.930 . S
H1125 C1069 0.929 . S
H1126 C1070 0.930 . S
H1127 C1071 0.930 . S
H1128 C1074 0.930 . S
H1129 C1077 0.929 . S
H1130 C1082 0.929 . S
H1131 C1083 0.930 . S
H1132 C1090 0.929 . S
H1133 C1091 0.930 . S
H1134 C1092 0.930 . S
H1135 C1093 0.930 . S
H1136 C1095 0.929 . S
H1137 C1096 0.930 . S
H1138 C1097 0.930 . S
H1139 C1098 0.930 . S
H1140 C1102 0.929 . S
H1141 C1104 0.930 . S
H1142 C1110 0.929 . S
H1143 C1111 0.930 . S
Li1144 N1161 1.990 . S
Li1144 O1204 1.956 . S
Li1144 O1205 1.970 . S
Li1144 O1206 1.961 . S
Li1145 N1169 1.990 . S
Li1145 O1204 1.970 . S
Li1145 O1205 1.956 . S
Li1145 O1207 1.961 . S
Li1146 N1191 1.990 . S
Li1146 O1204 1.961 . S
Li1146 O1206 1.956 . S
Li1146 O1207 1.970 . S
Li1147 N1197 1.990 . S
Li1147 O1205 1.961 . S
Li1147 O1206 1.970 . S
Li1147 O1207 1.956 . S
C1148 C1150 1.348 . S
C1148 C1151 1.356 . S
C1148 O1204 1.325 . S
N1149 C1152 1.314 . S
N1149 C1153 1.279 . S
C1150 C1148 1.348 . S
C1150 C1152 1.353 . S
C1150 H1208 0.929 . S
C1151 C1148 1.356 . S
C1151 C1153 1.358 . S
C1151 H1209 0.930 . S
C1152 N1149 1.314 . S
C1152 C1150 1.353 . S
C1152 H1210 0.930 . S
C1153 N1149 1.279 . S
C1153 C1151 1.358 . S
C1153 H1211 0.930 . S
C1154 C1157 1.348 . S
C1154 C1158 1.356 . S
C1154 O1205 1.325 . S
C1155 N1156 1.279 . S
C1155 C1158 1.358 . S
C1155 H1212 0.930 . S
N1156 C1155 1.279 . S
N1156 C1159 1.314 . S
C1157 C1154 1.348 . S
C1157 C1159 1.353 . S
C1157 H1213 0.929 . S
C1158 C1154 1.356 . S
C1158 C1155 1.358 . S
C1158 H1214 0.930 . S
C1159 N1156 1.314 . S
C1159 C1157 1.353 . S
C1159 H1215 0.930 . S
C1160 N1161 1.314 . S
C1160 C1165 1.353 . S
C1160 H1166 0.930 . S
N1161 Li1144 1.990 . S
N1161 C1160 1.314 . S
N1161 C1163 1.279 . S
C1162 C1163 1.358 . S
C1162 C1164 1.356 . S
C1162 H1216 0.930 . S
C1163 N1161 1.279 . S
C1163 C1162 1.358 . S
C1163 H1167 0.930 . S
C1164 C1162 1.356 . S
C1164 C1165 1.348 . S
C1165 C1160 1.353 . S
C1165 C1164 1.348 . S
C1165 H1217 0.929 . S
H1166 C1160 0.930 . S
H1167 C1163 0.930 . S
C1168 N1169 1.314 . S
C1168 C1170 1.353 . S
C1168 H1174 0.930 . S
N1169 Li1145 1.990 . S
N1169 C1168 1.314 . S
N1169 C1172 1.279 . S
C1170 C1168 1.353 . S
C1170 C1173 1.348 . S
C1170 H1218 0.929 . S
C1171 C1172 1.358 . S
C1171 C1173 1.356 . S
C1171 H1219 0.930 . S
C1172 N1169 1.279 . S
C1172 C1171 1.358 . S
C1172 H1175 0.930 . S
C1173 C1170 1.348 . S
C1173 C1171 1.356 . S
H1174 C1168 0.930 . S
H1175 C1172 0.930 . S
C1176 C1178 1.348 . S
C1176 C1179 1.356 . S
C1176 O1206 1.325 . S
N1177 C1180 1.314 . S
N1177 C1181 1.279 . S
C1178 C1176 1.348 . S
C1178 C1180 1.353 . S
C1178 H1220 0.929 . S
C1179 C1176 1.356 . S
C1179 C1181 1.358 . S
C1179 H1221 0.930 . S
C1180 N1177 1.314 . S
C1180 C1178 1.353 . S
C1180 H1222 0.930 . S
C1181 N1177 1.279 . S
C1181 C1179 1.358 . S
C1181 H1223 0.930 . S
C1182 C1183 1.348 . S
C1182 C1184 1.356 . S
C1182 O1207 1.325 . S
C1183 C1182 1.348 . S
C1183 C1185 1.353 . S
C1183 H1224 0.929 . S
C1184 C1182 1.356 . S
C1184 C1186 1.358 . S
C1184 H1225 0.930 . S
C1185 C1183 1.353 . S
C1185 N1187 1.314 . S
C1185 H1226 0.930 . S
C1186 C1184 1.358 . S
C1186 N1187 1.279 . S
C1186 H1227 0.930 . S
N1187 C1185 1.314 . S
N1187 C1186 1.279 . S
C1188 C1190 1.353 . S
C1188 N1191 1.314 . S
C1188 H1194 0.930 . S
C1189 N1191 1.279 . S
C1189 C1192 1.358 . S
C1189 H1195 0.930 . S
C1190 C1188 1.353 . S
C1190 C1193 1.348 . S
C1190 H1228 0.929 . S
N1191 Li1146 1.990 . S
N1191 C1188 1.314 . S
N1191 C1189 1.279 . S
C1192 C1189 1.358 . S
C1192 C1193 1.356 . S
C1192 H1229 0.930 . S
C1193 C1190 1.348 . S
C1193 C1192 1.356 . S
H1194 C1188 0.930 . S
H1195 C1189 0.930 . S
C1196 N1197 1.314 . S
C1196 C1198 1.353 . S
C1196 H1202 0.930 . S
N1197 Li1147 1.990 . S
N1197 C1196 1.314 . S
N1197 C1200 1.279 . S
C1198 C1196 1.353 . S
C1198 C1201 1.348 . S
C1198 H1230 0.929 . S
C1199 C1200 1.358 . S
C1199 C1201 1.356 . S
C1199 H1231 0.930 . S
C1200 N1197 1.279 . S
C1200 C1199 1.358 . S
C1200 H1203 0.930 . S
C1201 C1198 1.348 . S
C1201 C1199 1.356 . S
H1202 C1196 0.930 . S
H1203 C1200 0.930 . S
O1204 Li1144 1.956 . S
O1204 Li1145 1.970 . S
O1204 Li1146 1.961 . S
O1204 C1148 1.325 . S
O1205 Li1144 1.970 . S
O1205 Li1145 1.956 . S
O1205 Li1147 1.961 . S
O1205 C1154 1.325 . S
O1206 Li1144 1.961 . S
O1206 Li1146 1.956 . S
O1206 Li1147 1.970 . S
O1206 C1176 1.325 . S
O1207 Li1145 1.961 . S
O1207 Li1146 1.970 . S
O1207 Li1147 1.956 . S
O1207 C1182 1.325 . S
H1208 C1150 0.929 . S
H1209 C1151 0.930 . S
H1210 C1152 0.930 . S
H1211 C1153 0.930 . S
H1212 C1155 0.930 . S
H1213 C1157 0.929 . S
H1214 C1158 0.930 . S
H1215 C1159 0.930 . S
H1216 C1162 0.930 . S
H1217 C1165 0.929 . S
H1218 C1170 0.929 . S
H1219 C1171 0.930 . S
H1220 C1178 0.929 . S
H1221 C1179 0.930 . S
H1222 C1180 0.930 . S
H1223 C1181 0.930 . S
H1224 C1183 0.929 . S
H1225 C1184 0.930 . S
H1226 C1185 0.930 . S
H1227 C1186 0.930 . S
H1228 C1190 0.929 . S
H1229 C1192 0.930 . S
H1230 C1198 0.929 . S
H1231 C1199 0.930 . S
Li1232 N1249 1.990 . S
Li1232 O1292 1.956 . S
Li1232 O1293 1.970 . S
Li1232 O1294 1.961 . S
Li1233 N1257 1.990 . S
Li1233 O1292 1.970 . S
Li1233 O1293 1.956 . S
Li1233 O1295 1.961 . S
Li1234 N1279 1.990 . S
Li1234 O1292 1.961 . S
Li1234 O1294 1.956 . S
Li1234 O1295 1.970 . S
Li1235 N1285 1.990 . S
Li1235 O1293 1.961 . S
Li1235 O1294 1.970 . S
Li1235 O1295 1.956 . S
C1236 C1238 1.348 . S
C1236 C1239 1.356 . S
C1236 O1292 1.325 . S
N1237 C1240 1.314 . S
N1237 C1241 1.279 . S
C1238 C1236 1.348 . S
C1238 C1240 1.353 . S
C1238 H1296 0.929 . S
C1239 C1236 1.356 . S
C1239 C1241 1.358 . S
C1239 H1297 0.930 . S
C1240 N1237 1.314 . S
C1240 C1238 1.353 . S
C1240 H1298 0.930 . S
C1241 N1237 1.279 . S
C1241 C1239 1.358 . S
C1241 H1299 0.930 . S
C1242 C1245 1.348 . S
C1242 C1246 1.356 . S
C1242 O1293 1.325 . S
C1243 N1244 1.279 . S
C1243 C1246 1.358 . S
C1243 H1300 0.930 . S
N1244 C1243 1.279 . S
N1244 C1247 1.314 . S
C1245 C1242 1.348 . S
C1245 C1247 1.353 . S
C1245 H1301 0.929 . S
C1246 C1242 1.356 . S
C1246 C1243 1.358 . S
C1246 H1302 0.930 . S
C1247 N1244 1.314 . S
C1247 C1245 1.353 . S
C1247 H1303 0.930 . S
C1248 N1249 1.314 . S
C1248 C1253 1.353 . S
C1248 H1254 0.930 . S
N1249 Li1232 1.990 . S
N1249 C1248 1.314 . S
N1249 C1251 1.279 . S
C1250 C1251 1.358 . S
C1250 C1252 1.356 . S
C1250 H1304 0.930 . S
C1251 N1249 1.279 . S
C1251 C1250 1.358 . S
C1251 H1255 0.930 . S
C1252 C1250 1.356 . S
C1252 C1253 1.348 . S
C1253 C1248 1.353 . S
C1253 C1252 1.348 . S
C1253 H1305 0.929 . S
H1254 C1248 0.930 . S
H1255 C1251 0.930 . S
C1256 N1257 1.314 . S
C1256 C1258 1.353 . S
C1256 H1262 0.930 . S
N1257 Li1233 1.990 . S
N1257 C1256 1.314 . S
N1257 C1260 1.279 . S
C1258 C1256 1.353 . S
C1258 C1261 1.348 . S
C1258 H1306 0.929 . S
C1259 C1260 1.358 . S
C1259 C1261 1.356 . S
C1259 H1307 0.930 . S
C1260 N1257 1.279 . S
C1260 C1259 1.358 . S
C1260 H1263 0.930 . S
C1261 C1258 1.348 . S
C1261 C1259 1.356 . S
H1262 C1256 0.930 . S
H1263 C1260 0.930 . S
C1264 C1266 1.348 . S
C1264 C1267 1.356 . S
C1264 O1294 1.325 . S
N1265 C1268 1.314 . S
N1265 C1269 1.279 . S
C1266 C1264 1.348 . S
C1266 C1268 1.353 . S
C1266 H1308 0.929 . S
C1267 C1264 1.356 . S
C1267 C1269 1.358 . S
C1267 H1309 0.930 . S
C1268 N1265 1.314 . S
C1268 C1266 1.353 . S
C1268 H1310 0.930 . S
C1269 N1265 1.279 . S
C1269 C1267 1.358 . S
C1269 H1311 0.930 . S
C1270 C1271 1.348 . S
C1270 C1272 1.356 . S
C1270 O1295 1.325 . S
C1271 C1270 1.348 . S
C1271 C1273 1.353 . S
C1271 H1312 0.929 . S
C1272 C1270 1.356 . S
C1272 C1274 1.358 . S
C1272 H1313 0.930 . S
C1273 C1271 1.353 . S
C1273 N1275 1.314 . S
C1273 H1314 0.930 . S
C1274 C1272 1.358 . S
C1274 N1275 1.279 . S
C1274 H1315 0.930 . S
N1275 C1273 1.314 . S
N1275 C1274 1.279 . S
C1276 C1278 1.353 . S
C1276 N1279 1.314 . S
C1276 H1282 0.930 . S
C1277 N1279 1.279 . S
C1277 C1280 1.358 . S
C1277 H1283 0.930 . S
C1278 C1276 1.353 . S
C1278 C1281 1.348 . S
C1278 H1316 0.929 . S
N1279 Li1234 1.990 . S
N1279 C1276 1.314 . S
N1279 C1277 1.279 . S
C1280 C1277 1.358 . S
C1280 C1281 1.356 . S
C1280 H1317 0.930 . S
C1281 C1278 1.348 . S
C1281 C1280 1.356 . S
H1282 C1276 0.930 . S
H1283 C1277 0.930 . S
C1284 N1285 1.314 . S
C1284 C1286 1.353 . S
C1284 H1290 0.930 . S
N1285 Li1235 1.990 . S
N1285 C1284 1.314 . S
N1285 C1288 1.279 . S
C1286 C1284 1.353 . S
C1286 C1289 1.348 . S
C1286 H1318 0.929 . S
C1287 C1288 1.358 . S
C1287 C1289 1.356 . S
C1287 H1319 0.930 . S
C1288 N1285 1.279 . S
C1288 C1287 1.358 . S
C1288 H1291 0.930 . S
C1289 C1286 1.348 . S
C1289 C1287 1.356 . S
H1290 C1284 0.930 . S
H1291 C1288 0.930 . S
O1292 Li1232 1.956 . S
O1292 Li1233 1.970 . S
O1292 Li1234 1.961 . S
O1292 C1236 1.325 . S
O1293 Li1232 1.970 . S
O1293 Li1233 1.956 . S
O1293 Li1235 1.961 . S
O1293 C1242 1.325 . S
O1294 Li1232 1.961 . S
O1294 Li1234 1.956 . S
O1294 Li1235 1.970 . S
O1294 C1264 1.325 . S
O1295 Li1233 1.961 . S
O1295 Li1234 1.970 . S
O1295 Li1235 1.956 . S
O1295 C1270 1.325 . S
H1296 C1238 0.929 . S
H1297 C1239 0.930 . S
H1298 C1240 0.930 . S
H1299 C1241 0.930 . S
H1300 C1243 0.930 . S
H1301 C1245 0.929 . S
H1302 C1246 0.930 . S
H1303 C1247 0.930 . S
H1304 C1250 0.930 . S
H1305 C1253 0.929 . S
H1306 C1258 0.929 . S
H1307 C1259 0.930 . S
H1308 C1266 0.929 . S
H1309 C1267 0.930 . S
H1310 C1268 0.930 . S
H1311 C1269 0.930 . S
H1312 C1271 0.929 . S
H1313 C1272 0.930 . S
H1314 C1273 0.930 . S
H1315 C1274 0.930 . S
H1316 C1278 0.929 . S
H1317 C1280 0.930 . S
H1318 C1286 0.929 . S
H1319 C1287 0.930 . S
Li1320 N1337 1.990 . S
Li1320 O1380 1.956 . S
Li1320 O1381 1.970 . S
Li1320 O1382 1.961 . S
Li1321 N1345 1.990 . S
Li1321 O1380 1.970 . S
Li1321 O1381 1.956 . S
Li1321 O1383 1.961 . S
Li1322 N1367 1.990 . S
Li1322 O1380 1.961 . S
Li1322 O1382 1.956 . S
Li1322 O1383 1.970 . S
Li1323 N1373 1.990 . S
Li1323 O1381 1.961 . S
Li1323 O1382 1.970 . S
Li1323 O1383 1.956 . S
C1324 C1326 1.348 . S
C1324 C1327 1.356 . S
C1324 O1380 1.325 . S
N1325 C1328 1.314 . S
N1325 C1329 1.279 . S
C1326 C1324 1.348 . S
C1326 C1328 1.353 . S
C1326 H1384 0.929 . S
C1327 C1324 1.356 . S
C1327 C1329 1.358 . S
C1327 H1385 0.930 . S
C1328 N1325 1.314 . S
C1328 C1326 1.353 . S
C1328 H1386 0.930 . S
C1329 N1325 1.279 . S
C1329 C1327 1.358 . S
C1329 H1387 0.930 . S
C1330 C1333 1.348 . S
C1330 C1334 1.356 . S
C1330 O1381 1.325 . S
C1331 N1332 1.279 . S
C1331 C1334 1.358 . S
C1331 H1388 0.930 . S
N1332 C1331 1.279 . S
N1332 C1335 1.314 . S
C1333 C1330 1.348 . S
C1333 C1335 1.353 . S
C1333 H1389 0.929 . S
C1334 C1330 1.356 . S
C1334 C1331 1.358 . S
C1334 H1390 0.930 . S
C1335 N1332 1.314 . S
C1335 C1333 1.353 . S
C1335 H1391 0.930 . S
C1336 N1337 1.314 . S
C1336 C1341 1.353 . S
C1336 H1342 0.930 . S
N1337 Li1320 1.990 . S
N1337 C1336 1.314 . S
N1337 C1339 1.279 . S
C1338 C1339 1.358 . S
C1338 C1340 1.356 . S
C1338 H1392 0.930 . S
C1339 N1337 1.279 . S
C1339 C1338 1.358 . S
C1339 H1343 0.930 . S
C1340 C1338 1.356 . S
C1340 C1341 1.348 . S
C1341 C1336 1.353 . S
C1341 C1340 1.348 . S
C1341 H1393 0.929 . S
H1342 C1336 0.930 . S
H1343 C1339 0.930 . S
C1344 N1345 1.314 . S
C1344 C1346 1.353 . S
C1344 H1350 0.930 . S
N1345 Li1321 1.990 . S
N1345 C1344 1.314 . S
N1345 C1348 1.279 . S
C1346 C1344 1.353 . S
C1346 C1349 1.348 . S
C1346 H1394 0.929 . S
C1347 C1348 1.358 . S
C1347 C1349 1.356 . S
C1347 H1395 0.930 . S
C1348 N1345 1.279 . S
C1348 C1347 1.358 . S
C1348 H1351 0.930 . S
C1349 C1346 1.348 . S
C1349 C1347 1.356 . S
H1350 C1344 0.930 . S
H1351 C1348 0.930 . S
C1352 C1354 1.348 . S
C1352 C1355 1.356 . S
C1352 O1382 1.325 . S
N1353 C1356 1.314 . S
N1353 C1357 1.279 . S
C1354 C1352 1.348 . S
C1354 C1356 1.353 . S
C1354 H1396 0.929 . S
C1355 C1352 1.356 . S
C1355 C1357 1.358 . S
C1355 H1397 0.930 . S
C1356 N1353 1.314 . S
C1356 C1354 1.353 . S
C1356 H1398 0.930 . S
C1357 N1353 1.279 . S
C1357 C1355 1.358 . S
C1357 H1399 0.930 . S
C1358 C1359 1.348 . S
C1358 C1360 1.356 . S
C1358 O1383 1.325 . S
C1359 C1358 1.348 . S
C1359 C1361 1.353 . S
C1359 H1400 0.929 . S
C1360 C1358 1.356 . S
C1360 C1362 1.358 . S
C1360 H1401 0.930 . S
C1361 C1359 1.353 . S
C1361 N1363 1.314 . S
C1361 H1402 0.930 . S
C1362 C1360 1.358 . S
C1362 N1363 1.279 . S
C1362 H1403 0.930 . S
N1363 C1361 1.314 . S
N1363 C1362 1.279 . S
C1364 C1366 1.353 . S
C1364 N1367 1.314 . S
C1364 H1370 0.930 . S
C1365 N1367 1.279 . S
C1365 C1368 1.358 . S
C1365 H1371 0.930 . S
C1366 C1364 1.353 . S
C1366 C1369 1.348 . S
C1366 H1404 0.929 . S
N1367 Li1322 1.990 . S
N1367 C1364 1.314 . S
N1367 C1365 1.279 . S
C1368 C1365 1.358 . S
C1368 C1369 1.356 . S
C1368 H1405 0.930 . S
C1369 C1366 1.348 . S
C1369 C1368 1.356 . S
H1370 C1364 0.930 . S
H1371 C1365 0.930 . S
C1372 N1373 1.314 . S
C1372 C1374 1.353 . S
C1372 H1378 0.930 . S
N1373 Li1323 1.990 . S
N1373 C1372 1.314 . S
N1373 C1376 1.279 . S
C1374 C1372 1.353 . S
C1374 C1377 1.348 . S
C1374 H1406 0.929 . S
C1375 C1376 1.358 . S
C1375 C1377 1.356 . S
C1375 H1407 0.930 . S
C1376 N1373 1.279 . S
C1376 C1375 1.358 . S
C1376 H1379 0.930 . S
C1377 C1374 1.348 . S
C1377 C1375 1.356 . S
H1378 C1372 0.930 . S
H1379 C1376 0.930 . S
O1380 Li1320 1.956 . S
O1380 Li1321 1.970 . S
O1380 Li1322 1.961 . S
O1380 C1324 1.325 . S
O1381 Li1320 1.970 . S
O1381 Li1321 1.956 . S
O1381 Li1323 1.961 . S
O1381 C1330 1.325 . S
O1382 Li1320 1.961 . S
O1382 Li1322 1.956 . S
O1382 Li1323 1.970 . S
O1382 C1352 1.325 . S
O1383 Li1321 1.961 . S
O1383 Li1322 1.970 . S
O1383 Li1323 1.956 . S
O1383 C1358 1.325 . S
H1384 C1326 0.929 . S
H1385 C1327 0.930 . S
H1386 C1328 0.930 . S
H1387 C1329 0.930 . S
H1388 C1331 0.930 . S
H1389 C1333 0.929 . S
H1390 C1334 0.930 . S
H1391 C1335 0.930 . S
H1392 C1338 0.930 . S
H1393 C1341 0.929 . S
H1394 C1346 0.929 . S
H1395 C1347 0.930 . S
H1396 C1354 0.929 . S
H1397 C1355 0.930 . S
H1398 C1356 0.930 . S
H1399 C1357 0.930 . S
H1400 C1359 0.929 . S
H1401 C1360 0.930 . S
H1402 C1361 0.930 . S
H1403 C1362 0.930 . S
H1404 C1366 0.929 . S
H1405 C1368 0.930 . S
H1406 C1374 0.929 . S
H1407 C1375 0.930 . S
Li1408 N1425 1.990 . S
Li1408 O1468 1.956 . S
Li1408 O1469 1.970 . S
Li1408 O1470 1.961 . S
Li1409 N1433 1.990 . S
Li1409 O1468 1.970 . S
Li1409 O1469 1.956 . S
Li1409 O1471 1.961 . S
Li1410 N1455 1.990 . S
Li1410 O1468 1.961 . S
Li1410 O1470 1.956 . S
Li1410 O1471 1.970 . S
Li1411 N1461 1.990 . S
Li1411 O1469 1.961 . S
Li1411 O1470 1.970 . S
Li1411 O1471 1.956 . S
C1412 C1414 1.348 . S
C1412 C1415 1.356 . S
C1412 O1468 1.325 . S
N1413 C1416 1.314 . S
N1413 C1417 1.279 . S
C1414 C1412 1.348 . S
C1414 C1416 1.353 . S
C1414 H1472 0.929 . S
C1415 C1412 1.356 . S
C1415 C1417 1.358 . S
C1415 H1473 0.930 . S
C1416 N1413 1.314 . S
C1416 C1414 1.353 . S
C1416 H1474 0.930 . S
C1417 N1413 1.279 . S
C1417 C1415 1.358 . S
C1417 H1475 0.930 . S
C1418 C1421 1.348 . S
C1418 C1422 1.356 . S
C1418 O1469 1.325 . S
C1419 N1420 1.279 . S
C1419 C1422 1.358 . S
C1419 H1476 0.930 . S
N1420 C1419 1.279 . S
N1420 C1423 1.314 . S
C1421 C1418 1.348 . S
C1421 C1423 1.353 . S
C1421 H1477 0.929 . S
C1422 C1418 1.356 . S
C1422 C1419 1.358 . S
C1422 H1478 0.930 . S
C1423 N1420 1.314 . S
C1423 C1421 1.353 . S
C1423 H1479 0.930 . S
C1424 N1425 1.314 . S
C1424 C1429 1.353 . S
C1424 H1430 0.930 . S
N1425 Li1408 1.990 . S
N1425 C1424 1.314 . S
N1425 C1427 1.279 . S
C1426 C1427 1.358 . S
C1426 C1428 1.356 . S
C1426 H1480 0.930 . S
C1427 N1425 1.279 . S
C1427 C1426 1.358 . S
C1427 H1431 0.930 . S
C1428 C1426 1.356 . S
C1428 C1429 1.348 . S
C1429 C1424 1.353 . S
C1429 C1428 1.348 . S
C1429 H1481 0.929 . S
H1430 C1424 0.930 . S
H1431 C1427 0.930 . S
C1432 N1433 1.314 . S
C1432 C1434 1.353 . S
C1432 H1438 0.930 . S
N1433 Li1409 1.990 . S
N1433 C1432 1.314 . S
N1433 C1436 1.279 . S
C1434 C1432 1.353 . S
C1434 C1437 1.348 . S
C1434 H1482 0.929 . S
C1435 C1436 1.358 . S
C1435 C1437 1.356 . S
C1435 H1483 0.930 . S
C1436 N1433 1.279 . S
C1436 C1435 1.358 . S
C1436 H1439 0.930 . S
C1437 C1434 1.348 . S
C1437 C1435 1.356 . S
H1438 C1432 0.930 . S
H1439 C1436 0.930 . S
C1440 C1442 1.348 . S
C1440 C1443 1.356 . S
C1440 O1470 1.325 . S
N1441 C1444 1.314 . S
N1441 C1445 1.279 . S
C1442 C1440 1.348 . S
C1442 C1444 1.353 . S
C1442 H1484 0.929 . S
C1443 C1440 1.356 . S
C1443 C1445 1.358 . S
C1443 H1485 0.930 . S
C1444 N1441 1.314 . S
C1444 C1442 1.353 . S
C1444 H1486 0.930 . S
C1445 N1441 1.279 . S
C1445 C1443 1.358 . S
C1445 H1487 0.930 . S
C1446 C1447 1.348 . S
C1446 C1448 1.356 . S
C1446 O1471 1.325 . S
C1447 C1446 1.348 . S
C1447 C1449 1.353 . S
C1447 H1488 0.929 . S
C1448 C1446 1.356 . S
C1448 C1450 1.358 . S
C1448 H1489 0.930 . S
C1449 C1447 1.353 . S
C1449 N1451 1.314 . S
C1449 H1490 0.930 . S
C1450 C1448 1.358 . S
C1450 N1451 1.279 . S
C1450 H1491 0.930 . S
N1451 C1449 1.314 . S
N1451 C1450 1.279 . S
C1452 C1454 1.353 . S
C1452 N1455 1.314 . S
C1452 H1458 0.930 . S
C1453 N1455 1.279 . S
C1453 C1456 1.358 . S
C1453 H1459 0.930 . S
C1454 C1452 1.353 . S
C1454 C1457 1.348 . S
C1454 H1492 0.929 . S
N1455 Li1410 1.990 . S
N1455 C1452 1.314 . S
N1455 C1453 1.279 . S
C1456 C1453 1.358 . S
C1456 C1457 1.356 . S
C1456 H1493 0.930 . S
C1457 C1454 1.348 . S
C1457 C1456 1.356 . S
H1458 C1452 0.930 . S
H1459 C1453 0.930 . S
C1460 N1461 1.314 . S
C1460 C1462 1.353 . S
C1460 H1466 0.930 . S
N1461 Li1411 1.990 . S
N1461 C1460 1.314 . S
N1461 C1464 1.279 . S
C1462 C1460 1.353 . S
C1462 C1465 1.348 . S
C1462 H1494 0.929 . S
C1463 C1464 1.358 . S
C1463 C1465 1.356 . S
C1463 H1495 0.930 . S
C1464 N1461 1.279 . S
C1464 C1463 1.358 . S
C1464 H1467 0.930 . S
C1465 C1462 1.348 . S
C1465 C1463 1.356 . S
H1466 C1460 0.930 . S
H1467 C1464 0.930 . S
O1468 Li1408 1.956 . S
O1468 Li1409 1.970 . S
O1468 Li1410 1.961 . S
O1468 C1412 1.325 . S
O1469 Li1408 1.970 . S
O1469 Li1409 1.956 . S
O1469 Li1411 1.961 . S
O1469 C1418 1.325 . S
O1470 Li1408 1.961 . S
O1470 Li1410 1.956 . S
O1470 Li1411 1.970 . S
O1470 C1440 1.325 . S
O1471 Li1409 1.961 . S
O1471 Li1410 1.970 . S
O1471 Li1411 1.956 . S
O1471 C1446 1.325 . S
H1472 C1414 0.929 . S
H1473 C1415 0.930 . S
H1474 C1416 0.930 . S
H1475 C1417 0.930 . S
H1476 C1419 0.930 . S
H1477 C1421 0.929 . S
H1478 C1422 0.930 . S
H1479 C1423 0.930 . S
H1480 C1426 0.930 . S
H1481 C1429 0.929 . S
H1482 C1434 0.929 . S
H1483 C1435 0.930 . S
H1484 C1442 0.929 . S
H1485 C1443 0.930 . S
H1486 C1444 0.930 . S
H1487 C1445 0.930 . S
H1488 C1447 0.929 . S
H1489 C1448 0.930 . S
H1490 C1449 0.930 . S
H1491 C1450 0.930 . S
H1492 C1454 0.929 . S
H1493 C1456 0.930 . S
H1494 C1462 0.929 . S
H1495 C1463 0.930 . S
Li1496 N1513 1.990 . S
Li1496 O1556 1.956 . S
Li1496 O1557 1.970 . S
Li1496 O1558 1.961 . S
Li1497 N1521 1.990 . S
Li1497 O1556 1.970 . S
Li1497 O1557 1.956 . S
Li1497 O1559 1.961 . S
Li1498 N1543 1.990 . S
Li1498 O1556 1.961 . S
Li1498 O1558 1.956 . S
Li1498 O1559 1.970 . S
Li1499 N1549 1.990 . S
Li1499 O1557 1.961 . S
Li1499 O1558 1.970 . S
Li1499 O1559 1.956 . S
C1500 C1502 1.348 . S
C1500 C1503 1.356 . S
C1500 O1556 1.325 . S
N1501 C1504 1.314 . S
N1501 C1505 1.279 . S
C1502 C1500 1.348 . S
C1502 C1504 1.353 . S
C1502 H1560 0.929 . S
C1503 C1500 1.356 . S
C1503 C1505 1.358 . S
C1503 H1561 0.930 . S
C1504 N1501 1.314 . S
C1504 C1502 1.353 . S
C1504 H1562 0.930 . S
C1505 N1501 1.279 . S
C1505 C1503 1.358 . S
C1505 H1563 0.930 . S
C1506 C1509 1.348 . S
C1506 C1510 1.356 . S
C1506 O1557 1.325 . S
C1507 N1508 1.279 . S
C1507 C1510 1.358 . S
C1507 H1564 0.930 . S
N1508 C1507 1.279 . S
N1508 C1511 1.314 . S
C1509 C1506 1.348 . S
C1509 C1511 1.353 . S
C1509 H1565 0.929 . S
C1510 C1506 1.356 . S
C1510 C1507 1.358 . S
C1510 H1566 0.930 . S
C1511 N1508 1.314 . S
C1511 C1509 1.353 . S
C1511 H1567 0.930 . S
C1512 N1513 1.314 . S
C1512 C1517 1.353 . S
C1512 H1518 0.930 . S
N1513 Li1496 1.990 . S
N1513 C1512 1.314 . S
N1513 C1515 1.279 . S
C1514 C1515 1.358 . S
C1514 C1516 1.356 . S
C1514 H1568 0.930 . S
C1515 N1513 1.279 . S
C1515 C1514 1.358 . S
C1515 H1519 0.930 . S
C1516 C1514 1.356 . S
C1516 C1517 1.348 . S
C1517 C1512 1.353 . S
C1517 C1516 1.348 . S
C1517 H1569 0.929 . S
H1518 C1512 0.930 . S
H1519 C1515 0.930 . S
C1520 N1521 1.314 . S
C1520 C1522 1.353 . S
C1520 H1526 0.930 . S
N1521 Li1497 1.990 . S
N1521 C1520 1.314 . S
N1521 C1524 1.279 . S
C1522 C1520 1.353 . S
C1522 C1525 1.348 . S
C1522 H1570 0.929 . S
C1523 C1524 1.358 . S
C1523 C1525 1.356 . S
C1523 H1571 0.930 . S
C1524 N1521 1.279 . S
C1524 C1523 1.358 . S
C1524 H1527 0.930 . S
C1525 C1522 1.348 . S
C1525 C1523 1.356 . S
H1526 C1520 0.930 . S
H1527 C1524 0.930 . S
C1528 C1530 1.348 . S
C1528 C1531 1.356 . S
C1528 O1558 1.325 . S
N1529 C1532 1.314 . S
N1529 C1533 1.279 . S
C1530 C1528 1.348 . S
C1530 C1532 1.353 . S
C1530 H1572 0.929 . S
C1531 C1528 1.356 . S
C1531 C1533 1.358 . S
C1531 H1573 0.930 . S
C1532 N1529 1.314 . S
C1532 C1530 1.353 . S
C1532 H1574 0.930 . S
C1533 N1529 1.279 . S
C1533 C1531 1.358 . S
C1533 H1575 0.930 . S
C1534 C1535 1.348 . S
C1534 C1536 1.356 . S
C1534 O1559 1.325 . S
C1535 C1534 1.348 . S
C1535 C1537 1.353 . S
C1535 H1576 0.929 . S
C1536 C1534 1.356 . S
C1536 C1538 1.358 . S
C1536 H1577 0.930 . S
C1537 C1535 1.353 . S
C1537 N1539 1.314 . S
C1537 H1578 0.930 . S
C1538 C1536 1.358 . S
C1538 N1539 1.279 . S
C1538 H1579 0.930 . S
N1539 C1537 1.314 . S
N1539 C1538 1.279 . S
C1540 C1542 1.353 . S
C1540 N1543 1.314 . S
C1540 H1546 0.930 . S
C1541 N1543 1.279 . S
C1541 C1544 1.358 . S
C1541 H1547 0.930 . S
C1542 C1540 1.353 . S
C1542 C1545 1.348 . S
C1542 H1580 0.929 . S
N1543 Li1498 1.990 . S
N1543 C1540 1.314 . S
N1543 C1541 1.279 . S
C1544 C1541 1.358 . S
C1544 C1545 1.356 . S
C1544 H1581 0.930 . S
C1545 C1542 1.348 . S
C1545 C1544 1.356 . S
H1546 C1540 0.930 . S
H1547 C1541 0.930 . S
C1548 N1549 1.314 . S
C1548 C1550 1.353 . S
C1548 H1554 0.930 . S
N1549 Li1499 1.990 . S
N1549 C1548 1.314 . S
N1549 C1552 1.279 . S
C1550 C1548 1.353 . S
C1550 C1553 1.348 . S
C1550 H1582 0.929 . S
C1551 C1552 1.358 . S
C1551 C1553 1.356 . S
C1551 H1583 0.930 . S
C1552 N1549 1.279 . S
C1552 C1551 1.358 . S
C1552 H1555 0.930 . S
C1553 C1550 1.348 . S
C1553 C1551 1.356 . S
H1554 C1548 0.930 . S
H1555 C1552 0.930 . S
O1556 Li1496 1.956 . S
O1556 Li1497 1.970 . S
O1556 Li1498 1.961 . S
O1556 C1500 1.325 . S
O1557 Li1496 1.970 . S
O1557 Li1497 1.956 . S
O1557 Li1499 1.961 . S
O1557 C1506 1.325 . S
O1558 Li1496 1.961 . S
O1558 Li1498 1.956 . S
O1558 Li1499 1.970 . S
O1558 C1528 1.325 . S
O1559 Li1497 1.961 . S
O1559 Li1498 1.970 . S
O1559 Li1499 1.956 . S
O1559 C1534 1.325 . S
H1560 C1502 0.929 . S
H1561 C1503 0.930 . S
H1562 C1504 0.930 . S
H1563 C1505 0.930 . S
H1564 C1507 0.930 . S
H1565 C1509 0.929 . S
H1566 C1510 0.930 . S
H1567 C1511 0.930 . S
H1568 C1514 0.930 . S
H1569 C1517 0.929 . S
H1570 C1522 0.929 . S
H1571 C1523 0.930 . S
H1572 C1530 0.929 . S
H1573 C1531 0.930 . S
H1574 C1532 0.930 . S
H1575 C1533 0.930 . S
H1576 C1535 0.929 . S
H1577 C1536 0.930 . S
H1578 C1537 0.930 . S
H1579 C1538 0.930 . S
H1580 C1542 0.929 . S
H1581 C1544 0.930 . S
H1582 C1550 0.929 . S
H1583 C1551 0.930 . S
H1584 C1602 0.951 . S
H1585 C1604 0.951 . S
H1586 C1606 0.950 . S
H1587 C1607 0.950 . S
H1588 C1609 0.950 . S
H1589 C1612 0.950 . S
H1590 C1613 0.950 . S
H1591 C1615 0.950 . S
H1592 C1616 0.950 . S
H1593 C1617 0.951 . S
H1594 C1619 0.951 . S
H1595 C1621 0.950 . S
H1596 C1622 0.950 . S
H1597 C1624 0.950 . S
H1598 C1627 0.950 . S
H1599 C1628 0.950 . S
H1600 C1630 0.950 . S
H1601 C1631 0.950 . S
C1602 H1584 0.951 . S
C1602 C1603 1.366 . S
C1602 C1604 1.388 . S
C1603 C1602 1.366 . S
C1603 C1607 1.385 . S
C1604 H1585 0.951 . S
C1604 C1602 1.388 . S
C1604 C1605 1.366 . S
C1605 C1604 1.366 . S
C1605 C1606 1.414 . S
C1605 C1608 1.499 . S
C1606 H1586 0.950 . S
C1606 C1605 1.414 . S
C1606 C1607 1.374 . S
C1607 H1587 0.950 . S
C1607 C1603 1.385 . S
C1607 C1606 1.374 . S
C1608 C1605 1.499 . S
C1608 C1609 1.373 . S
C1608 C1610 1.389 . S
C1609 H1588 0.950 . S
C1609 C1608 1.373 . S
C1609 C1625 1.377 . S
C1610 C1608 1.389 . S
C1610 C1611 1.524 . S
C1610 C1624 1.377 . S
C1611 C1610 1.524 . S
C1611 C1612 1.397 . S
C1611 C1616 1.363 . S
C1612 H1589 0.950 . S
C1612 C1611 1.397 . S
C1612 C1613 1.334 . S
C1613 H1590 0.950 . S
C1613 C1612 1.334 . S
C1613 C1614 1.287 . S
C1614 C1613 1.287 . S
C1614 C1615 1.524 . S
C1614 H1633 0.913 . S
C1615 H1591 0.950 . S
C1615 C1614 1.524 . S
C1615 C1616 1.415 . S
C1616 H1592 0.950 . S
C1616 C1611 1.363 . S
C1616 C1615 1.415 . S
C1617 H1593 0.951 . S
C1617 C1618 1.366 . S
C1617 C1619 1.388 . S
C1618 C1617 1.366 . S
C1618 C1622 1.385 . S
C1619 H1594 0.951 . S
C1619 C1617 1.388 . S
C1619 C1620 1.366 . S
C1620 C1619 1.366 . S
C1620 C1621 1.414 . S
C1620 C1623 1.499 . S
C1621 H1595 0.950 . S
C1621 C1620 1.414 . S
C1621 C1622 1.374 . S
C1622 H1596 0.950 . S
C1622 C1618 1.385 . S
C1622 C1621 1.374 . S
C1623 C1620 1.499 . S
C1623 C1624 1.373 . S
C1623 C1625 1.389 . S
C1624 H1597 0.950 . S
C1624 C1610 1.377 . S
C1624 C1623 1.373 . S
C1625 C1609 1.377 . S
C1625 C1623 1.389 . S
C1625 C1626 1.524 . S
C1626 C1625 1.524 . S
C1626 C1627 1.397 . S
C1626 C1631 1.363 . S
C1627 H1598 0.950 . S
C1627 C1626 1.397 . S
C1627 C1628 1.334 . S
C1628 H1599 0.950 . S
C1628 C1627 1.334 . S
C1628 C1629 1.287 . S
C1629 C1628 1.287 . S
C1629 C1630 1.524 . S
C1629 H1632 0.999 . S
C1630 H1600 0.950 . S
C1630 C1629 1.524 . S
C1630 C1631 1.415 . S
C1631 H1601 0.950 . S
C1631 C1626 1.363 . S
C1631 C1630 1.415 . S
H1632 C1629 0.999 . S
H1633 C1614 0.913 . S
H1634 C1652 0.951 . S
H1635 C1654 0.951 . S
H1636 C1656 0.950 . S
H1637 C1657 0.950 1_565 S
H1638 C1659 0.950 . S
H1639 C1662 0.950 . S
H1640 C1663 0.950 1_565 S
H1641 C1665 0.950 . S
H1642 C1666 0.950 . S
H1643 C1667 0.951 . S
H1644 C1669 0.951 . S
H1645 C1671 0.950 . S
H1646 C1672 0.950 . S
H1647 C1674 0.950 . S
H1648 C1677 0.950 . S
H1649 C1678 0.950 . S
H1650 C1680 0.950 . S
H1651 C1681 0.950 . S
C1652 H1634 0.951 . S
C1652 C1653 1.366 . S
C1652 C1654 1.388 . S
C1653 C1652 1.366 . S
C1653 C1657 1.385 . S
C1654 H1635 0.951 . S
C1654 C1652 1.388 . S
C1654 C1655 1.366 . S
C1655 C1654 1.366 . S
C1655 C1656 1.414 . S
C1655 C1658 1.499 . S
C1656 H1636 0.950 . S
C1656 C1655 1.414 . S
C1656 C1657 1.374 . S
C1657 H1637 0.950 1_545 S
C1657 C1653 1.385 . S
C1657 C1656 1.374 . S
C1658 C1655 1.499 . S
C1658 C1659 1.373 . S
C1658 C1660 1.389 . S
C1659 H1638 0.950 . S
C1659 C1658 1.373 . S
C1659 C1675 1.377 . S
C1660 C1658 1.389 . S
C1660 C1661 1.524 . S
C1660 C1674 1.377 . S
C1661 C1660 1.524 . S
C1661 C1662 1.397 . S
C1661 C1666 1.363 . S
C1662 H1639 0.950 . S
C1662 C1661 1.397 . S
C1662 C1663 1.334 . S
C1663 H1640 0.950 1_545 S
C1663 C1662 1.334 . S
C1663 C1664 1.287 . S
C1664 C1663 1.287 . S
C1664 C1665 1.524 . S
C1664 H1683 0.913 . S
C1665 H1641 0.950 . S
C1665 C1664 1.524 . S
C1665 C1666 1.415 . S
C1666 H1642 0.950 . S
C1666 C1661 1.363 . S
C1666 C1665 1.415 . S
C1667 H1643 0.951 . S
C1667 C1668 1.366 . S
C1667 C1669 1.388 . S
C1668 C1667 1.366 . S
C1668 C1672 1.385 . S
C1669 H1644 0.951 . S
C1669 C1667 1.388 . S
C1669 C1670 1.366 . S
C1670 C1669 1.366 . S
C1670 C1671 1.414 . S
C1670 C1673 1.499 . S
C1671 H1645 0.950 . S
C1671 C1670 1.414 . S
C1671 C1672 1.374 . S
C1672 H1646 0.950 . S
C1672 C1668 1.385 . S
C1672 C1671 1.374 . S
C1673 C1670 1.499 . S
C1673 C1674 1.373 . S
C1673 C1675 1.389 . S
C1674 H1647 0.950 . S
C1674 C1660 1.377 . S
C1674 C1673 1.373 . S
C1675 C1659 1.377 . S
C1675 C1673 1.389 . S
C1675 C1676 1.524 . S
C1676 C1675 1.524 . S
C1676 C1677 1.397 . S
C1676 C1681 1.363 . S
C1677 H1648 0.950 . S
C1677 C1676 1.397 . S
C1677 C1678 1.334 . S
C1678 H1649 0.950 . S
C1678 C1677 1.334 . S
C1678 C1679 1.287 . S
C1679 C1678 1.287 . S
C1679 C1680 1.524 . S
C1679 H1682 0.999 . S
C1680 H1650 0.950 . S
C1680 C1679 1.524 . S
C1680 C1681 1.415 . S
C1681 H1651 0.950 . S
C1681 C1676 1.363 . S
C1681 C1680 1.415 . S
H1682 C1679 0.999 . S
H1683 C1664 0.913 . S
H1684 C1702 0.951 . S
H1685 C1704 0.951 . S
H1686 C1706 0.950 . S
H1687 C1707 0.950 . S
H1688 C1709 0.950 . S
H1689 C1712 0.950 . S
H1690 C1713 0.950 . S
H1691 C1715 0.950 . S
H1692 C1716 0.950 . S
H1693 C1717 0.951 . S
H1694 C1719 0.951 . S
H1695 C1721 0.950 . S
H1696 C1722 0.950 1_455 S
H1697 C1724 0.950 . S
H1698 C1727 0.950 . S
H1699 C1728 0.950 1_455 S
H1700 C1730 0.950 . S
H1701 C1731 0.950 . S
C1702 H1684 0.951 . S
C1702 C1703 1.366 . S
C1702 C1704 1.388 . S
C1703 C1702 1.366 . S
C1703 C1707 1.385 . S
C1704 H1685 0.951 . S
C1704 C1702 1.388 . S
C1704 C1705 1.366 . S
C1705 C1704 1.366 . S
C1705 C1706 1.414 . S
C1705 C1708 1.499 . S
C1706 H1686 0.950 . S
C1706 C1705 1.414 . S
C1706 C1707 1.374 . S
C1707 H1687 0.950 . S
C1707 C1703 1.385 . S
C1707 C1706 1.374 . S
C1708 C1705 1.499 . S
C1708 C1709 1.373 . S
C1708 C1710 1.389 . S
C1709 H1688 0.950 . S
C1709 C1708 1.373 . S
C1709 C1725 1.377 . S
C1710 C1708 1.389 . S
C1710 C1711 1.524 . S
C1710 C1724 1.377 . S
C1711 C1710 1.524 . S
C1711 C1712 1.397 . S
C1711 C1716 1.363 . S
C1712 H1689 0.950 . S
C1712 C1711 1.397 . S
C1712 C1713 1.334 . S
C1713 H1690 0.950 . S
C1713 C1712 1.334 . S
C1713 C1714 1.287 . S
C1714 C1713 1.287 . S
C1714 C1715 1.524 . S
C1714 H1733 0.913 . S
C1715 H1691 0.950 . S
C1715 C1714 1.524 . S
C1715 C1716 1.415 . S
C1716 H1692 0.950 . S
C1716 C1711 1.363 . S
C1716 C1715 1.415 . S
C1717 H1693 0.951 . S
C1717 C1718 1.366 . S
C1717 C1719 1.388 . S
C1718 C1717 1.366 . S
C1718 C1722 1.385 . S
C1719 H1694 0.951 . S
C1719 C1717 1.388 . S
C1719 C1720 1.366 . S
C1720 C1719 1.366 . S
C1720 C1721 1.414 . S
C1720 C1723 1.499 . S
C1721 H1695 0.950 . S
C1721 C1720 1.414 . S
C1721 C1722 1.374 . S
C1722 H1696 0.950 1_655 S
C1722 C1718 1.385 . S
C1722 C1721 1.374 . S
C1723 C1720 1.499 . S
C1723 C1724 1.373 . S
C1723 C1725 1.389 . S
C1724 H1697 0.950 . S
C1724 C1710 1.377 . S
C1724 C1723 1.373 . S
C1725 C1709 1.377 . S
C1725 C1723 1.389 . S
C1725 C1726 1.524 . S
C1726 C1725 1.524 . S
C1726 C1727 1.397 . S
C1726 C1731 1.363 . S
C1727 H1698 0.950 . S
C1727 C1726 1.397 . S
C1727 C1728 1.334 . S
C1728 H1699 0.950 1_655 S
C1728 C1727 1.334 . S
C1728 C1729 1.287 . S
C1729 C1728 1.287 . S
C1729 C1730 1.524 . S
C1729 H1732 0.999 . S
C1730 H1700 0.950 . S
C1730 C1729 1.524 . S
C1730 C1731 1.415 . S
C1731 H1701 0.950 . S
C1731 C1726 1.363 . S
C1731 C1730 1.415 . S
H1732 C1729 0.999 . S
H1733 C1714 0.913 . S
H1734 C1752 0.951 . S
H1735 C1754 0.951 . S
H1736 C1756 0.950 . S
H1737 C1757 0.950 . S
H1738 C1759 0.950 . S
H1739 C1762 0.950 . S
H1740 C1763 0.950 . S
H1741 C1765 0.950 . S
H1742 C1766 0.950 . S
H1743 C1767 0.951 . S
H1744 C1769 0.951 . S
H1745 C1771 0.950 . S
H1746 C1772 0.950 . S
H1747 C1774 0.950 . S
H1748 C1777 0.950 . S
H1749 C1778 0.950 . S
H1750 C1780 0.950 . S
H1751 C1781 0.950 . S
C1752 H1734 0.951 . S
C1752 C1753 1.366 . S
C1752 C1754 1.388 . S
C1753 C1752 1.366 . S
C1753 C1757 1.385 . S
C1754 H1735 0.951 . S
C1754 C1752 1.388 . S
C1754 C1755 1.366 . S
C1755 C1754 1.366 . S
C1755 C1756 1.414 . S
C1755 C1758 1.499 . S
C1756 H1736 0.950 . S
C1756 C1755 1.414 . S
C1756 C1757 1.374 . S
C1757 H1737 0.950 . S
C1757 C1753 1.385 . S
C1757 C1756 1.374 . S
C1758 C1755 1.499 . S
C1758 C1759 1.373 . S
C1758 C1760 1.389 . S
C1759 H1738 0.950 . S
C1759 C1758 1.373 . S
C1759 C1775 1.377 . S
C1760 C1758 1.389 . S
C1760 C1761 1.524 . S
C1760 C1774 1.377 . S
C1761 C1760 1.524 . S
C1761 C1762 1.397 . S
C1761 C1766 1.363 . S
C1762 H1739 0.950 . S
C1762 C1761 1.397 . S
C1762 C1763 1.334 . S
C1763 H1740 0.950 . S
C1763 C1762 1.334 . S
C1763 C1764 1.287 . S
C1764 C1763 1.287 . S
C1764 C1765 1.524 . S
C1764 H1783 0.913 . S
C1765 H1741 0.950 . S
C1765 C1764 1.524 . S
C1765 C1766 1.415 . S
C1766 H1742 0.950 . S
C1766 C1761 1.363 . S
C1766 C1765 1.415 . S
C1767 H1743 0.951 . S
C1767 C1768 1.366 . S
C1767 C1769 1.388 . S
C1768 C1767 1.366 . S
C1768 C1772 1.385 . S
C1769 H1744 0.951 . S
C1769 C1767 1.388 . S
C1769 C1770 1.366 . S
C1770 C1769 1.366 . S
C1770 C1771 1.414 . S
C1770 C1773 1.499 . S
C1771 H1745 0.950 . S
C1771 C1770 1.414 . S
C1771 C1772 1.374 . S
C1772 H1746 0.950 . S
C1772 C1768 1.385 . S
C1772 C1771 1.374 . S
C1773 C1770 1.499 . S
C1773 C1774 1.373 . S
C1773 C1775 1.389 . S
C1774 H1747 0.950 . S
C1774 C1760 1.377 . S
C1774 C1773 1.373 . S
C1775 C1759 1.377 . S
C1775 C1773 1.389 . S
C1775 C1776 1.524 . S
C1776 C1775 1.524 . S
C1776 C1777 1.397 . S
C1776 C1781 1.363 . S
C1777 H1748 0.950 . S
C1777 C1776 1.397 . S
C1777 C1778 1.334 . S
C1778 H1749 0.950 . S
C1778 C1777 1.334 . S
C1778 C1779 1.287 . S
C1779 C1778 1.287 . S
C1779 C1780 1.524 . S
C1779 H1782 0.999 . S
C1780 H1750 0.950 . S
C1780 C1779 1.524 . S
C1780 C1781 1.415 . S
C1781 H1751 0.950 . S
C1781 C1776 1.363 . S
C1781 C1780 1.415 . S
H1782 C1779 0.999 . S
H1783 C1764 0.913 . S
H1784 C1802 0.951 . S
H1785 C1804 0.951 . S
H1786 C1806 0.950 . S
H1787 C1807 0.950 . S
H1788 C1809 0.950 . S
H1789 C1812 0.917 1_545 S
H1790 C1813 0.950 . S
H1791 C1815 0.950 . S
H1792 C1816 0.950 . S
H1793 C1817 0.951 . S
H1794 C1819 0.951 . S
H1795 C1821 0.950 . S
H1796 C1822 0.950 . S
H1797 C1824 0.950 . S
H1798 C1827 0.950 . S
H1799 C1828 0.950 . S
H1800 C1830 0.950 . S
H1801 C1831 0.950 . S
C1802 H1784 0.951 . S
C1802 C1803 1.366 . S
C1802 C1804 1.388 . S
C1803 C1802 1.366 . S
C1803 C1807 1.385 . S
C1804 H1785 0.951 . S
C1804 C1802 1.388 . S
C1804 C1805 1.366 . S
C1805 C1804 1.366 . S
C1805 C1806 1.414 . S
C1805 C1808 1.499 . S
C1806 H1786 0.950 . S
C1806 C1805 1.414 . S
C1806 C1807 1.374 . S
C1807 H1787 0.950 . S
C1807 C1803 1.385 . S
C1807 C1806 1.374 . S
C1808 C1805 1.499 . S
C1808 C1809 1.373 . S
C1808 C1810 1.389 . S
C1809 H1788 0.950 . S
C1809 C1808 1.373 . S
C1809 C1825 1.377 . S
C1810 C1808 1.389 . S
C1810 C1811 1.524 . S
C1810 C1824 1.377 . S
C1811 C1810 1.524 . S
C1811 C1812 1.397 . S
C1811 C1816 1.363 . S
C1812 H1789 0.917 1_565 S
C1812 C1811 1.397 . S
C1812 C1813 1.334 1_565 S
C1813 H1790 0.950 . S
C1813 C1812 1.334 1_545 S
C1813 C1814 1.287 . S
C1814 C1813 1.287 . S
C1814 C1815 1.524 1_545 S
C1814 H1833 0.913 . S
C1815 H1791 0.950 . S
C1815 C1814 1.524 1_565 S
C1815 C1816 1.415 . S
C1816 H1792 0.950 . S
C1816 C1811 1.363 . S
C1816 C1815 1.415 . S
C1817 H1793 0.951 . S
C1817 C1818 1.366 . S
C1817 C1819 1.388 . S
C1818 C1817 1.366 . S
C1818 C1822 1.385 . S
C1819 H1794 0.951 . S
C1819 C1817 1.388 . S
C1819 C1820 1.366 . S
C1820 C1819 1.366 . S
C1820 C1821 1.414 . S
C1820 C1823 1.499 . S
C1821 H1795 0.950 . S
C1821 C1820 1.414 . S
C1821 C1822 1.374 . S
C1822 H1796 0.950 . S
C1822 C1818 1.385 . S
C1822 C1821 1.374 . S
C1823 C1820 1.499 . S
C1823 C1824 1.373 . S
C1823 C1825 1.389 . S
C1824 H1797 0.950 . S
C1824 C1810 1.377 . S
C1824 C1823 1.373 . S
C1825 C1809 1.377 . S
C1825 C1823 1.389 . S
C1825 C1826 1.524 . S
C1826 C1825 1.524 . S
C1826 C1827 1.397 . S
C1826 C1831 1.363 . S
C1827 H1798 0.950 . S
C1827 C1826 1.397 . S
C1827 C1828 1.334 . S
C1828 H1799 0.950 . S
C1828 C1827 1.334 . S
C1828 C1829 1.287 . S
C1829 C1828 1.287 . S
C1829 C1830 1.524 . S
C1829 H1832 0.999 . S
C1830 H1800 0.950 . S
C1830 C1829 1.524 . S
C1830 C1831 1.415 . S
C1831 H1801 0.950 . S
C1831 C1826 1.363 . S
C1831 C1830 1.415 . S
H1832 C1829 0.999 . S
H1833 C1814 0.913 . S
H1834 C1852 0.951 . S
H1835 C1854 0.951 . S
H1836 C1856 0.950 . S
H1837 C1857 0.950 . S
H1838 C1859 0.950 . S
H1839 C1862 0.950 . S
H1840 C1863 0.950 . S
H1841 C1865 0.950 . S
H1842 C1866 0.950 . S
H1843 C1867 0.951 . S
H1844 C1869 0.951 . S
H1845 C1871 0.950 . S
H1846 C1872 0.950 . S
H1847 C1874 0.950 . S
H1848 C1877 0.950 . S
H1849 C1878 0.950 . S
H1850 C1880 0.950 . S
H1851 C1881 0.950 . S
C1852 H1834 0.951 . S
C1852 C1853 1.366 . S
C1852 C1854 1.388 . S
C1853 C1852 1.366 . S
C1853 C1857 1.385 . S
C1854 H1835 0.951 . S
C1854 C1852 1.388 . S
C1854 C1855 1.366 . S
C1855 C1854 1.366 . S
C1855 C1856 1.414 . S
C1855 C1858 1.499 . S
C1856 H1836 0.950 . S
C1856 C1855 1.414 . S
C1856 C1857 1.374 . S
C1857 H1837 0.950 . S
C1857 C1853 1.385 . S
C1857 C1856 1.374 . S
C1858 C1855 1.499 . S
C1858 C1859 1.373 . S
C1858 C1860 1.389 . S
C1859 H1838 0.950 . S
C1859 C1858 1.373 . S
C1859 C1875 1.377 . S
C1860 C1858 1.389 . S
C1860 C1861 1.524 . S
C1860 C1874 1.377 . S
C1861 C1860 1.524 . S
C1861 C1862 1.397 . S
C1861 C1866 1.363 . S
C1862 H1839 0.950 . S
C1862 C1861 1.397 . S
C1862 C1863 1.334 . S
C1863 H1840 0.950 . S
C1863 C1862 1.334 . S
C1863 C1864 1.287 . S
C1864 C1863 1.287 . S
C1864 C1865 1.524 . S
C1864 H1883 0.913 . S
C1865 H1841 0.950 . S
C1865 C1864 1.524 . S
C1865 C1866 1.415 . S
C1866 H1842 0.950 . S
C1866 C1861 1.363 . S
C1866 C1865 1.415 . S
C1867 H1843 0.951 . S
C1867 C1868 1.366 . S
C1867 C1869 1.388 . S
C1868 C1867 1.366 . S
C1868 C1872 1.385 . S
C1869 H1844 0.951 . S
C1869 C1867 1.388 . S
C1869 C1870 1.366 . S
C1870 C1869 1.366 . S
C1870 C1871 1.414 . S
C1870 C1873 1.499 . S
C1871 H1845 0.950 . S
C1871 C1870 1.414 . S
C1871 C1872 1.374 . S
C1872 H1846 0.950 . S
C1872 C1868 1.385 . S
C1872 C1871 1.374 . S
C1873 C1870 1.499 . S
C1873 C1874 1.373 . S
C1873 C1875 1.389 . S
C1874 H1847 0.950 . S
C1874 C1860 1.377 . S
C1874 C1873 1.373 . S
C1875 C1859 1.377 . S
C1875 C1873 1.389 . S
C1875 C1876 1.524 . S
C1876 C1875 1.524 . S
C1876 C1877 1.397 . S
C1876 C1881 1.363 . S
C1877 H1848 0.950 . S
C1877 C1876 1.397 . S
C1877 C1878 1.334 . S
C1878 H1849 0.950 . S
C1878 C1877 1.334 . S
C1878 C1879 1.287 . S
C1879 C1878 1.287 . S
C1879 C1880 1.524 . S
C1879 H1882 0.999 . S
C1880 H1850 0.950 . S
C1880 C1879 1.524 . S
C1880 C1881 1.415 . S
C1881 H1851 0.950 . S
C1881 C1876 1.363 . S
C1881 C1880 1.415 . S
H1882 C1879 0.999 . S
H1883 C1864 0.913 . S
H1884 C1902 0.951 . S
H1885 C1904 0.951 . S
H1886 C1906 0.950 . S
H1887 C1907 0.950 . S
H1888 C1909 0.950 . S
H1889 C1912 0.950 . S
H1890 C1913 0.950 . S
H1891 C1915 0.950 . S
H1892 C1916 0.950 1_455 S
H1893 C1917 0.951 . S
H1894 C1919 0.951 . S
H1895 C1921 0.950 . S
H1896 C1922 0.950 . S
H1897 C1924 0.950 . S
H1898 C1927 0.950 . S
H1899 C1928 0.950 . S
H1900 C1930 0.950 . S
H1901 C1931 0.950 1_655 S
C1902 H1884 0.951 . S
C1902 C1903 1.366 . S
C1902 C1904 1.388 . S
C1903 C1902 1.366 . S
C1903 C1907 1.385 . S
C1904 H1885 0.951 . S
C1904 C1902 1.388 . S
C1904 C1905 1.366 . S
C1905 C1904 1.366 . S
C1905 C1906 1.414 . S
C1905 C1908 1.499 . S
C1906 H1886 0.950 . S
C1906 C1905 1.414 . S
C1906 C1907 1.374 . S
C1907 H1887 0.950 . S
C1907 C1903 1.385 . S
C1907 C1906 1.374 . S
C1908 C1905 1.499 . S
C1908 C1909 1.373 . S
C1908 C1910 1.389 . S
C1909 H1888 0.950 . S
C1909 C1908 1.373 . S
C1909 C1925 1.377 1_655 S
C1910 C1908 1.389 . S
C1910 C1911 1.524 . S
C1910 C1924 1.377 1_655 S
C1911 C1910 1.524 . S
C1911 C1912 1.397 . S
C1911 C1916 1.363 . S
C1912 H1889 0.950 . S
C1912 C1911 1.397 . S
C1912 C1913 1.334 . S
C1913 H1890 0.950 . S
C1913 C1912 1.334 . S
C1913 C1914 1.287 . S
C1914 C1913 1.287 . S
C1914 C1915 1.524 . S
C1914 H1933 0.913 . S
C1915 H1891 0.950 . S
C1915 C1914 1.524 . S
C1915 C1916 1.415 . S
C1916 H1892 0.950 1_655 S
C1916 C1911 1.363 . S
C1916 C1915 1.415 . S
C1917 H1893 0.951 . S
C1917 C1918 1.366 . S
C1917 C1919 1.388 . S
C1918 C1917 1.366 . S
C1918 C1922 1.385 . S
C1919 H1894 0.951 . S
C1919 C1917 1.388 . S
C1919 C1920 1.366 . S
C1920 C1919 1.366 . S
C1920 C1921 1.414 . S
C1920 C1923 1.499 . S
C1921 H1895 0.950 . S
C1921 C1920 1.414 . S
C1921 C1922 1.374 . S
C1922 H1896 0.950 . S
C1922 C1918 1.385 . S
C1922 C1921 1.374 . S
C1923 C1920 1.499 . S
C1923 C1924 1.373 . S
C1923 C1925 1.389 . S
C1924 H1897 0.950 . S
C1924 C1910 1.377 1_455 S
C1924 C1923 1.373 . S
C1925 C1909 1.377 1_455 S
C1925 C1923 1.389 . S
C1925 C1926 1.524 . S
C1926 C1925 1.524 . S
C1926 C1927 1.397 . S
C1926 C1931 1.363 . S
C1927 H1898 0.950 . S
C1927 C1926 1.397 . S
C1927 C1928 1.334 . S
C1928 H1899 0.950 . S
C1928 C1927 1.334 . S
C1928 C1929 1.287 . S
C1929 C1928 1.287 . S
C1929 C1930 1.524 . S
C1929 H1932 0.999 . S
C1930 H1900 0.950 . S
C1930 C1929 1.524 . S
C1930 C1931 1.415 . S
C1931 H1901 0.950 1_455 S
C1931 C1926 1.363 . S
C1931 C1930 1.415 . S
H1932 C1929 0.999 . S
H1933 C1914 0.913 . S
H1934 C1952 0.951 . S
H1935 C1954 0.951 . S
H1936 C1956 0.950 . S
H1937 C1957 0.950 . S
H1938 C1959 0.950 . S
H1939 C1962 0.950 . S
H1940 C1963 0.950 . S
H1941 C1965 0.950 . S
H1942 C1966 0.950 . S
H1943 C1967 0.951 . S
H1944 C1969 0.951 . S
H1945 C1971 0.950 . S
H1946 C1972 0.950 . S
H1947 C1974 0.950 . S
H1948 C1977 0.950 . S
H1949 C1978 0.950 . S
H1950 C1980 0.950 . S
H1951 C1981 0.950 . S
C1952 H1934 0.951 . S
C1952 C1953 1.366 . S
C1952 C1954 1.388 . S
C1953 C1952 1.366 . S
C1953 C1957 1.385 . S
C1954 H1935 0.951 . S
C1954 C1952 1.388 . S
C1954 C1955 1.366 . S
C1955 C1954 1.366 . S
C1955 C1956 1.414 . S
C1955 C1958 1.499 . S
C1956 H1936 0.950 . S
C1956 C1955 1.414 . S
C1956 C1957 1.374 . S
C1957 H1937 0.950 . S
C1957 C1953 1.385 . S
C1957 C1956 1.374 . S
C1958 C1955 1.499 . S
C1958 C1959 1.373 . S
C1958 C1960 1.389 . S
C1959 H1938 0.950 . S
C1959 C1958 1.373 . S
C1959 C1975 1.377 . S
C1960 C1958 1.389 . S
C1960 C1961 1.524 . S
C1960 C1974 1.377 . S
C1961 C1960 1.524 . S
C1961 C1962 1.397 . S
C1961 C1966 1.363 . S
C1962 H1939 0.950 . S
C1962 C1961 1.397 . S
C1962 C1963 1.334 . S
C1963 H1940 0.950 . S
C1963 C1962 1.334 . S
C1963 C1964 1.287 . S
C1964 C1963 1.287 . S
C1964 C1965 1.524 . S
C1964 H1983 0.913 . S
C1965 H1941 0.950 . S
C1965 C1964 1.524 . S
C1965 C1966 1.415 . S
C1966 H1942 0.950 . S
C1966 C1961 1.363 . S
C1966 C1965 1.415 . S
C1967 H1943 0.951 . S
C1967 C1968 1.366 . S
C1967 C1969 1.388 . S
C1968 C1967 1.366 . S
C1968 C1972 1.385 . S
C1969 H1944 0.951 . S
C1969 C1967 1.388 . S
C1969 C1970 1.366 . S
C1970 C1969 1.366 . S
C1970 C1971 1.414 . S
C1970 C1973 1.499 . S
C1971 H1945 0.950 . S
C1971 C1970 1.414 . S
C1971 C1972 1.374 . S
C1972 H1946 0.950 . S
C1972 C1968 1.385 . S
C1972 C1971 1.374 . S
C1973 C1970 1.499 . S
C1973 C1974 1.373 . S
C1973 C1975 1.389 . S
C1974 H1947 0.950 . S
C1974 C1960 1.377 . S
C1974 C1973 1.373 . S
C1975 C1959 1.377 . S
C1975 C1973 1.389 . S
C1975 C1976 1.524 . S
C1976 C1975 1.524 . S
C1976 C1977 1.397 . S
C1976 C1981 1.363 . S
C1977 H1948 0.950 . S
C1977 C1976 1.397 . S
C1977 C1978 1.334 . S
C1978 H1949 0.950 . S
C1978 C1977 1.334 . S
C1978 C1979 1.287 . S
C1979 C1978 1.287 . S
C1979 C1980 1.524 . S
C1979 H1982 0.999 . S
C1980 H1950 0.950 . S
C1980 C1979 1.524 . S
C1980 C1981 1.415 . S
C1981 H1951 0.950 . S
C1981 C1976 1.363 . S
C1981 C1980 1.415 . S
H1982 C1979 0.999 . S
H1983 C1964 0.913 . S
H1984 C2002 0.951 . S
H1985 C2004 0.951 . S
H1986 C2006 0.950 . S
H1987 C2007 0.950 . S
H1988 C2009 0.950 . S
H1989 C2012 0.950 . S
H1990 C2013 0.950 . S
H1991 C2015 0.950 . S
H1992 C2016 0.950 . S
H1993 C2017 0.951 . S
H1994 C2019 0.951 . S
H1995 C2021 0.950 . S
H1996 C2022 0.950 . S
H1997 C2024 0.950 . S
H1998 C2027 0.950 . S
H1999 C2028 0.950 . S
H2000 C2030 0.950 . S
H2001 C2031 0.950 . S
C2002 H1984 0.951 . S
C2002 C2003 1.366 . S
C2002 C2004 1.388 . S
C2003 C2002 1.366 . S
C2003 C2007 1.385 . S
C2004 H1985 0.951 . S
C2004 C2002 1.388 . S
C2004 C2005 1.366 . S
C2005 C2004 1.366 . S
C2005 C2006 1.414 . S
C2005 C2008 1.499 . S
C2006 H1986 0.950 . S
C2006 C2005 1.414 . S
C2006 C2007 1.374 . S
C2007 H1987 0.950 . S
C2007 C2003 1.385 . S
C2007 C2006 1.374 . S
C2008 C2005 1.499 . S
C2008 C2009 1.373 . S
C2008 C2010 1.389 1_545 S
C2009 H1988 0.950 . S
C2009 C2008 1.373 . S
C2009 C2025 1.377 1_545 S
C2010 C2008 1.389 1_565 S
C2010 C2011 1.524 . S
C2010 C2024 1.377 . S
C2011 C2010 1.524 . S
C2011 C2012 1.397 1_565 S
C2011 C2016 1.363 . S
C2012 H1989 0.950 . S
C2012 C2011 1.397 1_545 S
C2012 C2013 1.334 . S
C2013 H1990 0.950 . S
C2013 C2012 1.334 . S
C2013 C2014 1.287 1_545 S
C2014 C2013 1.287 1_565 S
C2014 C2015 1.524 . S
C2014 H2033 0.913 . S
C2015 H1991 0.950 . S
C2015 C2014 1.524 . S
C2015 C2016 1.415 . S
C2016 H1992 0.950 . S
C2016 C2011 1.363 . S
C2016 C2015 1.415 . S
C2017 H1993 0.951 . S
C2017 C2018 1.366 . S
C2017 C2019 1.388 . S
C2018 C2017 1.366 . S
C2018 C2022 1.385 . S
C2019 H1994 0.951 . S
C2019 C2017 1.388 . S
C2019 C2020 1.366 . S
C2020 C2019 1.366 . S
C2020 C2021 1.414 . S
C2020 C2023 1.499 . S
C2021 H1995 0.950 . S
C2021 C2020 1.414 . S
C2021 C2022 1.374 . S
C2022 H1996 0.950 . S
C2022 C2018 1.385 . S
C2022 C2021 1.374 . S
C2023 C2020 1.499 . S
C2023 C2024 1.373 . S
C2023 C2025 1.389 . S
C2024 H1997 0.950 . S
C2024 C2010 1.377 . S
C2024 C2023 1.373 . S
C2025 C2009 1.377 1_565 S
C2025 C2023 1.389 . S
C2025 C2026 1.512 . S
C2026 C2025 1.512 . S
C2026 C2027 1.456 . S
C2026 C2031 1.318 1_565 S
C2027 H1998 0.950 . S
C2027 C2026 1.456 . S
C2027 C2028 1.334 . S
C2028 H1999 0.950 . S
C2028 C2027 1.334 . S
C2028 C2029 1.287 1_565 S
C2029 C2028 1.287 1_545 S
C2029 C2030 1.524 . S
C2029 H2032 0.999 . S
C2030 H2000 0.950 . S
C2030 C2029 1.524 . S
C2030 C2031 1.415 . S
C2031 H2001 0.950 . S
C2031 C2026 1.318 1_545 S
C2031 C2030 1.415 . S
H2032 C2029 0.999 . S
H2033 C2014 0.913 . S
H2034 C2052 0.951 . S
H2035 C2054 0.951 . S
H2036 C2056 0.950 . S
H2037 C2057 0.950 . S
H2038 C2059 0.950 . S
H2039 C2062 0.950 . S
H2040 C2063 0.950 . S
H2041 C2065 0.950 . S
H2042 C2066 0.950 . S
H2043 C2067 0.951 . S
H2044 C2069 0.951 . S
H2045 C2071 0.950 . S
H2046 C2072 0.950 . S
H2047 C2074 0.950 . S
H2048 C2077 0.950 . S
H2049 C2078 0.950 . S
H2050 C2080 0.950 . S
H2051 C2081 0.950 . S
C2052 H2034 0.951 . S
C2052 C2053 1.366 . S
C2052 C2054 1.388 . S
C2053 C2052 1.366 . S
C2053 C2057 1.385 . S
C2054 H2035 0.951 . S
C2054 C2052 1.388 . S
C2054 C2055 1.366 . S
C2055 C2054 1.366 . S
C2055 C2056 1.414 . S
C2055 C2058 1.499 . S
C2056 H2036 0.950 . S
C2056 C2055 1.414 . S
C2056 C2057 1.374 . S
C2057 H2037 0.950 . S
C2057 C2053 1.385 . S
C2057 C2056 1.374 . S
C2058 C2055 1.499 . S
C2058 C2059 1.373 . S
C2058 C2060 1.389 . S
C2059 H2038 0.950 . S
C2059 C2058 1.373 . S
C2059 C2075 1.377 1_455 S
C2060 C2058 1.389 . S
C2060 C2061 1.524 . S
C2060 C2074 1.377 1_455 S
C2061 C2060 1.524 . S
C2061 C2062 1.397 . S
C2061 C2066 1.363 . S
C2062 H2039 0.950 . S
C2062 C2061 1.397 . S
C2062 C2063 1.334 . S
C2063 H2040 0.950 . S
C2063 C2062 1.334 . S
C2063 C2064 1.287 . S
C2064 C2063 1.287 . S
C2064 C2065 1.524 . S
C2064 H2083 0.913 . S
C2065 H2041 0.950 . S
C2065 C2064 1.524 . S
C2065 C2066 1.415 . S
C2066 H2042 0.950 . S
C2066 C2061 1.363 . S
C2066 C2065 1.415 . S
C2067 H2043 0.951 . S
C2067 C2068 1.366 . S
C2067 C2069 1.388 . S
C2068 C2067 1.366 . S
C2068 C2072 1.385 . S
C2069 H2044 0.951 . S
C2069 C2067 1.388 . S
C2069 C2070 1.366 . S
C2070 C2069 1.366 . S
C2070 C2071 1.414 . S
C2070 C2073 1.499 . S
C2071 H2045 0.950 . S
C2071 C2070 1.414 . S
C2071 C2072 1.374 . S
C2072 H2046 0.950 . S
C2072 C2068 1.385 . S
C2072 C2071 1.374 . S
C2073 C2070 1.499 . S
C2073 C2074 1.373 . S
C2073 C2075 1.389 . S
C2074 H2047 0.950 . S
C2074 C2060 1.377 1_655 S
C2074 C2073 1.373 . S
C2075 C2059 1.377 1_655 S
C2075 C2073 1.389 . S
C2075 C2076 1.524 . S
C2076 C2075 1.524 . S
C2076 C2077 1.397 . S
C2076 C2081 1.363 . S
C2077 H2048 0.950 . S
C2077 C2076 1.397 . S
C2077 C2078 1.334 . S
C2078 H2049 0.950 . S
C2078 C2077 1.334 . S
C2078 C2079 1.287 . S
C2079 C2078 1.287 . S
C2079 C2080 1.524 . S
C2079 H2082 0.999 . S
C2080 H2050 0.950 . S
C2080 C2079 1.524 . S
C2080 C2081 1.415 . S
C2081 H2051 0.950 . S
C2081 C2076 1.363 . S
C2081 C2080 1.415 . S
H2082 C2079 0.999 . S
H2083 C2064 0.913 . S
H2084 C2102 0.951 . S
H2085 C2104 0.951 . S
H2086 C2106 0.950 . S
H2087 C2107 0.950 . S
H2088 C2109 0.950 . S
H2089 C2112 0.950 . S
H2090 C2113 0.950 . S
H2091 C2115 0.950 . S
H2092 C2116 0.950 . S
H2093 C2117 0.951 . S
H2094 C2119 0.951 . S
H2095 C2121 0.950 . S
H2096 C2122 0.950 . S
H2097 C2124 0.950 . S
H2098 C2127 0.950 . S
H2099 C2128 0.950 . S
H2100 C2130 0.950 . S
H2101 C2131 0.950 . S
C2102 H2084 0.951 . S
C2102 C2103 1.366 . S
C2102 C2104 1.388 . S
C2103 C2102 1.366 . S
C2103 C2107 1.385 . S
C2104 H2085 0.951 . S
C2104 C2102 1.388 . S
C2104 C2105 1.366 . S
C2105 C2104 1.366 . S
C2105 C2106 1.414 . S
C2105 C2108 1.499 . S
C2106 H2086 0.950 . S
C2106 C2105 1.414 . S
C2106 C2107 1.374 . S
C2107 H2087 0.950 . S
C2107 C2103 1.385 . S
C2107 C2106 1.374 . S
C2108 C2105 1.499 . S
C2108 C2109 1.373 . S
C2108 C2110 1.389 . S
C2109 H2088 0.950 . S
C2109 C2108 1.373 . S
C2109 C2125 1.377 . S
C2110 C2108 1.389 . S
C2110 C2111 1.524 . S
C2110 C2124 1.377 . S
C2111 C2110 1.524 . S
C2111 C2112 1.397 . S
C2111 C2116 1.363 . S
C2112 H2089 0.950 . S
C2112 C2111 1.397 . S
C2112 C2113 1.334 . S
C2113 H2090 0.950 . S
C2113 C2112 1.334 . S
C2113 C2114 1.287 . S
C2114 C2113 1.287 . S
C2114 C2115 1.524 . S
C2114 H2133 0.913 . S
C2115 H2091 0.950 . S
C2115 C2114 1.524 . S
C2115 C2116 1.415 . S
C2116 H2092 0.950 . S
C2116 C2111 1.363 . S
C2116 C2115 1.415 . S
C2117 H2093 0.951 . S
C2117 C2118 1.366 . S
C2117 C2119 1.388 . S
C2118 C2117 1.366 . S
C2118 C2122 1.385 . S
C2119 H2094 0.951 . S
C2119 C2117 1.388 . S
C2119 C2120 1.366 . S
C2120 C2119 1.366 . S
C2120 C2121 1.414 . S
C2120 C2123 1.499 . S
C2121 H2095 0.950 . S
C2121 C2120 1.414 . S
C2121 C2122 1.374 . S
C2122 H2096 0.950 . S
C2122 C2118 1.385 . S
C2122 C2121 1.374 . S
C2123 C2120 1.499 . S
C2123 C2124 1.373 . S
C2123 C2125 1.389 . S
C2124 H2097 0.950 . S
C2124 C2110 1.377 . S
C2124 C2123 1.373 . S
C2125 C2109 1.377 . S
C2125 C2123 1.389 . S
C2125 C2126 1.524 . S
C2126 C2125 1.524 . S
C2126 C2127 1.397 . S
C2126 C2131 1.363 . S
C2127 H2098 0.950 . S
C2127 C2126 1.397 . S
C2127 C2128 1.334 . S
C2128 H2099 0.950 . S
C2128 C2127 1.334 . S
C2128 C2129 1.287 . S
C2129 C2128 1.287 . S
C2129 C2130 1.524 . S
C2129 H2132 0.999 . S
C2130 H2100 0.950 . S
C2130 C2129 1.524 . S
C2130 C2131 1.415 . S
C2131 H2101 0.950 . S
C2131 C2126 1.363 . S
C2131 C2130 1.415 . S
H2132 C2129 0.999 . S
H2133 C2114 0.913 . S
H2134 C2152 0.951 . S
H2135 C2154 0.951 . S
H2136 C2156 0.950 . S
H2137 C2157 0.950 . S
H2138 C2159 0.950 . S
H2139 C2162 0.950 . S
H2140 C2163 0.950 . S
H2141 C2165 0.950 . S
H2142 C2166 0.995 . S
H2143 C2167 0.951 . S
H2144 C2169 0.951 . S
H2145 C2171 0.950 . S
H2146 C2172 0.950 . S
H2147 C2174 0.950 . S
H2148 C2177 0.950 . S
H2149 C2178 0.950 . S
H2150 C2180 0.950 . S
H2151 C2181 0.950 1_545 S
C2152 H2134 0.951 . S
C2152 C2153 1.366 . S
C2152 C2154 1.388 . S
C2153 C2152 1.366 . S
C2153 C2157 1.385 . S
C2154 H2135 0.951 . S
C2154 C2152 1.388 . S
C2154 C2155 1.366 . S
C2155 C2154 1.366 . S
C2155 C2156 1.414 . S
C2155 C2158 1.499 . S
C2156 H2136 0.950 . S
C2156 C2155 1.414 . S
C2156 C2157 1.374 . S
C2157 H2137 0.950 . S
C2157 C2153 1.385 . S
C2157 C2156 1.374 . S
C2158 C2155 1.499 . S
C2158 C2159 1.373 . S
C2158 C2160 1.389 . S
C2159 H2138 0.950 . S
C2159 C2158 1.373 . S
C2159 C2175 1.377 1_545 S
C2160 C2158 1.389 . S
C2160 C2161 1.524 . S
C2160 C2174 1.377 1_545 S
C2161 C2160 1.524 . S
C2161 C2162 1.397 . S
C2161 C2166 1.363 . S
C2162 H2139 0.950 . S
C2162 C2161 1.397 . S
C2162 C2163 1.334 . S
C2163 H2140 0.950 . S
C2163 C2162 1.334 . S
C2163 C2164 1.287 . S
C2164 C2163 1.287 . S
C2164 C2165 1.524 . S
C2164 H2183 0.913 . S
C2165 H2141 0.950 . S
C2165 C2164 1.524 . S
C2165 C2166 1.415 . S
C2166 H2142 0.995 . S
C2166 C2161 1.363 . S
C2166 C2165 1.415 . S
C2167 H2143 0.951 . S
C2167 C2168 1.366 . S
C2167 C2169 1.388 . S
C2168 C2167 1.366 . S
C2168 C2172 1.385 . S
C2169 H2144 0.951 . S
C2169 C2167 1.388 . S
C2169 C2170 1.366 . S
C2170 C2169 1.366 . S
C2170 C2171 1.414 . S
C2170 C2173 1.499 . S
C2171 H2145 0.950 . S
C2171 C2170 1.414 . S
C2171 C2172 1.374 . S
C2172 H2146 0.950 . S
C2172 C2168 1.385 . S
C2172 C2171 1.374 . S
C2173 C2170 1.499 . S
C2173 C2174 1.373 . S
C2173 C2175 1.389 . S
C2174 H2147 0.950 . S
C2174 C2160 1.377 1_565 S
C2174 C2173 1.373 . S
C2175 C2159 1.377 1_565 S
C2175 C2173 1.389 . S
C2175 C2176 1.524 . S
C2176 C2175 1.524 . S
C2176 C2177 1.397 . S
C2176 C2181 1.363 . S
C2177 H2148 0.950 . S
C2177 C2176 1.397 . S
C2177 C2178 1.334 . S
C2178 H2149 0.950 . S
C2178 C2177 1.334 . S
C2178 C2179 1.287 . S
C2179 C2178 1.287 . S
C2179 C2180 1.524 . S
C2179 H2182 0.999 . S
C2180 H2150 0.950 . S
C2180 C2179 1.524 . S
C2180 C2181 1.415 . S
C2181 H2151 0.950 1_565 S
C2181 C2176 1.363 . S
C2181 C2180 1.415 . S
H2182 C2179 0.999 . S
H2183 C2164 0.913 . S
H2184 C2202 0.951 . S
H2185 C2204 0.951 . S
H2186 C2206 0.950 . S
H2187 C2207 0.950 . S
H2188 C2209 0.950 . S
H2189 C2212 0.950 . S
H2190 C2213 0.950 . S
H2191 C2215 0.950 . S
H2192 C2216 0.950 . S
H2193 C2217 0.951 . S
H2194 C2219 0.951 . S
H2195 C2221 0.950 . S
H2196 C2222 0.950 . S
H2197 C2224 0.950 . S
H2198 C2227 0.950 . S
H2199 C2228 0.950 . S
H2200 C2230 0.950 . S
H2201 C2231 0.950 . S
C2202 H2184 0.951 . S
C2202 C2203 1.366 . S
C2202 C2204 1.388 . S
C2203 C2202 1.366 . S
C2203 C2207 1.385 . S
C2204 H2185 0.951 . S
C2204 C2202 1.388 . S
C2204 C2205 1.366 . S
C2205 C2204 1.366 . S
C2205 C2206 1.414 . S
C2205 C2208 1.499 . S
C2206 H2186 0.950 . S
C2206 C2205 1.414 . S
C2206 C2207 1.374 . S
C2207 H2187 0.950 . S
C2207 C2203 1.385 . S
C2207 C2206 1.374 . S
C2208 C2205 1.499 . S
C2208 C2209 1.373 . S
C2208 C2210 1.389 . S
C2209 H2188 0.950 . S
C2209 C2208 1.373 . S
C2209 C2225 1.377 1_565 S
C2210 C2208 1.389 . S
C2210 C2211 1.524 . S
C2210 C2224 1.377 1_565 S
C2211 C2210 1.524 . S
C2211 C2212 1.397 . S
C2211 C2216 1.363 . S
C2212 H2189 0.950 . S
C2212 C2211 1.397 . S
C2212 C2213 1.334 . S
C2213 H2190 0.950 . S
C2213 C2212 1.334 . S
C2213 C2214 1.287 . S
C2214 C2213 1.287 . S
C2214 C2215 1.524 . S
C2214 H2233 0.913 . S
C2215 H2191 0.950 . S
C2215 C2214 1.524 . S
C2215 C2216 1.415 . S
C2216 H2192 0.950 . S
C2216 C2211 1.363 . S
C2216 C2215 1.415 . S
C2217 H2193 0.951 . S
C2217 C2218 1.366 . S
C2217 C2219 1.388 . S
C2218 C2217 1.366 . S
C2218 C2222 1.385 . S
C2219 H2194 0.951 . S
C2219 C2217 1.388 . S
C2219 C2220 1.366 . S
C2220 C2219 1.366 . S
C2220 C2221 1.414 . S
C2220 C2223 1.499 . S
C2221 H2195 0.950 . S
C2221 C2220 1.414 . S
C2221 C2222 1.374 . S
C2222 H2196 0.950 . S
C2222 C2218 1.385 . S
C2222 C2221 1.374 . S
C2223 C2220 1.499 . S
C2223 C2224 1.373 . S
C2223 C2225 1.389 . S
C2224 H2197 0.950 . S
C2224 C2210 1.377 1_545 S
C2224 C2223 1.373 . S
C2225 C2209 1.377 1_545 S
C2225 C2223 1.389 . S
C2225 C2226 1.524 . S
C2226 C2225 1.524 . S
C2226 C2227 1.397 . S
C2226 C2231 1.363 . S
C2227 H2198 0.950 . S
C2227 C2226 1.397 . S
C2227 C2228 1.334 . S
C2228 H2199 0.950 . S
C2228 C2227 1.334 . S
C2228 C2229 1.287 . S
C2229 C2228 1.287 . S
C2229 C2230 1.524 . S
C2229 H2232 0.999 . S
C2230 H2200 0.950 . S
C2230 C2229 1.524 . S
C2230 C2231 1.415 . S
C2231 H2201 0.950 . S
C2231 C2226 1.363 . S
C2231 C2230 1.415 . S
H2232 C2229 0.999 . S
H2233 C2214 0.913 . S
H2234 C2252 0.951 . S
H2235 C2254 0.951 . S
H2236 C2256 0.950 . S
H2237 C2257 0.950 . S
H2238 C2259 0.950 . S
H2239 C2262 0.950 . S
H2240 C2263 0.950 . S
H2241 C2265 0.950 . S
H2242 C2266 0.950 . S
H2243 C2267 0.951 . S
H2244 C2269 0.951 . S
H2245 C2271 0.950 . S
H2246 C2272 0.950 . S
H2247 C2274 0.950 . S
H2248 C2277 0.950 . S
H2249 C2278 0.950 . S
H2250 C2280 0.950 . S
H2251 C2281 0.950 . S
C2252 H2234 0.951 . S
C2252 C2253 1.366 . S
C2252 C2254 1.388 . S
C2253 C2252 1.366 . S
C2253 C2257 1.385 . S
C2254 H2235 0.951 . S
C2254 C2252 1.388 . S
C2254 C2255 1.366 . S
C2255 C2254 1.366 . S
C2255 C2256 1.414 . S
C2255 C2258 1.499 . S
C2256 H2236 0.950 . S
C2256 C2255 1.414 . S
C2256 C2257 1.374 . S
C2257 H2237 0.950 . S
C2257 C2253 1.385 . S
C2257 C2256 1.374 . S
C2258 C2255 1.499 . S
C2258 C2259 1.373 . S
C2258 C2260 1.389 . S
C2259 H2238 0.950 . S
C2259 C2258 1.373 . S
C2259 C2275 1.377 1_455 S
C2260 C2258 1.389 . S
C2260 C2261 1.524 . S
C2260 C2274 1.377 1_455 S
C2261 C2260 1.524 . S
C2261 C2262 1.397 . S
C2261 C2266 1.363 . S
C2262 H2239 0.950 . S
C2262 C2261 1.397 . S
C2262 C2263 1.334 . S
C2263 H2240 0.950 . S
C2263 C2262 1.334 . S
C2263 C2264 1.287 . S
C2264 C2263 1.287 . S
C2264 C2265 1.524 . S
C2264 H2283 0.913 . S
C2265 H2241 0.950 . S
C2265 C2264 1.524 . S
C2265 C2266 1.415 . S
C2266 H2242 0.950 . S
C2266 C2261 1.363 . S
C2266 C2265 1.415 . S
C2267 H2243 0.951 . S
C2267 C2268 1.366 . S
C2267 C2269 1.388 . S
C2268 C2267 1.366 . S
C2268 C2272 1.385 . S
C2269 H2244 0.951 . S
C2269 C2267 1.388 . S
C2269 C2270 1.366 . S
C2270 C2269 1.366 . S
C2270 C2271 1.414 . S
C2270 C2273 1.499 . S
C2271 H2245 0.950 . S
C2271 C2270 1.414 . S
C2271 C2272 1.374 . S
C2272 H2246 0.950 . S
C2272 C2268 1.385 . S
C2272 C2271 1.374 . S
C2273 C2270 1.499 . S
C2273 C2274 1.373 . S
C2273 C2275 1.389 . S
C2274 H2247 0.950 . S
C2274 C2260 1.377 1_655 S
C2274 C2273 1.373 . S
C2275 C2259 1.377 1_655 S
C2275 C2273 1.389 . S
C2275 C2276 1.524 . S
C2276 C2275 1.524 . S
C2276 C2277 1.397 . S
C2276 C2281 1.363 . S
C2277 H2248 0.950 . S
C2277 C2276 1.397 . S
C2277 C2278 1.334 . S
C2278 H2249 0.950 . S
C2278 C2277 1.334 . S
C2278 C2279 1.287 . S
C2279 C2278 1.287 . S
C2279 C2280 1.524 . S
C2279 H2282 0.999 . S
C2280 H2250 0.950 . S
C2280 C2279 1.524 . S
C2280 C2281 1.415 . S
C2281 H2251 0.950 . S
C2281 C2276 1.363 . S
C2281 C2280 1.415 . S
H2282 C2279 0.999 . S
H2283 C2264 0.913 . S
H2284 C2302 0.951 . S
H2285 C2304 0.951 . S
H2286 C2306 0.950 . S
H2287 C2307 0.950 . S
H2288 C2309 0.950 . S
H2289 C2312 0.950 . S
H2290 C2313 0.950 . S
H2291 C2315 0.950 . S
H2292 C2316 0.950 . S
H2293 C2317 0.951 . S
H2294 C2319 0.951 . S
H2295 C2321 0.950 . S
H2296 C2322 0.950 . S
H2297 C2324 0.950 . S
H2298 C2327 0.950 . S
H2299 C2328 0.950 . S
H2300 C2330 0.950 . S
H2301 C2331 0.950 . S
C2302 H2284 0.951 . S
C2302 C2303 1.366 . S
C2302 C2304 1.388 . S
C2303 C2302 1.366 . S
C2303 C2307 1.385 . S
C2304 H2285 0.951 . S
C2304 C2302 1.388 . S
C2304 C2305 1.366 . S
C2305 C2304 1.366 . S
C2305 C2306 1.414 . S
C2305 C2308 1.499 . S
C2306 H2286 0.950 . S
C2306 C2305 1.414 . S
C2306 C2307 1.374 . S
C2307 H2287 0.950 . S
C2307 C2303 1.385 . S
C2307 C2306 1.374 . S
C2308 C2305 1.499 . S
C2308 C2309 1.373 . S
C2308 C2310 1.389 . S
C2309 H2288 0.950 . S
C2309 C2308 1.373 . S
C2309 C2325 1.377 . S
C2310 C2308 1.389 . S
C2310 C2311 1.524 . S
C2310 C2324 1.377 . S
C2311 C2310 1.524 . S
C2311 C2312 1.397 . S
C2311 C2316 1.363 . S
C2312 H2289 0.950 . S
C2312 C2311 1.397 . S
C2312 C2313 1.334 . S
C2313 H2290 0.950 . S
C2313 C2312 1.334 . S
C2313 C2314 1.287 . S
C2314 C2313 1.287 . S
C2314 C2315 1.524 . S
C2314 H2333 0.913 . S
C2315 H2291 0.950 . S
C2315 C2314 1.524 . S
C2315 C2316 1.415 . S
C2316 H2292 0.950 . S
C2316 C2311 1.363 . S
C2316 C2315 1.415 . S
C2317 H2293 0.951 . S
C2317 C2318 1.366 . S
C2317 C2319 1.388 . S
C2318 C2317 1.366 . S
C2318 C2322 1.385 . S
C2319 H2294 0.951 . S
C2319 C2317 1.388 . S
C2319 C2320 1.366 . S
C2320 C2319 1.366 . S
C2320 C2321 1.414 . S
C2320 C2323 1.499 . S
C2321 H2295 0.950 . S
C2321 C2320 1.414 . S
C2321 C2322 1.374 . S
C2322 H2296 0.950 . S
C2322 C2318 1.385 . S
C2322 C2321 1.374 . S
C2323 C2320 1.499 . S
C2323 C2324 1.373 . S
C2323 C2325 1.389 . S
C2324 H2297 0.950 . S
C2324 C2310 1.377 . S
C2324 C2323 1.373 . S
C2325 C2309 1.377 . S
C2325 C2323 1.389 . S
C2325 C2326 1.524 . S
C2326 C2325 1.524 . S
C2326 C2327 1.397 . S
C2326 C2331 1.363 . S
C2327 H2298 0.950 . S
C2327 C2326 1.397 . S
C2327 C2328 1.334 . S
C2328 H2299 0.950 . S
C2328 C2327 1.334 . S
C2328 C2329 1.287 . S
C2329 C2328 1.287 . S
C2329 C2330 1.524 . S
C2329 H2332 0.999 . S
C2330 H2300 0.950 . S
C2330 C2329 1.524 . S
C2330 C2331 1.415 . S
C2331 H2301 0.950 . S
C2331 C2326 1.363 . S
C2331 C2330 1.415 . S
H2332 C2329 0.999 . S
H2333 C2314 0.913 . S
H2334 C2352 0.951 . S
H2335 C2354 0.951 . S
H2336 C2356 0.950 . S
H2337 C2357 0.950 . S
H2338 C2359 0.950 . S
H2339 C2362 0.950 . S
H2340 C2363 0.950 . S
H2341 C2365 0.950 . S
H2342 C2366 0.950 . S
H2343 C2367 0.951 . S
H2344 C2369 0.951 . S
H2345 C2371 0.950 . S
H2346 C2372 0.950 . S
H2347 C2374 0.950 . S
H2348 C2377 0.950 . S
H2349 C2378 0.950 . S
H2350 C2380 0.950 . S
H2351 C2381 0.950 . S
C2352 H2334 0.951 . S
C2352 C2353 1.366 . S
C2352 C2354 1.388 . S
C2353 C2352 1.366 . S
C2353 C2357 1.385 . S
C2354 H2335 0.951 . S
C2354 C2352 1.388 . S
C2354 C2355 1.366 . S
C2355 C2354 1.366 . S
C2355 C2356 1.414 . S
C2355 C2358 1.499 . S
C2356 H2336 0.950 . S
C2356 C2355 1.414 . S
C2356 C2357 1.374 . S
C2357 H2337 0.950 . S
C2357 C2353 1.385 . S
C2357 C2356 1.374 . S
C2358 C2355 1.499 . S
C2358 C2359 1.373 . S
C2358 C2360 1.389 . S
C2359 H2338 0.950 . S
C2359 C2358 1.373 . S
C2359 C2375 1.377 . S
C2360 C2358 1.389 . S
C2360 C2361 1.524 . S
C2360 C2374 1.377 . S
C2361 C2360 1.524 . S
C2361 C2362 1.397 . S
C2361 C2366 1.363 . S
C2362 H2339 0.950 . S
C2362 C2361 1.397 . S
C2362 C2363 1.334 . S
C2363 H2340 0.950 . S
C2363 C2362 1.334 . S
C2363 C2364 1.287 . S
C2364 C2363 1.287 . S
C2364 C2365 1.524 . S
C2364 H2383 0.913 . S
C2365 H2341 0.950 . S
C2365 C2364 1.524 . S
C2365 C2366 1.415 . S
C2366 H2342 0.950 . S
C2366 C2361 1.363 . S
C2366 C2365 1.415 . S
C2367 H2343 0.951 . S
C2367 C2368 1.366 . S
C2367 C2369 1.388 . S
C2368 C2367 1.366 . S
C2368 C2372 1.385 . S
C2369 H2344 0.951 . S
C2369 C2367 1.388 . S
C2369 C2370 1.366 . S
C2370 C2369 1.366 . S
C2370 C2371 1.414 . S
C2370 C2373 1.499 . S
C2371 H2345 0.950 . S
C2371 C2370 1.414 . S
C2371 C2372 1.374 . S
C2372 H2346 0.950 . S
C2372 C2368 1.385 . S
C2372 C2371 1.374 . S
C2373 C2370 1.499 . S
C2373 C2374 1.373 . S
C2373 C2375 1.389 . S
C2374 H2347 0.950 . S
C2374 C2360 1.377 . S
C2374 C2373 1.373 . S
C2375 C2359 1.377 . S
C2375 C2373 1.389 . S
C2375 C2376 1.524 . S
C2376 C2375 1.524 . S
C2376 C2377 1.397 . S
C2376 C2381 1.363 . S
C2377 H2348 0.950 . S
C2377 C2376 1.397 . S
C2377 C2378 1.334 . S
C2378 H2349 0.950 . S
C2378 C2377 1.334 . S
C2378 C2379 1.287 . S
C2379 C2378 1.287 . S
C2379 C2380 1.524 . S
C2379 H2382 0.999 . S
C2380 H2350 0.950 . S
C2380 C2379 1.524 . S
C2380 C2381 1.415 . S
C2381 H2351 0.950 . S
C2381 C2376 1.363 . S
C2381 C2380 1.415 . S
H2382 C2379 0.999 . S
H2383 C2364 0.913 . S
H2384 C2402 0.951 . S
H2385 C2404 0.951 . S
H2386 C2406 0.950 . S
H2387 C2407 0.950 . S
H2388 C2409 0.950 . S
H2389 C2412 0.950 . S
H2390 C2413 0.950 . S
H2391 C2415 0.950 . S
H2392 C2416 0.950 . S
H2393 C2417 0.951 . S
H2394 C2419 0.951 . S
H2395 C2421 0.950 . S
H2396 C2422 0.950 . S
H2397 C2424 0.950 . S
H2398 C2427 0.950 . S
H2399 C2428 0.950 . S
H2400 C2430 0.950 . S
H2401 C2431 0.950 . S
C2402 H2384 0.951 . S
C2402 C2403 1.366 . S
C2402 C2404 1.388 . S
C2403 C2402 1.366 . S
C2403 C2407 1.385 . S
C2404 H2385 0.951 . S
C2404 C2402 1.388 . S
C2404 C2405 1.366 . S
C2405 C2404 1.366 . S
C2405 C2406 1.414 . S
C2405 C2408 1.499 . S
C2406 H2386 0.950 . S
C2406 C2405 1.414 . S
C2406 C2407 1.374 . S
C2407 H2387 0.950 . S
C2407 C2403 1.385 . S
C2407 C2406 1.374 . S
C2408 C2405 1.499 . S
C2408 C2409 1.373 . S
C2408 C2410 1.389 . S
C2409 H2388 0.950 . S
C2409 C2408 1.373 . S
C2409 C2425 1.377 . S
C2410 C2408 1.389 . S
C2410 C2411 1.524 . S
C2410 C2424 1.377 . S
C2411 C2410 1.524 . S
C2411 C2412 1.397 . S
C2411 C2416 1.363 . S
C2412 H2389 0.950 . S
C2412 C2411 1.397 . S
C2412 C2413 1.334 . S
C2413 H2390 0.950 . S
C2413 C2412 1.334 . S
C2413 C2414 1.287 . S
C2414 C2413 1.287 . S
C2414 C2415 1.524 . S
C2414 H2433 0.913 . S
C2415 H2391 0.950 . S
C2415 C2414 1.524 . S
C2415 C2416 1.415 . S
C2416 H2392 0.950 . S
C2416 C2411 1.363 . S
C2416 C2415 1.415 . S
C2417 H2393 0.951 . S
C2417 C2418 1.366 . S
C2417 C2419 1.388 . S
C2418 C2417 1.366 . S
C2418 C2422 1.385 . S
C2419 H2394 0.951 . S
C2419 C2417 1.388 . S
C2419 C2420 1.366 . S
C2420 C2419 1.366 . S
C2420 C2421 1.414 . S
C2420 C2423 1.499 . S
C2421 H2395 0.950 . S
C2421 C2420 1.414 . S
C2421 C2422 1.374 . S
C2422 H2396 0.950 . S
C2422 C2418 1.385 . S
C2422 C2421 1.374 . S
C2423 C2420 1.499 . S
C2423 C2424 1.373 . S
C2423 C2425 1.389 . S
C2424 H2397 0.950 . S
C2424 C2410 1.377 . S
C2424 C2423 1.373 . S
C2425 C2409 1.377 . S
C2425 C2423 1.389 . S
C2425 C2426 1.524 . S
C2426 C2425 1.524 . S
C2426 C2427 1.397 . S
C2426 C2431 1.363 . S
C2427 H2398 0.950 . S
C2427 C2426 1.397 . S
C2427 C2428 1.334 . S
C2428 H2399 0.950 . S
C2428 C2427 1.334 . S
C2428 C2429 1.287 . S
C2429 C2428 1.287 . S
C2429 C2430 1.524 . S
C2429 H2432 0.999 . S
C2430 H2400 0.950 . S
C2430 C2429 1.524 . S
C2430 C2431 1.415 . S
C2431 H2401 0.950 . S
C2431 C2426 1.363 . S
C2431 C2430 1.415 . S
H2432 C2429 0.999 . S
H2433 C2414 0.913 . S
H2434 C2452 0.951 . S
H2435 C2454 0.951 . S
H2436 C2456 0.950 . S
H2437 C2457 0.950 . S
H2438 C2459 0.950 . S
H2439 C2462 0.950 . S
H2440 C2463 0.950 . S
H2441 C2465 0.950 . S
H2442 C2466 0.950 . S
H2443 C2467 0.951 . S
H2444 C2469 0.951 . S
H2445 C2471 0.950 . S
H2446 C2472 0.950 . S
H2447 C2474 0.950 . S
H2448 C2477 0.950 . S
H2449 C2478 0.950 . S
H2450 C2480 0.950 . S
H2451 C2481 0.950 . S
C2452 H2434 0.951 . S
C2452 C2453 1.366 . S
C2452 C2454 1.388 . S
C2453 C2452 1.366 . S
C2453 C2457 1.385 . S
C2454 H2435 0.951 . S
C2454 C2452 1.388 . S
C2454 C2455 1.366 . S
C2455 C2454 1.366 . S
C2455 C2456 1.414 . S
C2455 C2458 1.499 . S
C2456 H2436 0.950 . S
C2456 C2455 1.414 . S
C2456 C2457 1.374 . S
C2457 H2437 0.950 . S
C2457 C2453 1.385 . S
C2457 C2456 1.374 . S
C2458 C2455 1.499 . S
C2458 C2459 1.373 . S
C2458 C2460 1.389 . S
C2459 H2438 0.950 . S
C2459 C2458 1.373 . S
C2459 C2475 1.377 . S
C2460 C2458 1.389 . S
C2460 C2461 1.524 . S
C2460 C2474 1.377 . S
C2461 C2460 1.524 . S
C2461 C2462 1.397 . S
C2461 C2466 1.363 . S
C2462 H2439 0.950 . S
C2462 C2461 1.397 . S
C2462 C2463 1.334 . S
C2463 H2440 0.950 . S
C2463 C2462 1.334 . S
C2463 C2464 1.287 . S
C2464 C2463 1.287 . S
C2464 C2465 1.524 . S
C2464 H2483 0.913 . S
C2465 H2441 0.950 . S
C2465 C2464 1.524 . S
C2465 C2466 1.415 . S
C2466 H2442 0.950 . S
C2466 C2461 1.363 . S
C2466 C2465 1.415 . S
C2467 H2443 0.951 . S
C2467 C2468 1.366 . S
C2467 C2469 1.388 . S
C2468 C2467 1.366 . S
C2468 C2472 1.385 . S
C2469 H2444 0.951 . S
C2469 C2467 1.388 . S
C2469 C2470 1.366 . S
C2470 C2469 1.366 . S
C2470 C2471 1.414 . S
C2470 C2473 1.499 . S
C2471 H2445 0.950 . S
C2471 C2470 1.414 . S
C2471 C2472 1.374 . S
C2472 H2446 0.950 . S
C2472 C2468 1.385 . S
C2472 C2471 1.374 . S
C2473 C2470 1.499 . S
C2473 C2474 1.373 . S
C2473 C2475 1.389 . S
C2474 H2447 0.950 . S
C2474 C2460 1.377 . S
C2474 C2473 1.373 . S
C2475 C2459 1.377 . S
C2475 C2473 1.389 . S
C2475 C2476 1.524 . S
C2476 C2475 1.524 . S
C2476 C2477 1.397 . S
C2476 C2481 1.363 . S
C2477 H2448 0.950 . S
C2477 C2476 1.397 . S
C2477 C2478 1.334 . S
C2478 H2449 0.950 . S
C2478 C2477 1.334 . S
C2478 C2479 1.287 . S
C2479 C2478 1.287 . S
C2479 C2480 1.524 . S
C2479 H2482 0.999 . S
C2480 H2450 0.950 . S
C2480 C2479 1.524 . S
C2480 C2481 1.415 . S
C2481 H2451 0.950 . S
C2481 C2476 1.363 . S
C2481 C2480 1.415 . S
H2482 C2479 0.999 . S
H2483 C2464 0.913 . S
H2484 C2502 0.951 . S
H2485 C2504 0.951 . S
H2486 C2506 0.950 . S
H2487 C2507 0.950 . S
H2488 C2509 0.950 . S
H2489 C2512 0.950 . S
H2490 C2513 0.950 . S
H2491 C2515 0.950 . S
H2492 C2516 0.950 . S
H2493 C2517 0.951 . S
H2494 C2519 0.951 . S
H2495 C2521 0.950 . S
H2496 C2522 0.950 . S
H2497 C2524 0.950 . S
H2498 C2527 0.950 . S
H2499 C2528 0.950 . S
H2500 C2530 0.950 . S
H2501 C2531 0.950 . S
C2502 H2484 0.951 . S
C2502 C2503 1.366 . S
C2502 C2504 1.388 . S
C2503 C2502 1.366 . S
C2503 C2507 1.385 . S
C2504 H2485 0.951 . S
C2504 C2502 1.388 . S
C2504 C2505 1.366 . S
C2505 C2504 1.366 . S
C2505 C2506 1.414 . S
C2505 C2508 1.499 . S
C2506 H2486 0.950 . S
C2506 C2505 1.414 . S
C2506 C2507 1.374 . S
C2507 H2487 0.950 . S
C2507 C2503 1.385 . S
C2507 C2506 1.374 . S
C2508 C2505 1.499 . S
C2508 C2509 1.373 . S
C2508 C2510 1.389 . S
C2509 H2488 0.950 . S
C2509 C2508 1.373 . S
C2509 C2525 1.377 . S
C2510 C2508 1.389 . S
C2510 C2511 1.524 . S
C2510 C2524 1.377 . S
C2511 C2510 1.524 . S
C2511 C2512 1.397 . S
C2511 C2516 1.363 . S
C2512 H2489 0.950 . S
C2512 C2511 1.397 . S
C2512 C2513 1.334 . S
C2513 H2490 0.950 . S
C2513 C2512 1.334 . S
C2513 C2514 1.287 . S
C2514 C2513 1.287 . S
C2514 C2515 1.524 . S
C2514 H2533 0.913 . S
C2515 H2491 0.950 . S
C2515 C2514 1.524 . S
C2515 C2516 1.415 . S
C2516 H2492 0.950 . S
C2516 C2511 1.363 . S
C2516 C2515 1.415 . S
C2517 H2493 0.951 . S
C2517 C2518 1.366 . S
C2517 C2519 1.388 . S
C2518 C2517 1.366 . S
C2518 C2522 1.385 . S
C2519 H2494 0.951 . S
C2519 C2517 1.388 . S
C2519 C2520 1.366 . S
C2520 C2519 1.366 . S
C2520 C2521 1.414 . S
C2520 C2523 1.499 . S
C2521 H2495 0.950 . S
C2521 C2520 1.414 . S
C2521 C2522 1.374 . S
C2522 H2496 0.950 . S
C2522 C2518 1.385 . S
C2522 C2521 1.374 . S
C2523 C2520 1.499 . S
C2523 C2524 1.373 . S
C2523 C2525 1.389 . S
C2524 H2497 0.950 . S
C2524 C2510 1.377 . S
C2524 C2523 1.373 . S
C2525 C2509 1.377 . S
C2525 C2523 1.389 . S
C2525 C2526 1.524 . S
C2526 C2525 1.524 . S
C2526 C2527 1.397 . S
C2526 C2531 1.363 . S
C2527 H2498 0.950 . S
C2527 C2526 1.397 . S
C2527 C2528 1.334 . S
C2528 H2499 0.950 . S
C2528 C2527 1.334 . S
C2528 C2529 1.287 . S
C2529 C2528 1.287 . S
C2529 C2530 1.524 . S
C2529 H2532 0.999 . S
C2530 H2500 0.950 . S
C2530 C2529 1.524 . S
C2530 C2531 1.415 . S
C2531 H2501 0.950 . S
C2531 C2526 1.363 . S
C2531 C2530 1.415 . S
H2532 C2529 0.999 . S
H2533 C2514 0.913 . S
H2534 C2552 0.951 . S
H2535 C2554 0.951 . S
H2536 C2556 0.950 . S
H2537 C2557 0.950 . S
H2538 C2559 0.950 . S
H2539 C2562 0.950 . S
H2540 C2563 0.950 . S
H2541 C2565 0.950 . S
H2542 C2566 0.950 . S
H2543 C2567 0.951 . S
H2544 C2569 0.951 . S
H2545 C2571 0.950 . S
H2546 C2572 0.950 . S
H2547 C2574 0.950 . S
H2548 C2577 0.950 . S
H2549 C2578 0.950 . S
H2550 C2580 0.950 . S
H2551 C2581 0.950 . S
C2552 H2534 0.951 . S
C2552 C2553 1.366 . S
C2552 C2554 1.388 . S
C2553 C2552 1.366 . S
C2553 C2557 1.385 . S
C2554 H2535 0.951 . S
C2554 C2552 1.388 . S
C2554 C2555 1.366 . S
C2555 C2554 1.366 . S
C2555 C2556 1.414 . S
C2555 C2558 1.499 . S
C2556 H2536 0.950 . S
C2556 C2555 1.414 . S
C2556 C2557 1.374 . S
C2557 H2537 0.950 . S
C2557 C2553 1.385 . S
C2557 C2556 1.374 . S
C2558 C2555 1.499 . S
C2558 C2559 1.373 . S
C2558 C2560 1.389 . S
C2559 H2538 0.950 . S
C2559 C2558 1.373 . S
C2559 C2575 1.377 . S
C2560 C2558 1.389 . S
C2560 C2561 1.524 . S
C2560 C2574 1.377 . S
C2561 C2560 1.524 . S
C2561 C2562 1.397 . S
C2561 C2566 1.363 . S
C2562 H2539 0.950 . S
C2562 C2561 1.397 . S
C2562 C2563 1.334 . S
C2563 H2540 0.950 . S
C2563 C2562 1.334 . S
C2563 C2564 1.287 . S
C2564 C2563 1.287 . S
C2564 C2565 1.524 . S
C2564 H2583 0.913 . S
C2565 H2541 0.950 . S
C2565 C2564 1.524 . S
C2565 C2566 1.415 . S
C2566 H2542 0.950 . S
C2566 C2561 1.363 . S
C2566 C2565 1.415 . S
C2567 H2543 0.951 . S
C2567 C2568 1.366 . S
C2567 C2569 1.388 . S
C2568 C2567 1.366 . S
C2568 C2572 1.385 . S
C2569 H2544 0.951 . S
C2569 C2567 1.388 . S
C2569 C2570 1.366 . S
C2570 C2569 1.366 . S
C2570 C2571 1.414 . S
C2570 C2573 1.499 . S
C2571 H2545 0.950 . S
C2571 C2570 1.414 . S
C2571 C2572 1.374 . S
C2572 H2546 0.950 . S
C2572 C2568 1.385 . S
C2572 C2571 1.374 . S
C2573 C2570 1.499 . S
C2573 C2574 1.373 . S
C2573 C2575 1.389 . S
C2574 H2547 0.950 . S
C2574 C2560 1.377 . S
C2574 C2573 1.373 . S
C2575 C2559 1.377 . S
C2575 C2573 1.389 . S
C2575 C2576 1.524 . S
C2576 C2575 1.524 . S
C2576 C2577 1.397 . S
C2576 C2581 1.363 . S
C2577 H2548 0.950 . S
C2577 C2576 1.397 . S
C2577 C2578 1.334 . S
C2578 H2549 0.950 . S
C2578 C2577 1.334 . S
C2578 C2579 1.287 . S
C2579 C2578 1.287 . S
C2579 C2580 1.524 . S
C2579 H2582 0.999 . S
C2580 H2550 0.950 . S
C2580 C2579 1.524 . S
C2580 C2581 1.415 . S
C2581 H2551 0.950 . S
C2581 C2576 1.363 . S
C2581 C2580 1.415 . S
H2582 C2579 0.999 . S
H2583 C2564 0.913 . S
H2584 C2602 0.951 . S
H2585 C2604 0.951 . S
H2586 C2606 0.950 . S
H2587 C2607 0.950 . S
H2588 C2609 0.950 . S
H2589 C2612 0.950 . S
H2590 C2613 0.950 . S
H2591 C2615 0.950 . S
H2592 C2616 0.950 . S
H2593 C2617 0.951 . S
H2594 C2619 0.951 . S
H2595 C2621 0.950 . S
H2596 C2622 0.950 . S
H2597 C2624 0.950 . S
H2598 C2627 0.950 . S
H2599 C2628 0.950 . S
H2600 C2630 0.950 . S
H2601 C2631 0.950 . S
C2602 H2584 0.951 . S
C2602 C2603 1.366 . S
C2602 C2604 1.388 . S
C2603 C2602 1.366 . S
C2603 C2607 1.385 . S
C2604 H2585 0.951 . S
C2604 C2602 1.388 . S
C2604 C2605 1.366 . S
C2605 C2604 1.366 . S
C2605 C2606 1.414 . S
C2605 C2608 1.499 . S
C2606 H2586 0.950 . S
C2606 C2605 1.414 . S
C2606 C2607 1.374 . S
C2607 H2587 0.950 . S
C2607 C2603 1.385 . S
C2607 C2606 1.374 . S
C2608 C2605 1.499 . S
C2608 C2609 1.373 . S
C2608 C2610 1.389 . S
C2609 H2588 0.950 . S
C2609 C2608 1.373 . S
C2609 C2625 1.377 . S
C2610 C2608 1.389 . S
C2610 C2611 1.524 . S
C2610 C2624 1.377 . S
C2611 C2610 1.524 . S
C2611 C2612 1.397 . S
C2611 C2616 1.363 . S
C2612 H2589 0.950 . S
C2612 C2611 1.397 . S
C2612 C2613 1.334 . S
C2613 H2590 0.950 . S
C2613 C2612 1.334 . S
C2613 C2614 1.287 . S
C2614 C2613 1.287 . S
C2614 C2615 1.524 . S
C2614 H2633 0.913 . S
C2615 H2591 0.950 . S
C2615 C2614 1.524 . S
C2615 C2616 1.415 . S
C2616 H2592 0.950 . S
C2616 C2611 1.363 . S
C2616 C2615 1.415 . S
C2617 H2593 0.951 . S
C2617 C2618 1.366 . S
C2617 C2619 1.388 . S
C2618 C2617 1.366 . S
C2618 C2622 1.385 . S
C2619 H2594 0.951 . S
C2619 C2617 1.388 . S
C2619 C2620 1.366 . S
C2620 C2619 1.366 . S
C2620 C2621 1.414 . S
C2620 C2623 1.499 . S
C2621 H2595 0.950 . S
C2621 C2620 1.414 . S
C2621 C2622 1.374 . S
C2622 H2596 0.950 . S
C2622 C2618 1.385 . S
C2622 C2621 1.374 . S
C2623 C2620 1.499 . S
C2623 C2624 1.373 . S
C2623 C2625 1.389 . S
C2624 H2597 0.950 . S
C2624 C2610 1.377 . S
C2624 C2623 1.373 . S
C2625 C2609 1.377 . S
C2625 C2623 1.389 . S
C2625 C2626 1.524 . S
C2626 C2625 1.524 . S
C2626 C2627 1.397 . S
C2626 C2631 1.363 . S
C2627 H2598 0.950 . S
C2627 C2626 1.397 . S
C2627 C2628 1.334 . S
C2628 H2599 0.950 . S
C2628 C2627 1.334 . S
C2628 C2629 1.287 . S
C2629 C2628 1.287 . S
C2629 C2630 1.524 . S
C2629 H2632 0.999 . S
C2630 H2600 0.950 . S
C2630 C2629 1.524 . S
C2630 C2631 1.415 . S
C2631 H2601 0.950 . S
C2631 C2626 1.363 . S
C2631 C2630 1.415 . S
H2632 C2629 0.999 . S
H2633 C2614 0.913 . S
H2634 C2652 0.951 . S
H2635 C2654 0.951 . S
H2636 C2656 0.950 . S
H2637 C2657 0.950 . S
H2638 C2659 0.950 . S
H2639 C2662 0.950 . S
H2640 C2663 0.950 . S
H2641 C2665 0.950 . S
H2642 C2666 0.950 . S
H2643 C2667 0.951 . S
H2644 C2669 0.951 . S
H2645 C2671 0.950 . S
H2646 C2672 0.950 . S
H2647 C2674 0.950 . S
H2648 C2677 0.950 . S
H2649 C2678 0.950 . S
H2650 C2680 0.950 . S
H2651 C2681 0.950 . S
C2652 H2634 0.951 . S
C2652 C2653 1.366 . S
C2652 C2654 1.388 . S
C2653 C2652 1.366 . S
C2653 C2657 1.385 . S
C2654 H2635 0.951 . S
C2654 C2652 1.388 . S
C2654 C2655 1.366 . S
C2655 C2654 1.366 . S
C2655 C2656 1.414 . S
C2655 C2658 1.499 . S
C2656 H2636 0.950 . S
C2656 C2655 1.414 . S
C2656 C2657 1.374 . S
C2657 H2637 0.950 . S
C2657 C2653 1.385 . S
C2657 C2656 1.374 . S
C2658 C2655 1.499 . S
C2658 C2659 1.373 . S
C2658 C2660 1.389 . S
C2659 H2638 0.950 . S
C2659 C2658 1.373 . S
C2659 C2675 1.377 . S
C2660 C2658 1.389 . S
C2660 C2661 1.524 . S
C2660 C2674 1.377 . S
C2661 C2660 1.524 . S
C2661 C2662 1.397 . S
C2661 C2666 1.363 . S
C2662 H2639 0.950 . S
C2662 C2661 1.397 . S
C2662 C2663 1.334 . S
C2663 H2640 0.950 . S
C2663 C2662 1.334 . S
C2663 C2664 1.287 . S
C2664 C2663 1.287 . S
C2664 C2665 1.524 . S
C2664 H2683 0.913 . S
C2665 H2641 0.950 . S
C2665 C2664 1.524 . S
C2665 C2666 1.415 . S
C2666 H2642 0.950 . S
C2666 C2661 1.363 . S
C2666 C2665 1.415 . S
C2667 H2643 0.951 . S
C2667 C2668 1.366 . S
C2667 C2669 1.388 . S
C2668 C2667 1.366 . S
C2668 C2672 1.385 . S
C2669 H2644 0.951 . S
C2669 C2667 1.388 . S
C2669 C2670 1.366 . S
C2670 C2669 1.366 . S
C2670 C2671 1.414 . S
C2670 C2673 1.499 . S
C2671 H2645 0.950 . S
C2671 C2670 1.414 . S
C2671 C2672 1.374 . S
C2672 H2646 0.950 . S
C2672 C2668 1.385 . S
C2672 C2671 1.374 . S
C2673 C2670 1.499 . S
C2673 C2674 1.373 . S
C2673 C2675 1.389 . S
C2674 H2647 0.950 . S
C2674 C2660 1.377 . S
C2674 C2673 1.373 . S
C2675 C2659 1.377 . S
C2675 C2673 1.389 . S
C2675 C2676 1.524 . S
C2676 C2675 1.524 . S
C2676 C2677 1.397 . S
C2676 C2681 1.363 . S
C2677 H2648 0.950 . S
C2677 C2676 1.397 . S
C2677 C2678 1.334 . S
C2678 H2649 0.950 . S
C2678 C2677 1.334 . S
C2678 C2679 1.287 . S
C2679 C2678 1.287 . S
C2679 C2680 1.524 . S
C2679 H2682 0.999 . S
C2680 H2650 0.950 . S
C2680 C2679 1.524 . S
C2680 C2681 1.415 . S
C2681 H2651 0.950 . S
C2681 C2676 1.363 . S
C2681 C2680 1.415 . S
H2682 C2679 0.999 . S
H2683 C2664 0.913 . S
H2684 C2702 0.951 . S
H2685 C2704 0.951 . S
H2686 C2706 0.950 . S
H2687 C2707 0.950 . S
H2688 C2709 0.950 . S
H2689 C2712 0.950 . S
H2690 C2713 0.950 . S
H2691 C2715 0.950 . S
H2692 C2716 0.950 . S
H2693 C2717 0.951 . S
H2694 C2719 0.951 . S
H2695 C2721 0.950 . S
H2696 C2722 0.950 . S
H2697 C2724 0.950 . S
H2698 C2727 0.950 . S
H2699 C2728 0.950 . S
H2700 C2730 0.950 . S
H2701 C2731 0.950 . S
C2702 H2684 0.951 . S
C2702 C2703 1.366 . S
C2702 C2704 1.388 . S
C2703 C2702 1.366 . S
C2703 C2707 1.385 . S
C2704 H2685 0.951 . S
C2704 C2702 1.388 . S
C2704 C2705 1.366 . S
C2705 C2704 1.366 . S
C2705 C2706 1.414 . S
C2705 C2708 1.499 . S
C2706 H2686 0.950 . S
C2706 C2705 1.414 . S
C2706 C2707 1.374 . S
C2707 H2687 0.950 . S
C2707 C2703 1.385 . S
C2707 C2706 1.374 . S
C2708 C2705 1.499 . S
C2708 C2709 1.373 . S
C2708 C2710 1.389 . S
C2709 H2688 0.950 . S
C2709 C2708 1.373 . S
C2709 C2725 1.377 . S
C2710 C2708 1.389 . S
C2710 C2711 1.524 . S
C2710 C2724 1.377 . S
C2711 C2710 1.524 . S
C2711 C2712 1.397 . S
C2711 C2716 1.363 . S
C2712 H2689 0.950 . S
C2712 C2711 1.397 . S
C2712 C2713 1.334 . S
C2713 H2690 0.950 . S
C2713 C2712 1.334 . S
C2713 C2714 1.287 . S
C2714 C2713 1.287 . S
C2714 C2715 1.524 . S
C2714 H2733 0.913 . S
C2715 H2691 0.950 . S
C2715 C2714 1.524 . S
C2715 C2716 1.415 . S
C2716 H2692 0.950 . S
C2716 C2711 1.363 . S
C2716 C2715 1.415 . S
C2717 H2693 0.951 . S
C2717 C2718 1.366 . S
C2717 C2719 1.388 . S
C2718 C2717 1.366 . S
C2718 C2722 1.385 . S
C2719 H2694 0.951 . S
C2719 C2717 1.388 . S
C2719 C2720 1.366 . S
C2720 C2719 1.366 . S
C2720 C2721 1.414 . S
C2720 C2723 1.499 . S
C2721 H2695 0.950 . S
C2721 C2720 1.414 . S
C2721 C2722 1.374 . S
C2722 H2696 0.950 . S
C2722 C2718 1.385 . S
C2722 C2721 1.374 . S
C2723 C2720 1.499 . S
C2723 C2724 1.373 . S
C2723 C2725 1.389 . S
C2724 H2697 0.950 . S
C2724 C2710 1.377 . S
C2724 C2723 1.373 . S
C2725 C2709 1.377 . S
C2725 C2723 1.389 . S
C2725 C2726 1.524 . S
C2726 C2725 1.524 . S
C2726 C2727 1.397 . S
C2726 C2731 1.363 . S
C2727 H2698 0.950 . S
C2727 C2726 1.397 . S
C2727 C2728 1.334 . S
C2728 H2699 0.950 . S
C2728 C2727 1.334 . S
C2728 C2729 1.287 . S
C2729 C2728 1.287 . S
C2729 C2730 1.524 . S
C2729 H2732 0.999 . S
C2730 H2700 0.950 . S
C2730 C2729 1.524 . S
C2730 C2731 1.415 . S
C2731 H2701 0.950 . S
C2731 C2726 1.363 . S
C2731 C2730 1.415 . S
H2732 C2729 0.999 . S
H2733 C2714 0.913 . S
H2734 C2752 0.951 . S
H2735 C2754 0.951 . S
H2736 C2756 0.950 . S
H2737 C2757 0.950 . S
H2738 C2759 0.950 . S
H2739 C2762 0.950 . S
H2740 C2763 0.950 . S
H2741 C2765 0.950 . S
H2742 C2766 0.950 . S
H2743 C2767 0.951 . S
H2744 C2769 0.951 . S
H2745 C2771 0.950 . S
H2746 C2772 0.950 . S
H2747 C2774 0.950 . S
H2748 C2777 0.950 . S
H2749 C2778 0.950 . S
H2750 C2780 0.950 . S
H2751 C2781 0.950 . S
C2752 H2734 0.951 . S
C2752 C2753 1.366 . S
C2752 C2754 1.388 . S
C2753 C2752 1.366 . S
C2753 C2757 1.385 . S
C2754 H2735 0.951 . S
C2754 C2752 1.388 . S
C2754 C2755 1.366 . S
C2755 C2754 1.366 . S
C2755 C2756 1.414 . S
C2755 C2758 1.499 . S
C2756 H2736 0.950 . S
C2756 C2755 1.414 . S
C2756 C2757 1.374 . S
C2757 H2737 0.950 . S
C2757 C2753 1.385 . S
C2757 C2756 1.374 . S
C2758 C2755 1.499 . S
C2758 C2759 1.373 . S
C2758 C2760 1.389 . S
C2759 H2738 0.950 . S
C2759 C2758 1.373 . S
C2759 C2775 1.377 . S
C2760 C2758 1.389 . S
C2760 C2761 1.524 . S
C2760 C2774 1.377 . S
C2761 C2760 1.524 . S
C2761 C2762 1.397 . S
C2761 C2766 1.363 . S
C2762 H2739 0.950 . S
C2762 C2761 1.397 . S
C2762 C2763 1.334 . S
C2763 H2740 0.950 . S
C2763 C2762 1.334 . S
C2763 C2764 1.287 . S
C2764 C2763 1.287 . S
C2764 C2765 1.524 . S
C2764 H2783 0.913 . S
C2765 H2741 0.950 . S
C2765 C2764 1.524 . S
C2765 C2766 1.415 . S
C2766 H2742 0.950 . S
C2766 C2761 1.363 . S
C2766 C2765 1.415 . S
C2767 H2743 0.951 . S
C2767 C2768 1.366 . S
C2767 C2769 1.388 . S
C2768 C2767 1.366 . S
C2768 C2772 1.385 . S
C2769 H2744 0.951 . S
C2769 C2767 1.388 . S
C2769 C2770 1.366 . S
C2770 C2769 1.366 . S
C2770 C2771 1.414 . S
C2770 C2773 1.499 . S
C2771 H2745 0.950 . S
C2771 C2770 1.414 . S
C2771 C2772 1.374 . S
C2772 H2746 0.950 . S
C2772 C2768 1.385 . S
C2772 C2771 1.374 . S
C2773 C2770 1.499 . S
C2773 C2774 1.373 . S
C2773 C2775 1.389 . S
C2774 H2747 0.950 . S
C2774 C2760 1.377 . S
C2774 C2773 1.373 . S
C2775 C2759 1.377 . S
C2775 C2773 1.389 . S
C2775 C2776 1.524 . S
C2776 C2775 1.524 . S
C2776 C2777 1.397 . S
C2776 C2781 1.363 . S
C2777 H2748 0.950 . S
C2777 C2776 1.397 . S
C2777 C2778 1.334 . S
C2778 H2749 0.950 . S
C2778 C2777 1.334 . S
C2778 C2779 1.287 . S
C2779 C2778 1.287 . S
C2779 C2780 1.524 . S
C2779 H2782 0.999 . S
C2780 H2750 0.950 . S
C2780 C2779 1.524 . S
C2780 C2781 1.415 . S
C2781 H2751 0.950 . S
C2781 C2776 1.363 . S
C2781 C2780 1.415 . S
H2782 C2779 0.999 . S
H2783 C2764 0.913 . S
H2784 C2802 0.951 . S
H2785 C2804 0.951 . S
H2786 C2806 0.950 . S
H2787 C2807 0.950 . S
H2788 C2809 0.950 . S
H2789 C2812 0.950 . S
H2790 C2813 0.950 . S
H2791 C2815 0.950 . S
H2792 C2816 0.950 . S
H2793 C2817 0.951 . S
H2794 C2819 0.951 . S
H2795 C2821 0.950 . S
H2796 C2822 0.950 . S
H2797 C2824 0.950 . S
H2798 C2827 0.950 . S
H2799 C2828 0.950 . S
H2800 C2830 0.950 . S
H2801 C2831 0.950 . S
C2802 H2784 0.951 . S
C2802 C2803 1.366 . S
C2802 C2804 1.388 . S
C2803 C2802 1.366 . S
C2803 C2807 1.385 . S
C2804 H2785 0.951 . S
C2804 C2802 1.388 . S
C2804 C2805 1.366 . S
C2805 C2804 1.366 . S
C2805 C2806 1.414 . S
C2805 C2808 1.499 . S
C2806 H2786 0.950 . S
C2806 C2805 1.414 . S
C2806 C2807 1.374 . S
C2807 H2787 0.950 . S
C2807 C2803 1.385 . S
C2807 C2806 1.374 . S
C2808 C2805 1.499 . S
C2808 C2809 1.373 . S
C2808 C2810 1.389 . S
C2809 H2788 0.950 . S
C2809 C2808 1.373 . S
C2809 C2825 1.377 . S
C2810 C2808 1.389 . S
C2810 C2811 1.524 . S
C2810 C2824 1.377 . S
C2811 C2810 1.524 . S
C2811 C2812 1.397 . S
C2811 C2816 1.363 . S
C2812 H2789 0.950 . S
C2812 C2811 1.397 . S
C2812 C2813 1.334 . S
C2813 H2790 0.950 . S
C2813 C2812 1.334 . S
C2813 C2814 1.287 . S
C2814 C2813 1.287 . S
C2814 C2815 1.524 . S
C2814 H2833 0.913 . S
C2815 H2791 0.950 . S
C2815 C2814 1.524 . S
C2815 C2816 1.415 . S
C2816 H2792 0.950 . S
C2816 C2811 1.363 . S
C2816 C2815 1.415 . S
C2817 H2793 0.951 . S
C2817 C2818 1.366 . S
C2817 C2819 1.388 . S
C2818 C2817 1.366 . S
C2818 C2822 1.385 . S
C2819 H2794 0.951 . S
C2819 C2817 1.388 . S
C2819 C2820 1.366 . S
C2820 C2819 1.366 . S
C2820 C2821 1.414 . S
C2820 C2823 1.499 . S
C2821 H2795 0.950 . S
C2821 C2820 1.414 . S
C2821 C2822 1.374 . S
C2822 H2796 0.950 . S
C2822 C2818 1.385 . S
C2822 C2821 1.374 . S
C2823 C2820 1.499 . S
C2823 C2824 1.373 . S
C2823 C2825 1.389 . S
C2824 H2797 0.950 . S
C2824 C2810 1.377 . S
C2824 C2823 1.373 . S
C2825 C2809 1.377 . S
C2825 C2823 1.389 . S
C2825 C2826 1.524 . S
C2826 C2825 1.524 . S
C2826 C2827 1.397 . S
C2826 C2831 1.363 . S
C2827 H2798 0.950 . S
C2827 C2826 1.397 . S
C2827 C2828 1.334 . S
C2828 H2799 0.950 . S
C2828 C2827 1.334 . S
C2828 C2829 1.287 . S
C2829 C2828 1.287 . S
C2829 C2830 1.524 . S
C2829 H2832 0.999 . S
C2830 H2800 0.950 . S
C2830 C2829 1.524 . S
C2830 C2831 1.415 . S
C2831 H2801 0.950 . S
C2831 C2826 1.363 . S
C2831 C2830 1.415 . S
H2832 C2829 0.999 . S
H2833 C2814 0.913 . S
H2834 C2852 0.951 . S
H2835 C2854 0.951 . S
H2836 C2856 0.950 . S
H2837 C2857 0.950 . S
H2838 C2859 0.950 . S
H2839 C2862 0.950 . S
H2840 C2863 0.950 . S
H2841 C2865 0.950 . S
H2842 C2866 0.950 . S
H2843 C2867 0.951 . S
H2844 C2869 0.951 . S
H2845 C2871 0.950 . S
H2846 C2872 0.950 . S
H2847 C2874 0.950 . S
H2848 C2877 0.950 . S
H2849 C2878 0.950 . S
H2850 C2880 0.950 . S
H2851 C2881 0.950 . S
C2852 H2834 0.951 . S
C2852 C2853 1.366 . S
C2852 C2854 1.388 . S
C2853 C2852 1.366 . S
C2853 C2857 1.385 . S
C2854 H2835 0.951 . S
C2854 C2852 1.388 . S
C2854 C2855 1.366 . S
C2855 C2854 1.366 . S
C2855 C2856 1.414 . S
C2855 C2858 1.499 . S
C2856 H2836 0.950 . S
C2856 C2855 1.414 . S
C2856 C2857 1.374 . S
C2857 H2837 0.950 . S
C2857 C2853 1.385 . S
C2857 C2856 1.374 . S
C2858 C2855 1.499 . S
C2858 C2859 1.373 . S
C2858 C2860 1.389 . S
C2859 H2838 0.950 . S
C2859 C2858 1.373 . S
C2859 C2875 1.377 . S
C2860 C2858 1.389 . S
C2860 C2861 1.524 . S
C2860 C2874 1.377 . S
C2861 C2860 1.524 . S
C2861 C2862 1.397 . S
C2861 C2866 1.363 . S
C2862 H2839 0.950 . S
C2862 C2861 1.397 . S
C2862 C2863 1.334 . S
C2863 H2840 0.950 . S
C2863 C2862 1.334 . S
C2863 C2864 1.287 . S
C2864 C2863 1.287 . S
C2864 C2865 1.524 . S
C2864 H2883 0.913 . S
C2865 H2841 0.950 . S
C2865 C2864 1.524 . S
C2865 C2866 1.415 . S
C2866 H2842 0.950 . S
C2866 C2861 1.363 . S
C2866 C2865 1.415 . S
C2867 H2843 0.951 . S
C2867 C2868 1.366 . S
C2867 C2869 1.388 . S
C2868 C2867 1.366 . S
C2868 C2872 1.385 . S
C2869 H2844 0.951 . S
C2869 C2867 1.388 . S
C2869 C2870 1.366 . S
C2870 C2869 1.366 . S
C2870 C2871 1.414 . S
C2870 C2873 1.499 . S
C2871 H2845 0.950 . S
C2871 C2870 1.414 . S
C2871 C2872 1.374 . S
C2872 H2846 0.950 . S
C2872 C2868 1.385 . S
C2872 C2871 1.374 . S
C2873 C2870 1.499 . S
C2873 C2874 1.373 . S
C2873 C2875 1.389 . S
C2874 H2847 0.950 . S
C2874 C2860 1.377 . S
C2874 C2873 1.373 . S
C2875 C2859 1.377 . S
C2875 C2873 1.389 . S
C2875 C2876 1.524 . S
C2876 C2875 1.524 . S
C2876 C2877 1.397 . S
C2876 C2881 1.363 . S
C2877 H2848 0.950 . S
C2877 C2876 1.397 . S
C2877 C2878 1.334 . S
C2878 H2849 0.950 . S
C2878 C2877 1.334 . S
C2878 C2879 1.287 . S
C2879 C2878 1.287 . S
C2879 C2880 1.524 . S
C2879 H2882 0.999 . S
C2880 H2850 0.950 . S
C2880 C2879 1.524 . S
C2880 C2881 1.415 . S
C2881 H2851 0.950 . S
C2881 C2876 1.363 . S
C2881 C2880 1.415 . S
H2882 C2879 0.999 . S
H2883 C2864 0.913 . S
H2884 C2902 0.951 . S
H2885 C2904 0.951 . S
H2886 C2906 0.950 . S
H2887 C2907 0.950 . S
H2888 C2909 0.950 . S
H2889 C2912 0.950 . S
H2890 C2913 0.950 . S
H2891 C2915 0.950 . S
H2892 C2916 0.950 . S
H2893 C2917 0.951 . S
H2894 C2919 0.951 . S
H2895 C2921 0.950 . S
H2896 C2922 0.950 . S
H2897 C2924 0.950 . S
H2898 C2927 0.950 . S
H2899 C2928 0.950 . S
H2900 C2930 0.950 . S
H2901 C2931 0.950 . S
C2902 H2884 0.951 . S
C2902 C2903 1.366 . S
C2902 C2904 1.388 . S
C2903 C2902 1.366 . S
C2903 C2907 1.385 . S
C2904 H2885 0.951 . S
C2904 C2902 1.388 . S
C2904 C2905 1.366 . S
C2905 C2904 1.366 . S
C2905 C2906 1.414 . S
C2905 C2908 1.499 . S
C2906 H2886 0.950 . S
C2906 C2905 1.414 . S
C2906 C2907 1.374 . S
C2907 H2887 0.950 . S
C2907 C2903 1.385 . S
C2907 C2906 1.374 . S
C2908 C2905 1.499 . S
C2908 C2909 1.373 . S
C2908 C2910 1.389 . S
C2909 H2888 0.950 . S
C2909 C2908 1.373 . S
C2909 C2925 1.377 . S
C2910 C2908 1.389 . S
C2910 C2911 1.524 . S
C2910 C2924 1.377 . S
C2911 C2910 1.524 . S
C2911 C2912 1.397 . S
C2911 C2916 1.363 . S
C2912 H2889 0.950 . S
C2912 C2911 1.397 . S
C2912 C2913 1.334 . S
C2913 H2890 0.950 . S
C2913 C2912 1.334 . S
C2913 C2914 1.287 . S
C2914 C2913 1.287 . S
C2914 C2915 1.524 . S
C2914 H2933 0.913 . S
C2915 H2891 0.950 . S
C2915 C2914 1.524 . S
C2915 C2916 1.415 . S
C2916 H2892 0.950 . S
C2916 C2911 1.363 . S
C2916 C2915 1.415 . S
C2917 H2893 0.951 . S
C2917 C2918 1.366 . S
C2917 C2919 1.388 . S
C2918 C2917 1.366 . S
C2918 C2922 1.385 . S
C2919 H2894 0.951 . S
C2919 C2917 1.388 . S
C2919 C2920 1.366 . S
C2920 C2919 1.366 . S
C2920 C2921 1.414 . S
C2920 C2923 1.499 . S
C2921 H2895 0.950 . S
C2921 C2920 1.414 . S
C2921 C2922 1.374 . S
C2922 H2896 0.950 . S
C2922 C2918 1.385 . S
C2922 C2921 1.374 . S
C2923 C2920 1.499 . S
C2923 C2924 1.373 . S
C2923 C2925 1.389 . S
C2924 H2897 0.950 . S
C2924 C2910 1.377 . S
C2924 C2923 1.373 . S
C2925 C2909 1.377 . S
C2925 C2923 1.389 . S
C2925 C2926 1.524 . S
C2926 C2925 1.524 . S
C2926 C2927 1.397 . S
C2926 C2931 1.363 . S
C2927 H2898 0.950 . S
C2927 C2926 1.397 . S
C2927 C2928 1.334 . S
C2928 H2899 0.950 . S
C2928 C2927 1.334 . S
C2928 C2929 1.287 . S
C2929 C2928 1.287 . S
C2929 C2930 1.524 . S
C2929 H2932 0.999 . S
C2930 H2900 0.950 . S
C2930 C2929 1.524 . S
C2930 C2931 1.415 . S
C2931 H2901 0.950 . S
C2931 C2926 1.363 . S
C2931 C2930 1.415 . S
H2932 C2929 0.999 . S
H2933 C2914 0.913 . S
H2934 C2952 0.951 . S
H2935 C2954 0.951 . S
H2936 C2956 0.950 . S
H2937 C2957 0.950 . S
H2938 C2959 0.950 . S
H2939 C2962 0.950 . S
H2940 C2963 0.950 . S
H2941 C2965 0.950 . S
H2942 C2966 0.950 . S
H2943 C2967 0.951 . S
H2944 C2969 0.951 . S
H2945 C2971 0.950 . S
H2946 C2972 0.950 . S
H2947 C2974 0.950 . S
H2948 C2977 0.950 . S
H2949 C2978 0.950 . S
H2950 C2980 0.950 . S
H2951 C2981 0.950 . S
C2952 H2934 0.951 . S
C2952 C2953 1.366 . S
C2952 C2954 1.388 . S
C2953 C2952 1.366 . S
C2953 C2957 1.385 . S
C2954 H2935 0.951 . S
C2954 C2952 1.388 . S
C2954 C2955 1.366 . S
C2955 C2954 1.366 . S
C2955 C2956 1.414 . S
C2955 C2958 1.499 . S
C2956 H2936 0.950 . S
C2956 C2955 1.414 . S
C2956 C2957 1.374 . S
C2957 H2937 0.950 . S
C2957 C2953 1.385 . S
C2957 C2956 1.374 . S
C2958 C2955 1.499 . S
C2958 C2959 1.373 . S
C2958 C2960 1.389 . S
C2959 H2938 0.950 . S
C2959 C2958 1.373 . S
C2959 C2975 1.377 1_554 S
C2960 C2958 1.389 . S
C2960 C2961 1.524 . S
C2960 C2974 1.377 1_554 S
C2961 C2960 1.524 . S
C2961 C2962 1.397 . S
C2961 C2966 1.363 . S
C2962 H2939 0.950 . S
C2962 C2961 1.397 . S
C2962 C2963 1.334 . S
C2963 H2940 0.950 . S
C2963 C2962 1.334 . S
C2963 C2964 1.287 . S
C2964 C2963 1.287 . S
C2964 C2965 1.524 . S
C2964 H2983 0.913 . S
C2965 H2941 0.950 . S
C2965 C2964 1.524 . S
C2965 C2966 1.415 . S
C2966 H2942 0.950 . S
C2966 C2961 1.363 . S
C2966 C2965 1.415 . S
C2967 H2943 0.951 . S
C2967 C2968 1.366 . S
C2967 C2969 1.388 . S
C2968 C2967 1.366 . S
C2968 C2972 1.385 . S
C2969 H2944 0.951 . S
C2969 C2967 1.388 . S
C2969 C2970 1.366 . S
C2970 C2969 1.366 . S
C2970 C2971 1.414 . S
C2970 C2973 1.499 . S
C2971 H2945 0.950 . S
C2971 C2970 1.414 . S
C2971 C2972 1.374 . S
C2972 H2946 0.950 . S
C2972 C2968 1.385 . S
C2972 C2971 1.374 . S
C2973 C2970 1.499 . S
C2973 C2974 1.373 . S
C2973 C2975 1.389 . S
C2974 H2947 0.950 . S
C2974 C2960 1.377 1_556 S
C2974 C2973 1.373 . S
C2975 C2959 1.377 1_556 S
C2975 C2973 1.389 . S
C2975 C2976 1.524 . S
C2976 C2975 1.524 . S
C2976 C2977 1.397 . S
C2976 C2981 1.363 . S
C2977 H2948 0.950 . S
C2977 C2976 1.397 . S
C2977 C2978 1.334 . S
C2978 H2949 0.950 . S
C2978 C2977 1.334 . S
C2978 C2979 1.287 . S
C2979 C2978 1.287 . S
C2979 C2980 1.524 . S
C2979 H2982 0.999 . S
C2980 H2950 0.950 . S
C2980 C2979 1.524 . S
C2980 C2981 1.415 . S
C2981 H2951 0.950 . S
C2981 C2976 1.363 . S
C2981 C2980 1.415 . S
H2982 C2979 0.999 . S
H2983 C2964 0.913 . S
H2984 C3002 0.951 . S
H2985 C3004 0.951 . S
H2986 C3006 0.950 . S
H2987 C3007 0.950 . S
H2988 C3009 0.950 . S
H2989 C3012 0.950 . S
H2990 C3013 0.950 . S
H2991 C3015 0.950 . S
H2992 C3016 0.950 . S
H2993 C3017 0.951 . S
H2994 C3019 0.951 . S
H2995 C3021 0.950 . S
H2996 C3022 0.950 . S
H2997 C3024 0.950 . S
H2998 C3027 0.950 . S
H2999 C3028 0.950 . S
H3000 C3030 0.950 . S
H3001 C3031 0.950 . S
C3002 H2984 0.951 . S
C3002 C3003 1.366 1_565 S
C3002 C3004 1.388 . S
C3003 C3002 1.366 1_545 S
C3003 C3007 1.385 . S
C3004 H2985 0.951 . S
C3004 C3002 1.388 . S
C3004 C3005 1.366 1_565 S
C3005 C3004 1.366 1_545 S
C3005 C3006 1.414 . S
C3005 C3008 1.499 . S
C3006 H2986 0.950 . S
C3006 C3005 1.414 . S
C3006 C3007 1.374 . S
C3007 H2987 0.950 . S
C3007 C3003 1.385 . S
C3007 C3006 1.374 . S
C3008 C3005 1.499 . S
C3008 C3009 1.379 . S
C3008 C3010 1.383 1_545 S
C3009 H2988 0.950 . S
C3009 C3008 1.379 . S
C3009 C3025 1.377 1_556 S
C3010 C3008 1.383 1_565 S
C3010 C3011 1.524 . S
C3010 C3024 1.377 1_556 S
C3011 C3010 1.524 . S
C3011 C3012 1.397 . S
C3011 C3016 1.363 . S
C3012 H2989 0.950 . S
C3012 C3011 1.397 . S
C3012 C3013 1.334 . S
C3013 H2990 0.950 . S
C3013 C3012 1.334 . S
C3013 C3014 1.287 . S
C3014 C3013 1.287 . S
C3014 C3015 1.524 . S
C3014 H3033 0.913 . S
C3015 H2991 0.950 . S
C3015 C3014 1.524 . S
C3015 C3016 1.415 . S
C3016 H2992 0.950 . S
C3016 C3011 1.363 . S
C3016 C3015 1.415 . S
C3017 H2993 0.951 . S
C3017 C3018 1.366 1_545 S
C3017 C3019 1.388 . S
C3018 C3017 1.366 1_565 S
C3018 C3022 1.385 . S
C3019 H2994 0.951 . S
C3019 C3017 1.388 . S
C3019 C3020 1.366 1_545 S
C3020 C3019 1.366 1_565 S
C3020 C3021 1.414 . S
C3020 C3023 1.499 . S
C3021 H2995 0.950 . S
C3021 C3020 1.414 . S
C3021 C3022 1.374 . S
C3022 H2996 0.950 . S
C3022 C3018 1.385 . S
C3022 C3021 1.374 . S
C3023 C3020 1.499 . S
C3023 C3024 1.400 . S
C3023 C3025 1.362 1_565 S
C3024 H2997 0.950 . S
C3024 C3010 1.377 1_554 S
C3024 C3023 1.400 . S
C3025 C3009 1.377 1_554 S
C3025 C3023 1.362 1_545 S
C3025 C3026 1.524 . S
C3026 C3025 1.524 . S
C3026 C3027 1.397 . S
C3026 C3031 1.363 . S
C3027 H2998 0.950 . S
C3027 C3026 1.397 . S
C3027 C3028 1.334 . S
C3028 H2999 0.950 . S
C3028 C3027 1.334 . S
C3028 C3029 1.287 . S
C3029 C3028 1.287 . S
C3029 C3030 1.524 . S
C3029 H3032 0.999 . S
C3030 H3000 0.950 . S
C3030 C3029 1.524 . S
C3030 C3031 1.415 . S
C3031 H3001 0.950 . S
C3031 C3026 1.363 . S
C3031 C3030 1.415 . S
H3032 C3029 0.999 . S
H3033 C3014 0.913 . S
H3034 C3052 0.951 . S
H3035 C3054 0.951 . S
H3036 C3056 0.950 . S
H3037 C3057 0.950 . S
H3038 C3059 0.950 . S
H3039 C3062 0.950 . S
H3040 C3063 0.950 . S
H3041 C3065 0.950 . S
H3042 C3066 0.950 1_554 S
H3043 C3067 0.951 . S
H3044 C3069 0.951 . S
H3045 C3071 0.950 . S
H3046 C3072 0.950 . S
H3047 C3074 0.950 . S
H3048 C3077 0.950 . S
H3049 C3078 0.950 . S
H3050 C3080 0.950 . S
H3051 C3081 0.950 . S
C3052 H3034 0.951 . S
C3052 C3053 1.366 . S
C3052 C3054 1.388 . S
C3053 C3052 1.366 . S
C3053 C3057 1.385 1_655 S
C3054 H3035 0.951 . S
C3054 C3052 1.388 . S
C3054 C3055 1.366 . S
C3055 C3054 1.366 . S
C3055 C3056 1.414 1_655 S
C3055 C3058 1.499 . S
C3056 H3036 0.950 . S
C3056 C3055 1.414 1_455 S
C3056 C3057 1.374 . S
C3057 H3037 0.950 . S
C3057 C3053 1.385 1_455 S
C3057 C3056 1.374 . S
C3058 C3055 1.499 . S
C3058 C3059 1.373 1_655 S
C3058 C3060 1.389 . S
C3059 H3038 0.950 . S
C3059 C3058 1.373 1_455 S
C3059 C3075 1.377 1_556 S
C3060 C3058 1.389 . S
C3060 C3061 1.524 . S
C3060 C3074 1.377 1_556 S
C3061 C3060 1.524 . S
C3061 C3062 1.397 . S
C3061 C3066 1.363 . S
C3062 H3039 0.950 . S
C3062 C3061 1.397 . S
C3062 C3063 1.334 . S
C3063 H3040 0.950 . S
C3063 C3062 1.334 . S
C3063 C3064 1.287 . S
C3064 C3063 1.287 . S
C3064 C3065 1.524 . S
C3064 H3083 0.913 . S
C3065 H3041 0.950 . S
C3065 C3064 1.524 . S
C3065 C3066 1.415 . S
C3066 H3042 0.950 1_556 S
C3066 C3061 1.363 . S
C3066 C3065 1.415 . S
C3067 H3043 0.951 . S
C3067 C3068 1.366 . S
C3067 C3069 1.388 . S
C3068 C3067 1.366 . S
C3068 C3072 1.385 1_455 S
C3069 H3044 0.951 . S
C3069 C3067 1.388 . S
C3069 C3070 1.366 . S
C3070 C3069 1.366 . S
C3070 C3071 1.414 1_455 S
C3070 C3073 1.499 . S
C3071 H3045 0.950 . S
C3071 C3070 1.414 1_655 S
C3071 C3072 1.374 . S
C3072 H3046 0.950 . S
C3072 C3068 1.385 1_655 S
C3072 C3071 1.374 . S
C3073 C3070 1.499 . S
C3073 C3074 1.373 1_455 S
C3073 C3075 1.389 . S
C3074 H3047 0.950 . S
C3074 C3060 1.377 1_554 S
C3074 C3073 1.373 1_655 S
C3075 C3059 1.377 1_554 S
C3075 C3073 1.389 . S
C3075 C3076 1.524 . S
C3076 C3075 1.524 . S
C3076 C3077 1.397 . S
C3076 C3081 1.363 . S
C3077 H3048 0.950 . S
C3077 C3076 1.397 . S
C3077 C3078 1.334 . S
C3078 H3049 0.950 . S
C3078 C3077 1.334 . S
C3078 C3079 1.287 . S
C3079 C3078 1.287 . S
C3079 C3080 1.524 . S
C3079 H3082 0.999 . S
C3080 H3050 0.950 . S
C3080 C3079 1.524 . S
C3080 C3081 1.415 . S
C3081 H3051 0.950 . S
C3081 C3076 1.363 . S
C3081 C3080 1.415 . S
H3082 C3079 0.999 . S
H3083 C3064 0.913 . S
H3084 C3102 0.951 . S
H3085 C3104 0.951 . S
H3086 C3106 0.950 . S
H3087 C3107 0.950 . S
H3088 C3109 0.950 . S
H3089 C3112 0.950 . S
H3090 C3113 0.950 . S
H3091 C3115 0.950 . S
H3092 C3116 0.950 . S
H3093 C3117 0.951 . S
H3094 C3119 0.951 . S
H3095 C3121 0.950 . S
H3096 C3122 0.950 . S
H3097 C3124 0.950 . S
H3098 C3127 0.950 . S
H3099 C3128 0.950 . S
H3100 C3130 0.950 . S
H3101 C3131 0.950 . S
C3102 H3084 0.951 . S
C3102 C3103 1.366 . S
C3102 C3104 1.388 . S
C3103 C3102 1.366 . S
C3103 C3107 1.385 . S
C3104 H3085 0.951 . S
C3104 C3102 1.388 . S
C3104 C3105 1.366 . S
C3105 C3104 1.366 . S
C3105 C3106 1.414 . S
C3105 C3108 1.499 . S
C3106 H3086 0.950 . S
C3106 C3105 1.414 . S
C3106 C3107 1.374 . S
C3107 H3087 0.950 . S
C3107 C3103 1.385 . S
C3107 C3106 1.374 . S
C3108 C3105 1.499 . S
C3108 C3109 1.373 . S
C3108 C3110 1.389 . S
C3109 H3088 0.950 . S
C3109 C3108 1.373 . S
C3109 C3125 1.377 . S
C3110 C3108 1.389 . S
C3110 C3111 1.524 . S
C3110 C3124 1.377 . S
C3111 C3110 1.524 . S
C3111 C3112 1.397 . S
C3111 C3116 1.363 . S
C3112 H3089 0.950 . S
C3112 C3111 1.397 . S
C3112 C3113 1.334 . S
C3113 H3090 0.950 . S
C3113 C3112 1.334 . S
C3113 C3114 1.287 . S
C3114 C3113 1.287 . S
C3114 C3115 1.524 . S
C3114 H3133 0.913 . S
C3115 H3091 0.950 . S
C3115 C3114 1.524 . S
C3115 C3116 1.415 . S
C3116 H3092 0.950 . S
C3116 C3111 1.363 . S
C3116 C3115 1.415 . S
C3117 H3093 0.951 . S
C3117 C3118 1.366 . S
C3117 C3119 1.388 . S
C3118 C3117 1.366 . S
C3118 C3122 1.385 . S
C3119 H3094 0.951 . S
C3119 C3117 1.388 . S
C3119 C3120 1.366 . S
C3120 C3119 1.366 . S
C3120 C3121 1.414 . S
C3120 C3123 1.499 . S
C3121 H3095 0.950 . S
C3121 C3120 1.414 . S
C3121 C3122 1.374 . S
C3122 H3096 0.950 . S
C3122 C3118 1.385 . S
C3122 C3121 1.374 . S
C3123 C3120 1.499 . S
C3123 C3124 1.373 . S
C3123 C3125 1.389 . S
C3124 H3097 0.950 . S
C3124 C3110 1.377 . S
C3124 C3123 1.373 . S
C3125 C3109 1.377 . S
C3125 C3123 1.389 . S
C3125 C3126 1.524 . S
C3126 C3125 1.524 . S
C3126 C3127 1.397 . S
C3126 C3131 1.363 . S
C3127 H3098 0.950 . S
C3127 C3126 1.397 . S
C3127 C3128 1.334 . S
C3128 H3099 0.950 . S
C3128 C3127 1.334 . S
C3128 C3129 1.287 . S
C3129 C3128 1.287 . S
C3129 C3130 1.524 . S
C3129 H3132 0.999 . S
C3130 H3100 0.950 . S
C3130 C3129 1.524 . S
C3130 C3131 1.415 . S
C3131 H3101 0.950 . S
C3131 C3126 1.363 . S
C3131 C3130 1.415 . S
H3132 C3129 0.999 . S
H3133 C3114 0.913 . S
H3134 C3152 0.951 . S
H3135 C3154 0.951 . S
H3136 C3156 0.950 . S
H3137 C3157 0.950 . S
H3138 C3159 0.950 . S
H3139 C3162 0.950 . S
H3140 C3163 0.950 . S
H3141 C3165 0.950 . S
H3142 C3166 0.950 . S
H3143 C3167 0.951 . S
H3144 C3169 0.951 . S
H3145 C3171 0.950 . S
H3146 C3172 0.950 . S
H3147 C3174 0.950 . S
H3148 C3177 0.950 . S
H3149 C3178 0.950 . S
H3150 C3180 0.950 . S
H3151 C3181 0.950 . S
C3152 H3134 0.951 . S
C3152 C3153 1.366 . S
C3152 C3154 1.388 . S
C3153 C3152 1.366 . S
C3153 C3157 1.385 . S
C3154 H3135 0.951 . S
C3154 C3152 1.388 . S
C3154 C3155 1.366 . S
C3155 C3154 1.366 . S
C3155 C3156 1.414 . S
C3155 C3158 1.499 . S
C3156 H3136 0.950 . S
C3156 C3155 1.414 . S
C3156 C3157 1.374 . S
C3157 H3137 0.950 . S
C3157 C3153 1.385 . S
C3157 C3156 1.374 . S
C3158 C3155 1.499 . S
C3158 C3159 1.373 . S
C3158 C3160 1.389 . S
C3159 H3138 0.950 . S
C3159 C3158 1.373 . S
C3159 C3175 1.377 . S
C3160 C3158 1.389 . S
C3160 C3161 1.524 . S
C3160 C3174 1.377 . S
C3161 C3160 1.524 . S
C3161 C3162 1.397 . S
C3161 C3166 1.363 . S
C3162 H3139 0.950 . S
C3162 C3161 1.397 . S
C3162 C3163 1.334 . S
C3163 H3140 0.950 . S
C3163 C3162 1.334 . S
C3163 C3164 1.287 . S
C3164 C3163 1.287 . S
C3164 C3165 1.524 . S
C3164 H3183 0.913 . S
C3165 H3141 0.950 . S
C3165 C3164 1.524 . S
C3165 C3166 1.415 . S
C3166 H3142 0.950 . S
C3166 C3161 1.363 . S
C3166 C3165 1.415 . S
C3167 H3143 0.951 . S
C3167 C3168 1.366 . S
C3167 C3169 1.388 . S
C3168 C3167 1.366 . S
C3168 C3172 1.385 . S
C3169 H3144 0.951 . S
C3169 C3167 1.388 . S
C3169 C3170 1.366 . S
C3170 C3169 1.366 . S
C3170 C3171 1.414 . S
C3170 C3173 1.499 . S
C3171 H3145 0.950 . S
C3171 C3170 1.414 . S
C3171 C3172 1.374 . S
C3172 H3146 0.950 . S
C3172 C3168 1.385 . S
C3172 C3171 1.374 . S
C3173 C3170 1.499 . S
C3173 C3174 1.373 . S
C3173 C3175 1.389 . S
C3174 H3147 0.950 . S
C3174 C3160 1.377 . S
C3174 C3173 1.373 . S
C3175 C3159 1.377 . S
C3175 C3173 1.389 . S
C3175 C3176 1.524 . S
C3176 C3175 1.524 . S
C3176 C3177 1.397 . S
C3176 C3181 1.363 . S
C3177 H3148 0.950 . S
C3177 C3176 1.397 . S
C3177 C3178 1.334 . S
C3178 H3149 0.950 . S
C3178 C3177 1.334 . S
C3178 C3179 1.287 . S
C3179 C3178 1.287 . S
C3179 C3180 1.524 . S
C3179 H3182 0.999 . S
C3180 H3150 0.950 . S
C3180 C3179 1.524 . S
C3180 C3181 1.415 . S
C3181 H3151 0.950 . S
C3181 C3176 1.363 . S
C3181 C3180 1.415 . S
H3182 C3179 0.999 . S
H3183 C3164 0.913 . S
H3184 C3202 0.951 . S
H3185 C3204 0.951 . S
H3186 C3206 0.950 . S
H3187 C3207 0.950 . S
H3188 C3209 0.950 . S
H3189 C3212 0.950 . S
H3190 C3213 0.950 . S
H3191 C3215 0.950 . S
H3192 C3216 0.950 . S
H3193 C3217 0.951 . S
H3194 C3219 0.951 . S
H3195 C3221 0.950 . S
H3196 C3222 0.950 . S
H3197 C3224 0.950 . S
H3198 C3227 0.950 . S
H3199 C3228 0.950 . S
H3200 C3230 0.950 . S
H3201 C3231 0.950 . S
C3202 H3184 0.951 . S
C3202 C3203 1.366 . S
C3202 C3204 1.388 . S
C3203 C3202 1.366 . S
C3203 C3207 1.385 . S
C3204 H3185 0.951 . S
C3204 C3202 1.388 . S
C3204 C3205 1.366 . S
C3205 C3204 1.366 . S
C3205 C3206 1.414 . S
C3205 C3208 1.499 . S
C3206 H3186 0.950 . S
C3206 C3205 1.414 . S
C3206 C3207 1.374 . S
C3207 H3187 0.950 . S
C3207 C3203 1.385 . S
C3207 C3206 1.374 . S
C3208 C3205 1.499 . S
C3208 C3209 1.373 . S
C3208 C3210 1.389 . S
C3209 H3188 0.950 . S
C3209 C3208 1.373 . S
C3209 C3225 1.377 . S
C3210 C3208 1.389 . S
C3210 C3211 1.524 . S
C3210 C3224 1.377 . S
C3211 C3210 1.524 . S
C3211 C3212 1.397 . S
C3211 C3216 1.363 . S
C3212 H3189 0.950 . S
C3212 C3211 1.397 . S
C3212 C3213 1.334 . S
C3213 H3190 0.950 . S
C3213 C3212 1.334 . S
C3213 C3214 1.287 . S
C3214 C3213 1.287 . S
C3214 C3215 1.524 . S
C3214 H3233 0.913 . S
C3215 H3191 0.950 . S
C3215 C3214 1.524 . S
C3215 C3216 1.415 . S
C3216 H3192 0.950 . S
C3216 C3211 1.363 . S
C3216 C3215 1.415 . S
C3217 H3193 0.951 . S
C3217 C3218 1.366 . S
C3217 C3219 1.388 . S
C3218 C3217 1.366 . S
C3218 C3222 1.385 . S
C3219 H3194 0.951 . S
C3219 C3217 1.388 . S
C3219 C3220 1.366 . S
C3220 C3219 1.366 . S
C3220 C3221 1.414 . S
C3220 C3223 1.499 . S
C3221 H3195 0.950 . S
C3221 C3220 1.414 . S
C3221 C3222 1.374 . S
C3222 H3196 0.950 . S
C3222 C3218 1.385 . S
C3222 C3221 1.374 . S
C3223 C3220 1.499 . S
C3223 C3224 1.373 . S
C3223 C3225 1.389 . S
C3224 H3197 0.950 . S
C3224 C3210 1.377 . S
C3224 C3223 1.373 . S
C3225 C3209 1.377 . S
C3225 C3223 1.389 . S
C3225 C3226 1.524 . S
C3226 C3225 1.524 . S
C3226 C3227 1.397 . S
C3226 C3231 1.363 . S
C3227 H3198 0.950 . S
C3227 C3226 1.397 . S
C3227 C3228 1.334 . S
C3228 H3199 0.950 . S
C3228 C3227 1.334 . S
C3228 C3229 1.287 . S
C3229 C3228 1.287 . S
C3229 C3230 1.524 . S
C3229 H3232 0.999 . S
C3230 H3200 0.950 . S
C3230 C3229 1.524 . S
C3230 C3231 1.415 . S
C3231 H3201 0.950 . S
C3231 C3226 1.363 . S
C3231 C3230 1.415 . S
H3232 C3229 0.999 . S
H3233 C3214 0.913 . S
H3234 C3252 0.951 . S
H3235 C3254 0.951 . S
H3236 C3256 0.950 . S
H3237 C3257 0.950 . S
H3238 C3259 0.950 . S
H3239 C3262 0.950 . S
H3240 C3263 0.950 . S
H3241 C3265 0.950 . S
H3242 C3266 0.950 . S
H3243 C3267 0.951 . S
H3244 C3269 0.951 . S
H3245 C3271 0.950 . S
H3246 C3272 0.950 . S
H3247 C3274 0.950 . S
H3248 C3277 0.950 . S
H3249 C3278 0.950 . S
H3250 C3280 0.950 . S
H3251 C3281 0.950 . S
C3252 H3234 0.951 . S
C3252 C3253 1.366 . S
C3252 C3254 1.388 . S
C3253 C3252 1.366 . S
C3253 C3257 1.385 . S
C3254 H3235 0.951 . S
C3254 C3252 1.388 . S
C3254 C3255 1.366 . S
C3255 C3254 1.366 . S
C3255 C3256 1.414 . S
C3255 C3258 1.499 . S
C3256 H3236 0.950 . S
C3256 C3255 1.414 . S
C3256 C3257 1.374 . S
C3257 H3237 0.950 . S
C3257 C3253 1.385 . S
C3257 C3256 1.374 . S
C3258 C3255 1.499 . S
C3258 C3259 1.373 . S
C3258 C3260 1.389 . S
C3259 H3238 0.950 . S
C3259 C3258 1.373 . S
C3259 C3275 1.377 . S
C3260 C3258 1.389 . S
C3260 C3261 1.524 . S
C3260 C3274 1.377 . S
C3261 C3260 1.524 . S
C3261 C3262 1.397 . S
C3261 C3266 1.363 . S
C3262 H3239 0.950 . S
C3262 C3261 1.397 . S
C3262 C3263 1.334 . S
C3263 H3240 0.950 . S
C3263 C3262 1.334 . S
C3263 C3264 1.287 . S
C3264 C3263 1.287 . S
C3264 C3265 1.524 . S
C3264 H3283 0.913 . S
C3265 H3241 0.950 . S
C3265 C3264 1.524 . S
C3265 C3266 1.415 . S
C3266 H3242 0.950 . S
C3266 C3261 1.363 . S
C3266 C3265 1.415 . S
C3267 H3243 0.951 . S
C3267 C3268 1.366 . S
C3267 C3269 1.388 . S
C3268 C3267 1.366 . S
C3268 C3272 1.385 . S
C3269 H3244 0.951 . S
C3269 C3267 1.388 . S
C3269 C3270 1.366 . S
C3270 C3269 1.366 . S
C3270 C3271 1.414 . S
C3270 C3273 1.499 . S
C3271 H3245 0.950 . S
C3271 C3270 1.414 . S
C3271 C3272 1.374 . S
C3272 H3246 0.950 . S
C3272 C3268 1.385 . S
C3272 C3271 1.374 . S
C3273 C3270 1.499 . S
C3273 C3274 1.373 . S
C3273 C3275 1.389 . S
C3274 H3247 0.950 . S
C3274 C3260 1.377 . S
C3274 C3273 1.373 . S
C3275 C3259 1.377 . S
C3275 C3273 1.389 . S
C3275 C3276 1.524 . S
C3276 C3275 1.524 . S
C3276 C3277 1.397 . S
C3276 C3281 1.363 . S
C3277 H3248 0.950 . S
C3277 C3276 1.397 . S
C3277 C3278 1.334 . S
C3278 H3249 0.950 . S
C3278 C3277 1.334 . S
C3278 C3279 1.287 . S
C3279 C3278 1.287 . S
C3279 C3280 1.524 . S
C3279 H3282 0.999 . S
C3280 H3250 0.950 . S
C3280 C3279 1.524 . S
C3280 C3281 1.415 . S
C3281 H3251 0.950 . S
C3281 C3276 1.363 . S
C3281 C3280 1.415 . S
H3282 C3279 0.999 . S
H3283 C3264 0.913 . S
H3284 C3302 0.951 . S
H3285 C3304 0.951 . S
H3286 C3306 0.950 . S
H3287 C3307 0.950 . S
H3288 C3309 0.950 . S
H3289 C3312 0.950 . S
H3290 C3313 0.950 . S
H3291 C3315 0.950 . S
H3292 C3316 0.950 . S
H3293 C3317 0.951 . S
H3294 C3319 0.951 . S
H3295 C3321 0.950 . S
H3296 C3322 0.950 . S
H3297 C3324 0.950 . S
H3298 C3327 0.950 . S
H3299 C3328 0.950 . S
H3300 C3330 0.950 . S
H3301 C3331 0.950 . S
C3302 H3284 0.951 . S
C3302 C3303 1.366 . S
C3302 C3304 1.388 . S
C3303 C3302 1.366 . S
C3303 C3307 1.385 . S
C3304 H3285 0.951 . S
C3304 C3302 1.388 . S
C3304 C3305 1.366 . S
C3305 C3304 1.366 . S
C3305 C3306 1.414 . S
C3305 C3308 1.499 . S
C3306 H3286 0.950 . S
C3306 C3305 1.414 . S
C3306 C3307 1.374 . S
C3307 H3287 0.950 . S
C3307 C3303 1.385 . S
C3307 C3306 1.374 . S
C3308 C3305 1.499 . S
C3308 C3309 1.373 . S
C3308 C3310 1.389 . S
C3309 H3288 0.950 . S
C3309 C3308 1.373 . S
C3309 C3325 1.377 . S
C3310 C3308 1.389 . S
C3310 C3311 1.524 . S
C3310 C3324 1.377 . S
C3311 C3310 1.524 . S
C3311 C3312 1.397 . S
C3311 C3316 1.363 . S
C3312 H3289 0.950 . S
C3312 C3311 1.397 . S
C3312 C3313 1.334 . S
C3313 H3290 0.950 . S
C3313 C3312 1.334 . S
C3313 C3314 1.287 . S
C3314 C3313 1.287 . S
C3314 C3315 1.524 . S
C3314 H3333 0.913 . S
C3315 H3291 0.950 . S
C3315 C3314 1.524 . S
C3315 C3316 1.415 . S
C3316 H3292 0.950 . S
C3316 C3311 1.363 . S
C3316 C3315 1.415 . S
C3317 H3293 0.951 . S
C3317 C3318 1.366 . S
C3317 C3319 1.388 . S
C3318 C3317 1.366 . S
C3318 C3322 1.385 . S
C3319 H3294 0.951 . S
C3319 C3317 1.388 . S
C3319 C3320 1.366 . S
C3320 C3319 1.366 . S
C3320 C3321 1.414 . S
C3320 C3323 1.499 . S
C3321 H3295 0.950 . S
C3321 C3320 1.414 . S
C3321 C3322 1.374 . S
C3322 H3296 0.950 . S
C3322 C3318 1.385 . S
C3322 C3321 1.374 . S
C3323 C3320 1.499 . S
C3323 C3324 1.373 . S
C3323 C3325 1.389 . S
C3324 H3297 0.950 . S
C3324 C3310 1.377 . S
C3324 C3323 1.373 . S
C3325 C3309 1.377 . S
C3325 C3323 1.389 . S
C3325 C3326 1.524 . S
C3326 C3325 1.524 . S
C3326 C3327 1.397 . S
C3326 C3331 1.363 . S
C3327 H3298 0.950 . S
C3327 C3326 1.397 . S
C3327 C3328 1.334 . S
C3328 H3299 0.950 . S
C3328 C3327 1.334 . S
C3328 C3329 1.287 . S
C3329 C3328 1.287 . S
C3329 C3330 1.524 . S
C3329 H3332 0.999 . S
C3330 H3300 0.950 . S
C3330 C3329 1.524 . S
C3330 C3331 1.415 . S
C3331 H3301 0.950 . S
C3331 C3326 1.363 . S
C3331 C3330 1.415 . S
H3332 C3329 0.999 . S
H3333 C3314 0.913 . S
H3334 C3352 0.951 . S
H3335 C3354 0.951 . S
H3336 C3356 0.950 . S
H3337 C3357 0.950 . S
H3338 C3359 0.950 . S
H3339 C3362 0.950 . S
H3340 C3363 0.950 . S
H3341 C3365 0.950 . S
H3342 C3366 0.950 . S
H3343 C3367 0.951 . S
H3344 C3369 0.951 . S
H3345 C3371 0.950 . S
H3346 C3372 0.950 . S
H3347 C3374 0.950 . S
H3348 C3377 0.950 . S
H3349 C3378 0.950 . S
H3350 C3380 0.950 . S
H3351 C3381 0.950 . S
C3352 H3334 0.951 . S
C3352 C3353 1.366 . S
C3352 C3354 1.388 . S
C3353 C3352 1.366 . S
C3353 C3357 1.385 . S
C3354 H3335 0.951 . S
C3354 C3352 1.388 . S
C3354 C3355 1.366 . S
C3355 C3354 1.366 . S
C3355 C3356 1.414 . S
C3355 C3358 1.499 . S
C3356 H3336 0.950 . S
C3356 C3355 1.414 . S
C3356 C3357 1.374 . S
C3357 H3337 0.950 . S
C3357 C3353 1.385 . S
C3357 C3356 1.374 . S
C3358 C3355 1.499 . S
C3358 C3359 1.373 . S
C3358 C3360 1.389 . S
C3359 H3338 0.950 . S
C3359 C3358 1.373 . S
C3359 C3375 1.377 . S
C3360 C3358 1.389 . S
C3360 C3361 1.524 . S
C3360 C3374 1.377 . S
C3361 C3360 1.524 . S
C3361 C3362 1.397 . S
C3361 C3366 1.363 . S
C3362 H3339 0.950 . S
C3362 C3361 1.397 . S
C3362 C3363 1.334 . S
C3363 H3340 0.950 . S
C3363 C3362 1.334 . S
C3363 C3364 1.287 . S
C3364 C3363 1.287 . S
C3364 C3365 1.524 . S
C3364 H3383 0.913 . S
C3365 H3341 0.950 . S
C3365 C3364 1.524 . S
C3365 C3366 1.415 . S
C3366 H3342 0.950 . S
C3366 C3361 1.363 . S
C3366 C3365 1.415 . S
C3367 H3343 0.951 . S
C3367 C3368 1.366 . S
C3367 C3369 1.388 . S
C3368 C3367 1.366 . S
C3368 C3372 1.385 . S
C3369 H3344 0.951 . S
C3369 C3367 1.388 . S
C3369 C3370 1.366 . S
C3370 C3369 1.366 . S
C3370 C3371 1.414 . S
C3370 C3373 1.499 . S
C3371 H3345 0.950 . S
C3371 C3370 1.414 . S
C3371 C3372 1.374 . S
C3372 H3346 0.950 . S
C3372 C3368 1.385 . S
C3372 C3371 1.374 . S
C3373 C3370 1.499 . S
C3373 C3374 1.373 . S
C3373 C3375 1.389 . S
C3374 H3347 0.950 . S
C3374 C3360 1.377 . S
C3374 C3373 1.373 . S
C3375 C3359 1.377 . S
C3375 C3373 1.389 . S
C3375 C3376 1.524 . S
C3376 C3375 1.524 . S
C3376 C3377 1.397 . S
C3376 C3381 1.363 . S
C3377 H3348 0.950 . S
C3377 C3376 1.397 . S
C3377 C3378 1.334 . S
C3378 H3349 0.950 . S
C3378 C3377 1.334 . S
C3378 C3379 1.287 . S
C3379 C3378 1.287 . S
C3379 C3380 1.524 . S
C3379 H3382 0.999 . S
C3380 H3350 0.950 . S
C3380 C3379 1.524 . S
C3380 C3381 1.415 . S
C3381 H3351 0.950 . S
C3381 C3376 1.363 . S
C3381 C3380 1.415 . S
H3382 C3379 0.999 . S
H3383 C3364 0.913 . S
C1603 C900 0.589 . S
C1618 C29 0.591 . S
C1653 C145 0.559 . S
C1668 C1017 0.557 . S
C1703 C812 0.566 . S
C1718 C233 0.561 . S
C1753 C1289 0.590 . S
C1768 C284 0.590 . S
C1803 C372 0.559 . S
C1818 C1085 0.563 . S
C1853 C1201 0.562 . S
C1868 C497 0.556 . S
C1903 C548 0.625 . S
C1918 C1465 0.622 . S
C1953 C1545 0.600 . S
C1968 C673 0.601 . S
C2003 C761 0.624 . S
C2018 C1340 0.624 . S
C2053 C57 0.736 . S
C2068 C108 0.727 . S
C2103 C117 0.704 . S
C2118 C196 0.687 . S
C2153 C49 0.757 . S
C2168 C205 0.757 . S
C2203 C460 0.730 . S
C2218 C313 0.741 . S
C2253 C321 0.757 . S
C2268 C401 0.758 . S
C2303 C469 0.704 . S
C2318 C409 0.687 . S
C2353 C577 0.774 . S
C2368 C636 0.781 . S
C2403 C645 0.749 . S
C2418 C724 0.746 . S
C2453 C585 0.747 . S
C2468 C733 0.750 . S
C2503 C997 0.798 . S
C2518 C841 0.784 . S
C2553 C849 0.725 . S
C2568 C929 0.733 . S
C2603 C937 0.743 . S
C2618 C988 0.746 . S
C2653 C1164 0.798 . S
C2668 C1113 0.785 . S
C2703 C1252 0.743 . S
C2718 C1173 0.746 . S
C2753 C1105 0.725 . S
C2768 C1261 0.734 . S
C2803 C1369 0.771 . S
C2818 C1525 0.782 . S
C2853 C1437 0.749 . S
C2868 C1377 0.747 . S
C2903 C1516 0.749 . S
C2918 C1428 0.746 . S
C2953 C20 1.542 . S
C2968 C293 1.542 . S
C3003 C381 1.490 . S
C3018 C137 1.483 . S
C3053 C489 1.484 . S
C3068 C225 1.491 . S
C3103 C821 1.543 . S
C3118 C557 1.543 . S
C3153 C909 1.516 . S
C3168 C665 1.516 . S
C3203 C753 1.542 . S
C3218 C1025 1.542 . S
C3253 C1349 1.543 . S
C3268 C1076 1.543 . S
C3303 C1457 1.542 . S
C3318 C1193 1.542 . S
C3353 C1553 1.517 . S
C3368 C1281 1.516 . S
