# Generated by pormake.
# Topology bcu-i, (5)-cn, num edge types: 1
# Building blocks:
#     Node 0, Type 0, BuildingBlock: XOMCOT_clean_sbu_1, # of connection points: 5
#     Node 1, Type 0, BuildingBlock: XOMCOT_clean_sbu_1, # of connection points: 5
#     Node 2, Type 0, BuildingBlock: XOMCOT_clean_sbu_1, # of connection points: 5
#     Node 3, Type 0, BuildingBlock: XOMCOT_clean_sbu_1, # of connection points: 5
#     Node 4, Type 0, BuildingBlock: XOMCOT_clean_sbu_1, # of connection points: 5
#     Node 5, Type 0, BuildingBlock: XOMCOT_clean_sbu_1, # of connection points: 5
#     Node 6, Type 0, BuildingBlock: XOMCOT_clean_sbu_1, # of connection points: 5
#     Node 7, Type 0, BuildingBlock: XOMCOT_clean_sbu_1, # of connection points: 5
#     Node 8, Type 0, BuildingBlock: XOMCOT_clean_sbu_1, # of connection points: 5
#     Node 9, Type 0, BuildingBlock: XOMCOT_clean_sbu_1, # of connection points: 5
#     Node 10, Type 0, BuildingBlock: XOMCOT_clean_sbu_1, # of connection points: 5
#     Node 11, Type 0, BuildingBlock: XOMCOT_clean_sbu_1, # of connection points: 5
#     Node 12, Type 0, BuildingBlock: XOMCOT_clean_sbu_1, # of connection points: 5
#     Node 13, Type 0, BuildingBlock: XOMCOT_clean_sbu_1, # of connection points: 5
#     Node 14, Type 0, BuildingBlock: XOMCOT_clean_sbu_1, # of connection points: 5
#     Node 15, Type 0, BuildingBlock: XOMCOT_clean_sbu_1, # of connection points: 5
#     Edge 16, Type (0, 0), BuildingBlock: XUDNAN_clean_linker_2, # of connection points: 2
#     Edge 17, Type (0, 0), BuildingBlock: XUDNAN_clean_linker_2, # of connection points: 2
#     Edge 18, Type (0, 0), BuildingBlock: XUDNAN_clean_linker_2, # of connection points: 2
#     Edge 19, Type (0, 0), BuildingBlock: XUDNAN_clean_linker_2, # of connection points: 2
#     Edge 20, Type (0, 0), BuildingBlock: XUDNAN_clean_linker_2, # of connection points: 2
#     Edge 21, Type (0, 0), BuildingBlock: XUDNAN_clean_linker_2, # of connection points: 2
#     Edge 22, Type (0, 0), BuildingBlock: XUDNAN_clean_linker_2, # of connection points: 2
#     Edge 23, Type (0, 0), BuildingBlock: XUDNAN_clean_linker_2, # of connection points: 2
#     Edge 24, Type (0, 0), BuildingBlock: XUDNAN_clean_linker_2, # of connection points: 2
#     Edge 25, Type (0, 0), BuildingBlock: XUDNAN_clean_linker_2, # of connection points: 2
#     Edge 26, Type (0, 0), BuildingBlock: XUDNAN_clean_linker_2, # of connection points: 2
#     Edge 27, Type (0, 0), BuildingBlock: XUDNAN_clean_linker_2, # of connection points: 2
#     Edge 28, Type (0, 0), BuildingBlock: XUDNAN_clean_linker_2, # of connection points: 2
#     Edge 29, Type (0, 0), BuildingBlock: XUDNAN_clean_linker_2, # of connection points: 2
#     Edge 30, Type (0, 0), BuildingBlock: XUDNAN_clean_linker_2, # of connection points: 2
#     Edge 31, Type (0, 0), BuildingBlock: XUDNAN_clean_linker_2, # of connection points: 2
#     Edge 32, Type (0, 0), BuildingBlock: XUDNAN_clean_linker_2, # of connection points: 2
#     Edge 33, Type (0, 0), BuildingBlock: XUDNAN_clean_linker_2, # of connection points: 2
#     Edge 34, Type (0, 0), BuildingBlock: XUDNAN_clean_linker_2, # of connection points: 2
#     Edge 35, Type (0, 0), BuildingBlock: XUDNAN_clean_linker_2, # of connection points: 2
#     Edge 36, Type (0, 0), BuildingBlock: XUDNAN_clean_linker_2, # of connection points: 2
#     Edge 37, Type (0, 0), BuildingBlock: XUDNAN_clean_linker_2, # of connection points: 2
#     Edge 38, Type (0, 0), BuildingBlock: XUDNAN_clean_linker_2, # of connection points: 2
#     Edge 39, Type (0, 0), BuildingBlock: XUDNAN_clean_linker_2, # of connection points: 2
#     Edge 40, Type (0, 0), BuildingBlock: XUDNAN_clean_linker_2, # of connection points: 2
#     Edge 41, Type (0, 0), BuildingBlock: XUDNAN_clean_linker_2, # of connection points: 2
#     Edge 42, Type (0, 0), BuildingBlock: XUDNAN_clean_linker_2, # of connection points: 2
#     Edge 43, Type (0, 0), BuildingBlock: XUDNAN_clean_linker_2, # of connection points: 2
#     Edge 44, Type (0, 0), BuildingBlock: XUDNAN_clean_linker_2, # of connection points: 2
#     Edge 45, Type (0, 0), BuildingBlock: XUDNAN_clean_linker_2, # of connection points: 2
#     Edge 46, Type (0, 0), BuildingBlock: XUDNAN_clean_linker_2, # of connection points: 2
#     Edge 47, Type (0, 0), BuildingBlock: XUDNAN_clean_linker_2, # of connection points: 2
#     Edge 48, Type (0, 0), BuildingBlock: XUDNAN_clean_linker_2, # of connection points: 2
#     Edge 49, Type (0, 0), BuildingBlock: XUDNAN_clean_linker_2, # of connection points: 2
#     Edge 50, Type (0, 0), BuildingBlock: XUDNAN_clean_linker_2, # of connection points: 2
#     Edge 51, Type (0, 0), BuildingBlock: XUDNAN_clean_linker_2, # of connection points: 2
#     Edge 52, Type (0, 0), BuildingBlock: XUDNAN_clean_linker_2, # of connection points: 2
#     Edge 53, Type (0, 0), BuildingBlock: XUDNAN_clean_linker_2, # of connection points: 2
#     Edge 54, Type (0, 0), BuildingBlock: XUDNAN_clean_linker_2, # of connection points: 2
#     Edge 55, Type (0, 0), BuildingBlock: XUDNAN_clean_linker_2, # of connection points: 2
# Relax obj value: 0.546
# Max RMSD: 0.209
# Mean RMSD: 0.209
data_MOF--net-bcu-i--node1-XOMCOT_clean_sbu_1--edge1-XUDNAN_clean_linker_2
_symmetry_space_group_name_H-M    P1
_symmetry_Int_Tables_number       1
_symmetry_cell_setting            triclinic
loop_
_symmetry_equiv_pos_as_xyz
'x, y, z'
_cell_length_a     50.444839
_cell_length_b     50.401946
_cell_length_c     42.199928
_cell_angle_alpha  89.944291
_cell_angle_beta   90.020077
_cell_angle_gamma 89.89153
loop_
_atom_site_label
_atom_site_type_symbol
_atom_site_fract_x
_atom_site_fract_y
_atom_site_fract_z
_atom_type_partial_charge
C0 C 0.16906 0.09845 0.30213 0.0
C1 C 0.14303 0.10545 0.29615 0.0
N2 N 0.12833 0.09872 0.3216 0.0
N3 N 0.17062 0.08792 0.33148 0.0
C4 C 0.14547 0.08765 0.34214 0.0
H5 H 0.18592 0.10277 0.28719 0.0
Co6 Co 0.19956 0.08127 0.35769 0.0
C7 C 0.17626 0.09456 0.4202 0.0
O8 O 0.18579 0.0732 0.43398 0.0
N9 N 0.22839 0.07489 0.38495 0.0
C10 C 0.25899 0.08153 0.42209 0.0
C11 C 0.24334 0.09345 0.3996 0.0
C12 C 0.23567 0.0518 0.39878 0.0
N13 N 0.25391 0.05535 0.42182 0.0
O14 O 0.18324 0.04863 0.3696 0.0
H15 H 0.24162 0.11462 0.39603 0.0
H16 H 0.22596 0.03306 0.39435 0.0
O17 O 0.18138 0.09938 0.39127 0.0
C18 C 0.1852 0.03079 0.34847 0.0
O19 O 0.2003 0.0354 0.32373 0.0
N20 N 0.21509 0.11272 0.34394 0.0
C21 C 0.23959 0.15692 0.31778 0.0
C22 C 0.21693 0.15982 0.33666 0.0
C23 C 0.20476 0.13739 0.34933 0.0
C24 C 0.23691 0.10948 0.32539 0.0
C25 C 0.2496 0.13137 0.31217 0.0
H26 H 0.18672 0.13993 0.36276 0.0
H27 H 0.24439 0.08972 0.32083 0.0
H28 H 0.14018 0.08163 0.36592 0.0
H29 H 0.13584 0.11612 0.2756 0.0
H30 H 0.27167 0.09161 0.4389 0.0
H31 H 0.2083 0.17918 0.34094 0.0
H32 H 0.26716 0.12833 0.29785 0.0
C33 C 0.9215 0.15281 0.34958 0.0
C34 C 0.91612 0.12617 0.35273 0.0
N35 N 0.8992 0.12321 0.3771 0.0
N36 N 0.90831 0.16633 0.37222 0.0
C37 C 0.89452 0.14774 0.38827 0.0
H38 H 0.93519 0.16161 0.33293 0.0
Co39 Co 0.91405 0.20146 0.38249 0.0
C40 C 0.89155 0.20824 0.4475 0.0
O41 O 0.88695 0.23355 0.44255 0.0
N42 N 0.92071 0.23756 0.39275 0.0
C43 C 0.91917 0.28155 0.39957 0.0
C44 C 0.90755 0.26014 0.38486 0.0
C45 C 0.94041 0.24608 0.41194 0.0
N46 N 0.93994 0.27252 0.41625 0.0
O47 O 0.94918 0.19186 0.39394 0.0
H48 H 0.88996 0.26134 0.37043 0.0
H49 H 0.95423 0.23309 0.42396 0.0
O50 O 0.90239 0.19426 0.42585 0.0
C51 C 0.96713 0.19617 0.37343 0.0
O52 O 0.96134 0.21077 0.34854 0.0
N53 N 0.87988 0.20952 0.36853 0.0
C54 C 0.83251 0.22557 0.34062 0.0
C55 C 0.83254 0.21322 0.37043 0.0
C56 C 0.85648 0.20496 0.38385 0.0
C57 C 0.87995 0.21893 0.3383 0.0
C58 C 0.85658 0.2276 0.32409 0.0
H59 H 0.85588 0.19492 0.40635 0.0
H60 H 0.89859 0.22112 0.3259 0.0
H61 H 0.88241 0.15176 0.40888 0.0
H62 H 0.92437 0.11019 0.33871 0.0
H63 H 0.91271 0.30202 0.39849 0.0
H64 H 0.81429 0.21025 0.38344 0.0
H65 H 0.85768 0.23698 0.30104 0.0
C66 C 0.82223 0.92387 0.33081 0.0
C67 C 0.84545 0.91363 0.31892 0.0
N68 N 0.85475 0.89562 0.33973 0.0
N69 N 0.81681 0.912 0.35868 0.0
C70 C 0.83716 0.89508 0.36373 0.0
H71 H 0.80947 0.93823 0.31935 0.0
Co72 Co 0.78567 0.91735 0.38056 0.0
C73 C 0.77954 0.87159 0.42334 0.0
O74 O 0.75424 0.87079 0.41594 0.0
N75 N 0.7538 0.92366 0.40294 0.0
C76 C 0.71277 0.93291 0.41924 0.0
C77 C 0.72829 0.9264 0.39353 0.0
C78 C 0.75307 0.92856 0.43436 0.0
N79 N 0.72849 0.93425 0.44494 0.0
O80 O 0.80377 0.94203 0.40664 0.0
H81 H 0.72108 0.92461 0.36961 0.0
H82 H 0.77065 0.92896 0.44901 0.0
O83 O 0.79458 0.88896 0.41052 0.0
C84 C 0.79836 0.96645 0.40275 0.0
O85 O 0.77864 0.97307 0.38396 0.0
N86 N 0.76904 0.89426 0.35234 0.0
C87 C 0.74722 0.86549 0.30265 0.0
C88 C 0.76309 0.85288 0.32538 0.0
C89 C 0.77447 0.86779 0.34957 0.0
C90 C 0.7553 0.90707 0.32909 0.0
C91 C 0.74376 0.89301 0.30428 0.0
H92 H 0.78835 0.85807 0.36517 0.0
H93 H 0.75347 0.92845 0.32979 0.0
H94 H 0.83842 0.88152 0.38358 0.0
H95 H 0.85445 0.91844 0.29635 0.0
H96 H 0.6917 0.93693 0.41881 0.0
H97 H 0.76718 0.8318 0.32399 0.0
H98 H 0.73206 0.90354 0.28678 0.0
C99 C 0.07183 0.83113 0.29683 0.0
C100 C 0.0772 0.85738 0.29061 0.0
N101 N 0.0849 0.86896 0.31785 0.0
N102 N 0.07597 0.82629 0.32785 0.0
C103 C 0.08391 0.84974 0.34003 0.0
H104 H 0.06569 0.81637 0.27977 0.0
Co105 Co 0.07186 0.79353 0.34726 0.0
C106 C 0.10109 0.80109 0.40811 0.0
O107 O 0.11491 0.77928 0.4041 0.0
N108 N 0.06726 0.75963 0.36693 0.0
C109 C 0.07319 0.71911 0.38761 0.0
C110 C 0.08512 0.73989 0.37204 0.0
C111 C 0.04454 0.74987 0.37939 0.0
N112 N 0.04762 0.72545 0.39181 0.0
O113 O 0.03641 0.80349 0.35753 0.0
H114 H 0.10583 0.74046 0.36563 0.0
H115 H 0.02601 0.76058 0.38052 0.0
O116 O 0.08411 0.80821 0.38733 0.0
C117 C 0.02119 0.79726 0.33463 0.0
O118 O 0.03124 0.78341 0.31111 0.0
N119 N 0.10563 0.78448 0.33333 0.0
C120 C 0.15016 0.77343 0.29672 0.0
C121 C 0.15137 0.79248 0.32092 0.0
C122 C 0.12861 0.79806 0.33875 0.0
C123 C 0.10419 0.76613 0.30979 0.0
C124 C 0.1263 0.75981 0.29181 0.0
H125 H 0.12913 0.8142 0.35556 0.0
H126 H 0.08543 0.75671 0.30458 0.0
H127 H 0.08899 0.8528 0.36465 0.0
H128 H 0.07628 0.86699 0.26768 0.0
H129 H 0.08255 0.70089 0.3954 0.0
H130 H 0.16928 0.80379 0.325 0.0
H131 H 0.12448 0.7447 0.27371 0.0
C132 C 0.13038 0.89877 0.70042 0.0
C133 C 0.10872 0.88218 0.69965 0.0
N134 N 0.09896 0.88212 0.66994 0.0
N135 N 0.13466 0.90828 0.67101 0.0
C136 C 0.11464 0.89855 0.65332 0.0
H137 H 0.14393 0.90117 0.72007 0.0
Co138 Co 0.16594 0.92348 0.6566 0.0
C139 C 0.17072 0.89351 0.59497 0.0
O140 O 0.19466 0.88465 0.6014 0.0
N141 N 0.19724 0.93998 0.64258 0.0
C142 C 0.23197 0.96737 0.64185 0.0
C143 C 0.21272 0.95589 0.66051 0.0
C144 C 0.20699 0.94295 0.61297 0.0
N145 N 0.22838 0.95881 0.61203 0.0
O146 O 0.14696 0.95457 0.64559 0.0
H147 H 0.20947 0.9599 0.68538 0.0
H148 H 0.19748 0.93583 0.59179 0.0
O149 O 0.15898 0.90916 0.61424 0.0
C150 C 0.14378 0.97129 0.66778 0.0
O151 O 0.15353 0.96586 0.69594 0.0
N152 N 0.18461 0.89261 0.66923 0.0
C153 C 0.21133 0.84818 0.6927 0.0
C154 C 0.18952 0.84521 0.67249 0.0
C155 C 0.17617 0.86764 0.66147 0.0
C156 C 0.20483 0.89569 0.69035 0.0
C157 C 0.21874 0.87382 0.70194 0.0
H158 H 0.15887 0.86484 0.64679 0.0
H159 H 0.21 0.91509 0.69897 0.0
H160 H 0.11338 0.90058 0.62786 0.0
H161 H 0.10247 0.86895 0.71844 0.0
H162 H 0.2468 0.98154 0.64934 0.0
H163 H 0.18258 0.82573 0.6656 0.0
H164 H 0.23527 0.87705 0.71784 0.0
C165 C 0.07827 0.1944 0.68414 0.0
C166 C 0.07868 0.16783 0.69188 0.0
N167 N 0.07951 0.1537 0.66477 0.0
N168 N 0.07903 0.19691 0.65238 0.0
C169 C 0.07952 0.17183 0.64128 0.0
H170 H 0.07799 0.21086 0.70056 0.0
Co171 Co 0.08033 0.22845 0.62994 0.0
C172 C 0.07664 0.20975 0.56452 0.0
O173 O 0.05591 0.22507 0.55983 0.0
N174 N 0.08174 0.26053 0.60707 0.0
C175 C 0.09453 0.28981 0.57069 0.0
C176 C 0.10274 0.26985 0.5906 0.0
C177 C 0.06122 0.27579 0.59736 0.0
N178 N 0.06831 0.29331 0.57474 0.0
O179 O 0.04366 0.22474 0.62216 0.0
H180 H 0.12226 0.26097 0.59047 0.0
H181 H 0.04079 0.27195 0.60347 0.0
O182 O 0.08825 0.20957 0.59134 0.0
C183 C 0.02828 0.23221 0.64426 0.0
O184 O 0.03819 0.24617 0.66772 0.0
N185 N 0.11589 0.23124 0.64013 0.0
C186 C 0.16602 0.23432 0.66677 0.0
C187 C 0.16097 0.21624 0.64235 0.0
C188 C 0.1355 0.21472 0.62955 0.0
C189 C 0.12061 0.24923 0.6634 0.0
C190 C 0.14561 0.25117 0.67704 0.0
H191 H 0.13148 0.19971 0.61199 0.0
H192 H 0.1046 0.26161 0.67193 0.0
H193 H 0.08092 0.16684 0.61646 0.0
H194 H 0.07875 0.15963 0.71558 0.0
H195 H 0.10628 0.29895 0.55221 0.0
H196 H 0.17629 0.20287 0.63403 0.0
H197 H 0.14892 0.26565 0.69558 0.0
C198 C 0.87607 0.06206 0.69612 0.0
C199 C 0.89828 0.07771 0.69892 0.0
N200 N 0.89798 0.09542 0.67507 0.0
N201 N 0.86179 0.07037 0.671 0.0
C202 C 0.87577 0.09061 0.6585 0.0
H203 H 0.86956 0.04713 0.71281 0.0
Co204 Co 0.82724 0.06076 0.66347 0.0
C205 C 0.81063 0.08923 0.60465 0.0
O206 O 0.78593 0.08928 0.61445 0.0
N207 N 0.79173 0.05023 0.65661 0.0
C208 C 0.74807 0.04309 0.65852 0.0
C209 C 0.7691 0.05602 0.6725 0.0
C210 C 0.78382 0.03357 0.63344 0.0
N211 N 0.75759 0.02882 0.6342 0.0
O212 O 0.83945 0.02843 0.64531 0.0
H213 H 0.76755 0.06889 0.69281 0.0
H214 H 0.79697 0.02556 0.61557 0.0
O215 O 0.82857 0.07814 0.62157 0.0
C216 C 0.83634 0.00855 0.66349 0.0
O217 O 0.82515 0.01194 0.6913 0.0
N218 N 0.81644 0.09179 0.68399 0.0
C219 C 0.8021 0.13379 0.723 0.0
C220 C 0.80857 0.13828 0.69121 0.0
C221 C 0.81629 0.11706 0.67221 0.0
C222 C 0.8119 0.0874 0.71538 0.0
C223 C 0.80441 0.1081 0.73533 0.0
H224 H 0.82272 0.12141 0.64851 0.0
H225 H 0.81354 0.06747 0.72473 0.0
H226 H 0.86863 0.10337 0.6397 0.0
H227 H 0.91246 0.07743 0.71818 0.0
H228 H 0.7275 0.04389 0.6658 0.0
H229 H 0.80783 0.15808 0.68121 0.0
H230 H 0.79969 0.10389 0.75986 0.0
C231 C 0.9383 0.80086 0.64818 0.0
C232 C 0.93117 0.82689 0.65361 0.0
N233 N 0.90836 0.83166 0.63801 0.0
N234 N 0.92008 0.78951 0.62919 0.0
C235 C 0.90214 0.80878 0.62341 0.0
H236 H 0.95582 0.79093 0.65708 0.0
Co237 Co 0.92151 0.75547 0.61296 0.0
C238 C 0.87792 0.75308 0.56617 0.0
O239 O 0.87186 0.72912 0.57615 0.0
N240 N 0.92377 0.72091 0.59604 0.0
C241 C 0.93395 0.67849 0.58697 0.0
C242 C 0.92757 0.69695 0.60989 0.0
C243 C 0.92773 0.7163 0.56492 0.0
N244 N 0.93356 0.69082 0.55877 0.0
O245 O 0.95087 0.76629 0.58776 0.0
H246 H 0.92801 0.69326 0.63506 0.0
H247 H 0.92862 0.73188 0.54725 0.0
O248 O 0.89709 0.76565 0.57902 0.0
C249 C 0.97311 0.75674 0.59638 0.0
O250 O 0.97336 0.7372 0.61702 0.0
N251 N 0.89434 0.74573 0.64061 0.0
C252 C 0.86151 0.73462 0.69183 0.0
C253 C 0.85176 0.74877 0.66574 0.0
C254 C 0.86864 0.75444 0.64041 0.0
C255 C 0.90434 0.73325 0.66663 0.0
C256 C 0.88816 0.7269 0.69219 0.0
H257 H 0.86113 0.76676 0.62157 0.0
H258 H 0.92532 0.72899 0.66795 0.0
H259 H 0.88502 0.8064 0.60827 0.0
H260 H 0.94175 0.84109 0.66809 0.0
H261 H 0.94014 0.65817 0.59089 0.0
H262 H 0.83138 0.75556 0.66504 0.0
H263 H 0.8966 0.71677 0.71249 0.0
C264 C 0.68698 0.59291 0.81583 0.0
C265 C 0.66702 0.60332 0.79719 0.0
N266 N 0.64538 0.60703 0.81549 0.0
N267 N 0.67801 0.59043 0.84576 0.0
C268 C 0.65254 0.59855 0.84456 0.0
H269 H 0.70704 0.58852 0.80843 0.0
Co270 Co 0.69661 0.58053 0.88221 0.0
C271 C 0.67578 0.62075 0.92657 0.0
O272 O 0.70007 0.62801 0.93361 0.0
N273 N 0.71465 0.5693 0.91927 0.0
C274 C 0.72366 0.55881 0.96942 0.0
C275 C 0.70594 0.57086 0.94956 0.0
C276 C 0.73685 0.55418 0.92143 0.0
N277 N 0.74319 0.54843 0.95175 0.0
O278 O 0.67512 0.54959 0.88461 0.0
H279 H 0.687 0.57844 0.95714 0.0
H280 H 0.74765 0.54668 0.90117 0.0
O281 O 0.67152 0.60126 0.90788 0.0
C282 C 0.68559 0.53345 0.86501 0.0
O283 O 0.70825 0.54 0.85179 0.0
N284 N 0.7191 0.61042 0.87674 0.0
C285 C 0.75272 0.65025 0.85416 0.0
C286 C 0.72538 0.65469 0.85666 0.0
C287 C 0.70895 0.63455 0.86785 0.0
C288 C 0.74576 0.60615 0.87518 0.0
C289 C 0.76293 0.62598 0.86495 0.0
H290 H 0.68781 0.63793 0.8675 0.0
H291 H 0.75394 0.58684 0.87954 0.0
H292 H 0.63984 0.59964 0.86512 0.0
H293 H 0.66865 0.60846 0.77238 0.0
H294 H 0.72139 0.55618 0.99475 0.0
H295 H 0.71638 0.6728 0.84795 0.0
H296 H 0.78393 0.62162 0.86368 0.0
C297 C 0.4124 0.6711 0.77636 0.0
C298 C 0.40473 0.64518 0.77143 0.0
N299 N 0.40436 0.63269 0.79969 0.0
N300 N 0.4165 0.67484 0.80758 0.0
C301 C 0.41179 0.65107 0.82104 0.0
H302 H 0.41421 0.6864 0.75851 0.0
Co303 Co 0.42487 0.7062 0.82791 0.0
C304 C 0.39843 0.70213 0.89061 0.0
O305 O 0.39076 0.72698 0.888 0.0
N306 N 0.4341 0.73792 0.84887 0.0
C307 C 0.43755 0.77855 0.86925 0.0
C308 C 0.42838 0.76384 0.84399 0.0
C309 C 0.44763 0.73771 0.87647 0.0
N310 N 0.44951 0.76193 0.88975 0.0
O311 O 0.45963 0.69274 0.83536 0.0
H312 H 0.41734 0.77181 0.82428 0.0
H313 H 0.45407 0.7196 0.88795 0.0
O314 O 0.41218 0.69153 0.86848 0.0
C315 C 0.47484 0.69994 0.81288 0.0
O316 O 0.46516 0.7158 0.79098 0.0
N317 N 0.39131 0.71916 0.81697 0.0
C318 C 0.34482 0.73571 0.78772 0.0
C319 C 0.34384 0.71774 0.81291 0.0
C320 C 0.36751 0.70901 0.82666 0.0
C321 C 0.39241 0.7358 0.79156 0.0
C322 C 0.36936 0.74465 0.77681 0.0
H323 H 0.36655 0.69318 0.84382 0.0
H324 H 0.41147 0.74162 0.78211 0.0
H325 H 0.41278 0.64747 0.84625 0.0
H326 H 0.39951 0.63638 0.7489 0.0
H327 H 0.4348 0.79965 0.87273 0.0
H328 H 0.3251 0.70971 0.82094 0.0
H329 H 0.37069 0.75799 0.75672 0.0
C330 C 0.3479 0.40077 0.78692 0.0
C331 C 0.37406 0.39291 0.78679 0.0
N332 N 0.38169 0.38898 0.81705 0.0
N333 N 0.33917 0.40148 0.81707 0.0
C334 C 0.36024 0.39442 0.83486 0.0
H335 H 0.33585 0.40527 0.7664 0.0
Co336 Co 0.30513 0.40953 0.82977 0.0
C337 C 0.30132 0.38593 0.89466 0.0
O338 O 0.27764 0.37598 0.88963 0.0
N339 N 0.27064 0.4185 0.84251 0.0
C340 C 0.22772 0.42864 0.84618 0.0
C341 C 0.24673 0.41574 0.82839 0.0
C342 C 0.26558 0.43317 0.86853 0.0
N343 N 0.23975 0.43945 0.8715 0.0
O344 O 0.31672 0.44397 0.84025 0.0
H345 H 0.24316 0.40592 0.8061 0.0
H346 H 0.28091 0.44016 0.88439 0.0
O347 O 0.31334 0.39854 0.87275 0.0
C348 C 0.31522 0.4617 0.81895 0.0
O349 O 0.30382 0.45588 0.79183 0.0
N350 N 0.29485 0.37571 0.8171 0.0
C351 C 0.28614 0.32851 0.78498 0.0
C352 C 0.29755 0.32817 0.81515 0.0
C353 C 0.30258 0.35219 0.83048 0.0
C354 C 0.28428 0.37619 0.78744 0.0
C355 C 0.27953 0.35279 0.77101 0.0
H356 H 0.31395 0.35166 0.85207 0.0
H357 H 0.28055 0.39502 0.77595 0.0
H358 H 0.35978 0.39244 0.86036 0.0
H359 H 0.38643 0.39018 0.76609 0.0
H360 H 0.20684 0.43034 0.84061 0.0
H361 H 0.30344 0.30963 0.82613 0.0
H362 H 0.27091 0.35366 0.74751 0.0
C363 C 0.60745 0.31681 0.80616 0.0
C364 C 0.61179 0.34205 0.79479 0.0
N365 N 0.61461 0.35865 0.81969 0.0
N366 N 0.60758 0.31746 0.83802 0.0
C367 C 0.61178 0.34311 0.84553 0.0
H368 H 0.60437 0.2991 0.79218 0.0
Co369 Co 0.602 0.2893 0.86537 0.0
C370 C 0.61071 0.31521 0.92702 0.0
O371 O 0.58734 0.30773 0.93742 0.0
N372 N 0.59634 0.26096 0.89315 0.0
C373 C 0.60167 0.23285 0.93325 0.0
C374 C 0.61444 0.24925 0.91218 0.0
C375 C 0.57289 0.25088 0.9026 0.0
N376 N 0.57543 0.23421 0.92749 0.0
O377 O 0.56853 0.30411 0.87566 0.0
H378 H 0.63535 0.25392 0.91244 0.0
H379 H 0.55407 0.25699 0.89281 0.0
O380 O 0.61832 0.30869 0.89933 0.0
C381 C 0.55069 0.30035 0.85489 0.0
O382 O 0.55623 0.28536 0.83029 0.0
N383 N 0.63432 0.2749 0.85334 0.0
C384 C 0.68017 0.2511 0.83083 0.0
C385 C 0.68162 0.27449 0.84854 0.0
C386 C 0.65832 0.28639 0.85921 0.0
C387 C 0.63253 0.25234 0.83582 0.0
C388 C 0.65529 0.24003 0.82429 0.0
H389 H 0.65967 0.30499 0.87164 0.0
H390 H 0.61326 0.24395 0.83077 0.0
H391 H 0.61303 0.35014 0.86962 0.0
H392 H 0.61273 0.34754 0.77005 0.0
H393 H 0.61081 0.22278 0.95312 0.0
H394 H 0.70053 0.2838 0.85345 0.0
H395 H 0.6535 0.22193 0.81064 0.0
C396 C 0.67306 0.4402 0.18708 0.0
C397 C 0.64603 0.43645 0.18743 0.0
N398 N 0.64047 0.41561 0.16868 0.0
N399 N 0.68426 0.42206 0.16778 0.0
C400 C 0.66391 0.40709 0.15735 0.0
H401 H 0.68371 0.45608 0.19865 0.0
Co402 Co 0.71895 0.42311 0.15371 0.0
C403 C 0.72052 0.38853 0.09648 0.0
O404 O 0.74453 0.37995 0.10292 0.0
N405 N 0.75413 0.42527 0.13937 0.0
C406 C 0.79796 0.42921 0.13352 0.0
C407 C 0.77777 0.42262 0.15426 0.0
C408 C 0.76053 0.43373 0.11003 0.0
N409 N 0.78679 0.43561 0.10566 0.0
O410 O 0.71108 0.4558 0.13317 0.0
H411 H 0.78037 0.41744 0.17889 0.0
H412 H 0.74606 0.43932 0.09226 0.0
O413 O 0.70867 0.40463 0.11505 0.0
C414 C 0.71799 0.47723 0.14667 0.0
O415 O 0.73274 0.47585 0.1723 0.0
N416 N 0.72583 0.39183 0.17592 0.0
C417 C 0.7334 0.35053 0.21878 0.0
C418 C 0.72214 0.34565 0.18903 0.0
C419 C 0.71791 0.36673 0.16814 0.0
C420 C 0.73607 0.39695 0.20511 0.0
C421 C 0.74027 0.37657 0.22685 0.0
H422 H 0.70736 0.36274 0.14652 0.0
H423 H 0.74067 0.41717 0.21166 0.0
H424 H 0.66588 0.39132 0.14019 0.0
H425 H 0.63153 0.44859 0.19959 0.0
H426 H 0.81894 0.43021 0.13876 0.0
H427 H 0.71593 0.32585 0.1824 0.0
H428 H 0.74893 0.38115 0.24968 0.0
C429 C 0.59017 0.66463 0.19413 0.0
C430 C 0.60734 0.64337 0.19394 0.0
N431 N 0.60988 0.63484 0.16382 0.0
N432 N 0.58209 0.66954 0.16427 0.0
C433 C 0.59425 0.65097 0.14638 0.0
H434 H 0.58407 0.67593 0.21464 0.0
Co435 Co 0.55969 0.69685 0.15238 0.0
C436 C 0.57346 0.70873 0.08536 0.0
O437 O 0.57202 0.73436 0.09089 0.0
N438 N 0.53616 0.72439 0.14059 0.0
C439 C 0.51574 0.76282 0.13109 0.0
C440 C 0.53263 0.74945 0.15123 0.0
C441 C 0.51997 0.72273 0.11517 0.0
N442 N 0.50826 0.74605 0.108 0.0
O443 O 0.53218 0.67205 0.14663 0.0
H444 H 0.54254 0.7583 0.1712 0.0
H445 H 0.51841 0.7051 0.10069 0.0
O446 O 0.56965 0.6922 0.10792 0.0
C447 C 0.5166 0.66844 0.16984 0.0
O448 O 0.5202 0.68217 0.19595 0.0
N449 N 0.58729 0.72063 0.16005 0.0
C450 C 0.62814 0.75322 0.18071 0.0
C451 C 0.63078 0.73875 0.15262 0.0
C452 C 0.61039 0.72189 0.14318 0.0
C453 C 0.58516 0.73335 0.18837 0.0
C454 C 0.60514 0.75017 0.19892 0.0
H455 H 0.61385 0.70916 0.1231 0.0
H456 H 0.56788 0.73012 0.20303 0.0
H457 H 0.5921 0.64953 0.12099 0.0
H458 H 0.61695 0.63472 0.21443 0.0
H459 H 0.51104 0.78377 0.13205 0.0
H460 H 0.64885 0.73966 0.13879 0.0
H461 H 0.60266 0.76057 0.22118 0.0
C462 C 0.29852 0.59432 0.17151 0.0
C463 C 0.32373 0.5954 0.18399 0.0
N464 N 0.34117 0.59302 0.15996 0.0
N465 N 0.30024 0.59173 0.1398 0.0
C466 C 0.32638 0.59069 0.13353 0.0
H467 H 0.28013 0.59555 0.18459 0.0
Co468 Co 0.27253 0.58886 0.11163 0.0
C469 C 0.28961 0.61677 0.05388 0.0
O470 O 0.26601 0.6278 0.05237 0.0
N471 N 0.24404 0.58467 0.08282 0.0
C472 C 0.20538 0.58092 0.0574 0.0
C473 C 0.21828 0.59234 0.08276 0.0
C474 C 0.24611 0.56891 0.05707 0.0
N475 N 0.22297 0.56591 0.04159 0.0
O476 O 0.28345 0.55343 0.10408 0.0
H477 H 0.20877 0.60465 0.10023 0.0
H478 H 0.26439 0.55933 0.05002 0.0
O479 O 0.29513 0.60087 0.07658 0.0
C480 C 0.27084 0.53443 0.11686 0.0
O481 O 0.24852 0.53942 0.13178 0.0
N482 N 0.26244 0.62357 0.12215 0.0
C483 C 0.25044 0.67099 0.15264 0.0
C484 C 0.27316 0.66899 0.13389 0.0
C485 C 0.27898 0.64494 0.119 0.0
C486 C 0.24098 0.62504 0.14163 0.0
C487 C 0.2341 0.64881 0.15628 0.0
H488 H 0.29776 0.64313 0.10697 0.0
H489 H 0.22997 0.60727 0.14723 0.0
H490 H 0.33447 0.58888 0.10989 0.0
H491 H 0.32882 0.59785 0.20873 0.0
H492 H 0.18446 0.58251 0.05198 0.0
H493 H 0.28675 0.68552 0.13176 0.0
H494 H 0.21705 0.64942 0.17189 0.0
C495 C 0.42496 0.36487 0.17137 0.0
C496 C 0.41028 0.38791 0.17387 0.0
N497 N 0.38659 0.38374 0.16002 0.0
N498 N 0.4106 0.3466 0.15563 0.0
C499 C 0.3873 0.35863 0.14931 0.0
H500 H 0.44508 0.36194 0.17953 0.0
Co501 Co 0.42098 0.31343 0.14149 0.0
C502 C 0.39357 0.30934 0.07767 0.0
O503 O 0.39154 0.28335 0.07741 0.0
N504 N 0.43159 0.27997 0.12707 0.0
C505 C 0.44126 0.23705 0.12251 0.0
C506 C 0.42939 0.25604 0.14125 0.0
C507 C 0.44506 0.27506 0.10011 0.0
N508 N 0.45098 0.24913 0.09655 0.0
O509 O 0.45259 0.32893 0.12516 0.0
H510 H 0.42015 0.25252 0.16396 0.0
H511 H 0.45088 0.29046 0.08366 0.0
O512 O 0.40383 0.32123 0.10134 0.0
C513 C 0.47485 0.32326 0.13764 0.0
O514 O 0.47605 0.30468 0.15946 0.0
N515 N 0.39077 0.29892 0.16005 0.0
C516 C 0.35084 0.27902 0.19863 0.0
C517 C 0.34632 0.28305 0.16622 0.0
C518 C 0.36652 0.2934 0.14728 0.0
C519 C 0.3953 0.29538 0.19157 0.0
C520 C 0.37561 0.28547 0.21135 0.0
H521 H 0.36215 0.29733 0.12285 0.0
H522 H 0.41453 0.30025 0.20131 0.0
H523 H 0.37154 0.34957 0.13572 0.0
H524 H 0.41662 0.40636 0.18456 0.0
H525 H 0.4427 0.21606 0.1277 0.0
H526 H 0.32723 0.27858 0.15574 0.0
H527 H 0.37992 0.28239 0.23624 0.0
H528 H 0.1819 0.98229 0.37789 0.0
H529 H 0.14258 0.03424 0.3108 0.0
H530 H 0.10956 -0.00059 0.29954 0.0
H531 H 0.17649 0.92482 0.3329 0.0
H532 H 0.17046 0.90245 0.36546 0.0
H533 H 0.18875 0.93257 0.37195 0.0
H534 H 0.15559 0.9464 0.41583 0.0
H535 H 0.13725 0.91619 0.40956 0.0
H536 H 0.12066 0.94782 0.40694 0.0
H537 H 0.08438 0.95796 0.29074 0.0
H538 H 0.06745 0.91219 0.28606 0.0
H539 H 0.12281 0.88641 0.35852 0.0
C540 C 0.16584 0.98639 0.36156 0.0
C541 C 0.1643 0.01085 0.34548 0.0
C542 C 0.14365 0.0156 0.32356 0.0
C543 C 0.12486 0.99599 0.31705 0.0
C544 C 0.12708 0.97177 0.33271 0.0
C545 C 0.14689 0.96688 0.35469 0.0
C546 C 0.14592 0.93837 0.36616 0.0
C547 C 0.17195 0.9237 0.35865 0.0
C548 C 0.13946 0.93713 0.40174 0.0
C549 C 0.12311 0.92791 0.3464 0.0
C550 C 0.1124 0.94759 0.32753 0.0
C551 C 0.09231 0.94243 0.30573 0.0
C552 C 0.08297 0.91638 0.30304 0.0
C553 C 0.09371 0.89585 0.32201 0.0
C554 C 0.11384 0.90183 0.34421 0.0
H555 H 0.10369 0.14404 0.30225 0.0
H556 H 0.094 0.07397 0.36085 0.0
H557 H 0.05296 0.09287 0.38333 0.0
H558 H 0.08127 0.19083 0.35851 0.0
H559 H 0.06387 0.21142 0.33039 0.0
H560 H 0.0921 0.19219 0.31783 0.0
H561 H 0.06387 0.16946 0.27429 0.0
H562 H 0.03574 0.18911 0.28617 0.0
H563 H 0.03324 0.15345 0.28509 0.0
H564 H 0.01456 0.12041 0.40164 0.0
H565 H 0.97745 0.1518 0.40875 0.0
H566 H 0.01137 0.20333 0.33695 0.0
C567 C 0.09258 0.13235 0.31915 0.0
C568 C 0.1021 0.10755 0.3299 0.0
C569 C 0.08717 0.09312 0.35254 0.0
C570 C 0.06391 0.10371 0.3655 0.0
C571 C 0.05568 0.12867 0.35534 0.0
C572 C 0.06922 0.14258 0.33223 0.0
C573 C 0.05597 0.16893 0.32534 0.0
C574 C 0.07441 0.19221 0.33351 0.0
C575 C 0.04664 0.17031 0.29067 0.0
C576 C 0.03278 0.16755 0.34804 0.0
C577 C 0.03321 0.14433 0.36545 0.0
C578 C 0.01391 0.13862 0.38804 0.0
C579 C 0.99304 0.15669 0.39211 0.0
C580 C 0.99154 0.18 0.3734 0.0
C581 C 0.01201 0.18569 0.35162 0.0
H582 H 0.78844 0.01914 0.41021 0.0
H583 H 0.8508 0.96008 0.41685 0.0
H584 H 0.88416 0.99564 0.4202 0.0
H585 H 0.81776 0.0598 0.36024 0.0
H586 H 0.80728 0.09096 0.3771 0.0
H587 H 0.78782 0.06168 0.3835 0.0
H588 H 0.7911 0.06822 0.44399 0.0
H589 H 0.81082 0.09767 0.43837 0.0
H590 H 0.82312 0.07086 0.46262 0.0
H591 H 0.91046 0.03589 0.40793 0.0
H592 H 0.92774 0.07896 0.38874 0.0
H593 H 0.84891 0.11261 0.39382 0.0
C594 C 0.80903 0.01378 0.41375 0.0
C595 C 0.81711 0.98698 0.41326 0.0
C596 C 0.84419 0.98053 0.41752 0.0
C597 C 0.86329 0.00061 0.4194 0.0
C598 C 0.85484 0.02693 0.41789 0.0
C599 C 0.82826 0.03359 0.41616 0.0
C600 C 0.82453 0.06315 0.41149 0.0
C601 C 0.80841 0.06922 0.38129 0.0
C602 C 0.81164 0.07573 0.44087 0.0
C603 C 0.8531 0.07172 0.40811 0.0
C604 C 0.87032 0.0506 0.41231 0.0
C605 C 0.89731 0.05279 0.40573 0.0
C606 C 0.90691 0.07711 0.3945 0.0
C607 C 0.88956 0.09886 0.39019 0.0
C608 C 0.86251 0.09629 0.39776 0.0
H609 H 0.89347 0.88334 0.38185 0.0
H610 H 0.86519 0.86823 0.28666 0.0
H611 H 0.90298 0.83794 0.27734 0.0
H612 H 0.96159 0.88645 0.36099 0.0
H613 H 0.9736 0.87089 0.39671 0.0
H614 H 0.94289 0.88912 0.39725 0.0
H615 H 0.91868 0.84779 0.41923 0.0
H616 H 0.94928 0.82928 0.41859 0.0
H617 H 0.92058 0.81685 0.39796 0.0
H618 H 0.94362 0.81087 0.27753 0.0
H619 H 0.98777 0.79131 0.28476 0.0
H620 H 0.99233 0.82558 0.37907 0.0
C621 C 0.89523 0.87329 0.35928 0.0
C622 C 0.87657 0.87784 0.33492 0.0
C623 C 0.87948 0.86493 0.30541 0.0
C624 C 0.90069 0.84761 0.30006 0.0
C625 C 0.91892 0.84366 0.3244 0.0
C626 C 0.91667 0.8563 0.35333 0.0
C627 C 0.94034 0.85019 0.37435 0.0
C628 C 0.9555 0.87568 0.38281 0.0
C629 C 0.9317 0.83512 0.4043 0.0
C630 C 0.95641 0.83254 0.35243 0.0
C631 C 0.9433 0.82869 0.32404 0.0
C632 C 0.9541 0.81365 0.29966 0.0
C633 C 0.97924 0.80261 0.30406 0.0
C634 C 0.99358 0.80695 0.33247 0.0
C635 C 0.98182 0.82185 0.35715 0.0
H636 H 0.10231 0.11981 0.70689 0.0
H637 H 0.06528 0.12359 0.61414 0.0
H638 H 0.07614 0.07643 0.60536 0.0
H639 H 0.15555 0.07952 0.68554 0.0
H640 H 0.15614 0.06062 0.72182 0.0
H641 H 0.14362 0.09406 0.72186 0.0
H642 H 0.09918 0.07781 0.74576 0.0
H643 H 0.11166 0.04429 0.7461 0.0
H644 H 0.08097 0.05185 0.72611 0.0
H645 H 0.09421 0.02975 0.60515 0.0
H646 H 0.11642 0.98665 0.61459 0.0
H647 H 0.14028 0.0135 0.70805 0.0
C648 C 0.09584 0.11061 0.68507 0.0
C649 C 0.08302 0.12549 0.66118 0.0
C650 C 0.07545 0.11273 0.63264 0.0
C651 C 0.08138 0.08589 0.6275 0.0
C652 C 0.09462 0.07201 0.65127 0.0
C653 C 0.10151 0.08386 0.67962 0.0
C654 C 0.11662 0.06492 0.7008 0.0
C655 C 0.14464 0.07541 0.7079 0.0
C656 C 0.10118 0.05939 0.73151 0.0
C657 C 0.11755 0.04069 0.67974 0.0
C658 C 0.10472 0.0451 0.65129 0.0
C659 C 0.10404 0.02594 0.6275 0.0
C660 C 0.11677 0.00158 0.63302 0.0
C661 C 0.12994 0.99669 0.66211 0.0
C662 C 0.13015 0.01652 0.6857 0.0
H663 H 0.93276 0.10884 0.62948 0.0
H664 H 0.89648 0.13546 0.7167 0.0
H665 H 0.92141 0.17775 0.7134 0.0
H666 H 0.99672 0.13344 0.64766 0.0
H667 H 0.00474 0.14232 0.60742 0.0
H668 H 0.98171 0.11589 0.61507 0.0
H669 H 0.94708 0.1398 0.58012 0.0
H670 H 0.96944 0.16701 0.57315 0.0
H671 H 0.93703 0.17323 0.58957 0.0
H672 H 0.95224 0.21513 0.70267 0.0
H673 H 0.99062 0.24308 0.68892 0.0
H674 H 0.00774 0.19174 0.6089 0.0
C675 C 0.93009 0.12382 0.64759 0.0
C676 C 0.913 0.11933 0.67336 0.0
C677 C 0.9098 0.13888 0.697 0.0
C678 C 0.9236 0.1629 0.69509 0.0
C679 C 0.94049 0.16683 0.66939 0.0
C680 C 0.94406 0.14772 0.64625 0.0
C681 C 0.96544 0.15574 0.62301 0.0
C682 C 0.98851 0.13567 0.62333 0.0
C683 C 0.95404 0.15917 0.58948 0.0
C684 C 0.97362 0.18212 0.63702 0.0
C685 C 0.95867 0.18836 0.66343 0.0
C686 C 0.9639 0.21067 0.68182 0.0
C687 C 0.98572 0.22644 0.67379 0.0
C688 C 0.0021 0.21963 0.64781 0.0
C689 C 0.99532 0.19774 0.62857 0.0
H690 H 0.92739 0.88204 0.63889 0.0
H691 H 0.85504 0.83579 0.63568 0.0
H692 H 0.82857 0.877 0.63581 0.0
H693 H 0.90492 0.93094 0.69139 0.0
H694 H 0.92159 0.9582 0.67225 0.0
H695 H 0.93486 0.92515 0.66911 0.0
H696 H 0.93368 0.92876 0.60786 0.0
H697 H 0.92027 0.96184 0.61082 0.0
H698 H 0.90297 0.93694 0.58826 0.0
H699 H 0.8101 0.92221 0.64338 0.0
H700 H 0.80081 0.9693 0.65557 0.0
H701 H 0.88459 0.98715 0.64974 0.0
C702 C 0.90599 0.88069 0.63805 0.0
C703 C 0.8932 0.85581 0.63728 0.0
C704 C 0.86518 0.8547 0.63593 0.0
C705 C 0.85 0.87797 0.63602 0.0
C706 C 0.86318 0.90219 0.63696 0.0
C707 C 0.89053 0.90378 0.63763 0.0
C708 C 0.89966 0.93234 0.6398 0.0
C709 C 0.91623 0.93691 0.66993 0.0
C710 C 0.91505 0.94045 0.6099 0.0
C711 C 0.87315 0.94644 0.64155 0.0
C712 C 0.85237 0.92863 0.63971 0.0
C713 C 0.82612 0.93646 0.64398 0.0
C714 C 0.821 0.96314 0.6508 0.0
C715 C 0.84195 0.98162 0.65254 0.0
C716 C 0.86827 0.97335 0.64738 0.0
H717 H 0.97739 0.81045 0.59046 0.0
H718 H 0.02346 0.73797 0.59703 0.0
H719 H 0.06314 0.76402 0.61062 0.0
H720 H 0.03551 0.85551 0.56273 0.0
H721 H 0.02254 0.88248 0.58611 0.0
H722 H 0.0002 0.85919 0.56777 0.0
H723 H 0.97916 0.85063 0.6224 0.0
H724 H 0.0021 0.87248 0.64169 0.0
H725 H -0.00056 0.83846 0.65451 0.0
H726 H 0.09358 0.79535 0.63651 0.0
H727 H 0.11582 0.83199 0.66502 0.0
H728 H 0.05099 0.88478 0.6416 0.0
C729 C 0.99621 0.80026 0.59285 0.0
C730 C 0.99754 0.77227 0.59253 0.0
C731 C 0.02221 0.75944 0.59696 0.0
C732 C 0.0448 0.77407 0.60477 0.0
C733 C 0.04239 0.8015 0.60761 0.0
C734 C 0.01895 0.81465 0.60085 0.0
C735 C 0.02078 0.84379 0.6096 0.0
C736 C 0.0197 0.86127 0.57977 0.0
C737 C -0.00091 0.85177 0.63348 0.0
C738 C 0.04805 0.84442 0.62455 0.0
C739 C 0.0603 0.81989 0.62268 0.0
C740 C 0.08451 0.8148 0.6374 0.0
C741 C 0.09677 0.83547 0.65391 0.0
C742 C 0.08477 0.86077 0.6556 0.0
C743 C 0.0603 0.86543 0.64053 0.0
H744 H 0.65511 0.49663 0.89701 0.0
H745 H 0.68424 0.51856 0.80392 0.0
H746 H 0.66449 0.47826 0.78117 0.0
H747 H 0.67001 0.42929 0.89016 0.0
H748 H 0.64128 0.41718 0.91098 0.0
H749 H 0.65403 0.44969 0.9196 0.0
H750 H 0.6081 0.47039 0.90726 0.0
H751 H 0.59515 0.43785 0.89875 0.0
H752 H 0.59253 0.4639 0.8696 0.0
H753 H 0.64652 0.43398 0.76929 0.0
H754 H 0.63161 0.38774 0.76901 0.0
H755 H 0.61322 0.39372 0.86951 0.0
C756 C 0.65663 0.49316 0.87175 0.0
C757 C 0.67104 0.51062 0.85213 0.0
C758 C 0.67331 0.50529 0.81931 0.0
C759 C 0.66204 0.48256 0.80612 0.0
C760 C 0.64858 0.46528 0.82608 0.0
C761 C 0.64571 0.47022 0.85817 0.0
C762 C 0.63242 0.44702 0.8746 0.0
C763 C 0.65052 0.4351 0.90034 0.0
C764 C 0.60544 0.45529 0.88836 0.0
C765 C 0.62909 0.42815 0.84689 0.0
C766 C 0.63822 0.43925 0.81911 0.0
C767 C 0.63885 0.42513 0.79079 0.0
C768 C 0.63024 0.39874 0.7909 0.0
C769 C 0.62116 0.38658 0.8192 0.0
C770 C 0.62015 0.40191 0.84737 0.0
H771 H 0.49964 0.66104 0.84831 0.0
H772 H 0.51146 0.71469 0.76896 0.0
H773 H 0.55563 0.69544 0.75975 0.0
H774 H 0.56762 0.66277 0.87671 0.0
H775 H 0.56799 0.6282 0.88766 0.0
H776 H 0.53733 0.64657 0.88844 0.0
H777 H 0.51602 0.61186 0.851 0.0
H778 H 0.5467 0.59354 0.84986 0.0
H779 H 0.53154 0.60464 0.81349 0.0
H780 H 0.59833 0.6703 0.75853 0.0
H781 H 0.63789 0.64259 0.76763 0.0
H782 H 0.59796 0.60413 0.84642 0.0
C783 C 0.51162 0.66887 0.82918 0.0
C784 C 0.50205 0.68936 0.80936 0.0
C785 C 0.5183 0.69897 0.78447 0.0
C786 C 0.54344 0.68814 0.77896 0.0
C787 C 0.55211 0.66768 0.79852 0.0
C788 C 0.53684 0.65823 0.82328 0.0
C789 C 0.55101 0.6361 0.84076 0.0
C790 C 0.5563 0.64388 0.87544 0.0
C791 C 0.53538 0.60999 0.83863 0.0
C792 C 0.57654 0.63464 0.82189 0.0
C793 C 0.57675 0.65299 0.79763 0.0
C794 C 0.5984 0.65575 0.7774 0.0
C795 C 0.62074 0.63971 0.78259 0.0
C796 C 0.62127 0.62112 0.80781 0.0
C797 C 0.59851 0.61831 0.8272 0.0
H798 H 0.31548 0.50412 0.77836 0.0
H799 H 0.34694 0.47652 0.86842 0.0
H800 H 0.37387 0.51716 0.87259 0.0
H801 H 0.37481 0.53247 0.74925 0.0
H802 H 0.35892 0.56059 0.73083 0.0
H803 H 0.34112 0.52988 0.73532 0.0
H804 H 0.30365 0.55428 0.76566 0.0
H805 H 0.32113 0.58514 0.76084 0.0
H806 H 0.31181 0.57403 0.79988 0.0
H807 H 0.3992 0.55929 0.86552 0.0
H808 H 0.41834 0.60231 0.85019 0.0
H809 H 0.36933 0.60318 0.76558 0.0
C810 C 0.32782 0.50673 0.79913 0.0
C811 C 0.32917 0.48714 0.82303 0.0
C812 C 0.34555 0.4913 0.84984 0.0
C813 C 0.36101 0.51426 0.85237 0.0
C814 C 0.35968 0.53287 0.82802 0.0
C815 C 0.34326 0.52956 0.80213 0.0
C816 C 0.34554 0.55261 0.77926 0.0
C817 C 0.35571 0.54332 0.74674 0.0
C818 C 0.31895 0.56739 0.77625 0.0
C819 C 0.36602 0.56926 0.79622 0.0
C820 C 0.37397 0.55745 0.82422 0.0
C821 C 0.39292 0.5689 0.84384 0.0
C822 C 0.4036 0.5934 0.83495 0.0
C823 C 0.39517 0.60632 0.80681 0.0
C824 C 0.37639 0.59379 0.78705 0.0
H825 H 0.41499 0.35572 0.78599 0.0
H826 H 0.40478 0.39922 0.8738 0.0
H827 H 0.44642 0.37991 0.89435 0.0
H828 H 0.44128 0.29651 0.82051 0.0
H829 H 0.46442 0.29051 0.78876 0.0
H830 H 0.43389 0.30791 0.78097 0.0
H831 H 0.46019 0.34752 0.75755 0.0
H832 H 0.49077 0.33012 0.76498 0.0
H833 H 0.48581 0.36291 0.78094 0.0
H834 H 0.48952 0.35598 0.90497 0.0
H835 H 0.53128 0.33013 0.90416 0.0
H836 H 0.51243 0.30236 0.80943 0.0
C837 C 0.42167 0.36146 0.80936 0.0
C838 C 0.40668 0.37896 0.82829 0.0
C839 C 0.41585 0.38562 0.85902 0.0
C840 C 0.43949 0.37482 0.87086 0.0
C841 C 0.45363 0.35736 0.85168 0.0
C842 C 0.4451 0.3508 0.82156 0.0
C843 C 0.46386 0.33157 0.8057 0.0
C844 C 0.45003 0.30506 0.79858 0.0
C845 C 0.47587 0.34377 0.77552 0.0
C846 C 0.48441 0.32849 0.83151 0.0
C847 C 0.47818 0.34346 0.85789 0.0
C848 C 0.49459 0.34414 0.88447 0.0
C849 C 0.51821 0.3294 0.88381 0.0
C850 C 0.52503 0.31424 0.85676 0.0
C851 C 0.50769 0.31361 0.83054 0.0
H852 H 0.65492 0.61557 0.19065 0.0
H853 H 0.60087 0.60437 0.11188 0.0
H854 H 0.62751 0.56623 0.09362 0.0
H855 H 0.71615 0.59442 0.14937 0.0
H856 H 0.72883 0.57787 0.1841 0.0
H857 H 0.70776 0.60658 0.18826 0.0
H858 H 0.67557 0.57957 0.22368 0.0
H859 H 0.69663 0.55096 0.21983 0.0
H860 H 0.66214 0.54882 0.20897 0.0
H861 H 0.65691 0.52622 0.08771 0.0
H862 H 0.68534 0.48686 0.09592 0.0
H863 H 0.71994 0.52418 0.1788 0.0
C864 C 0.64879 0.60525 0.16942 0.0
C865 C 0.62593 0.61314 0.15254 0.0
C866 C 0.61863 0.59909 0.12481 0.0
C867 C 0.63361 0.57734 0.1143 0.0
C868 C 0.65592 0.56995 0.13171 0.0
C869 C 0.66349 0.58352 0.15868 0.0
C870 C 0.68686 0.57028 0.1747 0.0
C871 C 0.71135 0.58837 0.17405 0.0
C872 C 0.67986 0.5619 0.20879 0.0
C873 C 0.69056 0.5465 0.15331 0.0
C874 C 0.67285 0.54688 0.12831 0.0
C875 C 0.67115 0.52591 0.10689 0.0
C876 C 0.68738 0.50364 0.11175 0.0
C877 C 0.70491 0.50247 0.13796 0.0
C878 C 0.70704 0.52459 0.1583 0.0
H879 H 0.47279 0.66628 0.20759 0.0
H880 H 0.50897 0.63017 0.12486 0.0
H881 H 0.46944 0.60189 0.1179 0.0
H882 H 0.43666 0.60679 0.23635 0.0
H883 H 0.40824 0.6262 0.24798 0.0
H884 H 0.44091 0.64058 0.24934 0.0
H885 H 0.42506 0.67918 0.2133 0.0
H886 H 0.39243 0.66498 0.21191 0.0
H887 H 0.41 0.6717 0.1756 0.0
H888 H 0.42462 0.58089 0.11692 0.0
H889 H 0.37686 0.5707 0.11997 0.0
H890 H 0.3696 0.62179 0.20216 0.0
C891 C 0.47267 0.65197 0.18846 0.0
C892 C 0.49396 0.65022 0.16691 0.0
C893 C 0.49284 0.63174 0.1417 0.0
C894 C 0.47058 0.61549 0.13769 0.0
C895 C 0.4497 0.61801 0.15909 0.0
C896 C 0.45053 0.63583 0.18395 0.0
C897 C 0.42443 0.63677 0.20156 0.0
C898 C 0.42777 0.62699 0.23584 0.0
C899 C 0.41227 0.66481 0.2005 0.0
C900 C 0.40849 0.61733 0.18209 0.0
C901 C 0.42356 0.60634 0.15809 0.0
C902 C 0.41269 0.58917 0.13578 0.0
C903 C 0.38553 0.58366 0.13757 0.0
C904 C 0.36953 0.59555 0.16123 0.0
C905 C 0.38139 0.61202 0.18421 0.0
H906 H 0.32366 0.52316 0.11541 0.0
H907 H 0.2463 0.48681 0.12633 0.0
H908 H 0.26781 0.4436 0.1374 0.0
H909 H 0.35768 0.46619 0.07968 0.0
H910 H 0.38796 0.47249 0.10104 0.0
H911 H 0.36634 0.49963 0.09066 0.0
H912 H 0.36431 0.51361 0.14964 0.0
H913 H 0.38558 0.48632 0.16035 0.0
H914 H 0.35363 0.48991 0.17899 0.0
H915 H 0.29777 0.40501 0.14927 0.0
H916 H 0.33413 0.37361 0.16147 0.0
H917 H 0.39171 0.43595 0.1458 0.0
C918 C 0.31124 0.50596 0.11935 0.0
C919 C 0.28333 0.50812 0.11963 0.0
C920 C 0.26772 0.48541 0.12581 0.0
C921 C 0.27976 0.46086 0.13212 0.0
C922 C 0.30736 0.45954 0.13247 0.0
C923 C 0.32291 0.48148 0.12623 0.0
C924 C 0.3521 0.47521 0.13009 0.0
C925 C 0.36688 0.47857 0.09848 0.0
C926 C 0.36463 0.49228 0.15633 0.0
C927 C 0.35055 0.44635 0.13977 0.0
C928 C 0.32459 0.43762 0.14066 0.0
C929 C 0.31817 0.4116 0.14861 0.0
C930 C 0.33887 0.39395 0.1555 0.0
C931 C 0.36558 0.40249 0.15475 0.0
C932 C 0.37142 0.42908 0.14703 0.0
H933 H 0.52706 0.30992 0.14379 0.0
H934 H 0.47463 0.37542 0.12059 0.0
H935 H 0.51266 0.40617 0.12171 0.0
H936 H 0.56581 0.34144 0.19758 0.0
H937 H 0.59709 0.32703 0.18606 0.0
H938 H 0.56678 0.30937 0.17871 0.0
H939 H 0.57802 0.30632 0.11883 0.0
H940 H 0.60871 0.3235 0.12622 0.0
H941 H 0.58575 0.33615 0.09714 0.0
H942 H 0.55433 0.43054 0.13525 0.0
H943 H 0.59856 0.44614 0.15255 0.0
H944 H 0.62471 0.36473 0.16299 0.0
C945 C 0.52379 0.33061 0.13802 0.0
C946 C 0.49802 0.34037 0.13211 0.0
C947 C 0.49431 0.36755 0.12485 0.0
C948 C 0.51576 0.38516 0.12554 0.0
C949 C 0.54082 0.3751 0.13267 0.0
C950 C 0.54508 0.34834 0.13787 0.0
C951 C 0.57372 0.34283 0.14647 0.0
C952 C 0.57596 0.32938 0.17914 0.0
C953 C 0.58735 0.32622 0.12061 0.0
C954 C 0.58449 0.37081 0.14715 0.0
C955 C 0.56523 0.38914 0.13901 0.0
C956 C 0.56977 0.41636 0.14088 0.0
C957 C 0.59475 0.42504 0.15105 0.0
C958 C 0.61482 0.40655 0.15891 0.0
C959 C 0.60969 0.37915 0.15661 0.0
H960 H 0.17101 0.10154 0.48454 0.0
H961 H 0.13995 0.12797 0.39382 0.0
H962 H 0.10914 0.15812 0.42115 0.0
H963 H 0.10863 0.10523 0.52875 0.0
H964 H 0.12418 0.11772 0.56416 0.0
H965 H 0.14246 0.0964 0.53774 0.0
H966 H 0.17928 0.13197 0.53291 0.0
H967 H 0.16115 0.15337 0.55931 0.0
H968 H 0.17061 0.16514 0.5206 0.0
H969 H 0.08239 0.18614 0.45788 0.0
H970 H 0.06336 0.21225 0.50183 0.0
H971 H 0.11326 0.16959 0.56855 0.0
C972 C 0.15753 0.1135 0.47052 0.0
C973 C 0.15779 0.11232 0.43711 0.0
C974 C 0.14014 0.12855 0.41947 0.0
C975 C 0.12246 0.14568 0.43476 0.0
C976 C 0.12283 0.14657 0.4677 0.0
C977 C 0.13998 0.13107 0.48543 0.0
C978 C 0.13739 0.1371 0.52046 0.0
C979 C 0.12758 0.11266 0.53885 0.0
C980 C 0.16367 0.14752 0.53411 0.0
C981 C 0.11644 0.15865 0.51949 0.0
C982 C 0.10802 0.1635 0.48888 0.0
C983 C 0.08884 0.18257 0.48198 0.0
C984 C 0.07817 0.19733 0.50706 0.0
C985 C 0.08702 0.19318 0.53851 0.0
C986 C 0.10624 0.1734 0.54472 0.0
H987 H 0.90171 0.1585 0.47224 0.0
H988 H 0.85017 0.22715 0.48214 0.0
H989 H 0.82351 0.20313 0.52154 0.0
H990 H 0.85237 0.10922 0.47934 0.0
H991 H 0.87152 0.08642 0.50308 0.0
H992 H 0.88795 0.1087 0.47609 0.0
H993 H 0.91642 0.12817 0.52158 0.0
H994 H 0.90103 0.10525 0.5487 0.0
H995 H 0.90026 0.14034 0.55681 0.0
H996 H 0.80034 0.17126 0.55606 0.0
H997 H 0.78563 0.13548 0.59144 0.0
H998 H 0.85364 0.08787 0.56384 0.0
C999 C 0.88503 0.16856 0.48306 0.0
C1000 C 0.87802 0.19472 0.47407 0.0
C1001 C 0.85607 0.20723 0.48874 0.0
C1002 C 0.84064 0.19367 0.511 0.0
C1003 C 0.84767 0.16777 0.51879 0.0
C1004 C 0.86966 0.15548 0.50595 0.0
C1005 C 0.87303 0.12767 0.51933 0.0
C1006 C 0.87111 0.10675 0.4929 0.0
C1007 C 0.89925 0.12521 0.53769 0.0
C1008 C 0.84935 0.1263 0.5415 0.0
C1009 C 0.83483 0.14956 0.54024 0.0
C1010 C 0.81165 0.15304 0.55756 0.0
C1011 C 0.80336 0.13246 0.57741 0.0
C1012 C 0.81847 0.10886 0.58036 0.0
C1013 C 0.84174 0.10571 0.56203 0.0
H1014 H 0.88521 0.80184 0.53796 0.0
H1015 H 0.83144 0.73466 0.54166 0.0
H1016 H 0.80108 0.75765 0.5051 0.0
H1017 H 0.8359 0.85232 0.53624 0.0
H1018 H 0.85336 0.87341 0.50879 0.0
H1019 H 0.8716 0.85144 0.53451 0.0
H1020 H 0.89471 0.83032 0.48576 0.0
H1021 H 0.8766 0.8523 0.4599 0.0
H1022 H 0.87482 0.81693 0.45411 0.0
H1023 H 0.7754 0.78838 0.47102 0.0
H1024 H 0.75689 0.82422 0.43808 0.0
H1025 H 0.82766 0.87129 0.45425 0.0
C1026 C 0.86716 0.79188 0.53086 0.0
C1027 C 0.86069 0.76644 0.54273 0.0
C1028 C 0.83687 0.7541 0.53289 0.0
C1029 C 0.81945 0.76701 0.51215 0.0
C1030 C 0.82624 0.79215 0.50121 0.0
C1031 C 0.84961 0.8044 0.50989 0.0
C1032 C 0.85194 0.8316 0.49472 0.0
C1033 C 0.85327 0.85348 0.52008 0.0
C1034 C 0.87594 0.83285 0.47229 0.0
C1035 C 0.82606 0.83275 0.47647 0.0
C1036 C 0.81156 0.80979 0.48073 0.0
C1037 C 0.78664 0.80638 0.46724 0.0
C1038 C 0.77625 0.82692 0.44868 0.0
C1039 C 0.79086 0.8505 0.44354 0.0
C1040 C 0.81614 0.85339 0.45759 0.0
H1041 H 0.14227 0.7968 0.44999 0.0
H1042 H 0.07343 0.84513 0.42755 0.0
H1043 H 0.08395 0.8746 0.47264 0.0
H1044 H 0.13744 0.8014 0.53461 0.0
H1045 H 0.1728 0.80305 0.54038 0.0
H1046 H 0.15949 0.78575 0.50665 0.0
H1047 H 0.18783 0.815 0.46915 0.0
H1048 H 0.20113 0.83248 0.50277 0.0
H1049 H 0.185 0.85062 0.47136 0.0
H1050 H 0.10167 0.89815 0.52121 0.0
H1051 H 0.12586 0.91462 0.56819 0.0
H1052 H 0.18381 0.85154 0.55704 0.0
C1053 C 0.12929 0.8135 0.45458 0.0
C1054 C 0.10693 0.81858 0.43534 0.0
C1055 C 0.09064 0.84082 0.44202 0.0
C1056 C 0.09646 0.85766 0.46757 0.0
C1057 C 0.11872 0.85208 0.48601 0.0
C1058 C 0.13492 0.83059 0.47973 0.0
C1059 C 0.15785 0.82909 0.50278 0.0
C1060 C 0.15681 0.80329 0.52226 0.0
C1061 C 0.18452 0.83198 0.48548 0.0
C1062 C 0.152 0.85305 0.52315 0.0
C1063 C 0.12929 0.866 0.51324 0.0
C1064 C 0.11958 0.88827 0.52903 0.0
C1065 C 0.13344 0.89745 0.55569 0.0
C1066 C 0.15683 0.88449 0.56611 0.0
C1067 C 0.1662 0.8621 0.54943 0.0
H1068 H 0.64066 0.6046 0.9713 0.0
H1069 H 0.66351 0.67149 0.91314 0.0
H1070 H 0.63234 0.70033 0.94246 0.0
H1071 H 0.56898 0.62602 0.98668 0.0
H1072 H 0.57087 0.61447 0.02707 0.0
H1073 H 0.58938 0.59776 0.99644 0.0
H1074 H 0.63241 0.60444 0.02888 0.0
H1075 H 0.61431 0.6217 0.05915 0.0
H1076 H 0.6421 0.63753 0.04025 0.0
H1077 H 0.60599 0.72318 0.98352 0.0
H1078 H 0.5864 0.73872 0.03364 0.0
H1079 H 0.58085 0.65723 0.06637 0.0
C1080 C 0.63803 0.62504 0.96397 0.0
C1081 C 0.65375 0.63595 0.93974 0.0
C1082 C 0.65107 0.66294 0.9314 0.0
C1083 C 0.63341 0.67936 0.94782 0.0
C1084 C 0.61878 0.66837 0.97256 0.0
C1085 C 0.62074 0.64177 0.98052 0.0
C1086 C 0.60609 0.63588 0.01103 0.0
C1087 C 0.58242 0.61744 0.00493 0.0
C1088 C 0.62487 0.62421 0.03629 0.0
C1089 C 0.59691 0.66351 0.01985 0.0
C1090 C 0.6039 0.68184 0.99699 0.0
C1091 C 0.5999 0.70896 0.0013 0.0
C1092 C 0.5889 0.7176 0.02995 0.0
C1093 C 0.5822 0.6992 0.054 0.0
C1094 C 0.58566 0.67179 0.04843 0.0
H1095 H 0.35515 0.71279 0.92694 0.0
H1096 H 0.41658 0.65378 0.91202 0.0
H1097 H 0.39655 0.62567 0.95392 0.0
H1098 H 0.34822 0.70501 0.0118 0.0
H1099 H 0.31274 0.70926 0.01067 0.0
H1100 H 0.33323 0.72519 0.98136 0.0
H1101 H 0.30612 0.70266 0.93667 0.0
H1102 H 0.28562 0.68658 0.96581 0.0
H1103 H 0.30275 0.66705 0.93646 0.0
H1104 H 0.369 0.60413 0.99817 0.0
H1105 H 0.33514 0.59004 0.03736 0.0
H1106 H 0.29093 0.6624 0.01941 0.0
C1107 C 0.36469 0.69415 0.93276 0.0
C1108 C 0.38763 0.6856 0.91653 0.0
C1109 C 0.39908 0.66076 0.92435 0.0
C1110 C 0.38787 0.64471 0.94812 0.0
C1111 C 0.36506 0.6537 0.96351 0.0
C1112 C 0.35355 0.67779 0.95589 0.0
C1113 C 0.32829 0.68241 0.97433 0.0
C1114 C 0.33078 0.70692 0.99582 0.0
C1115 C 0.30428 0.6848 0.95198 0.0
C1116 C 0.32722 0.65713 0.99355 0.0
C1117 C 0.34873 0.6409 0.98741 0.0
C1118 C 0.35203 0.61666 0.00298 0.0
C1119 C 0.33276 0.60882 0.02519 0.0
C1120 C 0.3103 0.62499 0.03112 0.0
C1121 C 0.30768 0.64943 0.01508 0.0
H1122 H 0.2988 0.34073 0.93047 0.0
H1123 H 0.33705 0.41755 0.92438 0.0
H1124 H 0.36383 0.40681 0.9718 0.0
H1125 H 0.2976 0.33496 0.01679 0.0
H1126 H 0.30526 0.30002 0.01633 0.0
H1127 H 0.28741 0.31474 0.98375 0.0
H1128 H 0.32285 0.29691 0.94468 0.0
H1129 H 0.34089 0.28231 0.97714 0.0
H1130 H 0.35721 0.30523 0.9508 0.0
H1131 H 0.38659 0.38762 0.01931 0.0
H1132 H 0.40583 0.36034 0.06217 0.0
H1133 H 0.35523 0.29461 0.03497 0.0
C1134 C 0.31244 0.35544 0.93957 0.0
C1135 C 0.31567 0.38011 0.92423 0.0
C1136 C 0.33424 0.39862 0.93608 0.0
C1137 C 0.34948 0.39271 0.96295 0.0
C1138 C 0.34614 0.36804 0.97732 0.0
C1139 C 0.32824 0.34962 0.96597 0.0
C1140 C 0.32984 0.3239 0.98451 0.0
C1141 C 0.30346 0.31807 0.00134 0.0
C1142 C 0.3382 0.30072 0.96299 0.0
C1143 C 0.35145 0.33076 0.00802 0.0
C1144 C 0.36032 0.35643 0.0037 0.0
C1145 C 0.37989 0.36746 0.02286 0.0
C1146 C 0.39068 0.35181 0.04712 0.0
C1147 C 0.38216 0.32532 0.05169 0.0
C1148 C 0.36234 0.31469 0.03178 0.0
H1149 H 0.60565 0.32604 0.99077 0.0
H1150 H 0.65718 0.33868 0.9097 0.0
H1151 H 0.69012 0.35983 0.9442 0.0
H1152 H 0.62177 0.38922 0.03074 0.0
H1153 H 0.62044 0.37456 0.0697 0.0
H1154 H 0.60005 0.36156 0.03831 0.0
H1155 H 0.62003 0.31499 0.04794 0.0
H1156 H 0.64107 0.32783 0.07877 0.0
H1157 H 0.65545 0.31039 0.04571 0.0
H1158 H 0.71956 0.37494 0.98767 0.0
H1159 H 0.74164 0.38831 0.03756 0.0
H1160 H 0.67023 0.36942 0.09 0.0
C1161 C 0.62369 0.33359 0.98022 0.0
C1162 C 0.62903 0.3302 0.9476 0.0
C1163 C 0.65287 0.34042 0.93471 0.0
C1164 C 0.67168 0.35266 0.95408 0.0
C1165 C 0.66621 0.35496 0.98623 0.0
C1166 C 0.64263 0.34621 0.99922 0.0
C1167 C 0.64204 0.35081 0.03472 0.0
C1168 C 0.61976 0.3702 0.04389 0.0
C1169 C 0.6395 0.32443 0.05283 0.0
C1170 C 0.66913 0.36311 0.03953 0.0
C1171 C 0.6828 0.36509 0.01127 0.0
C1172 C 0.70893 0.37398 0.00991 0.0
C1173 C 0.72134 0.38133 0.03824 0.0
C1174 C 0.70742 0.3801 0.06723 0.0
C1175 C 0.68101 0.371 0.06791 0.0
H1176 H 0.25807 0.16239 0.25727 0.0
H1177 H 0.25078 0.20416 0.34671 0.0
H1178 H 0.27476 0.24241 0.3239 0.0
H1179 H 0.32304 0.18179 0.24077 0.0
H1180 H 0.3182 0.18507 0.19862 0.0
H1181 H 0.29806 0.16236 0.22096 0.0
H1182 H 0.2556 0.18558 0.20003 0.0
H1183 H 0.27566 0.20845 0.17764 0.0
H1184 H 0.25156 0.22082 0.2055 0.0
H1185 H 0.3034 0.27383 0.29325 0.0
H1186 H 0.33419 0.29652 0.25657 0.0
H1187 H 0.32225 0.23429 0.18717 0.0
C1188 C 0.26137 0.17966 0.27198 0.0
C1189 C 0.25263 0.18038 0.30372 0.0
C1190 C 0.2571 0.20338 0.3222 0.0
C1191 C 0.27071 0.22514 0.30948 0.0
C1192 C 0.2794 0.22362 0.2782 0.0
C1193 C 0.27477 0.20154 0.25964 0.0
C1194 C 0.28743 0.20424 0.22733 0.0
C1195 C 0.3079 0.18205 0.22161 0.0
C1196 C 0.2663 0.20481 0.20108 0.0
C1197 C 0.30062 0.23096 0.23094 0.0
C1198 C 0.29558 0.24193 0.26036 0.0
C1199 C 0.30717 0.26566 0.26998 0.0
C1200 C 0.32466 0.27832 0.24911 0.0
C1201 C 0.3303 0.26719 0.21907 0.0
C1202 C 0.31776 0.24348 0.20974 0.0
H1203 H 0.75841 0.30374 0.20664 0.0
H1204 H 0.72088 0.34881 0.28169 0.0
H1205 H 0.7352 0.31518 0.32074 0.0
H1206 H 0.74728 0.23512 0.2424 0.0
H1207 H 0.77939 0.22412 0.22897 0.0
H1208 H 0.76094 0.24811 0.2061 0.0
H1209 H 0.80091 0.28028 0.20832 0.0
H1210 H 0.81936 0.25658 0.23123 0.0
H1211 H 0.81432 0.28965 0.24631 0.0
H1212 H 0.76017 0.28216 0.35217 0.0
H1213 H 0.79508 0.2533 0.37389 0.0
H1214 H 0.81593 0.22839 0.27864 0.0
C1215 C 0.75234 0.30589 0.23112 0.0
C1216 C 0.73844 0.32864 0.24126 0.0
C1217 C 0.73156 0.33143 0.27358 0.0
C1218 C 0.73938 0.31233 0.29583 0.0
C1219 C 0.7539 0.29052 0.28528 0.0
C1220 C 0.76018 0.28708 0.25363 0.0
C1221 C 0.77917 0.26412 0.24907 0.0
C1222 C 0.76589 0.24152 0.23054 0.0
C1223 C 0.80495 0.27322 0.2328 0.0
C1224 C 0.7839 0.25628 0.28324 0.0
C1225 C 0.7686 0.27126 0.30369 0.0
C1226 C 0.77173 0.26976 0.33643 0.0
C1227 C 0.79159 0.25318 0.34857 0.0
C1228 C 0.80824 0.23848 0.32798 0.0
C1229 C 0.80355 0.23937 0.29499 0.0
H1230 H 0.71926 0.82006 0.31072 0.0
H1231 H 0.74453 0.87626 0.23901 0.0
H1232 H 0.71942 0.85128 0.19842 0.0
H1233 H 0.72005 0.76051 0.26031 0.0
H1234 H 0.69084 0.74711 0.27892 0.0
H1235 H 0.71309 0.76784 0.30128 0.0
H1236 H 0.674 0.79918 0.31533 0.0
H1237 H 0.65169 0.77868 0.29292 0.0
H1238 H 0.65445 0.81352 0.28388 0.0
H1239 H 0.68934 0.82157 0.16663 0.0
H1240 H 0.65512 0.7906 0.14663 0.0
H1241 H 0.64954 0.75478 0.23986 0.0
C1242 C 0.72 0.82673 0.28633 0.0
C1243 C 0.7339 0.84988 0.27781 0.0
C1244 C 0.73388 0.85853 0.24589 0.0
C1245 C 0.71986 0.8444 0.22272 0.0
C1246 C 0.70604 0.82178 0.23202 0.0
C1247 C 0.70602 0.81303 0.26308 0.0
C1248 C 0.68804 0.78941 0.26753 0.0
C1249 C 0.70396 0.76475 0.27759 0.0
C1250 C 0.66573 0.79559 0.29131 0.0
C1251 C 0.67744 0.78658 0.23426 0.0
C1252 C 0.68832 0.80513 0.21396 0.0
C1253 C 0.68085 0.8068 0.18223 0.0
C1254 C 0.66149 0.78918 0.17109 0.0
C1255 C 0.64973 0.77053 0.19182 0.0
C1256 C 0.6581 0.76905 0.22363 0.0
H1257 H 0.149 0.76566 0.23298 0.0
H1258 H 0.20269 0.76783 0.31317 0.0
H1259 H 0.23869 0.75045 0.27918 0.0
H1260 H 0.16615 0.7049 0.20955 0.0
H1261 H 0.16274 0.71039 0.16753 0.0
H1262 H 0.14408 0.73025 0.19481 0.0
H1263 H 0.16387 0.77304 0.17025 0.0
H1264 H 0.18265 0.75319 0.14267 0.0
H1265 H 0.19934 0.7768 0.16772 0.0
H1266 H 0.26575 0.72475 0.23983 0.0
H1267 H 0.2802 0.69124 0.20052 0.0
H1268 H 0.20741 0.70286 0.14804 0.0
C1269 C 0.16852 0.76308 0.24325 0.0
C1270 C 0.17306 0.76792 0.27573 0.0
C1271 C 0.19887 0.76451 0.28824 0.0
C1272 C 0.21941 0.75466 0.26907 0.0
C1273 C 0.2138 0.7486 0.23749 0.0
C1274 C 0.18891 0.75285 0.22467 0.0
C1275 C 0.18633 0.74064 0.19212 0.0
C1276 C 0.1635 0.72034 0.19098 0.0
C1277 C 0.18285 0.76221 0.16669 0.0
C1278 C 0.21304 0.72733 0.18935 0.0
C1279 C 0.22904 0.73293 0.21516 0.0
C1280 C 0.25368 0.72076 0.21918 0.0
C1281 C 0.26175 0.70183 0.19681 0.0
C1282 C 0.24492 0.69496 0.17132 0.0
C1283 C 0.22071 0.70835 0.16709 0.0
H1284 H 0.30942 0.77232 0.80846 0.0
H1285 H 0.32725 0.71989 0.73011 0.0
H1286 H 0.29007 0.73925 0.6994 0.0
H1287 H 0.23545 0.77531 0.79668 0.0
H1288 H 0.23443 0.81003 0.80682 0.0
H1289 H 0.25893 0.78862 0.82466 0.0
H1290 H 0.29612 0.81995 0.80494 0.0
H1291 H 0.27185 0.84127 0.78683 0.0
H1292 H 0.29839 0.82764 0.76329 0.0
H1293 H 0.25543 0.76807 0.67501 0.0
H1294 H 0.22636 0.80486 0.65802 0.0
H1295 H 0.23126 0.83904 0.75221 0.0
C1296 C 0.30475 0.7644 0.78527 0.0
C1297 C 0.32055 0.74442 0.77161 0.0
C1298 C 0.31485 0.73497 0.74087 0.0
C1299 C 0.29383 0.74579 0.7234 0.0
C1300 C 0.27889 0.76602 0.73714 0.0
C1301 C 0.284 0.77518 0.76745 0.0
C1302 C 0.26711 0.79913 0.77528 0.0
C1303 C 0.24783 0.79288 0.80247 0.0
C1304 C 0.28441 0.82342 0.78302 0.0
C1305 C 0.25252 0.80266 0.74424 0.0
C1306 C 0.25919 0.78307 0.72277 0.0
C1307 C 0.24963 0.78323 0.69179 0.0
C1308 C 0.23309 0.80417 0.68238 0.0
C1309 C 0.22653 0.82477 0.70381 0.0
C1310 C 0.23601 0.82363 0.73527 0.0
H1311 H 0.25061 0.29132 0.80181 0.0
H1312 H 0.3067 0.31244 0.72869 0.0
H1313 H 0.2878 0.27826 0.6935 0.0
H1314 H 0.24081 0.21695 0.77675 0.0
H1315 H 0.20599 0.21974 0.78576 0.0
H1316 H 0.22999 0.23761 0.80913 0.0
H1317 H 0.20487 0.28142 0.79753 0.0
H1318 H 0.18116 0.26392 0.77399 0.0
H1319 H 0.19927 0.29124 0.75695 0.0
H1320 H 0.25604 0.25265 0.66209 0.0
H1321 H 0.2139 0.23912 0.63716 0.0
H1322 H 0.17699 0.235 0.72963 0.0
C1323 C 0.25978 0.28745 0.77908 0.0
C1324 C 0.28026 0.30384 0.76793 0.0
C1325 C 0.29124 0.29954 0.73759 0.0
C1326 C 0.28069 0.28011 0.71759 0.0
C1327 C 0.2592 0.26526 0.72837 0.0
C1328 C 0.24903 0.26848 0.75867 0.0
C1329 C 0.22261 0.25463 0.76223 0.0
C1330 C 0.22501 0.23081 0.7848 0.0
C1331 C 0.20073 0.27397 0.77327 0.0
C1332 C 0.21826 0.24555 0.7285 0.0
C1333 C 0.24006 0.25077 0.70962 0.0
C1334 C 0.23919 0.24764 0.67677 0.0
C1335 C 0.21519 0.24001 0.66276 0.0
C1336 C 0.1924 0.23613 0.68163 0.0
C1337 C 0.19433 0.23775 0.71488 0.0
H1338 H 0.68998 0.23511 0.7705 0.0
H1339 H 0.72449 0.23787 0.86451 0.0
H1340 H 0.76322 0.21222 0.84533 0.0
H1341 H 0.70621 0.17057 0.75343 0.0
H1342 H 0.71358 0.17594 0.71213 0.0
H1343 H 0.69076 0.19755 0.73221 0.0
H1344 H 0.71903 0.23831 0.71609 0.0
H1345 H 0.74199 0.21675 0.69584 0.0
H1346 H 0.75378 0.23911 0.72601 0.0
H1347 H 0.79431 0.1808 0.81782 0.0
H1348 H 0.81655 0.14782 0.78332 0.0
H1349 H 0.7622 0.16727 0.70715 0.0
C1350 C 0.70595 0.23067 0.78685 0.0
C1351 C 0.70443 0.23828 0.81889 0.0
C1352 C 0.72556 0.23228 0.83976 0.0
C1353 C 0.74755 0.21778 0.82908 0.0
C1354 C 0.74818 0.20999 0.79741 0.0
C1355 C 0.72809 0.21656 0.77649 0.0
C1356 C 0.73253 0.20436 0.74426 0.0
C1357 C 0.70941 0.18602 0.73499 0.0
C1358 C 0.73712 0.22592 0.71906 0.0
C1359 C 0.7576 0.18885 0.75067 0.0
C1360 C 0.76652 0.19252 0.78134 0.0
C1361 C 0.78791 0.17822 0.79354 0.0
C1362 C 0.80029 0.15949 0.77393 0.0
C1363 C 0.79121 0.15539 0.74259 0.0
C1364 C 0.76995 0.17061 0.73075 0.0
H1365 H 0.79313 0.63766 0.81377 0.0
H1366 H 0.75011 0.70505 0.85228 0.0
H1367 H 0.77434 0.73479 0.81579 0.0
H1368 H 0.85687 0.67235 0.80349 0.0
H1369 H 0.86409 0.6542 0.76772 0.0
H1370 H 0.84471 0.63899 0.79863 0.0
H1371 H 0.80723 0.62976 0.75807 0.0
H1372 H 0.82621 0.64533 0.72718 0.0
H1373 H 0.7932 0.65698 0.7359 0.0
H1374 H 0.80025 0.75621 0.77091 0.0
H1375 H 0.82858 0.76791 0.72493 0.0
H1376 H 0.85549 0.68633 0.71912 0.0
C1377 C 0.78935 0.65874 0.81558 0.0
C1378 C 0.76972 0.66895 0.83611 0.0
C1379 C 0.76488 0.69668 0.83658 0.0
C1380 C 0.77863 0.71375 0.81606 0.0
C1381 C 0.79736 0.70279 0.79561 0.0
C1382 C 0.80302 0.67597 0.79569 0.0
C1383 C 0.82325 0.66879 0.77077 0.0
C1384 C 0.84874 0.65795 0.78607 0.0
C1385 C 0.81177 0.64906 0.74656 0.0
C1386 C 0.82772 0.69568 0.75608 0.0
C1387 C 0.81263 0.71511 0.77059 0.0
C1388 C 0.81246 0.74124 0.7597 0.0
C1389 C 0.82838 0.74765 0.73352 0.0
C1390 C 0.84424 0.728 0.71885 0.0
C1391 C 0.84384 0.70178 0.73033 0.0
H1392 H 0.25936 0.06613 0.48424 0.0
H1393 H 0.26029 0.00228 0.4156 0.0
H1394 H 0.26231 0.96956 0.45925 0.0
H1395 H 0.3016 0.03243 0.54712 0.0
H1396 H 0.28142 0.04636 0.57821 0.0
H1397 H 0.28642 0.06455 0.54189 0.0
H1398 H 0.23554 0.06805 0.53445 0.0
H1399 H 0.23036 0.04974 0.57041 0.0
H1400 H 0.21595 0.03817 0.53386 0.0
H1401 H 0.25561 0.94438 0.50917 0.0
H1402 H 0.24058 0.92853 0.56159 0.0
H1403 H 0.24412 0.00871 0.59796 0.0
C1404 C 0.2613 0.04534 0.47834 0.0
C1405 C 0.26007 0.03668 0.44655 0.0
C1406 C 0.26138 0.00923 0.43983 0.0
C1407 C 0.26269 0.99058 0.46446 0.0
C1408 C 0.26284 -0.00024 0.49563 0.0
C1409 C 0.26241 0.02654 0.50264 0.0
C1410 C 0.25883 0.03127 0.53782 0.0
C1411 C 0.28355 0.04443 0.5521 0.0
C1412 C 0.23368 0.04776 0.54449 0.0
C1413 C 0.25592 0.003 0.54934 0.0
C1414 C 0.25884 0.9851 0.52472 0.0
C1415 C 0.25399 0.95812 0.52877 0.0
C1416 C 0.24535 0.94931 0.55849 0.0
C1417 C 0.24156 0.96742 0.5837 0.0
C1418 C 0.24767 0.99443 0.57929 0.0
H1419 H 0.99291 0.26949 0.41832 0.0
H1420 H 0.92495 0.30711 0.46165 0.0
H1421 H 0.95382 0.32536 0.5039 0.0
H1422 H 0.02244 0.24732 0.48418 0.0
H1423 H 0.05613 0.25352 0.47197 0.0
H1424 H 0.03092 0.24852 0.44268 0.0
H1425 H 0.04338 0.29384 0.41736 0.0
H1426 H 0.06832 0.29884 0.44737 0.0
H1427 H 0.04285 0.32345 0.44129 0.0
H1428 H 0.9876 0.32957 0.54711 0.0
H1429 H 0.02397 0.32192 0.58561 0.0
H1430 H 0.07067 0.2847 0.51213 0.0
C1431 C 0.98446 0.28241 0.43616 0.0
C1432 C 0.95698 0.28714 0.43696 0.0
C1433 C 0.94613 0.30372 0.46064 0.0
C1434 C 0.96237 0.31411 0.4846 0.0
C1435 C 0.98943 0.30828 0.48385 0.0
C1436 C 0.00048 0.2933 0.45975 0.0
C1437 C 0.02944 0.28753 0.46589 0.0
C1438 C 0.035 0.25744 0.46624 0.0
C1439 C 0.04704 0.30178 0.44153 0.0
C1440 C 0.03246 0.29968 0.49843 0.0
C1441 C 0.00934 0.312 0.50823 0.0
C1442 C 0.00614 0.32096 0.53929 0.0
C1443 C 0.02679 0.31657 0.56099 0.0
C1444 C 0.05028 0.30354 0.55143 0.0
C1445 C 0.0534 0.29585 0.51955 0.0
H1446 H 0.75516 0.92415 0.49929 0.0
H1447 H 0.68748 0.96677 0.46128 0.0
H1448 H 0.68196 0.98975 0.51237 0.0
H1449 H 0.73374 0.92232 0.58527 0.0
H1450 H 0.76729 0.92826 0.59814 0.0
H1451 H 0.76117 0.90967 0.5624 0.0
H1452 H 0.79098 0.94229 0.53103 0.0
H1453 H 0.79701 0.9609 0.56651 0.0
H1454 H 0.78359 0.9773 0.53205 0.0
H1455 H 0.68927 0.01448 0.56325 0.0
H1456 H 0.70965 0.03908 0.60789 0.0
H1457 H 0.77401 0.98228 0.61042 0.0
C1458 C 0.73878 0.93784 0.50187 0.0
C1459 C 0.72187 0.94371 0.47616 0.0
C1460 C 0.70053 0.96163 0.48068 0.0
C1461 C 0.69724 0.97483 0.50969 0.0
C1462 C 0.7153 0.96971 0.53396 0.0
C1463 C 0.73557 0.95142 0.53037 0.0
C1464 C 0.75493 0.95248 0.55767 0.0
C1465 C 0.75422 0.92664 0.57702 0.0
C1466 C 0.78327 0.95863 0.5461 0.0
C1467 C 0.74333 0.97532 0.57621 0.0
C1468 C 0.72002 0.9845 0.56284 0.0
C1469 C 0.70715 0.00707 0.57435 0.0
C1470 C 0.7188 0.02091 0.59964 0.0
C1471 C 0.74328 0.0124 0.61243 0.0
C1472 C 0.75518 0.98897 0.60112 0.0
H1473 H 0.98424 0.67761 0.54934 0.0
H1474 H 0.90881 0.68839 0.50282 0.0
H1475 H 0.93102 0.68809 0.45062 0.0
H1476 H 0.01551 0.72272 0.50856 0.0
H1477 H 0.04754 0.70702 0.50532 0.0
H1478 H 0.02593 0.69846 0.53745 0.0
H1479 H 0.02783 0.64888 0.52159 0.0
H1480 H 0.05004 0.65713 0.48959 0.0
H1481 H 0.01989 0.63921 0.48159 0.0
H1482 H 0.96106 0.69915 0.40697 0.0
H1483 H 0.99685 0.7184 0.37427 0.0
H1484 H 0.05373 0.70101 0.44816 0.0
C1485 C 0.97247 0.67802 0.52789 0.0
C1486 C 0.94489 0.68207 0.52959 0.0
C1487 C 0.92989 0.68441 0.50152 0.0
C1488 C 0.94239 0.68433 0.47192 0.0
C1489 C 0.96992 0.68197 0.47096 0.0
C1490 C 0.98484 0.67844 0.49822 0.0
C1491 C 0.01418 0.68155 0.49152 0.0
C1492 C 0.02647 0.70375 0.5119 0.0
C1493 C 0.02885 0.65511 0.49635 0.0
C1494 C 0.01331 0.68914 0.45683 0.0
C1495 C 0.98765 0.6887 0.44525 0.0
C1496 C 0.98134 0.69867 0.41535 0.0
C1497 C 0.00165 0.70972 0.39704 0.0
C1498 C 0.0279 0.71066 0.40866 0.0
C1499 C 0.03391 0.69959 0.43849 0.0
H1500 H 0.77128 0.55624 0.00455 0.0
H1501 H 0.7597 0.50167 0.92694 0.0
H1502 H 0.78506 0.46735 0.95592 0.0
H1503 H 0.83866 0.52683 0.03476 0.0
H1504 H 0.8283 0.53275 0.07502 0.0
H1505 H 0.81855 0.5554 0.04398 0.0
H1506 H 0.76924 0.54916 0.05964 0.0
H1507 H 0.7788 0.52674 0.09043 0.0
H1508 H 0.75551 0.51614 0.06061 0.0
H1509 H 0.79696 0.43623 0.99856 0.0
H1510 H 0.79474 0.41225 0.04956 0.0
H1511 H 0.80053 0.48615 0.10021 0.0
C1512 C 0.77535 0.53743 0.99319 0.0
C1513 C 0.76379 0.53147 0.96367 0.0
C1514 C 0.76886 0.50666 0.94936 0.0
C1515 C 0.78324 0.4871 0.96572 0.0
C1516 C 0.79282 0.49294 0.99602 0.0
C1517 C 0.78954 0.51782 0.00934 0.0
C1518 C 0.79685 0.51786 0.04414 0.0
C1519 C 0.8221 0.53418 0.0498 0.0
C1520 C 0.77372 0.52803 0.06487 0.0
C1521 C 0.80207 0.48861 0.04921 0.0
C1522 C 0.80059 0.47464 0.02096 0.0
C1523 C 0.79946 0.44697 0.02055 0.0
C1524 C 0.79836 0.43342 0.04954 0.0
C1525 C 0.79856 0.44752 0.0784 0.0
C1526 C 0.80188 0.47518 0.07823 0.0
H1527 H 0.48655 0.73482 0.92296 0.0
H1528 H 0.4309 0.80027 0.92946 0.0
H1529 H 0.44082 0.80454 0.98662 0.0
H1530 H 0.46839 0.70455 0.99425 0.0
H1531 H 0.50142 0.6938 0.00444 0.0
H1532 H 0.49233 0.69798 0.9635 0.0
H1533 H 0.53138 0.73079 0.95505 0.0
H1534 H 0.54079 0.72574 0.99573 0.0
H1535 H 0.53483 0.75886 0.98121 0.0
H1536 H 0.45448 0.79892 0.04445 0.0
H1537 H 0.47248 0.7854 0.09674 0.0
H1538 H 0.518 0.72318 0.05094 0.0
C1539 C 0.47665 0.75026 0.93628 0.0
C1540 C 0.45796 0.7672 0.92172 0.0
C1541 C 0.44559 0.78731 0.93997 0.0
C1542 C 0.45093 0.78973 0.97252 0.0
C1543 C 0.46875 0.77197 0.98633 0.0
C1544 C 0.4816 0.75281 0.96863 0.0
C1545 C 0.49888 0.73528 0.98908 0.0
C1546 C 0.48969 0.70619 0.98773 0.0
C1547 C 0.52821 0.73786 0.9797 0.0
C1548 C 0.49357 0.74736 0.02119 0.0
C1549 C 0.47623 0.76854 0.01926 0.0
C1550 C 0.46822 0.78246 0.04618 0.0
C1551 C 0.47848 0.77466 0.07573 0.0
C1552 C 0.4964 0.75307 0.07807 0.0
C1553 C 0.50389 0.73935 0.05028 0.0
H1554 H 0.24773 0.51921 0.03079 0.0
H1555 H 0.18692 0.57184 0.99417 0.0
H1556 H 0.18048 0.54173 0.94834 0.0
H1557 H 0.2778 0.50529 0.95862 0.0
H1558 H 0.28529 0.4712 0.96802 0.0
H1559 H 0.28257 0.49527 -0.00074 0.0
H1560 H 0.24685 0.46641 0.02677 0.0
H1561 H 0.24941 0.44222 0.99549 0.0
H1562 H 0.21768 0.45667 0.00501 0.0
H1563 H 0.18427 0.50774 0.90388 0.0
H1564 H 0.19857 0.47398 0.8648 0.0
H1565 H 0.25642 0.44412 0.93196 0.0
C1566 C 0.233 0.52444 0.0132 0.0
C1567 C 0.21797 0.54796 0.01581 0.0
C1568 C 0.19854 0.55381 0.9926 0.0
C1569 C 0.19476 0.53684 0.96657 0.0
C1570 C 0.21036 0.514 0.96446 0.0
C1571 C 0.22899 0.50778 0.98734 0.0
C1572 C 0.24444 0.4831 0.9789 0.0
C1573 C 0.27428 0.48909 0.97601 0.0
C1574 C 0.23927 0.46078 0.00298 0.0
C1575 C 0.23228 0.47682 0.9471 0.0
C1576 C 0.2124 0.49457 0.93925 0.0
C1577 C 0.19954 0.49351 0.91001 0.0
C1578 C 0.20768 0.47422 0.88801 0.0
C1579 C 0.22864 0.45652 0.89537 0.0
C1580 C 0.24047 0.4575 0.92562 0.0
H1581 H 0.52824 0.25893 0.9368 0.0
H1582 H 0.57626 0.19249 0.96837 0.0
H1583 H 0.54469 0.18452 0.01214 0.0
H1584 H 0.51631 0.28456 0.00819 0.0
H1585 H 0.48269 0.29515 0.00099 0.0
H1586 H 0.50542 0.29211 0.96848 0.0
H1587 H 0.47351 0.25985 0.9399 0.0
H1588 H 0.45029 0.26309 0.97214 0.0
H1589 H 0.46178 0.23069 0.96029 0.0
H1590 H 0.5124 0.18897 0.05733 0.0
H1591 H 0.48211 0.205 0.09916 0.0
H1592 H 0.45481 0.26758 0.03646 0.0
C1593 C 0.53161 0.24191 0.95189 0.0
C1594 C 0.55471 0.22622 0.94896 0.0
C1595 C 0.55873 0.2048 0.97021 0.0
C1596 C 0.54081 0.20003 0.995 0.0
C1597 C 0.51882 0.21665 0.99795 0.0
C1598 C 0.514 0.23694 0.97663 0.0
C1599 C 0.4909 0.25402 0.98694 0.0
C1600 C 0.49936 0.28316 0.99142 0.0
C1601 C 0.46774 0.25176 0.96341 0.0
C1602 C 0.48429 0.241 0.01819 0.0
C1603 C 0.50024 0.2192 0.02395 0.0
C1604 C 0.49936 0.20561 0.05273 0.0
C1605 C 0.48206 0.21483 0.07636 0.0
C1606 C 0.46613 0.2376 0.07113 0.0
C1607 C 0.46684 0.25025 0.0413 0.0
loop_
_geom_bond_atom_site_label_1
_geom_bond_atom_site_label_2
_geom_bond_distance
_geom_bond_site_symmetry_2
_ccdc_geom_bond_type
C0 C1 1.351 . S
C0 N3 1.368 . S
C0 H5 0.931 . S
C1 C0 1.351 . S
C1 N2 1.373 . S
C1 H29 0.930 . S
N2 C1 1.373 . S
N2 C4 1.340 . S
N3 C0 1.368 . S
N3 C4 1.321 . S
N3 Co6 2.135 . S
C4 N2 1.340 . S
C4 N3 1.321 . S
C4 H28 0.930 . S
H5 C0 0.931 . S
Co6 N3 2.135 . S
Co6 N9 2.121 . S
Co6 O14 2.055 . S
Co6 O17 2.039 . S
Co6 N20 2.140 . S
C7 O8 1.227 . S
C7 O17 1.265 . S
O8 C7 1.227 . S
N9 Co6 2.121 . S
N9 C11 1.375 . S
N9 C12 1.313 . S
C10 C11 1.338 . S
C10 N13 1.377 . S
C10 H30 0.930 . S
C11 N9 1.375 . S
C11 C10 1.338 . S
C11 H15 0.931 . S
C12 N9 1.313 . S
C12 N13 1.344 . S
C12 H16 0.930 . S
N13 C10 1.377 . S
N13 C12 1.344 . S
O14 Co6 2.055 . S
O14 C18 1.253 . S
H15 C11 0.931 . S
H16 C12 0.930 . S
O17 Co6 2.039 . S
O17 C7 1.265 . S
C18 O14 1.253 . S
C18 O19 1.227 . S
O19 C18 1.227 . S
N20 Co6 2.140 . S
N20 C23 1.346 . S
N20 C24 1.345 . S
C21 C22 1.387 . S
C21 C25 1.391 . S
C22 C21 1.387 . S
C22 C23 1.369 . S
C22 H31 0.929 . S
C23 N20 1.346 . S
C23 C22 1.369 . S
C23 H26 0.928 . S
C24 N20 1.345 . S
C24 C25 1.371 . S
C24 H27 0.931 . S
C25 C21 1.391 . S
C25 C24 1.371 . S
C25 H32 0.930 . S
H26 C23 0.928 . S
H27 C24 0.931 . S
H28 C4 0.930 . S
H29 C1 0.930 . S
H30 C10 0.930 . S
H31 C22 0.929 . S
H32 C25 0.930 . S
C33 C34 1.351 . S
C33 N36 1.368 . S
C33 H38 0.931 . S
C34 C33 1.351 . S
C34 N35 1.373 . S
C34 H62 0.930 . S
N35 C34 1.373 . S
N35 C37 1.340 . S
N36 C33 1.368 . S
N36 C37 1.321 . S
N36 Co39 2.135 . S
C37 N35 1.340 . S
C37 N36 1.321 . S
C37 H61 0.930 . S
H38 C33 0.931 . S
Co39 N36 2.135 . S
Co39 N42 2.121 . S
Co39 O47 2.055 . S
Co39 O50 2.039 . S
Co39 N53 2.140 . S
C40 O41 1.227 . S
C40 O50 1.265 . S
O41 C40 1.227 . S
N42 Co39 2.121 . S
N42 C44 1.375 . S
N42 C45 1.313 . S
C43 C44 1.338 . S
C43 N46 1.377 . S
C43 H63 0.930 . S
C44 N42 1.375 . S
C44 C43 1.338 . S
C44 H48 0.931 . S
C45 N42 1.313 . S
C45 N46 1.344 . S
C45 H49 0.930 . S
N46 C43 1.377 . S
N46 C45 1.344 . S
O47 Co39 2.055 . S
O47 C51 1.253 . S
H48 C44 0.931 . S
H49 C45 0.930 . S
O50 Co39 2.039 . S
O50 C40 1.265 . S
C51 O47 1.253 . S
C51 O52 1.227 . S
O52 C51 1.227 . S
N53 Co39 2.140 . S
N53 C56 1.346 . S
N53 C57 1.345 . S
C54 C55 1.387 . S
C54 C58 1.391 . S
C55 C54 1.387 . S
C55 C56 1.369 . S
C55 H64 0.929 . S
C56 N53 1.346 . S
C56 C55 1.369 . S
C56 H59 0.928 . S
C57 N53 1.345 . S
C57 C58 1.371 . S
C57 H60 0.931 . S
C58 C54 1.391 . S
C58 C57 1.371 . S
C58 H65 0.930 . S
H59 C56 0.928 . S
H60 C57 0.931 . S
H61 C37 0.930 . S
H62 C34 0.930 . S
H63 C43 0.930 . S
H64 C55 0.929 . S
H65 C58 0.930 . S
C66 C67 1.351 . S
C66 N69 1.368 . S
C66 H71 0.931 . S
C67 C66 1.351 . S
C67 N68 1.373 . S
C67 H95 0.930 . S
N68 C67 1.373 . S
N68 C70 1.340 . S
N69 C66 1.368 . S
N69 C70 1.321 . S
N69 Co72 2.135 . S
C70 N68 1.340 . S
C70 N69 1.321 . S
C70 H94 0.930 . S
H71 C66 0.931 . S
Co72 N69 2.135 . S
Co72 N75 2.121 . S
Co72 O80 2.055 . S
Co72 O83 2.039 . S
Co72 N86 2.140 . S
C73 O74 1.227 . S
C73 O83 1.265 . S
O74 C73 1.227 . S
N75 Co72 2.121 . S
N75 C77 1.375 . S
N75 C78 1.313 . S
C76 C77 1.338 . S
C76 N79 1.377 . S
C76 H96 0.930 . S
C77 N75 1.375 . S
C77 C76 1.338 . S
C77 H81 0.931 . S
C78 N75 1.313 . S
C78 N79 1.344 . S
C78 H82 0.930 . S
N79 C76 1.377 . S
N79 C78 1.344 . S
O80 Co72 2.055 . S
O80 C84 1.253 . S
H81 C77 0.931 . S
H82 C78 0.930 . S
O83 Co72 2.039 . S
O83 C73 1.265 . S
C84 O80 1.253 . S
C84 O85 1.227 . S
O85 C84 1.227 . S
N86 Co72 2.140 . S
N86 C89 1.346 . S
N86 C90 1.345 . S
C87 C88 1.387 . S
C87 C91 1.391 . S
C88 C87 1.387 . S
C88 C89 1.369 . S
C88 H97 0.929 . S
C89 N86 1.346 . S
C89 C88 1.369 . S
C89 H92 0.928 . S
C90 N86 1.345 . S
C90 C91 1.371 . S
C90 H93 0.931 . S
C91 C87 1.391 . S
C91 C90 1.371 . S
C91 H98 0.930 . S
H92 C89 0.928 . S
H93 C90 0.931 . S
H94 C70 0.930 . S
H95 C67 0.930 . S
H96 C76 0.930 . S
H97 C88 0.929 . S
H98 C91 0.930 . S
C99 C100 1.351 . S
C99 N102 1.368 . S
C99 H104 0.931 . S
C100 C99 1.351 . S
C100 N101 1.373 . S
C100 H128 0.930 . S
N101 C100 1.373 . S
N101 C103 1.340 . S
N102 C99 1.368 . S
N102 C103 1.321 . S
N102 Co105 2.135 . S
C103 N101 1.340 . S
C103 N102 1.321 . S
C103 H127 0.930 . S
H104 C99 0.931 . S
Co105 N102 2.135 . S
Co105 N108 2.121 . S
Co105 O113 2.055 . S
Co105 O116 2.039 . S
Co105 N119 2.140 . S
C106 O107 1.227 . S
C106 O116 1.265 . S
O107 C106 1.227 . S
N108 Co105 2.121 . S
N108 C110 1.375 . S
N108 C111 1.313 . S
C109 C110 1.338 . S
C109 N112 1.377 . S
C109 H129 0.930 . S
C110 N108 1.375 . S
C110 C109 1.338 . S
C110 H114 0.931 . S
C111 N108 1.313 . S
C111 N112 1.344 . S
C111 H115 0.930 . S
N112 C109 1.377 . S
N112 C111 1.344 . S
O113 Co105 2.055 . S
O113 C117 1.253 . S
H114 C110 0.931 . S
H115 C111 0.930 . S
O116 Co105 2.039 . S
O116 C106 1.265 . S
C117 O113 1.253 . S
C117 O118 1.227 . S
O118 C117 1.227 . S
N119 Co105 2.140 . S
N119 C122 1.346 . S
N119 C123 1.345 . S
C120 C121 1.387 . S
C120 C124 1.391 . S
C121 C120 1.387 . S
C121 C122 1.369 . S
C121 H130 0.929 . S
C122 N119 1.346 . S
C122 C121 1.369 . S
C122 H125 0.928 . S
C123 N119 1.345 . S
C123 C124 1.371 . S
C123 H126 0.931 . S
C124 C120 1.391 . S
C124 C123 1.371 . S
C124 H131 0.930 . S
H125 C122 0.928 . S
H126 C123 0.931 . S
H127 C103 0.930 . S
H128 C100 0.930 . S
H129 C109 0.930 . S
H130 C121 0.929 . S
H131 C124 0.930 . S
C132 C133 1.351 . S
C132 N135 1.368 . S
C132 H137 0.931 . S
C133 C132 1.351 . S
C133 N134 1.373 . S
C133 H161 0.930 . S
N134 C133 1.373 . S
N134 C136 1.340 . S
N135 C132 1.368 . S
N135 C136 1.321 . S
N135 Co138 2.135 . S
C136 N134 1.340 . S
C136 N135 1.321 . S
C136 H160 0.930 . S
H137 C132 0.931 . S
Co138 N135 2.135 . S
Co138 N141 2.121 . S
Co138 O146 2.055 . S
Co138 O149 2.039 . S
Co138 N152 2.140 . S
C139 O140 1.227 . S
C139 O149 1.265 . S
O140 C139 1.227 . S
N141 Co138 2.121 . S
N141 C143 1.375 . S
N141 C144 1.313 . S
C142 C143 1.338 . S
C142 N145 1.377 . S
C142 H162 0.930 . S
C143 N141 1.375 . S
C143 C142 1.338 . S
C143 H147 0.931 . S
C144 N141 1.313 . S
C144 N145 1.344 . S
C144 H148 0.930 . S
N145 C142 1.377 . S
N145 C144 1.344 . S
O146 Co138 2.055 . S
O146 C150 1.253 . S
H147 C143 0.931 . S
H148 C144 0.930 . S
O149 Co138 2.039 . S
O149 C139 1.265 . S
C150 O146 1.253 . S
C150 O151 1.227 . S
O151 C150 1.227 . S
N152 Co138 2.140 . S
N152 C155 1.346 . S
N152 C156 1.345 . S
C153 C154 1.387 . S
C153 C157 1.391 . S
C154 C153 1.387 . S
C154 C155 1.369 . S
C154 H163 0.929 . S
C155 N152 1.346 . S
C155 C154 1.369 . S
C155 H158 0.928 . S
C156 N152 1.345 . S
C156 C157 1.371 . S
C156 H159 0.931 . S
C157 C153 1.391 . S
C157 C156 1.371 . S
C157 H164 0.930 . S
H158 C155 0.928 . S
H159 C156 0.931 . S
H160 C136 0.930 . S
H161 C133 0.930 . S
H162 C142 0.930 . S
H163 C154 0.929 . S
H164 C157 0.930 . S
C165 C166 1.351 . S
C165 N168 1.368 . S
C165 H170 0.931 . S
C166 C165 1.351 . S
C166 N167 1.373 . S
C166 H194 0.930 . S
N167 C166 1.373 . S
N167 C169 1.340 . S
N168 C165 1.368 . S
N168 C169 1.321 . S
N168 Co171 2.135 . S
C169 N167 1.340 . S
C169 N168 1.321 . S
C169 H193 0.930 . S
H170 C165 0.931 . S
Co171 N168 2.135 . S
Co171 N174 2.121 . S
Co171 O179 2.055 . S
Co171 O182 2.039 . S
Co171 N185 2.140 . S
C172 O173 1.227 . S
C172 O182 1.265 . S
O173 C172 1.227 . S
N174 Co171 2.121 . S
N174 C176 1.375 . S
N174 C177 1.313 . S
C175 C176 1.338 . S
C175 N178 1.377 . S
C175 H195 0.930 . S
C176 N174 1.375 . S
C176 C175 1.338 . S
C176 H180 0.931 . S
C177 N174 1.313 . S
C177 N178 1.344 . S
C177 H181 0.930 . S
N178 C175 1.377 . S
N178 C177 1.344 . S
O179 Co171 2.055 . S
O179 C183 1.253 . S
H180 C176 0.931 . S
H181 C177 0.930 . S
O182 Co171 2.039 . S
O182 C172 1.265 . S
C183 O179 1.253 . S
C183 O184 1.227 . S
O184 C183 1.227 . S
N185 Co171 2.140 . S
N185 C188 1.346 . S
N185 C189 1.345 . S
C186 C187 1.387 . S
C186 C190 1.391 . S
C187 C186 1.387 . S
C187 C188 1.369 . S
C187 H196 0.929 . S
C188 N185 1.346 . S
C188 C187 1.369 . S
C188 H191 0.928 . S
C189 N185 1.345 . S
C189 C190 1.371 . S
C189 H192 0.931 . S
C190 C186 1.391 . S
C190 C189 1.371 . S
C190 H197 0.930 . S
H191 C188 0.928 . S
H192 C189 0.931 . S
H193 C169 0.930 . S
H194 C166 0.930 . S
H195 C175 0.930 . S
H196 C187 0.929 . S
H197 C190 0.930 . S
C198 C199 1.351 . S
C198 N201 1.368 . S
C198 H203 0.931 . S
C199 C198 1.351 . S
C199 N200 1.373 . S
C199 H227 0.930 . S
N200 C199 1.373 . S
N200 C202 1.340 . S
N201 C198 1.368 . S
N201 C202 1.321 . S
N201 Co204 2.135 . S
C202 N200 1.340 . S
C202 N201 1.321 . S
C202 H226 0.930 . S
H203 C198 0.931 . S
Co204 N201 2.135 . S
Co204 N207 2.121 . S
Co204 O212 2.055 . S
Co204 O215 2.039 . S
Co204 N218 2.140 . S
C205 O206 1.227 . S
C205 O215 1.265 . S
O206 C205 1.227 . S
N207 Co204 2.121 . S
N207 C209 1.375 . S
N207 C210 1.313 . S
C208 C209 1.338 . S
C208 N211 1.377 . S
C208 H228 0.930 . S
C209 N207 1.375 . S
C209 C208 1.338 . S
C209 H213 0.931 . S
C210 N207 1.313 . S
C210 N211 1.344 . S
C210 H214 0.930 . S
N211 C208 1.377 . S
N211 C210 1.344 . S
O212 Co204 2.055 . S
O212 C216 1.253 . S
H213 C209 0.931 . S
H214 C210 0.930 . S
O215 Co204 2.039 . S
O215 C205 1.265 . S
C216 O212 1.253 . S
C216 O217 1.227 . S
O217 C216 1.227 . S
N218 Co204 2.140 . S
N218 C221 1.346 . S
N218 C222 1.345 . S
C219 C220 1.387 . S
C219 C223 1.391 . S
C220 C219 1.387 . S
C220 C221 1.369 . S
C220 H229 0.929 . S
C221 N218 1.346 . S
C221 C220 1.369 . S
C221 H224 0.928 . S
C222 N218 1.345 . S
C222 C223 1.371 . S
C222 H225 0.931 . S
C223 C219 1.391 . S
C223 C222 1.371 . S
C223 H230 0.930 . S
H224 C221 0.928 . S
H225 C222 0.931 . S
H226 C202 0.930 . S
H227 C199 0.930 . S
H228 C208 0.930 . S
H229 C220 0.929 . S
H230 C223 0.930 . S
C231 C232 1.351 . S
C231 N234 1.368 . S
C231 H236 0.931 . S
C232 C231 1.351 . S
C232 N233 1.373 . S
C232 H260 0.930 . S
N233 C232 1.373 . S
N233 C235 1.340 . S
N234 C231 1.368 . S
N234 C235 1.321 . S
N234 Co237 2.135 . S
C235 N233 1.340 . S
C235 N234 1.321 . S
C235 H259 0.930 . S
H236 C231 0.931 . S
Co237 N234 2.135 . S
Co237 N240 2.121 . S
Co237 O245 2.055 . S
Co237 O248 2.039 . S
Co237 N251 2.140 . S
C238 O239 1.227 . S
C238 O248 1.265 . S
O239 C238 1.227 . S
N240 Co237 2.121 . S
N240 C242 1.375 . S
N240 C243 1.313 . S
C241 C242 1.338 . S
C241 N244 1.377 . S
C241 H261 0.930 . S
C242 N240 1.375 . S
C242 C241 1.338 . S
C242 H246 0.931 . S
C243 N240 1.313 . S
C243 N244 1.344 . S
C243 H247 0.930 . S
N244 C241 1.377 . S
N244 C243 1.344 . S
O245 Co237 2.055 . S
O245 C249 1.253 . S
H246 C242 0.931 . S
H247 C243 0.930 . S
O248 Co237 2.039 . S
O248 C238 1.265 . S
C249 O245 1.253 . S
C249 O250 1.227 . S
O250 C249 1.227 . S
N251 Co237 2.140 . S
N251 C254 1.346 . S
N251 C255 1.345 . S
C252 C253 1.387 . S
C252 C256 1.391 . S
C253 C252 1.387 . S
C253 C254 1.369 . S
C253 H262 0.929 . S
C254 N251 1.346 . S
C254 C253 1.369 . S
C254 H257 0.928 . S
C255 N251 1.345 . S
C255 C256 1.371 . S
C255 H258 0.931 . S
C256 C252 1.391 . S
C256 C255 1.371 . S
C256 H263 0.930 . S
H257 C254 0.928 . S
H258 C255 0.931 . S
H259 C235 0.930 . S
H260 C232 0.930 . S
H261 C241 0.930 . S
H262 C253 0.929 . S
H263 C256 0.930 . S
C264 C265 1.351 . S
C264 N267 1.368 . S
C264 H269 0.931 . S
C265 C264 1.351 . S
C265 N266 1.373 . S
C265 H293 0.930 . S
N266 C265 1.373 . S
N266 C268 1.340 . S
N267 C264 1.368 . S
N267 C268 1.321 . S
N267 Co270 2.135 . S
C268 N266 1.340 . S
C268 N267 1.321 . S
C268 H292 0.930 . S
H269 C264 0.931 . S
Co270 N267 2.135 . S
Co270 N273 2.121 . S
Co270 O278 2.055 . S
Co270 O281 2.039 . S
Co270 N284 2.140 . S
C271 O272 1.227 . S
C271 O281 1.265 . S
O272 C271 1.227 . S
N273 Co270 2.121 . S
N273 C275 1.375 . S
N273 C276 1.313 . S
C274 C275 1.338 . S
C274 N277 1.377 . S
C274 H294 0.930 . S
C275 N273 1.375 . S
C275 C274 1.338 . S
C275 H279 0.931 . S
C276 N273 1.313 . S
C276 N277 1.344 . S
C276 H280 0.930 . S
N277 C274 1.377 . S
N277 C276 1.344 . S
O278 Co270 2.055 . S
O278 C282 1.253 . S
H279 C275 0.931 . S
H280 C276 0.930 . S
O281 Co270 2.039 . S
O281 C271 1.265 . S
C282 O278 1.253 . S
C282 O283 1.227 . S
O283 C282 1.227 . S
N284 Co270 2.140 . S
N284 C287 1.346 . S
N284 C288 1.345 . S
C285 C286 1.387 . S
C285 C289 1.391 . S
C286 C285 1.387 . S
C286 C287 1.369 . S
C286 H295 0.929 . S
C287 N284 1.346 . S
C287 C286 1.369 . S
C287 H290 0.928 . S
C288 N284 1.345 . S
C288 C289 1.371 . S
C288 H291 0.931 . S
C289 C285 1.391 . S
C289 C288 1.371 . S
C289 H296 0.930 . S
H290 C287 0.928 . S
H291 C288 0.931 . S
H292 C268 0.930 . S
H293 C265 0.930 . S
H294 C274 0.930 . S
H295 C286 0.929 . S
H296 C289 0.930 . S
C297 C298 1.351 . S
C297 N300 1.368 . S
C297 H302 0.931 . S
C298 C297 1.351 . S
C298 N299 1.373 . S
C298 H326 0.930 . S
N299 C298 1.373 . S
N299 C301 1.340 . S
N300 C297 1.368 . S
N300 C301 1.321 . S
N300 Co303 2.135 . S
C301 N299 1.340 . S
C301 N300 1.321 . S
C301 H325 0.930 . S
H302 C297 0.931 . S
Co303 N300 2.135 . S
Co303 N306 2.121 . S
Co303 O311 2.055 . S
Co303 O314 2.039 . S
Co303 N317 2.140 . S
C304 O305 1.227 . S
C304 O314 1.265 . S
O305 C304 1.227 . S
N306 Co303 2.121 . S
N306 C308 1.375 . S
N306 C309 1.313 . S
C307 C308 1.338 . S
C307 N310 1.377 . S
C307 H327 0.930 . S
C308 N306 1.375 . S
C308 C307 1.338 . S
C308 H312 0.931 . S
C309 N306 1.313 . S
C309 N310 1.344 . S
C309 H313 0.930 . S
N310 C307 1.377 . S
N310 C309 1.344 . S
O311 Co303 2.055 . S
O311 C315 1.253 . S
H312 C308 0.931 . S
H313 C309 0.930 . S
O314 Co303 2.039 . S
O314 C304 1.265 . S
C315 O311 1.253 . S
C315 O316 1.227 . S
O316 C315 1.227 . S
N317 Co303 2.140 . S
N317 C320 1.346 . S
N317 C321 1.345 . S
C318 C319 1.387 . S
C318 C322 1.391 . S
C319 C318 1.387 . S
C319 C320 1.369 . S
C319 H328 0.929 . S
C320 N317 1.346 . S
C320 C319 1.369 . S
C320 H323 0.928 . S
C321 N317 1.345 . S
C321 C322 1.371 . S
C321 H324 0.931 . S
C322 C318 1.391 . S
C322 C321 1.371 . S
C322 H329 0.930 . S
H323 C320 0.928 . S
H324 C321 0.931 . S
H325 C301 0.930 . S
H326 C298 0.930 . S
H327 C307 0.930 . S
H328 C319 0.929 . S
H329 C322 0.930 . S
C330 C331 1.351 . S
C330 N333 1.368 . S
C330 H335 0.931 . S
C331 C330 1.351 . S
C331 N332 1.373 . S
C331 H359 0.930 . S
N332 C331 1.373 . S
N332 C334 1.340 . S
N333 C330 1.368 . S
N333 C334 1.321 . S
N333 Co336 2.135 . S
C334 N332 1.340 . S
C334 N333 1.321 . S
C334 H358 0.930 . S
H335 C330 0.931 . S
Co336 N333 2.135 . S
Co336 N339 2.121 . S
Co336 O344 2.055 . S
Co336 O347 2.039 . S
Co336 N350 2.140 . S
C337 O338 1.227 . S
C337 O347 1.265 . S
O338 C337 1.227 . S
N339 Co336 2.121 . S
N339 C341 1.375 . S
N339 C342 1.313 . S
C340 C341 1.338 . S
C340 N343 1.377 . S
C340 H360 0.930 . S
C341 N339 1.375 . S
C341 C340 1.338 . S
C341 H345 0.931 . S
C342 N339 1.313 . S
C342 N343 1.344 . S
C342 H346 0.930 . S
N343 C340 1.377 . S
N343 C342 1.344 . S
O344 Co336 2.055 . S
O344 C348 1.253 . S
H345 C341 0.931 . S
H346 C342 0.930 . S
O347 Co336 2.039 . S
O347 C337 1.265 . S
C348 O344 1.253 . S
C348 O349 1.227 . S
O349 C348 1.227 . S
N350 Co336 2.140 . S
N350 C353 1.346 . S
N350 C354 1.345 . S
C351 C352 1.387 . S
C351 C355 1.391 . S
C352 C351 1.387 . S
C352 C353 1.369 . S
C352 H361 0.929 . S
C353 N350 1.346 . S
C353 C352 1.369 . S
C353 H356 0.928 . S
C354 N350 1.345 . S
C354 C355 1.371 . S
C354 H357 0.931 . S
C355 C351 1.391 . S
C355 C354 1.371 . S
C355 H362 0.930 . S
H356 C353 0.928 . S
H357 C354 0.931 . S
H358 C334 0.930 . S
H359 C331 0.930 . S
H360 C340 0.930 . S
H361 C352 0.929 . S
H362 C355 0.930 . S
C363 C364 1.351 . S
C363 N366 1.368 . S
C363 H368 0.931 . S
C364 C363 1.351 . S
C364 N365 1.373 . S
C364 H392 0.930 . S
N365 C364 1.373 . S
N365 C367 1.340 . S
N366 C363 1.368 . S
N366 C367 1.321 . S
N366 Co369 2.135 . S
C367 N365 1.340 . S
C367 N366 1.321 . S
C367 H391 0.930 . S
H368 C363 0.931 . S
Co369 N366 2.135 . S
Co369 N372 2.121 . S
Co369 O377 2.055 . S
Co369 O380 2.039 . S
Co369 N383 2.140 . S
C370 O371 1.227 . S
C370 O380 1.265 . S
O371 C370 1.227 . S
N372 Co369 2.121 . S
N372 C374 1.375 . S
N372 C375 1.313 . S
C373 C374 1.338 . S
C373 N376 1.377 . S
C373 H393 0.930 . S
C374 N372 1.375 . S
C374 C373 1.338 . S
C374 H378 0.931 . S
C375 N372 1.313 . S
C375 N376 1.344 . S
C375 H379 0.930 . S
N376 C373 1.377 . S
N376 C375 1.344 . S
O377 Co369 2.055 . S
O377 C381 1.253 . S
H378 C374 0.931 . S
H379 C375 0.930 . S
O380 Co369 2.039 . S
O380 C370 1.265 . S
C381 O377 1.253 . S
C381 O382 1.227 . S
O382 C381 1.227 . S
N383 Co369 2.140 . S
N383 C386 1.346 . S
N383 C387 1.345 . S
C384 C385 1.387 . S
C384 C388 1.391 . S
C385 C384 1.387 . S
C385 C386 1.369 . S
C385 H394 0.929 . S
C386 N383 1.346 . S
C386 C385 1.369 . S
C386 H389 0.928 . S
C387 N383 1.345 . S
C387 C388 1.371 . S
C387 H390 0.931 . S
C388 C384 1.391 . S
C388 C387 1.371 . S
C388 H395 0.930 . S
H389 C386 0.928 . S
H390 C387 0.931 . S
H391 C367 0.930 . S
H392 C364 0.930 . S
H393 C373 0.930 . S
H394 C385 0.929 . S
H395 C388 0.930 . S
C396 C397 1.351 . S
C396 N399 1.368 . S
C396 H401 0.931 . S
C397 C396 1.351 . S
C397 N398 1.373 . S
C397 H425 0.930 . S
N398 C397 1.373 . S
N398 C400 1.340 . S
N399 C396 1.368 . S
N399 C400 1.321 . S
N399 Co402 2.135 . S
C400 N398 1.340 . S
C400 N399 1.321 . S
C400 H424 0.930 . S
H401 C396 0.931 . S
Co402 N399 2.135 . S
Co402 N405 2.121 . S
Co402 O410 2.055 . S
Co402 O413 2.039 . S
Co402 N416 2.140 . S
C403 O404 1.227 . S
C403 O413 1.265 . S
O404 C403 1.227 . S
N405 Co402 2.121 . S
N405 C407 1.375 . S
N405 C408 1.313 . S
C406 C407 1.338 . S
C406 N409 1.377 . S
C406 H426 0.930 . S
C407 N405 1.375 . S
C407 C406 1.338 . S
C407 H411 0.931 . S
C408 N405 1.313 . S
C408 N409 1.344 . S
C408 H412 0.930 . S
N409 C406 1.377 . S
N409 C408 1.344 . S
O410 Co402 2.055 . S
O410 C414 1.253 . S
H411 C407 0.931 . S
H412 C408 0.930 . S
O413 Co402 2.039 . S
O413 C403 1.265 . S
C414 O410 1.253 . S
C414 O415 1.227 . S
O415 C414 1.227 . S
N416 Co402 2.140 . S
N416 C419 1.346 . S
N416 C420 1.345 . S
C417 C418 1.387 . S
C417 C421 1.391 . S
C418 C417 1.387 . S
C418 C419 1.369 . S
C418 H427 0.929 . S
C419 N416 1.346 . S
C419 C418 1.369 . S
C419 H422 0.928 . S
C420 N416 1.345 . S
C420 C421 1.371 . S
C420 H423 0.931 . S
C421 C417 1.391 . S
C421 C420 1.371 . S
C421 H428 0.930 . S
H422 C419 0.928 . S
H423 C420 0.931 . S
H424 C400 0.930 . S
H425 C397 0.930 . S
H426 C406 0.930 . S
H427 C418 0.929 . S
H428 C421 0.930 . S
C429 C430 1.351 . S
C429 N432 1.368 . S
C429 H434 0.931 . S
C430 C429 1.351 . S
C430 N431 1.373 . S
C430 H458 0.930 . S
N431 C430 1.373 . S
N431 C433 1.340 . S
N432 C429 1.368 . S
N432 C433 1.321 . S
N432 Co435 2.135 . S
C433 N431 1.340 . S
C433 N432 1.321 . S
C433 H457 0.930 . S
H434 C429 0.931 . S
Co435 N432 2.135 . S
Co435 N438 2.121 . S
Co435 O443 2.055 . S
Co435 O446 2.039 . S
Co435 N449 2.140 . S
C436 O437 1.227 . S
C436 O446 1.265 . S
O437 C436 1.227 . S
N438 Co435 2.121 . S
N438 C440 1.375 . S
N438 C441 1.313 . S
C439 C440 1.338 . S
C439 N442 1.377 . S
C439 H459 0.930 . S
C440 N438 1.375 . S
C440 C439 1.338 . S
C440 H444 0.931 . S
C441 N438 1.313 . S
C441 N442 1.344 . S
C441 H445 0.930 . S
N442 C439 1.377 . S
N442 C441 1.344 . S
O443 Co435 2.055 . S
O443 C447 1.253 . S
H444 C440 0.931 . S
H445 C441 0.930 . S
O446 Co435 2.039 . S
O446 C436 1.265 . S
C447 O443 1.253 . S
C447 O448 1.227 . S
O448 C447 1.227 . S
N449 Co435 2.140 . S
N449 C452 1.346 . S
N449 C453 1.345 . S
C450 C451 1.387 . S
C450 C454 1.391 . S
C451 C450 1.387 . S
C451 C452 1.369 . S
C451 H460 0.929 . S
C452 N449 1.346 . S
C452 C451 1.369 . S
C452 H455 0.928 . S
C453 N449 1.345 . S
C453 C454 1.371 . S
C453 H456 0.931 . S
C454 C450 1.391 . S
C454 C453 1.371 . S
C454 H461 0.930 . S
H455 C452 0.928 . S
H456 C453 0.931 . S
H457 C433 0.930 . S
H458 C430 0.930 . S
H459 C439 0.930 . S
H460 C451 0.929 . S
H461 C454 0.930 . S
C462 C463 1.351 . S
C462 N465 1.368 . S
C462 H467 0.931 . S
C463 C462 1.351 . S
C463 N464 1.373 . S
C463 H491 0.930 . S
N464 C463 1.373 . S
N464 C466 1.340 . S
N465 C462 1.368 . S
N465 C466 1.321 . S
N465 Co468 2.135 . S
C466 N464 1.340 . S
C466 N465 1.321 . S
C466 H490 0.930 . S
H467 C462 0.931 . S
Co468 N465 2.135 . S
Co468 N471 2.121 . S
Co468 O476 2.055 . S
Co468 O479 2.039 . S
Co468 N482 2.140 . S
C469 O470 1.227 . S
C469 O479 1.265 . S
O470 C469 1.227 . S
N471 Co468 2.121 . S
N471 C473 1.375 . S
N471 C474 1.313 . S
C472 C473 1.338 . S
C472 N475 1.377 . S
C472 H492 0.930 . S
C473 N471 1.375 . S
C473 C472 1.338 . S
C473 H477 0.931 . S
C474 N471 1.313 . S
C474 N475 1.344 . S
C474 H478 0.930 . S
N475 C472 1.377 . S
N475 C474 1.344 . S
O476 Co468 2.055 . S
O476 C480 1.253 . S
H477 C473 0.931 . S
H478 C474 0.930 . S
O479 Co468 2.039 . S
O479 C469 1.265 . S
C480 O476 1.253 . S
C480 O481 1.227 . S
O481 C480 1.227 . S
N482 Co468 2.140 . S
N482 C485 1.346 . S
N482 C486 1.345 . S
C483 C484 1.387 . S
C483 C487 1.391 . S
C484 C483 1.387 . S
C484 C485 1.369 . S
C484 H493 0.929 . S
C485 N482 1.346 . S
C485 C484 1.369 . S
C485 H488 0.928 . S
C486 N482 1.345 . S
C486 C487 1.371 . S
C486 H489 0.931 . S
C487 C483 1.391 . S
C487 C486 1.371 . S
C487 H494 0.930 . S
H488 C485 0.928 . S
H489 C486 0.931 . S
H490 C466 0.930 . S
H491 C463 0.930 . S
H492 C472 0.930 . S
H493 C484 0.929 . S
H494 C487 0.930 . S
C495 C496 1.351 . S
C495 N498 1.368 . S
C495 H500 0.931 . S
C496 C495 1.351 . S
C496 N497 1.373 . S
C496 H524 0.930 . S
N497 C496 1.373 . S
N497 C499 1.340 . S
N498 C495 1.368 . S
N498 C499 1.321 . S
N498 Co501 2.135 . S
C499 N497 1.340 . S
C499 N498 1.321 . S
C499 H523 0.930 . S
H500 C495 0.931 . S
Co501 N498 2.135 . S
Co501 N504 2.121 . S
Co501 O509 2.055 . S
Co501 O512 2.039 . S
Co501 N515 2.140 . S
C502 O503 1.227 . S
C502 O512 1.265 . S
O503 C502 1.227 . S
N504 Co501 2.121 . S
N504 C506 1.375 . S
N504 C507 1.313 . S
C505 C506 1.338 . S
C505 N508 1.377 . S
C505 H525 0.930 . S
C506 N504 1.375 . S
C506 C505 1.338 . S
C506 H510 0.931 . S
C507 N504 1.313 . S
C507 N508 1.344 . S
C507 H511 0.930 . S
N508 C505 1.377 . S
N508 C507 1.344 . S
O509 Co501 2.055 . S
O509 C513 1.253 . S
H510 C506 0.931 . S
H511 C507 0.930 . S
O512 Co501 2.039 . S
O512 C502 1.265 . S
C513 O509 1.253 . S
C513 O514 1.227 . S
O514 C513 1.227 . S
N515 Co501 2.140 . S
N515 C518 1.346 . S
N515 C519 1.345 . S
C516 C517 1.387 . S
C516 C520 1.391 . S
C517 C516 1.387 . S
C517 C518 1.369 . S
C517 H526 0.929 . S
C518 N515 1.346 . S
C518 C517 1.369 . S
C518 H521 0.928 . S
C519 N515 1.345 . S
C519 C520 1.371 . S
C519 H522 0.931 . S
C520 C516 1.391 . S
C520 C519 1.371 . S
C520 H527 0.930 . S
H521 C518 0.928 . S
H522 C519 0.931 . S
H523 C499 0.930 . S
H524 C496 0.930 . S
H525 C505 0.930 . S
H526 C517 0.929 . S
H527 C520 0.930 . S
H528 C540 0.930 . S
H529 C542 0.930 . S
H530 C543 0.930 . S
H531 C547 0.959 . S
H532 C547 0.959 . S
H533 C547 0.961 . S
H534 C548 0.960 . S
H535 C548 0.961 . S
H536 C548 0.959 . S
H537 C551 0.929 . S
H538 C552 0.931 . S
H539 C554 0.930 . S
C540 H528 0.930 . S
C540 C541 1.399 1_565 S
C540 C545 1.399 . S
C541 C540 1.399 1_545 S
C541 C542 1.376 . S
C542 H529 0.930 . S
C542 C541 1.376 . S
C542 C543 1.388 1_545 S
C543 H530 0.930 . S
C543 C542 1.388 1_565 S
C543 C544 1.390 . S
C544 C543 1.390 . S
C544 C545 1.394 . S
C544 C550 1.465 . S
C545 C540 1.399 . S
C545 C544 1.394 . S
C545 C546 1.516 . S
C546 C545 1.516 . S
C546 C547 1.502 . S
C546 C548 1.561 . S
C546 C549 1.526 . S
C547 H531 0.959 . S
C547 H532 0.959 . S
C547 H533 0.961 . S
C547 C546 1.502 . S
C548 H534 0.960 . S
C548 H535 0.961 . S
C548 H536 0.959 . S
C548 C546 1.561 . S
C549 C546 1.526 . S
C549 C550 1.396 . S
C549 C554 1.390 . S
C550 C544 1.465 . S
C550 C549 1.396 . S
C550 C551 1.399 . S
C551 H537 0.929 . S
C551 C550 1.399 . S
C551 C552 1.385 . S
C552 H538 0.931 . S
C552 C551 1.385 . S
C552 C553 1.389 . S
C553 C552 1.389 . S
C553 C554 1.387 . S
C554 H539 0.930 . S
C554 C549 1.390 . S
C554 C553 1.387 . S
H555 C567 0.930 . S
H556 C569 0.930 . S
H557 C570 0.930 . S
H558 C574 0.959 . S
H559 C574 0.959 . S
H560 C574 0.961 . S
H561 C575 0.960 . S
H562 C575 0.961 . S
H563 C575 0.959 . S
H564 C578 0.929 . S
H565 C579 0.931 . S
H566 C581 0.930 . S
C567 H555 0.930 . S
C567 C568 1.399 . S
C567 C572 1.399 . S
C568 C567 1.399 . S
C568 C569 1.376 . S
C569 H556 0.930 . S
C569 C568 1.376 . S
C569 C570 1.388 . S
C570 H557 0.930 . S
C570 C569 1.388 . S
C570 C571 1.390 . S
C571 C570 1.390 . S
C571 C572 1.394 . S
C571 C577 1.465 . S
C572 C567 1.399 . S
C572 C571 1.394 . S
C572 C573 1.516 . S
C573 C572 1.516 . S
C573 C574 1.502 . S
C573 C575 1.561 . S
C573 C576 1.526 . S
C574 H558 0.959 . S
C574 H559 0.959 . S
C574 H560 0.961 . S
C574 C573 1.502 . S
C575 H561 0.960 . S
C575 H562 0.961 . S
C575 H563 0.959 . S
C575 C573 1.561 . S
C576 C573 1.526 . S
C576 C577 1.396 . S
C576 C581 1.390 . S
C577 C571 1.465 . S
C577 C576 1.396 . S
C577 C578 1.399 . S
C578 H564 0.929 . S
C578 C577 1.399 . S
C578 C579 1.385 1_455 S
C579 H565 0.931 . S
C579 C578 1.385 1_655 S
C579 C580 1.389 . S
C580 C579 1.389 . S
C580 C581 1.387 1_655 S
C581 H566 0.930 . S
C581 C576 1.390 . S
C581 C580 1.387 1_455 S
H582 C594 0.930 . S
H583 C596 0.930 . S
H584 C597 0.930 . S
H585 C601 0.959 . S
H586 C601 0.959 . S
H587 C601 0.961 . S
H588 C602 0.960 . S
H589 C602 0.961 . S
H590 C602 0.959 . S
H591 C605 0.929 . S
H592 C606 0.931 . S
H593 C608 0.930 . S
C594 H582 0.930 . S
C594 C595 1.399 1_545 S
C594 C599 1.399 . S
C595 C594 1.399 1_565 S
C595 C596 1.376 . S
C596 H583 0.930 . S
C596 C595 1.376 . S
C596 C597 1.388 1_565 S
C597 H584 0.930 . S
C597 C596 1.388 1_545 S
C597 C598 1.390 . S
C598 C597 1.390 . S
C598 C599 1.394 . S
C598 C604 1.465 . S
C599 C594 1.399 . S
C599 C598 1.394 . S
C599 C600 1.516 . S
C600 C599 1.516 . S
C600 C601 1.502 . S
C600 C602 1.561 . S
C600 C603 1.526 . S
C601 H585 0.959 . S
C601 H586 0.959 . S
C601 H587 0.961 . S
C601 C600 1.502 . S
C602 H588 0.960 . S
C602 H589 0.961 . S
C602 H590 0.959 . S
C602 C600 1.561 . S
C603 C600 1.526 . S
C603 C604 1.396 . S
C603 C608 1.390 . S
C604 C598 1.465 . S
C604 C603 1.396 . S
C604 C605 1.399 . S
C605 H591 0.929 . S
C605 C604 1.399 . S
C605 C606 1.385 . S
C606 H592 0.931 . S
C606 C605 1.385 . S
C606 C607 1.389 . S
C607 C606 1.389 . S
C607 C608 1.387 . S
C608 H593 0.930 . S
C608 C603 1.390 . S
C608 C607 1.387 . S
H609 C621 0.930 . S
H610 C623 0.930 . S
H611 C624 0.930 . S
H612 C628 0.959 . S
H613 C628 0.959 . S
H614 C628 0.961 . S
H615 C629 0.960 . S
H616 C629 0.961 . S
H617 C629 0.959 . S
H618 C632 0.929 . S
H619 C633 0.933 . S
H620 C635 0.930 . S
C621 H609 0.930 . S
C621 C622 1.399 . S
C621 C626 1.399 . S
C622 C621 1.399 . S
C622 C623 1.376 . S
C623 H610 0.930 . S
C623 C622 1.376 . S
C623 C624 1.388 . S
C624 H611 0.930 . S
C624 C623 1.388 . S
C624 C625 1.390 . S
C625 C624 1.390 . S
C625 C626 1.394 . S
C625 C631 1.465 . S
C626 C621 1.399 . S
C626 C625 1.394 . S
C626 C627 1.516 . S
C627 C626 1.516 . S
C627 C628 1.502 . S
C627 C629 1.561 . S
C627 C630 1.526 . S
C628 H612 0.959 . S
C628 H613 0.959 . S
C628 H614 0.961 . S
C628 C627 1.502 . S
C629 H615 0.960 . S
C629 H616 0.961 . S
C629 H617 0.959 . S
C629 C627 1.561 . S
C630 C627 1.526 . S
C630 C631 1.396 . S
C630 C635 1.390 . S
C631 C625 1.465 . S
C631 C630 1.396 . S
C631 C632 1.399 . S
C632 H618 0.929 . S
C632 C631 1.399 . S
C632 C633 1.382 1_655 S
C633 H619 0.933 . S
C633 C632 1.382 1_455 S
C633 C634 1.390 . S
C634 C633 1.390 . S
C634 C635 1.387 1_455 S
C635 H620 0.930 . S
C635 C630 1.390 . S
C635 C634 1.387 1_655 S
H636 C648 0.930 . S
H637 C650 0.930 . S
H638 C651 0.930 . S
H639 C655 0.959 . S
H640 C655 0.959 . S
H641 C655 0.961 . S
H642 C656 0.960 . S
H643 C656 0.961 . S
H644 C656 0.959 . S
H645 C659 0.929 . S
H646 C660 0.931 1_565 S
H647 C662 0.930 . S
C648 H636 0.930 . S
C648 C649 1.399 . S
C648 C653 1.399 . S
C649 C648 1.399 . S
C649 C650 1.376 . S
C650 H637 0.930 . S
C650 C649 1.376 . S
C650 C651 1.388 . S
C651 H638 0.930 . S
C651 C650 1.388 . S
C651 C652 1.390 . S
C652 C651 1.390 . S
C652 C653 1.394 . S
C652 C658 1.465 . S
C653 C648 1.399 . S
C653 C652 1.394 . S
C653 C654 1.516 . S
C654 C653 1.516 . S
C654 C655 1.502 . S
C654 C656 1.561 . S
C654 C657 1.526 . S
C655 H639 0.959 . S
C655 H640 0.959 . S
C655 H641 0.961 . S
C655 C654 1.502 . S
C656 H642 0.960 . S
C656 H643 0.961 . S
C656 H644 0.959 . S
C656 C654 1.561 . S
C657 C654 1.526 . S
C657 C658 1.396 . S
C657 C662 1.390 . S
C658 C652 1.465 . S
C658 C657 1.396 . S
C658 C659 1.399 . S
C659 H645 0.929 . S
C659 C658 1.399 . S
C659 C660 1.385 . S
C660 H646 0.931 1_545 S
C660 C659 1.385 . S
C660 C661 1.389 1_545 S
C661 C660 1.389 1_565 S
C661 C662 1.387 1_565 S
C662 H647 0.930 . S
C662 C657 1.390 . S
C662 C661 1.387 1_545 S
H663 C675 0.930 . S
H664 C677 0.930 . S
H665 C678 0.930 . S
H666 C682 0.959 . S
H667 C682 0.959 . S
H668 C682 0.961 . S
H669 C683 0.960 . S
H670 C683 0.961 . S
H671 C683 0.959 . S
H672 C686 0.929 . S
H673 C687 0.931 1_455 S
H674 C689 0.927 1_455 S
C675 H663 0.930 . S
C675 C676 1.399 . S
C675 C680 1.399 . S
C676 C675 1.399 . S
C676 C677 1.376 . S
C677 H664 0.930 . S
C677 C676 1.376 . S
C677 C678 1.388 . S
C678 H665 0.930 . S
C678 C677 1.388 . S
C678 C679 1.390 . S
C679 C678 1.390 . S
C679 C680 1.394 . S
C679 C685 1.465 . S
C680 C675 1.399 . S
C680 C679 1.394 . S
C680 C681 1.516 . S
C681 C680 1.516 . S
C681 C682 1.502 . S
C681 C683 1.561 . S
C681 C684 1.526 . S
C682 H666 0.959 . S
C682 H667 0.959 . S
C682 H668 0.961 . S
C682 C681 1.502 . S
C683 H669 0.960 . S
C683 H670 0.961 . S
C683 H671 0.959 . S
C683 C681 1.561 . S
C684 C681 1.526 . S
C684 C685 1.396 . S
C684 C689 1.390 . S
C685 C679 1.465 . S
C685 C684 1.396 . S
C685 C686 1.399 . S
C686 H672 0.929 . S
C686 C685 1.399 . S
C686 C687 1.385 . S
C687 H673 0.931 1_655 S
C687 C686 1.385 . S
C687 C688 1.389 1_655 S
C688 C687 1.389 1_455 S
C688 C689 1.387 1_455 S
C689 H674 0.927 1_655 S
C689 C684 1.390 . S
C689 C688 1.387 1_655 S
H690 C702 0.930 . S
H691 C704 0.930 . S
H692 C705 0.930 . S
H693 C709 0.959 . S
H694 C709 0.959 . S
H695 C709 0.961 . S
H696 C710 0.960 . S
H697 C710 0.961 . S
H698 C710 0.959 . S
H699 C713 0.929 . S
H700 C714 0.931 1_545 S
H701 C716 0.930 . S
C702 H690 0.930 . S
C702 C703 1.399 . S
C702 C707 1.399 . S
C703 C702 1.399 . S
C703 C704 1.376 . S
C704 H691 0.930 . S
C704 C703 1.376 . S
C704 C705 1.388 . S
C705 H692 0.930 . S
C705 C704 1.388 . S
C705 C706 1.390 . S
C706 C705 1.390 . S
C706 C707 1.394 . S
C706 C712 1.465 . S
C707 C702 1.399 . S
C707 C706 1.394 . S
C707 C708 1.516 . S
C708 C707 1.516 . S
C708 C709 1.502 . S
C708 C710 1.561 . S
C708 C711 1.526 . S
C709 H693 0.959 . S
C709 H694 0.959 . S
C709 H695 0.961 . S
C709 C708 1.502 . S
C710 H696 0.960 . S
C710 H697 0.961 . S
C710 H698 0.959 . S
C710 C708 1.561 . S
C711 C708 1.526 . S
C711 C712 1.396 . S
C711 C716 1.390 . S
C712 C706 1.465 . S
C712 C711 1.396 . S
C712 C713 1.399 . S
C713 H699 0.929 . S
C713 C712 1.399 . S
C713 C714 1.385 . S
C714 H700 0.931 1_565 S
C714 C713 1.385 . S
C714 C715 1.389 1_565 S
C715 C714 1.389 1_545 S
C715 C716 1.387 1_545 S
C716 H701 0.930 . S
C716 C711 1.390 . S
C716 C715 1.387 1_565 S
H717 C729 0.930 . S
H718 C731 0.902 1_655 S
H719 C732 0.930 . S
H720 C736 0.959 . S
H721 C736 0.959 . S
H722 C736 0.961 . S
H723 C737 0.960 . S
H724 C737 0.961 . S
H725 C737 0.959 . S
H726 C740 0.929 . S
H727 C741 0.931 . S
H728 C743 0.930 . S
C729 H717 0.930 . S
C729 C730 1.399 1_455 S
C729 C734 1.399 . S
C730 C729 1.399 1_655 S
C730 C731 1.366 1_655 S
C731 H718 0.902 1_455 S
C731 C730 1.366 1_455 S
C731 C732 1.428 . S
C732 H719 0.930 . S
C732 C731 1.428 . S
C732 C733 1.390 . S
C733 C732 1.390 . S
C733 C734 1.394 . S
C733 C739 1.465 . S
C734 C729 1.399 . S
C734 C733 1.394 . S
C734 C735 1.516 . S
C735 C734 1.516 . S
C735 C736 1.502 . S
C735 C737 1.561 . S
C735 C738 1.526 . S
C736 H720 0.959 . S
C736 H721 0.959 . S
C736 H722 0.961 . S
C736 C735 1.502 . S
C737 H723 0.960 . S
C737 H724 0.961 . S
C737 H725 0.959 . S
C737 C735 1.561 . S
C738 C735 1.526 . S
C738 C739 1.396 . S
C738 C743 1.390 . S
C739 C733 1.465 . S
C739 C738 1.396 . S
C739 C740 1.399 . S
C740 H726 0.929 . S
C740 C739 1.399 . S
C740 C741 1.385 . S
C741 H727 0.931 . S
C741 C740 1.385 . S
C741 C742 1.389 . S
C742 C741 1.389 . S
C742 C743 1.387 . S
C743 H728 0.930 . S
C743 C738 1.390 . S
C743 C742 1.387 . S
H744 C756 0.930 . S
H745 C758 0.930 . S
H746 C759 0.930 . S
H747 C763 0.959 . S
H748 C763 0.959 . S
H749 C763 0.961 . S
H750 C764 0.960 . S
H751 C764 0.961 . S
H752 C764 0.959 . S
H753 C767 0.929 . S
H754 C768 0.931 . S
H755 C770 0.930 . S
C756 H744 0.930 . S
C756 C757 1.399 . S
C756 C761 1.399 . S
C757 C756 1.399 . S
C757 C758 1.376 . S
C758 H745 0.930 . S
C758 C757 1.376 . S
C758 C759 1.388 . S
C759 H746 0.930 . S
C759 C758 1.388 . S
C759 C760 1.390 . S
C760 C759 1.390 . S
C760 C761 1.394 . S
C760 C766 1.465 . S
C761 C756 1.399 . S
C761 C760 1.394 . S
C761 C762 1.516 . S
C762 C761 1.516 . S
C762 C763 1.502 . S
C762 C764 1.561 . S
C762 C765 1.526 . S
C763 H747 0.959 . S
C763 H748 0.959 . S
C763 H749 0.961 . S
C763 C762 1.502 . S
C764 H750 0.960 . S
C764 H751 0.961 . S
C764 H752 0.959 . S
C764 C762 1.561 . S
C765 C762 1.526 . S
C765 C766 1.396 . S
C765 C770 1.390 . S
C766 C760 1.465 . S
C766 C765 1.396 . S
C766 C767 1.399 . S
C767 H753 0.929 . S
C767 C766 1.399 . S
C767 C768 1.385 . S
C768 H754 0.931 . S
C768 C767 1.385 . S
C768 C769 1.389 . S
C769 C768 1.389 . S
C769 C770 1.387 . S
C770 H755 0.930 . S
C770 C765 1.390 . S
C770 C769 1.387 . S
H771 C783 0.930 . S
H772 C785 0.930 . S
H773 C786 0.930 . S
H774 C790 0.959 . S
H775 C790 0.959 . S
H776 C790 0.961 . S
H777 C791 0.960 . S
H778 C791 0.961 . S
H779 C791 0.959 . S
H780 C794 0.929 . S
H781 C795 0.931 . S
H782 C797 0.930 . S
C783 H771 0.930 . S
C783 C784 1.399 . S
C783 C788 1.399 . S
C784 C783 1.399 . S
C784 C785 1.376 . S
C785 H772 0.930 . S
C785 C784 1.376 . S
C785 C786 1.388 . S
C786 H773 0.930 . S
C786 C785 1.388 . S
C786 C787 1.390 . S
C787 C786 1.390 . S
C787 C788 1.394 . S
C787 C793 1.465 . S
C788 C783 1.399 . S
C788 C787 1.394 . S
C788 C789 1.516 . S
C789 C788 1.516 . S
C789 C790 1.502 . S
C789 C791 1.561 . S
C789 C792 1.526 . S
C790 H774 0.959 . S
C790 H775 0.959 . S
C790 H776 0.961 . S
C790 C789 1.502 . S
C791 H777 0.960 . S
C791 H778 0.961 . S
C791 H779 0.959 . S
C791 C789 1.561 . S
C792 C789 1.526 . S
C792 C793 1.396 . S
C792 C797 1.390 . S
C793 C787 1.465 . S
C793 C792 1.396 . S
C793 C794 1.399 . S
C794 H780 0.929 . S
C794 C793 1.399 . S
C794 C795 1.385 . S
C795 H781 0.931 . S
C795 C794 1.385 . S
C795 C796 1.389 . S
C796 C795 1.389 . S
C796 C797 1.387 . S
C797 H782 0.930 . S
C797 C792 1.390 . S
C797 C796 1.387 . S
H798 C810 0.930 . S
H799 C812 0.930 . S
H800 C813 0.930 . S
H801 C817 0.959 . S
H802 C817 0.959 . S
H803 C817 0.961 . S
H804 C818 0.960 . S
H805 C818 0.961 . S
H806 C818 0.959 . S
H807 C821 0.929 . S
H808 C822 0.931 . S
H809 C824 0.930 . S
C810 H798 0.930 . S
C810 C811 1.399 . S
C810 C815 1.399 . S
C811 C810 1.399 . S
C811 C812 1.376 . S
C812 H799 0.930 . S
C812 C811 1.376 . S
C812 C813 1.388 . S
C813 H800 0.930 . S
C813 C812 1.388 . S
C813 C814 1.390 . S
C814 C813 1.390 . S
C814 C815 1.394 . S
C814 C820 1.465 . S
C815 C810 1.399 . S
C815 C814 1.394 . S
C815 C816 1.516 . S
C816 C815 1.516 . S
C816 C817 1.502 . S
C816 C818 1.561 . S
C816 C819 1.526 . S
C817 H801 0.959 . S
C817 H802 0.959 . S
C817 H803 0.961 . S
C817 C816 1.502 . S
C818 H804 0.960 . S
C818 H805 0.961 . S
C818 H806 0.959 . S
C818 C816 1.561 . S
C819 C816 1.526 . S
C819 C820 1.396 . S
C819 C824 1.390 . S
C820 C814 1.465 . S
C820 C819 1.396 . S
C820 C821 1.399 . S
C821 H807 0.929 . S
C821 C820 1.399 . S
C821 C822 1.385 . S
C822 H808 0.931 . S
C822 C821 1.385 . S
C822 C823 1.389 . S
C823 C822 1.389 . S
C823 C824 1.387 . S
C824 H809 0.930 . S
C824 C819 1.390 . S
C824 C823 1.387 . S
H825 C837 0.930 . S
H826 C839 0.930 . S
H827 C840 0.930 . S
H828 C844 0.959 . S
H829 C844 0.959 . S
H830 C844 0.961 . S
H831 C845 0.960 . S
H832 C845 0.961 . S
H833 C845 0.959 . S
H834 C848 0.929 . S
H835 C849 0.931 . S
H836 C851 0.930 . S
C837 H825 0.930 . S
C837 C838 1.399 . S
C837 C842 1.399 . S
C838 C837 1.399 . S
C838 C839 1.376 . S
C839 H826 0.930 . S
C839 C838 1.376 . S
C839 C840 1.388 . S
C840 H827 0.930 . S
C840 C839 1.388 . S
C840 C841 1.390 . S
C841 C840 1.390 . S
C841 C842 1.394 . S
C841 C847 1.465 . S
C842 C837 1.399 . S
C842 C841 1.394 . S
C842 C843 1.516 . S
C843 C842 1.516 . S
C843 C844 1.502 . S
C843 C845 1.561 . S
C843 C846 1.526 . S
C844 H828 0.959 . S
C844 H829 0.959 . S
C844 H830 0.961 . S
C844 C843 1.502 . S
C845 H831 0.960 . S
C845 H832 0.961 . S
C845 H833 0.959 . S
C845 C843 1.561 . S
C846 C843 1.526 . S
C846 C847 1.396 . S
C846 C851 1.390 . S
C847 C841 1.465 . S
C847 C846 1.396 . S
C847 C848 1.399 . S
C848 H834 0.929 . S
C848 C847 1.399 . S
C848 C849 1.385 . S
C849 H835 0.931 . S
C849 C848 1.385 . S
C849 C850 1.389 . S
C850 C849 1.389 . S
C850 C851 1.387 . S
C851 H836 0.930 . S
C851 C846 1.390 . S
C851 C850 1.387 . S
H852 C864 0.930 . S
H853 C866 0.930 . S
H854 C867 0.930 . S
H855 C871 0.959 . S
H856 C871 0.959 . S
H857 C871 0.961 . S
H858 C872 0.960 . S
H859 C872 0.961 . S
H860 C872 0.959 . S
H861 C875 0.929 . S
H862 C876 0.931 . S
H863 C878 0.930 . S
C864 H852 0.930 . S
C864 C865 1.399 . S
C864 C869 1.399 . S
C865 C864 1.399 . S
C865 C866 1.376 . S
C866 H853 0.930 . S
C866 C865 1.376 . S
C866 C867 1.388 . S
C867 H854 0.930 . S
C867 C866 1.388 . S
C867 C868 1.390 . S
C868 C867 1.390 . S
C868 C869 1.394 . S
C868 C874 1.465 . S
C869 C864 1.399 . S
C869 C868 1.394 . S
C869 C870 1.516 . S
C870 C869 1.516 . S
C870 C871 1.502 . S
C870 C872 1.561 . S
C870 C873 1.526 . S
C871 H855 0.959 . S
C871 H856 0.959 . S
C871 H857 0.961 . S
C871 C870 1.502 . S
C872 H858 0.960 . S
C872 H859 0.961 . S
C872 H860 0.959 . S
C872 C870 1.561 . S
C873 C870 1.526 . S
C873 C874 1.396 . S
C873 C878 1.390 . S
C874 C868 1.465 . S
C874 C873 1.396 . S
C874 C875 1.399 . S
C875 H861 0.929 . S
C875 C874 1.399 . S
C875 C876 1.385 . S
C876 H862 0.931 . S
C876 C875 1.385 . S
C876 C877 1.389 . S
C877 C876 1.389 . S
C877 C878 1.387 . S
C878 H863 0.930 . S
C878 C873 1.390 . S
C878 C877 1.387 . S
H879 C891 0.930 . S
H880 C893 0.930 . S
H881 C894 0.930 . S
H882 C898 0.959 . S
H883 C898 0.959 . S
H884 C898 0.961 . S
H885 C899 0.960 . S
H886 C899 0.961 . S
H887 C899 0.959 . S
H888 C902 0.929 . S
H889 C903 0.931 . S
H890 C905 0.930 . S
C891 H879 0.930 . S
C891 C892 1.399 . S
C891 C896 1.399 . S
C892 C891 1.399 . S
C892 C893 1.376 . S
C893 H880 0.930 . S
C893 C892 1.376 . S
C893 C894 1.388 . S
C894 H881 0.930 . S
C894 C893 1.388 . S
C894 C895 1.390 . S
C895 C894 1.390 . S
C895 C896 1.394 . S
C895 C901 1.465 . S
C896 C891 1.399 . S
C896 C895 1.394 . S
C896 C897 1.516 . S
C897 C896 1.516 . S
C897 C898 1.502 . S
C897 C899 1.561 . S
C897 C900 1.526 . S
C898 H882 0.959 . S
C898 H883 0.959 . S
C898 H884 0.961 . S
C898 C897 1.502 . S
C899 H885 0.960 . S
C899 H886 0.961 . S
C899 H887 0.959 . S
C899 C897 1.561 . S
C900 C897 1.526 . S
C900 C901 1.396 . S
C900 C905 1.390 . S
C901 C895 1.465 . S
C901 C900 1.396 . S
C901 C902 1.399 . S
C902 H888 0.929 . S
C902 C901 1.399 . S
C902 C903 1.385 . S
C903 H889 0.931 . S
C903 C902 1.385 . S
C903 C904 1.389 . S
C904 C903 1.389 . S
C904 C905 1.387 . S
C905 H890 0.930 . S
C905 C900 1.390 . S
C905 C904 1.387 . S
H906 C918 0.930 . S
H907 C920 0.930 . S
H908 C921 0.930 . S
H909 C925 0.959 . S
H910 C925 0.959 . S
H911 C925 0.961 . S
H912 C926 0.960 . S
H913 C926 0.961 . S
H914 C926 0.959 . S
H915 C929 0.929 . S
H916 C930 0.931 . S
H917 C932 0.930 . S
C918 H906 0.930 . S
C918 C919 1.399 . S
C918 C923 1.399 . S
C919 C918 1.399 . S
C919 C920 1.376 . S
C920 H907 0.930 . S
C920 C919 1.376 . S
C920 C921 1.388 . S
C921 H908 0.930 . S
C921 C920 1.388 . S
C921 C922 1.390 . S
C922 C921 1.390 . S
C922 C923 1.394 . S
C922 C928 1.465 . S
C923 C918 1.399 . S
C923 C922 1.394 . S
C923 C924 1.516 . S
C924 C923 1.516 . S
C924 C925 1.502 . S
C924 C926 1.561 . S
C924 C927 1.526 . S
C925 H909 0.959 . S
C925 H910 0.959 . S
C925 H911 0.961 . S
C925 C924 1.502 . S
C926 H912 0.960 . S
C926 H913 0.961 . S
C926 H914 0.959 . S
C926 C924 1.561 . S
C927 C924 1.526 . S
C927 C928 1.396 . S
C927 C932 1.390 . S
C928 C922 1.465 . S
C928 C927 1.396 . S
C928 C929 1.399 . S
C929 H915 0.929 . S
C929 C928 1.399 . S
C929 C930 1.385 . S
C930 H916 0.931 . S
C930 C929 1.385 . S
C930 C931 1.389 . S
C931 C930 1.389 . S
C931 C932 1.387 . S
C932 H917 0.930 . S
C932 C927 1.390 . S
C932 C931 1.387 . S
H933 C945 0.930 . S
H934 C947 0.930 . S
H935 C948 0.930 . S
H936 C952 0.959 . S
H937 C952 0.959 . S
H938 C952 0.961 . S
H939 C953 0.960 . S
H940 C953 0.961 . S
H941 C953 0.959 . S
H942 C956 0.929 . S
H943 C957 0.931 . S
H944 C959 0.930 . S
C945 H933 0.930 . S
C945 C946 1.399 . S
C945 C950 1.399 . S
C946 C945 1.399 . S
C946 C947 1.376 . S
C947 H934 0.930 . S
C947 C946 1.376 . S
C947 C948 1.388 . S
C948 H935 0.930 . S
C948 C947 1.388 . S
C948 C949 1.390 . S
C949 C948 1.390 . S
C949 C950 1.394 . S
C949 C955 1.465 . S
C950 C945 1.399 . S
C950 C949 1.394 . S
C950 C951 1.516 . S
C951 C950 1.516 . S
C951 C952 1.502 . S
C951 C953 1.561 . S
C951 C954 1.526 . S
C952 H936 0.959 . S
C952 H937 0.959 . S
C952 H938 0.961 . S
C952 C951 1.502 . S
C953 H939 0.960 . S
C953 H940 0.961 . S
C953 H941 0.959 . S
C953 C951 1.561 . S
C954 C951 1.526 . S
C954 C955 1.396 . S
C954 C959 1.390 . S
C955 C949 1.465 . S
C955 C954 1.396 . S
C955 C956 1.399 . S
C956 H942 0.929 . S
C956 C955 1.399 . S
C956 C957 1.385 . S
C957 H943 0.931 . S
C957 C956 1.385 . S
C957 C958 1.389 . S
C958 C957 1.389 . S
C958 C959 1.387 . S
C959 H944 0.930 . S
C959 C954 1.390 . S
C959 C958 1.387 . S
H960 C972 0.930 . S
H961 C974 0.930 . S
H962 C975 0.930 . S
H963 C979 0.959 . S
H964 C979 0.959 . S
H965 C979 0.961 . S
H966 C980 0.960 . S
H967 C980 0.961 . S
H968 C980 0.959 . S
H969 C983 0.929 . S
H970 C984 0.931 . S
H971 C986 0.930 . S
C972 H960 0.930 . S
C972 C973 1.399 . S
C972 C977 1.399 . S
C973 C972 1.399 . S
C973 C974 1.376 . S
C974 H961 0.930 . S
C974 C973 1.376 . S
C974 C975 1.388 . S
C975 H962 0.930 . S
C975 C974 1.388 . S
C975 C976 1.390 . S
C976 C975 1.390 . S
C976 C977 1.394 . S
C976 C982 1.465 . S
C977 C972 1.399 . S
C977 C976 1.394 . S
C977 C978 1.516 . S
C978 C977 1.516 . S
C978 C979 1.502 . S
C978 C980 1.561 . S
C978 C981 1.526 . S
C979 H963 0.959 . S
C979 H964 0.959 . S
C979 H965 0.961 . S
C979 C978 1.502 . S
C980 H966 0.960 . S
C980 H967 0.961 . S
C980 H968 0.959 . S
C980 C978 1.561 . S
C981 C978 1.526 . S
C981 C982 1.396 . S
C981 C986 1.390 . S
C982 C976 1.465 . S
C982 C981 1.396 . S
C982 C983 1.399 . S
C983 H969 0.929 . S
C983 C982 1.399 . S
C983 C984 1.385 . S
C984 H970 0.931 . S
C984 C983 1.385 . S
C984 C985 1.389 . S
C985 C984 1.389 . S
C985 C986 1.387 . S
C986 H971 0.930 . S
C986 C981 1.390 . S
C986 C985 1.387 . S
H987 C999 0.930 . S
H988 C1001 0.930 . S
H989 C1002 0.930 . S
H990 C1006 0.959 . S
H991 C1006 0.959 . S
H992 C1006 0.961 . S
H993 C1007 0.960 . S
H994 C1007 0.961 . S
H995 C1007 0.959 . S
H996 C1010 0.929 . S
H997 C1011 0.931 . S
H998 C1013 0.930 . S
C999 H987 0.930 . S
C999 C1000 1.399 . S
C999 C1004 1.399 . S
C1000 C999 1.399 . S
C1000 C1001 1.376 . S
C1001 H988 0.930 . S
C1001 C1000 1.376 . S
C1001 C1002 1.388 . S
C1002 H989 0.930 . S
C1002 C1001 1.388 . S
C1002 C1003 1.390 . S
C1003 C1002 1.390 . S
C1003 C1004 1.394 . S
C1003 C1009 1.465 . S
C1004 C999 1.399 . S
C1004 C1003 1.394 . S
C1004 C1005 1.516 . S
C1005 C1004 1.516 . S
C1005 C1006 1.502 . S
C1005 C1007 1.561 . S
C1005 C1008 1.526 . S
C1006 H990 0.959 . S
C1006 H991 0.959 . S
C1006 H992 0.961 . S
C1006 C1005 1.502 . S
C1007 H993 0.960 . S
C1007 H994 0.961 . S
C1007 H995 0.959 . S
C1007 C1005 1.561 . S
C1008 C1005 1.526 . S
C1008 C1009 1.396 . S
C1008 C1013 1.390 . S
C1009 C1003 1.465 . S
C1009 C1008 1.396 . S
C1009 C1010 1.399 . S
C1010 H996 0.929 . S
C1010 C1009 1.399 . S
C1010 C1011 1.385 . S
C1011 H997 0.931 . S
C1011 C1010 1.385 . S
C1011 C1012 1.389 . S
C1012 C1011 1.389 . S
C1012 C1013 1.387 . S
C1013 H998 0.930 . S
C1013 C1008 1.390 . S
C1013 C1012 1.387 . S
H1014 C1026 0.930 . S
H1015 C1028 0.930 . S
H1016 C1029 0.930 . S
H1017 C1033 0.959 . S
H1018 C1033 0.959 . S
H1019 C1033 0.961 . S
H1020 C1034 0.960 . S
H1021 C1034 0.961 . S
H1022 C1034 0.959 . S
H1023 C1037 0.929 . S
H1024 C1038 0.931 . S
H1025 C1040 0.930 . S
C1026 H1014 0.930 . S
C1026 C1027 1.399 . S
C1026 C1031 1.399 . S
C1027 C1026 1.399 . S
C1027 C1028 1.376 . S
C1028 H1015 0.930 . S
C1028 C1027 1.376 . S
C1028 C1029 1.388 . S
C1029 H1016 0.930 . S
C1029 C1028 1.388 . S
C1029 C1030 1.390 . S
C1030 C1029 1.390 . S
C1030 C1031 1.394 . S
C1030 C1036 1.465 . S
C1031 C1026 1.399 . S
C1031 C1030 1.394 . S
C1031 C1032 1.516 . S
C1032 C1031 1.516 . S
C1032 C1033 1.502 . S
C1032 C1034 1.561 . S
C1032 C1035 1.526 . S
C1033 H1017 0.959 . S
C1033 H1018 0.959 . S
C1033 H1019 0.961 . S
C1033 C1032 1.502 . S
C1034 H1020 0.960 . S
C1034 H1021 0.961 . S
C1034 H1022 0.959 . S
C1034 C1032 1.561 . S
C1035 C1032 1.526 . S
C1035 C1036 1.396 . S
C1035 C1040 1.390 . S
C1036 C1030 1.465 . S
C1036 C1035 1.396 . S
C1036 C1037 1.399 . S
C1037 H1023 0.929 . S
C1037 C1036 1.399 . S
C1037 C1038 1.385 . S
C1038 H1024 0.931 . S
C1038 C1037 1.385 . S
C1038 C1039 1.389 . S
C1039 C1038 1.389 . S
C1039 C1040 1.387 . S
C1040 H1025 0.930 . S
C1040 C1035 1.390 . S
C1040 C1039 1.387 . S
H1041 C1053 0.930 . S
H1042 C1055 0.930 . S
H1043 C1056 0.930 . S
H1044 C1060 0.959 . S
H1045 C1060 0.959 . S
H1046 C1060 0.961 . S
H1047 C1061 0.960 . S
H1048 C1061 0.961 . S
H1049 C1061 0.959 . S
H1050 C1064 0.929 . S
H1051 C1065 0.931 . S
H1052 C1067 0.930 . S
C1053 H1041 0.930 . S
C1053 C1054 1.399 . S
C1053 C1058 1.399 . S
C1054 C1053 1.399 . S
C1054 C1055 1.376 . S
C1055 H1042 0.930 . S
C1055 C1054 1.376 . S
C1055 C1056 1.388 . S
C1056 H1043 0.930 . S
C1056 C1055 1.388 . S
C1056 C1057 1.390 . S
C1057 C1056 1.390 . S
C1057 C1058 1.394 . S
C1057 C1063 1.465 . S
C1058 C1053 1.399 . S
C1058 C1057 1.394 . S
C1058 C1059 1.516 . S
C1059 C1058 1.516 . S
C1059 C1060 1.502 . S
C1059 C1061 1.561 . S
C1059 C1062 1.526 . S
C1060 H1044 0.959 . S
C1060 H1045 0.959 . S
C1060 H1046 0.961 . S
C1060 C1059 1.502 . S
C1061 H1047 0.960 . S
C1061 H1048 0.961 . S
C1061 H1049 0.959 . S
C1061 C1059 1.561 . S
C1062 C1059 1.526 . S
C1062 C1063 1.396 . S
C1062 C1067 1.390 . S
C1063 C1057 1.465 . S
C1063 C1062 1.396 . S
C1063 C1064 1.399 . S
C1064 H1050 0.929 . S
C1064 C1063 1.399 . S
C1064 C1065 1.385 . S
C1065 H1051 0.931 . S
C1065 C1064 1.385 . S
C1065 C1066 1.389 . S
C1066 C1065 1.389 . S
C1066 C1067 1.387 . S
C1067 H1052 0.930 . S
C1067 C1062 1.390 . S
C1067 C1066 1.387 . S
H1068 C1080 0.930 . S
H1069 C1082 0.930 . S
H1070 C1083 0.930 . S
H1071 C1087 0.959 . S
H1072 C1087 0.959 . S
H1073 C1087 0.961 . S
H1074 C1088 0.960 . S
H1075 C1088 0.961 . S
H1076 C1088 0.959 . S
H1077 C1091 0.929 1_556 S
H1078 C1092 0.931 . S
H1079 C1094 0.930 . S
C1080 H1068 0.930 . S
C1080 C1081 1.399 . S
C1080 C1085 1.399 . S
C1081 C1080 1.399 . S
C1081 C1082 1.376 . S
C1082 H1069 0.930 . S
C1082 C1081 1.376 . S
C1082 C1083 1.388 . S
C1083 H1070 0.930 . S
C1083 C1082 1.388 . S
C1083 C1084 1.390 . S
C1084 C1083 1.390 . S
C1084 C1085 1.394 . S
C1084 C1090 1.465 1_556 S
C1085 C1080 1.399 . S
C1085 C1084 1.394 . S
C1085 C1086 1.516 1_556 S
C1086 C1085 1.516 1_554 S
C1086 C1087 1.502 . S
C1086 C1088 1.561 . S
C1086 C1089 1.526 . S
C1087 H1071 0.959 . S
C1087 H1072 0.959 . S
C1087 H1073 0.961 . S
C1087 C1086 1.502 . S
C1088 H1074 0.960 . S
C1088 H1075 0.961 . S
C1088 H1076 0.959 . S
C1088 C1086 1.561 . S
C1089 C1086 1.526 . S
C1089 C1090 1.396 . S
C1089 C1094 1.390 . S
C1090 C1084 1.465 1_554 S
C1090 C1089 1.396 . S
C1090 C1091 1.399 . S
C1091 H1077 0.929 1_554 S
C1091 C1090 1.399 . S
C1091 C1092 1.385 . S
C1092 H1078 0.931 . S
C1092 C1091 1.385 . S
C1092 C1093 1.389 . S
C1093 C1092 1.389 . S
C1093 C1094 1.387 . S
C1094 H1079 0.930 . S
C1094 C1089 1.390 . S
C1094 C1093 1.387 . S
H1095 C1107 0.930 . S
H1096 C1109 0.930 . S
H1097 C1110 0.930 1_554 S
H1098 C1114 0.959 . S
H1099 C1114 0.959 . S
H1100 C1114 0.961 . S
H1101 C1115 0.960 . S
H1102 C1115 0.961 . S
H1103 C1115 0.959 . S
H1104 C1118 0.929 . S
H1105 C1119 0.931 . S
H1106 C1121 0.930 . S
C1107 H1095 0.930 . S
C1107 C1108 1.399 . S
C1107 C1112 1.399 . S
C1108 C1107 1.399 . S
C1108 C1109 1.376 . S
C1109 H1096 0.930 . S
C1109 C1108 1.376 . S
C1109 C1110 1.388 . S
C1110 H1097 0.930 1_556 S
C1110 C1109 1.388 . S
C1110 C1111 1.390 . S
C1111 C1110 1.390 . S
C1111 C1112 1.394 . S
C1111 C1117 1.465 1_556 S
C1112 C1107 1.399 . S
C1112 C1111 1.394 . S
C1112 C1113 1.516 . S
C1113 C1112 1.516 . S
C1113 C1114 1.502 . S
C1113 C1115 1.561 . S
C1113 C1116 1.526 1_556 S
C1114 H1098 0.959 . S
C1114 H1099 0.959 . S
C1114 H1100 0.961 . S
C1114 C1113 1.502 . S
C1115 H1101 0.960 . S
C1115 H1102 0.961 . S
C1115 H1103 0.959 . S
C1115 C1113 1.561 . S
C1116 C1113 1.526 1_554 S
C1116 C1117 1.396 . S
C1116 C1121 1.390 . S
C1117 C1111 1.465 1_554 S
C1117 C1116 1.396 . S
C1117 C1118 1.399 . S
C1118 H1104 0.929 . S
C1118 C1117 1.399 . S
C1118 C1119 1.385 . S
C1119 H1105 0.931 . S
C1119 C1118 1.385 . S
C1119 C1120 1.389 . S
C1120 C1119 1.389 . S
C1120 C1121 1.387 . S
C1121 H1106 0.930 . S
C1121 C1116 1.390 . S
C1121 C1120 1.387 . S
H1122 C1134 0.930 . S
H1123 C1136 0.930 . S
H1124 C1137 0.930 1_554 S
H1125 C1141 0.959 . S
H1126 C1141 0.959 . S
H1127 C1141 0.961 . S
H1128 C1142 0.960 . S
H1129 C1142 0.961 . S
H1130 C1142 0.959 . S
H1131 C1145 0.929 . S
H1132 C1146 0.931 . S
H1133 C1148 0.930 . S
C1134 H1122 0.930 . S
C1134 C1135 1.399 . S
C1134 C1139 1.399 . S
C1135 C1134 1.399 . S
C1135 C1136 1.376 . S
C1136 H1123 0.930 . S
C1136 C1135 1.376 . S
C1136 C1137 1.388 . S
C1137 H1124 0.930 1_556 S
C1137 C1136 1.388 . S
C1137 C1138 1.390 . S
C1138 C1137 1.390 . S
C1138 C1139 1.394 . S
C1138 C1144 1.465 1_556 S
C1139 C1134 1.399 . S
C1139 C1138 1.394 . S
C1139 C1140 1.516 . S
C1140 C1139 1.516 . S
C1140 C1141 1.502 . S
C1140 C1142 1.561 . S
C1140 C1143 1.526 1_556 S
C1141 H1125 0.959 . S
C1141 H1126 0.959 . S
C1141 H1127 0.961 . S
C1141 C1140 1.502 . S
C1142 H1128 0.960 . S
C1142 H1129 0.961 . S
C1142 H1130 0.959 . S
C1142 C1140 1.561 . S
C1143 C1140 1.526 1_554 S
C1143 C1144 1.396 . S
C1143 C1148 1.390 . S
C1144 C1138 1.465 1_554 S
C1144 C1143 1.396 . S
C1144 C1145 1.399 . S
C1145 H1131 0.929 . S
C1145 C1144 1.399 . S
C1145 C1146 1.385 . S
C1146 H1132 0.931 . S
C1146 C1145 1.385 . S
C1146 C1147 1.389 . S
C1147 C1146 1.389 . S
C1147 C1148 1.387 . S
C1148 H1133 0.930 . S
C1148 C1143 1.390 . S
C1148 C1147 1.387 . S
H1149 C1161 0.930 . S
H1150 C1163 0.930 . S
H1151 C1164 0.930 . S
H1152 C1168 0.959 . S
H1153 C1168 0.959 . S
H1154 C1168 0.961 . S
H1155 C1169 0.960 . S
H1156 C1169 0.961 . S
H1157 C1169 0.959 . S
H1158 C1172 0.929 1_556 S
H1159 C1173 0.931 . S
H1160 C1175 0.930 . S
C1161 H1149 0.930 . S
C1161 C1162 1.399 . S
C1161 C1166 1.399 . S
C1162 C1161 1.399 . S
C1162 C1163 1.376 . S
C1163 H1150 0.930 . S
C1163 C1162 1.376 . S
C1163 C1164 1.388 . S
C1164 H1151 0.930 . S
C1164 C1163 1.388 . S
C1164 C1165 1.390 . S
C1165 C1164 1.390 . S
C1165 C1166 1.394 . S
C1165 C1171 1.465 1_556 S
C1166 C1161 1.399 . S
C1166 C1165 1.394 . S
C1166 C1167 1.516 1_556 S
C1167 C1166 1.516 1_554 S
C1167 C1168 1.502 . S
C1167 C1169 1.561 . S
C1167 C1170 1.526 . S
C1168 H1152 0.959 . S
C1168 H1153 0.959 . S
C1168 H1154 0.961 . S
C1168 C1167 1.502 . S
C1169 H1155 0.960 . S
C1169 H1156 0.961 . S
C1169 H1157 0.959 . S
C1169 C1167 1.561 . S
C1170 C1167 1.526 . S
C1170 C1171 1.396 . S
C1170 C1175 1.390 . S
C1171 C1165 1.465 1_554 S
C1171 C1170 1.396 . S
C1171 C1172 1.399 . S
C1172 H1158 0.929 1_554 S
C1172 C1171 1.399 . S
C1172 C1173 1.385 . S
C1173 H1159 0.931 . S
C1173 C1172 1.385 . S
C1173 C1174 1.389 . S
C1174 C1173 1.389 . S
C1174 C1175 1.387 . S
C1175 H1160 0.930 . S
C1175 C1170 1.390 . S
C1175 C1174 1.387 . S
H1176 C1188 0.930 . S
H1177 C1190 0.930 . S
H1178 C1191 0.930 . S
H1179 C1195 0.959 . S
H1180 C1195 0.959 . S
H1181 C1195 0.961 . S
H1182 C1196 0.960 . S
H1183 C1196 0.961 . S
H1184 C1196 0.959 . S
H1185 C1199 0.929 . S
H1186 C1200 0.931 . S
H1187 C1202 0.930 . S
C1188 H1176 0.930 . S
C1188 C1189 1.399 . S
C1188 C1193 1.399 . S
C1189 C1188 1.399 . S
C1189 C1190 1.376 . S
C1190 H1177 0.930 . S
C1190 C1189 1.376 . S
C1190 C1191 1.388 . S
C1191 H1178 0.930 . S
C1191 C1190 1.388 . S
C1191 C1192 1.390 . S
C1192 C1191 1.390 . S
C1192 C1193 1.394 . S
C1192 C1198 1.465 . S
C1193 C1188 1.399 . S
C1193 C1192 1.394 . S
C1193 C1194 1.516 . S
C1194 C1193 1.516 . S
C1194 C1195 1.502 . S
C1194 C1196 1.561 . S
C1194 C1197 1.526 . S
C1195 H1179 0.959 . S
C1195 H1180 0.959 . S
C1195 H1181 0.961 . S
C1195 C1194 1.502 . S
C1196 H1182 0.960 . S
C1196 H1183 0.961 . S
C1196 H1184 0.959 . S
C1196 C1194 1.561 . S
C1197 C1194 1.526 . S
C1197 C1198 1.396 . S
C1197 C1202 1.390 . S
C1198 C1192 1.465 . S
C1198 C1197 1.396 . S
C1198 C1199 1.399 . S
C1199 H1185 0.929 . S
C1199 C1198 1.399 . S
C1199 C1200 1.385 . S
C1200 H1186 0.931 . S
C1200 C1199 1.385 . S
C1200 C1201 1.389 . S
C1201 C1200 1.389 . S
C1201 C1202 1.387 . S
C1202 H1187 0.930 . S
C1202 C1197 1.390 . S
C1202 C1201 1.387 . S
H1203 C1215 0.930 . S
H1204 C1217 0.930 . S
H1205 C1218 0.930 . S
H1206 C1222 0.959 . S
H1207 C1222 0.959 . S
H1208 C1222 0.961 . S
H1209 C1223 0.960 . S
H1210 C1223 0.961 . S
H1211 C1223 0.959 . S
H1212 C1226 0.929 . S
H1213 C1227 0.931 . S
H1214 C1229 0.930 . S
C1215 H1203 0.930 . S
C1215 C1216 1.399 . S
C1215 C1220 1.399 . S
C1216 C1215 1.399 . S
C1216 C1217 1.376 . S
C1217 H1204 0.930 . S
C1217 C1216 1.376 . S
C1217 C1218 1.388 . S
C1218 H1205 0.930 . S
C1218 C1217 1.388 . S
C1218 C1219 1.390 . S
C1219 C1218 1.390 . S
C1219 C1220 1.394 . S
C1219 C1225 1.465 . S
C1220 C1215 1.399 . S
C1220 C1219 1.394 . S
C1220 C1221 1.516 . S
C1221 C1220 1.516 . S
C1221 C1222 1.502 . S
C1221 C1223 1.561 . S
C1221 C1224 1.526 . S
C1222 H1206 0.959 . S
C1222 H1207 0.959 . S
C1222 H1208 0.961 . S
C1222 C1221 1.502 . S
C1223 H1209 0.960 . S
C1223 H1210 0.961 . S
C1223 H1211 0.959 . S
C1223 C1221 1.561 . S
C1224 C1221 1.526 . S
C1224 C1225 1.396 . S
C1224 C1229 1.390 . S
C1225 C1219 1.465 . S
C1225 C1224 1.396 . S
C1225 C1226 1.399 . S
C1226 H1212 0.929 . S
C1226 C1225 1.399 . S
C1226 C1227 1.385 . S
C1227 H1213 0.931 . S
C1227 C1226 1.385 . S
C1227 C1228 1.389 . S
C1228 C1227 1.389 . S
C1228 C1229 1.387 . S
C1229 H1214 0.930 . S
C1229 C1224 1.390 . S
C1229 C1228 1.387 . S
H1230 C1242 0.930 . S
H1231 C1244 0.930 . S
H1232 C1245 0.930 . S
H1233 C1249 0.959 . S
H1234 C1249 0.959 . S
H1235 C1249 0.961 . S
H1236 C1250 0.960 . S
H1237 C1250 0.961 . S
H1238 C1250 0.959 . S
H1239 C1253 0.929 . S
H1240 C1254 0.931 . S
H1241 C1256 0.930 . S
C1242 H1230 0.930 . S
C1242 C1243 1.399 . S
C1242 C1247 1.399 . S
C1243 C1242 1.399 . S
C1243 C1244 1.376 . S
C1244 H1231 0.930 . S
C1244 C1243 1.376 . S
C1244 C1245 1.388 . S
C1245 H1232 0.930 . S
C1245 C1244 1.388 . S
C1245 C1246 1.390 . S
C1246 C1245 1.390 . S
C1246 C1247 1.394 . S
C1246 C1252 1.465 . S
C1247 C1242 1.399 . S
C1247 C1246 1.394 . S
C1247 C1248 1.516 . S
C1248 C1247 1.516 . S
C1248 C1249 1.502 . S
C1248 C1250 1.561 . S
C1248 C1251 1.526 . S
C1249 H1233 0.959 . S
C1249 H1234 0.959 . S
C1249 H1235 0.961 . S
C1249 C1248 1.502 . S
C1250 H1236 0.960 . S
C1250 H1237 0.961 . S
C1250 H1238 0.959 . S
C1250 C1248 1.561 . S
C1251 C1248 1.526 . S
C1251 C1252 1.396 . S
C1251 C1256 1.390 . S
C1252 C1246 1.465 . S
C1252 C1251 1.396 . S
C1252 C1253 1.399 . S
C1253 H1239 0.929 . S
C1253 C1252 1.399 . S
C1253 C1254 1.385 . S
C1254 H1240 0.931 . S
C1254 C1253 1.385 . S
C1254 C1255 1.389 . S
C1255 C1254 1.389 . S
C1255 C1256 1.387 . S
C1256 H1241 0.930 . S
C1256 C1251 1.390 . S
C1256 C1255 1.387 . S
H1257 C1269 0.930 . S
H1258 C1271 0.930 . S
H1259 C1272 0.930 . S
H1260 C1276 0.959 . S
H1261 C1276 0.959 . S
H1262 C1276 0.961 . S
H1263 C1277 0.960 . S
H1264 C1277 0.961 . S
H1265 C1277 0.959 . S
H1266 C1280 0.929 . S
H1267 C1281 0.931 . S
H1268 C1283 0.930 . S
C1269 H1257 0.930 . S
C1269 C1270 1.399 . S
C1269 C1274 1.399 . S
C1270 C1269 1.399 . S
C1270 C1271 1.376 . S
C1271 H1258 0.930 . S
C1271 C1270 1.376 . S
C1271 C1272 1.388 . S
C1272 H1259 0.930 . S
C1272 C1271 1.388 . S
C1272 C1273 1.390 . S
C1273 C1272 1.390 . S
C1273 C1274 1.394 . S
C1273 C1279 1.465 . S
C1274 C1269 1.399 . S
C1274 C1273 1.394 . S
C1274 C1275 1.516 . S
C1275 C1274 1.516 . S
C1275 C1276 1.502 . S
C1275 C1277 1.561 . S
C1275 C1278 1.526 . S
C1276 H1260 0.959 . S
C1276 H1261 0.959 . S
C1276 H1262 0.961 . S
C1276 C1275 1.502 . S
C1277 H1263 0.960 . S
C1277 H1264 0.961 . S
C1277 H1265 0.959 . S
C1277 C1275 1.561 . S
C1278 C1275 1.526 . S
C1278 C1279 1.396 . S
C1278 C1283 1.390 . S
C1279 C1273 1.465 . S
C1279 C1278 1.396 . S
C1279 C1280 1.399 . S
C1280 H1266 0.929 . S
C1280 C1279 1.399 . S
C1280 C1281 1.385 . S
C1281 H1267 0.931 . S
C1281 C1280 1.385 . S
C1281 C1282 1.389 . S
C1282 C1281 1.389 . S
C1282 C1283 1.387 . S
C1283 H1268 0.930 . S
C1283 C1278 1.390 . S
C1283 C1282 1.387 . S
H1284 C1296 0.930 . S
H1285 C1298 0.930 . S
H1286 C1299 0.930 . S
H1287 C1303 0.959 . S
H1288 C1303 0.959 . S
H1289 C1303 0.961 . S
H1290 C1304 0.960 . S
H1291 C1304 0.961 . S
H1292 C1304 0.959 . S
H1293 C1307 0.929 . S
H1294 C1308 0.931 . S
H1295 C1310 0.930 . S
C1296 H1284 0.930 . S
C1296 C1297 1.399 . S
C1296 C1301 1.399 . S
C1297 C1296 1.399 . S
C1297 C1298 1.376 . S
C1298 H1285 0.930 . S
C1298 C1297 1.376 . S
C1298 C1299 1.388 . S
C1299 H1286 0.930 . S
C1299 C1298 1.388 . S
C1299 C1300 1.390 . S
C1300 C1299 1.390 . S
C1300 C1301 1.394 . S
C1300 C1306 1.465 . S
C1301 C1296 1.399 . S
C1301 C1300 1.394 . S
C1301 C1302 1.516 . S
C1302 C1301 1.516 . S
C1302 C1303 1.502 . S
C1302 C1304 1.561 . S
C1302 C1305 1.526 . S
C1303 H1287 0.959 . S
C1303 H1288 0.959 . S
C1303 H1289 0.961 . S
C1303 C1302 1.502 . S
C1304 H1290 0.960 . S
C1304 H1291 0.961 . S
C1304 H1292 0.959 . S
C1304 C1302 1.561 . S
C1305 C1302 1.526 . S
C1305 C1306 1.396 . S
C1305 C1310 1.390 . S
C1306 C1300 1.465 . S
C1306 C1305 1.396 . S
C1306 C1307 1.399 . S
C1307 H1293 0.929 . S
C1307 C1306 1.399 . S
C1307 C1308 1.385 . S
C1308 H1294 0.931 . S
C1308 C1307 1.385 . S
C1308 C1309 1.389 . S
C1309 C1308 1.389 . S
C1309 C1310 1.387 . S
C1310 H1295 0.930 . S
C1310 C1305 1.390 . S
C1310 C1309 1.387 . S
H1311 C1323 0.930 . S
H1312 C1325 0.930 . S
H1313 C1326 0.930 . S
H1314 C1330 0.959 . S
H1315 C1330 0.959 . S
H1316 C1330 0.961 . S
H1317 C1331 0.960 . S
H1318 C1331 0.961 . S
H1319 C1331 0.959 . S
H1320 C1334 0.929 . S
H1321 C1335 0.931 . S
H1322 C1337 0.930 . S
C1323 H1311 0.930 . S
C1323 C1324 1.399 . S
C1323 C1328 1.399 . S
C1324 C1323 1.399 . S
C1324 C1325 1.376 . S
C1325 H1312 0.930 . S
C1325 C1324 1.376 . S
C1325 C1326 1.388 . S
C1326 H1313 0.930 . S
C1326 C1325 1.388 . S
C1326 C1327 1.390 . S
C1327 C1326 1.390 . S
C1327 C1328 1.394 . S
C1327 C1333 1.465 . S
C1328 C1323 1.399 . S
C1328 C1327 1.394 . S
C1328 C1329 1.516 . S
C1329 C1328 1.516 . S
C1329 C1330 1.502 . S
C1329 C1331 1.561 . S
C1329 C1332 1.526 . S
C1330 H1314 0.959 . S
C1330 H1315 0.959 . S
C1330 H1316 0.961 . S
C1330 C1329 1.502 . S
C1331 H1317 0.960 . S
C1331 H1318 0.961 . S
C1331 H1319 0.959 . S
C1331 C1329 1.561 . S
C1332 C1329 1.526 . S
C1332 C1333 1.396 . S
C1332 C1337 1.390 . S
C1333 C1327 1.465 . S
C1333 C1332 1.396 . S
C1333 C1334 1.399 . S
C1334 H1320 0.929 . S
C1334 C1333 1.399 . S
C1334 C1335 1.385 . S
C1335 H1321 0.931 . S
C1335 C1334 1.385 . S
C1335 C1336 1.389 . S
C1336 C1335 1.389 . S
C1336 C1337 1.387 . S
C1337 H1322 0.930 . S
C1337 C1332 1.390 . S
C1337 C1336 1.387 . S
H1338 C1350 0.930 . S
H1339 C1352 0.930 . S
H1340 C1353 0.930 . S
H1341 C1357 0.959 . S
H1342 C1357 0.959 . S
H1343 C1357 0.961 . S
H1344 C1358 0.960 . S
H1345 C1358 0.961 . S
H1346 C1358 0.959 . S
H1347 C1361 0.929 . S
H1348 C1362 0.931 . S
H1349 C1364 0.930 . S
C1350 H1338 0.930 . S
C1350 C1351 1.399 . S
C1350 C1355 1.399 . S
C1351 C1350 1.399 . S
C1351 C1352 1.376 . S
C1352 H1339 0.930 . S
C1352 C1351 1.376 . S
C1352 C1353 1.388 . S
C1353 H1340 0.930 . S
C1353 C1352 1.388 . S
C1353 C1354 1.390 . S
C1354 C1353 1.390 . S
C1354 C1355 1.394 . S
C1354 C1360 1.465 . S
C1355 C1350 1.399 . S
C1355 C1354 1.394 . S
C1355 C1356 1.516 . S
C1356 C1355 1.516 . S
C1356 C1357 1.502 . S
C1356 C1358 1.561 . S
C1356 C1359 1.526 . S
C1357 H1341 0.959 . S
C1357 H1342 0.959 . S
C1357 H1343 0.961 . S
C1357 C1356 1.502 . S
C1358 H1344 0.960 . S
C1358 H1345 0.961 . S
C1358 H1346 0.959 . S
C1358 C1356 1.561 . S
C1359 C1356 1.526 . S
C1359 C1360 1.396 . S
C1359 C1364 1.390 . S
C1360 C1354 1.465 . S
C1360 C1359 1.396 . S
C1360 C1361 1.399 . S
C1361 H1347 0.929 . S
C1361 C1360 1.399 . S
C1361 C1362 1.385 . S
C1362 H1348 0.931 . S
C1362 C1361 1.385 . S
C1362 C1363 1.389 . S
C1363 C1362 1.389 . S
C1363 C1364 1.387 . S
C1364 H1349 0.930 . S
C1364 C1359 1.390 . S
C1364 C1363 1.387 . S
H1365 C1377 0.930 . S
H1366 C1379 0.930 . S
H1367 C1380 0.930 . S
H1368 C1384 0.959 . S
H1369 C1384 0.959 . S
H1370 C1384 0.961 . S
H1371 C1385 0.960 . S
H1372 C1385 0.961 . S
H1373 C1385 0.959 . S
H1374 C1388 0.929 . S
H1375 C1389 0.931 . S
H1376 C1391 0.930 . S
C1377 H1365 0.930 . S
C1377 C1378 1.399 . S
C1377 C1382 1.399 . S
C1378 C1377 1.399 . S
C1378 C1379 1.376 . S
C1379 H1366 0.930 . S
C1379 C1378 1.376 . S
C1379 C1380 1.388 . S
C1380 H1367 0.930 . S
C1380 C1379 1.388 . S
C1380 C1381 1.390 . S
C1381 C1380 1.390 . S
C1381 C1382 1.394 . S
C1381 C1387 1.465 . S
C1382 C1377 1.399 . S
C1382 C1381 1.394 . S
C1382 C1383 1.516 . S
C1383 C1382 1.516 . S
C1383 C1384 1.502 . S
C1383 C1385 1.561 . S
C1383 C1386 1.526 . S
C1384 H1368 0.959 . S
C1384 H1369 0.959 . S
C1384 H1370 0.961 . S
C1384 C1383 1.502 . S
C1385 H1371 0.960 . S
C1385 H1372 0.961 . S
C1385 H1373 0.959 . S
C1385 C1383 1.561 . S
C1386 C1383 1.526 . S
C1386 C1387 1.396 . S
C1386 C1391 1.390 . S
C1387 C1381 1.465 . S
C1387 C1386 1.396 . S
C1387 C1388 1.399 . S
C1388 H1374 0.929 . S
C1388 C1387 1.399 . S
C1388 C1389 1.385 . S
C1389 H1375 0.931 . S
C1389 C1388 1.385 . S
C1389 C1390 1.389 . S
C1390 C1389 1.389 . S
C1390 C1391 1.387 . S
C1391 H1376 0.930 . S
C1391 C1386 1.390 . S
C1391 C1390 1.387 . S
H1392 C1404 0.930 . S
H1393 C1406 0.930 . S
H1394 C1407 0.930 . S
H1395 C1411 0.959 . S
H1396 C1411 0.959 . S
H1397 C1411 0.961 . S
H1398 C1412 0.960 . S
H1399 C1412 0.961 . S
H1400 C1412 0.959 . S
H1401 C1415 0.929 . S
H1402 C1416 0.931 . S
H1403 C1418 0.930 . S
C1404 H1392 0.930 . S
C1404 C1405 1.399 . S
C1404 C1409 1.399 . S
C1405 C1404 1.399 . S
C1405 C1406 1.376 . S
C1406 H1393 0.930 . S
C1406 C1405 1.376 . S
C1406 C1407 1.388 1_545 S
C1407 H1394 0.930 . S
C1407 C1406 1.388 1_565 S
C1407 C1408 1.390 . S
C1408 C1407 1.390 . S
C1408 C1409 1.394 1_565 S
C1408 C1414 1.465 . S
C1409 C1404 1.399 . S
C1409 C1408 1.394 1_545 S
C1409 C1410 1.516 . S
C1410 C1409 1.516 . S
C1410 C1411 1.502 . S
C1410 C1412 1.561 . S
C1410 C1413 1.526 1_545 S
C1411 H1395 0.959 . S
C1411 H1396 0.959 . S
C1411 H1397 0.961 . S
C1411 C1410 1.502 . S
C1412 H1398 0.960 . S
C1412 H1399 0.961 . S
C1412 H1400 0.959 . S
C1412 C1410 1.561 . S
C1413 C1410 1.526 1_565 S
C1413 C1414 1.396 . S
C1413 C1418 1.390 . S
C1414 C1408 1.465 . S
C1414 C1413 1.396 . S
C1414 C1415 1.399 . S
C1415 H1401 0.929 . S
C1415 C1414 1.399 . S
C1415 C1416 1.385 . S
C1416 H1402 0.931 . S
C1416 C1415 1.385 . S
C1416 C1417 1.389 . S
C1417 C1416 1.389 . S
C1417 C1418 1.387 . S
C1418 H1403 0.930 . S
C1418 C1413 1.390 . S
C1418 C1417 1.387 . S
H1419 C1431 0.930 . S
H1420 C1433 0.930 . S
H1421 C1434 0.930 . S
H1422 C1438 0.959 . S
H1423 C1438 0.959 . S
H1424 C1438 0.961 . S
H1425 C1439 0.960 . S
H1426 C1439 0.961 . S
H1427 C1439 0.959 . S
H1428 C1442 0.929 . S
H1429 C1443 0.931 . S
H1430 C1445 0.930 . S
C1431 H1419 0.930 . S
C1431 C1432 1.399 . S
C1431 C1436 1.399 . S
C1432 C1431 1.399 . S
C1432 C1433 1.376 . S
C1433 H1420 0.930 . S
C1433 C1432 1.376 . S
C1433 C1434 1.388 . S
C1434 H1421 0.930 . S
C1434 C1433 1.388 . S
C1434 C1435 1.390 . S
C1435 C1434 1.390 . S
C1435 C1436 1.394 . S
C1435 C1441 1.465 1_655 S
C1436 C1431 1.399 . S
C1436 C1435 1.394 . S
C1436 C1437 1.516 1_655 S
C1437 C1436 1.516 1_455 S
C1437 C1438 1.502 . S
C1437 C1439 1.561 1_455 S
C1437 C1440 1.526 . S
C1438 H1422 0.959 . S
C1438 H1423 0.959 . S
C1438 H1424 0.961 . S
C1438 C1437 1.502 . S
C1439 H1425 0.960 . S
C1439 H1426 0.961 . S
C1439 H1427 0.959 . S
C1439 C1437 1.561 1_655 S
C1440 C1437 1.526 . S
C1440 C1441 1.396 . S
C1440 C1445 1.390 . S
C1441 C1435 1.465 1_455 S
C1441 C1440 1.396 . S
C1441 C1442 1.399 . S
C1442 H1428 0.929 . S
C1442 C1441 1.399 . S
C1442 C1443 1.385 . S
C1443 H1429 0.931 . S
C1443 C1442 1.385 . S
C1443 C1444 1.389 . S
C1444 C1443 1.389 . S
C1444 C1445 1.387 . S
C1445 H1430 0.930 . S
C1445 C1440 1.390 . S
C1445 C1444 1.387 . S
H1446 C1458 0.930 . S
H1447 C1460 0.930 . S
H1448 C1461 0.930 . S
H1449 C1465 0.959 . S
H1450 C1465 0.959 . S
H1451 C1465 0.961 . S
H1452 C1466 0.960 . S
H1453 C1466 0.961 . S
H1454 C1466 0.959 . S
H1455 C1469 0.929 . S
H1456 C1470 0.931 . S
H1457 C1472 0.930 . S
C1458 H1446 0.930 . S
C1458 C1459 1.399 . S
C1458 C1463 1.399 . S
C1459 C1458 1.399 . S
C1459 C1460 1.376 . S
C1460 H1447 0.930 . S
C1460 C1459 1.376 . S
C1460 C1461 1.388 1_565 S
C1461 H1448 0.930 . S
C1461 C1460 1.388 1_545 S
C1461 C1462 1.396 . S
C1462 C1461 1.396 . S
C1462 C1463 1.370 1_545 S
C1462 C1468 1.480 . S
C1463 C1458 1.399 . S
C1463 C1462 1.370 1_565 S
C1463 C1464 1.516 . S
C1464 C1463 1.516 . S
C1464 C1465 1.502 . S
C1464 C1466 1.561 . S
C1464 C1467 1.526 1_565 S
C1465 H1449 0.959 . S
C1465 H1450 0.959 . S
C1465 H1451 0.961 . S
C1465 C1464 1.502 . S
C1466 H1452 0.960 . S
C1466 H1453 0.961 . S
C1466 H1454 0.959 . S
C1466 C1464 1.561 . S
C1467 C1464 1.526 1_545 S
C1467 C1468 1.396 . S
C1467 C1472 1.390 . S
C1468 C1462 1.480 . S
C1468 C1467 1.396 . S
C1468 C1469 1.399 . S
C1469 H1455 0.929 . S
C1469 C1468 1.399 . S
C1469 C1470 1.385 . S
C1470 H1456 0.931 . S
C1470 C1469 1.385 . S
C1470 C1471 1.389 . S
C1471 C1470 1.389 . S
C1471 C1472 1.387 . S
C1472 H1457 0.930 . S
C1472 C1467 1.390 . S
C1472 C1471 1.387 . S
H1473 C1485 0.930 . S
H1474 C1487 0.930 . S
H1475 C1488 0.930 . S
H1476 C1492 0.959 . S
H1477 C1492 0.959 . S
H1478 C1492 0.961 . S
H1479 C1493 0.960 . S
H1480 C1493 0.967 . S
H1481 C1493 0.959 . S
H1482 C1496 0.929 1_655 S
H1483 C1497 0.931 . S
H1484 C1499 0.930 . S
C1485 H1473 0.930 . S
C1485 C1486 1.399 . S
C1485 C1490 1.399 . S
C1486 C1485 1.399 . S
C1486 C1487 1.376 . S
C1487 H1474 0.930 . S
C1487 C1486 1.376 . S
C1487 C1488 1.388 . S
C1488 H1475 0.930 . S
C1488 C1487 1.388 . S
C1488 C1489 1.390 . S
C1489 C1488 1.390 . S
C1489 C1490 1.394 . S
C1489 C1495 1.444 1_655 S
C1490 C1485 1.399 . S
C1490 C1489 1.394 . S
C1490 C1491 1.516 1_655 S
C1491 C1490 1.516 1_455 S
C1491 C1492 1.502 . S
C1491 C1493 1.561 1_455 S
C1491 C1494 1.526 . S
C1492 H1476 0.959 . S
C1492 H1477 0.959 . S
C1492 H1478 0.961 . S
C1492 C1491 1.502 . S
C1493 H1479 0.960 . S
C1493 H1480 0.967 . S
C1493 H1481 0.959 . S
C1493 C1491 1.561 1_655 S
C1494 C1491 1.526 . S
C1494 C1495 1.416 . S
C1494 C1499 1.390 . S
C1495 C1489 1.444 1_455 S
C1495 C1494 1.416 . S
C1495 C1496 1.403 . S
C1496 H1482 0.929 1_455 S
C1496 C1495 1.403 . S
C1496 C1497 1.385 . S
C1497 H1483 0.931 . S
C1497 C1496 1.385 . S
C1497 C1498 1.389 . S
C1498 C1497 1.389 . S
C1498 C1499 1.387 . S
C1499 H1484 0.930 . S
C1499 C1494 1.390 . S
C1499 C1498 1.387 . S
H1500 C1512 0.930 . S
H1501 C1514 0.930 . S
H1502 C1515 0.930 . S
H1503 C1519 0.959 1_556 S
H1504 C1519 0.959 . S
H1505 C1519 0.961 1_556 S
H1506 C1520 0.960 . S
H1507 C1520 0.961 . S
H1508 C1520 0.959 . S
H1509 C1523 0.929 . S
H1510 C1524 0.931 . S
H1511 C1526 0.930 . S
C1512 H1500 0.930 . S
C1512 C1513 1.399 . S
C1512 C1517 1.399 . S
C1513 C1512 1.399 . S
C1513 C1514 1.376 . S
C1514 H1501 0.930 . S
C1514 C1513 1.376 . S
C1514 C1515 1.388 . S
C1515 H1502 0.930 . S
C1515 C1514 1.388 . S
C1515 C1516 1.390 . S
C1516 C1515 1.390 . S
C1516 C1517 1.394 . S
C1516 C1522 1.465 1_556 S
C1517 C1512 1.399 . S
C1517 C1516 1.394 . S
C1517 C1518 1.516 1_556 S
C1518 C1517 1.516 1_554 S
C1518 C1519 1.502 . S
C1518 C1520 1.561 . S
C1518 C1521 1.526 . S
C1519 H1503 0.959 1_554 S
C1519 H1504 0.959 . S
C1519 H1505 0.961 1_554 S
C1519 C1518 1.502 . S
C1520 H1506 0.960 . S
C1520 H1507 0.961 . S
C1520 H1508 0.959 . S
C1520 C1518 1.561 . S
C1521 C1518 1.526 . S
C1521 C1522 1.396 . S
C1521 C1526 1.390 . S
C1522 C1516 1.465 1_554 S
C1522 C1521 1.396 . S
C1522 C1523 1.399 . S
C1523 H1509 0.929 . S
C1523 C1522 1.399 . S
C1523 C1524 1.385 . S
C1524 H1510 0.931 . S
C1524 C1523 1.385 . S
C1524 C1525 1.389 . S
C1525 C1524 1.389 . S
C1525 C1526 1.387 . S
C1526 H1511 0.930 . S
C1526 C1521 1.390 . S
C1526 C1525 1.387 . S
H1527 C1539 0.930 . S
H1528 C1541 0.930 . S
H1529 C1542 0.930 . S
H1530 C1546 0.959 . S
H1531 C1546 0.959 . S
H1532 C1546 0.961 1_556 S
H1533 C1547 0.960 . S
H1534 C1547 0.961 . S
H1535 C1547 0.959 . S
H1536 C1550 0.929 . S
H1537 C1551 0.931 . S
H1538 C1553 0.930 . S
C1539 H1527 0.930 . S
C1539 C1540 1.399 . S
C1539 C1544 1.399 . S
C1540 C1539 1.399 . S
C1540 C1541 1.376 . S
C1541 H1528 0.930 . S
C1541 C1540 1.376 . S
C1541 C1542 1.388 . S
C1542 H1529 0.930 . S
C1542 C1541 1.388 . S
C1542 C1543 1.390 . S
C1543 C1542 1.390 . S
C1543 C1544 1.394 . S
C1543 C1549 1.465 1_556 S
C1544 C1539 1.399 . S
C1544 C1543 1.394 . S
C1544 C1545 1.516 . S
C1545 C1544 1.516 . S
C1545 C1546 1.502 1_556 S
C1545 C1547 1.561 . S
C1545 C1548 1.526 1_556 S
C1546 H1530 0.959 . S
C1546 H1531 0.959 . S
C1546 H1532 0.961 1_554 S
C1546 C1545 1.502 1_554 S
C1547 H1533 0.960 . S
C1547 H1534 0.961 . S
C1547 H1535 0.959 . S
C1547 C1545 1.561 . S
C1548 C1545 1.526 1_554 S
C1548 C1549 1.396 . S
C1548 C1553 1.390 . S
C1549 C1543 1.465 1_554 S
C1549 C1548 1.396 . S
C1549 C1550 1.399 . S
C1550 H1536 0.929 . S
C1550 C1549 1.399 . S
C1550 C1551 1.385 . S
C1551 H1537 0.931 . S
C1551 C1550 1.385 . S
C1551 C1552 1.389 . S
C1552 C1551 1.389 . S
C1552 C1553 1.387 . S
C1553 H1538 0.930 . S
C1553 C1548 1.390 . S
C1553 C1552 1.387 . S
H1554 C1566 0.930 . S
H1555 C1568 0.930 . S
H1556 C1569 0.930 . S
H1557 C1573 0.959 . S
H1558 C1573 0.959 . S
H1559 C1573 0.961 . S
H1560 C1574 0.960 . S
H1561 C1574 0.961 . S
H1562 C1574 0.959 . S
H1563 C1577 0.929 . S
H1564 C1578 0.931 . S
H1565 C1580 0.930 . S
C1566 H1554 0.930 . S
C1566 C1567 1.399 . S
C1566 C1571 1.399 . S
C1567 C1566 1.399 . S
C1567 C1568 1.376 . S
C1568 H1555 0.930 . S
C1568 C1567 1.376 . S
C1568 C1569 1.388 . S
C1569 H1556 0.930 . S
C1569 C1568 1.388 . S
C1569 C1570 1.390 . S
C1570 C1569 1.390 . S
C1570 C1571 1.394 . S
C1570 C1576 1.465 1_554 S
C1571 C1566 1.399 . S
C1571 C1570 1.394 . S
C1571 C1572 1.516 . S
C1572 C1571 1.516 . S
C1572 C1573 1.502 . S
C1572 C1574 1.561 . S
C1572 C1575 1.526 1_554 S
C1573 H1557 0.959 . S
C1573 H1558 0.959 . S
C1573 H1559 0.961 . S
C1573 C1572 1.502 . S
C1574 H1560 0.960 . S
C1574 H1561 0.961 . S
C1574 H1562 0.959 . S
C1574 C1572 1.561 . S
C1575 C1572 1.526 1_556 S
C1575 C1576 1.396 . S
C1575 C1580 1.390 . S
C1576 C1570 1.465 1_556 S
C1576 C1575 1.396 . S
C1576 C1577 1.399 . S
C1577 H1563 0.929 . S
C1577 C1576 1.399 . S
C1577 C1578 1.385 . S
C1578 H1564 0.931 . S
C1578 C1577 1.385 . S
C1578 C1579 1.389 . S
C1579 C1578 1.389 . S
C1579 C1580 1.387 . S
C1580 H1565 0.930 . S
C1580 C1575 1.390 . S
C1580 C1579 1.387 . S
H1581 C1593 0.930 . S
H1582 C1595 0.930 . S
H1583 C1596 0.930 . S
H1584 C1600 0.959 . S
H1585 C1600 0.959 . S
H1586 C1600 0.954 1_556 S
H1587 C1601 0.960 . S
H1588 C1601 0.961 1_554 S
H1589 C1601 0.959 . S
H1590 C1604 0.929 . S
H1591 C1605 0.931 . S
H1592 C1607 0.930 . S
C1593 H1581 0.930 . S
C1593 C1594 1.399 . S
C1593 C1598 1.399 . S
C1594 C1593 1.399 . S
C1594 C1595 1.376 . S
C1595 H1582 0.930 . S
C1595 C1594 1.376 . S
C1595 C1596 1.388 . S
C1596 H1583 0.930 . S
C1596 C1595 1.388 . S
C1596 C1597 1.390 . S
C1597 C1596 1.390 . S
C1597 C1598 1.394 . S
C1597 C1603 1.465 1_556 S
C1598 C1593 1.399 . S
C1598 C1597 1.394 . S
C1598 C1599 1.497 1_556 S
C1599 C1598 1.497 1_554 S
C1599 C1600 1.514 . S
C1599 C1601 1.550 1_554 S
C1599 C1602 1.544 . S
C1600 H1584 0.959 . S
C1600 H1585 0.959 . S
C1600 H1586 0.954 1_554 S
C1600 C1599 1.514 . S
C1601 H1587 0.960 . S
C1601 H1588 0.961 1_556 S
C1601 H1589 0.959 . S
C1601 C1599 1.550 1_556 S
C1602 C1599 1.544 . S
C1602 C1603 1.396 . S
C1602 C1607 1.390 . S
C1603 C1597 1.465 1_554 S
C1603 C1602 1.396 . S
C1603 C1604 1.399 . S
C1604 H1590 0.929 . S
C1604 C1603 1.399 . S
C1604 C1605 1.385 . S
C1605 H1591 0.931 . S
C1605 C1604 1.385 . S
C1605 C1606 1.389 . S
C1606 C1605 1.389 . S
C1606 C1607 1.387 . S
C1607 H1592 0.930 . S
C1607 C1602 1.390 . S
C1607 C1606 1.387 . S
C541 C18 1.865 . S
C553 N101 1.712 . S
C568 N2 1.679 . S
C580 C51 1.861 . S
C595 C84 1.865 . S
C607 N35 1.703 . S
C622 N68 1.760 . S
C634 C117 1.859 . S
C649 N167 1.680 . S
C661 C150 1.858 . S
C676 N200 1.767 . S
C688 C183 1.852 . S
C703 N233 1.769 . S
C715 C216 1.856 . S
C730 C249 1.861 . S
C742 N134 1.751 . S
C757 C282 1.864 . S
C769 N365 1.733 . S
C784 C315 1.856 . S
C796 N266 1.767 . S
C811 C348 1.849 . S
C823 N299 1.733 . S
C838 N332 1.682 . S
C850 C381 1.862 . S
C865 N431 1.692 . S
C877 C414 1.854 . S
C892 C447 1.864 . S
C904 N464 1.689 . S
C919 C480 1.850 . S
C931 N497 1.759 . S
C946 C513 1.863 . S
C958 N398 1.687 . S
C973 C7 0.984 . S
C985 C172 0.993 . S
C1000 C40 0.997 . S
C1012 C205 0.976 . S
C1027 C238 0.996 . S
C1039 C73 0.956 . S
C1054 C106 0.950 . S
C1066 C139 0.992 . S
C1081 C271 0.974 . S
C1093 C436 0.997 . S
C1108 C304 0.984 . S
C1120 C469 0.946 . S
C1135 C337 0.967 . S
C1147 C502 0.945 . S
C1162 C370 0.948 . S
C1174 C403 0.989 . S
C1189 C21 0.474 . S
C1201 C516 0.496 . S
C1216 C417 0.527 . S
C1228 C54 0.515 . S
C1243 C87 0.528 . S
C1255 C450 0.524 . S
C1270 C120 0.456 . S
C1282 C483 0.477 . S
C1297 C318 0.528 . S
C1309 C153 0.522 . S
C1324 C351 0.496 . S
C1336 C186 0.473 . S
C1351 C384 0.466 . S
C1363 C219 0.488 . S
C1378 C285 0.443 . S
C1390 C252 0.456 . S
C1405 N13 0.820 . S
C1417 N145 0.725 . S
C1432 N46 0.726 . S
C1444 N178 0.798 . S
C1459 N79 0.815 . S
C1471 N211 0.725 . S
C1486 N244 0.723 . S
C1498 N112 0.814 . S
C1513 N277 0.756 . S
C1525 N409 0.749 . S
C1540 N310 0.925 . S
C1552 N442 0.901 . S
C1567 N475 0.842 . S
C1579 N343 0.935 . S
C1594 N376 0.934 . S
C1606 N508 0.880 . S
