# Generated by pormake.
# Topology rob, (6)-cn, num edge types: 1
# Building blocks:
#     Node 0, Type 0, BuildingBlock: BETFEN_clean_sbu_0, # of connection points: 6
#     Node 1, Type 0, BuildingBlock: BETFEN_clean_sbu_0, # of connection points: 6
#     Node 2, Type 0, BuildingBlock: BETFEN_clean_sbu_0, # of connection points: 6
#     Node 3, Type 0, BuildingBlock: BETFEN_clean_sbu_0, # of connection points: 6
#     Edge 4, Type (0, 0), BuildingBlock: FUNLAD_clean_linker_1, # of connection points: 2
#     Edge 5, Type (0, 0), BuildingBlock: FUNLAD_clean_linker_1, # of connection points: 2
#     Edge 6, Type (0, 0), BuildingBlock: FUNLAD_clean_linker_1, # of connection points: 2
#     Edge 7, Type (0, 0), BuildingBlock: FUNLAD_clean_linker_1, # of connection points: 2
#     Edge 8, Type (0, 0), BuildingBlock: FUNLAD_clean_linker_1, # of connection points: 2
#     Edge 9, Type (0, 0), BuildingBlock: FUNLAD_clean_linker_1, # of connection points: 2
#     Edge 10, Type (0, 0), BuildingBlock: FUNLAD_clean_linker_1, # of connection points: 2
#     Edge 11, Type (0, 0), BuildingBlock: FUNLAD_clean_linker_1, # of connection points: 2
#     Edge 12, Type (0, 0), BuildingBlock: FUNLAD_clean_linker_1, # of connection points: 2
#     Edge 13, Type (0, 0), BuildingBlock: FUNLAD_clean_linker_1, # of connection points: 2
#     Edge 14, Type (0, 0), BuildingBlock: FUNLAD_clean_linker_1, # of connection points: 2
#     Edge 15, Type (0, 0), BuildingBlock: FUNLAD_clean_linker_1, # of connection points: 2
# Relax obj value: 0.050
# Max RMSD: 0.161
# Mean RMSD: 0.161
data_MOF--net-rob--node1-BETFEN_clean_sbu_0--edge1-FUNLAD_clean_linker_1
_symmetry_space_group_name_H-M    P1
_symmetry_Int_Tables_number       1
_symmetry_cell_setting            triclinic
loop_
_symmetry_equiv_pos_as_xyz
'x, y, z'
_cell_length_a     15.054675
_cell_length_b     26.443726
_cell_length_c     38.408393
_cell_angle_alpha  95.467325
_cell_angle_beta   89.69165
_cell_angle_gamma 90.485526
loop_
_atom_site_label
_atom_site_type_symbol
_atom_site_fract_x
_atom_site_fract_y
_atom_site_fract_z
_atom_type_partial_charge
Pr0 Pr 0.20951 0.27553 0.03523 0.0
Pr1 Pr 0.38094 0.23553 1.00191 0.0
C2 C 0.07141 0.29126 0.07983 0.0
C3 C 0.05731 0.28397 0.11732 0.0
C4 C 0.02725 0.32454 0.14052 0.0
C5 C 0.01466 0.31859 0.1761 0.0
C6 C 0.032 0.27173 0.18929 0.0
C7 C 0.06251 0.23129 0.16603 0.0
C8 C 0.07568 0.23736 0.13053 0.0
C9 C 0.33511 0.35082 0.024 0.0
C10 C 0.37153 0.23846 0.08539 0.0
C11 C 0.52975 0.22054 0.96291 0.0
C12 C 0.55213 0.21637 0.92546 0.0
C13 C 0.48494 0.21343 0.90019 0.0
C14 C 0.50641 0.21245 0.86466 0.0
C15 C 0.59594 0.2142 0.85374 0.0
C16 C 0.66276 0.21673 0.87931 0.0
C17 C 0.64111 0.21775 0.91483 0.0
C18 C 0.26123 0.15921 1.01567 0.0
C19 C 0.2151 0.27226 0.95109 0.0
O20 O 0.07892 0.25042 0.05792 0.0
O21 O 0.12718 0.32723 0.07314 0.0
O22 O 0.35149 0.30905 0.03581 0.0
O23 O 0.25074 0.35577 0.01814 0.0
O24 O 0.42829 0.2439 0.05982 0.0
O25 O 0.28519 0.23961 0.08009 0.0
O26 O 0.50379 0.26535 0.97625 0.0
O27 O 0.48241 0.18344 0.97382 0.0
O28 O 0.2399 0.19979 1.00282 0.0
O29 O 0.34617 0.15652 0.02077 0.0
O30 O 0.15919 0.27449 0.97779 0.0
O31 O 0.30058 0.26336 0.95487 0.0
H32 H 0.01286 0.36088 0.13105 0.0
H33 H 0.989 0.35037 0.19287 0.0
H34 H 0.07601 0.19471 0.17532 0.0
H35 H 0.10007 0.20548 0.11347 0.0
H36 H 0.41572 0.2127 0.90798 0.0
H37 H 0.45228 0.21151 0.84628 0.0
H38 H 0.73208 0.21864 0.87185 0.0
H39 H 0.69386 0.22038 0.93402 0.0
Pr40 Pr 0.64993 0.80269 0.02909 0.0
Pr41 Pr 0.8182 0.76547 0.99256 0.0
C42 C 0.50459 0.81593 0.07023 0.0
C43 C 0.48447 0.81912 0.10791 0.0
C44 C 0.41258 0.84816 0.1214 0.0
C45 C 0.39279 0.85135 0.15717 0.0
C46 C 0.44426 0.82539 0.18006 0.0
C47 C 0.51761 0.79706 0.16645 0.0
C48 C 0.53711 0.79382 0.13069 0.0
C49 C 0.76552 0.88086 1.01487 0.0
C50 C 0.82201 0.76863 0.07676 0.0
C51 C 0.96354 0.75165 0.95125 0.0
C52 C 0.98553 0.74696 0.91374 0.0
C53 C 0.91862 0.74639 0.88844 0.0
C54 C 0.94058 0.74378 0.85284 0.0
C55 C 0.03018 0.74127 0.84196 0.0
C56 C 0.09666 0.7418 0.86757 0.0
C57 C 0.07457 0.74455 0.9031 0.0
C58 C 0.69582 0.68839 1.00432 0.0
C59 C 0.64785 0.79956 0.94475 0.0
O60 O 0.5299 0.77159 0.0557 0.0
O61 O 0.55009 0.85373 0.05935 0.0
O62 O 0.78952 0.84 0.0267 0.0
O63 O 0.68014 0.88259 1.01072 0.0
O64 O 0.87352 0.76965 0.04907 0.0
O65 O 0.73509 0.77431 0.07481 0.0
O66 O 0.93658 0.79628 0.9645 0.0
O67 O 0.91821 0.71424 0.96275 0.0
O68 O 0.67746 0.73043 0.9934 0.0
O69 O 0.78081 0.68397 1.00885 0.0
O70 O 0.59565 0.79669 0.97213 0.0
O71 O 0.73494 0.79556 0.94718 0.0
H72 H 0.37153 0.86823 0.10425 0.0
H73 H 0.3364 0.87375 0.16691 0.0
H74 H 0.56082 0.77774 0.18316 0.0
H75 H 0.59326 0.77145 0.1208 0.0
H76 H 0.84955 0.74856 0.89633 0.0
H77 H 0.88732 0.74495 0.83421 0.0
H78 H 0.16617 0.74033 0.86009 0.0
H79 H 0.12714 0.74523 0.92231 0.0
Pr80 Pr 0.15543 0.73453 0.48923 0.0
Pr81 Pr 0.32326 0.77696 0.52741 0.0
C82 C 0.01057 0.71867 0.44822 0.0
C83 C 0.98635 0.72198 0.41144 0.0
C84 C 0.9008 0.70788 0.39989 0.0
C85 C 0.87667 0.71183 0.36512 0.0
C86 C 0.93788 0.72953 0.34122 0.0
C87 C 0.02355 0.7441 0.35306 0.0
C88 C 0.04747 0.74015 0.38785 0.0
C89 C 0.28658 0.66304 0.49803 0.0
C90 C 0.32095 0.7826 0.44375 0.0
C91 C 0.46824 0.79152 0.56809 0.0
C92 C 0.48731 0.79752 0.6058 0.0
C93 C 0.5594 0.82755 0.61841 0.0
C94 C 0.57782 0.83357 0.65423 0.0
C95 C 0.52466 0.80956 0.67809 0.0
C96 C 0.45119 0.78018 0.6653 0.0
C97 C 0.43321 0.77404 0.62948 0.0
C98 C 0.19415 0.8493 0.51867 0.0
C99 C 0.1545 0.73111 0.57361 0.0
O100 O 0.02786 0.76177 0.46664 0.0
O101 O 0.06566 0.68264 0.45436 0.0
O102 O 0.29985 0.707 0.48902 0.0
O103 O 0.2024 0.65344 0.50185 0.0
O104 O 0.37464 0.77777 0.47018 0.0
O105 O 0.23425 0.77552 0.44653 0.0
O106 O 0.44026 0.7466 0.55522 0.0
O107 O 0.42588 0.82883 0.55566 0.0
O108 O 0.17915 0.80528 0.52744 0.0
O109 O 0.27875 0.85838 0.51566 0.0
O110 O 0.10288 0.73009 0.54595 0.0
O111 O 0.24019 0.74245 0.57207 0.0
H112 H 0.85249 0.69405 0.4178 0.0
H113 H 0.81 0.70084 0.35683 0.0
H114 H 0.07152 0.75968 0.33585 0.0
H115 H 0.11334 0.75171 0.39653 0.0
H116 H 0.60162 0.84624 0.60054 0.0
H117 H 0.63437 0.85672 0.66329 0.0
H118 H 0.40669 0.7622 0.68264 0.0
H119 H 0.37705 0.75088 0.62024 0.0
Pr120 Pr 0.68292 0.24608 0.50178 0.0
Pr121 Pr 0.84693 0.29333 0.54088 0.0
C122 C 0.53711 0.23357 0.46141 0.0
C123 C 0.51054 0.23415 0.42452 0.0
C124 C 0.45877 0.19416 0.40872 0.0
C125 C 0.43263 0.19397 0.37385 0.0
C126 C 0.45719 0.23388 0.35398 0.0
C127 C 0.5079 0.27456 0.37019 0.0
C128 C 0.53478 0.27443 0.40498 0.0
C129 C 0.8145 0.1765 0.51247 0.0
C130 C 0.85444 0.29152 0.45598 0.0
C131 C 0.98 0.31131 0.5872 0.0
C132 C 0.98615 0.31448 0.62585 0.0
C133 C 0.92155 0.33999 0.64732 0.0
C134 C 0.92734 0.34168 0.68381 0.0
C135 C 0.99651 0.31705 0.69969 0.0
C136 C 0.06119 0.29152 0.67808 0.0
C137 C 0.05586 0.29026 0.64158 0.0
C138 C 0.7099 0.36077 0.5313 0.0
C139 C 0.68455 0.23921 0.58557 0.0
O140 O 0.5606 0.27711 0.47808 0.0
O141 O 0.58571 0.19546 0.4693 0.0
O142 O 0.82854 0.22076 0.50372 0.0
O143 O 0.73004 0.1657 0.51404 0.0
O144 O 0.90343 0.29761 0.48453 0.0
O145 O 0.76998 0.27696 0.45665 0.0
O146 O 0.9631 0.26624 0.57141 0.0
O147 O 0.9371 0.34757 0.57368 0.0
O148 O 0.70071 0.31649 0.54026 0.0
O149 O 0.79324 0.37313 0.5284 0.0
O150 O 0.63144 0.2384 0.55838 0.0
O151 O 0.7687 0.25315 0.58378 0.0
H152 H 0.43883 0.16284 0.42336 0.0
H153 H 0.39352 0.16218 0.36228 0.0
H154 H 0.52824 0.30644 0.35638 0.0
H155 H 0.57471 0.30589 0.41651 0.0
H156 H 0.86638 0.35858 0.63596 0.0
H157 H 0.8772 0.36208 0.6997 0.0
H158 H 0.11701 0.27326 0.68915 0.0
H159 H 0.10636 0.27031 0.62558 0.0
H160 H 0.56102 0.65521 0.99966 0.0
C161 C 0.62961 0.64694 1.00559 0.0
H162 H 0.71898 0.5913 0.0195 0.0
H163 H 0.41718 0.45545 0.08115 0.0
H164 H 0.48992 0.49045 0.13426 0.0
H165 H 0.60584 0.55662 0.13265 0.0
H166 H 0.64946 0.58846 0.07788 0.0
C167 C 0.65113 0.59973 1.01263 0.0
C168 C 0.58254 0.55841 1.01308 0.0
C169 C 0.55913 0.53919 0.04517 0.0
C170 C 0.49314 0.50028 0.046 0.0
C171 C 0.46862 0.48368 0.07873 0.0
C172 C 0.5094 0.50376 0.10952 0.0
C173 C 0.57461 0.54107 0.10862 0.0
C174 C 0.59917 0.55889 0.07696 0.0
H175 H 0.47062 0.38304 0.02923 0.0
C176 C 0.40257 0.39162 0.02271 0.0
H177 H 0.3151 0.4474 1.00762 0.0
H178 H 0.6166 0.58302 0.94657 0.0
H179 H 0.54375 0.5481 0.89343 0.0
H180 H 0.42805 0.48173 0.895 0.0
H181 H 0.38493 0.44964 0.94973 0.0
C182 C 0.38246 0.43876 1.01503 0.0
C183 C 0.45173 0.47971 1.01456 0.0
C184 C 0.4752 0.49892 0.98247 0.0
C185 C 0.54111 0.53787 0.98165 0.0
C186 C 0.56536 0.55465 0.94895 0.0
C187 C 0.52448 0.53464 0.91816 0.0
C188 C 0.45942 0.49724 0.91903 0.0
C189 C 0.43511 0.47927 0.95068 0.0
H190 H 0.42663 0.63969 0.49716 0.0
C191 C 0.35914 0.62687 0.50175 0.0
H192 H 0.27779 0.56571 0.51424 0.0
H193 H 0.56562 0.39985 0.46372 0.0
H194 H 0.45187 0.38313 0.41968 0.0
H195 H 0.32248 0.43937 0.41798 0.0
H196 H 0.30632 0.51295 0.46023 0.0
C197 C 0.34509 0.57953 0.51065 0.0
C198 C 0.42052 0.54378 0.51341 0.0
C199 C 0.42804 0.50017 0.48905 0.0
C200 C 0.50203 0.46717 0.49042 0.0
C201 C 0.50962 0.42528 0.46469 0.0
C202 C 0.44509 0.41542 0.43903 0.0
C203 C 0.3723 0.44714 0.43804 0.0
C204 C 0.36375 0.4892 0.46254 0.0
H205 H 0.56797 0.38065 0.53238 0.0
C206 C 0.63438 0.395 0.52762 0.0
H207 H 0.71123 0.45782 0.51502 0.0
H208 H 0.42158 0.62064 0.56668 0.0
H209 H 0.53484 0.63724 0.61091 0.0
H210 H 0.66428 0.58098 0.61269 0.0
H211 H 0.68094 0.50765 0.57029 0.0
C212 C 0.64493 0.44262 0.51876 0.0
C213 C 0.56756 0.47721 0.5167 0.0
C214 C 0.55958 0.52057 0.54126 0.0
C215 C 0.48561 0.55354 0.53988 0.0
C216 C 0.47769 0.59528 0.56571 0.0
C217 C 0.54191 0.60503 0.59149 0.0
C218 C 0.61471 0.57332 0.59252 0.0
C219 C 0.62357 0.53142 0.56791 0.0
H220 H 0.22974 0.08251 0.02991 0.0
C221 C 0.20117 0.11567 0.01969 0.0
H222 H 0.08612 0.14663 0.99917 0.0
H223 H 0.92524 0.9272 0.95254 0.0
H224 H 0.95852 0.95814 0.89649 0.0
H225 H 0.0378 0.03956 0.8931 0.0
H226 H 0.08501 0.09032 0.94575 0.0
C227 C 0.115 0.11462 1.01069 0.0
C228 C 0.05984 0.06771 1.01317 0.0
C229 C 0.03065 0.03899 0.98218 0.0
C230 C 0.98326 0.99243 0.98417 0.0
C231 C 0.95876 0.96355 0.95268 0.0
C232 C 0.97809 0.98068 0.92027 0.0
C233 C 0.02288 0.02647 0.91836 0.0
C234 C 0.04945 0.05529 0.94882 0.0
H235 H 0.79301 0.95832 1.00115 0.0
C236 C 0.8234 0.92537 1.01098 0.0
H237 H 0.94039 0.89576 0.0309 0.0
H238 H 0.0966 0.11603 0.07777 0.0
H239 H 0.06211 0.08559 0.13388 0.0
H240 H 0.98286 1.00413 0.13734 0.0
H241 H 0.93672 0.95296 0.08468 0.0
C242 C 0.90978 0.92751 0.01967 0.0
C243 C 0.96305 0.97513 0.01722 0.0
C244 C 0.99165 1.00406 0.04822 0.0
C245 C 0.03904 0.05061 0.04622 0.0
C246 C 0.06306 0.0797 0.0777 0.0
C247 C 0.04306 0.06284 0.11012 0.0
C248 C 0.99828 0.01704 0.11206 0.0
C249 C 0.97235 0.98797 0.0816 0.0
H250 H 0.95361 0.1507 0.50968 0.0
C251 C 0.88545 0.13872 0.51385 0.0
H252 H 0.79934 0.07754 0.52197 0.0
H253 H 0.05905 0.90828 0.45519 0.0
H254 H 0.94398 0.9062 0.41123 0.0
H255 H 0.82523 0.97024 0.41521 0.0
H256 H 0.82115 0.03686 0.46312 0.0
C257 C 0.86766 0.09012 0.51905 0.0
C258 C 0.9388 0.05108 0.5174 0.0
C259 C 0.93933 1.01175 0.48955 0.0
C260 C 0.00713 0.97437 0.4875 0.0
C261 C 0.00783 0.93676 0.45864 0.0
C262 C 0.94248 0.93534 0.43303 0.0
C263 C 0.87569 0.97141 0.43525 0.0
C264 C 0.87401 1.00938 0.463 0.0
H265 H 0.05615 0.87676 0.5222 0.0
C266 C 0.12459 0.88797 0.51771 0.0
H267 H 0.21233 0.9482 0.50903 0.0
H268 H 0.95343 0.1187 0.57586 0.0
H269 H 0.06874 0.12087 0.61973 0.0
H270 H 0.1876 0.05691 0.61568 0.0
H271 H 0.19155 0.99024 0.56777 0.0
C272 C 0.14374 0.9363 0.51226 0.0
C273 C 0.07347 0.97584 0.51369 0.0
C274 C 0.07315 1.01526 0.54146 0.0
C275 C 0.00531 0.05263 0.54353 0.0
C276 C 0.00467 0.09024 0.57238 0.0
C277 C 0.07017 0.09172 0.59794 0.0
C278 C 0.13702 0.05568 0.59568 0.0
C279 C 0.13862 0.01769 0.56795 0.0
H280 H 0.39548 0.1959 0.30615 0.0
C281 C 0.43112 0.23005 0.31639 0.0
H282 H 0.48331 0.30038 0.30261 0.0
H283 H 0.45277 0.1523 0.15207 0.0
H284 H 0.56484 0.10037 0.17606 0.0
H285 H 0.61847 0.12033 0.23643 0.0
H286 H 0.55891 0.1915 0.27335 0.0
C287 C 0.45131 0.26462 0.29394 0.0
C288 C 0.42736 0.25591 0.25623 0.0
C289 C 0.46587 0.21533 0.2345 0.0
C290 C 0.43843 0.20542 0.19909 0.0
C291 C 0.474 0.16289 0.17863 0.0
C292 C 0.53798 0.13254 0.19216 0.0
C293 C 0.56789 0.14364 0.22618 0.0
C294 C 0.53256 0.18447 0.24721 0.0
H295 H 0.47423 0.24282 0.12652 0.0
C296 C 0.40416 0.23561 0.12129 0.0
H297 H 0.27744 0.22268 0.14271 0.0
H298 H 0.34624 0.33927 0.28985 0.0
H299 H 0.2387 0.39325 0.26514 0.0
H300 H 0.19168 0.37645 0.20369 0.0
H301 H 0.25295 0.30624 0.16643 0.0
C302 C 0.34784 0.22879 0.14781 0.0
C303 C 0.37565 0.2375 0.18503 0.0
C304 C 0.33863 0.27872 0.20655 0.0
C305 C 0.36529 0.28825 0.24205 0.0
C306 C 0.32833 0.33017 0.26273 0.0
C307 C 0.26653 0.36156 0.24887 0.0
C308 C 0.23997 0.35206 0.2143 0.0
C309 C 0.27558 0.31139 0.19322 0.0
H310 H 0.3746 0.85923 0.22757 0.0
C311 C 0.41944 0.82903 0.21778 0.0
H312 H 0.48369 0.7623 0.23058 0.0
H313 H 0.4082 0.88235 0.38788 0.0
H314 H 0.51731 0.9441 0.37182 0.0
H315 H 0.58091 0.93865 0.31226 0.0
H316 H 0.53447 0.87195 0.2682 0.0
C317 C 0.44479 0.79528 0.23979 0.0
C318 C 0.41015 0.79773 0.27627 0.0
C319 C 0.44039 0.83591 0.30203 0.0
C320 C 0.40639 0.83782 0.3368 0.0
C321 C 0.43421 0.87794 0.36149 0.0
C322 C 0.49644 0.91385 0.35255 0.0
C323 C 0.53206 0.91087 0.31898 0.0
C324 C 0.50458 0.87248 0.2939 0.0
H325 H 0.43105 0.78792 0.40596 0.0
C326 C 0.35964 0.7917 0.40947 0.0
H327 H 0.23722 0.80435 0.38547 0.0
H328 H 0.33487 0.7213 0.23276 0.0
H329 H 0.22869 0.65815 0.24911 0.0
H330 H 0.17768 0.65779 0.31024 0.0
H331 H 0.23174 0.72082 0.35518 0.0
C332 C 0.30869 0.8012 0.38224 0.0
C333 C 0.34504 0.80025 0.34603 0.0
C334 C 0.31574 0.76173 0.32029 0.0
C335 C 0.34732 0.76093 0.28531 0.0
C336 C 0.31437 0.72313 0.25989 0.0
C337 C 0.25331 0.68666 0.2689 0.0
C338 C 0.22449 0.6865 0.30328 0.0
C339 C 0.25556 0.72324 0.3288 0.0
H340 H 0.53572 0.80025 0.90785 0.0
C341 C 0.60754 0.80325 0.91013 0.0
H342 H 0.72948 0.80873 0.88333 0.0
H343 H 0.61356 0.70636 0.73755 0.0
H344 H 0.71011 0.64242 0.75777 0.0
H345 H 0.76322 0.64946 0.8187 0.0
H346 H 0.7208 0.72066 0.85961 0.0
C347 C 0.65754 0.80704 0.88137 0.0
C348 C 0.61882 0.80161 0.8456 0.0
C349 C 0.64148 0.7587 0.82232 0.0
C350 C 0.60886 0.75391 0.7875 0.0
C351 C 0.63512 0.7115 0.76449 0.0
C352 C 0.69064 0.67451 0.77573 0.0
C353 C 0.72065 0.6785 0.81 0.0
C354 C 0.69622 0.71983 0.83317 0.0
H355 H 0.59534 0.84631 0.72436 0.0
C356 C 0.54808 0.81635 0.71587 0.0
H357 H 0.47641 0.75322 0.73202 0.0
H358 H 0.56783 0.89062 0.88247 0.0
H359 H 0.46727 0.95308 0.86285 0.0
H360 H 0.40162 0.94143 0.80388 0.0
H361 H 0.43752 0.86769 0.76395 0.0
C362 C 0.5184 0.78587 0.73962 0.0
C363 C 0.55196 0.79145 0.77619 0.0
C364 C 0.5275 0.83379 0.79967 0.0
C365 C 0.56245 0.83943 0.83421 0.0
C366 C 0.54078 0.88346 0.85643 0.0
C367 C 0.48348 0.91978 0.84542 0.0
C368 C 0.44673 0.9133 0.81219 0.0
C369 C 0.46823 0.8709 0.78946 0.0
H370 H 0.57769 0.21837 0.62155 0.0
C371 C 0.6482 0.22686 0.61958 0.0
H372 H 0.7695 0.23864 0.64676 0.0
H373 H 0.59552 0.3064 0.79265 0.0
H374 H 0.64781 0.38722 0.77542 0.0
H375 H 0.70725 0.39427 0.71609 0.0
H376 H 0.71407 0.32055 0.6736 0.0
C377 C 0.69956 0.22847 0.64825 0.0
C378 C 0.66198 0.22349 0.68367 0.0
C379 C 0.66004 0.26678 0.70847 0.0
C380 C 0.62734 0.2625 0.74288 0.0
C381 C 0.62258 0.30692 0.76656 0.0
C382 C 0.65167 0.35376 0.75691 0.0
C383 C 0.68498 0.35775 0.72351 0.0
C384 C 0.68885 0.31501 0.69941 0.0
H385 H 0.69229 0.22434 0.81114 0.0
C386 C 0.62285 0.21607 0.81645 0.0
H387 H 0.49827 0.1984 0.79236 0.0
H388 H 0.66003 0.13264 0.64295 0.0
H389 H 0.60772 0.05162 0.66014 0.0
H390 H 0.55055 0.04417 0.71976 0.0
H391 H 0.54572 0.11768 0.76262 0.0
C392 C 0.56703 0.20943 0.78906 0.0
C393 C 0.59867 0.21458 0.75272 0.0
C394 C 0.59947 0.17143 0.72776 0.0
C395 C 0.63165 0.17581 0.69325 0.0
C396 C 0.63459 0.13173 0.66927 0.0
C397 C 0.60518 0.0849 0.67885 0.0
C398 C 0.57305 0.0807 0.71243 0.0
C399 C 0.57041 0.12325 0.73675 0.0
H400 H 0.93441 0.75395 0.1111 0.0
C401 C 0.86348 0.76124 0.1107 0.0
H402 H 0.74575 0.77006 0.1407 0.0
H403 H 0.87863 0.64772 0.26338 0.0
H404 H 0.77462 0.58734 0.23447 0.0
H405 H 0.70736 0.60298 0.17813 0.0
H406 H 0.74449 0.67882 0.15012 0.0
C407 C 0.81694 0.76393 0.14079 0.0
C408 C 0.85879 0.75487 0.17474 0.0
C409 C 0.83469 0.71096 0.19122 0.0
C410 C 0.87184 0.70254 0.22417 0.0
C411 C 0.84983 0.65707 0.23909 0.0
C412 C 0.7908 0.6218 0.22261 0.0
C413 C 0.75305 0.63056 0.19085 0.0
C414 C 0.77477 0.67439 0.17513 0.0
H415 H 0.83785 0.73714 0.30009 0.0
C416 C 0.90876 0.73411 0.3047 0.0
H417 H 0.03555 0.72894 0.28044 0.0
H418 H 0.91674 0.84425 0.15123 0.0
H419 H 0.02307 0.90364 0.17958 0.0
H420 H 0.08918 0.88832 0.23622 0.0
H421 H 0.0486 0.81373 0.26501 0.0
C422 C 0.96448 0.73274 0.27705 0.0
C423 C 0.93106 0.73887 0.24116 0.0
C424 C 0.95724 0.78202 0.22419 0.0
C425 C 0.92035 0.79037 0.19116 0.0
C426 C 0.94452 0.83511 0.17574 0.0
C427 C 0.00512 0.86979 0.19186 0.0
C428 C 0.04222 0.86121 0.22378 0.0
C429 C 0.01843 0.81812 0.23998 0.0
H430 H 0.94322 0.3302 0.42049 0.0
C431 C 0.89609 0.29912 0.42186 0.0
H432 H 0.83328 0.23549 0.39558 0.0
H433 H 0.84087 0.29089 0.24127 0.0
H434 H 0.68406 0.27896 0.25256 0.0
H435 H 0.63074 0.26591 0.31172 0.0
H436 H 0.73178 0.26603 0.36013 0.0
C437 C 0.87884 0.26711 0.39319 0.0
C438 C 0.91383 0.27458 0.35734 0.0
C439 C 0.85284 0.27594 0.32928 0.0
C440 C 0.88397 0.28313 0.29496 0.0
C441 C 0.82129 0.28481 0.26769 0.0
C442 C 0.73094 0.27828 0.27379 0.0
C443 C 0.70072 0.2711 0.30713 0.0
C444 C 0.76014 0.27068 0.33471 0.0
H445 H 0.99859 0.22363 0.23183 0.0
C446 C 0.01228 0.26252 0.2263 0.0
H447 H 0.02604 0.33839 0.24908 0.0
H448 H 0.05149 0.26225 0.40246 0.0
H449 H 0.20863 0.26978 0.39005 0.0
H450 H 0.26113 0.28626 0.3313 0.0
H451 H 0.15623 0.29446 0.28431 0.0
C452 C 0.0079 0.29951 0.25293 0.0
C453 C 0.97611 0.28886 0.28849 0.0
C454 C 0.03736 0.28567 0.31607 0.0
C455 C 0.00659 0.27767 0.35036 0.0
C456 C 0.07028 0.27114 0.37654 0.0
C457 C 0.16099 0.27468 0.36964 0.0
C458 C 0.19062 0.28385 0.33651 0.0
C459 C 0.12985 0.2889 0.30989 0.0
H460 H 0.96605 0.35163 0.75338 0.0
C461 C 1.00106 0.32065 0.73869 0.0
H462 H 0.07475 0.25378 0.74301 0.0
H463 H 0.17769 0.37463 0.89564 0.0
H464 H 0.25344 0.43574 0.86243 0.0
H465 H 0.23915 0.43118 0.79825 0.0
H466 H 0.1478 0.36621 0.76699 0.0
C467 C 0.04488 0.28731 0.75661 0.0
C468 C 0.04972 0.29264 0.79567 0.0
C469 C 0.10553 0.33008 0.81343 0.0
C470 C 0.11717 0.33128 0.85031 0.0
C471 C 0.16984 0.37056 0.86753 0.0
C472 C 0.21307 0.40616 0.84882 0.0
C473 C 0.20478 0.40368 0.8127 0.0
C474 C 0.15181 0.36621 0.79508 0.0
H475 H 0.23479 0.27512 0.89464 0.0
C476 C 0.18477 0.27898 0.91525 0.0
H477 H 0.04883 0.29166 0.92649 0.0
H478 H 0.92924 0.22057 0.77066 0.0
H479 H 0.85297 0.15964 0.80399 0.0
H480 H 0.87958 0.15859 0.86724 0.0
H481 H 0.98088 0.21911 0.89777 0.0
C482 C 0.10071 0.28916 0.90665 0.0
C483 C 0.07662 0.29352 0.86922 0.0
C484 C 0.01719 0.25781 0.85174 0.0
C485 C 0.0034 0.2576 0.81502 0.0
C486 C 0.94328 0.22175 0.79834 0.0
C487 C 0.89898 0.18666 0.81716 0.0
C488 C 0.91384 0.18613 0.85279 0.0
C489 C 0.97216 0.22115 0.87001 0.0
H490 H 0.04258 0.71432 0.60836 0.0
C491 C 0.11326 0.72296 0.6077 0.0
H492 H 0.22832 0.74039 0.63772 0.0
H493 H 0.02479 0.82635 0.77371 0.0
H494 H 0.07856 0.9042 0.75209 0.0
H495 H 0.14956 0.90308 0.694 0.0
H496 H 0.16639 0.82416 0.65704 0.0
C497 C 0.15878 0.72939 0.63785 0.0
C498 C 0.114 0.72939 0.67256 0.0
C499 C 0.10628 0.77574 0.69417 0.0
C500 C 0.06696 0.77627 0.72798 0.0
C501 C 0.05682 0.82345 0.74834 0.0
C502 C 0.08675 0.86854 0.73612 0.0
C503 C 0.1266 0.86791 0.7034 0.0
C504 C 0.1361 0.82225 0.6825 0.0
H505 H 0.12735 0.74838 0.79926 0.0
C506 C 0.05783 0.74034 0.80459 0.0
H507 H 0.93478 0.71848 0.7807 0.0
H508 H 0.12025 0.63383 0.63824 0.0
H509 H 0.06483 0.55611 0.65964 0.0
H510 H 0.99584 0.55712 0.7181 0.0
H511 H 0.98222 0.63585 0.75562 0.0
C512 C 0.00332 0.72989 0.77709 0.0
C513 C 0.03752 0.7302 0.74055 0.0
C514 C 0.04295 0.68407 0.71858 0.0
C515 C 0.08182 0.68357 0.68464 0.0
C516 C 0.08963 0.63661 0.66388 0.0
C517 C 0.05849 0.59164 0.67592 0.0
C518 C 0.01972 0.5922 0.70885 0.0
C519 C 0.0122 0.6377 0.73011 0.0
loop_
_geom_bond_atom_site_label_1
_geom_bond_atom_site_label_2
_geom_bond_distance
_geom_bond_site_symmetry_2
_ccdc_geom_bond_type
Pr0 C2 2.880 . S
Pr0 O20 2.562 . S
Pr0 O21 2.490 . S
Pr0 O22 2.695 1_554 S
Pr0 O23 2.512 . S
Pr0 O25 2.437 . S
Pr0 O28 2.436 . S
Pr0 O30 2.438 1_554 S
Pr1 C11 2.880 . S
Pr1 O22 2.436 . S
Pr1 O24 2.438 1_556 S
Pr1 O26 2.562 . S
Pr1 O27 2.490 . S
Pr1 O28 2.695 1_556 S
Pr1 O29 2.512 . S
Pr1 O31 2.437 . S
C2 Pr0 2.880 . S
C2 C3 1.491 . S
C2 O20 1.254 . S
C2 O21 1.225 . S
C3 C2 1.491 . S
C3 C4 1.392 . S
C3 C8 1.356 . S
C4 C3 1.392 . S
C4 C5 1.368 . S
C4 H32 0.929 . S
C5 C4 1.368 . S
C5 C6 1.386 . S
C5 H33 0.929 1_455 S
C6 C5 1.386 . S
C6 C7 1.373 . S
C7 C6 1.373 . S
C7 C8 1.409 . S
C7 H34 0.931 . S
C8 C3 1.356 . S
C8 C7 1.409 . S
C8 H35 0.930 . S
C9 O22 1.270 1_554 S
C9 O23 1.248 . S
C10 O24 1.267 . S
C10 O25 1.278 . S
C11 Pr1 2.880 . S
C11 C12 1.491 . S
C11 O26 1.254 . S
C11 O27 1.225 . S
C12 C11 1.491 . S
C12 C13 1.392 . S
C12 C17 1.356 . S
C13 C12 1.392 . S
C13 C14 1.368 . S
C13 H36 0.929 . S
C14 C13 1.368 . S
C14 C15 1.386 . S
C14 H37 0.929 . S
C15 C14 1.386 . S
C15 C16 1.373 . S
C16 C15 1.373 . S
C16 C17 1.409 . S
C16 H38 0.931 . S
C17 C12 1.356 . S
C17 C16 1.409 . S
C17 H39 0.930 . S
C18 O28 1.270 1_556 S
C18 O29 1.248 . S
C19 O30 1.267 . S
C19 O31 1.278 . S
O20 Pr0 2.562 . S
O20 C2 1.254 . S
O21 Pr0 2.490 . S
O21 C2 1.225 . S
O22 Pr0 2.695 1_556 S
O22 Pr1 2.436 . S
O22 C9 1.270 1_556 S
O23 Pr0 2.512 . S
O23 C9 1.248 . S
O24 Pr1 2.438 1_554 S
O24 C10 1.267 . S
O25 Pr0 2.437 . S
O25 C10 1.278 . S
O26 Pr1 2.562 . S
O26 C11 1.254 . S
O27 Pr1 2.490 . S
O27 C11 1.225 . S
O28 Pr0 2.436 . S
O28 Pr1 2.695 1_554 S
O28 C18 1.270 1_554 S
O29 Pr1 2.512 . S
O29 C18 1.248 . S
O30 Pr0 2.438 1_556 S
O30 C19 1.267 . S
O31 Pr1 2.437 . S
O31 C19 1.278 . S
H32 C4 0.929 . S
H33 C5 0.929 1_655 S
H34 C7 0.931 . S
H35 C8 0.930 . S
H36 C13 0.929 . S
H37 C14 0.929 . S
H38 C16 0.931 . S
H39 C17 0.930 . S
Pr40 C42 2.880 . S
Pr40 O60 2.562 . S
Pr40 O61 2.490 . S
Pr40 O62 2.695 1_554 S
Pr40 O63 2.512 . S
Pr40 O65 2.437 . S
Pr40 O68 2.436 . S
Pr40 O70 2.438 1_554 S
Pr41 C51 2.880 . S
Pr41 O62 2.436 . S
Pr41 O64 2.438 1_556 S
Pr41 O66 2.562 . S
Pr41 O67 2.490 . S
Pr41 O68 2.695 1_556 S
Pr41 O69 2.512 . S
Pr41 O71 2.437 . S
C42 Pr40 2.880 . S
C42 C43 1.491 . S
C42 O60 1.254 . S
C42 O61 1.225 . S
C43 C42 1.491 . S
C43 C44 1.392 . S
C43 C48 1.356 . S
C44 C43 1.392 . S
C44 C45 1.368 . S
C44 H72 0.929 . S
C45 C44 1.368 . S
C45 C46 1.386 . S
C45 H73 0.929 . S
C46 C45 1.386 . S
C46 C47 1.373 . S
C47 C46 1.373 . S
C47 C48 1.409 . S
C47 H74 0.931 . S
C48 C43 1.356 . S
C48 C47 1.409 . S
C48 H75 0.930 . S
C49 O62 1.270 1_554 S
C49 O63 1.248 . S
C50 O64 1.267 . S
C50 O65 1.278 . S
C51 Pr41 2.880 . S
C51 C52 1.491 . S
C51 O66 1.254 . S
C51 O67 1.225 . S
C52 C51 1.491 . S
C52 C53 1.392 . S
C52 C57 1.356 . S
C53 C52 1.392 . S
C53 C54 1.368 . S
C53 H76 0.929 . S
C54 C53 1.368 . S
C54 C55 1.386 . S
C54 H77 0.929 1_655 S
C55 C54 1.386 . S
C55 C56 1.373 . S
C56 C55 1.373 . S
C56 C57 1.409 . S
C56 H78 0.931 . S
C57 C52 1.356 . S
C57 C56 1.409 . S
C57 H79 0.930 . S
C58 O68 1.270 1_556 S
C58 O69 1.248 . S
C59 O70 1.267 . S
C59 O71 1.278 . S
O60 Pr40 2.562 . S
O60 C42 1.254 . S
O61 Pr40 2.490 . S
O61 C42 1.225 . S
O62 Pr40 2.695 1_556 S
O62 Pr41 2.436 . S
O62 C49 1.270 1_556 S
O63 Pr40 2.512 . S
O63 C49 1.248 . S
O64 Pr41 2.438 1_554 S
O64 C50 1.267 . S
O65 Pr40 2.437 . S
O65 C50 1.278 . S
O66 Pr41 2.562 . S
O66 C51 1.254 . S
O67 Pr41 2.490 . S
O67 C51 1.225 . S
O68 Pr40 2.436 . S
O68 Pr41 2.695 1_554 S
O68 C58 1.270 1_554 S
O69 Pr41 2.512 . S
O69 C58 1.248 . S
O70 Pr40 2.438 1_556 S
O70 C59 1.267 . S
O71 Pr41 2.437 . S
O71 C59 1.278 . S
H72 C44 0.929 . S
H73 C45 0.929 . S
H74 C47 0.931 . S
H75 C48 0.930 . S
H76 C53 0.929 . S
H77 C54 0.929 1_455 S
H78 C56 0.931 . S
H79 C57 0.930 . S
Pr80 C82 2.880 . S
Pr80 O100 2.562 . S
Pr80 O101 2.490 . S
Pr80 O102 2.695 . S
Pr80 O103 2.512 . S
Pr80 O105 2.437 . S
Pr80 O108 2.436 . S
Pr80 O110 2.438 . S
Pr81 C91 2.880 . S
Pr81 O102 2.436 . S
Pr81 O104 2.438 . S
Pr81 O106 2.562 . S
Pr81 O107 2.490 . S
Pr81 O108 2.695 . S
Pr81 O109 2.512 . S
Pr81 O111 2.437 . S
C82 Pr80 2.880 . S
C82 C83 1.491 . S
C82 O100 1.254 . S
C82 O101 1.225 . S
C83 C82 1.491 . S
C83 C84 1.392 . S
C83 C88 1.356 . S
C84 C83 1.392 . S
C84 C85 1.368 . S
C84 H112 0.929 . S
C85 C84 1.368 . S
C85 C86 1.386 . S
C85 H113 0.929 1_455 S
C86 C85 1.386 . S
C86 C87 1.373 . S
C87 C86 1.373 . S
C87 C88 1.409 . S
C87 H114 0.931 . S
C88 C83 1.356 . S
C88 C87 1.409 . S
C88 H115 0.930 . S
C89 O102 1.270 . S
C89 O103 1.248 . S
C90 O104 1.267 . S
C90 O105 1.278 . S
C91 Pr81 2.880 . S
C91 C92 1.491 . S
C91 O106 1.254 . S
C91 O107 1.225 . S
C92 C91 1.491 . S
C92 C93 1.392 . S
C92 C97 1.356 . S
C93 C92 1.392 . S
C93 C94 1.368 . S
C93 H116 0.929 . S
C94 C93 1.368 . S
C94 C95 1.386 . S
C94 H117 0.929 . S
C95 C94 1.386 . S
C95 C96 1.373 . S
C96 C95 1.373 . S
C96 C97 1.409 . S
C96 H118 0.931 . S
C97 C92 1.356 . S
C97 C96 1.409 . S
C97 H119 0.930 . S
C98 O108 1.270 . S
C98 O109 1.248 . S
C99 O110 1.267 . S
C99 O111 1.278 . S
O100 Pr80 2.562 . S
O100 C82 1.254 . S
O101 Pr80 2.490 . S
O101 C82 1.225 . S
O102 Pr80 2.695 . S
O102 Pr81 2.436 . S
O102 C89 1.270 . S
O103 Pr80 2.512 . S
O103 C89 1.248 . S
O104 Pr81 2.438 . S
O104 C90 1.267 . S
O105 Pr80 2.437 . S
O105 C90 1.278 . S
O106 Pr81 2.562 . S
O106 C91 1.254 . S
O107 Pr81 2.490 . S
O107 C91 1.225 . S
O108 Pr80 2.436 . S
O108 Pr81 2.695 . S
O108 C98 1.270 . S
O109 Pr81 2.512 . S
O109 C98 1.248 . S
O110 Pr80 2.438 . S
O110 C99 1.267 . S
O111 Pr81 2.437 . S
O111 C99 1.278 . S
H112 C84 0.929 . S
H113 C85 0.929 1_655 S
H114 C87 0.931 . S
H115 C88 0.930 . S
H116 C93 0.929 . S
H117 C94 0.929 . S
H118 C96 0.931 . S
H119 C97 0.930 . S
Pr120 C122 2.880 . S
Pr120 O140 2.562 . S
Pr120 O141 2.490 . S
Pr120 O142 2.695 . S
Pr120 O143 2.512 . S
Pr120 O145 2.437 . S
Pr120 O148 2.436 . S
Pr120 O150 2.438 . S
Pr121 C131 2.880 . S
Pr121 O142 2.436 . S
Pr121 O144 2.438 . S
Pr121 O146 2.562 . S
Pr121 O147 2.490 . S
Pr121 O148 2.695 . S
Pr121 O149 2.512 . S
Pr121 O151 2.437 . S
C122 Pr120 2.880 . S
C122 C123 1.491 . S
C122 O140 1.254 . S
C122 O141 1.225 . S
C123 C122 1.491 . S
C123 C124 1.392 . S
C123 C128 1.356 . S
C124 C123 1.392 . S
C124 C125 1.368 . S
C124 H152 0.929 . S
C125 C124 1.368 . S
C125 C126 1.386 . S
C125 H153 0.929 . S
C126 C125 1.386 . S
C126 C127 1.373 . S
C127 C126 1.373 . S
C127 C128 1.409 . S
C127 H154 0.931 . S
C128 C123 1.356 . S
C128 C127 1.409 . S
C128 H155 0.930 . S
C129 O142 1.270 . S
C129 O143 1.248 . S
C130 O144 1.267 . S
C130 O145 1.278 . S
C131 Pr121 2.880 . S
C131 C132 1.491 . S
C131 O146 1.254 . S
C131 O147 1.225 . S
C132 C131 1.491 . S
C132 C133 1.392 . S
C132 C137 1.356 . S
C133 C132 1.392 . S
C133 C134 1.368 . S
C133 H156 0.929 . S
C134 C133 1.368 . S
C134 C135 1.386 . S
C134 H157 0.929 1_655 S
C135 C134 1.386 . S
C135 C136 1.373 . S
C136 C135 1.373 . S
C136 C137 1.409 . S
C136 H158 0.931 . S
C137 C132 1.356 . S
C137 C136 1.409 . S
C137 H159 0.930 . S
C138 O148 1.270 . S
C138 O149 1.248 . S
C139 O150 1.267 . S
C139 O151 1.278 . S
O140 Pr120 2.562 . S
O140 C122 1.254 . S
O141 Pr120 2.490 . S
O141 C122 1.225 . S
O142 Pr120 2.695 . S
O142 Pr121 2.436 . S
O142 C129 1.270 . S
O143 Pr120 2.512 . S
O143 C129 1.248 . S
O144 Pr121 2.438 . S
O144 C130 1.267 . S
O145 Pr120 2.437 . S
O145 C130 1.278 . S
O146 Pr121 2.562 . S
O146 C131 1.254 . S
O147 Pr121 2.490 . S
O147 C131 1.225 . S
O148 Pr120 2.436 . S
O148 Pr121 2.695 . S
O148 C138 1.270 . S
O149 Pr121 2.512 . S
O149 C138 1.248 . S
O150 Pr120 2.438 . S
O150 C139 1.267 . S
O151 Pr121 2.437 . S
O151 C139 1.278 . S
H152 C124 0.929 . S
H153 C125 0.929 . S
H154 C127 0.931 . S
H155 C128 0.930 . S
H156 C133 0.929 . S
H157 C134 0.929 1_455 S
H158 C136 0.931 . S
H159 C137 0.930 . S
H160 C161 0.952 . S
C161 H160 0.952 . S
C161 C167 1.264 1_556 S
H162 C167 0.950 . S
H163 C171 0.949 . S
H164 C172 0.950 . S
H165 C173 0.951 . S
H166 C174 0.951 . S
C167 C161 1.264 1_554 S
C167 H162 0.950 . S
C167 C168 1.477 . S
C168 C167 1.477 . S
C168 C169 1.421 . S
C168 C185 1.371 1_554 S
C169 C168 1.421 . S
C169 C170 1.438 . S
C169 C174 1.429 . S
C170 C169 1.438 . S
C170 C171 1.428 . S
C170 C183 1.377 1_554 S
C171 H163 0.949 . S
C171 C170 1.428 . S
C171 C172 1.345 . S
C172 H164 0.950 . S
C172 C171 1.345 . S
C172 C173 1.424 . S
C173 H165 0.951 . S
C173 C172 1.424 . S
C173 C174 1.347 . S
C174 H166 0.951 . S
C174 C169 1.429 . S
C174 C173 1.347 . S
H175 C176 0.953 . S
C176 H175 0.953 . S
C176 C182 1.262 1_554 S
H177 C182 0.950 . S
H178 C186 0.949 . S
H179 C187 0.950 . S
H180 C188 0.951 . S
H181 C189 0.951 . S
C182 C176 1.262 1_556 S
C182 H177 0.950 . S
C182 C183 1.478 . S
C183 C170 1.377 1_556 S
C183 C182 1.478 . S
C183 C184 1.414 . S
C184 C183 1.414 . S
C184 C185 1.438 . S
C184 C189 1.429 . S
C185 C168 1.371 1_556 S
C185 C184 1.438 . S
C185 C186 1.428 . S
C186 H178 0.949 . S
C186 C185 1.428 . S
C186 C187 1.345 . S
C187 H179 0.950 . S
C187 C186 1.345 . S
C187 C188 1.424 . S
C188 H180 0.951 . S
C188 C187 1.424 . S
C188 C189 1.347 . S
C189 H181 0.951 . S
C189 C184 1.429 . S
C189 C188 1.347 . S
H190 C191 0.951 . S
C191 H190 0.951 . S
C191 C197 1.265 . S
H192 C197 0.950 . S
H193 C201 0.949 . S
H194 C202 0.950 . S
H195 C203 0.951 . S
H196 C204 0.951 . S
C197 C191 1.265 . S
C197 H192 0.950 . S
C197 C198 1.478 . S
C198 C197 1.478 . S
C198 C199 1.397 . S
C198 C215 1.394 . S
C199 C198 1.397 . S
C199 C200 1.438 . S
C199 C204 1.429 . S
C200 C199 1.438 . S
C200 C201 1.428 . S
C200 C213 1.394 . S
C201 H193 0.949 . S
C201 C200 1.428 . S
C201 C202 1.345 . S
C202 H194 0.950 . S
C202 C201 1.345 . S
C202 C203 1.424 . S
C203 H195 0.951 . S
C203 C202 1.424 . S
C203 C204 1.347 . S
C204 H196 0.951 . S
C204 C199 1.429 . S
C204 C203 1.347 . S
H205 C206 0.951 . S
C206 H205 0.951 . S
C206 C212 1.265 . S
H207 C212 0.950 . S
H208 C216 0.949 . S
H209 C217 0.950 . S
H210 C218 0.951 . S
H211 C219 0.951 . S
C212 C206 1.265 . S
C212 H207 0.950 . S
C212 C213 1.478 . S
C213 C200 1.394 . S
C213 C212 1.478 . S
C213 C214 1.397 . S
C214 C213 1.397 . S
C214 C215 1.438 . S
C214 C219 1.429 . S
C215 C198 1.394 . S
C215 C214 1.438 . S
C215 C216 1.428 . S
C216 H208 0.949 . S
C216 C215 1.428 . S
C216 C217 1.345 . S
C217 H209 0.950 . S
C217 C216 1.345 . S
C217 C218 1.424 . S
C218 H210 0.951 . S
C218 C217 1.424 . S
C218 C219 1.347 . S
C219 H211 0.951 . S
C219 C214 1.429 . S
C219 C218 1.347 . S
H220 C221 0.951 . S
C221 H220 0.951 . S
C221 C227 1.265 1_554 S
H222 C227 0.950 . S
H223 C231 0.949 . S
H224 C232 0.950 . S
H225 C233 0.951 . S
H226 C234 0.951 1_455 S
C227 C221 1.265 1_556 S
C227 H222 0.950 . S
C227 C228 1.478 . S
C228 C227 1.478 . S
C228 C229 1.397 1_455 S
C228 C245 1.394 1_556 S
C229 C228 1.397 1_655 S
C229 C230 1.438 1_545 S
C229 C234 1.429 . S
C230 C229 1.438 1_565 S
C230 C231 1.428 . S
C230 C243 1.394 1_556 S
C231 H223 0.949 . S
C231 C230 1.428 . S
C231 C232 1.345 . S
C232 H224 0.950 . S
C232 C231 1.345 . S
C232 C233 1.424 1_565 S
C233 H225 0.951 . S
C233 C232 1.424 1_545 S
C233 C234 1.347 . S
C234 H226 0.951 1_655 S
C234 C229 1.429 . S
C234 C233 1.347 . S
H235 C236 0.951 1_556 S
C236 H235 0.951 1_554 S
C236 C242 1.265 . S
H237 C242 0.950 . S
H238 C246 0.949 . S
H239 C247 0.950 . S
H240 C248 0.951 . S
H241 C249 0.951 1_655 S
C242 C236 1.265 . S
C242 H237 0.950 . S
C242 C243 1.478 . S
C243 C230 1.394 1_554 S
C243 C242 1.478 . S
C243 C244 1.397 1_655 S
C244 C243 1.397 1_455 S
C244 C245 1.438 1_565 S
C244 C249 1.429 . S
C245 C228 1.394 1_554 S
C245 C244 1.438 1_545 S
C245 C246 1.428 . S
C246 H238 0.949 . S
C246 C245 1.428 . S
C246 C247 1.345 . S
C247 H239 0.950 . S
C247 C246 1.345 . S
C247 C248 1.424 1_545 S
C248 H240 0.951 . S
C248 C247 1.424 1_565 S
C248 C249 1.347 . S
C249 H241 0.951 1_455 S
C249 C244 1.429 . S
C249 C248 1.347 . S
H250 C251 0.951 . S
C251 H250 0.951 . S
C251 C257 1.265 . S
H252 C257 0.950 . S
H253 C261 0.949 . S
H254 C262 0.950 . S
H255 C263 0.951 . S
H256 C264 0.951 . S
C257 C251 1.265 . S
C257 H252 0.950 . S
C257 C258 1.478 . S
C258 C257 1.478 . S
C258 C259 1.397 . S
C258 C275 1.394 . S
C259 C258 1.397 . S
C259 C260 1.438 1_645 S
C259 C264 1.429 . S
C260 C259 1.438 1_465 S
C260 C261 1.428 . S
C260 C273 1.394 . S
C261 H253 0.949 . S
C261 C260 1.428 . S
C261 C262 1.345 1_455 S
C262 H254 0.950 . S
C262 C261 1.345 1_655 S
C262 C263 1.424 . S
C263 H255 0.951 . S
C263 C262 1.424 . S
C263 C264 1.347 1_565 S
C264 H256 0.951 . S
C264 C259 1.429 . S
C264 C263 1.347 1_545 S
H265 C266 0.951 . S
C266 H265 0.951 . S
C266 C272 1.265 . S
H267 C272 0.950 . S
H268 C276 0.949 . S
H269 C277 0.950 . S
H270 C278 0.951 . S
H271 C279 0.951 . S
C272 C266 1.265 . S
C272 H267 0.950 . S
C272 C273 1.478 . S
C273 C260 1.394 . S
C273 C272 1.478 . S
C273 C274 1.397 . S
C274 C273 1.397 . S
C274 C275 1.438 1_465 S
C274 C279 1.429 . S
C275 C258 1.394 . S
C275 C274 1.438 1_645 S
C275 C276 1.428 . S
C276 H268 0.949 . S
C276 C275 1.428 . S
C276 C277 1.345 1_655 S
C277 H269 0.950 . S
C277 C276 1.345 1_455 S
C277 C278 1.424 . S
C278 H270 0.951 . S
C278 C277 1.424 . S
C278 C279 1.347 1_545 S
C279 H271 0.951 . S
C279 C274 1.429 . S
C279 C278 1.347 1_565 S
H280 C281 0.951 . S
C281 H280 0.951 . S
C281 C287 1.265 . S
H282 C287 0.950 . S
H283 C291 0.949 . S
H284 C292 0.950 . S
H285 C293 0.951 . S
H286 C294 0.951 . S
C287 C281 1.265 . S
C287 H282 0.950 . S
C287 C288 1.478 . S
C288 C287 1.478 . S
C288 C289 1.397 . S
C288 C305 1.394 . S
C289 C288 1.397 . S
C289 C290 1.438 . S
C289 C294 1.429 . S
C290 C289 1.438 . S
C290 C291 1.428 . S
C290 C303 1.394 . S
C291 H283 0.949 . S
C291 C290 1.428 . S
C291 C292 1.345 . S
C292 H284 0.950 . S
C292 C291 1.345 . S
C292 C293 1.424 . S
C293 H285 0.951 . S
C293 C292 1.424 . S
C293 C294 1.347 . S
C294 H286 0.951 . S
C294 C289 1.429 . S
C294 C293 1.347 . S
H295 C296 0.951 . S
C296 H295 0.951 . S
C296 C302 1.265 . S
H297 C302 0.950 . S
H298 C306 0.949 . S
H299 C307 0.950 . S
H300 C308 0.951 . S
H301 C309 0.951 . S
C302 C296 1.265 . S
C302 H297 0.950 . S
C302 C303 1.478 . S
C303 C290 1.394 . S
C303 C302 1.478 . S
C303 C304 1.397 . S
C304 C303 1.397 . S
C304 C305 1.438 . S
C304 C309 1.429 . S
C305 C288 1.394 . S
C305 C304 1.438 . S
C305 C306 1.428 . S
C306 H298 0.949 . S
C306 C305 1.428 . S
C306 C307 1.345 . S
C307 H299 0.950 . S
C307 C306 1.345 . S
C307 C308 1.424 . S
C308 H300 0.951 . S
C308 C307 1.424 . S
C308 C309 1.347 . S
C309 H301 0.951 . S
C309 C304 1.429 . S
C309 C308 1.347 . S
H310 C311 0.951 . S
C311 H310 0.951 . S
C311 C317 1.265 . S
H312 C317 0.950 . S
H313 C321 0.949 . S
H314 C322 0.950 . S
H315 C323 0.951 . S
H316 C324 0.951 . S
C317 C311 1.265 . S
C317 H312 0.950 . S
C317 C318 1.478 . S
C318 C317 1.478 . S
C318 C319 1.397 . S
C318 C335 1.394 . S
C319 C318 1.397 . S
C319 C320 1.438 . S
C319 C324 1.429 . S
C320 C319 1.438 . S
C320 C321 1.428 . S
C320 C333 1.394 . S
C321 H313 0.949 . S
C321 C320 1.428 . S
C321 C322 1.345 . S
C322 H314 0.950 . S
C322 C321 1.345 . S
C322 C323 1.424 . S
C323 H315 0.951 . S
C323 C322 1.424 . S
C323 C324 1.347 . S
C324 H316 0.951 . S
C324 C319 1.429 . S
C324 C323 1.347 . S
H325 C326 0.951 . S
C326 H325 0.951 . S
C326 C332 1.265 . S
H327 C332 0.950 . S
H328 C336 0.949 . S
H329 C337 0.950 . S
H330 C338 0.951 . S
H331 C339 0.951 . S
C332 C326 1.265 . S
C332 H327 0.950 . S
C332 C333 1.478 . S
C333 C320 1.394 . S
C333 C332 1.478 . S
C333 C334 1.397 . S
C334 C333 1.397 . S
C334 C335 1.438 . S
C334 C339 1.429 . S
C335 C318 1.394 . S
C335 C334 1.438 . S
C335 C336 1.428 . S
C336 H328 0.949 . S
C336 C335 1.428 . S
C336 C337 1.345 . S
C337 H329 0.950 . S
C337 C336 1.345 . S
C337 C338 1.424 . S
C338 H330 0.951 . S
C338 C337 1.424 . S
C338 C339 1.347 . S
C339 H331 0.951 . S
C339 C334 1.429 . S
C339 C338 1.347 . S
H340 C341 0.951 . S
C341 H340 0.951 . S
C341 C347 1.265 . S
H342 C347 0.950 . S
H343 C351 0.949 . S
H344 C352 0.950 . S
H345 C353 0.951 . S
H346 C354 0.951 . S
C347 C341 1.265 . S
C347 H342 0.950 . S
C347 C348 1.478 . S
C348 C347 1.478 . S
C348 C349 1.397 . S
C348 C365 1.394 . S
C349 C348 1.397 . S
C349 C350 1.438 . S
C349 C354 1.429 . S
C350 C349 1.438 . S
C350 C351 1.428 . S
C350 C363 1.394 . S
C351 H343 0.949 . S
C351 C350 1.428 . S
C351 C352 1.345 . S
C352 H344 0.950 . S
C352 C351 1.345 . S
C352 C353 1.424 . S
C353 H345 0.951 . S
C353 C352 1.424 . S
C353 C354 1.347 . S
C354 H346 0.951 . S
C354 C349 1.429 . S
C354 C353 1.347 . S
H355 C356 0.951 . S
C356 H355 0.951 . S
C356 C362 1.265 . S
H357 C362 0.950 . S
H358 C366 0.949 . S
H359 C367 0.950 . S
H360 C368 0.951 . S
H361 C369 0.951 . S
C362 C356 1.265 . S
C362 H357 0.950 . S
C362 C363 1.478 . S
C363 C350 1.394 . S
C363 C362 1.478 . S
C363 C364 1.397 . S
C364 C363 1.397 . S
C364 C365 1.438 . S
C364 C369 1.429 . S
C365 C348 1.394 . S
C365 C364 1.438 . S
C365 C366 1.428 . S
C366 H358 0.949 . S
C366 C365 1.428 . S
C366 C367 1.345 . S
C367 H359 0.950 . S
C367 C366 1.345 . S
C367 C368 1.424 . S
C368 H360 0.951 . S
C368 C367 1.424 . S
C368 C369 1.347 . S
C369 H361 0.951 . S
C369 C364 1.429 . S
C369 C368 1.347 . S
H370 C371 0.951 . S
C371 H370 0.951 . S
C371 C377 1.265 . S
H372 C377 0.950 . S
H373 C381 0.949 . S
H374 C382 0.950 . S
H375 C383 0.951 . S
H376 C384 0.951 . S
C377 C371 1.265 . S
C377 H372 0.950 . S
C377 C378 1.478 . S
C378 C377 1.478 . S
C378 C379 1.397 . S
C378 C395 1.394 . S
C379 C378 1.397 . S
C379 C380 1.438 . S
C379 C384 1.429 . S
C380 C379 1.438 . S
C380 C381 1.428 . S
C380 C393 1.394 . S
C381 H373 0.949 . S
C381 C380 1.428 . S
C381 C382 1.345 . S
C382 H374 0.950 . S
C382 C381 1.345 . S
C382 C383 1.424 . S
C383 H375 0.951 . S
C383 C382 1.424 . S
C383 C384 1.347 . S
C384 H376 0.951 . S
C384 C379 1.429 . S
C384 C383 1.347 . S
H385 C386 0.951 . S
C386 H385 0.951 . S
C386 C392 1.265 . S
H387 C392 0.950 . S
H388 C396 0.949 . S
H389 C397 0.950 . S
H390 C398 0.951 . S
H391 C399 0.951 . S
C392 C386 1.265 . S
C392 H387 0.950 . S
C392 C393 1.478 . S
C393 C380 1.394 . S
C393 C392 1.478 . S
C393 C394 1.397 . S
C394 C393 1.397 . S
C394 C395 1.438 . S
C394 C399 1.429 . S
C395 C378 1.394 . S
C395 C394 1.438 . S
C395 C396 1.428 . S
C396 H388 0.949 . S
C396 C395 1.428 . S
C396 C397 1.345 . S
C397 H389 0.950 . S
C397 C396 1.345 . S
C397 C398 1.424 . S
C398 H390 0.951 . S
C398 C397 1.424 . S
C398 C399 1.347 . S
C399 H391 0.951 . S
C399 C394 1.429 . S
C399 C398 1.347 . S
H400 C401 0.951 . S
C401 H400 0.951 . S
C401 C407 1.265 . S
H402 C407 0.950 . S
H403 C411 0.949 . S
H404 C412 0.950 . S
H405 C413 0.951 . S
H406 C414 0.951 . S
C407 C401 1.265 . S
C407 H402 0.950 . S
C407 C408 1.478 . S
C408 C407 1.478 . S
C408 C409 1.397 . S
C408 C425 1.394 . S
C409 C408 1.397 . S
C409 C410 1.438 . S
C409 C414 1.429 . S
C410 C409 1.438 . S
C410 C411 1.428 . S
C410 C423 1.394 . S
C411 H403 0.949 . S
C411 C410 1.428 . S
C411 C412 1.345 . S
C412 H404 0.950 . S
C412 C411 1.345 . S
C412 C413 1.424 . S
C413 H405 0.951 . S
C413 C412 1.424 . S
C413 C414 1.347 . S
C414 H406 0.951 . S
C414 C409 1.429 . S
C414 C413 1.347 . S
H415 C416 0.951 . S
C416 H415 0.951 . S
C416 C422 1.269 . S
H417 C422 0.942 1_455 S
H418 C426 0.949 . S
H419 C427 0.950 . S
H420 C428 0.951 . S
H421 C429 0.951 . S
C422 C416 1.269 . S
C422 H417 0.942 1_655 S
C422 C423 1.482 . S
C423 C410 1.394 . S
C423 C422 1.482 . S
C423 C424 1.397 . S
C424 C423 1.397 . S
C424 C425 1.438 . S
C424 C429 1.429 1_655 S
C425 C408 1.394 . S
C425 C424 1.438 . S
C425 C426 1.428 . S
C426 H418 0.949 . S
C426 C425 1.428 . S
C426 C427 1.345 . S
C427 H419 0.950 . S
C427 C426 1.345 . S
C427 C428 1.424 1_655 S
C428 H420 0.951 . S
C428 C427 1.424 1_455 S
C428 C429 1.347 . S
C429 H421 0.951 . S
C429 C424 1.429 1_455 S
C429 C428 1.347 . S
H430 C431 0.951 . S
C431 H430 0.951 . S
C431 C437 1.265 . S
H432 C437 0.950 . S
H433 C441 0.949 . S
H434 C442 0.950 . S
H435 C443 0.951 . S
H436 C444 0.951 . S
C437 C431 1.265 . S
C437 H432 0.950 . S
C437 C438 1.478 . S
C438 C437 1.478 . S
C438 C439 1.397 . S
C438 C455 1.394 . S
C439 C438 1.397 . S
C439 C440 1.438 . S
C439 C444 1.429 . S
C440 C439 1.438 . S
C440 C441 1.428 . S
C440 C453 1.394 . S
C441 H433 0.949 . S
C441 C440 1.428 . S
C441 C442 1.345 . S
C442 H434 0.950 . S
C442 C441 1.345 . S
C442 C443 1.424 . S
C443 H435 0.951 . S
C443 C442 1.424 . S
C443 C444 1.347 . S
C444 H436 0.951 . S
C444 C439 1.429 . S
C444 C443 1.347 . S
H445 C446 0.951 1_455 S
C446 H445 0.951 1_655 S
C446 C452 1.265 . S
H447 C452 0.950 . S
H448 C456 0.949 . S
H449 C457 0.950 . S
H450 C458 0.951 . S
H451 C459 0.951 . S
C452 C446 1.265 . S
C452 H447 0.950 . S
C452 C453 1.478 . S
C453 C440 1.394 . S
C453 C452 1.478 . S
C453 C454 1.397 . S
C454 C453 1.397 . S
C454 C455 1.438 . S
C454 C459 1.429 . S
C455 C438 1.394 . S
C455 C454 1.438 . S
C455 C456 1.428 . S
C456 H448 0.949 . S
C456 C455 1.428 . S
C456 C457 1.345 . S
C457 H449 0.950 . S
C457 C456 1.345 . S
C457 C458 1.424 . S
C458 H450 0.951 . S
C458 C457 1.424 . S
C458 C459 1.347 . S
C459 H451 0.951 . S
C459 C454 1.429 . S
C459 C458 1.347 . S
H460 C461 0.951 1_655 S
C461 H460 0.951 1_455 S
C461 C467 1.265 . S
H462 C467 0.950 . S
H463 C471 0.949 . S
H464 C472 0.950 . S
H465 C473 0.951 . S
H466 C474 0.951 . S
C467 C461 1.265 . S
C467 H462 0.950 . S
C467 C468 1.478 . S
C468 C467 1.478 . S
C468 C469 1.397 . S
C468 C485 1.394 . S
C469 C468 1.397 . S
C469 C470 1.438 . S
C469 C474 1.429 . S
C470 C469 1.438 . S
C470 C471 1.428 . S
C470 C483 1.394 . S
C471 H463 0.949 . S
C471 C470 1.428 . S
C471 C472 1.345 . S
C472 H464 0.950 . S
C472 C471 1.345 . S
C472 C473 1.424 . S
C473 H465 0.951 . S
C473 C472 1.424 . S
C473 C474 1.347 . S
C474 H466 0.951 . S
C474 C469 1.429 . S
C474 C473 1.347 . S
H475 C476 0.951 . S
C476 H475 0.951 . S
C476 C482 1.265 . S
H477 C482 0.950 . S
H478 C486 0.949 . S
H479 C487 0.950 . S
H480 C488 0.951 . S
H481 C489 0.951 . S
C482 C476 1.265 . S
C482 H477 0.950 . S
C482 C483 1.478 . S
C483 C470 1.394 . S
C483 C482 1.478 . S
C483 C484 1.397 . S
C484 C483 1.397 . S
C484 C485 1.438 . S
C484 C489 1.429 . S
C485 C468 1.394 . S
C485 C484 1.438 . S
C485 C486 1.428 1_455 S
C486 H478 0.949 . S
C486 C485 1.428 1_655 S
C486 C487 1.345 . S
C487 H479 0.950 . S
C487 C486 1.345 . S
C487 C488 1.424 . S
C488 H480 0.951 . S
C488 C487 1.424 . S
C488 C489 1.347 1_655 S
C489 H481 0.951 . S
C489 C484 1.429 . S
C489 C488 1.347 1_455 S
H490 C491 0.951 . S
C491 H490 0.951 . S
C491 C497 1.265 . S
H492 C497 0.950 . S
H493 C501 0.949 . S
H494 C502 0.950 . S
H495 C503 0.951 . S
H496 C504 0.951 . S
C497 C491 1.265 . S
C497 H492 0.950 . S
C497 C498 1.478 . S
C498 C497 1.478 . S
C498 C499 1.397 . S
C498 C515 1.394 . S
C499 C498 1.397 . S
C499 C500 1.438 . S
C499 C504 1.429 . S
C500 C499 1.438 . S
C500 C501 1.428 . S
C500 C513 1.394 . S
C501 H493 0.949 . S
C501 C500 1.428 . S
C501 C502 1.345 . S
C502 H494 0.950 . S
C502 C501 1.345 . S
C502 C503 1.424 . S
C503 H495 0.951 . S
C503 C502 1.424 . S
C503 C504 1.347 . S
C504 H496 0.951 . S
C504 C499 1.429 . S
C504 C503 1.347 . S
H505 C506 0.951 . S
C506 H505 0.951 . S
C506 C512 1.265 . S
H507 C512 0.950 1_655 S
H508 C516 0.949 . S
H509 C517 0.950 . S
H510 C518 0.951 . S
H511 C519 0.951 . S
C512 C506 1.265 . S
C512 H507 0.950 1_455 S
C512 C513 1.478 . S
C513 C500 1.394 . S
C513 C512 1.478 . S
C513 C514 1.397 . S
C514 C513 1.397 . S
C514 C515 1.438 . S
C514 C519 1.429 . S
C515 C498 1.394 . S
C515 C514 1.438 . S
C515 C516 1.428 . S
C516 H508 0.949 . S
C516 C515 1.428 . S
C516 C517 1.345 . S
C517 H509 0.950 . S
C517 C516 1.345 . S
C517 C518 1.424 . S
C518 H510 0.951 . S
C518 C517 1.424 . S
C518 C519 1.347 . S
C519 H511 0.951 . S
C519 C514 1.429 . S
C519 C518 1.347 . S
C161 C58 1.526 . S
C176 C9 1.527 . S
C191 C89 1.524 . S
C206 C138 1.524 . S
C221 C18 1.482 1_554 S
C236 C49 1.482 . S
C251 C129 1.526 . S
C266 C98 1.526 . S
C281 C126 1.265 . S
C296 C10 1.256 . S
C311 C46 1.263 . S
C326 C90 1.258 . S
C341 C59 1.257 . S
C356 C95 1.270 . S
C371 C139 1.262 . S
C386 C15 1.262 . S
C401 C50 1.256 . S
C416 C86 1.264 1_655 S
C431 C130 1.264 . S
C446 C6 1.217 1_655 S
C461 C135 1.233 1_455 S
C476 C19 1.253 . S
C491 C99 1.266 . S
C506 C55 1.255 1_455 S
