# Generated by pormake.
# Topology snz, (6)-cn, num edge types: 1
# Building blocks:
#     Node 0, Type 0, BuildingBlock: LEVNOQ01_clean_sbu_1, # of connection points: 6
#     Node 1, Type 0, BuildingBlock: LEVNOQ01_clean_sbu_1, # of connection points: 6
#     Node 2, Type 0, BuildingBlock: LEVNOQ01_clean_sbu_1, # of connection points: 6
#     Node 3, Type 0, BuildingBlock: LEVNOQ01_clean_sbu_1, # of connection points: 6
#     Node 4, Type 0, BuildingBlock: LEVNOQ01_clean_sbu_1, # of connection points: 6
#     Node 5, Type 0, BuildingBlock: LEVNOQ01_clean_sbu_1, # of connection points: 6
#     Node 6, Type 0, BuildingBlock: LEVNOQ01_clean_sbu_1, # of connection points: 6
#     Node 7, Type 0, BuildingBlock: LEVNOQ01_clean_sbu_1, # of connection points: 6
#     Node 8, Type 0, BuildingBlock: LEVNOQ01_clean_sbu_1, # of connection points: 6
#     Edge 9, Type (0, 0), BuildingBlock: AJUNOK_clean_linker_0, # of connection points: 2
#     Edge 10, Type (0, 0), BuildingBlock: AJUNOK_clean_linker_0, # of connection points: 2
#     Edge 11, Type (0, 0), BuildingBlock: AJUNOK_clean_linker_0, # of connection points: 2
#     Edge 12, Type (0, 0), BuildingBlock: AJUNOK_clean_linker_0, # of connection points: 2
#     Edge 13, Type (0, 0), BuildingBlock: AJUNOK_clean_linker_0, # of connection points: 2
#     Edge 14, Type (0, 0), BuildingBlock: AJUNOK_clean_linker_0, # of connection points: 2
#     Edge 15, Type (0, 0), BuildingBlock: AJUNOK_clean_linker_0, # of connection points: 2
#     Edge 16, Type (0, 0), BuildingBlock: AJUNOK_clean_linker_0, # of connection points: 2
#     Edge 17, Type (0, 0), BuildingBlock: AJUNOK_clean_linker_0, # of connection points: 2
#     Edge 18, Type (0, 0), BuildingBlock: AJUNOK_clean_linker_0, # of connection points: 2
#     Edge 19, Type (0, 0), BuildingBlock: AJUNOK_clean_linker_0, # of connection points: 2
#     Edge 20, Type (0, 0), BuildingBlock: AJUNOK_clean_linker_0, # of connection points: 2
#     Edge 21, Type (0, 0), BuildingBlock: AJUNOK_clean_linker_0, # of connection points: 2
#     Edge 22, Type (0, 0), BuildingBlock: AJUNOK_clean_linker_0, # of connection points: 2
#     Edge 23, Type (0, 0), BuildingBlock: AJUNOK_clean_linker_0, # of connection points: 2
#     Edge 24, Type (0, 0), BuildingBlock: AJUNOK_clean_linker_0, # of connection points: 2
#     Edge 25, Type (0, 0), BuildingBlock: AJUNOK_clean_linker_0, # of connection points: 2
#     Edge 26, Type (0, 0), BuildingBlock: AJUNOK_clean_linker_0, # of connection points: 2
#     Edge 27, Type (0, 0), BuildingBlock: AJUNOK_clean_linker_0, # of connection points: 2
#     Edge 28, Type (0, 0), BuildingBlock: AJUNOK_clean_linker_0, # of connection points: 2
#     Edge 29, Type (0, 0), BuildingBlock: AJUNOK_clean_linker_0, # of connection points: 2
#     Edge 30, Type (0, 0), BuildingBlock: AJUNOK_clean_linker_0, # of connection points: 2
#     Edge 31, Type (0, 0), BuildingBlock: AJUNOK_clean_linker_0, # of connection points: 2
#     Edge 32, Type (0, 0), BuildingBlock: AJUNOK_clean_linker_0, # of connection points: 2
#     Edge 33, Type (0, 0), BuildingBlock: AJUNOK_clean_linker_0, # of connection points: 2
#     Edge 34, Type (0, 0), BuildingBlock: AJUNOK_clean_linker_0, # of connection points: 2
#     Edge 35, Type (0, 0), BuildingBlock: AJUNOK_clean_linker_0, # of connection points: 2
# Relax obj value: 0.250
# Max RMSD: 0.270
# Mean RMSD: 0.238
data_MOF--net-snz--node1-LEVNOQ01_clean_sbu_1--edge1-AJUNOK_clean_linker_0
_symmetry_space_group_name_H-M    P1
_symmetry_Int_Tables_number       1
_symmetry_cell_setting            triclinic
loop_
_symmetry_equiv_pos_as_xyz
'x, y, z'
_cell_length_a     37.483079
_cell_length_b     37.902059
_cell_length_c     11.560328
_cell_angle_alpha  92.173825
_cell_angle_beta   91.856821
_cell_angle_gamma 120.78957
loop_
_atom_site_label
_atom_site_type_symbol
_atom_site_fract_x
_atom_site_fract_y
_atom_site_fract_z
_atom_type_partial_charge
O0 O 0.0968 0.49414 0.0417 0.0
Mg1 Mg 0.04216 0.45482 0.93416 0.0
O2 O 0.04254 0.45508 0.13214 0.0
Mg3 Mg 0.00704 0.48405 0.02987 0.0
O4 O 0.02906 0.48609 0.82503 0.0
O5 O 0.05948 0.44933 0.77609 0.0
O6 O 0.96895 0.51041 0.94458 0.0
O7 O 0.06283 0.55179 0.08625 0.0
Mg8 Mg 0.9706 0.52565 0.21785 0.0
O9 O 0.98002 0.47913 0.20827 0.0
O10 O 0.9353 0.52485 0.0755 0.0
O11 O 0.03339 0.57063 0.22123 0.0
O12 O 0.94852 0.4886 0.35513 0.0
C13 C 0.95299 0.38945 -0.03206 0.0
C14 C 0.08133 0.4704 0.12162 0.0
C15 C 0.04362 0.47118 0.74712 0.0
C16 C 0.94273 0.521 -0.02867 0.0
C17 C 0.06493 0.57742 0.16662 0.0
C18 C 0.97058 0.47404 0.31563 0.0
O19 O 0.98892 0.39416 -0.03495 0.0
O20 O 0.94987 0.42097 -0.01964 0.0
O21 O 0.65071 0.48206 0.04179 0.0
Mg22 Mg 0.62971 0.51232 0.15283 0.0
O23 O 0.60743 0.4901 0.9335 0.0
Mg24 Mg 0.54845 0.47497 0.03817 0.0
O25 O 0.57503 0.47979 0.23176 0.0
O26 O 0.63802 0.50475 0.32307 0.0
O27 O 0.48428 0.46156 0.12477 0.0
O28 O 0.53187 0.4077 0.04179 0.0
Mg29 Mg 0.4643 0.41504 0.86481 0.0
O30 O 0.52077 0.46473 0.85143 0.0
O31 O 0.43435 0.43143 -0.01716 0.0
O32 O 0.4784 0.36969 0.91405 0.0
O33 O 0.47491 0.43784 0.70126 0.0
C34 C 0.60776 0.575 0.05703 0.0
C35 C 0.63985 0.48735 0.94284 0.0
C36 C 0.5981 0.48572 0.32597 0.0
C37 C 0.44663 0.44797 0.08459 0.0
C38 C 0.50609 0.37346 -0.01126 0.0
C39 C 0.51274 0.46247 0.74075 0.0
O40 O 0.63619 0.56948 0.10016 0.0
O41 O 0.57054 0.54465 0.03684 0.0
O42 O 0.47421 0.93008 0.06604 0.0
Mg43 Mg 0.47745 0.97036 0.93672 0.0
O44 O 0.48736 0.98753 0.14549 0.0
Mg45 Mg 0.55248 0.02169 0.06507 0.0
O46 O 0.53279 -0.00364 0.8696 0.0
O47 O 0.47343 0.94738 0.77384 0.0
O48 O 0.6165 0.06244 -0.01273 0.0
O49 O 0.56464 0.96684 0.09353 0.0
Mg50 Mg 0.62839 0.04812 0.23442 0.0
O51 O 0.57357 0.04929 0.25518 0.0
O52 O 0.65618 0.10122 0.13815 0.0
O53 O 0.63275 0.00485 0.12798 0.0
O54 O 0.58013 -0.00038 0.31696 0.0
C55 C 0.50421 0.06346 -0.02939 0.0
C56 C 0.46335 0.94892 0.13402 0.0
C57 C 0.51216 0.97576 0.77403 0.0
C58 C 0.64912 0.095 0.0292 0.0
C59 C 0.60032 0.97019 0.10238 0.0
C60 C 0.56448 0.02214 0.32942 0.0
O61 O 0.47473 0.02655 0.94341 0.0
O62 O 0.53822 0.07119 0.02225 0.0
O63 O 0.63773 0.74997 0.12894 0.0
Mg64 Mg 0.68805 0.76551 0.25222 0.0
O65 O 0.69545 0.77305 0.04779 0.0
Mg66 Mg 0.73127 0.83747 0.1612 0.0
O67 O 0.70853 0.81708 0.35559 0.0
O68 O 0.66856 0.7529 0.41498 0.0
O69 O 0.77087 0.9019 0.25719 0.0
O70 O 0.6767 0.85196 0.13618 0.0
Mg71 Mg 0.74899 0.90887 -0.02162 0.0
O72 O 0.75771 0.86215 -0.01758 0.0
O73 O 0.77599 0.94642 0.12886 0.0
O74 O 0.68362 0.86757 0.95468 0.0
O75 O 0.78987 0.91165 0.86006 0.0
C76 C 0.77881 0.78975 0.213 0.0
C77 C 0.65725 0.74531 0.04926 0.0
C78 C 0.69015 0.79217 0.43788 0.0
C79 C 0.78338 0.9385 0.22893 0.0
C80 C 0.66381 0.86137 0.04534 0.0
C81 C 0.77057 0.87307 0.8794 0.0
O82 O 0.74193 0.7595 0.22218 0.0
O83 O 0.7848 0.82542 0.19708 0.0
O84 O 0.30216 0.88428 0.28963 0.0
Mg85 Mg 0.2658 0.88448 0.41264 0.0
O86 O 0.25793 0.86997 0.13887 0.0
Mg87 Mg 0.19087 0.84541 0.20545 0.0
O88 O 0.20415 0.84323 0.3981 0.0
O89 O 0.24735 0.82529 0.46705 0.0
O90 O 0.12413 0.82129 0.2688 0.0
O91 O 0.18052 0.77982 0.17587 0.0
Mg92 Mg 0.11667 0.79336 0.04032 0.0
O93 O 0.17281 0.84835 0.01763 0.0
O94 O 0.08506 0.81952 0.12058 0.0
O95 O 0.11258 0.74691 0.14149 0.0
O96 O 0.15522 0.79065 0.92091 0.0
C97 C 0.22958 0.9386 0.31447 0.0
C98 C 0.29366 0.87945 0.18242 0.0
C99 C 0.21362 0.82537 0.47505 0.0
C100 C 0.09033 0.81793 0.22873 0.0
C101 C 0.14557 0.74652 0.16358 0.0
C102 C 0.17814 0.82974 0.93118 0.0
O103 O 0.25373 0.93338 0.38306 0.0
O104 O 0.2036 0.9107 0.24045 0.0
O105 O 0.14508 0.3737 0.34592 0.0
Mg106 Mg 0.15325 0.3417 0.46495 0.0
O107 O 0.16713 0.35515 0.19114 0.0
Mg108 Mg 0.18922 0.30895 0.24758 0.0
O109 O 0.19319 0.32244 0.43651 0.0
O110 O 0.21819 0.38535 0.50204 0.0
O111 O 0.20764 0.26373 0.32761 0.0
O112 O 0.25682 0.36545 0.24296 0.0
Mg113 Mg 0.22966 0.2818 0.14215 0.0
O114 O 0.18684 0.29252 0.04719 0.0
O115 O 0.21372 0.22311 0.201 0.0
O116 O 0.28705 0.32967 0.22421 0.0
O117 O 0.23942 0.28762 -0.0249 0.0
C118 C 0.09779 0.25037 0.34292 0.0
C119 C 0.15357 0.37645 0.2414 0.0
C120 C 0.21769 0.35175 0.50915 0.0
C121 C 0.21221 0.23311 0.30556 0.0
C122 C 0.28988 0.36389 0.24551 0.0
C123 C 0.20809 0.29254 0.96004 0.0
O124 O 0.10637 0.27965 0.41786 0.0
O125 O 0.12173 0.25423 0.26183 0.0
O126 O 0.41677 0.22359 0.44712 0.0
Mg127 Mg 0.40437 0.25155 0.58879 0.0
O128 O 0.36914 0.16187 0.50065 0.0
Mg129 Mg 0.35982 0.15783 0.69357 0.0
O130 O 0.40762 0.22405 0.72923 0.0
O131 O 0.44895 0.29054 0.71878 0.0
O132 O 0.34884 0.15424 0.88446 0.0
O133 O 0.41717 0.15168 0.72623 0.0
Mg134 Mg 0.32959 0.07155 0.81235 0.0
O135 O 0.31306 0.09005 0.66462 0.0
O136 O 0.30191 0.09171 0.93306 0.0
O137 O 0.3948 0.10411 0.85468 0.0
O138 O 0.30927 0.03071 0.66369 0.0
C139 C 0.30673 0.20067 0.61892 0.0
C140 C 0.39095 0.18561 0.42388 0.0
C141 C 0.43788 0.25809 0.77495 0.0
C142 C 0.3252 0.13013 0.95789 0.0
C143 C 0.42422 0.13414 0.80783 0.0
C144 C 0.30615 0.05751 0.6061 0.0
O145 O 0.34121 0.23054 0.59099 0.0
O146 O 0.30415 0.16865 0.65986 0.0
O147 O 0.89403 0.12173 0.85595 0.0
Mg148 Mg 0.83424 0.09232 0.77446 0.0
O149 O 0.88706 0.17329 0.81076 0.0
Mg150 Mg 0.86608 0.16645 0.617 0.0
O151 O 0.84158 0.09794 0.6025 0.0
O152 O 0.81547 0.03779 0.68441 0.0
O153 O 0.85189 0.16725 0.41854 0.0
O154 O 0.92509 0.1689 0.55311 0.0
Mg155 Mg 0.94074 0.25797 0.54058 0.0
O156 O 0.89115 0.23398 0.63619 0.0
O157 O 0.90395 0.23045 0.38289 0.0
O158 O 0.97881 0.23237 0.57301 0.0
O159 O 0.94013 0.29778 0.67246 0.0
C160 C 0.78472 0.13878 0.76474 0.0
C161 C 0.89842 0.1562 0.88406 0.0
C162 C 0.82765 0.05896 0.59413 0.0
C163 C 0.87289 0.19527 0.34799 0.0
C164 C 0.96373 0.19422 0.54924 0.0
C165 C 0.90528 0.26736 0.70005 0.0
O166 O 0.79327 0.11445 0.81531 0.0
O167 O 0.80407 0.15828 0.67779 0.0
O168 O 0.89103 0.62278 0.31971 0.0
Mg169 Mg 0.91277 0.61267 0.47555 0.0
O170 O 0.84309 0.63331 0.39084 0.0
Mg171 Mg 0.86425 0.6557 0.58285 0.0
O172 O 0.8852 0.61114 0.62906 0.0
O173 O 0.86455 0.55485 0.52349 0.0
O174 O 0.88218 0.68021 0.77614 0.0
O175 O 0.80004 0.60559 0.64493 0.0
Mg176 Mg 0.80264 0.68351 0.65808 0.0
O177 O 0.84592 0.7025 0.53661 0.0
O178 O 0.83134 0.69061 0.82673 0.0
O179 O 0.75337 0.62278 0.60828 0.0
O180 O 0.80912 0.73221 0.56896 0.0
C181 C 0.96395 0.70348 0.51121 0.0
C182 C 0.86128 0.62892 0.30533 0.0
C183 C 0.86771 0.57179 0.62388 0.0
C184 C 0.86312 0.68812 0.85347 0.0
C185 C 0.7622 0.59625 0.63811 0.0
C186 C 0.83585 0.72916 0.50913 0.0
O187 O 0.96645 0.67149 0.52287 0.0
O188 O 0.92968 0.70259 0.52271 0.0
C189 C 0.04407 0.50959 0.57633 0.0
C190 C 0.03502 0.47247 0.62231 0.0
C191 C 0.0267 0.50967 0.46741 0.0
C192 C -0.00097 0.47261 0.40252 0.0
H193 H 0.06242 0.5384 0.62775 0.0
H194 H 0.03184 0.53872 0.43863 0.0
S195 S 0.96987 0.36778 0.4776 0.0
N196 N 0.00152 0.39802 0.58753 0.0
N197 N 0.96665 0.39852 0.38573 0.0
C198 C -0.0074 0.43566 0.4425 0.0
C199 C 0.01134 0.43556 0.55201 0.0
C200 C 0.54478 0.4389 0.60003 0.0
C201 C 0.54474 0.47243 0.65738 0.0
C202 C 0.56213 0.44268 0.49213 0.0
C203 C 0.58064 0.48046 0.44021 0.0
H204 H 0.52853 0.40878 0.63496 0.0
H205 H 0.56022 0.41593 0.44828 0.0
S206 S 0.59467 0.57862 0.56188 0.0
N207 N 0.56856 0.5453 0.65935 0.0
N208 N 0.60257 0.55263 0.45831 0.0
C209 C 0.5839 0.51474 0.50107 0.0
C210 C 0.56574 0.51083 0.6098 0.0
C211 C 0.50198 -0.00177 0.58385 0.0
C212 C 0.52828 0.9936 0.66417 0.0
C213 C 0.51599 0.01512 0.47737 0.0
C214 C 0.55672 0.02802 0.44965 0.0
H215 H 0.46992 0.98747 0.60182 0.0
H216 H 0.49387 0.01421 0.41276 0.0
S217 S 0.63825 0.02516 0.63237 0.0
N218 N 0.59698 0.00482 0.71058 0.0
N219 N 0.62472 0.04021 0.51536 0.0
C220 C 0.58465 0.02843 0.53561 0.0
C221 C 0.56991 0.00956 0.64119 0.0
C222 C 0.6996 0.83987 0.60782 0.0
C223 C 0.70317 0.80734 0.56032 0.0
C224 C 0.71939 0.85915 0.7161 0.0
C225 C 0.74361 0.84671 0.77945 0.0
H226 H 0.6831 0.85158 0.55908 0.0
H227 H 0.71763 0.8855 0.74752 0.0
S228 S 0.76018 0.76189 0.69621 0.0
N229 N 0.7304 0.76196 0.5878 0.0
N230 N 0.76782 0.79903 0.79115 0.0
C231 C 0.7452 0.81288 0.73648 0.0
C232 C 0.72488 0.79298 0.6267 0.0
C233 C 0.16568 0.82234 0.62061 0.0
C234 C 0.20625 0.83444 0.5932 0.0
C235 C 0.15772 0.83059 0.73209 0.0
C236 C 0.18974 0.84849 0.82082 0.0
H237 H 0.13986 0.80508 0.55695 0.0
H238 H 0.12552 0.81724 0.75327 0.0
S239 S 0.30257 0.90187 0.78127 0.0
N240 N 0.28036 0.87809 0.65364 0.0
N241 N 0.26404 0.89034 0.86672 0.0
C242 C 0.23088 0.86669 0.79074 0.0
C243 C 0.23944 0.85961 0.67609 0.0
C244 C 0.22055 0.30494 0.6444 0.0
C245 C 0.21396 0.33743 0.62651 0.0
C246 C 0.21357 0.28698 0.75008 0.0
C247 C 0.19949 0.30086 0.84246 0.0
H248 H 0.23067 0.29302 0.57542 0.0
H249 H 0.22138 0.2634 0.76136 0.0
S250 S 0.16176 0.3741 0.82481 0.0
N251 N 0.18187 0.37548 0.69903 0.0
N252 N 0.16831 0.34126 0.89952 0.0
C253 C 0.18722 0.32955 0.8214 0.0
C254 C 0.19494 0.34831 0.71323 0.0
C255 C 0.3987 0.16939 0.22042 0.0
C256 C 0.37453 0.17247 0.30493 0.0
C257 C 0.38152 0.15481 0.10793 0.0
C258 C 0.34016 0.14351 0.07753 0.0
H259 H 0.43049 0.17757 0.24169 0.0
H260 H 0.40066 0.15238 0.04384 0.0
S261 S 0.26601 0.14964 0.2665 0.0
N262 N 0.30856 0.16597 0.35121 0.0
N263 N 0.27626 0.13788 0.13773 0.0
C264 C 0.31601 0.14716 0.16056 0.0
C265 C 0.33343 0.16213 0.2751 0.0
C266 C 0.90074 0.215 0.15383 0.0
C267 C 0.87128 0.18438 0.22216 0.0
C268 C 0.91224 0.20492 0.0499 0.0
C269 C 0.89277 0.16425 0.00499 0.0
H270 H 0.91726 0.24718 0.18397 0.0
H271 H 0.93628 0.2293 0.00315 0.0
S272 S 0.80795 0.07279 0.13463 0.0
N273 N 0.81952 0.11153 0.22904 0.0
N274 N 0.83947 0.09297 0.02863 0.0
C275 C 0.86129 0.13329 0.06724 0.0
C276 C 0.85032 0.14337 0.17563 0.0
C277 C 0.83929 0.61772 0.0961 0.0
C278 C 0.85818 0.64465 0.19435 0.0
C279 C 0.84264 0.63295 -0.01381 0.0
C280 C 0.86507 0.67552 -0.029 0.0
H281 H 0.82244 0.58478 0.1042 0.0
H282 H 0.82732 0.61119 0.91199 0.0
S283 S 0.92395 0.75839 0.20213 0.0
N284 N 0.90288 0.7154 0.27079 0.0
N285 N 0.90807 0.74442 0.06384 0.0
C286 C 0.88452 0.70291 0.06889 0.0
C287 C 0.8814 0.68726 0.18086 0.0
C288 C 0.15759 0.44281 0.24262 0.0
C289 C 0.14451 0.40449 0.18287 0.0
C290 C 0.13603 0.46351 0.22609 0.0
C291 C 0.10091 0.44655 0.14897 0.0
H292 H 0.18276 0.4552 0.30931 0.0
H293 H 0.14643 0.49244 0.27497 0.0
S294 S 0.05785 0.35021 0.96022 0.0
N295 N 0.09643 0.35213 0.03884 0.0
N296 N 0.05764 0.39234 0.00072 0.0
C297 C 0.08959 0.40993 0.08259 0.0
C298 C 0.11117 0.38865 0.10068 0.0
C299 C 0.58935 0.62973 0.03147 0.0
C300 C 0.61884 0.61733 0.02824 0.0
C301 C 0.60126 0.6712 0.02216 0.0
C302 C 0.64309 0.7019 0.00935 0.0
H303 H 0.55742 0.60785 0.04889 0.0
H304 H 0.5781 0.67978 0.03491 0.0
S305 S 0.72904 0.68236 0.95617 0.0
N306 N 0.68935 0.63699 -0.01651 0.0
N307 N 0.71179 0.71465 -0.03473 0.0
C308 C 0.67159 0.68876 -0.01021 0.0
C309 C 0.6595 0.6466 0.00037 0.0
C310 C 0.39217 0.88815 0.13385 0.0
C311 C 0.41802 0.93124 0.13882 0.0
C312 C 0.34889 0.86936 0.12194 0.0
C313 C 0.32987 0.89297 0.11521 0.0
H314 H 0.40553 0.8688 0.14156 0.0
H315 H 0.33013 0.83645 0.13052 0.0
S316 S 0.38241 0.0062 0.11297 0.0
N317 N 0.42072 -0.00311 0.12931 0.0
N318 N 0.3392 0.96072 0.10247 0.0
C319 C 0.3551 0.93562 0.11012 0.0
C320 C 0.39918 0.95509 0.1258 0.0
C321 C 0.49391 0.12293 0.00119 0.0
C322 C 0.50055 0.09726 0.92585 0.0
C323 C 0.47734 0.14583 0.95702 0.0
C324 C 0.46606 0.14222 0.83763 0.0
H325 H 0.49716 0.12186 0.0943 0.0
H326 H 0.4671 0.16077 0.01792 0.0
S327 S 0.49307 0.09269 0.60354 0.0
N328 N 0.50619 0.07926 0.72504 0.0
N329 N 0.47584 0.12332 0.64392 0.0
C330 C 0.4813 0.12438 0.76119 0.0
C331 C 0.4974 0.10047 0.80524 0.0
C332 C 0.89211 0.27621 0.89971 0.0
C333 C 0.88126 0.27617 0.78248 0.0
C334 C 0.91171 0.3131 -0.03022 0.0
C335 C 0.91674 0.3494 0.9261 0.0
H336 H 0.89317 0.25023 0.92918 0.0
H337 H 0.92697 0.31423 0.05228 0.0
S338 S 0.8728 0.35776 0.6432 0.0
N339 N 0.86108 0.30939 0.64191 0.0
N340 N 0.89675 0.37896 0.77143 0.0
C341 C 0.89521 0.34617 0.82034 0.0
C342 C 0.87571 0.30846 0.75031 0.0
C343 C 0.73462 0.57689 0.83044 0.0
C344 C 0.73337 0.56489 0.71324 0.0
C345 C 0.70524 0.55029 0.90441 0.0
C346 C 0.67313 0.51078 0.8637 0.0
H347 H 0.75771 0.60771 0.86432 0.0
H348 H 0.70657 0.56145 -0.00683 0.0
S349 S 0.65977 0.46299 0.56704 0.0
N350 N 0.70053 0.50991 0.56169 0.0
N351 N 0.64384 0.45972 0.70027 0.0
C352 C 0.67234 0.49776 0.74732 0.0
C353 C 0.70296 0.5249 0.67209 0.0
C354 C 0.92171 0.55874 0.69572 0.0
C355 C 0.88334 0.55592 0.71329 0.0
C356 C 0.9401 0.54593 0.77749 0.0
C357 C 0.92092 0.53025 0.88059 0.0
H358 H 0.93805 0.57168 0.61835 0.0
H359 H 0.97012 0.54963 0.76144 0.0
S360 S 0.81881 0.51333 -0.03497 0.0
N361 N 0.82559 0.53424 0.83846 0.0
N362 N 0.86039 0.51001 -0.00628 0.0
C363 C 0.882 0.52627 0.89838 0.0
C364 C 0.86311 0.53925 0.81444 0.0
C365 C 0.52723 0.32459 0.93494 0.0
C366 C 0.50671 0.33618 0.01365 0.0
C367 C 0.50504 0.28618 0.87296 0.0
C368 C 0.46175 0.26177 0.88276 0.0
H369 H 0.55682 0.34763 0.90434 0.0
H370 H 0.51885 0.28129 0.79759 0.0
S371 S 0.40527 0.26821 0.13187 0.0
N372 N 0.4509 0.31147 0.1445 0.0
N373 N 0.40674 0.2417 0.01686 0.0
C374 C 0.44622 0.26723 -0.01343 0.0
C375 C 0.46987 0.30486 0.05512 0.0
C376 C 0.7118 0.12304 0.76332 0.0
C377 C 0.75238 0.14457 0.81478 0.0
C378 C 0.67745 0.11108 0.83153 0.0
C379 C 0.68308 0.12022 0.95261 0.0
H380 H 0.70654 0.11175 0.67323 0.0
H381 H 0.64648 0.09157 0.79125 0.0
S382 S 0.78381 0.18879 0.11803 0.0
N383 N 0.79663 0.18345 -0.01414 0.0
N384 N 0.7325 0.16229 0.11298 0.0
C385 C 0.72363 0.14805 -0.00028 0.0
C386 C 0.75833 0.15977 0.93084 0.0
C387 C 0.6383 0.94388 9e-05 0.0
C388 C 0.60663 0.93564 0.07435 0.0
C389 C 0.65496 0.91872 -0.00894 0.0
C390 C 0.64076 0.88353 0.05542 0.0
H391 H 0.65207 0.97157 0.95256 0.0
H392 H 0.68081 0.92844 0.93584 0.0
S393 S 0.55526 0.84613 0.25726 0.0
N394 N 0.55916 0.88859 0.20997 0.0
N395 N 0.59093 0.84032 0.19285 0.0
C396 C 0.60771 0.87366 0.12783 0.0
C397 C 0.5903 0.89975 0.13662 0.0
C398 C 0.1456 0.68373 0.09367 0.0
C399 C 0.14142 0.70695 0.18461 0.0
C400 C 0.12558 0.64059 0.09478 0.0
C401 C 0.10091 0.62003 0.18684 0.0
H402 H 0.16048 0.69838 0.01617 0.0
H403 H 0.1254 0.62329 0.01772 0.0
S404 S 0.08479 0.66893 0.45035 0.0
N405 N 0.11403 0.70751 0.37054 0.0
N406 N 0.07938 0.62764 0.37967 0.0
C407 C 0.10163 0.64411 0.28511 0.0
C408 C 0.12077 0.68738 0.28165 0.0
C409 C 0.40623 0.42833 0.26395 0.0
C410 C 0.41299 0.44557 0.15529 0.0
C411 C 0.36569 0.40608 0.30347 0.0
C412 C 0.33111 0.40107 0.23636 0.0
H413 H 0.43107 0.4272 0.31094 0.0
H414 H 0.36084 0.38899 0.38024 0.0
S415 S 0.33342 0.44603 0.95552 0.0
N416 N 0.38257 0.46184 -0.00867 0.0
N417 N 0.30705 0.41935 0.06402 0.0
C418 C 0.33836 0.42297 0.13617 0.0
C419 C 0.37933 0.44569 0.09644 0.0
C420 C 0.82537 0.72861 0.29964 0.0
C421 C 0.84775 0.75134 0.40229 0.0
C422 C 0.80876 0.74479 0.22208 0.0
C423 C 0.81398 0.78391 0.2458 0.0
H424 H 0.8145 0.69604 0.28928 0.0
H425 H 0.7866 0.72427 0.15383 0.0
S426 S 0.88545 0.861 0.47721 0.0
N427 N 0.88619 0.8188 0.50291 0.0
N428 N 0.85461 0.84954 0.35878 0.0
C429 C 0.84423 0.80997 0.33342 0.0
C430 C 0.86141 0.79344 0.41152 0.0
C431 C 0.23571 0.01152 0.52023 0.0
C432 C 0.27713 0.04169 0.50289 0.0
C433 C 0.21214 0.97998 0.43484 0.0
C434 C 0.23039 0.97736 0.33321 0.0
H435 H 0.22373 0.00876 0.60565 0.0
H436 H 0.18346 0.95352 0.45894 0.0
S437 S 0.32856 0.05866 0.22521 0.0
N438 N 0.3292 0.07459 0.36099 0.0
N439 N 0.28366 0.01516 0.19992 0.0
C440 C 0.26666 0.01264 0.30353 0.0
C441 C 0.29118 0.04463 0.39051 0.0
C442 C 0.02782 0.19175 0.55231 0.0
C443 C -0.00952 0.18175 0.49242 0.0
C444 C 0.06353 0.2035 0.49208 0.0
C445 C 0.06353 0.20995 0.37263 0.0
H446 H 0.03082 0.1958 0.64617 0.0
H447 H 0.09284 0.21637 0.54289 0.0
S448 S 0.96963 0.16485 0.17255 0.0
N449 N 0.95174 0.1598 0.30375 0.0
N450 N 0.02082 0.18777 0.19177 0.0
C451 C 0.02504 0.19085 0.30951 0.0
C452 C 0.98785 0.1759 0.37024 0.0
C453 C 0.23549 0.17194 0.521 0.0
C454 C 0.27034 0.20434 0.58537 0.0
C455 C 0.21481 0.18052 0.43139 0.0
C456 C 0.23033 0.22138 0.40119 0.0
H457 H 0.22694 0.14033 0.53148 0.0
H458 H 0.18866 0.1553 0.38121 0.0
S459 S 0.31854 0.31569 0.55105 0.0
N460 N 0.31177 0.27804 0.63154 0.0
N461 N 0.28325 0.2933 0.44221 0.0
C462 C 0.26375 0.25324 0.46934 0.0
C463 C 0.27997 0.24482 0.56955 0.0
C464 C 0.83583 0.9878 0.38152 0.0
C465 C 0.79768 0.97178 0.31765 0.0
C466 C 0.84848 0.02042 0.46499 0.0
C467 C 0.82341 0.03757 0.48385 0.0
H468 H 0.8552 0.97457 0.36878 0.0
H469 H 0.87657 0.03068 0.51942 0.0
S470 S 0.72272 0.00775 0.33285 0.0
N471 N 0.73613 0.97602 0.27512 0.0
N472 N 0.76106 0.03849 0.42837 0.0
C473 C 0.78692 0.02355 0.4151 0.0
C474 C 0.7736 0.99002 0.33298 0.0
C475 C 0.02152 0.77561 0.48117 0.0
C476 C -0.0057 0.73476 0.43852 0.0
C477 C 0.05149 0.80418 0.41035 0.0
C478 C 0.05334 0.79303 0.29386 0.0
H479 H 0.02084 0.78491 0.57048 0.0
H480 H 0.07414 0.83462 0.44767 0.0
S481 S 0.98652 0.69057 0.13952 0.0
N482 N 0.97052 0.68498 0.27259 0.0
N483 N 0.02391 0.73918 0.13805 0.0
C484 C 0.02438 0.75299 0.24893 0.0
C485 C -0.00443 0.72367 0.32182 0.0
loop_
_geom_bond_atom_site_label_1
_geom_bond_atom_site_label_2
_geom_bond_distance
_geom_bond_site_symmetry_2
_ccdc_geom_bond_type
O0 Mg1 1.990 . S
O0 C14 1.253 1_556 S
Mg1 O0 1.990 . S
Mg1 O4 2.180 . S
Mg1 O5 2.117 . S
Mg1 O19 2.030 1_455 S
O2 Mg3 2.072 . S
O2 C14 1.260 . S
Mg3 O2 2.072 . S
Mg3 O4 2.099 1_554 S
Mg3 O6 2.079 1_454 S
Mg3 O7 2.072 . S
Mg3 O9 2.099 1_455 S
Mg3 O20 2.079 1_455 S
O4 Mg1 2.180 . S
O4 Mg3 2.099 1_556 S
O4 C15 1.279 . S
O5 Mg1 2.117 . S
O5 C15 1.250 . S
O6 Mg3 2.079 1_656 S
O6 C16 1.264 1_556 S
O7 Mg3 2.072 . S
O7 C17 1.260 . S
Mg8 O9 2.180 1_455 S
Mg8 O10 2.030 1_455 S
Mg8 O11 1.990 . S
Mg8 O12 2.117 . S
O9 Mg3 2.099 1_655 S
O9 Mg8 2.180 1_655 S
O9 C18 1.279 1_655 S
O10 Mg8 2.030 1_655 S
O10 C16 1.248 . S
O11 Mg8 1.990 . S
O11 C17 1.253 . S
O12 Mg8 2.117 . S
O12 C18 1.250 . S
C13 O19 1.248 . S
C13 O20 1.264 1_556 S
C14 O0 1.253 1_554 S
C14 O2 1.260 . S
C15 O4 1.279 . S
C15 O5 1.250 . S
C16 O6 1.264 1_554 S
C16 O10 1.248 . S
C17 O7 1.260 . S
C17 O11 1.253 . S
C18 O9 1.279 1_455 S
C18 O12 1.250 . S
O19 Mg1 2.030 1_655 S
O19 C13 1.248 . S
O20 Mg3 2.079 1_655 S
O20 C13 1.264 1_554 S
O21 Mg22 1.990 . S
O21 C35 1.253 . S
Mg22 O21 1.990 . S
Mg22 O25 2.180 . S
Mg22 O26 2.117 . S
Mg22 O40 2.030 . S
O23 Mg24 2.072 1_556 S
O23 C35 1.260 1_556 S
Mg24 O23 2.072 1_554 S
Mg24 O25 2.099 . S
Mg24 O27 2.079 . S
Mg24 O28 2.072 . S
Mg24 O30 2.099 1_554 S
Mg24 O41 2.079 . S
O25 Mg22 2.180 . S
O25 Mg24 2.099 . S
O25 C36 1.279 . S
O26 Mg22 2.117 . S
O26 C36 1.250 . S
O27 Mg24 2.079 . S
O27 C37 1.264 . S
O28 Mg24 2.072 . S
O28 C38 1.260 . S
Mg29 O30 2.180 . S
Mg29 O31 2.030 . S
Mg29 O32 1.990 . S
Mg29 O33 2.117 . S
O30 Mg24 2.099 1_556 S
O30 Mg29 2.180 . S
O30 C39 1.279 . S
O31 Mg29 2.030 . S
O31 C37 1.248 1_556 S
O32 Mg29 1.990 . S
O32 C38 1.253 1_556 S
O33 Mg29 2.117 . S
O33 C39 1.250 . S
C34 O40 1.248 . S
C34 O41 1.264 . S
C35 O21 1.253 . S
C35 O23 1.260 1_554 S
C36 O25 1.279 . S
C36 O26 1.250 . S
C37 O27 1.264 . S
C37 O31 1.248 1_554 S
C38 O28 1.260 . S
C38 O32 1.253 1_554 S
C39 O30 1.279 . S
C39 O33 1.250 . S
O40 Mg22 2.030 . S
O40 C34 1.248 . S
O41 Mg24 2.079 . S
O41 C34 1.264 . S
O42 Mg43 1.990 1_565 S
O42 C56 1.253 1_556 S
Mg43 O42 1.990 1_545 S
Mg43 O46 2.180 . S
Mg43 O47 2.117 1_545 S
Mg43 O61 2.030 . S
O44 Mg45 2.072 1_565 S
O44 C56 1.260 . S
Mg45 O44 2.072 1_545 S
Mg45 O46 2.099 1_554 S
Mg45 O48 2.079 . S
Mg45 O49 2.072 1_545 S
Mg45 O51 2.099 . S
Mg45 O62 2.079 . S
O46 Mg43 2.180 . S
O46 Mg45 2.099 1_556 S
O46 C57 1.279 1_545 S
O47 Mg43 2.117 1_565 S
O47 C57 1.250 . S
O48 Mg45 2.079 . S
O48 C58 1.264 . S
O49 Mg45 2.072 1_565 S
O49 C59 1.260 . S
Mg50 O51 2.180 . S
Mg50 O52 2.030 . S
Mg50 O53 1.990 1_545 S
Mg50 O54 2.117 . S
O51 Mg45 2.099 . S
O51 Mg50 2.180 . S
O51 C60 1.279 . S
O52 Mg50 2.030 . S
O52 C58 1.248 . S
O53 Mg50 1.990 1_565 S
O53 C59 1.253 . S
O54 Mg50 2.117 . S
O54 C60 1.250 . S
C55 O61 1.248 1_554 S
C55 O62 1.264 . S
C56 O42 1.253 1_554 S
C56 O44 1.260 . S
C57 O46 1.279 1_565 S
C57 O47 1.250 . S
C58 O48 1.264 . S
C58 O52 1.248 . S
C59 O49 1.260 . S
C59 O53 1.253 . S
C60 O51 1.279 . S
C60 O54 1.250 . S
O61 Mg43 2.030 . S
O61 C55 1.248 1_556 S
O62 Mg45 2.079 . S
O62 C55 1.264 . S
O63 Mg64 1.990 . S
O63 C77 1.253 . S
Mg64 O63 1.990 . S
Mg64 O67 2.180 . S
Mg64 O68 2.117 . S
Mg64 O82 2.030 . S
O65 Mg66 2.072 . S
O65 C77 1.260 . S
Mg66 O65 2.072 . S
Mg66 O67 2.099 . S
Mg66 O69 2.079 . S
Mg66 O70 2.072 . S
Mg66 O72 2.099 . S
Mg66 O83 2.079 . S
O67 Mg64 2.180 . S
O67 Mg66 2.099 . S
O67 C78 1.279 . S
O68 Mg64 2.117 . S
O68 C78 1.250 . S
O69 Mg66 2.079 . S
O69 C79 1.264 . S
O70 Mg66 2.072 . S
O70 C80 1.260 . S
Mg71 O72 2.180 . S
Mg71 O73 2.030 . S
Mg71 O74 1.990 . S
Mg71 O75 2.117 1_554 S
O72 Mg66 2.099 . S
O72 Mg71 2.180 . S
O72 C81 1.279 1_554 S
O73 Mg71 2.030 . S
O73 C79 1.248 . S
O74 Mg71 1.990 . S
O74 C80 1.253 . S
O75 Mg71 2.117 1_556 S
O75 C81 1.250 . S
C76 O82 1.248 . S
C76 O83 1.264 . S
C77 O63 1.253 . S
C77 O65 1.260 . S
C78 O67 1.279 . S
C78 O68 1.250 . S
C79 O69 1.264 . S
C79 O73 1.248 . S
C80 O70 1.260 . S
C80 O74 1.253 . S
C81 O72 1.279 1_556 S
C81 O75 1.250 . S
O82 Mg64 2.030 . S
O82 C76 1.248 . S
O83 Mg66 2.079 . S
O83 C76 1.264 . S
O84 Mg85 1.990 . S
O84 C98 1.253 . S
Mg85 O84 1.990 . S
Mg85 O88 2.180 . S
Mg85 O89 2.117 . S
Mg85 O103 2.030 . S
O86 Mg87 2.072 . S
O86 C98 1.260 . S
Mg87 O86 2.072 . S
Mg87 O88 2.099 . S
Mg87 O90 2.079 . S
Mg87 O91 2.072 . S
Mg87 O93 2.099 . S
Mg87 O104 2.079 . S
O88 Mg85 2.180 . S
O88 Mg87 2.099 . S
O88 C99 1.279 . S
O89 Mg85 2.117 . S
O89 C99 1.250 . S
O90 Mg87 2.079 . S
O90 C100 1.264 . S
O91 Mg87 2.072 . S
O91 C101 1.260 . S
Mg92 O93 2.180 . S
Mg92 O94 2.030 . S
Mg92 O95 1.990 . S
Mg92 O96 2.117 1_554 S
O93 Mg87 2.099 . S
O93 Mg92 2.180 . S
O93 C102 1.279 1_554 S
O94 Mg92 2.030 . S
O94 C100 1.248 . S
O95 Mg92 1.990 . S
O95 C101 1.253 . S
O96 Mg92 2.117 1_556 S
O96 C102 1.250 . S
C97 O103 1.248 . S
C97 O104 1.264 . S
C98 O84 1.253 . S
C98 O86 1.260 . S
C99 O88 1.279 . S
C99 O89 1.250 . S
C100 O90 1.264 . S
C100 O94 1.248 . S
C101 O91 1.260 . S
C101 O95 1.253 . S
C102 O93 1.279 1_556 S
C102 O96 1.250 . S
O103 Mg85 2.030 . S
O103 C97 1.248 . S
O104 Mg87 2.079 . S
O104 C97 1.264 . S
O105 Mg106 1.990 . S
O105 C119 1.253 . S
Mg106 O105 1.990 . S
Mg106 O109 2.180 . S
Mg106 O110 2.117 . S
Mg106 O124 2.030 . S
O107 Mg108 2.072 . S
O107 C119 1.260 . S
Mg108 O107 2.072 . S
Mg108 O109 2.099 . S
Mg108 O111 2.079 . S
Mg108 O112 2.072 . S
Mg108 O114 2.099 . S
Mg108 O125 2.079 . S
O109 Mg106 2.180 . S
O109 Mg108 2.099 . S
O109 C120 1.279 . S
O110 Mg106 2.117 . S
O110 C120 1.250 . S
O111 Mg108 2.079 . S
O111 C121 1.264 . S
O112 Mg108 2.072 . S
O112 C122 1.260 . S
Mg113 O114 2.180 . S
Mg113 O115 2.030 . S
Mg113 O116 1.990 . S
Mg113 O117 2.117 1_554 S
O114 Mg108 2.099 . S
O114 Mg113 2.180 . S
O114 C123 1.279 . S
O115 Mg113 2.030 . S
O115 C121 1.248 . S
O116 Mg113 1.990 . S
O116 C122 1.253 . S
O117 Mg113 2.117 1_556 S
O117 C123 1.250 1_556 S
C118 O124 1.248 . S
C118 O125 1.264 . S
C119 O105 1.253 . S
C119 O107 1.260 . S
C120 O109 1.279 . S
C120 O110 1.250 . S
C121 O111 1.264 . S
C121 O115 1.248 . S
C122 O112 1.260 . S
C122 O116 1.253 . S
C123 O114 1.279 . S
C123 O117 1.250 1_554 S
O124 Mg106 2.030 . S
O124 C118 1.248 . S
O125 Mg108 2.079 . S
O125 C118 1.264 . S
O126 Mg127 1.990 . S
O126 C140 1.253 . S
Mg127 O126 1.990 . S
Mg127 O130 2.180 . S
Mg127 O131 2.117 . S
Mg127 O145 2.030 . S
O128 Mg129 2.072 . S
O128 C140 1.260 . S
Mg129 O128 2.072 . S
Mg129 O130 2.099 . S
Mg129 O132 2.079 . S
Mg129 O133 2.072 . S
Mg129 O135 2.099 . S
Mg129 O146 2.079 . S
O130 Mg127 2.180 . S
O130 Mg129 2.099 . S
O130 C141 1.279 . S
O131 Mg127 2.117 . S
O131 C141 1.250 . S
O132 Mg129 2.079 . S
O132 C142 1.264 1_556 S
O133 Mg129 2.072 . S
O133 C143 1.260 . S
Mg134 O135 2.180 . S
Mg134 O136 2.030 1_556 S
Mg134 O137 1.990 . S
Mg134 O138 2.117 . S
O135 Mg129 2.099 . S
O135 Mg134 2.180 . S
O135 C144 1.279 . S
O136 Mg134 2.030 1_554 S
O136 C142 1.248 . S
O137 Mg134 1.990 . S
O137 C143 1.253 . S
O138 Mg134 2.117 . S
O138 C144 1.250 . S
C139 O145 1.248 . S
C139 O146 1.264 . S
C140 O126 1.253 . S
C140 O128 1.260 . S
C141 O130 1.279 . S
C141 O131 1.250 . S
C142 O132 1.264 1_554 S
C142 O136 1.248 . S
C143 O133 1.260 . S
C143 O137 1.253 . S
C144 O135 1.279 . S
C144 O138 1.250 . S
O145 Mg127 2.030 . S
O145 C139 1.248 . S
O146 Mg129 2.079 . S
O146 C139 1.264 . S
O147 Mg148 1.990 . S
O147 C161 1.253 . S
Mg148 O147 1.990 . S
Mg148 O151 2.180 . S
Mg148 O152 2.117 . S
Mg148 O166 2.030 . S
O149 Mg150 2.072 . S
O149 C161 1.260 . S
Mg150 O149 2.072 . S
Mg150 O151 2.099 . S
Mg150 O153 2.079 . S
Mg150 O154 2.072 . S
Mg150 O156 2.099 . S
Mg150 O167 2.079 . S
O151 Mg148 2.180 . S
O151 Mg150 2.099 . S
O151 C162 1.279 . S
O152 Mg148 2.117 . S
O152 C162 1.250 . S
O153 Mg150 2.079 . S
O153 C163 1.264 . S
O154 Mg150 2.072 . S
O154 C164 1.260 . S
Mg155 O156 2.180 . S
Mg155 O157 2.030 . S
Mg155 O158 1.990 . S
Mg155 O159 2.117 . S
O156 Mg150 2.099 . S
O156 Mg155 2.180 . S
O156 C165 1.279 . S
O157 Mg155 2.030 . S
O157 C163 1.248 . S
O158 Mg155 1.990 . S
O158 C164 1.253 . S
O159 Mg155 2.117 . S
O159 C165 1.250 . S
C160 O166 1.248 . S
C160 O167 1.264 . S
C161 O147 1.253 . S
C161 O149 1.260 . S
C162 O151 1.279 . S
C162 O152 1.250 . S
C163 O153 1.264 . S
C163 O157 1.248 . S
C164 O154 1.260 . S
C164 O158 1.253 . S
C165 O156 1.279 . S
C165 O159 1.250 . S
O166 Mg148 2.030 . S
O166 C160 1.248 . S
O167 Mg150 2.079 . S
O167 C160 1.264 . S
O168 Mg169 1.990 . S
O168 C182 1.253 . S
Mg169 O168 1.990 . S
Mg169 O172 2.180 . S
Mg169 O173 2.117 . S
Mg169 O187 2.030 . S
O170 Mg171 2.072 . S
O170 C182 1.260 . S
Mg171 O170 2.072 . S
Mg171 O172 2.099 . S
Mg171 O174 2.079 . S
Mg171 O175 2.072 . S
Mg171 O177 2.099 . S
Mg171 O188 2.079 . S
O172 Mg169 2.180 . S
O172 Mg171 2.099 . S
O172 C183 1.279 . S
O173 Mg169 2.117 . S
O173 C183 1.250 . S
O174 Mg171 2.079 . S
O174 C184 1.264 . S
O175 Mg171 2.072 . S
O175 C185 1.260 . S
Mg176 O177 2.180 . S
Mg176 O178 2.030 . S
Mg176 O179 1.990 . S
Mg176 O180 2.117 . S
O177 Mg171 2.099 . S
O177 Mg176 2.180 . S
O177 C186 1.279 . S
O178 Mg176 2.030 . S
O178 C184 1.248 . S
O179 Mg176 1.990 . S
O179 C185 1.253 . S
O180 Mg176 2.117 . S
O180 C186 1.250 . S
C181 O187 1.248 . S
C181 O188 1.264 . S
C182 O168 1.253 . S
C182 O170 1.260 . S
C183 O172 1.279 . S
C183 O173 1.250 . S
C184 O174 1.264 . S
C184 O178 1.248 . S
C185 O175 1.260 . S
C185 O179 1.253 . S
C186 O177 1.279 . S
C186 O180 1.250 . S
O187 Mg169 2.030 . S
O187 C181 1.248 . S
O188 Mg171 2.079 . S
O188 C181 1.264 . S
C189 C190 1.369 . S
C189 C191 1.419 . S
C189 H193 0.930 . S
C190 C189 1.369 . S
C190 C199 1.429 . S
C191 C189 1.419 . S
C191 C192 1.363 . S
C191 H194 0.929 . S
C192 C191 1.363 . S
C192 C198 1.428 . S
H193 C189 0.930 . S
H194 C191 0.929 . S
S195 N196 1.613 1_655 S
S195 N197 1.610 . S
N196 S195 1.613 1_455 S
N196 C199 1.350 . S
N197 S195 1.610 . S
N197 C198 1.351 1_655 S
C198 C192 1.428 . S
C198 N197 1.351 1_455 S
C198 C199 1.434 . S
C199 C190 1.429 . S
C199 N196 1.350 . S
C199 C198 1.434 . S
C200 C201 1.369 . S
C200 C202 1.419 . S
C200 H204 0.930 . S
C201 C200 1.369 . S
C201 C210 1.429 . S
C202 C200 1.419 . S
C202 C203 1.363 . S
C202 H205 0.929 . S
C203 C202 1.363 . S
C203 C209 1.428 . S
H204 C200 0.930 . S
H205 C202 0.929 . S
S206 N207 1.613 . S
S206 N208 1.610 . S
N207 S206 1.613 . S
N207 C210 1.350 . S
N208 S206 1.610 . S
N208 C209 1.351 . S
C209 C203 1.428 . S
C209 N208 1.351 . S
C209 C210 1.434 . S
C210 C201 1.429 . S
C210 N207 1.350 . S
C210 C209 1.434 . S
C211 C212 1.369 . S
C211 C213 1.419 1_565 S
C211 H215 0.930 . S
C212 C211 1.369 . S
C212 C221 1.429 1_565 S
C213 C211 1.419 1_545 S
C213 C214 1.363 . S
C213 H216 0.929 . S
C214 C213 1.363 . S
C214 C220 1.428 . S
H215 C211 0.930 . S
H216 C213 0.929 . S
S217 N218 1.613 . S
S217 N219 1.610 . S
N218 S217 1.613 . S
N218 C221 1.350 . S
N219 S217 1.610 . S
N219 C220 1.351 . S
C220 C214 1.428 . S
C220 N219 1.351 . S
C220 C221 1.434 . S
C221 C212 1.429 1_545 S
C221 N218 1.350 . S
C221 C220 1.434 . S
C222 C223 1.369 . S
C222 C224 1.419 . S
C222 H226 0.930 . S
C223 C222 1.369 . S
C223 C232 1.429 . S
C224 C222 1.419 . S
C224 C225 1.363 . S
C224 H227 0.929 . S
C225 C224 1.363 . S
C225 C231 1.428 . S
H226 C222 0.930 . S
H227 C224 0.929 . S
S228 N229 1.613 . S
S228 N230 1.610 . S
N229 S228 1.613 . S
N229 C232 1.350 . S
N230 S228 1.610 . S
N230 C231 1.351 . S
C231 C225 1.428 . S
C231 N230 1.351 . S
C231 C232 1.434 . S
C232 C223 1.429 . S
C232 N229 1.350 . S
C232 C231 1.434 . S
C233 C234 1.369 . S
C233 C235 1.419 . S
C233 H237 0.930 . S
C234 C233 1.369 . S
C234 C243 1.429 . S
C235 C233 1.419 . S
C235 C236 1.363 . S
C235 H238 0.929 . S
C236 C235 1.363 . S
C236 C242 1.428 . S
H237 C233 0.930 . S
H238 C235 0.929 . S
S239 N240 1.613 . S
S239 N241 1.610 . S
N240 S239 1.613 . S
N240 C243 1.350 . S
N241 S239 1.610 . S
N241 C242 1.351 . S
C242 C236 1.428 . S
C242 N241 1.351 . S
C242 C243 1.434 . S
C243 C234 1.429 . S
C243 N240 1.350 . S
C243 C242 1.434 . S
C244 C245 1.369 . S
C244 C246 1.419 . S
C244 H248 0.930 . S
C245 C244 1.369 . S
C245 C254 1.429 . S
C246 C244 1.419 . S
C246 C247 1.363 . S
C246 H249 0.929 . S
C247 C246 1.363 . S
C247 C253 1.428 . S
H248 C244 0.930 . S
H249 C246 0.929 . S
S250 N251 1.613 . S
S250 N252 1.610 . S
N251 S250 1.613 . S
N251 C254 1.350 . S
N252 S250 1.610 . S
N252 C253 1.351 . S
C253 C247 1.428 . S
C253 N252 1.351 . S
C253 C254 1.434 . S
C254 C245 1.429 . S
C254 N251 1.350 . S
C254 C253 1.434 . S
C255 C256 1.369 . S
C255 C257 1.419 . S
C255 H259 0.930 . S
C256 C255 1.369 . S
C256 C265 1.429 . S
C257 C255 1.419 . S
C257 C258 1.363 . S
C257 H260 0.929 . S
C258 C257 1.363 . S
C258 C264 1.428 . S
H259 C255 0.930 . S
H260 C257 0.929 . S
S261 N262 1.613 . S
S261 N263 1.610 . S
N262 S261 1.613 . S
N262 C265 1.350 . S
N263 S261 1.610 . S
N263 C264 1.351 . S
C264 C258 1.428 . S
C264 N263 1.351 . S
C264 C265 1.434 . S
C265 C256 1.429 . S
C265 N262 1.350 . S
C265 C264 1.434 . S
C266 C267 1.369 . S
C266 C268 1.419 . S
C266 H270 0.930 . S
C267 C266 1.369 . S
C267 C276 1.429 . S
C268 C266 1.419 . S
C268 C269 1.363 . S
C268 H271 0.929 . S
C269 C268 1.363 . S
C269 C275 1.428 . S
H270 C266 0.930 . S
H271 C268 0.929 . S
S272 N273 1.613 . S
S272 N274 1.610 . S
N273 S272 1.613 . S
N273 C276 1.350 . S
N274 S272 1.610 . S
N274 C275 1.351 . S
C275 C269 1.428 . S
C275 N274 1.351 . S
C275 C276 1.434 . S
C276 C267 1.429 . S
C276 N273 1.350 . S
C276 C275 1.434 . S
C277 C278 1.369 . S
C277 C279 1.419 . S
C277 H281 0.930 . S
C278 C277 1.369 . S
C278 C287 1.429 . S
C279 C277 1.419 . S
C279 C280 1.363 . S
C279 H282 0.929 1_554 S
C280 C279 1.363 . S
C280 C286 1.428 . S
H281 C277 0.930 . S
H282 C279 0.929 1_556 S
S283 N284 1.613 . S
S283 N285 1.610 . S
N284 S283 1.613 . S
N284 C287 1.350 . S
N285 S283 1.610 . S
N285 C286 1.351 . S
C286 C280 1.428 . S
C286 N285 1.351 . S
C286 C287 1.434 . S
C287 C278 1.429 . S
C287 N284 1.350 . S
C287 C286 1.434 . S
C288 C289 1.369 . S
C288 C290 1.419 . S
C288 H292 0.930 . S
C289 C288 1.369 . S
C289 C298 1.429 . S
C290 C288 1.419 . S
C290 C291 1.363 . S
C290 H293 0.929 . S
C291 C290 1.363 . S
C291 C297 1.428 . S
H292 C288 0.930 . S
H293 C290 0.929 . S
S294 N295 1.613 . S
S294 N296 1.610 . S
N295 S294 1.613 . S
N295 C298 1.350 1_556 S
N296 S294 1.610 . S
N296 C297 1.351 1_556 S
C297 C291 1.428 . S
C297 N296 1.351 1_554 S
C297 C298 1.434 . S
C298 C289 1.429 . S
C298 N295 1.350 1_554 S
C298 C297 1.434 . S
C299 C300 1.369 . S
C299 C301 1.419 . S
C299 H303 0.930 . S
C300 C299 1.369 . S
C300 C309 1.429 . S
C301 C299 1.419 . S
C301 C302 1.363 . S
C301 H304 0.929 . S
C302 C301 1.363 . S
C302 C308 1.428 . S
H303 C299 0.930 . S
H304 C301 0.929 . S
S305 N306 1.613 . S
S305 N307 1.610 . S
N306 S305 1.613 . S
N306 C309 1.350 . S
N307 S305 1.610 . S
N307 C308 1.351 . S
C308 C302 1.428 . S
C308 N307 1.351 . S
C308 C309 1.434 . S
C309 C300 1.429 . S
C309 N306 1.350 . S
C309 C308 1.434 . S
C310 C311 1.369 . S
C310 C312 1.419 . S
C310 H314 0.930 . S
C311 C310 1.369 . S
C311 C320 1.429 . S
C312 C310 1.419 . S
C312 C313 1.363 . S
C312 H315 0.929 . S
C313 C312 1.363 . S
C313 C319 1.428 . S
H314 C310 0.930 . S
H315 C312 0.929 . S
S316 N317 1.613 . S
S316 N318 1.610 1_545 S
N317 S316 1.613 . S
N317 C320 1.350 1_545 S
N318 S316 1.610 1_565 S
N318 C319 1.351 . S
C319 C313 1.428 . S
C319 N318 1.351 . S
C319 C320 1.434 . S
C320 C311 1.429 . S
C320 N317 1.350 1_565 S
C320 C319 1.434 . S
C321 C322 1.369 . S
C321 C323 1.419 . S
C321 H325 0.930 . S
C322 C321 1.369 . S
C322 C331 1.429 1_554 S
C323 C321 1.419 . S
C323 C324 1.363 1_554 S
C323 H326 0.929 . S
C324 C323 1.363 1_556 S
C324 C330 1.428 . S
H325 C321 0.930 . S
H326 C323 0.929 . S
S327 N328 1.613 . S
S327 N329 1.610 . S
N328 S327 1.613 . S
N328 C331 1.350 . S
N329 S327 1.610 . S
N329 C330 1.351 . S
C330 C324 1.428 . S
C330 N329 1.351 . S
C330 C331 1.434 . S
C331 C322 1.429 1_556 S
C331 N328 1.350 . S
C331 C330 1.434 . S
C332 C333 1.369 . S
C332 C334 1.419 1_556 S
C332 H336 0.930 . S
C333 C332 1.369 . S
C333 C342 1.429 . S
C334 C332 1.419 1_554 S
C334 C335 1.363 1_554 S
C334 H337 0.929 . S
C335 C334 1.363 1_556 S
C335 C341 1.428 . S
H336 C332 0.930 . S
H337 C334 0.929 . S
S338 N339 1.613 . S
S338 N340 1.610 . S
N339 S338 1.613 . S
N339 C342 1.350 . S
N340 S338 1.610 . S
N340 C341 1.351 . S
C341 C335 1.428 . S
C341 N340 1.351 . S
C341 C342 1.434 . S
C342 C333 1.429 . S
C342 N339 1.350 . S
C342 C341 1.434 . S
C343 C344 1.369 . S
C343 C345 1.419 . S
C343 H347 0.930 . S
C344 C343 1.369 . S
C344 C353 1.429 . S
C345 C343 1.419 . S
C345 C346 1.363 . S
C345 H348 0.929 1_556 S
C346 C345 1.363 . S
C346 C352 1.428 . S
H347 C343 0.930 . S
H348 C345 0.929 1_554 S
S349 N350 1.613 . S
S349 N351 1.610 . S
N350 S349 1.613 . S
N350 C353 1.350 . S
N351 S349 1.610 . S
N351 C352 1.351 . S
C352 C346 1.428 . S
C352 N351 1.351 . S
C352 C353 1.434 . S
C353 C344 1.429 . S
C353 N350 1.350 . S
C353 C352 1.434 . S
C354 C355 1.369 . S
C354 C356 1.419 . S
C354 H358 0.930 . S
C355 C354 1.369 . S
C355 C364 1.429 . S
C356 C354 1.419 . S
C356 C357 1.363 . S
C356 H359 0.929 . S
C357 C356 1.363 . S
C357 C363 1.428 . S
H358 C354 0.930 . S
H359 C356 0.929 . S
S360 N361 1.613 1_554 S
S360 N362 1.610 . S
N361 S360 1.613 1_556 S
N361 C364 1.350 . S
N362 S360 1.610 . S
N362 C363 1.351 1_554 S
C363 C357 1.428 . S
C363 N362 1.351 1_556 S
C363 C364 1.434 . S
C364 C355 1.429 . S
C364 N361 1.350 . S
C364 C363 1.434 . S
C365 C366 1.369 1_556 S
C365 C367 1.419 . S
C365 H369 0.930 . S
C366 C365 1.369 1_554 S
C366 C375 1.429 . S
C367 C365 1.419 . S
C367 C368 1.363 . S
C367 H370 0.929 . S
C368 C367 1.363 . S
C368 C374 1.428 . S
H369 C365 0.930 . S
H370 C367 0.929 . S
S371 N372 1.613 . S
S371 N373 1.610 . S
N372 S371 1.613 . S
N372 C375 1.350 . S
N373 S371 1.610 . S
N373 C374 1.351 1_554 S
C374 C368 1.428 . S
C374 N373 1.351 1_556 S
C374 C375 1.434 1_556 S
C375 C366 1.429 . S
C375 N372 1.350 . S
C375 C374 1.434 1_554 S
C376 C377 1.369 . S
C376 C378 1.419 . S
C376 H380 0.930 . S
C377 C376 1.369 . S
C377 C386 1.429 . S
C378 C376 1.419 . S
C378 C379 1.363 . S
C378 H381 0.929 . S
C379 C378 1.363 . S
C379 C385 1.428 1_556 S
H380 C376 0.930 . S
H381 C378 0.929 . S
S382 N383 1.613 1_554 S
S382 N384 1.610 . S
N383 S382 1.613 1_556 S
N383 C386 1.350 . S
N384 S382 1.610 . S
N384 C385 1.351 . S
C385 C379 1.428 1_554 S
C385 N384 1.351 . S
C385 C386 1.434 1_554 S
C386 C377 1.429 . S
C386 N383 1.350 . S
C386 C385 1.434 1_556 S
C387 C388 1.369 . S
C387 C389 1.419 . S
C387 H391 0.930 . S
C388 C387 1.369 . S
C388 C397 1.429 . S
C389 C387 1.419 . S
C389 C390 1.363 . S
C389 H392 0.929 . S
C390 C389 1.363 . S
C390 C396 1.428 . S
H391 C387 0.930 . S
H392 C389 0.929 . S
S393 N394 1.613 . S
S393 N395 1.610 . S
N394 S393 1.613 . S
N394 C397 1.350 . S
N395 S393 1.610 . S
N395 C396 1.351 . S
C396 C390 1.428 . S
C396 N395 1.351 . S
C396 C397 1.434 . S
C397 C388 1.429 . S
C397 N394 1.350 . S
C397 C396 1.434 . S
C398 C399 1.369 . S
C398 C400 1.419 . S
C398 H402 0.930 . S
C399 C398 1.369 . S
C399 C408 1.429 . S
C400 C398 1.419 . S
C400 C401 1.363 . S
C400 H403 0.929 1_554 S
C401 C400 1.363 . S
C401 C407 1.428 . S
H402 C398 0.930 . S
H403 C400 0.929 1_556 S
S404 N405 1.613 . S
S404 N406 1.610 . S
N405 S404 1.613 . S
N405 C408 1.350 . S
N406 S404 1.610 . S
N406 C407 1.351 . S
C407 C401 1.428 . S
C407 N406 1.351 . S
C407 C408 1.434 . S
C408 C399 1.429 . S
C408 N405 1.350 . S
C408 C407 1.434 . S
C409 C410 1.369 . S
C409 C411 1.419 . S
C409 H413 0.930 . S
C410 C409 1.369 . S
C410 C419 1.429 . S
C411 C409 1.419 . S
C411 C412 1.363 . S
C411 H414 0.929 . S
C412 C411 1.363 . S
C412 C418 1.428 . S
H413 C409 0.930 . S
H414 C411 0.929 . S
S415 N416 1.613 . S
S415 N417 1.610 1_556 S
N416 S415 1.613 . S
N416 C419 1.350 1_556 S
N417 S415 1.610 1_554 S
N417 C418 1.351 . S
C418 C412 1.428 . S
C418 N417 1.351 . S
C418 C419 1.434 . S
C419 C410 1.429 . S
C419 N416 1.350 1_554 S
C419 C418 1.434 . S
C420 C421 1.369 . S
C420 C422 1.419 . S
C420 H424 0.930 . S
C421 C420 1.369 . S
C421 C430 1.429 . S
C422 C420 1.419 . S
C422 C423 1.363 . S
C422 H425 0.929 . S
C423 C422 1.363 . S
C423 C429 1.428 . S
H424 C420 0.930 . S
H425 C422 0.929 . S
S426 N427 1.613 . S
S426 N428 1.610 . S
N427 S426 1.613 . S
N427 C430 1.350 . S
N428 S426 1.610 . S
N428 C429 1.351 . S
C429 C423 1.428 . S
C429 N428 1.351 . S
C429 C430 1.434 . S
C430 C421 1.429 . S
C430 N427 1.350 . S
C430 C429 1.434 . S
C431 C432 1.369 . S
C431 C433 1.419 1_545 S
C431 H435 0.928 1_545 S
C432 C431 1.369 . S
C432 C441 1.429 . S
C433 C431 1.419 1_565 S
C433 C434 1.363 . S
C433 H436 0.929 . S
C434 C433 1.363 . S
C434 C440 1.428 1_565 S
H435 C431 0.928 1_565 S
H436 C433 0.929 . S
S437 N438 1.613 . S
S437 N439 1.610 . S
N438 S437 1.613 . S
N438 C441 1.350 . S
N439 S437 1.610 . S
N439 C440 1.351 . S
C440 C434 1.428 1_545 S
C440 N439 1.351 . S
C440 C441 1.434 . S
C441 C432 1.429 . S
C441 N438 1.350 . S
C441 C440 1.434 . S
C442 C443 1.369 1_455 S
C442 C444 1.419 . S
C442 H446 0.930 . S
C443 C442 1.369 1_655 S
C443 C452 1.429 . S
C444 C442 1.419 . S
C444 C445 1.363 . S
C444 H447 0.929 . S
C445 C444 1.363 . S
C445 C451 1.428 . S
H446 C442 0.930 . S
H447 C444 0.929 . S
S448 N449 1.613 . S
S448 N450 1.610 1_655 S
N449 S448 1.613 . S
N449 C452 1.350 . S
N450 S448 1.610 1_455 S
N450 C451 1.351 . S
C451 C445 1.428 . S
C451 N450 1.351 . S
C451 C452 1.434 1_455 S
C452 C443 1.429 . S
C452 N449 1.350 . S
C452 C451 1.434 1_655 S
C453 C454 1.369 . S
C453 C455 1.419 . S
C453 H457 0.930 . S
C454 C453 1.369 . S
C454 C463 1.429 . S
C455 C453 1.419 . S
C455 C456 1.363 . S
C455 H458 0.929 . S
C456 C455 1.363 . S
C456 C462 1.428 . S
H457 C453 0.930 . S
H458 C455 0.929 . S
S459 N460 1.613 . S
S459 N461 1.610 . S
N460 S459 1.613 . S
N460 C463 1.350 . S
N461 S459 1.610 . S
N461 C462 1.351 . S
C462 C456 1.428 . S
C462 N461 1.351 . S
C462 C463 1.434 . S
C463 C454 1.429 . S
C463 N460 1.350 . S
C463 C462 1.434 . S
C464 C465 1.369 . S
C464 C466 1.419 1_565 S
C464 H468 0.930 . S
C465 C464 1.369 . S
C465 C474 1.429 1_565 S
C466 C464 1.419 1_545 S
C466 C467 1.363 . S
C466 H469 0.929 . S
C467 C466 1.363 . S
C467 C473 1.428 . S
H468 C464 0.930 . S
H469 C466 0.929 . S
S470 N471 1.613 . S
S470 N472 1.610 . S
N471 S470 1.613 . S
N471 C474 1.350 . S
N472 S470 1.610 . S
N472 C473 1.351 . S
C473 C467 1.428 . S
C473 N472 1.351 . S
C473 C474 1.434 . S
C474 C465 1.429 1_545 S
C474 N471 1.350 . S
C474 C473 1.434 . S
C475 C476 1.369 1_455 S
C475 C477 1.419 . S
C475 H479 0.930 . S
C476 C475 1.369 1_655 S
C476 C485 1.429 1_655 S
C477 C475 1.419 . S
C477 C478 1.363 . S
C477 H480 0.929 . S
C478 C477 1.363 . S
C478 C484 1.428 . S
H479 C475 0.930 . S
H480 C477 0.929 . S
S481 N482 1.613 . S
S481 N483 1.610 1_655 S
N482 S481 1.613 . S
N482 C485 1.350 1_655 S
N483 S481 1.610 1_455 S
N483 C484 1.351 . S
C484 C478 1.428 . S
C484 N483 1.351 . S
C484 C485 1.434 . S
C485 C476 1.429 1_455 S
C485 N482 1.350 1_455 S
C485 C484 1.434 . S
C190 C15 1.098 . S
C192 C18 1.119 . S
C201 C39 1.134 . S
C203 C36 1.117 . S
C212 C57 1.133 . S
C214 C60 1.120 . S
C223 C78 1.053 . S
C225 C81 1.075 . S
C234 C99 1.106 . S
C236 C102 1.123 . S
C245 C120 1.140 . S
C247 C123 1.154 1_556 S
C256 C140 1.051 . S
C258 C142 1.038 . S
C267 C163 1.072 . S
C269 C161 1.097 1_554 S
C278 C182 1.138 . S
C280 C184 1.113 1_554 S
C289 C119 1.508 . S
C291 C14 1.500 . S
C300 C34 1.404 . S
C302 C77 1.387 . S
C311 C56 1.478 . S
C313 C98 1.485 . S
C322 C55 1.172 . S
C324 C143 1.269 . S
C333 C165 1.174 . S
C335 C13 1.113 . S
C344 C185 1.422 . S
C346 C35 1.512 1_556 S
C355 C183 1.335 . S
C357 C16 1.444 1_556 S
C366 C38 1.147 . S
C368 C141 1.188 . S
C377 C160 1.257 . S
C379 C58 1.375 1_556 S
C388 C59 1.448 . S
C390 C80 1.459 . S
C399 C101 1.412 . S
C401 C17 1.406 . S
C410 C37 1.690 . S
C412 C122 1.553 . S
C421 C186 1.360 . S
C423 C76 1.195 . S
C432 C144 1.328 . S
C434 C97 1.215 . S
C443 C164 1.317 . S
C445 C118 1.252 . S
C454 C139 1.176 . S
C456 C121 1.292 . S
C465 C79 1.357 . S
C467 C162 1.260 . S
C476 C181 1.187 . S
C478 C100 1.259 . S
