# Generated by pormake.
# Topology whh, (6)-cn, num edge types: 1
# Building blocks:
#     Node 0, Type 0, BuildingBlock: MIFKUJ_clean_sbu_0, # of connection points: 6
#     Node 1, Type 0, BuildingBlock: MIFKUJ_clean_sbu_0, # of connection points: 6
#     Node 2, Type 0, BuildingBlock: MIFKUJ_clean_sbu_0, # of connection points: 6
#     Node 3, Type 0, BuildingBlock: MIFKUJ_clean_sbu_0, # of connection points: 6
#     Node 4, Type 0, BuildingBlock: MIFKUJ_clean_sbu_0, # of connection points: 6
#     Node 5, Type 0, BuildingBlock: MIFKUJ_clean_sbu_0, # of connection points: 6
#     Node 6, Type 0, BuildingBlock: MIFKUJ_clean_sbu_0, # of connection points: 6
#     Node 7, Type 0, BuildingBlock: MIFKUJ_clean_sbu_0, # of connection points: 6
#     Node 8, Type 0, BuildingBlock: MIFKUJ_clean_sbu_0, # of connection points: 6
#     Node 9, Type 0, BuildingBlock: MIFKUJ_clean_sbu_0, # of connection points: 6
#     Node 10, Type 0, BuildingBlock: MIFKUJ_clean_sbu_0, # of connection points: 6
#     Node 11, Type 0, BuildingBlock: MIFKUJ_clean_sbu_0, # of connection points: 6
#     Node 12, Type 0, BuildingBlock: MIFKUJ_clean_sbu_0, # of connection points: 6
#     Node 13, Type 0, BuildingBlock: MIFKUJ_clean_sbu_0, # of connection points: 6
#     Node 14, Type 0, BuildingBlock: MIFKUJ_clean_sbu_0, # of connection points: 6
#     Node 15, Type 0, BuildingBlock: MIFKUJ_clean_sbu_0, # of connection points: 6
#     Edge 16, Type (0, 0), BuildingBlock: ZUJKAS_clean_linker_0, # of connection points: 2
#     Edge 17, Type (0, 0), BuildingBlock: ZUJKAS_clean_linker_0, # of connection points: 2
#     Edge 18, Type (0, 0), BuildingBlock: ZUJKAS_clean_linker_0, # of connection points: 2
#     Edge 19, Type (0, 0), BuildingBlock: ZUJKAS_clean_linker_0, # of connection points: 2
#     Edge 20, Type (0, 0), BuildingBlock: ZUJKAS_clean_linker_0, # of connection points: 2
#     Edge 21, Type (0, 0), BuildingBlock: ZUJKAS_clean_linker_0, # of connection points: 2
#     Edge 22, Type (0, 0), BuildingBlock: ZUJKAS_clean_linker_0, # of connection points: 2
#     Edge 23, Type (0, 0), BuildingBlock: ZUJKAS_clean_linker_0, # of connection points: 2
#     Edge 24, Type (0, 0), BuildingBlock: ZUJKAS_clean_linker_0, # of connection points: 2
#     Edge 25, Type (0, 0), BuildingBlock: ZUJKAS_clean_linker_0, # of connection points: 2
#     Edge 26, Type (0, 0), BuildingBlock: ZUJKAS_clean_linker_0, # of connection points: 2
#     Edge 27, Type (0, 0), BuildingBlock: ZUJKAS_clean_linker_0, # of connection points: 2
#     Edge 28, Type (0, 0), BuildingBlock: ZUJKAS_clean_linker_0, # of connection points: 2
#     Edge 29, Type (0, 0), BuildingBlock: ZUJKAS_clean_linker_0, # of connection points: 2
#     Edge 30, Type (0, 0), BuildingBlock: ZUJKAS_clean_linker_0, # of connection points: 2
#     Edge 31, Type (0, 0), BuildingBlock: ZUJKAS_clean_linker_0, # of connection points: 2
#     Edge 32, Type (0, 0), BuildingBlock: ZUJKAS_clean_linker_0, # of connection points: 2
#     Edge 33, Type (0, 0), BuildingBlock: ZUJKAS_clean_linker_0, # of connection points: 2
#     Edge 34, Type (0, 0), BuildingBlock: ZUJKAS_clean_linker_0, # of connection points: 2
#     Edge 35, Type (0, 0), BuildingBlock: ZUJKAS_clean_linker_0, # of connection points: 2
#     Edge 36, Type (0, 0), BuildingBlock: ZUJKAS_clean_linker_0, # of connection points: 2
#     Edge 37, Type (0, 0), BuildingBlock: ZUJKAS_clean_linker_0, # of connection points: 2
#     Edge 38, Type (0, 0), BuildingBlock: ZUJKAS_clean_linker_0, # of connection points: 2
#     Edge 39, Type (0, 0), BuildingBlock: ZUJKAS_clean_linker_0, # of connection points: 2
#     Edge 40, Type (0, 0), BuildingBlock: ZUJKAS_clean_linker_0, # of connection points: 2
#     Edge 41, Type (0, 0), BuildingBlock: ZUJKAS_clean_linker_0, # of connection points: 2
#     Edge 42, Type (0, 0), BuildingBlock: ZUJKAS_clean_linker_0, # of connection points: 2
#     Edge 43, Type (0, 0), BuildingBlock: ZUJKAS_clean_linker_0, # of connection points: 2
#     Edge 44, Type (0, 0), BuildingBlock: ZUJKAS_clean_linker_0, # of connection points: 2
#     Edge 45, Type (0, 0), BuildingBlock: ZUJKAS_clean_linker_0, # of connection points: 2
#     Edge 46, Type (0, 0), BuildingBlock: ZUJKAS_clean_linker_0, # of connection points: 2
#     Edge 47, Type (0, 0), BuildingBlock: ZUJKAS_clean_linker_0, # of connection points: 2
#     Edge 48, Type (0, 0), BuildingBlock: ZUJKAS_clean_linker_0, # of connection points: 2
#     Edge 49, Type (0, 0), BuildingBlock: ZUJKAS_clean_linker_0, # of connection points: 2
#     Edge 50, Type (0, 0), BuildingBlock: ZUJKAS_clean_linker_0, # of connection points: 2
#     Edge 51, Type (0, 0), BuildingBlock: ZUJKAS_clean_linker_0, # of connection points: 2
#     Edge 52, Type (0, 0), BuildingBlock: ZUJKAS_clean_linker_0, # of connection points: 2
#     Edge 53, Type (0, 0), BuildingBlock: ZUJKAS_clean_linker_0, # of connection points: 2
#     Edge 54, Type (0, 0), BuildingBlock: ZUJKAS_clean_linker_0, # of connection points: 2
#     Edge 55, Type (0, 0), BuildingBlock: ZUJKAS_clean_linker_0, # of connection points: 2
#     Edge 56, Type (0, 0), BuildingBlock: ZUJKAS_clean_linker_0, # of connection points: 2
#     Edge 57, Type (0, 0), BuildingBlock: ZUJKAS_clean_linker_0, # of connection points: 2
#     Edge 58, Type (0, 0), BuildingBlock: ZUJKAS_clean_linker_0, # of connection points: 2
#     Edge 59, Type (0, 0), BuildingBlock: ZUJKAS_clean_linker_0, # of connection points: 2
#     Edge 60, Type (0, 0), BuildingBlock: ZUJKAS_clean_linker_0, # of connection points: 2
#     Edge 61, Type (0, 0), BuildingBlock: ZUJKAS_clean_linker_0, # of connection points: 2
#     Edge 62, Type (0, 0), BuildingBlock: ZUJKAS_clean_linker_0, # of connection points: 2
#     Edge 63, Type (0, 0), BuildingBlock: ZUJKAS_clean_linker_0, # of connection points: 2
# Relax obj value: 0.462
# Max RMSD: 0.305
# Mean RMSD: 0.288
data_MOF--net-whh--node1-MIFKUJ_clean_sbu_0--edge1-ZUJKAS_clean_linker_0
_symmetry_space_group_name_H-M    P1
_symmetry_Int_Tables_number       1
_symmetry_cell_setting            triclinic
loop_
_symmetry_equiv_pos_as_xyz
'x, y, z'
_cell_length_a     46.487774
_cell_length_b     46.486739
_cell_length_c     56.587053
_cell_angle_alpha  92.67801
_cell_angle_beta   87.133434
_cell_angle_gamma 89.851437
loop_
_atom_site_label
_atom_site_type_symbol
_atom_site_fract_x
_atom_site_fract_y
_atom_site_fract_z
_atom_type_partial_charge
Zn0 Zn 0.08388 0.63167 0.10541 0.0
Zn1 Zn 0.02341 0.60408 0.11154 0.0
C2 C 0.06472 0.68186 0.08087 0.0
O3 O 0.09006 0.68008 0.06951 0.0
C4 C 0.04084 0.56437 0.14429 0.0
O5 O 0.02393 0.58149 0.15791 0.0
O6 O 0.12415 0.64766 0.1031 0.0
O7 O 0.07355 0.62738 0.13999 0.0
O8 O 0.02745 0.63633 0.13596 0.0
C9 C 0.12845 0.66907 0.11731 0.0
O10 O 0.1073 0.6781 0.1321 0.0
O11 O 0.05782 0.66338 0.09594 0.0
C12 C 0.97627 0.5663 0.10368 0.0
O13 O 0.99781 0.54876 0.0975 0.0
O14 O 0.98166 0.59216 0.11039 0.0
O15 O 0.03725 0.61326 0.07878 0.0
O16 O 0.07984 0.59592 0.08399 0.0
O17 O 0.04476 0.56942 0.1225 0.0
C18 C 0.04971 0.63825 0.14814 0.0
C19 C 0.05776 0.59658 0.07169 0.0
Zn20 Zn 0.87337 0.06344 0.11848 0.0
Zn21 Zn 0.89397 0.0011 0.11642 0.0
C22 C 0.8232 0.04976 0.09025 0.0
O23 O 0.82577 0.07605 0.08288 0.0
C24 C 0.93544 0.99411 0.14934 0.0
O25 O 0.9204 0.97027 0.15005 0.0
O26 O 0.85944 0.1047 0.12032 0.0
O27 O 0.87479 0.04935 0.15156 0.0
O28 O 0.86015 0.0064 0.1392 0.0
C29 C 0.83963 0.11265 0.13555 0.0
O30 O 0.82956 0.09416 0.15071 0.0
O31 O 0.84132 0.04047 0.10416 0.0
C32 C 0.92085 0.95278 0.09322 0.0
O33 O 0.93643 0.97388 0.08479 0.0
O34 O 0.89951 0.95888 0.10753 0.0
O35 O 0.89226 0.01905 0.08509 0.0
O36 O 0.90958 0.06055 0.09706 0.0
O37 O 0.92867 0.01314 0.1351 0.0
C38 C 0.86065 0.02641 0.15529 0.0
C39 C 0.90791 0.04067 0.08108 0.0
Zn40 Zn 0.44101 0.86125 0.11194 0.0
Zn41 Zn 0.50374 0.87873 0.11325 0.0
C42 C 0.45183 0.81129 0.07863 0.0
O43 O 0.42422 0.81244 0.07482 0.0
C44 C 0.50624 0.90751 0.1564 0.0
O45 O 0.52541 0.88667 0.15634 0.0
O46 O 0.39949 0.84846 0.11308 0.0
O47 O 0.45592 0.85718 0.1445 0.0
O48 O 0.49779 0.84129 0.12911 0.0
C49 C 0.39338 0.8265 0.12494 0.0
O50 O 0.41367 0.81458 0.13659 0.0
O51 O 0.46285 0.83068 0.09186 0.0
C52 C 0.55043 0.91042 0.09732 0.0
O53 O 0.5282 0.92691 0.09379 0.0
O54 O 0.54595 0.88608 0.1062 0.0
O55 O 0.48593 0.88324 0.08207 0.0
O56 O 0.44485 0.90008 0.0973 0.0
O57 O 0.49185 0.91003 0.13805 0.0
C58 C 0.47783 0.84079 0.14533 0.0
C59 C 0.46515 0.9008 0.0815 0.0
Zn60 Zn 0.62073 0.49368 0.11001 0.0
Zn61 Zn 0.65961 0.43456 0.13043 0.0
C62 C 0.61227 0.4809 0.06101 0.0
O63 O 0.63249 0.50035 0.05838 0.0
C64 C 0.67254 0.4575 0.17774 0.0
O65 O 0.64752 0.44662 0.18427 0.0
O66 O 0.60534 0.53372 0.10747 0.0
O67 O 0.60186 0.47827 0.13924 0.0
O68 O 0.61746 0.43336 0.14206 0.0
C69 C 0.57919 0.53694 0.10255 0.0
O70 O 0.56272 0.51411 0.1005 0.0
O71 O 0.60612 0.47208 0.08156 0.0
C72 C 0.70195 0.39044 0.13354 0.0
O73 O 0.71744 0.41313 0.13906 0.0
O74 O 0.67577 0.39389 0.12864 0.0
O75 O 0.67174 0.45214 0.09961 0.0
O76 O 0.66335 0.49756 0.10939 0.0
O77 O 0.68099 0.45584 0.156 0.0
C78 C 0.59969 0.45366 0.14807 0.0
C79 C 0.68072 0.47786 0.10173 0.0
Zn80 Zn 0.07653 0.85029 0.38857 0.0
Zn81 Zn 0.01271 0.86832 0.3872 0.0
C82 C 0.06849 0.8002 0.41765 0.0
O83 O 0.09444 0.80612 0.42464 0.0
C84 C 0.01459 0.89917 0.34693 0.0
O85 O 0.99627 0.87821 0.34301 0.0
O86 O 0.11875 0.83953 0.38627 0.0
O87 O 0.06242 0.84813 0.35553 0.0
O88 O 0.01997 0.83174 0.36758 0.0
C89 C 0.12561 0.81771 0.37273 0.0
O90 O 0.10555 0.80481 0.36065 0.0
O91 O 0.05649 0.81724 0.40422 0.0
C92 C 0.9649 0.90095 0.40318 0.0
O93 O 0.98667 0.91732 0.40902 0.0
O94 O 0.97017 0.87634 0.39306 0.0
O95 O 0.02905 0.86929 0.4193 0.0
O96 O 0.07007 0.88783 0.40755 0.0
O97 O 0.0265 0.90092 0.36672 0.0
C98 C 0.04108 0.83152 0.35234 0.0
C99 C 0.04888 0.88742 0.42255 0.0
Zn100 Zn 0.64604 0.06882 0.3854 0.0
Zn101 Zn 0.61872 0.00982 0.38879 0.0
C102 C 0.6978 0.05325 0.41007 0.0
O103 O 0.69907 0.08077 0.41633 0.0
C104 C 0.55998 0.01682 0.37291 0.0
O105 O 0.5529 -0.00198 0.38878 0.0
O106 O 0.6639 0.10765 0.38072 0.0
O107 O 0.63873 0.05128 0.35324 0.0
O108 O 0.65211 0.00911 0.36491 0.0
C109 C 0.68417 0.10904 0.36488 0.0
O110 O 0.69191 0.08561 0.35228 0.0
O111 O 0.67692 0.04403 0.39826 0.0
C112 C 0.59527 0.96236 0.41457 0.0
O113 O 0.58812 0.98307 0.43037 0.0
O114 O 0.60886 0.9686 0.39543 0.0
O115 O 0.62389 0.03073 0.42024 0.0
O116 O 0.61152 0.07281 0.40817 0.0
O117 O 0.58565 0.02621 0.37156 0.0
C118 C 0.65176 0.0274 0.34889 0.0
C119 C 0.61068 0.05451 0.42411 0.0
Zn120 Zn 0.44677 0.63847 0.37484 0.0
Zn121 Zn 0.50775 0.61579 0.37024 0.0
C122 C 0.463 0.68655 0.40663 0.0
O123 O 0.43952 0.68022 0.41919 0.0
C124 C 0.49457 0.55534 0.35854 0.0
O125 O 0.50681 0.55022 0.37835 0.0
O126 O 0.40593 0.65337 0.37646 0.0
O127 O 0.45984 0.63385 0.3404 0.0
O128 O 0.50317 0.64865 0.34895 0.0
C129 C 0.40074 0.67454 0.36385 0.0
O130 O 0.42162 0.68458 0.35009 0.0
O131 O 0.47013 0.67125 0.38808 0.0
C132 C 0.55966 0.59437 0.38898 0.0
O133 O 0.54193 0.58998 0.40722 0.0
O134 O 0.55021 0.60636 0.37114 0.0
O135 O 0.49192 0.62021 0.40397 0.0
O136 O 0.44944 0.60407 0.39517 0.0
O137 O 0.49101 0.58127 0.35303 0.0
C138 C 0.48275 0.64739 0.33478 0.0
C139 C 0.46984 0.60545 0.40928 0.0
Zn140 Zn 0.88106 0.41586 0.3629 0.0
Zn141 Zn 0.95423 0.46595 0.3499 0.0
C142 C 0.82798 0.4409 0.38267 0.0
O143 O 0.8312 0.42185 0.39878 0.0
C144 C 0.98911 0.4242 0.32014 0.0
O145 O 0.96644 0.40744 0.32139 0.0
O146 O 0.86667 0.37551 0.35662 0.0
O147 O 0.90822 0.43029 0.3366 0.0
O148 O 0.92395 0.47243 0.32617 0.0
C149 C 0.84403 0.37137 0.34523 0.0
O150 O 0.83128 0.39342 0.33645 0.0
O151 O 0.84699 0.44257 0.3659 0.0
C152 C 0.99017 0.50927 0.37168 0.0
O153 O 0.01047 0.48988 0.36675 0.0
O154 O 0.96457 0.50376 0.36604 0.0
O155 O 0.93262 0.44212 0.37304 0.0
O156 O 0.90221 0.41812 0.3943 0.0
O157 O 0.98882 0.4479 0.33231 0.0
C158 C 0.90447 0.4532 0.32562 0.0
C159 C 0.92547 0.43244 0.39292 0.0
Zn160 Zn 0.97755 0.39059 0.88413 0.0
Zn161 Zn 0.91769 0.36492 0.88202 0.0
C162 C 0.9676 0.45055 0.87122 0.0
O163 O 0.98565 0.45788 0.88754 0.0
C164 C 0.93401 0.31121 0.90421 0.0
O165 O 0.90781 0.31133 0.91406 0.0
O166 O 0.01883 0.40147 0.88986 0.0
O167 O 0.95905 0.3814 0.91582 0.0
O168 O 0.91655 0.39699 0.90731 0.0
C169 C 0.02435 0.41538 0.909 0.0
O170 O 0.00324 0.4214 0.92476 0.0
O171 O 0.95958 0.42448 0.86896 0.0
C172 C 0.87534 0.3259 0.86577 0.0
O173 O 0.89858 0.31416 0.85514 0.0
O174 O 0.87776 0.34905 0.8784 0.0
O175 O 0.93412 0.37358 0.84971 0.0
O176 O 0.97699 0.35894 0.85901 0.0
O177 O 0.94201 0.33188 0.8916 0.0
C178 C 0.93546 0.39369 0.92235 0.0
C179 C 0.95749 0.36004 0.84406 0.0
Zn180 Zn 0.10673 0.99271 0.84276 0.0
Zn181 Zn 0.12908 0.9317 0.84918 0.0
C182 C 0.06919 0.98754 0.80755 0.0
O183 O 0.08905 0.00582 0.80063 0.0
C184 C 0.17446 0.95534 0.87799 0.0
O185 O 0.16545 0.93604 0.89288 0.0
O186 O 0.09888 0.03545 0.84666 0.0
O187 O 0.11152 0.98191 0.87623 0.0
O188 O 0.0947 0.93823 0.87211 0.0
C189 C 0.07663 0.04009 0.86038 0.0
O190 O 0.06298 0.01791 0.86907 0.0
O191 O 0.07068 0.97705 0.82785 0.0
C192 C 0.16895 0.88507 0.84356 0.0
O193 O 0.18374 0.90487 0.83247 0.0
O194 O 0.14366 0.89114 0.85196 0.0
O195 O 0.12333 0.93815 0.8149 0.0
O196 O 0.13889 0.98285 0.81859 0.0
O197 O 0.16192 0.9575 0.85871 0.0
C198 C 0.09699 0.96142 0.88455 0.0
C199 C 0.13524 0.95996 0.80583 0.0
Zn200 Zn 0.49378 0.12641 0.88098 0.0
Zn201 Zn 0.55522 0.14745 0.88063 0.0
C202 C 0.50871 0.06537 0.872 0.0
O203 O 0.49521 0.06174 0.89258 0.0
C204 C 0.54101 0.20564 0.90174 0.0
O205 O 0.56804 0.20758 0.90734 0.0
O206 O 0.45123 0.11752 0.88396 0.0
O207 O 0.50763 0.1336 0.91372 0.0
O208 O 0.55023 0.11552 0.9036 0.0
C209 C 0.44018 0.10613 0.90229 0.0
O210 O 0.4564 0.10176 0.92013 0.0
O211 O 0.51195 0.09072 0.86481 0.0
C212 C 0.60262 0.18024 0.8642 0.0
O213 O 0.58195 0.19053 0.85196 0.0
O214 O 0.59674 0.16016 0.87817 0.0
O215 O 0.54257 0.14048 0.84716 0.0
O216 O 0.49967 0.15784 0.85828 0.0
O217 O 0.53186 0.18217 0.89259 0.0
C218 C 0.52916 0.11867 0.91871 0.0
C219 C 0.52047 0.15524 0.84286 0.0
Zn220 Zn 0.33405 0.56418 0.86985 0.0
Zn221 Zn 0.35442 0.50288 0.85963 0.0
C222 C 0.30585 0.57088 0.8267 0.0
O223 O 0.32332 0.593 0.82553 0.0
C224 C 0.38602 0.49093 0.89866 0.0
O225 O 0.37003 0.46783 0.8963 0.0
O226 O 0.32391 0.60587 0.87792 0.0
O227 O 0.31934 0.54043 0.89726 0.0
O228 O 0.31477 0.50168 0.87382 0.0
C229 C 0.29736 0.61138 0.88255 0.0
O230 O 0.27922 0.58984 0.88405 0.0
O231 O 0.30749 0.55419 0.84373 0.0
C232 C 0.39204 0.45873 0.84192 0.0
O233 O 0.40836 0.48138 0.83861 0.0
O234 O 0.36576 0.46261 0.84863 0.0
O235 O 0.36121 0.52737 0.83202 0.0
O236 O 0.37556 0.56245 0.85572 0.0
O237 O 0.38226 0.51183 0.88538 0.0
C238 C 0.30677 0.51674 0.89227 0.0
C239 C 0.37736 0.54883 0.83568 0.0
Zn240 Zn 0.97611 0.12491 0.60675 0.0
Zn241 Zn 0.91483 0.15277 0.60762 0.0
C242 C 0.9371 0.07822 0.62886 0.0
O243 O 0.91318 0.09256 0.62637 0.0
C244 C 0.929 0.20299 0.58112 0.0
O245 O 0.90476 0.19682 0.57107 0.0
O246 O 0.01815 0.11554 0.60066 0.0
O247 O 0.96113 0.13339 0.57524 0.0
O248 O 0.91741 0.1189 0.58374 0.0
C249 C 0.02392 0.09373 0.5868 0.0
O250 O 0.0027 0.08041 0.57643 0.0
O251 O 0.96115 0.08832 0.62141 0.0
C252 C 0.8709 0.19123 0.62355 0.0
O253 O 0.89314 0.20188 0.63438 0.0
O254 O 0.87422 0.16815 0.61071 0.0
O255 O 0.92715 0.14766 0.64082 0.0
O256 O 0.97262 0.15686 0.63143 0.0
O257 O 0.93843 0.18602 0.59593 0.0
C258 C 0.9391 0.1195 0.56926 0.0
C259 C 0.95118 0.15845 0.64625 0.0
Zn260 Zn 0.40334 0.97798 0.63643 0.0
Zn261 Zn 0.34813 0.9245 0.59814 0.0
C262 C 0.43093 0.94049 0.66892 0.0
O263 O 0.40665 0.9261 0.66888 0.0
C264 C 0.29244 0.94031 0.5813 0.0
O265 O 0.29367 0.91456 0.57068 0.0
O266 O 0.41309 0.01942 0.63188 0.0
O267 O 0.39723 0.95921 0.60417 0.0
O268 O 0.38056 0.93477 0.57403 0.0
C269 C 0.43914 0.02488 0.62587 0.0
O270 O 0.45784 0.00358 0.62338 0.0
O271 O 0.43452 0.96113 0.65513 0.0
C272 C 0.34137 0.86491 0.61146 0.0
O273 O 0.3576 0.87271 0.62898 0.0
O274 O 0.33624 0.88288 0.59594 0.0
O275 O 0.36162 0.93684 0.63034 0.0
O276 O 0.36485 0.97442 0.65441 0.0
O277 O 0.31351 0.94915 0.59305 0.0
C278 C 0.39883 0.95254 0.5822 0.0
C279 C 0.34943 0.95456 0.64544 0.0
Zn280 Zn 0.48508 0.37696 0.61895 0.0
Zn281 Zn 0.55118 0.36332 0.61226 0.0
C282 C 0.51287 0.42758 0.64641 0.0
O283 O 0.53899 0.41966 0.63892 0.0
C284 C 0.54822 0.30614 0.58916 0.0
O285 O 0.57646 0.30751 0.58848 0.0
O286 O 0.44203 0.37634 0.61662 0.0
O287 O 0.50048 0.38074 0.58549 0.0
O288 O 0.54291 0.39818 0.59351 0.0
C289 C 0.43172 0.39745 0.60626 0.0
O290 O 0.44951 0.41666 0.59758 0.0
O291 O 0.4912 0.41312 0.63985 0.0
C292 C 0.60797 0.35447 0.63013 0.0
O293 O 0.59471 0.36062 0.65079 0.0
O294 O 0.59415 0.35618 0.6114 0.0
O295 O 0.53654 0.36196 0.6465 0.0
O296 O 0.49618 0.34196 0.63581 0.0
O297 O 0.53351 0.32809 0.59664 0.0
C298 C 0.52126 0.39742 0.58067 0.0
C299 C 0.51661 0.34373 0.64985 0.0
Zn300 Zn 0.03444 0.54865 0.6346 0.0
Zn301 Zn 0.12143 0.57202 0.6153 0.0
C302 C 0.98222 0.58544 0.64961 0.0
O303 O 0.96353 0.60504 0.6442 0.0
C304 C 0.15091 0.51579 0.61208 0.0
O305 O 0.12565 0.50479 0.60757 0.0
O306 O 0.02333 0.50702 0.62868 0.0
O307 O 0.0639 0.55728 0.6086 0.0
O308 O 0.10033 0.56574 0.58455 0.0
C309 C 0.0002 0.49916 0.61925 0.0
O310 O 0.98138 0.51872 0.61406 0.0
O311 O 0.00073 0.5763 0.63362 0.0
C312 C 0.16288 0.61437 0.62812 0.0
O313 O 0.17311 0.59226 0.63871 0.0
O314 O 0.1397 0.61143 0.6172 0.0
O315 O 0.09278 0.56515 0.64274 0.0
O316 O 0.05559 0.55432 0.66559 0.0
O317 O 0.15331 0.54284 0.6156 0.0
C318 C 0.0741 0.55835 0.5875 0.0
C319 C 0.08186 0.56203 0.66343 0.0
H320 H 0.70566 0.53069 0.10468 0.0
H321 H 0.75681 0.54205 0.10368 0.0
H322 H 0.77781 0.4519 0.09245 0.0
H323 H 0.7263 0.44017 0.09327 0.0
H324 H 0.79662 0.5203 0.13543 0.0
H325 H 0.82806 0.49242 0.04087 0.0
H326 H 0.79105 0.49872 0.05113 0.0
H327 H 0.8086 0.46556 0.05698 0.0
C328 C 0.72106 0.5132 0.10177 0.0
C329 C 0.71185 0.48448 0.09913 0.0
C330 C 0.75032 0.51978 0.10123 0.0
C331 C 0.77106 0.49786 0.09787 0.0
C332 C 0.76209 0.46917 0.09475 0.0
H333 H 0.95844 0.51113 0.09467 0.0
H334 H 0.90903 0.49343 0.0938 0.0
C335 C 0.73268 0.46251 0.09529 0.0
C336 C 0.80194 0.50532 0.09888 0.0
H337 H 0.86483 0.50886 0.06531 0.0
C338 C 0.81159 0.51773 0.12013 0.0
C339 C 0.82136 0.50176 0.07893 0.0
C340 C 0.81186 0.48907 0.05558 0.0
C341 C 0.84014 0.52692 0.12193 0.0
C342 C 0.85939 0.52417 0.10178 0.0
C343 C 0.84994 0.5111 0.08068 0.0
C344 C 0.8893 0.53508 0.1022 0.0
C345 C 0.84948 0.53926 0.14545 0.0
C346 C 0.8946 0.56448 0.1069 0.0
C347 C 0.92283 0.5747 0.10745 0.0
C348 C 0.94628 0.55572 0.10312 0.0
C349 C 0.94087 0.52633 0.09816 0.0
C350 C 0.91265 0.51615 0.09761 0.0
H351 H 0.83494 0.53255 0.16036 0.0
H352 H 0.87181 0.53248 0.1487 0.0
H353 H 0.84891 0.56312 0.14538 0.0
H354 H 0.87686 0.57955 0.11001 0.0
H355 H 0.92626 0.59747 0.11115 0.0
H356 H 0.07543 0.72944 0.05512 0.0
H357 H 0.04552 0.7728 0.05449 0.0
H358 H 0.98066 0.73385 0.09967 0.0
H359 H 0.01047 0.69063 0.1007 0.0
H360 H 0.98763 0.78187 0.04144 0.0
H361 H 0.00204 0.80824 0.137 0.0
H362 H 0.024 0.78179 0.12008 0.0
H363 H 0.98804 0.77297 0.13033 0.0
C364 C 0.05468 0.72998 0.06472 0.0
C365 C 0.04548 0.70674 0.07818 0.0
C366 C 0.03762 0.75474 0.06432 0.0
C367 C 0.01116 0.75665 0.07737 0.0
C368 C 0.00128 0.73297 0.08985 0.0
H369 H 0.89795 0.9041 0.11199 0.0
H370 H 0.91663 0.85483 0.10624 0.0
C371 C 0.01832 0.70826 0.09033 0.0
C372 C 0.99456 0.7839 0.07881 0.0
H373 H 0.97156 0.83877 0.11737 0.0
C374 C 0.984 0.79431 0.05802 0.0
C375 C 0.9899 0.8 0.10051 0.0
C376 C 0.00176 0.79039 0.12324 0.0
C377 C 0.96883 0.82049 0.05837 0.0
C378 C 0.96457 0.83679 0.08001 0.0
C379 C 0.97472 0.82611 0.10084 0.0
C380 C 0.95126 0.86581 0.08135 0.0
C381 C 0.95738 0.83041 0.03562 0.0
C382 C 0.96446 0.88821 0.06913 0.0
C383 C 0.95388 0.91631 0.07237 0.0
C384 C 0.93001 0.92258 0.08803 0.0
C385 C 0.91633 0.89996 0.09976 0.0
C386 C 0.92697 0.87182 0.09652 0.0
H387 H 0.95476 0.8121 0.02259 0.0
H388 H 0.93632 0.84158 0.0389 0.0
H389 H 0.97285 0.84574 0.02759 0.0
H390 H 0.98361 0.88416 0.05775 0.0
H391 H 0.96495 0.93324 0.06309 0.0
H392 H 0.56559 0.95841 0.07414 0.0
H393 H 0.61358 0.97865 0.06815 0.0
H394 H 0.64991 0.90763 0.10321 0.0
H395 H 0.60177 0.88689 0.109 0.0
H396 H 0.64794 0.99556 0.10471 0.0
H397 H 0.70405 0.91376 0.04413 0.0
H398 H 0.66531 0.91525 0.04854 0.0
H399 H 0.68678 0.89974 0.07026 0.0
C400 C 0.58379 0.94685 0.08034 0.0
C401 C 0.57988 0.92109 0.09213 0.0
C402 C 0.61122 0.95846 0.07686 0.0
C403 C 0.63532 0.94453 0.08503 0.0
C404 C 0.63165 0.91843 0.09635 0.0
H405 H 0.81112 0.99539 0.10405 0.0
H406 H 0.76587 0.96932 0.10059 0.0
C407 C 0.60413 0.9067 0.09977 0.0
C408 C 0.66378 0.95871 0.08345 0.0
H409 H 0.73301 0.95082 0.06086 0.0
C410 C 0.66649 0.98589 0.09497 0.0
C411 C 0.68793 0.94592 0.07085 0.0
C412 C 0.68594 0.91717 0.05755 0.0
C413 C 0.69283 0.00048 0.09455 0.0
C414 C 0.71698 0.98776 0.08189 0.0
C415 C 0.71435 0.96055 0.07039 0.0
C416 C 0.74535 0.0021 0.0813 0.0
C417 C 0.6948 0.02904 0.1082 0.0
C418 C 0.74906 0.02873 0.07088 0.0
C419 C 0.77489 0.04379 0.07286 0.0
C420 C 0.79743 0.03236 0.08525 0.0
C421 C 0.79413 0.00491 0.09452 0.0
C422 C 0.76832 0.98992 0.09253 0.0
H423 H 0.67619 0.03272 0.12111 0.0
H424 H 0.71496 0.03033 0.11793 0.0
H425 H 0.69504 0.04668 0.09564 0.0
H426 H 0.73167 0.03825 0.06182 0.0
H427 H 0.7768 0.06477 0.0654 0.0
H428 H 0.50936 0.80259 0.08295 0.0
H429 H 0.53461 0.75639 0.08139 0.0
H430 H 0.45727 0.71328 0.06036 0.0
H431 H 0.43191 0.75944 0.06153 0.0
H432 H 0.51692 0.7144 0.11121 0.0
H433 H 0.5191 0.67166 0.01799 0.0
H434 H 0.51239 0.70919 0.02621 0.0
H435 H 0.484 0.68323 0.02936 0.0
C436 C 0.49791 0.78339 0.07733 0.0
C437 C 0.46854 0.78465 0.07254 0.0
C438 C 0.51239 0.75701 0.07648 0.0
C439 C 0.49785 0.73144 0.0707 0.0
C440 C 0.46905 0.7328 0.06445 0.0
H441 H 0.52548 0.55053 0.08887 0.0
H442 H 0.50692 0.59817 0.0808 0.0
C443 C 0.45455 0.75923 0.06521 0.0
C444 C 0.51154 0.70331 0.07431 0.0
H445 H 0.52922 0.63804 0.04726 0.0
C446 C 0.51995 0.69782 0.09716 0.0
C447 C 0.51517 0.68167 0.056 0.0
C448 C 0.50744 0.68676 0.03095 0.0
C449 C 0.5313 0.67103 0.10236 0.0
C450 C 0.53472 0.64931 0.08411 0.0
C451 C 0.52654 0.65481 0.0612 0.0
C452 C 0.54629 0.62055 0.08864 0.0
C453 C 0.53873 0.66589 0.12749 0.0
C454 C 0.57465 0.61743 0.09555 0.0
C455 C 0.58531 0.59028 0.10025 0.0
C456 C 0.56779 0.56578 0.09804 0.0
C457 C 0.53947 0.56899 0.0909 0.0
C458 C 0.52885 0.59615 0.08617 0.0
H459 H 0.52879 0.68231 0.14031 0.0
H460 H 0.53154 0.64422 0.13271 0.0
H461 H 0.56244 0.66695 0.12881 0.0
H462 H 0.58855 0.636 0.09722 0.0
H463 H 0.60729 0.58851 0.10555 0.0
H464 H 0.91458 0.87563 0.38969 0.0
H465 H 0.86594 0.89642 0.39397 0.0
H466 H 0.89949 0.97242 0.42934 0.0
H467 H 0.94787 0.9518 0.42544 0.0
H468 H 0.84797 0.95275 0.45084 0.0
H469 H 0.84003 0.96208 0.35371 0.0
H470 H 0.84768 0.92658 0.36306 0.0
H471 H 0.87363 0.95475 0.36694 0.0
C472 C 0.91154 0.89667 0.39853 0.0
C473 C 0.93512 0.91216 0.40704 0.0
C474 C 0.88378 0.90857 0.40085 0.0
C475 C 0.87922 0.93615 0.41162 0.0
C476 C 0.90256 0.95116 0.42087 0.0
H477 H 0.74741 0.06601 0.43242 0.0
H478 H 0.78974 0.03513 0.43467 0.0
C479 C 0.93023 0.93933 0.41856 0.0
C480 C 0.8504 0.95 0.41269 0.0
H481 H 0.79992 0.97749 0.37808 0.0
C482 C 0.83735 0.95802 0.43495 0.0
C483 C 0.83667 0.95691 0.39192 0.0
C484 C 0.85024 0.94989 0.36753 0.0
C485 C 0.81093 0.97289 0.43699 0.0
C486 C 0.79751 0.98028 0.41622 0.0
C487 C 0.81025 0.97172 0.39398 0.0
C488 C 0.77088 -0.00201 0.41698 0.0
C489 C 0.7976 0.98049 0.46133 0.0
C490 C 0.74627 0.98741 0.40621 0.0
C491 C 0.72208 0.00503 0.40481 0.0
C492 C 0.72215 0.03371 0.41398 0.0
C493 C 0.74658 0.04402 0.42529 0.0
C494 C 0.77076 0.02633 0.42671 0.0
H495 H 0.80595 0.96648 0.47485 0.0
H496 H 0.80298 0.0031 0.46645 0.0
H497 H 0.77378 0.97858 0.46159 0.0
H498 H 0.74599 0.96565 0.39847 0.0
H499 H 0.70367 0.9964 0.39591 0.0
H500 H 0.56044 0.94332 0.45086 0.0
H501 H 0.54089 0.89492 0.45503 0.0
H502 H 0.58708 0.86599 0.39025 0.0
H503 H 0.60687 0.91424 0.38595 0.0
H504 H 0.50682 0.86639 0.42122 0.0
H505 H 0.60502 0.80337 0.43685 0.0
H506 H 0.6033 0.84213 0.44095 0.0
H507 H 0.60842 0.82554 0.4117 0.0
C508 C 0.56678 0.92658 0.43766 0.0
C509 C 0.58522 0.93262 0.41806 0.0
C510 C 0.55557 0.89896 0.44008 0.0
C511 C 0.56284 0.87685 0.42311 0.0
C512 C 0.58166 0.88264 0.40378 0.0
H513 H 0.50961 0.7075 0.38187 0.0
H514 H 0.53386 0.75332 0.38891 0.0
C515 C 0.5928 0.91028 0.40128 0.0
C516 C 0.54901 0.84832 0.42456 0.0
H517 H 0.56335 0.77648 0.42668 0.0
C518 C 0.51907 0.84672 0.42275 0.0
C519 C 0.56514 0.8228 0.42647 0.0
C520 C 0.59723 0.82345 0.42932 0.0
C521 C 0.50491 0.82012 0.42177 0.0
C522 C 0.52112 0.7945 0.42321 0.0
C523 C 0.55099 0.79617 0.42565 0.0
C524 C 0.50776 0.76573 0.42048 0.0
C525 C 0.47297 0.81962 0.41808 0.0
C526 C 0.48552 0.75716 0.4363 0.0
C527 C 0.47141 0.73098 0.43224 0.0
C528 C 0.47952 0.71287 0.41242 0.0
C529 C 0.50271 0.72098 0.39726 0.0
C530 C 0.51666 0.74716 0.40126 0.0
H531 H 0.46509 0.8405 0.41204 0.0
H532 H 0.46761 0.80234 0.40483 0.0
H533 H 0.46118 0.81528 0.43506 0.0
H534 H 0.47874 0.77095 0.45152 0.0
H535 H 0.4538 0.72524 0.44435 0.0
H536 H 0.60134 0.59578 0.35293 0.0
H537 H 0.64853 0.57181 0.35089 0.0
H538 H 0.63186 0.54207 0.42127 0.0
H539 H 0.58484 0.56575 0.42352 0.0
H540 H 0.69621 0.57728 0.38331 0.0
H541 H 0.64831 0.46793 0.37797 0.0
H542 H 0.62842 0.49997 0.37193 0.0
H543 H 0.63392 0.49122 0.40196 0.0
C544 C 0.60784 0.58436 0.36805 0.0
C545 C 0.58925 0.58249 0.38832 0.0
C546 C 0.63476 0.5707 0.36684 0.0
C547 C 0.64337 0.55486 0.38579 0.0
C548 C 0.62535 0.55385 0.40634 0.0
H549 H 0.78416 0.44448 0.41677 0.0
H550 H 0.74022 0.47353 0.41688 0.0
C551 C 0.59853 0.56751 0.4076 0.0
C552 C 0.67084 0.53866 0.38401 0.0
H553 H 0.69842 0.47056 0.38368 0.0
C554 C 0.69681 0.55395 0.38322 0.0
C555 C 0.67137 0.50825 0.38386 0.0
C556 C 0.64405 0.49078 0.38377 0.0
C557 C 0.72343 0.53957 0.38306 0.0
C558 C 0.72394 0.50914 0.38327 0.0
C559 C 0.69793 0.49389 0.38365 0.0
C560 C 0.75116 0.49258 0.38345 0.0
C561 C 0.7507 0.55709 0.38342 0.0
C562 C 0.7718 0.4936 0.36456 0.0
C563 C 0.79701 0.4772 0.36455 0.0
C564 C 0.80185 0.45917 0.38325 0.0
C565 C 0.78111 0.45817 0.40212 0.0
C566 C 0.75598 0.47472 0.4022 0.0
H567 H 0.74632 0.57992 0.38919 0.0
H568 H 0.76619 0.54796 0.39541 0.0
H569 H 0.76104 0.55672 0.36531 0.0
H570 H 0.76821 0.5067 0.34964 0.0
H571 H 0.81245 0.47826 0.34968 0.0
H572 H 0.09158 0.755 0.43981 0.0
H573 H 0.07562 0.70482 0.43761 0.0
H574 H 0.00192 0.72948 0.39978 0.0
H575 H 0.01758 0.77959 0.4018 0.0
H576 H 0.01905 0.6757 0.44979 0.0
H577 H 0.05269 0.67316 0.35386 0.0
H578 H 0.06446 0.70082 0.37462 0.0
H579 H 0.02863 0.70188 0.36425 0.0
C580 C 0.07162 0.74988 0.4315 0.0
C581 C 0.05606 0.77125 0.42072 0.0
C582 C 0.06255 0.72121 0.43027 0.0
C583 C 0.03787 0.71353 0.41824 0.0
C584 C 0.0212 0.73505 0.40894 0.0
H585 H 0.95289 0.55139 0.38955 0.0
H586 H 0.96489 0.60023 0.40382 0.0
C587 C 0.03018 0.76368 0.41018 0.0
C588 C 0.03111 0.68286 0.41331 0.0
H589 H 0.0305 0.63141 0.36831 0.0
C590 C 0.0215 0.66595 0.43201 0.0
C591 C 0.03473 0.67026 0.39011 0.0
C592 C 0.04589 0.68731 0.36952 0.0
C593 C 0.01486 0.6367 0.42795 0.0
C594 C 0.01804 0.62431 0.4047 0.0
C595 C 0.02805 0.64113 0.38611 0.0
C596 C 0.01094 0.5939 0.39903 0.0
C597 C 0.00485 0.61904 0.44845 0.0
C598 C 0.03293 0.57424 0.39185 0.0
C599 C 0.0262 0.54634 0.38375 0.0
C600 C 0.99731 0.53783 0.38234 0.0
C601 C 0.97534 0.55737 0.39024 0.0
C602 C 0.98213 0.58519 0.39855 0.0
H603 H 0.00684 0.63091 0.46579 0.0
H604 H 0.98194 0.61309 0.44662 0.0
H605 H 0.01756 0.59877 0.44831 0.0
H606 H 0.0553 0.58072 0.392 0.0
H607 H 0.04361 0.5318 0.37786 0.0
H608 H 0.04105 0.45189 0.94495 0.0
H609 H 0.08888 0.47205 0.95054 0.0
H610 H 0.12118 0.42658 0.88651 0.0
H611 H 0.07353 0.40561 0.88105 0.0
H612 H 0.14783 0.43629 0.94911 0.0
H613 H 0.13549 0.51966 0.88278 0.0
H614 H 0.10501 0.50391 0.89842 0.0
H615 H 0.12403 0.48367 0.87478 0.0
C616 C 0.0584 0.44567 0.9323 0.0
C617 C 0.05353 0.42684 0.9127 0.0
C618 C 0.08567 0.45737 0.93547 0.0
C619 C 0.10838 0.45077 0.91892 0.0
C620 C 0.10376 0.43189 0.89943 0.0
H621 H 0.28583 0.46277 0.89577 0.0
H622 H 0.23727 0.44931 0.90902 0.0
C623 C 0.07656 0.41996 0.89635 0.0
C624 C 0.13685 0.46415 0.92156 0.0
H625 H 0.18213 0.51314 0.89675 0.0
C626 C 0.1553 0.45336 0.93793 0.0
C627 C 0.14618 0.48669 0.9072 0.0
C628 C 0.12668 0.49942 0.88986 0.0
C629 C 0.1836 0.46356 0.93938 0.0
C630 C 0.19351 0.48493 0.924 0.0
C631 C 0.17445 0.49681 0.90859 0.0
C632 C 0.22434 0.49247 0.92112 0.0
C633 C 0.20289 0.45092 0.9569 0.0
C634 C 0.23344 0.52116 0.92407 0.0
C635 C 0.26143 0.52892 0.91663 0.0
C636 C 0.28031 0.50818 0.90559 0.0
C637 C 0.27167 0.47923 0.90411 0.0
C638 C 0.24397 0.47146 0.91182 0.0
H639 H 0.19015 0.44202 0.97199 0.0
H640 H 0.21572 0.43305 0.94792 0.0
H641 H 0.21803 0.4673 0.96387 0.0
H642 H 0.21848 0.5377 0.93108 0.0
H643 H 0.26752 0.55137 0.918 0.0
H644 H 0.92193 0.26005 0.92464 0.0
H645 H 0.95019 0.21546 0.91991 0.0
H646 H 0.01564 0.25897 0.87851 0.0
H647 H 0.98791 0.3036 0.88338 0.0
H648 H 0.96402 0.18855 0.87575 0.0
H649 H 0.06317 0.21385 0.92328 0.0
H650 H 0.03052 0.23495 0.92797 0.0
H651 H 0.05405 0.2398 0.9023 0.0
C652 C 0.94262 0.2603 0.91497 0.0
C653 C 0.95261 0.28537 0.90436 0.0
C654 C 0.95871 0.2348 0.91225 0.0
C655 C 0.98512 0.23401 0.89905 0.0
C656 C 0.99562 0.25924 0.88916 0.0
H657 H 0.09573 0.09144 0.84313 0.0
H658 H 0.07465 0.13951 0.85227 0.0
C659 C 0.9796 0.28471 0.89187 0.0
C660 C 0.00025 0.20625 0.89364 0.0
H661 H 0.06378 0.1706 0.899 0.0
C662 C 0.98576 0.18457 0.88096 0.0
C663 C 0.02875 0.2013 0.90019 0.0
C664 C 0.04501 0.2236 0.91436 0.0
C665 C -0.00097 0.15805 0.87459 0.0
C666 C 0.02738 0.15295 0.88138 0.0
C667 C 0.04206 0.1747 0.8938 0.0
C668 C 0.04134 0.12452 0.87675 0.0
C669 C 0.98269 0.13574 0.86046 0.0
C670 C 0.02993 0.10052 0.88789 0.0
C671 C 0.04179 0.07327 0.88274 0.0
C672 C 0.06543 0.06946 0.86637 0.0
C673 C 0.07746 0.0937 0.85572 0.0
C674 C 0.06549 0.1211 0.86094 0.0
H675 H 0.96439 0.14543 0.85169 0.0
H676 H 0.99711 0.12452 0.84673 0.0
H677 H 0.97387 0.11942 0.87252 0.0
H678 H 0.01157 0.10284 0.90042 0.0
H679 H 0.03217 0.05515 0.89148 0.0
H680 H 0.19985 0.99519 0.84981 0.0
H681 H 0.24319 0.02322 0.85704 0.0
H682 H 0.2493 0.98532 0.92474 0.0
H683 H 0.20617 0.95678 0.91752 0.0
H684 H 0.2557 0.06319 0.89364 0.0
H685 H 0.32813 0.96771 0.8917 0.0
H686 H 0.29198 0.96578 0.88153 0.0
H687 H 0.29793 0.96667 0.9127 0.0
C688 C 0.21035 0.99283 0.86628 0.0
C689 C 0.19971 0.97353 0.883 0.0
C690 C 0.23508 0.00892 0.87039 0.0
C691 C 0.24969 0.00599 0.89124 0.0
C692 C 0.23865 0.98745 0.90831 0.0
H693 H 0.41218 0.07626 0.93689 0.0
H694 H 0.36458 0.05417 0.93578 0.0
C695 C 0.21394 0.97126 0.9042 0.0
C696 C 0.27676 0.022 0.89483 0.0
H697 H 0.3488 0.01286 0.90116 0.0
C698 C 0.27607 0.05222 0.89532 0.0
C699 C 0.30329 0.0076 0.89696 0.0
C700 C 0.30557 0.97516 0.8955 0.0
C701 C 0.30123 0.06846 0.89803 0.0
C702 C 0.32775 0.05403 0.89998 0.0
C703 C 0.32838 0.02384 0.89976 0.0
C704 C 0.35536 0.06967 0.90149 0.0
C705 C 0.29919 0.10089 0.89902 0.0
C706 C 0.36587 0.08583 0.88261 0.0
C707 C 0.39309 0.09849 0.88316 0.0
C708 C 0.41033 0.09508 0.90257 0.0
C709 C 0.39944 0.0794 0.92169 0.0
C710 C 0.37226 0.06671 0.92109 0.0
H711 H 0.27684 0.10851 0.90359 0.0
H712 H 0.31371 0.11052 0.9122 0.0
H713 H 0.30582 0.10885 0.88139 0.0
H714 H 0.3534 0.08792 0.86712 0.0
H715 H 0.40089 0.11033 0.86811 0.0
H716 H 0.48463 0.20868 0.89079 0.0
H717 H 0.45808 0.25155 0.88112 0.0
H718 H 0.5302 0.30472 0.89952 0.0
H719 H 0.55708 0.26187 0.90936 0.0
H720 H 0.47424 0.32783 0.91485 0.0
H721 H 0.48189 0.29248 0.8195 0.0
H722 H 0.46669 0.26645 0.83896 0.0
H723 H 0.50367 0.27685 0.84117 0.0
C724 C 0.49474 0.22951 0.89319 0.0
C725 C 0.52314 0.23184 0.90058 0.0
C726 C 0.47956 0.25395 0.88752 0.0
C727 C 0.49248 0.28112 0.88909 0.0
C728 C 0.52002 0.28383 0.898 0.0
H729 H 0.44779 0.44303 0.83013 0.0
H730 H 0.47217 0.39893 0.84052 0.0
C731 C 0.53528 0.25934 0.9037 0.0
C732 C 0.47783 0.30642 0.88026 0.0
H733 H 0.45314 0.33384 0.83004 0.0
C734 C 0.46962 0.32919 0.89634 0.0
C735 C 0.47224 0.30819 0.856 0.0
C736 C 0.48178 0.28485 0.83782 0.0
C737 C 0.45532 0.35349 0.88882 0.0
C738 C 0.4491 0.35487 0.86472 0.0
C739 C 0.45776 0.33241 0.84855 0.0
C740 C 0.4338 0.3798 0.85607 0.0
C741 C 0.44714 0.37774 0.90656 0.0
C742 C 0.40405 0.38294 0.86068 0.0
C743 C 0.38999 0.40791 0.8546 0.0
C744 C 0.40558 0.43022 0.84397 0.0
C745 C 0.43518 0.42627 0.83831 0.0
C746 C 0.44917 0.40117 0.84427 0.0
H747 H 0.45628 0.3748 0.92405 0.0
H748 H 0.45475 0.39857 0.89978 0.0
H749 H 0.42332 0.37904 0.90904 0.0
H750 H 0.3919 0.36647 0.86968 0.0
H751 H 0.3672 0.41029 0.85928 0.0
H752 H 0.04301 0.04823 0.55794 0.0
H753 H 0.09037 0.02511 0.55653 0.0
H754 H 0.11893 0.08814 0.60848 0.0
H755 H 0.07149 0.11139 0.61015 0.0
H756 H 0.14628 0.0474 0.5462 0.0
H757 H 0.1331 0.00981 0.63787 0.0
H758 H 0.10344 0.0236 0.62233 0.0
H759 H 0.12874 0.04796 0.63541 0.0
C760 C 0.0594 0.05734 0.56896 0.0
C761 C 0.05341 0.08154 0.5843 0.0
C762 C 0.08645 0.04409 0.56811 0.0
C763 C 0.10794 0.05464 0.58269 0.0
C764 C 0.10242 0.07939 0.5974 0.0
H765 H 0.27905 0.98961 0.60785 0.0
H766 H 0.23502 0.01853 0.60769 0.0
C767 C 0.07537 0.09273 0.59821 0.0
C768 C 0.13589 0.03932 0.58279 0.0
H769 H 0.17825 0.00087 0.61765 0.0
C770 C 0.15332 0.03723 0.5618 0.0
C771 C 0.14493 0.02609 0.60319 0.0
C772 C 0.12652 0.02669 0.62595 0.0
C773 C 0.17972 0.02239 0.56071 0.0
C774 C 0.18862 0.0089 0.58104 0.0
C775 C 0.17134 0.01127 0.6021 0.0
C776 C 0.2155 0.99168 0.5807 0.0
C777 C 0.19803 0.02158 0.53791 0.0
C778 C 0.21891 0.9668 0.56579 0.0
C779 C 0.24402 0.95021 0.56582 0.0
C780 C 0.26615 0.95822 0.5808 0.0
C781 C 0.26257 0.98307 0.59586 0.0
C782 C 0.23739 -0.00043 0.59587 0.0
H783 H 0.19208 0.03908 0.52632 0.0
H784 H 0.22124 0.02354 0.54145 0.0
H785 H 0.19481 0.00071 0.5281 0.0
H786 H 0.20198 0.96 0.55433 0.0
H787 H 0.24603 0.93108 0.55417 0.0
H788 H 0.49047 0.29468 0.59292 0.0
H789 H 0.46792 0.24735 0.59502 0.0
H790 H 0.55096 0.20651 0.58193 0.0
H791 H 0.57363 0.25363 0.57926 0.0
H792 H 0.50747 0.17751 0.55908 0.0
H793 H 0.47677 0.20186 0.65417 0.0
H794 H 0.46291 0.22688 0.6343 0.0
H795 H 0.5011 0.22421 0.63738 0.0
C796 C 0.50388 0.27563 0.59002 0.0
C797 C 0.53391 0.27792 0.58621 0.0
C798 C 0.49098 0.24862 0.59141 0.0
C799 C 0.50789 0.22351 0.58923 0.0
C800 C 0.53756 0.22567 0.58386 0.0
H801 H 0.49378 0.04418 0.61716 0.0
H802 H 0.50872 0.09267 0.60713 0.0
C803 C 0.55048 0.25264 0.58234 0.0
C804 C 0.49517 0.19509 0.59403 0.0
H805 H 0.46236 0.15686 0.6378 0.0
C806 C 0.49748 0.17301 0.57624 0.0
C807 C 0.48238 0.18927 0.61654 0.0
C808 C 0.48082 0.21167 0.63679 0.0
C809 C 0.48732 0.14519 0.58037 0.0
C810 C 0.47471 0.13942 0.60288 0.0
C811 C 0.47192 0.16155 0.62053 0.0
C812 C 0.46547 0.11016 0.60884 0.0
C813 C 0.49022 0.12214 0.5607 0.0
C814 C 0.43626 0.10424 0.61364 0.0
C815 C 0.42762 0.07655 0.61941 0.0
C816 C 0.44813 0.05444 0.6206 0.0
C817 C 0.47743 0.06069 0.61625 0.0
C818 C 0.48602 0.08832 0.61042 0.0
H819 H 0.49426 0.13144 0.54312 0.0
H820 H 0.50862 0.10782 0.56392 0.0
H821 H 0.47051 0.10871 0.56021 0.0
H822 H 0.42016 0.12098 0.6127 0.0
H823 H 0.40489 0.07242 0.6227 0.0
H824 H 0.20469 0.53198 0.62415 0.0
H825 H 0.24799 0.50231 0.62356 0.0
H826 H 0.19946 0.42788 0.60108 0.0
H827 H 0.1557 0.45763 0.6014 0.0
H828 H 0.25883 0.45177 0.64836 0.0
H829 H 0.26677 0.43275 0.55028 0.0
H830 H 0.24402 0.46057 0.56462 0.0
H831 H 0.23341 0.42354 0.56553 0.0
C832 C 0.20309 0.5093 0.61909 0.0
C833 C 0.17676 0.49722 0.61262 0.0
C834 C 0.22788 0.49235 0.61886 0.0
C835 C 0.22696 0.463 0.61207 0.0
C836 C 0.20065 0.4506 0.60609 0.0
H837 H 0.38823 0.36548 0.62651 0.0
H838 H 0.33637 0.37574 0.62753 0.0
C839 C 0.17569 0.4676 0.60636 0.0
C840 C 0.25399 0.44598 0.61083 0.0
H841 H 0.30494 0.41598 0.57159 0.0
C842 C 0.26876 0.44344 0.63166 0.0
C843 C 0.26684 0.4354 0.58895 0.0
C844 C 0.25215 0.43825 0.56598 0.0
C845 C 0.29664 0.43171 0.63109 0.0
C846 C 0.30987 0.42194 0.60911 0.0
C847 C 0.2946 0.42335 0.58841 0.0
C848 C 0.34069 0.41365 0.60687 0.0
C849 C 0.31237 0.43144 0.65378 0.0
C850 C 0.36009 0.43099 0.59427 0.0
C851 C 0.38957 0.42517 0.59358 0.0
C852 C 0.40026 0.4018 0.60544 0.0
C853 C 0.38067 0.38374 0.61731 0.0
C854 C 0.35108 0.38962 0.61799 0.0
H855 H 0.30077 0.44397 0.66854 0.0
H856 H 0.31461 0.40891 0.6591 0.0
H857 H 0.33433 0.44047 0.65118 0.0
H858 H 0.35249 0.44961 0.58554 0.0
H859 H 0.40401 0.43942 0.58415 0.0
H860 H 0.95627 0.47528 0.59469 0.0
H861 H 0.948 0.42412 0.58524 0.0
H862 H 0.0244 0.40222 0.6208 0.0
H863 H 0.03282 0.45321 0.63044 0.0
H864 H 0.98616 0.38239 0.55985 0.0
H865 H 0.9592 0.3547 0.65291 0.0
H866 H 0.95907 0.3913 0.64354 0.0
H867 H 0.99255 0.37354 0.64815 0.0
C868 C 0.97124 0.45958 0.60061 0.0
C869 C 0.99503 0.46829 0.61353 0.0
C870 C 0.96656 0.4304 0.59508 0.0
C871 C 0.98541 0.40946 0.60258 0.0
C872 C 0.00939 0.41808 0.61516 0.0
H873 H 0.97826 0.22301 0.60045 0.0
H874 H 0.99499 0.27278 0.60283 0.0
C875 C 0.01417 0.44723 0.62061 0.0
C876 C 0.9798 0.37855 0.59751 0.0
H877 H 0.96249 0.31622 0.62425 0.0
C878 C 0.98098 0.36785 0.57388 0.0
C879 C 0.97313 0.35974 0.61591 0.0
C880 C 0.97065 0.37033 0.64156 0.0
C881 C 0.97592 0.33863 0.56814 0.0
C882 C 0.96898 0.31987 0.58654 0.0
C883 C 0.96799 0.33061 0.61018 0.0
C884 C 0.96147 0.28923 0.58188 0.0
C885 C 0.97846 0.32805 0.54251 0.0
C886 C 0.93743 0.28186 0.56886 0.0
C887 C 0.92788 0.25338 0.56734 0.0
C888 C 0.94201 0.23184 0.57908 0.0
C889 C 0.96686 0.23908 0.59121 0.0
C890 C 0.97645 0.26753 0.59263 0.0
H891 H 0.99209 0.34255 0.53167 0.0
H892 H 0.98771 0.30597 0.54063 0.0
H893 H 0.95671 0.32751 0.53527 0.0
H894 H 0.92518 0.29833 0.56084 0.0
H895 H 0.90858 0.24857 0.55798 0.0
H896 H 0.00313 0.66641 0.16952 0.0
H897 H 0.00181 0.69717 0.20574 0.0
H898 H 0.09124 0.6781 0.21501 0.0
H899 H 0.09288 0.6471 0.17879 0.0
H900 H 0.05155 0.67746 0.25787 0.0
H901 H 0.04554 0.77639 0.20661 0.0
H902 H 0.0197 0.74889 0.19979 0.0
H903 H 0.05736 0.74205 0.19325 0.0
C904 C 0.02247 0.66849 0.17935 0.0
C905 C 0.0482 0.65455 0.17117 0.0
C906 C 0.02166 0.68611 0.19999 0.0
C907 C 0.04651 0.69006 0.21274 0.0
C908 C 0.0719 0.67528 0.20526 0.0
H909 H 0.08079 0.82781 0.31512 0.0
H910 H 0.08266 0.79239 0.28177 0.0
C911 C 0.07278 0.65766 0.18457 0.0
C912 C 0.04632 0.71076 0.23323 0.0
H913 H 0.04033 0.78245 0.24833 0.0
C914 C 0.04915 0.70042 0.25588 0.0
C915 C 0.04355 0.74065 0.23034 0.0
C916 C 0.04159 0.75281 0.20619 0.0
C917 C 0.04874 0.71934 0.27594 0.0
C918 C 0.04517 0.74918 0.27308 0.0
C919 C 0.04285 0.7595 0.25038 0.0
C920 C 0.04402 0.77019 0.29342 0.0
C921 C 0.05247 0.70738 0.29995 0.0
C922 C 0.02139 0.76958 0.3107 0.0
C923 C 0.02019 0.7898 0.32973 0.0
C924 C 0.04159 0.81098 0.33169 0.0
C925 C 0.06401 0.81173 0.31413 0.0
C926 C 0.06516 0.79153 0.2951 0.0
H927 H 0.06165 0.68524 0.29848 0.0
H928 H 0.06672 0.72139 0.31063 0.0
H929 H 0.03117 0.7065 0.30965 0.0
H930 H 0.0046 0.75355 0.30939 0.0
H931 H 0.00264 0.78866 0.34298 0.0
H932 H 0.69117 0.98451 0.33806 0.0
H933 H 0.72696 0.98196 0.30486 0.0
H934 H 0.69175 0.05936 0.2783 0.0
H935 H 0.65556 0.06186 0.31114 0.0
H936 H 0.7054 0.01615 0.24315 0.0
H937 H 0.79567 0.03797 0.30217 0.0
H938 H 0.77354 0.00783 0.30981 0.0
H939 H 0.7584 0.04351 0.31188 0.0
C940 C 0.69076 0.00076 0.32497 0.0
C941 C 0.67077 0.02358 0.32734 0.0
C942 C 0.71135 -0.00062 0.30616 0.0
C943 C 0.71227 0.02083 0.28954 0.0
C944 C 0.69144 0.04277 0.29113 0.0
H945 H 0.85072 0.06745 0.19114 0.0
H946 H 0.8151 0.06552 0.22437 0.0
C947 C 0.67082 0.04414 0.30989 0.0
C948 C 0.73542 0.02095 0.2708 0.0
H949 H 0.80819 0.02718 0.2616 0.0
C950 C 0.72788 0.01851 0.24713 0.0
C951 C 0.76461 0.02459 0.2762 0.0
C952 C 0.77363 0.0289 0.30137 0.0
C953 C 0.74891 0.01924 0.22857 0.0
C954 C 0.77818 0.02194 0.23397 0.0
C955 C 0.7857 0.02478 0.25764 0.0
C956 C 0.80124 0.02221 0.21516 0.0
C957 C 0.73957 0.01768 0.20337 0.0
C958 C 0.80577 -0.00187 0.1996 0.0
C959 C 0.8259 -0.00081 0.1806 0.0
C960 C 0.84197 0.02433 0.17696 0.0
C961 C 0.83848 0.04789 0.19336 0.0
C962 C 0.8182 0.04682 0.21234 0.0
H963 H 0.71634 0.02294 0.2024 0.0
H964 H 0.7523 0.03266 0.1923 0.0
H965 H 0.74315 0.99548 0.19568 0.0
H966 H 0.79328 0.97872 0.20188 0.0
H967 H 0.82832 0.98054 0.16845 0.0
H968 H 0.44033 0.83549 0.18366 0.0
H969 H 0.44301 0.8012 0.21496 0.0
H970 H 0.52201 0.7663 0.18201 0.0
H971 H 0.51943 0.80027 0.15048 0.0
H972 H 0.48098 0.72431 0.19521 0.0
H973 H 0.49975 0.80433 0.26877 0.0
H974 H 0.46894 0.81181 0.25207 0.0
H975 H 0.50442 0.81275 0.23799 0.0
C976 C 0.45836 0.82063 0.18312 0.0
C977 C 0.47975 0.8207 0.16466 0.0
C978 C 0.4599 0.80114 0.20106 0.0
C979 C 0.48289 0.78152 0.20089 0.0
C980 C 0.50417 0.7814 0.18245 0.0
H981 H 0.52731 0.68063 0.31883 0.0
H982 H 0.52851 0.71138 0.28495 0.0
C983 C 0.50269 0.80089 0.16452 0.0
C984 C 0.48449 0.76079 0.21978 0.0
H985 H 0.48984 0.75642 0.27938 0.0
C986 C 0.48303 0.73126 0.21362 0.0
C987 C 0.48752 0.77002 0.24367 0.0
C988 C 0.49052 0.80144 0.25108 0.0
C989 C 0.48394 0.71063 0.23089 0.0
C990 C 0.48603 0.71991 0.25488 0.0
C991 C 0.48805 0.74942 0.26096 0.0
C992 C 0.48603 0.69947 0.2741 0.0
C993 C 0.48295 0.67911 0.22332 0.0
C994 C 0.46177 0.68249 0.27907 0.0
C995 C 0.461 0.66485 0.2984 0.0
C996 C 0.48442 0.66408 0.31317 0.0
C997 C 0.50891 0.68071 0.30781 0.0
C998 C 0.50965 0.69831 0.28849 0.0
H999 H 0.48871 0.67544 0.20412 0.0
H1000 H 0.49783 0.66635 0.23353 0.0
H1001 H 0.46079 0.67097 0.22676 0.0
H1002 H 0.44312 0.6835 0.2684 0.0
H1003 H 0.44177 0.6524 0.30211 0.0
H1004 H 0.66009 0.47149 0.22465 0.0
H1005 H 0.69443 0.48208 0.25529 0.0
H1006 H 0.76455 0.47405 0.2024 0.0
H1007 H 0.73047 0.46502 0.17176 0.0
H1008 H 0.73229 0.44839 0.26992 0.0
H1009 H 0.79156 0.54239 0.23839 0.0
H1010 H 0.75837 0.53085 0.22579 0.0
H1011 H 0.79239 0.51522 0.21491 0.0
C1012 C 0.6828 0.47272 0.21953 0.0
C1013 C 0.69258 0.46747 0.19581 0.0
C1014 C 0.7024 0.47873 0.23705 0.0
C1015 C 0.73212 0.47935 0.23118 0.0
C1016 C 0.74176 0.47472 0.20737 0.0
H1017 H 0.8699 0.41479 0.30389 0.0
H1018 H 0.82511 0.42438 0.28485 0.0
C1019 C 0.7222 0.46927 0.18983 0.0
C1020 C 0.75333 0.48148 0.24996 0.0
H1021 H 0.81891 0.50982 0.26181 0.0
C1022 C 0.7509 0.46234 0.26844 0.0
C1023 C 0.77729 0.50018 0.24863 0.0
C1024 C 0.77981 0.52352 0.23099 0.0
C1025 C 0.77279 0.45981 0.28441 0.0
C1026 C 0.79831 0.47602 0.28121 0.0
C1027 C 0.79971 0.4968 0.26396 0.0
C1028 C 0.82457 0.47017 0.29411 0.0
C1029 C 0.76839 0.43944 0.30427 0.0
C1030 C 0.83986 0.49281 0.30493 0.0
C1031 C 0.86581 0.48736 0.31541 0.0
C1032 C 0.87671 0.45915 0.31541 0.0
C1033 C 0.86147 0.43658 0.30464 0.0
C1034 C 0.83579 0.44206 0.29389 0.0
H1035 H 0.74529 0.4385 0.31023 0.0
H1036 H 0.77506 0.4174 0.29779 0.0
H1037 H 0.78109 0.44587 0.31973 0.0
H1038 H 0.83179 0.51471 0.30516 0.0
H1039 H 0.87729 0.50516 0.32356 0.0
H1040 H 0.90853 0.17056 0.68041 0.0
H1041 H 0.9109 0.20448 0.71467 0.0
H1042 H 0.00044 0.22023 0.69637 0.0
H1043 H -0.0016 0.18655 0.6621 0.0
H1044 H 0.95047 0.20622 0.75383 0.0
H1045 H 0.95852 0.30045 0.69677 0.0
H1046 H 0.94604 0.26564 0.68621 0.0
H1047 H 0.98382 0.27173 0.68929 0.0
C1048 C 0.92882 0.18098 0.68382 0.0
C1049 C 0.9532 0.17611 0.66842 0.0
C1050 C 0.9301 0.20031 0.70336 0.0
C1051 C 0.95571 0.21504 0.70767 0.0
C1052 C 0.9804 0.20929 0.69301 0.0
H1053 H -0.00069 0.32041 0.83064 0.0
H1054 H -0.00064 0.28544 0.79701 0.0
C1055 C 0.97918 0.18998 0.67351 0.0
C1056 C 0.9564 0.23727 0.72699 0.0
H1057 H 0.96381 0.30958 0.73785 0.0
C1058 C 0.95337 0.22882 0.75043 0.0
C1059 C 0.95983 0.26668 0.72227 0.0
C1060 C 0.96201 0.27684 0.69729 0.0
C1061 C 0.95415 0.24916 0.76944 0.0
C1062 C 0.95836 0.27849 0.76472 0.0
C1063 C 0.96092 0.28697 0.74128 0.0
C1064 C 0.95944 0.30079 0.78397 0.0
C1065 C 0.95007 0.23926 0.79441 0.0
C1066 C 0.9375 0.32153 0.78708 0.0
C1067 C 0.93743 0.34161 0.80616 0.0
C1068 C 0.95943 0.34129 0.82232 0.0
C1069 C 0.98205 0.3212 0.81852 0.0
C1070 C 0.98203 0.30109 0.79945 0.0
H1071 H 0.94113 0.21713 0.79484 0.0
H1072 H 0.97119 0.23923 0.80272 0.0
H1073 H 0.93544 0.25413 0.80527 0.0
H1074 H 0.92 0.32164 0.77513 0.0
H1075 H 0.91976 0.35686 0.80859 0.0
H1076 H 0.31692 0.99562 0.67023 0.0
H1077 H 0.2664 0.99231 0.68339 0.0
H1078 H 0.25972 0.91096 0.64417 0.0
H1079 H 0.31076 0.91338 0.63205 0.0
H1080 H 0.21261 0.98462 0.6639 0.0
H1081 H 0.2459 0.88866 0.712 0.0
H1082 H 0.27203 0.91118 0.69738 0.0
H1083 H 0.25047 0.88675 0.68028 0.0
C1084 C 0.30467 0.97714 0.66418 0.0
C1085 C 0.31797 0.95451 0.65037 0.0
C1086 C 0.2757 0.97544 0.67149 0.0
C1087 C 0.25949 0.95116 0.66505 0.0
C1088 C 0.27203 0.92963 0.64967 0.0
H1089 H 0.12643 0.91654 0.77273 0.0
H1090 H 0.14634 0.91258 0.73189 0.0
C1091 C 0.30119 0.93108 0.64271 0.0
C1092 C 0.23138 0.9468 0.67766 0.0
H1093 H 0.20272 0.91073 0.72418 0.0
C1094 C 0.20999 0.96803 0.6767 0.0
C1095 C 0.22787 0.92487 0.69409 0.0
C1096 C 0.25025 0.90161 0.6962 0.0
C1097 C 0.18648 0.96943 0.69324 0.0
C1098 C 0.18467 0.94928 0.71119 0.0
C1099 C 0.20429 0.92627 0.71047 0.0
C1100 C 0.16668 0.9544 0.73328 0.0
C1101 C 0.16467 0.99331 0.69209 0.0
C1102 C 0.1711 0.97944 0.74746 0.0
C1103 C 0.15991 0.98171 0.77079 0.0
C1104 C 0.1444 0.95882 0.78046 0.0
C1105 C 0.13863 0.93441 0.76586 0.0
C1106 C 0.14973 0.93221 0.74246 0.0
H1107 H 0.16215 -0.00091 0.67348 0.0
H1108 H 0.14335 0.9872 0.70001 0.0
H1109 H 0.17233 0.01279 0.70194 0.0
H1110 H 0.1848 0.99649 0.74103 0.0
H1111 H 0.16457 0.00087 0.78153 0.0
H1112 H 0.48996 0.20409 0.83701 0.0
H1113 H 0.49092 0.23347 0.80243 0.0
H1114 H 0.55163 0.17444 0.76588 0.0
H1115 H 0.55167 0.14542 0.80099 0.0
H1116 H 0.56717 0.22787 0.75918 0.0
H1117 H 0.45144 0.2185 0.7424 0.0
H1118 H 0.45645 0.2327 0.77188 0.0
H1119 H 0.46849 0.19665 0.76323 0.0
C1120 C 0.50329 0.19716 0.82152 0.0
C1121 C 0.52044 0.17223 0.82152 0.0
C1122 C 0.50373 0.21394 0.80173 0.0
C1123 C 0.52074 0.20576 0.78134 0.0
C1124 C 0.53813 0.181 0.78137 0.0
H1125 H 0.49396 0.28989 0.64999 0.0
H1126 H 0.49739 0.25473 0.68047 0.0
C1127 C 0.5381 0.16443 0.80136 0.0
C1128 C 0.52097 0.22364 0.76032 0.0
H1129 H 0.47677 0.25682 0.72363 0.0
C1130 C 0.54744 0.23394 0.75121 0.0
C1131 C 0.49529 0.23112 0.74962 0.0
C1132 C 0.46638 0.21888 0.75714 0.0
C1133 C 0.54884 0.25224 0.73215 0.0
C1134 C 0.52296 0.26127 0.72253 0.0
C1135 C 0.49659 0.25026 0.7312 0.0
C1136 C 0.5225 0.28214 0.70352 0.0
C1137 C 0.57806 0.26129 0.72237 0.0
C1138 C 0.53543 0.3093 0.70633 0.0
C1139 C 0.5339 0.32928 0.68872 0.0
C1140 C 0.51869 0.32271 0.66837 0.0
C1141 C 0.50556 0.29565 0.66566 0.0
C1142 C 0.50759 0.27551 0.68301 0.0
H1143 H 0.59495 0.24533 0.72594 0.0
H1144 H 0.57812 0.26392 0.70296 0.0
H1145 H 0.58395 0.28215 0.73112 0.0
H1146 H 0.54628 0.31528 0.72231 0.0
H1147 H 0.54405 0.35007 0.69127 0.0
H1148 H 0.12784 0.59669 0.6684 0.0
H1149 H 0.16254 0.59667 0.69951 0.0
H1150 H 0.11133 0.53385 0.73617 0.0
H1151 H 0.07668 0.53351 0.70469 0.0
H1152 H 0.153 0.6065 0.75136 0.0
H1153 H 0.19434 0.4971 0.72253 0.0
H1154 H 0.17414 0.51879 0.70346 0.0
H1155 H 0.15601 0.50159 0.72766 0.0
C1156 C 0.12412 0.58284 0.68305 0.0
C1157 C 0.10012 0.56463 0.68392 0.0
C1158 C 0.14373 0.58302 0.70088 0.0
C1159 C 0.13966 0.56491 0.71985 0.0
C1160 C 0.11494 0.54768 0.72144 0.0
H1161 H 0.26233 0.53137 0.82751 0.0
H1162 H 0.22074 0.52921 0.80265 0.0
C1163 C 0.09515 0.54764 0.70359 0.0
C1164 C 0.16211 0.56345 0.73731 0.0
H1165 H 0.21744 0.52147 0.75354 0.0
C1166 C 0.16696 0.58785 0.75204 0.0
C1167 C 0.18019 0.53905 0.73802 0.0
C1168 C 0.17619 0.51262 0.72203 0.0
C1169 C 0.18974 0.58863 0.76738 0.0
C1170 C 0.20847 0.5646 0.76752 0.0
C1171 C 0.2031 0.53987 0.75327 0.0
C1172 C 0.23424 0.56509 0.78182 0.0
C1173 C 0.19355 0.61516 0.7833 0.0
C1174 C 0.256 0.5854 0.77781 0.0
C1175 C 0.27976 0.58671 0.79194 0.0
C1176 C 0.28228 0.56757 0.81023 0.0
C1177 C 0.261 0.54647 0.81359 0.0
C1178 C 0.23719 0.54523 0.79946 0.0
H1179 H 0.17323 0.62779 0.786 0.0
H1180 H 0.20088 0.6094 0.80086 0.0
H1181 H 0.21007 0.62919 0.77501 0.0
H1182 H 0.25444 0.60044 0.76387 0.0
H1183 H 0.29587 0.60307 0.78879 0.0
H1184 H 0.14697 0.70845 0.15016 0.0
H1185 H 0.19171 0.7357 0.14885 0.0
H1186 H 0.21709 0.69298 0.08169 0.0
H1187 H 0.17251 0.66489 0.08321 0.0
H1188 H 0.26108 0.6961 0.11052 0.0
H1189 H 0.2101 0.80359 0.10934 0.0
H1190 H 0.19702 0.78418 0.1343 0.0
H1191 H 0.1902 0.7707 0.10475 0.0
C1192 C 0.16203 0.70484 0.13507 0.0
C1193 C 0.15613 0.68464 0.1167 0.0
C1194 C 0.18751 0.72063 0.13426 0.0
C1195 C 0.2074 0.71696 0.11487 0.0
C1196 C 0.20189 0.69636 0.09672 0.0
H1197 H 0.35139 0.83576 0.09379 0.0
H1198 H 0.30642 0.80899 0.08974 0.0
C1199 C 0.17647 0.68029 0.09762 0.0
C1200 C 0.23428 0.73408 0.11401 0.0
H1201 H 0.25975 0.80282 0.11904 0.0
C1202 C 0.26079 0.71944 0.11214 0.0
C1203 C 0.23394 0.76457 0.11565 0.0
C1204 C 0.20628 0.78168 0.11586 0.0
C1205 C 0.28694 0.73441 0.11278 0.0
C1206 C 0.28651 0.7648 0.11604 0.0
C1207 C 0.26005 0.7795 0.11696 0.0
C1208 C 0.31325 0.78166 0.11892 0.0
C1209 C 0.31473 0.71748 0.10977 0.0
C1210 C 0.33156 0.77577 0.13708 0.0
C1211 C 0.35728 0.79084 0.13933 0.0
C1212 C 0.36497 0.81248 0.1237 0.0
C1213 C 0.34604 0.81922 0.10612 0.0
C1214 C 0.32039 0.8039 0.10374 0.0
H1215 H 0.31166 0.69646 0.10007 0.0
H1216 H 0.3317 0.72964 0.10004 0.0
H1217 H 0.32242 0.71299 0.12748 0.0
H1218 H 0.32606 0.75934 0.14947 0.0
H1219 H 0.37125 0.78535 0.15321 0.0
H1220 H 0.84125 0.14926 0.09912 0.0
H1221 H 0.81729 0.19603 0.09801 0.0
H1222 H 0.7852 0.18865 0.17035 0.0
H1223 H 0.80803 0.14128 0.17117 0.0
H1224 H 0.74416 0.20706 0.14492 0.0
H1225 H 0.84143 0.27196 0.12544 0.0
H1226 H 0.83693 0.24359 0.10341 0.0
H1227 H 0.84352 0.23493 0.13337 0.0
C1228 C 0.82931 0.15775 0.11485 0.0
C1229 C 0.82668 0.14171 0.13529 0.0
C1230 C 0.81574 0.18457 0.11424 0.0
C1231 C 0.79989 0.1962 0.13425 0.0
C1232 C 0.79736 0.18021 0.1547 0.0
H1233 H 0.74968 0.37494 0.15577 0.0
H1234 H 0.77183 0.32737 0.15601 0.0
C1235 C 0.81049 0.15317 0.15518 0.0
C1236 C 0.7852 0.22461 0.13373 0.0
H1237 H 0.7963 0.29522 0.12206 0.0
C1238 C 0.7556 0.22638 0.14004 0.0
C1239 C 0.80016 0.24992 0.12763 0.0
C1240 C 0.83231 0.25012 0.12233 0.0
C1241 C 0.74057 0.25266 0.14043 0.0
C1242 C 0.7553 0.27776 0.13348 0.0
C1243 C 0.78489 0.27596 0.12716 0.0
C1244 C 0.74093 0.3064 0.13363 0.0
C1245 C 0.70929 0.25333 0.14903 0.0
C1246 C 0.71613 0.31061 0.12095 0.0
C1247 C 0.70304 0.3378 0.12117 0.0
C1248 C 0.71498 0.3614 0.13358 0.0
C1249 C 0.74 0.35721 0.14596 0.0
C1250 C 0.75272 0.33 0.14609 0.0
H1251 H 0.70387 0.23487 0.16019 0.0
H1252 H 0.70385 0.27359 0.15947 0.0
H1253 H 0.69556 0.25184 0.13354 0.0
H1254 H 0.70707 0.29298 0.11063 0.0
H1255 H 0.68395 0.34048 0.11126 0.0
H1256 H 0.3802 0.71318 0.334 0.0
H1257 H 0.33381 0.73814 0.33719 0.0
H1258 H 0.31062 0.69398 0.40072 0.0
H1259 H 0.35674 0.66817 0.39721 0.0
H1260 H 0.26678 0.6948 0.37231 0.0
H1261 H 0.31085 0.80494 0.38172 0.0
H1262 H 0.32477 0.78616 0.35518 0.0
H1263 H 0.33286 0.7732 0.38362 0.0
C1264 C 0.36524 0.70877 0.34867 0.0
C1265 C 0.37219 0.68881 0.36543 0.0
C1266 C 0.33881 0.72326 0.35058 0.0
C1267 C 0.31902 0.71851 0.36953 0.0
C1268 C 0.32567 0.69817 0.38606 0.0
H1269 H 0.16838 0.8289 0.40348 0.0
H1270 H 0.21527 0.80472 0.40384 0.0
C1271 C 0.352 0.68341 0.38401 0.0
C1272 C 0.29107 0.73418 0.3717 0.0
H1273 H 0.26108 0.80143 0.37294 0.0
C1274 C 0.26555 0.71813 0.37264 0.0
C1275 C 0.28942 0.76464 0.37261 0.0
C1276 C 0.31595 0.78324 0.37349 0.0
C1277 C 0.23845 0.73164 0.37373 0.0
C1278 C 0.23684 0.76202 0.37316 0.0
C1279 C 0.26233 0.77813 0.37299 0.0
C1280 C 0.20891 0.77743 0.37249 0.0
C1281 C 0.21186 0.71318 0.37579 0.0
C1282 C 0.19014 0.77072 0.35439 0.0
C1283 C 0.16333 0.78428 0.35426 0.0
C1284 C 0.15494 0.80523 0.372 0.0
C1285 C 0.17425 0.81285 0.38957 0.0
C1286 C 0.201 0.79901 0.38982 0.0
H1287 H 0.2166 0.69223 0.3835 0.0
H1288 H 0.19448 0.72424 0.38696 0.0
H1289 H 0.20383 0.70853 0.35788 0.0
H1290 H 0.19614 0.75481 0.34041 0.0
H1291 H 0.14908 0.77817 0.34033 0.0
H1292 H 0.80208 0.35271 0.31626 0.0
H1293 H 0.77592 0.30719 0.31734 0.0
H1294 H 0.82753 0.28062 0.37382 0.0
H1295 H 0.85451 0.32561 0.37222 0.0
H1296 H 0.81899 0.23678 0.34317 0.0
H1297 H 0.71453 0.2909 0.36724 0.0
H1298 H 0.73053 0.30207 0.33969 0.0
H1299 H 0.74825 0.30999 0.3668 0.0
C1300 C 0.80801 0.33705 0.32877 0.0
C1301 C 0.83018 0.34282 0.3443 0.0
C1302 C 0.79289 0.31116 0.3295 0.0
C1303 C 0.79922 0.29086 0.34612 0.0
C1304 C 0.82212 0.29608 0.36098 0.0
H1305 H 0.68474 0.15681 0.3949 0.0
H1306 H 0.71326 0.20048 0.38999 0.0
C1307 C 0.83755 0.32179 0.36002 0.0
C1308 C 0.78174 0.2644 0.34836 0.0
H1309 H 0.71299 0.24055 0.35833 0.0
C1310 C 0.79582 0.23758 0.34653 0.0
C1311 C 0.75156 0.26552 0.35319 0.0
C1312 C 0.73535 0.29367 0.3571 0.0
C1313 C 0.78056 0.21184 0.34923 0.0
C1314 C 0.75023 0.21291 0.35311 0.0
C1315 C 0.73619 0.23974 0.35509 0.0
C1316 C 0.7327 0.18654 0.35577 0.0
C1317 C 0.79723 0.18388 0.34857 0.0
C1318 C 0.73372 0.16444 0.33798 0.0
C1319 C 0.71776 0.13933 0.3409 0.0
C1320 C 0.69999 0.13614 0.36143 0.0
C1321 C 0.69822 0.15868 0.37887 0.0
C1322 C 0.71452 0.18362 0.37609 0.0
H1323 H 0.82011 0.18747 0.35267 0.0
H1324 H 0.78761 0.16881 0.36137 0.0
H1325 H 0.79694 0.1735 0.33053 0.0
H1326 H 0.74687 0.16657 0.32183 0.0
H1327 H 0.7193 0.12244 0.32703 0.0
H1328 H 0.65131 0.16322 0.88533 0.0
H1329 H 0.69821 0.18714 0.88475 0.0
H1330 H 0.6657 0.25197 0.8408 0.0
H1331 H 0.61914 0.22789 0.84078 0.0
H1332 H 0.71894 0.23394 0.82536 0.0
H1333 H 0.71673 0.26071 0.92202 0.0
H1334 H 0.71303 0.22295 0.91473 0.0
H1335 H 0.68548 0.24771 0.90723 0.0
C1336 C 0.65419 0.18252 0.87549 0.0
C1337 C 0.63145 0.19372 0.8632 0.0
C1338 C 0.68094 0.19628 0.87531 0.0
C1339 C 0.68528 0.22166 0.86311 0.0
C1340 C 0.6628 0.23249 0.85043 0.0
H1341 H 0.82244 0.34564 0.88297 0.0
H1342 H 0.77629 0.32059 0.8813 0.0
C1343 C 0.63617 0.21867 0.85045 0.0
C1344 C 0.71322 0.23702 0.8634 0.0
H1345 H 0.76026 0.27022 0.90014 0.0
C1346 C 0.72797 0.24191 0.84171 0.0
C1347 C 0.72472 0.24783 0.88472 0.0
C1348 C 0.70907 0.24482 0.90848 0.0
C1349 C 0.75405 0.25706 0.84075 0.0
C1350 C 0.76605 0.26702 0.86211 0.0
C1351 C 0.75116 0.26238 0.88379 0.0
C1352 C 0.79393 0.28246 0.86241 0.0
C1353 C 0.76813 0.26282 0.81683 0.0
C1354 C 0.8192 0.2693 0.85244 0.0
C1355 C 0.84553 0.28366 0.85317 0.0
C1356 C 0.84719 0.31131 0.8642 0.0
C1357 C 0.82188 0.3244 0.87429 0.0
C1358 C 0.79551 0.31009 0.8734 0.0
H1359 H 0.75242 0.26139 0.80266 0.0
H1360 H 0.7782 0.28446 0.81687 0.0
H1361 H 0.7852 0.24645 0.81236 0.0
H1362 H 0.81864 0.24773 0.84439 0.0
H1363 H 0.86465 0.27284 0.84543 0.0
H1364 H 0.32631 0.65994 0.86957 0.0
H1365 H 0.30581 0.70789 0.86508 0.0
H1366 H 0.22268 0.67805 0.89049 0.0
H1367 H 0.24288 0.6302 0.8951 0.0
H1368 H 0.25888 0.71813 0.83518 0.0
H1369 H 0.23337 0.75526 0.92861 0.0
H1370 H 0.25889 0.72667 0.92051 0.0
H1371 H 0.22089 0.71973 0.92063 0.0
C1372 C 0.30379 0.66373 0.87464 0.0
C1373 C 0.28622 0.64126 0.8827 0.0
C1374 C 0.29211 0.6911 0.87199 0.0
C1375 C 0.2628 0.69654 0.87764 0.0
C1376 C 0.24544 0.67442 0.88638 0.0
H1377 H 0.14424 0.83859 0.86456 0.0
H1378 H 0.16727 0.79268 0.87206 0.0
C1379 C 0.25703 0.64704 0.8889 0.0
C1380 C 0.2498 0.72462 0.87272 0.0
H1381 H 0.21381 0.78277 0.89888 0.0
C1382 C 0.24923 0.73242 0.84909 0.0
C1383 C 0.237 0.74299 0.89091 0.0
C1384 C 0.23769 0.73595 0.91663 0.0
C1385 C 0.23564 0.75788 0.84309 0.0
C1386 C 0.22286 0.77634 0.86129 0.0
C1387 C 0.22357 0.76858 0.88495 0.0
C1388 C 0.2088 0.8039 0.85619 0.0
C1389 C 0.23437 0.76432 0.81726 0.0
C1390 C 0.22455 0.82549 0.84489 0.0
C1391 C 0.21142 0.85162 0.84043 0.0
C1392 C 0.18235 0.85684 0.84743 0.0
C1393 C 0.16664 0.83522 0.85886 0.0
C1394 C 0.17977 0.80901 0.86322 0.0
H1395 H 0.23766 0.74457 0.80559 0.0
H1396 H 0.21338 0.77419 0.81358 0.0
H1397 H 0.2517 0.7797 0.81256 0.0
H1398 H 0.24714 0.82229 0.8398 0.0
H1399 H 0.22424 0.86789 0.83179 0.0
H1400 H 0.82079 0.17661 0.60246 0.0
H1401 H 0.77641 0.20529 0.60272 0.0
H1402 H 0.8145 0.2709 0.64741 0.0
H1403 H 0.85883 0.24261 0.64722 0.0
H1404 H 0.74035 0.22664 0.64252 0.0
H1405 H 0.7876 0.31442 0.58995 0.0
H1406 H 0.80461 0.27957 0.59109 0.0
H1407 H 0.8073 0.30576 0.61524 0.0
C1408 C 0.81967 0.19709 0.61241 0.0
C1409 C 0.84339 0.2074 0.62471 0.0
C1410 C 0.79434 0.21343 0.61252 0.0
C1411 C 0.79244 0.24038 0.62476 0.0
C1412 C 0.81579 0.25039 0.6375 0.0
H1413 H 0.64128 0.34276 0.66698 0.0
H1414 H 0.68655 0.31568 0.66521 0.0
C1415 C 0.84103 0.23408 0.63747 0.0
C1416 C 0.76598 0.25805 0.62439 0.0
H1417 H 0.74064 0.32263 0.60758 0.0
C1418 C 0.74034 0.24757 0.63482 0.0
C1419 C 0.76606 0.2852 0.61408 0.0
C1420 C 0.79278 0.29688 0.60175 0.0
C1421 C 0.71482 0.26386 0.63568 0.0
C1422 C 0.71514 0.29143 0.62609 0.0
C1423 C 0.74061 0.30162 0.61516 0.0
C1424 C 0.68904 0.30979 0.62702 0.0
C1425 C 0.68766 0.25135 0.64665 0.0
C1426 C 0.67614 0.31641 0.60605 0.0
C1427 C 0.65032 0.33199 0.60697 0.0
C1428 C 0.63707 0.34134 0.6289 0.0
C1429 C 0.65082 0.33578 0.64981 0.0
C1430 C 0.67659 0.32016 0.64886 0.0
H1431 H 0.68944 0.22768 0.64821 0.0
H1432 H 0.68349 0.26133 0.6647 0.0
H1433 H 0.66885 0.25596 0.63606 0.0
H1434 H 0.68558 0.30874 0.58901 0.0
H1435 H 0.64034 0.33595 0.59053 0.0
H1436 H 0.30062 0.84596 0.5813 0.0
H1437 H 0.27031 0.8034 0.58456 0.0
H1438 H 0.31552 0.77885 0.64527 0.0
H1439 H 0.34564 0.82178 0.64248 0.0
H1440 H 0.28279 0.74567 0.58317 0.0
H1441 H 0.23207 0.78078 0.67071 0.0
H1442 H 0.25352 0.80458 0.65278 0.0
H1443 H 0.27067 0.77877 0.67025 0.0
C1444 C 0.30432 0.83143 0.59527 0.0
C1445 C 0.32542 0.8374 0.61177 0.0
C1446 C 0.28692 0.80712 0.59711 0.0
C1447 C 0.29024 0.78833 0.61546 0.0
C1448 C 0.31212 0.7935 0.63133 0.0
H1449 H 0.20893 0.62927 0.65397 0.0
H1450 H 0.2389 0.67219 0.65082 0.0
C1451 C 0.32947 0.81791 0.62959 0.0
C1452 C 0.27057 0.76351 0.61804 0.0
H1453 H 0.22116 0.7335 0.65615 0.0
C1454 C 0.26922 0.74307 0.59908 0.0
C1455 C 0.25275 0.76029 0.63878 0.0
C1456 C 0.25204 0.78239 0.65921 0.0
C1457 C 0.25095 0.71916 0.60047 0.0
C1458 C 0.23344 0.71581 0.62129 0.0
C1459 C 0.23468 0.73623 0.64024 0.0
C1460 C 0.2142 0.69076 0.62392 0.0
C1461 C 0.25087 0.69734 0.57988 0.0
C1462 C 0.19001 0.68743 0.6102 0.0
C1463 C 0.17269 0.66299 0.61204 0.0
C1464 C 0.17944 0.64147 0.62755 0.0
C1465 C 0.20325 0.64535 0.64173 0.0
C1466 C 0.22039 0.66986 0.64 0.0
H1467 H 0.26925 0.70034 0.56694 0.0
H1468 H 0.25176 0.67512 0.58623 0.0
H1469 H 0.23059 0.69954 0.57056 0.0
H1470 H 0.18473 0.70358 0.5979 0.0
H1471 H 0.15448 0.66064 0.6009 0.0
H1472 H 0.92489 0.45064 0.92985 0.0
H1473 H 0.94116 0.48007 0.96347 0.0
H1474 H 0.96081 0.40313 -0.0005 0.0
H1475 H 0.94614 0.37368 0.96515 0.0
H1476 H 0.9332 0.48838 0.01096 0.0
H1477 H 0.03955 0.43551 0.98881 0.0
H1478 H 0.00848 0.42731 0.97202 0.0
H1479 H 0.01183 0.41266 0.00055 0.0
C1480 C 0.93158 0.44008 0.94536 0.0
C1481 C 0.93452 0.41008 0.94505 0.0
C1482 C 0.94103 0.45685 0.96451 0.0
C1483 C 0.95311 0.44372 0.98361 0.0
C1484 C 0.95242 0.41364 0.9846 0.0
H1485 H 0.06778 0.53961 0.07771 0.0
H1486 H 0.04212 0.49954 0.05856 0.0
C1487 C 0.94372 0.39688 0.96517 0.0
C1488 C 0.96981 0.46151 0.00033 0.0
H1489 H 0.03887 0.47583 0.01503 0.0
C1490 C 0.95623 0.48541 0.01213 0.0
C1491 C -0.00013 0.45738 0.0021 0.0
C1492 C 0.0159 0.43197 0.9901 0.0
C1493 C 0.97207 0.50613 0.02462 0.0
C1494 C 0.00238 0.50311 0.02481 0.0
C1495 C 0.0157 0.47825 0.01446 0.0
C1496 C 0.02073 0.52631 0.03441 0.0
C1497 C 0.95608 0.53129 0.03698 0.0
C1498 C 0.01867 0.55414 0.02605 0.0
C1499 C 0.03305 0.5769 0.03702 0.0
C1500 C 0.05036 0.57204 0.05603 0.0
C1501 C 0.05479 0.54377 0.06285 0.0
C1502 C 0.0399 0.52099 0.05214 0.0
H1503 H 0.93405 0.52495 0.04322 0.0
H1504 H 0.96761 0.54023 0.05234 0.0
H1505 H 0.95378 0.54854 0.02428 0.0
H1506 H 0.00486 0.55848 0.01177 0.0
H1507 H 0.02939 0.59858 0.03152 0.0
H1508 H 0.10927 0.00051 0.91948 0.0
H1509 H 0.07839 0.01584 0.9539 0.0
H1510 H 0.01647 0.95082 0.93516 0.0
H1511 H 0.04745 0.9352 0.90043 0.0
H1512 H 0.9965 0.01213 0.94088 0.0
H1513 H 0.05596 0.97523 0.01701 0.0
H1514 H 0.07678 0.99277 0.99425 0.0
H1515 H 0.06065 0.95852 0.98758 0.0
C1516 C 0.08935 0.98905 0.92293 0.0
C1517 C 0.08065 0.96671 0.90729 0.0
C1518 C 0.07182 -0.00221 0.94263 0.0
C1519 C 0.04532 0.98436 0.947 0.0
C1520 C 0.03701 0.96128 0.93201 0.0
H1521 H 0.89885 0.00957 0.04063 0.0
H1522 H 0.93264 0.00065 0.00689 0.0
C1523 C 0.05473 0.95229 0.91233 0.0
C1524 C 0.02531 0.99629 0.96598 0.0
H1525 H 0.01559 0.00548 0.02595 0.0
C1526 C 0.00056 0.01064 0.9595 0.0
C1527 C 0.03117 0.99477 0.99012 0.0
C1528 C 0.05747 0.97935 -0.0022 0.0
C1529 C 0.98119 0.02336 0.97668 0.0
C1530 C 0.98656 0.02113 0.00089 0.0
C1531 C 0.01168 0.00731 0.00734 0.0
C1532 C 0.96493 0.03004 0.01981 0.0
C1533 C 0.95521 0.03913 0.96877 0.0
C1534 C 0.97186 0.04972 0.03824 0.0
C1535 C 0.95248 0.05486 0.05773 0.0
C1536 C 0.92624 0.03999 0.05908 0.0
C1537 C 0.91896 0.02131 0.04008 0.0
C1538 C 0.93816 0.01633 0.02068 0.0
H1539 H 0.95909 0.04708 0.95067 0.0
H1540 H 0.93668 0.02414 0.9683 0.0
H1541 H 0.94923 0.05768 0.98112 0.0
H1542 H 0.99258 0.06033 0.03788 0.0
H1543 H 0.95867 0.06919 0.07222 0.0
H1544 H 0.55789 0.06874 0.92632 0.0
H1545 H 0.54601 0.03489 0.95724 0.0
H1546 H 0.48199 0.09419 0.98872 0.0
H1547 H 0.49354 0.12799 0.95788 0.0
H1548 H 0.5436 0.03993 0.00819 0.0
H1549 H 0.4361 0.02073 0.97145 0.0
H1550 H 0.46479 0.03866 0.95535 0.0
H1551 H 0.44436 0.05767 0.97895 0.0
C1552 C 0.54175 0.07482 0.94013 0.0
C1553 C 0.52637 0.10081 0.93955 0.0
C1554 C 0.5349 0.05544 0.9577 0.0
C1555 C 0.51268 0.06186 0.97486 0.0
C1556 C 0.49876 0.08864 0.97529 0.0
H1557 H 0.43472 0.9517 0.08233 0.0
H1558 H 0.44472 0.99265 0.05722 0.0
C1559 C 0.5055 0.10794 0.95774 0.0
C1560 C 0.50301 0.03991 0.9915 0.0
H1561 H 0.44642 0.99615 0.00563 0.0
C1562 C 0.52234 0.03043 0.00773 0.0
C1563 C 0.47518 0.02768 0.99081 0.0
C1564 C 0.45392 0.03647 0.97311 0.0
C1565 C 0.51463 0.0088 0.02326 0.0
C1566 C 0.48707 0.99611 0.02219 0.0
C1567 C 0.46747 0.00606 0.00638 0.0
C1568 C 0.47916 0.97103 0.03616 0.0
C1569 C 0.53609 -0.00042 0.04062 0.0
C1570 C 0.49441 0.94517 0.03186 0.0
C1571 C 0.48871 0.92192 0.04595 0.0
C1572 C 0.46754 0.92403 0.06461 0.0
C1573 C 0.45114 0.94946 0.06809 0.0
C1574 C 0.45691 0.97286 0.05388 0.0
H1575 H 0.55264 0.01636 0.0437 0.0
H1576 H 0.52516 0.99476 0.05787 0.0
H1577 H 0.54731 0.97973 0.03339 0.0
H1578 H 0.51122 0.94318 0.01789 0.0
H1579 H 0.50155 0.90253 0.04264 0.0
H1580 H 0.62176 0.48696 0.01338 0.0
H1581 H 0.5856 0.4856 0.98329 0.0
H1582 H 0.52029 0.46404 0.03637 0.0
H1583 H 0.55647 0.46358 0.06598 0.0
H1584 H 0.50995 0.43655 -0.00225 0.0
H1585 H 0.53104 0.5498 0.97614 0.0
H1586 H 0.56208 0.5272 0.97009 0.0
H1587 H 0.54773 0.53313 0.00011 0.0
C1588 C 0.59977 0.48138 0.01846 0.0
C1589 C 0.59194 0.47553 0.04205 0.0
C1590 C 0.57904 0.48101 0.00134 0.0
C1591 C 0.54998 0.47572 0.0077 0.0
C1592 C 0.54249 0.46842 0.031 0.0
H1593 H 0.40365 0.53188 0.93099 0.0
H1594 H 0.44366 0.52771 0.95747 0.0
C1595 C 0.56327 0.46808 0.04795 0.0
C1596 C 0.52709 0.47839 0.99046 0.0
H1597 H 0.49837 0.52412 0.95228 0.0
C1598 C 0.50739 0.45575 0.98786 0.0
C1599 C 0.52328 0.50371 0.97792 0.0
C1600 C 0.54196 0.52995 0.98137 0.0
C1601 C 0.48403 0.45769 0.97324 0.0
C1602 C 0.48104 0.48241 0.95979 0.0
C1603 C 0.50077 0.50504 0.96235 0.0
C1604 C 0.45737 0.48544 0.94331 0.0
C1605 C 0.46227 0.4336 0.97321 0.0
C1606 C 0.45217 0.46352 0.92615 0.0
C1607 C 0.42885 0.4655 0.91172 0.0
C1608 C 0.41105 0.49 0.91344 0.0
C1609 C 0.41711 0.51275 0.92952 0.0
C1610 C 0.43994 0.51035 0.94456 0.0
H1611 H 0.46213 0.422 0.98995 0.0
H1612 H 0.44017 0.44176 0.97094 0.0
H1613 H 0.46808 0.41773 0.95848 0.0
H1614 H 0.466 0.44472 0.92402 0.0
H1615 H 0.42487 0.44795 0.89903 0.0
H1616 H 0.97233 0.12604 0.5294 0.0
H1617 H 0.98905 0.08781 0.50094 0.0
H1618 H 0.93231 0.02775 0.53552 0.0
H1619 H 0.91513 0.06615 0.56391 0.0
H1620 H 0.01714 0.04142 0.51833 0.0
H1621 H 0.92582 0.00491 0.46506 0.0
H1622 H 0.92608 0.03957 0.48091 0.0
H1623 H 0.91758 0.00757 0.49644 0.0
C1624 C 0.96267 0.10491 0.53038 0.0
C1625 C 0.94257 0.09891 0.54884 0.0
C1626 C 0.97229 0.08312 0.51418 0.0
C1627 C 0.96194 0.05503 0.51618 0.0
C1628 C 0.9402 0.04944 0.53347 0.0
H1629 H 0.01286 0.88696 0.46159 0.0
H1630 H 0.99443 0.92864 0.48548 0.0
C1631 C 0.93038 0.07136 0.54965 0.0
C1632 C 0.97692 0.0311 0.50261 0.0
H1633 H 0.96697 0.97413 0.46388 0.0
C1634 C 0.00628 0.02684 0.50622 0.0
C1635 C 0.96257 0.01214 0.487 0.0
C1636 C 0.93133 0.01635 0.48191 0.0
C1637 C 0.02159 0.00362 0.49501 0.0
C1638 C 0.00716 0.98449 0.47962 0.0
C1639 C 0.97788 0.98892 0.47579 0.0
C1640 C 0.0217 0.95927 0.46756 0.0
C1641 C 0.05278 -0.00075 0.50024 0.0
C1642 C 0.04386 0.96271 0.45016 0.0
C1643 C 0.05463 0.93884 0.43654 0.0
C1644 C 0.04303 0.9114 0.44004 0.0
C1645 C 0.0221 0.9079 0.45846 0.0
C1646 C 0.01147 0.93166 0.47205 0.0
H1647 H 0.05885 0.01218 0.51623 0.0
H1648 H 0.0573 0.97618 0.50288 0.0
H1649 H 0.06665 0.00595 0.48496 0.0
H1650 H 0.05175 0.98397 0.4463 0.0
H1651 H 0.07056 0.94215 0.42231 0.0
H1652 H 0.4326 0.93124 0.5446 0.0
H1653 H 0.46638 0.9585 0.51956 0.0
H1654 H 0.44015 0.03723 0.55833 0.0
H1655 H 0.40747 0.00986 0.5838 0.0
H1656 H 0.45883 0.00035 0.49043 0.0
H1657 H 0.52475 0.04295 0.56344 0.0
H1658 H 0.49782 0.01558 0.56785 0.0
H1659 H 0.4874 0.05275 0.56644 0.0
C1660 C 0.43432 0.95432 0.54775 0.0
C1661 C 0.41823 0.96848 0.5664 0.0
C1662 C 0.45347 0.96989 0.53349 0.0
C1663 C 0.45633 -0.00017 0.53748 0.0
C1664 C 0.43916 0.01407 0.55547 0.0
H1665 H 0.56114 0.0867 0.42858 0.0
H1666 H 0.5215 0.08103 0.45828 0.0
C1667 C 0.42051 -0.00155 0.56999 0.0
C1668 C 0.47729 0.01596 0.52271 0.0
H1669 H 0.53746 0.05778 0.5251 0.0
C1670 C 0.47591 0.01307 0.498 0.0
C1671 C 0.49951 0.03264 0.53268 0.0
C1672 C 0.50272 0.03598 0.55905 0.0
C1673 C 0.49684 0.02535 0.48295 0.0
C1674 C 0.51925 0.04162 0.49295 0.0
C1675 C 0.51999 0.04556 0.51761 0.0
C1676 C 0.54444 0.05055 0.47824 0.0
C1677 C 0.49575 0.01938 0.45654 0.0
C1678 C 0.57088 0.03676 0.48068 0.0
C1679 C 0.59346 0.04009 0.46397 0.0
C1680 C 0.58991 0.05727 0.44456 0.0
C1681 C 0.56437 0.07327 0.44336 0.0
C1682 C 0.54168 0.06988 0.46016 0.0
H1683 H 0.47944 0.00286 0.45202 0.0
H1684 H 0.49017 0.03951 0.44799 0.0
H1685 H 0.5171 0.01188 0.44891 0.0
H1686 H 0.57344 0.02188 0.49462 0.0
H1687 H 0.61306 0.02778 0.46543 0.0
H1688 H 0.48159 0.39576 0.5469 0.0
H1689 H 0.47311 0.43164 0.51794 0.0
H1690 H 0.54472 0.48141 0.54273 0.0
H1691 H 0.55375 0.4452 0.57162 0.0
H1692 H 0.45901 0.48826 0.52821 0.0
H1693 H 0.55965 0.47922 0.47115 0.0
H1694 H 0.54905 0.45231 0.49182 0.0
H1695 H 0.56538 0.48528 0.50213 0.0
C1696 C 0.49585 0.41411 0.54599 0.0
C1697 C 0.5184 0.41764 0.56154 0.0
C1698 C 0.4909 0.43462 0.52946 0.0
C1699 C 0.50838 0.45905 0.52809 0.0
C1700 C 0.53131 0.46241 0.54322 0.0
H1701 H 0.50438 0.6111 0.44652 0.0
H1702 H 0.51167 0.57632 0.4767 0.0
C1703 C 0.53641 0.44175 0.55973 0.0
C1704 C 0.50145 0.48166 0.51169 0.0
H1705 H 0.52836 0.51815 0.46463 0.0
C1706 C 0.47412 0.49474 0.51424 0.0
C1707 C 0.52122 0.49001 0.49351 0.0
C1708 C 0.55037 0.47582 0.48928 0.0
C1709 C 0.46614 0.51626 0.49924 0.0
C1710 C 0.48595 0.52465 0.48116 0.0
C1711 C 0.51328 0.51164 0.47862 0.0
C1712 C 0.47893 0.54697 0.46459 0.0
C1713 C 0.43684 0.5302 0.50308 0.0
C1714 C 0.45764 0.54218 0.44813 0.0
C1715 C 0.4534 0.56205 0.4308 0.0
C1716 C 0.47061 0.5868 0.42963 0.0
C1717 C 0.49097 0.59209 0.44685 0.0
C1718 C 0.49518 0.57227 0.4641 0.0
H1719 H 0.42671 0.52584 0.52075 0.0
H1720 H 0.43833 0.55387 0.50141 0.0
H1721 H 0.42252 0.52153 0.48936 0.0
H1722 H 0.44513 0.52256 0.44808 0.0
H1723 H 0.43769 0.55734 0.41767 0.0
H1724 H 0.01652 0.5481 0.58764 0.0
H1725 H 0.98935 0.52633 0.55544 0.0
H1726 H 0.06627 0.52475 0.50951 0.0
H1727 H 0.09364 0.54597 0.54178 0.0
H1728 H 0.01394 0.5461 0.48955 0.0
H1729 H -0.00067 0.44046 0.53109 0.0
H1730 H 0.98903 0.47205 0.54911 0.0
H1731 H 0.02623 0.46609 0.5402 0.0
C1732 C 0.02762 0.54289 0.57074 0.0
C1733 C 0.05724 0.54816 0.56737 0.0
C1734 C 0.01211 0.53056 0.55238 0.0
C1735 C 0.02599 0.5235 0.5303 0.0
C1736 C 0.05529 0.52987 0.52653 0.0
H1737 H 0.98055 0.45102 0.39418 0.0
H1738 H 0.00443 0.47279 0.42804 0.0
C1739 C 0.07084 0.54206 0.54494 0.0
C1740 C 0.01008 0.50925 0.51112 0.0
H1741 H 0.97785 0.44607 0.49467 0.0
C1742 C 0.006 0.52425 0.49062 0.0
C1743 C -0.00039 0.48085 0.51278 0.0
C1744 C 0.00386 0.46373 0.53437 0.0
C1745 C 0.99158 0.51159 0.47162 0.0
C1746 C 0.98179 0.48285 0.47297 0.0
C1747 C 0.9855 0.46803 0.49366 0.0
C1748 C 0.96807 0.46767 0.45291 0.0
C1749 C 0.98665 0.52936 0.45049 0.0
C1750 C 0.94033 0.45608 0.45594 0.0
C1751 C 0.92678 0.44325 0.43663 0.0
C1752 C 0.9408 0.44197 0.41404 0.0
C1753 C 0.96908 0.45228 0.41133 0.0
C1754 C 0.98267 0.46485 0.43062 0.0
H1755 H 0.98662 0.55278 0.4554 0.0
H1756 H 0.00434 0.52514 0.43686 0.0
H1757 H 0.96591 0.52389 0.4425 0.0
H1758 H 0.92883 0.45775 0.47309 0.0
H1759 H 0.90496 0.43544 0.43919 0.0
H1760 H 0.03376 0.45965 0.30878 0.0
H1761 H 0.05878 0.46183 0.27035 0.0
H1762 H 0.02065 0.38122 0.24786 0.0
H1763 H 0.99383 0.37979 0.28618 0.0
H1764 H 0.09399 0.43426 0.2386 0.0
H1765 H 0.983 0.43316 0.20485 0.0
H1766 H 0.98854 0.43337 0.23608 0.0
H1767 H 0.99546 0.40119 0.21772 0.0
C1768 C 0.03105 0.44199 0.29592 0.0
C1769 C 0.01089 0.42013 0.30023 0.0
C1770 C 0.0456 0.44317 0.27387 0.0
C1771 C 0.04071 0.4223 0.2558 0.0
C1772 C 0.02385 0.3982 0.2612 0.0
H1773 H 0.04713 0.51038 0.12326 0.0
H1774 H 0.05671 0.4659 0.14357 0.0
C1775 C 0.00871 0.39729 0.28321 0.0
C1776 C 0.04925 0.4291 0.23102 0.0
H1777 H 0.01877 0.45528 0.18271 0.0
C1778 C 0.07771 0.438 0.22599 0.0
C1779 C 0.02815 0.43365 0.21426 0.0
C1780 C 0.99706 0.425 0.2184 0.0
C1781 C 0.08469 0.45453 0.20639 0.0
C1782 C 0.06276 0.46199 0.1914 0.0
C1783 C 0.03546 0.44963 0.19442 0.0
C1784 C 0.06493 0.48784 0.17712 0.0
C1785 C 0.11485 0.46592 0.20301 0.0
C1786 C 0.06688 0.5148 0.18914 0.0
C1787 C 0.06073 0.53991 0.17785 0.0
C1788 C 0.05297 0.53858 0.15421 0.0
C1789 C 0.0533 0.51187 0.14149 0.0
C1790 C 0.05883 0.48653 0.15302 0.0
H1791 H 0.13082 0.45079 0.2096 0.0
H1792 H 0.12036 0.46964 0.18407 0.0
H1793 H 0.11655 0.48671 0.21331 0.0
H1794 H 0.07086 0.51632 0.20787 0.0
H1795 H 0.06065 0.5603 0.18797 0.0
H1796 H 0.02926 0.95652 0.35181 0.0
H1797 H 0.03147 0.99133 0.32011 0.0
H1798 H 0.01516 0.92265 0.2687 0.0
H1799 H 0.0127 0.88828 0.29989 0.0
H1800 H 0.06026 0.96689 0.25502 0.0
H1801 H 0.95298 0.01076 0.2878 0.0
H1802 H 0.98196 0.00791 0.30761 0.0
H1803 H 0.96461 0.97596 0.29662 0.0
C1804 C 0.02675 0.94891 0.33364 0.0
C1805 C 0.02051 0.91981 0.32827 0.0
C1806 C 0.02794 0.96876 0.31563 0.0
C1807 C 0.02334 0.95951 0.29212 0.0
C1808 C 0.01882 0.9302 0.28671 0.0
H1809 H 0.97187 0.95385 0.16302 0.0
H1810 H 0.00157 0.95674 0.19716 0.0
C1811 C 0.01726 0.91061 0.30458 0.0
C1812 C 0.02009 0.97987 0.27305 0.0
H1813 H 0.96602 0.01495 0.24755 0.0
C1814 C 0.04012 0.9784 0.25364 0.0
C1815 C 0.99402 0.9952 0.27136 0.0
C1816 C 0.97202 -0.00226 0.29189 0.0
C1817 C 0.03339 0.98917 0.2318 0.0
C1818 C 0.0057 0.00098 0.22924 0.0
C1819 C 0.98716 0.00566 0.24943 0.0
C1820 C 0.99309 0.00199 0.20568 0.0
C1821 C 0.05522 0.98593 0.21123 0.0
C1822 C 0.97857 0.02658 0.19874 0.0
C1823 C 0.96151 0.02493 0.17893 0.0
C1824 C 0.95832 -0.00149 0.16624 0.0
C1825 C 0.97408 0.97449 0.17246 0.0
C1826 C 0.99131 0.97621 0.1919 0.0
H1827 H 0.07743 0.98853 0.2174 0.0
H1828 H 0.05372 0.96394 0.20288 0.0
H1829 H 0.05158 0.00188 0.19767 0.0
H1830 H 0.9793 0.04657 0.20931 0.0
H1831 H 0.94923 0.04365 0.17462 0.0
H1832 H 0.56402 0.05818 0.34004 0.0
H1833 H 0.54176 0.0568 0.30177 0.0
H1834 H 0.4937 0.9815 0.32139 0.0
H1835 H 0.51458 0.98374 0.35988 0.0
H1836 H 0.55416 0.01665 0.27172 0.0
H1837 H 0.43625 0.015 0.28196 0.0
H1838 H 0.45807 0.02698 0.30602 0.0
H1839 H 0.44981 0.98926 0.30119 0.0
C1840 C 0.5478 0.04206 0.33652 0.0
C1841 C 0.54132 0.02086 0.35287 0.0
C1842 C 0.53507 0.04127 0.31461 0.0
C1843 C 0.51593 0.01907 0.30852 0.0
C1844 C 0.50774 -0.00067 0.32567 0.0
H1845 H 0.52576 0.89959 0.19985 0.0
H1846 H 0.52401 0.93312 0.23414 0.0
C1847 C 0.52 0.00046 0.34773 0.0
C1848 C 0.50941 0.01277 0.2833 0.0
H1849 H 0.45773 0.98349 0.24872 0.0
C1850 C 0.5328 0.01045 0.26658 0.0
C1851 C 0.48159 0.00489 0.27617 0.0
C1852 C 0.45504 0.00952 0.29231 0.0
C1853 C 0.52966 -0.00214 0.24391 0.0
C1854 C 0.50262 0.98676 0.23788 0.0
C1855 C 0.4786 0.99156 0.25358 0.0
C1856 C 0.50049 0.9661 0.21739 0.0
C1857 C 0.55582 0.99469 0.22708 0.0
C1858 C 0.48697 0.97324 0.19679 0.0
C1859 C 0.4879 0.95391 0.17692 0.0
C1860 C 0.50241 0.92735 0.17754 0.0
C1861 C 0.51478 0.92001 0.19861 0.0
C1862 C 0.51375 0.93912 0.21829 0.0
H1863 H 0.57239 0.01107 0.23128 0.0
H1864 H 0.56554 0.97307 0.22864 0.0
H1865 H 0.5499 0.99668 0.20845 0.0
H1866 H 0.47655 0.99399 0.19587 0.0
H1867 H 0.47811 0.96007 0.16093 0.0
H1868 H 0.47284 0.55931 0.31488 0.0
H1869 H 0.4794 0.52479 0.28145 0.0
H1870 H 0.51605 0.4637 0.32669 0.0
H1871 H 0.51017 0.49858 0.36031 0.0
H1872 H 0.55225 0.47543 0.29112 0.0
H1873 H 0.44761 0.45172 0.25347 0.0
H1874 H 0.45134 0.48984 0.25837 0.0
H1875 H 0.45042 0.4669 0.28325 0.0
C1876 C 0.48148 0.53822 0.31796 0.0
C1877 C 0.49144 0.53191 0.3402 0.0
C1878 C 0.48495 0.5183 0.29879 0.0
C1879 C 0.49806 0.49149 0.30151 0.0
C1880 C 0.50578 0.4842 0.32417 0.0
H1881 H 0.59501 0.40916 0.17843 0.0
H1882 H 0.56624 0.40905 0.21592 0.0
C1883 C 0.5024 0.5042 0.34339 0.0
C1884 C 0.50856 0.47404 0.28014 0.0
H1885 H 0.48927 0.45179 0.22482 0.0
C1886 C 0.53837 0.46934 0.27689 0.0
C1887 C 0.49048 0.46608 0.26157 0.0
C1888 C 0.45815 0.46865 0.26449 0.0
C1889 C 0.55087 0.4595 0.25492 0.0
C1890 C 0.53296 0.45376 0.23577 0.0
C1891 C 0.50295 0.45631 0.2395 0.0
C1892 C 0.54538 0.4499 0.21121 0.0
C1893 C 0.58331 0.45768 0.25185 0.0
C1894 C 0.54186 0.47202 0.19558 0.0
C1895 C 0.55813 0.47214 0.17421 0.0
C1896 C 0.57829 0.45009 0.16802 0.0
C1897 C 0.57991 0.42661 0.18276 0.0
C1898 C 0.56356 0.42655 0.20423 0.0
H1899 H 0.59411 0.46648 0.26769 0.0
H1900 H 0.58996 0.43483 0.24871 0.0
H1901 H 0.59112 0.46966 0.23628 0.0
H1902 H 0.52785 0.49019 0.20059 0.0
H1903 H 0.556 0.49036 0.16316 0.0
H1904 H -0.00048 0.53298 0.66416 0.0
H1905 H 0.99521 0.51504 0.70402 0.0
H1906 H 0.95705 0.59579 0.73005 0.0
H1907 H 0.9615 0.61384 0.69009 0.0
H1908 H 0.01739 0.53617 0.74627 0.0
H1909 H 0.8977 0.53636 0.75187 0.0
H1910 H 0.91839 0.54011 0.72435 0.0
H1911 H 0.91384 0.5703 0.74522 0.0
C1912 C 0.99077 0.54709 0.67836 0.0
C1913 C 0.98123 0.5749 0.67394 0.0
C1914 C 0.98807 0.53675 0.70116 0.0
C1915 C 0.97546 0.55395 0.71995 0.0
C1916 C 0.96635 0.58195 0.71573 0.0
H1917 H 0.98674 0.50589 0.86711 0.0
H1918 H 0.98663 0.5343 0.83179 0.0
C1919 C 0.96904 0.59226 0.6929 0.0
C1920 C 0.97176 0.54236 0.74388 0.0
H1921 H 0.921 0.52367 0.78612 0.0
C1922 C 0.99634 0.53357 0.75506 0.0
C1923 C 0.94422 0.53873 0.75516 0.0
C1924 C 0.91697 0.54662 0.74351 0.0
C1925 C 0.99416 0.52102 0.77716 0.0
C1926 C 0.96664 0.51767 0.78858 0.0
C1927 C 0.94206 0.52662 0.77746 0.0
C1928 C 0.96293 0.5029 0.8112 0.0
C1929 C 0.02126 0.51051 0.78768 0.0
C1930 C 0.94809 0.47668 0.81181 0.0
C1931 C 0.94783 0.46053 0.83202 0.0
C1932 C 0.96247 0.4703 0.85203 0.0
C1933 C 0.97548 0.4976 0.85196 0.0
C1934 C 0.97564 0.51378 0.83172 0.0
H1935 H 0.03969 0.50898 0.77438 0.0
H1936 H 0.0272 0.52581 0.80225 0.0
H1937 H 0.01787 0.48903 0.79514 0.0
H1938 H 0.93792 0.46801 0.79621 0.0
H1939 H 0.93746 0.43968 0.83147 0.0
H1940 H 0.98068 0.03988 0.63303 0.0
H1941 H 0.9862 0.00743 0.66494 0.0
H1942 H 0.90029 0.02856 0.69285 0.0
H1943 H 0.89474 0.06169 0.66092 0.0
H1944 H 0.93915 0.03932 0.72488 0.0
H1945 H 0.96108 0.93023 0.68671 0.0
H1946 H 0.98277 0.95531 0.67073 0.0
H1947 H 0.94403 0.95746 0.67032 0.0
C1948 C 0.96259 0.03703 0.64552 0.0
C1949 C 0.93741 0.05365 0.6446 0.0
C1950 C 0.96566 0.01814 0.66368 0.0
C1951 C 0.94355 0.01524 0.68123 0.0
C1952 C 0.91755 0.03026 0.6794 0.0
H1953 H 0.01239 0.97494 0.81882 0.0
H1954 H 0.9731 0.97286 0.79106 0.0
C1955 C 0.91441 0.04918 0.66112 0.0
C1956 C 0.95009 0.00106 0.70336 0.0
H1957 H 0.98833 0.94439 0.722 0.0
C1958 C 0.94889 0.01808 0.72456 0.0
C1959 C 0.96252 0.97324 0.70305 0.0
C1960 C 0.96235 0.95296 0.68148 0.0
C1961 C 0.96297 0.00956 0.74448 0.0
C1962 C 0.97833 0.98316 0.74319 0.0
C1963 C 0.97674 0.96473 0.72292 0.0
C1964 C 0.00119 0.9779 0.75984 0.0
C1965 C 0.96385 0.03022 0.76583 0.0
C1966 C 0.02991 0.97995 0.75135 0.0
C1967 C 0.05206 0.98123 0.767 0.0
C1968 C 0.04602 0.98024 0.79149 0.0
C1969 C 0.01753 0.97577 0.79998 0.0
C1970 C 0.99514 0.97474 0.78419 0.0
H1971 H 0.95222 0.05068 0.76333 0.0
H1972 H 0.95378 0.02006 0.78154 0.0
H1973 H 0.98651 0.03535 0.76966 0.0
H1974 H 0.0351 0.9824 0.73266 0.0
H1975 H 0.0739 0.98429 0.75996 0.0
H1976 H 0.42834 0.9018 0.70418 0.0
H1977 H 0.45283 0.90591 0.74151 0.0
H1978 H 0.50089 0.97847 0.71618 0.0
H1979 H 0.47751 0.9739 0.67869 0.0
H1980 H 0.53216 0.94686 0.7461 0.0
H1981 H 0.42188 0.97129 0.7853 0.0
H1982 H 0.42715 0.93606 0.77141 0.0
H1983 H 0.42927 0.96725 0.75378 0.0
C1984 C 0.44473 0.9181 0.7063 0.0
C1985 C 0.45042 0.93799 0.68868 0.0
C1986 C 0.4586 0.92051 0.7277 0.0
C1987 C 0.47797 0.9431 0.73191 0.0
C1988 C 0.48581 0.96104 0.71343 0.0
H1989 H 0.53536 0.06561 0.82789 0.0
H1990 H 0.53363 0.02786 0.79672 0.0
C1991 C 0.47228 0.95845 0.69198 0.0
C1992 C 0.48697 0.95099 0.75615 0.0
H1993 H 0.46031 0.98059 0.8091 0.0
C1994 C 0.51647 0.9537 0.76008 0.0
C1995 C 0.46647 0.95995 0.77442 0.0
C1996 C 0.43443 0.95875 0.77109 0.0
C1997 C 0.52597 0.96645 0.7813 0.0
C1998 C 0.50543 0.97696 0.7989 0.0
C1999 C 0.47604 0.97241 0.79563 0.0
C2000 C 0.51314 0.99651 0.81906 0.0
C2001 C 0.55787 0.96933 0.78438 0.0
C2002 C 0.5028 0.99132 0.84221 0.0
C2003 C 0.50351 0.01308 0.86012 0.0
C2004 C 0.51429 0.04048 0.85507 0.0
C2005 C 0.52676 0.04481 0.83236 0.0
C2006 C 0.52606 0.02307 0.81451 0.0
H2007 H 0.57004 0.95165 0.77443 0.0
H2008 H 0.5654 0.98998 0.77722 0.0
H2009 H 0.56298 0.96919 0.80333 0.0
H2010 H 0.49259 0.97104 0.84608 0.0
H2011 H 0.49384 0.00898 0.87744 0.0
H2012 H 0.43447 0.56093 0.84064 0.0
H2013 H 0.47231 0.55818 0.80856 0.0
H2014 H 0.40714 0.5465 0.7573 0.0
H2015 H 0.36982 0.54924 0.78899 0.0
H2016 H 0.47911 0.50855 0.78211 0.0
H2017 H 0.46368 0.59526 0.72117 0.0
H2018 H 0.44953 0.5976 0.75155 0.0
H2019 H 0.42948 0.57962 0.72875 0.0
C2020 C 0.42836 0.55905 0.82241 0.0
C2021 C 0.39937 0.55528 0.81715 0.0
C2022 C 0.44992 0.55738 0.80414 0.0
C2023 C 0.44259 0.55251 0.78046 0.0
C2024 C 0.41341 0.55103 0.77527 0.0
H2025 H 0.46212 0.45377 0.66085 0.0
H2026 H 0.45364 0.48998 0.69302 0.0
C2027 C 0.39205 0.55234 0.79342 0.0
C2028 C 0.46448 0.54318 0.76168 0.0
H2029 H 0.47812 0.54787 0.70218 0.0
C2030 C 0.47991 0.51775 0.76482 0.0
C2031 C 0.46563 0.55524 0.73916 0.0
C2032 C 0.45139 0.58363 0.73508 0.0
C2033 C 0.49354 0.5023 0.74549 0.0
C2034 C 0.49189 0.51279 0.72253 0.0
C2035 C 0.47906 0.53971 0.71978 0.0
C2036 C 0.49847 0.49387 0.70118 0.0
C2037 C 0.50718 0.47351 0.74939 0.0
C2038 C 0.52663 0.48457 0.69475 0.0
C2039 C 0.5316 0.46373 0.67628 0.0
C2040 C 0.50841 0.45185 0.66411 0.0
C2041 C 0.48043 0.46225 0.66999 0.0
C2042 C 0.47554 0.48308 0.68828 0.0
H2043 H 0.5048 0.46753 0.76817 0.0
H2044 H 0.49731 0.45639 0.73814 0.0
H2045 H 0.53049 0.4742 0.7442 0.0
H2046 H 0.54462 0.49281 0.70442 0.0
H2047 H 0.55342 0.45624 0.67211 0.0
loop_
_geom_bond_atom_site_label_1
_geom_bond_atom_site_label_2
_geom_bond_distance
_geom_bond_site_symmetry_2
_ccdc_geom_bond_type
Zn0 O6 1.969 . S
Zn0 O7 1.965 . S
Zn0 O11 2.024 . S
Zn0 O16 1.969 . S
Zn1 O8 1.969 . S
Zn1 O14 1.969 1_455 S
Zn1 O15 1.965 . S
Zn1 O17 2.024 . S
C2 O3 1.229 . S
C2 O11 1.058 . S
O3 C2 1.229 . S
C4 O5 1.229 . S
C4 O17 1.058 . S
O5 C4 1.229 . S
O6 Zn0 1.969 . S
O6 C9 1.267 . S
O7 Zn0 1.965 . S
O7 C18 1.260 . S
O8 Zn1 1.969 . S
O8 C18 1.258 . S
C9 O6 1.267 . S
C9 O10 1.228 . S
O10 C9 1.228 . S
O11 Zn0 2.024 . S
O11 C2 1.058 . S
C12 O13 1.228 . S
C12 O14 1.267 . S
O13 C12 1.228 . S
O14 Zn1 1.969 1_655 S
O14 C12 1.267 . S
O15 Zn1 1.965 . S
O15 C19 1.260 . S
O16 Zn0 1.969 . S
O16 C19 1.258 . S
O17 Zn1 2.024 . S
O17 C4 1.058 . S
C18 O7 1.260 . S
C18 O8 1.258 . S
C19 O15 1.260 . S
C19 O16 1.258 . S
Zn20 O26 1.969 . S
Zn20 O27 1.965 . S
Zn20 O31 2.024 . S
Zn20 O36 1.969 . S
Zn21 O28 1.969 . S
Zn21 O34 1.969 1_545 S
Zn21 O35 1.965 . S
Zn21 O37 2.024 . S
C22 O23 1.229 . S
C22 O31 1.058 . S
O23 C22 1.229 . S
C24 O25 1.229 . S
C24 O37 1.058 . S
O25 C24 1.229 . S
O26 Zn20 1.969 . S
O26 C29 1.267 . S
O27 Zn20 1.965 . S
O27 C38 1.260 . S
O28 Zn21 1.969 . S
O28 C38 1.258 . S
C29 O26 1.267 . S
C29 O30 1.228 . S
O30 C29 1.228 . S
O31 Zn20 2.024 . S
O31 C22 1.058 . S
C32 O33 1.228 . S
C32 O34 1.267 . S
O33 C32 1.228 . S
O34 Zn21 1.969 1_565 S
O34 C32 1.267 . S
O35 Zn21 1.965 . S
O35 C39 1.260 . S
O36 Zn20 1.969 . S
O36 C39 1.258 . S
O37 Zn21 2.024 . S
O37 C24 1.058 . S
C38 O27 1.260 . S
C38 O28 1.258 . S
C39 O35 1.260 . S
C39 O36 1.258 . S
Zn40 O46 1.969 . S
Zn40 O47 1.965 . S
Zn40 O51 2.024 . S
Zn40 O56 1.969 . S
Zn41 O48 1.969 . S
Zn41 O54 1.969 . S
Zn41 O55 1.965 . S
Zn41 O57 2.024 . S
C42 O43 1.229 . S
C42 O51 1.058 . S
O43 C42 1.229 . S
C44 O45 1.229 . S
C44 O57 1.058 . S
O45 C44 1.229 . S
O46 Zn40 1.969 . S
O46 C49 1.267 . S
O47 Zn40 1.965 . S
O47 C58 1.260 . S
O48 Zn41 1.969 . S
O48 C58 1.258 . S
C49 O46 1.267 . S
C49 O50 1.228 . S
O50 C49 1.228 . S
O51 Zn40 2.024 . S
O51 C42 1.058 . S
C52 O53 1.228 . S
C52 O54 1.267 . S
O53 C52 1.228 . S
O54 Zn41 1.969 . S
O54 C52 1.267 . S
O55 Zn41 1.965 . S
O55 C59 1.260 . S
O56 Zn40 1.969 . S
O56 C59 1.258 . S
O57 Zn41 2.024 . S
O57 C44 1.058 . S
C58 O47 1.260 . S
C58 O48 1.258 . S
C59 O55 1.260 . S
C59 O56 1.258 . S
Zn60 O66 1.969 . S
Zn60 O67 1.965 . S
Zn60 O71 2.024 . S
Zn60 O76 1.969 . S
Zn61 O68 1.969 . S
Zn61 O74 1.969 . S
Zn61 O75 1.965 . S
Zn61 O77 2.024 . S
C62 O63 1.229 . S
C62 O71 1.058 . S
O63 C62 1.229 . S
C64 O65 1.229 . S
C64 O77 1.058 . S
O65 C64 1.229 . S
O66 Zn60 1.969 . S
O66 C69 1.267 . S
O67 Zn60 1.965 . S
O67 C78 1.260 . S
O68 Zn61 1.969 . S
O68 C78 1.258 . S
C69 O66 1.267 . S
C69 O70 1.228 . S
O70 C69 1.228 . S
O71 Zn60 2.024 . S
O71 C62 1.058 . S
C72 O73 1.228 . S
C72 O74 1.267 . S
O73 C72 1.228 . S
O74 Zn61 1.969 . S
O74 C72 1.267 . S
O75 Zn61 1.965 . S
O75 C79 1.260 . S
O76 Zn60 1.969 . S
O76 C79 1.258 . S
O77 Zn61 2.024 . S
O77 C64 1.058 . S
C78 O67 1.260 . S
C78 O68 1.258 . S
C79 O75 1.260 . S
C79 O76 1.258 . S
Zn80 O86 1.969 . S
Zn80 O87 1.965 . S
Zn80 O91 2.024 . S
Zn80 O96 1.969 . S
Zn81 O88 1.969 . S
Zn81 O94 1.969 1_455 S
Zn81 O95 1.965 . S
Zn81 O97 2.024 . S
C82 O83 1.229 . S
C82 O91 1.058 . S
O83 C82 1.229 . S
C84 O85 1.229 . S
C84 O97 1.058 . S
O85 C84 1.229 . S
O86 Zn80 1.969 . S
O86 C89 1.267 . S
O87 Zn80 1.965 . S
O87 C98 1.260 . S
O88 Zn81 1.969 . S
O88 C98 1.258 . S
C89 O86 1.267 . S
C89 O90 1.228 . S
O90 C89 1.228 . S
O91 Zn80 2.024 . S
O91 C82 1.058 . S
C92 O93 1.228 . S
C92 O94 1.267 . S
O93 C92 1.228 . S
O94 Zn81 1.969 1_655 S
O94 C92 1.267 . S
O95 Zn81 1.965 . S
O95 C99 1.260 . S
O96 Zn80 1.969 . S
O96 C99 1.258 . S
O97 Zn81 2.024 . S
O97 C84 1.058 . S
C98 O87 1.260 . S
C98 O88 1.258 . S
C99 O95 1.260 . S
C99 O96 1.258 . S
Zn100 O106 1.969 . S
Zn100 O107 1.965 . S
Zn100 O111 2.024 . S
Zn100 O116 1.969 . S
Zn101 O108 1.969 . S
Zn101 O114 1.969 1_545 S
Zn101 O115 1.965 . S
Zn101 O117 2.024 . S
C102 O103 1.229 . S
C102 O111 1.058 . S
O103 C102 1.229 . S
C104 O105 1.229 . S
C104 O117 1.058 . S
O105 C104 1.229 . S
O106 Zn100 1.969 . S
O106 C109 1.267 . S
O107 Zn100 1.965 . S
O107 C118 1.260 . S
O108 Zn101 1.969 . S
O108 C118 1.258 . S
C109 O106 1.267 . S
C109 O110 1.228 . S
O110 C109 1.228 . S
O111 Zn100 2.024 . S
O111 C102 1.058 . S
C112 O113 1.228 . S
C112 O114 1.267 . S
O113 C112 1.228 . S
O114 Zn101 1.969 1_565 S
O114 C112 1.267 . S
O115 Zn101 1.965 . S
O115 C119 1.260 . S
O116 Zn100 1.969 . S
O116 C119 1.258 . S
O117 Zn101 2.024 . S
O117 C104 1.058 . S
C118 O107 1.260 . S
C118 O108 1.258 . S
C119 O115 1.260 . S
C119 O116 1.258 . S
Zn120 O126 1.969 . S
Zn120 O127 1.965 . S
Zn120 O131 2.024 . S
Zn120 O136 1.969 . S
Zn121 O128 1.969 . S
Zn121 O134 1.969 . S
Zn121 O135 1.965 . S
Zn121 O137 2.024 . S
C122 O123 1.229 . S
C122 O131 1.058 . S
O123 C122 1.229 . S
C124 O125 1.229 . S
C124 O137 1.058 . S
O125 C124 1.229 . S
O126 Zn120 1.969 . S
O126 C129 1.267 . S
O127 Zn120 1.965 . S
O127 C138 1.260 . S
O128 Zn121 1.969 . S
O128 C138 1.258 . S
C129 O126 1.267 . S
C129 O130 1.228 . S
O130 C129 1.228 . S
O131 Zn120 2.024 . S
O131 C122 1.058 . S
C132 O133 1.228 . S
C132 O134 1.267 . S
O133 C132 1.228 . S
O134 Zn121 1.969 . S
O134 C132 1.267 . S
O135 Zn121 1.965 . S
O135 C139 1.260 . S
O136 Zn120 1.969 . S
O136 C139 1.258 . S
O137 Zn121 2.024 . S
O137 C124 1.058 . S
C138 O127 1.260 . S
C138 O128 1.258 . S
C139 O135 1.260 . S
C139 O136 1.258 . S
Zn140 O146 1.969 . S
Zn140 O147 1.965 . S
Zn140 O151 2.024 . S
Zn140 O156 1.969 . S
Zn141 O148 1.969 . S
Zn141 O154 1.969 . S
Zn141 O155 1.965 . S
Zn141 O157 2.024 . S
C142 O143 1.229 . S
C142 O151 1.058 . S
O143 C142 1.229 . S
C144 O145 1.229 . S
C144 O157 1.058 . S
O145 C144 1.229 . S
O146 Zn140 1.969 . S
O146 C149 1.267 . S
O147 Zn140 1.965 . S
O147 C158 1.260 . S
O148 Zn141 1.969 . S
O148 C158 1.258 . S
C149 O146 1.267 . S
C149 O150 1.228 . S
O150 C149 1.228 . S
O151 Zn140 2.024 . S
O151 C142 1.058 . S
C152 O153 1.228 . S
C152 O154 1.267 . S
O153 C152 1.228 . S
O154 Zn141 1.969 . S
O154 C152 1.267 . S
O155 Zn141 1.965 . S
O155 C159 1.260 . S
O156 Zn140 1.969 . S
O156 C159 1.258 . S
O157 Zn141 2.024 . S
O157 C144 1.058 . S
C158 O147 1.260 . S
C158 O148 1.258 . S
C159 O155 1.260 . S
C159 O156 1.258 . S
Zn160 O166 1.969 1_655 S
Zn160 O167 1.965 . S
Zn160 O171 2.024 . S
Zn160 O176 1.969 . S
Zn161 O168 1.969 . S
Zn161 O174 1.969 . S
Zn161 O175 1.965 . S
Zn161 O177 2.024 . S
C162 O163 1.229 . S
C162 O171 1.058 . S
O163 C162 1.229 . S
C164 O165 1.229 . S
C164 O177 1.058 . S
O165 C164 1.229 . S
O166 Zn160 1.969 1_455 S
O166 C169 1.267 . S
O167 Zn160 1.965 . S
O167 C178 1.260 . S
O168 Zn161 1.969 . S
O168 C178 1.258 . S
C169 O166 1.267 . S
C169 O170 1.228 . S
O170 C169 1.228 . S
O171 Zn160 2.024 . S
O171 C162 1.058 . S
C172 O173 1.228 . S
C172 O174 1.267 . S
O173 C172 1.228 . S
O174 Zn161 1.969 . S
O174 C172 1.267 . S
O175 Zn161 1.965 . S
O175 C179 1.260 . S
O176 Zn160 1.969 . S
O176 C179 1.258 . S
O177 Zn161 2.024 . S
O177 C164 1.058 . S
C178 O167 1.260 . S
C178 O168 1.258 . S
C179 O175 1.260 . S
C179 O176 1.258 . S
Zn180 O186 1.969 1_565 S
Zn180 O187 1.965 . S
Zn180 O191 2.024 . S
Zn180 O196 1.969 . S
Zn181 O188 1.969 . S
Zn181 O194 1.969 . S
Zn181 O195 1.965 . S
Zn181 O197 2.024 . S
C182 O183 1.229 . S
C182 O191 1.058 . S
O183 C182 1.229 . S
C184 O185 1.229 . S
C184 O197 1.058 . S
O185 C184 1.229 . S
O186 Zn180 1.969 1_545 S
O186 C189 1.267 . S
O187 Zn180 1.965 . S
O187 C198 1.260 . S
O188 Zn181 1.969 . S
O188 C198 1.258 . S
C189 O186 1.267 . S
C189 O190 1.228 . S
O190 C189 1.228 . S
O191 Zn180 2.024 . S
O191 C182 1.058 . S
C192 O193 1.228 . S
C192 O194 1.267 . S
O193 C192 1.228 . S
O194 Zn181 1.969 . S
O194 C192 1.267 . S
O195 Zn181 1.965 . S
O195 C199 1.260 . S
O196 Zn180 1.969 . S
O196 C199 1.258 . S
O197 Zn181 2.024 . S
O197 C184 1.058 . S
C198 O187 1.260 . S
C198 O188 1.258 . S
C199 O195 1.260 . S
C199 O196 1.258 . S
Zn200 O206 1.969 . S
Zn200 O207 1.965 . S
Zn200 O211 2.024 . S
Zn200 O216 1.969 . S
Zn201 O208 1.969 . S
Zn201 O214 1.969 . S
Zn201 O215 1.965 . S
Zn201 O217 2.024 . S
C202 O203 1.229 . S
C202 O211 1.058 . S
O203 C202 1.229 . S
C204 O205 1.229 . S
C204 O217 1.058 . S
O205 C204 1.229 . S
O206 Zn200 1.969 . S
O206 C209 1.267 . S
O207 Zn200 1.965 . S
O207 C218 1.260 . S
O208 Zn201 1.969 . S
O208 C218 1.258 . S
C209 O206 1.267 . S
C209 O210 1.228 . S
O210 C209 1.228 . S
O211 Zn200 2.024 . S
O211 C202 1.058 . S
C212 O213 1.228 . S
C212 O214 1.267 . S
O213 C212 1.228 . S
O214 Zn201 1.969 . S
O214 C212 1.267 . S
O215 Zn201 1.965 . S
O215 C219 1.260 . S
O216 Zn200 1.969 . S
O216 C219 1.258 . S
O217 Zn201 2.024 . S
O217 C204 1.058 . S
C218 O207 1.260 . S
C218 O208 1.258 . S
C219 O215 1.260 . S
C219 O216 1.258 . S
Zn220 O226 1.969 . S
Zn220 O227 1.965 . S
Zn220 O231 2.024 . S
Zn220 O236 1.969 . S
Zn221 O228 1.969 . S
Zn221 O234 1.969 . S
Zn221 O235 1.965 . S
Zn221 O237 2.024 . S
C222 O223 1.229 . S
C222 O231 1.058 . S
O223 C222 1.229 . S
C224 O225 1.229 . S
C224 O237 1.058 . S
O225 C224 1.229 . S
O226 Zn220 1.969 . S
O226 C229 1.267 . S
O227 Zn220 1.965 . S
O227 C238 1.260 . S
O228 Zn221 1.969 . S
O228 C238 1.258 . S
C229 O226 1.267 . S
C229 O230 1.228 . S
O230 C229 1.228 . S
O231 Zn220 2.024 . S
O231 C222 1.058 . S
C232 O233 1.228 . S
C232 O234 1.267 . S
O233 C232 1.228 . S
O234 Zn221 1.969 . S
O234 C232 1.267 . S
O235 Zn221 1.965 . S
O235 C239 1.260 . S
O236 Zn220 1.969 . S
O236 C239 1.258 . S
O237 Zn221 2.024 . S
O237 C224 1.058 . S
C238 O227 1.260 . S
C238 O228 1.258 . S
C239 O235 1.260 . S
C239 O236 1.258 . S
Zn240 O246 1.969 1_655 S
Zn240 O247 1.965 . S
Zn240 O251 2.024 . S
Zn240 O256 1.969 . S
Zn241 O248 1.969 . S
Zn241 O254 1.969 . S
Zn241 O255 1.965 . S
Zn241 O257 2.024 . S
C242 O243 1.229 . S
C242 O251 1.058 . S
O243 C242 1.229 . S
C244 O245 1.229 . S
C244 O257 1.058 . S
O245 C244 1.229 . S
O246 Zn240 1.969 1_455 S
O246 C249 1.267 . S
O247 Zn240 1.965 . S
O247 C258 1.260 . S
O248 Zn241 1.969 . S
O248 C258 1.258 . S
C249 O246 1.267 . S
C249 O250 1.228 . S
O250 C249 1.228 . S
O251 Zn240 2.024 . S
O251 C242 1.058 . S
C252 O253 1.228 . S
C252 O254 1.267 . S
O253 C252 1.228 . S
O254 Zn241 1.969 . S
O254 C252 1.267 . S
O255 Zn241 1.965 . S
O255 C259 1.260 . S
O256 Zn240 1.969 . S
O256 C259 1.258 . S
O257 Zn241 2.024 . S
O257 C244 1.058 . S
C258 O247 1.260 . S
C258 O248 1.258 . S
C259 O255 1.260 . S
C259 O256 1.258 . S
Zn260 O266 1.969 1_565 S
Zn260 O267 1.965 . S
Zn260 O271 2.024 . S
Zn260 O276 1.969 . S
Zn261 O268 1.969 . S
Zn261 O274 1.969 . S
Zn261 O275 1.965 . S
Zn261 O277 2.024 . S
C262 O263 1.229 . S
C262 O271 1.058 . S
O263 C262 1.229 . S
C264 O265 1.229 . S
C264 O277 1.058 . S
O265 C264 1.229 . S
O266 Zn260 1.969 1_545 S
O266 C269 1.267 . S
O267 Zn260 1.965 . S
O267 C278 1.260 . S
O268 Zn261 1.969 . S
O268 C278 1.258 . S
C269 O266 1.267 . S
C269 O270 1.228 . S
O270 C269 1.228 . S
O271 Zn260 2.024 . S
O271 C262 1.058 . S
C272 O273 1.228 . S
C272 O274 1.267 . S
O273 C272 1.228 . S
O274 Zn261 1.969 . S
O274 C272 1.267 . S
O275 Zn261 1.965 . S
O275 C279 1.260 . S
O276 Zn260 1.969 . S
O276 C279 1.258 . S
O277 Zn261 2.024 . S
O277 C264 1.058 . S
C278 O267 1.260 . S
C278 O268 1.258 . S
C279 O275 1.260 . S
C279 O276 1.258 . S
Zn280 O286 1.969 . S
Zn280 O287 1.965 . S
Zn280 O291 2.024 . S
Zn280 O296 1.969 . S
Zn281 O288 1.969 . S
Zn281 O294 1.969 . S
Zn281 O295 1.965 . S
Zn281 O297 2.024 . S
C282 O283 1.229 . S
C282 O291 1.058 . S
O283 C282 1.229 . S
C284 O285 1.229 . S
C284 O297 1.058 . S
O285 C284 1.229 . S
O286 Zn280 1.969 . S
O286 C289 1.267 . S
O287 Zn280 1.965 . S
O287 C298 1.260 . S
O288 Zn281 1.969 . S
O288 C298 1.258 . S
C289 O286 1.267 . S
C289 O290 1.228 . S
O290 C289 1.228 . S
O291 Zn280 2.024 . S
O291 C282 1.058 . S
C292 O293 1.228 . S
C292 O294 1.267 . S
O293 C292 1.228 . S
O294 Zn281 1.969 . S
O294 C292 1.267 . S
O295 Zn281 1.965 . S
O295 C299 1.260 . S
O296 Zn280 1.969 . S
O296 C299 1.258 . S
O297 Zn281 2.024 . S
O297 C284 1.058 . S
C298 O287 1.260 . S
C298 O288 1.258 . S
C299 O295 1.260 . S
C299 O296 1.258 . S
Zn300 O306 1.969 . S
Zn300 O307 1.965 . S
Zn300 O311 2.024 . S
Zn300 O316 1.969 . S
Zn301 O308 1.969 . S
Zn301 O314 1.969 . S
Zn301 O315 1.965 . S
Zn301 O317 2.024 . S
C302 O303 1.229 . S
C302 O311 1.058 . S
O303 C302 1.229 . S
C304 O305 1.229 . S
C304 O317 1.058 . S
O305 C304 1.229 . S
O306 Zn300 1.969 . S
O306 C309 1.267 . S
O307 Zn300 1.965 . S
O307 C318 1.260 . S
O308 Zn301 1.969 . S
O308 C318 1.258 . S
C309 O306 1.267 . S
C309 O310 1.228 . S
O310 C309 1.228 . S
O311 Zn300 2.024 . S
O311 C302 1.058 . S
C312 O313 1.228 . S
C312 O314 1.267 . S
O313 C312 1.228 . S
O314 Zn301 1.969 . S
O314 C312 1.267 . S
O315 Zn301 1.965 . S
O315 C319 1.260 . S
O316 Zn300 1.969 . S
O316 C319 1.258 . S
O317 Zn301 2.024 . S
O317 C304 1.058 . S
C318 O307 1.260 . S
C318 O308 1.258 . S
C319 O315 1.260 . S
C319 O316 1.258 . S
H320 C328 0.929 . S
H321 C330 0.930 . S
H322 C332 0.930 . S
H323 C335 0.929 . S
H324 C338 0.930 . S
H325 C340 0.960 . S
H326 C340 0.960 . S
H327 C340 0.960 . S
C328 H320 0.929 . S
C328 C329 1.377 . S
C328 C330 1.384 . S
C329 C328 1.377 . S
C329 C335 1.390 . S
C330 H321 0.930 . S
C330 C328 1.384 . S
C330 C331 1.372 . S
C331 C330 1.372 . S
C331 C332 1.400 . S
C331 C336 1.490 . S
C332 H322 0.930 . S
C332 C331 1.400 . S
C332 C335 1.386 . S
H333 C349 0.930 . S
H334 C350 0.931 . S
C335 H323 0.929 . S
C335 C329 1.390 . S
C335 C332 1.386 . S
C336 C331 1.490 . S
C336 C338 1.395 . S
C336 C339 1.403 . S
H337 C343 0.930 . S
C338 H324 0.930 . S
C338 C336 1.395 . S
C338 C341 1.403 . S
C339 C336 1.403 . S
C339 C340 1.524 . S
C339 C343 1.400 . S
C340 H325 0.960 . S
C340 H326 0.960 . S
C340 H327 0.960 . S
C340 C339 1.524 . S
C341 C338 1.403 . S
C341 C342 1.392 . S
C341 C345 1.495 . S
C342 C341 1.392 . S
C342 C343 1.385 . S
C342 C344 1.478 . S
C343 H337 0.930 . S
C343 C339 1.400 . S
C343 C342 1.385 . S
C344 C342 1.478 . S
C344 C346 1.381 . S
C344 C350 1.383 . S
C345 C341 1.495 . S
C345 H351 0.959 . S
C345 H352 0.961 . S
C345 H353 0.960 . S
C346 C344 1.381 . S
C346 C347 1.394 . S
C346 H354 0.930 . S
C347 C346 1.394 . S
C347 C348 1.383 . S
C347 H355 0.929 . S
C348 C347 1.383 . S
C348 C349 1.377 . S
C349 H333 0.930 . S
C349 C348 1.377 . S
C349 C350 1.379 . S
C350 H334 0.931 . S
C350 C344 1.383 . S
C350 C349 1.379 . S
H351 C345 0.959 . S
H352 C345 0.961 . S
H353 C345 0.960 . S
H354 C346 0.930 . S
H355 C347 0.929 . S
H356 C364 0.929 . S
H357 C366 0.930 . S
H358 C368 0.930 1_655 S
H359 C371 0.929 . S
H360 C374 0.930 . S
H361 C376 0.960 . S
H362 C376 0.960 . S
H363 C376 0.960 . S
C364 H356 0.929 . S
C364 C365 1.377 . S
C364 C366 1.384 . S
C365 C364 1.377 . S
C365 C371 1.390 . S
C366 H357 0.930 . S
C366 C364 1.384 . S
C366 C367 1.372 . S
C367 C366 1.372 . S
C367 C368 1.400 . S
C367 C372 1.490 . S
C368 H358 0.930 1_455 S
C368 C367 1.400 . S
C368 C371 1.386 . S
H369 C385 0.930 . S
H370 C386 0.931 . S
C371 H359 0.929 . S
C371 C365 1.390 . S
C371 C368 1.386 . S
C372 C367 1.490 . S
C372 C374 1.395 . S
C372 C375 1.403 1_455 S
H373 C379 0.930 . S
C374 H360 0.930 . S
C374 C372 1.395 . S
C374 C377 1.403 . S
C375 C372 1.403 1_655 S
C375 C376 1.524 . S
C375 C379 1.400 . S
C376 H361 0.960 . S
C376 H362 0.960 . S
C376 H363 0.960 . S
C376 C375 1.524 . S
C377 C374 1.403 . S
C377 C378 1.392 1_455 S
C377 C381 1.495 . S
C378 C377 1.392 1_655 S
C378 C379 1.385 . S
C378 C380 1.478 . S
C379 H373 0.930 . S
C379 C375 1.400 . S
C379 C378 1.385 . S
C380 C378 1.478 . S
C380 C382 1.381 . S
C380 C386 1.383 . S
C381 C377 1.495 . S
C381 H387 0.959 . S
C381 H388 0.961 . S
C381 H389 0.960 . S
C382 C380 1.381 . S
C382 C383 1.394 . S
C382 H390 0.930 1_655 S
C383 C382 1.394 . S
C383 C384 1.383 . S
C383 H391 0.929 . S
C384 C383 1.383 . S
C384 C385 1.377 . S
C385 H369 0.930 . S
C385 C384 1.377 . S
C385 C386 1.379 . S
C386 H370 0.931 . S
C386 C380 1.383 . S
C386 C385 1.379 . S
H387 C381 0.959 . S
H388 C381 0.961 . S
H389 C381 0.960 . S
H390 C382 0.930 1_455 S
H391 C383 0.929 . S
H392 C400 0.929 . S
H393 C402 0.930 . S
H394 C404 0.930 . S
H395 C407 0.929 . S
H396 C410 0.923 1_545 S
H397 C412 0.960 . S
H398 C412 0.960 . S
H399 C412 0.960 . S
C400 H392 0.929 . S
C400 C401 1.377 . S
C400 C402 1.384 . S
C401 C400 1.377 . S
C401 C407 1.390 . S
C402 H393 0.930 . S
C402 C400 1.384 . S
C402 C403 1.372 . S
C403 C402 1.372 . S
C403 C404 1.400 . S
C403 C408 1.490 . S
C404 H394 0.930 . S
C404 C403 1.400 . S
C404 C407 1.386 . S
H405 C421 0.930 . S
H406 C422 0.931 . S
C407 H395 0.929 . S
C407 C401 1.390 . S
C407 C404 1.386 . S
C408 C403 1.490 . S
C408 C410 1.410 . S
C408 C411 1.403 . S
H409 C415 0.930 . S
C410 H396 0.923 1_565 S
C410 C408 1.410 . S
C410 C413 1.395 1_565 S
C411 C408 1.403 . S
C411 C412 1.524 . S
C411 C415 1.400 . S
C412 H397 0.960 . S
C412 H398 0.960 . S
C412 H399 0.960 . S
C412 C411 1.524 . S
C413 C410 1.395 1_545 S
C413 C414 1.392 . S
C413 C417 1.495 . S
C414 C413 1.392 . S
C414 C415 1.385 1_545 S
C414 C416 1.478 . S
C415 H409 0.930 . S
C415 C411 1.400 . S
C415 C414 1.385 1_565 S
C416 C414 1.478 . S
C416 C418 1.381 . S
C416 C422 1.383 . S
C417 C413 1.495 . S
C417 H423 0.959 . S
C417 H424 0.961 . S
C417 H425 0.960 . S
C418 C416 1.381 . S
C418 C419 1.394 . S
C418 H426 0.930 . S
C419 C418 1.394 . S
C419 C420 1.383 . S
C419 H427 0.929 . S
C420 C419 1.383 . S
C420 C421 1.377 . S
C421 H405 0.930 . S
C421 C420 1.377 . S
C421 C422 1.379 . S
C422 H406 0.931 . S
C422 C416 1.383 . S
C422 C421 1.379 . S
H423 C417 0.959 . S
H424 C417 0.961 . S
H425 C417 0.960 . S
H426 C418 0.930 . S
H427 C419 0.929 . S
H428 C436 0.929 . S
H429 C438 0.930 . S
H430 C440 0.930 . S
H431 C443 0.929 . S
H432 C446 0.930 . S
H433 C448 0.960 . S
H434 C448 0.960 . S
H435 C448 0.960 . S
C436 H428 0.929 . S
C436 C437 1.377 . S
C436 C438 1.384 . S
C437 C436 1.377 . S
C437 C443 1.390 . S
C438 H429 0.930 . S
C438 C436 1.384 . S
C438 C439 1.372 . S
C439 C438 1.372 . S
C439 C440 1.400 . S
C439 C444 1.490 . S
C440 H430 0.930 . S
C440 C439 1.400 . S
C440 C443 1.386 . S
H441 C457 0.930 . S
H442 C458 0.931 . S
C443 H431 0.929 . S
C443 C437 1.390 . S
C443 C440 1.386 . S
C444 C439 1.490 . S
C444 C446 1.395 . S
C444 C447 1.403 . S
H445 C451 0.930 . S
C446 H432 0.930 . S
C446 C444 1.395 . S
C446 C449 1.403 . S
C447 C444 1.403 . S
C447 C448 1.524 . S
C447 C451 1.400 . S
C448 H433 0.960 . S
C448 H434 0.960 . S
C448 H435 0.960 . S
C448 C447 1.524 . S
C449 C446 1.403 . S
C449 C450 1.392 . S
C449 C453 1.495 . S
C450 C449 1.392 . S
C450 C451 1.385 . S
C450 C452 1.478 . S
C451 H445 0.930 . S
C451 C447 1.400 . S
C451 C450 1.385 . S
C452 C450 1.478 . S
C452 C454 1.381 . S
C452 C458 1.383 . S
C453 C449 1.495 . S
C453 H459 0.959 . S
C453 H460 0.961 . S
C453 H461 0.960 . S
C454 C452 1.381 . S
C454 C455 1.394 . S
C454 H462 0.930 . S
C455 C454 1.394 . S
C455 C456 1.383 . S
C455 H463 0.929 . S
C456 C455 1.383 . S
C456 C457 1.377 . S
C457 H441 0.930 . S
C457 C456 1.377 . S
C457 C458 1.379 . S
C458 H442 0.931 . S
C458 C452 1.383 . S
C458 C457 1.379 . S
H459 C453 0.959 . S
H460 C453 0.961 . S
H461 C453 0.960 . S
H462 C454 0.930 . S
H463 C455 0.929 . S
H464 C472 0.929 . S
H465 C474 0.930 . S
H466 C476 0.930 . S
H467 C479 0.929 . S
H468 C482 0.930 . S
H469 C484 0.960 . S
H470 C484 0.960 . S
H471 C484 0.960 . S
C472 H464 0.929 . S
C472 C473 1.377 . S
C472 C474 1.384 . S
C473 C472 1.377 . S
C473 C479 1.390 . S
C474 H465 0.930 . S
C474 C472 1.384 . S
C474 C475 1.372 . S
C475 C474 1.372 . S
C475 C476 1.400 . S
C475 C480 1.490 . S
C476 H466 0.930 . S
C476 C475 1.400 . S
C476 C479 1.386 . S
H477 C493 0.930 . S
H478 C494 0.931 . S
C479 H467 0.929 . S
C479 C473 1.390 . S
C479 C476 1.386 . S
C480 C475 1.490 . S
C480 C482 1.395 . S
C480 C483 1.403 . S
H481 C487 0.930 1_545 S
C482 H468 0.930 . S
C482 C480 1.395 . S
C482 C485 1.403 . S
C483 C480 1.403 . S
C483 C484 1.524 . S
C483 C487 1.400 . S
C484 H469 0.960 . S
C484 H470 0.960 . S
C484 H471 0.960 . S
C484 C483 1.524 . S
C485 C482 1.403 . S
C485 C486 1.381 1_565 S
C485 C489 1.495 . S
C486 C485 1.381 1_545 S
C486 C487 1.381 1_545 S
C486 C488 1.494 . S
C487 H481 0.930 1_565 S
C487 C483 1.400 . S
C487 C486 1.381 1_565 S
C488 C486 1.494 . S
C488 C490 1.381 . S
C488 C494 1.383 . S
C489 C485 1.495 . S
C489 H495 0.959 . S
C489 H496 0.961 1_565 S
C489 H497 0.960 . S
C490 C488 1.381 . S
C490 C491 1.394 . S
C490 H498 0.930 1_545 S
C491 C490 1.394 . S
C491 C492 1.383 . S
C491 H499 0.929 . S
C492 C491 1.383 . S
C492 C493 1.377 . S
C493 H477 0.930 . S
C493 C492 1.377 . S
C493 C494 1.379 . S
C494 H478 0.931 . S
C494 C488 1.383 . S
C494 C493 1.379 . S
H495 C489 0.959 . S
H496 C489 0.961 1_545 S
H497 C489 0.960 . S
H498 C490 0.930 1_565 S
H499 C491 0.929 . S
H500 C508 0.929 . S
H501 C510 0.930 . S
H502 C512 0.930 . S
H503 C515 0.929 . S
H504 C518 0.930 . S
H505 C520 0.960 . S
H506 C520 0.960 . S
H507 C520 0.960 . S
C508 H500 0.929 . S
C508 C509 1.377 . S
C508 C510 1.384 . S
C509 C508 1.377 . S
C509 C515 1.390 . S
C510 H501 0.930 . S
C510 C508 1.384 . S
C510 C511 1.372 . S
C511 C510 1.372 . S
C511 C512 1.400 . S
C511 C516 1.490 . S
C512 H502 0.930 . S
C512 C511 1.400 . S
C512 C515 1.386 . S
H513 C529 0.930 . S
H514 C530 0.931 . S
C515 H503 0.929 . S
C515 C509 1.390 . S
C515 C512 1.386 . S
C516 C511 1.490 . S
C516 C518 1.395 . S
C516 C519 1.403 . S
H517 C523 0.930 . S
C518 H504 0.930 . S
C518 C516 1.395 . S
C518 C521 1.403 . S
C519 C516 1.403 . S
C519 C520 1.524 . S
C519 C523 1.400 . S
C520 H505 0.960 . S
C520 H506 0.960 . S
C520 H507 0.960 . S
C520 C519 1.524 . S
C521 C518 1.403 . S
C521 C522 1.392 . S
C521 C525 1.495 . S
C522 C521 1.392 . S
C522 C523 1.385 . S
C522 C524 1.478 . S
C523 H517 0.930 . S
C523 C519 1.400 . S
C523 C522 1.385 . S
C524 C522 1.478 . S
C524 C526 1.381 . S
C524 C530 1.383 . S
C525 C521 1.495 . S
C525 H531 0.959 . S
C525 H532 0.961 . S
C525 H533 0.960 . S
C526 C524 1.381 . S
C526 C527 1.394 . S
C526 H534 0.930 . S
C527 C526 1.394 . S
C527 C528 1.383 . S
C527 H535 0.929 . S
C528 C527 1.383 . S
C528 C529 1.377 . S
C529 H513 0.930 . S
C529 C528 1.377 . S
C529 C530 1.379 . S
C530 H514 0.931 . S
C530 C524 1.383 . S
C530 C529 1.379 . S
H531 C525 0.959 . S
H532 C525 0.961 . S
H533 C525 0.960 . S
H534 C526 0.930 . S
H535 C527 0.929 . S
H536 C544 0.929 . S
H537 C546 0.930 . S
H538 C548 0.930 . S
H539 C551 0.929 . S
H540 C554 0.930 . S
H541 C556 0.960 . S
H542 C556 0.960 . S
H543 C556 0.960 . S
C544 H536 0.929 . S
C544 C545 1.377 . S
C544 C546 1.384 . S
C545 C544 1.377 . S
C545 C551 1.390 . S
C546 H537 0.930 . S
C546 C544 1.384 . S
C546 C547 1.372 . S
C547 C546 1.372 . S
C547 C548 1.400 . S
C547 C552 1.490 . S
C548 H538 0.930 . S
C548 C547 1.400 . S
C548 C551 1.386 . S
H549 C565 0.930 . S
H550 C566 0.931 . S
C551 H539 0.929 . S
C551 C545 1.390 . S
C551 C548 1.386 . S
C552 C547 1.490 . S
C552 C554 1.395 . S
C552 C555 1.403 . S
H553 C559 0.930 . S
C554 H540 0.930 . S
C554 C552 1.395 . S
C554 C557 1.403 . S
C555 C552 1.403 . S
C555 C556 1.524 . S
C555 C559 1.400 . S
C556 H541 0.960 . S
C556 H542 0.960 . S
C556 H543 0.960 . S
C556 C555 1.524 . S
C557 C554 1.403 . S
C557 C558 1.392 . S
C557 C561 1.495 . S
C558 C557 1.392 . S
C558 C559 1.385 . S
C558 C560 1.478 . S
C559 H553 0.930 . S
C559 C555 1.400 . S
C559 C558 1.385 . S
C560 C558 1.478 . S
C560 C562 1.381 . S
C560 C566 1.383 . S
C561 C557 1.495 . S
C561 H567 0.959 . S
C561 H568 0.961 . S
C561 H569 0.960 . S
C562 C560 1.381 . S
C562 C563 1.394 . S
C562 H570 0.930 . S
C563 C562 1.394 . S
C563 C564 1.383 . S
C563 H571 0.929 . S
C564 C563 1.383 . S
C564 C565 1.377 . S
C565 H549 0.930 . S
C565 C564 1.377 . S
C565 C566 1.379 . S
C566 H550 0.931 . S
C566 C560 1.383 . S
C566 C565 1.379 . S
H567 C561 0.959 . S
H568 C561 0.961 . S
H569 C561 0.960 . S
H570 C562 0.930 . S
H571 C563 0.929 . S
H572 C580 0.929 . S
H573 C582 0.930 . S
H574 C584 0.930 1_655 S
H575 C587 0.929 . S
H576 C590 0.930 . S
H577 C592 0.960 . S
H578 C592 0.960 1_455 S
H579 C592 0.960 . S
C580 H572 0.929 . S
C580 C581 1.377 . S
C580 C582 1.384 . S
C581 C580 1.377 . S
C581 C587 1.390 . S
C582 H573 0.930 . S
C582 C580 1.384 . S
C582 C583 1.372 . S
C583 C582 1.372 . S
C583 C584 1.400 . S
C583 C588 1.490 . S
C584 H574 0.930 1_455 S
C584 C583 1.400 . S
C584 C587 1.386 . S
H585 C601 0.930 . S
H586 C602 0.931 . S
C587 H575 0.929 . S
C587 C581 1.390 . S
C587 C584 1.386 . S
C588 C583 1.490 . S
C588 C590 1.395 . S
C588 C591 1.403 1_455 S
H589 C595 0.930 . S
C590 H576 0.930 . S
C590 C588 1.395 . S
C590 C593 1.403 . S
C591 C588 1.403 1_655 S
C591 C592 1.524 . S
C591 C595 1.400 . S
C592 H577 0.960 . S
C592 H578 0.960 1_655 S
C592 H579 0.960 . S
C592 C591 1.524 . S
C593 C590 1.403 . S
C593 C594 1.392 1_455 S
C593 C597 1.495 . S
C594 C593 1.392 1_655 S
C594 C595 1.385 . S
C594 C596 1.478 . S
C595 H589 0.930 . S
C595 C591 1.400 . S
C595 C594 1.385 . S
C596 C594 1.478 . S
C596 C598 1.381 . S
C596 C602 1.383 . S
C597 C593 1.495 . S
C597 H603 0.959 . S
C597 H604 0.961 1_455 S
C597 H605 0.960 . S
C598 C596 1.381 . S
C598 C599 1.394 . S
C598 H606 0.930 1_655 S
C599 C598 1.394 . S
C599 C600 1.383 . S
C599 H607 0.929 . S
C600 C599 1.383 . S
C600 C601 1.377 . S
C601 H585 0.930 . S
C601 C600 1.377 . S
C601 C602 1.379 . S
C602 H586 0.931 . S
C602 C596 1.383 . S
C602 C601 1.379 . S
H603 C597 0.959 . S
H604 C597 0.961 1_655 S
H605 C597 0.960 . S
H606 C598 0.930 1_455 S
H607 C599 0.929 . S
H608 C616 0.929 . S
H609 C618 0.930 . S
H610 C620 0.930 . S
H611 C623 0.929 . S
H612 C626 0.930 . S
H613 C628 0.960 . S
H614 C628 0.960 . S
H615 C628 0.960 . S
C616 H608 0.929 . S
C616 C617 1.377 . S
C616 C618 1.384 . S
C617 C616 1.377 . S
C617 C623 1.390 . S
C618 H609 0.930 . S
C618 C616 1.384 . S
C618 C619 1.372 . S
C619 C618 1.372 . S
C619 C620 1.400 . S
C619 C624 1.490 . S
C620 H610 0.930 . S
C620 C619 1.400 . S
C620 C623 1.386 . S
H621 C637 0.930 . S
H622 C638 0.931 . S
C623 H611 0.929 . S
C623 C617 1.390 . S
C623 C620 1.386 . S
C624 C619 1.490 . S
C624 C626 1.395 . S
C624 C627 1.403 . S
H625 C631 0.930 . S
C626 H612 0.930 . S
C626 C624 1.395 . S
C626 C629 1.403 . S
C627 C624 1.403 . S
C627 C628 1.524 . S
C627 C631 1.400 . S
C628 H613 0.960 . S
C628 H614 0.960 . S
C628 H615 0.960 . S
C628 C627 1.524 . S
C629 C626 1.403 . S
C629 C630 1.392 . S
C629 C633 1.495 . S
C630 C629 1.392 . S
C630 C631 1.385 . S
C630 C632 1.478 . S
C631 H625 0.930 . S
C631 C627 1.400 . S
C631 C630 1.385 . S
C632 C630 1.478 . S
C632 C634 1.381 . S
C632 C638 1.383 . S
C633 C629 1.495 . S
C633 H639 0.959 . S
C633 H640 0.961 . S
C633 H641 0.960 . S
C634 C632 1.381 . S
C634 C635 1.394 . S
C634 H642 0.930 . S
C635 C634 1.394 . S
C635 C636 1.383 . S
C635 H643 0.929 . S
C636 C635 1.383 . S
C636 C637 1.377 . S
C637 H621 0.930 . S
C637 C636 1.377 . S
C637 C638 1.379 . S
C638 H622 0.931 . S
C638 C632 1.383 . S
C638 C637 1.379 . S
H639 C633 0.959 . S
H640 C633 0.961 . S
H641 C633 0.960 . S
H642 C634 0.930 . S
H643 C635 0.929 . S
H644 C652 0.929 . S
H645 C654 0.930 . S
H646 C656 0.930 . S
H647 C659 0.929 . S
H648 C662 0.930 . S
H649 C664 0.960 . S
H650 C664 0.960 . S
H651 C664 0.960 . S
C652 H644 0.929 . S
C652 C653 1.377 . S
C652 C654 1.384 . S
C653 C652 1.377 . S
C653 C659 1.390 . S
C654 H645 0.930 . S
C654 C652 1.384 . S
C654 C655 1.372 . S
C655 C654 1.372 . S
C655 C656 1.400 . S
C655 C660 1.490 . S
C656 H646 0.930 . S
C656 C655 1.400 . S
C656 C659 1.386 . S
H657 C673 0.930 . S
H658 C674 0.931 . S
C659 H647 0.929 . S
C659 C653 1.390 . S
C659 C656 1.386 . S
C660 C655 1.490 . S
C660 C662 1.395 . S
C660 C663 1.403 1_655 S
H661 C667 0.930 . S
C662 H648 0.930 . S
C662 C660 1.395 . S
C662 C665 1.403 . S
C663 C660 1.403 1_455 S
C663 C664 1.524 . S
C663 C667 1.400 . S
C664 H649 0.960 . S
C664 H650 0.960 . S
C664 H651 0.960 . S
C664 C663 1.524 . S
C665 C662 1.403 . S
C665 C666 1.392 1_655 S
C665 C669 1.495 . S
C666 C665 1.392 1_455 S
C666 C667 1.385 . S
C666 C668 1.478 . S
C667 H661 0.930 . S
C667 C663 1.400 . S
C667 C666 1.385 . S
C668 C666 1.478 . S
C668 C670 1.381 . S
C668 C674 1.383 . S
C669 C665 1.495 . S
C669 H675 0.959 . S
C669 H676 0.961 . S
C669 H677 0.960 . S
C670 C668 1.381 . S
C670 C671 1.394 . S
C670 H678 0.930 . S
C671 C670 1.394 . S
C671 C672 1.383 . S
C671 H679 0.929 . S
C672 C671 1.383 . S
C672 C673 1.377 . S
C673 H657 0.930 . S
C673 C672 1.377 . S
C673 C674 1.379 . S
C674 H658 0.931 . S
C674 C668 1.383 . S
C674 C673 1.379 . S
H675 C669 0.959 . S
H676 C669 0.961 . S
H677 C669 0.960 . S
H678 C670 0.930 . S
H679 C671 0.929 . S
H680 C688 0.929 . S
H681 C690 0.930 1_545 S
H682 C692 0.930 . S
H683 C695 0.929 . S
H684 C698 0.930 . S
H685 C700 0.960 . S
H686 C700 0.960 . S
H687 C700 0.960 . S
C688 H680 0.929 . S
C688 C689 1.377 . S
C688 C690 1.384 . S
C689 C688 1.377 . S
C689 C695 1.390 . S
C690 H681 0.930 1_565 S
C690 C688 1.384 . S
C690 C691 1.372 . S
C691 C690 1.372 . S
C691 C692 1.400 . S
C691 C696 1.490 1_565 S
C692 H682 0.930 . S
C692 C691 1.400 . S
C692 C695 1.386 . S
H693 C709 0.930 . S
H694 C710 0.931 . S
C695 H683 0.929 . S
C695 C689 1.390 . S
C695 C692 1.386 . S
C696 C691 1.490 1_545 S
C696 C698 1.395 . S
C696 C699 1.403 1_545 S
H697 C703 0.930 1_565 S
C698 H684 0.930 . S
C698 C696 1.395 . S
C698 C701 1.403 . S
C699 C696 1.403 1_565 S
C699 C700 1.524 . S
C699 C703 1.400 1_565 S
C700 H685 0.960 . S
C700 H686 0.960 . S
C700 H687 0.960 . S
C700 C699 1.524 . S
C701 C698 1.403 . S
C701 C702 1.392 . S
C701 C705 1.495 . S
C702 C701 1.392 . S
C702 C703 1.385 . S
C702 C704 1.478 . S
C703 H697 0.930 1_545 S
C703 C699 1.400 1_545 S
C703 C702 1.385 . S
C704 C702 1.478 . S
C704 C706 1.381 . S
C704 C710 1.383 . S
C705 C701 1.495 . S
C705 H711 0.959 . S
C705 H712 0.961 . S
C705 H713 0.960 . S
C706 C704 1.381 . S
C706 C707 1.394 . S
C706 H714 0.930 . S
C707 C706 1.394 . S
C707 C708 1.383 . S
C707 H715 0.929 . S
C708 C707 1.383 . S
C708 C709 1.377 . S
C709 H693 0.930 . S
C709 C708 1.377 . S
C709 C710 1.379 . S
C710 H694 0.931 . S
C710 C704 1.383 . S
C710 C709 1.379 . S
H711 C705 0.959 . S
H712 C705 0.961 . S
H713 C705 0.960 . S
H714 C706 0.930 . S
H715 C707 0.929 . S
H716 C724 0.929 . S
H717 C726 0.930 . S
H718 C728 0.930 . S
H719 C731 0.929 . S
H720 C734 0.930 . S
H721 C736 0.960 . S
H722 C736 0.960 . S
H723 C736 0.960 . S
C724 H716 0.929 . S
C724 C725 1.377 . S
C724 C726 1.384 . S
C725 C724 1.377 . S
C725 C731 1.390 . S
C726 H717 0.930 . S
C726 C724 1.384 . S
C726 C727 1.372 . S
C727 C726 1.372 . S
C727 C728 1.400 . S
C727 C732 1.490 . S
C728 H718 0.930 . S
C728 C727 1.400 . S
C728 C731 1.386 . S
H729 C745 0.930 . S
H730 C746 0.931 . S
C731 H719 0.929 . S
C731 C725 1.390 . S
C731 C728 1.386 . S
C732 C727 1.490 . S
C732 C734 1.395 . S
C732 C735 1.403 . S
H733 C739 0.930 . S
C734 H720 0.930 . S
C734 C732 1.395 . S
C734 C737 1.403 . S
C735 C732 1.403 . S
C735 C736 1.524 . S
C735 C739 1.400 . S
C736 H721 0.960 . S
C736 H722 0.960 . S
C736 H723 0.960 . S
C736 C735 1.524 . S
C737 C734 1.403 . S
C737 C738 1.392 . S
C737 C741 1.495 . S
C738 C737 1.392 . S
C738 C739 1.385 . S
C738 C740 1.478 . S
C739 H733 0.930 . S
C739 C735 1.400 . S
C739 C738 1.385 . S
C740 C738 1.478 . S
C740 C742 1.381 . S
C740 C746 1.383 . S
C741 C737 1.495 . S
C741 H747 0.959 . S
C741 H748 0.961 . S
C741 H749 0.960 . S
C742 C740 1.381 . S
C742 C743 1.394 . S
C742 H750 0.930 . S
C743 C742 1.394 . S
C743 C744 1.383 . S
C743 H751 0.929 . S
C744 C743 1.383 . S
C744 C745 1.377 . S
C745 H729 0.930 . S
C745 C744 1.377 . S
C745 C746 1.379 . S
C746 H730 0.931 . S
C746 C740 1.383 . S
C746 C745 1.379 . S
H747 C741 0.959 . S
H748 C741 0.961 . S
H749 C741 0.960 . S
H750 C742 0.930 . S
H751 C743 0.929 . S
H752 C760 0.929 . S
H753 C762 0.930 . S
H754 C764 0.930 . S
H755 C767 0.929 . S
H756 C770 0.930 . S
H757 C772 0.960 . S
H758 C772 0.960 . S
H759 C772 0.960 . S
C760 H752 0.929 . S
C760 C761 1.377 . S
C760 C762 1.384 . S
C761 C760 1.377 . S
C761 C767 1.390 . S
C762 H753 0.930 . S
C762 C760 1.384 . S
C762 C763 1.372 . S
C763 C762 1.372 . S
C763 C764 1.400 . S
C763 C768 1.490 . S
C764 H754 0.930 . S
C764 C763 1.400 . S
C764 C767 1.386 . S
H765 C781 0.930 . S
H766 C782 0.931 . S
C767 H755 0.929 . S
C767 C761 1.390 . S
C767 C764 1.386 . S
C768 C763 1.490 . S
C768 C770 1.395 . S
C768 C771 1.403 1_545 S
H769 C775 0.930 . S
C770 H756 0.930 . S
C770 C768 1.395 . S
C770 C773 1.403 . S
C771 C768 1.403 1_565 S
C771 C772 1.524 . S
C771 C775 1.400 . S
C772 H757 0.960 . S
C772 H758 0.960 . S
C772 H759 0.960 . S
C772 C771 1.524 . S
C773 C770 1.403 . S
C773 C774 1.392 . S
C773 C777 1.495 . S
C774 C773 1.392 . S
C774 C775 1.385 1_545 S
C774 C776 1.478 1_545 S
C775 H769 0.930 . S
C775 C771 1.400 . S
C775 C774 1.385 1_565 S
C776 C774 1.478 1_565 S
C776 C778 1.381 . S
C776 C782 1.383 . S
C777 C773 1.495 . S
C777 H783 0.959 . S
C777 H784 0.961 . S
C777 H785 0.960 . S
C778 C776 1.381 . S
C778 C779 1.394 . S
C778 H786 0.930 . S
C779 C778 1.394 . S
C779 C780 1.383 . S
C779 H787 0.929 . S
C780 C779 1.383 . S
C780 C781 1.377 . S
C781 H765 0.930 . S
C781 C780 1.377 . S
C781 C782 1.379 . S
C782 H766 0.931 . S
C782 C776 1.383 . S
C782 C781 1.379 . S
H783 C777 0.959 . S
H784 C777 0.961 . S
H785 C777 0.960 . S
H786 C778 0.930 . S
H787 C779 0.929 . S
H788 C796 0.929 . S
H789 C798 0.930 . S
H790 C800 0.930 . S
H791 C803 0.929 . S
H792 C806 0.930 . S
H793 C808 0.960 . S
H794 C808 0.960 . S
H795 C808 0.960 . S
C796 H788 0.929 . S
C796 C797 1.377 . S
C796 C798 1.384 . S
C797 C796 1.377 . S
C797 C803 1.390 . S
C798 H789 0.930 . S
C798 C796 1.384 . S
C798 C799 1.372 . S
C799 C798 1.372 . S
C799 C800 1.400 . S
C799 C804 1.490 . S
C800 H790 0.930 . S
C800 C799 1.400 . S
C800 C803 1.386 . S
H801 C817 0.930 . S
H802 C818 0.931 . S
C803 H791 0.929 . S
C803 C797 1.390 . S
C803 C800 1.386 . S
C804 C799 1.490 . S
C804 C806 1.395 . S
C804 C807 1.403 . S
H805 C811 0.930 . S
C806 H792 0.930 . S
C806 C804 1.395 . S
C806 C809 1.403 . S
C807 C804 1.403 . S
C807 C808 1.524 . S
C807 C811 1.400 . S
C808 H793 0.960 . S
C808 H794 0.960 . S
C808 H795 0.960 . S
C808 C807 1.524 . S
C809 C806 1.403 . S
C809 C810 1.392 . S
C809 C813 1.495 . S
C810 C809 1.392 . S
C810 C811 1.385 . S
C810 C812 1.478 . S
C811 H805 0.930 . S
C811 C807 1.400 . S
C811 C810 1.385 . S
C812 C810 1.478 . S
C812 C814 1.381 . S
C812 C818 1.383 . S
C813 C809 1.495 . S
C813 H819 0.959 . S
C813 H820 0.961 . S
C813 H821 0.960 . S
C814 C812 1.381 . S
C814 C815 1.394 . S
C814 H822 0.930 . S
C815 C814 1.394 . S
C815 C816 1.383 . S
C815 H823 0.929 . S
C816 C815 1.383 . S
C816 C817 1.377 . S
C817 H801 0.930 . S
C817 C816 1.377 . S
C817 C818 1.379 . S
C818 H802 0.931 . S
C818 C812 1.383 . S
C818 C817 1.379 . S
H819 C813 0.959 . S
H820 C813 0.961 . S
H821 C813 0.960 . S
H822 C814 0.930 . S
H823 C815 0.929 . S
H824 C832 0.929 . S
H825 C834 0.930 . S
H826 C836 0.930 . S
H827 C839 0.929 . S
H828 C842 0.930 . S
H829 C844 0.960 . S
H830 C844 0.960 . S
H831 C844 0.960 . S
C832 H824 0.929 . S
C832 C833 1.377 . S
C832 C834 1.384 . S
C833 C832 1.377 . S
C833 C839 1.390 . S
C834 H825 0.930 . S
C834 C832 1.384 . S
C834 C835 1.372 . S
C835 C834 1.372 . S
C835 C836 1.400 . S
C835 C840 1.490 . S
C836 H826 0.930 . S
C836 C835 1.400 . S
C836 C839 1.386 . S
H837 C853 0.930 . S
H838 C854 0.931 . S
C839 H827 0.929 . S
C839 C833 1.390 . S
C839 C836 1.386 . S
C840 C835 1.490 . S
C840 C842 1.395 . S
C840 C843 1.403 . S
H841 C847 0.930 . S
C842 H828 0.930 . S
C842 C840 1.395 . S
C842 C845 1.403 . S
C843 C840 1.403 . S
C843 C844 1.524 . S
C843 C847 1.400 . S
C844 H829 0.960 . S
C844 H830 0.960 . S
C844 H831 0.960 . S
C844 C843 1.524 . S
C845 C842 1.403 . S
C845 C846 1.392 . S
C845 C849 1.495 . S
C846 C845 1.392 . S
C846 C847 1.385 . S
C846 C848 1.478 . S
C847 H841 0.930 . S
C847 C843 1.400 . S
C847 C846 1.385 . S
C848 C846 1.478 . S
C848 C850 1.381 . S
C848 C854 1.383 . S
C849 C845 1.495 . S
C849 H855 0.959 . S
C849 H856 0.961 . S
C849 H857 0.960 . S
C850 C848 1.381 . S
C850 C851 1.394 . S
C850 H858 0.930 . S
C851 C850 1.394 . S
C851 C852 1.383 . S
C851 H859 0.929 . S
C852 C851 1.383 . S
C852 C853 1.377 . S
C853 H837 0.930 . S
C853 C852 1.377 . S
C853 C854 1.379 . S
C854 H838 0.931 . S
C854 C848 1.383 . S
C854 C853 1.379 . S
H855 C849 0.959 . S
H856 C849 0.961 . S
H857 C849 0.960 . S
H858 C850 0.930 . S
H859 C851 0.929 . S
H860 C868 0.929 . S
H861 C870 0.930 1_655 S
H862 C872 0.930 . S
H863 C875 0.929 . S
H864 C878 0.930 . S
H865 C880 0.960 . S
H866 C880 0.960 . S
H867 C880 0.960 . S
C868 H860 0.929 . S
C868 C869 1.377 . S
C868 C870 1.384 . S
C869 C868 1.377 . S
C869 C875 1.390 . S
C870 H861 0.930 1_455 S
C870 C868 1.384 . S
C870 C871 1.372 . S
C871 C870 1.372 . S
C871 C872 1.400 . S
C871 C876 1.490 . S
C872 H862 0.930 . S
C872 C871 1.400 . S
C872 C875 1.386 . S
H873 C889 0.930 . S
H874 C890 0.931 1_455 S
C875 H863 0.929 . S
C875 C869 1.390 . S
C875 C872 1.386 . S
C876 C871 1.490 . S
C876 C878 1.395 1_455 S
C876 C879 1.403 . S
H877 C883 0.930 . S
C878 H864 0.930 . S
C878 C876 1.395 1_655 S
C878 C881 1.403 . S
C879 C876 1.403 . S
C879 C880 1.524 . S
C879 C883 1.400 . S
C880 H865 0.960 . S
C880 H866 0.960 . S
C880 H867 0.960 . S
C880 C879 1.524 . S
C881 C878 1.403 . S
C881 C882 1.392 . S
C881 C885 1.495 . S
C882 C881 1.392 . S
C882 C883 1.385 1_655 S
C882 C884 1.478 . S
C883 H877 0.930 . S
C883 C879 1.400 . S
C883 C882 1.385 1_455 S
C884 C882 1.478 . S
C884 C886 1.381 . S
C884 C890 1.383 . S
C885 C881 1.495 . S
C885 H891 0.959 . S
C885 H892 0.961 . S
C885 H893 0.960 . S
C886 C884 1.381 . S
C886 C887 1.394 . S
C886 H894 0.930 . S
C887 C886 1.394 . S
C887 C888 1.383 . S
C887 H895 0.929 . S
C888 C887 1.383 . S
C888 C889 1.377 . S
C889 H873 0.930 . S
C889 C888 1.377 . S
C889 C890 1.379 . S
C890 H874 0.931 1_655 S
C890 C884 1.383 . S
C890 C889 1.379 . S
H891 C885 0.959 . S
H892 C885 0.961 . S
H893 C885 0.960 . S
H894 C886 0.930 . S
H895 C887 0.929 . S
H896 C904 0.929 . S
H897 C906 0.930 . S
H898 C908 0.930 . S
H899 C911 0.929 . S
H900 C914 0.930 . S
H901 C916 0.960 . S
H902 C916 0.960 . S
H903 C916 0.960 . S
C904 H896 0.929 . S
C904 C905 1.377 . S
C904 C906 1.384 . S
C905 C904 1.377 . S
C905 C911 1.390 . S
C906 H897 0.930 . S
C906 C904 1.384 . S
C906 C907 1.372 . S
C907 C906 1.372 . S
C907 C908 1.400 . S
C907 C912 1.490 . S
C908 H898 0.930 . S
C908 C907 1.400 . S
C908 C911 1.386 . S
H909 C925 0.930 . S
H910 C926 0.931 . S
C911 H899 0.929 . S
C911 C905 1.390 . S
C911 C908 1.386 . S
C912 C907 1.490 . S
C912 C914 1.395 . S
C912 C915 1.403 . S
H913 C919 0.930 . S
C914 H900 0.930 . S
C914 C912 1.395 . S
C914 C917 1.403 . S
C915 C912 1.403 . S
C915 C916 1.524 . S
C915 C919 1.400 . S
C916 H901 0.960 . S
C916 H902 0.960 . S
C916 H903 0.960 . S
C916 C915 1.524 . S
C917 C914 1.403 . S
C917 C918 1.392 . S
C917 C921 1.495 . S
C918 C917 1.392 . S
C918 C919 1.385 . S
C918 C920 1.478 . S
C919 H913 0.930 . S
C919 C915 1.400 . S
C919 C918 1.385 . S
C920 C918 1.478 . S
C920 C922 1.381 . S
C920 C926 1.383 . S
C921 C917 1.495 . S
C921 H927 0.959 . S
C921 H928 0.961 . S
C921 H929 0.960 . S
C922 C920 1.381 . S
C922 C923 1.394 . S
C922 H930 0.930 . S
C923 C922 1.394 . S
C923 C924 1.383 . S
C923 H931 0.929 . S
C924 C923 1.383 . S
C924 C925 1.377 . S
C925 H909 0.930 . S
C925 C924 1.377 . S
C925 C926 1.379 . S
C926 H910 0.931 . S
C926 C920 1.383 . S
C926 C925 1.379 . S
H927 C921 0.959 . S
H928 C921 0.961 . S
H929 C921 0.960 . S
H930 C922 0.930 . S
H931 C923 0.929 . S
H932 C940 0.929 . S
H933 C942 0.930 . S
H934 C944 0.930 . S
H935 C947 0.929 . S
H936 C950 0.930 . S
H937 C952 0.960 . S
H938 C952 0.960 . S
H939 C952 0.960 . S
C940 H932 0.929 . S
C940 C941 1.377 . S
C940 C942 1.384 . S
C941 C940 1.377 . S
C941 C947 1.390 . S
C942 H933 0.930 . S
C942 C940 1.384 . S
C942 C943 1.372 . S
C943 C942 1.372 . S
C943 C944 1.400 . S
C943 C948 1.490 . S
C944 H934 0.930 . S
C944 C943 1.400 . S
C944 C947 1.386 . S
H945 C961 0.930 . S
H946 C962 0.931 . S
C947 H935 0.929 . S
C947 C941 1.390 . S
C947 C944 1.386 . S
C948 C943 1.490 . S
C948 C950 1.395 . S
C948 C951 1.403 . S
H949 C955 0.930 . S
C950 H936 0.930 . S
C950 C948 1.395 . S
C950 C953 1.403 . S
C951 C948 1.403 . S
C951 C952 1.524 . S
C951 C955 1.400 . S
C952 H937 0.960 . S
C952 H938 0.960 . S
C952 H939 0.960 . S
C952 C951 1.524 . S
C953 C950 1.403 . S
C953 C954 1.392 . S
C953 C957 1.495 . S
C954 C953 1.392 . S
C954 C955 1.385 . S
C954 C956 1.478 . S
C955 H949 0.930 . S
C955 C951 1.400 . S
C955 C954 1.385 . S
C956 C954 1.478 . S
C956 C958 1.381 . S
C956 C962 1.383 . S
C957 C953 1.495 . S
C957 H963 0.959 . S
C957 H964 0.961 . S
C957 H965 0.960 . S
C958 C956 1.381 . S
C958 C959 1.394 . S
C958 H966 0.930 . S
C959 C958 1.394 . S
C959 C960 1.383 . S
C959 H967 0.929 . S
C960 C959 1.383 . S
C960 C961 1.377 . S
C961 H945 0.930 . S
C961 C960 1.377 . S
C961 C962 1.379 . S
C962 H946 0.931 . S
C962 C956 1.383 . S
C962 C961 1.379 . S
H963 C957 0.959 . S
H964 C957 0.961 . S
H965 C957 0.960 . S
H966 C958 0.930 . S
H967 C959 0.929 . S
H968 C976 0.929 . S
H969 C978 0.930 . S
H970 C980 0.930 . S
H971 C983 0.929 . S
H972 C986 0.930 . S
H973 C988 0.960 . S
H974 C988 0.960 . S
H975 C988 0.960 . S
C976 H968 0.929 . S
C976 C977 1.377 . S
C976 C978 1.384 . S
C977 C976 1.377 . S
C977 C983 1.390 . S
C978 H969 0.930 . S
C978 C976 1.384 . S
C978 C979 1.372 . S
C979 C978 1.372 . S
C979 C980 1.400 . S
C979 C984 1.490 . S
C980 H970 0.930 . S
C980 C979 1.400 . S
C980 C983 1.386 . S
H981 C997 0.930 . S
H982 C998 0.931 . S
C983 H971 0.929 . S
C983 C977 1.390 . S
C983 C980 1.386 . S
C984 C979 1.490 . S
C984 C986 1.395 . S
C984 C987 1.403 . S
H985 C991 0.930 . S
C986 H972 0.930 . S
C986 C984 1.395 . S
C986 C989 1.403 . S
C987 C984 1.403 . S
C987 C988 1.524 . S
C987 C991 1.400 . S
C988 H973 0.960 . S
C988 H974 0.960 . S
C988 H975 0.960 . S
C988 C987 1.524 . S
C989 C986 1.403 . S
C989 C990 1.392 . S
C989 C993 1.495 . S
C990 C989 1.392 . S
C990 C991 1.385 . S
C990 C992 1.478 . S
C991 H985 0.930 . S
C991 C987 1.400 . S
C991 C990 1.385 . S
C992 C990 1.478 . S
C992 C994 1.381 . S
C992 C998 1.383 . S
C993 C989 1.495 . S
C993 H999 0.959 . S
C993 H1000 0.961 . S
C993 H1001 0.960 . S
C994 C992 1.381 . S
C994 C995 1.394 . S
C994 H1002 0.930 . S
C995 C994 1.394 . S
C995 C996 1.383 . S
C995 H1003 0.929 . S
C996 C995 1.383 . S
C996 C997 1.377 . S
C997 H981 0.930 . S
C997 C996 1.377 . S
C997 C998 1.379 . S
C998 H982 0.931 . S
C998 C992 1.383 . S
C998 C997 1.379 . S
H999 C993 0.959 . S
H1000 C993 0.961 . S
H1001 C993 0.960 . S
H1002 C994 0.930 . S
H1003 C995 0.929 . S
H1004 C1012 0.929 . S
H1005 C1014 0.930 . S
H1006 C1016 0.930 . S
H1007 C1019 0.929 . S
H1008 C1022 0.930 . S
H1009 C1024 0.960 . S
H1010 C1024 0.960 . S
H1011 C1024 0.960 . S
C1012 H1004 0.929 . S
C1012 C1013 1.377 . S
C1012 C1014 1.384 . S
C1013 C1012 1.377 . S
C1013 C1019 1.390 . S
C1014 H1005 0.930 . S
C1014 C1012 1.384 . S
C1014 C1015 1.372 . S
C1015 C1014 1.372 . S
C1015 C1016 1.400 . S
C1015 C1020 1.490 . S
C1016 H1006 0.930 . S
C1016 C1015 1.400 . S
C1016 C1019 1.386 . S
H1017 C1033 0.930 . S
H1018 C1034 0.931 . S
C1019 H1007 0.929 . S
C1019 C1013 1.390 . S
C1019 C1016 1.386 . S
C1020 C1015 1.490 . S
C1020 C1022 1.395 . S
C1020 C1023 1.403 . S
H1021 C1027 0.930 . S
C1022 H1008 0.930 . S
C1022 C1020 1.395 . S
C1022 C1025 1.403 . S
C1023 C1020 1.403 . S
C1023 C1024 1.524 . S
C1023 C1027 1.400 . S
C1024 H1009 0.960 . S
C1024 H1010 0.960 . S
C1024 H1011 0.960 . S
C1024 C1023 1.524 . S
C1025 C1022 1.403 . S
C1025 C1026 1.392 . S
C1025 C1029 1.495 . S
C1026 C1025 1.392 . S
C1026 C1027 1.385 . S
C1026 C1028 1.478 . S
C1027 H1021 0.930 . S
C1027 C1023 1.400 . S
C1027 C1026 1.385 . S
C1028 C1026 1.478 . S
C1028 C1030 1.381 . S
C1028 C1034 1.383 . S
C1029 C1025 1.495 . S
C1029 H1035 0.959 . S
C1029 H1036 0.961 . S
C1029 H1037 0.960 . S
C1030 C1028 1.381 . S
C1030 C1031 1.394 . S
C1030 H1038 0.930 . S
C1031 C1030 1.394 . S
C1031 C1032 1.383 . S
C1031 H1039 0.929 . S
C1032 C1031 1.383 . S
C1032 C1033 1.377 . S
C1033 H1017 0.930 . S
C1033 C1032 1.377 . S
C1033 C1034 1.379 . S
C1034 H1018 0.931 . S
C1034 C1028 1.383 . S
C1034 C1033 1.379 . S
H1035 C1029 0.959 . S
H1036 C1029 0.961 . S
H1037 C1029 0.960 . S
H1038 C1030 0.930 . S
H1039 C1031 0.929 . S
H1040 C1048 0.929 . S
H1041 C1050 0.930 . S
H1042 C1052 0.930 . S
H1043 C1055 0.929 . S
H1044 C1058 0.930 . S
H1045 C1060 0.960 . S
H1046 C1060 0.960 . S
H1047 C1060 0.960 . S
C1048 H1040 0.929 . S
C1048 C1049 1.377 . S
C1048 C1050 1.384 . S
C1049 C1048 1.377 . S
C1049 C1055 1.390 . S
C1050 H1041 0.930 . S
C1050 C1048 1.384 . S
C1050 C1051 1.372 . S
C1051 C1050 1.372 . S
C1051 C1052 1.400 . S
C1051 C1056 1.490 . S
C1052 H1042 0.930 . S
C1052 C1051 1.400 . S
C1052 C1055 1.386 . S
H1053 C1069 0.930 . S
H1054 C1070 0.931 . S
C1055 H1043 0.929 . S
C1055 C1049 1.390 . S
C1055 C1052 1.386 . S
C1056 C1051 1.490 . S
C1056 C1058 1.395 . S
C1056 C1059 1.403 . S
H1057 C1063 0.930 . S
C1058 H1044 0.930 . S
C1058 C1056 1.395 . S
C1058 C1061 1.403 . S
C1059 C1056 1.403 . S
C1059 C1060 1.524 . S
C1059 C1063 1.400 . S
C1060 H1045 0.960 . S
C1060 H1046 0.960 . S
C1060 H1047 0.960 . S
C1060 C1059 1.524 . S
C1061 C1058 1.403 . S
C1061 C1062 1.392 . S
C1061 C1065 1.495 . S
C1062 C1061 1.392 . S
C1062 C1063 1.385 . S
C1062 C1064 1.478 . S
C1063 H1057 0.930 . S
C1063 C1059 1.400 . S
C1063 C1062 1.385 . S
C1064 C1062 1.478 . S
C1064 C1066 1.381 . S
C1064 C1070 1.383 . S
C1065 C1061 1.495 . S
C1065 H1071 0.959 . S
C1065 H1072 0.961 . S
C1065 H1073 0.960 . S
C1066 C1064 1.381 . S
C1066 C1067 1.394 . S
C1066 H1074 0.930 . S
C1067 C1066 1.394 . S
C1067 C1068 1.383 . S
C1067 H1075 0.929 . S
C1068 C1067 1.383 . S
C1068 C1069 1.377 . S
C1069 H1053 0.930 . S
C1069 C1068 1.377 . S
C1069 C1070 1.379 . S
C1070 H1054 0.931 . S
C1070 C1064 1.383 . S
C1070 C1069 1.379 . S
H1071 C1065 0.959 . S
H1072 C1065 0.961 . S
H1073 C1065 0.960 . S
H1074 C1066 0.930 . S
H1075 C1067 0.929 . S
H1076 C1084 0.929 . S
H1077 C1086 0.930 . S
H1078 C1088 0.930 . S
H1079 C1091 0.929 . S
H1080 C1094 0.930 . S
H1081 C1096 0.960 . S
H1082 C1096 0.960 . S
H1083 C1096 0.960 . S
C1084 H1076 0.929 . S
C1084 C1085 1.377 . S
C1084 C1086 1.384 . S
C1085 C1084 1.377 . S
C1085 C1091 1.390 . S
C1086 H1077 0.930 . S
C1086 C1084 1.384 . S
C1086 C1087 1.372 . S
C1087 C1086 1.372 . S
C1087 C1088 1.400 . S
C1087 C1092 1.490 . S
C1088 H1078 0.930 . S
C1088 C1087 1.400 . S
C1088 C1091 1.386 . S
H1089 C1105 0.930 . S
H1090 C1106 0.931 . S
C1091 H1079 0.929 . S
C1091 C1085 1.390 . S
C1091 C1088 1.386 . S
C1092 C1087 1.490 . S
C1092 C1094 1.395 . S
C1092 C1095 1.403 . S
H1093 C1099 0.930 . S
C1094 H1080 0.930 . S
C1094 C1092 1.395 . S
C1094 C1097 1.403 . S
C1095 C1092 1.403 . S
C1095 C1096 1.524 . S
C1095 C1099 1.400 . S
C1096 H1081 0.960 . S
C1096 H1082 0.960 . S
C1096 H1083 0.960 . S
C1096 C1095 1.524 . S
C1097 C1094 1.403 . S
C1097 C1098 1.392 . S
C1097 C1101 1.495 . S
C1098 C1097 1.392 . S
C1098 C1099 1.385 . S
C1098 C1100 1.478 . S
C1099 H1093 0.930 . S
C1099 C1095 1.400 . S
C1099 C1098 1.385 . S
C1100 C1098 1.478 . S
C1100 C1102 1.381 . S
C1100 C1106 1.383 . S
C1101 C1097 1.495 . S
C1101 H1107 0.959 . S
C1101 H1108 0.961 . S
C1101 H1109 0.960 . S
C1102 C1100 1.381 . S
C1102 C1103 1.394 . S
C1102 H1110 0.930 . S
C1103 C1102 1.394 . S
C1103 C1104 1.383 . S
C1103 H1111 0.929 . S
C1104 C1103 1.383 . S
C1104 C1105 1.377 . S
C1105 H1089 0.930 . S
C1105 C1104 1.377 . S
C1105 C1106 1.379 . S
C1106 H1090 0.931 . S
C1106 C1100 1.383 . S
C1106 C1105 1.379 . S
H1107 C1101 0.959 . S
H1108 C1101 0.961 . S
H1109 C1101 0.960 . S
H1110 C1102 0.930 . S
H1111 C1103 0.929 . S
H1112 C1120 0.929 . S
H1113 C1122 0.930 . S
H1114 C1124 0.930 . S
H1115 C1127 0.929 . S
H1116 C1130 0.930 . S
H1117 C1132 0.960 . S
H1118 C1132 0.960 . S
H1119 C1132 0.960 . S
C1120 H1112 0.929 . S
C1120 C1121 1.377 . S
C1120 C1122 1.384 . S
C1121 C1120 1.377 . S
C1121 C1127 1.390 . S
C1122 H1113 0.930 . S
C1122 C1120 1.384 . S
C1122 C1123 1.372 . S
C1123 C1122 1.372 . S
C1123 C1124 1.400 . S
C1123 C1128 1.490 . S
C1124 H1114 0.930 . S
C1124 C1123 1.400 . S
C1124 C1127 1.386 . S
H1125 C1141 0.930 . S
H1126 C1142 0.931 . S
C1127 H1115 0.929 . S
C1127 C1121 1.390 . S
C1127 C1124 1.386 . S
C1128 C1123 1.490 . S
C1128 C1130 1.395 . S
C1128 C1131 1.403 . S
H1129 C1135 0.930 . S
C1130 H1116 0.930 . S
C1130 C1128 1.395 . S
C1130 C1133 1.403 . S
C1131 C1128 1.403 . S
C1131 C1132 1.524 . S
C1131 C1135 1.400 . S
C1132 H1117 0.960 . S
C1132 H1118 0.960 . S
C1132 H1119 0.960 . S
C1132 C1131 1.524 . S
C1133 C1130 1.403 . S
C1133 C1134 1.392 . S
C1133 C1137 1.495 . S
C1134 C1133 1.392 . S
C1134 C1135 1.385 . S
C1134 C1136 1.478 . S
C1135 H1129 0.930 . S
C1135 C1131 1.400 . S
C1135 C1134 1.385 . S
C1136 C1134 1.478 . S
C1136 C1138 1.381 . S
C1136 C1142 1.383 . S
C1137 C1133 1.495 . S
C1137 H1143 0.959 . S
C1137 H1144 0.961 . S
C1137 H1145 0.960 . S
C1138 C1136 1.381 . S
C1138 C1139 1.394 . S
C1138 H1146 0.930 . S
C1139 C1138 1.394 . S
C1139 C1140 1.383 . S
C1139 H1147 0.929 . S
C1140 C1139 1.383 . S
C1140 C1141 1.377 . S
C1141 H1125 0.930 . S
C1141 C1140 1.377 . S
C1141 C1142 1.379 . S
C1142 H1126 0.931 . S
C1142 C1136 1.383 . S
C1142 C1141 1.379 . S
H1143 C1137 0.959 . S
H1144 C1137 0.961 . S
H1145 C1137 0.960 . S
H1146 C1138 0.930 . S
H1147 C1139 0.929 . S
H1148 C1156 0.929 . S
H1149 C1158 0.930 . S
H1150 C1160 0.930 . S
H1151 C1163 0.929 . S
H1152 C1166 0.930 . S
H1153 C1168 0.960 . S
H1154 C1168 0.960 . S
H1155 C1168 0.960 . S
C1156 H1148 0.929 . S
C1156 C1157 1.377 . S
C1156 C1158 1.384 . S
C1157 C1156 1.377 . S
C1157 C1163 1.390 . S
C1158 H1149 0.930 . S
C1158 C1156 1.384 . S
C1158 C1159 1.372 . S
C1159 C1158 1.372 . S
C1159 C1160 1.400 . S
C1159 C1164 1.490 . S
C1160 H1150 0.930 . S
C1160 C1159 1.400 . S
C1160 C1163 1.386 . S
H1161 C1177 0.930 . S
H1162 C1178 0.931 . S
C1163 H1151 0.929 . S
C1163 C1157 1.390 . S
C1163 C1160 1.386 . S
C1164 C1159 1.490 . S
C1164 C1166 1.395 . S
C1164 C1167 1.403 . S
H1165 C1171 0.930 . S
C1166 H1152 0.930 . S
C1166 C1164 1.395 . S
C1166 C1169 1.403 . S
C1167 C1164 1.403 . S
C1167 C1168 1.524 . S
C1167 C1171 1.400 . S
C1168 H1153 0.960 . S
C1168 H1154 0.960 . S
C1168 H1155 0.960 . S
C1168 C1167 1.524 . S
C1169 C1166 1.403 . S
C1169 C1170 1.392 . S
C1169 C1173 1.495 . S
C1170 C1169 1.392 . S
C1170 C1171 1.385 . S
C1170 C1172 1.478 . S
C1171 H1165 0.930 . S
C1171 C1167 1.400 . S
C1171 C1170 1.385 . S
C1172 C1170 1.478 . S
C1172 C1174 1.381 . S
C1172 C1178 1.383 . S
C1173 C1169 1.495 . S
C1173 H1179 0.959 . S
C1173 H1180 0.961 . S
C1173 H1181 0.960 . S
C1174 C1172 1.381 . S
C1174 C1175 1.394 . S
C1174 H1182 0.930 . S
C1175 C1174 1.394 . S
C1175 C1176 1.383 . S
C1175 H1183 0.929 . S
C1176 C1175 1.383 . S
C1176 C1177 1.377 . S
C1177 H1161 0.930 . S
C1177 C1176 1.377 . S
C1177 C1178 1.379 . S
C1178 H1162 0.931 . S
C1178 C1172 1.383 . S
C1178 C1177 1.379 . S
H1179 C1173 0.959 . S
H1180 C1173 0.961 . S
H1181 C1173 0.960 . S
H1182 C1174 0.930 . S
H1183 C1175 0.929 . S
H1184 C1192 0.929 . S
H1185 C1194 0.930 . S
H1186 C1196 0.930 . S
H1187 C1199 0.929 . S
H1188 C1202 0.930 . S
H1189 C1204 0.960 . S
H1190 C1204 0.960 . S
H1191 C1204 0.960 . S
C1192 H1184 0.929 . S
C1192 C1193 1.377 . S
C1192 C1194 1.384 . S
C1193 C1192 1.377 . S
C1193 C1199 1.390 . S
C1194 H1185 0.930 . S
C1194 C1192 1.384 . S
C1194 C1195 1.372 . S
C1195 C1194 1.372 . S
C1195 C1196 1.400 . S
C1195 C1200 1.490 . S
C1196 H1186 0.930 . S
C1196 C1195 1.400 . S
C1196 C1199 1.386 . S
H1197 C1213 0.930 . S
H1198 C1214 0.931 . S
C1199 H1187 0.929 . S
C1199 C1193 1.390 . S
C1199 C1196 1.386 . S
C1200 C1195 1.490 . S
C1200 C1202 1.395 . S
C1200 C1203 1.403 . S
H1201 C1207 0.930 . S
C1202 H1188 0.930 . S
C1202 C1200 1.395 . S
C1202 C1205 1.403 . S
C1203 C1200 1.403 . S
C1203 C1204 1.524 . S
C1203 C1207 1.400 . S
C1204 H1189 0.960 . S
C1204 H1190 0.960 . S
C1204 H1191 0.960 . S
C1204 C1203 1.524 . S
C1205 C1202 1.403 . S
C1205 C1206 1.392 . S
C1205 C1209 1.495 . S
C1206 C1205 1.392 . S
C1206 C1207 1.385 . S
C1206 C1208 1.478 . S
C1207 H1201 0.930 . S
C1207 C1203 1.400 . S
C1207 C1206 1.385 . S
C1208 C1206 1.478 . S
C1208 C1210 1.381 . S
C1208 C1214 1.383 . S
C1209 C1205 1.495 . S
C1209 H1215 0.959 . S
C1209 H1216 0.961 . S
C1209 H1217 0.960 . S
C1210 C1208 1.381 . S
C1210 C1211 1.394 . S
C1210 H1218 0.930 . S
C1211 C1210 1.394 . S
C1211 C1212 1.383 . S
C1211 H1219 0.929 . S
C1212 C1211 1.383 . S
C1212 C1213 1.377 . S
C1213 H1197 0.930 . S
C1213 C1212 1.377 . S
C1213 C1214 1.379 . S
C1214 H1198 0.931 . S
C1214 C1208 1.383 . S
C1214 C1213 1.379 . S
H1215 C1209 0.959 . S
H1216 C1209 0.961 . S
H1217 C1209 0.960 . S
H1218 C1210 0.930 . S
H1219 C1211 0.929 . S
H1220 C1228 0.929 . S
H1221 C1230 0.930 . S
H1222 C1232 0.930 . S
H1223 C1235 0.929 . S
H1224 C1238 0.930 . S
H1225 C1240 0.960 . S
H1226 C1240 0.960 . S
H1227 C1240 0.960 . S
C1228 H1220 0.929 . S
C1228 C1229 1.377 . S
C1228 C1230 1.384 . S
C1229 C1228 1.377 . S
C1229 C1235 1.390 . S
C1230 H1221 0.930 . S
C1230 C1228 1.384 . S
C1230 C1231 1.372 . S
C1231 C1230 1.372 . S
C1231 C1232 1.400 . S
C1231 C1236 1.490 . S
C1232 H1222 0.930 . S
C1232 C1231 1.400 . S
C1232 C1235 1.386 . S
H1233 C1249 0.930 . S
H1234 C1250 0.931 . S
C1235 H1223 0.929 . S
C1235 C1229 1.390 . S
C1235 C1232 1.386 . S
C1236 C1231 1.490 . S
C1236 C1238 1.395 . S
C1236 C1239 1.403 . S
H1237 C1243 0.930 . S
C1238 H1224 0.930 . S
C1238 C1236 1.395 . S
C1238 C1241 1.403 . S
C1239 C1236 1.403 . S
C1239 C1240 1.524 . S
C1239 C1243 1.400 . S
C1240 H1225 0.960 . S
C1240 H1226 0.960 . S
C1240 H1227 0.960 . S
C1240 C1239 1.524 . S
C1241 C1238 1.403 . S
C1241 C1242 1.392 . S
C1241 C1245 1.495 . S
C1242 C1241 1.392 . S
C1242 C1243 1.385 . S
C1242 C1244 1.478 . S
C1243 H1237 0.930 . S
C1243 C1239 1.400 . S
C1243 C1242 1.385 . S
C1244 C1242 1.478 . S
C1244 C1246 1.381 . S
C1244 C1250 1.383 . S
C1245 C1241 1.495 . S
C1245 H1251 0.959 . S
C1245 H1252 0.961 . S
C1245 H1253 0.960 . S
C1246 C1244 1.381 . S
C1246 C1247 1.394 . S
C1246 H1254 0.930 . S
C1247 C1246 1.394 . S
C1247 C1248 1.383 . S
C1247 H1255 0.929 . S
C1248 C1247 1.383 . S
C1248 C1249 1.377 . S
C1249 H1233 0.930 . S
C1249 C1248 1.377 . S
C1249 C1250 1.379 . S
C1250 H1234 0.931 . S
C1250 C1244 1.383 . S
C1250 C1249 1.379 . S
H1251 C1245 0.959 . S
H1252 C1245 0.961 . S
H1253 C1245 0.960 . S
H1254 C1246 0.930 . S
H1255 C1247 0.929 . S
H1256 C1264 0.929 . S
H1257 C1266 0.930 . S
H1258 C1268 0.930 . S
H1259 C1271 0.929 . S
H1260 C1274 0.930 . S
H1261 C1276 0.960 . S
H1262 C1276 0.960 . S
H1263 C1276 0.960 . S
C1264 H1256 0.929 . S
C1264 C1265 1.377 . S
C1264 C1266 1.384 . S
C1265 C1264 1.377 . S
C1265 C1271 1.390 . S
C1266 H1257 0.930 . S
C1266 C1264 1.384 . S
C1266 C1267 1.372 . S
C1267 C1266 1.372 . S
C1267 C1268 1.400 . S
C1267 C1272 1.490 . S
C1268 H1258 0.930 . S
C1268 C1267 1.400 . S
C1268 C1271 1.386 . S
H1269 C1285 0.930 . S
H1270 C1286 0.931 . S
C1271 H1259 0.929 . S
C1271 C1265 1.390 . S
C1271 C1268 1.386 . S
C1272 C1267 1.490 . S
C1272 C1274 1.395 . S
C1272 C1275 1.403 . S
H1273 C1279 0.930 . S
C1274 H1260 0.930 . S
C1274 C1272 1.395 . S
C1274 C1277 1.403 . S
C1275 C1272 1.403 . S
C1275 C1276 1.524 . S
C1275 C1279 1.400 . S
C1276 H1261 0.960 . S
C1276 H1262 0.960 . S
C1276 H1263 0.960 . S
C1276 C1275 1.524 . S
C1277 C1274 1.403 . S
C1277 C1278 1.392 . S
C1277 C1281 1.495 . S
C1278 C1277 1.392 . S
C1278 C1279 1.385 . S
C1278 C1280 1.478 . S
C1279 H1273 0.930 . S
C1279 C1275 1.400 . S
C1279 C1278 1.385 . S
C1280 C1278 1.478 . S
C1280 C1282 1.381 . S
C1280 C1286 1.383 . S
C1281 C1277 1.495 . S
C1281 H1287 0.959 . S
C1281 H1288 0.961 . S
C1281 H1289 0.960 . S
C1282 C1280 1.381 . S
C1282 C1283 1.394 . S
C1282 H1290 0.930 . S
C1283 C1282 1.394 . S
C1283 C1284 1.383 . S
C1283 H1291 0.929 . S
C1284 C1283 1.383 . S
C1284 C1285 1.377 . S
C1285 H1269 0.930 . S
C1285 C1284 1.377 . S
C1285 C1286 1.379 . S
C1286 H1270 0.931 . S
C1286 C1280 1.383 . S
C1286 C1285 1.379 . S
H1287 C1281 0.959 . S
H1288 C1281 0.961 . S
H1289 C1281 0.960 . S
H1290 C1282 0.930 . S
H1291 C1283 0.929 . S
H1292 C1300 0.929 . S
H1293 C1302 0.930 . S
H1294 C1304 0.930 . S
H1295 C1307 0.929 . S
H1296 C1310 0.930 . S
H1297 C1312 0.960 . S
H1298 C1312 0.960 . S
H1299 C1312 0.960 . S
C1300 H1292 0.929 . S
C1300 C1301 1.377 . S
C1300 C1302 1.384 . S
C1301 C1300 1.377 . S
C1301 C1307 1.390 . S
C1302 H1293 0.930 . S
C1302 C1300 1.384 . S
C1302 C1303 1.372 . S
C1303 C1302 1.372 . S
C1303 C1304 1.400 . S
C1303 C1308 1.490 . S
C1304 H1294 0.930 . S
C1304 C1303 1.400 . S
C1304 C1307 1.386 . S
H1305 C1321 0.930 . S
H1306 C1322 0.931 . S
C1307 H1295 0.929 . S
C1307 C1301 1.390 . S
C1307 C1304 1.386 . S
C1308 C1303 1.490 . S
C1308 C1310 1.395 . S
C1308 C1311 1.403 . S
H1309 C1315 0.930 . S
C1310 H1296 0.930 . S
C1310 C1308 1.395 . S
C1310 C1313 1.403 . S
C1311 C1308 1.403 . S
C1311 C1312 1.524 . S
C1311 C1315 1.400 . S
C1312 H1297 0.960 . S
C1312 H1298 0.960 . S
C1312 H1299 0.960 . S
C1312 C1311 1.524 . S
C1313 C1310 1.403 . S
C1313 C1314 1.392 . S
C1313 C1317 1.495 . S
C1314 C1313 1.392 . S
C1314 C1315 1.385 . S
C1314 C1316 1.478 . S
C1315 H1309 0.930 . S
C1315 C1311 1.400 . S
C1315 C1314 1.385 . S
C1316 C1314 1.478 . S
C1316 C1318 1.381 . S
C1316 C1322 1.383 . S
C1317 C1313 1.495 . S
C1317 H1323 0.959 . S
C1317 H1324 0.961 . S
C1317 H1325 0.960 . S
C1318 C1316 1.381 . S
C1318 C1319 1.394 . S
C1318 H1326 0.930 . S
C1319 C1318 1.394 . S
C1319 C1320 1.383 . S
C1319 H1327 0.929 . S
C1320 C1319 1.383 . S
C1320 C1321 1.377 . S
C1321 H1305 0.930 . S
C1321 C1320 1.377 . S
C1321 C1322 1.379 . S
C1322 H1306 0.931 . S
C1322 C1316 1.383 . S
C1322 C1321 1.379 . S
H1323 C1317 0.959 . S
H1324 C1317 0.961 . S
H1325 C1317 0.960 . S
H1326 C1318 0.930 . S
H1327 C1319 0.929 . S
H1328 C1336 0.929 . S
H1329 C1338 0.930 . S
H1330 C1340 0.930 . S
H1331 C1343 0.929 . S
H1332 C1346 0.930 . S
H1333 C1348 0.960 . S
H1334 C1348 0.960 . S
H1335 C1348 0.960 . S
C1336 H1328 0.929 . S
C1336 C1337 1.377 . S
C1336 C1338 1.384 . S
C1337 C1336 1.377 . S
C1337 C1343 1.390 . S
C1338 H1329 0.930 . S
C1338 C1336 1.384 . S
C1338 C1339 1.372 . S
C1339 C1338 1.372 . S
C1339 C1340 1.400 . S
C1339 C1344 1.490 . S
C1340 H1330 0.930 . S
C1340 C1339 1.400 . S
C1340 C1343 1.386 . S
H1341 C1357 0.930 . S
H1342 C1358 0.931 . S
C1343 H1331 0.929 . S
C1343 C1337 1.390 . S
C1343 C1340 1.386 . S
C1344 C1339 1.490 . S
C1344 C1346 1.395 . S
C1344 C1347 1.403 . S
H1345 C1351 0.930 . S
C1346 H1332 0.930 . S
C1346 C1344 1.395 . S
C1346 C1349 1.403 . S
C1347 C1344 1.403 . S
C1347 C1348 1.524 . S
C1347 C1351 1.400 . S
C1348 H1333 0.960 . S
C1348 H1334 0.960 . S
C1348 H1335 0.960 . S
C1348 C1347 1.524 . S
C1349 C1346 1.403 . S
C1349 C1350 1.392 . S
C1349 C1353 1.495 . S
C1350 C1349 1.392 . S
C1350 C1351 1.385 . S
C1350 C1352 1.478 . S
C1351 H1345 0.930 . S
C1351 C1347 1.400 . S
C1351 C1350 1.385 . S
C1352 C1350 1.478 . S
C1352 C1354 1.381 . S
C1352 C1358 1.383 . S
C1353 C1349 1.495 . S
C1353 H1359 0.959 . S
C1353 H1360 0.961 . S
C1353 H1361 0.960 . S
C1354 C1352 1.381 . S
C1354 C1355 1.394 . S
C1354 H1362 0.930 . S
C1355 C1354 1.394 . S
C1355 C1356 1.383 . S
C1355 H1363 0.929 . S
C1356 C1355 1.383 . S
C1356 C1357 1.377 . S
C1357 H1341 0.930 . S
C1357 C1356 1.377 . S
C1357 C1358 1.379 . S
C1358 H1342 0.931 . S
C1358 C1352 1.383 . S
C1358 C1357 1.379 . S
H1359 C1353 0.959 . S
H1360 C1353 0.961 . S
H1361 C1353 0.960 . S
H1362 C1354 0.930 . S
H1363 C1355 0.929 . S
H1364 C1372 0.929 . S
H1365 C1374 0.930 . S
H1366 C1376 0.930 . S
H1367 C1379 0.929 . S
H1368 C1382 0.930 . S
H1369 C1384 0.960 . S
H1370 C1384 0.960 . S
H1371 C1384 0.960 . S
C1372 H1364 0.929 . S
C1372 C1373 1.377 . S
C1372 C1374 1.384 . S
C1373 C1372 1.377 . S
C1373 C1379 1.390 . S
C1374 H1365 0.930 . S
C1374 C1372 1.384 . S
C1374 C1375 1.372 . S
C1375 C1374 1.372 . S
C1375 C1376 1.400 . S
C1375 C1380 1.490 . S
C1376 H1366 0.930 . S
C1376 C1375 1.400 . S
C1376 C1379 1.386 . S
H1377 C1393 0.930 . S
H1378 C1394 0.931 . S
C1379 H1367 0.929 . S
C1379 C1373 1.390 . S
C1379 C1376 1.386 . S
C1380 C1375 1.490 . S
C1380 C1382 1.395 . S
C1380 C1383 1.403 . S
H1381 C1387 0.930 . S
C1382 H1368 0.930 . S
C1382 C1380 1.395 . S
C1382 C1385 1.403 . S
C1383 C1380 1.403 . S
C1383 C1384 1.524 . S
C1383 C1387 1.400 . S
C1384 H1369 0.960 . S
C1384 H1370 0.960 . S
C1384 H1371 0.960 . S
C1384 C1383 1.524 . S
C1385 C1382 1.403 . S
C1385 C1386 1.392 . S
C1385 C1389 1.495 . S
C1386 C1385 1.392 . S
C1386 C1387 1.385 . S
C1386 C1388 1.478 . S
C1387 H1381 0.930 . S
C1387 C1383 1.400 . S
C1387 C1386 1.385 . S
C1388 C1386 1.478 . S
C1388 C1390 1.381 . S
C1388 C1394 1.383 . S
C1389 C1385 1.495 . S
C1389 H1395 0.959 . S
C1389 H1396 0.961 . S
C1389 H1397 0.960 . S
C1390 C1388 1.381 . S
C1390 C1391 1.394 . S
C1390 H1398 0.930 . S
C1391 C1390 1.394 . S
C1391 C1392 1.383 . S
C1391 H1399 0.929 . S
C1392 C1391 1.383 . S
C1392 C1393 1.377 . S
C1393 H1377 0.930 . S
C1393 C1392 1.377 . S
C1393 C1394 1.379 . S
C1394 H1378 0.931 . S
C1394 C1388 1.383 . S
C1394 C1393 1.379 . S
H1395 C1389 0.959 . S
H1396 C1389 0.961 . S
H1397 C1389 0.960 . S
H1398 C1390 0.930 . S
H1399 C1391 0.929 . S
H1400 C1408 0.929 . S
H1401 C1410 0.930 . S
H1402 C1412 0.930 . S
H1403 C1415 0.929 . S
H1404 C1418 0.930 . S
H1405 C1420 0.960 . S
H1406 C1420 0.960 . S
H1407 C1420 0.960 . S
C1408 H1400 0.929 . S
C1408 C1409 1.377 . S
C1408 C1410 1.384 . S
C1409 C1408 1.377 . S
C1409 C1415 1.390 . S
C1410 H1401 0.930 . S
C1410 C1408 1.384 . S
C1410 C1411 1.372 . S
C1411 C1410 1.372 . S
C1411 C1412 1.400 . S
C1411 C1416 1.490 . S
C1412 H1402 0.930 . S
C1412 C1411 1.400 . S
C1412 C1415 1.386 . S
H1413 C1429 0.930 . S
H1414 C1430 0.931 . S
C1415 H1403 0.929 . S
C1415 C1409 1.390 . S
C1415 C1412 1.386 . S
C1416 C1411 1.490 . S
C1416 C1418 1.395 . S
C1416 C1419 1.403 . S
H1417 C1423 0.930 . S
C1418 H1404 0.930 . S
C1418 C1416 1.395 . S
C1418 C1421 1.403 . S
C1419 C1416 1.403 . S
C1419 C1420 1.524 . S
C1419 C1423 1.400 . S
C1420 H1405 0.960 . S
C1420 H1406 0.960 . S
C1420 H1407 0.960 . S
C1420 C1419 1.524 . S
C1421 C1418 1.403 . S
C1421 C1422 1.392 . S
C1421 C1425 1.495 . S
C1422 C1421 1.392 . S
C1422 C1423 1.385 . S
C1422 C1424 1.478 . S
C1423 H1417 0.930 . S
C1423 C1419 1.400 . S
C1423 C1422 1.385 . S
C1424 C1422 1.478 . S
C1424 C1426 1.381 . S
C1424 C1430 1.383 . S
C1425 C1421 1.495 . S
C1425 H1431 0.959 . S
C1425 H1432 0.961 . S
C1425 H1433 0.960 . S
C1426 C1424 1.381 . S
C1426 C1427 1.394 . S
C1426 H1434 0.930 . S
C1427 C1426 1.394 . S
C1427 C1428 1.383 . S
C1427 H1435 0.929 . S
C1428 C1427 1.383 . S
C1428 C1429 1.377 . S
C1429 H1413 0.930 . S
C1429 C1428 1.377 . S
C1429 C1430 1.379 . S
C1430 H1414 0.931 . S
C1430 C1424 1.383 . S
C1430 C1429 1.379 . S
H1431 C1425 0.959 . S
H1432 C1425 0.961 . S
H1433 C1425 0.960 . S
H1434 C1426 0.930 . S
H1435 C1427 0.929 . S
H1436 C1444 0.929 . S
H1437 C1446 0.930 . S
H1438 C1448 0.930 . S
H1439 C1451 0.929 . S
H1440 C1454 0.930 . S
H1441 C1456 0.960 . S
H1442 C1456 0.960 . S
H1443 C1456 0.960 . S
C1444 H1436 0.929 . S
C1444 C1445 1.377 . S
C1444 C1446 1.384 . S
C1445 C1444 1.377 . S
C1445 C1451 1.390 . S
C1446 H1437 0.930 . S
C1446 C1444 1.384 . S
C1446 C1447 1.372 . S
C1447 C1446 1.372 . S
C1447 C1448 1.400 . S
C1447 C1452 1.490 . S
C1448 H1438 0.930 . S
C1448 C1447 1.400 . S
C1448 C1451 1.386 . S
H1449 C1465 0.930 . S
H1450 C1466 0.931 . S
C1451 H1439 0.929 . S
C1451 C1445 1.390 . S
C1451 C1448 1.386 . S
C1452 C1447 1.490 . S
C1452 C1454 1.395 . S
C1452 C1455 1.403 . S
H1453 C1459 0.930 . S
C1454 H1440 0.930 . S
C1454 C1452 1.395 . S
C1454 C1457 1.403 . S
C1455 C1452 1.403 . S
C1455 C1456 1.524 . S
C1455 C1459 1.400 . S
C1456 H1441 0.960 . S
C1456 H1442 0.960 . S
C1456 H1443 0.960 . S
C1456 C1455 1.524 . S
C1457 C1454 1.403 . S
C1457 C1458 1.392 . S
C1457 C1461 1.495 . S
C1458 C1457 1.392 . S
C1458 C1459 1.385 . S
C1458 C1460 1.478 . S
C1459 H1453 0.930 . S
C1459 C1455 1.400 . S
C1459 C1458 1.385 . S
C1460 C1458 1.478 . S
C1460 C1462 1.381 . S
C1460 C1466 1.383 . S
C1461 C1457 1.495 . S
C1461 H1467 0.959 . S
C1461 H1468 0.961 . S
C1461 H1469 0.960 . S
C1462 C1460 1.381 . S
C1462 C1463 1.394 . S
C1462 H1470 0.930 . S
C1463 C1462 1.394 . S
C1463 C1464 1.383 . S
C1463 H1471 0.929 . S
C1464 C1463 1.383 . S
C1464 C1465 1.377 . S
C1465 H1449 0.930 . S
C1465 C1464 1.377 . S
C1465 C1466 1.379 . S
C1466 H1450 0.931 . S
C1466 C1460 1.383 . S
C1466 C1465 1.379 . S
H1467 C1461 0.959 . S
H1468 C1461 0.961 . S
H1469 C1461 0.960 . S
H1470 C1462 0.930 . S
H1471 C1463 0.929 . S
H1472 C1480 0.929 . S
H1473 C1482 0.930 . S
H1474 C1484 0.930 . S
H1475 C1487 0.929 . S
H1476 C1490 0.930 . S
H1477 C1492 0.960 . S
H1478 C1492 0.960 . S
H1479 C1492 0.960 . S
C1480 H1472 0.929 . S
C1480 C1481 1.377 . S
C1480 C1482 1.384 . S
C1481 C1480 1.377 . S
C1481 C1487 1.390 . S
C1482 H1473 0.930 . S
C1482 C1480 1.384 . S
C1482 C1483 1.372 . S
C1483 C1482 1.372 . S
C1483 C1484 1.400 . S
C1483 C1488 1.490 . S
C1484 H1474 0.930 . S
C1484 C1483 1.400 . S
C1484 C1487 1.386 . S
H1485 C1501 0.930 . S
H1486 C1502 0.931 . S
C1487 H1475 0.929 . S
C1487 C1481 1.390 . S
C1487 C1484 1.386 . S
C1488 C1483 1.490 . S
C1488 C1490 1.395 . S
C1488 C1491 1.403 1_655 S
H1489 C1495 0.930 . S
C1490 H1476 0.930 . S
C1490 C1488 1.395 . S
C1490 C1493 1.403 1_556 S
C1491 C1488 1.403 1_455 S
C1491 C1492 1.524 . S
C1491 C1495 1.400 1_556 S
C1492 H1477 0.960 . S
C1492 H1478 0.960 . S
C1492 H1479 0.960 . S
C1492 C1491 1.524 . S
C1493 C1490 1.403 1_554 S
C1493 C1494 1.392 1_655 S
C1493 C1497 1.495 . S
C1494 C1493 1.392 1_455 S
C1494 C1495 1.385 . S
C1494 C1496 1.478 . S
C1495 H1489 0.930 . S
C1495 C1491 1.400 1_554 S
C1495 C1494 1.385 . S
C1496 C1494 1.478 . S
C1496 C1498 1.381 . S
C1496 C1502 1.383 . S
C1497 C1493 1.495 . S
C1497 H1503 0.959 . S
C1497 H1504 0.961 . S
C1497 H1505 0.960 . S
C1498 C1496 1.381 . S
C1498 C1499 1.394 . S
C1498 H1506 0.930 . S
C1499 C1498 1.394 . S
C1499 C1500 1.383 . S
C1499 H1507 0.929 . S
C1500 C1499 1.383 . S
C1500 C1501 1.377 . S
C1501 H1485 0.930 . S
C1501 C1500 1.377 . S
C1501 C1502 1.379 . S
C1502 H1486 0.931 . S
C1502 C1496 1.383 . S
C1502 C1501 1.379 . S
H1503 C1497 0.959 . S
H1504 C1497 0.961 . S
H1505 C1497 0.960 . S
H1506 C1498 0.930 . S
H1507 C1499 0.929 . S
H1508 C1516 0.929 1_545 S
H1509 C1518 0.930 1_545 S
H1510 C1520 0.930 . S
H1511 C1523 0.929 . S
H1512 C1526 0.930 . S
H1513 C1528 0.960 . S
H1514 C1528 0.960 . S
H1515 C1528 0.960 . S
C1516 H1508 0.929 1_565 S
C1516 C1517 1.377 . S
C1516 C1518 1.384 . S
C1517 C1516 1.377 . S
C1517 C1523 1.390 . S
C1518 H1509 0.930 1_565 S
C1518 C1516 1.384 . S
C1518 C1519 1.372 . S
C1519 C1518 1.372 . S
C1519 C1520 1.400 . S
C1519 C1524 1.490 . S
C1520 H1510 0.930 . S
C1520 C1519 1.400 . S
C1520 C1523 1.386 . S
H1521 C1537 0.903 1_565 S
H1522 C1538 0.931 1_565 S
C1523 H1511 0.929 . S
C1523 C1517 1.390 . S
C1523 C1520 1.386 . S
C1524 C1519 1.490 . S
C1524 C1526 1.395 1_465 S
C1524 C1527 1.403 1_556 S
H1525 C1531 0.936 . S
C1526 H1512 0.930 . S
C1526 C1524 1.395 1_645 S
C1526 C1529 1.403 . S
C1527 C1524 1.403 1_554 S
C1527 C1528 1.524 . S
C1527 C1531 1.410 . S
C1528 H1513 0.960 . S
C1528 H1514 0.960 . S
C1528 H1515 0.960 . S
C1528 C1527 1.524 . S
C1529 C1526 1.403 . S
C1529 C1530 1.392 1_556 S
C1529 C1533 1.495 . S
C1530 C1529 1.392 1_554 S
C1530 C1531 1.370 1_645 S
C1530 C1532 1.478 . S
C1531 H1525 0.936 . S
C1531 C1527 1.410 . S
C1531 C1530 1.370 1_465 S
C1532 C1530 1.478 . S
C1532 C1534 1.381 . S
C1532 C1538 1.383 . S
C1533 C1529 1.495 . S
C1533 H1539 0.959 . S
C1533 H1540 0.961 . S
C1533 H1541 0.960 . S
C1534 C1532 1.381 . S
C1534 C1535 1.394 . S
C1534 H1542 0.930 . S
C1535 C1534 1.394 . S
C1535 C1536 1.383 . S
C1535 H1543 0.929 . S
C1536 C1535 1.383 . S
C1536 C1537 1.377 . S
C1537 H1521 0.903 1_545 S
C1537 C1536 1.377 . S
C1537 C1538 1.379 . S
C1538 H1522 0.931 1_545 S
C1538 C1532 1.383 . S
C1538 C1537 1.379 . S
H1539 C1533 0.959 . S
H1540 C1533 0.961 . S
H1541 C1533 0.960 . S
H1542 C1534 0.930 . S
H1543 C1535 0.929 . S
H1544 C1552 0.929 . S
H1545 C1554 0.930 . S
H1546 C1556 0.930 . S
H1547 C1559 0.929 . S
H1548 C1562 0.932 . S
H1549 C1564 0.960 . S
H1550 C1564 0.960 . S
H1551 C1564 0.960 . S
C1552 H1544 0.929 . S
C1552 C1553 1.377 . S
C1552 C1554 1.384 . S
C1553 C1552 1.377 . S
C1553 C1559 1.390 . S
C1554 H1545 0.930 . S
C1554 C1552 1.384 . S
C1554 C1555 1.372 . S
C1555 C1554 1.372 . S
C1555 C1556 1.400 . S
C1555 C1560 1.490 . S
C1556 H1546 0.930 . S
C1556 C1555 1.400 . S
C1556 C1559 1.386 . S
H1557 C1573 0.930 . S
H1558 C1574 0.931 . S
C1559 H1547 0.929 . S
C1559 C1553 1.390 . S
C1559 C1556 1.386 . S
C1560 C1555 1.490 . S
C1560 C1562 1.405 . S
C1560 C1563 1.403 . S
H1561 C1567 0.930 . S
C1562 H1548 0.932 . S
C1562 C1560 1.405 . S
C1562 C1565 1.391 1_546 S
C1563 C1560 1.403 . S
C1563 C1564 1.524 . S
C1563 C1567 1.400 1_546 S
C1564 H1549 0.960 . S
C1564 H1550 0.960 . S
C1564 H1551 0.960 . S
C1564 C1563 1.524 . S
C1565 C1562 1.391 1_564 S
C1565 C1566 1.392 . S
C1565 C1569 1.495 . S
C1566 C1565 1.392 . S
C1566 C1567 1.385 . S
C1566 C1568 1.478 . S
C1567 H1561 0.930 . S
C1567 C1563 1.400 1_564 S
C1567 C1566 1.385 . S
C1568 C1566 1.478 . S
C1568 C1570 1.381 . S
C1568 C1574 1.383 . S
C1569 C1565 1.495 . S
C1569 H1575 0.959 . S
C1569 H1576 0.961 . S
C1569 H1577 0.960 . S
C1570 C1568 1.381 . S
C1570 C1571 1.394 . S
C1570 H1578 0.930 . S
C1571 C1570 1.394 . S
C1571 C1572 1.383 . S
C1571 H1579 0.929 . S
C1572 C1571 1.383 . S
C1572 C1573 1.377 . S
C1573 H1557 0.930 . S
C1573 C1572 1.377 . S
C1573 C1574 1.379 . S
C1574 H1558 0.931 . S
C1574 C1568 1.383 . S
C1574 C1573 1.379 . S
H1575 C1569 0.959 . S
H1576 C1569 0.961 . S
H1577 C1569 0.960 . S
H1578 C1570 0.930 . S
H1579 C1571 0.929 . S
H1580 C1588 0.929 . S
H1581 C1590 0.930 . S
H1582 C1592 0.930 . S
H1583 C1595 0.929 . S
H1584 C1598 0.930 . S
H1585 C1600 0.960 . S
H1586 C1600 0.960 . S
H1587 C1600 0.960 1_554 S
C1588 H1580 0.929 . S
C1588 C1589 1.377 . S
C1588 C1590 1.384 . S
C1589 C1588 1.377 . S
C1589 C1595 1.390 . S
C1590 H1581 0.930 . S
C1590 C1588 1.384 . S
C1590 C1591 1.372 . S
C1591 C1590 1.372 . S
C1591 C1592 1.400 . S
C1591 C1596 1.490 . S
C1592 H1582 0.930 . S
C1592 C1591 1.400 . S
C1592 C1595 1.386 . S
H1593 C1609 0.930 . S
H1594 C1610 0.931 . S
C1595 H1583 0.929 . S
C1595 C1589 1.390 . S
C1595 C1592 1.386 . S
C1596 C1591 1.490 . S
C1596 C1598 1.395 . S
C1596 C1599 1.403 1_554 S
H1597 C1603 0.930 . S
C1598 H1584 0.930 . S
C1598 C1596 1.395 . S
C1598 C1601 1.403 . S
C1599 C1596 1.403 1_556 S
C1599 C1600 1.524 . S
C1599 C1603 1.400 . S
C1600 H1585 0.960 . S
C1600 H1586 0.960 . S
C1600 H1587 0.960 1_556 S
C1600 C1599 1.524 . S
C1601 C1598 1.403 . S
C1601 C1602 1.392 1_554 S
C1601 C1605 1.495 . S
C1602 C1601 1.392 1_556 S
C1602 C1603 1.385 . S
C1602 C1604 1.478 . S
C1603 H1597 0.930 . S
C1603 C1599 1.400 . S
C1603 C1602 1.385 . S
C1604 C1602 1.478 . S
C1604 C1606 1.381 . S
C1604 C1610 1.383 . S
C1605 C1601 1.495 . S
C1605 H1611 0.959 . S
C1605 H1612 0.961 . S
C1605 H1613 0.960 1_554 S
C1606 C1604 1.381 . S
C1606 C1607 1.394 . S
C1606 H1614 0.930 . S
C1607 C1606 1.394 . S
C1607 C1608 1.383 . S
C1607 H1615 0.929 . S
C1608 C1607 1.383 . S
C1608 C1609 1.377 . S
C1609 H1593 0.930 . S
C1609 C1608 1.377 . S
C1609 C1610 1.379 . S
C1610 H1594 0.931 . S
C1610 C1604 1.383 . S
C1610 C1609 1.379 . S
H1611 C1605 0.959 . S
H1612 C1605 0.961 . S
H1613 C1605 0.960 1_556 S
H1614 C1606 0.930 . S
H1615 C1607 0.929 . S
H1616 C1624 0.929 . S
H1617 C1626 0.930 1_455 S
H1618 C1628 0.930 . S
H1619 C1631 0.929 . S
H1620 C1634 0.930 . S
H1621 C1636 0.960 . S
H1622 C1636 0.960 . S
H1623 C1636 0.960 . S
C1624 H1616 0.929 . S
C1624 C1625 1.377 . S
C1624 C1626 1.384 . S
C1625 C1624 1.377 . S
C1625 C1631 1.390 . S
C1626 H1617 0.930 1_655 S
C1626 C1624 1.384 . S
C1626 C1627 1.372 . S
C1627 C1626 1.372 . S
C1627 C1628 1.400 . S
C1627 C1632 1.490 . S
C1628 H1618 0.930 . S
C1628 C1627 1.400 . S
C1628 C1631 1.386 . S
H1629 C1645 0.930 . S
H1630 C1646 0.931 1_655 S
C1631 H1619 0.929 . S
C1631 C1625 1.390 . S
C1631 C1628 1.386 . S
C1632 C1627 1.490 . S
C1632 C1634 1.395 1_655 S
C1632 C1635 1.403 . S
H1633 C1639 0.930 . S
C1634 H1620 0.930 . S
C1634 C1632 1.395 1_455 S
C1634 C1637 1.403 1_545 S
C1635 C1632 1.403 . S
C1635 C1636 1.524 . S
C1635 C1639 1.400 1_545 S
C1636 H1621 0.960 . S
C1636 H1622 0.960 . S
C1636 H1623 0.960 . S
C1636 C1635 1.524 . S
C1637 C1634 1.403 1_565 S
C1637 C1638 1.392 . S
C1637 C1641 1.495 . S
C1638 C1637 1.392 . S
C1638 C1639 1.385 1_455 S
C1638 C1640 1.478 . S
C1639 H1633 0.930 . S
C1639 C1635 1.400 1_565 S
C1639 C1638 1.385 1_655 S
C1640 C1638 1.478 . S
C1640 C1642 1.381 . S
C1640 C1646 1.383 . S
C1641 C1637 1.495 . S
C1641 H1647 0.959 . S
C1641 H1648 0.961 . S
C1641 H1649 0.960 . S
C1642 C1640 1.381 . S
C1642 C1643 1.394 . S
C1642 H1650 0.930 . S
C1643 C1642 1.394 . S
C1643 C1644 1.383 . S
C1643 H1651 0.929 . S
C1644 C1643 1.383 . S
C1644 C1645 1.377 . S
C1645 H1629 0.930 . S
C1645 C1644 1.377 . S
C1645 C1646 1.379 . S
C1646 H1630 0.931 1_455 S
C1646 C1640 1.383 . S
C1646 C1645 1.379 . S
H1647 C1641 0.959 . S
H1648 C1641 0.961 . S
H1649 C1641 0.960 . S
H1650 C1642 0.930 . S
H1651 C1643 0.929 . S
H1652 C1660 0.929 . S
H1653 C1662 0.930 . S
H1654 C1664 0.930 1_545 S
H1655 C1667 0.929 . S
H1656 C1670 0.930 . S
H1657 C1672 0.960 . S
H1658 C1672 0.960 . S
H1659 C1672 0.960 . S
C1660 H1652 0.929 . S
C1660 C1661 1.377 . S
C1660 C1662 1.384 . S
C1661 C1660 1.377 . S
C1661 C1667 1.390 . S
C1662 H1653 0.930 . S
C1662 C1660 1.384 . S
C1662 C1663 1.372 . S
C1663 C1662 1.372 . S
C1663 C1664 1.400 . S
C1663 C1668 1.490 . S
C1664 H1654 0.930 1_565 S
C1664 C1663 1.400 . S
C1664 C1667 1.386 . S
H1665 C1681 0.930 . S
H1666 C1682 0.931 . S
C1667 H1655 0.929 . S
C1667 C1661 1.390 . S
C1667 C1664 1.386 . S
C1668 C1663 1.490 . S
C1668 C1670 1.395 . S
C1668 C1671 1.403 1_565 S
H1669 C1675 0.930 . S
C1670 H1656 0.930 . S
C1670 C1668 1.395 . S
C1670 C1673 1.403 . S
C1671 C1668 1.403 1_545 S
C1671 C1672 1.524 . S
C1671 C1675 1.400 . S
C1672 H1657 0.960 . S
C1672 H1658 0.960 . S
C1672 H1659 0.960 . S
C1672 C1671 1.524 . S
C1673 C1670 1.403 . S
C1673 C1674 1.392 1_565 S
C1673 C1677 1.495 . S
C1674 C1673 1.392 1_545 S
C1674 C1675 1.385 . S
C1674 C1676 1.478 . S
C1675 H1669 0.930 . S
C1675 C1671 1.400 . S
C1675 C1674 1.385 . S
C1676 C1674 1.478 . S
C1676 C1678 1.381 . S
C1676 C1682 1.383 . S
C1677 C1673 1.495 . S
C1677 H1683 0.959 . S
C1677 H1684 0.961 . S
C1677 H1685 0.960 . S
C1678 C1676 1.381 . S
C1678 C1679 1.394 . S
C1678 H1686 0.930 1_545 S
C1679 C1678 1.394 . S
C1679 C1680 1.383 . S
C1679 H1687 0.929 . S
C1680 C1679 1.383 . S
C1680 C1681 1.377 . S
C1681 H1665 0.930 . S
C1681 C1680 1.377 . S
C1681 C1682 1.379 . S
C1682 H1666 0.931 . S
C1682 C1676 1.383 . S
C1682 C1681 1.379 . S
H1683 C1677 0.959 . S
H1684 C1677 0.961 . S
H1685 C1677 0.960 . S
H1686 C1678 0.930 1_565 S
H1687 C1679 0.929 . S
H1688 C1696 0.929 . S
H1689 C1698 0.930 . S
H1690 C1700 0.930 . S
H1691 C1703 0.929 . S
H1692 C1706 0.930 . S
H1693 C1708 0.960 . S
H1694 C1708 0.960 . S
H1695 C1708 0.960 . S
C1696 H1688 0.929 . S
C1696 C1697 1.377 . S
C1696 C1698 1.384 . S
C1697 C1696 1.377 . S
C1697 C1703 1.390 . S
C1698 H1689 0.930 . S
C1698 C1696 1.384 . S
C1698 C1699 1.372 . S
C1699 C1698 1.372 . S
C1699 C1700 1.400 . S
C1699 C1704 1.490 . S
C1700 H1690 0.930 . S
C1700 C1699 1.400 . S
C1700 C1703 1.386 . S
H1701 C1717 0.930 . S
H1702 C1718 0.931 . S
C1703 H1691 0.929 . S
C1703 C1697 1.390 . S
C1703 C1700 1.386 . S
C1704 C1699 1.490 . S
C1704 C1706 1.395 . S
C1704 C1707 1.403 . S
H1705 C1711 0.930 . S
C1706 H1692 0.930 . S
C1706 C1704 1.395 . S
C1706 C1709 1.403 . S
C1707 C1704 1.403 . S
C1707 C1708 1.524 . S
C1707 C1711 1.400 . S
C1708 H1693 0.960 . S
C1708 H1694 0.960 . S
C1708 H1695 0.960 . S
C1708 C1707 1.524 . S
C1709 C1706 1.403 . S
C1709 C1710 1.392 . S
C1709 C1713 1.495 . S
C1710 C1709 1.392 . S
C1710 C1711 1.385 . S
C1710 C1712 1.478 . S
C1711 H1705 0.930 . S
C1711 C1707 1.400 . S
C1711 C1710 1.385 . S
C1712 C1710 1.478 . S
C1712 C1714 1.381 . S
C1712 C1718 1.383 . S
C1713 C1709 1.495 . S
C1713 H1719 0.959 . S
C1713 H1720 0.961 . S
C1713 H1721 0.960 . S
C1714 C1712 1.381 . S
C1714 C1715 1.394 . S
C1714 H1722 0.930 . S
C1715 C1714 1.394 . S
C1715 C1716 1.383 . S
C1715 H1723 0.929 . S
C1716 C1715 1.383 . S
C1716 C1717 1.377 . S
C1717 H1701 0.930 . S
C1717 C1716 1.377 . S
C1717 C1718 1.379 . S
C1718 H1702 0.931 . S
C1718 C1712 1.383 . S
C1718 C1717 1.379 . S
H1719 C1713 0.959 . S
H1720 C1713 0.961 . S
H1721 C1713 0.960 . S
H1722 C1714 0.930 . S
H1723 C1715 0.929 . S
H1724 C1732 0.929 . S
H1725 C1734 0.930 . S
H1726 C1736 0.930 . S
H1727 C1739 0.929 . S
H1728 C1742 0.930 . S
H1729 C1744 0.960 . S
H1730 C1744 0.960 . S
H1731 C1744 0.960 . S
C1732 H1724 0.929 . S
C1732 C1733 1.377 . S
C1732 C1734 1.384 . S
C1733 C1732 1.377 . S
C1733 C1739 1.390 . S
C1734 H1725 0.930 . S
C1734 C1732 1.384 . S
C1734 C1735 1.372 . S
C1735 C1734 1.372 . S
C1735 C1736 1.400 . S
C1735 C1740 1.490 . S
C1736 H1726 0.930 . S
C1736 C1735 1.400 . S
C1736 C1739 1.386 . S
H1737 C1753 0.930 . S
H1738 C1754 0.931 . S
C1739 H1727 0.929 . S
C1739 C1733 1.390 . S
C1739 C1736 1.386 . S
C1740 C1735 1.490 . S
C1740 C1742 1.395 1_455 S
C1740 C1743 1.403 . S
H1741 C1747 0.930 . S
C1742 H1728 0.930 . S
C1742 C1740 1.395 1_655 S
C1742 C1745 1.403 . S
C1743 C1740 1.403 . S
C1743 C1744 1.524 . S
C1743 C1747 1.400 . S
C1744 H1729 0.960 . S
C1744 H1730 0.960 . S
C1744 H1731 0.960 . S
C1744 C1743 1.524 . S
C1745 C1742 1.403 . S
C1745 C1746 1.392 . S
C1745 C1749 1.495 . S
C1746 C1745 1.392 . S
C1746 C1747 1.385 1_655 S
C1746 C1748 1.478 . S
C1747 H1741 0.930 . S
C1747 C1743 1.400 . S
C1747 C1746 1.385 1_455 S
C1748 C1746 1.478 . S
C1748 C1750 1.381 . S
C1748 C1754 1.383 . S
C1749 C1745 1.495 . S
C1749 H1755 0.959 . S
C1749 H1756 0.961 . S
C1749 H1757 0.960 . S
C1750 C1748 1.381 . S
C1750 C1751 1.394 . S
C1750 H1758 0.930 . S
C1751 C1750 1.394 . S
C1751 C1752 1.383 . S
C1751 H1759 0.929 . S
C1752 C1751 1.383 . S
C1752 C1753 1.377 . S
C1753 H1737 0.930 . S
C1753 C1752 1.377 . S
C1753 C1754 1.379 . S
C1754 H1738 0.931 . S
C1754 C1748 1.383 . S
C1754 C1753 1.379 . S
H1755 C1749 0.959 . S
H1756 C1749 0.961 . S
H1757 C1749 0.960 . S
H1758 C1750 0.930 . S
H1759 C1751 0.929 . S
H1760 C1768 0.929 . S
H1761 C1770 0.930 . S
H1762 C1772 0.930 . S
H1763 C1775 0.929 . S
H1764 C1778 0.930 . S
H1765 C1780 0.960 . S
H1766 C1780 0.960 . S
H1767 C1780 0.960 . S
C1768 H1760 0.929 . S
C1768 C1769 1.377 . S
C1768 C1770 1.384 1_655 S
C1769 C1768 1.377 . S
C1769 C1775 1.390 . S
C1770 H1761 0.930 . S
C1770 C1768 1.384 1_455 S
C1770 C1771 1.374 . S
C1771 C1770 1.374 . S
C1771 C1772 1.391 1_455 S
C1771 C1776 1.497 . S
C1772 H1762 0.930 . S
C1772 C1771 1.391 1_655 S
C1772 C1775 1.386 . S
H1773 C1789 0.930 . S
H1774 C1790 0.931 . S
C1775 H1763 0.929 . S
C1775 C1769 1.390 . S
C1775 C1772 1.386 . S
C1776 C1771 1.497 . S
C1776 C1778 1.395 . S
C1776 C1779 1.403 1_455 S
H1777 C1783 0.930 1_655 S
C1778 H1764 0.930 . S
C1778 C1776 1.395 . S
C1778 C1781 1.403 . S
C1779 C1776 1.403 1_655 S
C1779 C1780 1.524 . S
C1779 C1783 1.400 1_655 S
C1780 H1765 0.960 . S
C1780 H1766 0.960 . S
C1780 H1767 0.960 . S
C1780 C1779 1.524 . S
C1781 C1778 1.403 . S
C1781 C1782 1.392 . S
C1781 C1785 1.495 . S
C1782 C1781 1.392 . S
C1782 C1783 1.385 . S
C1782 C1784 1.478 . S
C1783 H1777 0.930 1_455 S
C1783 C1779 1.400 1_455 S
C1783 C1782 1.385 . S
C1784 C1782 1.478 . S
C1784 C1786 1.381 . S
C1784 C1790 1.383 . S
C1785 C1781 1.495 . S
C1785 H1791 0.959 . S
C1785 H1792 0.961 . S
C1785 H1793 0.960 . S
C1786 C1784 1.381 . S
C1786 C1787 1.394 . S
C1786 H1794 0.930 . S
C1787 C1786 1.394 . S
C1787 C1788 1.383 . S
C1787 H1795 0.929 . S
C1788 C1787 1.383 . S
C1788 C1789 1.377 . S
C1789 H1773 0.930 . S
C1789 C1788 1.377 . S
C1789 C1790 1.379 . S
C1790 H1774 0.931 . S
C1790 C1784 1.383 . S
C1790 C1789 1.379 . S
H1791 C1785 0.959 . S
H1792 C1785 0.961 . S
H1793 C1785 0.960 . S
H1794 C1786 0.930 . S
H1795 C1787 0.929 . S
H1796 C1804 0.929 . S
H1797 C1806 0.930 1_545 S
H1798 C1808 0.930 . S
H1799 C1811 0.929 . S
H1800 C1814 0.930 . S
H1801 C1816 0.960 . S
H1802 C1816 0.960 . S
H1803 C1816 0.960 . S
C1804 H1796 0.929 . S
C1804 C1805 1.377 . S
C1804 C1806 1.384 . S
C1805 C1804 1.377 . S
C1805 C1811 1.390 . S
C1806 H1797 0.930 1_565 S
C1806 C1804 1.384 . S
C1806 C1807 1.372 . S
C1807 C1806 1.372 . S
C1807 C1808 1.400 . S
C1807 C1812 1.490 . S
C1808 H1798 0.930 . S
C1808 C1807 1.400 . S
C1808 C1811 1.386 . S
H1809 C1825 0.930 . S
H1810 C1826 0.931 1_465 S
C1811 H1799 0.929 . S
C1811 C1805 1.390 . S
C1811 C1808 1.386 . S
C1812 C1807 1.490 . S
C1812 C1814 1.395 1_565 S
C1812 C1815 1.375 1_455 S
H1813 C1819 0.930 . S
C1814 H1800 0.930 . S
C1814 C1812 1.395 1_545 S
C1814 C1817 1.403 . S
C1815 C1812 1.375 1_655 S
C1815 C1816 1.542 . S
C1815 C1819 1.411 . S
C1816 H1801 0.960 . S
C1816 H1802 0.960 . S
C1816 H1803 0.960 . S
C1816 C1815 1.542 . S
C1817 C1814 1.403 . S
C1817 C1818 1.392 . S
C1817 C1821 1.495 . S
C1818 C1817 1.392 . S
C1818 C1819 1.385 1_445 S
C1818 C1820 1.478 1_455 S
C1819 H1813 0.930 . S
C1819 C1815 1.411 . S
C1819 C1818 1.385 1_665 S
C1820 C1818 1.478 1_655 S
C1820 C1822 1.381 . S
C1820 C1826 1.383 . S
C1821 C1817 1.495 . S
C1821 H1827 0.959 . S
C1821 H1828 0.961 . S
C1821 H1829 0.960 . S
C1822 C1820 1.381 . S
C1822 C1823 1.394 . S
C1822 H1830 0.930 . S
C1823 C1822 1.394 . S
C1823 C1824 1.383 . S
C1823 H1831 0.929 . S
C1824 C1823 1.383 . S
C1824 C1825 1.377 . S
C1825 H1809 0.930 . S
C1825 C1824 1.377 . S
C1825 C1826 1.379 . S
C1826 H1810 0.931 1_645 S
C1826 C1820 1.383 . S
C1826 C1825 1.379 . S
H1827 C1821 0.959 . S
H1828 C1821 0.961 . S
H1829 C1821 0.960 . S
H1830 C1822 0.930 . S
H1831 C1823 0.929 . S
H1832 C1840 0.929 . S
H1833 C1842 0.930 . S
H1834 C1844 0.930 . S
H1835 C1847 0.929 . S
H1836 C1850 0.930 . S
H1837 C1852 0.960 . S
H1838 C1852 0.960 . S
H1839 C1852 0.960 . S
C1840 H1832 0.929 . S
C1840 C1841 1.377 . S
C1840 C1842 1.384 . S
C1841 C1840 1.377 . S
C1841 C1847 1.390 . S
C1842 H1833 0.930 . S
C1842 C1840 1.384 . S
C1842 C1843 1.372 . S
C1843 C1842 1.372 . S
C1843 C1844 1.400 . S
C1843 C1848 1.490 . S
C1844 H1834 0.930 . S
C1844 C1843 1.400 . S
C1844 C1847 1.386 . S
H1845 C1861 0.930 . S
H1846 C1862 0.931 . S
C1847 H1835 0.929 . S
C1847 C1841 1.390 . S
C1847 C1844 1.386 . S
C1848 C1843 1.490 . S
C1848 C1850 1.395 1_545 S
C1848 C1851 1.403 . S
H1849 C1855 0.930 . S
C1850 H1836 0.930 . S
C1850 C1848 1.395 1_565 S
C1850 C1853 1.403 . S
C1851 C1848 1.403 . S
C1851 C1852 1.524 . S
C1851 C1855 1.400 . S
C1852 H1837 0.960 . S
C1852 H1838 0.960 . S
C1852 H1839 0.960 . S
C1852 C1851 1.524 . S
C1853 C1850 1.403 . S
C1853 C1854 1.392 . S
C1853 C1857 1.495 . S
C1854 C1853 1.392 . S
C1854 C1855 1.385 1_565 S
C1854 C1856 1.478 . S
C1855 H1849 0.930 . S
C1855 C1851 1.400 . S
C1855 C1854 1.385 1_545 S
C1856 C1854 1.478 . S
C1856 C1858 1.381 . S
C1856 C1862 1.383 . S
C1857 C1853 1.495 . S
C1857 H1863 0.959 . S
C1857 H1864 0.961 . S
C1857 H1865 0.960 . S
C1858 C1856 1.381 . S
C1858 C1859 1.394 . S
C1858 H1866 0.930 . S
C1859 C1858 1.394 . S
C1859 C1860 1.383 . S
C1859 H1867 0.929 . S
C1860 C1859 1.383 . S
C1860 C1861 1.377 . S
C1861 H1845 0.930 . S
C1861 C1860 1.377 . S
C1861 C1862 1.379 . S
C1862 H1846 0.931 . S
C1862 C1856 1.383 . S
C1862 C1861 1.379 . S
H1863 C1857 0.959 . S
H1864 C1857 0.961 . S
H1865 C1857 0.960 . S
H1866 C1858 0.930 . S
H1867 C1859 0.929 . S
H1868 C1876 0.929 . S
H1869 C1878 0.930 . S
H1870 C1880 0.930 . S
H1871 C1883 0.929 . S
H1872 C1886 0.930 . S
H1873 C1888 0.960 . S
H1874 C1888 0.960 . S
H1875 C1888 0.960 . S
C1876 H1868 0.929 . S
C1876 C1877 1.377 . S
C1876 C1878 1.384 . S
C1877 C1876 1.377 . S
C1877 C1883 1.390 . S
C1878 H1869 0.930 . S
C1878 C1876 1.384 . S
C1878 C1879 1.372 . S
C1879 C1878 1.372 . S
C1879 C1880 1.400 . S
C1879 C1884 1.490 . S
C1880 H1870 0.930 . S
C1880 C1879 1.400 . S
C1880 C1883 1.386 . S
H1881 C1897 0.930 . S
H1882 C1898 0.931 . S
C1883 H1871 0.929 . S
C1883 C1877 1.390 . S
C1883 C1880 1.386 . S
C1884 C1879 1.490 . S
C1884 C1886 1.395 . S
C1884 C1887 1.403 . S
H1885 C1891 0.930 . S
C1886 H1872 0.930 . S
C1886 C1884 1.395 . S
C1886 C1889 1.403 . S
C1887 C1884 1.403 . S
C1887 C1888 1.524 . S
C1887 C1891 1.400 . S
C1888 H1873 0.960 . S
C1888 H1874 0.960 . S
C1888 H1875 0.960 . S
C1888 C1887 1.524 . S
C1889 C1886 1.403 . S
C1889 C1890 1.392 . S
C1889 C1893 1.495 . S
C1890 C1889 1.392 . S
C1890 C1891 1.385 . S
C1890 C1892 1.478 . S
C1891 H1885 0.930 . S
C1891 C1887 1.400 . S
C1891 C1890 1.385 . S
C1892 C1890 1.478 . S
C1892 C1894 1.381 . S
C1892 C1898 1.383 . S
C1893 C1889 1.495 . S
C1893 H1899 0.959 . S
C1893 H1900 0.961 . S
C1893 H1901 0.960 . S
C1894 C1892 1.381 . S
C1894 C1895 1.394 . S
C1894 H1902 0.930 . S
C1895 C1894 1.394 . S
C1895 C1896 1.383 . S
C1895 H1903 0.929 . S
C1896 C1895 1.383 . S
C1896 C1897 1.377 . S
C1897 H1881 0.930 . S
C1897 C1896 1.377 . S
C1897 C1898 1.379 . S
C1898 H1882 0.931 . S
C1898 C1892 1.383 . S
C1898 C1897 1.379 . S
H1899 C1893 0.959 . S
H1900 C1893 0.961 . S
H1901 C1893 0.960 . S
H1902 C1894 0.930 . S
H1903 C1895 0.929 . S
H1904 C1912 0.929 . S
H1905 C1914 0.930 . S
H1906 C1916 0.930 . S
H1907 C1919 0.929 . S
H1908 C1922 0.930 . S
H1909 C1924 0.960 . S
H1910 C1924 0.960 . S
H1911 C1924 0.960 . S
C1912 H1904 0.929 . S
C1912 C1913 1.377 . S
C1912 C1914 1.384 . S
C1913 C1912 1.377 . S
C1913 C1919 1.390 1_455 S
C1914 H1905 0.930 . S
C1914 C1912 1.384 . S
C1914 C1915 1.371 . S
C1915 C1914 1.371 . S
C1915 C1916 1.400 1_455 S
C1915 C1920 1.490 1_455 S
C1916 H1906 0.930 . S
C1916 C1915 1.400 1_655 S
C1916 C1919 1.386 . S
H1917 C1933 0.930 . S
H1918 C1934 0.931 . S
C1919 H1907 0.929 . S
C1919 C1913 1.390 1_655 S
C1919 C1916 1.386 . S
C1920 C1915 1.490 1_655 S
C1920 C1922 1.395 1_655 S
C1920 C1923 1.403 . S
H1921 C1927 0.930 . S
C1922 H1908 0.930 . S
C1922 C1920 1.395 1_455 S
C1922 C1925 1.403 . S
C1923 C1920 1.403 . S
C1923 C1924 1.524 . S
C1923 C1927 1.400 . S
C1924 H1909 0.960 . S
C1924 H1910 0.960 . S
C1924 H1911 0.960 . S
C1924 C1923 1.524 . S
C1925 C1922 1.403 . S
C1925 C1926 1.392 1_455 S
C1925 C1929 1.495 . S
C1926 C1925 1.392 1_655 S
C1926 C1927 1.385 . S
C1926 C1928 1.478 . S
C1927 H1921 0.930 . S
C1927 C1923 1.400 . S
C1927 C1926 1.385 . S
C1928 C1926 1.478 . S
C1928 C1930 1.381 . S
C1928 C1934 1.383 . S
C1929 C1925 1.495 . S
C1929 H1935 0.959 . S
C1929 H1936 0.961 . S
C1929 H1937 0.960 . S
C1930 C1928 1.381 . S
C1930 C1931 1.394 . S
C1930 H1938 0.930 . S
C1931 C1930 1.394 . S
C1931 C1932 1.383 . S
C1931 H1939 0.929 . S
C1932 C1931 1.383 . S
C1932 C1933 1.377 . S
C1933 H1917 0.930 . S
C1933 C1932 1.377 . S
C1933 C1934 1.379 . S
C1934 H1918 0.931 . S
C1934 C1928 1.383 . S
C1934 C1933 1.379 . S
H1935 C1929 0.959 . S
H1936 C1929 0.961 . S
H1937 C1929 0.960 . S
H1938 C1930 0.930 . S
H1939 C1931 0.929 . S
H1940 C1948 0.929 . S
H1941 C1950 0.930 1_455 S
H1942 C1952 0.930 . S
H1943 C1955 0.929 . S
H1944 C1958 0.924 1_455 S
H1945 C1960 0.960 . S
H1946 C1960 0.960 . S
H1947 C1960 0.960 . S
C1948 H1940 0.929 . S
C1948 C1949 1.377 . S
C1948 C1950 1.384 . S
C1949 C1948 1.377 . S
C1949 C1955 1.390 . S
C1950 H1941 0.930 1_655 S
C1950 C1948 1.384 . S
C1950 C1951 1.372 . S
C1951 C1950 1.372 . S
C1951 C1952 1.400 . S
C1951 C1956 1.490 . S
C1952 H1942 0.930 . S
C1952 C1951 1.400 . S
C1952 C1955 1.386 . S
H1953 C1969 0.930 1_655 S
H1954 C1970 0.931 . S
C1955 H1943 0.929 . S
C1955 C1949 1.390 . S
C1955 C1952 1.386 . S
C1956 C1951 1.490 . S
C1956 C1958 1.411 . S
C1956 C1959 1.403 1_545 S
H1957 C1963 0.930 . S
C1958 H1944 0.924 1_655 S
C1958 C1956 1.411 . S
C1958 C1961 1.394 1_655 S
C1959 C1956 1.403 1_565 S
C1959 C1960 1.524 . S
C1959 C1963 1.400 . S
C1960 H1945 0.960 . S
C1960 H1946 0.960 . S
C1960 H1947 0.960 . S
C1960 C1959 1.524 . S
C1961 C1958 1.394 1_455 S
C1961 C1962 1.392 1_545 S
C1961 C1965 1.495 . S
C1962 C1961 1.392 1_565 S
C1962 C1963 1.385 1_455 S
C1962 C1964 1.478 . S
C1963 H1957 0.930 . S
C1963 C1959 1.400 . S
C1963 C1962 1.385 1_655 S
C1964 C1962 1.478 . S
C1964 C1966 1.381 . S
C1964 C1970 1.383 1_455 S
C1965 C1961 1.495 . S
C1965 H1971 0.959 . S
C1965 H1972 0.961 . S
C1965 H1973 0.960 . S
C1966 C1964 1.381 . S
C1966 C1967 1.394 . S
C1966 H1974 0.930 . S
C1967 C1966 1.394 . S
C1967 C1968 1.383 . S
C1967 H1975 0.929 . S
C1968 C1967 1.383 . S
C1968 C1969 1.377 . S
C1969 H1953 0.930 1_455 S
C1969 C1968 1.377 . S
C1969 C1970 1.379 1_455 S
C1970 H1954 0.931 . S
C1970 C1964 1.383 1_655 S
C1970 C1969 1.379 1_655 S
H1971 C1965 0.959 . S
H1972 C1965 0.961 . S
H1973 C1965 0.960 . S
H1974 C1966 0.930 . S
H1975 C1967 0.929 . S
H1976 C1984 0.929 . S
H1977 C1986 0.930 . S
H1978 C1988 0.930 1_545 S
H1979 C1991 0.929 . S
H1980 C1994 0.930 . S
H1981 C1996 0.956 1_545 S
H1982 C1996 0.968 . S
H1983 C1996 0.956 1_545 S
C1984 H1976 0.929 . S
C1984 C1985 1.377 . S
C1984 C1986 1.384 . S
C1985 C1984 1.377 . S
C1985 C1991 1.390 . S
C1986 H1977 0.930 . S
C1986 C1984 1.384 . S
C1986 C1987 1.372 . S
C1987 C1986 1.372 . S
C1987 C1988 1.400 . S
C1987 C1992 1.490 . S
C1988 H1978 0.930 1_565 S
C1988 C1987 1.400 . S
C1988 C1991 1.386 . S
H1989 C2005 0.930 . S
H1990 C2006 0.931 . S
C1991 H1979 0.929 . S
C1991 C1985 1.390 . S
C1991 C1988 1.386 . S
C1992 C1987 1.490 . S
C1992 C1994 1.395 . S
C1992 C1995 1.403 . S
H1993 C1999 0.930 . S
C1994 H1980 0.930 . S
C1994 C1992 1.395 . S
C1994 C1997 1.403 . S
C1995 C1992 1.403 . S
C1995 C1996 1.524 . S
C1995 C1999 1.400 1_565 S
C1996 H1981 0.956 1_565 S
C1996 H1982 0.968 . S
C1996 H1983 0.956 1_565 S
C1996 C1995 1.524 . S
C1997 C1994 1.403 . S
C1997 C1998 1.392 1_565 S
C1997 C2001 1.495 . S
C1998 C1997 1.392 1_545 S
C1998 C1999 1.385 . S
C1998 C2000 1.478 . S
C1999 H1993 0.930 . S
C1999 C1995 1.400 1_545 S
C1999 C1998 1.385 . S
C2000 C1998 1.478 . S
C2000 C2002 1.381 . S
C2000 C2006 1.383 . S
C2001 C1997 1.495 . S
C2001 H2007 0.959 . S
C2001 H2008 0.961 1_565 S
C2001 H2009 0.960 . S
C2002 C2000 1.381 . S
C2002 C2003 1.394 . S
C2002 H2010 0.930 1_545 S
C2003 C2002 1.394 . S
C2003 C2004 1.383 . S
C2003 H2011 0.929 . S
C2004 C2003 1.383 . S
C2004 C2005 1.377 . S
C2005 H1989 0.930 . S
C2005 C2004 1.377 . S
C2005 C2006 1.379 . S
C2006 H1990 0.931 . S
C2006 C2000 1.383 . S
C2006 C2005 1.379 . S
H2007 C2001 0.959 . S
H2008 C2001 0.961 1_545 S
H2009 C2001 0.960 . S
H2010 C2002 0.930 1_565 S
H2011 C2003 0.929 . S
H2012 C2020 0.929 . S
H2013 C2022 0.930 . S
H2014 C2024 0.930 . S
H2015 C2027 0.929 . S
H2016 C2030 0.930 . S
H2017 C2032 0.960 . S
H2018 C2032 0.960 . S
H2019 C2032 0.960 . S
C2020 H2012 0.929 . S
C2020 C2021 1.377 . S
C2020 C2022 1.384 . S
C2021 C2020 1.377 . S
C2021 C2027 1.390 . S
C2022 H2013 0.930 . S
C2022 C2020 1.384 . S
C2022 C2023 1.372 . S
C2023 C2022 1.372 . S
C2023 C2024 1.400 . S
C2023 C2028 1.490 . S
C2024 H2014 0.930 . S
C2024 C2023 1.400 . S
C2024 C2027 1.386 . S
H2025 C2041 0.930 . S
H2026 C2042 0.931 . S
C2027 H2015 0.929 . S
C2027 C2021 1.390 . S
C2027 C2024 1.386 . S
C2028 C2023 1.490 . S
C2028 C2030 1.395 . S
C2028 C2031 1.403 . S
H2029 C2035 0.930 . S
C2030 H2016 0.930 . S
C2030 C2028 1.395 . S
C2030 C2033 1.403 . S
C2031 C2028 1.403 . S
C2031 C2032 1.524 . S
C2031 C2035 1.400 . S
C2032 H2017 0.960 . S
C2032 H2018 0.960 . S
C2032 H2019 0.960 . S
C2032 C2031 1.524 . S
C2033 C2030 1.403 . S
C2033 C2034 1.392 . S
C2033 C2037 1.495 . S
C2034 C2033 1.392 . S
C2034 C2035 1.385 . S
C2034 C2036 1.478 . S
C2035 H2029 0.930 . S
C2035 C2031 1.400 . S
C2035 C2034 1.385 . S
C2036 C2034 1.478 . S
C2036 C2038 1.381 . S
C2036 C2042 1.383 . S
C2037 C2033 1.495 . S
C2037 H2043 0.959 . S
C2037 H2044 0.961 . S
C2037 H2045 0.960 . S
C2038 C2036 1.381 . S
C2038 C2039 1.394 . S
C2038 H2046 0.930 . S
C2039 C2038 1.394 . S
C2039 C2040 1.383 . S
C2039 H2047 0.929 . S
C2040 C2039 1.383 . S
C2040 C2041 1.377 . S
C2041 H2025 0.930 . S
C2041 C2040 1.377 . S
C2041 C2042 1.379 . S
C2042 H2026 0.931 . S
C2042 C2036 1.383 . S
C2042 C2041 1.379 . S
H2043 C2037 0.959 . S
H2044 C2037 0.961 . S
H2045 C2037 0.960 . S
H2046 C2038 0.930 . S
H2047 C2039 0.929 . S
C329 C79 1.935 . S
C348 C12 1.946 . S
C365 C2 1.512 . S
C384 C32 1.511 . S
C401 C52 1.576 . S
C420 C22 1.560 . S
C437 C42 1.782 . S
C456 C69 1.801 . S
C473 C92 1.746 . S
C492 C102 1.745 . S
C509 C112 1.808 . S
C528 C122 1.762 . S
C545 C132 1.898 . S
C564 C142 1.873 . S
C581 C82 1.727 . S
C600 C152 1.741 . S
C617 C169 1.950 . S
C636 C238 1.954 . S
C653 C164 1.524 . S
C672 C189 1.513 . S
C689 C184 1.569 . S
C708 C209 1.592 . S
C725 C204 1.772 . S
C744 C232 1.779 . S
C761 C249 1.737 . S
C780 C264 1.743 . S
C797 C284 1.782 . S
C816 C269 1.805 . S
C833 C304 1.868 . S
C852 C289 1.906 . S
C869 C309 1.761 . S
C888 C244 1.739 . S
C905 C18 1.599 . S
C924 C98 1.597 . S
C941 C118 1.469 . S
C960 C38 1.472 . S
C977 C58 2.049 . S
C996 C138 2.045 . S
C1013 C64 1.068 . S
C1032 C158 1.101 . S
C1049 C259 1.596 . S
C1068 C179 1.601 . S
C1085 C279 1.468 . S
C1104 C199 1.460 . S
C1121 C219 2.051 . S
C1140 C299 2.049 . S
C1157 C319 1.097 . S
C1176 C222 1.024 . S
C1193 C9 0.997 . S
C1212 C49 0.962 . S
C1229 C29 0.705 . S
C1248 C72 0.755 . S
C1265 C129 1.148 . S
C1284 C89 1.116 . S
C1301 C149 0.990 . S
C1320 C109 0.959 . S
C1337 C212 1.012 . S
C1356 C172 0.978 . S
C1373 C229 0.719 . S
C1392 C192 0.710 . S
C1409 C252 1.159 . S
C1428 C292 1.120 . S
C1445 C272 0.993 . S
C1464 C312 0.950 . S
C1481 C178 1.315 . S
C1500 C19 1.292 . S
C1517 C198 1.373 . S
C1536 C39 1.366 . S
C1553 C218 1.685 . S
C1572 C59 1.670 . S
C1589 C62 0.894 . S
C1608 C224 0.859 . S
C1625 C258 1.266 . S
C1644 C99 1.276 . S
C1661 C278 1.176 . S
C1680 C119 1.165 . S
C1697 C298 1.489 . S
C1716 C139 1.497 . S
C1733 C318 1.278 . S
C1752 C159 1.258 . S
C1769 C144 0.738 . S
C1788 C4 0.832 . S
C1805 C84 0.752 . S
C1824 C24 0.850 . S
C1841 C104 0.799 . S
C1860 C44 0.696 . S
C1877 C124 0.795 . S
C1896 C78 0.816 . S
C1913 C302 0.750 . S
C1932 C162 0.702 . S
C1949 C242 0.763 . S
C1968 C182 0.665 . S
C1985 C262 0.791 . S
C2004 C202 0.864 . S
C2021 C239 0.876 . S
C2040 C282 0.818 . S
