# Generated by pormake.
# Topology mok, (4)-cn, num edge types: 1
# Building blocks:
#     Node 0, Type 0, BuildingBlock: KUFVIS_clean_sbu_0, # of connection points: 4
#     Node 1, Type 0, BuildingBlock: KUFVIS_clean_sbu_0, # of connection points: 4
#     Node 2, Type 0, BuildingBlock: KUFVIS_clean_sbu_0, # of connection points: 4
#     Node 3, Type 0, BuildingBlock: KUFVIS_clean_sbu_0, # of connection points: 4
#     Node 4, Type 0, BuildingBlock: KUFVIS_clean_sbu_0, # of connection points: 4
#     Node 5, Type 0, BuildingBlock: KUFVIS_clean_sbu_0, # of connection points: 4
#     Node 6, Type 0, BuildingBlock: KUFVIS_clean_sbu_0, # of connection points: 4
#     Node 7, Type 0, BuildingBlock: KUFVIS_clean_sbu_0, # of connection points: 4
#     Edge 8, Type (0, 0), BuildingBlock: ZUJKAS_clean_linker_0, # of connection points: 2
#     Edge 9, Type (0, 0), BuildingBlock: ZUJKAS_clean_linker_0, # of connection points: 2
#     Edge 10, Type (0, 0), BuildingBlock: ZUJKAS_clean_linker_0, # of connection points: 2
#     Edge 11, Type (0, 0), BuildingBlock: ZUJKAS_clean_linker_0, # of connection points: 2
#     Edge 12, Type (0, 0), BuildingBlock: ZUJKAS_clean_linker_0, # of connection points: 2
#     Edge 13, Type (0, 0), BuildingBlock: ZUJKAS_clean_linker_0, # of connection points: 2
#     Edge 14, Type (0, 0), BuildingBlock: ZUJKAS_clean_linker_0, # of connection points: 2
#     Edge 15, Type (0, 0), BuildingBlock: ZUJKAS_clean_linker_0, # of connection points: 2
#     Edge 16, Type (0, 0), BuildingBlock: ZUJKAS_clean_linker_0, # of connection points: 2
#     Edge 17, Type (0, 0), BuildingBlock: ZUJKAS_clean_linker_0, # of connection points: 2
#     Edge 18, Type (0, 0), BuildingBlock: ZUJKAS_clean_linker_0, # of connection points: 2
#     Edge 19, Type (0, 0), BuildingBlock: ZUJKAS_clean_linker_0, # of connection points: 2
#     Edge 20, Type (0, 0), BuildingBlock: ZUJKAS_clean_linker_0, # of connection points: 2
#     Edge 21, Type (0, 0), BuildingBlock: ZUJKAS_clean_linker_0, # of connection points: 2
#     Edge 22, Type (0, 0), BuildingBlock: ZUJKAS_clean_linker_0, # of connection points: 2
#     Edge 23, Type (0, 0), BuildingBlock: ZUJKAS_clean_linker_0, # of connection points: 2
# Relax obj value: 0.032
# Max RMSD: 0.056
# Mean RMSD: 0.056
data_MOF--net-mok--node1-KUFVIS_clean_sbu_0--edge1-ZUJKAS_clean_linker_0
_symmetry_space_group_name_H-M    P1
_symmetry_Int_Tables_number       1
_symmetry_cell_setting            triclinic
loop_
_symmetry_equiv_pos_as_xyz
'x, y, z'
_cell_length_a     68.62011
_cell_length_b     21.340917
_cell_length_c     34.460694
_cell_angle_alpha  89.992697
_cell_angle_beta   90.014436
_cell_angle_gamma 90.020056
loop_
_atom_site_label
_atom_site_type_symbol
_atom_site_fract_x
_atom_site_fract_y
_atom_site_fract_z
_atom_type_partial_charge
Mn0 Mn 0.62194 0.29647 0.00782 0.0
Mn1 Mn 0.5837 0.39433 0.99675 0.0
C2 C 0.61346 0.33238 0.94674 0.0
C3 C 0.65524 0.28366 0.02034 0.0
C4 C 0.57933 0.25427 0.01116 0.0
O5 O 0.61713 0.32828 0.06276 0.0
O6 O 0.59361 0.39926 0.05062 0.0
C7 C 0.6043 0.51511 0.00714 0.0
N8 N 0.59278 0.47695 0.9853 0.0
C9 C 0.58925 0.55612 0.93611 0.0
C10 C 0.60096 0.59647 0.95821 0.0
C11 C 0.6086 0.57573 0.99379 0.0
C12 C 0.58557 0.4961 0.9508 0.0
H13 H 0.61019 0.49941 0.03453 0.0
C14 C 0.60578 0.37248 0.07337 0.0
O15 O 0.64294 0.23827 0.02618 0.0
O16 O 0.64814 0.33608 0.00775 0.0
N17 N 0.57286 0.3953 0.94557 0.0
C18 C 0.56265 0.34958 0.92689 0.0
C19 C 0.55442 0.36224 0.8904 0.0
C20 C 0.55654 0.42196 0.87377 0.0
C21 C 0.56698 0.46842 0.89367 0.0
C22 C 0.5749 0.45302 0.92988 0.0
H23 H 0.56078 0.30383 0.93974 0.0
O24 O 0.62398 0.28223 0.95045 0.0
O25 O 0.60845 0.35999 0.97872 0.0
O26 O 0.59748 0.24071 0.01077 0.0
O27 O 0.57289 0.3102 0.00751 0.0
C28 C 0.56991 0.52934 0.87896 0.0
C29 C 0.5812 0.57293 0.89997 0.0
H30 H 0.60427 0.6433 0.94803 0.0
H31 H 0.61773 0.60648 0.01092 0.0
H32 H 0.54638 0.32615 0.87522 0.0
H33 H 0.55014 0.43154 0.84565 0.0
H34 H 0.5637 0.54307 0.85136 0.0
H35 H 0.58365 0.61921 0.88801 0.0
Mn36 Mn 0.39353 0.71512 0.00397 0.0
Mn37 Mn 0.43223 0.61827 0.99554 0.0
C38 C 0.40301 0.67881 0.94357 0.0
C39 C 0.36004 0.72883 0.01398 0.0
C40 C 0.43613 0.75852 0.00875 0.0
O41 O 0.39735 0.68344 0.05921 0.0
O42 O 0.4221 0.61592 0.04945 0.0
C43 C 0.41184 0.4976 0.00784 0.0
N44 N 0.42331 0.53503 0.9854 0.0
C45 C 0.42673 0.45422 0.93721 0.0
C46 C 0.41504 0.41467 0.95989 0.0
C47 C 0.40751 0.43656 0.99529 0.0
C48 C 0.4305 0.51464 0.95115 0.0
H49 H 0.40605 0.51418 0.0351 0.0
C50 C 0.40929 0.64185 0.07121 0.0
O51 O 0.37238 0.77365 0.021 0.0
O52 O 0.36721 0.6762 0.00185 0.0
N53 N 0.44338 0.615 0.94468 0.0
C54 C 0.45379 0.65981 0.92558 0.0
C55 C 0.46212 0.64572 0.8894 0.0
C56 C 0.45985 0.58559 0.87345 0.0
C57 C 0.44918 0.54012 0.89375 0.0
C58 C 0.44127 0.55681 0.92974 0.0
H59 H 0.45572 0.70594 0.93785 0.0
O60 O 0.39252 0.72918 0.94651 0.0
O61 O 0.40753 0.65131 0.97593 0.0
O62 O 0.41791 0.77108 0.00864 0.0
O63 O 0.44283 0.70299 0.0049 0.0
C64 C 0.44599 0.479 0.8796 0.0
C65 C 0.43465 0.43625 0.90118 0.0
H66 H 0.41167 0.36755 0.95032 0.0
H67 H 0.39842 0.4064 0.0129 0.0
H68 H 0.47032 0.68106 0.8739 0.0
H69 H 0.46633 0.57494 0.84557 0.0
H70 H 0.45204 0.46449 0.85201 0.0
H71 H 0.43207 0.38971 0.88973 0.0
Mn72 Mn 0.61945 0.70024 0.52618 0.0
Mn73 Mn 0.57962 0.60804 0.53239 0.0
C74 C 0.60895 0.66372 0.58615 0.0
C75 C 0.65315 0.70938 0.51666 0.0
C76 C 0.57777 0.74863 0.51796 0.0
O77 O 0.61552 0.67001 0.47047 0.0
O78 O 0.59127 0.60041 0.48014 0.0
C79 C 0.59831 0.48344 0.52567 0.0
N80 N 0.58671 0.5241 0.54549 0.0
C81 C 0.57962 0.44644 0.59409 0.0
C82 C 0.59137 0.40354 0.57405 0.0
C83 C 0.60084 0.42226 0.5398 0.0
C84 C 0.57776 0.50688 0.57875 0.0
H85 H 0.6056 0.49765 0.49934 0.0
C86 C 0.60422 0.6263 0.45874 0.0
O87 O 0.64147 0.75615 0.51022 0.0
O88 O 0.64523 0.65751 0.52829 0.0
N89 N 0.56709 0.61026 0.58194 0.0
C90 C 0.5572 0.65833 0.59891 0.0
C91 C 0.54702 0.64767 0.63362 0.0
C92 C 0.54698 0.58764 0.65029 0.0
C93 C 0.55744 0.53902 0.63252 0.0
C94 C 0.56723 0.55238 0.59788 0.0
H95 H 0.55689 0.70432 0.5859 0.0
O96 O 0.6202 0.7125 0.58399 0.0
O97 O 0.60435 0.63806 0.55334 0.0
O98 O 0.59599 0.75967 0.52139 0.0
O99 O 0.57054 0.69352 0.51974 0.0
C100 C 0.55861 0.4779 0.64787 0.0
C101 C 0.56984 0.43183 0.62889 0.0
H102 H 0.59334 0.35628 0.58483 0.0
H103 H 0.61003 0.38953 0.52429 0.0
H104 H 0.53907 0.68547 0.64729 0.0
H105 H 0.53897 0.57953 0.67691 0.0
H106 H 0.55113 0.46604 0.67456 0.0
H107 H 0.57092 0.38537 0.64136 0.0
Mn108 Mn 0.39962 0.31136 0.52288 0.0
Mn109 Mn 0.43953 0.40371 0.52596 0.0
C110 C 0.41062 0.35066 0.58172 0.0
C111 C 0.36587 0.30065 0.51498 0.0
C112 C 0.44136 0.26251 0.51485 0.0
O113 O 0.40287 0.33919 0.46663 0.0
O114 O 0.42787 0.40686 0.47333 0.0
C115 C 0.42086 0.52755 0.51513 0.0
N116 N 0.43233 0.48848 0.53646 0.0
C117 C 0.43884 0.56952 0.58324 0.0
C118 C 0.42715 0.61073 0.5617 0.0
C119 C 0.41807 0.58956 0.52758 0.0
C120 C 0.441 0.5082 0.56949 0.0
H121 H 0.41391 0.5115 0.48882 0.0
C122 C 0.41453 0.38044 0.45309 0.0
O123 O 0.37765 0.25407 0.50881 0.0
O124 O 0.37372 0.35335 0.52534 0.0
N125 N 0.45207 0.40561 0.57551 0.0
C126 C 0.46204 0.35907 0.59392 0.0
C127 C 0.47191 0.37234 0.62864 0.0
C128 C 0.47155 0.43332 0.64389 0.0
C129 C 0.46103 0.48034 0.62464 0.0
C130 C 0.45159 0.46443 0.59001 0.0
H131 H 0.46259 0.31228 0.58208 0.0
O132 O 0.39949 0.30148 0.58075 0.0
O133 O 0.41487 0.37519 0.54832 0.0
O134 O 0.42311 0.25201 0.51813 0.0
O135 O 0.44869 0.31749 0.51595 0.0
C136 C 0.45948 0.54227 0.63849 0.0
C137 C 0.44826 0.58669 0.61799 0.0
H138 H 0.42498 0.65861 0.5712 0.0
H139 H 0.40899 0.62103 0.51087 0.0
H140 H 0.47991 0.33576 0.64345 0.0
H141 H 0.47934 0.44342 0.6705 0.0
H142 H 0.46667 0.55609 0.66513 0.0
H143 H 0.44692 0.63387 0.62926 0.0
Mn144 Mn 0.11765 0.80733 0.00923 0.0
Mn145 Mn 0.07707 0.89655 0.00676 0.0
C146 C 0.10617 0.84596 0.95056 0.0
C147 C 0.15147 0.79891 0.01663 0.0
C148 C 0.07623 0.75513 0.01741 0.0
O149 O 0.11449 0.83501 0.06551 0.0
O150 O 0.08872 0.89969 0.05946 0.0
C151 C 0.09496 0.02141 0.01846 0.0
N152 N 0.08376 0.98196 0.99682 0.0
C153 C 0.0769 0.06329 0.95044 0.0
C154 C 0.08829 0.10489 0.97231 0.0
C155 C 0.09742 0.08377 0.00638 0.0
C156 C 0.07505 1.00164 0.96383 0.0
H157 H 0.10196 0.00542 0.04472 0.0
C158 C 0.10244 0.87474 0.0794 0.0
O159 O 0.14 0.75166 0.02323 0.0
O160 O 0.14326 0.85095 0.00612 0.0
N161 N 0.06454 0.89851 0.95719 0.0
C162 C 0.05491 0.85162 0.9384 0.0
C163 C 0.04512 0.86475 0.90357 0.0
C164 C 0.0452 0.92595 0.88861 0.0
C165 C 0.05534 0.97336 0.90831 0.0
C166 C 0.06474 0.95754 0.94299 0.0
H167 H 0.05459 0.80464 0.95 0.0
O168 O 0.11758 0.79744 0.95136 0.0
O169 O 0.10188 0.87011 0.98404 0.0
O170 O 0.09458 0.74628 0.0144 0.0
O171 O 0.06845 0.80947 0.01619 0.0
C172 C 0.05656 0.03559 0.89482 0.0
C173 C 0.06746 0.08039 0.9157 0.0
H174 H 0.09022 0.15303 0.9631 0.0
H175 H 0.10629 0.11554 0.02335 0.0
H176 H 0.03741 0.82788 0.88843 0.0
H177 H 0.0375 0.9359 0.86188 0.0
H178 H 0.04936 0.04938 0.86819 0.0
H179 H 0.06855 0.12781 0.90471 0.0
Mn180 Mn 0.89682 0.19965 0.01151 0.0
Mn181 Mn 0.93494 0.10173 -0.00014 0.0
C182 C 0.90541 0.16517 0.95006 0.0
C183 C 0.86353 0.21271 0.024 0.0
C184 C 0.93945 0.24133 0.01594 0.0
O185 O 0.9016 0.16655 0.06623 0.0
O186 O 0.92483 0.09475 0.05365 0.0
C187 C 0.9137 0.98157 0.00757 0.0
N188 N 0.9254 0.02035 0.98652 0.0
C189 C 0.92719 0.94584 0.93425 0.0
C190 C 0.91527 0.90492 0.95548 0.0
C191 C 0.90845 0.92298 0.99224 0.0
C192 C 0.93183 0.00377 0.95091 0.0
H193 H 0.90837 0.99532 0.0358 0.0
C194 C 0.91277 0.12169 0.07661 0.0
O195 O 0.87592 0.25766 0.03034 0.0
O196 O 0.87054 0.16042 0.01097 0.0
N197 N 0.946 0.10283 0.94885 0.0
C198 C 0.95733 0.14775 0.93205 0.0
C199 C 0.96541 0.13685 0.89522 0.0
C200 C 0.96194 0.0797 0.87621 0.0
C201 C 0.95049 0.03379 0.89433 0.0
C202 C 0.94296 0.0471 0.93118 0.0
H203 H 0.96019 0.19158 0.9466 0.0
O204 O 0.89482 0.21506 0.95414 0.0
O205 O 0.91036 0.13716 0.98192 0.0
O206 O 0.92129 0.25484 0.0151 0.0
O207 O 0.94593 0.18538 0.01223 0.0
C208 C 0.9462 0.97546 0.87718 0.0
C209 C 0.93452 0.93158 0.89709 0.0
H210 H 0.9112 0.85967 0.94376 0.0
H211 H 0.89917 0.89179 0.00873 0.0
H212 H 0.9743 0.17242 0.88151 0.0
H213 H 0.96809 0.07163 0.84771 0.0
H214 H 0.9517 0.96403 0.84858 0.0
H215 H 0.93118 0.8871 0.88348 0.0
Mn216 Mn 0.12386 0.21153 0.5282 0.0
Mn217 Mn 0.08511 0.11479 0.53645 0.0
C218 C 0.11455 0.17423 0.58857 0.0
C219 C 0.15729 0.2255 0.51744 0.0
C220 C 0.08134 0.25529 0.52373 0.0
O221 O 0.11974 0.18088 0.47273 0.0
O222 O 0.09534 0.11204 0.48264 0.0
C223 C 0.10531 0.99374 0.52456 0.0
N224 N 0.09385 0.03144 0.54681 0.0
C225 C 0.09017 0.95089 0.59511 0.0
C226 C 0.10185 0.91106 0.57262 0.0
C227 C 0.10951 0.93269 0.53726 0.0
C228 C 0.08654 0.01131 0.58103 0.0
H229 H 0.11121 0.01014 0.49733 0.0
C230 C 0.10799 0.1386 0.46079 0.0
O231 O 0.1449 0.27049 0.51135 0.0
O232 O 0.15021 0.17249 0.52924 0.0
N233 N 0.07387 0.11195 0.58725 0.0
C234 C 0.06351 0.15704 0.60619 0.0
C235 C 0.05508 0.14325 0.64232 0.0
C236 C 0.05719 0.08315 0.65839 0.0
C237 C 0.0678 0.03738 0.63824 0.0
C238 C 0.07582 0.05377 0.60229 0.0
H239 H 0.06169 0.20315 0.59383 0.0
O240 O 0.12516 0.22438 0.58578 0.0
O241 O 0.10988 0.14735 0.55609 0.0
O242 O 0.09955 0.26784 0.52449 0.0
O243 O 0.07462 0.19964 0.52683 0.0
C244 C 0.07083 0.97625 0.6525 0.0
C245 C 0.08213 0.9332 0.6311 0.0
H246 H 0.10511 0.86394 0.58231 0.0
H247 H 0.1186 0.90232 0.51981 0.0
H248 H 0.04692 0.17882 0.6577 0.0
H249 H 0.05064 0.07273 0.68624 0.0
H250 H 0.06468 0.96195 0.68006 0.0
H251 H 0.08459 0.88667 0.64265 0.0
Mn252 Mn 0.89514 0.78929 0.52831 0.0
Mn253 Mn 0.93268 0.88944 0.54072 0.0
C254 C 0.90367 0.82273 0.5901 0.0
C255 C 0.86186 0.77447 0.51603 0.0
C256 C 0.93803 0.75056 0.52335 0.0
O257 O 0.89964 0.82401 0.47381 0.0
O258 O 0.92239 0.89707 0.48717 0.0
C259 C 0.91065 0.00828 0.5344 0.0
N260 N 0.92269 0.96984 0.55491 0.0
C261 C 0.92446 0.04364 0.60757 0.0
C262 C 0.9122 0.08423 0.58689 0.0
C263 C 0.9052 0.06634 0.55021 0.0
C264 C 0.92925 0.98618 0.59048 0.0
H265 H 0.9052 0.99468 0.50623 0.0
C266 C 0.91051 0.86996 0.46392 0.0
O267 O 0.87449 0.73047 0.50911 0.0
O268 O 0.86863 0.82686 0.52942 0.0
N269 N 0.94394 0.88789 0.59157 0.0
C270 C 0.95567 0.84345 0.60774 0.0
C271 C 0.96396 0.85425 0.6444 0.0
C272 C 0.96031 0.91088 0.66386 0.0
C273 C 0.94848 0.95638 0.64635 0.0
C274 C 0.94072 0.94316 0.60966 0.0
H275 H 0.9587 0.80008 0.5928 0.0
O276 O 0.89333 0.77237 0.58558 0.0
O277 O 0.90838 0.85187 0.55849 0.0
O278 O 0.91996 0.73574 0.52414 0.0
O279 O 0.94415 0.80687 0.52747 0.0
C280 C 0.94406 0.01428 0.6639 0.0
C281 C 0.93202 0.05781 0.64456 0.0
H282 H 0.908 0.12911 0.59896 0.0
H283 H 0.89566 0.09727 0.53415 0.0
H284 H 0.97316 0.81903 0.65763 0.0
H285 H 0.96665 0.9189 0.69222 0.0
H286 H 0.94974 0.02564 0.69238 0.0
H287 H 0.9286 0.10197 0.65848 0.0
H288 H 0.84333 0.32145 0.03752 0.0
H289 H 0.80784 0.33417 0.0424 0.0
H290 H 0.8003 0.13498 0.02819 0.0
H291 H 0.8356 0.12185 0.02302 0.0
H292 H 0.78034 0.29088 0.98115 0.0
H293 H 0.76639 0.18369 0.12558 0.0
H294 H 0.78995 0.21432 0.1118 0.0
H295 H 0.78187 0.14022 0.09317 0.0
C296 C 0.83412 0.28031 0.03589 0.0
C297 C 0.84228 0.22066 0.02987 0.0
C298 C 0.81387 0.28766 0.03863 0.0
C299 C 0.80148 0.23543 0.03603 0.0
C300 C 0.80962 0.17576 0.0308 0.0
H301 H 0.67593 0.17514 0.03213 0.0
H302 H 0.71147 0.16387 0.03668 0.0
C303 C 0.8298 0.16844 0.02768 0.0
C304 C 0.78001 0.24346 0.03621 0.0
H305 H 0.73876 0.20855 0.08735 0.0
C306 C 0.77123 0.27336 0.00448 0.0
C307 C 0.7682 0.2197 0.06643 0.0
C308 C 0.777 0.188 0.10139 0.0
C309 C 0.75089 0.27926 0.00178 0.0
C310 C 0.73901 0.25626 0.03227 0.0
C311 C 0.74783 0.22631 0.06405 0.0
C312 C 0.71743 0.26317 0.03164 0.0
C313 C 0.74234 0.30834 0.96565 0.0
C314 C 0.70892 0.32275 0.02841 0.0
C315 C 0.68872 0.32919 0.02543 0.0
C316 C 0.67651 0.27626 0.0263 0.0
C317 C 0.68495 0.21678 0.03126 0.0
C318 C 0.70525 0.2103 0.03386 0.0
H319 H 0.75263 0.30587 0.94082 0.0
H320 H 0.72854 0.28485 0.95717 0.0
H321 H 0.73919 0.35853 0.97125 0.0
H322 H 0.71794 0.36439 0.0278 0.0
H323 H 0.68268 0.37577 0.02213 0.0
H324 H 0.17287 0.69914 0.04309 0.0
H325 H 0.20846 0.69025 0.04653 0.0
H326 H 0.21422 0.87748 0.001 0.0
H327 H 0.17873 0.88686 0.99751 0.0
H328 H 0.23729 0.78329 0.96253 0.0
H329 H 0.24675 0.78024 0.12276 0.0
H330 H 0.22897 0.72652 0.10364 0.0
H331 H 0.22492 0.80936 0.09962 0.0
C332 C 0.18171 0.73858 0.03407 0.0
C333 C 0.17296 0.79373 0.02007 0.0
C334 C 0.20204 0.73353 0.03624 0.0
C335 C 0.21397 0.78346 0.02439 0.0
C336 C 0.20528 0.83854 0.01047 0.0
H337 H 0.34031 0.83072 0.04279 0.0
H338 H 0.30483 0.84527 0.04645 0.0
C339 C 0.18498 0.84379 0.00854 0.0
C340 C 0.23553 0.77738 0.02479 0.0
H341 H 0.27485 0.75917 0.08473 0.0
C342 C 0.24551 0.7782 0.98924 0.0
C343 C 0.24622 0.77129 0.0597 0.0
C344 C 0.23625 0.77226 0.0987 0.0
C345 C 0.26587 0.7718 0.98763 0.0
C346 C 0.27651 0.76425 0.02246 0.0
C347 C 0.26661 0.76469 0.05808 0.0
C348 C 0.29791 0.75455 0.02211 0.0
C349 C 0.27591 0.77328 0.94871 0.0
C350 C 0.3057 0.69838 0.00783 0.0
C351 C 0.32587 0.68981 0.00591 0.0
C352 C 0.33868 0.73739 0.0181 0.0
C353 C 0.33083 0.79327 0.03308 0.0
C354 C 0.31059 0.80163 0.03525 0.0
H355 H 0.26618 0.79114 0.92542 0.0
H356 H 0.28915 0.80314 0.94996 0.0
H357 H 0.28055 0.72512 0.94083 0.0
H358 H 0.29614 0.66131 0.99786 0.0
H359 H 0.3314 0.64615 0.99429 0.0
H360 H 0.83338 0.86335 0.51914 0.0
H361 H 0.79813 0.84822 0.5143 0.0
H362 H 0.80677 0.65036 0.49615 0.0
H363 H 0.84221 0.66509 0.50072 0.0
H364 H 0.77525 0.78619 0.44978 0.0
H365 H 0.76953 0.67064 0.59424 0.0
H366 H 0.79002 0.71942 0.58114 0.0
H367 H 0.78785 0.64205 0.56131 0.0
C368 C 0.82783 0.8166 0.51386 0.0
C369 C 0.84061 0.76533 0.51048 0.0
C370 C 0.80767 0.80812 0.51104 0.0
C371 C 0.79985 0.74816 0.5052 0.0
C372 C 0.81254 0.69697 0.50097 0.0
H373 H 0.68004 0.61525 0.51884 0.0
H374 H 0.71543 0.62377 0.51292 0.0
C375 C 0.83277 0.70549 0.50345 0.0
C376 C 0.7784 0.73935 0.50469 0.0
H377 H 0.74056 0.68276 0.55863 0.0
C378 C 0.76762 0.7634 0.47346 0.0
C379 C 0.76855 0.70954 0.5356 0.0
C380 C 0.77947 0.68412 0.5702 0.0
C381 C 0.74719 0.75796 0.47217 0.0
C382 C 0.73724 0.72931 0.50355 0.0
C383 C 0.74813 0.70479 0.5346 0.0
C384 C 0.71558 0.72439 0.50505 0.0
C385 C 0.73655 0.78187 0.43682 0.0
C386 C 0.70377 0.77811 0.5027 0.0
C387 C 0.68346 0.77327 0.50569 0.0
C388 C 0.67456 0.71472 0.51175 0.0
C389 C 0.68641 0.66108 0.51418 0.0
C390 C 0.70667 0.66588 0.51083 0.0
H391 H 0.7463 0.78398 0.41111 0.0
H392 H 0.72384 0.75181 0.42968 0.0
H393 H 0.73122 0.83006 0.44259 0.0
H394 H 0.71027 0.82402 0.49933 0.0
H395 H 0.67476 0.81553 0.50405 0.0
H396 H 0.17719 0.33511 0.50498 0.0
H397 H 0.21261 0.34936 0.50044 0.0
H398 H 0.2209 0.15043 0.51431 0.0
H399 H 0.18561 0.13576 0.51914 0.0
H400 H 0.24071 0.30737 0.56097 0.0
H401 H 0.25397 0.20096 0.41609 0.0
H402 H 0.23039 0.2304 0.43063 0.0
H403 H 0.23895 0.15666 0.44894 0.0
C404 C 0.18654 0.29435 0.5067 0.0
C405 C 0.17858 0.2343 0.51241 0.0
C406 C 0.20677 0.30259 0.50416 0.0
C407 C 0.21935 0.25088 0.50668 0.0
C408 C 0.21143 0.19084 0.5118 0.0
H409 H 0.3447 0.19291 0.50506 0.0
H410 H 0.30915 0.18218 0.5028 0.0
C411 C 0.19126 0.18262 0.51471 0.0
C412 C 0.2408 0.2598 0.50596 0.0
H413 H 0.28177 0.22687 0.4535 0.0
C414 C 0.24971 0.29023 0.53737 0.0
C415 C 0.25247 0.23673 0.47534 0.0
C416 C 0.24353 0.20469 0.44062 0.0
C417 C 0.27005 0.2971 0.53942 0.0
C418 C 0.28179 0.27455 0.50859 0.0
C419 C 0.27282 0.24428 0.47708 0.0
C420 C 0.30339 0.28146 0.50871 0.0
C421 C 0.27878 0.32661 0.57525 0.0
C422 C 0.31205 0.34089 0.5119 0.0
C423 C 0.33233 0.34705 0.51359 0.0
C424 C 0.34443 0.29399 0.51144 0.0
C425 C 0.33579 0.23469 0.50689 0.0
C426 C 0.31546 0.2285 0.50557 0.0
H427 H 0.26865 0.32405 0.60036 0.0
H428 H 0.29268 0.3035 0.58343 0.0
H429 H 0.28178 0.37683 0.56944 0.0
H430 H 0.30311 0.38263 0.51323 0.0
H431 H 0.33852 0.39348 0.51666 0.0
H432 H 0.62458 0.32052 0.13626 0.0
H433 H 0.62626 0.36304 0.20239 0.0
H434 H 0.59271 0.52362 0.16626 0.0
H435 H 0.59051 0.48138 0.10099 0.0
H436 H 0.64081 0.47677 0.23092 0.0
H437 H 0.56137 0.45673 0.25711 0.0
H438 H 0.57327 0.41889 0.21675 0.0
H439 H 0.567 0.50069 0.21418 0.0
C440 C 0.61749 0.36471 0.1425 0.0
C441 C 0.60714 0.39696 0.11346 0.0
C442 C 0.61853 0.38902 0.18019 0.0
C443 C 0.6093 0.44587 0.18927 0.0
C444 C 0.59952 0.47893 0.16007 0.0
H445 H 0.623 0.67963 0.39618 0.0
H446 H 0.62565 0.63632 0.33036 0.0
C447 C 0.5983 0.45457 0.1227 0.0
C448 C 0.60949 0.47074 0.2293 0.0
H449 H 0.57934 0.51836 0.30209 0.0
C450 C 0.62741 0.48549 0.24671 0.0
C451 C 0.59198 0.48148 0.24985 0.0
C452 C 0.57233 0.46305 0.23369 0.0
C453 C 0.62825 0.51168 0.28409 0.0
C454 C 0.61067 0.52451 0.304 0.0
C455 C 0.5928 0.50914 0.28661 0.0
C456 C 0.61023 0.55044 0.34384 0.0
C457 C 0.64789 0.52414 0.30217 0.0
C458 C 0.60042 0.51715 0.37291 0.0
C459 C 0.59852 0.54219 0.40995 0.0
C460 C 0.60654 0.60107 0.41903 0.0
C461 C 0.6167 0.63414 0.3901 0.0
C462 C 0.61837 0.60921 0.35261 0.0
H463 H 0.65964 0.49718 0.28756 0.0
H464 H 0.65139 0.57471 0.29938 0.0
H465 H 0.64787 0.51197 0.3335 0.0
H466 H 0.59404 0.47174 0.36682 0.0
H467 H 0.59075 0.515 0.43152 0.0
H468 H 0.43473 0.56563 0.10962 0.0
H469 H 0.43126 0.52098 0.1742 0.0
H470 H 0.37703 0.61985 0.18956 0.0
H471 H 0.38044 0.66583 0.12468 0.0
H472 H 0.40123 0.62578 0.25405 0.0
H473 H 0.3937 0.38071 0.2038 0.0
H474 H 0.41506 0.41794 0.18458 0.0
H475 H 0.39132 0.44692 0.1715 0.0
C476 C 0.42204 0.57818 0.12661 0.0
C477 C 0.40778 0.61906 0.11174 0.0
C478 C 0.42002 0.55213 0.16347 0.0
C479 C 0.40364 0.56578 0.18621 0.0
C480 C 0.38967 0.60816 0.17219 0.0
H481 H 0.38458 0.35425 0.40241 0.0
H482 H 0.37937 0.39954 0.3378 0.0
C483 C 0.39169 0.63455 0.13519 0.0
C484 C 0.40153 0.53651 0.22494 0.0
H485 H 0.40227 0.3948 0.27094 0.0
C486 C 0.40117 0.5753 0.25777 0.0
C487 C 0.40106 0.47064 0.22971 0.0
C488 C 0.40009 0.42664 0.19549 0.0
C489 C 0.40149 0.5499 0.29531 0.0
C490 C 0.40255 0.48409 0.30001 0.0
C491 C 0.40175 0.44525 0.26724 0.0
C492 C 0.40576 0.45507 0.33851 0.0
C493 C 0.40096 0.59382 0.32961 0.0
C494 C 0.4226 0.46974 0.35961 0.0
C495 C 0.42565 0.44403 0.39628 0.0
C496 C 0.41197 0.40253 0.41261 0.0
C497 C 0.39541 0.38601 0.39075 0.0
C498 C 0.39236 0.41201 0.35392 0.0
H499 H 0.39411 0.63931 0.32187 0.0
H500 H 0.39283 0.57292 0.35428 0.0
H501 H 0.41609 0.60349 0.3393 0.0
H502 H 0.4334 0.50149 0.34777 0.0
H503 H 0.43867 0.45745 0.41201 0.0
H504 H 0.41775 0.72601 0.87618 0.0
H505 H 0.42004 0.67174 0.8132 0.0
H506 H 0.3934 0.50775 0.86357 0.0
H507 H 0.39121 0.56158 0.9263 0.0
H508 H 0.43907 0.53776 0.80313 0.0
H509 H 0.3613 0.56368 0.76017 0.0
H510 H 0.37325 0.61821 0.79253 0.0
H511 H 0.36657 0.54184 0.8096 0.0
C512 C 0.41247 0.67835 0.8736 0.0
C513 C 0.40482 0.64705 0.90598 0.0
C514 C 0.41376 0.64754 0.83784 0.0
C515 C 0.40687 0.58593 0.83397 0.0
C516 C 0.39876 0.55534 0.86611 0.0
H517 H 0.42277 0.30612 0.65192 0.0
H518 H 0.42303 0.36313 0.71398 0.0
C519 C 0.39766 0.58583 0.90184 0.0
C520 C 0.40832 0.55289 0.79649 0.0
H521 H 0.38126 0.50161 0.71983 0.0
C522 C 0.42647 0.52946 0.78497 0.0
C523 C 0.39183 0.543 0.77283 0.0
C524 C 0.37208 0.56813 0.78407 0.0
C525 C 0.42855 0.49514 0.75052 0.0
C526 C 0.41205 0.48502 0.72667 0.0
C527 C 0.39391 0.50937 0.73809 0.0
C528 C 0.41324 0.45096 0.68922 0.0
C529 C 0.44841 0.47065 0.7399 0.0
C530 C 0.40743 0.48107 0.65493 0.0
C531 C 0.40712 0.44851 0.61985 0.0
C532 C 0.41295 0.38558 0.61823 0.0
C533 C 0.41871 0.35515 0.65244 0.0
C534 C 0.41894 0.38773 0.68773 0.0
H535 H 0.46022 0.49642 0.75515 0.0
H536 H 0.44942 0.4205 0.74817 0.0
H537 H 0.4508 0.4743 0.7083 0.0
H538 H 0.4028 0.52961 0.65543 0.0
H539 H 0.40187 0.47217 0.59408 0.0
H540 H 0.59936 0.28554 0.8787 0.0
H541 H 0.59792 0.34014 0.81568 0.0
H542 H 0.62445 0.50315 0.86752 0.0
H543 H 0.62579 0.44905 0.93022 0.0
H544 H 0.57938 0.47507 0.80575 0.0
H545 H 0.65733 0.44689 0.765 0.0
H546 H 0.64489 0.39215 0.79646 0.0
H547 H 0.65184 0.46769 0.81449 0.0
C548 C 0.60481 0.33304 0.87639 0.0
C549 C 0.61219 0.36405 0.90911 0.0
C550 C 0.60401 0.364 0.84064 0.0
C551 C 0.61114 0.42539 0.83722 0.0
C552 C 0.61896 0.45567 0.86973 0.0
H553 H 0.59716 0.70944 0.65645 0.0
H554 H 0.59676 0.65253 0.71865 0.0
C555 C 0.61957 0.42505 0.90542 0.0
C556 C 0.6101 0.4589 0.79991 0.0
H557 H 0.63803 0.51165 0.72497 0.0
C558 C 0.59217 0.4837 0.78822 0.0
C559 C 0.62684 0.46891 0.77701 0.0
C560 C 0.64637 0.44238 0.78855 0.0
C561 C 0.59057 0.52002 0.75449 0.0
C562 C 0.60729 0.52999 0.73125 0.0
C563 C 0.6252 0.50401 0.74276 0.0
C564 C 0.60653 0.5646 0.694 0.0
C565 C 0.57098 0.54738 0.74448 0.0
C566 C 0.61241 0.53439 0.65982 0.0
C567 C 0.61282 0.56683 0.62477 0.0
C568 C 0.60698 0.62972 0.62301 0.0
C569 C 0.60126 0.66045 0.65713 0.0
C570 C 0.60096 0.62797 0.69247 0.0
H571 H 0.56993 0.59512 0.75707 0.0
H572 H 0.56908 0.55123 0.71281 0.0
H573 H 0.55888 0.5188 0.75657 0.0
H574 H 0.61691 0.48573 0.66035 0.0
H575 H 0.61802 0.54296 0.59904 0.0
H576 H 0.07787 0.94933 0.1212 0.0
H577 H 0.08323 0.99419 0.18521 0.0
H578 H 0.13826 0.89773 0.19362 0.0
H579 H 0.13297 0.85162 0.12928 0.0
H580 H 0.11625 0.89123 0.26126 0.0
H581 H 0.12123 0.13618 0.20956 0.0
H582 H 0.09944 0.09798 0.19317 0.0
H583 H 0.12282 0.06982 0.1772 0.0
C584 C 0.09112 0.93726 0.13655 0.0
C585 C 0.10505 0.89707 0.11985 0.0
C586 C 0.09422 0.96346 0.17309 0.0
C587 C 0.11137 0.95063 0.19369 0.0
C588 C 0.12503 0.90881 0.17791 0.0
H589 H 0.13628 0.1655 0.40652 0.0
H590 H 0.13978 0.11954 0.34162 0.0
C591 C 0.12193 0.88232 0.14123 0.0
C592 C 0.11465 0.98025 0.23203 0.0
H593 H 0.11494 0.12227 0.2777 0.0
C594 C 0.11626 0.94173 0.26484 0.0
C595 C 0.11506 0.04617 0.23658 0.0
C596 C 0.11476 0.08995 0.2022 0.0
C597 C 0.11709 0.9674 0.3023 0.0
C598 C 0.11594 0.03321 0.30699 0.0
C599 C 0.11552 0.07181 0.27407 0.0
C600 C 0.11381 0.06239 0.34577 0.0
C601 C 0.11893 0.92373 0.33654 0.0
C602 C 0.09775 0.04696 0.36898 0.0
C603 C 0.09568 0.07304 0.40582 0.0
C604 C 0.10956 0.1157 0.42026 0.0
C605 C 0.12532 0.13284 0.39636 0.0
C606 C 0.1274 0.10647 0.35935 0.0
H607 H 0.12577 0.87859 0.32804 0.0
H608 H 0.1277 0.94521 0.36013 0.0
H609 H 0.10419 0.91326 0.34809 0.0
H610 H 0.0868 0.01443 0.35862 0.0
H611 H 0.08324 0.05908 0.42314 0.0
H612 H 0.92446 0.98178 0.43782 0.0
H613 H 0.92259 0.02494 0.37269 0.0
H614 H 0.89203 0.85989 0.33368 0.0
H615 H 0.89335 0.8166 0.39958 0.0
H616 H 0.93832 0.97969 0.30805 0.0
H617 H 0.85821 0.99819 0.28956 0.0
H618 H 0.86945 0.98352 0.33604 0.0
H619 H 0.86642 0.92077 0.30173 0.0
C620 C 0.91725 0.95446 0.41555 0.0
C621 C 0.9091 0.89548 0.42399 0.0
C622 C 0.91617 0.97942 0.37826 0.0
C623 C 0.90699 0.94607 0.34837 0.0
C624 C 0.89881 0.88712 0.3565 0.0
H625 H 0.9289 0.01437 0.10525 0.0
H626 H 0.92678 0.97292 0.17085 0.0
C627 C 0.89971 0.86221 0.3941 0.0
C628 C 0.90701 0.97225 0.30847 0.0
H629 H 0.8776 0.01771 0.23357 0.0
C630 C 0.92503 0.98814 0.29184 0.0
C631 C 0.88965 0.98416 0.28756 0.0
C632 C 0.86982 0.97138 0.30472 0.0
C633 C 0.9262 0.01505 0.25482 0.0
C634 C 0.9089 0.02478 0.2333 0.0
C635 C 0.89084 0.00971 0.25003 0.0
C636 C 0.90941 0.04945 0.19311 0.0
C637 C 0.94596 0.03381 0.23945 0.0
C638 C 0.89977 0.10536 0.18344 0.0
C639 C 0.90078 0.12917 0.14561 0.0
C640 C 0.91148 0.0974 0.11686 0.0
C641 C 0.92079 0.04078 0.12668 0.0
C642 C 0.91964 0.01693 0.16427 0.0
H643 H 0.95664 0.04075 0.2633 0.0
H644 H 0.9516 0.99607 0.22037 0.0
H645 H 0.94508 0.0777 0.22222 0.0
H646 H 0.89168 0.13096 0.20528 0.0
H647 H 0.89334 0.17263 0.13901 0.0
H648 H 0.92393 0.79027 0.65531 0.0
H649 H 0.9256 0.84928 0.71612 0.0
H650 H 0.88266 0.97921 0.6717 0.0
H651 H 0.88342 0.92543 0.60939 0.0
H652 H 0.90422 0.04356 0.70612 0.0
H653 H 0.89458 0.84648 0.8076 0.0
H654 H 0.91635 0.83424 0.78022 0.0
H655 H 0.89294 0.83536 0.75602 0.0
C656 C 0.91506 0.83186 0.65878 0.0
C657 C 0.90394 0.85455 0.62777 0.0
C658 C 0.91564 0.86494 0.69385 0.0
C659 C 0.90391 0.91843 0.69945 0.0
C660 C 0.89209 0.93886 0.66853 0.0
H661 H 0.88579 0.0603 0.93271 0.0
H662 H 0.88459 0.00517 0.87086 0.0
C663 C 0.89238 0.90792 0.63292 0.0
C664 C 0.90443 0.95505 0.73645 0.0
H665 H 0.90612 0.94183 0.83497 0.0
C666 C 0.90436 0.02092 0.73425 0.0
C667 C 0.90426 0.92655 0.77362 0.0
C668 C 0.9018 0.85685 0.77944 0.0
C669 C 0.90379 0.0587 0.76754 0.0
C670 C 0.90504 0.03025 0.80464 0.0
C671 C 0.90544 0.96439 0.80684 0.0
C672 C 0.90505 0.06691 0.84161 0.0
C673 C 0.90081 0.12825 0.76199 0.0
C674 C 0.91657 0.12112 0.84625 0.0
C675 C 0.91625 0.15483 0.8811 0.0
C676 C 0.90562 0.13216 0.91278 0.0
C677 C 0.89436 0.07786 0.90863 0.0
C678 C 0.89381 0.04617 0.87329 0.0
H679 H 0.89298 0.13826 0.73444 0.0
H680 H 0.89229 0.14912 0.78612 0.0
H681 H 0.9152 0.15177 0.76014 0.0
H682 H 0.92609 0.13704 0.8233 0.0
H683 H 0.92489 0.19708 0.8838 0.0
H684 H 0.11432 0.96808 0.9385 0.0
H685 H 0.11336 0.02571 0.87719 0.0
H686 H 0.09378 0.85881 0.81825 0.0
H687 H 0.09417 0.80144 0.8802 0.0
H688 H 0.13538 0.99672 0.81261 0.0
H689 H 0.05642 0.99294 0.77696 0.0
H690 H 0.06573 0.97195 0.82412 0.0
H691 H 0.06712 0.91709 0.78484 0.0
C692 C 0.10922 0.94431 0.91265 0.0
C693 C 0.10366 0.88108 0.91413 0.0
C694 C 0.10888 0.97702 0.87759 0.0
C695 C 0.10326 0.94684 0.8432 0.0
C696 C 0.09775 0.88342 0.84457 0.0
H697 H 0.12604 0.05666 0.60606 0.0
H698 H 0.12352 0.00291 0.6688 0.0
C699 C 0.09805 0.85065 0.87981 0.0
C700 C 0.10455 0.98093 0.80575 0.0
H701 H 0.07769 0.03422 0.72919 0.0
C702 C 0.12276 0.00476 0.79431 0.0
C703 C 0.08809 0.99144 0.78188 0.0
C704 C 0.06817 0.96745 0.79257 0.0
C705 C 0.12495 0.03816 0.7595 0.0
C706 C 0.1085 0.04842 0.73577 0.0
C707 C 0.09027 0.0256 0.74736 0.0
C708 C 0.11008 0.08131 0.6982 0.0
C709 C 0.14478 0.06265 0.74824 0.0
C710 C 0.10332 0.14304 0.69417 0.0
C711 C 0.10481 0.17381 0.65841 0.0
C712 C 0.11252 0.14239 0.62614 0.0
C713 C 0.11954 0.08104 0.63042 0.0
C714 C 0.11825 0.05058 0.66617 0.0
H715 H 0.15551 0.05823 0.77223 0.0
H716 H 0.15027 0.03587 0.72289 0.0
H717 H 0.14377 0.11265 0.73952 0.0
H718 H 0.09701 0.16739 0.71871 0.0
H719 H 0.09964 0.22157 0.65575 0.0
H720 H 0.47594 0.75066 0.00622 0.0
H721 H 0.49963 0.83536 0.00989 0.0
H722 H 0.45314 0.96949 0.02296 0.0
H723 H 0.42909 0.88473 0.01879 0.0
H724 H 0.48082 0.00461 0.96795 0.0
H725 H 0.51722 0.93391 0.10474 0.0
H726 H 0.51616 0.87251 0.06922 0.0
H727 H 0.49396 0.90236 0.08991 0.0
C728 C 0.47063 0.798 0.01023 0.0
C729 C 0.4505 0.81057 0.01243 0.0
C730 C 0.48428 0.84646 0.01254 0.0
C731 C 0.47821 0.90869 0.01743 0.0
C732 C 0.45816 0.9217 0.01949 0.0
H733 H 0.5399 0.26549 0.02102 0.0
H734 H 0.51557 0.18243 0.02347 0.0
C735 C 0.44443 0.87314 0.01714 0.0
C736 C 0.49282 0.96019 0.01866 0.0
H737 H 0.53323 0.01212 0.06707 0.0
C738 C 0.49217 0.00659 0.98982 0.0
C739 C 0.50773 0.96251 0.04706 0.0
C740 C 0.50876 0.91551 0.07971 0.0
C741 C 0.50626 0.05434 0.98803 0.0
C742 C 0.52122 0.05654 0.01634 0.0
C743 C 0.52181 0.01032 0.04531 0.0
C744 C 0.53626 0.10681 0.01654 0.0
C745 C 0.50529 0.10098 0.95515 0.0
C746 C 0.55615 0.09198 0.0134 0.0
C747 C 0.57024 0.13956 0.01239 0.0
C748 C 0.56471 0.20298 0.01461 0.0
C749 C 0.54477 0.21735 0.01883 0.0
C750 C 0.53076 0.16985 0.02 0.0
H751 H 0.49656 0.08286 0.93042 0.0
H752 H 0.49823 0.14459 0.96561 0.0
H753 H 0.52009 0.11303 0.94448 0.0
H754 H 0.56074 0.04358 0.01099 0.0
H755 H 0.58542 0.12664 0.00917 0.0
H756 H 0.58592 0.87514 0.51573 0.0
H757 H 0.56255 0.96194 0.51249 0.0
H758 H 0.5151 0.82991 0.50673 0.0
H759 H 0.53811 0.74322 0.51026 0.0
H760 H 0.53351 0.99055 0.45536 0.0
H761 H 0.50065 0.94199 0.59949 0.0
H762 H 0.52364 0.90876 0.58449 0.0
H763 H 0.50113 0.87593 0.56722 0.0
C764 C 0.57052 0.8645 0.51363 0.0
C765 C 0.56396 0.80196 0.51352 0.0
C766 C 0.55719 0.9142 0.51178 0.0
C767 C 0.53707 0.90235 0.51006 0.0
C768 C 0.53053 0.84016 0.50884 0.0
H769 H 0.43277 0.13641 0.51185 0.0
H770 H 0.45577 0.04877 0.50818 0.0
C771 C 0.54378 0.79058 0.51064 0.0
C772 C 0.52283 0.95477 0.50972 0.0
H773 H 0.48492 0.01824 0.56057 0.0
C774 C 0.52294 0.99683 0.47841 0.0
C775 C 0.50897 0.96266 0.53975 0.0
C776 C 0.50862 0.92034 0.57484 0.0
C777 C 0.50936 0.04603 0.47602 0.0
C778 C 0.49554 0.05407 0.50615 0.0
C779 C 0.49543 0.01188 0.5374 0.0
C780 C 0.48153 0.10721 0.50657 0.0
C781 C 0.50968 0.08817 0.44087 0.0
C782 C 0.48835 0.16915 0.50717 0.0
C783 C 0.47529 0.21925 0.50917 0.0
C784 C 0.45503 0.20869 0.51097 0.0
C785 C 0.44822 0.14646 0.51035 0.0
C786 C 0.46135 0.09625 0.5083 0.0
H787 H 0.51699 0.06528 0.41583 0.0
H788 H 0.4947 0.10177 0.43207 0.0
H789 H 0.51792 0.13145 0.44791 0.0
H790 H 0.50384 0.17881 0.50682 0.0
H791 H 0.48116 0.26634 0.50991 0.0
H792 H 0.08592 0.62982 0.01973 0.0
H793 H 0.06373 0.54001 0.02288 0.0
H794 H 0.0145 0.66533 0.02577 0.0
H795 H 0.03641 0.75515 0.02314 0.0
H796 H 0.01169 0.56829 0.07965 0.0
H797 H 0.02988 0.47697 0.93308 0.0
H798 H 0.05037 0.48715 0.96493 0.0
H799 H 0.03683 0.55443 0.94891 0.0
C800 C 0.07038 0.63838 0.02116 0.0
C801 C 0.06303 0.69999 0.02101 0.0
C802 C 0.0577 0.5869 0.02271 0.0
C803 C 0.03742 0.5959 0.02395 0.0
C804 C 0.03008 0.6572 0.02468 0.0
H805 H 0.93246 0.36774 0.02326 0.0
H806 H 0.95639 0.45244 0.02699 0.0
C807 C 0.04269 0.70859 0.02314 0.0
C808 C 0.02374 0.54178 0.02437 0.0
H809 H 0.00823 0.4164 0.97093 0.0
C810 C 0.01094 0.53504 0.0559 0.0
C811 C 0.02275 0.49843 0.99334 0.0
C812 C 0.03555 0.50465 0.95795 0.0
C813 C 0.99729 0.48591 0.0574 0.0
C814 C 0.99616 0.44295 0.02619 0.0
C815 C 0.0091 0.44932 0.99485 0.0
C816 C 0.98155 0.39139 0.02518 0.0
C817 C 0.98441 0.47989 0.09269 0.0
C818 C 0.98768 0.32886 0.02221 0.0
C819 C 0.97403 0.28026 0.01985 0.0
C820 C 0.95389 0.29306 0.02015 0.0
C821 C 0.9478 0.35589 0.02321 0.0
C822 C 0.96149 0.40448 0.02557 0.0
H823 H 0.99063 0.505 0.11808 0.0
H824 H 0.96996 0.50074 0.08625 0.0
H825 H 0.98221 0.42996 0.10063 0.0
H826 H 1.00307 0.31761 0.02164 0.0
H827 H 0.97934 0.23264 0.01737 0.0
H828 H 0.08841 0.38246 0.52064 0.0
H829 H 0.06435 0.46734 0.51853 0.0
H830 H 0.01786 0.33151 0.51668 0.0
H831 H 0.04158 0.24673 0.51929 0.0
H832 H 0.03497 0.49476 0.46402 0.0
H833 H 1.00305 0.44286 0.60834 0.0
H834 H 0.02597 0.41014 0.59256 0.0
H835 H 1.00335 0.37673 0.57617 0.0
C836 C 0.07307 0.37056 0.51973 0.0
C837 C 0.06701 0.30751 0.52043 0.0
C838 C 0.05934 0.4192 0.51851 0.0
C839 C 0.03929 0.40582 0.51819 0.0
C840 C 0.03323 0.34306 0.51782 0.0
H841 H 0.93204 0.62329 0.51797 0.0
H842 H 0.95669 0.5406 0.51451 0.0
C843 C 0.04688 0.29453 0.51908 0.0
C844 C 0.02462 0.4572 0.5182 0.0
H845 H 0.98598 0.51604 0.56907 0.0
C846 C 0.02433 0.49969 0.48709 0.0
C847 C 0.01072 0.46356 0.5483 0.0
C848 C 0.01084 0.42131 0.58343 0.0
C849 C 0.01023 0.54744 0.48483 0.0
C850 C 0.99624 0.55346 0.5148 0.0
C851 C 0.99661 0.51116 0.54598 0.0
C852 C 0.9813 0.60399 0.51485 0.0
C853 C 0.01016 0.59014 0.44994 0.0
C854 C 0.98691 0.66717 0.51632 0.0
C855 C 0.97287 0.7146 0.51829 0.0
C856 C 0.95284 0.69997 0.51904 0.0
C857 C 0.94727 0.63651 0.51729 0.0
C858 C 0.96136 0.58908 0.51538 0.0
H859 H 0.01825 0.56939 0.42515 0.0
H860 H 0.99503 0.60059 0.44046 0.0
H861 H 0.01732 0.63505 0.45768 0.0
H862 H 1.00219 0.67984 0.51677 0.0
H863 H 0.97779 0.76275 0.51984 0.0
loop_
_geom_bond_atom_site_label_1
_geom_bond_atom_site_label_2
_geom_bond_distance
_geom_bond_site_symmetry_2
_ccdc_geom_bond_type
Mn0 O5 2.095 . S
Mn0 O15 2.162 . S
Mn0 O16 2.297 . S
Mn0 O24 2.385 1_554 S
Mn0 O25 2.209 1_554 S
Mn0 O26 2.094 . S
Mn1 O6 2.121 . S
Mn1 N8 2.257 1_554 S
Mn1 N17 2.282 1_554 S
Mn1 O25 2.215 1_554 S
Mn1 O27 2.117 . S
C2 O24 1.234 . S
C2 O25 1.283 . S
C3 O15 1.281 . S
C3 O16 1.236 . S
C4 O26 1.240 . S
C4 O27 1.264 . S
O5 Mn0 2.095 . S
O5 C14 1.250 . S
O6 Mn1 2.121 . S
O6 C14 1.258 . S
C7 N8 1.326 1_554 S
C7 C11 1.460 . S
C7 H13 0.929 . S
N8 Mn1 2.257 1_556 S
N8 C7 1.326 1_556 S
N8 C12 1.362 . S
C9 C10 1.258 . S
C9 C12 1.431 . S
C9 C29 1.449 . S
C10 C9 1.258 . S
C10 C11 1.477 1_556 S
C10 H30 0.931 . S
C11 C7 1.460 . S
C11 C10 1.477 1_554 S
C11 H31 0.930 . S
C12 N8 1.362 . S
C12 C9 1.431 . S
C12 C22 1.476 . S
H13 C7 0.929 . S
C14 O5 1.250 . S
C14 O6 1.258 . S
O15 Mn0 2.162 . S
O15 C3 1.281 . S
O16 Mn0 2.297 . S
O16 C3 1.236 . S
N17 Mn1 2.282 1_556 S
N17 C18 1.328 . S
N17 C22 1.318 . S
C18 N17 1.328 . S
C18 C19 1.457 . S
C18 H23 0.929 . S
C19 C18 1.457 . S
C19 C20 1.291 . S
C19 H32 0.931 . S
C20 C19 1.291 . S
C20 C21 1.373 . S
C20 H33 0.929 . S
C21 C20 1.373 . S
C21 C22 1.396 . S
C21 C28 1.403 . S
C22 C12 1.476 . S
C22 N17 1.318 . S
C22 C21 1.396 . S
H23 C18 0.929 . S
O24 Mn0 2.385 1_556 S
O24 C2 1.234 . S
O25 Mn0 2.209 1_556 S
O25 Mn1 2.215 1_556 S
O25 C2 1.283 . S
O26 Mn0 2.094 . S
O26 C4 1.240 . S
O27 Mn1 2.117 . S
O27 C4 1.264 . S
C28 C21 1.403 . S
C28 C29 1.399 . S
C28 H34 0.929 . S
C29 C9 1.449 . S
C29 C28 1.399 . S
C29 H35 0.930 . S
H30 C10 0.931 . S
H31 C11 0.930 . S
H32 C19 0.931 . S
H33 C20 0.929 . S
H34 C28 0.929 . S
H35 C29 0.930 . S
Mn36 O41 2.095 . S
Mn36 O51 2.162 . S
Mn36 O52 2.297 . S
Mn36 O60 2.385 1_554 S
Mn36 O61 2.209 1_554 S
Mn36 O62 2.094 . S
Mn37 O42 2.121 . S
Mn37 N44 2.257 1_554 S
Mn37 N53 2.282 1_554 S
Mn37 O61 2.215 1_554 S
Mn37 O63 2.117 . S
C38 O60 1.234 . S
C38 O61 1.283 . S
C39 O51 1.281 . S
C39 O52 1.236 . S
C40 O62 1.240 . S
C40 O63 1.264 . S
O41 Mn36 2.095 . S
O41 C50 1.250 . S
O42 Mn37 2.121 . S
O42 C50 1.258 . S
C43 N44 1.326 1_554 S
C43 C47 1.460 . S
C43 H49 0.929 . S
N44 Mn37 2.257 1_556 S
N44 C43 1.326 1_556 S
N44 C48 1.362 . S
C45 C46 1.258 . S
C45 C48 1.431 . S
C45 C65 1.449 . S
C46 C45 1.258 . S
C46 C47 1.477 1_556 S
C46 H66 0.931 . S
C47 C43 1.460 . S
C47 C46 1.477 1_554 S
C47 H67 0.930 . S
C48 N44 1.362 . S
C48 C45 1.431 . S
C48 C58 1.476 . S
H49 C43 0.929 . S
C50 O41 1.250 . S
C50 O42 1.258 . S
O51 Mn36 2.162 . S
O51 C39 1.281 . S
O52 Mn36 2.297 . S
O52 C39 1.236 . S
N53 Mn37 2.282 1_556 S
N53 C54 1.328 . S
N53 C58 1.318 . S
C54 N53 1.328 . S
C54 C55 1.457 . S
C54 H59 0.929 . S
C55 C54 1.457 . S
C55 C56 1.291 . S
C55 H68 0.931 . S
C56 C55 1.291 . S
C56 C57 1.373 . S
C56 H69 0.929 . S
C57 C56 1.373 . S
C57 C58 1.396 . S
C57 C64 1.403 . S
C58 C48 1.476 . S
C58 N53 1.318 . S
C58 C57 1.396 . S
H59 C54 0.929 . S
O60 Mn36 2.385 1_556 S
O60 C38 1.234 . S
O61 Mn36 2.209 1_556 S
O61 Mn37 2.215 1_556 S
O61 C38 1.283 . S
O62 Mn36 2.094 . S
O62 C40 1.240 . S
O63 Mn37 2.117 . S
O63 C40 1.264 . S
C64 C57 1.403 . S
C64 C65 1.399 . S
C64 H70 0.929 . S
C65 C45 1.449 . S
C65 C64 1.399 . S
C65 H71 0.930 . S
H66 C46 0.931 . S
H67 C47 0.930 . S
H68 C55 0.931 . S
H69 C56 0.929 . S
H70 C64 0.929 . S
H71 C65 0.930 . S
Mn72 O77 2.095 . S
Mn72 O87 2.162 . S
Mn72 O88 2.297 . S
Mn72 O96 2.385 . S
Mn72 O97 2.209 . S
Mn72 O98 2.094 . S
Mn73 O78 2.121 . S
Mn73 N80 2.257 . S
Mn73 N89 2.282 . S
Mn73 O97 2.215 . S
Mn73 O99 2.117 . S
C74 O96 1.234 . S
C74 O97 1.283 . S
C75 O87 1.281 . S
C75 O88 1.236 . S
C76 O98 1.240 . S
C76 O99 1.264 . S
O77 Mn72 2.095 . S
O77 C86 1.250 . S
O78 Mn73 2.121 . S
O78 C86 1.258 . S
C79 N80 1.326 . S
C79 C83 1.460 . S
C79 H85 0.929 . S
N80 Mn73 2.257 . S
N80 C79 1.326 . S
N80 C84 1.362 . S
C81 C82 1.258 . S
C81 C84 1.431 . S
C81 C101 1.449 . S
C82 C81 1.258 . S
C82 C83 1.477 . S
C82 H102 0.931 . S
C83 C79 1.460 . S
C83 C82 1.477 . S
C83 H103 0.930 . S
C84 N80 1.362 . S
C84 C81 1.431 . S
C84 C94 1.476 . S
H85 C79 0.929 . S
C86 O77 1.250 . S
C86 O78 1.258 . S
O87 Mn72 2.162 . S
O87 C75 1.281 . S
O88 Mn72 2.297 . S
O88 C75 1.236 . S
N89 Mn73 2.282 . S
N89 C90 1.328 . S
N89 C94 1.318 . S
C90 N89 1.328 . S
C90 C91 1.457 . S
C90 H95 0.929 . S
C91 C90 1.457 . S
C91 C92 1.291 . S
C91 H104 0.931 . S
C92 C91 1.291 . S
C92 C93 1.373 . S
C92 H105 0.929 . S
C93 C92 1.373 . S
C93 C94 1.396 . S
C93 C100 1.403 . S
C94 C84 1.476 . S
C94 N89 1.318 . S
C94 C93 1.396 . S
H95 C90 0.929 . S
O96 Mn72 2.385 . S
O96 C74 1.234 . S
O97 Mn72 2.209 . S
O97 Mn73 2.215 . S
O97 C74 1.283 . S
O98 Mn72 2.094 . S
O98 C76 1.240 . S
O99 Mn73 2.117 . S
O99 C76 1.264 . S
C100 C93 1.403 . S
C100 C101 1.399 . S
C100 H106 0.929 . S
C101 C81 1.449 . S
C101 C100 1.399 . S
C101 H107 0.930 . S
H102 C82 0.931 . S
H103 C83 0.930 . S
H104 C91 0.931 . S
H105 C92 0.929 . S
H106 C100 0.929 . S
H107 C101 0.930 . S
Mn108 O113 2.095 . S
Mn108 O123 2.162 . S
Mn108 O124 2.297 . S
Mn108 O132 2.385 . S
Mn108 O133 2.209 . S
Mn108 O134 2.094 . S
Mn109 O114 2.121 . S
Mn109 N116 2.257 . S
Mn109 N125 2.282 . S
Mn109 O133 2.215 . S
Mn109 O135 2.117 . S
C110 O132 1.234 . S
C110 O133 1.283 . S
C111 O123 1.281 . S
C111 O124 1.236 . S
C112 O134 1.240 . S
C112 O135 1.264 . S
O113 Mn108 2.095 . S
O113 C122 1.250 . S
O114 Mn109 2.121 . S
O114 C122 1.258 . S
C115 N116 1.326 . S
C115 C119 1.460 . S
C115 H121 0.929 . S
N116 Mn109 2.257 . S
N116 C115 1.326 . S
N116 C120 1.362 . S
C117 C118 1.258 . S
C117 C120 1.431 . S
C117 C137 1.449 . S
C118 C117 1.258 . S
C118 C119 1.477 . S
C118 H138 0.931 . S
C119 C115 1.460 . S
C119 C118 1.477 . S
C119 H139 0.930 . S
C120 N116 1.362 . S
C120 C117 1.431 . S
C120 C130 1.476 . S
H121 C115 0.929 . S
C122 O113 1.250 . S
C122 O114 1.258 . S
O123 Mn108 2.162 . S
O123 C111 1.281 . S
O124 Mn108 2.297 . S
O124 C111 1.236 . S
N125 Mn109 2.282 . S
N125 C126 1.328 . S
N125 C130 1.318 . S
C126 N125 1.328 . S
C126 C127 1.457 . S
C126 H131 0.929 . S
C127 C126 1.457 . S
C127 C128 1.291 . S
C127 H140 0.931 . S
C128 C127 1.291 . S
C128 C129 1.373 . S
C128 H141 0.929 . S
C129 C128 1.373 . S
C129 C130 1.396 . S
C129 C136 1.403 . S
C130 C120 1.476 . S
C130 N125 1.318 . S
C130 C129 1.396 . S
H131 C126 0.929 . S
O132 Mn108 2.385 . S
O132 C110 1.234 . S
O133 Mn108 2.209 . S
O133 Mn109 2.215 . S
O133 C110 1.283 . S
O134 Mn108 2.094 . S
O134 C112 1.240 . S
O135 Mn109 2.117 . S
O135 C112 1.264 . S
C136 C129 1.403 . S
C136 C137 1.399 . S
C136 H142 0.929 . S
C137 C117 1.449 . S
C137 C136 1.399 . S
C137 H143 0.930 . S
H138 C118 0.931 . S
H139 C119 0.930 . S
H140 C127 0.931 . S
H141 C128 0.929 . S
H142 C136 0.929 . S
H143 C137 0.930 . S
Mn144 O149 2.095 . S
Mn144 O159 2.162 . S
Mn144 O160 2.297 . S
Mn144 O168 2.385 1_554 S
Mn144 O169 2.209 1_554 S
Mn144 O170 2.094 . S
Mn145 O150 2.121 . S
Mn145 N152 2.257 1_554 S
Mn145 N161 2.282 1_554 S
Mn145 O169 2.215 1_554 S
Mn145 O171 2.117 . S
C146 O168 1.234 . S
C146 O169 1.283 . S
C147 O159 1.281 . S
C147 O160 1.236 . S
C148 O170 1.240 . S
C148 O171 1.264 . S
O149 Mn144 2.095 . S
O149 C158 1.250 . S
O150 Mn145 2.121 . S
O150 C158 1.258 . S
C151 N152 1.326 1_544 S
C151 C155 1.460 . S
C151 H157 0.929 . S
N152 Mn145 2.257 1_556 S
N152 C151 1.326 1_566 S
N152 C156 1.362 . S
C153 C154 1.258 . S
C153 C156 1.431 1_545 S
C153 C173 1.449 . S
C154 C153 1.258 . S
C154 C155 1.477 1_556 S
C154 H174 0.931 . S
C155 C151 1.460 . S
C155 C154 1.477 1_554 S
C155 H175 0.930 . S
C156 N152 1.362 . S
C156 C153 1.431 1_565 S
C156 C166 1.476 . S
H157 C151 0.929 . S
C158 O149 1.250 . S
C158 O150 1.258 . S
O159 Mn144 2.162 . S
O159 C147 1.281 . S
O160 Mn144 2.297 . S
O160 C147 1.236 . S
N161 Mn145 2.282 1_556 S
N161 C162 1.328 . S
N161 C166 1.318 . S
C162 N161 1.328 . S
C162 C163 1.457 . S
C162 H167 0.929 . S
C163 C162 1.457 . S
C163 C164 1.291 . S
C163 H176 0.931 . S
C164 C163 1.291 . S
C164 C165 1.373 . S
C164 H177 0.929 . S
C165 C164 1.373 . S
C165 C166 1.396 . S
C165 C172 1.403 1_565 S
C166 C156 1.476 . S
C166 N161 1.318 . S
C166 C165 1.396 . S
H167 C162 0.929 . S
O168 Mn144 2.385 1_556 S
O168 C146 1.234 . S
O169 Mn144 2.209 1_556 S
O169 Mn145 2.215 1_556 S
O169 C146 1.283 . S
O170 Mn144 2.094 . S
O170 C148 1.240 . S
O171 Mn145 2.117 . S
O171 C148 1.264 . S
C172 C165 1.403 1_545 S
C172 C173 1.399 . S
C172 H178 0.929 . S
C173 C153 1.449 . S
C173 C172 1.399 . S
C173 H179 0.930 . S
H174 C154 0.931 . S
H175 C155 0.930 . S
H176 C163 0.931 . S
H177 C164 0.929 . S
H178 C172 0.929 . S
H179 C173 0.930 . S
Mn180 O185 2.095 . S
Mn180 O195 2.162 . S
Mn180 O196 2.297 . S
Mn180 O204 2.385 1_554 S
Mn180 O205 2.209 1_554 S
Mn180 O206 2.094 . S
Mn181 O186 2.121 . S
Mn181 N188 2.257 1_554 S
Mn181 N197 2.282 1_554 S
Mn181 O205 2.215 1_554 S
Mn181 O207 2.117 . S
C182 O204 1.234 . S
C182 O205 1.283 . S
C183 O195 1.281 . S
C183 O196 1.236 . S
C184 O206 1.240 . S
C184 O207 1.264 . S
O185 Mn180 2.095 . S
O185 C194 1.250 . S
O186 Mn181 2.121 . S
O186 C194 1.258 . S
C187 N188 1.326 1_564 S
C187 C191 1.460 . S
C187 H193 0.929 . S
N188 Mn181 2.257 1_556 S
N188 C187 1.326 1_546 S
N188 C192 1.362 . S
C189 C190 1.258 . S
C189 C192 1.431 1_565 S
C189 C209 1.449 . S
C190 C189 1.258 . S
C190 C191 1.477 1_556 S
C190 H210 0.931 . S
C191 C187 1.460 . S
C191 C190 1.477 1_554 S
C191 H211 0.930 . S
C192 N188 1.362 . S
C192 C189 1.431 1_545 S
C192 C202 1.476 . S
H193 C187 0.929 . S
C194 O185 1.250 . S
C194 O186 1.258 . S
O195 Mn180 2.162 . S
O195 C183 1.281 . S
O196 Mn180 2.297 . S
O196 C183 1.236 . S
N197 Mn181 2.282 1_556 S
N197 C198 1.328 . S
N197 C202 1.318 . S
C198 N197 1.328 . S
C198 C199 1.457 . S
C198 H203 0.929 . S
C199 C198 1.457 . S
C199 C200 1.291 . S
C199 H212 0.931 . S
C200 C199 1.291 . S
C200 C201 1.373 . S
C200 H213 0.929 . S
C201 C200 1.373 . S
C201 C202 1.396 . S
C201 C208 1.403 1_545 S
C202 C192 1.476 . S
C202 N197 1.318 . S
C202 C201 1.396 . S
H203 C198 0.929 . S
O204 Mn180 2.385 1_556 S
O204 C182 1.234 . S
O205 Mn180 2.209 1_556 S
O205 Mn181 2.215 1_556 S
O205 C182 1.283 . S
O206 Mn180 2.094 . S
O206 C184 1.240 . S
O207 Mn181 2.117 . S
O207 C184 1.264 . S
C208 C201 1.403 1_565 S
C208 C209 1.399 . S
C208 H214 0.929 . S
C209 C189 1.449 . S
C209 C208 1.399 . S
C209 H215 0.930 . S
H210 C190 0.931 . S
H211 C191 0.930 . S
H212 C199 0.931 . S
H213 C200 0.929 . S
H214 C208 0.929 . S
H215 C209 0.930 . S
Mn216 O221 2.095 . S
Mn216 O231 2.162 . S
Mn216 O232 2.297 . S
Mn216 O240 2.385 . S
Mn216 O241 2.209 . S
Mn216 O242 2.094 . S
Mn217 O222 2.121 . S
Mn217 N224 2.257 . S
Mn217 N233 2.282 . S
Mn217 O241 2.215 . S
Mn217 O243 2.117 . S
C218 O240 1.234 . S
C218 O241 1.283 . S
C219 O231 1.281 . S
C219 O232 1.236 . S
C220 O242 1.240 . S
C220 O243 1.264 . S
O221 Mn216 2.095 . S
O221 C230 1.250 . S
O222 Mn217 2.121 . S
O222 C230 1.258 . S
C223 N224 1.326 1_565 S
C223 C227 1.460 . S
C223 H229 0.929 . S
N224 Mn217 2.257 . S
N224 C223 1.326 1_545 S
N224 C228 1.362 . S
C225 C226 1.258 . S
C225 C228 1.431 1_565 S
C225 C245 1.449 . S
C226 C225 1.258 . S
C226 C227 1.477 . S
C226 H246 0.931 . S
C227 C223 1.460 . S
C227 C226 1.477 . S
C227 H247 0.930 . S
C228 N224 1.362 . S
C228 C225 1.431 1_545 S
C228 C238 1.476 . S
H229 C223 0.929 . S
C230 O221 1.250 . S
C230 O222 1.258 . S
O231 Mn216 2.162 . S
O231 C219 1.281 . S
O232 Mn216 2.297 . S
O232 C219 1.236 . S
N233 Mn217 2.282 . S
N233 C234 1.328 . S
N233 C238 1.318 . S
C234 N233 1.328 . S
C234 C235 1.457 . S
C234 H239 0.929 . S
C235 C234 1.457 . S
C235 C236 1.291 . S
C235 H248 0.931 . S
C236 C235 1.291 . S
C236 C237 1.373 . S
C236 H249 0.929 . S
C237 C236 1.373 . S
C237 C238 1.396 . S
C237 C244 1.403 1_545 S
C238 C228 1.476 . S
C238 N233 1.318 . S
C238 C237 1.396 . S
H239 C234 0.929 . S
O240 Mn216 2.385 . S
O240 C218 1.234 . S
O241 Mn216 2.209 . S
O241 Mn217 2.215 . S
O241 C218 1.283 . S
O242 Mn216 2.094 . S
O242 C220 1.240 . S
O243 Mn217 2.117 . S
O243 C220 1.264 . S
C244 C237 1.403 1_565 S
C244 C245 1.399 . S
C244 H250 0.929 . S
C245 C225 1.449 . S
C245 C244 1.399 . S
C245 H251 0.930 . S
H246 C226 0.931 . S
H247 C227 0.930 . S
H248 C235 0.931 . S
H249 C236 0.929 . S
H250 C244 0.929 . S
H251 C245 0.930 . S
Mn252 O257 2.095 . S
Mn252 O267 2.162 . S
Mn252 O268 2.297 . S
Mn252 O276 2.385 . S
Mn252 O277 2.209 . S
Mn252 O278 2.094 . S
Mn253 O258 2.121 . S
Mn253 N260 2.257 . S
Mn253 N269 2.282 . S
Mn253 O277 2.215 . S
Mn253 O279 2.117 . S
C254 O276 1.234 . S
C254 O277 1.283 . S
C255 O267 1.281 . S
C255 O268 1.236 . S
C256 O278 1.240 . S
C256 O279 1.264 . S
O257 Mn252 2.095 . S
O257 C266 1.250 . S
O258 Mn253 2.121 . S
O258 C266 1.258 . S
C259 N260 1.326 1_545 S
C259 C263 1.460 . S
C259 H265 0.929 . S
N260 Mn253 2.257 . S
N260 C259 1.326 1_565 S
N260 C264 1.362 . S
C261 C262 1.258 . S
C261 C264 1.431 1_545 S
C261 C281 1.449 . S
C262 C261 1.258 . S
C262 C263 1.477 . S
C262 H282 0.931 . S
C263 C259 1.460 . S
C263 C262 1.477 . S
C263 H283 0.930 . S
C264 N260 1.362 . S
C264 C261 1.431 1_565 S
C264 C274 1.476 . S
H265 C259 0.929 . S
C266 O257 1.250 . S
C266 O258 1.258 . S
O267 Mn252 2.162 . S
O267 C255 1.281 . S
O268 Mn252 2.297 . S
O268 C255 1.236 . S
N269 Mn253 2.282 . S
N269 C270 1.328 . S
N269 C274 1.318 . S
C270 N269 1.328 . S
C270 C271 1.457 . S
C270 H275 0.929 . S
C271 C270 1.457 . S
C271 C272 1.291 . S
C271 H284 0.931 . S
C272 C271 1.291 . S
C272 C273 1.373 . S
C272 H285 0.929 . S
C273 C272 1.373 . S
C273 C274 1.396 . S
C273 C280 1.403 1_565 S
C274 C264 1.476 . S
C274 N269 1.318 . S
C274 C273 1.396 . S
H275 C270 0.929 . S
O276 Mn252 2.385 . S
O276 C254 1.234 . S
O277 Mn252 2.209 . S
O277 Mn253 2.215 . S
O277 C254 1.283 . S
O278 Mn252 2.094 . S
O278 C256 1.240 . S
O279 Mn253 2.117 . S
O279 C256 1.264 . S
C280 C273 1.403 1_545 S
C280 C281 1.399 . S
C280 H286 0.929 . S
C281 C261 1.449 . S
C281 C280 1.399 . S
C281 H287 0.930 . S
H282 C262 0.931 . S
H283 C263 0.930 . S
H284 C271 0.931 . S
H285 C272 0.929 . S
H286 C280 0.929 . S
H287 C281 0.930 . S
H288 C296 0.929 1_556 S
H289 C298 0.930 1_556 S
H290 C300 0.930 . S
H291 C303 0.929 . S
H292 C306 0.930 . S
H293 C308 0.960 . S
H294 C308 0.960 . S
H295 C308 0.960 . S
C296 H288 0.929 1_554 S
C296 C297 1.377 . S
C296 C298 1.384 . S
C297 C296 1.377 . S
C297 C303 1.390 . S
C298 H289 0.930 1_554 S
C298 C296 1.384 . S
C298 C299 1.372 . S
C299 C298 1.372 . S
C299 C300 1.400 . S
C299 C304 1.490 . S
C300 H290 0.930 . S
C300 C299 1.400 . S
C300 C303 1.386 . S
H301 C317 0.930 . S
H302 C318 0.931 . S
C303 H291 0.929 . S
C303 C297 1.390 . S
C303 C300 1.386 . S
C304 C299 1.490 . S
C304 C306 1.395 1_554 S
C304 C307 1.403 . S
H305 C311 0.930 . S
C306 H292 0.930 . S
C306 C304 1.395 1_556 S
C306 C309 1.403 . S
C307 C304 1.403 . S
C307 C308 1.524 . S
C307 C311 1.400 . S
C308 H293 0.960 . S
C308 H294 0.960 . S
C308 H295 0.960 . S
C308 C307 1.524 . S
C309 C306 1.403 . S
C309 C310 1.392 1_556 S
C309 C313 1.495 . S
C310 C309 1.392 1_554 S
C310 C311 1.385 . S
C310 C312 1.478 . S
C311 H305 0.930 . S
C311 C307 1.400 . S
C311 C310 1.385 . S
C312 C310 1.478 . S
C312 C314 1.381 1_554 S
C312 C318 1.383 . S
C313 C309 1.495 . S
C313 H319 0.959 . S
C313 H320 0.961 . S
C313 H321 0.960 . S
C314 C312 1.381 1_556 S
C314 C315 1.393 1_556 S
C314 H322 0.930 . S
C315 C314 1.393 1_554 S
C315 C316 1.389 . S
C315 H323 0.926 1_554 S
C316 C315 1.389 . S
C316 C317 1.377 . S
C317 H301 0.930 . S
C317 C316 1.377 . S
C317 C318 1.379 . S
C318 H302 0.931 . S
C318 C312 1.383 . S
C318 C317 1.379 . S
H319 C313 0.959 . S
H320 C313 0.961 . S
H321 C313 0.960 . S
H322 C314 0.930 . S
H323 C315 0.926 1_556 S
H324 C332 0.929 . S
H325 C334 0.930 . S
H326 C336 0.930 . S
H327 C339 0.929 . S
H328 C342 0.930 . S
H329 C344 0.960 . S
H330 C344 0.960 . S
H331 C344 0.960 . S
C332 H324 0.929 . S
C332 C333 1.377 1_556 S
C332 C334 1.384 . S
C333 C332 1.377 1_554 S
C333 C339 1.390 . S
C334 H325 0.930 . S
C334 C332 1.384 . S
C334 C335 1.372 1_556 S
C335 C334 1.372 1_554 S
C335 C336 1.400 . S
C335 C340 1.490 . S
C336 H326 0.930 . S
C336 C335 1.400 . S
C336 C339 1.386 . S
H337 C353 0.930 . S
H338 C354 0.931 . S
C339 H327 0.929 . S
C339 C333 1.390 . S
C339 C336 1.386 . S
C340 C335 1.490 . S
C340 C342 1.395 1_554 S
C340 C343 1.403 . S
H341 C347 0.930 . S
C342 H328 0.930 . S
C342 C340 1.395 1_556 S
C342 C345 1.403 . S
C343 C340 1.403 . S
C343 C344 1.524 . S
C343 C347 1.400 . S
C344 H329 0.960 . S
C344 H330 0.960 . S
C344 H331 0.960 . S
C344 C343 1.524 . S
C345 C342 1.403 . S
C345 C346 1.392 1_556 S
C345 C349 1.495 . S
C346 C345 1.392 1_554 S
C346 C347 1.385 . S
C346 C348 1.478 . S
C347 H341 0.930 . S
C347 C343 1.400 . S
C347 C346 1.385 . S
C348 C346 1.478 . S
C348 C350 1.381 1_554 S
C348 C354 1.383 . S
C349 C345 1.495 . S
C349 H355 0.959 . S
C349 H356 0.961 . S
C349 H357 0.960 . S
C350 C348 1.381 1_556 S
C350 C351 1.394 . S
C350 H358 0.930 . S
C351 C350 1.394 . S
C351 C352 1.383 1_556 S
C351 H359 0.929 . S
C352 C351 1.383 1_554 S
C352 C353 1.377 . S
C353 H337 0.930 . S
C353 C352 1.377 . S
C353 C354 1.379 . S
C354 H338 0.931 . S
C354 C348 1.383 . S
C354 C353 1.379 . S
H355 C349 0.959 . S
H356 C349 0.961 . S
H357 C349 0.960 . S
H358 C350 0.930 . S
H359 C351 0.929 . S
H360 C368 0.929 . S
H361 C370 0.930 . S
H362 C372 0.930 . S
H363 C375 0.929 . S
H364 C378 0.930 . S
H365 C380 0.960 . S
H366 C380 0.960 . S
H367 C380 0.960 . S
C368 H360 0.929 . S
C368 C369 1.377 . S
C368 C370 1.384 . S
C369 C368 1.377 . S
C369 C375 1.390 . S
C370 H361 0.930 . S
C370 C368 1.384 . S
C370 C371 1.372 . S
C371 C370 1.372 . S
C371 C372 1.400 . S
C371 C376 1.490 . S
C372 H362 0.930 . S
C372 C371 1.400 . S
C372 C375 1.386 . S
H373 C389 0.930 . S
H374 C390 0.931 . S
C375 H363 0.929 . S
C375 C369 1.390 . S
C375 C372 1.386 . S
C376 C371 1.490 . S
C376 C378 1.395 . S
C376 C379 1.403 . S
H377 C383 0.930 . S
C378 H364 0.930 . S
C378 C376 1.395 . S
C378 C381 1.403 . S
C379 C376 1.403 . S
C379 C380 1.524 . S
C379 C383 1.400 . S
C380 H365 0.960 . S
C380 H366 0.960 . S
C380 H367 0.960 . S
C380 C379 1.524 . S
C381 C378 1.403 . S
C381 C382 1.392 . S
C381 C385 1.495 . S
C382 C381 1.392 . S
C382 C383 1.385 . S
C382 C384 1.478 . S
C383 H377 0.930 . S
C383 C379 1.400 . S
C383 C382 1.385 . S
C384 C382 1.478 . S
C384 C386 1.381 . S
C384 C390 1.383 . S
C385 C381 1.495 . S
C385 H391 0.959 . S
C385 H392 0.961 . S
C385 H393 0.960 . S
C386 C384 1.381 . S
C386 C387 1.394 . S
C386 H394 0.930 . S
C387 C386 1.394 . S
C387 C388 1.383 . S
C387 H395 0.929 . S
C388 C387 1.383 . S
C388 C389 1.377 . S
C389 H373 0.930 . S
C389 C388 1.377 . S
C389 C390 1.379 . S
C390 H374 0.931 . S
C390 C384 1.383 . S
C390 C389 1.379 . S
H391 C385 0.959 . S
H392 C385 0.961 . S
H393 C385 0.960 . S
H394 C386 0.930 . S
H395 C387 0.929 . S
H396 C404 0.929 . S
H397 C406 0.930 . S
H398 C408 0.930 . S
H399 C411 0.929 . S
H400 C414 0.930 . S
H401 C416 0.960 . S
H402 C416 0.960 . S
H403 C416 0.960 . S
C404 H396 0.929 . S
C404 C405 1.377 . S
C404 C406 1.384 . S
C405 C404 1.377 . S
C405 C411 1.390 . S
C406 H397 0.930 . S
C406 C404 1.384 . S
C406 C407 1.372 . S
C407 C406 1.372 . S
C407 C408 1.400 . S
C407 C412 1.490 . S
C408 H398 0.930 . S
C408 C407 1.400 . S
C408 C411 1.386 . S
H409 C425 0.930 . S
H410 C426 0.931 . S
C411 H399 0.929 . S
C411 C405 1.390 . S
C411 C408 1.386 . S
C412 C407 1.490 . S
C412 C414 1.395 . S
C412 C415 1.403 . S
H413 C419 0.930 . S
C414 H400 0.930 . S
C414 C412 1.395 . S
C414 C417 1.403 . S
C415 C412 1.403 . S
C415 C416 1.524 . S
C415 C419 1.400 . S
C416 H401 0.960 . S
C416 H402 0.960 . S
C416 H403 0.960 . S
C416 C415 1.524 . S
C417 C414 1.403 . S
C417 C418 1.392 . S
C417 C421 1.495 . S
C418 C417 1.392 . S
C418 C419 1.385 . S
C418 C420 1.478 . S
C419 H413 0.930 . S
C419 C415 1.400 . S
C419 C418 1.385 . S
C420 C418 1.478 . S
C420 C422 1.381 . S
C420 C426 1.383 . S
C421 C417 1.495 . S
C421 H427 0.959 . S
C421 H428 0.961 . S
C421 H429 0.960 . S
C422 C420 1.381 . S
C422 C423 1.394 . S
C422 H430 0.930 . S
C423 C422 1.394 . S
C423 C424 1.383 . S
C423 H431 0.929 . S
C424 C423 1.383 . S
C424 C425 1.377 . S
C425 H409 0.930 . S
C425 C424 1.377 . S
C425 C426 1.379 . S
C426 H410 0.931 . S
C426 C420 1.383 . S
C426 C425 1.379 . S
H427 C421 0.959 . S
H428 C421 0.961 . S
H429 C421 0.960 . S
H430 C422 0.930 . S
H431 C423 0.929 . S
H432 C440 0.929 . S
H433 C442 0.930 . S
H434 C444 0.930 . S
H435 C447 0.929 . S
H436 C450 0.930 . S
H437 C452 0.960 . S
H438 C452 0.960 . S
H439 C452 0.960 . S
C440 H432 0.929 . S
C440 C441 1.377 . S
C440 C442 1.384 . S
C441 C440 1.377 . S
C441 C447 1.390 . S
C442 H433 0.930 . S
C442 C440 1.384 . S
C442 C443 1.372 . S
C443 C442 1.372 . S
C443 C444 1.400 . S
C443 C448 1.490 . S
C444 H434 0.930 . S
C444 C443 1.400 . S
C444 C447 1.386 . S
H445 C461 0.930 . S
H446 C462 0.931 . S
C447 H435 0.929 . S
C447 C441 1.390 . S
C447 C444 1.386 . S
C448 C443 1.490 . S
C448 C450 1.395 . S
C448 C451 1.403 . S
H449 C455 0.930 . S
C450 H436 0.930 . S
C450 C448 1.395 . S
C450 C453 1.403 . S
C451 C448 1.403 . S
C451 C452 1.524 . S
C451 C455 1.400 . S
C452 H437 0.960 . S
C452 H438 0.960 . S
C452 H439 0.960 . S
C452 C451 1.524 . S
C453 C450 1.403 . S
C453 C454 1.392 . S
C453 C457 1.495 . S
C454 C453 1.392 . S
C454 C455 1.385 . S
C454 C456 1.478 . S
C455 H449 0.930 . S
C455 C451 1.400 . S
C455 C454 1.385 . S
C456 C454 1.478 . S
C456 C458 1.381 . S
C456 C462 1.383 . S
C457 C453 1.495 . S
C457 H463 0.959 . S
C457 H464 0.961 . S
C457 H465 0.960 . S
C458 C456 1.381 . S
C458 C459 1.394 . S
C458 H466 0.930 . S
C459 C458 1.394 . S
C459 C460 1.383 . S
C459 H467 0.929 . S
C460 C459 1.383 . S
C460 C461 1.377 . S
C461 H445 0.930 . S
C461 C460 1.377 . S
C461 C462 1.379 . S
C462 H446 0.931 . S
C462 C456 1.383 . S
C462 C461 1.379 . S
H463 C457 0.959 . S
H464 C457 0.961 . S
H465 C457 0.960 . S
H466 C458 0.930 . S
H467 C459 0.929 . S
H468 C476 0.929 . S
H469 C478 0.930 . S
H470 C480 0.930 . S
H471 C483 0.929 . S
H472 C486 0.930 . S
H473 C488 0.960 . S
H474 C488 0.960 . S
H475 C488 0.960 . S
C476 H468 0.929 . S
C476 C477 1.377 . S
C476 C478 1.384 . S
C477 C476 1.377 . S
C477 C483 1.390 . S
C478 H469 0.930 . S
C478 C476 1.384 . S
C478 C479 1.372 . S
C479 C478 1.372 . S
C479 C480 1.400 . S
C479 C484 1.490 . S
C480 H470 0.930 . S
C480 C479 1.400 . S
C480 C483 1.386 . S
H481 C497 0.930 . S
H482 C498 0.931 . S
C483 H471 0.929 . S
C483 C477 1.390 . S
C483 C480 1.386 . S
C484 C479 1.490 . S
C484 C486 1.395 . S
C484 C487 1.403 . S
H485 C491 0.930 . S
C486 H472 0.930 . S
C486 C484 1.395 . S
C486 C489 1.403 . S
C487 C484 1.403 . S
C487 C488 1.524 . S
C487 C491 1.400 . S
C488 H473 0.960 . S
C488 H474 0.960 . S
C488 H475 0.960 . S
C488 C487 1.524 . S
C489 C486 1.403 . S
C489 C490 1.392 . S
C489 C493 1.495 . S
C490 C489 1.392 . S
C490 C491 1.385 . S
C490 C492 1.478 . S
C491 H485 0.930 . S
C491 C487 1.400 . S
C491 C490 1.385 . S
C492 C490 1.478 . S
C492 C494 1.381 . S
C492 C498 1.383 . S
C493 C489 1.495 . S
C493 H499 0.959 . S
C493 H500 0.961 . S
C493 H501 0.960 . S
C494 C492 1.381 . S
C494 C495 1.394 . S
C494 H502 0.930 . S
C495 C494 1.394 . S
C495 C496 1.383 . S
C495 H503 0.929 . S
C496 C495 1.383 . S
C496 C497 1.377 . S
C497 H481 0.930 . S
C497 C496 1.377 . S
C497 C498 1.379 . S
C498 H482 0.931 . S
C498 C492 1.383 . S
C498 C497 1.379 . S
H499 C493 0.959 . S
H500 C493 0.961 . S
H501 C493 0.960 . S
H502 C494 0.930 . S
H503 C495 0.929 . S
H504 C512 0.929 . S
H505 C514 0.930 . S
H506 C516 0.930 . S
H507 C519 0.929 . S
H508 C522 0.930 . S
H509 C524 0.960 . S
H510 C524 0.960 . S
H511 C524 0.960 . S
C512 H504 0.929 . S
C512 C513 1.377 . S
C512 C514 1.384 . S
C513 C512 1.377 . S
C513 C519 1.390 . S
C514 H505 0.930 . S
C514 C512 1.384 . S
C514 C515 1.372 . S
C515 C514 1.372 . S
C515 C516 1.400 . S
C515 C520 1.490 . S
C516 H506 0.930 . S
C516 C515 1.400 . S
C516 C519 1.386 . S
H517 C533 0.930 . S
H518 C534 0.931 . S
C519 H507 0.929 . S
C519 C513 1.390 . S
C519 C516 1.386 . S
C520 C515 1.490 . S
C520 C522 1.395 . S
C520 C523 1.403 . S
H521 C527 0.930 . S
C522 H508 0.930 . S
C522 C520 1.395 . S
C522 C525 1.403 . S
C523 C520 1.403 . S
C523 C524 1.524 . S
C523 C527 1.400 . S
C524 H509 0.960 . S
C524 H510 0.960 . S
C524 H511 0.960 . S
C524 C523 1.524 . S
C525 C522 1.403 . S
C525 C526 1.392 . S
C525 C529 1.495 . S
C526 C525 1.392 . S
C526 C527 1.385 . S
C526 C528 1.478 . S
C527 H521 0.930 . S
C527 C523 1.400 . S
C527 C526 1.385 . S
C528 C526 1.478 . S
C528 C530 1.381 . S
C528 C534 1.383 . S
C529 C525 1.495 . S
C529 H535 0.959 . S
C529 H536 0.961 . S
C529 H537 0.960 . S
C530 C528 1.381 . S
C530 C531 1.394 . S
C530 H538 0.930 . S
C531 C530 1.394 . S
C531 C532 1.383 . S
C531 H539 0.929 . S
C532 C531 1.383 . S
C532 C533 1.377 . S
C533 H517 0.930 . S
C533 C532 1.377 . S
C533 C534 1.379 . S
C534 H518 0.931 . S
C534 C528 1.383 . S
C534 C533 1.379 . S
H535 C529 0.959 . S
H536 C529 0.961 . S
H537 C529 0.960 . S
H538 C530 0.930 . S
H539 C531 0.929 . S
H540 C548 0.929 . S
H541 C550 0.930 . S
H542 C552 0.930 . S
H543 C555 0.929 . S
H544 C558 0.930 . S
H545 C560 0.960 . S
H546 C560 0.960 . S
H547 C560 0.960 . S
C548 H540 0.929 . S
C548 C549 1.377 . S
C548 C550 1.384 . S
C549 C548 1.377 . S
C549 C555 1.390 . S
C550 H541 0.930 . S
C550 C548 1.384 . S
C550 C551 1.372 . S
C551 C550 1.372 . S
C551 C552 1.400 . S
C551 C556 1.490 . S
C552 H542 0.930 . S
C552 C551 1.400 . S
C552 C555 1.386 . S
H553 C569 0.930 . S
H554 C570 0.931 . S
C555 H543 0.929 . S
C555 C549 1.390 . S
C555 C552 1.386 . S
C556 C551 1.490 . S
C556 C558 1.395 . S
C556 C559 1.403 . S
H557 C563 0.930 . S
C558 H544 0.930 . S
C558 C556 1.395 . S
C558 C561 1.403 . S
C559 C556 1.403 . S
C559 C560 1.524 . S
C559 C563 1.400 . S
C560 H545 0.960 . S
C560 H546 0.960 . S
C560 H547 0.960 . S
C560 C559 1.524 . S
C561 C558 1.403 . S
C561 C562 1.392 . S
C561 C565 1.495 . S
C562 C561 1.392 . S
C562 C563 1.385 . S
C562 C564 1.478 . S
C563 H557 0.930 . S
C563 C559 1.400 . S
C563 C562 1.385 . S
C564 C562 1.478 . S
C564 C566 1.381 . S
C564 C570 1.383 . S
C565 C561 1.495 . S
C565 H571 0.959 . S
C565 H572 0.961 . S
C565 H573 0.960 . S
C566 C564 1.381 . S
C566 C567 1.394 . S
C566 H574 0.930 . S
C567 C566 1.394 . S
C567 C568 1.383 . S
C567 H575 0.929 . S
C568 C567 1.383 . S
C568 C569 1.377 . S
C569 H553 0.930 . S
C569 C568 1.377 . S
C569 C570 1.379 . S
C570 H554 0.931 . S
C570 C564 1.383 . S
C570 C569 1.379 . S
H571 C565 0.959 . S
H572 C565 0.961 . S
H573 C565 0.960 . S
H574 C566 0.930 . S
H575 C567 0.929 . S
H576 C584 0.929 . S
H577 C586 0.930 . S
H578 C588 0.930 . S
H579 C591 0.929 . S
H580 C594 0.930 . S
H581 C596 0.960 . S
H582 C596 0.960 . S
H583 C596 0.960 . S
C584 H576 0.929 . S
C584 C585 1.377 . S
C584 C586 1.384 . S
C585 C584 1.377 . S
C585 C591 1.390 . S
C586 H577 0.930 . S
C586 C584 1.384 . S
C586 C587 1.372 . S
C587 C586 1.372 . S
C587 C588 1.400 . S
C587 C592 1.490 . S
C588 H578 0.930 . S
C588 C587 1.400 . S
C588 C591 1.386 . S
H589 C605 0.930 . S
H590 C606 0.931 . S
C591 H579 0.929 . S
C591 C585 1.390 . S
C591 C588 1.386 . S
C592 C587 1.490 . S
C592 C594 1.395 . S
C592 C595 1.403 1_565 S
H593 C599 0.930 . S
C594 H580 0.930 . S
C594 C592 1.395 . S
C594 C597 1.403 . S
C595 C592 1.403 1_545 S
C595 C596 1.524 . S
C595 C599 1.400 . S
C596 H581 0.960 . S
C596 H582 0.960 . S
C596 H583 0.960 . S
C596 C595 1.524 . S
C597 C594 1.403 . S
C597 C598 1.392 1_565 S
C597 C601 1.495 . S
C598 C597 1.392 1_545 S
C598 C599 1.385 . S
C598 C600 1.478 . S
C599 H593 0.930 . S
C599 C595 1.400 . S
C599 C598 1.385 . S
C600 C598 1.478 . S
C600 C602 1.381 . S
C600 C606 1.383 . S
C601 C597 1.495 . S
C601 H607 0.959 . S
C601 H608 0.961 . S
C601 H609 0.960 . S
C602 C600 1.381 . S
C602 C603 1.394 . S
C602 H610 0.930 . S
C603 C602 1.394 . S
C603 C604 1.383 . S
C603 H611 0.929 . S
C604 C603 1.383 . S
C604 C605 1.377 . S
C605 H589 0.930 . S
C605 C604 1.377 . S
C605 C606 1.379 . S
C606 H590 0.931 . S
C606 C600 1.383 . S
C606 C605 1.379 . S
H607 C601 0.959 . S
H608 C601 0.961 . S
H609 C601 0.960 . S
H610 C602 0.930 . S
H611 C603 0.929 . S
H612 C620 0.929 . S
H613 C622 0.930 1_545 S
H614 C624 0.930 . S
H615 C627 0.929 . S
H616 C630 0.930 . S
H617 C632 0.960 . S
H618 C632 0.960 . S
H619 C632 0.960 . S
C620 H612 0.929 . S
C620 C621 1.377 . S
C620 C622 1.384 . S
C621 C620 1.377 . S
C621 C627 1.390 . S
C622 H613 0.930 1_565 S
C622 C620 1.384 . S
C622 C623 1.372 . S
C623 C622 1.372 . S
C623 C624 1.400 . S
C623 C628 1.490 . S
C624 H614 0.930 . S
C624 C623 1.400 . S
C624 C627 1.386 . S
H625 C641 0.930 . S
H626 C642 0.931 1_565 S
C627 H615 0.929 . S
C627 C621 1.390 . S
C627 C624 1.386 . S
C628 C623 1.490 . S
C628 C630 1.395 1_565 S
C628 C631 1.403 . S
H629 C635 0.930 . S
C630 H616 0.930 . S
C630 C628 1.395 1_545 S
C630 C633 1.403 . S
C631 C628 1.403 . S
C631 C632 1.524 . S
C631 C635 1.400 1_565 S
C632 H617 0.960 . S
C632 H618 0.960 . S
C632 H619 0.960 . S
C632 C631 1.524 . S
C633 C630 1.403 . S
C633 C634 1.392 . S
C633 C637 1.495 . S
C634 C633 1.392 . S
C634 C635 1.385 . S
C634 C636 1.478 . S
C635 H629 0.930 . S
C635 C631 1.400 1_545 S
C635 C634 1.385 . S
C636 C634 1.478 . S
C636 C638 1.381 . S
C636 C642 1.383 . S
C637 C633 1.495 . S
C637 H643 0.959 . S
C637 H644 0.961 . S
C637 H645 0.960 . S
C638 C636 1.381 . S
C638 C639 1.394 . S
C638 H646 0.930 . S
C639 C638 1.394 . S
C639 C640 1.383 . S
C639 H647 0.929 . S
C640 C639 1.383 . S
C640 C641 1.377 . S
C641 H625 0.930 . S
C641 C640 1.377 . S
C641 C642 1.379 . S
C642 H626 0.931 1_545 S
C642 C636 1.383 . S
C642 C641 1.379 . S
H643 C637 0.959 . S
H644 C637 0.961 . S
H645 C637 0.960 . S
H646 C638 0.930 . S
H647 C639 0.929 . S
H648 C656 0.929 . S
H649 C658 0.930 . S
H650 C660 0.930 . S
H651 C663 0.929 . S
H652 C666 0.930 . S
H653 C668 0.960 . S
H654 C668 0.960 . S
H655 C668 0.960 . S
C656 H648 0.929 . S
C656 C657 1.377 . S
C656 C658 1.384 . S
C657 C656 1.377 . S
C657 C663 1.390 . S
C658 H649 0.930 . S
C658 C656 1.384 . S
C658 C659 1.372 . S
C659 C658 1.372 . S
C659 C660 1.400 . S
C659 C664 1.490 . S
C660 H650 0.930 . S
C660 C659 1.400 . S
C660 C663 1.386 . S
H661 C677 0.930 . S
H662 C678 0.931 . S
C663 H651 0.929 . S
C663 C657 1.390 . S
C663 C660 1.386 . S
C664 C659 1.490 . S
C664 C666 1.395 1_565 S
C664 C667 1.403 . S
H665 C671 0.930 . S
C666 H652 0.930 . S
C666 C664 1.395 1_545 S
C666 C669 1.403 . S
C667 C664 1.403 . S
C667 C668 1.524 . S
C667 C671 1.400 . S
C668 H653 0.960 . S
C668 H654 0.960 . S
C668 H655 0.960 . S
C668 C667 1.524 . S
C669 C666 1.403 . S
C669 C670 1.392 . S
C669 C673 1.495 . S
C670 C669 1.392 . S
C670 C671 1.385 1_545 S
C670 C672 1.478 . S
C671 H665 0.930 . S
C671 C667 1.400 . S
C671 C670 1.385 1_565 S
C672 C670 1.478 . S
C672 C674 1.381 . S
C672 C678 1.383 . S
C673 C669 1.495 . S
C673 H679 0.959 . S
C673 H680 0.961 . S
C673 H681 0.960 . S
C674 C672 1.381 . S
C674 C675 1.394 . S
C674 H682 0.930 . S
C675 C674 1.394 . S
C675 C676 1.383 . S
C675 H683 0.929 . S
C676 C675 1.383 . S
C676 C677 1.377 . S
C677 H661 0.930 . S
C677 C676 1.377 . S
C677 C678 1.379 . S
C678 H662 0.931 . S
C678 C672 1.383 . S
C678 C677 1.379 . S
H679 C673 0.959 . S
H680 C673 0.961 . S
H681 C673 0.960 . S
H682 C674 0.930 . S
H683 C675 0.929 . S
H684 C692 0.929 . S
H685 C694 0.930 . S
H686 C696 0.930 . S
H687 C699 0.929 . S
H688 C702 0.930 . S
H689 C704 0.960 . S
H690 C704 0.960 . S
H691 C704 0.960 . S
C692 H684 0.929 . S
C692 C693 1.377 . S
C692 C694 1.384 . S
C693 C692 1.377 . S
C693 C699 1.390 . S
C694 H685 0.930 . S
C694 C692 1.384 . S
C694 C695 1.372 . S
C695 C694 1.372 . S
C695 C696 1.400 . S
C695 C700 1.490 . S
C696 H686 0.930 . S
C696 C695 1.400 . S
C696 C699 1.386 . S
H697 C713 0.930 . S
H698 C714 0.931 . S
C699 H687 0.929 . S
C699 C693 1.390 . S
C699 C696 1.386 . S
C700 C695 1.490 . S
C700 C702 1.395 . S
C700 C703 1.403 1_565 S
H701 C707 0.930 . S
C702 H688 0.930 . S
C702 C700 1.395 . S
C702 C705 1.403 . S
C703 C700 1.403 1_545 S
C703 C704 1.524 . S
C703 C707 1.400 . S
C704 H689 0.960 . S
C704 H690 0.960 . S
C704 H691 0.960 . S
C704 C703 1.524 . S
C705 C702 1.403 . S
C705 C706 1.392 1_565 S
C705 C709 1.495 . S
C706 C705 1.392 1_545 S
C706 C707 1.385 . S
C706 C708 1.478 . S
C707 H701 0.930 . S
C707 C703 1.400 . S
C707 C706 1.385 . S
C708 C706 1.478 . S
C708 C710 1.381 . S
C708 C714 1.383 . S
C709 C705 1.495 . S
C709 H715 0.959 . S
C709 H716 0.961 . S
C709 H717 0.960 . S
C710 C708 1.381 . S
C710 C711 1.394 . S
C710 H718 0.930 . S
C711 C710 1.394 . S
C711 C712 1.383 . S
C711 H719 0.929 . S
C712 C711 1.383 . S
C712 C713 1.377 . S
C713 H697 0.930 . S
C713 C712 1.377 . S
C713 C714 1.379 . S
C714 H698 0.931 . S
C714 C708 1.383 . S
C714 C713 1.379 . S
H715 C709 0.959 . S
H716 C709 0.961 . S
H717 C709 0.960 . S
H718 C710 0.930 . S
H719 C711 0.929 . S
H720 C728 0.929 . S
H721 C730 0.930 . S
H722 C732 0.930 . S
H723 C735 0.929 . S
H724 C738 0.930 . S
H725 C740 0.960 . S
H726 C740 0.960 . S
H727 C740 0.960 . S
C728 H720 0.929 . S
C728 C729 1.377 1_556 S
C728 C730 1.384 . S
C729 C728 1.377 1_554 S
C729 C735 1.390 . S
C730 H721 0.930 . S
C730 C728 1.384 . S
C730 C731 1.372 1_556 S
C731 C730 1.372 1_554 S
C731 C732 1.400 . S
C731 C736 1.490 . S
C732 H722 0.930 . S
C732 C731 1.400 . S
C732 C735 1.386 . S
H733 C749 0.930 . S
H734 C750 0.931 . S
C735 H723 0.929 . S
C735 C729 1.390 . S
C735 C732 1.386 . S
C736 C731 1.490 . S
C736 C738 1.395 1_564 S
C736 C739 1.403 . S
H737 C743 0.930 . S
C738 H724 0.930 . S
C738 C736 1.395 1_546 S
C738 C741 1.403 . S
C739 C736 1.403 . S
C739 C740 1.524 . S
C739 C743 1.400 . S
C740 H725 0.960 . S
C740 H726 0.960 . S
C740 H727 0.960 . S
C740 C739 1.524 . S
C741 C738 1.403 . S
C741 C742 1.392 1_556 S
C741 C745 1.495 . S
C742 C741 1.392 1_554 S
C742 C743 1.385 1_545 S
C742 C744 1.478 . S
C743 H737 0.930 . S
C743 C739 1.400 . S
C743 C742 1.385 1_565 S
C744 C742 1.478 . S
C744 C746 1.381 1_554 S
C744 C750 1.383 . S
C745 C741 1.495 . S
C745 H751 0.959 . S
C745 H752 0.961 . S
C745 H753 0.960 . S
C746 C744 1.381 1_556 S
C746 C747 1.394 . S
C746 H754 0.930 . S
C747 C746 1.394 . S
C747 C748 1.383 1_556 S
C747 H755 0.929 . S
C748 C747 1.383 1_554 S
C748 C749 1.377 . S
C749 H733 0.930 . S
C749 C748 1.377 . S
C749 C750 1.379 . S
C750 H734 0.931 . S
C750 C744 1.383 . S
C750 C749 1.379 . S
H751 C745 0.959 . S
H752 C745 0.961 . S
H753 C745 0.960 . S
H754 C746 0.930 . S
H755 C747 0.929 . S
H756 C764 0.929 . S
H757 C766 0.930 . S
H758 C768 0.930 . S
H759 C771 0.929 . S
H760 C774 0.930 . S
H761 C776 0.960 . S
H762 C776 0.960 . S
H763 C776 0.960 . S
C764 H756 0.929 . S
C764 C765 1.377 . S
C764 C766 1.384 . S
C765 C764 1.377 . S
C765 C771 1.390 . S
C766 H757 0.930 . S
C766 C764 1.384 . S
C766 C767 1.372 . S
C767 C766 1.372 . S
C767 C768 1.400 . S
C767 C772 1.490 . S
C768 H758 0.930 . S
C768 C767 1.400 . S
C768 C771 1.386 . S
H769 C785 0.930 . S
H770 C786 0.931 . S
C771 H759 0.929 . S
C771 C765 1.390 . S
C771 C768 1.386 . S
C772 C767 1.490 . S
C772 C774 1.395 1_565 S
C772 C775 1.403 . S
H773 C779 0.930 . S
C774 H760 0.930 . S
C774 C772 1.395 1_545 S
C774 C777 1.403 . S
C775 C772 1.403 . S
C775 C776 1.524 . S
C775 C779 1.400 . S
C776 H761 0.960 . S
C776 H762 0.960 . S
C776 H763 0.960 . S
C776 C775 1.524 . S
C777 C774 1.403 . S
C777 C778 1.392 . S
C777 C781 1.495 . S
C778 C777 1.392 . S
C778 C779 1.385 1_545 S
C778 C780 1.478 . S
C779 H773 0.930 . S
C779 C775 1.400 . S
C779 C778 1.385 1_565 S
C780 C778 1.478 . S
C780 C782 1.381 . S
C780 C786 1.383 . S
C781 C777 1.495 . S
C781 H787 0.959 . S
C781 H788 0.961 . S
C781 H789 0.960 . S
C782 C780 1.381 . S
C782 C783 1.394 . S
C782 H790 0.930 . S
C783 C782 1.394 . S
C783 C784 1.383 . S
C783 H791 0.929 . S
C784 C783 1.383 . S
C784 C785 1.377 . S
C785 H769 0.930 . S
C785 C784 1.377 . S
C785 C786 1.379 . S
C786 H770 0.931 . S
C786 C780 1.383 . S
C786 C785 1.379 . S
H787 C781 0.959 . S
H788 C781 0.961 . S
H789 C781 0.960 . S
H790 C782 0.930 . S
H791 C783 0.929 . S
H792 C800 0.929 . S
H793 C802 0.930 . S
H794 C804 0.930 . S
H795 C807 0.929 . S
H796 C810 0.930 . S
H797 C812 0.960 . S
H798 C812 0.960 . S
H799 C812 0.960 . S
C800 H792 0.929 . S
C800 C801 1.377 . S
C800 C802 1.384 . S
C801 C800 1.377 . S
C801 C807 1.390 1_554 S
C802 H793 0.930 . S
C802 C800 1.384 . S
C802 C803 1.372 . S
C803 C802 1.372 . S
C803 C804 1.400 1_554 S
C803 C808 1.490 . S
C804 H794 0.930 . S
C804 C803 1.400 1_556 S
C804 C807 1.386 . S
H805 C821 0.930 . S
H806 C822 0.931 . S
C807 H795 0.929 . S
C807 C801 1.390 1_556 S
C807 C804 1.386 . S
C808 C803 1.490 . S
C808 C810 1.350 1_455 S
C808 C811 1.403 1_554 S
H809 C815 0.930 . S
C810 H796 0.930 . S
C810 C808 1.350 1_655 S
C810 C813 1.450 . S
C811 C808 1.403 1_556 S
C811 C812 1.524 . S
C811 C815 1.400 1_455 S
C812 H797 0.960 . S
C812 H798 0.960 . S
C812 H799 0.960 . S
C812 C811 1.524 . S
C813 C810 1.450 . S
C813 C814 1.392 . S
C813 C817 1.495 . S
C814 C813 1.392 . S
C814 C815 1.385 1_554 S
C814 C816 1.478 . S
C815 H809 0.930 . S
C815 C811 1.400 1_655 S
C815 C814 1.385 1_556 S
C816 C814 1.478 . S
C816 C818 1.381 . S
C816 C822 1.383 1_554 S
C817 C813 1.495 . S
C817 H823 0.959 . S
C817 H824 0.961 . S
C817 H825 0.960 . S
C818 C816 1.381 . S
C818 C819 1.394 . S
C818 H826 0.930 . S
C819 C818 1.394 . S
C819 C820 1.383 . S
C819 H827 0.929 . S
C820 C819 1.383 . S
C820 C821 1.377 1_554 S
C821 H805 0.930 . S
C821 C820 1.377 1_556 S
C821 C822 1.379 . S
C822 H806 0.931 . S
C822 C816 1.383 1_556 S
C822 C821 1.379 . S
H823 C817 0.959 . S
H824 C817 0.961 . S
H825 C817 0.960 . S
H826 C818 0.930 . S
H827 C819 0.929 . S
H828 C836 0.929 . S
H829 C838 0.930 . S
H830 C840 0.930 . S
H831 C843 0.929 . S
H832 C846 0.930 . S
H833 C848 0.960 1_655 S
H834 C848 0.960 . S
H835 C848 0.960 . S
C836 H828 0.929 . S
C836 C837 1.377 . S
C836 C838 1.384 . S
C837 C836 1.377 . S
C837 C843 1.390 . S
C838 H829 0.930 . S
C838 C836 1.384 . S
C838 C839 1.372 . S
C839 C838 1.372 . S
C839 C840 1.400 . S
C839 C844 1.490 . S
C840 H830 0.930 . S
C840 C839 1.400 . S
C840 C843 1.386 . S
H841 C857 0.930 . S
H842 C858 0.931 . S
C843 H831 0.929 . S
C843 C837 1.390 . S
C843 C840 1.386 . S
C844 C839 1.490 . S
C844 C846 1.395 . S
C844 C847 1.403 . S
H845 C851 0.930 . S
C846 H832 0.930 . S
C846 C844 1.395 . S
C846 C849 1.403 1_455 S
C847 C844 1.403 . S
C847 C848 1.524 . S
C847 C851 1.400 1_455 S
C848 H833 0.960 1_455 S
C848 H834 0.960 . S
C848 H835 0.960 . S
C848 C847 1.524 . S
C849 C846 1.403 1_655 S
C849 C850 1.392 . S
C849 C853 1.495 . S
C850 C849 1.392 . S
C850 C851 1.385 . S
C850 C852 1.478 . S
C851 H845 0.930 . S
C851 C847 1.400 1_655 S
C851 C850 1.385 . S
C852 C850 1.478 . S
C852 C854 1.381 . S
C852 C858 1.383 . S
C853 C849 1.495 . S
C853 H859 0.959 1_655 S
C853 H860 0.961 . S
C853 H861 0.960 . S
C854 C852 1.381 . S
C854 C855 1.394 . S
C854 H862 0.930 . S
C855 C854 1.394 . S
C855 C856 1.383 . S
C855 H863 0.929 . S
C856 C855 1.383 . S
C856 C857 1.377 . S
C857 H841 0.930 . S
C857 C856 1.377 . S
C857 C858 1.379 . S
C858 H842 0.931 . S
C858 C852 1.383 . S
C858 C857 1.379 . S
H859 C853 0.959 1_455 S
H860 C853 0.961 . S
H861 C853 0.960 . S
H862 C854 0.930 . S
H863 C855 0.929 . S
C297 C183 1.504 . S
C316 C3 1.505 . S
C333 C147 1.504 . S
C352 C39 1.505 . S
C369 C255 1.505 . S
C388 C75 1.500 . S
C405 C219 1.503 . S
C424 C111 1.501 . S
C441 C14 1.330 . S
C460 C86 1.349 . S
C477 C50 1.327 . S
C496 C122 1.339 . S
C513 C38 1.310 . S
C532 C110 1.328 . S
C549 C2 1.312 . S
C568 C74 1.327 . S
C585 C158 1.329 . S
C604 C230 1.321 . S
C621 C266 1.334 . S
C640 C194 1.310 . S
C657 C254 1.311 . S
C676 C182 1.297 . S
C693 C146 1.316 . S
C712 C218 1.316 . S
C729 C40 1.498 . S
C748 C4 1.490 . S
C765 C76 1.499 . S
C784 C112 1.491 . S
C801 C148 1.501 . S
C820 C184 1.503 . S
C837 C220 1.500 . S
C856 C256 1.498 . S
