# Generated by pormake.
# Topology fcg, (5)-cn, num edge types: 1
# Building blocks:
#     Node 0, Type 0, BuildingBlock: XOMCOT_clean_sbu_0, # of connection points: 5
#     Node 1, Type 0, BuildingBlock: XOMCOT_clean_sbu_0, # of connection points: 5
#     Node 2, Type 0, BuildingBlock: XOMCOT_clean_sbu_0, # of connection points: 5
#     Node 3, Type 0, BuildingBlock: XOMCOT_clean_sbu_0, # of connection points: 5
#     Node 4, Type 0, BuildingBlock: XOMCOT_clean_sbu_0, # of connection points: 5
#     Node 5, Type 0, BuildingBlock: XOMCOT_clean_sbu_0, # of connection points: 5
#     Node 6, Type 0, BuildingBlock: XOMCOT_clean_sbu_0, # of connection points: 5
#     Node 7, Type 0, BuildingBlock: XOMCOT_clean_sbu_0, # of connection points: 5
#     Node 8, Type 0, BuildingBlock: XOMCOT_clean_sbu_0, # of connection points: 5
#     Node 9, Type 0, BuildingBlock: XOMCOT_clean_sbu_0, # of connection points: 5
#     Node 10, Type 0, BuildingBlock: XOMCOT_clean_sbu_0, # of connection points: 5
#     Node 11, Type 0, BuildingBlock: XOMCOT_clean_sbu_0, # of connection points: 5
#     Node 12, Type 0, BuildingBlock: XOMCOT_clean_sbu_0, # of connection points: 5
#     Node 13, Type 0, BuildingBlock: XOMCOT_clean_sbu_0, # of connection points: 5
#     Node 14, Type 0, BuildingBlock: XOMCOT_clean_sbu_0, # of connection points: 5
#     Node 15, Type 0, BuildingBlock: XOMCOT_clean_sbu_0, # of connection points: 5
#     Node 16, Type 0, BuildingBlock: XOMCOT_clean_sbu_0, # of connection points: 5
#     Node 17, Type 0, BuildingBlock: XOMCOT_clean_sbu_0, # of connection points: 5
#     Node 18, Type 0, BuildingBlock: XOMCOT_clean_sbu_0, # of connection points: 5
#     Node 19, Type 0, BuildingBlock: XOMCOT_clean_sbu_0, # of connection points: 5
#     Node 20, Type 0, BuildingBlock: XOMCOT_clean_sbu_0, # of connection points: 5
#     Node 21, Type 0, BuildingBlock: XOMCOT_clean_sbu_0, # of connection points: 5
#     Node 22, Type 0, BuildingBlock: XOMCOT_clean_sbu_0, # of connection points: 5
#     Node 23, Type 0, BuildingBlock: XOMCOT_clean_sbu_0, # of connection points: 5
#     Node 24, Type 0, BuildingBlock: XOMCOT_clean_sbu_0, # of connection points: 5
#     Node 25, Type 0, BuildingBlock: XOMCOT_clean_sbu_0, # of connection points: 5
#     Node 26, Type 0, BuildingBlock: XOMCOT_clean_sbu_0, # of connection points: 5
#     Node 27, Type 0, BuildingBlock: XOMCOT_clean_sbu_0, # of connection points: 5
#     Node 28, Type 0, BuildingBlock: XOMCOT_clean_sbu_0, # of connection points: 5
#     Node 29, Type 0, BuildingBlock: XOMCOT_clean_sbu_0, # of connection points: 5
#     Node 30, Type 0, BuildingBlock: XOMCOT_clean_sbu_0, # of connection points: 5
#     Node 31, Type 0, BuildingBlock: XOMCOT_clean_sbu_0, # of connection points: 5
#     Node 32, Type 0, BuildingBlock: XOMCOT_clean_sbu_0, # of connection points: 5
#     Node 33, Type 0, BuildingBlock: XOMCOT_clean_sbu_0, # of connection points: 5
#     Node 34, Type 0, BuildingBlock: XOMCOT_clean_sbu_0, # of connection points: 5
#     Node 35, Type 0, BuildingBlock: XOMCOT_clean_sbu_0, # of connection points: 5
#     Node 36, Type 0, BuildingBlock: XOMCOT_clean_sbu_0, # of connection points: 5
#     Node 37, Type 0, BuildingBlock: XOMCOT_clean_sbu_0, # of connection points: 5
#     Node 38, Type 0, BuildingBlock: XOMCOT_clean_sbu_0, # of connection points: 5
#     Node 39, Type 0, BuildingBlock: XOMCOT_clean_sbu_0, # of connection points: 5
#     Node 40, Type 0, BuildingBlock: XOMCOT_clean_sbu_0, # of connection points: 5
#     Node 41, Type 0, BuildingBlock: XOMCOT_clean_sbu_0, # of connection points: 5
#     Node 42, Type 0, BuildingBlock: XOMCOT_clean_sbu_0, # of connection points: 5
#     Node 43, Type 0, BuildingBlock: XOMCOT_clean_sbu_0, # of connection points: 5
#     Node 44, Type 0, BuildingBlock: XOMCOT_clean_sbu_0, # of connection points: 5
#     Node 45, Type 0, BuildingBlock: XOMCOT_clean_sbu_0, # of connection points: 5
#     Node 46, Type 0, BuildingBlock: XOMCOT_clean_sbu_0, # of connection points: 5
#     Node 47, Type 0, BuildingBlock: XOMCOT_clean_sbu_0, # of connection points: 5
#     Edge 48, Type (0, 0), None
#     Edge 49, Type (0, 0), None
#     Edge 50, Type (0, 0), None
#     Edge 51, Type (0, 0), None
#     Edge 52, Type (0, 0), None
#     Edge 53, Type (0, 0), None
#     Edge 54, Type (0, 0), None
#     Edge 55, Type (0, 0), None
#     Edge 56, Type (0, 0), None
#     Edge 57, Type (0, 0), None
#     Edge 58, Type (0, 0), None
#     Edge 59, Type (0, 0), None
#     Edge 60, Type (0, 0), None
#     Edge 61, Type (0, 0), None
#     Edge 62, Type (0, 0), None
#     Edge 63, Type (0, 0), None
#     Edge 64, Type (0, 0), None
#     Edge 65, Type (0, 0), None
#     Edge 66, Type (0, 0), None
#     Edge 67, Type (0, 0), None
#     Edge 68, Type (0, 0), None
#     Edge 69, Type (0, 0), None
#     Edge 70, Type (0, 0), None
#     Edge 71, Type (0, 0), None
#     Edge 72, Type (0, 0), None
#     Edge 73, Type (0, 0), None
#     Edge 74, Type (0, 0), None
#     Edge 75, Type (0, 0), None
#     Edge 76, Type (0, 0), None
#     Edge 77, Type (0, 0), None
#     Edge 78, Type (0, 0), None
#     Edge 79, Type (0, 0), None
#     Edge 80, Type (0, 0), None
#     Edge 81, Type (0, 0), None
#     Edge 82, Type (0, 0), None
#     Edge 83, Type (0, 0), None
#     Edge 84, Type (0, 0), None
#     Edge 85, Type (0, 0), None
#     Edge 86, Type (0, 0), None
#     Edge 87, Type (0, 0), None
#     Edge 88, Type (0, 0), None
#     Edge 89, Type (0, 0), None
#     Edge 90, Type (0, 0), None
#     Edge 91, Type (0, 0), None
#     Edge 92, Type (0, 0), None
#     Edge 93, Type (0, 0), None
#     Edge 94, Type (0, 0), None
#     Edge 95, Type (0, 0), None
#     Edge 96, Type (0, 0), None
#     Edge 97, Type (0, 0), None
#     Edge 98, Type (0, 0), None
#     Edge 99, Type (0, 0), None
#     Edge 100, Type (0, 0), None
#     Edge 101, Type (0, 0), None
#     Edge 102, Type (0, 0), None
#     Edge 103, Type (0, 0), None
#     Edge 104, Type (0, 0), None
#     Edge 105, Type (0, 0), None
#     Edge 106, Type (0, 0), None
#     Edge 107, Type (0, 0), None
#     Edge 108, Type (0, 0), None
#     Edge 109, Type (0, 0), None
#     Edge 110, Type (0, 0), None
#     Edge 111, Type (0, 0), None
#     Edge 112, Type (0, 0), None
#     Edge 113, Type (0, 0), None
#     Edge 114, Type (0, 0), None
#     Edge 115, Type (0, 0), None
#     Edge 116, Type (0, 0), None
#     Edge 117, Type (0, 0), None
#     Edge 118, Type (0, 0), None
#     Edge 119, Type (0, 0), None
#     Edge 120, Type (0, 0), None
#     Edge 121, Type (0, 0), None
#     Edge 122, Type (0, 0), None
#     Edge 123, Type (0, 0), None
#     Edge 124, Type (0, 0), None
#     Edge 125, Type (0, 0), None
#     Edge 126, Type (0, 0), None
#     Edge 127, Type (0, 0), None
#     Edge 128, Type (0, 0), None
#     Edge 129, Type (0, 0), None
#     Edge 130, Type (0, 0), None
#     Edge 131, Type (0, 0), None
#     Edge 132, Type (0, 0), None
#     Edge 133, Type (0, 0), None
#     Edge 134, Type (0, 0), None
#     Edge 135, Type (0, 0), None
#     Edge 136, Type (0, 0), None
#     Edge 137, Type (0, 0), None
#     Edge 138, Type (0, 0), None
#     Edge 139, Type (0, 0), None
#     Edge 140, Type (0, 0), None
#     Edge 141, Type (0, 0), None
#     Edge 142, Type (0, 0), None
#     Edge 143, Type (0, 0), None
#     Edge 144, Type (0, 0), None
#     Edge 145, Type (0, 0), None
#     Edge 146, Type (0, 0), None
#     Edge 147, Type (0, 0), None
#     Edge 148, Type (0, 0), None
#     Edge 149, Type (0, 0), None
#     Edge 150, Type (0, 0), None
#     Edge 151, Type (0, 0), None
#     Edge 152, Type (0, 0), None
#     Edge 153, Type (0, 0), None
#     Edge 154, Type (0, 0), None
#     Edge 155, Type (0, 0), None
#     Edge 156, Type (0, 0), None
#     Edge 157, Type (0, 0), None
#     Edge 158, Type (0, 0), None
#     Edge 159, Type (0, 0), None
#     Edge 160, Type (0, 0), None
#     Edge 161, Type (0, 0), None
#     Edge 162, Type (0, 0), None
#     Edge 163, Type (0, 0), None
#     Edge 164, Type (0, 0), None
#     Edge 165, Type (0, 0), None
#     Edge 166, Type (0, 0), None
#     Edge 167, Type (0, 0), None
# Relax obj value: 0.414
# Max RMSD: 0.295
# Mean RMSD: 0.267
data_MOF--net-fcg--node1-XOMCOT_clean_sbu_0--edge1-none
_symmetry_space_group_name_H-M    P1
_symmetry_Int_Tables_number       1
_symmetry_cell_setting            triclinic
loop_
_symmetry_equiv_pos_as_xyz
'x, y, z'
_cell_length_a     33.662763
_cell_length_b     32.394364
_cell_length_c     33.466474
_cell_angle_alpha  87.776542
_cell_angle_beta   86.94017
_cell_angle_gamma 87.62262
loop_
_atom_site_label
_atom_site_type_symbol
_atom_site_fract_x
_atom_site_fract_y
_atom_site_fract_z
_atom_type_partial_charge
Co0 Co 0.08583 0.28379 0.14283 0.0
C1 C 0.09754 0.227 0.21306 0.0
C2 C 0.04561 0.21452 0.18207 0.0
C3 C 0.05451 0.18064 0.20669 0.0
N4 N 0.07248 0.24378 0.18589 0.0
N5 N 0.08752 0.18828 0.22565 0.0
H6 H 0.1251 0.24073 0.21974 0.0
H7 H 0.02376 0.21579 0.15949 0.0
C8 C 0.99824 0.30643 0.16594 0.0
O9 O 1.00505 0.29277 0.20253 0.0
N10 N 0.09941 0.32124 0.09688 0.0
C11 C 0.12738 0.35028 0.09396 0.0
C12 C 0.14546 0.35072 0.05626 0.0
C13 C 0.09746 0.30902 0.05873 0.0
N14 N 0.1268 0.32442 0.03442 0.0
C15 C 0.13971 0.33125 0.18105 0.0
C16 C 0.09201 0.37304 0.23624 0.0
C17 C 0.13357 0.37643 0.23612 0.0
C18 C 0.15636 0.35804 0.2054 0.0
C19 C 0.07541 0.34874 0.20733 0.0
N20 N 0.09951 0.32606 0.18108 0.0
H21 H 0.16054 0.31758 0.15961 0.0
H22 H 0.04374 0.3491 0.20687 0.0
H23 H 0.13572 0.3696 0.11722 0.0
H24 H 0.07905 0.28453 0.05024 0.0
O25 O 0.13862 0.25908 0.14069 0.0
O26 O 0.09238 0.23679 0.10482 0.0
O27 O 0.0265 0.3038 0.13837 0.0
C28 C 0.12978 0.23481 0.11386 0.0
H29 H 0.03962 0.15158 0.20822 0.0
H30 H 0.17079 0.3685 0.04584 0.0
H31 H 0.0727 0.38817 0.25858 0.0
H32 H 0.1881 0.36232 0.20118 0.0
Co33 Co 0.72218 0.12478 0.15115 0.0
C34 C 0.78369 0.13085 0.21183 0.0
C35 C 0.79612 0.08154 0.17165 0.0
C36 C 0.82887 0.08494 0.19407 0.0
N37 N 0.76777 0.11017 0.18277 0.0
N38 N 0.82094 0.11588 0.2192 0.0
H39 H 0.76929 0.15766 0.22557 0.0
H40 H 0.79413 0.06129 0.14696 0.0
C41 C 0.67643 0.04882 0.14901 0.0
O42 O 0.71265 0.06172 0.14715 0.0
N43 N 0.67873 0.13677 0.11561 0.0
C44 C 0.64901 0.16601 0.11212 0.0
C45 C 0.63588 0.16616 0.07395 0.0
C46 C 0.68208 0.11959 0.07966 0.0
N47 N 0.65797 0.13797 0.05306 0.0
C48 C 0.66314 0.16092 0.20279 0.0
C49 C 0.66367 0.10168 0.26393 0.0
C50 C 0.63823 0.13689 0.26706 0.0
C51 C 0.63454 0.16375 0.23365 0.0
C52 C 0.68706 0.09628 0.22843 0.0
N53 N 0.68687 0.12643 0.19861 0.0
H54 H 0.6689 0.18814 0.1845 0.0
H55 H 0.70763 0.06983 0.22633 0.0
H56 H 0.6393 0.18921 0.13283 0.0
H57 H 0.70648 0.09823 0.07156 0.0
O58 O 0.7367 0.18165 0.14874 0.0
O59 O 0.75965 0.13522 0.10544 0.0
O60 O 0.71171 0.06316 0.14729 0.0
C61 C 0.75951 0.17308 0.1175 0.0
H62 H 0.85676 0.06715 0.19116 0.0
H63 H 0.61534 0.18906 0.06128 0.0
H64 H 0.66826 0.08103 0.28965 0.0
H65 H 0.61682 0.19242 0.23587 0.0
Co66 Co 0.89384 0.74867 0.16058 0.0
C67 C 0.86909 0.73353 0.07889 0.0
C68 C 0.87479 0.67568 0.11143 0.0
C69 C 0.87248 0.66854 0.0708 0.0
N70 N 0.87321 0.71686 0.11685 0.0
N71 N 0.87016 0.7052 0.05038 0.0
H72 H 0.86861 0.76602 0.07078 0.0
H73 H 0.88101 0.65238 0.13439 0.0
C74 C 0.88557 0.67083 0.22029 0.0
O75 O 0.91187 0.64567 0.20252 0.0
N76 N 0.91647 0.78523 0.1981 0.0
C77 C 0.94939 0.80634 0.18653 0.0
C78 C 0.94922 0.84301 0.20596 0.0
C79 C 0.89716 0.80955 0.22556 0.0
N80 N 0.91647 0.84498 0.23045 0.0
C81 C 0.96089 0.71189 0.11539 0.0
C82 C 1.00127 0.6873 0.18279 0.0
C83 C 0.01814 0.67793 0.14499 0.0
C84 C 0.99637 0.68854 0.11113 0.0
C85 C 0.96528 0.70944 0.18578 0.0
N86 N 0.94553 0.72152 0.15247 0.0
H87 H 0.94631 0.72276 0.08886 0.0
H88 H 0.9533 0.71731 0.21523 0.0
H89 H 0.96984 0.79818 0.1618 0.0
H90 H 0.86755 0.80377 0.23825 0.0
O91 O 0.89503 0.79641 0.12345 0.0
O92 O 0.84491 0.77791 0.16579 0.0
O93 O 0.87793 0.70735 0.20556 0.0
C94 C 0.8584 0.80298 0.13801 0.0
H95 H 0.87546 0.63871 0.05718 0.0
H96 H 0.97049 0.8671 0.2012 0.0
H97 H 0.01708 0.68078 0.20977 0.0
H98 H 0.00872 0.68234 0.08132 0.0
Co99 Co 0.27698 0.92666 0.1215 0.0
C100 C 0.21528 0.92049 0.18913 0.0
C101 C 0.208 0.97523 0.15244 0.0
C102 C 0.17365 0.97096 0.17664 0.0
N103 N 0.23445 0.94377 0.16036 0.0
N104 N 0.17842 0.93644 0.19958 0.0
H105 H 0.22635 0.89067 0.20005 0.0
H106 H 0.2119 0.99756 0.12784 0.0
C107 C 0.29971 1.00975 0.14377 0.0
O108 O 0.29302 0.99586 0.18086 0.0
N109 N 0.31629 0.90952 0.08015 0.0
C110 C 0.33757 0.87341 0.08319 0.0
C111 C 0.34197 0.85641 0.04613 0.0
C112 C 0.31029 0.91505 0.04041 0.0
N113 N 0.3242 0.88218 0.01934 0.0
C114 C 0.30736 0.87847 0.18659 0.0
C115 C 0.37128 0.92415 0.20368 0.0
C116 C 0.35934 0.89191 0.23043 0.0
C117 C 0.32955 0.8668 0.21884 0.0
C118 C 0.34972 0.93289 0.16891 0.0
N119 N 0.31519 0.91308 0.1634 0.0
H120 H 0.28335 0.85901 0.18126 0.0
H121 H 0.35978 0.9568 0.14784 0.0
H122 H 0.34369 0.85702 0.11105 0.0
H123 H 0.28983 0.93858 0.02862 0.0
O124 O 0.25669 0.87303 0.12169 0.0
O125 O 0.2346 0.92461 0.08286 0.0
O126 O 0.29364 0.98647 0.11464 0.0
C127 C 0.23215 0.88605 0.09561 0.0
H128 H 0.14666 0.99025 0.17581 0.0
H129 H 0.35383 0.82553 0.04017 0.0
H130 H 0.39578 0.94305 0.21007 0.0
H131 H 0.32135 0.83927 0.2363 0.0
Co132 Co 0.10486 0.76142 0.89857 0.0
C133 C 0.10362 0.81771 0.82721 0.0
C134 C 0.05891 0.83521 0.87156 0.0
C135 C 0.06306 0.86786 0.84382 0.0
N136 N 0.0845 0.80368 0.86114 0.0
N137 N 0.09173 0.85667 0.81642 0.0
H138 H 0.12862 0.80179 0.81257 0.0
H139 H 0.04145 0.83612 0.89962 0.0
C140 C 0.02167 0.73753 0.89116 0.0
O141 O 0.03025 0.73997 0.85237 0.0
N142 N 0.12612 0.72133 0.93638 0.0
C143 C 0.16347 0.70474 0.93078 0.0
C144 C 0.18225 0.70507 0.96609 0.0
C145 C 0.12144 0.72734 0.97589 0.0
N146 N 0.15592 0.7201 0.99394 0.0
C147 C 0.14422 0.72257 0.83298 0.0
C148 C 0.1012 0.6519 0.8329 0.0
C149 C 0.13302 0.65778 0.80501 0.0
C150 C 0.15666 0.69161 0.808 0.0
C151 C 0.0928 0.68198 0.86164 0.0
N152 N 0.1115 0.719 0.85863 0.0
H153 H 0.16285 0.74859 0.83206 0.0
H154 H 0.07115 0.67545 0.88573 0.0
H155 H 0.17872 0.70034 0.90197 0.0
H156 H 0.09647 0.74523 0.989 0.0
O157 O 0.15663 0.78225 0.88926 0.0
O158 O 0.114 0.80557 0.93613 0.0
O159 O 0.04805 0.74613 0.91552 0.0
C160 C 0.14956 0.80636 0.91843 0.0
H161 H 0.04848 0.89822 0.84543 0.0
H162 H 0.21368 0.69873 0.97002 0.0
H163 H 0.08314 0.62508 0.83225 0.0
H164 H 0.18253 0.69631 0.78779 0.0
Co165 Co 0.27799 0.11834 0.87177 0.0
C166 C 0.2235 0.12988 0.80532 0.0
C167 C 0.21592 0.07212 0.8372 0.0
C168 C 0.18463 0.0788 0.81224 0.0
N169 N 0.24049 0.10411 0.8327 0.0
N170 N 0.18959 0.11534 0.79258 0.0
H171 H 0.23291 0.1607 0.79785 0.0
H172 H 0.21862 0.04757 0.8598 0.0
C173 C 0.3071 0.03299 0.84645 0.0
O174 O 0.30262 0.0474 0.80962 0.0
N175 N 0.31266 0.13302 0.91357 0.0
C176 C 0.33453 0.16704 0.91077 0.0
C177 C 0.33619 0.18295 0.94818 0.0
C178 C 0.30284 0.1279 0.95355 0.0
N179 N 0.31541 0.15901 0.97505 0.0
C180 C 0.30951 0.1701 0.80722 0.0
C181 C 0.37556 0.1231 0.78269 0.0
C182 C 0.36396 0.15781 0.75864 0.0
C183 C 0.33129 0.182 0.77257 0.0
C184 C 0.35282 0.11252 0.81825 0.0
N185 N 0.31797 0.13398 0.82833 0.0
H186 H 0.28523 0.19073 0.81619 0.0
H187 H 0.36303 0.08672 0.8369 0.0
H188 H 0.34378 0.18284 0.88302 0.0
H189 H 0.28186 0.10564 0.96566 0.0
O190 O 0.25283 0.17251 0.87501 0.0
O191 O 0.23291 0.11925 0.91252 0.0
O192 O 0.2985 0.05708 0.87585 0.0
C193 C 0.22864 0.15865 0.9028 0.0
H194 H 0.15901 0.05993 0.81081 0.0
H195 H 0.34879 0.2121 0.95444 0.0
H196 H 0.40197 0.10453 0.77436 0.0
H197 H 0.32188 0.21011 0.75653 0.0
Co198 Co 0.90551 0.30256 0.88758 0.0
C199 C 0.91318 0.2443 0.81879 0.0
C200 C 0.95703 0.23416 0.8624 0.0
C201 C 0.95959 0.20107 0.83788 0.0
N202 N 0.92842 0.26187 0.85041 0.0
N203 N 0.93205 0.2073 0.81062 0.0
H204 H 0.88698 0.25655 0.80428 0.0
H205 H 0.97298 0.23636 0.88941 0.0
C206 C 0.99132 0.32277 0.87207 0.0
O207 O 0.98774 0.31052 0.83547 0.0
N208 N 0.88378 0.33857 0.9304 0.0
C209 C 0.85079 0.36388 0.9307 0.0
C210 C 0.83401 0.36534 0.96905 0.0
C211 C 0.88779 0.32774 0.96992 0.0
N212 N 0.85694 0.34228 0.99377 0.0
C213 C 0.85712 0.35217 0.83597 0.0
C214 C 0.91312 0.38474 0.78238 0.0
C215 C 0.87338 0.38449 0.77177 0.0
C216 C 0.84519 0.37246 0.80144 0.0
C217 C 0.92358 0.36739 0.82014 0.0
N218 N 0.89638 0.34634 0.84455 0.0
H219 H 0.83327 0.34018 0.85491 0.0
H220 H 0.95301 0.37232 0.82884 0.0
H221 H 0.83753 0.37876 0.9052 0.0
H222 H 0.90946 0.30457 0.98006 0.0
O223 O 0.85491 0.28055 0.88217 0.0
O224 O 0.89598 0.25479 0.92616 0.0
O225 O 0.96187 0.32027 0.89821 0.0
C226 C 0.86131 0.25399 0.91023 0.0
H227 H 0.97835 0.17334 0.84137 0.0
H228 H 0.80586 0.38071 0.97776 0.0
H229 H 0.93586 0.39709 0.76171 0.0
H230 H 0.81358 0.37508 0.79658 0.0
Co231 Co 0.73834 0.93932 0.86678 0.0
C232 C 0.81059 0.92584 0.81171 0.0
C233 C 0.81055 0.98137 0.84384 0.0
C234 C 0.84868 0.97373 0.8278 0.0
N235 N 0.78643 0.95126 0.83399 0.0
N236 N 0.8483 0.9389 0.80752 0.0
H237 H 0.80241 0.89641 0.80156 0.0
H238 H 0.80189 1.00541 0.86448 0.0
C239 C 0.71818 1.02364 0.83175 0.0
O240 O 0.72659 1.00787 0.79655 0.0
N241 N 0.69318 0.93054 0.90305 0.0
C242 C 0.67219 0.89611 0.90771 0.0
C243 C 0.66017 0.89139 0.94761 0.0
C244 C 0.69218 0.94701 0.93942 0.0
N245 N 0.67422 0.92266 0.96777 0.0
C246 C 0.71712 0.89317 0.80254 0.0
C247 C 0.6434 0.93016 0.78891 0.0
C248 C 0.65576 0.89451 0.76831 0.0
C249 C 0.69239 0.87532 0.77738 0.0
C250 C 0.6686 0.94582 0.81673 0.0
N251 N 0.70597 0.92828 0.82187 0.0
H252 H 0.74404 0.87602 0.80867 0.0
H253 H 0.65757 0.97121 0.83476 0.0
H254 H 0.67127 0.87283 0.8855 0.0
H255 H 0.71153 0.9714 0.94626 0.0
O256 O 0.75672 0.88243 0.87529 0.0
O257 O 0.77271 0.93235 0.91328 0.0
O258 O 0.72261 1.00094 0.86388 0.0
C259 C 0.77533 0.89298 0.90546 0.0
H260 H 0.87451 0.99188 0.83118 0.0
H261 H 0.64747 0.86385 0.96146 0.0
H262 H 0.61476 0.9454 0.78398 0.0
H263 H 0.7024 0.84597 0.76514 0.0
Co264 Co 0.14667 0.11542 0.28712 0.0
C265 C 0.20251 0.1237 0.21496 0.0
C266 C 0.16763 0.07011 0.21577 0.0
C267 C 0.18504 0.07558 0.17779 0.0
N268 N 0.1785 0.10028 0.23932 0.0
N269 N 0.20714 0.10902 0.17766 0.0
H270 H 0.21362 0.15288 0.22261 0.0
H271 H 0.14515 0.04813 0.22441 0.0
C272 C 0.17221 0.02769 0.30912 0.0
O273 O 0.20916 0.03936 0.30449 0.0
N274 N 0.1131 0.12853 0.33281 0.0
C275 C 0.1113 0.16359 0.35314 0.0
C276 C 0.07287 0.16947 0.36864 0.0
C277 C 0.07708 0.1128 0.33754 0.0
N278 N 0.05099 0.13833 0.35703 0.0
C279 C 0.21349 0.15781 0.30848 0.0
C280 C 0.22183 0.1214 0.3839 0.0
C281 C 0.24442 0.15552 0.37207 0.0
C282 C 0.23916 0.17404 0.33415 0.0
C283 C 0.1951 0.10662 0.35725 0.0
N284 N 0.19218 0.12397 0.31931 0.0
H285 H 0.20861 0.17504 0.28111 0.0
H286 H 0.17557 0.08247 0.36787 0.0
H287 H 0.13419 0.18615 0.35169 0.0
H288 H 0.06846 0.088 0.31943 0.0
O289 O 0.14005 0.1721 0.26612 0.0
O290 O 0.10054 0.12201 0.25361 0.0
O291 O 0.1435 0.05421 0.30357 0.0
C292 C 0.10914 0.16086 0.2486 0.0
H293 H 0.17972 0.05834 0.15175 0.0
H294 H 0.06081 0.19762 0.38179 0.0
H295 H 0.22467 0.10651 0.41319 0.0
H296 H 0.25504 0.20134 0.32418 0.0
Co297 Co 0.88478 0.15632 0.29108 0.0
C298 C 0.86515 0.07339 0.32027 0.0
C299 C 0.87583 0.10998 0.36993 0.0
C300 C 0.88123 0.06836 0.38111 0.0
N301 N 0.8669 0.11352 0.33096 0.0
N302 N 0.87662 0.04574 0.34889 0.0
H303 H 0.85992 0.06371 0.29063 0.0
H304 H 0.88362 0.13535 0.38752 0.0
C305 C 0.88204 0.22358 0.35927 0.0
O306 O 0.91061 0.2076 0.38092 0.0
N307 N 0.90561 0.19255 0.24818 0.0
C308 C 0.93761 0.18093 0.22409 0.0
C309 C 0.93474 0.1995 0.18655 0.0
C310 C 0.88409 0.21843 0.2249 0.0
N311 N 0.90084 0.22258 0.1873 0.0
C312 C 0.95491 0.1109 0.31758 0.0
C313 C 0.9943 0.18103 0.33409 0.0
C314 C 0.01042 0.14226 0.34597 0.0
C315 C 0.99019 0.10682 0.3375 0.0
C316 C 0.95857 0.18366 0.31529 0.0
N317 N 0.9383 0.14908 0.30915 0.0
H318 H 0.94091 0.08343 0.30932 0.0
H319 H 0.94664 0.21388 0.3063 0.0
H320 H 0.95927 0.15669 0.23168 0.0
H321 H 0.85471 0.23067 0.23409 0.0
O322 O 0.88243 0.1162 0.24907 0.0
O323 O 0.83316 0.15927 0.2692 0.0
O324 O 0.87153 0.20548 0.32794 0.0
C325 C 0.84568 0.13049 0.24557 0.0
H326 H 0.89238 0.05627 0.40916 0.0
H327 H 0.95464 0.19485 0.1605 0.0
H328 H 0.00981 0.20914 0.33763 0.0
H329 H 1.00255 0.07619 0.34456 0.0
Co330 Co 0.88293 0.92703 0.29762 0.0
C331 C 0.8143 0.92529 0.24296 0.0
C332 C 0.85036 0.97791 0.23301 0.0
C333 C 0.8263 0.9762 0.20124 0.0
N334 N 0.84323 0.94603 0.25941 0.0
N335 N 0.80362 0.94328 0.20742 0.0
H336 H 0.80383 0.8959 0.25486 0.0
H337 H 0.87442 0.99879 0.23443 0.0
C338 C 0.88734 1.00476 0.34439 0.0
O339 O 0.89232 0.99015 0.30868 0.0
N340 N 0.92884 0.91017 0.33097 0.0
C341 C 0.93329 0.8796 0.35935 0.0
C342 C 0.97244 0.86544 0.35897 0.0
C343 C 0.96723 0.91592 0.31645 0.0
N344 N 0.99411 0.88817 0.33206 0.0
C345 C 0.83808 0.88686 0.36096 0.0
C346 C 0.77453 0.94312 0.36556 0.0
C347 C 0.77119 0.90419 0.38515 0.0
C348 C 0.80511 0.87789 0.38578 0.0
C349 C 0.81057 0.95293 0.34441 0.0
N350 N 0.84171 0.92427 0.34137 0.0
H351 H 0.85746 0.86106 0.353 0.0
H352 H 0.81151 0.98154 0.32672 0.0
H353 H 0.9106 0.86625 0.37879 0.0
H354 H 0.97442 0.93589 0.29061 0.0
O355 O 0.8774 0.87083 0.28239 0.0
O356 O 0.91886 0.91359 0.25098 0.0
O357 O 0.89189 0.98869 0.30938 0.0
C358 C 0.90422 0.87664 0.25427 0.0
H359 H 0.82714 0.99608 0.17452 0.0
H360 H 0.98386 0.83892 0.37614 0.0
H361 H 0.74864 0.96388 0.36317 0.0
H362 H 0.80337 0.84687 0.39904 0.0
Co363 Co 0.11353 0.88896 0.2784 0.0
C364 C 0.10591 0.82363 0.22122 0.0
C365 C 0.05788 0.8684 0.21792 0.0
C366 C 0.05732 0.84371 0.185 0.0
N367 N 0.08868 0.85576 0.24043 0.0
N368 N 0.08809 0.81611 0.18723 0.0
H369 H 0.13381 0.80897 0.22904 0.0
H370 H 0.03952 0.8961 0.2229 0.0
C371 C 0.03063 0.87577 0.31535 0.0
O372 O 0.03837 0.83611 0.31066 0.0
N373 N 0.13778 0.92515 0.31426 0.0
C374 C 0.17556 0.91934 0.32552 0.0
C375 C 0.19233 0.95725 0.32774 0.0
C376 C 0.13162 0.96687 0.31184 0.0
N377 N 0.16494 0.9871 0.31828 0.0
C378 C 0.16023 0.81556 0.29955 0.0
C379 C 0.12173 0.79022 0.37 0.0
C380 C 0.15386 0.76533 0.3543 0.0
C381 C 0.17356 0.77949 0.31931 0.0
C382 C 0.11013 0.82792 0.34971 0.0
N383 N 0.12753 0.83901 0.31303 0.0
H384 H 0.17736 0.82355 0.27269 0.0
H385 H 0.08728 0.8477 0.36367 0.0
H386 H 0.19189 0.8899 0.32594 0.0
H387 H 0.10569 0.98172 0.29879 0.0
O388 O 0.163 0.88632 0.24685 0.0
O389 O 0.11654 0.93439 0.23653 0.0
O390 O 0.05777 0.90166 0.30528 0.0
C391 C 0.15221 0.91902 0.22702 0.0
H392 H 0.03831 0.84812 0.15997 0.0
H393 H 0.22337 0.9622 0.33228 0.0
H394 H 0.10639 0.78121 0.39805 0.0
H395 H 0.19892 0.76206 0.30632 0.0
Co396 Co 0.14421 0.91539 0.73671 0.0
C397 C 0.06738 0.9024 0.70694 0.0
C398 C 0.10994 0.86029 0.67938 0.0
C399 C 0.07184 0.84658 0.67481 0.0
N400 N 0.10707 0.89564 0.69966 0.0
N401 N 0.04544 0.8727 0.69346 0.0
H402 H 0.05469 0.92611 0.72621 0.0
H403 H 0.13751 0.84297 0.67275 0.0
C404 C 0.20713 0.90551 0.66612 0.0
O405 O 0.18757 0.93045 0.64156 0.0
N406 N 0.17663 0.93566 0.77722 0.0
C407 C 0.16509 0.96781 0.80039 0.0
C408 C 0.18651 0.96594 0.83446 0.0
C409 C 0.20491 0.91477 0.79733 0.0
N410 N 0.21135 0.93256 0.83227 0.0
C411 C 0.11415 0.98857 0.69087 0.0
C412 C 0.18746 1.02458 0.68473 0.0
C413 C 0.15543 0.04465 0.66629 0.0
C414 C 0.11879 0.02529 0.66825 0.0
C415 C 0.18185 0.98762 0.70617 0.0
N416 N 0.14548 0.96994 0.70971 0.0
H417 H 0.08511 0.9763 0.69331 0.0
H418 H 0.20751 0.97279 0.71949 0.0
H419 H 0.14025 0.98904 0.79455 0.0
H420 H 0.21812 0.88533 0.78814 0.0
O421 O 0.09997 0.9185 0.77798 0.0
O422 O 0.14 0.86398 0.76613 0.0
O423 O 0.19298 0.89736 0.70197 0.0
C424 C 0.11015 0.8799 0.78681 0.0
H425 H 0.06463 0.81749 0.66261 0.0
H426 H 0.18253 0.98588 0.85967 0.0
H427 H 0.21616 0.03838 0.68488 0.0
H428 H 0.09308 0.04016 0.65481 0.0
Co429 Co 0.12268 0.17614 0.72982 0.0
C430 C 0.11446 0.22451 0.80313 0.0
C431 C 0.06609 0.18486 0.79898 0.0
C432 C 0.06345 0.20101 0.83679 0.0
N433 N 0.0981 0.20002 0.77777 0.0
N434 N 0.09387 0.2261 0.83867 0.0
H435 H 0.14296 0.23794 0.79787 0.0
H436 H 0.04755 0.16132 0.78878 0.0
C437 C 0.0413 0.19742 0.70357 0.0
O438 O 0.04785 0.23648 0.70885 0.0
N439 N 0.14443 0.1495 0.68321 0.0
C440 C 0.18234 0.14828 0.66833 0.0
C441 C 0.18987 0.11035 0.65149 0.0
C442 C 0.12911 0.11408 0.67355 0.0
N443 N 0.15662 0.08818 0.65657 0.0
C444 C 0.1566 0.25485 0.71645 0.0
C445 C 0.12859 0.27391 0.64177 0.0
C446 C 0.15404 0.30105 0.65843 0.0
C447 C 0.16806 0.29086 0.69619 0.0
C448 C 0.11802 0.23754 0.66331 0.0
N449 N 0.13012 0.2295 0.70142 0.0
H450 H 0.17207 0.24614 0.74274 0.0
H451 H 0.10081 0.21546 0.64898 0.0
H452 H 0.20439 0.17005 0.67492 0.0
H453 H 0.10126 0.10387 0.68745 0.0
O454 O 0.17375 0.17242 0.75291 0.0
O455 O 0.12922 0.12398 0.76097 0.0
O456 O 0.06783 0.16941 0.71087 0.0
C457 C 0.1642 0.13682 0.76852 0.0
H458 H 0.04219 0.19386 0.86119 0.0
H459 H 0.21913 0.09781 0.64239 0.0
H460 H 0.11828 0.27981 0.61191 0.0
H461 H 0.18906 0.30984 0.70974 0.0
Co462 Co 0.90512 0.13552 0.73583 0.0
C463 C 0.83326 0.13183 0.78954 0.0
C464 C 0.87785 0.08677 0.80685 0.0
C465 C 0.84869 0.08851 0.83733 0.0
N466 N 0.86764 0.11302 0.77625 0.0
N467 N 0.82135 0.11765 0.82667 0.0
H468 H 0.8193 0.15804 0.77391 0.0
H469 H 0.9061 0.06972 0.80814 0.0
C470 C 0.90655 0.04262 0.72061 0.0
O471 O 0.87398 0.03841 0.7435 0.0
N472 N 0.94575 0.15858 0.69787 0.0
C473 C 0.94402 0.19328 0.67373 0.0
C474 C 0.98018 0.21121 0.6712 0.0
C475 C 0.98474 0.15418 0.70586 0.0
N476 N 1.00551 0.18679 0.69173 0.0
C477 C 0.85494 0.18191 0.68566 0.0
C478 C 0.80842 0.12133 0.66047 0.0
C479 C 0.80045 0.1627 0.64902 0.0
C480 C 0.82745 0.19204 0.65782 0.0
C481 C 0.84159 0.11137 0.68332 0.0
N482 N 0.86414 0.14193 0.69656 0.0
H483 H 0.8683 0.20726 0.69887 0.0
H484 H 0.84631 0.07975 0.69229 0.0
H485 H 0.91891 0.20698 0.6592 0.0
H486 H 0.99615 0.13122 0.72717 0.0
O487 O 0.89508 0.18916 0.7589 0.0
O488 O 0.94084 0.14368 0.7793 0.0
O489 O 0.92281 0.07787 0.71586 0.0
C490 C 0.92291 0.1801 0.7829 0.0
H491 H 0.84948 0.07256 0.86634 0.0
H492 H 0.98703 0.24065 0.65652 0.0
H493 H 0.78795 0.09768 0.65447 0.0
H494 H 0.82273 0.22444 0.64919 0.0
Co495 Co 0.92502 0.88929 0.74294 0.0
C496 C 0.90708 0.82866 0.81036 0.0
C497 C 0.96575 0.85086 0.80828 0.0
C498 C 0.95611 0.83838 0.84723 0.0
N499 N 0.93473 0.84621 0.78466 0.0
N500 N 0.91928 0.82442 0.84857 0.0
H501 H 0.87704 0.82321 0.80235 0.0
H502 H 0.99194 0.86776 0.79958 0.0
C503 C 1.00601 0.86696 0.70286 0.0
O504 O 0.98676 0.89114 0.72801 0.0
N505 N 0.92039 0.93908 0.70677 0.0
C506 C 0.90174 0.95148 0.67333 0.0
C507 C 0.90097 0.99421 0.67012 0.0
C508 C 0.93365 0.97491 0.72005 0.0
N509 N 0.92087 1.00934 0.69997 0.0
C510 C 0.88061 0.85822 0.68244 0.0
C511 C 0.91533 0.78052 0.6748 0.0
C512 C 0.88049 0.79063 0.65392 0.0
C513 C 0.86523 0.83135 0.65652 0.0
C514 C 0.93211 0.81041 0.69844 0.0
N515 N 0.9148 0.84935 0.70168 0.0
H516 H 0.86234 0.88519 0.68958 0.0
H517 H 0.95716 0.80118 0.71611 0.0
H518 H 0.88757 0.93252 0.65306 0.0
H519 H 0.94944 0.97651 0.74724 0.0
O520 O 0.86992 0.8936 0.76019 0.0
O521 O 0.91598 0.92776 0.78759 0.0
O522 O 0.98567 0.89036 0.72767 0.0
C523 C 0.87833 0.92001 0.78563 0.0
H524 H 0.9744 0.83998 0.87267 0.0
H525 H 0.88317 1.01292 0.6497 0.0
H526 H 0.92826 0.74937 0.67475 0.0
H527 H 0.83932 0.84228 0.64089 0.0
Co528 Co 0.26969 0.15481 0.09774 0.0
C529 C 0.19763 0.20973 0.107 0.0
C530 C 0.20069 0.18008 0.0515 0.0
C531 C 0.1615 0.19407 0.0595 0.0
N532 N 0.22395 0.19016 0.08127 0.0
N533 N 0.16005 0.21309 0.09441 0.0
H534 H 0.20463 0.21776 0.13686 0.0
H535 H 0.21037 0.15956 0.02791 0.0
C536 C 0.30402 0.16969 0.01341 0.0
O537 O 0.31032 0.2073 0.02415 0.0
N538 N 0.3104 0.11445 0.11391 0.0
C539 C 0.32446 0.11317 0.151 0.0
C540 C 0.32558 0.07288 0.16552 0.0
C541 C 0.30662 0.07427 0.10525 0.0
N542 N 0.31315 0.04867 0.13718 0.0
C543 C 0.29135 0.23722 0.11618 0.0
C544 C 0.37272 0.22314 0.11642 0.0
C545 C 0.35636 0.25934 0.13391 0.0
C546 C 0.31484 0.26568 0.13291 0.0
C547 C 0.34753 0.19443 0.10051 0.0
N548 N 0.30678 0.2008 0.10181 0.0
H549 H 0.26026 0.24443 0.1173 0.0
H550 H 0.36096 0.16633 0.08855 0.0
H551 H 0.32625 0.13988 0.16916 0.0
H552 H 0.29073 0.06521 0.07988 0.0
O553 O 0.25021 0.15747 0.15247 0.0
O554 O 0.23078 0.11206 0.1104 0.0
O555 O 0.2864 0.14449 0.03857 0.0
C556 C 0.22889 0.12627 0.1466 0.0
H557 H 0.13609 0.18928 0.04206 0.0
H558 H 0.33067 0.06291 0.19616 0.0
H559 H 0.40453 0.21654 0.1156 0.0
H560 H 0.29933 0.29174 0.14675 0.0
Co561 Co 0.28213 0.88809 0.90132 0.0
C562 C 0.21484 0.83197 0.90949 0.0
C563 C 0.21934 0.86708 0.96133 0.0
C564 C 0.18202 0.8505 0.96313 0.0
N565 N 0.24027 0.85529 0.92756 0.0
N566 N 0.1797 0.8285 0.93039 0.0
H567 H 0.21931 0.82168 0.87936 0.0
H568 H 0.22864 0.88989 0.98126 0.0
C569 C 0.3133 0.87148 0.98253 0.0
O570 O 0.3118 0.83212 0.97492 0.0
N571 N 0.32022 0.92659 0.87731 0.0
C572 C 0.33288 0.9264 0.83843 0.0
C573 C 0.33257 0.9666 0.82303 0.0
C574 C 0.31512 0.96754 0.88542 0.0
N575 N 0.32021 0.9925 0.8523 0.0
C576 C 0.30339 0.81017 0.86652 0.0
C577 C 0.37768 0.79342 0.89442 0.0
C578 C 0.36113 0.76371 0.87086 0.0
C579 C 0.32379 0.77347 0.85651 0.0
C580 C 0.35607 0.83107 0.90325 0.0
N581 N 0.31793 0.83816 0.89129 0.0
H582 H 0.276 0.8159 0.85234 0.0
H583 H 0.36979 0.85392 0.92014 0.0
H584 H 0.33521 0.89905 0.82076 0.0
H585 H 0.30014 0.97807 0.91284 0.0
O586 O 0.25882 0.88527 0.85095 0.0
O587 O 0.24076 0.93268 0.8946 0.0
O588 O 0.30214 0.89892 0.95635 0.0
C589 C 0.23669 0.91707 0.85958 0.0
H590 H 0.15801 0.85576 0.98529 0.0
H591 H 0.33703 0.97556 0.79165 0.0
H592 H 0.40727 0.78808 0.90522 0.0
H593 H 0.30997 0.75278 0.8372 0.0
Co594 Co 0.12774 0.28942 0.91516 0.0
C595 C 0.19412 0.22493 0.90851 0.0
C596 C 0.15284 0.21396 0.95783 0.0
C597 C 0.17557 0.17793 0.95188 0.0
N598 N 0.16433 0.24374 0.93068 0.0
N599 N 0.20146 0.18514 0.92079 0.0
H600 H 0.2078 0.23803 0.88144 0.0
H601 H 0.12655 0.21679 0.97766 0.0
C602 C 0.13976 0.31037 0.99828 0.0
O603 O 0.17806 0.3093 0.98827 0.0
N604 N 0.08828 0.33153 0.90109 0.0
C605 C 0.08948 0.35259 0.86565 0.0
C606 C 0.05144 0.35682 0.85273 0.0
C607 C 0.04914 0.32614 0.91063 0.0
N608 N 0.02614 0.3395 0.88063 0.0
C609 C 0.19718 0.32333 0.87753 0.0
C610 C 0.20223 0.39393 0.92007 0.0
C611 C 0.23249 0.38374 0.89114 0.0
C612 C 0.22789 0.34942 0.86828 0.0
C613 C 0.16996 0.36735 0.92706 0.0
N614 N 0.16988 0.33021 0.90848 0.0
H615 H 0.19556 0.298 0.85823 0.0
H616 H 0.14593 0.37611 0.94813 0.0
H617 H 0.11633 0.3574 0.84711 0.0
H618 H 0.03907 0.30464 0.93427 0.0
O619 O 0.13308 0.27383 0.86149 0.0
O620 O 0.08885 0.24726 0.90532 0.0
O621 O 0.1148 0.30053 0.97326 0.0
C622 C 0.10488 0.24881 0.86884 0.0
H623 H 0.17188 0.1484 0.96763 0.0
H624 H 0.04372 0.36692 0.82278 0.0
H625 H 0.20382 0.42131 0.93737 0.0
H626 H 0.24917 0.34164 0.84397 0.0
Co627 Co 0.73913 0.16321 0.88634 0.0
C628 C 0.70502 0.08677 0.8669 0.0
C629 C 0.70038 0.13152 0.81873 0.0
C630 C 0.70204 0.09237 0.80334 0.0
N631 N 0.70433 0.12824 0.85873 0.0
N632 N 0.70635 0.06445 0.83386 0.0
H633 H 0.71185 0.07251 0.89512 0.0
H634 H 0.70338 0.15999 0.80103 0.0
C635 C 0.66779 0.22478 0.87266 0.0
O636 O 0.64183 0.19721 0.88478 0.0
N637 N 0.77635 0.19356 0.91509 0.0
C638 C 0.79564 0.17794 0.94725 0.0
C639 C 0.83019 0.19885 0.9509 0.0
C640 C 0.79922 0.22383 0.89992 0.0
N641 N 0.83228 0.22737 0.92083 0.0
C642 C 0.71298 0.11588 0.95709 0.0
C643 C 0.66897 0.18019 0.99156 0.0
C644 C 0.66941 0.14126 1.01117 0.0
C645 C 0.69117 0.10855 0.99296 0.0
C646 C 0.69041 0.18571 0.95538 0.0
N647 N 0.70999 0.15325 0.93714 0.0
H648 H 0.73442 0.09242 0.94705 0.0
H649 H 0.6933 0.21691 0.94369 0.0
H650 H 0.7873 0.15063 0.96476 0.0
H651 H 0.79364 0.24034 0.87186 0.0
O652 O 0.77943 0.11775 0.88487 0.0
O653 O 0.77237 0.16762 0.83821 0.0
O654 O 0.70542 0.21579 0.87298 0.0
C655 C 0.79108 0.13413 0.85005 0.0
H656 H 0.70437 0.08542 0.77188 0.0
H657 H 0.85261 0.19242 0.97258 0.0
H658 H 0.65532 0.20717 1.00554 0.0
H659 H 0.69415 0.07848 1.00803 0.0
Co660 Co 0.87305 0.7627 0.9309 0.0
C661 C 0.80698 0.82483 0.91559 0.0
C662 C 0.8326 0.83113 0.97189 0.0
C663 C 0.81186 0.86761 0.96268 0.0
N664 N 0.83018 0.80415 0.94221 0.0
N665 N 0.79605 0.86369 0.92715 0.0
H666 H 0.80188 0.8135 0.88634 0.0
H667 H 0.85204 0.82679 0.99652 0.0
C668 C 0.87281 0.7119 1.00944 0.0
O669 O 0.87586 0.74929 0.99407 0.0
N670 N 0.92106 0.72571 0.92221 0.0
C671 C 0.92887 0.69248 0.89925 0.0
C672 C 0.96851 0.69098 0.88697 0.0
C673 C 0.95789 0.74004 0.92746 0.0
N674 N 0.98676 0.72094 0.9047 0.0
C675 C 0.83992 0.70189 0.88732 0.0
C676 C 0.77111 0.68865 0.93299 0.0
C677 C 0.77693 0.67046 0.89539 0.0
C678 C 0.81318 0.67517 0.87429 0.0
C679 C 0.80132 0.71285 0.94704 0.0
N680 N 0.83546 0.71928 0.92385 0.0
H681 H 0.86325 0.71056 0.86584 0.0
H682 H 0.79591 0.72886 0.97469 0.0
H683 H 0.90819 0.67061 0.89043 0.0
H684 H 0.9628 0.76782 0.94314 0.0
O685 O 0.87371 0.77973 0.87479 0.0
O686 O 0.90899 0.80916 0.91801 0.0
O687 O 0.87567 0.74859 0.99254 0.0
C688 C 0.89974 0.80597 0.88071 0.0
H689 H 0.81013 0.89537 0.97983 0.0
H690 H 0.98266 0.67026 0.86538 0.0
H691 H 0.74283 0.68666 0.9498 0.0
H692 H 0.81877 0.6625 0.84488 0.0
Co693 Co 0.73379 0.90418 0.13934 0.0
C694 C 0.69887 0.9804 0.16831 0.0
C695 C 0.65305 0.94515 0.1469 0.0
C696 C 0.64032 0.98636 0.14629 0.0
N697 N 0.69085 0.9416 0.15907 0.0
N698 N 0.67056 1.00821 0.15745 0.0
H699 H 0.72703 0.98976 0.17797 0.0
H700 H 0.63778 0.92133 0.13331 0.0
C701 C 0.66841 0.83857 0.13667 0.0
O702 O 0.64926 0.85475 0.10633 0.0
N703 N 0.77779 0.87073 0.11863 0.0
C704 C 0.80465 0.88333 0.08958 0.0
C705 C 0.8391 0.85911 0.09215 0.0
C706 C 0.79583 0.83943 0.13833 0.0
N707 N 0.83322 0.83217 0.12317 0.0
C708 C 0.70716 0.95122 0.06838 0.0
C709 C 0.70006 0.88145 0.0244 0.0
C710 C 0.68653 0.91964 1.00842 0.0
C711 C 0.69118 0.95513 0.0304 0.0
C712 C 0.71588 0.87899 0.06188 0.0
N713 N 0.71744 0.9131 0.08443 0.0
H714 H 0.71076 0.97861 0.085 0.0
H715 H 0.72557 0.84888 0.07353 0.0
H716 H 0.80061 0.91037 0.07 0.0
H717 H 0.78293 0.82456 0.16526 0.0
O718 O 0.77331 0.94612 0.14555 0.0
O719 O 0.75487 0.89943 0.19212 0.0
O720 O 0.69938 0.85479 0.14898 0.0
C721 C 0.77758 0.92949 0.18159 0.0
H722 H 0.61379 0.99935 0.13289 0.0
H723 H 0.86649 0.86203 0.07395 0.0
H724 H 0.6994 0.85356 1.0077 0.0
H725 H 0.68283 0.9855 0.01816 0.0
Co726 Co 0.14187 0.75425 0.11285 0.0
C727 C 0.2004 0.82169 0.10149 0.0
C728 C 0.14777 0.83454 0.0698 0.0
C729 C 0.17086 0.86897 0.06553 0.0
N730 N 0.16613 0.8051 0.09291 0.0
N731 N 0.20367 0.86054 0.08586 0.0
H732 H 0.22231 0.80691 0.12 0.0
H733 H 0.11865 0.83185 0.05819 0.0
C734 C 0.16427 0.73451 0.02965 0.0
O735 O 0.20103 0.74303 0.03673 0.0
N736 N 0.11609 0.7051 0.12987 0.0
C737 C 0.11952 0.68153 0.16352 0.0
C738 C 0.0851 0.66003 0.1697 0.0
C739 C 0.08142 0.69669 0.11534 0.0
N740 N 0.06043 0.6712 0.14011 0.0
C741 C 0.21288 0.73488 0.14968 0.0
C742 C 0.23764 0.66449 0.10995 0.0
C743 C 0.2604 0.67893 0.13991 0.0
C744 C 0.24554 0.71244 0.16181 0.0
C745 C 0.20213 0.68649 0.1009 0.0
N746 N 0.19226 0.72356 0.11822 0.0
H747 H 0.20444 0.76159 0.16668 0.0
H748 H 0.1829 0.67377 0.0801 0.0
H749 H 0.14265 0.68382 0.18447 0.0
H750 H 0.06873 0.71572 0.09155 0.0
O751 O 0.13825 0.77222 0.16609 0.0
O752 O 0.0918 0.78743 0.12335 0.0
O753 O 0.13633 0.73932 0.05635 0.0
C754 C 0.105 0.79108 0.15903 0.0
H755 H 0.16324 0.89825 0.05059 0.0
H756 H 0.07659 0.64276 0.19694 0.0
H757 H 0.24706 0.63707 0.09394 0.0
H758 H 0.26028 0.72283 0.18744 0.0
Co759 Co 0.85939 0.29595 0.1155 0.0
C760 C 0.79324 0.23712 0.11735 0.0
C761 C 0.83163 0.23288 0.06462 0.0
C762 C 0.80787 0.199 0.06705 0.0
N763 N 0.82267 0.2569 0.0963 0.0
N764 N 0.78396 0.20188 0.10038 0.0
H765 H 0.78196 0.24496 0.14686 0.0
H766 H 0.85644 0.23742 0.04323 0.0
C767 C 0.84565 0.32933 0.03201 0.0
O768 O 0.8075 0.32889 0.04258 0.0
N769 N 0.89992 0.33145 0.13402 0.0
C770 C 0.89808 0.34433 0.17193 0.0
C771 C 0.93526 0.33926 0.1873 0.0
C772 C 0.93961 0.32229 0.12602 0.0
N773 N 0.96146 0.32467 0.15877 0.0
C774 C 0.78994 0.32492 0.16049 0.0
C775 C 0.77165 0.39838 0.12108 0.0
C776 C 0.74516 0.38386 0.15227 0.0
C777 C 0.7558 0.34722 0.17232 0.0
C778 C 0.80712 0.37483 0.11047 0.0
N779 N 0.81464 0.33665 0.12836 0.0
H780 H 0.79525 0.29767 0.17867 0.0
H781 H 0.82776 0.38709 0.08764 0.0
H782 H 0.87065 0.34938 0.18971 0.0
H783 H 0.95049 0.30595 0.09975 0.0
O784 O 0.85535 0.2704 0.1672 0.0
O785 O 0.89951 0.24955 0.1208 0.0
O786 O 0.87126 0.31709 0.05751 0.0
C787 C 0.88488 0.24633 0.1578 0.0
H788 H 0.80971 0.17321 0.0473 0.0
H789 H 0.94164 0.34236 0.21841 0.0
H790 H 0.76544 0.42771 0.10559 0.0
H791 H 0.73743 0.33495 0.19724 0.0
Co792 Co 0.58583 0.78379 0.64287 0.0
C793 C 0.59754 0.727 0.7131 0.0
C794 C 0.54561 0.71452 0.68211 0.0
C795 C 0.55451 0.68064 0.70673 0.0
N796 N 0.57248 0.74378 0.68593 0.0
N797 N 0.58752 0.68828 0.72569 0.0
H798 H 0.62511 0.74073 0.71977 0.0
H799 H 0.52376 0.71579 0.65954 0.0
C800 C 0.49823 0.80642 0.66597 0.0
O801 O 0.50503 0.79275 0.70257 0.0
N802 N 0.59939 0.82124 0.59692 0.0
C803 C 0.62733 0.85031 0.59399 0.0
C804 C 0.64541 0.85077 0.55629 0.0
C805 C 0.59745 0.80902 0.55877 0.0
N806 N 0.62677 0.82444 0.53446 0.0
C807 C 0.6397 0.83128 0.68107 0.0
C808 C 0.592 0.87301 0.7363 0.0
C809 C 0.63357 0.87642 0.73616 0.0
C810 C 0.65635 0.85805 0.70542 0.0
C811 C 0.57541 0.84871 0.70739 0.0
N812 N 0.5995 0.82606 0.68112 0.0
H813 H 0.66052 0.81761 0.65961 0.0
H814 H 0.54374 0.84906 0.70695 0.0
H815 H 0.63565 0.86965 0.61726 0.0
H816 H 0.57906 0.7845 0.55028 0.0
O817 O 0.63862 0.75909 0.64073 0.0
O818 O 0.59238 0.73679 0.60486 0.0
O819 O 0.5265 0.8038 0.63841 0.0
C820 C 0.62978 0.73482 0.6139 0.0
H821 H 0.53962 0.65157 0.70826 0.0
H822 H 0.67072 0.86857 0.54587 0.0
H823 H 0.5727 0.88812 0.75866 0.0
H824 H 0.68809 0.86235 0.70119 0.0
Co825 Co 0.22216 0.6248 0.65117 0.0
C826 C 0.28367 0.63087 0.71184 0.0
C827 C 0.2961 0.58156 0.67166 0.0
C828 C 0.32885 0.58495 0.69408 0.0
N829 N 0.26775 0.61019 0.68278 0.0
N830 N 0.32093 0.61589 0.71921 0.0
H831 H 0.26928 0.65768 0.72559 0.0
H832 H 0.2941 0.56131 0.64697 0.0
C833 C 0.17641 0.54884 0.64902 0.0
O834 O 0.21262 0.56175 0.64716 0.0
N835 N 0.17871 0.6368 0.61563 0.0
C836 C 0.149 0.66606 0.61213 0.0
C837 C 0.13587 0.66621 0.57396 0.0
C838 C 0.18205 0.61962 0.57968 0.0
N839 N 0.15795 0.63801 0.55307 0.0
C840 C 0.1631 0.66094 0.70281 0.0
C841 C 0.16365 0.60168 0.76394 0.0
C842 C 0.13817 0.63687 0.76705 0.0
C843 C 0.13449 0.66375 0.73365 0.0
C844 C 0.18705 0.59631 0.72845 0.0
N845 N 0.18684 0.62646 0.69863 0.0
H846 H 0.16887 0.68817 0.68453 0.0
H847 H 0.20764 0.56986 0.72635 0.0
H848 H 0.13932 0.68928 0.63283 0.0
H849 H 0.20644 0.59825 0.57159 0.0
O850 O 0.23667 0.68167 0.64876 0.0
O851 O 0.25962 0.63525 0.60546 0.0
O852 O 0.21168 0.56319 0.64731 0.0
C853 C 0.25949 0.6731 0.61751 0.0
H854 H 0.35673 0.56716 0.69117 0.0
H855 H 0.11535 0.68912 0.56129 0.0
H856 H 0.16824 0.58104 0.78967 0.0
H857 H 0.11676 0.69242 0.73589 0.0
Co858 Co 0.39383 0.24868 0.66055 0.0
C859 C 0.36908 0.23354 0.57885 0.0
C860 C 0.37478 0.17569 0.6114 0.0
C861 C 0.37247 0.16856 0.57077 0.0
N862 N 0.3732 0.21687 0.61681 0.0
N863 N 0.37015 0.20522 0.55035 0.0
H864 H 0.3686 0.26604 0.57075 0.0
H865 H 0.381 0.15239 0.63435 0.0
C866 C 0.38556 0.17083 0.72026 0.0
O867 O 0.41186 0.14567 0.70248 0.0
N868 N 0.41646 0.28524 0.69807 0.0
C869 C 0.44938 0.30635 0.6865 0.0
C870 C 0.44921 0.34302 0.70593 0.0
C871 C 0.39715 0.30956 0.72553 0.0
N872 N 0.41646 0.34499 0.73043 0.0
C873 C 0.46088 0.2119 0.61536 0.0
C874 C 0.50126 0.1873 0.68276 0.0
C875 C 0.51813 0.17794 0.64496 0.0
C876 C 0.49636 0.18854 0.6111 0.0
C877 C 0.46527 0.20946 0.68575 0.0
N878 N 0.44552 0.22153 0.65244 0.0
H879 H 0.4463 0.22277 0.58883 0.0
H880 H 0.45329 0.21732 0.7152 0.0
H881 H 0.46983 0.29819 0.66177 0.0
H882 H 0.36754 0.30378 0.73822 0.0
O883 O 0.39501 0.29643 0.62342 0.0
O884 O 0.3449 0.27792 0.66576 0.0
O885 O 0.37792 0.20735 0.70553 0.0
C886 C 0.35838 0.30299 0.63798 0.0
H887 H 0.37545 0.13873 0.55715 0.0
H888 H 0.47048 0.3671 0.70118 0.0
H889 H 0.51706 0.18078 0.70974 0.0
H890 H 0.50871 0.18235 0.58129 0.0
Co891 Co 0.77696 0.42666 0.6215 0.0
C892 C 0.71526 0.42049 0.68913 0.0
C893 C 0.70798 0.47523 0.65244 0.0
C894 C 0.67364 0.47096 0.67665 0.0
N895 N 0.73443 0.44377 0.66036 0.0
N896 N 0.67841 0.43644 0.69958 0.0
H897 H 0.72634 0.39067 0.70005 0.0
H898 H 0.71188 0.49756 0.62784 0.0
C899 C 0.79969 0.50976 0.64377 0.0
O900 O 0.79299 0.49586 0.68086 0.0
N901 N 0.81627 0.40954 0.58015 0.0
C902 C 0.83756 0.37343 0.58318 0.0
C903 C 0.84197 0.35643 0.54612 0.0
C904 C 0.81027 0.41507 0.5404 0.0
N905 N 0.82419 0.3822 0.51933 0.0
C906 C 0.80735 0.37848 0.68658 0.0
C907 C 0.87126 0.42418 0.70368 0.0
C908 C 0.85932 0.39194 0.73043 0.0
C909 C 0.82953 0.36682 0.71884 0.0
C910 C 0.8497 0.43291 0.6689 0.0
N911 N 0.81517 0.41309 0.66339 0.0
H912 H 0.78335 0.35901 0.68125 0.0
H913 H 0.85977 0.45681 0.64783 0.0
H914 H 0.84368 0.35704 0.61105 0.0
H915 H 0.78981 0.43859 0.52861 0.0
O916 O 0.75668 0.37303 0.62168 0.0
O917 O 0.73459 0.42461 0.58285 0.0
O918 O 0.79361 0.48648 0.61464 0.0
C919 C 0.73214 0.38605 0.5956 0.0
H920 H 0.64664 0.49025 0.67581 0.0
H921 H 0.85383 0.32555 0.54016 0.0
H922 H 0.89576 0.44308 0.71006 0.0
H923 H 0.82134 0.33929 0.7363 0.0
Co924 Co 0.60485 0.26144 0.39856 0.0
C925 C 0.60361 0.31772 0.32719 0.0
C926 C 0.5589 0.33523 0.37154 0.0
C927 C 0.56306 0.36788 0.3438 0.0
N928 N 0.58449 0.3037 0.36113 0.0
N929 N 0.59173 0.35668 0.3164 0.0
H930 H 0.62861 0.3018 0.31256 0.0
H931 H 0.54144 0.33614 0.3996 0.0
C932 C 0.52167 0.23754 0.39113 0.0
O933 O 0.53025 0.23998 0.35235 0.0
N934 N 0.62611 0.22134 0.43637 0.0
C935 C 0.66346 0.20476 0.43077 0.0
C936 C 0.68224 0.20509 0.46608 0.0
C937 C 0.62143 0.22736 0.47588 0.0
N938 N 0.65591 0.22012 0.49393 0.0
C939 C 0.64422 0.22259 0.33298 0.0
C940 C 0.60123 0.15191 0.3329 0.0
C941 C 0.63305 0.1578 0.30502 0.0
C942 C 0.65668 0.19163 0.308 0.0
C943 C 0.59281 0.18199 0.36163 0.0
N944 N 0.61149 0.21902 0.35862 0.0
H945 H 0.66285 0.24862 0.33205 0.0
H946 H 0.57115 0.17546 0.38571 0.0
H947 H 0.67871 0.20035 0.40196 0.0
H948 H 0.59646 0.24525 0.48899 0.0
O949 O 0.65662 0.28227 0.38925 0.0
O950 O 0.61399 0.30558 0.43612 0.0
O951 O 0.54804 0.24614 0.4155 0.0
C952 C 0.64955 0.30638 0.41842 0.0
H953 H 0.54847 0.39824 0.34541 0.0
H954 H 0.71367 0.19875 0.47001 0.0
H955 H 0.58317 0.12508 0.33224 0.0
H956 H 0.68255 0.19634 0.2878 0.0
Co957 Co 0.77799 0.61835 0.3718 0.0
C958 C 0.7235 0.62991 0.30535 0.0
C959 C 0.71592 0.57215 0.33722 0.0
C960 C 0.68464 0.57883 0.31226 0.0
N961 N 0.74049 0.60414 0.33273 0.0
N962 N 0.68959 0.61538 0.29261 0.0
H963 H 0.73291 0.66074 0.29789 0.0
H964 H 0.71861 0.54759 0.35981 0.0
C965 C 0.80708 0.533 0.34646 0.0
O966 O 0.80261 0.54741 0.30963 0.0
N967 N 0.81267 0.63301 0.4136 0.0
C968 C 0.83456 0.66701 0.41081 0.0
C969 C 0.83623 0.68291 0.44822 0.0
C970 C 0.80284 0.6279 0.45358 0.0
N971 N 0.81543 0.659 0.47509 0.0
C972 C 0.80952 0.67011 0.30726 0.0
C973 C 0.87556 0.6231 0.28273 0.0
C974 C 0.86396 0.65781 0.25868 0.0
C975 C 0.8313 0.68201 0.27261 0.0
C976 C 0.85282 0.61252 0.31828 0.0
N977 N 0.81798 0.63399 0.32837 0.0
H978 H 0.78524 0.69074 0.31623 0.0
H979 H 0.86303 0.58672 0.33693 0.0
H980 H 0.84383 0.68281 0.38305 0.0
H981 H 0.78185 0.60565 0.4657 0.0
O982 O 0.75285 0.67252 0.37506 0.0
O983 O 0.73292 0.61925 0.41256 0.0
O984 O 0.79849 0.55708 0.37587 0.0
C985 C 0.72865 0.65865 0.40285 0.0
H986 H 0.65902 0.55996 0.31082 0.0
H987 H 0.84886 0.71205 0.45447 0.0
H988 H 0.90197 0.60453 0.2744 0.0
H989 H 0.82189 0.71012 0.25657 0.0
Co990 Co 0.40551 0.80254 0.3876 0.0
C991 C 0.41317 0.74428 0.31882 0.0
C992 C 0.457 0.73412 0.36245 0.0
C993 C 0.45956 0.70102 0.33792 0.0
N994 N 0.4284 0.76184 0.35043 0.0
N995 N 0.43203 0.70727 0.31065 0.0
H996 H 0.38698 0.75654 0.30428 0.0
H997 H 0.47294 0.73631 0.38946 0.0
C998 C 0.49133 0.82272 0.37208 0.0
O999 O 0.48774 0.81046 0.33549 0.0
N1000 N 0.38379 0.83857 0.43042 0.0
C1001 C 0.3508 0.86388 0.43071 0.0
C1002 C 0.33402 0.86534 0.46906 0.0
C1003 C 0.3878 0.82775 0.46993 0.0
N1004 N 0.35695 0.84228 0.49378 0.0
C1005 C 0.35713 0.85216 0.33598 0.0
C1006 C 0.41315 0.8847 0.28239 0.0
C1007 C 0.3734 0.88445 0.27177 0.0
C1008 C 0.34521 0.87244 0.30145 0.0
C1009 C 0.4236 0.86735 0.32014 0.0
N1010 N 0.39639 0.84632 0.34456 0.0
H1011 H 0.33328 0.84018 0.35492 0.0
H1012 H 0.45303 0.87227 0.32884 0.0
H1013 H 0.33754 0.87876 0.40521 0.0
H1014 H 0.40946 0.80456 0.48008 0.0
O1015 O 0.35491 0.78055 0.38219 0.0
O1016 O 0.39596 0.75478 0.42619 0.0
O1017 O 0.46187 0.82023 0.39823 0.0
C1018 C 0.36129 0.75399 0.41026 0.0
H1019 H 0.47829 0.67328 0.34142 0.0
H1020 H 0.30587 0.88072 0.47776 0.0
H1021 H 0.43588 0.89704 0.26171 0.0
H1022 H 0.3136 0.87507 0.29658 0.0
Co1023 Co 0.23833 0.43934 0.36675 0.0
C1024 C 0.31057 0.42586 0.31167 0.0
C1025 C 0.31054 0.48139 0.3438 0.0
C1026 C 0.34867 0.47375 0.32776 0.0
N1027 N 0.28642 0.45127 0.33396 0.0
N1028 N 0.34829 0.43892 0.30747 0.0
H1029 H 0.3024 0.39642 0.30151 0.0
H1030 H 0.30189 0.50543 0.36444 0.0
C1031 C 0.21817 0.52367 0.33173 0.0
O1032 O 0.22657 0.5079 0.29653 0.0
N1033 N 0.19318 0.43055 0.40303 0.0
C1034 C 0.17218 0.39613 0.40769 0.0
C1035 C 0.16017 0.39141 0.44758 0.0
C1036 C 0.19218 0.44702 0.4394 0.0
N1037 N 0.17423 0.42268 0.46775 0.0
C1038 C 0.21711 0.39318 0.30252 0.0
C1039 C 0.1434 0.43018 0.28887 0.0
C1040 C 0.15576 0.39453 0.26827 0.0
C1041 C 0.19238 0.37533 0.27736 0.0
C1042 C 0.1686 0.44584 0.3167 0.0
N1043 N 0.20596 0.4283 0.32184 0.0
H1044 H 0.24403 0.37603 0.30865 0.0
H1045 H 0.15757 0.47122 0.33473 0.0
H1046 H 0.17127 0.37285 0.38548 0.0
H1047 H 0.21154 0.47141 0.44623 0.0
O1048 O 0.25672 0.38245 0.37526 0.0
O1049 O 0.27271 0.43237 0.41325 0.0
O1050 O 0.2226 0.50096 0.36385 0.0
C1051 C 0.27533 0.393 0.40543 0.0
H1052 H 0.3745 0.49189 0.33113 0.0
H1053 H 0.14747 0.36386 0.46143 0.0
H1054 H 0.11476 0.44542 0.28394 0.0
H1055 H 0.20238 0.34598 0.26512 0.0
Co1056 Co 0.64667 0.61541 0.78715 0.0
C1057 C 0.7025 0.6237 0.715 0.0
C1058 C 0.66765 0.57011 0.7158 0.0
C1059 C 0.68505 0.57558 0.67782 0.0
N1060 N 0.67851 0.60028 0.73935 0.0
N1061 N 0.70714 0.60903 0.67769 0.0
H1062 H 0.71361 0.6529 0.72264 0.0
H1063 H 0.64517 0.54812 0.72444 0.0
C1064 C 0.67221 0.52768 0.80914 0.0
O1065 O 0.70916 0.53934 0.80452 0.0
N1066 N 0.6131 0.62851 0.83284 0.0
C1067 C 0.61129 0.66357 0.85318 0.0
C1068 C 0.57285 0.66944 0.86867 0.0
C1069 C 0.57708 0.61278 0.83756 0.0
N1070 N 0.55099 0.63831 0.85705 0.0
C1071 C 0.71349 0.65779 0.80852 0.0
C1072 C 0.72183 0.62137 0.88393 0.0
C1073 C 0.74443 0.65549 0.87211 0.0
C1074 C 0.73917 0.67402 0.83418 0.0
C1075 C 0.6951 0.6066 0.85729 0.0
N1076 N 0.69217 0.62395 0.81935 0.0
H1077 H 0.70861 0.67503 0.78115 0.0
H1078 H 0.67556 0.58245 0.8679 0.0
H1079 H 0.63418 0.68613 0.85173 0.0
H1080 H 0.56846 0.58798 0.81945 0.0
O1081 O 0.64005 0.67209 0.76616 0.0
O1082 O 0.60055 0.622 0.75364 0.0
O1083 O 0.6435 0.55419 0.80359 0.0
C1084 C 0.60914 0.66085 0.74863 0.0
H1085 H 0.67974 0.55834 0.65178 0.0
H1086 H 0.5608 0.6976 0.88182 0.0
H1087 H 0.72467 0.60648 0.91323 0.0
H1088 H 0.75505 0.70131 0.82423 0.0
Co1089 Co 0.38478 0.65632 0.79108 0.0
C1090 C 0.36514 0.57338 0.82027 0.0
C1091 C 0.37583 0.60997 0.86993 0.0
C1092 C 0.38123 0.56835 0.88111 0.0
N1093 N 0.3669 0.61352 0.83096 0.0
N1094 N 0.37661 0.54573 0.84889 0.0
H1095 H 0.35991 0.56371 0.79063 0.0
H1096 H 0.38362 0.63534 0.88752 0.0
C1097 C 0.38204 0.72357 0.85928 0.0
O1098 O 0.41062 0.70759 0.88093 0.0
N1099 N 0.40561 0.69254 0.74818 0.0
C1100 C 0.4376 0.68092 0.7241 0.0
C1101 C 0.43473 0.6995 0.68655 0.0
C1102 C 0.38409 0.71842 0.72491 0.0
N1103 N 0.40083 0.72258 0.68731 0.0
C1104 C 0.45491 0.61089 0.81758 0.0
C1105 C 0.4943 0.68102 0.8341 0.0
C1106 C 0.51041 0.64224 0.84598 0.0
C1107 C 0.49018 0.60681 0.8375 0.0
C1108 C 0.45857 0.68365 0.81529 0.0
N1109 N 0.4383 0.64907 0.80916 0.0
H1110 H 0.4409 0.58342 0.80932 0.0
H1111 H 0.44664 0.71387 0.80631 0.0
H1112 H 0.45927 0.65669 0.73168 0.0
H1113 H 0.3547 0.73067 0.7341 0.0
O1114 O 0.38242 0.6162 0.74907 0.0
O1115 O 0.33316 0.65928 0.76921 0.0
O1116 O 0.37153 0.70547 0.82794 0.0
C1117 C 0.34567 0.63049 0.74558 0.0
H1118 H 0.39238 0.55626 0.90916 0.0
H1119 H 0.45463 0.69485 0.6605 0.0
H1120 H 0.50981 0.70912 0.83764 0.0
H1121 H 0.50255 0.57617 0.84456 0.0
Co1122 Co 0.38292 0.42703 0.7976 0.0
C1123 C 0.31429 0.4253 0.74294 0.0
C1124 C 0.35035 0.47792 0.73299 0.0
C1125 C 0.32629 0.47621 0.70123 0.0
N1126 N 0.34322 0.44604 0.75939 0.0
N1127 N 0.30361 0.44329 0.70741 0.0
H1128 H 0.30382 0.39591 0.75484 0.0
H1129 H 0.37441 0.4988 0.73442 0.0
C1130 C 0.38733 0.50476 0.84438 0.0
O1131 O 0.39232 0.49015 0.80867 0.0
N1132 N 0.42883 0.41017 0.83095 0.0
C1133 C 0.43327 0.3796 0.85934 0.0
C1134 C 0.47243 0.36545 0.85897 0.0
C1135 C 0.46722 0.41591 0.81644 0.0
N1136 N 0.4941 0.38816 0.83206 0.0
C1137 C 0.33807 0.38685 0.86094 0.0
C1138 C 0.27452 0.44311 0.86554 0.0
C1139 C 0.27119 0.40419 0.88512 0.0
C1140 C 0.3051 0.37787 0.88576 0.0
C1141 C 0.31056 0.45292 0.84439 0.0
N1142 N 0.3417 0.42426 0.84135 0.0
H1143 H 0.35745 0.36105 0.85297 0.0
H1144 H 0.3115 0.48154 0.82671 0.0
H1145 H 0.41059 0.36626 0.87879 0.0
H1146 H 0.47442 0.43587 0.79059 0.0
O1147 O 0.37739 0.37083 0.78237 0.0
O1148 O 0.41885 0.41359 0.75097 0.0
O1149 O 0.39188 0.48869 0.80937 0.0
C1150 C 0.40421 0.37665 0.75425 0.0
H1151 H 0.32713 0.4961 0.6745 0.0
H1152 H 0.48384 0.33893 0.87615 0.0
H1153 H 0.24863 0.46387 0.86316 0.0
H1154 H 0.30335 0.34686 0.89901 0.0
Co1155 Co 0.61352 0.38895 0.7784 0.0
C1156 C 0.6059 0.32362 0.72122 0.0
C1157 C 0.55787 0.36839 0.71792 0.0
C1158 C 0.55731 0.34371 0.685 0.0
N1159 N 0.58867 0.35575 0.74043 0.0
N1160 N 0.58808 0.3161 0.68723 0.0
H1161 H 0.6338 0.30896 0.72903 0.0
H1162 H 0.53951 0.3961 0.7229 0.0
C1163 C 0.53062 0.37576 0.81535 0.0
O1164 O 0.53836 0.3361 0.81066 0.0
N1165 N 0.63777 0.42513 0.81426 0.0
C1166 C 0.67556 0.41932 0.82553 0.0
C1167 C 0.69233 0.45723 0.82775 0.0
C1168 C 0.63161 0.46686 0.81184 0.0
N1169 N 0.66494 0.48708 0.8183 0.0
C1170 C 0.66022 0.31555 0.79954 0.0
C1171 C 0.62173 0.2902 0.86999 0.0
C1172 C 0.65386 0.26532 0.85429 0.0
C1173 C 0.67356 0.27948 0.8193 0.0
C1174 C 0.61013 0.3279 0.84971 0.0
N1175 N 0.62752 0.339 0.81303 0.0
H1176 H 0.67735 0.32354 0.77268 0.0
H1177 H 0.58727 0.34768 0.86367 0.0
H1178 H 0.69188 0.38988 0.82594 0.0
H1179 H 0.60569 0.48171 0.79879 0.0
O1180 O 0.66299 0.38631 0.74685 0.0
O1181 O 0.61653 0.43438 0.73653 0.0
O1182 O 0.55776 0.40165 0.80528 0.0
C1183 C 0.65219 0.41901 0.72702 0.0
H1184 H 0.5383 0.34811 0.65997 0.0
H1185 H 0.72337 0.46218 0.83229 0.0
H1186 H 0.60639 0.28119 0.89804 0.0
H1187 H 0.69892 0.26205 0.80631 0.0
Co1188 Co 0.6442 0.41539 0.23669 0.0
C1189 C 0.56737 0.40241 0.20693 0.0
C1190 C 0.60994 0.36031 0.17935 0.0
C1191 C 0.57184 0.3466 0.17476 0.0
N1192 N 0.60707 0.39564 0.19964 0.0
N1193 N 0.54543 0.37272 0.19342 0.0
H1194 H 0.55468 0.4261 0.2262 0.0
H1195 H 0.63751 0.34299 0.1727 0.0
C1196 C 0.70713 0.40551 0.1661 0.0
O1197 O 0.68757 0.43045 0.14154 0.0
N1198 N 0.67663 0.43567 0.2772 0.0
C1199 C 0.6651 0.46782 0.30036 0.0
C1200 C 0.68651 0.46595 0.33443 0.0
C1201 C 0.70491 0.41477 0.29731 0.0
N1202 N 0.71135 0.43256 0.33225 0.0
C1203 C 0.61413 0.48858 0.19087 0.0
C1204 C 0.68745 0.52459 0.18471 0.0
C1205 C 0.65541 0.54467 0.16629 0.0
C1206 C 0.61877 0.52531 0.16825 0.0
C1207 C 0.68184 0.48762 0.20614 0.0
N1208 N 0.64548 0.46994 0.20969 0.0
H1209 H 0.5851 0.47631 0.19332 0.0
H1210 H 0.70751 0.47279 0.21945 0.0
H1211 H 0.64027 0.48905 0.29451 0.0
H1212 H 0.71811 0.38533 0.28813 0.0
O1213 O 0.59997 0.41851 0.27796 0.0
O1214 O 0.63999 0.36399 0.26611 0.0
O1215 O 0.69298 0.39736 0.20194 0.0
C1216 C 0.61014 0.37991 0.28679 0.0
H1217 H 0.56462 0.31753 0.16254 0.0
H1218 H 0.68253 0.48589 0.35964 0.0
H1219 H 0.71615 0.53839 0.18486 0.0
H1220 H 0.59306 0.54018 0.15483 0.0
Co1221 Co 0.62268 0.67617 0.22985 0.0
C1222 C 0.61455 0.72441 0.30322 0.0
C1223 C 0.56601 0.68501 0.29895 0.0
C1224 C 0.56339 0.70111 0.33678 0.0
N1225 N 0.5981 0.70005 0.2778 0.0
N1226 N 0.59391 0.72605 0.33873 0.0
H1227 H 0.64314 0.73766 0.29805 0.0
H1228 H 0.54738 0.66158 0.2887 0.0
C1229 C 0.54129 0.69742 0.20353 0.0
O1230 O 0.54784 0.7365 0.20872 0.0
N1231 N 0.64441 0.64952 0.18324 0.0
C1232 C 0.68232 0.6483 0.16835 0.0
C1233 C 0.68985 0.61037 0.15149 0.0
C1234 C 0.62909 0.61409 0.17359 0.0
N1235 N 0.6566 0.5882 0.15659 0.0
C1236 C 0.6565 0.75492 0.21651 0.0
C1237 C 0.62864 0.77388 0.14175 0.0
C1238 C 0.65403 0.80105 0.15844 0.0
C1239 C 0.66797 0.79093 0.19624 0.0
C1240 C 0.61806 0.73751 0.1633 0.0
N1241 N 0.6301 0.72952 0.20144 0.0
H1242 H 0.67193 0.74626 0.24283 0.0
H1243 H 0.60089 0.7154 0.14895 0.0
H1244 H 0.70437 0.67008 0.17492 0.0
H1245 H 0.60125 0.60387 0.18749 0.0
O1246 O 0.67375 0.67246 0.25292 0.0
O1247 O 0.62921 0.62401 0.261 0.0
O1248 O 0.56782 0.66942 0.21091 0.0
C1249 C 0.6642 0.63686 0.26855 0.0
H1250 H 0.54206 0.69405 0.36114 0.0
H1251 H 0.7191 0.59783 0.14238 0.0
H1252 H 0.61839 0.77974 0.11186 0.0
H1253 H 0.68891 0.80995 0.20982 0.0
Co1254 Co 0.40511 0.63549 0.23585 0.0
C1255 C 0.33325 0.63182 0.28956 0.0
C1256 C 0.37783 0.58676 0.30688 0.0
C1257 C 0.34867 0.5885 0.33735 0.0
N1258 N 0.36762 0.613 0.27627 0.0
N1259 N 0.32133 0.61764 0.32669 0.0
H1260 H 0.31929 0.65803 0.27393 0.0
H1261 H 0.40608 0.5697 0.30816 0.0
C1262 C 0.40654 0.54259 0.22063 0.0
O1263 O 0.37398 0.53837 0.24354 0.0
N1264 N 0.44575 0.65853 0.1979 0.0
C1265 C 0.44402 0.69317 0.17367 0.0
C1266 C 0.48019 0.71111 0.17111 0.0
C1267 C 0.48474 0.65417 0.20591 0.0
N1268 N 0.5055 0.68676 0.19171 0.0
C1269 C 0.35496 0.68189 0.18566 0.0
C1270 C 0.30838 0.62132 0.16053 0.0
C1271 C 0.30045 0.66269 0.14906 0.0
C1272 C 0.32746 0.69202 0.15783 0.0
C1273 C 0.34155 0.61135 0.18338 0.0
N1274 N 0.36414 0.64191 0.19659 0.0
H1275 H 0.36836 0.70724 0.19884 0.0
H1276 H 0.34625 0.57974 0.19239 0.0
H1277 H 0.41893 0.7068 0.15907 0.0
H1278 H 0.49615 0.63126 0.22727 0.0
O1279 O 0.39508 0.68913 0.25891 0.0
O1280 O 0.44082 0.64364 0.27933 0.0
O1281 O 0.42279 0.57785 0.21588 0.0
C1282 C 0.4229 0.68007 0.28292 0.0
H1283 H 0.34946 0.57256 0.36637 0.0
H1284 H 0.48704 0.74051 0.15635 0.0
H1285 H 0.28789 0.59768 0.15456 0.0
H1286 H 0.32275 0.72442 0.14918 0.0
Co1287 Co 0.425 0.3893 0.2429 0.0
C1288 C 0.40708 0.32867 0.31033 0.0
C1289 C 0.46574 0.35089 0.30825 0.0
C1290 C 0.45611 0.33841 0.3472 0.0
N1291 N 0.43473 0.34623 0.28463 0.0
N1292 N 0.41928 0.32444 0.34854 0.0
H1293 H 0.37704 0.32322 0.30231 0.0
H1294 H 0.49193 0.3678 0.29954 0.0
C1295 C 0.506 0.36698 0.20281 0.0
O1296 O 0.48675 0.39115 0.22797 0.0
N1297 N 0.42036 0.43907 0.20671 0.0
C1298 C 0.40163 0.45149 0.17333 0.0
C1299 C 0.40085 0.49422 0.17013 0.0
C1300 C 0.43366 0.47489 0.21997 0.0
N1301 N 0.42082 0.50933 0.19994 0.0
C1302 C 0.38059 0.3582 0.18243 0.0
C1303 C 0.41534 0.28051 0.17476 0.0
C1304 C 0.38049 0.29061 0.1539 0.0
C1305 C 0.36522 0.33133 0.1565 0.0
C1306 C 0.43212 0.31041 0.1984 0.0
N1307 N 0.41478 0.34934 0.20165 0.0
H1308 H 0.36231 0.38514 0.18958 0.0
H1309 H 0.45718 0.30119 0.21606 0.0
H1310 H 0.38739 0.43254 0.1531 0.0
H1311 H 0.4495 0.47647 0.24713 0.0
O1312 O 0.3699 0.3936 0.26015 0.0
O1313 O 0.41597 0.42779 0.28753 0.0
O1314 O 0.48566 0.39036 0.22762 0.0
C1315 C 0.37832 0.42003 0.28558 0.0
H1316 H 0.47439 0.34002 0.37264 0.0
H1317 H 0.383 0.51293 0.14978 0.0
H1318 H 0.42829 0.24937 0.17469 0.0
H1319 H 0.3393 0.34224 0.14087 0.0
Co1320 Co 0.76969 0.65482 0.59777 0.0
C1321 C 0.69764 0.70975 0.60703 0.0
C1322 C 0.70068 0.68008 0.55154 0.0
C1323 C 0.66149 0.69407 0.55955 0.0
N1324 N 0.72395 0.69017 0.5813 0.0
N1325 N 0.66005 0.7131 0.59445 0.0
H1326 H 0.70465 0.7178 0.63688 0.0
H1327 H 0.71036 0.65955 0.52796 0.0
C1328 C 0.80405 0.66969 0.51345 0.0
O1329 O 0.81038 0.70728 0.52418 0.0
N1330 N 0.8104 0.61446 0.61394 0.0
C1331 C 0.82444 0.61317 0.65104 0.0
C1332 C 0.82556 0.57287 0.66555 0.0
C1333 C 0.80662 0.57429 0.60527 0.0
N1334 N 0.81313 0.54867 0.63719 0.0
C1335 C 0.79135 0.73726 0.61616 0.0
C1336 C 0.87271 0.72314 0.61648 0.0
C1337 C 0.85635 0.75937 0.63393 0.0
C1338 C 0.81484 0.76572 0.63289 0.0
C1339 C 0.84753 0.69443 0.60057 0.0
N1340 N 0.80678 0.70082 0.60184 0.0
H1341 H 0.76026 0.74449 0.61724 0.0
H1342 H 0.86097 0.66632 0.58864 0.0
H1343 H 0.82624 0.63987 0.6692 0.0
H1344 H 0.79073 0.56523 0.5799 0.0
O1345 O 0.75021 0.65749 0.6525 0.0
O1346 O 0.73078 0.61208 0.61042 0.0
O1347 O 0.7864 0.6445 0.5386 0.0
C1348 C 0.72889 0.62629 0.64663 0.0
H1349 H 0.63608 0.68926 0.54211 0.0
H1350 H 0.83064 0.5629 0.69619 0.0
H1351 H 0.90452 0.71654 0.61569 0.0
H1352 H 0.79933 0.79181 0.64669 0.0
Co1353 Co 0.78212 0.38809 0.40131 0.0
C1354 C 0.71483 0.33198 0.40948 0.0
C1355 C 0.71933 0.36709 0.46132 0.0
C1356 C 0.68201 0.35052 0.46313 0.0
N1357 N 0.74026 0.3553 0.42756 0.0
N1358 N 0.67969 0.32852 0.43038 0.0
H1359 H 0.7193 0.3217 0.37936 0.0
H1360 H 0.72864 0.3899 0.48126 0.0
C1361 C 0.81329 0.37149 0.48252 0.0
O1362 O 0.81179 0.33213 0.47491 0.0
N1363 N 0.82021 0.42659 0.3773 0.0
C1364 C 0.83286 0.42641 0.33842 0.0
C1365 C 0.83255 0.46662 0.32303 0.0
C1366 C 0.81512 0.46754 0.38542 0.0
N1367 N 0.8202 0.49251 0.3523 0.0
C1368 C 0.80338 0.31018 0.36652 0.0
C1369 C 0.87767 0.29343 0.39441 0.0
C1370 C 0.86113 0.26371 0.37085 0.0
C1371 C 0.82378 0.27347 0.35651 0.0
C1372 C 0.85606 0.33108 0.40324 0.0
N1373 N 0.81792 0.33816 0.39128 0.0
H1374 H 0.77598 0.3159 0.35234 0.0
H1375 H 0.86978 0.35393 0.42013 0.0
H1376 H 0.8352 0.39907 0.32074 0.0
H1377 H 0.80014 0.47806 0.41284 0.0
O1378 O 0.75881 0.38527 0.35094 0.0
O1379 O 0.74075 0.43269 0.39458 0.0
O1380 O 0.80213 0.39893 0.45634 0.0
C1381 C 0.73669 0.41708 0.35957 0.0
H1382 H 0.658 0.35578 0.48529 0.0
H1383 H 0.83701 0.47558 0.29164 0.0
H1384 H 0.90726 0.28809 0.40521 0.0
H1385 H 0.80996 0.25278 0.3372 0.0
Co1386 Co 0.62775 0.7894 0.41521 0.0
C1387 C 0.69415 0.72493 0.40859 0.0
C1388 C 0.65285 0.71395 0.45789 0.0
C1389 C 0.67558 0.67793 0.45193 0.0
N1390 N 0.66436 0.74374 0.43076 0.0
N1391 N 0.70149 0.68514 0.42086 0.0
H1392 H 0.70784 0.73805 0.38153 0.0
H1393 H 0.62656 0.71678 0.47771 0.0
C1394 C 0.63974 0.8104 0.49832 0.0
O1395 O 0.67805 0.80934 0.48832 0.0
N1396 N 0.58829 0.8315 0.40111 0.0
C1397 C 0.5895 0.85254 0.36565 0.0
C1398 C 0.55145 0.85674 0.35272 0.0
C1399 C 0.54915 0.82611 0.41064 0.0
N1400 N 0.52615 0.83944 0.38063 0.0
C1401 C 0.69719 0.82332 0.37757 0.0
C1402 C 0.70223 0.89394 0.4201 0.0
C1403 C 0.73249 0.88374 0.39118 0.0
C1404 C 0.7279 0.84942 0.36832 0.0
C1405 C 0.66996 0.86736 0.42708 0.0
N1406 N 0.66989 0.83021 0.40852 0.0
H1407 H 0.69557 0.79799 0.35827 0.0
H1408 H 0.64593 0.87612 0.44815 0.0
H1409 H 0.61635 0.85733 0.34712 0.0
H1410 H 0.53908 0.80462 0.4343 0.0
O1411 O 0.63312 0.77378 0.36155 0.0
O1412 O 0.58887 0.74724 0.40537 0.0
O1413 O 0.6148 0.80054 0.47329 0.0
C1414 C 0.60492 0.74876 0.3689 0.0
H1415 H 0.67188 0.64839 0.46766 0.0
H1416 H 0.54374 0.86682 0.32276 0.0
H1417 H 0.70381 0.92132 0.43739 0.0
H1418 H 0.74918 0.84164 0.34401 0.0
Co1419 Co 0.23911 0.66322 0.38635 0.0
C1420 C 0.20501 0.58679 0.3669 0.0
C1421 C 0.20036 0.63154 0.31874 0.0
C1422 C 0.20202 0.5924 0.30334 0.0
N1423 N 0.20431 0.62825 0.35874 0.0
N1424 N 0.20634 0.56447 0.33386 0.0
H1425 H 0.21185 0.57251 0.39512 0.0
H1426 H 0.20336 0.66001 0.30105 0.0
C1427 C 0.16778 0.72479 0.37267 0.0
O1428 O 0.14182 0.69723 0.3848 0.0
N1429 N 0.27633 0.69356 0.41511 0.0
C1430 C 0.29562 0.67794 0.44728 0.0
C1431 C 0.33017 0.69885 0.45093 0.0
C1432 C 0.2992 0.72384 0.39994 0.0
N1433 N 0.33227 0.72738 0.42086 0.0
C1434 C 0.21295 0.61589 0.4571 0.0
C1435 C 0.16896 0.68021 0.49157 0.0
C1436 C 0.16939 0.64129 0.51119 0.0
C1437 C 0.19113 0.60857 0.49298 0.0
C1438 C 0.1904 0.68573 0.45539 0.0
N1439 N 0.20997 0.65326 0.43715 0.0
H1440 H 0.23438 0.59242 0.44706 0.0
H1441 H 0.1933 0.71692 0.4437 0.0
H1442 H 0.28728 0.65063 0.46478 0.0
H1443 H 0.29362 0.74035 0.37188 0.0
O1444 O 0.27941 0.61776 0.38489 0.0
O1445 O 0.27236 0.66763 0.33823 0.0
O1446 O 0.20541 0.7158 0.37299 0.0
C1447 C 0.29107 0.63413 0.35007 0.0
H1448 H 0.20435 0.58546 0.27188 0.0
H1449 H 0.35259 0.69242 0.4726 0.0
H1450 H 0.15532 0.70721 0.50555 0.0
H1451 H 0.1941 0.5785 0.50805 0.0
Co1452 Co 0.37305 0.26271 0.43087 0.0
C1453 C 0.30699 0.32485 0.41556 0.0
C1454 C 0.33261 0.33115 0.47186 0.0
C1455 C 0.31187 0.36764 0.46265 0.0
N1456 N 0.33019 0.30417 0.44218 0.0
N1457 N 0.29605 0.36371 0.42712 0.0
H1458 H 0.30188 0.31352 0.38631 0.0
H1459 H 0.35204 0.32682 0.49648 0.0
C1460 C 0.37281 0.21191 0.50941 0.0
O1461 O 0.37585 0.24931 0.49404 0.0
N1462 N 0.42106 0.22572 0.42218 0.0
C1463 C 0.42886 0.1925 0.39922 0.0
C1464 C 0.46851 0.19099 0.38694 0.0
C1465 C 0.45789 0.24005 0.42743 0.0
N1466 N 0.48676 0.22096 0.40467 0.0
C1467 C 0.33992 0.20191 0.38728 0.0
C1468 C 0.2711 0.18868 0.43296 0.0
C1469 C 0.27693 0.1705 0.39535 0.0
C1470 C 0.31317 0.1752 0.37425 0.0
C1471 C 0.30132 0.21288 0.44701 0.0
N1472 N 0.33546 0.2193 0.42381 0.0
H1473 H 0.36324 0.21058 0.3658 0.0
H1474 H 0.29591 0.22888 0.47465 0.0
H1475 H 0.40818 0.17062 0.39039 0.0
H1476 H 0.4628 0.26783 0.44312 0.0
O1477 O 0.37371 0.27975 0.37476 0.0
O1478 O 0.40899 0.30918 0.41798 0.0
O1479 O 0.37567 0.24861 0.49251 0.0
C1480 C 0.39974 0.30599 0.38068 0.0
H1481 H 0.31014 0.39539 0.4798 0.0
H1482 H 0.48265 0.17027 0.36535 0.0
H1483 H 0.24282 0.18669 0.44977 0.0
H1484 H 0.31876 0.16253 0.34484 0.0
Co1485 Co 0.23378 0.4042 0.63932 0.0
C1486 C 0.19886 0.48042 0.6683 0.0
C1487 C 0.15304 0.44516 0.64689 0.0
C1488 C 0.1403 0.48637 0.64629 0.0
N1489 N 0.19084 0.44162 0.65906 0.0
N1490 N 0.17055 0.50823 0.65745 0.0
H1491 H 0.22702 0.48978 0.67796 0.0
H1492 H 0.13777 0.42135 0.6333 0.0
C1493 C 0.1684 0.33858 0.63667 0.0
O1494 O 0.14924 0.35476 0.60634 0.0
N1495 N 0.27778 0.37075 0.61862 0.0
C1496 C 0.30464 0.38334 0.58956 0.0
C1497 C 0.33909 0.35913 0.59213 0.0
C1498 C 0.29582 0.33945 0.63832 0.0
N1499 N 0.33321 0.33218 0.62315 0.0
C1500 C 0.20715 0.45123 0.56836 0.0
C1501 C 0.20005 0.38146 0.52439 0.0
C1502 C 0.18652 0.41966 0.5084 0.0
C1503 C 0.19118 0.45515 0.53038 0.0
C1504 C 0.21586 0.379 0.56187 0.0
N1505 N 0.21742 0.41311 0.58442 0.0
H1506 H 0.21074 0.47862 0.58498 0.0
H1507 H 0.22554 0.34889 0.57352 0.0
H1508 H 0.30059 0.41039 0.56998 0.0
H1509 H 0.28292 0.32457 0.66524 0.0
O1510 O 0.2733 0.44614 0.64553 0.0
O1511 O 0.25486 0.39945 0.6921 0.0
O1512 O 0.19938 0.3548 0.64897 0.0
C1513 C 0.27757 0.42951 0.68158 0.0
H1514 H 0.11377 0.49937 0.6329 0.0
H1515 H 0.36647 0.36204 0.57392 0.0
H1516 H 0.19938 0.35357 0.50769 0.0
H1517 H 0.18283 0.48551 0.51814 0.0
Co1518 Co 0.64186 0.25425 0.61284 0.0
C1519 C 0.70039 0.3217 0.6015 0.0
C1520 C 0.64776 0.33454 0.5698 0.0
C1521 C 0.67085 0.36897 0.56552 0.0
N1522 N 0.66612 0.3051 0.59291 0.0
N1523 N 0.70365 0.36054 0.58586 0.0
H1524 H 0.72229 0.30692 0.62001 0.0
H1525 H 0.61864 0.33184 0.55817 0.0
C1526 C 0.66426 0.23453 0.52964 0.0
O1527 O 0.70102 0.24305 0.53672 0.0
N1528 N 0.61607 0.2051 0.62985 0.0
C1529 C 0.6195 0.18153 0.66351 0.0
C1530 C 0.58508 0.16003 0.66968 0.0
C1531 C 0.58141 0.19669 0.61532 0.0
N1532 N 0.56041 0.1712 0.64009 0.0
C1533 C 0.71287 0.23487 0.64967 0.0
C1534 C 0.73763 0.16449 0.60992 0.0
C1535 C 0.76039 0.17894 0.63988 0.0
C1536 C 0.74552 0.21243 0.6618 0.0
C1537 C 0.70212 0.18649 0.60087 0.0
N1538 N 0.69224 0.22356 0.61821 0.0
H1539 H 0.70442 0.26158 0.66667 0.0
H1540 H 0.68289 0.17377 0.58007 0.0
H1541 H 0.64263 0.18381 0.68446 0.0
H1542 H 0.56872 0.21572 0.59153 0.0
O1543 O 0.63823 0.27221 0.66608 0.0
O1544 O 0.59179 0.28743 0.62335 0.0
O1545 O 0.63632 0.23933 0.55634 0.0
C1546 C 0.60499 0.29108 0.65903 0.0
H1547 H 0.66323 0.39825 0.55058 0.0
H1548 H 0.57657 0.14275 0.69691 0.0
H1549 H 0.74706 0.13708 0.5939 0.0
H1550 H 0.76027 0.22281 0.68743 0.0
Co1551 Co 0.35939 0.79596 0.61551 0.0
C1552 C 0.29323 0.73714 0.61736 0.0
C1553 C 0.33162 0.73288 0.56464 0.0
C1554 C 0.30785 0.69902 0.56707 0.0
N1555 N 0.32267 0.75691 0.59632 0.0
N1556 N 0.28395 0.7019 0.60039 0.0
H1557 H 0.28194 0.74498 0.64687 0.0
H1558 H 0.35643 0.73742 0.54324 0.0
C1559 C 0.34565 0.82934 0.53202 0.0
O1560 O 0.30751 0.8289 0.54258 0.0
N1561 N 0.39992 0.83145 0.63404 0.0
C1562 C 0.39808 0.84433 0.67195 0.0
C1563 C 0.43525 0.83926 0.68733 0.0
C1564 C 0.43961 0.82229 0.62604 0.0
N1565 N 0.46145 0.82467 0.6588 0.0
C1566 C 0.28994 0.82492 0.66051 0.0
C1567 C 0.27165 0.89838 0.62109 0.0
C1568 C 0.24517 0.88387 0.65229 0.0
C1569 C 0.25581 0.84723 0.67234 0.0
C1570 C 0.30711 0.87483 0.61049 0.0
N1571 N 0.31464 0.83666 0.62838 0.0
H1572 H 0.29526 0.79768 0.6787 0.0
H1573 H 0.32776 0.88709 0.58765 0.0
H1574 H 0.37064 0.84938 0.68973 0.0
H1575 H 0.45049 0.80594 0.59977 0.0
O1576 O 0.35535 0.77039 0.66721 0.0
O1577 O 0.39951 0.74955 0.62081 0.0
O1578 O 0.37126 0.8171 0.55752 0.0
C1579 C 0.38488 0.74633 0.65781 0.0
H1580 H 0.30969 0.67322 0.54732 0.0
H1581 H 0.44162 0.84235 0.71843 0.0
H1582 H 0.26543 0.92771 0.6056 0.0
H1583 H 0.23744 0.83496 0.69727 0.0
loop_
_geom_bond_atom_site_label_1
_geom_bond_atom_site_label_2
_geom_bond_distance
_geom_bond_site_symmetry_2
_ccdc_geom_bond_type
Co0 N4 2.148 . S
Co0 N10 2.128 . S
Co0 N20 2.194 . S
Co0 O25 2.351 . S
Co0 O26 2.155 . S
Co0 O27 2.096 . S
C1 N4 1.301 . S
C1 N5 1.328 . S
C1 H6 0.930 . S
C2 C3 1.333 . S
C2 N4 1.317 . S
C2 H7 0.930 . S
C3 C2 1.333 . S
C3 N5 1.350 . S
C3 H29 0.931 . S
N4 Co0 2.148 . S
N4 C1 1.301 . S
N4 C2 1.317 . S
N5 C1 1.328 . S
N5 C3 1.350 . S
H6 C1 0.930 . S
H7 C2 0.930 . S
C8 O9 1.224 . S
C8 O27 1.247 . S
O9 C8 1.224 . S
N10 Co0 2.128 . S
N10 C11 1.355 . S
N10 C13 1.311 . S
C11 N10 1.355 . S
C11 C12 1.363 . S
C11 H23 0.929 . S
C12 C11 1.363 . S
C12 N14 1.375 . S
C12 H30 0.931 . S
C13 N10 1.311 . S
C13 N14 1.347 . S
C13 H24 0.929 . S
N14 C12 1.375 . S
N14 C13 1.347 . S
C15 C18 1.365 . S
C15 N20 1.328 . S
C15 H21 0.929 . S
C16 C17 1.362 . S
C16 C19 1.378 . S
C16 H31 0.929 . S
C17 C16 1.362 . S
C17 C18 1.366 . S
C18 C15 1.365 . S
C18 C17 1.366 . S
C18 H32 0.930 . S
C19 C16 1.378 . S
C19 N20 1.315 . S
C19 H22 0.930 . S
N20 Co0 2.194 . S
N20 C15 1.328 . S
N20 C19 1.315 . S
H21 C15 0.929 . S
H22 C19 0.930 . S
H23 C11 0.929 . S
H24 C13 0.929 . S
O25 Co0 2.351 . S
O25 C28 1.244 . S
O26 Co0 2.155 . S
O26 C28 1.240 . S
O27 Co0 2.096 . S
O27 C8 1.247 . S
C28 O25 1.244 . S
C28 O26 1.240 . S
H29 C3 0.931 . S
H30 C12 0.931 . S
H31 C16 0.929 . S
H32 C18 0.930 . S
Co33 N37 2.148 . S
Co33 N43 2.128 . S
Co33 N53 2.194 . S
Co33 O58 2.351 . S
Co33 O59 2.155 . S
Co33 O60 2.096 . S
C34 N37 1.301 . S
C34 N38 1.328 . S
C34 H39 0.930 . S
C35 C36 1.333 . S
C35 N37 1.317 . S
C35 H40 0.930 . S
C36 C35 1.333 . S
C36 N38 1.350 . S
C36 H62 0.931 . S
N37 Co33 2.148 . S
N37 C34 1.301 . S
N37 C35 1.317 . S
N38 C34 1.328 . S
N38 C36 1.350 . S
H39 C34 0.930 . S
H40 C35 0.930 . S
C41 O42 1.224 . S
C41 O60 1.247 . S
O42 C41 1.224 . S
N43 Co33 2.128 . S
N43 C44 1.355 . S
N43 C46 1.311 . S
C44 N43 1.355 . S
C44 C45 1.363 . S
C44 H56 0.929 . S
C45 C44 1.363 . S
C45 N47 1.375 . S
C45 H63 0.931 . S
C46 N43 1.311 . S
C46 N47 1.347 . S
C46 H57 0.929 . S
N47 C45 1.375 . S
N47 C46 1.347 . S
C48 C51 1.365 . S
C48 N53 1.328 . S
C48 H54 0.929 . S
C49 C50 1.362 . S
C49 C52 1.378 . S
C49 H64 0.929 . S
C50 C49 1.362 . S
C50 C51 1.366 . S
C51 C48 1.365 . S
C51 C50 1.366 . S
C51 H65 0.930 . S
C52 C49 1.378 . S
C52 N53 1.315 . S
C52 H55 0.930 . S
N53 Co33 2.194 . S
N53 C48 1.328 . S
N53 C52 1.315 . S
H54 C48 0.929 . S
H55 C52 0.930 . S
H56 C44 0.929 . S
H57 C46 0.929 . S
O58 Co33 2.351 . S
O58 C61 1.244 . S
O59 Co33 2.155 . S
O59 C61 1.240 . S
O60 Co33 2.096 . S
O60 C41 1.247 . S
C61 O58 1.244 . S
C61 O59 1.240 . S
H62 C36 0.931 . S
H63 C45 0.931 . S
H64 C49 0.929 . S
H65 C51 0.930 . S
Co66 N70 2.148 . S
Co66 N76 2.128 . S
Co66 N86 2.194 . S
Co66 O91 2.351 . S
Co66 O92 2.155 . S
Co66 O93 2.096 . S
C67 N70 1.301 . S
C67 N71 1.328 . S
C67 H72 0.930 . S
C68 C69 1.333 . S
C68 N70 1.317 . S
C68 H73 0.930 . S
C69 C68 1.333 . S
C69 N71 1.350 . S
C69 H95 0.931 . S
N70 Co66 2.148 . S
N70 C67 1.301 . S
N70 C68 1.317 . S
N71 C67 1.328 . S
N71 C69 1.350 . S
H72 C67 0.930 . S
H73 C68 0.930 . S
C74 O75 1.224 . S
C74 O93 1.247 . S
O75 C74 1.224 . S
N76 Co66 2.128 . S
N76 C77 1.355 . S
N76 C79 1.311 . S
C77 N76 1.355 . S
C77 C78 1.363 . S
C77 H89 0.929 . S
C78 C77 1.363 . S
C78 N80 1.375 . S
C78 H96 0.931 . S
C79 N76 1.311 . S
C79 N80 1.347 . S
C79 H90 0.929 . S
N80 C78 1.375 . S
N80 C79 1.347 . S
C81 C84 1.365 . S
C81 N86 1.328 . S
C81 H87 0.929 . S
C82 C83 1.362 1_655 S
C82 C85 1.378 . S
C82 H97 0.929 1_655 S
C83 C82 1.362 1_455 S
C83 C84 1.366 1_455 S
C84 C81 1.365 . S
C84 C83 1.366 1_655 S
C84 H98 0.930 . S
C85 C82 1.378 . S
C85 N86 1.315 . S
C85 H88 0.930 . S
N86 Co66 2.194 . S
N86 C81 1.328 . S
N86 C85 1.315 . S
H87 C81 0.929 . S
H88 C85 0.930 . S
H89 C77 0.929 . S
H90 C79 0.929 . S
O91 Co66 2.351 . S
O91 C94 1.244 . S
O92 Co66 2.155 . S
O92 C94 1.240 . S
O93 Co66 2.096 . S
O93 C74 1.247 . S
C94 O91 1.244 . S
C94 O92 1.240 . S
H95 C69 0.931 . S
H96 C78 0.931 . S
H97 C82 0.929 1_455 S
H98 C84 0.930 . S
Co99 N103 2.148 . S
Co99 N109 2.128 . S
Co99 N119 2.194 . S
Co99 O124 2.351 . S
Co99 O125 2.155 . S
Co99 O126 2.096 . S
C100 N103 1.301 . S
C100 N104 1.328 . S
C100 H105 0.930 . S
C101 C102 1.333 . S
C101 N103 1.317 . S
C101 H106 0.930 . S
C102 C101 1.333 . S
C102 N104 1.350 . S
C102 H128 0.931 . S
N103 Co99 2.148 . S
N103 C100 1.301 . S
N103 C101 1.317 . S
N104 C100 1.328 . S
N104 C102 1.350 . S
H105 C100 0.930 . S
H106 C101 0.930 . S
C107 O108 1.224 . S
C107 O126 1.247 . S
O108 C107 1.224 . S
N109 Co99 2.128 . S
N109 C110 1.355 . S
N109 C112 1.311 . S
C110 N109 1.355 . S
C110 C111 1.363 . S
C110 H122 0.929 . S
C111 C110 1.363 . S
C111 N113 1.375 . S
C111 H129 0.931 . S
C112 N109 1.311 . S
C112 N113 1.347 . S
C112 H123 0.929 . S
N113 C111 1.375 . S
N113 C112 1.347 . S
C114 C117 1.365 . S
C114 N119 1.328 . S
C114 H120 0.929 . S
C115 C116 1.362 . S
C115 C118 1.378 . S
C115 H130 0.929 . S
C116 C115 1.362 . S
C116 C117 1.366 . S
C117 C114 1.365 . S
C117 C116 1.366 . S
C117 H131 0.930 . S
C118 C115 1.378 . S
C118 N119 1.315 . S
C118 H121 0.930 . S
N119 Co99 2.194 . S
N119 C114 1.328 . S
N119 C118 1.315 . S
H120 C114 0.929 . S
H121 C118 0.930 . S
H122 C110 0.929 . S
H123 C112 0.929 . S
O124 Co99 2.351 . S
O124 C127 1.244 . S
O125 Co99 2.155 . S
O125 C127 1.240 . S
O126 Co99 2.096 . S
O126 C107 1.247 . S
C127 O124 1.244 . S
C127 O125 1.240 . S
H128 C102 0.931 . S
H129 C111 0.931 . S
H130 C115 0.929 . S
H131 C117 0.930 . S
Co132 N136 2.148 . S
Co132 N142 2.128 . S
Co132 N152 2.194 . S
Co132 O157 2.351 . S
Co132 O158 2.155 . S
Co132 O159 2.096 . S
C133 N136 1.301 . S
C133 N137 1.328 . S
C133 H138 0.930 . S
C134 C135 1.333 . S
C134 N136 1.317 . S
C134 H139 0.930 . S
C135 C134 1.333 . S
C135 N137 1.350 . S
C135 H161 0.931 . S
N136 Co132 2.148 . S
N136 C133 1.301 . S
N136 C134 1.317 . S
N137 C133 1.328 . S
N137 C135 1.350 . S
H138 C133 0.930 . S
H139 C134 0.930 . S
C140 O141 1.224 . S
C140 O159 1.247 . S
O141 C140 1.224 . S
N142 Co132 2.128 . S
N142 C143 1.355 . S
N142 C145 1.311 . S
C143 N142 1.355 . S
C143 C144 1.363 . S
C143 H155 0.929 . S
C144 C143 1.363 . S
C144 N146 1.375 . S
C144 H162 0.931 . S
C145 N142 1.311 . S
C145 N146 1.347 . S
C145 H156 0.929 . S
N146 C144 1.375 . S
N146 C145 1.347 . S
C147 C150 1.365 . S
C147 N152 1.328 . S
C147 H153 0.929 . S
C148 C149 1.362 . S
C148 C151 1.378 . S
C148 H163 0.929 . S
C149 C148 1.362 . S
C149 C150 1.366 . S
C150 C147 1.365 . S
C150 C149 1.366 . S
C150 H164 0.930 . S
C151 C148 1.378 . S
C151 N152 1.315 . S
C151 H154 0.930 . S
N152 Co132 2.194 . S
N152 C147 1.328 . S
N152 C151 1.315 . S
H153 C147 0.929 . S
H154 C151 0.930 . S
H155 C143 0.929 . S
H156 C145 0.929 . S
O157 Co132 2.351 . S
O157 C160 1.244 . S
O158 Co132 2.155 . S
O158 C160 1.240 . S
O159 Co132 2.096 . S
O159 C140 1.247 . S
C160 O157 1.244 . S
C160 O158 1.240 . S
H161 C135 0.931 . S
H162 C144 0.931 . S
H163 C148 0.929 . S
H164 C150 0.930 . S
Co165 N169 2.148 . S
Co165 N175 2.128 . S
Co165 N185 2.194 . S
Co165 O190 2.351 . S
Co165 O191 2.155 . S
Co165 O192 2.096 . S
C166 N169 1.301 . S
C166 N170 1.328 . S
C166 H171 0.930 . S
C167 C168 1.333 . S
C167 N169 1.317 . S
C167 H172 0.930 . S
C168 C167 1.333 . S
C168 N170 1.350 . S
C168 H194 0.931 . S
N169 Co165 2.148 . S
N169 C166 1.301 . S
N169 C167 1.317 . S
N170 C166 1.328 . S
N170 C168 1.350 . S
H171 C166 0.930 . S
H172 C167 0.930 . S
C173 O174 1.224 . S
C173 O192 1.247 . S
O174 C173 1.224 . S
N175 Co165 2.128 . S
N175 C176 1.355 . S
N175 C178 1.311 . S
C176 N175 1.355 . S
C176 C177 1.363 . S
C176 H188 0.929 . S
C177 C176 1.363 . S
C177 N179 1.375 . S
C177 H195 0.931 . S
C178 N175 1.311 . S
C178 N179 1.347 . S
C178 H189 0.929 . S
N179 C177 1.375 . S
N179 C178 1.347 . S
C180 C183 1.365 . S
C180 N185 1.328 . S
C180 H186 0.929 . S
C181 C182 1.362 . S
C181 C184 1.378 . S
C181 H196 0.929 . S
C182 C181 1.362 . S
C182 C183 1.366 . S
C183 C180 1.365 . S
C183 C182 1.366 . S
C183 H197 0.930 . S
C184 C181 1.378 . S
C184 N185 1.315 . S
C184 H187 0.930 . S
N185 Co165 2.194 . S
N185 C180 1.328 . S
N185 C184 1.315 . S
H186 C180 0.929 . S
H187 C184 0.930 . S
H188 C176 0.929 . S
H189 C178 0.929 . S
O190 Co165 2.351 . S
O190 C193 1.244 . S
O191 Co165 2.155 . S
O191 C193 1.240 . S
O192 Co165 2.096 . S
O192 C173 1.247 . S
C193 O190 1.244 . S
C193 O191 1.240 . S
H194 C168 0.931 . S
H195 C177 0.931 . S
H196 C181 0.929 . S
H197 C183 0.930 . S
Co198 N202 2.148 . S
Co198 N208 2.128 . S
Co198 N218 2.194 . S
Co198 O223 2.351 . S
Co198 O224 2.155 . S
Co198 O225 2.096 . S
C199 N202 1.301 . S
C199 N203 1.328 . S
C199 H204 0.930 . S
C200 C201 1.333 . S
C200 N202 1.317 . S
C200 H205 0.930 . S
C201 C200 1.333 . S
C201 N203 1.350 . S
C201 H227 0.931 . S
N202 Co198 2.148 . S
N202 C199 1.301 . S
N202 C200 1.317 . S
N203 C199 1.328 . S
N203 C201 1.350 . S
H204 C199 0.930 . S
H205 C200 0.930 . S
C206 O207 1.224 . S
C206 O225 1.247 . S
O207 C206 1.224 . S
N208 Co198 2.128 . S
N208 C209 1.355 . S
N208 C211 1.311 . S
C209 N208 1.355 . S
C209 C210 1.363 . S
C209 H221 0.929 . S
C210 C209 1.363 . S
C210 N212 1.375 . S
C210 H228 0.931 . S
C211 N208 1.311 . S
C211 N212 1.347 . S
C211 H222 0.929 . S
N212 C210 1.375 . S
N212 C211 1.347 . S
C213 C216 1.365 . S
C213 N218 1.328 . S
C213 H219 0.929 . S
C214 C215 1.362 . S
C214 C217 1.378 . S
C214 H229 0.929 . S
C215 C214 1.362 . S
C215 C216 1.366 . S
C216 C213 1.365 . S
C216 C215 1.366 . S
C216 H230 0.930 . S
C217 C214 1.378 . S
C217 N218 1.315 . S
C217 H220 0.930 . S
N218 Co198 2.194 . S
N218 C213 1.328 . S
N218 C217 1.315 . S
H219 C213 0.929 . S
H220 C217 0.930 . S
H221 C209 0.929 . S
H222 C211 0.929 . S
O223 Co198 2.351 . S
O223 C226 1.244 . S
O224 Co198 2.155 . S
O224 C226 1.240 . S
O225 Co198 2.096 . S
O225 C206 1.247 . S
C226 O223 1.244 . S
C226 O224 1.240 . S
H227 C201 0.931 . S
H228 C210 0.931 . S
H229 C214 0.929 . S
H230 C216 0.930 . S
Co231 N235 2.148 . S
Co231 N241 2.128 . S
Co231 N251 2.194 . S
Co231 O256 2.351 . S
Co231 O257 2.155 . S
Co231 O258 2.096 . S
C232 N235 1.301 . S
C232 N236 1.328 . S
C232 H237 0.930 . S
C233 C234 1.333 . S
C233 N235 1.317 . S
C233 H238 0.930 . S
C234 C233 1.333 . S
C234 N236 1.350 . S
C234 H260 0.931 . S
N235 Co231 2.148 . S
N235 C232 1.301 . S
N235 C233 1.317 . S
N236 C232 1.328 . S
N236 C234 1.350 . S
H237 C232 0.930 . S
H238 C233 0.930 . S
C239 O240 1.224 . S
C239 O258 1.247 . S
O240 C239 1.224 . S
N241 Co231 2.128 . S
N241 C242 1.355 . S
N241 C244 1.311 . S
C242 N241 1.355 . S
C242 C243 1.363 . S
C242 H254 0.929 . S
C243 C242 1.363 . S
C243 N245 1.375 . S
C243 H261 0.931 . S
C244 N241 1.311 . S
C244 N245 1.347 . S
C244 H255 0.929 . S
N245 C243 1.375 . S
N245 C244 1.347 . S
C246 C249 1.365 . S
C246 N251 1.328 . S
C246 H252 0.929 . S
C247 C248 1.362 . S
C247 C250 1.378 . S
C247 H262 0.929 . S
C248 C247 1.362 . S
C248 C249 1.366 . S
C249 C246 1.365 . S
C249 C248 1.366 . S
C249 H263 0.930 . S
C250 C247 1.378 . S
C250 N251 1.315 . S
C250 H253 0.930 . S
N251 Co231 2.194 . S
N251 C246 1.328 . S
N251 C250 1.315 . S
H252 C246 0.929 . S
H253 C250 0.930 . S
H254 C242 0.929 . S
H255 C244 0.929 . S
O256 Co231 2.351 . S
O256 C259 1.244 . S
O257 Co231 2.155 . S
O257 C259 1.240 . S
O258 Co231 2.096 . S
O258 C239 1.247 . S
C259 O256 1.244 . S
C259 O257 1.240 . S
H260 C234 0.931 . S
H261 C243 0.931 . S
H262 C247 0.929 . S
H263 C249 0.930 . S
Co264 N268 2.148 . S
Co264 N274 2.128 . S
Co264 N284 2.194 . S
Co264 O289 2.351 . S
Co264 O290 2.155 . S
Co264 O291 2.096 . S
C265 N268 1.301 . S
C265 N269 1.328 . S
C265 H270 0.930 . S
C266 C267 1.333 . S
C266 N268 1.317 . S
C266 H271 0.930 . S
C267 C266 1.333 . S
C267 N269 1.350 . S
C267 H293 0.931 . S
N268 Co264 2.148 . S
N268 C265 1.301 . S
N268 C266 1.317 . S
N269 C265 1.328 . S
N269 C267 1.350 . S
H270 C265 0.930 . S
H271 C266 0.930 . S
C272 O273 1.224 . S
C272 O291 1.247 . S
O273 C272 1.224 . S
N274 Co264 2.128 . S
N274 C275 1.355 . S
N274 C277 1.311 . S
C275 N274 1.355 . S
C275 C276 1.363 . S
C275 H287 0.929 . S
C276 C275 1.363 . S
C276 N278 1.375 . S
C276 H294 0.931 . S
C277 N274 1.311 . S
C277 N278 1.347 . S
C277 H288 0.929 . S
N278 C276 1.375 . S
N278 C277 1.347 . S
C279 C282 1.365 . S
C279 N284 1.328 . S
C279 H285 0.929 . S
C280 C281 1.362 . S
C280 C283 1.378 . S
C280 H295 0.929 . S
C281 C280 1.362 . S
C281 C282 1.366 . S
C282 C279 1.365 . S
C282 C281 1.366 . S
C282 H296 0.930 . S
C283 C280 1.378 . S
C283 N284 1.315 . S
C283 H286 0.930 . S
N284 Co264 2.194 . S
N284 C279 1.328 . S
N284 C283 1.315 . S
H285 C279 0.929 . S
H286 C283 0.930 . S
H287 C275 0.929 . S
H288 C277 0.929 . S
O289 Co264 2.351 . S
O289 C292 1.244 . S
O290 Co264 2.155 . S
O290 C292 1.240 . S
O291 Co264 2.096 . S
O291 C272 1.247 . S
C292 O289 1.244 . S
C292 O290 1.240 . S
H293 C267 0.931 . S
H294 C276 0.931 . S
H295 C280 0.929 . S
H296 C282 0.930 . S
Co297 N301 2.148 . S
Co297 N307 2.128 . S
Co297 N317 2.194 . S
Co297 O322 2.351 . S
Co297 O323 2.155 . S
Co297 O324 2.096 . S
C298 N301 1.301 . S
C298 N302 1.328 . S
C298 H303 0.930 . S
C299 C300 1.333 . S
C299 N301 1.317 . S
C299 H304 0.930 . S
C300 C299 1.333 . S
C300 N302 1.350 . S
C300 H326 0.931 . S
N301 Co297 2.148 . S
N301 C298 1.301 . S
N301 C299 1.317 . S
N302 C298 1.328 . S
N302 C300 1.350 . S
H303 C298 0.930 . S
H304 C299 0.930 . S
C305 O306 1.224 . S
C305 O324 1.247 . S
O306 C305 1.224 . S
N307 Co297 2.128 . S
N307 C308 1.355 . S
N307 C310 1.311 . S
C308 N307 1.355 . S
C308 C309 1.363 . S
C308 H320 0.929 . S
C309 C308 1.363 . S
C309 N311 1.375 . S
C309 H327 0.931 . S
C310 N307 1.311 . S
C310 N311 1.347 . S
C310 H321 0.929 . S
N311 C309 1.375 . S
N311 C310 1.347 . S
C312 C315 1.365 . S
C312 N317 1.328 . S
C312 H318 0.929 . S
C313 C314 1.363 . S
C313 C316 1.376 1_455 S
C313 H328 0.930 . S
C314 C313 1.363 . S
C314 C315 1.366 1_455 S
C315 C312 1.365 . S
C315 C314 1.366 1_655 S
C315 H329 0.930 . S
C316 C313 1.376 1_655 S
C316 N317 1.315 . S
C316 H319 0.930 . S
N317 Co297 2.194 . S
N317 C312 1.328 . S
N317 C316 1.315 . S
H318 C312 0.929 . S
H319 C316 0.930 . S
H320 C308 0.929 . S
H321 C310 0.929 . S
O322 Co297 2.351 . S
O322 C325 1.244 . S
O323 Co297 2.155 . S
O323 C325 1.240 . S
O324 Co297 2.096 . S
O324 C305 1.247 . S
C325 O322 1.244 . S
C325 O323 1.240 . S
H326 C300 0.931 . S
H327 C309 0.931 . S
H328 C313 0.930 . S
H329 C315 0.930 . S
Co330 N334 2.148 . S
Co330 N340 2.128 . S
Co330 N350 2.194 . S
Co330 O355 2.351 . S
Co330 O356 2.155 . S
Co330 O357 2.096 . S
C331 N334 1.301 . S
C331 N335 1.328 . S
C331 H336 0.930 . S
C332 C333 1.333 . S
C332 N334 1.317 . S
C332 H337 0.930 . S
C333 C332 1.333 . S
C333 N335 1.350 . S
C333 H359 0.931 . S
N334 Co330 2.148 . S
N334 C331 1.301 . S
N334 C332 1.317 . S
N335 C331 1.328 . S
N335 C333 1.350 . S
H336 C331 0.930 . S
H337 C332 0.930 . S
C338 O339 1.224 . S
C338 O357 1.247 . S
O339 C338 1.224 . S
N340 Co330 2.128 . S
N340 C341 1.355 . S
N340 C343 1.311 . S
C341 N340 1.355 . S
C341 C342 1.363 . S
C341 H353 0.929 . S
C342 C341 1.363 . S
C342 N344 1.375 . S
C342 H360 0.931 . S
C343 N340 1.311 . S
C343 N344 1.347 . S
C343 H354 0.929 . S
N344 C342 1.375 . S
N344 C343 1.347 . S
C345 C348 1.365 . S
C345 N350 1.328 . S
C345 H351 0.929 . S
C346 C347 1.362 . S
C346 C349 1.378 . S
C346 H361 0.929 . S
C347 C346 1.362 . S
C347 C348 1.366 . S
C348 C345 1.365 . S
C348 C347 1.366 . S
C348 H362 0.930 . S
C349 C346 1.378 . S
C349 N350 1.315 . S
C349 H352 0.930 . S
N350 Co330 2.194 . S
N350 C345 1.328 . S
N350 C349 1.315 . S
H351 C345 0.929 . S
H352 C349 0.930 . S
H353 C341 0.929 . S
H354 C343 0.929 . S
O355 Co330 2.351 . S
O355 C358 1.244 . S
O356 Co330 2.155 . S
O356 C358 1.240 . S
O357 Co330 2.096 . S
O357 C338 1.247 . S
C358 O355 1.244 . S
C358 O356 1.240 . S
H359 C333 0.931 . S
H360 C342 0.931 . S
H361 C346 0.929 . S
H362 C348 0.930 . S
Co363 N367 2.148 . S
Co363 N373 2.128 . S
Co363 N383 2.194 . S
Co363 O388 2.351 . S
Co363 O389 2.155 . S
Co363 O390 2.096 . S
C364 N367 1.301 . S
C364 N368 1.328 . S
C364 H369 0.930 . S
C365 C366 1.333 . S
C365 N367 1.317 . S
C365 H370 0.930 . S
C366 C365 1.333 . S
C366 N368 1.350 . S
C366 H392 0.931 . S
N367 Co363 2.148 . S
N367 C364 1.301 . S
N367 C365 1.317 . S
N368 C364 1.328 . S
N368 C366 1.350 . S
H369 C364 0.930 . S
H370 C365 0.930 . S
C371 O372 1.224 . S
C371 O390 1.247 . S
O372 C371 1.224 . S
N373 Co363 2.128 . S
N373 C374 1.355 . S
N373 C376 1.311 . S
C374 N373 1.355 . S
C374 C375 1.363 . S
C374 H386 0.929 . S
C375 C374 1.363 . S
C375 N377 1.375 . S
C375 H393 0.931 . S
C376 N373 1.311 . S
C376 N377 1.347 . S
C376 H387 0.929 . S
N377 C375 1.375 . S
N377 C376 1.347 . S
C378 C381 1.365 . S
C378 N383 1.328 . S
C378 H384 0.929 . S
C379 C380 1.362 . S
C379 C382 1.378 . S
C379 H394 0.929 . S
C380 C379 1.362 . S
C380 C381 1.366 . S
C381 C378 1.365 . S
C381 C380 1.366 . S
C381 H395 0.930 . S
C382 C379 1.378 . S
C382 N383 1.315 . S
C382 H385 0.930 . S
N383 Co363 2.194 . S
N383 C378 1.328 . S
N383 C382 1.315 . S
H384 C378 0.929 . S
H385 C382 0.930 . S
H386 C374 0.929 . S
H387 C376 0.929 . S
O388 Co363 2.351 . S
O388 C391 1.244 . S
O389 Co363 2.155 . S
O389 C391 1.240 . S
O390 Co363 2.096 . S
O390 C371 1.247 . S
C391 O388 1.244 . S
C391 O389 1.240 . S
H392 C366 0.931 . S
H393 C375 0.931 . S
H394 C379 0.929 . S
H395 C381 0.930 . S
Co396 N400 2.148 . S
Co396 N406 2.128 . S
Co396 N416 2.194 . S
Co396 O421 2.351 . S
Co396 O422 2.155 . S
Co396 O423 2.096 . S
C397 N400 1.301 . S
C397 N401 1.328 . S
C397 H402 0.930 . S
C398 C399 1.333 . S
C398 N400 1.317 . S
C398 H403 0.930 . S
C399 C398 1.333 . S
C399 N401 1.350 . S
C399 H425 0.931 . S
N400 Co396 2.148 . S
N400 C397 1.301 . S
N400 C398 1.317 . S
N401 C397 1.328 . S
N401 C399 1.350 . S
H402 C397 0.930 . S
H403 C398 0.930 . S
C404 O405 1.224 . S
C404 O423 1.247 . S
O405 C404 1.224 . S
N406 Co396 2.128 . S
N406 C407 1.355 . S
N406 C409 1.311 . S
C407 N406 1.355 . S
C407 C408 1.363 . S
C407 H419 0.929 . S
C408 C407 1.363 . S
C408 N410 1.375 . S
C408 H426 0.931 . S
C409 N406 1.311 . S
C409 N410 1.347 . S
C409 H420 0.929 . S
N410 C408 1.375 . S
N410 C409 1.347 . S
C411 C414 1.365 . S
C411 N416 1.328 . S
C411 H417 0.929 . S
C412 C413 1.362 . S
C412 C415 1.378 1_545 S
C412 H427 0.929 . S
C413 C412 1.362 . S
C413 C414 1.366 1_545 S
C414 C411 1.365 . S
C414 C413 1.366 1_565 S
C414 H428 0.930 1_565 S
C415 C412 1.378 1_565 S
C415 N416 1.315 . S
C415 H418 0.930 . S
N416 Co396 2.194 . S
N416 C411 1.328 . S
N416 C415 1.315 . S
H417 C411 0.929 . S
H418 C415 0.930 . S
H419 C407 0.929 . S
H420 C409 0.929 . S
O421 Co396 2.351 . S
O421 C424 1.244 . S
O422 Co396 2.155 . S
O422 C424 1.240 . S
O423 Co396 2.096 . S
O423 C404 1.247 . S
C424 O421 1.244 . S
C424 O422 1.240 . S
H425 C399 0.931 . S
H426 C408 0.931 . S
H427 C412 0.929 . S
H428 C414 0.930 1_545 S
Co429 N433 2.148 . S
Co429 N439 2.128 . S
Co429 N449 2.194 . S
Co429 O454 2.351 . S
Co429 O455 2.155 . S
Co429 O456 2.096 . S
C430 N433 1.301 . S
C430 N434 1.328 . S
C430 H435 0.930 . S
C431 C432 1.333 . S
C431 N433 1.317 . S
C431 H436 0.930 . S
C432 C431 1.333 . S
C432 N434 1.350 . S
C432 H458 0.931 . S
N433 Co429 2.148 . S
N433 C430 1.301 . S
N433 C431 1.317 . S
N434 C430 1.328 . S
N434 C432 1.350 . S
H435 C430 0.930 . S
H436 C431 0.930 . S
C437 O438 1.224 . S
C437 O456 1.247 . S
O438 C437 1.224 . S
N439 Co429 2.128 . S
N439 C440 1.355 . S
N439 C442 1.311 . S
C440 N439 1.355 . S
C440 C441 1.363 . S
C440 H452 0.929 . S
C441 C440 1.363 . S
C441 N443 1.375 . S
C441 H459 0.931 . S
C442 N439 1.311 . S
C442 N443 1.347 . S
C442 H453 0.929 . S
N443 C441 1.375 . S
N443 C442 1.347 . S
C444 C447 1.365 . S
C444 N449 1.328 . S
C444 H450 0.929 . S
C445 C446 1.362 . S
C445 C448 1.378 . S
C445 H460 0.929 . S
C446 C445 1.362 . S
C446 C447 1.366 . S
C447 C444 1.365 . S
C447 C446 1.366 . S
C447 H461 0.930 . S
C448 C445 1.378 . S
C448 N449 1.315 . S
C448 H451 0.930 . S
N449 Co429 2.194 . S
N449 C444 1.328 . S
N449 C448 1.315 . S
H450 C444 0.929 . S
H451 C448 0.930 . S
H452 C440 0.929 . S
H453 C442 0.929 . S
O454 Co429 2.351 . S
O454 C457 1.244 . S
O455 Co429 2.155 . S
O455 C457 1.240 . S
O456 Co429 2.096 . S
O456 C437 1.247 . S
C457 O454 1.244 . S
C457 O455 1.240 . S
H458 C432 0.931 . S
H459 C441 0.931 . S
H460 C445 0.929 . S
H461 C447 0.930 . S
Co462 N466 2.148 . S
Co462 N472 2.128 . S
Co462 N482 2.194 . S
Co462 O487 2.351 . S
Co462 O488 2.155 . S
Co462 O489 2.096 . S
C463 N466 1.301 . S
C463 N467 1.328 . S
C463 H468 0.930 . S
C464 C465 1.333 . S
C464 N466 1.317 . S
C464 H469 0.930 . S
C465 C464 1.333 . S
C465 N467 1.350 . S
C465 H491 0.931 . S
N466 Co462 2.148 . S
N466 C463 1.301 . S
N466 C464 1.317 . S
N467 C463 1.328 . S
N467 C465 1.350 . S
H468 C463 0.930 . S
H469 C464 0.930 . S
C470 O471 1.224 . S
C470 O489 1.247 . S
O471 C470 1.224 . S
N472 Co462 2.128 . S
N472 C473 1.355 . S
N472 C475 1.311 . S
C473 N472 1.355 . S
C473 C474 1.363 . S
C473 H485 0.929 . S
C474 C473 1.363 . S
C474 N476 1.375 . S
C474 H492 0.931 . S
C475 N472 1.311 . S
C475 N476 1.347 . S
C475 H486 0.929 . S
N476 C474 1.375 . S
N476 C475 1.347 . S
C477 C480 1.365 . S
C477 N482 1.328 . S
C477 H483 0.929 . S
C478 C479 1.362 . S
C478 C481 1.378 . S
C478 H493 0.929 . S
C479 C478 1.362 . S
C479 C480 1.366 . S
C480 C477 1.365 . S
C480 C479 1.366 . S
C480 H494 0.930 . S
C481 C478 1.378 . S
C481 N482 1.315 . S
C481 H484 0.930 . S
N482 Co462 2.194 . S
N482 C477 1.328 . S
N482 C481 1.315 . S
H483 C477 0.929 . S
H484 C481 0.930 . S
H485 C473 0.929 . S
H486 C475 0.929 . S
O487 Co462 2.351 . S
O487 C490 1.244 . S
O488 Co462 2.155 . S
O488 C490 1.240 . S
O489 Co462 2.096 . S
O489 C470 1.247 . S
C490 O487 1.244 . S
C490 O488 1.240 . S
H491 C465 0.931 . S
H492 C474 0.931 . S
H493 C478 0.929 . S
H494 C480 0.930 . S
Co495 N499 2.148 . S
Co495 N505 2.128 . S
Co495 N515 2.194 . S
Co495 O520 2.351 . S
Co495 O521 2.155 . S
Co495 O522 2.096 . S
C496 N499 1.301 . S
C496 N500 1.328 . S
C496 H501 0.930 . S
C497 C498 1.333 . S
C497 N499 1.317 . S
C497 H502 0.930 . S
C498 C497 1.333 . S
C498 N500 1.350 . S
C498 H524 0.931 . S
N499 Co495 2.148 . S
N499 C496 1.301 . S
N499 C497 1.317 . S
N500 C496 1.328 . S
N500 C498 1.350 . S
H501 C496 0.930 . S
H502 C497 0.930 . S
C503 O504 1.224 . S
C503 O522 1.247 . S
O504 C503 1.224 . S
N505 Co495 2.128 . S
N505 C506 1.355 . S
N505 C508 1.311 . S
C506 N505 1.355 . S
C506 C507 1.363 . S
C506 H518 0.929 . S
C507 C506 1.363 . S
C507 N509 1.375 . S
C507 H525 0.931 . S
C508 N505 1.311 . S
C508 N509 1.347 . S
C508 H519 0.929 . S
N509 C507 1.375 . S
N509 C508 1.347 . S
C510 C513 1.365 . S
C510 N515 1.328 . S
C510 H516 0.929 . S
C511 C512 1.362 . S
C511 C514 1.378 . S
C511 H526 0.929 . S
C512 C511 1.362 . S
C512 C513 1.366 . S
C513 C510 1.365 . S
C513 C512 1.366 . S
C513 H527 0.930 . S
C514 C511 1.378 . S
C514 N515 1.315 . S
C514 H517 0.930 . S
N515 Co495 2.194 . S
N515 C510 1.328 . S
N515 C514 1.315 . S
H516 C510 0.929 . S
H517 C514 0.930 . S
H518 C506 0.929 . S
H519 C508 0.929 . S
O520 Co495 2.351 . S
O520 C523 1.244 . S
O521 Co495 2.155 . S
O521 C523 1.240 . S
O522 Co495 2.096 . S
O522 C503 1.247 . S
C523 O520 1.244 . S
C523 O521 1.240 . S
H524 C498 0.931 . S
H525 C507 0.931 . S
H526 C511 0.929 . S
H527 C513 0.930 . S
Co528 N532 2.148 . S
Co528 N538 2.128 . S
Co528 N548 2.194 . S
Co528 O553 2.351 . S
Co528 O554 2.155 . S
Co528 O555 2.096 . S
C529 N532 1.301 . S
C529 N533 1.328 . S
C529 H534 0.930 . S
C530 C531 1.333 . S
C530 N532 1.317 . S
C530 H535 0.930 . S
C531 C530 1.333 . S
C531 N533 1.350 . S
C531 H557 0.931 . S
N532 Co528 2.148 . S
N532 C529 1.301 . S
N532 C530 1.317 . S
N533 C529 1.328 . S
N533 C531 1.350 . S
H534 C529 0.930 . S
H535 C530 0.930 . S
C536 O537 1.224 . S
C536 O555 1.247 . S
O537 C536 1.224 . S
N538 Co528 2.128 . S
N538 C539 1.355 . S
N538 C541 1.311 . S
C539 N538 1.355 . S
C539 C540 1.363 . S
C539 H551 0.929 . S
C540 C539 1.363 . S
C540 N542 1.375 . S
C540 H558 0.931 . S
C541 N538 1.311 . S
C541 N542 1.347 . S
C541 H552 0.929 . S
N542 C540 1.375 . S
N542 C541 1.347 . S
C543 C546 1.365 . S
C543 N548 1.328 . S
C543 H549 0.929 . S
C544 C545 1.362 . S
C544 C547 1.378 . S
C544 H559 0.929 . S
C545 C544 1.362 . S
C545 C546 1.366 . S
C546 C543 1.365 . S
C546 C545 1.366 . S
C546 H560 0.930 . S
C547 C544 1.378 . S
C547 N548 1.315 . S
C547 H550 0.930 . S
N548 Co528 2.194 . S
N548 C543 1.328 . S
N548 C547 1.315 . S
H549 C543 0.929 . S
H550 C547 0.930 . S
H551 C539 0.929 . S
H552 C541 0.929 . S
O553 Co528 2.351 . S
O553 C556 1.244 . S
O554 Co528 2.155 . S
O554 C556 1.240 . S
O555 Co528 2.096 . S
O555 C536 1.247 . S
C556 O553 1.244 . S
C556 O554 1.240 . S
H557 C531 0.931 . S
H558 C540 0.931 . S
H559 C544 0.929 . S
H560 C546 0.930 . S
Co561 N565 2.148 . S
Co561 N571 2.128 . S
Co561 N581 2.194 . S
Co561 O586 2.351 . S
Co561 O587 2.155 . S
Co561 O588 2.096 . S
C562 N565 1.301 . S
C562 N566 1.328 . S
C562 H567 0.930 . S
C563 C564 1.333 . S
C563 N565 1.317 . S
C563 H568 0.930 . S
C564 C563 1.333 . S
C564 N566 1.350 . S
C564 H590 0.931 . S
N565 Co561 2.148 . S
N565 C562 1.301 . S
N565 C563 1.317 . S
N566 C562 1.328 . S
N566 C564 1.350 . S
H567 C562 0.930 . S
H568 C563 0.930 . S
C569 O570 1.224 . S
C569 O588 1.247 . S
O570 C569 1.224 . S
N571 Co561 2.128 . S
N571 C572 1.355 . S
N571 C574 1.311 . S
C572 N571 1.355 . S
C572 C573 1.363 . S
C572 H584 0.929 . S
C573 C572 1.363 . S
C573 N575 1.375 . S
C573 H591 0.931 . S
C574 N571 1.311 . S
C574 N575 1.347 . S
C574 H585 0.929 . S
N575 C573 1.375 . S
N575 C574 1.347 . S
C576 C579 1.365 . S
C576 N581 1.328 . S
C576 H582 0.929 . S
C577 C578 1.362 . S
C577 C580 1.378 . S
C577 H592 0.929 . S
C578 C577 1.362 . S
C578 C579 1.366 . S
C579 C576 1.365 . S
C579 C578 1.366 . S
C579 H593 0.930 . S
C580 C577 1.378 . S
C580 N581 1.315 . S
C580 H583 0.930 . S
N581 Co561 2.194 . S
N581 C576 1.328 . S
N581 C580 1.315 . S
H582 C576 0.929 . S
H583 C580 0.930 . S
H584 C572 0.929 . S
H585 C574 0.929 . S
O586 Co561 2.351 . S
O586 C589 1.244 . S
O587 Co561 2.155 . S
O587 C589 1.240 . S
O588 Co561 2.096 . S
O588 C569 1.247 . S
C589 O586 1.244 . S
C589 O587 1.240 . S
H590 C564 0.931 . S
H591 C573 0.931 . S
H592 C577 0.929 . S
H593 C579 0.930 . S
Co594 N598 2.148 . S
Co594 N604 2.128 . S
Co594 N614 2.194 . S
Co594 O619 2.351 . S
Co594 O620 2.155 . S
Co594 O621 2.096 . S
C595 N598 1.301 . S
C595 N599 1.328 . S
C595 H600 0.930 . S
C596 C597 1.333 . S
C596 N598 1.317 . S
C596 H601 0.930 . S
C597 C596 1.333 . S
C597 N599 1.350 . S
C597 H623 0.931 . S
N598 Co594 2.148 . S
N598 C595 1.301 . S
N598 C596 1.317 . S
N599 C595 1.328 . S
N599 C597 1.350 . S
H600 C595 0.930 . S
H601 C596 0.930 . S
C602 O603 1.224 . S
C602 O621 1.247 . S
O603 C602 1.224 . S
N604 Co594 2.128 . S
N604 C605 1.355 . S
N604 C607 1.311 . S
C605 N604 1.355 . S
C605 C606 1.363 . S
C605 H617 0.929 . S
C606 C605 1.363 . S
C606 N608 1.375 . S
C606 H624 0.931 . S
C607 N604 1.311 . S
C607 N608 1.347 . S
C607 H618 0.929 . S
N608 C606 1.375 . S
N608 C607 1.347 . S
C609 C612 1.365 . S
C609 N614 1.328 . S
C609 H615 0.929 . S
C610 C611 1.362 . S
C610 C613 1.378 . S
C610 H625 0.929 . S
C611 C610 1.362 . S
C611 C612 1.366 . S
C612 C609 1.365 . S
C612 C611 1.366 . S
C612 H626 0.930 . S
C613 C610 1.378 . S
C613 N614 1.315 . S
C613 H616 0.930 . S
N614 Co594 2.194 . S
N614 C609 1.328 . S
N614 C613 1.315 . S
H615 C609 0.929 . S
H616 C613 0.930 . S
H617 C605 0.929 . S
H618 C607 0.929 . S
O619 Co594 2.351 . S
O619 C622 1.244 . S
O620 Co594 2.155 . S
O620 C622 1.240 . S
O621 Co594 2.096 . S
O621 C602 1.247 . S
C622 O619 1.244 . S
C622 O620 1.240 . S
H623 C597 0.931 . S
H624 C606 0.931 . S
H625 C610 0.929 . S
H626 C612 0.930 . S
Co627 N631 2.148 . S
Co627 N637 2.128 . S
Co627 N647 2.194 . S
Co627 O652 2.351 . S
Co627 O653 2.155 . S
Co627 O654 2.096 . S
C628 N631 1.301 . S
C628 N632 1.328 . S
C628 H633 0.930 . S
C629 C630 1.333 . S
C629 N631 1.317 . S
C629 H634 0.930 . S
C630 C629 1.333 . S
C630 N632 1.350 . S
C630 H656 0.931 . S
N631 Co627 2.148 . S
N631 C628 1.301 . S
N631 C629 1.317 . S
N632 C628 1.328 . S
N632 C630 1.350 . S
H633 C628 0.930 . S
H634 C629 0.930 . S
C635 O636 1.224 . S
C635 O654 1.247 . S
O636 C635 1.224 . S
N637 Co627 2.128 . S
N637 C638 1.355 . S
N637 C640 1.311 . S
C638 N637 1.355 . S
C638 C639 1.363 . S
C638 H650 0.929 . S
C639 C638 1.363 . S
C639 N641 1.375 . S
C639 H657 0.931 . S
C640 N637 1.311 . S
C640 N641 1.347 . S
C640 H651 0.929 . S
N641 C639 1.375 . S
N641 C640 1.347 . S
C642 C645 1.365 . S
C642 N647 1.328 . S
C642 H648 0.929 . S
C643 C644 1.362 . S
C643 C646 1.378 1_554 S
C643 H658 0.929 . S
C644 C643 1.362 . S
C644 C645 1.366 1_554 S
C645 C642 1.365 . S
C645 C644 1.366 1_556 S
C645 H659 0.930 1_556 S
C646 C643 1.378 1_556 S
C646 N647 1.315 . S
C646 H649 0.930 . S
N647 Co627 2.194 . S
N647 C642 1.328 . S
N647 C646 1.315 . S
H648 C642 0.929 . S
H649 C646 0.930 . S
H650 C638 0.929 . S
H651 C640 0.929 . S
O652 Co627 2.351 . S
O652 C655 1.244 . S
O653 Co627 2.155 . S
O653 C655 1.240 . S
O654 Co627 2.096 . S
O654 C635 1.247 . S
C655 O652 1.244 . S
C655 O653 1.240 . S
H656 C630 0.931 . S
H657 C639 0.931 . S
H658 C643 0.929 . S
H659 C645 0.930 1_554 S
Co660 N664 2.148 . S
Co660 N670 2.128 . S
Co660 N680 2.194 . S
Co660 O685 2.351 . S
Co660 O686 2.155 . S
Co660 O687 2.096 . S
C661 N664 1.301 . S
C661 N665 1.328 . S
C661 H666 0.930 . S
C662 C663 1.333 . S
C662 N664 1.317 . S
C662 H667 0.930 . S
C663 C662 1.333 . S
C663 N665 1.350 . S
C663 H689 0.931 . S
N664 Co660 2.148 . S
N664 C661 1.301 . S
N664 C662 1.317 . S
N665 C661 1.328 . S
N665 C663 1.350 . S
H666 C661 0.930 . S
H667 C662 0.930 . S
C668 O669 1.224 . S
C668 O687 1.247 . S
O669 C668 1.224 . S
N670 Co660 2.128 . S
N670 C671 1.355 . S
N670 C673 1.311 . S
C671 N670 1.355 . S
C671 C672 1.363 . S
C671 H683 0.929 . S
C672 C671 1.363 . S
C672 N674 1.375 . S
C672 H690 0.931 . S
C673 N670 1.311 . S
C673 N674 1.347 . S
C673 H684 0.929 . S
N674 C672 1.375 . S
N674 C673 1.347 . S
C675 C678 1.365 . S
C675 N680 1.328 . S
C675 H681 0.929 . S
C676 C677 1.362 . S
C676 C679 1.378 . S
C676 H691 0.929 . S
C677 C676 1.362 . S
C677 C678 1.366 . S
C678 C675 1.365 . S
C678 C677 1.366 . S
C678 H692 0.930 . S
C679 C676 1.378 . S
C679 N680 1.315 . S
C679 H682 0.930 . S
N680 Co660 2.194 . S
N680 C675 1.328 . S
N680 C679 1.315 . S
H681 C675 0.929 . S
H682 C679 0.930 . S
H683 C671 0.929 . S
H684 C673 0.929 . S
O685 Co660 2.351 . S
O685 C688 1.244 . S
O686 Co660 2.155 . S
O686 C688 1.240 . S
O687 Co660 2.096 . S
O687 C668 1.247 . S
C688 O685 1.244 . S
C688 O686 1.240 . S
H689 C663 0.931 . S
H690 C672 0.931 . S
H691 C676 0.929 . S
H692 C678 0.930 . S
Co693 N697 2.148 . S
Co693 N703 2.128 . S
Co693 N713 2.194 . S
Co693 O718 2.351 . S
Co693 O719 2.155 . S
Co693 O720 2.096 . S
C694 N697 1.301 . S
C694 N698 1.328 . S
C694 H699 0.930 . S
C695 C696 1.333 . S
C695 N697 1.317 . S
C695 H700 0.930 . S
C696 C695 1.333 . S
C696 N698 1.350 . S
C696 H722 0.931 . S
N697 Co693 2.148 . S
N697 C694 1.301 . S
N697 C695 1.317 . S
N698 C694 1.328 . S
N698 C696 1.350 . S
H699 C694 0.930 . S
H700 C695 0.930 . S
C701 O702 1.224 . S
C701 O720 1.247 . S
O702 C701 1.224 . S
N703 Co693 2.128 . S
N703 C704 1.355 . S
N703 C706 1.311 . S
C704 N703 1.355 . S
C704 C705 1.363 . S
C704 H716 0.929 . S
C705 C704 1.363 . S
C705 N707 1.375 . S
C705 H723 0.931 . S
C706 N703 1.311 . S
C706 N707 1.347 . S
C706 H717 0.929 . S
N707 C705 1.375 . S
N707 C706 1.347 . S
C708 C711 1.365 . S
C708 N713 1.328 . S
C708 H714 0.929 . S
C709 C710 1.362 . S
C709 C712 1.378 1_556 S
C709 H724 0.929 . S
C710 C709 1.362 . S
C710 C711 1.366 1_556 S
C711 C708 1.365 . S
C711 C710 1.366 1_554 S
C711 H725 0.930 1_554 S
C712 C709 1.378 1_554 S
C712 N713 1.315 . S
C712 H715 0.930 . S
N713 Co693 2.194 . S
N713 C708 1.328 . S
N713 C712 1.315 . S
H714 C708 0.929 . S
H715 C712 0.930 . S
H716 C704 0.929 . S
H717 C706 0.929 . S
O718 Co693 2.351 . S
O718 C721 1.244 . S
O719 Co693 2.155 . S
O719 C721 1.240 . S
O720 Co693 2.096 . S
O720 C701 1.247 . S
C721 O718 1.244 . S
C721 O719 1.240 . S
H722 C696 0.931 . S
H723 C705 0.931 . S
H724 C709 0.929 . S
H725 C711 0.930 1_556 S
Co726 N730 2.148 . S
Co726 N736 2.128 . S
Co726 N746 2.194 . S
Co726 O751 2.351 . S
Co726 O752 2.155 . S
Co726 O753 2.096 . S
C727 N730 1.301 . S
C727 N731 1.328 . S
C727 H732 0.930 . S
C728 C729 1.333 . S
C728 N730 1.317 . S
C728 H733 0.930 . S
C729 C728 1.333 . S
C729 N731 1.350 . S
C729 H755 0.931 . S
N730 Co726 2.148 . S
N730 C727 1.301 . S
N730 C728 1.317 . S
N731 C727 1.328 . S
N731 C729 1.350 . S
H732 C727 0.930 . S
H733 C728 0.930 . S
C734 O735 1.224 . S
C734 O753 1.247 . S
O735 C734 1.224 . S
N736 Co726 2.128 . S
N736 C737 1.355 . S
N736 C739 1.311 . S
C737 N736 1.355 . S
C737 C738 1.363 . S
C737 H749 0.929 . S
C738 C737 1.363 . S
C738 N740 1.375 . S
C738 H756 0.931 . S
C739 N736 1.311 . S
C739 N740 1.347 . S
C739 H750 0.929 . S
N740 C738 1.375 . S
N740 C739 1.347 . S
C741 C744 1.365 . S
C741 N746 1.328 . S
C741 H747 0.929 . S
C742 C743 1.362 . S
C742 C745 1.378 . S
C742 H757 0.929 . S
C743 C742 1.362 . S
C743 C744 1.366 . S
C744 C741 1.365 . S
C744 C743 1.366 . S
C744 H758 0.930 . S
C745 C742 1.378 . S
C745 N746 1.315 . S
C745 H748 0.930 . S
N746 Co726 2.194 . S
N746 C741 1.328 . S
N746 C745 1.315 . S
H747 C741 0.929 . S
H748 C745 0.930 . S
H749 C737 0.929 . S
H750 C739 0.929 . S
O751 Co726 2.351 . S
O751 C754 1.244 . S
O752 Co726 2.155 . S
O752 C754 1.240 . S
O753 Co726 2.096 . S
O753 C734 1.247 . S
C754 O751 1.244 . S
C754 O752 1.240 . S
H755 C729 0.931 . S
H756 C738 0.931 . S
H757 C742 0.929 . S
H758 C744 0.930 . S
Co759 N763 2.148 . S
Co759 N769 2.128 . S
Co759 N779 2.194 . S
Co759 O784 2.351 . S
Co759 O785 2.155 . S
Co759 O786 2.096 . S
C760 N763 1.301 . S
C760 N764 1.328 . S
C760 H765 0.930 . S
C761 C762 1.333 . S
C761 N763 1.317 . S
C761 H766 0.930 . S
C762 C761 1.333 . S
C762 N764 1.350 . S
C762 H788 0.931 . S
N763 Co759 2.148 . S
N763 C760 1.301 . S
N763 C761 1.317 . S
N764 C760 1.328 . S
N764 C762 1.350 . S
H765 C760 0.930 . S
H766 C761 0.930 . S
C767 O768 1.224 . S
C767 O786 1.247 . S
O768 C767 1.224 . S
N769 Co759 2.128 . S
N769 C770 1.355 . S
N769 C772 1.311 . S
C770 N769 1.355 . S
C770 C771 1.363 . S
C770 H782 0.929 . S
C771 C770 1.363 . S
C771 N773 1.375 . S
C771 H789 0.931 . S
C772 N769 1.311 . S
C772 N773 1.347 . S
C772 H783 0.929 . S
N773 C771 1.375 . S
N773 C772 1.347 . S
C774 C777 1.365 . S
C774 N779 1.328 . S
C774 H780 0.929 . S
C775 C776 1.362 . S
C775 C778 1.378 . S
C775 H790 0.929 . S
C776 C775 1.362 . S
C776 C777 1.366 . S
C777 C774 1.365 . S
C777 C776 1.366 . S
C777 H791 0.930 . S
C778 C775 1.378 . S
C778 N779 1.315 . S
C778 H781 0.930 . S
N779 Co759 2.194 . S
N779 C774 1.328 . S
N779 C778 1.315 . S
H780 C774 0.929 . S
H781 C778 0.930 . S
H782 C770 0.929 . S
H783 C772 0.929 . S
O784 Co759 2.351 . S
O784 C787 1.244 . S
O785 Co759 2.155 . S
O785 C787 1.240 . S
O786 Co759 2.096 . S
O786 C767 1.247 . S
C787 O784 1.244 . S
C787 O785 1.240 . S
H788 C762 0.931 . S
H789 C771 0.931 . S
H790 C775 0.929 . S
H791 C777 0.930 . S
Co792 N796 2.148 . S
Co792 N802 2.128 . S
Co792 N812 2.194 . S
Co792 O817 2.351 . S
Co792 O818 2.155 . S
Co792 O819 2.096 . S
C793 N796 1.301 . S
C793 N797 1.328 . S
C793 H798 0.930 . S
C794 C795 1.333 . S
C794 N796 1.317 . S
C794 H799 0.930 . S
C795 C794 1.333 . S
C795 N797 1.350 . S
C795 H821 0.931 . S
N796 Co792 2.148 . S
N796 C793 1.301 . S
N796 C794 1.317 . S
N797 C793 1.328 . S
N797 C795 1.350 . S
H798 C793 0.930 . S
H799 C794 0.930 . S
C800 O801 1.224 . S
C800 O819 1.247 . S
O801 C800 1.224 . S
N802 Co792 2.128 . S
N802 C803 1.355 . S
N802 C805 1.311 . S
C803 N802 1.355 . S
C803 C804 1.363 . S
C803 H815 0.929 . S
C804 C803 1.363 . S
C804 N806 1.375 . S
C804 H822 0.931 . S
C805 N802 1.311 . S
C805 N806 1.347 . S
C805 H816 0.929 . S
N806 C804 1.375 . S
N806 C805 1.347 . S
C807 C810 1.365 . S
C807 N812 1.328 . S
C807 H813 0.929 . S
C808 C809 1.362 . S
C808 C811 1.378 . S
C808 H823 0.929 . S
C809 C808 1.362 . S
C809 C810 1.366 . S
C810 C807 1.365 . S
C810 C809 1.366 . S
C810 H824 0.930 . S
C811 C808 1.378 . S
C811 N812 1.315 . S
C811 H814 0.930 . S
N812 Co792 2.194 . S
N812 C807 1.328 . S
N812 C811 1.315 . S
H813 C807 0.929 . S
H814 C811 0.930 . S
H815 C803 0.929 . S
H816 C805 0.929 . S
O817 Co792 2.351 . S
O817 C820 1.244 . S
O818 Co792 2.155 . S
O818 C820 1.240 . S
O819 Co792 2.096 . S
O819 C800 1.247 . S
C820 O817 1.244 . S
C820 O818 1.240 . S
H821 C795 0.931 . S
H822 C804 0.931 . S
H823 C808 0.929 . S
H824 C810 0.930 . S
Co825 N829 2.148 . S
Co825 N835 2.128 . S
Co825 N845 2.194 . S
Co825 O850 2.351 . S
Co825 O851 2.155 . S
Co825 O852 2.096 . S
C826 N829 1.301 . S
C826 N830 1.328 . S
C826 H831 0.930 . S
C827 C828 1.333 . S
C827 N829 1.317 . S
C827 H832 0.930 . S
C828 C827 1.333 . S
C828 N830 1.350 . S
C828 H854 0.931 . S
N829 Co825 2.148 . S
N829 C826 1.301 . S
N829 C827 1.317 . S
N830 C826 1.328 . S
N830 C828 1.350 . S
H831 C826 0.930 . S
H832 C827 0.930 . S
C833 O834 1.224 . S
C833 O852 1.247 . S
O834 C833 1.224 . S
N835 Co825 2.128 . S
N835 C836 1.355 . S
N835 C838 1.311 . S
C836 N835 1.355 . S
C836 C837 1.363 . S
C836 H848 0.929 . S
C837 C836 1.363 . S
C837 N839 1.375 . S
C837 H855 0.931 . S
C838 N835 1.311 . S
C838 N839 1.347 . S
C838 H849 0.929 . S
N839 C837 1.375 . S
N839 C838 1.347 . S
C840 C843 1.365 . S
C840 N845 1.328 . S
C840 H846 0.929 . S
C841 C842 1.362 . S
C841 C844 1.378 . S
C841 H856 0.929 . S
C842 C841 1.362 . S
C842 C843 1.366 . S
C843 C840 1.365 . S
C843 C842 1.366 . S
C843 H857 0.930 . S
C844 C841 1.378 . S
C844 N845 1.315 . S
C844 H847 0.930 . S
N845 Co825 2.194 . S
N845 C840 1.328 . S
N845 C844 1.315 . S
H846 C840 0.929 . S
H847 C844 0.930 . S
H848 C836 0.929 . S
H849 C838 0.929 . S
O850 Co825 2.351 . S
O850 C853 1.244 . S
O851 Co825 2.155 . S
O851 C853 1.240 . S
O852 Co825 2.096 . S
O852 C833 1.247 . S
C853 O850 1.244 . S
C853 O851 1.240 . S
H854 C828 0.931 . S
H855 C837 0.931 . S
H856 C841 0.929 . S
H857 C843 0.930 . S
Co858 N862 2.148 . S
Co858 N868 2.128 . S
Co858 N878 2.194 . S
Co858 O883 2.351 . S
Co858 O884 2.155 . S
Co858 O885 2.096 . S
C859 N862 1.301 . S
C859 N863 1.328 . S
C859 H864 0.930 . S
C860 C861 1.333 . S
C860 N862 1.317 . S
C860 H865 0.930 . S
C861 C860 1.333 . S
C861 N863 1.350 . S
C861 H887 0.931 . S
N862 Co858 2.148 . S
N862 C859 1.301 . S
N862 C860 1.317 . S
N863 C859 1.328 . S
N863 C861 1.350 . S
H864 C859 0.930 . S
H865 C860 0.930 . S
C866 O867 1.224 . S
C866 O885 1.247 . S
O867 C866 1.224 . S
N868 Co858 2.128 . S
N868 C869 1.355 . S
N868 C871 1.311 . S
C869 N868 1.355 . S
C869 C870 1.363 . S
C869 H881 0.929 . S
C870 C869 1.363 . S
C870 N872 1.375 . S
C870 H888 0.931 . S
C871 N868 1.311 . S
C871 N872 1.347 . S
C871 H882 0.929 . S
N872 C870 1.375 . S
N872 C871 1.347 . S
C873 C876 1.365 . S
C873 N878 1.328 . S
C873 H879 0.929 . S
C874 C875 1.362 . S
C874 C877 1.378 . S
C874 H889 0.929 . S
C875 C874 1.362 . S
C875 C876 1.366 . S
C876 C873 1.365 . S
C876 C875 1.366 . S
C876 H890 0.930 . S
C877 C874 1.378 . S
C877 N878 1.315 . S
C877 H880 0.930 . S
N878 Co858 2.194 . S
N878 C873 1.328 . S
N878 C877 1.315 . S
H879 C873 0.929 . S
H880 C877 0.930 . S
H881 C869 0.929 . S
H882 C871 0.929 . S
O883 Co858 2.351 . S
O883 C886 1.244 . S
O884 Co858 2.155 . S
O884 C886 1.240 . S
O885 Co858 2.096 . S
O885 C866 1.247 . S
C886 O883 1.244 . S
C886 O884 1.240 . S
H887 C861 0.931 . S
H888 C870 0.931 . S
H889 C874 0.929 . S
H890 C876 0.930 . S
Co891 N895 2.148 . S
Co891 N901 2.128 . S
Co891 N911 2.194 . S
Co891 O916 2.351 . S
Co891 O917 2.155 . S
Co891 O918 2.096 . S
C892 N895 1.301 . S
C892 N896 1.328 . S
C892 H897 0.930 . S
C893 C894 1.333 . S
C893 N895 1.317 . S
C893 H898 0.930 . S
C894 C893 1.333 . S
C894 N896 1.350 . S
C894 H920 0.931 . S
N895 Co891 2.148 . S
N895 C892 1.301 . S
N895 C893 1.317 . S
N896 C892 1.328 . S
N896 C894 1.350 . S
H897 C892 0.930 . S
H898 C893 0.930 . S
C899 O900 1.224 . S
C899 O918 1.247 . S
O900 C899 1.224 . S
N901 Co891 2.128 . S
N901 C902 1.355 . S
N901 C904 1.311 . S
C902 N901 1.355 . S
C902 C903 1.363 . S
C902 H914 0.929 . S
C903 C902 1.363 . S
C903 N905 1.375 . S
C903 H921 0.931 . S
C904 N901 1.311 . S
C904 N905 1.347 . S
C904 H915 0.929 . S
N905 C903 1.375 . S
N905 C904 1.347 . S
C906 C909 1.365 . S
C906 N911 1.328 . S
C906 H912 0.929 . S
C907 C908 1.362 . S
C907 C910 1.378 . S
C907 H922 0.929 . S
C908 C907 1.362 . S
C908 C909 1.366 . S
C909 C906 1.365 . S
C909 C908 1.366 . S
C909 H923 0.930 . S
C910 C907 1.378 . S
C910 N911 1.315 . S
C910 H913 0.930 . S
N911 Co891 2.194 . S
N911 C906 1.328 . S
N911 C910 1.315 . S
H912 C906 0.929 . S
H913 C910 0.930 . S
H914 C902 0.929 . S
H915 C904 0.929 . S
O916 Co891 2.351 . S
O916 C919 1.244 . S
O917 Co891 2.155 . S
O917 C919 1.240 . S
O918 Co891 2.096 . S
O918 C899 1.247 . S
C919 O916 1.244 . S
C919 O917 1.240 . S
H920 C894 0.931 . S
H921 C903 0.931 . S
H922 C907 0.929 . S
H923 C909 0.930 . S
Co924 N928 2.148 . S
Co924 N934 2.128 . S
Co924 N944 2.194 . S
Co924 O949 2.351 . S
Co924 O950 2.155 . S
Co924 O951 2.096 . S
C925 N928 1.301 . S
C925 N929 1.328 . S
C925 H930 0.930 . S
C926 C927 1.333 . S
C926 N928 1.317 . S
C926 H931 0.930 . S
C927 C926 1.333 . S
C927 N929 1.350 . S
C927 H953 0.931 . S
N928 Co924 2.148 . S
N928 C925 1.301 . S
N928 C926 1.317 . S
N929 C925 1.328 . S
N929 C927 1.350 . S
H930 C925 0.930 . S
H931 C926 0.930 . S
C932 O933 1.224 . S
C932 O951 1.247 . S
O933 C932 1.224 . S
N934 Co924 2.128 . S
N934 C935 1.355 . S
N934 C937 1.311 . S
C935 N934 1.355 . S
C935 C936 1.363 . S
C935 H947 0.929 . S
C936 C935 1.363 . S
C936 N938 1.375 . S
C936 H954 0.931 . S
C937 N934 1.311 . S
C937 N938 1.347 . S
C937 H948 0.929 . S
N938 C936 1.375 . S
N938 C937 1.347 . S
C939 C942 1.365 . S
C939 N944 1.328 . S
C939 H945 0.929 . S
C940 C941 1.362 . S
C940 C943 1.378 . S
C940 H955 0.929 . S
C941 C940 1.362 . S
C941 C942 1.366 . S
C942 C939 1.365 . S
C942 C941 1.366 . S
C942 H956 0.930 . S
C943 C940 1.378 . S
C943 N944 1.315 . S
C943 H946 0.930 . S
N944 Co924 2.194 . S
N944 C939 1.328 . S
N944 C943 1.315 . S
H945 C939 0.929 . S
H946 C943 0.930 . S
H947 C935 0.929 . S
H948 C937 0.929 . S
O949 Co924 2.351 . S
O949 C952 1.244 . S
O950 Co924 2.155 . S
O950 C952 1.240 . S
O951 Co924 2.096 . S
O951 C932 1.247 . S
C952 O949 1.244 . S
C952 O950 1.240 . S
H953 C927 0.931 . S
H954 C936 0.931 . S
H955 C940 0.929 . S
H956 C942 0.930 . S
Co957 N961 2.148 . S
Co957 N967 2.128 . S
Co957 N977 2.194 . S
Co957 O982 2.351 . S
Co957 O983 2.155 . S
Co957 O984 2.096 . S
C958 N961 1.301 . S
C958 N962 1.328 . S
C958 H963 0.930 . S
C959 C960 1.333 . S
C959 N961 1.317 . S
C959 H964 0.930 . S
C960 C959 1.333 . S
C960 N962 1.350 . S
C960 H986 0.931 . S
N961 Co957 2.148 . S
N961 C958 1.301 . S
N961 C959 1.317 . S
N962 C958 1.328 . S
N962 C960 1.350 . S
H963 C958 0.930 . S
H964 C959 0.930 . S
C965 O966 1.224 . S
C965 O984 1.247 . S
O966 C965 1.224 . S
N967 Co957 2.128 . S
N967 C968 1.355 . S
N967 C970 1.311 . S
C968 N967 1.355 . S
C968 C969 1.363 . S
C968 H980 0.929 . S
C969 C968 1.363 . S
C969 N971 1.375 . S
C969 H987 0.931 . S
C970 N967 1.311 . S
C970 N971 1.347 . S
C970 H981 0.929 . S
N971 C969 1.375 . S
N971 C970 1.347 . S
C972 C975 1.365 . S
C972 N977 1.328 . S
C972 H978 0.929 . S
C973 C974 1.362 . S
C973 C976 1.378 . S
C973 H988 0.929 . S
C974 C973 1.362 . S
C974 C975 1.366 . S
C975 C972 1.365 . S
C975 C974 1.366 . S
C975 H989 0.930 . S
C976 C973 1.378 . S
C976 N977 1.315 . S
C976 H979 0.930 . S
N977 Co957 2.194 . S
N977 C972 1.328 . S
N977 C976 1.315 . S
H978 C972 0.929 . S
H979 C976 0.930 . S
H980 C968 0.929 . S
H981 C970 0.929 . S
O982 Co957 2.351 . S
O982 C985 1.244 . S
O983 Co957 2.155 . S
O983 C985 1.240 . S
O984 Co957 2.096 . S
O984 C965 1.247 . S
C985 O982 1.244 . S
C985 O983 1.240 . S
H986 C960 0.931 . S
H987 C969 0.931 . S
H988 C973 0.929 . S
H989 C975 0.930 . S
Co990 N994 2.148 . S
Co990 N1000 2.128 . S
Co990 N1010 2.194 . S
Co990 O1015 2.351 . S
Co990 O1016 2.155 . S
Co990 O1017 2.096 . S
C991 N994 1.301 . S
C991 N995 1.328 . S
C991 H996 0.930 . S
C992 C993 1.333 . S
C992 N994 1.317 . S
C992 H997 0.930 . S
C993 C992 1.333 . S
C993 N995 1.350 . S
C993 H1019 0.931 . S
N994 Co990 2.148 . S
N994 C991 1.301 . S
N994 C992 1.317 . S
N995 C991 1.328 . S
N995 C993 1.350 . S
H996 C991 0.930 . S
H997 C992 0.930 . S
C998 O999 1.224 . S
C998 O1017 1.247 . S
O999 C998 1.224 . S
N1000 Co990 2.128 . S
N1000 C1001 1.355 . S
N1000 C1003 1.311 . S
C1001 N1000 1.355 . S
C1001 C1002 1.363 . S
C1001 H1013 0.929 . S
C1002 C1001 1.363 . S
C1002 N1004 1.375 . S
C1002 H1020 0.931 . S
C1003 N1000 1.311 . S
C1003 N1004 1.347 . S
C1003 H1014 0.929 . S
N1004 C1002 1.375 . S
N1004 C1003 1.347 . S
C1005 C1008 1.365 . S
C1005 N1010 1.328 . S
C1005 H1011 0.929 . S
C1006 C1007 1.362 . S
C1006 C1009 1.378 . S
C1006 H1021 0.929 . S
C1007 C1006 1.362 . S
C1007 C1008 1.366 . S
C1008 C1005 1.365 . S
C1008 C1007 1.366 . S
C1008 H1022 0.930 . S
C1009 C1006 1.378 . S
C1009 N1010 1.315 . S
C1009 H1012 0.930 . S
N1010 Co990 2.194 . S
N1010 C1005 1.328 . S
N1010 C1009 1.315 . S
H1011 C1005 0.929 . S
H1012 C1009 0.930 . S
H1013 C1001 0.929 . S
H1014 C1003 0.929 . S
O1015 Co990 2.351 . S
O1015 C1018 1.244 . S
O1016 Co990 2.155 . S
O1016 C1018 1.240 . S
O1017 Co990 2.096 . S
O1017 C998 1.247 . S
C1018 O1015 1.244 . S
C1018 O1016 1.240 . S
H1019 C993 0.931 . S
H1020 C1002 0.931 . S
H1021 C1006 0.929 . S
H1022 C1008 0.930 . S
Co1023 N1027 2.148 . S
Co1023 N1033 2.128 . S
Co1023 N1043 2.194 . S
Co1023 O1048 2.351 . S
Co1023 O1049 2.155 . S
Co1023 O1050 2.096 . S
C1024 N1027 1.301 . S
C1024 N1028 1.328 . S
C1024 H1029 0.930 . S
C1025 C1026 1.333 . S
C1025 N1027 1.317 . S
C1025 H1030 0.930 . S
C1026 C1025 1.333 . S
C1026 N1028 1.350 . S
C1026 H1052 0.931 . S
N1027 Co1023 2.148 . S
N1027 C1024 1.301 . S
N1027 C1025 1.317 . S
N1028 C1024 1.328 . S
N1028 C1026 1.350 . S
H1029 C1024 0.930 . S
H1030 C1025 0.930 . S
C1031 O1032 1.224 . S
C1031 O1050 1.247 . S
O1032 C1031 1.224 . S
N1033 Co1023 2.128 . S
N1033 C1034 1.355 . S
N1033 C1036 1.311 . S
C1034 N1033 1.355 . S
C1034 C1035 1.363 . S
C1034 H1046 0.929 . S
C1035 C1034 1.363 . S
C1035 N1037 1.375 . S
C1035 H1053 0.931 . S
C1036 N1033 1.311 . S
C1036 N1037 1.347 . S
C1036 H1047 0.929 . S
N1037 C1035 1.375 . S
N1037 C1036 1.347 . S
C1038 C1041 1.365 . S
C1038 N1043 1.328 . S
C1038 H1044 0.929 . S
C1039 C1040 1.362 . S
C1039 C1042 1.378 . S
C1039 H1054 0.929 . S
C1040 C1039 1.362 . S
C1040 C1041 1.366 . S
C1041 C1038 1.365 . S
C1041 C1040 1.366 . S
C1041 H1055 0.930 . S
C1042 C1039 1.378 . S
C1042 N1043 1.315 . S
C1042 H1045 0.930 . S
N1043 Co1023 2.194 . S
N1043 C1038 1.328 . S
N1043 C1042 1.315 . S
H1044 C1038 0.929 . S
H1045 C1042 0.930 . S
H1046 C1034 0.929 . S
H1047 C1036 0.929 . S
O1048 Co1023 2.351 . S
O1048 C1051 1.244 . S
O1049 Co1023 2.155 . S
O1049 C1051 1.240 . S
O1050 Co1023 2.096 . S
O1050 C1031 1.247 . S
C1051 O1048 1.244 . S
C1051 O1049 1.240 . S
H1052 C1026 0.931 . S
H1053 C1035 0.931 . S
H1054 C1039 0.929 . S
H1055 C1041 0.930 . S
Co1056 N1060 2.148 . S
Co1056 N1066 2.128 . S
Co1056 N1076 2.194 . S
Co1056 O1081 2.351 . S
Co1056 O1082 2.155 . S
Co1056 O1083 2.096 . S
C1057 N1060 1.301 . S
C1057 N1061 1.328 . S
C1057 H1062 0.930 . S
C1058 C1059 1.333 . S
C1058 N1060 1.317 . S
C1058 H1063 0.930 . S
C1059 C1058 1.333 . S
C1059 N1061 1.350 . S
C1059 H1085 0.931 . S
N1060 Co1056 2.148 . S
N1060 C1057 1.301 . S
N1060 C1058 1.317 . S
N1061 C1057 1.328 . S
N1061 C1059 1.350 . S
H1062 C1057 0.930 . S
H1063 C1058 0.930 . S
C1064 O1065 1.224 . S
C1064 O1083 1.247 . S
O1065 C1064 1.224 . S
N1066 Co1056 2.128 . S
N1066 C1067 1.355 . S
N1066 C1069 1.311 . S
C1067 N1066 1.355 . S
C1067 C1068 1.363 . S
C1067 H1079 0.929 . S
C1068 C1067 1.363 . S
C1068 N1070 1.375 . S
C1068 H1086 0.931 . S
C1069 N1066 1.311 . S
C1069 N1070 1.347 . S
C1069 H1080 0.929 . S
N1070 C1068 1.375 . S
N1070 C1069 1.347 . S
C1071 C1074 1.365 . S
C1071 N1076 1.328 . S
C1071 H1077 0.929 . S
C1072 C1073 1.362 . S
C1072 C1075 1.378 . S
C1072 H1087 0.929 . S
C1073 C1072 1.362 . S
C1073 C1074 1.366 . S
C1074 C1071 1.365 . S
C1074 C1073 1.366 . S
C1074 H1088 0.930 . S
C1075 C1072 1.378 . S
C1075 N1076 1.315 . S
C1075 H1078 0.930 . S
N1076 Co1056 2.194 . S
N1076 C1071 1.328 . S
N1076 C1075 1.315 . S
H1077 C1071 0.929 . S
H1078 C1075 0.930 . S
H1079 C1067 0.929 . S
H1080 C1069 0.929 . S
O1081 Co1056 2.351 . S
O1081 C1084 1.244 . S
O1082 Co1056 2.155 . S
O1082 C1084 1.240 . S
O1083 Co1056 2.096 . S
O1083 C1064 1.247 . S
C1084 O1081 1.244 . S
C1084 O1082 1.240 . S
H1085 C1059 0.931 . S
H1086 C1068 0.931 . S
H1087 C1072 0.929 . S
H1088 C1074 0.930 . S
Co1089 N1093 2.148 . S
Co1089 N1099 2.128 . S
Co1089 N1109 2.194 . S
Co1089 O1114 2.351 . S
Co1089 O1115 2.155 . S
Co1089 O1116 2.096 . S
C1090 N1093 1.301 . S
C1090 N1094 1.328 . S
C1090 H1095 0.930 . S
C1091 C1092 1.333 . S
C1091 N1093 1.317 . S
C1091 H1096 0.930 . S
C1092 C1091 1.333 . S
C1092 N1094 1.350 . S
C1092 H1118 0.931 . S
N1093 Co1089 2.148 . S
N1093 C1090 1.301 . S
N1093 C1091 1.317 . S
N1094 C1090 1.328 . S
N1094 C1092 1.350 . S
H1095 C1090 0.930 . S
H1096 C1091 0.930 . S
C1097 O1098 1.224 . S
C1097 O1116 1.247 . S
O1098 C1097 1.224 . S
N1099 Co1089 2.128 . S
N1099 C1100 1.355 . S
N1099 C1102 1.311 . S
C1100 N1099 1.355 . S
C1100 C1101 1.363 . S
C1100 H1112 0.929 . S
C1101 C1100 1.363 . S
C1101 N1103 1.375 . S
C1101 H1119 0.931 . S
C1102 N1099 1.311 . S
C1102 N1103 1.347 . S
C1102 H1113 0.929 . S
N1103 C1101 1.375 . S
N1103 C1102 1.347 . S
C1104 C1107 1.365 . S
C1104 N1109 1.328 . S
C1104 H1110 0.929 . S
C1105 C1106 1.362 . S
C1105 C1108 1.378 . S
C1105 H1120 0.929 . S
C1106 C1105 1.362 . S
C1106 C1107 1.366 . S
C1107 C1104 1.365 . S
C1107 C1106 1.366 . S
C1107 H1121 0.930 . S
C1108 C1105 1.378 . S
C1108 N1109 1.315 . S
C1108 H1111 0.930 . S
N1109 Co1089 2.194 . S
N1109 C1104 1.328 . S
N1109 C1108 1.315 . S
H1110 C1104 0.929 . S
H1111 C1108 0.930 . S
H1112 C1100 0.929 . S
H1113 C1102 0.929 . S
O1114 Co1089 2.351 . S
O1114 C1117 1.244 . S
O1115 Co1089 2.155 . S
O1115 C1117 1.240 . S
O1116 Co1089 2.096 . S
O1116 C1097 1.247 . S
C1117 O1114 1.244 . S
C1117 O1115 1.240 . S
H1118 C1092 0.931 . S
H1119 C1101 0.931 . S
H1120 C1105 0.929 . S
H1121 C1107 0.930 . S
Co1122 N1126 2.148 . S
Co1122 N1132 2.128 . S
Co1122 N1142 2.194 . S
Co1122 O1147 2.351 . S
Co1122 O1148 2.155 . S
Co1122 O1149 2.096 . S
C1123 N1126 1.301 . S
C1123 N1127 1.328 . S
C1123 H1128 0.930 . S
C1124 C1125 1.333 . S
C1124 N1126 1.317 . S
C1124 H1129 0.930 . S
C1125 C1124 1.333 . S
C1125 N1127 1.350 . S
C1125 H1151 0.931 . S
N1126 Co1122 2.148 . S
N1126 C1123 1.301 . S
N1126 C1124 1.317 . S
N1127 C1123 1.328 . S
N1127 C1125 1.350 . S
H1128 C1123 0.930 . S
H1129 C1124 0.930 . S
C1130 O1131 1.224 . S
C1130 O1149 1.247 . S
O1131 C1130 1.224 . S
N1132 Co1122 2.128 . S
N1132 C1133 1.355 . S
N1132 C1135 1.311 . S
C1133 N1132 1.355 . S
C1133 C1134 1.363 . S
C1133 H1145 0.929 . S
C1134 C1133 1.363 . S
C1134 N1136 1.375 . S
C1134 H1152 0.931 . S
C1135 N1132 1.311 . S
C1135 N1136 1.347 . S
C1135 H1146 0.929 . S
N1136 C1134 1.375 . S
N1136 C1135 1.347 . S
C1137 C1140 1.365 . S
C1137 N1142 1.328 . S
C1137 H1143 0.929 . S
C1138 C1139 1.362 . S
C1138 C1141 1.378 . S
C1138 H1153 0.929 . S
C1139 C1138 1.362 . S
C1139 C1140 1.366 . S
C1140 C1137 1.365 . S
C1140 C1139 1.366 . S
C1140 H1154 0.930 . S
C1141 C1138 1.378 . S
C1141 N1142 1.315 . S
C1141 H1144 0.930 . S
N1142 Co1122 2.194 . S
N1142 C1137 1.328 . S
N1142 C1141 1.315 . S
H1143 C1137 0.929 . S
H1144 C1141 0.930 . S
H1145 C1133 0.929 . S
H1146 C1135 0.929 . S
O1147 Co1122 2.351 . S
O1147 C1150 1.244 . S
O1148 Co1122 2.155 . S
O1148 C1150 1.240 . S
O1149 Co1122 2.096 . S
O1149 C1130 1.247 . S
C1150 O1147 1.244 . S
C1150 O1148 1.240 . S
H1151 C1125 0.931 . S
H1152 C1134 0.931 . S
H1153 C1138 0.929 . S
H1154 C1140 0.930 . S
Co1155 N1159 2.148 . S
Co1155 N1165 2.128 . S
Co1155 N1175 2.194 . S
Co1155 O1180 2.351 . S
Co1155 O1181 2.155 . S
Co1155 O1182 2.096 . S
C1156 N1159 1.301 . S
C1156 N1160 1.328 . S
C1156 H1161 0.930 . S
C1157 C1158 1.333 . S
C1157 N1159 1.317 . S
C1157 H1162 0.930 . S
C1158 C1157 1.333 . S
C1158 N1160 1.350 . S
C1158 H1184 0.931 . S
N1159 Co1155 2.148 . S
N1159 C1156 1.301 . S
N1159 C1157 1.317 . S
N1160 C1156 1.328 . S
N1160 C1158 1.350 . S
H1161 C1156 0.930 . S
H1162 C1157 0.930 . S
C1163 O1164 1.224 . S
C1163 O1182 1.247 . S
O1164 C1163 1.224 . S
N1165 Co1155 2.128 . S
N1165 C1166 1.355 . S
N1165 C1168 1.311 . S
C1166 N1165 1.355 . S
C1166 C1167 1.363 . S
C1166 H1178 0.929 . S
C1167 C1166 1.363 . S
C1167 N1169 1.375 . S
C1167 H1185 0.931 . S
C1168 N1165 1.311 . S
C1168 N1169 1.347 . S
C1168 H1179 0.929 . S
N1169 C1167 1.375 . S
N1169 C1168 1.347 . S
C1170 C1173 1.365 . S
C1170 N1175 1.328 . S
C1170 H1176 0.929 . S
C1171 C1172 1.362 . S
C1171 C1174 1.378 . S
C1171 H1186 0.929 . S
C1172 C1171 1.362 . S
C1172 C1173 1.366 . S
C1173 C1170 1.365 . S
C1173 C1172 1.366 . S
C1173 H1187 0.930 . S
C1174 C1171 1.378 . S
C1174 N1175 1.315 . S
C1174 H1177 0.930 . S
N1175 Co1155 2.194 . S
N1175 C1170 1.328 . S
N1175 C1174 1.315 . S
H1176 C1170 0.929 . S
H1177 C1174 0.930 . S
H1178 C1166 0.929 . S
H1179 C1168 0.929 . S
O1180 Co1155 2.351 . S
O1180 C1183 1.244 . S
O1181 Co1155 2.155 . S
O1181 C1183 1.240 . S
O1182 Co1155 2.096 . S
O1182 C1163 1.247 . S
C1183 O1180 1.244 . S
C1183 O1181 1.240 . S
H1184 C1158 0.931 . S
H1185 C1167 0.931 . S
H1186 C1171 0.929 . S
H1187 C1173 0.930 . S
Co1188 N1192 2.148 . S
Co1188 N1198 2.128 . S
Co1188 N1208 2.194 . S
Co1188 O1213 2.351 . S
Co1188 O1214 2.155 . S
Co1188 O1215 2.096 . S
C1189 N1192 1.301 . S
C1189 N1193 1.328 . S
C1189 H1194 0.930 . S
C1190 C1191 1.333 . S
C1190 N1192 1.317 . S
C1190 H1195 0.930 . S
C1191 C1190 1.333 . S
C1191 N1193 1.350 . S
C1191 H1217 0.931 . S
N1192 Co1188 2.148 . S
N1192 C1189 1.301 . S
N1192 C1190 1.317 . S
N1193 C1189 1.328 . S
N1193 C1191 1.350 . S
H1194 C1189 0.930 . S
H1195 C1190 0.930 . S
C1196 O1197 1.224 . S
C1196 O1215 1.247 . S
O1197 C1196 1.224 . S
N1198 Co1188 2.128 . S
N1198 C1199 1.355 . S
N1198 C1201 1.311 . S
C1199 N1198 1.355 . S
C1199 C1200 1.363 . S
C1199 H1211 0.929 . S
C1200 C1199 1.363 . S
C1200 N1202 1.375 . S
C1200 H1218 0.931 . S
C1201 N1198 1.311 . S
C1201 N1202 1.347 . S
C1201 H1212 0.929 . S
N1202 C1200 1.375 . S
N1202 C1201 1.347 . S
C1203 C1206 1.365 . S
C1203 N1208 1.328 . S
C1203 H1209 0.929 . S
C1204 C1205 1.362 . S
C1204 C1207 1.378 . S
C1204 H1219 0.929 . S
C1205 C1204 1.362 . S
C1205 C1206 1.366 . S
C1206 C1203 1.365 . S
C1206 C1205 1.366 . S
C1206 H1220 0.930 . S
C1207 C1204 1.378 . S
C1207 N1208 1.315 . S
C1207 H1210 0.930 . S
N1208 Co1188 2.194 . S
N1208 C1203 1.328 . S
N1208 C1207 1.315 . S
H1209 C1203 0.929 . S
H1210 C1207 0.930 . S
H1211 C1199 0.929 . S
H1212 C1201 0.929 . S
O1213 Co1188 2.351 . S
O1213 C1216 1.244 . S
O1214 Co1188 2.155 . S
O1214 C1216 1.240 . S
O1215 Co1188 2.096 . S
O1215 C1196 1.247 . S
C1216 O1213 1.244 . S
C1216 O1214 1.240 . S
H1217 C1191 0.931 . S
H1218 C1200 0.931 . S
H1219 C1204 0.929 . S
H1220 C1206 0.930 . S
Co1221 N1225 2.148 . S
Co1221 N1231 2.128 . S
Co1221 N1241 2.194 . S
Co1221 O1246 2.351 . S
Co1221 O1247 2.155 . S
Co1221 O1248 2.096 . S
C1222 N1225 1.301 . S
C1222 N1226 1.328 . S
C1222 H1227 0.930 . S
C1223 C1224 1.333 . S
C1223 N1225 1.317 . S
C1223 H1228 0.930 . S
C1224 C1223 1.333 . S
C1224 N1226 1.350 . S
C1224 H1250 0.931 . S
N1225 Co1221 2.148 . S
N1225 C1222 1.301 . S
N1225 C1223 1.317 . S
N1226 C1222 1.328 . S
N1226 C1224 1.350 . S
H1227 C1222 0.930 . S
H1228 C1223 0.930 . S
C1229 O1230 1.224 . S
C1229 O1248 1.247 . S
O1230 C1229 1.224 . S
N1231 Co1221 2.128 . S
N1231 C1232 1.355 . S
N1231 C1234 1.311 . S
C1232 N1231 1.355 . S
C1232 C1233 1.363 . S
C1232 H1244 0.929 . S
C1233 C1232 1.363 . S
C1233 N1235 1.375 . S
C1233 H1251 0.931 . S
C1234 N1231 1.311 . S
C1234 N1235 1.347 . S
C1234 H1245 0.929 . S
N1235 C1233 1.375 . S
N1235 C1234 1.347 . S
C1236 C1239 1.365 . S
C1236 N1241 1.328 . S
C1236 H1242 0.929 . S
C1237 C1238 1.362 . S
C1237 C1240 1.378 . S
C1237 H1252 0.929 . S
C1238 C1237 1.362 . S
C1238 C1239 1.366 . S
C1239 C1236 1.365 . S
C1239 C1238 1.366 . S
C1239 H1253 0.930 . S
C1240 C1237 1.378 . S
C1240 N1241 1.315 . S
C1240 H1243 0.930 . S
N1241 Co1221 2.194 . S
N1241 C1236 1.328 . S
N1241 C1240 1.315 . S
H1242 C1236 0.929 . S
H1243 C1240 0.930 . S
H1244 C1232 0.929 . S
H1245 C1234 0.929 . S
O1246 Co1221 2.351 . S
O1246 C1249 1.244 . S
O1247 Co1221 2.155 . S
O1247 C1249 1.240 . S
O1248 Co1221 2.096 . S
O1248 C1229 1.247 . S
C1249 O1246 1.244 . S
C1249 O1247 1.240 . S
H1250 C1224 0.931 . S
H1251 C1233 0.931 . S
H1252 C1237 0.929 . S
H1253 C1239 0.930 . S
Co1254 N1258 2.148 . S
Co1254 N1264 2.128 . S
Co1254 N1274 2.194 . S
Co1254 O1279 2.351 . S
Co1254 O1280 2.155 . S
Co1254 O1281 2.096 . S
C1255 N1258 1.301 . S
C1255 N1259 1.328 . S
C1255 H1260 0.930 . S
C1256 C1257 1.333 . S
C1256 N1258 1.317 . S
C1256 H1261 0.930 . S
C1257 C1256 1.333 . S
C1257 N1259 1.350 . S
C1257 H1283 0.931 . S
N1258 Co1254 2.148 . S
N1258 C1255 1.301 . S
N1258 C1256 1.317 . S
N1259 C1255 1.328 . S
N1259 C1257 1.350 . S
H1260 C1255 0.930 . S
H1261 C1256 0.930 . S
C1262 O1263 1.224 . S
C1262 O1281 1.247 . S
O1263 C1262 1.224 . S
N1264 Co1254 2.128 . S
N1264 C1265 1.355 . S
N1264 C1267 1.311 . S
C1265 N1264 1.355 . S
C1265 C1266 1.363 . S
C1265 H1277 0.929 . S
C1266 C1265 1.363 . S
C1266 N1268 1.375 . S
C1266 H1284 0.931 . S
C1267 N1264 1.311 . S
C1267 N1268 1.347 . S
C1267 H1278 0.929 . S
N1268 C1266 1.375 . S
N1268 C1267 1.347 . S
C1269 C1272 1.365 . S
C1269 N1274 1.328 . S
C1269 H1275 0.929 . S
C1270 C1271 1.362 . S
C1270 C1273 1.378 . S
C1270 H1285 0.929 . S
C1271 C1270 1.362 . S
C1271 C1272 1.366 . S
C1272 C1269 1.365 . S
C1272 C1271 1.366 . S
C1272 H1286 0.930 . S
C1273 C1270 1.378 . S
C1273 N1274 1.315 . S
C1273 H1276 0.930 . S
N1274 Co1254 2.194 . S
N1274 C1269 1.328 . S
N1274 C1273 1.315 . S
H1275 C1269 0.929 . S
H1276 C1273 0.930 . S
H1277 C1265 0.929 . S
H1278 C1267 0.929 . S
O1279 Co1254 2.351 . S
O1279 C1282 1.244 . S
O1280 Co1254 2.155 . S
O1280 C1282 1.240 . S
O1281 Co1254 2.096 . S
O1281 C1262 1.247 . S
C1282 O1279 1.244 . S
C1282 O1280 1.240 . S
H1283 C1257 0.931 . S
H1284 C1266 0.931 . S
H1285 C1270 0.929 . S
H1286 C1272 0.930 . S
Co1287 N1291 2.148 . S
Co1287 N1297 2.128 . S
Co1287 N1307 2.194 . S
Co1287 O1312 2.351 . S
Co1287 O1313 2.155 . S
Co1287 O1314 2.096 . S
C1288 N1291 1.301 . S
C1288 N1292 1.328 . S
C1288 H1293 0.930 . S
C1289 C1290 1.333 . S
C1289 N1291 1.317 . S
C1289 H1294 0.930 . S
C1290 C1289 1.333 . S
C1290 N1292 1.350 . S
C1290 H1316 0.931 . S
N1291 Co1287 2.148 . S
N1291 C1288 1.301 . S
N1291 C1289 1.317 . S
N1292 C1288 1.328 . S
N1292 C1290 1.350 . S
H1293 C1288 0.930 . S
H1294 C1289 0.930 . S
C1295 O1296 1.224 . S
C1295 O1314 1.247 . S
O1296 C1295 1.224 . S
N1297 Co1287 2.128 . S
N1297 C1298 1.355 . S
N1297 C1300 1.311 . S
C1298 N1297 1.355 . S
C1298 C1299 1.363 . S
C1298 H1310 0.929 . S
C1299 C1298 1.363 . S
C1299 N1301 1.375 . S
C1299 H1317 0.931 . S
C1300 N1297 1.311 . S
C1300 N1301 1.347 . S
C1300 H1311 0.929 . S
N1301 C1299 1.375 . S
N1301 C1300 1.347 . S
C1302 C1305 1.365 . S
C1302 N1307 1.328 . S
C1302 H1308 0.929 . S
C1303 C1304 1.362 . S
C1303 C1306 1.378 . S
C1303 H1318 0.929 . S
C1304 C1303 1.362 . S
C1304 C1305 1.366 . S
C1305 C1302 1.365 . S
C1305 C1304 1.366 . S
C1305 H1319 0.930 . S
C1306 C1303 1.378 . S
C1306 N1307 1.315 . S
C1306 H1309 0.930 . S
N1307 Co1287 2.194 . S
N1307 C1302 1.328 . S
N1307 C1306 1.315 . S
H1308 C1302 0.929 . S
H1309 C1306 0.930 . S
H1310 C1298 0.929 . S
H1311 C1300 0.929 . S
O1312 Co1287 2.351 . S
O1312 C1315 1.244 . S
O1313 Co1287 2.155 . S
O1313 C1315 1.240 . S
O1314 Co1287 2.096 . S
O1314 C1295 1.247 . S
C1315 O1312 1.244 . S
C1315 O1313 1.240 . S
H1316 C1290 0.931 . S
H1317 C1299 0.931 . S
H1318 C1303 0.929 . S
H1319 C1305 0.930 . S
Co1320 N1324 2.148 . S
Co1320 N1330 2.128 . S
Co1320 N1340 2.194 . S
Co1320 O1345 2.351 . S
Co1320 O1346 2.155 . S
Co1320 O1347 2.096 . S
C1321 N1324 1.301 . S
C1321 N1325 1.328 . S
C1321 H1326 0.930 . S
C1322 C1323 1.333 . S
C1322 N1324 1.317 . S
C1322 H1327 0.930 . S
C1323 C1322 1.333 . S
C1323 N1325 1.350 . S
C1323 H1349 0.931 . S
N1324 Co1320 2.148 . S
N1324 C1321 1.301 . S
N1324 C1322 1.317 . S
N1325 C1321 1.328 . S
N1325 C1323 1.350 . S
H1326 C1321 0.930 . S
H1327 C1322 0.930 . S
C1328 O1329 1.224 . S
C1328 O1347 1.247 . S
O1329 C1328 1.224 . S
N1330 Co1320 2.128 . S
N1330 C1331 1.355 . S
N1330 C1333 1.311 . S
C1331 N1330 1.355 . S
C1331 C1332 1.363 . S
C1331 H1343 0.929 . S
C1332 C1331 1.363 . S
C1332 N1334 1.375 . S
C1332 H1350 0.931 . S
C1333 N1330 1.311 . S
C1333 N1334 1.347 . S
C1333 H1344 0.929 . S
N1334 C1332 1.375 . S
N1334 C1333 1.347 . S
C1335 C1338 1.365 . S
C1335 N1340 1.328 . S
C1335 H1341 0.929 . S
C1336 C1337 1.362 . S
C1336 C1339 1.378 . S
C1336 H1351 0.929 . S
C1337 C1336 1.362 . S
C1337 C1338 1.366 . S
C1338 C1335 1.365 . S
C1338 C1337 1.366 . S
C1338 H1352 0.930 . S
C1339 C1336 1.378 . S
C1339 N1340 1.315 . S
C1339 H1342 0.930 . S
N1340 Co1320 2.194 . S
N1340 C1335 1.328 . S
N1340 C1339 1.315 . S
H1341 C1335 0.929 . S
H1342 C1339 0.930 . S
H1343 C1331 0.929 . S
H1344 C1333 0.929 . S
O1345 Co1320 2.351 . S
O1345 C1348 1.244 . S
O1346 Co1320 2.155 . S
O1346 C1348 1.240 . S
O1347 Co1320 2.096 . S
O1347 C1328 1.247 . S
C1348 O1345 1.244 . S
C1348 O1346 1.240 . S
H1349 C1323 0.931 . S
H1350 C1332 0.931 . S
H1351 C1336 0.929 . S
H1352 C1338 0.930 . S
Co1353 N1357 2.148 . S
Co1353 N1363 2.128 . S
Co1353 N1373 2.194 . S
Co1353 O1378 2.351 . S
Co1353 O1379 2.155 . S
Co1353 O1380 2.096 . S
C1354 N1357 1.301 . S
C1354 N1358 1.328 . S
C1354 H1359 0.930 . S
C1355 C1356 1.333 . S
C1355 N1357 1.317 . S
C1355 H1360 0.930 . S
C1356 C1355 1.333 . S
C1356 N1358 1.350 . S
C1356 H1382 0.931 . S
N1357 Co1353 2.148 . S
N1357 C1354 1.301 . S
N1357 C1355 1.317 . S
N1358 C1354 1.328 . S
N1358 C1356 1.350 . S
H1359 C1354 0.930 . S
H1360 C1355 0.930 . S
C1361 O1362 1.224 . S
C1361 O1380 1.247 . S
O1362 C1361 1.224 . S
N1363 Co1353 2.128 . S
N1363 C1364 1.355 . S
N1363 C1366 1.311 . S
C1364 N1363 1.355 . S
C1364 C1365 1.363 . S
C1364 H1376 0.929 . S
C1365 C1364 1.363 . S
C1365 N1367 1.375 . S
C1365 H1383 0.931 . S
C1366 N1363 1.311 . S
C1366 N1367 1.347 . S
C1366 H1377 0.929 . S
N1367 C1365 1.375 . S
N1367 C1366 1.347 . S
C1368 C1371 1.365 . S
C1368 N1373 1.328 . S
C1368 H1374 0.929 . S
C1369 C1370 1.362 . S
C1369 C1372 1.378 . S
C1369 H1384 0.929 . S
C1370 C1369 1.362 . S
C1370 C1371 1.366 . S
C1371 C1368 1.365 . S
C1371 C1370 1.366 . S
C1371 H1385 0.930 . S
C1372 C1369 1.378 . S
C1372 N1373 1.315 . S
C1372 H1375 0.930 . S
N1373 Co1353 2.194 . S
N1373 C1368 1.328 . S
N1373 C1372 1.315 . S
H1374 C1368 0.929 . S
H1375 C1372 0.930 . S
H1376 C1364 0.929 . S
H1377 C1366 0.929 . S
O1378 Co1353 2.351 . S
O1378 C1381 1.244 . S
O1379 Co1353 2.155 . S
O1379 C1381 1.240 . S
O1380 Co1353 2.096 . S
O1380 C1361 1.247 . S
C1381 O1378 1.244 . S
C1381 O1379 1.240 . S
H1382 C1356 0.931 . S
H1383 C1365 0.931 . S
H1384 C1369 0.929 . S
H1385 C1371 0.930 . S
Co1386 N1390 2.148 . S
Co1386 N1396 2.128 . S
Co1386 N1406 2.194 . S
Co1386 O1411 2.351 . S
Co1386 O1412 2.155 . S
Co1386 O1413 2.096 . S
C1387 N1390 1.301 . S
C1387 N1391 1.328 . S
C1387 H1392 0.930 . S
C1388 C1389 1.333 . S
C1388 N1390 1.317 . S
C1388 H1393 0.930 . S
C1389 C1388 1.333 . S
C1389 N1391 1.350 . S
C1389 H1415 0.931 . S
N1390 Co1386 2.148 . S
N1390 C1387 1.301 . S
N1390 C1388 1.317 . S
N1391 C1387 1.328 . S
N1391 C1389 1.350 . S
H1392 C1387 0.930 . S
H1393 C1388 0.930 . S
C1394 O1395 1.224 . S
C1394 O1413 1.247 . S
O1395 C1394 1.224 . S
N1396 Co1386 2.128 . S
N1396 C1397 1.355 . S
N1396 C1399 1.311 . S
C1397 N1396 1.355 . S
C1397 C1398 1.363 . S
C1397 H1409 0.929 . S
C1398 C1397 1.363 . S
C1398 N1400 1.375 . S
C1398 H1416 0.931 . S
C1399 N1396 1.311 . S
C1399 N1400 1.347 . S
C1399 H1410 0.929 . S
N1400 C1398 1.375 . S
N1400 C1399 1.347 . S
C1401 C1404 1.365 . S
C1401 N1406 1.328 . S
C1401 H1407 0.929 . S
C1402 C1403 1.362 . S
C1402 C1405 1.378 . S
C1402 H1417 0.929 . S
C1403 C1402 1.362 . S
C1403 C1404 1.366 . S
C1404 C1401 1.365 . S
C1404 C1403 1.366 . S
C1404 H1418 0.930 . S
C1405 C1402 1.378 . S
C1405 N1406 1.315 . S
C1405 H1408 0.930 . S
N1406 Co1386 2.194 . S
N1406 C1401 1.328 . S
N1406 C1405 1.315 . S
H1407 C1401 0.929 . S
H1408 C1405 0.930 . S
H1409 C1397 0.929 . S
H1410 C1399 0.929 . S
O1411 Co1386 2.351 . S
O1411 C1414 1.244 . S
O1412 Co1386 2.155 . S
O1412 C1414 1.240 . S
O1413 Co1386 2.096 . S
O1413 C1394 1.247 . S
C1414 O1411 1.244 . S
C1414 O1412 1.240 . S
H1415 C1389 0.931 . S
H1416 C1398 0.931 . S
H1417 C1402 0.929 . S
H1418 C1404 0.930 . S
Co1419 N1423 2.148 . S
Co1419 N1429 2.128 . S
Co1419 N1439 2.194 . S
Co1419 O1444 2.351 . S
Co1419 O1445 2.155 . S
Co1419 O1446 2.096 . S
C1420 N1423 1.301 . S
C1420 N1424 1.328 . S
C1420 H1425 0.930 . S
C1421 C1422 1.333 . S
C1421 N1423 1.317 . S
C1421 H1426 0.930 . S
C1422 C1421 1.333 . S
C1422 N1424 1.350 . S
C1422 H1448 0.931 . S
N1423 Co1419 2.148 . S
N1423 C1420 1.301 . S
N1423 C1421 1.317 . S
N1424 C1420 1.328 . S
N1424 C1422 1.350 . S
H1425 C1420 0.930 . S
H1426 C1421 0.930 . S
C1427 O1428 1.224 . S
C1427 O1446 1.247 . S
O1428 C1427 1.224 . S
N1429 Co1419 2.128 . S
N1429 C1430 1.355 . S
N1429 C1432 1.311 . S
C1430 N1429 1.355 . S
C1430 C1431 1.363 . S
C1430 H1442 0.929 . S
C1431 C1430 1.363 . S
C1431 N1433 1.375 . S
C1431 H1449 0.931 . S
C1432 N1429 1.311 . S
C1432 N1433 1.347 . S
C1432 H1443 0.929 . S
N1433 C1431 1.375 . S
N1433 C1432 1.347 . S
C1434 C1437 1.365 . S
C1434 N1439 1.328 . S
C1434 H1440 0.929 . S
C1435 C1436 1.362 . S
C1435 C1438 1.378 . S
C1435 H1450 0.929 . S
C1436 C1435 1.362 . S
C1436 C1437 1.366 . S
C1437 C1434 1.365 . S
C1437 C1436 1.366 . S
C1437 H1451 0.930 . S
C1438 C1435 1.378 . S
C1438 N1439 1.315 . S
C1438 H1441 0.930 . S
N1439 Co1419 2.194 . S
N1439 C1434 1.328 . S
N1439 C1438 1.315 . S
H1440 C1434 0.929 . S
H1441 C1438 0.930 . S
H1442 C1430 0.929 . S
H1443 C1432 0.929 . S
O1444 Co1419 2.351 . S
O1444 C1447 1.244 . S
O1445 Co1419 2.155 . S
O1445 C1447 1.240 . S
O1446 Co1419 2.096 . S
O1446 C1427 1.247 . S
C1447 O1444 1.244 . S
C1447 O1445 1.240 . S
H1448 C1422 0.931 . S
H1449 C1431 0.931 . S
H1450 C1435 0.929 . S
H1451 C1437 0.930 . S
Co1452 N1456 2.148 . S
Co1452 N1462 2.128 . S
Co1452 N1472 2.194 . S
Co1452 O1477 2.351 . S
Co1452 O1478 2.155 . S
Co1452 O1479 2.096 . S
C1453 N1456 1.301 . S
C1453 N1457 1.328 . S
C1453 H1458 0.930 . S
C1454 C1455 1.333 . S
C1454 N1456 1.317 . S
C1454 H1459 0.930 . S
C1455 C1454 1.333 . S
C1455 N1457 1.350 . S
C1455 H1481 0.931 . S
N1456 Co1452 2.148 . S
N1456 C1453 1.301 . S
N1456 C1454 1.317 . S
N1457 C1453 1.328 . S
N1457 C1455 1.350 . S
H1458 C1453 0.930 . S
H1459 C1454 0.930 . S
C1460 O1461 1.224 . S
C1460 O1479 1.247 . S
O1461 C1460 1.224 . S
N1462 Co1452 2.128 . S
N1462 C1463 1.355 . S
N1462 C1465 1.311 . S
C1463 N1462 1.355 . S
C1463 C1464 1.363 . S
C1463 H1475 0.929 . S
C1464 C1463 1.363 . S
C1464 N1466 1.375 . S
C1464 H1482 0.931 . S
C1465 N1462 1.311 . S
C1465 N1466 1.347 . S
C1465 H1476 0.929 . S
N1466 C1464 1.375 . S
N1466 C1465 1.347 . S
C1467 C1470 1.365 . S
C1467 N1472 1.328 . S
C1467 H1473 0.929 . S
C1468 C1469 1.362 . S
C1468 C1471 1.378 . S
C1468 H1483 0.929 . S
C1469 C1468 1.362 . S
C1469 C1470 1.366 . S
C1470 C1467 1.365 . S
C1470 C1469 1.366 . S
C1470 H1484 0.930 . S
C1471 C1468 1.378 . S
C1471 N1472 1.315 . S
C1471 H1474 0.930 . S
N1472 Co1452 2.194 . S
N1472 C1467 1.328 . S
N1472 C1471 1.315 . S
H1473 C1467 0.929 . S
H1474 C1471 0.930 . S
H1475 C1463 0.929 . S
H1476 C1465 0.929 . S
O1477 Co1452 2.351 . S
O1477 C1480 1.244 . S
O1478 Co1452 2.155 . S
O1478 C1480 1.240 . S
O1479 Co1452 2.096 . S
O1479 C1460 1.247 . S
C1480 O1477 1.244 . S
C1480 O1478 1.240 . S
H1481 C1455 0.931 . S
H1482 C1464 0.931 . S
H1483 C1468 0.929 . S
H1484 C1470 0.930 . S
Co1485 N1489 2.148 . S
Co1485 N1495 2.128 . S
Co1485 N1505 2.194 . S
Co1485 O1510 2.351 . S
Co1485 O1511 2.155 . S
Co1485 O1512 2.096 . S
C1486 N1489 1.301 . S
C1486 N1490 1.328 . S
C1486 H1491 0.930 . S
C1487 C1488 1.333 . S
C1487 N1489 1.317 . S
C1487 H1492 0.930 . S
C1488 C1487 1.333 . S
C1488 N1490 1.350 . S
C1488 H1514 0.931 . S
N1489 Co1485 2.148 . S
N1489 C1486 1.301 . S
N1489 C1487 1.317 . S
N1490 C1486 1.328 . S
N1490 C1488 1.350 . S
H1491 C1486 0.930 . S
H1492 C1487 0.930 . S
C1493 O1494 1.224 . S
C1493 O1512 1.247 . S
O1494 C1493 1.224 . S
N1495 Co1485 2.128 . S
N1495 C1496 1.355 . S
N1495 C1498 1.311 . S
C1496 N1495 1.355 . S
C1496 C1497 1.363 . S
C1496 H1508 0.929 . S
C1497 C1496 1.363 . S
C1497 N1499 1.375 . S
C1497 H1515 0.931 . S
C1498 N1495 1.311 . S
C1498 N1499 1.347 . S
C1498 H1509 0.929 . S
N1499 C1497 1.375 . S
N1499 C1498 1.347 . S
C1500 C1503 1.365 . S
C1500 N1505 1.328 . S
C1500 H1506 0.929 . S
C1501 C1502 1.362 . S
C1501 C1504 1.378 . S
C1501 H1516 0.929 . S
C1502 C1501 1.362 . S
C1502 C1503 1.366 . S
C1503 C1500 1.365 . S
C1503 C1502 1.366 . S
C1503 H1517 0.930 . S
C1504 C1501 1.378 . S
C1504 N1505 1.315 . S
C1504 H1507 0.930 . S
N1505 Co1485 2.194 . S
N1505 C1500 1.328 . S
N1505 C1504 1.315 . S
H1506 C1500 0.929 . S
H1507 C1504 0.930 . S
H1508 C1496 0.929 . S
H1509 C1498 0.929 . S
O1510 Co1485 2.351 . S
O1510 C1513 1.244 . S
O1511 Co1485 2.155 . S
O1511 C1513 1.240 . S
O1512 Co1485 2.096 . S
O1512 C1493 1.247 . S
C1513 O1510 1.244 . S
C1513 O1511 1.240 . S
H1514 C1488 0.931 . S
H1515 C1497 0.931 . S
H1516 C1501 0.929 . S
H1517 C1503 0.930 . S
Co1518 N1522 2.148 . S
Co1518 N1528 2.128 . S
Co1518 N1538 2.194 . S
Co1518 O1543 2.351 . S
Co1518 O1544 2.155 . S
Co1518 O1545 2.096 . S
C1519 N1522 1.301 . S
C1519 N1523 1.328 . S
C1519 H1524 0.930 . S
C1520 C1521 1.333 . S
C1520 N1522 1.317 . S
C1520 H1525 0.930 . S
C1521 C1520 1.333 . S
C1521 N1523 1.350 . S
C1521 H1547 0.931 . S
N1522 Co1518 2.148 . S
N1522 C1519 1.301 . S
N1522 C1520 1.317 . S
N1523 C1519 1.328 . S
N1523 C1521 1.350 . S
H1524 C1519 0.930 . S
H1525 C1520 0.930 . S
C1526 O1527 1.224 . S
C1526 O1545 1.247 . S
O1527 C1526 1.224 . S
N1528 Co1518 2.128 . S
N1528 C1529 1.355 . S
N1528 C1531 1.311 . S
C1529 N1528 1.355 . S
C1529 C1530 1.363 . S
C1529 H1541 0.929 . S
C1530 C1529 1.363 . S
C1530 N1532 1.375 . S
C1530 H1548 0.931 . S
C1531 N1528 1.311 . S
C1531 N1532 1.347 . S
C1531 H1542 0.929 . S
N1532 C1530 1.375 . S
N1532 C1531 1.347 . S
C1533 C1536 1.365 . S
C1533 N1538 1.328 . S
C1533 H1539 0.929 . S
C1534 C1535 1.362 . S
C1534 C1537 1.378 . S
C1534 H1549 0.929 . S
C1535 C1534 1.362 . S
C1535 C1536 1.366 . S
C1536 C1533 1.365 . S
C1536 C1535 1.366 . S
C1536 H1550 0.930 . S
C1537 C1534 1.378 . S
C1537 N1538 1.315 . S
C1537 H1540 0.930 . S
N1538 Co1518 2.194 . S
N1538 C1533 1.328 . S
N1538 C1537 1.315 . S
H1539 C1533 0.929 . S
H1540 C1537 0.930 . S
H1541 C1529 0.929 . S
H1542 C1531 0.929 . S
O1543 Co1518 2.351 . S
O1543 C1546 1.244 . S
O1544 Co1518 2.155 . S
O1544 C1546 1.240 . S
O1545 Co1518 2.096 . S
O1545 C1526 1.247 . S
C1546 O1543 1.244 . S
C1546 O1544 1.240 . S
H1547 C1521 0.931 . S
H1548 C1530 0.931 . S
H1549 C1534 0.929 . S
H1550 C1536 0.930 . S
Co1551 N1555 2.148 . S
Co1551 N1561 2.128 . S
Co1551 N1571 2.194 . S
Co1551 O1576 2.351 . S
Co1551 O1577 2.155 . S
Co1551 O1578 2.096 . S
C1552 N1555 1.301 . S
C1552 N1556 1.328 . S
C1552 H1557 0.930 . S
C1553 C1554 1.333 . S
C1553 N1555 1.317 . S
C1553 H1558 0.930 . S
C1554 C1553 1.333 . S
C1554 N1556 1.350 . S
C1554 H1580 0.931 . S
N1555 Co1551 2.148 . S
N1555 C1552 1.301 . S
N1555 C1553 1.317 . S
N1556 C1552 1.328 . S
N1556 C1554 1.350 . S
H1557 C1552 0.930 . S
H1558 C1553 0.930 . S
C1559 O1560 1.224 . S
C1559 O1578 1.247 . S
O1560 C1559 1.224 . S
N1561 Co1551 2.128 . S
N1561 C1562 1.355 . S
N1561 C1564 1.311 . S
C1562 N1561 1.355 . S
C1562 C1563 1.363 . S
C1562 H1574 0.929 . S
C1563 C1562 1.363 . S
C1563 N1565 1.375 . S
C1563 H1581 0.931 . S
C1564 N1561 1.311 . S
C1564 N1565 1.347 . S
C1564 H1575 0.929 . S
N1565 C1563 1.375 . S
N1565 C1564 1.347 . S
C1566 C1569 1.365 . S
C1566 N1571 1.328 . S
C1566 H1572 0.929 . S
C1567 C1568 1.362 . S
C1567 C1570 1.378 . S
C1567 H1582 0.929 . S
C1568 C1567 1.362 . S
C1568 C1569 1.366 . S
C1569 C1566 1.365 . S
C1569 C1568 1.366 . S
C1569 H1583 0.930 . S
C1570 C1567 1.378 . S
C1570 N1571 1.315 . S
C1570 H1573 0.930 . S
N1571 Co1551 2.194 . S
N1571 C1566 1.328 . S
N1571 C1570 1.315 . S
H1572 C1566 0.929 . S
H1573 C1570 0.930 . S
H1574 C1562 0.929 . S
H1575 C1564 0.929 . S
O1576 Co1551 2.351 . S
O1576 C1579 1.244 . S
O1577 Co1551 2.155 . S
O1577 C1579 1.240 . S
O1578 Co1551 2.096 . S
O1578 C1559 1.247 . S
C1579 O1576 1.244 . S
C1579 O1577 1.240 . S
H1580 C1554 0.931 . S
H1581 C1563 0.931 . S
H1582 C1567 0.929 . S
H1583 C1569 0.930 . S
C602 N14 2.645 1_556 S
N47 C644 2.325 . S
N71 C668 3.547 1_554 S
C569 N113 3.344 1_556 S
C734 N146 2.920 1_554 S
N179 C536 2.792 1_556 S
C767 N212 3.193 1_554 S
C710 N245 2.316 . S
N278 C314 2.023 . S
C338 N302 4.045 1_565 S
C371 N344 3.259 1_455 S
N377 C272 2.942 1_565 S
C503 N401 3.236 1_655 S
N443 C413 2.281 . S
C437 N476 3.030 1_455 S
C470 N509 3.355 1_545 S
N542 C107 3.033 1_545 S
C173 N575 3.196 1_545 S
N608 C206 3.260 1_455 S
C239 N632 3.172 1_565 S
C140 N674 2.972 1_455 S
N698 C41 3.521 1_565 S
N740 C83 2.327 . S
C8 N773 3.033 1_455 S
N806 C1394 2.645 . S
C1436 N839 2.325 . S
C1460 N863 3.547 . S
N905 C1361 3.344 . S
C1526 N938 2.920 . S
N971 C1328 2.792 . S
C1559 N1004 3.193 . S
C1502 N1037 2.316 . S
C1106 N1070 2.023 . S
N1094 C1130 4.045 . S
C1163 N1136 3.259 . S
N1169 C1064 2.942 . S
N1193 C1295 3.236 . S
C1205 N1235 2.281 . S
N1268 C1229 3.030 . S
C1262 N1301 3.355 . S
C899 N1334 3.033 . S
N1367 C965 3.196 . S
N1400 C998 3.260 . S
C1031 N1424 3.172 . S
C932 N1466 2.972 . S
C833 N1490 3.521 . S
N1532 C875 2.327 . S
C800 N1565 3.033 . S
C1040 C17 1.795 . S
C941 C50 1.703 . S
C74 C974 2.533 . S
C1007 C116 2.708 . S
C149 C842 1.703 . S
C866 C182 2.533 . S
C908 C215 2.708 . S
C248 C809 1.795 . S
C281 C1469 1.810 . S
C1370 C305 2.787 . S
C1403 C347 2.425 . S
C1427 C380 2.635 . S
C1568 C404 2.510 . S
C446 C1493 2.246 . S
C479 C1535 2.121 . S
C1337 C512 2.221 . S
C1304 C545 2.221 . S
C578 C1097 2.787 . S
C1139 C611 2.425 . S
C1172 C635 2.635 . S
C677 C1073 1.810 . S
C701 C1238 2.246 . S
C1271 C743 2.121 . S
C776 C1196 2.510 . S
C292 N5 1.864 . S
C325 N38 1.501 . S
N80 C358 2.588 . S
N104 C391 1.730 . S
N137 C424 1.538 . S
C457 N170 1.631 . S
C490 N203 1.848 . S
N236 C523 2.059 . S
C556 N269 1.911 . S
C787 N311 2.243 . S
C721 N335 1.609 . S
N368 C754 1.842 . S
N410 C589 2.120 . S
N434 C622 1.810 . S
N467 C655 1.570 . S
N500 C688 2.049 . S
C28 N533 1.965 . S
N566 C160 1.955 . S
C193 N599 1.673 . S
N641 C226 2.357 . S
C259 N665 2.017 . S
C94 N707 2.002 . S
N731 C127 1.713 . S
C61 N764 2.053 . S
N797 C1084 1.864 . S
C1117 N830 1.501 . S
N872 C1150 2.588 . S
N896 C1183 1.730 . S
N929 C1216 1.538 . S
N962 C1249 1.631 . S
N995 C1282 1.848 . S
N1028 C1315 2.059 . S
N1061 C1348 1.911 . S
N1103 C1579 2.243 . S
N1127 C1513 1.609 . S
C1546 N1160 1.842 . S
C1381 N1202 2.120 . S
N1226 C1414 1.810 . S
C1447 N1259 1.570 . S
N1292 C1480 2.049 . S
N1325 C820 1.965 . S
C952 N1358 1.955 . S
C985 N1391 1.673 . S
C1018 N1433 2.357 . S
C1051 N1457 2.017 . S
C886 N1499 2.002 . S
C919 N1523 1.713 . S
C853 N1556 2.053 . S
