# Generated by pormake.
# Topology snk, (6)-cn, num edge types: 1
# Building blocks:
#     Node 0, Type 0, BuildingBlock: BETDIP_clean_sbu_0, # of connection points: 6
#     Node 1, Type 0, BuildingBlock: BETDIP_clean_sbu_0, # of connection points: 6
#     Node 2, Type 0, BuildingBlock: BETDIP_clean_sbu_0, # of connection points: 6
#     Node 3, Type 0, BuildingBlock: BETDIP_clean_sbu_0, # of connection points: 6
#     Node 4, Type 0, BuildingBlock: BETDIP_clean_sbu_0, # of connection points: 6
#     Node 5, Type 0, BuildingBlock: BETDIP_clean_sbu_0, # of connection points: 6
#     Node 6, Type 0, BuildingBlock: BETDIP_clean_sbu_0, # of connection points: 6
#     Node 7, Type 0, BuildingBlock: BETDIP_clean_sbu_0, # of connection points: 6
#     Edge 8, Type (0, 0), BuildingBlock: KIFKEQ_clean_linker_1, # of connection points: 2
#     Edge 9, Type (0, 0), BuildingBlock: KIFKEQ_clean_linker_1, # of connection points: 2
#     Edge 10, Type (0, 0), BuildingBlock: KIFKEQ_clean_linker_1, # of connection points: 2
#     Edge 11, Type (0, 0), BuildingBlock: KIFKEQ_clean_linker_1, # of connection points: 2
#     Edge 12, Type (0, 0), BuildingBlock: KIFKEQ_clean_linker_1, # of connection points: 2
#     Edge 13, Type (0, 0), BuildingBlock: KIFKEQ_clean_linker_1, # of connection points: 2
#     Edge 14, Type (0, 0), BuildingBlock: KIFKEQ_clean_linker_1, # of connection points: 2
#     Edge 15, Type (0, 0), BuildingBlock: KIFKEQ_clean_linker_1, # of connection points: 2
#     Edge 16, Type (0, 0), BuildingBlock: KIFKEQ_clean_linker_1, # of connection points: 2
#     Edge 17, Type (0, 0), BuildingBlock: KIFKEQ_clean_linker_1, # of connection points: 2
#     Edge 18, Type (0, 0), BuildingBlock: KIFKEQ_clean_linker_1, # of connection points: 2
#     Edge 19, Type (0, 0), BuildingBlock: KIFKEQ_clean_linker_1, # of connection points: 2
#     Edge 20, Type (0, 0), BuildingBlock: KIFKEQ_clean_linker_1, # of connection points: 2
#     Edge 21, Type (0, 0), BuildingBlock: KIFKEQ_clean_linker_1, # of connection points: 2
#     Edge 22, Type (0, 0), BuildingBlock: KIFKEQ_clean_linker_1, # of connection points: 2
#     Edge 23, Type (0, 0), BuildingBlock: KIFKEQ_clean_linker_1, # of connection points: 2
#     Edge 24, Type (0, 0), BuildingBlock: KIFKEQ_clean_linker_1, # of connection points: 2
#     Edge 25, Type (0, 0), BuildingBlock: KIFKEQ_clean_linker_1, # of connection points: 2
#     Edge 26, Type (0, 0), BuildingBlock: KIFKEQ_clean_linker_1, # of connection points: 2
#     Edge 27, Type (0, 0), BuildingBlock: KIFKEQ_clean_linker_1, # of connection points: 2
#     Edge 28, Type (0, 0), BuildingBlock: KIFKEQ_clean_linker_1, # of connection points: 2
#     Edge 29, Type (0, 0), BuildingBlock: KIFKEQ_clean_linker_1, # of connection points: 2
#     Edge 30, Type (0, 0), BuildingBlock: KIFKEQ_clean_linker_1, # of connection points: 2
#     Edge 31, Type (0, 0), BuildingBlock: KIFKEQ_clean_linker_1, # of connection points: 2
# Relax obj value: 0.092
# Max RMSD: 0.158
# Mean RMSD: 0.130
data_MOF--net-snk--node1-BETDIP_clean_sbu_0--edge1-KIFKEQ_clean_linker_1
_symmetry_space_group_name_H-M    P1
_symmetry_Int_Tables_number       1
_symmetry_cell_setting            triclinic
loop_
_symmetry_equiv_pos_as_xyz
'x, y, z'
_cell_length_a     38.21382
_cell_length_b     38.029341
_cell_length_c     25.458297
_cell_angle_alpha  96.529818
_cell_angle_beta   96.700302
_cell_angle_gamma 90.932245
loop_
_atom_site_label
_atom_site_type_symbol
_atom_site_fract_x
_atom_site_fract_y
_atom_site_fract_z
_atom_type_partial_charge
Tb0 Tb 0.99561 0.99141 0.46457 0.0
Tb1 Tb 0.02158 0.02916 0.57277 0.0
C2 C 0.97249 0.97596 0.36771 0.0
C3 C 0.98116 0.98297 0.31468 0.0
C4 C 0.9875 0.01746 0.30238 0.0
C5 C 0.99408 0.02309 0.25089 0.0
C6 C 0.99472 0.99437 0.21092 0.0
C7 C 0.98887 0.95992 0.22376 0.0
C8 C 0.98207 0.95434 0.27498 0.0
C9 C 0.04181 0.95711 0.52266 0.0
C10 C 0.05864 0.05024 0.47776 0.0
C11 C 0.04479 0.04406 0.66977 0.0
C12 C 0.03667 0.03607 0.72292 0.0
C13 C 0.05467 1.00952 0.7483 0.0
C14 C 0.04933 1.00392 0.80023 0.0
C15 C 0.02603 0.02491 0.82829 0.0
C16 C 1.00767 0.05113 0.80257 0.0
C17 C 0.01299 0.05671 0.75065 0.0
C18 C 0.97556 0.06353 0.51448 0.0
C19 C 0.95841 0.97045 0.55944 0.0
O20 O 0.96126 1.00237 0.39836 0.0
O21 O 0.99447 0.95652 0.39422 0.0
O22 O 0.04241 0.98998 0.5196 0.0
O23 O 0.01596 0.94205 0.48995 0.0
O24 O 0.03369 0.03099 0.446 0.0
O25 O 0.06167 0.05058 0.53016 0.0
O26 O 0.05651 0.01826 0.63853 0.0
O27 O 0.02257 0.06347 0.64352 0.0
O28 O 0.97486 0.03068 0.51774 0.0
O29 O 1.00135 0.07857 0.54736 0.0
O30 O 0.98346 0.98956 0.59122 0.0
O31 O 0.95537 0.97021 0.50707 0.0
H32 H 0.98715 0.04005 0.33232 0.0
H33 H 0.99885 0.04991 0.24243 0.0
H34 H 0.98874 0.93726 0.19383 0.0
H35 H 0.97711 0.92755 0.28348 0.0
H36 H 0.07337 0.99337 0.72835 0.0
H37 H 0.0636 0.98319 0.81847 0.0
H38 H 0.98992 0.06816 0.82311 0.0
H39 H 0.99906 0.07776 0.73271 0.0
Tb40 Tb 0.26911 0.74181 0.71733 0.0
Tb41 Tb 0.24962 0.77979 0.8207 0.0
C42 C 0.26864 0.71104 0.62406 0.0
C43 C 0.26368 0.7203 0.56897 0.0
C44 C 0.25746 0.69323 0.52653 0.0
C45 C 0.25543 0.70098 0.47382 0.0
C46 C 0.2597 0.73605 0.46233 0.0
C47 C 0.26502 0.76329 0.50518 0.0
C48 C 0.26697 0.75549 0.55798 0.0
C49 C 0.31477 0.79036 0.7668 0.0
C50 C 0.22095 0.81058 0.71719 0.0
C51 C 0.24986 0.80966 0.91443 0.0
C52 C 0.25231 0.7995 0.96948 0.0
C53 C 0.2833 0.80711 1.00485 0.0
C54 C 0.28498 0.79987 0.05788 0.0
C55 C 0.25558 0.78509 0.07701 0.0
C56 C 0.22476 0.7771 0.04136 0.0
C57 C 0.22311 0.78425 0.9884 0.0
C58 C 0.20409 0.73098 0.77138 0.0
C59 C 0.29819 0.71121 0.82093 0.0
O60 O 0.24097 0.71242 0.65004 0.0
O61 O 0.29703 0.72444 0.65373 0.0
O62 O 0.28186 0.79215 0.76253 0.0
O63 O 0.32353 0.76148 0.74021 0.0
O64 O 0.23063 0.78076 0.69107 0.0
O65 O 0.23127 0.81897 0.76867 0.0
O66 O 0.27815 0.80669 0.88986 0.0
O67 O 0.22121 0.79958 0.88255 0.0
O68 O 0.237 0.72947 0.77566 0.0
O69 O 0.19525 0.75969 0.79825 0.0
O70 O 0.28797 0.74077 0.8471 0.0
O71 O 0.28836 0.70292 0.7693 0.0
H72 H 0.25472 0.66592 0.53417 0.0
H73 H 0.25059 0.67938 0.44203 0.0
H74 H 0.26869 0.79056 0.49804 0.0
H75 H 0.2718 0.77681 0.59023 0.0
H76 H 0.3061 0.81925 0.99175 0.0
H77 H 0.30903 0.80674 0.08426 0.0
H78 H 0.20178 0.76523 0.05435 0.0
H79 H 0.19869 0.77816 0.96253 0.0
Tb80 Tb 0.52745 1.00281 0.06929 0.0
Tb81 Tb 0.4897 0.02182 0.96502 0.0
C82 C 0.55838 1.00372 0.16266 0.0
C83 C 0.54975 1.00882 0.21799 0.0
C84 C 0.57707 1.00983 0.25998 0.0
C85 C 0.56961 0.01176 0.31275 0.0
C86 C 0.53457 0.01269 0.32477 0.0
C87 C 0.50721 0.01263 0.28248 0.0
C88 C 0.51474 1.01064 0.22955 0.0
C89 C 0.47918 0.95677 0.0202 0.0
C90 C 0.45895 0.05126 0.06813 0.0
C91 C 0.45969 0.02076 0.87117 0.0
C92 C 0.46966 0.01698 0.81632 0.0
C93 C 0.44715 0.99794 0.77497 0.0
C94 C 0.45466 0.99615 0.72216 0.0
C95 C 0.48485 0.01354 0.70937 0.0
C96 C 0.50779 0.03196 0.75124 0.0
C97 C 0.50034 0.03358 0.80408 0.0
C98 C 0.53831 0.06763 1.014 0.0
C99 C 0.55807 0.97305 0.96622 0.0
O100 O 0.55667 0.03141 0.1363 0.0
O101 O 0.54485 0.97512 0.13351 0.0
O102 O 0.47743 0.98983 0.02381 0.0
O103 O 0.50784 0.94811 0.04735 0.0
O104 O 0.48853 0.04148 0.09469 0.0
O105 O 0.45076 0.04093 1.01659 0.0
O106 O 0.46219 0.99274 0.89676 0.0
O107 O 0.47085 0.0497 0.90177 0.0
O108 O 0.5397 0.03458 1.01027 0.0
O109 O 0.50976 0.07649 0.98682 0.0
O110 O 0.52867 0.98319 0.93959 0.0
O111 O 0.5662 0.98316 1.01781 0.0
H112 H 0.60427 1.00852 0.2519 0.0
H113 H 0.59139 0.01244 0.34419 0.0
H114 H 0.47992 0.01306 0.29011 0.0
H115 H 0.49323 1.00978 0.19764 0.0
H116 H 0.42342 0.9848 0.78344 0.0
H117 H 0.43672 0.98112 0.69134 0.0
H118 H 0.53108 0.046 0.74314 0.0
H119 H 0.51824 0.04841 0.83521 0.0
Tb120 Tb 0.27664 0.27375 0.32256 0.0
Tb121 Tb 0.23865 0.24828 0.21455 0.0
C122 C 0.2917 0.29667 0.4196 0.0
C123 C 0.28381 0.28817 0.47257 0.0
C124 C 0.26077 0.30927 0.50081 0.0
C125 C 0.2552 0.30334 0.55251 0.0
C126 C 0.2728 0.27635 0.57742 0.0
C127 C 0.29551 0.25495 0.54889 0.0
C128 C 0.30097 0.26078 0.49712 0.0
C129 C 0.31095 0.22812 0.26378 0.0
C130 C 0.21842 0.21012 0.30911 0.0
C131 C 0.22211 0.2257 0.11772 0.0
C132 C 0.22928 0.23355 0.06432 0.0
C133 C 0.26364 0.23485 0.04986 0.0
C134 C 0.26913 0.24023 0.99781 0.0
C135 C 0.24039 0.24445 0.95923 0.0
C136 C 0.20616 0.24392 0.97443 0.0
C137 C 0.20071 0.2384 0.02622 0.0
C138 C 0.20452 0.29386 0.27388 0.0
C139 C 0.29736 0.31137 0.22783 0.0
O140 O 0.26586 0.3085 0.38856 0.0
O141 O 0.31103 0.27458 0.39314 0.0
O142 O 0.27823 0.22712 0.2669 0.0
O143 O 0.32582 0.25391 0.29695 0.0
O144 O 0.23768 0.23501 0.34102 0.0
O145 O 0.21774 0.20754 0.25672 0.0
O146 O 0.24771 0.21304 0.14825 0.0
O147 O 0.20409 0.24902 0.14428 0.0
O148 O 0.23714 0.29488 0.27013 0.0
O149 O 0.1896 0.26788 0.24119 0.0
O150 O 0.27829 0.28629 0.19601 0.0
O151 O 0.29763 0.31434 0.28019 0.0
H152 H 0.24753 0.33088 0.48331 0.0
H153 H 0.23786 0.32059 0.57354 0.0
H154 H 0.30915 0.23366 0.56665 0.0
H155 H 0.31907 0.24411 0.47675 0.0
H156 H 0.28623 0.23121 0.07843 0.0
H157 H 0.29583 0.24019 0.98751 0.0
H158 H 0.18344 0.2478 0.94626 0.0
H159 H 0.17398 0.23756 0.03642 0.0
Tb160 Tb 0.76836 0.24184 0.21595 0.0
Tb161 Tb 0.74921 0.27978 0.31993 0.0
C162 C 0.76792 0.21081 0.12275 0.0
C163 C 0.7631 0.21935 0.06727 0.0
C164 C 0.76488 0.19217 0.02571 0.0
C165 C 0.76309 0.1997 0.97294 0.0
C166 C 0.75948 0.23469 0.96046 0.0
C167 C 0.75681 0.26185 1.00227 0.0
C168 C 0.75871 0.25426 0.05523 0.0
C169 C 0.8141 0.29036 0.26539 0.0
C170 C 0.71989 0.31041 0.21638 0.0
C171 C 0.75018 0.31005 0.41358 0.0
C172 C 0.75438 0.30024 0.46857 0.0
C173 C 0.77081 0.32437 0.51025 0.0
C174 C 0.77274 0.31688 0.56314 0.0
C175 C 0.75811 0.28505 0.57566 0.0
C176 C 0.74239 0.26053 0.53347 0.0
C177 C 0.74063 0.26799 0.48055 0.0
C178 C 0.70353 0.23119 0.27056 0.0
C179 C 0.79756 0.21098 0.31935 0.0
O180 O 0.74022 0.21249 0.14867 0.0
O181 O 0.79625 0.22453 0.15219 0.0
O182 O 0.78118 0.29207 0.26138 0.0
O183 O 0.8228 0.26155 0.23856 0.0
O184 O 0.7298 0.28075 0.19007 0.0
O185 O 0.73008 0.31874 0.26793 0.0
O186 O 0.77798 0.30795 0.38789 0.0
O187 O 0.72145 0.2982 0.38322 0.0
O188 O 0.73644 0.22962 0.2746 0.0
O189 O 0.69478 0.25988 0.29766 0.0
O190 O 0.78751 0.24053 0.34579 0.0
O191 O 0.78759 0.20284 0.26773 0.0
H192 H 0.76823 0.16505 0.03416 0.0
H193 H 0.76459 0.17803 0.94184 0.0
H194 H 0.75427 0.28912 0.99428 0.0
H195 H 0.75744 0.27567 0.08681 0.0
H196 H 0.78174 0.34935 0.50196 0.0
H197 H 0.7857 0.33612 0.59422 0.0
H198 H 0.73052 0.23591 0.54133 0.0
H199 H 0.72786 0.24885 0.4491 0.0
Tb200 Tb 0.77681 0.77426 0.82355 0.0
Tb201 Tb 0.73961 0.74782 0.71528 0.0
C202 C 0.79069 0.7982 0.92034 0.0
C203 C 0.78281 0.78963 0.97316 0.0
C204 C 0.76563 0.81445 1.00555 0.0
C205 C 0.75995 0.80816 0.05702 0.0
C206 C 0.7716 0.77698 0.07747 0.0
C207 C 0.78834 0.75187 0.04471 0.0
C208 C 0.79381 0.75806 0.99306 0.0
C209 C 0.81128 0.72759 0.76679 0.0
C210 C 0.71856 0.71062 0.81032 0.0
C211 C 0.72446 0.72436 0.61848 0.0
C212 C 0.73146 0.73273 0.5651 0.0
C213 C 0.76464 0.72776 0.54704 0.0
C214 C 0.7697 0.73334 0.49494 0.0
C215 C 0.74172 0.74395 0.45969 0.0
C216 C 0.70878 0.74956 0.47835 0.0
C217 C 0.70371 0.74384 0.53024 0.0
C218 C 0.70526 0.79436 0.7726 0.0
C219 C 0.79823 0.81106 0.72838 0.0
O220 O 0.76441 0.8088 0.88882 0.0
O221 O 0.811 0.7768 0.89457 0.0
O222 O 0.77847 0.72704 0.76918 0.0
O223 O 0.82614 0.75353 0.79968 0.0
O224 O 0.73768 0.73569 0.84208 0.0
O225 O 0.71831 0.70755 0.75796 0.0
O226 O 0.75059 0.71303 0.64955 0.0
O227 O 0.70504 0.74647 0.64468 0.0
O228 O 0.73798 0.79498 0.7696 0.0
O229 O 0.69038 0.76825 0.74011 0.0
O230 O 0.7792 0.78587 0.6967 0.0
O231 O 0.79828 0.81435 0.78072 0.0
H232 H 0.75711 0.83909 0.99135 0.0
H233 H 0.74729 0.82819 0.08136 0.0
H234 H 0.79722 0.72739 0.05902 0.0
H235 H 0.80706 0.73832 0.96909 0.0
H236 H 0.78657 0.71895 0.57274 0.0
H237 H 0.79533 0.72839 0.48187 0.0
H238 H 0.68677 0.75833 0.45279 0.0
H239 H 0.6778 0.7477 0.54292 0.0
Tb240 Tb 0.49487 0.49234 0.96465 0.0
Tb241 Tb 0.52214 0.52877 0.07376 0.0
C242 C 0.46943 0.47823 0.86841 0.0
C243 C 0.47614 0.48592 0.81493 0.0
C244 C 0.44801 0.4833 0.77399 0.0
C245 C 0.45372 0.48847 0.72212 0.0
C246 C 0.48777 0.49649 0.71009 0.0
C247 C 0.51586 0.49988 0.75159 0.0
C248 C 0.5101 0.49451 0.80354 0.0
C249 C 0.54162 0.45729 0.02054 0.0
C250 C 0.55832 0.55081 0.97832 0.0
C251 C 0.54686 0.54171 0.17039 0.0
C252 C 0.53859 0.53403 0.22343 0.0
C253 C 0.56416 0.51855 0.25696 0.0
C254 C 0.55816 0.5132 0.30869 0.0
C255 C 0.52646 0.52346 0.32835 0.0
C256 C 0.50055 0.53833 0.29422 0.0
C257 C 0.5065 0.54351 0.24233 0.0
C258 C 0.47542 0.56385 1.01786 0.0
C259 C 0.45852 0.47048 0.06016 0.0
O260 O 0.45938 0.50462 0.90025 0.0
O261 O 0.49229 0.45868 0.89312 0.0
O262 O 0.54206 0.49028 1.01855 0.0
O263 O 0.51564 0.44252 0.98774 0.0
O264 O 0.533 0.53207 0.94647 0.0
O265 O 0.56183 0.55042 0.03063 0.0
O266 O 0.55633 0.51499 0.13857 0.0
O267 O 0.52601 0.56282 0.14508 0.0
O268 O 0.47501 0.53086 0.01992 0.0
O269 O 0.50128 0.57863 0.05091 0.0
O270 O 0.48351 0.48962 0.09203 0.0
O271 O 0.45536 0.47039 1.0078 0.0
H272 H 0.42159 0.47678 0.78201 0.0
H273 H 0.43141 0.48623 0.69139 0.0
H274 H 0.54244 0.50575 0.74367 0.0
H275 H 0.53221 0.49644 0.83455 0.0
H276 H 0.58909 0.51095 0.24333 0.0
H277 H 0.57846 0.50104 0.3333 0.0
H278 H 0.47596 0.5469 0.30799 0.0
H279 H 0.48622 0.55551 0.21746 0.0
Tb280 Tb 0.02651 0.49957 0.57402 0.0
Tb281 Tb 0.98889 0.51957 0.4707 0.0
C282 C 0.0569 0.49989 0.66746 0.0
C283 C 0.04721 0.50435 0.72229 0.0
C284 C 0.07251 0.51761 0.76453 0.0
C285 C 0.0648 0.51966 0.81721 0.0
C286 C 0.03159 0.5083 0.82889 0.0
C287 C 1.00596 0.49582 0.78613 0.0
C288 C 0.01366 0.49396 0.7334 0.0
C289 C 0.9781 0.45388 0.52421 0.0
C290 C 0.95808 0.54809 0.57398 0.0
C291 C 0.95905 0.52004 0.37705 0.0
C292 C 0.96883 0.51748 0.32188 0.0
C293 C 0.97083 0.48451 0.29124 0.0
C294 C 0.97794 0.48267 0.23818 0.0
C295 C 0.98306 0.51373 0.21434 0.0
C296 C 0.98141 0.54662 0.24532 0.0
C297 C 0.97422 0.54846 0.29816 0.0
C298 C 0.03748 0.56511 0.52059 0.0
C299 C 0.05711 0.47074 0.4706 0.0
O300 O 0.05525 0.52789 0.64178 0.0
O301 O 0.04438 0.47128 0.63725 0.0
O302 O 0.97641 0.48695 0.52855 0.0
O303 O 1.00679 0.44497 0.55099 0.0
O304 O 0.98766 0.5381 0.60029 0.0
O305 O 0.94987 0.53803 0.52241 0.0
O306 O 0.9613 0.49159 0.40175 0.0
O307 O 0.97007 0.54858 0.40871 0.0
O308 O 0.03899 0.53205 0.51602 0.0
O309 O 0.00884 0.57414 0.49388 0.0
O310 O 0.02765 0.48099 0.4443 0.0
O311 O 0.06532 0.48054 0.52226 0.0
H312 H 0.09849 0.52594 0.75682 0.0
H313 H 0.08497 0.53013 0.84881 0.0
H314 H 0.98022 0.48654 0.79337 0.0
H315 H 0.99364 0.48371 0.70139 0.0
H316 H 0.96638 0.4601 0.30795 0.0
H317 H 0.97856 0.45687 0.21547 0.0
H318 H 0.98576 0.57111 0.2288 0.0
H319 H 0.97255 0.57431 0.32033 0.0
H320 H 0.07406 0.04289 0.37477 0.0
H321 H 0.09948 0.10752 0.52553 0.0
H322 H 0.11405 0.07921 0.33447 0.0
H323 H 0.13789 0.14529 0.4848 0.0
H324 H 0.22686 0.19282 0.41124 0.0
H325 H 0.19041 0.1528 0.4514 0.0
H326 H 0.12243 0.13229 0.30233 0.0
H327 H 0.16028 0.17069 0.2617 0.0
C328 C 0.08806 0.06505 0.39929 0.0
C329 C 0.08363 0.07215 0.4535 0.0
C330 C 0.11088 0.08621 0.37601 0.0
C331 C 0.12945 0.11562 0.40595 0.0
C332 C 0.12486 0.12262 0.46031 0.0
C333 C 0.10255 0.10102 0.4838 0.0
C334 C 0.20425 0.17953 0.38697 0.0
C335 C 0.1966 0.1849 0.33315 0.0
C336 C 0.18302 0.1567 0.41018 0.0
C337 C 0.15301 0.13909 0.38056 0.0
C338 C 0.14553 0.14457 0.32655 0.0
C339 C 0.16718 0.16686 0.30311 0.0
H340 H 0.04188 0.88663 0.53003 0.0
H341 H 0.10337 0.98313 0.58211 0.0
H342 H 0.08684 0.85302 0.57668 0.0
H343 H 0.14851 0.94938 0.62957 0.0
H344 H 0.19856 0.87617 0.75397 0.0
H345 H 0.15645 0.91313 0.70728 0.0
H346 H 0.14845 0.83616 0.56772 0.0
H347 H 0.19023 0.79922 0.61406 0.0
C348 C 0.06503 0.90068 0.55159 0.0
C349 C 0.06905 0.93752 0.55259 0.0
C350 C 0.09088 0.88139 0.57811 0.0
C351 C 0.12136 0.89848 0.60657 0.0
C352 C 0.1252 0.93549 0.60827 0.0
C353 C 0.09938 0.95481 0.5812 0.0
C354 C 0.18805 0.86727 0.71317 0.0
C355 C 0.19769 0.83459 0.68792 0.0
C356 C 0.16403 0.88853 0.68639 0.0
C357 C 0.14888 0.87743 0.63398 0.0
C358 C 0.15924 0.84522 0.60836 0.0
C359 C 0.18339 0.82413 0.6349 0.0
H360 H 0.30864 0.86095 0.79049 0.0
H361 H 0.37491 0.77379 0.82485 0.0
H362 H 0.34911 0.90159 0.85005 0.0
H363 H 0.41393 0.81339 0.8884 0.0
H364 H 0.49594 0.89598 0.96377 0.0
H365 H 0.45681 0.85642 0.90032 0.0
H366 H 0.3688 0.92191 0.93555 0.0
H367 H 0.40899 0.96288 0.99503 0.0
C368 C 0.33183 0.85059 0.81147 0.0
C369 C 0.3391 0.81458 0.803 0.0
C370 C 0.35489 0.87372 0.84617 0.0
C371 C 0.38504 0.86102 0.87461 0.0
C372 C 0.39169 0.82457 0.86643 0.0
C373 C 0.36924 0.80171 0.83031 0.0
C374 C 0.46816 0.90168 0.95766 0.0
C375 C 0.45522 0.93215 0.98406 0.0
C376 C 0.44557 0.87891 0.92159 0.0
C377 C 0.40931 0.8856 0.91256 0.0
C378 C 0.39653 0.91609 0.94011 0.0
C379 C 0.4194 0.93944 0.97475 0.0
H380 H 0.39356 0.07357 0.03077 0.0
H381 H 0.46985 0.08187 0.17134 0.0
H382 H 0.35623 0.11517 0.07738 0.0
H383 H 0.43255 0.12312 0.21759 0.0
H384 H 0.28566 0.16658 0.20276 0.0
H385 H 0.31982 0.12216 0.1547 0.0
H386 H 0.41505 0.18485 0.2094 0.0
H387 H 0.38108 0.22905 0.25664 0.0
C388 C 0.40226 0.08399 0.07167 0.0
C389 C 0.43485 0.07446 0.09714 0.0
C390 C 0.38077 0.10771 0.09842 0.0
C391 C 0.39155 0.12268 0.15103 0.0
C392 C 0.42372 0.11248 0.17681 0.0
C393 C 0.44503 0.08863 0.15031 0.0
C394 C 0.31383 0.17095 0.20394 0.0
C395 C 0.3307 0.20132 0.2333 0.0
C396 C 0.33338 0.14554 0.17651 0.0
C397 C 0.3702 0.14985 0.17857 0.0
C398 C 0.38684 0.18042 0.20768 0.0
C399 C 0.36734 0.20584 0.23456 0.0
H400 H 0.91859 0.91241 0.51208 0.0
H401 H 0.94185 0.97864 0.6618 0.0
H402 H 0.88018 0.87462 0.5528 0.0
H403 H 0.90183 0.94231 0.70205 0.0
H404 H 0.8557 0.85144 0.77613 0.0
H405 H 0.89367 0.88964 0.73538 0.0
H406 H 0.82743 0.86664 0.58509 0.0
H407 H 0.7909 0.82681 0.62543 0.0
C408 C 0.91503 0.91924 0.55356 0.0
C409 C 0.93337 0.94855 0.58362 0.0
C410 C 0.89272 0.89763 0.57705 0.0
C411 C 0.88753 0.90507 0.63113 0.0
C412 C 0.90549 0.93494 0.66077 0.0
C413 C 0.92833 0.95611 0.63752 0.0
C414 C 0.84921 0.85465 0.73441 0.0
C415 C 0.82025 0.836 0.70412 0.0
C416 C 0.87094 0.87685 0.7109 0.0
C417 C 0.86396 0.88161 0.65653 0.0
C418 C 0.83443 0.86332 0.62662 0.0
C419 C 0.81315 0.8406 0.64992 0.0
H420 H 0.97601 0.13393 0.50675 0.0
H421 H 0.914 0.03776 0.45465 0.0
H422 H 0.93143 0.16776 0.4598 0.0
H423 H 0.86918 0.07176 0.4069 0.0
H424 H 0.82849 0.22226 0.42236 0.0
H425 H 0.86998 0.18505 0.46869 0.0
H426 H 0.86154 0.10807 0.32913 0.0
H427 H 0.81969 0.14529 0.28246 0.0
C428 C 0.95282 0.12 0.48513 0.0
C429 C 0.94853 0.08319 0.48425 0.0
C430 C 0.92718 0.13942 0.45842 0.0
C431 C 0.89663 0.1225 0.42991 0.0
C432 C 0.89254 0.08552 0.42827 0.0
C433 C 0.91817 0.06606 0.45551 0.0
C434 C 0.83517 0.19729 0.40152 0.0
C435 C 0.8208 0.18689 0.34851 0.0
C436 C 0.85916 0.17605 0.42805 0.0
C437 C 0.8693 0.14374 0.40245 0.0
C438 C 0.85413 0.13273 0.35002 0.0
C439 C 0.83026 0.15415 0.32324 0.0
H440 H 0.70921 0.16066 0.24536 0.0
H441 H 0.64385 0.24873 0.21245 0.0
H442 H 0.66859 0.12077 0.18474 0.0
H443 H 0.60471 0.20992 0.14792 0.0
H444 H 0.52204 0.12839 0.07102 0.0
H445 H 0.56144 0.16729 0.13505 0.0
H446 H 0.64891 0.10127 0.09892 0.0
H447 H 0.60843 0.06093 0.03884 0.0
C448 C 0.68619 0.17138 0.22447 0.0
C449 C 0.6792 0.20742 0.23365 0.0
C450 C 0.66305 0.14869 0.18918 0.0
C451 C 0.63311 0.16188 0.16088 0.0
C452 C 0.62677 0.19836 0.16975 0.0
C453 C 0.64929 0.22077 0.20644 0.0
C454 C 0.54976 0.12244 0.07704 0.0
C455 C 0.56246 0.09199 0.05025 0.0
C456 C 0.57251 0.14482 0.11344 0.0
C457 C 0.60869 0.13777 0.12243 0.0
C458 C 0.62124 0.10735 0.09441 0.0
C459 C 0.59821 0.08437 0.05942 0.0
H460 H 0.73068 0.85658 0.83159 0.0
H461 H 0.63522 0.79365 0.78036 0.0
H462 H 0.6967 0.90149 0.879 0.0
H463 H 0.60142 0.83834 0.82692 0.0
H464 H 0.62368 0.95115 1.00325 0.0
H465 H 0.6608 0.90918 0.9569 0.0
H466 H 0.58369 0.89989 0.81755 0.0
H467 H 0.5466 0.9415 0.86356 0.0
C468 C 0.70254 0.85222 0.83084 0.0
C469 C 0.68561 0.82156 0.80248 0.0
C470 C 0.6831 0.87791 0.8579 0.0
C471 C 0.64631 0.8736 0.85641 0.0
C472 C 0.6296 0.84277 0.82819 0.0
C473 C 0.649 0.81707 0.8017 0.0
C474 C 0.61476 0.94036 0.96259 0.0
C475 C 0.58203 0.94964 0.93728 0.0
C476 C 0.63613 0.91643 0.93598 0.0
C477 C 0.62508 0.90098 0.8837 0.0
C478 C 0.59275 0.91091 0.85808 0.0
C479 C 0.57157 0.93498 0.88442 0.0
H480 H 0.59825 0.60868 0.02613 0.0
H481 H 0.57488 0.54303 0.87598 0.0
H482 H 0.63677 0.64658 0.98571 0.0
H483 H 0.61487 0.57946 0.83599 0.0
H484 H 0.66088 0.67063 0.76262 0.0
H485 H 0.62289 0.63237 0.80323 0.0
H486 H 0.68962 0.65444 0.95322 0.0
H487 H 0.72622 0.69431 0.91301 0.0
C488 C 0.60177 0.60201 0.9846 0.0
C489 C 0.58334 0.57284 0.95431 0.0
C490 C 0.62413 0.62368 0.9613 0.0
C491 C 0.62927 0.61644 0.90717 0.0
C492 C 0.61123 0.5867 0.87731 0.0
C493 C 0.58837 0.56548 0.90039 0.0
C494 C 0.66748 0.66718 0.80423 0.0
C495 C 0.6966 0.68559 0.83449 0.0
C496 C 0.64574 0.64497 0.82766 0.0
C497 C 0.65286 0.63994 0.8819 0.0
C498 C 0.68253 0.65798 0.91179 0.0
C499 C 0.70385 0.68072 0.88856 0.0
H500 H 0.69745 0.37608 0.25285 0.0
H501 H 0.68896 0.29871 0.11341 0.0
H502 H 0.65547 0.41301 0.20579 0.0
H503 H 0.64734 0.3356 0.06674 0.0
H504 H 0.54118 0.38679 0.02802 0.0
H505 H 0.58577 0.35297 0.07513 0.0
H506 H 0.64811 0.44895 0.12762 0.0
H507 H 0.60339 0.48289 0.07966 0.0
C508 C 0.68691 0.36706 0.2121 0.0
C509 C 0.69651 0.33431 0.18707 0.0
C510 C 0.66297 0.38831 0.1851 0.0
C511 C 0.64786 0.3771 0.13269 0.0
C512 C 0.6581 0.34476 0.10735 0.0
C513 C 0.68218 0.3237 0.13409 0.0
C514 C 0.56441 0.4007 0.04957 0.0
C515 C 0.56872 0.4375 0.0504 0.0
C516 C 0.59004 0.3813 0.07638 0.0
C517 C 0.62058 0.39824 0.10493 0.0
C518 C 0.62474 0.43519 0.10631 0.0
C519 C 0.59916 0.45461 0.07896 0.0
H520 H 0.90791 0.46005 0.49909 0.0
H521 H 0.99505 0.39387 0.46593 0.0
H522 H 0.86789 0.41979 0.43811 0.0
H523 H 0.95608 0.35509 0.40107 0.0
H524 H 0.87424 0.2731 0.32279 0.0
H525 H 0.9132 0.31197 0.38751 0.0
H526 H 0.84843 0.40075 0.35201 0.0
H527 H 0.80804 0.36079 0.29115 0.0
C528 C 0.91841 0.43693 0.4781 0.0
C529 C 0.95423 0.42962 0.4873 0.0
C530 C 0.89563 0.414 0.4426 0.0
C531 C 0.90851 0.38395 0.41408 0.0
C532 C 0.94477 0.37725 0.42304 0.0
C533 C 0.96727 0.39956 0.45993 0.0
C534 C 0.86857 0.30099 0.32909 0.0
C535 C 0.83845 0.31421 0.3022 0.0
C536 C 0.89099 0.32344 0.3659 0.0
C537 C 0.88432 0.35983 0.37526 0.0
C538 C 0.85422 0.3729 0.34721 0.0
C539 C 0.83121 0.35016 0.31177 0.0
H540 H 0.88161 0.72737 0.76101 0.0
H541 H 0.78564 0.66591 0.70667 0.0
H542 H 0.91533 0.68237 0.71491 0.0
H543 H 0.81951 0.62068 0.65982 0.0
H544 H 0.89282 0.57063 0.53676 0.0
H545 H 0.85589 0.61276 0.58309 0.0
H546 H 0.93229 0.62061 0.72322 0.0
H547 H 0.96923 0.57882 0.67717 0.0
C548 C 0.8677 0.70421 0.7391 0.0
C549 C 0.83097 0.70023 0.7373 0.0
C550 C 0.88706 0.67831 0.71289 0.0
C551 C 0.87016 0.64781 0.68394 0.0
C552 C 0.83328 0.644 0.68149 0.0
C553 C 0.81388 0.66987 0.70823 0.0
C554 C 0.90162 0.58111 0.5776 0.0
C555 C 0.93412 0.57141 0.60309 0.0
C556 C 0.88035 0.60515 0.6042 0.0
C557 C 0.89128 0.62027 0.65669 0.0
C558 C 0.92335 0.60987 0.68253 0.0
C559 C 0.94444 0.58569 0.65616 0.0
H560 H 0.29024 0.32738 0.125 0.0
H561 H 0.35484 0.35155 0.27596 0.0
H562 H 0.32703 0.36717 0.08501 0.0
H563 H 0.39306 0.3897 0.23556 0.0
H564 H 0.44188 0.4786 0.16251 0.0
H565 H 0.40159 0.44238 0.20247 0.0
H566 H 0.37993 0.37492 0.05302 0.0
H567 H 0.4186 0.41258 1.01259 0.0
C568 C 0.31249 0.34107 0.14963 0.0
C569 C 0.31946 0.33635 0.20379 0.0
C570 C 0.33393 0.36376 0.12653 0.0
C571 C 0.36348 0.38189 0.15662 0.0
C572 C 0.37032 0.37703 0.21095 0.0
C573 C 0.34845 0.35487 0.23426 0.0
C574 C 0.42831 0.45613 0.13813 0.0
C575 C 0.43342 0.4486 0.08425 0.0
C576 C 0.40531 0.43503 0.16122 0.0
C577 C 0.38724 0.40527 0.13142 0.0
C578 C 0.39253 0.39785 0.07738 0.0
C579 C 0.415 0.41939 0.05406 0.0
H580 H 0.41341 0.53848 0.9591 0.0
H581 H 0.47637 0.63422 1.0097 0.0
H582 H 0.36891 0.57257 0.91095 0.0
H583 H 0.43204 0.66818 0.96237 0.0
H584 H 0.32002 0.64518 0.78509 0.0
H585 H 0.3617 0.60813 0.83244 0.0
H586 H 0.37077 0.68625 0.97068 0.0
H587 H 0.32946 0.72329 0.92367 0.0
C588 C 0.41786 0.5667 0.95952 0.0
C589 C 0.44843 0.58367 0.98785 0.0
C590 C 0.3924 0.58622 0.93206 0.0
C591 C 0.39686 0.62312 0.93309 0.0
C592 C 0.42754 0.63991 0.96141 0.0
C593 C 0.45302 0.62042 0.98834 0.0
C594 C 0.33071 0.65433 0.82572 0.0
C595 C 0.32144 0.68731 0.85044 0.0
C596 C 0.35447 0.63301 0.8529 0.0
C597 C 0.36975 0.64437 0.90517 0.0
C598 C 0.35986 0.67696 0.93019 0.0
C599 C 0.33596 0.6981 0.90327 0.0
H600 H 0.14374 0.74747 0.71402 0.0
H601 H 0.21041 0.66038 0.74715 0.0
H602 H 0.10431 0.70785 0.65121 0.0
H603 H 0.16953 0.61968 0.68832 0.0
H604 H 0.10774 0.55829 0.54462 0.0
H605 H 0.14862 0.599 0.6034 0.0
H606 H 0.06142 0.66506 0.64074 0.0
H607 H 0.0216 0.62581 0.57798 0.0
C608 C 0.14943 0.71955 0.70843 0.0
C609 C 0.17977 0.70671 0.73523 0.0
C610 C 0.12673 0.69668 0.67275 0.0
C611 C 0.13331 0.66021 0.66454 0.0
C612 C 0.16375 0.64755 0.69231 0.0
C613 C 0.18706 0.67071 0.72657 0.0
C614 C 0.09765 0.58179 0.56524 0.0
C615 C 0.06186 0.58936 0.55666 0.0
C616 C 0.12093 0.605 0.59947 0.0
C617 C 0.1086 0.63562 0.6273 0.0
C618 C 0.07234 0.6425 0.61915 0.0
C619 C 0.04935 0.61989 0.5835 0.0
H620 H 0.13461 0.2925 0.28257 0.0
H621 H 0.22979 0.35594 0.33348 0.0
H622 H 0.10074 0.33671 0.32993 0.0
H623 H 0.19573 0.40038 0.38169 0.0
H624 H 0.12298 0.44913 0.50687 0.0
H625 H 0.16015 0.40755 0.4599 0.0
H626 H 0.08248 0.39815 0.32121 0.0
H627 H 0.04533 0.43937 0.36785 0.0
C628 C 0.14833 0.31592 0.30403 0.0
C629 C 0.18487 0.3207 0.30444 0.0
C630 C 0.12887 0.34135 0.33097 0.0
C631 C 0.14547 0.3722 0.3593 0.0
C632 C 0.18221 0.37678 0.36049 0.0
C633 C 0.20171 0.35136 0.33299 0.0
C634 C 0.11394 0.4384 0.46622 0.0
C635 C 0.08106 0.44754 0.44127 0.0
C636 C 0.13534 0.41469 0.43926 0.0
C637 C 0.12416 0.39934 0.38698 0.0
C638 C 0.09165 0.40911 0.36172 0.0
C639 C 0.07043 0.43296 0.38843 0.0
H640 H 0.07699 0.01155 0.90817 0.0
H641 H 0.96527 0.02798 0.87646 0.0
H642 H 0.07016 1.00495 1.00057 0.0
H643 H 0.95855 0.02171 0.9691 0.0
H644 H 0.96643 0.04477 0.15106 0.0
H645 H 0.97451 0.05261 0.05925 0.0
H646 H 0.04378 0.96399 0.05351 0.0
H647 H 0.03636 0.95672 0.1456 0.0
C648 C 0.05089 0.01339 0.92068 0.0
C649 C 0.02168 0.02023 0.88464 0.0
C650 C 0.047 1.0097 0.97378 0.0
C651 C 0.01382 0.01287 0.99234 0.0
C652 C 0.98459 0.01967 0.95636 0.0
C653 C 0.98845 0.02325 0.90319 0.0
C654 C 0.98371 0.02724 0.1304 0.0
C655 C 1.00072 1.0001 0.15568 0.0
C656 C 0.98803 0.03147 0.07758 0.0
C657 C 0.00968 1.00883 0.04889 0.0
C658 C 0.02712 0.98206 0.0745 0.0
C659 C 0.02262 0.97769 0.12716 0.0
H660 H 0.23076 0.79253 0.41592 0.0
H661 H 0.28829 0.69755 0.3808 0.0
H662 H 0.23096 0.80536 0.32421 0.0
H663 H 0.28714 0.70956 0.28874 0.0
H664 H 0.30994 0.75926 0.14083 0.0
H665 H 0.31162 0.74884 0.2339 0.0
H666 H 0.205 0.78467 0.23501 0.0
H667 H 0.20384 0.79637 0.14273 0.0
C668 C 0.24349 0.77438 0.38875 0.0
C669 C 0.25942 0.74393 0.40601 0.0
C670 C 0.24326 0.78153 0.33588 0.0
C671 C 0.25901 0.75848 0.29879 0.0
C672 C 0.27507 0.72815 0.31616 0.0
C673 C 0.2753 0.72099 0.36895 0.0
C674 C 0.28698 0.76527 0.16107 0.0
C675 C 0.25673 0.77859 0.13402 0.0
C676 C 0.28779 0.75891 0.21436 0.0
C677 C 0.25841 0.76579 0.24218 0.0
C678 C 0.22826 0.77936 0.21521 0.0
C679 C 0.22743 0.78565 0.16193 0.0
H680 H 0.54874 1.00954 0.66931 0.0
H681 H 0.43722 0.01669 0.62035 0.0
H682 H 0.56038 1.01044 0.57748 0.0
H683 H 0.44873 0.01572 0.52814 0.0
H684 H 0.48485 0.05037 0.37562 0.0
H685 H 0.47284 0.05067 0.46777 0.0
H686 H 0.55436 0.97495 0.4933 0.0
H687 H 0.56647 0.97491 0.40157 0.0
C688 C 0.52664 0.01129 0.63906 0.0
C689 C 0.492 0.01306 0.65266 0.0
C690 C 0.5333 0.01135 0.58609 0.0
C691 C 0.50552 0.01306 0.54501 0.0
C692 C 0.47087 0.01478 0.55857 0.0
C693 C 0.46422 0.01481 0.61157 0.0
C694 C 0.50005 0.03362 0.4008 0.0
C695 C 0.52678 0.01278 0.38103 0.0
C696 C 0.49314 0.03374 0.45375 0.0
C697 C 0.51268 0.01292 0.48837 0.0
C698 C 0.53921 0.99189 0.46837 0.0
C699 C 0.54617 0.99185 0.41557 0.0
H700 H 0.20015 0.21611 0.86749 0.0
H701 H 0.29301 0.2823 0.92347 0.0
H702 H 0.20803 0.22384 0.77596 0.0
H703 H 0.30113 0.28958 0.83155 0.0
H704 H 0.32359 0.26346 0.65758 0.0
H705 H 0.31617 0.25527 0.7494 0.0
H706 H 0.20435 0.27042 0.71626 0.0
H707 H 0.21164 0.27772 0.62408 0.0
C708 C 0.22209 0.23258 0.8604 0.0
C709 C 0.24581 0.24876 0.90313 0.0
C710 C 0.22663 0.23695 0.8078 0.0
C711 C 0.25513 0.25743 0.79637 0.0
C712 C 0.27911 0.2733 0.83893 0.0
C713 C 0.27447 0.26908 0.89167 0.0
C714 C 0.29736 0.2647 0.66974 0.0
C715 C 0.26819 0.27114 0.63337 0.0
C716 C 0.29318 0.2604 0.72255 0.0
C717 C 0.25968 0.26222 0.74025 0.0
C718 C 0.23048 0.26853 0.70383 0.0
C719 C 0.2347 0.27304 0.65111 0.0
H720 H 0.80077 0.20651 0.8861 0.0
H721 H 0.71818 0.28112 0.90727 0.0
H722 H 0.80059 0.2188 0.79434 0.0
H723 H 0.71771 0.29324 0.81506 0.0
H724 H 0.74957 0.33207 0.66337 0.0
H725 H 0.7507 0.32053 0.75565 0.0
H726 H 0.76681 0.20974 0.70896 0.0
H727 H 0.76756 0.2216 0.61712 0.0
C728 C 0.78227 0.22529 0.87103 0.0
C729 C 0.75936 0.24267 0.90423 0.0
C730 C 0.78214 0.23234 0.8182 0.0
C731 C 0.75904 0.25694 0.79683 0.0
C732 C 0.73624 0.27449 0.83014 0.0
C733 C 0.73646 0.26751 0.88313 0.0
C734 C 0.75387 0.3053 0.67276 0.0
C735 C 0.75863 0.27784 0.63241 0.0
C736 C 0.754 0.29857 0.72579 0.0
C737 C 0.75879 0.26415 0.74013 0.0
C738 C 0.76348 0.23668 0.69978 0.0
C739 C 0.76345 0.24342 0.64678 0.0
H740 H 0.69509 0.7256 0.37001 0.0
H741 H 0.79915 0.77206 0.42138 0.0
H742 H 0.70229 0.7333 0.27819 0.0
H743 H 0.80648 0.77923 0.32916 0.0
H744 H 0.81965 0.75185 0.15155 0.0
H745 H 0.81263 0.74332 0.24346 0.0
H746 H 0.70666 0.7814 0.22183 0.0
H747 H 0.71342 0.78922 0.12963 0.0
C748 C 0.71941 0.73777 0.36189 0.0
C749 C 0.74646 0.74839 0.40339 0.0
C750 C 0.72354 0.74209 0.30912 0.0
C751 C 0.75492 0.75694 0.29629 0.0
C752 C 0.78213 0.7673 0.3376 0.0
C753 C 0.77793 0.76314 0.3905 0.0
C754 C 0.79473 0.75806 0.16626 0.0
C755 C 0.76706 0.77115 0.1332 0.0
C756 C 0.79085 0.75354 0.21911 0.0
C757 C 0.75912 0.76173 0.24006 0.0
C758 C 0.73136 0.77455 0.20684 0.0
C759 C 0.73533 0.77932 0.15414 0.0
H760 H 0.52952 0.54616 0.67484 0.0
H761 H 0.45991 0.45572 0.6188 0.0
H762 H 0.53867 0.55294 0.58319 0.0
H763 H 0.46935 0.46211 0.5274 0.0
H764 H 0.46537 0.50422 0.36652 0.0
H765 H 0.45606 0.49892 0.45832 0.0
H766 H 0.56589 0.52642 0.50918 0.0
H767 H 0.57475 0.53361 0.41787 0.0
C768 C 0.51641 0.52753 0.643 0.0
C769 C 0.49386 0.5005 0.65423 0.0
C770 C 0.52169 0.53136 0.59037 0.0
C771 C 0.50469 0.50814 0.54762 0.0
C772 C 0.48235 0.48095 0.55904 0.0
C773 C 0.47697 0.47723 0.61157 0.0
C774 C 0.48747 0.50955 0.3973 0.0
C775 C 0.52083 0.51935 0.38448 0.0
C776 C 0.48223 0.50605 0.45001 0.0
C777 C 0.51023 0.51213 0.49142 0.0
C778 C 0.54359 0.52191 0.47859 0.0
C779 C 0.54879 0.52553 0.42593 0.0
H780 H 0.96973 0.52436 0.87072 0.0
H781 H 0.07625 0.49304 0.91544 0.0
H782 H 0.95732 0.52388 0.96231 0.0
H783 H 0.06442 0.49448 1.00746 0.0
H784 H 0.02292 0.46651 0.15852 0.0
H785 H 0.0334 0.46412 0.06557 0.0
H786 H 0.96974 0.55591 0.04848 0.0
H787 H 0.95777 0.55713 0.14037 0.0
C788 C 0.99055 0.51737 0.89999 0.0
C789 C 0.02404 0.50878 0.88534 0.0
C790 C 0.98354 0.51753 0.95283 0.0
C791 C 0.00985 0.50922 0.99265 0.0
C792 C 0.04332 0.50061 0.97797 0.0
C793 C 0.05029 0.50031 0.92513 0.0
C794 C 0.01077 0.48591 0.13478 0.0
C795 C 0.98955 0.51207 0.15729 0.0
C796 C 0.01716 0.48483 0.08152 0.0
C797 C 1.00256 0.5099 0.04924 0.0
C798 C 0.98116 0.53589 0.07171 0.0
C799 C 0.97469 0.53691 0.12484 0.0
loop_
_geom_bond_atom_site_label_1
_geom_bond_atom_site_label_2
_geom_bond_distance
_geom_bond_site_symmetry_2
_ccdc_geom_bond_type
Tb0 C2 2.809 1_655 S
Tb0 O20 2.484 . S
Tb0 O21 2.440 1_655 S
Tb0 O22 2.658 1_655 S
Tb0 O23 2.409 1_655 S
Tb0 O24 2.378 1_665 S
Tb0 O28 2.325 1_565 S
Tb0 O31 2.341 . S
Tb1 C11 2.809 1_455 S
Tb1 O22 2.325 1_545 S
Tb1 O25 2.341 . S
Tb1 O26 2.484 . S
Tb1 O27 2.440 1_455 S
Tb1 O28 2.658 1_455 S
Tb1 O29 2.409 1_455 S
Tb1 O30 2.378 1_445 S
C2 Tb0 2.809 1_455 S
C2 C3 1.514 . S
C2 O20 1.248 1_455 S
C2 O21 1.266 . S
C3 C2 1.514 . S
C3 C4 1.350 1_465 S
C3 C8 1.348 . S
C4 C3 1.350 1_645 S
C4 C5 1.370 1_655 S
C4 H32 0.948 . S
C5 C4 1.370 1_455 S
C5 C6 1.347 1_545 S
C5 H33 0.931 1_455 S
C6 C5 1.347 1_565 S
C6 C7 1.369 . S
C7 C6 1.369 . S
C7 C8 1.408 . S
C7 H34 0.930 . S
C8 C3 1.348 . S
C8 C7 1.408 . S
C8 H35 0.930 . S
C9 O22 1.281 . S
C9 O23 1.254 . S
C10 O24 1.236 . S
C10 O25 1.266 . S
C11 Tb1 2.809 1_655 S
C11 C12 1.514 . S
C11 O26 1.248 1_655 S
C11 O27 1.266 . S
C12 C11 1.514 . S
C12 C13 1.359 1_645 S
C12 C17 1.348 . S
C13 C12 1.359 1_465 S
C13 C14 1.380 1_455 S
C13 H36 0.929 . S
C14 C13 1.380 1_655 S
C14 C15 1.347 1_565 S
C14 H37 0.931 1_655 S
C15 C14 1.347 1_545 S
C15 C16 1.369 . S
C16 C15 1.369 . S
C16 C17 1.408 . S
C16 H38 0.930 . S
C17 C12 1.348 . S
C17 C16 1.408 . S
C17 H39 0.930 . S
C18 O28 1.281 . S
C18 O29 1.254 . S
C19 O30 1.236 . S
C19 O31 1.266 . S
O20 Tb0 2.484 . S
O20 C2 1.248 1_655 S
O21 Tb0 2.440 1_455 S
O21 C2 1.266 . S
O22 Tb0 2.658 1_455 S
O22 Tb1 2.325 1_565 S
O22 C9 1.281 . S
O23 Tb0 2.409 1_455 S
O23 C9 1.254 . S
O24 Tb0 2.378 1_445 S
O24 C10 1.236 . S
O25 Tb1 2.341 . S
O25 C10 1.266 . S
O26 Tb1 2.484 . S
O26 C11 1.248 1_455 S
O27 Tb1 2.440 1_655 S
O27 C11 1.266 . S
O28 Tb0 2.325 1_545 S
O28 Tb1 2.658 1_655 S
O28 C18 1.281 . S
O29 Tb1 2.409 1_655 S
O29 C18 1.254 . S
O30 Tb1 2.378 1_665 S
O30 C19 1.236 . S
O31 Tb0 2.341 . S
O31 C19 1.266 . S
H32 C4 0.948 . S
H33 C5 0.931 1_655 S
H34 C7 0.930 . S
H35 C8 0.930 . S
H36 C13 0.929 . S
H37 C14 0.931 1_455 S
H38 C16 0.930 . S
H39 C17 0.930 . S
Tb40 C42 2.809 . S
Tb40 O60 2.484 . S
Tb40 O61 2.440 . S
Tb40 O62 2.658 . S
Tb40 O63 2.409 . S
Tb40 O64 2.378 . S
Tb40 O68 2.325 . S
Tb40 O71 2.341 . S
Tb41 C51 2.809 . S
Tb41 O62 2.325 . S
Tb41 O65 2.341 . S
Tb41 O66 2.484 . S
Tb41 O67 2.440 . S
Tb41 O68 2.658 . S
Tb41 O69 2.409 . S
Tb41 O70 2.378 . S
C42 Tb40 2.809 . S
C42 C43 1.514 . S
C42 O60 1.248 . S
C42 O61 1.266 . S
C43 C42 1.514 . S
C43 C44 1.359 . S
C43 C48 1.348 . S
C44 C43 1.359 . S
C44 C45 1.380 . S
C44 H72 0.929 . S
C45 C44 1.380 . S
C45 C46 1.347 . S
C45 H73 0.931 . S
C46 C45 1.347 . S
C46 C47 1.369 . S
C47 C46 1.369 . S
C47 C48 1.408 . S
C47 H74 0.930 . S
C48 C43 1.348 . S
C48 C47 1.408 . S
C48 H75 0.930 . S
C49 O62 1.281 . S
C49 O63 1.254 . S
C50 O64 1.236 . S
C50 O65 1.266 . S
C51 Tb41 2.809 . S
C51 C52 1.514 . S
C51 O66 1.248 . S
C51 O67 1.266 . S
C52 C51 1.514 . S
C52 C53 1.359 . S
C52 C57 1.348 . S
C53 C52 1.359 . S
C53 C54 1.380 1_556 S
C53 H76 0.929 . S
C54 C53 1.380 1_554 S
C54 C55 1.347 . S
C54 H77 0.931 . S
C55 C54 1.347 . S
C55 C56 1.369 . S
C56 C55 1.369 . S
C56 C57 1.408 1_554 S
C56 H78 0.930 . S
C57 C52 1.348 . S
C57 C56 1.408 1_556 S
C57 H79 0.930 . S
C58 O68 1.281 . S
C58 O69 1.254 . S
C59 O70 1.236 . S
C59 O71 1.266 . S
O60 Tb40 2.484 . S
O60 C42 1.248 . S
O61 Tb40 2.440 . S
O61 C42 1.266 . S
O62 Tb40 2.658 . S
O62 Tb41 2.325 . S
O62 C49 1.281 . S
O63 Tb40 2.409 . S
O63 C49 1.254 . S
O64 Tb40 2.378 . S
O64 C50 1.236 . S
O65 Tb41 2.341 . S
O65 C50 1.266 . S
O66 Tb41 2.484 . S
O66 C51 1.248 . S
O67 Tb41 2.440 . S
O67 C51 1.266 . S
O68 Tb40 2.325 . S
O68 Tb41 2.658 . S
O68 C58 1.281 . S
O69 Tb41 2.409 . S
O69 C58 1.254 . S
O70 Tb41 2.378 . S
O70 C59 1.236 . S
O71 Tb40 2.341 . S
O71 C59 1.266 . S
H72 C44 0.929 . S
H73 C45 0.931 . S
H74 C47 0.930 . S
H75 C48 0.930 . S
H76 C53 0.929 . S
H77 C54 0.931 . S
H78 C56 0.930 . S
H79 C57 0.930 . S
Tb80 C82 2.809 . S
Tb80 O100 2.484 1_565 S
Tb80 O101 2.440 . S
Tb80 O102 2.658 1_554 S
Tb80 O103 2.409 . S
Tb80 O104 2.378 1_565 S
Tb80 O108 2.325 1_565 S
Tb80 O111 2.341 1_554 S
Tb81 C91 2.809 . S
Tb81 O102 2.325 1_545 S
Tb81 O105 2.341 1_556 S
Tb81 O106 2.484 1_545 S
Tb81 O107 2.440 . S
Tb81 O108 2.658 1_556 S
Tb81 O109 2.409 . S
Tb81 O110 2.378 1_545 S
C82 Tb80 2.809 . S
C82 C83 1.514 . S
C82 O100 1.248 1_565 S
C82 O101 1.266 . S
C83 C82 1.514 . S
C83 C84 1.359 1_565 S
C83 C88 1.348 . S
C84 C83 1.359 1_545 S
C84 C85 1.380 . S
C84 H112 0.929 . S
C85 C84 1.380 . S
C85 C86 1.347 . S
C85 H113 0.931 . S
C86 C85 1.347 . S
C86 C87 1.369 1_545 S
C87 C86 1.369 1_565 S
C87 C88 1.408 . S
C87 H114 0.930 . S
C88 C83 1.348 . S
C88 C87 1.408 . S
C88 H115 0.930 . S
C89 O102 1.281 . S
C89 O103 1.254 1_556 S
C90 O104 1.236 . S
C90 O105 1.266 . S
C91 Tb81 2.809 . S
C91 C92 1.514 . S
C91 O106 1.248 1_545 S
C91 O107 1.266 . S
C92 C91 1.514 . S
C92 C93 1.359 1_545 S
C92 C97 1.348 . S
C93 C92 1.359 1_565 S
C93 C94 1.380 . S
C93 H116 0.929 . S
C94 C93 1.380 . S
C94 C95 1.347 . S
C94 H117 0.931 . S
C95 C94 1.347 . S
C95 C96 1.369 1_565 S
C96 C95 1.369 1_545 S
C96 C97 1.408 . S
C96 H118 0.930 . S
C97 C92 1.348 . S
C97 C96 1.408 . S
C97 H119 0.930 . S
C98 O108 1.281 . S
C98 O109 1.254 1_554 S
C99 O110 1.236 . S
C99 O111 1.266 . S
O100 Tb80 2.484 1_545 S
O100 C82 1.248 1_545 S
O101 Tb80 2.440 . S
O101 C82 1.266 . S
O102 Tb80 2.658 1_556 S
O102 Tb81 2.325 1_565 S
O102 C89 1.281 . S
O103 Tb80 2.409 . S
O103 C89 1.254 1_554 S
O104 Tb80 2.378 1_545 S
O104 C90 1.236 . S
O105 Tb81 2.341 1_554 S
O105 C90 1.266 . S
O106 Tb81 2.484 1_565 S
O106 C91 1.248 1_565 S
O107 Tb81 2.440 . S
O107 C91 1.266 . S
O108 Tb80 2.325 1_545 S
O108 Tb81 2.658 1_554 S
O108 C98 1.281 . S
O109 Tb81 2.409 . S
O109 C98 1.254 1_556 S
O110 Tb81 2.378 1_565 S
O110 C99 1.236 . S
O111 Tb80 2.341 1_556 S
O111 C99 1.266 . S
H112 C84 0.929 . S
H113 C85 0.931 . S
H114 C87 0.930 . S
H115 C88 0.930 . S
H116 C93 0.929 . S
H117 C94 0.931 . S
H118 C96 0.930 . S
H119 C97 0.930 . S
Tb120 C122 2.809 . S
Tb120 O140 2.484 . S
Tb120 O141 2.440 . S
Tb120 O142 2.658 . S
Tb120 O143 2.409 . S
Tb120 O144 2.378 . S
Tb120 O148 2.325 . S
Tb120 O151 2.341 . S
Tb121 C131 2.809 . S
Tb121 O142 2.325 . S
Tb121 O145 2.341 . S
Tb121 O146 2.484 . S
Tb121 O147 2.440 . S
Tb121 O148 2.658 . S
Tb121 O149 2.409 . S
Tb121 O150 2.378 . S
C122 Tb120 2.809 . S
C122 C123 1.514 . S
C122 O140 1.248 . S
C122 O141 1.266 . S
C123 C122 1.514 . S
C123 C124 1.359 . S
C123 C128 1.348 . S
C124 C123 1.359 . S
C124 C125 1.380 . S
C124 H152 0.929 . S
C125 C124 1.380 . S
C125 C126 1.347 . S
C125 H153 0.931 . S
C126 C125 1.347 . S
C126 C127 1.369 . S
C127 C126 1.369 . S
C127 C128 1.408 . S
C127 H154 0.930 . S
C128 C123 1.348 . S
C128 C127 1.408 . S
C128 H155 0.930 . S
C129 O142 1.281 . S
C129 O143 1.254 . S
C130 O144 1.236 . S
C130 O145 1.266 . S
C131 Tb121 2.809 . S
C131 C132 1.514 . S
C131 O146 1.248 . S
C131 O147 1.266 . S
C132 C131 1.514 . S
C132 C133 1.359 . S
C132 C137 1.348 . S
C133 C132 1.359 . S
C133 C134 1.380 1_554 S
C133 H156 0.929 . S
C134 C133 1.380 1_556 S
C134 C135 1.347 . S
C134 H157 0.931 . S
C135 C134 1.347 . S
C135 C136 1.369 . S
C136 C135 1.369 . S
C136 C137 1.408 1_556 S
C136 H158 0.930 . S
C137 C132 1.348 . S
C137 C136 1.408 1_554 S
C137 H159 0.930 . S
C138 O148 1.281 . S
C138 O149 1.254 . S
C139 O150 1.236 . S
C139 O151 1.266 . S
O140 Tb120 2.484 . S
O140 C122 1.248 . S
O141 Tb120 2.440 . S
O141 C122 1.266 . S
O142 Tb120 2.658 . S
O142 Tb121 2.325 . S
O142 C129 1.281 . S
O143 Tb120 2.409 . S
O143 C129 1.254 . S
O144 Tb120 2.378 . S
O144 C130 1.236 . S
O145 Tb121 2.341 . S
O145 C130 1.266 . S
O146 Tb121 2.484 . S
O146 C131 1.248 . S
O147 Tb121 2.440 . S
O147 C131 1.266 . S
O148 Tb120 2.325 . S
O148 Tb121 2.658 . S
O148 C138 1.281 . S
O149 Tb121 2.409 . S
O149 C138 1.254 . S
O150 Tb121 2.378 . S
O150 C139 1.236 . S
O151 Tb120 2.341 . S
O151 C139 1.266 . S
H152 C124 0.929 . S
H153 C125 0.931 . S
H154 C127 0.930 . S
H155 C128 0.930 . S
H156 C133 0.929 . S
H157 C134 0.931 . S
H158 C136 0.930 . S
H159 C137 0.930 . S
Tb160 C162 2.809 . S
Tb160 O180 2.484 . S
Tb160 O181 2.440 . S
Tb160 O182 2.658 . S
Tb160 O183 2.409 . S
Tb160 O184 2.378 . S
Tb160 O188 2.325 . S
Tb160 O191 2.341 . S
Tb161 C171 2.809 . S
Tb161 O182 2.325 . S
Tb161 O185 2.341 . S
Tb161 O186 2.484 . S
Tb161 O187 2.440 . S
Tb161 O188 2.658 . S
Tb161 O189 2.409 . S
Tb161 O190 2.378 . S
C162 Tb160 2.809 . S
C162 C163 1.514 . S
C162 O180 1.248 . S
C162 O181 1.266 . S
C163 C162 1.514 . S
C163 C164 1.359 . S
C163 C168 1.348 . S
C164 C163 1.359 . S
C164 C165 1.380 1_554 S
C164 H192 0.929 . S
C165 C164 1.380 1_556 S
C165 C166 1.347 . S
C165 H193 0.931 . S
C166 C165 1.347 . S
C166 C167 1.369 . S
C167 C166 1.369 . S
C167 C168 1.408 1_556 S
C167 H194 0.930 . S
C168 C163 1.348 . S
C168 C167 1.408 1_554 S
C168 H195 0.930 . S
C169 O182 1.281 . S
C169 O183 1.254 . S
C170 O184 1.236 . S
C170 O185 1.266 . S
C171 Tb161 2.809 . S
C171 C172 1.514 . S
C171 O186 1.248 . S
C171 O187 1.266 . S
C172 C171 1.514 . S
C172 C173 1.359 . S
C172 C177 1.348 . S
C173 C172 1.359 . S
C173 C174 1.380 . S
C173 H196 0.929 . S
C174 C173 1.380 . S
C174 C175 1.347 . S
C174 H197 0.931 . S
C175 C174 1.347 . S
C175 C176 1.369 . S
C176 C175 1.369 . S
C176 C177 1.408 . S
C176 H198 0.930 . S
C177 C172 1.348 . S
C177 C176 1.408 . S
C177 H199 0.930 . S
C178 O188 1.281 . S
C178 O189 1.254 . S
C179 O190 1.236 . S
C179 O191 1.266 . S
O180 Tb160 2.484 . S
O180 C162 1.248 . S
O181 Tb160 2.440 . S
O181 C162 1.266 . S
O182 Tb160 2.658 . S
O182 Tb161 2.325 . S
O182 C169 1.281 . S
O183 Tb160 2.409 . S
O183 C169 1.254 . S
O184 Tb160 2.378 . S
O184 C170 1.236 . S
O185 Tb161 2.341 . S
O185 C170 1.266 . S
O186 Tb161 2.484 . S
O186 C171 1.248 . S
O187 Tb161 2.440 . S
O187 C171 1.266 . S
O188 Tb160 2.325 . S
O188 Tb161 2.658 . S
O188 C178 1.281 . S
O189 Tb161 2.409 . S
O189 C178 1.254 . S
O190 Tb161 2.378 . S
O190 C179 1.236 . S
O191 Tb160 2.341 . S
O191 C179 1.266 . S
H192 C164 0.929 . S
H193 C165 0.931 . S
H194 C167 0.930 . S
H195 C168 0.930 . S
H196 C173 0.929 . S
H197 C174 0.931 . S
H198 C176 0.930 . S
H199 C177 0.930 . S
Tb200 C202 2.809 . S
Tb200 O220 2.484 . S
Tb200 O221 2.440 . S
Tb200 O222 2.658 . S
Tb200 O223 2.409 . S
Tb200 O224 2.378 . S
Tb200 O228 2.325 . S
Tb200 O231 2.341 . S
Tb201 C211 2.809 . S
Tb201 O222 2.325 . S
Tb201 O225 2.341 . S
Tb201 O226 2.484 . S
Tb201 O227 2.440 . S
Tb201 O228 2.658 . S
Tb201 O229 2.409 . S
Tb201 O230 2.378 . S
C202 Tb200 2.809 . S
C202 C203 1.514 . S
C202 O220 1.248 . S
C202 O221 1.266 . S
C203 C202 1.514 . S
C203 C204 1.359 . S
C203 C208 1.348 . S
C204 C203 1.359 . S
C204 C205 1.380 1_556 S
C204 H232 0.929 . S
C205 C204 1.380 1_554 S
C205 C206 1.347 . S
C205 H233 0.931 . S
C206 C205 1.347 . S
C206 C207 1.369 . S
C207 C206 1.369 . S
C207 C208 1.408 1_554 S
C207 H234 0.930 . S
C208 C203 1.348 . S
C208 C207 1.408 1_556 S
C208 H235 0.930 . S
C209 O222 1.281 . S
C209 O223 1.254 . S
C210 O224 1.236 . S
C210 O225 1.266 . S
C211 Tb201 2.809 . S
C211 C212 1.514 . S
C211 O226 1.248 . S
C211 O227 1.266 . S
C212 C211 1.514 . S
C212 C213 1.359 . S
C212 C217 1.348 . S
C213 C212 1.359 . S
C213 C214 1.380 . S
C213 H236 0.929 . S
C214 C213 1.380 . S
C214 C215 1.347 . S
C214 H237 0.931 . S
C215 C214 1.347 . S
C215 C216 1.369 . S
C216 C215 1.369 . S
C216 C217 1.408 . S
C216 H238 0.930 . S
C217 C212 1.348 . S
C217 C216 1.408 . S
C217 H239 0.930 . S
C218 O228 1.281 . S
C218 O229 1.254 . S
C219 O230 1.236 . S
C219 O231 1.266 . S
O220 Tb200 2.484 . S
O220 C202 1.248 . S
O221 Tb200 2.440 . S
O221 C202 1.266 . S
O222 Tb200 2.658 . S
O222 Tb201 2.325 . S
O222 C209 1.281 . S
O223 Tb200 2.409 . S
O223 C209 1.254 . S
O224 Tb200 2.378 . S
O224 C210 1.236 . S
O225 Tb201 2.341 . S
O225 C210 1.266 . S
O226 Tb201 2.484 . S
O226 C211 1.248 . S
O227 Tb201 2.440 . S
O227 C211 1.266 . S
O228 Tb200 2.325 . S
O228 Tb201 2.658 . S
O228 C218 1.281 . S
O229 Tb201 2.409 . S
O229 C218 1.254 . S
O230 Tb201 2.378 . S
O230 C219 1.236 . S
O231 Tb200 2.341 . S
O231 C219 1.266 . S
H232 C204 0.929 . S
H233 C205 0.931 . S
H234 C207 0.930 . S
H235 C208 0.930 . S
H236 C213 0.929 . S
H237 C214 0.931 . S
H238 C216 0.930 . S
H239 C217 0.930 . S
Tb240 C242 2.809 . S
Tb240 O260 2.484 . S
Tb240 O261 2.440 . S
Tb240 O262 2.658 1_556 S
Tb240 O263 2.409 . S
Tb240 O264 2.378 . S
Tb240 O268 2.325 . S
Tb240 O271 2.341 . S
Tb241 C251 2.809 . S
Tb241 O262 2.325 . S
Tb241 O265 2.341 . S
Tb241 O266 2.484 . S
Tb241 O267 2.440 . S
Tb241 O268 2.658 1_554 S
Tb241 O269 2.409 . S
Tb241 O270 2.378 . S
C242 Tb240 2.809 . S
C242 C243 1.514 . S
C242 O260 1.248 . S
C242 O261 1.266 . S
C243 C242 1.514 . S
C243 C244 1.359 . S
C243 C248 1.348 . S
C244 C243 1.359 . S
C244 C245 1.380 . S
C244 H272 0.929 . S
C245 C244 1.380 . S
C245 C246 1.347 . S
C245 H273 0.931 . S
C246 C245 1.347 . S
C246 C247 1.369 . S
C247 C246 1.369 . S
C247 C248 1.408 . S
C247 H274 0.930 . S
C248 C243 1.348 . S
C248 C247 1.408 . S
C248 H275 0.930 . S
C249 O262 1.281 . S
C249 O263 1.254 1_554 S
C250 O264 1.236 . S
C250 O265 1.266 1_556 S
C251 Tb241 2.809 . S
C251 C252 1.514 . S
C251 O266 1.248 . S
C251 O267 1.266 . S
C252 C251 1.514 . S
C252 C253 1.359 . S
C252 C257 1.348 . S
C253 C252 1.359 . S
C253 C254 1.380 . S
C253 H276 0.929 . S
C254 C253 1.380 . S
C254 C255 1.347 . S
C254 H277 0.931 . S
C255 C254 1.347 . S
C255 C256 1.369 . S
C256 C255 1.369 . S
C256 C257 1.408 . S
C256 H278 0.930 . S
C257 C252 1.348 . S
C257 C256 1.408 . S
C257 H279 0.930 . S
C258 O268 1.281 . S
C258 O269 1.254 1_556 S
C259 O270 1.236 . S
C259 O271 1.266 1_554 S
O260 Tb240 2.484 . S
O260 C242 1.248 . S
O261 Tb240 2.440 . S
O261 C242 1.266 . S
O262 Tb240 2.658 1_554 S
O262 Tb241 2.325 . S
O262 C249 1.281 . S
O263 Tb240 2.409 . S
O263 C249 1.254 1_556 S
O264 Tb240 2.378 . S
O264 C250 1.236 . S
O265 Tb241 2.341 . S
O265 C250 1.266 1_554 S
O266 Tb241 2.484 . S
O266 C251 1.248 . S
O267 Tb241 2.440 . S
O267 C251 1.266 . S
O268 Tb240 2.325 . S
O268 Tb241 2.658 1_556 S
O268 C258 1.281 . S
O269 Tb241 2.409 . S
O269 C258 1.254 1_554 S
O270 Tb241 2.378 . S
O270 C259 1.236 . S
O271 Tb240 2.341 . S
O271 C259 1.266 1_556 S
H272 C244 0.929 . S
H273 C245 0.931 . S
H274 C247 0.930 . S
H275 C248 0.930 . S
H276 C253 0.929 . S
H277 C254 0.931 . S
H278 C256 0.930 . S
H279 C257 0.930 . S
Tb280 C282 2.809 1_455 S
Tb280 O300 2.484 . S
Tb280 O301 2.440 1_455 S
Tb280 O302 2.658 1_455 S
Tb280 O303 2.409 1_455 S
Tb280 O304 2.378 1_455 S
Tb280 O308 2.325 . S
Tb280 O311 2.341 . S
Tb281 C291 2.809 1_655 S
Tb281 O302 2.325 . S
Tb281 O305 2.341 . S
Tb281 O306 2.484 . S
Tb281 O307 2.440 1_655 S
Tb281 O308 2.658 1_655 S
Tb281 O309 2.409 1_655 S
Tb281 O310 2.378 1_655 S
C282 Tb280 2.809 1_655 S
C282 C283 1.514 . S
C282 O300 1.248 1_655 S
C282 O301 1.266 . S
C283 C282 1.514 . S
C283 C284 1.359 1_655 S
C283 C288 1.348 . S
C284 C283 1.359 1_455 S
C284 C285 1.380 1_455 S
C284 H312 0.929 . S
C285 C284 1.380 1_655 S
C285 C286 1.347 . S
C285 H313 0.931 1_655 S
C286 C285 1.347 . S
C286 C287 1.369 . S
C287 C286 1.369 . S
C287 C288 1.408 . S
C287 H314 0.930 . S
C288 C283 1.348 . S
C288 C287 1.408 . S
C288 H315 0.930 . S
C289 O302 1.281 . S
C289 O303 1.254 . S
C290 O304 1.236 . S
C290 O305 1.266 . S
C291 Tb281 2.809 1_455 S
C291 C292 1.514 . S
C291 O306 1.248 1_455 S
C291 O307 1.266 . S
C292 C291 1.514 . S
C292 C293 1.359 1_455 S
C292 C297 1.348 . S
C293 C292 1.359 1_655 S
C293 C294 1.380 1_655 S
C293 H316 0.929 . S
C294 C293 1.380 1_455 S
C294 C295 1.347 . S
C294 H317 0.931 1_455 S
C295 C294 1.347 . S
C295 C296 1.369 . S
C296 C295 1.369 . S
C296 C297 1.408 . S
C296 H318 0.930 . S
C297 C292 1.348 . S
C297 C296 1.408 . S
C297 H319 0.930 . S
C298 O308 1.281 . S
C298 O309 1.254 . S
C299 O310 1.236 . S
C299 O311 1.266 . S
O300 Tb280 2.484 . S
O300 C282 1.248 1_455 S
O301 Tb280 2.440 1_655 S
O301 C282 1.266 . S
O302 Tb280 2.658 1_655 S
O302 Tb281 2.325 . S
O302 C289 1.281 . S
O303 Tb280 2.409 1_655 S
O303 C289 1.254 . S
O304 Tb280 2.378 1_655 S
O304 C290 1.236 . S
O305 Tb281 2.341 . S
O305 C290 1.266 . S
O306 Tb281 2.484 . S
O306 C291 1.248 1_655 S
O307 Tb281 2.440 1_455 S
O307 C291 1.266 . S
O308 Tb280 2.325 . S
O308 Tb281 2.658 1_455 S
O308 C298 1.281 . S
O309 Tb281 2.409 1_455 S
O309 C298 1.254 . S
O310 Tb281 2.378 1_455 S
O310 C299 1.236 . S
O311 Tb280 2.341 . S
O311 C299 1.266 . S
H312 C284 0.929 . S
H313 C285 0.931 1_455 S
H314 C287 0.930 . S
H315 C288 0.930 . S
H316 C293 0.929 . S
H317 C294 0.931 1_655 S
H318 C296 0.930 . S
H319 C297 0.930 . S
H320 C328 0.950 . S
H321 C333 0.950 . S
H322 C330 0.950 . S
H323 C332 0.950 . S
H324 C334 0.950 . S
H325 C336 0.950 . S
H326 C338 0.950 . S
H327 C339 0.950 . S
C328 H320 0.950 . S
C328 C329 1.386 . S
C328 C330 1.391 . S
C329 C328 1.386 . S
C329 C333 1.393 . S
C330 H322 0.950 . S
C330 C328 1.391 . S
C330 C331 1.400 . S
C331 C330 1.400 . S
C331 C332 1.398 . S
C331 C337 1.491 . S
C332 H323 0.950 . S
C332 C331 1.398 . S
C332 C333 1.391 . S
C333 H321 0.950 . S
C333 C329 1.393 . S
C333 C332 1.391 . S
C334 H324 0.950 . S
C334 C335 1.386 . S
C334 C336 1.391 . S
C335 C334 1.386 . S
C335 C339 1.393 . S
C336 H325 0.950 . S
C336 C334 1.391 . S
C336 C337 1.400 . S
C337 C331 1.491 . S
C337 C336 1.400 . S
C337 C338 1.398 . S
C338 H326 0.950 . S
C338 C337 1.398 . S
C338 C339 1.391 . S
C339 H327 0.950 . S
C339 C335 1.393 . S
C339 C338 1.391 . S
H340 C348 0.950 . S
H341 C353 0.950 . S
H342 C350 0.950 . S
H343 C352 0.950 . S
H344 C354 0.950 . S
H345 C356 0.950 . S
H346 C358 0.950 . S
H347 C359 0.950 . S
C348 H340 0.950 . S
C348 C349 1.386 . S
C348 C350 1.391 . S
C349 C348 1.386 . S
C349 C353 1.393 . S
C350 H342 0.950 . S
C350 C348 1.391 . S
C350 C351 1.400 . S
C351 C350 1.400 . S
C351 C352 1.398 . S
C351 C357 1.491 . S
C352 H343 0.950 . S
C352 C351 1.398 . S
C352 C353 1.391 . S
C353 H341 0.950 . S
C353 C349 1.393 . S
C353 C352 1.391 . S
C354 H344 0.950 . S
C354 C355 1.386 . S
C354 C356 1.391 . S
C355 C354 1.386 . S
C355 C359 1.393 . S
C356 H345 0.950 . S
C356 C354 1.391 . S
C356 C357 1.400 . S
C357 C351 1.491 . S
C357 C356 1.400 . S
C357 C358 1.398 . S
C358 H346 0.950 . S
C358 C357 1.398 . S
C358 C359 1.391 . S
C359 H347 0.950 . S
C359 C355 1.393 . S
C359 C358 1.391 . S
H360 C368 0.950 . S
H361 C373 0.950 . S
H362 C370 0.950 . S
H363 C372 0.950 . S
H364 C374 0.950 . S
H365 C376 0.950 . S
H366 C378 0.950 . S
H367 C379 0.950 . S
C368 H360 0.950 . S
C368 C369 1.386 . S
C368 C370 1.391 . S
C369 C368 1.386 . S
C369 C373 1.393 . S
C370 H362 0.950 . S
C370 C368 1.391 . S
C370 C371 1.400 . S
C371 C370 1.400 . S
C371 C372 1.398 . S
C371 C377 1.491 . S
C372 H363 0.950 . S
C372 C371 1.398 . S
C372 C373 1.391 . S
C373 H361 0.950 . S
C373 C369 1.393 . S
C373 C372 1.391 . S
C374 H364 0.950 . S
C374 C375 1.386 . S
C374 C376 1.391 . S
C375 C374 1.386 . S
C375 C379 1.393 . S
C376 H365 0.950 . S
C376 C374 1.391 . S
C376 C377 1.400 . S
C377 C371 1.491 . S
C377 C376 1.400 . S
C377 C378 1.398 . S
C378 H366 0.950 . S
C378 C377 1.398 . S
C378 C379 1.391 . S
C379 H367 0.950 . S
C379 C375 1.393 . S
C379 C378 1.391 . S
H380 C388 0.950 . S
H381 C393 0.950 . S
H382 C390 0.950 . S
H383 C392 0.950 . S
H384 C394 0.950 . S
H385 C396 0.950 . S
H386 C398 0.950 . S
H387 C399 0.950 . S
C388 H380 0.950 . S
C388 C389 1.386 . S
C388 C390 1.391 . S
C389 C388 1.386 . S
C389 C393 1.393 . S
C390 H382 0.950 . S
C390 C388 1.391 . S
C390 C391 1.400 . S
C391 C390 1.400 . S
C391 C392 1.398 . S
C391 C397 1.491 . S
C392 H383 0.950 . S
C392 C391 1.398 . S
C392 C393 1.391 . S
C393 H381 0.950 . S
C393 C389 1.393 . S
C393 C392 1.391 . S
C394 H384 0.950 . S
C394 C395 1.386 . S
C394 C396 1.391 . S
C395 C394 1.386 . S
C395 C399 1.393 . S
C396 H385 0.950 . S
C396 C394 1.391 . S
C396 C397 1.400 . S
C397 C391 1.491 . S
C397 C396 1.400 . S
C397 C398 1.398 . S
C398 H386 0.950 . S
C398 C397 1.398 . S
C398 C399 1.391 . S
C399 H387 0.950 . S
C399 C395 1.393 . S
C399 C398 1.391 . S
H400 C408 0.950 . S
H401 C413 0.950 . S
H402 C410 0.950 . S
H403 C412 0.950 . S
H404 C414 0.950 . S
H405 C416 0.950 . S
H406 C418 0.950 . S
H407 C419 0.950 . S
C408 H400 0.950 . S
C408 C409 1.386 . S
C408 C410 1.391 . S
C409 C408 1.386 . S
C409 C413 1.393 . S
C410 H402 0.950 . S
C410 C408 1.391 . S
C410 C411 1.400 . S
C411 C410 1.400 . S
C411 C412 1.398 . S
C411 C417 1.491 . S
C412 H403 0.950 . S
C412 C411 1.398 . S
C412 C413 1.391 . S
C413 H401 0.950 . S
C413 C409 1.393 . S
C413 C412 1.391 . S
C414 H404 0.950 . S
C414 C415 1.386 . S
C414 C416 1.391 . S
C415 C414 1.386 . S
C415 C419 1.393 . S
C416 H405 0.950 . S
C416 C414 1.391 . S
C416 C417 1.400 . S
C417 C411 1.491 . S
C417 C416 1.400 . S
C417 C418 1.398 . S
C418 H406 0.950 . S
C418 C417 1.398 . S
C418 C419 1.391 . S
C419 H407 0.950 . S
C419 C415 1.393 . S
C419 C418 1.391 . S
H420 C428 0.950 . S
H421 C433 0.950 . S
H422 C430 0.950 . S
H423 C432 0.950 . S
H424 C434 0.950 . S
H425 C436 0.950 . S
H426 C438 0.950 . S
H427 C439 0.950 . S
C428 H420 0.950 . S
C428 C429 1.386 . S
C428 C430 1.391 . S
C429 C428 1.386 . S
C429 C433 1.393 . S
C430 H422 0.950 . S
C430 C428 1.391 . S
C430 C431 1.400 . S
C431 C430 1.400 . S
C431 C432 1.398 . S
C431 C437 1.491 . S
C432 H423 0.950 . S
C432 C431 1.398 . S
C432 C433 1.391 . S
C433 H421 0.950 . S
C433 C429 1.393 . S
C433 C432 1.391 . S
C434 H424 0.950 . S
C434 C435 1.386 . S
C434 C436 1.391 . S
C435 C434 1.386 . S
C435 C439 1.393 . S
C436 H425 0.950 . S
C436 C434 1.391 . S
C436 C437 1.400 . S
C437 C431 1.491 . S
C437 C436 1.400 . S
C437 C438 1.398 . S
C438 H426 0.950 . S
C438 C437 1.398 . S
C438 C439 1.391 . S
C439 H427 0.950 . S
C439 C435 1.393 . S
C439 C438 1.391 . S
H440 C448 0.950 . S
H441 C453 0.950 . S
H442 C450 0.950 . S
H443 C452 0.950 . S
H444 C454 0.950 . S
H445 C456 0.950 . S
H446 C458 0.950 . S
H447 C459 0.950 . S
C448 H440 0.950 . S
C448 C449 1.386 . S
C448 C450 1.391 . S
C449 C448 1.386 . S
C449 C453 1.393 . S
C450 H442 0.950 . S
C450 C448 1.391 . S
C450 C451 1.400 . S
C451 C450 1.400 . S
C451 C452 1.398 . S
C451 C457 1.491 . S
C452 H443 0.950 . S
C452 C451 1.398 . S
C452 C453 1.391 . S
C453 H441 0.950 . S
C453 C449 1.393 . S
C453 C452 1.391 . S
C454 H444 0.950 . S
C454 C455 1.386 . S
C454 C456 1.391 . S
C455 C454 1.386 . S
C455 C459 1.393 . S
C456 H445 0.950 . S
C456 C454 1.391 . S
C456 C457 1.400 . S
C457 C451 1.491 . S
C457 C456 1.400 . S
C457 C458 1.398 . S
C458 H446 0.950 . S
C458 C457 1.398 . S
C458 C459 1.391 . S
C459 H447 0.950 . S
C459 C455 1.393 . S
C459 C458 1.391 . S
H460 C468 0.950 . S
H461 C473 0.950 . S
H462 C470 0.950 . S
H463 C472 0.950 . S
H464 C474 0.950 . S
H465 C476 0.950 . S
H466 C478 0.950 . S
H467 C479 0.950 . S
C468 H460 0.950 . S
C468 C469 1.386 . S
C468 C470 1.391 . S
C469 C468 1.386 . S
C469 C473 1.393 . S
C470 H462 0.950 . S
C470 C468 1.391 . S
C470 C471 1.400 . S
C471 C470 1.400 . S
C471 C472 1.398 . S
C471 C477 1.491 . S
C472 H463 0.950 . S
C472 C471 1.398 . S
C472 C473 1.391 . S
C473 H461 0.950 . S
C473 C469 1.393 . S
C473 C472 1.391 . S
C474 H464 0.950 . S
C474 C475 1.386 . S
C474 C476 1.391 . S
C475 C474 1.386 . S
C475 C479 1.393 . S
C476 H465 0.950 . S
C476 C474 1.391 . S
C476 C477 1.400 . S
C477 C471 1.491 . S
C477 C476 1.400 . S
C477 C478 1.398 . S
C478 H466 0.950 . S
C478 C477 1.398 . S
C478 C479 1.391 . S
C479 H467 0.950 . S
C479 C475 1.393 . S
C479 C478 1.391 . S
H480 C488 0.950 . S
H481 C493 0.950 . S
H482 C490 0.950 . S
H483 C492 0.950 . S
H484 C494 0.950 . S
H485 C496 0.950 . S
H486 C498 0.950 . S
H487 C499 0.950 . S
C488 H480 0.950 . S
C488 C489 1.386 . S
C488 C490 1.391 . S
C489 C488 1.386 . S
C489 C493 1.393 . S
C490 H482 0.950 . S
C490 C488 1.391 . S
C490 C491 1.400 . S
C491 C490 1.400 . S
C491 C492 1.398 . S
C491 C497 1.491 . S
C492 H483 0.950 . S
C492 C491 1.398 . S
C492 C493 1.391 . S
C493 H481 0.950 . S
C493 C489 1.393 . S
C493 C492 1.391 . S
C494 H484 0.950 . S
C494 C495 1.386 . S
C494 C496 1.391 . S
C495 C494 1.386 . S
C495 C499 1.393 . S
C496 H485 0.950 . S
C496 C494 1.391 . S
C496 C497 1.400 . S
C497 C491 1.491 . S
C497 C496 1.400 . S
C497 C498 1.398 . S
C498 H486 0.950 . S
C498 C497 1.398 . S
C498 C499 1.391 . S
C499 H487 0.950 . S
C499 C495 1.393 . S
C499 C498 1.391 . S
H500 C508 0.950 . S
H501 C513 0.950 . S
H502 C510 0.950 . S
H503 C512 0.950 . S
H504 C514 0.950 1_556 S
H505 C516 0.950 . S
H506 C518 0.950 . S
H507 C519 0.950 . S
C508 H500 0.950 . S
C508 C509 1.386 . S
C508 C510 1.391 . S
C509 C508 1.386 . S
C509 C513 1.393 . S
C510 H502 0.950 . S
C510 C508 1.391 . S
C510 C511 1.400 . S
C511 C510 1.400 . S
C511 C512 1.398 . S
C511 C517 1.491 . S
C512 H503 0.950 . S
C512 C511 1.398 . S
C512 C513 1.391 . S
C513 H501 0.950 . S
C513 C509 1.393 . S
C513 C512 1.391 . S
C514 H504 0.950 1_554 S
C514 C515 1.386 . S
C514 C516 1.391 . S
C515 C514 1.386 . S
C515 C519 1.393 . S
C516 H505 0.950 . S
C516 C514 1.391 . S
C516 C517 1.400 . S
C517 C511 1.491 . S
C517 C516 1.400 . S
C517 C518 1.398 . S
C518 H506 0.950 . S
C518 C517 1.398 . S
C518 C519 1.391 . S
C519 H507 0.950 . S
C519 C515 1.393 . S
C519 C518 1.391 . S
H520 C528 0.950 . S
H521 C533 0.950 . S
H522 C530 0.950 . S
H523 C532 0.950 . S
H524 C534 0.950 . S
H525 C536 0.950 . S
H526 C538 0.950 . S
H527 C539 0.950 . S
C528 H520 0.950 . S
C528 C529 1.386 . S
C528 C530 1.391 . S
C529 C528 1.386 . S
C529 C533 1.393 . S
C530 H522 0.950 . S
C530 C528 1.391 . S
C530 C531 1.400 . S
C531 C530 1.400 . S
C531 C532 1.398 . S
C531 C537 1.491 . S
C532 H523 0.950 . S
C532 C531 1.398 . S
C532 C533 1.391 . S
C533 H521 0.950 . S
C533 C529 1.393 . S
C533 C532 1.391 . S
C534 H524 0.950 . S
C534 C535 1.386 . S
C534 C536 1.391 . S
C535 C534 1.386 . S
C535 C539 1.393 . S
C536 H525 0.950 . S
C536 C534 1.391 . S
C536 C537 1.400 . S
C537 C531 1.491 . S
C537 C536 1.400 . S
C537 C538 1.398 . S
C538 H526 0.950 . S
C538 C537 1.398 . S
C538 C539 1.391 . S
C539 H527 0.950 . S
C539 C535 1.393 . S
C539 C538 1.391 . S
H540 C548 0.950 . S
H541 C553 0.950 . S
H542 C550 0.950 . S
H543 C552 0.950 . S
H544 C554 0.950 . S
H545 C556 0.950 . S
H546 C558 0.950 . S
H547 C559 0.950 . S
C548 H540 0.950 . S
C548 C549 1.386 . S
C548 C550 1.391 . S
C549 C548 1.386 . S
C549 C553 1.393 . S
C550 H542 0.950 . S
C550 C548 1.391 . S
C550 C551 1.400 . S
C551 C550 1.400 . S
C551 C552 1.398 . S
C551 C557 1.491 . S
C552 H543 0.950 . S
C552 C551 1.398 . S
C552 C553 1.391 . S
C553 H541 0.950 . S
C553 C549 1.393 . S
C553 C552 1.391 . S
C554 H544 0.950 . S
C554 C555 1.386 . S
C554 C556 1.391 . S
C555 C554 1.386 . S
C555 C559 1.393 . S
C556 H545 0.950 . S
C556 C554 1.391 . S
C556 C557 1.400 . S
C557 C551 1.491 . S
C557 C556 1.400 . S
C557 C558 1.398 . S
C558 H546 0.950 . S
C558 C557 1.398 . S
C558 C559 1.391 . S
C559 H547 0.950 . S
C559 C555 1.393 . S
C559 C558 1.391 . S
H560 C568 0.950 . S
H561 C573 0.950 . S
H562 C570 0.950 . S
H563 C572 0.950 . S
H564 C574 0.950 . S
H565 C576 0.950 . S
H566 C578 0.950 . S
H567 C579 0.950 . S
C568 H560 0.950 . S
C568 C569 1.386 . S
C568 C570 1.391 . S
C569 C568 1.386 . S
C569 C573 1.393 . S
C570 H562 0.950 . S
C570 C568 1.391 . S
C570 C571 1.400 . S
C571 C570 1.400 . S
C571 C572 1.398 . S
C571 C577 1.491 . S
C572 H563 0.950 . S
C572 C571 1.398 . S
C572 C573 1.391 . S
C573 H561 0.950 . S
C573 C569 1.393 . S
C573 C572 1.391 . S
C574 H564 0.950 . S
C574 C575 1.386 . S
C574 C576 1.391 . S
C575 C574 1.386 . S
C575 C579 1.393 . S
C576 H565 0.950 . S
C576 C574 1.391 . S
C576 C577 1.400 . S
C577 C571 1.491 . S
C577 C576 1.400 . S
C577 C578 1.398 . S
C578 H566 0.950 . S
C578 C577 1.398 . S
C578 C579 1.391 . S
C579 H567 0.950 . S
C579 C575 1.393 . S
C579 C578 1.391 . S
H580 C588 0.950 . S
H581 C593 0.950 . S
H582 C590 0.950 . S
H583 C592 0.950 . S
H584 C594 0.950 . S
H585 C596 0.950 . S
H586 C598 0.950 . S
H587 C599 0.950 . S
C588 H580 0.950 . S
C588 C589 1.386 . S
C588 C590 1.391 . S
C589 C588 1.386 . S
C589 C593 1.393 . S
C590 H582 0.950 . S
C590 C588 1.391 . S
C590 C591 1.400 . S
C591 C590 1.400 . S
C591 C592 1.398 . S
C591 C597 1.491 . S
C592 H583 0.950 . S
C592 C591 1.398 . S
C592 C593 1.391 . S
C593 H581 0.950 . S
C593 C589 1.393 . S
C593 C592 1.391 . S
C594 H584 0.950 . S
C594 C595 1.386 . S
C594 C596 1.391 . S
C595 C594 1.386 . S
C595 C599 1.393 . S
C596 H585 0.950 . S
C596 C594 1.391 . S
C596 C597 1.400 . S
C597 C591 1.491 . S
C597 C596 1.400 . S
C597 C598 1.398 . S
C598 H586 0.950 . S
C598 C597 1.398 . S
C598 C599 1.391 . S
C599 H587 0.950 . S
C599 C595 1.393 . S
C599 C598 1.391 . S
H600 C608 0.950 . S
H601 C613 0.950 . S
H602 C610 0.950 . S
H603 C612 0.950 . S
H604 C614 0.950 . S
H605 C616 0.950 . S
H606 C618 0.950 . S
H607 C619 0.950 . S
C608 H600 0.950 . S
C608 C609 1.386 . S
C608 C610 1.391 . S
C609 C608 1.386 . S
C609 C613 1.393 . S
C610 H602 0.950 . S
C610 C608 1.391 . S
C610 C611 1.400 . S
C611 C610 1.400 . S
C611 C612 1.398 . S
C611 C617 1.491 . S
C612 H603 0.950 . S
C612 C611 1.398 . S
C612 C613 1.391 . S
C613 H601 0.950 . S
C613 C609 1.393 . S
C613 C612 1.391 . S
C614 H604 0.950 . S
C614 C615 1.386 . S
C614 C616 1.391 . S
C615 C614 1.386 . S
C615 C619 1.393 . S
C616 H605 0.950 . S
C616 C614 1.391 . S
C616 C617 1.400 . S
C617 C611 1.491 . S
C617 C616 1.400 . S
C617 C618 1.398 . S
C618 H606 0.950 . S
C618 C617 1.398 . S
C618 C619 1.391 . S
C619 H607 0.950 . S
C619 C615 1.393 . S
C619 C618 1.391 . S
H620 C628 0.950 . S
H621 C633 0.950 . S
H622 C630 0.950 . S
H623 C632 0.950 . S
H624 C634 0.950 . S
H625 C636 0.950 . S
H626 C638 0.950 . S
H627 C639 0.950 . S
C628 H620 0.950 . S
C628 C629 1.386 . S
C628 C630 1.391 . S
C629 C628 1.386 . S
C629 C633 1.393 . S
C630 H622 0.950 . S
C630 C628 1.391 . S
C630 C631 1.400 . S
C631 C630 1.400 . S
C631 C632 1.398 . S
C631 C637 1.491 . S
C632 H623 0.950 . S
C632 C631 1.398 . S
C632 C633 1.391 . S
C633 H621 0.950 . S
C633 C629 1.393 . S
C633 C632 1.391 . S
C634 H624 0.950 . S
C634 C635 1.386 . S
C634 C636 1.391 . S
C635 C634 1.386 . S
C635 C639 1.393 . S
C636 H625 0.950 . S
C636 C634 1.391 . S
C636 C637 1.400 . S
C637 C631 1.491 . S
C637 C636 1.400 . S
C637 C638 1.398 . S
C638 H626 0.950 . S
C638 C637 1.398 . S
C638 C639 1.391 . S
C639 H627 0.950 . S
C639 C635 1.393 . S
C639 C638 1.391 . S
H640 C648 0.950 1_565 S
H641 C653 0.950 . S
H642 C650 0.950 . S
H643 C652 0.950 . S
H644 C654 0.950 1_545 S
H645 C656 0.950 . S
H646 C658 0.950 . S
H647 C659 0.950 . S
C648 H640 0.950 1_545 S
C648 C649 1.386 1_455 S
C648 C650 1.391 1_545 S
C649 C648 1.386 1_655 S
C649 C653 1.393 . S
C650 H642 0.950 . S
C650 C648 1.391 1_565 S
C650 C651 1.400 1_465 S
C651 C650 1.400 1_645 S
C651 C652 1.398 . S
C651 C657 1.491 1_646 S
C652 H643 0.950 . S
C652 C651 1.398 . S
C652 C653 1.391 . S
C653 H641 0.950 . S
C653 C649 1.393 . S
C653 C652 1.391 . S
C654 H644 0.950 1_565 S
C654 C655 1.386 1_655 S
C654 C656 1.391 1_565 S
C655 C654 1.386 1_455 S
C655 C659 1.393 . S
C656 H645 0.950 . S
C656 C654 1.391 1_545 S
C656 C657 1.400 1_645 S
C657 C651 1.491 1_464 S
C657 C656 1.400 1_465 S
C657 C658 1.398 . S
C658 H646 0.950 . S
C658 C657 1.398 . S
C658 C659 1.391 . S
C659 H647 0.950 . S
C659 C655 1.393 . S
C659 C658 1.391 . S
H660 C668 0.950 . S
H661 C673 0.950 . S
H662 C670 0.950 . S
H663 C672 0.950 . S
H664 C674 0.950 . S
H665 C676 0.950 . S
H666 C678 0.950 . S
H667 C679 0.950 . S
C668 H660 0.950 . S
C668 C669 1.386 . S
C668 C670 1.391 . S
C669 C668 1.386 . S
C669 C673 1.393 . S
C670 H662 0.950 . S
C670 C668 1.391 . S
C670 C671 1.400 . S
C671 C670 1.400 . S
C671 C672 1.398 . S
C671 C677 1.491 . S
C672 H663 0.950 . S
C672 C671 1.398 . S
C672 C673 1.391 . S
C673 H661 0.950 . S
C673 C669 1.393 . S
C673 C672 1.391 . S
C674 H664 0.950 . S
C674 C675 1.386 . S
C674 C676 1.391 . S
C675 C674 1.386 . S
C675 C679 1.393 . S
C676 H665 0.950 . S
C676 C674 1.391 . S
C676 C677 1.400 . S
C677 C671 1.491 . S
C677 C676 1.400 . S
C677 C678 1.398 . S
C678 H666 0.950 . S
C678 C677 1.398 . S
C678 C679 1.391 . S
C679 H667 0.950 . S
C679 C675 1.393 . S
C679 C678 1.391 . S
H680 C688 0.950 . S
H681 C693 0.950 . S
H682 C690 0.950 . S
H683 C692 0.950 . S
H684 C694 0.950 . S
H685 C696 0.950 . S
H686 C698 0.950 . S
H687 C699 0.950 . S
C688 H680 0.950 . S
C688 C689 1.386 1_545 S
C688 C690 1.391 . S
C689 C688 1.386 1_565 S
C689 C693 1.393 . S
C690 H682 0.950 . S
C690 C688 1.391 . S
C690 C691 1.400 1_545 S
C691 C690 1.400 1_565 S
C691 C692 1.398 . S
C691 C697 1.491 1_565 S
C692 H683 0.950 . S
C692 C691 1.398 . S
C692 C693 1.391 . S
C693 H681 0.950 . S
C693 C689 1.393 . S
C693 C692 1.391 . S
C694 H684 0.950 . S
C694 C695 1.386 1_565 S
C694 C696 1.391 . S
C695 C694 1.386 1_545 S
C695 C699 1.393 . S
C696 H685 0.950 . S
C696 C694 1.391 . S
C696 C697 1.400 1_565 S
C697 C691 1.491 1_545 S
C697 C696 1.400 1_545 S
C697 C698 1.398 . S
C698 H686 0.950 . S
C698 C697 1.398 . S
C698 C699 1.391 . S
C699 H687 0.950 . S
C699 C695 1.393 . S
C699 C698 1.391 . S
H700 C708 0.950 . S
H701 C713 0.950 . S
H702 C710 0.950 . S
H703 C712 0.950 . S
H704 C714 0.950 . S
H705 C716 0.950 . S
H706 C718 0.950 . S
H707 C719 0.950 . S
C708 H700 0.950 . S
C708 C709 1.386 . S
C708 C710 1.391 . S
C709 C708 1.386 . S
C709 C713 1.393 . S
C710 H702 0.950 . S
C710 C708 1.391 . S
C710 C711 1.400 . S
C711 C710 1.400 . S
C711 C712 1.398 . S
C711 C717 1.491 . S
C712 H703 0.950 . S
C712 C711 1.398 . S
C712 C713 1.391 . S
C713 H701 0.950 . S
C713 C709 1.393 . S
C713 C712 1.391 . S
C714 H704 0.950 . S
C714 C715 1.386 . S
C714 C716 1.391 . S
C715 C714 1.386 . S
C715 C719 1.393 . S
C716 H705 0.950 . S
C716 C714 1.391 . S
C716 C717 1.400 . S
C717 C711 1.491 . S
C717 C716 1.400 . S
C717 C718 1.398 . S
C718 H706 0.950 . S
C718 C717 1.398 . S
C718 C719 1.391 . S
C719 H707 0.950 . S
C719 C715 1.393 . S
C719 C718 1.391 . S
H720 C728 0.950 . S
H721 C733 0.950 . S
H722 C730 0.950 . S
H723 C732 0.950 . S
H724 C734 0.950 . S
H725 C736 0.950 . S
H726 C738 0.950 . S
H727 C739 0.950 . S
C728 H720 0.950 . S
C728 C729 1.386 . S
C728 C730 1.391 . S
C729 C728 1.386 . S
C729 C733 1.393 . S
C730 H722 0.950 . S
C730 C728 1.391 . S
C730 C731 1.400 . S
C731 C730 1.400 . S
C731 C732 1.398 . S
C731 C737 1.491 . S
C732 H723 0.950 . S
C732 C731 1.398 . S
C732 C733 1.391 . S
C733 H721 0.950 . S
C733 C729 1.393 . S
C733 C732 1.391 . S
C734 H724 0.950 . S
C734 C735 1.386 . S
C734 C736 1.391 . S
C735 C734 1.386 . S
C735 C739 1.393 . S
C736 H725 0.950 . S
C736 C734 1.391 . S
C736 C737 1.400 . S
C737 C731 1.491 . S
C737 C736 1.400 . S
C737 C738 1.398 . S
C738 H726 0.950 . S
C738 C737 1.398 . S
C738 C739 1.391 . S
C739 H727 0.950 . S
C739 C735 1.393 . S
C739 C738 1.391 . S
H740 C748 0.950 . S
H741 C753 0.950 . S
H742 C750 0.950 . S
H743 C752 0.950 . S
H744 C754 0.950 . S
H745 C756 0.950 . S
H746 C758 0.950 . S
H747 C759 0.950 . S
C748 H740 0.950 . S
C748 C749 1.386 . S
C748 C750 1.391 . S
C749 C748 1.386 . S
C749 C753 1.393 . S
C750 H742 0.950 . S
C750 C748 1.391 . S
C750 C751 1.400 . S
C751 C750 1.400 . S
C751 C752 1.398 . S
C751 C757 1.491 . S
C752 H743 0.950 . S
C752 C751 1.398 . S
C752 C753 1.391 . S
C753 H741 0.950 . S
C753 C749 1.393 . S
C753 C752 1.391 . S
C754 H744 0.950 . S
C754 C755 1.386 . S
C754 C756 1.391 . S
C755 C754 1.386 . S
C755 C759 1.393 . S
C756 H745 0.950 . S
C756 C754 1.391 . S
C756 C757 1.400 . S
C757 C751 1.491 . S
C757 C756 1.400 . S
C757 C758 1.398 . S
C758 H746 0.950 . S
C758 C757 1.398 . S
C758 C759 1.391 . S
C759 H747 0.950 . S
C759 C755 1.393 . S
C759 C758 1.391 . S
H760 C768 0.950 . S
H761 C773 0.950 . S
H762 C770 0.950 . S
H763 C772 0.950 . S
H764 C774 0.950 . S
H765 C776 0.950 . S
H766 C778 0.950 . S
H767 C779 0.950 . S
C768 H760 0.950 . S
C768 C769 1.386 . S
C768 C770 1.391 . S
C769 C768 1.386 . S
C769 C773 1.393 . S
C770 H762 0.950 . S
C770 C768 1.391 . S
C770 C771 1.400 . S
C771 C770 1.400 . S
C771 C772 1.398 . S
C771 C777 1.491 . S
C772 H763 0.950 . S
C772 C771 1.398 . S
C772 C773 1.391 . S
C773 H761 0.950 . S
C773 C769 1.393 . S
C773 C772 1.391 . S
C774 H764 0.950 . S
C774 C775 1.386 . S
C774 C776 1.391 . S
C775 C774 1.386 . S
C775 C779 1.393 . S
C776 H765 0.950 . S
C776 C774 1.391 . S
C776 C777 1.400 . S
C777 C771 1.491 . S
C777 C776 1.400 . S
C777 C778 1.398 . S
C778 H766 0.950 . S
C778 C777 1.398 . S
C778 C779 1.391 . S
C779 H767 0.950 . S
C779 C775 1.393 . S
C779 C778 1.391 . S
H780 C788 0.950 . S
H781 C793 0.950 . S
H782 C790 0.950 . S
H783 C792 0.950 . S
H784 C794 0.950 . S
H785 C796 0.950 . S
H786 C798 0.950 . S
H787 C799 0.950 . S
C788 H780 0.950 . S
C788 C789 1.386 . S
C788 C790 1.391 . S
C789 C788 1.386 . S
C789 C793 1.393 1_655 S
C790 H782 0.950 . S
C790 C788 1.391 . S
C790 C791 1.400 . S
C791 C790 1.400 . S
C791 C792 1.398 1_655 S
C791 C797 1.491 1_656 S
C792 H783 0.950 . S
C792 C791 1.398 1_455 S
C792 C793 1.391 . S
C793 H781 0.950 . S
C793 C789 1.393 1_455 S
C793 C792 1.391 . S
C794 H784 0.950 . S
C794 C795 1.386 . S
C794 C796 1.391 . S
C795 C794 1.386 . S
C795 C799 1.393 1_455 S
C796 H785 0.950 . S
C796 C794 1.391 . S
C796 C797 1.400 . S
C797 C791 1.491 1_454 S
C797 C796 1.400 . S
C797 C798 1.398 1_455 S
C798 H786 0.950 . S
C798 C797 1.398 1_655 S
C798 C799 1.391 . S
C799 H787 0.950 . S
C799 C795 1.393 1_655 S
C799 C798 1.391 . S
C329 C10 2.055 . S
C335 C130 2.050 . S
C349 C9 1.513 . S
C355 C50 1.537 . S
C369 C49 0.909 . S
C375 C89 0.920 . S
C389 C90 1.533 . S
C395 C129 1.501 . S
C409 C19 2.054 . S
C415 C219 2.053 . S
C429 C18 1.519 . S
C435 C179 1.543 . S
C449 C178 0.890 . S
C455 C98 0.897 . S
C469 C218 1.499 . S
C475 C99 1.535 . S
C489 C250 2.050 . S
C495 C210 2.054 . S
C509 C170 1.535 . S
C515 C249 1.502 . S
C529 C289 0.909 . S
C535 C169 0.919 . S
C549 C209 1.515 . S
C555 C290 1.540 . S
C569 C139 2.050 . S
C575 C259 2.053 . S
C589 C258 1.500 . S
C595 C59 1.533 . S
C609 C58 0.920 . S
C615 C298 0.892 . S
C629 C138 1.512 . S
C635 C299 1.539 . S
C649 C15 1.543 . S
C655 C6 1.543 . S
C669 C46 1.429 . S
C675 C55 1.429 . S
C689 C95 1.435 . S
C695 C86 1.435 . S
C709 C135 1.550 . S
C715 C126 1.550 . S
C729 C166 1.433 . S
C735 C175 1.433 . S
C749 C215 1.550 . S
C755 C206 1.550 . S
C769 C246 1.549 . S
C775 C255 1.549 . S
C789 C286 1.429 . S
C795 C295 1.429 . S
