# Generated by pormake.
# Topology atn, (4)-cn, num edge types: 1
# Building blocks:
#     Node 0, Type 0, BuildingBlock: CEKHIL_clean_sbu_0, # of connection points: 4
#     Node 1, Type 0, BuildingBlock: CEKHIL_clean_sbu_0, # of connection points: 4
#     Node 2, Type 0, BuildingBlock: CEKHIL_clean_sbu_0, # of connection points: 4
#     Node 3, Type 0, BuildingBlock: CEKHIL_clean_sbu_0, # of connection points: 4
#     Node 4, Type 0, BuildingBlock: CEKHIL_clean_sbu_0, # of connection points: 4
#     Node 5, Type 0, BuildingBlock: CEKHIL_clean_sbu_0, # of connection points: 4
#     Node 6, Type 0, BuildingBlock: CEKHIL_clean_sbu_0, # of connection points: 4
#     Node 7, Type 0, BuildingBlock: CEKHIL_clean_sbu_0, # of connection points: 4
#     Node 8, Type 0, BuildingBlock: CEKHIL_clean_sbu_0, # of connection points: 4
#     Node 9, Type 0, BuildingBlock: CEKHIL_clean_sbu_0, # of connection points: 4
#     Node 10, Type 0, BuildingBlock: CEKHIL_clean_sbu_0, # of connection points: 4
#     Node 11, Type 0, BuildingBlock: CEKHIL_clean_sbu_0, # of connection points: 4
#     Node 12, Type 0, BuildingBlock: CEKHIL_clean_sbu_0, # of connection points: 4
#     Node 13, Type 0, BuildingBlock: CEKHIL_clean_sbu_0, # of connection points: 4
#     Node 14, Type 0, BuildingBlock: CEKHIL_clean_sbu_0, # of connection points: 4
#     Node 15, Type 0, BuildingBlock: CEKHIL_clean_sbu_0, # of connection points: 4
#     Edge 16, Type (0, 0), BuildingBlock: MIFKUJ_clean_linker_0, # of connection points: 2
#     Edge 17, Type (0, 0), BuildingBlock: MIFKUJ_clean_linker_0, # of connection points: 2
#     Edge 18, Type (0, 0), BuildingBlock: MIFKUJ_clean_linker_0, # of connection points: 2
#     Edge 19, Type (0, 0), BuildingBlock: MIFKUJ_clean_linker_0, # of connection points: 2
#     Edge 20, Type (0, 0), BuildingBlock: MIFKUJ_clean_linker_0, # of connection points: 2
#     Edge 21, Type (0, 0), BuildingBlock: MIFKUJ_clean_linker_0, # of connection points: 2
#     Edge 22, Type (0, 0), BuildingBlock: MIFKUJ_clean_linker_0, # of connection points: 2
#     Edge 23, Type (0, 0), BuildingBlock: MIFKUJ_clean_linker_0, # of connection points: 2
#     Edge 24, Type (0, 0), BuildingBlock: MIFKUJ_clean_linker_0, # of connection points: 2
#     Edge 25, Type (0, 0), BuildingBlock: MIFKUJ_clean_linker_0, # of connection points: 2
#     Edge 26, Type (0, 0), BuildingBlock: MIFKUJ_clean_linker_0, # of connection points: 2
#     Edge 27, Type (0, 0), BuildingBlock: MIFKUJ_clean_linker_0, # of connection points: 2
#     Edge 28, Type (0, 0), BuildingBlock: MIFKUJ_clean_linker_0, # of connection points: 2
#     Edge 29, Type (0, 0), BuildingBlock: MIFKUJ_clean_linker_0, # of connection points: 2
#     Edge 30, Type (0, 0), BuildingBlock: MIFKUJ_clean_linker_0, # of connection points: 2
#     Edge 31, Type (0, 0), BuildingBlock: MIFKUJ_clean_linker_0, # of connection points: 2
#     Edge 32, Type (0, 0), BuildingBlock: MIFKUJ_clean_linker_0, # of connection points: 2
#     Edge 33, Type (0, 0), BuildingBlock: MIFKUJ_clean_linker_0, # of connection points: 2
#     Edge 34, Type (0, 0), BuildingBlock: MIFKUJ_clean_linker_0, # of connection points: 2
#     Edge 35, Type (0, 0), BuildingBlock: MIFKUJ_clean_linker_0, # of connection points: 2
#     Edge 36, Type (0, 0), BuildingBlock: MIFKUJ_clean_linker_0, # of connection points: 2
#     Edge 37, Type (0, 0), BuildingBlock: MIFKUJ_clean_linker_0, # of connection points: 2
#     Edge 38, Type (0, 0), BuildingBlock: MIFKUJ_clean_linker_0, # of connection points: 2
#     Edge 39, Type (0, 0), BuildingBlock: MIFKUJ_clean_linker_0, # of connection points: 2
#     Edge 40, Type (0, 0), BuildingBlock: MIFKUJ_clean_linker_0, # of connection points: 2
#     Edge 41, Type (0, 0), BuildingBlock: MIFKUJ_clean_linker_0, # of connection points: 2
#     Edge 42, Type (0, 0), BuildingBlock: MIFKUJ_clean_linker_0, # of connection points: 2
#     Edge 43, Type (0, 0), BuildingBlock: MIFKUJ_clean_linker_0, # of connection points: 2
#     Edge 44, Type (0, 0), BuildingBlock: MIFKUJ_clean_linker_0, # of connection points: 2
#     Edge 45, Type (0, 0), BuildingBlock: MIFKUJ_clean_linker_0, # of connection points: 2
#     Edge 46, Type (0, 0), BuildingBlock: MIFKUJ_clean_linker_0, # of connection points: 2
#     Edge 47, Type (0, 0), BuildingBlock: MIFKUJ_clean_linker_0, # of connection points: 2
# Relax obj value: 0.034
# Max RMSD: 0.063
# Mean RMSD: 0.063
data_MOF--net-atn--node1-CEKHIL_clean_sbu_0--edge1-MIFKUJ_clean_linker_0
_symmetry_space_group_name_H-M    P1
_symmetry_Int_Tables_number       1
_symmetry_cell_setting            triclinic
loop_
_symmetry_equiv_pos_as_xyz
'x, y, z'
_cell_length_a     77.17672
_cell_length_b     77.130974
_cell_length_c     35.369321
_cell_angle_alpha  89.984696
_cell_angle_beta   90.011502
_cell_angle_gamma 90.037092
loop_
_atom_site_label
_atom_site_type_symbol
_atom_site_fract_x
_atom_site_fract_y
_atom_site_fract_z
_atom_type_partial_charge
Co0 Co 0.19617 0.38032 0.98901 0.0
O1 O 0.18194 0.40079 0.98559 0.0
O2 O 0.20837 0.40012 0.00989 0.0
C3 C 0.19113 0.3714 0.92916 0.0
O4 O 0.21527 0.36215 0.99504 0.0
Co5 Co 0.18071 0.34327 0.97878 0.0
O6 O 0.20524 0.33582 0.978 0.0
C7 C 0.17621 0.36171 0.05157 0.0
C8 C 0.19491 0.4092 8e-05 0.0
C9 C 0.21746 0.3459 0.98807 0.0
O10 O 0.18609 0.3742 0.04037 0.0
O11 O 0.1716 0.34914 0.03015 0.0
O12 O 0.20266 0.38329 0.93585 0.0
O13 O 0.18223 0.36636 0.95799 0.0
Co14 Co 0.62377 0.19616 0.98755 0.0
O15 O 0.60196 0.18437 0.98234 0.0
O16 O 0.6051 0.2105 0.00733 0.0
C17 C 0.63293 0.19032 0.92831 0.0
O18 O 0.64421 0.21276 0.99499 0.0
Co19 Co 0.65831 0.17557 0.97988 0.0
O20 O 0.66814 0.19919 0.97386 0.0
C21 C 0.63778 0.1728 0.05001 0.0
C22 C 0.59479 0.19806 0.9966 0.0
C23 C 0.6603 0.21282 0.98501 0.0
O24 O 0.62781 0.18523 0.03896 0.0
O25 O 0.64957 0.16612 0.02912 0.0
O26 O 0.6225 0.20323 0.93444 0.0
O27 O 0.63617 0.18069 0.95725 0.0
Co28 Co 0.80763 0.62346 0.98818 0.0
O29 O 0.81962 0.6016 0.98807 0.0
O30 O 0.79252 0.60515 0.00675 0.0
C31 C 0.81578 0.63143 0.92936 0.0
O32 O 0.79083 0.64398 0.99053 0.0
Co33 Co 0.82856 0.65786 0.981 0.0
O34 O 0.80524 0.66811 0.97339 0.0
C35 C 0.82891 0.63843 0.05278 0.0
C36 C 0.80541 0.59465 0.00041 0.0
C37 C 0.79123 0.66023 0.98181 0.0
O38 O 0.81648 0.62864 0.04096 0.0
O39 O 0.83661 0.64955 0.03179 0.0
O40 O 0.80271 0.62104 0.93413 0.0
O41 O 0.82426 0.63528 0.95962 0.0
Co42 Co 0.38045 0.8074 0.98918 0.0
O43 O 0.40261 0.81899 0.9898 0.0
O44 O 0.39829 0.79183 0.00767 0.0
C45 C 0.37274 0.81583 0.93036 0.0
O46 O 0.35975 0.79079 0.99085 0.0
Co47 Co 0.34625 0.82859 0.98151 0.0
O48 O 0.33538 0.80543 0.97648 0.0
C49 C 0.36563 0.82897 0.05342 0.0
C50 C 0.4091 0.80451 0.0019 0.0
C51 C 0.34335 0.79135 0.98384 0.0
O52 O 0.37525 0.81631 0.04202 0.0
O53 O 0.35471 0.83669 0.03201 0.0
O54 O 0.38297 0.80263 0.93502 0.0
O55 O 0.36893 0.82426 0.96069 0.0
Co56 Co 0.19561 0.62529 0.00956 0.0
O57 O 0.18248 0.60412 0.01185 0.0
O58 O 0.20901 0.60619 0.98871 0.0
C59 C 0.18974 0.63359 0.06935 0.0
O60 O 0.21345 0.64489 0.00464 0.0
Co61 Co 0.17701 0.66087 0.02003 0.0
O62 O 0.20104 0.66947 0.02564 0.0
C63 C 0.17372 0.64199 0.94771 0.0
C64 C 0.19586 0.5964 0.99751 0.0
C65 C 0.21428 0.66099 0.01453 0.0
O66 O 0.18536 0.63097 0.9582 0.0
O67 O 0.1677 0.65375 0.96958 0.0
O68 O 0.20202 0.62247 0.06286 0.0
O69 O 0.18065 0.63801 0.04037 0.0
Co70 Co 0.37906 0.19643 0.00719 0.0
O71 O 0.39991 0.18273 0.00664 0.0
O72 O 0.39818 0.20986 0.98678 0.0
C73 C 0.3715 0.18923 0.06686 0.0
O74 O 0.36017 0.21504 0.00547 0.0
Co75 Co 0.3427 0.17985 0.019 0.0
O76 O 0.336 0.20397 0.03157 0.0
C77 C 0.35976 0.17781 0.94386 0.0
C78 C 0.40778 0.19635 0.99366 0.0
C79 C 0.34483 0.21678 0.01943 0.0
O80 O 0.3723 0.18762 0.95517 0.0
O81 O 0.34761 0.17254 0.96571 0.0
O82 O 0.38277 0.20144 0.06087 0.0
O83 O 0.36622 0.18109 0.03717 0.0
Co84 Co 0.80727 0.37968 0.00794 0.0
O85 O 0.81992 0.40122 0.0054 0.0
O86 O 0.79272 0.39785 0.98722 0.0
C87 C 0.81529 0.37325 0.06774 0.0
O88 O 0.78956 0.35991 0.00789 0.0
Co89 Co 0.82533 0.34426 0.02158 0.0
O90 O 0.80164 0.3368 0.03616 0.0
C91 C 0.8263 0.36042 0.94528 0.0
C92 C 0.80581 0.40821 0.99259 0.0
C93 C 0.78846 0.34484 0.02346 0.0
O94 O 0.81607 0.37271 0.95605 0.0
O95 O 0.8321 0.34874 0.96774 0.0
O96 O 0.80241 0.3837 0.06155 0.0
O97 O 0.82349 0.36801 0.03813 0.0
Co98 Co 0.62395 0.80685 0.00496 0.0
O99 O 0.602 0.8186 0.00695 0.0
O100 O 0.60554 0.79171 0.98692 0.0
C101 C 0.63265 0.81463 0.06357 0.0
O102 O 0.64461 0.79028 0.00091 0.0
Co103 Co 0.65804 0.82843 0.0103 0.0
O104 O 0.66899 0.80524 0.01392 0.0
C105 C 0.63774 0.82875 0.93987 0.0
C106 C 0.595 0.80441 0.99458 0.0
C107 C 0.66111 0.79107 0.00672 0.0
O108 O 0.62835 0.81609 0.9521 0.0
O109 O 0.64892 0.83664 0.96035 0.0
O110 O 0.62228 0.80153 0.05898 0.0
O111 O 0.63598 0.8234 0.0334 0.0
Co112 Co 0.69542 0.88051 0.48873 0.0
O113 O 0.68192 0.90149 0.48648 0.0
O114 O 0.70846 0.89972 0.50997 0.0
C115 C 0.68947 0.87243 0.42865 0.0
O116 O 0.71386 0.86159 0.49362 0.0
Co117 Co 0.67927 0.84398 0.47642 0.0
O118 O 0.70366 0.83727 0.46656 0.0
C119 C 0.67575 0.86151 0.55091 0.0
C120 C 0.69525 0.90932 0.5009 0.0
C121 C 0.71605 0.8462 0.48025 0.0
O122 O 0.68542 0.87423 0.53999 0.0
O123 O 0.67115 0.84908 0.52905 0.0
O124 O 0.70165 0.88365 0.43539 0.0
O125 O 0.68074 0.86741 0.45772 0.0
Co126 Co 0.12357 0.69607 0.49379 0.0
O127 O 0.10199 0.68362 0.49188 0.0
O128 O 0.10484 0.71041 0.51315 0.0
C129 C 0.13203 0.68921 0.43459 0.0
O130 O 0.1437 0.71331 0.49815 0.0
Co131 Co 0.15841 0.67596 0.4855 0.0
O132 O 0.16849 0.69954 0.48292 0.0
C133 C 0.13895 0.67416 0.55721 0.0
C134 C 0.09466 0.69743 0.50527 0.0
C135 C 0.16015 0.71326 0.49154 0.0
O136 O 0.12861 0.68626 0.54588 0.0
O137 O 0.15045 0.66729 0.5359 0.0
O138 O 0.1214 0.70202 0.44015 0.0
O139 O 0.13585 0.68023 0.46414 0.0
Co140 Co 0.307 0.12344 0.49092 0.0
O141 O 0.31899 0.10155 0.4902 0.0
O142 O 0.29193 0.1051 0.50932 0.0
C143 C 0.31474 0.13173 0.43211 0.0
O144 O 0.2902 0.14393 0.49417 0.0
Co145 Co 0.32794 0.15787 0.48424 0.0
O146 O 0.30467 0.16868 0.48178 0.0
C147 C 0.32889 0.13785 0.55512 0.0
C148 C 0.30478 0.09462 0.50265 0.0
C149 C 0.29068 0.16048 0.48882 0.0
O150 O 0.3162 0.12834 0.54355 0.0
O151 O 0.33655 0.14897 0.53406 0.0
O152 O 0.30176 0.12124 0.43702 0.0
O153 O 0.32345 0.13545 0.46216 0.0
Co154 Co 0.88088 0.3074 0.49097 0.0
O155 O 0.90303 0.31893 0.49205 0.0
O156 O 0.89862 0.29176 0.50966 0.0
C157 C 0.87359 0.31611 0.43206 0.0
O158 O 0.86011 0.29088 0.49219 0.0
Co159 Co 0.84672 0.32851 0.48229 0.0
O160 O 0.83636 0.30534 0.47318 0.0
C161 C 0.86549 0.32859 0.55515 0.0
C162 C 0.90948 0.30442 0.5041 0.0
C163 C 0.84404 0.29129 0.4822 0.0
O164 O 0.87543 0.31619 0.54374 0.0
O165 O 0.85453 0.33622 0.53365 0.0
O166 O 0.88358 0.30274 0.43679 0.0
O167 O 0.86961 0.32442 0.46245 0.0
Co168 Co 0.69505 0.12536 0.50299 0.0
O169 O 0.68216 0.10402 0.50571 0.0
O170 O 0.70882 0.10627 0.48344 0.0
C171 C 0.68878 0.13416 0.56236 0.0
O172 O 0.71274 0.14507 0.4977 0.0
Co173 Co 0.67592 0.16081 0.51165 0.0
O174 O 0.69969 0.17038 0.51211 0.0
C175 C 0.67369 0.14161 0.43948 0.0
C176 C 0.69575 0.09636 0.49208 0.0
C177 C 0.71309 0.1616 0.50335 0.0
O178 O 0.68501 0.13047 0.45102 0.0
O179 O 0.66748 0.15354 0.46067 0.0
O180 O 0.70123 0.12315 0.55655 0.0
O181 O 0.67975 0.13816 0.53299 0.0
Co182 Co 0.87955 0.69787 0.50462 0.0
O183 O 0.90058 0.68435 0.50263 0.0
O184 O 0.89834 0.7117 0.48444 0.0
C185 C 0.87235 0.69017 0.56423 0.0
O186 O 0.86061 0.71644 0.50382 0.0
Co187 Co 0.84313 0.68163 0.51714 0.0
O188 O 0.83663 0.70565 0.53119 0.0
C189 C 0.85978 0.67979 0.44142 0.0
C190 C 0.90814 0.69824 0.49005 0.0
C191 C 0.84548 0.71832 0.5186 0.0
O192 O 0.87254 0.68935 0.45259 0.0
O193 O 0.8476 0.67468 0.46339 0.0
O194 O 0.88356 0.70245 0.55837 0.0
O195 O 0.86684 0.68227 0.53441 0.0
Co196 Co 0.30754 0.87959 0.50546 0.0
O197 O 0.3203 0.90105 0.50396 0.0
O198 O 0.29333 0.89791 0.48405 0.0
C199 C 0.31479 0.87284 0.56557 0.0
O200 O 0.28985 0.85975 0.50446 0.0
Co201 Co 0.32629 0.84435 0.51866 0.0
O202 O 0.30248 0.83587 0.5283 0.0
C203 C 0.32792 0.86116 0.44342 0.0
C204 C 0.30642 0.90817 0.49033 0.0
C205 C 0.28911 0.84403 0.51687 0.0
O206 O 0.31689 0.87281 0.45386 0.0
O207 O 0.33408 0.84973 0.46598 0.0
O208 O 0.30217 0.88354 0.55891 0.0
O209 O 0.32334 0.8678 0.53627 0.0
Co210 Co 0.1244 0.30736 0.50505 0.0
O211 O 0.10254 0.3193 0.50697 0.0
O212 O 0.10589 0.29235 0.48706 0.0
C213 C 0.13311 0.31509 0.56364 0.0
O214 O 0.14485 0.29056 0.50103 0.0
Co215 Co 0.15882 0.3282 0.51069 0.0
O216 O 0.16908 0.30483 0.51788 0.0
C217 C 0.13857 0.32902 0.44009 0.0
C218 C 0.09545 0.30516 0.49459 0.0
C219 C 0.16112 0.29086 0.50946 0.0
O220 O 0.12888 0.31657 0.45225 0.0
O221 O 0.15 0.33656 0.46055 0.0
O222 O 0.12274 0.30199 0.55902 0.0
O223 O 0.13654 0.32385 0.5335 0.0
H224 H 0.21969 0.57585 0.96066 0.0
H225 H 0.22022 0.54401 0.95795 0.0
H226 H 0.17425 0.54205 0.02724 0.0
H227 H 0.17323 0.57353 0.02859 0.0
H228 H 0.22407 0.51955 0.00699 0.0
H229 H 0.14923 0.50852 0.00845 0.0
H230 H 0.12285 0.52259 0.98375 0.0
H231 H 0.15279 0.54744 0.89694 0.0
H232 H 0.17929 0.53335 0.92077 0.0
H233 H 0.20961 0.43094 0.05255 0.0
H234 H 0.21014 0.46274 0.05117 0.0
H235 H 0.1827 0.46203 0.94466 0.0
H236 H 0.18084 0.43056 0.948 0.0
H237 H 0.17069 0.48623 0.97842 0.0
H238 H 0.22993 0.47036 0.9583 0.0
H239 H 0.2578 0.45606 0.97219 0.0
H240 H 0.26177 0.48439 0.07634 0.0
H241 H 0.23383 0.49871 0.06327 0.0
C242 C 0.20961 0.56858 0.9749 0.0
C243 C 0.1963 0.57723 0.9944 0.0
C244 C 0.20997 0.55039 0.97354 0.0
C245 C 0.19711 0.54054 0.99188 0.0
C246 C 0.18405 0.54925 0.01195 0.0
C247 C 0.18353 0.56732 0.0128 0.0
C248 C 0.19725 0.52119 0.99057 0.0
C249 C 0.21243 0.51225 0.00051 0.0
C250 C 0.18221 0.51155 0.98131 0.0
C251 C 0.16628 0.51999 0.96665 0.0
C252 C 0.15017 0.51693 0.984 0.0
C253 C 0.1352 0.52492 0.97017 0.0
C254 C 0.13615 0.53594 0.93888 0.0
C255 C 0.15208 0.53896 0.92127 0.0
C256 C 0.16708 0.53099 0.93495 0.0
C257 C 0.20357 0.43768 0.02914 0.0
C258 C 0.19508 0.42835 0.00054 0.0
C259 C 0.20405 0.45586 0.02804 0.0
C260 C 0.19678 0.465 0.99736 0.0
C261 C 0.18834 0.45551 0.96882 0.0
C262 C 0.18729 0.43746 0.97069 0.0
C263 C 0.19753 0.48438 0.99496 0.0
C264 C 0.18244 0.49341 0.98457 0.0
C265 C 0.21288 0.49401 0.0021 0.0
C266 C 0.22972 0.48548 0.00995 0.0
C267 C 0.23671 0.47346 0.98426 0.0
C268 C 0.25252 0.46537 0.99198 0.0
C269 C 0.26153 0.46928 0.02517 0.0
C270 C 0.25477 0.48135 0.05066 0.0
C271 C 0.23896 0.48947 0.0431 0.0
H272 H 0.27376 0.46299 0.0311 0.0
H273 H 0.12455 0.54212 0.92823 0.0
H274 H 0.43056 0.17272 0.0215 0.0
H275 H 0.46202 0.17445 0.02306 0.0
H276 H 0.46017 0.22249 0.96053 0.0
H277 H 0.42841 0.2212 0.96053 0.0
H278 H 0.48571 0.17316 0.97565 0.0
H279 H 0.49488 0.24792 0.98149 0.0
H280 H 0.47954 0.27369 0.00567 0.0
H281 H 0.45326 0.24219 0.08775 0.0
H282 H 0.46861 0.21628 0.06441 0.0
H283 H 0.57308 0.18819 0.9411 0.0
H284 H 0.54157 0.18981 0.93981 0.0
H285 H 0.54176 0.21246 0.05145 0.0
H286 H 0.57367 0.21206 0.05135 0.0
H287 H 0.51704 0.22628 0.01544 0.0
H288 H 0.53292 0.16712 0.03272 0.0
H289 H 0.54815 0.1397 0.01932 0.0
H290 H 0.52372 0.13697 0.9104 0.0
H291 H 0.50851 0.16449 0.92296 0.0
C292 C 0.43681 0.18364 0.00788 0.0
C293 C 0.42696 0.19685 0.99091 0.0
C294 C 0.45487 0.18462 0.00879 0.0
C295 C 0.46361 0.19871 0.99237 0.0
C296 C 0.4538 0.21167 0.97423 0.0
C297 C 0.43564 0.21085 0.97389 0.0
C298 C 0.48294 0.19961 0.99425 0.0
C299 C 0.49251 0.18481 0.98435 0.0
C300 C 0.49196 0.21461 0.00651 0.0
C301 C 0.48275 0.23014 0.02088 0.0
C302 C 0.48586 0.24651 0.00476 0.0
C303 C 0.47716 0.26114 0.01832 0.0
C304 C 0.46539 0.25957 0.04813 0.0
C305 C 0.46233 0.24338 0.06455 0.0
C306 C 0.47101 0.22871 0.05114 0.0
C307 C 0.56639 0.19359 0.96532 0.0
C308 C 0.57574 0.19978 0.99656 0.0
C309 C 0.54834 0.19441 0.96469 0.0
C310 C 0.53911 0.2007 0.99605 0.0
C311 C 0.5485 0.20741 0.02697 0.0
C312 C 0.5667 0.20713 0.02703 0.0
C313 C 0.51976 0.19985 0.99659 0.0
C314 C 0.51021 0.21464 0.0068 0.0
C315 C 0.51067 0.18458 0.98622 0.0
C316 C 0.51968 0.16794 0.97867 0.0
C317 C 0.53087 0.16071 0.00583 0.0
C318 C 0.53949 0.14515 -0.00161 0.0
C319 C 0.53693 0.13662 0.964 0.0
C320 C 0.5257 0.1436 0.93701 0.0
C321 C 0.51706 0.15917 0.94429 0.0
H322 H 0.54363 0.12457 0.95828 0.0
H323 H 0.45866 0.27091 0.05856 0.0
H324 H 0.77629 0.42785 0.98804 0.0
H325 H 0.77416 0.45951 0.9905 0.0
H326 H 0.82995 0.4633 0.99018 0.0
H327 H 0.8321 0.43173 0.98915 0.0
H328 H 0.81802 0.48316 0.04249 0.0
H329 H 0.80305 0.47436 0.91157 0.0
H330 H 0.78641 0.46205 0.85841 0.0
H331 H 0.73968 0.48449 0.90247 0.0
H332 H 0.75602 0.49676 0.95616 0.0
H333 H 0.83142 0.57097 0.9963 0.0
H334 H 0.82916 0.53946 0.99681 0.0
H335 H 0.7739 0.54325 0.01281 0.0
H336 H 0.77607 0.57506 0.01212 0.0
H337 H 0.78276 0.51979 0.95668 0.0
H338 H 0.79887 0.53058 0.08508 0.0
H339 H 0.81622 0.54347 0.13646 0.0
H340 H 0.86164 0.51749 0.09534 0.0
H341 H 0.84463 0.50464 0.04337 0.0
C342 C 0.78809 0.43546 0.98785 0.0
C343 C 0.80437 0.42728 0.98838 0.0
C344 C 0.78686 0.45359 0.98922 0.0
C345 C 0.8019 0.46391 0.99039 0.0
C346 C 0.81814 0.4557 0.98956 0.0
C347 C 0.81937 0.43762 0.98873 0.0
C348 C 0.80087 0.48317 0.99436 0.0
C349 C 0.81045 0.49114 0.02337 0.0
C350 C 0.79055 0.49366 0.97037 0.0
C351 C 0.78072 0.48631 0.93809 0.0
C352 C 0.7892 0.47655 0.91007 0.0
C353 C 0.77983 0.46961 0.87982 0.0
C354 C 0.76199 0.47244 0.87713 0.0
C355 C 0.75349 0.48228 0.90463 0.0
C356 C 0.7628 0.48924 0.93495 0.0
C357 C 0.81878 0.56515 0.00033 0.0
C358 C 0.80392 0.57555 0.0043 0.0
C359 C 0.81752 0.5471 0.00068 0.0
C360 C 0.80138 0.53895 0.00511 0.0
C361 C 0.78649 0.54925 0.00941 0.0
C362 C 0.78776 0.56741 0.00926 0.0
C363 C 0.80022 0.51968 0.00415 0.0
C364 C 0.79021 0.51174 0.97587 0.0
C365 C 0.81024 0.50919 0.02864 0.0
C366 C 0.82048 0.51674 0.06015 0.0
C367 C 0.81258 0.5277 0.08684 0.0
C368 C 0.82235 0.53499 0.11609 0.0
C369 C 0.84003 0.53133 0.11912 0.0
C370 C 0.84795 0.52032 0.09296 0.0
C371 C 0.83825 0.51302 0.06362 0.0
H372 H 0.84757 0.53699 0.14178 0.0
H373 H 0.75476 0.46706 0.85368 0.0
H374 H 0.57097 0.82828 0.01569 0.0
H375 H 0.5396 0.82509 0.01771 0.0
H376 H 0.54389 0.77361 0.97124 0.0
H377 H 0.57563 0.77666 0.9693 0.0
H378 H 0.51671 0.7933 0.93889 0.0
H379 H 0.53616 0.77659 0.06097 0.0
H380 H 0.55265 0.77885 0.12044 0.0
H381 H 0.52599 0.82603 0.14791 0.0
H382 H 0.50951 0.82421 0.08826 0.0
H383 H 0.42808 0.77473 0.99499 0.0
H384 H 0.45983 0.77209 0.99402 0.0
H385 H 0.46461 0.82676 0.017 0.0
H386 H 0.43297 0.82961 0.01667 0.0
H387 H 0.48714 0.80148 0.06227 0.0
H388 H 0.4705 0.81941 0.9359 0.0
H389 H 0.45399 0.81679 0.8765 0.0
H390 H 0.47541 0.76612 0.8581 0.0
H391 H 0.49185 0.76834 0.91781 0.0
C392 C 0.56532 0.81628 0.0056 0.0
C393 C 0.57586 0.80268 0.99246 0.0
C394 C 0.54734 0.81447 0.00695 0.0
C395 C 0.53939 0.79903 0.99513 0.0
C396 C 0.54977 0.78561 0.98067 0.0
C397 C 0.56788 0.78737 0.97958 0.0
C398 C 0.52028 0.79707 -0.00127 0.0
C399 C 0.51027 0.79474 0.96597 0.0
C400 C 0.51183 0.79915 0.03401 0.0
C401 C 0.5217 0.80034 0.06995 0.0
C402 C 0.53392 0.78754 0.07951 0.0
C403 C 0.54325 0.78872 0.11329 0.0
C404 C 0.5404 0.80259 0.1379 0.0
C405 C 0.52819 0.8153 0.1288 0.0
C406 C 0.51884 0.81419 0.09502 0.0
C407 C 0.43592 0.78613 0.00033 0.0
C408 C 0.42808 0.80238 0.00594 0.0
C409 C 0.45402 0.78462 -0.00041 0.0
C410 C 0.46452 0.79925 0.00532 0.0
C411 C 0.45671 0.81533 0.01253 0.0
C412 C 0.43866 0.81693 0.01231 0.0
C413 C 0.48367 0.79802 0.00242 0.0
C414 C 0.49364 0.79979 0.03532 0.0
C415 C 0.49207 0.79532 0.96737 0.0
C416 C 0.48218 0.79393 0.93158 0.0
C417 C 0.47152 0.80762 0.91943 0.0
C418 C 0.46222 0.80623 0.88566 0.0
C419 C 0.46359 0.79126 0.86361 0.0
C420 C 0.47432 0.77768 0.87527 0.0
C421 C 0.48363 0.779 0.90907 0.0
H422 H 0.4564 0.79022 0.83744 0.0
H423 H 0.54763 0.80348 0.16406 0.0
H424 H 0.72288 0.07581 0.46878 0.0
H425 H 0.72408 0.04399 0.46834 0.0
H426 H 0.67173 0.04187 0.51079 0.0
H427 H 0.67032 0.0734 0.51052 0.0
H428 H 0.72181 0.02033 0.52285 0.0
H429 H 0.65051 0.00754 0.47642 0.0
H430 H 0.62834 0.02085 0.4354 0.0
H431 H 0.66814 0.04575 0.37022 0.0
H432 H 0.69055 0.03241 0.41047 0.0
H433 H 0.7026 0.93127 0.55993 0.0
H434 H 0.70335 0.96312 0.55804 0.0
H435 H 0.69258 0.96164 0.43814 0.0
H436 H 0.69027 0.93016 0.44111 0.0
H437 H 0.67557 0.98549 0.46192 0.0
H438 H 0.73541 0.97099 0.48393 0.0
H439 H 0.75996 0.95748 0.51754 0.0
H440 H 0.74762 0.98655 0.61748 0.0
H441 H 0.72289 1.00009 0.58459 0.0
C442 C 0.71157 0.06853 0.47759 0.0
C443 C 0.69646 0.07716 0.4894 0.0
C444 C 0.71232 0.05035 0.4776 0.0
C445 C 0.69794 0.04048 0.48923 0.0
C446 C 0.68289 0.04913 0.50107 0.0
C447 C 0.68212 0.06722 0.50095 0.0
C448 C 0.69854 0.02115 0.48932 0.0
C449 C 0.71176 0.01267 0.50935 0.0
C450 C 0.68562 0.01111 0.47123 0.0
C451 C 0.6722 0.01911 0.44674 0.0
C452 C 0.65453 0.01581 0.45326 0.0
C453 C 0.64192 0.02336 0.43015 0.0
C454 C 0.64682 0.03418 0.40031 0.0
C455 C 0.66436 0.03743 0.39344 0.0
C456 C 0.67702 0.02989 0.41643 0.0
C457 C 0.70034 0.93788 0.53336 0.0
C458 C 0.69628 0.9284 0.50072 0.0
C459 C 0.70095 0.95607 0.5321 0.0
C460 C 0.69831 0.96501 0.49775 0.0
C461 C 0.69454 0.95529 0.46512 0.0
C462 C 0.69327 0.93725 0.46674 0.0
C463 C 0.69892 0.9844 0.49545 0.0
C464 C 0.68577 0.993 0.47522 0.0
C465 C 0.71229 0.99446 0.5122 0.0
C466 C 0.72722 0.98643 0.5319 0.0
C467 C 0.73789 0.97443 0.51313 0.0
C468 C 0.75184 0.96677 0.53205 0.0
C469 C 0.75532 0.97112 0.56965 0.0
C470 C 0.74489 0.98318 0.58838 0.0
C471 C 0.73093 0.99086 0.5696 0.0
H472 H 0.76611 0.96517 0.58424 0.0
H473 H 0.63704 0.04002 0.38246 0.0
H474 H 0.93081 0.67142 0.48106 0.0
H475 H 0.96244 0.67258 0.48327 0.0
H476 H 0.96029 0.72817 0.49654 0.0
H477 H 0.92865 0.72711 0.49219 0.0
H478 H 0.98668 0.72108 0.45568 0.0
H479 H 0.96619 0.69853 0.57377 0.0
H480 H 0.94978 0.67885 0.61549 0.0
H481 H 0.97857 0.63539 0.57308 0.0
H482 H 0.99501 0.65479 0.53074 0.0
H483 H 0.07445 0.72583 0.52198 0.0
H484 H 0.04266 0.72747 0.52106 0.0
H485 H 0.03998 0.67304 0.49369 0.0
H486 H 0.07149 0.67127 0.495 0.0
H487 H 0.01607 0.68137 0.54546 0.0
H488 H 0.03567 0.70471 0.42544 0.0
H489 H 0.05212 0.72501 0.38521 0.0
H490 H 0.02502 0.76802 0.43456 0.0
H491 H 0.00856 0.74797 0.47543 0.0
C492 C 0.9371 0.68391 0.48387 0.0
C493 C 0.92725 0.69916 0.48663 0.0
C494 C 0.95521 0.68456 0.48553 0.0
C495 C 0.96384 0.70041 0.4913 0.0
C496 C 0.95401 0.71575 0.49237 0.0
C497 C 0.9359 0.71514 0.48983 0.0
C498 C 0.98301 0.70093 0.49717 0.0
C499 C 0.99304 0.71256 0.47575 0.0
C500 C 0.99148 0.68976 0.52314 0.0
C501 C 0.98174 0.6781 0.54888 0.0
C502 C 0.96896 0.68477 0.57321 0.0
C503 C 0.95966 0.67366 0.59697 0.0
C504 C 0.9631 0.65588 0.59688 0.0
C505 C 0.9759 0.64917 0.5731 0.0
C506 C 0.98523 0.66021 0.54925 0.0
C507 C 0.06706 0.71419 0.51621 0.0
C508 C 0.07552 0.69844 0.50844 0.0
C509 C 0.0489 0.71516 0.51543 0.0
C510 C 0.03891 0.70041 0.5068 0.0
C511 C 0.04737 0.68459 0.50034 0.0
C512 C 0.06543 0.68362 0.50104 0.0
C513 C 0.01968 0.7013 0.50361 0.0
C514 C 0.00965 0.68996 0.52561 0.0
C515 C 0.01122 0.71284 0.47851 0.0
C516 C 0.02102 0.72486 0.45375 0.0
C517 C 0.03331 0.7185 0.42789 0.0
C518 C 0.04262 0.72996 0.40495 0.0
C519 C 0.03965 0.7478 0.40741 0.0
C520 C 0.02732 0.7542 0.43273 0.0
C521 C 0.01799 0.7428 0.45577 0.0
H522 H 0.04687 0.75665 0.38963 0.0
H523 H 0.95588 0.64731 0.61528 0.0
H524 H 0.33052 0.0715 0.51664 0.0
H525 H 0.32892 0.03991 0.51394 0.0
H526 H 0.27415 0.04301 0.49014 0.0
H527 H 0.27558 0.07473 0.495 0.0
H528 H 0.27949 0.01613 0.532 0.0
H529 H 0.30629 0.03681 0.41853 0.0
H530 H 0.3274 0.05338 0.38061 0.0
H531 H 0.36918 0.02452 0.43025 0.0
H532 H 0.34833 0.00793 0.46883 0.0
H533 H 0.27825 0.92775 0.46905 0.0
H534 H 0.27605 0.9595 0.46831 0.0
H535 H 0.32961 0.96339 0.50226 0.0
H536 H 0.33197 0.9319 0.50232 0.0
H537 H 0.32257 0.98685 0.44986 0.0
H538 H 0.29517 0.9675 0.56611 0.0
H539 H 0.27363 0.95101 0.60307 0.0
H540 H 0.23232 0.97731 0.54544 0.0
H541 H 0.25362 0.99381 0.50781 0.0
C542 C 0.31809 0.06542 0.51139 0.0
C543 C 0.30319 0.07556 0.50581 0.0
C544 C 0.3172 0.04735 0.50947 0.0
C545 C 0.30153 0.039 0.50052 0.0
C546 C 0.28645 0.04909 0.49671 0.0
C547 C 0.28725 0.06722 0.49957 0.0
C548 C 0.30107 0.01985 0.4942 0.0
C549 C 0.28875 0.00978 0.51355 0.0
C550 C 0.31319 0.01141 0.47032 0.0
C551 C 0.32575 0.02121 0.44675 0.0
C552 C 0.31998 0.03405 0.42148 0.0
C553 C 0.3319 0.04345 0.39986 0.0
C554 C 0.34962 0.04002 0.40307 0.0
C555 C 0.35545 0.02716 0.42781 0.0
C556 C 0.34359 0.01774 0.44952 0.0
C557 C 0.2896 0.9354 0.47587 0.0
C558 C 0.30527 0.92728 0.48584 0.0
C559 C 0.2883 0.95355 0.47574 0.0
C560 C 0.3026 0.96388 0.48583 0.0
C561 C 0.31837 0.95575 0.49446 0.0
C562 C 0.3197 0.93769 0.49451 0.0
C563 C 0.30127 0.98314 0.48827 0.0
C564 C 0.31323 0.99323 0.46805 0.0
C565 C 0.28875 0.99157 0.51107 0.0
C566 C 0.27597 0.98175 0.53389 0.0
C567 C 0.28149 0.96968 0.56115 0.0
C568 C 0.26933 0.96035 0.58225 0.0
C569 C 0.25162 0.96307 0.57653 0.0
C570 C 0.24604 0.97519 0.54979 0.0
C571 C 0.25814 0.98454 0.5286 0.0
H572 H 0.24223 0.95583 0.59288 0.0
H573 H 0.35883 0.04732 0.38633 0.0
H574 H 0.07591 0.27647 0.47624 0.0
H575 H 0.04421 0.27378 0.47855 0.0
H576 H 0.04018 0.3276 0.51049 0.0
H577 H 0.07161 0.33032 0.50852 0.0
H578 H 0.02076 0.30806 0.55569 0.0
H579 H 0.02943 0.31394 0.42202 0.0
H580 H 0.04159 0.30665 0.35957 0.0
H581 H 0.0188 0.25593 0.36596 0.0
H582 H 0.0067 0.26285 0.42876 0.0
H583 H 0.93354 0.32986 0.51324 0.0
H584 H 0.96509 0.32692 0.51374 0.0
H585 H 0.96009 0.27147 0.50283 0.0
H586 H 0.92834 0.2743 0.50308 0.0
H587 H 0.98383 0.28822 0.44934 0.0
H588 H 0.97295 0.28439 0.58232 0.0
H589 H 0.96022 0.29336 0.64316 0.0
H590 H 0.98687 0.34214 0.63619 0.0
H591 H 0.99957 0.33356 0.57498 0.0
C592 C 0.06823 0.28776 0.48332 0.0
C593 C 0.07631 0.3036 0.49223 0.0
C594 C 0.05012 0.28621 0.48464 0.0
C595 C 0.03977 0.30049 0.49476 0.0
C596 C 0.04785 0.31637 0.50286 0.0
C597 C 0.06586 0.31792 0.50153 0.0
C598 C 0.02058 0.29897 0.49807 0.0
C599 C 0.01271 0.30382 0.5323 0.0
C600 C 0.01003 0.29306 0.46793 0.0
C601 C 0.01736 0.28883 0.4303 0.0
C602 C 0.02716 0.30117 0.41028 0.0
C603 C 0.03401 0.29712 0.37479 0.0
C604 C 0.03103 0.28081 0.35887 0.0
C605 C 0.02114 0.26854 0.37838 0.0
C606 C 0.01428 0.27252 0.41391 0.0
C607 C 0.93913 0.31701 0.51144 0.0
C608 C 0.92847 0.3023 0.50827 0.0
C609 C 0.95716 0.31535 0.5117 0.0
C610 C 0.96493 0.29898 0.50828 0.0
C611 C 0.95434 0.28422 0.50548 0.0
C612 C 0.93623 0.28584 0.50591 0.0
C613 C 0.98411 0.29755 0.50669 0.0
C614 C 0.99195 0.2922 0.47283 0.0
C615 C 0.99465 0.30318 0.537 0.0
C616 C 0.9871 0.30838 0.57389 0.0
C617 C 0.97599 0.29709 0.59359 0.0
C618 C 0.9688 0.30209 0.62818 0.0
C619 C 0.97271 0.31833 0.64349 0.0
C620 C 0.98385 0.32957 0.62427 0.0
C621 C 0.99106 0.32464 0.58965 0.0
H622 H 0.96713 0.32218 0.67027 0.0
H623 H 0.03633 0.2777 0.33136 0.0
H624 H 0.22719 0.32578 0.0466 0.0
H625 H 0.25393 0.30888 0.05244 0.0
H626 H 0.27241 0.3305 0.94735 0.0
H627 H 0.24558 0.3476 0.94179 0.0
H628 H 0.2733 0.29456 0.94919 0.0
H629 H 0.29293 0.34113 0.02687 0.0
H630 H 0.29101 0.36281 0.0779 0.0
H631 H 0.2865 0.32212 0.16018 0.0
H632 H 0.28815 0.30018 0.10959 0.0
H633 H 0.34981 0.24354 0.96959 0.0
H634 H 0.33268 0.27029 0.96477 0.0
H635 H 0.3037 0.25551 0.0639 0.0
H636 H 0.32047 0.22871 0.06845 0.0
H637 H 0.31206 0.29164 0.061 0.0
H638 H 0.28602 0.24649 0.98658 0.0
H639 H 0.28566 0.2234 0.93842 0.0
H640 H 0.30008 0.26027 0.85302 0.0
H641 H 0.30076 0.28358 0.90093 0.0
C642 C 0.23719 0.32722 0.02532 0.0
C643 C 0.23456 0.33806 0.99403 0.0
C644 C 0.25244 0.31761 0.02865 0.0
C645 C 0.26524 0.31854 0.00049 0.0
C646 C 0.26276 0.3297 0.96952 0.0
C647 C 0.24754 0.3395 0.96644 0.0
C648 C 0.28032 0.30661 0.00196 0.0
C649 C 0.2821 0.29426 0.97311 0.0
C650 C 0.29145 0.30587 0.03376 0.0
C651 C 0.29057 0.31901 0.06436 0.0
C652 C 0.29141 0.3368 0.05581 0.0
C653 C 0.29039 0.34914 0.08467 0.0
C654 C 0.28861 0.34384 0.12225 0.0
C655 C 0.28788 0.3262 0.13106 0.0
C656 C 0.28889 0.31381 0.1023 0.0
C657 C 0.34001 0.24618 0.99073 0.0
C658 C 0.33637 0.23399 0.01922 0.0
C659 C 0.33023 0.26142 0.98791 0.0
C660 C 0.3169 0.26483 0.01393 0.0
C661 C 0.31396 0.25316 0.04363 0.0
C662 C 0.32348 0.23781 0.04604 0.0
C663 C 0.30489 0.27962 0.00837 0.0
C664 C 0.30359 0.29234 0.03656 0.0
C665 C 0.29401 0.2806 0.97626 0.0
C666 C 0.29369 0.2667 0.94737 0.0
C667 C 0.2893 0.24964 0.9576 0.0
C668 C 0.289 0.23653 0.93037 0.0
C669 C 0.29291 0.24036 0.89274 0.0
C670 C 0.2971 0.25733 0.88223 0.0
C671 C 0.29745 0.2705 0.90941 0.0
H672 H 0.29259 0.23019 0.87177 0.0
H673 H 0.28781 0.35342 0.14456 0.0
H674 H 0.77593 0.32385 0.07872 0.0
H675 H 0.75052 0.30498 0.07558 0.0
H676 H 0.73842 0.32511 0.96482 0.0
H677 H 0.76335 0.34477 0.96892 0.0
H678 H 0.70935 0.31703 -0.00089 0.0
H679 H 0.76346 0.28757 0.97765 0.0
H680 H 0.79328 0.27847 0.99308 0.0
H681 H 0.77496 0.25332 0.09379 0.0
H682 H 0.74506 0.26247 0.07917 0.0
H683 H 0.69082 0.21982 0.94983 0.0
H684 H 0.70927 0.24514 0.957 0.0
H685 H 0.67208 0.26799 0.03319 0.0
H686 H 0.6532 0.24257 0.02548 0.0
H687 H 0.72496 0.25523 0.0176 0.0
H688 H 0.67755 0.31312 0.02993 0.0
H689 H 0.64879 0.32198 0.00632 0.0
H690 H 0.6551 0.2892 0.90921 0.0
H691 H 0.68396 0.28032 0.93196 0.0
C692 C 0.76762 0.3245 0.05406 0.0
C693 C 0.77169 0.33559 0.02385 0.0
C694 C 0.75314 0.31367 0.0522 0.0
C695 C 0.74282 0.31321 0.01947 0.0
C696 C 0.74621 0.32513 0.99029 0.0
C697 C 0.76048 0.33634 0.9926 0.0
C698 C 0.72971 0.29922 0.01418 0.0
C699 C 0.71272 0.30352 0.00333 0.0
C700 C 0.73414 0.28152 0.01888 0.0
C701 C 0.75207 0.27584 0.0275 0.0
C702 C 0.76582 0.28017 0.00318 0.0
C703 C 0.78273 0.275 0.01177 0.0
C704 C 0.78602 0.26536 0.04444 0.0
C705 C 0.77239 0.26082 0.06852 0.0
C706 C 0.75547 0.26598 0.06009 0.0
C707 C 0.68644 0.23024 0.96796 0.0
C708 C 0.67058 0.22906 0.98742 0.0
C709 C 0.69704 0.24476 0.97203 0.0
C710 C 0.69216 0.25847 0.99578 0.0
C711 C 0.67608 0.25764 0.01444 0.0
C712 C 0.66532 0.24309 0.0101 0.0
C713 C 0.70455 0.27296 0.00242 0.0
C714 C 0.72147 0.26874 0.01368 0.0
C715 C 0.70013 0.29061 0.99695 0.0
C716 C 0.68282 0.29589 0.98294 0.0
C717 C 0.6728 0.30783 0.00352 0.0
C718 C 0.65649 0.31285 0.99027 0.0
C719 C 0.65009 0.3061 0.95637 0.0
C720 C 0.66003 0.29435 0.93556 0.0
C721 C 0.67635 0.2893 0.94865 0.0
H722 H 0.63746 0.31001 0.94617 0.0
H723 H 0.79911 0.26138 0.05106 0.0
H724 H 0.78731 0.69429 0.96278 0.0
H725 H 0.7618 0.71243 0.96996 0.0
H726 H 0.73264 0.66862 0.01094 0.0
H727 H 0.75838 0.65009 0.004 0.0
H728 H 0.71419 0.69181 0.95738 0.0
H729 H 0.74522 0.69393 0.07456 0.0
H730 H 0.77125 0.69664 0.11455 0.0
H731 H 0.78026 0.74789 0.07134 0.0
H732 H 0.75442 0.74539 0.03064 0.0
H733 H 0.65077 0.75686 0.01278 0.0
H734 H 0.66941 0.73102 0.0118 0.0
H735 H 0.71408 0.76358 0.99301 0.0
H736 H 0.69584 0.78916 0.99512 0.0
H737 H 0.72129 0.74143 0.04528 0.0
H738 H 0.69353 0.73794 0.92179 0.0
H739 H 0.66843 0.73548 0.87892 0.0
H740 H 0.65379 0.68752 0.93175 0.0
H741 H 0.67871 0.68981 0.97523 0.0
C742 C 0.77551 0.68835 0.97313 0.0
C743 C 0.77504 0.6707 0.98326 0.0
C744 C 0.7609 0.6988 0.97716 0.0
C745 C 0.7454 0.69192 0.99138 0.0
C746 C 0.74451 0.67417 -2e-05 0.0
C747 C 0.75925 0.66363 0.99609 0.0
C748 C 0.73066 0.70379 -0.00101 0.0
C749 C 0.71553 0.70248 0.97715 0.0
C750 C 0.7325 0.71777 0.02453 0.0
C751 C 0.74792 0.71943 0.04941 0.0
C752 C 0.75281 0.70574 0.07341 0.0
C753 C 0.76753 0.70724 0.09623 0.0
C754 C 0.77742 0.72241 0.09545 0.0
C755 C 0.77258 0.73614 0.07192 0.0
C756 C 0.75788 0.7347 0.04901 0.0
C757 C 0.66456 0.75844 0.00828 0.0
C758 C 0.67181 0.7751 0.00429 0.0
C759 C 0.6752 0.74366 0.00762 0.0
C760 C 0.69321 0.7453 0.00228 0.0
C761 C 0.7003 0.76191 0.99756 0.0
C762 C 0.68979 0.77659 -0.00129 0.0
C763 C 0.70505 0.73002 0.00236 0.0
C764 C 0.7197 0.73063 0.02593 0.0
C765 C 0.70276 0.71553 0.97821 0.0
C766 C 0.68784 0.71416 0.95203 0.0
C767 C 0.68488 0.72694 0.92444 0.0
C768 C 0.6707 0.72556 0.9 0.0
C769 C 0.65949 0.71139 0.90269 0.0
C770 C 0.66246 0.69852 0.92975 0.0
C771 C 0.67661 0.69984 0.95428 0.0
H772 H 0.64852 0.71034 0.88375 0.0
H773 H 0.78881 0.72355 0.11312 0.0
H774 H 0.22065 0.69412 0.03729 0.0
H775 H 0.24646 0.71144 0.02692 0.0
H776 H 0.27175 0.66784 0.97448 0.0
H777 H 0.24558 0.65011 0.98445 0.0
H778 H 0.29277 0.69076 0.03053 0.0
H779 H 0.25966 0.693 0.91562 0.0
H780 H 0.23262 0.6955 0.87884 0.0
H781 H 0.22387 0.74626 0.92479 0.0
H782 H 0.25072 0.74396 0.96233 0.0
H783 H 0.35431 0.7575 0.97565 0.0
H784 H 0.33623 0.73126 0.97536 0.0
H785 H 0.29092 0.76262 0.99617 0.0
H786 H 0.30864 0.78863 0.99509 0.0
H787 H 0.28364 0.74063 0.94418 0.0
H788 H 0.31288 0.73681 0.06628 0.0
H789 H 0.33853 0.73461 0.10763 0.0
H790 H 0.35376 0.68761 0.05172 0.0
H791 H 0.32827 0.68965 0.00976 0.0
C792 C 0.23166 0.68802 0.02375 0.0
C793 C 0.23088 0.6707 0.01127 0.0
C794 C 0.24646 0.698 0.01797 0.0
C795 C 0.26093 0.69097 -0.00032 0.0
C796 C 0.26067 0.67348 0.98867 0.0
C797 C 0.2457 0.6634 0.9943 0.0
C798 C 0.27559 0.70261 0.99021 0.0
C799 C 0.29104 0.70145 0.01095 0.0
C800 C 0.27315 0.71666 0.96509 0.0
C801 C 0.25718 0.71827 0.94191 0.0
C802 C 0.25192 0.70466 0.91805 0.0
C803 C 0.23663 0.70604 0.89705 0.0
C804 C 0.22653 0.72102 0.8995 0.0
C805 C 0.23172 0.73467 0.9229 0.0
C806 C 0.24699 0.73334 0.94399 0.0
C807 C 0.34049 0.75873 0.98025 0.0
C808 C 0.33292 0.77517 0.98518 0.0
C809 C 0.33017 0.74373 0.98019 0.0
C810 C 0.31215 0.74489 0.98585 0.0
C811 C 0.30472 0.76131 0.99135 0.0
C812 C 0.31492 0.77622 0.99081 0.0
C813 C 0.30068 0.72932 0.98574 0.0
C814 C 0.28573 0.72975 0.96307 0.0
C815 C 0.30356 0.71472 0.00934 0.0
C816 C 0.31881 0.7135 0.03462 0.0
C817 C 0.32177 0.72608 0.06265 0.0
C818 C 0.33626 0.72485 0.08621 0.0
C819 C 0.3478 0.71102 0.08222 0.0
C820 C 0.34483 0.69835 0.05472 0.0
C821 C 0.33037 0.69953 0.03106 0.0
H822 H 0.35902 0.71009 0.10048 0.0
H823 H 0.2147 0.72207 0.88325 0.0
H824 H 0.83957 0.73837 0.457 0.0
H825 H 0.8212 0.7641 0.45339 0.0
H826 H 0.81456 0.76281 0.57471 0.0
H827 H 0.8317 0.73614 0.57753 0.0
H828 H 0.78591 0.76809 0.54943 0.0
H829 H 0.83879 0.79625 0.52113 0.0
H830 H 0.8669 0.80162 0.49015 0.0
H831 H 0.84134 0.80745 0.38306 0.0
H832 H 0.81309 0.80189 0.41329 0.0
H833 H 0.7396 0.84918 0.53764 0.0
H834 H 0.76581 0.83156 0.547 0.0
H835 H 0.75726 0.80675 0.43942 0.0
H836 H 0.7308 0.82381 0.43051 0.0
H837 H 0.79534 0.81826 0.46407 0.0
H838 H 0.74256 0.78522 0.49969 0.0
H839 H 0.71556 0.78265 0.53661 0.0
H840 H 0.74417 0.78982 0.63958 0.0
H841 H 0.77129 0.79277 0.60314 0.0
C842 C 0.83442 0.74384 0.48288 0.0
C843 C 0.83706 0.73543 0.51754 0.0
C844 C 0.824 0.75865 0.48093 0.0
C845 C 0.81659 0.76575 0.51386 0.0
C846 C 0.81998 0.75767 0.54879 0.0
C847 C 0.82988 0.74251 0.55051 0.0
C848 C 0.80406 0.7805 0.51146 0.0
C849 C 0.78831 0.77919 0.53134 0.0
C850 C 0.80685 0.79515 0.48787 0.0
C851 C 0.82382 0.79852 0.46948 0.0
C852 C 0.83917 0.79856 0.49093 0.0
C853 C 0.85513 0.80166 0.4735 0.0
C854 C 0.85591 0.80484 0.43465 0.0
C855 C 0.84072 0.80498 0.41316 0.0
C856 C 0.82472 0.80188 0.43043 0.0
C857 C 0.74353 0.84022 0.51569 0.0
C858 C 0.73317 0.83777 0.48344 0.0
C859 C 0.75846 0.83019 0.52107 0.0
C860 C 0.76342 0.81792 0.49383 0.0
C861 C 0.75367 0.81623 0.4606 0.0
C862 C 0.73854 0.82591 0.45566 0.0
C863 C 0.77756 0.80547 0.50158 0.0
C864 C 0.7934 0.80722 0.48261 0.0
C865 C 0.77515 0.79154 0.52691 0.0
C866 C 0.75889 0.78944 0.5487 0.0
C867 C 0.74306 0.78642 0.53017 0.0
C868 C 0.72774 0.78488 0.55101 0.0
C869 C 0.72813 0.78616 0.59042 0.0
C870 C 0.74386 0.7889 0.60906 0.0
C871 C 0.7592 0.79051 0.58833 0.0
H872 H 0.71626 0.78498 0.60652 0.0
H873 H 0.86828 0.80723 0.42121 0.0
H874 H 0.2827 0.81176 0.5451 0.0
H875 H 0.25676 0.79423 0.53762 0.0
H876 H 0.23143 0.83627 0.47952 0.0
H877 H 0.25767 0.85415 0.48649 0.0
H878 H 0.21027 0.81457 0.53823 0.0
H879 H 0.2438 0.81015 0.42382 0.0
H880 H 0.27097 0.8069 0.38781 0.0
H881 H 0.27966 0.75724 0.43928 0.0
H882 H 0.25269 0.76032 0.47607 0.0
H883 H 0.14902 0.74705 0.4827 0.0
H884 H 0.16703 0.7734 0.48361 0.0
H885 H 0.21195 0.7423 0.50973 0.0
H886 H 0.19434 0.71624 0.50759 0.0
H887 H 0.21972 0.76336 0.45592 0.0
H888 H 0.18941 0.769 0.57622 0.0
H889 H 0.16342 0.77196 0.61629 0.0
H890 H 0.14925 0.81847 0.55714 0.0
H891 H 0.17508 0.81567 0.51643 0.0
C892 C 0.27164 0.81746 0.53097 0.0
C893 C 0.27243 0.83435 0.51589 0.0
C894 C 0.25676 0.80739 0.52689 0.0
C895 C 0.24226 0.81391 0.50781 0.0
C896 C 0.24252 0.83104 0.4944 0.0
C897 C 0.25754 0.84119 0.4983 0.0
C898 C 0.22767 0.802 0.4994 0.0
C899 C 0.21209 0.80355 0.51958 0.0
C900 C 0.23019 0.78757 0.47545 0.0
C901 C 0.24627 0.78552 0.45284 0.0
C902 C 0.25157 0.79859 0.42764 0.0
C903 C 0.26692 0.79677 0.40707 0.0
C904 C 0.27705 0.78188 0.41129 0.0
C905 C 0.27181 0.76876 0.43603 0.0
C906 C 0.25647 0.77053 0.45671 0.0
C907 C 0.16272 0.74593 0.48887 0.0
C908 C 0.17028 0.72955 0.49474 0.0
C909 C 0.173 0.76098 0.48946 0.0
C910 C 0.19091 0.75989 0.49668 0.0
C911 C 0.19824 0.74355 0.50362 0.0
C912 C 0.18812 0.72861 0.50247 0.0
C913 C 0.20246 0.77539 0.49605 0.0
C914 C 0.21757 0.77453 0.47396 0.0
C915 C 0.1995 0.79032 0.5185 0.0
C916 C 0.18404 0.79201 0.54301 0.0
C917 C 0.18068 0.77978 0.57159 0.0
C918 C 0.16599 0.78145 0.59444 0.0
C919 C 0.15466 0.79536 0.58918 0.0
C920 C 0.15802 0.80768 0.56113 0.0
C921 C 0.17268 0.80606 0.53818 0.0
H922 H 0.1433 0.79663 0.6069 0.0
H923 H 0.28894 0.7805 0.39536 0.0
H924 H 0.25689 0.15013 0.47708 0.0
H925 H 0.23064 0.1682 0.48165 0.0
H926 H 0.26201 0.21203 0.51392 0.0
H927 H 0.28807 0.19437 0.50865 0.0
H928 H 0.23157 0.20555 0.5609 0.0
H929 H 0.24968 0.21133 0.4291 0.0
H930 H 0.25641 0.1998 0.36577 0.0
H931 H 0.20529 0.17808 0.35801 0.0
H932 H 0.19833 0.18935 0.42155 0.0
H933 H 0.19436 0.28618 0.53355 0.0
H934 H 0.21169 0.25994 0.53181 0.0
H935 H 0.16886 0.2319 0.48286 0.0
H936 H 0.15122 0.25843 0.48416 0.0
H937 H 0.19956 0.22474 0.44663 0.0
H938 H 0.17943 0.22392 0.57276 0.0
H939 H 0.17231 0.23548 0.63584 0.0
H940 H 0.22604 0.24667 0.65574 0.0
H941 H 0.23347 0.23544 0.59253 0.0
C942 C 0.25813 0.1636 0.48523 0.0
C943 C 0.27456 0.17084 0.49235 0.0
C944 C 0.24316 0.17389 0.48775 0.0
C945 C 0.24442 0.19143 0.49816 0.0
C946 C 0.26076 0.19852 0.50593 0.0
C947 C 0.27566 0.18841 0.50271 0.0
C948 C 0.22893 0.20276 0.50067 0.0
C949 C 0.22452 0.20974 0.53598 0.0
C950 C 0.21937 0.20774 0.46832 0.0
C951 C 0.22357 0.20095 0.43025 0.0
C952 C 0.23994 0.20394 0.41405 0.0
C953 C 0.24378 0.19749 0.37809 0.0
C954 C 0.23132 0.18814 0.35795 0.0
C955 C 0.21495 0.18528 0.37369 0.0
C956 C 0.21105 0.1917 0.40966 0.0
C957 C 0.18849 0.27449 0.52245 0.0
C958 C 0.17132 0.27449 0.50901 0.0
C959 C 0.19844 0.25941 0.52169 0.0
C960 C 0.19152 0.24386 0.5077 0.0
C961 C 0.17443 0.24373 0.49398 0.0
C962 C 0.16437 0.2589 0.49486 0.0
C963 C 0.20258 0.22806 0.50678 0.0
C964 C 0.20621 0.22024 0.4718 0.0
C965 C 0.21134 0.22218 0.53956 0.0
C966 C 0.20699 0.2289 0.57776 0.0
C967 C 0.18972 0.22896 0.59047 0.0
C968 C 0.18563 0.23544 0.62627 0.0
C969 C 0.19871 0.24183 0.64976 0.0
C970 C 0.21592 0.24171 0.63751 0.0
C971 C 0.22008 0.23526 0.60171 0.0
H972 H 0.19552 0.24684 0.67747 0.0
H973 H 0.23431 0.18317 0.33009 0.0
H974 H 0.85305 0.25903 0.50991 0.0
H975 H 0.83432 0.23338 0.51545 0.0
H976 H 0.79273 0.26135 0.4616 0.0
H977 H 0.8111 0.28681 0.456 0.0
H978 H 0.78295 0.24638 0.52876 0.0
H979 H 0.81511 0.22997 0.41524 0.0
H980 H 0.8419 0.22291 0.38049 0.0
H981 H 0.85253 0.18153 0.45835 0.0
H982 H 0.8259 0.18849 0.49384 0.0
H983 H 0.71653 0.19365 0.47379 0.0
H984 H 0.7423 0.21179 0.47188 0.0
H985 H 0.77242 0.17044 0.52111 0.0
H986 H 0.74642 0.15179 0.52183 0.0
H987 H 0.79139 0.18893 0.46841 0.0
H988 H 0.75821 0.20238 0.57748 0.0
H989 H 0.73178 0.20886 0.61396 0.0
H990 H 0.72412 0.25539 0.54946 0.0
H991 H 0.75035 0.24906 0.51214 0.0
C992 C 0.83997 0.25965 0.49889 0.0
C993 C 0.83356 0.2751 0.48287 0.0
C994 C 0.8293 0.24496 0.50203 0.0
C995 C 0.8121 0.24548 0.48909 0.0
C996 C 0.80591 0.26068 0.47206 0.0
C997 C 0.81649 0.27527 0.46888 0.0
C998 C 0.79997 0.23072 0.49477 0.0
C999 C 0.78478 0.23384 0.51544 0.0
C1000 C 0.80272 0.21409 0.47895 0.0
C1001 C 0.81863 0.20988 0.45743 0.0
C1002 C 0.82324 0.21946 0.42513 0.0
C1003 C 0.83837 0.21545 0.40526 0.0
C1004 C 0.84894 0.20181 0.41727 0.0
C1005 C 0.84436 0.19211 0.44911 0.0
C1006 C 0.82924 0.19607 0.46909 0.0
C1007 C 0.72866 0.18831 0.48387 0.0
C1008 C 0.72942 0.1714 0.49847 0.0
C1009 C 0.7434 0.19872 0.48284 0.0
C1010 C 0.7592 0.19267 0.49734 0.0
C1011 C 0.76031 0.17542 0.51008 0.0
C1012 C 0.7455 0.1648 0.51049 0.0
C1013 C 0.774 0.20495 0.50078 0.0
C1014 C 0.78969 0.20136 0.48224 0.0
C1015 C 0.77188 0.22116 0.51907 0.0
C1016 C 0.75624 0.2252 0.5419 0.0
C1017 C 0.75085 0.21395 0.57095 0.0
C1018 C 0.7359 0.2176 0.59179 0.0
C1019 C 0.72628 0.23252 0.58403 0.0
C1020 C 0.7316 0.24384 0.55546 0.0
C1021 C 0.74653 0.24024 0.53449 0.0
H1022 H 0.7147 0.23531 0.60017 0.0
H1023 H 0.86065 0.19874 0.40186 0.0
H1024 H 0.14396 0.36112 0.41036 0.0
H1025 H 0.1474 0.36872 0.34354 0.0
H1026 H 0.13604 0.31592 0.3121 0.0
H1027 H 0.13209 0.30831 0.379 0.0
H1028 H 0.16936 0.33096 0.28556 0.0
H1029 H 0.10821 0.34176 0.28769 0.0
H1030 H 0.0811 0.35468 0.3113 0.0
H1031 H 0.10101 0.40568 0.28912 0.0
H1032 H 0.12838 0.39305 0.2659 0.0
H1033 H 0.16334 0.33362 0.08862 0.0
H1034 H 0.15543 0.33106 0.15482 0.0
H1035 H 0.16817 0.38484 0.17272 0.0
H1036 H 0.17648 0.38759 0.10571 0.0
H1037 H 0.13466 0.37148 0.20707 0.0
H1038 H 0.19558 0.36089 0.20384 0.0
H1039 H 0.2227 0.34807 0.17998 0.0
H1040 H 0.20357 0.29707 0.20512 0.0
H1041 H 0.17618 0.30958 0.22854 0.0
C1042 C 0.14181 0.35122 0.38914 0.0
C1043 C 0.13777 0.33411 0.39982 0.0
C1044 C 0.14377 0.35559 0.35104 0.0
C1045 C 0.14203 0.34287 0.32301 0.0
C1046 C 0.1374 0.32591 0.33343 0.0
C1047 C 0.13505 0.32161 0.37155 0.0
C1048 C 0.14654 0.34697 0.2833 0.0
C1049 C 0.16166 0.33965 0.26824 0.0
C1050 C 0.13682 0.35881 0.26134 0.0
C1051 C 0.12044 0.36646 0.27552 0.0
C1052 C 0.1069 0.35573 0.28827 0.0
C1053 C 0.09146 0.36301 0.30148 0.0
C1054 C 0.08935 0.38099 0.30184 0.0
C1055 C 0.10268 0.39174 0.2889 0.0
C1056 C 0.11815 0.38454 0.27569 0.0
C1057 C 0.16437 0.34503 0.10631 0.0
C1058 C 0.17059 0.36085 0.0917 0.0
C1059 C 0.15985 0.34349 0.14427 0.0
C1060 C 0.16127 0.35772 0.16861 0.0
C1061 C 0.16698 0.37372 0.15422 0.0
C1062 C 0.17178 0.37524 0.11606 0.0
C1063 C 0.15737 0.35531 0.20928 0.0
C1064 C 0.14242 0.36291 0.22455 0.0
C1065 C 0.16729 0.3438 0.23164 0.0
C1066 C 0.18374 0.33617 0.21757 0.0
C1067 C 0.19707 0.34693 0.20391 0.0
C1068 C 0.21251 0.33972 0.19054 0.0
C1069 C 0.21484 0.32176 0.19093 0.0
C1070 C 0.20174 0.31098 0.20478 0.0
C1071 C 0.18625 0.31813 0.21813 0.0
H1072 H 0.22681 0.31621 0.18059 0.0
H1073 H 0.07738 0.3866 0.31204 0.0
H1074 H 0.67761 0.11599 0.38547 0.0
H1075 H 0.66845 0.11717 0.31899 0.0
H1076 H 0.64849 0.1688 0.33648 0.0
H1077 H 0.65695 0.16752 0.40233 0.0
H1078 H 0.62682 0.15198 0.29507 0.0
H1079 H 0.68932 0.15977 0.29413 0.0
H1080 H 0.71952 0.15107 0.3069 0.0
H1081 H 0.71252 0.10516 0.23996 0.0
H1082 H 0.68221 0.1135 0.22716 0.0
H1083 H 0.62752 0.19088 0.11274 0.0
H1084 H 0.6307 0.18198 0.17876 0.0
H1085 H 0.6489 0.13174 0.14258 0.0
H1086 H 0.6464 0.14084 0.0767 0.0
H1087 H 0.66983 0.14365 0.19262 0.0
H1088 H 0.60786 0.1387 0.18679 0.0
H1089 H 0.57809 0.1486 0.17354 0.0
H1090 H 0.58423 0.19028 0.25289 0.0
H1091 H 0.61411 0.18076 0.26627 0.0
C1092 C 0.67119 0.12753 0.3751 0.0
C1093 C 0.66803 0.14163 0.39934 0.0
C1094 C 0.666 0.12822 0.33707 0.0
C1095 C 0.65788 0.14316 0.32254 0.0
C1096 C 0.6546 0.15709 0.34691 0.0
C1097 C 0.65953 0.15633 0.38473 0.0
C1098 C 0.65311 0.14479 0.2819 0.0
C1099 C 0.63625 0.15022 0.27265 0.0
C1100 C 0.66524 0.14211 0.25248 0.0
C1101 C 0.68346 0.13715 0.26007 0.0
C1102 C 0.6942 0.14776 0.28236 0.0
C1103 C 0.71134 0.14291 0.28956 0.0
C1104 C 0.71792 0.12755 0.27435 0.0
C1105 C 0.70739 0.11703 0.25179 0.0
C1106 C 0.69024 0.12182 0.24454 0.0
C1107 C 0.63184 0.17782 0.1189 0.0
C1108 C 0.63676 0.16659 0.08955 0.0
C1109 C 0.63363 0.17271 0.15669 0.0
C1110 C 0.63995 0.15611 0.16581 0.0
C1111 C 0.64408 0.14463 0.13638 0.0
C1112 C 0.64258 0.14983 0.09871 0.0
C1113 C 0.6436 0.15119 0.20575 0.0
C1114 C 0.66027 0.14515 0.21488 0.0
C1115 C 0.63132 0.15344 0.23506 0.0
C1116 C 0.61327 0.15906 0.22735 0.0
C1117 C 0.6029 0.15003 0.20126 0.0
C1118 C 0.586 0.15557 0.19375 0.0
C1119 C 0.57929 0.17008 0.21231 0.0
C1120 C 0.58945 0.17904 0.23853 0.0
C1121 C 0.60636 0.17356 0.24613 0.0
H1122 H 0.56621 0.17435 0.20643 0.0
H1123 H 0.73119 0.12381 0.27996 0.0
H1124 H 0.88575 0.67847 0.38792 0.0
H1125 H 0.88325 0.66857 0.32217 0.0
H1126 H 0.82854 0.65967 0.3384 0.0
H1127 H 0.83103 0.66893 0.40381 0.0
H1128 H 0.84157 0.6337 0.30134 0.0
H1129 H 0.84579 0.69643 0.29089 0.0
H1130 H 0.85995 0.7248 0.3003 0.0
H1131 H 0.90455 0.70715 0.23882 0.0
H1132 H 0.89072 0.67861 0.22942 0.0
H1133 H 0.80805 0.63306 0.11412 0.0
H1134 H 0.81564 0.63747 0.18059 0.0
H1135 H 0.8688 0.64708 0.14878 0.0
H1136 H 0.86101 0.64361 0.08227 0.0
H1137 H 0.85962 0.6708 0.19388 0.0
H1138 H 0.85415 0.60891 0.19851 0.0
H1139 H 0.8398 0.5807 0.18844 0.0
H1140 H 0.79781 0.59632 0.26038 0.0
H1141 H 0.81179 0.62471 0.27049 0.0
C1142 C 0.8732 0.67444 0.37736 0.0
C1143 C 0.85862 0.67447 0.40117 0.0
C1144 C 0.87177 0.6688 0.33976 0.0
C1145 C 0.85566 0.66345 0.32516 0.0
C1146 C 0.84113 0.66359 0.34895 0.0
C1147 C 0.84259 0.66896 0.38644 0.0
C1148 C 0.85362 0.65779 0.28515 0.0
C1149 C 0.84543 0.64186 0.27781 0.0
C1150 C 0.85907 0.66816 0.25436 0.0
C1151 C 0.86731 0.68535 0.25982 0.0
C1152 C 0.85866 0.69858 0.2796 0.0
C1153 C 0.86662 0.71468 0.28489 0.0
C1154 C 0.88316 0.71775 0.27026 0.0
C1155 C 0.89175 0.70474 0.25019 0.0
C1156 C 0.88386 0.68861 0.24485 0.0
C1157 C 0.82141 0.63576 0.12146 0.0
C1158 C 0.83394 0.638 0.09309 0.0
C1159 C 0.82578 0.63823 0.15951 0.0
C1160 C 0.84287 0.64249 0.16996 0.0
C1161 C 0.85553 0.64391 0.14159 0.0
C1162 C 0.85108 0.64184 0.10359 0.0
C1163 C 0.84732 0.64677 0.20991 0.0
C1164 C 0.85595 0.66247 0.21728 0.0
C1165 C 0.84229 0.63616 0.2407 0.0
C1166 C 0.83397 0.61899 0.23505 0.0
C1167 C 0.84181 0.60636 0.21203 0.0
C1168 C 0.83375 0.59034 0.20633 0.0
C1169 C 0.81789 0.58673 0.22371 0.0
C1170 C 0.81009 0.59913 0.24693 0.0
C1171 C 0.81809 0.61518 0.2527 0.0
H1172 H 0.81166 0.57432 0.21922 0.0
H1173 H 0.8893 0.73023 0.2744 0.0
H1174 H 0.34776 0.8361 0.41053 0.0
H1175 H 0.35635 0.83349 0.34489 0.0
H1176 H 0.32989 0.88125 0.3187 0.0
H1177 H 0.32075 0.88382 0.38496 0.0
H1178 H 0.32266 0.8572 0.26758 0.0
H1179 H 0.37496 0.87879 0.32201 0.0
H1180 H 0.39904 0.88009 0.36775 0.0
H1181 H 0.41506 0.82889 0.3355 0.0
H1182 H 0.39093 0.82718 0.28991 0.0
H1183 H 0.35486 0.85978 0.08251 0.0
H1184 H 0.35115 0.86748 0.14876 0.0
H1185 H 0.37306 0.81839 0.18216 0.0
H1186 H 0.37706 0.81059 0.11539 0.0
H1187 H 0.38333 0.84524 0.22902 0.0
H1188 H 0.3298 0.82311 0.17814 0.0
H1189 H 0.30567 0.82178 0.1325 0.0
H1190 H 0.29207 0.87441 0.15858 0.0
H1191 H 0.31628 0.87612 0.20401 0.0
C1192 C 0.34381 0.8462 0.39109 0.0
C1193 C 0.33357 0.86025 0.40328 0.0
C1194 C 0.34887 0.84471 0.35341 0.0
C1195 C 0.34408 0.85733 0.32689 0.0
C1196 C 0.33385 0.8714 0.33875 0.0
C1197 C 0.32864 0.87287 0.37663 0.0
C1198 C 0.34911 0.85519 0.28654 0.0
C1199 C 0.33598 0.85495 0.2591 0.0
C1200 C 0.36644 0.85179 0.27549 0.0
C1201 C 0.38105 0.85282 0.30272 0.0
C1202 C 0.38355 0.86776 0.32484 0.0
C1203 C 0.39722 0.86858 0.35072 0.0
C1204 C 0.40855 0.85457 0.35458 0.0
C1205 C 0.40627 0.83973 0.33249 0.0
C1206 C 0.39261 0.83884 0.30659 0.0
C1207 C 0.3591 0.85065 0.10386 0.0
C1208 C 0.36603 0.83444 0.09362 0.0
C1209 C 0.35693 0.85509 0.14178 0.0
C1210 C 0.36144 0.84335 0.17038 0.0
C1211 C 0.36937 0.82759 0.16047 0.0
C1212 C 0.37167 0.82316 0.12233 0.0
C1213 C 0.35688 0.84718 0.21032 0.0
C1214 C 0.37006 0.84768 0.23759 0.0
C1215 C 0.3396 0.85085 0.22127 0.0
C1216 C 0.32495 0.8498 0.19419 0.0
C1217 C 0.32174 0.83444 0.17394 0.0
C1218 C 0.30804 0.83361 0.14814 0.0
C1219 C 0.29737 0.84802 0.14257 0.0
C1220 C 0.30036 0.86327 0.16288 0.0
C1221 C 0.31406 0.86417 0.18868 0.0
H1222 H 0.28677 0.84736 0.12258 0.0
H1223 H 0.41913 0.85523 0.37464 0.0
H1224 H 0.15614 0.64681 0.58856 0.0
H1225 H 0.15881 0.63943 0.65501 0.0
H1226 H 0.12387 0.68097 0.68408 0.0
H1227 H 0.12136 0.68878 0.61707 0.0
H1228 H 0.15255 0.68207 0.72629 0.0
H1229 H 0.11181 0.63796 0.69273 0.0
H1230 H 0.10001 0.61379 0.65506 0.0
H1231 H 0.14474 0.58297 0.6813 0.0
H1232 H 0.15693 0.60705 0.71871 0.0
H1233 H 0.14709 0.66089 0.91822 0.0
H1234 H 0.13887 0.66394 0.85224 0.0
H1235 H 0.17777 0.62663 0.82033 0.0
H1236 H 0.18623 0.62339 0.88691 0.0
H1237 H 0.14601 0.62303 0.78034 0.0
H1238 H 0.18735 0.66739 0.81073 0.0
H1239 H 0.19948 0.69148 0.8482 0.0
H1240 H 0.15379 0.72173 0.82719 0.0
H1241 H 0.14127 0.69771 0.79004 0.0
C1242 C 0.14882 0.65432 0.60887 0.0
C1243 C 0.1386 0.6685 0.59734 0.0
C1244 C 0.15028 0.64997 0.647 0.0
C1245 C 0.14144 0.65953 0.67458 0.0
C1246 C 0.13079 0.67338 0.66322 0.0
C1247 C 0.12932 0.67778 0.6249 0.0
C1248 C 0.14443 0.65582 0.71528 0.0
C1249 C 0.15077 0.66924 0.73824 0.0
C1250 C 0.14268 0.63893 0.73062 0.0
C1251 C 0.13534 0.62438 0.7083 0.0
C1252 C 0.11919 0.62608 0.69025 0.0
C1253 C 0.11242 0.61238 0.66898 0.0
C1254 C 0.12163 0.59687 0.66573 0.0
C1255 C 0.13762 0.595 0.68383 0.0
C1256 C 0.14445 0.60866 0.70511 0.0
C1257 C 0.15388 0.65317 0.8974 0.0
C1258 C 0.16752 0.64204 0.90796 0.0
C1259 C 0.14912 0.65496 0.8596 0.0
C1260 C 0.1579 0.64574 0.83139 0.0
C1261 C 0.1709 0.63392 0.84177 0.0
C1262 C 0.17572 0.63211 0.8798 0.0
C1263 C 0.15402 0.64929 0.79108 0.0
C1264 C 0.14762 0.63587 0.76829 0.0
C1265 C 0.15575 0.66617 0.77578 0.0
C1266 C 0.1633 0.68068 0.79792 0.0
C1267 C 0.17982 0.67912 0.81436 0.0
C1268 C 0.18679 0.69277 0.8355 0.0
C1269 C 0.17739 0.7081 0.84016 0.0
C1270 C 0.16104 0.70983 0.8236 0.0
C1271 C 0.15401 0.69621 0.80248 0.0
H1272 H 0.18279 0.71866 0.85653 0.0
H1273 H 0.11637 0.58628 0.64924 0.0
H1274 H 0.36024 0.14668 0.58495 0.0
H1275 H 0.36748 0.15061 0.65162 0.0
H1276 H 0.31667 0.13239 0.68319 0.0
H1277 H 0.30933 0.12827 0.61631 0.0
H1278 H 0.32534 0.16534 0.71166 0.0
H1279 H 0.3504 0.10846 0.70487 0.0
H1280 H 0.36929 0.0857 0.67857 0.0
H1281 H 0.41409 0.11713 0.70072 0.0
H1282 H 0.39544 0.14021 0.72667 0.0
H1283 H 0.33231 0.16274 0.90826 0.0
H1284 H 0.32955 0.15477 0.84218 0.0
H1285 H 0.38143 0.17301 0.82068 0.0
H1286 H 0.38441 0.1812 0.8876 0.0
H1287 H 0.37389 0.14063 0.78618 0.0
H1288 H 0.35023 0.19728 0.79189 0.0
H1289 H 0.33228 0.22185 0.81303 0.0
H1290 H 0.2861 0.19277 0.7892 0.0
H1291 H 0.30377 0.16789 0.7685 0.0
C1292 C 0.3507 0.14317 0.60609 0.0
C1293 C 0.33415 0.13727 0.59537 0.0
C1294 C 0.35491 0.14536 0.6442 0.0
C1295 C 0.34262 0.14181 0.67231 0.0
C1296 C 0.32635 0.13518 0.66184 0.0
C1297 C 0.3222 0.13275 0.62367 0.0
C1298 C 0.34611 0.14677 0.71209 0.0
C1299 C 0.33574 0.1597 0.72823 0.0
C1300 C 0.36025 0.14001 0.73288 0.0
C1301 C 0.3715 0.12614 0.71738 0.0
C1302 C 0.36426 0.11059 0.70382 0.0
C1303 C 0.37493 0.09762 0.68904 0.0
C1304 C 0.39287 0.09999 0.68788 0.0
C1305 C 0.40019 0.11532 0.70159 0.0
C1306 C 0.38957 0.12835 0.71638 0.0
C1307 C 0.34325 0.16506 0.88975 0.0
C1308 C 0.35861 0.17268 0.90342 0.0
C1309 C 0.34158 0.16052 0.85182 0.0
C1310 C 0.35521 0.16343 0.82646 0.0
C1311 C 0.37074 0.17069 0.83986 0.0
C1312 C 0.37239 0.17542 0.87803 0.0
C1313 C 0.35284 0.15896 0.78599 0.0
C1314 C 0.36345 0.14622 0.76964 0.0
C1315 C 0.33904 0.16605 0.76466 0.0
C1316 C 0.32835 0.18065 0.77894 0.0
C1317 C 0.33626 0.19601 0.79169 0.0
C1318 C 0.32613 0.21002 0.80347 0.0
C1319 C 0.30807 0.20887 0.80239 0.0
C1320 C 0.30009 0.19364 0.78997 0.0
C1321 C 0.31016 0.17958 0.77822 0.0
H1322 H 0.30025 0.21982 0.81086 0.0
H1323 H 0.40111 0.08992 0.67643 0.0
H1324 H 0.84255 0.33331 0.91087 0.0
H1325 H 0.85114 0.33051 0.84522 0.0
H1326 H 0.83093 0.3815 0.82164 0.0
H1327 H 0.8218 0.38432 0.88789 0.0
H1328 H 0.82169 0.35916 0.76786 0.0
H1329 H 0.87531 0.37372 0.82781 0.0
H1330 H 0.89855 0.37128 0.87536 0.0
H1331 H 0.90891 0.31914 0.83943 0.0
H1332 H 0.88557 0.32118 0.792 0.0
H1333 H 0.85605 0.35982 0.58426 0.0
H1334 H 0.8519 0.36742 0.65052 0.0
H1335 H 0.87022 0.31684 0.68385 0.0
H1336 H 0.87486 0.30928 0.6172 0.0
H1337 H 0.88128 0.34125 0.7324 0.0
H1338 H 0.82649 0.32584 0.6764 0.0
H1339 H 0.80301 0.32776 0.62927 0.0
H1340 H 0.79471 0.38116 0.65844 0.0
H1341 H 0.81831 0.37961 0.70541 0.0
C1342 C 0.83997 0.34405 0.89198 0.0
C1343 C 0.83155 0.35913 0.90492 0.0
C1344 C 0.84501 0.34243 0.85431 0.0
C1345 C 0.84205 0.35593 0.82857 0.0
C1346 C 0.83348 0.37096 0.8411 0.0
C1347 C 0.82827 0.37256 0.87896 0.0
C1348 C 0.84742 0.3539 0.78839 0.0
C1349 C 0.83481 0.3556 0.76007 0.0
C1350 C 0.86444 0.34879 0.77821 0.0
C1351 C 0.8786 0.34757 0.8065 0.0
C1352 C 0.88247 0.3617 0.8302 0.0
C1353 C 0.89567 0.36039 0.85711 0.0
C1354 C 0.90518 0.34505 0.86045 0.0
C1355 C 0.90153 0.33101 0.83682 0.0
C1356 C 0.88833 0.33224 0.80987 0.0
C1357 C 0.85942 0.35036 0.60568 0.0
C1358 C 0.86559 0.33385 0.59546 0.0
C1359 C 0.85697 0.35471 0.64358 0.0
C1360 C 0.8603 0.34255 0.67215 0.0
C1361 C 0.86743 0.3264 0.66224 0.0
C1362 C 0.87011 0.32209 0.62417 0.0
C1363 C 0.85552 0.34641 0.71202 0.0
C1364 C 0.86821 0.345 0.74022 0.0
C1365 C 0.83856 0.35175 0.72215 0.0
C1366 C 0.82428 0.35266 0.69414 0.0
C1367 C 0.81974 0.33802 0.67258 0.0
C1368 C 0.8064 0.33904 0.64592 0.0
C1369 C 0.79741 0.35458 0.6408 0.0
C1370 C 0.8017 0.36913 0.6624 0.0
C1371 C 0.81505 0.36819 0.68906 0.0
H1372 H 0.78709 0.35535 0.62014 0.0
H1373 H 0.91539 0.34406 0.88132 0.0
H1374 H 0.64367 0.8606 0.90933 0.0
H1375 H 0.64735 0.86778 0.84244 0.0
H1376 H 0.63492 0.81507 0.81214 0.0
H1377 H 0.63087 0.80785 0.87918 0.0
H1378 H 0.6673 0.82787 0.78328 0.0
H1379 H 0.60747 0.84376 0.78852 0.0
H1380 H 0.58165 0.85868 0.81344 0.0
H1381 H 0.60533 0.90805 0.79137 0.0
H1382 H 0.63143 0.89341 0.76683 0.0
H1383 H 0.66194 0.83342 0.58648 0.0
H1384 H 0.65402 0.83034 0.65254 0.0
H1385 H 0.66888 0.88335 0.6735 0.0
H1386 H 0.67713 0.88663 0.60662 0.0
H1387 H 0.63573 0.87195 0.7077 0.0
H1388 H 0.69548 0.85614 0.70202 0.0
H1389 H 0.72114 0.84124 0.67628 0.0
H1390 H 0.69773 0.79186 0.69948 0.0
H1391 H 0.67178 0.80648 0.72485 0.0
C1392 C 0.64136 0.85062 0.88837 0.0
C1393 C 0.637 0.83365 0.89946 0.0
C1394 C 0.64345 0.85476 0.85019 0.0
C1395 C 0.64146 0.84195 0.82241 0.0
C1396 C 0.6365 0.82513 0.83323 0.0
C1397 C 0.63408 0.82106 0.87146 0.0
C1398 C 0.64595 0.84582 0.78254 0.0
C1399 C 0.66025 0.83733 0.76659 0.0
C1400 C 0.63712 0.85862 0.76132 0.0
C1401 C 0.6215 0.86748 0.77626 0.0
C1402 C 0.60726 0.8578 0.78937 0.0
C1403 C 0.59255 0.8662 0.80333 0.0
C1404 C 0.59187 0.8843 0.8041 0.0
C1405 C 0.60589 0.89403 0.79082 0.0
C1406 C 0.62064 0.88568 0.77686 0.0
C1407 C 0.66346 0.84455 0.60482 0.0
C1408 C 0.67023 0.86031 0.59107 0.0
C1409 C 0.65894 0.84271 0.64271 0.0
C1410 C 0.66096 0.85656 0.66789 0.0
C1411 C 0.66724 0.8725 0.65438 0.0
C1412 C 0.672 0.87433 0.61626 0.0
C1413 C 0.65697 0.85387 0.70845 0.0
C1414 C 0.64281 0.86257 0.72453 0.0
C1415 C 0.66597 0.8413 0.72995 0.0
C1416 C 0.68161 0.83241 0.71501 0.0
C1417 C 0.69573 0.8421 0.70134 0.0
C1418 C 0.71034 0.83371 0.68687 0.0
C1419 C 0.71104 0.81561 0.68615 0.0
C1420 C 0.69716 0.80588 0.70001 0.0
C1421 C 0.6825 0.81421 0.71448 0.0
H1422 H 0.72237 0.80914 0.67495 0.0
H1423 H 0.58047 0.89079 0.81489 0.0
H1424 H 0.88466 0.70101 0.63293 0.0
H1425 H 0.87442 0.69207 0.69566 0.0
H1426 H 0.83438 0.66115 0.64359 0.0
H1427 H 0.84485 0.66952 0.58122 0.0
H1428 H 0.84478 0.69531 0.73363 0.0
H1429 H 0.82738 0.62471 0.69267 0.0
H1430 H 0.83652 0.60233 0.64703 0.0
H1431 H 0.88716 0.62526 0.64099 0.0
H1432 H 0.8784 0.64763 0.68695 0.0
H1433 H 0.80042 0.62511 0.86107 0.0
H1434 H 0.80897 0.63661 0.79924 0.0
H1435 H 0.85053 0.66527 0.85174 0.0
H1436 H 0.84197 0.654 0.91352 0.0
H1437 H 0.83934 0.63252 0.76192 0.0
H1438 H 0.85723 0.7029 0.80237 0.0
H1439 H 0.84881 0.72504 0.84922 0.0
H1440 H 0.79818 0.70226 0.85796 0.0
H1441 H 0.80619 0.68017 0.81072 0.0
C1442 C 0.87365 0.69234 0.63496 0.0
C1443 C 0.86567 0.68582 0.6022 0.0
C1444 C 0.86779 0.68728 0.67077 0.0
C1445 C 0.85383 0.67569 0.67433 0.0
C1446 C 0.84542 0.66977 0.64158 0.0
C1447 C 0.85139 0.67464 0.6059 0.0
C1448 C 0.84824 0.66942 0.71212 0.0
C1449 C 0.8438 0.68159 0.73998 0.0
C1450 C 0.84665 0.65149 0.72022 0.0
C1451 C 0.85216 0.63794 0.69297 0.0
C1452 C 0.84048 0.62493 0.68171 0.0
C1453 C 0.8456 0.61226 0.65577 0.0
C1454 C 0.86239 0.61241 0.64102 0.0
C1455 C 0.87414 0.62519 0.65232 0.0
C1456 C 0.8691 0.63789 0.67829 0.0
C1457 C 0.81131 0.63395 0.85943 0.0
C1458 C 0.82051 0.63867 0.89211 0.0
C1459 C 0.81619 0.64047 0.82411 0.0
C1460 C 0.83028 0.65191 0.82094 0.0
C1461 C 0.83945 0.65668 0.85359 0.0
C1462 C 0.83458 0.65016 0.88886 0.0
C1463 C 0.83578 0.6584 0.78333 0.0
C1464 C 0.84026 0.64625 0.75552 0.0
C1465 C 0.8375 0.67632 0.77544 0.0
C1466 C 0.83239 0.68978 0.80327 0.0
C1467 C 0.84427 0.70267 0.81414 0.0
C1468 C 0.83957 0.7152 0.84078 0.0
C1469 C 0.82299 0.71502 0.85664 0.0
C1470 C 0.81104 0.70235 0.84575 0.0
C1471 C 0.81566 0.68981 0.81907 0.0
H1472 H 0.81939 0.72472 0.87731 0.0
H1473 H 0.86632 0.60259 0.62091 0.0
H1474 H 0.33734 0.8471 0.58406 0.0
H1475 H 0.34492 0.83669 0.64708 0.0
H1476 H 0.30933 0.87331 0.69659 0.0
H1477 H 0.30157 0.8838 0.63328 0.0
H1478 H 0.34209 0.87341 0.73026 0.0
H1479 H 0.29857 0.83214 0.69552 0.0
H1480 H 0.28451 0.81073 0.65384 0.0
H1481 H 0.32955 0.7782 0.65994 0.0
H1482 H 0.34402 0.79957 0.70112 0.0
H1483 H 0.34882 0.84088 0.91585 0.0
H1484 H 0.33718 0.84961 0.85462 0.0
H1485 H 0.36845 0.81073 0.79962 0.0
H1486 H 0.3799 0.80163 0.86118 0.0
H1487 H 0.3365 0.81185 0.76937 0.0
H1488 H 0.38076 0.85319 0.79982 0.0
H1489 H 0.39595 0.87474 0.83925 0.0
H1490 H 0.35069 0.90708 0.83926 0.0
H1491 H 0.33514 0.8856 0.80023 0.0
C1492 C 0.33103 0.85288 0.6083 0.0
C1493 C 0.31884 0.86626 0.60375 0.0
C1494 C 0.33533 0.84687 0.64429 0.0
C1495 C 0.32758 0.85414 0.67643 0.0
C1496 C 0.31541 0.86751 0.67206 0.0
C1497 C 0.31096 0.87344 0.63595 0.0
C1498 C 0.33273 0.84812 0.71458 0.0
C1499 C 0.34058 0.86002 0.73914 0.0
C1500 C 0.33121 0.83054 0.72554 0.0
C1501 C 0.32245 0.81754 0.70117 0.0
C1502 C 0.30554 0.82048 0.68775 0.0
C1503 C 0.29748 0.80834 0.66424 0.0
C1504 C 0.30614 0.79313 0.65418 0.0
C1505 C 0.32286 0.79 0.66772 0.0
C1506 C 0.33099 0.80212 0.69118 0.0
C1507 C 0.35319 0.83412 0.89077 0.0
C1508 C 0.36537 0.82064 0.89327 0.0
C1509 C 0.34655 0.83918 0.85576 0.0
C1510 C 0.35215 0.83101 0.82248 0.0
C1511 C 0.36399 0.81724 0.82495 0.0
C1512 C 0.37057 0.81209 0.86008 0.0
C1513 C 0.3459 0.83715 0.78511 0.0
C1514 C 0.33789 0.82526 0.76064 0.0
C1515 C 0.3474 0.85474 0.77404 0.0
C1516 C 0.35673 0.8677 0.79743 0.0
C1517 C 0.374 0.86483 0.80848 0.0
C1518 C 0.38268 0.87704 0.83071 0.0
C1519 C 0.37427 0.89225 0.84184 0.0
C1520 C 0.35718 0.89529 0.83067 0.0
C1521 C 0.34842 0.88311 0.80847 0.0
H1522 H 0.38102 0.90169 0.85905 0.0
H1523 H 0.29988 0.78375 0.63597 0.0
H1524 H 0.13347 0.29557 0.62818 0.0
H1525 H 0.14551 0.30361 0.68978 0.0
H1526 H 0.16139 0.35309 0.6444 0.0
H1527 H 0.14999 0.34483 0.58252 0.0
H1528 H 0.18571 0.34114 0.68857 0.0
H1529 H 0.12357 0.34754 0.69954 0.0
H1530 H 0.09322 0.33756 0.69633 0.0
H1531 H 0.10408 0.29793 0.77824 0.0
H1532 H 0.13455 0.30754 0.78161 0.0
H1533 H 0.19687 0.38721 0.86136 0.0
H1534 H 0.18869 0.37658 0.79867 0.0
H1535 H 0.17061 0.32876 0.84855 0.0
H1536 H 0.1778 0.33983 0.91128 0.0
H1537 H 0.148 0.3389 0.80196 0.0
H1538 H 0.21006 0.33327 0.79316 0.0
H1539 H 0.24031 0.34348 0.79659 0.0
H1540 H 0.22984 0.3816 0.71109 0.0
H1541 H 0.19946 0.37176 0.70747 0.0
C1542 C 0.13958 0.30813 0.63137 0.0
C1543 C 0.14068 0.31963 0.60067 0.0
C1544 C 0.1464 0.31275 0.66661 0.0
C1545 C 0.15408 0.3291 0.67196 0.0
C1546 C 0.1555 0.34042 0.64103 0.0
C1547 C 0.14893 0.33571 0.60571 0.0
C1548 C 0.16038 0.33461 0.70983 0.0
C1549 C 0.17743 0.34079 0.71334 0.0
C1550 C 0.14971 0.33383 0.74235 0.0
C1551 C 0.13136 0.32816 0.74056 0.0
C1552 C 0.1195 0.33663 0.7167 0.0
C1553 C 0.10228 0.33105 0.71487 0.0
C1554 C 0.09674 0.3171 0.73699 0.0
C1555 C 0.1084 0.30872 0.76108 0.0
C1556 C 0.12563 0.31424 0.76299 0.0
C1557 C 0.19133 0.37436 0.85877 0.0
C1558 C 0.18795 0.36434 0.89107 0.0
C1559 C 0.18674 0.36823 0.82292 0.0
C1560 C 0.17922 0.35172 0.81864 0.0
C1561 C 0.17633 0.34154 0.85098 0.0
C1562 C 0.1805 0.34785 0.88684 0.0
C1563 C 0.17342 0.3454 0.78092 0.0
C1564 C 0.1564 0.33912 0.77736 0.0
C1565 C 0.18413 0.34608 0.74842 0.0
C1566 C 0.20245 0.35185 0.75026 0.0
C1567 C 0.21419 0.34389 0.77523 0.0
C1568 C 0.23136 0.34961 0.77719 0.0
C1569 C 0.23698 0.3632 0.75413 0.0
C1570 C 0.22546 0.37107 0.72896 0.0
C1571 C 0.20827 0.36542 0.7269 0.0
H1572 H 0.25028 0.36762 0.75572 0.0
H1573 H 0.08341 0.31279 0.73552 0.0
H1574 H 0.62614 0.20666 0.86133 0.0
H1575 H 0.63755 0.19921 0.79876 0.0
H1576 H 0.66834 0.15847 0.84838 0.0
H1577 H 0.65706 0.16585 0.91089 0.0
H1578 H 0.6863 0.17682 0.79373 0.0
H1579 H 0.63095 0.14847 0.80813 0.0
H1580 H 0.59958 0.1473 0.82116 0.0
H1581 H 0.58991 0.18186 0.72833 0.0
H1582 H 0.62127 0.18343 0.71509 0.0
H1583 H 0.7022 0.12464 0.63088 0.0
H1584 H 0.69446 0.13622 0.69308 0.0
H1585 H 0.65967 0.1727 0.64015 0.0
H1586 H 0.66694 0.16083 0.57826 0.0
H1587 H 0.64411 0.15768 0.69645 0.0
H1588 H 0.69935 0.18505 0.67951 0.0
H1589 H 0.7307 0.18628 0.66638 0.0
H1590 H 0.74078 0.15417 0.76305 0.0
H1591 H 0.70945 0.1525 0.77646 0.0
C1592 C 0.63545 0.19622 0.85892 0.0
C1593 C 0.64061 0.18675 0.89091 0.0
C1594 C 0.64193 0.19197 0.8232 0.0
C1595 C 0.65365 0.17818 0.81896 0.0
C1596 C 0.6593 0.16915 0.85107 0.0
C1597 C 0.65278 0.17334 0.88672 0.0
C1598 C 0.65936 0.17256 0.78093 0.0
C1599 C 0.67712 0.17251 0.77248 0.0
C1600 C 0.64733 0.16723 0.75309 0.0
C1601 C 0.62846 0.16622 0.76089 0.0
C1602 C 0.62214 0.15593 0.79069 0.0
C1603 C 0.60436 0.15517 0.79808 0.0
C1604 C 0.59276 0.16454 0.77566 0.0
C1605 C 0.59892 0.17463 0.74572 0.0
C1606 C 0.61669 0.17546 0.73825 0.0
C1607 C 0.69302 0.13522 0.63256 0.0
C1608 C 0.68515 0.14181 0.59976 0.0
C1609 C 0.68866 0.14189 0.66808 0.0
C1610 C 0.67658 0.15545 0.67129 0.0
C1611 C 0.66899 0.16223 0.63841 0.0
C1612 C 0.67319 0.15545 0.60303 0.0
C1613 C 0.67112 0.16201 0.70891 0.0
C1614 C 0.65335 0.16215 0.71742 0.0
C1615 C 0.68317 0.16746 0.73668 0.0
C1616 C 0.70203 0.16852 0.72879 0.0
C1617 C 0.70823 0.17814 0.69781 0.0
C1618 C 0.726 0.17894 0.69034 0.0
C1619 C 0.73772 0.17029 0.71382 0.0
C1620 C 0.73169 0.16085 0.74487 0.0
C1621 C 0.71393 0.15999 0.75244 0.0
H1622 H 0.75147 0.17092 0.70798 0.0
H1623 H 0.579 0.16393 0.78142 0.0
H1624 H 0.85491 0.34501 0.41575 0.0
H1625 H 0.84353 0.35406 0.35444 0.0
H1626 H 0.86495 0.30816 0.3029 0.0
H1627 H 0.87648 0.29898 0.36443 0.0
H1628 H 0.8616 0.36111 0.28878 0.0
H1629 H 0.83581 0.29615 0.23159 0.0
H1630 H 0.82486 0.26824 0.25591 0.0
H1631 H 0.80692 0.29343 0.35682 0.0
H1632 H 0.8175 0.32153 0.33283 0.0
H1633 H 0.84578 0.3589 0.08951 0.0
H1634 H 0.85398 0.34884 0.15265 0.0
H1635 H 0.80343 0.36265 0.19476 0.0
H1636 H 0.79524 0.37324 0.13163 0.0
H1637 H 0.81957 0.32618 0.2146 0.0
H1638 H 0.82806 0.38862 0.21965 0.0
H1639 H 0.83937 0.41636 0.19527 0.0
H1640 H 0.89128 0.39649 0.20054 0.0
H1641 H 0.88023 0.36851 0.22441 0.0
C1642 C 0.85718 0.3368 0.39141 0.0
C1643 C 0.8666 0.32128 0.39486 0.0
C1644 C 0.85071 0.34202 0.3564 0.0
C1645 C 0.85334 0.33175 0.32422 0.0
C1646 C 0.86267 0.31619 0.32751 0.0
C1647 C 0.86928 0.311 0.36259 0.0
C1648 C 0.84652 0.33759 0.28719 0.0
C1649 C 0.85238 0.35347 0.27266 0.0
C1650 C 0.83445 0.32765 0.26621 0.0
C1651 C 0.82761 0.31091 0.28053 0.0
C1652 C 0.82944 0.29575 0.25887 0.0
C1653 C 0.82331 0.27989 0.27261 0.0
C1654 C 0.81525 0.27905 0.30794 0.0
C1655 C 0.81322 0.29408 0.32952 0.0
C1656 C 0.8193 0.30998 0.31587 0.0
C1657 C 0.83639 0.35977 0.11218 0.0
C1658 C 0.8199 0.36693 0.10579 0.0
C1659 C 0.84109 0.354 0.14814 0.0
C1660 C 0.82929 0.355 0.17814 0.0
C1661 C 0.81266 0.36175 0.17178 0.0
C1662 C 0.80806 0.36787 0.13588 0.0
C1663 C 0.83471 0.34962 0.21644 0.0
C1664 C 0.82871 0.3338 0.23097 0.0
C1665 C 0.84663 0.3596 0.23754 0.0
C1666 C 0.8533 0.37642 0.22341 0.0
C1667 C 0.84187 0.39011 0.21524 0.0
C1668 C 0.84824 0.40589 0.2016 0.0
C1669 C 0.86603 0.40817 0.19625 0.0
C1670 C 0.8775 0.39469 0.20464 0.0
C1671 C 0.87119 0.37888 0.21825 0.0
H1672 H 0.87094 0.4204 0.18569 0.0
H1673 H 0.81055 0.26675 0.31857 0.0
H1674 H 0.65777 0.8386 0.07815 0.0
H1675 H 0.66918 0.84729 0.13982 0.0
H1676 H 0.63571 0.81014 0.19442 0.0
H1677 H 0.62427 0.80129 0.13272 0.0
H1678 H 0.63406 0.84297 0.22629 0.0
H1679 H 0.67759 0.80198 0.18918 0.0
H1680 H 0.69948 0.78929 0.14666 0.0
H1681 H 0.72897 0.83648 0.15089 0.0
H1682 H 0.7071 0.84956 0.19299 0.0
H1683 H 0.66686 0.84676 0.41045 0.0
H1684 H 0.65908 0.83634 0.34771 0.0
H1685 H 0.69546 0.87207 0.29758 0.0
H1686 H 0.7036 0.88242 0.36083 0.0
H1687 H 0.69615 0.84054 0.26246 0.0
H1688 H 0.65296 0.88175 0.29853 0.0
H1689 H 0.631 0.89506 0.33998 0.0
H1690 H 0.6008 0.84831 0.3363 0.0
H1691 H 0.62272 0.83463 0.29524 0.0
C1692 C 0.65293 0.83218 0.10326 0.0
C1693 C 0.64012 0.81927 0.10065 0.0
C1694 C 0.65951 0.83712 0.13845 0.0
C1695 C 0.65335 0.82929 0.17163 0.0
C1696 C 0.64064 0.81632 0.16909 0.0
C1697 C 0.63416 0.81125 0.13387 0.0
C1698 C 0.65964 0.83516 0.20909 0.0
C1699 C 0.64759 0.8422 0.23444 0.0
C1700 C 0.67739 0.83467 0.2191 0.0
C1701 C 0.6906 0.82681 0.19393 0.0
C1702 C 0.68866 0.80971 0.18078 0.0
C1703 C 0.70108 0.80243 0.1568 0.0
C1704 C 0.71558 0.81209 0.146 0.0
C1705 C 0.71771 0.82902 0.15924 0.0
C1706 C 0.70531 0.83637 0.18318 0.0
C1707 C 0.67331 0.85235 0.38616 0.0
C1708 C 0.68575 0.86552 0.39054 0.0
C1709 C 0.6688 0.84641 0.35027 0.0
C1710 C 0.67645 0.85364 0.31793 0.0
C1711 C 0.68934 0.86637 0.32219 0.0
C1712 C 0.69394 0.8723 0.35827 0.0
C1713 C 0.67053 0.84819 0.27984 0.0
C1714 C 0.68262 0.8413 0.25431 0.0
C1715 C 0.65281 0.84891 0.26948 0.0
C1716 C 0.63957 0.85711 0.29409 0.0
C1717 C 0.64171 0.87426 0.3068 0.0
C1718 C 0.62926 0.88188 0.33019 0.0
C1719 C 0.61454 0.87252 0.34085 0.0
C1720 C 0.61222 0.85554 0.32806 0.0
C1721 C 0.62464 0.84785 0.3047 0.0
H1722 H 0.60491 0.87844 0.35895 0.0
H1723 H 0.72519 0.80643 0.12743 0.0
H1724 H 0.12948 0.70811 0.36931 0.0
H1725 H 0.14136 0.70067 0.30716 0.0
H1726 H 0.16294 0.65364 0.35353 0.0
H1727 H 0.15158 0.66123 0.41571 0.0
H1728 H 0.18536 0.66826 0.30689 0.0
H1729 H 0.12428 0.65404 0.30269 0.0
H1730 H 0.09304 0.66033 0.30819 0.0
H1731 H 0.09746 0.69942 0.22224 0.0
H1732 H 0.12877 0.69349 0.21656 0.0
H1733 H 0.19822 0.61977 0.13794 0.0
H1734 H 0.1901 0.63083 0.20035 0.0
H1735 H 0.16607 0.67531 0.14789 0.0
H1736 H 0.17331 0.6638 0.0857 0.0
H1737 H 0.14548 0.66343 0.19744 0.0
H1738 H 0.20636 0.67674 0.1989 0.0
H1739 H 0.23756 0.67036 0.19312 0.0
H1740 H 0.23382 0.63336 0.28349 0.0
H1741 H 0.20255 0.63936 0.2895 0.0
C1742 C 0.13682 0.69623 0.36621 0.0
C1743 C 0.13951 0.68519 0.39724 0.0
C1744 C 0.14356 0.69197 0.33071 0.0
C1745 C 0.15283 0.67646 0.32558 0.0
C1746 C 0.15583 0.66565 0.3568 0.0
C1747 C 0.14927 0.66998 0.39229 0.0
C1748 C 0.15904 0.67117 0.28763 0.0
C1749 C 0.17664 0.66707 0.28297 0.0
C1750 C 0.14773 0.66998 0.25626 0.0
C1751 C 0.12888 0.67344 0.25948 0.0
C1752 C 0.1186 0.66405 0.28514 0.0
C1753 C 0.10088 0.66754 0.28826 0.0
C1754 C 0.09328 0.6803 0.26565 0.0
C1755 C 0.10337 0.68956 0.23978 0.0
C1756 C 0.12109 0.68613 0.23658 0.0
C1757 C 0.19136 0.63199 0.13988 0.0
C1758 C 0.18636 0.64092 0.10708 0.0
C1759 C 0.1868 0.63836 0.17553 0.0
C1760 C 0.17764 0.65405 0.17895 0.0
C1761 C 0.17309 0.66317 0.14607 0.0
C1762 C 0.17727 0.6566 0.11051 0.0
C1763 C 0.17187 0.66051 0.21647 0.0
C1764 C 0.15431 0.66477 0.22114 0.0
C1765 C 0.18324 0.66189 0.24777 0.0
C1766 C 0.20209 0.65841 0.24445 0.0
C1767 C 0.21218 0.66717 0.2174 0.0
C1768 C 0.22988 0.66364 0.21409 0.0
C1769 C 0.23766 0.65144 0.23787 0.0
C1770 C 0.22778 0.6428 0.26507 0.0
C1771 C 0.21007 0.64628 0.26848 0.0
H1772 H 0.25137 0.64871 0.23525 0.0
H1773 H 0.07956 0.68299 0.26812 0.0
H1774 H 0.33849 0.15693 0.41666 0.0
H1775 H 0.34686 0.16817 0.35465 0.0
H1776 H 0.30984 0.13415 0.3013 0.0
H1777 H 0.30132 0.12287 0.36335 0.0
H1778 H 0.34255 0.13282 0.26868 0.0
H1779 H 0.30118 0.17582 0.3063 0.0
H1780 H 0.28838 0.19752 0.3491 0.0
H1781 H 0.33502 0.22778 0.34373 0.0
H1782 H 0.34825 0.20608 0.30141 0.0
H1783 H 0.34621 0.16602 0.08429 0.0
H1784 H 0.33576 0.15786 0.14684 0.0
H1785 H 0.37096 0.19446 0.19795 0.0
H1786 H 0.38134 0.20297 0.13502 0.0
H1787 H 0.33933 0.19489 0.23233 0.0
H1788 H 0.38103 0.15206 0.19645 0.0
H1789 H 0.39454 0.13023 0.15495 0.0
H1790 H 0.34807 0.09962 0.1584 0.0
H1791 H 0.33419 0.12141 0.1995 0.0
C1792 C 0.33205 0.15192 0.39176 0.0
C1793 C 0.31926 0.13901 0.39481 0.0
C1794 C 0.3368 0.1584 0.35638 0.0
C1795 C 0.3289 0.15205 0.32346 0.0
C1796 C 0.31606 0.13922 0.32643 0.0
C1797 C 0.31119 0.13283 0.36185 0.0
C1798 C 0.3345 0.15834 0.28585 0.0
C1799 C 0.34161 0.14634 0.26048 0.0
C1800 C 0.33374 0.17608 0.27576 0.0
C1801 C 0.32577 0.18923 0.30098 0.0
C1802 C 0.30877 0.18702 0.3145 0.0
C1803 C 0.30142 0.19934 0.33863 0.0
C1804 C 0.31089 0.214 0.34919 0.0
C1805 C 0.32771 0.2164 0.33557 0.0
C1806 C 0.33514 0.2041 0.31149 0.0
C1807 C 0.35169 0.17242 0.10878 0.0
C1808 C 0.3647 0.18505 0.10479 0.0
C1809 C 0.34573 0.1677 0.14454 0.0
C1810 C 0.35278 0.17534 0.17707 0.0
C1811 C 0.3654 0.18836 0.17318 0.0
C1812 C 0.37134 0.19316 0.13728 0.0
C1813 C 0.34727 0.16933 0.21502 0.0
C1814 C 0.34025 0.18137 0.24051 0.0
C1815 C 0.34819 0.15162 0.22538 0.0
C1816 C 0.35652 0.13845 0.20076 0.0
C1817 C 0.37365 0.14074 0.18812 0.0
C1818 C 0.38138 0.12836 0.16471 0.0
C1819 C 0.37215 0.11357 0.15397 0.0
C1820 C 0.35519 0.1111 0.1667 0.0
C1821 C 0.34739 0.12345 0.19008 0.0
H1822 H 0.37816 0.104 0.13585 0.0
H1823 H 0.30517 0.22352 0.36788 0.0
loop_
_geom_bond_atom_site_label_1
_geom_bond_atom_site_label_2
_geom_bond_distance
_geom_bond_site_symmetry_2
_ccdc_geom_bond_type
Co0 O1 2.216 . S
Co0 O2 2.090 1_556 S
Co0 O4 2.004 . S
Co0 O10 2.021 1_556 S
Co0 O12 2.137 . S
Co0 O13 2.244 . S
O1 Co0 2.216 . S
O1 C8 1.246 . S
O2 Co0 2.090 1_554 S
O2 C8 1.261 1_554 S
C3 O12 1.247 . S
C3 O13 1.272 . S
O4 Co0 2.004 . S
O4 C9 1.259 . S
Co5 O6 2.060 1_556 S
Co5 O11 2.034 1_556 S
Co5 O13 2.147 . S
O6 Co5 2.060 1_554 S
O6 C9 1.235 1_554 S
C7 O10 1.238 . S
C7 O11 1.241 . S
C8 O1 1.246 . S
C8 O2 1.261 1_556 S
C9 O4 1.259 . S
C9 O6 1.235 1_556 S
O10 Co0 2.021 1_554 S
O10 C7 1.238 . S
O11 Co5 2.034 1_554 S
O11 C7 1.241 . S
O12 Co0 2.137 . S
O12 C3 1.247 . S
O13 Co0 2.244 . S
O13 C3 1.272 . S
O13 Co5 2.147 . S
Co14 O15 2.216 . S
Co14 O16 2.090 1_556 S
Co14 O18 2.004 . S
Co14 O24 2.021 1_556 S
Co14 O26 2.137 . S
Co14 O27 2.244 . S
O15 Co14 2.216 . S
O15 C22 1.246 . S
O16 Co14 2.090 1_554 S
O16 C22 1.261 1_554 S
C17 O26 1.247 . S
C17 O27 1.272 . S
O18 Co14 2.004 . S
O18 C23 1.259 . S
Co19 O20 2.060 1_556 S
Co19 O25 2.034 1_556 S
Co19 O27 2.147 . S
O20 Co19 2.060 1_554 S
O20 C23 1.235 1_554 S
C21 O24 1.238 . S
C21 O25 1.241 . S
C22 O15 1.246 . S
C22 O16 1.261 1_556 S
C23 O18 1.259 . S
C23 O20 1.235 1_556 S
O24 Co14 2.021 1_554 S
O24 C21 1.238 . S
O25 Co19 2.034 1_554 S
O25 C21 1.241 . S
O26 Co14 2.137 . S
O26 C17 1.247 . S
O27 Co14 2.244 . S
O27 C17 1.272 . S
O27 Co19 2.147 . S
Co28 O29 2.216 . S
Co28 O30 2.090 1_556 S
Co28 O32 2.004 . S
Co28 O38 2.021 1_556 S
Co28 O40 2.137 . S
Co28 O41 2.244 . S
O29 Co28 2.216 . S
O29 C36 1.246 . S
O30 Co28 2.090 1_554 S
O30 C36 1.261 1_554 S
C31 O40 1.247 . S
C31 O41 1.272 . S
O32 Co28 2.004 . S
O32 C37 1.259 . S
Co33 O34 2.060 1_556 S
Co33 O39 2.034 1_556 S
Co33 O41 2.147 . S
O34 Co33 2.060 1_554 S
O34 C37 1.235 1_554 S
C35 O38 1.238 . S
C35 O39 1.241 . S
C36 O29 1.246 . S
C36 O30 1.261 1_556 S
C37 O32 1.259 . S
C37 O34 1.235 1_556 S
O38 Co28 2.021 1_554 S
O38 C35 1.238 . S
O39 Co33 2.034 1_554 S
O39 C35 1.241 . S
O40 Co28 2.137 . S
O40 C31 1.247 . S
O41 Co28 2.244 . S
O41 C31 1.272 . S
O41 Co33 2.147 . S
Co42 O43 2.216 . S
Co42 O44 2.090 1_556 S
Co42 O46 2.004 . S
Co42 O52 2.021 1_556 S
Co42 O54 2.137 . S
Co42 O55 2.244 . S
O43 Co42 2.216 . S
O43 C50 1.246 . S
O44 Co42 2.090 1_554 S
O44 C50 1.261 1_554 S
C45 O54 1.247 . S
C45 O55 1.272 . S
O46 Co42 2.004 . S
O46 C51 1.259 . S
Co47 O48 2.060 1_556 S
Co47 O53 2.034 1_556 S
Co47 O55 2.147 . S
O48 Co47 2.060 1_554 S
O48 C51 1.235 1_554 S
C49 O52 1.238 . S
C49 O53 1.241 . S
C50 O43 1.246 . S
C50 O44 1.261 1_556 S
C51 O46 1.259 . S
C51 O48 1.235 1_556 S
O52 Co42 2.021 1_554 S
O52 C49 1.238 . S
O53 Co47 2.034 1_554 S
O53 C49 1.241 . S
O54 Co42 2.137 . S
O54 C45 1.247 . S
O55 Co42 2.244 . S
O55 C45 1.272 . S
O55 Co47 2.147 . S
Co56 O57 2.216 . S
Co56 O58 2.090 1_554 S
Co56 O60 2.004 . S
Co56 O66 2.021 1_554 S
Co56 O68 2.137 . S
Co56 O69 2.244 . S
O57 Co56 2.216 . S
O57 C64 1.247 . S
O58 Co56 2.090 1_556 S
O58 C64 1.261 1_556 S
C59 O68 1.247 . S
C59 O69 1.272 . S
O60 Co56 2.004 . S
O60 C65 1.259 . S
Co61 O62 2.060 1_554 S
Co61 O67 2.028 1_554 S
Co61 O69 2.151 . S
O62 Co61 2.060 1_556 S
O62 C65 1.235 1_556 S
C63 O66 1.238 . S
C63 O67 1.241 . S
C64 O57 1.247 . S
C64 O58 1.261 1_554 S
C65 O60 1.259 . S
C65 O62 1.235 1_554 S
O66 Co56 2.021 1_556 S
O66 C63 1.238 . S
O67 Co61 2.028 1_556 S
O67 C63 1.241 . S
O68 Co56 2.137 . S
O68 C59 1.247 . S
O69 Co56 2.244 . S
O69 C59 1.272 . S
O69 Co61 2.151 . S
Co70 O71 2.216 . S
Co70 O72 2.090 1_554 S
Co70 O74 2.004 . S
Co70 O80 2.021 1_554 S
Co70 O82 2.137 . S
Co70 O83 2.244 . S
O71 Co70 2.216 . S
O71 C78 1.247 . S
O72 Co70 2.090 1_556 S
O72 C78 1.261 1_556 S
C73 O82 1.247 . S
C73 O83 1.272 . S
O74 Co70 2.004 . S
O74 C79 1.259 . S
Co75 O76 2.060 1_554 S
Co75 O81 2.028 1_554 S
Co75 O83 2.151 . S
O76 Co75 2.060 1_556 S
O76 C79 1.235 1_556 S
C77 O80 1.238 . S
C77 O81 1.241 . S
C78 O71 1.247 . S
C78 O72 1.261 1_554 S
C79 O74 1.259 . S
C79 O76 1.235 1_554 S
O80 Co70 2.021 1_556 S
O80 C77 1.238 . S
O81 Co75 2.028 1_556 S
O81 C77 1.241 . S
O82 Co70 2.137 . S
O82 C73 1.247 . S
O83 Co70 2.244 . S
O83 C73 1.272 . S
O83 Co75 2.151 . S
Co84 O85 2.216 . S
Co84 O86 2.090 1_554 S
Co84 O88 2.004 . S
Co84 O94 2.021 1_554 S
Co84 O96 2.137 . S
Co84 O97 2.244 . S
O85 Co84 2.216 . S
O85 C92 1.247 . S
O86 Co84 2.090 1_556 S
O86 C92 1.261 1_556 S
C87 O96 1.247 . S
C87 O97 1.272 . S
O88 Co84 2.004 . S
O88 C93 1.259 . S
Co89 O90 2.060 1_554 S
Co89 O95 2.028 1_554 S
Co89 O97 2.151 . S
O90 Co89 2.060 1_556 S
O90 C93 1.235 1_556 S
C91 O94 1.238 . S
C91 O95 1.241 . S
C92 O85 1.247 . S
C92 O86 1.261 1_554 S
C93 O88 1.259 . S
C93 O90 1.235 1_554 S
O94 Co84 2.021 1_556 S
O94 C91 1.238 . S
O95 Co89 2.028 1_556 S
O95 C91 1.241 . S
O96 Co84 2.137 . S
O96 C87 1.247 . S
O97 Co84 2.244 . S
O97 C87 1.272 . S
O97 Co89 2.151 . S
Co98 O99 2.216 . S
Co98 O100 2.090 1_554 S
Co98 O102 2.004 . S
Co98 O108 2.021 1_554 S
Co98 O110 2.137 . S
Co98 O111 2.244 . S
O99 Co98 2.216 . S
O99 C106 1.247 . S
O100 Co98 2.090 1_556 S
O100 C106 1.261 1_556 S
C101 O110 1.247 . S
C101 O111 1.272 . S
O102 Co98 2.004 . S
O102 C107 1.259 . S
Co103 O104 2.060 1_554 S
Co103 O109 2.028 1_554 S
Co103 O111 2.151 . S
O104 Co103 2.060 1_556 S
O104 C107 1.235 1_556 S
C105 O108 1.238 . S
C105 O109 1.241 . S
C106 O99 1.247 . S
C106 O100 1.261 1_554 S
C107 O102 1.259 . S
C107 O104 1.235 1_554 S
O108 Co98 2.021 1_556 S
O108 C105 1.238 . S
O109 Co103 2.028 1_556 S
O109 C105 1.241 . S
O110 Co98 2.137 . S
O110 C101 1.247 . S
O111 Co98 2.244 . S
O111 C101 1.272 . S
O111 Co103 2.151 . S
Co112 O113 2.216 . S
Co112 O114 2.091 . S
Co112 O116 2.004 . S
Co112 O122 2.021 . S
Co112 O124 2.137 . S
Co112 O125 2.244 . S
O113 Co112 2.216 . S
O113 C120 1.247 . S
O114 Co112 2.091 . S
O114 C120 1.261 . S
C115 O124 1.247 . S
C115 O125 1.272 . S
O116 Co112 2.004 . S
O116 C121 1.259 . S
Co117 O118 2.061 . S
Co117 O123 2.052 . S
Co117 O125 2.135 . S
O118 Co117 2.061 . S
O118 C121 1.235 . S
C119 O122 1.238 . S
C119 O123 1.241 . S
C120 O113 1.247 . S
C120 O114 1.261 . S
C121 O116 1.259 . S
C121 O118 1.235 . S
O122 Co112 2.021 . S
O122 C119 1.238 . S
O123 Co117 2.052 . S
O123 C119 1.241 . S
O124 Co112 2.137 . S
O124 C115 1.247 . S
O125 Co112 2.244 . S
O125 C115 1.272 . S
O125 Co117 2.135 . S
Co126 O127 2.216 . S
Co126 O128 2.091 . S
Co126 O130 2.004 . S
Co126 O136 2.021 . S
Co126 O138 2.137 . S
Co126 O139 2.244 . S
O127 Co126 2.216 . S
O127 C134 1.247 . S
O128 Co126 2.091 . S
O128 C134 1.261 . S
C129 O138 1.247 . S
C129 O139 1.272 . S
O130 Co126 2.004 . S
O130 C135 1.259 . S
Co131 O132 2.061 . S
Co131 O137 2.052 . S
Co131 O139 2.135 . S
O132 Co131 2.061 . S
O132 C135 1.235 . S
C133 O136 1.238 . S
C133 O137 1.241 . S
C134 O127 1.247 . S
C134 O128 1.261 . S
C135 O130 1.259 . S
C135 O132 1.235 . S
O136 Co126 2.021 . S
O136 C133 1.238 . S
O137 Co131 2.052 . S
O137 C133 1.241 . S
O138 Co126 2.137 . S
O138 C129 1.247 . S
O139 Co126 2.244 . S
O139 C129 1.272 . S
O139 Co131 2.135 . S
Co140 O141 2.216 . S
Co140 O142 2.091 . S
Co140 O144 2.004 . S
Co140 O150 2.021 . S
Co140 O152 2.137 . S
Co140 O153 2.244 . S
O141 Co140 2.216 . S
O141 C148 1.247 . S
O142 Co140 2.091 . S
O142 C148 1.261 . S
C143 O152 1.247 . S
C143 O153 1.272 . S
O144 Co140 2.004 . S
O144 C149 1.259 . S
Co145 O146 2.061 . S
Co145 O151 2.052 . S
Co145 O153 2.135 . S
O146 Co145 2.061 . S
O146 C149 1.235 . S
C147 O150 1.238 . S
C147 O151 1.241 . S
C148 O141 1.247 . S
C148 O142 1.261 . S
C149 O144 1.259 . S
C149 O146 1.235 . S
O150 Co140 2.021 . S
O150 C147 1.238 . S
O151 Co145 2.052 . S
O151 C147 1.241 . S
O152 Co140 2.137 . S
O152 C143 1.247 . S
O153 Co140 2.244 . S
O153 C143 1.272 . S
O153 Co145 2.135 . S
Co154 O155 2.216 . S
Co154 O156 2.091 . S
Co154 O158 2.004 . S
Co154 O164 2.021 . S
Co154 O166 2.137 . S
Co154 O167 2.244 . S
O155 Co154 2.216 . S
O155 C162 1.247 . S
O156 Co154 2.091 . S
O156 C162 1.261 . S
C157 O166 1.247 . S
C157 O167 1.272 . S
O158 Co154 2.004 . S
O158 C163 1.259 . S
Co159 O160 2.061 . S
Co159 O165 2.052 . S
Co159 O167 2.135 . S
O160 Co159 2.061 . S
O160 C163 1.235 . S
C161 O164 1.238 . S
C161 O165 1.241 . S
C162 O155 1.247 . S
C162 O156 1.261 . S
C163 O158 1.259 . S
C163 O160 1.235 . S
O164 Co154 2.021 . S
O164 C161 1.238 . S
O165 Co159 2.052 . S
O165 C161 1.241 . S
O166 Co154 2.137 . S
O166 C157 1.247 . S
O167 Co154 2.244 . S
O167 C157 1.272 . S
O167 Co159 2.135 . S
Co168 O169 2.216 . S
Co168 O170 2.091 . S
Co168 O172 2.004 . S
Co168 O178 2.021 . S
Co168 O180 2.137 . S
Co168 O181 2.244 . S
O169 Co168 2.216 . S
O169 C176 1.247 . S
O170 Co168 2.091 . S
O170 C176 1.261 . S
C171 O180 1.247 . S
C171 O181 1.272 . S
O172 Co168 2.004 . S
O172 C177 1.259 . S
Co173 O174 2.061 . S
Co173 O179 2.052 . S
Co173 O181 2.135 . S
O174 Co173 2.061 . S
O174 C177 1.235 . S
C175 O178 1.238 . S
C175 O179 1.241 . S
C176 O169 1.247 . S
C176 O170 1.261 . S
C177 O172 1.259 . S
C177 O174 1.235 . S
O178 Co168 2.021 . S
O178 C175 1.238 . S
O179 Co173 2.052 . S
O179 C175 1.241 . S
O180 Co168 2.137 . S
O180 C171 1.247 . S
O181 Co168 2.244 . S
O181 C171 1.272 . S
O181 Co173 2.135 . S
Co182 O183 2.216 . S
Co182 O184 2.091 . S
Co182 O186 2.004 . S
Co182 O192 2.021 . S
Co182 O194 2.137 . S
Co182 O195 2.244 . S
O183 Co182 2.216 . S
O183 C190 1.247 . S
O184 Co182 2.091 . S
O184 C190 1.261 . S
C185 O194 1.247 . S
C185 O195 1.272 . S
O186 Co182 2.004 . S
O186 C191 1.259 . S
Co187 O188 2.061 . S
Co187 O193 2.052 . S
Co187 O195 2.135 . S
O188 Co187 2.061 . S
O188 C191 1.235 . S
C189 O192 1.238 . S
C189 O193 1.241 . S
C190 O183 1.247 . S
C190 O184 1.261 . S
C191 O186 1.259 . S
C191 O188 1.235 . S
O192 Co182 2.021 . S
O192 C189 1.238 . S
O193 Co187 2.052 . S
O193 C189 1.241 . S
O194 Co182 2.137 . S
O194 C185 1.247 . S
O195 Co182 2.244 . S
O195 C185 1.272 . S
O195 Co187 2.135 . S
Co196 O197 2.216 . S
Co196 O198 2.091 . S
Co196 O200 2.004 . S
Co196 O206 2.021 . S
Co196 O208 2.137 . S
Co196 O209 2.244 . S
O197 Co196 2.216 . S
O197 C204 1.247 . S
O198 Co196 2.091 . S
O198 C204 1.261 . S
C199 O208 1.247 . S
C199 O209 1.272 . S
O200 Co196 2.004 . S
O200 C205 1.259 . S
Co201 O202 2.061 . S
Co201 O207 2.052 . S
Co201 O209 2.135 . S
O202 Co201 2.061 . S
O202 C205 1.235 . S
C203 O206 1.238 . S
C203 O207 1.241 . S
C204 O197 1.247 . S
C204 O198 1.261 . S
C205 O200 1.259 . S
C205 O202 1.235 . S
O206 Co196 2.021 . S
O206 C203 1.238 . S
O207 Co201 2.052 . S
O207 C203 1.241 . S
O208 Co196 2.137 . S
O208 C199 1.247 . S
O209 Co196 2.244 . S
O209 C199 1.272 . S
O209 Co201 2.135 . S
Co210 O211 2.216 . S
Co210 O212 2.091 . S
Co210 O214 2.004 . S
Co210 O220 2.021 . S
Co210 O222 2.137 . S
Co210 O223 2.244 . S
O211 Co210 2.216 . S
O211 C218 1.247 . S
O212 Co210 2.091 . S
O212 C218 1.261 . S
C213 O222 1.247 . S
C213 O223 1.272 . S
O214 Co210 2.004 . S
O214 C219 1.259 . S
Co215 O216 2.061 . S
Co215 O221 2.052 . S
Co215 O223 2.135 . S
O216 Co215 2.061 . S
O216 C219 1.235 . S
C217 O220 1.238 . S
C217 O221 1.241 . S
C218 O211 1.247 . S
C218 O212 1.261 . S
C219 O214 1.259 . S
C219 O216 1.235 . S
O220 Co210 2.021 . S
O220 C217 1.238 . S
O221 Co215 2.052 . S
O221 C217 1.241 . S
O222 Co210 2.137 . S
O222 C213 1.247 . S
O223 Co210 2.244 . S
O223 C213 1.272 . S
O223 Co215 2.135 . S
H224 C242 0.951 . S
H225 C244 0.951 . S
H226 C246 0.950 . S
H227 C247 0.950 . S
H228 C249 0.950 . S
H229 C252 0.950 1_554 S
H230 C253 0.950 . S
H231 C255 0.950 . S
H232 C256 0.950 . S
H233 C257 0.951 . S
H234 C259 0.951 . S
H235 C261 0.950 . S
H236 C262 0.950 . S
H237 C264 0.950 . S
H238 C267 0.950 1_556 S
H239 C268 0.950 . S
H240 C270 0.950 . S
H241 C271 0.950 . S
C242 H224 0.951 . S
C242 C243 1.366 . S
C242 C244 1.388 . S
C243 C242 1.366 . S
C243 C247 1.385 1_556 S
C244 H225 0.951 . S
C244 C242 1.388 . S
C244 C245 1.371 . S
C245 C244 1.371 . S
C245 C246 1.408 1_556 S
C245 C248 1.498 1_556 S
C246 H226 0.950 . S
C246 C245 1.408 1_554 S
C246 C247 1.374 . S
C247 H227 0.950 . S
C247 C243 1.385 1_554 S
C247 C246 1.374 . S
C248 C245 1.498 1_554 S
C248 C249 1.373 . S
C248 C250 1.389 1_554 S
C249 H228 0.950 . S
C249 C248 1.373 . S
C249 C265 1.377 . S
C250 C248 1.389 1_556 S
C250 C251 1.524 . S
C250 C264 1.377 . S
C251 C250 1.524 . S
C251 C252 1.397 . S
C251 C256 1.363 . S
C252 H229 0.950 1_556 S
C252 C251 1.397 . S
C252 C253 1.334 . S
C253 H230 0.950 . S
C253 C252 1.334 . S
C253 C254 1.287 . S
C254 C253 1.287 . S
C254 C255 1.524 . S
C254 H273 0.913 . S
C255 H231 0.950 . S
C255 C254 1.524 . S
C255 C256 1.415 . S
C256 H232 0.950 . S
C256 C251 1.363 . S
C256 C255 1.415 . S
C257 H233 0.951 . S
C257 C258 1.366 . S
C257 C259 1.388 . S
C258 C257 1.366 . S
C258 C262 1.385 1_554 S
C259 H234 0.951 . S
C259 C257 1.388 . S
C259 C260 1.377 . S
C260 C259 1.377 . S
C260 C261 1.402 1_554 S
C260 C263 1.498 1_554 S
C261 H235 0.950 . S
C261 C260 1.402 1_556 S
C261 C262 1.374 . S
C262 H236 0.950 . S
C262 C258 1.385 1_556 S
C262 C261 1.374 . S
C263 C260 1.498 1_556 S
C263 C264 1.373 . S
C263 C265 1.389 1_556 S
C264 H237 0.950 . S
C264 C250 1.377 . S
C264 C263 1.373 . S
C265 C249 1.377 . S
C265 C263 1.389 1_554 S
C265 C266 1.524 . S
C266 C265 1.524 . S
C266 C267 1.397 . S
C266 C271 1.363 . S
C267 H238 0.950 1_554 S
C267 C266 1.397 . S
C267 C268 1.334 . S
C268 H239 0.950 . S
C268 C267 1.334 . S
C268 C269 1.287 . S
C269 C268 1.287 . S
C269 C270 1.524 . S
C269 H272 0.999 . S
C270 H240 0.950 . S
C270 C269 1.524 . S
C270 C271 1.415 . S
C271 H241 0.950 . S
C271 C266 1.363 . S
C271 C270 1.415 . S
H272 C269 0.999 . S
H273 C254 0.913 . S
H274 C292 0.951 . S
H275 C294 0.951 . S
H276 C296 0.950 . S
H277 C297 0.950 . S
H278 C299 0.950 . S
H279 C302 0.950 1_556 S
H280 C303 0.950 . S
H281 C305 0.950 . S
H282 C306 0.950 . S
H283 C307 0.951 . S
H284 C309 0.951 . S
H285 C311 0.950 . S
H286 C312 0.950 . S
H287 C314 0.950 . S
H288 C317 0.950 1_554 S
H289 C318 0.950 . S
H290 C320 0.950 . S
H291 C321 0.950 . S
C292 H274 0.951 . S
C292 C293 1.366 1_554 S
C292 C294 1.388 . S
C293 C292 1.366 1_556 S
C293 C297 1.385 . S
C294 H275 0.951 . S
C294 C292 1.388 . S
C294 C295 1.342 1_554 S
C295 C294 1.342 1_556 S
C295 C296 1.438 . S
C295 C298 1.499 . S
C296 H276 0.950 . S
C296 C295 1.438 . S
C296 C297 1.374 . S
C297 H277 0.950 . S
C297 C293 1.385 . S
C297 C296 1.374 . S
C298 C295 1.499 . S
C298 C299 1.373 . S
C298 C300 1.389 1_556 S
C299 H278 0.950 . S
C299 C298 1.373 . S
C299 C315 1.377 . S
C300 C298 1.389 1_554 S
C300 C301 1.524 . S
C300 C314 1.377 . S
C301 C300 1.524 . S
C301 C302 1.397 . S
C301 C306 1.363 . S
C302 H279 0.950 1_554 S
C302 C301 1.397 . S
C302 C303 1.334 . S
C303 H280 0.950 . S
C303 C302 1.334 . S
C303 C304 1.287 . S
C304 C303 1.287 . S
C304 C305 1.524 . S
C304 H323 0.913 . S
C305 H281 0.950 . S
C305 C304 1.524 . S
C305 C306 1.415 . S
C306 H282 0.950 . S
C306 C301 1.363 . S
C306 C305 1.415 . S
C307 H283 0.951 . S
C307 C308 1.366 1_556 S
C307 C309 1.388 . S
C308 C307 1.366 1_554 S
C308 C312 1.385 . S
C309 H284 0.951 . S
C309 C307 1.388 . S
C309 C310 1.366 1_556 S
C310 C309 1.366 1_554 S
C310 C311 1.414 . S
C310 C313 1.499 . S
C311 H285 0.950 . S
C311 C310 1.414 . S
C311 C312 1.374 . S
C312 H286 0.950 . S
C312 C308 1.385 . S
C312 C311 1.374 . S
C313 C310 1.499 . S
C313 C314 1.373 . S
C313 C315 1.389 1_554 S
C314 H287 0.950 . S
C314 C300 1.377 . S
C314 C313 1.373 . S
C315 C299 1.377 . S
C315 C313 1.389 1_556 S
C315 C316 1.524 . S
C316 C315 1.524 . S
C316 C317 1.397 . S
C316 C321 1.363 . S
C317 H288 0.950 1_556 S
C317 C316 1.397 . S
C317 C318 1.334 . S
C318 H289 0.950 . S
C318 C317 1.334 . S
C318 C319 1.287 . S
C319 C318 1.287 . S
C319 C320 1.524 . S
C319 H322 0.999 . S
C320 H290 0.950 . S
C320 C319 1.524 . S
C320 C321 1.415 . S
C321 H291 0.950 . S
C321 C316 1.363 . S
C321 C320 1.415 . S
H322 C319 0.999 . S
H323 C304 0.913 . S
H324 C342 0.951 . S
H325 C344 0.951 . S
H326 C346 0.950 . S
H327 C347 0.950 . S
H328 C349 0.950 . S
H329 C352 0.950 . S
H330 C353 0.950 . S
H331 C355 0.950 . S
H332 C356 0.950 . S
H333 C357 0.951 . S
H334 C359 0.951 . S
H335 C361 0.950 . S
H336 C362 0.950 . S
H337 C364 0.950 . S
H338 C367 0.950 . S
H339 C368 0.950 . S
H340 C370 0.950 . S
H341 C371 0.950 . S
C342 H324 0.951 . S
C342 C343 1.366 1_554 S
C342 C344 1.388 . S
C343 C342 1.366 1_556 S
C343 C347 1.385 . S
C344 H325 0.951 . S
C344 C342 1.388 . S
C344 C345 1.366 1_554 S
C345 C344 1.366 1_556 S
C345 C346 1.414 . S
C345 C348 1.499 . S
C346 H326 0.950 . S
C346 C345 1.414 . S
C346 C347 1.374 . S
C347 H327 0.950 . S
C347 C343 1.385 . S
C347 C346 1.374 . S
C348 C345 1.499 . S
C348 C349 1.373 1_556 S
C348 C350 1.389 . S
C349 H328 0.950 . S
C349 C348 1.373 1_554 S
C349 C365 1.377 . S
C350 C348 1.389 . S
C350 C351 1.524 . S
C350 C364 1.377 . S
C351 C350 1.524 . S
C351 C352 1.397 . S
C351 C356 1.363 . S
C352 H329 0.950 . S
C352 C351 1.397 . S
C352 C353 1.334 . S
C353 H330 0.950 . S
C353 C352 1.334 . S
C353 C354 1.287 . S
C354 C353 1.287 . S
C354 C355 1.524 . S
C354 H373 0.913 . S
C355 H331 0.950 . S
C355 C354 1.524 . S
C355 C356 1.415 . S
C356 H332 0.950 . S
C356 C351 1.363 . S
C356 C355 1.415 . S
C357 H333 0.951 . S
C357 C358 1.366 1_556 S
C357 C359 1.388 . S
C358 C357 1.366 1_554 S
C358 C362 1.385 . S
C359 H334 0.951 . S
C359 C357 1.388 . S
C359 C360 1.366 1_556 S
C360 C359 1.366 1_554 S
C360 C361 1.414 . S
C360 C363 1.499 . S
C361 H335 0.950 . S
C361 C360 1.414 . S
C361 C362 1.374 . S
C362 H336 0.950 . S
C362 C358 1.385 . S
C362 C361 1.374 . S
C363 C360 1.499 . S
C363 C364 1.373 1_554 S
C363 C365 1.389 . S
C364 H337 0.950 . S
C364 C350 1.377 . S
C364 C363 1.373 1_556 S
C365 C349 1.377 . S
C365 C363 1.389 . S
C365 C366 1.524 . S
C366 C365 1.524 . S
C366 C367 1.397 . S
C366 C371 1.363 . S
C367 H338 0.950 . S
C367 C366 1.397 . S
C367 C368 1.334 . S
C368 H339 0.950 . S
C368 C367 1.334 . S
C368 C369 1.287 . S
C369 C368 1.287 . S
C369 C370 1.524 . S
C369 H372 0.999 . S
C370 H340 0.950 . S
C370 C369 1.524 . S
C370 C371 1.415 . S
C371 H341 0.950 . S
C371 C366 1.363 . S
C371 C370 1.415 . S
H372 C369 0.999 . S
H373 C354 0.913 . S
H374 C392 0.951 . S
H375 C394 0.951 . S
H376 C396 0.950 . S
H377 C397 0.950 . S
H378 C399 0.950 . S
H379 C402 0.950 . S
H380 C403 0.950 . S
H381 C405 0.950 . S
H382 C406 0.950 . S
H383 C407 0.951 . S
H384 C409 0.951 . S
H385 C411 0.950 . S
H386 C412 0.950 . S
H387 C414 0.950 . S
H388 C417 0.950 . S
H389 C418 0.950 . S
H390 C420 0.950 . S
H391 C421 0.950 . S
C392 H374 0.951 . S
C392 C393 1.366 1_554 S
C392 C394 1.388 . S
C393 C392 1.366 1_556 S
C393 C397 1.385 . S
C394 H375 0.951 . S
C394 C392 1.388 . S
C394 C395 1.378 . S
C395 C394 1.378 . S
C395 C396 1.401 1_554 S
C395 C398 1.499 . S
C396 H376 0.950 . S
C396 C395 1.401 1_556 S
C396 C397 1.374 . S
C397 H377 0.950 . S
C397 C393 1.385 . S
C397 C396 1.374 . S
C398 C395 1.499 . S
C398 C399 1.369 1_554 S
C398 C400 1.393 . S
C399 H378 0.950 . S
C399 C398 1.369 1_556 S
C399 C415 1.377 . S
C400 C398 1.393 . S
C400 C401 1.524 . S
C400 C414 1.377 . S
C401 C400 1.524 . S
C401 C402 1.397 . S
C401 C406 1.363 . S
C402 H379 0.950 . S
C402 C401 1.397 . S
C402 C403 1.334 . S
C403 H380 0.950 . S
C403 C402 1.334 . S
C403 C404 1.287 . S
C404 C403 1.287 . S
C404 C405 1.524 . S
C404 H423 0.913 . S
C405 H381 0.950 . S
C405 C404 1.524 . S
C405 C406 1.415 . S
C406 H382 0.950 . S
C406 C401 1.363 . S
C406 C405 1.415 . S
C407 H383 0.951 . S
C407 C408 1.366 1_556 S
C407 C409 1.388 . S
C408 C407 1.366 1_554 S
C408 C412 1.385 . S
C409 H384 0.951 . S
C409 C407 1.388 . S
C409 C410 1.374 . S
C410 C409 1.374 . S
C410 C411 1.405 1_556 S
C410 C413 1.499 . S
C411 H385 0.950 . S
C411 C410 1.405 1_554 S
C411 C412 1.374 . S
C412 H386 0.950 . S
C412 C408 1.385 . S
C412 C411 1.374 . S
C413 C410 1.499 . S
C413 C414 1.375 1_556 S
C413 C415 1.388 . S
C414 H387 0.950 . S
C414 C400 1.377 . S
C414 C413 1.375 1_554 S
C415 C399 1.377 . S
C415 C413 1.388 . S
C415 C416 1.524 . S
C416 C415 1.524 . S
C416 C417 1.397 . S
C416 C421 1.363 . S
C417 H388 0.950 . S
C417 C416 1.397 . S
C417 C418 1.334 . S
C418 H389 0.950 . S
C418 C417 1.334 . S
C418 C419 1.287 . S
C419 C418 1.287 . S
C419 C420 1.524 . S
C419 H422 0.999 . S
C420 H390 0.950 . S
C420 C419 1.524 . S
C420 C421 1.415 . S
C421 H391 0.950 . S
C421 C416 1.363 . S
C421 C420 1.415 . S
H422 C419 0.999 . S
H423 C404 0.913 . S
H424 C442 0.951 . S
H425 C444 0.951 . S
H426 C446 0.950 . S
H427 C447 0.950 . S
H428 C449 0.950 . S
H429 C452 0.950 . S
H430 C453 0.950 . S
H431 C455 0.950 . S
H432 C456 0.950 . S
H433 C457 0.951 . S
H434 C459 0.951 . S
H435 C461 0.950 . S
H436 C462 0.950 . S
H437 C464 0.950 . S
H438 C467 0.950 . S
H439 C468 0.950 . S
H440 C470 0.950 . S
H441 C471 0.950 . S
C442 H424 0.951 . S
C442 C443 1.366 . S
C442 C444 1.388 . S
C443 C442 1.366 . S
C443 C447 1.385 . S
C444 H425 0.951 . S
C444 C442 1.388 . S
C444 C445 1.366 . S
C445 C444 1.366 . S
C445 C446 1.414 . S
C445 C448 1.499 . S
C446 H426 0.950 . S
C446 C445 1.414 . S
C446 C447 1.374 . S
C447 H427 0.950 . S
C447 C443 1.385 . S
C447 C446 1.374 . S
C448 C445 1.499 . S
C448 C449 1.373 . S
C448 C450 1.389 . S
C449 H428 0.950 . S
C449 C448 1.373 . S
C449 C465 1.377 1_545 S
C450 C448 1.389 . S
C450 C451 1.524 . S
C450 C464 1.377 1_545 S
C451 C450 1.524 . S
C451 C452 1.397 . S
C451 C456 1.363 . S
C452 H429 0.950 . S
C452 C451 1.397 . S
C452 C453 1.334 . S
C453 H430 0.950 . S
C453 C452 1.334 . S
C453 C454 1.287 . S
C454 C453 1.287 . S
C454 C455 1.524 . S
C454 H473 0.913 . S
C455 H431 0.950 . S
C455 C454 1.524 . S
C455 C456 1.415 . S
C456 H432 0.950 . S
C456 C451 1.363 . S
C456 C455 1.415 . S
C457 H433 0.951 . S
C457 C458 1.366 . S
C457 C459 1.388 . S
C458 C457 1.366 . S
C458 C462 1.385 . S
C459 H434 0.951 . S
C459 C457 1.388 . S
C459 C460 1.366 . S
C460 C459 1.366 . S
C460 C461 1.414 . S
C460 C463 1.499 . S
C461 H435 0.950 . S
C461 C460 1.414 . S
C461 C462 1.374 . S
C462 H436 0.950 . S
C462 C458 1.385 . S
C462 C461 1.374 . S
C463 C460 1.499 . S
C463 C464 1.373 . S
C463 C465 1.389 . S
C464 H437 0.950 . S
C464 C450 1.377 1_565 S
C464 C463 1.373 . S
C465 C449 1.377 1_565 S
C465 C463 1.389 . S
C465 C466 1.524 . S
C466 C465 1.524 . S
C466 C467 1.397 . S
C466 C471 1.363 . S
C467 H438 0.950 . S
C467 C466 1.397 . S
C467 C468 1.334 . S
C468 H439 0.950 . S
C468 C467 1.334 . S
C468 C469 1.287 . S
C469 C468 1.287 . S
C469 C470 1.524 . S
C469 H472 0.999 . S
C470 H440 0.950 . S
C470 C469 1.524 . S
C470 C471 1.415 . S
C471 H441 0.950 . S
C471 C466 1.363 . S
C471 C470 1.415 . S
H472 C469 0.999 . S
H473 C454 0.913 . S
H474 C492 0.951 . S
H475 C494 0.951 . S
H476 C496 0.950 . S
H477 C497 0.950 . S
H478 C499 0.950 . S
H479 C502 0.950 . S
H480 C503 0.950 . S
H481 C505 0.950 . S
H482 C506 0.950 . S
H483 C507 0.951 . S
H484 C509 0.951 . S
H485 C511 0.950 . S
H486 C512 0.950 . S
H487 C514 0.950 . S
H488 C517 0.950 . S
H489 C518 0.950 . S
H490 C520 0.950 . S
H491 C521 0.950 . S
C492 H474 0.951 . S
C492 C493 1.366 . S
C492 C494 1.388 . S
C493 C492 1.366 . S
C493 C497 1.385 . S
C494 H475 0.951 . S
C494 C492 1.388 . S
C494 C495 1.366 . S
C495 C494 1.366 . S
C495 C496 1.414 . S
C495 C498 1.499 . S
C496 H476 0.950 . S
C496 C495 1.414 . S
C496 C497 1.374 . S
C497 H477 0.950 . S
C497 C493 1.385 . S
C497 C496 1.374 . S
C498 C495 1.499 . S
C498 C499 1.373 . S
C498 C500 1.389 . S
C499 H478 0.950 . S
C499 C498 1.373 . S
C499 C515 1.377 1_655 S
C500 C498 1.389 . S
C500 C501 1.524 . S
C500 C514 1.377 1_655 S
C501 C500 1.524 . S
C501 C502 1.397 . S
C501 C506 1.363 . S
C502 H479 0.950 . S
C502 C501 1.397 . S
C502 C503 1.334 . S
C503 H480 0.950 . S
C503 C502 1.334 . S
C503 C504 1.287 . S
C504 C503 1.287 . S
C504 C505 1.524 . S
C504 H523 0.913 . S
C505 H481 0.950 . S
C505 C504 1.524 . S
C505 C506 1.415 . S
C506 H482 0.950 . S
C506 C501 1.363 . S
C506 C505 1.415 . S
C507 H483 0.951 . S
C507 C508 1.366 . S
C507 C509 1.388 . S
C508 C507 1.366 . S
C508 C512 1.385 . S
C509 H484 0.951 . S
C509 C507 1.388 . S
C509 C510 1.366 . S
C510 C509 1.366 . S
C510 C511 1.414 . S
C510 C513 1.499 . S
C511 H485 0.950 . S
C511 C510 1.414 . S
C511 C512 1.374 . S
C512 H486 0.950 . S
C512 C508 1.385 . S
C512 C511 1.374 . S
C513 C510 1.499 . S
C513 C514 1.373 . S
C513 C515 1.389 . S
C514 H487 0.950 . S
C514 C500 1.377 1_455 S
C514 C513 1.373 . S
C515 C499 1.377 1_455 S
C515 C513 1.389 . S
C515 C516 1.524 . S
C516 C515 1.524 . S
C516 C517 1.397 . S
C516 C521 1.363 . S
C517 H488 0.950 . S
C517 C516 1.397 . S
C517 C518 1.334 . S
C518 H489 0.950 . S
C518 C517 1.334 . S
C518 C519 1.287 . S
C519 C518 1.287 . S
C519 C520 1.524 . S
C519 H522 0.999 . S
C520 H490 0.950 . S
C520 C519 1.524 . S
C520 C521 1.415 . S
C521 H491 0.950 . S
C521 C516 1.363 . S
C521 C520 1.415 . S
H522 C519 0.999 . S
H523 C504 0.913 . S
H524 C542 0.951 . S
H525 C544 0.951 . S
H526 C546 0.950 . S
H527 C547 0.950 . S
H528 C549 0.950 . S
H529 C552 0.950 . S
H530 C553 0.950 . S
H531 C555 0.950 . S
H532 C556 0.950 . S
H533 C557 0.951 . S
H534 C559 0.951 . S
H535 C561 0.950 . S
H536 C562 0.950 . S
H537 C564 0.950 . S
H538 C567 0.950 . S
H539 C568 0.950 . S
H540 C570 0.950 . S
H541 C571 0.950 . S
C542 H524 0.951 . S
C542 C543 1.366 . S
C542 C544 1.388 . S
C543 C542 1.366 . S
C543 C547 1.385 . S
C544 H525 0.951 . S
C544 C542 1.388 . S
C544 C545 1.366 . S
C545 C544 1.366 . S
C545 C546 1.414 . S
C545 C548 1.499 . S
C546 H526 0.950 . S
C546 C545 1.414 . S
C546 C547 1.374 . S
C547 H527 0.950 . S
C547 C543 1.385 . S
C547 C546 1.374 . S
C548 C545 1.499 . S
C548 C549 1.373 . S
C548 C550 1.389 . S
C549 H528 0.950 . S
C549 C548 1.373 . S
C549 C565 1.377 1_545 S
C550 C548 1.389 . S
C550 C551 1.524 . S
C550 C564 1.377 1_545 S
C551 C550 1.524 . S
C551 C552 1.397 . S
C551 C556 1.363 . S
C552 H529 0.950 . S
C552 C551 1.397 . S
C552 C553 1.334 . S
C553 H530 0.950 . S
C553 C552 1.334 . S
C553 C554 1.287 . S
C554 C553 1.287 . S
C554 C555 1.524 . S
C554 H573 0.913 . S
C555 H531 0.950 . S
C555 C554 1.524 . S
C555 C556 1.415 . S
C556 H532 0.950 . S
C556 C551 1.363 . S
C556 C555 1.415 . S
C557 H533 0.951 . S
C557 C558 1.366 . S
C557 C559 1.388 . S
C558 C557 1.366 . S
C558 C562 1.385 . S
C559 H534 0.951 . S
C559 C557 1.388 . S
C559 C560 1.366 . S
C560 C559 1.366 . S
C560 C561 1.414 . S
C560 C563 1.499 . S
C561 H535 0.950 . S
C561 C560 1.414 . S
C561 C562 1.374 . S
C562 H536 0.950 . S
C562 C558 1.385 . S
C562 C561 1.374 . S
C563 C560 1.499 . S
C563 C564 1.373 . S
C563 C565 1.389 . S
C564 H537 0.950 . S
C564 C550 1.377 1_565 S
C564 C563 1.373 . S
C565 C549 1.377 1_565 S
C565 C563 1.389 . S
C565 C566 1.524 . S
C566 C565 1.524 . S
C566 C567 1.397 . S
C566 C571 1.363 . S
C567 H538 0.950 . S
C567 C566 1.397 . S
C567 C568 1.334 . S
C568 H539 0.950 . S
C568 C567 1.334 . S
C568 C569 1.287 . S
C569 C568 1.287 . S
C569 C570 1.524 . S
C569 H572 0.999 . S
C570 H540 0.950 . S
C570 C569 1.524 . S
C570 C571 1.415 . S
C571 H541 0.950 . S
C571 C566 1.363 . S
C571 C570 1.415 . S
H572 C569 0.999 . S
H573 C554 0.913 . S
H574 C592 0.951 . S
H575 C594 0.951 . S
H576 C596 0.950 . S
H577 C597 0.950 . S
H578 C599 0.950 . S
H579 C602 0.950 . S
H580 C603 0.950 . S
H581 C605 0.950 . S
H582 C606 0.950 . S
H583 C607 0.951 . S
H584 C609 0.951 . S
H585 C611 0.950 . S
H586 C612 0.950 . S
H587 C614 0.950 . S
H588 C617 0.950 . S
H589 C618 0.950 . S
H590 C620 0.950 . S
H591 C621 0.950 . S
C592 H574 0.951 . S
C592 C593 1.366 . S
C592 C594 1.388 . S
C593 C592 1.366 . S
C593 C597 1.385 . S
C594 H575 0.951 . S
C594 C592 1.388 . S
C594 C595 1.366 . S
C595 C594 1.366 . S
C595 C596 1.414 . S
C595 C598 1.499 . S
C596 H576 0.950 . S
C596 C595 1.414 . S
C596 C597 1.374 . S
C597 H577 0.950 . S
C597 C593 1.385 . S
C597 C596 1.374 . S
C598 C595 1.499 . S
C598 C599 1.373 . S
C598 C600 1.389 . S
C599 H578 0.950 . S
C599 C598 1.373 . S
C599 C615 1.377 1_455 S
C600 C598 1.389 . S
C600 C601 1.524 . S
C600 C614 1.377 1_455 S
C601 C600 1.524 . S
C601 C602 1.397 . S
C601 C606 1.363 . S
C602 H579 0.950 . S
C602 C601 1.397 . S
C602 C603 1.334 . S
C603 H580 0.950 . S
C603 C602 1.334 . S
C603 C604 1.287 . S
C604 C603 1.287 . S
C604 C605 1.524 . S
C604 H623 0.913 . S
C605 H581 0.950 . S
C605 C604 1.524 . S
C605 C606 1.415 . S
C606 H582 0.950 . S
C606 C601 1.363 . S
C606 C605 1.415 . S
C607 H583 0.951 . S
C607 C608 1.366 . S
C607 C609 1.388 . S
C608 C607 1.366 . S
C608 C612 1.385 . S
C609 H584 0.951 . S
C609 C607 1.388 . S
C609 C610 1.366 . S
C610 C609 1.366 . S
C610 C611 1.414 . S
C610 C613 1.499 . S
C611 H585 0.950 . S
C611 C610 1.414 . S
C611 C612 1.374 . S
C612 H586 0.950 . S
C612 C608 1.385 . S
C612 C611 1.374 . S
C613 C610 1.499 . S
C613 C614 1.373 . S
C613 C615 1.389 . S
C614 H587 0.950 . S
C614 C600 1.377 1_655 S
C614 C613 1.373 . S
C615 C599 1.377 1_655 S
C615 C613 1.389 . S
C615 C616 1.524 . S
C616 C615 1.524 . S
C616 C617 1.397 . S
C616 C621 1.363 . S
C617 H588 0.950 . S
C617 C616 1.397 . S
C617 C618 1.334 . S
C618 H589 0.950 . S
C618 C617 1.334 . S
C618 C619 1.287 . S
C619 C618 1.287 . S
C619 C620 1.524 . S
C619 H622 0.999 . S
C620 H590 0.950 . S
C620 C619 1.524 . S
C620 C621 1.415 . S
C621 H591 0.950 . S
C621 C616 1.363 . S
C621 C620 1.415 . S
H622 C619 0.999 . S
H623 C604 0.913 . S
H624 C642 0.951 . S
H625 C644 0.951 . S
H626 C646 0.950 . S
H627 C647 0.950 . S
H628 C649 0.950 . S
H629 C652 0.950 . S
H630 C653 0.950 . S
H631 C655 0.950 . S
H632 C656 0.950 . S
H633 C657 0.951 . S
H634 C659 0.951 . S
H635 C661 0.950 . S
H636 C662 0.950 . S
H637 C664 0.950 . S
H638 C667 0.950 . S
H639 C668 0.950 . S
H640 C670 0.950 . S
H641 C671 0.950 . S
C642 H624 0.951 . S
C642 C643 1.344 1_554 S
C642 C644 1.388 . S
C643 C642 1.344 1_556 S
C643 C647 1.406 . S
C644 H625 0.951 . S
C644 C642 1.388 . S
C644 C645 1.372 . S
C645 C644 1.372 . S
C645 C646 1.407 1_554 S
C645 C648 1.498 1_554 S
C646 H626 0.950 . S
C646 C645 1.407 1_556 S
C646 C647 1.374 . S
C647 H627 0.950 . S
C647 C643 1.406 . S
C647 C646 1.374 . S
C648 C645 1.498 1_556 S
C648 C649 1.381 . S
C648 C650 1.381 1_556 S
C649 H628 0.950 . S
C649 C648 1.381 . S
C649 C665 1.377 . S
C650 C648 1.381 1_554 S
C650 C651 1.524 . S
C650 C664 1.377 . S
C651 C650 1.524 . S
C651 C652 1.397 . S
C651 C656 1.363 . S
C652 H629 0.950 . S
C652 C651 1.397 . S
C652 C653 1.334 . S
C653 H630 0.950 . S
C653 C652 1.334 . S
C653 C654 1.287 . S
C654 C653 1.287 . S
C654 C655 1.524 . S
C654 H673 0.913 . S
C655 H631 0.950 . S
C655 C654 1.524 . S
C655 C656 1.415 . S
C656 H632 0.950 . S
C656 C651 1.363 . S
C656 C655 1.415 . S
C657 H633 0.951 . S
C657 C658 1.366 1_556 S
C657 C659 1.388 . S
C658 C657 1.366 1_554 S
C658 C662 1.385 . S
C659 H634 0.951 . S
C659 C657 1.388 . S
C659 C660 1.367 . S
C660 C659 1.367 . S
C660 C661 1.413 1_556 S
C660 C663 1.498 1_556 S
C661 H635 0.950 . S
C661 C660 1.413 1_554 S
C661 C662 1.374 . S
C662 H636 0.950 . S
C662 C658 1.385 . S
C662 C661 1.374 . S
C663 C660 1.498 1_554 S
C663 C664 1.387 . S
C663 C665 1.376 1_554 S
C664 H637 0.950 . S
C664 C650 1.377 . S
C664 C663 1.387 . S
C665 C649 1.377 . S
C665 C663 1.376 1_556 S
C665 C666 1.524 . S
C666 C665 1.524 . S
C666 C667 1.397 . S
C666 C671 1.363 . S
C667 H638 0.950 . S
C667 C666 1.397 . S
C667 C668 1.334 . S
C668 H639 0.950 . S
C668 C667 1.334 . S
C668 C669 1.287 . S
C669 C668 1.287 . S
C669 C670 1.524 . S
C669 H672 0.999 . S
C670 H640 0.950 . S
C670 C669 1.524 . S
C670 C671 1.415 . S
C671 H641 0.950 . S
C671 C666 1.363 . S
C671 C670 1.415 . S
H672 C669 0.999 . S
H673 C654 0.913 . S
H674 C692 0.951 . S
H675 C694 0.951 . S
H676 C696 0.950 . S
H677 C697 0.950 . S
H678 C699 0.950 . S
H679 C702 0.950 1_556 S
H680 C703 0.950 . S
H681 C705 0.950 . S
H682 C706 0.950 . S
H683 C707 0.951 . S
H684 C709 0.951 . S
H685 C711 0.950 . S
H686 C712 0.950 . S
H687 C714 0.950 . S
H688 C717 0.950 1_554 S
H689 C718 0.950 . S
H690 C720 0.950 . S
H691 C721 0.950 . S
C692 H674 0.951 . S
C692 C693 1.366 . S
C692 C694 1.388 . S
C693 C692 1.366 . S
C693 C697 1.385 1_554 S
C694 H675 0.951 . S
C694 C692 1.388 . S
C694 C695 1.367 . S
C695 C694 1.367 . S
C695 C696 1.412 1_554 S
C695 C698 1.499 1_554 S
C696 H676 0.950 . S
C696 C695 1.412 1_556 S
C696 C697 1.374 . S
C697 H677 0.950 . S
C697 C693 1.385 1_556 S
C697 C696 1.374 . S
C698 C695 1.499 1_556 S
C698 C699 1.373 . S
C698 C700 1.389 1_556 S
C699 H678 0.950 . S
C699 C698 1.373 . S
C699 C715 1.377 . S
C700 C698 1.389 1_554 S
C700 C701 1.524 . S
C700 C714 1.377 . S
C701 C700 1.524 . S
C701 C702 1.397 . S
C701 C706 1.363 . S
C702 H679 0.950 1_554 S
C702 C701 1.397 . S
C702 C703 1.334 . S
C703 H680 0.950 . S
C703 C702 1.334 . S
C703 C704 1.287 . S
C704 C703 1.287 . S
C704 C705 1.524 . S
C704 H723 0.913 . S
C705 H681 0.950 . S
C705 C704 1.524 . S
C705 C706 1.415 . S
C706 H682 0.950 . S
C706 C701 1.363 . S
C706 C705 1.415 . S
C707 H683 0.951 . S
C707 C708 1.388 . S
C707 C709 1.388 . S
C708 C707 1.388 . S
C708 C712 1.362 1_556 S
C709 H684 0.951 . S
C709 C707 1.388 . S
C709 C710 1.367 1_556 S
C710 C709 1.367 1_554 S
C710 C711 1.412 . S
C710 C713 1.499 . S
C711 H685 0.950 . S
C711 C710 1.412 . S
C711 C712 1.374 . S
C712 H686 0.950 . S
C712 C708 1.362 1_554 S
C712 C711 1.374 . S
C713 C710 1.499 . S
C713 C714 1.373 . S
C713 C715 1.389 1_554 S
C714 H687 0.950 . S
C714 C700 1.377 . S
C714 C713 1.373 . S
C715 C699 1.377 . S
C715 C713 1.389 1_556 S
C715 C716 1.524 . S
C716 C715 1.524 . S
C716 C717 1.397 . S
C716 C721 1.363 . S
C717 H688 0.950 1_556 S
C717 C716 1.397 . S
C717 C718 1.334 . S
C718 H689 0.950 . S
C718 C717 1.334 . S
C718 C719 1.287 . S
C719 C718 1.287 . S
C719 C720 1.524 . S
C719 H722 0.999 . S
C720 H690 0.950 . S
C720 C719 1.524 . S
C720 C721 1.415 . S
C721 H691 0.950 . S
C721 C716 1.363 . S
C721 C720 1.415 . S
H722 C719 0.999 . S
H723 C704 0.913 . S
H724 C742 0.951 . S
H725 C744 0.951 . S
H726 C746 0.950 . S
H727 C747 0.950 . S
H728 C749 0.950 . S
H729 C752 0.950 . S
H730 C753 0.950 . S
H731 C755 0.950 . S
H732 C756 0.950 . S
H733 C757 0.951 . S
H734 C759 0.951 . S
H735 C761 0.950 . S
H736 C762 0.950 . S
H737 C764 0.950 . S
H738 C767 0.950 . S
H739 C768 0.950 . S
H740 C770 0.950 . S
H741 C771 0.950 . S
C742 H724 0.951 . S
C742 C743 1.374 . S
C742 C744 1.388 . S
C743 C742 1.374 . S
C743 C747 1.376 1_556 S
C744 H725 0.951 . S
C744 C742 1.388 . S
C744 C745 1.366 1_556 S
C745 C744 1.366 1_554 S
C745 C746 1.414 . S
C745 C748 1.499 . S
C746 H726 0.950 . S
C746 C745 1.414 . S
C746 C747 1.374 . S
C747 H727 0.950 . S
C747 C743 1.376 1_554 S
C747 C746 1.374 . S
C748 C745 1.499 . S
C748 C749 1.373 1_554 S
C748 C750 1.389 . S
C749 H728 0.950 . S
C749 C748 1.373 1_556 S
C749 C765 1.377 . S
C750 C748 1.389 . S
C750 C751 1.524 . S
C750 C764 1.377 . S
C751 C750 1.524 . S
C751 C752 1.397 . S
C751 C756 1.363 . S
C752 H729 0.950 . S
C752 C751 1.397 . S
C752 C753 1.334 . S
C753 H730 0.950 . S
C753 C752 1.334 . S
C753 C754 1.287 . S
C754 C753 1.287 . S
C754 C755 1.524 . S
C754 H773 0.913 . S
C755 H731 0.950 . S
C755 C754 1.524 . S
C755 C756 1.415 . S
C756 H732 0.950 . S
C756 C751 1.363 . S
C756 C755 1.415 . S
C757 H733 0.951 . S
C757 C758 1.366 . S
C757 C759 1.388 . S
C758 C757 1.366 . S
C758 C762 1.385 1_554 S
C759 H734 0.951 . S
C759 C757 1.388 . S
C759 C760 1.366 1_554 S
C760 C759 1.366 1_556 S
C760 C761 1.414 . S
C760 C763 1.499 . S
C761 H735 0.950 . S
C761 C760 1.414 . S
C761 C762 1.374 . S
C762 H736 0.950 . S
C762 C758 1.385 1_556 S
C762 C761 1.374 . S
C763 C760 1.499 . S
C763 C764 1.373 1_556 S
C763 C765 1.389 . S
C764 H737 0.950 . S
C764 C750 1.377 . S
C764 C763 1.373 1_554 S
C765 C749 1.377 . S
C765 C763 1.389 . S
C765 C766 1.524 . S
C766 C765 1.524 . S
C766 C767 1.397 . S
C766 C771 1.363 . S
C767 H738 0.950 . S
C767 C766 1.397 . S
C767 C768 1.334 . S
C768 H739 0.950 . S
C768 C767 1.334 . S
C768 C769 1.287 . S
C769 C768 1.287 . S
C769 C770 1.524 . S
C769 H772 0.999 . S
C770 H740 0.950 . S
C770 C769 1.524 . S
C770 C771 1.415 . S
C771 H741 0.950 . S
C771 C766 1.363 . S
C771 C770 1.415 . S
H772 C769 0.999 . S
H773 C754 0.913 . S
H774 C792 0.951 . S
H775 C794 0.951 . S
H776 C796 0.950 . S
H777 C797 0.950 . S
H778 C799 0.950 . S
H779 C802 0.950 . S
H780 C803 0.950 . S
H781 C805 0.950 . S
H782 C806 0.950 . S
H783 C807 0.951 . S
H784 C809 0.951 . S
H785 C811 0.950 . S
H786 C812 0.950 . S
H787 C814 0.950 . S
H788 C817 0.950 . S
H789 C818 0.950 . S
H790 C820 0.950 . S
H791 C821 0.950 . S
C792 H774 0.951 . S
C792 C793 1.366 . S
C792 C794 1.388 . S
C793 C792 1.366 . S
C793 C797 1.385 1_554 S
C794 H775 0.951 . S
C794 C792 1.388 . S
C794 C795 1.366 1_554 S
C795 C794 1.366 1_556 S
C795 C796 1.414 . S
C795 C798 1.499 . S
C796 H776 0.950 . S
C796 C795 1.414 . S
C796 C797 1.374 . S
C797 H777 0.950 . S
C797 C793 1.385 1_556 S
C797 C796 1.374 . S
C798 C795 1.499 . S
C798 C799 1.373 1_556 S
C798 C800 1.389 . S
C799 H778 0.950 . S
C799 C798 1.373 1_554 S
C799 C815 1.377 . S
C800 C798 1.389 . S
C800 C801 1.524 . S
C800 C814 1.377 . S
C801 C800 1.524 . S
C801 C802 1.397 . S
C801 C806 1.363 . S
C802 H779 0.950 . S
C802 C801 1.397 . S
C802 C803 1.334 . S
C803 H780 0.950 . S
C803 C802 1.334 . S
C803 C804 1.287 . S
C804 C803 1.287 . S
C804 C805 1.524 . S
C804 H823 0.913 . S
C805 H781 0.950 . S
C805 C804 1.524 . S
C805 C806 1.415 . S
C806 H782 0.950 . S
C806 C801 1.363 . S
C806 C805 1.415 . S
C807 H783 0.951 . S
C807 C808 1.376 . S
C807 C809 1.388 . S
C808 C807 1.376 . S
C808 C812 1.374 1_556 S
C809 H784 0.951 . S
C809 C807 1.388 . S
C809 C810 1.366 1_556 S
C810 C809 1.366 1_554 S
C810 C811 1.414 . S
C810 C813 1.499 . S
C811 H785 0.950 . S
C811 C810 1.414 . S
C811 C812 1.374 . S
C812 H786 0.950 . S
C812 C808 1.374 1_554 S
C812 C811 1.374 . S
C813 C810 1.499 . S
C813 C814 1.373 1_554 S
C813 C815 1.389 . S
C814 H787 0.950 . S
C814 C800 1.377 . S
C814 C813 1.373 1_556 S
C815 C799 1.377 . S
C815 C813 1.389 . S
C815 C816 1.524 . S
C816 C815 1.524 . S
C816 C817 1.397 . S
C816 C821 1.363 . S
C817 H788 0.950 . S
C817 C816 1.397 . S
C817 C818 1.334 . S
C818 H789 0.950 . S
C818 C817 1.334 . S
C818 C819 1.287 . S
C819 C818 1.287 . S
C819 C820 1.524 . S
C819 H822 0.999 . S
C820 H790 0.950 . S
C820 C819 1.524 . S
C820 C821 1.415 . S
C821 H791 0.950 . S
C821 C816 1.363 . S
C821 C820 1.415 . S
H822 C819 0.999 . S
H823 C804 0.913 . S
H824 C842 0.951 . S
H825 C844 0.951 . S
H826 C846 0.950 . S
H827 C847 0.950 . S
H828 C849 0.950 . S
H829 C852 0.950 . S
H830 C853 0.950 . S
H831 C855 0.950 . S
H832 C856 0.950 . S
H833 C857 0.951 . S
H834 C859 0.951 . S
H835 C861 0.950 . S
H836 C862 0.950 . S
H837 C864 0.950 . S
H838 C867 0.950 . S
H839 C868 0.950 . S
H840 C870 0.950 . S
H841 C871 0.950 . S
C842 H824 0.951 . S
C842 C843 1.366 . S
C842 C844 1.388 . S
C843 C842 1.366 . S
C843 C847 1.385 . S
C844 H825 0.951 . S
C844 C842 1.388 . S
C844 C845 1.366 . S
C845 C844 1.366 . S
C845 C846 1.414 . S
C845 C848 1.499 . S
C846 H826 0.950 . S
C846 C845 1.414 . S
C846 C847 1.374 . S
C847 H827 0.950 . S
C847 C843 1.385 . S
C847 C846 1.374 . S
C848 C845 1.499 . S
C848 C849 1.373 . S
C848 C850 1.389 . S
C849 H828 0.950 . S
C849 C848 1.373 . S
C849 C865 1.377 . S
C850 C848 1.389 . S
C850 C851 1.524 . S
C850 C864 1.377 . S
C851 C850 1.524 . S
C851 C852 1.397 . S
C851 C856 1.363 . S
C852 H829 0.950 . S
C852 C851 1.397 . S
C852 C853 1.334 . S
C853 H830 0.950 . S
C853 C852 1.334 . S
C853 C854 1.287 . S
C854 C853 1.287 . S
C854 C855 1.524 . S
C854 H873 0.913 . S
C855 H831 0.950 . S
C855 C854 1.524 . S
C855 C856 1.415 . S
C856 H832 0.950 . S
C856 C851 1.363 . S
C856 C855 1.415 . S
C857 H833 0.951 . S
C857 C858 1.366 . S
C857 C859 1.388 . S
C858 C857 1.366 . S
C858 C862 1.385 . S
C859 H834 0.951 . S
C859 C857 1.388 . S
C859 C860 1.366 . S
C860 C859 1.366 . S
C860 C861 1.414 . S
C860 C863 1.499 . S
C861 H835 0.950 . S
C861 C860 1.414 . S
C861 C862 1.374 . S
C862 H836 0.950 . S
C862 C858 1.385 . S
C862 C861 1.374 . S
C863 C860 1.499 . S
C863 C864 1.373 . S
C863 C865 1.389 . S
C864 H837 0.950 . S
C864 C850 1.377 . S
C864 C863 1.373 . S
C865 C849 1.377 . S
C865 C863 1.389 . S
C865 C866 1.524 . S
C866 C865 1.524 . S
C866 C867 1.397 . S
C866 C871 1.363 . S
C867 H838 0.950 . S
C867 C866 1.397 . S
C867 C868 1.334 . S
C868 H839 0.950 . S
C868 C867 1.334 . S
C868 C869 1.287 . S
C869 C868 1.287 . S
C869 C870 1.524 . S
C869 H872 0.999 . S
C870 H840 0.950 . S
C870 C869 1.524 . S
C870 C871 1.415 . S
C871 H841 0.950 . S
C871 C866 1.363 . S
C871 C870 1.415 . S
H872 C869 0.999 . S
H873 C854 0.913 . S
H874 C892 0.951 . S
H875 C894 0.951 . S
H876 C896 0.950 . S
H877 C897 0.950 . S
H878 C899 0.950 . S
H879 C902 0.950 . S
H880 C903 0.950 . S
H881 C905 0.950 . S
H882 C906 0.950 . S
H883 C907 0.951 . S
H884 C909 0.951 . S
H885 C911 0.950 . S
H886 C912 0.950 . S
H887 C914 0.950 . S
H888 C917 0.950 . S
H889 C918 0.950 . S
H890 C920 0.950 . S
H891 C921 0.950 . S
C892 H874 0.951 . S
C892 C893 1.366 . S
C892 C894 1.388 . S
C893 C892 1.366 . S
C893 C897 1.385 . S
C894 H875 0.951 . S
C894 C892 1.388 . S
C894 C895 1.366 . S
C895 C894 1.366 . S
C895 C896 1.414 . S
C895 C898 1.499 . S
C896 H876 0.950 . S
C896 C895 1.414 . S
C896 C897 1.374 . S
C897 H877 0.950 . S
C897 C893 1.385 . S
C897 C896 1.374 . S
C898 C895 1.499 . S
C898 C899 1.373 . S
C898 C900 1.389 . S
C899 H878 0.950 . S
C899 C898 1.373 . S
C899 C915 1.377 . S
C900 C898 1.389 . S
C900 C901 1.524 . S
C900 C914 1.377 . S
C901 C900 1.524 . S
C901 C902 1.397 . S
C901 C906 1.363 . S
C902 H879 0.950 . S
C902 C901 1.397 . S
C902 C903 1.334 . S
C903 H880 0.950 . S
C903 C902 1.334 . S
C903 C904 1.287 . S
C904 C903 1.287 . S
C904 C905 1.524 . S
C904 H923 0.913 . S
C905 H881 0.950 . S
C905 C904 1.524 . S
C905 C906 1.415 . S
C906 H882 0.950 . S
C906 C901 1.363 . S
C906 C905 1.415 . S
C907 H883 0.951 . S
C907 C908 1.366 . S
C907 C909 1.388 . S
C908 C907 1.366 . S
C908 C912 1.385 . S
C909 H884 0.951 . S
C909 C907 1.388 . S
C909 C910 1.366 . S
C910 C909 1.366 . S
C910 C911 1.414 . S
C910 C913 1.499 . S
C911 H885 0.950 . S
C911 C910 1.414 . S
C911 C912 1.374 . S
C912 H886 0.950 . S
C912 C908 1.385 . S
C912 C911 1.374 . S
C913 C910 1.499 . S
C913 C914 1.373 . S
C913 C915 1.389 . S
C914 H887 0.950 . S
C914 C900 1.377 . S
C914 C913 1.373 . S
C915 C899 1.377 . S
C915 C913 1.389 . S
C915 C916 1.524 . S
C916 C915 1.524 . S
C916 C917 1.397 . S
C916 C921 1.363 . S
C917 H888 0.950 . S
C917 C916 1.397 . S
C917 C918 1.334 . S
C918 H889 0.950 . S
C918 C917 1.334 . S
C918 C919 1.287 . S
C919 C918 1.287 . S
C919 C920 1.524 . S
C919 H922 0.999 . S
C920 H890 0.950 . S
C920 C919 1.524 . S
C920 C921 1.415 . S
C921 H891 0.950 . S
C921 C916 1.363 . S
C921 C920 1.415 . S
H922 C919 0.999 . S
H923 C904 0.913 . S
H924 C942 0.951 . S
H925 C944 0.951 . S
H926 C946 0.950 . S
H927 C947 0.950 . S
H928 C949 0.950 . S
H929 C952 0.950 . S
H930 C953 0.950 . S
H931 C955 0.950 . S
H932 C956 0.950 . S
H933 C957 0.951 . S
H934 C959 0.951 . S
H935 C961 0.950 . S
H936 C962 0.950 . S
H937 C964 0.950 . S
H938 C967 0.950 . S
H939 C968 0.950 . S
H940 C970 0.950 . S
H941 C971 0.950 . S
C942 H924 0.951 . S
C942 C943 1.366 . S
C942 C944 1.388 . S
C943 C942 1.366 . S
C943 C947 1.385 . S
C944 H925 0.951 . S
C944 C942 1.388 . S
C944 C945 1.366 . S
C945 C944 1.366 . S
C945 C946 1.414 . S
C945 C948 1.499 . S
C946 H926 0.950 . S
C946 C945 1.414 . S
C946 C947 1.374 . S
C947 H927 0.950 . S
C947 C943 1.385 . S
C947 C946 1.374 . S
C948 C945 1.499 . S
C948 C949 1.373 . S
C948 C950 1.389 . S
C949 H928 0.950 . S
C949 C948 1.373 . S
C949 C965 1.377 . S
C950 C948 1.389 . S
C950 C951 1.524 . S
C950 C964 1.377 . S
C951 C950 1.524 . S
C951 C952 1.397 . S
C951 C956 1.363 . S
C952 H929 0.950 . S
C952 C951 1.397 . S
C952 C953 1.334 . S
C953 H930 0.950 . S
C953 C952 1.334 . S
C953 C954 1.287 . S
C954 C953 1.287 . S
C954 C955 1.524 . S
C954 H973 0.913 . S
C955 H931 0.950 . S
C955 C954 1.524 . S
C955 C956 1.415 . S
C956 H932 0.950 . S
C956 C951 1.363 . S
C956 C955 1.415 . S
C957 H933 0.951 . S
C957 C958 1.366 . S
C957 C959 1.388 . S
C958 C957 1.366 . S
C958 C962 1.385 . S
C959 H934 0.951 . S
C959 C957 1.388 . S
C959 C960 1.366 . S
C960 C959 1.366 . S
C960 C961 1.414 . S
C960 C963 1.499 . S
C961 H935 0.950 . S
C961 C960 1.414 . S
C961 C962 1.374 . S
C962 H936 0.950 . S
C962 C958 1.385 . S
C962 C961 1.374 . S
C963 C960 1.499 . S
C963 C964 1.373 . S
C963 C965 1.389 . S
C964 H937 0.950 . S
C964 C950 1.377 . S
C964 C963 1.373 . S
C965 C949 1.377 . S
C965 C963 1.389 . S
C965 C966 1.524 . S
C966 C965 1.524 . S
C966 C967 1.397 . S
C966 C971 1.363 . S
C967 H938 0.950 . S
C967 C966 1.397 . S
C967 C968 1.334 . S
C968 H939 0.950 . S
C968 C967 1.334 . S
C968 C969 1.287 . S
C969 C968 1.287 . S
C969 C970 1.524 . S
C969 H972 0.999 . S
C970 H940 0.950 . S
C970 C969 1.524 . S
C970 C971 1.415 . S
C971 H941 0.950 . S
C971 C966 1.363 . S
C971 C970 1.415 . S
H972 C969 0.999 . S
H973 C954 0.913 . S
H974 C992 0.951 . S
H975 C994 0.951 . S
H976 C996 0.950 . S
H977 C997 0.950 . S
H978 C999 0.950 . S
H979 C1002 0.950 . S
H980 C1003 0.950 . S
H981 C1005 0.950 . S
H982 C1006 0.950 . S
H983 C1007 0.951 . S
H984 C1009 0.951 . S
H985 C1011 0.950 . S
H986 C1012 0.950 . S
H987 C1014 0.950 . S
H988 C1017 0.950 . S
H989 C1018 0.950 . S
H990 C1020 0.950 . S
H991 C1021 0.950 . S
C992 H974 0.951 . S
C992 C993 1.366 . S
C992 C994 1.388 . S
C993 C992 1.366 . S
C993 C997 1.385 . S
C994 H975 0.951 . S
C994 C992 1.388 . S
C994 C995 1.366 . S
C995 C994 1.366 . S
C995 C996 1.414 . S
C995 C998 1.499 . S
C996 H976 0.950 . S
C996 C995 1.414 . S
C996 C997 1.374 . S
C997 H977 0.950 . S
C997 C993 1.385 . S
C997 C996 1.374 . S
C998 C995 1.499 . S
C998 C999 1.373 . S
C998 C1000 1.389 . S
C999 H978 0.950 . S
C999 C998 1.373 . S
C999 C1015 1.377 . S
C1000 C998 1.389 . S
C1000 C1001 1.524 . S
C1000 C1014 1.377 . S
C1001 C1000 1.524 . S
C1001 C1002 1.397 . S
C1001 C1006 1.363 . S
C1002 H979 0.950 . S
C1002 C1001 1.397 . S
C1002 C1003 1.334 . S
C1003 H980 0.950 . S
C1003 C1002 1.334 . S
C1003 C1004 1.287 . S
C1004 C1003 1.287 . S
C1004 C1005 1.524 . S
C1004 H1023 0.913 . S
C1005 H981 0.950 . S
C1005 C1004 1.524 . S
C1005 C1006 1.415 . S
C1006 H982 0.950 . S
C1006 C1001 1.363 . S
C1006 C1005 1.415 . S
C1007 H983 0.951 . S
C1007 C1008 1.366 . S
C1007 C1009 1.388 . S
C1008 C1007 1.366 . S
C1008 C1012 1.385 . S
C1009 H984 0.951 . S
C1009 C1007 1.388 . S
C1009 C1010 1.366 . S
C1010 C1009 1.366 . S
C1010 C1011 1.414 . S
C1010 C1013 1.499 . S
C1011 H985 0.950 . S
C1011 C1010 1.414 . S
C1011 C1012 1.374 . S
C1012 H986 0.950 . S
C1012 C1008 1.385 . S
C1012 C1011 1.374 . S
C1013 C1010 1.499 . S
C1013 C1014 1.373 . S
C1013 C1015 1.389 . S
C1014 H987 0.950 . S
C1014 C1000 1.377 . S
C1014 C1013 1.373 . S
C1015 C999 1.377 . S
C1015 C1013 1.389 . S
C1015 C1016 1.524 . S
C1016 C1015 1.524 . S
C1016 C1017 1.397 . S
C1016 C1021 1.363 . S
C1017 H988 0.950 . S
C1017 C1016 1.397 . S
C1017 C1018 1.334 . S
C1018 H989 0.950 . S
C1018 C1017 1.334 . S
C1018 C1019 1.287 . S
C1019 C1018 1.287 . S
C1019 C1020 1.524 . S
C1019 H1022 0.999 . S
C1020 H990 0.950 . S
C1020 C1019 1.524 . S
C1020 C1021 1.415 . S
C1021 H991 0.950 . S
C1021 C1016 1.363 . S
C1021 C1020 1.415 . S
H1022 C1019 0.999 . S
H1023 C1004 0.913 . S
H1024 C1042 0.951 . S
H1025 C1044 0.951 . S
H1026 C1046 0.950 . S
H1027 C1047 0.950 . S
H1028 C1049 0.950 . S
H1029 C1052 0.950 . S
H1030 C1053 0.950 . S
H1031 C1055 0.950 . S
H1032 C1056 0.950 . S
H1033 C1057 0.951 . S
H1034 C1059 0.951 . S
H1035 C1061 0.950 . S
H1036 C1062 0.950 . S
H1037 C1064 0.950 . S
H1038 C1067 0.950 . S
H1039 C1068 0.950 . S
H1040 C1070 0.950 . S
H1041 C1071 0.950 . S
C1042 H1024 0.951 . S
C1042 C1043 1.366 . S
C1042 C1044 1.388 . S
C1043 C1042 1.366 . S
C1043 C1047 1.385 . S
C1044 H1025 0.951 . S
C1044 C1042 1.388 . S
C1044 C1045 1.366 . S
C1045 C1044 1.366 . S
C1045 C1046 1.414 . S
C1045 C1048 1.499 . S
C1046 H1026 0.950 . S
C1046 C1045 1.414 . S
C1046 C1047 1.374 . S
C1047 H1027 0.950 . S
C1047 C1043 1.385 . S
C1047 C1046 1.374 . S
C1048 C1045 1.499 . S
C1048 C1049 1.373 . S
C1048 C1050 1.389 . S
C1049 H1028 0.950 . S
C1049 C1048 1.373 . S
C1049 C1065 1.377 . S
C1050 C1048 1.389 . S
C1050 C1051 1.524 . S
C1050 C1064 1.377 . S
C1051 C1050 1.524 . S
C1051 C1052 1.397 . S
C1051 C1056 1.363 . S
C1052 H1029 0.950 . S
C1052 C1051 1.397 . S
C1052 C1053 1.334 . S
C1053 H1030 0.950 . S
C1053 C1052 1.334 . S
C1053 C1054 1.287 . S
C1054 C1053 1.287 . S
C1054 C1055 1.524 . S
C1054 H1073 0.913 . S
C1055 H1031 0.950 . S
C1055 C1054 1.524 . S
C1055 C1056 1.415 . S
C1056 H1032 0.950 . S
C1056 C1051 1.363 . S
C1056 C1055 1.415 . S
C1057 H1033 0.951 . S
C1057 C1058 1.366 . S
C1057 C1059 1.388 . S
C1058 C1057 1.366 . S
C1058 C1062 1.385 . S
C1059 H1034 0.951 . S
C1059 C1057 1.388 . S
C1059 C1060 1.366 . S
C1060 C1059 1.366 . S
C1060 C1061 1.414 . S
C1060 C1063 1.499 . S
C1061 H1035 0.950 . S
C1061 C1060 1.414 . S
C1061 C1062 1.374 . S
C1062 H1036 0.950 . S
C1062 C1058 1.385 . S
C1062 C1061 1.374 . S
C1063 C1060 1.499 . S
C1063 C1064 1.373 . S
C1063 C1065 1.389 . S
C1064 H1037 0.950 . S
C1064 C1050 1.377 . S
C1064 C1063 1.373 . S
C1065 C1049 1.377 . S
C1065 C1063 1.389 . S
C1065 C1066 1.524 . S
C1066 C1065 1.524 . S
C1066 C1067 1.397 . S
C1066 C1071 1.363 . S
C1067 H1038 0.950 . S
C1067 C1066 1.397 . S
C1067 C1068 1.334 . S
C1068 H1039 0.950 . S
C1068 C1067 1.334 . S
C1068 C1069 1.287 . S
C1069 C1068 1.287 . S
C1069 C1070 1.524 . S
C1069 H1072 0.999 . S
C1070 H1040 0.950 . S
C1070 C1069 1.524 . S
C1070 C1071 1.415 . S
C1071 H1041 0.950 . S
C1071 C1066 1.363 . S
C1071 C1070 1.415 . S
H1072 C1069 0.999 . S
H1073 C1054 0.913 . S
H1074 C1092 0.951 . S
H1075 C1094 0.951 . S
H1076 C1096 0.950 . S
H1077 C1097 0.950 . S
H1078 C1099 0.950 . S
H1079 C1102 0.950 . S
H1080 C1103 0.950 . S
H1081 C1105 0.950 . S
H1082 C1106 0.950 . S
H1083 C1107 0.951 . S
H1084 C1109 0.951 . S
H1085 C1111 0.950 . S
H1086 C1112 0.950 . S
H1087 C1114 0.950 . S
H1088 C1117 0.950 . S
H1089 C1118 0.950 . S
H1090 C1120 0.950 . S
H1091 C1121 0.950 . S
C1092 H1074 0.951 . S
C1092 C1093 1.366 . S
C1092 C1094 1.388 . S
C1093 C1092 1.366 . S
C1093 C1097 1.385 . S
C1094 H1075 0.951 . S
C1094 C1092 1.388 . S
C1094 C1095 1.366 . S
C1095 C1094 1.366 . S
C1095 C1096 1.414 . S
C1095 C1098 1.499 . S
C1096 H1076 0.950 . S
C1096 C1095 1.414 . S
C1096 C1097 1.374 . S
C1097 H1077 0.950 . S
C1097 C1093 1.385 . S
C1097 C1096 1.374 . S
C1098 C1095 1.499 . S
C1098 C1099 1.373 . S
C1098 C1100 1.389 . S
C1099 H1078 0.950 . S
C1099 C1098 1.373 . S
C1099 C1115 1.377 . S
C1100 C1098 1.389 . S
C1100 C1101 1.524 . S
C1100 C1114 1.377 . S
C1101 C1100 1.524 . S
C1101 C1102 1.397 . S
C1101 C1106 1.363 . S
C1102 H1079 0.950 . S
C1102 C1101 1.397 . S
C1102 C1103 1.334 . S
C1103 H1080 0.950 . S
C1103 C1102 1.334 . S
C1103 C1104 1.287 . S
C1104 C1103 1.287 . S
C1104 C1105 1.524 . S
C1104 H1123 0.913 . S
C1105 H1081 0.950 . S
C1105 C1104 1.524 . S
C1105 C1106 1.415 . S
C1106 H1082 0.950 . S
C1106 C1101 1.363 . S
C1106 C1105 1.415 . S
C1107 H1083 0.951 . S
C1107 C1108 1.366 . S
C1107 C1109 1.388 . S
C1108 C1107 1.366 . S
C1108 C1112 1.385 . S
C1109 H1084 0.951 . S
C1109 C1107 1.388 . S
C1109 C1110 1.366 . S
C1110 C1109 1.366 . S
C1110 C1111 1.414 . S
C1110 C1113 1.499 . S
C1111 H1085 0.950 . S
C1111 C1110 1.414 . S
C1111 C1112 1.374 . S
C1112 H1086 0.950 . S
C1112 C1108 1.385 . S
C1112 C1111 1.374 . S
C1113 C1110 1.499 . S
C1113 C1114 1.373 . S
C1113 C1115 1.389 . S
C1114 H1087 0.950 . S
C1114 C1100 1.377 . S
C1114 C1113 1.373 . S
C1115 C1099 1.377 . S
C1115 C1113 1.389 . S
C1115 C1116 1.524 . S
C1116 C1115 1.524 . S
C1116 C1117 1.397 . S
C1116 C1121 1.363 . S
C1117 H1088 0.950 . S
C1117 C1116 1.397 . S
C1117 C1118 1.334 . S
C1118 H1089 0.950 . S
C1118 C1117 1.334 . S
C1118 C1119 1.287 . S
C1119 C1118 1.287 . S
C1119 C1120 1.524 . S
C1119 H1122 0.999 . S
C1120 H1090 0.950 . S
C1120 C1119 1.524 . S
C1120 C1121 1.415 . S
C1121 H1091 0.950 . S
C1121 C1116 1.363 . S
C1121 C1120 1.415 . S
H1122 C1119 0.999 . S
H1123 C1104 0.913 . S
H1124 C1142 0.951 . S
H1125 C1144 0.951 . S
H1126 C1146 0.950 . S
H1127 C1147 0.950 . S
H1128 C1149 0.950 . S
H1129 C1152 0.950 . S
H1130 C1153 0.950 . S
H1131 C1155 0.950 . S
H1132 C1156 0.950 . S
H1133 C1157 0.951 . S
H1134 C1159 0.951 . S
H1135 C1161 0.950 . S
H1136 C1162 0.950 . S
H1137 C1164 0.950 . S
H1138 C1167 0.950 . S
H1139 C1168 0.950 . S
H1140 C1170 0.950 . S
H1141 C1171 0.950 . S
C1142 H1124 0.951 . S
C1142 C1143 1.366 . S
C1142 C1144 1.388 . S
C1143 C1142 1.366 . S
C1143 C1147 1.385 . S
C1144 H1125 0.951 . S
C1144 C1142 1.388 . S
C1144 C1145 1.366 . S
C1145 C1144 1.366 . S
C1145 C1146 1.414 . S
C1145 C1148 1.499 . S
C1146 H1126 0.950 . S
C1146 C1145 1.414 . S
C1146 C1147 1.374 . S
C1147 H1127 0.950 . S
C1147 C1143 1.385 . S
C1147 C1146 1.374 . S
C1148 C1145 1.499 . S
C1148 C1149 1.373 . S
C1148 C1150 1.389 . S
C1149 H1128 0.950 . S
C1149 C1148 1.373 . S
C1149 C1165 1.377 . S
C1150 C1148 1.389 . S
C1150 C1151 1.524 . S
C1150 C1164 1.377 . S
C1151 C1150 1.524 . S
C1151 C1152 1.397 . S
C1151 C1156 1.363 . S
C1152 H1129 0.950 . S
C1152 C1151 1.397 . S
C1152 C1153 1.334 . S
C1153 H1130 0.950 . S
C1153 C1152 1.334 . S
C1153 C1154 1.287 . S
C1154 C1153 1.287 . S
C1154 C1155 1.524 . S
C1154 H1173 0.913 . S
C1155 H1131 0.950 . S
C1155 C1154 1.524 . S
C1155 C1156 1.415 . S
C1156 H1132 0.950 . S
C1156 C1151 1.363 . S
C1156 C1155 1.415 . S
C1157 H1133 0.951 . S
C1157 C1158 1.366 . S
C1157 C1159 1.388 . S
C1158 C1157 1.366 . S
C1158 C1162 1.385 . S
C1159 H1134 0.951 . S
C1159 C1157 1.388 . S
C1159 C1160 1.366 . S
C1160 C1159 1.366 . S
C1160 C1161 1.414 . S
C1160 C1163 1.499 . S
C1161 H1135 0.950 . S
C1161 C1160 1.414 . S
C1161 C1162 1.374 . S
C1162 H1136 0.950 . S
C1162 C1158 1.385 . S
C1162 C1161 1.374 . S
C1163 C1160 1.499 . S
C1163 C1164 1.373 . S
C1163 C1165 1.389 . S
C1164 H1137 0.950 . S
C1164 C1150 1.377 . S
C1164 C1163 1.373 . S
C1165 C1149 1.377 . S
C1165 C1163 1.389 . S
C1165 C1166 1.524 . S
C1166 C1165 1.524 . S
C1166 C1167 1.397 . S
C1166 C1171 1.363 . S
C1167 H1138 0.950 . S
C1167 C1166 1.397 . S
C1167 C1168 1.334 . S
C1168 H1139 0.950 . S
C1168 C1167 1.334 . S
C1168 C1169 1.287 . S
C1169 C1168 1.287 . S
C1169 C1170 1.524 . S
C1169 H1172 0.999 . S
C1170 H1140 0.950 . S
C1170 C1169 1.524 . S
C1170 C1171 1.415 . S
C1171 H1141 0.950 . S
C1171 C1166 1.363 . S
C1171 C1170 1.415 . S
H1172 C1169 0.999 . S
H1173 C1154 0.913 . S
H1174 C1192 0.951 . S
H1175 C1194 0.951 . S
H1176 C1196 0.950 . S
H1177 C1197 0.950 . S
H1178 C1199 0.950 . S
H1179 C1202 0.950 . S
H1180 C1203 0.950 . S
H1181 C1205 0.950 . S
H1182 C1206 0.950 . S
H1183 C1207 0.951 . S
H1184 C1209 0.951 . S
H1185 C1211 0.950 . S
H1186 C1212 0.950 . S
H1187 C1214 0.950 . S
H1188 C1217 0.950 . S
H1189 C1218 0.950 . S
H1190 C1220 0.950 . S
H1191 C1221 0.950 . S
C1192 H1174 0.951 . S
C1192 C1193 1.366 . S
C1192 C1194 1.388 . S
C1193 C1192 1.366 . S
C1193 C1197 1.385 . S
C1194 H1175 0.951 . S
C1194 C1192 1.388 . S
C1194 C1195 1.366 . S
C1195 C1194 1.366 . S
C1195 C1196 1.414 . S
C1195 C1198 1.499 . S
C1196 H1176 0.950 . S
C1196 C1195 1.414 . S
C1196 C1197 1.374 . S
C1197 H1177 0.950 . S
C1197 C1193 1.385 . S
C1197 C1196 1.374 . S
C1198 C1195 1.499 . S
C1198 C1199 1.373 . S
C1198 C1200 1.389 . S
C1199 H1178 0.950 . S
C1199 C1198 1.373 . S
C1199 C1215 1.377 . S
C1200 C1198 1.389 . S
C1200 C1201 1.524 . S
C1200 C1214 1.377 . S
C1201 C1200 1.524 . S
C1201 C1202 1.397 . S
C1201 C1206 1.363 . S
C1202 H1179 0.950 . S
C1202 C1201 1.397 . S
C1202 C1203 1.334 . S
C1203 H1180 0.950 . S
C1203 C1202 1.334 . S
C1203 C1204 1.287 . S
C1204 C1203 1.287 . S
C1204 C1205 1.524 . S
C1204 H1223 0.913 . S
C1205 H1181 0.950 . S
C1205 C1204 1.524 . S
C1205 C1206 1.415 . S
C1206 H1182 0.950 . S
C1206 C1201 1.363 . S
C1206 C1205 1.415 . S
C1207 H1183 0.951 . S
C1207 C1208 1.366 . S
C1207 C1209 1.388 . S
C1208 C1207 1.366 . S
C1208 C1212 1.385 . S
C1209 H1184 0.951 . S
C1209 C1207 1.388 . S
C1209 C1210 1.366 . S
C1210 C1209 1.366 . S
C1210 C1211 1.414 . S
C1210 C1213 1.499 . S
C1211 H1185 0.950 . S
C1211 C1210 1.414 . S
C1211 C1212 1.374 . S
C1212 H1186 0.950 . S
C1212 C1208 1.385 . S
C1212 C1211 1.374 . S
C1213 C1210 1.499 . S
C1213 C1214 1.373 . S
C1213 C1215 1.389 . S
C1214 H1187 0.950 . S
C1214 C1200 1.377 . S
C1214 C1213 1.373 . S
C1215 C1199 1.377 . S
C1215 C1213 1.389 . S
C1215 C1216 1.524 . S
C1216 C1215 1.524 . S
C1216 C1217 1.397 . S
C1216 C1221 1.363 . S
C1217 H1188 0.950 . S
C1217 C1216 1.397 . S
C1217 C1218 1.334 . S
C1218 H1189 0.950 . S
C1218 C1217 1.334 . S
C1218 C1219 1.287 . S
C1219 C1218 1.287 . S
C1219 C1220 1.524 . S
C1219 H1222 0.999 . S
C1220 H1190 0.950 . S
C1220 C1219 1.524 . S
C1220 C1221 1.415 . S
C1221 H1191 0.950 . S
C1221 C1216 1.363 . S
C1221 C1220 1.415 . S
H1222 C1219 0.999 . S
H1223 C1204 0.913 . S
H1224 C1242 0.951 . S
H1225 C1244 0.951 . S
H1226 C1246 0.950 . S
H1227 C1247 0.950 . S
H1228 C1249 0.950 . S
H1229 C1252 0.950 . S
H1230 C1253 0.950 . S
H1231 C1255 0.950 . S
H1232 C1256 0.950 . S
H1233 C1257 0.951 . S
H1234 C1259 0.951 . S
H1235 C1261 0.950 . S
H1236 C1262 0.950 . S
H1237 C1264 0.950 . S
H1238 C1267 0.950 . S
H1239 C1268 0.950 . S
H1240 C1270 0.950 . S
H1241 C1271 0.950 . S
C1242 H1224 0.951 . S
C1242 C1243 1.366 . S
C1242 C1244 1.388 . S
C1243 C1242 1.366 . S
C1243 C1247 1.385 . S
C1244 H1225 0.951 . S
C1244 C1242 1.388 . S
C1244 C1245 1.366 . S
C1245 C1244 1.366 . S
C1245 C1246 1.414 . S
C1245 C1248 1.499 . S
C1246 H1226 0.950 . S
C1246 C1245 1.414 . S
C1246 C1247 1.374 . S
C1247 H1227 0.950 . S
C1247 C1243 1.385 . S
C1247 C1246 1.374 . S
C1248 C1245 1.499 . S
C1248 C1249 1.373 . S
C1248 C1250 1.389 . S
C1249 H1228 0.950 . S
C1249 C1248 1.373 . S
C1249 C1265 1.377 . S
C1250 C1248 1.389 . S
C1250 C1251 1.524 . S
C1250 C1264 1.377 . S
C1251 C1250 1.524 . S
C1251 C1252 1.397 . S
C1251 C1256 1.363 . S
C1252 H1229 0.950 . S
C1252 C1251 1.397 . S
C1252 C1253 1.334 . S
C1253 H1230 0.950 . S
C1253 C1252 1.334 . S
C1253 C1254 1.287 . S
C1254 C1253 1.287 . S
C1254 C1255 1.524 . S
C1254 H1273 0.913 . S
C1255 H1231 0.950 . S
C1255 C1254 1.524 . S
C1255 C1256 1.415 . S
C1256 H1232 0.950 . S
C1256 C1251 1.363 . S
C1256 C1255 1.415 . S
C1257 H1233 0.951 . S
C1257 C1258 1.366 . S
C1257 C1259 1.388 . S
C1258 C1257 1.366 . S
C1258 C1262 1.385 . S
C1259 H1234 0.951 . S
C1259 C1257 1.388 . S
C1259 C1260 1.366 . S
C1260 C1259 1.366 . S
C1260 C1261 1.414 . S
C1260 C1263 1.499 . S
C1261 H1235 0.950 . S
C1261 C1260 1.414 . S
C1261 C1262 1.374 . S
C1262 H1236 0.950 . S
C1262 C1258 1.385 . S
C1262 C1261 1.374 . S
C1263 C1260 1.499 . S
C1263 C1264 1.373 . S
C1263 C1265 1.389 . S
C1264 H1237 0.950 . S
C1264 C1250 1.377 . S
C1264 C1263 1.373 . S
C1265 C1249 1.377 . S
C1265 C1263 1.389 . S
C1265 C1266 1.524 . S
C1266 C1265 1.524 . S
C1266 C1267 1.397 . S
C1266 C1271 1.363 . S
C1267 H1238 0.950 . S
C1267 C1266 1.397 . S
C1267 C1268 1.334 . S
C1268 H1239 0.950 . S
C1268 C1267 1.334 . S
C1268 C1269 1.287 . S
C1269 C1268 1.287 . S
C1269 C1270 1.524 . S
C1269 H1272 0.999 . S
C1270 H1240 0.950 . S
C1270 C1269 1.524 . S
C1270 C1271 1.415 . S
C1271 H1241 0.950 . S
C1271 C1266 1.363 . S
C1271 C1270 1.415 . S
H1272 C1269 0.999 . S
H1273 C1254 0.913 . S
H1274 C1292 0.951 . S
H1275 C1294 0.951 . S
H1276 C1296 0.950 . S
H1277 C1297 0.950 . S
H1278 C1299 0.950 . S
H1279 C1302 0.950 . S
H1280 C1303 0.950 . S
H1281 C1305 0.950 . S
H1282 C1306 0.950 . S
H1283 C1307 0.951 . S
H1284 C1309 0.951 . S
H1285 C1311 0.950 . S
H1286 C1312 0.950 . S
H1287 C1314 0.950 . S
H1288 C1317 0.950 . S
H1289 C1318 0.950 . S
H1290 C1320 0.950 . S
H1291 C1321 0.950 . S
C1292 H1274 0.951 . S
C1292 C1293 1.366 . S
C1292 C1294 1.388 . S
C1293 C1292 1.366 . S
C1293 C1297 1.385 . S
C1294 H1275 0.951 . S
C1294 C1292 1.388 . S
C1294 C1295 1.366 . S
C1295 C1294 1.366 . S
C1295 C1296 1.414 . S
C1295 C1298 1.499 . S
C1296 H1276 0.950 . S
C1296 C1295 1.414 . S
C1296 C1297 1.374 . S
C1297 H1277 0.950 . S
C1297 C1293 1.385 . S
C1297 C1296 1.374 . S
C1298 C1295 1.499 . S
C1298 C1299 1.373 . S
C1298 C1300 1.389 . S
C1299 H1278 0.950 . S
C1299 C1298 1.373 . S
C1299 C1315 1.377 . S
C1300 C1298 1.389 . S
C1300 C1301 1.524 . S
C1300 C1314 1.377 . S
C1301 C1300 1.524 . S
C1301 C1302 1.397 . S
C1301 C1306 1.363 . S
C1302 H1279 0.950 . S
C1302 C1301 1.397 . S
C1302 C1303 1.334 . S
C1303 H1280 0.950 . S
C1303 C1302 1.334 . S
C1303 C1304 1.287 . S
C1304 C1303 1.287 . S
C1304 C1305 1.524 . S
C1304 H1323 0.913 . S
C1305 H1281 0.950 . S
C1305 C1304 1.524 . S
C1305 C1306 1.415 . S
C1306 H1282 0.950 . S
C1306 C1301 1.363 . S
C1306 C1305 1.415 . S
C1307 H1283 0.951 . S
C1307 C1308 1.366 . S
C1307 C1309 1.388 . S
C1308 C1307 1.366 . S
C1308 C1312 1.385 . S
C1309 H1284 0.951 . S
C1309 C1307 1.388 . S
C1309 C1310 1.366 . S
C1310 C1309 1.366 . S
C1310 C1311 1.414 . S
C1310 C1313 1.499 . S
C1311 H1285 0.950 . S
C1311 C1310 1.414 . S
C1311 C1312 1.374 . S
C1312 H1286 0.950 . S
C1312 C1308 1.385 . S
C1312 C1311 1.374 . S
C1313 C1310 1.499 . S
C1313 C1314 1.373 . S
C1313 C1315 1.389 . S
C1314 H1287 0.950 . S
C1314 C1300 1.377 . S
C1314 C1313 1.373 . S
C1315 C1299 1.377 . S
C1315 C1313 1.389 . S
C1315 C1316 1.524 . S
C1316 C1315 1.524 . S
C1316 C1317 1.397 . S
C1316 C1321 1.363 . S
C1317 H1288 0.950 . S
C1317 C1316 1.397 . S
C1317 C1318 1.334 . S
C1318 H1289 0.950 . S
C1318 C1317 1.334 . S
C1318 C1319 1.287 . S
C1319 C1318 1.287 . S
C1319 C1320 1.524 . S
C1319 H1322 0.999 . S
C1320 H1290 0.950 . S
C1320 C1319 1.524 . S
C1320 C1321 1.415 . S
C1321 H1291 0.950 . S
C1321 C1316 1.363 . S
C1321 C1320 1.415 . S
H1322 C1319 0.999 . S
H1323 C1304 0.913 . S
H1324 C1342 0.951 . S
H1325 C1344 0.951 . S
H1326 C1346 0.950 . S
H1327 C1347 0.950 . S
H1328 C1349 0.950 . S
H1329 C1352 0.950 . S
H1330 C1353 0.950 . S
H1331 C1355 0.950 . S
H1332 C1356 0.950 . S
H1333 C1357 0.951 . S
H1334 C1359 0.951 . S
H1335 C1361 0.950 . S
H1336 C1362 0.950 . S
H1337 C1364 0.950 . S
H1338 C1367 0.950 . S
H1339 C1368 0.950 . S
H1340 C1370 0.950 . S
H1341 C1371 0.950 . S
C1342 H1324 0.951 . S
C1342 C1343 1.366 . S
C1342 C1344 1.388 . S
C1343 C1342 1.366 . S
C1343 C1347 1.385 . S
C1344 H1325 0.951 . S
C1344 C1342 1.388 . S
C1344 C1345 1.366 . S
C1345 C1344 1.366 . S
C1345 C1346 1.414 . S
C1345 C1348 1.499 . S
C1346 H1326 0.950 . S
C1346 C1345 1.414 . S
C1346 C1347 1.374 . S
C1347 H1327 0.950 . S
C1347 C1343 1.385 . S
C1347 C1346 1.374 . S
C1348 C1345 1.499 . S
C1348 C1349 1.373 . S
C1348 C1350 1.389 . S
C1349 H1328 0.950 . S
C1349 C1348 1.373 . S
C1349 C1365 1.377 . S
C1350 C1348 1.389 . S
C1350 C1351 1.524 . S
C1350 C1364 1.377 . S
C1351 C1350 1.524 . S
C1351 C1352 1.397 . S
C1351 C1356 1.363 . S
C1352 H1329 0.950 . S
C1352 C1351 1.397 . S
C1352 C1353 1.334 . S
C1353 H1330 0.950 . S
C1353 C1352 1.334 . S
C1353 C1354 1.287 . S
C1354 C1353 1.287 . S
C1354 C1355 1.524 . S
C1354 H1373 0.913 . S
C1355 H1331 0.950 . S
C1355 C1354 1.524 . S
C1355 C1356 1.415 . S
C1356 H1332 0.950 . S
C1356 C1351 1.363 . S
C1356 C1355 1.415 . S
C1357 H1333 0.951 . S
C1357 C1358 1.366 . S
C1357 C1359 1.388 . S
C1358 C1357 1.366 . S
C1358 C1362 1.385 . S
C1359 H1334 0.951 . S
C1359 C1357 1.388 . S
C1359 C1360 1.366 . S
C1360 C1359 1.366 . S
C1360 C1361 1.414 . S
C1360 C1363 1.499 . S
C1361 H1335 0.950 . S
C1361 C1360 1.414 . S
C1361 C1362 1.374 . S
C1362 H1336 0.950 . S
C1362 C1358 1.385 . S
C1362 C1361 1.374 . S
C1363 C1360 1.499 . S
C1363 C1364 1.373 . S
C1363 C1365 1.389 . S
C1364 H1337 0.950 . S
C1364 C1350 1.377 . S
C1364 C1363 1.373 . S
C1365 C1349 1.377 . S
C1365 C1363 1.389 . S
C1365 C1366 1.524 . S
C1366 C1365 1.524 . S
C1366 C1367 1.397 . S
C1366 C1371 1.363 . S
C1367 H1338 0.950 . S
C1367 C1366 1.397 . S
C1367 C1368 1.334 . S
C1368 H1339 0.950 . S
C1368 C1367 1.334 . S
C1368 C1369 1.287 . S
C1369 C1368 1.287 . S
C1369 C1370 1.524 . S
C1369 H1372 0.999 . S
C1370 H1340 0.950 . S
C1370 C1369 1.524 . S
C1370 C1371 1.415 . S
C1371 H1341 0.950 . S
C1371 C1366 1.363 . S
C1371 C1370 1.415 . S
H1372 C1369 0.999 . S
H1373 C1354 0.913 . S
H1374 C1392 0.951 . S
H1375 C1394 0.951 . S
H1376 C1396 0.950 . S
H1377 C1397 0.950 . S
H1378 C1399 0.950 . S
H1379 C1402 0.950 . S
H1380 C1403 0.950 . S
H1381 C1405 0.950 . S
H1382 C1406 0.950 . S
H1383 C1407 0.951 . S
H1384 C1409 0.951 . S
H1385 C1411 0.950 . S
H1386 C1412 0.950 . S
H1387 C1414 0.950 . S
H1388 C1417 0.950 . S
H1389 C1418 0.950 . S
H1390 C1420 0.950 . S
H1391 C1421 0.950 . S
C1392 H1374 0.951 . S
C1392 C1393 1.366 . S
C1392 C1394 1.388 . S
C1393 C1392 1.366 . S
C1393 C1397 1.385 . S
C1394 H1375 0.951 . S
C1394 C1392 1.388 . S
C1394 C1395 1.366 . S
C1395 C1394 1.366 . S
C1395 C1396 1.414 . S
C1395 C1398 1.499 . S
C1396 H1376 0.950 . S
C1396 C1395 1.414 . S
C1396 C1397 1.374 . S
C1397 H1377 0.950 . S
C1397 C1393 1.385 . S
C1397 C1396 1.374 . S
C1398 C1395 1.499 . S
C1398 C1399 1.373 . S
C1398 C1400 1.389 . S
C1399 H1378 0.950 . S
C1399 C1398 1.373 . S
C1399 C1415 1.377 . S
C1400 C1398 1.389 . S
C1400 C1401 1.524 . S
C1400 C1414 1.377 . S
C1401 C1400 1.524 . S
C1401 C1402 1.397 . S
C1401 C1406 1.363 . S
C1402 H1379 0.950 . S
C1402 C1401 1.397 . S
C1402 C1403 1.334 . S
C1403 H1380 0.950 . S
C1403 C1402 1.334 . S
C1403 C1404 1.287 . S
C1404 C1403 1.287 . S
C1404 C1405 1.524 . S
C1404 H1423 0.913 . S
C1405 H1381 0.950 . S
C1405 C1404 1.524 . S
C1405 C1406 1.415 . S
C1406 H1382 0.950 . S
C1406 C1401 1.363 . S
C1406 C1405 1.415 . S
C1407 H1383 0.951 . S
C1407 C1408 1.366 . S
C1407 C1409 1.388 . S
C1408 C1407 1.366 . S
C1408 C1412 1.385 . S
C1409 H1384 0.951 . S
C1409 C1407 1.388 . S
C1409 C1410 1.366 . S
C1410 C1409 1.366 . S
C1410 C1411 1.414 . S
C1410 C1413 1.499 . S
C1411 H1385 0.950 . S
C1411 C1410 1.414 . S
C1411 C1412 1.374 . S
C1412 H1386 0.950 . S
C1412 C1408 1.385 . S
C1412 C1411 1.374 . S
C1413 C1410 1.499 . S
C1413 C1414 1.373 . S
C1413 C1415 1.389 . S
C1414 H1387 0.950 . S
C1414 C1400 1.377 . S
C1414 C1413 1.373 . S
C1415 C1399 1.377 . S
C1415 C1413 1.389 . S
C1415 C1416 1.524 . S
C1416 C1415 1.524 . S
C1416 C1417 1.397 . S
C1416 C1421 1.363 . S
C1417 H1388 0.950 . S
C1417 C1416 1.397 . S
C1417 C1418 1.334 . S
C1418 H1389 0.950 . S
C1418 C1417 1.334 . S
C1418 C1419 1.287 . S
C1419 C1418 1.287 . S
C1419 C1420 1.524 . S
C1419 H1422 0.999 . S
C1420 H1390 0.950 . S
C1420 C1419 1.524 . S
C1420 C1421 1.415 . S
C1421 H1391 0.950 . S
C1421 C1416 1.363 . S
C1421 C1420 1.415 . S
H1422 C1419 0.999 . S
H1423 C1404 0.913 . S
H1424 C1442 0.951 . S
H1425 C1444 0.951 . S
H1426 C1446 0.950 . S
H1427 C1447 0.950 . S
H1428 C1449 0.950 . S
H1429 C1452 0.950 . S
H1430 C1453 0.950 . S
H1431 C1455 0.950 . S
H1432 C1456 0.950 . S
H1433 C1457 0.951 . S
H1434 C1459 0.951 . S
H1435 C1461 0.950 . S
H1436 C1462 0.950 . S
H1437 C1464 0.950 . S
H1438 C1467 0.950 . S
H1439 C1468 0.950 . S
H1440 C1470 0.950 . S
H1441 C1471 0.950 . S
C1442 H1424 0.951 . S
C1442 C1443 1.366 . S
C1442 C1444 1.388 . S
C1443 C1442 1.366 . S
C1443 C1447 1.385 . S
C1444 H1425 0.951 . S
C1444 C1442 1.388 . S
C1444 C1445 1.366 . S
C1445 C1444 1.366 . S
C1445 C1446 1.414 . S
C1445 C1448 1.499 . S
C1446 H1426 0.950 . S
C1446 C1445 1.414 . S
C1446 C1447 1.374 . S
C1447 H1427 0.950 . S
C1447 C1443 1.385 . S
C1447 C1446 1.374 . S
C1448 C1445 1.499 . S
C1448 C1449 1.373 . S
C1448 C1450 1.389 . S
C1449 H1428 0.950 . S
C1449 C1448 1.373 . S
C1449 C1465 1.377 . S
C1450 C1448 1.389 . S
C1450 C1451 1.524 . S
C1450 C1464 1.377 . S
C1451 C1450 1.524 . S
C1451 C1452 1.397 . S
C1451 C1456 1.363 . S
C1452 H1429 0.950 . S
C1452 C1451 1.397 . S
C1452 C1453 1.334 . S
C1453 H1430 0.950 . S
C1453 C1452 1.334 . S
C1453 C1454 1.287 . S
C1454 C1453 1.287 . S
C1454 C1455 1.524 . S
C1454 H1473 0.913 . S
C1455 H1431 0.950 . S
C1455 C1454 1.524 . S
C1455 C1456 1.415 . S
C1456 H1432 0.950 . S
C1456 C1451 1.363 . S
C1456 C1455 1.415 . S
C1457 H1433 0.951 . S
C1457 C1458 1.366 . S
C1457 C1459 1.388 . S
C1458 C1457 1.366 . S
C1458 C1462 1.385 . S
C1459 H1434 0.951 . S
C1459 C1457 1.388 . S
C1459 C1460 1.366 . S
C1460 C1459 1.366 . S
C1460 C1461 1.414 . S
C1460 C1463 1.499 . S
C1461 H1435 0.950 . S
C1461 C1460 1.414 . S
C1461 C1462 1.374 . S
C1462 H1436 0.950 . S
C1462 C1458 1.385 . S
C1462 C1461 1.374 . S
C1463 C1460 1.499 . S
C1463 C1464 1.373 . S
C1463 C1465 1.389 . S
C1464 H1437 0.950 . S
C1464 C1450 1.377 . S
C1464 C1463 1.373 . S
C1465 C1449 1.377 . S
C1465 C1463 1.389 . S
C1465 C1466 1.524 . S
C1466 C1465 1.524 . S
C1466 C1467 1.397 . S
C1466 C1471 1.363 . S
C1467 H1438 0.950 . S
C1467 C1466 1.397 . S
C1467 C1468 1.334 . S
C1468 H1439 0.950 . S
C1468 C1467 1.334 . S
C1468 C1469 1.287 . S
C1469 C1468 1.287 . S
C1469 C1470 1.524 . S
C1469 H1472 0.999 . S
C1470 H1440 0.950 . S
C1470 C1469 1.524 . S
C1470 C1471 1.415 . S
C1471 H1441 0.950 . S
C1471 C1466 1.363 . S
C1471 C1470 1.415 . S
H1472 C1469 0.999 . S
H1473 C1454 0.913 . S
H1474 C1492 0.951 . S
H1475 C1494 0.951 . S
H1476 C1496 0.950 . S
H1477 C1497 0.950 . S
H1478 C1499 0.950 . S
H1479 C1502 0.950 . S
H1480 C1503 0.950 . S
H1481 C1505 0.950 . S
H1482 C1506 0.950 . S
H1483 C1507 0.951 . S
H1484 C1509 0.951 . S
H1485 C1511 0.950 . S
H1486 C1512 0.950 . S
H1487 C1514 0.950 . S
H1488 C1517 0.950 . S
H1489 C1518 0.950 . S
H1490 C1520 0.950 . S
H1491 C1521 0.950 . S
C1492 H1474 0.951 . S
C1492 C1493 1.366 . S
C1492 C1494 1.388 . S
C1493 C1492 1.366 . S
C1493 C1497 1.385 . S
C1494 H1475 0.951 . S
C1494 C1492 1.388 . S
C1494 C1495 1.366 . S
C1495 C1494 1.366 . S
C1495 C1496 1.414 . S
C1495 C1498 1.499 . S
C1496 H1476 0.950 . S
C1496 C1495 1.414 . S
C1496 C1497 1.374 . S
C1497 H1477 0.950 . S
C1497 C1493 1.385 . S
C1497 C1496 1.374 . S
C1498 C1495 1.499 . S
C1498 C1499 1.373 . S
C1498 C1500 1.389 . S
C1499 H1478 0.950 . S
C1499 C1498 1.373 . S
C1499 C1515 1.377 . S
C1500 C1498 1.389 . S
C1500 C1501 1.524 . S
C1500 C1514 1.377 . S
C1501 C1500 1.524 . S
C1501 C1502 1.397 . S
C1501 C1506 1.363 . S
C1502 H1479 0.950 . S
C1502 C1501 1.397 . S
C1502 C1503 1.334 . S
C1503 H1480 0.950 . S
C1503 C1502 1.334 . S
C1503 C1504 1.287 . S
C1504 C1503 1.287 . S
C1504 C1505 1.524 . S
C1504 H1523 0.913 . S
C1505 H1481 0.950 . S
C1505 C1504 1.524 . S
C1505 C1506 1.415 . S
C1506 H1482 0.950 . S
C1506 C1501 1.363 . S
C1506 C1505 1.415 . S
C1507 H1483 0.951 . S
C1507 C1508 1.366 . S
C1507 C1509 1.388 . S
C1508 C1507 1.366 . S
C1508 C1512 1.385 . S
C1509 H1484 0.951 . S
C1509 C1507 1.388 . S
C1509 C1510 1.366 . S
C1510 C1509 1.366 . S
C1510 C1511 1.414 . S
C1510 C1513 1.499 . S
C1511 H1485 0.950 . S
C1511 C1510 1.414 . S
C1511 C1512 1.374 . S
C1512 H1486 0.950 . S
C1512 C1508 1.385 . S
C1512 C1511 1.374 . S
C1513 C1510 1.499 . S
C1513 C1514 1.373 . S
C1513 C1515 1.389 . S
C1514 H1487 0.950 . S
C1514 C1500 1.377 . S
C1514 C1513 1.373 . S
C1515 C1499 1.377 . S
C1515 C1513 1.389 . S
C1515 C1516 1.524 . S
C1516 C1515 1.524 . S
C1516 C1517 1.397 . S
C1516 C1521 1.363 . S
C1517 H1488 0.950 . S
C1517 C1516 1.397 . S
C1517 C1518 1.334 . S
C1518 H1489 0.950 . S
C1518 C1517 1.334 . S
C1518 C1519 1.287 . S
C1519 C1518 1.287 . S
C1519 C1520 1.524 . S
C1519 H1522 0.999 . S
C1520 H1490 0.950 . S
C1520 C1519 1.524 . S
C1520 C1521 1.415 . S
C1521 H1491 0.950 . S
C1521 C1516 1.363 . S
C1521 C1520 1.415 . S
H1522 C1519 0.999 . S
H1523 C1504 0.913 . S
H1524 C1542 0.951 . S
H1525 C1544 0.951 . S
H1526 C1546 0.950 . S
H1527 C1547 0.950 . S
H1528 C1549 0.950 . S
H1529 C1552 0.950 . S
H1530 C1553 0.950 . S
H1531 C1555 0.950 . S
H1532 C1556 0.950 . S
H1533 C1557 0.951 . S
H1534 C1559 0.951 . S
H1535 C1561 0.950 . S
H1536 C1562 0.950 . S
H1537 C1564 0.950 . S
H1538 C1567 0.950 . S
H1539 C1568 0.950 . S
H1540 C1570 0.950 . S
H1541 C1571 0.950 . S
C1542 H1524 0.951 . S
C1542 C1543 1.366 . S
C1542 C1544 1.388 . S
C1543 C1542 1.366 . S
C1543 C1547 1.385 . S
C1544 H1525 0.951 . S
C1544 C1542 1.388 . S
C1544 C1545 1.366 . S
C1545 C1544 1.366 . S
C1545 C1546 1.414 . S
C1545 C1548 1.499 . S
C1546 H1526 0.950 . S
C1546 C1545 1.414 . S
C1546 C1547 1.374 . S
C1547 H1527 0.950 . S
C1547 C1543 1.385 . S
C1547 C1546 1.374 . S
C1548 C1545 1.499 . S
C1548 C1549 1.373 . S
C1548 C1550 1.389 . S
C1549 H1528 0.950 . S
C1549 C1548 1.373 . S
C1549 C1565 1.377 . S
C1550 C1548 1.389 . S
C1550 C1551 1.524 . S
C1550 C1564 1.377 . S
C1551 C1550 1.524 . S
C1551 C1552 1.397 . S
C1551 C1556 1.363 . S
C1552 H1529 0.950 . S
C1552 C1551 1.397 . S
C1552 C1553 1.334 . S
C1553 H1530 0.950 . S
C1553 C1552 1.334 . S
C1553 C1554 1.287 . S
C1554 C1553 1.287 . S
C1554 C1555 1.524 . S
C1554 H1573 0.913 . S
C1555 H1531 0.950 . S
C1555 C1554 1.524 . S
C1555 C1556 1.415 . S
C1556 H1532 0.950 . S
C1556 C1551 1.363 . S
C1556 C1555 1.415 . S
C1557 H1533 0.951 . S
C1557 C1558 1.366 . S
C1557 C1559 1.388 . S
C1558 C1557 1.366 . S
C1558 C1562 1.385 . S
C1559 H1534 0.951 . S
C1559 C1557 1.388 . S
C1559 C1560 1.366 . S
C1560 C1559 1.366 . S
C1560 C1561 1.414 . S
C1560 C1563 1.499 . S
C1561 H1535 0.950 . S
C1561 C1560 1.414 . S
C1561 C1562 1.374 . S
C1562 H1536 0.950 . S
C1562 C1558 1.385 . S
C1562 C1561 1.374 . S
C1563 C1560 1.499 . S
C1563 C1564 1.373 . S
C1563 C1565 1.389 . S
C1564 H1537 0.950 . S
C1564 C1550 1.377 . S
C1564 C1563 1.373 . S
C1565 C1549 1.377 . S
C1565 C1563 1.389 . S
C1565 C1566 1.524 . S
C1566 C1565 1.524 . S
C1566 C1567 1.397 . S
C1566 C1571 1.363 . S
C1567 H1538 0.950 . S
C1567 C1566 1.397 . S
C1567 C1568 1.334 . S
C1568 H1539 0.950 . S
C1568 C1567 1.334 . S
C1568 C1569 1.287 . S
C1569 C1568 1.287 . S
C1569 C1570 1.524 . S
C1569 H1572 0.999 . S
C1570 H1540 0.950 . S
C1570 C1569 1.524 . S
C1570 C1571 1.415 . S
C1571 H1541 0.950 . S
C1571 C1566 1.363 . S
C1571 C1570 1.415 . S
H1572 C1569 0.999 . S
H1573 C1554 0.913 . S
H1574 C1592 0.951 . S
H1575 C1594 0.951 . S
H1576 C1596 0.950 . S
H1577 C1597 0.950 . S
H1578 C1599 0.950 . S
H1579 C1602 0.950 . S
H1580 C1603 0.950 . S
H1581 C1605 0.950 . S
H1582 C1606 0.950 . S
H1583 C1607 0.951 . S
H1584 C1609 0.951 . S
H1585 C1611 0.950 . S
H1586 C1612 0.950 . S
H1587 C1614 0.950 . S
H1588 C1617 0.950 . S
H1589 C1618 0.950 . S
H1590 C1620 0.950 . S
H1591 C1621 0.950 . S
C1592 H1574 0.951 . S
C1592 C1593 1.366 . S
C1592 C1594 1.388 . S
C1593 C1592 1.366 . S
C1593 C1597 1.385 . S
C1594 H1575 0.951 . S
C1594 C1592 1.388 . S
C1594 C1595 1.366 . S
C1595 C1594 1.366 . S
C1595 C1596 1.414 . S
C1595 C1598 1.499 . S
C1596 H1576 0.950 . S
C1596 C1595 1.414 . S
C1596 C1597 1.374 . S
C1597 H1577 0.950 . S
C1597 C1593 1.385 . S
C1597 C1596 1.374 . S
C1598 C1595 1.499 . S
C1598 C1599 1.373 . S
C1598 C1600 1.389 . S
C1599 H1578 0.950 . S
C1599 C1598 1.373 . S
C1599 C1615 1.377 . S
C1600 C1598 1.389 . S
C1600 C1601 1.524 . S
C1600 C1614 1.377 . S
C1601 C1600 1.524 . S
C1601 C1602 1.397 . S
C1601 C1606 1.363 . S
C1602 H1579 0.950 . S
C1602 C1601 1.397 . S
C1602 C1603 1.334 . S
C1603 H1580 0.950 . S
C1603 C1602 1.334 . S
C1603 C1604 1.287 . S
C1604 C1603 1.287 . S
C1604 C1605 1.524 . S
C1604 H1623 0.913 . S
C1605 H1581 0.950 . S
C1605 C1604 1.524 . S
C1605 C1606 1.415 . S
C1606 H1582 0.950 . S
C1606 C1601 1.363 . S
C1606 C1605 1.415 . S
C1607 H1583 0.951 . S
C1607 C1608 1.366 . S
C1607 C1609 1.388 . S
C1608 C1607 1.366 . S
C1608 C1612 1.385 . S
C1609 H1584 0.951 . S
C1609 C1607 1.388 . S
C1609 C1610 1.366 . S
C1610 C1609 1.366 . S
C1610 C1611 1.414 . S
C1610 C1613 1.499 . S
C1611 H1585 0.950 . S
C1611 C1610 1.414 . S
C1611 C1612 1.374 . S
C1612 H1586 0.950 . S
C1612 C1608 1.385 . S
C1612 C1611 1.374 . S
C1613 C1610 1.499 . S
C1613 C1614 1.373 . S
C1613 C1615 1.389 . S
C1614 H1587 0.950 . S
C1614 C1600 1.377 . S
C1614 C1613 1.373 . S
C1615 C1599 1.377 . S
C1615 C1613 1.389 . S
C1615 C1616 1.524 . S
C1616 C1615 1.524 . S
C1616 C1617 1.397 . S
C1616 C1621 1.363 . S
C1617 H1588 0.950 . S
C1617 C1616 1.397 . S
C1617 C1618 1.334 . S
C1618 H1589 0.950 . S
C1618 C1617 1.334 . S
C1618 C1619 1.287 . S
C1619 C1618 1.287 . S
C1619 C1620 1.524 . S
C1619 H1622 0.999 . S
C1620 H1590 0.950 . S
C1620 C1619 1.524 . S
C1620 C1621 1.415 . S
C1621 H1591 0.950 . S
C1621 C1616 1.363 . S
C1621 C1620 1.415 . S
H1622 C1619 0.999 . S
H1623 C1604 0.913 . S
H1624 C1642 0.951 . S
H1625 C1644 0.951 . S
H1626 C1646 0.950 . S
H1627 C1647 0.950 . S
H1628 C1649 0.950 . S
H1629 C1652 0.950 . S
H1630 C1653 0.950 . S
H1631 C1655 0.950 . S
H1632 C1656 0.950 . S
H1633 C1657 0.951 . S
H1634 C1659 0.951 . S
H1635 C1661 0.950 . S
H1636 C1662 0.950 . S
H1637 C1664 0.950 . S
H1638 C1667 0.950 . S
H1639 C1668 0.950 . S
H1640 C1670 0.950 . S
H1641 C1671 0.950 . S
C1642 H1624 0.951 . S
C1642 C1643 1.366 . S
C1642 C1644 1.388 . S
C1643 C1642 1.366 . S
C1643 C1647 1.385 . S
C1644 H1625 0.951 . S
C1644 C1642 1.388 . S
C1644 C1645 1.366 . S
C1645 C1644 1.366 . S
C1645 C1646 1.414 . S
C1645 C1648 1.499 . S
C1646 H1626 0.950 . S
C1646 C1645 1.414 . S
C1646 C1647 1.374 . S
C1647 H1627 0.950 . S
C1647 C1643 1.385 . S
C1647 C1646 1.374 . S
C1648 C1645 1.499 . S
C1648 C1649 1.373 . S
C1648 C1650 1.389 . S
C1649 H1628 0.950 . S
C1649 C1648 1.373 . S
C1649 C1665 1.377 . S
C1650 C1648 1.389 . S
C1650 C1651 1.524 . S
C1650 C1664 1.377 . S
C1651 C1650 1.524 . S
C1651 C1652 1.397 . S
C1651 C1656 1.363 . S
C1652 H1629 0.950 . S
C1652 C1651 1.397 . S
C1652 C1653 1.334 . S
C1653 H1630 0.950 . S
C1653 C1652 1.334 . S
C1653 C1654 1.287 . S
C1654 C1653 1.287 . S
C1654 C1655 1.524 . S
C1654 H1673 0.913 . S
C1655 H1631 0.950 . S
C1655 C1654 1.524 . S
C1655 C1656 1.415 . S
C1656 H1632 0.950 . S
C1656 C1651 1.363 . S
C1656 C1655 1.415 . S
C1657 H1633 0.951 . S
C1657 C1658 1.366 . S
C1657 C1659 1.388 . S
C1658 C1657 1.366 . S
C1658 C1662 1.385 . S
C1659 H1634 0.951 . S
C1659 C1657 1.388 . S
C1659 C1660 1.366 . S
C1660 C1659 1.366 . S
C1660 C1661 1.414 . S
C1660 C1663 1.499 . S
C1661 H1635 0.950 . S
C1661 C1660 1.414 . S
C1661 C1662 1.374 . S
C1662 H1636 0.950 . S
C1662 C1658 1.385 . S
C1662 C1661 1.374 . S
C1663 C1660 1.499 . S
C1663 C1664 1.373 . S
C1663 C1665 1.389 . S
C1664 H1637 0.950 . S
C1664 C1650 1.377 . S
C1664 C1663 1.373 . S
C1665 C1649 1.377 . S
C1665 C1663 1.389 . S
C1665 C1666 1.524 . S
C1666 C1665 1.524 . S
C1666 C1667 1.397 . S
C1666 C1671 1.363 . S
C1667 H1638 0.950 . S
C1667 C1666 1.397 . S
C1667 C1668 1.334 . S
C1668 H1639 0.950 . S
C1668 C1667 1.334 . S
C1668 C1669 1.287 . S
C1669 C1668 1.287 . S
C1669 C1670 1.524 . S
C1669 H1672 0.999 . S
C1670 H1640 0.950 . S
C1670 C1669 1.524 . S
C1670 C1671 1.415 . S
C1671 H1641 0.950 . S
C1671 C1666 1.363 . S
C1671 C1670 1.415 . S
H1672 C1669 0.999 . S
H1673 C1654 0.913 . S
H1674 C1692 0.951 . S
H1675 C1694 0.951 . S
H1676 C1696 0.950 . S
H1677 C1697 0.950 . S
H1678 C1699 0.950 . S
H1679 C1702 0.950 . S
H1680 C1703 0.950 . S
H1681 C1705 0.950 . S
H1682 C1706 0.950 . S
H1683 C1707 0.951 . S
H1684 C1709 0.951 . S
H1685 C1711 0.950 . S
H1686 C1712 0.950 . S
H1687 C1714 0.950 . S
H1688 C1717 0.950 . S
H1689 C1718 0.950 . S
H1690 C1720 0.950 . S
H1691 C1721 0.950 . S
C1692 H1674 0.951 . S
C1692 C1693 1.366 . S
C1692 C1694 1.388 . S
C1693 C1692 1.366 . S
C1693 C1697 1.385 . S
C1694 H1675 0.951 . S
C1694 C1692 1.388 . S
C1694 C1695 1.366 . S
C1695 C1694 1.366 . S
C1695 C1696 1.414 . S
C1695 C1698 1.499 . S
C1696 H1676 0.950 . S
C1696 C1695 1.414 . S
C1696 C1697 1.374 . S
C1697 H1677 0.950 . S
C1697 C1693 1.385 . S
C1697 C1696 1.374 . S
C1698 C1695 1.499 . S
C1698 C1699 1.373 . S
C1698 C1700 1.389 . S
C1699 H1678 0.950 . S
C1699 C1698 1.373 . S
C1699 C1715 1.377 . S
C1700 C1698 1.389 . S
C1700 C1701 1.524 . S
C1700 C1714 1.377 . S
C1701 C1700 1.524 . S
C1701 C1702 1.397 . S
C1701 C1706 1.363 . S
C1702 H1679 0.950 . S
C1702 C1701 1.397 . S
C1702 C1703 1.334 . S
C1703 H1680 0.950 . S
C1703 C1702 1.334 . S
C1703 C1704 1.287 . S
C1704 C1703 1.287 . S
C1704 C1705 1.524 . S
C1704 H1723 0.913 . S
C1705 H1681 0.950 . S
C1705 C1704 1.524 . S
C1705 C1706 1.415 . S
C1706 H1682 0.950 . S
C1706 C1701 1.363 . S
C1706 C1705 1.415 . S
C1707 H1683 0.951 . S
C1707 C1708 1.366 . S
C1707 C1709 1.388 . S
C1708 C1707 1.366 . S
C1708 C1712 1.385 . S
C1709 H1684 0.951 . S
C1709 C1707 1.388 . S
C1709 C1710 1.366 . S
C1710 C1709 1.366 . S
C1710 C1711 1.414 . S
C1710 C1713 1.499 . S
C1711 H1685 0.950 . S
C1711 C1710 1.414 . S
C1711 C1712 1.374 . S
C1712 H1686 0.950 . S
C1712 C1708 1.385 . S
C1712 C1711 1.374 . S
C1713 C1710 1.499 . S
C1713 C1714 1.373 . S
C1713 C1715 1.389 . S
C1714 H1687 0.950 . S
C1714 C1700 1.377 . S
C1714 C1713 1.373 . S
C1715 C1699 1.377 . S
C1715 C1713 1.389 . S
C1715 C1716 1.524 . S
C1716 C1715 1.524 . S
C1716 C1717 1.397 . S
C1716 C1721 1.363 . S
C1717 H1688 0.950 . S
C1717 C1716 1.397 . S
C1717 C1718 1.334 . S
C1718 H1689 0.950 . S
C1718 C1717 1.334 . S
C1718 C1719 1.287 . S
C1719 C1718 1.287 . S
C1719 C1720 1.524 . S
C1719 H1722 0.999 . S
C1720 H1690 0.950 . S
C1720 C1719 1.524 . S
C1720 C1721 1.415 . S
C1721 H1691 0.950 . S
C1721 C1716 1.363 . S
C1721 C1720 1.415 . S
H1722 C1719 0.999 . S
H1723 C1704 0.913 . S
H1724 C1742 0.951 . S
H1725 C1744 0.951 . S
H1726 C1746 0.950 . S
H1727 C1747 0.950 . S
H1728 C1749 0.950 . S
H1729 C1752 0.950 . S
H1730 C1753 0.950 . S
H1731 C1755 0.950 . S
H1732 C1756 0.950 . S
H1733 C1757 0.951 . S
H1734 C1759 0.951 . S
H1735 C1761 0.950 . S
H1736 C1762 0.950 . S
H1737 C1764 0.950 . S
H1738 C1767 0.950 . S
H1739 C1768 0.950 . S
H1740 C1770 0.950 . S
H1741 C1771 0.950 . S
C1742 H1724 0.951 . S
C1742 C1743 1.366 . S
C1742 C1744 1.388 . S
C1743 C1742 1.366 . S
C1743 C1747 1.385 . S
C1744 H1725 0.951 . S
C1744 C1742 1.388 . S
C1744 C1745 1.366 . S
C1745 C1744 1.366 . S
C1745 C1746 1.414 . S
C1745 C1748 1.499 . S
C1746 H1726 0.950 . S
C1746 C1745 1.414 . S
C1746 C1747 1.374 . S
C1747 H1727 0.950 . S
C1747 C1743 1.385 . S
C1747 C1746 1.374 . S
C1748 C1745 1.499 . S
C1748 C1749 1.373 . S
C1748 C1750 1.389 . S
C1749 H1728 0.950 . S
C1749 C1748 1.373 . S
C1749 C1765 1.377 . S
C1750 C1748 1.389 . S
C1750 C1751 1.524 . S
C1750 C1764 1.377 . S
C1751 C1750 1.524 . S
C1751 C1752 1.397 . S
C1751 C1756 1.363 . S
C1752 H1729 0.950 . S
C1752 C1751 1.397 . S
C1752 C1753 1.334 . S
C1753 H1730 0.950 . S
C1753 C1752 1.334 . S
C1753 C1754 1.287 . S
C1754 C1753 1.287 . S
C1754 C1755 1.524 . S
C1754 H1773 0.913 . S
C1755 H1731 0.950 . S
C1755 C1754 1.524 . S
C1755 C1756 1.415 . S
C1756 H1732 0.950 . S
C1756 C1751 1.363 . S
C1756 C1755 1.415 . S
C1757 H1733 0.951 . S
C1757 C1758 1.366 . S
C1757 C1759 1.388 . S
C1758 C1757 1.366 . S
C1758 C1762 1.385 . S
C1759 H1734 0.951 . S
C1759 C1757 1.388 . S
C1759 C1760 1.366 . S
C1760 C1759 1.366 . S
C1760 C1761 1.414 . S
C1760 C1763 1.499 . S
C1761 H1735 0.950 . S
C1761 C1760 1.414 . S
C1761 C1762 1.374 . S
C1762 H1736 0.950 . S
C1762 C1758 1.385 . S
C1762 C1761 1.374 . S
C1763 C1760 1.499 . S
C1763 C1764 1.373 . S
C1763 C1765 1.389 . S
C1764 H1737 0.950 . S
C1764 C1750 1.377 . S
C1764 C1763 1.373 . S
C1765 C1749 1.377 . S
C1765 C1763 1.389 . S
C1765 C1766 1.524 . S
C1766 C1765 1.524 . S
C1766 C1767 1.397 . S
C1766 C1771 1.363 . S
C1767 H1738 0.950 . S
C1767 C1766 1.397 . S
C1767 C1768 1.334 . S
C1768 H1739 0.950 . S
C1768 C1767 1.334 . S
C1768 C1769 1.287 . S
C1769 C1768 1.287 . S
C1769 C1770 1.524 . S
C1769 H1772 0.999 . S
C1770 H1740 0.950 . S
C1770 C1769 1.524 . S
C1770 C1771 1.415 . S
C1771 H1741 0.950 . S
C1771 C1766 1.363 . S
C1771 C1770 1.415 . S
H1772 C1769 0.999 . S
H1773 C1754 0.913 . S
H1774 C1792 0.951 . S
H1775 C1794 0.951 . S
H1776 C1796 0.950 . S
H1777 C1797 0.950 . S
H1778 C1799 0.950 . S
H1779 C1802 0.950 . S
H1780 C1803 0.950 . S
H1781 C1805 0.950 . S
H1782 C1806 0.950 . S
H1783 C1807 0.951 . S
H1784 C1809 0.951 . S
H1785 C1811 0.950 . S
H1786 C1812 0.950 . S
H1787 C1814 0.950 . S
H1788 C1817 0.950 . S
H1789 C1818 0.950 . S
H1790 C1820 0.950 . S
H1791 C1821 0.950 . S
C1792 H1774 0.951 . S
C1792 C1793 1.366 . S
C1792 C1794 1.388 . S
C1793 C1792 1.366 . S
C1793 C1797 1.385 . S
C1794 H1775 0.951 . S
C1794 C1792 1.388 . S
C1794 C1795 1.366 . S
C1795 C1794 1.366 . S
C1795 C1796 1.414 . S
C1795 C1798 1.499 . S
C1796 H1776 0.950 . S
C1796 C1795 1.414 . S
C1796 C1797 1.374 . S
C1797 H1777 0.950 . S
C1797 C1793 1.385 . S
C1797 C1796 1.374 . S
C1798 C1795 1.499 . S
C1798 C1799 1.373 . S
C1798 C1800 1.389 . S
C1799 H1778 0.950 . S
C1799 C1798 1.373 . S
C1799 C1815 1.377 . S
C1800 C1798 1.389 . S
C1800 C1801 1.524 . S
C1800 C1814 1.377 . S
C1801 C1800 1.524 . S
C1801 C1802 1.397 . S
C1801 C1806 1.363 . S
C1802 H1779 0.950 . S
C1802 C1801 1.397 . S
C1802 C1803 1.334 . S
C1803 H1780 0.950 . S
C1803 C1802 1.334 . S
C1803 C1804 1.287 . S
C1804 C1803 1.287 . S
C1804 C1805 1.524 . S
C1804 H1823 0.913 . S
C1805 H1781 0.950 . S
C1805 C1804 1.524 . S
C1805 C1806 1.415 . S
C1806 H1782 0.950 . S
C1806 C1801 1.363 . S
C1806 C1805 1.415 . S
C1807 H1783 0.951 . S
C1807 C1808 1.366 . S
C1807 C1809 1.388 . S
C1808 C1807 1.366 . S
C1808 C1812 1.385 . S
C1809 H1784 0.951 . S
C1809 C1807 1.388 . S
C1809 C1810 1.366 . S
C1810 C1809 1.366 . S
C1810 C1811 1.414 . S
C1810 C1813 1.499 . S
C1811 H1785 0.950 . S
C1811 C1810 1.414 . S
C1811 C1812 1.374 . S
C1812 H1786 0.950 . S
C1812 C1808 1.385 . S
C1812 C1811 1.374 . S
C1813 C1810 1.499 . S
C1813 C1814 1.373 . S
C1813 C1815 1.389 . S
C1814 H1787 0.950 . S
C1814 C1800 1.377 . S
C1814 C1813 1.373 . S
C1815 C1799 1.377 . S
C1815 C1813 1.389 . S
C1815 C1816 1.524 . S
C1816 C1815 1.524 . S
C1816 C1817 1.397 . S
C1816 C1821 1.363 . S
C1817 H1788 0.950 . S
C1817 C1816 1.397 . S
C1817 C1818 1.334 . S
C1818 H1789 0.950 . S
C1818 C1817 1.334 . S
C1818 C1819 1.287 . S
C1819 C1818 1.287 . S
C1819 C1820 1.524 . S
C1819 H1822 0.999 . S
C1820 H1790 0.950 . S
C1820 C1819 1.524 . S
C1820 C1821 1.415 . S
C1821 H1791 0.950 . S
C1821 C1816 1.363 . S
C1821 C1820 1.415 . S
H1822 C1819 0.999 . S
H1823 C1804 0.913 . S
C243 C64 1.392 1_556 S
C258 C8 1.393 1_554 S
C293 C78 1.392 1_556 S
C308 C22 1.392 1_554 S
C343 C92 1.392 1_556 S
C358 C36 1.392 1_554 S
C393 C106 1.392 1_556 S
C408 C50 1.393 1_554 S
C443 C176 1.392 . S
C458 C120 1.392 . S
C493 C190 1.392 . S
C508 C134 1.393 . S
C543 C148 1.392 . S
C558 C204 1.393 . S
C593 C218 1.392 . S
C608 C162 1.392 . S
C643 C9 1.463 . S
C658 C79 1.463 . S
C693 C93 1.463 . S
C708 C23 1.463 . S
C743 C37 1.463 . S
C758 C107 1.462 . S
C793 C65 1.463 . S
C808 C51 1.463 . S
C843 C191 1.462 . S
C858 C121 1.463 . S
C893 C205 1.463 . S
C908 C135 1.462 . S
C943 C149 1.462 . S
C958 C219 1.462 . S
C993 C163 1.462 . S
C1008 C177 1.463 . S
C1043 C217 1.342 . S
C1058 C7 1.339 . S
C1093 C175 1.342 . S
C1108 C21 1.339 . S
C1143 C189 1.342 . S
C1158 C35 1.339 . S
C1193 C203 1.342 . S
C1208 C49 1.340 . S
C1243 C133 1.343 . S
C1258 C63 1.347 . S
C1293 C147 1.342 . S
C1308 C77 1.346 . S
C1343 C91 1.343 . S
C1358 C161 1.347 . S
C1393 C105 1.342 . S
C1408 C119 1.346 . S
C1443 C185 1.336 . S
C1458 C31 1.339 . S
C1493 C199 1.336 . S
C1508 C45 1.339 . S
C1543 C213 1.336 . S
C1558 C3 1.340 . S
C1593 C17 1.336 . S
C1608 C171 1.339 . S
C1643 C157 1.336 . S
C1658 C87 1.333 . S
C1693 C101 1.336 . S
C1708 C115 1.333 . S
C1743 C129 1.336 . S
C1758 C59 1.333 . S
C1793 C143 1.336 . S
C1808 C73 1.333 . S
