# Generated by pormake.
# Topology mok, (4)-cn, num edge types: 1
# Building blocks:
#     Node 0, Type 0, BuildingBlock: ICAMEG_clean_sbu_1, # of connection points: 4
#     Node 1, Type 0, BuildingBlock: ICAMEG_clean_sbu_1, # of connection points: 4
#     Node 2, Type 0, BuildingBlock: ICAMEG_clean_sbu_1, # of connection points: 4
#     Node 3, Type 0, BuildingBlock: ICAMEG_clean_sbu_1, # of connection points: 4
#     Node 4, Type 0, BuildingBlock: ICAMEG_clean_sbu_1, # of connection points: 4
#     Node 5, Type 0, BuildingBlock: ICAMEG_clean_sbu_1, # of connection points: 4
#     Node 6, Type 0, BuildingBlock: ICAMEG_clean_sbu_1, # of connection points: 4
#     Node 7, Type 0, BuildingBlock: ICAMEG_clean_sbu_1, # of connection points: 4
#     Edge 8, Type (0, 0), BuildingBlock: AJUNOK_clean_linker_0, # of connection points: 2
#     Edge 9, Type (0, 0), BuildingBlock: AJUNOK_clean_linker_0, # of connection points: 2
#     Edge 10, Type (0, 0), BuildingBlock: AJUNOK_clean_linker_0, # of connection points: 2
#     Edge 11, Type (0, 0), BuildingBlock: AJUNOK_clean_linker_0, # of connection points: 2
#     Edge 12, Type (0, 0), BuildingBlock: AJUNOK_clean_linker_0, # of connection points: 2
#     Edge 13, Type (0, 0), BuildingBlock: AJUNOK_clean_linker_0, # of connection points: 2
#     Edge 14, Type (0, 0), BuildingBlock: AJUNOK_clean_linker_0, # of connection points: 2
#     Edge 15, Type (0, 0), BuildingBlock: AJUNOK_clean_linker_0, # of connection points: 2
#     Edge 16, Type (0, 0), BuildingBlock: AJUNOK_clean_linker_0, # of connection points: 2
#     Edge 17, Type (0, 0), BuildingBlock: AJUNOK_clean_linker_0, # of connection points: 2
#     Edge 18, Type (0, 0), BuildingBlock: AJUNOK_clean_linker_0, # of connection points: 2
#     Edge 19, Type (0, 0), BuildingBlock: AJUNOK_clean_linker_0, # of connection points: 2
#     Edge 20, Type (0, 0), BuildingBlock: AJUNOK_clean_linker_0, # of connection points: 2
#     Edge 21, Type (0, 0), BuildingBlock: AJUNOK_clean_linker_0, # of connection points: 2
#     Edge 22, Type (0, 0), BuildingBlock: AJUNOK_clean_linker_0, # of connection points: 2
#     Edge 23, Type (0, 0), BuildingBlock: AJUNOK_clean_linker_0, # of connection points: 2
# Relax obj value: 0.014
# Max RMSD: 0.046
# Mean RMSD: 0.046
data_MOF--net-mok--node1-ICAMEG_clean_sbu_1--edge1-AJUNOK_clean_linker_0
_symmetry_space_group_name_H-M    P1
_symmetry_Int_Tables_number       1
_symmetry_cell_setting            triclinic
loop_
_symmetry_equiv_pos_as_xyz
'x, y, z'
_cell_length_a     43.141482
_cell_length_b     11.245176
_cell_length_c     22.446156
_cell_angle_alpha  90.063893
_cell_angle_beta   89.777771
_cell_angle_gamma 90.288916
loop_
_atom_site_label
_atom_site_type_symbol
_atom_site_fract_x
_atom_site_fract_y
_atom_site_fract_z
_atom_type_partial_charge
Co0 Co 0.65143 0.45653 0.08426 0.0
Co1 Co 0.6331 0.1808 0.02582 0.0
O2 O 0.62601 0.31119 0.08242 0.0
C3 C 0.66946 0.45869 0.21221 0.0
O4 O 0.6985 0.45262 0.19483 0.0
C5 C 0.56779 0.14929 0.06377 0.0
O6 O 0.57678 0.1852 0.11672 0.0
O7 O 0.63107 0.29617 0.95839 0.0
O8 O 0.65471 0.45913 0.99527 0.0
H9 H 0.6939 0.9801 0.86197 0.0
H10 H 0.59115 0.45134 0.14804 0.0
O11 O 0.64772 0.45707 0.17381 0.0
H12 H 0.58097 0.76757 0.99775 0.0
H13 H 0.68732 0.84995 0.16786 0.0
H14 H 0.70822 0.53436 0.02154 0.0
H15 H 0.6304 0.66012 0.00901 0.0
H16 H 0.65055 0.68181 0.15579 0.0
O17 O 0.58678 0.15507 0.02002 0.0
H18 H 0.68246 0.13362 0.93537 0.0
H19 H 0.5946 0.97648 0.96913 0.0
H20 H 0.74411 0.70387 0.02944 0.0
H21 H 0.54194 0.56062 0.13995 0.0
H22 H 0.734 0.86247 0.1042 0.0
H23 H 0.53661 0.71938 0.06393 0.0
O24 O 0.69013 0.36187 0.08804 0.0
H25 H 0.60186 0.81983 0.14963 0.0
H26 H 0.66245 0.19068 0.14461 0.0
H27 H 0.65994 0.07586 0.23667 0.0
H28 H 0.62883 0.88969 0.2405 0.0
H29 H 0.60504 0.93566 0.05885 0.0
H30 H 0.60501 0.82341 0.89547 0.0
H31 H 0.6551 0.82249 0.8414 0.0
O32 O 0.67955 0.20262 0.03187 0.0
C33 C 0.64338 0.39906 0.9522 0.0
C34 C 0.6727 0.97526 0.88782 0.0
C35 C 0.62285 0.88767 0.90654 0.0
N36 N 0.63998 0.05513 0.9656 0.0
C37 C 0.6664 0.06049 0.93148 0.0
C38 C 0.61743 0.97443 0.94994 0.0
C39 C 0.65093 0.88702 0.87613 0.0
C40 C 0.58926 0.52205 0.11571 0.0
N41 N 0.61373 0.54962 0.07932 0.0
C42 C 0.56125 0.58309 0.11108 0.0
C43 C 0.55825 0.67205 0.06839 0.0
C44 C 0.58322 0.6993 0.03126 0.0
C45 C 0.61107 0.6377 0.03773 0.0
C46 C 0.69138 0.78283 0.1344 0.0
C47 C 0.70285 0.60537 0.0522 0.0
C48 C 0.67081 0.68734 0.12751 0.0
N49 N 0.67692 0.59928 0.08727 0.0
C50 C 0.72353 0.70057 0.05705 0.0
C51 C 0.71781 0.78943 0.09882 0.0
C52 C 0.69871 0.27019 0.0592 0.0
C53 C 0.6158 0.90006 0.14833 0.0
C54 C 0.65012 0.10743 0.14394 0.0
C55 C 0.64826 0.04358 0.19719 0.0
C56 C 0.63073 0.93965 0.19944 0.0
N57 N 0.63505 0.06978 0.09362 0.0
C58 C 0.61839 0.96577 0.09574 0.0
Co59 Co 0.37298 0.52936 0.05686 0.0
Co60 Co 0.39427 0.81104 0.00941 0.0
O61 O 0.39953 0.67258 0.06255 0.0
C62 C 0.38399 0.56601 0.18937 0.0
O63 O 0.40079 0.66146 0.17925 0.0
C64 C 0.45857 0.83885 0.05363 0.0
O65 O 0.44832 0.79535 0.10434 0.0
O66 O 0.39843 0.70386 0.93871 0.0
O67 O 0.37185 0.54228 0.96824 0.0
H68 H 0.34324 0.18173 0.93065 0.0
H69 H 0.43417 0.51818 0.1191 0.0
O70 O 0.37238 0.50755 0.1461 0.0
H71 H 0.43863 0.21049 0.96303 0.0
H72 H 0.33458 0.11946 0.11223 0.0
H73 H 0.31651 0.47219 0.98786 0.0
H74 H 0.3917 0.332 0.97622 0.0
H75 H 0.3708 0.29066 0.11519 0.0
O76 O 0.44063 0.8395 0.0085 0.0
H77 H 0.34941 0.01244 0.99965 0.0
H78 H 0.42783 0.89425 0.90182 0.0
H79 H 0.28014 0.30319 0.98248 0.0
H80 H 0.48117 0.39703 0.10838 0.0
H81 H 0.28904 0.12497 0.04521 0.0
H82 H 0.48366 0.24195 0.02976 0.0
O83 O 0.33544 0.62909 0.06353 0.0
H84 H 0.42109 0.17339 0.13144 0.0
H85 H 0.36099 0.80037 0.12683 0.0
H86 H 0.3595 0.92524 0.21664 0.0
H87 H 0.39015 0.11272 0.21987 0.0
H88 H 0.42093 0.04773 0.04154 0.0
H89 H 0.42284 0.06321 0.83263 0.0
H90 H 0.38038 0.20868 0.84714 0.0
O91 O 0.34775 0.78976 0.00853 0.0
C92 C 0.38533 0.60409 0.92828 0.0
C93 C 0.36197 0.11938 0.92434 0.0
C94 C 0.40667 0.05301 0.86928 0.0
N95 N 0.3893 0.94467 0.95543 0.0
C96 C 0.36554 0.02329 0.96312 0.0
C97 C 0.40948 0.95782 0.90879 0.0
C98 C 0.38283 0.13455 0.8774 0.0
C99 C 0.43467 0.44957 0.08565 0.0
N100 N 0.40977 0.43081 0.04935 0.0
C101 C 0.46154 0.38171 0.0794 0.0
C102 C 0.46298 0.29489 0.03518 0.0
C103 C 0.43771 0.27726 0.99774 0.0
C104 C 0.41117 0.34626 1.00555 0.0
C105 C 0.33064 0.19622 0.08443 0.0
C106 C 0.32084 0.39448 0.01452 0.0
C107 C 0.35108 0.29306 0.08585 0.0
N108 N 0.34603 0.39065 0.05116 0.0
C109 C 0.30001 0.29925 0.01168 0.0
C110 C 0.30499 0.19947 0.04696 0.0
C111 C 0.32815 0.72303 0.03542 0.0
C112 C 0.40755 0.09215 0.13054 0.0
C113 C 0.37366 0.88297 0.12686 0.0
C114 C 0.37302 0.95297 0.17834 0.0
C115 C 0.39025 0.05796 0.18019 0.0
N116 N 0.39078 0.91648 0.07835 0.0
C117 C 0.4072 0.02091 0.07957 0.0
Co118 Co 0.65342 0.5531 0.59055 0.0
Co119 Co 0.63214 0.8328 0.64057 0.0
O120 O 0.62655 0.69445 0.58714 0.0
C121 C 0.6422 0.59337 0.45795 0.0
O122 O 0.6236 0.68326 0.46794 0.0
C123 C 0.56565 0.84834 0.60475 0.0
O124 O 0.57418 0.81597 0.55093 0.0
O125 O 0.63051 0.72623 0.71148 0.0
O126 O 0.65458 0.5614 0.67927 0.0
H127 H 0.68372 0.20704 0.716 0.0
H128 H 0.59187 0.54116 0.52923 0.0
O129 O 0.6541 0.53627 0.50115 0.0
H130 H 0.58806 0.23115 0.68388 0.0
H131 H 0.69238 0.14868 0.52912 0.0
H132 H 0.70945 0.49445 0.66021 0.0
H133 H 0.63533 0.35119 0.66893 0.0
H134 H 0.65628 0.31872 0.5276 0.0
O135 O 0.58574 0.85242 0.64631 0.0
H136 H 0.67664 0.03729 0.6476 0.0
H137 H 0.59935 0.91735 0.74921 0.0
H138 H 0.74569 0.32604 0.66374 0.0
H139 H 0.54457 0.42074 0.54134 0.0
H140 H 0.73731 0.1515 0.59764 0.0
H141 H 0.54229 0.26461 0.61945 0.0
O142 O 0.69089 0.65568 0.58421 0.0
H143 H 0.60179 0.19366 0.52159 0.0
H144 H 0.66384 0.8276 0.52176 0.0
H145 H 0.66409 0.95519 0.43302 0.0
H146 H 0.63271 0.13976 0.43231 0.0
H147 H 0.60253 0.06368 0.61005 0.0
H148 H 0.60467 0.08945 0.81666 0.0
H149 H 0.64746 0.23456 0.80072 0.0
O150 O 0.67863 0.81767 0.63791 0.0
C151 C 0.64257 0.62454 0.72017 0.0
C152 C 0.66501 0.14432 0.72323 0.0
C153 C 0.62058 0.07853 0.77967 0.0
N154 N 0.63742 0.96772 0.69398 0.0
C155 C 0.66098 0.04756 0.6849 0.0
C156 C 0.61757 0.98163 0.74106 0.0
C157 C 0.64459 0.15994 0.77076 0.0
C158 C 0.59153 0.4718 0.5622 0.0
N159 N 0.61678 0.45203 0.59731 0.0
C160 C 0.56445 0.4045 0.56935 0.0
C161 C 0.56314 0.31719 0.61329 0.0
C162 C 0.58883 0.29823 0.64937 0.0
C163 C 0.6156 0.36637 0.64052 0.0
C164 C 0.69611 0.22392 0.55827 0.0
C165 C 0.70538 0.41831 0.63181 0.0
C166 C 0.67577 0.32028 0.55765 0.0
N167 N 0.68053 0.41584 0.5942 0.0
C168 C 0.72613 0.32348 0.63372 0.0
C169 C 0.72142 0.22568 0.59664 0.0
C170 C 0.69819 0.75168 0.61099 0.0
C171 C 0.6156 0.1137 0.5215 0.0
C172 C 0.65055 0.9083 0.52256 0.0
C173 C 0.65057 0.97998 0.47177 0.0
C174 C 0.63291 0.08329 0.47132 0.0
N175 N 0.6334 0.93811 0.57159 0.0
C176 C 0.61625 0.04006 0.57155 0.0
Co177 Co 0.38056 0.45916 0.56515 0.0
Co178 Co 0.38525 0.17706 0.61613 0.0
O179 O 0.39932 0.3036 0.56291 0.0
C180 C 0.36885 0.40805 0.43592 0.0
O181 O 0.35005 0.32131 0.45128 0.0
C182 C 0.44549 0.07171 0.65144 0.0
O183 O 0.43667 0.08777 0.70693 0.0
O184 O 0.39797 0.2766 0.68593 0.0
O185 O 0.37923 0.45308 0.65446 0.0
H186 H 0.33452 0.01055 0.79978 0.0
H187 H 0.43906 0.42388 0.49822 0.0
O188 O 0.38294 0.46781 0.47578 0.0
H189 H 0.46355 0.72495 0.65101 0.0
H190 H 0.34573 0.8244 0.46712 0.0
H191 H 0.33162 0.56467 0.64047 0.0
H192 H 0.41069 0.64277 0.64203 0.0
H193 H 0.38522 0.67931 0.49186 0.0
O194 O 0.42796 0.1057 0.60909 0.0
H195 H 0.35164 0.16784 0.73091 0.0
H196 H 0.39067 0.91088 0.61453 0.0
H197 H 0.29439 0.72511 0.62379 0.0
H198 H 0.49227 0.50342 0.50524 0.0
H199 H 0.29966 0.85133 0.53413 0.0
H200 H 0.50501 0.65248 0.58304 0.0
O201 O 0.33825 0.38911 0.55998 0.0
H202 H 0.39644 0.06354 0.4025 0.0
H203 H 0.32561 0.06326 0.57525 0.0
H204 H 0.30444 0.03547 0.47438 0.0
H205 H 0.33998 0.03367 0.38712 0.0
H206 H 0.41577 0.11197 0.50235 0.0
H207 H 0.37405 0.75038 0.68359 0.0
H208 H 0.34609 0.79958 0.77626 0.0
O209 O 0.34231 0.24323 0.62554 0.0
C210 C 0.39018 0.38519 0.69483 0.0
C211 C 0.34688 0.98774 0.75934 0.0
C212 C 0.36916 0.84192 0.69379 0.0
N213 N 0.37214 0.04895 0.66868 0.0
C214 C 0.35663 0.07659 0.72005 0.0
C215 C 0.37838 0.93305 0.65509 0.0
C216 C 0.35334 0.86958 0.74611 0.0
C217 C 0.44422 0.49093 0.53132 0.0
N218 N 0.42163 0.52978 0.56939 0.0
C219 C 0.47446 0.53513 0.53529 0.0
C220 C 0.48155 0.61924 0.57881 0.0
C221 C 0.45833 0.65951 0.61704 0.0
C222 C 0.42835 0.61333 0.61164 0.0
C223 C 0.34331 0.77414 0.50762 0.0
C224 C 0.33596 0.62689 0.60476 0.0
C225 C 0.36551 0.68942 0.52121 0.0
N226 N 0.3606 0.61208 0.56694 0.0
C227 C 0.3143 0.71601 0.59473 0.0
C228 C 0.31746 0.78742 0.54457 0.0
C229 C 0.32594 0.31278 0.59425 0.0
C230 C 0.38071 0.06364 0.44018 0.0
C231 C 0.34126 0.06505 0.53758 0.0
C232 C 0.32908 0.04905 0.48046 0.0
C233 C 0.34902 0.04797 0.43149 0.0
N234 N 0.37196 0.09111 0.54522 0.0
C235 C 0.39173 0.08722 0.49745 0.0
Co236 Co 0.14007 0.93289 0.06583 0.0
Co237 Co 0.13664 0.65114 0.01426 0.0
O238 O 0.12141 0.77581 0.06721 0.0
C239 C 0.1486 0.88689 0.19646 0.0
O240 O 0.16721 0.7994 0.18234 0.0
C241 C 0.07742 0.54051 0.97479 0.0
O242 O 0.08677 0.56236 0.92016 0.0
O243 O 0.12434 0.75023 0.94411 0.0
O244 O 0.14415 0.92455 0.97665 0.0
H245 H 0.19042 0.49234 0.8323 0.0
H246 H 0.07923 0.89355 0.12414 0.0
O247 O 0.13511 0.94505 0.15534 0.0
H248 H 0.05982 0.16546 0.95631 0.0
H249 H 0.1708 0.30671 0.16297 0.0
H250 H 0.19113 0.03863 0.99513 0.0
H251 H 0.11309 0.1131 0.98469 0.0
H252 H 0.13278 0.15584 0.13617 0.0
O253 O 0.09422 0.57356 0.01863 0.0
H254 H 0.17196 0.64729 0.90112 0.0
H255 H 0.13245 0.38481 0.01455 0.0
H256 H 0.22743 0.20258 0.01424 0.0
H257 H 0.02544 0.94444 0.09791 0.0
H258 H 0.21897 0.33309 0.10135 0.0
H259 H 0.01566 0.07326 0.01033 0.0
O260 O 0.1821 0.86521 0.07547 0.0
H261 H 0.12244 0.53332 0.22644 0.0
H262 H 0.19644 0.54607 0.05877 0.0
H263 H 0.21592 0.52131 0.161 0.0
H264 H 0.17882 0.51455 0.24582 0.0
H265 H 0.10442 0.57611 0.12513 0.0
H266 H 0.15044 0.22679 0.94565 0.0
H267 H 0.17935 0.27997 0.85437 0.0
O268 O 0.17934 0.72293 0.00739 0.0
C269 C 0.13298 0.85825 0.93564 0.0
C270 C 0.1777 0.46783 0.87213 0.0
C271 C 0.15517 0.31893 0.93603 0.0
N272 N 0.15114 0.52533 0.96191 0.0
C273 C 0.16718 0.55527 0.9114 0.0
C274 C 0.14518 0.40868 0.97469 0.0
C275 C 0.17151 0.34885 0.88453 0.0
C276 C 0.07507 0.95545 0.08826 0.0
N277 N 0.09926 5e-05 0.05566 0.0
C278 C 0.04458 0.98284 0.07322 0.0
C279 C 0.03906 0.05634 0.02454 0.0
C280 C 0.06388 0.107 0.99375 0.0
C281 C 0.09402 0.07813 0.01033 0.0
C282 C 0.17472 0.25404 0.12372 0.0
C283 C 0.18555 0.10206 0.02964 0.0
C284 C 0.15331 0.16624 0.10895 0.0
N285 N 0.15986 0.08695 0.06488 0.0
C286 C 0.20664 0.19339 0.04102 0.0
C287 C 0.20168 0.26729 0.08973 0.0
C288 C 0.19508 0.79315 0.04 0.0
C289 C 0.13886 0.53657 0.1899 0.0
C290 C 0.18009 0.54516 0.09533 0.0
C291 C 0.19131 0.53093 0.15325 0.0
C292 C 0.1705 0.52702 0.20084 0.0
N293 N 0.14933 0.56584 0.08555 0.0
C294 C 0.12868 0.55743 0.13183 0.0
Co295 Co 0.88078 0.98362 0.06658 0.0
Co296 Co 0.8955 0.27653 0.03006 0.0
O297 O 0.90492 0.13269 0.07667 0.0
C298 C 0.86594 0.06718 0.1885 0.0
O299 O 0.86601 0.1763 0.16801 0.0
C300 C 0.9659 0.25547 0.01945 0.0
O301 O 0.9666 0.15886 0.05218 0.0
O302 O 0.89048 0.17942 0.95527 0.0
O303 O 0.89172 0.98653 0.981 0.0
H304 H 0.82871 0.49693 0.88721 0.0
H305 H 0.92963 -0.0018 0.15943 0.0
O306 O 0.87043 0.98012 0.15343 0.0
H307 H 0.96094 0.67047 0.02653 0.0
H308 H 0.82275 0.61627 0.13338 0.0
H309 H 0.8428 0.88964 0.96744 0.0
H310 H 0.91259 0.78272 0.00827 0.0
H311 H 0.86368 0.77044 0.14208 0.0
O312 O 0.94018 0.304 0.00661 0.0
H313 H 0.84244 0.33518 0.95393 0.0
H314 H 0.9262 0.51193 1.00078 0.0
H315 H 0.80639 0.72453 0.95384 0.0
H316 H 0.97745 0.88697 0.18081 0.0
H317 H 0.79559 0.58735 0.03793 0.0
H318 H 0.99336 0.7217 0.11398 0.0
O319 O 0.84113 0.06696 0.05073 0.0
H320 H 0.95036 0.39303 0.21932 0.0
H321 H 0.86007 0.4682 0.09129 0.0
H322 H 0.8658 0.57721 0.18759 0.0
H323 H 0.91152 0.54303 0.25015 0.0
H324 H 0.94258 0.28038 0.12758 0.0
H325 H 0.91574 0.66607 0.92507 0.0
H326 H 0.86603 0.66035 0.86925 0.0
O327 O 0.85072 0.26096 0.0518 0.0
C328 C 0.89272 0.06893 0.94224 0.0
C329 C 0.85035 0.50068 0.91126 0.0
C330 C 0.89896 0.59625 0.93349 0.0
N331 N 0.88481 0.41487 0.98291 0.0
C332 C 0.85792 0.41056 0.95085 0.0
C333 C 0.90496 0.50783 0.97562 0.0
C334 C 0.8713 0.59284 0.90168 0.0
C335 C 0.93619 0.92542 0.13062 0.0
N336 N 0.91828 0.89562 0.08275 0.0
C337 C 0.96334 0.86302 0.14283 0.0
C338 C 0.97226 0.77032 0.10533 0.0
C339 C 0.95401 0.74129 0.05631 0.0
C340 C 0.92684 0.80503 0.0459 0.0
C341 C 0.82843 0.67277 0.09595 0.0
C342 C 0.84055 0.82518 1.00266 0.0
C343 C 0.85124 0.7613 0.10073 0.0
N344 N 0.85664 0.83827 0.05478 0.0
C345 C 0.81899 0.73346 0.99523 0.0
C346 C 0.81281 0.65712 0.04243 0.0
C347 C 0.832 0.1738 0.05119 0.0
C348 C 0.93066 0.41166 0.19119 0.0
C349 C 0.88008 0.45334 0.11883 0.0
C350 C 0.88321 0.51538 0.1727 0.0
C351 C 0.90887 0.49545 0.20851 0.0
N352 N 0.90161 0.37143 0.10191 0.0
C353 C 0.92638 0.34918 0.13809 0.0
Co354 Co 0.1482 0.01976 0.57596 0.0
Co355 Co 0.12753 0.29981 0.62604 0.0
O356 O 0.12129 0.16199 0.57224 0.0
C357 C 0.13529 0.05424 0.44309 0.0
O358 O 0.11841 0.14885 0.45342 0.0
C359 C 0.06148 0.33389 0.58975 0.0
O360 O 0.06942 0.30286 0.53538 0.0
O361 O 0.12463 0.1915 0.69656 0.0
O362 O 0.15059 0.03139 0.66464 0.0
H363 H 0.17996 0.67228 0.702 0.0
H364 H 0.08621 0.00534 0.51667 0.0
O365 O 0.14759 -0.00195 0.48631 0.0
H366 H 0.08386 0.69904 0.67332 0.0
H367 H 0.18597 0.61069 0.51947 0.0
H368 H 0.2052 0.96478 0.64326 0.0
H369 H 0.13064 0.82147 0.65735 0.0
H370 H 0.14994 0.7812 0.5171 0.0
O371 O 0.08129 0.32577 0.63165 0.0
H372 H 0.17271 0.50238 0.63349 0.0
H373 H 0.09588 0.38169 0.73606 0.0
H374 H 0.24126 0.79646 0.64817 0.0
H375 H 0.03943 0.88199 0.52972 0.0
H376 H 0.23185 0.61761 0.58573 0.0
H377 H 0.03792 0.7277 0.60874 0.0
O378 O 0.18578 0.12122 0.56769 0.0
H379 H 0.099 0.66327 0.50729 0.0
H380 H 0.15837 0.29074 0.50646 0.0
H381 H 0.15837 0.41638 0.41699 0.0
H382 H 0.12805 0.6036 0.41656 0.0
H383 H 0.10064 0.53679 0.59677 0.0
H384 H 0.1018 0.55189 0.80431 0.0
H385 H 0.14406 0.69862 0.78742 0.0
O386 O 0.17401 0.28084 0.62354 0.0
C387 C 0.13757 0.0915 0.70561 0.0
C388 C 0.16136 0.60918 0.70946 0.0
C389 C 0.11749 0.54169 0.76699 0.0
N390 N 0.13359 0.43302 0.68016 0.0
C391 C 0.1572 0.51259 0.67103 0.0
C392 C 0.11415 0.44579 0.72793 0.0
C393 C 0.1412 0.62404 0.75747 0.0
C394 C 0.08616 0.93693 0.55017 0.0
N395 N 0.11157 0.91938 0.58517 0.0
C396 C 0.05939 0.86801 0.55784 0.0
C397 C 0.05852 0.78164 0.60227 0.0
C398 C 0.0843 0.76543 0.63846 0.0
C399 C 0.11077 0.83507 0.62908 0.0
C400 C 0.1902 0.6879 0.547 0.0
C401 C 0.20067 0.887 0.61646 0.0
C402 C 0.16991 0.7844 0.54583 0.0
N403 N 0.1753 0.88244 0.58023 0.0
C404 C 0.22134 0.7921 0.61909 0.0
C405 C 0.21604 0.69192 0.58402 0.0
C406 C 0.19336 0.21546 0.59567 0.0
C407 C 0.11236 0.58213 0.507 0.0
C408 C 0.14583 0.37316 0.50754 0.0
C409 C 0.14564 0.44362 0.45631 0.0
C410 C 0.1286 0.54847 0.45603 0.0
N411 N 0.1297 0.40608 0.55734 0.0
C412 C 0.11355 0.51047 0.55769 0.0
Co413 Co 0.88438 0.00231 0.56655 0.0
Co414 Co 0.88751 0.71416 0.61108 0.0
O415 O 0.90094 0.84321 0.55889 0.0
C416 C 0.8671 0.95312 0.44094 0.0
O417 O 0.85229 0.8583 0.45979 0.0
C418 C 0.94816 0.60379 0.64081 0.0
O419 O 0.94044 0.61939 0.69694 0.0
O420 O 0.90206 0.80606 0.68185 0.0
O421 O 0.88772 0.99211 0.65623 0.0
H422 H 0.83194 0.5378 0.78653 0.0
H423 H 0.93956 0.94487 0.49386 0.0
O424 O 0.88203 0.01772 0.4776 0.0
H425 H 0.97404 0.25744 0.63283 0.0
H426 H 0.85481 0.38472 0.48233 0.0
H427 H 0.83669 0.10366 0.64569 0.0
H428 H 0.91914 0.19767 0.62793 0.0
H429 H 0.89282 0.23249 0.5042 0.0
O430 O 0.92992 0.64005 0.59993 0.0
H431 H 0.85027 0.69835 0.722 0.0
H432 H 0.89664 0.44993 0.61067 0.0
H433 H 0.79967 0.26656 0.63099 0.0
H434 H 0.99445 0.00608 0.4942 0.0
H435 H 0.80687 0.40323 0.5459 0.0
H436 H 0.01236 0.15942 0.56571 0.0
O437 O 0.84108 0.9406 0.56686 0.0
H438 H 0.89489 0.60153 0.39607 0.0
H439 H 0.82605 0.61337 0.57166 0.0
H440 H 0.80363 0.58173 0.4722 0.0
H441 H 0.83814 0.57422 0.38341 0.0
H442 H 0.9157 0.6504 0.49479 0.0
H443 H 0.88159 0.28792 0.67957 0.0
H444 H 0.84861 0.33 0.767 0.0
O445 O 0.84531 0.7827 0.6249 0.0
C446 C 0.89755 0.91605 0.69426 0.0
C447 C 0.84673 0.51755 0.74902 0.0
C448 C 0.87433 0.37756 0.68819 0.0
N449 N 0.87459 0.58401 0.66228 0.0
C450 C 0.85689 0.60834 0.71147 0.0
C451 C 0.88296 0.4698 0.64985 0.0
C452 C 0.85584 0.40137 0.73767 0.0
C453 C 0.94704 0.01342 0.52448 0.0
N454 N 0.92641 0.06411 0.56317 0.0
C455 C 0.97818 0.04758 0.52446 0.0
C456 C 0.98816 0.13436 0.56436 0.0
C457 C 0.96675 0.18896 0.60202 0.0
C458 C 0.93571 0.15368 0.59998 0.0
C459 C 0.85106 0.32867 0.52031 0.0
C460 C 0.84137 0.16925 0.61162 0.0
C461 C 0.87254 0.24056 0.53217 0.0
N462 N 0.86636 0.15739 0.5744 0.0
C463 C 0.82003 0.26003 0.60292 0.0
C464 C 0.82437 0.33764 0.55545 0.0
C465 C 0.82916 0.8608 0.59927 0.0
C466 C 0.8796 0.60402 0.43441 0.0
C467 C 0.8413 0.61272 0.53341 0.0
C468 C 0.82838 0.59437 0.477 0.0
C469 C 0.84774 0.58983 0.42722 0.0
N470 N 0.87234 0.63404 0.53978 0.0
C471 C 0.89146 0.62789 0.49108 0.0
C472 C 0.7864 0.30164 0.07819 0.0
C473 C 0.79809 0.19704 0.05226 0.0
C474 C 0.75438 0.32338 0.08091 0.0
C475 C 0.73257 0.24177 0.05751 0.0
H476 H 0.80209 0.36691 0.09715 0.0
H477 H 0.74677 0.40563 0.10125 0.0
S478 S 0.7517 0.95842 0.98031 0.0
N479 N 0.78561 0.01473 0.99925 0.0
N480 N 0.72571 0.05266 0.00605 0.0
C481 C 0.74415 0.13711 0.031 0.0
C482 C 0.77676 0.11556 0.02794 0.0
C483 C 0.24365 0.71379 0.99349 0.0
C484 C 0.22951 0.7865 0.03699 0.0
C485 C 0.27582 0.6979 0.99183 0.0
C486 C 0.29512 0.75408 0.03343 0.0
H487 H 0.22977 0.66663 0.96093 0.0
H488 H 0.28558 0.63932 0.95842 0.0
S489 S 0.27082 0.95855 0.15411 0.0
N490 N 0.23812 0.92001 0.12109 0.0
N491 N 0.29862 0.88857 0.11764 0.0
C492 C 0.28174 0.82999 0.07581 0.0
C493 C 0.24893 0.84672 0.07762 0.0
C494 C 0.77821 0.82483 0.55068 0.0
C495 C 0.79519 0.84864 0.60269 0.0
C496 C 0.74665 0.79439 0.55371 0.0
C497 C 0.73088 0.79069 0.60864 0.0
H498 H 0.78971 0.82442 0.5077 0.0
H499 H 0.73453 0.77276 0.51287 0.0
S500 S 0.76458 0.85307 0.75709 0.0
N501 N 0.794 0.8691 0.71034 0.0
N502 N 0.7342 0.81871 0.71575 0.0
C503 C 0.7473 0.8196 0.66062 0.0
C504 C 0.77964 0.84672 0.65771 0.0
C505 C 0.24603 0.19791 0.63918 0.0
C506 C 0.22641 0.24912 0.59679 0.0
C507 C 0.27796 0.22184 0.63889 0.0
C508 C 0.29156 0.29807 0.59611 0.0
H509 H 0.23669 0.13768 0.67241 0.0
H510 H 0.29212 0.17849 0.67209 0.0
S511 S 0.24926 0.45737 0.47652 0.0
N512 N 0.22206 0.38133 0.51205 0.0
N513 N 0.28205 0.42757 0.51111 0.0
C514 C 0.27179 0.35243 0.55436 0.0
C515 C 0.23923 0.32751 0.55475 0.0
C516 C 0.63603 0.55533 0.28969 0.0
C517 C 0.66209 0.48578 0.27539 0.0
C518 C 0.62984 0.59018 0.34865 0.0
C519 C 0.64916 0.55516 0.39582 0.0
H520 H 0.62067 0.58586 0.25487 0.0
H521 H 0.60969 0.6448 0.35722 0.0
S522 S 0.71978 0.36866 0.38215 0.0
N523 N 0.70698 0.38101 0.31322 0.0
N524 N 0.69527 0.44451 0.42392 0.0
C525 C 0.675 0.48356 0.38213 0.0
C526 C 0.6815 0.44953 0.32201 0.0
C527 C 0.39499 0.58013 0.29868 0.0
C528 C 0.37969 0.52233 0.25152 0.0
C529 C 0.39164 0.54125 0.35764 0.0
C530 C 0.37273 0.44289 0.37235 0.0
H531 H 0.40979 0.6564 0.29023 0.0
H532 H 0.40396 0.58976 0.39198 0.0
S533 S 0.32764 0.25884 0.26553 0.0
N534 N 0.3448 0.36051 0.22377 0.0
N535 N 0.33872 0.2873 0.3344 0.0
C536 C 0.35741 0.38343 0.32566 0.0
C537 C 0.36081 0.42317 0.26543 0.0
C538 C 0.41363 0.55507 0.83349 0.0
C539 C 0.38615 0.55302 0.86753 0.0
C540 C 0.41538 0.49575 0.77832 0.0
C541 C 0.3897 0.43314 0.75571 0.0
H542 H 0.43402 0.60068 0.8501 0.0
H543 H 0.43674 0.50021 0.75284 0.0
S544 S 0.31167 0.4115 0.82422 0.0
N545 N 0.3323 0.48902 0.87254 0.0
N546 N 0.33549 0.38104 0.76858 0.0
C547 C 0.36195 0.43381 0.78828 0.0
C548 C 0.36023 0.49259 0.84441 0.0
C549 C 0.61792 0.44512 0.85482 0.0
C550 C 0.6438 0.45509 0.89254 0.0
C551 C 0.61723 0.50393 0.79964 0.0
C552 C 0.64245 0.57371 0.7804 0.0
H553 H 0.59795 0.39283 0.86836 0.0
H554 H 0.59706 0.49349 0.77148 0.0
S555 S 0.71645 0.62145 0.85988 0.0
N556 N 0.69569 0.53684 0.90519 0.0
N557 N 0.69451 0.64403 0.80086 0.0
C558 C 0.66866 0.58198 0.81672 0.0
C559 C 0.66925 0.52391 0.87313 0.0
C560 C 0.12626 0.02329 0.27447 0.0
C561 C 0.14482 0.92444 0.25998 0.0
C562 C 0.1234 0.06437 0.3334 0.0
C563 C 0.13897 0.00864 0.38078 0.0
H564 H 0.11389 0.07042 0.23994 0.0
H565 H 0.10884 0.14084 0.34169 0.0
S566 S 0.1905 0.74544 0.36728 0.0
N567 N 0.17884 0.7709 0.29857 0.0
N568 N 0.17386 0.84855 0.4086 0.0
C569 C 0.15755 0.90927 0.36696 0.0
C570 C 0.16036 0.86711 0.30693 0.0
C571 C 0.85672 0.90161 0.33448 0.0
C572 C 0.86603 0.98626 0.37705 0.0
C573 C 0.85606 0.92956 0.27372 0.0
C574 C 0.8642 0.04383 0.25319 0.0
H575 H 0.85042 0.81222 0.34793 0.0
H576 H 0.84928 0.86059 0.24259 0.0
S577 S 0.88898 0.29965 0.34633 0.0
N578 N 0.88286 0.19055 0.39407 0.0
N579 N 0.88107 0.24321 0.28022 0.0
C580 C 0.87276 0.13031 0.29524 0.0
C581 C 0.87388 0.10141 0.35705 0.0
C582 C 0.89036 0.87695 0.80286 0.0
C583 C 0.90002 0.95455 0.7575 0.0
C584 C 0.88838 0.9149 0.86217 0.0
C585 C 0.89593 0.03218 0.87891 0.0
H586 H 0.88349 0.78691 0.79234 0.0
H587 H 0.88043 0.85193 0.89511 0.0
S588 S 0.93044 0.26103 0.77986 0.0
N589 N 0.92285 0.14753 0.7354 0.0
N590 N 0.9184 0.21993 0.84663 0.0
C591 C 0.90759 0.1087 0.83471 0.0
C592 C 0.90982 0.06958 0.77417 0.0
C593 C 0.10706 0.96167 0.85097 0.0
C594 C 0.13362 0.90839 0.87508 0.0
C595 C 0.10864 0.02553 0.79708 0.0
C596 C 0.13679 0.03725 0.76564 0.0
H597 H 0.08513 0.95584 0.87447 0.0
H598 H 0.08762 0.06378 0.77929 0.0
S599 S 0.21311 0.91993 0.81238 0.0
N600 N 0.18901 0.87713 0.86562 0.0
N601 N 0.19186 0.99317 0.76373 0.0
C602 C 0.16346 0.98495 0.78982 0.0
C603 C 0.16192 0.92189 0.84484 0.0
C604 C 0.50108 0.94512 0.10799 0.0
C605 C 0.48734 0.91331 0.05339 0.0
C606 C 0.52629 0.02401 0.11064 0.0
C607 C 0.53928 0.0744 0.05879 0.0
H608 H 0.49204 0.91033 0.14958 0.0
H609 H 0.53595 0.04389 0.154 0.0
S610 S 0.51228 0.02086 0.90414 0.0
N611 N 0.48883 0.93907 0.94576 0.0
N612 N 0.53641 0.08668 0.95079 0.0
C613 C 0.52601 0.04301 1.00368 0.0
C614 C 0.50006 0.96294 1.00098 0.0
C615 C 0.52621 0.94215 0.67273 0.0
C616 C 0.53408 0.89812 0.61581 0.0
C617 C 0.4976 -0.00285 0.68374 0.0
C618 C 0.47549 0.01119 0.63834 0.0
H619 H 0.54244 0.93574 0.70925 0.0
H620 H 0.49301 0.03035 0.72821 0.0
S621 S 0.48336 0.90391 0.48238 0.0
N622 N 0.51653 0.86831 0.51392 0.0
N623 N 0.46276 0.9696 0.5349 0.0
C624 C 0.48269 0.96525 0.58153 0.0
C625 C 0.51191 0.90943 0.57021 0.0
C626 C 0.04485 0.40414 0.03867 0.0
C627 C 0.04873 0.46855 0.98526 0.0
C628 C 0.01849 0.33246 0.04868 0.0
C629 C 0.99485 0.32279 0.00588 0.0
H630 H 0.06247 0.408 0.07288 0.0
H631 H 0.01639 0.28573 0.09069 0.0
S632 S 0.99297 0.47556 0.85956 0.0
N633 N 0.02612 0.51864 0.88939 0.0
N634 N 0.97664 0.38566 0.90874 0.0
C635 C 0.99823 0.38754 0.95267 0.0
C636 C 0.02517 0.45948 0.94214 0.0
C637 C 0.0247 0.43908 0.65919 0.0
C638 C 0.03183 0.39885 0.60122 0.0
C639 C 0.99792 0.50571 0.67112 0.0
C640 C 0.9769 0.53583 0.62574 0.0
H641 H 0.03999 0.41956 0.696 0.0
H642 H 0.99377 0.53392 0.71659 0.0
S643 S 0.98403 0.45006 0.46632 0.0
N644 N 0.01519 0.39377 0.49776 0.0
N645 N 0.96485 0.51718 0.52036 0.0
C646 C 0.98363 0.49597 0.56754 0.0
C647 C 1.01102 0.42823 0.55528 0.0
loop_
_geom_bond_atom_site_label_1
_geom_bond_atom_site_label_2
_geom_bond_distance
_geom_bond_site_symmetry_2
_ccdc_geom_bond_type
Co0 O2 2.143 . S
Co0 O8 2.074 1_554 S
Co0 O11 2.093 . S
Co0 O24 2.097 . S
Co0 N41 2.151 . S
Co0 N49 2.214 . S
Co1 O2 2.160 . S
Co1 O7 2.058 1_554 S
Co1 O17 2.057 . S
Co1 O32 2.037 . S
Co1 N36 2.145 1_554 S
Co1 N57 2.257 . S
O2 Co0 2.143 . S
O2 Co1 2.160 . S
C3 O4 1.278 . S
C3 O11 1.224 . S
O4 C3 1.278 . S
C5 O6 1.245 . S
C5 O17 1.232 . S
O6 C5 1.245 . S
O7 Co1 2.058 1_556 S
O7 C33 1.269 . S
O8 Co0 2.074 1_556 S
O8 C33 1.257 . S
H9 C34 0.930 . S
H10 C40 0.930 . S
O11 Co0 2.093 . S
O11 C3 1.224 . S
H12 C44 0.929 1_556 S
H13 C46 0.930 . S
H14 C47 0.930 1_556 S
H15 C45 0.929 1_556 S
H16 C48 0.928 . S
O17 Co1 2.057 . S
O17 C5 1.232 . S
H18 C37 0.929 . S
H19 C38 0.929 . S
H20 C50 0.931 1_556 S
H21 C42 0.929 . S
H22 C51 0.930 . S
H23 C43 0.931 . S
O24 Co0 2.097 . S
O24 C52 1.214 . S
H25 C53 0.929 . S
H26 C54 0.929 . S
H27 C55 0.930 . S
H28 C56 0.929 . S
H29 C58 0.930 . S
H30 C35 0.930 . S
H31 C39 0.930 . S
O32 Co1 2.037 . S
O32 C52 1.234 . S
C33 O7 1.269 . S
C33 O8 1.257 . S
C34 H9 0.930 . S
C34 C37 1.388 1_565 S
C34 C39 1.418 . S
C35 H30 0.930 . S
C35 C38 1.404 . S
C35 C39 1.353 . S
N36 Co1 2.145 1_556 S
N36 C37 1.397 . S
N36 C38 1.334 1_545 S
C37 H18 0.929 . S
C37 C34 1.388 1_545 S
C37 N36 1.397 . S
C38 H19 0.929 . S
C38 C35 1.404 . S
C38 N36 1.334 1_565 S
C39 H31 0.930 . S
C39 C34 1.418 . S
C39 C35 1.353 . S
C40 H10 0.930 . S
C40 N41 1.330 . S
C40 C42 1.446 . S
N41 Co0 2.151 . S
N41 C40 1.330 . S
N41 C45 1.418 . S
C42 H21 0.929 . S
C42 C40 1.446 . S
C42 C43 1.332 . S
C43 H23 0.931 . S
C43 C42 1.332 . S
C43 C44 1.267 . S
C44 H12 0.929 1_554 S
C44 C43 1.267 . S
C44 C45 1.251 . S
C45 H15 0.929 1_554 S
C45 N41 1.418 . S
C45 C44 1.251 . S
C46 H13 0.930 . S
C46 C48 1.406 . S
C46 C51 1.261 . S
C47 H14 0.930 1_554 S
C47 N49 1.325 . S
C47 C50 1.357 . S
C48 H16 0.928 . S
C48 C46 1.406 . S
C48 N49 1.261 . S
N49 Co0 2.214 . S
N49 C47 1.325 . S
N49 C48 1.261 . S
C50 H20 0.931 1_554 S
C50 C47 1.357 . S
C50 C51 1.312 . S
C51 H22 0.930 . S
C51 C46 1.261 . S
C51 C50 1.312 . S
C52 O24 1.214 . S
C52 O32 1.234 . S
C53 H25 0.929 . S
C53 C56 1.391 . S
C53 C58 1.391 1_565 S
C54 H26 0.929 . S
C54 C55 1.390 . S
C54 N57 1.391 1_565 S
C55 H27 0.930 . S
C55 C54 1.390 . S
C55 C56 1.392 . S
C56 H28 0.929 . S
C56 C53 1.391 . S
C56 C55 1.392 . S
N57 Co1 2.257 . S
N57 C54 1.391 1_545 S
N57 C58 1.388 . S
C58 H29 0.930 . S
C58 C53 1.391 1_545 S
C58 N57 1.388 . S
Co59 O61 2.143 . S
Co59 O67 2.074 1_554 S
Co59 O70 2.093 . S
Co59 O83 2.097 . S
Co59 N100 2.151 . S
Co59 N108 2.214 . S
Co60 O61 2.160 . S
Co60 O66 2.058 1_554 S
Co60 O76 2.057 . S
Co60 O91 2.037 . S
Co60 N95 2.145 1_554 S
Co60 N116 2.257 . S
O61 Co59 2.143 . S
O61 Co60 2.160 . S
C62 O63 1.278 . S
C62 O70 1.224 . S
O63 C62 1.278 . S
C64 O65 1.245 . S
C64 O76 1.232 . S
O65 C64 1.245 . S
O66 Co60 2.058 1_556 S
O66 C92 1.269 . S
O67 Co59 2.074 1_556 S
O67 C92 1.257 . S
H68 C93 0.930 . S
H69 C99 0.930 . S
O70 Co59 2.093 . S
O70 C62 1.224 . S
H71 C103 0.929 1_556 S
H72 C105 0.930 . S
H73 C106 0.930 1_556 S
H74 C104 0.929 1_556 S
H75 C107 0.928 . S
O76 Co60 2.057 . S
O76 C64 1.232 . S
H77 C96 0.929 . S
H78 C97 0.929 . S
H79 C109 0.931 1_556 S
H80 C101 0.929 . S
H81 C110 0.930 . S
H82 C102 0.931 . S
O83 Co59 2.097 . S
O83 C111 1.214 . S
H84 C112 0.929 . S
H85 C113 0.929 . S
H86 C114 0.930 . S
H87 C115 0.929 . S
H88 C117 0.930 . S
H89 C94 0.930 . S
H90 C98 0.930 . S
O91 Co60 2.037 . S
O91 C111 1.234 . S
C92 O66 1.269 . S
C92 O67 1.257 . S
C93 H68 0.930 . S
C93 C96 1.388 1_545 S
C93 C98 1.418 . S
C94 H89 0.930 . S
C94 C97 1.404 . S
C94 C98 1.353 . S
N95 Co60 2.145 1_556 S
N95 C96 1.397 . S
N95 C97 1.334 1_565 S
C96 H77 0.929 . S
C96 C93 1.388 1_565 S
C96 N95 1.397 . S
C97 H78 0.929 . S
C97 C94 1.404 . S
C97 N95 1.334 1_545 S
C98 H90 0.930 . S
C98 C93 1.418 . S
C98 C94 1.353 . S
C99 H69 0.930 . S
C99 N100 1.330 . S
C99 C101 1.446 . S
N100 Co59 2.151 . S
N100 C99 1.330 . S
N100 C104 1.418 . S
C101 H80 0.929 . S
C101 C99 1.446 . S
C101 C102 1.332 . S
C102 H82 0.931 . S
C102 C101 1.332 . S
C102 C103 1.267 . S
C103 H71 0.929 1_554 S
C103 C102 1.267 . S
C103 C104 1.251 . S
C104 H74 0.929 1_554 S
C104 N100 1.418 . S
C104 C103 1.251 . S
C105 H72 0.930 . S
C105 C107 1.406 . S
C105 C110 1.261 . S
C106 H73 0.930 1_554 S
C106 N108 1.325 . S
C106 C109 1.357 . S
C107 H75 0.928 . S
C107 C105 1.406 . S
C107 N108 1.261 . S
N108 Co59 2.214 . S
N108 C106 1.325 . S
N108 C107 1.261 . S
C109 H79 0.931 1_554 S
C109 C106 1.357 . S
C109 C110 1.312 . S
C110 H81 0.930 . S
C110 C105 1.261 . S
C110 C109 1.312 . S
C111 O83 1.214 . S
C111 O91 1.234 . S
C112 H84 0.929 . S
C112 C115 1.391 . S
C112 C117 1.391 1_545 S
C113 H85 0.929 . S
C113 C114 1.390 . S
C113 N116 1.391 1_545 S
C114 H86 0.930 . S
C114 C113 1.390 . S
C114 C115 1.392 . S
C115 H87 0.929 . S
C115 C112 1.391 . S
C115 C114 1.392 . S
N116 Co60 2.257 . S
N116 C113 1.391 1_565 S
N116 C117 1.388 . S
C117 H88 0.930 . S
C117 C112 1.391 1_565 S
C117 N116 1.388 . S
Co118 O120 2.143 . S
Co118 O126 2.074 . S
Co118 O129 2.093 . S
Co118 O142 2.097 . S
Co118 N159 2.151 . S
Co118 N167 2.214 . S
Co119 O120 2.160 . S
Co119 O125 2.058 . S
Co119 O135 2.057 . S
Co119 O150 2.037 . S
Co119 N154 2.145 . S
Co119 N175 2.257 . S
O120 Co118 2.143 . S
O120 Co119 2.160 . S
C121 O122 1.278 . S
C121 O129 1.224 . S
O122 C121 1.278 . S
C123 O124 1.245 . S
C123 O135 1.232 . S
O124 C123 1.245 . S
O125 Co119 2.058 . S
O125 C151 1.269 . S
O126 Co118 2.074 . S
O126 C151 1.257 . S
H127 C152 0.930 . S
H128 C158 0.930 . S
O129 Co118 2.093 . S
O129 C121 1.224 . S
H130 C162 0.929 . S
H131 C164 0.930 . S
H132 C165 0.930 . S
H133 C163 0.929 . S
H134 C166 0.928 . S
O135 Co119 2.057 . S
O135 C123 1.232 . S
H136 C155 0.929 . S
H137 C156 0.929 . S
H138 C168 0.931 . S
H139 C160 0.929 . S
H140 C169 0.930 . S
H141 C161 0.931 . S
O142 Co118 2.097 . S
O142 C170 1.214 . S
H143 C171 0.929 . S
H144 C172 0.929 . S
H145 C173 0.930 . S
H146 C174 0.929 . S
H147 C176 0.930 . S
H148 C153 0.930 . S
H149 C157 0.930 . S
O150 Co119 2.037 . S
O150 C170 1.234 . S
C151 O125 1.269 . S
C151 O126 1.257 . S
C152 H127 0.930 . S
C152 C155 1.388 1_545 S
C152 C157 1.418 . S
C153 H148 0.930 . S
C153 C156 1.404 . S
C153 C157 1.353 . S
N154 Co119 2.145 . S
N154 C155 1.397 . S
N154 C156 1.334 1_565 S
C155 H136 0.929 . S
C155 C152 1.388 1_565 S
C155 N154 1.397 . S
C156 H137 0.929 . S
C156 C153 1.404 . S
C156 N154 1.334 1_545 S
C157 H149 0.930 . S
C157 C152 1.418 . S
C157 C153 1.353 . S
C158 H128 0.930 . S
C158 N159 1.330 . S
C158 C160 1.446 . S
N159 Co118 2.151 . S
N159 C158 1.330 . S
N159 C163 1.418 . S
C160 H139 0.929 . S
C160 C158 1.446 . S
C160 C161 1.332 . S
C161 H141 0.931 . S
C161 C160 1.332 . S
C161 C162 1.267 . S
C162 H130 0.929 . S
C162 C161 1.267 . S
C162 C163 1.251 . S
C163 H133 0.929 . S
C163 N159 1.418 . S
C163 C162 1.251 . S
C164 H131 0.930 . S
C164 C166 1.406 . S
C164 C169 1.261 . S
C165 H132 0.930 . S
C165 N167 1.325 . S
C165 C168 1.357 . S
C166 H134 0.928 . S
C166 C164 1.406 . S
C166 N167 1.261 . S
N167 Co118 2.214 . S
N167 C165 1.325 . S
N167 C166 1.261 . S
C168 H138 0.931 . S
C168 C165 1.357 . S
C168 C169 1.312 . S
C169 H140 0.930 . S
C169 C164 1.261 . S
C169 C168 1.312 . S
C170 O142 1.214 . S
C170 O150 1.234 . S
C171 H143 0.929 . S
C171 C174 1.391 . S
C171 C176 1.391 1_545 S
C172 H144 0.929 . S
C172 C173 1.390 . S
C172 N175 1.391 1_545 S
C173 H145 0.930 . S
C173 C172 1.390 . S
C173 C174 1.392 . S
C174 H146 0.929 . S
C174 C171 1.391 . S
C174 C173 1.392 . S
N175 Co119 2.257 . S
N175 C172 1.391 1_565 S
N175 C176 1.388 . S
C176 H147 0.930 . S
C176 C171 1.391 1_565 S
C176 N175 1.388 . S
Co177 O179 2.143 . S
Co177 O185 2.074 . S
Co177 O188 2.093 . S
Co177 O201 2.097 . S
Co177 N218 2.151 . S
Co177 N226 2.214 . S
Co178 O179 2.160 . S
Co178 O184 2.058 . S
Co178 O194 2.057 . S
Co178 O209 2.037 . S
Co178 N213 2.145 . S
Co178 N234 2.257 . S
O179 Co177 2.143 . S
O179 Co178 2.160 . S
C180 O181 1.278 . S
C180 O188 1.224 . S
O181 C180 1.278 . S
C182 O183 1.245 . S
C182 O194 1.232 . S
O183 C182 1.245 . S
O184 Co178 2.058 . S
O184 C210 1.269 . S
O185 Co177 2.074 . S
O185 C210 1.257 . S
H186 C211 0.930 . S
H187 C217 0.930 . S
O188 Co177 2.093 . S
O188 C180 1.224 . S
H189 C221 0.929 . S
H190 C223 0.930 . S
H191 C224 0.930 . S
H192 C222 0.929 . S
H193 C225 0.928 . S
O194 Co178 2.057 . S
O194 C182 1.232 . S
H195 C214 0.929 . S
H196 C215 0.929 . S
H197 C227 0.931 . S
H198 C219 0.929 . S
H199 C228 0.930 . S
H200 C220 0.931 . S
O201 Co177 2.097 . S
O201 C229 1.214 . S
H202 C230 0.929 . S
H203 C231 0.929 . S
H204 C232 0.930 . S
H205 C233 0.929 . S
H206 C235 0.930 . S
H207 C212 0.930 . S
H208 C216 0.930 . S
O209 Co178 2.037 . S
O209 C229 1.234 . S
C210 O184 1.269 . S
C210 O185 1.257 . S
C211 H186 0.930 . S
C211 C214 1.388 1_565 S
C211 C216 1.418 . S
C212 H207 0.930 . S
C212 C215 1.404 . S
C212 C216 1.353 . S
N213 Co178 2.145 . S
N213 C214 1.397 . S
N213 C215 1.334 1_545 S
C214 H195 0.929 . S
C214 C211 1.388 1_545 S
C214 N213 1.397 . S
C215 H196 0.929 . S
C215 C212 1.404 . S
C215 N213 1.334 1_565 S
C216 H208 0.930 . S
C216 C211 1.418 . S
C216 C212 1.353 . S
C217 H187 0.930 . S
C217 N218 1.330 . S
C217 C219 1.446 . S
N218 Co177 2.151 . S
N218 C217 1.330 . S
N218 C222 1.418 . S
C219 H198 0.929 . S
C219 C217 1.446 . S
C219 C220 1.332 . S
C220 H200 0.931 . S
C220 C219 1.332 . S
C220 C221 1.267 . S
C221 H189 0.929 . S
C221 C220 1.267 . S
C221 C222 1.251 . S
C222 H192 0.929 . S
C222 N218 1.418 . S
C222 C221 1.251 . S
C223 H190 0.930 . S
C223 C225 1.406 . S
C223 C228 1.261 . S
C224 H191 0.930 . S
C224 N226 1.325 . S
C224 C227 1.357 . S
C225 H193 0.928 . S
C225 C223 1.406 . S
C225 N226 1.261 . S
N226 Co177 2.214 . S
N226 C224 1.325 . S
N226 C225 1.261 . S
C227 H197 0.931 . S
C227 C224 1.357 . S
C227 C228 1.312 . S
C228 H199 0.930 . S
C228 C223 1.261 . S
C228 C227 1.312 . S
C229 O201 1.214 . S
C229 O209 1.234 . S
C230 H202 0.929 . S
C230 C233 1.391 . S
C230 C235 1.391 1_565 S
C231 H203 0.929 . S
C231 C232 1.390 . S
C231 N234 1.391 1_565 S
C232 H204 0.930 . S
C232 C231 1.390 . S
C232 C233 1.392 . S
C233 H205 0.929 . S
C233 C230 1.391 . S
C233 C232 1.392 . S
N234 Co178 2.257 . S
N234 C231 1.391 1_545 S
N234 C235 1.388 . S
C235 H206 0.930 . S
C235 C230 1.391 1_545 S
C235 N234 1.388 . S
Co236 O238 2.143 . S
Co236 O244 2.074 1_554 S
Co236 O247 2.093 . S
Co236 O260 2.097 . S
Co236 N277 2.151 1_565 S
Co236 N285 2.214 1_565 S
Co237 O238 2.160 . S
Co237 O243 2.058 1_554 S
Co237 O253 2.057 . S
Co237 O268 2.037 . S
Co237 N272 2.145 1_554 S
Co237 N293 2.257 . S
O238 Co236 2.143 . S
O238 Co237 2.160 . S
C239 O240 1.278 . S
C239 O247 1.224 . S
O240 C239 1.278 . S
C241 O242 1.245 . S
C241 O253 1.232 . S
O242 C241 1.245 . S
O243 Co237 2.058 1_556 S
O243 C269 1.269 . S
O244 Co236 2.074 1_556 S
O244 C269 1.257 . S
H245 C270 0.930 . S
H246 C276 0.930 . S
O247 Co236 2.093 . S
O247 C239 1.224 . S
H248 C280 0.929 1_556 S
H249 C282 0.930 . S
H250 C283 0.930 1_556 S
H251 C281 0.929 1_556 S
H252 C284 0.928 . S
O253 Co237 2.057 . S
O253 C241 1.232 . S
H254 C273 0.929 . S
H255 C274 0.929 . S
H256 C286 0.931 1_556 S
H257 C278 0.929 . S
H258 C287 0.930 . S
H259 C279 0.931 . S
O260 Co236 2.097 . S
O260 C288 1.214 . S
H261 C289 0.929 . S
H262 C290 0.929 . S
H263 C291 0.930 . S
H264 C292 0.929 . S
H265 C294 0.930 . S
H266 C271 0.930 . S
H267 C275 0.930 . S
O268 Co237 2.037 . S
O268 C288 1.234 . S
C269 O243 1.269 . S
C269 O244 1.257 . S
C270 H245 0.930 . S
C270 C273 1.388 . S
C270 C275 1.418 . S
C271 H266 0.930 . S
C271 C274 1.404 . S
C271 C275 1.353 . S
N272 Co237 2.145 1_556 S
N272 C273 1.397 . S
N272 C274 1.334 . S
C273 H254 0.929 . S
C273 C270 1.388 . S
C273 N272 1.397 . S
C274 H255 0.929 . S
C274 C271 1.404 . S
C274 N272 1.334 . S
C275 H267 0.930 . S
C275 C270 1.418 . S
C275 C271 1.353 . S
C276 H246 0.930 . S
C276 N277 1.330 . S
C276 C278 1.446 . S
N277 Co236 2.151 1_545 S
N277 C276 1.330 . S
N277 C281 1.418 . S
C278 H257 0.929 . S
C278 C276 1.446 . S
C278 C279 1.332 . S
C279 H259 0.931 . S
C279 C278 1.332 . S
C279 C280 1.267 . S
C280 H248 0.929 1_554 S
C280 C279 1.267 . S
C280 C281 1.251 . S
C281 H251 0.929 1_554 S
C281 N277 1.418 . S
C281 C280 1.251 . S
C282 H249 0.930 . S
C282 C284 1.406 . S
C282 C287 1.261 . S
C283 H250 0.930 1_554 S
C283 N285 1.325 . S
C283 C286 1.357 . S
C284 H252 0.928 . S
C284 C282 1.406 . S
C284 N285 1.261 . S
N285 Co236 2.214 1_545 S
N285 C283 1.325 . S
N285 C284 1.261 . S
C286 H256 0.931 1_554 S
C286 C283 1.357 . S
C286 C287 1.312 . S
C287 H258 0.930 . S
C287 C282 1.261 . S
C287 C286 1.312 . S
C288 O260 1.214 . S
C288 O268 1.234 . S
C289 H261 0.929 . S
C289 C292 1.391 . S
C289 C294 1.391 . S
C290 H262 0.929 . S
C290 C291 1.390 . S
C290 N293 1.391 . S
C291 H263 0.930 . S
C291 C290 1.390 . S
C291 C292 1.392 . S
C292 H264 0.929 . S
C292 C289 1.391 . S
C292 C291 1.392 . S
N293 Co237 2.257 . S
N293 C290 1.391 . S
N293 C294 1.388 . S
C294 H265 0.930 . S
C294 C289 1.391 . S
C294 N293 1.388 . S
Co295 O297 2.143 . S
Co295 O303 2.074 1_554 S
Co295 O306 2.093 . S
Co295 O319 2.097 . S
Co295 N336 2.151 1_545 S
Co295 N344 2.214 1_545 S
Co296 O297 2.160 . S
Co296 O302 2.058 1_554 S
Co296 O312 2.057 . S
Co296 O327 2.037 . S
Co296 N331 2.145 1_554 S
Co296 N352 2.257 . S
O297 Co295 2.143 . S
O297 Co296 2.160 . S
C298 O299 1.278 . S
C298 O306 1.224 . S
O299 C298 1.278 . S
C300 O301 1.245 . S
C300 O312 1.232 . S
O301 C300 1.245 . S
O302 Co296 2.058 1_556 S
O302 C328 1.269 . S
O303 Co295 2.074 1_556 S
O303 C328 1.257 . S
H304 C329 0.930 . S
H305 C335 0.930 . S
O306 Co295 2.093 . S
O306 C298 1.224 . S
H307 C339 0.929 1_556 S
H308 C341 0.930 . S
H309 C342 0.930 1_556 S
H310 C340 0.929 1_556 S
H311 C343 0.928 . S
O312 Co296 2.057 . S
O312 C300 1.232 . S
H313 C332 0.929 . S
H314 C333 0.929 . S
H315 C345 0.931 1_556 S
H316 C337 0.929 . S
H317 C346 0.930 . S
H318 C338 0.931 . S
O319 Co295 2.097 . S
O319 C347 1.214 . S
H320 C348 0.929 . S
H321 C349 0.929 . S
H322 C350 0.930 . S
H323 C351 0.929 . S
H324 C353 0.930 . S
H325 C330 0.930 . S
H326 C334 0.930 . S
O327 Co296 2.037 . S
O327 C347 1.234 . S
C328 O302 1.269 . S
C328 O303 1.257 . S
C329 H304 0.930 . S
C329 C332 1.388 . S
C329 C334 1.418 . S
C330 H325 0.930 . S
C330 C333 1.404 . S
C330 C334 1.353 . S
N331 Co296 2.145 1_556 S
N331 C332 1.397 . S
N331 C333 1.334 . S
C332 H313 0.929 . S
C332 C329 1.388 . S
C332 N331 1.397 . S
C333 H314 0.929 . S
C333 C330 1.404 . S
C333 N331 1.334 . S
C334 H326 0.930 . S
C334 C329 1.418 . S
C334 C330 1.353 . S
C335 H305 0.930 . S
C335 N336 1.330 . S
C335 C337 1.446 . S
N336 Co295 2.151 1_565 S
N336 C335 1.330 . S
N336 C340 1.418 . S
C337 H316 0.929 . S
C337 C335 1.446 . S
C337 C338 1.332 . S
C338 H318 0.931 . S
C338 C337 1.332 . S
C338 C339 1.267 . S
C339 H307 0.929 1_554 S
C339 C338 1.267 . S
C339 C340 1.251 . S
C340 H310 0.929 1_554 S
C340 N336 1.418 . S
C340 C339 1.251 . S
C341 H308 0.930 . S
C341 C343 1.406 . S
C341 C346 1.261 . S
C342 H309 0.930 1_554 S
C342 N344 1.325 . S
C342 C345 1.357 . S
C343 H311 0.928 . S
C343 C341 1.406 . S
C343 N344 1.261 . S
N344 Co295 2.214 1_565 S
N344 C342 1.325 . S
N344 C343 1.261 . S
C345 H315 0.931 1_554 S
C345 C342 1.357 . S
C345 C346 1.312 . S
C346 H317 0.930 . S
C346 C341 1.261 . S
C346 C345 1.312 . S
C347 O319 1.214 . S
C347 O327 1.234 . S
C348 H320 0.929 . S
C348 C351 1.391 . S
C348 C353 1.391 . S
C349 H321 0.929 . S
C349 C350 1.390 . S
C349 N352 1.391 . S
C350 H322 0.930 . S
C350 C349 1.390 . S
C350 C351 1.392 . S
C351 H323 0.929 . S
C351 C348 1.391 . S
C351 C350 1.392 . S
N352 Co296 2.257 . S
N352 C349 1.391 . S
N352 C353 1.388 . S
C353 H324 0.930 . S
C353 C348 1.391 . S
C353 N352 1.388 . S
Co354 O356 2.143 . S
Co354 O362 2.074 . S
Co354 O365 2.093 . S
Co354 O378 2.097 . S
Co354 N395 2.151 1_545 S
Co354 N403 2.214 1_545 S
Co355 O356 2.160 . S
Co355 O361 2.058 . S
Co355 O371 2.057 . S
Co355 O386 2.037 . S
Co355 N390 2.145 . S
Co355 N411 2.257 . S
O356 Co354 2.143 . S
O356 Co355 2.160 . S
C357 O358 1.278 . S
C357 O365 1.224 . S
O358 C357 1.278 . S
C359 O360 1.245 . S
C359 O371 1.232 . S
O360 C359 1.245 . S
O361 Co355 2.058 . S
O361 C387 1.269 . S
O362 Co354 2.074 . S
O362 C387 1.257 . S
H363 C388 0.930 . S
H364 C394 0.930 . S
O365 Co354 2.093 . S
O365 C357 1.224 . S
H366 C398 0.929 . S
H367 C400 0.930 . S
H368 C401 0.930 . S
H369 C399 0.929 . S
H370 C402 0.928 . S
O371 Co355 2.057 . S
O371 C359 1.232 . S
H372 C391 0.929 . S
H373 C392 0.929 . S
H374 C404 0.931 . S
H375 C396 0.929 . S
H376 C405 0.930 . S
H377 C397 0.931 . S
O378 Co354 2.097 . S
O378 C406 1.214 . S
H379 C407 0.929 . S
H380 C408 0.929 . S
H381 C409 0.930 . S
H382 C410 0.929 . S
H383 C412 0.930 . S
H384 C389 0.930 . S
H385 C393 0.930 . S
O386 Co355 2.037 . S
O386 C406 1.234 . S
C387 O361 1.269 . S
C387 O362 1.257 . S
C388 H363 0.930 . S
C388 C391 1.388 . S
C388 C393 1.418 . S
C389 H384 0.930 . S
C389 C392 1.404 . S
C389 C393 1.353 . S
N390 Co355 2.145 . S
N390 C391 1.397 . S
N390 C392 1.334 . S
C391 H372 0.929 . S
C391 C388 1.388 . S
C391 N390 1.397 . S
C392 H373 0.929 . S
C392 C389 1.404 . S
C392 N390 1.334 . S
C393 H385 0.930 . S
C393 C388 1.418 . S
C393 C389 1.353 . S
C394 H364 0.930 . S
C394 N395 1.330 . S
C394 C396 1.446 . S
N395 Co354 2.151 1_565 S
N395 C394 1.330 . S
N395 C399 1.418 . S
C396 H375 0.929 . S
C396 C394 1.446 . S
C396 C397 1.332 . S
C397 H377 0.931 . S
C397 C396 1.332 . S
C397 C398 1.267 . S
C398 H366 0.929 . S
C398 C397 1.267 . S
C398 C399 1.251 . S
C399 H369 0.929 . S
C399 N395 1.418 . S
C399 C398 1.251 . S
C400 H367 0.930 . S
C400 C402 1.406 . S
C400 C405 1.261 . S
C401 H368 0.930 . S
C401 N403 1.325 . S
C401 C404 1.357 . S
C402 H370 0.928 . S
C402 C400 1.406 . S
C402 N403 1.261 . S
N403 Co354 2.214 1_565 S
N403 C401 1.325 . S
N403 C402 1.261 . S
C404 H374 0.931 . S
C404 C401 1.357 . S
C404 C405 1.312 . S
C405 H376 0.930 . S
C405 C400 1.261 . S
C405 C404 1.312 . S
C406 O378 1.214 . S
C406 O386 1.234 . S
C407 H379 0.929 . S
C407 C410 1.391 . S
C407 C412 1.391 . S
C408 H380 0.929 . S
C408 C409 1.390 . S
C408 N411 1.391 . S
C409 H381 0.930 . S
C409 C408 1.390 . S
C409 C410 1.392 . S
C410 H382 0.929 . S
C410 C407 1.391 . S
C410 C409 1.392 . S
N411 Co355 2.257 . S
N411 C408 1.391 . S
N411 C412 1.388 . S
C412 H383 0.930 . S
C412 C407 1.391 . S
C412 N411 1.388 . S
Co413 O415 2.143 . S
Co413 O421 2.074 . S
Co413 O424 2.093 . S
Co413 O437 2.097 . S
Co413 N454 2.151 1_565 S
Co413 N462 2.214 1_565 S
Co414 O415 2.160 . S
Co414 O420 2.058 . S
Co414 O430 2.057 . S
Co414 O445 2.037 . S
Co414 N449 2.145 . S
Co414 N470 2.257 . S
O415 Co413 2.143 . S
O415 Co414 2.160 . S
C416 O417 1.278 . S
C416 O424 1.224 . S
O417 C416 1.278 . S
C418 O419 1.245 . S
C418 O430 1.232 . S
O419 C418 1.245 . S
O420 Co414 2.058 . S
O420 C446 1.269 . S
O421 Co413 2.074 . S
O421 C446 1.257 . S
H422 C447 0.930 . S
H423 C453 0.930 . S
O424 Co413 2.093 . S
O424 C416 1.224 . S
H425 C457 0.929 . S
H426 C459 0.930 . S
H427 C460 0.930 . S
H428 C458 0.929 . S
H429 C461 0.928 . S
O430 Co414 2.057 . S
O430 C418 1.232 . S
H431 C450 0.929 . S
H432 C451 0.929 . S
H433 C463 0.931 . S
H434 C455 0.929 . S
H435 C464 0.930 . S
H436 C456 0.931 . S
O437 Co413 2.097 . S
O437 C465 1.214 . S
H438 C466 0.929 . S
H439 C467 0.929 . S
H440 C468 0.930 . S
H441 C469 0.929 . S
H442 C471 0.930 . S
H443 C448 0.930 . S
H444 C452 0.930 . S
O445 Co414 2.037 . S
O445 C465 1.234 . S
C446 O420 1.269 . S
C446 O421 1.257 . S
C447 H422 0.930 . S
C447 C450 1.388 . S
C447 C452 1.418 . S
C448 H443 0.930 . S
C448 C451 1.404 . S
C448 C452 1.353 . S
N449 Co414 2.145 . S
N449 C450 1.397 . S
N449 C451 1.334 . S
C450 H431 0.929 . S
C450 C447 1.388 . S
C450 N449 1.397 . S
C451 H432 0.929 . S
C451 C448 1.404 . S
C451 N449 1.334 . S
C452 H444 0.930 . S
C452 C447 1.418 . S
C452 C448 1.353 . S
C453 H423 0.930 . S
C453 N454 1.330 . S
C453 C455 1.446 . S
N454 Co413 2.151 1_545 S
N454 C453 1.330 . S
N454 C458 1.418 . S
C455 H434 0.929 . S
C455 C453 1.446 . S
C455 C456 1.332 . S
C456 H436 0.931 . S
C456 C455 1.332 . S
C456 C457 1.267 . S
C457 H425 0.929 . S
C457 C456 1.267 . S
C457 C458 1.251 . S
C458 H428 0.929 . S
C458 N454 1.418 . S
C458 C457 1.251 . S
C459 H426 0.930 . S
C459 C461 1.406 . S
C459 C464 1.261 . S
C460 H427 0.930 . S
C460 N462 1.325 . S
C460 C463 1.357 . S
C461 H429 0.928 . S
C461 C459 1.406 . S
C461 N462 1.261 . S
N462 Co413 2.214 1_545 S
N462 C460 1.325 . S
N462 C461 1.261 . S
C463 H433 0.931 . S
C463 C460 1.357 . S
C463 C464 1.312 . S
C464 H435 0.930 . S
C464 C459 1.261 . S
C464 C463 1.312 . S
C465 O437 1.214 . S
C465 O445 1.234 . S
C466 H438 0.929 . S
C466 C469 1.391 . S
C466 C471 1.391 . S
C467 H439 0.929 . S
C467 C468 1.390 . S
C467 N470 1.391 . S
C468 H440 0.930 . S
C468 C467 1.390 . S
C468 C469 1.392 . S
C469 H441 0.929 . S
C469 C466 1.391 . S
C469 C468 1.392 . S
N470 Co414 2.257 . S
N470 C467 1.391 . S
N470 C471 1.388 . S
C471 H442 0.930 . S
C471 C466 1.391 . S
C471 N470 1.388 . S
C472 C473 1.369 . S
C472 C474 1.419 . S
C472 H476 0.930 . S
C473 C472 1.369 . S
C473 C482 1.429 1_554 S
C474 C472 1.419 . S
C474 C475 1.363 . S
C474 H477 0.929 . S
C475 C474 1.363 . S
C475 C481 1.428 1_554 S
H476 C472 0.930 . S
H477 C474 0.929 . S
S478 N479 1.613 . S
S478 N480 1.610 . S
N479 S478 1.613 . S
N479 C482 1.350 . S
N480 S478 1.610 . S
N480 C481 1.351 . S
C481 C475 1.428 1_556 S
C481 N480 1.351 . S
C481 C482 1.434 . S
C482 C473 1.429 1_556 S
C482 N479 1.350 . S
C482 C481 1.434 . S
C483 C484 1.369 1_556 S
C483 C485 1.419 . S
C483 H487 0.930 . S
C484 C483 1.369 1_554 S
C484 C493 1.429 . S
C485 C483 1.419 . S
C485 C486 1.363 1_556 S
C485 H488 0.929 . S
C486 C485 1.363 1_554 S
C486 C492 1.428 . S
H487 C483 0.930 . S
H488 C485 0.929 . S
S489 N490 1.613 . S
S489 N491 1.610 . S
N490 S489 1.613 . S
N490 C493 1.350 . S
N491 S489 1.610 . S
N491 C492 1.351 . S
C492 C486 1.428 . S
C492 N491 1.351 . S
C492 C493 1.434 . S
C493 C484 1.429 . S
C493 N490 1.350 . S
C493 C492 1.434 . S
C494 C495 1.369 . S
C494 C496 1.419 . S
C494 H498 0.930 . S
C495 C494 1.369 . S
C495 C504 1.429 . S
C496 C494 1.419 . S
C496 C497 1.363 . S
C496 H499 0.929 . S
C497 C496 1.363 . S
C497 C503 1.428 . S
H498 C494 0.930 . S
H499 C496 0.929 . S
S500 N501 1.613 . S
S500 N502 1.610 . S
N501 S500 1.613 . S
N501 C504 1.350 . S
N502 S500 1.610 . S
N502 C503 1.351 . S
C503 C497 1.428 . S
C503 N502 1.351 . S
C503 C504 1.434 . S
C504 C495 1.429 . S
C504 N501 1.350 . S
C504 C503 1.434 . S
C505 C506 1.369 . S
C505 C507 1.419 . S
C505 H509 0.930 . S
C506 C505 1.369 . S
C506 C515 1.429 . S
C507 C505 1.419 . S
C507 C508 1.363 . S
C507 H510 0.929 . S
C508 C507 1.363 . S
C508 C514 1.428 . S
H509 C505 0.930 . S
H510 C507 0.929 . S
S511 N512 1.613 . S
S511 N513 1.610 . S
N512 S511 1.613 . S
N512 C515 1.350 . S
N513 S511 1.610 . S
N513 C514 1.351 . S
C514 C508 1.428 . S
C514 N513 1.351 . S
C514 C515 1.434 . S
C515 C506 1.429 . S
C515 N512 1.350 . S
C515 C514 1.434 . S
C516 C517 1.369 . S
C516 C518 1.419 . S
C516 H520 0.930 . S
C517 C516 1.369 . S
C517 C526 1.429 . S
C518 C516 1.419 . S
C518 C519 1.363 . S
C518 H521 0.929 . S
C519 C518 1.363 . S
C519 C525 1.428 . S
H520 C516 0.930 . S
H521 C518 0.929 . S
S522 N523 1.613 . S
S522 N524 1.610 . S
N523 S522 1.613 . S
N523 C526 1.350 . S
N524 S522 1.610 . S
N524 C525 1.351 . S
C525 C519 1.428 . S
C525 N524 1.351 . S
C525 C526 1.434 . S
C526 C517 1.429 . S
C526 N523 1.350 . S
C526 C525 1.434 . S
C527 C528 1.369 . S
C527 C529 1.419 . S
C527 H531 0.930 . S
C528 C527 1.369 . S
C528 C537 1.429 . S
C529 C527 1.419 . S
C529 C530 1.363 . S
C529 H532 0.929 . S
C530 C529 1.363 . S
C530 C536 1.428 . S
H531 C527 0.930 . S
H532 C529 0.929 . S
S533 N534 1.613 . S
S533 N535 1.610 . S
N534 S533 1.613 . S
N534 C537 1.350 . S
N535 S533 1.610 . S
N535 C536 1.351 . S
C536 C530 1.428 . S
C536 N535 1.351 . S
C536 C537 1.434 . S
C537 C528 1.429 . S
C537 N534 1.350 . S
C537 C536 1.434 . S
C538 C539 1.369 . S
C538 C540 1.419 . S
C538 H542 0.930 . S
C539 C538 1.369 . S
C539 C548 1.429 . S
C540 C538 1.419 . S
C540 C541 1.363 . S
C540 H543 0.929 . S
C541 C540 1.363 . S
C541 C547 1.428 . S
H542 C538 0.930 . S
H543 C540 0.929 . S
S544 N545 1.613 . S
S544 N546 1.610 . S
N545 S544 1.613 . S
N545 C548 1.350 . S
N546 S544 1.610 . S
N546 C547 1.351 . S
C547 C541 1.428 . S
C547 N546 1.351 . S
C547 C548 1.434 . S
C548 C539 1.429 . S
C548 N545 1.350 . S
C548 C547 1.434 . S
C549 C550 1.369 . S
C549 C551 1.419 . S
C549 H553 0.930 . S
C550 C549 1.369 . S
C550 C559 1.429 . S
C551 C549 1.419 . S
C551 C552 1.363 . S
C551 H554 0.929 . S
C552 C551 1.363 . S
C552 C558 1.428 . S
H553 C549 0.930 . S
H554 C551 0.929 . S
S555 N556 1.613 . S
S555 N557 1.610 . S
N556 S555 1.613 . S
N556 C559 1.350 . S
N557 S555 1.610 . S
N557 C558 1.351 . S
C558 C552 1.428 . S
C558 N557 1.351 . S
C558 C559 1.434 . S
C559 C550 1.429 . S
C559 N556 1.350 . S
C559 C558 1.434 . S
C560 C561 1.369 1_545 S
C560 C562 1.419 . S
C560 H564 0.930 . S
C561 C560 1.369 1_565 S
C561 C570 1.429 . S
C562 C560 1.419 . S
C562 C563 1.363 . S
C562 H565 0.929 . S
C563 C562 1.363 . S
C563 C569 1.428 1_545 S
H564 C560 0.930 . S
H565 C562 0.929 . S
S566 N567 1.613 . S
S566 N568 1.610 . S
N567 S566 1.613 . S
N567 C570 1.350 . S
N568 S566 1.610 . S
N568 C569 1.351 . S
C569 C563 1.428 1_565 S
C569 N568 1.351 . S
C569 C570 1.434 . S
C570 C561 1.429 . S
C570 N567 1.350 . S
C570 C569 1.434 . S
C571 C572 1.369 . S
C571 C573 1.419 1_565 S
C571 H575 0.930 . S
C572 C571 1.369 . S
C572 C581 1.429 . S
C573 C571 1.419 1_545 S
C573 C574 1.363 . S
C573 H576 0.929 . S
C574 C573 1.363 . S
C574 C580 1.428 . S
H575 C571 0.930 . S
H576 C573 0.929 . S
S577 N578 1.613 1_545 S
S577 N579 1.610 . S
N578 S577 1.613 1_565 S
N578 C581 1.350 . S
N579 S577 1.610 . S
N579 C580 1.351 . S
C580 C574 1.428 . S
C580 N579 1.351 . S
C580 C581 1.434 1_545 S
C581 C572 1.429 . S
C581 N578 1.350 . S
C581 C580 1.434 1_565 S
C582 C583 1.369 . S
C582 C584 1.419 . S
C582 H586 0.930 . S
C583 C582 1.369 . S
C583 C592 1.429 1_565 S
C584 C582 1.419 . S
C584 C585 1.363 1_565 S
C584 H587 0.929 . S
C585 C584 1.363 1_545 S
C585 C591 1.428 . S
H586 C582 0.930 . S
H587 C584 0.929 . S
S588 N589 1.613 . S
S588 N590 1.610 . S
N589 S588 1.613 . S
N589 C592 1.350 . S
N590 S588 1.610 . S
N590 C591 1.351 . S
C591 C585 1.428 . S
C591 N590 1.351 . S
C591 C592 1.434 . S
C592 C583 1.429 1_545 S
C592 N589 1.350 . S
C592 C591 1.434 . S
C593 C594 1.369 . S
C593 C595 1.419 . S
C593 H597 0.930 . S
C594 C593 1.369 . S
C594 C603 1.429 1_565 S
C595 C593 1.419 . S
C595 C596 1.363 1_565 S
C595 H598 0.929 . S
C596 C595 1.363 1_545 S
C596 C602 1.428 . S
H597 C593 0.930 . S
H598 C595 0.929 . S
S599 N600 1.613 . S
S599 N601 1.610 . S
N600 S599 1.613 . S
N600 C603 1.350 . S
N601 S599 1.610 . S
N601 C602 1.351 . S
C602 C596 1.428 . S
C602 N601 1.351 . S
C602 C603 1.434 . S
C603 C594 1.429 1_545 S
C603 N600 1.350 . S
C603 C602 1.434 . S
C604 C605 1.369 . S
C604 C606 1.419 1_565 S
C604 H608 0.930 . S
C605 C604 1.369 . S
C605 C614 1.429 1_554 S
C606 C604 1.419 1_545 S
C606 C607 1.363 . S
C606 H609 0.929 . S
C607 C606 1.363 . S
C607 C613 1.428 1_554 S
H608 C604 0.930 . S
H609 C606 0.929 . S
S610 N611 1.613 1_545 S
S610 N612 1.610 . S
N611 S610 1.613 1_565 S
N611 C614 1.350 . S
N612 S610 1.610 . S
N612 C613 1.351 . S
C613 C607 1.428 1_556 S
C613 N612 1.351 . S
C613 C614 1.434 1_545 S
C614 C605 1.429 1_556 S
C614 N611 1.350 . S
C614 C613 1.434 1_565 S
C615 C616 1.369 1_545 S
C615 C617 1.419 . S
C615 H619 0.930 . S
C616 C615 1.369 1_565 S
C616 C625 1.429 . S
C617 C615 1.419 . S
C617 C618 1.363 . S
C617 H620 0.929 . S
C618 C617 1.363 . S
C618 C624 1.428 1_545 S
H619 C615 0.930 . S
H620 C617 0.929 . S
S621 N622 1.613 . S
S621 N623 1.610 . S
N622 S621 1.613 . S
N622 C625 1.350 . S
N623 S621 1.610 . S
N623 C624 1.351 . S
C624 C618 1.428 1_565 S
C624 N623 1.351 . S
C624 C625 1.434 . S
C625 C616 1.429 . S
C625 N622 1.350 . S
C625 C624 1.434 . S
C626 C627 1.369 . S
C626 C628 1.438 . S
C626 H630 0.930 . S
C627 C626 1.369 . S
C627 C636 1.429 1_455 S
C628 C626 1.438 . S
C628 C629 1.342 1_455 S
C628 H631 0.931 . S
C629 C628 1.342 1_655 S
C629 C635 1.428 . S
H630 C626 0.930 . S
H631 C628 0.931 . S
S632 N633 1.613 . S
S632 N634 1.610 . S
N633 S632 1.613 . S
N633 C636 1.350 . S
N634 S632 1.610 . S
N634 C635 1.351 . S
C635 C629 1.428 . S
C635 N634 1.351 . S
C635 C636 1.434 . S
C636 C627 1.429 1_655 S
C636 N633 1.350 . S
C636 C635 1.434 . S
C637 C638 1.369 . S
C637 C639 1.419 1_455 S
C637 H641 0.930 . S
C638 C637 1.369 . S
C638 C647 1.429 . S
C639 C637 1.419 1_655 S
C639 C640 1.363 . S
C639 H642 0.929 . S
C640 C639 1.363 . S
C640 C646 1.428 . S
H641 C637 0.930 . S
H642 C639 0.929 . S
S643 N644 1.613 1_655 S
S643 N645 1.610 . S
N644 S643 1.613 1_455 S
N644 C647 1.350 . S
N645 S643 1.610 . S
N645 C646 1.351 . S
C646 C640 1.428 . S
C646 N645 1.351 . S
C646 C647 1.434 1_655 S
C647 C638 1.429 . S
C647 N644 1.350 . S
C647 C646 1.434 1_455 S
C473 C347 1.517 . S
C475 C52 1.516 . S
C484 C288 1.514 . S
C486 C111 1.515 . S
C495 C465 1.516 . S
C497 C170 1.517 . S
C506 C406 1.514 . S
C508 C229 1.515 . S
C517 C3 1.496 . S
C519 C121 1.496 . S
C528 C62 1.495 . S
C530 C180 1.495 . S
C539 C92 1.515 . S
C541 C210 1.515 . S
C550 C33 1.515 . S
C552 C151 1.515 . S
C561 C239 1.495 . S
C563 C357 1.496 . S
C572 C416 1.499 . S
C574 C298 1.499 . S
C583 C446 1.515 . S
C585 C328 1.515 . S
C594 C269 1.515 . S
C596 C387 1.515 . S
C605 C64 1.510 . S
C607 C5 1.510 . S
C616 C123 1.510 . S
C618 C182 1.510 . S
C627 C241 1.510 . S
C629 C300 1.510 . S
C638 C359 1.510 . S
C640 C418 1.510 . S
