# Generated by pormake.
# Topology ukf, (4)-cn, num edge types: 1
# Building blocks:
#     Node 0, Type 0, BuildingBlock: GALJAG_clean_sbu_0, # of connection points: 4
#     Node 1, Type 0, BuildingBlock: GALJAG_clean_sbu_0, # of connection points: 4
#     Node 2, Type 0, BuildingBlock: GALJAG_clean_sbu_0, # of connection points: 4
#     Node 3, Type 0, BuildingBlock: GALJAG_clean_sbu_0, # of connection points: 4
#     Node 4, Type 0, BuildingBlock: GALJAG_clean_sbu_0, # of connection points: 4
#     Node 5, Type 0, BuildingBlock: GALJAG_clean_sbu_0, # of connection points: 4
#     Node 6, Type 0, BuildingBlock: GALJAG_clean_sbu_0, # of connection points: 4
#     Node 7, Type 0, BuildingBlock: GALJAG_clean_sbu_0, # of connection points: 4
#     Node 8, Type 0, BuildingBlock: GALJAG_clean_sbu_0, # of connection points: 4
#     Node 9, Type 0, BuildingBlock: GALJAG_clean_sbu_0, # of connection points: 4
#     Node 10, Type 0, BuildingBlock: GALJAG_clean_sbu_0, # of connection points: 4
#     Node 11, Type 0, BuildingBlock: GALJAG_clean_sbu_0, # of connection points: 4
#     Edge 12, Type (0, 0), BuildingBlock: EZIPEK_clean_linker_0, # of connection points: 2
#     Edge 13, Type (0, 0), BuildingBlock: EZIPEK_clean_linker_0, # of connection points: 2
#     Edge 14, Type (0, 0), BuildingBlock: EZIPEK_clean_linker_0, # of connection points: 2
#     Edge 15, Type (0, 0), BuildingBlock: EZIPEK_clean_linker_0, # of connection points: 2
#     Edge 16, Type (0, 0), BuildingBlock: EZIPEK_clean_linker_0, # of connection points: 2
#     Edge 17, Type (0, 0), BuildingBlock: EZIPEK_clean_linker_0, # of connection points: 2
#     Edge 18, Type (0, 0), BuildingBlock: EZIPEK_clean_linker_0, # of connection points: 2
#     Edge 19, Type (0, 0), BuildingBlock: EZIPEK_clean_linker_0, # of connection points: 2
#     Edge 20, Type (0, 0), BuildingBlock: EZIPEK_clean_linker_0, # of connection points: 2
#     Edge 21, Type (0, 0), BuildingBlock: EZIPEK_clean_linker_0, # of connection points: 2
#     Edge 22, Type (0, 0), BuildingBlock: EZIPEK_clean_linker_0, # of connection points: 2
#     Edge 23, Type (0, 0), BuildingBlock: EZIPEK_clean_linker_0, # of connection points: 2
#     Edge 24, Type (0, 0), BuildingBlock: EZIPEK_clean_linker_0, # of connection points: 2
#     Edge 25, Type (0, 0), BuildingBlock: EZIPEK_clean_linker_0, # of connection points: 2
#     Edge 26, Type (0, 0), BuildingBlock: EZIPEK_clean_linker_0, # of connection points: 2
#     Edge 27, Type (0, 0), BuildingBlock: EZIPEK_clean_linker_0, # of connection points: 2
#     Edge 28, Type (0, 0), BuildingBlock: EZIPEK_clean_linker_0, # of connection points: 2
#     Edge 29, Type (0, 0), BuildingBlock: EZIPEK_clean_linker_0, # of connection points: 2
#     Edge 30, Type (0, 0), BuildingBlock: EZIPEK_clean_linker_0, # of connection points: 2
#     Edge 31, Type (0, 0), BuildingBlock: EZIPEK_clean_linker_0, # of connection points: 2
#     Edge 32, Type (0, 0), BuildingBlock: EZIPEK_clean_linker_0, # of connection points: 2
#     Edge 33, Type (0, 0), BuildingBlock: EZIPEK_clean_linker_0, # of connection points: 2
#     Edge 34, Type (0, 0), BuildingBlock: EZIPEK_clean_linker_0, # of connection points: 2
#     Edge 35, Type (0, 0), BuildingBlock: EZIPEK_clean_linker_0, # of connection points: 2
# Relax obj value: 0.079
# Max RMSD: 0.071
# Mean RMSD: 0.071
data_MOF--net-ukf--node1-GALJAG_clean_sbu_0--edge1-EZIPEK_clean_linker_0
_symmetry_space_group_name_H-M    P1
_symmetry_Int_Tables_number       1
_symmetry_cell_setting            triclinic
loop_
_symmetry_equiv_pos_as_xyz
'x, y, z'
_cell_length_a     23.188698
_cell_length_b     23.169347
_cell_length_c     50.347974
_cell_angle_alpha  89.948594
_cell_angle_beta   90.119107
_cell_angle_gamma 120.13216
loop_
_atom_site_label
_atom_site_type_symbol
_atom_site_fract_x
_atom_site_fract_y
_atom_site_fract_z
_atom_type_partial_charge
In0 In 0.40695 0.23098 0.06134 0.0
O1 O 0.42534 0.19938 0.10177 0.0
O2 O 0.34627 0.22065 0.09882 0.0
C3 C 0.51011 0.23699 0.03506 0.0
C4 C 0.44643 0.36217 0.05901 0.0
C5 C 0.30952 0.12338 0.03561 0.0
O6 O 0.50118 0.22382 0.05953 0.0
O7 O 0.46765 0.24758 0.02384 0.0
O8 O 0.31307 0.17963 0.03476 0.0
O9 O 0.35197 0.12101 0.0505 0.0
C10 C 0.37972 0.20384 0.11345 0.0
O11 O 0.39253 0.31831 0.04846 0.0
O12 O 0.47916 0.34004 0.0709 0.0
In13 In 0.187 0.40843 0.3946 0.0
O14 O 0.07855 0.38597 0.38923 0.0
O15 O 0.15534 0.48579 0.39658 0.0
C16 C 0.19714 0.30893 0.37076 0.0
C17 C 0.19275 0.39603 0.4474 0.0
C18 C 0.29124 0.50489 0.36845 0.0
O19 O 0.17541 0.34192 0.35872 0.0
O20 O 0.20532 0.32024 0.39533 0.0
O21 O 0.29555 0.49251 0.39261 0.0
O22 O 0.23506 0.46926 0.35776 0.0
C23 C 0.0943 0.44636 0.39258 0.0
O24 O 0.23919 0.44322 0.43442 0.0
O25 O 0.14367 0.35424 0.43365 0.0
In26 In 0.77699 0.18344 0.72733 0.0
O27 O 0.69267 0.07594 0.71891 0.0
O28 O 0.66734 0.14703 0.73326 0.0
C29 C 0.8869 0.19287 0.70376 0.0
C30 C 0.79472 0.189 0.78022 0.0
C31 C 0.77729 0.28422 0.70074 0.0
O32 O 0.83057 0.16535 0.69263 0.0
O33 O 0.88627 0.20918 0.72754 0.0
O34 O 0.79709 0.29046 0.72449 0.0
O35 O 0.75657 0.22747 0.69065 0.0
C36 C 0.64726 0.08826 0.72557 0.0
O37 O 0.80498 0.23897 0.76646 0.0
O38 O 0.7768 0.13589 0.76717 0.0
In39 In 0.59498 0.77988 0.06 0.0
O40 O 0.61355 0.69212 0.05307 0.0
O41 O 0.51602 0.67073 0.06372 0.0
C42 C 0.69482 0.88693 0.03482 0.0
C43 C 0.61142 0.79987 0.11297 0.0
C44 C 0.49512 0.77742 0.03239 0.0
O45 O 0.6865 0.82896 0.0322 0.0
O46 O 0.65659 0.8911 0.05143 0.0
O47 O 0.50327 0.79083 0.05688 0.0
O48 O 0.5368 0.76479 0.02178 0.0
C49 C 0.55378 0.64814 0.058 0.0
O50 O 0.57045 0.80883 0.09969 0.0
O51 O 0.64656 0.78323 0.09944 0.0
In52 In 0.82722 0.59559 0.39404 0.0
O53 O 0.93147 0.61256 0.38454 0.0
O54 O 0.85965 0.51948 0.40153 0.0
C55 C 0.81979 0.69337 0.36744 0.0
C56 C 0.82737 0.61982 0.44647 0.0
C57 C 0.73028 0.49462 0.36635 0.0
O58 O 0.86955 0.68527 0.36523 0.0
O59 O 0.77638 0.65479 0.38372 0.0
O60 O 0.7212 0.50772 0.3898 0.0
O61 O 0.78787 0.53146 0.35711 0.0
C62 C 0.9177 0.55521 0.3925 0.0
O63 O 0.77863 0.57199 0.43484 0.0
O64 O 0.87605 0.6568 0.43165 0.0
In65 In 0.22938 0.8224 0.72694 0.0
O66 O 0.31939 0.92483 0.71617 0.0
O67 O 0.33715 0.85282 0.73502 0.0
C68 C 0.12369 0.81729 0.70184 0.0
C69 C 0.20265 0.81829 0.77928 0.0
C70 C 0.23388 0.72552 0.69959 0.0
O71 O 0.18092 0.86903 0.70107 0.0
O72 O 0.11964 0.77123 0.71644 0.0
O73 O 0.229 0.72444 0.72458 0.0
O74 O 0.23658 0.77553 0.68837 0.0
C75 C 0.3616 0.91033 0.72517 0.0
O76 O 0.18873 0.76712 0.76577 0.0
O77 O 0.2278 0.87205 0.76621 0.0
In78 In 0.78318 0.59833 0.61311 0.0
O79 O 0.80973 0.57564 0.57246 0.0
O80 O 0.79517 0.65899 0.57541 0.0
C81 C 0.78355 0.50052 0.64134 0.0
C82 C 0.65036 0.55145 0.61527 0.0
C83 C 0.88886 0.69834 0.63857 0.0
O84 O 0.79153 0.50511 0.61643 0.0
O85 O 0.77597 0.54559 0.65199 0.0
O86 O 0.83119 0.69137 0.64004 0.0
O87 O 0.89334 0.65796 0.62313 0.0
C88 C 0.80752 0.62251 0.56064 0.0
O89 O 0.69242 0.61139 0.62102 0.0
O90 O 0.67536 0.51642 0.60857 0.0
In91 In 0.18372 0.78094 0.94679 0.0
O92 O 0.23552 0.81129 0.90694 0.0
O93 O 0.13394 0.78642 0.90801 0.0
C94 C 0.2819 0.77771 0.97369 0.0
C95 C 0.09308 0.64917 0.94902 0.0
C96 C 0.19171 0.88823 0.97183 0.0
O97 O 0.28659 0.79199 0.94932 0.0
O98 O 0.22754 0.76435 0.9845 0.0
O99 O 0.13957 0.83141 0.97283 0.0
O100 O 0.23672 0.89129 0.95696 0.0
C101 C 0.18534 0.8034 0.89412 0.0
O102 O 0.08133 0.69264 0.95868 0.0
O103 O 0.14942 0.67206 0.9383 0.0
In104 In 0.41859 0.18495 0.27862 0.0
O105 O 0.43835 0.22755 0.23695 0.0
O106 O 0.3482 0.13569 0.24312 0.0
C107 C 0.52374 0.2845 0.30348 0.0
C108 C 0.45786 0.09317 0.28012 0.0
C109 C 0.32737 0.20073 0.30653 0.0
O110 O 0.51051 0.28903 0.27947 0.0
O111 O 0.48522 0.22946 0.31454 0.0
O112 O 0.33381 0.15003 0.30956 0.0
O113 O 0.36443 0.24096 0.28895 0.0
C114 C 0.38581 0.18061 0.22693 0.0
O115 O 0.40175 0.08069 0.28908 0.0
O116 O 0.49241 0.15035 0.27012 0.0
In117 In 0.23649 0.41244 0.61455 0.0
O118 O 0.21499 0.44342 0.57467 0.0
O119 O 0.23093 0.36017 0.57542 0.0
C120 C 0.23944 0.51394 0.64138 0.0
C121 C 0.36498 0.44364 0.61662 0.0
C122 C 0.12512 0.31443 0.63845 0.0
O123 O 0.21862 0.50049 0.61774 0.0
O124 O 0.25964 0.47725 0.65122 0.0
O125 O 0.18236 0.33811 0.64861 0.0
O126 O 0.12497 0.33556 0.61543 0.0
C127 C 0.21882 0.39874 0.56174 0.0
O128 O 0.31809 0.3853 0.62194 0.0
O129 O 0.34696 0.48474 0.6102 0.0
In130 In 0.81804 0.23213 0.94792 0.0
O131 O 0.92111 0.32015 0.95938 0.0
O132 O 0.85296 0.34092 0.93898 0.0
C133 C 0.81053 0.12401 0.97223 0.0
C134 C 0.81303 0.20884 0.89516 0.0
C135 C 0.72261 0.23719 0.97601 0.0
O136 O 0.86338 0.18034 0.97272 0.0
O137 O 0.7644 0.12195 0.95831 0.0
O138 O 0.71587 0.22209 0.95169 0.0
O139 O 0.77765 0.2504 0.98621 0.0
C140 C 0.90954 0.36368 0.94957 0.0
O141 O 0.7635 0.20072 0.90845 0.0
O142 O 0.86537 0.22657 0.90861 0.0
In143 In 0.59892 0.81939 0.2808 0.0
O144 O 0.5738 0.76243 0.24193 0.0
O145 O 0.64365 0.86721 0.24085 0.0
C146 C 0.50101 0.71591 0.30723 0.0
C147 C 0.56227 0.91288 0.28349 0.0
C148 C 0.70181 0.81268 0.30338 0.0
O149 O 0.50724 0.71457 0.28235 0.0
O150 O 0.54367 0.76888 0.31848 0.0
O151 O 0.66905 0.83403 0.31574 0.0
O152 O 0.68801 0.80255 0.27901 0.0
C153 C 0.61093 0.81326 0.22801 0.0
O154 O 0.62122 0.92673 0.28884 0.0
O155 O 0.52313 0.8533 0.27692 0.0
C156 C 0.22888 0.00941 0.97575 0.0
C157 C 0.20361 0.94653 0.98833 0.0
C158 C 0.22576 1.00194 0.03176 0.0
C159 C 0.26323 0.06481 0.01915 0.0
N160 N 0.30479 0.12843 0.97856 0.0
N161 N 0.18216 0.88292 0.02893 0.0
C162 C 0.26493 0.06888 0.99096 0.0
C163 C 0.2018 0.94246 0.01654 0.0
N164 N 0.21837 0.01205 0.94918 0.0
N165 N 0.21324 0.99928 0.05837 0.0
H166 H 0.16456 0.83793 0.01886 0.0
H167 H 0.18803 0.87884 0.04923 0.0
H168 H 0.2296 0.04218 0.06991 0.0
H169 H 0.18108 0.95525 0.06833 0.0
H170 H 0.23017 0.05609 0.93925 0.0
H171 H 0.19137 0.96912 0.93768 0.0
H172 H 0.31425 0.13254 0.95822 0.0
H173 H 0.33269 0.17335 0.98865 0.0
C174 C 0.29801 0.30078 0.35911 0.0
C175 C 0.22811 0.27519 0.35633 0.0
C176 C 0.22112 0.19134 0.3243 0.0
C177 C 0.29138 0.22024 0.32573 0.0
N178 N 0.39731 0.30046 0.34455 0.0
N179 N 0.12247 0.19704 0.33674 0.0
C180 C 0.32967 0.27373 0.34347 0.0
C181 C 0.18938 0.22044 0.3391 0.0
N182 N 0.33477 0.35188 0.37647 0.0
N183 N 0.18515 0.13603 0.30884 0.0
H184 H 0.09752 0.21491 0.34831 0.0
H185 H 0.09154 0.16144 0.32297 0.0
H186 H 0.20747 0.11459 0.29771 0.0
H187 H 0.13338 0.10891 0.30799 0.0
H188 H 0.38246 0.36507 0.38293 0.0
H189 H 0.31797 0.38148 0.38511 0.0
H190 H 0.43036 0.34581 0.35341 0.0
H191 H 0.42134 0.27776 0.33577 0.0
C192 C 0.98199 0.29182 0.68205 0.0
C193 C 0.94965 0.22265 0.6881 0.0
C194 C 0.03578 0.21358 0.663 0.0
C195 C 0.06344 0.281 0.65476 0.0
N196 N 0.05306 0.37982 0.65197 0.0
N197 N 0.9412 0.11554 0.68249 0.0
C198 C 0.0336 0.31867 0.66291 0.0
C199 C 0.97517 0.18275 0.67797 0.0
N200 N 0.96471 0.33292 0.69492 0.0
N201 N 0.06756 0.17931 0.65659 0.0
H202 H 0.89832 0.09229 0.69418 0.0
H203 H 0.95311 0.08243 0.6735 0.0
H204 H 0.11038 0.19983 0.64486 0.0
H205 H 0.05397 0.13234 0.66413 0.0
H206 H 0.99295 0.3848 0.69386 0.0
H207 H 0.9251 0.31626 0.70814 0.0
H208 H 0.02654 0.40477 0.65452 0.0
H209 H 0.09282 0.40417 0.63889 0.0
C210 C 0.73456 0.94242 0.98995 0.0
C211 C 0.74049 0.94534 0.01812 0.0
C212 C 0.80568 0.06778 0.01607 0.0
C213 C 0.79954 0.06474 0.98792 0.0
N214 N 0.77745 0.99986 0.94804 0.0
N215 N 0.79836 0.00866 0.05691 0.0
C216 C 0.77059 1.0021 0.9749 0.0
C217 C 0.7819 0.00748 0.03077 0.0
N218 N 0.69076 0.88412 0.97754 0.0
N219 N 0.82943 0.12725 0.02905 0.0
H220 H 0.78229 0.96513 0.068 0.0
H221 H 0.83323 0.05187 0.06669 0.0
H222 H 0.84726 0.17278 0.01938 0.0
H223 H 0.82696 0.13092 0.04959 0.0
H224 H 0.67859 0.88152 0.95748 0.0
H225 H 0.66228 0.83908 0.98744 0.0
H226 H 0.76274 0.95571 0.93766 0.0
H227 H 0.80444 0.04292 0.93663 0.0
C228 C 0.78859 0.82648 0.33727 0.0
C229 C 0.74134 0.7873 0.31741 0.0
C230 C 0.76605 0.69751 0.32544 0.0
C231 C 0.80405 0.73172 0.34806 0.0
N232 N 0.84983 0.82754 0.37676 0.0
N233 N 0.67384 0.67781 0.29743 0.0
C234 C 0.81524 0.79617 0.35428 0.0
C235 C 0.72753 0.72098 0.31248 0.0
N236 N 0.80891 0.89274 0.33949 0.0
N237 N 0.76576 0.64169 0.31653 0.0
H238 H 0.64015 0.68977 0.28904 0.0
H239 H 0.65779 0.62708 0.29592 0.0
H240 H 0.794 0.62341 0.32541 0.0
H241 H 0.74347 0.61812 0.2987 0.0
H242 H 0.84736 0.92525 0.35202 0.0
H243 H 0.79142 0.91653 0.32697 0.0
H244 H 0.85338 0.87122 0.38409 0.0
H245 H 0.87218 0.80761 0.38883 0.0
C246 C 0.00943 0.78474 0.64224 0.0
C247 C 0.94696 0.7461 0.65495 0.0
C248 C 1.00304 0.78142 0.69821 0.0
C249 C 0.06564 0.80694 0.68551 0.0
N250 N 0.12872 0.83029 0.64476 0.0
N251 N 0.88435 0.7044 0.69578 0.0
C252 C 0.06925 0.80937 0.65731 0.0
C253 C 0.94339 0.74468 0.68317 0.0
N254 N 0.01135 0.79769 0.61568 0.0
N255 N 1.00087 0.79213 0.72478 0.0
H256 H 0.83924 0.67597 0.6859 0.0
H257 H 0.88087 0.69523 0.71614 0.0
H258 H 0.04402 0.81958 0.73612 0.0
H259 H 0.95701 0.78013 0.73482 0.0
H260 H 0.05498 0.83053 0.60566 0.0
H261 H 0.96814 0.78098 0.6043 0.0
H262 H 0.13258 0.82482 0.62442 0.0
H263 H 0.17399 0.84892 0.65471 0.0
C264 C 0.60635 0.17742 0.99368 0.0
C265 C 0.66884 0.23719 0.99161 0.0
C266 C 0.62886 0.29518 0.02026 0.0
C267 C 0.56482 0.23715 0.02026 0.0
N268 N 0.48892 0.12595 0.00438 0.0
N269 N 0.73774 0.35548 0.99951 0.0
C270 C 0.55241 0.17912 0.00614 0.0
C271 C 0.67986 0.29679 0.00411 0.0
N272 N 0.59948 0.11841 0.98489 0.0
N273 N 0.64092 0.34847 0.03582 0.0
H274 H 0.77597 0.35887 0.98754 0.0
H275 H 0.74589 0.40182 0.00573 0.0
H276 H 0.60398 0.34996 0.04709 0.0
H277 H 0.68829 0.38929 0.03902 0.0
H278 H 0.55737 0.07213 0.98844 0.0
H279 H 0.63827 0.11472 0.97618 0.0
H280 H 0.47546 0.0854 0.99184 0.0
H281 H 0.44835 0.12438 0.01399 0.0
C282 C 0.36126 0.62532 0.357 0.0
C283 C 0.34691 0.55873 0.35361 0.0
C284 C 0.4362 0.59523 0.32075 0.0
C285 C 0.44648 0.66093 0.32234 0.0
N286 N 0.40934 0.73563 0.33773 0.0
N287 N 0.3625 0.47757 0.32956 0.0
C288 C 0.40662 0.67535 0.33941 0.0
C289 C 0.38182 0.5428 0.33461 0.0
N290 N 0.33137 0.64075 0.37696 0.0
N291 N 0.48011 0.58337 0.30708 0.0
H292 H 0.32397 0.43787 0.33981 0.0
H293 H 0.38123 0.46254 0.31391 0.0
H294 H 0.52105 0.62043 0.2969 0.0
H295 H 0.47942 0.5381 0.30776 0.0
H296 H 0.34552 0.68953 0.38228 0.0
H297 H 0.29588 0.60502 0.38965 0.0
H298 H 0.37669 0.74651 0.34774 0.0
H299 H 0.43956 0.77263 0.32421 0.0
C300 C 0.7324 0.3605 0.6917 0.0
C301 C 0.77856 0.33935 0.68561 0.0
C302 C 0.83259 0.42891 0.65294 0.0
C303 C 0.78216 0.44562 0.65688 0.0
N304 N 0.67536 0.41726 0.67585 0.0
N305 N 0.86302 0.34358 0.65632 0.0
C306 C 0.72975 0.40898 0.67525 0.0
C307 C 0.82561 0.37036 0.6649 0.0
N308 N 0.69046 0.33373 0.71291 0.0
N309 N 0.88884 0.47058 0.63892 0.0
H310 H 0.85908 0.30031 0.66436 0.0
H311 H 0.89331 0.36068 0.63955 0.0
H312 H 0.89764 0.51579 0.6309 0.0
H313 H 0.93001 0.46394 0.6378 0.0
H314 H 0.66125 0.35278 0.72008 0.0
H315 H 0.68817 0.29534 0.72454 0.0
H316 H 0.63279 0.38705 0.68695 0.0
H317 H 0.6694 0.44948 0.66317 0.0
C318 C 0.40005 0.83634 0.98971 0.0
C319 C 0.33656 0.77742 0.98861 0.0
C320 C 0.37603 0.72015 0.01798 0.0
C321 C 0.44079 0.7771 0.01716 0.0
N322 N 0.51794 0.88589 0.99952 0.0
N323 N 0.26655 0.65981 0.99768 0.0
C324 C 0.45393 0.83411 1.0021 0.0
C325 C 0.32502 0.71834 1.00174 0.0
N326 N 0.408 0.89522 0.98018 0.0
N327 N 0.36319 0.66808 0.03445 0.0
H328 H 0.2284 0.65606 0.98549 0.0
H329 H 0.25802 0.6137 0.00444 0.0
H330 H 0.39994 0.66654 0.0459 0.0
H331 H 0.31539 0.62862 0.03824 0.0
H332 H 0.45113 0.94115 0.983 0.0
H333 H 0.36934 0.89942 0.97156 0.0
H334 H 0.53161 0.92543 0.9864 0.0
H335 H 0.5585 0.88705 0.00906 0.0
C336 C 0.6288 0.32996 0.33004 0.0
C337 C 0.57881 0.34002 0.31822 0.0
C338 C 0.62696 0.45073 0.3389 0.0
C339 C 0.67714 0.44075 0.35045 0.0
N340 N 0.72992 0.37487 0.35664 0.0
N341 N 0.5311 0.41001 0.30954 0.0
C342 C 0.67919 0.38141 0.3459 0.0
C343 C 0.57831 0.40063 0.32201 0.0
N344 N 0.62762 0.27089 0.32611 0.0
N345 N 0.62544 0.50778 0.34457 0.0
H346 H 0.49144 0.37295 0.29875 0.0
H347 H 0.53162 0.4551 0.30894 0.0
H348 H 0.66165 0.54651 0.35606 0.0
H349 H 0.58727 0.51648 0.33904 0.0
H350 H 0.65726 0.25642 0.33635 0.0
H351 H 0.59544 0.23459 0.31271 0.0
H352 H 0.73944 0.33672 0.35205 0.0
H353 H 0.76471 0.40937 0.3699 0.0
C354 C 0.28352 0.6357 0.64934 0.0
C355 C 0.23965 0.56835 0.65663 0.0
C356 C 0.18776 0.6042 0.68996 0.0
C357 C 0.23578 0.67171 0.68459 0.0
N358 N 0.33869 0.75135 0.66322 0.0
N359 N 0.16097 0.48925 0.68812 0.0
C360 C 0.28616 0.68758 0.66527 0.0
C361 C 0.19536 0.55279 0.67834 0.0
N362 N 0.32332 0.6502 0.62748 0.0
N363 N 0.13281 0.58888 0.70498 0.0
H364 H 0.16499 0.44982 0.68031 0.0
H365 H 0.1332 0.47699 0.70557 0.0
H366 H 0.12329 0.62491 0.71281 0.0
H367 H 0.09297 0.54038 0.70717 0.0
H368 H 0.35031 0.69797 0.61944 0.0
H369 H 0.32624 0.61385 0.61632 0.0
H370 H 0.38019 0.76439 0.65135 0.0
H371 H 0.34446 0.79025 0.67541 0.0
C372 C 0.35381 0.13135 0.15368 0.0
C373 C 0.36959 0.19377 0.1425 0.0
C374 C 0.3746 0.2383 0.18708 0.0
C375 C 0.37046 0.18015 0.19826 0.0
N376 N 0.36038 0.07196 0.1921 0.0
N377 N 0.40343 0.30992 0.14858 0.0
C378 C 0.36019 0.12626 0.18159 0.0
C379 C 0.38142 0.24799 0.15917 0.0
N380 N 0.33177 0.07673 0.1376 0.0
N381 N 0.37094 0.28383 0.20318 0.0
H382 H 0.4112 0.31973 0.12832 0.0
H383 H 0.41989 0.35275 0.16007 0.0
H384 H 0.36415 0.27729 0.22368 0.0
H385 H 0.3674 0.32409 0.19595 0.0
H386 H 0.31314 0.02843 0.14479 0.0
H387 H 0.32613 0.07883 0.11711 0.0
H388 H 0.36169 0.03535 0.18056 0.0
H389 H 0.36388 0.06543 0.21237 0.0
C390 C 0.14412 0.38497 0.49319 0.0
C391 C 0.19633 0.39043 0.47667 0.0
C392 C 0.26391 0.40259 0.51608 0.0
C393 C 0.21017 0.39277 0.53254 0.0
N394 N 0.09438 0.36056 0.53704 0.0
N395 N 0.29856 0.38757 0.47254 0.0
C396 C 0.1488 0.37973 0.52116 0.0
C397 C 0.25411 0.39425 0.48817 0.0
N398 N 0.09165 0.38818 0.48241 0.0
N399 N 0.3253 0.42308 0.52693 0.0
H400 H 0.29197 0.37905 0.45212 0.0
H401 H 0.33809 0.38339 0.48017 0.0
H402 H 0.33493 0.43142 0.54722 0.0
H403 H 0.36803 0.43789 0.51561 0.0
H404 H 0.05663 0.3927 0.49377 0.0
H405 H 0.08576 0.39196 0.4621 0.0
H406 H 0.0465 0.3434 0.52965 0.0
H407 H 0.09579 0.35573 0.55761 0.0
C408 C 0.78301 0.23705 0.85117 0.0
C409 C 0.81078 0.20428 0.86571 0.0
C410 C 0.83498 0.16678 0.82376 0.0
C411 C 0.79917 0.1921 0.80969 0.0
N412 N 0.72373 0.23555 0.81153 0.0
N413 N 0.85253 0.1275 0.86598 0.0
C414 C 0.76875 0.22273 0.82382 0.0
C415 C 0.83395 0.16621 0.85206 0.0
N416 N 0.77292 0.28424 0.86309 0.0
N417 N 0.87228 0.14592 0.81025 0.0
H418 H 0.85105 0.12448 0.88665 0.0
H419 H 0.86327 0.09357 0.85693 0.0
H420 H 0.87615 0.14745 0.78961 0.0
H421 H 0.90458 0.13336 0.81963 0.0
H422 H 0.75861 0.3138 0.85257 0.0
H423 H 0.78642 0.29954 0.88271 0.0
H424 H 0.69575 0.25215 0.82177 0.0
H425 H 0.7084 0.2222 0.7919 0.0
C426 C 0.5521 0.767 0.15667 0.0
C427 C 0.6129 0.80242 0.14245 0.0
C428 C 0.67387 0.8384 0.18469 0.0
C429 C 0.6123 0.81026 0.19856 0.0
N430 N 0.49259 0.76218 0.19663 0.0
N431 N 0.73109 0.88159 0.14284 0.0
C432 C 0.55129 0.77853 0.18426 0.0
C433 C 0.6738 0.8408 0.15642 0.0
N434 N 0.49542 0.7201 0.14414 0.0
N435 N 0.73218 0.8604 0.19837 0.0
H436 H 0.73289 0.88588 0.1222 0.0
H437 H 0.77538 0.91582 0.15217 0.0
H438 H 0.73422 0.85774 0.219 0.0
H439 H 0.77763 0.87511 0.18912 0.0
H440 H 0.45158 0.68839 0.15431 0.0
H441 H 0.4941 0.70745 0.1242 0.0
H442 H 0.44781 0.74497 0.18637 0.0
H443 H 0.48971 0.77289 0.21653 0.0
C444 C 0.7676 0.63289 0.51513 0.0
C445 C 0.8173 0.63215 0.53149 0.0
C446 C 0.87534 0.62575 0.49193 0.0
C447 C 0.82753 0.62974 0.47557 0.0
N448 N 0.7378 0.65319 0.47131 0.0
N449 N 0.92719 0.64597 0.53534 0.0
C450 C 0.77666 0.63839 0.48711 0.0
C451 C 0.87396 0.63428 0.51982 0.0
N452 N 0.70991 0.62441 0.52605 0.0
N453 N 0.91959 0.60987 0.4811 0.0
H454 H 0.92863 0.6543 0.55576 0.0
H455 H 0.97242 0.65441 0.52762 0.0
H456 H 0.92097 0.60119 0.46088 0.0
H457 H 0.95065 0.59911 0.49244 0.0
H458 H 0.66882 0.61637 0.51477 0.0
H459 H 0.70055 0.61983 0.54637 0.0
H460 H 0.70447 0.66682 0.47879 0.0
H461 H 0.74361 0.65831 0.45074 0.0
C462 C 0.20978 0.76934 0.85051 0.0
C463 C 0.18552 0.80567 0.86466 0.0
C464 C 0.16479 0.845 0.82234 0.0
C465 C 0.1974 0.81578 0.80869 0.0
N466 N 0.2668 0.76538 0.8112 0.0
N467 N 0.14886 0.88646 0.86433 0.0
C468 C 0.22436 0.78219 0.82316 0.0
C469 C 0.16521 0.84576 0.85068 0.0
N470 N 0.2165 0.72047 0.86289 0.0
N471 N 0.13144 0.86979 0.80837 0.0
H472 H 0.14935 0.88898 0.88501 0.0
H473 H 0.14046 0.92188 0.85513 0.0
H474 H 0.12898 0.86897 0.78767 0.0
H475 H 0.1012 0.88551 0.81731 0.0
H476 H 0.22804 0.68844 0.85268 0.0
H477 H 0.2029 0.70662 0.88261 0.0
H478 H 0.29256 0.74654 0.8217 0.0
H479 H 0.28257 0.77749 0.79157 0.0
C480 C 0.53614 0.54303 0.03539 0.0
C481 C 0.52891 0.57517 0.05812 0.0
C482 C 0.45776 0.46609 0.07895 0.0
C483 C 0.47074 0.43466 0.05758 0.0
N484 N 0.52959 0.44301 0.01705 0.0
N485 N 0.49511 0.568 0.10392 0.0
C486 C 0.51221 0.47311 0.03625 0.0
C487 C 0.49299 0.53685 0.08058 0.0
N488 N 0.56272 0.57839 0.01255 0.0
N489 N 0.4107 0.42828 0.09743 0.0
H490 H 0.52312 0.61963 0.10637 0.0
H491 H 0.47519 0.54245 0.12163 0.0
H492 H 0.38286 0.37633 0.09635 0.0
H493 H 0.39456 0.44849 0.11213 0.0
H494 H 0.56262 0.55621 0.99455 0.0
H495 H 0.57964 0.62927 0.01087 0.0
H496 H 0.56578 0.46945 1.00273 0.0
H497 H 0.51114 0.39164 0.01654 0.0
C498 C 0.01385 0.54852 0.41141 0.0
C499 C 0.9652 0.53028 0.39124 0.0
C500 C 1.00209 0.45788 0.37092 0.0
C501 C 0.04604 0.47084 0.3927 0.0
N502 N 0.08345 0.51788 0.43648 0.0
N503 N 0.90753 0.46308 0.35307 0.0
C504 C 0.04916 0.51337 0.41371 0.0
C505 C 0.95745 0.48327 0.37145 0.0
N506 N 0.02701 0.60008 0.42818 0.0
N507 N 0.00564 0.42488 0.34905 0.0
H508 H 0.87738 0.48446 0.35151 0.0
H509 H 0.89368 0.42279 0.34034 0.0
H510 H 0.03859 0.40684 0.34751 0.0
H511 H 0.98008 0.42037 0.33144 0.0
H512 H 0.06665 0.62013 0.44158 0.0
H513 H 1.00233 0.6272 0.42693 0.0
H514 H 0.08156 0.54235 0.45351 0.0
H515 H 0.10832 0.49141 0.43945 0.0
C516 C 0.53951 0.02365 0.70055 0.0
C517 C 0.57517 0.03828 0.72487 0.0
C518 C 0.47019 0.97549 0.74934 0.0
C519 C 0.43472 0.95694 0.7249 0.0
N520 N 0.43583 0.95371 0.67702 0.0
N521 N 0.57683 0.02033 0.7719 0.0
C522 C 0.46939 0.97849 0.7004 0.0
C523 C 0.54112 0.01178 0.74913 0.0
N524 N 0.57235 0.05463 0.67772 0.0
N525 N 0.43593 0.96087 0.77279 0.0
H526 H 0.62886 0.04693 0.77242 0.0
H527 H 0.55544 0.99642 0.78972 0.0
H528 H 0.38398 0.93557 0.77378 0.0
H529 H 0.45862 0.97891 0.79114 0.0
H530 H 0.54817 0.05246 0.65998 0.0
H531 H 0.62389 0.0864 0.67692 0.0
H532 H 0.4594 0.96153 0.65871 0.0
H533 H 0.38455 0.92077 0.67606 0.0
C534 C 0.53729 0.48649 0.59396 0.0
C535 C 0.5769 0.52308 0.61614 0.0
C536 C 0.47607 0.50461 0.6394 0.0
C537 C 0.43654 0.46425 0.61799 0.0
N538 N 0.42766 0.40523 0.57749 0.0
N539 N 0.58238 0.5539 0.66229 0.0
C540 C 0.46663 0.45129 0.59615 0.0
C541 C 0.54593 0.52876 0.63953 0.0
N542 N 0.56698 0.48829 0.57029 0.0
N543 N 0.44694 0.5204 0.65953 0.0
H544 H 0.63315 0.5701 0.66352 0.0
H545 H 0.56116 0.55277 0.68063 0.0
H546 H 0.3955 0.50048 0.66095 0.0
H547 H 0.47406 0.55621 0.67394 0.0
H548 H 0.54048 0.46859 0.55273 0.0
H549 H 0.6184 0.51535 0.56743 0.0
H550 H 0.44677 0.38881 0.56246 0.0
H551 H 0.37573 0.37863 0.57854 0.0
C552 C 0.0261 0.54141 0.97404 0.0
C553 C 0.0445 0.57644 0.94953 0.0
C554 C 0.98173 0.47068 0.9253 0.0
C555 C 0.95855 0.43634 0.9498 0.0
N556 N 0.94971 0.43973 0.99743 0.0
N557 N 0.03179 0.57654 0.90199 0.0
C558 C 0.9784 0.47184 0.9742 0.0
C559 C 0.02014 0.54161 0.92518 0.0
N560 N 0.05611 0.57401 0.99706 0.0
N561 N 0.96898 0.43527 0.90219 0.0
H562 H 0.05916 0.62854 0.90111 0.0
H563 H 0.00945 0.55457 0.88398 0.0
H564 H 0.94169 0.38325 0.90148 0.0
H565 H 0.99042 0.45689 0.88404 0.0
H566 H 0.05053 0.54972 0.0151 0.0
H567 H 0.09106 0.62488 0.99778 0.0
H568 H 0.95639 0.46439 0.01544 0.0
H569 H 0.91476 0.3889 0.99839 0.0
C570 C 0.53733 0.99136 0.25884 0.0
C571 C 0.54011 0.96266 0.28333 0.0
C572 C 0.49137 0.02162 0.30618 0.0
C573 C 0.48295 0.04549 0.28129 0.0
N574 N 0.48812 0.04469 0.23343 0.0
N575 N 0.51192 0.94217 0.32972 0.0
C576 C 0.50352 0.02826 0.25747 0.0
C577 C 0.51487 0.97541 0.30686 0.0
N578 N 0.56793 0.98407 0.23695 0.0
N579 N 0.48013 0.04556 0.32923 0.0
H580 H 0.53084 0.90982 0.33117 0.0
H581 H 0.48676 0.94308 0.34668 0.0
H582 H 0.46384 0.08009 0.32966 0.0
H583 H 0.49238 0.03566 0.34793 0.0
H584 H 0.57402 0.00964 0.21922 0.0
H585 H 0.59244 0.95666 0.23718 0.0
H586 H 0.49519 0.02742 0.21534 0.0
H587 H 0.4625 0.07075 0.23156 0.0
loop_
_geom_bond_atom_site_label_1
_geom_bond_atom_site_label_2
_geom_bond_distance
_geom_bond_site_symmetry_2
_ccdc_geom_bond_type
In0 O1 2.294 . S
In0 O2 2.326 . S
In0 O6 2.266 . S
In0 O7 2.326 . S
In0 O8 2.266 . S
In0 O9 2.326 . S
In0 O11 2.294 . S
In0 O12 2.326 . S
O1 In0 2.294 . S
O1 C10 1.240 . S
O2 In0 2.326 . S
O2 C10 1.252 . S
C3 O6 1.252 . S
C3 O7 1.260 . S
C4 O11 1.240 . S
C4 O12 1.252 . S
C5 O8 1.252 . S
C5 O9 1.260 . S
O6 In0 2.266 . S
O6 C3 1.252 . S
O7 In0 2.326 . S
O7 C3 1.260 . S
O8 In0 2.266 . S
O8 C5 1.252 . S
O9 In0 2.326 . S
O9 C5 1.260 . S
C10 O1 1.240 . S
C10 O2 1.252 . S
O11 In0 2.294 . S
O11 C4 1.240 . S
O12 In0 2.326 . S
O12 C4 1.252 . S
In13 O14 2.294 . S
In13 O15 2.326 . S
In13 O19 2.266 . S
In13 O20 2.326 . S
In13 O21 2.266 . S
In13 O22 2.326 . S
In13 O24 2.294 . S
In13 O25 2.326 . S
O14 In13 2.294 . S
O14 C23 1.240 . S
O15 In13 2.326 . S
O15 C23 1.252 . S
C16 O19 1.252 . S
C16 O20 1.260 . S
C17 O24 1.240 . S
C17 O25 1.252 . S
C18 O21 1.252 . S
C18 O22 1.260 . S
O19 In13 2.266 . S
O19 C16 1.252 . S
O20 In13 2.326 . S
O20 C16 1.260 . S
O21 In13 2.266 . S
O21 C18 1.252 . S
O22 In13 2.326 . S
O22 C18 1.260 . S
C23 O14 1.240 . S
C23 O15 1.252 . S
O24 In13 2.294 . S
O24 C17 1.240 . S
O25 In13 2.326 . S
O25 C17 1.252 . S
In26 O27 2.294 . S
In26 O28 2.326 . S
In26 O32 2.266 . S
In26 O33 2.326 . S
In26 O34 2.266 . S
In26 O35 2.326 . S
In26 O37 2.294 . S
In26 O38 2.326 . S
O27 In26 2.294 . S
O27 C36 1.240 . S
O28 In26 2.326 . S
O28 C36 1.252 . S
C29 O32 1.252 . S
C29 O33 1.260 . S
C30 O37 1.240 . S
C30 O38 1.252 . S
C31 O34 1.252 . S
C31 O35 1.260 . S
O32 In26 2.266 . S
O32 C29 1.252 . S
O33 In26 2.326 . S
O33 C29 1.260 . S
O34 In26 2.266 . S
O34 C31 1.252 . S
O35 In26 2.326 . S
O35 C31 1.260 . S
C36 O27 1.240 . S
C36 O28 1.252 . S
O37 In26 2.294 . S
O37 C30 1.240 . S
O38 In26 2.326 . S
O38 C30 1.252 . S
In39 O40 2.294 . S
In39 O41 2.326 . S
In39 O45 2.266 . S
In39 O46 2.326 . S
In39 O47 2.266 . S
In39 O48 2.326 . S
In39 O50 2.294 . S
In39 O51 2.326 . S
O40 In39 2.294 . S
O40 C49 1.240 . S
O41 In39 2.326 . S
O41 C49 1.252 . S
C42 O45 1.252 . S
C42 O46 1.260 . S
C43 O50 1.240 . S
C43 O51 1.252 . S
C44 O47 1.252 . S
C44 O48 1.260 . S
O45 In39 2.266 . S
O45 C42 1.252 . S
O46 In39 2.326 . S
O46 C42 1.260 . S
O47 In39 2.266 . S
O47 C44 1.252 . S
O48 In39 2.326 . S
O48 C44 1.260 . S
C49 O40 1.240 . S
C49 O41 1.252 . S
O50 In39 2.294 . S
O50 C43 1.240 . S
O51 In39 2.326 . S
O51 C43 1.252 . S
In52 O53 2.294 . S
In52 O54 2.326 . S
In52 O58 2.266 . S
In52 O59 2.326 . S
In52 O60 2.266 . S
In52 O61 2.326 . S
In52 O63 2.294 . S
In52 O64 2.326 . S
O53 In52 2.294 . S
O53 C62 1.240 . S
O54 In52 2.326 . S
O54 C62 1.252 . S
C55 O58 1.252 . S
C55 O59 1.260 . S
C56 O63 1.240 . S
C56 O64 1.252 . S
C57 O60 1.252 . S
C57 O61 1.260 . S
O58 In52 2.266 . S
O58 C55 1.252 . S
O59 In52 2.326 . S
O59 C55 1.260 . S
O60 In52 2.266 . S
O60 C57 1.252 . S
O61 In52 2.326 . S
O61 C57 1.260 . S
C62 O53 1.240 . S
C62 O54 1.252 . S
O63 In52 2.294 . S
O63 C56 1.240 . S
O64 In52 2.326 . S
O64 C56 1.252 . S
In65 O66 2.294 . S
In65 O67 2.326 . S
In65 O71 2.266 . S
In65 O72 2.326 . S
In65 O73 2.266 . S
In65 O74 2.326 . S
In65 O76 2.294 . S
In65 O77 2.326 . S
O66 In65 2.294 . S
O66 C75 1.240 . S
O67 In65 2.326 . S
O67 C75 1.252 . S
C68 O71 1.252 . S
C68 O72 1.260 . S
C69 O76 1.240 . S
C69 O77 1.252 . S
C70 O73 1.252 . S
C70 O74 1.260 . S
O71 In65 2.266 . S
O71 C68 1.252 . S
O72 In65 2.326 . S
O72 C68 1.260 . S
O73 In65 2.266 . S
O73 C70 1.252 . S
O74 In65 2.326 . S
O74 C70 1.260 . S
C75 O66 1.240 . S
C75 O67 1.252 . S
O76 In65 2.294 . S
O76 C69 1.240 . S
O77 In65 2.326 . S
O77 C69 1.252 . S
In78 O79 2.294 . S
In78 O80 2.326 . S
In78 O84 2.266 . S
In78 O85 2.326 . S
In78 O86 2.266 . S
In78 O87 2.326 . S
In78 O89 2.294 . S
In78 O90 2.326 . S
O79 In78 2.294 . S
O79 C88 1.240 . S
O80 In78 2.326 . S
O80 C88 1.252 . S
C81 O84 1.252 . S
C81 O85 1.260 . S
C82 O89 1.240 . S
C82 O90 1.252 . S
C83 O86 1.252 . S
C83 O87 1.260 . S
O84 In78 2.266 . S
O84 C81 1.252 . S
O85 In78 2.326 . S
O85 C81 1.260 . S
O86 In78 2.266 . S
O86 C83 1.252 . S
O87 In78 2.326 . S
O87 C83 1.260 . S
C88 O79 1.240 . S
C88 O80 1.252 . S
O89 In78 2.294 . S
O89 C82 1.240 . S
O90 In78 2.326 . S
O90 C82 1.252 . S
In91 O92 2.294 . S
In91 O93 2.326 . S
In91 O97 2.266 . S
In91 O98 2.326 . S
In91 O99 2.266 . S
In91 O100 2.326 . S
In91 O102 2.294 . S
In91 O103 2.326 . S
O92 In91 2.294 . S
O92 C101 1.240 . S
O93 In91 2.326 . S
O93 C101 1.252 . S
C94 O97 1.252 . S
C94 O98 1.260 . S
C95 O102 1.240 . S
C95 O103 1.252 . S
C96 O99 1.252 . S
C96 O100 1.260 . S
O97 In91 2.266 . S
O97 C94 1.252 . S
O98 In91 2.326 . S
O98 C94 1.260 . S
O99 In91 2.266 . S
O99 C96 1.252 . S
O100 In91 2.326 . S
O100 C96 1.260 . S
C101 O92 1.240 . S
C101 O93 1.252 . S
O102 In91 2.294 . S
O102 C95 1.240 . S
O103 In91 2.326 . S
O103 C95 1.252 . S
In104 O105 2.294 . S
In104 O106 2.326 . S
In104 O110 2.266 . S
In104 O111 2.326 . S
In104 O112 2.266 . S
In104 O113 2.326 . S
In104 O115 2.294 . S
In104 O116 2.326 . S
O105 In104 2.294 . S
O105 C114 1.240 . S
O106 In104 2.326 . S
O106 C114 1.252 . S
C107 O110 1.252 . S
C107 O111 1.260 . S
C108 O115 1.240 . S
C108 O116 1.252 . S
C109 O112 1.252 . S
C109 O113 1.260 . S
O110 In104 2.266 . S
O110 C107 1.252 . S
O111 In104 2.326 . S
O111 C107 1.260 . S
O112 In104 2.266 . S
O112 C109 1.252 . S
O113 In104 2.326 . S
O113 C109 1.260 . S
C114 O105 1.240 . S
C114 O106 1.252 . S
O115 In104 2.294 . S
O115 C108 1.240 . S
O116 In104 2.326 . S
O116 C108 1.252 . S
In117 O118 2.294 . S
In117 O119 2.326 . S
In117 O123 2.266 . S
In117 O124 2.326 . S
In117 O125 2.266 . S
In117 O126 2.326 . S
In117 O128 2.294 . S
In117 O129 2.326 . S
O118 In117 2.294 . S
O118 C127 1.240 . S
O119 In117 2.326 . S
O119 C127 1.252 . S
C120 O123 1.252 . S
C120 O124 1.260 . S
C121 O128 1.240 . S
C121 O129 1.252 . S
C122 O125 1.252 . S
C122 O126 1.260 . S
O123 In117 2.266 . S
O123 C120 1.252 . S
O124 In117 2.326 . S
O124 C120 1.260 . S
O125 In117 2.266 . S
O125 C122 1.252 . S
O126 In117 2.326 . S
O126 C122 1.260 . S
C127 O118 1.240 . S
C127 O119 1.252 . S
O128 In117 2.294 . S
O128 C121 1.240 . S
O129 In117 2.326 . S
O129 C121 1.252 . S
In130 O131 2.294 . S
In130 O132 2.326 . S
In130 O136 2.266 . S
In130 O137 2.326 . S
In130 O138 2.266 . S
In130 O139 2.326 . S
In130 O141 2.294 . S
In130 O142 2.326 . S
O131 In130 2.294 . S
O131 C140 1.240 . S
O132 In130 2.326 . S
O132 C140 1.252 . S
C133 O136 1.252 . S
C133 O137 1.260 . S
C134 O141 1.240 . S
C134 O142 1.252 . S
C135 O138 1.252 . S
C135 O139 1.260 . S
O136 In130 2.266 . S
O136 C133 1.252 . S
O137 In130 2.326 . S
O137 C133 1.260 . S
O138 In130 2.266 . S
O138 C135 1.252 . S
O139 In130 2.326 . S
O139 C135 1.260 . S
C140 O131 1.240 . S
C140 O132 1.252 . S
O141 In130 2.294 . S
O141 C134 1.240 . S
O142 In130 2.326 . S
O142 C134 1.252 . S
In143 O144 2.294 . S
In143 O145 2.326 . S
In143 O149 2.266 . S
In143 O150 2.326 . S
In143 O151 2.266 . S
In143 O152 2.326 . S
In143 O154 2.294 . S
In143 O155 2.326 . S
O144 In143 2.294 . S
O144 C153 1.240 . S
O145 In143 2.326 . S
O145 C153 1.252 . S
C146 O149 1.252 . S
C146 O150 1.260 . S
C147 O154 1.240 . S
C147 O155 1.252 . S
C148 O151 1.252 . S
C148 O152 1.260 . S
O149 In143 2.266 . S
O149 C146 1.252 . S
O150 In143 2.326 . S
O150 C146 1.260 . S
O151 In143 2.266 . S
O151 C148 1.252 . S
O152 In143 2.326 . S
O152 C148 1.260 . S
C153 O144 1.240 . S
C153 O145 1.252 . S
O154 In143 2.294 . S
O154 C147 1.240 . S
O155 In143 2.326 . S
O155 C147 1.252 . S
C156 C157 1.363 1_545 S
C156 C162 1.379 . S
C156 N164 1.356 1_545 S
C157 C156 1.363 1_565 S
C157 C163 1.363 1_556 S
C158 C159 1.363 1_565 S
C158 C163 1.379 . S
C158 N165 1.356 1_565 S
C159 C158 1.363 1_545 S
C159 C162 1.363 1_554 S
N160 C162 1.356 . S
N160 H172 0.984 . S
N160 H173 0.985 1_556 S
N161 C163 1.356 . S
N161 H166 0.984 1_554 S
N161 H167 0.985 . S
C162 C156 1.379 . S
C162 C159 1.363 1_556 S
C162 N160 1.356 . S
C163 C157 1.363 1_554 S
C163 C158 1.379 . S
C163 N161 1.356 . S
N164 C156 1.356 1_565 S
N164 H170 0.984 1_565 S
N164 H171 0.984 . S
N165 C158 1.356 1_545 S
N165 H168 0.984 . S
N165 H169 0.985 1_545 S
H166 N161 0.984 1_556 S
H167 N161 0.985 . S
H168 N165 0.984 . S
H169 N165 0.985 1_565 S
H170 N164 0.984 1_545 S
H171 N164 0.984 . S
H172 N160 0.984 . S
H173 N160 0.985 1_554 S
C174 C175 1.363 . S
C174 C180 1.379 . S
C174 N182 1.356 . S
C175 C174 1.363 . S
C175 C181 1.363 . S
C176 C177 1.363 . S
C176 C181 1.379 . S
C176 N183 1.356 . S
C177 C176 1.363 . S
C177 C180 1.363 . S
N178 C180 1.356 . S
N178 H190 0.984 . S
N178 H191 0.985 . S
N179 C181 1.356 . S
N179 H184 0.984 . S
N179 H185 0.985 . S
C180 C174 1.379 . S
C180 C177 1.363 . S
C180 N178 1.356 . S
C181 C175 1.363 . S
C181 C176 1.379 . S
C181 N179 1.356 . S
N182 C174 1.356 . S
N182 H188 0.984 . S
N182 H189 0.984 . S
N183 C176 1.356 . S
N183 H186 0.984 . S
N183 H187 0.985 . S
H184 N179 0.984 . S
H185 N179 0.985 . S
H186 N183 0.984 . S
H187 N183 0.985 . S
H188 N182 0.984 . S
H189 N182 0.984 . S
H190 N178 0.984 . S
H191 N178 0.985 . S
C192 C193 1.363 . S
C192 C198 1.379 1_655 S
C192 N200 1.356 . S
C193 C192 1.363 . S
C193 C199 1.363 . S
C194 C195 1.363 . S
C194 C199 1.379 1_455 S
C194 N201 1.356 . S
C195 C194 1.363 . S
C195 C198 1.363 . S
N196 C198 1.356 . S
N196 H208 0.984 . S
N196 H209 0.985 . S
N197 C199 1.356 . S
N197 H202 0.984 . S
N197 H203 0.985 . S
C198 C192 1.379 1_455 S
C198 C195 1.363 . S
C198 N196 1.356 . S
C199 C193 1.363 . S
C199 C194 1.379 1_655 S
C199 N197 1.356 . S
N200 C192 1.356 . S
N200 H206 0.984 . S
N200 H207 0.984 . S
N201 C194 1.356 . S
N201 H204 0.984 . S
N201 H205 0.985 . S
H202 N197 0.984 . S
H203 N197 0.985 . S
H204 N201 0.984 . S
H205 N201 0.985 . S
H206 N200 0.984 . S
H207 N200 0.984 . S
H208 N196 0.984 . S
H209 N196 0.985 . S
C210 C211 1.363 1_556 S
C210 C216 1.379 1_565 S
C210 N218 1.356 . S
C211 C210 1.363 1_554 S
C211 C217 1.363 . S
C212 C213 1.363 1_554 S
C212 C217 1.379 1_545 S
C212 N219 1.356 . S
C213 C212 1.363 1_556 S
C213 C216 1.363 . S
N214 C216 1.356 . S
N214 H226 0.984 1_545 S
N214 H227 0.985 . S
N215 C217 1.356 . S
N215 H220 0.984 . S
N215 H221 0.985 1_565 S
C216 C210 1.379 1_545 S
C216 C213 1.363 . S
C216 N214 1.356 . S
C217 C211 1.363 . S
C217 C212 1.379 1_565 S
C217 N215 1.356 . S
N218 C210 1.356 . S
N218 H224 0.984 . S
N218 H225 0.984 1_556 S
N219 C212 1.356 . S
N219 H222 0.984 1_554 S
N219 H223 0.985 . S
H220 N215 0.984 . S
H221 N215 0.985 1_545 S
H222 N219 0.984 1_556 S
H223 N219 0.985 . S
H224 N218 0.984 . S
H225 N218 0.984 1_554 S
H226 N214 0.984 1_565 S
H227 N214 0.985 . S
C228 C229 1.363 . S
C228 C234 1.379 . S
C228 N236 1.356 . S
C229 C228 1.363 . S
C229 C235 1.363 . S
C230 C231 1.363 . S
C230 C235 1.379 . S
C230 N237 1.356 . S
C231 C230 1.363 . S
C231 C234 1.363 . S
N232 C234 1.356 . S
N232 H244 0.984 . S
N232 H245 0.985 . S
N233 C235 1.356 . S
N233 H238 0.984 . S
N233 H239 0.985 . S
C234 C228 1.379 . S
C234 C231 1.363 . S
C234 N232 1.356 . S
C235 C229 1.363 . S
C235 C230 1.379 . S
C235 N233 1.356 . S
N236 C228 1.356 . S
N236 H242 0.984 . S
N236 H243 0.984 . S
N237 C230 1.356 . S
N237 H240 0.984 . S
N237 H241 0.985 . S
H238 N233 0.984 . S
H239 N233 0.985 . S
H240 N237 0.984 . S
H241 N237 0.985 . S
H242 N236 0.984 . S
H243 N236 0.984 . S
H244 N232 0.984 . S
H245 N232 0.985 . S
C246 C247 1.363 1_455 S
C246 C252 1.379 . S
C246 N254 1.356 1_455 S
C247 C246 1.363 1_655 S
C247 C253 1.363 . S
C248 C249 1.363 1_655 S
C248 C253 1.379 . S
C248 N255 1.356 1_655 S
C249 C248 1.363 1_455 S
C249 C252 1.363 . S
N250 C252 1.356 . S
N250 H262 0.984 . S
N250 H263 0.985 . S
N251 C253 1.356 . S
N251 H256 0.984 . S
N251 H257 0.985 . S
C252 C246 1.379 . S
C252 C249 1.363 . S
C252 N250 1.356 . S
C253 C247 1.363 . S
C253 C248 1.379 . S
C253 N251 1.356 . S
N254 C246 1.356 1_655 S
N254 H260 0.984 1_655 S
N254 H261 0.984 . S
N255 C248 1.356 1_455 S
N255 H258 0.984 . S
N255 H259 0.985 1_455 S
H256 N251 0.984 . S
H257 N251 0.985 . S
H258 N255 0.984 . S
H259 N255 0.985 1_655 S
H260 N254 0.984 1_455 S
H261 N254 0.984 . S
H262 N250 0.984 . S
H263 N250 0.985 . S
C264 C265 1.363 . S
C264 C270 1.379 . S
C264 N272 1.356 . S
C265 C264 1.363 . S
C265 C271 1.363 1_556 S
C266 C267 1.363 . S
C266 C271 1.379 . S
C266 N273 1.356 . S
C267 C266 1.363 . S
C267 C270 1.363 1_554 S
N268 C270 1.356 . S
N268 H280 0.984 . S
N268 H281 0.985 1_556 S
N269 C271 1.356 . S
N269 H274 0.984 1_554 S
N269 H275 0.985 . S
C270 C264 1.379 . S
C270 C267 1.363 1_556 S
C270 N268 1.356 . S
C271 C265 1.363 1_554 S
C271 C266 1.379 . S
C271 N269 1.356 . S
N272 C264 1.356 . S
N272 H278 0.984 . S
N272 H279 0.984 . S
N273 C266 1.356 . S
N273 H276 0.984 . S
N273 H277 0.985 . S
H274 N269 0.984 1_556 S
H275 N269 0.985 . S
H276 N273 0.984 . S
H277 N273 0.985 . S
H278 N272 0.984 . S
H279 N272 0.984 . S
H280 N268 0.984 . S
H281 N268 0.985 1_554 S
C282 C283 1.363 . S
C282 C288 1.379 . S
C282 N290 1.356 . S
C283 C282 1.363 . S
C283 C289 1.363 . S
C284 C285 1.363 . S
C284 C289 1.379 . S
C284 N291 1.356 . S
C285 C284 1.363 . S
C285 C288 1.363 . S
N286 C288 1.356 . S
N286 H298 0.984 . S
N286 H299 0.985 . S
N287 C289 1.356 . S
N287 H292 0.984 . S
N287 H293 0.985 . S
C288 C282 1.379 . S
C288 C285 1.363 . S
C288 N286 1.356 . S
C289 C283 1.363 . S
C289 C284 1.379 . S
C289 N287 1.356 . S
N290 C282 1.356 . S
N290 H296 0.984 . S
N290 H297 0.984 . S
N291 C284 1.356 . S
N291 H294 0.984 . S
N291 H295 0.985 . S
H292 N287 0.984 . S
H293 N287 0.985 . S
H294 N291 0.984 . S
H295 N291 0.985 . S
H296 N290 0.984 . S
H297 N290 0.984 . S
H298 N286 0.984 . S
H299 N286 0.985 . S
C300 C301 1.363 . S
C300 C306 1.379 . S
C300 N308 1.356 . S
C301 C300 1.363 . S
C301 C307 1.363 . S
C302 C303 1.363 . S
C302 C307 1.379 . S
C302 N309 1.356 . S
C303 C302 1.363 . S
C303 C306 1.363 . S
N304 C306 1.356 . S
N304 H316 0.984 . S
N304 H317 0.985 . S
N305 C307 1.356 . S
N305 H310 0.984 . S
N305 H311 0.985 . S
C306 C300 1.379 . S
C306 C303 1.363 . S
C306 N304 1.356 . S
C307 C301 1.363 . S
C307 C302 1.379 . S
C307 N305 1.356 . S
N308 C300 1.356 . S
N308 H314 0.984 . S
N308 H315 0.984 . S
N309 C302 1.356 . S
N309 H312 0.984 . S
N309 H313 0.985 . S
H310 N305 0.984 . S
H311 N305 0.985 . S
H312 N309 0.984 . S
H313 N309 0.985 . S
H314 N308 0.984 . S
H315 N308 0.984 . S
H316 N304 0.984 . S
H317 N304 0.985 . S
C318 C319 1.363 . S
C318 C324 1.379 . S
C318 N326 1.356 . S
C319 C318 1.363 . S
C319 C325 1.363 1_556 S
C320 C321 1.363 . S
C320 C325 1.379 . S
C320 N327 1.356 . S
C321 C320 1.363 . S
C321 C324 1.363 1_554 S
N322 C324 1.356 . S
N322 H334 0.984 . S
N322 H335 0.985 1_556 S
N323 C325 1.356 . S
N323 H328 0.984 1_554 S
N323 H329 0.985 . S
C324 C318 1.379 . S
C324 C321 1.363 1_556 S
C324 N322 1.356 . S
C325 C319 1.363 1_554 S
C325 C320 1.379 . S
C325 N323 1.356 . S
N326 C318 1.356 . S
N326 H332 0.984 . S
N326 H333 0.984 . S
N327 C320 1.356 . S
N327 H330 0.984 . S
N327 H331 0.985 . S
H328 N323 0.984 1_556 S
H329 N323 0.985 . S
H330 N327 0.984 . S
H331 N327 0.985 . S
H332 N326 0.984 . S
H333 N326 0.984 . S
H334 N322 0.984 . S
H335 N322 0.985 1_554 S
C336 C337 1.363 . S
C336 C342 1.379 . S
C336 N344 1.356 . S
C337 C336 1.363 . S
C337 C343 1.363 . S
C338 C339 1.363 . S
C338 C343 1.379 . S
C338 N345 1.356 . S
C339 C338 1.363 . S
C339 C342 1.363 . S
N340 C342 1.356 . S
N340 H352 0.984 . S
N340 H353 0.985 . S
N341 C343 1.356 . S
N341 H346 0.984 . S
N341 H347 0.985 . S
C342 C336 1.379 . S
C342 C339 1.363 . S
C342 N340 1.356 . S
C343 C337 1.363 . S
C343 C338 1.379 . S
C343 N341 1.356 . S
N344 C336 1.356 . S
N344 H350 0.984 . S
N344 H351 0.984 . S
N345 C338 1.356 . S
N345 H348 0.984 . S
N345 H349 0.985 . S
H346 N341 0.984 . S
H347 N341 0.985 . S
H348 N345 0.984 . S
H349 N345 0.985 . S
H350 N344 0.984 . S
H351 N344 0.984 . S
H352 N340 0.984 . S
H353 N340 0.985 . S
C354 C355 1.363 . S
C354 C360 1.379 . S
C354 N362 1.356 . S
C355 C354 1.363 . S
C355 C361 1.363 . S
C356 C357 1.363 . S
C356 C361 1.379 . S
C356 N363 1.356 . S
C357 C356 1.363 . S
C357 C360 1.363 . S
N358 C360 1.356 . S
N358 H370 0.984 . S
N358 H371 0.985 . S
N359 C361 1.356 . S
N359 H364 0.984 . S
N359 H365 0.985 . S
C360 C354 1.379 . S
C360 C357 1.363 . S
C360 N358 1.356 . S
C361 C355 1.363 . S
C361 C356 1.379 . S
C361 N359 1.356 . S
N362 C354 1.356 . S
N362 H368 0.984 . S
N362 H369 0.984 . S
N363 C356 1.356 . S
N363 H366 0.984 . S
N363 H367 0.985 . S
H364 N359 0.984 . S
H365 N359 0.985 . S
H366 N363 0.984 . S
H367 N363 0.985 . S
H368 N362 0.984 . S
H369 N362 0.984 . S
H370 N358 0.984 . S
H371 N358 0.985 . S
C372 C373 1.363 . S
C372 C378 1.379 . S
C372 N380 1.356 . S
C373 C372 1.363 . S
C373 C379 1.363 . S
C374 C375 1.363 . S
C374 C379 1.379 . S
C374 N381 1.356 . S
C375 C374 1.363 . S
C375 C378 1.363 . S
N376 C378 1.356 . S
N376 H388 0.984 . S
N376 H389 0.985 . S
N377 C379 1.356 . S
N377 H382 0.984 . S
N377 H383 0.985 . S
C378 C372 1.379 . S
C378 C375 1.363 . S
C378 N376 1.356 . S
C379 C373 1.363 . S
C379 C374 1.379 . S
C379 N377 1.356 . S
N380 C372 1.356 . S
N380 H386 0.984 . S
N380 H387 0.984 . S
N381 C374 1.356 . S
N381 H384 0.984 . S
N381 H385 0.985 . S
H382 N377 0.984 . S
H383 N377 0.985 . S
H384 N381 0.984 . S
H385 N381 0.985 . S
H386 N380 0.984 . S
H387 N380 0.984 . S
H388 N376 0.984 . S
H389 N376 0.985 . S
C390 C391 1.363 . S
C390 C396 1.379 . S
C390 N398 1.356 . S
C391 C390 1.363 . S
C391 C397 1.363 . S
C392 C393 1.363 . S
C392 C397 1.379 . S
C392 N399 1.356 . S
C393 C392 1.363 . S
C393 C396 1.363 . S
N394 C396 1.356 . S
N394 H406 0.984 . S
N394 H407 0.985 . S
N395 C397 1.356 . S
N395 H400 0.984 . S
N395 H401 0.985 . S
C396 C390 1.379 . S
C396 C393 1.363 . S
C396 N394 1.356 . S
C397 C391 1.363 . S
C397 C392 1.379 . S
C397 N395 1.356 . S
N398 C390 1.356 . S
N398 H404 0.984 . S
N398 H405 0.984 . S
N399 C392 1.356 . S
N399 H402 0.984 . S
N399 H403 0.985 . S
H400 N395 0.984 . S
H401 N395 0.985 . S
H402 N399 0.984 . S
H403 N399 0.985 . S
H404 N398 0.984 . S
H405 N398 0.984 . S
H406 N394 0.984 . S
H407 N394 0.985 . S
C408 C409 1.363 . S
C408 C414 1.379 . S
C408 N416 1.356 . S
C409 C408 1.363 . S
C409 C415 1.363 . S
C410 C411 1.363 . S
C410 C415 1.379 . S
C410 N417 1.356 . S
C411 C410 1.363 . S
C411 C414 1.363 . S
N412 C414 1.356 . S
N412 H424 0.984 . S
N412 H425 0.985 . S
N413 C415 1.356 . S
N413 H418 0.984 . S
N413 H419 0.985 . S
C414 C408 1.379 . S
C414 C411 1.363 . S
C414 N412 1.356 . S
C415 C409 1.363 . S
C415 C410 1.379 . S
C415 N413 1.356 . S
N416 C408 1.356 . S
N416 H422 0.984 . S
N416 H423 0.984 . S
N417 C410 1.356 . S
N417 H420 0.984 . S
N417 H421 0.985 . S
H418 N413 0.984 . S
H419 N413 0.985 . S
H420 N417 0.984 . S
H421 N417 0.985 . S
H422 N416 0.984 . S
H423 N416 0.984 . S
H424 N412 0.984 . S
H425 N412 0.985 . S
C426 C427 1.363 . S
C426 C432 1.379 . S
C426 N434 1.356 . S
C427 C426 1.363 . S
C427 C433 1.363 . S
C428 C429 1.363 . S
C428 C433 1.379 . S
C428 N435 1.356 . S
C429 C428 1.363 . S
C429 C432 1.363 . S
N430 C432 1.356 . S
N430 H442 0.984 . S
N430 H443 0.985 . S
N431 C433 1.356 . S
N431 H436 0.984 . S
N431 H437 0.985 . S
C432 C426 1.379 . S
C432 C429 1.363 . S
C432 N430 1.356 . S
C433 C427 1.363 . S
C433 C428 1.379 . S
C433 N431 1.356 . S
N434 C426 1.356 . S
N434 H440 0.984 . S
N434 H441 0.984 . S
N435 C428 1.356 . S
N435 H438 0.984 . S
N435 H439 0.985 . S
H436 N431 0.984 . S
H437 N431 0.985 . S
H438 N435 0.984 . S
H439 N435 0.985 . S
H440 N434 0.984 . S
H441 N434 0.984 . S
H442 N430 0.984 . S
H443 N430 0.985 . S
C444 C445 1.363 . S
C444 C450 1.379 . S
C444 N452 1.356 . S
C445 C444 1.363 . S
C445 C451 1.363 . S
C446 C447 1.363 . S
C446 C451 1.379 . S
C446 N453 1.356 . S
C447 C446 1.363 . S
C447 C450 1.363 . S
N448 C450 1.356 . S
N448 H460 0.984 . S
N448 H461 0.985 . S
N449 C451 1.356 . S
N449 H454 0.984 . S
N449 H455 0.985 . S
C450 C444 1.379 . S
C450 C447 1.363 . S
C450 N448 1.356 . S
C451 C445 1.363 . S
C451 C446 1.379 . S
C451 N449 1.356 . S
N452 C444 1.356 . S
N452 H458 0.984 . S
N452 H459 0.984 . S
N453 C446 1.356 . S
N453 H456 0.984 . S
N453 H457 0.985 . S
H454 N449 0.984 . S
H455 N449 0.985 . S
H456 N453 0.984 . S
H457 N453 0.985 . S
H458 N452 0.984 . S
H459 N452 0.984 . S
H460 N448 0.984 . S
H461 N448 0.985 . S
C462 C463 1.363 . S
C462 C468 1.379 . S
C462 N470 1.356 . S
C463 C462 1.363 . S
C463 C469 1.363 . S
C464 C465 1.363 . S
C464 C469 1.379 . S
C464 N471 1.356 . S
C465 C464 1.363 . S
C465 C468 1.363 . S
N466 C468 1.356 . S
N466 H478 0.984 . S
N466 H479 0.985 . S
N467 C469 1.356 . S
N467 H472 0.984 . S
N467 H473 0.985 . S
C468 C462 1.379 . S
C468 C465 1.363 . S
C468 N466 1.356 . S
C469 C463 1.363 . S
C469 C464 1.379 . S
C469 N467 1.356 . S
N470 C462 1.356 . S
N470 H476 0.984 . S
N470 H477 0.984 . S
N471 C464 1.356 . S
N471 H474 0.984 . S
N471 H475 0.985 . S
H472 N467 0.984 . S
H473 N467 0.985 . S
H474 N471 0.984 . S
H475 N471 0.985 . S
H476 N470 0.984 . S
H477 N470 0.984 . S
H478 N466 0.984 . S
H479 N466 0.985 . S
C480 C481 1.363 . S
C480 C486 1.379 . S
C480 N488 1.356 . S
C481 C480 1.363 . S
C481 C487 1.363 . S
C482 C483 1.363 . S
C482 C487 1.379 . S
C482 N489 1.356 . S
C483 C482 1.363 . S
C483 C486 1.363 . S
N484 C486 1.356 . S
N484 H496 0.984 . S
N484 H497 0.985 . S
N485 C487 1.356 . S
N485 H490 0.984 . S
N485 H491 0.985 . S
C486 C480 1.379 . S
C486 C483 1.363 . S
C486 N484 1.356 . S
C487 C481 1.363 . S
C487 C482 1.379 . S
C487 N485 1.356 . S
N488 C480 1.356 . S
N488 H494 0.984 . S
N488 H495 0.984 . S
N489 C482 1.356 . S
N489 H492 0.984 . S
N489 H493 0.985 . S
H490 N485 0.984 . S
H491 N485 0.985 . S
H492 N489 0.984 . S
H493 N489 0.985 . S
H494 N488 0.984 . S
H495 N488 0.984 . S
H496 N484 0.984 . S
H497 N484 0.985 . S
C498 C499 1.363 1_455 S
C498 C504 1.379 . S
C498 N506 1.356 . S
C499 C498 1.363 1_655 S
C499 C505 1.363 . S
C500 C501 1.363 1_655 S
C500 C505 1.379 . S
C500 N507 1.356 . S
C501 C500 1.363 1_455 S
C501 C504 1.363 . S
N502 C504 1.356 . S
N502 H514 0.984 . S
N502 H515 0.985 . S
N503 C505 1.356 . S
N503 H508 0.984 . S
N503 H509 0.985 . S
C504 C498 1.379 . S
C504 C501 1.363 . S
C504 N502 1.356 . S
C505 C499 1.363 . S
C505 C500 1.379 . S
C505 N503 1.356 . S
N506 C498 1.356 . S
N506 H512 0.984 . S
N506 H513 0.984 1_455 S
N507 C500 1.356 . S
N507 H510 0.984 1_655 S
N507 H511 0.985 . S
H508 N503 0.984 . S
H509 N503 0.985 . S
H510 N507 0.984 1_455 S
H511 N507 0.985 . S
H512 N506 0.984 . S
H513 N506 0.984 1_655 S
H514 N502 0.984 . S
H515 N502 0.985 . S
C516 C517 1.363 . S
C516 C522 1.379 . S
C516 N524 1.356 . S
C517 C516 1.363 . S
C517 C523 1.363 1_545 S
C518 C519 1.363 . S
C518 C523 1.379 . S
C518 N525 1.356 . S
C519 C518 1.363 . S
C519 C522 1.363 1_565 S
N520 C522 1.356 . S
N520 H532 0.984 . S
N520 H533 0.985 1_545 S
N521 C523 1.356 . S
N521 H526 0.984 1_565 S
N521 H527 0.985 . S
C522 C516 1.379 . S
C522 C519 1.363 1_545 S
C522 N520 1.356 . S
C523 C517 1.363 1_565 S
C523 C518 1.379 . S
C523 N521 1.356 . S
N524 C516 1.356 . S
N524 H530 0.984 . S
N524 H531 0.984 . S
N525 C518 1.356 . S
N525 H528 0.984 . S
N525 H529 0.985 . S
H526 N521 0.984 1_545 S
H527 N521 0.985 . S
H528 N525 0.984 . S
H529 N525 0.985 . S
H530 N524 0.984 . S
H531 N524 0.984 . S
H532 N520 0.984 . S
H533 N520 0.985 1_565 S
C534 C535 1.363 . S
C534 C540 1.379 . S
C534 N542 1.356 . S
C535 C534 1.363 . S
C535 C541 1.363 . S
C536 C537 1.363 . S
C536 C541 1.379 . S
C536 N543 1.356 . S
C537 C536 1.363 . S
C537 C540 1.363 . S
N538 C540 1.356 . S
N538 H550 0.984 . S
N538 H551 0.985 . S
N539 C541 1.356 . S
N539 H544 0.984 . S
N539 H545 0.985 . S
C540 C534 1.379 . S
C540 C537 1.363 . S
C540 N538 1.356 . S
C541 C535 1.363 . S
C541 C536 1.379 . S
C541 N539 1.356 . S
N542 C534 1.356 . S
N542 H548 0.984 . S
N542 H549 0.984 . S
N543 C536 1.356 . S
N543 H546 0.984 . S
N543 H547 0.985 . S
H544 N539 0.984 . S
H545 N539 0.985 . S
H546 N543 0.984 . S
H547 N543 0.985 . S
H548 N542 0.984 . S
H549 N542 0.984 . S
H550 N538 0.984 . S
H551 N538 0.985 . S
C552 C553 1.363 . S
C552 C558 1.379 . S
C552 N560 1.356 . S
C553 C552 1.363 . S
C553 C559 1.363 1_455 S
C554 C555 1.363 . S
C554 C559 1.379 . S
C554 N561 1.356 . S
C555 C554 1.363 . S
C555 C558 1.363 1_655 S
N556 C558 1.356 . S
N556 H568 0.984 . S
N556 H569 0.985 1_455 S
N557 C559 1.356 . S
N557 H562 0.984 1_655 S
N557 H563 0.985 . S
C558 C552 1.379 . S
C558 C555 1.363 1_455 S
C558 N556 1.356 . S
C559 C553 1.363 1_655 S
C559 C554 1.379 . S
C559 N557 1.356 . S
N560 C552 1.356 . S
N560 H566 0.984 . S
N560 H567 0.984 . S
N561 C554 1.356 . S
N561 H564 0.984 . S
N561 H565 0.985 . S
H562 N557 0.984 1_455 S
H563 N557 0.985 . S
H564 N561 0.984 . S
H565 N561 0.985 . S
H566 N560 0.984 . S
H567 N560 0.984 . S
H568 N556 0.984 . S
H569 N556 0.985 1_655 S
C570 C571 1.363 1_545 S
C570 C576 1.379 . S
C570 N578 1.356 . S
C571 C570 1.363 1_565 S
C571 C577 1.363 . S
C572 C573 1.363 1_565 S
C572 C577 1.379 . S
C572 N579 1.356 . S
C573 C572 1.363 1_545 S
C573 C576 1.363 . S
N574 C576 1.356 . S
N574 H586 0.984 . S
N574 H587 0.985 . S
N575 C577 1.356 . S
N575 H580 0.984 . S
N575 H581 0.985 . S
C576 C570 1.379 . S
C576 C573 1.363 . S
C576 N574 1.356 . S
C577 C571 1.363 . S
C577 C572 1.379 . S
C577 N575 1.356 . S
N578 C570 1.356 . S
N578 H584 0.984 . S
N578 H585 0.984 1_545 S
N579 C572 1.356 . S
N579 H582 0.984 1_565 S
N579 H583 0.985 . S
H580 N575 0.984 . S
H581 N575 0.985 . S
H582 N579 0.984 1_545 S
H583 N579 0.985 . S
H584 N578 0.984 . S
H585 N578 0.984 1_565 S
H586 N574 0.984 . S
H587 N574 0.985 . S
C157 C96 1.492 . S
C159 C5 1.492 . S
C175 C16 1.491 . S
C177 C109 1.491 . S
C193 C29 1.492 . S
C195 C122 1.492 . S
C211 C42 1.492 . S
C213 C133 1.492 . S
C229 C148 1.491 . S
C231 C55 1.491 . S
C247 C83 1.492 . S
C249 C68 1.492 . S
C265 C135 1.309 . S
C267 C3 1.309 . S
C283 C18 1.309 . S
C285 C146 1.309 . S
C301 C31 1.309 . S
C303 C81 1.309 . S
C319 C94 1.309 . S
C321 C44 1.309 . S
C337 C107 1.309 . S
C339 C57 1.309 . S
C355 C120 1.309 . S
C357 C70 1.309 . S
C373 C10 1.648 . S
C375 C114 1.648 . S
C391 C17 1.648 . S
C393 C127 1.648 . S
C409 C134 1.648 . S
C411 C30 1.648 . S
C427 C43 1.648 . S
C429 C153 1.648 . S
C445 C88 1.648 . S
C447 C56 1.648 . S
C463 C101 1.648 . S
C465 C69 1.648 . S
C481 C49 1.632 . S
C483 C4 1.632 . S
C499 C62 1.632 . S
C501 C23 1.632 . S
C517 C36 1.632 . S
C519 C75 1.632 . S
C535 C82 1.632 . S
C537 C121 1.632 . S
C553 C95 1.632 . S
C555 C140 1.632 . S
C571 C147 1.632 . S
C573 C108 1.632 . S
