# Generated by pormake.
# Topology unc, (4)-cn, num edge types: 1
# Building blocks:
#     Node 0, Type 0, BuildingBlock: QUQFOY_clean_sbu_3, # of connection points: 4
#     Node 1, Type 0, BuildingBlock: QUQFOY_clean_sbu_3, # of connection points: 4
#     Node 2, Type 0, BuildingBlock: QUQFOY_clean_sbu_3, # of connection points: 4
#     Node 3, Type 0, BuildingBlock: QUQFOY_clean_sbu_3, # of connection points: 4
#     Edge 4, Type (0, 0), BuildingBlock: UVAHIK_clean_linker_0, # of connection points: 2
#     Edge 5, Type (0, 0), BuildingBlock: UVAHIK_clean_linker_0, # of connection points: 2
#     Edge 6, Type (0, 0), BuildingBlock: UVAHIK_clean_linker_0, # of connection points: 2
#     Edge 7, Type (0, 0), BuildingBlock: UVAHIK_clean_linker_0, # of connection points: 2
#     Edge 8, Type (0, 0), BuildingBlock: UVAHIK_clean_linker_0, # of connection points: 2
#     Edge 9, Type (0, 0), BuildingBlock: UVAHIK_clean_linker_0, # of connection points: 2
#     Edge 10, Type (0, 0), BuildingBlock: UVAHIK_clean_linker_0, # of connection points: 2
#     Edge 11, Type (0, 0), BuildingBlock: UVAHIK_clean_linker_0, # of connection points: 2
# Relax obj value: 0.006
# Max RMSD: 0.046
# Mean RMSD: 0.046
data_MOF--net-unc--node1-QUQFOY_clean_sbu_3--edge1-UVAHIK_clean_linker_0
_symmetry_space_group_name_H-M    P1
_symmetry_Int_Tables_number       1
_symmetry_cell_setting            triclinic
loop_
_symmetry_equiv_pos_as_xyz
'x, y, z'
_cell_length_a     39.311723
_cell_length_b     39.370833
_cell_length_c     29.284848
_cell_angle_alpha  90.00315
_cell_angle_beta   89.976402
_cell_angle_gamma 94.851879
loop_
_atom_site_label
_atom_site_type_symbol
_atom_site_fract_x
_atom_site_fract_y
_atom_site_fract_z
_atom_type_partial_charge
C0 C 0.03412 0.63734 0.91349 0.0
O1 O 0.06284 0.64702 0.931 0.0
Cd2 Cd 0.06548 0.68065 -0.0005 0.0
O3 O 0.00676 0.64721 0.9303 0.0
Cd4 Cd 0.98528 0.68383 0.98998 0.0
C5 C 0.01125 0.6285 0.06706 0.0
O6 O 0.03206 0.72831 0.98691 0.0
O7 O -0.00167 0.72965 0.04496 0.0
O8 O 0.94699 0.69841 0.92967 0.0
C9 C 0.02337 0.7436 0.02263 0.0
O10 O 0.04153 0.6409 0.05815 0.0
C11 C 0.92054 0.69762 0.95461 0.0
O12 O 0.98584 0.63863 0.04566 0.0
O13 O 0.92412 0.69058 -0.00342 0.0
C14 C 0.36775 0.97895 0.34284 0.0
O15 O 0.35899 0.95014 0.32501 0.0
Cd16 Cd 0.32909 0.94618 0.25338 0.0
O17 O 0.35912 0.00617 0.32433 0.0
Cd18 Cd 0.32647 0.02627 0.25958 0.0
C19 C 0.38531 -0.00203 0.18886 0.0
O20 O 0.28107 0.98016 0.25866 0.0
O21 O 0.28445 0.01314 0.19964 0.0
O22 O 0.30609 0.06643 0.31375 0.0
C23 C 0.26849 0.98868 0.22089 0.0
O24 O 0.37192 0.96801 0.19727 0.0
C25 C 0.31127 0.09234 0.2881 0.0
O26 O 0.37462 0.02374 0.20875 0.0
O27 O 0.32361 0.08756 0.24875 0.0
C28 C 0.97368 0.36955 0.41217 0.0
O29 O 0.94524 0.3594 0.43013 0.0
Cd30 Cd 0.94335 0.32578 0.49858 0.0
O31 O 0.00142 0.36044 0.42875 0.0
Cd32 Cd 0.02388 0.32478 0.48886 0.0
C33 C -0.00365 0.3788 0.56657 0.0
O34 O 0.97812 0.27925 0.48565 0.0
O35 O 0.01196 0.27851 0.54359 0.0
O36 O 0.06279 0.31131 0.42864 0.0
C37 C 0.98716 0.26409 0.52129 0.0
O38 O 0.96637 0.3656 0.55761 0.0
C39 C 0.08916 0.3125 0.45373 0.0
O40 O 0.02209 0.36965 0.5449 0.0
O41 O 0.08529 0.31933 0.49571 0.0
C42 C 0.64411 0.03245 0.84352 0.0
O43 O 0.6539 0.06096 0.82557 0.0
Cd44 Cd 0.68381 0.06411 0.75401 0.0
O45 O 0.65175 0.00478 0.82515 0.0
Cd46 Cd 0.68389 0.98362 0.76039 0.0
C47 C 0.62641 0.01366 0.68927 0.0
O48 O 0.73047 0.02855 0.75949 0.0
O49 O 0.72628 -0.0044 0.7005 0.0
O50 O 0.70316 0.94305 0.81476 0.0
C51 C 0.74282 0.01971 0.72172 0.0
O52 O 0.64064 0.04324 0.69794 0.0
C53 C 0.69765 0.91717 0.78912 0.0
O54 O 0.63614 0.98742 0.70912 0.0
O55 O 0.68551 0.92214 0.74971 0.0
C56 C 0.97228 0.5886 0.11376 0.0
C57 C 0.0056 0.60122 0.10161 0.0
C58 C 0.96695 0.5621 0.14531 0.0
C59 C 0.00882 0.49102 0.19562 0.0
H60 H 0.94279 0.49667 0.29318 0.0
C61 C 0.00674 0.40473 0.35364 0.0
C62 C 0.97506 0.39296 0.37261 0.0
C63 C 0.00852 0.42816 0.31788 0.0
C64 C 0.96091 0.49443 0.2657 0.0
H65 H 0.05943 0.59604 0.1134 0.0
H66 H 0.05005 0.54989 0.16858 0.0
H67 H 0.94973 0.54203 0.23633 0.0
H68 H 0.9203 0.39598 0.36807 0.0
H69 H 0.92344 0.43676 0.30506 0.0
H70 H 0.02017 0.44358 0.225 0.0
C71 C 0.02809 0.56031 0.1533 0.0
C72 C 0.96494 0.52044 0.23324 0.0
C73 C 0.03345 0.58692 0.12194 0.0
C74 C 0.94511 0.40464 0.35433 0.0
C75 C 0.94691 0.42813 0.31842 0.0
C76 C 0.0047 0.46497 0.22793 0.0
C77 C -0.0052 0.54756 0.16516 0.0
C78 C 0.98927 0.51921 0.19826 0.0
C79 C 0.97868 0.44034 0.30009 0.0
C80 C 0.98105 0.46662 0.26371 0.0
H81 H 0.95025 0.59903 0.09871 0.0
H82 H 0.94101 0.5526 0.1536 0.0
H83 H 0.02732 0.48911 0.16851 0.0
H84 H 0.03034 0.39632 0.3669 0.0
H85 H 0.03342 0.43743 0.305 0.0
C86 C 0.40028 0.01352 0.40243 0.0
C87 C 0.38989 0.98141 0.38372 0.0
C88 C 0.42373 0.0165 0.43818 0.0
C89 C 0.46366 0.96929 0.52926 0.0
H90 H 0.53824 0.03945 0.51421 0.0
C91 C 0.58426 0.97712 0.64267 0.0
C92 C 0.59811 0.00972 0.65592 0.0
C93 C 0.55768 0.97341 0.61097 0.0
C94 C 0.51736 0.02005 0.51931 0.0
H95 H 0.39494 0.9271 0.38925 0.0
H96 H 0.4361 0.93241 0.45187 0.0
H97 H 0.49307 0.03332 0.45732 0.0
H98 H 0.59453 0.06401 0.64677 0.0
H99 H 0.54787 0.05752 0.59205 0.0
H100 H 0.488 0.95608 0.59139 0.0
C101 C 0.42593 0.95521 0.43878 0.0
C102 C 0.4915 0.01653 0.48667 0.0
C103 C 0.40247 0.9522 0.40283 0.0
C104 C 0.58462 0.03853 0.63707 0.0
C105 C 0.55797 0.03481 0.60553 0.0
C106 C 0.4895 0.97292 0.56209 0.0
C107 C 0.43728 0.98747 0.45613 0.0
C108 C 0.46437 0.99116 0.49132 0.0
C109 C 0.54431 0.00222 0.59195 0.0
C110 C 0.51664 -0.00164 0.55745 0.0
H111 H 0.3909 0.03655 0.38881 0.0
H112 H 0.43158 0.04163 0.45143 0.0
H113 H 0.44288 0.9497 0.53386 0.0
H114 H 0.59412 0.95438 0.65645 0.0
H115 H 0.54804 0.94796 0.60077 0.0
C116 C 0.06134 0.60059 0.85626 0.0
C117 C 0.03188 0.61327 0.87465 0.0
C118 C 0.05862 0.57606 0.82162 0.0
C119 C -0.00192 0.50879 0.77568 0.0
H120 H 0.05692 0.51319 0.66919 0.0
C121 C 0.97295 0.41851 0.62301 0.0
C122 C 0.00125 0.4055 0.60203 0.0
C123 C 0.97755 0.44409 0.65596 0.0
C124 C 0.04058 0.51139 0.69902 0.0
H125 H 0.97657 0.61096 0.86996 0.0
H126 H 0.97199 0.56841 0.80968 0.0
H127 H 0.06378 0.5581 0.72687 0.0
H128 H 0.05664 0.40904 0.59942 0.0
H129 H 0.06461 0.45328 0.65752 0.0
H130 H 0.97502 0.46207 0.74833 0.0
C131 C -0.0029 0.57706 0.82245 0.0
C132 C 0.04449 0.53712 0.73195 0.0
C133 C -0.00021 0.60159 0.85684 0.0
C134 C 0.03427 0.41857 0.61482 0.0
C135 C 0.03886 0.44408 0.64792 0.0
C136 C 0.99427 0.48304 0.74295 0.0
C137 C 0.02641 0.56368 0.80495 0.0
C138 C 0.02307 0.53618 0.77039 0.0
C139 C 0.01055 0.45713 0.66884 0.0
C140 C 0.01529 0.48416 0.70408 0.0
H141 H 0.08643 0.60909 0.86919 0.0
H142 H 0.08163 0.56605 0.80884 0.0
H143 H 0.98163 0.50708 0.80543 0.0
H144 H 0.94717 0.40918 0.61375 0.0
H145 H 0.95519 0.45397 0.67091 0.0
C146 C 0.42788 0.97476 0.13609 0.0
C147 C 0.41391 0.00293 0.15605 0.0
C148 C 0.4551 0.97953 0.10548 0.0
C149 C 0.49666 0.04232 0.02646 0.0
H150 H 0.57189 0.98481 0.03285 0.0
C151 C 0.61172 0.06093 0.90438 0.0
C152 C 0.62223 0.03098 0.88467 0.0
C153 C 0.58891 0.05913 0.94109 0.0
C154 C 0.55096 0.00093 0.03048 0.0
H155 H 0.41766 0.05823 0.15951 0.0
H156 H 0.46516 0.06644 0.10609 0.0
H157 H 0.52629 0.97823 0.08953 0.0
H158 H 0.6178 0.97571 0.88898 0.0
H159 H 0.57782 0.97265 0.95236 0.0
H160 H 0.52087 0.06456 0.96692 0.0
C161 C 0.45488 0.0407 0.11394 0.0
C162 C 0.52487 -0.00286 0.06289 0.0
C163 C 0.42775 0.03595 0.14468 0.0
C164 C 0.61025 -0.0007 0.90332 0.0
C165 C 0.58746 -0.00247 0.9399 0.0
C166 C 0.52269 0.04604 0.99397 0.0
C167 C 0.46884 0.01255 0.09406 0.0
C168 C 0.49729 0.01756 0.06092 0.0
C169 C 0.57617 0.02738 0.95881 0.0
C170 C 0.54994 0.02514 -0.00467 0.0
H171 H 0.41782 0.94899 0.14408 0.0
H172 H 0.46507 0.95735 0.09021 0.0
H173 H 0.47552 0.05815 0.02379 0.0
H174 H 0.6206 0.08574 0.89097 0.0
H175 H 0.58103 0.08261 0.95536 0.0
C176 C 0.21857 0.94507 0.22625 0.0
C177 C 0.23927 0.96844 0.19998 0.0
C178 C 0.19208 0.92459 0.20579 0.0
C179 C 0.16944 0.88359 0.09875 0.0
H180 H 0.07717 0.87259 0.14648 0.0
C181 C 0.06708 0.79277 0.01198 0.0
C182 C 0.04421 0.77353 0.04058 0.0
C183 C 0.08827 0.8199 0.0296 0.0
C184 C 0.1029 0.87502 0.133 0.0
H185 H 0.24815 0.9892 0.13196 0.0
H186 H 0.20234 0.95274 0.0961 0.0
H187 H 0.11923 0.91356 0.18195 0.0
H188 H 0.0251 0.76775 0.10983 0.0
H189 H 0.063 0.81396 0.14106 0.0
H190 H 0.15412 0.8441 0.05138 0.0
C191 C 0.20652 0.95053 0.13251 0.0
C192 C 0.12686 0.89863 0.1532 0.0
C193 C 0.23261 0.97141 0.15307 0.0
C194 C 0.04241 0.78228 0.08693 0.0
C195 C 0.06402 0.80899 0.10475 0.0
C196 C 0.14573 0.85959 0.07906 0.0
C197 C 0.18625 0.92677 0.15862 0.0
C198 C 0.16033 0.90299 0.1363 0.0
C199 C 0.08751 0.82795 0.07642 0.0
C200 C 0.11216 0.85484 0.09603 0.0
H201 H 0.22307 0.94235 0.26251 0.0
H202 H 0.17687 0.90626 0.22653 0.0
H203 H 0.19527 0.88624 0.0855 0.0
H204 H 0.06872 0.78677 0.97598 0.0
H205 H 0.1054 0.83438 0.00649 0.0
C206 C 0.29409 0.13187 0.34882 0.0
C207 C 0.30159 0.12603 0.30274 0.0
C208 C 0.28105 0.16221 0.36213 0.0
C209 C 0.22532 0.22133 0.31753 0.0
H210 H 0.24537 0.27053 0.43037 0.0
C211 C 0.12888 0.30786 0.38818 0.0
C212 C 0.12225 0.30427 0.43508 0.0
C213 C 0.15827 0.29607 0.36931 0.0
C214 C 0.23936 0.25701 0.39881 0.0
H215 H 0.3032 0.14803 0.2348 0.0
H216 H 0.27951 0.2009 0.25804 0.0
H217 H 0.28487 0.23063 0.40213 0.0
H218 H 0.14178 0.28729 0.49954 0.0
H219 H 0.19213 0.26498 0.46653 0.0
H220 H 0.17874 0.24515 0.31553 0.0
C221 C 0.28397 0.18202 0.28377 0.0
C222 C 0.26211 0.23439 0.38255 0.0
C223 C 0.29749 0.15182 0.27053 0.0
C224 C 0.14634 0.29034 0.46323 0.0
C225 C 0.17539 0.2778 0.44423 0.0
C226 C 0.20236 0.24347 0.33407 0.0
C227 C 0.27488 0.18709 0.32951 0.0
C228 C 0.25478 0.21568 0.34242 0.0
C229 C 0.1812 0.27959 0.39678 0.0
C230 C 0.20854 0.26085 0.37565 0.0
H231 H 0.29727 0.11254 0.37443 0.0
H232 H 0.27392 0.16532 0.39753 0.0
H233 H 0.21879 0.20688 0.28682 0.0
H234 H 0.11092 0.31908 0.36586 0.0
H235 H 0.16236 0.29882 0.33289 0.0
C236 C 0.77881 0.03626 0.65368 0.0
C237 C 0.77227 0.03949 0.7006 0.0
C238 C 0.805 0.05686 0.63286 0.0
C239 C 0.88487 0.10875 0.65284 0.0
H240 H 0.85739 0.16275 0.55066 0.0
C241 C 0.96872 0.22527 0.58571 0.0
C242 C 0.96677 0.23391 0.53934 0.0
C243 C 0.94735 0.19843 0.60369 0.0
C244 C 0.86585 0.1474 0.57844 0.0
H245 H 0.78882 0.0657 0.76287 0.0
H246 H 0.83517 0.10133 0.72643 0.0
H247 H 0.81635 0.12073 0.58521 0.0
H248 H 0.94233 0.22029 0.47485 0.0
H249 H 0.90608 0.17245 0.50562 0.0
H250 H 0.93451 0.13488 0.64581 0.0
C251 C 0.81981 0.083 0.70589 0.0
C252 C 0.8422 0.12345 0.59836 0.0
C253 C 0.79323 0.06279 0.72662 0.0
C254 C 0.94406 0.21438 0.51086 0.0
C255 C 0.92313 0.18712 0.52864 0.0
C256 C 0.90877 0.13231 0.6324 0.0
C257 C 0.82549 0.08061 0.6587 0.0
C258 C 0.85138 0.10425 0.63606 0.0
C259 C 0.92397 0.17923 0.5755 0.0
C260 C 0.89943 0.15231 0.5953 0.0
H261 H 0.76308 0.01851 0.63276 0.0
H262 H 0.80906 0.05448 0.59644 0.0
H263 H 0.89256 0.09398 0.6817 0.0
H264 H 0.9859 0.24002 0.60853 0.0
H265 H 0.94843 0.19357 0.64002 0.0
C266 C 0.71138 0.85772 0.77138 0.0
C267 C 0.70704 0.88337 0.80369 0.0
C268 C 0.72504 0.82758 0.78453 0.0
C269 C 0.74726 0.77518 0.88311 0.0
H270 H 0.83107 0.76575 0.81638 0.0
C271 C 0.86344 0.72004 0.96389 0.0
C272 C 0.88766 0.70626 0.93576 0.0
C273 C 0.83443 0.73259 0.94485 0.0
C274 C 0.80736 0.76707 0.83483 0.0
H275 H 0.71096 0.89664 0.87548 0.0
H276 H 0.73452 0.84395 0.89844 0.0
H277 H 0.79055 0.80354 0.7877 0.0
H278 H 0.89931 0.69186 0.86646 0.0
H279 H 0.84796 0.71219 0.83339 0.0
H280 H 0.76437 0.73916 0.93081 0.0
C281 C 0.72749 0.84711 0.86302 0.0
C282 C 0.78412 0.78891 0.81831 0.0
C283 C 0.71431 0.8774 0.8498 0.0
C284 C 0.88126 0.70296 0.88878 0.0
C285 C 0.85191 0.71478 0.86986 0.0
C286 C 0.7703 0.75286 0.89936 0.0
C287 C 0.73402 0.82243 0.83029 0.0
C288 C 0.75447 0.79408 0.8431 0.0
C289 C 0.82877 0.73098 0.89737 0.0
C290 C 0.80127 0.7495 0.87629 0.0
H291 H 0.70586 0.86162 0.73562 0.0
H292 H 0.72977 0.80883 0.75872 0.0
H293 H 0.72437 0.77857 0.90262 0.0
H294 H 0.86782 0.72286 0.00027 0.0
H295 H 0.81753 0.74522 0.96718 0.0
loop_
_geom_bond_atom_site_label_1
_geom_bond_atom_site_label_2
_geom_bond_distance
_geom_bond_site_symmetry_2
_ccdc_geom_bond_type
C0 O1 1.306 . S
C0 O3 1.160 1_455 S
O1 C0 1.306 . S
O1 Cd2 2.228 1_556 S
Cd2 O1 2.228 1_554 S
Cd2 O6 2.273 . S
Cd2 O10 2.277 . S
O3 C0 1.160 1_655 S
O3 Cd4 2.203 1_556 S
Cd4 O3 2.203 1_554 S
Cd4 O6 2.411 1_655 S
Cd4 O7 2.333 1_655 S
Cd4 O8 2.352 1_554 S
Cd4 O12 2.277 . S
Cd4 O13 2.356 . S
C5 O10 1.209 . S
C5 O12 1.226 1_455 S
O6 Cd2 2.273 . S
O6 Cd4 2.411 1_455 S
O6 C9 1.320 . S
O7 Cd4 2.333 1_455 S
O7 C9 1.214 . S
O8 Cd4 2.352 1_556 S
O8 C11 1.258 . S
C9 O6 1.320 . S
C9 O7 1.214 . S
O10 Cd2 2.277 . S
O10 C5 1.209 . S
C11 O8 1.258 . S
C11 O13 1.282 1_556 S
O12 Cd4 2.277 . S
O12 C5 1.226 1_655 S
O13 Cd4 2.356 . S
O13 C11 1.282 1_554 S
C14 O15 1.306 1_545 S
C14 O17 1.160 . S
O15 C14 1.306 1_565 S
O15 Cd16 2.228 . S
Cd16 O15 2.228 . S
Cd16 O20 2.273 . S
Cd16 O24 2.277 . S
O17 C14 1.160 . S
O17 Cd18 2.203 . S
Cd18 O17 2.203 . S
Cd18 O20 2.411 1_545 S
Cd18 O21 2.333 1_545 S
Cd18 O22 2.352 . S
Cd18 O26 2.277 . S
Cd18 O27 2.356 . S
C19 O24 1.209 1_545 S
C19 O26 1.226 . S
O20 Cd16 2.273 . S
O20 Cd18 2.411 1_565 S
O20 C23 1.320 . S
O21 Cd18 2.333 1_565 S
O21 C23 1.214 . S
O22 Cd18 2.352 . S
O22 C25 1.258 . S
C23 O20 1.320 . S
C23 O21 1.214 . S
O24 Cd16 2.277 . S
O24 C19 1.209 1_565 S
C25 O22 1.258 . S
C25 O27 1.282 . S
O26 Cd18 2.277 . S
O26 C19 1.226 . S
O27 Cd18 2.356 . S
O27 C25 1.282 . S
C28 O29 1.306 1_455 S
C28 O31 1.160 . S
O29 C28 1.306 1_655 S
O29 Cd30 2.228 . S
Cd30 O29 2.228 . S
Cd30 O34 2.273 . S
Cd30 O38 2.277 . S
O31 C28 1.160 . S
O31 Cd32 2.203 . S
Cd32 O31 2.203 . S
Cd32 O34 2.411 1_455 S
Cd32 O35 2.333 1_455 S
Cd32 O36 2.352 . S
Cd32 O40 2.277 . S
Cd32 O41 2.356 . S
C33 O38 1.209 1_455 S
C33 O40 1.226 . S
O34 Cd30 2.273 . S
O34 Cd32 2.411 1_655 S
O34 C37 1.320 . S
O35 Cd32 2.333 1_655 S
O35 C37 1.214 . S
O36 Cd32 2.352 . S
O36 C39 1.258 . S
C37 O34 1.320 . S
C37 O35 1.214 . S
O38 Cd30 2.277 . S
O38 C33 1.209 1_655 S
C39 O36 1.258 . S
C39 O41 1.282 . S
O40 Cd32 2.277 . S
O40 C33 1.226 . S
O41 Cd32 2.356 . S
O41 C39 1.282 . S
C42 O43 1.306 . S
C42 O45 1.160 1_545 S
O43 C42 1.306 . S
O43 Cd44 2.228 . S
Cd44 O43 2.228 . S
Cd44 O48 2.273 . S
Cd44 O52 2.277 . S
O45 C42 1.160 1_565 S
O45 Cd46 2.203 . S
Cd46 O45 2.203 . S
Cd46 O48 2.411 1_565 S
Cd46 O49 2.333 1_565 S
Cd46 O50 2.352 . S
Cd46 O54 2.277 . S
Cd46 O55 2.356 . S
C47 O52 1.209 . S
C47 O54 1.226 1_545 S
O48 Cd44 2.273 . S
O48 Cd46 2.411 1_545 S
O48 C51 1.320 . S
O49 Cd46 2.333 1_545 S
O49 C51 1.214 . S
O50 Cd46 2.352 . S
O50 C53 1.258 . S
C51 O48 1.320 . S
C51 O49 1.214 . S
O52 Cd44 2.277 . S
O52 C47 1.209 . S
C53 O50 1.258 . S
C53 O55 1.282 . S
O54 Cd46 2.277 . S
O54 C47 1.226 1_565 S
O55 Cd46 2.356 . S
O55 C53 1.282 . S
C56 C57 1.349 1_655 S
C56 C58 1.327 . S
C56 H81 0.950 . S
C57 C56 1.349 1_455 S
C57 C73 1.349 . S
C58 C56 1.327 . S
C58 C77 1.429 1_655 S
C58 H82 0.950 . S
C59 C76 1.574 . S
C59 C78 1.368 . S
C59 H83 0.949 . S
H60 C64 0.949 . S
C61 C62 1.349 . S
C61 C63 1.327 . S
C61 H84 0.950 . S
C62 C61 1.349 . S
C62 C74 1.349 1_455 S
C63 C61 1.327 . S
C63 C79 1.429 . S
C63 H85 0.950 . S
C64 H60 0.949 . S
C64 C72 1.574 . S
C64 C80 1.368 1_655 S
H65 C73 0.950 . S
H66 C71 0.950 . S
H67 C72 0.949 . S
H68 C74 0.950 . S
H69 C75 0.950 . S
H70 C76 0.949 . S
C71 H66 0.950 . S
C71 C73 1.327 . S
C71 C77 1.429 . S
C72 C64 1.574 . S
C72 H67 0.949 . S
C72 C78 1.368 1_655 S
C73 C57 1.349 . S
C73 H65 0.950 . S
C73 C71 1.327 . S
C74 C62 1.349 1_655 S
C74 H68 0.950 . S
C74 C75 1.327 . S
C75 H69 0.950 . S
C75 C74 1.327 . S
C75 C79 1.429 1_655 S
C76 C59 1.574 . S
C76 H70 0.949 . S
C76 C80 1.368 . S
C77 C58 1.429 1_455 S
C77 C71 1.429 . S
C77 C78 1.523 . S
C78 C59 1.368 . S
C78 C72 1.368 1_455 S
C78 C77 1.523 . S
C79 C63 1.429 . S
C79 C75 1.429 1_455 S
C79 C80 1.523 . S
C80 C64 1.368 1_455 S
C80 C76 1.368 . S
C80 C79 1.523 . S
H81 C56 0.950 . S
H82 C58 0.950 . S
H83 C59 0.949 . S
H84 C61 0.950 . S
H85 C63 0.950 . S
C86 C87 1.349 . S
C86 C88 1.327 . S
C86 H111 0.950 . S
C87 C86 1.349 . S
C87 C103 1.349 1_545 S
C88 C86 1.327 . S
C88 C107 1.429 . S
C88 H112 0.950 . S
C89 C106 1.574 . S
C89 C108 1.368 1_565 S
C89 H113 0.949 . S
H90 C94 0.949 . S
C91 C92 1.349 1_565 S
C91 C93 1.327 . S
C91 H114 0.950 . S
C92 C91 1.349 1_545 S
C92 C104 1.349 . S
C93 C91 1.327 . S
C93 C109 1.429 1_565 S
C93 H115 0.950 . S
C94 H90 0.949 . S
C94 C102 1.574 . S
C94 C110 1.368 . S
H95 C103 0.950 . S
H96 C101 0.950 . S
H97 C102 0.949 . S
H98 C104 0.950 . S
H99 C105 0.950 . S
H100 C106 0.949 . S
C101 H96 0.950 . S
C101 C103 1.327 . S
C101 C107 1.429 1_565 S
C102 C94 1.574 . S
C102 H97 0.949 . S
C102 C108 1.368 . S
C103 C87 1.349 1_565 S
C103 H95 0.950 . S
C103 C101 1.327 . S
C104 C92 1.349 . S
C104 H98 0.950 . S
C104 C105 1.327 . S
C105 H99 0.950 . S
C105 C104 1.327 . S
C105 C109 1.429 . S
C106 C89 1.574 . S
C106 H100 0.949 . S
C106 C110 1.368 1_565 S
C107 C88 1.429 . S
C107 C101 1.429 1_545 S
C107 C108 1.523 . S
C108 C89 1.368 1_545 S
C108 C102 1.368 . S
C108 C107 1.523 . S
C109 C93 1.429 1_545 S
C109 C105 1.429 . S
C109 C110 1.523 . S
C110 C94 1.368 . S
C110 C106 1.368 1_545 S
C110 C109 1.523 . S
H111 C86 0.950 . S
H112 C88 0.950 . S
H113 C89 0.949 . S
H114 C91 0.950 . S
H115 C93 0.950 . S
C116 C117 1.349 . S
C116 C118 1.327 . S
C116 H141 0.950 . S
C117 C116 1.349 . S
C117 C133 1.349 1_455 S
C118 C116 1.327 . S
C118 C137 1.429 . S
C118 H142 0.950 . S
C119 C136 1.574 . S
C119 C138 1.368 1_655 S
C119 H143 0.949 . S
H120 C124 0.949 . S
C121 C122 1.349 1_655 S
C121 C123 1.327 . S
C121 H144 0.950 . S
C122 C121 1.349 1_455 S
C122 C134 1.349 . S
C123 C121 1.327 . S
C123 C139 1.429 1_655 S
C123 H145 0.950 . S
C124 H120 0.949 . S
C124 C132 1.574 . S
C124 C140 1.368 . S
H125 C133 0.950 . S
H126 C131 0.950 . S
H127 C132 0.949 . S
H128 C134 0.950 . S
H129 C135 0.950 . S
H130 C136 0.949 . S
C131 H126 0.950 . S
C131 C133 1.327 . S
C131 C137 1.429 1_655 S
C132 C124 1.574 . S
C132 H127 0.949 . S
C132 C138 1.368 . S
C133 C117 1.349 1_655 S
C133 H125 0.950 . S
C133 C131 1.327 . S
C134 C122 1.349 . S
C134 H128 0.950 . S
C134 C135 1.327 . S
C135 H129 0.950 . S
C135 C134 1.327 . S
C135 C139 1.429 . S
C136 C119 1.574 . S
C136 H130 0.949 . S
C136 C140 1.368 1_655 S
C137 C118 1.429 . S
C137 C131 1.429 1_455 S
C137 C138 1.523 . S
C138 C119 1.368 1_455 S
C138 C132 1.368 . S
C138 C137 1.523 . S
C139 C123 1.429 1_455 S
C139 C135 1.429 . S
C139 C140 1.523 . S
C140 C124 1.368 . S
C140 C136 1.368 1_455 S
C140 C139 1.523 . S
H141 C116 0.950 . S
H142 C118 0.950 . S
H143 C119 0.949 . S
H144 C121 0.950 . S
H145 C123 0.950 . S
C146 C147 1.349 1_565 S
C146 C148 1.327 . S
C146 H171 0.950 . S
C147 C146 1.349 1_545 S
C147 C163 1.349 . S
C148 C146 1.327 . S
C148 C167 1.429 1_565 S
C148 H172 0.950 . S
C149 C166 1.574 1_554 S
C149 C168 1.368 . S
C149 H173 0.949 . S
H150 C154 0.949 . S
C151 C152 1.349 . S
C151 C153 1.327 . S
C151 H174 0.950 . S
C152 C151 1.349 . S
C152 C164 1.349 1_545 S
C153 C151 1.327 . S
C153 C169 1.429 . S
C153 H175 0.950 . S
C154 H150 0.949 . S
C154 C162 1.574 1_556 S
C154 C170 1.368 1_565 S
H155 C163 0.950 . S
H156 C161 0.950 . S
H157 C162 0.949 . S
H158 C164 0.950 . S
H159 C165 0.950 . S
H160 C166 0.949 . S
C161 H156 0.950 . S
C161 C163 1.327 . S
C161 C167 1.429 . S
C162 C154 1.574 1_554 S
C162 H157 0.949 . S
C162 C168 1.368 1_565 S
C163 C147 1.349 . S
C163 H155 0.950 . S
C163 C161 1.327 . S
C164 C152 1.349 1_565 S
C164 H158 0.950 . S
C164 C165 1.327 . S
C165 H159 0.950 . S
C165 C164 1.327 . S
C165 C169 1.429 1_565 S
C166 C149 1.574 1_556 S
C166 H160 0.949 . S
C166 C170 1.368 . S
C167 C148 1.429 1_545 S
C167 C161 1.429 . S
C167 C168 1.523 . S
C168 C149 1.368 . S
C168 C162 1.368 1_545 S
C168 C167 1.523 . S
C169 C153 1.429 . S
C169 C165 1.429 1_545 S
C169 C170 1.523 . S
C170 C154 1.368 1_545 S
C170 C166 1.368 . S
C170 C169 1.523 . S
H171 C146 0.950 . S
H172 C148 0.950 . S
H173 C149 0.949 . S
H174 C151 0.950 . S
H175 C153 0.950 . S
C176 C177 1.349 . S
C176 C178 1.327 . S
C176 H201 0.950 . S
C177 C176 1.349 . S
C177 C193 1.349 . S
C178 C176 1.327 . S
C178 C197 1.429 . S
C178 H202 0.950 . S
C179 C196 1.574 . S
C179 C198 1.368 . S
C179 H203 0.949 . S
H180 C184 0.949 . S
C181 C182 1.349 . S
C181 C183 1.327 . S
C181 H204 0.950 . S
C182 C181 1.349 . S
C182 C194 1.349 . S
C183 C181 1.327 . S
C183 C199 1.429 . S
C183 H205 0.950 . S
C184 H180 0.949 . S
C184 C192 1.574 . S
C184 C200 1.368 . S
H185 C193 0.950 . S
H186 C191 0.950 . S
H187 C192 0.949 . S
H188 C194 0.950 . S
H189 C195 0.950 . S
H190 C196 0.949 . S
C191 H186 0.950 . S
C191 C193 1.327 . S
C191 C197 1.429 . S
C192 C184 1.574 . S
C192 H187 0.949 . S
C192 C198 1.368 . S
C193 C177 1.349 . S
C193 H185 0.950 . S
C193 C191 1.327 . S
C194 C182 1.349 . S
C194 H188 0.950 . S
C194 C195 1.327 . S
C195 H189 0.950 . S
C195 C194 1.327 . S
C195 C199 1.429 . S
C196 C179 1.574 . S
C196 H190 0.949 . S
C196 C200 1.368 . S
C197 C178 1.429 . S
C197 C191 1.429 . S
C197 C198 1.523 . S
C198 C179 1.368 . S
C198 C192 1.368 . S
C198 C197 1.523 . S
C199 C183 1.429 . S
C199 C195 1.429 . S
C199 C200 1.523 . S
C200 C184 1.368 . S
C200 C196 1.368 . S
C200 C199 1.523 . S
H201 C176 0.950 . S
H202 C178 0.950 . S
H203 C179 0.949 . S
H204 C181 0.950 . S
H205 C183 0.950 . S
C206 C207 1.349 . S
C206 C208 1.327 . S
C206 H231 0.950 . S
C207 C206 1.349 . S
C207 C223 1.349 . S
C208 C206 1.327 . S
C208 C227 1.429 . S
C208 H232 0.950 . S
C209 C226 1.574 . S
C209 C228 1.368 . S
C209 H233 0.949 . S
H210 C214 0.949 . S
C211 C212 1.349 . S
C211 C213 1.327 . S
C211 H234 0.950 . S
C212 C211 1.349 . S
C212 C224 1.349 . S
C213 C211 1.327 . S
C213 C229 1.429 . S
C213 H235 0.950 . S
C214 H210 0.949 . S
C214 C222 1.574 . S
C214 C230 1.368 . S
H215 C223 0.950 . S
H216 C221 0.950 . S
H217 C222 0.949 . S
H218 C224 0.950 . S
H219 C225 0.950 . S
H220 C226 0.949 . S
C221 H216 0.950 . S
C221 C223 1.327 . S
C221 C227 1.429 . S
C222 C214 1.574 . S
C222 H217 0.949 . S
C222 C228 1.368 . S
C223 C207 1.349 . S
C223 H215 0.950 . S
C223 C221 1.327 . S
C224 C212 1.349 . S
C224 H218 0.950 . S
C224 C225 1.327 . S
C225 H219 0.950 . S
C225 C224 1.327 . S
C225 C229 1.429 . S
C226 C209 1.574 . S
C226 H220 0.949 . S
C226 C230 1.368 . S
C227 C208 1.429 . S
C227 C221 1.429 . S
C227 C228 1.523 . S
C228 C209 1.368 . S
C228 C222 1.368 . S
C228 C227 1.523 . S
C229 C213 1.429 . S
C229 C225 1.429 . S
C229 C230 1.523 . S
C230 C214 1.368 . S
C230 C226 1.368 . S
C230 C229 1.523 . S
H231 C206 0.950 . S
H232 C208 0.950 . S
H233 C209 0.949 . S
H234 C211 0.950 . S
H235 C213 0.950 . S
C236 C237 1.349 . S
C236 C238 1.327 . S
C236 H261 0.950 . S
C237 C236 1.349 . S
C237 C253 1.349 . S
C238 C236 1.327 . S
C238 C257 1.429 . S
C238 H262 0.950 . S
C239 C256 1.574 . S
C239 C258 1.368 . S
C239 H263 0.949 . S
H240 C244 0.949 . S
C241 C242 1.349 . S
C241 C243 1.327 . S
C241 H264 0.950 . S
C242 C241 1.349 . S
C242 C254 1.349 . S
C243 C241 1.327 . S
C243 C259 1.429 . S
C243 H265 0.950 . S
C244 H240 0.949 . S
C244 C252 1.574 . S
C244 C260 1.368 . S
H245 C253 0.950 . S
H246 C251 0.950 . S
H247 C252 0.949 . S
H248 C254 0.950 . S
H249 C255 0.950 . S
H250 C256 0.949 . S
C251 H246 0.950 . S
C251 C253 1.327 . S
C251 C257 1.429 . S
C252 C244 1.574 . S
C252 H247 0.949 . S
C252 C258 1.368 . S
C253 C237 1.349 . S
C253 H245 0.950 . S
C253 C251 1.327 . S
C254 C242 1.349 . S
C254 H248 0.950 . S
C254 C255 1.327 . S
C255 H249 0.950 . S
C255 C254 1.327 . S
C255 C259 1.429 . S
C256 C239 1.574 . S
C256 H250 0.949 . S
C256 C260 1.368 . S
C257 C238 1.429 . S
C257 C251 1.429 . S
C257 C258 1.523 . S
C258 C239 1.368 . S
C258 C252 1.368 . S
C258 C257 1.523 . S
C259 C243 1.429 . S
C259 C255 1.429 . S
C259 C260 1.523 . S
C260 C244 1.368 . S
C260 C256 1.368 . S
C260 C259 1.523 . S
H261 C236 0.950 . S
H262 C238 0.950 . S
H263 C239 0.949 . S
H264 C241 0.950 . S
H265 C243 0.950 . S
C266 C267 1.349 . S
C266 C268 1.327 . S
C266 H291 0.950 . S
C267 C266 1.349 . S
C267 C283 1.349 . S
C268 C266 1.327 . S
C268 C287 1.429 . S
C268 H292 0.950 . S
C269 C286 1.574 . S
C269 C288 1.368 . S
C269 H293 0.949 . S
H270 C274 0.949 . S
C271 C272 1.349 . S
C271 C273 1.327 . S
C271 H294 0.950 1_556 S
C272 C271 1.349 . S
C272 C284 1.349 . S
C273 C271 1.327 . S
C273 C289 1.429 . S
C273 H295 0.950 . S
C274 H270 0.949 . S
C274 C282 1.574 . S
C274 C290 1.368 . S
H275 C283 0.950 . S
H276 C281 0.950 . S
H277 C282 0.949 . S
H278 C284 0.950 . S
H279 C285 0.950 . S
H280 C286 0.949 . S
C281 H276 0.950 . S
C281 C283 1.327 . S
C281 C287 1.429 . S
C282 C274 1.574 . S
C282 H277 0.949 . S
C282 C288 1.368 . S
C283 C267 1.349 . S
C283 H275 0.950 . S
C283 C281 1.327 . S
C284 C272 1.349 . S
C284 H278 0.950 . S
C284 C285 1.327 . S
C285 H279 0.950 . S
C285 C284 1.327 . S
C285 C289 1.429 . S
C286 C269 1.574 . S
C286 H280 0.949 . S
C286 C290 1.368 . S
C287 C268 1.429 . S
C287 C281 1.429 . S
C287 C288 1.523 . S
C288 C269 1.368 . S
C288 C282 1.368 . S
C288 C287 1.523 . S
C289 C273 1.429 . S
C289 C285 1.429 . S
C289 C290 1.523 . S
C290 C274 1.368 . S
C290 C286 1.368 . S
C290 C289 1.523 . S
H291 C266 0.950 . S
H292 C268 0.950 . S
H293 C269 0.949 . S
H294 C271 0.950 1_554 S
H295 C273 0.950 . S
C57 C5 1.383 . S
C62 C28 1.380 . S
C87 C14 1.380 . S
C92 C47 1.383 . S
C117 C0 1.380 . S
C122 C33 1.383 . S
C147 C19 1.383 . S
C152 C42 1.380 . S
C177 C23 1.472 . S
C182 C9 1.472 . S
C207 C25 1.476 . S
C212 C39 1.476 . S
C237 C51 1.472 . S
C242 C37 1.472 . S
C267 C53 1.476 . S
C272 C11 1.476 . S
