# Generated by pormake.
# Topology zni, (4)-cn, num edge types: 1
# Building blocks:
#     Node 0, Type 0, BuildingBlock: GALJAG_clean_sbu_0, # of connection points: 4
#     Node 1, Type 0, BuildingBlock: GALJAG_clean_sbu_0, # of connection points: 4
#     Node 2, Type 0, BuildingBlock: GALJAG_clean_sbu_0, # of connection points: 4
#     Node 3, Type 0, BuildingBlock: GALJAG_clean_sbu_0, # of connection points: 4
#     Node 4, Type 0, BuildingBlock: GALJAG_clean_sbu_0, # of connection points: 4
#     Node 5, Type 0, BuildingBlock: GALJAG_clean_sbu_0, # of connection points: 4
#     Node 6, Type 0, BuildingBlock: GALJAG_clean_sbu_0, # of connection points: 4
#     Node 7, Type 0, BuildingBlock: GALJAG_clean_sbu_0, # of connection points: 4
#     Node 8, Type 0, BuildingBlock: GALJAG_clean_sbu_0, # of connection points: 4
#     Node 9, Type 0, BuildingBlock: GALJAG_clean_sbu_0, # of connection points: 4
#     Node 10, Type 0, BuildingBlock: GALJAG_clean_sbu_0, # of connection points: 4
#     Node 11, Type 0, BuildingBlock: GALJAG_clean_sbu_0, # of connection points: 4
#     Node 12, Type 0, BuildingBlock: GALJAG_clean_sbu_0, # of connection points: 4
#     Node 13, Type 0, BuildingBlock: GALJAG_clean_sbu_0, # of connection points: 4
#     Node 14, Type 0, BuildingBlock: GALJAG_clean_sbu_0, # of connection points: 4
#     Node 15, Type 0, BuildingBlock: GALJAG_clean_sbu_0, # of connection points: 4
#     Node 16, Type 0, BuildingBlock: GALJAG_clean_sbu_0, # of connection points: 4
#     Node 17, Type 0, BuildingBlock: GALJAG_clean_sbu_0, # of connection points: 4
#     Node 18, Type 0, BuildingBlock: GALJAG_clean_sbu_0, # of connection points: 4
#     Node 19, Type 0, BuildingBlock: GALJAG_clean_sbu_0, # of connection points: 4
#     Node 20, Type 0, BuildingBlock: GALJAG_clean_sbu_0, # of connection points: 4
#     Node 21, Type 0, BuildingBlock: GALJAG_clean_sbu_0, # of connection points: 4
#     Node 22, Type 0, BuildingBlock: GALJAG_clean_sbu_0, # of connection points: 4
#     Node 23, Type 0, BuildingBlock: GALJAG_clean_sbu_0, # of connection points: 4
#     Node 24, Type 0, BuildingBlock: GALJAG_clean_sbu_0, # of connection points: 4
#     Node 25, Type 0, BuildingBlock: GALJAG_clean_sbu_0, # of connection points: 4
#     Node 26, Type 0, BuildingBlock: GALJAG_clean_sbu_0, # of connection points: 4
#     Node 27, Type 0, BuildingBlock: GALJAG_clean_sbu_0, # of connection points: 4
#     Node 28, Type 0, BuildingBlock: GALJAG_clean_sbu_0, # of connection points: 4
#     Node 29, Type 0, BuildingBlock: GALJAG_clean_sbu_0, # of connection points: 4
#     Node 30, Type 0, BuildingBlock: GALJAG_clean_sbu_0, # of connection points: 4
#     Node 31, Type 0, BuildingBlock: GALJAG_clean_sbu_0, # of connection points: 4
#     Edge 32, Type (0, 0), BuildingBlock: CIFDUS_clean_linker_0, # of connection points: 2
#     Edge 33, Type (0, 0), BuildingBlock: CIFDUS_clean_linker_0, # of connection points: 2
#     Edge 34, Type (0, 0), BuildingBlock: CIFDUS_clean_linker_0, # of connection points: 2
#     Edge 35, Type (0, 0), BuildingBlock: CIFDUS_clean_linker_0, # of connection points: 2
#     Edge 36, Type (0, 0), BuildingBlock: CIFDUS_clean_linker_0, # of connection points: 2
#     Edge 37, Type (0, 0), BuildingBlock: CIFDUS_clean_linker_0, # of connection points: 2
#     Edge 38, Type (0, 0), BuildingBlock: CIFDUS_clean_linker_0, # of connection points: 2
#     Edge 39, Type (0, 0), BuildingBlock: CIFDUS_clean_linker_0, # of connection points: 2
#     Edge 40, Type (0, 0), BuildingBlock: CIFDUS_clean_linker_0, # of connection points: 2
#     Edge 41, Type (0, 0), BuildingBlock: CIFDUS_clean_linker_0, # of connection points: 2
#     Edge 42, Type (0, 0), BuildingBlock: CIFDUS_clean_linker_0, # of connection points: 2
#     Edge 43, Type (0, 0), BuildingBlock: CIFDUS_clean_linker_0, # of connection points: 2
#     Edge 44, Type (0, 0), BuildingBlock: CIFDUS_clean_linker_0, # of connection points: 2
#     Edge 45, Type (0, 0), BuildingBlock: CIFDUS_clean_linker_0, # of connection points: 2
#     Edge 46, Type (0, 0), BuildingBlock: CIFDUS_clean_linker_0, # of connection points: 2
#     Edge 47, Type (0, 0), BuildingBlock: CIFDUS_clean_linker_0, # of connection points: 2
#     Edge 48, Type (0, 0), BuildingBlock: CIFDUS_clean_linker_0, # of connection points: 2
#     Edge 49, Type (0, 0), BuildingBlock: CIFDUS_clean_linker_0, # of connection points: 2
#     Edge 50, Type (0, 0), BuildingBlock: CIFDUS_clean_linker_0, # of connection points: 2
#     Edge 51, Type (0, 0), BuildingBlock: CIFDUS_clean_linker_0, # of connection points: 2
#     Edge 52, Type (0, 0), BuildingBlock: CIFDUS_clean_linker_0, # of connection points: 2
#     Edge 53, Type (0, 0), BuildingBlock: CIFDUS_clean_linker_0, # of connection points: 2
#     Edge 54, Type (0, 0), BuildingBlock: CIFDUS_clean_linker_0, # of connection points: 2
#     Edge 55, Type (0, 0), BuildingBlock: CIFDUS_clean_linker_0, # of connection points: 2
#     Edge 56, Type (0, 0), BuildingBlock: CIFDUS_clean_linker_0, # of connection points: 2
#     Edge 57, Type (0, 0), BuildingBlock: CIFDUS_clean_linker_0, # of connection points: 2
#     Edge 58, Type (0, 0), BuildingBlock: CIFDUS_clean_linker_0, # of connection points: 2
#     Edge 59, Type (0, 0), BuildingBlock: CIFDUS_clean_linker_0, # of connection points: 2
#     Edge 60, Type (0, 0), BuildingBlock: CIFDUS_clean_linker_0, # of connection points: 2
#     Edge 61, Type (0, 0), BuildingBlock: CIFDUS_clean_linker_0, # of connection points: 2
#     Edge 62, Type (0, 0), BuildingBlock: CIFDUS_clean_linker_0, # of connection points: 2
#     Edge 63, Type (0, 0), BuildingBlock: CIFDUS_clean_linker_0, # of connection points: 2
#     Edge 64, Type (0, 0), BuildingBlock: CIFDUS_clean_linker_0, # of connection points: 2
#     Edge 65, Type (0, 0), BuildingBlock: CIFDUS_clean_linker_0, # of connection points: 2
#     Edge 66, Type (0, 0), BuildingBlock: CIFDUS_clean_linker_0, # of connection points: 2
#     Edge 67, Type (0, 0), BuildingBlock: CIFDUS_clean_linker_0, # of connection points: 2
#     Edge 68, Type (0, 0), BuildingBlock: CIFDUS_clean_linker_0, # of connection points: 2
#     Edge 69, Type (0, 0), BuildingBlock: CIFDUS_clean_linker_0, # of connection points: 2
#     Edge 70, Type (0, 0), BuildingBlock: CIFDUS_clean_linker_0, # of connection points: 2
#     Edge 71, Type (0, 0), BuildingBlock: CIFDUS_clean_linker_0, # of connection points: 2
#     Edge 72, Type (0, 0), BuildingBlock: CIFDUS_clean_linker_0, # of connection points: 2
#     Edge 73, Type (0, 0), BuildingBlock: CIFDUS_clean_linker_0, # of connection points: 2
#     Edge 74, Type (0, 0), BuildingBlock: CIFDUS_clean_linker_0, # of connection points: 2
#     Edge 75, Type (0, 0), BuildingBlock: CIFDUS_clean_linker_0, # of connection points: 2
#     Edge 76, Type (0, 0), BuildingBlock: CIFDUS_clean_linker_0, # of connection points: 2
#     Edge 77, Type (0, 0), BuildingBlock: CIFDUS_clean_linker_0, # of connection points: 2
#     Edge 78, Type (0, 0), BuildingBlock: CIFDUS_clean_linker_0, # of connection points: 2
#     Edge 79, Type (0, 0), BuildingBlock: CIFDUS_clean_linker_0, # of connection points: 2
#     Edge 80, Type (0, 0), BuildingBlock: CIFDUS_clean_linker_0, # of connection points: 2
#     Edge 81, Type (0, 0), BuildingBlock: CIFDUS_clean_linker_0, # of connection points: 2
#     Edge 82, Type (0, 0), BuildingBlock: CIFDUS_clean_linker_0, # of connection points: 2
#     Edge 83, Type (0, 0), BuildingBlock: CIFDUS_clean_linker_0, # of connection points: 2
#     Edge 84, Type (0, 0), BuildingBlock: CIFDUS_clean_linker_0, # of connection points: 2
#     Edge 85, Type (0, 0), BuildingBlock: CIFDUS_clean_linker_0, # of connection points: 2
#     Edge 86, Type (0, 0), BuildingBlock: CIFDUS_clean_linker_0, # of connection points: 2
#     Edge 87, Type (0, 0), BuildingBlock: CIFDUS_clean_linker_0, # of connection points: 2
#     Edge 88, Type (0, 0), BuildingBlock: CIFDUS_clean_linker_0, # of connection points: 2
#     Edge 89, Type (0, 0), BuildingBlock: CIFDUS_clean_linker_0, # of connection points: 2
#     Edge 90, Type (0, 0), BuildingBlock: CIFDUS_clean_linker_0, # of connection points: 2
#     Edge 91, Type (0, 0), BuildingBlock: CIFDUS_clean_linker_0, # of connection points: 2
#     Edge 92, Type (0, 0), BuildingBlock: CIFDUS_clean_linker_0, # of connection points: 2
#     Edge 93, Type (0, 0), BuildingBlock: CIFDUS_clean_linker_0, # of connection points: 2
#     Edge 94, Type (0, 0), BuildingBlock: CIFDUS_clean_linker_0, # of connection points: 2
#     Edge 95, Type (0, 0), BuildingBlock: CIFDUS_clean_linker_0, # of connection points: 2
# Relax obj value: 0.235
# Max RMSD: 0.125
# Mean RMSD: 0.125
data_MOF--net-zni--node1-GALJAG_clean_sbu_0--edge1-CIFDUS_clean_linker_0
_symmetry_space_group_name_H-M    P1
_symmetry_Int_Tables_number       1
_symmetry_cell_setting            triclinic
loop_
_symmetry_equiv_pos_as_xyz
'x, y, z'
_cell_length_a     51.478271
_cell_length_b     51.480675
_cell_length_c     26.745127
_cell_angle_alpha  89.993347
_cell_angle_beta   89.973537
_cell_angle_gamma 90.010775
loop_
_atom_site_label
_atom_site_type_symbol
_atom_site_fract_x
_atom_site_fract_y
_atom_site_fract_z
_atom_type_partial_charge
In0 In 0.10088 0.10363 0.38754 0.0
O1 O 0.11684 0.0896 0.31228 0.0
O2 O 0.10617 0.06116 0.36579 0.0
C3 C 0.11839 0.15305 0.38812 0.0
C4 C 0.0495 0.11066 0.37037 0.0
C5 C 0.12012 0.08786 0.47594 0.0
O6 O 0.12721 0.13619 0.35826 0.0
O7 O 0.10105 0.14488 0.41751 0.0
O8 O 0.09682 0.08401 0.46319 0.0
O9 O 0.13394 0.09914 0.44348 0.0
C10 C 0.11478 0.0658 0.32265 0.0
O11 O 0.05807 0.10166 0.41095 0.0
O12 O 0.06674 0.11568 0.33838 0.0
In13 In 0.16305 0.86022 0.65372 0.0
O14 O 0.18896 0.88035 0.5945 0.0
O15 O 0.19925 0.84283 0.62024 0.0
C16 C 0.116 0.88138 0.63675 0.0
C17 C 0.14677 0.81051 0.64943 0.0
C18 C 0.1783 0.88133 0.74125 0.0
O19 O 0.13379 0.8817 0.6041 0.0
O20 O 0.12221 0.87083 0.67761 0.0
O21 O 0.18041 0.85747 0.73167 0.0
O22 O 0.16959 0.89487 0.7057 0.0
C23 C 0.20442 0.86139 0.5914 0.0
O24 O 0.15862 0.81956 0.68688 0.0
O25 O 0.143 0.82655 0.61451 0.0
In26 In 0.39635 0.89376 0.85706 0.0
O27 O 0.43804 0.89814 0.88686 0.0
O28 O 0.43288 0.87991 0.81668 0.0
C29 C 0.3747 0.9066 0.94507 0.0
C30 C 0.38404 0.93222 0.79193 0.0
C31 C 0.37724 0.84507 0.8512 0.0
O32 O 0.39782 0.91248 0.93387 0.0
O33 O 0.36224 0.89489 0.91122 0.0
O34 O 0.36992 0.86292 0.82196 0.0
O35 O 0.39406 0.85184 0.8829 0.0
C36 C 0.44856 0.88708 0.85004 0.0
O37 O 0.3863 0.93589 0.83821 0.0
O38 O 0.38767 0.90909 0.77834 0.0
In39 In 0.35873 0.1499 0.12601 0.0
O40 O 0.34207 0.15281 0.04711 0.0
O41 O 0.32203 0.12904 0.09892 0.0
C42 C 0.40554 0.1274 0.1124 0.0
C43 C 0.36817 0.20173 0.12843 0.0
C44 C 0.34431 0.13222 0.21649 0.0
O45 O 0.39822 0.13695 0.15343 0.0
O46 O 0.38898 0.12872 0.07762 0.0
O47 O 0.34027 0.15537 0.20283 0.0
O48 O 0.35472 0.1179 0.18385 0.0
C49 C 0.32297 0.13813 0.05526 0.0
O50 O 0.38495 0.18503 0.11683 0.0
O51 O 0.34615 0.19243 0.13895 0.0
In52 In 0.10289 0.90097 0.08994 0.0
O53 O 0.06193 0.90502 0.05676 0.0
O54 O 0.0654 0.89235 0.13186 0.0
C55 C 0.12952 0.91444 0.00737 0.0
C56 C 0.11552 0.93823 0.15683 0.0
C57 C 0.11536 0.85011 0.094 0.0
O58 O 0.10611 0.92079 0.01432 0.0
O59 O 0.13973 0.90179 0.04271 0.0
O60 O 0.12357 0.86626 0.12593 0.0
O61 O 0.10124 0.85972 0.0602 0.0
C62 C 0.05049 0.89748 0.09586 0.0
O63 O 0.11679 0.91436 0.16711 0.0
O64 O 0.10831 0.94319 0.11288 0.0
In65 In 0.34958 0.85618 0.30953 0.0
O66 O 0.32515 0.88467 0.35723 0.0
O67 O 0.31733 0.84442 0.36235 0.0
C68 C 0.39902 0.87215 0.32244 0.0
C69 C 0.35827 0.80456 0.31432 0.0
C70 C 0.33505 0.87579 0.22026 0.0
O71 O 0.38187 0.87528 0.35573 0.0
O72 O 0.39114 0.86107 0.28325 0.0
O73 O 0.32854 0.85334 0.23443 0.0
O74 O 0.34771 0.88864 0.25206 0.0
C75 C 0.31184 0.86691 0.37714 0.0
O76 O 0.34566 0.81481 0.27889 0.0
O77 O 0.36655 0.82037 0.34669 0.0
In78 In 0.39438 0.10536 0.58461 0.0
O79 O 0.43773 0.1029 0.56559 0.0
O80 O 0.42716 0.11497 0.63865 0.0
C81 C 0.37518 0.09456 0.49359 0.0
C82 C 0.37909 0.06478 0.6415 0.0
C83 C 0.37956 0.1555 0.58724 0.0
O84 O 0.39822 0.08914 0.50601 0.0
O85 O 0.36153 0.10464 0.52769 0.0
O86 O 0.36968 0.13871 0.61614 0.0
O87 O 0.39677 0.14692 0.558 0.0
C88 C 0.44523 0.11037 0.60811 0.0
O89 O 0.37495 0.08802 0.65429 0.0
O90 O 0.39019 0.0622 0.59984 0.0
In91 In 0.15073 0.13197 0.84281 0.0
O92 O 0.17132 0.1119 0.90857 0.0
O93 O 0.19372 0.13545 0.85984 0.0
C94 C 0.10184 0.11528 0.85877 0.0
C95 C 0.14184 0.18321 0.85639 0.0
C96 C 0.16156 0.1113 0.75261 0.0
O97 O 0.12052 0.1084 0.88651 0.0
O98 O 0.10803 0.13012 0.82315 0.0
O99 O 0.16819 0.13395 0.76504 0.0
O100 O 0.15015 0.09854 0.7864 0.0
C101 C 0.19331 0.12134 0.89825 0.0
O102 O 0.14699 0.17355 0.81427 0.0
O103 O 0.14152 0.1671 0.89189 0.0
In104 In 0.91251 0.90254 0.6016 0.0
O105 O 0.95506 0.90858 0.58 0.0
O106 O 0.94641 0.90084 0.65621 0.0
C107 C 0.89091 0.90773 0.51106 0.0
C108 C 0.89203 0.94321 0.65125 0.0
C109 C 0.90378 0.85106 0.60989 0.0
O110 O 0.91365 0.91559 0.52045 0.0
O111 O 0.87892 0.89798 0.54772 0.0
O112 O 0.8915 0.86738 0.63624 0.0
O113 O 0.92054 0.86079 0.58105 0.0
C114 C 0.96365 0.90511 0.62368 0.0
O115 O 0.89162 0.92045 0.66894 0.0
O116 O 0.9025 0.94519 0.60886 0.0
In117 In 0.8474 0.15258 0.35236 0.0
O118 O 0.84468 0.19357 0.31986 0.0
O119 O 0.85356 0.18999 0.39688 0.0
C120 C 0.83962 0.1294 0.26381 0.0
C121 C 0.80579 0.13788 0.40716 0.0
C122 C 0.89694 0.13764 0.36806 0.0
O123 O 0.83184 0.15214 0.27315 0.0
O124 O 0.85096 0.11809 0.29958 0.0
O125 O 0.87829 0.12879 0.39369 0.0
O126 O 0.89052 0.15392 0.33506 0.0
C127 C 0.84996 0.20496 0.36026 0.0
O128 O 0.82822 0.13978 0.42573 0.0
O129 O 0.80452 0.14312 0.36131 0.0
In130 In 0.60933 0.10014 0.11347 0.0
O131 O 0.62542 0.0806 0.18353 0.0
O132 O 0.61637 0.05678 0.12108 0.0
C133 C 0.62009 0.15039 0.13334 0.0
C134 C 0.55704 0.09955 0.12315 0.0
C135 C 0.63488 0.09435 0.02672 0.0
O136 O 0.60566 0.14325 0.09783 0.0
O137 O 0.62922 0.13209 0.15948 0.0
O138 O 0.61173 0.08692 0.03284 0.0
O139 O 0.64542 0.10422 0.06489 0.0
C140 C 0.62439 0.05796 0.1655 0.0
O141 O 0.56815 0.09929 0.08114 0.0
O142 O 0.57227 0.09992 0.16001 0.0
In143 In 0.65163 0.84933 0.86534 0.0
O144 O 0.65871 0.80857 0.83428 0.0
O145 O 0.64326 0.81166 0.90751 0.0
C146 C 0.6601 0.87177 0.77655 0.0
C147 C 0.69214 0.86447 0.92281 0.0
C148 C 0.60129 0.86333 0.87476 0.0
O149 O 0.66681 0.84868 0.78595 0.0
O150 O 0.64956 0.88377 0.81246 0.0
O151 O 0.61889 0.87325 0.90169 0.0
O152 O 0.60918 0.84647 0.84414 0.0
C153 C 0.65038 0.79691 0.87248 0.0
O154 O 0.67017 0.85923 0.94114 0.0
O155 O 0.69336 0.86254 0.87604 0.0
In156 In 0.89733 0.09681 0.90148 0.0
O157 O 0.87977 0.0788 0.83067 0.0
O158 O 0.88811 0.05403 0.89199 0.0
C159 C 0.88326 0.14727 0.89798 0.0
C160 C 0.94835 0.09849 0.87756 0.0
C161 C 0.87902 0.08749 0.99344 0.0
O162 O 0.87253 0.13035 0.87058 0.0
O163 O 0.90099 0.1387 0.92597 0.0
O164 O 0.90228 0.08285 0.98124 0.0
O165 O 0.86483 0.09623 0.95875 0.0
C166 C 0.87986 0.05597 0.84788 0.0
O167 O 0.94039 0.09123 0.91991 0.0
O168 O 0.93061 0.10462 0.84732 0.0
In169 In 0.64746 0.14427 0.65618 0.0
O170 O 0.64813 0.18409 0.69403 0.0
O171 O 0.64258 0.18296 0.61552 0.0
C172 C 0.6533 0.11685 0.74084 0.0
C173 C 0.6908 0.13295 0.60364 0.0
C174 C 0.59822 0.13111 0.63322 0.0
O175 O 0.66047 0.14017 0.73655 0.0
O176 O 0.64355 0.10702 0.70187 0.0
O177 O 0.61736 0.12349 0.60744 0.0
O178 O 0.60405 0.14518 0.67018 0.0
C179 C 0.64443 0.19672 0.65432 0.0
O180 O 0.66841 0.13164 0.58468 0.0
O181 O 0.69119 0.13956 0.64892 0.0
In182 In 0.59567 0.90609 0.42 0.0
O183 O 0.55359 0.91007 0.44619 0.0
O184 O 0.56023 0.90261 0.36927 0.0
C185 C 0.61765 0.91463 0.50928 0.0
C186 C 0.61404 0.94626 0.36586 0.0
C187 C 0.60711 0.85519 0.41088 0.0
O188 O 0.59475 0.9217 0.49921 0.0
O189 O 0.62964 0.90369 0.47385 0.0
O190 O 0.61745 0.8722 0.38316 0.0
O191 O 0.59115 0.86393 0.4424 0.0
C192 C 0.54385 0.90607 0.40367 0.0
O193 O 0.61386 0.92332 0.3492 0.0
O194 O 0.60511 0.94873 0.40941 0.0
In195 In 0.85433 0.83852 0.15508 0.0
O196 O 0.8324 0.85955 0.09233 0.0
O197 O 0.81063 0.84118 0.14994 0.0
C198 C 0.90443 0.85276 0.1458 0.0
C199 C 0.85778 0.78808 0.12867 0.0
C200 C 0.84761 0.85869 0.24639 0.0
O201 O 0.887 0.86198 0.11748 0.0
O202 O 0.89647 0.83641 0.17741 0.0
O203 O 0.8435 0.83497 0.23701 0.0
O204 O 0.85455 0.87228 0.2094 0.0
C205 C 0.81026 0.85413 0.11002 0.0
O206 O 0.85253 0.79516 0.1727 0.0
O207 O 0.86093 0.80642 0.09799 0.0
In208 In 0.5935 0.59894 0.90689 0.0
O209 O 0.55062 0.59454 0.9287 0.0
O210 O 0.55947 0.60998 0.85713 0.0
C211 C 0.61545 0.58625 0.99465 0.0
C212 C 0.60846 0.56094 0.84359 0.0
C213 C 0.60777 0.64931 0.90804 0.0
O214 O 0.59179 0.58187 0.98528 0.0
O215 O 0.62818 0.59607 0.959 0.0
O216 O 0.61739 0.63326 0.87738 0.0
O217 O 0.59101 0.63992 0.93732 0.0
C218 C 0.54212 0.60375 0.88815 0.0
O219 O 0.61151 0.5847 0.83364 0.0
O220 O 0.59828 0.55645 0.88556 0.0
In221 In 0.64105 0.35607 0.15775 0.0
O222 O 0.66106 0.37231 0.08768 0.0
O223 O 0.68457 0.35868 0.14754 0.0
C224 C 0.59061 0.36945 0.151 0.0
C225 C 0.63699 0.30443 0.14179 0.0
C226 C 0.64972 0.38202 0.24297 0.0
O227 O 0.60715 0.37725 0.11925 0.0
O228 O 0.5996 0.35493 0.1848 0.0
O229 O 0.65372 0.35786 0.23894 0.0
O230 O 0.64203 0.39314 0.20356 0.0
C231 C 0.68371 0.36832 0.10429 0.0
O232 O 0.64388 0.31364 0.18349 0.0
O233 O 0.63255 0.32119 0.10851 0.0
In234 In 0.90565 0.40206 0.4116 0.0
O235 O 0.94755 0.41304 0.43259 0.0
O236 O 0.94175 0.38753 0.37147 0.0
C237 C 0.8842 0.4132 0.50046 0.0
C238 C 0.8897 0.43911 0.34679 0.0
C239 C 0.89015 0.35207 0.41002 0.0
O240 O 0.90799 0.41702 0.49139 0.0
O241 O 0.87115 0.40446 0.46417 0.0
O242 O 0.8817 0.3686 0.37908 0.0
O243 O 0.90629 0.3608 0.44124 0.0
C244 C 0.95776 0.39928 0.39891 0.0
O245 O 0.89381 0.416 0.33348 0.0
O246 O 0.89343 0.44341 0.39253 0.0
In247 In 0.85548 0.65041 0.63233 0.0
O248 O 0.84943 0.69017 0.66987 0.0
O249 O 0.86777 0.68913 0.59894 0.0
C250 C 0.84609 0.61932 0.71106 0.0
C251 C 0.81644 0.64105 0.56732 0.0
C252 C 0.90559 0.63667 0.62215 0.0
O253 O 0.84075 0.64327 0.71133 0.0
O254 O 0.85522 0.6109 0.67038 0.0
O255 O 0.88886 0.63172 0.58888 0.0
O256 O 0.897 0.64862 0.65989 0.0
C257 C 0.86012 0.70281 0.6351 0.0
O258 O 0.84002 0.63983 0.55487 0.0
O259 O 0.81259 0.64678 0.6125 0.0
In260 In 0.59963 0.39722 0.60803 0.0
O261 O 0.55999 0.40757 0.5739 0.0
O262 O 0.56061 0.38624 0.64171 0.0
C263 C 0.62886 0.40657 0.52684 0.0
C264 C 0.61162 0.43371 0.67696 0.0
C265 C 0.61063 0.34614 0.61133 0.0
O266 O 0.60535 0.41343 0.52992 0.0
O267 O 0.63798 0.39614 0.56578 0.0
O268 O 0.61876 0.36175 0.64434 0.0
O269 O 0.59693 0.35632 0.57752 0.0
C270 C 0.54707 0.39635 0.60766 0.0
O271 O 0.60977 0.40993 0.68765 0.0
O272 O 0.60798 0.43894 0.63151 0.0
In273 In 0.83917 0.34721 0.85059 0.0
O274 O 0.82036 0.36111 0.92373 0.0
O275 O 0.79621 0.35635 0.86028 0.0
C276 C 0.88954 0.3599 0.86434 0.0
C277 C 0.84075 0.29469 0.85731 0.0
C278 C 0.83309 0.37234 0.76346 0.0
O279 O 0.87186 0.36802 0.89326 0.0
O280 O 0.88173 0.34545 0.82937 0.0
O281 O 0.82538 0.34932 0.77022 0.0
O282 O 0.84324 0.38301 0.80122 0.0
C283 C 0.79775 0.36244 0.90572 0.0
O284 O 0.83356 0.30635 0.81831 0.0
O285 O 0.84653 0.30945 0.8932 0.0
In286 In 0.89373 0.58677 0.07636 0.0
O287 O 0.93527 0.5854 0.04493 0.0
O288 O 0.93015 0.59631 0.12074 0.0
C289 C 0.86688 0.58215 0.99046 0.0
C290 C 0.88328 0.54354 0.12997 0.0
C291 C 0.87949 0.63564 0.09905 0.0
O292 O 0.8907 0.57659 0.9938 0.0
O293 O 0.85636 0.58902 0.03095 0.0
O294 O 0.87319 0.61645 0.12597 0.0
O295 O 0.89281 0.63007 0.06089 0.0
C296 C 0.94577 0.59261 0.08521 0.0
O297 O 0.8774 0.56602 0.1448 0.0
O298 O 0.89386 0.54279 0.08752 0.0
In299 In 0.64797 0.65565 0.34456 0.0
O300 O 0.66253 0.64166 0.42085 0.0
O301 O 0.69043 0.64937 0.36439 0.0
C302 C 0.59745 0.64218 0.34836 0.0
C303 C 0.64485 0.70792 0.35349 0.0
C304 C 0.65919 0.6303 0.25949 0.0
O305 O 0.61381 0.63363 0.37957 0.0
O306 O 0.60662 0.65749 0.31603 0.0
O307 O 0.66517 0.65382 0.26644 0.0
O308 O 0.64837 0.61931 0.29621 0.0
C309 C 0.68621 0.64246 0.40881 0.0
O310 O 0.65379 0.69705 0.31488 0.0
O311 O 0.63792 0.69248 0.38752 0.0
In312 In 0.38964 0.40615 0.10064 0.0
O313 O 0.37806 0.42636 0.17365 0.0
O314 O 0.38105 0.44938 0.10821 0.0
C315 C 0.37903 0.35618 0.1235 0.0
C316 C 0.4421 0.40606 0.10401 0.0
C317 C 0.364 0.4082 0.01309 0.0
O318 O 0.36478 0.37461 0.13853 0.0
O319 O 0.39841 0.36313 0.09795 0.0
O320 O 0.38682 0.41676 0.01825 0.0
O321 O 0.35387 0.39924 0.05242 0.0
C322 C 0.37655 0.44869 0.15444 0.0
O323 O 0.42969 0.40962 0.0639 0.0
O324 O 0.42806 0.40317 0.14231 0.0
In325 In 0.33985 0.64243 0.86106 0.0
O326 O 0.31867 0.62722 0.93043 0.0
O327 O 0.29596 0.63801 0.86766 0.0
C328 C 0.38916 0.62787 0.87992 0.0
C329 C 0.34396 0.69447 0.87293 0.0
C330 C 0.33567 0.6187 0.7719 0.0
O331 O 0.37026 0.61923 0.90518 0.0
O332 O 0.38306 0.64373 0.84597 0.0
O333 O 0.32969 0.64224 0.7785 0.0
O334 O 0.34279 0.6068 0.81083 0.0
C335 C 0.29628 0.62965 0.9119 0.0
O336 O 0.33777 0.68417 0.83187 0.0
O337 O 0.34746 0.67859 0.90815 0.0
In338 In 0.10967 0.60794 0.63263 0.0
O339 O 0.12297 0.58802 0.70477 0.0
O340 O 0.1169 0.56457 0.64065 0.0
C341 C 0.12211 0.65776 0.65168 0.0
C342 C 0.0575 0.60985 0.64246 0.0
C343 C 0.13309 0.60318 0.54321 0.0
O344 O 0.13363 0.63911 0.67307 0.0
O345 O 0.10459 0.6511 0.62136 0.0
O346 O 0.11028 0.59525 0.55143 0.0
O347 O 0.14452 0.61273 0.58072 0.0
C348 C 0.1228 0.56548 0.68629 0.0
O349 O 0.0685 0.60618 0.60093 0.0
O350 O 0.07278 0.61202 0.67903 0.0
In351 In 0.15541 0.35198 0.32196 0.0
O352 O 0.16334 0.31082 0.29343 0.0
O353 O 0.1513 0.31527 0.36886 0.0
C354 C 0.15659 0.37607 0.23274 0.0
C355 C 0.19661 0.36909 0.37526 0.0
C356 C 0.10448 0.36011 0.33905 0.0
O357 O 0.1653 0.35339 0.23914 0.0
O358 O 0.14834 0.38702 0.27183 0.0
O359 O 0.12185 0.37312 0.36128 0.0
O360 O 0.11295 0.34312 0.30924 0.0
C361 C 0.1575 0.2999 0.33415 0.0
O362 O 0.17383 0.3689 0.39264 0.0
O363 O 0.19844 0.36126 0.33079 0.0
In364 In 0.39704 0.60625 0.40327 0.0
O365 O 0.38126 0.58675 0.33227 0.0
O366 O 0.39025 0.56297 0.39474 0.0
C367 C 0.38976 0.65729 0.38573 0.0
C368 C 0.44938 0.60524 0.39702 0.0
C369 C 0.36872 0.60262 0.48743 0.0
O370 O 0.37941 0.64005 0.35848 0.0
O371 O 0.40344 0.64863 0.42112 0.0
O372 O 0.39182 0.59452 0.48448 0.0
O373 O 0.35967 0.6121 0.44753 0.0
C374 C 0.38223 0.5641 0.35034 0.0
O375 O 0.43745 0.60094 0.43741 0.0
O376 O 0.4349 0.60932 0.35982 0.0
In377 In 0.14093 0.64847 0.16504 0.0
O378 O 0.14703 0.68957 0.19567 0.0
O379 O 0.13622 0.68573 0.11959 0.0
C380 C 0.14655 0.62435 0.25356 0.0
C381 C 0.1819 0.63231 0.10982 0.0
C382 C 0.09044 0.63666 0.15052 0.0
O383 O 0.15407 0.64738 0.24607 0.0
O384 O 0.13676 0.61322 0.21594 0.0
O385 O 0.10831 0.62648 0.12467 0.0
O386 O 0.09812 0.65278 0.1828 0.0
C387 C 0.14165 0.70084 0.15514 0.0
O388 O 0.18355 0.63777 0.15557 0.0
O389 O 0.15938 0.63454 0.09176 0.0
In390 In 0.0952 0.38419 0.86255 0.0
O391 O 0.11135 0.40337 0.79188 0.0
O392 O 0.1012 0.42768 0.85293 0.0
C393 C 0.10853 0.33428 0.84721 0.0
C394 C 0.04292 0.38155 0.85198 0.0
C395 C 0.12192 0.39035 0.94801 0.0
O396 O 0.11534 0.3522 0.81764 0.0
O397 O 0.09484 0.34158 0.88373 0.0
O398 O 0.09823 0.39649 0.94411 0.0
O399 O 0.1322 0.38175 0.9085 0.0
C400 C 0.11 0.42614 0.80908 0.0
O401 O 0.05355 0.38706 0.89311 0.0
O402 O 0.05857 0.37795 0.81644 0.0
In403 In 0.3447 0.35567 0.6424 0.0
O404 O 0.33521 0.31519 0.67286 0.0
O405 O 0.34934 0.3182 0.59844 0.0
C406 C 0.3396 0.38251 0.72786 0.0
C407 C 0.30555 0.3721 0.58317 0.0
C408 C 0.39648 0.36231 0.63528 0.0
O409 O 0.33168 0.3594 0.72318 0.0
O410 O 0.34918 0.39238 0.68876 0.0
O411 O 0.3809 0.37469 0.60746 0.0
O412 O 0.38584 0.3467 0.66527 0.0
C413 C 0.34198 0.30351 0.63345 0.0
O414 O 0.32868 0.37055 0.56765 0.0
O415 O 0.30249 0.36594 0.62835 0.0
H416 H 0.11857 0.01416 0.34079 0.0
H417 H 0.1219 0.07087 0.22216 0.0
H418 H 0.12438 0.0361 0.1601 0.0
H419 H 0.12165 0.98968 0.13942 0.0
H420 H 0.11894 0.93294 0.25803 0.0
H421 H 0.12044 0.96764 0.32038 0.0
C422 C 0.12014 0.01889 0.30137 0.0
C423 C 0.11974 0.04499 0.28595 0.0
C424 C 0.12153 0.99882 0.26597 0.0
C425 C 0.12209 0.05089 0.23488 0.0
C426 C 0.1234 0.03103 0.1994 0.0
C427 C 0.12168 0.98493 0.17894 0.0
C428 C 0.11987 0.95886 0.19419 0.0
C429 C 0.12252 0.00495 0.21448 0.0
C430 C 0.12024 0.9529 0.24542 0.0
C431 C 0.12099 0.97272 0.28106 0.0
H432 H 0.22456 0.89982 0.53159 0.0
H433 H 0.23214 0.81853 0.56889 0.0
H434 H 0.26576 0.8134 0.50603 0.0
H435 H 0.29229 0.83124 0.43952 0.0
H436 H 0.28733 0.91257 0.40234 0.0
H437 H 0.25348 0.91852 0.46619 0.0
C438 C 0.23371 0.88108 0.52598 0.0
C439 C 0.22579 0.85959 0.55476 0.0
C440 C 0.2534 0.87823 0.48979 0.0
C441 C 0.23788 0.83541 0.54736 0.0
C442 C 0.25708 0.83239 0.5113 0.0
C443 C 0.2838 0.8503 0.44527 0.0
C444 C 0.29202 0.87137 0.41604 0.0
C445 C 0.26483 0.85357 0.48214 0.0
C446 C 0.28117 0.89603 0.42441 0.0
C447 C 0.26184 0.89941 0.46082 0.0
H448 H 0.38211 0.01386 0.61723 0.0
H449 H 0.36522 0.06548 0.74009 0.0
H450 H 0.36337 0.02846 0.79736 0.0
H451 H 0.37065 0.98196 0.81355 0.0
H452 H 0.38754 0.93052 0.69037 0.0
H453 H 0.38515 0.96696 0.63205 0.0
C454 C 0.37769 0.01698 0.65643 0.0
C455 C 0.37408 0.04236 0.67455 0.0
C456 C 0.37688 0.99568 0.68909 0.0
C457 C 0.36813 0.04611 0.7253 0.0
C458 C 0.3672 0.02497 0.75808 0.0
C459 C 0.37353 0.97871 0.77386 0.0
C460 C 0.37956 0.95367 0.75631 0.0
C461 C 0.37219 -0.00024 0.74058 0.0
C462 C 0.38298 0.94965 0.70479 0.0
C463 C 0.38168 0.97048 0.67145 0.0
H464 H 0.24187 0.13872 0.87979 0.0
H465 H 0.19632 0.09738 0.98941 0.0
H466 H 0.2334 0.09713 0.04671 0.0
H467 H 0.27759 0.1119 0.06794 0.0
H468 H 0.32233 0.15431 0.95848 0.0
H469 H 0.28675 0.15073 0.89862 0.0
C470 C 0.24012 0.1294 0.91602 0.0
C471 C 0.21636 0.11826 0.93054 0.0
C472 C 0.26132 0.12966 0.94886 0.0
C473 C 0.21442 0.10612 0.97744 0.0
C474 C 0.23557 0.10607 0.01025 0.0
C475 C 0.27963 0.12009 0.03078 0.0
C476 C 0.30245 0.13354 0.01776 0.0
C477 C 0.25894 0.11827 0.99673 0.0
C478 C 0.30488 0.14401 0.96949 0.0
C479 C 0.28455 0.14201 0.93526 0.0
H480 H 0.87869 0.94575 0.74936 0.0
H481 H 0.88645 0.99247 0.61625 0.0
H482 H 0.87916 0.03187 0.66501 0.0
H483 H 0.87657 0.05326 0.74684 0.0
H484 H 0.87164 0.00665 0.88054 0.0
H485 H 0.87134 0.96706 0.83027 0.0
C486 C 0.87829 0.96452 0.73095 0.0
C487 C 0.88343 0.96626 0.6795 0.0
C488 C 0.87477 0.98716 0.75942 0.0
C489 C 0.88282 0.99068 0.65601 0.0
C490 C 0.87869 0.01323 0.68384 0.0
C491 C 0.87483 0.03445 0.76484 0.0
C492 C 0.8744 0.03281 0.81722 0.0
C493 C 0.87553 0.01176 0.7358 0.0
C494 C 0.87222 0.00835 0.84018 0.0
C495 C 0.87214 0.98571 0.8115 0.0
H496 H 0.80235 0.13369 0.50809 0.0
H497 H 0.75681 0.12927 0.37295 0.0
H498 H 0.71715 0.12468 0.4222 0.0
H499 H 0.69507 0.126 0.50347 0.0
H500 H 0.74044 0.13225 0.63855 0.0
H501 H 0.78048 0.13178 0.58961 0.0
C502 C 0.78378 0.13137 0.48949 0.0
C503 C 0.78245 0.13204 0.43707 0.0
C504 C 0.761 0.12923 0.51802 0.0
C505 C 0.75828 0.12901 0.41335 0.0
C506 C 0.73559 0.12641 0.44145 0.0
C507 C 0.71374 0.12689 0.52219 0.0
C508 C 0.71483 0.12937 0.57442 0.0
C509 C 0.73666 0.12712 0.49378 0.0
C510 C 0.73912 0.1305 0.59827 0.0
C511 C 0.76203 0.13028 0.57034 0.0
H512 H 0.62269 0.9479 0.26581 0.0
H513 H 0.62265 0.99542 0.39869 0.0
H514 H 0.62961 0.03426 0.34812 0.0
H515 H 0.63044 0.05515 0.26586 0.0
H516 H 0.62766 0.00801 0.13262 0.0
H517 H 0.62747 0.96859 0.1835 0.0
C518 C 0.62465 0.96672 0.28366 0.0
C519 C 0.6219 0.96889 0.33573 0.0
C520 C 0.62797 0.98905 0.25427 0.0
C521 C 0.62446 0.99334 0.35853 0.0
C522 C 0.62841 0.01556 0.32967 0.0
C523 C 0.6303 0.03623 0.24798 0.0
C524 C 0.62883 0.03444 0.1957 0.0
C525 C 0.62941 0.01372 0.27744 0.0
C526 C 0.62862 0.00984 0.17292 0.0
C527 C 0.62842 0.98731 0.20197 0.0
H528 H 0.69711 0.85924 0.02329 0.0
H529 H 0.73959 0.88051 0.89036 0.0
H530 H 0.77994 0.88215 0.93817 0.0
H531 H 0.80382 0.87262 0.0156 0.0
H532 H 0.76145 0.84924 0.14738 0.0
H533 H 0.72048 0.85359 0.10244 0.0
C534 C 0.71513 0.86469 0.00504 0.0
C535 C 0.71544 0.8695 0.95339 0.0
C536 C 0.73836 0.86496 0.03247 0.0
C537 C 0.73891 0.87652 0.93012 0.0
C538 C 0.76201 0.8774 0.95737 0.0
C539 C 0.78558 0.8689 0.03462 0.0
C540 C 0.78565 0.86036 0.08448 0.0
C541 C 0.76209 0.87089 0.00824 0.0
C542 C 0.7619 0.85561 0.10878 0.0
C543 C 0.73845 0.85806 0.08313 0.0
H544 H 0.62089 0.4849 0.66124 0.0
H545 H 0.6101 0.42819 0.77826 0.0
H546 H 0.61016 0.4627 0.84098 0.0
H547 H 0.60931 0.50918 0.86155 0.0
H548 H 0.62032 0.56591 0.74468 0.0
H549 H 0.6244 0.53116 0.68288 0.0
C550 C 0.61887 0.48009 0.70054 0.0
C551 C 0.61521 0.4541 0.7151 0.0
C552 C 0.6188 0.50002 0.73632 0.0
C553 C 0.61286 0.44808 0.76613 0.0
C554 C 0.61279 0.4678 0.80198 0.0
C555 C 0.61289 0.51391 0.82262 0.0
C556 C 0.61421 0.54003 0.80753 0.0
C557 C 0.61512 0.49386 0.78736 0.0
C558 C 0.61914 0.54592 0.75714 0.0
C559 C 0.62138 0.52608 0.72178 0.0
H560 H 0.79472 0.3672 0.00663 0.0
H561 H 0.74862 0.37119 0.87219 0.0
H562 H 0.7092 0.3764 0.92201 0.0
H563 H 0.68739 0.37557 0.00386 0.0
H564 H 0.73344 0.3692 0.13803 0.0
H565 H 0.77323 0.36949 0.08842 0.0
C566 C 0.77608 0.36957 0.98828 0.0
C567 C 0.77454 0.36861 0.9359 0.0
C568 C 0.75343 0.37199 0.01715 0.0
C569 C 0.75027 0.37168 0.91255 0.0
C570 C 0.72771 0.37464 0.94099 0.0
C571 C 0.70617 0.37469 0.02219 0.0
C572 C 0.7075 0.37221 0.07441 0.0
C573 C 0.72898 0.3742 0.99334 0.0
C574 C 0.73192 0.37096 0.09777 0.0
C575 C 0.75469 0.37107 0.06945 0.0
H576 H 0.89201 0.43749 0.24544 0.0
H577 H 0.87251 0.48764 0.36915 0.0
H578 H 0.86584 0.52388 0.31169 0.0
H579 H 0.86959 0.54225 0.22758 0.0
H580 H 0.89166 0.49294 0.10426 0.0
H581 H 0.89299 0.45536 0.16012 0.0
C582 C 0.88595 0.45627 0.25966 0.0
C583 C 0.88292 0.45998 0.31139 0.0
C584 C 0.88276 0.47718 0.22653 0.0
C585 C 0.87515 0.48439 0.32945 0.0
C586 C 0.87135 0.50512 0.29665 0.0
C587 C 0.87431 0.5232 0.2128 0.0
C588 C 0.88067 0.52036 0.16202 0.0
C589 C 0.87571 0.50188 0.2453 0.0
C590 C 0.8868 0.4956 0.14333 0.0
C591 C 0.88764 0.47414 0.17526 0.0
H592 H 0.73746 0.63798 0.38811 0.0
H593 H 0.68256 0.63712 0.51005 0.0
H594 H 0.71826 0.63506 0.5702 0.0
H595 H 0.76506 0.63695 0.58804 0.0
H596 H 0.81988 0.63751 0.46592 0.0
H597 H 0.78418 0.63608 0.40581 0.0
C598 C 0.73332 0.63707 0.42785 0.0
C599 C 0.70747 0.63795 0.44471 0.0
C600 C 0.75389 0.636 0.46211 0.0
C601 C 0.70233 0.63652 0.49621 0.0
C602 C 0.72272 0.63545 0.5306 0.0
C603 C 0.76917 0.63655 0.54826 0.0
C604 C 0.79501 0.63762 0.53136 0.0
C605 C 0.74857 0.63574 0.51397 0.0
C606 C 0.80012 0.6368 0.4798 0.0
C607 C 0.77973 0.63604 0.44543 0.0
H608 H 0.37359 0.45273 0.25542 0.0
H609 H 0.3708 0.49817 0.11998 0.0
H610 H 0.36973 0.53818 0.16901 0.0
H611 H 0.37375 0.56032 0.25019 0.0
H612 H 0.37838 0.51468 0.38523 0.0
H613 H 0.37433 0.47478 0.33667 0.0
C614 C 0.37237 0.47138 0.23668 0.0
C615 C 0.37247 0.4725 0.18422 0.0
C616 C 0.37228 0.49431 0.26506 0.0
C617 C 0.37088 0.4968 0.1604 0.0
C618 C 0.37033 0.5197 0.18839 0.0
C619 C 0.3735 0.54165 0.26897 0.0
C620 C 0.37656 0.54043 0.32111 0.0
C621 C 0.37166 0.51871 0.24072 0.0
C622 C 0.37623 0.51612 0.34503 0.0
C623 C 0.37395 0.49327 0.31731 0.0
H624 H 0.18494 0.6297 0.00861 0.0
H625 H 0.23076 0.62179 0.14278 0.0
H626 H 0.27019 0.61741 0.09272 0.0
H627 H 0.29209 0.62019 0.01136 0.0
H628 H 0.24651 0.63032 0.87743 0.0
H629 H 0.20657 0.6292 0.92671 0.0
C630 C 0.20351 0.62662 0.02681 0.0
C631 C 0.20499 0.62627 0.07925 0.0
C632 C 0.22618 0.62471 -0.00217 0.0
C633 C 0.22917 0.62231 0.10241 0.0
C634 C 0.25173 0.61985 0.07383 0.0
C635 C 0.27339 0.62177 0.99292 0.0
C636 C 0.27224 0.62553 0.94095 0.0
C637 C 0.25055 0.62169 0.02159 0.0
C638 C 0.2479 0.62756 0.9175 0.0
C639 C 0.22505 0.62698 0.94564 0.0
H640 H 0.11706 0.47509 0.84342 0.0
H641 H 0.11826 0.42913 0.70856 0.0
H642 H 0.12499 0.46835 0.65862 0.0
H643 H 0.12648 0.51594 0.65296 0.0
H644 H 0.12546 0.56189 0.78789 0.0
H645 H 0.12315 0.52235 0.8383 0.0
C646 C 0.11902 0.47367 0.80313 0.0
C647 C 0.11681 0.44936 0.77956 0.0
C648 C 0.12289 0.49625 0.77475 0.0
C649 C 0.11976 0.44768 0.72747 0.0
C650 C 0.12355 0.47008 0.69892 0.0
C651 C 0.12614 0.51727 0.69344 0.0
C652 C 0.12584 0.54176 0.7167 0.0
C653 C 0.12456 0.49451 0.7221 0.0
C654 C 0.12563 0.54324 0.76913 0.0
C655 C 0.12416 0.52066 0.79796 0.0
H656 H 0.19786 0.37987 0.47447 0.0
H657 H 0.24713 0.37137 0.34497 0.0
H658 H 0.28571 0.37476 0.39772 0.0
H659 H 0.30526 0.37511 0.48166 0.0
H660 H 0.2557 0.38153 0.61122 0.0
H661 H 0.21751 0.38431 0.5575 0.0
C662 C 0.21705 0.37919 0.45771 0.0
C663 C 0.21965 0.37511 0.40603 0.0
C664 C 0.23912 0.38058 0.48837 0.0
C665 C 0.24462 0.37432 0.38478 0.0
C666 C 0.2667 0.37619 0.41492 0.0
C667 C 0.28614 0.37758 0.49802 0.0
C668 C 0.28327 0.37786 0.55027 0.0
C669 C 0.26417 0.37856 0.46693 0.0
C670 C 0.25839 0.38106 0.57105 0.0
C671 C 0.23652 0.38259 0.54038 0.0
H672 H 0.14664 0.17813 0.31676 0.0
H673 H 0.10868 0.18955 0.45896 0.0
H674 H 0.11949 0.23568 0.4567 0.0
H675 H 0.13711 0.27323 0.412 0.0
H676 H 0.17312 0.26268 0.26776 0.0
H677 H 0.16593 0.21577 0.27329 0.0
C678 C 0.14099 0.1907 0.34743 0.0
C679 C 0.1268 0.18049 0.38785 0.0
C680 C 0.14684 0.21737 0.34544 0.0
C681 C 0.11949 0.19699 0.42727 0.0
C682 C 0.12566 0.22337 0.42603 0.0
C683 C 0.14367 0.26063 0.38202 0.0
C684 C 0.15559 0.27139 0.33951 0.0
C685 C 0.13895 0.23384 0.38496 0.0
C686 C 0.16385 0.25485 0.30086 0.0
C687 C 0.15969 0.22804 0.30395 0.0
H688 H 0.00417 0.91069 0.5591 0.0
H689 H 0.98602 0.89673 0.71438 0.0
H690 H 0.03197 0.89015 0.73268 0.0
H691 H 0.07674 0.88502 0.70354 0.0
H692 H 0.09529 0.89822 0.54829 0.0
H693 H 0.04978 0.90871 0.53106 0.0
C694 C 0.01033 0.90649 0.59703 0.0
C695 C 0.9917 0.90398 0.63524 0.0
C696 C 0.03681 0.90247 0.60723 0.0
C697 C -5e-05 0.89863 0.68424 0.0
C698 C 0.02623 0.89482 0.69474 0.0
C699 C 0.07088 0.89043 0.666 0.0
C700 C 0.08928 0.89062 0.62714 0.0
C701 C 0.04473 0.89617 0.65636 0.0
C702 C 0.08145 0.89787 0.57881 0.0
C703 C 0.05543 0.90378 0.56892 0.0
H704 H 0.38097 0.8081 0.92247 0.0
H705 H 0.35089 0.82204 0.77441 0.0
H706 H 0.33672 0.77671 0.76877 0.0
H707 H 0.33496 0.73259 0.80459 0.0
H708 H 0.36425 0.71936 0.95362 0.0
H709 H 0.37644 0.76503 0.96042 0.0
C710 C 0.37123 0.80122 0.88903 0.0
C711 C 0.36721 0.81824 0.84869 0.0
C712 C 0.363 0.7753 0.88626 0.0
C713 C 0.35425 0.80923 0.80588 0.0
C714 C 0.3462 0.78333 0.80262 0.0
C715 C 0.34381 0.73978 0.83868 0.0
C716 C 0.34887 0.72259 0.8784 0.0
C717 C 0.35076 0.76611 0.84237 0.0
C718 C 0.36019 0.73219 0.92248 0.0
C719 C 0.36725 0.75828 0.92635 0.0
H720 H 0.44048 0.1167 0.18454 0.0
H721 H 0.43058 0.11677 0.02442 0.0
H722 H 0.47668 0.10638 0.01341 0.0
H723 H 0.52046 0.1009 0.0496 0.0
H724 H 0.52974 0.10138 0.21002 0.0
H725 H 0.48314 0.10779 0.22061 0.0
C726 C 0.44835 0.11417 0.14722 0.0
C727 C 0.43227 0.11772 0.10534 0.0
C728 C 0.47477 0.10848 0.14126 0.0
C729 C 0.44262 0.11414 0.05723 0.0
C730 C 0.46898 0.10833 0.05094 0.0
C731 C 0.51221 0.10216 0.08685 0.0
C732 C 0.52855 0.10095 0.12896 0.0
C733 C 0.48536 0.10602 0.0927 0.0
C734 C 0.51761 0.10244 0.177 0.0
C735 C 0.49097 0.10613 0.18312 0.0
H736 H 0.12524 0.72852 0.07504 0.0
H737 H 0.15535 0.73724 0.22459 0.0
H738 H 0.15125 0.78446 0.21802 0.0
H739 H 0.13725 0.8232 0.17092 0.0
H740 H 0.10568 0.8139 0.02255 0.0
H741 H 0.11232 0.76705 0.02743 0.0
C742 C 0.13107 0.74077 0.10607 0.0
C743 C 0.14054 0.72942 0.15024 0.0
C744 C 0.12832 0.76782 0.10229 0.0
C745 C 0.14795 0.74552 0.1902 0.0
C746 C 0.14559 0.77252 0.18648 0.0
C747 C 0.13203 0.81091 0.13956 0.0
C748 C 0.12095 0.82199 0.0965 0.0
C749 C 0.13554 0.78387 0.14289 0.0
C750 C 0.11416 0.80584 0.05621 0.0
C751 C 0.11794 0.77903 0.05894 0.0
H752 H 0.51943 0.89332 0.31751 0.0
H753 H 0.50494 0.91317 0.47173 0.0
H754 H 0.45843 0.90571 0.4597 0.0
H755 H 0.42219 0.89123 0.40631 0.0
H756 H 0.43735 0.8703 0.25277 0.0
H757 H 0.48324 0.88057 0.26356 0.0
C758 C 0.50607 0.89624 0.34838 0.0
C759 C 0.51559 0.9037 0.39544 0.0
C760 C 0.47948 0.89158 0.34138 0.0
C761 C 0.49806 0.90738 0.43511 0.0
C762 C 0.47149 0.90307 0.4283 0.0
C763 C 0.43554 0.88911 0.37518 0.0
C764 C 0.42643 0.8799 0.32892 0.0
C765 C 0.46202 0.8948 0.38177 0.0
C766 C 0.44391 0.87723 0.28886 0.0
C767 C 0.47016 0.8831 0.29497 0.0
H768 H 0.35149 0.18181 0.6576 0.0
H769 H 0.39068 0.19119 0.51604 0.0
H770 H 0.38053 0.2374 0.51604 0.0
H771 H 0.36286 0.27555 0.55809 0.0
H772 H 0.32543 0.2674 0.70156 0.0
H773 H 0.33231 0.22034 0.69881 0.0
C774 C 0.3576 0.19399 0.62666 0.0
C775 C 0.37193 0.18315 0.58704 0.0
C776 C 0.35206 0.22076 0.62726 0.0
C777 C 0.37981 0.19912 0.5472 0.0
C778 C 0.37398 0.22555 0.54709 0.0
C779 C 0.35593 0.26346 0.58854 0.0
C780 C 0.34369 0.27491 0.62996 0.0
C781 C 0.36046 0.23663 0.5872 0.0
C782 C 0.33494 0.25901 0.66923 0.0
C783 C 0.33893 0.23212 0.66774 0.0
H784 H 0.06068 0.12375 0.79832 0.0
H785 H 0.08186 0.09002 0.94022 0.0
H786 H 0.03609 0.08082 0.95792 0.0
H787 H 0.98985 0.0845 0.93464 0.0
H788 H 0.96926 0.11815 0.79224 0.0
H789 H 0.01506 0.12516 0.77308 0.0
C790 C 0.05531 0.11424 0.83302 0.0
C791 C 0.07457 0.10774 0.86808 0.0
C792 C 0.02907 0.10909 0.8429 0.0
C793 C 0.06735 0.09524 0.91267 0.0
C794 C 0.0412 0.09005 0.92285 0.0
C795 C 0.99543 0.09322 0.89931 0.0
C796 C 0.97619 0.10096 0.86505 0.0
C797 C 0.02186 0.09722 0.88851 0.0
C798 C 0.98369 0.11208 0.8193 0.0
C799 C 0.00987 0.11614 0.80833 0.0
H800 H 0.89096 0.73091 0.57418 0.0
H801 H 0.84006 0.73808 0.70153 0.0
H802 H 0.84897 0.78483 0.70546 0.0
H803 H 0.87158 0.82374 0.67231 0.0
H804 H 0.92356 0.81511 0.54665 0.0
H805 H 0.91396 0.7689 0.54266 0.0
C806 C 0.88169 0.7427 0.60269 0.0
C807 C 0.86475 0.73112 0.63728 0.0
C808 C 0.88722 0.76932 0.60518 0.0
C809 C 0.85313 0.7466 0.67435 0.0
C810 C 0.85825 0.7733 0.67664 0.0
C811 C 0.88082 0.81168 0.64423 0.0
C812 C 0.89826 0.82287 0.60987 0.0
C813 C 0.87534 0.78489 0.64227 0.0
C814 C 0.91014 0.80701 0.57369 0.0
C815 C 0.90461 0.78056 0.57123 0.0
H816 H 0.93753 0.14721 0.3067 0.0
H817 H 0.9174 0.10984 0.44577 0.0
H818 H 0.96291 0.09765 0.4585 0.0
H819 H 0.00863 0.09859 0.43075 0.0
H820 H 0.02807 0.13524 0.29047 0.0
H821 H 0.98258 0.14662 0.27744 0.0
C822 C 0.9431 0.13639 0.33981 0.0
C823 C 0.92421 0.12958 0.37543 0.0
C824 C 0.96916 0.1293 0.3466 0.0
C825 C 0.93164 0.11533 0.41786 0.0
C826 C 0.95764 0.10838 0.42516 0.0
C827 C 0.00285 0.10896 0.39725 0.0
C828 C 0.0217 0.11615 0.36172 0.0
C829 C 0.97659 0.11539 0.38988 0.0
C830 C 0.01394 0.12948 0.31839 0.0
C831 C 0.98794 0.13606 0.31094 0.0
H832 H 0.64856 0.26409 0.20424 0.0
H833 H 0.61709 0.2818 0.05858 0.0
H834 H 0.6092 0.23581 0.04339 0.0
H835 H 0.61042 0.19072 0.07167 0.0
H836 H 0.6428 0.17208 0.21597 0.0
H837 H 0.65119 0.21825 0.23154 0.0
C838 C 0.64005 0.25782 0.16916 0.0
C839 C 0.63334 0.27634 0.13267 0.0
C840 C 0.63567 0.23122 0.16047 0.0
C841 C 0.62243 0.26796 0.08729 0.0
C842 C 0.61787 0.24166 0.07857 0.0
C843 C 0.61932 0.19675 0.10656 0.0
C844 C 0.62584 0.17808 0.14275 0.0
C845 C 0.62426 0.22316 0.11496 0.0
C846 C 0.63759 0.18614 0.18755 0.0
C847 C 0.64235 0.21251 0.19646 0.0
H848 H 0.56323 0.84973 0.8106 0.0
H849 H 0.57736 0.89422 0.94451 0.0
H850 H 0.53124 0.90598 0.94846 0.0
H851 H 0.48669 0.90285 0.91422 0.0
H852 H 0.47361 0.85889 0.7791 0.0
H853 H 0.51958 0.84778 0.77519 0.0
C854 C 0.55625 0.862 0.84073 0.0
C855 C 0.57363 0.87096 0.87741 0.0
C856 C 0.5299 0.8688 0.84246 0.0
C857 C 0.56432 0.88703 0.9159 0.0
C858 C 0.53798 0.89374 0.91815 0.0
C859 C 0.49396 0.89094 0.88385 0.0
C860 C 0.47674 0.88166 0.84706 0.0
C861 C 0.52055 0.88465 0.8817 0.0
C862 C 0.48644 0.86631 0.80785 0.0
C863 C 0.51273 0.85988 0.80562 0.0
H864 H 0.86528 0.26718 0.92928 0.0
H865 H 0.82421 0.25842 0.7898 0.0
H866 H 0.83262 0.21161 0.79091 0.0
H867 H 0.85344 0.17337 0.83002 0.0
H868 H 0.89628 0.1833 0.96737 0.0
H869 H 0.88538 0.22934 0.96861 0.0
C870 C 0.85795 0.255 0.89936 0.0
C871 C 0.84412 0.2662 0.8596 0.0
C872 C 0.86334 0.22829 0.8997 0.0
C873 C 0.83493 0.25021 0.82086 0.0
C874 C 0.83977 0.22346 0.82142 0.0
C875 C 0.86025 0.18564 0.86027 0.0
C876 C 0.87571 0.17497 0.89843 0.0
C877 C 0.85424 0.21231 0.86038 0.0
C878 C 0.88449 0.19107 0.93735 0.0
C879 C 0.87823 0.21741 0.93819 0.0
H880 H 0.55598 0.13945 0.691 0.0
H881 H 0.57953 0.10755 0.5489 0.0
H882 H 0.53416 0.09782 0.52869 0.0
H883 H 0.48764 0.0994 0.55089 0.0
H884 H 0.46473 0.13073 0.69397 0.0
H885 H 0.51005 0.13957 0.71437 0.0
C886 C 0.5512 0.13033 0.65561 0.0
C887 C 0.57103 0.12435 0.62136 0.0
C888 C 0.5252 0.12469 0.64444 0.0
C889 C 0.56458 0.11235 0.57586 0.0
C890 C 0.53866 0.10682 0.56427 0.0
C891 C 0.49261 0.10806 0.58658 0.0
C892 C 0.47286 0.11449 0.62079 0.0
C893 C 0.51878 0.11305 0.59819 0.0
C894 C 0.47957 0.12561 0.66698 0.0
C895 C 0.50548 0.13072 0.67867 0.0
H896 H 0.62026 0.7339 0.42736 0.0
H897 H 0.6617 0.74559 0.28897 0.0
H898 H 0.65441 0.79249 0.29501 0.0
H899 H 0.63513 0.83011 0.33888 0.0
H900 H 0.59252 0.81745 0.47578 0.0
H901 H 0.60141 0.77104 0.47105 0.0
C902 C 0.62783 0.74671 0.39864 0.0
C903 C 0.64152 0.73633 0.35784 0.0
C904 C 0.62326 0.7735 0.402 0.0
C905 C 0.65109 0.75315 0.32077 0.0
C906 C 0.64691 0.77995 0.32418 0.0
C907 C 0.62789 0.81716 0.36769 0.0
C908 C 0.61316 0.82719 0.40755 0.0
C909 C 0.63285 0.79034 0.36449 0.0
C910 C 0.60382 0.81021 0.44457 0.0
C911 C 0.60891 0.78366 0.44197 0.0
H912 H 0.9293 0.88071 0.07299 0.0
H913 H 0.94148 0.84233 0.2146 0.0
H914 H 0.98724 0.85408 0.21273 0.0
H915 H 0.02412 0.87395 0.17028 0.0
H916 H 0.01341 0.91088 0.02704 0.0
H917 H 0.96682 0.90118 0.03023 0.0
C918 C 0.94201 0.87503 0.10342 0.0
C919 C 0.93202 0.86061 0.14377 0.0
C920 C 0.96856 0.88159 0.10187 0.0
C921 C 0.94869 0.8533 0.18293 0.0
C922 C 0.97489 0.86005 0.182 0.0
C923 C 0.01158 0.88007 0.13989 0.0
C924 C 0.02215 0.89315 0.09857 0.0
C925 C 0.98505 0.87401 0.14157 0.0
C926 C 0.00569 0.90078 0.05932 0.0
C927 C 0.97907 0.8952 0.06109 0.0
H928 H 0.62541 0.76898 0.94348 0.0
H929 H 0.66782 0.76106 0.80518 0.0
H930 H 0.65939 0.71429 0.80491 0.0
H931 H 0.63806 0.67596 0.84205 0.0
H932 H 0.59428 0.68469 0.97868 0.0
H933 H 0.60516 0.73076 0.98153 0.0
C934 C 0.63303 0.75697 0.91354 0.0
C935 C 0.6472 0.76842 0.87443 0.0
C936 C 0.6277 0.73025 0.91314 0.0
C937 C 0.65683 0.75267 0.83572 0.0
C938 C 0.65197 0.72595 0.83548 0.0
C939 C 0.63104 0.68796 0.87252 0.0
C940 C 0.6153 0.67697 0.90994 0.0
C941 C 0.63711 0.71458 0.87365 0.0
C942 C 0.6063 0.69272 0.94922 0.0
C943 C 0.61254 0.71907 0.95096 0.0
H944 H 0.47106 0.38946 0.18188 0.0
H945 H 0.47712 0.41576 0.02923 0.0
H946 H 0.52406 0.40793 0.03058 0.0
H947 H 0.56319 0.39169 0.07449 0.0
H948 H 0.55576 0.36357 0.22588 0.0
H949 H 0.50965 0.37404 0.22566 0.0
C950 C 0.48267 0.39372 0.14903 0.0
C951 C 0.47067 0.40322 0.10559 0.0
C952 C 0.50943 0.38867 0.14976 0.0
C953 C 0.48595 0.40844 0.06318 0.0
C954 C 0.51276 0.40392 0.0639 0.0
C955 C 0.55145 0.38801 0.10742 0.0
C956 C 0.56286 0.3768 0.15004 0.0
C957 C 0.5247 0.39373 0.10684 0.0
C958 C 0.54743 0.37203 0.19244 0.0
C959 C 0.52104 0.37805 0.19244 0.0
H960 H 0.86997 0.23225 0.43772 0.0
H961 H 0.83778 0.24131 0.28985 0.0
H962 H 0.84604 0.28807 0.29316 0.0
H963 H 0.86438 0.32607 0.33665 0.0
H964 H 0.89843 0.31627 0.48284 0.0
H965 H 0.8874 0.27017 0.48171 0.0
C966 C 0.86455 0.2445 0.40641 0.0
C967 C 0.8533 0.23339 0.36363 0.0
C968 C 0.86982 0.27122 0.40818 0.0
C969 C 0.84652 0.24944 0.3232 0.0
C970 C 0.85126 0.27616 0.32503 0.0
C971 C 0.8692 0.31384 0.36834 0.0
C972 C 0.88225 0.3245 0.40967 0.0
C973 C 0.8632 0.28722 0.36709 0.0
C974 C 0.8885 0.30846 0.45044 0.0
C975 C 0.88219 0.28211 0.44987 0.0
H976 H 0.94153 0.63677 0.6956 0.0
H977 H 0.93124 0.61937 0.53909 0.0
H978 H 0.97738 0.60841 0.53187 0.0
H979 H 0.02093 0.60543 0.56965 0.0
H980 H 0.03061 0.62231 0.72663 0.0
H981 H 0.98431 0.63162 0.73417 0.0
C982 C 0.94938 0.63055 0.65991 0.0
C983 C 0.93313 0.62908 0.61783 0.0
C984 C 0.97577 0.62415 0.65618 0.0
C985 C 0.94344 0.6207 0.57197 0.0
C986 C 0.96979 0.61446 0.56783 0.0
C987 C 0.01284 0.61096 0.60556 0.0
C988 C 0.02917 0.61331 0.64746 0.0
C989 C 0.98618 0.61634 0.60962 0.0
C990 C 0.01845 0.62039 0.6938 0.0
C991 C 0.99199 0.6258 0.69813 0.0
H992 H 0.62743 0.22625 0.57738 0.0
H993 H 0.6539 0.23095 0.73011 0.0
H994 H 0.64669 0.27793 0.72998 0.0
H995 H 0.63156 0.31754 0.68696 0.0
H996 H 0.60335 0.31198 0.53541 0.0
H997 H 0.61255 0.26553 0.53456 0.0
C998 C 0.63178 0.23759 0.61053 0.0
C999 C 0.64122 0.22521 0.65363 0.0
C1000 C 0.62716 0.26443 0.61046 0.0
C1001 C 0.64659 0.24008 0.69644 0.0
C1002 C 0.64246 0.26692 0.69641 0.0
C1003 C 0.62754 0.30613 0.65376 0.0
C1004 C 0.61676 0.31813 0.61138 0.0
C1005 C 0.63254 0.27929 0.65374 0.0
C1006 C 0.61153 0.30315 0.56863 0.0
C1007 C 0.61682 0.27659 0.56805 0.0
H1008 H 0.00477 0.39095 0.92069 0.0
H1009 H 0.01748 0.36392 0.76986 0.0
H1010 H 0.97122 0.35516 0.76053 0.0
H1011 H 0.92744 0.3538 0.79569 0.0
H1012 H 0.9137 0.38174 0.94538 0.0
H1013 H 0.96005 0.39159 0.95471 0.0
C1014 C 0.99735 0.38328 0.88574 0.0
C1015 C 0.01457 0.37798 0.84611 0.0
C1016 C 0.97059 0.37835 0.88049 0.0
C1017 C 0.00468 0.36816 0.80095 0.0
C1018 C 0.97822 0.36308 0.79559 0.0
C1019 C 0.93457 0.36206 0.83039 0.0
C1020 C 0.91725 0.36683 0.86996 0.0
C1021 C 0.96106 0.36785 0.83522 0.0
C1022 C 0.9267 0.37784 0.91443 0.0
C1023 C 0.95319 0.38344 0.91977 0.0
H1024 H 0.8491 0.7454 0.1862 0.0
H1025 H 0.87442 0.76916 0.03927 0.0
H1026 H 0.8828 0.72397 0.01687 0.0
H1027 H 0.88444 0.67795 0.03992 0.0
H1028 H 0.85853 0.65378 0.18612 0.0
H1029 H 0.84878 0.6989 0.2079 0.0
C1030 C 0.85633 0.74064 0.14921 0.0
C1031 C 0.86127 0.76058 0.11454 0.0
C1032 C 0.86106 0.7146 0.13653 0.0
C1033 C 0.87049 0.75416 0.06666 0.0
C1034 C 0.87534 0.72834 0.05384 0.0
C1035 C 0.87659 0.68256 0.07651 0.0
C1036 C 0.87237 0.66264 0.11149 0.0
C1037 C 0.87095 0.70845 0.08863 0.0
C1038 C 0.86197 0.66882 0.15858 0.0
C1039 C 0.85644 0.6946 0.17107 0.0
H1040 H 0.57071 0.61751 0.42247 0.0
H1041 H 0.56198 0.65078 0.2753 0.0
H1042 H 0.51577 0.64048 0.27606 0.0
H1043 H 0.4775 0.6239 0.31969 0.0
H1044 H 0.48515 0.59254 0.46851 0.0
H1045 H 0.53212 0.59999 0.46585 0.0
C1046 C 0.55867 0.62234 0.39053 0.0
C1047 C 0.5697 0.63496 0.34899 0.0
C1048 C 0.53194 0.61672 0.3915 0.0
C1049 C 0.55391 0.64121 0.30787 0.0
C1050 C 0.52749 0.63529 0.30821 0.0
C1051 C 0.48947 0.61844 0.35136 0.0
C1052 C 0.47792 0.60766 0.39418 0.0
C1053 C 0.51626 0.62331 0.34998 0.0
C1054 C 0.49364 0.60087 0.43509 0.0
C1055 C 0.52046 0.60518 0.43363 0.0
H1056 H 0.41095 0.31565 0.10729 0.0
H1057 H 0.33389 0.33458 0.15898 0.0
H1058 H 0.32361 0.28819 0.16632 0.0
H1059 H 0.33623 0.24211 0.15425 0.0
H1060 H 0.41376 0.22435 0.10289 0.0
H1061 H 0.42412 0.27041 0.09928 0.0
C1062 C 0.39192 0.30965 0.12043 0.0
C1063 C 0.37316 0.32846 0.1323 0.0
C1064 C 0.38621 0.28314 0.12438 0.0
C1065 C 0.34868 0.32041 0.14968 0.0
C1066 C 0.34278 0.29392 0.15367 0.0
C1067 C 0.35539 0.24838 0.14245 0.0
C1068 C 0.37412 0.22982 0.12849 0.0
C1069 C 0.36131 0.27507 0.14051 0.0
C1070 C 0.39893 0.2382 0.11359 0.0
C1071 C 0.40491 0.26456 0.11151 0.0
H1072 H 0.4301 0.6373 0.81969 0.0
H1073 H 0.40927 0.6009 0.95933 0.0
H1074 H 0.45488 0.5895 0.97391 0.0
H1075 H 0.50092 0.59107 0.94762 0.0
H1076 H 0.52083 0.627 0.80685 0.0
H1077 H 0.47528 0.63727 0.79197 0.0
C1078 C 0.43552 0.62685 0.85334 0.0
C1079 C 0.41642 0.62011 0.88857 0.0
C1080 C 0.4616 0.62026 0.86121 0.0
C1081 C 0.42367 0.60634 0.9317 0.0
C1082 C 0.44972 0.59985 0.94005 0.0
C1083 C 0.49523 0.60101 0.9136 0.0
C1084 C 0.51424 0.60835 0.87849 0.0
C1085 C 0.4689 0.60686 0.90517 0.0
C1086 C 0.50659 0.62115 0.83449 0.0
C1087 C 0.48055 0.62709 0.82596 0.0
H1088 H 0.1044 0.69891 0.59955 0.0
H1089 H 0.15494 0.67833 0.72193 0.0
H1090 H 0.1662 0.72418 0.73371 0.0
H1091 H 0.16234 0.77003 0.70752 0.0
H1092 H 0.11305 0.78967 0.58261 0.0
H1093 H 0.10051 0.74419 0.57365 0.0
C1094 C 0.11782 0.70444 0.62896 0.0
C1095 C 0.12882 0.68531 0.65987 0.0
C1096 C 0.1244 0.73064 0.635 0.0
C1097 C 0.14626 0.69274 0.69761 0.0
C1098 C 0.15267 0.71893 0.70436 0.0
C1099 C 0.14874 0.76432 0.67858 0.0
C1100 C 0.1386 0.78312 0.64579 0.0
C1101 C 0.14195 0.73804 0.67307 0.0
C1102 C 0.12116 0.77551 0.6082 0.0
C1103 C 0.11398 0.74953 0.60305 0.0
H1104 H 0.08058 0.39513 0.40067 0.0
H1105 H 0.06519 0.3352 0.29169 0.0
H1106 H 0.01869 0.34258 0.29984 0.0
H1107 H 0.98237 0.36576 0.33759 0.0
H1108 H 0.99669 0.42516 0.4479 0.0
H1109 H 0.04361 0.4184 0.4394 0.0
C1110 C 0.06701 0.3837 0.37883 0.0
C1111 C 0.07634 0.36465 0.34565 0.0
C1112 C 0.04013 0.388 0.38376 0.0
C1113 C 0.05855 0.34997 0.31756 0.0
C1114 C 0.03192 0.35419 0.3221 0.0
C1115 C 0.99574 0.37733 0.35965 0.0
C1116 C 0.98611 0.39599 0.39316 0.0
C1117 C 0.02252 0.37314 0.35497 0.0
C1118 C 0.00367 0.41069 0.42175 0.0
C1119 C 0.03047 0.40681 0.41695 0.0
H1120 H 0.36374 0.68177 0.30998 0.0
H1121 H 0.40808 0.6962 0.44414 0.0
H1122 H 0.4026 0.7428 0.43324 0.0
H1123 H 0.38497 0.77951 0.38664 0.0
H1124 H 0.34069 0.76606 0.25224 0.0
H1125 H 0.3465 0.71911 0.26202 0.0
C1126 C 0.37219 0.69515 0.33674 0.0
C1127 C 0.38624 0.6855 0.37785 0.0
C1128 C 0.36902 0.72211 0.3302 0.0
C1129 C 0.39715 0.70307 0.41216 0.0
C1130 C 0.39405 0.72977 0.406 0.0
C1131 C 0.37663 0.76633 0.35936 0.0
C1132 C 0.36239 0.77624 0.31884 0.0
C1133 C 0.37999 0.73949 0.36529 0.0
C1134 C 0.35175 0.7589 0.2838 0.0
C1135 C 0.35503 0.73206 0.28942 0.0
H1136 H 0.96976 0.61751 0.16093 0.0
H1137 H 0.98473 0.57951 0.02015 0.0
H1138 H 0.03115 0.58926 0.02816 0.0
H1139 H 0.06741 0.6093 0.07511 0.0
H1140 H 0.05124 0.64886 0.21397 0.0
H1141 H 0.00537 0.63782 0.20674 0.0
C1142 C 0.98319 0.61123 0.1321 0.0
C1143 C 0.9739 0.5977 0.09016 0.0
C1144 C 0.00963 0.61729 0.13654 0.0
C1145 C 0.99147 0.58992 0.05285 0.0
C1146 C 0.01799 0.59551 0.05741 0.0
C1147 C 0.05381 0.61545 0.10373 0.0
C1148 C 0.0627 0.62986 0.145 0.0
C1149 C 0.02728 0.6093 0.09904 0.0
C1150 C 0.04488 0.63783 0.18173 0.0
C1151 C 0.01864 0.63149 0.17771 0.0
H1152 H 0.14624 0.22183 0.78782 0.0
H1153 H 0.12315 0.20668 0.94021 0.0
H1154 H 0.1106 0.25212 0.95048 0.0
H1155 H 0.10546 0.29587 0.91579 0.0
H1156 H 0.12972 0.31161 0.76437 0.0
H1157 H 0.14254 0.26614 0.75398 0.0
C1158 C 0.13854 0.22852 0.8233 0.0
C1159 C 0.13553 0.21095 0.86315 0.0
C1160 C 0.13149 0.25469 0.82902 0.0
C1161 C 0.12567 0.21986 0.909 0.0
C1162 C 0.11843 0.24581 0.91487 0.0
C1163 C 0.1135 0.28933 0.88047 0.0
C1164 C 0.11647 0.30696 0.84075 0.0
C1165 C 0.1211 0.26333 0.87505 0.0
C1166 C 0.12721 0.29834 0.79542 0.0
C1167 C 0.13453 0.27237 0.78949 0.0
H1168 H 0.42536 0.3939 0.57428 0.0
H1169 H 0.43152 0.33924 0.69621 0.0
H1170 H 0.47828 0.34561 0.6991 0.0
H1171 H 0.51747 0.36643 0.66756 0.0
H1172 H 0.51267 0.42027 0.54439 0.0
H1173 H 0.4654 0.41462 0.54157 0.0
C1174 C 0.43699 0.38338 0.60134 0.0
C1175 C 0.42494 0.36614 0.63496 0.0
C1176 C 0.46409 0.38706 0.60277 0.0
C1177 C 0.44026 0.35261 0.66983 0.0
C1178 C 0.46704 0.35626 0.67164 0.0
C1179 C 0.50609 0.37705 0.64022 0.0
C1180 C 0.51849 0.39383 0.60643 0.0
C1181 C 0.47914 0.37344 0.63843 0.0
C1182 C 0.50352 0.40727 0.57092 0.0
C1183 C 0.47651 0.40401 0.56925 0.0
H1184 H 0.16333 0.10716 0.51987 0.0
H1185 H 0.09701 0.05796 0.54728 0.0
H1186 H 0.10738 0.05679 0.63641 0.0
H1187 H 0.13097 0.07563 0.70747 0.0
H1188 H 0.19447 0.12843 0.68034 0.0
H1189 H 0.18996 0.12195 0.59024 0.0
C1190 C 0.15153 0.09569 0.54521 0.0
C1191 C 0.1293 0.08291 0.52727 0.0
C1192 C 0.15701 0.09596 0.59657 0.0
C1193 C 0.1141 0.06816 0.56041 0.0
C1194 C 0.11998 0.06754 0.61136 0.0
C1195 C 0.14428 0.0851 0.68182 0.0
C1196 C 0.1629 0.10259 0.70025 0.0
C1197 C 0.14076 0.08223 0.63008 0.0
C1198 C 0.17989 0.11498 0.66679 0.0
C1199 C 0.17723 0.11138 0.61533 0.0
H1200 H 0.15385 0.92316 0.77986 0.0
H1201 H 0.20575 0.86055 0.81843 0.0
H1202 H 0.19885 0.86919 0.90732 0.0
H1203 H 0.1716 0.88871 0.97247 0.0
H1204 H 0.11584 0.94773 0.93278 0.0
H1205 H 0.13089 0.94667 0.84614 0.0
C1206 C 0.1643 0.91199 0.80777 0.0
C1207 C 0.1801 0.89114 0.79286 0.0
C1208 C 0.15912 0.91614 0.85864 0.0
C1209 C 0.19337 0.87663 0.82923 0.0
C1210 C 0.18928 0.88144 0.88 0.0
C1211 C 0.16324 0.90182 0.9451 0.0
C1212 C 0.14244 0.91802 0.95866 0.0
C1213 C 0.17119 0.90025 0.89501 0.0
C1214 C 0.13171 0.93489 0.92295 0.0
C1215 C 0.14025 0.93423 0.87342 0.0
H1216 H 0.3343 0.881 0.98712 0.0
H1217 H 0.39281 0.93884 0.01771 0.0
H1218 H 0.38166 0.93787 0.1065 0.0
H1219 H 0.36042 0.91555 0.17611 0.0
H1220 H 0.30529 0.85435 0.1465 0.0
H1221 H 0.30949 0.862 0.05659 0.0
C1222 C 0.34415 0.89384 0.0131 0.0
C1223 C 0.36448 0.9098 0.99616 0.0
C1224 C 0.33837 0.89236 0.06431 0.0
C1225 C 0.37722 0.92625 0.03009 0.0
C1226 C 0.3709 0.92564 0.08082 0.0
C1227 C 0.34882 0.90433 0.15004 0.0
C1228 C 0.33276 0.88425 0.16776 0.0
C1229 C 0.35226 0.90802 0.09854 0.0
C1230 C 0.3179 0.86981 0.13362 0.0
C1231 C 0.32042 0.87408 0.08225 0.0
H1232 H 0.33802 0.12367 0.44958 0.0
H1233 H 0.39354 0.0628 0.42044 0.0
H1234 H 0.38507 0.06622 0.33071 0.0
H1235 H 0.36691 0.09089 0.26073 0.0
H1236 H 0.31531 0.15518 0.28959 0.0
H1237 H 0.31684 0.14589 0.37928 0.0
C1238 C 0.34775 0.11073 0.4236 0.0
C1239 C 0.36641 0.09306 0.4413 0.0
C1240 C 0.34368 0.11368 0.37204 0.0
C1241 C 0.37916 0.0766 0.40743 0.0
C1242 C 0.3744 0.07863 0.35621 0.0
C1243 C 0.35552 0.10248 0.28656 0.0
C1244 C 0.34113 0.12376 0.26879 0.0
C1245 C 0.35744 0.09775 0.33804 0.0
C1246 C 0.32663 0.13877 0.30258 0.0
C1247 C 0.32758 0.13352 0.3538 0.0
H1248 H 0.87314 0.90096 0.28003 0.0
H1249 H 0.82278 0.83869 0.32757 0.0
H1250 H 0.82864 0.85153 0.41489 0.0
H1251 H 0.85261 0.87662 0.47744 0.0
H1252 H 0.90677 0.93565 0.43003 0.0
H1253 H 0.89467 0.92823 0.34273 0.0
C1254 C 0.86302 0.89058 0.3095 0.0
C1255 C 0.84764 0.86889 0.2977 0.0
C1256 C 0.86738 0.89737 0.35952 0.0
C1257 C 0.83482 0.85538 0.33603 0.0
C1258 C 0.83822 0.86267 0.38584 0.0
C1259 C 0.86134 0.88824 0.44804 0.0
C1260 C 0.88059 0.90657 0.45986 0.0
C1261 C 0.85513 0.88307 0.39805 0.0
C1262 C 0.89197 0.92135 0.42157 0.0
C1263 C 0.88512 0.91705 0.37176 0.0
H1264 H 0.83702 0.11116 0.03313 0.0
H1265 H 0.9019 0.06193 0.07093 0.0
H1266 H 0.89227 0.06715 0.15987 0.0
H1267 H 0.86964 0.09106 0.22618 0.0
H1268 H 0.80773 0.14385 0.18774 0.0
H1269 H 0.81163 0.13164 0.09975 0.0
C1270 C 0.84866 0.10109 0.06084 0.0
C1271 C 0.87025 0.08638 0.04576 0.0
C1272 C 0.84368 0.10508 0.11176 0.0
C1273 C 0.88529 0.07352 0.08187 0.0
C1274 C 0.87984 0.07657 0.13265 0.0
C1275 C 0.85662 0.09941 0.19864 0.0
C1276 C 0.83859 0.11844 0.21308 0.0
C1277 C 0.85972 0.09312 0.148 0.0
C1278 C 0.8219 0.12928 0.1772 0.0
C1279 C 0.82417 0.12237 0.12696 0.0
H1280 H 0.68146 0.12921 0.82259 0.0
H1281 H 0.62388 0.07527 0.76833 0.0
H1282 H 0.61567 0.06037 0.85366 0.0
H1283 H 0.61975 0.06817 0.94398 0.0
H1284 H 0.67716 0.12238 -0.00194 0.0
H1285 H 0.69093 0.13136 0.91241 0.0
C1286 C 0.66753 0.11379 0.82943 0.0
C1287 C 0.6529 0.10368 0.78964 0.0
C1288 C 0.66272 0.10558 0.8785 0.0
C1289 C 0.63523 0.08343 0.79858 0.0
C1290 C 0.63041 0.07503 0.84735 0.0
C1291 C 0.63565 0.08152 0.93698 0.0
C1292 C 0.64708 0.09502 0.97696 0.0
C1293 C 0.64324 0.0868 0.88769 0.0
C1294 C 0.66794 0.11192 0.96772 0.0
C1295 C 0.67572 0.11718 0.91878 0.0
H1296 H 0.65869 0.88801 0.5456 0.0
H1297 H 0.59945 0.94312 0.58757 0.0
H1298 H 0.61106 0.938 0.67561 0.0
H1299 H 0.63303 0.91261 0.74054 0.0
H1300 H 0.6891 0.85431 0.69843 0.0
H1301 H 0.68412 0.86618 0.6105 0.0
C1302 C 0.64876 0.89935 0.57396 0.0
C1303 C 0.62808 0.91567 0.56042 0.0
C1304 C 0.6548 0.89549 0.62447 0.0
C1305 C 0.61529 0.93024 0.59735 0.0
C1306 C 0.62186 0.92726 0.64763 0.0
C1307 C 0.6446 0.90296 0.71218 0.0
C1308 C 0.66117 0.88246 0.72562 0.0
C1309 C 0.64082 0.90913 0.66169 0.0
C1310 C 0.67603 0.87001 0.6887 0.0
C1311 C 0.67314 0.87673 0.63849 0.0
H1312 H 0.65847 0.60994 0.02999 0.0
H1313 H 0.59556 0.55949 0.0739 0.0
H1314 H 0.6074 0.5649 0.16182 0.0
H1315 H 0.63059 0.58998 0.22573 0.0
H1316 H 0.69 0.64438 0.18132 0.0
H1317 H 0.68497 0.63114 0.09408 0.0
C1318 C 0.64779 0.59958 0.05874 0.0
C1319 C 0.62604 0.58455 0.04571 0.0
C1320 C 0.65393 0.60379 0.10915 0.0
C1321 C 0.61227 0.57132 0.08322 0.0
C1322 C 0.61897 0.57451 0.13344 0.0
C1323 C 0.64292 0.59839 0.19709 0.0
C1324 C 0.66048 0.61824 0.20964 0.0
C1325 C 0.63901 0.5916 0.14687 0.0
C1326 C 0.67623 0.62917 0.1723 0.0
C1327 C 0.67327 0.62169 0.12246 0.0
H1328 H 0.61795 0.43443 0.44359 0.0
H1329 H 0.66996 0.3761 0.50167 0.0
H1330 H 0.68414 0.36548 0.41701 0.0
H1331 H 0.67563 0.36743 0.32654 0.0
H1332 H 0.62403 0.42613 0.26851 0.0
H1333 H 0.6161 0.44224 0.35299 0.0
C1334 C 0.63291 0.41992 0.4377 0.0
C1335 C 0.64253 0.40571 0.4785 0.0
C1336 C 0.64075 0.41371 0.38893 0.0
C1337 C 0.66217 0.38721 0.4707 0.0
C1338 C 0.67013 0.38095 0.42227 0.0
C1339 C 0.66314 0.38413 0.33242 0.0
C1340 C 0.65 0.39526 0.29174 0.0
C1341 C 0.65861 0.39322 0.38107 0.0
C1342 C 0.63421 0.41714 0.29944 0.0
C1343 C 0.62955 0.42628 0.34774 0.0
H1344 H 0.86582 0.40976 0.73121 0.0
H1345 H 0.80292 0.36033 0.68335 0.0
H1346 H 0.81052 0.37285 0.5964 0.0
H1347 H 0.83944 0.39205 0.53385 0.0
H1348 H 0.90535 0.43755 0.58131 0.0
H1349 H 0.89203 0.43276 0.66859 0.0
C1350 C 0.85336 0.4023 0.70181 0.0
C1351 C 0.83397 0.38406 0.71334 0.0
C1352 C 0.85865 0.40863 0.65184 0.0
C1353 C 0.81807 0.3743 0.67509 0.0
C1354 C 0.82248 0.38136 0.62544 0.0
C1355 C 0.85053 0.40143 0.56323 0.0
C1356 C 0.87345 0.41491 0.55139 0.0
C1357 C 0.8434 0.39764 0.61327 0.0
C1358 C 0.88772 0.4269 0.58971 0.0
C1359 C 0.88017 0.42409 0.63957 0.0
H1360 H 0.88032 0.55973 0.90254 0.0
H1361 H 0.82467 0.61186 0.96935 0.0
H1362 H 0.81026 0.62569 0.88656 0.0
H1363 H 0.81899 0.62833 0.79622 0.0
H1364 H 0.87405 0.5756 0.72933 0.0
H1365 H 0.88284 0.55627 0.81092 0.0
C1366 C 0.86459 0.57362 0.89884 0.0
C1367 C 0.8539 0.58514 0.94174 0.0
C1368 C 0.85651 0.58158 0.85116 0.0
C1369 C 0.83328 0.60283 0.93673 0.0
C1370 C 0.82516 0.61089 0.88942 0.0
C1371 C 0.83242 0.61218 0.79945 0.0
C1372 C 0.84623 0.60371 0.75721 0.0
C1373 C 0.83746 0.60124 0.84649 0.0
C1374 C 0.86329 0.58253 0.76148 0.0
C1375 C 0.86846 0.57158 0.80817 0.0
H1376 H 0.31475 0.36891 0.81327 0.0
H1377 H 0.36888 0.42459 0.75249 0.0
H1378 H 0.37918 0.43986 0.83659 0.0
H1379 H 0.37736 0.43292 0.92744 0.0
H1380 H 0.32297 0.37751 0.98826 0.0
H1381 H 0.30793 0.36685 0.90413 0.0
C1382 C 0.3284 0.38475 0.81846 0.0
C1383 C 0.34136 0.39533 0.77698 0.0
C1384 C 0.33437 0.39329 0.8669 0.0
C1385 C 0.35874 0.41606 0.78396 0.0
C1386 C 0.36477 0.42469 0.83205 0.0
C1387 C 0.36188 0.41887 0.92224 0.0
C1388 C 0.35159 0.40569 0.96372 0.0
C1389 C 0.35342 0.41276 0.87381 0.0
C1390 C 0.33129 0.3878 0.95675 0.0
C1391 C 0.32277 0.3816 0.90867 0.0
H1392 H 0.31424 0.63646 0.68597 0.0
H1393 H 0.36365 0.57612 0.74496 0.0
H1394 H 0.37624 0.56362 0.66027 0.0
H1395 H 0.37805 0.57421 0.57067 0.0
H1396 H 0.32817 0.63408 0.5115 0.0
H1397 H 0.31063 0.64221 0.59497 0.0
C1398 C 0.32732 0.62021 0.68015 0.0
C1399 C 0.33834 0.6075 0.72148 0.0
C1400 C 0.33461 0.61326 0.63142 0.0
C1401 C 0.35499 0.58627 0.71363 0.0
C1402 C 0.36235 0.57923 0.66525 0.0
C1403 C 0.36299 0.58869 0.57601 0.0
C1404 C 0.35471 0.60385 0.53539 0.0
C1405 C 0.35305 0.59326 0.62404 0.0
C1406 C 0.33493 0.62227 0.5424 0.0
C1407 C 0.32499 0.62702 0.59012 0.0
H1408 H 0.11668 0.57706 0.46126 0.0
H1409 H 0.17319 0.63331 0.51087 0.0
H1410 H 0.18464 0.64293 0.42416 0.0
H1411 H 0.17411 0.63966 0.33467 0.0
H1412 H 0.11792 0.58306 0.28513 0.0
H1413 H 0.11106 0.569 0.37137 0.0
C1414 C 0.13187 0.59104 0.45303 0.0
C1415 C 0.14379 0.60476 0.49219 0.0
C1416 C 0.13821 0.59659 0.40316 0.0
C1417 C 0.16367 0.62258 0.48125 0.0
C1418 C 0.1701 0.62821 0.43169 0.0
C1419 C 0.16072 0.62394 0.34276 0.0
C1420 C 0.14622 0.61269 0.30388 0.0
C1421 C 0.15681 0.61602 0.39239 0.0
C1422 C 0.12921 0.59209 0.31457 0.0
C1423 C 0.12518 0.58413 0.36387 0.0
H1424 H 0.17957 0.36124 0.1462 0.0
H1425 H 0.1235 0.41498 0.20679 0.0
H1426 H 0.10931 0.42636 0.12247 0.0
H1427 H 0.10883 0.41644 0.03245 0.0
H1428 H 0.16553 0.36337 0.97184 0.0
H1429 H 0.18371 0.35656 0.05511 0.0
C1430 C 0.16463 0.37584 0.14081 0.0
C1431 C 0.15232 0.38697 0.18247 0.0
C1432 C 0.15649 0.38219 0.09229 0.0
C1433 C 0.13322 0.40609 0.17519 0.0
C1434 C 0.12496 0.41248 0.12701 0.0
C1435 C 0.12544 0.40374 0.03746 0.0
C1436 C 0.13557 0.39009 0.9964 0.0
C1437 C 0.13581 0.39994 0.08542 0.0
C1438 C 0.15733 0.37399 0.00305 0.0
C1439 C 0.16766 0.36999 0.05066 0.0
loop_
_geom_bond_atom_site_label_1
_geom_bond_atom_site_label_2
_geom_bond_distance
_geom_bond_site_symmetry_2
_ccdc_geom_bond_type
In0 O1 2.294 . S
In0 O2 2.326 . S
In0 O6 2.266 . S
In0 O7 2.326 . S
In0 O8 2.266 . S
In0 O9 2.326 . S
In0 O11 2.294 . S
In0 O12 2.326 . S
O1 In0 2.294 . S
O1 C10 1.240 . S
O2 In0 2.326 . S
O2 C10 1.252 . S
C3 O6 1.252 . S
C3 O7 1.260 . S
C4 O11 1.240 . S
C4 O12 1.252 . S
C5 O8 1.252 . S
C5 O9 1.260 . S
O6 In0 2.266 . S
O6 C3 1.252 . S
O7 In0 2.326 . S
O7 C3 1.260 . S
O8 In0 2.266 . S
O8 C5 1.252 . S
O9 In0 2.326 . S
O9 C5 1.260 . S
C10 O1 1.240 . S
C10 O2 1.252 . S
O11 In0 2.294 . S
O11 C4 1.240 . S
O12 In0 2.326 . S
O12 C4 1.252 . S
In13 O14 2.294 . S
In13 O15 2.326 . S
In13 O19 2.266 . S
In13 O20 2.326 . S
In13 O21 2.266 . S
In13 O22 2.326 . S
In13 O24 2.294 . S
In13 O25 2.326 . S
O14 In13 2.294 . S
O14 C23 1.240 . S
O15 In13 2.326 . S
O15 C23 1.252 . S
C16 O19 1.252 . S
C16 O20 1.260 . S
C17 O24 1.240 . S
C17 O25 1.252 . S
C18 O21 1.252 . S
C18 O22 1.260 . S
O19 In13 2.266 . S
O19 C16 1.252 . S
O20 In13 2.326 . S
O20 C16 1.260 . S
O21 In13 2.266 . S
O21 C18 1.252 . S
O22 In13 2.326 . S
O22 C18 1.260 . S
C23 O14 1.240 . S
C23 O15 1.252 . S
O24 In13 2.294 . S
O24 C17 1.240 . S
O25 In13 2.326 . S
O25 C17 1.252 . S
In26 O27 2.294 . S
In26 O28 2.326 . S
In26 O32 2.266 . S
In26 O33 2.326 . S
In26 O34 2.266 . S
In26 O35 2.326 . S
In26 O37 2.294 . S
In26 O38 2.326 . S
O27 In26 2.294 . S
O27 C36 1.240 . S
O28 In26 2.326 . S
O28 C36 1.252 . S
C29 O32 1.252 . S
C29 O33 1.260 . S
C30 O37 1.240 . S
C30 O38 1.252 . S
C31 O34 1.252 . S
C31 O35 1.260 . S
O32 In26 2.266 . S
O32 C29 1.252 . S
O33 In26 2.326 . S
O33 C29 1.260 . S
O34 In26 2.266 . S
O34 C31 1.252 . S
O35 In26 2.326 . S
O35 C31 1.260 . S
C36 O27 1.240 . S
C36 O28 1.252 . S
O37 In26 2.294 . S
O37 C30 1.240 . S
O38 In26 2.326 . S
O38 C30 1.252 . S
In39 O40 2.294 . S
In39 O41 2.326 . S
In39 O45 2.266 . S
In39 O46 2.326 . S
In39 O47 2.266 . S
In39 O48 2.326 . S
In39 O50 2.294 . S
In39 O51 2.326 . S
O40 In39 2.294 . S
O40 C49 1.240 . S
O41 In39 2.326 . S
O41 C49 1.252 . S
C42 O45 1.252 . S
C42 O46 1.260 . S
C43 O50 1.240 . S
C43 O51 1.252 . S
C44 O47 1.252 . S
C44 O48 1.260 . S
O45 In39 2.266 . S
O45 C42 1.252 . S
O46 In39 2.326 . S
O46 C42 1.260 . S
O47 In39 2.266 . S
O47 C44 1.252 . S
O48 In39 2.326 . S
O48 C44 1.260 . S
C49 O40 1.240 . S
C49 O41 1.252 . S
O50 In39 2.294 . S
O50 C43 1.240 . S
O51 In39 2.326 . S
O51 C43 1.252 . S
In52 O53 2.294 . S
In52 O54 2.326 . S
In52 O58 2.266 . S
In52 O59 2.326 . S
In52 O60 2.266 . S
In52 O61 2.326 . S
In52 O63 2.294 . S
In52 O64 2.326 . S
O53 In52 2.294 . S
O53 C62 1.240 . S
O54 In52 2.326 . S
O54 C62 1.252 . S
C55 O58 1.252 . S
C55 O59 1.260 . S
C56 O63 1.240 . S
C56 O64 1.252 . S
C57 O60 1.252 . S
C57 O61 1.260 . S
O58 In52 2.266 . S
O58 C55 1.252 . S
O59 In52 2.326 . S
O59 C55 1.260 . S
O60 In52 2.266 . S
O60 C57 1.252 . S
O61 In52 2.326 . S
O61 C57 1.260 . S
C62 O53 1.240 . S
C62 O54 1.252 . S
O63 In52 2.294 . S
O63 C56 1.240 . S
O64 In52 2.326 . S
O64 C56 1.252 . S
In65 O66 2.294 . S
In65 O67 2.326 . S
In65 O71 2.266 . S
In65 O72 2.326 . S
In65 O73 2.266 . S
In65 O74 2.326 . S
In65 O76 2.294 . S
In65 O77 2.326 . S
O66 In65 2.294 . S
O66 C75 1.240 . S
O67 In65 2.326 . S
O67 C75 1.252 . S
C68 O71 1.252 . S
C68 O72 1.260 . S
C69 O76 1.240 . S
C69 O77 1.252 . S
C70 O73 1.252 . S
C70 O74 1.260 . S
O71 In65 2.266 . S
O71 C68 1.252 . S
O72 In65 2.326 . S
O72 C68 1.260 . S
O73 In65 2.266 . S
O73 C70 1.252 . S
O74 In65 2.326 . S
O74 C70 1.260 . S
C75 O66 1.240 . S
C75 O67 1.252 . S
O76 In65 2.294 . S
O76 C69 1.240 . S
O77 In65 2.326 . S
O77 C69 1.252 . S
In78 O79 2.294 . S
In78 O80 2.326 . S
In78 O84 2.266 . S
In78 O85 2.326 . S
In78 O86 2.266 . S
In78 O87 2.326 . S
In78 O89 2.294 . S
In78 O90 2.326 . S
O79 In78 2.294 . S
O79 C88 1.240 . S
O80 In78 2.326 . S
O80 C88 1.252 . S
C81 O84 1.252 . S
C81 O85 1.260 . S
C82 O89 1.240 . S
C82 O90 1.252 . S
C83 O86 1.252 . S
C83 O87 1.260 . S
O84 In78 2.266 . S
O84 C81 1.252 . S
O85 In78 2.326 . S
O85 C81 1.260 . S
O86 In78 2.266 . S
O86 C83 1.252 . S
O87 In78 2.326 . S
O87 C83 1.260 . S
C88 O79 1.240 . S
C88 O80 1.252 . S
O89 In78 2.294 . S
O89 C82 1.240 . S
O90 In78 2.326 . S
O90 C82 1.252 . S
In91 O92 2.294 . S
In91 O93 2.326 . S
In91 O97 2.266 . S
In91 O98 2.326 . S
In91 O99 2.266 . S
In91 O100 2.326 . S
In91 O102 2.294 . S
In91 O103 2.326 . S
O92 In91 2.294 . S
O92 C101 1.240 . S
O93 In91 2.326 . S
O93 C101 1.252 . S
C94 O97 1.252 . S
C94 O98 1.260 . S
C95 O102 1.240 . S
C95 O103 1.252 . S
C96 O99 1.252 . S
C96 O100 1.260 . S
O97 In91 2.266 . S
O97 C94 1.252 . S
O98 In91 2.326 . S
O98 C94 1.260 . S
O99 In91 2.266 . S
O99 C96 1.252 . S
O100 In91 2.326 . S
O100 C96 1.260 . S
C101 O92 1.240 . S
C101 O93 1.252 . S
O102 In91 2.294 . S
O102 C95 1.240 . S
O103 In91 2.326 . S
O103 C95 1.252 . S
In104 O105 2.294 . S
In104 O106 2.326 . S
In104 O110 2.266 . S
In104 O111 2.326 . S
In104 O112 2.266 . S
In104 O113 2.326 . S
In104 O115 2.294 . S
In104 O116 2.326 . S
O105 In104 2.294 . S
O105 C114 1.240 . S
O106 In104 2.326 . S
O106 C114 1.252 . S
C107 O110 1.252 . S
C107 O111 1.260 . S
C108 O115 1.240 . S
C108 O116 1.252 . S
C109 O112 1.252 . S
C109 O113 1.260 . S
O110 In104 2.266 . S
O110 C107 1.252 . S
O111 In104 2.326 . S
O111 C107 1.260 . S
O112 In104 2.266 . S
O112 C109 1.252 . S
O113 In104 2.326 . S
O113 C109 1.260 . S
C114 O105 1.240 . S
C114 O106 1.252 . S
O115 In104 2.294 . S
O115 C108 1.240 . S
O116 In104 2.326 . S
O116 C108 1.252 . S
In117 O118 2.294 . S
In117 O119 2.326 . S
In117 O123 2.266 . S
In117 O124 2.326 . S
In117 O125 2.266 . S
In117 O126 2.326 . S
In117 O128 2.294 . S
In117 O129 2.326 . S
O118 In117 2.294 . S
O118 C127 1.240 . S
O119 In117 2.326 . S
O119 C127 1.252 . S
C120 O123 1.252 . S
C120 O124 1.260 . S
C121 O128 1.240 . S
C121 O129 1.252 . S
C122 O125 1.252 . S
C122 O126 1.260 . S
O123 In117 2.266 . S
O123 C120 1.252 . S
O124 In117 2.326 . S
O124 C120 1.260 . S
O125 In117 2.266 . S
O125 C122 1.252 . S
O126 In117 2.326 . S
O126 C122 1.260 . S
C127 O118 1.240 . S
C127 O119 1.252 . S
O128 In117 2.294 . S
O128 C121 1.240 . S
O129 In117 2.326 . S
O129 C121 1.252 . S
In130 O131 2.294 . S
In130 O132 2.326 . S
In130 O136 2.266 . S
In130 O137 2.326 . S
In130 O138 2.266 . S
In130 O139 2.326 . S
In130 O141 2.294 . S
In130 O142 2.326 . S
O131 In130 2.294 . S
O131 C140 1.240 . S
O132 In130 2.326 . S
O132 C140 1.252 . S
C133 O136 1.252 . S
C133 O137 1.260 . S
C134 O141 1.240 . S
C134 O142 1.252 . S
C135 O138 1.252 . S
C135 O139 1.260 . S
O136 In130 2.266 . S
O136 C133 1.252 . S
O137 In130 2.326 . S
O137 C133 1.260 . S
O138 In130 2.266 . S
O138 C135 1.252 . S
O139 In130 2.326 . S
O139 C135 1.260 . S
C140 O131 1.240 . S
C140 O132 1.252 . S
O141 In130 2.294 . S
O141 C134 1.240 . S
O142 In130 2.326 . S
O142 C134 1.252 . S
In143 O144 2.294 . S
In143 O145 2.326 . S
In143 O149 2.266 . S
In143 O150 2.326 . S
In143 O151 2.266 . S
In143 O152 2.326 . S
In143 O154 2.294 . S
In143 O155 2.326 . S
O144 In143 2.294 . S
O144 C153 1.240 . S
O145 In143 2.326 . S
O145 C153 1.252 . S
C146 O149 1.252 . S
C146 O150 1.260 . S
C147 O154 1.240 . S
C147 O155 1.252 . S
C148 O151 1.252 . S
C148 O152 1.260 . S
O149 In143 2.266 . S
O149 C146 1.252 . S
O150 In143 2.326 . S
O150 C146 1.260 . S
O151 In143 2.266 . S
O151 C148 1.252 . S
O152 In143 2.326 . S
O152 C148 1.260 . S
C153 O144 1.240 . S
C153 O145 1.252 . S
O154 In143 2.294 . S
O154 C147 1.240 . S
O155 In143 2.326 . S
O155 C147 1.252 . S
In156 O157 2.294 . S
In156 O158 2.326 . S
In156 O162 2.266 . S
In156 O163 2.326 . S
In156 O164 2.266 . S
In156 O165 2.326 . S
In156 O167 2.294 . S
In156 O168 2.326 . S
O157 In156 2.294 . S
O157 C166 1.240 . S
O158 In156 2.326 . S
O158 C166 1.252 . S
C159 O162 1.252 . S
C159 O163 1.260 . S
C160 O167 1.240 . S
C160 O168 1.252 . S
C161 O164 1.252 . S
C161 O165 1.260 . S
O162 In156 2.266 . S
O162 C159 1.252 . S
O163 In156 2.326 . S
O163 C159 1.260 . S
O164 In156 2.266 . S
O164 C161 1.252 . S
O165 In156 2.326 . S
O165 C161 1.260 . S
C166 O157 1.240 . S
C166 O158 1.252 . S
O167 In156 2.294 . S
O167 C160 1.240 . S
O168 In156 2.326 . S
O168 C160 1.252 . S
In169 O170 2.294 . S
In169 O171 2.326 . S
In169 O175 2.266 . S
In169 O176 2.326 . S
In169 O177 2.266 . S
In169 O178 2.326 . S
In169 O180 2.294 . S
In169 O181 2.326 . S
O170 In169 2.294 . S
O170 C179 1.240 . S
O171 In169 2.326 . S
O171 C179 1.252 . S
C172 O175 1.252 . S
C172 O176 1.260 . S
C173 O180 1.240 . S
C173 O181 1.252 . S
C174 O177 1.252 . S
C174 O178 1.260 . S
O175 In169 2.266 . S
O175 C172 1.252 . S
O176 In169 2.326 . S
O176 C172 1.260 . S
O177 In169 2.266 . S
O177 C174 1.252 . S
O178 In169 2.326 . S
O178 C174 1.260 . S
C179 O170 1.240 . S
C179 O171 1.252 . S
O180 In169 2.294 . S
O180 C173 1.240 . S
O181 In169 2.326 . S
O181 C173 1.252 . S
In182 O183 2.294 . S
In182 O184 2.326 . S
In182 O188 2.266 . S
In182 O189 2.326 . S
In182 O190 2.266 . S
In182 O191 2.326 . S
In182 O193 2.294 . S
In182 O194 2.326 . S
O183 In182 2.294 . S
O183 C192 1.240 . S
O184 In182 2.326 . S
O184 C192 1.252 . S
C185 O188 1.252 . S
C185 O189 1.260 . S
C186 O193 1.240 . S
C186 O194 1.252 . S
C187 O190 1.252 . S
C187 O191 1.260 . S
O188 In182 2.266 . S
O188 C185 1.252 . S
O189 In182 2.326 . S
O189 C185 1.260 . S
O190 In182 2.266 . S
O190 C187 1.252 . S
O191 In182 2.326 . S
O191 C187 1.260 . S
C192 O183 1.240 . S
C192 O184 1.252 . S
O193 In182 2.294 . S
O193 C186 1.240 . S
O194 In182 2.326 . S
O194 C186 1.252 . S
In195 O196 2.294 . S
In195 O197 2.326 . S
In195 O201 2.266 . S
In195 O202 2.326 . S
In195 O203 2.266 . S
In195 O204 2.326 . S
In195 O206 2.294 . S
In195 O207 2.326 . S
O196 In195 2.294 . S
O196 C205 1.240 . S
O197 In195 2.326 . S
O197 C205 1.252 . S
C198 O201 1.252 . S
C198 O202 1.260 . S
C199 O206 1.240 . S
C199 O207 1.252 . S
C200 O203 1.252 . S
C200 O204 1.260 . S
O201 In195 2.266 . S
O201 C198 1.252 . S
O202 In195 2.326 . S
O202 C198 1.260 . S
O203 In195 2.266 . S
O203 C200 1.252 . S
O204 In195 2.326 . S
O204 C200 1.260 . S
C205 O196 1.240 . S
C205 O197 1.252 . S
O206 In195 2.294 . S
O206 C199 1.240 . S
O207 In195 2.326 . S
O207 C199 1.252 . S
In208 O209 2.294 . S
In208 O210 2.326 . S
In208 O214 2.266 . S
In208 O215 2.326 . S
In208 O216 2.266 . S
In208 O217 2.326 . S
In208 O219 2.294 . S
In208 O220 2.326 . S
O209 In208 2.294 . S
O209 C218 1.240 . S
O210 In208 2.326 . S
O210 C218 1.252 . S
C211 O214 1.252 . S
C211 O215 1.260 . S
C212 O219 1.240 . S
C212 O220 1.252 . S
C213 O216 1.252 . S
C213 O217 1.260 . S
O214 In208 2.266 . S
O214 C211 1.252 . S
O215 In208 2.326 . S
O215 C211 1.260 . S
O216 In208 2.266 . S
O216 C213 1.252 . S
O217 In208 2.326 . S
O217 C213 1.260 . S
C218 O209 1.240 . S
C218 O210 1.252 . S
O219 In208 2.294 . S
O219 C212 1.240 . S
O220 In208 2.326 . S
O220 C212 1.252 . S
In221 O222 2.294 . S
In221 O223 2.326 . S
In221 O227 2.266 . S
In221 O228 2.326 . S
In221 O229 2.266 . S
In221 O230 2.326 . S
In221 O232 2.294 . S
In221 O233 2.326 . S
O222 In221 2.294 . S
O222 C231 1.240 . S
O223 In221 2.326 . S
O223 C231 1.252 . S
C224 O227 1.252 . S
C224 O228 1.260 . S
C225 O232 1.240 . S
C225 O233 1.252 . S
C226 O229 1.252 . S
C226 O230 1.260 . S
O227 In221 2.266 . S
O227 C224 1.252 . S
O228 In221 2.326 . S
O228 C224 1.260 . S
O229 In221 2.266 . S
O229 C226 1.252 . S
O230 In221 2.326 . S
O230 C226 1.260 . S
C231 O222 1.240 . S
C231 O223 1.252 . S
O232 In221 2.294 . S
O232 C225 1.240 . S
O233 In221 2.326 . S
O233 C225 1.252 . S
In234 O235 2.294 . S
In234 O236 2.326 . S
In234 O240 2.266 . S
In234 O241 2.326 . S
In234 O242 2.266 . S
In234 O243 2.326 . S
In234 O245 2.294 . S
In234 O246 2.326 . S
O235 In234 2.294 . S
O235 C244 1.240 . S
O236 In234 2.326 . S
O236 C244 1.252 . S
C237 O240 1.252 . S
C237 O241 1.260 . S
C238 O245 1.240 . S
C238 O246 1.252 . S
C239 O242 1.252 . S
C239 O243 1.260 . S
O240 In234 2.266 . S
O240 C237 1.252 . S
O241 In234 2.326 . S
O241 C237 1.260 . S
O242 In234 2.266 . S
O242 C239 1.252 . S
O243 In234 2.326 . S
O243 C239 1.260 . S
C244 O235 1.240 . S
C244 O236 1.252 . S
O245 In234 2.294 . S
O245 C238 1.240 . S
O246 In234 2.326 . S
O246 C238 1.252 . S
In247 O248 2.294 . S
In247 O249 2.326 . S
In247 O253 2.266 . S
In247 O254 2.326 . S
In247 O255 2.266 . S
In247 O256 2.326 . S
In247 O258 2.294 . S
In247 O259 2.326 . S
O248 In247 2.294 . S
O248 C257 1.240 . S
O249 In247 2.326 . S
O249 C257 1.252 . S
C250 O253 1.252 . S
C250 O254 1.260 . S
C251 O258 1.240 . S
C251 O259 1.252 . S
C252 O255 1.252 . S
C252 O256 1.260 . S
O253 In247 2.266 . S
O253 C250 1.252 . S
O254 In247 2.326 . S
O254 C250 1.260 . S
O255 In247 2.266 . S
O255 C252 1.252 . S
O256 In247 2.326 . S
O256 C252 1.260 . S
C257 O248 1.240 . S
C257 O249 1.252 . S
O258 In247 2.294 . S
O258 C251 1.240 . S
O259 In247 2.326 . S
O259 C251 1.252 . S
In260 O261 2.294 . S
In260 O262 2.326 . S
In260 O266 2.266 . S
In260 O267 2.326 . S
In260 O268 2.266 . S
In260 O269 2.326 . S
In260 O271 2.294 . S
In260 O272 2.326 . S
O261 In260 2.294 . S
O261 C270 1.240 . S
O262 In260 2.326 . S
O262 C270 1.252 . S
C263 O266 1.252 . S
C263 O267 1.260 . S
C264 O271 1.240 . S
C264 O272 1.252 . S
C265 O268 1.252 . S
C265 O269 1.260 . S
O266 In260 2.266 . S
O266 C263 1.252 . S
O267 In260 2.326 . S
O267 C263 1.260 . S
O268 In260 2.266 . S
O268 C265 1.252 . S
O269 In260 2.326 . S
O269 C265 1.260 . S
C270 O261 1.240 . S
C270 O262 1.252 . S
O271 In260 2.294 . S
O271 C264 1.240 . S
O272 In260 2.326 . S
O272 C264 1.252 . S
In273 O274 2.294 . S
In273 O275 2.326 . S
In273 O279 2.266 . S
In273 O280 2.326 . S
In273 O281 2.266 . S
In273 O282 2.326 . S
In273 O284 2.294 . S
In273 O285 2.326 . S
O274 In273 2.294 . S
O274 C283 1.240 . S
O275 In273 2.326 . S
O275 C283 1.252 . S
C276 O279 1.252 . S
C276 O280 1.260 . S
C277 O284 1.240 . S
C277 O285 1.252 . S
C278 O281 1.252 . S
C278 O282 1.260 . S
O279 In273 2.266 . S
O279 C276 1.252 . S
O280 In273 2.326 . S
O280 C276 1.260 . S
O281 In273 2.266 . S
O281 C278 1.252 . S
O282 In273 2.326 . S
O282 C278 1.260 . S
C283 O274 1.240 . S
C283 O275 1.252 . S
O284 In273 2.294 . S
O284 C277 1.240 . S
O285 In273 2.326 . S
O285 C277 1.252 . S
In286 O287 2.294 . S
In286 O288 2.326 . S
In286 O292 2.266 . S
In286 O293 2.326 . S
In286 O294 2.266 . S
In286 O295 2.326 . S
In286 O297 2.294 . S
In286 O298 2.326 . S
O287 In286 2.294 . S
O287 C296 1.240 . S
O288 In286 2.326 . S
O288 C296 1.252 . S
C289 O292 1.252 . S
C289 O293 1.260 . S
C290 O297 1.240 . S
C290 O298 1.252 . S
C291 O294 1.252 . S
C291 O295 1.260 . S
O292 In286 2.266 . S
O292 C289 1.252 . S
O293 In286 2.326 . S
O293 C289 1.260 . S
O294 In286 2.266 . S
O294 C291 1.252 . S
O295 In286 2.326 . S
O295 C291 1.260 . S
C296 O287 1.240 . S
C296 O288 1.252 . S
O297 In286 2.294 . S
O297 C290 1.240 . S
O298 In286 2.326 . S
O298 C290 1.252 . S
In299 O300 2.294 . S
In299 O301 2.326 . S
In299 O305 2.266 . S
In299 O306 2.326 . S
In299 O307 2.266 . S
In299 O308 2.326 . S
In299 O310 2.294 . S
In299 O311 2.326 . S
O300 In299 2.294 . S
O300 C309 1.240 . S
O301 In299 2.326 . S
O301 C309 1.252 . S
C302 O305 1.252 . S
C302 O306 1.260 . S
C303 O310 1.240 . S
C303 O311 1.252 . S
C304 O307 1.252 . S
C304 O308 1.260 . S
O305 In299 2.266 . S
O305 C302 1.252 . S
O306 In299 2.326 . S
O306 C302 1.260 . S
O307 In299 2.266 . S
O307 C304 1.252 . S
O308 In299 2.326 . S
O308 C304 1.260 . S
C309 O300 1.240 . S
C309 O301 1.252 . S
O310 In299 2.294 . S
O310 C303 1.240 . S
O311 In299 2.326 . S
O311 C303 1.252 . S
In312 O313 2.294 . S
In312 O314 2.326 . S
In312 O318 2.266 . S
In312 O319 2.326 . S
In312 O320 2.266 . S
In312 O321 2.326 . S
In312 O323 2.294 . S
In312 O324 2.326 . S
O313 In312 2.294 . S
O313 C322 1.240 . S
O314 In312 2.326 . S
O314 C322 1.252 . S
C315 O318 1.252 . S
C315 O319 1.260 . S
C316 O323 1.240 . S
C316 O324 1.252 . S
C317 O320 1.252 . S
C317 O321 1.260 . S
O318 In312 2.266 . S
O318 C315 1.252 . S
O319 In312 2.326 . S
O319 C315 1.260 . S
O320 In312 2.266 . S
O320 C317 1.252 . S
O321 In312 2.326 . S
O321 C317 1.260 . S
C322 O313 1.240 . S
C322 O314 1.252 . S
O323 In312 2.294 . S
O323 C316 1.240 . S
O324 In312 2.326 . S
O324 C316 1.252 . S
In325 O326 2.294 . S
In325 O327 2.326 . S
In325 O331 2.266 . S
In325 O332 2.326 . S
In325 O333 2.266 . S
In325 O334 2.326 . S
In325 O336 2.294 . S
In325 O337 2.326 . S
O326 In325 2.294 . S
O326 C335 1.240 . S
O327 In325 2.326 . S
O327 C335 1.252 . S
C328 O331 1.252 . S
C328 O332 1.260 . S
C329 O336 1.240 . S
C329 O337 1.252 . S
C330 O333 1.252 . S
C330 O334 1.260 . S
O331 In325 2.266 . S
O331 C328 1.252 . S
O332 In325 2.326 . S
O332 C328 1.260 . S
O333 In325 2.266 . S
O333 C330 1.252 . S
O334 In325 2.326 . S
O334 C330 1.260 . S
C335 O326 1.240 . S
C335 O327 1.252 . S
O336 In325 2.294 . S
O336 C329 1.240 . S
O337 In325 2.326 . S
O337 C329 1.252 . S
In338 O339 2.294 . S
In338 O340 2.326 . S
In338 O344 2.266 . S
In338 O345 2.326 . S
In338 O346 2.266 . S
In338 O347 2.326 . S
In338 O349 2.294 . S
In338 O350 2.326 . S
O339 In338 2.294 . S
O339 C348 1.240 . S
O340 In338 2.326 . S
O340 C348 1.252 . S
C341 O344 1.252 . S
C341 O345 1.260 . S
C342 O349 1.240 . S
C342 O350 1.252 . S
C343 O346 1.252 . S
C343 O347 1.260 . S
O344 In338 2.266 . S
O344 C341 1.252 . S
O345 In338 2.326 . S
O345 C341 1.260 . S
O346 In338 2.266 . S
O346 C343 1.252 . S
O347 In338 2.326 . S
O347 C343 1.260 . S
C348 O339 1.240 . S
C348 O340 1.252 . S
O349 In338 2.294 . S
O349 C342 1.240 . S
O350 In338 2.326 . S
O350 C342 1.252 . S
In351 O352 2.294 . S
In351 O353 2.326 . S
In351 O357 2.266 . S
In351 O358 2.326 . S
In351 O359 2.266 . S
In351 O360 2.326 . S
In351 O362 2.294 . S
In351 O363 2.326 . S
O352 In351 2.294 . S
O352 C361 1.240 . S
O353 In351 2.326 . S
O353 C361 1.252 . S
C354 O357 1.252 . S
C354 O358 1.260 . S
C355 O362 1.240 . S
C355 O363 1.252 . S
C356 O359 1.252 . S
C356 O360 1.260 . S
O357 In351 2.266 . S
O357 C354 1.252 . S
O358 In351 2.326 . S
O358 C354 1.260 . S
O359 In351 2.266 . S
O359 C356 1.252 . S
O360 In351 2.326 . S
O360 C356 1.260 . S
C361 O352 1.240 . S
C361 O353 1.252 . S
O362 In351 2.294 . S
O362 C355 1.240 . S
O363 In351 2.326 . S
O363 C355 1.252 . S
In364 O365 2.294 . S
In364 O366 2.326 . S
In364 O370 2.266 . S
In364 O371 2.326 . S
In364 O372 2.266 . S
In364 O373 2.326 . S
In364 O375 2.294 . S
In364 O376 2.326 . S
O365 In364 2.294 . S
O365 C374 1.240 . S
O366 In364 2.326 . S
O366 C374 1.252 . S
C367 O370 1.252 . S
C367 O371 1.260 . S
C368 O375 1.240 . S
C368 O376 1.252 . S
C369 O372 1.252 . S
C369 O373 1.260 . S
O370 In364 2.266 . S
O370 C367 1.252 . S
O371 In364 2.326 . S
O371 C367 1.260 . S
O372 In364 2.266 . S
O372 C369 1.252 . S
O373 In364 2.326 . S
O373 C369 1.260 . S
C374 O365 1.240 . S
C374 O366 1.252 . S
O375 In364 2.294 . S
O375 C368 1.240 . S
O376 In364 2.326 . S
O376 C368 1.252 . S
In377 O378 2.294 . S
In377 O379 2.326 . S
In377 O383 2.266 . S
In377 O384 2.326 . S
In377 O385 2.266 . S
In377 O386 2.326 . S
In377 O388 2.294 . S
In377 O389 2.326 . S
O378 In377 2.294 . S
O378 C387 1.240 . S
O379 In377 2.326 . S
O379 C387 1.252 . S
C380 O383 1.252 . S
C380 O384 1.260 . S
C381 O388 1.240 . S
C381 O389 1.252 . S
C382 O385 1.252 . S
C382 O386 1.260 . S
O383 In377 2.266 . S
O383 C380 1.252 . S
O384 In377 2.326 . S
O384 C380 1.260 . S
O385 In377 2.266 . S
O385 C382 1.252 . S
O386 In377 2.326 . S
O386 C382 1.260 . S
C387 O378 1.240 . S
C387 O379 1.252 . S
O388 In377 2.294 . S
O388 C381 1.240 . S
O389 In377 2.326 . S
O389 C381 1.252 . S
In390 O391 2.294 . S
In390 O392 2.326 . S
In390 O396 2.266 . S
In390 O397 2.326 . S
In390 O398 2.266 . S
In390 O399 2.326 . S
In390 O401 2.294 . S
In390 O402 2.326 . S
O391 In390 2.294 . S
O391 C400 1.240 . S
O392 In390 2.326 . S
O392 C400 1.252 . S
C393 O396 1.252 . S
C393 O397 1.260 . S
C394 O401 1.240 . S
C394 O402 1.252 . S
C395 O398 1.252 . S
C395 O399 1.260 . S
O396 In390 2.266 . S
O396 C393 1.252 . S
O397 In390 2.326 . S
O397 C393 1.260 . S
O398 In390 2.266 . S
O398 C395 1.252 . S
O399 In390 2.326 . S
O399 C395 1.260 . S
C400 O391 1.240 . S
C400 O392 1.252 . S
O401 In390 2.294 . S
O401 C394 1.240 . S
O402 In390 2.326 . S
O402 C394 1.252 . S
In403 O404 2.294 . S
In403 O405 2.326 . S
In403 O409 2.266 . S
In403 O410 2.326 . S
In403 O411 2.266 . S
In403 O412 2.326 . S
In403 O414 2.294 . S
In403 O415 2.326 . S
O404 In403 2.294 . S
O404 C413 1.240 . S
O405 In403 2.326 . S
O405 C413 1.252 . S
C406 O409 1.252 . S
C406 O410 1.260 . S
C407 O414 1.240 . S
C407 O415 1.252 . S
C408 O411 1.252 . S
C408 O412 1.260 . S
O409 In403 2.266 . S
O409 C406 1.252 . S
O410 In403 2.326 . S
O410 C406 1.260 . S
O411 In403 2.266 . S
O411 C408 1.252 . S
O412 In403 2.326 . S
O412 C408 1.260 . S
C413 O404 1.240 . S
C413 O405 1.252 . S
O414 In403 2.294 . S
O414 C407 1.240 . S
O415 In403 2.326 . S
O415 C407 1.252 . S
H416 C422 0.918 1_565 S
H417 C425 0.930 . S
H418 C426 0.930 . S
H419 C427 0.918 1_545 S
H420 C430 0.930 . S
H421 C431 0.930 . S
C422 H416 0.918 1_545 S
C422 C423 1.355 . S
C422 C424 1.415 1_545 S
C423 C422 1.355 . S
C423 C425 1.419 . S
C424 C422 1.415 1_565 S
C424 C429 1.425 1_565 S
C424 C431 1.409 . S
C425 H417 0.930 . S
C425 C423 1.419 . S
C425 C426 1.362 . S
C426 H418 0.930 . S
C426 C425 1.362 . S
C426 C429 1.409 . S
C427 H419 0.918 1_565 S
C427 C428 1.355 . S
C427 C429 1.415 1_565 S
C428 C427 1.355 . S
C428 C430 1.419 . S
C429 C424 1.425 1_545 S
C429 C426 1.409 . S
C429 C427 1.415 1_545 S
C430 H420 0.930 . S
C430 C428 1.419 . S
C430 C431 1.362 . S
C431 H421 0.930 . S
C431 C424 1.409 . S
C431 C430 1.362 . S
H432 C438 0.930 . S
H433 C441 0.930 . S
H434 C442 0.930 . S
H435 C443 0.930 . S
H436 C446 0.930 . S
H437 C447 0.930 . S
C438 H432 0.930 . S
C438 C439 1.355 . S
C438 C440 1.415 . S
C439 C438 1.355 . S
C439 C441 1.419 . S
C440 C438 1.415 . S
C440 C445 1.425 . S
C440 C447 1.409 . S
C441 H433 0.930 . S
C441 C439 1.419 . S
C441 C442 1.362 . S
C442 H434 0.930 . S
C442 C441 1.362 . S
C442 C445 1.409 . S
C443 H435 0.930 . S
C443 C444 1.355 . S
C443 C445 1.415 . S
C444 C443 1.355 . S
C444 C446 1.419 . S
C445 C440 1.425 . S
C445 C442 1.409 . S
C445 C443 1.415 . S
C446 H436 0.930 . S
C446 C444 1.419 . S
C446 C447 1.362 . S
C447 H437 0.930 . S
C447 C440 1.409 . S
C447 C446 1.362 . S
H448 C454 0.930 . S
H449 C457 0.930 . S
H450 C458 0.930 . S
H451 C459 0.930 . S
H452 C462 0.930 . S
H453 C463 0.930 . S
C454 H448 0.930 . S
C454 C455 1.355 . S
C454 C456 1.417 1_545 S
C455 C454 1.355 . S
C455 C457 1.419 . S
C456 C454 1.417 1_565 S
C456 C461 1.425 1_565 S
C456 C463 1.407 . S
C457 H449 0.930 . S
C457 C455 1.419 . S
C457 C458 1.362 . S
C458 H450 0.930 . S
C458 C457 1.362 . S
C458 C461 1.407 . S
C459 H451 0.930 . S
C459 C460 1.355 . S
C459 C461 1.417 1_565 S
C460 C459 1.355 . S
C460 C462 1.419 . S
C461 C456 1.425 1_545 S
C461 C458 1.407 . S
C461 C459 1.417 1_545 S
C462 H452 0.930 . S
C462 C460 1.419 . S
C462 C463 1.362 . S
C463 H453 0.930 . S
C463 C456 1.407 . S
C463 C462 1.362 . S
H464 C470 0.930 . S
H465 C473 0.930 . S
H466 C474 0.930 . S
H467 C475 0.930 . S
H468 C478 0.930 . S
H469 C479 0.930 . S
C470 H464 0.930 . S
C470 C471 1.355 . S
C470 C472 1.415 . S
C471 C470 1.355 . S
C471 C473 1.419 . S
C472 C470 1.415 . S
C472 C477 1.425 1_556 S
C472 C479 1.409 . S
C473 H465 0.930 . S
C473 C471 1.419 . S
C473 C474 1.362 1_556 S
C474 H466 0.930 . S
C474 C473 1.362 1_554 S
C474 C477 1.409 . S
C475 H467 0.930 . S
C475 C476 1.355 . S
C475 C477 1.415 . S
C476 C475 1.355 . S
C476 C478 1.419 . S
C477 C472 1.425 1_554 S
C477 C474 1.409 . S
C477 C475 1.415 . S
C478 H468 0.930 . S
C478 C476 1.419 . S
C478 C479 1.362 1_554 S
C479 H469 0.930 . S
C479 C472 1.409 . S
C479 C478 1.362 1_556 S
H480 C486 0.930 . S
H481 C489 0.930 . S
H482 C490 0.930 . S
H483 C491 0.930 . S
H484 C494 0.930 . S
H485 C495 0.930 . S
C486 H480 0.930 . S
C486 C487 1.355 . S
C486 C488 1.415 . S
C487 C486 1.355 . S
C487 C489 1.419 . S
C488 C486 1.415 . S
C488 C493 1.425 1_565 S
C488 C495 1.409 . S
C489 H481 0.930 . S
C489 C487 1.419 . S
C489 C490 1.362 1_565 S
C490 H482 0.930 . S
C490 C489 1.362 1_545 S
C490 C493 1.409 . S
C491 H483 0.930 . S
C491 C492 1.355 . S
C491 C493 1.415 . S
C492 C491 1.355 . S
C492 C494 1.419 . S
C493 C488 1.425 1_545 S
C493 C490 1.409 . S
C493 C491 1.415 . S
C494 H484 0.930 . S
C494 C492 1.419 . S
C494 C495 1.362 1_545 S
C495 H485 0.930 . S
C495 C488 1.409 . S
C495 C494 1.362 1_565 S
H496 C502 0.930 . S
H497 C505 0.930 . S
H498 C506 0.930 . S
H499 C507 0.930 . S
H500 C510 0.930 . S
H501 C511 0.930 . S
C502 H496 0.930 . S
C502 C503 1.355 . S
C502 C504 1.415 . S
C503 C502 1.355 . S
C503 C505 1.419 . S
C504 C502 1.415 . S
C504 C509 1.425 . S
C504 C511 1.409 . S
C505 H497 0.930 . S
C505 C503 1.419 . S
C505 C506 1.362 . S
C506 H498 0.930 . S
C506 C505 1.362 . S
C506 C509 1.409 . S
C507 H499 0.930 . S
C507 C508 1.355 . S
C507 C509 1.415 . S
C508 C507 1.355 . S
C508 C510 1.419 . S
C509 C504 1.425 . S
C509 C506 1.409 . S
C509 C507 1.415 . S
C510 H500 0.930 . S
C510 C508 1.419 . S
C510 C511 1.362 . S
C511 H501 0.930 . S
C511 C504 1.409 . S
C511 C510 1.362 . S
H512 C518 0.930 . S
H513 C521 0.930 . S
H514 C522 0.930 . S
H515 C523 0.930 . S
H516 C526 0.930 . S
H517 C527 0.930 . S
C518 H512 0.930 . S
C518 C519 1.355 . S
C518 C520 1.415 . S
C519 C518 1.355 . S
C519 C521 1.419 . S
C520 C518 1.415 . S
C520 C525 1.425 1_565 S
C520 C527 1.409 . S
C521 H513 0.930 . S
C521 C519 1.419 . S
C521 C522 1.362 1_565 S
C522 H514 0.930 . S
C522 C521 1.362 1_545 S
C522 C525 1.409 . S
C523 H515 0.930 . S
C523 C524 1.355 . S
C523 C525 1.415 . S
C524 C523 1.355 . S
C524 C526 1.419 . S
C525 C520 1.425 1_545 S
C525 C522 1.409 . S
C525 C523 1.415 . S
C526 H516 0.930 . S
C526 C524 1.419 . S
C526 C527 1.362 1_545 S
C527 H517 0.930 . S
C527 C520 1.409 . S
C527 C526 1.362 1_565 S
H528 C534 0.930 . S
H529 C537 0.930 . S
H530 C538 0.930 . S
H531 C539 0.930 . S
H532 C542 0.930 . S
H533 C543 0.930 . S
C534 H528 0.930 . S
C534 C535 1.355 . S
C534 C536 1.415 1_556 S
C535 C534 1.355 . S
C535 C537 1.419 . S
C536 C534 1.415 1_554 S
C536 C541 1.425 1_554 S
C536 C543 1.409 . S
C537 H529 0.930 . S
C537 C535 1.419 . S
C537 C538 1.362 . S
C538 H530 0.930 . S
C538 C537 1.362 . S
C538 C541 1.409 . S
C539 H531 0.930 . S
C539 C540 1.355 . S
C539 C541 1.415 1_554 S
C540 C539 1.355 . S
C540 C542 1.419 . S
C541 C536 1.425 1_556 S
C541 C538 1.409 . S
C541 C539 1.415 1_556 S
C542 H532 0.930 . S
C542 C540 1.419 . S
C542 C543 1.362 . S
C543 H533 0.930 . S
C543 C536 1.409 . S
C543 C542 1.362 . S
H544 C550 0.930 . S
H545 C553 0.930 . S
H546 C554 0.930 . S
H547 C555 0.930 . S
H548 C558 0.930 . S
H549 C559 0.930 . S
C550 H544 0.930 . S
C550 C551 1.355 . S
C550 C552 1.415 . S
C551 C550 1.355 . S
C551 C553 1.419 . S
C552 C550 1.415 . S
C552 C557 1.425 . S
C552 C559 1.409 . S
C553 H545 0.930 . S
C553 C551 1.419 . S
C553 C554 1.362 . S
C554 H546 0.930 . S
C554 C553 1.362 . S
C554 C557 1.409 . S
C555 H547 0.930 . S
C555 C556 1.355 . S
C555 C557 1.415 . S
C556 C555 1.355 . S
C556 C558 1.419 . S
C557 C552 1.425 . S
C557 C554 1.409 . S
C557 C555 1.415 . S
C558 H548 0.930 . S
C558 C556 1.419 . S
C558 C559 1.362 . S
C559 H549 0.930 . S
C559 C552 1.409 . S
C559 C558 1.362 . S
H560 C566 0.930 . S
H561 C569 0.930 . S
H562 C570 0.930 . S
H563 C571 0.930 . S
H564 C574 0.930 . S
H565 C575 0.930 . S
C566 H560 0.930 . S
C566 C567 1.355 . S
C566 C568 1.415 1_556 S
C567 C566 1.355 . S
C567 C569 1.419 . S
C568 C566 1.415 1_554 S
C568 C573 1.425 1_554 S
C568 C575 1.409 . S
C569 H561 0.930 . S
C569 C567 1.419 . S
C569 C570 1.362 . S
C570 H562 0.930 . S
C570 C569 1.362 . S
C570 C573 1.409 . S
C571 H563 0.930 . S
C571 C572 1.355 . S
C571 C573 1.415 1_554 S
C572 C571 1.355 . S
C572 C574 1.419 . S
C573 C568 1.425 1_556 S
C573 C570 1.409 . S
C573 C571 1.415 1_556 S
C574 H564 0.930 . S
C574 C572 1.419 . S
C574 C575 1.362 . S
C575 H565 0.930 . S
C575 C568 1.409 . S
C575 C574 1.362 . S
H576 C582 0.930 . S
H577 C585 0.930 . S
H578 C586 0.930 . S
H579 C587 0.930 . S
H580 C590 0.930 . S
H581 C591 0.930 . S
C582 H576 0.930 . S
C582 C583 1.355 . S
C582 C584 1.415 . S
C583 C582 1.355 . S
C583 C585 1.419 . S
C584 C582 1.415 . S
C584 C589 1.425 . S
C584 C591 1.409 . S
C585 H577 0.930 . S
C585 C583 1.419 . S
C585 C586 1.362 . S
C586 H578 0.930 . S
C586 C585 1.362 . S
C586 C589 1.409 . S
C587 H579 0.930 . S
C587 C588 1.355 . S
C587 C589 1.415 . S
C588 C587 1.355 . S
C588 C590 1.419 . S
C589 C584 1.425 . S
C589 C586 1.409 . S
C589 C587 1.415 . S
C590 H580 0.930 . S
C590 C588 1.419 . S
C590 C591 1.362 . S
C591 H581 0.930 . S
C591 C584 1.409 . S
C591 C590 1.362 . S
H592 C598 0.930 . S
H593 C601 0.930 . S
H594 C602 0.930 . S
H595 C603 0.930 . S
H596 C606 0.930 . S
H597 C607 0.930 . S
C598 H592 0.930 . S
C598 C599 1.355 . S
C598 C600 1.415 . S
C599 C598 1.355 . S
C599 C601 1.419 . S
C600 C598 1.415 . S
C600 C605 1.425 . S
C600 C607 1.409 . S
C601 H593 0.930 . S
C601 C599 1.419 . S
C601 C602 1.362 . S
C602 H594 0.930 . S
C602 C601 1.362 . S
C602 C605 1.409 . S
C603 H595 0.930 . S
C603 C604 1.355 . S
C603 C605 1.415 . S
C604 C603 1.355 . S
C604 C606 1.419 . S
C605 C600 1.425 . S
C605 C602 1.409 . S
C605 C603 1.415 . S
C606 H596 0.930 . S
C606 C604 1.419 . S
C606 C607 1.362 . S
C607 H597 0.930 . S
C607 C600 1.409 . S
C607 C606 1.362 . S
H608 C614 0.930 . S
H609 C617 0.930 . S
H610 C618 0.930 . S
H611 C619 0.930 . S
H612 C622 0.930 . S
H613 C623 0.930 . S
C614 H608 0.930 . S
C614 C615 1.355 . S
C614 C616 1.415 . S
C615 C614 1.355 . S
C615 C617 1.419 . S
C616 C614 1.415 . S
C616 C621 1.425 . S
C616 C623 1.409 . S
C617 H609 0.930 . S
C617 C615 1.419 . S
C617 C618 1.362 . S
C618 H610 0.930 . S
C618 C617 1.362 . S
C618 C621 1.409 . S
C619 H611 0.930 . S
C619 C620 1.355 . S
C619 C621 1.415 . S
C620 C619 1.355 . S
C620 C622 1.419 . S
C621 C616 1.425 . S
C621 C618 1.409 . S
C621 C619 1.415 . S
C622 H612 0.930 . S
C622 C620 1.419 . S
C622 C623 1.362 . S
C623 H613 0.930 . S
C623 C616 1.409 . S
C623 C622 1.362 . S
H624 C630 0.930 . S
H625 C633 0.930 . S
H626 C634 0.930 . S
H627 C635 0.930 . S
H628 C638 0.930 . S
H629 C639 0.930 . S
C630 H624 0.930 . S
C630 C631 1.355 . S
C630 C632 1.415 . S
C631 C630 1.355 . S
C631 C633 1.419 . S
C632 C630 1.415 . S
C632 C637 1.425 1_554 S
C632 C639 1.409 1_554 S
C633 H625 0.930 . S
C633 C631 1.419 . S
C633 C634 1.362 . S
C634 H626 0.930 . S
C634 C633 1.362 . S
C634 C637 1.409 1_554 S
C635 H627 0.930 . S
C635 C636 1.355 . S
C635 C637 1.415 . S
C636 C635 1.355 . S
C636 C638 1.419 . S
C637 C632 1.425 1_556 S
C637 C634 1.409 1_556 S
C637 C635 1.415 . S
C638 H628 0.930 . S
C638 C636 1.419 . S
C638 C639 1.362 . S
C639 H629 0.930 . S
C639 C632 1.409 1_556 S
C639 C638 1.362 . S
H640 C646 0.930 . S
H641 C649 0.930 . S
H642 C650 0.930 . S
H643 C651 0.930 . S
H644 C654 0.930 . S
H645 C655 0.930 . S
C646 H640 0.930 . S
C646 C647 1.355 . S
C646 C648 1.415 . S
C647 C646 1.355 . S
C647 C649 1.419 . S
C648 C646 1.415 . S
C648 C653 1.425 . S
C648 C655 1.409 . S
C649 H641 0.930 . S
C649 C647 1.419 . S
C649 C650 1.362 . S
C650 H642 0.930 . S
C650 C649 1.362 . S
C650 C653 1.409 . S
C651 H643 0.930 . S
C651 C652 1.355 . S
C651 C653 1.415 . S
C652 C651 1.355 . S
C652 C654 1.419 . S
C653 C648 1.425 . S
C653 C650 1.409 . S
C653 C651 1.415 . S
C654 H644 0.930 . S
C654 C652 1.419 . S
C654 C655 1.362 . S
C655 H645 0.930 . S
C655 C648 1.409 . S
C655 C654 1.362 . S
H656 C662 0.930 . S
H657 C665 0.930 . S
H658 C666 0.930 . S
H659 C667 0.930 . S
H660 C670 0.930 . S
H661 C671 0.930 . S
C662 H656 0.930 . S
C662 C663 1.355 . S
C662 C664 1.415 . S
C663 C662 1.355 . S
C663 C665 1.419 . S
C664 C662 1.415 . S
C664 C669 1.425 . S
C664 C671 1.409 . S
C665 H657 0.930 . S
C665 C663 1.419 . S
C665 C666 1.362 . S
C666 H658 0.930 . S
C666 C665 1.362 . S
C666 C669 1.409 . S
C667 H659 0.930 . S
C667 C668 1.355 . S
C667 C669 1.415 . S
C668 C667 1.355 . S
C668 C670 1.419 . S
C669 C664 1.425 . S
C669 C666 1.409 . S
C669 C667 1.415 . S
C670 H660 0.930 . S
C670 C668 1.419 . S
C670 C671 1.362 . S
C671 H661 0.930 . S
C671 C664 1.409 . S
C671 C670 1.362 . S
H672 C678 0.930 . S
H673 C681 0.930 . S
H674 C682 0.930 . S
H675 C683 0.930 . S
H676 C686 0.930 . S
H677 C687 0.930 . S
C678 H672 0.930 . S
C678 C679 1.355 . S
C678 C680 1.415 . S
C679 C678 1.355 . S
C679 C681 1.419 . S
C680 C678 1.415 . S
C680 C685 1.425 . S
C680 C687 1.409 . S
C681 H673 0.930 . S
C681 C679 1.419 . S
C681 C682 1.362 . S
C682 H674 0.930 . S
C682 C681 1.362 . S
C682 C685 1.409 . S
C683 H675 0.930 . S
C683 C684 1.355 . S
C683 C685 1.415 . S
C684 C683 1.355 . S
C684 C686 1.419 . S
C685 C680 1.425 . S
C685 C682 1.409 . S
C685 C683 1.415 . S
C686 H676 0.930 . S
C686 C684 1.419 . S
C686 C687 1.362 . S
C687 H677 0.930 . S
C687 C680 1.409 . S
C687 C686 1.362 . S
H688 C694 0.930 . S
H689 C697 0.930 . S
H690 C698 0.930 . S
H691 C699 0.930 . S
H692 C702 0.930 . S
H693 C703 0.930 . S
C694 H688 0.930 . S
C694 C695 1.355 . S
C694 C696 1.415 1_655 S
C695 C694 1.355 . S
C695 C697 1.419 . S
C696 C694 1.415 1_455 S
C696 C701 1.425 . S
C696 C703 1.409 . S
C697 H689 0.930 . S
C697 C695 1.419 . S
C697 C698 1.362 1_655 S
C698 H690 0.930 . S
C698 C697 1.362 1_455 S
C698 C701 1.409 . S
C699 H691 0.930 . S
C699 C700 1.355 . S
C699 C701 1.415 . S
C700 C699 1.355 . S
C700 C702 1.419 . S
C701 C696 1.425 . S
C701 C698 1.409 . S
C701 C699 1.415 . S
C702 H692 0.930 . S
C702 C700 1.419 . S
C702 C703 1.362 . S
C703 H693 0.930 . S
C703 C696 1.409 . S
C703 C702 1.362 . S
H704 C710 0.930 . S
H705 C713 0.930 . S
H706 C714 0.930 . S
H707 C715 0.930 . S
H708 C718 0.930 . S
H709 C719 0.930 . S
C710 H704 0.930 . S
C710 C711 1.355 . S
C710 C712 1.415 . S
C711 C710 1.355 . S
C711 C713 1.419 . S
C712 C710 1.415 . S
C712 C717 1.425 . S
C712 C719 1.409 . S
C713 H705 0.930 . S
C713 C711 1.419 . S
C713 C714 1.362 . S
C714 H706 0.930 . S
C714 C713 1.362 . S
C714 C717 1.409 . S
C715 H707 0.930 . S
C715 C716 1.355 . S
C715 C717 1.415 . S
C716 C715 1.355 . S
C716 C718 1.419 . S
C717 C712 1.425 . S
C717 C714 1.409 . S
C717 C715 1.415 . S
C718 H708 0.930 . S
C718 C716 1.419 . S
C718 C719 1.362 . S
C719 H709 0.930 . S
C719 C712 1.409 . S
C719 C718 1.362 . S
H720 C726 0.930 . S
H721 C729 0.930 . S
H722 C730 0.930 . S
H723 C731 0.930 . S
H724 C734 0.930 . S
H725 C735 0.930 . S
C726 H720 0.930 . S
C726 C727 1.355 . S
C726 C728 1.415 . S
C727 C726 1.355 . S
C727 C729 1.419 . S
C728 C726 1.415 . S
C728 C733 1.425 . S
C728 C735 1.409 . S
C729 H721 0.930 . S
C729 C727 1.419 . S
C729 C730 1.362 . S
C730 H722 0.930 . S
C730 C729 1.362 . S
C730 C733 1.409 . S
C731 H723 0.930 . S
C731 C732 1.355 . S
C731 C733 1.415 . S
C732 C731 1.355 . S
C732 C734 1.419 . S
C733 C728 1.425 . S
C733 C730 1.409 . S
C733 C731 1.415 . S
C734 H724 0.930 . S
C734 C732 1.419 . S
C734 C735 1.362 . S
C735 H725 0.930 . S
C735 C728 1.409 . S
C735 C734 1.362 . S
H736 C742 0.930 . S
H737 C745 0.930 . S
H738 C746 0.930 . S
H739 C747 0.930 . S
H740 C750 0.930 . S
H741 C751 0.930 . S
C742 H736 0.930 . S
C742 C743 1.355 . S
C742 C744 1.415 . S
C743 C742 1.355 . S
C743 C745 1.419 . S
C744 C742 1.415 . S
C744 C749 1.425 . S
C744 C751 1.409 . S
C745 H737 0.930 . S
C745 C743 1.419 . S
C745 C746 1.362 . S
C746 H738 0.930 . S
C746 C745 1.362 . S
C746 C749 1.409 . S
C747 H739 0.930 . S
C747 C748 1.355 . S
C747 C749 1.415 . S
C748 C747 1.355 . S
C748 C750 1.419 . S
C749 C744 1.425 . S
C749 C746 1.409 . S
C749 C747 1.415 . S
C750 H740 0.930 . S
C750 C748 1.419 . S
C750 C751 1.362 . S
C751 H741 0.930 . S
C751 C744 1.409 . S
C751 C750 1.362 . S
H752 C758 0.930 . S
H753 C761 0.930 . S
H754 C762 0.930 . S
H755 C763 0.930 . S
H756 C766 0.930 . S
H757 C767 0.930 . S
C758 H752 0.930 . S
C758 C759 1.355 . S
C758 C760 1.415 . S
C759 C758 1.355 . S
C759 C761 1.419 . S
C760 C758 1.415 . S
C760 C765 1.425 . S
C760 C767 1.409 . S
C761 H753 0.930 . S
C761 C759 1.419 . S
C761 C762 1.362 . S
C762 H754 0.930 . S
C762 C761 1.362 . S
C762 C765 1.409 . S
C763 H755 0.930 . S
C763 C764 1.355 . S
C763 C765 1.415 . S
C764 C763 1.355 . S
C764 C766 1.419 . S
C765 C760 1.425 . S
C765 C762 1.409 . S
C765 C763 1.415 . S
C766 H756 0.930 . S
C766 C764 1.419 . S
C766 C767 1.362 . S
C767 H757 0.930 . S
C767 C760 1.409 . S
C767 C766 1.362 . S
H768 C774 0.930 . S
H769 C777 0.930 . S
H770 C778 0.930 . S
H771 C779 0.930 . S
H772 C782 0.930 . S
H773 C783 0.930 . S
C774 H768 0.930 . S
C774 C775 1.355 . S
C774 C776 1.415 . S
C775 C774 1.355 . S
C775 C777 1.419 . S
C776 C774 1.415 . S
C776 C781 1.425 . S
C776 C783 1.409 . S
C777 H769 0.930 . S
C777 C775 1.419 . S
C777 C778 1.362 . S
C778 H770 0.930 . S
C778 C777 1.362 . S
C778 C781 1.409 . S
C779 H771 0.930 . S
C779 C780 1.355 . S
C779 C781 1.415 . S
C780 C779 1.355 . S
C780 C782 1.419 . S
C781 C776 1.425 . S
C781 C778 1.409 . S
C781 C779 1.415 . S
C782 H772 0.930 . S
C782 C780 1.419 . S
C782 C783 1.362 . S
C783 H773 0.930 . S
C783 C776 1.409 . S
C783 C782 1.362 . S
H784 C790 0.930 . S
H785 C793 0.930 . S
H786 C794 0.930 . S
H787 C795 0.930 . S
H788 C798 0.930 . S
H789 C799 0.930 . S
C790 H784 0.930 . S
C790 C791 1.355 . S
C790 C792 1.415 . S
C791 C790 1.355 . S
C791 C793 1.419 . S
C792 C790 1.415 . S
C792 C797 1.425 . S
C792 C799 1.409 . S
C793 H785 0.930 . S
C793 C791 1.419 . S
C793 C794 1.362 . S
C794 H786 0.930 . S
C794 C793 1.362 . S
C794 C797 1.409 . S
C795 H787 0.930 . S
C795 C796 1.355 . S
C795 C797 1.415 1_655 S
C796 C795 1.355 . S
C796 C798 1.419 . S
C797 C792 1.425 . S
C797 C794 1.409 . S
C797 C795 1.415 1_455 S
C798 H788 0.930 . S
C798 C796 1.419 . S
C798 C799 1.362 1_655 S
C799 H789 0.930 . S
C799 C792 1.409 . S
C799 C798 1.362 1_455 S
H800 C806 0.930 . S
H801 C809 0.930 . S
H802 C810 0.930 . S
H803 C811 0.930 . S
H804 C814 0.930 . S
H805 C815 0.930 . S
C806 H800 0.930 . S
C806 C807 1.355 . S
C806 C808 1.415 . S
C807 C806 1.355 . S
C807 C809 1.419 . S
C808 C806 1.415 . S
C808 C813 1.425 . S
C808 C815 1.409 . S
C809 H801 0.930 . S
C809 C807 1.419 . S
C809 C810 1.362 . S
C810 H802 0.930 . S
C810 C809 1.362 . S
C810 C813 1.409 . S
C811 H803 0.930 . S
C811 C812 1.355 . S
C811 C813 1.415 . S
C812 C811 1.355 . S
C812 C814 1.419 . S
C813 C808 1.425 . S
C813 C810 1.409 . S
C813 C811 1.415 . S
C814 H804 0.930 . S
C814 C812 1.419 . S
C814 C815 1.362 . S
C815 H805 0.930 . S
C815 C808 1.409 . S
C815 C814 1.362 . S
H816 C822 0.930 . S
H817 C825 0.930 . S
H818 C826 0.930 . S
H819 C827 0.930 . S
H820 C830 0.930 . S
H821 C831 0.930 . S
C822 H816 0.930 . S
C822 C823 1.355 . S
C822 C824 1.415 . S
C823 C822 1.355 . S
C823 C825 1.419 . S
C824 C822 1.415 . S
C824 C829 1.425 . S
C824 C831 1.409 . S
C825 H817 0.930 . S
C825 C823 1.419 . S
C825 C826 1.362 . S
C826 H818 0.930 . S
C826 C825 1.362 . S
C826 C829 1.409 . S
C827 H819 0.930 . S
C827 C828 1.355 . S
C827 C829 1.415 1_455 S
C828 C827 1.355 . S
C828 C830 1.419 . S
C829 C824 1.425 . S
C829 C826 1.409 . S
C829 C827 1.415 1_655 S
C830 H820 0.930 . S
C830 C828 1.419 . S
C830 C831 1.362 1_455 S
C831 H821 0.930 . S
C831 C824 1.409 . S
C831 C830 1.362 1_655 S
H832 C838 0.930 . S
H833 C841 0.930 . S
H834 C842 0.930 . S
H835 C843 0.930 . S
H836 C846 0.930 . S
H837 C847 0.930 . S
C838 H832 0.930 . S
C838 C839 1.355 . S
C838 C840 1.415 . S
C839 C838 1.355 . S
C839 C841 1.419 . S
C840 C838 1.415 . S
C840 C845 1.425 . S
C840 C847 1.409 . S
C841 H833 0.930 . S
C841 C839 1.419 . S
C841 C842 1.362 . S
C842 H834 0.930 . S
C842 C841 1.362 . S
C842 C845 1.409 . S
C843 H835 0.930 . S
C843 C844 1.355 . S
C843 C845 1.415 . S
C844 C843 1.355 . S
C844 C846 1.419 . S
C845 C840 1.425 . S
C845 C842 1.409 . S
C845 C843 1.415 . S
C846 H836 0.930 . S
C846 C844 1.419 . S
C846 C847 1.362 . S
C847 H837 0.930 . S
C847 C840 1.409 . S
C847 C846 1.362 . S
H848 C854 0.930 . S
H849 C857 0.930 . S
H850 C858 0.930 . S
H851 C859 0.930 . S
H852 C862 0.930 . S
H853 C863 0.930 . S
C854 H848 0.930 . S
C854 C855 1.355 . S
C854 C856 1.415 . S
C855 C854 1.355 . S
C855 C857 1.419 . S
C856 C854 1.415 . S
C856 C861 1.425 . S
C856 C863 1.409 . S
C857 H849 0.930 . S
C857 C855 1.419 . S
C857 C858 1.362 . S
C858 H850 0.930 . S
C858 C857 1.362 . S
C858 C861 1.409 . S
C859 H851 0.930 . S
C859 C860 1.355 . S
C859 C861 1.415 . S
C860 C859 1.355 . S
C860 C862 1.419 . S
C861 C856 1.425 . S
C861 C858 1.409 . S
C861 C859 1.415 . S
C862 H852 0.930 . S
C862 C860 1.419 . S
C862 C863 1.362 . S
C863 H853 0.930 . S
C863 C856 1.409 . S
C863 C862 1.362 . S
H864 C870 0.930 . S
H865 C873 0.930 . S
H866 C874 0.930 . S
H867 C875 0.930 . S
H868 C878 0.930 . S
H869 C879 0.930 . S
C870 H864 0.930 . S
C870 C871 1.355 . S
C870 C872 1.415 . S
C871 C870 1.355 . S
C871 C873 1.419 . S
C872 C870 1.415 . S
C872 C877 1.425 . S
C872 C879 1.409 . S
C873 H865 0.930 . S
C873 C871 1.419 . S
C873 C874 1.362 . S
C874 H866 0.930 . S
C874 C873 1.362 . S
C874 C877 1.409 . S
C875 H867 0.930 . S
C875 C876 1.355 . S
C875 C877 1.415 . S
C876 C875 1.355 . S
C876 C878 1.419 . S
C877 C872 1.425 . S
C877 C874 1.409 . S
C877 C875 1.415 . S
C878 H868 0.930 . S
C878 C876 1.419 . S
C878 C879 1.362 . S
C879 H869 0.930 . S
C879 C872 1.409 . S
C879 C878 1.362 . S
H880 C886 0.930 . S
H881 C889 0.930 . S
H882 C890 0.930 . S
H883 C891 0.930 . S
H884 C894 0.930 . S
H885 C895 0.930 . S
C886 H880 0.930 . S
C886 C887 1.355 . S
C886 C888 1.415 . S
C887 C886 1.355 . S
C887 C889 1.419 . S
C888 C886 1.415 . S
C888 C893 1.425 . S
C888 C895 1.409 . S
C889 H881 0.930 . S
C889 C887 1.419 . S
C889 C890 1.362 . S
C890 H882 0.930 . S
C890 C889 1.362 . S
C890 C893 1.409 . S
C891 H883 0.930 . S
C891 C892 1.355 . S
C891 C893 1.415 . S
C892 C891 1.355 . S
C892 C894 1.419 . S
C893 C888 1.425 . S
C893 C890 1.409 . S
C893 C891 1.415 . S
C894 H884 0.930 . S
C894 C892 1.419 . S
C894 C895 1.362 . S
C895 H885 0.930 . S
C895 C888 1.409 . S
C895 C894 1.362 . S
H896 C902 0.930 . S
H897 C905 0.930 . S
H898 C906 0.930 . S
H899 C907 0.930 . S
H900 C910 0.930 . S
H901 C911 0.930 . S
C902 H896 0.930 . S
C902 C903 1.355 . S
C902 C904 1.415 . S
C903 C902 1.355 . S
C903 C905 1.419 . S
C904 C902 1.415 . S
C904 C909 1.425 . S
C904 C911 1.409 . S
C905 H897 0.930 . S
C905 C903 1.419 . S
C905 C906 1.362 . S
C906 H898 0.930 . S
C906 C905 1.362 . S
C906 C909 1.409 . S
C907 H899 0.930 . S
C907 C908 1.355 . S
C907 C909 1.415 . S
C908 C907 1.355 . S
C908 C910 1.419 . S
C909 C904 1.425 . S
C909 C906 1.409 . S
C909 C907 1.415 . S
C910 H900 0.930 . S
C910 C908 1.419 . S
C910 C911 1.362 . S
C911 H901 0.930 . S
C911 C904 1.409 . S
C911 C910 1.362 . S
H912 C918 0.930 . S
H913 C921 0.930 . S
H914 C922 0.930 . S
H915 C923 0.930 . S
H916 C926 0.930 . S
H917 C927 0.930 . S
C918 H912 0.930 . S
C918 C919 1.355 . S
C918 C920 1.415 . S
C919 C918 1.355 . S
C919 C921 1.419 . S
C920 C918 1.415 . S
C920 C925 1.425 . S
C920 C927 1.409 . S
C921 H913 0.930 . S
C921 C919 1.419 . S
C921 C922 1.362 . S
C922 H914 0.930 . S
C922 C921 1.362 . S
C922 C925 1.409 . S
C923 H915 0.930 . S
C923 C924 1.355 . S
C923 C925 1.415 1_455 S
C924 C923 1.355 . S
C924 C926 1.419 . S
C925 C920 1.425 . S
C925 C922 1.409 . S
C925 C923 1.415 1_655 S
C926 H916 0.930 . S
C926 C924 1.419 . S
C926 C927 1.362 1_455 S
C927 H917 0.930 . S
C927 C920 1.409 . S
C927 C926 1.362 1_655 S
H928 C934 0.930 . S
H929 C937 0.930 . S
H930 C938 0.930 . S
H931 C939 0.930 . S
H932 C942 0.930 . S
H933 C943 0.930 . S
C934 H928 0.930 . S
C934 C935 1.355 . S
C934 C936 1.415 . S
C935 C934 1.355 . S
C935 C937 1.419 . S
C936 C934 1.415 . S
C936 C941 1.425 . S
C936 C943 1.409 . S
C937 H929 0.930 . S
C937 C935 1.419 . S
C937 C938 1.362 . S
C938 H930 0.930 . S
C938 C937 1.362 . S
C938 C941 1.409 . S
C939 H931 0.930 . S
C939 C940 1.355 . S
C939 C941 1.415 . S
C940 C939 1.355 . S
C940 C942 1.419 . S
C941 C936 1.425 . S
C941 C938 1.409 . S
C941 C939 1.415 . S
C942 H932 0.930 . S
C942 C940 1.419 . S
C942 C943 1.362 . S
C943 H933 0.930 . S
C943 C936 1.409 . S
C943 C942 1.362 . S
H944 C950 0.930 . S
H945 C953 0.930 . S
H946 C954 0.930 . S
H947 C955 0.930 . S
H948 C958 0.930 . S
H949 C959 0.930 . S
C950 H944 0.930 . S
C950 C951 1.355 . S
C950 C952 1.415 . S
C951 C950 1.355 . S
C951 C953 1.419 . S
C952 C950 1.415 . S
C952 C957 1.425 . S
C952 C959 1.409 . S
C953 H945 0.930 . S
C953 C951 1.419 . S
C953 C954 1.362 . S
C954 H946 0.930 . S
C954 C953 1.362 . S
C954 C957 1.409 . S
C955 H947 0.930 . S
C955 C956 1.355 . S
C955 C957 1.415 . S
C956 C955 1.355 . S
C956 C958 1.419 . S
C957 C952 1.425 . S
C957 C954 1.409 . S
C957 C955 1.415 . S
C958 H948 0.930 . S
C958 C956 1.419 . S
C958 C959 1.362 . S
C959 H949 0.930 . S
C959 C952 1.409 . S
C959 C958 1.362 . S
H960 C966 0.930 . S
H961 C969 0.930 . S
H962 C970 0.930 . S
H963 C971 0.930 . S
H964 C974 0.930 . S
H965 C975 0.930 . S
C966 H960 0.930 . S
C966 C967 1.355 . S
C966 C968 1.415 . S
C967 C966 1.355 . S
C967 C969 1.419 . S
C968 C966 1.415 . S
C968 C973 1.425 . S
C968 C975 1.409 . S
C969 H961 0.930 . S
C969 C967 1.419 . S
C969 C970 1.362 . S
C970 H962 0.930 . S
C970 C969 1.362 . S
C970 C973 1.409 . S
C971 H963 0.930 . S
C971 C972 1.355 . S
C971 C973 1.415 . S
C972 C971 1.355 . S
C972 C974 1.419 . S
C973 C968 1.425 . S
C973 C970 1.409 . S
C973 C971 1.415 . S
C974 H964 0.930 . S
C974 C972 1.419 . S
C974 C975 1.362 . S
C975 H965 0.930 . S
C975 C968 1.409 . S
C975 C974 1.362 . S
H976 C982 0.930 . S
H977 C985 0.930 . S
H978 C986 0.930 . S
H979 C987 0.930 . S
H980 C990 0.930 . S
H981 C991 0.930 . S
C982 H976 0.930 . S
C982 C983 1.355 . S
C982 C984 1.415 . S
C983 C982 1.355 . S
C983 C985 1.419 . S
C984 C982 1.415 . S
C984 C989 1.425 . S
C984 C991 1.409 . S
C985 H977 0.930 . S
C985 C983 1.419 . S
C985 C986 1.362 . S
C986 H978 0.930 . S
C986 C985 1.362 . S
C986 C989 1.409 . S
C987 H979 0.930 . S
C987 C988 1.355 . S
C987 C989 1.415 1_455 S
C988 C987 1.355 . S
C988 C990 1.419 . S
C989 C984 1.425 . S
C989 C986 1.409 . S
C989 C987 1.415 1_655 S
C990 H980 0.930 . S
C990 C988 1.419 . S
C990 C991 1.362 1_455 S
C991 H981 0.930 . S
C991 C984 1.409 . S
C991 C990 1.362 1_655 S
H992 C998 0.930 . S
H993 C1001 0.930 . S
H994 C1002 0.930 . S
H995 C1003 0.930 . S
H996 C1006 0.930 . S
H997 C1007 0.930 . S
C998 H992 0.930 . S
C998 C999 1.355 . S
C998 C1000 1.415 . S
C999 C998 1.355 . S
C999 C1001 1.419 . S
C1000 C998 1.415 . S
C1000 C1005 1.425 . S
C1000 C1007 1.409 . S
C1001 H993 0.930 . S
C1001 C999 1.419 . S
C1001 C1002 1.362 . S
C1002 H994 0.930 . S
C1002 C1001 1.362 . S
C1002 C1005 1.409 . S
C1003 H995 0.930 . S
C1003 C1004 1.355 . S
C1003 C1005 1.415 . S
C1004 C1003 1.355 . S
C1004 C1006 1.419 . S
C1005 C1000 1.425 . S
C1005 C1002 1.409 . S
C1005 C1003 1.415 . S
C1006 H996 0.930 . S
C1006 C1004 1.419 . S
C1006 C1007 1.362 . S
C1007 H997 0.930 . S
C1007 C1000 1.409 . S
C1007 C1006 1.362 . S
H1008 C1014 0.930 . S
H1009 C1017 0.930 . S
H1010 C1018 0.930 . S
H1011 C1019 0.930 . S
H1012 C1022 0.930 . S
H1013 C1023 0.930 . S
C1014 H1008 0.930 . S
C1014 C1015 1.355 . S
C1014 C1016 1.415 1_455 S
C1015 C1014 1.355 . S
C1015 C1017 1.419 . S
C1016 C1014 1.415 1_655 S
C1016 C1021 1.425 . S
C1016 C1023 1.409 . S
C1017 H1009 0.930 . S
C1017 C1015 1.419 . S
C1017 C1018 1.362 1_455 S
C1018 H1010 0.930 . S
C1018 C1017 1.362 1_655 S
C1018 C1021 1.409 . S
C1019 H1011 0.930 . S
C1019 C1020 1.355 . S
C1019 C1021 1.415 . S
C1020 C1019 1.355 . S
C1020 C1022 1.419 . S
C1021 C1016 1.425 . S
C1021 C1018 1.409 . S
C1021 C1019 1.415 . S
C1022 H1012 0.930 . S
C1022 C1020 1.419 . S
C1022 C1023 1.362 . S
C1023 H1013 0.930 . S
C1023 C1016 1.409 . S
C1023 C1022 1.362 . S
H1024 C1030 0.930 . S
H1025 C1033 0.930 . S
H1026 C1034 0.930 . S
H1027 C1035 0.930 . S
H1028 C1038 0.930 . S
H1029 C1039 0.930 . S
C1030 H1024 0.930 . S
C1030 C1031 1.355 . S
C1030 C1032 1.415 . S
C1031 C1030 1.355 . S
C1031 C1033 1.419 . S
C1032 C1030 1.415 . S
C1032 C1037 1.425 . S
C1032 C1039 1.409 . S
C1033 H1025 0.930 . S
C1033 C1031 1.419 . S
C1033 C1034 1.362 . S
C1034 H1026 0.930 . S
C1034 C1033 1.362 . S
C1034 C1037 1.409 . S
C1035 H1027 0.930 . S
C1035 C1036 1.355 . S
C1035 C1037 1.415 . S
C1036 C1035 1.355 . S
C1036 C1038 1.419 . S
C1037 C1032 1.425 . S
C1037 C1034 1.409 . S
C1037 C1035 1.415 . S
C1038 H1028 0.930 . S
C1038 C1036 1.419 . S
C1038 C1039 1.362 . S
C1039 H1029 0.930 . S
C1039 C1032 1.409 . S
C1039 C1038 1.362 . S
H1040 C1046 0.930 . S
H1041 C1049 0.930 . S
H1042 C1050 0.930 . S
H1043 C1051 0.930 . S
H1044 C1054 0.930 . S
H1045 C1055 0.930 . S
C1046 H1040 0.930 . S
C1046 C1047 1.355 . S
C1046 C1048 1.415 . S
C1047 C1046 1.355 . S
C1047 C1049 1.419 . S
C1048 C1046 1.415 . S
C1048 C1053 1.425 . S
C1048 C1055 1.409 . S
C1049 H1041 0.930 . S
C1049 C1047 1.419 . S
C1049 C1050 1.362 . S
C1050 H1042 0.930 . S
C1050 C1049 1.362 . S
C1050 C1053 1.409 . S
C1051 H1043 0.930 . S
C1051 C1052 1.355 . S
C1051 C1053 1.415 . S
C1052 C1051 1.355 . S
C1052 C1054 1.419 . S
C1053 C1048 1.425 . S
C1053 C1050 1.409 . S
C1053 C1051 1.415 . S
C1054 H1044 0.930 . S
C1054 C1052 1.419 . S
C1054 C1055 1.362 . S
C1055 H1045 0.930 . S
C1055 C1048 1.409 . S
C1055 C1054 1.362 . S
H1056 C1062 0.930 . S
H1057 C1065 0.930 . S
H1058 C1066 0.930 . S
H1059 C1067 0.930 . S
H1060 C1070 0.930 . S
H1061 C1071 0.930 . S
C1062 H1056 0.930 . S
C1062 C1063 1.355 . S
C1062 C1064 1.415 . S
C1063 C1062 1.355 . S
C1063 C1065 1.419 . S
C1064 C1062 1.415 . S
C1064 C1069 1.425 . S
C1064 C1071 1.409 . S
C1065 H1057 0.930 . S
C1065 C1063 1.419 . S
C1065 C1066 1.362 . S
C1066 H1058 0.930 . S
C1066 C1065 1.362 . S
C1066 C1069 1.409 . S
C1067 H1059 0.930 . S
C1067 C1068 1.355 . S
C1067 C1069 1.415 . S
C1068 C1067 1.355 . S
C1068 C1070 1.419 . S
C1069 C1064 1.425 . S
C1069 C1066 1.409 . S
C1069 C1067 1.415 . S
C1070 H1060 0.930 . S
C1070 C1068 1.419 . S
C1070 C1071 1.362 . S
C1071 H1061 0.930 . S
C1071 C1064 1.409 . S
C1071 C1070 1.362 . S
H1072 C1078 0.930 . S
H1073 C1081 0.930 . S
H1074 C1082 0.930 . S
H1075 C1083 0.930 . S
H1076 C1086 0.930 . S
H1077 C1087 0.930 . S
C1078 H1072 0.930 . S
C1078 C1079 1.355 . S
C1078 C1080 1.415 . S
C1079 C1078 1.355 . S
C1079 C1081 1.419 . S
C1080 C1078 1.415 . S
C1080 C1085 1.425 . S
C1080 C1087 1.409 . S
C1081 H1073 0.930 . S
C1081 C1079 1.419 . S
C1081 C1082 1.362 . S
C1082 H1074 0.930 . S
C1082 C1081 1.362 . S
C1082 C1085 1.409 . S
C1083 H1075 0.930 . S
C1083 C1084 1.355 . S
C1083 C1085 1.415 . S
C1084 C1083 1.355 . S
C1084 C1086 1.419 . S
C1085 C1080 1.425 . S
C1085 C1082 1.409 . S
C1085 C1083 1.415 . S
C1086 H1076 0.930 . S
C1086 C1084 1.419 . S
C1086 C1087 1.362 . S
C1087 H1077 0.930 . S
C1087 C1080 1.409 . S
C1087 C1086 1.362 . S
H1088 C1094 0.930 . S
H1089 C1097 0.930 . S
H1090 C1098 0.930 . S
H1091 C1099 0.930 . S
H1092 C1102 0.930 . S
H1093 C1103 0.930 . S
C1094 H1088 0.930 . S
C1094 C1095 1.355 . S
C1094 C1096 1.415 . S
C1095 C1094 1.355 . S
C1095 C1097 1.419 . S
C1096 C1094 1.415 . S
C1096 C1101 1.425 . S
C1096 C1103 1.409 . S
C1097 H1089 0.930 . S
C1097 C1095 1.419 . S
C1097 C1098 1.362 . S
C1098 H1090 0.930 . S
C1098 C1097 1.362 . S
C1098 C1101 1.409 . S
C1099 H1091 0.930 . S
C1099 C1100 1.355 . S
C1099 C1101 1.415 . S
C1100 C1099 1.355 . S
C1100 C1102 1.419 . S
C1101 C1096 1.425 . S
C1101 C1098 1.409 . S
C1101 C1099 1.415 . S
C1102 H1092 0.930 . S
C1102 C1100 1.419 . S
C1102 C1103 1.362 . S
C1103 H1093 0.930 . S
C1103 C1096 1.409 . S
C1103 C1102 1.362 . S
H1104 C1110 0.930 . S
H1105 C1113 0.930 . S
H1106 C1114 0.930 . S
H1107 C1115 0.930 . S
H1108 C1118 0.930 . S
H1109 C1119 0.930 . S
C1110 H1104 0.930 . S
C1110 C1111 1.355 . S
C1110 C1112 1.415 . S
C1111 C1110 1.355 . S
C1111 C1113 1.419 . S
C1112 C1110 1.415 . S
C1112 C1117 1.425 . S
C1112 C1119 1.409 . S
C1113 H1105 0.930 . S
C1113 C1111 1.419 . S
C1113 C1114 1.362 . S
C1114 H1106 0.930 . S
C1114 C1113 1.362 . S
C1114 C1117 1.409 . S
C1115 H1107 0.930 . S
C1115 C1116 1.355 . S
C1115 C1117 1.415 1_655 S
C1116 C1115 1.355 . S
C1116 C1118 1.419 . S
C1117 C1112 1.425 . S
C1117 C1114 1.409 . S
C1117 C1115 1.415 1_455 S
C1118 H1108 0.930 . S
C1118 C1116 1.419 . S
C1118 C1119 1.362 1_655 S
C1119 H1109 0.930 . S
C1119 C1112 1.409 . S
C1119 C1118 1.362 1_455 S
H1120 C1126 0.930 . S
H1121 C1129 0.930 . S
H1122 C1130 0.930 . S
H1123 C1131 0.930 . S
H1124 C1134 0.930 . S
H1125 C1135 0.930 . S
C1126 H1120 0.930 . S
C1126 C1127 1.355 . S
C1126 C1128 1.415 . S
C1127 C1126 1.355 . S
C1127 C1129 1.419 . S
C1128 C1126 1.415 . S
C1128 C1133 1.425 . S
C1128 C1135 1.409 . S
C1129 H1121 0.930 . S
C1129 C1127 1.419 . S
C1129 C1130 1.362 . S
C1130 H1122 0.930 . S
C1130 C1129 1.362 . S
C1130 C1133 1.409 . S
C1131 H1123 0.930 . S
C1131 C1132 1.355 . S
C1131 C1133 1.415 . S
C1132 C1131 1.355 . S
C1132 C1134 1.419 . S
C1133 C1128 1.425 . S
C1133 C1130 1.409 . S
C1133 C1131 1.415 . S
C1134 H1124 0.930 . S
C1134 C1132 1.419 . S
C1134 C1135 1.362 . S
C1135 H1125 0.930 . S
C1135 C1128 1.409 . S
C1135 C1134 1.362 . S
H1136 C1142 0.930 . S
H1137 C1145 0.930 . S
H1138 C1146 0.930 . S
H1139 C1147 0.930 . S
H1140 C1150 0.930 . S
H1141 C1151 0.930 . S
C1142 H1136 0.930 . S
C1142 C1143 1.355 . S
C1142 C1144 1.415 1_655 S
C1143 C1142 1.355 . S
C1143 C1145 1.419 . S
C1144 C1142 1.415 1_455 S
C1144 C1149 1.425 . S
C1144 C1151 1.409 . S
C1145 H1137 0.930 . S
C1145 C1143 1.419 . S
C1145 C1146 1.362 1_655 S
C1146 H1138 0.930 . S
C1146 C1145 1.362 1_455 S
C1146 C1149 1.409 . S
C1147 H1139 0.930 . S
C1147 C1148 1.355 . S
C1147 C1149 1.415 . S
C1148 C1147 1.355 . S
C1148 C1150 1.419 . S
C1149 C1144 1.425 . S
C1149 C1146 1.409 . S
C1149 C1147 1.415 . S
C1150 H1140 0.930 . S
C1150 C1148 1.419 . S
C1150 C1151 1.362 . S
C1151 H1141 0.930 . S
C1151 C1144 1.409 . S
C1151 C1150 1.362 . S
H1152 C1158 0.930 . S
H1153 C1161 0.930 . S
H1154 C1162 0.930 . S
H1155 C1163 0.930 . S
H1156 C1166 0.930 . S
H1157 C1167 0.930 . S
C1158 H1152 0.930 . S
C1158 C1159 1.355 . S
C1158 C1160 1.415 . S
C1159 C1158 1.355 . S
C1159 C1161 1.419 . S
C1160 C1158 1.415 . S
C1160 C1165 1.425 . S
C1160 C1167 1.409 . S
C1161 H1153 0.930 . S
C1161 C1159 1.419 . S
C1161 C1162 1.362 . S
C1162 H1154 0.930 . S
C1162 C1161 1.362 . S
C1162 C1165 1.409 . S
C1163 H1155 0.930 . S
C1163 C1164 1.355 . S
C1163 C1165 1.415 . S
C1164 C1163 1.355 . S
C1164 C1166 1.419 . S
C1165 C1160 1.425 . S
C1165 C1162 1.409 . S
C1165 C1163 1.415 . S
C1166 H1156 0.930 . S
C1166 C1164 1.419 . S
C1166 C1167 1.362 . S
C1167 H1157 0.930 . S
C1167 C1160 1.409 . S
C1167 C1166 1.362 . S
H1168 C1174 0.930 . S
H1169 C1177 0.930 . S
H1170 C1178 0.930 . S
H1171 C1179 0.930 . S
H1172 C1182 0.930 . S
H1173 C1183 0.930 . S
C1174 H1168 0.930 . S
C1174 C1175 1.355 . S
C1174 C1176 1.415 . S
C1175 C1174 1.355 . S
C1175 C1177 1.419 . S
C1176 C1174 1.415 . S
C1176 C1181 1.425 . S
C1176 C1183 1.409 . S
C1177 H1169 0.930 . S
C1177 C1175 1.419 . S
C1177 C1178 1.362 . S
C1178 H1170 0.930 . S
C1178 C1177 1.362 . S
C1178 C1181 1.409 . S
C1179 H1171 0.930 . S
C1179 C1180 1.355 . S
C1179 C1181 1.415 . S
C1180 C1179 1.355 . S
C1180 C1182 1.419 . S
C1181 C1176 1.425 . S
C1181 C1178 1.409 . S
C1181 C1179 1.415 . S
C1182 H1172 0.930 . S
C1182 C1180 1.419 . S
C1182 C1183 1.362 . S
C1183 H1173 0.930 . S
C1183 C1176 1.409 . S
C1183 C1182 1.362 . S
H1184 C1190 0.930 . S
H1185 C1193 0.930 . S
H1186 C1194 0.930 . S
H1187 C1195 0.930 . S
H1188 C1198 0.930 . S
H1189 C1199 0.930 . S
C1190 H1184 0.930 . S
C1190 C1191 1.355 . S
C1190 C1192 1.415 . S
C1191 C1190 1.355 . S
C1191 C1193 1.419 . S
C1192 C1190 1.415 . S
C1192 C1197 1.425 . S
C1192 C1199 1.409 . S
C1193 H1185 0.930 . S
C1193 C1191 1.419 . S
C1193 C1194 1.362 . S
C1194 H1186 0.930 . S
C1194 C1193 1.362 . S
C1194 C1197 1.409 . S
C1195 H1187 0.930 . S
C1195 C1196 1.355 . S
C1195 C1197 1.415 . S
C1196 C1195 1.355 . S
C1196 C1198 1.419 . S
C1197 C1192 1.425 . S
C1197 C1194 1.409 . S
C1197 C1195 1.415 . S
C1198 H1188 0.930 . S
C1198 C1196 1.419 . S
C1198 C1199 1.362 . S
C1199 H1189 0.930 . S
C1199 C1192 1.409 . S
C1199 C1198 1.362 . S
H1200 C1206 0.930 . S
H1201 C1209 0.930 . S
H1202 C1210 0.930 . S
H1203 C1211 0.930 . S
H1204 C1214 0.930 . S
H1205 C1215 0.930 . S
C1206 H1200 0.930 . S
C1206 C1207 1.355 . S
C1206 C1208 1.415 . S
C1207 C1206 1.355 . S
C1207 C1209 1.419 . S
C1208 C1206 1.415 . S
C1208 C1213 1.425 . S
C1208 C1215 1.409 . S
C1209 H1201 0.930 . S
C1209 C1207 1.419 . S
C1209 C1210 1.362 . S
C1210 H1202 0.930 . S
C1210 C1209 1.362 . S
C1210 C1213 1.409 . S
C1211 H1203 0.930 . S
C1211 C1212 1.355 . S
C1211 C1213 1.415 . S
C1212 C1211 1.355 . S
C1212 C1214 1.419 . S
C1213 C1208 1.425 . S
C1213 C1210 1.409 . S
C1213 C1211 1.415 . S
C1214 H1204 0.930 . S
C1214 C1212 1.419 . S
C1214 C1215 1.362 . S
C1215 H1205 0.930 . S
C1215 C1208 1.409 . S
C1215 C1214 1.362 . S
H1216 C1222 0.930 . S
H1217 C1225 0.930 . S
H1218 C1226 0.930 . S
H1219 C1227 0.930 . S
H1220 C1230 0.930 . S
H1221 C1231 0.930 . S
C1222 H1216 0.930 . S
C1222 C1223 1.355 . S
C1222 C1224 1.415 . S
C1223 C1222 1.355 . S
C1223 C1225 1.419 . S
C1224 C1222 1.415 . S
C1224 C1229 1.425 . S
C1224 C1231 1.409 . S
C1225 H1217 0.930 . S
C1225 C1223 1.419 . S
C1225 C1226 1.362 . S
C1226 H1218 0.930 . S
C1226 C1225 1.362 . S
C1226 C1229 1.409 . S
C1227 H1219 0.930 . S
C1227 C1228 1.355 . S
C1227 C1229 1.415 . S
C1228 C1227 1.355 . S
C1228 C1230 1.419 . S
C1229 C1224 1.425 . S
C1229 C1226 1.409 . S
C1229 C1227 1.415 . S
C1230 H1220 0.930 . S
C1230 C1228 1.419 . S
C1230 C1231 1.362 . S
C1231 H1221 0.930 . S
C1231 C1224 1.409 . S
C1231 C1230 1.362 . S
H1232 C1238 0.930 . S
H1233 C1241 0.930 . S
H1234 C1242 0.930 . S
H1235 C1243 0.930 . S
H1236 C1246 0.930 . S
H1237 C1247 0.930 . S
C1238 H1232 0.930 . S
C1238 C1239 1.355 . S
C1238 C1240 1.415 . S
C1239 C1238 1.355 . S
C1239 C1241 1.419 . S
C1240 C1238 1.415 . S
C1240 C1245 1.425 . S
C1240 C1247 1.409 . S
C1241 H1233 0.930 . S
C1241 C1239 1.419 . S
C1241 C1242 1.362 . S
C1242 H1234 0.930 . S
C1242 C1241 1.362 . S
C1242 C1245 1.409 . S
C1243 H1235 0.930 . S
C1243 C1244 1.355 . S
C1243 C1245 1.415 . S
C1244 C1243 1.355 . S
C1244 C1246 1.419 . S
C1245 C1240 1.425 . S
C1245 C1242 1.409 . S
C1245 C1243 1.415 . S
C1246 H1236 0.930 . S
C1246 C1244 1.419 . S
C1246 C1247 1.362 . S
C1247 H1237 0.930 . S
C1247 C1240 1.409 . S
C1247 C1246 1.362 . S
H1248 C1254 0.930 . S
H1249 C1257 0.930 . S
H1250 C1258 0.930 . S
H1251 C1259 0.930 . S
H1252 C1262 0.930 . S
H1253 C1263 0.930 . S
C1254 H1248 0.930 . S
C1254 C1255 1.355 . S
C1254 C1256 1.415 . S
C1255 C1254 1.355 . S
C1255 C1257 1.419 . S
C1256 C1254 1.415 . S
C1256 C1261 1.425 . S
C1256 C1263 1.409 . S
C1257 H1249 0.930 . S
C1257 C1255 1.419 . S
C1257 C1258 1.362 . S
C1258 H1250 0.930 . S
C1258 C1257 1.362 . S
C1258 C1261 1.409 . S
C1259 H1251 0.930 . S
C1259 C1260 1.355 . S
C1259 C1261 1.415 . S
C1260 C1259 1.355 . S
C1260 C1262 1.419 . S
C1261 C1256 1.425 . S
C1261 C1258 1.409 . S
C1261 C1259 1.415 . S
C1262 H1252 0.930 . S
C1262 C1260 1.419 . S
C1262 C1263 1.362 . S
C1263 H1253 0.930 . S
C1263 C1256 1.409 . S
C1263 C1262 1.362 . S
H1264 C1270 0.930 . S
H1265 C1273 0.930 . S
H1266 C1274 0.930 . S
H1267 C1275 0.930 . S
H1268 C1278 0.930 . S
H1269 C1279 0.930 . S
C1270 H1264 0.930 . S
C1270 C1271 1.355 . S
C1270 C1272 1.415 . S
C1271 C1270 1.355 . S
C1271 C1273 1.419 . S
C1272 C1270 1.415 . S
C1272 C1277 1.425 . S
C1272 C1279 1.409 . S
C1273 H1265 0.930 . S
C1273 C1271 1.419 . S
C1273 C1274 1.362 . S
C1274 H1266 0.930 . S
C1274 C1273 1.362 . S
C1274 C1277 1.409 . S
C1275 H1267 0.930 . S
C1275 C1276 1.355 . S
C1275 C1277 1.415 . S
C1276 C1275 1.355 . S
C1276 C1278 1.419 . S
C1277 C1272 1.425 . S
C1277 C1274 1.409 . S
C1277 C1275 1.415 . S
C1278 H1268 0.930 . S
C1278 C1276 1.419 . S
C1278 C1279 1.362 . S
C1279 H1269 0.930 . S
C1279 C1272 1.409 . S
C1279 C1278 1.362 . S
H1280 C1286 0.930 . S
H1281 C1289 0.930 . S
H1282 C1290 0.930 . S
H1283 C1291 0.930 . S
H1284 C1294 0.930 . S
H1285 C1295 0.930 . S
C1286 H1280 0.930 . S
C1286 C1287 1.355 . S
C1286 C1288 1.415 . S
C1287 C1286 1.355 . S
C1287 C1289 1.419 . S
C1288 C1286 1.415 . S
C1288 C1293 1.425 . S
C1288 C1295 1.409 . S
C1289 H1281 0.930 . S
C1289 C1287 1.419 . S
C1289 C1290 1.362 . S
C1290 H1282 0.930 . S
C1290 C1289 1.362 . S
C1290 C1293 1.409 . S
C1291 H1283 0.930 . S
C1291 C1292 1.355 . S
C1291 C1293 1.415 . S
C1292 C1291 1.355 . S
C1292 C1294 1.419 . S
C1293 C1288 1.425 . S
C1293 C1290 1.409 . S
C1293 C1291 1.415 . S
C1294 H1284 0.930 . S
C1294 C1292 1.419 . S
C1294 C1295 1.362 . S
C1295 H1285 0.930 . S
C1295 C1288 1.409 . S
C1295 C1294 1.362 . S
H1296 C1302 0.930 . S
H1297 C1305 0.930 . S
H1298 C1306 0.930 . S
H1299 C1307 0.930 . S
H1300 C1310 0.930 . S
H1301 C1311 0.930 . S
C1302 H1296 0.930 . S
C1302 C1303 1.355 . S
C1302 C1304 1.415 . S
C1303 C1302 1.355 . S
C1303 C1305 1.419 . S
C1304 C1302 1.415 . S
C1304 C1309 1.425 . S
C1304 C1311 1.409 . S
C1305 H1297 0.930 . S
C1305 C1303 1.419 . S
C1305 C1306 1.362 . S
C1306 H1298 0.930 . S
C1306 C1305 1.362 . S
C1306 C1309 1.409 . S
C1307 H1299 0.930 . S
C1307 C1308 1.355 . S
C1307 C1309 1.415 . S
C1308 C1307 1.355 . S
C1308 C1310 1.419 . S
C1309 C1304 1.425 . S
C1309 C1306 1.409 . S
C1309 C1307 1.415 . S
C1310 H1300 0.930 . S
C1310 C1308 1.419 . S
C1310 C1311 1.362 . S
C1311 H1301 0.930 . S
C1311 C1304 1.409 . S
C1311 C1310 1.362 . S
H1312 C1318 0.930 . S
H1313 C1321 0.930 . S
H1314 C1322 0.930 . S
H1315 C1323 0.930 . S
H1316 C1326 0.930 . S
H1317 C1327 0.930 . S
C1318 H1312 0.930 . S
C1318 C1319 1.355 . S
C1318 C1320 1.415 . S
C1319 C1318 1.355 . S
C1319 C1321 1.419 . S
C1320 C1318 1.415 . S
C1320 C1325 1.425 . S
C1320 C1327 1.409 . S
C1321 H1313 0.930 . S
C1321 C1319 1.419 . S
C1321 C1322 1.362 . S
C1322 H1314 0.930 . S
C1322 C1321 1.362 . S
C1322 C1325 1.409 . S
C1323 H1315 0.930 . S
C1323 C1324 1.355 . S
C1323 C1325 1.415 . S
C1324 C1323 1.355 . S
C1324 C1326 1.419 . S
C1325 C1320 1.425 . S
C1325 C1322 1.409 . S
C1325 C1323 1.415 . S
C1326 H1316 0.930 . S
C1326 C1324 1.419 . S
C1326 C1327 1.362 . S
C1327 H1317 0.930 . S
C1327 C1320 1.409 . S
C1327 C1326 1.362 . S
H1328 C1334 0.930 . S
H1329 C1337 0.930 . S
H1330 C1338 0.930 . S
H1331 C1339 0.930 . S
H1332 C1342 0.930 . S
H1333 C1343 0.930 . S
C1334 H1328 0.930 . S
C1334 C1335 1.355 . S
C1334 C1336 1.415 . S
C1335 C1334 1.355 . S
C1335 C1337 1.419 . S
C1336 C1334 1.415 . S
C1336 C1341 1.425 . S
C1336 C1343 1.409 . S
C1337 H1329 0.930 . S
C1337 C1335 1.419 . S
C1337 C1338 1.362 . S
C1338 H1330 0.930 . S
C1338 C1337 1.362 . S
C1338 C1341 1.409 . S
C1339 H1331 0.930 . S
C1339 C1340 1.355 . S
C1339 C1341 1.415 . S
C1340 C1339 1.355 . S
C1340 C1342 1.419 . S
C1341 C1336 1.425 . S
C1341 C1338 1.409 . S
C1341 C1339 1.415 . S
C1342 H1332 0.930 . S
C1342 C1340 1.419 . S
C1342 C1343 1.362 . S
C1343 H1333 0.930 . S
C1343 C1336 1.409 . S
C1343 C1342 1.362 . S
H1344 C1350 0.930 . S
H1345 C1353 0.930 . S
H1346 C1354 0.930 . S
H1347 C1355 0.930 . S
H1348 C1358 0.930 . S
H1349 C1359 0.930 . S
C1350 H1344 0.930 . S
C1350 C1351 1.355 . S
C1350 C1352 1.415 . S
C1351 C1350 1.355 . S
C1351 C1353 1.419 . S
C1352 C1350 1.415 . S
C1352 C1357 1.425 . S
C1352 C1359 1.409 . S
C1353 H1345 0.930 . S
C1353 C1351 1.419 . S
C1353 C1354 1.362 . S
C1354 H1346 0.930 . S
C1354 C1353 1.362 . S
C1354 C1357 1.409 . S
C1355 H1347 0.930 . S
C1355 C1356 1.355 . S
C1355 C1357 1.415 . S
C1356 C1355 1.355 . S
C1356 C1358 1.419 . S
C1357 C1352 1.425 . S
C1357 C1354 1.409 . S
C1357 C1355 1.415 . S
C1358 H1348 0.930 . S
C1358 C1356 1.419 . S
C1358 C1359 1.362 . S
C1359 H1349 0.930 . S
C1359 C1352 1.409 . S
C1359 C1358 1.362 . S
H1360 C1366 0.930 . S
H1361 C1369 0.930 . S
H1362 C1370 0.930 . S
H1363 C1371 0.930 . S
H1364 C1374 0.930 . S
H1365 C1375 0.930 . S
C1366 H1360 0.930 . S
C1366 C1367 1.355 . S
C1366 C1368 1.415 . S
C1367 C1366 1.355 . S
C1367 C1369 1.419 . S
C1368 C1366 1.415 . S
C1368 C1373 1.425 . S
C1368 C1375 1.409 . S
C1369 H1361 0.930 . S
C1369 C1367 1.419 . S
C1369 C1370 1.362 . S
C1370 H1362 0.930 . S
C1370 C1369 1.362 . S
C1370 C1373 1.409 . S
C1371 H1363 0.930 . S
C1371 C1372 1.355 . S
C1371 C1373 1.415 . S
C1372 C1371 1.355 . S
C1372 C1374 1.419 . S
C1373 C1368 1.425 . S
C1373 C1370 1.409 . S
C1373 C1371 1.415 . S
C1374 H1364 0.930 . S
C1374 C1372 1.419 . S
C1374 C1375 1.362 . S
C1375 H1365 0.930 . S
C1375 C1368 1.409 . S
C1375 C1374 1.362 . S
H1376 C1382 0.930 . S
H1377 C1385 0.930 . S
H1378 C1386 0.930 . S
H1379 C1387 0.930 . S
H1380 C1390 0.930 . S
H1381 C1391 0.930 . S
C1382 H1376 0.930 . S
C1382 C1383 1.355 . S
C1382 C1384 1.415 . S
C1383 C1382 1.355 . S
C1383 C1385 1.419 . S
C1384 C1382 1.415 . S
C1384 C1389 1.425 . S
C1384 C1391 1.409 . S
C1385 H1377 0.930 . S
C1385 C1383 1.419 . S
C1385 C1386 1.362 . S
C1386 H1378 0.930 . S
C1386 C1385 1.362 . S
C1386 C1389 1.409 . S
C1387 H1379 0.930 . S
C1387 C1388 1.355 . S
C1387 C1389 1.415 . S
C1388 C1387 1.355 . S
C1388 C1390 1.419 . S
C1389 C1384 1.425 . S
C1389 C1386 1.409 . S
C1389 C1387 1.415 . S
C1390 H1380 0.930 . S
C1390 C1388 1.419 . S
C1390 C1391 1.362 . S
C1391 H1381 0.930 . S
C1391 C1384 1.409 . S
C1391 C1390 1.362 . S
H1392 C1398 0.930 . S
H1393 C1401 0.930 . S
H1394 C1402 0.930 . S
H1395 C1403 0.930 . S
H1396 C1406 0.930 . S
H1397 C1407 0.930 . S
C1398 H1392 0.930 . S
C1398 C1399 1.355 . S
C1398 C1400 1.415 . S
C1399 C1398 1.355 . S
C1399 C1401 1.419 . S
C1400 C1398 1.415 . S
C1400 C1405 1.425 . S
C1400 C1407 1.409 . S
C1401 H1393 0.930 . S
C1401 C1399 1.419 . S
C1401 C1402 1.362 . S
C1402 H1394 0.930 . S
C1402 C1401 1.362 . S
C1402 C1405 1.409 . S
C1403 H1395 0.930 . S
C1403 C1404 1.355 . S
C1403 C1405 1.415 . S
C1404 C1403 1.355 . S
C1404 C1406 1.419 . S
C1405 C1400 1.425 . S
C1405 C1402 1.409 . S
C1405 C1403 1.415 . S
C1406 H1396 0.930 . S
C1406 C1404 1.419 . S
C1406 C1407 1.362 . S
C1407 H1397 0.930 . S
C1407 C1400 1.409 . S
C1407 C1406 1.362 . S
H1408 C1414 0.930 . S
H1409 C1417 0.930 . S
H1410 C1418 0.930 . S
H1411 C1419 0.930 . S
H1412 C1422 0.930 . S
H1413 C1423 0.930 . S
C1414 H1408 0.930 . S
C1414 C1415 1.355 . S
C1414 C1416 1.415 . S
C1415 C1414 1.355 . S
C1415 C1417 1.419 . S
C1416 C1414 1.415 . S
C1416 C1421 1.425 . S
C1416 C1423 1.409 . S
C1417 H1409 0.930 . S
C1417 C1415 1.419 . S
C1417 C1418 1.362 . S
C1418 H1410 0.930 . S
C1418 C1417 1.362 . S
C1418 C1421 1.409 . S
C1419 H1411 0.930 . S
C1419 C1420 1.355 . S
C1419 C1421 1.415 . S
C1420 C1419 1.355 . S
C1420 C1422 1.419 . S
C1421 C1416 1.425 . S
C1421 C1418 1.409 . S
C1421 C1419 1.415 . S
C1422 H1412 0.930 . S
C1422 C1420 1.419 . S
C1422 C1423 1.362 . S
C1423 H1413 0.930 . S
C1423 C1416 1.409 . S
C1423 C1422 1.362 . S
H1424 C1430 0.930 . S
H1425 C1433 0.930 . S
H1426 C1434 0.930 . S
H1427 C1435 0.930 . S
H1428 C1438 0.930 . S
H1429 C1439 0.930 . S
C1430 H1424 0.930 . S
C1430 C1431 1.355 . S
C1430 C1432 1.415 . S
C1431 C1430 1.355 . S
C1431 C1433 1.419 . S
C1432 C1430 1.415 . S
C1432 C1437 1.425 . S
C1432 C1439 1.409 . S
C1433 H1425 0.930 . S
C1433 C1431 1.419 . S
C1433 C1434 1.362 . S
C1434 H1426 0.930 . S
C1434 C1433 1.362 . S
C1434 C1437 1.409 . S
C1435 H1427 0.930 . S
C1435 C1436 1.355 . S
C1435 C1437 1.415 . S
C1436 C1435 1.355 . S
C1436 C1438 1.419 . S
C1437 C1432 1.425 . S
C1437 C1434 1.409 . S
C1437 C1435 1.415 . S
C1438 H1428 0.930 . S
C1438 C1436 1.419 . S
C1438 C1439 1.362 . S
C1439 H1429 0.930 . S
C1439 C1432 1.409 . S
C1439 C1438 1.362 . S
C423 C10 1.479 . S
C428 C56 1.466 . S
C439 C23 1.472 . S
C444 C75 1.494 . S
C455 C82 1.506 . S
C460 C30 1.482 . S
C471 C101 1.473 . S
C476 C49 1.467 . S
C487 C108 1.510 . S
C492 C166 1.520 . S
C503 C121 1.520 . S
C508 C173 1.506 . S
C519 C186 1.518 . S
C524 C140 1.500 . S
C535 C147 1.518 . S
C540 C205 1.516 . S
C551 C264 1.469 . S
C556 C212 1.489 . S
C567 C283 1.519 . S
C572 C231 1.504 . S
C583 C238 1.519 . S
C588 C290 1.502 . S
C599 C309 1.483 . S
C604 C251 1.467 . S
C615 C322 1.520 . S
C620 C374 1.508 . S
C631 C381 1.498 . S
C636 C335 1.475 . S
C647 C400 1.467 . S
C652 C348 1.474 . S
C663 C355 1.517 . S
C668 C407 1.517 . S
C679 C3 1.642 . S
C684 C361 1.654 . S
C695 C114 1.641 . S
C700 C16 1.665 . S
C711 C31 1.658 . S
C716 C329 1.669 . S
C727 C42 1.643 . S
C732 C134 1.660 . S
C743 C387 1.642 . S
C748 C57 1.646 . S
C759 C192 1.650 . S
C764 C68 1.642 . S
C775 C83 1.650 . S
C780 C413 1.639 . S
C791 C94 1.668 . S
C796 C160 1.645 . S
C807 C257 1.638 . S
C812 C109 1.660 . S
C823 C122 1.661 . S
C828 C4 1.639 . S
C839 C225 1.660 . S
C844 C133 1.643 . S
C855 C148 1.663 . S
C860 C36 1.640 . S
C871 C277 1.641 . S
C876 C159 1.647 . S
C887 C174 1.670 . S
C892 C88 1.650 . S
C903 C303 1.638 . S
C908 C187 1.654 . S
C919 C198 1.643 . S
C924 C62 1.648 . S
C935 C153 1.664 . S
C940 C213 1.646 . S
C951 C316 1.657 . S
C956 C224 1.642 . S
C967 C127 1.649 . S
C972 C239 1.642 . S
C983 C252 1.670 . S
C988 C342 1.654 . S
C999 C179 1.638 . S
C1004 C265 1.656 . S
C1015 C394 1.665 . S
C1020 C276 1.665 . S
C1031 C199 1.642 . S
C1036 C291 1.665 . S
C1047 C302 1.654 . S
C1052 C368 1.638 . S
C1063 C315 1.658 . S
C1068 C43 1.638 . S
C1079 C328 1.665 . S
C1084 C218 1.641 . S
C1095 C341 1.656 . S
C1100 C17 1.669 . S
C1111 C356 1.646 . S
C1116 C244 1.664 . S
C1127 C367 1.642 . S
C1132 C69 1.652 . S
C1143 C296 1.650 . S
C1148 C382 1.642 . S
C1159 C95 1.666 . S
C1164 C393 1.648 . S
C1175 C408 1.645 . S
C1180 C270 1.663 . S
C1191 C5 1.202 . S
C1196 C96 1.139 . S
C1207 C18 1.181 . S
C1212 C55 1.142 1_556 S
C1223 C29 1.202 1_554 S
C1228 C70 1.138 . S
C1239 C81 1.199 . S
C1244 C44 1.136 . S
C1255 C200 1.141 . S
C1260 C107 1.203 . S
C1271 C161 1.136 1_554 S
C1276 C120 1.196 . S
C1287 C172 1.195 . S
C1292 C135 1.162 1_556 S
C1303 C185 1.156 . S
C1308 C146 1.163 . S
C1319 C211 1.197 1_554 S
C1324 C304 1.135 . S
C1335 C263 1.181 . S
C1340 C226 1.179 . S
C1351 C278 1.173 . S
C1356 C237 1.148 . S
C1367 C289 1.185 1_556 S
C1372 C250 1.175 . S
C1383 C406 1.195 . S
C1388 C317 1.161 1_556 S
C1399 C330 1.145 . S
C1404 C369 1.203 . S
C1415 C343 1.168 . S
C1420 C380 1.190 . S
C1431 C354 1.203 . S
C1436 C395 1.141 1_554 S
