# Generated by pormake.
# Topology pcb, (4)-cn, num edge types: 1
# Building blocks:
#     Node 0, Type 0, BuildingBlock: AZAVOO_clean_sbu_0, # of connection points: 4
#     Node 1, Type 0, BuildingBlock: AZAVOO_clean_sbu_0, # of connection points: 4
#     Node 2, Type 0, BuildingBlock: AZAVOO_clean_sbu_0, # of connection points: 4
#     Node 3, Type 0, BuildingBlock: AZAVOO_clean_sbu_0, # of connection points: 4
#     Node 4, Type 0, BuildingBlock: AZAVOO_clean_sbu_0, # of connection points: 4
#     Node 5, Type 0, BuildingBlock: AZAVOO_clean_sbu_0, # of connection points: 4
#     Node 6, Type 0, BuildingBlock: AZAVOO_clean_sbu_0, # of connection points: 4
#     Node 7, Type 0, BuildingBlock: AZAVOO_clean_sbu_0, # of connection points: 4
#     Node 8, Type 0, BuildingBlock: AZAVOO_clean_sbu_0, # of connection points: 4
#     Node 9, Type 0, BuildingBlock: AZAVOO_clean_sbu_0, # of connection points: 4
#     Node 10, Type 0, BuildingBlock: AZAVOO_clean_sbu_0, # of connection points: 4
#     Node 11, Type 0, BuildingBlock: AZAVOO_clean_sbu_0, # of connection points: 4
#     Node 12, Type 0, BuildingBlock: AZAVOO_clean_sbu_0, # of connection points: 4
#     Node 13, Type 0, BuildingBlock: AZAVOO_clean_sbu_0, # of connection points: 4
#     Node 14, Type 0, BuildingBlock: AZAVOO_clean_sbu_0, # of connection points: 4
#     Node 15, Type 0, BuildingBlock: AZAVOO_clean_sbu_0, # of connection points: 4
#     Edge 16, Type (0, 0), BuildingBlock: OJICUG_clean_linker_0, # of connection points: 2
#     Edge 17, Type (0, 0), BuildingBlock: OJICUG_clean_linker_0, # of connection points: 2
#     Edge 18, Type (0, 0), BuildingBlock: OJICUG_clean_linker_0, # of connection points: 2
#     Edge 19, Type (0, 0), BuildingBlock: OJICUG_clean_linker_0, # of connection points: 2
#     Edge 20, Type (0, 0), BuildingBlock: OJICUG_clean_linker_0, # of connection points: 2
#     Edge 21, Type (0, 0), BuildingBlock: OJICUG_clean_linker_0, # of connection points: 2
#     Edge 22, Type (0, 0), BuildingBlock: OJICUG_clean_linker_0, # of connection points: 2
#     Edge 23, Type (0, 0), BuildingBlock: OJICUG_clean_linker_0, # of connection points: 2
#     Edge 24, Type (0, 0), BuildingBlock: OJICUG_clean_linker_0, # of connection points: 2
#     Edge 25, Type (0, 0), BuildingBlock: OJICUG_clean_linker_0, # of connection points: 2
#     Edge 26, Type (0, 0), BuildingBlock: OJICUG_clean_linker_0, # of connection points: 2
#     Edge 27, Type (0, 0), BuildingBlock: OJICUG_clean_linker_0, # of connection points: 2
#     Edge 28, Type (0, 0), BuildingBlock: OJICUG_clean_linker_0, # of connection points: 2
#     Edge 29, Type (0, 0), BuildingBlock: OJICUG_clean_linker_0, # of connection points: 2
#     Edge 30, Type (0, 0), BuildingBlock: OJICUG_clean_linker_0, # of connection points: 2
#     Edge 31, Type (0, 0), BuildingBlock: OJICUG_clean_linker_0, # of connection points: 2
#     Edge 32, Type (0, 0), BuildingBlock: OJICUG_clean_linker_0, # of connection points: 2
#     Edge 33, Type (0, 0), BuildingBlock: OJICUG_clean_linker_0, # of connection points: 2
#     Edge 34, Type (0, 0), BuildingBlock: OJICUG_clean_linker_0, # of connection points: 2
#     Edge 35, Type (0, 0), BuildingBlock: OJICUG_clean_linker_0, # of connection points: 2
#     Edge 36, Type (0, 0), BuildingBlock: OJICUG_clean_linker_0, # of connection points: 2
#     Edge 37, Type (0, 0), BuildingBlock: OJICUG_clean_linker_0, # of connection points: 2
#     Edge 38, Type (0, 0), BuildingBlock: OJICUG_clean_linker_0, # of connection points: 2
#     Edge 39, Type (0, 0), BuildingBlock: OJICUG_clean_linker_0, # of connection points: 2
#     Edge 40, Type (0, 0), BuildingBlock: OJICUG_clean_linker_0, # of connection points: 2
#     Edge 41, Type (0, 0), BuildingBlock: OJICUG_clean_linker_0, # of connection points: 2
#     Edge 42, Type (0, 0), BuildingBlock: OJICUG_clean_linker_0, # of connection points: 2
#     Edge 43, Type (0, 0), BuildingBlock: OJICUG_clean_linker_0, # of connection points: 2
#     Edge 44, Type (0, 0), BuildingBlock: OJICUG_clean_linker_0, # of connection points: 2
#     Edge 45, Type (0, 0), BuildingBlock: OJICUG_clean_linker_0, # of connection points: 2
#     Edge 46, Type (0, 0), BuildingBlock: OJICUG_clean_linker_0, # of connection points: 2
#     Edge 47, Type (0, 0), BuildingBlock: OJICUG_clean_linker_0, # of connection points: 2
# Relax obj value: 0.186
# Max RMSD: 0.084
# Mean RMSD: 0.079
data_MOF--net-pcb--node1-AZAVOO_clean_sbu_0--edge1-OJICUG_clean_linker_0
_symmetry_space_group_name_H-M    P1
_symmetry_Int_Tables_number       1
_symmetry_cell_setting            triclinic
loop_
_symmetry_equiv_pos_as_xyz
'x, y, z'
_cell_length_a     35.329125
_cell_length_b     35.400267
_cell_length_c     36.522407
_cell_angle_alpha  90.470998
_cell_angle_beta   90.947771
_cell_angle_gamma 89.05927
loop_
_atom_site_label
_atom_site_type_symbol
_atom_site_fract_x
_atom_site_fract_y
_atom_site_fract_z
_atom_type_partial_charge
Mg0 Mg 0.16471 0.12635 0.11236 0.0
O1 O 0.10328 0.14939 0.10499 0.0
O2 O 0.07581 0.11476 0.06092 0.0
Mg3 Mg 0.1167 0.06848 0.04259 0.0
C4 C 0.07486 0.14178 0.08422 0.0
C5 C 0.2039 0.18397 0.15894 0.0
O6 O 0.22486 0.17893 0.12988 0.0
O7 O 0.14343 0.07655 0.14581 0.0
O8 O 0.11587 0.04375 0.10025 0.0
O9 O 0.18447 0.1616 0.06614 0.0
O10 O 0.16434 0.10323 0.05985 0.0
C11 C 0.1251 0.04793 0.13401 0.0
C12 C 0.17669 0.13325 0.04494 0.0
O13 O 0.17414 0.16454 0.16189 0.0
Mg14 Mg 0.85768 0.15721 0.13571 0.0
O15 O 0.84579 0.14381 0.07285 0.0
O16 O 0.89071 0.10001 0.06098 0.0
Mg17 Mg 0.93182 0.08892 0.10884 0.0
C18 C 0.86199 0.1201 0.05098 0.0
C19 C 0.80627 0.21285 0.17399 0.0
O20 O 0.84075 0.21751 0.18713 0.0
O21 O 0.83354 0.09877 0.1507 0.0
O22 O 0.88366 0.06125 0.13894 0.0
O23 O 0.89917 0.20338 0.12137 0.0
O24 O 0.91396 0.14336 0.12938 0.0
C25 C 0.85048 0.06646 0.15153 0.0
C26 C 0.92437 0.17648 0.12083 0.0
O27 O 0.80154 0.18892 0.14797 0.0
Mg28 Mg 0.80209 0.82974 0.12013 0.0
O29 O 0.86885 0.82782 0.11847 0.0
O30 O 0.88052 0.86548 0.0711 0.0
Mg31 Mg 0.8273 0.89148 0.04445 0.0
C32 C 0.89203 0.84358 0.0968 0.0
C33 C 0.7677 0.77312 0.16638 0.0
O34 O 0.75102 0.77403 0.134 0.0
O35 O 0.80371 0.88892 0.14788 0.0
O36 O 0.81455 0.92293 0.09767 0.0
O37 O 0.79895 0.78318 0.07779 0.0
O38 O 0.79771 0.84383 0.06526 0.0
C39 C 0.80713 0.92064 0.13166 0.0
C40 C 0.7976 0.80961 0.05366 0.0
O41 O 0.79509 0.79557 0.17271 0.0
Mg42 Mg 0.14413 0.83228 0.14012 0.0
O43 O 0.07798 0.82783 0.13066 0.0
O44 O 0.06566 0.87642 0.0929 0.0
Mg45 Mg 0.1168 0.91325 0.08238 0.0
C46 C 0.05494 0.84765 0.11072 0.0
C47 C 0.17833 0.77803 0.19424 0.0
O48 O 0.19147 0.81192 0.20107 0.0
O49 O 0.15438 0.8108 0.0799 0.0
O50 O 0.14298 0.86477 0.0496 0.0
O51 O 0.1353 0.87167 0.18925 0.0
O52 O 0.14033 0.88963 0.13202 0.0
C53 C 0.15427 0.83036 0.05037 0.0
C54 C 0.13436 0.89847 0.16547 0.0
O55 O 0.15429 0.77429 0.16793 0.0
Mg56 Mg 0.12845 0.80904 0.8118 0.0
O57 O 0.12884 0.87576 0.81591 0.0
O58 O 0.07885 0.88773 0.85148 0.0
Mg59 Mg 0.04778 0.83536 0.86989 0.0
C60 C 0.10646 0.89905 0.83243 0.0
C61 C 0.18138 0.77627 0.75655 0.0
O62 O 0.14798 0.76097 0.75205 0.0
O63 O 0.15329 0.80426 0.87175 0.0
O64 O 0.09984 0.8158 0.90249 0.0
O65 O 0.0863 0.81218 0.76374 0.0
O66 O 0.07101 0.80912 0.82177 0.0
C67 C 0.13476 0.80614 0.90173 0.0
C68 C 0.06046 0.81266 0.78829 0.0
O69 O 0.18538 0.80119 0.78184 0.0
Mg70 Mg 0.13834 0.15152 0.82601 0.0
O71 O 0.13561 0.0849 0.82291 0.0
O72 O 0.09719 0.07258 0.86959 0.0
Mg73 Mg 0.08058 0.12432 0.90383 0.0
C74 C 0.11691 0.06168 0.84228 0.0
C75 C 0.19131 0.18814 0.7775 0.0
O76 O 0.1939 0.20227 0.81079 0.0
O77 O 0.07658 0.15531 0.80307 0.0
O78 O 0.04527 0.14465 0.85485 0.0
O79 O 0.18894 0.14907 0.86461 0.0
O80 O 0.12923 0.15037 0.88125 0.0
C81 C 0.04579 0.15382 0.82113 0.0
C82 C 0.16432 0.14824 0.89027 0.0
O83 O 0.16763 0.1618 0.77138 0.0
Mg84 Mg 0.80678 0.10275 0.80915 0.0
O85 O 0.81576 0.11059 0.87334 0.0
O86 O 0.85722 0.06374 0.8863 0.0
Mg87 Mg 0.87532 0.02859 0.83667 0.0
C88 C 0.83621 0.09157 0.8964 0.0
C89 C 0.74919 0.15297 0.77186 0.0
O90 O 0.7459 0.1187 0.7582 0.0
O91 O 0.86508 0.12987 0.79932 0.0
O92 O 0.90306 0.08024 0.81221 0.0
O93 O 0.76111 0.05928 0.81829 0.0
O94 O 0.82187 0.04618 0.81284 0.0
C95 C 0.89787 0.11387 0.80059 0.0
C96 C 0.78849 0.03463 0.81898 0.0
O97 O 0.77311 0.15806 0.79802 0.0
Mg98 Mg 0.8249 0.79037 0.83363 0.0
O99 O 0.80783 0.85384 0.83636 0.0
O100 O 0.84044 0.87906 0.88325 0.0
Mg101 Mg 0.88119 0.83481 0.90666 0.0
C102 C 0.816 0.88184 0.85725 0.0
C103 C 0.77098 0.75244 0.78368 0.0
O104 O 0.77379 0.73245 0.81378 0.0
O105 O 0.87948 0.8049 0.80422 0.0
O106 O 0.9107 0.83195 0.85119 0.0
O107 O 0.78276 0.77788 0.87647 0.0
O108 O 0.84291 0.7909 0.88788 0.0
C109 C 0.90846 0.82157 0.81762 0.0
C110 C 0.80989 0.78372 0.89986 0.0
O111 O 0.79085 0.7819 0.78115 0.0
Mg112 Mg 0.66455 0.62505 0.6108 0.0
O113 O 0.60357 0.64968 0.60641 0.0
O114 O 0.57426 0.61895 0.56066 0.0
Mg115 Mg 0.61383 0.57335 0.53836 0.0
C116 C 0.5745 0.64416 0.58583 0.0
C117 C 0.6862 0.6917 0.66161 0.0
O118 O 0.68663 0.70823 0.62957 0.0
O119 O 0.64263 0.57358 0.64089 0.0
O120 O 0.6132 0.54424 0.59421 0.0
O121 O 0.68432 0.6633 0.56677 0.0
O122 O 0.66234 0.60604 0.55712 0.0
C123 C 0.62334 0.54616 0.62794 0.0
C124 C 0.67494 0.6368 0.54395 0.0
O125 O 0.67566 0.6576 0.66345 0.0
Mg126 Mg 0.35783 0.65503 0.63778 0.0
O127 O 0.3497 0.64416 0.57382 0.0
O128 O 0.39844 0.60471 0.56227 0.0
Mg129 Mg 0.43484 0.5894 0.61244 0.0
C130 C 0.36954 0.62408 0.55143 0.0
C131 C 0.30592 0.71087 0.67416 0.0
O132 O 0.34045 0.71608 0.68692 0.0
O133 O 0.33351 0.59591 0.64936 0.0
O134 O 0.38457 0.55979 0.6374 0.0
O135 O 0.39904 0.70226 0.62669 0.0
O136 O 0.41497 0.64247 0.63457 0.0
C137 C 0.35078 0.56378 0.64885 0.0
C138 C 0.42493 0.67603 0.62702 0.0
O139 O 0.3012 0.68635 0.64864 0.0
Mg140 Mg 0.30074 0.32593 0.61703 0.0
O141 O 0.36742 0.3235 0.61477 0.0
O142 O 0.379 0.36007 0.56657 0.0
Mg143 Mg 0.32565 0.38586 0.53992 0.0
C144 C 0.39055 0.33864 0.59263 0.0
C145 C 0.26605 0.27112 0.66481 0.0
O146 O 0.24844 0.2725 0.63289 0.0
O147 O 0.30321 0.38569 0.64357 0.0
O148 O 0.31379 0.41864 0.59262 0.0
O149 O 0.29684 0.27853 0.57555 0.0
O150 O 0.29582 0.33896 0.56198 0.0
C151 C 0.30676 0.41706 0.62674 0.0
C152 C 0.2954 0.30454 0.55098 0.0
O153 O 0.29423 0.29279 0.67032 0.0
Mg154 Mg 0.64239 0.32925 0.63701 0.0
O155 O 0.57643 0.3238 0.62687 0.0
O156 O 0.56403 0.37117 0.58768 0.0
Mg157 Mg 0.61489 0.40824 0.57681 0.0
C158 C 0.55341 0.34281 0.60617 0.0
C159 C 0.67645 0.27683 0.69278 0.0
O160 O 0.68891 0.31106 0.69922 0.0
O161 O 0.65403 0.30621 0.57764 0.0
O162 O 0.64236 0.35925 0.54594 0.0
O163 O 0.6324 0.36987 0.68495 0.0
O164 O 0.63793 0.38619 0.62728 0.0
C165 C 0.65423 0.32508 0.54772 0.0
C166 C 0.63135 0.3959 0.66039 0.0
O167 O 0.65287 0.27219 0.66624 0.0
Mg168 Mg 0.62903 0.31454 0.31045 0.0
O169 O 0.63457 0.38059 0.31768 0.0
O170 O 0.58878 0.39449 0.3578 0.0
Mg171 Mg 0.55195 0.34428 0.37161 0.0
C172 C 0.61644 0.4043 0.33802 0.0
C173 C 0.68104 0.28068 0.25384 0.0
O174 O 0.64695 0.26763 0.24743 0.0
O175 O 0.65413 0.30502 0.36979 0.0
O176 O 0.602 0.31779 0.40223 0.0
O177 O 0.58613 0.32225 0.26334 0.0
O178 O 0.57234 0.31917 0.32174 0.0
C179 C 0.63614 0.30581 0.40012 0.0
C180 C 0.56109 0.32413 0.28868 0.0
O181 O 0.68548 0.30416 0.28031 0.0
Mg182 Mg 0.63445 0.6567 0.32492 0.0
O183 O 0.63658 0.58992 0.32608 0.0
O184 O 0.60119 0.57765 0.37487 0.0
Mg185 Mg 0.57662 0.63017 0.40295 0.0
C186 C 0.62187 0.56653 0.34833 0.0
C187 C 0.68768 0.69284 0.27704 0.0
O188 O 0.68689 0.7094 0.30933 0.0
O189 O 0.5737 0.65519 0.2997 0.0
O190 O 0.54218 0.64359 0.35112 0.0
O191 O 0.68369 0.65917 0.36487 0.0
O192 O 0.62365 0.65919 0.38034 0.0
C193 C 0.54276 0.65142 0.31708 0.0
C194 C 0.65861 0.65885 0.39009 0.0
O195 O 0.66582 0.66494 0.27106 0.0
Mg196 Mg 0.30421 0.60036 0.31154 0.0
O197 O 0.3166 0.61146 0.3748 0.0
O198 O 0.36052 0.56667 0.38732 0.0
Mg199 Mg 0.37241 0.52616 0.33963 0.0
C200 C 0.3402 0.59516 0.39704 0.0
C201 C 0.24813 0.65189 0.27265 0.0
O202 O 0.24366 0.61766 0.25924 0.0
O203 O 0.36301 0.62493 0.29826 0.0
O204 O 0.40056 0.57475 0.31042 0.0
O205 O 0.25782 0.55844 0.32403 0.0
O206 O 0.31818 0.54405 0.31777 0.0
C207 C 0.39544 0.6081 0.29803 0.0
C208 C 0.28478 0.53331 0.32493 0.0
O209 O 0.27212 0.65635 0.29888 0.0
Mg210 Mg 0.32701 0.29062 0.33217 0.0
O211 O 0.30652 0.35306 0.33793 0.0
O212 O 0.33729 0.37712 0.38655 0.0
Mg213 Mg 0.37931 0.3335 0.40891 0.0
C214 C 0.31318 0.38029 0.3603 0.0
C215 C 0.26114 0.27532 0.27778 0.0
O216 O 0.24297 0.27695 0.30884 0.0
O217 O 0.3814 0.31006 0.30527 0.0
O218 O 0.41041 0.33556 0.3543 0.0
O219 O 0.28477 0.27279 0.37319 0.0
O220 O 0.34355 0.28902 0.38684 0.0
C221 C 0.4093 0.32723 0.32016 0.0
C222 C 0.31079 0.27922 0.3976 0.0
O223 O 0.29609 0.28337 0.27762 0.0
C224 C 0.26366 0.25313 0.21277 0.0
C225 C 0.24359 0.25677 0.24549 0.0
H226 H 0.2668 0.22736 0.15986 0.0
C227 C 0.20856 0.23876 0.24838 0.0
H228 H 0.29062 0.26677 0.20959 0.0
C229 C 0.19497 0.21581 0.21989 0.0
C230 C 0.21609 0.21063 0.18796 0.0
H231 H 0.19235 0.24104 0.27323 0.0
H232 H 0.16853 0.2013 0.22335 0.0
C233 C 0.25003 0.23035 0.18431 0.0
C234 C 0.75077 0.27531 0.24021 0.0
C235 C 0.71319 0.266 0.23163 0.0
H236 H 0.80942 0.26613 0.22865 0.0
C237 C 0.70636 0.24078 0.20221 0.0
H238 H 0.75711 0.29462 0.26256 0.0
C239 C 0.73633 0.22439 0.18265 0.0
C240 C 0.77397 0.23273 0.19202 0.0
H241 H 0.67774 0.23302 0.19462 0.0
H242 H 0.72999 0.20448 0.16081 0.0
C243 C 0.78076 0.25887 0.22068 0.0
C244 C 0.75955 0.75497 0.2321 0.0
C245 C 0.75168 0.74873 0.19485 0.0
H246 H 0.7455 0.74195 0.28721 0.0
C247 C 0.72533 0.72082 0.18475 0.0
H248 H 0.7797 0.77612 0.24076 0.0
C249 C 0.70573 0.70106 0.21132 0.0
C250 C 0.71187 0.70904 0.24854 0.0
H251 H 0.71888 0.71502 0.15617 0.0
H252 H 0.68464 0.68084 0.20266 0.0
C253 C 0.73974 0.73544 0.25865 0.0
C254 C 0.20167 0.67786 0.22588 0.0
C255 C 0.22781 0.68429 0.25484 0.0
H256 H 0.1654 0.70205 0.18414 0.0
C257 C 0.23565 0.72174 0.26483 0.0
H258 H 0.19479 0.64936 0.21744 0.0
C259 C 0.21876 0.7519 0.24564 0.0
C260 C 0.19351 0.74549 0.21596 0.0
H261 H 0.25553 0.7278 0.28691 0.0
H262 H 0.22613 0.78037 0.25376 0.0
C263 C 0.1847 0.70807 0.20672 0.0
C264 C 0.23605 0.72075 0.68445 0.0
C265 C 0.27363 0.73047 0.69246 0.0
H266 H 0.17775 0.72764 0.6982 0.0
C267 C 0.2805 0.75748 0.72035 0.0
H268 H 0.22967 0.70014 0.66325 0.0
C269 C 0.25068 0.77335 0.74056 0.0
C270 C 0.21324 0.76251 0.73346 0.0
H271 H 0.30912 0.76582 0.72725 0.0
H272 H 0.25709 0.79329 0.76234 0.0
C273 C 0.20628 0.73652 0.7047 0.0
C274 C 0.24259 0.23104 0.75753 0.0
C275 C 0.21369 0.20546 0.7482 0.0
H276 H 0.28217 0.27162 0.73865 0.0
C277 C 0.20491 0.1992 0.71113 0.0
H278 H 0.25034 0.23629 0.78591 0.0
C279 C 0.22314 0.21962 0.68412 0.0
C280 C 0.25074 0.24655 0.69355 0.0
H281 H 0.18295 0.17968 0.70303 0.0
H282 H 0.21479 0.21498 0.65579 0.0
C283 C 0.26101 0.25127 0.73049 0.0
C284 C 0.73477 0.22246 0.76398 0.0
C285 C 0.72786 0.18477 0.75417 0.0
H286 H 0.72389 0.2808 0.75251 0.0
C287 C 0.70182 0.17753 0.72532 0.0
H288 H 0.75455 0.22911 0.78598 0.0
C289 C 0.68415 0.2072 0.70598 0.0
C290 C 0.69213 0.24488 0.71494 0.0
H291 H 0.69563 0.14882 0.71703 0.0
H292 H 0.66503 0.20058 0.68343 0.0
C293 C 0.71717 0.2521 0.74461 0.0
C294 C 0.74458 0.75861 0.71977 0.0
C295 C 0.74632 0.73943 0.75326 0.0
H296 H 0.72365 0.75876 0.66445 0.0
C297 C 0.72511 0.70651 0.7573 0.0
H298 H 0.76038 0.78421 0.71595 0.0
C299 C 0.70409 0.69199 0.72796 0.0
C300 C 0.70375 0.71011 0.69393 0.0
H301 H 0.72547 0.69127 0.7829 0.0
H302 H 0.68906 0.66591 0.73169 0.0
C303 C 0.72341 0.74409 0.69035 0.0
C304 C 0.18616 0.17345 0.95007 0.0
C305 C 0.17505 0.14259 0.92845 0.0
H306 H 0.19517 0.19481 0.0045 0.0
C307 C 0.16755 0.10801 0.94479 0.0
H308 H 0.19142 0.20053 0.93766 0.0
C309 C 0.16985 0.10458 -0.0173 0.0
C310 C 0.17864 0.13604 0.00482 0.0
H311 H 0.15853 0.08408 0.92831 0.0
H312 H 0.16355 0.07756 -0.0054 0.0
C313 C 0.18793 0.17023 -0.01185 0.0
C314 C 0.83028 0.13651 0.95138 0.0
C315 C 0.83583 0.09993 0.9366 0.0
H316 H 0.83397 0.17206 -0.00026 0.0
C317 C 0.84472 0.07029 0.96083 0.0
H318 H 0.82336 0.15997 0.93351 0.0
C319 C 0.85065 0.0771 -0.00191 0.0
C320 C 0.8478 0.1138 0.01276 0.0
H321 H 0.84843 0.0416 0.95078 0.0
H322 H 0.85895 0.05353 0.01537 0.0
C323 C 0.83625 0.14341 -0.01072 0.0
C324 C 0.8132 0.75974 0.96329 0.0
C325 C 0.80247 0.78828 0.9387 0.0
H326 H 0.81952 0.74395 0.01963 0.0
C327 C 0.78875 0.82303 0.95174 0.0
H328 H 0.82433 0.73292 0.95336 0.0
C329 C 0.78669 0.82963 -0.01071 0.0
C330 C 0.79807 0.80141 0.0142 0.0
H331 H 0.78088 0.84545 0.93293 0.0
H332 H 0.77658 0.85699 -0.0012 0.0
C333 C 0.81059 0.76611 0.00096 0.0
C334 C 0.18329 0.83397 -0.01113 0.0
C335 C 0.16252 0.81314 0.01418 0.0
H336 H 0.19197 0.84684 0.93228 0.0
C337 C 0.14085 0.78287 0.0012 0.0
H338 H 0.19992 0.85776 -0.00184 0.0
C339 C 0.13597 0.77698 0.96338 0.0
C340 C 0.15324 0.80076 0.93801 0.0
H341 H 0.12404 0.76682 0.01991 0.0
H342 H 0.11552 0.75642 0.95399 0.0
C343 C 0.17892 0.82764 0.95108 0.0
C344 C 0.00857 0.15727 0.06377 0.0
C345 C 0.03797 0.16137 0.08993 0.0
H346 H 0.94878 0.16022 0.05313 0.0
C347 C 0.02984 0.17918 0.12354 0.0
H348 H 0.01388 0.14402 0.03747 0.0
C349 C -0.00761 0.18873 0.13228 0.0
C350 C 0.96281 0.18119 0.10732 0.0
H351 H 0.05179 0.18272 0.14429 0.0
H352 H -0.01378 0.19887 0.15964 0.0
C353 C 0.97132 0.16694 0.07248 0.0
C354 C 0.78432 -0.01339 0.13893 0.0
C355 C 0.80733 0.95667 0.15203 0.0
H356 H 0.77955 0.04628 0.12987 0.0
C357 C 0.83881 0.96491 0.17434 0.0
H358 H 0.76015 -0.01917 0.12121 0.0
C359 C 0.85032 0.00234 0.17868 0.0
C360 C 0.83014 0.03193 0.16124 0.0
H361 H 0.85732 0.94236 0.1842 0.0
H362 H 0.87726 0.00769 0.1922 0.0
C363 C 0.79544 0.02411 0.14385 0.0
C364 C 0.95205 0.82814 0.13401 0.0
C365 C 0.93385 0.83743 0.10054 0.0
H366 H 0.00529 0.82366 0.16378 0.0
C367 C 0.95646 0.84439 0.07007 0.0
H368 H 0.9355 0.82255 0.15801 0.0
C369 C -0.00421 0.84496 0.07335 0.0
C370 C 0.01409 0.8384 0.10715 0.0
H371 H 0.9437 0.85088 0.04363 0.0
H372 H 0.01195 0.85215 0.04948 0.0
C373 C -0.00802 0.82862 0.1373 0.0
C374 C 0.1507 0.00068 0.17843 0.0
C375 C 0.11995 0.01482 0.15752 0.0
H376 H 0.17916 0.9507 0.19834 0.0
C377 C 0.08895 -0.00863 0.15031 0.0
H378 H 0.17506 0.01811 0.1841 0.0
C379 C 0.09125 0.95304 0.15866 0.0
C380 C 0.12445 0.93776 0.17442 0.0
H381 H 0.06486 0.00167 0.13433 0.0
H382 H 0.06903 0.93465 0.14874 0.0
C383 C 0.15304 0.9621 0.18665 0.0
C384 C 0.95789 0.7931 0.77753 0.0
C385 C 0.9431 0.82484 0.79608 0.0
H386 H 0.00849 0.76448 0.7597 0.0
C387 C 0.96614 0.85631 0.80199 0.0
H388 H 0.94071 0.76837 0.77299 0.0
C389 C 0.00453 0.85424 0.79391 0.0
C390 C 0.02041 0.82064 0.78008 0.0
H391 H 0.9553 0.88113 0.81617 0.0
H392 H 0.02248 0.87743 0.80214 0.0
C393 C -0.0034 0.7909 0.76982 0.0
C394 C 0.07793 0.96369 0.83488 0.0
C395 C 0.11023 0.94083 0.82902 0.0
H396 H 0.05495 0.01917 0.84279 0.0
C397 C 0.14487 0.95866 0.82254 0.0
H398 H 0.05053 0.95126 0.83909 0.0
C399 C 0.14732 -0.0015 0.82443 0.0
C400 C 0.11515 0.02079 0.83282 0.0
H401 H 0.17025 0.94189 0.81776 0.0
H402 H 0.17456 0.01159 0.82136 0.0
C403 C 0.08038 0.00284 0.83684 0.0
C404 C 0.9792 0.17695 0.81958 0.0
C405 C 0.00842 0.15607 0.80268 0.0
H406 H 0.91983 0.18052 0.83091 0.0
C407 C -0.00109 0.12807 0.77694 0.0
H408 H -0.01406 0.19836 0.83993 0.0
C409 C 0.96115 0.11732 0.77244 0.0
C410 C 0.93243 0.13504 0.79295 0.0
H411 H 0.02088 0.11114 0.76408 0.0
H412 H 0.95494 0.09258 0.75587 0.0
C413 C 0.94133 0.16674 0.81445 0.0
C414 C 0.78578 0.92902 0.81427 0.0
C415 C 0.79968 0.91983 0.84946 0.0
H416 H 0.77073 0.97366 0.77697 0.0
C417 C 0.80235 0.94866 0.87611 0.0
H418 H 0.78348 0.90751 0.79312 0.0
C419 C 0.79455 -0.01378 0.86693 0.0
C420 C 0.78377 -0.00437 0.83105 0.0
H421 H 0.81259 0.94252 0.90358 0.0
H422 H 0.79958 0.00817 0.8872 0.0
C423 C 0.77822 0.96678 0.80505 0.0
C424 C 0.6771 0.68352 0.45135 0.0
C425 C 0.66899 0.65277 0.42832 0.0
H426 H 0.68548 0.70258 0.50671 0.0
C427 C 0.66561 0.61665 0.44292 0.0
H428 H 0.67931 0.71168 0.44026 0.0
C429 C 0.66898 0.61139 0.48053 0.0
C430 C 0.67531 0.64233 0.5041 0.0
H431 H 0.65919 0.59271 0.42535 0.0
H432 H 0.6657 0.58319 0.49115 0.0
C433 C 0.68039 0.67832 0.48917 0.0
C434 C 0.32421 0.62852 0.496 0.0
C435 C 0.36085 0.62289 0.51117 0.0
H436 H 0.28844 0.62441 0.44749 0.0
C437 C 0.39033 0.6129 0.48735 0.0
H438 H 0.30086 0.63633 0.51349 0.0
C439 C 0.38331 0.60618 0.45025 0.0
C440 C 0.34657 0.60934 0.43523 0.0
H441 H 0.41909 0.6091 0.49758 0.0
H442 H 0.40682 0.59726 0.43336 0.0
C443 C 0.31711 0.6218 0.45822 0.0
C444 C 0.3141 0.25496 0.46103 0.0
C445 C 0.30178 0.28273 0.43623 0.0
H446 H 0.32102 0.23984 0.51754 0.0
C447 C 0.28548 0.31647 0.44904 0.0
H448 H 0.32729 0.229 0.45132 0.0
C449 C 0.2827 0.32304 0.48653 0.0
C450 C 0.29584 0.29575 0.51164 0.0
H451 H 0.27641 0.33835 0.4301 0.0
H452 H 0.27089 0.34979 0.49588 0.0
C453 C 0.31066 0.26122 0.49867 0.0
C454 C 0.63621 0.27362 0.46016 0.0
C455 C 0.65487 0.2973 0.43568 0.0
H456 H 0.62264 0.26291 0.51618 0.0
C457 C 0.68195 0.32227 0.44973 0.0
H458 H 0.61472 0.25452 0.45001 0.0
C459 C 0.68607 0.32741 0.48769 0.0
C460 C 0.66359 0.30728 0.51212 0.0
H461 H 0.69613 0.34136 0.43163 0.0
H462 H 0.7036 0.3502 0.49777 0.0
C463 C 0.64076 0.27836 0.49814 0.0
C464 C 0.50869 0.66409 0.56767 0.0
C465 C 0.53816 0.66362 0.59407 0.0
H466 H 0.44894 0.66997 0.55763 0.0
C467 C 0.53045 0.67612 0.62987 0.0
H468 H 0.51376 0.65487 0.5398 0.0
C469 C 0.49321 0.68471 0.63997 0.0
C470 C 0.46346 0.68181 0.61424 0.0
H471 H 0.55248 0.67593 0.65086 0.0
H472 H 0.48727 0.69052 0.6685 0.0
C473 C 0.47163 0.67311 0.57771 0.0
C474 C 0.29633 0.52101 0.63848 0.0
C475 C 0.3307 0.52855 0.65662 0.0
H476 H 0.26109 0.47808 0.61511 0.0
C477 C 0.35061 0.49867 0.67389 0.0
H478 H 0.28069 0.54342 0.62462 0.0
C479 C 0.33893 0.46134 0.66915 0.0
C480 C 0.30761 0.45343 0.64653 0.0
H481 H 0.37729 0.50382 0.68797 0.0
H482 H 0.3571 0.43861 0.67921 0.0
C483 C 0.28509 0.4836 0.63311 0.0
C484 C 0.49426 0.33912 0.56886 0.0
C485 C 0.51261 0.33333 0.60278 0.0
H486 H 0.4421 0.3445 0.53913 0.0
C487 C 0.49052 0.32429 0.63317 0.0
H488 H 0.51039 0.34575 0.54482 0.0
C489 C 0.4506 0.32381 0.62997 0.0
C490 C 0.43235 0.33238 0.59634 0.0
H491 H 0.50386 0.31996 0.65975 0.0
H492 H 0.43409 0.31884 0.65413 0.0
C493 C 0.45492 0.33857 0.56566 0.0
C494 C 0.58718 0.48857 0.64119 0.0
C495 C 0.61762 0.51214 0.6501 0.0
H496 H 0.56729 0.43187 0.63919 0.0
C497 C 0.64704 0.49827 0.67292 0.0
H498 H 0.56399 0.49868 0.62391 0.0
C499 C 0.64883 0.45982 0.6817 0.0
C500 C 0.62102 0.43534 0.66809 0.0
H501 H 0.6709 0.51584 0.68008 0.0
H502 H 0.67412 0.44858 0.69513 0.0
C503 C 0.58891 0.45038 0.65012 0.0
C504 C 0.46691 0.3643 0.30946 0.0
C505 C 0.44398 0.33379 0.29936 0.0
H506 H 0.5231 0.38574 0.31216 0.0
C507 C 0.45861 0.30558 0.27598 0.0
H508 H 0.45619 0.38659 0.32718 0.0
C509 C 0.49715 0.30516 0.26737 0.0
C510 C 0.52098 0.33312 0.28178 0.0
H511 H 0.44151 0.28168 0.26794 0.0
H512 H 0.50901 0.2808 0.25321 0.0
C513 C 0.50513 0.36397 0.30068 0.0
C514 C 0.62425 0.46344 0.37388 0.0
C515 C 0.62661 0.44487 0.33989 0.0
H516 H 0.6219 0.51576 0.40303 0.0
C517 C 0.63273 0.46658 0.30843 0.0
H518 H 0.6199 0.44755 0.39866 0.0
C519 C 0.63358 0.50644 0.31086 0.0
C520 C 0.62831 0.52491 0.34478 0.0
H521 H 0.63435 0.45302 0.2818 0.0
H522 H 0.63608 0.52272 0.28607 0.0
C523 C 0.62522 0.5027 0.37631 0.0
C524 C 0.476 0.67341 0.31227 0.0
C525 C 0.50574 0.65117 0.29797 0.0
H526 H 0.41638 0.6777 0.32209 0.0
C527 C 0.49703 0.62051 0.27502 0.0
H528 H 0.48214 0.69688 0.33052 0.0
C529 C 0.45945 0.60907 0.27084 0.0
C530 C 0.43012 0.62857 0.28901 0.0
H531 H 0.51943 0.60255 0.26426 0.0
H532 H 0.45381 0.58273 0.2566 0.0
C533 C 0.43832 0.66243 0.30745 0.0
C534 C 0.28073 0.42796 0.31922 0.0
C535 C 0.29596 0.41822 0.35378 0.0
H536 H 0.26442 0.47317 0.28305 0.0
C537 C 0.29946 0.44666 0.38077 0.0
H538 H 0.27771 0.40681 0.29783 0.0
C539 C 0.29154 0.4844 0.37232 0.0
C540 C 0.27952 0.49436 0.33694 0.0
H541 H 0.31073 0.44016 0.40779 0.0
H542 H 0.29761 0.50607 0.39262 0.0
C543 C 0.27284 0.46587 0.3108 0.0
loop_
_geom_bond_atom_site_label_1
_geom_bond_atom_site_label_2
_geom_bond_distance
_geom_bond_site_symmetry_2
_ccdc_geom_bond_type
Mg0 O1 2.028 . S
Mg0 O7 1.986 . S
Mg0 O9 2.114 . S
Mg0 O10 2.251 . S
Mg0 O13 2.010 . S
O1 Mg0 2.028 . S
O1 C4 1.250 . S
O2 Mg3 2.028 . S
O2 C4 1.248 . S
Mg3 O2 2.028 . S
Mg3 O8 2.032 . S
Mg3 O10 2.079 . S
C4 O1 1.250 . S
C4 O2 1.248 . S
C5 O6 1.264 . S
C5 O13 1.249 . S
O6 C5 1.264 . S
O7 Mg0 1.986 . S
O7 C11 1.246 . S
O8 Mg3 2.032 . S
O8 C11 1.259 . S
O9 Mg0 2.114 . S
O9 C12 1.252 . S
O10 Mg0 2.251 . S
O10 Mg3 2.079 . S
O10 C12 1.273 . S
C11 O7 1.246 . S
C11 O8 1.259 . S
C12 O9 1.252 . S
C12 O10 1.273 . S
O13 Mg0 2.010 . S
O13 C5 1.249 . S
Mg14 O15 2.028 . S
Mg14 O21 1.986 . S
Mg14 O23 2.114 . S
Mg14 O24 2.251 . S
Mg14 O27 2.010 . S
O15 Mg14 2.028 . S
O15 C18 1.250 . S
O16 Mg17 2.028 . S
O16 C18 1.248 . S
Mg17 O16 2.028 . S
Mg17 O22 2.032 . S
Mg17 O24 2.079 . S
C18 O15 1.250 . S
C18 O16 1.248 . S
C19 O20 1.264 . S
C19 O27 1.249 . S
O20 C19 1.264 . S
O21 Mg14 1.986 . S
O21 C25 1.246 . S
O22 Mg17 2.032 . S
O22 C25 1.259 . S
O23 Mg14 2.114 . S
O23 C26 1.252 . S
O24 Mg14 2.251 . S
O24 Mg17 2.079 . S
O24 C26 1.273 . S
C25 O21 1.246 . S
C25 O22 1.259 . S
C26 O23 1.252 . S
C26 O24 1.273 . S
O27 Mg14 2.010 . S
O27 C19 1.249 . S
Mg28 O29 2.028 . S
Mg28 O35 1.986 . S
Mg28 O37 2.114 . S
Mg28 O38 2.251 . S
Mg28 O41 2.010 . S
O29 Mg28 2.028 . S
O29 C32 1.250 . S
O30 Mg31 2.028 . S
O30 C32 1.248 . S
Mg31 O30 2.028 . S
Mg31 O36 2.032 . S
Mg31 O38 2.079 . S
C32 O29 1.250 . S
C32 O30 1.248 . S
C33 O34 1.264 . S
C33 O41 1.249 . S
O34 C33 1.264 . S
O35 Mg28 1.986 . S
O35 C39 1.246 . S
O36 Mg31 2.032 . S
O36 C39 1.259 . S
O37 Mg28 2.114 . S
O37 C40 1.252 . S
O38 Mg28 2.251 . S
O38 Mg31 2.079 . S
O38 C40 1.273 . S
C39 O35 1.246 . S
C39 O36 1.259 . S
C40 O37 1.252 . S
C40 O38 1.273 . S
O41 Mg28 2.010 . S
O41 C33 1.249 . S
Mg42 O43 2.028 . S
Mg42 O49 1.986 . S
Mg42 O51 2.114 . S
Mg42 O52 2.251 . S
Mg42 O55 2.010 . S
O43 Mg42 2.028 . S
O43 C46 1.250 . S
O44 Mg45 2.028 . S
O44 C46 1.248 . S
Mg45 O44 2.028 . S
Mg45 O50 2.032 . S
Mg45 O52 2.079 . S
C46 O43 1.250 . S
C46 O44 1.248 . S
C47 O48 1.264 . S
C47 O55 1.249 . S
O48 C47 1.264 . S
O49 Mg42 1.986 . S
O49 C53 1.246 . S
O50 Mg45 2.032 . S
O50 C53 1.259 . S
O51 Mg42 2.114 . S
O51 C54 1.252 . S
O52 Mg42 2.251 . S
O52 Mg45 2.079 . S
O52 C54 1.273 . S
C53 O49 1.246 . S
C53 O50 1.259 . S
C54 O51 1.252 . S
C54 O52 1.273 . S
O55 Mg42 2.010 . S
O55 C47 1.249 . S
Mg56 O57 2.028 . S
Mg56 O63 1.986 . S
Mg56 O65 2.114 . S
Mg56 O66 2.251 . S
Mg56 O69 2.010 . S
O57 Mg56 2.028 . S
O57 C60 1.250 . S
O58 Mg59 2.028 . S
O58 C60 1.248 . S
Mg59 O58 2.028 . S
Mg59 O64 2.032 . S
Mg59 O66 2.079 . S
C60 O57 1.250 . S
C60 O58 1.248 . S
C61 O62 1.264 . S
C61 O69 1.249 . S
O62 C61 1.264 . S
O63 Mg56 1.986 . S
O63 C67 1.246 . S
O64 Mg59 2.032 . S
O64 C67 1.259 . S
O65 Mg56 2.114 . S
O65 C68 1.252 . S
O66 Mg56 2.251 . S
O66 Mg59 2.079 . S
O66 C68 1.273 . S
C67 O63 1.246 . S
C67 O64 1.259 . S
C68 O65 1.252 . S
C68 O66 1.273 . S
O69 Mg56 2.010 . S
O69 C61 1.249 . S
Mg70 O71 2.028 . S
Mg70 O77 1.986 . S
Mg70 O79 2.114 . S
Mg70 O80 2.251 . S
Mg70 O83 2.010 . S
O71 Mg70 2.028 . S
O71 C74 1.250 . S
O72 Mg73 2.028 . S
O72 C74 1.248 . S
Mg73 O72 2.028 . S
Mg73 O78 2.032 . S
Mg73 O80 2.079 . S
C74 O71 1.250 . S
C74 O72 1.248 . S
C75 O76 1.264 . S
C75 O83 1.249 . S
O76 C75 1.264 . S
O77 Mg70 1.986 . S
O77 C81 1.246 . S
O78 Mg73 2.032 . S
O78 C81 1.259 . S
O79 Mg70 2.114 . S
O79 C82 1.252 . S
O80 Mg70 2.251 . S
O80 Mg73 2.079 . S
O80 C82 1.273 . S
C81 O77 1.246 . S
C81 O78 1.259 . S
C82 O79 1.252 . S
C82 O80 1.273 . S
O83 Mg70 2.010 . S
O83 C75 1.249 . S
Mg84 O85 2.028 . S
Mg84 O91 1.986 . S
Mg84 O93 2.114 . S
Mg84 O94 2.251 . S
Mg84 O97 2.010 . S
O85 Mg84 2.028 . S
O85 C88 1.250 . S
O86 Mg87 2.028 . S
O86 C88 1.248 . S
Mg87 O86 2.028 . S
Mg87 O92 2.032 . S
Mg87 O94 2.079 . S
C88 O85 1.250 . S
C88 O86 1.248 . S
C89 O90 1.264 . S
C89 O97 1.249 . S
O90 C89 1.264 . S
O91 Mg84 1.986 . S
O91 C95 1.246 . S
O92 Mg87 2.032 . S
O92 C95 1.259 . S
O93 Mg84 2.114 . S
O93 C96 1.252 . S
O94 Mg84 2.251 . S
O94 Mg87 2.079 . S
O94 C96 1.273 . S
C95 O91 1.246 . S
C95 O92 1.259 . S
C96 O93 1.252 . S
C96 O94 1.273 . S
O97 Mg84 2.010 . S
O97 C89 1.249 . S
Mg98 O99 2.028 . S
Mg98 O105 1.986 . S
Mg98 O107 2.114 . S
Mg98 O108 2.251 . S
Mg98 O111 2.010 . S
O99 Mg98 2.028 . S
O99 C102 1.250 . S
O100 Mg101 2.028 . S
O100 C102 1.248 . S
Mg101 O100 2.028 . S
Mg101 O106 2.032 . S
Mg101 O108 2.079 . S
C102 O99 1.250 . S
C102 O100 1.248 . S
C103 O104 1.264 . S
C103 O111 1.249 . S
O104 C103 1.264 . S
O105 Mg98 1.986 . S
O105 C109 1.246 . S
O106 Mg101 2.032 . S
O106 C109 1.259 . S
O107 Mg98 2.114 . S
O107 C110 1.252 . S
O108 Mg98 2.251 . S
O108 Mg101 2.079 . S
O108 C110 1.273 . S
C109 O105 1.246 . S
C109 O106 1.259 . S
C110 O107 1.252 . S
C110 O108 1.273 . S
O111 Mg98 2.010 . S
O111 C103 1.249 . S
Mg112 O113 2.028 . S
Mg112 O119 1.986 . S
Mg112 O121 2.114 . S
Mg112 O122 2.251 . S
Mg112 O125 2.010 . S
O113 Mg112 2.028 . S
O113 C116 1.250 . S
O114 Mg115 2.028 . S
O114 C116 1.248 . S
Mg115 O114 2.028 . S
Mg115 O120 2.032 . S
Mg115 O122 2.079 . S
C116 O113 1.250 . S
C116 O114 1.248 . S
C117 O118 1.264 . S
C117 O125 1.249 . S
O118 C117 1.264 . S
O119 Mg112 1.986 . S
O119 C123 1.246 . S
O120 Mg115 2.032 . S
O120 C123 1.259 . S
O121 Mg112 2.114 . S
O121 C124 1.252 . S
O122 Mg112 2.251 . S
O122 Mg115 2.079 . S
O122 C124 1.273 . S
C123 O119 1.246 . S
C123 O120 1.259 . S
C124 O121 1.252 . S
C124 O122 1.273 . S
O125 Mg112 2.010 . S
O125 C117 1.249 . S
Mg126 O127 2.028 . S
Mg126 O133 1.986 . S
Mg126 O135 2.114 . S
Mg126 O136 2.251 . S
Mg126 O139 2.010 . S
O127 Mg126 2.028 . S
O127 C130 1.250 . S
O128 Mg129 2.028 . S
O128 C130 1.248 . S
Mg129 O128 2.028 . S
Mg129 O134 2.032 . S
Mg129 O136 2.079 . S
C130 O127 1.250 . S
C130 O128 1.248 . S
C131 O132 1.264 . S
C131 O139 1.249 . S
O132 C131 1.264 . S
O133 Mg126 1.986 . S
O133 C137 1.246 . S
O134 Mg129 2.032 . S
O134 C137 1.259 . S
O135 Mg126 2.114 . S
O135 C138 1.252 . S
O136 Mg126 2.251 . S
O136 Mg129 2.079 . S
O136 C138 1.273 . S
C137 O133 1.246 . S
C137 O134 1.259 . S
C138 O135 1.252 . S
C138 O136 1.273 . S
O139 Mg126 2.010 . S
O139 C131 1.249 . S
Mg140 O141 2.028 . S
Mg140 O147 1.986 . S
Mg140 O149 2.114 . S
Mg140 O150 2.251 . S
Mg140 O153 2.010 . S
O141 Mg140 2.028 . S
O141 C144 1.250 . S
O142 Mg143 2.028 . S
O142 C144 1.248 . S
Mg143 O142 2.028 . S
Mg143 O148 2.032 . S
Mg143 O150 2.079 . S
C144 O141 1.250 . S
C144 O142 1.248 . S
C145 O146 1.264 . S
C145 O153 1.249 . S
O146 C145 1.264 . S
O147 Mg140 1.986 . S
O147 C151 1.246 . S
O148 Mg143 2.032 . S
O148 C151 1.259 . S
O149 Mg140 2.114 . S
O149 C152 1.252 . S
O150 Mg140 2.251 . S
O150 Mg143 2.079 . S
O150 C152 1.273 . S
C151 O147 1.246 . S
C151 O148 1.259 . S
C152 O149 1.252 . S
C152 O150 1.273 . S
O153 Mg140 2.010 . S
O153 C145 1.249 . S
Mg154 O155 2.028 . S
Mg154 O161 1.986 . S
Mg154 O163 2.114 . S
Mg154 O164 2.251 . S
Mg154 O167 2.010 . S
O155 Mg154 2.028 . S
O155 C158 1.250 . S
O156 Mg157 2.028 . S
O156 C158 1.248 . S
Mg157 O156 2.028 . S
Mg157 O162 2.032 . S
Mg157 O164 2.079 . S
C158 O155 1.250 . S
C158 O156 1.248 . S
C159 O160 1.264 . S
C159 O167 1.249 . S
O160 C159 1.264 . S
O161 Mg154 1.986 . S
O161 C165 1.246 . S
O162 Mg157 2.032 . S
O162 C165 1.259 . S
O163 Mg154 2.114 . S
O163 C166 1.252 . S
O164 Mg154 2.251 . S
O164 Mg157 2.079 . S
O164 C166 1.273 . S
C165 O161 1.246 . S
C165 O162 1.259 . S
C166 O163 1.252 . S
C166 O164 1.273 . S
O167 Mg154 2.010 . S
O167 C159 1.249 . S
Mg168 O169 2.028 . S
Mg168 O175 1.986 . S
Mg168 O177 2.114 . S
Mg168 O178 2.251 . S
Mg168 O181 2.010 . S
O169 Mg168 2.028 . S
O169 C172 1.250 . S
O170 Mg171 2.028 . S
O170 C172 1.248 . S
Mg171 O170 2.028 . S
Mg171 O176 2.032 . S
Mg171 O178 2.079 . S
C172 O169 1.250 . S
C172 O170 1.248 . S
C173 O174 1.264 . S
C173 O181 1.249 . S
O174 C173 1.264 . S
O175 Mg168 1.986 . S
O175 C179 1.246 . S
O176 Mg171 2.032 . S
O176 C179 1.259 . S
O177 Mg168 2.114 . S
O177 C180 1.252 . S
O178 Mg168 2.251 . S
O178 Mg171 2.079 . S
O178 C180 1.273 . S
C179 O175 1.246 . S
C179 O176 1.259 . S
C180 O177 1.252 . S
C180 O178 1.273 . S
O181 Mg168 2.010 . S
O181 C173 1.249 . S
Mg182 O183 2.028 . S
Mg182 O189 1.986 . S
Mg182 O191 2.114 . S
Mg182 O192 2.251 . S
Mg182 O195 2.010 . S
O183 Mg182 2.028 . S
O183 C186 1.250 . S
O184 Mg185 2.028 . S
O184 C186 1.248 . S
Mg185 O184 2.028 . S
Mg185 O190 2.032 . S
Mg185 O192 2.079 . S
C186 O183 1.250 . S
C186 O184 1.248 . S
C187 O188 1.264 . S
C187 O195 1.249 . S
O188 C187 1.264 . S
O189 Mg182 1.986 . S
O189 C193 1.246 . S
O190 Mg185 2.032 . S
O190 C193 1.259 . S
O191 Mg182 2.114 . S
O191 C194 1.252 . S
O192 Mg182 2.251 . S
O192 Mg185 2.079 . S
O192 C194 1.273 . S
C193 O189 1.246 . S
C193 O190 1.259 . S
C194 O191 1.252 . S
C194 O192 1.273 . S
O195 Mg182 2.010 . S
O195 C187 1.249 . S
Mg196 O197 2.028 . S
Mg196 O203 1.986 . S
Mg196 O205 2.114 . S
Mg196 O206 2.251 . S
Mg196 O209 2.010 . S
O197 Mg196 2.028 . S
O197 C200 1.250 . S
O198 Mg199 2.028 . S
O198 C200 1.248 . S
Mg199 O198 2.028 . S
Mg199 O204 2.032 . S
Mg199 O206 2.079 . S
C200 O197 1.250 . S
C200 O198 1.248 . S
C201 O202 1.264 . S
C201 O209 1.249 . S
O202 C201 1.264 . S
O203 Mg196 1.986 . S
O203 C207 1.246 . S
O204 Mg199 2.032 . S
O204 C207 1.259 . S
O205 Mg196 2.114 . S
O205 C208 1.252 . S
O206 Mg196 2.251 . S
O206 Mg199 2.079 . S
O206 C208 1.273 . S
C207 O203 1.246 . S
C207 O204 1.259 . S
C208 O205 1.252 . S
C208 O206 1.273 . S
O209 Mg196 2.010 . S
O209 C201 1.249 . S
Mg210 O211 2.028 . S
Mg210 O217 1.986 . S
Mg210 O219 2.114 . S
Mg210 O220 2.251 . S
Mg210 O223 2.010 . S
O211 Mg210 2.028 . S
O211 C214 1.250 . S
O212 Mg213 2.028 . S
O212 C214 1.248 . S
Mg213 O212 2.028 . S
Mg213 O218 2.032 . S
Mg213 O220 2.079 . S
C214 O211 1.250 . S
C214 O212 1.248 . S
C215 O216 1.264 . S
C215 O223 1.249 . S
O216 C215 1.264 . S
O217 Mg210 1.986 . S
O217 C221 1.246 . S
O218 Mg213 2.032 . S
O218 C221 1.259 . S
O219 Mg210 2.114 . S
O219 C222 1.252 . S
O220 Mg210 2.251 . S
O220 Mg213 2.079 . S
O220 C222 1.273 . S
C221 O217 1.246 . S
C221 O218 1.259 . S
C222 O219 1.252 . S
C222 O220 1.273 . S
O223 Mg210 2.010 . S
O223 C215 1.249 . S
C224 C225 1.387 . S
C224 H228 0.950 . S
C224 C233 1.390 . S
C225 C224 1.387 . S
C225 C227 1.387 . S
H226 C233 0.950 . S
C227 C225 1.387 . S
C227 C229 1.390 . S
C227 H231 0.950 . S
H228 C224 0.950 . S
C229 C227 1.390 . S
C229 C230 1.387 . S
C229 H232 0.950 . S
C230 C229 1.387 . S
C230 C233 1.387 . S
H231 C227 0.950 . S
H232 C229 0.950 . S
C233 C224 1.390 . S
C233 H226 0.950 . S
C233 C230 1.387 . S
C234 C235 1.387 . S
C234 H238 0.950 . S
C234 C243 1.390 . S
C235 C234 1.387 . S
C235 C237 1.387 . S
H236 C243 0.950 . S
C237 C235 1.387 . S
C237 C239 1.390 . S
C237 H241 0.950 . S
H238 C234 0.950 . S
C239 C237 1.390 . S
C239 C240 1.387 . S
C239 H242 0.950 . S
C240 C239 1.387 . S
C240 C243 1.387 . S
H241 C237 0.950 . S
H242 C239 0.950 . S
C243 C234 1.390 . S
C243 H236 0.950 . S
C243 C240 1.387 . S
C244 C245 1.387 . S
C244 H248 0.950 . S
C244 C253 1.390 . S
C245 C244 1.387 . S
C245 C247 1.387 . S
H246 C253 0.950 . S
C247 C245 1.387 . S
C247 C249 1.390 . S
C247 H251 0.950 . S
H248 C244 0.950 . S
C249 C247 1.390 . S
C249 C250 1.387 . S
C249 H252 0.950 . S
C250 C249 1.387 . S
C250 C253 1.387 . S
H251 C247 0.950 . S
H252 C249 0.950 . S
C253 C244 1.390 . S
C253 H246 0.950 . S
C253 C250 1.387 . S
C254 C255 1.387 . S
C254 H258 0.950 . S
C254 C263 1.390 . S
C255 C254 1.387 . S
C255 C257 1.387 . S
H256 C263 0.950 . S
C257 C255 1.387 . S
C257 C259 1.390 . S
C257 H261 0.950 . S
H258 C254 0.950 . S
C259 C257 1.390 . S
C259 C260 1.387 . S
C259 H262 0.950 . S
C260 C259 1.387 . S
C260 C263 1.387 . S
H261 C257 0.950 . S
H262 C259 0.950 . S
C263 C254 1.390 . S
C263 H256 0.950 . S
C263 C260 1.387 . S
C264 C265 1.387 . S
C264 H268 0.950 . S
C264 C273 1.390 . S
C265 C264 1.387 . S
C265 C267 1.387 . S
H266 C273 0.950 . S
C267 C265 1.387 . S
C267 C269 1.390 . S
C267 H271 0.950 . S
H268 C264 0.950 . S
C269 C267 1.390 . S
C269 C270 1.387 . S
C269 H272 0.950 . S
C270 C269 1.387 . S
C270 C273 1.387 . S
H271 C267 0.950 . S
H272 C269 0.950 . S
C273 C264 1.390 . S
C273 H266 0.950 . S
C273 C270 1.387 . S
C274 C275 1.387 . S
C274 H278 0.950 . S
C274 C283 1.390 . S
C275 C274 1.387 . S
C275 C277 1.387 . S
H276 C283 0.950 . S
C277 C275 1.387 . S
C277 C279 1.390 . S
C277 H281 0.950 . S
H278 C274 0.950 . S
C279 C277 1.390 . S
C279 C280 1.387 . S
C279 H282 0.950 . S
C280 C279 1.387 . S
C280 C283 1.387 . S
H281 C277 0.950 . S
H282 C279 0.950 . S
C283 C274 1.390 . S
C283 H276 0.950 . S
C283 C280 1.387 . S
C284 C285 1.387 . S
C284 H288 0.950 . S
C284 C293 1.390 . S
C285 C284 1.387 . S
C285 C287 1.387 . S
H286 C293 0.950 . S
C287 C285 1.387 . S
C287 C289 1.390 . S
C287 H291 0.950 . S
H288 C284 0.950 . S
C289 C287 1.390 . S
C289 C290 1.387 . S
C289 H292 0.950 . S
C290 C289 1.387 . S
C290 C293 1.387 . S
H291 C287 0.950 . S
H292 C289 0.950 . S
C293 C284 1.390 . S
C293 H286 0.950 . S
C293 C290 1.387 . S
C294 C295 1.387 . S
C294 H298 0.950 . S
C294 C303 1.390 . S
C295 C294 1.387 . S
C295 C297 1.387 . S
H296 C303 0.950 . S
C297 C295 1.387 . S
C297 C299 1.390 . S
C297 H301 0.950 . S
H298 C294 0.950 . S
C299 C297 1.390 . S
C299 C300 1.387 . S
C299 H302 0.950 . S
C300 C299 1.387 . S
C300 C303 1.387 . S
H301 C297 0.950 . S
H302 C299 0.950 . S
C303 C294 1.390 . S
C303 H296 0.950 . S
C303 C300 1.387 . S
C304 C305 1.387 . S
C304 H308 0.950 . S
C304 C313 1.390 1_556 S
C305 C304 1.387 . S
C305 C307 1.387 . S
H306 C313 0.950 . S
C307 C305 1.387 . S
C307 C309 1.390 1_556 S
C307 H311 0.950 . S
H308 C304 0.950 . S
C309 C307 1.390 1_554 S
C309 C310 1.387 . S
C309 H312 0.950 . S
C310 C309 1.387 . S
C310 C313 1.387 . S
H311 C307 0.950 . S
H312 C309 0.950 . S
C313 C304 1.390 1_554 S
C313 H306 0.950 . S
C313 C310 1.387 . S
C314 C315 1.387 . S
C314 H318 0.950 . S
C314 C323 1.390 1_556 S
C315 C314 1.387 . S
C315 C317 1.387 . S
H316 C323 0.950 . S
C317 C315 1.387 . S
C317 C319 1.390 1_556 S
C317 H321 0.950 . S
H318 C314 0.950 . S
C319 C317 1.390 1_554 S
C319 C320 1.387 . S
C319 H322 0.950 . S
C320 C319 1.387 . S
C320 C323 1.387 . S
H321 C317 0.950 . S
H322 C319 0.950 . S
C323 C314 1.390 1_554 S
C323 H316 0.950 . S
C323 C320 1.387 . S
C324 C325 1.387 . S
C324 H328 0.950 . S
C324 C333 1.390 1_556 S
C325 C324 1.387 . S
C325 C327 1.387 . S
H326 C333 0.950 . S
C327 C325 1.387 . S
C327 C329 1.390 1_556 S
C327 H331 0.950 . S
H328 C324 0.950 . S
C329 C327 1.390 1_554 S
C329 C330 1.387 . S
C329 H332 0.950 . S
C330 C329 1.387 . S
C330 C333 1.387 . S
H331 C327 0.950 . S
H332 C329 0.950 . S
C333 C324 1.390 1_554 S
C333 H326 0.950 . S
C333 C330 1.387 . S
C334 C335 1.387 . S
C334 H338 0.950 . S
C334 C343 1.390 1_554 S
C335 C334 1.387 . S
C335 C337 1.387 . S
H336 C343 0.950 . S
C337 C335 1.387 . S
C337 C339 1.390 1_554 S
C337 H341 0.950 . S
H338 C334 0.950 . S
C339 C337 1.390 1_556 S
C339 C340 1.387 . S
C339 H342 0.950 . S
C340 C339 1.387 . S
C340 C343 1.387 . S
H341 C337 0.950 . S
H342 C339 0.950 . S
C343 C334 1.390 1_556 S
C343 H336 0.950 . S
C343 C340 1.387 . S
C344 C345 1.387 . S
C344 H348 0.950 . S
C344 C353 1.390 1_455 S
C345 C344 1.387 . S
C345 C347 1.387 . S
H346 C353 0.950 . S
C347 C345 1.387 . S
C347 C349 1.390 1_455 S
C347 H351 0.950 . S
H348 C344 0.950 . S
C349 C347 1.390 1_655 S
C349 C350 1.387 . S
C349 H352 0.950 . S
C350 C349 1.387 . S
C350 C353 1.387 . S
H351 C347 0.950 . S
H352 C349 0.950 . S
C353 C344 1.390 1_655 S
C353 H346 0.950 . S
C353 C350 1.387 . S
C354 C355 1.387 . S
C354 H358 0.950 . S
C354 C363 1.390 1_565 S
C355 C354 1.387 . S
C355 C357 1.387 . S
H356 C363 0.950 . S
C357 C355 1.387 . S
C357 C359 1.390 1_565 S
C357 H361 0.950 . S
H358 C354 0.950 . S
C359 C357 1.390 1_545 S
C359 C360 1.387 . S
C359 H362 0.950 . S
C360 C359 1.387 . S
C360 C363 1.387 . S
H361 C357 0.950 . S
H362 C359 0.950 . S
C363 C354 1.390 1_545 S
C363 H356 0.950 . S
C363 C360 1.387 . S
C364 C365 1.387 . S
C364 H368 0.950 . S
C364 C373 1.390 1_655 S
C365 C364 1.387 . S
C365 C367 1.387 . S
H366 C373 0.950 . S
C367 C365 1.387 . S
C367 C369 1.390 1_655 S
C367 H371 0.950 . S
H368 C364 0.950 . S
C369 C367 1.390 1_455 S
C369 C370 1.387 . S
C369 H372 0.950 . S
C370 C369 1.387 . S
C370 C373 1.387 . S
H371 C367 0.950 . S
H372 C369 0.950 . S
C373 C364 1.390 1_455 S
C373 H366 0.950 . S
C373 C370 1.387 . S
C374 C375 1.387 . S
C374 H378 0.950 . S
C374 C383 1.390 1_545 S
C375 C374 1.387 . S
C375 C377 1.387 . S
H376 C383 0.950 . S
C377 C375 1.387 . S
C377 C379 1.390 1_545 S
C377 H381 0.950 . S
H378 C374 0.950 . S
C379 C377 1.390 1_565 S
C379 C380 1.387 . S
C379 H382 0.950 . S
C380 C379 1.387 . S
C380 C383 1.387 . S
H381 C377 0.950 . S
H382 C379 0.950 . S
C383 C374 1.390 1_565 S
C383 H376 0.950 . S
C383 C380 1.387 . S
C384 C385 1.387 . S
C384 H388 0.950 . S
C384 C393 1.390 1_655 S
C385 C384 1.387 . S
C385 C387 1.387 . S
H386 C393 0.950 . S
C387 C385 1.387 . S
C387 C389 1.390 1_655 S
C387 H391 0.950 . S
H388 C384 0.950 . S
C389 C387 1.390 1_455 S
C389 C390 1.387 . S
C389 H392 0.950 . S
C390 C389 1.387 . S
C390 C393 1.387 . S
H391 C387 0.950 . S
H392 C389 0.950 . S
C393 C384 1.390 1_455 S
C393 H386 0.950 . S
C393 C390 1.387 . S
C394 C395 1.387 . S
C394 H398 0.950 . S
C394 C403 1.390 1_565 S
C395 C394 1.387 . S
C395 C397 1.387 . S
H396 C403 0.950 . S
C397 C395 1.387 . S
C397 C399 1.390 1_565 S
C397 H401 0.950 . S
H398 C394 0.950 . S
C399 C397 1.390 1_545 S
C399 C400 1.387 . S
C399 H402 0.950 . S
C400 C399 1.387 . S
C400 C403 1.387 . S
H401 C397 0.950 . S
H402 C399 0.950 . S
C403 C394 1.390 1_545 S
C403 H396 0.950 . S
C403 C400 1.387 . S
C404 C405 1.387 . S
C404 H408 0.950 . S
C404 C413 1.390 1_455 S
C405 C404 1.387 . S
C405 C407 1.387 . S
H406 C413 0.950 . S
C407 C405 1.387 . S
C407 C409 1.390 1_455 S
C407 H411 0.950 . S
H408 C404 0.950 . S
C409 C407 1.390 1_655 S
C409 C410 1.387 . S
C409 H412 0.950 . S
C410 C409 1.387 . S
C410 C413 1.387 . S
H411 C407 0.950 . S
H412 C409 0.950 . S
C413 C404 1.390 1_655 S
C413 H406 0.950 . S
C413 C410 1.387 . S
C414 C415 1.387 . S
C414 H418 0.950 . S
C414 C423 1.390 1_565 S
C415 C414 1.387 . S
C415 C417 1.387 . S
H416 C423 0.950 . S
C417 C415 1.387 . S
C417 C419 1.390 1_565 S
C417 H421 0.950 . S
H418 C414 0.950 . S
C419 C417 1.390 1_545 S
C419 C420 1.387 . S
C419 H422 0.950 . S
C420 C419 1.387 . S
C420 C423 1.387 . S
H421 C417 0.950 . S
H422 C419 0.950 . S
C423 C414 1.390 1_545 S
C423 H416 0.950 . S
C423 C420 1.387 . S
C424 C425 1.387 . S
C424 H428 0.950 . S
C424 C433 1.390 . S
C425 C424 1.387 . S
C425 C427 1.387 . S
H426 C433 0.950 . S
C427 C425 1.387 . S
C427 C429 1.390 . S
C427 H431 0.950 . S
H428 C424 0.950 . S
C429 C427 1.390 . S
C429 C430 1.387 . S
C429 H432 0.950 . S
C430 C429 1.387 . S
C430 C433 1.387 . S
H431 C427 0.950 . S
H432 C429 0.950 . S
C433 C424 1.390 . S
C433 H426 0.950 . S
C433 C430 1.387 . S
C434 C435 1.387 . S
C434 H438 0.950 . S
C434 C443 1.390 . S
C435 C434 1.387 . S
C435 C437 1.387 . S
H436 C443 0.950 . S
C437 C435 1.387 . S
C437 C439 1.390 . S
C437 H441 0.950 . S
H438 C434 0.950 . S
C439 C437 1.390 . S
C439 C440 1.387 . S
C439 H442 0.950 . S
C440 C439 1.387 . S
C440 C443 1.387 . S
H441 C437 0.950 . S
H442 C439 0.950 . S
C443 C434 1.390 . S
C443 H436 0.950 . S
C443 C440 1.387 . S
C444 C445 1.387 . S
C444 H448 0.950 . S
C444 C453 1.390 . S
C445 C444 1.387 . S
C445 C447 1.387 . S
H446 C453 0.950 . S
C447 C445 1.387 . S
C447 C449 1.390 . S
C447 H451 0.950 . S
H448 C444 0.950 . S
C449 C447 1.390 . S
C449 C450 1.387 . S
C449 H452 0.950 . S
C450 C449 1.387 . S
C450 C453 1.387 . S
H451 C447 0.950 . S
H452 C449 0.950 . S
C453 C444 1.390 . S
C453 H446 0.950 . S
C453 C450 1.387 . S
C454 C455 1.387 . S
C454 H458 0.950 . S
C454 C463 1.390 . S
C455 C454 1.387 . S
C455 C457 1.387 . S
H456 C463 0.950 . S
C457 C455 1.387 . S
C457 C459 1.390 . S
C457 H461 0.950 . S
H458 C454 0.950 . S
C459 C457 1.390 . S
C459 C460 1.387 . S
C459 H462 0.950 . S
C460 C459 1.387 . S
C460 C463 1.387 . S
H461 C457 0.950 . S
H462 C459 0.950 . S
C463 C454 1.390 . S
C463 H456 0.950 . S
C463 C460 1.387 . S
C464 C465 1.387 . S
C464 H468 0.950 . S
C464 C473 1.390 . S
C465 C464 1.387 . S
C465 C467 1.387 . S
H466 C473 0.950 . S
C467 C465 1.387 . S
C467 C469 1.390 . S
C467 H471 0.950 . S
H468 C464 0.950 . S
C469 C467 1.390 . S
C469 C470 1.387 . S
C469 H472 0.950 . S
C470 C469 1.387 . S
C470 C473 1.387 . S
H471 C467 0.950 . S
H472 C469 0.950 . S
C473 C464 1.390 . S
C473 H466 0.950 . S
C473 C470 1.387 . S
C474 C475 1.387 . S
C474 H478 0.950 . S
C474 C483 1.390 . S
C475 C474 1.387 . S
C475 C477 1.387 . S
H476 C483 0.950 . S
C477 C475 1.387 . S
C477 C479 1.390 . S
C477 H481 0.950 . S
H478 C474 0.950 . S
C479 C477 1.390 . S
C479 C480 1.387 . S
C479 H482 0.950 . S
C480 C479 1.387 . S
C480 C483 1.387 . S
H481 C477 0.950 . S
H482 C479 0.950 . S
C483 C474 1.390 . S
C483 H476 0.950 . S
C483 C480 1.387 . S
C484 C485 1.387 . S
C484 H488 0.950 . S
C484 C493 1.390 . S
C485 C484 1.387 . S
C485 C487 1.387 . S
H486 C493 0.950 . S
C487 C485 1.387 . S
C487 C489 1.390 . S
C487 H491 0.950 . S
H488 C484 0.950 . S
C489 C487 1.390 . S
C489 C490 1.387 . S
C489 H492 0.950 . S
C490 C489 1.387 . S
C490 C493 1.387 . S
H491 C487 0.950 . S
H492 C489 0.950 . S
C493 C484 1.390 . S
C493 H486 0.950 . S
C493 C490 1.387 . S
C494 C495 1.387 . S
C494 H498 0.950 . S
C494 C503 1.390 . S
C495 C494 1.387 . S
C495 C497 1.387 . S
H496 C503 0.950 . S
C497 C495 1.387 . S
C497 C499 1.390 . S
C497 H501 0.950 . S
H498 C494 0.950 . S
C499 C497 1.390 . S
C499 C500 1.387 . S
C499 H502 0.950 . S
C500 C499 1.387 . S
C500 C503 1.387 . S
H501 C497 0.950 . S
H502 C499 0.950 . S
C503 C494 1.390 . S
C503 H496 0.950 . S
C503 C500 1.387 . S
C504 C505 1.387 . S
C504 H508 0.950 . S
C504 C513 1.390 . S
C505 C504 1.387 . S
C505 C507 1.387 . S
H506 C513 0.950 . S
C507 C505 1.387 . S
C507 C509 1.390 . S
C507 H511 0.950 . S
H508 C504 0.950 . S
C509 C507 1.390 . S
C509 C510 1.387 . S
C509 H512 0.950 . S
C510 C509 1.387 . S
C510 C513 1.387 . S
H511 C507 0.950 . S
H512 C509 0.950 . S
C513 C504 1.390 . S
C513 H506 0.950 . S
C513 C510 1.387 . S
C514 C515 1.387 . S
C514 H518 0.950 . S
C514 C523 1.390 . S
C515 C514 1.387 . S
C515 C517 1.387 . S
H516 C523 0.950 . S
C517 C515 1.387 . S
C517 C519 1.390 . S
C517 H521 0.950 . S
H518 C514 0.950 . S
C519 C517 1.390 . S
C519 C520 1.387 . S
C519 H522 0.950 . S
C520 C519 1.387 . S
C520 C523 1.387 . S
H521 C517 0.950 . S
H522 C519 0.950 . S
C523 C514 1.390 . S
C523 H516 0.950 . S
C523 C520 1.387 . S
C524 C525 1.387 . S
C524 H528 0.950 . S
C524 C533 1.390 . S
C525 C524 1.387 . S
C525 C527 1.387 . S
H526 C533 0.950 . S
C527 C525 1.387 . S
C527 C529 1.390 . S
C527 H531 0.950 . S
H528 C524 0.950 . S
C529 C527 1.390 . S
C529 C530 1.387 . S
C529 H532 0.950 . S
C530 C529 1.387 . S
C530 C533 1.387 . S
H531 C527 0.950 . S
H532 C529 0.950 . S
C533 C524 1.390 . S
C533 H526 0.950 . S
C533 C530 1.387 . S
C534 C535 1.387 . S
C534 H538 0.950 . S
C534 C543 1.390 . S
C535 C534 1.387 . S
C535 C537 1.387 . S
H536 C543 0.950 . S
C537 C535 1.387 . S
C537 C539 1.390 . S
C537 H541 0.950 . S
H538 C534 0.950 . S
C539 C537 1.390 . S
C539 C540 1.387 . S
C539 H542 0.950 . S
C540 C539 1.387 . S
C540 C543 1.387 . S
H541 C537 0.950 . S
H542 C539 0.950 . S
C543 C534 1.390 . S
C543 H536 0.950 . S
C543 C540 1.387 . S
C225 C215 0.934 . S
C230 C5 0.928 . S
C235 C173 0.990 . S
C240 C19 0.962 . S
C245 C33 0.964 . S
C250 C187 0.957 . S
C255 C201 0.967 . S
C260 C47 0.995 . S
C265 C131 0.969 . S
C270 C61 0.993 . S
C275 C75 0.958 . S
C280 C145 0.964 . S
C285 C89 0.963 . S
C290 C159 0.989 . S
C295 C103 0.932 . S
C300 C117 0.925 . S
C305 C82 1.375 . S
C310 C12 1.373 . S
C315 C88 1.546 . S
C320 C18 1.548 . S
C325 C110 1.374 . S
C330 C40 1.374 . S
C335 C53 1.371 . S
C340 C67 1.374 . S
C345 C4 1.381 . S
C350 C26 1.463 . S
C355 C39 1.345 . S
C360 C25 1.359 . S
C365 C32 1.485 . S
C370 C46 1.485 . S
C375 C11 1.314 . S
C380 C54 1.357 . S
C385 C109 1.313 . S
C390 C68 1.356 . S
C395 C60 1.484 . S
C400 C74 1.485 . S
C405 C81 1.344 . S
C410 C95 1.359 . S
C415 C102 1.381 . S
C420 C96 1.464 . S
C425 C194 1.375 . S
C430 C124 1.372 . S
C435 C130 1.547 . S
C440 C200 1.547 . S
C445 C222 1.374 . S
C450 C152 1.374 . S
C455 C179 1.371 . S
C460 C165 1.374 . S
C465 C116 1.382 . S
C470 C138 1.463 . S
C475 C137 1.359 . S
C480 C151 1.344 . S
C485 C158 1.482 . S
C490 C144 1.488 . S
C495 C123 1.316 . S
C500 C166 1.355 . S
C505 C221 1.314 . S
C510 C180 1.356 . S
C515 C172 1.482 . S
C520 C186 1.488 . S
C525 C193 1.345 . S
C530 C207 1.358 . S
C535 C214 1.379 . S
C540 C208 1.464 . S
