# Generated by pormake.
# Topology qdl, (4)-cn, num edge types: 1
# Building blocks:
#     Node 0, Type 0, BuildingBlock: MUDLON_clean_sbu_0, # of connection points: 4
#     Node 1, Type 0, BuildingBlock: MUDLON_clean_sbu_0, # of connection points: 4
#     Node 2, Type 0, BuildingBlock: MUDLON_clean_sbu_0, # of connection points: 4
#     Node 3, Type 0, BuildingBlock: MUDLON_clean_sbu_0, # of connection points: 4
#     Node 4, Type 0, BuildingBlock: MUDLON_clean_sbu_0, # of connection points: 4
#     Node 5, Type 0, BuildingBlock: MUDLON_clean_sbu_0, # of connection points: 4
#     Edge 6, Type (0, 0), BuildingBlock: XUDNAN_clean_linker_2, # of connection points: 2
#     Edge 7, Type (0, 0), BuildingBlock: XUDNAN_clean_linker_2, # of connection points: 2
#     Edge 8, Type (0, 0), BuildingBlock: XUDNAN_clean_linker_2, # of connection points: 2
#     Edge 9, Type (0, 0), BuildingBlock: XUDNAN_clean_linker_2, # of connection points: 2
#     Edge 10, Type (0, 0), BuildingBlock: XUDNAN_clean_linker_2, # of connection points: 2
#     Edge 11, Type (0, 0), BuildingBlock: XUDNAN_clean_linker_2, # of connection points: 2
#     Edge 12, Type (0, 0), BuildingBlock: XUDNAN_clean_linker_2, # of connection points: 2
#     Edge 13, Type (0, 0), BuildingBlock: XUDNAN_clean_linker_2, # of connection points: 2
#     Edge 14, Type (0, 0), BuildingBlock: XUDNAN_clean_linker_2, # of connection points: 2
#     Edge 15, Type (0, 0), BuildingBlock: XUDNAN_clean_linker_2, # of connection points: 2
#     Edge 16, Type (0, 0), BuildingBlock: XUDNAN_clean_linker_2, # of connection points: 2
#     Edge 17, Type (0, 0), BuildingBlock: XUDNAN_clean_linker_2, # of connection points: 2
# Relax obj value: 0.001
# Max RMSD: 0.014
# Mean RMSD: 0.013
data_MOF--net-qdl--node1-MUDLON_clean_sbu_0--edge1-XUDNAN_clean_linker_2
_symmetry_space_group_name_H-M    P1
_symmetry_Int_Tables_number       1
_symmetry_cell_setting            triclinic
loop_
_symmetry_equiv_pos_as_xyz
'x, y, z'
_cell_length_a     15.385438
_cell_length_b     15.412777
_cell_length_c     90.25155
_cell_angle_alpha  90.474189
_cell_angle_beta   90.695987
_cell_angle_gamma 119.94667
loop_
_atom_site_label
_atom_site_type_symbol
_atom_site_fract_x
_atom_site_fract_y
_atom_site_fract_z
_atom_type_partial_charge
Mg0 Mg 0.93924 0.91316 0.10233 0.0
C1 C 0.91799 0.71989 0.10459 0.0
O2 O 1.01063 0.78719 0.10834 0.0
C3 C 0.91925 0.0863 0.10359 0.0
O4 O 1.01253 0.11207 0.10696 0.0
C5 C 0.94167 0.93551 0.1344 0.0
O6 O 0.84908 0.90544 0.12998 0.0
O7 O 1.00606 0.949 0.12464 0.0
O8 O 0.85778 0.75039 0.10094 0.0
O9 O 0.04273 0.96437 0.08393 0.0
C10 C 1.00218 0.92114 0.07163 0.0
O11 O 0.90771 0.84968 0.07152 0.0
O12 O 0.85804 0.99476 0.10043 0.0
Mg13 Mg 0.22211 0.19115 0.43707 0.0
C14 C 0.04924 0.2154 0.43938 0.0
O15 O 0.01999 0.12096 0.4419 0.0
C16 C 0.42196 0.22507 0.44406 0.0
O17 O 0.3587 0.13621 0.44917 0.0
C18 C 0.18603 0.1687 0.46878 0.0
O19 O 0.21935 0.26367 0.46602 0.0
O20 O 0.17617 0.11054 0.45799 0.0
O21 O 0.14094 0.27392 0.43635 0.0
O22 O 0.17649 0.09982 0.41672 0.0
C23 C 0.24273 0.1035 0.40801 0.0
O24 O 0.33749 0.15405 0.41221 0.0
O25 O 0.38635 0.27558 0.43809 0.0
Mg26 Mg 0.98598 0.03304 0.76905 0.0
C27 C 0.79185 0.86036 0.77126 0.0
O28 O 0.85908 0.83503 0.77491 0.0
C29 C 0.15717 0.22768 0.77147 0.0
O30 O 0.18363 0.16169 0.77518 0.0
C31 C 0.97792 0.02346 0.80121 0.0
O32 O 0.91624 0.05483 0.79706 0.0
O33 O 0.02331 1.00357 0.79122 0.0
O34 O 0.82265 0.95056 0.76763 0.0
O35 O 0.0379 0.98154 0.75039 0.0
C36 C 0.99347 0.97692 0.73817 0.0
O37 O 0.92064 0.99809 0.73823 0.0
O38 O 0.06604 0.19566 0.76771 0.0
Mg39 Mg 0.19355 0.13817 0.6089 0.0
C40 C 0.39473 0.17439 0.60316 0.0
O41 O 0.33289 0.09011 0.5962 0.0
C42 C 0.02356 0.16696 0.60638 0.0
O43 O 0.99432 0.07443 0.60217 0.0
C44 C 0.16718 0.13479 0.57687 0.0
O45 O 0.20041 0.22779 0.58127 0.0
O46 O 0.15326 0.07016 0.58663 0.0
O47 O 0.3577 0.22039 0.61008 0.0
O48 O 0.13939 0.03771 0.6277 0.0
C49 C 0.19766 0.0209 0.63577 0.0
O50 O 0.29009 0.05358 0.63152 0.0
O51 O 0.11451 0.22261 0.61059 0.0
Mg52 Mg 0.04121 0.12019 0.94151 0.0
C53 C 0.20993 0.31627 0.93605 0.0
O54 O 0.23236 0.25051 0.93068 0.0
C55 C 0.84722 0.94835 0.94051 0.0
O56 O 0.91466 0.92085 0.93859 0.0
C57 C 0.01821 0.08493 0.90962 0.0
O58 O 0.96034 0.12184 0.91315 0.0
O59 O 0.06819 0.07289 0.91993 0.0
O60 O 0.12407 0.28382 0.94174 0.0
O61 O 0.08684 0.06927 0.96108 0.0
C62 C 0.16104 0.1279 0.96939 0.0
O63 O 0.22071 0.22015 0.96517 0.0
O64 O 0.8779 0.04106 0.94262 0.0
Mg65 Mg 0.90998 0.88661 0.2749 0.0
C66 C 0.89164 0.06113 0.27401 0.0
O67 O 0.98538 0.08699 0.27145 0.0
C68 C 0.88724 0.69281 0.27182 0.0
O69 O 0.97987 0.7597 0.26857 0.0
C70 C 0.92071 0.91589 0.24285 0.0
O71 O 0.82728 0.88679 0.2462 0.0
O72 O 0.9813 0.92514 0.25328 0.0
O73 O 0.82994 0.96951 0.27652 0.0
O74 O 1.01236 0.93328 0.29394 0.0
C75 C 0.97103 0.92544 0.30637 0.0
O76 O 0.87426 0.89339 0.30652 0.0
O77 O 0.82747 0.72385 0.27533 0.0
H78 H 0.02899 0.64054 0.11478 0.0
H79 H 0.74235 0.55707 0.09369 0.0
H80 H 0.70379 0.38016 0.09218 0.0
H81 H 0.0859 0.48788 0.09301 0.0
H82 H 0.14547 0.45887 0.10796 0.0
H83 H 0.14478 0.57519 0.10827 0.0
H84 H 0.06146 0.53284 0.13402 0.0
H85 H 0.06214 0.41633 0.13381 0.0
H86 H 0.94617 0.41639 0.13638 0.0
H87 H 0.70394 0.21147 0.09196 0.0
H88 H 0.74318 0.0734 0.09295 0.0
H89 H 0.03008 0.27649 0.11407 0.0
C90 C 0.95746 0.58533 0.10995 0.0
C91 C 0.88867 0.61263 0.10434 0.0
C92 C 0.79605 0.53764 0.09811 0.0
C93 C 0.77364 0.43712 0.09721 0.0
C94 C 0.84444 0.41329 0.10268 0.0
C95 C 0.93424 0.48583 0.10899 0.0
C96 C 1.00031 0.44384 0.11356 0.0
C97 C 0.09994 0.49443 0.1052 0.0
C98 C 0.01853 0.45287 0.13044 0.0
C99 C 0.9348 0.33622 0.10865 0.0
C100 C 0.84474 0.31892 0.10248 0.0
C101 C 0.77407 0.22444 0.09685 0.0
C102 C 0.79684 0.14649 0.09746 0.0
C103 C 0.88976 0.1642 0.10354 0.0
C104 C 0.95843 0.26017 0.1093 0.0
H105 H 0.51221 0.13161 0.45699 0.0
H106 H 0.57608 0.38873 0.43027 0.0
H107 H 0.75223 0.42646 0.4279 0.0
H108 H 0.75726 0.23754 0.47601 0.0
H109 H 0.75419 0.11912 0.47536 0.0
H110 H 0.63886 0.12216 0.4764 0.0
H111 H 0.57205 1.01035 0.45268 0.0
H112 H 0.68706 1.00738 0.45152 0.0
H113 H 0.64434 0.05011 0.43601 0.0
H114 H 0.92006 0.42515 0.42691 0.0
H115 H 0.05607 0.38244 0.42695 0.0
H116 H 0.8732 0.12362 0.45374 0.0
C117 C 0.56333 0.19716 0.45085 0.0
C118 C 0.53034 0.25744 0.44386 0.0
C119 C 0.5999 0.3419 0.43583 0.0
C120 C 0.70003 0.36378 0.43442 0.0
C121 C 0.72918 0.30075 0.44118 0.0
C122 C 0.66236 0.21943 0.4493 0.0
C123 C 0.70806 0.15808 0.45458 0.0
C124 C 0.71502 0.15936 0.4716 0.0
C125 C 0.64941 0.05017 0.44831 0.0
C126 C 0.81061 0.21579 0.44789 0.0
C127 C 0.82277 0.29878 0.44037 0.0
C128 C 0.91127 0.36076 0.43289 0.0
C129 C 0.98815 0.33615 0.43298 0.0
C130 C 0.97495 0.24954 0.44029 0.0
C131 C 0.88556 0.19013 0.44799 0.0
H132 H 0.71129 0.67478 0.78268 0.0
H133 H 0.62938 0.87022 0.75965 0.0
H134 H 0.45183 0.73237 0.75843 0.0
H135 H 0.55856 0.45818 0.76195 0.0
H136 H 0.52855 0.37534 0.77742 0.0
H137 H 0.64525 0.49192 0.77743 0.0
H138 H 0.60179 0.54244 0.80257 0.0
H139 H 0.48482 0.42569 0.80266 0.0
H140 H 0.48522 0.54252 0.80431 0.0
H141 H 0.28277 0.56395 0.75849 0.0
H142 H 0.14461 0.38719 0.75982 0.0
H143 H 0.3459 0.31087 0.78285 0.0
C144 C 0.65623 0.68951 0.77748 0.0
C145 C 0.68418 0.78319 0.77123 0.0
C146 C 0.60943 0.79895 0.76456 0.0
C147 C 0.50855 0.7211 0.76383 0.0
C148 C 0.48407 0.62873 0.76992 0.0
C149 C 0.55633 0.6135 0.7767 0.0
C150 C 0.51368 0.50738 0.78189 0.0
C151 C 0.56451 0.45518 0.77421 0.0
C152 C 0.52185 0.50438 0.79886 0.0
C153 C 0.40612 0.46385 0.77675 0.0
C154 C 0.38935 0.53437 0.76996 0.0
C155 C 0.29526 0.50862 0.76391 0.0
C156 C 0.21723 0.40821 0.76471 0.0
C157 C 0.23447 0.33519 0.77141 0.0
C158 C 0.32992 0.36453 0.77763 0.0
H159 H 0.48817 0.09218 0.58815 0.0
H160 H 0.54573 0.32724 0.62015 0.0
H161 H 0.72215 0.36495 0.62289 0.0
H162 H 0.61987 0.99841 0.60678 0.0
H163 H 0.66516 0.96816 0.59032 0.0
H164 H 0.54953 0.97038 0.58958 0.0
H165 H 0.61797 0.0987 0.56834 0.0
H166 H 0.73402 0.09663 0.56897 0.0
H167 H 0.73543 0.21379 0.57096 0.0
H168 H 0.89075 0.36486 0.62344 0.0
H169 H 0.02768 0.32378 0.62221 0.0
H170 H 0.85083 0.08639 0.59028 0.0
C171 C 0.53795 0.15296 0.59557 0.0
C172 C 0.50313 0.20695 0.60391 0.0
C173 C 0.57098 0.28531 0.61356 0.0
C174 C 0.67126 0.30717 0.61518 0.0
C175 C 0.70228 0.25036 0.60699 0.0
C176 C 0.63711 0.17516 0.59733 0.0
C177 C 0.68458 0.1192 0.59059 0.0
C178 C 0.62634 1.0075 0.59457 0.0
C179 C 0.69355 0.13296 0.57372 0.0
C180 C 0.7862 0.17265 0.59822 0.0
C181 C 0.7964 0.24913 0.60749 0.0
C182 C 0.88355 0.3057 0.61609 0.0
C183 C 0.96099 0.28211 0.61531 0.0
C184 C 0.94964 0.20176 0.60619 0.0
C185 C 0.86177 0.14811 0.5974 0.0
H186 H 0.40214 0.39585 0.92722 0.0
H187 H 0.19682 0.47896 0.94661 0.0
H188 H 0.33557 0.65555 0.94876 0.0
H189 H 0.60701 0.54633 0.95069 0.0
H190 H 0.69892 0.57531 0.93656 0.0
H191 H 0.58148 0.45945 0.93553 0.0
H192 H 0.54723 0.50329 0.9092 0.0
H193 H 0.66484 0.61932 0.91013 0.0
H194 H 0.55002 0.6203 0.90636 0.0
H195 H 0.50484 0.82483 0.94953 0.0
H196 H 0.68272 0.96249 0.94951 0.0
H197 H 0.76858 0.75826 0.93019 0.0
C198 C 0.38527 0.45093 0.93176 0.0
C199 C 0.28834 0.42356 0.93667 0.0
C200 C 0.27051 0.49836 0.9427 0.0
C201 C 0.34885 0.59875 0.94396 0.0
C202 C 0.4442 0.62261 0.93915 0.0
C203 C 0.46196 0.55013 0.93318 0.0
C204 C 0.57092 0.59165 0.92954 0.0
C205 C 0.61726 0.54014 0.93862 0.0
C206 C 0.58397 0.58315 0.91281 0.0
C207 C 0.61273 0.69915 0.93444 0.0
C208 C 0.53923 0.71677 0.93986 0.0
C209 C 0.56261 0.81148 0.94525 0.0
C210 C 0.66364 0.88924 0.94518 0.0
C211 C 0.73955 0.87102 0.93992 0.0
C212 C 0.71271 0.77487 0.93437 0.0
H213 H 1.00195 0.24973 0.2639 0.0
H214 H 0.71514 0.04898 0.28347 0.0
H215 H 0.67488 0.18647 0.28386 0.0
H216 H 0.0564 0.46347 0.28477 0.0
H217 H 0.11521 0.54854 0.26976 0.0
H218 H 0.11606 0.43236 0.27024 0.0
H219 H 0.03284 0.38499 0.24403 0.0
H220 H 0.03181 0.50125 0.24346 0.0
H221 H 0.9167 0.38415 0.24064 0.0
H222 H 0.67375 0.35455 0.2833 0.0
H223 H 0.71159 0.531 0.28176 0.0
H224 H 0.99841 0.61244 0.26232 0.0
C225 C 0.93015 0.23386 0.2682 0.0
C226 C 0.86178 0.13873 0.27371 0.0
C227 C 0.76857 0.12144 0.27917 0.0
C228 C 0.7452 0.19905 0.27942 0.0
C229 C 0.8155 0.29271 0.27405 0.0
C230 C 0.90579 0.30953 0.26846 0.0
C231 C 0.97081 0.41648 0.26375 0.0
C232 C 0.07044 0.46821 0.27267 0.0
C233 C 0.98905 0.42199 0.24698 0.0
C234 C 0.90425 0.45859 0.2678 0.0
C235 C 0.81458 0.38672 0.27365 0.0
C236 C 0.74346 0.41094 0.27861 0.0
C237 C 0.76545 0.51119 0.27769 0.0
C238 C 0.85793 0.58554 0.27193 0.0
C239 C 0.92693 0.55775 0.26678 0.0
H240 H 0.80895 0.91599 0.21928 0.0
H241 H 0.10107 0.9551 0.23083 0.0
H242 H 0.14477 0.97487 0.20422 0.0
H243 H 0.76602 0.7696 0.18722 0.0
H244 H 0.70363 0.82409 0.17715 0.0
H245 H 0.69997 0.82071 0.19706 0.0
H246 H 0.77419 0.01321 0.19823 0.0
H247 H 0.77793 0.01718 0.1783 0.0
H248 H 0.89054 0.09353 0.18914 0.0
H249 H 0.15058 0.9806 0.17562 0.0
H250 H 0.11741 0.9709 0.14849 0.0
H251 H 0.82137 0.92799 0.15676 0.0
C252 C 0.88264 0.9296 0.2163 0.0
C253 C 0.95158 0.93392 0.22716 0.0
C254 C 0.0471 0.95179 0.22271 0.0
C255 C 0.07252 0.96312 0.20762 0.0
C256 C 1.00182 0.95706 0.19717 0.0
C257 C 0.90902 0.94118 0.20141 0.0
C258 C 0.84434 0.93388 0.1882 0.0
C259 C 0.74784 0.83096 0.18736 0.0
C260 C 0.82039 0.01956 0.18849 0.0
C261 C 0.91413 0.94604 0.17577 0.0
C262 C 1.00506 0.96018 0.18106 0.0
C263 C 0.0798 0.97025 0.17141 0.0
C264 C 0.06041 0.96472 0.15602 0.0
C265 C 0.96681 0.9486 0.15048 0.0
C266 C 0.89376 0.94038 0.16058 0.0
H267 H 0.16342 0.25207 0.5549 0.0
H268 H 0.13654 0.96221 0.56248 0.0
H269 H 0.12501 0.93107 0.53528 0.0
H270 H 0.99386 0.17776 0.52254 0.0
H271 H 0.06969 0.29635 0.51375 0.0
H272 H 0.06598 0.28968 0.53367 0.0
H273 H 0.25989 0.37286 0.53489 0.0
H274 H 0.2642 0.37946 0.51502 0.0
H275 H 0.32015 0.31708 0.52468 0.0
H276 H 0.13016 0.9401 0.50666 0.0
H277 H 0.15128 0.98818 0.48019 0.0
H278 H 0.17463 0.27179 0.4925 0.0
C279 C 0.15386 0.1813 0.55091 0.0
C280 C 0.15101 0.10959 0.56082 0.0
C281 C 0.13842 0.01807 0.55508 0.0
C282 C 0.13187 0.99984 0.53966 0.0
C283 C 0.13699 0.07348 0.53018 0.0
C284 C 0.14692 0.16203 0.53568 0.0
C285 C 0.15558 0.23177 0.52341 0.0
C286 C 0.06593 0.24991 0.52334 0.0
C287 C 0.25591 0.3311 0.52457 0.0
C288 C 0.15193 0.17026 0.51007 0.0
C289 C 0.14007 0.07864 0.51407 0.0
C290 C 0.13851 1.01133 0.50345 0.0
C291 C 0.15049 0.03915 0.48844 0.0
C292 C 0.16477 0.13378 0.48427 0.0
C293 C 0.16397 0.19892 0.49528 0.0
H294 H 0.87863 0.04779 0.82413 0.0
H295 H 0.11767 0.98495 0.81462 0.0
H296 H 0.15066 0.98479 0.84162 0.0
H297 H 0.99998 0.21676 0.85364 0.0
H298 H 0.8876 0.17582 0.86416 0.0
H299 H 0.87959 0.16354 0.84428 0.0
H300 H 0.75395 0.97328 0.8463 0.0
H301 H 0.76135 0.98502 0.86621 0.0
H302 H 0.78816 0.89668 0.85711 0.0
H303 H 0.16133 1.00099 0.87024 0.0
H304 H 0.14852 0.03194 0.89697 0.0
H305 H 0.90256 0.08422 0.88656 0.0
C306 C 0.93747 0.03302 0.82765 0.0
C307 C 0.99557 0.01636 0.81724 0.0
C308 C 0.07189 0.99752 0.8224 0.0
C309 C 0.09113 0.99735 0.83771 0.0
C310 C 0.03297 0.01552 0.84767 0.0
C311 C 0.95736 0.03248 0.84276 0.0
C312 C 0.90728 0.05358 0.85547 0.0
C313 C 0.91941 0.15866 0.85431 0.0
C314 C 0.79611 0.97228 0.85632 0.0
C315 C 0.96747 0.0478 0.86837 0.0
C316 C 0.03925 0.02504 0.86378 0.0
C317 C 0.10489 0.01825 0.87392 0.0
C318 C 0.0971 0.03588 0.88907 0.0
C319 C 0.0247 0.06067 0.89387 0.0
C320 C 0.95891 0.06561 0.88332 0.0
H321 H 0.9297 0.84485 0.04394 0.0
H322 H 0.19345 0.07745 0.0671 0.0
H323 H 0.27304 0.14396 0.043 0.0
H324 H 0.06124 0.80857 1.01244 0.0
H325 H 0.96317 0.78994 0.99946 0.0
H326 H 0.93343 0.75331 1.01847 0.0
H327 H 0.85049 0.86352 1.02072 0.0
H328 H 0.87991 0.90038 1.00177 0.0
H329 H 0.92201 0.99446 1.01629 0.0
H330 H 0.31481 0.19611 1.0163 0.0
H331 H 0.3144 0.2305 0.98962 0.0
H332 H 0.02311 0.96226 0.98417 0.0
C333 C 1.00512 0.90854 0.044 0.0
C334 C 0.05551 0.95572 0.05743 0.0
C335 C 0.15359 0.03968 0.05696 0.0
C336 C 0.19944 0.07783 0.04332 0.0
C337 C 0.14653 0.03064 0.03027 0.0
C338 C 0.05167 0.94738 0.03054 0.0
C339 C 1.00703 0.91507 1.01507 0.0
C340 C 0.99027 0.81051 1.01113 0.0
C341 C 0.90913 0.91864 1.01337 0.0
C342 C 0.0902 0.995 1.00603 0.0
C343 C 0.17062 0.06035 1.01496 0.0
C344 C 0.25296 0.14447 1.00919 0.0
C345 C 0.25199 0.16342 0.99401 0.0
C346 C 0.16905 0.09877 0.98476 0.0
C347 C 0.08847 0.01225 0.99086 0.0
H348 H 0.90537 0.93202 0.33417 0.0
H349 H 0.16751 0.97356 0.31062 0.0
H350 H 0.26207 0.01182 0.33442 0.0
H351 H 0.03645 0.13193 0.36018 0.0
H352 H 0.95493 0.06693 0.3753 0.0
H353 H 0.90737 0.0383 0.35652 0.0
H354 H 0.85048 0.85121 0.36054 0.0
H355 H 0.89858 0.87944 0.37932 0.0
H356 H 0.94074 0.81685 0.36682 0.0
H357 H 0.32892 0.04996 0.36076 0.0
H358 H 0.36627 0.0942 0.38731 0.0
H359 H 0.05995 0.02823 0.39356 0.0
C360 C 0.98252 0.94858 0.33399 0.0
C361 C 0.02898 0.94947 0.32051 0.0
C362 C 0.13035 0.97242 0.32079 0.0
C363 C 0.18448 0.99382 0.33426 0.0
C364 C 0.13616 0.99195 0.34734 0.0
C365 C 0.03757 0.97036 0.34729 0.0
C366 C 1.00414 0.97723 0.36277 0.0
C367 C 0.97399 0.05844 0.36374 0.0
C368 C 0.91841 0.87509 0.36764 0.0
C369 C 0.09972 1.00719 0.37155 0.0
C370 C 0.17472 0.01446 0.36247 0.0
C371 C 0.27062 0.04406 0.36798 0.0
C372 C 0.29103 0.06894 0.3831 0.0
C373 C 0.21603 0.06451 0.39256 0.0
C374 C 0.11867 0.03143 0.38669 0.0
H375 H 0.03091 0.99114 0.65067 0.0
H376 H 0.30127 0.97125 0.65566 0.0
H377 H 0.26771 0.93755 0.6823 0.0
H378 H 0.063 0.12539 0.68266 0.0
H379 H 0.93229 0.06586 0.68733 0.0
H380 H 0.96736 0.07055 0.66831 0.0
H381 H 0.85899 0.87736 0.66597 0.0
H382 H 0.82265 0.87203 0.685 0.0
H383 H 0.87899 0.80007 0.67887 0.0
H384 H 0.21676 0.92904 0.70906 0.0
H385 H 0.15109 0.94367 0.7333 0.0
H386 H 0.91534 0.97008 0.71057 0.0
C387 C 0.08143 0.97649 0.65724 0.0
C388 C 0.16845 0.98326 0.65103 0.0
C389 C 0.2338 0.96592 0.66013 0.0
C390 C 0.2153 0.9466 0.67529 0.0
C391 C 0.13078 0.9442 0.68118 0.0
C392 C 0.06436 0.95769 0.67238 0.0
C393 C 0.98446 0.9611 0.68158 0.0
C394 C 0.98703 0.06169 0.67987 0.0
C395 C 0.88009 0.87233 0.67762 0.0
C396 C 0.01823 0.95096 0.69697 0.0
C397 C 0.10193 0.93993 0.69655 0.0
C398 C 0.15021 0.93593 0.70951 0.0
C399 C 0.11252 0.94449 0.72323 0.0
C400 C 0.02786 0.95766 0.72387 0.0
C401 C 0.9796 0.95916 0.71052 0.0
loop_
_geom_bond_atom_site_label_1
_geom_bond_atom_site_label_2
_geom_bond_distance
_geom_bond_site_symmetry_2
_ccdc_geom_bond_type
Mg0 O7 2.141 . S
Mg0 O8 2.048 1_545 S
Mg0 O9 2.048 . S
Mg0 O12 2.141 . S
C1 O2 1.313 . S
C1 O8 1.195 1_455 S
O2 C1 1.313 . S
C3 O4 1.245 . S
C3 O12 1.289 1_455 S
O4 C3 1.245 . S
C5 O6 1.245 . S
C5 O7 1.289 1_455 S
O6 C5 1.245 . S
O7 Mg0 2.141 . S
O7 C5 1.289 1_655 S
O8 Mg0 2.048 1_565 S
O8 C1 1.195 1_655 S
O9 Mg0 2.048 . S
O9 C10 1.195 1_655 S
C10 O9 1.195 1_455 S
C10 O11 1.313 . S
O11 C10 1.313 . S
O12 Mg0 2.141 . S
O12 C3 1.289 1_655 S
Mg13 O20 2.141 . S
Mg13 O21 2.048 1_455 S
Mg13 O22 2.048 . S
Mg13 O25 2.141 . S
C14 O15 1.313 1_545 S
C14 O21 1.195 . S
O15 C14 1.313 1_565 S
C16 O17 1.245 1_545 S
C16 O25 1.289 . S
O17 C16 1.245 1_565 S
C18 O19 1.245 1_445 S
C18 O20 1.289 . S
O19 C18 1.245 1_665 S
O20 Mg13 2.141 . S
O20 C18 1.289 . S
O21 Mg13 2.048 1_655 S
O21 C14 1.195 . S
O22 Mg13 2.048 . S
O22 C23 1.195 . S
C23 O22 1.195 . S
C23 O24 1.313 1_445 S
O24 C23 1.313 1_665 S
O25 Mg13 2.141 . S
O25 C16 1.289 . S
Mg26 O33 2.141 . S
Mg26 O34 2.048 1_445 S
Mg26 O35 2.048 . S
Mg26 O38 2.141 . S
C27 O28 1.313 . S
C27 O34 1.195 . S
O28 C27 1.313 . S
C29 O30 1.245 . S
C29 O38 1.289 . S
O30 C29 1.245 . S
C31 O32 1.245 1_545 S
C31 O33 1.289 . S
O32 C31 1.245 1_565 S
O33 Mg26 2.141 . S
O33 C31 1.289 . S
O34 Mg26 2.048 1_665 S
O34 C27 1.195 . S
O35 Mg26 2.048 . S
O35 C36 1.195 . S
C36 O35 1.195 . S
C36 O37 1.313 1_545 S
O37 C36 1.313 1_565 S
O38 Mg26 2.141 . S
O38 C29 1.289 . S
Mg39 O46 2.141 . S
Mg39 O47 2.048 . S
Mg39 O48 2.048 . S
Mg39 O51 2.141 1_455 S
C40 O41 1.313 1_545 S
C40 O47 1.195 . S
O41 C40 1.313 1_565 S
C42 O43 1.243 1_545 S
C42 O51 1.290 . S
O43 C42 1.243 1_565 S
C44 O45 1.244 1_445 S
C44 O46 1.290 . S
O45 C44 1.244 1_665 S
O46 Mg39 2.141 . S
O46 C44 1.290 . S
O47 Mg39 2.048 . S
O47 C40 1.195 . S
O48 Mg39 2.048 . S
O48 C49 1.195 . S
C49 O48 1.195 . S
C49 O50 1.313 1_445 S
O50 C49 1.313 1_665 S
O51 Mg39 2.141 1_655 S
O51 C42 1.290 . S
Mg52 O59 2.141 . S
Mg52 O60 2.048 1_655 S
Mg52 O61 2.048 . S
Mg52 O64 2.141 1_545 S
C53 O54 1.313 . S
C53 O60 1.195 . S
O54 C53 1.313 . S
C55 O56 1.245 . S
C55 O64 1.289 . S
O56 C55 1.245 . S
C57 O58 1.245 1_545 S
C57 O59 1.289 1_455 S
O58 C57 1.245 1_565 S
O59 Mg52 2.141 . S
O59 C57 1.289 1_655 S
O60 Mg52 2.048 1_455 S
O60 C53 1.195 . S
O61 Mg52 2.048 . S
O61 C62 1.195 1_655 S
C62 O61 1.195 1_455 S
C62 O63 1.313 . S
O63 C62 1.313 . S
O64 Mg52 2.141 1_565 S
O64 C55 1.289 . S
Mg65 O72 2.141 . S
Mg65 O73 2.048 1_565 S
Mg65 O74 2.048 . S
Mg65 O77 2.141 . S
C66 O67 1.313 . S
C66 O73 1.195 1_455 S
O67 C66 1.313 . S
C68 O69 1.245 . S
C68 O77 1.289 1_455 S
O69 C68 1.245 . S
C70 O71 1.245 . S
C70 O72 1.289 1_445 S
O71 C70 1.245 . S
O72 Mg65 2.141 . S
O72 C70 1.289 1_665 S
O73 Mg65 2.048 1_545 S
O73 C66 1.195 1_655 S
O74 Mg65 2.048 . S
O74 C75 1.195 1_665 S
C75 O74 1.195 1_445 S
C75 O76 1.313 . S
O76 C75 1.313 . S
O77 Mg65 2.141 . S
O77 C68 1.289 1_655 S
H78 C90 0.930 . S
H79 C92 0.930 . S
H80 C93 0.930 . S
H81 C97 0.959 . S
H82 C97 0.959 . S
H83 C97 0.961 . S
H84 C98 0.960 . S
H85 C98 0.961 . S
H86 C98 0.959 1_655 S
H87 C101 0.929 . S
H88 C102 0.931 . S
H89 C104 0.930 . S
C90 H78 0.930 . S
C90 C91 1.399 . S
C90 C95 1.399 . S
C91 C90 1.399 . S
C91 C92 1.376 1_455 S
C92 H79 0.930 . S
C92 C91 1.376 1_655 S
C92 C93 1.388 . S
C93 H80 0.930 . S
C93 C92 1.388 . S
C93 C94 1.390 . S
C94 C93 1.390 . S
C94 C95 1.394 1_655 S
C94 C100 1.465 . S
C95 C90 1.399 . S
C95 C94 1.394 1_455 S
C95 C96 1.516 . S
C96 C95 1.516 . S
C96 C97 1.502 . S
C96 C98 1.561 . S
C96 C99 1.526 . S
C97 H81 0.959 . S
C97 H82 0.959 . S
C97 H83 0.961 . S
C97 C96 1.502 . S
C98 H84 0.960 . S
C98 H85 0.961 . S
C98 H86 0.959 1_455 S
C98 C96 1.561 . S
C99 C96 1.526 . S
C99 C100 1.396 1_455 S
C99 C104 1.390 . S
C100 C94 1.465 . S
C100 C99 1.396 1_655 S
C100 C101 1.399 . S
C101 H87 0.929 . S
C101 C100 1.399 . S
C101 C102 1.385 . S
C102 H88 0.931 . S
C102 C101 1.385 . S
C102 C103 1.389 1_655 S
C103 C102 1.389 1_455 S
C103 C104 1.387 . S
C104 H89 0.930 . S
C104 C99 1.390 . S
C104 C103 1.387 . S
H105 C117 0.930 . S
H106 C119 0.930 . S
H107 C120 0.930 . S
H108 C124 0.959 . S
H109 C124 0.959 . S
H110 C124 0.961 . S
H111 C125 0.960 . S
H112 C125 0.961 . S
H113 C125 0.959 . S
H114 C128 0.929 . S
H115 C129 0.931 . S
H116 C131 0.930 . S
C117 H105 0.930 . S
C117 C118 1.399 1_565 S
C117 C122 1.399 . S
C118 C117 1.399 1_545 S
C118 C119 1.376 . S
C119 H106 0.930 . S
C119 C118 1.376 . S
C119 C120 1.388 . S
C120 H107 0.930 . S
C120 C119 1.388 . S
C120 C121 1.390 . S
C121 C120 1.390 . S
C121 C122 1.394 1_545 S
C121 C127 1.465 . S
C122 C117 1.399 . S
C122 C121 1.394 1_565 S
C122 C123 1.516 . S
C123 C122 1.516 . S
C123 C124 1.502 . S
C123 C125 1.561 . S
C123 C126 1.526 . S
C124 H108 0.959 . S
C124 H109 0.959 . S
C124 H110 0.961 . S
C124 C123 1.502 . S
C125 H111 0.960 . S
C125 H112 0.961 . S
C125 H113 0.959 . S
C125 C123 1.561 . S
C126 C123 1.526 . S
C126 C127 1.396 1_565 S
C126 C131 1.390 . S
C127 C121 1.465 . S
C127 C126 1.396 1_545 S
C127 C128 1.399 . S
C128 H114 0.929 . S
C128 C127 1.399 . S
C128 C129 1.385 . S
C129 H115 0.931 . S
C129 C128 1.385 . S
C129 C130 1.389 . S
C130 C129 1.389 . S
C130 C131 1.387 1_545 S
C131 H116 0.930 . S
C131 C126 1.390 . S
C131 C130 1.387 1_565 S
H132 C144 0.930 . S
H133 C146 0.930 . S
H134 C147 0.930 . S
H135 C151 0.959 . S
H136 C151 0.959 . S
H137 C151 0.961 . S
H138 C152 0.960 . S
H139 C152 0.961 . S
H140 C152 0.959 . S
H141 C155 0.929 . S
H142 C156 0.931 . S
H143 C158 0.930 . S
C144 H132 0.930 . S
C144 C145 1.399 . S
C144 C149 1.399 . S
C145 C144 1.399 . S
C145 C146 1.376 . S
C146 H133 0.930 . S
C146 C145 1.376 . S
C146 C147 1.388 . S
C147 H134 0.930 . S
C147 C146 1.388 . S
C147 C148 1.390 . S
C148 C147 1.390 . S
C148 C149 1.394 . S
C148 C154 1.465 . S
C149 C144 1.399 . S
C149 C148 1.394 . S
C149 C150 1.516 . S
C150 C149 1.516 . S
C150 C151 1.502 . S
C150 C152 1.561 . S
C150 C153 1.526 . S
C151 H135 0.959 . S
C151 H136 0.959 . S
C151 H137 0.961 . S
C151 C150 1.502 . S
C152 H138 0.960 . S
C152 H139 0.961 . S
C152 H140 0.959 . S
C152 C150 1.561 . S
C153 C150 1.526 . S
C153 C154 1.396 . S
C153 C158 1.390 . S
C154 C148 1.465 . S
C154 C153 1.396 . S
C154 C155 1.399 . S
C155 H141 0.929 . S
C155 C154 1.399 . S
C155 C156 1.385 . S
C156 H142 0.931 . S
C156 C155 1.385 . S
C156 C157 1.389 . S
C157 C156 1.389 . S
C157 C158 1.387 . S
C158 H143 0.930 . S
C158 C153 1.390 . S
C158 C157 1.387 . S
H159 C171 0.930 . S
H160 C173 0.930 . S
H161 C174 0.930 . S
H162 C178 0.959 . S
H163 C178 0.959 . S
H164 C178 0.961 . S
H165 C179 0.960 . S
H166 C179 0.961 . S
H167 C179 0.959 . S
H168 C182 0.929 . S
H169 C183 0.931 . S
H170 C185 0.930 . S
C171 H159 0.930 . S
C171 C172 1.399 1_565 S
C171 C176 1.399 . S
C172 C171 1.399 1_545 S
C172 C173 1.376 . S
C173 H160 0.930 . S
C173 C172 1.376 . S
C173 C174 1.388 . S
C174 H161 0.930 . S
C174 C173 1.388 . S
C174 C175 1.390 . S
C175 C174 1.390 . S
C175 C176 1.394 1_545 S
C175 C181 1.465 . S
C176 C171 1.399 . S
C176 C175 1.394 1_565 S
C176 C177 1.516 . S
C177 C176 1.516 . S
C177 C178 1.502 . S
C177 C179 1.561 . S
C177 C180 1.526 . S
C178 H162 0.959 . S
C178 H163 0.959 . S
C178 H164 0.961 . S
C178 C177 1.502 . S
C179 H165 0.960 . S
C179 H166 0.961 . S
C179 H167 0.959 . S
C179 C177 1.561 . S
C180 C177 1.526 . S
C180 C181 1.396 1_565 S
C180 C185 1.390 . S
C181 C175 1.465 . S
C181 C180 1.396 1_545 S
C181 C182 1.399 . S
C182 H168 0.929 . S
C182 C181 1.399 . S
C182 C183 1.385 . S
C183 H169 0.931 . S
C183 C182 1.385 . S
C183 C184 1.389 . S
C184 C183 1.389 . S
C184 C185 1.387 1_545 S
C185 H170 0.930 . S
C185 C180 1.390 . S
C185 C184 1.387 1_565 S
H186 C198 0.930 . S
H187 C200 0.930 . S
H188 C201 0.930 . S
H189 C205 0.959 . S
H190 C205 0.959 . S
H191 C205 0.961 . S
H192 C206 0.960 . S
H193 C206 0.961 . S
H194 C206 0.959 . S
H195 C209 0.929 . S
H196 C210 0.931 . S
H197 C212 0.930 . S
C198 H186 0.930 . S
C198 C199 1.399 . S
C198 C203 1.399 . S
C199 C198 1.399 . S
C199 C200 1.376 . S
C200 H187 0.930 . S
C200 C199 1.376 . S
C200 C201 1.388 . S
C201 H188 0.930 . S
C201 C200 1.388 . S
C201 C202 1.390 . S
C202 C201 1.390 . S
C202 C203 1.394 . S
C202 C208 1.465 . S
C203 C198 1.399 . S
C203 C202 1.394 . S
C203 C204 1.516 . S
C204 C203 1.516 . S
C204 C205 1.502 . S
C204 C206 1.561 . S
C204 C207 1.526 . S
C205 H189 0.959 . S
C205 H190 0.959 . S
C205 H191 0.961 . S
C205 C204 1.502 . S
C206 H192 0.960 . S
C206 H193 0.961 . S
C206 H194 0.959 . S
C206 C204 1.561 . S
C207 C204 1.526 . S
C207 C208 1.396 . S
C207 C212 1.390 . S
C208 C202 1.465 . S
C208 C207 1.396 . S
C208 C209 1.399 . S
C209 H195 0.929 . S
C209 C208 1.399 . S
C209 C210 1.385 . S
C210 H196 0.931 . S
C210 C209 1.385 . S
C210 C211 1.389 . S
C211 C210 1.389 . S
C211 C212 1.387 . S
C212 H197 0.930 . S
C212 C207 1.390 . S
C212 C211 1.387 . S
H213 C225 0.930 . S
H214 C227 0.930 . S
H215 C228 0.930 1_655 S
H216 C232 0.959 . S
H217 C232 0.959 . S
H218 C232 0.961 . S
H219 C233 0.960 . S
H220 C233 0.961 . S
H221 C233 0.959 . S
H222 C236 0.929 1_655 S
H223 C237 0.931 . S
H224 C239 0.930 . S
C225 H213 0.930 . S
C225 C226 1.399 . S
C225 C230 1.399 . S
C226 C225 1.399 . S
C226 C227 1.376 . S
C227 H214 0.930 . S
C227 C226 1.376 . S
C227 C228 1.388 . S
C228 H215 0.930 1_455 S
C228 C227 1.388 . S
C228 C229 1.390 . S
C229 C228 1.390 . S
C229 C230 1.394 . S
C229 C235 1.465 . S
C230 C225 1.399 . S
C230 C229 1.394 . S
C230 C231 1.516 . S
C231 C230 1.516 . S
C231 C232 1.502 . S
C231 C233 1.561 1_455 S
C231 C234 1.526 . S
C232 H216 0.959 . S
C232 H217 0.959 . S
C232 H218 0.961 . S
C232 C231 1.502 . S
C233 H219 0.960 . S
C233 H220 0.961 . S
C233 H221 0.959 . S
C233 C231 1.561 1_655 S
C234 C231 1.526 . S
C234 C235 1.396 . S
C234 C239 1.390 . S
C235 C229 1.465 . S
C235 C234 1.396 . S
C235 C236 1.399 . S
C236 H222 0.929 1_455 S
C236 C235 1.399 . S
C236 C237 1.385 . S
C237 H223 0.931 . S
C237 C236 1.385 . S
C237 C238 1.389 . S
C238 C237 1.389 . S
C238 C239 1.387 . S
C239 H224 0.930 . S
C239 C234 1.390 . S
C239 C238 1.387 . S
H240 C252 0.930 . S
H241 C254 0.930 . S
H242 C255 0.930 . S
H243 C259 0.959 . S
H244 C259 0.959 . S
H245 C259 0.961 . S
H246 C260 0.960 . S
H247 C260 0.961 . S
H248 C260 0.959 . S
H249 C263 0.929 . S
H250 C264 0.931 . S
H251 C266 0.930 . S
C252 H240 0.930 . S
C252 C253 1.399 . S
C252 C257 1.399 . S
C253 C252 1.399 . S
C253 C254 1.376 1_545 S
C254 H241 0.930 . S
C254 C253 1.376 1_565 S
C254 C255 1.388 . S
C255 H242 0.930 . S
C255 C254 1.388 . S
C255 C256 1.390 . S
C256 C255 1.390 . S
C256 C257 1.394 1_565 S
C256 C262 1.465 . S
C257 C252 1.399 . S
C257 C256 1.394 1_545 S
C257 C258 1.516 . S
C258 C257 1.516 . S
C258 C259 1.502 1_455 S
C258 C260 1.561 . S
C258 C261 1.526 . S
C259 H243 0.959 . S
C259 H244 0.959 . S
C259 H245 0.961 . S
C259 C258 1.502 1_655 S
C260 H246 0.960 . S
C260 H247 0.961 . S
C260 H248 0.959 . S
C260 C258 1.561 . S
C261 C258 1.526 . S
C261 C262 1.396 1_545 S
C261 C266 1.390 . S
C262 C256 1.465 . S
C262 C261 1.396 1_565 S
C262 C263 1.399 . S
C263 H249 0.929 . S
C263 C262 1.399 . S
C263 C264 1.385 . S
C264 H250 0.931 . S
C264 C263 1.385 . S
C264 C265 1.389 1_565 S
C265 C264 1.389 1_545 S
C265 C266 1.387 . S
C266 H251 0.930 . S
C266 C261 1.390 . S
C266 C265 1.387 . S
H267 C279 0.930 . S
H268 C281 0.930 . S
H269 C282 0.930 . S
H270 C286 0.959 . S
H271 C286 0.959 . S
H272 C286 0.961 . S
H273 C287 0.960 1_565 S
H274 C287 0.961 1_565 S
H275 C287 0.959 . S
H276 C290 0.929 . S
H277 C291 0.931 . S
H278 C293 0.930 . S
C279 H267 0.930 . S
C279 C280 1.399 1_665 S
C279 C284 1.399 . S
C280 C279 1.399 1_445 S
C280 C281 1.376 . S
C281 H268 0.930 . S
C281 C280 1.376 . S
C281 C282 1.388 . S
C282 H269 0.930 . S
C282 C281 1.388 . S
C282 C283 1.390 . S
C283 C282 1.390 . S
C283 C284 1.394 1_445 S
C283 C289 1.465 . S
C284 C279 1.399 . S
C284 C283 1.394 1_665 S
C284 C285 1.516 . S
C285 C284 1.516 . S
C285 C286 1.502 . S
C285 C287 1.561 1_565 S
C285 C288 1.526 1_565 S
C286 H270 0.959 . S
C286 H271 0.959 . S
C286 H272 0.961 . S
C286 C285 1.502 . S
C287 H273 0.960 1_545 S
C287 H274 0.961 1_545 S
C287 H275 0.959 . S
C287 C285 1.561 1_545 S
C288 C285 1.526 1_545 S
C288 C289 1.396 1_655 S
C288 C293 1.390 1_545 S
C289 C283 1.465 . S
C289 C288 1.396 1_455 S
C289 C290 1.399 . S
C290 H276 0.929 . S
C290 C289 1.399 . S
C290 C291 1.385 . S
C291 H277 0.931 . S
C291 C290 1.385 . S
C291 C292 1.389 . S
C292 C291 1.389 . S
C292 C293 1.387 1_445 S
C293 H278 0.930 . S
C293 C288 1.390 1_565 S
C293 C292 1.387 1_665 S
H294 C306 0.930 . S
H295 C308 0.930 . S
H296 C309 0.930 . S
H297 C313 0.959 . S
H298 C313 0.959 . S
H299 C313 0.961 . S
H300 C314 0.960 . S
H301 C314 0.961 . S
H302 C314 0.959 1_455 S
H303 C317 0.929 . S
H304 C318 0.931 . S
H305 C320 0.930 . S
C306 H294 0.930 . S
C306 C307 1.399 1_665 S
C306 C311 1.399 . S
C307 C306 1.399 1_445 S
C307 C308 1.376 . S
C308 H295 0.930 . S
C308 C307 1.376 . S
C308 C309 1.388 . S
C309 H296 0.930 . S
C309 C308 1.388 . S
C309 C310 1.390 . S
C310 C309 1.390 . S
C310 C311 1.394 1_445 S
C310 C316 1.465 . S
C311 C306 1.399 . S
C311 C310 1.394 1_665 S
C311 C312 1.516 . S
C312 C311 1.516 . S
C312 C313 1.502 . S
C312 C314 1.561 . S
C312 C315 1.526 . S
C313 H297 0.959 . S
C313 H298 0.959 . S
C313 H299 0.961 . S
C313 C312 1.502 . S
C314 H300 0.960 . S
C314 H301 0.961 . S
C314 H302 0.959 1_655 S
C314 C312 1.561 . S
C315 C312 1.526 . S
C315 C316 1.396 1_665 S
C315 C320 1.390 . S
C316 C310 1.465 . S
C316 C315 1.396 1_445 S
C316 C317 1.399 . S
C317 H303 0.929 . S
C317 C316 1.399 . S
C317 C318 1.385 . S
C318 H304 0.931 . S
C318 C317 1.385 . S
C318 C319 1.389 . S
C319 C318 1.389 . S
C319 C320 1.387 1_445 S
C320 H305 0.930 . S
C320 C315 1.390 . S
C320 C319 1.387 1_665 S
H321 C333 0.930 . S
H322 C335 0.930 . S
H323 C336 0.930 . S
H324 C340 0.958 . S
H325 C340 0.955 . S
H326 C340 0.966 1_554 S
H327 C341 0.968 1_554 S
H328 C341 0.954 . S
H329 C341 0.954 . S
H330 C344 0.929 1_655 S
H331 C345 0.928 . S
H332 C347 0.930 . S
C333 H321 0.930 . S
C333 C334 1.399 . S
C333 C338 1.399 . S
C334 C333 1.399 . S
C334 C335 1.376 1_545 S
C335 H322 0.930 . S
C335 C334 1.376 1_565 S
C335 C336 1.388 . S
C336 H323 0.930 . S
C336 C335 1.388 . S
C336 C337 1.390 . S
C337 C336 1.390 . S
C337 C338 1.394 1_565 S
C337 C343 1.465 1_554 S
C338 C333 1.399 . S
C338 C337 1.394 1_545 S
C338 C339 1.514 . S
C339 C338 1.514 . S
C339 C340 1.502 1_454 S
C339 C341 1.562 1_554 S
C339 C342 1.528 1_554 S
C340 H324 0.958 . S
C340 H325 0.955 . S
C340 H326 0.966 1_556 S
C340 C339 1.502 1_656 S
C341 H327 0.968 1_556 S
C341 H328 0.954 . S
C341 H329 0.954 . S
C341 C339 1.562 1_556 S
C342 C339 1.528 1_556 S
C342 C343 1.396 1_545 S
C342 C347 1.390 . S
C343 C337 1.465 1_556 S
C343 C342 1.396 1_565 S
C343 C344 1.399 . S
C344 H330 0.929 1_455 S
C344 C343 1.399 . S
C344 C345 1.383 1_455 S
C345 H331 0.928 . S
C345 C344 1.383 1_655 S
C345 C346 1.394 1_665 S
C346 C345 1.394 1_445 S
C346 C347 1.387 . S
C347 H332 0.930 . S
C347 C342 1.390 . S
C347 C346 1.387 . S
H348 C360 0.930 . S
H349 C362 0.930 . S
H350 C363 0.930 . S
H351 C367 0.959 . S
H352 C367 0.959 . S
H353 C367 0.961 . S
H354 C368 0.960 . S
H355 C368 0.961 . S
H356 C368 0.959 . S
H357 C371 0.929 . S
H358 C372 0.931 . S
H359 C374 0.930 . S
C360 H348 0.930 . S
C360 C361 1.399 . S
C360 C365 1.399 . S
C361 C360 1.399 . S
C361 C362 1.376 1_445 S
C362 H349 0.930 . S
C362 C361 1.376 1_665 S
C362 C363 1.388 . S
C363 H350 0.930 . S
C363 C362 1.388 . S
C363 C364 1.390 . S
C364 C363 1.390 . S
C364 C365 1.394 1_665 S
C364 C370 1.465 . S
C365 C360 1.399 . S
C365 C364 1.394 1_445 S
C365 C366 1.516 . S
C366 C365 1.516 . S
C366 C367 1.502 . S
C366 C368 1.561 . S
C366 C369 1.526 . S
C367 H351 0.959 . S
C367 H352 0.959 . S
C367 H353 0.961 . S
C367 C366 1.502 . S
C368 H354 0.960 . S
C368 H355 0.961 . S
C368 H356 0.959 . S
C368 C366 1.561 . S
C369 C366 1.526 . S
C369 C370 1.396 1_445 S
C369 C374 1.390 . S
C370 C364 1.465 . S
C370 C369 1.396 1_665 S
C370 C371 1.399 . S
C371 H357 0.929 . S
C371 C370 1.399 . S
C371 C372 1.385 . S
C372 H358 0.931 . S
C372 C371 1.385 . S
C372 C373 1.389 1_665 S
C373 C372 1.389 1_445 S
C373 C374 1.387 . S
C374 H359 0.930 . S
C374 C369 1.390 . S
C374 C373 1.387 . S
H375 C387 0.930 . S
H376 C389 0.930 . S
H377 C390 0.930 . S
H378 C394 0.959 . S
H379 C394 0.959 . S
H380 C394 0.961 . S
H381 C395 0.960 . S
H382 C395 0.961 . S
H383 C395 0.959 . S
H384 C398 0.929 . S
H385 C399 0.931 . S
H386 C401 0.930 . S
C387 H375 0.930 . S
C387 C388 1.399 . S
C387 C392 1.399 . S
C388 C387 1.399 . S
C388 C389 1.376 1_445 S
C389 H376 0.930 . S
C389 C388 1.376 1_665 S
C389 C390 1.388 . S
C390 H377 0.930 . S
C390 C389 1.388 . S
C390 C391 1.390 . S
C391 C390 1.390 . S
C391 C392 1.394 1_665 S
C391 C397 1.465 . S
C392 C387 1.399 . S
C392 C391 1.394 1_445 S
C392 C393 1.516 . S
C393 C392 1.516 . S
C393 C394 1.502 . S
C393 C395 1.561 . S
C393 C396 1.526 . S
C394 H378 0.959 . S
C394 H379 0.959 . S
C394 H380 0.961 . S
C394 C393 1.502 . S
C395 H381 0.960 . S
C395 H382 0.961 . S
C395 H383 0.959 . S
C395 C393 1.561 . S
C396 C393 1.526 . S
C396 C397 1.396 1_445 S
C396 C401 1.390 . S
C397 C391 1.465 . S
C397 C396 1.396 1_665 S
C397 C398 1.399 . S
C398 H384 0.929 . S
C398 C397 1.399 . S
C398 C399 1.385 . S
C399 H385 0.931 . S
C399 C398 1.385 . S
C399 C400 1.389 1_665 S
C400 C399 1.389 1_445 S
C400 C401 1.387 . S
C401 H386 0.930 . S
C401 C396 1.390 . S
C401 C400 1.387 . S
C91 C1 1.493 . S
C103 C3 1.494 . S
C118 C16 1.498 . S
C130 C14 1.497 . S
C145 C27 1.493 . S
C157 C29 1.493 . S
C172 C40 1.499 . S
C184 C42 1.499 . S
C199 C53 1.482 . S
C211 C55 1.474 . S
C226 C66 1.489 . S
C238 C68 1.490 . S
C253 C70 1.473 . S
C265 C5 1.485 . S
C280 C44 1.501 . S
C292 C18 1.494 . S
C307 C31 1.479 . S
C319 C57 1.483 . S
C334 C10 1.480 . S
C346 C62 1.476 . S
C361 C75 1.500 . S
C373 C23 1.471 . S
C388 C49 1.484 . S
C400 C36 1.482 . S
