# Generated by pormake.
# Topology npo, (4)-cn, num edge types: 1
# Building blocks:
#     Node 0, Type 0, BuildingBlock: KUFVIS_clean_sbu_0, # of connection points: 4
#     Node 1, Type 0, BuildingBlock: KUFVIS_clean_sbu_0, # of connection points: 4
#     Node 2, Type 0, BuildingBlock: KUFVIS_clean_sbu_0, # of connection points: 4
#     Node 3, Type 0, BuildingBlock: KUFVIS_clean_sbu_0, # of connection points: 4
#     Node 4, Type 0, BuildingBlock: KUFVIS_clean_sbu_0, # of connection points: 4
#     Node 5, Type 0, BuildingBlock: KUFVIS_clean_sbu_0, # of connection points: 4
#     Edge 6, Type (0, 0), BuildingBlock: UKIBUN_clean_linker_0, # of connection points: 2
#     Edge 7, Type (0, 0), BuildingBlock: UKIBUN_clean_linker_0, # of connection points: 2
#     Edge 8, Type (0, 0), BuildingBlock: UKIBUN_clean_linker_0, # of connection points: 2
#     Edge 9, Type (0, 0), BuildingBlock: UKIBUN_clean_linker_0, # of connection points: 2
#     Edge 10, Type (0, 0), BuildingBlock: UKIBUN_clean_linker_0, # of connection points: 2
#     Edge 11, Type (0, 0), BuildingBlock: UKIBUN_clean_linker_0, # of connection points: 2
#     Edge 12, Type (0, 0), BuildingBlock: UKIBUN_clean_linker_0, # of connection points: 2
#     Edge 13, Type (0, 0), BuildingBlock: UKIBUN_clean_linker_0, # of connection points: 2
#     Edge 14, Type (0, 0), BuildingBlock: UKIBUN_clean_linker_0, # of connection points: 2
#     Edge 15, Type (0, 0), BuildingBlock: UKIBUN_clean_linker_0, # of connection points: 2
#     Edge 16, Type (0, 0), BuildingBlock: UKIBUN_clean_linker_0, # of connection points: 2
#     Edge 17, Type (0, 0), BuildingBlock: UKIBUN_clean_linker_0, # of connection points: 2
# Relax obj value: 0.273
# Max RMSD: 0.233
# Mean RMSD: 0.232
data_MOF--net-npo--node1-KUFVIS_clean_sbu_0--edge1-UKIBUN_clean_linker_0
_symmetry_space_group_name_H-M    P1
_symmetry_Int_Tables_number       1
_symmetry_cell_setting            triclinic
loop_
_symmetry_equiv_pos_as_xyz
'x, y, z'
_cell_length_a     71.216653
_cell_length_b     75.566129
_cell_length_c     39.159067
_cell_angle_alpha  89.982591
_cell_angle_beta   90.944161
_cell_angle_gamma 122.01113
loop_
_atom_site_label
_atom_site_type_symbol
_atom_site_fract_x
_atom_site_fract_y
_atom_site_fract_z
_atom_type_partial_charge
Mn0 Mn 0.52686 0.10138 0.26031 0.0
Mn1 Mn 0.56361 0.08636 0.25474 0.0
C2 C 0.56308 0.12304 0.27898 0.0
C3 C 0.51074 0.11945 0.24065 0.0
C4 C 0.52747 0.06949 0.30696 0.0
O5 O 0.51257 0.07842 0.22385 0.0
O6 O 0.53926 0.0707 0.22085 0.0
C7 C 0.58183 0.09863 0.18549 0.0
N8 N 0.58491 0.10083 0.22002 0.0
C9 C 0.62456 0.12054 0.2144 0.0
C10 C 0.62178 0.11856 0.1788 0.0
C11 C 0.60033 0.10762 0.16429 0.0
C12 C 0.60552 0.11134 0.23424 0.0
H13 H 0.5654 0.08963 0.17423 0.0
C14 C 0.52085 0.0685 0.211 0.0
O15 O 0.50106 0.10483 0.26314 0.0
O16 O 0.52876 0.12237 0.22762 0.0
N17 N 0.58788 0.10115 0.28642 0.0
C18 C 0.58769 0.10083 0.32122 0.0
C19 C 0.60781 0.11147 0.33973 0.0
C20 C 0.6279 0.12196 0.32228 0.0
C21 C 0.62766 0.12203 0.28646 0.0
C22 C 0.60707 0.1117 0.2694 0.0
H23 H 0.5723 0.09252 0.33476 0.0
O24 O 0.54731 0.12453 0.29188 0.0
O25 O 0.55702 0.10832 0.25649 0.0
O26 O 0.51932 0.08036 0.2987 0.0
O27 O 0.54345 0.07034 0.29147 0.0
C28 C 0.64703 0.13158 0.267 0.0
C29 C 0.64549 0.13068 0.23101 0.0
H30 H 0.636 0.12513 0.16237 0.0
H31 H 0.59806 0.10576 0.13684 0.0
H32 H 0.60783 0.11136 0.36737 0.0
H33 H 0.64341 0.12982 0.33664 0.0
H34 H 0.6632 0.1394 0.27947 0.0
H35 H 0.6605 0.13772 0.21633 0.0
Mn36 Mn 0.41383 0.5456 0.73243 0.0
Mn37 Mn 0.37765 0.49379 0.74064 0.0
C38 C 0.37722 0.53068 0.71577 0.0
C39 C 0.43121 0.58029 0.75087 0.0
C40 C 0.41339 0.51251 0.68756 0.0
O41 O 0.42869 0.53751 0.76848 0.0
O42 O 0.40232 0.50315 0.7748 0.0
C43 C 0.35912 0.48744 0.80976 0.0
N44 N 0.35615 0.4866 0.77522 0.0
C45 C 0.31645 0.46613 0.78053 0.0
C46 C 0.31913 0.46694 0.81615 0.0
C47 C 0.34055 0.47766 0.83081 0.0
C48 C 0.33557 0.4761 0.76085 0.0
H49 H 0.37554 0.49506 0.82113 0.0
C50 C 0.42088 0.51981 0.78287 0.0
O51 O 0.43993 0.57447 0.72811 0.0
O52 O 0.41303 0.56572 0.76454 0.0
N53 N 0.35336 0.48398 0.70882 0.0
C54 C 0.35369 0.4846 0.67404 0.0
C55 C 0.33363 0.47537 0.65539 0.0
C56 C 0.31346 0.4653 0.67266 0.0
C57 C 0.31358 0.46499 0.70848 0.0
C58 C 0.33411 0.47502 0.7257 0.0
H59 H 0.36913 0.49214 0.66061 0.0
O60 O 0.39266 0.54767 0.70159 0.0
O61 O 0.38385 0.52232 0.73805 0.0
O62 O 0.42105 0.53158 0.69463 0.0
O63 O 0.39779 0.49767 0.704 0.0
C64 C 0.29414 0.455 0.72777 0.0
C65 C 0.29558 0.45538 0.76377 0.0
H66 H 0.30486 0.45918 0.83246 0.0
H67 H 0.34273 0.47805 0.85827 0.0
H68 H 0.3337 0.47583 0.62776 0.0
H69 H 0.298 0.4579 0.65818 0.0
H70 H 0.27801 0.44682 0.71518 0.0
H71 H 0.28052 0.44735 0.77832 0.0
Mn72 Mn 0.84294 0.42842 0.24405 0.0
Mn73 Mn 0.86936 0.4026 0.25305 0.0
C74 C 0.82548 0.39375 0.22834 0.0
C75 C 0.81814 0.43767 0.26076 0.0
C76 C 0.87972 0.43446 0.19794 0.0
O77 O 0.86665 0.44594 0.27976 0.0
O78 O 0.88224 0.42653 0.28624 0.0
C79 C 0.8604 0.38588 0.32329 0.0
N80 N 0.85834 0.38252 0.28889 0.0
C81 C 0.84462 0.34598 0.29638 0.0
C82 C 0.84649 0.34908 0.33186 0.0
C83 C 0.85437 0.3691 0.34536 0.0
C84 C 0.85097 0.3633 0.27565 0.0
H85 H 0.867 0.40133 0.33381 0.0
C86 C 0.88021 0.44194 0.29421 0.0
O87 O 0.83335 0.44861 0.23869 0.0
O88 O 0.8189 0.42273 0.27572 0.0
N89 N 0.85725 0.37907 0.22262 0.0
C90 C 0.85559 0.37858 0.18786 0.0
C91 C 0.84694 0.35952 0.17034 0.0
C92 C 0.84026 0.34121 0.18871 0.0
C93 C 0.84179 0.34206 0.2245 0.0
C94 C 0.85007 0.36144 0.24057 0.0
H95 H 0.86065 0.39258 0.17359 0.0
O96 O 0.82042 0.40608 0.21346 0.0
O97 O 0.84176 0.40247 0.25052 0.0
O98 O 0.86543 0.43881 0.20599 0.0
O99 O 0.88279 0.42182 0.21477 0.0
C100 C 0.83538 0.32444 0.24485 0.0
C101 C 0.83697 0.32644 0.28077 0.0
H102 H 0.84206 0.33622 0.34898 0.0
H103 H 0.8561 0.37164 0.37273 0.0
H104 H 0.84553 0.35898 0.14275 0.0
H105 H 0.83382 0.32656 0.1751 0.0
H106 H 0.82923 0.3093 0.23315 0.0
H107 H 0.83216 0.3128 0.29616 0.0
Mn108 Mn 0.44381 0.86755 0.75808 0.0
Mn109 Mn 0.41107 0.88717 0.75005 0.0
C110 C 0.40729 0.84842 0.77499 0.0
C111 C 0.45792 0.84734 0.74135 0.0
C112 C 0.44767 0.90214 0.80327 0.0
O113 O 0.45961 0.88999 0.72196 0.0
O114 O 0.43556 0.90097 0.71696 0.0
C115 C 0.39166 0.87571 0.68033 0.0
N116 N 0.38895 0.87382 0.71476 0.0
C117 C 0.34943 0.85743 0.70802 0.0
C118 C 0.35181 0.85903 0.6725 0.0
C119 C 0.37301 0.86817 0.6586 0.0
C120 C 0.36859 0.86511 0.7284 0.0
H121 H 0.40799 0.88344 0.66957 0.0
C122 C 0.45316 0.9014 0.70852 0.0
O123 O 0.46827 0.86239 0.76344 0.0
O124 O 0.44023 0.84505 0.72679 0.0
N125 N 0.38701 0.87452 0.78105 0.0
C126 C 0.38772 0.87541 0.81585 0.0
C127 C 0.36788 0.86669 0.83381 0.0
C128 C 0.34758 0.85754 0.81581 0.0
C129 C 0.34731 0.85692 0.77999 0.0
C130 C 0.36757 0.86528 0.76351 0.0
H131 H 0.40329 0.88273 0.82982 0.0
O132 O 0.42209 0.84554 0.78904 0.0
O133 O 0.41452 0.86309 0.75242 0.0
O134 O 0.4536 0.88951 0.79577 0.0
O135 O 0.43232 0.90263 0.78729 0.0
C136 C 0.32779 0.84878 0.75999 0.0
C137 C 0.32886 0.8492 0.72403 0.0
H138 H 0.33752 0.85363 0.65567 0.0
H139 H 0.37501 0.86983 0.63122 0.0
H140 H 0.36826 0.86725 0.86145 0.0
H141 H 0.33234 0.85119 0.82973 0.0
H142 H 0.31191 0.84249 0.77199 0.0
H143 H 0.31379 0.84335 0.70892 0.0
Mn144 Mn 0.49711 0.39518 0.23583 0.0
Mn145 Mn 0.53039 0.44744 0.24213 0.0
C146 C 0.53339 0.41189 0.21735 0.0
C147 C 0.48414 0.36149 0.2547 0.0
C148 C 0.4934 0.42545 0.18953 0.0
O149 O 0.48178 0.40239 0.2722 0.0
O150 O 0.50666 0.4371 0.27596 0.0
C151 C 0.55021 0.45497 0.31149 0.0
N152 N 0.55271 0.45609 0.27698 0.0
C153 C 0.59222 0.47909 0.28327 0.0
C154 C 0.59006 0.47808 0.31885 0.0
C155 C 0.56896 0.46591 0.33301 0.0
C156 C 0.57295 0.46772 0.26308 0.0
H157 H 0.53398 0.44624 0.32253 0.0
C158 C 0.48917 0.4204 0.2858 0.0
O159 O 0.47292 0.36523 0.23257 0.0
O160 O 0.50154 0.37753 0.26846 0.0
N161 N 0.55418 0.45886 0.21065 0.0
C162 C 0.55323 0.45967 0.17593 0.0
C163 C 0.57294 0.47118 0.15777 0.0
C164 C 0.59335 0.48209 0.17552 0.0
C165 C 0.59387 0.48125 0.21128 0.0
C166 C 0.57373 0.46905 0.22795 0.0
H167 H 0.53757 0.45166 0.16218 0.0
O168 O 0.51818 0.39401 0.20455 0.0
O169 O 0.52668 0.41987 0.2398 0.0
O170 O 0.4872 0.40683 0.19723 0.0
O171 O 0.50875 0.44136 0.20538 0.0
C172 C 0.6135 0.49253 0.23108 0.0
C173 C 0.61266 0.49157 0.26704 0.0
H174 H 0.60443 0.48685 0.33554 0.0
H175 H 0.56711 0.46533 0.36044 0.0
H176 H 0.57237 0.47185 0.13018 0.0
H177 H 0.60849 0.49127 0.16146 0.0
H178 H 0.62929 0.50231 0.21892 0.0
H179 H 0.62781 0.50071 0.282 0.0
Mn180 Mn 0.0969 0.55508 0.74983 0.0
Mn181 Mn 0.07115 0.50302 0.73977 0.0
C182 C 0.11394 0.53761 0.76648 0.0
C183 C 0.12222 0.58928 0.73401 0.0
C184 C 0.05902 0.52352 0.7939 0.0
O185 O 0.074 0.54916 0.71274 0.0
O186 O 0.05798 0.51405 0.70706 0.0
C187 C 0.08093 0.49624 0.66958 0.0
N188 N 0.08307 0.4949 0.70395 0.0
C189 C 0.09711 0.47235 0.6962 0.0
C190 C 0.09516 0.4736 0.66074 0.0
C191 C 0.08709 0.48564 0.64739 0.0
C192 C 0.09072 0.48323 0.71705 0.0
H193 H 0.07402 0.50487 0.65922 0.0
C194 C 0.06013 0.53152 0.69874 0.0
O195 O 0.10666 0.58496 0.75546 0.0
O196 O 0.12165 0.57362 0.71932 0.0
N197 N 0.08335 0.49165 0.77012 0.0
C198 C 0.08451 0.49236 0.80492 0.0
C199 C 0.09315 0.48193 0.82238 0.0
C200 C 0.10026 0.47068 0.8039 0.0
C201 C 0.09927 0.47051 0.76808 0.0
C202 C 0.09116 0.48178 0.7521 0.0
H203 H 0.07912 0.50102 0.81923 0.0
O204 O 0.11878 0.55483 0.78169 0.0
O205 O 0.09828 0.53049 0.74342 0.0
O206 O 0.07306 0.54237 0.7864 0.0
O207 O 0.0571 0.50811 0.77766 0.0
C208 C 0.1059 0.45954 0.7476 0.0
C209 C 0.1046 0.46027 0.71168 0.0
H210 H 0.09955 0.46519 0.64354 0.0
H211 H 0.08523 0.48642 0.62005 0.0
H212 H 0.09418 0.48243 0.85001 0.0
H213 H 0.10659 0.46235 0.81746 0.0
H214 H 0.11186 0.45036 0.75922 0.0
H215 H 0.1094 0.45148 0.6962 0.0
C216 C 0.51487 0.15152 0.26421 0.0
C217 C 0.50604 0.13611 0.23849 0.0
C218 C 0.51349 0.16919 0.26115 0.0
C219 C 0.51387 0.24014 0.2546 0.0
C220 C 0.46885 0.32544 0.23174 0.0
C221 C 0.48095 0.34055 0.25736 0.0
C222 C 0.47101 0.30818 0.22818 0.0
C223 C 0.48742 0.24541 0.20717 0.0
H224 H 0.52352 0.15021 0.28615 0.0
H225 H 0.52087 0.18114 0.28092 0.0
H226 H 0.52394 0.23813 0.27336 0.0
H227 H 0.459 0.32769 0.21293 0.0
H228 H 0.46255 0.29734 0.20713 0.0
H229 H 0.47695 0.24718 0.18889 0.0
C230 C 0.49534 0.1383 0.20993 0.0
C231 C 0.49374 0.15597 0.20704 0.0
C232 C 0.48977 0.22824 0.20434 0.0
C233 C 0.49372 0.33711 0.28105 0.0
C234 C 0.49575 0.31979 0.27756 0.0
C235 C 0.51153 0.25733 0.25743 0.0
C236 C 0.50317 0.17161 0.2324 0.0
C237 C 0.50276 0.19039 0.22898 0.0
C238 C 0.50303 0.20647 0.22779 0.0
C239 C 0.50262 0.22532 0.22846 0.0
H240 H 0.48862 0.12662 0.18973 0.0
H241 H 0.48559 0.15763 0.18476 0.0
H242 H 0.48106 0.21694 0.18395 0.0
H243 H 0.50323 0.34846 0.30103 0.0
H244 H 0.50651 0.31795 0.29511 0.0
H245 H 0.51983 0.26837 0.27829 0.0
C246 C 0.48506 0.30572 0.25038 0.0
C247 C 0.48962 0.28959 0.24408 0.0
C248 C 0.49361 0.27617 0.23915 0.0
C249 C 0.49789 0.25975 0.23416 0.0
C250 C 0.34525 0.52409 0.75014 0.0
C251 C 0.35515 0.52765 0.71802 0.0
C252 C 0.32792 0.52728 0.7551 0.0
C253 C 0.26437 0.54603 0.77549 0.0
C254 C 0.14029 0.53438 0.73099 0.0
C255 C 0.13177 0.53352 0.76351 0.0
C256 C 0.1611 0.537 0.72784 0.0
C257 C 0.24631 0.55447 0.71834 0.0
H258 H 0.35205 0.52054 0.77213 0.0
H259 H 0.32121 0.52543 0.78041 0.0
H260 H 0.27095 0.54229 0.79757 0.0
H261 H 0.13169 0.5347 0.70813 0.0
H262 H 0.16799 0.53882 0.70268 0.0
H263 H 0.23917 0.55729 0.69592 0.0
C264 C 0.3466 0.53333 0.69052 0.0
C265 C 0.32926 0.53655 0.69553 0.0
C266 C 0.26547 0.55389 0.71518 0.0
C267 C 0.14364 0.53392 0.7927 0.0
C268 C 0.16429 0.53616 0.78949 0.0
C269 C 0.24522 0.54662 0.77865 0.0
C270 C 0.32043 0.53419 0.72808 0.0
C271 C 0.30461 0.54 0.73416 0.0
C272 C 0.29134 0.5449 0.73897 0.0
C273 C 0.27411 0.54904 0.74353 0.0
H274 H 0.35423 0.53651 0.66573 0.0
H275 H 0.32349 0.54184 0.67443 0.0
H276 H 0.27294 0.55628 0.69036 0.0
H277 H 0.13744 0.53357 0.81793 0.0
H278 H 0.17362 0.5371 0.8123 0.0
H279 H 0.23723 0.54335 0.80315 0.0
C280 C 0.17336 0.53846 0.75713 0.0
C281 C 0.19562 0.54328 0.75411 0.0
C282 C 0.2143 0.54732 0.75201 0.0
C283 C 0.23582 0.55022 0.74986 0.0
C284 C 0.5891 0.15354 0.24555 0.0
C285 C 0.58456 0.14238 0.27613 0.0
C286 C 0.60647 0.1743 0.2443 0.0
C287 C 0.67018 0.25813 0.24528 0.0
C288 C 0.80404 0.36202 0.26361 0.0
C289 C 0.8076 0.37175 0.23171 0.0
C290 C 0.78401 0.34366 0.27023 0.0
C291 C 0.70445 0.27202 0.29409 0.0
H292 H 0.57829 0.14663 0.22331 0.0
H293 H 0.60912 0.18303 0.22102 0.0
H294 H 0.65718 0.2527 0.2259 0.0
H295 H 0.81586 0.36942 0.28446 0.0
H296 H 0.78129 0.3368 0.29537 0.0
H297 H 0.71783 0.27707 0.31268 0.0
C298 C 0.59813 0.15186 0.30503 0.0
C299 C 0.61589 0.17252 0.30352 0.0
C300 C 0.68527 0.25234 0.29713 0.0
C301 C 0.79099 0.36236 0.20617 0.0
C302 C 0.7708 0.34415 0.21302 0.0
C303 C 0.68938 0.27784 0.24225 0.0
C304 C 0.61962 0.18391 0.27348 0.0
C305 C 0.63632 0.20567 0.273 0.0
C306 C 0.65036 0.22392 0.27281 0.0
C307 C 0.66839 0.24518 0.27226 0.0
H308 H 0.59448 0.1436 0.32897 0.0
H309 H 0.62611 0.17986 0.32615 0.0
H310 H 0.684 0.2424 0.31806 0.0
H311 H 0.79308 0.36982 0.1817 0.0
H312 H 0.75776 0.33764 0.19362 0.0
H313 H 0.69105 0.28744 0.22054 0.0
C314 C 0.76714 0.33511 0.24532 0.0
C315 C 0.74573 0.31769 0.25348 0.0
C316 C 0.72771 0.30309 0.26005 0.0
C317 C 0.70674 0.28453 0.26616 0.0
C318 C 0.47393 0.82741 0.71701 0.0
C319 C 0.46161 0.83 0.7419 0.0
C320 C 0.47702 0.81055 0.71908 0.0
C321 C 0.48006 0.73728 0.73339 0.0
C322 C 0.43094 0.6089 0.78305 0.0
C323 C 0.43998 0.60269 0.75748 0.0
C324 C 0.43713 0.6298 0.78605 0.0
C325 C 0.455 0.71061 0.78627 0.0
H326 H 0.4811 0.83834 0.69621 0.0
H327 H 0.48646 0.8086 0.69967 0.0
H328 H 0.48959 0.74737 0.71259 0.0
H329 H 0.41862 0.59752 0.8001 0.0
H330 H 0.42954 0.63416 0.80535 0.0
H331 H 0.44504 0.70033 0.8066 0.0
C332 C 0.4526 0.81577 0.76881 0.0
C333 C 0.45559 0.799 0.77078 0.0
C334 C 0.45735 0.73014 0.7831 0.0
C335 C 0.45591 0.61795 0.7358 0.0
C336 C 0.46195 0.63878 0.73869 0.0
C337 C 0.47772 0.71775 0.73656 0.0
C338 C 0.46774 0.79625 0.74593 0.0
C339 C 0.46986 0.77831 0.74784 0.0
C340 C 0.47066 0.76286 0.75167 0.0
C341 C 0.46969 0.74345 0.75642 0.0
H342 H 0.44308 0.81759 0.78828 0.0
H343 H 0.44828 0.78808 0.79161 0.0
H344 H 0.44917 0.73466 0.80105 0.0
H345 H 0.46305 0.61368 0.71564 0.0
H346 H 0.47366 0.65013 0.72093 0.0
H347 H 0.48547 0.71303 0.71814 0.0
C348 C 0.45233 0.64473 0.76345 0.0
C349 C 0.45705 0.66581 0.76423 0.0
C350 C 0.46121 0.68353 0.76447 0.0
C351 C 0.465 0.70426 0.76281 0.0
C352 C 0.55994 0.40577 0.24773 0.0
C353 C 0.55563 0.4154 0.22063 0.0
C354 C 0.57939 0.40552 0.24868 0.0
C355 C 0.65506 0.40167 0.24446 0.0
C356 C 0.79551 0.45213 0.24047 0.0
C357 C 0.79802 0.4387 0.26232 0.0
C358 C 0.77468 0.44941 0.23508 0.0
C359 C 0.6907 0.43347 0.20853 0.0
H360 H 0.54781 0.39765 0.26738 0.0
H361 H 0.58215 0.39749 0.26923 0.0
H362 H 0.64144 0.38951 0.25883 0.0
H363 H 0.80933 0.46392 0.22597 0.0
H364 H 0.77287 0.45928 0.21698 0.0
H365 H 0.70443 0.446 0.19487 0.0
C366 C 0.57107 0.42491 0.19465 0.0
C367 C 0.59085 0.42518 0.19611 0.0
C368 C 0.66974 0.4307 0.20521 0.0
C369 C 0.77962 0.42351 0.28054 0.0
C370 C 0.75882 0.42082 0.2751 0.0
C371 C 0.67604 0.40443 0.24776 0.0
C372 C 0.59484 0.41514 0.22278 0.0
C373 C 0.61457 0.41439 0.2232 0.0
C374 C 0.63121 0.41393 0.22312 0.0
C375 C 0.652 0.41509 0.2237 0.0
H376 H 0.5676 0.43157 0.17285 0.0
H377 H 0.6027 0.43265 0.17591 0.0
H378 H 0.66754 0.44114 0.18905 0.0
H379 H 0.78095 0.41286 0.29742 0.0
H380 H 0.74464 0.4084 0.28818 0.0
H381 H 0.67838 0.39435 0.26462 0.0
C382 C 0.7562 0.43333 0.25158 0.0
C383 C 0.7344 0.42895 0.24323 0.0
C384 C 0.71596 0.42496 0.23668 0.0
C385 C 0.69398 0.42063 0.23037 0.0
C386 C 0.37858 0.81805 0.74186 0.0
C387 C 0.3847 0.83017 0.77191 0.0
C388 C 0.3592 0.79829 0.74047 0.0
C389 C 0.28557 0.71814 0.73987 0.0
C390 C 0.14637 0.62552 0.75734 0.0
C391 C 0.14232 0.61044 0.73238 0.0
C392 C 0.16749 0.64345 0.76146 0.0
C393 C 0.25199 0.7097 0.7855 0.0
H394 H 0.38941 0.82338 0.72011 0.0
H395 H 0.35517 0.78883 0.71752 0.0
H396 H 0.29835 0.7214 0.72178 0.0
H397 H 0.13365 0.62288 0.7751 0.0
H398 H 0.17057 0.6544 0.78188 0.0
H399 H 0.23904 0.70673 0.80305 0.0
C400 C 0.37092 0.82255 0.80025 0.0
C401 C 0.35121 0.80297 0.79855 0.0
C402 C 0.27281 0.72803 0.78912 0.0
C403 C 0.15939 0.6144 0.71006 0.0
C404 C 0.18046 0.63238 0.71413 0.0
C405 C 0.26473 0.69978 0.73625 0.0
C406 C 0.3456 0.79061 0.76894 0.0
C407 C 0.32617 0.76988 0.76801 0.0
C408 C 0.30988 0.75253 0.76729 0.0
C409 C 0.28948 0.73251 0.76588 0.0
H410 H 0.37568 0.83144 0.82388 0.0
H411 H 0.34075 0.79721 0.82069 0.0
H412 H 0.27566 0.739 0.80939 0.0
H413 H 0.15681 0.60309 0.69062 0.0
H414 H 0.19363 0.63472 0.69757 0.0
H415 H 0.26168 0.68906 0.71546 0.0
C416 C 0.18473 0.64659 0.74052 0.0
C417 C 0.207 0.66376 0.7472 0.0
C418 C 0.22567 0.67811 0.7527 0.0
C419 C 0.24775 0.69577 0.7586 0.0
C420 C 0.46916 0.9124 0.85877 0.0
C421 C 0.45848 0.91666 0.83243 0.0
C422 C 0.47802 0.92565 0.88732 0.0
C423 C 0.503 0.98046 0.00193 0.0
C424 C 0.50376 0.06293 0.15283 0.0
C425 C 0.51055 0.0555 0.18029 0.0
C426 C 0.49985 0.05356 0.12051 0.0
C427 C 0.49262 0.01124 0.99461 0.0
H428 H 0.47014 0.89859 0.85775 0.0
H429 H 0.48576 0.92194 0.9078 0.0
H430 H 0.50674 0.9684 0.00515 0.0
H431 H 0.50309 0.07684 0.15574 0.0
H432 H 0.49577 0.06009 0.09911 0.0
H433 H 0.48832 0.02294 0.99164 0.0
C434 C 0.45725 0.93459 0.83483 0.0
C435 C 0.46622 0.94783 0.86317 0.0
C436 C 0.4902 -0.0014 0.96676 0.0
C437 C 0.51187 0.03776 0.17556 0.0
C438 C 0.50777 0.02835 0.14347 0.0
C439 C 0.50544 -0.00689 0.02977 0.0
C440 C 0.47645 0.94332 0.88956 0.0
C441 C 0.48441 0.95654 0.91934 0.0
C442 C 0.49036 0.9687 0.94286 0.0
C443 C 0.49507 -0.01701 0.97053 0.0
H444 H 0.44923 0.93835 0.8149 0.0
H445 H 0.46488 0.96144 0.86467 0.0
H446 H 0.48398 0.00063 0.94258 0.0
H447 H 0.51722 0.03186 0.19632 0.0
H448 H 0.50975 0.01519 0.14005 0.0
H449 H 0.51112 -0.00928 0.05418 0.0
C450 C 0.50247 0.03662 0.11568 0.0
C451 C 0.50116 0.02833 0.08216 0.0
C452 C 0.50059 0.01991 0.05575 0.0
C453 C 0.4999 0.00828 0.02629 0.0
C454 C 0.46482 0.40504 0.33714 0.0
C455 C 0.47906 0.42244 0.31715 0.0
C456 C 0.45898 0.40787 0.36983 0.0
C457 C 0.44485 0.43759 0.49902 0.0
C458 C 0.44067 0.52215 0.64022 0.0
C459 C 0.42241 0.50687 0.65862 0.0
C460 C 0.44901 0.51631 0.61323 0.0
C461 C 0.47253 0.48111 0.5043 0.0
H462 H 0.45905 0.38936 0.32823 0.0
H463 H 0.44854 0.39438 0.38539 0.0
H464 H 0.43385 0.4208 0.49694 0.0
H465 H 0.44857 0.53854 0.64676 0.0
H466 H 0.46314 0.52823 0.59939 0.0
H467 H 0.48313 0.49796 0.50587 0.0
C468 C 0.4863 0.44257 0.32982 0.0
C469 C 0.48056 0.44533 0.36226 0.0
C470 C 0.47474 0.47043 0.47708 0.0
C471 C 0.41253 0.48574 0.6491 0.0
C472 C 0.42084 0.47999 0.62225 0.0
C473 C 0.44266 0.44827 0.52627 0.0
C474 C 0.4673 0.42808 0.38264 0.0
C475 C 0.46302 0.43175 0.41682 0.0
C476 C 0.46149 0.43819 0.4441 0.0
C477 C 0.46066 0.44869 0.47409 0.0
H478 H 0.49721 0.45639 0.31523 0.0
H479 H 0.48701 0.46104 0.37179 0.0
H480 H 0.48701 0.47919 0.45788 0.0
H481 H 0.39832 0.47352 0.66237 0.0
H482 H 0.41298 0.46362 0.61549 0.0
H483 H 0.43 0.43957 0.54497 0.0
C484 C 0.43915 0.4952 0.6044 0.0
C485 C 0.44748 0.48872 0.5771 0.0
C486 C 0.45257 0.48104 0.55504 0.0
C487 C 0.45626 0.47007 0.52866 0.0
C488 C 0.03844 0.53255 0.8349 0.0
C489 C 0.04453 0.51869 0.82345 0.0
C490 C 0.02349 0.52683 0.86163 0.0
C491 C 0.96024 0.49667 0.96498 0.0
C492 C 0.90206 0.43288 0.15093 0.0
C493 C 0.89164 0.44246 0.16554 0.0
C494 C 0.9116 0.43886 0.1189 0.0
C495 C 0.95163 0.46029 -0.00199 0.0
H496 H 0.0447 0.54746 0.82263 0.0
H497 H 0.0185 0.53743 0.86974 0.0
H498 H 0.96366 0.51088 0.95259 0.0
H499 H 0.9024 0.42036 0.16381 0.0
H500 H 0.91928 0.43109 0.10799 0.0
H501 H 0.94864 0.44636 0.01092 0.0
C502 C 0.03603 0.4994 0.83992 0.0
C503 C 0.02141 0.49387 0.86672 0.0
C504 C 0.96544 0.46752 0.96978 0.0
C505 C 0.89133 0.45842 0.14753 0.0
C506 C 0.9011 0.46452 0.1155 0.0
C507 C 0.94644 0.48945 0.99319 0.0
C508 C 0.01483 0.50739 0.87731 0.0
C509 C -0.00113 0.50087 0.90385 0.0
C510 C -0.01452 0.49418 0.92619 0.0
C511 C -0.02998 0.4859 0.95356 0.0
H512 H 0.04054 0.48843 0.83198 0.0
H513 H 0.01498 0.47888 0.87884 0.0
H514 H -0.0271 0.45904 0.96112 0.0
H515 H 0.8834 0.46605 0.15802 0.0
H516 H 0.90075 0.47686 0.10196 0.0
H517 H 0.93941 0.49821 0.00234 0.0
C518 C 0.91109 0.45463 0.10109 0.0
C519 C 0.92128 0.4608 0.06834 0.0
C520 C 0.93009 0.46529 0.04105 0.0
C521 C 0.94237 0.47143 0.01003 0.0
C522 C 0.52194 0.03918 0.34024 0.0
C523 C 0.52003 0.05673 0.33799 0.0
C524 C 0.5191 0.02916 0.37131 0.0
C525 C 0.51401 -0.01132 0.48304 0.0
C526 C 0.4676 0.93499 0.67827 0.0
C527 C 0.46615 0.91576 0.68092 0.0
C528 C 0.47763 0.9478 0.65026 0.0
C529 C 0.50402 -0.00257 0.54726 0.0
H530 H 0.52638 0.03362 0.31815 0.0
H531 H 0.5212 0.01598 0.37265 0.0
H532 H 0.51764 -0.01497 0.45817 0.0
H533 H 0.46061 0.93997 0.69763 0.0
H534 H 0.4782 0.96238 0.6484 0.0
H535 H 0.49984 0.00078 0.57192 0.0
C536 C 0.51431 0.06357 0.36715 0.0
C537 C 0.51163 0.05358 0.39843 0.0
C538 C 0.50684 0.01027 0.51964 0.0
C539 C 0.47546 0.9098 0.65546 0.0
C540 C 0.48531 0.92257 0.62711 0.0
C541 C 0.51117 0.97581 0.51067 0.0
C542 C 0.51444 0.0366 0.40061 0.0
C543 C 0.51332 0.02704 0.43283 0.0
C544 C 0.51274 0.01792 0.45838 0.0
C545 C 0.51153 0.00574 0.48738 0.0
H546 H 0.51312 0.07728 0.3662 0.0
H547 H 0.50803 0.05947 0.42101 0.0
H548 H 0.50488 0.02342 0.52329 0.0
H549 H 0.47425 0.8949 0.65673 0.0
H550 H 0.49168 0.91744 0.60702 0.0
H551 H 0.51256 0.96235 0.50682 0.0
C552 C 0.48616 0.94148 0.62433 0.0
C553 C 0.49444 0.95398 0.59418 0.0
C554 C 0.5008 0.96579 0.57046 0.0
C555 C 0.50591 0.98003 0.54275 0.0
C556 C 0.4426 0.50683 0.81164 0.0
C557 C 0.43284 0.51876 0.81272 0.0
C558 C 0.45209 0.50425 0.84125 0.0
C559 C 0.47928 0.48337 0.95334 0.0
C560 C 0.47823 0.44417 0.15955 0.0
C561 C 0.48466 0.42955 0.15843 0.0
C562 C 0.47528 0.4523 0.12939 0.0
C563 C 0.4698 0.49101 0.01882 0.0
H564 H 0.44255 0.49927 0.7881 0.0
H565 H 0.45928 0.49472 0.84023 0.0
H566 H 0.48263 0.48003 0.92804 0.0
H567 H 0.47652 0.45 0.18383 0.0
H568 H 0.47102 0.46408 0.13077 0.0
H569 H 0.46585 0.49389 0.04403 0.0
C570 C 0.43287 0.52831 0.84346 0.0
C571 C 0.44211 0.52551 0.87315 0.0
C572 C 0.46692 0.50072 0.99059 0.0
C573 C 0.48714 0.42244 0.1267 0.0
C574 C 0.48448 0.43082 0.09647 0.0
C575 C 0.48215 0.47367 0.98155 0.0
C576 C 0.45155 0.51331 0.87214 0.0
C577 C 0.45917 0.50875 0.90313 0.0
C578 C 0.46577 0.50444 0.92834 0.0
C579 C 0.47134 0.49666 0.95775 0.0
H580 H 0.42502 0.53726 0.84473 0.0
H581 H 0.44134 0.53236 0.89698 0.0
H582 H 0.46064 0.51087 0.99429 0.0
H583 H 0.49268 0.41159 0.12537 0.0
H584 H 0.48757 0.42602 0.0722 0.0
H585 H 0.48781 0.46304 0.97774 0.0
C586 C 0.47908 0.44614 0.09788 0.0
C587 C 0.47877 0.45659 0.06743 0.0
C588 C 0.47825 0.46593 0.04289 0.0
C589 C 0.47704 0.47718 0.01425 0.0
C590 C 0.02359 0.51637 0.66893 0.0
C591 C 0.04642 0.53118 0.67001 0.0
C592 C 0.0108 0.51496 0.64042 0.0
C593 C 0.95842 0.50117 0.53227 0.0
C594 C 0.91373 0.47148 0.32301 0.0
C595 C 0.89214 0.45404 0.32487 0.0
C596 C 0.9253 0.48202 0.35292 0.0
C597 C -0.02493 0.51747 0.46786 0.0
H598 H 0.01569 0.50583 0.69004 0.0
H599 H -0.0068 0.50334 0.63988 0.0
H600 H 0.95188 0.49452 0.55701 0.0
H601 H 0.92171 0.47669 0.29858 0.0
H602 H 0.94214 0.49526 0.35124 0.0
H603 H -0.01825 0.52363 0.44295 0.0
C604 C 0.05631 0.5447 0.64236 0.0
C605 C 0.04355 0.54303 0.61357 0.0
C606 C -0.01079 0.5246 0.49655 0.0
C607 C 0.88204 0.44745 0.35672 0.0
C608 C 0.89362 0.45794 0.38658 0.0
C609 C 0.94428 0.49402 0.50357 0.0
C610 C 0.02078 0.52807 0.61248 0.0
C611 C 0.00774 0.52532 0.58222 0.0
C612 C -0.0042 0.52212 0.55779 0.0
C613 C -0.01903 0.51629 0.52876 0.0
H614 H 0.07399 0.55599 0.64253 0.0
H615 H 0.05151 0.55311 0.59196 0.0
H616 H 0.00664 0.5362 0.49347 0.0
H617 H 0.86537 0.43393 0.3585 0.0
H618 H 0.88578 0.45237 0.41104 0.0
H619 H 0.927 0.48193 0.5065 0.0
C620 C 0.91536 0.47512 0.38478 0.0
C621 C 0.92793 0.48484 0.41565 0.0
C622 C 0.9387 0.49316 0.44125 0.0
C623 C 0.95263 0.50198 0.47124 0.0
loop_
_geom_bond_atom_site_label_1
_geom_bond_atom_site_label_2
_geom_bond_distance
_geom_bond_site_symmetry_2
_ccdc_geom_bond_type
Mn0 O5 2.095 . S
Mn0 O15 2.162 . S
Mn0 O16 2.297 . S
Mn0 O24 2.385 . S
Mn0 O25 2.209 . S
Mn0 O26 2.094 . S
Mn1 O6 2.121 . S
Mn1 N8 2.257 . S
Mn1 N17 2.282 . S
Mn1 O25 2.215 . S
Mn1 O27 2.117 . S
C2 O24 1.234 . S
C2 O25 1.283 . S
C3 O15 1.281 . S
C3 O16 1.236 . S
C4 O26 1.240 . S
C4 O27 1.264 . S
O5 Mn0 2.095 . S
O5 C14 1.250 . S
O6 Mn1 2.121 . S
O6 C14 1.258 . S
C7 N8 1.326 . S
C7 C11 1.460 . S
C7 H13 0.929 . S
N8 Mn1 2.257 . S
N8 C7 1.326 . S
N8 C12 1.362 . S
C9 C10 1.258 . S
C9 C12 1.431 . S
C9 C29 1.449 . S
C10 C9 1.258 . S
C10 C11 1.477 . S
C10 H30 0.931 . S
C11 C7 1.460 . S
C11 C10 1.477 . S
C11 H31 0.930 . S
C12 N8 1.362 . S
C12 C9 1.431 . S
C12 C22 1.476 . S
H13 C7 0.929 . S
C14 O5 1.250 . S
C14 O6 1.258 . S
O15 Mn0 2.162 . S
O15 C3 1.281 . S
O16 Mn0 2.297 . S
O16 C3 1.236 . S
N17 Mn1 2.282 . S
N17 C18 1.328 . S
N17 C22 1.318 . S
C18 N17 1.328 . S
C18 C19 1.457 . S
C18 H23 0.929 . S
C19 C18 1.457 . S
C19 C20 1.291 . S
C19 H32 0.931 . S
C20 C19 1.291 . S
C20 C21 1.373 . S
C20 H33 0.929 . S
C21 C20 1.373 . S
C21 C22 1.396 . S
C21 C28 1.403 . S
C22 C12 1.476 . S
C22 N17 1.318 . S
C22 C21 1.396 . S
H23 C18 0.929 . S
O24 Mn0 2.385 . S
O24 C2 1.234 . S
O25 Mn0 2.209 . S
O25 Mn1 2.215 . S
O25 C2 1.283 . S
O26 Mn0 2.094 . S
O26 C4 1.240 . S
O27 Mn1 2.117 . S
O27 C4 1.264 . S
C28 C21 1.403 . S
C28 C29 1.399 . S
C28 H34 0.929 . S
C29 C9 1.449 . S
C29 C28 1.399 . S
C29 H35 0.930 . S
H30 C10 0.931 . S
H31 C11 0.930 . S
H32 C19 0.931 . S
H33 C20 0.929 . S
H34 C28 0.929 . S
H35 C29 0.930 . S
Mn36 O41 2.095 . S
Mn36 O51 2.162 . S
Mn36 O52 2.297 . S
Mn36 O60 2.385 . S
Mn36 O61 2.209 . S
Mn36 O62 2.094 . S
Mn37 O42 2.121 . S
Mn37 N44 2.257 . S
Mn37 N53 2.282 . S
Mn37 O61 2.215 . S
Mn37 O63 2.117 . S
C38 O60 1.234 . S
C38 O61 1.283 . S
C39 O51 1.281 . S
C39 O52 1.236 . S
C40 O62 1.240 . S
C40 O63 1.264 . S
O41 Mn36 2.095 . S
O41 C50 1.250 . S
O42 Mn37 2.121 . S
O42 C50 1.258 . S
C43 N44 1.326 . S
C43 C47 1.460 . S
C43 H49 0.929 . S
N44 Mn37 2.257 . S
N44 C43 1.326 . S
N44 C48 1.362 . S
C45 C46 1.258 . S
C45 C48 1.431 . S
C45 C65 1.449 . S
C46 C45 1.258 . S
C46 C47 1.477 . S
C46 H66 0.931 . S
C47 C43 1.460 . S
C47 C46 1.477 . S
C47 H67 0.930 . S
C48 N44 1.362 . S
C48 C45 1.431 . S
C48 C58 1.476 . S
H49 C43 0.929 . S
C50 O41 1.250 . S
C50 O42 1.258 . S
O51 Mn36 2.162 . S
O51 C39 1.281 . S
O52 Mn36 2.297 . S
O52 C39 1.236 . S
N53 Mn37 2.282 . S
N53 C54 1.328 . S
N53 C58 1.318 . S
C54 N53 1.328 . S
C54 C55 1.457 . S
C54 H59 0.929 . S
C55 C54 1.457 . S
C55 C56 1.291 . S
C55 H68 0.931 . S
C56 C55 1.291 . S
C56 C57 1.373 . S
C56 H69 0.929 . S
C57 C56 1.373 . S
C57 C58 1.396 . S
C57 C64 1.403 . S
C58 C48 1.476 . S
C58 N53 1.318 . S
C58 C57 1.396 . S
H59 C54 0.929 . S
O60 Mn36 2.385 . S
O60 C38 1.234 . S
O61 Mn36 2.209 . S
O61 Mn37 2.215 . S
O61 C38 1.283 . S
O62 Mn36 2.094 . S
O62 C40 1.240 . S
O63 Mn37 2.117 . S
O63 C40 1.264 . S
C64 C57 1.403 . S
C64 C65 1.399 . S
C64 H70 0.929 . S
C65 C45 1.449 . S
C65 C64 1.399 . S
C65 H71 0.930 . S
H66 C46 0.931 . S
H67 C47 0.930 . S
H68 C55 0.931 . S
H69 C56 0.929 . S
H70 C64 0.929 . S
H71 C65 0.930 . S
Mn72 O77 2.095 . S
Mn72 O87 2.162 . S
Mn72 O88 2.297 . S
Mn72 O96 2.385 . S
Mn72 O97 2.209 . S
Mn72 O98 2.094 . S
Mn73 O78 2.121 . S
Mn73 N80 2.257 . S
Mn73 N89 2.282 . S
Mn73 O97 2.215 . S
Mn73 O99 2.117 . S
C74 O96 1.234 . S
C74 O97 1.283 . S
C75 O87 1.281 . S
C75 O88 1.236 . S
C76 O98 1.240 . S
C76 O99 1.264 . S
O77 Mn72 2.095 . S
O77 C86 1.250 . S
O78 Mn73 2.121 . S
O78 C86 1.258 . S
C79 N80 1.326 . S
C79 C83 1.460 . S
C79 H85 0.929 . S
N80 Mn73 2.257 . S
N80 C79 1.326 . S
N80 C84 1.362 . S
C81 C82 1.258 . S
C81 C84 1.431 . S
C81 C101 1.449 . S
C82 C81 1.258 . S
C82 C83 1.477 . S
C82 H102 0.931 . S
C83 C79 1.460 . S
C83 C82 1.477 . S
C83 H103 0.930 . S
C84 N80 1.362 . S
C84 C81 1.431 . S
C84 C94 1.476 . S
H85 C79 0.929 . S
C86 O77 1.250 . S
C86 O78 1.258 . S
O87 Mn72 2.162 . S
O87 C75 1.281 . S
O88 Mn72 2.297 . S
O88 C75 1.236 . S
N89 Mn73 2.282 . S
N89 C90 1.328 . S
N89 C94 1.318 . S
C90 N89 1.328 . S
C90 C91 1.457 . S
C90 H95 0.929 . S
C91 C90 1.457 . S
C91 C92 1.291 . S
C91 H104 0.931 . S
C92 C91 1.291 . S
C92 C93 1.373 . S
C92 H105 0.929 . S
C93 C92 1.373 . S
C93 C94 1.396 . S
C93 C100 1.403 . S
C94 C84 1.476 . S
C94 N89 1.318 . S
C94 C93 1.396 . S
H95 C90 0.929 . S
O96 Mn72 2.385 . S
O96 C74 1.234 . S
O97 Mn72 2.209 . S
O97 Mn73 2.215 . S
O97 C74 1.283 . S
O98 Mn72 2.094 . S
O98 C76 1.240 . S
O99 Mn73 2.117 . S
O99 C76 1.264 . S
C100 C93 1.403 . S
C100 C101 1.399 . S
C100 H106 0.929 . S
C101 C81 1.449 . S
C101 C100 1.399 . S
C101 H107 0.930 . S
H102 C82 0.931 . S
H103 C83 0.930 . S
H104 C91 0.931 . S
H105 C92 0.929 . S
H106 C100 0.929 . S
H107 C101 0.930 . S
Mn108 O113 2.095 . S
Mn108 O123 2.162 . S
Mn108 O124 2.297 . S
Mn108 O132 2.385 . S
Mn108 O133 2.209 . S
Mn108 O134 2.094 . S
Mn109 O114 2.121 . S
Mn109 N116 2.257 . S
Mn109 N125 2.282 . S
Mn109 O133 2.215 . S
Mn109 O135 2.117 . S
C110 O132 1.234 . S
C110 O133 1.283 . S
C111 O123 1.281 . S
C111 O124 1.236 . S
C112 O134 1.240 . S
C112 O135 1.264 . S
O113 Mn108 2.095 . S
O113 C122 1.250 . S
O114 Mn109 2.121 . S
O114 C122 1.258 . S
C115 N116 1.326 . S
C115 C119 1.460 . S
C115 H121 0.929 . S
N116 Mn109 2.257 . S
N116 C115 1.326 . S
N116 C120 1.362 . S
C117 C118 1.258 . S
C117 C120 1.431 . S
C117 C137 1.449 . S
C118 C117 1.258 . S
C118 C119 1.477 . S
C118 H138 0.931 . S
C119 C115 1.460 . S
C119 C118 1.477 . S
C119 H139 0.930 . S
C120 N116 1.362 . S
C120 C117 1.431 . S
C120 C130 1.476 . S
H121 C115 0.929 . S
C122 O113 1.250 . S
C122 O114 1.258 . S
O123 Mn108 2.162 . S
O123 C111 1.281 . S
O124 Mn108 2.297 . S
O124 C111 1.236 . S
N125 Mn109 2.282 . S
N125 C126 1.328 . S
N125 C130 1.318 . S
C126 N125 1.328 . S
C126 C127 1.457 . S
C126 H131 0.929 . S
C127 C126 1.457 . S
C127 C128 1.291 . S
C127 H140 0.931 . S
C128 C127 1.291 . S
C128 C129 1.373 . S
C128 H141 0.929 . S
C129 C128 1.373 . S
C129 C130 1.396 . S
C129 C136 1.403 . S
C130 C120 1.476 . S
C130 N125 1.318 . S
C130 C129 1.396 . S
H131 C126 0.929 . S
O132 Mn108 2.385 . S
O132 C110 1.234 . S
O133 Mn108 2.209 . S
O133 Mn109 2.215 . S
O133 C110 1.283 . S
O134 Mn108 2.094 . S
O134 C112 1.240 . S
O135 Mn109 2.117 . S
O135 C112 1.264 . S
C136 C129 1.403 . S
C136 C137 1.399 . S
C136 H142 0.929 . S
C137 C117 1.449 . S
C137 C136 1.399 . S
C137 H143 0.930 . S
H138 C118 0.931 . S
H139 C119 0.930 . S
H140 C127 0.931 . S
H141 C128 0.929 . S
H142 C136 0.929 . S
H143 C137 0.930 . S
Mn144 O149 2.095 . S
Mn144 O159 2.162 . S
Mn144 O160 2.297 . S
Mn144 O168 2.385 . S
Mn144 O169 2.209 . S
Mn144 O170 2.094 . S
Mn145 O150 2.121 . S
Mn145 N152 2.257 . S
Mn145 N161 2.282 . S
Mn145 O169 2.215 . S
Mn145 O171 2.117 . S
C146 O168 1.234 . S
C146 O169 1.283 . S
C147 O159 1.281 . S
C147 O160 1.236 . S
C148 O170 1.240 . S
C148 O171 1.264 . S
O149 Mn144 2.095 . S
O149 C158 1.250 . S
O150 Mn145 2.121 . S
O150 C158 1.258 . S
C151 N152 1.326 . S
C151 C155 1.460 . S
C151 H157 0.929 . S
N152 Mn145 2.257 . S
N152 C151 1.326 . S
N152 C156 1.362 . S
C153 C154 1.258 . S
C153 C156 1.431 . S
C153 C173 1.449 . S
C154 C153 1.258 . S
C154 C155 1.477 . S
C154 H174 0.931 . S
C155 C151 1.460 . S
C155 C154 1.477 . S
C155 H175 0.930 . S
C156 N152 1.362 . S
C156 C153 1.431 . S
C156 C166 1.476 . S
H157 C151 0.929 . S
C158 O149 1.250 . S
C158 O150 1.258 . S
O159 Mn144 2.162 . S
O159 C147 1.281 . S
O160 Mn144 2.297 . S
O160 C147 1.236 . S
N161 Mn145 2.282 . S
N161 C162 1.328 . S
N161 C166 1.318 . S
C162 N161 1.328 . S
C162 C163 1.457 . S
C162 H167 0.929 . S
C163 C162 1.457 . S
C163 C164 1.291 . S
C163 H176 0.931 . S
C164 C163 1.291 . S
C164 C165 1.373 . S
C164 H177 0.929 . S
C165 C164 1.373 . S
C165 C166 1.396 . S
C165 C172 1.403 . S
C166 C156 1.476 . S
C166 N161 1.318 . S
C166 C165 1.396 . S
H167 C162 0.929 . S
O168 Mn144 2.385 . S
O168 C146 1.234 . S
O169 Mn144 2.209 . S
O169 Mn145 2.215 . S
O169 C146 1.283 . S
O170 Mn144 2.094 . S
O170 C148 1.240 . S
O171 Mn145 2.117 . S
O171 C148 1.264 . S
C172 C165 1.403 . S
C172 C173 1.399 . S
C172 H178 0.929 . S
C173 C153 1.449 . S
C173 C172 1.399 . S
C173 H179 0.930 . S
H174 C154 0.931 . S
H175 C155 0.930 . S
H176 C163 0.931 . S
H177 C164 0.929 . S
H178 C172 0.929 . S
H179 C173 0.930 . S
Mn180 O185 2.095 . S
Mn180 O195 2.162 . S
Mn180 O196 2.297 . S
Mn180 O204 2.385 . S
Mn180 O205 2.209 . S
Mn180 O206 2.094 . S
Mn181 O186 2.121 . S
Mn181 N188 2.257 . S
Mn181 N197 2.282 . S
Mn181 O205 2.215 . S
Mn181 O207 2.117 . S
C182 O204 1.234 . S
C182 O205 1.283 . S
C183 O195 1.281 . S
C183 O196 1.236 . S
C184 O206 1.240 . S
C184 O207 1.264 . S
O185 Mn180 2.095 . S
O185 C194 1.250 . S
O186 Mn181 2.121 . S
O186 C194 1.258 . S
C187 N188 1.326 . S
C187 C191 1.460 . S
C187 H193 0.929 . S
N188 Mn181 2.257 . S
N188 C187 1.326 . S
N188 C192 1.362 . S
C189 C190 1.258 . S
C189 C192 1.431 . S
C189 C209 1.449 . S
C190 C189 1.258 . S
C190 C191 1.477 . S
C190 H210 0.931 . S
C191 C187 1.460 . S
C191 C190 1.477 . S
C191 H211 0.930 . S
C192 N188 1.362 . S
C192 C189 1.431 . S
C192 C202 1.476 . S
H193 C187 0.929 . S
C194 O185 1.250 . S
C194 O186 1.258 . S
O195 Mn180 2.162 . S
O195 C183 1.281 . S
O196 Mn180 2.297 . S
O196 C183 1.236 . S
N197 Mn181 2.282 . S
N197 C198 1.328 . S
N197 C202 1.318 . S
C198 N197 1.328 . S
C198 C199 1.457 . S
C198 H203 0.929 . S
C199 C198 1.457 . S
C199 C200 1.291 . S
C199 H212 0.931 . S
C200 C199 1.291 . S
C200 C201 1.373 . S
C200 H213 0.929 . S
C201 C200 1.373 . S
C201 C202 1.396 . S
C201 C208 1.403 . S
C202 C192 1.476 . S
C202 N197 1.318 . S
C202 C201 1.396 . S
H203 C198 0.929 . S
O204 Mn180 2.385 . S
O204 C182 1.234 . S
O205 Mn180 2.209 . S
O205 Mn181 2.215 . S
O205 C182 1.283 . S
O206 Mn180 2.094 . S
O206 C184 1.240 . S
O207 Mn181 2.117 . S
O207 C184 1.264 . S
C208 C201 1.403 . S
C208 C209 1.399 . S
C208 H214 0.929 . S
C209 C189 1.449 . S
C209 C208 1.399 . S
C209 H215 0.930 . S
H210 C190 0.931 . S
H211 C191 0.930 . S
H212 C199 0.931 . S
H213 C200 0.929 . S
H214 C208 0.929 . S
H215 C209 0.930 . S
C216 C217 1.420 . S
C216 C218 1.385 . S
C216 H224 0.928 . S
C217 C216 1.420 . S
C217 C230 1.420 . S
C218 C216 1.385 . S
C218 H225 0.929 . S
C218 C236 1.407 . S
C219 H226 0.928 . S
C219 C235 1.374 . S
C219 C239 1.388 . S
C220 C221 1.420 . S
C220 C222 1.385 . S
C220 H227 0.928 . S
C221 C220 1.420 . S
C221 C233 1.420 . S
C222 C220 1.385 . S
C222 H228 0.929 . S
C222 C246 1.407 . S
C223 H229 0.928 . S
C223 C232 1.374 . S
C223 C249 1.388 . S
H224 C216 0.928 . S
H225 C218 0.929 . S
H226 C219 0.928 . S
H227 C220 0.928 . S
H228 C222 0.929 . S
H229 C223 0.928 . S
C230 C217 1.420 . S
C230 C231 1.385 . S
C230 H240 0.928 . S
C231 C230 1.385 . S
C231 C236 1.407 . S
C231 H241 0.929 . S
C232 C223 1.374 . S
C232 C239 1.388 . S
C232 H242 0.928 . S
C233 C221 1.420 . S
C233 C234 1.385 . S
C233 H243 0.928 . S
C234 C233 1.385 . S
C234 H244 0.929 . S
C234 C246 1.407 . S
C235 C219 1.374 . S
C235 H245 0.928 . S
C235 C249 1.388 . S
C236 C218 1.407 . S
C236 C231 1.407 . S
C236 C237 1.428 . S
C237 C236 1.428 . S
C237 C238 1.230 . S
C238 C237 1.230 . S
C238 C239 1.405 . S
C239 C219 1.388 . S
C239 C232 1.388 . S
C239 C238 1.405 . S
H240 C230 0.928 . S
H241 C231 0.929 . S
H242 C232 0.928 . S
H243 C233 0.928 . S
H244 C234 0.929 . S
H245 C235 0.928 . S
C246 C222 1.407 . S
C246 C234 1.407 . S
C246 C247 1.428 . S
C247 C246 1.428 . S
C247 C248 1.230 . S
C248 C247 1.230 . S
C248 C249 1.405 . S
C249 C223 1.388 . S
C249 C235 1.388 . S
C249 C248 1.405 . S
C250 C251 1.420 . S
C250 C252 1.385 . S
C250 H258 0.928 . S
C251 C250 1.420 . S
C251 C264 1.420 . S
C252 C250 1.385 . S
C252 H259 0.929 . S
C252 C270 1.407 . S
C253 H260 0.928 . S
C253 C269 1.374 . S
C253 C273 1.388 . S
C254 C255 1.420 . S
C254 C256 1.385 . S
C254 H261 0.928 . S
C255 C254 1.420 . S
C255 C267 1.420 . S
C256 C254 1.385 . S
C256 H262 0.929 . S
C256 C280 1.407 . S
C257 H263 0.928 . S
C257 C266 1.374 . S
C257 C283 1.388 . S
H258 C250 0.928 . S
H259 C252 0.929 . S
H260 C253 0.928 . S
H261 C254 0.928 . S
H262 C256 0.929 . S
H263 C257 0.928 . S
C264 C251 1.420 . S
C264 C265 1.385 . S
C264 H274 0.928 . S
C265 C264 1.385 . S
C265 C270 1.407 . S
C265 H275 0.929 . S
C266 C257 1.374 . S
C266 C273 1.388 . S
C266 H276 0.928 . S
C267 C255 1.420 . S
C267 C268 1.385 . S
C267 H277 0.928 . S
C268 C267 1.385 . S
C268 H278 0.929 . S
C268 C280 1.407 . S
C269 C253 1.374 . S
C269 H279 0.928 . S
C269 C283 1.388 . S
C270 C252 1.407 . S
C270 C265 1.407 . S
C270 C271 1.428 . S
C271 C270 1.428 . S
C271 C272 1.230 . S
C272 C271 1.230 . S
C272 C273 1.405 . S
C273 C253 1.388 . S
C273 C266 1.388 . S
C273 C272 1.405 . S
H274 C264 0.928 . S
H275 C265 0.929 . S
H276 C266 0.928 . S
H277 C267 0.928 . S
H278 C268 0.929 . S
H279 C269 0.928 . S
C280 C256 1.407 . S
C280 C268 1.407 . S
C280 C281 1.428 . S
C281 C280 1.428 . S
C281 C282 1.230 . S
C282 C281 1.230 . S
C282 C283 1.405 . S
C283 C257 1.388 . S
C283 C269 1.388 . S
C283 C282 1.405 . S
C284 C285 1.420 . S
C284 C286 1.385 . S
C284 H292 0.928 . S
C285 C284 1.420 . S
C285 C298 1.420 . S
C286 C284 1.385 . S
C286 H293 0.929 . S
C286 C304 1.407 . S
C287 H294 0.928 . S
C287 C303 1.374 . S
C287 C307 1.388 . S
C288 C289 1.420 . S
C288 C290 1.385 . S
C288 H295 0.928 . S
C289 C288 1.420 . S
C289 C301 1.420 . S
C290 C288 1.385 . S
C290 H296 0.929 . S
C290 C314 1.407 . S
C291 H297 0.928 . S
C291 C300 1.374 . S
C291 C317 1.388 . S
H292 C284 0.928 . S
H293 C286 0.929 . S
H294 C287 0.928 . S
H295 C288 0.928 . S
H296 C290 0.929 . S
H297 C291 0.928 . S
C298 C285 1.420 . S
C298 C299 1.385 . S
C298 H308 0.928 . S
C299 C298 1.385 . S
C299 C304 1.407 . S
C299 H309 0.929 . S
C300 C291 1.374 . S
C300 C307 1.388 . S
C300 H310 0.928 . S
C301 C289 1.420 . S
C301 C302 1.385 . S
C301 H311 0.928 . S
C302 C301 1.385 . S
C302 H312 0.929 . S
C302 C314 1.407 . S
C303 C287 1.374 . S
C303 H313 0.928 . S
C303 C317 1.388 . S
C304 C286 1.407 . S
C304 C299 1.407 . S
C304 C305 1.428 . S
C305 C304 1.428 . S
C305 C306 1.230 . S
C306 C305 1.230 . S
C306 C307 1.405 . S
C307 C287 1.388 . S
C307 C300 1.388 . S
C307 C306 1.405 . S
H308 C298 0.928 . S
H309 C299 0.929 . S
H310 C300 0.928 . S
H311 C301 0.928 . S
H312 C302 0.929 . S
H313 C303 0.928 . S
C314 C290 1.407 . S
C314 C302 1.407 . S
C314 C315 1.428 . S
C315 C314 1.428 . S
C315 C316 1.230 . S
C316 C315 1.230 . S
C316 C317 1.405 . S
C317 C291 1.388 . S
C317 C303 1.388 . S
C317 C316 1.405 . S
C318 C319 1.420 . S
C318 C320 1.385 . S
C318 H326 0.928 . S
C319 C318 1.420 . S
C319 C332 1.420 . S
C320 C318 1.385 . S
C320 H327 0.929 . S
C320 C338 1.407 . S
C321 H328 0.928 . S
C321 C337 1.374 . S
C321 C341 1.388 . S
C322 C323 1.420 . S
C322 C324 1.385 . S
C322 H329 0.928 . S
C323 C322 1.420 . S
C323 C335 1.420 . S
C324 C322 1.385 . S
C324 H330 0.929 . S
C324 C348 1.407 . S
C325 H331 0.928 . S
C325 C334 1.374 . S
C325 C351 1.388 . S
H326 C318 0.928 . S
H327 C320 0.929 . S
H328 C321 0.928 . S
H329 C322 0.928 . S
H330 C324 0.929 . S
H331 C325 0.928 . S
C332 C319 1.420 . S
C332 C333 1.385 . S
C332 H342 0.928 . S
C333 C332 1.385 . S
C333 C338 1.407 . S
C333 H343 0.929 . S
C334 C325 1.374 . S
C334 C341 1.388 . S
C334 H344 0.928 . S
C335 C323 1.420 . S
C335 C336 1.385 . S
C335 H345 0.928 . S
C336 C335 1.385 . S
C336 H346 0.929 . S
C336 C348 1.407 . S
C337 C321 1.374 . S
C337 H347 0.928 . S
C337 C351 1.388 . S
C338 C320 1.407 . S
C338 C333 1.407 . S
C338 C339 1.428 . S
C339 C338 1.428 . S
C339 C340 1.230 . S
C340 C339 1.230 . S
C340 C341 1.405 . S
C341 C321 1.388 . S
C341 C334 1.388 . S
C341 C340 1.405 . S
H342 C332 0.928 . S
H343 C333 0.929 . S
H344 C334 0.928 . S
H345 C335 0.928 . S
H346 C336 0.929 . S
H347 C337 0.928 . S
C348 C324 1.407 . S
C348 C336 1.407 . S
C348 C349 1.428 . S
C349 C348 1.428 . S
C349 C350 1.230 . S
C350 C349 1.230 . S
C350 C351 1.405 . S
C351 C325 1.388 . S
C351 C337 1.388 . S
C351 C350 1.405 . S
C352 C353 1.420 . S
C352 C354 1.385 . S
C352 H360 0.928 . S
C353 C352 1.420 . S
C353 C366 1.420 . S
C354 C352 1.385 . S
C354 H361 0.929 . S
C354 C372 1.407 . S
C355 H362 0.928 . S
C355 C371 1.374 . S
C355 C375 1.388 . S
C356 C357 1.420 . S
C356 C358 1.385 . S
C356 H363 0.928 . S
C357 C356 1.420 . S
C357 C369 1.420 . S
C358 C356 1.385 . S
C358 H364 0.929 . S
C358 C382 1.407 . S
C359 H365 0.928 . S
C359 C368 1.374 . S
C359 C385 1.388 . S
H360 C352 0.928 . S
H361 C354 0.929 . S
H362 C355 0.928 . S
H363 C356 0.928 . S
H364 C358 0.929 . S
H365 C359 0.928 . S
C366 C353 1.420 . S
C366 C367 1.385 . S
C366 H376 0.928 . S
C367 C366 1.385 . S
C367 C372 1.407 . S
C367 H377 0.929 . S
C368 C359 1.374 . S
C368 C375 1.388 . S
C368 H378 0.928 . S
C369 C357 1.420 . S
C369 C370 1.385 . S
C369 H379 0.928 . S
C370 C369 1.385 . S
C370 H380 0.929 . S
C370 C382 1.407 . S
C371 C355 1.374 . S
C371 H381 0.928 . S
C371 C385 1.388 . S
C372 C354 1.407 . S
C372 C367 1.407 . S
C372 C373 1.428 . S
C373 C372 1.428 . S
C373 C374 1.230 . S
C374 C373 1.230 . S
C374 C375 1.405 . S
C375 C355 1.388 . S
C375 C368 1.388 . S
C375 C374 1.405 . S
H376 C366 0.928 . S
H377 C367 0.929 . S
H378 C368 0.928 . S
H379 C369 0.928 . S
H380 C370 0.929 . S
H381 C371 0.928 . S
C382 C358 1.407 . S
C382 C370 1.407 . S
C382 C383 1.428 . S
C383 C382 1.428 . S
C383 C384 1.230 . S
C384 C383 1.230 . S
C384 C385 1.405 . S
C385 C359 1.388 . S
C385 C371 1.388 . S
C385 C384 1.405 . S
C386 C387 1.420 . S
C386 C388 1.385 . S
C386 H394 0.928 . S
C387 C386 1.420 . S
C387 C400 1.420 . S
C388 C386 1.385 . S
C388 H395 0.929 . S
C388 C406 1.407 . S
C389 H396 0.928 . S
C389 C405 1.374 . S
C389 C409 1.388 . S
C390 C391 1.420 . S
C390 C392 1.385 . S
C390 H397 0.928 . S
C391 C390 1.420 . S
C391 C403 1.420 . S
C392 C390 1.385 . S
C392 H398 0.929 . S
C392 C416 1.407 . S
C393 H399 0.928 . S
C393 C402 1.374 . S
C393 C419 1.388 . S
H394 C386 0.928 . S
H395 C388 0.929 . S
H396 C389 0.928 . S
H397 C390 0.928 . S
H398 C392 0.929 . S
H399 C393 0.928 . S
C400 C387 1.420 . S
C400 C401 1.385 . S
C400 H410 0.928 . S
C401 C400 1.385 . S
C401 C406 1.407 . S
C401 H411 0.929 . S
C402 C393 1.374 . S
C402 C409 1.388 . S
C402 H412 0.928 . S
C403 C391 1.420 . S
C403 C404 1.385 . S
C403 H413 0.928 . S
C404 C403 1.385 . S
C404 H414 0.929 . S
C404 C416 1.407 . S
C405 C389 1.374 . S
C405 H415 0.928 . S
C405 C419 1.388 . S
C406 C388 1.407 . S
C406 C401 1.407 . S
C406 C407 1.428 . S
C407 C406 1.428 . S
C407 C408 1.230 . S
C408 C407 1.230 . S
C408 C409 1.405 . S
C409 C389 1.388 . S
C409 C402 1.388 . S
C409 C408 1.405 . S
H410 C400 0.928 . S
H411 C401 0.929 . S
H412 C402 0.928 . S
H413 C403 0.928 . S
H414 C404 0.929 . S
H415 C405 0.928 . S
C416 C392 1.407 . S
C416 C404 1.407 . S
C416 C417 1.428 . S
C417 C416 1.428 . S
C417 C418 1.230 . S
C418 C417 1.230 . S
C418 C419 1.405 . S
C419 C393 1.388 . S
C419 C405 1.388 . S
C419 C418 1.405 . S
C420 C421 1.420 . S
C420 C422 1.385 . S
C420 H428 0.928 . S
C421 C420 1.420 . S
C421 C434 1.420 . S
C422 C420 1.385 . S
C422 H429 0.929 . S
C422 C440 1.407 . S
C423 H430 0.928 . S
C423 C439 1.374 1_565 S
C423 C443 1.388 1_564 S
C424 C425 1.420 . S
C424 C426 1.385 . S
C424 H431 0.928 . S
C425 C424 1.420 . S
C425 C437 1.420 . S
C426 C424 1.385 . S
C426 H432 0.929 . S
C426 C450 1.407 . S
C427 H433 0.929 . S
C427 C436 1.374 1_554 S
C427 C453 1.388 . S
H428 C420 0.928 . S
H429 C422 0.929 . S
H430 C423 0.928 . S
H431 C424 0.928 . S
H432 C426 0.929 . S
H433 C427 0.929 . S
C434 C421 1.420 . S
C434 C435 1.385 . S
C434 H444 0.928 . S
C435 C434 1.385 . S
C435 C440 1.407 . S
C435 H445 0.929 . S
C436 C427 1.374 1_556 S
C436 C443 1.388 . S
C436 H446 0.928 . S
C437 C425 1.420 . S
C437 C438 1.385 . S
C437 H447 0.928 . S
C438 C437 1.385 . S
C438 H448 0.929 . S
C438 C450 1.407 . S
C439 C423 1.374 1_545 S
C439 H449 0.928 . S
C439 C453 1.388 . S
C440 C422 1.407 . S
C440 C435 1.407 . S
C440 C441 1.428 . S
C441 C440 1.428 . S
C441 C442 1.230 . S
C442 C441 1.230 . S
C442 C443 1.405 1_565 S
C443 C423 1.388 1_546 S
C443 C436 1.388 . S
C443 C442 1.405 1_545 S
H444 C434 0.928 . S
H445 C435 0.929 . S
H446 C436 0.928 . S
H447 C437 0.928 . S
H448 C438 0.929 . S
H449 C439 0.928 . S
C450 C426 1.407 . S
C450 C438 1.407 . S
C450 C451 1.428 . S
C451 C450 1.428 . S
C451 C452 1.230 . S
C452 C451 1.230 . S
C452 C453 1.405 . S
C453 C427 1.388 . S
C453 C439 1.388 . S
C453 C452 1.405 . S
C454 C455 1.420 . S
C454 C456 1.385 . S
C454 H462 0.928 . S
C455 C454 1.420 . S
C455 C468 1.420 . S
C456 C454 1.385 . S
C456 H463 0.929 . S
C456 C474 1.407 . S
C457 H464 0.928 . S
C457 C473 1.374 . S
C457 C477 1.388 . S
C458 C459 1.420 . S
C458 C460 1.385 . S
C458 H465 0.928 . S
C459 C458 1.420 . S
C459 C471 1.420 . S
C460 C458 1.385 . S
C460 H466 0.929 . S
C460 C484 1.407 . S
C461 H467 0.928 . S
C461 C470 1.374 . S
C461 C487 1.388 . S
H462 C454 0.928 . S
H463 C456 0.929 . S
H464 C457 0.928 . S
H465 C458 0.928 . S
H466 C460 0.929 . S
H467 C461 0.928 . S
C468 C455 1.420 . S
C468 C469 1.385 . S
C468 H478 0.928 . S
C469 C468 1.385 . S
C469 C474 1.407 . S
C469 H479 0.929 . S
C470 C461 1.374 . S
C470 C477 1.388 . S
C470 H480 0.928 . S
C471 C459 1.420 . S
C471 C472 1.385 . S
C471 H481 0.928 . S
C472 C471 1.385 . S
C472 H482 0.929 . S
C472 C484 1.407 . S
C473 C457 1.374 . S
C473 H483 0.928 . S
C473 C487 1.388 . S
C474 C456 1.407 . S
C474 C469 1.407 . S
C474 C475 1.428 . S
C475 C474 1.428 . S
C475 C476 1.230 . S
C476 C475 1.230 . S
C476 C477 1.405 . S
C477 C457 1.388 . S
C477 C470 1.388 . S
C477 C476 1.405 . S
H478 C468 0.928 . S
H479 C469 0.929 . S
H480 C470 0.928 . S
H481 C471 0.928 . S
H482 C472 0.929 . S
H483 C473 0.928 . S
C484 C460 1.407 . S
C484 C472 1.407 . S
C484 C485 1.428 . S
C485 C484 1.428 . S
C485 C486 1.230 . S
C486 C485 1.230 . S
C486 C487 1.405 . S
C487 C461 1.388 . S
C487 C473 1.388 . S
C487 C486 1.405 . S
C488 C489 1.420 . S
C488 C490 1.385 . S
C488 H496 0.928 . S
C489 C488 1.420 . S
C489 C502 1.420 . S
C490 C488 1.385 . S
C490 H497 0.929 . S
C490 C508 1.407 . S
C491 H498 0.928 . S
C491 C507 1.374 . S
C491 C511 1.388 . S
C492 C493 1.420 . S
C492 C494 1.385 . S
C492 H499 0.928 . S
C493 C492 1.420 . S
C493 C505 1.420 . S
C494 C492 1.385 . S
C494 H500 0.929 . S
C494 C518 1.407 . S
C495 H501 0.926 1_556 S
C495 C504 1.377 . S
C495 C521 1.386 1_556 S
H496 C488 0.928 . S
H497 C490 0.929 . S
H498 C491 0.928 . S
H499 C492 0.928 . S
H500 C494 0.929 . S
H501 C495 0.926 1_554 S
C502 C489 1.420 . S
C502 C503 1.385 . S
C502 H512 0.928 . S
C503 C502 1.385 . S
C503 C508 1.407 . S
C503 H513 0.929 . S
C504 C495 1.377 . S
C504 C511 1.388 . S
C504 H514 0.973 . S
C505 C493 1.420 . S
C505 C506 1.385 . S
C505 H515 0.928 . S
C506 C505 1.385 . S
C506 H516 0.929 . S
C506 C518 1.407 . S
C507 C491 1.374 . S
C507 H517 0.928 1_556 S
C507 C521 1.388 1_556 S
C508 C490 1.407 . S
C508 C503 1.407 . S
C508 C509 1.428 . S
C509 C508 1.428 . S
C509 C510 1.230 . S
C510 C509 1.230 . S
C510 C511 1.405 1_455 S
C511 C491 1.388 . S
C511 C504 1.388 . S
C511 C510 1.405 1_655 S
H512 C502 0.928 . S
H513 C503 0.929 . S
H514 C504 0.973 . S
H515 C505 0.928 . S
H516 C506 0.929 . S
H517 C507 0.928 1_554 S
C518 C494 1.407 . S
C518 C506 1.407 . S
C518 C519 1.428 . S
C519 C518 1.428 . S
C519 C520 1.230 . S
C520 C519 1.230 . S
C520 C521 1.405 . S
C521 C495 1.386 1_554 S
C521 C507 1.388 1_554 S
C521 C520 1.405 . S
C522 C523 1.420 . S
C522 C524 1.385 . S
C522 H530 0.928 . S
C523 C522 1.420 . S
C523 C536 1.420 . S
C524 C522 1.385 . S
C524 H531 0.929 . S
C524 C542 1.407 . S
C525 H532 0.928 . S
C525 C541 1.374 1_545 S
C525 C545 1.388 . S
C526 C527 1.420 . S
C526 C528 1.385 . S
C526 H533 0.928 . S
C527 C526 1.420 . S
C527 C539 1.420 . S
C528 C526 1.385 . S
C528 H534 0.929 . S
C528 C552 1.407 . S
C529 H535 0.928 . S
C529 C538 1.374 . S
C529 C555 1.388 1_545 S
H530 C522 0.928 . S
H531 C524 0.929 . S
H532 C525 0.928 . S
H533 C526 0.928 . S
H534 C528 0.929 . S
H535 C529 0.928 . S
C536 C523 1.420 . S
C536 C537 1.385 . S
C536 H546 0.928 . S
C537 C536 1.385 . S
C537 C542 1.407 . S
C537 H547 0.929 . S
C538 C529 1.374 . S
C538 C545 1.388 . S
C538 H548 0.928 . S
C539 C527 1.420 . S
C539 C540 1.385 . S
C539 H549 0.928 . S
C540 C539 1.385 . S
C540 H550 0.929 . S
C540 C552 1.407 . S
C541 C525 1.374 1_565 S
C541 H551 0.928 . S
C541 C555 1.388 . S
C542 C524 1.407 . S
C542 C537 1.407 . S
C542 C543 1.428 . S
C543 C542 1.428 . S
C543 C544 1.230 . S
C544 C543 1.230 . S
C544 C545 1.405 . S
C545 C525 1.388 . S
C545 C538 1.388 . S
C545 C544 1.405 . S
H546 C536 0.928 . S
H547 C537 0.929 . S
H548 C538 0.928 . S
H549 C539 0.928 . S
H550 C540 0.929 . S
H551 C541 0.928 . S
C552 C528 1.407 . S
C552 C540 1.407 . S
C552 C553 1.428 . S
C553 C552 1.428 . S
C553 C554 1.230 . S
C554 C553 1.230 . S
C554 C555 1.405 . S
C555 C529 1.388 1_565 S
C555 C541 1.388 . S
C555 C554 1.405 . S
C556 C557 1.420 . S
C556 C558 1.385 . S
C556 H564 0.928 . S
C557 C556 1.420 . S
C557 C570 1.420 . S
C558 C556 1.385 . S
C558 H565 0.929 . S
C558 C576 1.407 . S
C559 H566 0.928 . S
C559 C575 1.374 . S
C559 C579 1.388 . S
C560 C561 1.420 . S
C560 C562 1.385 . S
C560 H567 0.928 . S
C561 C560 1.420 . S
C561 C573 1.420 . S
C562 C560 1.385 . S
C562 H568 0.929 . S
C562 C586 1.407 . S
C563 H569 0.928 . S
C563 C572 1.374 1_554 S
C563 C589 1.388 . S
H564 C556 0.928 . S
H565 C558 0.929 . S
H566 C559 0.928 . S
H567 C560 0.928 . S
H568 C562 0.929 . S
H569 C563 0.928 . S
C570 C557 1.420 . S
C570 C571 1.385 . S
C570 H580 0.928 . S
C571 C570 1.385 . S
C571 C576 1.407 . S
C571 H581 0.929 . S
C572 C563 1.374 1_556 S
C572 C579 1.388 . S
C572 H582 0.928 . S
C573 C561 1.420 . S
C573 C574 1.385 . S
C573 H583 0.928 . S
C574 C573 1.385 . S
C574 H584 0.929 . S
C574 C586 1.407 . S
C575 C559 1.374 . S
C575 H585 0.928 . S
C575 C589 1.388 1_556 S
C576 C558 1.407 . S
C576 C571 1.407 . S
C576 C577 1.428 . S
C577 C576 1.428 . S
C577 C578 1.230 . S
C578 C577 1.230 . S
C578 C579 1.405 . S
C579 C559 1.388 . S
C579 C572 1.388 . S
C579 C578 1.405 . S
H580 C570 0.928 . S
H581 C571 0.929 . S
H582 C572 0.928 . S
H583 C573 0.928 . S
H584 C574 0.929 . S
H585 C575 0.928 . S
C586 C562 1.407 . S
C586 C574 1.407 . S
C586 C587 1.428 . S
C587 C586 1.428 . S
C587 C588 1.230 . S
C588 C587 1.230 . S
C588 C589 1.405 . S
C589 C563 1.388 . S
C589 C575 1.388 1_554 S
C589 C588 1.405 . S
C590 C591 1.420 . S
C590 C592 1.385 . S
C590 H598 0.928 . S
C591 C590 1.420 . S
C591 C604 1.420 . S
C592 C590 1.385 . S
C592 H599 0.929 . S
C592 C610 1.407 . S
C593 H600 0.928 . S
C593 C609 1.374 . S
C593 C613 1.388 1_655 S
C594 C595 1.420 . S
C594 C596 1.385 . S
C594 H601 0.928 . S
C595 C594 1.420 . S
C595 C607 1.420 . S
C596 C594 1.385 . S
C596 H602 0.929 . S
C596 C620 1.407 . S
C597 H603 0.928 . S
C597 C606 1.374 . S
C597 C623 1.388 1_455 S
H598 C590 0.928 . S
H599 C592 0.929 . S
H600 C593 0.928 . S
H601 C594 0.928 . S
H602 C596 0.929 . S
H603 C597 0.928 . S
C604 C591 1.420 . S
C604 C605 1.385 . S
C604 H614 0.928 . S
C605 C604 1.385 . S
C605 C610 1.407 . S
C605 H615 0.929 . S
C606 C597 1.374 . S
C606 C613 1.388 . S
C606 H616 0.928 . S
C607 C595 1.420 . S
C607 C608 1.385 . S
C607 H617 0.928 . S
C608 C607 1.385 . S
C608 H618 0.929 . S
C608 C620 1.407 . S
C609 C593 1.374 . S
C609 H619 0.928 . S
C609 C623 1.388 . S
C610 C592 1.407 . S
C610 C605 1.407 . S
C610 C611 1.428 . S
C611 C610 1.428 . S
C611 C612 1.230 . S
C612 C611 1.230 . S
C612 C613 1.405 . S
C613 C593 1.388 1_455 S
C613 C606 1.388 . S
C613 C612 1.405 . S
H614 C604 0.928 . S
H615 C605 0.929 . S
H616 C606 0.928 . S
H617 C607 0.928 . S
H618 C608 0.929 . S
H619 C609 0.928 . S
C620 C596 1.407 . S
C620 C608 1.407 . S
C620 C621 1.428 . S
C621 C620 1.428 . S
C621 C622 1.230 . S
C622 C621 1.230 . S
C622 C623 1.405 . S
C623 C597 1.388 1_655 S
C623 C609 1.388 . S
C623 C622 1.405 . S
C217 C3 0.592 . S
C221 C147 0.578 . S
C251 C38 0.617 . S
C255 C182 0.617 . S
C285 C2 0.620 . S
C289 C74 0.621 . S
C319 C111 0.614 . S
C323 C39 0.619 . S
C353 C146 0.642 . S
C357 C75 0.636 . S
C387 C110 0.639 . S
C391 C183 0.635 . S
C421 C112 1.311 . S
C425 C14 1.245 . S
C455 C158 1.259 . S
C459 C40 1.322 . S
C489 C184 1.317 . S
C493 C76 1.315 . S
C523 C4 1.316 . S
C527 C122 1.268 . S
C557 C50 1.270 . S
C561 C148 1.301 . S
C591 C194 1.257 . S
C595 C86 1.261 . S
