# Generated by pormake.
# Topology whz, (6)-cn, num edge types: 1
# Building blocks:
#     Node 0, Type 0, BuildingBlock: IZENUY_clean_sbu_0, # of connection points: 6
#     Node 1, Type 0, BuildingBlock: IZENUY_clean_sbu_0, # of connection points: 6
#     Node 2, Type 0, BuildingBlock: IZENUY_clean_sbu_0, # of connection points: 6
#     Node 3, Type 0, BuildingBlock: IZENUY_clean_sbu_0, # of connection points: 6
#     Node 4, Type 0, BuildingBlock: IZENUY_clean_sbu_0, # of connection points: 6
#     Node 5, Type 0, BuildingBlock: IZENUY_clean_sbu_0, # of connection points: 6
#     Node 6, Type 0, BuildingBlock: IZENUY_clean_sbu_0, # of connection points: 6
#     Node 7, Type 0, BuildingBlock: IZENUY_clean_sbu_0, # of connection points: 6
#     Node 8, Type 0, BuildingBlock: IZENUY_clean_sbu_0, # of connection points: 6
#     Node 9, Type 0, BuildingBlock: IZENUY_clean_sbu_0, # of connection points: 6
#     Node 10, Type 0, BuildingBlock: IZENUY_clean_sbu_0, # of connection points: 6
#     Node 11, Type 0, BuildingBlock: IZENUY_clean_sbu_0, # of connection points: 6
#     Node 12, Type 0, BuildingBlock: IZENUY_clean_sbu_0, # of connection points: 6
#     Node 13, Type 0, BuildingBlock: IZENUY_clean_sbu_0, # of connection points: 6
#     Node 14, Type 0, BuildingBlock: IZENUY_clean_sbu_0, # of connection points: 6
#     Node 15, Type 0, BuildingBlock: IZENUY_clean_sbu_0, # of connection points: 6
#     Edge 16, Type (0, 0), BuildingBlock: TEMPAE_clean_linker_10, # of connection points: 2
#     Edge 17, Type (0, 0), BuildingBlock: TEMPAE_clean_linker_10, # of connection points: 2
#     Edge 18, Type (0, 0), BuildingBlock: TEMPAE_clean_linker_10, # of connection points: 2
#     Edge 19, Type (0, 0), BuildingBlock: TEMPAE_clean_linker_10, # of connection points: 2
#     Edge 20, Type (0, 0), BuildingBlock: TEMPAE_clean_linker_10, # of connection points: 2
#     Edge 21, Type (0, 0), BuildingBlock: TEMPAE_clean_linker_10, # of connection points: 2
#     Edge 22, Type (0, 0), BuildingBlock: TEMPAE_clean_linker_10, # of connection points: 2
#     Edge 23, Type (0, 0), BuildingBlock: TEMPAE_clean_linker_10, # of connection points: 2
#     Edge 24, Type (0, 0), BuildingBlock: TEMPAE_clean_linker_10, # of connection points: 2
#     Edge 25, Type (0, 0), BuildingBlock: TEMPAE_clean_linker_10, # of connection points: 2
#     Edge 26, Type (0, 0), BuildingBlock: TEMPAE_clean_linker_10, # of connection points: 2
#     Edge 27, Type (0, 0), BuildingBlock: TEMPAE_clean_linker_10, # of connection points: 2
#     Edge 28, Type (0, 0), BuildingBlock: TEMPAE_clean_linker_10, # of connection points: 2
#     Edge 29, Type (0, 0), BuildingBlock: TEMPAE_clean_linker_10, # of connection points: 2
#     Edge 30, Type (0, 0), BuildingBlock: TEMPAE_clean_linker_10, # of connection points: 2
#     Edge 31, Type (0, 0), BuildingBlock: TEMPAE_clean_linker_10, # of connection points: 2
#     Edge 32, Type (0, 0), BuildingBlock: TEMPAE_clean_linker_10, # of connection points: 2
#     Edge 33, Type (0, 0), BuildingBlock: TEMPAE_clean_linker_10, # of connection points: 2
#     Edge 34, Type (0, 0), BuildingBlock: TEMPAE_clean_linker_10, # of connection points: 2
#     Edge 35, Type (0, 0), BuildingBlock: TEMPAE_clean_linker_10, # of connection points: 2
#     Edge 36, Type (0, 0), BuildingBlock: TEMPAE_clean_linker_10, # of connection points: 2
#     Edge 37, Type (0, 0), BuildingBlock: TEMPAE_clean_linker_10, # of connection points: 2
#     Edge 38, Type (0, 0), BuildingBlock: TEMPAE_clean_linker_10, # of connection points: 2
#     Edge 39, Type (0, 0), BuildingBlock: TEMPAE_clean_linker_10, # of connection points: 2
#     Edge 40, Type (0, 0), BuildingBlock: TEMPAE_clean_linker_10, # of connection points: 2
#     Edge 41, Type (0, 0), BuildingBlock: TEMPAE_clean_linker_10, # of connection points: 2
#     Edge 42, Type (0, 0), BuildingBlock: TEMPAE_clean_linker_10, # of connection points: 2
#     Edge 43, Type (0, 0), BuildingBlock: TEMPAE_clean_linker_10, # of connection points: 2
#     Edge 44, Type (0, 0), BuildingBlock: TEMPAE_clean_linker_10, # of connection points: 2
#     Edge 45, Type (0, 0), BuildingBlock: TEMPAE_clean_linker_10, # of connection points: 2
#     Edge 46, Type (0, 0), BuildingBlock: TEMPAE_clean_linker_10, # of connection points: 2
#     Edge 47, Type (0, 0), BuildingBlock: TEMPAE_clean_linker_10, # of connection points: 2
#     Edge 48, Type (0, 0), BuildingBlock: TEMPAE_clean_linker_10, # of connection points: 2
#     Edge 49, Type (0, 0), BuildingBlock: TEMPAE_clean_linker_10, # of connection points: 2
#     Edge 50, Type (0, 0), BuildingBlock: TEMPAE_clean_linker_10, # of connection points: 2
#     Edge 51, Type (0, 0), BuildingBlock: TEMPAE_clean_linker_10, # of connection points: 2
#     Edge 52, Type (0, 0), BuildingBlock: TEMPAE_clean_linker_10, # of connection points: 2
#     Edge 53, Type (0, 0), BuildingBlock: TEMPAE_clean_linker_10, # of connection points: 2
#     Edge 54, Type (0, 0), BuildingBlock: TEMPAE_clean_linker_10, # of connection points: 2
#     Edge 55, Type (0, 0), BuildingBlock: TEMPAE_clean_linker_10, # of connection points: 2
#     Edge 56, Type (0, 0), BuildingBlock: TEMPAE_clean_linker_10, # of connection points: 2
#     Edge 57, Type (0, 0), BuildingBlock: TEMPAE_clean_linker_10, # of connection points: 2
#     Edge 58, Type (0, 0), BuildingBlock: TEMPAE_clean_linker_10, # of connection points: 2
#     Edge 59, Type (0, 0), BuildingBlock: TEMPAE_clean_linker_10, # of connection points: 2
#     Edge 60, Type (0, 0), BuildingBlock: TEMPAE_clean_linker_10, # of connection points: 2
#     Edge 61, Type (0, 0), BuildingBlock: TEMPAE_clean_linker_10, # of connection points: 2
#     Edge 62, Type (0, 0), BuildingBlock: TEMPAE_clean_linker_10, # of connection points: 2
#     Edge 63, Type (0, 0), BuildingBlock: TEMPAE_clean_linker_10, # of connection points: 2
# Relax obj value: 0.407
# Max RMSD: 0.253
# Mean RMSD: 0.253
data_MOF--net-whz--node1-IZENUY_clean_sbu_0--edge1-TEMPAE_clean_linker_10
_symmetry_space_group_name_H-M    P1
_symmetry_Int_Tables_number       1
_symmetry_cell_setting            triclinic
loop_
_symmetry_equiv_pos_as_xyz
'x, y, z'
_cell_length_a     34.604552
_cell_length_b     34.636094
_cell_length_c     52.118665
_cell_angle_alpha  90.009887
_cell_angle_beta   90.188835
_cell_angle_gamma 90.02617
loop_
_atom_site_label
_atom_site_type_symbol
_atom_site_fract_x
_atom_site_fract_y
_atom_site_fract_z
_atom_type_partial_charge
Fe0 Fe 0.32213 0.20476 0.14256 0.0
Fe1 Fe 0.24681 0.18253 0.11556 0.0
O2 O 0.29634 0.1737 0.12155 0.0
Fe3 Fe 0.31967 0.13361 0.10717 0.0
O4 O 0.35144 0.12355 0.13515 0.0
O5 O 0.33215 0.16529 0.1642 0.0
O6 O 0.28092 0.21592 0.1628 0.0
C7 C 0.25121 0.19605 0.16719 0.0
C8 C 0.3767 0.18883 0.104 0.0
O9 O 0.23526 0.17646 0.14963 0.0
C10 C 0.26961 0.16241 0.06734 0.0
O11 O 0.31285 0.2469 0.12242 0.0
O12 O 0.25077 0.23477 0.11907 0.0
O13 O 0.3557 0.16505 0.09187 0.0
O14 O 0.36838 0.19887 0.12657 0.0
C15 C 0.24931 0.10137 0.11848 0.0
O16 O 0.25532 0.1886 0.08134 0.0
O17 O 0.2911 0.13631 0.07704 0.0
C18 C 0.27873 0.2583 0.11817 0.0
O19 O 0.23357 0.13214 0.11088 0.0
O20 O 0.28549 0.09942 0.12147 0.0
C21 C 0.34778 0.13358 0.15851 0.0
Fe22 Fe 0.56546 0.59027 0.38927 0.0
Fe23 Fe 0.5764 0.50952 0.3671 0.0
O24 O 0.59231 0.5578 0.37005 0.0
Fe25 Fe 0.63488 0.57424 0.35458 0.0
O26 O 0.65632 0.58759 0.38535 0.0
O27 O 0.60686 0.62091 0.39846 0.0
O28 O 0.57519 0.56212 0.41763 0.0
C29 C 0.56449 0.52754 0.41988 0.0
C30 C 0.57975 0.63439 0.34741 0.0
O31 O 0.55733 0.50699 0.4002 0.0
C32 C 0.60398 0.52754 0.31691 0.0
O33 O 0.51847 0.56625 0.38449 0.0
O34 O 0.53001 0.52452 0.35409 0.0
O35 O 0.61496 0.62348 0.34839 0.0
O36 O 0.55461 0.61917 0.36158 0.0
C37 C 0.65474 0.49891 0.37188 0.0
O38 O 0.59287 0.50383 0.33386 0.0
O39 O 0.61726 0.56042 0.32286 0.0
C40 C 0.5063 0.54401 0.36698 0.0
O41 O 0.62128 0.49086 0.37969 0.0
O42 O 0.66125 0.52833 0.35808 0.0
C43 C 0.64142 0.61007 0.4015 0.0
Fe44 Fe 0.25332 0.83052 0.62228 0.0
Fe45 Fe 0.18688 0.88287 0.60404 0.0
O46 O 0.20354 0.84151 0.62102 0.0
Fe47 Fe 0.17012 0.81185 0.63725 0.0
O48 O 0.19297 0.82039 0.66766 0.0
O49 O 0.25239 0.80982 0.65494 0.0
O50 O 0.26404 0.87666 0.637 0.0
C51 C 0.25709 0.9087 0.62658 0.0
C52 C 0.2246 0.75769 0.61752 0.0
O53 O 0.2314 0.91152 0.60926 0.0
C54 C 0.12906 0.82612 0.59404 0.0
O55 O 0.26289 0.84876 0.58963 0.0
O56 O 0.20569 0.86452 0.57379 0.0
O57 O 0.19714 0.76669 0.63238 0.0
O58 O 0.24601 0.78341 0.60798 0.0
C59 C 0.14583 0.88722 0.64892 0.0
O60 O 0.13895 0.86143 0.59572 0.0
O61 O 0.14538 0.80113 0.60768 0.0
C62 C 0.24095 0.85581 0.57055 0.0
O63 O 0.16842 0.90396 0.63354 0.0
O64 O 0.13738 0.85187 0.64572 0.0
C65 C 0.22738 0.81167 0.67261 0.0
Fe66 Fe 0.95315 0.43139 0.89255 0.0
Fe67 Fe 0.9337 0.50717 0.86564 0.0
O68 O 0.92252 0.4584 0.872 0.0
Fe69 Fe 0.88079 0.43655 0.85846 0.0
O70 O 0.87091 0.4059 0.8871 0.0
O71 O 0.91426 0.4255 0.91528 0.0
O72 O 0.96931 0.4722 0.91161 0.0
C73 C 0.95247 0.50349 0.91645 0.0
C74 C 0.93284 0.377 0.85506 0.0
O75 O 0.93146 0.51966 0.89978 0.0
C76 C 0.90951 0.48484 0.81785 0.0
O77 O 0.99418 0.43689 0.871 0.0
O78 O 0.98599 0.49963 0.86694 0.0
O79 O 0.91023 0.39908 0.84282 0.0
O80 O 0.94276 0.38499 0.87772 0.0
C81 C 0.85222 0.50833 0.87074 0.0
O82 O 0.93666 0.49832 0.83138 0.0
O83 O 0.88295 0.46448 0.82798 0.0
C84 C 0.00711 0.46984 0.86488 0.0
O85 O 0.8835 0.52307 0.86296 0.0
O86 O 0.84875 0.47219 0.87306 0.0
C87 C 0.88161 0.41105 0.9103 0.0
Fe88 Fe 0.67482 0.79383 0.87697 0.0
Fe89 Fe 0.7506 0.80795 0.90587 0.0
O90 O 0.70352 0.8231 0.89743 0.0
Fe91 Fe 0.68494 0.86767 0.90876 0.0
O92 O 0.65639 0.87786 0.87918 0.0
O93 O 0.67401 0.83158 0.85282 0.0
O94 O 0.71477 0.77245 0.85981 0.0
C95 C 0.74832 0.78479 0.85581 0.0
C96 C 0.62099 0.82131 0.91246 0.0
O97 O 0.76541 0.80561 0.87217 0.0
C98 C 0.72887 0.8393 0.95171 0.0
O99 O 0.67509 0.75375 0.89968 0.0
O100 O 0.73797 0.7566 0.90655 0.0
O101 O 0.6444 0.84283 0.92452 0.0
O102 O 0.62889 0.80962 0.8902 0.0
C103 C 0.75973 0.88836 0.8975 0.0
O104 O 0.73972 0.80936 0.93995 0.0
O105 O 0.71118 0.86608 0.93982 0.0
C106 C 0.70618 0.73836 0.90755 0.0
O107 O 0.77108 0.85657 0.90678 0.0
O108 O 0.72418 0.89496 0.89391 0.0
C109 C 0.66183 0.86548 0.85645 0.0
Fe110 Fe 0.3799 0.43485 0.66159 0.0
Fe111 Fe 0.45047 0.41955 0.62786 0.0
O112 O 0.42061 0.45229 0.64445 0.0
Fe113 Fe 0.43057 0.50226 0.64332 0.0
O114 O 0.38415 0.51176 0.62866 0.0
O115 O 0.35043 0.47896 0.65677 0.0
O116 O 0.35831 0.41635 0.63198 0.0
C117 C 0.37523 0.39465 0.61608 0.0
C118 C 0.40644 0.48931 0.69527 0.0
O119 O 0.41067 0.38635 0.6193 0.0
C120 C 0.50403 0.47496 0.6477 0.0
O121 O 0.40215 0.38722 0.66946 0.0
O122 O 0.46217 0.39463 0.65716 0.0
O123 O 0.41208 0.51154 0.67615 0.0
O124 O 0.39913 0.45374 0.69187 0.0
C125 C 0.44892 0.47691 0.59276 0.0
O126 O 0.49528 0.44739 0.63275 0.0
O127 O 0.47805 0.49589 0.65745 0.0
C128 C 0.43766 0.37792 0.67092 0.0
O129 O 0.44091 0.44244 0.59772 0.0
O130 O 0.45102 0.50188 0.61051 0.0
C131 C 0.35238 0.50416 0.63915 0.0
Fe132 Fe 0.82584 0.13794 0.41157 0.0
Fe133 Fe 0.83605 0.2095 0.37769 0.0
O134 O 0.80668 0.18089 0.39803 0.0
Fe135 Fe 0.75862 0.19515 0.40418 0.0
O136 O 0.73945 0.14588 0.40566 0.0
O137 O 0.78875 0.10819 0.39644 0.0
O138 O 0.85645 0.12646 0.38324 0.0
C139 C 0.85155 0.13687 0.35999 0.0
C140 C 0.77822 0.16816 0.45189 0.0
O141 O 0.83913 0.17026 0.3549 0.0
C142 C 0.80146 0.26574 0.40567 0.0
O143 O 0.86436 0.16543 0.4278 0.0
O144 O 0.8815 0.19574 0.39279 0.0
O145 O 0.76676 0.19642 0.43864 0.0
O146 O 0.79753 0.14103 0.44166 0.0
C147 C 0.764 0.21535 0.35364 0.0
O148 O 0.83336 0.25075 0.39922 0.0
O149 O 0.77006 0.24688 0.4039 0.0
C150 C 0.88791 0.18669 0.41581 0.0
O151 O 0.79685 0.2289 0.35855 0.0
O152 O 0.74637 0.19496 0.3699 0.0
C153 C 0.75276 0.11379 0.39807 0.0
Fe154 Fe 0.06953 0.51329 0.1439 0.0
Fe155 Fe 0.12562 0.57539 0.16393 0.0
O156 O 0.084 0.56203 0.14602 0.0
Fe157 Fe 0.0577 0.59764 0.12924 0.0
O158 O 0.06752 0.57503 0.09909 0.0
O159 O 0.04966 0.51698 0.11065 0.0
O160 O 0.11526 0.50004 0.12965 0.0
C161 C 0.14794 0.50595 0.13971 0.0
C162 C 0.99883 0.54647 0.1473 0.0
O163 O 0.15184 0.52995 0.15792 0.0
C164 C 0.0713 0.63538 0.17379 0.0
O165 O 0.08642 0.50094 0.17678 0.0
O166 O 0.10565 0.55631 0.19361 0.0
O167 O 0.01052 0.5729 0.13231 0.0
O168 O 0.02274 0.52392 0.1578 0.0
C169 C 0.13468 0.61717 0.11949 0.0
O170 O 0.10624 0.62384 0.17291 0.0
O171 O 0.04643 0.62194 0.15866 0.0
C172 C 0.09501 0.52153 0.19625 0.0
O173 O 0.14877 0.5933 0.13513 0.0
O174 O 0.10014 0.62862 0.12243 0.0
C175 C 0.05484 0.54228 0.09328 0.0
Fe176 Fe 0.84728 0.69872 0.63925 0.0
Fe177 Fe 0.76294 0.68123 0.62649 0.0
O178 O 0.81245 0.67055 0.62317 0.0
Fe179 Fe 0.82743 0.63075 0.60423 0.0
O180 O 0.84732 0.60698 0.63242 0.0
O181 O 0.88019 0.65755 0.64532 0.0
O182 O 0.82718 0.68757 0.66988 0.0
C183 C 0.79341 0.69543 0.67664 0.0
C184 C 0.88492 0.68768 0.59457 0.0
O185 O 0.76683 0.69958 0.65996 0.0
C186 C 0.77126 0.6604 0.57341 0.0
O187 O 0.81991 0.74444 0.63678 0.0
O188 O 0.76908 0.72914 0.61346 0.0
O189 O 0.87508 0.65231 0.59556 0.0
O190 O 0.86956 0.71173 0.60934 0.0
C191 C 0.75919 0.60313 0.62806 0.0
O192 O 0.75054 0.66503 0.5934 0.0
O193 O 0.80692 0.65251 0.57542 0.0
C194 C 0.79114 0.7543 0.62309 0.0
O195 O 0.75374 0.63411 0.64008 0.0
O196 O 0.78287 0.602 0.60952 0.0
C197 C 0.87083 0.62223 0.64798 0.0
Fe198 Fe 0.07026 0.00743 0.86825 0.0
Fe199 Fe 0.12495 0.07356 0.85265 0.0
O200 O 0.08354 0.05659 0.86928 0.0
Fe201 Fe 0.05562 0.08902 0.88765 0.0
O202 O 0.06613 0.06318 0.91678 0.0
O203 O 0.05091 0.00619 0.90132 0.0
O204 O 0.11612 0.99306 0.88185 0.0
C205 C 0.14862 1.00074 0.87238 0.0
C206 C 0.9986 0.0389 0.86631 0.0
O207 O 0.15266 0.0281 0.85639 0.0
C208 C 0.06833 0.13248 0.84524 0.0
O209 O 0.08722 0.99999 0.83509 0.0
O210 O 0.10604 0.05755 0.82179 0.0
O211 O 0.00947 0.06319 0.88305 0.0
O212 O 0.02327 0.01865 0.85474 0.0
C213 C 0.1316 0.11149 0.8988 0.0
O214 O 0.10373 0.12219 0.84591 0.0
O215 O 0.04379 0.11628 0.85936 0.0
C216 C 0.09541 0.02328 0.81708 0.0
O217 O 0.14723 0.08948 0.8826 0.0
O218 O 0.09639 0.12075 0.89623 0.0
C219 C 0.05748 0.02836 0.92025 0.0
Fe220 Fe 0.65801 0.31064 0.13935 0.0
Fe221 Fe 0.74203 0.32004 0.12328 0.0
O222 O 0.6937 0.3363 0.12226 0.0
Fe223 Fe 0.68046 0.37812 0.10461 0.0
O224 O 0.66342 0.40182 0.13354 0.0
O225 O 0.62782 0.35329 0.14607 0.0
O226 O 0.68158 0.32048 0.16922 0.0
C227 C 0.71478 0.30839 0.17469 0.0
C228 C 0.6194 0.32457 0.09507 0.0
O229 O 0.73917 0.30164 0.15695 0.0
C230 C 0.73208 0.34581 0.07123 0.0
O231 O 0.6816 0.26307 0.1367 0.0
O232 O 0.72888 0.27351 0.10988 0.0
O233 O 0.63132 0.35942 0.09605 0.0
O234 O 0.633 0.29953 0.11003 0.0
C235 C 0.75388 0.39779 0.12624 0.0
O236 O 0.75314 0.33572 0.09016 0.0
O237 O 0.69789 0.35764 0.0747 0.0
C238 C 0.7066 0.2504 0.12117 0.0
O239 O 0.75869 0.36523 0.13652 0.0
O240 O 0.72695 0.40349 0.11004 0.0
C241 C 0.63907 0.38786 0.14885 0.0
Fe242 Fe 0.46752 0.92869 0.39125 0.0
Fe243 Fe 0.45129 0.00473 0.36334 0.0
O244 O 0.43766 0.95693 0.37088 0.0
Fe245 Fe 0.39402 0.93704 0.3587 0.0
O246 O 0.38424 0.90745 0.38766 0.0
O247 O 0.42926 0.92593 0.41487 0.0
O248 O 0.4872 0.96878 0.40926 0.0
C249 C 0.47387 1.00184 0.41354 0.0
C250 C 0.4428 0.87518 0.35459 0.0
O251 O 0.4527 0.01864 0.39726 0.0
C252 C 0.42176 0.98278 0.31678 0.0
O253 O 0.50806 0.93105 0.36903 0.0
O254 O 0.50309 0.99393 0.36292 0.0
O255 O 0.42067 0.89807 0.34268 0.0
O256 O 0.45362 0.88264 0.37715 0.0
C257 C 0.37028 0.01058 0.37084 0.0
O258 O 0.45079 0.9949 0.32911 0.0
O259 O 0.39541 0.96385 0.32809 0.0
C260 C 0.52243 0.96286 0.36169 0.0
O261 O 0.40195 0.02342 0.36229 0.0
O262 O 0.36487 0.97473 0.3737 0.0
C263 C 0.39575 0.91301 0.41058 0.0
Fe264 Fe 0.16832 0.30208 0.37773 0.0
Fe265 Fe 0.25185 0.31177 0.39551 0.0
O266 O 0.20391 0.32948 0.39402 0.0
Fe267 Fe 0.19107 0.37429 0.40839 0.0
O268 O 0.17511 0.39381 0.37763 0.0
O269 O 0.13969 0.344 0.36688 0.0
O270 O 0.19382 0.30611 0.34801 0.0
C271 C 0.22678 0.29196 0.34462 0.0
C272 C 0.12823 0.32385 0.41997 0.0
O273 O 0.25012 0.28803 0.36337 0.0
C274 C 0.24054 0.34549 0.44525 0.0
O275 O 0.19014 0.25458 0.38465 0.0
O276 O 0.23665 0.26802 0.41163 0.0
O277 O 0.14134 0.35805 0.41729 0.0
O278 O 0.1413 0.29648 0.40679 0.0
C279 C 0.26593 0.38842 0.38729 0.0
O280 O 0.26202 0.33192 0.42769 0.0
O281 O 0.2073 0.35878 0.44012 0.0
C282 C 0.21437 0.2437 0.40141 0.0
O283 O 0.27053 0.35415 0.37975 0.0
O284 O 0.23818 0.39759 0.40198 0.0
C285 C 0.15109 0.37818 0.36266 0.0
Fe286 Fe 0.94044 0.99931 0.14841 0.0
Fe287 Fe 0.88057 0.93683 0.16266 0.0
O288 O 0.92382 0.95106 0.14687 0.0
Fe289 Fe 0.9506 0.91663 0.12919 0.0
O290 O 0.94414 0.94305 0.09988 0.0
O291 O 0.96127 0.99938 0.11571 0.0
O292 O 0.89641 0.01728 0.13428 0.0
C293 C 0.86295 0.01179 0.14299 0.0
C294 C 0.00974 0.96273 0.15188 0.0
O295 O 0.85571 0.98358 0.1578 0.0
C296 C 0.93293 0.87476 0.17156 0.0
O297 O 0.92253 0.0079 0.18115 0.0
O298 O 0.8987 0.95211 0.19394 0.0
O299 O 0.99811 0.93901 0.13505 0.0
O300 O 0.98598 0.98484 0.16277 0.0
C301 C 0.87344 0.89843 0.11668 0.0
O302 O 0.89837 0.88727 0.17022 0.0
O303 O 0.95895 0.88863 0.1576 0.0
C304 C 0.91105 0.98569 0.19894 0.0
O305 O 0.85878 0.92166 0.1325 0.0
O306 O 0.90825 0.88772 0.11936 0.0
C307 C 0.95586 0.97704 0.09671 0.0
Fe308 Fe 0.32132 0.62548 0.91403 0.0
Fe309 Fe 0.33446 0.69299 0.87707 0.0
O310 O 0.30284 0.66433 0.89557 0.0
Fe311 Fe 0.25274 0.6735 0.89479 0.0
O312 O 0.24343 0.62603 0.88162 0.0
O313 O 0.27795 0.59482 0.91031 0.0
O314 O 0.33921 0.60215 0.88503 0.0
C315 C 0.36036 0.61767 0.86825 0.0
C316 C 0.26685 0.6531 0.94715 0.0
O317 O 0.36853 0.65328 0.86999 0.0
C318 C 0.27928 0.7473 0.89612 0.0
O319 O 0.3685 0.6494 0.92088 0.0
O320 O 0.36025 0.70782 0.90544 0.0
O321 O 0.24436 0.65688 0.92798 0.0
O322 O 0.30256 0.64634 0.94387 0.0
C323 C 0.2753 0.68731 0.8433 0.0
O324 O 0.30583 0.73766 0.8806 0.0
O325 O 0.25932 0.72188 0.90739 0.0
C326 C 0.37712 0.68513 0.92058 0.0
O327 O 0.31027 0.68 0.84754 0.0
O328 O 0.25199 0.69201 0.8617 0.0
C329 C 0.25311 0.59494 0.89239 0.0
Fe330 Fe 0.56581 0.09748 0.63007 0.0
Fe331 Fe 0.58425 0.01311 0.64174 0.0
O332 O 0.59474 0.06259 0.64551 0.0
Fe333 Fe 0.63507 0.07772 0.66417 0.0
O334 O 0.65771 0.09841 0.63591 0.0
O335 O 0.60643 0.13107 0.62412 0.0
O336 O 0.5765 0.07828 0.59911 0.0
C337 C 0.56889 0.04459 0.59197 0.0
C338 C 0.57762 0.13447 0.6749 0.0
O339 O 0.56565 0.0175 0.6083 0.0
C340 C 0.60672 0.02065 0.6948 0.0
O341 O 0.52031 0.06971 0.63235 0.0
O342 O 0.53636 0.01861 0.65492 0.0
O343 O 0.6131 0.12494 0.67354 0.0
O344 O 0.55329 0.11875 0.66041 0.0
C345 C 0.6626 0.00969 0.63996 0.0
O346 O 0.6005 1.00045 0.67471 0.0
O347 O 0.61495 0.05628 0.69308 0.0
C348 C 0.51086 0.04051 0.64562 0.0
O349 O 0.63141 1.00414 0.62804 0.0
O350 O 0.66411 0.03374 0.65828 0.0
C351 C 0.64178 0.1223 0.62097 0.0
C352 C 0.21759 0.23385 0.20011 0.0
C353 C 0.23516 0.19912 0.19303 0.0
C354 C 0.21548 0.24488 0.22595 0.0
C355 C 0.23176 0.22067 0.24506 0.0
C356 C 0.24736 0.18436 0.23807 0.0
C357 C 0.24898 0.17406 0.21202 0.0
C358 C 0.19826 0.28369 0.23259 0.0
C359 C 0.26455 0.15758 0.2579 0.0
C360 C 0.26434 0.27422 0.30519 0.0
C361 C 0.23187 0.26973 0.32077 0.0
C362 C 0.2655 0.2569 0.28073 0.0
C363 C 0.23369 0.23435 0.2721 0.0
C364 C 0.20209 0.22781 0.28861 0.0
C365 C 0.2015 0.24574 0.31264 0.0
C366 C 0.29981 0.26434 0.26363 0.0
C367 C 0.16791 0.2036 0.2804 0.0
H368 H 0.20813 0.25369 0.18527 0.0
H369 H 0.26378 0.14781 0.20636 0.0
H370 H 0.17601 0.28042 0.24771 0.0
H371 H 0.22114 0.30292 0.24035 0.0
H372 H 0.18484 0.29798 0.21569 0.0
H373 H 0.27377 0.12961 0.24946 0.0
H374 H 0.29001 0.17149 0.26701 0.0
H375 H 0.2433 0.15183 0.27332 0.0
H376 H 0.28778 0.2927 0.31155 0.0
H377 H 0.17659 0.2418 0.32496 0.0
H378 H 0.29063 0.28199 0.24692 0.0
H379 H 0.3113 0.23672 0.25605 0.0
H380 H 0.32341 0.2798 0.27385 0.0
H381 H 0.15142 0.21908 0.26528 0.0
H382 H 0.14807 0.1974 0.2966 0.0
H383 H 0.1777 0.17582 0.27207 0.0
C384 C 0.48681 0.45585 0.5552 0.0
C385 C 0.46511 0.48484 0.56724 0.0
C386 C 0.50388 0.46203 0.53133 0.0
C387 C 0.49823 0.49773 0.51881 0.0
C388 C 0.47597 0.52708 0.53067 0.0
C389 C 0.46013 0.52049 0.5551 0.0
C390 C 0.52839 0.43049 0.51968 0.0
C391 C 0.46872 0.56517 0.51747 0.0
C392 C 0.56936 0.52744 0.46738 0.0
C393 C 0.55004 0.5156 0.44509 0.0
C394 C 0.55309 0.52121 0.49161 0.0
C395 C 0.51602 0.5041 0.49336 0.0
C396 C 0.4966 0.49171 0.47086 0.0
C397 C 0.51413 0.49718 0.44694 0.0
C398 C 0.57533 0.53348 0.51524 0.0
C399 C 0.45674 0.47397 0.47193 0.0
H400 H 0.49128 0.42841 0.56478 0.0
H401 H 0.44334 0.54281 0.56446 0.0
H402 H 0.51584 0.42119 0.50107 0.0
H403 H 0.55787 0.44162 0.51577 0.0
H404 H 0.53083 0.40482 0.53236 0.0
H405 H 0.4494 0.58427 0.52878 0.0
H406 H 0.4965 0.58038 0.5143 0.0
H407 H 0.45545 0.56013 0.49834 0.0
H408 H 0.59703 0.54198 0.46581 0.0
H409 H 0.49885 0.48883 0.42961 0.0
H410 H 0.57548 0.51008 0.52977 0.0
H411 H 0.56117 0.55896 0.52402 0.0
H412 H 0.6057 0.5412 0.51073 0.0
H413 H 0.44693 0.46334 0.45289 0.0
H414 H 0.4358 0.49584 0.47887 0.0
H415 H 0.45614 0.44953 0.48567 0.0
C416 C 0.27145 0.79674 0.70948 0.0
C417 C 0.23522 0.79379 0.69766 0.0
C418 C 0.27847 0.77851 0.73312 0.0
C419 C 0.24894 0.75596 0.7445 0.0
C420 C 0.21278 0.752 0.73215 0.0
C421 C 0.20615 0.77149 0.70911 0.0
C422 C 0.31725 0.78353 0.74601 0.0
C423 C 0.18126 0.72674 0.74309 0.0
C424 C 0.27761 0.68342 0.79568 0.0
C425 C 0.26522 0.70234 0.81789 0.0
C426 C 0.27178 0.7001 0.77145 0.0
C427 C 0.25506 0.73737 0.76976 0.0
C428 C 0.24279 0.7566 0.79226 0.0
C429 C 0.2474 0.7385 0.81606 0.0
C430 C 0.28427 0.67799 0.74792 0.0
C431 C 0.22578 0.79675 0.79129 0.0
H432 H 0.29394 0.81371 0.70044 0.0
H433 H 0.17837 0.76835 0.69965 0.0
H434 H 0.31329 0.79511 0.76569 0.0
H435 H 0.33172 0.75509 0.74785 0.0
H436 H 0.33651 0.80331 0.7352 0.0
H437 H 0.15553 0.72513 0.73033 0.0
H438 H 0.19244 0.69706 0.74621 0.0
H439 H 0.172 0.73804 0.76201 0.0
H440 H 0.29191 0.65564 0.79728 0.0
H441 H 0.2388 0.75349 0.83341 0.0
H442 H 0.31407 0.68677 0.74272 0.0
H443 H 0.26517 0.68379 0.73122 0.0
H444 H 0.28441 0.64641 0.75156 0.0
H445 H 0.24687 0.81696 0.78255 0.0
H446 H 0.21801 0.80763 0.81063 0.0
H447 H 0.19947 0.79703 0.77908 0.0
C448 C 0.93569 0.52343 0.9607 0.0
C449 C 0.96263 0.52208 0.94077 0.0
C450 C 0.94798 0.5284 0.98625 0.0
C451 C 0.98803 0.53174 0.99168 0.0
C452 C 0.01496 0.53278 0.97132 0.0
C453 C 1.00188 0.52783 0.94611 0.0
C454 C 0.91841 0.52794 1.00746 0.0
C455 C 0.05787 0.53657 0.97622 0.0
C456 C 0.02652 0.5719 0.05407 0.0
C457 C 0.03717 0.53827 0.0675 0.0
C458 C 0.00887 0.57004 0.02996 0.0
C459 C 1.00231 0.53367 0.01856 0.0
C460 C 0.01238 0.49949 0.03204 0.0
C461 C 0.02935 0.50218 0.05658 0.0
C462 C 0.99803 0.60711 0.01644 0.0
C463 C 0.00617 0.46018 0.02023 0.0
H464 H 0.90547 0.51785 0.95654 0.0
H465 H 0.02267 0.52589 0.93062 0.0
H466 H 0.92173 0.50117 0.01895 0.0
H467 H 0.92301 0.55269 0.02064 0.0
H468 H 0.88837 0.52911 0.99992 0.0
H469 H 0.07447 0.54004 0.95819 0.0
H470 H 0.06398 0.56173 0.98877 0.0
H471 H 0.0685 0.51043 0.98632 0.0
H472 H 0.03163 0.60005 0.06252 0.0
H473 H 0.03718 0.4762 0.06695 0.0
H474 H 0.96747 0.60595 0.00996 0.0
H475 H 0.01617 0.61081 0.9991 0.0
H476 H 1.00192 0.63285 0.0289 0.0
H477 H 0.97549 0.45665 0.01447 0.0
H478 H 0.01408 0.43642 0.03357 0.0
H479 H 0.02387 0.45747 1.0026 0.0
C480 C 0.76079 0.73261 0.82522 0.0
C481 C 0.76699 0.77114 0.83233 0.0
C482 C 0.76684 0.72027 0.80006 0.0
C483 C 0.7797 0.74718 0.78159 0.0
C484 C 0.78867 0.78556 0.78906 0.0
C485 C 0.78207 0.79723 0.81452 0.0
C486 C 0.75738 0.679 0.79298 0.0
C487 C 0.80343 0.81465 0.7699 0.0
C488 C 0.81918 0.70267 0.72101 0.0
C489 C 0.788 0.70666 0.70381 0.0
C490 C 0.81737 0.71708 0.746 0.0
C491 C 0.78304 0.73487 0.75445 0.0
C492 C 0.75104 0.73835 0.73752 0.0
C493 C 0.75397 0.72436 0.71227 0.0
C494 C 0.85221 0.7128 0.76334 0.0
C495 C 0.71369 0.75664 0.74617 0.0
H496 H 0.74871 0.71267 0.83908 0.0
H497 H 0.78611 0.82717 0.81999 0.0
H498 H 0.74623 0.66217 0.80951 0.0
H499 H 0.73533 0.67843 0.77747 0.0
H500 H 0.78356 0.66437 0.78556 0.0
H501 H 0.78052 0.82099 0.75556 0.0
H502 H 0.81223 0.84216 0.7792 0.0
H503 H 0.82852 0.80267 0.75935 0.0
H504 H 0.84565 0.68885 0.71484 0.0
H505 H 0.72988 0.72775 0.69911 0.0
H506 H 0.84767 0.68806 0.77649 0.0
H507 H 0.85669 0.73899 0.77524 0.0
H508 H 0.879 0.70737 0.75223 0.0
H509 H 0.70161 0.74011 0.76253 0.0
H510 H 0.69173 0.75767 0.73059 0.0
H511 H 0.71915 0.78648 0.75303 0.0
C512 C 0.68958 0.29486 0.21853 0.0
C513 C 0.72093 0.29467 0.20138 0.0
C514 C 0.69285 0.27962 0.24327 0.0
C515 C 0.72867 0.26457 0.25152 0.0
C516 C 0.76062 0.26436 0.23452 0.0
C517 C 0.75629 0.27915 0.2095 0.0
C518 C 0.65797 0.2801 0.26065 0.0
C519 C 0.79947 0.24901 0.24291 0.0
C520 C 0.74982 0.26694 0.32271 0.0
C521 C 0.74612 0.22797 0.32949 0.0
C522 C 0.74356 0.27924 0.29751 0.0
C523 C 0.73323 0.25182 0.27858 0.0
C524 C 0.72725 0.21268 0.28562 0.0
C525 C 0.73388 0.20112 0.31115 0.0
C526 C 0.74999 0.32125 0.29093 0.0
C527 C 0.71548 0.18284 0.26599 0.0
H528 H 0.6619 0.30642 0.21257 0.0
H529 H 0.78053 0.27862 0.19639 0.0
H530 H 0.65377 0.25141 0.26969 0.0
H531 H 0.66255 0.30133 0.27631 0.0
H532 H 0.63107 0.28799 0.25022 0.0
H533 H 0.82117 0.25006 0.22726 0.0
H534 H 0.81044 0.26617 0.25938 0.0
H535 H 0.79659 0.21871 0.24953 0.0
H536 H 0.75967 0.28758 0.33699 0.0
H537 H 0.73187 0.17088 0.31636 0.0
H538 H 0.72391 0.33347 0.28156 0.0
H539 H 0.77418 0.32383 0.27711 0.0
H540 H 0.7569 0.33896 0.30812 0.0
H541 H 0.68971 0.19283 0.25514 0.0
H542 H 0.70887 0.15448 0.27492 0.0
H543 H 0.73916 0.17879 0.25195 0.0
C544 C 0.99946 0.95981 0.06121 0.0
C545 C 0.97323 0.9861 0.07181 0.0
C546 C 0.01567 0.9662 0.03705 0.0
C547 C 1.00453 0.99919 0.02291 0.0
C548 C 0.9784 0.0262 0.0337 0.0
C549 C 0.96339 0.01957 0.05835 0.0
C550 C 0.04444 0.93747 0.02659 0.0
C551 C 0.96559 0.06146 0.01896 0.0
C552 C 0.0664 0.03298 0.96741 0.0
C553 C 0.04685 0.01678 0.94642 0.0
C554 C 0.0535 0.02674 0.99252 0.0
C555 C 0.01959 0.00475 0.99656 0.0
C556 C 1.00015 0.98771 0.97542 0.0
C557 C 0.01434 0.99357 0.95055 0.0
C558 C 0.07567 0.0445 0.01459 0.0
C559 C 0.96364 0.96442 0.97899 0.0
H560 H 0.00743 0.93419 0.07196 0.0
H561 H 0.94307 0.03976 0.06671 0.0
H562 H 0.03263 0.92369 0.00902 0.0
H563 H 0.07152 0.95248 0.0211 0.0
H564 H 0.0516 0.91447 0.04068 0.0
H565 H 0.94512 0.07959 0.03006 0.0
H566 H 0.99103 0.07928 0.01377 0.0
H567 H 0.95137 0.05251 1.00078 0.0
H568 H 0.09152 0.05104 0.96413 0.0
H569 H 0.99886 0.98163 0.93425 0.0
H570 H 0.08019 0.02307 0.03014 0.0
H571 H 0.05881 0.06877 0.02275 0.0
H572 H 0.10428 0.05574 1.00849 0.0
H573 H 0.96903 0.93999 0.99228 0.0
H574 H 0.95235 0.95272 0.96059 0.0
H575 H 0.94101 0.98279 0.9878 0.0
C576 C 0.52682 0.01714 0.44312 0.0
C577 C 0.48752 0.02073 0.43701 0.0
C578 C 0.5401 0.02277 0.46817 0.0
C579 C 0.51336 0.03257 0.48753 0.0
C580 C 0.47399 0.03898 0.48112 0.0
C581 C 0.4614 0.03281 0.45576 0.0
C582 C 0.58231 0.01589 0.47415 0.0
C583 C 0.44493 0.05036 0.50127 0.0
C584 C 0.54119 0.005 0.55577 0.0
C585 C 0.55679 0.03976 0.56485 0.0
C586 C 0.52644 1.00232 0.53065 0.0
C587 C 0.52687 0.03531 0.51451 0.0
C588 C 0.54253 0.07036 0.52358 0.0
C589 C 0.5578 0.07198 0.54839 0.0
C590 C 0.51054 0.96422 0.52131 0.0
C591 C 0.54342 0.10625 0.50708 0.0
H592 H 0.5468 0.00727 0.42852 0.0
H593 H 0.43091 0.03473 0.45105 0.0
H594 H 0.59536 0.04227 0.48257 0.0
H595 H 0.58521 0.99248 0.48856 0.0
H596 H 0.59913 0.00773 0.45687 0.0
H597 H 0.41643 0.05788 0.49275 0.0
H598 H 0.4408 0.02611 0.51489 0.0
H599 H 0.45572 0.07542 0.51247 0.0
H600 H 0.54013 0.9801 0.56834 0.0
H601 H 0.56984 0.09907 0.55503 0.0
H602 H 0.527 0.95441 0.50427 0.0
H603 H 0.47998 0.96772 0.51525 0.0
H604 H 0.51205 0.9414 0.53626 0.0
H605 H 0.56635 0.10334 0.4924 0.0
H606 H 0.54944 0.13263 0.51854 0.0
H607 H 0.51554 0.11026 0.49685 0.0
C608 C 0.13406 0.13058 0.94518 0.0
C609 C 0.15357 0.12425 0.92197 0.0
C610 C 0.15435 0.13799 0.96813 0.0
C611 C 0.19525 0.14051 0.96787 0.0
C612 C 0.21503 0.13556 0.9443 0.0
C613 C 0.19405 0.12683 0.92176 0.0
C614 C 0.13197 0.14192 0.99282 0.0
C615 C 0.25846 0.13883 0.94295 0.0
C616 C 0.24171 0.18926 0.0263 0.0
C617 C 0.25432 0.15743 0.04075 0.0
C618 C 0.22387 0.18431 1.00214 0.0
C619 C 0.21724 0.14658 0.99247 0.0
C620 C 0.23019 0.11438 1.00693 0.0
C621 C 0.24901 0.12022 0.03062 0.0
C622 C 0.2115 0.21948 0.98714 0.0
C623 C 0.22271 0.07361 0.99791 0.0
H624 H 0.10284 0.12807 0.94566 0.0
H625 H 0.20937 0.12188 0.90396 0.0
H626 H 0.14307 0.12119 1.00731 0.0
H627 H 0.13597 0.17134 1.00081 0.0
H628 H 0.10055 0.13668 0.99009 0.0
H629 H 0.26925 0.13744 0.92292 0.0
H630 H 0.26812 0.16642 0.9517 0.0
H631 H 0.27196 0.11509 0.9541 0.0
H632 H 0.24564 0.21809 0.03399 0.0
H633 H 0.25801 0.09539 0.04181 0.0
H634 H 0.17952 0.22046 0.98585 0.0
H635 H 0.22274 0.2179 0.96725 0.0
H636 H 0.22179 0.24673 0.99611 0.0
H637 H 0.1911 0.06859 0.99638 0.0
H638 H 0.23518 0.0517 0.0111 0.0
H639 H 0.23509 0.06921 0.97853 0.0
C640 C 0.64278 0.50684 0.2791 0.0
C641 C 0.60657 0.51361 0.29014 0.0
C642 C 0.64606 0.4878 0.25532 0.0
C643 C 0.61223 0.47626 0.24189 0.0
C644 C 0.57551 0.48466 0.25255 0.0
C645 C 0.57316 0.50248 0.2768 0.0
C646 C 0.68578 0.47839 0.24519 0.0
C647 C 0.53872 0.47402 0.23863 0.0
C648 C 0.62667 0.45109 0.17113 0.0
C649 C 0.62705 0.41058 0.17171 0.0
C650 C 0.62008 0.47282 0.19357 0.0
C651 C 0.6154 0.45368 0.21741 0.0
C652 C 0.61534 0.41274 0.21801 0.0
C653 C 0.62035 0.39178 0.19512 0.0
C654 C 0.61899 0.5163 0.19184 0.0
C655 C 0.61192 0.39098 0.243 0.0
H656 H 0.66861 0.51474 0.2897 0.0
H657 H 0.54517 0.50739 0.28551 0.0
H658 H 0.68915 0.44661 0.24363 0.0
H659 H 0.68945 0.49053 0.22566 0.0
H660 H 0.70917 0.48981 0.25772 0.0
H661 H 0.5127 0.486 0.24818 0.0
H662 H 0.53962 0.48476 0.21857 0.0
H663 H 0.53583 0.44216 0.23776 0.0
H664 H 0.63188 0.46584 0.15312 0.0
H665 H 0.62107 0.36052 0.1958 0.0
H666 H 0.6445 0.52869 0.2018 0.0
H667 H 0.59286 0.5276 0.20158 0.0
H668 H 0.61898 0.5266 0.17165 0.0
H669 H 0.63684 0.39818 0.25559 0.0
H670 H 0.61126 0.35921 0.24013 0.0
H671 H 0.58533 0.39972 0.25329 0.0
C672 C 0.29273 0.83943 0.53892 0.0
C673 C 0.25898 0.86002 0.54481 0.0
C674 C 0.31289 0.846 0.51594 0.0
C675 C 0.29963 0.87459 0.49858 0.0
C676 C 0.265 0.89482 0.50411 0.0
C677 C 0.24487 0.88699 0.527 0.0
C678 C 0.34913 0.82313 0.51064 0.0
C679 C 0.25022 0.92606 0.48644 0.0
C680 C 0.37693 0.92084 0.45664 0.0
C681 C 0.37063 0.90304 0.43277 0.0
C682 C 0.35354 0.91249 0.47793 0.0
C683 C 0.3234 0.88496 0.47559 0.0
C684 C 0.31687 0.86683 0.45156 0.0
C685 C 0.34024 0.87642 0.43036 0.0
C686 C 0.36117 0.93316 0.50297 0.0
C687 C 0.28561 0.83681 0.44835 0.0
H688 H 0.30372 0.81842 0.55253 0.0
H689 H 0.21906 0.90333 0.53152 0.0
H690 H 0.34789 0.81044 0.4911 0.0
H691 H 0.37462 0.84254 0.51134 0.0
H692 H 0.35355 0.7995 0.52476 0.0
H693 H 0.22174 0.93752 0.49262 0.0
H694 H 0.27124 0.95026 0.48596 0.0
H695 H 0.24745 0.91492 0.46657 0.0
H696 H 0.4 0.94185 0.45862 0.0
H697 H 0.33517 0.86252 0.41202 0.0
H698 H 0.36965 0.91203 0.51795 0.0
H699 H 0.33444 0.94767 0.50966 0.0
H700 H 0.38444 0.95513 0.50129 0.0
H701 H 0.29106 0.81231 0.46159 0.0
H702 H 0.284 0.82552 0.42842 0.0
H703 H 0.25712 0.84922 0.45349 0.0
C704 C 0.89473 0.61907 0.69361 0.0
C705 C 0.8837 0.59985 0.67101 0.0
C706 C 0.90028 0.59887 0.71683 0.0
C707 C 0.89568 0.55816 0.71752 0.0
C708 C 0.88662 0.53839 0.69444 0.0
C709 C 0.88022 0.55943 0.67164 0.0
C710 C 0.90893 0.62155 0.74091 0.0
C711 C 0.88266 0.495 0.69395 0.0
C712 C 0.93834 0.50615 0.77596 0.0
C713 C 0.90547 0.49927 0.79102 0.0
C714 C 0.93544 0.52392 0.75168 0.0
C715 C 0.89894 0.53652 0.74248 0.0
C716 C 0.86561 0.52939 0.75757 0.0
C717 C 0.8692 0.51034 0.7814 0.0
C718 C 0.97162 0.53005 0.73612 0.0
C719 C 0.82628 0.5433 0.74903 0.0
H720 H 0.89715 0.65026 0.69349 0.0
H721 H 0.87173 0.5442 0.65435 0.0
H722 H 0.88257 0.62266 0.75296 0.0
H723 H 0.93199 0.6075 0.7524 0.0
H724 H 0.91801 0.65159 0.73655 0.0
H725 H 0.8791 0.48364 0.67415 0.0
H726 H 0.90846 0.48134 0.7028 0.0
H727 H 0.85719 0.48617 0.70541 0.0
H728 H 0.96648 0.49785 0.78332 0.0
H729 H 0.84376 0.50584 0.79312 0.0
H730 H 0.97753 0.56141 0.73427 0.0
H731 H 0.96759 0.51841 0.71645 0.0
H732 H 0.99726 0.516 0.74496 0.0
H733 H 0.82662 0.57521 0.74706 0.0
H734 H 0.80316 0.53518 0.76275 0.0
H735 H 0.819 0.53115 0.72993 0.0
C736 C 0.80961 0.88514 0.09493 0.0
C737 C 0.85019 0.8849 0.09423 0.0
C738 C 0.78741 0.87573 0.07305 0.0
C739 C 0.80609 0.86699 0.04957 0.0
C740 C 0.84707 0.86642 0.04884 0.0
C741 C 0.86853 0.87484 0.07119 0.0
C742 C 0.7439 0.87579 0.07496 0.0
C743 C 0.86835 0.85828 0.02418 0.0
C744 C 0.75456 0.81547 0.99416 0.0
C745 C 0.74417 0.84638 0.97812 0.0
C746 C 0.77329 0.82179 0.01788 0.0
C747 C 0.78299 0.85989 0.02554 0.0
C748 C 0.77195 0.89124 0.00961 0.0
C749 C 0.75231 0.88415 0.98634 0.0
C750 C 0.78351 0.78757 0.03448 0.0
C751 C 0.78235 0.93226 0.0166 0.0
H752 H 0.79514 0.89289 0.11261 0.0
H753 H 0.89983 0.87514 0.07032 0.0
H754 H 0.73181 0.89918 0.06282 0.0
H755 H 0.73204 0.8481 0.06765 0.0
H756 H 0.73383 0.88012 0.09497 0.0
H757 H 0.90023 0.85862 0.0268 0.0
H758 H 0.85972 0.82971 0.01645 0.0
H759 H 0.86049 0.88024 0.00956 0.0
H760 H 0.74843 0.78619 0.98801 0.0
H761 H 0.74498 0.90823 0.97397 0.0
H762 H 0.77295 0.79216 0.05433 0.0
H763 H 0.81537 0.78441 0.03556 0.0
H764 H 0.77105 0.76022 0.02698 0.0
H765 H 0.77087 0.93953 0.03584 0.0
H766 H 0.77095 0.95351 1.00252 0.0
H767 H 0.81425 0.9353 0.01757 0.0
C768 C 0.34574 0.5674 0.83497 0.0
C769 C 0.3712 0.59542 0.84476 0.0
C770 C 0.35239 0.54927 0.81117 0.0
C771 C 0.38615 0.55815 0.79698 0.0
C772 C 0.41279 0.58532 0.80728 0.0
C773 C 0.40462 0.60418 0.83071 0.0
C774 C 0.32225 0.5219 0.80068 0.0
C775 C 0.44972 0.59491 0.79336 0.0
C776 C 0.41395 0.48696 0.74354 0.0
C777 C 0.40217 0.50675 0.72136 0.0
C778 C 0.41002 0.50371 0.76814 0.0
C779 C 0.39244 0.54055 0.77084 0.0
C780 C 0.37991 0.56027 0.74846 0.0
C781 C 0.38564 0.54356 0.72409 0.0
C782 C 0.42493 0.48208 0.79127 0.0
C783 C 0.35976 0.59883 0.75022 0.0
H784 H 0.31948 0.56092 0.8454 0.0
H785 H 0.42439 0.62585 0.83804 0.0
H786 H 0.31037 0.53356 0.78245 0.0
H787 H 0.33544 0.49351 0.79626 0.0
H788 H 0.29799 0.51736 0.81426 0.0
H789 H 0.46934 0.61318 0.80512 0.0
H790 H 0.46515 0.56801 0.78803 0.0
H791 H 0.44294 0.61053 0.77533 0.0
H792 H 0.42694 0.45864 0.7416 0.0
H793 H 0.37615 0.55899 0.70711 0.0
H794 H 0.40065 0.47489 0.80425 0.0
H795 H 0.44531 0.50058 0.80224 0.0
H796 H 0.43991 0.45491 0.7859 0.0
H797 H 0.33513 0.59696 0.76375 0.0
H798 H 0.34876 0.60886 0.73131 0.0
H799 H 0.37998 0.62089 0.75786 0.0
C800 C 0.75447 0.19628 0.49353 0.0
C801 C 0.76292 0.16374 0.47847 0.0
C802 C 0.73657 0.19261 0.51769 0.0
C803 C 0.72557 0.15561 0.52678 0.0
C804 C 0.73419 0.12266 0.51167 0.0
C805 C 0.75323 0.12707 0.48796 0.0
C806 C 0.72878 0.22845 0.53331 0.0
C807 C 0.72206 0.08277 0.52011 0.0
C808 C 0.70399 0.13511 0.59746 0.0
C809 C 0.66343 0.13654 0.59809 0.0
C810 C 0.72459 0.14296 0.57474 0.0
C811 C 0.70425 0.15129 0.55173 0.0
C812 C 0.66332 0.15376 0.55242 0.0
C813 C 0.64355 0.14693 0.5756 0.0
C814 C 0.76816 0.14122 0.57521 0.0
C815 C 0.64009 0.16139 0.52839 0.0
H816 H 0.76175 0.22472 0.48633 0.0
H817 H 0.759 0.10182 0.4763 0.0
H818 H 0.69715 0.23271 0.53529 0.0
H819 H 0.74087 0.22508 0.55293 0.0
H820 H 0.7414 0.25473 0.52445 0.0
H821 H 0.73092 0.06009 0.50626 0.0
H822 H 0.73487 0.07596 0.53911 0.0
H823 H 0.69018 0.08171 0.52227 0.0
H824 H 0.7197 0.12713 0.61469 0.0
H825 H 0.61225 0.14777 0.57575 0.0
H826 H 0.78049 0.16767 0.56642 0.0
H827 H 0.7782 0.11626 0.56369 0.0
H828 H 0.77979 0.13824 0.59501 0.0
H829 H 0.65274 0.18544 0.51716 0.0
H830 H 0.60952 0.1685 0.53276 0.0
H831 H 0.64055 0.13524 0.51608 0.0
C832 C 0.13008 0.43888 0.33972 0.0
C833 C 0.13789 0.39914 0.33917 0.0
C834 C 0.12031 0.45926 0.31713 0.0
C835 C 0.12012 0.43995 0.29308 0.0
C836 C 0.12826 0.39979 0.29247 0.0
C837 C 0.13618 0.37982 0.3155 0.0
C838 C 0.11053 0.50162 0.31898 0.0
C839 C 0.13015 0.37812 0.26736 0.0
C840 C 0.07001 0.48287 0.23366 0.0
C841 C 0.1005 0.50229 0.22157 0.0
C842 C 0.07564 0.4635 0.25726 0.0
C843 C 0.11306 0.46197 0.26853 0.0
C844 C 0.14402 0.48111 0.25603 0.0
C845 C 0.13721 0.50156 0.23305 0.0
C846 C 0.04149 0.44476 0.27018 0.0
C847 C 0.18466 0.47917 0.26658 0.0
H848 H 0.13142 0.45402 0.35791 0.0
H849 H 0.14284 0.34925 0.31483 0.0
H850 H 0.13314 0.51898 0.30932 0.0
H851 H 0.08277 0.50753 0.30901 0.0
H852 H 0.10821 0.51152 0.3392 0.0
H853 H 0.13736 0.34712 0.27007 0.0
H854 H 0.1021 0.38017 0.25712 0.0
H855 H 0.15236 0.39137 0.25481 0.0
H856 H 0.04163 0.48327 0.22479 0.0
H857 H 0.16099 0.51599 0.22352 0.0
H858 H 0.03903 0.45533 0.29021 0.0
H859 H 0.04574 0.41306 0.27109 0.0
H860 H 0.01392 0.45071 0.25994 0.0
H861 H 0.18577 0.49228 0.28597 0.0
H862 H 0.20578 0.49434 0.25412 0.0
H863 H 0.19372 0.44858 0.26857 0.0
C864 C 0.77148 0.66807 0.52535 0.0
C865 C 0.75222 0.65687 0.54781 0.0
C866 C 0.75429 0.66318 0.50097 0.0
C867 C 0.71753 0.64526 0.49882 0.0
C868 C 0.69812 0.63367 0.52149 0.0
C869 C 0.71533 0.64028 0.54564 0.0
C870 C 0.77558 0.67705 0.47749 0.0
C871 C 0.65962 0.61322 0.52022 0.0
C872 C 0.6545 0.65511 0.43858 0.0
C873 C 0.6632 0.6211 0.42515 0.0
C874 C 0.67292 0.66401 0.46205 0.0
C875 C 0.69977 0.63765 0.47292 0.0
C876 C 0.70868 0.60329 0.45936 0.0
C877 C 0.69079 0.59576 0.43555 0.0
C878 C 0.6633 0.70145 0.47538 0.0
C879 C 0.73608 0.5737 0.47043 0.0
H880 H 0.79994 0.68098 0.52689 0.0
H881 H 0.70043 0.6311 0.56286 0.0
H882 H 0.78306 0.65213 0.4651 0.0
H883 H 0.75674 0.69647 0.46603 0.0
H884 H 0.80259 0.69273 0.48247 0.0
H885 H 0.64902 0.60454 0.53947 0.0
H886 H 0.63771 0.63221 0.51113 0.0
H887 H 0.66212 0.58701 0.50809 0.0
H888 H 0.63321 0.67482 0.43072 0.0
H889 H 0.69723 0.56908 0.42555 0.0
H890 H 0.69022 0.71743 0.48007 0.0
H891 H 0.64837 0.69539 0.49374 0.0
H892 H 0.64442 0.72028 0.46349 0.0
H893 H 0.76462 0.58705 0.47436 0.0
H894 H 0.7403 0.54866 0.45741 0.0
H895 H 0.7247 0.56299 0.489 0.0
C896 C 0.13594 0.00659 0.77916 0.0
C897 C 0.09951 0.00765 0.79078 0.0
C898 C 0.1415 0.98767 0.75553 0.0
C899 C 0.10956 0.97048 0.74275 0.0
C900 C 0.07239 0.97279 0.75407 0.0
C901 C 0.06799 0.99059 0.77821 0.0
C902 C 0.18185 0.98476 0.74477 0.0
C903 C 0.03735 0.95604 0.74082 0.0
C904 C 0.12519 0.94792 0.67166 0.0
C905 C 0.13203 0.908 0.67214 0.0
C906 C 0.11608 0.96831 0.69427 0.0
C907 C 0.1155 0.94869 0.71816 0.0
C908 C 0.12225 0.90831 0.71868 0.0
C909 C 0.12961 0.88841 0.69565 0.0
C910 C 0.10776 0.01101 0.69265 0.0
C911 C 0.12341 0.88633 0.74369 0.0
H912 H 0.16046 0.01914 0.78914 0.0
H913 H 0.03985 0.99121 0.78731 0.0
H914 H 0.19016 0.95394 0.74294 0.0
H915 H 0.18286 0.99756 0.72529 0.0
H916 H 0.20357 0.9996 0.75704 0.0
H917 H 0.0101 0.96337 0.75093 0.0
H918 H 0.03552 0.96686 0.72081 0.0
H919 H 0.03991 0.92417 0.73985 0.0
H920 H 0.12709 0.96324 0.65357 0.0
H921 H 0.13547 0.85768 0.69626 0.0
H922 H 0.13113 0.02745 0.70232 0.0
H923 H 0.08039 0.0178 0.70274 0.0
H924 H 0.10545 0.02118 0.67249 0.0
H925 H 0.14618 0.89857 0.75635 0.0
H926 H 0.12941 0.8551 0.74086 0.0
H927 H 0.09551 0.88935 0.75388 0.0
C928 C 0.73367 0.37449 0.02684 0.0
C929 C 0.74998 0.34978 0.04532 0.0
C930 C 0.75281 0.38248 1.00362 0.0
C931 C 0.78888 0.36483 0.99838 0.0
C932 C 0.80451 0.33834 0.01637 0.0
C933 C 0.78513 0.33145 0.03966 0.0
C934 C 0.73535 0.41143 0.98529 0.0
C935 C 0.84249 0.3183 0.01145 0.0
C936 C 0.82926 0.36955 0.92998 0.0
C937 C 0.85681 0.39911 0.93224 0.0
C938 C 0.80709 0.3578 0.95132 0.0
C939 C 0.81188 0.37668 0.97531 0.0
C940 C 0.83905 0.40713 0.97743 0.0
C941 C 0.86133 0.41763 0.95605 0.0
C942 C 0.77901 0.32476 0.94833 0.0
C943 C 0.84467 0.42877 1.00234 0.0
H944 H 0.70668 0.38903 0.03099 0.0
H945 H 0.79792 0.31215 0.05369 0.0
H946 H 0.75402 0.43745 0.9844 0.0
H947 H 0.73381 0.39923 0.96564 0.0
H948 H 0.70587 0.42046 0.99117 0.0
H949 H 0.84861 0.29544 0.02585 0.0
H950 H 0.84251 0.30512 0.99204 0.0
H951 H 0.86633 0.33971 0.01207 0.0
H952 H 0.82567 0.35502 0.91171 0.0
H953 H 0.8822 0.44083 0.95795 0.0
H954 H 0.74941 0.33436 0.95334 0.0
H955 H 0.78682 0.30118 0.9618 0.0
H956 H 0.77863 0.31302 0.9285 0.0
H957 H 0.81677 0.44117 0.00877 0.0
H958 H 0.86607 0.45254 1.00059 0.0
H959 H 0.85469 0.40868 0.01754 0.0
C960 C 0.37833 0.07203 0.17509 0.0
C961 C 0.36248 0.10868 0.17978 0.0
C962 C 0.39025 0.04796 0.19549 0.0
C963 C 0.38627 0.06079 0.22119 0.0
C964 C 0.37076 0.09791 0.22598 0.0
C965 C 0.35901 0.12121 0.20534 0.0
C966 C 0.4066 0.00859 0.18956 0.0
C967 C 0.36589 0.11291 0.253 0.0
C968 C 0.37869 0.99262 0.27832 0.0
C969 C 0.41494 0.99729 0.29017 0.0
C970 C 0.36964 0.01151 0.25515 0.0
C971 C 0.39753 0.03554 0.24332 0.0
C972 C 0.43492 0.03849 0.25433 0.0
C973 C 0.44314 0.01945 0.27758 0.0
C974 C 0.32942 0.00748 0.24414 0.0
C975 C 0.4656 0.06361 0.24235 0.0
H976 H 0.38097 0.06191 0.1555 0.0
H977 H 0.34665 0.1493 0.20937 0.0
H978 H 0.43562 0.00546 0.19844 0.0
H979 H 0.38785 0.98594 0.19798 0.0
H980 H 0.40906 1.00334 0.1686 0.0
H981 H 0.35619 0.14347 0.2534 0.0
H982 H 0.34427 0.09506 0.26328 0.0
H983 H 0.39352 0.11071 0.26375 0.0
H984 H 0.35662 0.97559 0.28775 0.0
H985 H 0.47132 0.02316 0.28638 0.0
H986 H 0.33072 1.00074 0.22336 0.0
H987 H 0.31376 0.03526 0.24621 0.0
H988 H 0.3125 0.98457 0.25393 0.0
H989 H 0.46808 0.05742 0.22153 0.0
H990 H 0.49435 0.05942 0.25148 0.0
H991 H 0.45733 0.09442 0.24435 0.0
C992 C 0.37449 0.38204 0.56864 0.0
C993 C 0.35475 0.38212 0.59216 0.0
C994 C 0.35499 0.37555 0.54522 0.0
C995 C 0.31487 0.36699 0.54518 0.0
C996 C 0.29512 0.36539 0.56901 0.0
C997 C 0.31502 0.37392 0.59207 0.0
C998 C 0.37715 0.37933 0.52043 0.0
C999 C 0.25284 0.35492 0.57015 0.0
C1000 C 0.25564 0.38601 0.48405 0.0
C1001 C 0.25693 0.35012 0.4716 0.0
C1002 C 0.27436 0.39191 0.50786 0.0
C1003 C 0.29361 0.36076 0.52018 0.0
C1004 C 0.29367 0.32405 0.50804 0.0
C1005 C 0.27617 0.31943 0.4837 0.0
C1006 C 0.27476 0.43191 0.51937 0.0
C1007 C 0.31239 0.28961 0.52071 0.0
H1008 H 0.40504 0.38889 0.56839 0.0
H1009 H 0.29949 0.37401 0.6101 0.0
H1010 H 0.37652 0.35161 0.50981 0.0
H1011 H 0.36328 0.40139 0.508 0.0
H1012 H 0.40778 0.38773 0.52364 0.0
H1013 H 0.24258 0.35121 0.59017 0.0
H1014 H 0.23533 0.37782 0.56086 0.0
H1015 H 0.2475 0.32773 0.55943 0.0
H1016 H 0.24134 0.40999 0.47462 0.0
H1017 H 0.27726 0.29162 0.47416 0.0
H1018 H 0.30505 0.44187 0.52177 0.0
H1019 H 0.26147 0.43148 0.53868 0.0
H1020 H 0.259 0.45317 0.50729 0.0
H1021 H 0.34408 0.29403 0.52193 0.0
H1022 H 0.30676 0.26239 0.51005 0.0
H1023 H 0.30154 0.28635 0.54061 0.0
C1024 C 0.87889 0.98762 0.24227 0.0
C1025 C 0.90691 1.00193 0.2253 0.0
C1026 C 0.87104 0.00645 0.26568 0.0
C1027 C 0.89216 0.04002 0.27258 0.0
C1028 C 0.92193 0.05325 0.25616 0.0
C1029 C 0.92866 0.03433 0.2327 0.0
C1030 C 0.83869 0.99162 0.28235 0.0
C1031 C 0.94566 0.08844 0.26285 0.0
C1032 C 0.8452 0.11754 0.31393 0.0
C1033 C 0.8617 0.1109 0.3382 0.0
C1034 C 0.85415 0.09414 0.29275 0.0
C1035 C 0.88087 0.06345 0.29559 0.0
C1036 C 0.89745 0.05629 0.32008 0.0
C1037 C 0.88738 0.07984 0.34116 0.0
C1038 C 0.83514 0.10259 0.26721 0.0
C1039 C 0.92642 0.02425 0.32389 0.0
H1040 H 0.86173 0.96279 0.2367 0.0
H1041 H 0.95056 0.04547 0.21984 0.0
H1042 H 0.84862 0.9885 0.3025 0.0
H1043 H 0.8146 0.01277 0.28231 0.0
H1044 H 0.82739 0.96336 0.27559 0.0
H1045 H 0.97035 0.09255 0.24955 0.0
H1046 H 0.92713 0.11455 0.26201 0.0
H1047 H 0.95701 0.08613 0.28273 0.0
H1048 H 0.82486 0.14108 0.31147 0.0
H1049 H 0.90025 0.07446 0.3598 0.0
H1050 H 0.82053 0.0763 0.25982 0.0
H1051 H 0.85738 0.11095 0.25297 0.0
H1052 H 0.81352 0.12622 0.2685 0.0
H1053 H 0.91384 0.99628 0.31771 0.0
H1054 H 0.93594 0.02169 0.34419 0.0
H1055 H 0.95216 0.02961 0.31175 0.0
C1056 C 0.18544 0.60132 0.087 0.0
C1057 C 0.15712 0.62713 0.09591 0.0
C1058 C 0.20432 0.60704 0.06342 0.0
C1059 C 0.19575 0.64008 0.04843 0.0
C1060 C 0.16823 0.66707 0.05775 0.0
C1061 C 0.14876 0.65995 0.0811 0.0
C1062 C 0.23226 0.57669 0.05405 0.0
C1063 C 0.15884 0.70318 0.0428 0.0
C1064 C 0.26841 0.66409 0.99517 0.0
C1065 C 0.24929 0.6503 0.97323 0.0
C1066 C 0.25087 0.66222 0.01961 0.0
C1067 C 0.21388 0.64488 0.02239 0.0
C1068 C 0.19482 0.63041 1.00027 0.0
C1069 C 0.21239 0.6339 0.97605 0.0
C1070 C 0.27183 0.67896 0.04247 0.0
C1071 C 0.15611 0.61042 1.0022 0.0
H1072 H 0.19175 0.57548 0.09797 0.0
H1073 H 0.12692 0.68 0.08772 0.0
H1074 H 0.22156 0.56423 0.03574 0.0
H1075 H 0.26085 0.58985 0.05014 0.0
H1076 H 0.23619 0.55287 0.0681 0.0
H1077 H 0.14009 0.72322 0.0538 0.0
H1078 H 0.18584 0.71851 0.03751 0.0
H1079 H 0.1438 0.69539 0.0247 0.0
H1080 H 0.29675 0.67707 0.99314 0.0
H1081 H 0.19747 0.62288 0.95925 0.0
H1082 H 0.27878 0.65575 0.05639 0.0
H1083 H 0.25295 0.70001 0.05247 0.0
H1084 H 0.2991 0.69367 0.03696 0.0
H1085 H 0.15823 0.58551 0.01552 0.0
H1086 H 0.14556 0.59979 0.98331 0.0
H1087 H 0.13427 0.63049 0.01018 0.0
C1088 C 0.59178 0.96569 0.72481 0.0
C1089 C 0.61105 1.00063 0.72004 0.0
C1090 C 0.59793 0.94489 0.74773 0.0
C1091 C 0.62492 0.95864 0.76614 0.0
C1092 C 0.6442 0.99409 0.76151 0.0
C1093 C 0.63667 0.01485 0.73876 0.0
C1094 C 0.57599 0.9078 0.75203 0.0
C1095 C 0.67395 0.00942 0.78016 0.0
C1096 C 0.6243 0.91917 0.83492 0.0
C1097 C 0.65219 0.88983 0.83367 0.0
C1098 C 0.61476 0.94143 0.8131 0.0
C1099 C 0.63433 0.93505 0.78957 0.0
C1100 C 0.66307 0.90593 0.7884 0.0
C1101 C 0.67124 0.88347 0.81027 0.0
C1102 C 0.58332 0.97144 0.81511 0.0
C1103 C 0.68547 0.8986 0.76405 0.0
H1104 H 0.57188 0.95449 0.71052 0.0
H1105 H 0.65211 0.04153 0.73516 0.0
H1106 H 0.59634 0.88306 0.75203 0.0
H1107 H 0.56169 0.90834 0.77105 0.0
H1108 H 0.5537 0.90271 0.73701 0.0
H1109 H 0.68571 0.03786 0.77416 0.0
H1110 H 0.66116 0.01246 0.79954 0.0
H1111 H 0.69823 0.98863 0.7818 0.0
H1112 H 0.60931 0.92418 0.85285 0.0
H1113 H 0.69316 0.86117 0.80915 0.0
H1114 H 0.56022 0.96527 0.80086 0.0
H1115 H 0.59513 1.00041 0.81056 0.0
H1116 H 0.57024 0.97239 0.83453 0.0
H1117 H 0.6655 0.88955 0.74849 0.0
H1118 H 0.70784 0.87588 0.76653 0.0
H1119 H 0.6998 0.92559 0.75767 0.0
C1120 C 0.44524 0.2066 0.11014 0.0
C1121 C 0.41346 0.20384 0.09353 0.0
C1122 C 0.47796 0.22823 0.10367 0.0
C1123 C 0.47912 0.24801 0.07988 0.0
C1124 C 0.44796 0.24366 0.06232 0.0
C1125 C 0.41534 0.22154 0.06937 0.0
C1126 C 0.51058 0.23131 0.12294 0.0
C1127 C 0.44809 0.26397 0.03674 0.0
C1128 C 0.54855 0.33148 0.08794 0.0
C1129 C 0.58342 0.31338 0.08167 0.0
C1130 C 0.51307 0.31211 0.08452 0.0
C1131 C 0.51272 0.27397 0.07451 0.0
C1132 C 0.54746 0.25796 0.065 0.0
C1133 C 0.58244 0.27772 0.06892 0.0
C1134 C 0.47669 0.33056 0.0946 0.0
C1135 C 0.54853 0.2179 0.05366 0.0
H1136 H 0.44381 0.19294 0.12885 0.0
H1137 H 0.39053 0.21999 0.05666 0.0
H1138 H 0.53823 0.22235 0.11404 0.0
H1139 H 0.5139 0.26175 0.12923 0.0
H1140 H 0.50564 0.21314 0.14019 0.0
H1141 H 0.42596 0.25192 0.02348 0.0
H1142 H 0.44177 0.29505 0.03968 0.0
H1143 H 0.47688 0.26189 0.02752 0.0
H1144 H 0.54922 0.35883 0.09808 0.0
H1145 H 0.60945 0.26362 0.06412 0.0
H1146 H 0.4694 0.31761 0.11345 0.0
H1147 H 0.45203 0.32518 0.08142 0.0
H1148 H 0.48018 0.36221 0.09722 0.0
H1149 H 0.54796 0.19631 0.06939 0.0
H1150 H 0.57516 0.21314 0.04223 0.0
H1151 H 0.52296 0.21265 0.04124 0.0
C1152 C 0.53327 0.67027 0.32037 0.0
C1153 C 0.5679 0.6703 0.33441 0.0
C1154 C 0.51289 0.70463 0.31584 0.0
C1155 C 0.52709 0.73966 0.32619 0.0
C1156 C 0.56431 0.74036 0.33774 0.0
C1157 C 0.58444 0.70553 0.34164 0.0
C1158 C 0.47399 0.70259 0.30276 0.0
C1159 C 0.58077 0.77711 0.34884 0.0
C1160 C 0.47508 0.83664 0.32007 0.0
C1161 C 0.45574 0.83811 0.34363 0.0
C1162 C 0.49719 0.80397 0.31329 0.0
C1163 C 0.4999 0.77245 0.33059 0.0
C1164 C 0.47803 0.77298 0.35353 0.0
C1165 C 0.45635 0.80574 0.35972 0.0
C1166 C 0.51953 0.80438 0.28851 0.0
C1167 C 0.47943 0.73994 0.37247 0.0
H1168 H 0.52046 0.64291 0.3148 0.0
H1169 H 0.611 0.70552 0.35275 0.0
H1170 H 0.45092 0.70221 0.3175 0.0
H1171 H 0.46917 0.7282 0.29038 0.0
H1172 H 0.47113 0.67607 0.29091 0.0
H1173 H 0.61213 0.77439 0.35311 0.0
H1174 H 0.57634 0.80163 0.33548 0.0
H1175 H 0.56552 0.78406 0.36697 0.0
H1176 H 0.47518 0.86194 0.30782 0.0
H1177 H 0.44146 0.80697 0.37799 0.0
H1178 H 0.51901 0.77558 0.27918 0.0
H1179 H 0.55015 0.81167 0.29261 0.0
H1180 H 0.5079 0.82616 0.27488 0.0
H1181 H 0.47173 0.71244 0.36281 0.0
H1182 H 0.45944 0.74427 0.38885 0.0
H1183 H 0.50921 0.73681 0.38016 0.0
C1184 C 0.92195 0.73061 0.56544 0.0
C1185 C 0.92177 0.70008 0.5831 0.0
C1186 C 0.95581 0.75199 0.56078 0.0
C1187 C 0.98976 0.74372 0.57502 0.0
C1188 C 0.99022 0.71132 0.5917 0.0
C1189 C 0.95631 0.68961 0.59527 0.0
C1190 C 0.95437 0.78513 0.54203 0.0
C1191 C 0.02544 0.70173 0.60765 0.0
C1192 C 0.09033 0.78511 0.56448 0.0
C1193 C 0.09155 0.8144 0.58303 0.0
C1194 C 0.05621 0.76403 0.5599 0.0
C1195 C 0.02312 0.77127 0.57509 0.0
C1196 C 0.02365 0.80247 0.59276 0.0
C1197 C 0.05776 0.82396 0.59626 0.0
C1198 C 0.05652 0.73223 0.54012 0.0
C1199 C 0.9894 0.8109 0.60974 0.0
H1200 H 0.89502 0.73919 0.5564 0.0
H1201 H 0.95588 0.66671 0.60946 0.0
H1202 H 0.95188 0.81273 0.55269 0.0
H1203 H 0.98126 0.78642 0.53052 0.0
H1204 H 0.92922 0.78274 0.52882 0.0
H1205 H 0.02195 0.67431 0.61846 0.0
H1206 H 0.05135 0.6993 0.59531 0.0
H1207 H 0.03091 0.72538 0.62158 0.0
H1208 H 0.1167 0.7772 0.5546 0.0
H1209 H 0.05903 0.84587 0.61112 0.0
H1210 H 0.02898 0.73176 0.52914 0.0
H1211 H 0.05956 0.70392 0.54985 0.0
H1212 H 0.0809 0.73554 0.52647 0.0
H1213 H 0.96279 0.8142 0.59805 0.0
H1214 H 0.99356 0.83751 0.62133 0.0
H1215 H 0.9847 0.78628 0.62301 0.0
C1216 C 0.94893 0.30818 0.86144 0.0
C1217 C 0.94667 0.33972 0.84466 0.0
C1218 C 0.97021 0.27513 0.85523 0.0
C1219 C 0.98998 0.27328 0.8315 0.0
C1220 C 0.98594 0.30408 0.81372 0.0
C1221 C 0.96429 0.33712 0.82054 0.0
C1222 C 0.97305 0.24297 0.87477 0.0
C1223 C 0.00613 0.30313 0.78814 0.0
C1224 C 0.07369 0.20381 0.83931 0.0
C1225 C 0.05558 0.16889 0.83304 0.0
C1226 C 0.05407 0.23917 0.83621 0.0
C1227 C 0.0157 0.23941 0.82643 0.0
C1228 C 0.99946 0.2046 0.81712 0.0
C1229 C 0.01942 0.16972 0.8208 0.0
C1230 C 0.07269 0.2756 0.8462 0.0
C1231 C 0.95915 0.20342 0.80602 0.0
H1232 H 0.93534 0.31014 0.88013 0.0
H1233 H 0.96315 0.36171 0.8077 0.0
H1234 H 0.96379 0.21522 0.86608 0.0
H1235 H 1.00352 0.23953 0.88107 0.0
H1236 H 0.955 0.24847 0.89197 0.0
H1237 H 0.99455 0.32533 0.77479 0.0
H1238 H 0.0374 0.30873 0.79104 0.0
H1239 H 1.00328 0.27429 0.77905 0.0
H1240 H 0.10143 0.20325 0.84904 0.0
H1241 H 0.00534 0.14268 0.81595 0.0
H1242 H 0.0597 0.28322 0.86498 0.0
H1243 H 0.06742 0.30006 0.83291 0.0
H1244 H 0.10435 0.27208 0.84893 0.0
H1245 H 0.93782 0.20446 0.82185 0.0
H1246 H 0.95405 0.17658 0.79482 0.0
H1247 H 0.95382 0.22871 0.79343 0.0
C1248 C 0.55169 0.80775 0.90564 0.0
C1249 C 0.58288 0.80995 0.9228 0.0
C1250 C 0.51812 0.78721 0.91173 0.0
C1251 C 0.51532 0.76837 0.93578 0.0
C1252 C 0.54549 0.77296 0.95405 0.0
C1253 C 0.57916 0.79366 0.94729 0.0
C1254 C 0.4867 0.78363 0.89163 0.0
C1255 C 0.54336 0.75411 0.98008 0.0
C1256 C 0.41176 0.73696 0.94415 0.0
C1257 C 0.41258 0.70015 0.93293 0.0
C1258 C 0.44594 0.75795 0.94837 0.0
C1259 C 0.48168 0.74219 0.94044 0.0
C1260 C 0.48296 0.70344 0.93156 0.0
C1261 C 0.4483 0.68272 0.92807 0.0
C1262 C 0.4432 0.79855 0.95869 0.0
C1263 C 0.52038 0.68539 0.9229 0.0
H1264 H 0.55451 0.82037 0.88669 0.0
H1265 H 0.60344 0.79483 0.96047 0.0
H1266 H 0.48356 0.75297 0.88578 0.0
H1267 H 0.45857 0.7931 0.89959 0.0
H1268 H 0.49287 0.80109 0.87424 0.0
H1269 H 0.56439 0.76703 0.99375 0.0
H1270 H 0.51387 0.7566 0.98821 0.0
H1271 H 0.55005 0.72293 0.97817 0.0
H1272 H 0.38408 0.75048 0.94793 0.0
H1273 H 0.44899 0.65445 0.91914 0.0
H1274 H 0.44436 0.81932 0.9425 0.0
H1275 H 0.4678 0.80503 0.9717 0.0
H1276 H 0.41573 0.80328 0.9692 0.0
H1277 H 0.52905 0.69827 0.90428 0.0
H1278 H 0.51766 0.65366 0.92034 0.0
H1279 H 0.54383 0.69132 0.93691 0.0
C1280 C 0.44174 0.30671 0.66883 0.0
C1281 C 0.45021 0.34084 0.68207 0.0
C1282 C 0.46358 0.27303 0.67298 0.0
C1283 C 0.49404 0.27327 0.6913 0.0
C1284 C 0.50031 0.3068 0.70633 0.0
C1285 C 0.4789 0.34048 0.70111 0.0
C1286 C 0.45619 0.23829 0.65614 0.0
C1287 C 0.53131 0.30798 0.72673 0.0
C1288 C 0.53405 0.1725 0.703 0.0
C1289 C 0.56533 0.17167 0.68599 0.0
C1290 C 0.51262 0.20654 0.70686 0.0
C1291 C 0.52164 0.24001 0.69245 0.0
C1292 C 0.55483 0.2399 0.67651 0.0
C1293 C 0.57657 0.20583 0.67375 0.0
C1294 C 0.47859 0.20573 0.72487 0.0
C1295 C 0.56526 0.27456 0.66038 0.0
H1296 H 0.42031 0.30733 0.6536 0.0
H1297 H 0.48599 0.36713 0.71099 0.0
H1298 H 0.4816 0.23327 0.64362 0.0
H1299 H 0.45225 0.21205 0.66802 0.0
H1300 H 0.43024 0.24201 0.64378 0.0
H1301 H 0.52733 0.33275 0.74 0.0
H1302 H 0.53146 0.28083 0.73805 0.0
H1303 H 0.56003 0.31085 0.71754 0.0
H1304 H 0.52487 0.14588 0.7121 0.0
H1305 H 0.60006 0.20492 0.66004 0.0
H1306 H 0.45146 0.20307 0.71363 0.0
H1307 H 0.47693 0.23292 0.73609 0.0
H1308 H 0.48025 0.18097 0.73837 0.0
H1309 H 0.54243 0.2794 0.64572 0.0
H1310 H 0.59334 0.27082 0.65041 0.0
H1311 H 0.56686 0.3009 0.67242 0.0
C1312 C 0.09088 0.28357 0.45012 0.0
C1313 C 0.09182 0.31543 0.43351 0.0
C1314 C 0.05626 0.26362 0.45487 0.0
C1315 C 0.02196 0.27535 0.44223 0.0
C1316 C 0.02199 0.31024 0.42791 0.0
C1317 C 0.05702 0.32999 0.42378 0.0
C1318 C 0.05754 0.22734 0.47085 0.0
C1319 C 0.98606 0.3241 0.41429 0.0
C1320 C 0.95797 0.19864 0.41227 0.0
C1321 C 0.92445 0.20079 0.42718 0.0
C1322 C 0.99043 0.22136 0.41786 0.0
C1323 C 0.98945 0.24724 0.43892 0.0
C1324 C 0.95666 0.24753 0.45521 0.0
C1325 C 0.92437 0.22426 0.4491 0.0
C1326 C 0.02479 0.21949 0.40006 0.0
C1327 C 0.95453 0.2742 0.47802 0.0
H1328 H 0.11787 0.27206 0.45748 0.0
H1329 H 0.05776 0.3542 0.41059 0.0
H1330 H 0.03099 0.22438 0.48257 0.0
H1331 H 0.05921 0.20186 0.45798 0.0
H1332 H 0.08314 0.22692 0.48377 0.0
H1333 H 0.98896 0.35448 0.40772 0.0
H1334 H 0.98063 0.30561 0.39725 0.0
H1335 H 0.96051 0.32183 0.42698 0.0
H1336 H 0.9579 0.18073 0.39519 0.0
H1337 H 0.89817 0.22661 0.46034 0.0
H1338 H 0.05164 0.214 0.41115 0.0
H1339 H 0.02832 0.24758 0.3901 0.0
H1340 H 0.02168 0.1965 0.38533 0.0
H1341 H 0.98261 0.27534 0.48835 0.0
H1342 H 0.93164 0.26516 0.49166 0.0
H1343 H 0.9478 0.30385 0.47132 0.0
C1344 C 0.02945 0.67107 0.20398 0.0
C1345 C 0.06017 0.67161 0.18651 0.0
C1346 C 0.00741 0.70442 0.20869 0.0
C1347 C 0.01543 0.73862 0.19481 0.0
C1348 C 0.04848 0.74004 0.17876 0.0
C1349 C 0.07069 0.70654 0.17502 0.0
C1350 C 0.97351 0.70196 0.22674 0.0
C1351 C 0.05804 0.77572 0.16338 0.0
C1352 C 0.93501 0.80367 0.17053 0.0
C1353 C 0.9427 0.83784 0.18391 0.0
C1354 C 0.95689 0.77018 0.17514 0.0
C1355 C 0.98669 0.77081 0.19392 0.0
C1356 C 0.99169 0.80415 0.20931 0.0
C1357 C 0.97011 0.83756 0.20377 0.0
C1358 C 0.95065 0.73546 0.15808 0.0
C1359 C 0.02201 0.80571 0.23014 0.0
H1360 H 0.02085 0.64383 0.2125 0.0
H1361 H 0.09378 0.70668 0.16099 0.0
H1362 H 0.97071 0.72887 0.23815 0.0
H1363 H 0.94649 0.6983 0.21549 0.0
H1364 H 0.97626 0.67706 0.24005 0.0
H1365 H 0.08638 0.77328 0.15356 0.0
H1366 H 0.03531 0.78043 0.14863 0.0
H1367 H 0.0586 0.80156 0.17592 0.0
H1368 H 0.9146 0.80425 0.1547 0.0
H1369 H 0.97665 0.86428 0.21374 0.0
H1370 H 0.94764 0.70891 0.16978 0.0
H1371 H 0.97617 0.73155 0.1455 0.0
H1372 H 0.92456 0.73851 0.14578 0.0
H1373 H 0.02308 0.77811 0.24094 0.0
H1374 H 0.01652 0.82969 0.24381 0.0
H1375 H 0.05081 0.81033 0.22138 0.0
C1376 C 0.29335 0.32898 0.1108 0.0
C1377 C 0.26898 0.29976 0.11995 0.0
C1378 C 0.28213 0.36809 0.11238 0.0
C1379 C 0.24614 0.37775 0.12367 0.0
C1380 C 0.22243 0.34826 0.13385 0.0
C1381 C 0.23402 0.30988 0.13171 0.0
C1382 C 0.30814 0.39877 0.10133 0.0
C1383 C 0.18417 0.35701 0.14659 0.0
C1384 C 0.2095 0.47153 0.15058 0.0
C1385 C 0.18004 0.47976 0.13287 0.0
C1386 C 0.2351 0.44071 0.14638 0.0
C1387 C 0.23109 0.41795 0.12393 0.0
C1388 C 0.20453 0.42929 0.10465 0.0
C1389 C 0.17911 0.45992 0.10943 0.0
C1390 C 0.26338 0.42993 0.16727 0.0
C1391 C 0.1998 0.40637 0.08021 0.0
H1392 H 0.32054 0.32123 0.10191 0.0
H1393 H 0.21545 0.28756 0.13949 0.0
H1394 H 0.29594 0.4089 0.08281 0.0
H1395 H 0.30993 0.42412 0.11429 0.0
H1396 H 0.33777 0.38769 0.0978 0.0
H1397 H 0.1702 0.33076 0.15458 0.0
H1398 H 0.18835 0.378 0.16244 0.0
H1399 H 0.16408 0.37024 0.13249 0.0
H1400 H 0.21075 0.48715 0.16859 0.0
H1401 H 0.15704 0.4669 0.09536 0.0
H1402 H 0.29106 0.4197 0.15903 0.0
H1403 H 0.25111 0.40602 0.17885 0.0
H1404 H 0.2693 0.45464 0.1803 0.0
H1405 H 0.22832 0.39777 0.07243 0.0
H1406 H 0.18386 0.42292 0.06529 0.0
H1407 H 0.18333 0.37958 0.08435 0.0
C1408 C 0.29013 0.45513 0.37709 0.0
C1409 C 0.29753 0.41618 0.38246 0.0
C1410 C 0.32073 0.48108 0.37249 0.0
C1411 C 0.35945 0.46791 0.3743 0.0
C1412 C 0.36686 0.42867 0.38016 0.0
C1413 C 0.33585 0.40325 0.38372 0.0
C1414 C 0.31171 0.52238 0.36552 0.0
C1415 C 0.40761 0.41359 0.38318 0.0
C1416 C 0.44855 0.51441 0.34547 0.0
C1417 C 0.46522 0.5319 0.36709 0.0
C1418 C 0.41219 0.49642 0.34695 0.0
C1419 C 0.39272 0.49477 0.37082 0.0
C1420 C 0.40851 0.51423 0.39233 0.0
C1421 C 0.44423 0.53311 0.39008 0.0
C1422 C 0.39584 0.47699 0.32338 0.0
C1423 C 0.38925 0.51251 0.41828 0.0
H1424 H 0.26046 0.46507 0.37603 0.0
H1425 H 0.34165 0.37324 0.38823 0.0
H1426 H 0.32306 0.54209 0.38052 0.0
H1427 H 0.32623 0.5301 0.34727 0.0
H1428 H 0.28017 0.52747 0.36336 0.0
H1429 H 0.40833 0.38255 0.38852 0.0
H1430 H 0.42374 0.41735 0.36501 0.0
H1431 H 0.42308 0.4303 0.39822 0.0
H1432 H 0.46455 0.51362 0.32762 0.0
H1433 H 0.457 0.54638 0.40693 0.0
H1434 H 0.36448 0.48308 0.32147 0.0
H1435 H 0.3993 0.44526 0.32515 0.0
H1436 H 0.41069 0.48655 0.3056 0.0
H1437 H 0.35905 0.52295 0.41687 0.0
H1438 H 0.40474 0.53001 0.43293 0.0
H1439 H 0.38811 0.48213 0.42501 0.0
C1440 C 0.27632 0.70799 0.61343 0.0
C1441 C 0.23704 0.71682 0.6163 0.0
C1442 C 0.28986 0.67013 0.61658 0.0
C1443 C 0.26334 0.64005 0.62198 0.0
C1444 C 0.22336 0.6484 0.62348 0.0
C1445 C 0.21072 0.68683 0.62103 0.0
C1446 C 0.33284 0.66269 0.6153 0.0
C1447 C 0.19409 0.61696 0.62834 0.0
C1448 C 0.3092 0.5423 0.61074 0.0
C1449 C 0.32123 0.53253 0.63557 0.0
C1450 C 0.28696 0.57554 0.60629 0.0
C1451 C 0.27817 0.60038 0.62706 0.0
C1452 C 0.2885 0.58939 0.65239 0.0
C1453 C 0.30944 0.55516 0.65637 0.0
C1454 C 0.27532 0.58542 0.57915 0.0
C1455 C 0.28066 0.61544 0.67504 0.0
H1456 H 0.29689 0.73105 0.61008 0.0
H1457 H 0.18031 0.69352 0.62323 0.0
H1458 H 0.34312 0.65071 0.63385 0.0
H1459 H 0.33918 0.64097 0.60026 0.0
H1460 H 0.34959 0.68928 0.61105 0.0
H1461 H 0.16394 0.62741 0.62595 0.0
H1462 H 0.19888 0.59238 0.61506 0.0
H1463 H 0.19755 0.60582 0.64816 0.0
H1464 H 0.31862 0.5248 0.59468 0.0
H1465 H 0.31939 0.54783 0.67551 0.0
H1466 H 0.29426 0.60872 0.57177 0.0
H1467 H 0.24513 0.5962 0.57851 0.0
H1468 H 0.27785 0.56014 0.56614 0.0
H1469 H 0.29877 0.6418 0.6735 0.0
H1470 H 0.28724 0.60114 0.69363 0.0
H1471 H 0.25005 0.62484 0.67511 0.0
C1472 C 0.06192 0.51326 0.85469 0.0
C1473 C 0.04919 0.47634 0.86182 0.0
C1474 C 0.10036 0.52448 0.85814 0.0
C1475 C 0.12736 0.49764 0.86809 0.0
C1476 C 0.11574 0.45898 0.87259 0.0
C1477 C 0.07653 0.44882 0.8697 0.0
C1478 C 0.11118 0.56614 0.85317 0.0
C1479 C 0.14401 0.42899 0.88198 0.0
C1480 C 0.22557 0.5441 0.86417 0.0
C1481 C 0.22791 0.56144 0.88837 0.0
C1482 C 0.19532 0.51855 0.85824 0.0
C1483 C 0.16584 0.51212 0.87654 0.0
C1484 C 0.16992 0.52735 0.90168 0.0
C1485 C 0.20135 0.55147 0.90739 0.0
C1486 C 0.19319 0.50122 0.83172 0.0
C1487 C 0.13894 0.52187 0.92168 0.0
H1488 H 0.04116 0.53449 0.84803 0.0
H1489 H 0.0671 0.42006 0.87499 0.0
H1490 H 0.12041 0.58003 0.87139 0.0
H1491 H 0.1358 0.56778 0.83968 0.0
H1492 H 0.08682 0.58308 0.84501 0.0
H1493 H 0.13394 0.39934 0.87729 0.0
H1494 H 0.17306 0.43346 0.87352 0.0
H1495 H 0.14684 0.43116 0.90314 0.0
H1496 H 0.24631 0.55193 0.84951 0.0
H1497 H 0.20324 0.56528 0.92603 0.0
H1498 H 0.17382 0.51894 0.81949 0.0
H1499 H 0.18119 0.47151 0.83239 0.0
H1500 H 0.22209 0.50036 0.82252 0.0
H1501 H 0.11248 0.53766 0.9157 0.0
H1502 H 0.14804 0.53272 0.94083 0.0
H1503 H 0.13119 0.49093 0.92344 0.0
C1504 C 0.69144 0.67157 0.89239 0.0
C1505 C 0.70916 0.69598 0.9104 0.0
C1506 C 0.70588 0.63415 0.88798 0.0
C1507 C 0.73865 0.62117 0.90192 0.0
C1508 C 0.75294 0.64381 0.92251 0.0
C1509 C 0.73805 0.68099 0.92644 0.0
C1510 C 0.6891 0.61064 0.86629 0.0
C1511 C 0.78738 0.63105 0.9382 0.0
C1512 C 0.78926 0.52409 0.89277 0.0
C1513 C 0.8195 0.53472 0.87632 0.0
C1514 C 0.76116 0.55127 0.90038 0.0
C1515 C 0.76359 0.58982 0.89135 0.0
C1516 C 0.79285 0.59988 0.87362 0.0
C1517 C 0.82026 0.57232 0.86637 0.0
C1518 C 0.73014 0.53916 0.91898 0.0
C1519 C 0.79648 0.64042 0.86316 0.0
H1520 H 0.66915 0.68301 0.87985 0.0
H1521 H 0.75163 0.69975 0.9405 0.0
H1522 H 0.70664 0.61524 0.84877 0.0
H1523 H 0.68968 0.57935 0.87085 0.0
H1524 H 0.65888 0.61937 0.86197 0.0
H1525 H 0.79066 0.6484 0.956 0.0
H1526 H 0.78489 0.60015 0.94349 0.0
H1527 H 0.81403 0.63448 0.92661 0.0
H1528 H 0.78842 0.49505 0.90052 0.0
H1529 H 0.8431 0.58068 0.8533 0.0
H1530 H 0.70195 0.55238 0.91387 0.0
H1531 H 0.73798 0.54921 0.93852 0.0
H1532 H 0.72677 0.50727 0.91957 0.0
H1533 H 0.76854 0.64993 0.85492 0.0
H1534 H 0.81895 0.64278 0.84805 0.0
H1535 H 0.80398 0.66062 0.87894 0.0
C1536 C 0.70741 0.56114 0.61025 0.0
C1537 C 0.72985 0.57269 0.6313 0.0
C1538 C 0.67283 0.54054 0.61383 0.0
C1539 C 0.66124 0.53026 0.63901 0.0
C1540 C 0.68575 0.53895 0.66005 0.0
C1541 C 0.71938 0.56081 0.656 0.0
C1542 C 0.64719 0.53281 0.59089 0.0
C1543 C 0.67523 0.52742 0.68707 0.0
C1544 C 0.55324 0.52734 0.65176 0.0
C1545 C 0.54482 0.48796 0.64891 0.0
C1546 C 0.59105 0.54128 0.6488 0.0
C1547 C 0.6215 0.5151 0.64361 0.0
C1548 C 0.61352 0.47506 0.64202 0.0
C1549 C 0.57515 0.46202 0.64428 0.0
C1550 C 0.59808 0.58429 0.65016 0.0
C1551 C 0.64532 0.44614 0.63733 0.0
H1552 H 0.71523 0.57092 0.5912 0.0
H1553 H 0.73673 0.56996 0.67227 0.0
H1554 H 0.63771 0.50223 0.59061 0.0
H1555 H 0.62082 0.55093 0.59221 0.0
H1556 H 0.66187 0.53941 0.57247 0.0
H1557 H 0.70013 0.53028 0.70044 0.0
H1558 H 0.65151 0.54614 0.69409 0.0
H1559 H 0.6647 0.49716 0.68757 0.0
H1560 H 0.52993 0.54764 0.655 0.0
H1561 H 0.5688 0.43154 0.64208 0.0
H1562 H 0.61026 0.59461 0.63172 0.0
H1563 H 0.61954 0.59091 0.66539 0.0
H1564 H 0.57124 0.60077 0.65419 0.0
H1565 H 0.65706 0.45005 0.61773 0.0
H1566 H 0.63502 0.4159 0.63926 0.0
H1567 H 0.66947 0.45089 0.65104 0.0
C1568 C 0.81126 0.33061 0.38672 0.0
C1569 C 0.79775 0.30801 0.40711 0.0
C1570 C 0.79551 0.36733 0.38195 0.0
C1571 C 0.7662 0.38175 0.39827 0.0
C1572 C 0.75629 0.36098 0.42072 0.0
C1573 C 0.7718 0.32404 0.42467 0.0
C1574 C 0.80686 0.38843 0.3578 0.0
C1575 C 0.7259 0.37565 0.439 0.0
C1576 C 0.71994 0.48076 0.38889 0.0
C1577 C 0.68555 0.47045 0.3764 0.0
C1578 C 0.7473 0.45241 0.39568 0.0
C1579 C 0.74022 0.41327 0.38924 0.0
C1580 C 0.7063 0.40332 0.37539 0.0
C1581 C 0.67915 0.43196 0.36953 0.0
C1582 C 0.7827 0.46409 0.41077 0.0
C1583 C 0.698 0.36214 0.36745 0.0
H1584 H 0.83093 0.31799 0.3729 0.0
H1585 H 0.76125 0.30643 0.44037 0.0
H1586 H 0.78366 0.385 0.34323 0.0
H1587 H 0.81027 0.41977 0.36152 0.0
H1588 H 0.83419 0.37704 0.34962 0.0
H1589 H 0.72687 0.36018 0.45766 0.0
H1590 H 0.72957 0.40701 0.44255 0.0
H1591 H 0.69686 0.37127 0.43037 0.0
H1592 H 0.72459 0.51063 0.39432 0.0
H1593 H 0.65257 0.42423 0.35969 0.0
H1594 H 0.80899 0.45042 0.40273 0.0
H1595 H 0.77978 0.45392 0.43085 0.0
H1596 H 0.78677 0.49591 0.41102 0.0
H1597 H 0.72293 0.35002 0.35682 0.0
H1598 H 0.67186 0.35983 0.35511 0.0
H1599 H 0.69358 0.34402 0.38475 0.0
C1600 C 0.77984 0.46302 0.13852 0.0
C1601 C 0.78574 0.42586 0.1287 0.0
C1602 C 0.81138 0.4881 0.14271 0.0
C1603 C 0.84928 0.47587 0.13629 0.0
C1604 C 0.85485 0.4388 0.12543 0.0
C1605 C 0.82312 0.41415 0.12211 0.0
C1606 C 0.80435 0.52711 0.15468 0.0
C1607 C 0.89449 0.42481 0.11768 0.0
C1608 C 0.9344 0.54317 0.12544 0.0
C1609 C 0.95742 0.53524 0.14705 0.0
C1610 C 0.89789 0.52592 0.12234 0.0
C1611 C 0.88369 0.50075 0.14155 0.0
C1612 C 0.90549 0.49519 0.16433 0.0
C1613 C 0.94226 0.51213 0.16667 0.0
C1614 C 0.87609 0.53213 0.09754 0.0
C1615 C 0.89116 0.4692 0.18551 0.0
H1616 H 0.75085 0.47188 0.14371 0.0
H1617 H 0.8275 0.38544 0.11432 0.0
H1618 H 0.81917 0.52864 0.17357 0.0
H1619 H 0.81677 0.55021 0.14248 0.0
H1620 H 0.7731 0.533 0.15752 0.0
H1621 H 0.8935 0.3962 0.10806 0.0
H1622 H 0.90817 0.44585 0.10447 0.0
H1623 H 0.91332 0.42247 0.13488 0.0
H1624 H 0.94599 0.56073 0.11006 0.0
H1625 H 0.9598 0.50606 0.18348 0.0
H1626 H 0.84509 0.5378 0.1013 0.0
H1627 H 0.87782 0.50557 0.08568 0.0
H1628 H 0.8881 0.55653 0.08625 0.0
H1629 H 0.86044 0.47548 0.1899 0.0
H1630 H 0.90849 0.47243 0.20337 0.0
H1631 H 0.89287 0.43866 0.17919 0.0
C1632 C 0.80472 0.82552 0.62644 0.0
C1633 C 0.77838 0.79518 0.62284 0.0
C1634 C 0.7919 0.86404 0.62825 0.0
C1635 C 0.75177 0.87212 0.62731 0.0
C1636 C 0.72518 0.84153 0.62354 0.0
C1637 C 0.73883 0.80364 0.62097 0.0
C1638 C 0.82119 0.89599 0.63142 0.0
C1639 C 0.68208 0.84859 0.62302 0.0
C1640 C 0.70617 0.95991 0.65855 0.0
C1641 C 0.69308 0.98028 0.637 0.0
C1642 C 0.72746 0.92563 0.65578 0.0
C1643 C 0.73685 0.91218 0.63086 0.0
C1644 C 0.72661 0.9347 0.60918 0.0
C1645 C 0.70409 0.96807 0.61248 0.0
C1646 C 0.73673 0.90208 0.6794 0.0
C1647 C 0.7371 0.92216 0.58236 0.0
H1648 H 0.83532 0.81913 0.62788 0.0
H1649 H 0.71822 0.78034 0.61854 0.0
H1650 H 0.8162 0.91877 0.61681 0.0
H1651 H 0.81785 0.90964 0.65053 0.0
H1652 H 0.85133 0.88533 0.62962 0.0
H1653 H 0.66527 0.8215 0.62057 0.0
H1654 H 0.67293 0.86266 0.64114 0.0
H1655 H 0.67457 0.86843 0.60708 0.0
H1656 H 0.69707 0.96904 0.67751 0.0
H1657 H 0.69386 0.98385 0.59583 0.0
H1658 H 0.76737 0.89277 0.67928 0.0
H1659 H 0.71865 0.8756 0.67947 0.0
H1660 H 0.73113 0.91832 0.6974 0.0
H1661 H 0.76743 0.91184 0.58168 0.0
H1662 H 0.73346 0.94595 0.56826 0.0
H1663 H 0.71824 0.89782 0.57642 0.0
C1664 C 0.78303 0.94783 0.87429 0.0
C1665 C 0.78932 0.9183 0.89224 0.0
C1666 C 0.81299 0.97354 0.86764 0.0
C1667 C 0.84983 0.96959 0.87935 0.0
C1668 C 0.85565 0.94087 0.89829 0.0
C1669 C 0.82546 0.91565 0.90441 0.0
C1670 C 0.80562 1.00401 0.84754 0.0
C1671 C 0.89425 0.93585 0.91156 0.0
C1672 C 0.94561 0.99634 0.84951 0.0
C1673 C 0.95725 0.02727 0.86515 0.0
C1674 C 0.90904 0.97932 0.85236 0.0
C1675 C 0.88338 0.99364 0.87122 0.0
C1676 C 0.8935 0.02713 0.8853 0.0
C1677 C 0.93033 0.04354 0.88211 0.0
C1678 C 0.89937 0.9438 0.83681 0.0
C1679 C 0.86687 0.04366 0.90537 0.0
H1680 H 0.75519 0.95 0.8648 0.0
H1681 H 0.83044 0.89328 0.9186 0.0
H1682 H 0.81574 0.03262 0.8544 0.0
H1683 H 0.82222 0.99703 0.82997 0.0
H1684 H 0.77453 0.00611 0.84236 0.0
H1685 H 0.89347 0.91322 0.92665 0.0
H1686 H 0.91657 0.9278 0.89728 0.0
H1687 H 0.90347 0.96341 0.92053 0.0
H1688 H 0.96591 0.98383 0.83607 0.0
H1689 H 0.93875 0.06773 0.8941 0.0
H1690 H 0.86942 0.94544 0.82925 0.0
H1691 H 0.90118 0.91793 0.84932 0.0
H1692 H 0.91951 0.93979 0.82046 0.0
H1693 H 0.83651 0.04383 0.89847 0.0
H1694 H 0.87525 0.07353 0.91082 0.0
H1695 H 0.86808 0.02537 0.92283 0.0
C1696 C 0.79516 0.03482 0.13463 0.0
C1697 C 0.83423 0.04286 0.13933 0.0
C1698 C 0.76856 0.065 0.13039 0.0
C1699 C 0.7813 0.10389 0.13178 0.0
C1700 C 0.8206 0.1119 0.13723 0.0
C1701 C 0.8466 0.08134 0.14053 0.0
C1702 C 0.72712 0.05537 0.12398 0.0
C1703 C 0.83532 0.15284 0.13968 0.0
C1704 C 0.73498 0.19146 0.10095 0.0
C1705 C 0.71772 0.20921 0.12216 0.0
C1706 C 0.75259 0.15506 0.10324 0.0
C1707 C 0.75417 0.13673 0.12754 0.0
C1708 C 0.7348 0.15357 0.14866 0.0
C1709 C 0.71632 0.18936 0.14561 0.0
C1710 C 0.77194 0.1376 0.08007 0.0
C1711 C 0.73666 0.13574 0.17508 0.0
H1712 H 0.78567 0.00502 0.13362 0.0
H1713 H 0.87674 0.0876 0.14453 0.0
H1714 H 0.70749 0.06867 0.13824 0.0
H1715 H 0.71948 0.06763 0.10496 0.0
H1716 H 0.72183 0.02374 0.12357 0.0
H1717 H 0.86628 0.15403 0.14532 0.0
H1718 H 0.83182 0.16819 0.12114 0.0
H1719 H 0.81821 0.16876 0.15421 0.0
H1720 H 0.73599 0.2067 0.08279 0.0
H1721 H 0.70341 0.2032 0.16217 0.0
H1722 H 0.76582 0.1062 0.07888 0.0
H1723 H 0.80371 0.14116 0.08178 0.0
H1724 H 0.76232 0.15158 0.06196 0.0
H1725 H 0.7306 0.10434 0.1742 0.0
H1726 H 0.71594 0.14941 0.18855 0.0
H1727 H 0.76626 0.13934 0.18299 0.0
C1728 C 0.58905 0.95237 0.37844 0.0
C1729 C 0.5647 0.96743 0.35937 0.0
C1730 C 0.62574 0.96863 0.38295 0.0
C1731 C 0.63818 1.00035 0.36788 0.0
C1732 C 0.61566 0.01206 0.34652 0.0
C1733 C 0.57906 0.99561 0.34263 0.0
C1734 C 0.64893 0.95496 0.40575 0.0
C1735 C 0.62794 0.04526 0.32965 0.0
C1736 C 0.68686 0.08499 0.4008 0.0
C1737 C 0.72505 0.08227 0.39207 0.0
C1738 C 0.65898 0.05758 0.39386 0.0
C1739 C 0.66927 0.02652 0.37755 0.0
C1740 C 0.7081 0.02269 0.36937 0.0
C1741 C 0.73562 0.05062 0.37677 0.0
C1742 C 0.61805 0.06276 0.4033 0.0
C1743 C 0.72024 0.99003 0.35203 0.0
H1744 H 0.57792 0.93086 0.3916 0.0
H1745 H 0.56022 0.00727 0.32787 0.0
H1746 H 0.68025 0.95455 0.40132 0.0
H1747 H 0.64455 0.97519 0.422 0.0
H1748 H 0.63988 0.92567 0.41202 0.0
H1749 H 0.61117 0.04615 0.31145 0.0
H1750 H 0.6232 0.07285 0.34002 0.0
H1751 H 0.65914 0.04333 0.32503 0.0
H1752 H 0.67847 0.10903 0.41288 0.0
H1753 H 0.76507 0.04834 0.36991 0.0
H1754 H 0.60759 0.03576 0.4123 0.0
H1755 H 0.59868 0.06921 0.38684 0.0
H1756 H 0.6155 0.08653 0.41751 0.0
H1757 H 0.70857 0.96214 0.35905 0.0
H1758 H 0.75218 0.98775 0.35054 0.0
H1759 H 0.70827 0.99484 0.33252 0.0
C1760 C 0.25399 0.19004 0.42005 0.0
C1761 C 0.22456 0.2021 0.40328 0.0
C1762 C 0.27139 0.15366 0.41732 0.0
C1763 C 0.25901 0.12869 0.39739 0.0
C1764 C 0.22649 0.13896 0.38231 0.0
C1765 C 0.20962 0.17555 0.38544 0.0
C1766 C 0.30571 0.1438 0.43403 0.0
C1767 C 0.21195 0.11306 0.36108 0.0
C1768 C 0.34125 0.07573 0.36518 0.0
C1769 C 0.33906 0.03879 0.37614 0.0
C1770 C 0.31456 0.10456 0.37136 0.0
C1771 C 0.28471 0.09652 0.38909 0.0
C1772 C 0.28126 0.05886 0.39951 0.0
C1773 C 0.30852 0.03032 0.39288 0.0
C1774 C 0.31918 0.14412 0.35946 0.0
C1775 C 0.24961 0.04911 0.41826 0.0
H1776 H 0.26536 0.21004 0.43419 0.0
H1777 H 0.18661 0.18431 0.37253 0.0
H1778 H 0.30423 0.11336 0.44055 0.0
H1779 H 0.33262 0.14716 0.42272 0.0
H1780 H 0.30768 0.16287 0.45113 0.0
H1781 H 0.18207 0.12077 0.35514 0.0
H1782 H 0.23104 0.11608 0.34413 0.0
H1783 H 0.2125 0.08233 0.36706 0.0
H1784 H 0.36438 0.08243 0.35192 0.0
H1785 H 0.30665 1.00184 0.40141 0.0
H1786 H 0.32502 0.16578 0.37468 0.0
H1787 H 0.2921 0.15277 0.34958 0.0
H1788 H 0.34316 0.1452 0.34536 0.0
H1789 H 0.25495 0.06435 0.43665 0.0
H1790 H 0.24799 0.01762 0.42218 0.0
H1791 H 0.22121 0.05905 0.41086 0.0
C1792 C 0.07882 0.9485 0.14073 0.0
C1793 C 0.05174 0.97133 0.15384 0.0
C1794 C 0.11711 0.96112 0.1374 0.0
C1795 C 0.12835 0.99767 0.14703 0.0
C1796 C 0.10222 0.01898 0.16239 0.0
C1797 C 0.06436 0.00541 0.16578 0.0
C1798 C 0.14441 0.93682 0.12171 0.0
C1799 C 0.11293 0.05807 0.17312 0.0
C1800 C 0.22849 0.04329 0.14386 0.0
C1801 C 0.22372 0.06783 0.12271 0.0
C1802 C 0.1987 0.01778 0.15115 0.0
C1803 C 0.16359 0.01723 0.13699 0.0
C1804 C 0.16028 0.03962 0.11436 0.0
C1805 C 0.19038 0.06448 0.10753 0.0
C1806 C 0.20384 0.99351 0.17493 0.0
C1807 C 0.12369 0.03979 0.09841 0.0
H1808 H 0.06962 0.92174 0.1318 0.0
H1809 H 0.04391 0.02307 0.17624 0.0
H1810 H 0.14504 0.94782 0.10173 0.0
H1811 H 0.17426 0.9384 0.12948 0.0
H1812 H 0.13514 0.90611 0.12115 0.0
H1813 H 0.09128 0.06876 0.18713 0.0
H1814 H 0.14157 0.05694 0.18269 0.0
H1815 H 0.11495 0.07924 0.15719 0.0
H1816 H 0.25425 0.04585 0.15565 0.0
H1817 H 0.1869 0.08305 0.09091 0.0
H1818 H 0.19063 0.96455 0.1724 0.0
H1819 H 0.1892 0.00775 0.1913 0.0
H1820 H 0.23487 0.98997 0.17997 0.0
H1821 H 0.11531 0.00992 0.09314 0.0
H1822 H 0.12683 0.05688 0.08049 0.0
H1823 H 0.09968 0.0523 0.10976 0.0
C1824 C 0.18943 0.94803 0.85512 0.0
C1825 C 0.17911 0.97158 0.8758 0.0
C1826 C 0.21033 0.91375 0.85911 0.0
C1827 C 0.22193 0.90342 0.88433 0.0
C1828 C 0.21421 0.92894 0.90494 0.0
C1829 C 0.19211 0.96233 0.90051 0.0
C1830 C 0.21671 0.88697 0.83668 0.0
C1831 C 0.22716 0.9198 0.93194 0.0
C1832 C 0.22651 0.79618 0.89964 0.0
C1833 C 0.26584 0.78796 0.89623 0.0
C1834 C 0.21205 0.83366 0.89602 0.0
C1835 C 0.23767 0.86404 0.88954 0.0
C1836 C 0.2777 0.85629 0.88723 0.0
C1837 C 0.29123 0.81821 0.8902 0.0
C1838 C 0.16904 0.84037 0.89811 0.0
C1839 C 0.30606 0.88802 0.88104 0.0
H1840 H 0.17855 0.95486 0.83611 0.0
H1841 H 0.18371 0.98047 0.91651 0.0
H1842 H 0.24662 0.8755 0.83668 0.0
H1843 H 0.19677 0.862 0.83837 0.0
H1844 H 0.21112 0.90143 0.818 0.0
H1845 H 0.22469 0.94526 0.94481 0.0
H1846 H 0.20904 0.89624 0.93985 0.0
H1847 H 0.25757 0.90964 0.93208 0.0
H1848 H 0.2066 0.7729 0.90393 0.0
H1849 H 0.32166 0.81201 0.88753 0.0
H1850 H 0.15764 0.85149 0.87961 0.0
H1851 H 0.16303 0.86253 0.91293 0.0
H1852 H 0.15301 0.81364 0.90314 0.0
H1853 H 0.3006 0.89895 0.86135 0.0
H1854 H 0.33651 0.87799 0.88224 0.0
H1855 H 0.30216 0.91264 0.89441 0.0
C1856 C 0.30633 0.95329 0.60865 0.0
C1857 C 0.28613 0.93943 0.62998 0.0
C1858 C 0.34033 0.97503 0.61177 0.0
C1859 C 0.35362 0.98406 0.63684 0.0
C1860 C 0.33123 0.97298 0.65834 0.0
C1861 C 0.29819 0.95001 0.65467 0.0
C1862 C 0.36379 0.98519 0.58834 0.0
C1863 C 0.34355 0.98308 0.68532 0.0
C1864 C 0.4622 0.98752 0.64711 0.0
C1865 C 0.47012 0.02718 0.64569 0.0
C1866 C 0.42448 0.97336 0.64427 0.0
C1867 C 0.39349 0.99952 0.64069 0.0
C1868 C 0.40101 0.03975 0.64023 0.0
C1869 C 0.43937 0.0531 0.64229 0.0
C1870 C 0.41804 0.93019 0.64428 0.0
C1871 C 0.36862 0.06858 0.6373 0.0
H1872 H 0.2973 0.9445 0.58957 0.0
H1873 H 0.28253 0.93913 0.67115 0.0
H1874 H 0.37259 0.01595 0.58884 0.0
H1875 H 0.39059 0.9676 0.58814 0.0
H1876 H 0.34766 0.97969 0.57023 0.0
H1877 H 0.31975 0.9788 0.69929 0.0
H1878 H 0.36816 0.96448 0.69112 0.0
H1879 H 0.35345 0.01352 0.68637 0.0
H1880 H 0.4858 0.96722 0.64939 0.0
H1881 H 0.44534 0.08379 0.64119 0.0
H1882 H 0.40409 0.9212 0.62602 0.0
H1883 H 0.39829 0.92204 0.6601 0.0
H1884 H 0.44539 0.91375 0.6466 0.0
H1885 H 0.35512 0.06552 0.61808 0.0
H1886 H 0.37884 0.09881 0.63956 0.0
H1887 H 0.34581 0.06288 0.65173 0.0
loop_
_geom_bond_atom_site_label_1
_geom_bond_atom_site_label_2
_geom_bond_distance
_geom_bond_site_symmetry_2
_ccdc_geom_bond_type
Fe0 O2 1.918 . S
Fe0 O5 1.997 . S
Fe0 O6 2.002 . S
Fe0 O11 1.976 . S
Fe0 O14 1.996 . S
Fe1 O2 1.918 . S
Fe1 O9 1.997 . S
Fe1 O12 1.996 . S
Fe1 O16 1.976 . S
Fe1 O19 2.002 . S
O2 Fe0 1.918 . S
O2 Fe1 1.918 . S
O2 Fe3 1.918 . S
Fe3 O2 1.918 . S
Fe3 O4 2.002 . S
Fe3 O13 1.976 . S
Fe3 O17 1.996 . S
Fe3 O20 1.997 . S
O4 Fe3 2.002 . S
O4 C21 1.295 . S
O5 Fe0 1.997 . S
O5 C21 1.235 . S
O6 Fe0 2.002 . S
O6 C7 1.295 . S
C7 O6 1.295 . S
C7 O9 1.235 . S
C8 O13 1.287 . S
C8 O14 1.255 . S
O9 Fe1 1.997 . S
O9 C7 1.235 . S
C10 O16 1.287 . S
C10 O17 1.255 . S
O11 Fe0 1.976 . S
O11 C18 1.287 . S
O12 Fe1 1.996 . S
O12 C18 1.255 . S
O13 Fe3 1.976 . S
O13 C8 1.287 . S
O14 Fe0 1.996 . S
O14 C8 1.255 . S
C15 O19 1.295 . S
C15 O20 1.235 . S
O16 Fe1 1.976 . S
O16 C10 1.287 . S
O17 Fe3 1.996 . S
O17 C10 1.255 . S
C18 O11 1.287 . S
C18 O12 1.255 . S
O19 Fe1 2.002 . S
O19 C15 1.295 . S
O20 Fe3 1.997 . S
O20 C15 1.235 . S
C21 O4 1.295 . S
C21 O5 1.235 . S
Fe22 O24 1.918 . S
Fe22 O27 1.997 . S
Fe22 O28 2.002 . S
Fe22 O33 1.976 . S
Fe22 O36 1.996 . S
Fe23 O24 1.918 . S
Fe23 O31 1.997 . S
Fe23 O34 1.996 . S
Fe23 O38 1.976 . S
Fe23 O41 2.002 . S
O24 Fe22 1.918 . S
O24 Fe23 1.918 . S
O24 Fe25 1.918 . S
Fe25 O24 1.918 . S
Fe25 O26 2.002 . S
Fe25 O35 1.976 . S
Fe25 O39 1.996 . S
Fe25 O42 1.997 . S
O26 Fe25 2.002 . S
O26 C43 1.295 . S
O27 Fe22 1.997 . S
O27 C43 1.235 . S
O28 Fe22 2.002 . S
O28 C29 1.295 . S
C29 O28 1.295 . S
C29 O31 1.235 . S
C30 O35 1.287 . S
C30 O36 1.255 . S
O31 Fe23 1.997 . S
O31 C29 1.235 . S
C32 O38 1.287 . S
C32 O39 1.255 . S
O33 Fe22 1.976 . S
O33 C40 1.287 . S
O34 Fe23 1.996 . S
O34 C40 1.255 . S
O35 Fe25 1.976 . S
O35 C30 1.287 . S
O36 Fe22 1.996 . S
O36 C30 1.255 . S
C37 O41 1.295 . S
C37 O42 1.235 . S
O38 Fe23 1.976 . S
O38 C32 1.287 . S
O39 Fe25 1.996 . S
O39 C32 1.255 . S
C40 O33 1.287 . S
C40 O34 1.255 . S
O41 Fe23 2.002 . S
O41 C37 1.295 . S
O42 Fe25 1.997 . S
O42 C37 1.235 . S
C43 O26 1.295 . S
C43 O27 1.235 . S
Fe44 O46 1.918 . S
Fe44 O49 1.997 . S
Fe44 O50 2.002 . S
Fe44 O55 1.976 . S
Fe44 O58 1.996 . S
Fe45 O46 1.918 . S
Fe45 O53 1.997 . S
Fe45 O56 1.996 . S
Fe45 O60 1.976 . S
Fe45 O63 2.002 . S
O46 Fe44 1.918 . S
O46 Fe45 1.918 . S
O46 Fe47 1.918 . S
Fe47 O46 1.918 . S
Fe47 O48 2.002 . S
Fe47 O57 1.976 . S
Fe47 O61 1.996 . S
Fe47 O64 1.997 . S
O48 Fe47 2.002 . S
O48 C65 1.295 . S
O49 Fe44 1.997 . S
O49 C65 1.235 . S
O50 Fe44 2.002 . S
O50 C51 1.295 . S
C51 O50 1.295 . S
C51 O53 1.235 . S
C52 O57 1.287 . S
C52 O58 1.255 . S
O53 Fe45 1.997 . S
O53 C51 1.235 . S
C54 O60 1.287 . S
C54 O61 1.255 . S
O55 Fe44 1.976 . S
O55 C62 1.287 . S
O56 Fe45 1.996 . S
O56 C62 1.255 . S
O57 Fe47 1.976 . S
O57 C52 1.287 . S
O58 Fe44 1.996 . S
O58 C52 1.255 . S
C59 O63 1.295 . S
C59 O64 1.235 . S
O60 Fe45 1.976 . S
O60 C54 1.287 . S
O61 Fe47 1.996 . S
O61 C54 1.255 . S
C62 O55 1.287 . S
C62 O56 1.255 . S
O63 Fe45 2.002 . S
O63 C59 1.295 . S
O64 Fe47 1.997 . S
O64 C59 1.235 . S
C65 O48 1.295 . S
C65 O49 1.235 . S
Fe66 O68 1.918 . S
Fe66 O71 1.997 . S
Fe66 O72 2.002 . S
Fe66 O77 1.976 1_655 S
Fe66 O80 1.996 . S
Fe67 O68 1.918 . S
Fe67 O75 1.997 . S
Fe67 O78 1.996 . S
Fe67 O82 1.976 . S
Fe67 O85 2.002 . S
O68 Fe66 1.918 . S
O68 Fe67 1.918 . S
O68 Fe69 1.918 . S
Fe69 O68 1.918 . S
Fe69 O70 2.002 . S
Fe69 O79 1.976 . S
Fe69 O83 1.996 . S
Fe69 O86 1.997 . S
O70 Fe69 2.002 . S
O70 C87 1.295 . S
O71 Fe66 1.997 . S
O71 C87 1.235 . S
O72 Fe66 2.002 . S
O72 C73 1.295 . S
C73 O72 1.295 . S
C73 O75 1.235 . S
C74 O79 1.287 . S
C74 O80 1.255 . S
O75 Fe67 1.997 . S
O75 C73 1.235 . S
C76 O82 1.287 . S
C76 O83 1.255 . S
O77 Fe66 1.976 1_455 S
O77 C84 1.287 . S
O78 Fe67 1.996 . S
O78 C84 1.255 1_655 S
O79 Fe69 1.976 . S
O79 C74 1.287 . S
O80 Fe66 1.996 . S
O80 C74 1.255 . S
C81 O85 1.295 . S
C81 O86 1.235 . S
O82 Fe67 1.976 . S
O82 C76 1.287 . S
O83 Fe69 1.996 . S
O83 C76 1.255 . S
C84 O77 1.287 . S
C84 O78 1.255 1_455 S
O85 Fe67 2.002 . S
O85 C81 1.295 . S
O86 Fe69 1.997 . S
O86 C81 1.235 . S
C87 O70 1.295 . S
C87 O71 1.235 . S
Fe88 O90 1.918 . S
Fe88 O93 1.997 . S
Fe88 O94 2.002 . S
Fe88 O99 1.976 . S
Fe88 O102 1.996 . S
Fe89 O90 1.918 . S
Fe89 O97 1.997 . S
Fe89 O100 1.996 . S
Fe89 O104 1.976 . S
Fe89 O107 2.002 . S
O90 Fe88 1.918 . S
O90 Fe89 1.918 . S
O90 Fe91 1.918 . S
Fe91 O90 1.918 . S
Fe91 O92 2.002 . S
Fe91 O101 1.976 . S
Fe91 O105 1.996 . S
Fe91 O108 1.997 . S
O92 Fe91 2.002 . S
O92 C109 1.295 . S
O93 Fe88 1.997 . S
O93 C109 1.235 . S
O94 Fe88 2.002 . S
O94 C95 1.295 . S
C95 O94 1.295 . S
C95 O97 1.235 . S
C96 O101 1.287 . S
C96 O102 1.255 . S
O97 Fe89 1.997 . S
O97 C95 1.235 . S
C98 O104 1.287 . S
C98 O105 1.255 . S
O99 Fe88 1.976 . S
O99 C106 1.287 . S
O100 Fe89 1.996 . S
O100 C106 1.255 . S
O101 Fe91 1.976 . S
O101 C96 1.287 . S
O102 Fe88 1.996 . S
O102 C96 1.255 . S
C103 O107 1.295 . S
C103 O108 1.235 . S
O104 Fe89 1.976 . S
O104 C98 1.287 . S
O105 Fe91 1.996 . S
O105 C98 1.255 . S
C106 O99 1.287 . S
C106 O100 1.255 . S
O107 Fe89 2.002 . S
O107 C103 1.295 . S
O108 Fe91 1.997 . S
O108 C103 1.235 . S
C109 O92 1.295 . S
C109 O93 1.235 . S
Fe110 O112 1.918 . S
Fe110 O115 1.997 . S
Fe110 O116 2.002 . S
Fe110 O121 1.976 . S
Fe110 O124 1.996 . S
Fe111 O112 1.918 . S
Fe111 O119 1.997 . S
Fe111 O122 1.996 . S
Fe111 O126 1.976 . S
Fe111 O129 2.002 . S
O112 Fe110 1.918 . S
O112 Fe111 1.918 . S
O112 Fe113 1.918 . S
Fe113 O112 1.918 . S
Fe113 O114 2.002 . S
Fe113 O123 1.976 . S
Fe113 O127 1.996 . S
Fe113 O130 1.997 . S
O114 Fe113 2.002 . S
O114 C131 1.295 . S
O115 Fe110 1.997 . S
O115 C131 1.235 . S
O116 Fe110 2.002 . S
O116 C117 1.295 . S
C117 O116 1.295 . S
C117 O119 1.235 . S
C118 O123 1.287 . S
C118 O124 1.255 . S
O119 Fe111 1.997 . S
O119 C117 1.235 . S
C120 O126 1.287 . S
C120 O127 1.255 . S
O121 Fe110 1.976 . S
O121 C128 1.287 . S
O122 Fe111 1.996 . S
O122 C128 1.255 . S
O123 Fe113 1.976 . S
O123 C118 1.287 . S
O124 Fe110 1.996 . S
O124 C118 1.255 . S
C125 O129 1.295 . S
C125 O130 1.235 . S
O126 Fe111 1.976 . S
O126 C120 1.287 . S
O127 Fe113 1.996 . S
O127 C120 1.255 . S
C128 O121 1.287 . S
C128 O122 1.255 . S
O129 Fe111 2.002 . S
O129 C125 1.295 . S
O130 Fe113 1.997 . S
O130 C125 1.235 . S
C131 O114 1.295 . S
C131 O115 1.235 . S
Fe132 O134 1.918 . S
Fe132 O137 1.997 . S
Fe132 O138 2.002 . S
Fe132 O143 1.976 . S
Fe132 O146 1.996 . S
Fe133 O134 1.918 . S
Fe133 O141 1.997 . S
Fe133 O144 1.996 . S
Fe133 O148 1.976 . S
Fe133 O151 2.002 . S
O134 Fe132 1.918 . S
O134 Fe133 1.918 . S
O134 Fe135 1.918 . S
Fe135 O134 1.918 . S
Fe135 O136 2.002 . S
Fe135 O145 1.976 . S
Fe135 O149 1.996 . S
Fe135 O152 1.997 . S
O136 Fe135 2.002 . S
O136 C153 1.295 . S
O137 Fe132 1.997 . S
O137 C153 1.235 . S
O138 Fe132 2.002 . S
O138 C139 1.295 . S
C139 O138 1.295 . S
C139 O141 1.235 . S
C140 O145 1.287 . S
C140 O146 1.255 . S
O141 Fe133 1.997 . S
O141 C139 1.235 . S
C142 O148 1.287 . S
C142 O149 1.255 . S
O143 Fe132 1.976 . S
O143 C150 1.287 . S
O144 Fe133 1.996 . S
O144 C150 1.255 . S
O145 Fe135 1.976 . S
O145 C140 1.287 . S
O146 Fe132 1.996 . S
O146 C140 1.255 . S
C147 O151 1.295 . S
C147 O152 1.235 . S
O148 Fe133 1.976 . S
O148 C142 1.287 . S
O149 Fe135 1.996 . S
O149 C142 1.255 . S
C150 O143 1.287 . S
C150 O144 1.255 . S
O151 Fe133 2.002 . S
O151 C147 1.295 . S
O152 Fe135 1.997 . S
O152 C147 1.235 . S
C153 O136 1.295 . S
C153 O137 1.235 . S
Fe154 O156 1.918 . S
Fe154 O159 1.997 . S
Fe154 O160 2.002 . S
Fe154 O165 1.976 . S
Fe154 O168 1.996 . S
Fe155 O156 1.918 . S
Fe155 O163 1.997 . S
Fe155 O166 1.996 . S
Fe155 O170 1.976 . S
Fe155 O173 2.002 . S
O156 Fe154 1.918 . S
O156 Fe155 1.918 . S
O156 Fe157 1.918 . S
Fe157 O156 1.918 . S
Fe157 O158 2.002 . S
Fe157 O167 1.976 1_455 S
Fe157 O171 1.996 . S
Fe157 O174 1.997 . S
O158 Fe157 2.002 . S
O158 C175 1.295 . S
O159 Fe154 1.997 . S
O159 C175 1.235 . S
O160 Fe154 2.002 . S
O160 C161 1.295 . S
C161 O160 1.295 . S
C161 O163 1.235 . S
C162 O167 1.287 . S
C162 O168 1.255 1_655 S
O163 Fe155 1.997 . S
O163 C161 1.235 . S
C164 O170 1.287 . S
C164 O171 1.255 . S
O165 Fe154 1.976 . S
O165 C172 1.287 . S
O166 Fe155 1.996 . S
O166 C172 1.255 . S
O167 Fe157 1.976 1_655 S
O167 C162 1.287 . S
O168 Fe154 1.996 . S
O168 C162 1.255 1_455 S
C169 O173 1.295 . S
C169 O174 1.235 . S
O170 Fe155 1.976 . S
O170 C164 1.287 . S
O171 Fe157 1.996 . S
O171 C164 1.255 . S
C172 O165 1.287 . S
C172 O166 1.255 . S
O173 Fe155 2.002 . S
O173 C169 1.295 . S
O174 Fe157 1.997 . S
O174 C169 1.235 . S
C175 O158 1.295 . S
C175 O159 1.235 . S
Fe176 O178 1.918 . S
Fe176 O181 1.997 . S
Fe176 O182 2.002 . S
Fe176 O187 1.976 . S
Fe176 O190 1.996 . S
Fe177 O178 1.918 . S
Fe177 O185 1.997 . S
Fe177 O188 1.996 . S
Fe177 O192 1.976 . S
Fe177 O195 2.002 . S
O178 Fe176 1.918 . S
O178 Fe177 1.918 . S
O178 Fe179 1.918 . S
Fe179 O178 1.918 . S
Fe179 O180 2.002 . S
Fe179 O189 1.976 . S
Fe179 O193 1.996 . S
Fe179 O196 1.997 . S
O180 Fe179 2.002 . S
O180 C197 1.295 . S
O181 Fe176 1.997 . S
O181 C197 1.235 . S
O182 Fe176 2.002 . S
O182 C183 1.295 . S
C183 O182 1.295 . S
C183 O185 1.235 . S
C184 O189 1.287 . S
C184 O190 1.255 . S
O185 Fe177 1.997 . S
O185 C183 1.235 . S
C186 O192 1.287 . S
C186 O193 1.255 . S
O187 Fe176 1.976 . S
O187 C194 1.287 . S
O188 Fe177 1.996 . S
O188 C194 1.255 . S
O189 Fe179 1.976 . S
O189 C184 1.287 . S
O190 Fe176 1.996 . S
O190 C184 1.255 . S
C191 O195 1.295 . S
C191 O196 1.235 . S
O192 Fe177 1.976 . S
O192 C186 1.287 . S
O193 Fe179 1.996 . S
O193 C186 1.255 . S
C194 O187 1.287 . S
C194 O188 1.255 . S
O195 Fe177 2.002 . S
O195 C191 1.295 . S
O196 Fe179 1.997 . S
O196 C191 1.235 . S
C197 O180 1.295 . S
C197 O181 1.235 . S
Fe198 O200 1.918 . S
Fe198 O203 1.997 . S
Fe198 O204 2.002 1_545 S
Fe198 O209 1.976 . S
Fe198 O212 1.996 . S
Fe199 O200 1.918 . S
Fe199 O207 1.997 . S
Fe199 O210 1.996 . S
Fe199 O214 1.976 . S
Fe199 O217 2.002 . S
O200 Fe198 1.918 . S
O200 Fe199 1.918 . S
O200 Fe201 1.918 . S
Fe201 O200 1.918 . S
Fe201 O202 2.002 . S
Fe201 O211 1.976 1_455 S
Fe201 O215 1.996 . S
Fe201 O218 1.997 . S
O202 Fe201 2.002 . S
O202 C219 1.295 . S
O203 Fe198 1.997 . S
O203 C219 1.235 . S
O204 Fe198 2.002 1_565 S
O204 C205 1.295 1_565 S
C205 O204 1.295 1_545 S
C205 O207 1.235 . S
C206 O211 1.287 . S
C206 O212 1.255 1_655 S
O207 Fe199 1.997 . S
O207 C205 1.235 . S
C208 O214 1.287 . S
C208 O215 1.255 . S
O209 Fe198 1.976 . S
O209 C216 1.287 . S
O210 Fe199 1.996 . S
O210 C216 1.255 . S
O211 Fe201 1.976 1_655 S
O211 C206 1.287 . S
O212 Fe198 1.996 . S
O212 C206 1.255 1_455 S
C213 O217 1.295 . S
C213 O218 1.235 . S
O214 Fe199 1.976 . S
O214 C208 1.287 . S
O215 Fe201 1.996 . S
O215 C208 1.255 . S
C216 O209 1.287 . S
C216 O210 1.255 . S
O217 Fe199 2.002 . S
O217 C213 1.295 . S
O218 Fe201 1.997 . S
O218 C213 1.235 . S
C219 O202 1.295 . S
C219 O203 1.235 . S
Fe220 O222 1.918 . S
Fe220 O225 1.997 . S
Fe220 O226 2.002 . S
Fe220 O231 1.976 . S
Fe220 O234 1.996 . S
Fe221 O222 1.918 . S
Fe221 O229 1.997 . S
Fe221 O232 1.996 . S
Fe221 O236 1.976 . S
Fe221 O239 2.002 . S
O222 Fe220 1.918 . S
O222 Fe221 1.918 . S
O222 Fe223 1.918 . S
Fe223 O222 1.918 . S
Fe223 O224 2.002 . S
Fe223 O233 1.976 . S
Fe223 O237 1.996 . S
Fe223 O240 1.997 . S
O224 Fe223 2.002 . S
O224 C241 1.295 . S
O225 Fe220 1.997 . S
O225 C241 1.235 . S
O226 Fe220 2.002 . S
O226 C227 1.295 . S
C227 O226 1.295 . S
C227 O229 1.235 . S
C228 O233 1.287 . S
C228 O234 1.255 . S
O229 Fe221 1.997 . S
O229 C227 1.235 . S
C230 O236 1.287 . S
C230 O237 1.255 . S
O231 Fe220 1.976 . S
O231 C238 1.287 . S
O232 Fe221 1.996 . S
O232 C238 1.255 . S
O233 Fe223 1.976 . S
O233 C228 1.287 . S
O234 Fe220 1.996 . S
O234 C228 1.255 . S
C235 O239 1.295 . S
C235 O240 1.235 . S
O236 Fe221 1.976 . S
O236 C230 1.287 . S
O237 Fe223 1.996 . S
O237 C230 1.255 . S
C238 O231 1.287 . S
C238 O232 1.255 . S
O239 Fe221 2.002 . S
O239 C235 1.295 . S
O240 Fe223 1.997 . S
O240 C235 1.235 . S
C241 O224 1.295 . S
C241 O225 1.235 . S
Fe242 O244 1.918 . S
Fe242 O247 1.997 . S
Fe242 O248 2.002 . S
Fe242 O253 1.976 . S
Fe242 O256 1.996 . S
Fe243 O244 1.918 . S
Fe243 O251 1.997 . S
Fe243 O254 1.996 . S
Fe243 O258 1.976 . S
Fe243 O261 2.002 1_565 S
O244 Fe242 1.918 . S
O244 Fe243 1.918 . S
O244 Fe245 1.918 . S
Fe245 O244 1.918 . S
Fe245 O246 2.002 . S
Fe245 O255 1.976 . S
Fe245 O259 1.996 . S
Fe245 O262 1.997 . S
O246 Fe245 2.002 . S
O246 C263 1.295 . S
O247 Fe242 1.997 . S
O247 C263 1.235 . S
O248 Fe242 2.002 . S
O248 C249 1.295 . S
C249 O248 1.295 . S
C249 O251 1.235 . S
C250 O255 1.287 . S
C250 O256 1.255 . S
O251 Fe243 1.997 . S
O251 C249 1.235 . S
C252 O258 1.287 . S
C252 O259 1.255 . S
O253 Fe242 1.976 . S
O253 C260 1.287 . S
O254 Fe243 1.996 . S
O254 C260 1.255 . S
O255 Fe245 1.976 . S
O255 C250 1.287 . S
O256 Fe242 1.996 . S
O256 C250 1.255 . S
C257 O261 1.295 1_565 S
C257 O262 1.235 . S
O258 Fe243 1.976 . S
O258 C252 1.287 . S
O259 Fe245 1.996 . S
O259 C252 1.255 . S
C260 O253 1.287 . S
C260 O254 1.255 . S
O261 Fe243 2.002 1_545 S
O261 C257 1.295 1_545 S
O262 Fe245 1.997 . S
O262 C257 1.235 . S
C263 O246 1.295 . S
C263 O247 1.235 . S
Fe264 O266 1.918 . S
Fe264 O269 1.997 . S
Fe264 O270 2.002 . S
Fe264 O275 1.976 . S
Fe264 O278 1.996 . S
Fe265 O266 1.918 . S
Fe265 O273 1.997 . S
Fe265 O276 1.996 . S
Fe265 O280 1.976 . S
Fe265 O283 2.002 . S
O266 Fe264 1.918 . S
O266 Fe265 1.918 . S
O266 Fe267 1.918 . S
Fe267 O266 1.918 . S
Fe267 O268 2.002 . S
Fe267 O277 1.976 . S
Fe267 O281 1.996 . S
Fe267 O284 1.997 . S
O268 Fe267 2.002 . S
O268 C285 1.295 . S
O269 Fe264 1.997 . S
O269 C285 1.235 . S
O270 Fe264 2.002 . S
O270 C271 1.295 . S
C271 O270 1.295 . S
C271 O273 1.235 . S
C272 O277 1.287 . S
C272 O278 1.255 . S
O273 Fe265 1.997 . S
O273 C271 1.235 . S
C274 O280 1.287 . S
C274 O281 1.255 . S
O275 Fe264 1.976 . S
O275 C282 1.287 . S
O276 Fe265 1.996 . S
O276 C282 1.255 . S
O277 Fe267 1.976 . S
O277 C272 1.287 . S
O278 Fe264 1.996 . S
O278 C272 1.255 . S
C279 O283 1.295 . S
C279 O284 1.235 . S
O280 Fe265 1.976 . S
O280 C274 1.287 . S
O281 Fe267 1.996 . S
O281 C274 1.255 . S
C282 O275 1.287 . S
C282 O276 1.255 . S
O283 Fe265 2.002 . S
O283 C279 1.295 . S
O284 Fe267 1.997 . S
O284 C279 1.235 . S
C285 O268 1.295 . S
C285 O269 1.235 . S
Fe286 O288 1.918 . S
Fe286 O291 1.997 . S
Fe286 O292 2.002 1_565 S
Fe286 O297 1.976 . S
Fe286 O300 1.996 . S
Fe287 O288 1.918 . S
Fe287 O295 1.997 . S
Fe287 O298 1.996 . S
Fe287 O302 1.976 . S
Fe287 O305 2.002 . S
O288 Fe286 1.918 . S
O288 Fe287 1.918 . S
O288 Fe289 1.918 . S
Fe289 O288 1.918 . S
Fe289 O290 2.002 . S
Fe289 O299 1.976 1_655 S
Fe289 O303 1.996 . S
Fe289 O306 1.997 . S
O290 Fe289 2.002 . S
O290 C307 1.295 . S
O291 Fe286 1.997 . S
O291 C307 1.235 . S
O292 Fe286 2.002 1_545 S
O292 C293 1.295 1_545 S
C293 O292 1.295 1_565 S
C293 O295 1.235 . S
C294 O299 1.287 . S
C294 O300 1.255 1_455 S
O295 Fe287 1.997 . S
O295 C293 1.235 . S
C296 O302 1.287 . S
C296 O303 1.255 . S
O297 Fe286 1.976 . S
O297 C304 1.287 . S
O298 Fe287 1.996 . S
O298 C304 1.255 . S
O299 Fe289 1.976 1_455 S
O299 C294 1.287 . S
O300 Fe286 1.996 . S
O300 C294 1.255 1_655 S
C301 O305 1.295 . S
C301 O306 1.235 . S
O302 Fe287 1.976 . S
O302 C296 1.287 . S
O303 Fe289 1.996 . S
O303 C296 1.255 . S
C304 O297 1.287 . S
C304 O298 1.255 . S
O305 Fe287 2.002 . S
O305 C301 1.295 . S
O306 Fe289 1.997 . S
O306 C301 1.235 . S
C307 O290 1.295 . S
C307 O291 1.235 . S
Fe308 O310 1.918 . S
Fe308 O313 1.997 . S
Fe308 O314 2.002 . S
Fe308 O319 1.976 . S
Fe308 O322 1.996 . S
Fe309 O310 1.918 . S
Fe309 O317 1.997 . S
Fe309 O320 1.996 . S
Fe309 O324 1.976 . S
Fe309 O327 2.002 . S
O310 Fe308 1.918 . S
O310 Fe309 1.918 . S
O310 Fe311 1.918 . S
Fe311 O310 1.918 . S
Fe311 O312 2.002 . S
Fe311 O321 1.976 . S
Fe311 O325 1.996 . S
Fe311 O328 1.997 . S
O312 Fe311 2.002 . S
O312 C329 1.295 . S
O313 Fe308 1.997 . S
O313 C329 1.235 . S
O314 Fe308 2.002 . S
O314 C315 1.295 . S
C315 O314 1.295 . S
C315 O317 1.235 . S
C316 O321 1.287 . S
C316 O322 1.255 . S
O317 Fe309 1.997 . S
O317 C315 1.235 . S
C318 O324 1.287 . S
C318 O325 1.255 . S
O319 Fe308 1.976 . S
O319 C326 1.287 . S
O320 Fe309 1.996 . S
O320 C326 1.255 . S
O321 Fe311 1.976 . S
O321 C316 1.287 . S
O322 Fe308 1.996 . S
O322 C316 1.255 . S
C323 O327 1.295 . S
C323 O328 1.235 . S
O324 Fe309 1.976 . S
O324 C318 1.287 . S
O325 Fe311 1.996 . S
O325 C318 1.255 . S
C326 O319 1.287 . S
C326 O320 1.255 . S
O327 Fe309 2.002 . S
O327 C323 1.295 . S
O328 Fe311 1.997 . S
O328 C323 1.235 . S
C329 O312 1.295 . S
C329 O313 1.235 . S
Fe330 O332 1.918 . S
Fe330 O335 1.997 . S
Fe330 O336 2.002 . S
Fe330 O341 1.976 . S
Fe330 O344 1.996 . S
Fe331 O332 1.918 . S
Fe331 O339 1.997 . S
Fe331 O342 1.996 . S
Fe331 O346 1.976 . S
Fe331 O349 2.002 1_545 S
O332 Fe330 1.918 . S
O332 Fe331 1.918 . S
O332 Fe333 1.918 . S
Fe333 O332 1.918 . S
Fe333 O334 2.002 . S
Fe333 O343 1.976 . S
Fe333 O347 1.996 . S
Fe333 O350 1.997 . S
O334 Fe333 2.002 . S
O334 C351 1.295 . S
O335 Fe330 1.997 . S
O335 C351 1.235 . S
O336 Fe330 2.002 . S
O336 C337 1.295 . S
C337 O336 1.295 . S
C337 O339 1.235 . S
C338 O343 1.287 . S
C338 O344 1.255 . S
O339 Fe331 1.997 . S
O339 C337 1.235 . S
C340 O346 1.287 . S
C340 O347 1.255 . S
O341 Fe330 1.976 . S
O341 C348 1.287 . S
O342 Fe331 1.996 . S
O342 C348 1.255 . S
O343 Fe333 1.976 . S
O343 C338 1.287 . S
O344 Fe330 1.996 . S
O344 C338 1.255 . S
C345 O349 1.295 1_545 S
C345 O350 1.235 . S
O346 Fe331 1.976 . S
O346 C340 1.287 . S
O347 Fe333 1.996 . S
O347 C340 1.255 . S
C348 O341 1.287 . S
C348 O342 1.255 . S
O349 Fe331 2.002 1_565 S
O349 C345 1.295 1_565 S
O350 Fe333 1.997 . S
O350 C345 1.235 . S
C351 O334 1.295 . S
C351 O335 1.235 . S
C352 C353 1.391 . S
C352 C354 1.394 . S
C352 H368 0.931 . S
C353 C352 1.391 . S
C353 C357 1.376 . S
C354 C352 1.394 . S
C354 C355 1.369 . S
C354 C358 1.531 . S
C355 C354 1.369 . S
C355 C356 1.410 . S
C355 C363 1.503 . S
C356 C355 1.410 . S
C356 C357 1.392 . S
C356 C359 1.511 . S
C357 C353 1.376 . S
C357 C356 1.392 . S
C357 H369 0.929 . S
C358 C354 1.531 . S
C358 H370 0.960 . S
C358 H371 0.962 . S
C358 H372 0.960 . S
C359 C356 1.511 . S
C359 H373 0.961 . S
C359 H374 0.961 . S
C359 H375 0.961 . S
C360 C361 1.370 . S
C360 C362 1.363 . S
C360 H376 0.931 . S
C361 C360 1.370 . S
C361 C365 1.408 . S
C362 C360 1.363 . S
C362 C363 1.370 . S
C362 C366 1.524 . S
C363 C355 1.503 . S
C363 C362 1.370 . S
C363 C364 1.403 . S
C364 C363 1.403 . S
C364 C365 1.404 . S
C364 C367 1.539 . S
C365 C361 1.408 . S
C365 C364 1.404 . S
C365 H377 0.930 . S
C366 C362 1.524 . S
C366 H378 0.956 . S
C366 H379 0.961 . S
C366 H380 0.961 . S
C367 C364 1.539 . S
C367 H381 0.958 . S
C367 H382 0.961 . S
C367 H383 0.960 . S
H368 C352 0.931 . S
H369 C357 0.929 . S
H370 C358 0.960 . S
H371 C358 0.962 . S
H372 C358 0.960 . S
H373 C359 0.961 . S
H374 C359 0.961 . S
H375 C359 0.961 . S
H376 C360 0.931 . S
H377 C365 0.930 . S
H378 C366 0.956 . S
H379 C366 0.961 . S
H380 C366 0.961 . S
H381 C367 0.958 . S
H382 C367 0.961 . S
H383 C367 0.960 . S
C384 C385 1.391 . S
C384 C386 1.394 . S
C384 H400 0.931 . S
C385 C384 1.391 . S
C385 C389 1.376 . S
C386 C384 1.394 . S
C386 C387 1.369 . S
C386 C390 1.531 . S
C387 C386 1.369 . S
C387 C388 1.410 . S
C387 C395 1.503 . S
C388 C387 1.410 . S
C388 C389 1.392 . S
C388 C391 1.511 . S
C389 C385 1.376 . S
C389 C388 1.392 . S
C389 H401 0.929 . S
C390 C386 1.531 . S
C390 H402 0.960 . S
C390 H403 0.962 . S
C390 H404 0.960 . S
C391 C388 1.511 . S
C391 H405 0.961 . S
C391 H406 0.961 . S
C391 H407 0.961 . S
C392 C393 1.370 . S
C392 C394 1.363 . S
C392 H408 0.931 . S
C393 C392 1.370 . S
C393 C397 1.408 . S
C394 C392 1.363 . S
C394 C395 1.370 . S
C394 C398 1.524 . S
C395 C387 1.503 . S
C395 C394 1.370 . S
C395 C396 1.403 . S
C396 C395 1.403 . S
C396 C397 1.404 . S
C396 C399 1.539 . S
C397 C393 1.408 . S
C397 C396 1.404 . S
C397 H409 0.930 . S
C398 C394 1.524 . S
C398 H410 0.956 . S
C398 H411 0.961 . S
C398 H412 0.961 . S
C399 C396 1.539 . S
C399 H413 0.958 . S
C399 H414 0.961 . S
C399 H415 0.960 . S
H400 C384 0.931 . S
H401 C389 0.929 . S
H402 C390 0.960 . S
H403 C390 0.962 . S
H404 C390 0.960 . S
H405 C391 0.961 . S
H406 C391 0.961 . S
H407 C391 0.961 . S
H408 C392 0.931 . S
H409 C397 0.930 . S
H410 C398 0.956 . S
H411 C398 0.961 . S
H412 C398 0.961 . S
H413 C399 0.958 . S
H414 C399 0.961 . S
H415 C399 0.960 . S
C416 C417 1.391 . S
C416 C418 1.394 . S
C416 H432 0.931 . S
C417 C416 1.391 . S
C417 C421 1.376 . S
C418 C416 1.394 . S
C418 C419 1.369 . S
C418 C422 1.531 . S
C419 C418 1.369 . S
C419 C420 1.410 . S
C419 C427 1.503 . S
C420 C419 1.410 . S
C420 C421 1.392 . S
C420 C423 1.511 . S
C421 C417 1.376 . S
C421 C420 1.392 . S
C421 H433 0.929 . S
C422 C418 1.531 . S
C422 H434 0.960 . S
C422 H435 0.962 . S
C422 H436 0.960 . S
C423 C420 1.511 . S
C423 H437 0.961 . S
C423 H438 0.961 . S
C423 H439 0.961 . S
C424 C425 1.370 . S
C424 C426 1.363 . S
C424 H440 0.931 . S
C425 C424 1.370 . S
C425 C429 1.408 . S
C426 C424 1.363 . S
C426 C427 1.370 . S
C426 C430 1.524 . S
C427 C419 1.503 . S
C427 C426 1.370 . S
C427 C428 1.403 . S
C428 C427 1.403 . S
C428 C429 1.404 . S
C428 C431 1.539 . S
C429 C425 1.408 . S
C429 C428 1.404 . S
C429 H441 0.930 . S
C430 C426 1.524 . S
C430 H442 0.956 . S
C430 H443 0.961 . S
C430 H444 0.961 . S
C431 C428 1.539 . S
C431 H445 0.958 . S
C431 H446 0.961 . S
C431 H447 0.960 . S
H432 C416 0.931 . S
H433 C421 0.929 . S
H434 C422 0.960 . S
H435 C422 0.962 . S
H436 C422 0.960 . S
H437 C423 0.961 . S
H438 C423 0.961 . S
H439 C423 0.961 . S
H440 C424 0.931 . S
H441 C429 0.930 . S
H442 C430 0.956 . S
H443 C430 0.961 . S
H444 C430 0.961 . S
H445 C431 0.958 . S
H446 C431 0.961 . S
H447 C431 0.960 . S
C448 C449 1.391 . S
C448 C450 1.394 . S
C448 H464 0.931 . S
C449 C448 1.391 . S
C449 C453 1.376 . S
C450 C448 1.394 . S
C450 C451 1.369 . S
C450 C454 1.531 1_556 S
C451 C450 1.369 . S
C451 C452 1.410 1_655 S
C451 C459 1.503 1_656 S
C452 C451 1.410 1_455 S
C452 C453 1.392 1_455 S
C452 C455 1.511 . S
C453 C449 1.376 . S
C453 C452 1.392 1_655 S
C453 H465 0.929 1_655 S
C454 C450 1.531 1_554 S
C454 H466 0.960 . S
C454 H467 0.962 . S
C454 H468 0.960 . S
C455 C452 1.511 . S
C455 H469 0.961 . S
C455 H470 0.961 . S
C455 H471 0.961 . S
C456 C457 1.370 . S
C456 C458 1.363 . S
C456 H472 0.931 . S
C457 C456 1.370 . S
C457 C461 1.408 . S
C458 C456 1.363 . S
C458 C459 1.370 . S
C458 C462 1.524 1_455 S
C459 C451 1.503 1_454 S
C459 C458 1.370 . S
C459 C460 1.403 . S
C460 C459 1.403 . S
C460 C461 1.404 . S
C460 C463 1.539 . S
C461 C457 1.408 . S
C461 C460 1.404 . S
C461 H473 0.930 . S
C462 C458 1.524 1_655 S
C462 H474 0.956 . S
C462 H475 0.961 1_554 S
C462 H476 0.961 . S
C463 C460 1.539 . S
C463 H477 0.958 . S
C463 H478 0.961 . S
C463 H479 0.960 1_554 S
H464 C448 0.931 . S
H465 C453 0.929 1_455 S
H466 C454 0.960 . S
H467 C454 0.962 . S
H468 C454 0.960 . S
H469 C455 0.961 . S
H470 C455 0.961 . S
H471 C455 0.961 . S
H472 C456 0.931 . S
H473 C461 0.930 . S
H474 C462 0.956 . S
H475 C462 0.961 1_556 S
H476 C462 0.961 . S
H477 C463 0.958 . S
H478 C463 0.961 . S
H479 C463 0.960 1_556 S
C480 C481 1.391 . S
C480 C482 1.394 . S
C480 H496 0.931 . S
C481 C480 1.391 . S
C481 C485 1.376 . S
C482 C480 1.394 . S
C482 C483 1.369 . S
C482 C486 1.531 . S
C483 C482 1.369 . S
C483 C484 1.410 . S
C483 C491 1.503 . S
C484 C483 1.410 . S
C484 C485 1.392 . S
C484 C487 1.511 . S
C485 C481 1.376 . S
C485 C484 1.392 . S
C485 H497 0.929 . S
C486 C482 1.531 . S
C486 H498 0.960 . S
C486 H499 0.962 . S
C486 H500 0.960 . S
C487 C484 1.511 . S
C487 H501 0.961 . S
C487 H502 0.961 . S
C487 H503 0.961 . S
C488 C489 1.370 . S
C488 C490 1.363 . S
C488 H504 0.931 . S
C489 C488 1.370 . S
C489 C493 1.408 . S
C490 C488 1.363 . S
C490 C491 1.370 . S
C490 C494 1.524 . S
C491 C483 1.503 . S
C491 C490 1.370 . S
C491 C492 1.403 . S
C492 C491 1.403 . S
C492 C493 1.404 . S
C492 C495 1.539 . S
C493 C489 1.408 . S
C493 C492 1.404 . S
C493 H505 0.930 . S
C494 C490 1.524 . S
C494 H506 0.956 . S
C494 H507 0.961 . S
C494 H508 0.961 . S
C495 C492 1.539 . S
C495 H509 0.958 . S
C495 H510 0.961 . S
C495 H511 0.960 . S
H496 C480 0.931 . S
H497 C485 0.929 . S
H498 C486 0.960 . S
H499 C486 0.962 . S
H500 C486 0.960 . S
H501 C487 0.961 . S
H502 C487 0.961 . S
H503 C487 0.961 . S
H504 C488 0.931 . S
H505 C493 0.930 . S
H506 C494 0.956 . S
H507 C494 0.961 . S
H508 C494 0.961 . S
H509 C495 0.958 . S
H510 C495 0.961 . S
H511 C495 0.960 . S
C512 C513 1.391 . S
C512 C514 1.394 . S
C512 H528 0.931 . S
C513 C512 1.391 . S
C513 C517 1.376 . S
C514 C512 1.394 . S
C514 C515 1.369 . S
C514 C518 1.531 . S
C515 C514 1.369 . S
C515 C516 1.410 . S
C515 C523 1.503 . S
C516 C515 1.410 . S
C516 C517 1.392 . S
C516 C519 1.511 . S
C517 C513 1.376 . S
C517 C516 1.392 . S
C517 H529 0.929 . S
C518 C514 1.531 . S
C518 H530 0.960 . S
C518 H531 0.962 . S
C518 H532 0.960 . S
C519 C516 1.511 . S
C519 H533 0.961 . S
C519 H534 0.961 . S
C519 H535 0.961 . S
C520 C521 1.370 . S
C520 C522 1.363 . S
C520 H536 0.931 . S
C521 C520 1.370 . S
C521 C525 1.408 . S
C522 C520 1.363 . S
C522 C523 1.370 . S
C522 C526 1.524 . S
C523 C515 1.503 . S
C523 C522 1.370 . S
C523 C524 1.403 . S
C524 C523 1.403 . S
C524 C525 1.404 . S
C524 C527 1.539 . S
C525 C521 1.408 . S
C525 C524 1.404 . S
C525 H537 0.930 . S
C526 C522 1.524 . S
C526 H538 0.956 . S
C526 H539 0.961 . S
C526 H540 0.961 . S
C527 C524 1.539 . S
C527 H541 0.958 . S
C527 H542 0.961 . S
C527 H543 0.960 . S
H528 C512 0.931 . S
H529 C517 0.929 . S
H530 C518 0.960 . S
H531 C518 0.962 . S
H532 C518 0.960 . S
H533 C519 0.961 . S
H534 C519 0.961 . S
H535 C519 0.961 . S
H536 C520 0.931 . S
H537 C525 0.930 . S
H538 C526 0.956 . S
H539 C526 0.961 . S
H540 C526 0.961 . S
H541 C527 0.958 . S
H542 C527 0.961 . S
H543 C527 0.960 . S
C544 C545 1.391 . S
C544 C546 1.394 1_655 S
C544 H560 0.931 1_655 S
C545 C544 1.391 . S
C545 C549 1.376 . S
C546 C544 1.394 1_455 S
C546 C547 1.369 1_455 S
C546 C550 1.531 . S
C547 C546 1.369 1_655 S
C547 C548 1.410 . S
C547 C555 1.503 1_654 S
C548 C547 1.410 . S
C548 C549 1.392 . S
C548 C551 1.511 1_564 S
C549 C545 1.376 . S
C549 C548 1.392 . S
C549 H561 0.934 . S
C550 C546 1.531 . S
C550 H562 0.960 . S
C550 H563 0.962 . S
C550 H564 0.960 . S
C551 C548 1.511 1_546 S
C551 H565 0.976 . S
C551 H566 0.961 . S
C551 H567 0.961 1_545 S
C552 C553 1.370 . S
C552 C554 1.363 . S
C552 H568 0.931 . S
C553 C552 1.370 . S
C553 C557 1.408 1_545 S
C554 C552 1.363 . S
C554 C555 1.370 1_545 S
C554 C558 1.524 . S
C555 C547 1.503 1_456 S
C555 C554 1.370 1_565 S
C555 C556 1.403 . S
C556 C555 1.403 . S
C556 C557 1.404 . S
C556 C559 1.539 1_455 S
C557 C553 1.408 1_565 S
C557 C556 1.404 . S
C557 H569 0.930 . S
C558 C554 1.524 . S
C558 H570 0.956 1_556 S
C558 H571 0.961 1_456 S
C558 H572 0.961 . S
C559 C556 1.539 1_655 S
C559 H573 0.958 1_655 S
C559 H574 0.961 . S
C559 H575 0.960 . S
H560 C544 0.931 1_455 S
H561 C549 0.934 . S
H562 C550 0.960 . S
H563 C550 0.962 . S
H564 C550 0.960 . S
H565 C551 0.976 . S
H566 C551 0.961 . S
H567 C551 0.961 1_565 S
H568 C552 0.931 . S
H569 C557 0.930 . S
H570 C558 0.956 1_554 S
H571 C558 0.961 1_654 S
H572 C558 0.961 . S
H573 C559 0.958 1_455 S
H574 C559 0.961 . S
H575 C559 0.960 . S
C576 C577 1.391 1_545 S
C576 C578 1.394 . S
C576 H592 0.931 . S
C577 C576 1.391 1_565 S
C577 C581 1.376 . S
C578 C576 1.394 . S
C578 C579 1.369 . S
C578 C582 1.531 . S
C579 C578 1.369 . S
C579 C580 1.410 1_545 S
C579 C587 1.503 . S
C580 C579 1.410 1_565 S
C580 C581 1.392 . S
C580 C583 1.511 . S
C581 C577 1.376 . S
C581 C580 1.392 . S
C581 H593 0.929 . S
C582 C578 1.531 . S
C582 H594 0.960 . S
C582 H595 0.962 . S
C582 H596 0.960 . S
C583 C580 1.511 . S
C583 H597 0.961 . S
C583 H598 0.961 . S
C583 H599 0.961 . S
C584 C585 1.370 1_565 S
C584 C586 1.363 . S
C584 H600 0.931 . S
C585 C584 1.370 1_545 S
C585 C589 1.408 . S
C586 C584 1.363 . S
C586 C587 1.370 1_565 S
C586 C590 1.524 . S
C587 C579 1.503 . S
C587 C586 1.370 1_545 S
C587 C588 1.403 . S
C588 C587 1.403 . S
C588 C589 1.404 . S
C588 C591 1.539 . S
C589 C585 1.408 . S
C589 C588 1.404 . S
C589 H601 0.930 . S
C590 C586 1.524 . S
C590 H602 0.956 . S
C590 H603 0.961 . S
C590 H604 0.961 . S
C591 C588 1.539 . S
C591 H605 0.958 . S
C591 H606 0.961 . S
C591 H607 0.960 . S
H592 C576 0.931 . S
H593 C581 0.929 . S
H594 C582 0.960 . S
H595 C582 0.962 . S
H596 C582 0.960 . S
H597 C583 0.961 . S
H598 C583 0.961 . S
H599 C583 0.961 . S
H600 C584 0.931 . S
H601 C589 0.930 . S
H602 C590 0.956 . S
H603 C590 0.961 . S
H604 C590 0.961 . S
H605 C591 0.958 . S
H606 C591 0.961 . S
H607 C591 0.960 . S
C608 C609 1.391 . S
C608 C610 1.394 . S
C608 H624 0.931 . S
C609 C608 1.391 . S
C609 C613 1.376 . S
C610 C608 1.394 . S
C610 C611 1.369 . S
C610 C614 1.531 . S
C611 C610 1.369 . S
C611 C612 1.410 . S
C611 C619 1.501 . S
C612 C611 1.410 . S
C612 C613 1.392 . S
C612 C615 1.511 . S
C613 C609 1.376 . S
C613 C612 1.392 . S
C613 H625 0.929 . S
C614 C610 1.531 . S
C614 H626 0.960 1_556 S
C614 H627 0.962 . S
C614 H628 0.960 . S
C615 C612 1.511 . S
C615 H629 0.961 . S
C615 H630 0.961 . S
C615 H631 0.961 . S
C616 C617 1.370 . S
C616 C618 1.363 1_554 S
C616 H632 0.931 . S
C617 C616 1.370 . S
C617 C621 1.408 . S
C618 C616 1.363 1_556 S
C618 C619 1.370 . S
C618 C622 1.524 . S
C619 C611 1.501 . S
C619 C618 1.370 . S
C619 C620 1.405 1_556 S
C620 C619 1.405 1_554 S
C620 C621 1.404 . S
C620 C623 1.539 . S
C621 C617 1.408 . S
C621 C620 1.404 . S
C621 H633 0.930 . S
C622 C618 1.524 . S
C622 H634 0.956 . S
C622 H635 0.961 . S
C622 H636 0.961 . S
C623 C620 1.539 . S
C623 H637 0.958 . S
C623 H638 0.961 . S
C623 H639 0.960 . S
H624 C608 0.931 . S
H625 C613 0.929 . S
H626 C614 0.960 1_554 S
H627 C614 0.962 . S
H628 C614 0.960 . S
H629 C615 0.961 . S
H630 C615 0.961 . S
H631 C615 0.961 . S
H632 C616 0.931 . S
H633 C621 0.930 . S
H634 C622 0.956 . S
H635 C622 0.961 . S
H636 C622 0.961 . S
H637 C623 0.958 . S
H638 C623 0.961 . S
H639 C623 0.960 . S
C640 C641 1.391 . S
C640 C642 1.394 . S
C640 H656 0.931 . S
C641 C640 1.391 . S
C641 C645 1.376 . S
C642 C640 1.394 . S
C642 C643 1.369 . S
C642 C646 1.531 . S
C643 C642 1.369 . S
C643 C644 1.410 . S
C643 C651 1.503 . S
C644 C643 1.410 . S
C644 C645 1.392 . S
C644 C647 1.511 . S
C645 C641 1.376 . S
C645 C644 1.392 . S
C645 H657 0.929 . S
C646 C642 1.531 . S
C646 H658 0.960 . S
C646 H659 0.962 . S
C646 H660 0.960 . S
C647 C644 1.511 . S
C647 H661 0.961 . S
C647 H662 0.961 . S
C647 H663 0.961 . S
C648 C649 1.370 . S
C648 C650 1.363 . S
C648 H664 0.931 . S
C649 C648 1.370 . S
C649 C653 1.408 . S
C650 C648 1.363 . S
C650 C651 1.370 . S
C650 C654 1.524 . S
C651 C643 1.503 . S
C651 C650 1.370 . S
C651 C652 1.403 . S
C652 C651 1.403 . S
C652 C653 1.404 . S
C652 C655 1.539 . S
C653 C649 1.408 . S
C653 C652 1.404 . S
C653 H665 0.930 . S
C654 C650 1.524 . S
C654 H666 0.956 . S
C654 H667 0.961 . S
C654 H668 0.961 . S
C655 C652 1.539 . S
C655 H669 0.958 . S
C655 H670 0.961 . S
C655 H671 0.960 . S
H656 C640 0.931 . S
H657 C645 0.929 . S
H658 C646 0.960 . S
H659 C646 0.962 . S
H660 C646 0.960 . S
H661 C647 0.961 . S
H662 C647 0.961 . S
H663 C647 0.961 . S
H664 C648 0.931 . S
H665 C653 0.930 . S
H666 C654 0.956 . S
H667 C654 0.961 . S
H668 C654 0.961 . S
H669 C655 0.958 . S
H670 C655 0.961 . S
H671 C655 0.960 . S
C672 C673 1.391 . S
C672 C674 1.394 . S
C672 H688 0.931 . S
C673 C672 1.391 . S
C673 C677 1.376 . S
C674 C672 1.394 . S
C674 C675 1.369 . S
C674 C678 1.531 . S
C675 C674 1.369 . S
C675 C676 1.410 . S
C675 C683 1.503 . S
C676 C675 1.410 . S
C676 C677 1.392 . S
C676 C679 1.511 . S
C677 C673 1.376 . S
C677 C676 1.392 . S
C677 H689 0.929 . S
C678 C674 1.531 . S
C678 H690 0.960 . S
C678 H691 0.962 . S
C678 H692 0.960 . S
C679 C676 1.511 . S
C679 H693 0.961 . S
C679 H694 0.961 . S
C679 H695 0.961 . S
C680 C681 1.370 . S
C680 C682 1.363 . S
C680 H696 0.931 . S
C681 C680 1.370 . S
C681 C685 1.408 . S
C682 C680 1.363 . S
C682 C683 1.370 . S
C682 C686 1.524 . S
C683 C675 1.503 . S
C683 C682 1.370 . S
C683 C684 1.403 . S
C684 C683 1.403 . S
C684 C685 1.404 . S
C684 C687 1.539 . S
C685 C681 1.408 . S
C685 C684 1.404 . S
C685 H697 0.930 . S
C686 C682 1.524 . S
C686 H698 0.956 . S
C686 H699 0.961 . S
C686 H700 0.961 . S
C687 C684 1.539 . S
C687 H701 0.958 . S
C687 H702 0.961 . S
C687 H703 0.960 . S
H688 C672 0.931 . S
H689 C677 0.929 . S
H690 C678 0.960 . S
H691 C678 0.962 . S
H692 C678 0.960 . S
H693 C679 0.961 . S
H694 C679 0.961 . S
H695 C679 0.961 . S
H696 C680 0.931 . S
H697 C685 0.930 . S
H698 C686 0.956 . S
H699 C686 0.961 . S
H700 C686 0.961 . S
H701 C687 0.958 . S
H702 C687 0.961 . S
H703 C687 0.960 . S
C704 C705 1.391 . S
C704 C706 1.394 . S
C704 H720 0.931 . S
C705 C704 1.391 . S
C705 C709 1.376 . S
C706 C704 1.394 . S
C706 C707 1.369 . S
C706 C710 1.531 . S
C707 C706 1.369 . S
C707 C708 1.410 . S
C707 C715 1.503 . S
C708 C707 1.410 . S
C708 C709 1.392 . S
C708 C711 1.511 . S
C709 C705 1.376 . S
C709 C708 1.392 . S
C709 H721 0.929 . S
C710 C706 1.531 . S
C710 H722 0.960 . S
C710 H723 0.962 . S
C710 H724 0.960 . S
C711 C708 1.511 . S
C711 H725 0.961 . S
C711 H726 0.961 . S
C711 H727 0.961 . S
C712 C713 1.370 . S
C712 C714 1.363 . S
C712 H728 0.931 . S
C713 C712 1.370 . S
C713 C717 1.408 . S
C714 C712 1.363 . S
C714 C715 1.370 . S
C714 C718 1.524 . S
C715 C707 1.503 . S
C715 C714 1.370 . S
C715 C716 1.403 . S
C716 C715 1.403 . S
C716 C717 1.404 . S
C716 C719 1.539 . S
C717 C713 1.408 . S
C717 C716 1.404 . S
C717 H729 0.930 . S
C718 C714 1.524 . S
C718 H730 0.956 . S
C718 H731 0.961 . S
C718 H732 0.961 . S
C719 C716 1.539 . S
C719 H733 0.958 . S
C719 H734 0.961 . S
C719 H735 0.960 . S
H720 C704 0.931 . S
H721 C709 0.929 . S
H722 C710 0.960 . S
H723 C710 0.962 . S
H724 C710 0.960 . S
H725 C711 0.961 . S
H726 C711 0.961 . S
H727 C711 0.961 . S
H728 C712 0.931 . S
H729 C717 0.930 . S
H730 C718 0.956 . S
H731 C718 0.961 . S
H732 C718 0.961 . S
H733 C719 0.958 . S
H734 C719 0.961 . S
H735 C719 0.960 . S
C736 C737 1.391 . S
C736 C738 1.394 . S
C736 H752 0.931 . S
C737 C736 1.391 . S
C737 C741 1.376 . S
C738 C736 1.394 . S
C738 C739 1.369 . S
C738 C742 1.531 . S
C739 C738 1.369 . S
C739 C740 1.410 . S
C739 C747 1.503 . S
C740 C739 1.410 . S
C740 C741 1.392 . S
C740 C743 1.511 1_554 S
C741 C737 1.376 . S
C741 C740 1.392 . S
C741 H753 0.929 . S
C742 C738 1.531 . S
C742 H754 0.960 . S
C742 H755 0.962 . S
C742 H756 0.960 . S
C743 C740 1.511 1_556 S
C743 H757 0.961 . S
C743 H758 0.961 . S
C743 H759 0.961 . S
C744 C745 1.370 . S
C744 C746 1.363 . S
C744 H760 0.931 . S
C745 C744 1.370 . S
C745 C749 1.408 . S
C746 C744 1.363 . S
C746 C747 1.370 1_556 S
C746 C750 1.524 1_556 S
C747 C739 1.503 . S
C747 C746 1.370 1_554 S
C747 C748 1.403 1_554 S
C748 C747 1.403 1_556 S
C748 C749 1.404 . S
C748 C751 1.539 . S
C749 C745 1.408 . S
C749 C748 1.404 . S
C749 H761 0.930 . S
C750 C746 1.524 1_554 S
C750 H762 0.956 . S
C750 H763 0.961 . S
C750 H764 0.961 . S
C751 C748 1.539 . S
C751 H765 0.958 1_556 S
C751 H766 0.961 . S
C751 H767 0.960 1_556 S
H752 C736 0.931 . S
H753 C741 0.929 . S
H754 C742 0.960 . S
H755 C742 0.962 . S
H756 C742 0.960 . S
H757 C743 0.961 . S
H758 C743 0.961 . S
H759 C743 0.961 . S
H760 C744 0.931 . S
H761 C749 0.930 . S
H762 C750 0.956 . S
H763 C750 0.961 . S
H764 C750 0.961 . S
H765 C751 0.958 1_554 S
H766 C751 0.961 . S
H767 C751 0.960 1_554 S
C768 C769 1.391 . S
C768 C770 1.394 . S
C768 H784 0.931 . S
C769 C768 1.391 . S
C769 C773 1.376 . S
C770 C768 1.394 . S
C770 C771 1.369 . S
C770 C774 1.531 . S
C771 C770 1.369 . S
C771 C772 1.410 . S
C771 C779 1.503 . S
C772 C771 1.410 . S
C772 C773 1.392 . S
C772 C775 1.511 . S
C773 C769 1.376 . S
C773 C772 1.392 . S
C773 H785 0.929 . S
C774 C770 1.531 . S
C774 H786 0.960 . S
C774 H787 0.962 . S
C774 H788 0.960 . S
C775 C772 1.511 . S
C775 H789 0.961 . S
C775 H790 0.961 . S
C775 H791 0.961 . S
C776 C777 1.370 . S
C776 C778 1.363 . S
C776 H792 0.931 . S
C777 C776 1.370 . S
C777 C781 1.408 . S
C778 C776 1.363 . S
C778 C779 1.370 . S
C778 C782 1.524 . S
C779 C771 1.503 . S
C779 C778 1.370 . S
C779 C780 1.403 . S
C780 C779 1.403 . S
C780 C781 1.404 . S
C780 C783 1.539 . S
C781 C777 1.408 . S
C781 C780 1.404 . S
C781 H793 0.930 . S
C782 C778 1.524 . S
C782 H794 0.956 . S
C782 H795 0.961 . S
C782 H796 0.961 . S
C783 C780 1.539 . S
C783 H797 0.958 . S
C783 H798 0.961 . S
C783 H799 0.960 . S
H784 C768 0.931 . S
H785 C773 0.929 . S
H786 C774 0.960 . S
H787 C774 0.962 . S
H788 C774 0.960 . S
H789 C775 0.961 . S
H790 C775 0.961 . S
H791 C775 0.961 . S
H792 C776 0.931 . S
H793 C781 0.930 . S
H794 C782 0.956 . S
H795 C782 0.961 . S
H796 C782 0.961 . S
H797 C783 0.958 . S
H798 C783 0.961 . S
H799 C783 0.960 . S
C800 C801 1.391 . S
C800 C802 1.394 . S
C800 H816 0.931 . S
C801 C800 1.391 . S
C801 C805 1.376 . S
C802 C800 1.394 . S
C802 C803 1.369 . S
C802 C806 1.531 . S
C803 C802 1.369 . S
C803 C804 1.410 . S
C803 C811 1.503 . S
C804 C803 1.410 . S
C804 C805 1.392 . S
C804 C807 1.511 . S
C805 C801 1.376 . S
C805 C804 1.392 . S
C805 H817 0.929 . S
C806 C802 1.531 . S
C806 H818 0.960 . S
C806 H819 0.962 . S
C806 H820 0.960 . S
C807 C804 1.511 . S
C807 H821 0.961 . S
C807 H822 0.961 . S
C807 H823 0.961 . S
C808 C809 1.370 . S
C808 C810 1.363 . S
C808 H824 0.931 . S
C809 C808 1.370 . S
C809 C813 1.408 . S
C810 C808 1.363 . S
C810 C811 1.370 . S
C810 C814 1.524 . S
C811 C803 1.503 . S
C811 C810 1.370 . S
C811 C812 1.403 . S
C812 C811 1.403 . S
C812 C813 1.404 . S
C812 C815 1.539 . S
C813 C809 1.408 . S
C813 C812 1.404 . S
C813 H825 0.930 . S
C814 C810 1.524 . S
C814 H826 0.956 . S
C814 H827 0.961 . S
C814 H828 0.961 . S
C815 C812 1.539 . S
C815 H829 0.958 . S
C815 H830 0.961 . S
C815 H831 0.960 . S
H816 C800 0.931 . S
H817 C805 0.929 . S
H818 C806 0.960 . S
H819 C806 0.962 . S
H820 C806 0.960 . S
H821 C807 0.961 . S
H822 C807 0.961 . S
H823 C807 0.961 . S
H824 C808 0.931 . S
H825 C813 0.930 . S
H826 C814 0.956 . S
H827 C814 0.961 . S
H828 C814 0.961 . S
H829 C815 0.958 . S
H830 C815 0.961 . S
H831 C815 0.960 . S
C832 C833 1.391 . S
C832 C834 1.394 . S
C832 H848 0.931 . S
C833 C832 1.391 . S
C833 C837 1.376 . S
C834 C832 1.394 . S
C834 C835 1.369 . S
C834 C838 1.531 . S
C835 C834 1.369 . S
C835 C836 1.410 . S
C835 C843 1.503 . S
C836 C835 1.410 . S
C836 C837 1.392 . S
C836 C839 1.511 . S
C837 C833 1.376 . S
C837 C836 1.392 . S
C837 H849 0.929 . S
C838 C834 1.531 . S
C838 H850 0.960 . S
C838 H851 0.962 . S
C838 H852 0.960 . S
C839 C836 1.511 . S
C839 H853 0.961 . S
C839 H854 0.961 . S
C839 H855 0.961 . S
C840 C841 1.370 . S
C840 C842 1.363 . S
C840 H856 0.931 . S
C841 C840 1.370 . S
C841 C845 1.408 . S
C842 C840 1.363 . S
C842 C843 1.370 . S
C842 C846 1.524 . S
C843 C835 1.503 . S
C843 C842 1.370 . S
C843 C844 1.403 . S
C844 C843 1.403 . S
C844 C845 1.404 . S
C844 C847 1.539 . S
C845 C841 1.408 . S
C845 C844 1.404 . S
C845 H857 0.930 . S
C846 C842 1.524 . S
C846 H858 0.956 . S
C846 H859 0.961 . S
C846 H860 0.961 . S
C847 C844 1.539 . S
C847 H861 0.958 . S
C847 H862 0.961 . S
C847 H863 0.960 . S
H848 C832 0.931 . S
H849 C837 0.929 . S
H850 C838 0.960 . S
H851 C838 0.962 . S
H852 C838 0.960 . S
H853 C839 0.961 . S
H854 C839 0.961 . S
H855 C839 0.961 . S
H856 C840 0.931 . S
H857 C845 0.930 . S
H858 C846 0.956 . S
H859 C846 0.961 . S
H860 C846 0.961 . S
H861 C847 0.958 . S
H862 C847 0.961 . S
H863 C847 0.960 . S
C864 C865 1.391 . S
C864 C866 1.394 . S
C864 H880 0.931 . S
C865 C864 1.391 . S
C865 C869 1.376 . S
C866 C864 1.394 . S
C866 C867 1.369 . S
C866 C870 1.531 . S
C867 C866 1.369 . S
C867 C868 1.410 . S
C867 C875 1.503 . S
C868 C867 1.410 . S
C868 C869 1.392 . S
C868 C871 1.511 . S
C869 C865 1.376 . S
C869 C868 1.392 . S
C869 H881 0.929 . S
C870 C866 1.531 . S
C870 H882 0.960 . S
C870 H883 0.962 . S
C870 H884 0.960 . S
C871 C868 1.511 . S
C871 H885 0.961 . S
C871 H886 0.961 . S
C871 H887 0.961 . S
C872 C873 1.370 . S
C872 C874 1.363 . S
C872 H888 0.931 . S
C873 C872 1.370 . S
C873 C877 1.408 . S
C874 C872 1.363 . S
C874 C875 1.370 . S
C874 C878 1.524 . S
C875 C867 1.503 . S
C875 C874 1.370 . S
C875 C876 1.403 . S
C876 C875 1.403 . S
C876 C877 1.404 . S
C876 C879 1.539 . S
C877 C873 1.408 . S
C877 C876 1.404 . S
C877 H889 0.930 . S
C878 C874 1.524 . S
C878 H890 0.956 . S
C878 H891 0.961 . S
C878 H892 0.961 . S
C879 C876 1.539 . S
C879 H893 0.958 . S
C879 H894 0.961 . S
C879 H895 0.960 . S
H880 C864 0.931 . S
H881 C869 0.929 . S
H882 C870 0.960 . S
H883 C870 0.962 . S
H884 C870 0.960 . S
H885 C871 0.961 . S
H886 C871 0.961 . S
H887 C871 0.961 . S
H888 C872 0.931 . S
H889 C877 0.930 . S
H890 C878 0.956 . S
H891 C878 0.961 . S
H892 C878 0.961 . S
H893 C879 0.958 . S
H894 C879 0.961 . S
H895 C879 0.960 . S
C896 C897 1.391 . S
C896 C898 1.396 . S
C896 H912 0.931 . S
C897 C896 1.391 . S
C897 C901 1.376 1_545 S
C898 C896 1.396 . S
C898 C899 1.365 1_545 S
C898 C902 1.532 . S
C899 C898 1.365 1_565 S
C899 C900 1.410 . S
C899 C907 1.503 . S
C900 C899 1.410 . S
C900 C901 1.392 . S
C900 C903 1.511 . S
C901 C897 1.376 1_565 S
C901 C900 1.392 . S
C901 H913 0.929 . S
C902 C898 1.532 . S
C902 H914 0.960 1_545 S
C902 H915 0.962 . S
C902 H916 0.960 . S
C903 C900 1.511 . S
C903 H917 0.961 . S
C903 H918 0.961 . S
C903 H919 0.961 . S
C904 C905 1.370 . S
C904 C906 1.363 . S
C904 H920 0.931 . S
C905 C904 1.370 . S
C905 C909 1.408 . S
C906 C904 1.363 . S
C906 C907 1.370 . S
C906 C910 1.524 . S
C907 C899 1.503 . S
C907 C906 1.370 . S
C907 C908 1.403 . S
C908 C907 1.403 . S
C908 C909 1.404 . S
C908 C911 1.539 . S
C909 C905 1.408 . S
C909 C908 1.404 . S
C909 H921 0.930 . S
C910 C906 1.524 . S
C910 H922 0.956 1_565 S
C910 H923 0.961 . S
C910 H924 0.961 . S
C911 C908 1.539 . S
C911 H925 0.958 . S
C911 H926 0.961 . S
C911 H927 0.960 . S
H912 C896 0.931 . S
H913 C901 0.929 . S
H914 C902 0.960 1_565 S
H915 C902 0.962 . S
H916 C902 0.960 . S
H917 C903 0.961 . S
H918 C903 0.961 . S
H919 C903 0.961 . S
H920 C904 0.931 . S
H921 C909 0.930 . S
H922 C910 0.956 1_545 S
H923 C910 0.961 . S
H924 C910 0.961 . S
H925 C911 0.958 . S
H926 C911 0.961 . S
H927 C911 0.960 . S
C928 C929 1.391 . S
C928 C930 1.394 1_554 S
C928 H944 0.931 . S
C929 C928 1.391 . S
C929 C933 1.376 . S
C930 C928 1.394 1_556 S
C930 C931 1.369 . S
C930 C934 1.531 . S
C931 C930 1.369 . S
C931 C932 1.410 1_556 S
C931 C939 1.503 . S
C932 C931 1.410 1_554 S
C932 C933 1.392 . S
C932 C935 1.511 . S
C933 C929 1.376 . S
C933 C932 1.392 . S
C933 H945 0.929 . S
C934 C930 1.531 . S
C934 H946 0.960 . S
C934 H947 0.962 . S
C934 H948 0.960 . S
C935 C932 1.511 . S
C935 H949 0.961 . S
C935 H950 0.961 . S
C935 H951 0.961 . S
C936 C937 1.370 . S
C936 C938 1.363 . S
C936 H952 0.931 . S
C937 C936 1.370 . S
C937 C941 1.408 . S
C938 C936 1.363 . S
C938 C939 1.370 . S
C938 C942 1.524 . S
C939 C931 1.503 . S
C939 C938 1.370 . S
C939 C940 1.403 . S
C940 C939 1.403 . S
C940 C941 1.404 . S
C940 C943 1.539 . S
C941 C937 1.408 . S
C941 C940 1.404 . S
C941 H953 0.930 . S
C942 C938 1.524 . S
C942 H954 0.956 . S
C942 H955 0.961 1_556 S
C942 H956 0.961 . S
C943 C940 1.539 . S
C943 H957 0.958 . S
C943 H958 0.961 . S
C943 H959 0.960 . S
H944 C928 0.931 . S
H945 C933 0.929 . S
H946 C934 0.960 . S
H947 C934 0.962 . S
H948 C934 0.960 . S
H949 C935 0.961 . S
H950 C935 0.961 . S
H951 C935 0.961 . S
H952 C936 0.931 . S
H953 C941 0.930 . S
H954 C942 0.956 . S
H955 C942 0.961 1_554 S
H956 C942 0.961 . S
H957 C943 0.958 . S
H958 C943 0.961 . S
H959 C943 0.960 . S
C960 C961 1.391 . S
C960 C962 1.394 . S
C960 H976 0.931 . S
C961 C960 1.391 . S
C961 C965 1.376 . S
C962 C960 1.394 . S
C962 C963 1.369 . S
C962 C966 1.531 1_545 S
C963 C962 1.369 . S
C963 C964 1.410 . S
C963 C971 1.503 . S
C964 C963 1.410 . S
C964 C965 1.392 . S
C964 C967 1.511 . S
C965 C961 1.376 . S
C965 C964 1.392 . S
C965 H977 0.929 . S
C966 C962 1.531 1_565 S
C966 H978 0.960 . S
C966 H979 0.962 . S
C966 H980 0.960 . S
C967 C964 1.511 . S
C967 H981 0.961 . S
C967 H982 0.961 . S
C967 H983 0.961 . S
C968 C969 1.370 . S
C968 C970 1.363 1_565 S
C968 H984 0.931 . S
C969 C968 1.370 . S
C969 C973 1.410 . S
C970 C968 1.363 1_545 S
C970 C971 1.370 . S
C970 C974 1.524 . S
C971 C963 1.503 . S
C971 C970 1.370 . S
C971 C972 1.403 . S
C972 C971 1.403 . S
C972 C973 1.402 1_545 S
C972 C975 1.539 . S
C973 C969 1.410 . S
C973 C972 1.402 1_565 S
C973 H985 0.930 . S
C974 C970 1.524 . S
C974 H986 0.956 . S
C974 H987 0.961 . S
C974 H988 0.961 . S
C975 C972 1.539 . S
C975 H989 0.958 . S
C975 H990 0.961 . S
C975 H991 0.960 . S
H976 C960 0.931 . S
H977 C965 0.929 . S
H978 C966 0.960 . S
H979 C966 0.962 . S
H980 C966 0.960 . S
H981 C967 0.961 . S
H982 C967 0.961 . S
H983 C967 0.961 . S
H984 C968 0.931 . S
H985 C973 0.930 . S
H986 C974 0.956 . S
H987 C974 0.961 . S
H988 C974 0.961 . S
H989 C975 0.958 . S
H990 C975 0.961 . S
H991 C975 0.960 . S
C992 C993 1.391 . S
C992 C994 1.394 . S
C992 H1008 0.931 . S
C993 C992 1.391 . S
C993 C997 1.376 . S
C994 C992 1.394 . S
C994 C995 1.369 . S
C994 C998 1.531 . S
C995 C994 1.369 . S
C995 C996 1.410 . S
C995 C1003 1.503 . S
C996 C995 1.410 . S
C996 C997 1.392 . S
C996 C999 1.511 . S
C997 C993 1.376 . S
C997 C996 1.392 . S
C997 H1009 0.929 . S
C998 C994 1.531 . S
C998 H1010 0.960 . S
C998 H1011 0.962 . S
C998 H1012 0.960 . S
C999 C996 1.511 . S
C999 H1013 0.961 . S
C999 H1014 0.961 . S
C999 H1015 0.961 . S
C1000 C1001 1.370 . S
C1000 C1002 1.363 . S
C1000 H1016 0.931 . S
C1001 C1000 1.370 . S
C1001 C1005 1.408 . S
C1002 C1000 1.363 . S
C1002 C1003 1.370 . S
C1002 C1006 1.524 . S
C1003 C995 1.503 . S
C1003 C1002 1.370 . S
C1003 C1004 1.403 . S
C1004 C1003 1.403 . S
C1004 C1005 1.404 . S
C1004 C1007 1.539 . S
C1005 C1001 1.408 . S
C1005 C1004 1.404 . S
C1005 H1017 0.930 . S
C1006 C1002 1.524 . S
C1006 H1018 0.956 . S
C1006 H1019 0.961 . S
C1006 H1020 0.961 . S
C1007 C1004 1.539 . S
C1007 H1021 0.958 . S
C1007 H1022 0.961 . S
C1007 H1023 0.960 . S
H1008 C992 0.931 . S
H1009 C997 0.929 . S
H1010 C998 0.960 . S
H1011 C998 0.962 . S
H1012 C998 0.960 . S
H1013 C999 0.961 . S
H1014 C999 0.961 . S
H1015 C999 0.961 . S
H1016 C1000 0.931 . S
H1017 C1005 0.930 . S
H1018 C1006 0.956 . S
H1019 C1006 0.961 . S
H1020 C1006 0.961 . S
H1021 C1007 0.958 . S
H1022 C1007 0.961 . S
H1023 C1007 0.960 . S
C1024 C1025 1.391 . S
C1024 C1026 1.394 1_565 S
C1024 H1040 0.931 . S
C1025 C1024 1.391 . S
C1025 C1029 1.376 . S
C1026 C1024 1.394 1_545 S
C1026 C1027 1.369 . S
C1026 C1030 1.531 . S
C1027 C1026 1.369 . S
C1027 C1028 1.410 . S
C1027 C1035 1.503 . S
C1028 C1027 1.410 . S
C1028 C1029 1.392 1_545 S
C1028 C1031 1.511 . S
C1029 C1025 1.376 . S
C1029 C1028 1.392 1_565 S
C1029 H1041 0.929 . S
C1030 C1026 1.531 . S
C1030 H1042 0.960 . S
C1030 H1043 0.962 . S
C1030 H1044 0.960 . S
C1031 C1028 1.511 . S
C1031 H1045 0.961 . S
C1031 H1046 0.961 . S
C1031 H1047 0.961 1_545 S
C1032 C1033 1.370 . S
C1032 C1034 1.363 . S
C1032 H1048 0.931 . S
C1033 C1032 1.370 . S
C1033 C1037 1.408 . S
C1034 C1032 1.363 . S
C1034 C1035 1.370 . S
C1034 C1038 1.524 . S
C1035 C1027 1.503 . S
C1035 C1034 1.370 . S
C1035 C1036 1.403 . S
C1036 C1035 1.403 . S
C1036 C1037 1.404 . S
C1036 C1039 1.539 1_545 S
C1037 C1033 1.408 . S
C1037 C1036 1.404 . S
C1037 H1049 0.930 . S
C1038 C1034 1.524 . S
C1038 H1050 0.956 . S
C1038 H1051 0.961 . S
C1038 H1052 0.961 . S
C1039 C1036 1.539 1_565 S
C1039 H1053 0.958 . S
C1039 H1054 0.961 . S
C1039 H1055 0.960 . S
H1040 C1024 0.931 . S
H1041 C1029 0.929 . S
H1042 C1030 0.960 . S
H1043 C1030 0.962 . S
H1044 C1030 0.960 . S
H1045 C1031 0.961 . S
H1046 C1031 0.961 . S
H1047 C1031 0.961 1_565 S
H1048 C1032 0.931 . S
H1049 C1037 0.930 . S
H1050 C1038 0.956 . S
H1051 C1038 0.961 . S
H1052 C1038 0.961 . S
H1053 C1039 0.958 . S
H1054 C1039 0.961 . S
H1055 C1039 0.960 . S
C1056 C1057 1.391 . S
C1056 C1058 1.394 . S
C1056 H1072 0.931 . S
C1057 C1056 1.391 . S
C1057 C1061 1.376 . S
C1058 C1056 1.394 . S
C1058 C1059 1.369 . S
C1058 C1062 1.531 . S
C1059 C1058 1.369 . S
C1059 C1060 1.410 . S
C1059 C1067 1.537 . S
C1060 C1059 1.410 . S
C1060 C1061 1.392 . S
C1060 C1063 1.526 . S
C1061 C1057 1.376 . S
C1061 C1060 1.392 . S
C1061 H1073 0.929 . S
C1062 C1058 1.531 . S
C1062 H1074 0.960 . S
C1062 H1075 0.962 . S
C1062 H1076 0.960 . S
C1063 C1060 1.526 . S
C1063 H1077 0.966 . S
C1063 H1078 0.952 1_554 S
C1063 H1079 0.950 1_554 S
C1064 C1065 1.370 . S
C1064 C1066 1.346 1_556 S
C1064 H1080 0.931 . S
C1065 C1064 1.370 . S
C1065 C1069 1.408 . S
C1066 C1064 1.346 1_554 S
C1066 C1067 1.370 . S
C1066 C1070 1.541 . S
C1067 C1059 1.537 . S
C1067 C1066 1.370 . S
C1067 C1068 1.370 1_554 S
C1068 C1067 1.370 1_556 S
C1068 C1069 1.404 . S
C1068 C1071 1.539 . S
C1069 C1065 1.408 . S
C1069 C1068 1.404 . S
C1069 H1081 0.930 . S
C1070 C1066 1.541 . S
C1070 H1082 0.956 . S
C1070 H1083 0.961 . S
C1070 H1084 0.961 . S
C1071 C1068 1.539 . S
C1071 H1085 0.958 . S
C1071 H1086 0.961 . S
C1071 H1087 0.960 . S
H1072 C1056 0.931 . S
H1073 C1061 0.929 . S
H1074 C1062 0.960 . S
H1075 C1062 0.962 . S
H1076 C1062 0.960 . S
H1077 C1063 0.966 . S
H1078 C1063 0.952 1_556 S
H1079 C1063 0.950 1_556 S
H1080 C1064 0.931 . S
H1081 C1069 0.930 . S
H1082 C1070 0.956 . S
H1083 C1070 0.961 . S
H1084 C1070 0.961 . S
H1085 C1071 0.958 . S
H1086 C1071 0.961 . S
H1087 C1071 0.960 . S
C1088 C1089 1.391 1_565 S
C1088 C1090 1.394 . S
C1088 H1104 0.931 . S
C1089 C1088 1.391 1_545 S
C1089 C1093 1.376 . S
C1090 C1088 1.394 . S
C1090 C1091 1.369 . S
C1090 C1094 1.531 . S
C1091 C1090 1.369 . S
C1091 C1092 1.410 . S
C1091 C1099 1.503 . S
C1092 C1091 1.410 . S
C1092 C1093 1.392 1_565 S
C1092 C1095 1.511 1_565 S
C1093 C1089 1.376 . S
C1093 C1092 1.392 1_545 S
C1093 H1105 0.929 . S
C1094 C1090 1.531 . S
C1094 H1106 0.960 . S
C1094 H1107 0.962 . S
C1094 H1108 0.960 . S
C1095 C1092 1.511 1_545 S
C1095 H1109 0.961 . S
C1095 H1110 0.961 1_545 S
C1095 H1111 0.961 1_545 S
C1096 C1097 1.370 . S
C1096 C1098 1.363 . S
C1096 H1112 0.931 . S
C1097 C1096 1.370 . S
C1097 C1101 1.408 . S
C1098 C1096 1.363 . S
C1098 C1099 1.370 . S
C1098 C1102 1.524 . S
C1099 C1091 1.503 . S
C1099 C1098 1.370 . S
C1099 C1100 1.403 . S
C1100 C1099 1.403 . S
C1100 C1101 1.404 . S
C1100 C1103 1.539 . S
C1101 C1097 1.408 . S
C1101 C1100 1.404 . S
C1101 H1113 0.930 . S
C1102 C1098 1.524 . S
C1102 H1114 0.956 . S
C1102 H1115 0.961 1_565 S
C1102 H1116 0.961 . S
C1103 C1100 1.539 . S
C1103 H1117 0.958 . S
C1103 H1118 0.961 . S
C1103 H1119 0.960 . S
H1104 C1088 0.931 . S
H1105 C1093 0.929 . S
H1106 C1094 0.960 . S
H1107 C1094 0.962 . S
H1108 C1094 0.960 . S
H1109 C1095 0.961 . S
H1110 C1095 0.961 1_565 S
H1111 C1095 0.961 1_565 S
H1112 C1096 0.931 . S
H1113 C1101 0.930 . S
H1114 C1102 0.956 . S
H1115 C1102 0.961 1_545 S
H1116 C1102 0.961 . S
H1117 C1103 0.958 . S
H1118 C1103 0.961 . S
H1119 C1103 0.960 . S
C1120 C1121 1.391 . S
C1120 C1122 1.394 . S
C1120 H1136 0.931 . S
C1121 C1120 1.391 . S
C1121 C1125 1.376 . S
C1122 C1120 1.394 . S
C1122 C1123 1.369 . S
C1122 C1126 1.531 . S
C1123 C1122 1.369 . S
C1123 C1124 1.410 . S
C1123 C1131 1.503 . S
C1124 C1123 1.410 . S
C1124 C1125 1.392 . S
C1124 C1127 1.511 . S
C1125 C1121 1.376 . S
C1125 C1124 1.392 . S
C1125 H1137 0.929 . S
C1126 C1122 1.531 . S
C1126 H1138 0.960 . S
C1126 H1139 0.962 . S
C1126 H1140 0.960 . S
C1127 C1124 1.511 . S
C1127 H1141 0.961 . S
C1127 H1142 0.961 . S
C1127 H1143 0.961 . S
C1128 C1129 1.370 . S
C1128 C1130 1.363 . S
C1128 H1144 0.931 . S
C1129 C1128 1.370 . S
C1129 C1133 1.408 . S
C1130 C1128 1.363 . S
C1130 C1131 1.370 . S
C1130 C1134 1.524 . S
C1131 C1123 1.503 . S
C1131 C1130 1.370 . S
C1131 C1132 1.403 . S
C1132 C1131 1.403 . S
C1132 C1133 1.404 . S
C1132 C1135 1.539 . S
C1133 C1129 1.408 . S
C1133 C1132 1.404 . S
C1133 H1145 0.930 . S
C1134 C1130 1.524 . S
C1134 H1146 0.956 . S
C1134 H1147 0.961 . S
C1134 H1148 0.961 . S
C1135 C1132 1.539 . S
C1135 H1149 0.958 . S
C1135 H1150 0.961 . S
C1135 H1151 0.960 . S
H1136 C1120 0.931 . S
H1137 C1125 0.929 . S
H1138 C1126 0.960 . S
H1139 C1126 0.962 . S
H1140 C1126 0.960 . S
H1141 C1127 0.961 . S
H1142 C1127 0.961 . S
H1143 C1127 0.961 . S
H1144 C1128 0.931 . S
H1145 C1133 0.930 . S
H1146 C1134 0.956 . S
H1147 C1134 0.961 . S
H1148 C1134 0.961 . S
H1149 C1135 0.958 . S
H1150 C1135 0.961 . S
H1151 C1135 0.960 . S
C1152 C1153 1.391 . S
C1152 C1154 1.394 . S
C1152 H1168 0.931 . S
C1153 C1152 1.391 . S
C1153 C1157 1.376 . S
C1154 C1152 1.394 . S
C1154 C1155 1.369 . S
C1154 C1158 1.531 . S
C1155 C1154 1.369 . S
C1155 C1156 1.410 . S
C1155 C1163 1.503 . S
C1156 C1155 1.410 . S
C1156 C1157 1.392 . S
C1156 C1159 1.511 . S
C1157 C1153 1.376 . S
C1157 C1156 1.392 . S
C1157 H1169 0.929 . S
C1158 C1154 1.531 . S
C1158 H1170 0.960 . S
C1158 H1171 0.962 . S
C1158 H1172 0.960 . S
C1159 C1156 1.511 . S
C1159 H1173 0.961 . S
C1159 H1174 0.961 . S
C1159 H1175 0.961 . S
C1160 C1161 1.370 . S
C1160 C1162 1.363 . S
C1160 H1176 0.931 . S
C1161 C1160 1.370 . S
C1161 C1165 1.408 . S
C1162 C1160 1.363 . S
C1162 C1163 1.370 . S
C1162 C1166 1.524 . S
C1163 C1155 1.503 . S
C1163 C1162 1.370 . S
C1163 C1164 1.403 . S
C1164 C1163 1.403 . S
C1164 C1165 1.404 . S
C1164 C1167 1.539 . S
C1165 C1161 1.408 . S
C1165 C1164 1.404 . S
C1165 H1177 0.930 . S
C1166 C1162 1.524 . S
C1166 H1178 0.956 . S
C1166 H1179 0.961 . S
C1166 H1180 0.961 . S
C1167 C1164 1.539 . S
C1167 H1181 0.958 . S
C1167 H1182 0.961 . S
C1167 H1183 0.960 . S
H1168 C1152 0.931 . S
H1169 C1157 0.929 . S
H1170 C1158 0.960 . S
H1171 C1158 0.962 . S
H1172 C1158 0.960 . S
H1173 C1159 0.961 . S
H1174 C1159 0.961 . S
H1175 C1159 0.961 . S
H1176 C1160 0.931 . S
H1177 C1165 0.930 . S
H1178 C1166 0.956 . S
H1179 C1166 0.961 . S
H1180 C1166 0.961 . S
H1181 C1167 0.958 . S
H1182 C1167 0.961 . S
H1183 C1167 0.960 . S
C1184 C1185 1.391 . S
C1184 C1186 1.394 . S
C1184 H1200 0.931 . S
C1185 C1184 1.391 . S
C1185 C1189 1.376 . S
C1186 C1184 1.394 . S
C1186 C1187 1.369 . S
C1186 C1190 1.531 . S
C1187 C1186 1.369 . S
C1187 C1188 1.410 . S
C1187 C1195 1.503 1_655 S
C1188 C1187 1.410 . S
C1188 C1189 1.392 . S
C1188 C1191 1.511 1_655 S
C1189 C1185 1.376 . S
C1189 C1188 1.392 . S
C1189 H1201 0.929 . S
C1190 C1186 1.531 . S
C1190 H1202 0.960 . S
C1190 H1203 0.962 . S
C1190 H1204 0.960 . S
C1191 C1188 1.511 1_455 S
C1191 H1205 0.961 . S
C1191 H1206 0.961 . S
C1191 H1207 0.961 . S
C1192 C1193 1.370 . S
C1192 C1194 1.363 . S
C1192 H1208 0.931 . S
C1193 C1192 1.370 . S
C1193 C1197 1.408 . S
C1194 C1192 1.363 . S
C1194 C1195 1.370 . S
C1194 C1198 1.524 . S
C1195 C1187 1.503 1_455 S
C1195 C1194 1.370 . S
C1195 C1196 1.403 . S
C1196 C1195 1.403 . S
C1196 C1197 1.404 . S
C1196 C1199 1.539 1_455 S
C1197 C1193 1.408 . S
C1197 C1196 1.404 . S
C1197 H1209 0.930 . S
C1198 C1194 1.524 . S
C1198 H1210 0.956 . S
C1198 H1211 0.961 . S
C1198 H1212 0.961 . S
C1199 C1196 1.539 1_655 S
C1199 H1213 0.958 . S
C1199 H1214 0.973 . S
C1199 H1215 0.960 . S
H1200 C1184 0.931 . S
H1201 C1189 0.929 . S
H1202 C1190 0.960 . S
H1203 C1190 0.962 . S
H1204 C1190 0.960 . S
H1205 C1191 0.961 . S
H1206 C1191 0.961 . S
H1207 C1191 0.961 . S
H1208 C1192 0.931 . S
H1209 C1197 0.930 . S
H1210 C1198 0.956 . S
H1211 C1198 0.961 . S
H1212 C1198 0.961 . S
H1213 C1199 0.958 . S
H1214 C1199 0.973 . S
H1215 C1199 0.960 . S
C1216 C1217 1.391 . S
C1216 C1218 1.394 . S
C1216 H1232 0.931 . S
C1217 C1216 1.391 . S
C1217 C1221 1.376 . S
C1218 C1216 1.394 . S
C1218 C1219 1.369 . S
C1218 C1222 1.531 . S
C1219 C1218 1.369 . S
C1219 C1220 1.403 1_655 S
C1219 C1227 1.503 1_655 S
C1220 C1219 1.403 1_455 S
C1220 C1221 1.377 1_455 S
C1220 C1223 1.532 . S
C1221 C1217 1.376 . S
C1221 C1220 1.377 1_655 S
C1221 H1233 0.929 . S
C1222 C1218 1.531 . S
C1222 H1234 0.960 . S
C1222 H1235 0.962 . S
C1222 H1236 0.960 . S
C1223 C1220 1.532 . S
C1223 H1237 0.961 . S
C1223 H1238 0.961 . S
C1223 H1239 0.961 . S
C1224 C1225 1.370 . S
C1224 C1226 1.363 . S
C1224 H1240 0.931 . S
C1225 C1224 1.370 . S
C1225 C1229 1.408 . S
C1226 C1224 1.363 . S
C1226 C1227 1.370 . S
C1226 C1230 1.524 1_455 S
C1227 C1219 1.503 1_455 S
C1227 C1226 1.370 . S
C1227 C1228 1.403 . S
C1228 C1227 1.403 . S
C1228 C1229 1.404 . S
C1228 C1231 1.539 . S
C1229 C1225 1.408 . S
C1229 C1228 1.404 . S
C1229 H1241 0.930 . S
C1230 C1226 1.524 1_655 S
C1230 H1242 0.956 . S
C1230 H1243 0.961 . S
C1230 H1244 0.961 . S
C1231 C1228 1.539 . S
C1231 H1245 0.958 . S
C1231 H1246 0.961 . S
C1231 H1247 0.960 . S
H1232 C1216 0.931 . S
H1233 C1221 0.929 . S
H1234 C1222 0.960 . S
H1235 C1222 0.962 . S
H1236 C1222 0.960 . S
H1237 C1223 0.961 . S
H1238 C1223 0.961 . S
H1239 C1223 0.961 . S
H1240 C1224 0.931 . S
H1241 C1229 0.930 . S
H1242 C1230 0.956 . S
H1243 C1230 0.961 . S
H1244 C1230 0.961 . S
H1245 C1231 0.958 . S
H1246 C1231 0.961 . S
H1247 C1231 0.960 . S
C1248 C1249 1.391 . S
C1248 C1250 1.394 . S
C1248 H1264 0.931 . S
C1249 C1248 1.391 . S
C1249 C1253 1.376 . S
C1250 C1248 1.394 . S
C1250 C1251 1.369 . S
C1250 C1254 1.531 . S
C1251 C1250 1.369 . S
C1251 C1252 1.410 . S
C1251 C1259 1.503 . S
C1252 C1251 1.410 . S
C1252 C1253 1.392 . S
C1252 C1255 1.511 . S
C1253 C1249 1.376 . S
C1253 C1252 1.392 . S
C1253 H1265 0.929 . S
C1254 C1250 1.531 . S
C1254 H1266 0.960 . S
C1254 H1267 0.962 . S
C1254 H1268 0.960 . S
C1255 C1252 1.511 . S
C1255 H1269 0.961 . S
C1255 H1270 0.961 . S
C1255 H1271 0.961 . S
C1256 C1257 1.370 . S
C1256 C1258 1.363 . S
C1256 H1272 0.931 . S
C1257 C1256 1.370 . S
C1257 C1261 1.408 . S
C1258 C1256 1.363 . S
C1258 C1259 1.370 . S
C1258 C1262 1.524 . S
C1259 C1251 1.503 . S
C1259 C1258 1.370 . S
C1259 C1260 1.403 . S
C1260 C1259 1.403 . S
C1260 C1261 1.404 . S
C1260 C1263 1.539 . S
C1261 C1257 1.408 . S
C1261 C1260 1.404 . S
C1261 H1273 0.930 . S
C1262 C1258 1.524 . S
C1262 H1274 0.956 . S
C1262 H1275 0.961 . S
C1262 H1276 0.961 . S
C1263 C1260 1.539 . S
C1263 H1277 0.958 . S
C1263 H1278 0.961 . S
C1263 H1279 0.960 . S
H1264 C1248 0.931 . S
H1265 C1253 0.929 . S
H1266 C1254 0.960 . S
H1267 C1254 0.962 . S
H1268 C1254 0.960 . S
H1269 C1255 0.961 . S
H1270 C1255 0.961 . S
H1271 C1255 0.961 . S
H1272 C1256 0.931 . S
H1273 C1261 0.930 . S
H1274 C1262 0.956 . S
H1275 C1262 0.961 . S
H1276 C1262 0.961 . S
H1277 C1263 0.958 . S
H1278 C1263 0.961 . S
H1279 C1263 0.960 . S
C1280 C1281 1.391 . S
C1280 C1282 1.394 . S
C1280 H1296 0.931 . S
C1281 C1280 1.391 . S
C1281 C1285 1.376 . S
C1282 C1280 1.394 . S
C1282 C1283 1.369 . S
C1282 C1286 1.531 . S
C1283 C1282 1.369 . S
C1283 C1284 1.410 . S
C1283 C1291 1.503 . S
C1284 C1283 1.410 . S
C1284 C1285 1.392 . S
C1284 C1287 1.511 . S
C1285 C1281 1.376 . S
C1285 C1284 1.392 . S
C1285 H1297 0.929 . S
C1286 C1282 1.531 . S
C1286 H1298 0.960 . S
C1286 H1299 0.962 . S
C1286 H1300 0.960 . S
C1287 C1284 1.511 . S
C1287 H1301 0.961 . S
C1287 H1302 0.961 . S
C1287 H1303 0.961 . S
C1288 C1289 1.370 . S
C1288 C1290 1.363 . S
C1288 H1304 0.931 . S
C1289 C1288 1.370 . S
C1289 C1293 1.408 . S
C1290 C1288 1.363 . S
C1290 C1291 1.370 . S
C1290 C1294 1.524 . S
C1291 C1283 1.503 . S
C1291 C1290 1.370 . S
C1291 C1292 1.403 . S
C1292 C1291 1.403 . S
C1292 C1293 1.404 . S
C1292 C1295 1.539 . S
C1293 C1289 1.408 . S
C1293 C1292 1.404 . S
C1293 H1305 0.930 . S
C1294 C1290 1.524 . S
C1294 H1306 0.956 . S
C1294 H1307 0.961 . S
C1294 H1308 0.961 . S
C1295 C1292 1.539 . S
C1295 H1309 0.958 . S
C1295 H1310 0.961 . S
C1295 H1311 0.960 . S
H1296 C1280 0.931 . S
H1297 C1285 0.929 . S
H1298 C1286 0.960 . S
H1299 C1286 0.962 . S
H1300 C1286 0.960 . S
H1301 C1287 0.961 . S
H1302 C1287 0.961 . S
H1303 C1287 0.961 . S
H1304 C1288 0.931 . S
H1305 C1293 0.930 . S
H1306 C1294 0.956 . S
H1307 C1294 0.961 . S
H1308 C1294 0.961 . S
H1309 C1295 0.958 . S
H1310 C1295 0.961 . S
H1311 C1295 0.960 . S
C1312 C1313 1.391 . S
C1312 C1314 1.394 . S
C1312 H1328 0.931 . S
C1313 C1312 1.391 . S
C1313 C1317 1.376 . S
C1314 C1312 1.394 . S
C1314 C1315 1.369 . S
C1314 C1318 1.531 1_455 S
C1315 C1314 1.369 . S
C1315 C1316 1.410 . S
C1315 C1323 1.503 1_455 S
C1316 C1315 1.410 . S
C1316 C1317 1.392 . S
C1316 C1319 1.511 . S
C1317 C1313 1.376 . S
C1317 C1316 1.392 . S
C1317 H1329 0.929 . S
C1318 C1314 1.531 1_655 S
C1318 H1330 0.960 . S
C1318 H1331 0.962 . S
C1318 H1332 0.960 . S
C1319 C1316 1.511 . S
C1319 H1333 0.961 . S
C1319 H1334 0.961 . S
C1319 H1335 0.961 . S
C1320 C1321 1.370 . S
C1320 C1322 1.363 . S
C1320 H1336 0.931 . S
C1321 C1320 1.370 . S
C1321 C1325 1.408 . S
C1322 C1320 1.363 . S
C1322 C1323 1.370 . S
C1322 C1326 1.524 1_655 S
C1323 C1315 1.503 1_655 S
C1323 C1322 1.370 . S
C1323 C1324 1.403 . S
C1324 C1323 1.403 . S
C1324 C1325 1.404 . S
C1324 C1327 1.539 . S
C1325 C1321 1.408 . S
C1325 C1324 1.404 . S
C1325 H1337 0.930 . S
C1326 C1322 1.524 1_455 S
C1326 H1338 0.956 . S
C1326 H1339 0.961 . S
C1326 H1340 0.961 . S
C1327 C1324 1.539 . S
C1327 H1341 0.958 . S
C1327 H1342 0.961 . S
C1327 H1343 0.960 . S
H1328 C1312 0.931 . S
H1329 C1317 0.929 . S
H1330 C1318 0.960 . S
H1331 C1318 0.962 . S
H1332 C1318 0.960 . S
H1333 C1319 0.961 . S
H1334 C1319 0.961 . S
H1335 C1319 0.961 . S
H1336 C1320 0.931 . S
H1337 C1325 0.930 . S
H1338 C1326 0.956 . S
H1339 C1326 0.961 . S
H1340 C1326 0.961 . S
H1341 C1327 0.958 . S
H1342 C1327 0.961 . S
H1343 C1327 0.960 . S
C1344 C1345 1.391 . S
C1344 C1346 1.394 . S
C1344 H1360 0.931 . S
C1345 C1344 1.391 . S
C1345 C1349 1.376 . S
C1346 C1344 1.394 . S
C1346 C1347 1.369 . S
C1346 C1350 1.531 . S
C1347 C1346 1.369 . S
C1347 C1348 1.410 . S
C1347 C1355 1.503 1_455 S
C1348 C1347 1.410 . S
C1348 C1349 1.392 . S
C1348 C1351 1.511 . S
C1349 C1345 1.376 . S
C1349 C1348 1.392 . S
C1349 H1361 0.929 . S
C1350 C1346 1.531 . S
C1350 H1362 0.960 . S
C1350 H1363 0.962 1_455 S
C1350 H1364 0.960 . S
C1351 C1348 1.511 . S
C1351 H1365 0.961 . S
C1351 H1366 0.961 1_455 S
C1351 H1367 0.961 . S
C1352 C1353 1.370 . S
C1352 C1354 1.363 . S
C1352 H1368 0.931 . S
C1353 C1352 1.370 . S
C1353 C1357 1.408 . S
C1354 C1352 1.363 . S
C1354 C1355 1.370 . S
C1354 C1358 1.524 . S
C1355 C1347 1.503 1_655 S
C1355 C1354 1.370 . S
C1355 C1356 1.403 1_655 S
C1356 C1355 1.403 1_455 S
C1356 C1357 1.404 1_455 S
C1356 C1359 1.539 . S
C1357 C1353 1.408 . S
C1357 C1356 1.404 1_655 S
C1357 H1369 0.930 . S
C1358 C1354 1.524 . S
C1358 H1370 0.956 . S
C1358 H1371 0.961 . S
C1358 H1372 0.961 . S
C1359 C1356 1.539 . S
C1359 H1373 0.958 . S
C1359 H1374 0.961 . S
C1359 H1375 0.960 . S
H1360 C1344 0.931 . S
H1361 C1349 0.929 . S
H1362 C1350 0.960 . S
H1363 C1350 0.962 1_655 S
H1364 C1350 0.960 . S
H1365 C1351 0.961 . S
H1366 C1351 0.961 1_655 S
H1367 C1351 0.961 . S
H1368 C1352 0.931 . S
H1369 C1357 0.930 . S
H1370 C1358 0.956 . S
H1371 C1358 0.961 . S
H1372 C1358 0.961 . S
H1373 C1359 0.958 . S
H1374 C1359 0.961 . S
H1375 C1359 0.960 . S
C1376 C1377 1.391 . S
C1376 C1378 1.394 . S
C1376 H1392 0.931 . S
C1377 C1376 1.391 . S
C1377 C1381 1.376 . S
C1378 C1376 1.394 . S
C1378 C1379 1.369 . S
C1378 C1382 1.531 . S
C1379 C1378 1.369 . S
C1379 C1380 1.410 . S
C1379 C1387 1.503 . S
C1380 C1379 1.410 . S
C1380 C1381 1.392 . S
C1380 C1383 1.511 . S
C1381 C1377 1.376 . S
C1381 C1380 1.392 . S
C1381 H1393 0.929 . S
C1382 C1378 1.531 . S
C1382 H1394 0.960 . S
C1382 H1395 0.962 . S
C1382 H1396 0.960 . S
C1383 C1380 1.511 . S
C1383 H1397 0.961 . S
C1383 H1398 0.961 . S
C1383 H1399 0.961 . S
C1384 C1385 1.370 . S
C1384 C1386 1.363 . S
C1384 H1400 0.931 . S
C1385 C1384 1.370 . S
C1385 C1389 1.408 . S
C1386 C1384 1.363 . S
C1386 C1387 1.370 . S
C1386 C1390 1.524 . S
C1387 C1379 1.503 . S
C1387 C1386 1.370 . S
C1387 C1388 1.403 . S
C1388 C1387 1.403 . S
C1388 C1389 1.404 . S
C1388 C1391 1.539 . S
C1389 C1385 1.408 . S
C1389 C1388 1.404 . S
C1389 H1401 0.930 . S
C1390 C1386 1.524 . S
C1390 H1402 0.956 . S
C1390 H1403 0.961 . S
C1390 H1404 0.961 . S
C1391 C1388 1.539 . S
C1391 H1405 0.958 . S
C1391 H1406 0.961 . S
C1391 H1407 0.960 . S
H1392 C1376 0.931 . S
H1393 C1381 0.929 . S
H1394 C1382 0.960 . S
H1395 C1382 0.962 . S
H1396 C1382 0.960 . S
H1397 C1383 0.961 . S
H1398 C1383 0.961 . S
H1399 C1383 0.961 . S
H1400 C1384 0.931 . S
H1401 C1389 0.930 . S
H1402 C1390 0.956 . S
H1403 C1390 0.961 . S
H1404 C1390 0.961 . S
H1405 C1391 0.958 . S
H1406 C1391 0.961 . S
H1407 C1391 0.960 . S
C1408 C1409 1.391 . S
C1408 C1410 1.394 . S
C1408 H1424 0.931 . S
C1409 C1408 1.391 . S
C1409 C1413 1.376 . S
C1410 C1408 1.394 . S
C1410 C1411 1.369 . S
C1410 C1414 1.531 . S
C1411 C1410 1.369 . S
C1411 C1412 1.410 . S
C1411 C1419 1.503 . S
C1412 C1411 1.410 . S
C1412 C1413 1.392 . S
C1412 C1415 1.511 . S
C1413 C1409 1.376 . S
C1413 C1412 1.392 . S
C1413 H1425 0.929 . S
C1414 C1410 1.531 . S
C1414 H1426 0.960 . S
C1414 H1427 0.962 . S
C1414 H1428 0.960 . S
C1415 C1412 1.511 . S
C1415 H1429 0.961 . S
C1415 H1430 0.961 . S
C1415 H1431 0.961 . S
C1416 C1417 1.370 . S
C1416 C1418 1.363 . S
C1416 H1432 0.931 . S
C1417 C1416 1.370 . S
C1417 C1421 1.408 . S
C1418 C1416 1.363 . S
C1418 C1419 1.370 . S
C1418 C1422 1.524 . S
C1419 C1411 1.503 . S
C1419 C1418 1.370 . S
C1419 C1420 1.403 . S
C1420 C1419 1.403 . S
C1420 C1421 1.404 . S
C1420 C1423 1.539 . S
C1421 C1417 1.408 . S
C1421 C1420 1.404 . S
C1421 H1433 0.930 . S
C1422 C1418 1.524 . S
C1422 H1434 0.956 . S
C1422 H1435 0.961 . S
C1422 H1436 0.961 . S
C1423 C1420 1.539 . S
C1423 H1437 0.958 . S
C1423 H1438 0.961 . S
C1423 H1439 0.960 . S
H1424 C1408 0.931 . S
H1425 C1413 0.929 . S
H1426 C1414 0.960 . S
H1427 C1414 0.962 . S
H1428 C1414 0.960 . S
H1429 C1415 0.961 . S
H1430 C1415 0.961 . S
H1431 C1415 0.961 . S
H1432 C1416 0.931 . S
H1433 C1421 0.930 . S
H1434 C1422 0.956 . S
H1435 C1422 0.961 . S
H1436 C1422 0.961 . S
H1437 C1423 0.958 . S
H1438 C1423 0.961 . S
H1439 C1423 0.960 . S
C1440 C1441 1.391 . S
C1440 C1442 1.394 . S
C1440 H1456 0.931 . S
C1441 C1440 1.391 . S
C1441 C1445 1.376 . S
C1442 C1440 1.394 . S
C1442 C1443 1.369 . S
C1442 C1446 1.531 . S
C1443 C1442 1.369 . S
C1443 C1444 1.410 . S
C1443 C1451 1.503 . S
C1444 C1443 1.410 . S
C1444 C1445 1.392 . S
C1444 C1447 1.511 . S
C1445 C1441 1.376 . S
C1445 C1444 1.392 . S
C1445 H1457 0.929 . S
C1446 C1442 1.531 . S
C1446 H1458 0.960 . S
C1446 H1459 0.962 . S
C1446 H1460 0.960 . S
C1447 C1444 1.511 . S
C1447 H1461 0.961 . S
C1447 H1462 0.961 . S
C1447 H1463 0.961 . S
C1448 C1449 1.370 . S
C1448 C1450 1.363 . S
C1448 H1464 0.931 . S
C1449 C1448 1.370 . S
C1449 C1453 1.408 . S
C1450 C1448 1.363 . S
C1450 C1451 1.370 . S
C1450 C1454 1.524 . S
C1451 C1443 1.503 . S
C1451 C1450 1.370 . S
C1451 C1452 1.403 . S
C1452 C1451 1.403 . S
C1452 C1453 1.404 . S
C1452 C1455 1.539 . S
C1453 C1449 1.408 . S
C1453 C1452 1.404 . S
C1453 H1465 0.930 . S
C1454 C1450 1.524 . S
C1454 H1466 0.956 . S
C1454 H1467 0.961 . S
C1454 H1468 0.961 . S
C1455 C1452 1.539 . S
C1455 H1469 0.958 . S
C1455 H1470 0.961 . S
C1455 H1471 0.960 . S
H1456 C1440 0.931 . S
H1457 C1445 0.929 . S
H1458 C1446 0.960 . S
H1459 C1446 0.962 . S
H1460 C1446 0.960 . S
H1461 C1447 0.961 . S
H1462 C1447 0.961 . S
H1463 C1447 0.961 . S
H1464 C1448 0.931 . S
H1465 C1453 0.930 . S
H1466 C1454 0.956 . S
H1467 C1454 0.961 . S
H1468 C1454 0.961 . S
H1469 C1455 0.958 . S
H1470 C1455 0.961 . S
H1471 C1455 0.960 . S
C1472 C1473 1.391 . S
C1472 C1474 1.394 . S
C1472 H1488 0.931 . S
C1473 C1472 1.391 . S
C1473 C1477 1.376 . S
C1474 C1472 1.394 . S
C1474 C1475 1.369 . S
C1474 C1478 1.531 . S
C1475 C1474 1.369 . S
C1475 C1476 1.410 . S
C1475 C1483 1.503 . S
C1476 C1475 1.410 . S
C1476 C1477 1.392 . S
C1476 C1479 1.511 . S
C1477 C1473 1.376 . S
C1477 C1476 1.392 . S
C1477 H1489 0.929 . S
C1478 C1474 1.531 . S
C1478 H1490 0.960 . S
C1478 H1491 0.962 . S
C1478 H1492 0.960 . S
C1479 C1476 1.511 . S
C1479 H1493 0.961 . S
C1479 H1494 0.961 . S
C1479 H1495 0.961 . S
C1480 C1481 1.370 . S
C1480 C1482 1.363 . S
C1480 H1496 0.931 . S
C1481 C1480 1.370 . S
C1481 C1485 1.408 . S
C1482 C1480 1.363 . S
C1482 C1483 1.370 . S
C1482 C1486 1.524 . S
C1483 C1475 1.503 . S
C1483 C1482 1.370 . S
C1483 C1484 1.403 . S
C1484 C1483 1.403 . S
C1484 C1485 1.404 . S
C1484 C1487 1.539 . S
C1485 C1481 1.408 . S
C1485 C1484 1.404 . S
C1485 H1497 0.930 . S
C1486 C1482 1.524 . S
C1486 H1498 0.956 . S
C1486 H1499 0.961 . S
C1486 H1500 0.961 . S
C1487 C1484 1.539 . S
C1487 H1501 0.958 . S
C1487 H1502 0.961 . S
C1487 H1503 0.960 . S
H1488 C1472 0.931 . S
H1489 C1477 0.929 . S
H1490 C1478 0.960 . S
H1491 C1478 0.962 . S
H1492 C1478 0.960 . S
H1493 C1479 0.961 . S
H1494 C1479 0.961 . S
H1495 C1479 0.961 . S
H1496 C1480 0.931 . S
H1497 C1485 0.930 . S
H1498 C1486 0.956 . S
H1499 C1486 0.961 . S
H1500 C1486 0.961 . S
H1501 C1487 0.958 . S
H1502 C1487 0.961 . S
H1503 C1487 0.960 . S
C1504 C1505 1.391 . S
C1504 C1506 1.394 . S
C1504 H1520 0.931 . S
C1505 C1504 1.391 . S
C1505 C1509 1.376 . S
C1506 C1504 1.394 . S
C1506 C1507 1.369 . S
C1506 C1510 1.531 . S
C1507 C1506 1.369 . S
C1507 C1508 1.410 . S
C1507 C1515 1.503 . S
C1508 C1507 1.410 . S
C1508 C1509 1.392 . S
C1508 C1511 1.511 . S
C1509 C1505 1.376 . S
C1509 C1508 1.392 . S
C1509 H1521 0.929 . S
C1510 C1506 1.531 . S
C1510 H1522 0.960 . S
C1510 H1523 0.962 . S
C1510 H1524 0.960 . S
C1511 C1508 1.511 . S
C1511 H1525 0.961 . S
C1511 H1526 0.961 . S
C1511 H1527 0.961 . S
C1512 C1513 1.370 . S
C1512 C1514 1.363 . S
C1512 H1528 0.931 . S
C1513 C1512 1.370 . S
C1513 C1517 1.408 . S
C1514 C1512 1.363 . S
C1514 C1515 1.370 . S
C1514 C1518 1.524 . S
C1515 C1507 1.503 . S
C1515 C1514 1.370 . S
C1515 C1516 1.403 . S
C1516 C1515 1.403 . S
C1516 C1517 1.404 . S
C1516 C1519 1.539 . S
C1517 C1513 1.408 . S
C1517 C1516 1.404 . S
C1517 H1529 0.930 . S
C1518 C1514 1.524 . S
C1518 H1530 0.956 . S
C1518 H1531 0.961 . S
C1518 H1532 0.961 . S
C1519 C1516 1.539 . S
C1519 H1533 0.958 . S
C1519 H1534 0.961 . S
C1519 H1535 0.960 . S
H1520 C1504 0.931 . S
H1521 C1509 0.929 . S
H1522 C1510 0.960 . S
H1523 C1510 0.962 . S
H1524 C1510 0.960 . S
H1525 C1511 0.961 . S
H1526 C1511 0.961 . S
H1527 C1511 0.961 . S
H1528 C1512 0.931 . S
H1529 C1517 0.930 . S
H1530 C1518 0.956 . S
H1531 C1518 0.961 . S
H1532 C1518 0.961 . S
H1533 C1519 0.958 . S
H1534 C1519 0.961 . S
H1535 C1519 0.960 . S
C1536 C1537 1.391 . S
C1536 C1538 1.394 . S
C1536 H1552 0.931 . S
C1537 C1536 1.391 . S
C1537 C1541 1.376 . S
C1538 C1536 1.394 . S
C1538 C1539 1.369 . S
C1538 C1542 1.531 . S
C1539 C1538 1.369 . S
C1539 C1540 1.410 . S
C1539 C1547 1.503 . S
C1540 C1539 1.410 . S
C1540 C1541 1.392 . S
C1540 C1543 1.511 . S
C1541 C1537 1.376 . S
C1541 C1540 1.392 . S
C1541 H1553 0.929 . S
C1542 C1538 1.531 . S
C1542 H1554 0.960 . S
C1542 H1555 0.962 . S
C1542 H1556 0.960 . S
C1543 C1540 1.511 . S
C1543 H1557 0.961 . S
C1543 H1558 0.961 . S
C1543 H1559 0.961 . S
C1544 C1545 1.370 . S
C1544 C1546 1.363 . S
C1544 H1560 0.931 . S
C1545 C1544 1.370 . S
C1545 C1549 1.408 . S
C1546 C1544 1.363 . S
C1546 C1547 1.370 . S
C1546 C1550 1.524 . S
C1547 C1539 1.503 . S
C1547 C1546 1.370 . S
C1547 C1548 1.403 . S
C1548 C1547 1.403 . S
C1548 C1549 1.404 . S
C1548 C1551 1.539 . S
C1549 C1545 1.408 . S
C1549 C1548 1.404 . S
C1549 H1561 0.930 . S
C1550 C1546 1.524 . S
C1550 H1562 0.956 . S
C1550 H1563 0.961 . S
C1550 H1564 0.961 . S
C1551 C1548 1.539 . S
C1551 H1565 0.958 . S
C1551 H1566 0.961 . S
C1551 H1567 0.960 . S
H1552 C1536 0.931 . S
H1553 C1541 0.929 . S
H1554 C1542 0.960 . S
H1555 C1542 0.962 . S
H1556 C1542 0.960 . S
H1557 C1543 0.961 . S
H1558 C1543 0.961 . S
H1559 C1543 0.961 . S
H1560 C1544 0.931 . S
H1561 C1549 0.930 . S
H1562 C1550 0.956 . S
H1563 C1550 0.961 . S
H1564 C1550 0.961 . S
H1565 C1551 0.958 . S
H1566 C1551 0.961 . S
H1567 C1551 0.960 . S
C1568 C1569 1.391 . S
C1568 C1570 1.394 . S
C1568 H1584 0.931 . S
C1569 C1568 1.391 . S
C1569 C1573 1.376 . S
C1570 C1568 1.394 . S
C1570 C1571 1.369 . S
C1570 C1574 1.531 . S
C1571 C1570 1.369 . S
C1571 C1572 1.410 . S
C1571 C1579 1.503 . S
C1572 C1571 1.410 . S
C1572 C1573 1.392 . S
C1572 C1575 1.511 . S
C1573 C1569 1.376 . S
C1573 C1572 1.392 . S
C1573 H1585 0.929 . S
C1574 C1570 1.531 . S
C1574 H1586 0.960 . S
C1574 H1587 0.962 . S
C1574 H1588 0.960 . S
C1575 C1572 1.511 . S
C1575 H1589 0.961 . S
C1575 H1590 0.961 . S
C1575 H1591 0.961 . S
C1576 C1577 1.370 . S
C1576 C1578 1.363 . S
C1576 H1592 0.931 . S
C1577 C1576 1.370 . S
C1577 C1581 1.408 . S
C1578 C1576 1.363 . S
C1578 C1579 1.370 . S
C1578 C1582 1.524 . S
C1579 C1571 1.503 . S
C1579 C1578 1.370 . S
C1579 C1580 1.403 . S
C1580 C1579 1.403 . S
C1580 C1581 1.404 . S
C1580 C1583 1.539 . S
C1581 C1577 1.408 . S
C1581 C1580 1.404 . S
C1581 H1593 0.930 . S
C1582 C1578 1.524 . S
C1582 H1594 0.956 . S
C1582 H1595 0.961 . S
C1582 H1596 0.961 . S
C1583 C1580 1.539 . S
C1583 H1597 0.958 . S
C1583 H1598 0.961 . S
C1583 H1599 0.960 . S
H1584 C1568 0.931 . S
H1585 C1573 0.929 . S
H1586 C1574 0.960 . S
H1587 C1574 0.962 . S
H1588 C1574 0.960 . S
H1589 C1575 0.961 . S
H1590 C1575 0.961 . S
H1591 C1575 0.961 . S
H1592 C1576 0.931 . S
H1593 C1581 0.930 . S
H1594 C1582 0.956 . S
H1595 C1582 0.961 . S
H1596 C1582 0.961 . S
H1597 C1583 0.958 . S
H1598 C1583 0.961 . S
H1599 C1583 0.960 . S
C1600 C1601 1.391 . S
C1600 C1602 1.394 . S
C1600 H1616 0.931 . S
C1601 C1600 1.391 . S
C1601 C1605 1.376 . S
C1602 C1600 1.394 . S
C1602 C1603 1.369 . S
C1602 C1606 1.531 . S
C1603 C1602 1.369 . S
C1603 C1604 1.410 . S
C1603 C1611 1.503 . S
C1604 C1603 1.410 . S
C1604 C1605 1.392 . S
C1604 C1607 1.511 . S
C1605 C1601 1.376 . S
C1605 C1604 1.392 . S
C1605 H1617 0.929 . S
C1606 C1602 1.531 . S
C1606 H1618 0.960 . S
C1606 H1619 0.962 . S
C1606 H1620 0.960 . S
C1607 C1604 1.511 . S
C1607 H1621 0.961 . S
C1607 H1622 0.961 . S
C1607 H1623 0.961 . S
C1608 C1609 1.370 . S
C1608 C1610 1.363 . S
C1608 H1624 0.931 . S
C1609 C1608 1.370 . S
C1609 C1613 1.408 . S
C1610 C1608 1.363 . S
C1610 C1611 1.370 . S
C1610 C1614 1.524 . S
C1611 C1603 1.503 . S
C1611 C1610 1.370 . S
C1611 C1612 1.403 . S
C1612 C1611 1.403 . S
C1612 C1613 1.404 . S
C1612 C1615 1.539 . S
C1613 C1609 1.408 . S
C1613 C1612 1.404 . S
C1613 H1625 0.930 . S
C1614 C1610 1.524 . S
C1614 H1626 0.956 . S
C1614 H1627 0.961 . S
C1614 H1628 0.961 . S
C1615 C1612 1.539 . S
C1615 H1629 0.958 . S
C1615 H1630 0.961 . S
C1615 H1631 0.960 . S
H1616 C1600 0.931 . S
H1617 C1605 0.929 . S
H1618 C1606 0.960 . S
H1619 C1606 0.962 . S
H1620 C1606 0.960 . S
H1621 C1607 0.961 . S
H1622 C1607 0.961 . S
H1623 C1607 0.961 . S
H1624 C1608 0.931 . S
H1625 C1613 0.930 . S
H1626 C1614 0.956 . S
H1627 C1614 0.961 . S
H1628 C1614 0.961 . S
H1629 C1615 0.958 . S
H1630 C1615 0.961 . S
H1631 C1615 0.960 . S
C1632 C1633 1.391 . S
C1632 C1634 1.394 . S
C1632 H1648 0.931 . S
C1633 C1632 1.391 . S
C1633 C1637 1.376 . S
C1634 C1632 1.394 . S
C1634 C1635 1.369 . S
C1634 C1638 1.531 . S
C1635 C1634 1.369 . S
C1635 C1636 1.410 . S
C1635 C1643 1.503 . S
C1636 C1635 1.410 . S
C1636 C1637 1.392 . S
C1636 C1639 1.511 . S
C1637 C1633 1.376 . S
C1637 C1636 1.392 . S
C1637 H1649 0.929 . S
C1638 C1634 1.531 . S
C1638 H1650 0.960 . S
C1638 H1651 0.962 . S
C1638 H1652 0.960 . S
C1639 C1636 1.511 . S
C1639 H1653 0.961 . S
C1639 H1654 0.961 . S
C1639 H1655 0.961 . S
C1640 C1641 1.370 . S
C1640 C1642 1.363 . S
C1640 H1656 0.931 . S
C1641 C1640 1.370 . S
C1641 C1645 1.408 . S
C1642 C1640 1.363 . S
C1642 C1643 1.370 . S
C1642 C1646 1.524 . S
C1643 C1635 1.503 . S
C1643 C1642 1.370 . S
C1643 C1644 1.403 . S
C1644 C1643 1.403 . S
C1644 C1645 1.404 . S
C1644 C1647 1.539 . S
C1645 C1641 1.408 . S
C1645 C1644 1.404 . S
C1645 H1657 0.930 . S
C1646 C1642 1.524 . S
C1646 H1658 0.956 . S
C1646 H1659 0.961 . S
C1646 H1660 0.961 . S
C1647 C1644 1.539 . S
C1647 H1661 0.958 . S
C1647 H1662 0.961 . S
C1647 H1663 0.960 . S
H1648 C1632 0.931 . S
H1649 C1637 0.929 . S
H1650 C1638 0.960 . S
H1651 C1638 0.962 . S
H1652 C1638 0.960 . S
H1653 C1639 0.961 . S
H1654 C1639 0.961 . S
H1655 C1639 0.961 . S
H1656 C1640 0.931 . S
H1657 C1645 0.930 . S
H1658 C1646 0.956 . S
H1659 C1646 0.961 . S
H1660 C1646 0.961 . S
H1661 C1647 0.958 . S
H1662 C1647 0.961 . S
H1663 C1647 0.960 . S
C1664 C1665 1.391 . S
C1664 C1666 1.394 . S
C1664 H1680 0.931 . S
C1665 C1664 1.391 . S
C1665 C1669 1.376 . S
C1666 C1664 1.394 . S
C1666 C1667 1.369 . S
C1666 C1670 1.531 1_565 S
C1667 C1666 1.369 . S
C1667 C1668 1.410 . S
C1667 C1675 1.503 . S
C1668 C1667 1.410 . S
C1668 C1669 1.392 . S
C1668 C1671 1.511 . S
C1669 C1665 1.376 . S
C1669 C1668 1.392 . S
C1669 H1681 0.929 . S
C1670 C1666 1.531 1_545 S
C1670 H1682 0.960 . S
C1670 H1683 0.962 . S
C1670 H1684 0.960 . S
C1671 C1668 1.511 . S
C1671 H1685 0.961 . S
C1671 H1686 0.961 . S
C1671 H1687 0.961 . S
C1672 C1673 1.370 . S
C1672 C1674 1.363 . S
C1672 H1688 0.931 . S
C1673 C1672 1.370 . S
C1673 C1677 1.408 . S
C1674 C1672 1.363 . S
C1674 C1675 1.370 1_545 S
C1674 C1678 1.524 1_545 S
C1675 C1667 1.503 . S
C1675 C1674 1.370 1_565 S
C1675 C1676 1.403 1_565 S
C1676 C1675 1.403 1_545 S
C1676 C1677 1.404 . S
C1676 C1679 1.539 1_545 S
C1677 C1673 1.408 . S
C1677 C1676 1.404 . S
C1677 H1689 0.930 . S
C1678 C1674 1.524 1_565 S
C1678 H1690 0.956 1_565 S
C1678 H1691 0.961 . S
C1678 H1692 0.961 1_565 S
C1679 C1676 1.539 1_565 S
C1679 H1693 0.958 1_565 S
C1679 H1694 0.961 . S
C1679 H1695 0.960 . S
H1680 C1664 0.931 . S
H1681 C1669 0.929 . S
H1682 C1670 0.960 . S
H1683 C1670 0.962 . S
H1684 C1670 0.960 . S
H1685 C1671 0.961 . S
H1686 C1671 0.961 . S
H1687 C1671 0.961 . S
H1688 C1672 0.931 . S
H1689 C1677 0.930 . S
H1690 C1678 0.956 1_545 S
H1691 C1678 0.961 . S
H1692 C1678 0.961 1_545 S
H1693 C1679 0.958 1_545 S
H1694 C1679 0.961 . S
H1695 C1679 0.960 . S
C1696 C1697 1.391 . S
C1696 C1698 1.394 . S
C1696 H1712 0.931 . S
C1697 C1696 1.391 . S
C1697 C1701 1.376 . S
C1698 C1696 1.394 . S
C1698 C1699 1.369 . S
C1698 C1702 1.531 . S
C1699 C1698 1.369 . S
C1699 C1700 1.410 . S
C1699 C1707 1.503 . S
C1700 C1699 1.410 . S
C1700 C1701 1.392 . S
C1700 C1703 1.511 . S
C1701 C1697 1.376 . S
C1701 C1700 1.392 . S
C1701 H1713 0.929 . S
C1702 C1698 1.531 . S
C1702 H1714 0.960 . S
C1702 H1715 0.962 . S
C1702 H1716 0.960 . S
C1703 C1700 1.511 . S
C1703 H1717 0.961 . S
C1703 H1718 0.961 . S
C1703 H1719 0.961 . S
C1704 C1705 1.370 . S
C1704 C1706 1.363 . S
C1704 H1720 0.931 . S
C1705 C1704 1.370 . S
C1705 C1709 1.408 . S
C1706 C1704 1.363 . S
C1706 C1707 1.370 . S
C1706 C1710 1.524 . S
C1707 C1699 1.503 . S
C1707 C1706 1.370 . S
C1707 C1708 1.403 . S
C1708 C1707 1.403 . S
C1708 C1709 1.404 . S
C1708 C1711 1.539 . S
C1709 C1705 1.408 . S
C1709 C1708 1.404 . S
C1709 H1721 0.930 . S
C1710 C1706 1.524 . S
C1710 H1722 0.956 . S
C1710 H1723 0.961 . S
C1710 H1724 0.961 . S
C1711 C1708 1.539 . S
C1711 H1725 0.958 . S
C1711 H1726 0.961 . S
C1711 H1727 0.960 . S
H1712 C1696 0.931 . S
H1713 C1701 0.929 . S
H1714 C1702 0.960 . S
H1715 C1702 0.962 . S
H1716 C1702 0.960 . S
H1717 C1703 0.961 . S
H1718 C1703 0.961 . S
H1719 C1703 0.961 . S
H1720 C1704 0.931 . S
H1721 C1709 0.930 . S
H1722 C1710 0.956 . S
H1723 C1710 0.961 . S
H1724 C1710 0.961 . S
H1725 C1711 0.958 . S
H1726 C1711 0.961 . S
H1727 C1711 0.960 . S
C1728 C1729 1.391 . S
C1728 C1730 1.394 . S
C1728 H1744 0.931 . S
C1729 C1728 1.391 . S
C1729 C1733 1.376 . S
C1730 C1728 1.394 . S
C1730 C1731 1.373 . S
C1730 C1734 1.538 . S
C1731 C1730 1.373 . S
C1731 C1732 1.413 . S
C1731 C1739 1.495 1_565 S
C1732 C1731 1.413 . S
C1732 C1733 1.392 . S
C1732 C1735 1.516 . S
C1733 C1729 1.376 . S
C1733 C1732 1.392 . S
C1733 H1745 0.929 . S
C1734 C1730 1.538 . S
C1734 H1746 0.960 . S
C1734 H1747 0.935 1_565 S
C1734 H1748 0.982 . S
C1735 C1732 1.516 . S
C1735 H1749 0.959 1_565 S
C1735 H1750 0.944 1_565 S
C1735 H1751 0.975 . S
C1736 C1737 1.370 . S
C1736 C1738 1.363 . S
C1736 H1752 0.931 . S
C1737 C1736 1.370 . S
C1737 C1741 1.408 . S
C1738 C1736 1.363 . S
C1738 C1739 1.370 . S
C1738 C1742 1.524 . S
C1739 C1731 1.495 1_545 S
C1739 C1738 1.370 . S
C1739 C1740 1.403 . S
C1740 C1739 1.403 . S
C1740 C1741 1.404 . S
C1740 C1743 1.539 1_545 S
C1741 C1737 1.408 . S
C1741 C1740 1.404 . S
C1741 H1753 0.930 . S
C1742 C1738 1.524 . S
C1742 H1754 0.956 . S
C1742 H1755 0.961 . S
C1742 H1756 0.961 . S
C1743 C1740 1.539 1_565 S
C1743 H1757 0.958 . S
C1743 H1758 0.961 . S
C1743 H1759 0.960 . S
H1744 C1728 0.931 . S
H1745 C1733 0.929 . S
H1746 C1734 0.960 . S
H1747 C1734 0.935 1_545 S
H1748 C1734 0.982 . S
H1749 C1735 0.959 1_545 S
H1750 C1735 0.944 1_545 S
H1751 C1735 0.975 . S
H1752 C1736 0.931 . S
H1753 C1741 0.930 . S
H1754 C1742 0.956 . S
H1755 C1742 0.961 . S
H1756 C1742 0.961 . S
H1757 C1743 0.958 . S
H1758 C1743 0.961 . S
H1759 C1743 0.960 . S
C1760 C1761 1.391 . S
C1760 C1762 1.394 . S
C1760 H1776 0.931 . S
C1761 C1760 1.391 . S
C1761 C1765 1.376 . S
C1762 C1760 1.394 . S
C1762 C1763 1.369 . S
C1762 C1766 1.531 . S
C1763 C1762 1.369 . S
C1763 C1764 1.410 . S
C1763 C1771 1.503 . S
C1764 C1763 1.410 . S
C1764 C1765 1.392 . S
C1764 C1767 1.511 . S
C1765 C1761 1.376 . S
C1765 C1764 1.392 . S
C1765 H1777 0.929 . S
C1766 C1762 1.531 . S
C1766 H1778 0.960 . S
C1766 H1779 0.962 . S
C1766 H1780 0.960 . S
C1767 C1764 1.511 . S
C1767 H1781 0.961 . S
C1767 H1782 0.961 . S
C1767 H1783 0.961 . S
C1768 C1769 1.370 . S
C1768 C1770 1.363 . S
C1768 H1784 0.931 . S
C1769 C1768 1.370 . S
C1769 C1773 1.408 . S
C1770 C1768 1.363 . S
C1770 C1771 1.370 . S
C1770 C1774 1.524 . S
C1771 C1763 1.503 . S
C1771 C1770 1.370 . S
C1771 C1772 1.403 . S
C1772 C1771 1.403 . S
C1772 C1773 1.404 . S
C1772 C1775 1.539 . S
C1773 C1769 1.408 . S
C1773 C1772 1.404 . S
C1773 H1785 0.932 . S
C1774 C1770 1.524 . S
C1774 H1786 0.956 . S
C1774 H1787 0.961 . S
C1774 H1788 0.961 . S
C1775 C1772 1.539 . S
C1775 H1789 0.958 . S
C1775 H1790 0.961 . S
C1775 H1791 0.960 . S
H1776 C1760 0.931 . S
H1777 C1765 0.929 . S
H1778 C1766 0.960 . S
H1779 C1766 0.962 . S
H1780 C1766 0.960 . S
H1781 C1767 0.961 . S
H1782 C1767 0.961 . S
H1783 C1767 0.961 . S
H1784 C1768 0.931 . S
H1785 C1773 0.932 . S
H1786 C1774 0.956 . S
H1787 C1774 0.961 . S
H1788 C1774 0.961 . S
H1789 C1775 0.958 . S
H1790 C1775 0.961 . S
H1791 C1775 0.960 . S
C1792 C1793 1.391 . S
C1792 C1794 1.394 . S
C1792 H1808 0.931 . S
C1793 C1792 1.391 . S
C1793 C1797 1.376 1_565 S
C1794 C1792 1.394 . S
C1794 C1795 1.369 1_565 S
C1794 C1798 1.531 . S
C1795 C1794 1.369 1_545 S
C1795 C1796 1.410 . S
C1795 C1803 1.503 . S
C1796 C1795 1.410 . S
C1796 C1797 1.392 . S
C1796 C1799 1.511 . S
C1797 C1793 1.376 1_545 S
C1797 C1796 1.392 . S
C1797 H1809 0.929 . S
C1798 C1794 1.531 . S
C1798 H1810 0.960 . S
C1798 H1811 0.962 . S
C1798 H1812 0.960 . S
C1799 C1796 1.511 . S
C1799 H1813 0.961 . S
C1799 H1814 0.961 . S
C1799 H1815 0.961 . S
C1800 C1801 1.370 . S
C1800 C1802 1.363 . S
C1800 H1816 0.931 . S
C1801 C1800 1.370 . S
C1801 C1805 1.408 . S
C1802 C1800 1.363 . S
C1802 C1803 1.370 . S
C1802 C1806 1.524 . S
C1803 C1795 1.503 . S
C1803 C1802 1.370 . S
C1803 C1804 1.403 . S
C1804 C1803 1.403 . S
C1804 C1805 1.404 . S
C1804 C1807 1.539 . S
C1805 C1801 1.408 . S
C1805 C1804 1.404 . S
C1805 H1817 0.930 . S
C1806 C1802 1.524 . S
C1806 H1818 0.956 . S
C1806 H1819 0.961 . S
C1806 H1820 0.961 . S
C1807 C1804 1.539 . S
C1807 H1821 0.958 1_545 S
C1807 H1822 0.961 . S
C1807 H1823 0.960 . S
H1808 C1792 0.931 . S
H1809 C1797 0.929 . S
H1810 C1798 0.960 . S
H1811 C1798 0.962 . S
H1812 C1798 0.960 . S
H1813 C1799 0.961 . S
H1814 C1799 0.961 . S
H1815 C1799 0.961 . S
H1816 C1800 0.931 . S
H1817 C1805 0.930 . S
H1818 C1806 0.956 . S
H1819 C1806 0.961 . S
H1820 C1806 0.961 . S
H1821 C1807 0.958 1_565 S
H1822 C1807 0.961 . S
H1823 C1807 0.960 . S
C1824 C1825 1.391 . S
C1824 C1826 1.394 . S
C1824 H1840 0.931 . S
C1825 C1824 1.391 . S
C1825 C1829 1.376 . S
C1826 C1824 1.394 . S
C1826 C1827 1.369 . S
C1826 C1830 1.531 . S
C1827 C1826 1.369 . S
C1827 C1828 1.410 . S
C1827 C1835 1.503 . S
C1828 C1827 1.410 . S
C1828 C1829 1.392 . S
C1828 C1831 1.511 . S
C1829 C1825 1.376 . S
C1829 C1828 1.392 . S
C1829 H1841 0.929 . S
C1830 C1826 1.531 . S
C1830 H1842 0.960 . S
C1830 H1843 0.962 . S
C1830 H1844 0.960 . S
C1831 C1828 1.511 . S
C1831 H1845 0.961 . S
C1831 H1846 0.961 . S
C1831 H1847 0.961 . S
C1832 C1833 1.370 . S
C1832 C1834 1.363 . S
C1832 H1848 0.931 . S
C1833 C1832 1.370 . S
C1833 C1837 1.408 . S
C1834 C1832 1.363 . S
C1834 C1835 1.370 . S
C1834 C1838 1.524 . S
C1835 C1827 1.503 . S
C1835 C1834 1.370 . S
C1835 C1836 1.403 . S
C1836 C1835 1.403 . S
C1836 C1837 1.404 . S
C1836 C1839 1.539 . S
C1837 C1833 1.408 . S
C1837 C1836 1.404 . S
C1837 H1849 0.930 . S
C1838 C1834 1.524 . S
C1838 H1850 0.956 . S
C1838 H1851 0.961 . S
C1838 H1852 0.961 . S
C1839 C1836 1.539 . S
C1839 H1853 0.958 . S
C1839 H1854 0.961 . S
C1839 H1855 0.960 . S
H1840 C1824 0.931 . S
H1841 C1829 0.929 . S
H1842 C1830 0.960 . S
H1843 C1830 0.962 . S
H1844 C1830 0.960 . S
H1845 C1831 0.961 . S
H1846 C1831 0.961 . S
H1847 C1831 0.961 . S
H1848 C1832 0.931 . S
H1849 C1837 0.930 . S
H1850 C1838 0.956 . S
H1851 C1838 0.961 . S
H1852 C1838 0.961 . S
H1853 C1839 0.958 . S
H1854 C1839 0.961 . S
H1855 C1839 0.960 . S
C1856 C1857 1.391 . S
C1856 C1858 1.394 . S
C1856 H1872 0.931 . S
C1857 C1856 1.391 . S
C1857 C1861 1.376 . S
C1858 C1856 1.394 . S
C1858 C1859 1.369 . S
C1858 C1862 1.531 . S
C1859 C1858 1.369 . S
C1859 C1860 1.410 . S
C1859 C1867 1.503 . S
C1860 C1859 1.410 . S
C1860 C1861 1.392 . S
C1860 C1863 1.511 1_565 S
C1861 C1857 1.376 . S
C1861 C1860 1.392 . S
C1861 H1873 0.929 . S
C1862 C1858 1.531 . S
C1862 H1874 0.960 . S
C1862 H1875 0.962 . S
C1862 H1876 0.960 . S
C1863 C1860 1.511 1_545 S
C1863 H1877 0.961 1_545 S
C1863 H1878 0.961 . S
C1863 H1879 0.961 . S
C1864 C1865 1.343 1_565 S
C1864 C1866 1.377 . S
C1864 H1880 0.945 . S
C1865 C1864 1.343 1_545 S
C1865 C1869 1.408 . S
C1866 C1864 1.377 . S
C1866 C1867 1.370 . S
C1866 C1870 1.524 . S
C1867 C1859 1.503 . S
C1867 C1866 1.370 . S
C1867 C1868 1.403 1_565 S
C1868 C1867 1.403 1_545 S
C1868 C1869 1.404 . S
C1868 C1871 1.539 . S
C1869 C1865 1.408 . S
C1869 C1868 1.404 . S
C1869 H1881 0.930 . S
C1870 C1866 1.524 . S
C1870 H1882 0.956 . S
C1870 H1883 0.961 . S
C1870 H1884 0.961 . S
C1871 C1868 1.539 . S
C1871 H1885 0.958 . S
C1871 H1886 0.961 . S
C1871 H1887 0.960 . S
H1872 C1856 0.931 . S
H1873 C1861 0.929 . S
H1874 C1862 0.960 . S
H1875 C1862 0.962 . S
H1876 C1862 0.960 . S
H1877 C1863 0.961 1_565 S
H1878 C1863 0.961 . S
H1879 C1863 0.961 . S
H1880 C1864 0.945 . S
H1881 C1869 0.930 . S
H1882 C1870 0.956 . S
H1883 C1870 0.961 . S
H1884 C1870 0.961 . S
H1885 C1871 0.958 . S
H1886 C1871 0.961 . S
H1887 C1871 0.960 . S
C353 C7 1.060 . S
C361 C271 1.001 . S
C385 C125 1.047 . S
C393 C29 1.004 . S
C417 C65 1.025 . S
C425 C323 1.019 . S
C449 C73 0.974 . S
C457 C175 1.038 . S
C481 C95 0.973 . S
C489 C183 1.037 . S
C513 C227 1.018 . S
C521 C147 1.016 . S
C545 C307 0.986 . S
C553 C219 1.029 . S
C577 C249 1.057 . S
C585 C337 1.004 . S
C609 C213 1.556 . S
C617 C10 1.539 . S
C641 C32 1.521 . S
C649 C241 1.568 . S
C673 C62 1.549 . S
C681 C263 1.573 . S
C705 C197 1.559 . S
C713 C76 1.538 . S
C737 C301 1.550 . S
C745 C98 1.543 . S
C769 C315 1.564 . S
C777 C118 1.539 . S
C801 C140 1.535 . S
C809 C351 1.571 . S
C833 C285 1.553 . S
C841 C172 1.549 . S
C865 C186 1.536 . S
C873 C43 1.562 . S
C897 C216 1.523 . S
C905 C59 1.564 . S
C929 C230 1.555 . S
C937 C87 1.563 . S
C961 C21 1.576 . S
C969 C252 1.546 . S
C993 C117 1.576 . S
C1001 C274 1.550 . S
C1025 C304 1.564 . S
C1033 C139 1.568 . S
C1057 C169 1.552 . S
C1065 C316 1.540 . S
C1089 C340 1.522 . S
C1097 C109 1.563 . S
C1121 C8 0.826 . S
C1129 C228 0.822 . S
C1153 C30 0.727 . S
C1161 C250 0.798 . S
C1185 C184 0.725 . S
C1193 C54 0.789 . S
C1217 C74 0.812 . S
C1225 C208 0.824 . S
C1249 C96 0.769 . S
C1257 C326 0.772 . S
C1281 C128 0.757 . S
C1289 C338 0.821 . S
C1313 C272 0.818 . S
C1321 C150 0.767 . S
C1345 C164 0.845 . S
C1353 C296 0.772 . S
C1377 C18 1.501 . S
C1385 C161 1.539 . S
C1409 C279 1.539 . S
C1417 C40 1.505 . S
C1441 C52 1.478 . S
C1449 C131 1.533 . S
C1473 C84 1.508 . S
C1481 C329 1.545 . S
C1505 C106 1.471 . S
C1513 C81 1.532 . S
C1537 C191 1.550 . S
C1545 C120 1.516 . S
C1569 C142 1.474 . S
C1577 C37 1.533 . S
C1601 C235 1.533 . S
C1609 C162 1.503 . S
C1633 C194 1.510 . S
C1641 C345 1.542 1_565 S
C1665 C103 1.524 . S
C1673 C206 1.497 . S
C1697 C293 1.517 1_545 S
C1705 C238 1.494 . S
C1729 C260 1.532 . S
C1737 C153 1.551 . S
C1761 C282 1.536 . S
C1769 C257 1.551 1_545 S
C1793 C294 1.493 . S
C1801 C15 1.537 . S
C1825 C205 1.556 1_565 S
C1833 C318 1.519 . S
C1857 C51 1.553 . S
C1865 C348 1.517 . S
