# Generated by pormake.
# Topology cds-f, (5)-cn, num edge types: 1
# Building blocks:
#     Node 0, Type 0, BuildingBlock: XOMCOT_clean_sbu_0, # of connection points: 5
#     Node 1, Type 0, BuildingBlock: XOMCOT_clean_sbu_0, # of connection points: 5
#     Node 2, Type 0, BuildingBlock: XOMCOT_clean_sbu_0, # of connection points: 5
#     Node 3, Type 0, BuildingBlock: XOMCOT_clean_sbu_0, # of connection points: 5
#     Node 4, Type 0, BuildingBlock: XOMCOT_clean_sbu_0, # of connection points: 5
#     Node 5, Type 0, BuildingBlock: XOMCOT_clean_sbu_0, # of connection points: 5
#     Node 6, Type 0, BuildingBlock: XOMCOT_clean_sbu_0, # of connection points: 5
#     Node 7, Type 0, BuildingBlock: XOMCOT_clean_sbu_0, # of connection points: 5
#     Node 8, Type 0, BuildingBlock: XOMCOT_clean_sbu_0, # of connection points: 5
#     Node 9, Type 0, BuildingBlock: XOMCOT_clean_sbu_0, # of connection points: 5
#     Node 10, Type 0, BuildingBlock: XOMCOT_clean_sbu_0, # of connection points: 5
#     Node 11, Type 0, BuildingBlock: XOMCOT_clean_sbu_0, # of connection points: 5
#     Node 12, Type 0, BuildingBlock: XOMCOT_clean_sbu_0, # of connection points: 5
#     Node 13, Type 0, BuildingBlock: XOMCOT_clean_sbu_0, # of connection points: 5
#     Node 14, Type 0, BuildingBlock: XOMCOT_clean_sbu_0, # of connection points: 5
#     Node 15, Type 0, BuildingBlock: XOMCOT_clean_sbu_0, # of connection points: 5
#     Edge 16, Type (0, 0), BuildingBlock: MIFKUJ_clean_linker_0, # of connection points: 2
#     Edge 17, Type (0, 0), BuildingBlock: MIFKUJ_clean_linker_0, # of connection points: 2
#     Edge 18, Type (0, 0), BuildingBlock: MIFKUJ_clean_linker_0, # of connection points: 2
#     Edge 19, Type (0, 0), BuildingBlock: MIFKUJ_clean_linker_0, # of connection points: 2
#     Edge 20, Type (0, 0), BuildingBlock: MIFKUJ_clean_linker_0, # of connection points: 2
#     Edge 21, Type (0, 0), BuildingBlock: MIFKUJ_clean_linker_0, # of connection points: 2
#     Edge 22, Type (0, 0), BuildingBlock: MIFKUJ_clean_linker_0, # of connection points: 2
#     Edge 23, Type (0, 0), BuildingBlock: MIFKUJ_clean_linker_0, # of connection points: 2
#     Edge 24, Type (0, 0), BuildingBlock: MIFKUJ_clean_linker_0, # of connection points: 2
#     Edge 25, Type (0, 0), BuildingBlock: MIFKUJ_clean_linker_0, # of connection points: 2
#     Edge 26, Type (0, 0), BuildingBlock: MIFKUJ_clean_linker_0, # of connection points: 2
#     Edge 27, Type (0, 0), BuildingBlock: MIFKUJ_clean_linker_0, # of connection points: 2
#     Edge 28, Type (0, 0), BuildingBlock: MIFKUJ_clean_linker_0, # of connection points: 2
#     Edge 29, Type (0, 0), BuildingBlock: MIFKUJ_clean_linker_0, # of connection points: 2
#     Edge 30, Type (0, 0), BuildingBlock: MIFKUJ_clean_linker_0, # of connection points: 2
#     Edge 31, Type (0, 0), BuildingBlock: MIFKUJ_clean_linker_0, # of connection points: 2
#     Edge 32, Type (0, 0), BuildingBlock: MIFKUJ_clean_linker_0, # of connection points: 2
#     Edge 33, Type (0, 0), BuildingBlock: MIFKUJ_clean_linker_0, # of connection points: 2
#     Edge 34, Type (0, 0), BuildingBlock: MIFKUJ_clean_linker_0, # of connection points: 2
#     Edge 35, Type (0, 0), BuildingBlock: MIFKUJ_clean_linker_0, # of connection points: 2
#     Edge 36, Type (0, 0), BuildingBlock: MIFKUJ_clean_linker_0, # of connection points: 2
#     Edge 37, Type (0, 0), BuildingBlock: MIFKUJ_clean_linker_0, # of connection points: 2
#     Edge 38, Type (0, 0), BuildingBlock: MIFKUJ_clean_linker_0, # of connection points: 2
#     Edge 39, Type (0, 0), BuildingBlock: MIFKUJ_clean_linker_0, # of connection points: 2
#     Edge 40, Type (0, 0), BuildingBlock: MIFKUJ_clean_linker_0, # of connection points: 2
#     Edge 41, Type (0, 0), BuildingBlock: MIFKUJ_clean_linker_0, # of connection points: 2
#     Edge 42, Type (0, 0), BuildingBlock: MIFKUJ_clean_linker_0, # of connection points: 2
#     Edge 43, Type (0, 0), BuildingBlock: MIFKUJ_clean_linker_0, # of connection points: 2
#     Edge 44, Type (0, 0), BuildingBlock: MIFKUJ_clean_linker_0, # of connection points: 2
#     Edge 45, Type (0, 0), BuildingBlock: MIFKUJ_clean_linker_0, # of connection points: 2
#     Edge 46, Type (0, 0), BuildingBlock: MIFKUJ_clean_linker_0, # of connection points: 2
#     Edge 47, Type (0, 0), BuildingBlock: MIFKUJ_clean_linker_0, # of connection points: 2
#     Edge 48, Type (0, 0), BuildingBlock: MIFKUJ_clean_linker_0, # of connection points: 2
#     Edge 49, Type (0, 0), BuildingBlock: MIFKUJ_clean_linker_0, # of connection points: 2
#     Edge 50, Type (0, 0), BuildingBlock: MIFKUJ_clean_linker_0, # of connection points: 2
#     Edge 51, Type (0, 0), BuildingBlock: MIFKUJ_clean_linker_0, # of connection points: 2
#     Edge 52, Type (0, 0), BuildingBlock: MIFKUJ_clean_linker_0, # of connection points: 2
#     Edge 53, Type (0, 0), BuildingBlock: MIFKUJ_clean_linker_0, # of connection points: 2
#     Edge 54, Type (0, 0), BuildingBlock: MIFKUJ_clean_linker_0, # of connection points: 2
#     Edge 55, Type (0, 0), BuildingBlock: MIFKUJ_clean_linker_0, # of connection points: 2
# Relax obj value: 0.288
# Max RMSD: 0.220
# Mean RMSD: 0.216
data_MOF--net-cds-f--node1-XOMCOT_clean_sbu_0--edge1-MIFKUJ_clean_linker_0
_symmetry_space_group_name_H-M    P1
_symmetry_Int_Tables_number       1
_symmetry_cell_setting            triclinic
loop_
_symmetry_equiv_pos_as_xyz
'x, y, z'
_cell_length_a     44.640311
_cell_length_b     44.710271
_cell_length_c     73.860077
_cell_angle_alpha  89.837623
_cell_angle_beta   90.20174
_cell_angle_gamma 92.593459
loop_
_atom_site_label
_atom_site_type_symbol
_atom_site_fract_x
_atom_site_fract_y
_atom_site_fract_z
_atom_type_partial_charge
Co0 Co 0.25286 0.27188 0.11701 0.0
C1 C 0.18451 0.26976 0.11734 0.0
C2 C 0.20364 0.22716 0.11353 0.0
C3 C 0.17302 0.22289 0.11414 0.0
N4 N 0.21111 0.25658 0.11524 0.0
N5 N 0.16083 0.24963 0.11661 0.0
H6 H 0.18223 0.29319 0.11999 0.0
H7 H 0.21958 0.20983 0.11206 0.0
C8 C 0.2466 0.24507 0.08074 0.0
O9 O 0.22165 0.25953 0.07986 0.0
N10 N 0.29441 0.28634 0.11944 0.0
C11 C 0.30299 0.31358 0.12582 0.0
C12 C 0.33371 0.31653 0.12571 0.0
C13 C 0.32024 0.27286 0.11563 0.0
N14 N 0.34474 0.29104 0.11926 0.0
C15 C 0.23004 0.32962 0.10913 0.0
C16 C 0.2651 0.34072 0.07886 0.0
C17 C 0.24919 0.36407 0.08615 0.0
C18 C 0.23079 0.35803 0.10117 0.0
C19 C 0.26367 0.31267 0.08719 0.0
N20 N 0.24616 0.30716 0.10213 0.0
H21 H 0.2187 0.32672 0.1219 0.0
H22 H 0.27882 0.29631 0.08244 0.0
H23 H 0.28784 0.33023 0.13031 0.0
H24 H 0.32104 0.25047 0.11017 0.0
O25 O 0.24457 0.28855 0.14034 0.0
O26 O 0.25891 0.24231 0.13581 0.0
O27 O 0.26318 0.24753 0.09491 0.0
C28 C 0.25117 0.26286 0.14715 0.0
H29 H 0.16076 0.20158 0.11282 0.0
H30 H 0.34691 0.3359 0.1304 0.0
H31 H 0.28003 0.34457 0.06748 0.0
H32 H 0.21907 0.37576 0.10767 0.0
Co33 Co 0.79047 0.25693 0.61562 0.0
C34 C 0.80041 0.32421 0.61583 0.0
C35 C 0.80123 0.30535 0.64251 0.0
C36 C 0.80442 0.33598 0.64393 0.0
N37 N 0.79924 0.2976 0.62487 0.0
N38 N 0.80374 0.34794 0.6272 0.0
H39 H 0.79802 0.32637 0.60131 0.0
H40 H 0.79886 0.29015 0.65384 0.0
C41 C 0.82685 0.23916 0.64688 0.0
O42 O 0.85029 0.24976 0.63783 0.0
N43 N 0.7811 0.21672 0.60649 0.0
C44 C 0.76127 0.21 0.59317 0.0
C45 C 0.75972 0.17951 0.59063 0.0
C46 C 0.79132 0.19005 0.61195 0.0
N47 N 0.77856 0.16682 0.60243 0.0
C48 C 0.73288 0.28182 0.61604 0.0
C49 C 0.70528 0.23739 0.63712 0.0
C50 C 0.68791 0.25971 0.62966 0.0
C51 C 0.70216 0.28245 0.61928 0.0
C52 C 0.73597 0.23767 0.63363 0.0
N53 N 0.74925 0.25951 0.62304 0.0
H54 H 0.74337 0.29867 0.60735 0.0
H55 H 0.74877 0.21957 0.63881 0.0
H56 H 0.74836 0.22617 0.58598 0.0
H57 H 0.80769 0.18768 0.62263 0.0
O58 O 0.78718 0.27236 0.59138 0.0
O59 O 0.82906 0.25651 0.60367 0.0
O60 O 0.80084 0.23969 0.63978 0.0
C61 C 0.81537 0.26698 0.58958 0.0
H62 H 0.80546 0.3486 0.65642 0.0
H63 H 0.7451 0.16757 0.58113 0.0
H64 H 0.69513 0.2195 0.64527 0.0
H65 H 0.6895 0.29983 0.61302 0.0
Co66 Co 0.78677 0.76954 0.12131 0.0
C67 C 0.85514 0.7701 0.12141 0.0
C68 C 0.83691 0.81287 0.1164 0.0
C69 C 0.86763 0.81641 0.11659 0.0
N70 N 0.8288 0.7838 0.11913 0.0
N71 N 0.87922 0.78954 0.11972 0.0
H72 H 0.85705 0.74666 0.12428 0.0
H73 H 0.82134 0.83049 0.11457 0.0
C74 C 0.79371 0.79112 0.08372 0.0
O75 O 0.81856 0.77643 0.08398 0.0
N76 N 0.74496 0.75616 0.12413 0.0
C77 C 0.73597 0.72982 0.13168 0.0
C78 C 0.70524 0.72808 0.1325 0.0
C79 C 0.71933 0.77022 0.12041 0.0
N80 N 0.69462 0.75345 0.12552 0.0
C81 C 0.80848 0.71054 0.11719 0.0
C82 C 0.77543 0.69574 0.08651 0.0
C83 C 0.79079 0.67342 0.09543 0.0
C84 C 0.80791 0.6812 0.11076 0.0
C85 C 0.77628 0.72474 0.09352 0.0
N86 N 0.79308 0.73214 0.10855 0.0
H87 H 0.81942 0.71514 0.12997 0.0
H88 H 0.76143 0.74046 0.0876 0.0
H89 H 0.75085 0.71307 0.13646 0.0
H90 H 0.71882 0.79242 0.11457 0.0
O91 O 0.79469 0.756 0.14549 0.0
O92 O 0.78117 0.80171 0.13853 0.0
O93 O 0.77703 0.79091 0.09783 0.0
C94 C 0.78865 0.7826 0.15095 0.0
H95 H 0.88042 0.8374 0.11502 0.0
H96 H 0.69171 0.70939 0.13782 0.0
H97 H 0.76101 0.69034 0.07504 0.0
H98 H 0.81954 0.66438 0.11827 0.0
Co99 Co 0.25998 0.78045 0.61638 0.0
C100 C 0.25621 0.71212 0.61626 0.0
C101 C 0.21586 0.73212 0.62468 0.0
C102 C 0.21122 0.70151 0.62514 0.0
N103 N 0.24414 0.73903 0.61927 0.0
N104 N 0.23657 0.6888 0.61984 0.0
H105 H 0.27856 0.70924 0.61142 0.0
H106 H 0.19971 0.74839 0.62828 0.0
C107 C 0.25237 0.77111 0.65548 0.0
O108 O 0.2656 0.74593 0.6525 0.0
N109 N 0.27472 0.82168 0.61303 0.0
C110 C 0.29968 0.82989 0.60376 0.0
C111 C 0.30238 0.86055 0.60301 0.0
C112 C 0.26229 0.84767 0.61767 0.0
N113 N 0.27882 0.87194 0.61162 0.0
C114 C 0.31756 0.75466 0.61276 0.0
C115 C 0.34396 0.78324 0.64228 0.0
C116 C 0.36166 0.76603 0.63112 0.0
C117 C 0.34801 0.75145 0.61624 0.0
C118 C 0.31373 0.78608 0.63821 0.0
N119 N 0.30043 0.77099 0.62399 0.0
H120 H 0.30824 0.74538 0.60039 0.0
H121 H 0.30153 0.80184 0.646 0.0
H122 H 0.31478 0.81457 0.59771 0.0
H123 H 0.24125 0.84873 0.62483 0.0
O124 O 0.26416 0.77366 0.59088 0.0
O125 O 0.22314 0.78981 0.60392 0.0
O126 O 0.24788 0.78906 0.64228 0.0
C127 C 0.23686 0.78209 0.58922 0.0
H128 H 0.1908 0.68962 0.6294 0.0
H129 H 0.32051 0.87341 0.59657 0.0
H130 H 0.35354 0.79533 0.65376 0.0
H131 H 0.36104 0.73902 0.60675 0.0
Co132 Co 0.25816 0.78014 0.8795 0.0
C133 C 0.32479 0.7831 0.87641 0.0
C134 C 0.3051 0.82202 0.86519 0.0
C135 C 0.33587 0.82552 0.86381 0.0
N136 N 0.29815 0.79547 0.87309 0.0
N137 N 0.34831 0.80105 0.87085 0.0
H138 H 0.32694 0.76176 0.88312 0.0
H139 H 0.2889 0.8379 0.86092 0.0
C140 C 0.22314 0.77991 0.84492 0.0
O141 O 0.21026 0.75427 0.85003 0.0
N142 N 0.21768 0.76522 0.88646 0.0
C143 C 0.21028 0.7411 0.89683 0.0
C144 C 0.17968 0.73857 0.89875 0.0
C145 C 0.1911 0.77795 0.88312 0.0
N146 N 0.16747 0.76153 0.89 0.0
C147 C 0.27335 0.71883 0.88262 0.0
C148 C 0.27859 0.7069 0.84614 0.0
C149 C 0.28011 0.68331 0.85858 0.0
C150 C 0.27845 0.68982 0.87707 0.0
C151 C 0.27372 0.73583 0.85237 0.0
N152 N 0.26856 0.74096 0.87034 0.0
H153 H 0.27303 0.72326 0.89694 0.0
H154 H 0.27416 0.75389 0.84267 0.0
H155 H 0.22567 0.72648 0.90317 0.0
H156 H 0.18903 0.7983 0.87534 0.0
O157 O 0.27128 0.77563 0.90406 0.0
O158 O 0.25129 0.81639 0.89301 0.0
O159 O 0.24298 0.79311 0.85499 0.0
C160 C 0.26239 0.80246 0.90684 0.0
H161 H 0.34813 0.84458 0.85794 0.0
H162 H 0.16736 0.72131 0.90633 0.0
H163 H 0.28117 0.70303 0.83177 0.0
H164 H 0.28011 0.67248 0.88725 0.0
Co165 Co 0.2637 0.24093 0.37137 0.0
C166 C 0.26019 0.17267 0.37236 0.0
C167 C 0.21748 0.19262 0.37255 0.0
C168 C 0.2128 0.16202 0.37258 0.0
N169 N 0.24719 0.19957 0.37256 0.0
N170 N 0.23965 0.14936 0.37243 0.0
H171 H 0.28393 0.16977 0.37181 0.0
H172 H 0.20026 0.20888 0.37257 0.0
C173 C 0.23519 0.23493 0.40729 0.0
O174 O 0.24727 0.2087 0.40796 0.0
N175 N 0.27939 0.28212 0.36954 0.0
C176 C 0.30769 0.29021 0.3648 0.0
C177 C 0.31069 0.32087 0.36409 0.0
C178 C 0.26535 0.30817 0.37152 0.0
N179 N 0.28409 0.33237 0.36818 0.0
C180 C 0.32034 0.21612 0.37949 0.0
C181 C 0.33177 0.24929 0.41045 0.0
C182 C 0.3546 0.23257 0.40324 0.0
C183 C 0.34837 0.21521 0.38782 0.0
C184 C 0.3039 0.24925 0.40185 0.0
N185 N 0.29823 0.23263 0.38657 0.0
H186 H 0.31744 0.20549 0.36648 0.0
H187 H 0.28798 0.2648 0.40667 0.0
H188 H 0.32503 0.27479 0.36193 0.0
H189 H 0.24186 0.3093 0.3749 0.0
O190 O 0.28098 0.23284 0.34821 0.0
O191 O 0.23506 0.24853 0.3522 0.0
O192 O 0.23914 0.25157 0.39327 0.0
C193 C 0.2559 0.24066 0.34108 0.0
H194 H 0.19118 0.15008 0.37288 0.0
H195 H 0.33116 0.33363 0.36088 0.0
H196 H 0.33596 0.26368 0.42203 0.0
H197 H 0.36578 0.20296 0.38136 0.0
Co198 Co 0.76714 0.26098 0.87146 0.0
C199 C 0.70053 0.25646 0.86895 0.0
C200 C 0.72081 0.22049 0.85503 0.0
C201 C 0.69007 0.2167 0.85353 0.0
N202 N 0.72737 0.24541 0.86468 0.0
N203 N 0.67719 0.23928 0.8623 0.0
H204 H 0.69821 0.27637 0.87702 0.0
H205 H 0.73724 0.20599 0.84953 0.0
C206 C 0.8031 0.26208 0.83747 0.0
O207 O 0.81507 0.28799 0.8428 0.0
N208 N 0.80741 0.27605 0.87879 0.0
C209 C 0.81474 0.29984 0.88938 0.0
C210 C 0.8452 0.30136 0.89229 0.0
C211 C 0.83382 0.26278 0.87606 0.0
N212 N 0.85736 0.27816 0.88385 0.0
C213 C 0.75198 0.32244 0.87391 0.0
C214 C 0.74671 0.33331 0.83723 0.0
C215 C 0.74556 0.35732 0.84931 0.0
C216 C 0.74713 0.35135 0.86791 0.0
C217 C 0.75128 0.30455 0.84391 0.0
N218 N 0.75659 0.29995 0.86195 0.0
H219 H 0.7523 0.31833 0.88828 0.0
H220 H 0.75073 0.28617 0.83447 0.0
H221 H 0.79936 0.31483 0.89527 0.0
H222 H 0.8357 0.24214 0.86861 0.0
O223 O 0.75354 0.26536 0.89595 0.0
O224 O 0.77415 0.22487 0.88515 0.0
O225 O 0.78314 0.24828 0.84717 0.0
C226 C 0.76286 0.23868 0.89887 0.0
H227 H 0.6782 0.19875 0.84631 0.0
H228 H 0.85742 0.31849 0.89999 0.0
H229 H 0.7442 0.33673 0.82279 0.0
H230 H 0.74567 0.36904 0.87782 0.0
Co231 Co 0.7628 0.77413 0.36971 0.0
C232 C 0.76063 0.84053 0.37475 0.0
C233 C 0.79998 0.82213 0.38634 0.0
C234 C 0.80155 0.85257 0.38894 0.0
N235 N 0.77426 0.81444 0.37763 0.0
N236 N 0.77688 0.86427 0.38166 0.0
H237 H 0.73948 0.84208 0.36767 0.0
H238 H 0.81696 0.80676 0.3901 0.0
C239 C 0.77419 0.73852 0.40345 0.0
O240 O 0.74851 0.72358 0.40083 0.0
N241 N 0.75233 0.73317 0.36122 0.0
C242 C 0.73239 0.72557 0.34804 0.0
C243 C 0.73221 0.69529 0.34514 0.0
C244 C 0.76541 0.70704 0.36522 0.0
N245 N 0.75288 0.68335 0.356 0.0
C246 C 0.69894 0.77236 0.37306 0.0
C247 C 0.69625 0.78168 0.40996 0.0
C248 C 0.66988 0.77382 0.40043 0.0
C249 C 0.67133 0.77022 0.38169 0.0
C250 C 0.7237 0.78321 0.40071 0.0
N251 N 0.72492 0.77631 0.38268 0.0
H252 H 0.69921 0.77096 0.35857 0.0
H253 H 0.74397 0.78923 0.40813 0.0
H254 H 0.7195 0.74088 0.34024 0.0
H255 H 0.78428 0.70544 0.37431 0.0
O256 O 0.74994 0.7898 0.34691 0.0
O257 O 0.79607 0.77591 0.3527 0.0
O258 O 0.78357 0.75826 0.39197 0.0
C259 C 0.77697 0.78637 0.34113 0.0
H260 H 0.82007 0.86526 0.39514 0.0
H261 H 0.71779 0.68321 0.33562 0.0
H262 H 0.69575 0.78572 0.42441 0.0
H263 H 0.65117 0.76573 0.37375 0.0
Co264 Co 0.75723 0.76904 0.87277 0.0
C265 C 0.82476 0.77509 0.87821 0.0
C266 C 0.80477 0.81537 0.86945 0.0
C267 C 0.83523 0.82085 0.87081 0.0
N268 N 0.79798 0.78672 0.87405 0.0
N269 N 0.84799 0.79557 0.87631 0.0
H270 H 0.82743 0.75232 0.88254 0.0
H271 H 0.78858 0.83113 0.865 0.0
C272 C 0.73643 0.7954 0.83715 0.0
O273 O 0.71101 0.80342 0.84403 0.0
N274 N 0.71582 0.75194 0.8715 0.0
C275 C 0.70723 0.72264 0.87099 0.0
C276 C 0.6765 0.71962 0.87138 0.0
C277 C 0.68964 0.76621 0.87287 0.0
N278 N 0.6651 0.74703 0.87242 0.0
C279 C 0.78321 0.71214 0.87716 0.0
C280 C 0.77345 0.69176 0.84224 0.0
C281 C 0.78266 0.67171 0.8555 0.0
C282 C 0.78866 0.68252 0.87297 0.0
C283 C 0.76824 0.7213 0.84697 0.0
N284 N 0.77228 0.73105 0.86443 0.0
H285 H 0.78653 0.71937 0.89097 0.0
H286 H 0.75877 0.73517 0.8367 0.0
H287 H 0.72198 0.70419 0.87087 0.0
H288 H 0.68863 0.79017 0.87437 0.0
O289 O 0.75714 0.76115 0.89825 0.0
O290 O 0.74319 0.80357 0.88604 0.0
O291 O 0.75614 0.78361 0.84703 0.0
C292 C 0.74713 0.78758 0.90059 0.0
H293 H 0.84706 0.84175 0.86742 0.0
H294 H 0.66378 0.69848 0.87133 0.0
H295 H 0.76819 0.68419 0.82863 0.0
H296 H 0.79621 0.66781 0.88357 0.0
Co297 Co 0.2693 0.74191 0.37245 0.0
C298 C 0.26499 0.67365 0.3719 0.0
C299 C 0.22258 0.69416 0.37035 0.0
C300 C 0.2175 0.6636 0.37043 0.0
N301 N 0.25231 0.70073 0.37148 0.0
N302 N 0.24412 0.65064 0.37143 0.0
H303 H 0.28868 0.67041 0.37303 0.0
H304 H 0.20558 0.71064 0.36982 0.0
C305 C 0.23834 0.7319 0.40753 0.0
O306 O 0.24942 0.70518 0.40748 0.0
N307 N 0.28543 0.78303 0.37289 0.0
C308 C 0.31417 0.79182 0.36963 0.0
C309 C 0.31689 0.82254 0.37027 0.0
C310 C 0.27085 0.80866 0.37515 0.0
N311 N 0.28971 0.83322 0.37373 0.0
C312 C 0.32584 0.71613 0.37938 0.0
C313 C 0.33585 0.74276 0.4127 0.0
C314 C 0.35952 0.72863 0.40434 0.0
C315 C 0.3539 0.71448 0.38766 0.0
C316 C 0.30827 0.74424 0.40387 0.0
N317 N 0.30332 0.73092 0.38739 0.0
H318 H 0.32303 0.70735 0.36586 0.0
H319 H 0.292 0.75841 0.40973 0.0
H320 H 0.33191 0.77693 0.36665 0.0
H321 H 0.24703 0.80929 0.37771 0.0
O322 O 0.28684 0.7371 0.34894 0.0
O323 O 0.24124 0.75298 0.35376 0.0
O324 O 0.24415 0.75004 0.39444 0.0
C325 C 0.26215 0.74688 0.34226 0.0
H326 H 0.19581 0.65181 0.3697 0.0
H327 H 0.33722 0.83604 0.36783 0.0
H328 H 0.33903 0.75412 0.42554 0.0
H329 H 0.37162 0.70407 0.38034 0.0
Co330 Co 0.26814 0.26661 0.87575 0.0
C331 C 0.2001 0.26263 0.87696 0.0
C332 C 0.21966 0.22322 0.86668 0.0
C333 C 0.18899 0.21921 0.86575 0.0
N334 N 0.22687 0.25049 0.87356 0.0
N335 N 0.1766 0.24398 0.87216 0.0
H336 H 0.19754 0.28472 0.88239 0.0
H337 H 0.2357 0.2073 0.8624 0.0
C338 C 0.28124 0.23763 0.83992 0.0
O339 O 0.29317 0.21435 0.84749 0.0
N340 N 0.30952 0.28208 0.8777 0.0
C341 C 0.31869 0.30689 0.88681 0.0
C342 C 0.34947 0.30974 0.8863 0.0
C343 C 0.33509 0.26987 0.87196 0.0
N344 N 0.35998 0.28652 0.87696 0.0
C345 C 0.24348 0.32331 0.88384 0.0
C346 C 0.25756 0.35077 0.85119 0.0
C347 C 0.24554 0.36772 0.86503 0.0
C348 C 0.23813 0.35362 0.88147 0.0
C349 C 0.26298 0.32071 0.85418 0.0
N350 N 0.25586 0.3071 0.87035 0.0
H351 H 0.23839 0.31311 0.8968 0.0
H352 H 0.27442 0.30933 0.84361 0.0
H353 H 0.30408 0.32157 0.89383 0.0
H354 H 0.33547 0.24914 0.86449 0.0
O355 O 0.26463 0.2672 0.90162 0.0
O356 O 0.28002 0.22861 0.88589 0.0
O357 O 0.27253 0.25921 0.84939 0.0
C358 C 0.27395 0.24017 0.90156 0.0
H359 H 0.17672 0.19946 0.86076 0.0
H360 H 0.36306 0.32716 0.89292 0.0
H361 H 0.2644 0.36108 0.83848 0.0
H362 H 0.22893 0.36608 0.89254 0.0
Co363 Co 0.76028 0.27362 0.37145 0.0
C364 C 0.76419 0.34193 0.36967 0.0
C365 C 0.80675 0.32166 0.37109 0.0
C366 C 0.81167 0.35224 0.37107 0.0
N367 N 0.77698 0.31494 0.37053 0.0
N368 N 0.78495 0.36499 0.37019 0.0
H369 H 0.74045 0.34513 0.36918 0.0
H370 H 0.8238 0.30527 0.37188 0.0
C371 C 0.7876 0.28562 0.40714 0.0
O372 O 0.77343 0.31071 0.40618 0.0
N373 N 0.74442 0.23239 0.37169 0.0
C374 C 0.71639 0.2238 0.36648 0.0
C375 C 0.71383 0.1931 0.36603 0.0
C376 C 0.75869 0.2066 0.37434 0.0
N377 N 0.74038 0.18221 0.37088 0.0
C378 C 0.7033 0.29934 0.37736 0.0
C379 C 0.69165 0.27061 0.40993 0.0
C380 C 0.66856 0.28549 0.40139 0.0
C381 C 0.6749 0.30072 0.38514 0.0
C382 C 0.71959 0.26963 0.40167 0.0
N383 N 0.72542 0.28408 0.38561 0.0
H384 H 0.70658 0.30848 0.36394 0.0
H385 H 0.73556 0.255 0.40754 0.0
H386 H 0.69918 0.23889 0.36267 0.0
H387 H 0.78219 0.20573 0.37788 0.0
O388 O 0.74355 0.2784 0.34768 0.0
O389 O 0.78913 0.26285 0.35317 0.0
O390 O 0.78467 0.26653 0.39425 0.0
C391 C 0.76853 0.26902 0.34134 0.0
H392 H 0.83327 0.36422 0.37161 0.0
H393 H 0.69401 0.17976 0.36216 0.0
H394 H 0.68765 0.25821 0.42238 0.0
H395 H 0.65745 0.3116 0.37773 0.0
Co396 Co 0.75281 0.27368 0.12157 0.0
C397 C 0.68583 0.26753 0.12061 0.0
C398 C 0.70676 0.22769 0.11202 0.0
C399 C 0.67613 0.22281 0.111 0.0
N400 N 0.71287 0.25568 0.11801 0.0
N401 N 0.66284 0.24782 0.1164 0.0
H402 H 0.68309 0.28996 0.1256 0.0
H403 H 0.72347 0.21194 0.10851 0.0
C404 C 0.78414 0.26563 0.08603 0.0
O405 O 0.79904 0.29131 0.08847 0.0
N406 N 0.79343 0.29107 0.12543 0.0
C407 C 0.80165 0.31867 0.13154 0.0
C408 C 0.83239 0.32155 0.13243 0.0
C409 C 0.81964 0.27714 0.1235 0.0
N410 N 0.84382 0.29557 0.12723 0.0
C411 C 0.73458 0.33419 0.12074 0.0
C412 C 0.72868 0.33997 0.08371 0.0
C413 C 0.72717 0.36555 0.09456 0.0
C414 C 0.72895 0.36205 0.11338 0.0
C415 C 0.73419 0.31233 0.09175 0.0
N416 N 0.73975 0.31029 0.10993 0.0
H417 H 0.73612 0.33238 0.13527 0.0
H418 H 0.73406 0.29284 0.08321 0.0
H419 H 0.78682 0.33572 0.13556 0.0
H420 H 0.82094 0.25429 0.11887 0.0
O421 O 0.74293 0.28295 0.14617 0.0
O422 O 0.76293 0.24089 0.13748 0.0
O423 O 0.76497 0.25588 0.0977 0.0
C424 C 0.75327 0.25727 0.1506 0.0
H425 H 0.66461 0.20248 0.10627 0.0
H426 H 0.84534 0.34125 0.13687 0.0
H427 H 0.72598 0.34135 0.06916 0.0
H428 H 0.72753 0.38093 0.12243 0.0
Co429 Co 0.78319 0.75701 0.61333 0.0
C430 C 0.78645 0.82405 0.61483 0.0
C431 C 0.8184 0.80409 0.63242 0.0
C432 C 0.82124 0.83471 0.63426 0.0
N433 N 0.79648 0.79733 0.62037 0.0
N434 N 0.80114 0.84737 0.62326 0.0
H435 H 0.76845 0.82629 0.60514 0.0
H436 H 0.83148 0.78782 0.6394 0.0
C437 C 0.76967 0.72842 0.64901 0.0
O438 O 0.74557 0.71607 0.64133 0.0
N439 N 0.7712 0.71577 0.60595 0.0
C440 C 0.75832 0.70758 0.59004 0.0
C441 C 0.75759 0.677 0.58844 0.0
C442 C 0.77972 0.68946 0.61326 0.0
N443 N 0.77084 0.66533 0.60309 0.0
C444 C 0.72099 0.76295 0.60489 0.0
C445 C 0.70361 0.78219 0.63863 0.0
C446 C 0.68166 0.77398 0.62577 0.0
C447 C 0.69068 0.76558 0.60848 0.0
C448 C 0.73385 0.77898 0.63444 0.0
N449 N 0.74193 0.767 0.61823 0.0
H450 H 0.72744 0.75754 0.59136 0.0
H451 H 0.75066 0.78493 0.64453 0.0
H452 H 0.75196 0.72262 0.57944 0.0
H453 H 0.79285 0.68801 0.62553 0.0
O454 O 0.78471 0.76922 0.58845 0.0
O455 O 0.8226 0.75004 0.60344 0.0
O456 O 0.78867 0.74368 0.63937 0.0
C457 C 0.81194 0.76032 0.58827 0.0
H458 H 0.83727 0.84673 0.6429 0.0
H459 H 0.74939 0.6645 0.57678 0.0
H460 H 0.69744 0.78976 0.65197 0.0
H461 H 0.67436 0.76068 0.59788 0.0
Co462 Co 0.2862 0.76635 0.12536 0.0
C463 C 0.35288 0.77167 0.12205 0.0
C464 C 0.3315 0.81008 0.11141 0.0
C465 C 0.36201 0.8142 0.1091 0.0
N466 N 0.32572 0.78338 0.11942 0.0
N467 N 0.37554 0.79008 0.11576 0.0
H468 H 0.35591 0.75001 0.12819 0.0
H469 H 0.31467 0.82557 0.10756 0.0
C470 C 0.24852 0.77528 0.09219 0.0
O471 O 0.23464 0.74927 0.09537 0.0
N472 N 0.2462 0.74985 0.13176 0.0
C473 C 0.23866 0.72284 0.139 0.0
C474 C 0.20827 0.72088 0.14207 0.0
C475 C 0.22015 0.76436 0.13129 0.0
N476 N 0.19642 0.74691 0.1371 0.0
C477 C 0.30268 0.7053 0.12279 0.0
C478 C 0.30145 0.7009 0.0855 0.0
C479 C 0.30489 0.67508 0.0959 0.0
C480 C 0.30684 0.6777 0.11471 0.0
C481 C 0.29826 0.72834 0.0942 0.0
N482 N 0.29607 0.72975 0.11266 0.0
H483 H 0.30389 0.70659 0.13735 0.0
H484 H 0.29735 0.74818 0.08595 0.0
H485 H 0.25386 0.70558 0.14222 0.0
H486 H 0.21868 0.78718 0.12659 0.0
O487 O 0.30017 0.75611 0.14909 0.0
O488 O 0.27995 0.79896 0.14202 0.0
O489 O 0.26973 0.78498 0.10262 0.0
C490 C 0.29097 0.78176 0.15441 0.0
H491 H 0.37337 0.83377 0.10321 0.0
H492 H 0.19589 0.70136 0.14726 0.0
H493 H 0.30109 0.69983 0.07085 0.0
H494 H 0.31021 0.65829 0.12317 0.0
Co495 Co 0.26534 0.28107 0.61425 0.0
C496 C 0.2617 0.21294 0.61589 0.0
C497 C 0.21988 0.23312 0.62069 0.0
C498 C 0.21561 0.20266 0.62268 0.0
N499 N 0.24877 0.23988 0.61643 0.0
N500 N 0.24187 0.18991 0.61967 0.0
H501 H 0.28512 0.20983 0.61343 0.0
H502 H 0.20292 0.24932 0.62254 0.0
C503 C 0.2365 0.2916 0.65032 0.0
O504 O 0.21135 0.29914 0.64264 0.0
N505 N 0.28099 0.32226 0.61236 0.0
C506 C 0.30623 0.33141 0.60364 0.0
C507 C 0.30901 0.36214 0.60418 0.0
C508 C 0.2684 0.34771 0.61783 0.0
N509 N 0.28527 0.3725 0.61308 0.0
C510 C 0.32096 0.25425 0.60594 0.0
C511 C 0.35128 0.27421 0.6366 0.0
C512 C 0.36699 0.25938 0.62324 0.0
C513 C 0.35141 0.24886 0.60787 0.0
C514 C 0.32097 0.27904 0.63419 0.0
N515 N 0.30593 0.26883 0.61909 0.0
H516 H 0.30953 0.24714 0.59366 0.0
H517 H 0.31039 0.29272 0.64405 0.0
H518 H 0.32127 0.31681 0.59691 0.0
H519 H 0.24728 0.34807 0.62495 0.0
O520 O 0.26567 0.27834 0.58836 0.0
O521 O 0.22718 0.29334 0.60439 0.0
O522 O 0.25899 0.28545 0.64077 0.0
C523 C 0.23883 0.28816 0.58862 0.0
H524 H 0.19469 0.19078 0.62603 0.0
H525 H 0.3267 0.37586 0.5979 0.0
H526 H 0.36258 0.28293 0.64861 0.0
H527 H 0.36291 0.23782 0.59706 0.0
H528 H 0.87053 0.24224 0.13083 0.0
H529 H 0.9244 0.23364 0.12878 0.0
H530 H 0.94236 0.32742 0.11755 0.0
H531 H 0.88888 0.33597 0.11926 0.0
H532 H 0.97487 0.29334 0.09569 0.0
H533 H 0.95444 0.29878 0.15955 0.0
H534 H 0.92847 0.28433 0.18788 0.0
H535 H 0.95787 0.19465 0.18265 0.0
H536 H 0.98368 0.20847 0.15414 0.0
H537 H 0.13267 0.30174 0.1106 0.0
H538 H 0.07886 0.30957 0.11261 0.0
H539 H 0.0628 0.21715 0.12802 0.0
H540 H 0.11635 0.20953 0.12685 0.0
H541 H 0.02895 0.24992 0.14758 0.0
H542 H 0.04943 0.24376 0.08399 0.0
H543 H 0.07491 0.25735 0.05536 0.0
H544 H 0.04499 0.347 0.05957 0.0
H545 H 0.01965 0.33403 0.08836 0.0
C546 C 0.88596 0.26093 0.12779 0.0
C547 C 0.87534 0.28985 0.12541 0.0
C548 C 0.91679 0.25606 0.12674 0.0
C549 C 0.9376 0.27996 0.12322 0.0
C550 C 0.92689 0.30862 0.12036 0.0
C551 C 0.89623 0.31352 0.12151 0.0
C552 C 0.97055 0.27546 0.1227 0.0
C553 C 0.98674 0.28413 0.10712 0.0
C554 C 0.98608 0.26289 0.13743 0.0
C555 C 0.97072 0.25458 0.15461 0.0
C556 C 0.95517 0.27592 0.16437 0.0
C557 C 0.94051 0.26785 0.18047 0.0
C558 C 0.94145 0.23857 0.18703 0.0
C559 C 0.95712 0.21731 0.17753 0.0
C560 C 0.97179 0.22525 0.16141 0.0
C561 C 0.11778 0.28315 0.11462 0.0
C562 C 0.12911 0.25489 0.11836 0.0
C563 C 0.08687 0.28758 0.11558 0.0
C564 C 0.0665 0.26381 0.12016 0.0
C565 C 0.07786 0.23585 0.12434 0.0
C566 C 0.10866 0.23145 0.12347 0.0
C567 C 0.03338 0.26781 0.12054 0.0
C568 C 1.01714 0.25907 0.13611 0.0
C569 C 0.01776 0.28017 0.10575 0.0
C570 C 0.03291 0.28801 0.08843 0.0
C571 C 0.04848 0.26643 0.07888 0.0
C572 C 0.06286 0.27401 0.06261 0.0
C573 C 0.06164 0.30304 0.05568 0.0
C574 C 0.04596 0.32453 0.06497 0.0
C575 C 0.03156 0.31708 0.08126 0.0
H576 H 0.07279 0.30887 0.04308 0.0
H577 H 0.93008 0.23237 0.1995 0.0
H578 H 0.79569 0.13719 0.63284 0.0
H579 H 0.79943 0.08298 0.6366 0.0
H580 H 0.77421 0.06976 0.58068 0.0
H581 H 0.77054 0.12366 0.57686 0.0
H582 H 0.74375 0.03038 0.60137 0.0
H583 H 0.84753 0.06336 0.59576 0.0
H584 H 0.89319 0.09368 0.60369 0.0
H585 H 0.89058 0.05766 0.65765 0.0
H586 H 0.84467 0.02739 0.65009 0.0
H587 H 0.78139 0.87688 0.59347 0.0
H588 H 0.77725 0.93111 0.58988 0.0
H589 H 0.80687 0.94435 0.64504 0.0
H590 H 0.81132 0.8905 0.64857 0.0
H591 H 0.8349 0.98392 0.62488 0.0
H592 H 0.73181 0.95091 0.63101 0.0
H593 H 0.68555 0.92102 0.62379 0.0
H594 H 0.6859 0.95735 0.56991 0.0
H595 H 0.73242 0.98717 0.57674 0.0
C596 C 0.79132 0.1228 0.62129 0.0
C597 C 0.78267 0.13498 0.60456 0.0
C598 C 0.7934 0.09171 0.62345 0.0
C599 C 0.78719 0.07205 0.6089 0.0
C600 C 0.7789 0.08425 0.59218 0.0
C601 C 0.77677 0.11522 0.59002 0.0
C602 C 0.78891 0.03881 0.61104 0.0
C603 C 0.76384 0.02023 0.6063 0.0
C604 C 0.81478 0.02536 0.61789 0.0
C605 C 0.84252 0.04333 0.6224 0.0
C606 C 0.85659 0.06206 0.60935 0.0
C607 C 0.88253 0.07921 0.61377 0.0
C608 C 0.89474 0.07765 0.63118 0.0
C609 C 0.88108 0.05887 0.64418 0.0
C610 C 0.85512 0.04168 0.63983 0.0
C611 C 0.7867 0.89133 0.60488 0.0
C612 C 0.79685 0.8792 0.62128 0.0
C613 C 0.78433 0.92242 0.60283 0.0
C614 C 0.79159 0.94211 0.61723 0.0
C615 C 0.80132 0.9299 0.63366 0.0
C616 C 0.8039 0.89896 0.63565 0.0
C617 C 0.78972 0.97539 0.6152 0.0
C618 C 0.81477 0.99401 0.61995 0.0
C619 C 0.76377 0.98888 0.60846 0.0
C620 C 0.73577 0.97103 0.60433 0.0
C621 C 0.72215 0.95235 0.61758 0.0
C622 C 0.69586 0.93545 0.61357 0.0
C623 C 0.68284 0.93722 0.59639 0.0
C624 C 0.69604 0.95597 0.5832 0.0
C625 C 0.72236 0.97289 0.58714 0.0
H626 H 0.66249 0.92412 0.59331 0.0
H627 H 0.91482 0.09096 0.63458 0.0
H628 H 0.90494 0.74537 0.13914 0.0
H629 H 0.95869 0.7374 0.14254 0.0
H630 H 0.97908 0.81292 0.10756 0.0
H631 H 0.92568 0.82041 0.10372 0.0
H632 H 1.01377 0.76845 0.0993 0.0
H633 H 0.98562 0.81729 0.15453 0.0
H634 H 0.95714 0.82336 0.18275 0.0
H635 H 0.98708 0.73932 0.20246 0.0
H636 H 1.01544 0.73256 0.17426 0.0
H637 H 0.16901 0.78957 0.11727 0.0
H638 H 0.11534 0.79743 0.11522 0.0
H639 H 0.09771 0.72563 0.15337 0.0
H640 H 0.15129 0.71889 0.15635 0.0
H641 H 0.06126 0.76699 0.16008 0.0
H642 H 0.08921 0.71742 0.10552 0.0
H643 H 0.11879 0.71082 0.07779 0.0
H644 H 0.08915 0.7942 0.05687 0.0
H645 H 0.05968 0.80149 0.08459 0.0
C646 C 0.92084 0.76007 0.13202 0.0
C647 C 0.91083 0.7837 0.12126 0.0
C648 C 0.95165 0.75568 0.13411 0.0
C649 C 0.97314 0.77483 0.12552 0.0
C650 C 0.96311 0.79791 0.11443 0.0
C651 C 0.93244 0.80232 0.11236 0.0
C652 C 1.00607 0.77113 0.12801 0.0
C653 C 0.02415 0.76845 0.11261 0.0
C654 C 0.01975 0.77038 0.14535 0.0
C655 C 1.00243 0.77429 0.16221 0.0
C656 C 0.98592 0.79998 0.16481 0.0
C657 C 0.96986 0.80358 0.18082 0.0
C658 C 0.97033 0.78175 0.19438 0.0
C659 C 0.98676 0.75622 0.19194 0.0
C660 C 1.00285 0.7525 0.17596 0.0
C661 C 0.15386 0.77575 0.12549 0.0
C662 C 0.1648 0.75327 0.13681 0.0
C663 C 0.12298 0.78002 0.12411 0.0
C664 C 0.10215 0.76161 0.13377 0.0
C665 C 0.1131 0.73998 0.1456 0.0
C666 C 0.14393 0.73594 0.14715 0.0
C667 C 0.06902 0.76441 0.13137 0.0
C668 C 0.05089 0.7669 0.14678 0.0
C669 C 0.05523 0.76473 0.11404 0.0
C670 C 0.07246 0.76013 0.0972 0.0
C671 C 0.08911 0.73441 0.09504 0.0
C672 C 0.10586 0.73055 0.07933 0.0
C673 C 0.10592 0.75212 0.0656 0.0
C674 C 0.08911 0.77754 0.06753 0.0
C675 C 0.07236 0.78153 0.08323 0.0
H676 H 0.11894 0.74912 0.05346 0.0
H677 H 0.95803 0.78465 0.20681 0.0
H678 H 0.24528 0.89908 0.6372 0.0
H679 H 0.23821 0.95302 0.64038 0.0
H680 H 0.29235 0.97039 0.59296 0.0
H681 H 0.29896 0.9171 0.5895 0.0
H682 H 0.30927 1.00785 0.62035 0.0
H683 H 0.2167 0.97402 0.59126 0.0
H684 H 0.16969 0.94319 0.58851 0.0
H685 H 0.13881 0.9782 0.63885 0.0
H686 H 0.18584 1.00896 0.64201 0.0
H687 H 0.27989 0.15893 0.59902 0.0
H688 H 0.28585 0.1047 0.59916 0.0
H689 H 0.22191 0.09489 0.64269 0.0
H690 H 0.21539 0.14888 0.6422 0.0
H691 H 0.20988 0.05305 0.61968 0.0
H692 H 0.30048 0.08853 0.64864 0.0
H693 H 0.34737 0.11932 0.65214 0.0
H694 H 0.38228 0.08106 0.60377 0.0
H695 H 0.33542 0.05032 0.59983 0.0
C696 C 0.25539 0.91435 0.62735 0.0
C697 C 0.273 0.90351 0.61322 0.0
C698 C 0.25142 0.94524 0.62921 0.0
C699 C 0.26488 0.96591 0.61694 0.0
C700 C 0.28202 0.95505 0.60273 0.0
C701 C 0.28587 0.92438 0.60083 0.0
C702 C 0.26154 0.9989 0.61876 0.0
C703 C 0.28753 0.01775 0.62006 0.0
C704 C 0.23321 1.01191 0.61889 0.0
C705 C 0.20492 0.99352 0.61697 0.0
C706 C 0.19999 0.97495 0.60181 0.0
C707 C 0.17332 0.95753 0.60017 0.0
C708 C 0.15131 0.95866 0.61352 0.0
C709 C 0.1559 0.9773 0.62853 0.0
C710 C 0.18254 0.99475 0.63025 0.0
C711 C 0.26739 0.14521 0.60874 0.0
C712 C 0.24712 0.15823 0.62055 0.0
C713 C 0.27082 0.11415 0.60885 0.0
C714 C 0.25456 0.09544 0.62107 0.0
C715 C 0.23463 0.10859 0.63305 0.0
C716 C 0.23092 0.13953 0.63277 0.0
C717 C 0.25768 0.06218 0.6211 0.0
C718 C 0.23165 0.04324 0.62014 0.0
C719 C 0.286 0.04905 0.62145 0.0
C720 C 0.31433 0.06731 0.62386 0.0
C721 C 0.31808 0.08682 0.63868 0.0
C722 C 0.34466 0.10425 0.64076 0.0
C723 C 0.36776 0.1022 0.62816 0.0
C724 C 0.36436 0.08265 0.6135 0.0
C725 C 0.33781 0.06519 0.61135 0.0
H726 H 0.38831 0.11573 0.62978 0.0
H727 H 0.13068 0.94516 0.61222 0.0
H728 H 0.87767 0.74339 0.87539 0.0
H729 H 0.93188 0.73776 0.87786 0.0
H730 H 0.94546 0.8331 0.88475 0.0
H731 H 0.89158 0.83888 0.88265 0.0
H732 H 0.98489 0.8122 0.86042 0.0
H733 H 0.9512 0.78554 0.92049 0.0
H734 H 0.92057 0.75713 0.94295 0.0
H735 H 0.9565 0.67509 0.92459 0.0
H736 H 0.98706 0.703 0.90185 0.0
H737 H 0.1394 0.81428 0.88743 0.0
H738 H 0.08515 0.82082 0.88527 0.0
H739 H 0.06941 0.72488 0.88509 0.0
H740 H 0.12317 0.71844 0.88768 0.0
H741 H 0.03069 0.74659 0.90605 0.0
H742 H 0.06373 0.77137 0.84595 0.0
H743 H 0.0941 0.79833 0.82275 0.0
H744 H 0.05916 0.88162 0.83973 0.0
H745 H 0.02891 0.8552 0.86322 0.0
C746 C 0.89207 0.76314 0.87767 0.0
C747 C 0.87992 0.79163 0.8787 0.0
C748 C 0.92319 0.75989 0.87901 0.0
C749 C 0.94294 0.78502 0.88149 0.0
C750 C 0.93085 0.81337 0.88269 0.0
C751 C 0.89986 0.81663 0.88143 0.0
C752 C 0.97617 0.78199 0.88273 0.0
C753 C 0.99493 0.79811 0.87054 0.0
C754 C 0.98941 0.7631 0.89562 0.0
C755 C 0.97119 0.74633 0.90935 0.0
C756 C 0.9524 0.76142 0.92115 0.0
C757 C 0.93508 0.74541 0.93395 0.0
C758 C 0.93653 0.71432 0.93516 0.0
C759 C 0.95537 0.69918 0.92362 0.0
C760 C 0.97271 0.71508 0.91079 0.0
C761 C 0.12433 0.79466 0.88679 0.0
C762 C 0.13568 0.76586 0.88785 0.0
C763 C 0.09325 0.79836 0.88553 0.0
C764 C 0.07286 0.77333 0.88488 0.0
C765 C 0.08437 0.74462 0.8857 0.0
C766 C 0.11524 0.74095 0.8872 0.0
C767 C 0.03959 0.7767 0.88365 0.0
C768 C 0.02077 0.76067 0.89588 0.0
C769 C 0.02628 0.79542 0.87065 0.0
C770 C 0.0443 0.81134 0.85646 0.0
C771 C 0.06269 0.79546 0.84482 0.0
C772 C 0.07986 0.81064 0.83161 0.0
C773 C 0.07862 0.84167 0.8298 0.0
C774 C 0.06014 0.85758 0.84117 0.0
C775 C 0.04296 0.84252 0.85443 0.0
H776 H 0.09193 0.85339 0.81957 0.0
H777 H 0.9231 0.70196 0.94508 0.0
H778 H 0.23788 0.85893 0.36402 0.0
H779 H 0.22824 0.9126 0.36411 0.0
H780 H 0.31682 0.93212 0.38571 0.0
H781 H 0.3263 0.87874 0.38588 0.0
H782 H 0.27653 0.96511 0.40251 0.0
H783 H 0.30344 0.94605 0.34069 0.0
H784 H 0.30046 0.92032 0.31122 0.0
H785 H 0.20772 0.94079 0.30621 0.0
H786 H 0.21032 0.96706 0.3356 0.0
H787 H 0.28941 0.12165 0.38413 0.0
H788 H 0.29727 0.06784 0.38452 0.0
H789 H 0.20939 0.05068 0.36138 0.0
H790 H 0.20181 0.10431 0.36034 0.0
H791 H 0.24825 0.01615 0.34564 0.0
H792 H 0.22398 0.03981 0.40719 0.0
H793 H 0.22954 0.06699 0.4361 0.0
H794 H 0.31932 0.03754 0.44183 0.0
H795 H 0.31443 1.0105 0.41282 0.0
C796 C 0.25512 0.87465 0.36898 0.0
C797 C 0.28292 0.86452 0.37484 0.0
C798 C 0.24972 0.90537 0.36887 0.0
C799 C 0.27195 0.92657 0.37472 0.0
C800 C 0.29934 0.91634 0.38107 0.0
C801 C 0.30481 0.88577 0.38105 0.0
C802 C 0.26695 0.9594 0.3741 0.0
C803 C 0.27062 0.97631 0.39003 0.0
C804 C 0.25879 0.9741 0.35794 0.0
C805 C 0.25699 0.95819 0.34039 0.0
C806 C 0.28237 0.94489 0.33334 0.0
C807 C 0.28077 0.9303 0.31664 0.0
C808 C 0.25385 0.92869 0.30691 0.0
C809 C 0.22854 0.94197 0.31379 0.0
C810 C 0.2301 0.95684 0.33042 0.0
C811 C 0.27186 0.10651 0.37894 0.0
C812 C 0.24486 0.11755 0.37232 0.0
C813 C 0.27626 0.07562 0.37935 0.0
C814 C 0.25373 0.05499 0.37325 0.0
C815 C 0.22707 0.06599 0.36628 0.0
C816 C 0.22267 0.0968 0.36585 0.0
C817 C 0.25783 0.02197 0.37407 0.0
C818 C 0.25399 1.00499 0.35816 0.0
C819 C 0.266 1.00726 0.39026 0.0
C820 C 0.26893 0.02337 0.40775 0.0
C821 C 0.24498 0.03931 0.41455 0.0
C822 C 0.248 0.05466 0.43097 0.0
C823 C 0.27479 0.05405 0.44077 0.0
C824 C 0.29859 0.03802 0.43421 0.0
C825 C 0.2957 0.02266 0.41779 0.0
H826 H 0.27709 0.06595 0.45348 0.0
H827 H 0.25264 0.91725 0.29401 0.0
H828 H 0.88681 0.24917 0.85732 0.0
H829 H 0.94101 0.24293 0.85518 0.0
H830 H 0.95416 0.28801 0.90631 0.0
H831 H 0.90031 0.29413 0.90856 0.0
H832 H 0.99402 0.30959 0.88231 0.0
H833 H 0.95935 0.21123 0.90203 0.0
H834 H 0.92863 0.16407 0.90031 0.0
H835 H 0.96583 0.14571 0.84819 0.0
H836 H 0.99651 0.19298 0.8495 0.0
H837 H 0.1473 0.27585 0.89735 0.0
H838 H 0.09299 0.28151 0.89953 0.0
H839 H 0.07966 0.22972 0.85072 0.0
H840 H 0.13358 0.22345 0.84885 0.0
H841 H 0.03958 0.21166 0.87337 0.0
H842 H 0.07395 0.30923 0.85303 0.0
H843 H 0.10444 0.3566 0.85392 0.0
H844 H 0.0676 0.37702 0.90583 0.0
H845 H 0.03717 0.32955 0.90535 0.0
C846 C 0.90118 0.25734 0.86824 0.0
C847 C 0.88904 0.27227 0.88308 0.0
C848 C 0.93225 0.25384 0.86698 0.0
C849 C 0.95188 0.26496 0.88061 0.0
C850 C 0.93968 0.27943 0.89553 0.0
C851 C 0.90875 0.28295 0.89679 0.0
C852 C 0.98512 0.26213 0.87928 0.0
C853 C 1.00398 0.28811 0.88057 0.0
C854 C 0.9983 0.23427 0.87655 0.0
C855 C 0.98 0.20578 0.87579 0.0
C856 C 0.96082 0.19724 0.89015 0.0
C857 C 0.94344 0.17047 0.88926 0.0
C858 C 0.94522 0.15194 0.87413 0.0
C859 C 0.96445 0.16011 0.85989 0.0
C860 C 0.98186 0.18687 0.8607 0.0
C861 C 0.13276 0.26595 0.88702 0.0
C862 C 0.14482 0.24911 0.87298 0.0
C863 C 0.10165 0.26921 0.88824 0.0
C864 C 0.08192 0.25626 0.8752 0.0
C865 C 0.09412 0.23981 0.86105 0.0
C866 C 0.12506 0.23623 0.85998 0.0
C867 C 0.04861 0.25917 0.87638 0.0
C868 C 0.0297 0.23319 0.87508 0.0
C869 C 0.03537 0.28708 0.87895 0.0
C870 C 0.05351 0.3157 0.87923 0.0
C871 C 0.07251 0.32372 0.86469 0.0
C872 C 0.08976 0.3506 0.86511 0.0
C873 C 0.08802 0.36977 0.87995 0.0
C874 C 0.06896 0.36213 0.89436 0.0
C875 C 0.05169 0.33525 0.89402 0.0
H876 H 0.1014 0.39056 0.88025 0.0
H877 H 0.93174 0.13123 0.87346 0.0
H878 H 0.7751 0.15349 0.39506 0.0
H879 H 0.78184 0.09929 0.39691 0.0
H880 H 0.72796 0.08616 0.3487 0.0
H881 H 0.72056 0.13985 0.34725 0.0
H882 H 0.71058 0.04642 0.37164 0.0
H883 H 0.80776 0.08034 0.35022 0.0
H884 H 0.85546 0.11041 0.35064 0.0
H885 H 0.87751 0.07304 0.40236 0.0
H886 H 0.82975 0.04301 0.40235 0.0
H887 H 0.74601 0.89354 0.35565 0.0
H888 H 0.73995 0.94773 0.35338 0.0
H889 H 0.78833 0.96074 0.4036 0.0
H890 H 0.79447 0.90694 0.40585 0.0
H891 H 0.80869 1.00026 0.37945 0.0
H892 H 0.71072 0.96621 0.40036 0.0
H893 H 0.66322 0.93586 0.39918 0.0
H894 H 0.64309 0.97338 0.34719 0.0
H895 H 0.69067 1.00368 0.34796 0.0
C896 C 0.76509 0.13898 0.38477 0.0
C897 C 0.74719 0.1509 0.37108 0.0
C898 C 0.76893 0.10797 0.38579 0.0
C899 C 0.75552 0.08835 0.37288 0.0
C900 C 0.73836 0.10053 0.35894 0.0
C901 C 0.73417 0.13131 0.35809 0.0
C902 C 0.75833 0.0551 0.37408 0.0
C903 C 0.73214 0.0364 0.37309 0.0
C904 C 0.78628 0.04171 0.37635 0.0
C905 C 0.81505 0.05966 0.37636 0.0
C906 C 0.82269 0.07869 0.36174 0.0
C907 C 0.84975 0.0957 0.3619 0.0
C908 C 0.86946 0.0937 0.37654 0.0
C909 C 0.8622 0.07461 0.39104 0.0
C910 C 0.83515 0.05757 0.39096 0.0
C911 C 0.75495 0.90792 0.36632 0.0
C912 C 0.77086 0.89582 0.38088 0.0
C913 C 0.75155 0.93896 0.365 0.0
C914 C 0.76365 0.95852 0.37835 0.0
C915 C 0.779 0.94632 0.39304 0.0
C916 C 0.7825 0.91545 0.39431 0.0
C917 C 0.76098 0.99171 0.37697 0.0
C918 C 0.78717 1.01035 0.37795 0.0
C919 C 0.73307 1.00505 0.37456 0.0
C920 C 0.70438 0.98699 0.37414 0.0
C921 C 0.69626 0.96783 0.38862 0.0
C922 C 0.66931 0.95066 0.38803 0.0
C923 C 0.65019 0.95263 0.3731 0.0
C924 C 0.65794 0.97184 0.35874 0.0
C925 C 0.68488 0.98904 0.35925 0.0
H926 H 0.62934 0.93932 0.37267 0.0
H927 H 0.8904 0.10689 0.37664 0.0
H928 H 0.30375 0.3914 0.07957 0.0
H929 H 0.31522 0.44467 0.07462 0.0
H930 H 0.22086 0.4613 0.07482 0.0
H931 H 0.20907 0.4077 0.07983 0.0
H932 H 0.26165 0.49697 0.04783 0.0
H933 H 0.24854 0.47051 0.1116 0.0
H934 H 0.25876 0.43951 0.1384 0.0
H935 H 0.35275 0.46343 0.13429 0.0
H936 H 0.3431 0.49417 0.10725 0.0
H937 H 0.25983 0.64892 0.07609 0.0
H938 H 0.25338 0.59595 0.06825 0.0
H939 H 0.34185 0.58072 0.08925 0.0
H940 H 0.34747 0.63348 0.09801 0.0
H941 H 0.30598 0.54295 0.10342 0.0
H942 H 0.32075 0.57358 0.04221 0.0
H943 H 0.31334 0.60297 0.01439 0.0
H944 H 0.22125 0.57107 0.01193 0.0
H945 H 0.22797 0.54179 0.03988 0.0
C946 C 0.28535 0.40618 0.07799 0.0
C947 C 0.25547 0.39538 0.0801 0.0
C948 C 0.29198 0.43662 0.0752 0.0
C949 C 0.26888 0.45679 0.07438 0.0
C950 C 0.23894 0.44595 0.07531 0.0
C951 C 0.23227 0.41545 0.07831 0.0
C952 C 0.27627 0.48931 0.07515 0.0
C953 C 0.2711 0.50727 0.05997 0.0
C954 C 0.28942 0.50231 0.09084 0.0
C955 C 0.29514 0.48435 0.10731 0.0
C956 C 0.27141 0.46895 0.11633 0.0
C957 C 0.27709 0.45146 0.13157 0.0
C958 C 0.3064 0.44943 0.13802 0.0
C959 C 0.33007 0.46498 0.12927 0.0
C960 C 0.3245 0.48245 0.11399 0.0
C961 C 0.27817 0.63434 0.07854 0.0
C962 C 0.30415 0.64508 0.08759 0.0
C963 C 0.27455 0.60406 0.074 0.0
C964 C 0.29719 0.58419 0.07804 0.0
C965 C 0.32399 0.5955 0.08605 0.0
C966 C 0.3273 0.62562 0.09096 0.0
C967 C 0.29154 0.5513 0.076 0.0
C968 C 0.29688 0.53303 0.09107 0.0
C969 C 0.27897 0.53811 0.06008 0.0
C970 C 0.27481 0.55567 0.04324 0.0
C971 C 0.29885 0.573 0.03582 0.0
C972 C 0.29479 0.58962 0.02 0.0
C973 C 0.26683 0.58894 0.01142 0.0
C974 C 0.24289 0.57159 0.0186 0.0
C975 C 0.24682 0.55494 0.03442 0.0
H976 H 0.26373 0.60182 -0.00082 0.0
H977 H 0.31076 0.43588 0.14982 0.0
H978 H 0.40765 0.30344 0.63315 0.0
H979 H 0.46202 0.30082 0.63524 0.0
H980 H 0.45539 0.20845 0.6184 0.0
H981 H 0.40055 0.21078 0.61652 0.0
H982 H 0.49505 0.21968 0.64798 0.0
H983 H 0.47668 0.25796 0.58842 0.0
H984 H 0.45467 0.29162 0.566 0.0
H985 H 0.5002 0.36741 0.59111 0.0
H986 H 0.52214 0.33424 0.61385 0.0
H987 H 0.64994 0.21048 0.62631 0.0
H988 H 0.5952 0.20858 0.6268 0.0
H989 H 0.59637 0.3035 0.63736 0.0
H990 H 0.65124 0.30558 0.63681 0.0
H991 H 0.55898 0.28901 0.61049 0.0
H992 H 0.57685 0.25177 0.67027 0.0
H993 H 0.5984 0.2189 0.69329 0.0
H994 H 0.55386 0.14217 0.66861 0.0
H995 H 0.53236 0.17455 0.64527 0.0
C996 C 0.4177 0.28244 0.6301 0.0
C997 C 0.3999 0.25726 0.62474 0.0
C998 C 0.44875 0.28106 0.63117 0.0
C999 C 0.46264 0.25452 0.62684 0.0
C1000 C 0.44499 0.22913 0.62177 0.0
C1001 C 0.4138 0.23054 0.62059 0.0
C1002 C 0.49568 0.25377 0.62733 0.0
C1003 C 0.50912 0.23446 0.6396 0.0
C1004 C 0.51384 0.27363 0.61668 0.0
C1005 C 0.50085 0.29363 0.60294 0.0
C1006 C 0.48182 0.28183 0.58925 0.0
C1007 C 0.46938 0.30082 0.57647 0.0
C1008 C 0.47598 0.33164 0.57716 0.0
C1009 C 0.49509 0.34353 0.5906 0.0
C1010 C 0.50755 0.32464 0.60343 0.0
C1011 C 0.63855 0.23084 0.6291 0.0
C1012 C 0.65485 0.25819 0.63155 0.0
C1013 C 0.60726 0.22972 0.62935 0.0
C1014 C 0.59172 0.25586 0.63224 0.0
C1015 C 0.60795 0.28308 0.63507 0.0
C1016 C 0.63925 0.28425 0.63473 0.0
C1017 C 0.55855 0.25513 0.63131 0.0
C1018 C 0.54502 0.27415 0.61888 0.0
C1019 C 0.54037 0.23509 0.64188 0.0
C1020 C 0.55325 0.21556 0.65591 0.0
C1021 C 0.57186 0.22786 0.66965 0.0
C1022 C 0.58402 0.20932 0.68278 0.0
C1023 C 0.57757 0.17846 0.68238 0.0
C1024 C 0.55887 0.16608 0.66888 0.0
C1025 C 0.54667 0.18452 0.65571 0.0
H1026 H 0.58701 0.16414 0.69256 0.0
H1027 H 0.46633 0.3463 0.56725 0.0
H1028 H 0.75723 0.38775 0.06478 0.0
H1029 H 0.76476 0.44037 0.05617 0.0
H1030 H 0.70459 0.46527 0.09859 0.0
H1031 H 0.69555 0.41274 0.1065 0.0
H1032 H 0.70066 0.50326 0.07224 0.0
H1033 H 0.78198 0.46044 0.10548 0.0
H1034 H 0.82156 0.42454 0.11055 0.0
H1035 H 0.86483 0.45345 0.06128 0.0
H1036 H 0.82523 0.48926 0.05581 0.0
H1037 H 0.77446 0.62707 0.11757 0.0
H1038 H 0.76202 0.57511 0.10916 0.0
H1039 H 0.78242 0.59579 0.05339 0.0
H1040 H 0.79438 0.64834 0.06169 0.0
H1041 H 0.80772 0.53656 0.07891 0.0
H1042 H 0.72446 0.58596 0.04946 0.0
H1043 H 0.68508 0.62293 0.04938 0.0
H1044 H 0.64599 0.58204 0.09694 0.0
H1045 H 0.68548 0.54513 0.09745 0.0
C1046 C 0.74472 0.40431 0.07183 0.0
C1047 C 0.72632 0.3961 0.08663 0.0
C1048 C 0.74931 0.43445 0.06701 0.0
C1049 C 0.73599 0.45687 0.0771 0.0
C1050 C 0.71541 0.44846 0.09072 0.0
C1051 C 0.7105 0.41838 0.09537 0.0
C1052 C 0.7459 0.4889 0.07514 0.0
C1053 C 0.72412 0.51045 0.07345 0.0
C1054 C 0.77654 0.49848 0.07677 0.0
C1055 C 0.80048 0.47721 0.08012 0.0
C1056 C 0.79985 0.459 0.09568 0.0
C1057 C 0.82228 0.43868 0.09863 0.0
C1058 C 0.84564 0.43665 0.08621 0.0
C1059 C 0.84667 0.455 0.07086 0.0
C1060 C 0.82425 0.4753 0.06782 0.0
C1061 C 0.77667 0.62049 0.10355 0.0
C1062 C 0.78558 0.64162 0.09029 0.0
C1063 C 0.7694 0.59091 0.09877 0.0
C1064 C 0.77119 0.58183 0.08069 0.0
C1065 C 0.7808 0.60257 0.06741 0.0
C1066 C 0.7876 0.63243 0.07215 0.0
C1067 C 0.7625 0.55055 0.07602 0.0
C1068 C 0.78446 0.52921 0.07684 0.0
C1069 C 0.73205 0.54116 0.07401 0.0
C1070 C 0.70806 0.563 0.07358 0.0
C1071 C 0.70763 0.58505 0.05999 0.0
C1072 C 0.68526 0.60594 0.05985 0.0
C1073 C 0.66309 0.60488 0.07317 0.0
C1074 C 0.66319 0.58285 0.08663 0.0
C1075 C 0.68554 0.56193 0.08685 0.0
H1076 H 0.64579 0.62108 0.07305 0.0
H1077 H 0.86299 0.42091 0.08852 0.0
H1078 H 0.64246 0.72686 0.6212 0.0
H1079 H 0.58825 0.72522 0.62561 0.0
H1080 H 0.59379 0.8166 0.64446 0.0
H1081 H 0.64856 0.81801 0.64046 0.0
H1082 H 0.55238 0.78269 0.66347 0.0
H1083 H 0.57478 0.80194 0.60118 0.0
H1084 H 0.59872 0.79354 0.57171 0.0
H1085 H 0.55362 0.70688 0.56804 0.0
H1086 H 0.52976 0.71456 0.59765 0.0
H1087 H 0.40004 0.81234 0.64161 0.0
H1088 H 0.45447 0.81239 0.64441 0.0
H1089 H 0.45272 0.71933 0.62909 0.0
H1090 H 0.398 0.71876 0.62673 0.0
H1091 H 0.49213 0.75542 0.60886 0.0
H1092 H 0.46871 0.73789 0.67157 0.0
H1093 H 0.44465 0.74811 0.70076 0.0
H1094 H 0.49091 0.83434 0.70302 0.0
H1095 H 0.51494 0.82481 0.67369 0.0
C1096 C 0.6321 0.74651 0.62642 0.0
C1097 C 0.64944 0.77272 0.63024 0.0
C1098 C 0.6012 0.74556 0.62893 0.0
C1099 C 0.58695 0.77101 0.63495 0.0
C1100 C 0.60438 0.79679 0.63969 0.0
C1101 C 0.63554 0.79761 0.63739 0.0
C1102 C 0.55379 0.77095 0.63523 0.0
C1103 C 0.53917 0.77712 0.65149 0.0
C1104 C 0.53661 0.76331 0.61963 0.0
C1105 C 0.55068 0.75873 0.60171 0.0
C1106 C 0.57012 0.781 0.59415 0.0
C1107 C 0.58366 0.77638 0.57742 0.0
C1108 C 0.57775 0.74967 0.56803 0.0
C1109 C 0.55821 0.72755 0.57534 0.0
C1110 C 0.54465 0.73203 0.59209 0.0
C1111 C 0.41106 0.79163 0.63928 0.0
C1112 C 0.39459 0.76548 0.63399 0.0
C1113 C 0.44223 0.79177 0.64082 0.0
C1114 C 0.45754 0.76584 0.63706 0.0
C1115 C 0.44123 0.73958 0.63205 0.0
C1116 C 0.41002 0.73934 0.63062 0.0
C1117 C 0.49068 0.76671 0.63715 0.0
C1118 C 0.50532 0.76089 0.62087 0.0
C1119 C 0.50774 0.775 0.65267 0.0
C1120 C 0.49341 0.78074 0.67034 0.0
C1121 C 0.47356 0.75914 0.67821 0.0
C1122 C 0.45996 0.76479 0.6948 0.0
C1123 C 0.46619 0.79189 0.70372 0.0
C1124 C 0.48609 0.81337 0.69609 0.0
C1125 C 0.49972 0.80784 0.67949 0.0
H1126 H 0.45564 0.79622 0.71656 0.0
H1127 H 0.58826 0.74613 0.55507 0.0
H1128 H 0.22221 0.39841 0.83657 0.0
H1129 H 0.22487 0.45273 0.83171 0.0
H1130 H 0.26971 0.46476 0.88324 0.0
H1131 H 0.26608 0.41079 0.88838 0.0
H1132 H 0.23282 0.50688 0.87891 0.0
H1133 H 0.3076 0.46315 0.84125 0.0
H1134 H 0.32424 0.42867 0.81769 0.0
H1135 H 0.26901 0.47113 0.77841 0.0
H1136 H 0.25167 0.50556 0.80183 0.0
H1137 H 0.31522 0.64043 0.87254 0.0
H1138 H 0.30791 0.58639 0.86858 0.0
H1139 H 0.2411 0.60043 0.82752 0.0
H1140 H 0.24781 0.65476 0.83167 0.0
H1141 H 0.28374 0.5466 0.82359 0.0
H1142 H 0.21142 0.59238 0.86277 0.0
H1143 H 0.19845 0.62701 0.88716 0.0
H1144 H 0.25334 0.57986 0.9245 0.0
H1145 H 0.26713 0.54532 0.90021 0.0
C1146 C 0.23223 0.41279 0.84693 0.0
C1147 C 0.24392 0.4005 0.86285 0.0
C1148 C 0.23392 0.44375 0.84411 0.0
C1149 C 0.24802 0.46281 0.85695 0.0
C1150 C 0.25871 0.45055 0.87313 0.0
C1151 C 0.25657 0.41971 0.87609 0.0
C1152 C 0.25278 0.4954 0.85345 0.0
C1153 C 0.24399 0.51543 0.86681 0.0
C1154 C 0.26697 0.50676 0.83753 0.0
C1155 C 0.27811 0.48672 0.82333 0.0
C1156 C 0.29892 0.46505 0.8276 0.0
C1157 C 0.30846 0.44551 0.81428 0.0
C1158 C 0.29762 0.44765 0.79658 0.0
C1159 C 0.27735 0.46946 0.79214 0.0
C1160 C 0.26766 0.489 0.80543 0.0
C1161 C 0.29945 0.63206 0.86237 0.0
C1162 C 0.28161 0.65175 0.8527 0.0
C1163 C 0.29547 0.60123 0.86004 0.0
C1164 C 0.27373 0.58958 0.84793 0.0
C1165 C 0.25802 0.60912 0.8369 0.0
C1166 C 0.26191 0.64011 0.83929 0.0
C1167 C 0.26423 0.55757 0.84918 0.0
C1168 C 0.27212 0.53784 0.83549 0.0
C1169 C 0.24954 0.54632 0.86488 0.0
C1170 C 0.24049 0.56643 0.87964 0.0
C1171 C 0.22088 0.58953 0.87615 0.0
C1172 C 0.21338 0.60914 0.88996 0.0
C1173 C 0.22511 0.60568 0.90736 0.0
C1174 C 0.24429 0.58253 0.91101 0.0
C1175 C 0.25194 0.56292 0.89723 0.0
H1176 H 0.21931 0.6209 0.91803 0.0
H1177 H 0.30497 0.43244 0.78629 0.0
H1178 H 0.64059 0.23396 0.41369 0.0
H1179 H 0.58752 0.22496 0.42029 0.0
H1180 H 0.57174 0.31774 0.40945 0.0
H1181 H 0.62529 0.3272 0.40311 0.0
H1182 H 0.53713 0.29127 0.43939 0.0
H1183 H 0.561 0.27295 0.37659 0.0
H1184 H 0.58966 0.25016 0.35215 0.0
H1185 H 0.56243 0.1624 0.37137 0.0
H1186 H 0.53399 0.18471 0.39613 0.0
H1187 H 0.38507 0.28507 0.41104 0.0
H1188 H 0.43858 0.29277 0.41696 0.0
H1189 H 0.4486 0.19721 0.41607 0.0
H1190 H 0.39492 0.18944 0.40969 0.0
H1191 H 0.48715 0.22305 0.39456 0.0
H1192 H 0.45878 0.24047 0.45555 0.0
H1193 H 0.43045 0.26257 0.48038 0.0
H1194 H 0.46563 0.35024 0.46572 0.0
H1195 H 0.49381 0.32874 0.44061 0.0
C1196 C 0.6261 0.25273 0.41325 0.0
C1197 C 0.63718 0.28134 0.40785 0.0
C1198 C 0.59572 0.24746 0.41692 0.0
C1199 C 0.57576 0.27062 0.41521 0.0
C1200 C 0.58688 0.2996 0.41086 0.0
C1201 C 0.61737 0.30491 0.4071 0.0
C1202 C 0.54308 0.26374 0.41595 0.0
C1203 C 0.52602 0.27656 0.42956 0.0
C1204 C 0.52892 0.24393 0.40336 0.0
C1205 C 0.54565 0.23049 0.38832 0.0
C1206 C 0.56132 0.2488 0.37569 0.0
C1207 C 0.5775 0.23597 0.36177 0.0
C1208 C 0.57794 0.20485 0.36023 0.0
C1209 C 0.56211 0.1865 0.37259 0.0
C1210 C 0.54595 0.19922 0.38657 0.0
C1211 C 0.3985 0.26564 0.41263 0.0
C1212 C 0.38584 0.23663 0.40992 0.0
C1213 C 0.42914 0.27008 0.41604 0.0
C1214 C 0.44766 0.24557 0.4171 0.0
C1215 C 0.43477 0.21647 0.41528 0.0
C1216 C 0.40415 0.21203 0.41166 0.0
C1217 C 0.48075 0.25052 0.41808 0.0
C1218 C 0.49804 0.23745 0.40465 0.0
C1219 C 0.49501 0.26996 0.43092 0.0
C1220 C 0.47825 0.28299 0.4461 0.0
C1221 C 0.46031 0.26449 0.45753 0.0
C1222 C 0.4443 0.27691 0.47167 0.0
C1223 C 0.4462 0.30779 0.4746 0.0
C1224 C 0.46417 0.32632 0.46343 0.0
C1225 C 0.4802 0.31402 0.44925 0.0
H1226 H 0.43378 0.31737 0.48556 0.0
H1227 H 0.59048 0.19496 0.34945 0.0
H1228 H 0.80495 0.64289 0.82593 0.0
H1229 H 0.80133 0.5889 0.81963 0.0
H1230 H 0.7546 0.57378 0.87013 0.0
H1231 H 0.75858 0.62713 0.87655 0.0
H1232 H 0.79472 0.53392 0.86623 0.0
H1233 H 0.71846 0.5758 0.82778 0.0
H1234 H 0.70082 0.60887 0.80356 0.0
H1235 H 0.75749 0.56682 0.76528 0.0
H1236 H 0.77574 0.53372 0.78935 0.0
H1237 H 0.71152 0.40152 0.86248 0.0
H1238 H 0.71941 0.45523 0.85724 0.0
H1239 H 0.78528 0.43814 0.81646 0.0
H1240 H 0.77797 0.38415 0.82189 0.0
H1241 H 0.74319 0.49266 0.81146 0.0
H1242 H 0.81641 0.44813 0.85083 0.0
H1243 H 0.8304 0.41424 0.87555 0.0
H1244 H 0.77653 0.46211 0.9127 0.0
H1245 H 0.76173 0.49591 0.88809 0.0
C1246 C 0.79407 0.62792 0.83568 0.0
C1247 C 0.78232 0.63914 0.85181 0.0
C1248 C 0.79191 0.59716 0.83205 0.0
C1249 C 0.7775 0.57731 0.84436 0.0
C1250 C 0.76601 0.58859 0.86049 0.0
C1251 C 0.76842 0.61911 0.86419 0.0
C1252 C 0.77402 0.54472 0.84075 0.0
C1253 C 0.78348 0.52503 0.85422 0.0
C1254 C 0.75998 0.53293 0.82489 0.0
C1255 C 0.74872 0.55254 0.81039 0.0
C1256 C 0.7273 0.57374 0.81422 0.0
C1257 C 0.71717 0.59247 0.80052 0.0
C1258 C 0.7281 0.59002 0.7829 0.0
C1259 C 0.74909 0.56874 0.77894 0.0
C1260 C 0.75932 0.54998 0.7926 0.0
C1261 C 0.72721 0.40912 0.85212 0.0
C1262 C 0.74459 0.38869 0.84287 0.0
C1263 C 0.7315 0.43977 0.84904 0.0
C1264 C 0.75312 0.4505 0.83661 0.0
C1265 C 0.76841 0.43016 0.82605 0.0
C1266 C 0.7642 0.39937 0.82918 0.0
C1267 C 0.76309 0.48242 0.83719 0.0
C1268 C 0.75497 0.50177 0.82322 0.0
C1269 C 0.7782 0.49409 0.85264 0.0
C1270 C 0.78779 0.47438 0.86759 0.0
C1271 C 0.80739 0.45129 0.86424 0.0
C1272 C 0.81547 0.43211 0.87823 0.0
C1273 C 0.80431 0.43598 0.89568 0.0
C1274 C 0.78513 0.45912 0.89918 0.0
C1275 C 0.77691 0.47831 0.88521 0.0
H1276 H 0.81057 0.42109 0.90649 0.0
H1277 H 0.72027 0.60455 0.77232 0.0
H1278 H 0.38629 0.77752 0.42121 0.0
H1279 H 0.4389 0.7857 0.42927 0.0
H1280 H 0.45686 0.69681 0.41095 0.0
H1281 H 0.40373 0.68769 0.40377 0.0
H1282 H 0.49155 0.7119 0.43977 0.0
H1283 H 0.46536 0.75734 0.38275 0.0
H1284 H 0.43651 0.79017 0.36302 0.0
H1285 H 0.4657 0.86654 0.39466 0.0
H1286 H 0.49439 0.83405 0.41475 0.0
H1287 H 0.63488 0.72305 0.4002 0.0
H1288 H 0.58271 0.71677 0.40985 0.0
H1289 H 0.58615 0.80742 0.42993 0.0
H1290 H 0.63879 0.81368 0.42022 0.0
H1291 H 0.54059 0.79656 0.40587 0.0
H1292 H 0.57528 0.74998 0.45936 0.0
H1293 H 0.60491 0.71572 0.47762 0.0
H1294 H 0.56126 0.64009 0.45127 0.0
H1295 H 0.53165 0.67389 0.43265 0.0
C1296 C 0.40109 0.75924 0.41943 0.0
C1297 C 0.39066 0.73196 0.41165 0.0
C1298 C 0.43133 0.76414 0.42388 0.0
C1299 C 0.45194 0.74213 0.42035 0.0
C1300 C 0.44138 0.71421 0.41368 0.0
C1301 C 0.41104 0.70915 0.4094 0.0
C1302 C 0.48469 0.74911 0.42191 0.0
C1303 C 0.50234 0.73035 0.43235 0.0
C1304 C 0.49868 0.77364 0.41255 0.0
C1305 C 0.48171 0.79323 0.40038 0.0
C1306 C 0.46545 0.7811 0.38557 0.0
C1307 C 0.44915 0.79965 0.37432 0.0
C1308 C 0.4492 0.83041 0.37762 0.0
C1309 C 0.46563 0.8427 0.39214 0.0
C1310 C 0.48192 0.82424 0.40347 0.0
C1311 C 0.62469 0.74134 0.40712 0.0
C1312 C 0.64066 0.76882 0.40951 0.0
C1313 C 0.59496 0.73771 0.41271 0.0
C1314 C 0.58056 0.76156 0.42072 0.0
C1315 C 0.59692 0.78868 0.42388 0.0
C1316 C 0.62692 0.79222 0.41843 0.0
C1317 C 0.54763 0.75905 0.4235 0.0
C1318 C 0.52986 0.77856 0.41372 0.0
C1319 C 0.53367 0.73502 0.4333 0.0
C1320 C 0.55133 0.71453 0.44453 0.0
C1321 C 0.57213 0.72605 0.45736 0.0
C1322 C 0.58891 0.7067 0.4678 0.0
C1323 C 0.585 0.67575 0.4656 0.0
C1324 C 0.56426 0.66407 0.45297 0.0
C1325 C 0.54743 0.68332 0.44249 0.0
H1326 H 0.59801 0.6608 0.47369 0.0
H1327 H 0.43656 0.84473 0.36889 0.0
H1328 H 0.30273 0.22533 0.07256 0.0
H1329 H 0.31888 0.20554 0.04329 0.0
H1330 H 0.22848 0.21028 0.02288 0.0
H1331 H 0.21229 0.22891 0.05184 0.0
H1332 H 0.25266 0.16299 0.00932 0.0
H1333 H 0.28483 0.26935 0.01844 0.0
H1334 H 0.31445 0.30898 0.03457 0.0
H1335 H 0.39537 0.26406 0.02343 0.0
H1336 H 0.36612 0.22394 0.00748 0.0
H1337 H 0.23254 0.23475 0.92772 0.0
H1338 H 0.23926 0.21638 0.95855 0.0
H1339 H 0.32954 0.19328 0.94575 0.0
H1340 H 0.3224 0.21103 0.91439 0.0
H1341 H 0.32292 0.23301 0.9766 0.0
H1342 H 0.2872 0.13742 0.95709 0.0
H1343 H 0.2549 0.10074 0.94038 0.0
H1344 H 0.1783 0.12727 0.97035 0.0
H1345 H 0.21001 0.16444 0.98706 0.0
C1346 C 0.28627 0.22146 0.06192 0.0
C1347 C 0.25634 0.22912 0.0644 0.0
C1348 C 0.29553 0.21027 0.04519 0.0
C1349 C 0.27499 0.20681 0.03075 0.0
C1350 C 0.24481 0.21268 0.03374 0.0
C1351 C 0.2356 0.22364 0.05032 0.0
C1352 C 0.28453 0.20036 0.01194 0.0
C1353 C 0.2683 0.17804 0.00218 0.0
C1354 C 0.30578 0.21923 0.00268 0.0
C1355 C 0.32331 0.24355 0.01198 0.0
C1356 C 0.30893 0.26791 0.01951 0.0
C1357 C 0.32564 0.29042 0.02863 0.0
C1358 C 0.35677 0.28898 0.03008 0.0
C1359 C 0.37126 0.26508 0.02236 0.0
C1360 C 0.35463 0.24245 0.01329 0.0
C1361 C 0.2535 0.22493 0.93135 0.0
C1362 C 0.27687 0.22399 0.91877 0.0
C1363 C 0.25733 0.21441 0.94893 0.0
C1364 C 0.28484 0.2033 0.95441 0.0
C1365 C 0.30807 0.20152 0.94171 0.0
C1366 C 0.30394 0.21145 0.92386 0.0
C1367 C 0.2895 0.19701 0.97391 0.0
C1368 C 0.30836 0.21696 0.98379 0.0
C1369 C 0.27034 0.17625 0.98325 0.0
C1370 C 0.25106 0.15375 0.97335 0.0
C1371 C 0.26344 0.13555 0.96007 0.0
C1372 C 0.24523 0.11465 0.9506 0.0
C1373 C 0.21457 0.11167 0.95431 0.0
C1374 C 0.20207 0.12957 0.96752 0.0
C1375 C 0.22018 0.15051 0.97702 0.0
H1376 H 0.2005 0.09549 0.94696 0.0
H1377 H 0.36967 0.30641 0.03715 0.0
H1378 H 0.80234 0.32485 0.43384 0.0
H1379 H 0.82351 0.3148 0.46324 0.0
H1380 H 0.8321 0.22212 0.44877 0.0
H1381 H 0.80953 0.23201 0.41898 0.0
H1382 H 0.80813 0.22521 0.48094 0.0
H1383 H 0.89583 0.26949 0.45614 0.0
H1384 H 0.92799 0.30493 0.43844 0.0
H1385 H 0.90513 0.37659 0.47365 0.0
H1386 H 0.87246 0.34174 0.4914 0.0
H1387 H 0.85322 0.22824 0.5744 0.0
H1388 H 0.86604 0.22539 0.54211 0.0
H1389 H 0.82136 0.30741 0.53221 0.0
H1390 H 0.80761 0.30971 0.56421 0.0
H1391 H 0.87931 0.29743 0.51142 0.0
H1392 H 0.77978 0.25108 0.52845 0.0
H1393 H 0.75046 0.21443 0.54704 0.0
H1394 H 0.8018 0.14336 0.52616 0.0
H1395 H 0.83181 0.17975 0.50769 0.0
C1396 C 0.80898 0.30231 0.4367 0.0
C1397 C 0.80407 0.27919 0.42405 0.0
C1398 C 0.8215 0.29666 0.45356 0.0
C1399 C 0.83004 0.26781 0.4582 0.0
C1400 C 0.82594 0.24464 0.44544 0.0
C1401 C 0.81315 0.25031 0.42842 0.0
C1402 C 0.84037 0.26211 0.47703 0.0
C1403 C 0.82447 0.24038 0.48743 0.0
C1404 C 0.86183 0.2817 0.48566 0.0
C1405 C 0.88163 0.30291 0.47512 0.0
C1406 C 0.89753 0.29283 0.46007 0.0
C1407 C 0.91587 0.31283 0.45002 0.0
C1408 C 0.91861 0.34299 0.45492 0.0
C1409 C 0.90303 0.35321 0.46989 0.0
C1410 C 0.88465 0.33331 0.47998 0.0
C1411 C 0.84708 0.24615 0.5654 0.0
C1412 C 0.82948 0.26922 0.57166 0.0
C1413 C 0.85434 0.24445 0.54701 0.0
C1414 C 0.84462 0.2662 0.53485 0.0
C1415 C 0.82923 0.29056 0.54143 0.0
C1416 C 0.82132 0.29182 0.55966 0.0
C1417 C 0.8461 0.26167 0.51507 0.0
C1418 C 0.86403 0.28154 0.50464 0.0
C1419 C 0.82705 0.24003 0.50637 0.0
C1420 C 0.80818 0.21811 0.51685 0.0
C1421 C 0.78488 0.22765 0.52789 0.0
C1422 C 0.76816 0.20694 0.53841 0.0
C1423 C 0.77431 0.17659 0.53782 0.0
C1424 C 0.7971 0.16688 0.52663 0.0
C1425 C 0.81397 0.18753 0.51614 0.0
H1426 H 0.76139 0.1606 0.54599 0.0
H1427 H 0.9328 0.35844 0.44712 0.0
H1428 H 0.74184 0.8454 0.91307 0.0
H1429 H 0.73838 0.86092 0.94499 0.0
H1430 H 0.73584 0.76818 0.96153 0.0
H1431 H 0.73876 0.75284 0.93017 0.0
H1432 H 0.70061 0.79758 0.98275 0.0
H1433 H 0.80248 0.81139 0.95893 0.0
H1434 H 0.84056 0.83405 0.93831 0.0
H1435 H 0.81986 0.92176 0.9567 0.0
H1436 H 0.78138 0.89956 0.97729 0.0
H1437 H 0.82445 0.79293 0.05211 0.0
H1438 H 0.807 0.80738 0.02246 0.0
H1439 H 0.72381 0.83441 0.04562 0.0
H1440 H 0.74089 0.81849 0.07568 0.0
H1441 H 0.79139 0.85387 0.00531 0.0
H1442 H 0.66825 0.82029 0.01467 0.0
H1443 H 0.63523 0.79036 0.03527 0.0
H1444 H 0.70609 0.73063 0.0455 0.0
H1445 H 0.73935 0.76005 0.02483 0.0
C1446 C 0.7399 0.82845 0.92356 0.0
C1447 C 0.74099 0.79795 0.91916 0.0
C1448 C 0.738 0.8373 0.94176 0.0
C1449 C 0.7371 0.81571 0.95572 0.0
C1450 C 0.73637 0.7853 0.9511 0.0
C1451 C 0.73835 0.77655 0.9331 0.0
C1452 C 0.74027 0.82389 0.97518 0.0
C1453 C 0.72012 0.81048 0.98769 0.0
C1454 C 0.76574 0.84056 0.98174 0.0
C1455 C 0.78882 0.85389 0.96942 0.0
C1456 C 0.80593 0.83552 0.95847 0.0
C1457 C 0.82759 0.84826 0.94681 0.0
C1458 C 0.83255 0.87933 0.94615 0.0
C1459 C 0.81592 0.89771 0.95719 0.0
C1460 C 0.79418 0.88507 0.96885 0.0
C1461 C 0.80249 0.80214 0.05105 0.0
C1462 C 0.78388 0.80406 0.06629 0.0
C1463 C 0.7926 0.81071 0.034 0.0
C1464 C 0.76392 0.82173 0.03164 0.0
C1465 C 0.74587 0.82552 0.047 0.0
C1466 C 0.75568 0.81652 0.06419 0.0
C1467 C 0.75264 0.82613 0.01284 0.0
C1468 C 0.77116 0.84208 0.00045 0.0
C1469 C 0.72628 0.81083 0.00635 0.0
C1470 C 0.7063 0.79254 0.01841 0.0
C1471 C 0.67669 0.80071 0.02128 0.0
C1472 C 0.65796 0.78385 0.03297 0.0
C1473 C 0.66859 0.75868 0.04174 0.0
C1474 C 0.69791 0.75018 0.03875 0.0
C1475 C 0.71669 0.76692 0.02705 0.0
H1476 H 0.65409 0.74572 0.05083 0.0
H1477 H 0.84933 0.88916 0.93712 0.0
H1478 H 0.22485 0.78936 0.41653 0.0
H1479 H 0.20911 0.80696 0.44627 0.0
H1480 H 0.20474 0.71595 0.46601 0.0
H1481 H 0.21973 0.69824 0.43643 0.0
H1482 H 0.16172 0.74694 0.48128 0.0
H1483 H 0.26876 0.76024 0.47013 0.0
H1484 H 0.31274 0.78016 0.45308 0.0
H1485 H 0.28647 0.86995 0.46266 0.0
H1486 H 0.24205 0.85049 0.47957 0.0
H1487 H 0.23074 0.73535 0.56656 0.0
H1488 H 0.21492 0.73617 0.53481 0.0
H1489 H 0.19771 0.83002 0.5393 0.0
H1490 H 0.21258 0.82891 0.57151 0.0
H1491 H 0.24112 0.81095 0.51097 0.0
H1492 H 0.14061 0.79268 0.53045 0.0
H1493 H 0.09968 0.76847 0.54828 0.0
H1494 H 0.11684 0.6837 0.52417 0.0
H1495 H 0.15819 0.70729 0.50639 0.0
C1496 C 0.21982 0.77306 0.42709 0.0
C1497 C 0.22401 0.74244 0.42422 0.0
C1498 C 0.2109 0.78316 0.44408 0.0
C1499 C 0.20622 0.76281 0.45845 0.0
C1500 C 0.20824 0.73208 0.45516 0.0
C1501 C 0.21706 0.722 0.43824 0.0
C1502 C 0.20285 0.77319 0.47737 0.0
C1503 C 0.17891 0.76115 0.48776 0.0
C1504 C 0.22502 0.79219 0.48576 0.0
C1505 C 0.25193 0.80393 0.47589 0.0
C1506 C 0.27229 0.78423 0.4685 0.0
C1507 C 0.29728 0.79542 0.45887 0.0
C1508 C 0.30233 0.8263 0.45673 0.0
C1509 C 0.28247 0.84604 0.46429 0.0
C1510 C 0.25738 0.83495 0.47389 0.0
C1511 C 0.22272 0.7559 0.56088 0.0
C1512 C 0.22253 0.78199 0.57134 0.0
C1513 C 0.2137 0.75637 0.54281 0.0
C1514 C 0.20504 0.78312 0.53478 0.0
C1515 C 0.20407 0.80913 0.54535 0.0
C1516 C 0.21238 0.80846 0.56367 0.0
C1517 C 0.2005 0.78396 0.51495 0.0
C1518 C 0.22319 0.79784 0.50438 0.0
C1519 C 0.17754 0.76616 0.5065 0.0
C1520 C 0.15262 0.75178 0.51712 0.0
C1521 C 0.13582 0.76883 0.52904 0.0
C1522 C 0.1125 0.75522 0.53913 0.0
C1523 C 0.10568 0.72456 0.53737 0.0
C1524 C 0.12214 0.70745 0.52551 0.0
C1525 C 0.14549 0.72095 0.51539 0.0
H1526 H 0.08761 0.71407 0.54519 0.0
H1527 H 0.32169 0.83493 0.44926 0.0
H1528 H 0.29753 0.78647 0.93474 0.0
H1529 H 0.28944 0.79611 0.96676 0.0
H1530 H 0.21808 0.85414 0.95323 0.0
H1531 H 0.22622 0.84464 0.92084 0.0
H1532 H 0.25774 0.86976 0.98699 0.0
H1533 H 0.19167 0.79415 0.96064 0.0
H1534 H 0.18066 0.75158 0.94017 0.0
H1535 H 0.24181 0.69849 0.96995 0.0
H1536 H 0.25362 0.741 0.99041 0.0
H1537 H 0.19838 0.77114 0.07102 0.0
H1538 H 0.19279 0.78991 0.04012 0.0
H1539 H 0.28247 0.8302 0.0426 0.0
H1540 H 0.28754 0.8127 0.07368 0.0
H1541 H 0.22086 0.77253 0.01309 0.0
H1542 H 0.29543 0.88371 0.01201 0.0
H1543 H 0.30512 0.92801 0.03131 0.0
H1544 H 0.21919 0.91312 0.05652 0.0
H1545 H 0.20878 0.86898 0.03719 0.0
C1546 C 0.2807 0.80201 0.93852 0.0
C1547 C 0.2622 0.8145 0.92538 0.0
C1548 C 0.27621 0.80759 0.95681 0.0
C1549 C 0.25298 0.82554 0.96229 0.0
C1550 C 0.23619 0.84031 0.94919 0.0
C1551 C 0.24083 0.83483 0.93074 0.0
C1552 C 0.24345 0.82415 0.98142 0.0
C1553 C 0.24935 0.84873 0.99281 0.0
C1554 C 0.2316 0.79691 0.98875 0.0
C1555 C 0.22364 0.77082 0.977 0.0
C1556 C 0.20287 0.77344 0.96278 0.0
C1557 C 0.1965 0.74933 0.95117 0.0
C1558 C 0.21058 0.72236 0.95373 0.0
C1559 C 0.23093 0.71941 0.96798 0.0
C1560 C 0.23744 0.74349 0.9796 0.0
C1561 C 0.21659 0.78463 0.06508 0.0
C1562 C 0.24344 0.79033 0.0747 0.0
C1563 C 0.2134 0.79535 0.04742 0.0
C1564 C 0.23714 0.81162 0.03895 0.0
C1565 C 0.26351 0.81838 0.04887 0.0
C1566 C 0.26648 0.80816 0.06665 0.0
C1567 C 0.23602 0.81797 0.01917 0.0
C1568 C 0.22835 0.79404 0.00751 0.0
C1569 C 0.24545 0.8461 0.01167 0.0
C1570 C 0.2514 0.87289 0.02319 0.0
C1571 C 0.27851 0.88998 0.02158 0.0
C1572 C 0.28415 0.91504 0.03255 0.0
C1573 C 0.26281 0.92334 0.04516 0.0
C1574 C 0.23574 0.90662 0.04679 0.0
C1575 C 0.22998 0.88154 0.03584 0.0
H1576 H 0.26724 0.94274 0.05365 0.0
H1577 H 0.20569 0.70375 0.94469 0.0
H1578 H 0.22103 0.29291 0.41494 0.0
H1579 H 0.20935 0.31302 0.44493 0.0
H1580 H 0.21002 0.22418 0.46763 0.0
H1581 H 0.22102 0.20386 0.43796 0.0
H1582 H 0.16119 0.28435 0.47823 0.0
H1583 H 0.27419 0.24109 0.49522 0.0
H1584 H 0.32271 0.2314 0.48093 0.0
H1585 H 0.31262 0.30607 0.44507 0.0
H1586 H 0.26435 0.31651 0.45941 0.0
H1587 H 0.19306 0.25654 0.572 0.0
H1588 H 0.18054 0.25934 0.53964 0.0
H1589 H 0.24103 0.33685 0.53403 0.0
H1590 H 0.25387 0.33358 0.56619 0.0
H1591 H 0.2567 0.29292 0.51279 0.0
H1592 H 0.16578 0.34124 0.52487 0.0
H1593 H 0.11724 0.34852 0.53965 0.0
H1594 H 0.08248 0.26466 0.51833 0.0
H1595 H 0.13096 0.25663 0.50363 0.0
C1596 C 0.21776 0.27757 0.42621 0.0
C1597 C 0.22237 0.24684 0.42412 0.0
C1598 C 0.21102 0.28909 0.4433 0.0
C1599 C 0.20898 0.27002 0.45841 0.0
C1600 C 0.21144 0.23918 0.45608 0.0
C1601 C 0.21794 0.22767 0.4391 0.0
C1602 C 0.20918 0.2821 0.47701 0.0
C1603 C 0.18199 0.28672 0.48583 0.0
C1604 C 0.23637 0.28509 0.48678 0.0
C1605 C 0.26557 0.27936 0.47825 0.0
C1606 C 0.28241 0.25548 0.48432 0.0
C1607 C 0.30986 0.24988 0.47623 0.0
C1608 C 0.32072 0.26808 0.46209 0.0
C1609 C 0.30415 0.29195 0.45601 0.0
C1610 C 0.27673 0.29769 0.46409 0.0
C1611 C 0.20255 0.2749 0.56396 0.0
C1612 C 0.22411 0.29506 0.57144 0.0
C1613 C 0.19546 0.27651 0.54548 0.0
C1614 C 0.20987 0.29833 0.53438 0.0
C1615 C 0.22962 0.31988 0.54231 0.0
C1616 C 0.23682 0.31812 0.56067 0.0
C1617 C 0.20862 0.2955 0.51434 0.0
C1618 C 0.23577 0.29179 0.50526 0.0
C1619 C 0.18136 0.29351 0.50445 0.0
C1620 C 0.15212 0.29826 0.51323 0.0
C1621 C 0.14788 0.32423 0.52344 0.0
C1622 C 0.12034 0.32851 0.53179 0.0
C1623 C 0.09681 0.30705 0.52995 0.0
C1624 C 0.10074 0.28127 0.51974 0.0
C1625 C 0.12823 0.27687 0.51137 0.0
H1626 H 0.07551 0.31041 0.53643 0.0
H1627 H 0.34202 0.26374 0.45589 0.0
H1628 H 0.83287 0.25999 0.06449 0.0
H1629 H 0.83333 0.24185 0.03324 0.0
H1630 H 0.7376 0.22343 0.03566 0.0
H1631 H 0.73764 0.23921 0.06728 0.0
H1632 H 0.75784 0.18538 0.01464 0.0
H1633 H 0.77295 0.29228 0.01852 0.0
H1634 H 0.79775 0.33996 0.02835 0.0
H1635 H 0.87942 0.31582 0.00276 0.0
H1636 H 0.85517 0.26781 0.99298 0.0
H1637 H 0.72204 0.24572 0.92537 0.0
H1638 H 0.72877 0.23604 0.95776 0.0
H1639 H 0.81395 0.19815 0.94693 0.0
H1640 H 0.80676 0.20675 0.91433 0.0
H1641 H 0.80488 0.25814 0.9713 0.0
H1642 H 0.78063 0.15233 0.96336 0.0
H1643 H 0.74892 0.10939 0.95258 0.0
H1644 H 0.6757 0.13808 0.98478 0.0
H1645 H 0.70684 0.18148 -0.00446 0.0
C1646 C 0.8121 0.25144 0.0584 0.0
C1647 C 0.7852 0.25122 0.06816 0.0
C1648 C 0.8123 0.24129 0.04052 0.0
C1649 C 0.78533 0.23215 0.03181 0.0
C1650 C 0.75871 0.23044 0.04195 0.0
C1651 C 0.75871 0.23957 0.06003 0.0
C1652 C 0.78429 0.22676 0.01191 0.0
C1653 C 0.76816 0.20135 0.00521 0.0
C1654 C 0.79779 0.24743 -0.00056 0.0
C1655 C 0.81237 0.27633 0.00522 0.0
C1656 C 0.79625 0.29708 0.01509 0.0
C1657 C 0.81019 0.32416 0.02065 0.0
C1658 C 0.84017 0.33087 0.01623 0.0
C1659 C 0.85622 0.31056 0.00621 0.0
C1660 C 0.8424 0.28341 0.00065 0.0
C1661 C 0.74167 0.23434 0.92985 0.0
C1662 C 0.76383 0.22683 0.91744 0.0
C1663 C 0.74547 0.22881 0.94831 0.0
C1664 C 0.77176 0.21628 0.95464 0.0
C1665 C 0.79334 0.20749 0.9422 0.0
C1666 C 0.78917 0.2123 0.92364 0.0
C1667 C 0.77842 0.21704 0.97423 0.0
C1668 C 0.7953 0.24185 0.98082 0.0
C1669 C 0.76472 0.19646 0.98651 0.0
C1670 C 0.746 0.17032 0.98012 0.0
C1671 C 0.75767 0.14967 0.96799 0.0
C1672 C 0.73982 0.1252 0.96192 0.0
C1673 C 0.71029 0.12105 0.96795 0.0
C1674 C 0.69857 0.14133 0.98011 0.0
C1675 C 0.71633 0.16585 0.98621 0.0
H1676 H 0.6965 0.10209 0.96324 0.0
H1677 H 0.85093 0.35184 0.02054 0.0
H1678 H 0.80865 0.78134 0.42091 0.0
H1679 H 0.82752 0.77974 0.45186 0.0
H1680 H 0.79419 0.6879 0.4568 0.0
H1681 H 0.77378 0.69009 0.42604 0.0
H1682 H 0.77754 0.71488 0.48416 0.0
H1683 H 0.87321 0.71169 0.45665 0.0
H1684 H 0.9145 0.72622 0.43588 0.0
H1685 H 0.92287 0.81305 0.46054 0.0
H1686 H 0.88133 0.79922 0.4813 0.0
H1687 H 0.83298 0.70984 0.5738 0.0
H1688 H 0.83994 0.70099 0.54131 0.0
H1689 H 0.82913 0.79469 0.53052 0.0
H1690 H 0.82104 0.80333 0.56284 0.0
H1691 H 0.87431 0.75964 0.50671 0.0
H1692 H 0.76937 0.76363 0.52778 0.0
H1693 H 0.72801 0.74808 0.54832 0.0
H1694 H 0.74041 0.65587 0.53543 0.0
H1695 H 0.78199 0.67096 0.51487 0.0
C1696 C 0.80593 0.76059 0.42845 0.0
C1697 C 0.78975 0.73582 0.42105 0.0
C1698 C 0.81691 0.75962 0.44618 0.0
C1699 C 0.81273 0.73356 0.45675 0.0
C1700 C 0.79773 0.70832 0.44902 0.0
C1701 C 0.78613 0.70953 0.43142 0.0
C1702 C 0.82101 0.73376 0.47636 0.0
C1703 C 0.79909 0.72395 0.48892 0.0
C1704 C 0.8489 0.74602 0.48288 0.0
C1705 C 0.874 0.75445 0.47047 0.0
C1706 C 0.88371 0.73396 0.45757 0.0
C1707 C 0.90719 0.74206 0.44581 0.0
C1708 C 0.92127 0.77055 0.44687 0.0
C1709 C 0.91194 0.79099 0.45973 0.0
C1710 C 0.88846 0.78301 0.47152 0.0
C1711 C 0.83364 0.72875 0.56457 0.0
C1712 C 0.82693 0.75734 0.57074 0.0
C1713 C 0.83739 0.72365 0.54603 0.0
C1714 C 0.83506 0.74722 0.53356 0.0
C1715 C 0.83133 0.77631 0.53995 0.0
C1716 C 0.82681 0.78125 0.55839 0.0
C1717 C 0.83083 0.74093 0.51402 0.0
C1718 C 0.85326 0.74983 0.50165 0.0
C1719 C 0.80364 0.72746 0.50757 0.0
C1720 C 0.77888 0.71837 0.51997 0.0
C1721 C 0.76339 0.74004 0.52944 0.0
C1722 C 0.73984 0.73133 0.54101 0.0
C1723 C 0.73155 0.70101 0.54315 0.0
C1724 C 0.74682 0.67934 0.53373 0.0
C1725 C 0.77034 0.68796 0.52211 0.0
H1726 H 0.71336 0.69431 0.55214 0.0
H1727 H 0.93943 0.77679 0.43775 0.0
H1728 H 0.63439 0.30052 0.11468 0.0
H1729 H 0.58023 0.30714 0.11475 0.0
H1730 H 0.56414 0.21165 0.11958 0.0
H1731 H 0.61801 0.20489 0.11961 0.0
H1732 H 0.52697 0.23344 0.09499 0.0
H1733 H 0.55601 0.25882 0.15591 0.0
H1734 H 0.58522 0.28582 0.17964 0.0
H1735 H 0.5537 0.36944 0.16026 0.0
H1736 H 0.5246 0.34296 0.13625 0.0
H1737 H 0.37106 0.23706 0.11989 0.0
H1738 H 0.42501 0.22855 0.1188 0.0
H1739 H 0.44393 0.32352 0.11311 0.0
H1740 H 0.39051 0.33207 0.11395 0.0
H1741 H 0.47946 0.30102 0.1384 0.0
H1742 H 0.45049 0.27609 0.07756 0.0
H1743 H 0.4208 0.24945 0.05392 0.0
H1744 H 0.4519 0.16545 0.07298 0.0
H1745 H 0.4814 0.19158 0.09695 0.0
C1746 C 0.61939 0.28094 0.11595 0.0
C1747 C 0.63082 0.25215 0.11709 0.0
C1748 C 0.58832 0.28474 0.11595 0.0
C1749 C 0.5679 0.25989 0.11725 0.0
C1750 C 0.57928 0.23119 0.11844 0.0
C1751 C 0.61025 0.22737 0.11842 0.0
C1752 C 0.53473 0.26366 0.11738 0.0
C1753 C 0.51657 0.24793 0.10465 0.0
C1754 C 0.521 0.28297 0.12971 0.0
C1755 C 0.53837 0.29893 0.14418 0.0
C1756 C 0.55549 0.28298 0.15663 0.0
C1757 C 0.57199 0.29819 0.17014 0.0
C1758 C 0.57138 0.32933 0.17143 0.0
C1759 C 0.55419 0.34532 0.15923 0.0
C1760 C 0.53767 0.33022 0.14568 0.0
C1761 C 0.38668 0.25606 0.11816 0.0
C1762 C 0.37627 0.28529 0.11722 0.0
C1763 C 0.41758 0.25119 0.11759 0.0
C1764 C 0.4387 0.27542 0.11594 0.0
C1765 C 0.42825 0.30446 0.1146 0.0
C1766 C 0.39754 0.30931 0.11514 0.0
C1767 C 0.47172 0.27091 0.11598 0.0
C1768 C 0.48985 0.28649 0.12876 0.0
C1769 C 0.48539 0.25152 0.10368 0.0
C1770 C 0.4679 0.23577 0.08918 0.0
C1771 C 0.45082 0.25191 0.0768 0.0
C1772 C 0.43405 0.23691 0.06333 0.0
C1773 C 0.4344 0.20577 0.06197 0.0
C1774 C 0.45161 0.18958 0.07406 0.0
C1775 C 0.46837 0.20447 0.0876 0.0
H1776 H 0.4214 0.1942 0.05153 0.0
H1777 H 0.58417 0.34106 0.1819 0.0
H1778 H 0.77032 0.37553 0.60183 0.0
H1779 H 0.76613 0.42963 0.59761 0.0
H1780 H 0.83291 0.44631 0.6392 0.0
H1781 H 0.83609 0.39237 0.64385 0.0
H1782 H 0.79183 0.48233 0.64465 0.0
H1783 H 0.84544 0.45733 0.59102 0.0
H1784 H 0.85488 0.42995 0.56281 0.0
H1785 H 0.77275 0.45989 0.5401 0.0
H1786 H 0.76262 0.48714 0.56826 0.0
H1787 H 0.81282 0.63997 0.62474 0.0
H1788 H 0.82047 0.58637 0.6289 0.0
H1789 H 0.74642 0.56509 0.59289 0.0
H1790 H 0.73839 0.61811 0.58888 0.0
H1791 H 0.79325 0.53223 0.58463 0.0
H1792 H 0.74009 0.55676 0.63898 0.0
H1793 H 0.73204 0.58488 0.6671 0.0
H1794 H 0.81583 0.55649 0.68833 0.0
H1795 H 0.82458 0.52852 0.66022 0.0
C1796 C 0.78441 0.39079 0.60984 0.0
C1797 C 0.80361 0.37965 0.62313 0.0
C1798 C 0.78206 0.42182 0.60743 0.0
C1799 C 0.79943 0.44248 0.61794 0.0
C1800 C 0.81908 0.43117 0.63094 0.0
C1801 C 0.82102 0.40025 0.63355 0.0
C1802 C 0.79657 0.47573 0.6159 0.0
C1803 C 0.79265 0.49319 0.6315 0.0
C1804 C 0.79703 0.49028 0.5988 0.0
C1805 C 0.80315 0.47405 0.58181 0.0
C1806 C 0.8293 0.45791 0.58005 0.0
C1807 C 0.83479 0.44244 0.56407 0.0
C1808 C 0.81439 0.44312 0.54969 0.0
C1809 C 0.78851 0.45935 0.55125 0.0
C1810 C 0.7829 0.47484 0.56722 0.0
C1811 C 0.79798 0.62393 0.61784 0.0
C1812 C 0.77514 0.63371 0.60632 0.0
C1813 C 0.80242 0.59319 0.6202 0.0
C1814 C 0.78404 0.57147 0.6112 0.0
C1815 C 0.76113 0.58122 0.59987 0.0
C1816 C 0.75664 0.61177 0.59754 0.0
C1817 C 0.7885 0.53861 0.61333 0.0
C1818 C 0.79266 0.52128 0.59775 0.0
C1819 C 0.78851 0.52424 0.63045 0.0
C1820 C 0.78314 0.54081 0.64742 0.0
C1821 C 0.7569 0.55669 0.64959 0.0
C1822 C 0.7522 0.57258 0.66554 0.0
C1823 C 0.77345 0.57255 0.67947 0.0
C1824 C 0.79941 0.55654 0.67751 0.0
C1825 C 0.80424 0.54065 0.66158 0.0
H1826 H 0.76978 0.58488 0.6918 0.0
H1827 H 0.81868 0.43111 0.53733 0.0
H1828 H 0.66695 0.78666 0.09988 0.0
H1829 H 0.61282 0.79409 0.09715 0.0
H1830 H 0.59725 0.7432 0.14619 0.0
H1831 H 0.65078 0.73573 0.14886 0.0
H1832 H 0.55839 0.72469 0.12144 0.0
H1833 H 0.59329 0.82121 0.14419 0.0
H1834 H 0.62412 0.8684 0.1439 0.0
H1835 H 0.5872 0.89121 0.09218 0.0
H1836 H 0.55641 0.84396 0.09206 0.0
H1837 H 0.40689 0.75776 0.14007 0.0
H1838 H 0.46126 0.75241 0.14108 0.0
H1839 H 0.47127 0.80666 0.09291 0.0
H1840 H 0.41717 0.81239 0.09204 0.0
H1841 H 0.51313 0.8235 0.11564 0.0
H1842 H 0.47724 0.72808 0.09302 0.0
H1843 H 0.44646 0.68086 0.09293 0.0
H1844 H 0.48547 0.65562 0.14363 0.0
H1845 H 0.51619 0.70289 0.14415 0.0
C1846 C 0.65197 0.77745 0.11017 0.0
C1847 C 0.66325 0.7604 0.1245 0.0
C1848 C 0.62099 0.78163 0.10861 0.0
C1849 C 0.60071 0.76918 0.12147 0.0
C1850 C 0.61217 0.7528 0.13597 0.0
C1851 C 0.64291 0.74852 0.13747 0.0
C1852 C 0.56751 0.77235 0.11984 0.0
C1853 C 0.54853 0.74636 0.12037 0.0
C1854 C 0.55441 0.80047 0.11794 0.0
C1855 C 0.5728 0.82892 0.11804 0.0
C1856 C 0.59192 0.83619 0.1327 0.0
C1857 C 0.60935 0.86297 0.13262 0.0
C1858 C 0.60769 0.88275 0.11801 0.0
C1859 C 0.58851 0.87584 0.10347 0.0
C1860 C 0.57104 0.84908 0.10348 0.0
C1861 C 0.42063 0.76829 0.1296 0.0
C1862 C 0.40752 0.78556 0.116 0.0
C1863 C 0.45181 0.76522 0.13017 0.0
C1864 C 0.47063 0.7789 0.11697 0.0
C1865 C 0.45748 0.79597 0.10333 0.0
C1866 C 0.42642 0.79926 0.10285 0.0
C1867 C 0.50397 0.77584 0.11744 0.0
C1868 C 0.52297 0.80181 0.11665 0.0
C1869 C 0.51713 0.74768 0.11903 0.0
C1870 C 0.49881 0.71915 0.1187 0.0
C1871 C 0.4791 0.71255 0.10421 0.0
C1872 C 0.46169 0.68576 0.10407 0.0
C1873 C 0.46395 0.66529 0.11828 0.0
C1874 C 0.48371 0.67152 0.13264 0.0
C1875 C 0.50115 0.69829 0.13286 0.0
H1876 H 0.45044 0.64457 0.11815 0.0
H1877 H 0.6212 0.90347 0.11797 0.0
H1878 H 0.23081 0.39748 0.61522 0.0
H1879 H 0.22129 0.45105 0.61731 0.0
H1880 H 0.31653 0.47194 0.61872 0.0
H1881 H 0.32605 0.4187 0.61701 0.0
H1882 H 0.28824 0.50604 0.64247 0.0
H1883 H 0.27595 0.47916 0.57973 0.0
H1884 H 0.25438 0.45005 0.55413 0.0
H1885 H 0.16649 0.47813 0.5676 0.0
H1886 H 0.1875 0.50708 0.59345 0.0
H1887 H 0.28989 0.6612 0.62111 0.0
H1888 H 0.29745 0.6074 0.62029 0.0
H1889 H 0.20193 0.58982 0.61589 0.0
H1890 H 0.1943 0.64344 0.61593 0.0
H1891 H 0.22911 0.55365 0.59421 0.0
H1892 H 0.24116 0.5813 0.65659 0.0
H1893 H 0.26243 0.61016 0.68237 0.0
H1894 H 0.35015 0.58049 0.66995 0.0
H1895 H 0.32945 0.55175 0.64394 0.0
C1896 C 0.24967 0.41347 0.61623 0.0
C1897 C 0.2792 0.40374 0.61578 0.0
C1898 C 0.24424 0.44414 0.61726 0.0
C1899 C 0.26821 0.46571 0.61791 0.0
C1900 C 0.29763 0.45589 0.61815 0.0
C1901 C 0.30305 0.42537 0.61703 0.0
C1902 C 0.26293 0.49853 0.61791 0.0
C1903 C 0.27554 0.51647 0.63182 0.0
C1904 C 0.24589 0.51224 0.60423 0.0
C1905 C 0.23325 0.49501 0.58863 0.0
C1906 C 0.25199 0.47894 0.57731 0.0
C1907 C 0.23988 0.4625 0.56275 0.0
C1908 C 0.20907 0.46217 0.55928 0.0
C1909 C 0.19034 0.47836 0.57033 0.0
C1910 C 0.20234 0.4948 0.58493 0.0
C1911 C 0.27048 0.64599 0.61975 0.0
C1912 C 0.24143 0.65696 0.61874 0.0
C1913 C 0.27482 0.61508 0.61949 0.0
C1914 C 0.25023 0.59431 0.61836 0.0
C1915 C 0.22131 0.60522 0.61689 0.0
C1916 C 0.21696 0.63605 0.61709 0.0
C1917 C 0.25448 0.56126 0.61877 0.0
C1918 C 0.2417 0.54325 0.60492 0.0
C1919 C 0.27131 0.54747 0.63254 0.0
C1920 C 0.2838 0.56461 0.64822 0.0
C1921 C 0.26502 0.5811 0.65928 0.0
C1922 C 0.27697 0.59741 0.67394 0.0
C1923 C 0.30764 0.59722 0.67776 0.0
C1924 C 0.32641 0.58065 0.66696 0.0
C1925 C 0.31458 0.56432 0.65226 0.0
H1926 H 0.31684 0.60987 0.68912 0.0
H1927 H 0.19973 0.44942 0.54799 0.0
H1928 H 0.61678 0.70847 0.86615 0.0
H1929 H 0.56422 0.71904 0.86678 0.0
H1930 H 0.58675 0.81148 0.87914 0.0
H1931 H 0.64002 0.80088 0.87937 0.0
H1932 H 0.53978 0.79321 0.89855 0.0
H1933 H 0.56354 0.78795 0.83585 0.0
H1934 H 0.58394 0.76644 0.80804 0.0
H1935 H 0.52299 0.68982 0.81319 0.0
H1936 H 0.50251 0.71068 0.8412 0.0
H1937 H 0.39408 0.84259 0.87492 0.0
H1938 H 0.44781 0.83409 0.87588 0.0
H1939 H 0.42892 0.7391 0.87066 0.0
H1940 H 0.37493 0.74754 0.86964 0.0
H1941 H 0.47412 0.76048 0.84731 0.0
H1942 H 0.45081 0.76728 0.9106 0.0
H1943 H 0.43049 0.79065 0.93786 0.0
H1944 H 0.49079 0.86726 0.93051 0.0
H1945 H 0.51118 0.84452 0.90304 0.0
C1946 C 0.61104 0.73109 0.86922 0.0
C1947 C 0.63341 0.75371 0.87275 0.0
C1948 C 0.58057 0.73719 0.86935 0.0
C1949 C 0.5712 0.76621 0.87267 0.0
C1950 C 0.59324 0.78888 0.87643 0.0
C1951 C 0.62391 0.78276 0.87644 0.0
C1952 C 0.53844 0.77254 0.87224 0.0
C1953 C 0.52558 0.78646 0.88719 0.0
C1954 C 0.5195 0.76336 0.8576 0.0
C1955 C 0.53167 0.75077 0.84072 0.0
C1956 C 0.55463 0.76641 0.83113 0.0
C1957 C 0.56619 0.75435 0.81532 0.0
C1958 C 0.55482 0.72675 0.80887 0.0
C1959 C 0.53181 0.71119 0.81821 0.0
C1960 C 0.52019 0.72313 0.83405 0.0
C1961 C 0.4013 0.81987 0.87395 0.0
C1962 C 0.38007 0.79575 0.87216 0.0
C1963 C 0.4321 0.81502 0.87463 0.0
C1964 C 0.44258 0.78592 0.87343 0.0
C1965 C 0.42147 0.76176 0.87164 0.0
C1966 C 0.39057 0.76658 0.87118 0.0
C1967 C 0.47553 0.78087 0.87366 0.0
C1968 C 0.48839 0.76725 0.85864 0.0
C1969 C 0.49448 0.79064 0.88812 0.0
C1970 C 0.4823 0.80433 0.90465 0.0
C1971 C 0.45955 0.78923 0.9147 0.0
C1972 C 0.44806 0.80234 0.93021 0.0
C1973 C 0.45929 0.83046 0.93589 0.0
C1974 C 0.48209 0.8455 0.92609 0.0
C1975 C 0.49364 0.8325 0.91055 0.0
H1976 H 0.45037 0.84057 0.9479 0.0
H1977 H 0.56379 0.71745 0.79663 0.0
H1978 H 0.2396 0.35956 0.38643 0.0
H1979 H 0.23137 0.41347 0.38779 0.0
H1980 H 0.3064 0.43091 0.35213 0.0
H1981 H 0.31432 0.37761 0.35038 0.0
H1982 H 0.30918 0.46827 0.38107 0.0
H1983 H 0.23529 0.43502 0.33684 0.0
H1984 H 0.19189 0.40416 0.32574 0.0
H1985 H 0.13713 0.43831 0.36795 0.0
H1986 H 0.18036 0.46907 0.37946 0.0
H1987 H 0.29067 0.62096 0.3576 0.0
H1988 H 0.29661 0.56671 0.35761 0.0
H1989 H 0.21397 0.55385 0.38733 0.0
H1990 H 0.20764 0.60782 0.38686 0.0
H1991 H 0.21427 0.51355 0.36282 0.0
H1992 H 0.28688 0.54752 0.40697 0.0
H1993 H 0.33001 0.57793 0.41884 0.0
H1994 H 0.38683 0.54202 0.37827 0.0
H1995 H 0.34393 0.51168 0.36601 0.0
C1996 C 0.25412 0.37482 0.37872 0.0
C1997 C 0.27785 0.36397 0.36846 0.0
C1998 C 0.24946 0.4057 0.37955 0.0
C1999 C 0.26836 0.4264 0.37011 0.0
C2000 C 0.29171 0.41555 0.3597 0.0
C2001 C 0.29627 0.38487 0.35879 0.0
C2002 C 0.26432 0.45939 0.37106 0.0
C2003 C 0.2885 0.47819 0.37692 0.0
C2004 C 0.23716 0.47243 0.36609 0.0
C2005 C 0.21113 0.45409 0.35913 0.0
C2006 C 0.21405 0.43576 0.34384 0.0
C2007 C 0.18948 0.41833 0.33746 0.0
C2008 C 0.16179 0.41921 0.34617 0.0
C2009 C 0.15861 0.43761 0.36124 0.0
C2010 C 0.18313 0.45506 0.36769 0.0
C2011 C 0.27395 0.60655 0.36427 0.0
C2012 C 0.24867 0.61878 0.3722 0.0
C2013 C 0.27735 0.57547 0.36431 0.0
C2014 C 0.25592 0.55589 0.37266 0.0
C2015 C 0.23081 0.56821 0.38071 0.0
C2016 C 0.22721 0.59917 0.38044 0.0
C2017 C 0.25924 0.52263 0.37278 0.0
C2018 C 0.23493 0.50373 0.3671 0.0
C2019 C 0.28624 0.50945 0.37807 0.0
C2020 C 0.31212 0.52754 0.38547 0.0
C2021 C 0.30852 0.54626 0.40051 0.0
C2022 C 0.33294 0.56347 0.40731 0.0
C2023 C 0.36112 0.56197 0.39928 0.0
C2024 C 0.36497 0.54319 0.38446 0.0
C2025 C 0.34062 0.52596 0.37759 0.0
H2026 H 0.37999 0.57531 0.40457 0.0
H2027 H 0.14279 0.4057 0.34121 0.0
H2028 H 0.38489 0.23287 0.87025 0.0
H2029 H 0.43832 0.22369 0.86685 0.0
H2030 H 0.46004 0.31789 0.87395 0.0
H2031 H 0.40699 0.32731 0.87659 0.0
H2032 H 0.49396 0.29802 0.84863 0.0
H2033 H 0.46805 0.26435 0.90867 0.0
H2034 H 0.43949 0.23466 0.93152 0.0
H2035 H 0.46671 0.15334 0.90696 0.0
H2036 H 0.49512 0.18256 0.88381 0.0
H2037 H 0.64977 0.29152 0.86881 0.0
H2038 H 0.59587 0.29872 0.87101 0.0
H2039 H 0.57779 0.20448 0.86167 0.0
H2040 H 0.63149 0.19698 0.86001 0.0
H2041 H 0.54193 0.22315 0.88752 0.0
H2042 H 0.56902 0.25764 0.82785 0.0
H2043 H 0.59791 0.28793 0.80544 0.0
H2044 H 0.56871 0.36856 0.8299 0.0
H2045 H 0.53995 0.33873 0.85262 0.0
C2046 C 0.40098 0.25168 0.87088 0.0
C2047 C 0.39137 0.28082 0.87393 0.0
C2048 C 0.43167 0.24637 0.86911 0.0
C2049 C 0.45354 0.27001 0.87046 0.0
C2050 C 0.44386 0.29916 0.87296 0.0
C2051 C 0.41333 0.30448 0.87466 0.0
C2052 C 0.48648 0.2647 0.86945 0.0
C2053 C 0.50442 0.28185 0.8573 0.0
C2054 C 0.50038 0.24324 0.88046 0.0
C2055 C 0.48343 0.22564 0.8944 0.0
C2056 C 0.46776 0.24013 0.90807 0.0
C2057 C 0.45163 0.22339 0.92108 0.0
C2058 C 0.45121 0.19213 0.92066 0.0
C2059 C 0.467 0.17755 0.90725 0.0
C2060 C 0.48314 0.19419 0.89419 0.0
C2061 C 0.63441 0.27225 0.86738 0.0
C2062 C 0.64527 0.24368 0.86408 0.0
C2063 C 0.60345 0.27645 0.86848 0.0
C2064 C 0.58249 0.25223 0.86624 0.0
C2065 C 0.59331 0.22362 0.86336 0.0
C2066 C 0.62419 0.21941 0.86224 0.0
C2067 C 0.54937 0.2566 0.86679 0.0
C2068 C 0.53142 0.23927 0.87883 0.0
C2069 C 0.53547 0.27798 0.85575 0.0
C2070 C 0.55257 0.29595 0.84203 0.0
C2071 C 0.56893 0.28183 0.82852 0.0
C2072 C 0.58525 0.29892 0.81575 0.0
C2073 C 0.58521 0.33015 0.81627 0.0
C2074 C 0.56876 0.34437 0.82953 0.0
C2075 C 0.55242 0.32738 0.84235 0.0
H2076 H 0.59787 0.34335 0.80638 0.0
H2077 H 0.43871 0.17921 0.93074 0.0
H2078 H 0.74426 0.39469 0.35052 0.0
H2079 H 0.73941 0.44929 0.34894 0.0
H2080 H 0.80998 0.46165 0.38855 0.0
H2081 H 0.81524 0.40732 0.38988 0.0
H2082 H 0.75728 0.49788 0.39408 0.0
H2083 H 0.82957 0.47334 0.34846 0.0
H2084 H 0.84692 0.4458 0.32189 0.0
H2085 H 0.77474 0.4788 0.29007 0.0
H2086 H 0.75668 0.50618 0.31657 0.0
H2087 H 0.78284 0.65539 0.3832 0.0
H2088 H 0.79007 0.60175 0.3864 0.0
H2089 H 0.74241 0.58534 0.33625 0.0
H2090 H 0.73702 0.63857 0.33231 0.0
H2091 H 0.78472 0.55039 0.33684 0.0
H2092 H 0.71056 0.57359 0.38089 0.0
H2093 H 0.68988 0.6001 0.40694 0.0
H2094 H 0.76017 0.56895 0.44101 0.0
H2095 H 0.7815 0.54255 0.41509 0.0
C2096 C 0.75846 0.40909 0.35901 0.0
C2097 C 0.78023 0.39677 0.37024 0.0
C2098 C 0.75578 0.44024 0.35806 0.0
C2099 C 0.77443 0.45959 0.36859 0.0
C2100 C 0.79537 0.44722 0.38032 0.0
C2101 C 0.79847 0.41619 0.38098 0.0
C2102 C 0.77306 0.49275 0.36683 0.0
C2103 C 0.76355 0.50947 0.38164 0.0
C2104 C 0.78065 0.50781 0.3505 0.0
C2105 C 0.79159 0.49153 0.33455 0.0
C2106 C 0.81724 0.4745 0.33585 0.0
C2107 C 0.82723 0.45897 0.32079 0.0
C2108 C 0.81189 0.46048 0.30431 0.0
C2109 C 0.78657 0.47761 0.30285 0.0
C2110 C 0.77645 0.49315 0.31788 0.0
C2111 C 0.77429 0.6405 0.37269 0.0
C2112 C 0.75897 0.65176 0.35759 0.0
C2113 C 0.77808 0.60961 0.37467 0.0
C2114 C 0.76618 0.58909 0.36178 0.0
C2115 C 0.7517 0.6004 0.34649 0.0
C2116 C 0.74831 0.63116 0.34437 0.0
C2117 C 0.76851 0.5559 0.36406 0.0
C2118 C 0.77833 0.53903 0.34933 0.0
C2119 C 0.76065 0.54068 0.38038 0.0
C2120 C 0.7478 0.55637 0.39601 0.0
C2121 C 0.72171 0.57256 0.39391 0.0
C2122 C 0.70986 0.58755 0.40865 0.0
C2123 C 0.72376 0.58629 0.4256 0.0
C2124 C 0.74947 0.56995 0.42786 0.0
C2125 C 0.76144 0.55496 0.41315 0.0
H2126 H 0.71455 0.59791 0.437 0.0
H2127 H 0.81967 0.44844 0.29267 0.0
H2128 H 0.29997 0.24269 0.31602 0.0
H2129 H 0.295 0.2436 0.28322 0.0
H2130 H 0.19855 0.23878 0.28824 0.0
H2131 H 0.20356 0.23933 0.32137 0.0
H2132 H 0.27478 0.20688 0.25985 0.0
H2133 H 0.16691 0.2723 0.25195 0.0
H2134 H 0.13886 0.31007 0.26831 0.0
H2135 H 0.22026 0.34335 0.29381 0.0
H2136 H 0.24881 0.30604 0.27743 0.0
H2137 H 0.24252 0.20965 0.16529 0.0
H2138 H 0.23825 0.2024 0.19813 0.0
H2139 H 0.25375 0.29752 0.20607 0.0
H2140 H 0.25631 0.30487 0.17341 0.0
H2141 H 0.21348 0.28037 0.2279 0.0
H2142 H 0.30958 0.24285 0.21252 0.0
H2143 H 0.3444 0.21091 0.19646 0.0
H2144 H 0.29857 0.13225 0.21807 0.0
H2145 H 0.26325 0.16375 0.23409 0.0
C2146 C 0.27766 0.2419 0.31016 0.0
C2147 C 0.25213 0.24107 0.32123 0.0
C2148 C 0.27484 0.24226 0.29137 0.0
C2149 C 0.24641 0.24139 0.28316 0.0
C2150 C 0.22076 0.24001 0.29421 0.0
C2151 C 0.2236 0.24025 0.31312 0.0
C2152 C 0.24415 0.2424 0.26305 0.0
C2153 C 0.26125 0.22289 0.25288 0.0
C2154 C 0.22678 0.26343 0.25386 0.0
C2155 C 0.20989 0.28614 0.26364 0.0
C2156 C 0.1788 0.28773 0.26102 0.0
C2157 C 0.16283 0.30905 0.2703 0.0
C2158 C 0.17775 0.32902 0.28215 0.0
C2159 C 0.20871 0.3278 0.28469 0.0
C2160 C 0.22479 0.30655 0.27542 0.0
C2161 C 0.24505 0.22891 0.17411 0.0
C2162 C 0.24984 0.25779 0.16686 0.0
C2163 C 0.24268 0.22479 0.19287 0.0
C2164 C 0.24599 0.24938 0.20469 0.0
C2165 C 0.25088 0.27818 0.19733 0.0
C2166 C 0.25253 0.28236 0.17864 0.0
C2167 C 0.24485 0.24547 0.22471 0.0
C2168 C 0.22683 0.2642 0.23486 0.0
C2169 C 0.26238 0.2246 0.23392 0.0
C2170 C 0.28358 0.20563 0.22432 0.0
C2171 C 0.30681 0.21873 0.21374 0.0
C2172 C 0.32665 0.20072 0.20466 0.0
C2173 C 0.32364 0.16957 0.2062 0.0
C2174 C 0.30083 0.15638 0.21686 0.0
C2175 C 0.28091 0.1743 0.22595 0.0
H2176 H 0.33902 0.15566 0.19916 0.0
H2177 H 0.16534 0.34548 0.28933 0.0
H2178 H 0.85374 0.27416 0.81801 0.0
H2179 H 0.86255 0.2623 0.78627 0.0
H2180 H 0.77612 0.2152 0.78344 0.0
H2181 H 0.76769 0.2261 0.81548 0.0
H2182 H 0.81513 0.18785 0.76278 0.0
H2183 H 0.78538 0.28855 0.77013 0.0
H2184 H 0.78783 0.33953 0.78288 0.0
H2185 H 0.87654 0.35466 0.76146 0.0
H2186 H 0.87481 0.30355 0.74884 0.0
H2187 H 0.78425 0.21249 0.66878 0.0
H2188 H 0.78534 0.20874 0.70177 0.0
H2189 H 0.87571 0.24716 0.70239 0.0
H2190 H 0.87483 0.25105 0.66934 0.0
H2191 H 0.83714 0.27713 0.72418 0.0
H2192 H 0.86284 0.17531 0.71426 0.0
H2193 H 0.85647 0.1249 0.70095 0.0
H2194 H 0.77024 0.11284 0.72618 0.0
H2195 H 0.77589 0.16337 0.73942 0.0
C2196 C 0.83681 0.26089 0.81069 0.0
C2197 C 0.80987 0.25137 0.81912 0.0
C2198 C 0.84183 0.25417 0.79254 0.0
C2199 C 0.81968 0.2385 0.78233 0.0
C2200 C 0.79348 0.22744 0.79101 0.0
C2201 C 0.78866 0.23372 0.8093 0.0
C2202 C 0.82289 0.23576 0.76239 0.0
C2203 C 0.81973 0.20738 0.75432 0.0
C2204 C 0.82911 0.26122 0.75133 0.0
C2205 C 0.83008 0.29212 0.7587 0.0
C2206 C 0.80548 0.30268 0.76824 0.0
C2207 C 0.80674 0.3316 0.77544 0.0
C2208 C 0.83235 0.35029 0.77302 0.0
C2209 C 0.85673 0.34013 0.76335 0.0
C2210 C 0.85563 0.31119 0.75617 0.0
C2211 C 0.80459 0.21961 0.67589 0.0
C2212 C 0.8294 0.23226 0.66643 0.0
C2213 C 0.8052 0.21734 0.69476 0.0
C2214 C 0.83061 0.22764 0.70453 0.0
C2215 C 0.85588 0.23906 0.69508 0.0
C2216 C 0.85538 0.24115 0.67619 0.0
C2217 C 0.82967 0.22922 0.72457 0.0
C2218 C 0.83297 0.25752 0.73266 0.0
C2219 C 0.82301 0.20377 0.73553 0.0
C2220 C 0.8197 0.17324 0.72772 0.0
C2221 C 0.84242 0.162 0.71686 0.0
C2222 C 0.83896 0.13338 0.70935 0.0
C2223 C 0.81294 0.1157 0.71268 0.0
C2224 C 0.79037 0.12657 0.72359 0.0
C2225 C 0.79371 0.15518 0.73113 0.0
H2226 H 0.8103 0.09356 0.70684 0.0
H2227 H 0.83328 0.37267 0.7786 0.0
H2228 H 0.79283 0.83834 0.16678 0.0
H2229 H 0.80013 0.84946 0.19915 0.0
H2230 H 0.79597 0.75478 0.21102 0.0
H2231 H 0.78976 0.74372 0.17902 0.0
H2232 H 0.76922 0.84081 0.22809 0.0
H2233 H 0.84086 0.7359 0.24437 0.0
H2234 H 0.88039 0.70836 0.22936 0.0
H2235 H 0.90213 0.78471 0.19573 0.0
H2236 H 0.86349 0.81305 0.21091 0.0
H2237 H 0.73789 0.788 0.31326 0.0
H2238 H 0.74829 0.79738 0.28152 0.0
H2239 H 0.8428 0.80927 0.29353 0.0
H2240 H 0.83241 0.79817 0.32564 0.0
H2241 H 0.83821 0.78043 0.26446 0.0
H2242 H 0.79806 0.87033 0.28138 0.0
H2243 H 0.7645 0.9051 0.2961 0.0
H2244 H 0.69114 0.87198 0.26296 0.0
H2245 H 0.7241 0.83664 0.24824 0.0
C2246 C 0.79347 0.82 0.17637 0.0
C2247 C 0.79099 0.79018 0.17038 0.0
C2248 C 0.79769 0.82635 0.19483 0.0
C2249 C 0.79937 0.80295 0.20753 0.0
C2250 C 0.79578 0.77325 0.2015 0.0
C2251 C 0.79197 0.76694 0.18317 0.0
C2252 C 0.80388 0.80892 0.22719 0.0
C2253 C 0.78449 0.82785 0.23604 0.0
C2254 C 0.82506 0.7934 0.23755 0.0
C2255 C 0.84906 0.77659 0.22875 0.0
C2256 C 0.85429 0.74696 0.23393 0.0
C2257 C 0.87657 0.73119 0.22538 0.0
C2258 C 0.8938 0.74477 0.21161 0.0
C2259 C 0.88885 0.7742 0.20642 0.0
C2260 C 0.86677 0.79015 0.21501 0.0
C2261 C 0.76092 0.7928 0.30922 0.0
C2262 C 0.78433 0.7926 0.32196 0.0
C2263 C 0.76684 0.79847 0.29102 0.0
C2264 C 0.79626 0.80501 0.28507 0.0
C2265 C 0.81986 0.80459 0.29776 0.0
C2266 C 0.81395 0.79826 0.31608 0.0
C2267 C 0.80186 0.81049 0.26541 0.0
C2268 C 0.82334 0.79388 0.25654 0.0
C2269 C 0.78366 0.82937 0.25503 0.0
C2270 C 0.76361 0.85073 0.26372 0.0
C2271 C 0.77474 0.87033 0.27729 0.0
C2272 C 0.75581 0.89016 0.28563 0.0
C2273 C 0.72571 0.89074 0.28047 0.0
C2274 C 0.71448 0.87152 0.26693 0.0
C2275 C 0.7333 0.85162 0.25855 0.0
H2276 H 0.71109 0.9061 0.28696 0.0
H2277 H 0.91097 0.7325 0.20497 0.0
H2278 H 0.17538 0.76693 0.82284 0.0
H2279 H 0.17253 0.77536 0.79017 0.0
H2280 H 0.25862 0.82321 0.79168 0.0
H2281 H 0.26117 0.81566 0.82445 0.0
H2282 H 0.22368 0.84517 0.76487 0.0
H2283 H 0.25549 0.74905 0.78523 0.0
H2284 H 0.25073 0.70177 0.80249 0.0
H2285 H 0.16922 0.67751 0.77402 0.0
H2286 H 0.17332 0.72488 0.75675 0.0
H2287 H 0.27917 0.7497 0.68531 0.0
H2288 H 0.26829 0.75963 0.71678 0.0
H2289 H 0.20053 0.82028 0.70058 0.0
H2290 H 0.21213 0.81091 0.66853 0.0
H2291 H 0.21973 0.74642 0.73426 0.0
H2292 H 0.19324 0.8712 0.73649 0.0
H2293 H 0.20548 0.91805 0.71978 0.0
H2294 H 0.28951 0.88392 0.70331 0.0
H2295 H 0.27794 0.83708 0.7201 0.0
C2296 C 0.19335 0.7799 0.81627 0.0
C2297 C 0.21874 0.79016 0.82611 0.0
C2298 C 0.19166 0.78477 0.79762 0.0
C2299 C 0.21566 0.79935 0.78844 0.0
C2300 C 0.23986 0.81186 0.79848 0.0
C2301 C 0.24135 0.80741 0.8172 0.0
C2302 C 0.21776 0.79742 0.76843 0.0
C2303 C 0.22252 0.82364 0.75811 0.0
C2304 C 0.21687 0.76929 0.75966 0.0
C2305 C 0.21452 0.74063 0.76986 0.0
C2306 C 0.23646 0.73371 0.78274 0.0
C2307 C 0.23389 0.7069 0.79252 0.0
C2308 C 0.20964 0.6867 0.7894 0.0
C2309 C 0.18796 0.69321 0.77645 0.0
C2310 C 0.19039 0.72003 0.76666 0.0
C2311 C 0.26198 0.76526 0.68835 0.0
C2312 C 0.24624 0.77928 0.67443 0.0
C2313 C 0.25576 0.7709 0.7064 0.0
C2314 C 0.23342 0.79048 0.71111 0.0
C2315 C 0.21799 0.80518 0.69727 0.0
C2316 C 0.22456 0.7998 0.67901 0.0
C2317 C 0.22613 0.79414 0.73057 0.0
C2318 C 0.22028 0.76809 0.74087 0.0
C2319 C 0.22712 0.82233 0.73929 0.0
C2320 C 0.23452 0.85052 0.72935 0.0
C2321 C 0.21435 0.87375 0.72933 0.0
C2322 C 0.22117 0.90029 0.71985 0.0
C2323 C 0.24819 0.90391 0.71043 0.0
C2324 C 0.26852 0.88104 0.71054 0.0
C2325 C 0.26182 0.85448 0.72002 0.0
H2326 H 0.25342 0.92446 0.70308 0.0
H2327 H 0.20769 0.66596 0.79699 0.0
H2328 H 0.78925 0.79898 0.81879 0.0
H2329 H 0.79708 0.78883 0.78659 0.0
H2330 H 0.70153 0.77733 0.77874 0.0
H2331 H 0.69346 0.78827 0.81087 0.0
H2332 H 0.74144 0.72703 0.76744 0.0
H2333 H 0.72826 0.8337 0.76088 0.0
H2334 H 0.74002 0.88685 0.76785 0.0
H2335 H 0.83108 0.87747 0.75101 0.0
H2336 H 0.81996 0.82412 0.74419 0.0
H2337 H 0.72638 0.71011 0.67308 0.0
H2338 H 0.72413 0.72136 0.70518 0.0
H2339 H 0.81298 0.76343 0.70284 0.0
H2340 H 0.81486 0.75329 0.6703 0.0
H2341 H 0.7798 0.79793 0.72029 0.0
H2342 H 0.79584 0.69441 0.72525 0.0
H2343 H 0.78905 0.64012 0.71994 0.0
H2344 H 0.69998 0.64072 0.74163 0.0
H2345 H 0.70597 0.69515 0.74673 0.0
C2346 C 0.76988 0.79501 0.8101 0.0
C2347 C 0.74072 0.79459 0.81731 0.0
C2348 C 0.7744 0.78913 0.79175 0.0
C2349 C 0.74989 0.78221 0.78036 0.0
C2350 C 0.72071 0.78264 0.78736 0.0
C2351 C 0.71613 0.78915 0.80566 0.0
C2352 C 0.75488 0.77274 0.76143 0.0
C2353 C 0.74939 0.74251 0.75699 0.0
C2354 C 0.76671 0.79275 0.74817 0.0
C2355 C 0.77336 0.82483 0.75222 0.0
C2356 C 0.75087 0.84289 0.75884 0.0
C2357 C 0.7574 0.87307 0.76272 0.0
C2358 C 0.7863 0.88551 0.75993 0.0
C2359 C 0.80871 0.8678 0.75319 0.0
C2360 C 0.8023 0.8376 0.7493 0.0
C2361 C 0.74575 0.72127 0.67939 0.0
C2362 C 0.77085 0.73076 0.66905 0.0
C2363 C 0.74446 0.72761 0.69787 0.0
C2364 C 0.76848 0.74303 0.70661 0.0
C2365 C 0.79409 0.75155 0.69646 0.0
C2366 C 0.79524 0.74555 0.67786 0.0
C2367 C 0.76582 0.75202 0.72597 0.0
C2368 C 0.77189 0.7822 0.73061 0.0
C2369 C 0.7552 0.73172 0.73955 0.0
C2370 C 0.75127 0.699 0.73621 0.0
C2371 C 0.77467 0.68306 0.7287 0.0
C2372 C 0.77098 0.65223 0.72576 0.0
C2373 C 0.74408 0.63699 0.73041 0.0
C2374 C 0.72079 0.65256 0.73801 0.0
C2375 C 0.72432 0.68341 0.74093 0.0
H2376 H 0.74131 0.61311 0.72817 0.0
H2377 H 0.79131 0.90889 0.76294 0.0
H2378 H 0.31316 0.74938 0.18204 0.0
H2379 H 0.30158 0.75356 0.21409 0.0
H2380 H 0.25274 0.83274 0.20342 0.0
H2381 H 0.26382 0.82845 0.17093 0.0
H2382 H 0.29562 0.82808 0.23846 0.0
H2383 H 0.20864 0.78629 0.20759 0.0
H2384 H 0.18418 0.75404 0.18432 0.0
H2385 H 0.21863 0.67628 0.20985 0.0
H2386 H 0.2439 0.70815 0.23303 0.0
H2387 H 0.21256 0.76423 0.32349 0.0
H2388 H 0.21014 0.7785 0.29133 0.0
H2389 H 0.30311 0.7585 0.28507 0.0
H2390 H 0.30566 0.74397 0.31684 0.0
H2391 H 0.22547 0.74503 0.25833 0.0
H2392 H 0.33555 0.81961 0.26277 0.0
H2393 H 0.36272 0.84995 0.28591 0.0
H2394 H 0.28008 0.8632 0.31372 0.0
H2395 H 0.25228 0.83404 0.29039 0.0
C2396 C 0.30046 0.76809 0.18647 0.0
C2397 C 0.28914 0.78844 0.17393 0.0
C2398 C 0.29389 0.77042 0.20481 0.0
C2399 C 0.27609 0.79324 0.21099 0.0
C2400 C 0.26652 0.81497 0.1988 0.0
C2401 C 0.2729 0.8125 0.1803 0.0
C2402 C 0.26543 0.79197 0.22989 0.0
C2403 C 0.27986 0.81038 0.24285 0.0
C2404 C 0.24449 0.76909 0.23545 0.0
C2405 C 0.2283 0.74965 0.222 0.0
C2406 C 0.21114 0.76233 0.20818 0.0
C2407 C 0.19714 0.74412 0.195 0.0
C2408 C 0.19987 0.71314 0.19559 0.0
C2409 C 0.21653 0.70029 0.20941 0.0
C2410 C 0.23068 0.71842 0.22259 0.0
C2411 C 0.23235 0.76257 0.31517 0.0
C2412 C 0.25933 0.75308 0.32269 0.0
C2413 C 0.2309 0.77068 0.29685 0.0
C2414 C 0.25654 0.76985 0.28596 0.0
C2415 C 0.28317 0.75955 0.29333 0.0
C2416 C 0.28454 0.75117 0.31149 0.0
C2417 C 0.25639 0.78056 0.26699 0.0
C2418 C 0.24027 0.76358 0.254 0.0
C2419 C 0.27543 0.80506 0.26142 0.0
C2420 C 0.29184 0.82438 0.27486 0.0
C2421 C 0.3231 0.82935 0.27367 0.0
C2422 C 0.33863 0.84638 0.28683 0.0
C2423 C 0.32315 0.8585 0.30128 0.0
C2424 C 0.29207 0.85388 0.3025 0.0
C2425 C 0.27641 0.83716 0.28929 0.0
H2426 H 0.33523 0.87148 0.31152 0.0
H2427 H 0.18906 0.69908 0.18536 0.0
H2428 H 0.28238 0.26723 0.66865 0.0
H2429 H 0.28666 0.25761 0.7008 0.0
H2430 H 0.20078 0.29533 0.70974 0.0
H2431 H 0.19623 0.30549 0.67706 0.0
H2432 H 0.24692 0.31398 0.73514 0.0
H2433 H 0.20316 0.22303 0.71032 0.0
H2434 H 0.19948 0.18155 0.68838 0.0
H2435 H 0.2862 0.15351 0.70484 0.0
H2436 H 0.29065 0.19515 0.72667 0.0
H2437 H 0.23405 0.26294 0.82423 0.0
H2438 H 0.22431 0.27021 0.79217 0.0
H2439 H 0.30361 0.2231 0.77901 0.0
H2440 H 0.31305 0.21486 0.81152 0.0
H2441 H 0.25877 0.20927 0.75564 0.0
H2442 H 0.30413 0.3 0.77941 0.0
H2443 H 0.31021 0.34245 0.80055 0.0
H2444 H 0.22334 0.37193 0.78555 0.0
H2445 H 0.21648 0.32934 0.76453 0.0
C2446 C 0.26438 0.27388 0.67733 0.0
C2447 C 0.2389 0.28727 0.67019 0.0
C2448 C 0.26686 0.26812 0.69577 0.0
C2449 C 0.24392 0.2754 0.70761 0.0
C2450 C 0.21869 0.28944 0.70075 0.0
C2451 C 0.21609 0.29517 0.68211 0.0
C2452 C 0.24663 0.26778 0.72707 0.0
C2453 C 0.24891 0.29107 0.73972 0.0
C2454 C 0.25025 0.23792 0.73285 0.0
C2455 C 0.24732 0.21237 0.72006 0.0
C2456 C 0.22153 0.20813 0.7092 0.0
C2457 C 0.2193 0.18458 0.69678 0.0
C2458 C 0.24262 0.16495 0.69519 0.0
C2459 C 0.26816 0.16875 0.70608 0.0
C2460 C 0.27053 0.19231 0.71849 0.0
C2461 C 0.24939 0.25393 0.81454 0.0
C2462 C 0.27462 0.23872 0.82035 0.0
C2463 C 0.24381 0.2582 0.7962 0.0
C2464 C 0.26367 0.24798 0.78319 0.0
C2465 C 0.28815 0.23144 0.78886 0.0
C2466 C 0.29354 0.22671 0.80737 0.0
C2467 C 0.25906 0.25549 0.76381 0.0
C2468 C 0.25654 0.23219 0.75114 0.0
C2469 C 0.25548 0.28541 0.75799 0.0
C2470 C 0.25968 0.31128 0.77049 0.0
C2471 C 0.28622 0.3154 0.7807 0.0
C2472 C 0.28981 0.33951 0.79266 0.0
C2473 C 0.26715 0.35985 0.79442 0.0
C2474 C 0.24086 0.35614 0.78419 0.0
C2475 C 0.23712 0.33203 0.77224 0.0
H2476 H 0.26998 0.37851 0.80367 0.0
H2477 H 0.24087 0.14677 0.68554 0.0
H2478 H 0.8133 0.24057 0.32358 0.0
H2479 H 0.81551 0.22924 0.29105 0.0
H2480 H 0.73362 0.27507 0.28249 0.0
H2481 H 0.73109 0.28601 0.31466 0.0
H2482 H 0.73082 0.22188 0.26625 0.0
H2483 H 0.80304 0.30626 0.2711 0.0
H2484 H 0.84914 0.3325 0.2824 0.0
H2485 H 0.90201 0.26283 0.2612 0.0
H2486 H 0.85613 0.23598 0.24998 0.0
H2487 H 0.71986 0.27682 0.17825 0.0
H2488 H 0.7269 0.26807 0.21056 0.0
H2489 H 0.79968 0.21085 0.19904 0.0
H2490 H 0.79242 0.21932 0.16637 0.0
H2491 H 0.81325 0.25665 0.22538 0.0
H2492 H 0.74011 0.17795 0.2153 0.0
H2493 H 0.69339 0.15414 0.20317 0.0
H2494 H 0.64156 0.21473 0.23377 0.0
H2495 H 0.68797 0.23921 0.24588 0.0
C2496 C 0.79598 0.24843 0.31469 0.0
C2497 C 0.77199 0.26411 0.32168 0.0
C2498 C 0.79724 0.24193 0.29613 0.0
C2499 C 0.77464 0.25121 0.28434 0.0
C2500 C 0.75114 0.26741 0.29133 0.0
C2501 C 0.74982 0.27378 0.30975 0.0
C2502 C 0.77464 0.24397 0.26472 0.0
C2503 C 0.74886 0.22948 0.25732 0.0
C2504 C 0.79864 0.25285 0.25312 0.0
C2505 C 0.82615 0.26891 0.25994 0.0
C2506 C 0.82447 0.29639 0.26901 0.0
C2507 C 0.85056 0.31141 0.27536 0.0
C2508 C 0.87848 0.29928 0.27259 0.0
C2509 C 0.88036 0.27215 0.26339 0.0
C2510 C 0.85433 0.25703 0.25703 0.0
C2511 C 0.73707 0.26198 0.18256 0.0
C2512 C 0.75554 0.24866 0.16984 0.0
C2513 C 0.74104 0.25696 0.20102 0.0
C2514 C 0.76372 0.23871 0.20718 0.0
C2515 C 0.78198 0.22491 0.19452 0.0
C2516 C 0.77768 0.22959 0.17592 0.0
C2517 C 0.76888 0.2358 0.22693 0.0
C2518 C 0.79558 0.2483 0.23436 0.0
C2519 C 0.74565 0.22529 0.23859 0.0
C2520 C 0.71758 0.2105 0.23145 0.0
C2521 C 0.71876 0.18633 0.21936 0.0
C2522 C 0.69232 0.17269 0.2125 0.0
C2523 C 0.66452 0.18293 0.21768 0.0
C2524 C 0.66311 0.20681 0.22977 0.0
C2525 C 0.68948 0.22054 0.23667 0.0
H2526 H 0.64408 0.17235 0.21235 0.0
H2527 H 0.89865 0.31094 0.2775 0.0
loop_
_geom_bond_atom_site_label_1
_geom_bond_atom_site_label_2
_geom_bond_distance
_geom_bond_site_symmetry_2
_ccdc_geom_bond_type
Co0 N4 2.148 . S
Co0 N10 2.128 . S
Co0 N20 2.194 . S
Co0 O25 2.351 . S
Co0 O26 2.155 . S
Co0 O27 2.096 . S
C1 N4 1.301 . S
C1 N5 1.328 . S
C1 H6 0.930 . S
C2 C3 1.333 . S
C2 N4 1.317 . S
C2 H7 0.930 . S
C3 C2 1.333 . S
C3 N5 1.350 . S
C3 H29 0.931 . S
N4 Co0 2.148 . S
N4 C1 1.301 . S
N4 C2 1.317 . S
N5 C1 1.328 . S
N5 C3 1.350 . S
H6 C1 0.930 . S
H7 C2 0.930 . S
C8 O9 1.224 . S
C8 O27 1.247 . S
O9 C8 1.224 . S
N10 Co0 2.128 . S
N10 C11 1.355 . S
N10 C13 1.311 . S
C11 N10 1.355 . S
C11 C12 1.363 . S
C11 H23 0.929 . S
C12 C11 1.363 . S
C12 N14 1.375 . S
C12 H30 0.931 . S
C13 N10 1.311 . S
C13 N14 1.347 . S
C13 H24 0.929 . S
N14 C12 1.375 . S
N14 C13 1.347 . S
C15 C18 1.365 . S
C15 N20 1.328 . S
C15 H21 0.929 . S
C16 C17 1.362 . S
C16 C19 1.378 . S
C16 H31 0.929 . S
C17 C16 1.362 . S
C17 C18 1.366 . S
C18 C15 1.365 . S
C18 C17 1.366 . S
C18 H32 0.930 . S
C19 C16 1.378 . S
C19 N20 1.315 . S
C19 H22 0.930 . S
N20 Co0 2.194 . S
N20 C15 1.328 . S
N20 C19 1.315 . S
H21 C15 0.929 . S
H22 C19 0.930 . S
H23 C11 0.929 . S
H24 C13 0.929 . S
O25 Co0 2.351 . S
O25 C28 1.244 . S
O26 Co0 2.155 . S
O26 C28 1.240 . S
O27 Co0 2.096 . S
O27 C8 1.247 . S
C28 O25 1.244 . S
C28 O26 1.240 . S
H29 C3 0.931 . S
H30 C12 0.931 . S
H31 C16 0.929 . S
H32 C18 0.930 . S
Co33 N37 2.148 . S
Co33 N43 2.128 . S
Co33 N53 2.194 . S
Co33 O58 2.351 . S
Co33 O59 2.155 . S
Co33 O60 2.096 . S
C34 N37 1.301 . S
C34 N38 1.328 . S
C34 H39 0.930 . S
C35 C36 1.333 . S
C35 N37 1.317 . S
C35 H40 0.930 . S
C36 C35 1.333 . S
C36 N38 1.350 . S
C36 H62 0.931 . S
N37 Co33 2.148 . S
N37 C34 1.301 . S
N37 C35 1.317 . S
N38 C34 1.328 . S
N38 C36 1.350 . S
H39 C34 0.930 . S
H40 C35 0.930 . S
C41 O42 1.224 . S
C41 O60 1.247 . S
O42 C41 1.224 . S
N43 Co33 2.128 . S
N43 C44 1.355 . S
N43 C46 1.311 . S
C44 N43 1.355 . S
C44 C45 1.363 . S
C44 H56 0.929 . S
C45 C44 1.363 . S
C45 N47 1.375 . S
C45 H63 0.931 . S
C46 N43 1.311 . S
C46 N47 1.347 . S
C46 H57 0.929 . S
N47 C45 1.375 . S
N47 C46 1.347 . S
C48 C51 1.365 . S
C48 N53 1.328 . S
C48 H54 0.929 . S
C49 C50 1.362 . S
C49 C52 1.378 . S
C49 H64 0.929 . S
C50 C49 1.362 . S
C50 C51 1.366 . S
C51 C48 1.365 . S
C51 C50 1.366 . S
C51 H65 0.930 . S
C52 C49 1.378 . S
C52 N53 1.315 . S
C52 H55 0.930 . S
N53 Co33 2.194 . S
N53 C48 1.328 . S
N53 C52 1.315 . S
H54 C48 0.929 . S
H55 C52 0.930 . S
H56 C44 0.929 . S
H57 C46 0.929 . S
O58 Co33 2.351 . S
O58 C61 1.244 . S
O59 Co33 2.155 . S
O59 C61 1.240 . S
O60 Co33 2.096 . S
O60 C41 1.247 . S
C61 O58 1.244 . S
C61 O59 1.240 . S
H62 C36 0.931 . S
H63 C45 0.931 . S
H64 C49 0.929 . S
H65 C51 0.930 . S
Co66 N70 2.148 . S
Co66 N76 2.128 . S
Co66 N86 2.194 . S
Co66 O91 2.351 . S
Co66 O92 2.155 . S
Co66 O93 2.096 . S
C67 N70 1.301 . S
C67 N71 1.328 . S
C67 H72 0.930 . S
C68 C69 1.333 . S
C68 N70 1.317 . S
C68 H73 0.930 . S
C69 C68 1.333 . S
C69 N71 1.350 . S
C69 H95 0.931 . S
N70 Co66 2.148 . S
N70 C67 1.301 . S
N70 C68 1.317 . S
N71 C67 1.328 . S
N71 C69 1.350 . S
H72 C67 0.930 . S
H73 C68 0.930 . S
C74 O75 1.224 . S
C74 O93 1.247 . S
O75 C74 1.224 . S
N76 Co66 2.128 . S
N76 C77 1.355 . S
N76 C79 1.311 . S
C77 N76 1.355 . S
C77 C78 1.363 . S
C77 H89 0.929 . S
C78 C77 1.363 . S
C78 N80 1.375 . S
C78 H96 0.931 . S
C79 N76 1.311 . S
C79 N80 1.347 . S
C79 H90 0.929 . S
N80 C78 1.375 . S
N80 C79 1.347 . S
C81 C84 1.365 . S
C81 N86 1.328 . S
C81 H87 0.929 . S
C82 C83 1.362 . S
C82 C85 1.378 . S
C82 H97 0.929 . S
C83 C82 1.362 . S
C83 C84 1.366 . S
C84 C81 1.365 . S
C84 C83 1.366 . S
C84 H98 0.930 . S
C85 C82 1.378 . S
C85 N86 1.315 . S
C85 H88 0.930 . S
N86 Co66 2.194 . S
N86 C81 1.328 . S
N86 C85 1.315 . S
H87 C81 0.929 . S
H88 C85 0.930 . S
H89 C77 0.929 . S
H90 C79 0.929 . S
O91 Co66 2.351 . S
O91 C94 1.244 . S
O92 Co66 2.155 . S
O92 C94 1.240 . S
O93 Co66 2.096 . S
O93 C74 1.247 . S
C94 O91 1.244 . S
C94 O92 1.240 . S
H95 C69 0.931 . S
H96 C78 0.931 . S
H97 C82 0.929 . S
H98 C84 0.930 . S
Co99 N103 2.148 . S
Co99 N109 2.128 . S
Co99 N119 2.194 . S
Co99 O124 2.351 . S
Co99 O125 2.155 . S
Co99 O126 2.096 . S
C100 N103 1.301 . S
C100 N104 1.328 . S
C100 H105 0.930 . S
C101 C102 1.333 . S
C101 N103 1.317 . S
C101 H106 0.930 . S
C102 C101 1.333 . S
C102 N104 1.350 . S
C102 H128 0.931 . S
N103 Co99 2.148 . S
N103 C100 1.301 . S
N103 C101 1.317 . S
N104 C100 1.328 . S
N104 C102 1.350 . S
H105 C100 0.930 . S
H106 C101 0.930 . S
C107 O108 1.224 . S
C107 O126 1.247 . S
O108 C107 1.224 . S
N109 Co99 2.128 . S
N109 C110 1.355 . S
N109 C112 1.311 . S
C110 N109 1.355 . S
C110 C111 1.363 . S
C110 H122 0.929 . S
C111 C110 1.363 . S
C111 N113 1.375 . S
C111 H129 0.931 . S
C112 N109 1.311 . S
C112 N113 1.347 . S
C112 H123 0.929 . S
N113 C111 1.375 . S
N113 C112 1.347 . S
C114 C117 1.365 . S
C114 N119 1.328 . S
C114 H120 0.929 . S
C115 C116 1.362 . S
C115 C118 1.378 . S
C115 H130 0.929 . S
C116 C115 1.362 . S
C116 C117 1.366 . S
C117 C114 1.365 . S
C117 C116 1.366 . S
C117 H131 0.930 . S
C118 C115 1.378 . S
C118 N119 1.315 . S
C118 H121 0.930 . S
N119 Co99 2.194 . S
N119 C114 1.328 . S
N119 C118 1.315 . S
H120 C114 0.929 . S
H121 C118 0.930 . S
H122 C110 0.929 . S
H123 C112 0.929 . S
O124 Co99 2.351 . S
O124 C127 1.244 . S
O125 Co99 2.155 . S
O125 C127 1.240 . S
O126 Co99 2.096 . S
O126 C107 1.247 . S
C127 O124 1.244 . S
C127 O125 1.240 . S
H128 C102 0.931 . S
H129 C111 0.931 . S
H130 C115 0.929 . S
H131 C117 0.930 . S
Co132 N136 2.148 . S
Co132 N142 2.128 . S
Co132 N152 2.194 . S
Co132 O157 2.351 . S
Co132 O158 2.155 . S
Co132 O159 2.096 . S
C133 N136 1.301 . S
C133 N137 1.328 . S
C133 H138 0.930 . S
C134 C135 1.333 . S
C134 N136 1.317 . S
C134 H139 0.930 . S
C135 C134 1.333 . S
C135 N137 1.350 . S
C135 H161 0.931 . S
N136 Co132 2.148 . S
N136 C133 1.301 . S
N136 C134 1.317 . S
N137 C133 1.328 . S
N137 C135 1.350 . S
H138 C133 0.930 . S
H139 C134 0.930 . S
C140 O141 1.224 . S
C140 O159 1.247 . S
O141 C140 1.224 . S
N142 Co132 2.128 . S
N142 C143 1.355 . S
N142 C145 1.311 . S
C143 N142 1.355 . S
C143 C144 1.363 . S
C143 H155 0.929 . S
C144 C143 1.363 . S
C144 N146 1.375 . S
C144 H162 0.931 . S
C145 N142 1.311 . S
C145 N146 1.347 . S
C145 H156 0.929 . S
N146 C144 1.375 . S
N146 C145 1.347 . S
C147 C150 1.365 . S
C147 N152 1.328 . S
C147 H153 0.929 . S
C148 C149 1.362 . S
C148 C151 1.378 . S
C148 H163 0.929 . S
C149 C148 1.362 . S
C149 C150 1.366 . S
C150 C147 1.365 . S
C150 C149 1.366 . S
C150 H164 0.930 . S
C151 C148 1.378 . S
C151 N152 1.315 . S
C151 H154 0.930 . S
N152 Co132 2.194 . S
N152 C147 1.328 . S
N152 C151 1.315 . S
H153 C147 0.929 . S
H154 C151 0.930 . S
H155 C143 0.929 . S
H156 C145 0.929 . S
O157 Co132 2.351 . S
O157 C160 1.244 . S
O158 Co132 2.155 . S
O158 C160 1.240 . S
O159 Co132 2.096 . S
O159 C140 1.247 . S
C160 O157 1.244 . S
C160 O158 1.240 . S
H161 C135 0.931 . S
H162 C144 0.931 . S
H163 C148 0.929 . S
H164 C150 0.930 . S
Co165 N169 2.148 . S
Co165 N175 2.128 . S
Co165 N185 2.194 . S
Co165 O190 2.351 . S
Co165 O191 2.155 . S
Co165 O192 2.096 . S
C166 N169 1.301 . S
C166 N170 1.328 . S
C166 H171 0.930 . S
C167 C168 1.333 . S
C167 N169 1.317 . S
C167 H172 0.930 . S
C168 C167 1.333 . S
C168 N170 1.350 . S
C168 H194 0.931 . S
N169 Co165 2.148 . S
N169 C166 1.301 . S
N169 C167 1.317 . S
N170 C166 1.328 . S
N170 C168 1.350 . S
H171 C166 0.930 . S
H172 C167 0.930 . S
C173 O174 1.224 . S
C173 O192 1.247 . S
O174 C173 1.224 . S
N175 Co165 2.128 . S
N175 C176 1.355 . S
N175 C178 1.311 . S
C176 N175 1.355 . S
C176 C177 1.363 . S
C176 H188 0.929 . S
C177 C176 1.363 . S
C177 N179 1.375 . S
C177 H195 0.931 . S
C178 N175 1.311 . S
C178 N179 1.347 . S
C178 H189 0.929 . S
N179 C177 1.375 . S
N179 C178 1.347 . S
C180 C183 1.365 . S
C180 N185 1.328 . S
C180 H186 0.929 . S
C181 C182 1.362 . S
C181 C184 1.378 . S
C181 H196 0.929 . S
C182 C181 1.362 . S
C182 C183 1.366 . S
C183 C180 1.365 . S
C183 C182 1.366 . S
C183 H197 0.930 . S
C184 C181 1.378 . S
C184 N185 1.315 . S
C184 H187 0.930 . S
N185 Co165 2.194 . S
N185 C180 1.328 . S
N185 C184 1.315 . S
H186 C180 0.929 . S
H187 C184 0.930 . S
H188 C176 0.929 . S
H189 C178 0.929 . S
O190 Co165 2.351 . S
O190 C193 1.244 . S
O191 Co165 2.155 . S
O191 C193 1.240 . S
O192 Co165 2.096 . S
O192 C173 1.247 . S
C193 O190 1.244 . S
C193 O191 1.240 . S
H194 C168 0.931 . S
H195 C177 0.931 . S
H196 C181 0.929 . S
H197 C183 0.930 . S
Co198 N202 2.148 . S
Co198 N208 2.128 . S
Co198 N218 2.194 . S
Co198 O223 2.351 . S
Co198 O224 2.155 . S
Co198 O225 2.096 . S
C199 N202 1.301 . S
C199 N203 1.328 . S
C199 H204 0.930 . S
C200 C201 1.333 . S
C200 N202 1.317 . S
C200 H205 0.930 . S
C201 C200 1.333 . S
C201 N203 1.350 . S
C201 H227 0.931 . S
N202 Co198 2.148 . S
N202 C199 1.301 . S
N202 C200 1.317 . S
N203 C199 1.328 . S
N203 C201 1.350 . S
H204 C199 0.930 . S
H205 C200 0.930 . S
C206 O207 1.224 . S
C206 O225 1.247 . S
O207 C206 1.224 . S
N208 Co198 2.128 . S
N208 C209 1.355 . S
N208 C211 1.311 . S
C209 N208 1.355 . S
C209 C210 1.363 . S
C209 H221 0.929 . S
C210 C209 1.363 . S
C210 N212 1.375 . S
C210 H228 0.931 . S
C211 N208 1.311 . S
C211 N212 1.347 . S
C211 H222 0.929 . S
N212 C210 1.375 . S
N212 C211 1.347 . S
C213 C216 1.365 . S
C213 N218 1.328 . S
C213 H219 0.929 . S
C214 C215 1.362 . S
C214 C217 1.378 . S
C214 H229 0.929 . S
C215 C214 1.362 . S
C215 C216 1.366 . S
C216 C213 1.365 . S
C216 C215 1.366 . S
C216 H230 0.930 . S
C217 C214 1.378 . S
C217 N218 1.315 . S
C217 H220 0.930 . S
N218 Co198 2.194 . S
N218 C213 1.328 . S
N218 C217 1.315 . S
H219 C213 0.929 . S
H220 C217 0.930 . S
H221 C209 0.929 . S
H222 C211 0.929 . S
O223 Co198 2.351 . S
O223 C226 1.244 . S
O224 Co198 2.155 . S
O224 C226 1.240 . S
O225 Co198 2.096 . S
O225 C206 1.247 . S
C226 O223 1.244 . S
C226 O224 1.240 . S
H227 C201 0.931 . S
H228 C210 0.931 . S
H229 C214 0.929 . S
H230 C216 0.930 . S
Co231 N235 2.148 . S
Co231 N241 2.128 . S
Co231 N251 2.194 . S
Co231 O256 2.351 . S
Co231 O257 2.155 . S
Co231 O258 2.096 . S
C232 N235 1.301 . S
C232 N236 1.328 . S
C232 H237 0.930 . S
C233 C234 1.333 . S
C233 N235 1.317 . S
C233 H238 0.930 . S
C234 C233 1.333 . S
C234 N236 1.350 . S
C234 H260 0.931 . S
N235 Co231 2.148 . S
N235 C232 1.301 . S
N235 C233 1.317 . S
N236 C232 1.328 . S
N236 C234 1.350 . S
H237 C232 0.930 . S
H238 C233 0.930 . S
C239 O240 1.224 . S
C239 O258 1.247 . S
O240 C239 1.224 . S
N241 Co231 2.128 . S
N241 C242 1.355 . S
N241 C244 1.311 . S
C242 N241 1.355 . S
C242 C243 1.363 . S
C242 H254 0.929 . S
C243 C242 1.363 . S
C243 N245 1.375 . S
C243 H261 0.931 . S
C244 N241 1.311 . S
C244 N245 1.347 . S
C244 H255 0.929 . S
N245 C243 1.375 . S
N245 C244 1.347 . S
C246 C249 1.365 . S
C246 N251 1.328 . S
C246 H252 0.929 . S
C247 C248 1.362 . S
C247 C250 1.378 . S
C247 H262 0.929 . S
C248 C247 1.362 . S
C248 C249 1.366 . S
C249 C246 1.365 . S
C249 C248 1.366 . S
C249 H263 0.930 . S
C250 C247 1.378 . S
C250 N251 1.315 . S
C250 H253 0.930 . S
N251 Co231 2.194 . S
N251 C246 1.328 . S
N251 C250 1.315 . S
H252 C246 0.929 . S
H253 C250 0.930 . S
H254 C242 0.929 . S
H255 C244 0.929 . S
O256 Co231 2.351 . S
O256 C259 1.244 . S
O257 Co231 2.155 . S
O257 C259 1.240 . S
O258 Co231 2.096 . S
O258 C239 1.247 . S
C259 O256 1.244 . S
C259 O257 1.240 . S
H260 C234 0.931 . S
H261 C243 0.931 . S
H262 C247 0.929 . S
H263 C249 0.930 . S
Co264 N268 2.148 . S
Co264 N274 2.128 . S
Co264 N284 2.194 . S
Co264 O289 2.351 . S
Co264 O290 2.155 . S
Co264 O291 2.096 . S
C265 N268 1.301 . S
C265 N269 1.328 . S
C265 H270 0.930 . S
C266 C267 1.333 . S
C266 N268 1.317 . S
C266 H271 0.930 . S
C267 C266 1.333 . S
C267 N269 1.350 . S
C267 H293 0.931 . S
N268 Co264 2.148 . S
N268 C265 1.301 . S
N268 C266 1.317 . S
N269 C265 1.328 . S
N269 C267 1.350 . S
H270 C265 0.930 . S
H271 C266 0.930 . S
C272 O273 1.224 . S
C272 O291 1.247 . S
O273 C272 1.224 . S
N274 Co264 2.128 . S
N274 C275 1.355 . S
N274 C277 1.311 . S
C275 N274 1.355 . S
C275 C276 1.363 . S
C275 H287 0.929 . S
C276 C275 1.363 . S
C276 N278 1.375 . S
C276 H294 0.931 . S
C277 N274 1.311 . S
C277 N278 1.347 . S
C277 H288 0.929 . S
N278 C276 1.375 . S
N278 C277 1.347 . S
C279 C282 1.365 . S
C279 N284 1.328 . S
C279 H285 0.929 . S
C280 C281 1.362 . S
C280 C283 1.378 . S
C280 H295 0.929 . S
C281 C280 1.362 . S
C281 C282 1.366 . S
C282 C279 1.365 . S
C282 C281 1.366 . S
C282 H296 0.930 . S
C283 C280 1.378 . S
C283 N284 1.315 . S
C283 H286 0.930 . S
N284 Co264 2.194 . S
N284 C279 1.328 . S
N284 C283 1.315 . S
H285 C279 0.929 . S
H286 C283 0.930 . S
H287 C275 0.929 . S
H288 C277 0.929 . S
O289 Co264 2.351 . S
O289 C292 1.244 . S
O290 Co264 2.155 . S
O290 C292 1.240 . S
O291 Co264 2.096 . S
O291 C272 1.247 . S
C292 O289 1.244 . S
C292 O290 1.240 . S
H293 C267 0.931 . S
H294 C276 0.931 . S
H295 C280 0.929 . S
H296 C282 0.930 . S
Co297 N301 2.148 . S
Co297 N307 2.128 . S
Co297 N317 2.194 . S
Co297 O322 2.351 . S
Co297 O323 2.155 . S
Co297 O324 2.096 . S
C298 N301 1.301 . S
C298 N302 1.328 . S
C298 H303 0.930 . S
C299 C300 1.333 . S
C299 N301 1.317 . S
C299 H304 0.930 . S
C300 C299 1.333 . S
C300 N302 1.350 . S
C300 H326 0.931 . S
N301 Co297 2.148 . S
N301 C298 1.301 . S
N301 C299 1.317 . S
N302 C298 1.328 . S
N302 C300 1.350 . S
H303 C298 0.930 . S
H304 C299 0.930 . S
C305 O306 1.224 . S
C305 O324 1.247 . S
O306 C305 1.224 . S
N307 Co297 2.128 . S
N307 C308 1.355 . S
N307 C310 1.311 . S
C308 N307 1.355 . S
C308 C309 1.363 . S
C308 H320 0.929 . S
C309 C308 1.363 . S
C309 N311 1.375 . S
C309 H327 0.931 . S
C310 N307 1.311 . S
C310 N311 1.347 . S
C310 H321 0.929 . S
N311 C309 1.375 . S
N311 C310 1.347 . S
C312 C315 1.365 . S
C312 N317 1.328 . S
C312 H318 0.929 . S
C313 C314 1.362 . S
C313 C316 1.378 . S
C313 H328 0.929 . S
C314 C313 1.362 . S
C314 C315 1.366 . S
C315 C312 1.365 . S
C315 C314 1.366 . S
C315 H329 0.930 . S
C316 C313 1.378 . S
C316 N317 1.315 . S
C316 H319 0.930 . S
N317 Co297 2.194 . S
N317 C312 1.328 . S
N317 C316 1.315 . S
H318 C312 0.929 . S
H319 C316 0.930 . S
H320 C308 0.929 . S
H321 C310 0.929 . S
O322 Co297 2.351 . S
O322 C325 1.244 . S
O323 Co297 2.155 . S
O323 C325 1.240 . S
O324 Co297 2.096 . S
O324 C305 1.247 . S
C325 O322 1.244 . S
C325 O323 1.240 . S
H326 C300 0.931 . S
H327 C309 0.931 . S
H328 C313 0.929 . S
H329 C315 0.930 . S
Co330 N334 2.148 . S
Co330 N340 2.128 . S
Co330 N350 2.194 . S
Co330 O355 2.351 . S
Co330 O356 2.155 . S
Co330 O357 2.096 . S
C331 N334 1.301 . S
C331 N335 1.328 . S
C331 H336 0.930 . S
C332 C333 1.333 . S
C332 N334 1.317 . S
C332 H337 0.930 . S
C333 C332 1.333 . S
C333 N335 1.350 . S
C333 H359 0.931 . S
N334 Co330 2.148 . S
N334 C331 1.301 . S
N334 C332 1.317 . S
N335 C331 1.328 . S
N335 C333 1.350 . S
H336 C331 0.930 . S
H337 C332 0.930 . S
C338 O339 1.224 . S
C338 O357 1.247 . S
O339 C338 1.224 . S
N340 Co330 2.128 . S
N340 C341 1.355 . S
N340 C343 1.311 . S
C341 N340 1.355 . S
C341 C342 1.363 . S
C341 H353 0.929 . S
C342 C341 1.363 . S
C342 N344 1.375 . S
C342 H360 0.931 . S
C343 N340 1.311 . S
C343 N344 1.347 . S
C343 H354 0.929 . S
N344 C342 1.375 . S
N344 C343 1.347 . S
C345 C348 1.365 . S
C345 N350 1.328 . S
C345 H351 0.929 . S
C346 C347 1.362 . S
C346 C349 1.378 . S
C346 H361 0.929 . S
C347 C346 1.362 . S
C347 C348 1.366 . S
C348 C345 1.365 . S
C348 C347 1.366 . S
C348 H362 0.930 . S
C349 C346 1.378 . S
C349 N350 1.315 . S
C349 H352 0.930 . S
N350 Co330 2.194 . S
N350 C345 1.328 . S
N350 C349 1.315 . S
H351 C345 0.929 . S
H352 C349 0.930 . S
H353 C341 0.929 . S
H354 C343 0.929 . S
O355 Co330 2.351 . S
O355 C358 1.244 . S
O356 Co330 2.155 . S
O356 C358 1.240 . S
O357 Co330 2.096 . S
O357 C338 1.247 . S
C358 O355 1.244 . S
C358 O356 1.240 . S
H359 C333 0.931 . S
H360 C342 0.931 . S
H361 C346 0.929 . S
H362 C348 0.930 . S
Co363 N367 2.148 . S
Co363 N373 2.128 . S
Co363 N383 2.194 . S
Co363 O388 2.351 . S
Co363 O389 2.155 . S
Co363 O390 2.096 . S
C364 N367 1.301 . S
C364 N368 1.328 . S
C364 H369 0.930 . S
C365 C366 1.333 . S
C365 N367 1.317 . S
C365 H370 0.930 . S
C366 C365 1.333 . S
C366 N368 1.350 . S
C366 H392 0.931 . S
N367 Co363 2.148 . S
N367 C364 1.301 . S
N367 C365 1.317 . S
N368 C364 1.328 . S
N368 C366 1.350 . S
H369 C364 0.930 . S
H370 C365 0.930 . S
C371 O372 1.224 . S
C371 O390 1.247 . S
O372 C371 1.224 . S
N373 Co363 2.128 . S
N373 C374 1.355 . S
N373 C376 1.311 . S
C374 N373 1.355 . S
C374 C375 1.363 . S
C374 H386 0.929 . S
C375 C374 1.363 . S
C375 N377 1.375 . S
C375 H393 0.931 . S
C376 N373 1.311 . S
C376 N377 1.347 . S
C376 H387 0.929 . S
N377 C375 1.375 . S
N377 C376 1.347 . S
C378 C381 1.365 . S
C378 N383 1.328 . S
C378 H384 0.929 . S
C379 C380 1.362 . S
C379 C382 1.378 . S
C379 H394 0.929 . S
C380 C379 1.362 . S
C380 C381 1.366 . S
C381 C378 1.365 . S
C381 C380 1.366 . S
C381 H395 0.930 . S
C382 C379 1.378 . S
C382 N383 1.315 . S
C382 H385 0.930 . S
N383 Co363 2.194 . S
N383 C378 1.328 . S
N383 C382 1.315 . S
H384 C378 0.929 . S
H385 C382 0.930 . S
H386 C374 0.929 . S
H387 C376 0.929 . S
O388 Co363 2.351 . S
O388 C391 1.244 . S
O389 Co363 2.155 . S
O389 C391 1.240 . S
O390 Co363 2.096 . S
O390 C371 1.247 . S
C391 O388 1.244 . S
C391 O389 1.240 . S
H392 C366 0.931 . S
H393 C375 0.931 . S
H394 C379 0.929 . S
H395 C381 0.930 . S
Co396 N400 2.148 . S
Co396 N406 2.128 . S
Co396 N416 2.194 . S
Co396 O421 2.351 . S
Co396 O422 2.155 . S
Co396 O423 2.096 . S
C397 N400 1.301 . S
C397 N401 1.328 . S
C397 H402 0.930 . S
C398 C399 1.333 . S
C398 N400 1.317 . S
C398 H403 0.930 . S
C399 C398 1.333 . S
C399 N401 1.350 . S
C399 H425 0.931 . S
N400 Co396 2.148 . S
N400 C397 1.301 . S
N400 C398 1.317 . S
N401 C397 1.328 . S
N401 C399 1.350 . S
H402 C397 0.930 . S
H403 C398 0.930 . S
C404 O405 1.224 . S
C404 O423 1.247 . S
O405 C404 1.224 . S
N406 Co396 2.128 . S
N406 C407 1.355 . S
N406 C409 1.311 . S
C407 N406 1.355 . S
C407 C408 1.363 . S
C407 H419 0.929 . S
C408 C407 1.363 . S
C408 N410 1.375 . S
C408 H426 0.931 . S
C409 N406 1.311 . S
C409 N410 1.347 . S
C409 H420 0.929 . S
N410 C408 1.375 . S
N410 C409 1.347 . S
C411 C414 1.365 . S
C411 N416 1.328 . S
C411 H417 0.929 . S
C412 C413 1.362 . S
C412 C415 1.378 . S
C412 H427 0.929 . S
C413 C412 1.362 . S
C413 C414 1.366 . S
C414 C411 1.365 . S
C414 C413 1.366 . S
C414 H428 0.930 . S
C415 C412 1.378 . S
C415 N416 1.315 . S
C415 H418 0.930 . S
N416 Co396 2.194 . S
N416 C411 1.328 . S
N416 C415 1.315 . S
H417 C411 0.929 . S
H418 C415 0.930 . S
H419 C407 0.929 . S
H420 C409 0.929 . S
O421 Co396 2.351 . S
O421 C424 1.244 . S
O422 Co396 2.155 . S
O422 C424 1.240 . S
O423 Co396 2.096 . S
O423 C404 1.247 . S
C424 O421 1.244 . S
C424 O422 1.240 . S
H425 C399 0.931 . S
H426 C408 0.931 . S
H427 C412 0.929 . S
H428 C414 0.930 . S
Co429 N433 2.148 . S
Co429 N439 2.128 . S
Co429 N449 2.194 . S
Co429 O454 2.351 . S
Co429 O455 2.155 . S
Co429 O456 2.096 . S
C430 N433 1.301 . S
C430 N434 1.328 . S
C430 H435 0.930 . S
C431 C432 1.333 . S
C431 N433 1.317 . S
C431 H436 0.930 . S
C432 C431 1.333 . S
C432 N434 1.350 . S
C432 H458 0.931 . S
N433 Co429 2.148 . S
N433 C430 1.301 . S
N433 C431 1.317 . S
N434 C430 1.328 . S
N434 C432 1.350 . S
H435 C430 0.930 . S
H436 C431 0.930 . S
C437 O438 1.224 . S
C437 O456 1.247 . S
O438 C437 1.224 . S
N439 Co429 2.128 . S
N439 C440 1.355 . S
N439 C442 1.311 . S
C440 N439 1.355 . S
C440 C441 1.363 . S
C440 H452 0.929 . S
C441 C440 1.363 . S
C441 N443 1.375 . S
C441 H459 0.931 . S
C442 N439 1.311 . S
C442 N443 1.347 . S
C442 H453 0.929 . S
N443 C441 1.375 . S
N443 C442 1.347 . S
C444 C447 1.365 . S
C444 N449 1.328 . S
C444 H450 0.929 . S
C445 C446 1.362 . S
C445 C448 1.378 . S
C445 H460 0.929 . S
C446 C445 1.362 . S
C446 C447 1.366 . S
C447 C444 1.365 . S
C447 C446 1.366 . S
C447 H461 0.930 . S
C448 C445 1.378 . S
C448 N449 1.315 . S
C448 H451 0.930 . S
N449 Co429 2.194 . S
N449 C444 1.328 . S
N449 C448 1.315 . S
H450 C444 0.929 . S
H451 C448 0.930 . S
H452 C440 0.929 . S
H453 C442 0.929 . S
O454 Co429 2.351 . S
O454 C457 1.244 . S
O455 Co429 2.155 . S
O455 C457 1.240 . S
O456 Co429 2.096 . S
O456 C437 1.247 . S
C457 O454 1.244 . S
C457 O455 1.240 . S
H458 C432 0.931 . S
H459 C441 0.931 . S
H460 C445 0.929 . S
H461 C447 0.930 . S
Co462 N466 2.148 . S
Co462 N472 2.128 . S
Co462 N482 2.194 . S
Co462 O487 2.351 . S
Co462 O488 2.155 . S
Co462 O489 2.096 . S
C463 N466 1.301 . S
C463 N467 1.328 . S
C463 H468 0.930 . S
C464 C465 1.333 . S
C464 N466 1.317 . S
C464 H469 0.930 . S
C465 C464 1.333 . S
C465 N467 1.350 . S
C465 H491 0.931 . S
N466 Co462 2.148 . S
N466 C463 1.301 . S
N466 C464 1.317 . S
N467 C463 1.328 . S
N467 C465 1.350 . S
H468 C463 0.930 . S
H469 C464 0.930 . S
C470 O471 1.224 . S
C470 O489 1.247 . S
O471 C470 1.224 . S
N472 Co462 2.128 . S
N472 C473 1.355 . S
N472 C475 1.311 . S
C473 N472 1.355 . S
C473 C474 1.363 . S
C473 H485 0.929 . S
C474 C473 1.363 . S
C474 N476 1.375 . S
C474 H492 0.931 . S
C475 N472 1.311 . S
C475 N476 1.347 . S
C475 H486 0.929 . S
N476 C474 1.375 . S
N476 C475 1.347 . S
C477 C480 1.365 . S
C477 N482 1.328 . S
C477 H483 0.929 . S
C478 C479 1.362 . S
C478 C481 1.378 . S
C478 H493 0.929 . S
C479 C478 1.362 . S
C479 C480 1.366 . S
C480 C477 1.365 . S
C480 C479 1.366 . S
C480 H494 0.930 . S
C481 C478 1.378 . S
C481 N482 1.315 . S
C481 H484 0.930 . S
N482 Co462 2.194 . S
N482 C477 1.328 . S
N482 C481 1.315 . S
H483 C477 0.929 . S
H484 C481 0.930 . S
H485 C473 0.929 . S
H486 C475 0.929 . S
O487 Co462 2.351 . S
O487 C490 1.244 . S
O488 Co462 2.155 . S
O488 C490 1.240 . S
O489 Co462 2.096 . S
O489 C470 1.247 . S
C490 O487 1.244 . S
C490 O488 1.240 . S
H491 C465 0.931 . S
H492 C474 0.931 . S
H493 C478 0.929 . S
H494 C480 0.930 . S
Co495 N499 2.148 . S
Co495 N505 2.128 . S
Co495 N515 2.194 . S
Co495 O520 2.351 . S
Co495 O521 2.155 . S
Co495 O522 2.096 . S
C496 N499 1.301 . S
C496 N500 1.328 . S
C496 H501 0.930 . S
C497 C498 1.333 . S
C497 N499 1.317 . S
C497 H502 0.930 . S
C498 C497 1.333 . S
C498 N500 1.350 . S
C498 H524 0.931 . S
N499 Co495 2.148 . S
N499 C496 1.301 . S
N499 C497 1.317 . S
N500 C496 1.328 . S
N500 C498 1.350 . S
H501 C496 0.930 . S
H502 C497 0.930 . S
C503 O504 1.224 . S
C503 O522 1.247 . S
O504 C503 1.224 . S
N505 Co495 2.128 . S
N505 C506 1.355 . S
N505 C508 1.311 . S
C506 N505 1.355 . S
C506 C507 1.363 . S
C506 H518 0.929 . S
C507 C506 1.363 . S
C507 N509 1.375 . S
C507 H525 0.931 . S
C508 N505 1.311 . S
C508 N509 1.347 . S
C508 H519 0.929 . S
N509 C507 1.375 . S
N509 C508 1.347 . S
C510 C513 1.365 . S
C510 N515 1.328 . S
C510 H516 0.929 . S
C511 C512 1.362 . S
C511 C514 1.378 . S
C511 H526 0.929 . S
C512 C511 1.362 . S
C512 C513 1.366 . S
C513 C510 1.365 . S
C513 C512 1.366 . S
C513 H527 0.930 . S
C514 C511 1.378 . S
C514 N515 1.315 . S
C514 H517 0.930 . S
N515 Co495 2.194 . S
N515 C510 1.328 . S
N515 C514 1.315 . S
H516 C510 0.929 . S
H517 C514 0.930 . S
H518 C506 0.929 . S
H519 C508 0.929 . S
O520 Co495 2.351 . S
O520 C523 1.244 . S
O521 Co495 2.155 . S
O521 C523 1.240 . S
O522 Co495 2.096 . S
O522 C503 1.247 . S
C523 O520 1.244 . S
C523 O521 1.240 . S
H524 C498 0.931 . S
H525 C507 0.931 . S
H526 C511 0.929 . S
H527 C513 0.930 . S
H528 C546 0.951 . S
H529 C548 0.951 . S
H530 C550 0.950 . S
H531 C551 0.950 . S
H532 C553 0.950 . S
H533 C556 0.950 . S
H534 C557 0.950 . S
H535 C559 0.950 . S
H536 C560 0.950 . S
H537 C561 0.951 . S
H538 C563 0.951 . S
H539 C565 0.950 . S
H540 C566 0.950 . S
H541 C568 0.950 1_455 S
H542 C571 0.950 . S
H543 C572 0.950 . S
H544 C574 0.950 . S
H545 C575 0.950 . S
C546 H528 0.951 . S
C546 C547 1.366 . S
C546 C548 1.388 . S
C547 C546 1.366 . S
C547 C551 1.385 . S
C548 H529 0.951 . S
C548 C546 1.388 . S
C548 C549 1.366 . S
C549 C548 1.366 . S
C549 C550 1.414 . S
C549 C552 1.499 . S
C550 H530 0.950 . S
C550 C549 1.414 . S
C550 C551 1.374 . S
C551 H531 0.950 . S
C551 C547 1.385 . S
C551 C550 1.374 . S
C552 C549 1.499 . S
C552 C553 1.373 . S
C552 C554 1.389 . S
C553 H532 0.950 . S
C553 C552 1.373 . S
C553 C569 1.407 . S
C554 C552 1.389 . S
C554 C555 1.524 . S
C554 C568 1.377 . S
C555 C554 1.524 . S
C555 C556 1.397 . S
C555 C560 1.363 . S
C556 H533 0.950 . S
C556 C555 1.397 . S
C556 C557 1.334 . S
C557 H534 0.950 . S
C557 C556 1.334 . S
C557 C558 1.287 . S
C558 C557 1.287 . S
C558 C559 1.524 . S
C558 H577 0.913 . S
C559 H535 0.950 . S
C559 C558 1.524 . S
C559 C560 1.415 . S
C560 H536 0.950 . S
C560 C555 1.363 . S
C560 C559 1.415 . S
C561 H537 0.951 . S
C561 C562 1.366 . S
C561 C563 1.388 . S
C562 C561 1.366 . S
C562 C566 1.385 . S
C563 H538 0.951 . S
C563 C561 1.388 . S
C563 C564 1.366 . S
C564 C563 1.366 . S
C564 C565 1.414 . S
C564 C567 1.499 . S
C565 H539 0.950 . S
C565 C564 1.414 . S
C565 C566 1.374 . S
C566 H540 0.950 . S
C566 C562 1.385 . S
C566 C565 1.374 . S
C567 C564 1.499 . S
C567 C568 1.373 1_455 S
C567 C569 1.375 1_455 S
C568 H541 0.950 1_655 S
C568 C554 1.377 . S
C568 C567 1.373 1_655 S
C569 C553 1.407 . S
C569 C567 1.375 1_655 S
C569 C570 1.510 1_655 S
C570 C569 1.510 1_455 S
C570 C571 1.397 . S
C570 C575 1.363 . S
C571 H542 0.950 . S
C571 C570 1.397 . S
C571 C572 1.334 . S
C572 H543 0.950 . S
C572 C571 1.334 . S
C572 C573 1.287 . S
C573 C572 1.287 . S
C573 C574 1.524 . S
C573 H576 0.999 . S
C574 H544 0.950 . S
C574 C573 1.524 . S
C574 C575 1.415 . S
C575 H545 0.950 . S
C575 C570 1.363 . S
C575 C574 1.415 . S
H576 C573 0.999 . S
H577 C558 0.913 . S
H578 C596 0.951 . S
H579 C598 0.951 . S
H580 C600 0.950 . S
H581 C601 0.950 . S
H582 C603 0.950 . S
H583 C606 0.950 . S
H584 C607 0.950 . S
H585 C609 0.950 . S
H586 C610 0.950 1_565 S
H587 C611 0.951 . S
H588 C613 0.951 . S
H589 C615 0.950 . S
H590 C616 0.950 . S
H591 C618 0.950 . S
H592 C621 0.950 . S
H593 C622 0.950 . S
H594 C624 0.950 . S
H595 C625 0.950 . S
C596 H578 0.951 . S
C596 C597 1.366 . S
C596 C598 1.388 . S
C597 C596 1.366 . S
C597 C601 1.385 . S
C598 H579 0.951 . S
C598 C596 1.388 . S
C598 C599 1.366 . S
C599 C598 1.366 . S
C599 C600 1.414 . S
C599 C602 1.499 . S
C600 H580 0.950 . S
C600 C599 1.414 . S
C600 C601 1.374 . S
C601 H581 0.950 . S
C601 C597 1.385 . S
C601 C600 1.374 . S
C602 C599 1.499 . S
C602 C603 1.373 . S
C602 C604 1.389 . S
C603 H582 0.950 . S
C603 C602 1.373 . S
C603 C619 1.377 1_545 S
C604 C602 1.389 . S
C604 C605 1.524 . S
C604 C618 1.377 1_545 S
C605 C604 1.524 . S
C605 C606 1.397 . S
C605 C610 1.363 . S
C606 H583 0.950 . S
C606 C605 1.397 . S
C606 C607 1.334 . S
C607 H584 0.950 . S
C607 C606 1.334 . S
C607 C608 1.287 . S
C608 C607 1.287 . S
C608 C609 1.524 . S
C608 H627 0.913 . S
C609 H585 0.950 . S
C609 C608 1.524 . S
C609 C610 1.415 . S
C610 H586 0.950 1_545 S
C610 C605 1.363 . S
C610 C609 1.415 . S
C611 H587 0.951 . S
C611 C612 1.366 . S
C611 C613 1.388 . S
C612 C611 1.366 . S
C612 C616 1.385 . S
C613 H588 0.951 . S
C613 C611 1.388 . S
C613 C614 1.366 . S
C614 C613 1.366 . S
C614 C615 1.414 . S
C614 C617 1.499 . S
C615 H589 0.950 . S
C615 C614 1.414 . S
C615 C616 1.374 . S
C616 H590 0.950 . S
C616 C612 1.385 . S
C616 C615 1.374 . S
C617 C614 1.499 . S
C617 C618 1.373 . S
C617 C619 1.389 . S
C618 H591 0.950 . S
C618 C604 1.377 1_565 S
C618 C617 1.373 . S
C619 C603 1.377 1_565 S
C619 C617 1.389 . S
C619 C620 1.524 . S
C620 C619 1.524 . S
C620 C621 1.397 . S
C620 C625 1.363 . S
C621 H592 0.950 . S
C621 C620 1.397 . S
C621 C622 1.334 . S
C622 H593 0.950 . S
C622 C621 1.334 . S
C622 C623 1.287 . S
C623 C622 1.287 . S
C623 C624 1.524 . S
C623 H626 0.999 . S
C624 H594 0.950 . S
C624 C623 1.524 . S
C624 C625 1.415 . S
C625 H595 0.950 . S
C625 C620 1.363 . S
C625 C624 1.415 . S
H626 C623 0.999 . S
H627 C608 0.913 . S
H628 C646 0.951 . S
H629 C648 0.951 . S
H630 C650 0.950 . S
H631 C651 0.950 . S
H632 C653 0.950 1_655 S
H633 C656 0.950 . S
H634 C657 0.950 . S
H635 C659 0.950 . S
H636 C660 0.950 1_455 S
H637 C661 0.951 . S
H638 C663 0.951 . S
H639 C665 0.950 . S
H640 C666 0.950 . S
H641 C668 0.950 . S
H642 C671 0.950 . S
H643 C672 0.950 . S
H644 C674 0.950 . S
H645 C675 0.950 . S
C646 H628 0.951 . S
C646 C647 1.366 . S
C646 C648 1.388 . S
C647 C646 1.366 . S
C647 C651 1.385 . S
C648 H629 0.951 . S
C648 C646 1.388 . S
C648 C649 1.366 . S
C649 C648 1.366 . S
C649 C650 1.414 . S
C649 C652 1.499 . S
C650 H630 0.950 . S
C650 C649 1.414 . S
C650 C651 1.374 . S
C651 H631 0.950 . S
C651 C647 1.385 . S
C651 C650 1.374 . S
C652 C649 1.499 . S
C652 C653 1.373 1_655 S
C652 C654 1.389 1_655 S
C653 H632 0.950 1_455 S
C653 C652 1.373 1_455 S
C653 C669 1.377 . S
C654 C652 1.389 1_455 S
C654 C655 1.524 1_455 S
C654 C668 1.377 . S
C655 C654 1.524 1_655 S
C655 C656 1.397 . S
C655 C660 1.363 . S
C656 H633 0.950 . S
C656 C655 1.397 . S
C656 C657 1.334 . S
C657 H634 0.950 . S
C657 C656 1.334 . S
C657 C658 1.287 . S
C658 C657 1.287 . S
C658 C659 1.524 . S
C658 H677 0.913 . S
C659 H635 0.950 . S
C659 C658 1.524 . S
C659 C660 1.415 . S
C660 H636 0.950 1_655 S
C660 C655 1.363 . S
C660 C659 1.415 . S
C661 H637 0.951 . S
C661 C662 1.366 . S
C661 C663 1.388 . S
C662 C661 1.366 . S
C662 C666 1.385 . S
C663 H638 0.951 . S
C663 C661 1.388 . S
C663 C664 1.366 . S
C664 C663 1.366 . S
C664 C665 1.414 . S
C664 C667 1.499 . S
C665 H639 0.950 . S
C665 C664 1.414 . S
C665 C666 1.374 . S
C666 H640 0.950 . S
C666 C662 1.385 . S
C666 C665 1.374 . S
C667 C664 1.499 . S
C667 C668 1.373 . S
C667 C669 1.389 . S
C668 H641 0.950 . S
C668 C654 1.377 . S
C668 C667 1.373 . S
C669 C653 1.377 . S
C669 C667 1.389 . S
C669 C670 1.524 . S
C670 C669 1.524 . S
C670 C671 1.397 . S
C670 C675 1.363 . S
C671 H642 0.950 . S
C671 C670 1.397 . S
C671 C672 1.334 . S
C672 H643 0.950 . S
C672 C671 1.334 . S
C672 C673 1.287 . S
C673 C672 1.287 . S
C673 C674 1.524 . S
C673 H676 0.999 . S
C674 H644 0.950 . S
C674 C673 1.524 . S
C674 C675 1.415 . S
C675 H645 0.950 . S
C675 C670 1.363 . S
C675 C674 1.415 . S
H676 C673 0.999 . S
H677 C658 0.913 . S
H678 C696 0.951 . S
H679 C698 0.951 . S
H680 C700 0.950 . S
H681 C701 0.950 . S
H682 C703 0.950 . S
H683 C706 0.950 . S
H684 C707 0.950 . S
H685 C709 0.950 . S
H686 C710 0.950 1_545 S
H687 C711 0.951 . S
H688 C713 0.951 . S
H689 C715 0.950 . S
H690 C716 0.950 . S
H691 C718 0.950 . S
H692 C721 0.950 . S
H693 C722 0.950 . S
H694 C724 0.950 . S
H695 C725 0.950 . S
C696 H678 0.951 . S
C696 C697 1.366 . S
C696 C698 1.388 . S
C697 C696 1.366 . S
C697 C701 1.385 . S
C698 H679 0.951 . S
C698 C696 1.388 . S
C698 C699 1.366 . S
C699 C698 1.366 . S
C699 C700 1.414 . S
C699 C702 1.499 . S
C700 H680 0.950 . S
C700 C699 1.414 . S
C700 C701 1.374 . S
C701 H681 0.950 . S
C701 C697 1.385 . S
C701 C700 1.374 . S
C702 C699 1.499 . S
C702 C703 1.373 . S
C702 C704 1.389 . S
C703 H682 0.950 . S
C703 C702 1.373 . S
C703 C719 1.377 1_565 S
C704 C702 1.389 . S
C704 C705 1.524 . S
C704 C718 1.377 1_565 S
C705 C704 1.524 . S
C705 C706 1.397 . S
C705 C710 1.363 . S
C706 H683 0.950 . S
C706 C705 1.397 . S
C706 C707 1.334 . S
C707 H684 0.950 . S
C707 C706 1.334 . S
C707 C708 1.287 . S
C708 C707 1.287 . S
C708 C709 1.524 . S
C708 H727 0.913 . S
C709 H685 0.950 . S
C709 C708 1.524 . S
C709 C710 1.415 . S
C710 H686 0.950 1_565 S
C710 C705 1.363 . S
C710 C709 1.415 . S
C711 H687 0.951 . S
C711 C712 1.366 . S
C711 C713 1.388 . S
C712 C711 1.366 . S
C712 C716 1.385 . S
C713 H688 0.951 . S
C713 C711 1.388 . S
C713 C714 1.366 . S
C714 C713 1.366 . S
C714 C715 1.414 . S
C714 C717 1.499 . S
C715 H689 0.950 . S
C715 C714 1.414 . S
C715 C716 1.374 . S
C716 H690 0.950 . S
C716 C712 1.385 . S
C716 C715 1.374 . S
C717 C714 1.499 . S
C717 C718 1.373 . S
C717 C719 1.389 . S
C718 H691 0.950 . S
C718 C704 1.377 1_545 S
C718 C717 1.373 . S
C719 C703 1.377 1_545 S
C719 C717 1.389 . S
C719 C720 1.524 . S
C720 C719 1.524 . S
C720 C721 1.397 . S
C720 C725 1.363 . S
C721 H692 0.950 . S
C721 C720 1.397 . S
C721 C722 1.334 . S
C722 H693 0.950 . S
C722 C721 1.334 . S
C722 C723 1.287 . S
C723 C722 1.287 . S
C723 C724 1.524 . S
C723 H726 0.999 . S
C724 H694 0.950 . S
C724 C723 1.524 . S
C724 C725 1.415 . S
C725 H695 0.950 . S
C725 C720 1.363 . S
C725 C724 1.415 . S
H726 C723 0.999 . S
H727 C708 0.913 . S
H728 C746 0.951 . S
H729 C748 0.951 . S
H730 C750 0.950 . S
H731 C751 0.950 . S
H732 C753 0.950 . S
H733 C756 0.950 . S
H734 C757 0.950 . S
H735 C759 0.950 . S
H736 C760 0.950 . S
H737 C761 0.951 . S
H738 C763 0.951 . S
H739 C765 0.950 . S
H740 C766 0.950 . S
H741 C768 0.950 . S
H742 C771 0.950 . S
H743 C772 0.950 . S
H744 C774 0.950 . S
H745 C775 0.957 . S
C746 H728 0.951 . S
C746 C747 1.366 . S
C746 C748 1.388 . S
C747 C746 1.366 . S
C747 C751 1.385 . S
C748 H729 0.951 . S
C748 C746 1.388 . S
C748 C749 1.366 . S
C749 C748 1.366 . S
C749 C750 1.414 . S
C749 C752 1.499 . S
C750 H730 0.950 . S
C750 C749 1.414 . S
C750 C751 1.374 . S
C751 H731 0.950 . S
C751 C747 1.385 . S
C751 C750 1.374 . S
C752 C749 1.499 . S
C752 C753 1.373 . S
C752 C754 1.389 . S
C753 H732 0.950 . S
C753 C752 1.373 . S
C753 C769 1.377 1_655 S
C754 C752 1.389 . S
C754 C755 1.524 . S
C754 C768 1.377 1_655 S
C755 C754 1.524 . S
C755 C756 1.397 . S
C755 C760 1.363 . S
C756 H733 0.950 . S
C756 C755 1.397 . S
C756 C757 1.334 . S
C757 H734 0.950 . S
C757 C756 1.334 . S
C757 C758 1.287 . S
C758 C757 1.287 . S
C758 C759 1.524 . S
C758 H777 0.913 . S
C759 H735 0.950 . S
C759 C758 1.524 . S
C759 C760 1.415 . S
C760 H736 0.950 . S
C760 C755 1.363 . S
C760 C759 1.415 . S
C761 H737 0.951 . S
C761 C762 1.366 . S
C761 C763 1.388 . S
C762 C761 1.366 . S
C762 C766 1.385 . S
C763 H738 0.951 . S
C763 C761 1.388 . S
C763 C764 1.366 . S
C764 C763 1.366 . S
C764 C765 1.414 . S
C764 C767 1.499 . S
C765 H739 0.950 . S
C765 C764 1.414 . S
C765 C766 1.374 . S
C766 H740 0.950 . S
C766 C762 1.385 . S
C766 C765 1.374 . S
C767 C764 1.499 . S
C767 C768 1.373 . S
C767 C769 1.389 . S
C768 H741 0.950 . S
C768 C754 1.377 1_455 S
C768 C767 1.373 . S
C769 C753 1.377 1_455 S
C769 C767 1.389 . S
C769 C770 1.524 . S
C770 C769 1.524 . S
C770 C771 1.397 . S
C770 C775 1.363 . S
C771 H742 0.950 . S
C771 C770 1.397 . S
C771 C772 1.334 . S
C772 H743 0.950 . S
C772 C771 1.334 . S
C772 C773 1.287 . S
C773 C772 1.287 . S
C773 C774 1.524 . S
C773 H776 0.999 . S
C774 H744 0.950 . S
C774 C773 1.524 . S
C774 C775 1.415 . S
C775 H745 0.957 . S
C775 C770 1.363 . S
C775 C774 1.415 . S
H776 C773 0.999 . S
H777 C758 0.913 . S
H778 C796 0.951 . S
H779 C798 0.951 . S
H780 C800 0.950 . S
H781 C801 0.950 . S
H782 C803 0.950 . S
H783 C806 0.950 . S
H784 C807 0.950 . S
H785 C809 0.950 . S
H786 C810 0.950 . S
H787 C811 0.951 . S
H788 C813 0.951 . S
H789 C815 0.950 . S
H790 C816 0.950 . S
H791 C818 0.950 1_545 S
H792 C821 0.950 . S
H793 C822 0.950 . S
H794 C824 0.950 . S
H795 C825 0.950 . S
C796 H778 0.951 . S
C796 C797 1.366 . S
C796 C798 1.388 . S
C797 C796 1.366 . S
C797 C801 1.385 . S
C798 H779 0.951 . S
C798 C796 1.388 . S
C798 C799 1.366 . S
C799 C798 1.366 . S
C799 C800 1.414 . S
C799 C802 1.499 . S
C800 H780 0.950 . S
C800 C799 1.414 . S
C800 C801 1.374 . S
C801 H781 0.950 . S
C801 C797 1.385 . S
C801 C800 1.374 . S
C802 C799 1.499 . S
C802 C803 1.373 . S
C802 C804 1.389 . S
C803 H782 0.950 . S
C803 C802 1.373 . S
C803 C819 1.397 . S
C804 C802 1.389 . S
C804 C805 1.524 . S
C804 C818 1.377 . S
C805 C804 1.524 . S
C805 C806 1.397 . S
C805 C810 1.363 . S
C806 H783 0.950 . S
C806 C805 1.397 . S
C806 C807 1.334 . S
C807 H784 0.950 . S
C807 C806 1.334 . S
C807 C808 1.287 . S
C808 C807 1.287 . S
C808 C809 1.524 . S
C808 H827 0.913 . S
C809 H785 0.950 . S
C809 C808 1.524 . S
C809 C810 1.415 . S
C810 H786 0.950 . S
C810 C805 1.363 . S
C810 C809 1.415 . S
C811 H787 0.951 . S
C811 C812 1.366 . S
C811 C813 1.388 . S
C812 C811 1.366 . S
C812 C816 1.385 . S
C813 H788 0.951 . S
C813 C811 1.388 . S
C813 C814 1.366 . S
C814 C813 1.366 . S
C814 C815 1.414 . S
C814 C817 1.499 . S
C815 H789 0.950 . S
C815 C814 1.414 . S
C815 C816 1.374 . S
C816 H790 0.950 . S
C816 C812 1.385 . S
C816 C815 1.374 . S
C817 C814 1.499 . S
C817 C818 1.373 1_545 S
C817 C819 1.380 1_545 S
C818 H791 0.950 1_565 S
C818 C804 1.377 . S
C818 C817 1.373 1_565 S
C819 C803 1.397 . S
C819 C817 1.380 1_565 S
C819 C820 1.515 1_565 S
C820 C819 1.515 1_545 S
C820 C821 1.397 . S
C820 C825 1.363 . S
C821 H792 0.950 . S
C821 C820 1.397 . S
C821 C822 1.334 . S
C822 H793 0.950 . S
C822 C821 1.334 . S
C822 C823 1.287 . S
C823 C822 1.287 . S
C823 C824 1.524 . S
C823 H826 0.999 . S
C824 H794 0.950 . S
C824 C823 1.524 . S
C824 C825 1.415 . S
C825 H795 0.950 . S
C825 C820 1.363 . S
C825 C824 1.415 . S
H826 C823 0.999 . S
H827 C808 0.913 . S
H828 C846 0.951 . S
H829 C848 0.951 . S
H830 C850 0.950 . S
H831 C851 0.950 . S
H832 C853 0.950 . S
H833 C856 0.950 . S
H834 C857 0.950 . S
H835 C859 0.950 . S
H836 C860 0.942 1_455 S
H837 C861 0.951 . S
H838 C863 0.951 . S
H839 C865 0.950 . S
H840 C866 0.950 . S
H841 C868 0.950 . S
H842 C871 0.950 . S
H843 C872 0.950 . S
H844 C874 0.950 . S
H845 C875 0.950 . S
C846 H828 0.951 . S
C846 C847 1.366 . S
C846 C848 1.388 . S
C847 C846 1.366 . S
C847 C851 1.385 . S
C848 H829 0.951 . S
C848 C846 1.388 . S
C848 C849 1.366 . S
C849 C848 1.366 . S
C849 C850 1.414 . S
C849 C852 1.499 . S
C850 H830 0.950 . S
C850 C849 1.414 . S
C850 C851 1.374 . S
C851 H831 0.950 . S
C851 C847 1.385 . S
C851 C850 1.374 . S
C852 C849 1.499 . S
C852 C853 1.373 . S
C852 C854 1.389 . S
C853 H832 0.950 . S
C853 C852 1.373 . S
C853 C869 1.377 1_655 S
C854 C852 1.389 . S
C854 C855 1.524 . S
C854 C868 1.377 1_655 S
C855 C854 1.524 . S
C855 C856 1.397 . S
C855 C860 1.363 . S
C856 H833 0.950 . S
C856 C855 1.397 . S
C856 C857 1.334 . S
C857 H834 0.950 . S
C857 C856 1.334 . S
C857 C858 1.287 . S
C858 C857 1.287 . S
C858 C859 1.524 . S
C858 H877 0.913 . S
C859 H835 0.950 . S
C859 C858 1.524 . S
C859 C860 1.415 . S
C860 H836 0.942 1_655 S
C860 C855 1.363 . S
C860 C859 1.415 . S
C861 H837 0.951 . S
C861 C862 1.366 . S
C861 C863 1.388 . S
C862 C861 1.366 . S
C862 C866 1.385 . S
C863 H838 0.951 . S
C863 C861 1.388 . S
C863 C864 1.366 . S
C864 C863 1.366 . S
C864 C865 1.414 . S
C864 C867 1.499 . S
C865 H839 0.950 . S
C865 C864 1.414 . S
C865 C866 1.374 . S
C866 H840 0.950 . S
C866 C862 1.385 . S
C866 C865 1.374 . S
C867 C864 1.499 . S
C867 C868 1.373 . S
C867 C869 1.389 . S
C868 H841 0.950 . S
C868 C854 1.377 1_455 S
C868 C867 1.373 . S
C869 C853 1.377 1_455 S
C869 C867 1.389 . S
C869 C870 1.524 . S
C870 C869 1.524 . S
C870 C871 1.397 . S
C870 C875 1.363 . S
C871 H842 0.950 . S
C871 C870 1.397 . S
C871 C872 1.334 . S
C872 H843 0.950 . S
C872 C871 1.334 . S
C872 C873 1.287 . S
C873 C872 1.287 . S
C873 C874 1.524 . S
C873 H876 0.999 . S
C874 H844 0.950 . S
C874 C873 1.524 . S
C874 C875 1.415 . S
C875 H845 0.950 . S
C875 C870 1.363 . S
C875 C874 1.415 . S
H876 C873 0.999 . S
H877 C858 0.913 . S
H878 C896 0.951 . S
H879 C898 0.951 . S
H880 C900 0.950 . S
H881 C901 0.950 . S
H882 C903 0.950 . S
H883 C906 0.950 . S
H884 C907 0.950 . S
H885 C909 0.950 . S
H886 C910 0.950 . S
H887 C911 0.951 . S
H888 C913 0.951 . S
H889 C915 0.950 . S
H890 C916 0.950 . S
H891 C918 0.950 1_565 S
H892 C921 0.950 . S
H893 C922 0.950 . S
H894 C924 0.950 . S
H895 C925 0.950 1_545 S
C896 H878 0.951 . S
C896 C897 1.366 . S
C896 C898 1.388 . S
C897 C896 1.366 . S
C897 C901 1.385 . S
C898 H879 0.951 . S
C898 C896 1.388 . S
C898 C899 1.366 . S
C899 C898 1.366 . S
C899 C900 1.414 . S
C899 C902 1.499 . S
C900 H880 0.950 . S
C900 C899 1.414 . S
C900 C901 1.374 . S
C901 H881 0.950 . S
C901 C897 1.385 . S
C901 C900 1.374 . S
C902 C899 1.499 . S
C902 C903 1.373 . S
C902 C904 1.389 . S
C903 H882 0.950 . S
C903 C902 1.373 . S
C903 C919 1.377 . S
C904 C902 1.389 . S
C904 C905 1.524 . S
C904 C918 1.377 . S
C905 C904 1.524 . S
C905 C906 1.397 . S
C905 C910 1.363 . S
C906 H883 0.950 . S
C906 C905 1.397 . S
C906 C907 1.334 . S
C907 H884 0.950 . S
C907 C906 1.334 . S
C907 C908 1.287 . S
C908 C907 1.287 . S
C908 C909 1.524 . S
C908 H927 0.913 . S
C909 H885 0.950 . S
C909 C908 1.524 . S
C909 C910 1.415 . S
C910 H886 0.950 . S
C910 C905 1.363 . S
C910 C909 1.415 . S
C911 H887 0.951 . S
C911 C912 1.366 . S
C911 C913 1.388 . S
C912 C911 1.366 . S
C912 C916 1.385 . S
C913 H888 0.951 . S
C913 C911 1.388 . S
C913 C914 1.366 . S
C914 C913 1.366 . S
C914 C915 1.414 . S
C914 C917 1.499 . S
C915 H889 0.950 . S
C915 C914 1.414 . S
C915 C916 1.374 . S
C916 H890 0.950 . S
C916 C912 1.385 . S
C916 C915 1.374 . S
C917 C914 1.499 . S
C917 C918 1.373 1_565 S
C917 C919 1.389 1_565 S
C918 H891 0.950 1_545 S
C918 C904 1.377 . S
C918 C917 1.373 1_545 S
C919 C903 1.377 . S
C919 C917 1.389 1_545 S
C919 C920 1.524 1_545 S
C920 C919 1.524 1_565 S
C920 C921 1.397 . S
C920 C925 1.363 . S
C921 H892 0.950 . S
C921 C920 1.397 . S
C921 C922 1.334 . S
C922 H893 0.950 . S
C922 C921 1.334 . S
C922 C923 1.287 . S
C923 C922 1.287 . S
C923 C924 1.524 . S
C923 H926 0.999 . S
C924 H894 0.950 . S
C924 C923 1.524 . S
C924 C925 1.415 . S
C925 H895 0.950 1_565 S
C925 C920 1.363 . S
C925 C924 1.415 . S
H926 C923 0.999 . S
H927 C908 0.913 . S
H928 C946 0.951 . S
H929 C948 0.951 . S
H930 C950 0.950 . S
H931 C951 0.950 . S
H932 C953 0.950 . S
H933 C956 0.950 . S
H934 C957 0.950 . S
H935 C959 0.950 . S
H936 C960 0.950 . S
H937 C961 0.951 . S
H938 C963 0.951 . S
H939 C965 0.950 . S
H940 C966 0.950 . S
H941 C968 0.950 . S
H942 C971 0.950 . S
H943 C972 0.950 . S
H944 C974 0.950 . S
H945 C975 0.950 . S
C946 H928 0.951 . S
C946 C947 1.366 . S
C946 C948 1.388 . S
C947 C946 1.366 . S
C947 C951 1.385 . S
C948 H929 0.951 . S
C948 C946 1.388 . S
C948 C949 1.366 . S
C949 C948 1.366 . S
C949 C950 1.414 . S
C949 C952 1.499 . S
C950 H930 0.950 . S
C950 C949 1.414 . S
C950 C951 1.374 . S
C951 H931 0.950 . S
C951 C947 1.385 . S
C951 C950 1.374 . S
C952 C949 1.499 . S
C952 C953 1.373 . S
C952 C954 1.389 . S
C953 H932 0.950 . S
C953 C952 1.373 . S
C953 C969 1.377 . S
C954 C952 1.389 . S
C954 C955 1.524 . S
C954 C968 1.377 . S
C955 C954 1.524 . S
C955 C956 1.397 . S
C955 C960 1.363 . S
C956 H933 0.950 . S
C956 C955 1.397 . S
C956 C957 1.334 . S
C957 H934 0.950 . S
C957 C956 1.334 . S
C957 C958 1.287 . S
C958 C957 1.287 . S
C958 C959 1.524 . S
C958 H977 0.913 . S
C959 H935 0.950 . S
C959 C958 1.524 . S
C959 C960 1.415 . S
C960 H936 0.950 . S
C960 C955 1.363 . S
C960 C959 1.415 . S
C961 H937 0.951 . S
C961 C962 1.366 . S
C961 C963 1.388 . S
C962 C961 1.366 . S
C962 C966 1.385 . S
C963 H938 0.951 . S
C963 C961 1.388 . S
C963 C964 1.366 . S
C964 C963 1.366 . S
C964 C965 1.414 . S
C964 C967 1.499 . S
C965 H939 0.950 . S
C965 C964 1.414 . S
C965 C966 1.374 . S
C966 H940 0.950 . S
C966 C962 1.385 . S
C966 C965 1.374 . S
C967 C964 1.499 . S
C967 C968 1.373 . S
C967 C969 1.389 . S
C968 H941 0.950 . S
C968 C954 1.377 . S
C968 C967 1.373 . S
C969 C953 1.377 . S
C969 C967 1.389 . S
C969 C970 1.524 . S
C970 C969 1.524 . S
C970 C971 1.397 . S
C970 C975 1.363 . S
C971 H942 0.950 . S
C971 C970 1.397 . S
C971 C972 1.334 . S
C972 H943 0.950 . S
C972 C971 1.334 . S
C972 C973 1.287 . S
C973 C972 1.287 . S
C973 C974 1.524 . S
C973 H976 0.999 . S
C974 H944 0.950 . S
C974 C973 1.524 . S
C974 C975 1.415 . S
C975 H945 0.950 . S
C975 C970 1.363 . S
C975 C974 1.415 . S
H976 C973 0.999 . S
H977 C958 0.913 . S
H978 C996 0.951 . S
H979 C998 0.951 . S
H980 C1000 0.950 . S
H981 C1001 0.950 . S
H982 C1003 0.950 . S
H983 C1006 0.950 . S
H984 C1007 0.950 . S
H985 C1009 0.950 . S
H986 C1010 0.950 . S
H987 C1011 0.951 . S
H988 C1013 0.951 . S
H989 C1015 0.950 . S
H990 C1016 0.950 . S
H991 C1018 0.950 . S
H992 C1021 0.950 . S
H993 C1022 0.950 . S
H994 C1024 0.950 . S
H995 C1025 0.950 . S
C996 H978 0.951 . S
C996 C997 1.366 . S
C996 C998 1.388 . S
C997 C996 1.366 . S
C997 C1001 1.385 . S
C998 H979 0.951 . S
C998 C996 1.388 . S
C998 C999 1.366 . S
C999 C998 1.366 . S
C999 C1000 1.414 . S
C999 C1002 1.499 . S
C1000 H980 0.950 . S
C1000 C999 1.414 . S
C1000 C1001 1.374 . S
C1001 H981 0.950 . S
C1001 C997 1.385 . S
C1001 C1000 1.374 . S
C1002 C999 1.499 . S
C1002 C1003 1.373 . S
C1002 C1004 1.389 . S
C1003 H982 0.950 . S
C1003 C1002 1.373 . S
C1003 C1019 1.377 . S
C1004 C1002 1.389 . S
C1004 C1005 1.524 . S
C1004 C1018 1.377 . S
C1005 C1004 1.524 . S
C1005 C1006 1.397 . S
C1005 C1010 1.363 . S
C1006 H983 0.950 . S
C1006 C1005 1.397 . S
C1006 C1007 1.334 . S
C1007 H984 0.950 . S
C1007 C1006 1.334 . S
C1007 C1008 1.287 . S
C1008 C1007 1.287 . S
C1008 C1009 1.524 . S
C1008 H1027 0.913 . S
C1009 H985 0.950 . S
C1009 C1008 1.524 . S
C1009 C1010 1.415 . S
C1010 H986 0.950 . S
C1010 C1005 1.363 . S
C1010 C1009 1.415 . S
C1011 H987 0.951 . S
C1011 C1012 1.366 . S
C1011 C1013 1.388 . S
C1012 C1011 1.366 . S
C1012 C1016 1.385 . S
C1013 H988 0.951 . S
C1013 C1011 1.388 . S
C1013 C1014 1.366 . S
C1014 C1013 1.366 . S
C1014 C1015 1.414 . S
C1014 C1017 1.499 . S
C1015 H989 0.950 . S
C1015 C1014 1.414 . S
C1015 C1016 1.374 . S
C1016 H990 0.950 . S
C1016 C1012 1.385 . S
C1016 C1015 1.374 . S
C1017 C1014 1.499 . S
C1017 C1018 1.373 . S
C1017 C1019 1.389 . S
C1018 H991 0.950 . S
C1018 C1004 1.377 . S
C1018 C1017 1.373 . S
C1019 C1003 1.377 . S
C1019 C1017 1.389 . S
C1019 C1020 1.524 . S
C1020 C1019 1.524 . S
C1020 C1021 1.397 . S
C1020 C1025 1.363 . S
C1021 H992 0.950 . S
C1021 C1020 1.397 . S
C1021 C1022 1.334 . S
C1022 H993 0.950 . S
C1022 C1021 1.334 . S
C1022 C1023 1.287 . S
C1023 C1022 1.287 . S
C1023 C1024 1.524 . S
C1023 H1026 0.999 . S
C1024 H994 0.950 . S
C1024 C1023 1.524 . S
C1024 C1025 1.415 . S
C1025 H995 0.950 . S
C1025 C1020 1.363 . S
C1025 C1024 1.415 . S
H1026 C1023 0.999 . S
H1027 C1008 0.913 . S
H1028 C1046 0.951 . S
H1029 C1048 0.951 . S
H1030 C1050 0.950 . S
H1031 C1051 0.950 . S
H1032 C1053 0.950 . S
H1033 C1056 0.950 . S
H1034 C1057 0.950 . S
H1035 C1059 0.950 . S
H1036 C1060 0.950 . S
H1037 C1061 0.951 . S
H1038 C1063 0.951 . S
H1039 C1065 0.950 . S
H1040 C1066 0.950 . S
H1041 C1068 0.950 . S
H1042 C1071 0.950 . S
H1043 C1072 0.950 . S
H1044 C1074 0.950 . S
H1045 C1075 0.950 . S
C1046 H1028 0.951 . S
C1046 C1047 1.366 . S
C1046 C1048 1.388 . S
C1047 C1046 1.366 . S
C1047 C1051 1.385 . S
C1048 H1029 0.951 . S
C1048 C1046 1.388 . S
C1048 C1049 1.366 . S
C1049 C1048 1.366 . S
C1049 C1050 1.414 . S
C1049 C1052 1.499 . S
C1050 H1030 0.950 . S
C1050 C1049 1.414 . S
C1050 C1051 1.374 . S
C1051 H1031 0.950 . S
C1051 C1047 1.385 . S
C1051 C1050 1.374 . S
C1052 C1049 1.499 . S
C1052 C1053 1.373 . S
C1052 C1054 1.389 . S
C1053 H1032 0.950 . S
C1053 C1052 1.373 . S
C1053 C1069 1.377 . S
C1054 C1052 1.389 . S
C1054 C1055 1.524 . S
C1054 C1068 1.377 . S
C1055 C1054 1.524 . S
C1055 C1056 1.397 . S
C1055 C1060 1.363 . S
C1056 H1033 0.950 . S
C1056 C1055 1.397 . S
C1056 C1057 1.334 . S
C1057 H1034 0.950 . S
C1057 C1056 1.334 . S
C1057 C1058 1.287 . S
C1058 C1057 1.287 . S
C1058 C1059 1.524 . S
C1058 H1077 0.913 . S
C1059 H1035 0.950 . S
C1059 C1058 1.524 . S
C1059 C1060 1.415 . S
C1060 H1036 0.950 . S
C1060 C1055 1.363 . S
C1060 C1059 1.415 . S
C1061 H1037 0.951 . S
C1061 C1062 1.366 . S
C1061 C1063 1.388 . S
C1062 C1061 1.366 . S
C1062 C1066 1.385 . S
C1063 H1038 0.951 . S
C1063 C1061 1.388 . S
C1063 C1064 1.366 . S
C1064 C1063 1.366 . S
C1064 C1065 1.414 . S
C1064 C1067 1.499 . S
C1065 H1039 0.950 . S
C1065 C1064 1.414 . S
C1065 C1066 1.374 . S
C1066 H1040 0.950 . S
C1066 C1062 1.385 . S
C1066 C1065 1.374 . S
C1067 C1064 1.499 . S
C1067 C1068 1.373 . S
C1067 C1069 1.389 . S
C1068 H1041 0.950 . S
C1068 C1054 1.377 . S
C1068 C1067 1.373 . S
C1069 C1053 1.377 . S
C1069 C1067 1.389 . S
C1069 C1070 1.524 . S
C1070 C1069 1.524 . S
C1070 C1071 1.397 . S
C1070 C1075 1.363 . S
C1071 H1042 0.950 . S
C1071 C1070 1.397 . S
C1071 C1072 1.334 . S
C1072 H1043 0.950 . S
C1072 C1071 1.334 . S
C1072 C1073 1.287 . S
C1073 C1072 1.287 . S
C1073 C1074 1.524 . S
C1073 H1076 0.999 . S
C1074 H1044 0.950 . S
C1074 C1073 1.524 . S
C1074 C1075 1.415 . S
C1075 H1045 0.950 . S
C1075 C1070 1.363 . S
C1075 C1074 1.415 . S
H1076 C1073 0.999 . S
H1077 C1058 0.913 . S
H1078 C1096 0.951 . S
H1079 C1098 0.951 . S
H1080 C1100 0.950 . S
H1081 C1101 0.950 . S
H1082 C1103 0.950 . S
H1083 C1106 0.950 . S
H1084 C1107 0.950 . S
H1085 C1109 0.950 . S
H1086 C1110 0.950 . S
H1087 C1111 0.951 . S
H1088 C1113 0.951 . S
H1089 C1115 0.950 . S
H1090 C1116 0.950 . S
H1091 C1118 0.950 . S
H1092 C1121 0.950 . S
H1093 C1122 0.950 . S
H1094 C1124 0.950 . S
H1095 C1125 0.950 . S
C1096 H1078 0.951 . S
C1096 C1097 1.366 . S
C1096 C1098 1.388 . S
C1097 C1096 1.366 . S
C1097 C1101 1.385 . S
C1098 H1079 0.951 . S
C1098 C1096 1.388 . S
C1098 C1099 1.366 . S
C1099 C1098 1.366 . S
C1099 C1100 1.414 . S
C1099 C1102 1.499 . S
C1100 H1080 0.950 . S
C1100 C1099 1.414 . S
C1100 C1101 1.374 . S
C1101 H1081 0.950 . S
C1101 C1097 1.385 . S
C1101 C1100 1.374 . S
C1102 C1099 1.499 . S
C1102 C1103 1.373 . S
C1102 C1104 1.389 . S
C1103 H1082 0.950 . S
C1103 C1102 1.373 . S
C1103 C1119 1.377 . S
C1104 C1102 1.389 . S
C1104 C1105 1.524 . S
C1104 C1118 1.377 . S
C1105 C1104 1.524 . S
C1105 C1106 1.397 . S
C1105 C1110 1.363 . S
C1106 H1083 0.950 . S
C1106 C1105 1.397 . S
C1106 C1107 1.334 . S
C1107 H1084 0.950 . S
C1107 C1106 1.334 . S
C1107 C1108 1.287 . S
C1108 C1107 1.287 . S
C1108 C1109 1.524 . S
C1108 H1127 0.913 . S
C1109 H1085 0.950 . S
C1109 C1108 1.524 . S
C1109 C1110 1.415 . S
C1110 H1086 0.950 . S
C1110 C1105 1.363 . S
C1110 C1109 1.415 . S
C1111 H1087 0.951 . S
C1111 C1112 1.366 . S
C1111 C1113 1.388 . S
C1112 C1111 1.366 . S
C1112 C1116 1.385 . S
C1113 H1088 0.951 . S
C1113 C1111 1.388 . S
C1113 C1114 1.366 . S
C1114 C1113 1.366 . S
C1114 C1115 1.414 . S
C1114 C1117 1.499 . S
C1115 H1089 0.950 . S
C1115 C1114 1.414 . S
C1115 C1116 1.374 . S
C1116 H1090 0.950 . S
C1116 C1112 1.385 . S
C1116 C1115 1.374 . S
C1117 C1114 1.499 . S
C1117 C1118 1.373 . S
C1117 C1119 1.389 . S
C1118 H1091 0.950 . S
C1118 C1104 1.377 . S
C1118 C1117 1.373 . S
C1119 C1103 1.377 . S
C1119 C1117 1.389 . S
C1119 C1120 1.524 . S
C1120 C1119 1.524 . S
C1120 C1121 1.397 . S
C1120 C1125 1.363 . S
C1121 H1092 0.950 . S
C1121 C1120 1.397 . S
C1121 C1122 1.334 . S
C1122 H1093 0.950 . S
C1122 C1121 1.334 . S
C1122 C1123 1.287 . S
C1123 C1122 1.287 . S
C1123 C1124 1.524 . S
C1123 H1126 0.999 . S
C1124 H1094 0.950 . S
C1124 C1123 1.524 . S
C1124 C1125 1.415 . S
C1125 H1095 0.950 . S
C1125 C1120 1.363 . S
C1125 C1124 1.415 . S
H1126 C1123 0.999 . S
H1127 C1108 0.913 . S
H1128 C1146 0.951 . S
H1129 C1148 0.951 . S
H1130 C1150 0.950 . S
H1131 C1151 0.950 . S
H1132 C1153 0.950 . S
H1133 C1156 0.950 . S
H1134 C1157 0.950 . S
H1135 C1159 0.950 . S
H1136 C1160 0.950 . S
H1137 C1161 0.951 . S
H1138 C1163 0.951 . S
H1139 C1165 0.950 . S
H1140 C1166 0.950 . S
H1141 C1168 0.950 . S
H1142 C1171 0.950 . S
H1143 C1172 0.950 . S
H1144 C1174 0.950 . S
H1145 C1175 0.950 . S
C1146 H1128 0.951 . S
C1146 C1147 1.366 . S
C1146 C1148 1.388 . S
C1147 C1146 1.366 . S
C1147 C1151 1.385 . S
C1148 H1129 0.951 . S
C1148 C1146 1.388 . S
C1148 C1149 1.366 . S
C1149 C1148 1.366 . S
C1149 C1150 1.414 . S
C1149 C1152 1.499 . S
C1150 H1130 0.950 . S
C1150 C1149 1.414 . S
C1150 C1151 1.374 . S
C1151 H1131 0.950 . S
C1151 C1147 1.385 . S
C1151 C1150 1.374 . S
C1152 C1149 1.499 . S
C1152 C1153 1.373 . S
C1152 C1154 1.389 . S
C1153 H1132 0.950 . S
C1153 C1152 1.373 . S
C1153 C1169 1.377 . S
C1154 C1152 1.389 . S
C1154 C1155 1.524 . S
C1154 C1168 1.377 . S
C1155 C1154 1.524 . S
C1155 C1156 1.397 . S
C1155 C1160 1.363 . S
C1156 H1133 0.950 . S
C1156 C1155 1.397 . S
C1156 C1157 1.334 . S
C1157 H1134 0.950 . S
C1157 C1156 1.334 . S
C1157 C1158 1.287 . S
C1158 C1157 1.287 . S
C1158 C1159 1.524 . S
C1158 H1177 0.913 . S
C1159 H1135 0.950 . S
C1159 C1158 1.524 . S
C1159 C1160 1.415 . S
C1160 H1136 0.950 . S
C1160 C1155 1.363 . S
C1160 C1159 1.415 . S
C1161 H1137 0.951 . S
C1161 C1162 1.366 . S
C1161 C1163 1.388 . S
C1162 C1161 1.366 . S
C1162 C1166 1.385 . S
C1163 H1138 0.951 . S
C1163 C1161 1.388 . S
C1163 C1164 1.366 . S
C1164 C1163 1.366 . S
C1164 C1165 1.414 . S
C1164 C1167 1.499 . S
C1165 H1139 0.950 . S
C1165 C1164 1.414 . S
C1165 C1166 1.374 . S
C1166 H1140 0.950 . S
C1166 C1162 1.385 . S
C1166 C1165 1.374 . S
C1167 C1164 1.499 . S
C1167 C1168 1.373 . S
C1167 C1169 1.389 . S
C1168 H1141 0.950 . S
C1168 C1154 1.377 . S
C1168 C1167 1.373 . S
C1169 C1153 1.377 . S
C1169 C1167 1.389 . S
C1169 C1170 1.524 . S
C1170 C1169 1.524 . S
C1170 C1171 1.397 . S
C1170 C1175 1.363 . S
C1171 H1142 0.950 . S
C1171 C1170 1.397 . S
C1171 C1172 1.334 . S
C1172 H1143 0.950 . S
C1172 C1171 1.334 . S
C1172 C1173 1.287 . S
C1173 C1172 1.287 . S
C1173 C1174 1.524 . S
C1173 H1176 0.999 . S
C1174 H1144 0.950 . S
C1174 C1173 1.524 . S
C1174 C1175 1.415 . S
C1175 H1145 0.950 . S
C1175 C1170 1.363 . S
C1175 C1174 1.415 . S
H1176 C1173 0.999 . S
H1177 C1158 0.913 . S
H1178 C1196 0.951 . S
H1179 C1198 0.951 . S
H1180 C1200 0.950 . S
H1181 C1201 0.950 . S
H1182 C1203 0.950 . S
H1183 C1206 0.950 . S
H1184 C1207 0.950 . S
H1185 C1209 0.950 . S
H1186 C1210 0.950 . S
H1187 C1211 0.951 . S
H1188 C1213 0.951 . S
H1189 C1215 0.950 . S
H1190 C1216 0.950 . S
H1191 C1218 0.950 . S
H1192 C1221 0.950 . S
H1193 C1222 0.950 . S
H1194 C1224 0.950 . S
H1195 C1225 0.950 . S
C1196 H1178 0.951 . S
C1196 C1197 1.366 . S
C1196 C1198 1.388 . S
C1197 C1196 1.366 . S
C1197 C1201 1.385 . S
C1198 H1179 0.951 . S
C1198 C1196 1.388 . S
C1198 C1199 1.366 . S
C1199 C1198 1.366 . S
C1199 C1200 1.414 . S
C1199 C1202 1.499 . S
C1200 H1180 0.950 . S
C1200 C1199 1.414 . S
C1200 C1201 1.374 . S
C1201 H1181 0.950 . S
C1201 C1197 1.385 . S
C1201 C1200 1.374 . S
C1202 C1199 1.499 . S
C1202 C1203 1.373 . S
C1202 C1204 1.389 . S
C1203 H1182 0.950 . S
C1203 C1202 1.373 . S
C1203 C1219 1.377 . S
C1204 C1202 1.389 . S
C1204 C1205 1.524 . S
C1204 C1218 1.377 . S
C1205 C1204 1.524 . S
C1205 C1206 1.397 . S
C1205 C1210 1.363 . S
C1206 H1183 0.950 . S
C1206 C1205 1.397 . S
C1206 C1207 1.334 . S
C1207 H1184 0.950 . S
C1207 C1206 1.334 . S
C1207 C1208 1.287 . S
C1208 C1207 1.287 . S
C1208 C1209 1.524 . S
C1208 H1227 0.913 . S
C1209 H1185 0.950 . S
C1209 C1208 1.524 . S
C1209 C1210 1.415 . S
C1210 H1186 0.950 . S
C1210 C1205 1.363 . S
C1210 C1209 1.415 . S
C1211 H1187 0.951 . S
C1211 C1212 1.366 . S
C1211 C1213 1.388 . S
C1212 C1211 1.366 . S
C1212 C1216 1.385 . S
C1213 H1188 0.951 . S
C1213 C1211 1.388 . S
C1213 C1214 1.366 . S
C1214 C1213 1.366 . S
C1214 C1215 1.414 . S
C1214 C1217 1.499 . S
C1215 H1189 0.950 . S
C1215 C1214 1.414 . S
C1215 C1216 1.374 . S
C1216 H1190 0.950 . S
C1216 C1212 1.385 . S
C1216 C1215 1.374 . S
C1217 C1214 1.499 . S
C1217 C1218 1.373 . S
C1217 C1219 1.389 . S
C1218 H1191 0.950 . S
C1218 C1204 1.377 . S
C1218 C1217 1.373 . S
C1219 C1203 1.377 . S
C1219 C1217 1.389 . S
C1219 C1220 1.524 . S
C1220 C1219 1.524 . S
C1220 C1221 1.397 . S
C1220 C1225 1.363 . S
C1221 H1192 0.950 . S
C1221 C1220 1.397 . S
C1221 C1222 1.334 . S
C1222 H1193 0.950 . S
C1222 C1221 1.334 . S
C1222 C1223 1.287 . S
C1223 C1222 1.287 . S
C1223 C1224 1.524 . S
C1223 H1226 0.999 . S
C1224 H1194 0.950 . S
C1224 C1223 1.524 . S
C1224 C1225 1.415 . S
C1225 H1195 0.950 . S
C1225 C1220 1.363 . S
C1225 C1224 1.415 . S
H1226 C1223 0.999 . S
H1227 C1208 0.913 . S
H1228 C1246 0.951 . S
H1229 C1248 0.951 . S
H1230 C1250 0.950 . S
H1231 C1251 0.950 . S
H1232 C1253 0.950 . S
H1233 C1256 0.950 . S
H1234 C1257 0.950 . S
H1235 C1259 0.950 . S
H1236 C1260 0.950 . S
H1237 C1261 0.951 . S
H1238 C1263 0.951 . S
H1239 C1265 0.950 . S
H1240 C1266 0.950 . S
H1241 C1268 0.950 . S
H1242 C1271 0.950 . S
H1243 C1272 0.950 . S
H1244 C1274 0.950 . S
H1245 C1275 0.950 . S
C1246 H1228 0.951 . S
C1246 C1247 1.366 . S
C1246 C1248 1.388 . S
C1247 C1246 1.366 . S
C1247 C1251 1.385 . S
C1248 H1229 0.951 . S
C1248 C1246 1.388 . S
C1248 C1249 1.366 . S
C1249 C1248 1.366 . S
C1249 C1250 1.414 . S
C1249 C1252 1.499 . S
C1250 H1230 0.950 . S
C1250 C1249 1.414 . S
C1250 C1251 1.374 . S
C1251 H1231 0.950 . S
C1251 C1247 1.385 . S
C1251 C1250 1.374 . S
C1252 C1249 1.499 . S
C1252 C1253 1.373 . S
C1252 C1254 1.389 . S
C1253 H1232 0.950 . S
C1253 C1252 1.373 . S
C1253 C1269 1.377 . S
C1254 C1252 1.389 . S
C1254 C1255 1.524 . S
C1254 C1268 1.377 . S
C1255 C1254 1.524 . S
C1255 C1256 1.397 . S
C1255 C1260 1.363 . S
C1256 H1233 0.950 . S
C1256 C1255 1.397 . S
C1256 C1257 1.334 . S
C1257 H1234 0.950 . S
C1257 C1256 1.334 . S
C1257 C1258 1.287 . S
C1258 C1257 1.287 . S
C1258 C1259 1.524 . S
C1258 H1277 0.913 . S
C1259 H1235 0.950 . S
C1259 C1258 1.524 . S
C1259 C1260 1.415 . S
C1260 H1236 0.950 . S
C1260 C1255 1.363 . S
C1260 C1259 1.415 . S
C1261 H1237 0.951 . S
C1261 C1262 1.366 . S
C1261 C1263 1.388 . S
C1262 C1261 1.366 . S
C1262 C1266 1.385 . S
C1263 H1238 0.951 . S
C1263 C1261 1.388 . S
C1263 C1264 1.366 . S
C1264 C1263 1.366 . S
C1264 C1265 1.414 . S
C1264 C1267 1.499 . S
C1265 H1239 0.950 . S
C1265 C1264 1.414 . S
C1265 C1266 1.374 . S
C1266 H1240 0.950 . S
C1266 C1262 1.385 . S
C1266 C1265 1.374 . S
C1267 C1264 1.499 . S
C1267 C1268 1.373 . S
C1267 C1269 1.389 . S
C1268 H1241 0.950 . S
C1268 C1254 1.377 . S
C1268 C1267 1.373 . S
C1269 C1253 1.377 . S
C1269 C1267 1.389 . S
C1269 C1270 1.524 . S
C1270 C1269 1.524 . S
C1270 C1271 1.397 . S
C1270 C1275 1.363 . S
C1271 H1242 0.950 . S
C1271 C1270 1.397 . S
C1271 C1272 1.334 . S
C1272 H1243 0.950 . S
C1272 C1271 1.334 . S
C1272 C1273 1.287 . S
C1273 C1272 1.287 . S
C1273 C1274 1.524 . S
C1273 H1276 0.999 . S
C1274 H1244 0.950 . S
C1274 C1273 1.524 . S
C1274 C1275 1.415 . S
C1275 H1245 0.950 . S
C1275 C1270 1.363 . S
C1275 C1274 1.415 . S
H1276 C1273 0.999 . S
H1277 C1258 0.913 . S
H1278 C1296 0.951 . S
H1279 C1298 0.951 . S
H1280 C1300 0.950 . S
H1281 C1301 0.950 . S
H1282 C1303 0.950 . S
H1283 C1306 0.950 . S
H1284 C1307 0.950 . S
H1285 C1309 0.950 . S
H1286 C1310 0.950 . S
H1287 C1311 0.951 . S
H1288 C1313 0.951 . S
H1289 C1315 0.950 . S
H1290 C1316 0.950 . S
H1291 C1318 0.950 . S
H1292 C1321 0.950 . S
H1293 C1322 0.950 . S
H1294 C1324 0.950 . S
H1295 C1325 0.950 . S
C1296 H1278 0.951 . S
C1296 C1297 1.366 . S
C1296 C1298 1.388 . S
C1297 C1296 1.366 . S
C1297 C1301 1.385 . S
C1298 H1279 0.951 . S
C1298 C1296 1.388 . S
C1298 C1299 1.366 . S
C1299 C1298 1.366 . S
C1299 C1300 1.414 . S
C1299 C1302 1.499 . S
C1300 H1280 0.950 . S
C1300 C1299 1.414 . S
C1300 C1301 1.374 . S
C1301 H1281 0.950 . S
C1301 C1297 1.385 . S
C1301 C1300 1.374 . S
C1302 C1299 1.499 . S
C1302 C1303 1.373 . S
C1302 C1304 1.389 . S
C1303 H1282 0.950 . S
C1303 C1302 1.373 . S
C1303 C1319 1.377 . S
C1304 C1302 1.389 . S
C1304 C1305 1.524 . S
C1304 C1318 1.377 . S
C1305 C1304 1.524 . S
C1305 C1306 1.397 . S
C1305 C1310 1.363 . S
C1306 H1283 0.950 . S
C1306 C1305 1.397 . S
C1306 C1307 1.334 . S
C1307 H1284 0.950 . S
C1307 C1306 1.334 . S
C1307 C1308 1.287 . S
C1308 C1307 1.287 . S
C1308 C1309 1.524 . S
C1308 H1327 0.913 . S
C1309 H1285 0.950 . S
C1309 C1308 1.524 . S
C1309 C1310 1.415 . S
C1310 H1286 0.950 . S
C1310 C1305 1.363 . S
C1310 C1309 1.415 . S
C1311 H1287 0.951 . S
C1311 C1312 1.366 . S
C1311 C1313 1.388 . S
C1312 C1311 1.366 . S
C1312 C1316 1.385 . S
C1313 H1288 0.951 . S
C1313 C1311 1.388 . S
C1313 C1314 1.366 . S
C1314 C1313 1.366 . S
C1314 C1315 1.414 . S
C1314 C1317 1.499 . S
C1315 H1289 0.950 . S
C1315 C1314 1.414 . S
C1315 C1316 1.374 . S
C1316 H1290 0.950 . S
C1316 C1312 1.385 . S
C1316 C1315 1.374 . S
C1317 C1314 1.499 . S
C1317 C1318 1.373 . S
C1317 C1319 1.389 . S
C1318 H1291 0.950 . S
C1318 C1304 1.377 . S
C1318 C1317 1.373 . S
C1319 C1303 1.377 . S
C1319 C1317 1.389 . S
C1319 C1320 1.524 . S
C1320 C1319 1.524 . S
C1320 C1321 1.397 . S
C1320 C1325 1.363 . S
C1321 H1292 0.950 . S
C1321 C1320 1.397 . S
C1321 C1322 1.334 . S
C1322 H1293 0.950 . S
C1322 C1321 1.334 . S
C1322 C1323 1.287 . S
C1323 C1322 1.287 . S
C1323 C1324 1.524 . S
C1323 H1326 0.999 . S
C1324 H1294 0.950 . S
C1324 C1323 1.524 . S
C1324 C1325 1.415 . S
C1325 H1295 0.950 . S
C1325 C1320 1.363 . S
C1325 C1324 1.415 . S
H1326 C1323 0.999 . S
H1327 C1308 0.913 . S
H1328 C1346 0.951 . S
H1329 C1348 0.951 . S
H1330 C1350 0.950 . S
H1331 C1351 0.950 . S
H1332 C1353 0.950 . S
H1333 C1356 0.950 . S
H1334 C1357 0.950 . S
H1335 C1359 0.950 . S
H1336 C1360 0.950 . S
H1337 C1361 0.951 . S
H1338 C1363 0.951 . S
H1339 C1365 0.950 . S
H1340 C1366 0.950 . S
H1341 C1368 0.950 . S
H1342 C1371 0.950 . S
H1343 C1372 0.950 . S
H1344 C1374 0.950 . S
H1345 C1375 0.950 . S
C1346 H1328 0.951 . S
C1346 C1347 1.366 . S
C1346 C1348 1.388 . S
C1347 C1346 1.366 . S
C1347 C1351 1.385 . S
C1348 H1329 0.951 . S
C1348 C1346 1.388 . S
C1348 C1349 1.366 . S
C1349 C1348 1.366 . S
C1349 C1350 1.414 . S
C1349 C1352 1.499 . S
C1350 H1330 0.950 . S
C1350 C1349 1.414 . S
C1350 C1351 1.374 . S
C1351 H1331 0.950 . S
C1351 C1347 1.385 . S
C1351 C1350 1.374 . S
C1352 C1349 1.499 . S
C1352 C1353 1.373 . S
C1352 C1354 1.389 . S
C1353 H1332 0.950 . S
C1353 C1352 1.373 . S
C1353 C1369 1.377 1_554 S
C1354 C1352 1.389 . S
C1354 C1355 1.524 . S
C1354 C1368 1.377 1_554 S
C1355 C1354 1.524 . S
C1355 C1356 1.397 . S
C1355 C1360 1.363 . S
C1356 H1333 0.950 . S
C1356 C1355 1.397 . S
C1356 C1357 1.334 . S
C1357 H1334 0.950 . S
C1357 C1356 1.334 . S
C1357 C1358 1.287 . S
C1358 C1357 1.287 . S
C1358 C1359 1.524 . S
C1358 H1377 0.913 . S
C1359 H1335 0.950 . S
C1359 C1358 1.524 . S
C1359 C1360 1.415 . S
C1360 H1336 0.950 . S
C1360 C1355 1.363 . S
C1360 C1359 1.415 . S
C1361 H1337 0.951 . S
C1361 C1362 1.366 . S
C1361 C1363 1.388 . S
C1362 C1361 1.366 . S
C1362 C1366 1.385 . S
C1363 H1338 0.951 . S
C1363 C1361 1.388 . S
C1363 C1364 1.366 . S
C1364 C1363 1.366 . S
C1364 C1365 1.414 . S
C1364 C1367 1.499 . S
C1365 H1339 0.950 . S
C1365 C1364 1.414 . S
C1365 C1366 1.374 . S
C1366 H1340 0.950 . S
C1366 C1362 1.385 . S
C1366 C1365 1.374 . S
C1367 C1364 1.499 . S
C1367 C1368 1.373 . S
C1367 C1369 1.389 . S
C1368 H1341 0.950 . S
C1368 C1354 1.377 1_556 S
C1368 C1367 1.373 . S
C1369 C1353 1.377 1_556 S
C1369 C1367 1.389 . S
C1369 C1370 1.524 . S
C1370 C1369 1.524 . S
C1370 C1371 1.397 . S
C1370 C1375 1.363 . S
C1371 H1342 0.950 . S
C1371 C1370 1.397 . S
C1371 C1372 1.334 . S
C1372 H1343 0.950 . S
C1372 C1371 1.334 . S
C1372 C1373 1.287 . S
C1373 C1372 1.287 . S
C1373 C1374 1.524 . S
C1373 H1376 0.999 . S
C1374 H1344 0.950 . S
C1374 C1373 1.524 . S
C1374 C1375 1.415 . S
C1375 H1345 0.950 . S
C1375 C1370 1.363 . S
C1375 C1374 1.415 . S
H1376 C1373 0.999 . S
H1377 C1358 0.913 . S
H1378 C1396 0.951 . S
H1379 C1398 0.951 . S
H1380 C1400 0.950 . S
H1381 C1401 0.950 . S
H1382 C1403 0.950 . S
H1383 C1406 0.950 . S
H1384 C1407 0.950 . S
H1385 C1409 0.950 . S
H1386 C1410 0.950 . S
H1387 C1411 0.951 . S
H1388 C1413 0.951 . S
H1389 C1415 0.950 . S
H1390 C1416 0.950 . S
H1391 C1418 0.950 . S
H1392 C1421 0.950 . S
H1393 C1422 0.950 . S
H1394 C1424 0.950 . S
H1395 C1425 0.950 . S
C1396 H1378 0.951 . S
C1396 C1397 1.366 . S
C1396 C1398 1.388 . S
C1397 C1396 1.366 . S
C1397 C1401 1.385 . S
C1398 H1379 0.951 . S
C1398 C1396 1.388 . S
C1398 C1399 1.366 . S
C1399 C1398 1.366 . S
C1399 C1400 1.414 . S
C1399 C1402 1.499 . S
C1400 H1380 0.950 . S
C1400 C1399 1.414 . S
C1400 C1401 1.374 . S
C1401 H1381 0.950 . S
C1401 C1397 1.385 . S
C1401 C1400 1.374 . S
C1402 C1399 1.499 . S
C1402 C1403 1.373 . S
C1402 C1404 1.389 . S
C1403 H1382 0.950 . S
C1403 C1402 1.373 . S
C1403 C1419 1.377 . S
C1404 C1402 1.389 . S
C1404 C1405 1.524 . S
C1404 C1418 1.377 . S
C1405 C1404 1.524 . S
C1405 C1406 1.397 . S
C1405 C1410 1.363 . S
C1406 H1383 0.950 . S
C1406 C1405 1.397 . S
C1406 C1407 1.334 . S
C1407 H1384 0.950 . S
C1407 C1406 1.334 . S
C1407 C1408 1.287 . S
C1408 C1407 1.287 . S
C1408 C1409 1.524 . S
C1408 H1427 0.913 . S
C1409 H1385 0.950 . S
C1409 C1408 1.524 . S
C1409 C1410 1.415 . S
C1410 H1386 0.950 . S
C1410 C1405 1.363 . S
C1410 C1409 1.415 . S
C1411 H1387 0.951 . S
C1411 C1412 1.366 . S
C1411 C1413 1.388 . S
C1412 C1411 1.366 . S
C1412 C1416 1.385 . S
C1413 H1388 0.951 . S
C1413 C1411 1.388 . S
C1413 C1414 1.366 . S
C1414 C1413 1.366 . S
C1414 C1415 1.414 . S
C1414 C1417 1.499 . S
C1415 H1389 0.950 . S
C1415 C1414 1.414 . S
C1415 C1416 1.374 . S
C1416 H1390 0.950 . S
C1416 C1412 1.385 . S
C1416 C1415 1.374 . S
C1417 C1414 1.499 . S
C1417 C1418 1.373 . S
C1417 C1419 1.389 . S
C1418 H1391 0.950 . S
C1418 C1404 1.377 . S
C1418 C1417 1.373 . S
C1419 C1403 1.377 . S
C1419 C1417 1.389 . S
C1419 C1420 1.524 . S
C1420 C1419 1.524 . S
C1420 C1421 1.397 . S
C1420 C1425 1.363 . S
C1421 H1392 0.950 . S
C1421 C1420 1.397 . S
C1421 C1422 1.334 . S
C1422 H1393 0.950 . S
C1422 C1421 1.334 . S
C1422 C1423 1.287 . S
C1423 C1422 1.287 . S
C1423 C1424 1.524 . S
C1423 H1426 0.999 . S
C1424 H1394 0.950 . S
C1424 C1423 1.524 . S
C1424 C1425 1.415 . S
C1425 H1395 0.950 . S
C1425 C1420 1.363 . S
C1425 C1424 1.415 . S
H1426 C1423 0.999 . S
H1427 C1408 0.913 . S
H1428 C1446 0.951 . S
H1429 C1448 0.951 . S
H1430 C1450 0.950 . S
H1431 C1451 0.950 . S
H1432 C1453 0.950 . S
H1433 C1456 0.950 . S
H1434 C1457 0.950 . S
H1435 C1459 0.950 . S
H1436 C1460 0.950 . S
H1437 C1461 0.951 . S
H1438 C1463 0.951 . S
H1439 C1465 0.950 . S
H1440 C1466 0.950 . S
H1441 C1468 0.950 . S
H1442 C1471 0.950 . S
H1443 C1472 0.950 . S
H1444 C1474 0.950 . S
H1445 C1475 0.950 . S
C1446 H1428 0.951 . S
C1446 C1447 1.366 . S
C1446 C1448 1.388 . S
C1447 C1446 1.366 . S
C1447 C1451 1.385 . S
C1448 H1429 0.951 . S
C1448 C1446 1.388 . S
C1448 C1449 1.366 . S
C1449 C1448 1.366 . S
C1449 C1450 1.414 . S
C1449 C1452 1.499 . S
C1450 H1430 0.950 . S
C1450 C1449 1.414 . S
C1450 C1451 1.374 . S
C1451 H1431 0.950 . S
C1451 C1447 1.385 . S
C1451 C1450 1.374 . S
C1452 C1449 1.499 . S
C1452 C1453 1.373 . S
C1452 C1454 1.389 . S
C1453 H1432 0.950 . S
C1453 C1452 1.373 . S
C1453 C1469 1.377 1_556 S
C1454 C1452 1.389 . S
C1454 C1455 1.524 . S
C1454 C1468 1.377 1_556 S
C1455 C1454 1.524 . S
C1455 C1456 1.397 . S
C1455 C1460 1.363 . S
C1456 H1433 0.950 . S
C1456 C1455 1.397 . S
C1456 C1457 1.334 . S
C1457 H1434 0.950 . S
C1457 C1456 1.334 . S
C1457 C1458 1.287 . S
C1458 C1457 1.287 . S
C1458 C1459 1.524 . S
C1458 H1477 0.913 . S
C1459 H1435 0.950 . S
C1459 C1458 1.524 . S
C1459 C1460 1.415 . S
C1460 H1436 0.950 . S
C1460 C1455 1.363 . S
C1460 C1459 1.415 . S
C1461 H1437 0.951 . S
C1461 C1462 1.366 . S
C1461 C1463 1.388 . S
C1462 C1461 1.366 . S
C1462 C1466 1.385 . S
C1463 H1438 0.951 . S
C1463 C1461 1.388 . S
C1463 C1464 1.366 . S
C1464 C1463 1.366 . S
C1464 C1465 1.414 . S
C1464 C1467 1.499 . S
C1465 H1439 0.950 . S
C1465 C1464 1.414 . S
C1465 C1466 1.374 . S
C1466 H1440 0.950 . S
C1466 C1462 1.385 . S
C1466 C1465 1.374 . S
C1467 C1464 1.499 . S
C1467 C1468 1.373 . S
C1467 C1469 1.389 . S
C1468 H1441 0.950 . S
C1468 C1454 1.377 1_554 S
C1468 C1467 1.373 . S
C1469 C1453 1.377 1_554 S
C1469 C1467 1.389 . S
C1469 C1470 1.524 . S
C1470 C1469 1.524 . S
C1470 C1471 1.397 . S
C1470 C1475 1.363 . S
C1471 H1442 0.950 . S
C1471 C1470 1.397 . S
C1471 C1472 1.334 . S
C1472 H1443 0.950 . S
C1472 C1471 1.334 . S
C1472 C1473 1.287 . S
C1473 C1472 1.287 . S
C1473 C1474 1.524 . S
C1473 H1476 0.999 . S
C1474 H1444 0.950 . S
C1474 C1473 1.524 . S
C1474 C1475 1.415 . S
C1475 H1445 0.950 . S
C1475 C1470 1.363 . S
C1475 C1474 1.415 . S
H1476 C1473 0.999 . S
H1477 C1458 0.913 . S
H1478 C1496 0.951 . S
H1479 C1498 0.951 . S
H1480 C1500 0.950 . S
H1481 C1501 0.950 . S
H1482 C1503 0.950 . S
H1483 C1506 0.950 . S
H1484 C1507 0.950 . S
H1485 C1509 0.950 . S
H1486 C1510 0.950 . S
H1487 C1511 0.951 . S
H1488 C1513 0.951 . S
H1489 C1515 0.950 . S
H1490 C1516 0.950 . S
H1491 C1518 0.950 . S
H1492 C1521 0.950 . S
H1493 C1522 0.950 . S
H1494 C1524 0.950 . S
H1495 C1525 0.950 . S
C1496 H1478 0.951 . S
C1496 C1497 1.366 . S
C1496 C1498 1.388 . S
C1497 C1496 1.366 . S
C1497 C1501 1.385 . S
C1498 H1479 0.951 . S
C1498 C1496 1.388 . S
C1498 C1499 1.366 . S
C1499 C1498 1.366 . S
C1499 C1500 1.414 . S
C1499 C1502 1.499 . S
C1500 H1480 0.950 . S
C1500 C1499 1.414 . S
C1500 C1501 1.374 . S
C1501 H1481 0.950 . S
C1501 C1497 1.385 . S
C1501 C1500 1.374 . S
C1502 C1499 1.499 . S
C1502 C1503 1.373 . S
C1502 C1504 1.389 . S
C1503 H1482 0.950 . S
C1503 C1502 1.373 . S
C1503 C1519 1.377 . S
C1504 C1502 1.389 . S
C1504 C1505 1.524 . S
C1504 C1518 1.377 . S
C1505 C1504 1.524 . S
C1505 C1506 1.397 . S
C1505 C1510 1.363 . S
C1506 H1483 0.950 . S
C1506 C1505 1.397 . S
C1506 C1507 1.334 . S
C1507 H1484 0.950 . S
C1507 C1506 1.334 . S
C1507 C1508 1.287 . S
C1508 C1507 1.287 . S
C1508 C1509 1.524 . S
C1508 H1527 0.913 . S
C1509 H1485 0.950 . S
C1509 C1508 1.524 . S
C1509 C1510 1.415 . S
C1510 H1486 0.950 . S
C1510 C1505 1.363 . S
C1510 C1509 1.415 . S
C1511 H1487 0.951 . S
C1511 C1512 1.366 . S
C1511 C1513 1.388 . S
C1512 C1511 1.366 . S
C1512 C1516 1.385 . S
C1513 H1488 0.951 . S
C1513 C1511 1.388 . S
C1513 C1514 1.366 . S
C1514 C1513 1.366 . S
C1514 C1515 1.414 . S
C1514 C1517 1.499 . S
C1515 H1489 0.950 . S
C1515 C1514 1.414 . S
C1515 C1516 1.374 . S
C1516 H1490 0.950 . S
C1516 C1512 1.385 . S
C1516 C1515 1.374 . S
C1517 C1514 1.499 . S
C1517 C1518 1.373 . S
C1517 C1519 1.389 . S
C1518 H1491 0.950 . S
C1518 C1504 1.377 . S
C1518 C1517 1.373 . S
C1519 C1503 1.377 . S
C1519 C1517 1.389 . S
C1519 C1520 1.524 . S
C1520 C1519 1.524 . S
C1520 C1521 1.397 . S
C1520 C1525 1.363 . S
C1521 H1492 0.950 . S
C1521 C1520 1.397 . S
C1521 C1522 1.334 . S
C1522 H1493 0.950 . S
C1522 C1521 1.334 . S
C1522 C1523 1.287 . S
C1523 C1522 1.287 . S
C1523 C1524 1.524 . S
C1523 H1526 0.999 . S
C1524 H1494 0.950 . S
C1524 C1523 1.524 . S
C1524 C1525 1.415 . S
C1525 H1495 0.950 . S
C1525 C1520 1.363 . S
C1525 C1524 1.415 . S
H1526 C1523 0.999 . S
H1527 C1508 0.913 . S
H1528 C1546 0.951 . S
H1529 C1548 0.951 . S
H1530 C1550 0.950 . S
H1531 C1551 0.950 . S
H1532 C1553 0.950 . S
H1533 C1556 0.950 . S
H1534 C1557 0.950 . S
H1535 C1559 0.950 . S
H1536 C1560 0.950 . S
H1537 C1561 0.951 . S
H1538 C1563 0.951 . S
H1539 C1565 0.950 . S
H1540 C1566 0.950 . S
H1541 C1568 0.950 . S
H1542 C1571 0.950 . S
H1543 C1572 0.950 . S
H1544 C1574 0.950 . S
H1545 C1575 0.950 . S
C1546 H1528 0.951 . S
C1546 C1547 1.366 . S
C1546 C1548 1.388 . S
C1547 C1546 1.366 . S
C1547 C1551 1.385 . S
C1548 H1529 0.951 . S
C1548 C1546 1.388 . S
C1548 C1549 1.366 . S
C1549 C1548 1.366 . S
C1549 C1550 1.414 . S
C1549 C1552 1.499 . S
C1550 H1530 0.950 . S
C1550 C1549 1.414 . S
C1550 C1551 1.374 . S
C1551 H1531 0.950 . S
C1551 C1547 1.385 . S
C1551 C1550 1.374 . S
C1552 C1549 1.499 . S
C1552 C1553 1.373 . S
C1552 C1554 1.389 . S
C1553 H1532 0.950 . S
C1553 C1552 1.373 . S
C1553 C1569 1.377 1_556 S
C1554 C1552 1.389 . S
C1554 C1555 1.524 . S
C1554 C1568 1.377 1_556 S
C1555 C1554 1.524 . S
C1555 C1556 1.397 . S
C1555 C1560 1.363 . S
C1556 H1533 0.950 . S
C1556 C1555 1.397 . S
C1556 C1557 1.334 . S
C1557 H1534 0.950 . S
C1557 C1556 1.334 . S
C1557 C1558 1.287 . S
C1558 C1557 1.287 . S
C1558 C1559 1.524 . S
C1558 H1577 0.913 . S
C1559 H1535 0.950 . S
C1559 C1558 1.524 . S
C1559 C1560 1.415 . S
C1560 H1536 0.950 . S
C1560 C1555 1.363 . S
C1560 C1559 1.415 . S
C1561 H1537 0.951 . S
C1561 C1562 1.366 . S
C1561 C1563 1.388 . S
C1562 C1561 1.366 . S
C1562 C1566 1.385 . S
C1563 H1538 0.951 . S
C1563 C1561 1.388 . S
C1563 C1564 1.366 . S
C1564 C1563 1.366 . S
C1564 C1565 1.414 . S
C1564 C1567 1.499 . S
C1565 H1539 0.950 . S
C1565 C1564 1.414 . S
C1565 C1566 1.374 . S
C1566 H1540 0.950 . S
C1566 C1562 1.385 . S
C1566 C1565 1.374 . S
C1567 C1564 1.499 . S
C1567 C1568 1.373 . S
C1567 C1569 1.389 . S
C1568 H1541 0.950 . S
C1568 C1554 1.377 1_554 S
C1568 C1567 1.373 . S
C1569 C1553 1.377 1_554 S
C1569 C1567 1.389 . S
C1569 C1570 1.524 . S
C1570 C1569 1.524 . S
C1570 C1571 1.397 . S
C1570 C1575 1.363 . S
C1571 H1542 0.950 . S
C1571 C1570 1.397 . S
C1571 C1572 1.334 . S
C1572 H1543 0.950 . S
C1572 C1571 1.334 . S
C1572 C1573 1.287 . S
C1573 C1572 1.287 . S
C1573 C1574 1.524 . S
C1573 H1576 0.999 . S
C1574 H1544 0.950 . S
C1574 C1573 1.524 . S
C1574 C1575 1.415 . S
C1575 H1545 0.950 . S
C1575 C1570 1.363 . S
C1575 C1574 1.415 . S
H1576 C1573 0.999 . S
H1577 C1558 0.913 . S
H1578 C1596 0.951 . S
H1579 C1598 0.951 . S
H1580 C1600 0.950 . S
H1581 C1601 0.950 . S
H1582 C1603 0.950 . S
H1583 C1606 0.950 . S
H1584 C1607 0.950 . S
H1585 C1609 0.950 . S
H1586 C1610 0.950 . S
H1587 C1611 0.951 . S
H1588 C1613 0.951 . S
H1589 C1615 0.950 . S
H1590 C1616 0.950 . S
H1591 C1618 0.950 . S
H1592 C1621 0.950 . S
H1593 C1622 0.950 . S
H1594 C1624 0.950 . S
H1595 C1625 0.950 . S
C1596 H1578 0.951 . S
C1596 C1597 1.366 . S
C1596 C1598 1.388 . S
C1597 C1596 1.366 . S
C1597 C1601 1.385 . S
C1598 H1579 0.951 . S
C1598 C1596 1.388 . S
C1598 C1599 1.366 . S
C1599 C1598 1.366 . S
C1599 C1600 1.414 . S
C1599 C1602 1.499 . S
C1600 H1580 0.950 . S
C1600 C1599 1.414 . S
C1600 C1601 1.374 . S
C1601 H1581 0.950 . S
C1601 C1597 1.385 . S
C1601 C1600 1.374 . S
C1602 C1599 1.499 . S
C1602 C1603 1.373 . S
C1602 C1604 1.389 . S
C1603 H1582 0.950 . S
C1603 C1602 1.373 . S
C1603 C1619 1.377 . S
C1604 C1602 1.389 . S
C1604 C1605 1.524 . S
C1604 C1618 1.377 . S
C1605 C1604 1.524 . S
C1605 C1606 1.397 . S
C1605 C1610 1.363 . S
C1606 H1583 0.950 . S
C1606 C1605 1.397 . S
C1606 C1607 1.334 . S
C1607 H1584 0.950 . S
C1607 C1606 1.334 . S
C1607 C1608 1.287 . S
C1608 C1607 1.287 . S
C1608 C1609 1.524 . S
C1608 H1627 0.913 . S
C1609 H1585 0.950 . S
C1609 C1608 1.524 . S
C1609 C1610 1.415 . S
C1610 H1586 0.950 . S
C1610 C1605 1.363 . S
C1610 C1609 1.415 . S
C1611 H1587 0.951 . S
C1611 C1612 1.366 . S
C1611 C1613 1.388 . S
C1612 C1611 1.366 . S
C1612 C1616 1.385 . S
C1613 H1588 0.951 . S
C1613 C1611 1.388 . S
C1613 C1614 1.366 . S
C1614 C1613 1.366 . S
C1614 C1615 1.414 . S
C1614 C1617 1.499 . S
C1615 H1589 0.950 . S
C1615 C1614 1.414 . S
C1615 C1616 1.374 . S
C1616 H1590 0.950 . S
C1616 C1612 1.385 . S
C1616 C1615 1.374 . S
C1617 C1614 1.499 . S
C1617 C1618 1.373 . S
C1617 C1619 1.389 . S
C1618 H1591 0.950 . S
C1618 C1604 1.377 . S
C1618 C1617 1.373 . S
C1619 C1603 1.377 . S
C1619 C1617 1.389 . S
C1619 C1620 1.524 . S
C1620 C1619 1.524 . S
C1620 C1621 1.397 . S
C1620 C1625 1.363 . S
C1621 H1592 0.950 . S
C1621 C1620 1.397 . S
C1621 C1622 1.334 . S
C1622 H1593 0.950 . S
C1622 C1621 1.334 . S
C1622 C1623 1.287 . S
C1623 C1622 1.287 . S
C1623 C1624 1.524 . S
C1623 H1626 0.999 . S
C1624 H1594 0.950 . S
C1624 C1623 1.524 . S
C1624 C1625 1.415 . S
C1625 H1595 0.950 . S
C1625 C1620 1.363 . S
C1625 C1624 1.415 . S
H1626 C1623 0.999 . S
H1627 C1608 0.913 . S
H1628 C1646 0.951 . S
H1629 C1648 0.951 . S
H1630 C1650 0.950 . S
H1631 C1651 0.950 . S
H1632 C1653 0.950 . S
H1633 C1656 0.950 . S
H1634 C1657 0.950 . S
H1635 C1659 0.950 . S
H1636 C1660 0.950 . S
H1637 C1661 0.951 . S
H1638 C1663 0.951 . S
H1639 C1665 0.950 . S
H1640 C1666 0.950 . S
H1641 C1668 0.950 . S
H1642 C1671 0.950 . S
H1643 C1672 0.950 . S
H1644 C1674 0.950 . S
H1645 C1675 0.950 . S
C1646 H1628 0.951 . S
C1646 C1647 1.366 . S
C1646 C1648 1.388 . S
C1647 C1646 1.366 . S
C1647 C1651 1.385 . S
C1648 H1629 0.951 . S
C1648 C1646 1.388 . S
C1648 C1649 1.366 . S
C1649 C1648 1.366 . S
C1649 C1650 1.414 . S
C1649 C1652 1.499 . S
C1650 H1630 0.950 . S
C1650 C1649 1.414 . S
C1650 C1651 1.374 . S
C1651 H1631 0.950 . S
C1651 C1647 1.385 . S
C1651 C1650 1.374 . S
C1652 C1649 1.499 . S
C1652 C1653 1.373 . S
C1652 C1654 1.389 . S
C1653 H1632 0.950 . S
C1653 C1652 1.373 . S
C1653 C1669 1.377 1_554 S
C1654 C1652 1.389 . S
C1654 C1655 1.524 . S
C1654 C1668 1.377 1_554 S
C1655 C1654 1.524 . S
C1655 C1656 1.397 . S
C1655 C1660 1.363 . S
C1656 H1633 0.950 . S
C1656 C1655 1.397 . S
C1656 C1657 1.334 . S
C1657 H1634 0.950 . S
C1657 C1656 1.334 . S
C1657 C1658 1.287 . S
C1658 C1657 1.287 . S
C1658 C1659 1.524 . S
C1658 H1677 0.913 . S
C1659 H1635 0.950 . S
C1659 C1658 1.524 . S
C1659 C1660 1.415 . S
C1660 H1636 0.950 . S
C1660 C1655 1.363 . S
C1660 C1659 1.415 . S
C1661 H1637 0.951 . S
C1661 C1662 1.366 . S
C1661 C1663 1.388 . S
C1662 C1661 1.366 . S
C1662 C1666 1.385 . S
C1663 H1638 0.951 . S
C1663 C1661 1.388 . S
C1663 C1664 1.366 . S
C1664 C1663 1.366 . S
C1664 C1665 1.414 . S
C1664 C1667 1.499 . S
C1665 H1639 0.950 . S
C1665 C1664 1.414 . S
C1665 C1666 1.374 . S
C1666 H1640 0.950 . S
C1666 C1662 1.385 . S
C1666 C1665 1.374 . S
C1667 C1664 1.499 . S
C1667 C1668 1.373 . S
C1667 C1669 1.389 . S
C1668 H1641 0.950 . S
C1668 C1654 1.377 1_556 S
C1668 C1667 1.373 . S
C1669 C1653 1.377 1_556 S
C1669 C1667 1.389 . S
C1669 C1670 1.524 . S
C1670 C1669 1.524 . S
C1670 C1671 1.397 . S
C1670 C1675 1.363 . S
C1671 H1642 0.950 . S
C1671 C1670 1.397 . S
C1671 C1672 1.334 . S
C1672 H1643 0.950 . S
C1672 C1671 1.334 . S
C1672 C1673 1.287 . S
C1673 C1672 1.287 . S
C1673 C1674 1.524 . S
C1673 H1676 0.999 . S
C1674 H1644 0.950 . S
C1674 C1673 1.524 . S
C1674 C1675 1.415 . S
C1675 H1645 0.950 . S
C1675 C1670 1.363 . S
C1675 C1674 1.415 . S
H1676 C1673 0.999 . S
H1677 C1658 0.913 . S
H1678 C1696 0.951 . S
H1679 C1698 0.951 . S
H1680 C1700 0.950 . S
H1681 C1701 0.950 . S
H1682 C1703 0.950 . S
H1683 C1706 0.950 . S
H1684 C1707 0.950 . S
H1685 C1709 0.950 . S
H1686 C1710 0.950 . S
H1687 C1711 0.951 . S
H1688 C1713 0.951 . S
H1689 C1715 0.950 . S
H1690 C1716 0.950 . S
H1691 C1718 0.950 . S
H1692 C1721 0.950 . S
H1693 C1722 0.950 . S
H1694 C1724 0.950 . S
H1695 C1725 0.950 . S
C1696 H1678 0.951 . S
C1696 C1697 1.366 . S
C1696 C1698 1.388 . S
C1697 C1696 1.366 . S
C1697 C1701 1.385 . S
C1698 H1679 0.951 . S
C1698 C1696 1.388 . S
C1698 C1699 1.366 . S
C1699 C1698 1.366 . S
C1699 C1700 1.414 . S
C1699 C1702 1.499 . S
C1700 H1680 0.950 . S
C1700 C1699 1.414 . S
C1700 C1701 1.374 . S
C1701 H1681 0.950 . S
C1701 C1697 1.385 . S
C1701 C1700 1.374 . S
C1702 C1699 1.499 . S
C1702 C1703 1.373 . S
C1702 C1704 1.389 . S
C1703 H1682 0.950 . S
C1703 C1702 1.373 . S
C1703 C1719 1.377 . S
C1704 C1702 1.389 . S
C1704 C1705 1.524 . S
C1704 C1718 1.377 . S
C1705 C1704 1.524 . S
C1705 C1706 1.397 . S
C1705 C1710 1.363 . S
C1706 H1683 0.950 . S
C1706 C1705 1.397 . S
C1706 C1707 1.334 . S
C1707 H1684 0.950 . S
C1707 C1706 1.334 . S
C1707 C1708 1.287 . S
C1708 C1707 1.287 . S
C1708 C1709 1.524 . S
C1708 H1727 0.913 . S
C1709 H1685 0.950 . S
C1709 C1708 1.524 . S
C1709 C1710 1.415 . S
C1710 H1686 0.950 . S
C1710 C1705 1.363 . S
C1710 C1709 1.415 . S
C1711 H1687 0.951 . S
C1711 C1712 1.366 . S
C1711 C1713 1.388 . S
C1712 C1711 1.366 . S
C1712 C1716 1.385 . S
C1713 H1688 0.951 . S
C1713 C1711 1.388 . S
C1713 C1714 1.366 . S
C1714 C1713 1.366 . S
C1714 C1715 1.414 . S
C1714 C1717 1.499 . S
C1715 H1689 0.950 . S
C1715 C1714 1.414 . S
C1715 C1716 1.374 . S
C1716 H1690 0.950 . S
C1716 C1712 1.385 . S
C1716 C1715 1.374 . S
C1717 C1714 1.499 . S
C1717 C1718 1.373 . S
C1717 C1719 1.389 . S
C1718 H1691 0.950 . S
C1718 C1704 1.377 . S
C1718 C1717 1.373 . S
C1719 C1703 1.377 . S
C1719 C1717 1.389 . S
C1719 C1720 1.524 . S
C1720 C1719 1.524 . S
C1720 C1721 1.397 . S
C1720 C1725 1.363 . S
C1721 H1692 0.950 . S
C1721 C1720 1.397 . S
C1721 C1722 1.334 . S
C1722 H1693 0.950 . S
C1722 C1721 1.334 . S
C1722 C1723 1.287 . S
C1723 C1722 1.287 . S
C1723 C1724 1.524 . S
C1723 H1726 0.999 . S
C1724 H1694 0.950 . S
C1724 C1723 1.524 . S
C1724 C1725 1.415 . S
C1725 H1695 0.950 . S
C1725 C1720 1.363 . S
C1725 C1724 1.415 . S
H1726 C1723 0.999 . S
H1727 C1708 0.913 . S
H1728 C1746 0.951 . S
H1729 C1748 0.951 . S
H1730 C1750 0.950 . S
H1731 C1751 0.950 . S
H1732 C1753 0.950 . S
H1733 C1756 0.950 . S
H1734 C1757 0.950 . S
H1735 C1759 0.950 . S
H1736 C1760 0.950 . S
H1737 C1761 0.951 . S
H1738 C1763 0.951 . S
H1739 C1765 0.950 . S
H1740 C1766 0.950 . S
H1741 C1768 0.950 . S
H1742 C1771 0.950 . S
H1743 C1772 0.950 . S
H1744 C1774 0.950 . S
H1745 C1775 0.950 . S
C1746 H1728 0.951 . S
C1746 C1747 1.366 . S
C1746 C1748 1.388 . S
C1747 C1746 1.366 . S
C1747 C1751 1.385 . S
C1748 H1729 0.951 . S
C1748 C1746 1.388 . S
C1748 C1749 1.366 . S
C1749 C1748 1.366 . S
C1749 C1750 1.414 . S
C1749 C1752 1.499 . S
C1750 H1730 0.950 . S
C1750 C1749 1.414 . S
C1750 C1751 1.374 . S
C1751 H1731 0.950 . S
C1751 C1747 1.385 . S
C1751 C1750 1.374 . S
C1752 C1749 1.499 . S
C1752 C1753 1.373 . S
C1752 C1754 1.389 . S
C1753 H1732 0.950 . S
C1753 C1752 1.373 . S
C1753 C1769 1.377 . S
C1754 C1752 1.389 . S
C1754 C1755 1.524 . S
C1754 C1768 1.377 . S
C1755 C1754 1.524 . S
C1755 C1756 1.397 . S
C1755 C1760 1.363 . S
C1756 H1733 0.950 . S
C1756 C1755 1.397 . S
C1756 C1757 1.334 . S
C1757 H1734 0.950 . S
C1757 C1756 1.334 . S
C1757 C1758 1.287 . S
C1758 C1757 1.287 . S
C1758 C1759 1.524 . S
C1758 H1777 0.913 . S
C1759 H1735 0.950 . S
C1759 C1758 1.524 . S
C1759 C1760 1.415 . S
C1760 H1736 0.950 . S
C1760 C1755 1.363 . S
C1760 C1759 1.415 . S
C1761 H1737 0.951 . S
C1761 C1762 1.366 . S
C1761 C1763 1.388 . S
C1762 C1761 1.366 . S
C1762 C1766 1.385 . S
C1763 H1738 0.951 . S
C1763 C1761 1.388 . S
C1763 C1764 1.366 . S
C1764 C1763 1.366 . S
C1764 C1765 1.414 . S
C1764 C1767 1.499 . S
C1765 H1739 0.950 . S
C1765 C1764 1.414 . S
C1765 C1766 1.374 . S
C1766 H1740 0.950 . S
C1766 C1762 1.385 . S
C1766 C1765 1.374 . S
C1767 C1764 1.499 . S
C1767 C1768 1.373 . S
C1767 C1769 1.389 . S
C1768 H1741 0.950 . S
C1768 C1754 1.377 . S
C1768 C1767 1.373 . S
C1769 C1753 1.377 . S
C1769 C1767 1.389 . S
C1769 C1770 1.524 . S
C1770 C1769 1.524 . S
C1770 C1771 1.397 . S
C1770 C1775 1.363 . S
C1771 H1742 0.950 . S
C1771 C1770 1.397 . S
C1771 C1772 1.334 . S
C1772 H1743 0.950 . S
C1772 C1771 1.334 . S
C1772 C1773 1.287 . S
C1773 C1772 1.287 . S
C1773 C1774 1.524 . S
C1773 H1776 0.999 . S
C1774 H1744 0.950 . S
C1774 C1773 1.524 . S
C1774 C1775 1.415 . S
C1775 H1745 0.950 . S
C1775 C1770 1.363 . S
C1775 C1774 1.415 . S
H1776 C1773 0.999 . S
H1777 C1758 0.913 . S
H1778 C1796 0.951 . S
H1779 C1798 0.951 . S
H1780 C1800 0.950 . S
H1781 C1801 0.950 . S
H1782 C1803 0.950 . S
H1783 C1806 0.950 . S
H1784 C1807 0.950 . S
H1785 C1809 0.950 . S
H1786 C1810 0.950 . S
H1787 C1811 0.951 . S
H1788 C1813 0.951 . S
H1789 C1815 0.950 . S
H1790 C1816 0.950 . S
H1791 C1818 0.950 . S
H1792 C1821 0.950 . S
H1793 C1822 0.950 . S
H1794 C1824 0.950 . S
H1795 C1825 0.950 . S
C1796 H1778 0.951 . S
C1796 C1797 1.366 . S
C1796 C1798 1.388 . S
C1797 C1796 1.366 . S
C1797 C1801 1.385 . S
C1798 H1779 0.951 . S
C1798 C1796 1.388 . S
C1798 C1799 1.366 . S
C1799 C1798 1.366 . S
C1799 C1800 1.414 . S
C1799 C1802 1.499 . S
C1800 H1780 0.950 . S
C1800 C1799 1.414 . S
C1800 C1801 1.374 . S
C1801 H1781 0.950 . S
C1801 C1797 1.385 . S
C1801 C1800 1.374 . S
C1802 C1799 1.499 . S
C1802 C1803 1.373 . S
C1802 C1804 1.389 . S
C1803 H1782 0.950 . S
C1803 C1802 1.373 . S
C1803 C1819 1.377 . S
C1804 C1802 1.389 . S
C1804 C1805 1.524 . S
C1804 C1818 1.377 . S
C1805 C1804 1.524 . S
C1805 C1806 1.397 . S
C1805 C1810 1.363 . S
C1806 H1783 0.950 . S
C1806 C1805 1.397 . S
C1806 C1807 1.334 . S
C1807 H1784 0.950 . S
C1807 C1806 1.334 . S
C1807 C1808 1.287 . S
C1808 C1807 1.287 . S
C1808 C1809 1.524 . S
C1808 H1827 0.913 . S
C1809 H1785 0.950 . S
C1809 C1808 1.524 . S
C1809 C1810 1.415 . S
C1810 H1786 0.950 . S
C1810 C1805 1.363 . S
C1810 C1809 1.415 . S
C1811 H1787 0.951 . S
C1811 C1812 1.366 . S
C1811 C1813 1.388 . S
C1812 C1811 1.366 . S
C1812 C1816 1.385 . S
C1813 H1788 0.951 . S
C1813 C1811 1.388 . S
C1813 C1814 1.366 . S
C1814 C1813 1.366 . S
C1814 C1815 1.414 . S
C1814 C1817 1.499 . S
C1815 H1789 0.950 . S
C1815 C1814 1.414 . S
C1815 C1816 1.374 . S
C1816 H1790 0.950 . S
C1816 C1812 1.385 . S
C1816 C1815 1.374 . S
C1817 C1814 1.499 . S
C1817 C1818 1.373 . S
C1817 C1819 1.389 . S
C1818 H1791 0.950 . S
C1818 C1804 1.377 . S
C1818 C1817 1.373 . S
C1819 C1803 1.377 . S
C1819 C1817 1.389 . S
C1819 C1820 1.524 . S
C1820 C1819 1.524 . S
C1820 C1821 1.397 . S
C1820 C1825 1.363 . S
C1821 H1792 0.950 . S
C1821 C1820 1.397 . S
C1821 C1822 1.334 . S
C1822 H1793 0.950 . S
C1822 C1821 1.334 . S
C1822 C1823 1.287 . S
C1823 C1822 1.287 . S
C1823 C1824 1.524 . S
C1823 H1826 0.999 . S
C1824 H1794 0.950 . S
C1824 C1823 1.524 . S
C1824 C1825 1.415 . S
C1825 H1795 0.950 . S
C1825 C1820 1.363 . S
C1825 C1824 1.415 . S
H1826 C1823 0.999 . S
H1827 C1808 0.913 . S
H1828 C1846 0.951 . S
H1829 C1848 0.951 . S
H1830 C1850 0.950 . S
H1831 C1851 0.950 . S
H1832 C1853 0.950 . S
H1833 C1856 0.950 . S
H1834 C1857 0.950 . S
H1835 C1859 0.950 . S
H1836 C1860 0.950 . S
H1837 C1861 0.951 . S
H1838 C1863 0.951 . S
H1839 C1865 0.950 . S
H1840 C1866 0.950 . S
H1841 C1868 0.950 . S
H1842 C1871 0.950 . S
H1843 C1872 0.950 . S
H1844 C1874 0.950 . S
H1845 C1875 0.950 . S
C1846 H1828 0.951 . S
C1846 C1847 1.366 . S
C1846 C1848 1.388 . S
C1847 C1846 1.366 . S
C1847 C1851 1.385 . S
C1848 H1829 0.951 . S
C1848 C1846 1.388 . S
C1848 C1849 1.366 . S
C1849 C1848 1.366 . S
C1849 C1850 1.414 . S
C1849 C1852 1.499 . S
C1850 H1830 0.950 . S
C1850 C1849 1.414 . S
C1850 C1851 1.374 . S
C1851 H1831 0.950 . S
C1851 C1847 1.385 . S
C1851 C1850 1.374 . S
C1852 C1849 1.499 . S
C1852 C1853 1.373 . S
C1852 C1854 1.389 . S
C1853 H1832 0.950 . S
C1853 C1852 1.373 . S
C1853 C1869 1.377 . S
C1854 C1852 1.389 . S
C1854 C1855 1.524 . S
C1854 C1868 1.377 . S
C1855 C1854 1.524 . S
C1855 C1856 1.397 . S
C1855 C1860 1.363 . S
C1856 H1833 0.950 . S
C1856 C1855 1.397 . S
C1856 C1857 1.334 . S
C1857 H1834 0.950 . S
C1857 C1856 1.334 . S
C1857 C1858 1.287 . S
C1858 C1857 1.287 . S
C1858 C1859 1.524 . S
C1858 H1877 0.913 . S
C1859 H1835 0.950 . S
C1859 C1858 1.524 . S
C1859 C1860 1.415 . S
C1860 H1836 0.950 . S
C1860 C1855 1.363 . S
C1860 C1859 1.415 . S
C1861 H1837 0.951 . S
C1861 C1862 1.366 . S
C1861 C1863 1.388 . S
C1862 C1861 1.366 . S
C1862 C1866 1.385 . S
C1863 H1838 0.951 . S
C1863 C1861 1.388 . S
C1863 C1864 1.366 . S
C1864 C1863 1.366 . S
C1864 C1865 1.414 . S
C1864 C1867 1.499 . S
C1865 H1839 0.950 . S
C1865 C1864 1.414 . S
C1865 C1866 1.374 . S
C1866 H1840 0.950 . S
C1866 C1862 1.385 . S
C1866 C1865 1.374 . S
C1867 C1864 1.499 . S
C1867 C1868 1.373 . S
C1867 C1869 1.389 . S
C1868 H1841 0.950 . S
C1868 C1854 1.377 . S
C1868 C1867 1.373 . S
C1869 C1853 1.377 . S
C1869 C1867 1.389 . S
C1869 C1870 1.524 . S
C1870 C1869 1.524 . S
C1870 C1871 1.397 . S
C1870 C1875 1.363 . S
C1871 H1842 0.950 . S
C1871 C1870 1.397 . S
C1871 C1872 1.334 . S
C1872 H1843 0.950 . S
C1872 C1871 1.334 . S
C1872 C1873 1.287 . S
C1873 C1872 1.287 . S
C1873 C1874 1.524 . S
C1873 H1876 0.999 . S
C1874 H1844 0.950 . S
C1874 C1873 1.524 . S
C1874 C1875 1.415 . S
C1875 H1845 0.950 . S
C1875 C1870 1.363 . S
C1875 C1874 1.415 . S
H1876 C1873 0.999 . S
H1877 C1858 0.913 . S
H1878 C1896 0.951 . S
H1879 C1898 0.951 . S
H1880 C1900 0.950 . S
H1881 C1901 0.950 . S
H1882 C1903 0.950 . S
H1883 C1906 0.950 . S
H1884 C1907 0.950 . S
H1885 C1909 0.950 . S
H1886 C1910 0.950 . S
H1887 C1911 0.951 . S
H1888 C1913 0.951 . S
H1889 C1915 0.950 . S
H1890 C1916 0.950 . S
H1891 C1918 0.950 . S
H1892 C1921 0.950 . S
H1893 C1922 0.950 . S
H1894 C1924 0.950 . S
H1895 C1925 0.950 . S
C1896 H1878 0.951 . S
C1896 C1897 1.366 . S
C1896 C1898 1.388 . S
C1897 C1896 1.366 . S
C1897 C1901 1.385 . S
C1898 H1879 0.951 . S
C1898 C1896 1.388 . S
C1898 C1899 1.366 . S
C1899 C1898 1.366 . S
C1899 C1900 1.414 . S
C1899 C1902 1.499 . S
C1900 H1880 0.950 . S
C1900 C1899 1.414 . S
C1900 C1901 1.374 . S
C1901 H1881 0.950 . S
C1901 C1897 1.385 . S
C1901 C1900 1.374 . S
C1902 C1899 1.499 . S
C1902 C1903 1.373 . S
C1902 C1904 1.389 . S
C1903 H1882 0.950 . S
C1903 C1902 1.373 . S
C1903 C1919 1.377 . S
C1904 C1902 1.389 . S
C1904 C1905 1.524 . S
C1904 C1918 1.377 . S
C1905 C1904 1.524 . S
C1905 C1906 1.397 . S
C1905 C1910 1.363 . S
C1906 H1883 0.950 . S
C1906 C1905 1.397 . S
C1906 C1907 1.334 . S
C1907 H1884 0.950 . S
C1907 C1906 1.334 . S
C1907 C1908 1.287 . S
C1908 C1907 1.287 . S
C1908 C1909 1.524 . S
C1908 H1927 0.913 . S
C1909 H1885 0.950 . S
C1909 C1908 1.524 . S
C1909 C1910 1.415 . S
C1910 H1886 0.950 . S
C1910 C1905 1.363 . S
C1910 C1909 1.415 . S
C1911 H1887 0.951 . S
C1911 C1912 1.366 . S
C1911 C1913 1.388 . S
C1912 C1911 1.366 . S
C1912 C1916 1.385 . S
C1913 H1888 0.951 . S
C1913 C1911 1.388 . S
C1913 C1914 1.366 . S
C1914 C1913 1.366 . S
C1914 C1915 1.414 . S
C1914 C1917 1.499 . S
C1915 H1889 0.950 . S
C1915 C1914 1.414 . S
C1915 C1916 1.374 . S
C1916 H1890 0.950 . S
C1916 C1912 1.385 . S
C1916 C1915 1.374 . S
C1917 C1914 1.499 . S
C1917 C1918 1.373 . S
C1917 C1919 1.389 . S
C1918 H1891 0.950 . S
C1918 C1904 1.377 . S
C1918 C1917 1.373 . S
C1919 C1903 1.377 . S
C1919 C1917 1.389 . S
C1919 C1920 1.524 . S
C1920 C1919 1.524 . S
C1920 C1921 1.397 . S
C1920 C1925 1.363 . S
C1921 H1892 0.950 . S
C1921 C1920 1.397 . S
C1921 C1922 1.334 . S
C1922 H1893 0.950 . S
C1922 C1921 1.334 . S
C1922 C1923 1.287 . S
C1923 C1922 1.287 . S
C1923 C1924 1.524 . S
C1923 H1926 0.999 . S
C1924 H1894 0.950 . S
C1924 C1923 1.524 . S
C1924 C1925 1.415 . S
C1925 H1895 0.950 . S
C1925 C1920 1.363 . S
C1925 C1924 1.415 . S
H1926 C1923 0.999 . S
H1927 C1908 0.913 . S
H1928 C1946 0.951 . S
H1929 C1948 0.951 . S
H1930 C1950 0.950 . S
H1931 C1951 0.950 . S
H1932 C1953 0.950 . S
H1933 C1956 0.950 . S
H1934 C1957 0.950 . S
H1935 C1959 0.950 . S
H1936 C1960 0.950 . S
H1937 C1961 0.951 . S
H1938 C1963 0.951 . S
H1939 C1965 0.950 . S
H1940 C1966 0.950 . S
H1941 C1968 0.950 . S
H1942 C1971 0.950 . S
H1943 C1972 0.950 . S
H1944 C1974 0.950 . S
H1945 C1975 0.950 . S
C1946 H1928 0.951 . S
C1946 C1947 1.366 . S
C1946 C1948 1.388 . S
C1947 C1946 1.366 . S
C1947 C1951 1.385 . S
C1948 H1929 0.951 . S
C1948 C1946 1.388 . S
C1948 C1949 1.366 . S
C1949 C1948 1.366 . S
C1949 C1950 1.414 . S
C1949 C1952 1.499 . S
C1950 H1930 0.950 . S
C1950 C1949 1.414 . S
C1950 C1951 1.374 . S
C1951 H1931 0.950 . S
C1951 C1947 1.385 . S
C1951 C1950 1.374 . S
C1952 C1949 1.499 . S
C1952 C1953 1.373 . S
C1952 C1954 1.389 . S
C1953 H1932 0.950 . S
C1953 C1952 1.373 . S
C1953 C1969 1.377 . S
C1954 C1952 1.389 . S
C1954 C1955 1.524 . S
C1954 C1968 1.377 . S
C1955 C1954 1.524 . S
C1955 C1956 1.397 . S
C1955 C1960 1.363 . S
C1956 H1933 0.950 . S
C1956 C1955 1.397 . S
C1956 C1957 1.334 . S
C1957 H1934 0.950 . S
C1957 C1956 1.334 . S
C1957 C1958 1.287 . S
C1958 C1957 1.287 . S
C1958 C1959 1.524 . S
C1958 H1977 0.913 . S
C1959 H1935 0.950 . S
C1959 C1958 1.524 . S
C1959 C1960 1.415 . S
C1960 H1936 0.950 . S
C1960 C1955 1.363 . S
C1960 C1959 1.415 . S
C1961 H1937 0.951 . S
C1961 C1962 1.366 . S
C1961 C1963 1.388 . S
C1962 C1961 1.366 . S
C1962 C1966 1.385 . S
C1963 H1938 0.951 . S
C1963 C1961 1.388 . S
C1963 C1964 1.366 . S
C1964 C1963 1.366 . S
C1964 C1965 1.414 . S
C1964 C1967 1.499 . S
C1965 H1939 0.950 . S
C1965 C1964 1.414 . S
C1965 C1966 1.374 . S
C1966 H1940 0.950 . S
C1966 C1962 1.385 . S
C1966 C1965 1.374 . S
C1967 C1964 1.499 . S
C1967 C1968 1.373 . S
C1967 C1969 1.389 . S
C1968 H1941 0.950 . S
C1968 C1954 1.377 . S
C1968 C1967 1.373 . S
C1969 C1953 1.377 . S
C1969 C1967 1.389 . S
C1969 C1970 1.524 . S
C1970 C1969 1.524 . S
C1970 C1971 1.397 . S
C1970 C1975 1.363 . S
C1971 H1942 0.950 . S
C1971 C1970 1.397 . S
C1971 C1972 1.334 . S
C1972 H1943 0.950 . S
C1972 C1971 1.334 . S
C1972 C1973 1.287 . S
C1973 C1972 1.287 . S
C1973 C1974 1.524 . S
C1973 H1976 0.999 . S
C1974 H1944 0.950 . S
C1974 C1973 1.524 . S
C1974 C1975 1.415 . S
C1975 H1945 0.950 . S
C1975 C1970 1.363 . S
C1975 C1974 1.415 . S
H1976 C1973 0.999 . S
H1977 C1958 0.913 . S
H1978 C1996 0.951 . S
H1979 C1998 0.951 . S
H1980 C2000 0.950 . S
H1981 C2001 0.950 . S
H1982 C2003 0.950 . S
H1983 C2006 0.950 . S
H1984 C2007 0.950 . S
H1985 C2009 0.950 . S
H1986 C2010 0.950 . S
H1987 C2011 0.951 . S
H1988 C2013 0.951 . S
H1989 C2015 0.950 . S
H1990 C2016 0.950 . S
H1991 C2018 0.950 . S
H1992 C2021 0.950 . S
H1993 C2022 0.950 . S
H1994 C2024 0.950 . S
H1995 C2025 0.950 . S
C1996 H1978 0.951 . S
C1996 C1997 1.366 . S
C1996 C1998 1.388 . S
C1997 C1996 1.366 . S
C1997 C2001 1.385 . S
C1998 H1979 0.951 . S
C1998 C1996 1.388 . S
C1998 C1999 1.366 . S
C1999 C1998 1.366 . S
C1999 C2000 1.414 . S
C1999 C2002 1.499 . S
C2000 H1980 0.950 . S
C2000 C1999 1.414 . S
C2000 C2001 1.374 . S
C2001 H1981 0.950 . S
C2001 C1997 1.385 . S
C2001 C2000 1.374 . S
C2002 C1999 1.499 . S
C2002 C2003 1.373 . S
C2002 C2004 1.389 . S
C2003 H1982 0.950 . S
C2003 C2002 1.373 . S
C2003 C2019 1.377 . S
C2004 C2002 1.389 . S
C2004 C2005 1.524 . S
C2004 C2018 1.377 . S
C2005 C2004 1.524 . S
C2005 C2006 1.397 . S
C2005 C2010 1.363 . S
C2006 H1983 0.950 . S
C2006 C2005 1.397 . S
C2006 C2007 1.334 . S
C2007 H1984 0.950 . S
C2007 C2006 1.334 . S
C2007 C2008 1.287 . S
C2008 C2007 1.287 . S
C2008 C2009 1.524 . S
C2008 H2027 0.913 . S
C2009 H1985 0.950 . S
C2009 C2008 1.524 . S
C2009 C2010 1.415 . S
C2010 H1986 0.950 . S
C2010 C2005 1.363 . S
C2010 C2009 1.415 . S
C2011 H1987 0.951 . S
C2011 C2012 1.366 . S
C2011 C2013 1.388 . S
C2012 C2011 1.366 . S
C2012 C2016 1.385 . S
C2013 H1988 0.951 . S
C2013 C2011 1.388 . S
C2013 C2014 1.366 . S
C2014 C2013 1.366 . S
C2014 C2015 1.414 . S
C2014 C2017 1.499 . S
C2015 H1989 0.950 . S
C2015 C2014 1.414 . S
C2015 C2016 1.374 . S
C2016 H1990 0.950 . S
C2016 C2012 1.385 . S
C2016 C2015 1.374 . S
C2017 C2014 1.499 . S
C2017 C2018 1.373 . S
C2017 C2019 1.389 . S
C2018 H1991 0.950 . S
C2018 C2004 1.377 . S
C2018 C2017 1.373 . S
C2019 C2003 1.377 . S
C2019 C2017 1.389 . S
C2019 C2020 1.524 . S
C2020 C2019 1.524 . S
C2020 C2021 1.397 . S
C2020 C2025 1.363 . S
C2021 H1992 0.950 . S
C2021 C2020 1.397 . S
C2021 C2022 1.334 . S
C2022 H1993 0.950 . S
C2022 C2021 1.334 . S
C2022 C2023 1.287 . S
C2023 C2022 1.287 . S
C2023 C2024 1.524 . S
C2023 H2026 0.999 . S
C2024 H1994 0.950 . S
C2024 C2023 1.524 . S
C2024 C2025 1.415 . S
C2025 H1995 0.950 . S
C2025 C2020 1.363 . S
C2025 C2024 1.415 . S
H2026 C2023 0.999 . S
H2027 C2008 0.913 . S
H2028 C2046 0.951 . S
H2029 C2048 0.951 . S
H2030 C2050 0.950 . S
H2031 C2051 0.950 . S
H2032 C2053 0.950 . S
H2033 C2056 0.950 . S
H2034 C2057 0.950 . S
H2035 C2059 0.950 . S
H2036 C2060 0.950 . S
H2037 C2061 0.951 . S
H2038 C2063 0.951 . S
H2039 C2065 0.950 . S
H2040 C2066 0.950 . S
H2041 C2068 0.950 . S
H2042 C2071 0.950 . S
H2043 C2072 0.950 . S
H2044 C2074 0.950 . S
H2045 C2075 0.950 . S
C2046 H2028 0.951 . S
C2046 C2047 1.366 . S
C2046 C2048 1.388 . S
C2047 C2046 1.366 . S
C2047 C2051 1.385 . S
C2048 H2029 0.951 . S
C2048 C2046 1.388 . S
C2048 C2049 1.366 . S
C2049 C2048 1.366 . S
C2049 C2050 1.414 . S
C2049 C2052 1.499 . S
C2050 H2030 0.950 . S
C2050 C2049 1.414 . S
C2050 C2051 1.374 . S
C2051 H2031 0.950 . S
C2051 C2047 1.385 . S
C2051 C2050 1.374 . S
C2052 C2049 1.499 . S
C2052 C2053 1.373 . S
C2052 C2054 1.389 . S
C2053 H2032 0.950 . S
C2053 C2052 1.373 . S
C2053 C2069 1.377 . S
C2054 C2052 1.389 . S
C2054 C2055 1.524 . S
C2054 C2068 1.377 . S
C2055 C2054 1.524 . S
C2055 C2056 1.397 . S
C2055 C2060 1.363 . S
C2056 H2033 0.950 . S
C2056 C2055 1.397 . S
C2056 C2057 1.334 . S
C2057 H2034 0.950 . S
C2057 C2056 1.334 . S
C2057 C2058 1.287 . S
C2058 C2057 1.287 . S
C2058 C2059 1.524 . S
C2058 H2077 0.913 . S
C2059 H2035 0.950 . S
C2059 C2058 1.524 . S
C2059 C2060 1.415 . S
C2060 H2036 0.950 . S
C2060 C2055 1.363 . S
C2060 C2059 1.415 . S
C2061 H2037 0.951 . S
C2061 C2062 1.366 . S
C2061 C2063 1.388 . S
C2062 C2061 1.366 . S
C2062 C2066 1.385 . S
C2063 H2038 0.951 . S
C2063 C2061 1.388 . S
C2063 C2064 1.366 . S
C2064 C2063 1.366 . S
C2064 C2065 1.414 . S
C2064 C2067 1.499 . S
C2065 H2039 0.950 . S
C2065 C2064 1.414 . S
C2065 C2066 1.374 . S
C2066 H2040 0.950 . S
C2066 C2062 1.385 . S
C2066 C2065 1.374 . S
C2067 C2064 1.499 . S
C2067 C2068 1.373 . S
C2067 C2069 1.389 . S
C2068 H2041 0.950 . S
C2068 C2054 1.377 . S
C2068 C2067 1.373 . S
C2069 C2053 1.377 . S
C2069 C2067 1.389 . S
C2069 C2070 1.524 . S
C2070 C2069 1.524 . S
C2070 C2071 1.397 . S
C2070 C2075 1.363 . S
C2071 H2042 0.950 . S
C2071 C2070 1.397 . S
C2071 C2072 1.334 . S
C2072 H2043 0.950 . S
C2072 C2071 1.334 . S
C2072 C2073 1.287 . S
C2073 C2072 1.287 . S
C2073 C2074 1.524 . S
C2073 H2076 0.999 . S
C2074 H2044 0.950 . S
C2074 C2073 1.524 . S
C2074 C2075 1.415 . S
C2075 H2045 0.950 . S
C2075 C2070 1.363 . S
C2075 C2074 1.415 . S
H2076 C2073 0.999 . S
H2077 C2058 0.913 . S
H2078 C2096 0.951 . S
H2079 C2098 0.951 . S
H2080 C2100 0.950 . S
H2081 C2101 0.950 . S
H2082 C2103 0.950 . S
H2083 C2106 0.950 . S
H2084 C2107 0.950 . S
H2085 C2109 0.950 . S
H2086 C2110 0.950 . S
H2087 C2111 0.951 . S
H2088 C2113 0.951 . S
H2089 C2115 0.950 . S
H2090 C2116 0.950 . S
H2091 C2118 0.950 . S
H2092 C2121 0.950 . S
H2093 C2122 0.950 . S
H2094 C2124 0.950 . S
H2095 C2125 0.950 . S
C2096 H2078 0.951 . S
C2096 C2097 1.366 . S
C2096 C2098 1.388 . S
C2097 C2096 1.366 . S
C2097 C2101 1.385 . S
C2098 H2079 0.951 . S
C2098 C2096 1.388 . S
C2098 C2099 1.366 . S
C2099 C2098 1.366 . S
C2099 C2100 1.414 . S
C2099 C2102 1.499 . S
C2100 H2080 0.950 . S
C2100 C2099 1.414 . S
C2100 C2101 1.374 . S
C2101 H2081 0.950 . S
C2101 C2097 1.385 . S
C2101 C2100 1.374 . S
C2102 C2099 1.499 . S
C2102 C2103 1.373 . S
C2102 C2104 1.389 . S
C2103 H2082 0.950 . S
C2103 C2102 1.373 . S
C2103 C2119 1.377 . S
C2104 C2102 1.389 . S
C2104 C2105 1.524 . S
C2104 C2118 1.377 . S
C2105 C2104 1.524 . S
C2105 C2106 1.397 . S
C2105 C2110 1.363 . S
C2106 H2083 0.950 . S
C2106 C2105 1.397 . S
C2106 C2107 1.334 . S
C2107 H2084 0.950 . S
C2107 C2106 1.334 . S
C2107 C2108 1.287 . S
C2108 C2107 1.287 . S
C2108 C2109 1.524 . S
C2108 H2127 0.913 . S
C2109 H2085 0.950 . S
C2109 C2108 1.524 . S
C2109 C2110 1.415 . S
C2110 H2086 0.950 . S
C2110 C2105 1.363 . S
C2110 C2109 1.415 . S
C2111 H2087 0.951 . S
C2111 C2112 1.366 . S
C2111 C2113 1.388 . S
C2112 C2111 1.366 . S
C2112 C2116 1.385 . S
C2113 H2088 0.951 . S
C2113 C2111 1.388 . S
C2113 C2114 1.366 . S
C2114 C2113 1.366 . S
C2114 C2115 1.414 . S
C2114 C2117 1.499 . S
C2115 H2089 0.950 . S
C2115 C2114 1.414 . S
C2115 C2116 1.374 . S
C2116 H2090 0.950 . S
C2116 C2112 1.385 . S
C2116 C2115 1.374 . S
C2117 C2114 1.499 . S
C2117 C2118 1.373 . S
C2117 C2119 1.389 . S
C2118 H2091 0.950 . S
C2118 C2104 1.377 . S
C2118 C2117 1.373 . S
C2119 C2103 1.377 . S
C2119 C2117 1.389 . S
C2119 C2120 1.524 . S
C2120 C2119 1.524 . S
C2120 C2121 1.397 . S
C2120 C2125 1.363 . S
C2121 H2092 0.950 . S
C2121 C2120 1.397 . S
C2121 C2122 1.334 . S
C2122 H2093 0.950 . S
C2122 C2121 1.334 . S
C2122 C2123 1.287 . S
C2123 C2122 1.287 . S
C2123 C2124 1.524 . S
C2123 H2126 0.999 . S
C2124 H2094 0.950 . S
C2124 C2123 1.524 . S
C2124 C2125 1.415 . S
C2125 H2095 0.950 . S
C2125 C2120 1.363 . S
C2125 C2124 1.415 . S
H2126 C2123 0.999 . S
H2127 C2108 0.913 . S
H2128 C2146 0.951 . S
H2129 C2148 0.951 . S
H2130 C2150 0.950 . S
H2131 C2151 0.950 . S
H2132 C2153 0.950 . S
H2133 C2156 0.950 . S
H2134 C2157 0.950 . S
H2135 C2159 0.950 . S
H2136 C2160 0.950 . S
H2137 C2161 0.951 . S
H2138 C2163 0.951 . S
H2139 C2165 0.950 . S
H2140 C2166 0.950 . S
H2141 C2168 0.950 . S
H2142 C2171 0.950 . S
H2143 C2172 0.950 . S
H2144 C2174 0.950 . S
H2145 C2175 0.950 . S
C2146 H2128 0.951 . S
C2146 C2147 1.366 . S
C2146 C2148 1.388 . S
C2147 C2146 1.366 . S
C2147 C2151 1.385 . S
C2148 H2129 0.951 . S
C2148 C2146 1.388 . S
C2148 C2149 1.366 . S
C2149 C2148 1.366 . S
C2149 C2150 1.414 . S
C2149 C2152 1.499 . S
C2150 H2130 0.950 . S
C2150 C2149 1.414 . S
C2150 C2151 1.374 . S
C2151 H2131 0.950 . S
C2151 C2147 1.385 . S
C2151 C2150 1.374 . S
C2152 C2149 1.499 . S
C2152 C2153 1.373 . S
C2152 C2154 1.389 . S
C2153 H2132 0.950 . S
C2153 C2152 1.373 . S
C2153 C2169 1.377 . S
C2154 C2152 1.389 . S
C2154 C2155 1.524 . S
C2154 C2168 1.377 . S
C2155 C2154 1.524 . S
C2155 C2156 1.397 . S
C2155 C2160 1.363 . S
C2156 H2133 0.950 . S
C2156 C2155 1.397 . S
C2156 C2157 1.334 . S
C2157 H2134 0.950 . S
C2157 C2156 1.334 . S
C2157 C2158 1.287 . S
C2158 C2157 1.287 . S
C2158 C2159 1.524 . S
C2158 H2177 0.913 . S
C2159 H2135 0.950 . S
C2159 C2158 1.524 . S
C2159 C2160 1.415 . S
C2160 H2136 0.950 . S
C2160 C2155 1.363 . S
C2160 C2159 1.415 . S
C2161 H2137 0.951 . S
C2161 C2162 1.366 . S
C2161 C2163 1.388 . S
C2162 C2161 1.366 . S
C2162 C2166 1.385 . S
C2163 H2138 0.951 . S
C2163 C2161 1.388 . S
C2163 C2164 1.366 . S
C2164 C2163 1.366 . S
C2164 C2165 1.414 . S
C2164 C2167 1.499 . S
C2165 H2139 0.950 . S
C2165 C2164 1.414 . S
C2165 C2166 1.374 . S
C2166 H2140 0.950 . S
C2166 C2162 1.385 . S
C2166 C2165 1.374 . S
C2167 C2164 1.499 . S
C2167 C2168 1.373 . S
C2167 C2169 1.389 . S
C2168 H2141 0.950 . S
C2168 C2154 1.377 . S
C2168 C2167 1.373 . S
C2169 C2153 1.377 . S
C2169 C2167 1.389 . S
C2169 C2170 1.524 . S
C2170 C2169 1.524 . S
C2170 C2171 1.397 . S
C2170 C2175 1.363 . S
C2171 H2142 0.950 . S
C2171 C2170 1.397 . S
C2171 C2172 1.334 . S
C2172 H2143 0.950 . S
C2172 C2171 1.334 . S
C2172 C2173 1.287 . S
C2173 C2172 1.287 . S
C2173 C2174 1.524 . S
C2173 H2176 0.999 . S
C2174 H2144 0.950 . S
C2174 C2173 1.524 . S
C2174 C2175 1.415 . S
C2175 H2145 0.950 . S
C2175 C2170 1.363 . S
C2175 C2174 1.415 . S
H2176 C2173 0.999 . S
H2177 C2158 0.913 . S
H2178 C2196 0.951 . S
H2179 C2198 0.951 . S
H2180 C2200 0.950 . S
H2181 C2201 0.950 . S
H2182 C2203 0.950 . S
H2183 C2206 0.950 . S
H2184 C2207 0.950 . S
H2185 C2209 0.950 . S
H2186 C2210 0.950 . S
H2187 C2211 0.951 . S
H2188 C2213 0.951 . S
H2189 C2215 0.950 . S
H2190 C2216 0.950 . S
H2191 C2218 0.950 . S
H2192 C2221 0.950 . S
H2193 C2222 0.950 . S
H2194 C2224 0.950 . S
H2195 C2225 0.950 . S
C2196 H2178 0.951 . S
C2196 C2197 1.366 . S
C2196 C2198 1.388 . S
C2197 C2196 1.366 . S
C2197 C2201 1.385 . S
C2198 H2179 0.951 . S
C2198 C2196 1.388 . S
C2198 C2199 1.366 . S
C2199 C2198 1.366 . S
C2199 C2200 1.414 . S
C2199 C2202 1.499 . S
C2200 H2180 0.950 . S
C2200 C2199 1.414 . S
C2200 C2201 1.374 . S
C2201 H2181 0.950 . S
C2201 C2197 1.385 . S
C2201 C2200 1.374 . S
C2202 C2199 1.499 . S
C2202 C2203 1.373 . S
C2202 C2204 1.389 . S
C2203 H2182 0.950 . S
C2203 C2202 1.373 . S
C2203 C2219 1.377 . S
C2204 C2202 1.389 . S
C2204 C2205 1.524 . S
C2204 C2218 1.377 . S
C2205 C2204 1.524 . S
C2205 C2206 1.397 . S
C2205 C2210 1.363 . S
C2206 H2183 0.950 . S
C2206 C2205 1.397 . S
C2206 C2207 1.334 . S
C2207 H2184 0.950 . S
C2207 C2206 1.334 . S
C2207 C2208 1.287 . S
C2208 C2207 1.287 . S
C2208 C2209 1.524 . S
C2208 H2227 0.913 . S
C2209 H2185 0.950 . S
C2209 C2208 1.524 . S
C2209 C2210 1.415 . S
C2210 H2186 0.950 . S
C2210 C2205 1.363 . S
C2210 C2209 1.415 . S
C2211 H2187 0.951 . S
C2211 C2212 1.366 . S
C2211 C2213 1.388 . S
C2212 C2211 1.366 . S
C2212 C2216 1.385 . S
C2213 H2188 0.951 . S
C2213 C2211 1.388 . S
C2213 C2214 1.366 . S
C2214 C2213 1.366 . S
C2214 C2215 1.414 . S
C2214 C2217 1.499 . S
C2215 H2189 0.950 . S
C2215 C2214 1.414 . S
C2215 C2216 1.374 . S
C2216 H2190 0.950 . S
C2216 C2212 1.385 . S
C2216 C2215 1.374 . S
C2217 C2214 1.499 . S
C2217 C2218 1.373 . S
C2217 C2219 1.389 . S
C2218 H2191 0.950 . S
C2218 C2204 1.377 . S
C2218 C2217 1.373 . S
C2219 C2203 1.377 . S
C2219 C2217 1.389 . S
C2219 C2220 1.524 . S
C2220 C2219 1.524 . S
C2220 C2221 1.397 . S
C2220 C2225 1.363 . S
C2221 H2192 0.950 . S
C2221 C2220 1.397 . S
C2221 C2222 1.334 . S
C2222 H2193 0.950 . S
C2222 C2221 1.334 . S
C2222 C2223 1.287 . S
C2223 C2222 1.287 . S
C2223 C2224 1.524 . S
C2223 H2226 0.999 . S
C2224 H2194 0.950 . S
C2224 C2223 1.524 . S
C2224 C2225 1.415 . S
C2225 H2195 0.950 . S
C2225 C2220 1.363 . S
C2225 C2224 1.415 . S
H2226 C2223 0.999 . S
H2227 C2208 0.913 . S
H2228 C2246 0.951 . S
H2229 C2248 0.951 . S
H2230 C2250 0.950 . S
H2231 C2251 0.950 . S
H2232 C2253 0.950 . S
H2233 C2256 0.950 . S
H2234 C2257 0.950 . S
H2235 C2259 0.950 . S
H2236 C2260 0.950 . S
H2237 C2261 0.951 . S
H2238 C2263 0.951 . S
H2239 C2265 0.950 . S
H2240 C2266 0.950 . S
H2241 C2268 0.950 . S
H2242 C2271 0.950 . S
H2243 C2272 0.950 . S
H2244 C2274 0.950 . S
H2245 C2275 0.950 . S
C2246 H2228 0.951 . S
C2246 C2247 1.366 . S
C2246 C2248 1.388 . S
C2247 C2246 1.366 . S
C2247 C2251 1.385 . S
C2248 H2229 0.951 . S
C2248 C2246 1.388 . S
C2248 C2249 1.366 . S
C2249 C2248 1.366 . S
C2249 C2250 1.414 . S
C2249 C2252 1.499 . S
C2250 H2230 0.950 . S
C2250 C2249 1.414 . S
C2250 C2251 1.374 . S
C2251 H2231 0.950 . S
C2251 C2247 1.385 . S
C2251 C2250 1.374 . S
C2252 C2249 1.499 . S
C2252 C2253 1.373 . S
C2252 C2254 1.389 . S
C2253 H2232 0.950 . S
C2253 C2252 1.373 . S
C2253 C2269 1.377 . S
C2254 C2252 1.389 . S
C2254 C2255 1.524 . S
C2254 C2268 1.377 . S
C2255 C2254 1.524 . S
C2255 C2256 1.397 . S
C2255 C2260 1.363 . S
C2256 H2233 0.950 . S
C2256 C2255 1.397 . S
C2256 C2257 1.334 . S
C2257 H2234 0.950 . S
C2257 C2256 1.334 . S
C2257 C2258 1.287 . S
C2258 C2257 1.287 . S
C2258 C2259 1.524 . S
C2258 H2277 0.913 . S
C2259 H2235 0.950 . S
C2259 C2258 1.524 . S
C2259 C2260 1.415 . S
C2260 H2236 0.950 . S
C2260 C2255 1.363 . S
C2260 C2259 1.415 . S
C2261 H2237 0.951 . S
C2261 C2262 1.366 . S
C2261 C2263 1.388 . S
C2262 C2261 1.366 . S
C2262 C2266 1.385 . S
C2263 H2238 0.951 . S
C2263 C2261 1.388 . S
C2263 C2264 1.366 . S
C2264 C2263 1.366 . S
C2264 C2265 1.414 . S
C2264 C2267 1.499 . S
C2265 H2239 0.950 . S
C2265 C2264 1.414 . S
C2265 C2266 1.374 . S
C2266 H2240 0.950 . S
C2266 C2262 1.385 . S
C2266 C2265 1.374 . S
C2267 C2264 1.499 . S
C2267 C2268 1.373 . S
C2267 C2269 1.389 . S
C2268 H2241 0.950 . S
C2268 C2254 1.377 . S
C2268 C2267 1.373 . S
C2269 C2253 1.377 . S
C2269 C2267 1.389 . S
C2269 C2270 1.524 . S
C2270 C2269 1.524 . S
C2270 C2271 1.397 . S
C2270 C2275 1.363 . S
C2271 H2242 0.950 . S
C2271 C2270 1.397 . S
C2271 C2272 1.334 . S
C2272 H2243 0.950 . S
C2272 C2271 1.334 . S
C2272 C2273 1.287 . S
C2273 C2272 1.287 . S
C2273 C2274 1.524 . S
C2273 H2276 0.999 . S
C2274 H2244 0.950 . S
C2274 C2273 1.524 . S
C2274 C2275 1.415 . S
C2275 H2245 0.950 . S
C2275 C2270 1.363 . S
C2275 C2274 1.415 . S
H2276 C2273 0.999 . S
H2277 C2258 0.913 . S
H2278 C2296 0.951 . S
H2279 C2298 0.951 . S
H2280 C2300 0.950 . S
H2281 C2301 0.950 . S
H2282 C2303 0.950 . S
H2283 C2306 0.950 . S
H2284 C2307 0.950 . S
H2285 C2309 0.950 . S
H2286 C2310 0.950 . S
H2287 C2311 0.951 . S
H2288 C2313 0.951 . S
H2289 C2315 0.950 . S
H2290 C2316 0.950 . S
H2291 C2318 0.950 . S
H2292 C2321 0.950 . S
H2293 C2322 0.950 . S
H2294 C2324 0.950 . S
H2295 C2325 0.950 . S
C2296 H2278 0.951 . S
C2296 C2297 1.366 . S
C2296 C2298 1.388 . S
C2297 C2296 1.366 . S
C2297 C2301 1.385 . S
C2298 H2279 0.951 . S
C2298 C2296 1.388 . S
C2298 C2299 1.366 . S
C2299 C2298 1.366 . S
C2299 C2300 1.414 . S
C2299 C2302 1.499 . S
C2300 H2280 0.950 . S
C2300 C2299 1.414 . S
C2300 C2301 1.374 . S
C2301 H2281 0.950 . S
C2301 C2297 1.385 . S
C2301 C2300 1.374 . S
C2302 C2299 1.499 . S
C2302 C2303 1.373 . S
C2302 C2304 1.389 . S
C2303 H2282 0.950 . S
C2303 C2302 1.373 . S
C2303 C2319 1.377 . S
C2304 C2302 1.389 . S
C2304 C2305 1.524 . S
C2304 C2318 1.377 . S
C2305 C2304 1.524 . S
C2305 C2306 1.397 . S
C2305 C2310 1.363 . S
C2306 H2283 0.950 . S
C2306 C2305 1.397 . S
C2306 C2307 1.334 . S
C2307 H2284 0.950 . S
C2307 C2306 1.334 . S
C2307 C2308 1.287 . S
C2308 C2307 1.287 . S
C2308 C2309 1.524 . S
C2308 H2327 0.913 . S
C2309 H2285 0.950 . S
C2309 C2308 1.524 . S
C2309 C2310 1.415 . S
C2310 H2286 0.950 . S
C2310 C2305 1.363 . S
C2310 C2309 1.415 . S
C2311 H2287 0.951 . S
C2311 C2312 1.366 . S
C2311 C2313 1.388 . S
C2312 C2311 1.366 . S
C2312 C2316 1.385 . S
C2313 H2288 0.951 . S
C2313 C2311 1.388 . S
C2313 C2314 1.366 . S
C2314 C2313 1.366 . S
C2314 C2315 1.414 . S
C2314 C2317 1.499 . S
C2315 H2289 0.950 . S
C2315 C2314 1.414 . S
C2315 C2316 1.374 . S
C2316 H2290 0.950 . S
C2316 C2312 1.385 . S
C2316 C2315 1.374 . S
C2317 C2314 1.499 . S
C2317 C2318 1.373 . S
C2317 C2319 1.389 . S
C2318 H2291 0.950 . S
C2318 C2304 1.377 . S
C2318 C2317 1.373 . S
C2319 C2303 1.377 . S
C2319 C2317 1.389 . S
C2319 C2320 1.524 . S
C2320 C2319 1.524 . S
C2320 C2321 1.397 . S
C2320 C2325 1.363 . S
C2321 H2292 0.950 . S
C2321 C2320 1.397 . S
C2321 C2322 1.334 . S
C2322 H2293 0.950 . S
C2322 C2321 1.334 . S
C2322 C2323 1.287 . S
C2323 C2322 1.287 . S
C2323 C2324 1.524 . S
C2323 H2326 0.999 . S
C2324 H2294 0.950 . S
C2324 C2323 1.524 . S
C2324 C2325 1.415 . S
C2325 H2295 0.950 . S
C2325 C2320 1.363 . S
C2325 C2324 1.415 . S
H2326 C2323 0.999 . S
H2327 C2308 0.913 . S
H2328 C2346 0.951 . S
H2329 C2348 0.951 . S
H2330 C2350 0.950 . S
H2331 C2351 0.950 . S
H2332 C2353 0.950 . S
H2333 C2356 0.950 . S
H2334 C2357 0.950 . S
H2335 C2359 0.950 . S
H2336 C2360 0.950 . S
H2337 C2361 0.951 . S
H2338 C2363 0.951 . S
H2339 C2365 0.950 . S
H2340 C2366 0.950 . S
H2341 C2368 0.950 . S
H2342 C2371 0.950 . S
H2343 C2372 0.950 . S
H2344 C2374 0.950 . S
H2345 C2375 0.950 . S
C2346 H2328 0.951 . S
C2346 C2347 1.366 . S
C2346 C2348 1.388 . S
C2347 C2346 1.366 . S
C2347 C2351 1.385 . S
C2348 H2329 0.951 . S
C2348 C2346 1.388 . S
C2348 C2349 1.366 . S
C2349 C2348 1.366 . S
C2349 C2350 1.414 . S
C2349 C2352 1.499 . S
C2350 H2330 0.950 . S
C2350 C2349 1.414 . S
C2350 C2351 1.374 . S
C2351 H2331 0.950 . S
C2351 C2347 1.385 . S
C2351 C2350 1.374 . S
C2352 C2349 1.499 . S
C2352 C2353 1.373 . S
C2352 C2354 1.389 . S
C2353 H2332 0.950 . S
C2353 C2352 1.373 . S
C2353 C2369 1.377 . S
C2354 C2352 1.389 . S
C2354 C2355 1.524 . S
C2354 C2368 1.377 . S
C2355 C2354 1.524 . S
C2355 C2356 1.397 . S
C2355 C2360 1.363 . S
C2356 H2333 0.950 . S
C2356 C2355 1.397 . S
C2356 C2357 1.334 . S
C2357 H2334 0.950 . S
C2357 C2356 1.334 . S
C2357 C2358 1.287 . S
C2358 C2357 1.287 . S
C2358 C2359 1.524 . S
C2358 H2377 0.913 . S
C2359 H2335 0.950 . S
C2359 C2358 1.524 . S
C2359 C2360 1.415 . S
C2360 H2336 0.950 . S
C2360 C2355 1.363 . S
C2360 C2359 1.415 . S
C2361 H2337 0.951 . S
C2361 C2362 1.366 . S
C2361 C2363 1.388 . S
C2362 C2361 1.366 . S
C2362 C2366 1.385 . S
C2363 H2338 0.951 . S
C2363 C2361 1.388 . S
C2363 C2364 1.366 . S
C2364 C2363 1.366 . S
C2364 C2365 1.414 . S
C2364 C2367 1.499 . S
C2365 H2339 0.950 . S
C2365 C2364 1.414 . S
C2365 C2366 1.374 . S
C2366 H2340 0.950 . S
C2366 C2362 1.385 . S
C2366 C2365 1.374 . S
C2367 C2364 1.499 . S
C2367 C2368 1.373 . S
C2367 C2369 1.389 . S
C2368 H2341 0.950 . S
C2368 C2354 1.377 . S
C2368 C2367 1.373 . S
C2369 C2353 1.377 . S
C2369 C2367 1.389 . S
C2369 C2370 1.524 . S
C2370 C2369 1.524 . S
C2370 C2371 1.397 . S
C2370 C2375 1.363 . S
C2371 H2342 0.950 . S
C2371 C2370 1.397 . S
C2371 C2372 1.334 . S
C2372 H2343 0.950 . S
C2372 C2371 1.334 . S
C2372 C2373 1.287 . S
C2373 C2372 1.287 . S
C2373 C2374 1.524 . S
C2373 H2376 0.999 . S
C2374 H2344 0.950 . S
C2374 C2373 1.524 . S
C2374 C2375 1.415 . S
C2375 H2345 0.950 . S
C2375 C2370 1.363 . S
C2375 C2374 1.415 . S
H2376 C2373 0.999 . S
H2377 C2358 0.913 . S
H2378 C2396 0.951 . S
H2379 C2398 0.951 . S
H2380 C2400 0.950 . S
H2381 C2401 0.950 . S
H2382 C2403 0.950 . S
H2383 C2406 0.950 . S
H2384 C2407 0.950 . S
H2385 C2409 0.950 . S
H2386 C2410 0.950 . S
H2387 C2411 0.951 . S
H2388 C2413 0.951 . S
H2389 C2415 0.950 . S
H2390 C2416 0.950 . S
H2391 C2418 0.950 . S
H2392 C2421 0.950 . S
H2393 C2422 0.950 . S
H2394 C2424 0.950 . S
H2395 C2425 0.950 . S
C2396 H2378 0.951 . S
C2396 C2397 1.366 . S
C2396 C2398 1.388 . S
C2397 C2396 1.366 . S
C2397 C2401 1.385 . S
C2398 H2379 0.951 . S
C2398 C2396 1.388 . S
C2398 C2399 1.366 . S
C2399 C2398 1.366 . S
C2399 C2400 1.414 . S
C2399 C2402 1.499 . S
C2400 H2380 0.950 . S
C2400 C2399 1.414 . S
C2400 C2401 1.374 . S
C2401 H2381 0.950 . S
C2401 C2397 1.385 . S
C2401 C2400 1.374 . S
C2402 C2399 1.499 . S
C2402 C2403 1.373 . S
C2402 C2404 1.389 . S
C2403 H2382 0.950 . S
C2403 C2402 1.373 . S
C2403 C2419 1.377 . S
C2404 C2402 1.389 . S
C2404 C2405 1.524 . S
C2404 C2418 1.377 . S
C2405 C2404 1.524 . S
C2405 C2406 1.397 . S
C2405 C2410 1.363 . S
C2406 H2383 0.950 . S
C2406 C2405 1.397 . S
C2406 C2407 1.334 . S
C2407 H2384 0.950 . S
C2407 C2406 1.334 . S
C2407 C2408 1.287 . S
C2408 C2407 1.287 . S
C2408 C2409 1.524 . S
C2408 H2427 0.913 . S
C2409 H2385 0.950 . S
C2409 C2408 1.524 . S
C2409 C2410 1.415 . S
C2410 H2386 0.950 . S
C2410 C2405 1.363 . S
C2410 C2409 1.415 . S
C2411 H2387 0.951 . S
C2411 C2412 1.366 . S
C2411 C2413 1.388 . S
C2412 C2411 1.366 . S
C2412 C2416 1.385 . S
C2413 H2388 0.951 . S
C2413 C2411 1.388 . S
C2413 C2414 1.366 . S
C2414 C2413 1.366 . S
C2414 C2415 1.414 . S
C2414 C2417 1.499 . S
C2415 H2389 0.950 . S
C2415 C2414 1.414 . S
C2415 C2416 1.374 . S
C2416 H2390 0.950 . S
C2416 C2412 1.385 . S
C2416 C2415 1.374 . S
C2417 C2414 1.499 . S
C2417 C2418 1.373 . S
C2417 C2419 1.389 . S
C2418 H2391 0.950 . S
C2418 C2404 1.377 . S
C2418 C2417 1.373 . S
C2419 C2403 1.377 . S
C2419 C2417 1.389 . S
C2419 C2420 1.524 . S
C2420 C2419 1.524 . S
C2420 C2421 1.397 . S
C2420 C2425 1.363 . S
C2421 H2392 0.950 . S
C2421 C2420 1.397 . S
C2421 C2422 1.334 . S
C2422 H2393 0.950 . S
C2422 C2421 1.334 . S
C2422 C2423 1.287 . S
C2423 C2422 1.287 . S
C2423 C2424 1.524 . S
C2423 H2426 0.999 . S
C2424 H2394 0.950 . S
C2424 C2423 1.524 . S
C2424 C2425 1.415 . S
C2425 H2395 0.950 . S
C2425 C2420 1.363 . S
C2425 C2424 1.415 . S
H2426 C2423 0.999 . S
H2427 C2408 0.913 . S
H2428 C2446 0.951 . S
H2429 C2448 0.951 . S
H2430 C2450 0.950 . S
H2431 C2451 0.950 . S
H2432 C2453 0.950 . S
H2433 C2456 0.950 . S
H2434 C2457 0.950 . S
H2435 C2459 0.950 . S
H2436 C2460 0.950 . S
H2437 C2461 0.951 . S
H2438 C2463 0.951 . S
H2439 C2465 0.950 . S
H2440 C2466 0.950 . S
H2441 C2468 0.950 . S
H2442 C2471 0.950 . S
H2443 C2472 0.950 . S
H2444 C2474 0.950 . S
H2445 C2475 0.950 . S
C2446 H2428 0.951 . S
C2446 C2447 1.366 . S
C2446 C2448 1.388 . S
C2447 C2446 1.366 . S
C2447 C2451 1.385 . S
C2448 H2429 0.951 . S
C2448 C2446 1.388 . S
C2448 C2449 1.366 . S
C2449 C2448 1.366 . S
C2449 C2450 1.414 . S
C2449 C2452 1.499 . S
C2450 H2430 0.950 . S
C2450 C2449 1.414 . S
C2450 C2451 1.374 . S
C2451 H2431 0.950 . S
C2451 C2447 1.385 . S
C2451 C2450 1.374 . S
C2452 C2449 1.499 . S
C2452 C2453 1.373 . S
C2452 C2454 1.389 . S
C2453 H2432 0.950 . S
C2453 C2452 1.373 . S
C2453 C2469 1.377 . S
C2454 C2452 1.389 . S
C2454 C2455 1.524 . S
C2454 C2468 1.377 . S
C2455 C2454 1.524 . S
C2455 C2456 1.397 . S
C2455 C2460 1.363 . S
C2456 H2433 0.950 . S
C2456 C2455 1.397 . S
C2456 C2457 1.334 . S
C2457 H2434 0.950 . S
C2457 C2456 1.334 . S
C2457 C2458 1.287 . S
C2458 C2457 1.287 . S
C2458 C2459 1.524 . S
C2458 H2477 0.913 . S
C2459 H2435 0.950 . S
C2459 C2458 1.524 . S
C2459 C2460 1.415 . S
C2460 H2436 0.950 . S
C2460 C2455 1.363 . S
C2460 C2459 1.415 . S
C2461 H2437 0.951 . S
C2461 C2462 1.366 . S
C2461 C2463 1.388 . S
C2462 C2461 1.366 . S
C2462 C2466 1.385 . S
C2463 H2438 0.951 . S
C2463 C2461 1.388 . S
C2463 C2464 1.366 . S
C2464 C2463 1.366 . S
C2464 C2465 1.414 . S
C2464 C2467 1.499 . S
C2465 H2439 0.950 . S
C2465 C2464 1.414 . S
C2465 C2466 1.374 . S
C2466 H2440 0.950 . S
C2466 C2462 1.385 . S
C2466 C2465 1.374 . S
C2467 C2464 1.499 . S
C2467 C2468 1.373 . S
C2467 C2469 1.389 . S
C2468 H2441 0.950 . S
C2468 C2454 1.377 . S
C2468 C2467 1.373 . S
C2469 C2453 1.377 . S
C2469 C2467 1.389 . S
C2469 C2470 1.524 . S
C2470 C2469 1.524 . S
C2470 C2471 1.397 . S
C2470 C2475 1.363 . S
C2471 H2442 0.950 . S
C2471 C2470 1.397 . S
C2471 C2472 1.334 . S
C2472 H2443 0.950 . S
C2472 C2471 1.334 . S
C2472 C2473 1.287 . S
C2473 C2472 1.287 . S
C2473 C2474 1.524 . S
C2473 H2476 0.999 . S
C2474 H2444 0.950 . S
C2474 C2473 1.524 . S
C2474 C2475 1.415 . S
C2475 H2445 0.950 . S
C2475 C2470 1.363 . S
C2475 C2474 1.415 . S
H2476 C2473 0.999 . S
H2477 C2458 0.913 . S
H2478 C2496 0.951 . S
H2479 C2498 0.951 . S
H2480 C2500 0.950 . S
H2481 C2501 0.950 . S
H2482 C2503 0.950 . S
H2483 C2506 0.950 . S
H2484 C2507 0.950 . S
H2485 C2509 0.950 . S
H2486 C2510 0.950 . S
H2487 C2511 0.951 . S
H2488 C2513 0.951 . S
H2489 C2515 0.950 . S
H2490 C2516 0.950 . S
H2491 C2518 0.950 . S
H2492 C2521 0.950 . S
H2493 C2522 0.950 . S
H2494 C2524 0.950 . S
H2495 C2525 0.950 . S
C2496 H2478 0.951 . S
C2496 C2497 1.366 . S
C2496 C2498 1.388 . S
C2497 C2496 1.366 . S
C2497 C2501 1.385 . S
C2498 H2479 0.951 . S
C2498 C2496 1.388 . S
C2498 C2499 1.366 . S
C2499 C2498 1.366 . S
C2499 C2500 1.414 . S
C2499 C2502 1.499 . S
C2500 H2480 0.950 . S
C2500 C2499 1.414 . S
C2500 C2501 1.374 . S
C2501 H2481 0.950 . S
C2501 C2497 1.385 . S
C2501 C2500 1.374 . S
C2502 C2499 1.499 . S
C2502 C2503 1.373 . S
C2502 C2504 1.389 . S
C2503 H2482 0.950 . S
C2503 C2502 1.373 . S
C2503 C2519 1.377 . S
C2504 C2502 1.389 . S
C2504 C2505 1.524 . S
C2504 C2518 1.377 . S
C2505 C2504 1.524 . S
C2505 C2506 1.397 . S
C2505 C2510 1.363 . S
C2506 H2483 0.950 . S
C2506 C2505 1.397 . S
C2506 C2507 1.334 . S
C2507 H2484 0.950 . S
C2507 C2506 1.334 . S
C2507 C2508 1.287 . S
C2508 C2507 1.287 . S
C2508 C2509 1.524 . S
C2508 H2527 0.913 . S
C2509 H2485 0.950 . S
C2509 C2508 1.524 . S
C2509 C2510 1.415 . S
C2510 H2486 0.950 . S
C2510 C2505 1.363 . S
C2510 C2509 1.415 . S
C2511 H2487 0.951 . S
C2511 C2512 1.366 . S
C2511 C2513 1.388 . S
C2512 C2511 1.366 . S
C2512 C2516 1.385 . S
C2513 H2488 0.951 . S
C2513 C2511 1.388 . S
C2513 C2514 1.366 . S
C2514 C2513 1.366 . S
C2514 C2515 1.414 . S
C2514 C2517 1.499 . S
C2515 H2489 0.950 . S
C2515 C2514 1.414 . S
C2515 C2516 1.374 . S
C2516 H2490 0.950 . S
C2516 C2512 1.385 . S
C2516 C2515 1.374 . S
C2517 C2514 1.499 . S
C2517 C2518 1.373 . S
C2517 C2519 1.389 . S
C2518 H2491 0.950 . S
C2518 C2504 1.377 . S
C2518 C2517 1.373 . S
C2519 C2503 1.377 . S
C2519 C2517 1.389 . S
C2519 C2520 1.524 . S
C2520 C2519 1.524 . S
C2520 C2521 1.397 . S
C2520 C2525 1.363 . S
C2521 H2492 0.950 . S
C2521 C2520 1.397 . S
C2521 C2522 1.334 . S
C2522 H2493 0.950 . S
C2522 C2521 1.334 . S
C2522 C2523 1.287 . S
C2523 C2522 1.287 . S
C2523 C2524 1.524 . S
C2523 H2526 0.999 . S
C2524 H2494 0.950 . S
C2524 C2523 1.524 . S
C2524 C2525 1.415 . S
C2525 H2495 0.950 . S
C2525 C2520 1.363 . S
C2525 C2524 1.415 . S
H2526 C2523 0.999 . S
H2527 C2508 0.913 . S
C547 N410 1.435 . S
C562 N5 1.435 . S
C597 N47 1.417 . S
C612 N434 1.432 . S
C647 N71 1.433 . S
C662 N476 1.434 . S
C697 N113 1.417 . S
C712 N500 1.432 . S
C747 N269 1.432 . S
C762 N146 1.417 . S
C797 N311 1.435 . S
C812 N170 1.435 . S
C847 N212 1.417 . S
C862 N335 1.432 . S
C897 N377 1.434 . S
C912 N236 1.434 . S
C947 C17 0.965 . S
C962 C479 0.964 . S
C997 C512 0.943 . S
C1012 C50 0.942 . S
C1047 C413 0.965 . S
C1062 C83 0.965 . S
C1097 C446 0.943 . S
C1112 C116 0.943 . S
C1147 C347 0.943 . S
C1162 C149 0.943 . S
C1197 C380 0.965 . S
C1212 C182 0.965 . S
C1247 C281 0.943 . S
C1262 C215 0.943 . S
C1297 C314 0.965 . S
C1312 C248 0.965 . S
C1347 C8 1.024 . S
C1362 C358 1.055 . S
C1397 C371 1.083 . S
C1412 C61 1.068 . S
C1447 C292 1.055 . S
C1462 C74 1.022 . S
C1497 C305 1.084 . S
C1512 C127 1.066 . S
C1547 C160 1.068 . S
C1562 C470 1.083 . S
C1597 C173 1.024 . S
C1612 C523 1.055 . S
C1647 C404 1.084 . S
C1662 C226 1.066 . S
C1697 C239 1.022 . S
C1712 C457 1.056 . S
C1747 N401 1.916 . S
C1762 N14 1.903 . S
C1797 N38 1.927 . S
C1812 N443 1.928 . S
C1847 N80 1.903 . S
C1862 N467 1.916 . S
C1897 N509 1.928 . S
C1912 N104 1.928 . S
C1947 N278 1.928 . S
C1962 N137 1.927 . S
C1997 N179 1.903 . S
C2012 N302 1.916 . S
C2047 N344 1.928 . S
C2062 N203 1.928 . S
C2097 N368 1.917 . S
C2112 N245 1.904 . S
C2147 C193 1.258 . S
C2162 C28 1.258 . S
C2197 C206 1.214 . S
C2212 C41 1.213 . S
C2247 C94 1.259 . S
C2262 C259 1.258 . S
C2297 C140 1.214 . S
C2312 C107 1.213 . S
C2347 C272 0.999 . S
C2362 C437 1.000 . S
C2397 C490 1.035 . S
C2412 C325 1.034 . S
C2447 C503 1.000 . S
C2462 C338 1.001 . S
C2497 C391 1.033 . S
C2512 C424 1.033 . S
