# Generated by pormake.
# Topology umo, (4)-cn, num edge types: 1
# Building blocks:
#     Node 0, Type 0, BuildingBlock: NAWXER_clean_sbu_0, # of connection points: 4
#     Node 1, Type 0, BuildingBlock: NAWXER_clean_sbu_0, # of connection points: 4
#     Node 2, Type 0, BuildingBlock: NAWXER_clean_sbu_0, # of connection points: 4
#     Node 3, Type 0, BuildingBlock: NAWXER_clean_sbu_0, # of connection points: 4
#     Node 4, Type 0, BuildingBlock: NAWXER_clean_sbu_0, # of connection points: 4
#     Node 5, Type 0, BuildingBlock: NAWXER_clean_sbu_0, # of connection points: 4
#     Node 6, Type 0, BuildingBlock: NAWXER_clean_sbu_0, # of connection points: 4
#     Node 7, Type 0, BuildingBlock: NAWXER_clean_sbu_0, # of connection points: 4
#     Node 8, Type 0, BuildingBlock: NAWXER_clean_sbu_0, # of connection points: 4
#     Node 9, Type 0, BuildingBlock: NAWXER_clean_sbu_0, # of connection points: 4
#     Node 10, Type 0, BuildingBlock: NAWXER_clean_sbu_0, # of connection points: 4
#     Node 11, Type 0, BuildingBlock: NAWXER_clean_sbu_0, # of connection points: 4
#     Edge 12, Type (0, 0), BuildingBlock: CIFDUS_clean_linker_0, # of connection points: 2
#     Edge 13, Type (0, 0), BuildingBlock: CIFDUS_clean_linker_0, # of connection points: 2
#     Edge 14, Type (0, 0), BuildingBlock: CIFDUS_clean_linker_0, # of connection points: 2
#     Edge 15, Type (0, 0), BuildingBlock: CIFDUS_clean_linker_0, # of connection points: 2
#     Edge 16, Type (0, 0), BuildingBlock: CIFDUS_clean_linker_0, # of connection points: 2
#     Edge 17, Type (0, 0), BuildingBlock: CIFDUS_clean_linker_0, # of connection points: 2
#     Edge 18, Type (0, 0), BuildingBlock: CIFDUS_clean_linker_0, # of connection points: 2
#     Edge 19, Type (0, 0), BuildingBlock: CIFDUS_clean_linker_0, # of connection points: 2
#     Edge 20, Type (0, 0), BuildingBlock: CIFDUS_clean_linker_0, # of connection points: 2
#     Edge 21, Type (0, 0), BuildingBlock: CIFDUS_clean_linker_0, # of connection points: 2
#     Edge 22, Type (0, 0), BuildingBlock: CIFDUS_clean_linker_0, # of connection points: 2
#     Edge 23, Type (0, 0), BuildingBlock: CIFDUS_clean_linker_0, # of connection points: 2
#     Edge 24, Type (0, 0), BuildingBlock: CIFDUS_clean_linker_0, # of connection points: 2
#     Edge 25, Type (0, 0), BuildingBlock: CIFDUS_clean_linker_0, # of connection points: 2
#     Edge 26, Type (0, 0), BuildingBlock: CIFDUS_clean_linker_0, # of connection points: 2
#     Edge 27, Type (0, 0), BuildingBlock: CIFDUS_clean_linker_0, # of connection points: 2
#     Edge 28, Type (0, 0), BuildingBlock: CIFDUS_clean_linker_0, # of connection points: 2
#     Edge 29, Type (0, 0), BuildingBlock: CIFDUS_clean_linker_0, # of connection points: 2
#     Edge 30, Type (0, 0), BuildingBlock: CIFDUS_clean_linker_0, # of connection points: 2
#     Edge 31, Type (0, 0), BuildingBlock: CIFDUS_clean_linker_0, # of connection points: 2
#     Edge 32, Type (0, 0), BuildingBlock: CIFDUS_clean_linker_0, # of connection points: 2
#     Edge 33, Type (0, 0), BuildingBlock: CIFDUS_clean_linker_0, # of connection points: 2
#     Edge 34, Type (0, 0), BuildingBlock: CIFDUS_clean_linker_0, # of connection points: 2
#     Edge 35, Type (0, 0), BuildingBlock: CIFDUS_clean_linker_0, # of connection points: 2
# Relax obj value: 0.169
# Max RMSD: 0.217
# Mean RMSD: 0.217
data_MOF--net-umo--node1-NAWXER_clean_sbu_0--edge1-CIFDUS_clean_linker_0
_symmetry_space_group_name_H-M    P1
_symmetry_Int_Tables_number       1
_symmetry_cell_setting            triclinic
loop_
_symmetry_equiv_pos_as_xyz
'x, y, z'
_cell_length_a     43.281073
_cell_length_b     43.409988
_cell_length_c     32.029499
_cell_angle_alpha  90.160485
_cell_angle_beta   90.125362
_cell_angle_gamma 119.95231
loop_
_atom_site_label
_atom_site_type_symbol
_atom_site_fract_x
_atom_site_fract_y
_atom_site_fract_z
_atom_type_partial_charge
C0 C 0.22098 0.58943 0.42419 0.0
C1 C 0.09779 0.50761 0.39109 0.0
O2 O 0.21219 0.55809 0.437 0.0
Zn3 Zn 0.16363 0.50589 0.43542 0.0
O4 O 0.19849 0.5947 0.40472 0.0
Zn5 Zn 0.16059 0.54709 0.40663 0.0
O6 O 0.15003 0.54227 0.47306 0.0
O7 O 0.15459 0.49654 0.49446 0.0
O8 O 0.11781 0.54006 0.38223 0.0
O9 O 0.11095 0.49076 0.41025 0.0
O10 O 0.18007 0.47824 0.40543 0.0
O11 O 0.18017 0.5202 0.36669 0.0
C12 C 0.14902 0.522 0.50274 0.0
C13 C 0.18676 0.49464 0.37096 0.0
C14 C 0.59176 0.09154 0.55123 0.0
C15 C 0.60058 0.20663 0.5691 0.0
O16 O 0.61637 0.11076 0.57752 0.0
Zn17 Zn 0.64026 0.16453 0.60044 0.0
O18 O 0.57477 0.10423 0.53257 0.0
Zn19 Zn 0.59751 0.15015 0.5586 0.0
O20 O 0.6492 0.17729 0.53019 0.0
O21 O 0.68882 0.18889 0.57999 0.0
O22 O 0.57909 0.18116 0.54566 0.0
O23 O 0.6243 0.20386 0.59023 0.0
O24 O 0.63271 0.1575 0.65975 0.0
O25 O 0.58309 0.14072 0.62404 0.0
C26 C 0.68178 0.19086 0.54192 0.0
C27 C 0.59919 0.14525 0.65918 0.0
C28 C 0.49114 0.68074 0.69554 0.0
C29 C 0.45362 0.60985 0.82273 0.0
O30 O 0.46479 0.64947 0.68861 0.0
Zn31 Zn 0.43275 0.6023 0.72481 0.0
O32 O 0.50515 0.68866 0.73165 0.0
Zn33 Zn 0.47407 0.64363 0.75802 0.0
O34 O 0.48744 0.60584 0.73074 0.0
O35 O 0.43814 0.566 0.69924 0.0
O36 O 0.48089 0.64017 0.81676 0.0
O37 O 0.43355 0.5928 0.79152 0.0
O38 O 0.38709 0.59753 0.7174 0.0
O39 O 0.42326 0.64279 0.75794 0.0
C40 C 0.47026 0.57699 0.7094 0.0
C41 C 0.3928 0.62374 0.74027 0.0
C42 C 0.76247 0.39068 0.92816 0.0
C43 C 0.88344 0.47945 0.89561 0.0
O44 O 0.76897 0.42175 0.93944 0.0
Zn45 Zn 0.81407 0.47523 0.93807 0.0
O46 O 0.78639 0.38678 0.91019 0.0
Zn47 Zn 0.82254 0.43557 0.91157 0.0
O48 O 0.83271 0.44343 0.97714 0.0
O49 O 0.82263 0.48606 0.99765 0.0
O50 O 0.86711 0.44615 0.88939 0.0
O51 O 0.86713 0.49396 0.9131 0.0
O52 O 0.79526 0.49925 0.90431 0.0
O53 O 0.80353 0.46037 0.86861 0.0
C54 C 0.8315 0.46295 1.00642 0.0
C55 C 0.79395 0.48393 0.86993 0.0
C56 C 0.376 0.89051 0.06519 0.0
C57 C 0.36236 0.77395 0.07391 0.0
O58 O 0.34815 0.87027 0.08667 0.0
Zn59 Zn 0.32064 0.81442 0.10344 0.0
O60 O 0.39434 0.8783 0.04899 0.0
Zn61 Zn 0.36746 0.83142 0.0689 0.0
O62 O 0.31992 0.80954 0.03193 0.0
O63 O 0.27479 0.7934 0.075 0.0
O64 O 0.38619 0.8014 0.05555 0.0
O65 O 0.33661 0.77492 0.09254 0.0
O66 O 0.32156 0.81675 0.16378 0.0
O67 O 0.37462 0.83592 0.13597 0.0
C68 C 0.28638 0.7958 0.03807 0.0
C69 C 0.3549 0.82912 0.16839 0.0
C70 C 0.50314 0.31912 0.18676 0.0
C71 C 0.53306 0.3814 0.32104 0.0
O72 O 0.52543 0.35244 0.1832 0.0
Zn73 Zn 0.55228 0.39794 0.22362 0.0
O74 O 0.49116 0.30628 0.2226 0.0
Zn75 Zn 0.5163 0.35038 0.25374 0.0
O76 O 0.49281 0.38085 0.23119 0.0
O77 O 0.53683 0.42946 0.20368 0.0
O78 O 0.50932 0.34945 0.31325 0.0
O79 O 0.55065 0.402 0.29078 0.0
O80 O 0.60122 0.41129 0.2143 0.0
O81 O 0.57101 0.36178 0.25064 0.0
C82 C 0.50405 0.41079 0.21283 0.0
C83 C 0.60029 0.38566 0.23439 0.0
C84 C 0.49464 0.792 0.49878 0.0
C85 C 0.45858 0.83271 0.37627 0.0
O86 O 0.47472 0.8049 0.50882 0.0
Zn87 Zn 0.4499 0.83051 0.47674 0.0
O88 O 0.50457 0.79382 0.4612 0.0
Zn89 Zn 0.47943 0.81624 0.43816 0.0
O90 O 0.50778 0.87129 0.45851 0.0
O91 O 0.47076 0.87656 0.50123 0.0
O92 O 0.48034 0.82117 0.37862 0.0
O93 O 0.44563 0.83782 0.40995 0.0
O94 O 0.40099 0.79999 0.48953 0.0
O95 O 0.42378 0.77576 0.44789 0.0
C96 C 0.50072 0.89021 0.48331 0.0
C97 C 0.39717 0.77368 0.46806 0.0
C98 C 0.61828 0.46192 0.54414 0.0
C99 C 0.67439 0.48399 0.68235 0.0
O100 O 0.59672 0.44313 0.57301 0.0
Zn101 Zn 0.59749 0.43657 0.63898 0.0
O102 O 0.65019 0.48487 0.55375 0.0
Zn103 Zn 0.64674 0.47507 0.61349 0.0
O104 O 0.63701 0.4212 0.61409 0.0
O105 O 0.58365 0.38725 0.64147 0.0
O106 O 0.68909 0.4987 0.64812 0.0
O107 O 0.64097 0.46107 0.68306 0.0
O108 O 0.56411 0.44942 0.65888 0.0
O109 O 0.61365 0.49576 0.63637 0.0
C110 C 0.61184 0.39047 0.62517 0.0
C111 C 0.58253 0.48264 0.65263 0.0
C112 C 0.16758 0.66326 0.86108 0.0
C113 C 0.1447 0.60328 0.72564 0.0
O114 O 0.16182 0.63139 0.86425 0.0
Zn115 Zn 0.15082 0.58798 0.82283 0.0
O116 O 0.1662 0.67527 0.82543 0.0
Zn117 Zn 0.15435 0.63269 0.79369 0.0
O118 O 0.10144 0.59395 0.81524 0.0
O119 O 0.10701 0.55012 0.84191 0.0
O120 O 0.14818 0.63348 0.73406 0.0
O121 O 0.14521 0.5839 0.75554 0.0
O122 O 0.19117 0.58261 0.83282 0.0
O123 O 0.20366 0.63121 0.79761 0.0
C124 C 0.08757 0.56334 0.83277 0.0
C125 C 0.21359 0.61063 0.81412 0.0
C126 C 0.48713 0.08965 0.99689 0.0
C127 C 0.59238 0.20541 0.98295 0.0
O128 O 0.48115 0.10969 0.97286 0.0
Zn129 Zn 0.5106 0.16382 0.95171 0.0
O130 O 0.5175 0.10132 1.01382 0.0
Zn131 Zn 0.53976 0.14781 0.99072 0.0
O132 O 0.51379 0.17151 1.02287 0.0
O133 O 0.48612 0.18678 0.97647 0.0
O134 O 0.58906 0.17918 1.00405 0.0
O135 O 0.56557 0.203 0.9629 0.0
O136 O 0.51065 0.15817 0.89152 0.0
O137 O 0.54346 0.14028 0.92497 0.0
C138 C 0.49443 0.18531 1.01421 0.0
C139 C 0.53166 0.14562 0.89059 0.0
C140 C 0.39997 0.51345 0.15474 0.0
C141 C 0.35499 0.59075 0.11716 0.0
O142 O 0.37039 0.49526 0.13479 0.0
Zn143 Zn 0.33153 0.50781 0.10755 0.0
O144 O 0.41096 0.54578 0.16315 0.0
Zn145 Zn 0.37456 0.55029 0.13695 0.0
O146 O 0.32791 0.52259 0.17591 0.0
O147 O 0.2872 0.47941 0.13687 0.0
O148 O 0.38258 0.59711 0.13783 0.0
O149 O 0.33332 0.55904 0.1043 0.0
O150 O 0.33251 0.49785 0.04869 0.0
O151 O 0.38173 0.54472 0.07105 0.0
C152 C 0.29618 0.49625 0.17128 0.0
C153 C 0.3634 0.52382 0.04109 0.0
C154 C 0.79482 0.30375 0.34824 0.0
C155 C 0.83749 0.37798 0.22424 0.0
O156 O 0.80601 0.3365 0.3571 0.0
Zn157 Zn 0.82925 0.38604 0.32324 0.0
O158 O 0.79776 0.29515 0.31118 0.0
Zn159 Zn 0.81953 0.34201 0.28727 0.0
O160 O 0.87257 0.37012 0.31409 0.0
O161 O 0.87476 0.41519 0.34839 0.0
O162 O 0.82883 0.34557 0.22851 0.0
O163 O 0.83888 0.39623 0.25656 0.0
O164 O 0.79443 0.40003 0.33313 0.0
O165 O 0.77638 0.35417 0.29009 0.0
C166 C 0.88997 0.3982 0.33656 0.0
C167 C 0.77073 0.37694 0.30917 0.0
H168 H 0.23677 0.65596 0.44324 0.0
H169 H 0.28435 0.59012 0.42633 0.0
H170 H 0.34375 0.64167 0.43884 0.0
H171 H 0.38198 0.706 0.4525 0.0
H172 H 0.33307 0.7702 0.47434 0.0
H173 H 0.27415 0.71864 0.46229 0.0
C174 C 0.26021 0.65299 0.44229 0.0
C175 C 0.25654 0.61968 0.43336 0.0
C176 C 0.29386 0.68235 0.45049 0.0
C177 C 0.2868 0.61573 0.43306 0.0
C178 C 0.32064 0.64513 0.44011 0.0
C179 C 0.35834 0.70854 0.45478 0.0
C180 C 0.36174 0.74177 0.46398 0.0
C181 C 0.32449 0.67863 0.44855 0.0
C182 C 0.33102 0.7448 0.46743 0.0
C183 C 0.29738 0.71541 0.46036 0.0
H184 H 0.65213 0.27184 0.59369 0.0
H185 H 0.54132 0.21265 0.55738 0.0
H186 H 0.53454 0.26411 0.57351 0.0
H187 H 0.55999 0.32557 0.59964 0.0
H188 H 0.67176 0.3857 0.63121 0.0
H189 H 0.67832 0.33404 0.6157 0.0
C190 C 0.62654 0.27029 0.58912 0.0
C191 C 0.59722 0.23855 0.5746 0.0
C192 C 0.62298 0.29996 0.59805 0.0
C193 C 0.56432 0.23693 0.56833 0.0
C194 C 0.56037 0.26622 0.57782 0.0
C195 C 0.58566 0.32713 0.60338 0.0
C196 C 0.61526 0.35899 0.61708 0.0
C197 C 0.58944 0.29774 0.59312 0.0
C198 C 0.64862 0.36123 0.62091 0.0
C199 C 0.65238 0.3318 0.61198 0.0
H200 H 0.25383 0.63436 0.74498 0.0
H201 H 0.25466 0.60242 0.87207 0.0
H202 H 0.3137 0.60899 0.86176 0.0
H203 H 0.36218 0.61809 0.81444 0.0
H204 H 0.35721 0.64173 0.68496 0.0
H205 H 0.30288 0.64462 0.69802 0.0
C206 C 0.26735 0.62948 0.7705 0.0
C207 C 0.25036 0.61812 0.8092 0.0
C208 C 0.30036 0.63169 0.76371 0.0
C209 C 0.2675 0.61114 0.842 0.0
C210 C 0.30112 0.61488 0.83611 0.0
C211 C 0.34942 0.62457 0.78947 0.0
C212 C 0.36341 0.63015 0.74905 0.0
C213 C 0.31741 0.62433 0.79684 0.0
C214 C 0.34665 0.63766 0.71637 0.0
C215 C 0.31567 0.63916 0.72381 0.0
H216 H 0.75046 0.32589 0.95091 0.0
H217 H 0.69765 0.38631 0.92885 0.0
H218 H 0.64004 0.33425 0.94559 0.0
H219 H 0.60486 0.27129 0.9646 0.0
H220 H 0.65808 0.21183 0.99091 0.0
H221 H 0.7157 0.26409 0.97512 0.0
C222 C 0.72625 0.32749 0.94961 0.0
C223 C 0.72793 0.35946 0.93807 0.0
C224 C 0.69355 0.29786 0.96039 0.0
C225 C 0.69672 0.36173 0.93744 0.0
C226 C 0.66391 0.33208 0.94703 0.0
C227 C 0.62913 0.26989 0.96715 0.0
C228 C 0.62734 0.23782 0.97857 0.0
C229 C 0.66203 0.29999 0.95835 0.0
C230 C 0.6589 0.23635 0.98232 0.0
C231 C 0.69177 0.2661 0.97301 0.0
H232 H 0.30961 0.70588 0.08656 0.0
H233 H 0.4231 0.77072 0.06745 0.0
H234 H 0.43047 0.71924 0.07857 0.0
H235 H 0.40531 0.65683 0.09735 0.0
H236 H 0.29176 0.59033 0.11251 0.0
H237 H 0.28356 0.64148 0.09913 0.0
C238 C 0.33586 0.70857 0.08458 0.0
C239 C 0.3658 0.74199 0.0766 0.0
C240 C 0.33987 0.67875 0.09049 0.0
C241 C 0.39965 0.7452 0.0735 0.0
C242 C 0.40393 0.71586 0.08004 0.0
C243 C 0.37877 0.6536 0.09764 0.0
C244 C 0.34921 0.62031 0.10649 0.0
C245 C 0.37434 0.68272 0.08917 0.0
C246 C 0.31485 0.61597 0.10589 0.0
C247 C 0.31022 0.64514 0.09836 0.0
H248 H 0.74308 0.38016 0.23506 0.0
H249 H 0.72469 0.37504 0.36764 0.0
H250 H 0.66889 0.37548 0.35592 0.0
H251 H 0.62581 0.37797 0.3077 0.0
H252 H 0.64782 0.39045 0.17583 0.0
H253 H 0.7019 0.38659 0.18713 0.0
C254 C 0.72662 0.37898 0.26121 0.0
C255 C 0.73734 0.37711 0.30206 0.0
C256 C 0.69548 0.38068 0.25425 0.0
C257 C 0.71656 0.37634 0.33598 0.0
C258 C 0.68479 0.37658 0.32926 0.0
C259 C 0.64253 0.37974 0.28156 0.0
C260 C 0.63303 0.38409 0.24101 0.0
C261 C 0.67405 0.37881 0.28855 0.0
C262 C 0.6549 0.38706 0.20726 0.0
C263 C 0.68565 0.38478 0.21373 0.0
H264 H 0.14149 0.54247 0.69719 0.0
H265 H 0.14188 0.63702 0.65489 0.0
H266 H 0.1411 0.61907 0.58241 0.0
H267 H 0.1433 0.57817 0.53103 0.0
H268 H 0.14423 0.48426 0.57321 0.0
H269 H 0.14122 0.50026 0.64566 0.0
C270 C 0.14114 0.55907 0.67217 0.0
C271 C 0.14188 0.59116 0.68164 0.0
C272 C 0.141 0.54875 0.63046 0.0
C273 C 0.14142 0.61225 0.64866 0.0
C274 C 0.141 0.60202 0.60713 0.0
C275 C 0.14251 0.56097 0.55599 0.0
C276 C 0.14408 0.53005 0.54653 0.0
C277 C 0.14121 0.57055 0.59766 0.0
C278 C 0.1431 0.50821 0.57945 0.0
C279 C 0.14146 0.51739 0.62096 0.0
H280 H 0.61935 0.13836 0.73763 0.0
H281 H 0.53452 0.14073 0.66935 0.0
H282 H 0.50503 0.13949 0.73471 0.0
H283 H 0.50551 0.14206 0.81171 0.0
H284 H 0.58954 0.13765 0.87949 0.0
H285 H 0.61681 0.13514 0.81415 0.0
C286 C 0.59422 0.13822 0.73705 0.0
C287 C 0.57936 0.13991 0.69866 0.0
C288 C 0.57726 0.13735 0.77478 0.0
C289 C 0.54657 0.13937 0.69845 0.0
C290 C 0.52974 0.13885 0.73586 0.0
C291 C 0.52959 0.14022 0.81214 0.0
C292 C 0.54553 0.14035 0.85051 0.0
C293 C 0.54516 0.13851 0.77427 0.0
C294 C 0.5766 0.1376 0.85048 0.0
C295 C 0.59237 0.13629 0.81307 0.0
H296 H 0.42762 0.57763 1.01541 0.0
H297 H 0.3299 0.48881 0.96888 0.0
H298 H 0.35015 0.5063 0.89715 0.0
H299 H 0.39388 0.5492 0.84762 0.0
H300 H 0.491 0.63848 0.89485 0.0
H301 H 0.47268 0.61826 0.96618 0.0
C302 C 0.41083 0.56182 0.98965 0.0
C303 C 0.37716 0.53201 0.99768 0.0
C304 C 0.42245 0.57224 0.94848 0.0
C305 C 0.3559 0.51188 0.96375 0.0
C306 C 0.36742 0.52194 0.92265 0.0
C307 C 0.41124 0.56405 0.87346 0.0
C308 C 0.44373 0.59547 0.86572 0.0
C309 C 0.40039 0.55244 0.91463 0.0
C310 C 0.46581 0.61431 0.89973 0.0
C311 C 0.45534 0.60279 0.94063 0.0
H312 H 0.83471 0.43687 0.2002 0.0
H313 H 0.85202 0.35348 0.15295 0.0
H314 H 0.85486 0.3747 0.08189 0.0
H315 H 0.84795 0.41368 0.03291 0.0
H316 H 0.82766 0.49555 0.07854 0.0
H317 H 0.83089 0.47842 0.15055 0.0
C318 C 0.83965 0.4237 0.17439 0.0
C319 C 0.84307 0.39355 0.18191 0.0
C320 C 0.8405 0.43561 0.13333 0.0
C321 C 0.84912 0.37659 0.14807 0.0
C322 C 0.85073 0.3887 0.10739 0.0
C323 C 0.84458 0.42813 0.0585 0.0
C324 C 0.83738 0.45579 0.05019 0.0
C325 C 0.84574 0.41769 0.09961 0.0
C326 C 0.83319 0.47415 0.08394 0.0
C327 C 0.83491 0.46427 0.12515 0.0
H328 H 0.42075 0.84007 0.18775 0.0
H329 H 0.32458 0.82738 0.24405 0.0
H330 H 0.34952 0.83042 0.31357 0.0
H331 H 0.39726 0.83307 0.35825 0.0
H332 H 0.49168 0.84213 0.30124 0.0
H333 H 0.46891 0.84441 0.23216 0.0
C334 C 0.40533 0.83834 0.21519 0.0
C335 C 0.3708 0.83349 0.21062 0.0
C336 C 0.41952 0.83936 0.25499 0.0
C337 C 0.35117 0.83102 0.24661 0.0
C338 C 0.36542 0.83275 0.2864 0.0
C339 C 0.41307 0.83605 0.33074 0.0
C340 C 0.44617 0.83749 0.33491 0.0
C341 C 0.39938 0.83642 0.29096 0.0
C342 C 0.4661 0.84088 0.2989 0.0
C343 C 0.45308 0.84214 0.25937 0.0
H344 H 0.59227 0.44098 0.34917 0.0
H345 H 0.49466 0.35013 0.39133 0.0
H346 H 0.51161 0.36862 0.46376 0.0
H347 H 0.55526 0.4085 0.51503 0.0
H348 H 0.6543 0.49799 0.47377 0.0
H349 H 0.6355 0.48219 0.40096 0.0
C350 C 0.5745 0.42543 0.37418 0.0
C351 C 0.54219 0.39417 0.36477 0.0
C352 C 0.58473 0.43587 0.41588 0.0
C353 C 0.51968 0.3742 0.39762 0.0
C354 C 0.52937 0.38476 0.43908 0.0
C355 C 0.5727 0.42485 0.49021 0.0
C356 C 0.60621 0.45444 0.49997 0.0
C357 C 0.56201 0.41525 0.44856 0.0
C358 C 0.62841 0.47509 0.46723 0.0
C359 C 0.61768 0.46602 0.42558 0.0
H360 H 0.93837 0.46552 0.35727 0.0
H361 H 0.9269 0.36191 0.33856 0.0
H362 H -0.00976 0.38599 0.35543 0.0
H363 H 0.04943 0.43741 0.3748 0.0
H364 H 0.05964 0.5411 0.38809 0.0
H365 H -0.00366 0.51607 0.3742 0.0
C366 C 0.94962 0.44808 0.35712 0.0
C367 C 0.92796 0.41197 0.34704 0.0
C368 C 0.98595 0.46221 0.36579 0.0
C369 C 0.94309 0.38987 0.34629 0.0
C370 C 0.97926 0.40362 0.35596 0.0
C371 C 0.03764 0.45435 0.37469 0.0
C372 C 0.05919 0.49104 0.3824 0.0
C373 C 0.00104 0.43986 0.36566 0.0
C374 C 0.04371 0.51283 0.38188 0.0
C375 C 0.00747 0.49855 0.37408 0.0
H376 H 0.52498 0.92593 0.55587 0.0
H377 H 0.53056 0.93961 0.42245 0.0
H378 H 0.56127 0.00437 0.4314 0.0
H379 H 0.58047 0.05649 0.47779 0.0
H380 H 0.57925 0.04291 0.61111 0.0
H381 H 0.55315 0.97862 0.6019 0.0
C382 C 0.53374 0.94326 0.52888 0.0
C383 C 0.52557 0.92842 0.48863 0.0
C384 C 0.55173 0.98028 0.53434 0.0
C385 C 0.53695 0.95075 0.45369 0.0
C386 C 0.55417 0.98766 0.45883 0.0
C387 C 0.57494 0.03937 0.50466 0.0
C388 C 0.5812 0.05399 0.54504 0.0
C389 C 0.56076 0.00264 0.49904 0.0
C390 C 0.57453 0.03197 0.57978 0.0
C391 C 0.55951 -0.00471 0.57452 0.0
H392 H 0.54112 0.59861 0.70182 0.0
H393 H 0.4358 0.50656 0.69202 0.0
H394 H 0.46136 0.46943 0.67445 0.0
H395 H 0.51316 0.46275 0.66183 0.0
H396 H 0.61882 0.55443 0.66736 0.0
H397 H 0.59365 0.59208 0.68647 0.0
C398 C 0.52388 0.57043 0.69587 0.0
C399 C 0.48667 0.55536 0.69828 0.0
C400 C 0.53876 0.54918 0.68497 0.0
C401 C 0.46454 0.51887 0.69013 0.0
C402 C 0.4791 0.49755 0.68018 0.0
C403 C 0.53073 0.49096 0.66734 0.0
C404 C 0.56775 0.50576 0.6635 0.0
C405 C 0.51611 0.51239 0.67753 0.0
C406 C 0.59016 0.54244 0.67012 0.0
C407 C 0.5758 0.56394 0.68112 0.0
H408 H 0.04267 0.58927 0.84659 0.0
H409 H 0.04674 0.492 0.84058 0.0
H410 H 0.98377 0.45767 0.85837 0.0
H411 H 0.92818 0.45517 0.87702 0.0
H412 H 0.92343 0.55187 0.88701 0.0
H413 H 0.98617 0.58665 0.86643 0.0
C414 C 0.0296 0.56055 0.84895 0.0
C415 C 0.04921 0.54315 0.84226 0.0
C416 C -0.00655 0.54095 0.86008 0.0
C417 C 0.0322 0.50599 0.84582 0.0
C418 C -0.00379 0.48633 0.85593 0.0
C419 C 0.94075 0.48385 0.87454 0.0
C420 C 0.9212 0.50092 0.88335 0.0
C421 C 0.97669 0.50354 0.86337 0.0
C422 C 0.93801 0.53813 0.88045 0.0
C423 C 0.97381 0.55799 0.86861 0.0
H424 H 0.46739 0.05557 0.07055 0.0
H425 H 0.44488 0.04173 0.93855 0.0
H426 H 0.40425 0.97797 0.94869 0.0
H427 H 0.38116 0.92553 0.99438 0.0
H428 H 0.40081 0.93972 0.12681 0.0
H429 H 0.43613 0.00434 0.11771 0.0
C430 C 0.45311 0.03852 0.04423 0.0
C431 C 0.4593 0.05274 1.00385 0.0
C432 C 0.4294 0.00224 0.05048 0.0
C433 C 0.44043 0.03097 0.96985 0.0
C434 C 0.41736 -0.00536 0.97564 0.0
C435 C 0.39237 0.94303 1.02122 0.0
C436 C 0.38867 0.92846 0.06111 0.0
C437 C 0.41242 0.97989 1.01566 0.0
C438 C 0.40322 0.95082 0.09592 0.0
C439 C 0.42364 0.98758 0.09064 0.0
H440 H 0.38082 0.44375 0.16828 0.0
H441 H 0.47139 0.55018 0.16472 0.0
H442 H 0.51128 0.52773 0.18149 0.0
H443 H 0.52094 0.47844 0.1974 0.0
H444 H 0.43129 0.37194 0.20536 0.0
H445 H 0.39063 0.39376 0.1869 0.0
C446 C 0.40928 0.46188 0.17117 0.0
C447 C 0.42308 0.49854 0.16529 0.0
C448 C 0.43227 0.44885 0.18169 0.0
C449 C 0.46 0.52185 0.16941 0.0
C450 C 0.48293 0.50908 0.17889 0.0
C451 C 0.49251 0.45995 0.195 0.0
C452 C 0.47917 0.42366 0.20247 0.0
C453 C 0.46939 0.47271 0.18514 0.0
C454 C 0.44221 0.40008 0.19979 0.0
C455 C 0.41897 0.41252 0.18915 0.0
H456 H 0.17558 0.48973 0.28689 0.0
H457 H 0.24404 0.48627 0.38239 0.0
H458 H 0.28388 0.48517 0.3291 0.0
H459 H 0.30185 0.49027 0.25506 0.0
H460 H 0.23038 0.48752 0.1594 0.0
H461 H 0.18895 0.48557 0.21265 0.0
C462 C 0.19891 0.48811 0.29585 0.0
C463 C 0.20705 0.48826 0.33837 0.0
C464 C 0.22122 0.48654 0.26498 0.0
C465 C 0.23718 0.48594 0.34978 0.0
C466 C 0.26008 0.48555 0.31934 0.0
C467 C 0.27688 0.4886 0.24604 0.0
C468 C 0.26914 0.48919 0.20354 0.0
C469 C 0.25277 0.48656 0.27684 0.0
C470 C 0.23669 0.48683 0.19202 0.0
C471 C 0.21313 0.48597 0.22244 0.0
H472 H 0.80313 0.30951 0.4327 0.0
H473 H 0.7417 0.23587 0.33448 0.0
H474 H 0.70252 0.19292 0.38618 0.0
H475 H 0.68212 0.17888 0.45894 0.0
H476 H 0.74532 0.2507 0.55762 0.0
H477 H 0.78768 0.29156 0.50628 0.0
C478 C 0.78148 0.28383 0.42273 0.0
C479 C 0.77505 0.27602 0.37986 0.0
C480 C 0.75929 0.25903 0.45269 0.0
C481 C 0.74721 0.2425 0.3673 0.0
C482 C 0.72466 0.21799 0.39684 0.0
C483 C 0.70553 0.2032 0.46917 0.0
C484 C 0.71048 0.21198 0.51186 0.0
C485 C 0.72991 0.22634 0.43954 0.0
C486 C 0.74104 0.24334 0.52488 0.0
C487 C 0.76512 0.26683 0.49552 0.0
H488 H 0.49308 0.67316 0.61155 0.0
H489 H 0.51091 0.75009 0.70766 0.0
H490 H 0.51608 0.79293 0.65477 0.0
H491 H 0.50867 0.80582 0.58154 0.0
H492 H 0.49536 0.73067 0.48508 0.0
H493 H 0.49571 0.68999 0.53752 0.0
C494 C 0.49882 0.69958 0.62074 0.0
C495 C 0.5013 0.70841 0.66334 0.0
C496 C 0.50229 0.72425 0.59012 0.0
C497 C 0.50905 0.74277 0.675 0.0
C498 C 0.51173 0.76718 0.64479 0.0
C499 C 0.50656 0.78082 0.57207 0.0
C500 C 0.50168 0.77104 0.52967 0.0
C501 C 0.50739 0.75783 0.60234 0.0
C502 C 0.49928 0.73878 0.51758 0.0
C503 C 0.49923 0.71541 0.54756 0.0
H504 H 0.73618 0.49241 0.863 0.0
H505 H 0.8192 0.49034 0.7912 0.0
H506 H 0.79184 0.49505 0.72636 0.0
H507 H 0.74114 0.49388 0.68983 0.0
H508 H 0.65435 0.48836 0.76141 0.0
H509 H 0.68618 0.4928 0.82642 0.0
C510 C 0.74855 0.49371 0.83313 0.0
C511 C 0.77972 0.49133 0.8317 0.0
C512 C 0.73175 0.49475 0.79592 0.0
C513 C 0.79518 0.49222 0.7929 0.0
C514 C 0.77952 0.49482 0.75587 0.0
C515 C 0.7296 0.49434 0.71969 0.0
C516 C 0.69564 0.49105 0.72097 0.0
C517 C 0.74735 0.49528 0.75693 0.0
C518 C 0.68053 0.4909 0.75979 0.0
C519 C 0.69867 0.49337 0.79692 0.0
H520 H 0.22327 0.73402 0.03692 0.0
H521 H 0.29571 0.82086 0.9589 0.0
H522 H 0.26119 0.78932 0.89687 0.0
H523 H 0.21536 0.73382 0.86414 0.0
H524 H 0.14758 0.64423 0.94159 0.0
H525 H 0.17477 0.67992 1.00439 0.0
C526 C 0.23085 0.74633 1.00642 0.0
C527 C 0.26179 0.7797 1.00235 0.0
C528 C 0.21188 0.72728 0.97071 0.0
C529 C 0.2719 0.79516 0.96265 0.0
C530 C 0.25227 0.77709 0.92721 0.0
C531 C 0.206 0.72245 0.8948 0.0
C532 C 0.17952 0.68654 0.89834 0.0
C533 C 0.22291 0.74265 0.93071 0.0
C534 C 0.16801 0.67185 0.93819 0.0
C535 C 0.18361 0.69221 0.97407 0.0
H536 H 0.48074 0.24846 0.18462 0.0
H537 H 0.50605 0.33808 0.1053 0.0
H538 H 0.49969 0.30228 0.04345 0.0
H539 H 0.49442 0.24778 1.01258 0.0
H540 H 0.47514 0.16047 0.0928 0.0
H541 H 0.47099 0.19259 0.15334 0.0
C542 C 0.48414 0.2599 0.15375 0.0
C543 C 0.49403 0.29588 0.14955 0.0
C544 C 0.48169 0.23953 0.11839 0.0
C545 C 0.4987 0.31048 0.10935 0.0
C546 C 0.49508 0.29004 0.07396 0.0
C547 C 0.48836 0.23553 0.04318 0.0
C548 C 0.48495 0.20186 0.04836 0.0
C549 C 0.48764 0.25485 0.07815 0.0
C550 C 0.47783 0.18642 0.08821 0.0
C551 C 0.47563 0.20483 0.12283 0.0
loop_
_geom_bond_atom_site_label_1
_geom_bond_atom_site_label_2
_geom_bond_distance
_geom_bond_site_symmetry_2
_ccdc_geom_bond_type
C0 O2 1.247 . S
C0 O4 1.258 . S
C1 O8 1.247 . S
C1 O9 1.258 . S
O2 C0 1.247 . S
O2 Zn3 2.028 . S
Zn3 O2 2.028 . S
Zn3 O7 2.035 . S
Zn3 O9 2.035 . S
Zn3 O10 2.028 . S
O4 C0 1.258 . S
O4 Zn5 2.035 . S
Zn5 O4 2.035 . S
Zn5 O6 2.028 . S
Zn5 O8 2.028 . S
Zn5 O11 2.035 . S
O6 Zn5 2.028 . S
O6 C12 1.247 . S
O7 Zn3 2.035 . S
O7 C12 1.258 . S
O8 C1 1.247 . S
O8 Zn5 2.028 . S
O9 C1 1.258 . S
O9 Zn3 2.035 . S
O10 Zn3 2.028 . S
O10 C13 1.247 . S
O11 Zn5 2.035 . S
O11 C13 1.258 . S
C12 O6 1.247 . S
C12 O7 1.258 . S
C13 O10 1.247 . S
C13 O11 1.258 . S
C14 O16 1.247 . S
C14 O18 1.258 . S
C15 O22 1.247 . S
C15 O23 1.258 . S
O16 C14 1.247 . S
O16 Zn17 2.028 . S
Zn17 O16 2.028 . S
Zn17 O21 2.035 . S
Zn17 O23 2.035 . S
Zn17 O24 2.028 . S
O18 C14 1.258 . S
O18 Zn19 2.035 . S
Zn19 O18 2.035 . S
Zn19 O20 2.028 . S
Zn19 O22 2.028 . S
Zn19 O25 2.035 . S
O20 Zn19 2.028 . S
O20 C26 1.247 . S
O21 Zn17 2.035 . S
O21 C26 1.258 . S
O22 C15 1.247 . S
O22 Zn19 2.028 . S
O23 C15 1.258 . S
O23 Zn17 2.035 . S
O24 Zn17 2.028 . S
O24 C27 1.247 . S
O25 Zn19 2.035 . S
O25 C27 1.258 . S
C26 O20 1.247 . S
C26 O21 1.258 . S
C27 O24 1.247 . S
C27 O25 1.258 . S
C28 O30 1.247 . S
C28 O32 1.258 . S
C29 O36 1.247 . S
C29 O37 1.258 . S
O30 C28 1.247 . S
O30 Zn31 2.028 . S
Zn31 O30 2.028 . S
Zn31 O35 2.035 . S
Zn31 O37 2.035 . S
Zn31 O38 2.028 . S
O32 C28 1.258 . S
O32 Zn33 2.035 . S
Zn33 O32 2.035 . S
Zn33 O34 2.028 . S
Zn33 O36 2.028 . S
Zn33 O39 2.035 . S
O34 Zn33 2.028 . S
O34 C40 1.247 . S
O35 Zn31 2.035 . S
O35 C40 1.258 . S
O36 C29 1.247 . S
O36 Zn33 2.028 . S
O37 C29 1.258 . S
O37 Zn31 2.035 . S
O38 Zn31 2.028 . S
O38 C41 1.247 . S
O39 Zn33 2.035 . S
O39 C41 1.258 . S
C40 O34 1.247 . S
C40 O35 1.258 . S
C41 O38 1.247 . S
C41 O39 1.258 . S
C42 O44 1.247 . S
C42 O46 1.258 . S
C43 O50 1.247 . S
C43 O51 1.258 . S
O44 C42 1.247 . S
O44 Zn45 2.028 . S
Zn45 O44 2.028 . S
Zn45 O49 2.035 . S
Zn45 O51 2.035 . S
Zn45 O52 2.028 . S
O46 C42 1.258 . S
O46 Zn47 2.035 . S
Zn47 O46 2.035 . S
Zn47 O48 2.028 . S
Zn47 O50 2.028 . S
Zn47 O53 2.035 . S
O48 Zn47 2.028 . S
O48 C54 1.247 . S
O49 Zn45 2.035 . S
O49 C54 1.258 . S
O50 C43 1.247 . S
O50 Zn47 2.028 . S
O51 C43 1.258 . S
O51 Zn45 2.035 . S
O52 Zn45 2.028 . S
O52 C55 1.247 . S
O53 Zn47 2.035 . S
O53 C55 1.258 . S
C54 O48 1.247 . S
C54 O49 1.258 . S
C55 O52 1.247 . S
C55 O53 1.258 . S
C56 O58 1.247 . S
C56 O60 1.258 . S
C57 O64 1.247 . S
C57 O65 1.258 . S
O58 C56 1.247 . S
O58 Zn59 2.028 . S
Zn59 O58 2.028 . S
Zn59 O63 2.035 . S
Zn59 O65 2.035 . S
Zn59 O66 2.028 . S
O60 C56 1.258 . S
O60 Zn61 2.035 . S
Zn61 O60 2.035 . S
Zn61 O62 2.028 . S
Zn61 O64 2.028 . S
Zn61 O67 2.035 . S
O62 Zn61 2.028 . S
O62 C68 1.247 . S
O63 Zn59 2.035 . S
O63 C68 1.258 . S
O64 C57 1.247 . S
O64 Zn61 2.028 . S
O65 C57 1.258 . S
O65 Zn59 2.035 . S
O66 Zn59 2.028 . S
O66 C69 1.247 . S
O67 Zn61 2.035 . S
O67 C69 1.258 . S
C68 O62 1.247 . S
C68 O63 1.258 . S
C69 O66 1.247 . S
C69 O67 1.258 . S
C70 O72 1.247 . S
C70 O74 1.258 . S
C71 O78 1.247 . S
C71 O79 1.258 . S
O72 C70 1.247 . S
O72 Zn73 2.028 . S
Zn73 O72 2.028 . S
Zn73 O77 2.035 . S
Zn73 O79 2.035 . S
Zn73 O80 2.028 . S
O74 C70 1.258 . S
O74 Zn75 2.035 . S
Zn75 O74 2.035 . S
Zn75 O76 2.028 . S
Zn75 O78 2.028 . S
Zn75 O81 2.035 . S
O76 Zn75 2.028 . S
O76 C82 1.247 . S
O77 Zn73 2.035 . S
O77 C82 1.258 . S
O78 C71 1.247 . S
O78 Zn75 2.028 . S
O79 C71 1.258 . S
O79 Zn73 2.035 . S
O80 Zn73 2.028 . S
O80 C83 1.247 . S
O81 Zn75 2.035 . S
O81 C83 1.258 . S
C82 O76 1.247 . S
C82 O77 1.258 . S
C83 O80 1.247 . S
C83 O81 1.258 . S
C84 O86 1.247 . S
C84 O88 1.258 . S
C85 O92 1.247 . S
C85 O93 1.258 . S
O86 C84 1.247 . S
O86 Zn87 2.028 . S
Zn87 O86 2.028 . S
Zn87 O91 2.035 . S
Zn87 O93 2.035 . S
Zn87 O94 2.028 . S
O88 C84 1.258 . S
O88 Zn89 2.035 . S
Zn89 O88 2.035 . S
Zn89 O90 2.028 . S
Zn89 O92 2.028 . S
Zn89 O95 2.035 . S
O90 Zn89 2.028 . S
O90 C96 1.247 . S
O91 Zn87 2.035 . S
O91 C96 1.258 . S
O92 C85 1.247 . S
O92 Zn89 2.028 . S
O93 C85 1.258 . S
O93 Zn87 2.035 . S
O94 Zn87 2.028 . S
O94 C97 1.247 . S
O95 Zn89 2.035 . S
O95 C97 1.258 . S
C96 O90 1.247 . S
C96 O91 1.258 . S
C97 O94 1.247 . S
C97 O95 1.258 . S
C98 O100 1.247 . S
C98 O102 1.258 . S
C99 O106 1.247 . S
C99 O107 1.258 . S
O100 C98 1.247 . S
O100 Zn101 2.028 . S
Zn101 O100 2.028 . S
Zn101 O105 2.035 . S
Zn101 O107 2.035 . S
Zn101 O108 2.028 . S
O102 C98 1.258 . S
O102 Zn103 2.035 . S
Zn103 O102 2.035 . S
Zn103 O104 2.028 . S
Zn103 O106 2.028 . S
Zn103 O109 2.035 . S
O104 Zn103 2.028 . S
O104 C110 1.247 . S
O105 Zn101 2.035 . S
O105 C110 1.258 . S
O106 C99 1.247 . S
O106 Zn103 2.028 . S
O107 C99 1.258 . S
O107 Zn101 2.035 . S
O108 Zn101 2.028 . S
O108 C111 1.247 . S
O109 Zn103 2.035 . S
O109 C111 1.258 . S
C110 O104 1.247 . S
C110 O105 1.258 . S
C111 O108 1.247 . S
C111 O109 1.258 . S
C112 O114 1.247 . S
C112 O116 1.258 . S
C113 O120 1.247 . S
C113 O121 1.258 . S
O114 C112 1.247 . S
O114 Zn115 2.028 . S
Zn115 O114 2.028 . S
Zn115 O119 2.035 . S
Zn115 O121 2.035 . S
Zn115 O122 2.028 . S
O116 C112 1.258 . S
O116 Zn117 2.035 . S
Zn117 O116 2.035 . S
Zn117 O118 2.028 . S
Zn117 O120 2.028 . S
Zn117 O123 2.035 . S
O118 Zn117 2.028 . S
O118 C124 1.247 . S
O119 Zn115 2.035 . S
O119 C124 1.258 . S
O120 C113 1.247 . S
O120 Zn117 2.028 . S
O121 C113 1.258 . S
O121 Zn115 2.035 . S
O122 Zn115 2.028 . S
O122 C125 1.247 . S
O123 Zn117 2.035 . S
O123 C125 1.258 . S
C124 O118 1.247 . S
C124 O119 1.258 . S
C125 O122 1.247 . S
C125 O123 1.258 . S
C126 O128 1.247 . S
C126 O130 1.258 . S
C127 O134 1.247 . S
C127 O135 1.258 . S
O128 C126 1.247 . S
O128 Zn129 2.028 . S
Zn129 O128 2.028 . S
Zn129 O133 2.035 . S
Zn129 O135 2.035 . S
Zn129 O136 2.028 . S
O130 C126 1.258 . S
O130 Zn131 2.035 . S
Zn131 O130 2.035 . S
Zn131 O132 2.028 . S
Zn131 O134 2.028 . S
Zn131 O137 2.035 . S
O132 Zn131 2.028 . S
O132 C138 1.247 . S
O133 Zn129 2.035 . S
O133 C138 1.258 . S
O134 C127 1.247 . S
O134 Zn131 2.028 . S
O135 C127 1.258 . S
O135 Zn129 2.035 . S
O136 Zn129 2.028 . S
O136 C139 1.247 . S
O137 Zn131 2.035 . S
O137 C139 1.258 . S
C138 O132 1.247 . S
C138 O133 1.258 . S
C139 O136 1.247 . S
C139 O137 1.258 . S
C140 O142 1.247 . S
C140 O144 1.258 . S
C141 O148 1.247 . S
C141 O149 1.258 . S
O142 C140 1.247 . S
O142 Zn143 2.028 . S
Zn143 O142 2.028 . S
Zn143 O147 2.035 . S
Zn143 O149 2.035 . S
Zn143 O150 2.028 . S
O144 C140 1.258 . S
O144 Zn145 2.035 . S
Zn145 O144 2.035 . S
Zn145 O146 2.028 . S
Zn145 O148 2.028 . S
Zn145 O151 2.035 . S
O146 Zn145 2.028 . S
O146 C152 1.247 . S
O147 Zn143 2.035 . S
O147 C152 1.258 . S
O148 C141 1.247 . S
O148 Zn145 2.028 . S
O149 C141 1.258 . S
O149 Zn143 2.035 . S
O150 Zn143 2.028 . S
O150 C153 1.247 . S
O151 Zn145 2.035 . S
O151 C153 1.258 . S
C152 O146 1.247 . S
C152 O147 1.258 . S
C153 O150 1.247 . S
C153 O151 1.258 . S
C154 O156 1.247 . S
C154 O158 1.258 . S
C155 O162 1.247 . S
C155 O163 1.258 . S
O156 C154 1.247 . S
O156 Zn157 2.028 . S
Zn157 O156 2.028 . S
Zn157 O161 2.035 . S
Zn157 O163 2.035 . S
Zn157 O164 2.028 . S
O158 C154 1.258 . S
O158 Zn159 2.035 . S
Zn159 O158 2.035 . S
Zn159 O160 2.028 . S
Zn159 O162 2.028 . S
Zn159 O165 2.035 . S
O160 Zn159 2.028 . S
O160 C166 1.247 . S
O161 Zn157 2.035 . S
O161 C166 1.258 . S
O162 C155 1.247 . S
O162 Zn159 2.028 . S
O163 C155 1.258 . S
O163 Zn157 2.035 . S
O164 Zn157 2.028 . S
O164 C167 1.247 . S
O165 Zn159 2.035 . S
O165 C167 1.258 . S
C166 O160 1.247 . S
C166 O161 1.258 . S
C167 O164 1.247 . S
C167 O165 1.258 . S
H168 C174 0.930 . S
H169 C177 0.930 . S
H170 C178 0.930 . S
H171 C179 0.930 . S
H172 C182 0.930 . S
H173 C183 0.930 . S
C174 H168 0.930 . S
C174 C175 1.355 . S
C174 C176 1.415 . S
C175 C174 1.355 . S
C175 C177 1.419 . S
C176 C174 1.415 . S
C176 C181 1.425 . S
C176 C183 1.409 . S
C177 H169 0.930 . S
C177 C175 1.419 . S
C177 C178 1.362 . S
C178 H170 0.930 . S
C178 C177 1.362 . S
C178 C181 1.409 . S
C179 H171 0.930 . S
C179 C180 1.355 . S
C179 C181 1.415 . S
C180 C179 1.355 . S
C180 C182 1.419 . S
C181 C176 1.425 . S
C181 C178 1.409 . S
C181 C179 1.415 . S
C182 H172 0.930 . S
C182 C180 1.419 . S
C182 C183 1.362 . S
C183 H173 0.930 . S
C183 C176 1.409 . S
C183 C182 1.362 . S
H184 C190 0.930 . S
H185 C193 0.930 . S
H186 C194 0.930 . S
H187 C195 0.930 . S
H188 C198 0.930 . S
H189 C199 0.930 . S
C190 H184 0.930 . S
C190 C191 1.355 . S
C190 C192 1.415 . S
C191 C190 1.355 . S
C191 C193 1.419 . S
C192 C190 1.415 . S
C192 C197 1.425 . S
C192 C199 1.409 . S
C193 H185 0.930 . S
C193 C191 1.419 . S
C193 C194 1.362 . S
C194 H186 0.930 . S
C194 C193 1.362 . S
C194 C197 1.409 . S
C195 H187 0.930 . S
C195 C196 1.355 . S
C195 C197 1.415 . S
C196 C195 1.355 . S
C196 C198 1.419 . S
C197 C192 1.425 . S
C197 C194 1.409 . S
C197 C195 1.415 . S
C198 H188 0.930 . S
C198 C196 1.419 . S
C198 C199 1.362 . S
C199 H189 0.930 . S
C199 C192 1.409 . S
C199 C198 1.362 . S
H200 C206 0.930 . S
H201 C209 0.930 . S
H202 C210 0.930 . S
H203 C211 0.930 . S
H204 C214 0.930 . S
H205 C215 0.930 . S
C206 H200 0.930 . S
C206 C207 1.355 . S
C206 C208 1.415 . S
C207 C206 1.355 . S
C207 C209 1.419 . S
C208 C206 1.415 . S
C208 C213 1.425 . S
C208 C215 1.409 . S
C209 H201 0.930 . S
C209 C207 1.419 . S
C209 C210 1.362 . S
C210 H202 0.930 . S
C210 C209 1.362 . S
C210 C213 1.409 . S
C211 H203 0.930 . S
C211 C212 1.355 . S
C211 C213 1.415 . S
C212 C211 1.355 . S
C212 C214 1.419 . S
C213 C208 1.425 . S
C213 C210 1.409 . S
C213 C211 1.415 . S
C214 H204 0.930 . S
C214 C212 1.419 . S
C214 C215 1.362 . S
C215 H205 0.930 . S
C215 C208 1.409 . S
C215 C214 1.362 . S
H216 C222 0.930 . S
H217 C225 0.930 . S
H218 C226 0.930 . S
H219 C227 0.930 . S
H220 C230 0.930 . S
H221 C231 0.930 . S
C222 H216 0.930 . S
C222 C223 1.355 . S
C222 C224 1.415 . S
C223 C222 1.355 . S
C223 C225 1.419 . S
C224 C222 1.415 . S
C224 C229 1.425 . S
C224 C231 1.409 . S
C225 H217 0.930 . S
C225 C223 1.419 . S
C225 C226 1.362 . S
C226 H218 0.930 . S
C226 C225 1.362 . S
C226 C229 1.409 . S
C227 H219 0.930 . S
C227 C228 1.355 . S
C227 C229 1.415 . S
C228 C227 1.355 . S
C228 C230 1.419 . S
C229 C224 1.425 . S
C229 C226 1.409 . S
C229 C227 1.415 . S
C230 H220 0.930 . S
C230 C228 1.419 . S
C230 C231 1.362 . S
C231 H221 0.930 . S
C231 C224 1.409 . S
C231 C230 1.362 . S
H232 C238 0.930 . S
H233 C241 0.930 . S
H234 C242 0.930 . S
H235 C243 0.930 . S
H236 C246 0.930 . S
H237 C247 0.930 . S
C238 H232 0.930 . S
C238 C239 1.355 . S
C238 C240 1.415 . S
C239 C238 1.355 . S
C239 C241 1.419 . S
C240 C238 1.415 . S
C240 C245 1.425 . S
C240 C247 1.409 . S
C241 H233 0.930 . S
C241 C239 1.419 . S
C241 C242 1.362 . S
C242 H234 0.930 . S
C242 C241 1.362 . S
C242 C245 1.409 . S
C243 H235 0.930 . S
C243 C244 1.355 . S
C243 C245 1.415 . S
C244 C243 1.355 . S
C244 C246 1.419 . S
C245 C240 1.425 . S
C245 C242 1.409 . S
C245 C243 1.415 . S
C246 H236 0.930 . S
C246 C244 1.419 . S
C246 C247 1.362 . S
C247 H237 0.930 . S
C247 C240 1.409 . S
C247 C246 1.362 . S
H248 C254 0.930 . S
H249 C257 0.930 . S
H250 C258 0.930 . S
H251 C259 0.930 . S
H252 C262 0.930 . S
H253 C263 0.930 . S
C254 H248 0.930 . S
C254 C255 1.355 . S
C254 C256 1.415 . S
C255 C254 1.355 . S
C255 C257 1.419 . S
C256 C254 1.415 . S
C256 C261 1.425 . S
C256 C263 1.409 . S
C257 H249 0.930 . S
C257 C255 1.419 . S
C257 C258 1.362 . S
C258 H250 0.930 . S
C258 C257 1.362 . S
C258 C261 1.409 . S
C259 H251 0.930 . S
C259 C260 1.355 . S
C259 C261 1.415 . S
C260 C259 1.355 . S
C260 C262 1.419 . S
C261 C256 1.425 . S
C261 C258 1.409 . S
C261 C259 1.415 . S
C262 H252 0.930 . S
C262 C260 1.419 . S
C262 C263 1.362 . S
C263 H253 0.930 . S
C263 C256 1.409 . S
C263 C262 1.362 . S
H264 C270 0.930 . S
H265 C273 0.930 . S
H266 C274 0.930 . S
H267 C275 0.930 . S
H268 C278 0.930 . S
H269 C279 0.930 . S
C270 H264 0.930 . S
C270 C271 1.355 . S
C270 C272 1.415 . S
C271 C270 1.355 . S
C271 C273 1.419 . S
C272 C270 1.415 . S
C272 C277 1.425 . S
C272 C279 1.409 . S
C273 H265 0.930 . S
C273 C271 1.419 . S
C273 C274 1.362 . S
C274 H266 0.930 . S
C274 C273 1.362 . S
C274 C277 1.409 . S
C275 H267 0.930 . S
C275 C276 1.355 . S
C275 C277 1.415 . S
C276 C275 1.355 . S
C276 C278 1.419 . S
C277 C272 1.425 . S
C277 C274 1.409 . S
C277 C275 1.415 . S
C278 H268 0.930 . S
C278 C276 1.419 . S
C278 C279 1.362 . S
C279 H269 0.930 . S
C279 C272 1.409 . S
C279 C278 1.362 . S
H280 C286 0.930 . S
H281 C289 0.930 . S
H282 C290 0.930 . S
H283 C291 0.930 . S
H284 C294 0.930 . S
H285 C295 0.930 . S
C286 H280 0.930 . S
C286 C287 1.355 . S
C286 C288 1.415 . S
C287 C286 1.355 . S
C287 C289 1.419 . S
C288 C286 1.415 . S
C288 C293 1.425 . S
C288 C295 1.409 . S
C289 H281 0.930 . S
C289 C287 1.419 . S
C289 C290 1.362 . S
C290 H282 0.930 . S
C290 C289 1.362 . S
C290 C293 1.409 . S
C291 H283 0.930 . S
C291 C292 1.355 . S
C291 C293 1.415 . S
C292 C291 1.355 . S
C292 C294 1.419 . S
C293 C288 1.425 . S
C293 C290 1.409 . S
C293 C291 1.415 . S
C294 H284 0.930 . S
C294 C292 1.419 . S
C294 C295 1.362 . S
C295 H285 0.930 . S
C295 C288 1.409 . S
C295 C294 1.362 . S
H296 C302 0.930 . S
H297 C305 0.930 . S
H298 C306 0.930 . S
H299 C307 0.930 . S
H300 C310 0.930 . S
H301 C311 0.930 . S
C302 H296 0.930 . S
C302 C303 1.355 . S
C302 C304 1.415 . S
C303 C302 1.355 . S
C303 C305 1.419 . S
C304 C302 1.415 . S
C304 C309 1.425 . S
C304 C311 1.409 . S
C305 H297 0.930 . S
C305 C303 1.419 . S
C305 C306 1.362 . S
C306 H298 0.930 . S
C306 C305 1.362 . S
C306 C309 1.409 . S
C307 H299 0.930 . S
C307 C308 1.355 . S
C307 C309 1.415 . S
C308 C307 1.355 . S
C308 C310 1.419 . S
C309 C304 1.425 . S
C309 C306 1.409 . S
C309 C307 1.415 . S
C310 H300 0.930 . S
C310 C308 1.419 . S
C310 C311 1.362 . S
C311 H301 0.930 . S
C311 C304 1.409 . S
C311 C310 1.362 . S
H312 C318 0.930 . S
H313 C321 0.930 . S
H314 C322 0.930 . S
H315 C323 0.930 . S
H316 C326 0.930 . S
H317 C327 0.930 . S
C318 H312 0.930 . S
C318 C319 1.355 . S
C318 C320 1.415 . S
C319 C318 1.355 . S
C319 C321 1.419 . S
C320 C318 1.415 . S
C320 C325 1.425 . S
C320 C327 1.409 . S
C321 H313 0.930 . S
C321 C319 1.419 . S
C321 C322 1.362 . S
C322 H314 0.930 . S
C322 C321 1.362 . S
C322 C325 1.409 . S
C323 H315 0.930 . S
C323 C324 1.355 . S
C323 C325 1.415 . S
C324 C323 1.355 . S
C324 C326 1.419 . S
C325 C320 1.425 . S
C325 C322 1.409 . S
C325 C323 1.415 . S
C326 H316 0.930 . S
C326 C324 1.419 . S
C326 C327 1.362 . S
C327 H317 0.930 . S
C327 C320 1.409 . S
C327 C326 1.362 . S
H328 C334 0.930 . S
H329 C337 0.930 . S
H330 C338 0.930 . S
H331 C339 0.930 . S
H332 C342 0.930 . S
H333 C343 0.930 . S
C334 H328 0.930 . S
C334 C335 1.355 . S
C334 C336 1.415 . S
C335 C334 1.355 . S
C335 C337 1.419 . S
C336 C334 1.415 . S
C336 C341 1.425 . S
C336 C343 1.409 . S
C337 H329 0.930 . S
C337 C335 1.419 . S
C337 C338 1.362 . S
C338 H330 0.930 . S
C338 C337 1.362 . S
C338 C341 1.409 . S
C339 H331 0.930 . S
C339 C340 1.355 . S
C339 C341 1.415 . S
C340 C339 1.355 . S
C340 C342 1.419 . S
C341 C336 1.425 . S
C341 C338 1.409 . S
C341 C339 1.415 . S
C342 H332 0.930 . S
C342 C340 1.419 . S
C342 C343 1.362 . S
C343 H333 0.930 . S
C343 C336 1.409 . S
C343 C342 1.362 . S
H344 C350 0.930 . S
H345 C353 0.930 . S
H346 C354 0.930 . S
H347 C355 0.930 . S
H348 C358 0.930 . S
H349 C359 0.930 . S
C350 H344 0.930 . S
C350 C351 1.355 . S
C350 C352 1.415 . S
C351 C350 1.355 . S
C351 C353 1.419 . S
C352 C350 1.415 . S
C352 C357 1.425 . S
C352 C359 1.409 . S
C353 H345 0.930 . S
C353 C351 1.419 . S
C353 C354 1.362 . S
C354 H346 0.930 . S
C354 C353 1.362 . S
C354 C357 1.409 . S
C355 H347 0.930 . S
C355 C356 1.355 . S
C355 C357 1.415 . S
C356 C355 1.355 . S
C356 C358 1.419 . S
C357 C352 1.425 . S
C357 C354 1.409 . S
C357 C355 1.415 . S
C358 H348 0.930 . S
C358 C356 1.419 . S
C358 C359 1.362 . S
C359 H349 0.930 . S
C359 C352 1.409 . S
C359 C358 1.362 . S
H360 C366 0.930 . S
H361 C369 0.930 . S
H362 C370 0.930 . S
H363 C371 0.930 . S
H364 C374 0.930 . S
H365 C375 0.930 . S
C366 H360 0.930 . S
C366 C367 1.355 . S
C366 C368 1.415 . S
C367 C366 1.355 . S
C367 C369 1.419 . S
C368 C366 1.415 . S
C368 C373 1.425 1_655 S
C368 C375 1.409 1_655 S
C369 H361 0.930 . S
C369 C367 1.419 . S
C369 C370 1.362 . S
C370 H362 0.930 . S
C370 C369 1.362 . S
C370 C373 1.409 1_655 S
C371 H363 0.930 . S
C371 C372 1.355 . S
C371 C373 1.415 . S
C372 C371 1.355 . S
C372 C374 1.419 . S
C373 C368 1.425 1_455 S
C373 C370 1.409 1_455 S
C373 C371 1.415 . S
C374 H364 0.930 . S
C374 C372 1.419 . S
C374 C375 1.362 . S
C375 H365 0.930 . S
C375 C368 1.409 1_455 S
C375 C374 1.362 . S
H376 C382 0.930 . S
H377 C385 0.930 . S
H378 C386 0.930 . S
H379 C387 0.930 . S
H380 C390 0.930 . S
H381 C391 0.930 . S
C382 H376 0.930 . S
C382 C383 1.355 . S
C382 C384 1.415 . S
C383 C382 1.355 . S
C383 C385 1.419 . S
C384 C382 1.415 . S
C384 C389 1.425 1_565 S
C384 C391 1.409 . S
C385 H377 0.930 . S
C385 C383 1.419 . S
C385 C386 1.362 1_565 S
C386 H378 0.930 . S
C386 C385 1.362 1_545 S
C386 C389 1.409 . S
C387 H379 0.930 . S
C387 C388 1.355 . S
C387 C389 1.415 . S
C388 C387 1.355 . S
C388 C390 1.419 . S
C389 C384 1.425 1_545 S
C389 C386 1.409 . S
C389 C387 1.415 . S
C390 H380 0.930 . S
C390 C388 1.419 . S
C390 C391 1.362 1_545 S
C391 H381 0.930 . S
C391 C384 1.409 . S
C391 C390 1.362 1_565 S
H392 C398 0.930 . S
H393 C401 0.930 . S
H394 C402 0.930 . S
H395 C403 0.930 . S
H396 C406 0.930 . S
H397 C407 0.930 . S
C398 H392 0.930 . S
C398 C399 1.355 . S
C398 C400 1.415 . S
C399 C398 1.355 . S
C399 C401 1.419 . S
C400 C398 1.415 . S
C400 C405 1.425 . S
C400 C407 1.409 . S
C401 H393 0.930 . S
C401 C399 1.419 . S
C401 C402 1.362 . S
C402 H394 0.930 . S
C402 C401 1.362 . S
C402 C405 1.409 . S
C403 H395 0.930 . S
C403 C404 1.355 . S
C403 C405 1.415 . S
C404 C403 1.355 . S
C404 C406 1.419 . S
C405 C400 1.425 . S
C405 C402 1.409 . S
C405 C403 1.415 . S
C406 H396 0.930 . S
C406 C404 1.419 . S
C406 C407 1.362 . S
C407 H397 0.930 . S
C407 C400 1.409 . S
C407 C406 1.362 . S
H408 C414 0.930 . S
H409 C417 0.930 . S
H410 C418 0.930 . S
H411 C419 0.930 . S
H412 C422 0.930 . S
H413 C423 0.930 . S
C414 H408 0.930 . S
C414 C415 1.355 . S
C414 C416 1.403 1_455 S
C415 C414 1.355 . S
C415 C417 1.419 . S
C416 C414 1.403 1_655 S
C416 C421 1.411 1_655 S
C416 C423 1.428 . S
C417 H409 0.930 . S
C417 C415 1.419 . S
C417 C418 1.362 . S
C418 H410 0.930 . S
C418 C417 1.362 . S
C418 C421 1.428 . S
C419 H411 0.930 . S
C419 C420 1.355 . S
C419 C421 1.403 1_655 S
C420 C419 1.355 . S
C420 C422 1.419 . S
C421 C416 1.411 1_455 S
C421 C418 1.428 . S
C421 C419 1.403 1_455 S
C422 H412 0.930 . S
C422 C420 1.419 . S
C422 C423 1.362 . S
C423 H413 0.930 . S
C423 C416 1.428 . S
C423 C422 1.362 . S
H424 C430 0.930 1_554 S
H425 C433 0.930 . S
H426 C434 0.930 . S
H427 C435 0.930 1_556 S
H428 C438 0.930 . S
H429 C439 0.930 . S
C430 H424 0.930 1_556 S
C430 C431 1.355 . S
C430 C432 1.415 1_556 S
C431 C430 1.355 . S
C431 C433 1.419 . S
C432 C430 1.415 1_554 S
C432 C437 1.425 1_544 S
C432 C439 1.409 . S
C433 H425 0.930 . S
C433 C431 1.419 . S
C433 C434 1.362 1_545 S
C434 H426 0.930 . S
C434 C433 1.362 1_565 S
C434 C437 1.409 . S
C435 H427 0.930 1_554 S
C435 C436 1.355 . S
C435 C437 1.415 1_554 S
C436 C435 1.355 . S
C436 C438 1.419 . S
C437 C432 1.425 1_566 S
C437 C434 1.409 . S
C437 C435 1.415 1_556 S
C438 H428 0.930 . S
C438 C436 1.419 . S
C438 C439 1.362 1_565 S
C439 H429 0.930 . S
C439 C432 1.409 . S
C439 C438 1.362 1_545 S
H440 C446 0.930 . S
H441 C449 0.930 . S
H442 C450 0.930 . S
H443 C451 0.930 . S
H444 C454 0.930 . S
H445 C455 0.930 . S
C446 H440 0.930 . S
C446 C447 1.355 . S
C446 C448 1.415 . S
C447 C446 1.355 . S
C447 C449 1.419 . S
C448 C446 1.415 . S
C448 C453 1.425 . S
C448 C455 1.409 . S
C449 H441 0.930 . S
C449 C447 1.419 . S
C449 C450 1.362 . S
C450 H442 0.930 . S
C450 C449 1.362 . S
C450 C453 1.409 . S
C451 H443 0.930 . S
C451 C452 1.355 . S
C451 C453 1.415 . S
C452 C451 1.355 . S
C452 C454 1.419 . S
C453 C448 1.425 . S
C453 C450 1.409 . S
C453 C451 1.415 . S
C454 H444 0.930 . S
C454 C452 1.419 . S
C454 C455 1.362 . S
C455 H445 0.930 . S
C455 C448 1.409 . S
C455 C454 1.362 . S
H456 C462 0.930 . S
H457 C465 0.930 . S
H458 C466 0.930 . S
H459 C467 0.930 . S
H460 C470 0.930 . S
H461 C471 0.930 . S
C462 H456 0.930 . S
C462 C463 1.355 . S
C462 C464 1.415 . S
C463 C462 1.355 . S
C463 C465 1.419 . S
C464 C462 1.415 . S
C464 C469 1.425 . S
C464 C471 1.409 . S
C465 H457 0.930 . S
C465 C463 1.419 . S
C465 C466 1.362 . S
C466 H458 0.930 . S
C466 C465 1.362 . S
C466 C469 1.409 . S
C467 H459 0.930 . S
C467 C468 1.355 . S
C467 C469 1.415 . S
C468 C467 1.355 . S
C468 C470 1.419 . S
C469 C464 1.425 . S
C469 C466 1.409 . S
C469 C467 1.415 . S
C470 H460 0.930 . S
C470 C468 1.419 . S
C470 C471 1.362 . S
C471 H461 0.930 . S
C471 C464 1.409 . S
C471 C470 1.362 . S
H472 C478 0.930 . S
H473 C481 0.930 . S
H474 C482 0.930 . S
H475 C483 0.930 . S
H476 C486 0.930 . S
H477 C487 0.930 . S
C478 H472 0.930 . S
C478 C479 1.355 . S
C478 C480 1.415 . S
C479 C478 1.355 . S
C479 C481 1.419 . S
C480 C478 1.415 . S
C480 C485 1.425 . S
C480 C487 1.409 . S
C481 H473 0.930 . S
C481 C479 1.419 . S
C481 C482 1.362 . S
C482 H474 0.930 . S
C482 C481 1.362 . S
C482 C485 1.409 . S
C483 H475 0.930 . S
C483 C484 1.355 . S
C483 C485 1.415 . S
C484 C483 1.355 . S
C484 C486 1.419 . S
C485 C480 1.425 . S
C485 C482 1.409 . S
C485 C483 1.415 . S
C486 H476 0.930 . S
C486 C484 1.419 . S
C486 C487 1.362 . S
C487 H477 0.930 . S
C487 C480 1.409 . S
C487 C486 1.362 . S
H488 C494 0.930 . S
H489 C497 0.930 . S
H490 C498 0.930 . S
H491 C499 0.930 . S
H492 C502 0.930 . S
H493 C503 0.930 . S
C494 H488 0.930 . S
C494 C495 1.355 . S
C494 C496 1.415 . S
C495 C494 1.355 . S
C495 C497 1.419 . S
C496 C494 1.415 . S
C496 C501 1.425 . S
C496 C503 1.409 . S
C497 H489 0.930 . S
C497 C495 1.419 . S
C497 C498 1.362 . S
C498 H490 0.930 . S
C498 C497 1.362 . S
C498 C501 1.409 . S
C499 H491 0.930 . S
C499 C500 1.355 . S
C499 C501 1.415 . S
C500 C499 1.355 . S
C500 C502 1.419 . S
C501 C496 1.425 . S
C501 C498 1.409 . S
C501 C499 1.415 . S
C502 H492 0.930 . S
C502 C500 1.419 . S
C502 C503 1.362 . S
C503 H493 0.930 . S
C503 C496 1.409 . S
C503 C502 1.362 . S
H504 C510 0.930 . S
H505 C513 0.930 . S
H506 C514 0.930 . S
H507 C515 0.930 . S
H508 C518 0.930 . S
H509 C519 0.930 . S
C510 H504 0.930 . S
C510 C511 1.355 . S
C510 C512 1.415 . S
C511 C510 1.355 . S
C511 C513 1.419 . S
C512 C510 1.415 . S
C512 C517 1.425 . S
C512 C519 1.409 . S
C513 H505 0.930 . S
C513 C511 1.419 . S
C513 C514 1.362 . S
C514 H506 0.930 . S
C514 C513 1.362 . S
C514 C517 1.409 . S
C515 H507 0.930 . S
C515 C516 1.355 . S
C515 C517 1.415 . S
C516 C515 1.355 . S
C516 C518 1.419 . S
C517 C512 1.425 . S
C517 C514 1.409 . S
C517 C515 1.415 . S
C518 H508 0.930 . S
C518 C516 1.419 . S
C518 C519 1.362 . S
C519 H509 0.930 . S
C519 C512 1.409 . S
C519 C518 1.362 . S
H520 C526 0.930 . S
H521 C529 0.930 . S
H522 C530 0.930 . S
H523 C531 0.930 . S
H524 C534 0.930 . S
H525 C535 0.930 . S
C526 H520 0.930 . S
C526 C527 1.355 . S
C526 C528 1.415 . S
C527 C526 1.355 . S
C527 C529 1.419 . S
C528 C526 1.415 . S
C528 C533 1.425 . S
C528 C535 1.409 . S
C529 H521 0.930 . S
C529 C527 1.419 . S
C529 C530 1.362 . S
C530 H522 0.930 . S
C530 C529 1.362 . S
C530 C533 1.409 . S
C531 H523 0.930 . S
C531 C532 1.355 . S
C531 C533 1.415 . S
C532 C531 1.355 . S
C532 C534 1.419 . S
C533 C528 1.425 . S
C533 C530 1.409 . S
C533 C531 1.415 . S
C534 H524 0.930 . S
C534 C532 1.419 . S
C534 C535 1.362 . S
C535 H525 0.930 . S
C535 C528 1.409 . S
C535 C534 1.362 . S
H536 C542 0.930 . S
H537 C545 0.930 . S
H538 C546 0.930 . S
H539 C547 0.930 . S
H540 C550 0.930 . S
H541 C551 0.930 . S
C542 H536 0.930 . S
C542 C543 1.355 . S
C542 C544 1.415 . S
C543 C542 1.355 . S
C543 C545 1.419 . S
C544 C542 1.415 . S
C544 C549 1.425 . S
C544 C551 1.409 . S
C545 H537 0.930 . S
C545 C543 1.419 . S
C545 C546 1.362 . S
C546 H538 0.930 . S
C546 C545 1.362 . S
C546 C549 1.409 . S
C547 H539 0.930 . S
C547 C548 1.355 . S
C547 C549 1.415 . S
C548 C547 1.355 . S
C548 C550 1.419 . S
C549 C544 1.425 . S
C549 C546 1.409 . S
C549 C547 1.415 . S
C550 H540 0.930 . S
C550 C548 1.419 . S
C550 C551 1.362 . S
C551 H541 0.930 . S
C551 C544 1.409 . S
C551 C550 1.362 . S
C175 C0 1.509 . S
C180 C97 1.467 . S
C191 C15 1.479 . S
C196 C110 1.504 . S
C207 C125 1.475 . S
C212 C41 1.490 . S
C223 C42 1.507 . S
C228 C127 1.466 . S
C239 C57 1.466 . S
C244 C141 1.508 . S
C255 C167 1.474 . S
C260 C83 1.491 . S
C271 C113 1.552 . S
C276 C12 1.587 . S
C287 C27 1.595 . S
C292 C139 1.538 . S
C303 C153 1.583 1_556 S
C308 C29 1.555 . S
C319 C155 1.558 . S
C324 C54 1.581 1_554 S
C335 C69 1.588 . S
C340 C85 1.549 . S
C351 C71 1.539 . S
C356 C98 1.595 . S
C367 C166 1.844 . S
C372 C1 1.818 . S
C383 C96 1.844 . S
C388 C14 1.855 . S
C399 C40 1.803 . S
C404 C111 1.799 . S
C415 C124 1.800 . S
C420 C43 1.810 . S
C431 C126 1.854 . S
C436 C56 1.852 . S
C447 C140 1.809 . S
C452 C82 1.831 . S
C463 C13 1.584 . S
C468 C152 1.581 . S
C479 C154 1.581 . S
C484 C26 1.579 . S
C495 C28 1.579 . S
C500 C84 1.580 . S
C511 C55 1.611 . S
C516 C99 1.612 . S
C527 C68 1.612 1_556 S
C532 C112 1.613 . S
C543 C70 1.600 . S
C548 C138 1.605 1_554 S
