# Generated by pormake.
# Topology vby, (6)-cn, num edge types: 1
# Building blocks:
#     Node 0, Type 0, BuildingBlock: JUFBIX_clean_sbu_0, # of connection points: 6
#     Node 1, Type 0, BuildingBlock: JUFBIX_clean_sbu_0, # of connection points: 6
#     Node 2, Type 0, BuildingBlock: JUFBIX_clean_sbu_0, # of connection points: 6
#     Node 3, Type 0, BuildingBlock: JUFBIX_clean_sbu_0, # of connection points: 6
#     Node 4, Type 0, BuildingBlock: JUFBIX_clean_sbu_0, # of connection points: 6
#     Node 5, Type 0, BuildingBlock: JUFBIX_clean_sbu_0, # of connection points: 6
#     Node 6, Type 0, BuildingBlock: JUFBIX_clean_sbu_0, # of connection points: 6
#     Node 7, Type 0, BuildingBlock: JUFBIX_clean_sbu_0, # of connection points: 6
#     Edge 8, Type (0, 0), BuildingBlock: TEMPAE_clean_linker_10, # of connection points: 2
#     Edge 9, Type (0, 0), BuildingBlock: TEMPAE_clean_linker_10, # of connection points: 2
#     Edge 10, Type (0, 0), BuildingBlock: TEMPAE_clean_linker_10, # of connection points: 2
#     Edge 11, Type (0, 0), BuildingBlock: TEMPAE_clean_linker_10, # of connection points: 2
#     Edge 12, Type (0, 0), BuildingBlock: TEMPAE_clean_linker_10, # of connection points: 2
#     Edge 13, Type (0, 0), BuildingBlock: TEMPAE_clean_linker_10, # of connection points: 2
#     Edge 14, Type (0, 0), BuildingBlock: TEMPAE_clean_linker_10, # of connection points: 2
#     Edge 15, Type (0, 0), BuildingBlock: TEMPAE_clean_linker_10, # of connection points: 2
#     Edge 16, Type (0, 0), BuildingBlock: TEMPAE_clean_linker_10, # of connection points: 2
#     Edge 17, Type (0, 0), BuildingBlock: TEMPAE_clean_linker_10, # of connection points: 2
#     Edge 18, Type (0, 0), BuildingBlock: TEMPAE_clean_linker_10, # of connection points: 2
#     Edge 19, Type (0, 0), BuildingBlock: TEMPAE_clean_linker_10, # of connection points: 2
#     Edge 20, Type (0, 0), BuildingBlock: TEMPAE_clean_linker_10, # of connection points: 2
#     Edge 21, Type (0, 0), BuildingBlock: TEMPAE_clean_linker_10, # of connection points: 2
#     Edge 22, Type (0, 0), BuildingBlock: TEMPAE_clean_linker_10, # of connection points: 2
#     Edge 23, Type (0, 0), BuildingBlock: TEMPAE_clean_linker_10, # of connection points: 2
#     Edge 24, Type (0, 0), BuildingBlock: TEMPAE_clean_linker_10, # of connection points: 2
#     Edge 25, Type (0, 0), BuildingBlock: TEMPAE_clean_linker_10, # of connection points: 2
#     Edge 26, Type (0, 0), BuildingBlock: TEMPAE_clean_linker_10, # of connection points: 2
#     Edge 27, Type (0, 0), BuildingBlock: TEMPAE_clean_linker_10, # of connection points: 2
#     Edge 28, Type (0, 0), BuildingBlock: TEMPAE_clean_linker_10, # of connection points: 2
#     Edge 29, Type (0, 0), BuildingBlock: TEMPAE_clean_linker_10, # of connection points: 2
#     Edge 30, Type (0, 0), BuildingBlock: TEMPAE_clean_linker_10, # of connection points: 2
#     Edge 31, Type (0, 0), BuildingBlock: TEMPAE_clean_linker_10, # of connection points: 2
# Relax obj value: 0.151
# Max RMSD: 0.157
# Mean RMSD: 0.157
data_MOF--net-vby--node1-JUFBIX_clean_sbu_0--edge1-TEMPAE_clean_linker_10
_symmetry_space_group_name_H-M    P1
_symmetry_Int_Tables_number       1
_symmetry_cell_setting            triclinic
loop_
_symmetry_equiv_pos_as_xyz
'x, y, z'
_cell_length_a     19.668205
_cell_length_b     56.088086
_cell_length_c     29.675825
_cell_angle_alpha  90.029136
_cell_angle_beta   93.332411
_cell_angle_gamma 89.913941
loop_
_atom_site_label
_atom_site_type_symbol
_atom_site_fract_x
_atom_site_fract_y
_atom_site_fract_z
_atom_type_partial_charge
Co0 Co 0.03053 0.37058 1.00654 0.0
C1 C 0.09214 0.3741 0.92593 0.0
Co2 Co 0.13574 0.38418 0.0147 0.0
C3 C 0.88391 0.36819 0.01225 0.0
C4 C 0.92279 0.34039 0.97142 0.0
N5 N 0.94239 0.35906 0.99774 0.0
N6 N 0.82869 0.35612 0.99545 0.0
C7 C 0.85298 0.33862 0.96977 0.0
H8 H 0.88167 0.38396 0.03316 0.0
H9 H 0.957 0.32922 0.95344 0.0
C10 C 0.06631 0.38047 0.09483 0.0
N11 N 0.22422 0.39561 0.02317 0.0
C12 C 0.28273 0.38476 0.01293 0.0
C13 C 0.24408 0.4164 0.04267 0.0
N14 N 0.3381 0.39795 0.0252 0.0
C15 C 0.31399 0.41795 0.0437 0.0
C16 C 0.04232 0.4202 0.99986 0.0
O17 O 0.02082 0.37183 0.06774 0.0
O18 O 0.12248 0.38739 0.0795 0.0
O19 O 0.10471 0.41496 1.00504 0.0
O20 O 0.99788 0.40363 1.00068 0.0
O21 O 0.14513 0.381 0.94937 0.0
H22 H 0.21 0.42946 0.05596 0.0
H23 H 0.28477 0.36748 0.99677 0.0
O24 O 0.03866 0.36926 0.94551 0.0
O25 O 0.06631 0.33796 0.01209 0.0
O26 O 0.16819 0.35319 0.02424 0.0
C27 C 0.13021 0.33506 0.02055 0.0
H28 H 0.82234 0.32567 0.9507 0.0
H29 H 0.34481 0.43234 0.05807 0.0
Co30 Co 0.90274 0.63256 0.02533 0.0
C31 C 0.93309 0.64331 0.93649 0.0
Co32 Co 1.00561 0.64773 0.01886 0.0
C33 C 0.75502 0.63186 0.02228 0.0
C34 C 0.79802 0.59948 0.04934 0.0
N35 N 0.81518 0.62072 0.03191 0.0
N36 N 0.70132 0.61846 0.03302 0.0
C37 C 0.72815 0.59799 0.04978 0.0
H38 H 0.7505 0.64952 1.00775 0.0
H39 H 0.83398 0.58607 0.06177 0.0
C40 C 0.98267 0.6366 0.10736 0.0
N41 N 0.09244 0.65975 0.01189 0.0
C42 C 0.1534 0.65017 0.0254 0.0
C43 C 0.10774 0.67904 0.98732 0.0
N44 N 0.20594 0.66254 1.00963 0.0
C45 C 0.17733 0.68074 0.98572 0.0
C46 C 0.90543 0.68201 0.03253 0.0
O47 O 0.92422 0.62987 0.09077 0.0
O48 O 0.02465 0.64535 0.08109 0.0
O49 O 0.96896 0.6801 0.02624 0.0
O50 O 0.86986 0.66331 0.03348 0.0
O51 O 0.98801 0.65004 0.95679 0.0
H52 H 0.07053 0.69062 0.97024 0.0
H53 H 0.15905 0.63381 0.0446 0.0
O54 O 0.88535 0.63506 0.95951 0.0
O55 O 0.93437 0.60201 0.01699 0.0
O56 O 0.03873 0.61496 0.01109 0.0
C57 C 0.99615 0.59776 0.01079 0.0
H58 H 0.6994 0.58331 0.06274 0.0
H59 H 0.20477 0.69407 0.96769 0.0
Co60 Co 0.13395 0.63241 0.53549 0.0
C61 C 0.05494 0.63927 0.61065 0.0
Co62 Co 0.02819 0.64389 0.5182 0.0
C63 C 0.28101 0.63248 0.53579 0.0
C64 C 0.24381 0.60471 0.57719 0.0
N65 N 0.22302 0.62288 0.54995 0.0
N66 N 0.337 0.62093 0.55288 0.0
C67 C 0.31381 0.60337 0.57881 0.0
H68 H 0.28215 0.64751 0.51297 0.0
H69 H 0.21025 0.59322 0.59491 0.0
C70 C 0.10019 0.63695 0.4424 0.0
N71 N 0.93933 0.6535 0.50361 0.0
C72 C 0.88129 0.64568 0.52081 0.0
C73 C 0.91878 0.66929 0.47133 0.0
N74 N 0.82543 0.65579 0.50017 0.0
C75 C 0.84881 0.67063 0.46896 0.0
C76 C 0.12196 0.68129 0.53055 0.0
O77 O 0.14975 0.63146 0.47035 0.0
O78 O 0.0437 0.64281 0.45726 0.0
O79 O 0.059 0.67723 0.52029 0.0
O80 O 0.16173 0.66393 0.53872 0.0
O81 O 1.01109 0.64504 0.57958 0.0
H82 H 0.95253 0.67895 0.45035 0.0
H83 H 0.87994 0.63233 0.54707 0.0
O84 O 0.11458 0.63322 0.59975 0.0
O85 O 0.10774 0.60106 0.53278 0.0
O86 O 1.00084 0.61013 0.51598 0.0
C87 C 0.04709 0.59441 0.52423 0.0
H88 H 0.34529 0.59074 0.59815 0.0
H89 H 0.8175 0.68164 0.44609 0.0
Co90 Co 1.0081 0.36622 0.50792 0.0
C91 C 0.95965 0.37078 0.5934 0.0
Co92 Co 0.90367 0.3808 0.50772 0.0
C93 C 0.15482 0.36377 0.49986 0.0
C94 C 0.11525 0.3339 0.53476 0.0
N95 N 0.09601 0.3539 0.51213 0.0
N96 N 0.20978 0.35087 0.51462 0.0
C97 C 0.18499 0.33204 0.53644 0.0
H98 H 0.15762 0.38076 0.48278 0.0
H99 H 0.081 0.32203 0.55103 0.0
C100 C 0.96013 0.37624 0.42261 0.0
N101 N 0.81527 0.39305 0.50444 0.0
C102 C 0.75682 0.38182 0.51347 0.0
C103 C 0.79516 0.41478 0.48918 0.0
N104 N 0.70143 0.39561 0.50434 0.0
C105 C 0.72537 0.41644 0.48936 0.0
C106 C 1.00012 0.41592 0.51563 0.0
O107 O 1.0092 0.36708 0.44606 0.0
O108 O 0.90808 0.38397 0.44212 0.0
O109 O 0.93753 0.41109 0.51543 0.0
O110 O 0.04308 0.39907 0.51133 0.0
O111 O 0.90349 0.37777 0.57374 0.0
H112 H 0.82879 0.42836 0.47735 0.0
H113 H 0.75464 0.36373 0.52599 0.0
O114 O 1.00847 0.36532 0.56962 0.0
O115 O 0.96989 0.33394 0.50455 0.0
O116 O 0.86852 0.35018 0.49997 0.0
C117 C 0.90528 0.3317 0.50019 0.0
H118 H 0.21529 0.31827 0.55352 0.0
H119 H 0.69444 0.43143 0.47765 0.0
Co120 Co 0.52581 0.86888 0.02232 0.0
C121 C 0.59271 0.87352 0.94413 0.0
Co122 Co 0.63073 0.88234 0.03517 0.0
C123 C 0.37864 0.8685 0.02239 0.0
C124 C 0.41756 0.83746 0.9907 0.0
N125 N 0.43723 0.85794 0.01141 0.0
N126 N 0.32333 0.85538 1.00954 0.0
C127 C 0.34765 0.83578 0.98972 0.0
H128 H 0.3766 0.88536 0.04004 0.0
H129 H 0.45181 0.82461 0.97694 0.0
C130 C 0.55555 0.8779 0.11272 0.0
N131 N 0.71925 0.89312 0.04657 0.0
C132 C 0.77732 0.88432 0.03081 0.0
C133 C 0.73979 0.91036 0.07596 0.0
N134 N 0.83326 0.89518 0.04968 0.0
C135 C 0.80978 0.91161 0.07806 0.0
C136 C 0.54002 0.91873 0.01853 0.0
O137 O 0.51155 0.8702 0.08351 0.0
O138 O 0.61385 0.88419 0.09986 0.0
O139 O 0.6017 0.91337 0.02745 0.0
O140 O 0.4953 0.90219 0.0155 0.0
O141 O 0.64312 0.88064 0.96988 0.0
H142 H 0.70607 0.92093 0.09549 0.0
H143 H 0.77866 0.86953 1.00741 0.0
O144 O 0.53804 0.86747 0.9613 0.0
O145 O 0.56035 0.83606 0.02881 0.0
O146 O 0.66204 0.85114 0.04288 0.0
C147 C 0.62405 0.83305 0.03813 0.0
H148 H 0.31701 0.82147 0.97486 0.0
H149 H 0.84104 0.92352 0.09916 0.0
Co150 Co 0.39709 0.13308 1.00144 0.0
C151 C 0.46468 0.14392 0.92288 0.0
Co152 Co 0.50198 0.14668 0.01332 0.0
C153 C 0.25045 0.13021 1.00732 0.0
C154 C 0.28772 0.10644 0.95792 0.0
N155 N 0.30844 0.12233 0.98996 0.0
N156 N 0.19444 0.12012 0.98686 0.0
C157 C 0.21781 0.10508 0.95589 0.0
H158 H 0.24915 0.14398 0.03283 0.0
H159 H 0.32121 0.09706 0.93629 0.0
C160 C 0.44174 0.13578 0.09219 0.0
N161 N 0.59064 0.15759 0.02439 0.0
C162 C 0.64923 0.14738 0.01244 0.0
C163 C 0.61043 0.17744 0.04725 0.0
N164 N 0.70459 0.1601 0.02682 0.0
C165 C 0.68034 0.17909 0.04857 0.0
C166 C 0.40182 0.18222 0.01136 0.0
O167 O 0.39113 0.12871 0.06661 0.0
O168 O 0.49311 0.14467 0.07485 0.0
O169 O 0.4664 0.17942 0.01368 0.0
O170 O 0.36396 0.16412 1.00615 0.0
O171 O 0.51251 0.14884 0.95173 0.0
H172 H 0.57633 0.18978 0.06257 0.0
H173 H 0.65131 0.13099 0.99329 0.0
O174 O 0.40727 0.13727 0.93662 0.0
O175 O 0.42829 0.10225 0.9969 0.0
O176 O 0.53376 0.11337 0.01293 0.0
C177 C 0.49038 0.09688 1.00362 0.0
H178 H 0.18651 0.0942 0.93281 0.0
H179 H 0.71105 0.19287 0.0652 0.0
Co180 Co 0.63151 0.13166 0.511 0.0
C181 C 0.57849 0.14379 0.59528 0.0
Co182 Co 0.52642 0.14588 0.50889 0.0
C183 C 0.77836 0.12998 0.50393 0.0
C184 C 0.74144 0.0996 0.53842 0.0
N185 N 0.72038 0.11972 0.51674 0.0
N186 N 0.83421 0.11714 0.51685 0.0
C187 C 0.81116 0.0979 0.53825 0.0
H188 H 0.78002 0.14679 0.48615 0.0
H189 H 0.7087 0.08729 0.55486 0.0
C190 C 0.57074 0.13325 0.42454 0.0
N191 N 0.43847 0.15794 0.50217 0.0
C192 C 0.37972 0.149 0.51651 0.0
C193 C 0.41913 0.17638 0.47513 0.0
N194 N 0.32475 0.16096 0.49885 0.0
C195 C 0.34942 0.17823 0.47295 0.0
C196 C 0.62818 0.18057 0.50218 0.0
O197 O 0.62732 0.1273 0.44501 0.0
O198 O 0.52468 0.14219 0.44721 0.0
O199 O 0.56394 0.1781 0.50401 0.0
O200 O 0.66578 0.16231 0.50458 0.0
O201 O 0.52649 0.14953 0.57053 0.0
H202 H 0.45326 0.18705 0.4562 0.0
H203 H 0.37695 0.13319 0.53722 0.0
O204 O 0.63136 0.13579 0.57695 0.0
O205 O 0.59844 0.10135 0.51723 0.0
O206 O 0.49201 0.11312 0.51423 0.0
C207 C 0.53608 0.09637 0.51826 0.0
H208 H 0.84272 0.08419 0.55445 0.0
H209 H 0.31902 0.19081 0.45273 0.0
Co210 Co 0.49644 0.8685 0.52214 0.0
C211 C 0.46249 0.87556 0.61056 0.0
Co212 Co 0.39265 0.88336 0.52706 0.0
C213 C 0.64443 0.8661 0.53193 0.0
C214 C 0.60042 0.83473 0.50153 0.0
N215 N 0.58395 0.85596 0.51921 0.0
N216 N 0.69802 0.85211 0.52261 0.0
C217 C 0.67009 0.83227 0.50369 0.0
H218 H 0.64901 0.88375 0.54648 0.0
H219 H 0.56423 0.82196 0.48708 0.0
C220 C 0.43503 0.87641 0.43855 0.0
N221 N 0.30444 0.89608 0.52887 0.0
C222 C 0.24622 0.88526 0.54001 0.0
C223 C 0.2841 0.91782 0.51384 0.0
N224 N 0.19065 0.89922 0.53196 0.0
C225 C 0.21473 0.91981 0.51588 0.0
C226 C 0.48957 0.91837 0.52557 0.0
O227 O 0.48704 0.86808 0.46005 0.0
O228 O 0.38585 0.88459 0.46044 0.0
O229 O 0.42757 0.91353 0.52893 0.0
O230 O 0.53191 0.90141 0.52046 0.0
O231 O 0.40417 0.88224 0.59342 0.0
H232 H 0.31702 0.93116 0.50046 0.0
H233 H 0.24404 0.86705 0.55164 0.0
O234 O 0.50742 0.86885 0.5844 0.0
O235 O 0.4571 0.83621 0.52405 0.0
O236 O 0.35662 0.85286 0.5259 0.0
C237 C 0.39254 0.83419 0.52557 0.0
H238 H 0.69776 0.81704 0.49188 0.0
H239 H 0.18437 0.93513 0.50525 0.0
C240 C 0.43025 0.36802 0.0277 0.0
C241 C 0.40848 0.39164 0.02122 0.0
C242 C 0.49908 0.36177 0.02502 0.0
C243 C 0.54699 0.37951 0.01473 0.0
C244 C 0.52507 0.40336 1.00776 0.0
C245 C 0.45618 0.40917 0.01153 0.0
C246 C 0.52056 0.33622 0.03343 0.0
C247 C 0.57421 0.42269 0.99574 0.0
C248 C 0.73645 0.3697 0.04222 0.0
C249 C 0.7582 0.36183 1.00062 0.0
C250 C 0.66757 0.37509 0.04761 0.0
C251 C 0.61978 0.37308 1.01017 0.0
C252 C 0.64176 0.36534 0.96799 0.0
C253 C 0.71056 0.35959 0.96387 0.0
C254 C 0.64588 0.38283 0.09334 0.0
C255 C 0.5928 0.36347 0.92701 0.0
H256 H 0.39354 0.35452 0.03581 0.0
H257 H 0.43922 0.42738 1.0061 0.0
H258 H 0.5429 0.32878 1.00296 0.0
H259 H 0.56058 0.33544 0.06134 0.0
H260 H 0.47733 0.32472 0.04224 0.0
H261 H 0.54888 0.44031 0.99107 0.0
H262 H 0.6155 0.42435 0.02264 0.0
H263 H 0.59844 0.41792 0.96411 0.0
H264 H 0.77326 0.37123 0.07069 0.0
H265 H 0.72756 0.35381 0.93155 0.0
H266 H 0.60521 0.37087 0.10449 0.0
H267 H 0.62432 0.40111 0.09122 0.0
H268 H 0.68885 0.38267 0.11935 0.0
H269 H 0.55126 0.35083 0.93368 0.0
H270 H 0.6182 0.35735 0.89658 0.0
H271 H 0.56887 0.38108 0.91965 0.0
C272 C 0.30657 0.64713 0.05415 0.0
C273 C 0.27727 0.65645 0.01373 0.0
C274 C 0.37629 0.64136 0.05851 0.0
C275 C 0.41725 0.64446 0.02119 0.0
C276 C 0.38759 0.65364 0.98015 0.0
C277 C 0.3182 0.65974 0.97709 0.0
C278 C 0.4062 0.63206 0.1031 0.0
C279 C 0.42894 0.65672 0.93923 0.0
C280 C 0.61035 0.64851 0.03873 0.0
C281 C 0.63035 0.62507 0.02964 0.0
C282 C 0.54117 0.655 0.03685 0.0
C283 C 0.49083 0.63774 0.02467 0.0
C284 C 0.51092 0.6141 0.01496 0.0
C285 C 0.58035 0.60801 0.01804 0.0
C286 C 0.52197 0.68028 0.04823 0.0
C287 C 0.4591 0.5953 1.00081 0.0
H288 H 0.27506 0.64477 0.08257 0.0
H289 H 0.29544 0.66662 0.94561 0.0
H290 H 0.42683 0.61385 0.09869 0.0
H291 H 0.44926 0.64354 0.11547 0.0
H292 H 0.36807 0.63145 0.12927 0.0
H293 H 0.39805 0.66385 0.90971 0.0
H294 H 0.47204 0.66904 0.94714 0.0
H295 H 0.451 0.63933 0.92974 0.0
H296 H 0.64888 0.66165 0.04829 0.0
H297 H 0.59582 0.58995 0.01062 0.0
H298 H 0.48676 0.68027 0.07612 0.0
H299 H 0.49466 0.68876 0.01865 0.0
H300 H 0.56709 0.69134 0.05844 0.0
H301 H 0.42277 0.5928 0.02762 0.0
H302 H 0.48312 0.57784 0.99388 0.0
H303 H 0.42913 0.60117 0.96995 0.0
C304 C 0.70632 0.64994 0.47212 0.0
C305 C 0.75527 0.65108 0.5083 0.0
C306 C 0.63776 0.64517 0.4793 0.0
C307 C 0.61739 0.64197 0.52389 0.0
C308 C 0.66655 0.64342 0.56065 0.0
C309 C 0.73511 0.64768 0.55234 0.0
C310 C 0.58732 0.64322 0.43912 0.0
C311 C 0.64668 0.64059 0.60873 0.0
C312 C 0.42889 0.64997 0.54269 0.0
C313 C 0.40703 0.62627 0.54544 0.0
C314 C 0.49744 0.65538 0.53644 0.0
C315 C 0.54487 0.63661 0.53186 0.0
C316 C 0.52277 0.61264 0.53412 0.0
C317 C 0.45426 0.60778 0.54137 0.0
C318 C 0.51918 0.68117 0.53507 0.0
C319 C 0.57129 0.59212 0.52832 0.0
H320 H 0.72209 0.65228 0.43803 0.0
H321 H 0.77291 0.64881 0.58032 0.0
H322 H 0.56308 0.62536 0.43858 0.0
H323 H 0.54617 0.65659 0.44178 0.0
H324 H 0.61153 0.64597 0.40662 0.0
H325 H 0.69059 0.64307 0.63356 0.0
H326 H 0.60656 0.65374 0.61603 0.0
H327 H 0.62502 0.62259 0.61354 0.0
H328 H 0.3925 0.66426 0.54637 0.0
H329 H 0.43717 0.58946 0.54302 0.0
H330 H 0.54018 0.68522 0.50205 0.0
H331 H 0.5603 0.68451 0.56152 0.0
H332 H 0.47638 0.69363 0.54032 0.0
H333 H 0.59421 0.59349 0.49512 0.0
H334 H 0.54579 0.57453 0.53039 0.0
H335 H 0.61358 0.59289 0.55468 0.0
C336 C 0.6098 0.36575 0.49482 0.0
C337 C 0.63104 0.38891 0.5064 0.0
C338 C 0.54086 0.35927 0.49491 0.0
C339 C 0.49222 0.37628 0.50768 0.0
C340 C 0.5136 0.39961 0.51996 0.0
C341 C 0.58268 0.4057 0.51874 0.0
C342 C 0.52004 0.33431 0.48096 0.0
C343 C 0.46362 0.41809 0.53477 0.0
C344 C 0.30427 0.36758 0.47356 0.0
C345 C 0.2804 0.35723 0.51256 0.0
C346 C 0.37338 0.37354 0.47118 0.0
C347 C 0.41915 0.36955 0.50911 0.0
C348 C 0.39495 0.35938 0.54877 0.0
C349 C 0.32603 0.35315 0.54983 0.0
C350 C 0.3975 0.38395 0.42802 0.0
C351 C 0.44167 0.35534 0.59027 0.0
H352 H 0.647 0.35285 0.48463 0.0
H353 H 0.59922 0.42354 0.52805 0.0
H354 H 0.49602 0.32521 0.50913 0.0
H355 H 0.48154 0.33505 0.45213 0.0
H356 H 0.56392 0.3234 0.471 0.0
H357 H 0.48863 0.43533 0.54375 0.0
H358 H 0.42376 0.4213 0.50745 0.0
H359 H 0.4376 0.41148 0.5645 0.0
H360 H 0.26899 0.37057 0.4447 0.0
H361 H 0.30736 0.3455 0.58025 0.0
H362 H 0.43886 0.37274 0.41539 0.0
H363 H 0.41894 0.40199 0.43453 0.0
H364 H 0.35587 0.38532 0.4012 0.0
H365 H 0.4838 0.34318 0.5822 0.0
H366 H 0.41459 0.34755 0.6186 0.0
H367 H 0.46501 0.37247 0.60166 0.0
C368 C 0.92419 0.88252 1.00086 0.0
C369 C 0.90349 0.88939 0.04337 0.0
C370 C 0.99276 0.87714 0.99428 0.0
C371 C 0.04148 0.87818 0.03134 0.0
C372 C 0.02058 0.8848 0.07447 0.0
C373 C 0.95201 0.89053 0.07985 0.0
C374 C 1.01318 0.87053 0.94763 0.0
C375 C 0.07056 0.88565 0.11505 0.0
C376 C 0.20623 0.8431 0.02408 0.0
C377 C 0.25288 0.86113 0.0152 0.0
C378 C 0.13736 0.84839 0.02954 0.0
C379 C 0.1143 0.87226 0.02519 0.0
C380 C 0.16112 0.89052 0.01576 0.0
C381 C 0.22998 0.88476 0.01132 0.0
C382 C 0.08944 0.82847 0.04049 0.0
C383 C 0.13839 0.91612 1.01008 0.0
H384 H 0.88684 0.88183 0.97258 0.0
H385 H 0.93596 0.89548 0.11288 0.0
H386 H 0.05292 0.88298 0.93685 0.0
H387 H 0.03554 0.85236 0.94801 0.0
H388 H 0.96942 0.87101 0.92223 0.0
H389 H 0.04589 0.89074 0.1464 0.0
H390 H 0.09511 0.86796 0.12025 0.0
H391 H 0.11153 0.89867 0.10922 0.0
H392 H 0.224 0.82486 0.02755 0.0
H393 H 0.26579 0.89867 1.00389 0.0
H394 H 0.04729 0.8273 0.01408 0.0
H395 H 0.06622 0.83225 0.07294 0.0
H396 H 0.11552 0.8109 0.04309 0.0
H397 H 0.09723 0.91739 0.98298 0.0
H398 H 0.18072 0.92808 1.00153 0.0
H399 H 0.11714 0.92262 0.04166 0.0
C400 C 0.07619 0.12601 0.95664 0.0
C401 C 0.12424 0.12585 0.99346 0.0
C402 C 1.00772 0.13176 0.96222 0.0
C403 C 0.98644 0.13715 1.00583 0.0
C404 C 0.03465 0.1369 0.04323 0.0
C405 C 0.10315 0.13147 0.03651 0.0
C406 C 0.95828 0.13228 0.92133 0.0
C407 C 1.01377 0.14221 0.09035 0.0
C408 C 0.82252 0.17245 0.015 0.0
C409 C 0.77507 0.15432 0.02144 0.0
C410 C 0.89146 0.16713 1.0099 0.0
C411 C 0.91371 0.14311 0.0121 0.0
C412 C 0.8661 0.12474 0.01914 0.0
C413 C 0.79723 0.13056 0.02329 0.0
C414 C 0.9403 0.18719 1.00156 0.0
C415 C 0.88796 0.09896 0.02243 0.0
H416 H 0.0925 0.12208 0.9232 0.0
H417 H 0.14012 0.13119 0.06503 0.0
H418 H 0.91671 0.11927 0.92553 0.0
H419 H 0.93448 0.15018 0.91784 0.0
H420 H 0.98321 0.12801 0.88966 0.0
H421 H 0.05718 0.14087 0.11591 0.0
H422 H 0.99198 0.16042 0.09174 0.0
H423 H 0.97346 0.12958 0.09957 0.0
H424 H 0.80533 0.1908 0.01314 0.0
H425 H 0.7608 0.11656 0.02889 0.0
H426 H 0.96385 0.18436 0.96889 0.0
H427 H 0.98214 0.18738 0.02828 0.0
H428 H 0.91488 0.2049 1.00081 0.0
H429 H 0.90947 0.09327 0.9904 0.0
H430 H 0.84509 0.0869 0.02951 0.0
H431 H 0.92869 0.09681 0.0496 0.0
C432 C 0.2298 0.14725 0.54289 0.0
C433 C 0.25427 0.15474 0.50186 0.0
C434 C 0.16074 0.14149 0.54613 0.0
C435 C 0.11575 0.14272 0.50711 0.0
C436 C 0.1406 0.14997 0.46547 0.0
C437 C 0.20942 0.15611 0.46348 0.0
C438 C 0.13582 0.13425 0.59129 0.0
C439 C 0.09469 0.15099 0.4229 0.0
C440 C 0.95322 0.10618 0.50553 0.0
C441 C 0.90431 0.12369 0.51303 0.0
C442 C 0.02218 0.11215 0.50324 0.0
C443 C 0.04281 0.13616 0.50955 0.0
C444 C 0.99357 0.15392 0.51733 0.0
C445 C 0.92475 0.14749 0.51854 0.0
C446 C 0.07288 0.09279 0.49379 0.0
C447 C 1.01365 0.17966 0.52492 0.0
H448 H 0.26455 0.14636 0.57254 0.0
H449 H 0.22865 0.16154 0.43159 0.0
H450 H 0.09393 0.14626 0.60053 0.0
H451 H 0.11486 0.11591 0.58927 0.0
H452 H 0.17691 0.13483 0.61859 0.0
H453 H 0.12229 0.15668 0.39312 0.0
H454 H 0.07189 0.1332 0.41583 0.0
H455 H 0.05214 0.16362 0.42737 0.0
H456 H 0.9372 0.08782 0.50096 0.0
H457 H 0.88705 0.16098 0.52502 0.0
H458 H 0.11206 0.09152 0.52212 0.0
H459 H 0.09967 0.09726 0.463 0.0
H460 H 0.04834 0.07508 0.48892 0.0
H461 H 0.05124 0.18101 0.55417 0.0
H462 H 0.96927 0.1912 0.53131 0.0
H463 H 0.03852 0.18662 0.49503 0.0
C464 C 0.81723 0.8464 0.50196 0.0
C465 C 0.76982 0.8578 0.52838 0.0
C466 C 0.88661 0.8524 0.50564 0.0
C467 C 0.90957 0.87041 0.53624 0.0
C468 C 0.86252 0.88167 0.56374 0.0
C469 C 0.79335 0.8752 0.55957 0.0
C470 C 0.93504 0.83993 0.47568 0.0
C471 C 0.885 0.90096 0.59679 0.0
C472 C 0.10088 0.87461 0.56438 0.0
C473 C 0.11995 0.89257 0.5347 0.0
C474 C 0.03249 0.86746 0.56593 0.0
C475 C 0.98187 0.87852 0.53709 0.0
C476 C 1.00066 0.89682 0.50747 0.0
C477 C 0.06922 0.90358 0.50661 0.0
C478 C 1.01453 0.84786 0.59795 0.0
C479 C 0.94846 0.90896 0.47588 0.0
H480 H 0.80005 0.83319 0.47731 0.0
H481 H 0.75772 0.88386 0.58073 0.0
H482 H 0.9555 0.85293 0.45179 0.0
H483 H 0.979 0.83252 0.49625 0.0
H484 H 0.91009 0.8252 0.45591 0.0
H485 H 0.84303 0.90701 0.61756 0.0
H486 H 0.92773 0.89447 0.61961 0.0
H487 H 0.90396 0.91654 0.57822 0.0
H488 H 0.13941 0.86615 0.58652 0.0
H489 H 0.0832 0.91713 0.48292 0.0
H490 H 0.99262 0.83249 0.57859 0.0
H491 H 0.97514 0.85421 0.62042 0.0
H492 H 0.05945 0.84156 0.61912 0.0
H493 H 0.92493 0.89571 0.45199 0.0
H494 H 0.97094 0.92346 0.45608 0.0
H495 H 0.90705 0.91659 0.49526 0.0
C496 C 0.97301 0.56063 0.96831 0.0
C497 C 1.01396 0.57285 1.00096 0.0
C498 C 0.97539 0.53573 0.96468 0.0
C499 C 0.01919 0.52261 0.99494 0.0
C500 C 0.06285 0.53494 0.02686 0.0
C501 C 0.05987 0.56003 0.02942 0.0
C502 C 0.929 0.52345 0.9296 0.0
C503 C 0.11044 0.52157 0.05961 0.0
C504 C 0.9778 0.45731 0.01814 0.0
C505 C 0.02546 0.44564 0.99272 0.0
C506 C 0.97439 0.48244 0.01875 0.0
C507 C 0.01926 0.49599 0.99301 0.0
C508 C 0.06476 0.48409 0.96547 0.0
C509 C 0.0675 0.45913 0.96588 0.0
C510 C 0.92498 0.49452 0.04843 0.0
C511 C 0.11248 0.49771 0.93683 0.0
H512 H 0.93686 0.57061 0.94665 0.0
H513 H 0.09028 0.56945 0.05533 0.0
H514 H 0.95876 0.51124 0.90885 0.0
H515 H 0.89117 0.51245 0.94651 0.0
H516 H 0.90119 0.53633 0.90682 0.0
H517 H 0.14266 0.53374 0.08126 0.0
H518 H 0.08047 0.51014 0.08163 0.0
H519 H 0.1441 0.50964 0.04103 0.0
H520 H 0.94619 0.44691 0.0395 0.0
H521 H 0.10461 0.45008 0.94627 0.0
H522 H 0.89231 0.5072 0.02829 0.0
H523 H 0.95355 0.50499 0.075 0.0
H524 H 0.89182 0.48154 0.06495 0.0
H525 H 0.08347 0.51058 0.91477 0.0
H526 H 0.1419 0.48575 0.91529 0.0
H527 H 0.14892 0.50815 0.95888 0.0
C528 C 0.98094 0.45494 0.55071 0.0
C529 C 0.01862 0.44125 0.52137 0.0
C530 C 0.98378 0.47985 0.55062 0.0
C531 C 0.02548 0.49154 0.52037 0.0
C532 C 0.06584 0.47783 0.49173 0.0
C533 C 0.06201 0.45271 0.49259 0.0
C534 C 0.94083 0.49365 0.58228 0.0
C535 C 0.11142 0.48973 0.45935 0.0
C536 C 0.98581 0.55724 0.49608 0.0
C537 C 0.03441 0.56841 0.52521 0.0
C538 C 0.98274 0.53212 0.49351 0.0
C539 C 0.0291 0.51808 0.52084 0.0
C540 C 0.07686 0.52942 0.55103 0.0
C541 C 0.0787 0.55431 0.5529 0.0
C542 C 0.93071 0.52056 0.46118 0.0
C543 C 0.12645 0.51527 0.58133 0.0
H544 H 0.94705 0.44605 0.57286 0.0
H545 H 0.09002 0.44216 0.46927 0.0
H546 H 0.97372 0.50524 0.6046 0.0
H547 H 0.9048 0.50544 0.56262 0.0
H548 H 0.91115 0.48178 0.60375 0.0
H549 H 0.14015 0.47661 0.43979 0.0
H550 H 0.08038 0.50106 0.43539 0.0
H551 H 0.14827 0.50159 0.47807 0.0
H552 H 0.95205 0.56806 0.47432 0.0
H553 H 0.11606 0.56283 0.57588 0.0
H554 H 0.89689 0.50883 0.47998 0.0
H555 H 0.95674 0.50914 0.43695 0.0
H556 H 0.89887 0.53389 0.44195 0.0
H557 H 0.09823 0.50379 0.60426 0.0
H558 H 0.16154 0.52688 0.60216 0.0
H559 H 0.1573 0.50334 0.56074 0.0
C560 C 0.57047 0.95715 0.98478 0.0
C561 C 0.52473 0.94413 1.00972 0.0
C562 C 0.56738 0.98206 0.98224 0.0
C563 C 0.51764 0.99443 1.00563 0.0
C564 C 0.46964 0.98134 0.02971 0.0
C565 C 0.47352 0.95622 0.03129 0.0
C566 C 0.61856 0.99514 0.95538 0.0
C567 C 0.41573 0.99394 0.05498 0.0
C568 C 0.55037 0.06012 0.03376 0.0
C569 C 0.50808 0.07134 1.00065 0.0
C570 C 0.55418 0.03501 0.03586 0.0
C571 C 0.51529 0.02102 1.00385 0.0
C572 C 0.47507 0.03245 0.96922 0.0
C573 C 0.47177 0.05739 0.96821 0.0
C574 C 0.59783 0.02344 0.07322 0.0
C575 C 0.43396 0.01834 0.93386 0.0
H576 H 0.61024 0.94776 0.96811 0.0
H577 H 0.43895 0.94619 0.05118 0.0
H578 H 0.5919 1.00676 0.92976 0.0
H579 H 0.65047 1.00685 0.97809 0.0
H580 H 0.65254 0.98279 0.9379 0.0
H581 H 0.38156 0.98126 0.07138 0.0
H582 H 0.44031 1.00564 0.08131 0.0
H583 H 0.38444 1.00553 0.03164 0.0
H584 H 0.57741 0.07087 0.05933 0.0
H585 H 0.43882 0.06608 0.9426 0.0
H586 H 0.63523 0.0112 0.05878 0.0
H587 H 0.56543 0.01256 0.09463 0.0
H588 H 0.62586 0.03675 0.09491 0.0
H589 H 0.46765 1.00603 0.91616 0.0
H590 H 0.40689 0.02999 0.90839 0.0
H591 H 0.39576 1.00726 0.95023 0.0
C592 C 0.5636 0.05788 0.55466 0.0
C593 C 0.51952 0.07104 0.52522 0.0
C594 C 0.56253 0.03295 0.55515 0.0
C595 C 0.5154 0.0207 0.52585 0.0
C596 C 0.46826 0.03388 0.4975 0.0
C597 C 0.47098 0.05903 0.4974 0.0
C598 C 0.61322 0.01975 0.58622 0.0
C599 C 0.4164 0.02137 0.46643 0.0
C600 C 0.55018 0.95509 0.49996 0.0
C601 C 0.50801 0.94382 0.52976 0.0
C602 C 0.55355 0.98023 0.49831 0.0
C603 C 0.5136 0.99413 0.52695 0.0
C604 C 0.47329 0.98264 0.55823 0.0
C605 C 0.47141 0.95775 0.5594 0.0
C606 C 0.5981 0.99194 0.46509 0.0
C607 C 0.43036 0.99663 0.58964 0.0
H608 H 0.60113 0.06719 0.57631 0.0
H609 H 0.43774 0.06916 0.4741 0.0
H610 H 0.58609 0.0082 0.6096 0.0
H611 H 0.64533 0.00796 0.56619 0.0
H612 H 0.64704 0.03201 0.60657 0.0
H613 H 0.38239 0.03411 0.44732 0.0
H614 H 0.44277 0.01015 0.44205 0.0
H615 H 0.38473 0.00932 0.48615 0.0
H616 H 0.5776 0.94439 0.47657 0.0
H617 H 0.43872 0.94904 0.58257 0.0
H618 H 0.63416 1.00442 0.48297 0.0
H619 H 0.56614 1.0026 0.4405 0.0
H620 H 0.62765 0.97873 0.44629 0.0
H621 H 0.46302 0.00871 0.61107 0.0
H622 H 0.40176 0.9849 0.612 0.0
H623 H 0.39334 0.00793 0.5697 0.0
C624 C 0.14584 0.29304 0.99331 0.0
C625 C 0.16336 0.31131 0.02399 0.0
C626 C 0.18634 0.27229 0.99134 0.0
C627 C 0.24469 0.26957 0.02147 0.0
C628 C 0.26067 0.28762 0.05369 0.0
C629 C 0.22048 0.30833 0.05411 0.0
C630 C 0.16809 0.25366 0.95601 0.0
C631 C 0.32088 0.28526 0.08738 0.0
C632 C 0.31032 0.20648 0.04279 0.0
C633 C 0.36809 0.20559 0.01719 0.0
C634 C 0.27078 0.22723 0.04512 0.0
C635 C 0.28813 0.24762 0.02023 0.0
C636 C 0.34717 0.24701 0.99476 0.0
C637 C 0.38704 0.22604 0.99397 0.0
C638 C 0.20994 0.22721 0.07394 0.0
C639 C 0.36691 0.26825 0.96723 0.0
H640 H 0.10266 0.2955 0.96936 0.0
H641 H 0.23445 0.3225 0.07773 0.0
H642 H 0.21118 0.25119 0.9339 0.0
H643 H 0.15911 0.23626 0.97235 0.0
H644 H 0.12187 0.25854 0.93469 0.0
H645 H 0.32391 0.30022 0.11197 0.0
H646 H 0.31771 0.26826 0.10626 0.0
H647 H 0.36879 0.28481 0.06946 0.0
H648 H 0.29558 0.19067 0.06087 0.0
H649 H 0.43103 0.22529 0.97364 0.0
H650 H 0.16254 0.2299 0.05242 0.0
H651 H 0.21377 0.2422 0.09839 0.0
H652 H 0.20532 0.21029 0.09295 0.0
H653 H 0.32456 0.27289 0.94241 0.0
H654 H 0.41353 0.26487 0.94878 0.0
H655 H 0.3759 0.28397 0.98943 0.0
C656 C 0.64205 0.79122 1.01022 0.0
C657 C 0.65726 0.80929 0.0418 0.0
C658 C 0.68354 0.77067 1.00858 0.0
C659 C 0.74069 0.768 0.03977 0.0
C660 C 0.75419 0.78582 0.07285 0.0
C661 C 0.71294 0.80627 0.07309 0.0
C662 C 0.66764 0.75221 0.97252 0.0
C663 C 0.81306 0.78352 0.1076 0.0
C664 C 0.81058 0.70553 0.06234 0.0
C665 C 0.86961 0.70515 0.03778 0.0
C666 C 0.76876 0.72579 0.0634 0.0
C667 C 0.7855 0.74635 0.03883 0.0
C668 C 0.84577 0.74632 0.01455 0.0
C669 C 0.88749 0.72576 0.01459 0.0
C670 C 0.7062 0.72506 0.0906 0.0
C671 C 0.86511 0.7678 0.98754 0.0
H672 H 0.60001 0.7937 0.98539 0.0
H673 H 0.72514 0.82028 0.09743 0.0
H674 H 0.71163 0.7503 0.951 0.0
H675 H 0.65934 0.73458 0.98821 0.0
H676 H 0.62175 0.75689 0.95072 0.0
H677 H 0.815 0.79848 0.13218 0.0
H678 H 0.80913 0.76653 0.1264 0.0
H679 H 0.86181 0.78306 0.0906 0.0
H680 H 0.79635 0.68968 0.08043 0.0
H681 H 0.93231 0.72547 0.995 0.0
H682 H 0.65986 0.72825 0.0683 0.0
H683 H 0.70879 0.73946 0.11629 0.0
H684 H 0.70049 0.70771 0.10803 0.0
H685 H 0.82356 0.77205 0.96188 0.0
H686 H 0.91297 0.76494 0.97015 0.0
H687 H 0.87168 0.78357 1.00994 0.0
C688 C 0.20519 0.7099 0.56531 0.0
C689 C 0.15244 0.70542 0.5325 0.0
C690 C 0.24509 0.73055 0.56406 0.0
C691 C 0.23293 0.74715 0.52862 0.0
C692 C 0.17866 0.74303 0.49581 0.0
C693 C 0.13861 0.72223 0.49831 0.0
C694 C 0.30106 0.73439 0.60039 0.0
C695 C 0.16431 0.76023 0.45736 0.0
C696 C 0.29496 0.81043 0.5501 0.0
C697 C 0.35656 0.81101 0.52836 0.0
C698 C 0.2543 0.78995 0.54997 0.0
C699 C 0.27533 0.76925 0.52742 0.0
C700 C 0.33813 0.76945 0.50596 0.0
C701 C 0.37835 0.79034 0.50689 0.0
C702 C 0.1888 0.79052 0.5742 0.0
C703 C 0.36223 0.74771 0.48149 0.0
H704 H 0.21632 0.69683 0.59166 0.0
H705 H 0.09894 0.71856 0.47234 0.0
H706 H 0.35115 0.73504 0.58509 0.0
H707 H 0.29379 0.75175 0.61742 0.0
H708 H 0.30268 0.72008 0.62629 0.0
H709 H 0.1207 0.75446 0.43449 0.0
H710 H 0.15305 0.77819 0.47072 0.0
H711 H 0.21009 0.76193 0.43743 0.0
H712 H 0.27816 0.82621 0.56738 0.0
H713 H 0.4255 0.79073 0.48973 0.0
H714 H 0.1907 0.77692 0.60139 0.0
H715 H 0.14507 0.78602 0.55045 0.0
H716 H 0.17908 0.80822 0.58939 0.0
H717 H 0.36946 0.73261 0.50542 0.0
H718 H 0.41093 0.75092 0.46532 0.0
H719 H 0.32302 0.74221 0.45514 0.0
C720 C 0.89126 0.28867 0.52193 0.0
C721 C 0.87028 0.30838 0.4957 0.0
C722 C 0.85047 0.268 0.52277 0.0
C723 C 0.78825 0.26692 0.49597 0.0
C724 C 0.7686 0.28649 0.46811 0.0
C725 C 0.80933 0.307 0.46875 0.0
C726 C 0.87269 0.24765 0.55348 0.0
C727 C 0.70402 0.28594 0.43795 0.0
C728 C 0.71535 0.20555 0.46807 0.0
C729 C 0.66163 0.20393 0.49701 0.0
C730 C 0.75596 0.22605 0.46684 0.0
C731 C 0.74402 0.24526 0.4963 0.0
C732 C 0.6891 0.24387 0.52527 0.0
C733 C 0.64789 0.22328 0.52487 0.0
C734 C 0.81226 0.22699 0.43436 0.0
C735 C 0.67541 0.26378 0.55775 0.0
H736 H 0.93769 0.28984 0.54335 0.0
H737 H 0.7929 0.32225 0.44843 0.0
H738 H 0.83333 0.24432 0.57805 0.0
H739 H 0.87781 0.23106 0.53359 0.0
H740 H 0.92201 0.25128 0.57237 0.0
H741 H 0.69776 0.30218 0.4167 0.0
H742 H 0.70407 0.27009 0.41554 0.0
H743 H 0.65916 0.28438 0.45873 0.0
H744 H 0.72623 0.1905 0.44666 0.0
H745 H 0.6073 0.22183 0.54791 0.0
H746 H 0.8624 0.22795 0.45339 0.0
H747 H 0.80702 0.24327 0.4132 0.0
H748 H 0.81216 0.21117 0.41183 0.0
H749 H 0.72127 0.26687 0.58058 0.0
H750 H 0.63161 0.25983 0.57854 0.0
H751 H 0.66474 0.2806 0.539 0.0
C752 C 0.09421 0.39386 0.17529 0.0
C753 C 0.05061 0.38245 0.14308 0.0
C754 C 0.07712 0.39542 0.22074 0.0
C755 C 0.01541 0.38519 0.23409 0.0
C756 C 0.9708 0.37415 0.20146 0.0
C757 C 0.98882 0.37296 0.15663 0.0
C758 C 0.12572 0.40748 0.25469 0.0
C759 C 0.90503 0.3627 0.21412 0.0
C760 C 1.00738 0.36099 0.35271 0.0
C761 C 0.9673 0.37805 0.37343 0.0
C762 C 0.02397 0.36337 0.30774 0.0
C763 C 1.00045 0.38347 0.28264 0.0
C764 C 0.95914 0.40069 0.30309 0.0
C765 C 0.94256 0.39769 0.34835 0.0
C766 C 0.06667 0.34426 0.28711 0.0
C767 C 0.9334 0.42239 0.27734 0.0
H768 H 0.14158 0.40145 0.1651 0.0
H769 H 0.95427 0.36417 0.13218 0.0
H770 H 0.09816 0.42079 0.27449 0.0
H771 H 0.14775 0.39407 0.27885 0.0
H772 H 0.16804 0.41655 0.23839 0.0
H773 H 0.8736 0.3564 0.18415 0.0
H774 H 0.91652 0.34722 0.23657 0.0
H775 H 0.87439 0.37547 0.23306 0.0
H776 H 0.02655 0.34574 0.37201 0.0
H777 H 0.91254 0.41109 0.36454 0.0
H778 H 0.11351 0.35222 0.27447 0.0
H779 H 0.03787 0.33608 0.2578 0.0
H780 H 0.08175 0.32993 0.31153 0.0
H781 H 0.977 0.43255 0.26504 0.0
H782 H 0.90316 0.43438 0.2983 0.0
H783 H 0.90116 0.41687 0.24723 0.0
C784 C 0.95952 0.62707 0.18872 0.0
C785 C 1.00439 0.63429 0.15631 0.0
C786 C 0.98103 0.62593 0.23498 0.0
C787 C 0.04902 0.63209 0.24923 0.0
C788 C 0.09484 0.63868 0.21645 0.0
C789 C 0.07211 0.63972 0.17073 0.0
C790 C 0.93048 0.61875 0.2688 0.0
C791 C 0.16759 0.64543 0.22977 0.0
C792 C 0.07764 0.65658 0.36855 0.0
C793 C 0.10397 0.63681 0.3927 0.0
C794 C 0.06134 0.65539 0.32191 0.0
C795 C 0.0707 0.63373 0.2985 0.0
C796 C 0.1002 0.61394 0.32233 0.0
C797 C 0.11657 0.61571 0.36926 0.0
C798 C 0.03115 0.67708 0.29811 0.0
C799 C 0.11121 0.59054 0.29875 0.0
H800 H 0.90737 0.62271 0.17808 0.0
H801 H 0.10782 0.6451 0.14619 0.0
H802 H 0.95166 0.60408 0.29044 0.0
H803 H 0.92072 0.63405 0.29125 0.0
H804 H 0.88121 0.61285 0.25229 0.0
H805 H 0.19829 0.64838 0.20001 0.0
H806 H 0.16831 0.66203 0.25014 0.0
H807 H 0.19235 0.63129 0.25109 0.0
H808 H 0.06668 0.67278 0.38677 0.0
H809 H 0.13497 0.60018 0.38802 0.0
H810 H 0.97832 0.67317 0.28509 0.0
H811 H 0.06088 0.68168 0.26869 0.0
H812 H 0.03003 0.69286 0.32071 0.0
H813 H 0.06121 0.58274 0.28763 0.0
H814 H 0.1394 0.5775 0.32097 0.0
H815 H 0.13985 0.59339 0.26808 0.0
C816 C 0.96023 0.66308 0.86509 0.0
C817 C 0.93096 0.64362 0.88645 0.0
C818 C 0.9772 0.66192 0.81981 0.0
C819 C 0.96562 0.64058 0.79502 0.0
C820 C 0.93321 0.62116 0.81578 0.0
C821 C 0.91603 0.62294 0.86128 0.0
C822 C 1.01041 0.68323 0.79916 0.0
C823 C 0.9199 0.59809 0.79068 0.0
C824 C 0.96685 0.64608 0.66705 0.0
C825 C 0.03366 0.63913 0.65824 0.0
C826 C 0.94371 0.64599 0.71096 0.0
C827 C 0.98815 0.6388 0.74763 0.0
C828 C 0.05543 0.63146 0.73912 0.0
C829 C 0.07741 0.63172 0.69458 0.0
C830 C 0.87185 0.65409 0.71816 0.0
C831 C 0.10449 0.6236 0.77721 0.0
H832 H 0.9728 0.67899 0.88465 0.0
H833 H 0.89524 0.60761 0.87796 0.0
H834 H 0.06306 0.67859 0.7908 0.0
H835 H 0.9821 0.68838 0.76721 0.0
H836 H 1.01264 0.69889 0.82215 0.0
H837 H 0.8905 0.58526 0.81036 0.0
H838 H 0.8915 0.60155 0.75794 0.0
H839 H 0.96909 0.58971 0.7831 0.0
H840 H 0.93207 0.65176 0.63945 0.0
H841 H 0.1288 0.62616 0.68828 0.0
H842 H 0.8731 0.67055 0.73895 0.0
H843 H 0.84457 0.64032 0.7369 0.0
H844 H 0.8423 0.6578 0.68586 0.0
H845 H 0.11486 0.63867 0.80084 0.0
H846 H 0.15365 0.61723 0.76496 0.0
H847 H 0.08158 0.60907 0.79664 0.0
C848 C 0.03293 0.35786 0.65968 0.0
C849 C 0.9741 0.37009 0.64309 0.0
C850 C 0.05673 0.35945 0.70485 0.0
C851 C 0.01997 0.37307 0.73517 0.0
C852 C 0.95915 0.38487 0.71935 0.0
C853 C 0.93702 0.38338 0.67325 0.0
C854 C 0.12166 0.34654 0.72 0.0
C855 C 0.91784 0.39913 0.7511 0.0
C856 C 0.04461 0.35409 0.85741 0.0
C857 C 0.0873 0.37198 0.87625 0.0
C858 C 0.02164 0.35456 0.81195 0.0
C859 C 0.04296 0.37314 0.78396 0.0
C860 C 0.08913 0.39063 0.80206 0.0
C861 C 0.11059 0.38994 0.84829 0.0
C862 C 0.97286 0.33547 0.79427 0.0
C863 C 0.11424 0.41039 0.77287 0.0
H864 H 0.06195 0.34732 0.6369 0.0
H865 H 0.89203 0.39303 0.66072 0.0
H866 H 0.15834 0.35919 0.7368 0.0
H867 H 0.11061 0.33262 0.74505 0.0
H868 H 0.14646 0.33791 0.69151 0.0
H869 H 0.87212 0.40735 0.73365 0.0
H870 H 0.90118 0.38747 0.77856 0.0
H871 H 0.94972 0.41345 0.76714 0.0
H872 H 0.02632 0.34019 0.87904 0.0
H873 H 0.1424 0.40404 0.86294 0.0
H874 H 0.99553 0.32537 0.76671 0.0
H875 H 0.9252 0.3438 0.77989 0.0
H876 H 0.95963 0.32267 0.82094 0.0
H877 H 0.13861 0.40275 0.74329 0.0
H878 H 0.15147 0.42215 0.79159 0.0
H879 H 0.07054 0.42138 0.75971 0.0
C880 C 0.46958 0.87273 0.17068 0.0
C881 C 0.53564 0.87975 0.16037 0.0
C882 C 0.44773 0.87387 0.21475 0.0
C883 C 0.49274 0.88225 0.25006 0.0
C884 C 0.55902 0.88993 0.24 0.0
C885 C 0.57976 0.88858 0.19525 0.0
C886 C 0.37695 0.86531 0.2237 0.0
C887 C 0.60851 0.89905 0.27673 0.0
C888 C 0.42007 0.89753 0.36374 0.0
C889 C 0.43668 0.87692 0.38872 0.0
C890 C 0.43779 0.89962 0.31843 0.0
C891 C 0.47245 0.88062 0.29782 0.0
C892 C 0.48642 0.85944 0.32256 0.0
C893 C 0.46861 0.85792 0.36751 0.0
C894 C 0.42179 0.92246 0.29315 0.0
C895 C 0.52204 0.83855 0.30198 0.0
H896 H 0.43446 0.86601 0.14418 0.0
H897 H 0.63053 0.89423 0.1877 0.0
H898 H 0.3804 0.84909 0.24513 0.0
H899 H 0.34943 0.87906 0.24244 0.0
H900 H 0.34637 0.86098 0.19211 0.0
H901 H 0.65588 0.90612 0.26309 0.0
H902 H 0.58443 0.91336 0.29618 0.0
H903 H 0.62236 0.88442 0.30069 0.0
H904 H 0.39682 0.91245 0.3803 0.0
H905 H 0.48197 0.84201 0.38685 0.0
H906 H 0.39255 0.91859 0.26089 0.0
H907 H 0.46991 0.93122 0.2846 0.0
H908 H 0.39206 0.93512 0.31308 0.0
H909 H 0.49294 0.83252 0.27092 0.0
H910 H 0.5281 0.82321 0.32555 0.0
H911 H 0.57324 0.84405 0.29209 0.0
C912 C 0.44303 0.11113 0.16252 0.0
C913 C 0.4456 0.13351 0.14178 0.0
C914 C 0.46553 0.10819 0.20822 0.0
C915 C 0.49067 0.12813 0.23353 0.0
C916 C 0.49092 0.15087 0.21285 0.0
C917 C 0.46888 0.15321 0.1673 0.0
C918 C 0.46456 0.08367 0.22902 0.0
C919 C 0.51564 0.17274 0.2386 0.0
C920 C 0.48396 0.13112 0.36043 0.0
C921 C 0.55303 0.12926 0.37559 0.0
C922 C 0.46305 0.12963 0.3147 0.0
C923 C 0.51206 0.12594 0.28253 0.0
C924 C 0.58159 0.12279 0.29739 0.0
C925 C 0.60141 0.1245 0.34391 0.0
C926 C 0.38858 0.13329 0.30074 0.0
C927 C 0.63521 0.11851 0.264 0.0
H928 H 0.42723 0.09576 0.14239 0.0
H929 H 0.47217 0.17043 0.15094 0.0
H930 H 0.51721 0.07823 0.24001 0.0
H931 H 0.4345 0.08388 0.2595 0.0
H932 H 0.44261 0.07008 0.20513 0.0
H933 H 0.51274 0.1891 0.21748 0.0
H934 H 0.4847 0.17558 0.26825 0.0
H935 H 0.56921 0.17016 0.25151 0.0
H936 H 0.44543 0.13431 0.38442 0.0
H937 H 0.6546 0.12282 0.35521 0.0
H938 H 0.36971 0.11865 0.27826 0.0
H939 H 0.38218 0.15018 0.28147 0.0
H940 H 0.35618 0.13418 0.33015 0.0
H941 H 0.61899 0.10404 0.24026 0.0
H942 H 0.68522 0.1137 0.28092 0.0
H943 H 0.64174 0.13486 0.24368 0.0
C944 C 0.53786 0.1571 0.86179 0.0
C945 C 0.47944 0.14492 0.87435 0.0
C946 C 0.55793 0.15678 0.81723 0.0
C947 C 0.51891 0.14389 0.78398 0.0
C948 C 0.45944 0.13171 0.79617 0.0
C949 C 0.4402 0.13244 0.84123 0.0
C950 C 0.62096 0.17034 0.80575 0.0
C951 C 0.41648 0.11777 0.76163 0.0
C952 C 0.52946 0.1627 0.66167 0.0
C953 C 0.57299 0.14541 0.64477 0.0
C954 C 0.51218 0.16249 0.70682 0.0
C955 C 0.53853 0.14439 0.73607 0.0
C956 C 0.58433 0.12727 0.71968 0.0
C957 C 0.60137 0.12805 0.67414 0.0
C958 C 0.46434 0.18137 0.72289 0.0
C959 C 0.61352 0.1077 0.74986 0.0
H960 H 0.56857 0.16687 0.88705 0.0
H961 H 0.39552 0.12278 0.85072 0.0
H962 H 0.65789 0.15809 0.79085 0.0
H963 H 0.60738 0.18419 0.78011 0.0
H964 H 0.64643 0.17913 0.83574 0.0
H965 H 0.37296 0.10873 0.77664 0.0
H966 H 0.39631 0.12985 0.73444 0.0
H967 H 0.44822 0.10413 0.74568 0.0
H968 H 0.50736 0.17617 0.63906 0.0
H969 H 0.63407 0.11443 0.66105 0.0
H970 H 0.48847 0.19101 0.75229 0.0
H971 H 0.41736 0.17288 0.73422 0.0
H972 H 0.44971 0.19457 0.69614 0.0
H973 H 0.64057 0.11549 0.78023 0.0
H974 H 0.64949 0.09609 0.73239 0.0
H975 H 0.57164 0.09651 0.7617 0.0
C976 C 0.43916 0.88462 0.69226 0.0
C977 C 0.4825 0.87623 0.65986 0.0
C978 C 0.46124 0.88546 0.73846 0.0
C979 C 0.52814 0.8778 0.75247 0.0
C980 C 0.57208 0.86966 0.71978 0.0
C981 C 0.54884 0.86892 0.6743 0.0
C982 C 0.4128 0.89422 0.77242 0.0
C983 C 0.64354 0.86122 0.7329 0.0
C984 C 0.60608 0.89381 0.86994 0.0
C985 C 0.59203 0.87319 0.89431 0.0
C986 C 0.58584 0.89564 0.82361 0.0
C987 C 0.55094 0.87639 0.80141 0.0
C988 C 0.53972 0.85518 0.82567 0.0
C989 C 0.56018 0.8539 0.87165 0.0
C990 C 0.59921 0.91849 0.79889 0.0
C991 C 0.50386 0.83406 0.80345 0.0
H992 H 0.38821 0.89048 0.68159 0.0
H993 H 0.58343 0.86247 0.64989 0.0
H994 H 0.40166 0.87959 0.79601 0.0
H995 H 0.43665 0.90888 0.79285 0.0
H996 H 0.36399 0.90073 0.7561 0.0
H997 H 0.67276 0.85674 0.70309 0.0
H998 H 0.67172 0.87514 0.75286 0.0
H999 H 0.64146 0.84515 0.75455 0.0
H1000 H 0.62884 0.909 0.88765 0.0
H1001 H 0.54828 0.83807 0.89067 0.0
H1002 H 0.55008 0.92695 0.78766 0.0
H1003 H 0.62698 0.9147 0.76819 0.0
H1004 H 0.62934 0.93139 0.82028 0.0
H1005 H 0.4517 0.83928 0.79095 0.0
H1006 H 0.50006 0.81874 0.82689 0.0
H1007 H 0.53136 0.82811 0.77383 0.0
loop_
_geom_bond_atom_site_label_1
_geom_bond_atom_site_label_2
_geom_bond_distance
_geom_bond_site_symmetry_2
_ccdc_geom_bond_type
Co0 N5 2.057 1_554 S
Co0 O17 2.021 . S
Co0 O20 2.062 . S
Co0 O24 2.117 1_654 S
Co0 O25 2.020 1_655 S
C1 O21 1.259 . S
C1 O24 1.258 . S
Co2 N11 2.057 . S
Co2 O18 2.117 . S
Co2 O19 2.020 . S
Co2 O21 2.021 1_554 S
Co2 O26 2.062 . S
C3 N5 1.316 1_554 S
C3 N6 1.347 1_554 S
C3 H8 0.931 . S
C4 N5 1.375 . S
C4 C7 1.350 . S
C4 H9 0.930 . S
N5 Co0 2.057 1_556 S
N5 C3 1.316 1_556 S
N5 C4 1.375 . S
N6 C3 1.347 1_556 S
N6 C7 1.373 . S
C7 C4 1.350 . S
C7 N6 1.373 . S
C7 H28 0.931 . S
H8 C3 0.931 . S
H9 C4 0.930 . S
C10 O17 1.249 1_455 S
C10 O18 1.258 . S
N11 Co2 2.057 . S
N11 C12 1.316 1_554 S
N11 C13 1.375 . S
C12 N11 1.316 1_556 S
C12 N14 1.347 1_556 S
C12 H23 0.931 . S
C13 N11 1.375 . S
C13 C15 1.350 . S
C13 H22 0.930 . S
N14 C12 1.347 1_554 S
N14 C15 1.373 . S
C15 C13 1.350 . S
C15 N14 1.373 . S
C15 H29 0.931 . S
C16 O19 1.256 . S
C16 O20 1.255 1_455 S
O17 Co0 2.021 . S
O17 C10 1.249 1_655 S
O18 Co2 2.117 . S
O18 C10 1.258 . S
O19 Co2 2.020 . S
O19 C16 1.256 . S
O20 Co0 2.062 . S
O20 C16 1.255 1_655 S
O21 C1 1.259 . S
O21 Co2 2.021 1_556 S
H22 C13 0.930 . S
H23 C12 0.931 . S
O24 Co0 2.117 1_456 S
O24 C1 1.258 . S
O25 Co0 2.020 1_455 S
O25 C27 1.256 . S
O26 Co2 2.062 . S
O26 C27 1.255 . S
C27 O25 1.256 . S
C27 O26 1.255 . S
H28 C7 0.931 . S
H29 C15 0.931 . S
Co30 N35 2.057 1_554 S
Co30 O47 2.021 . S
Co30 O50 2.062 . S
Co30 O54 2.117 1_554 S
Co30 O55 2.020 . S
C31 O51 1.249 1_655 S
C31 O54 1.258 . S
Co32 N41 2.057 . S
Co32 O48 2.117 1_455 S
Co32 O49 2.020 1_455 S
Co32 O51 2.021 1_554 S
Co32 O56 2.062 . S
C33 N35 1.316 1_554 S
C33 N36 1.347 1_554 S
C33 H38 0.931 . S
C34 N35 1.375 . S
C34 C37 1.350 . S
C34 H39 0.930 . S
N35 Co30 2.057 1_556 S
N35 C33 1.316 1_556 S
N35 C34 1.375 . S
N36 C33 1.347 1_556 S
N36 C37 1.373 . S
C37 C34 1.350 . S
C37 N36 1.373 . S
C37 H58 0.931 . S
H38 C33 0.931 . S
H39 C34 0.930 . S
C40 O47 1.259 . S
C40 O48 1.258 . S
N41 Co32 2.057 . S
N41 C42 1.316 1_554 S
N41 C43 1.375 . S
C42 N41 1.316 1_556 S
C42 N44 1.347 1_556 S
C42 H53 0.931 . S
C43 N41 1.375 . S
C43 C45 1.350 . S
C43 H52 0.930 . S
N44 C42 1.347 1_554 S
N44 C45 1.373 . S
C45 C43 1.350 . S
C45 N44 1.373 . S
C45 H59 0.931 . S
C46 O49 1.256 . S
C46 O50 1.255 . S
O47 Co30 2.021 . S
O47 C40 1.259 . S
O48 Co32 2.117 1_655 S
O48 C40 1.258 . S
O49 Co32 2.020 1_655 S
O49 C46 1.256 . S
O50 Co30 2.062 . S
O50 C46 1.255 . S
O51 C31 1.249 1_455 S
O51 Co32 2.021 1_556 S
H52 C43 0.930 . S
H53 C42 0.931 . S
O54 Co30 2.117 1_556 S
O54 C31 1.258 . S
O55 Co30 2.020 . S
O55 C57 1.256 . S
O56 Co32 2.062 . S
O56 C57 1.255 1_455 S
C57 O55 1.256 . S
C57 O56 1.255 1_655 S
H58 C37 0.931 . S
H59 C45 0.931 . S
Co60 N65 2.057 . S
Co60 O77 2.021 . S
Co60 O80 2.062 . S
Co60 O84 2.117 . S
Co60 O85 2.020 . S
C61 O81 1.249 1_455 S
C61 O84 1.258 . S
Co62 N71 2.057 . S
Co62 O78 2.117 1_655 S
Co62 O79 2.020 1_655 S
Co62 O81 2.021 . S
Co62 O86 2.062 . S
C63 N65 1.316 . S
C63 N66 1.347 . S
C63 H68 0.931 . S
C64 N65 1.375 . S
C64 C67 1.350 . S
C64 H69 0.930 . S
N65 Co60 2.057 . S
N65 C63 1.316 . S
N65 C64 1.375 . S
N66 C63 1.347 . S
N66 C67 1.373 . S
C67 C64 1.350 . S
C67 N66 1.373 . S
C67 H88 0.931 . S
H68 C63 0.931 . S
H69 C64 0.930 . S
C70 O77 1.259 . S
C70 O78 1.258 . S
N71 Co62 2.057 . S
N71 C72 1.316 . S
N71 C73 1.375 . S
C72 N71 1.316 . S
C72 N74 1.347 . S
C72 H83 0.931 . S
C73 N71 1.375 . S
C73 C75 1.350 . S
C73 H82 0.930 . S
N74 C72 1.347 . S
N74 C75 1.373 . S
C75 C73 1.350 . S
C75 N74 1.373 . S
C75 H89 0.931 . S
C76 O79 1.256 . S
C76 O80 1.255 . S
O77 Co60 2.021 . S
O77 C70 1.259 . S
O78 Co62 2.117 1_455 S
O78 C70 1.258 . S
O79 Co62 2.020 1_455 S
O79 C76 1.256 . S
O80 Co60 2.062 . S
O80 C76 1.255 . S
O81 C61 1.249 1_655 S
O81 Co62 2.021 . S
H82 C73 0.930 . S
H83 C72 0.931 . S
O84 Co60 2.117 . S
O84 C61 1.258 . S
O85 Co60 2.020 . S
O85 C87 1.256 . S
O86 Co62 2.062 . S
O86 C87 1.255 1_655 S
C87 O85 1.256 . S
C87 O86 1.255 1_455 S
H88 C67 0.931 . S
H89 C75 0.931 . S
Co90 N95 2.057 . S
Co90 O107 2.021 . S
Co90 O110 2.062 . S
Co90 O114 2.117 1_455 S
Co90 O115 2.020 1_455 S
C91 O111 1.259 . S
C91 O114 1.258 . S
Co92 N101 2.057 . S
Co92 O108 2.117 . S
Co92 O109 2.020 . S
Co92 O111 2.021 . S
Co92 O116 2.062 . S
C93 N95 1.316 . S
C93 N96 1.347 . S
C93 H98 0.931 . S
C94 N95 1.375 . S
C94 C97 1.350 . S
C94 H99 0.930 . S
N95 Co90 2.057 . S
N95 C93 1.316 . S
N95 C94 1.375 . S
N96 C93 1.347 . S
N96 C97 1.373 . S
C97 C94 1.350 . S
C97 N96 1.373 . S
C97 H118 0.931 . S
H98 C93 0.931 . S
H99 C94 0.930 . S
C100 O107 1.249 1_655 S
C100 O108 1.258 . S
N101 Co92 2.057 . S
N101 C102 1.316 . S
N101 C103 1.375 . S
C102 N101 1.316 . S
C102 N104 1.347 . S
C102 H113 0.931 . S
C103 N101 1.375 . S
C103 C105 1.350 . S
C103 H112 0.930 . S
N104 C102 1.347 . S
N104 C105 1.373 . S
C105 C103 1.350 . S
C105 N104 1.373 . S
C105 H119 0.931 . S
C106 O109 1.256 . S
C106 O110 1.255 1_655 S
O107 Co90 2.021 . S
O107 C100 1.249 1_455 S
O108 Co92 2.117 . S
O108 C100 1.258 . S
O109 Co92 2.020 . S
O109 C106 1.256 . S
O110 Co90 2.062 . S
O110 C106 1.255 1_455 S
O111 C91 1.259 . S
O111 Co92 2.021 . S
H112 C103 0.930 . S
H113 C102 0.931 . S
O114 Co90 2.117 1_655 S
O114 C91 1.258 . S
O115 Co90 2.020 1_655 S
O115 C117 1.256 . S
O116 Co92 2.062 . S
O116 C117 1.255 . S
C117 O115 1.256 . S
C117 O116 1.255 . S
H118 C97 0.931 . S
H119 C105 0.931 . S
Co120 N125 2.057 1_554 S
Co120 O137 2.021 . S
Co120 O140 2.062 . S
Co120 O144 2.117 1_554 S
Co120 O145 2.020 . S
C121 O141 1.259 . S
C121 O144 1.258 . S
Co122 N131 2.057 . S
Co122 O138 2.117 . S
Co122 O139 2.020 . S
Co122 O141 2.021 1_554 S
Co122 O146 2.062 . S
C123 N125 1.316 1_554 S
C123 N126 1.347 1_554 S
C123 H128 0.931 . S
C124 N125 1.375 . S
C124 C127 1.350 . S
C124 H129 0.930 . S
N125 Co120 2.057 1_556 S
N125 C123 1.316 1_556 S
N125 C124 1.375 . S
N126 C123 1.347 1_556 S
N126 C127 1.373 . S
C127 C124 1.350 . S
C127 N126 1.373 . S
C127 H148 0.931 . S
H128 C123 0.931 . S
H129 C124 0.930 . S
C130 O137 1.259 . S
C130 O138 1.258 . S
N131 Co122 2.057 . S
N131 C132 1.316 1_554 S
N131 C133 1.375 . S
C132 N131 1.316 1_556 S
C132 N134 1.347 1_556 S
C132 H143 0.931 . S
C133 N131 1.375 . S
C133 C135 1.350 . S
C133 H142 0.930 . S
N134 C132 1.347 1_554 S
N134 C135 1.373 . S
C135 C133 1.350 . S
C135 N134 1.373 . S
C135 H149 0.931 . S
C136 O139 1.256 . S
C136 O140 1.255 . S
O137 Co120 2.021 . S
O137 C130 1.259 . S
O138 Co122 2.117 . S
O138 C130 1.258 . S
O139 Co122 2.020 . S
O139 C136 1.256 . S
O140 Co120 2.062 . S
O140 C136 1.255 . S
O141 C121 1.259 . S
O141 Co122 2.021 1_556 S
H142 C133 0.930 . S
H143 C132 0.931 . S
O144 Co120 2.117 1_556 S
O144 C121 1.258 . S
O145 Co120 2.020 . S
O145 C147 1.256 . S
O146 Co122 2.062 . S
O146 C147 1.255 . S
C147 O145 1.256 . S
C147 O146 1.255 . S
H148 C127 0.931 . S
H149 C135 0.931 . S
Co150 N155 2.057 1_554 S
Co150 O167 2.021 . S
Co150 O170 2.062 . S
Co150 O174 2.117 1_554 S
Co150 O175 2.020 . S
C151 O171 1.259 . S
C151 O174 1.258 . S
Co152 N161 2.057 . S
Co152 O168 2.117 . S
Co152 O169 2.020 . S
Co152 O171 2.021 1_554 S
Co152 O176 2.062 . S
C153 N155 1.316 1_554 S
C153 N156 1.347 1_554 S
C153 H158 0.931 . S
C154 N155 1.375 . S
C154 C157 1.350 . S
C154 H159 0.930 . S
N155 Co150 2.057 1_556 S
N155 C153 1.316 1_556 S
N155 C154 1.375 . S
N156 C153 1.347 1_556 S
N156 C157 1.373 . S
C157 C154 1.350 . S
C157 N156 1.373 . S
C157 H178 0.931 . S
H158 C153 0.931 . S
H159 C154 0.930 . S
C160 O167 1.259 . S
C160 O168 1.258 . S
N161 Co152 2.057 . S
N161 C162 1.316 1_554 S
N161 C163 1.375 . S
C162 N161 1.316 1_556 S
C162 N164 1.347 1_556 S
C162 H173 0.931 . S
C163 N161 1.375 . S
C163 C165 1.350 . S
C163 H172 0.930 . S
N164 C162 1.347 1_554 S
N164 C165 1.373 . S
C165 C163 1.350 . S
C165 N164 1.373 . S
C165 H179 0.931 . S
C166 O169 1.256 . S
C166 O170 1.255 . S
O167 Co150 2.021 . S
O167 C160 1.259 . S
O168 Co152 2.117 . S
O168 C160 1.258 . S
O169 Co152 2.020 . S
O169 C166 1.256 . S
O170 Co150 2.062 . S
O170 C166 1.255 . S
O171 C151 1.259 . S
O171 Co152 2.021 1_556 S
H172 C163 0.930 . S
H173 C162 0.931 . S
O174 Co150 2.117 1_556 S
O174 C151 1.258 . S
O175 Co150 2.020 . S
O175 C177 1.256 . S
O176 Co152 2.062 . S
O176 C177 1.255 . S
C177 O175 1.256 . S
C177 O176 1.255 . S
H178 C157 0.931 . S
H179 C165 0.931 . S
Co180 N185 2.057 . S
Co180 O197 2.021 . S
Co180 O200 2.062 . S
Co180 O204 2.117 . S
Co180 O205 2.020 . S
C181 O201 1.259 . S
C181 O204 1.258 . S
Co182 N191 2.057 . S
Co182 O198 2.117 . S
Co182 O199 2.020 . S
Co182 O201 2.021 . S
Co182 O206 2.062 . S
C183 N185 1.316 . S
C183 N186 1.347 . S
C183 H188 0.931 . S
C184 N185 1.375 . S
C184 C187 1.350 . S
C184 H189 0.930 . S
N185 Co180 2.057 . S
N185 C183 1.316 . S
N185 C184 1.375 . S
N186 C183 1.347 . S
N186 C187 1.373 . S
C187 C184 1.350 . S
C187 N186 1.373 . S
C187 H208 0.931 . S
H188 C183 0.931 . S
H189 C184 0.930 . S
C190 O197 1.259 . S
C190 O198 1.258 . S
N191 Co182 2.057 . S
N191 C192 1.316 . S
N191 C193 1.375 . S
C192 N191 1.316 . S
C192 N194 1.347 . S
C192 H203 0.931 . S
C193 N191 1.375 . S
C193 C195 1.350 . S
C193 H202 0.930 . S
N194 C192 1.347 . S
N194 C195 1.373 . S
C195 C193 1.350 . S
C195 N194 1.373 . S
C195 H209 0.931 . S
C196 O199 1.256 . S
C196 O200 1.255 . S
O197 Co180 2.021 . S
O197 C190 1.259 . S
O198 Co182 2.117 . S
O198 C190 1.258 . S
O199 Co182 2.020 . S
O199 C196 1.256 . S
O200 Co180 2.062 . S
O200 C196 1.255 . S
O201 C181 1.259 . S
O201 Co182 2.021 . S
H202 C193 0.930 . S
H203 C192 0.931 . S
O204 Co180 2.117 . S
O204 C181 1.258 . S
O205 Co180 2.020 . S
O205 C207 1.256 . S
O206 Co182 2.062 . S
O206 C207 1.255 . S
C207 O205 1.256 . S
C207 O206 1.255 . S
H208 C187 0.931 . S
H209 C195 0.931 . S
Co210 N215 2.057 . S
Co210 O227 2.021 . S
Co210 O230 2.062 . S
Co210 O234 2.117 . S
Co210 O235 2.020 . S
C211 O231 1.259 . S
C211 O234 1.258 . S
Co212 N221 2.057 . S
Co212 O228 2.117 . S
Co212 O229 2.020 . S
Co212 O231 2.021 . S
Co212 O236 2.062 . S
C213 N215 1.316 . S
C213 N216 1.347 . S
C213 H218 0.931 . S
C214 N215 1.375 . S
C214 C217 1.350 . S
C214 H219 0.930 . S
N215 Co210 2.057 . S
N215 C213 1.316 . S
N215 C214 1.375 . S
N216 C213 1.347 . S
N216 C217 1.373 . S
C217 C214 1.350 . S
C217 N216 1.373 . S
C217 H238 0.931 . S
H218 C213 0.931 . S
H219 C214 0.930 . S
C220 O227 1.259 . S
C220 O228 1.258 . S
N221 Co212 2.057 . S
N221 C222 1.316 . S
N221 C223 1.375 . S
C222 N221 1.316 . S
C222 N224 1.347 . S
C222 H233 0.931 . S
C223 N221 1.375 . S
C223 C225 1.350 . S
C223 H232 0.930 . S
N224 C222 1.347 . S
N224 C225 1.373 . S
C225 C223 1.350 . S
C225 N224 1.373 . S
C225 H239 0.931 . S
C226 O229 1.256 . S
C226 O230 1.255 . S
O227 Co210 2.021 . S
O227 C220 1.259 . S
O228 Co212 2.117 . S
O228 C220 1.258 . S
O229 Co212 2.020 . S
O229 C226 1.256 . S
O230 Co210 2.062 . S
O230 C226 1.255 . S
O231 C211 1.259 . S
O231 Co212 2.021 . S
H232 C223 0.930 . S
H233 C222 0.931 . S
O234 Co210 2.117 . S
O234 C211 1.258 . S
O235 Co210 2.020 . S
O235 C237 1.256 . S
O236 Co212 2.062 . S
O236 C237 1.255 . S
C237 O235 1.256 . S
C237 O236 1.255 . S
H238 C217 0.931 . S
H239 C225 0.931 . S
C240 C241 1.391 1_556 S
C240 C242 1.394 . S
C240 H256 0.931 . S
C241 C240 1.391 1_554 S
C241 C245 1.376 . S
C242 C240 1.394 . S
C242 C243 1.369 . S
C242 C246 1.531 . S
C243 C242 1.369 . S
C243 C244 1.410 1_556 S
C243 C251 1.503 1_556 S
C244 C243 1.410 1_554 S
C244 C245 1.392 . S
C244 C247 1.511 . S
C245 C241 1.376 . S
C245 C244 1.392 . S
C245 H257 0.929 . S
C246 C242 1.531 . S
C246 H258 0.960 . S
C246 H259 0.962 . S
C246 H260 0.960 . S
C247 C244 1.511 . S
C247 H261 0.961 . S
C247 H262 0.961 . S
C247 H263 0.961 . S
C248 C249 1.370 . S
C248 C250 1.363 . S
C248 H264 0.931 . S
C249 C248 1.370 . S
C249 C253 1.408 1_554 S
C250 C248 1.363 . S
C250 C251 1.370 . S
C250 C254 1.524 . S
C251 C243 1.503 1_554 S
C251 C250 1.370 . S
C251 C252 1.403 1_554 S
C252 C251 1.403 1_556 S
C252 C253 1.404 . S
C252 C255 1.539 . S
C253 C249 1.408 1_556 S
C253 C252 1.404 . S
C253 H265 0.930 . S
C254 C250 1.524 . S
C254 H266 0.956 . S
C254 H267 0.961 . S
C254 H268 0.961 . S
C255 C252 1.539 . S
C255 H269 0.958 . S
C255 H270 0.961 . S
C255 H271 0.960 . S
H256 C240 0.931 . S
H257 C245 0.929 . S
H258 C246 0.960 . S
H259 C246 0.962 . S
H260 C246 0.960 . S
H261 C247 0.961 . S
H262 C247 0.961 . S
H263 C247 0.961 . S
H264 C248 0.931 . S
H265 C253 0.930 . S
H266 C254 0.956 . S
H267 C254 0.961 . S
H268 C254 0.961 . S
H269 C255 0.958 . S
H270 C255 0.961 . S
H271 C255 0.960 . S
C272 C273 1.391 . S
C272 C274 1.394 . S
C272 H288 0.931 . S
C273 C272 1.391 . S
C273 C277 1.376 1_554 S
C274 C272 1.394 . S
C274 C275 1.369 1_554 S
C274 C278 1.531 . S
C275 C274 1.369 1_556 S
C275 C276 1.410 . S
C275 C283 1.504 1_556 S
C276 C275 1.410 . S
C276 C277 1.392 . S
C276 C279 1.511 . S
C277 C273 1.376 1_556 S
C277 C276 1.392 . S
C277 H289 0.929 . S
C278 C274 1.531 . S
C278 H290 0.960 . S
C278 H291 0.962 . S
C278 H292 0.960 . S
C279 C276 1.511 . S
C279 H293 0.961 . S
C279 H294 0.961 . S
C279 H295 0.961 . S
C280 C281 1.370 . S
C280 C282 1.363 . S
C280 H296 0.931 . S
C281 C280 1.370 . S
C281 C285 1.408 1_554 S
C282 C280 1.363 . S
C282 C283 1.379 . S
C282 C286 1.524 . S
C283 C275 1.504 1_554 S
C283 C282 1.379 . S
C283 C284 1.394 1_554 S
C284 C283 1.394 1_556 S
C284 C285 1.404 . S
C284 C287 1.539 . S
C285 C281 1.408 1_556 S
C285 C284 1.404 . S
C285 H297 0.930 . S
C286 C282 1.524 . S
C286 H298 0.956 . S
C286 H299 0.961 . S
C286 H300 0.961 . S
C287 C284 1.539 . S
C287 H301 0.958 . S
C287 H302 0.961 . S
C287 H303 0.960 . S
H288 C272 0.931 . S
H289 C277 0.929 . S
H290 C278 0.960 . S
H291 C278 0.962 . S
H292 C278 0.960 . S
H293 C279 0.961 . S
H294 C279 0.961 . S
H295 C279 0.961 . S
H296 C280 0.931 . S
H297 C285 0.930 . S
H298 C286 0.956 . S
H299 C286 0.961 . S
H300 C286 0.961 . S
H301 C287 0.958 . S
H302 C287 0.961 . S
H303 C287 0.960 . S
C304 C305 1.391 . S
C304 C306 1.394 . S
C304 H320 0.931 . S
C305 C304 1.391 . S
C305 C309 1.376 . S
C306 C304 1.394 . S
C306 C307 1.369 . S
C306 C310 1.531 . S
C307 C306 1.369 . S
C307 C308 1.410 . S
C307 C315 1.503 . S
C308 C307 1.410 . S
C308 C309 1.392 . S
C308 C311 1.511 . S
C309 C305 1.376 . S
C309 C308 1.392 . S
C309 H321 0.929 . S
C310 C306 1.531 . S
C310 H322 0.960 . S
C310 H323 0.962 . S
C310 H324 0.960 . S
C311 C308 1.511 . S
C311 H325 0.961 . S
C311 H326 0.961 . S
C311 H327 0.961 . S
C312 C313 1.370 . S
C312 C314 1.363 . S
C312 H328 0.931 . S
C313 C312 1.370 . S
C313 C317 1.408 . S
C314 C312 1.363 . S
C314 C315 1.370 . S
C314 C318 1.524 . S
C315 C307 1.503 . S
C315 C314 1.370 . S
C315 C316 1.403 . S
C316 C315 1.403 . S
C316 C317 1.404 . S
C316 C319 1.539 . S
C317 C313 1.408 . S
C317 C316 1.404 . S
C317 H329 0.930 . S
C318 C314 1.524 . S
C318 H330 0.956 . S
C318 H331 0.961 . S
C318 H332 0.961 . S
C319 C316 1.539 . S
C319 H333 0.958 . S
C319 H334 0.961 . S
C319 H335 0.960 . S
H320 C304 0.931 . S
H321 C309 0.929 . S
H322 C310 0.960 . S
H323 C310 0.962 . S
H324 C310 0.960 . S
H325 C311 0.961 . S
H326 C311 0.961 . S
H327 C311 0.961 . S
H328 C312 0.931 . S
H329 C317 0.930 . S
H330 C318 0.956 . S
H331 C318 0.961 . S
H332 C318 0.961 . S
H333 C319 0.958 . S
H334 C319 0.961 . S
H335 C319 0.960 . S
C336 C337 1.391 . S
C336 C338 1.394 . S
C336 H352 0.931 . S
C337 C336 1.391 . S
C337 C341 1.376 . S
C338 C336 1.394 . S
C338 C339 1.369 . S
C338 C342 1.531 . S
C339 C338 1.369 . S
C339 C340 1.410 . S
C339 C347 1.503 . S
C340 C339 1.410 . S
C340 C341 1.392 . S
C340 C343 1.511 . S
C341 C337 1.376 . S
C341 C340 1.392 . S
C341 H353 0.929 . S
C342 C338 1.531 . S
C342 H354 0.960 . S
C342 H355 0.962 . S
C342 H356 0.960 . S
C343 C340 1.511 . S
C343 H357 0.961 . S
C343 H358 0.961 . S
C343 H359 0.961 . S
C344 C345 1.370 . S
C344 C346 1.363 . S
C344 H360 0.931 . S
C345 C344 1.370 . S
C345 C349 1.408 . S
C346 C344 1.363 . S
C346 C347 1.370 . S
C346 C350 1.524 . S
C347 C339 1.503 . S
C347 C346 1.370 . S
C347 C348 1.403 . S
C348 C347 1.403 . S
C348 C349 1.404 . S
C348 C351 1.539 . S
C349 C345 1.408 . S
C349 C348 1.404 . S
C349 H361 0.930 . S
C350 C346 1.524 . S
C350 H362 0.956 . S
C350 H363 0.961 . S
C350 H364 0.961 . S
C351 C348 1.539 . S
C351 H365 0.958 . S
C351 H366 0.961 . S
C351 H367 0.960 . S
H352 C336 0.931 . S
H353 C341 0.929 . S
H354 C342 0.960 . S
H355 C342 0.962 . S
H356 C342 0.960 . S
H357 C343 0.961 . S
H358 C343 0.961 . S
H359 C343 0.961 . S
H360 C344 0.931 . S
H361 C349 0.930 . S
H362 C350 0.956 . S
H363 C350 0.961 . S
H364 C350 0.961 . S
H365 C351 0.958 . S
H366 C351 0.961 . S
H367 C351 0.960 . S
C368 C369 1.391 1_556 S
C368 C370 1.394 . S
C368 H384 0.931 . S
C369 C368 1.391 1_554 S
C369 C373 1.376 . S
C370 C368 1.394 . S
C370 C371 1.359 1_656 S
C370 C374 1.531 1_655 S
C371 C370 1.359 1_454 S
C371 C372 1.424 . S
C371 C379 1.503 . S
C372 C371 1.424 . S
C372 C373 1.384 1_455 S
C372 C375 1.516 . S
C373 C369 1.376 . S
C373 C372 1.384 1_655 S
C373 H385 0.929 . S
C374 C370 1.531 1_455 S
C374 H386 0.960 . S
C374 H387 0.962 . S
C374 H388 0.960 1_455 S
C375 C372 1.516 . S
C375 H389 0.961 . S
C375 H390 0.961 . S
C375 H391 0.961 . S
C376 C377 1.370 . S
C376 C378 1.363 . S
C376 H392 0.931 . S
C377 C376 1.370 . S
C377 C381 1.408 1_554 S
C378 C376 1.363 . S
C378 C379 1.370 . S
C378 C382 1.524 . S
C379 C371 1.503 . S
C379 C378 1.370 . S
C379 C380 1.403 1_554 S
C380 C379 1.403 1_556 S
C380 C381 1.404 . S
C380 C383 1.539 . S
C381 C377 1.408 1_556 S
C381 C380 1.404 . S
C381 H393 0.930 . S
C382 C378 1.524 . S
C382 H394 0.956 . S
C382 H395 0.961 . S
C382 H396 0.961 . S
C383 C380 1.539 . S
C383 H397 0.958 . S
C383 H398 0.961 . S
C383 H399 0.960 . S
H384 C368 0.931 . S
H385 C373 0.929 . S
H386 C374 0.960 . S
H387 C374 0.962 . S
H388 C374 0.960 1_655 S
H389 C375 0.961 . S
H390 C375 0.961 . S
H391 C375 0.961 . S
H392 C376 0.931 . S
H393 C381 0.930 . S
H394 C382 0.956 . S
H395 C382 0.961 . S
H396 C382 0.961 . S
H397 C383 0.958 . S
H398 C383 0.961 . S
H399 C383 0.960 . S
C400 C401 1.391 1_556 S
C400 C402 1.394 . S
C400 H416 0.931 . S
C401 C400 1.391 1_554 S
C401 C405 1.376 . S
C402 C400 1.394 . S
C402 C403 1.369 1_456 S
C402 C406 1.531 1_455 S
C403 C402 1.369 1_654 S
C403 C404 1.410 1_655 S
C403 C411 1.503 . S
C404 C403 1.410 1_455 S
C404 C405 1.392 . S
C404 C407 1.511 1_455 S
C405 C401 1.376 . S
C405 C404 1.392 . S
C405 H417 0.929 . S
C406 C402 1.531 1_655 S
C406 H418 0.960 . S
C406 H419 0.962 . S
C406 H420 0.960 . S
C407 C404 1.511 1_655 S
C407 H421 0.961 1_655 S
C407 H422 0.961 . S
C407 H423 0.961 . S
C408 C409 1.370 . S
C408 C410 1.363 . S
C408 H424 0.931 . S
C409 C408 1.370 . S
C409 C413 1.411 . S
C410 C408 1.363 . S
C410 C411 1.370 . S
C410 C414 1.524 . S
C411 C403 1.503 . S
C411 C410 1.370 . S
C411 C412 1.400 1_554 S
C412 C411 1.400 1_556 S
C412 C413 1.401 1_556 S
C412 C415 1.542 . S
C413 C409 1.411 . S
C413 C412 1.401 1_554 S
C413 H425 0.929 1_554 S
C414 C410 1.524 . S
C414 H426 0.956 1_554 S
C414 H427 0.961 . S
C414 H428 0.961 . S
C415 C412 1.542 . S
C415 H429 0.958 . S
C415 H430 0.961 1_556 S
C415 H431 0.960 1_556 S
H416 C400 0.931 . S
H417 C405 0.929 . S
H418 C406 0.960 . S
H419 C406 0.962 . S
H420 C406 0.960 . S
H421 C407 0.961 1_455 S
H422 C407 0.961 . S
H423 C407 0.961 . S
H424 C408 0.931 . S
H425 C413 0.929 1_556 S
H426 C414 0.956 1_556 S
H427 C414 0.961 . S
H428 C414 0.961 . S
H429 C415 0.958 . S
H430 C415 0.961 1_554 S
H431 C415 0.960 1_554 S
C432 C433 1.391 . S
C432 C434 1.394 . S
C432 H448 0.931 . S
C433 C432 1.391 . S
C433 C437 1.376 . S
C434 C432 1.394 . S
C434 C435 1.369 . S
C434 C438 1.531 . S
C435 C434 1.369 . S
C435 C436 1.410 . S
C435 C443 1.503 . S
C436 C435 1.410 . S
C436 C437 1.392 . S
C436 C439 1.511 . S
C437 C433 1.376 . S
C437 C436 1.392 . S
C437 H449 0.929 . S
C438 C434 1.531 . S
C438 H450 0.960 . S
C438 H451 0.962 . S
C438 H452 0.960 . S
C439 C436 1.511 . S
C439 H453 0.961 . S
C439 H454 0.961 . S
C439 H455 0.961 . S
C440 C441 1.370 . S
C440 C442 1.370 . S
C440 H456 0.931 . S
C441 C440 1.370 . S
C441 C445 1.408 . S
C442 C440 1.370 . S
C442 C443 1.368 1_655 S
C442 C446 1.520 1_655 S
C443 C435 1.503 . S
C443 C442 1.368 1_455 S
C443 C444 1.403 1_455 S
C444 C443 1.403 1_655 S
C444 C445 1.404 . S
C444 C447 1.539 1_655 S
C445 C441 1.408 . S
C445 C444 1.404 . S
C445 H457 0.930 . S
C446 C442 1.520 1_455 S
C446 H458 0.956 . S
C446 H459 0.961 . S
C446 H460 0.961 . S
C447 C444 1.539 1_455 S
C447 H461 0.958 . S
C447 H462 0.961 1_455 S
C447 H463 0.960 . S
H448 C432 0.931 . S
H449 C437 0.929 . S
H450 C438 0.960 . S
H451 C438 0.962 . S
H452 C438 0.960 . S
H453 C439 0.961 . S
H454 C439 0.961 . S
H455 C439 0.961 . S
H456 C440 0.931 . S
H457 C445 0.930 . S
H458 C446 0.956 . S
H459 C446 0.961 . S
H460 C446 0.961 . S
H461 C447 0.958 . S
H462 C447 0.961 1_655 S
H463 C447 0.960 . S
C464 C465 1.391 . S
C464 C466 1.394 . S
C464 H480 0.931 . S
C465 C464 1.391 . S
C465 C469 1.376 . S
C466 C464 1.394 . S
C466 C467 1.369 . S
C466 C470 1.531 . S
C467 C466 1.369 . S
C467 C468 1.410 . S
C467 C475 1.503 . S
C468 C467 1.410 . S
C468 C469 1.392 . S
C468 C471 1.511 . S
C469 C465 1.376 . S
C469 C468 1.392 . S
C469 H481 0.929 . S
C470 C466 1.531 . S
C470 H482 0.960 . S
C470 H483 0.962 . S
C470 H484 0.960 . S
C471 C468 1.511 . S
C471 H485 0.961 . S
C471 H486 0.961 . S
C471 H487 0.961 . S
C472 C473 1.370 . S
C472 C474 1.363 . S
C472 H488 0.931 . S
C473 C472 1.370 . S
C473 C477 1.408 . S
C474 C472 1.363 . S
C474 C475 1.370 1_455 S
C474 C478 1.524 1_455 S
C475 C467 1.503 . S
C475 C474 1.370 1_655 S
C475 C476 1.403 1_655 S
C476 C475 1.403 1_455 S
C476 C477 1.404 . S
C476 C479 1.539 1_455 S
C477 C473 1.408 . S
C477 C476 1.404 . S
C477 H489 0.930 . S
C478 C474 1.524 1_655 S
C478 H490 0.956 . S
C478 H491 0.961 . S
C478 H492 0.961 1_655 S
C479 C476 1.539 1_655 S
C479 H493 0.958 . S
C479 H494 0.961 . S
C479 H495 0.960 . S
H480 C464 0.931 . S
H481 C469 0.929 . S
H482 C470 0.960 . S
H483 C470 0.962 . S
H484 C470 0.960 . S
H485 C471 0.961 . S
H486 C471 0.961 . S
H487 C471 0.961 . S
H488 C472 0.931 . S
H489 C477 0.930 . S
H490 C478 0.956 . S
H491 C478 0.961 . S
H492 C478 0.961 1_455 S
H493 C479 0.958 . S
H494 C479 0.961 . S
H495 C479 0.960 . S
C496 C497 1.391 1_556 S
C496 C498 1.394 . S
C496 H512 0.931 . S
C497 C496 1.391 1_554 S
C497 C501 1.376 1_655 S
C498 C496 1.394 . S
C498 C499 1.369 1_655 S
C498 C502 1.531 . S
C499 C498 1.369 1_455 S
C499 C500 1.410 1_556 S
C499 C507 1.503 1_556 S
C500 C499 1.410 1_554 S
C500 C501 1.392 . S
C500 C503 1.511 . S
C501 C497 1.376 1_455 S
C501 C500 1.392 . S
C501 H513 0.929 . S
C502 C498 1.531 . S
C502 H514 0.960 . S
C502 H515 0.962 . S
C502 H516 0.960 . S
C503 C500 1.511 . S
C503 H517 0.961 . S
C503 H518 0.961 . S
C503 H519 0.961 . S
C504 C505 1.370 1_655 S
C504 C506 1.363 . S
C504 H520 0.931 . S
C505 C504 1.370 1_455 S
C505 C509 1.408 1_554 S
C506 C504 1.363 . S
C506 C507 1.370 1_655 S
C506 C510 1.524 . S
C507 C499 1.503 1_554 S
C507 C506 1.370 1_455 S
C507 C508 1.403 1_554 S
C508 C507 1.403 1_556 S
C508 C509 1.404 . S
C508 C511 1.539 . S
C509 C505 1.408 1_556 S
C509 C508 1.404 . S
C509 H521 0.930 . S
C510 C506 1.524 . S
C510 H522 0.956 . S
C510 H523 0.961 . S
C510 H524 0.961 . S
C511 C508 1.539 . S
C511 H525 0.958 . S
C511 H526 0.961 . S
C511 H527 0.960 . S
H512 C496 0.931 . S
H513 C501 0.929 . S
H514 C502 0.960 . S
H515 C502 0.962 . S
H516 C502 0.960 . S
H517 C503 0.961 . S
H518 C503 0.961 . S
H519 C503 0.961 . S
H520 C504 0.931 . S
H521 C509 0.930 . S
H522 C510 0.956 . S
H523 C510 0.961 . S
H524 C510 0.961 . S
H525 C511 0.958 . S
H526 C511 0.961 . S
H527 C511 0.960 . S
C528 C529 1.391 . S
C528 C530 1.394 . S
C528 H544 0.931 . S
C529 C528 1.391 . S
C529 C533 1.376 1_655 S
C530 C528 1.394 . S
C530 C531 1.369 1_655 S
C530 C534 1.531 . S
C531 C530 1.369 1_455 S
C531 C532 1.410 . S
C531 C539 1.503 . S
C532 C531 1.410 . S
C532 C533 1.392 . S
C532 C535 1.511 . S
C533 C529 1.376 1_455 S
C533 C532 1.392 . S
C533 H545 0.929 . S
C534 C530 1.531 . S
C534 H546 0.960 . S
C534 H547 0.962 . S
C534 H548 0.960 . S
C535 C532 1.511 . S
C535 H549 0.961 . S
C535 H550 0.961 . S
C535 H551 0.961 . S
C536 C537 1.370 1_655 S
C536 C538 1.363 . S
C536 H552 0.931 . S
C537 C536 1.370 1_455 S
C537 C541 1.408 . S
C538 C536 1.363 . S
C538 C539 1.370 1_655 S
C538 C542 1.524 . S
C539 C531 1.503 . S
C539 C538 1.370 1_455 S
C539 C540 1.403 . S
C540 C539 1.403 . S
C540 C541 1.404 . S
C540 C543 1.539 . S
C541 C537 1.408 . S
C541 C540 1.404 . S
C541 H553 0.930 . S
C542 C538 1.524 . S
C542 H554 0.956 . S
C542 H555 0.961 . S
C542 H556 0.961 . S
C543 C540 1.539 . S
C543 H557 0.958 . S
C543 H558 0.961 . S
C543 H559 0.960 . S
H544 C528 0.931 . S
H545 C533 0.929 . S
H546 C534 0.960 . S
H547 C534 0.962 . S
H548 C534 0.960 . S
H549 C535 0.961 . S
H550 C535 0.961 . S
H551 C535 0.961 . S
H552 C536 0.931 . S
H553 C541 0.930 . S
H554 C542 0.956 . S
H555 C542 0.961 . S
H556 C542 0.961 . S
H557 C543 0.958 . S
H558 C543 0.961 . S
H559 C543 0.960 . S
C560 C561 1.391 1_556 S
C560 C562 1.394 . S
C560 H576 0.931 . S
C561 C560 1.391 1_554 S
C561 C565 1.376 . S
C562 C560 1.394 . S
C562 C563 1.369 . S
C562 C566 1.531 . S
C563 C562 1.369 . S
C563 C564 1.410 1_556 S
C563 C571 1.503 1_566 S
C564 C563 1.410 1_554 S
C564 C565 1.392 . S
C564 C567 1.511 . S
C565 C561 1.376 . S
C565 C564 1.392 . S
C565 H577 0.929 . S
C566 C562 1.531 . S
C566 H578 0.960 1_565 S
C566 H579 0.962 . S
C566 H580 0.960 . S
C567 C564 1.511 . S
C567 H581 0.961 . S
C567 H582 1.000 . S
C567 H583 0.961 . S
C568 C569 1.370 . S
C568 C570 1.363 . S
C568 H584 0.931 . S
C569 C568 1.370 . S
C569 C573 1.408 1_554 S
C570 C568 1.363 . S
C570 C571 1.378 . S
C570 C574 1.524 . S
C571 C563 1.503 1_544 S
C571 C570 1.378 . S
C571 C572 1.395 1_554 S
C572 C571 1.395 1_556 S
C572 C573 1.404 . S
C572 C575 1.539 . S
C573 C569 1.408 1_556 S
C573 C572 1.404 . S
C573 H585 0.930 . S
C574 C570 1.524 . S
C574 H586 0.956 . S
C574 H587 0.957 . S
C574 H588 0.961 . S
C575 C572 1.539 . S
C575 H589 0.958 . S
C575 H590 0.961 . S
C575 H591 0.960 1_545 S
H576 C560 0.931 . S
H577 C565 0.929 . S
H578 C566 0.960 1_545 S
H579 C566 0.962 . S
H580 C566 0.960 . S
H581 C567 0.961 . S
H582 C567 1.000 . S
H583 C567 0.961 . S
H584 C568 0.931 . S
H585 C573 0.930 . S
H586 C574 0.956 . S
H587 C574 0.957 . S
H588 C574 0.961 . S
H589 C575 0.958 . S
H590 C575 0.961 . S
H591 C575 0.960 1_565 S
C592 C593 1.391 . S
C592 C594 1.394 . S
C592 H608 0.931 . S
C593 C592 1.391 . S
C593 C597 1.376 . S
C594 C592 1.394 . S
C594 C595 1.369 . S
C594 C598 1.531 . S
C595 C594 1.369 . S
C595 C596 1.410 . S
C595 C603 1.503 1_545 S
C596 C595 1.410 . S
C596 C597 1.392 . S
C596 C599 1.511 . S
C597 C593 1.376 . S
C597 C596 1.392 . S
C597 H609 0.929 . S
C598 C594 1.531 . S
C598 H610 0.960 1_545 S
C598 H611 0.962 . S
C598 H612 0.960 . S
C599 C596 1.511 . S
C599 H613 0.961 . S
C599 H614 0.985 . S
C599 H615 0.961 . S
C600 C601 1.370 . S
C600 C602 1.363 . S
C600 H616 0.931 . S
C601 C600 1.370 . S
C601 C605 1.408 . S
C602 C600 1.363 . S
C602 C603 1.370 . S
C602 C606 1.524 . S
C603 C595 1.503 1_565 S
C603 C602 1.370 . S
C603 C604 1.403 . S
C604 C603 1.403 . S
C604 C605 1.404 . S
C604 C607 1.539 . S
C605 C601 1.408 . S
C605 C604 1.404 . S
C605 H617 0.930 . S
C606 C602 1.524 . S
C606 H618 0.956 . S
C606 H619 0.973 . S
C606 H620 0.961 . S
C607 C604 1.539 . S
C607 H621 0.958 . S
C607 H622 0.961 . S
C607 H623 0.960 1_565 S
H608 C592 0.931 . S
H609 C597 0.929 . S
H610 C598 0.960 1_565 S
H611 C598 0.962 . S
H612 C598 0.960 . S
H613 C599 0.961 . S
H614 C599 0.985 . S
H615 C599 0.961 . S
H616 C600 0.931 . S
H617 C605 0.930 . S
H618 C606 0.956 . S
H619 C606 0.973 . S
H620 C606 0.961 . S
H621 C607 0.958 . S
H622 C607 0.961 . S
H623 C607 0.960 1_545 S
C624 C625 1.391 1_556 S
C624 C626 1.394 . S
C624 H640 0.931 . S
C625 C624 1.391 1_554 S
C625 C629 1.376 . S
C626 C624 1.394 . S
C626 C627 1.369 1_556 S
C626 C630 1.531 . S
C627 C626 1.369 1_554 S
C627 C628 1.410 . S
C627 C635 1.503 . S
C628 C627 1.410 . S
C628 C629 1.392 . S
C628 C631 1.511 . S
C629 C625 1.376 . S
C629 C628 1.392 . S
C629 H641 0.929 . S
C630 C626 1.531 . S
C630 H642 0.960 . S
C630 H643 0.962 . S
C630 H644 0.960 . S
C631 C628 1.511 . S
C631 H645 0.961 . S
C631 H646 0.961 . S
C631 H647 0.961 . S
C632 C633 1.370 . S
C632 C634 1.363 . S
C632 H648 0.931 . S
C633 C632 1.370 . S
C633 C637 1.408 . S
C634 C632 1.363 . S
C634 C635 1.370 . S
C634 C638 1.524 . S
C635 C627 1.503 . S
C635 C634 1.370 . S
C635 C636 1.403 . S
C636 C635 1.403 . S
C636 C637 1.404 . S
C636 C639 1.539 . S
C637 C633 1.408 . S
C637 C636 1.404 . S
C637 H649 0.930 . S
C638 C634 1.524 . S
C638 H650 0.956 1_554 S
C638 H651 0.961 . S
C638 H652 0.961 . S
C639 C636 1.539 . S
C639 H653 0.958 1_554 S
C639 H654 0.961 . S
C639 H655 0.960 . S
H640 C624 0.931 . S
H641 C629 0.929 . S
H642 C630 0.960 . S
H643 C630 0.962 . S
H644 C630 0.960 . S
H645 C631 0.961 . S
H646 C631 0.961 . S
H647 C631 0.961 . S
H648 C632 0.931 . S
H649 C637 0.930 . S
H650 C638 0.956 1_556 S
H651 C638 0.961 . S
H652 C638 0.961 . S
H653 C639 0.958 1_556 S
H654 C639 0.961 . S
H655 C639 0.960 . S
C656 C657 1.391 1_556 S
C656 C658 1.394 . S
C656 H672 0.931 . S
C657 C656 1.391 1_554 S
C657 C661 1.376 . S
C658 C656 1.394 . S
C658 C659 1.369 . S
C658 C662 1.531 . S
C659 C658 1.369 . S
C659 C660 1.410 1_556 S
C659 C667 1.503 1_556 S
C660 C659 1.410 1_554 S
C660 C661 1.392 . S
C660 C663 1.511 . S
C661 C657 1.376 . S
C661 C660 1.392 . S
C661 H673 0.929 . S
C662 C658 1.531 . S
C662 H674 0.960 . S
C662 H675 0.962 . S
C662 H676 0.960 . S
C663 C660 1.511 . S
C663 H677 0.961 . S
C663 H678 0.961 . S
C663 H679 0.957 1_554 S
C664 C665 1.370 . S
C664 C666 1.363 . S
C664 H680 0.931 . S
C665 C664 1.370 . S
C665 C669 1.408 1_554 S
C666 C664 1.363 . S
C666 C667 1.391 . S
C666 C670 1.524 . S
C667 C659 1.503 1_554 S
C667 C666 1.391 . S
C667 C668 1.383 1_554 S
C668 C667 1.383 1_556 S
C668 C669 1.404 . S
C668 C671 1.539 . S
C669 C665 1.408 1_556 S
C669 C668 1.404 . S
C669 H681 0.930 . S
C670 C666 1.524 . S
C670 H682 0.956 . S
C670 H683 0.961 . S
C670 H684 0.961 . S
C671 C668 1.539 . S
C671 H685 0.958 . S
C671 H686 0.961 . S
C671 H687 0.960 . S
H672 C656 0.931 . S
H673 C661 0.929 . S
H674 C662 0.960 . S
H675 C662 0.962 . S
H676 C662 0.960 . S
H677 C663 0.961 . S
H678 C663 0.961 . S
H679 C663 0.957 1_556 S
H680 C664 0.931 . S
H681 C669 0.930 . S
H682 C670 0.956 . S
H683 C670 0.961 . S
H684 C670 0.961 . S
H685 C671 0.958 . S
H686 C671 0.961 . S
H687 C671 0.960 . S
C688 C689 1.391 . S
C688 C690 1.394 . S
C688 H704 0.931 . S
C689 C688 1.391 . S
C689 C693 1.376 . S
C690 C688 1.394 . S
C690 C691 1.369 . S
C690 C694 1.531 . S
C691 C690 1.369 . S
C691 C692 1.410 . S
C691 C699 1.503 . S
C692 C691 1.410 . S
C692 C693 1.392 . S
C692 C695 1.511 . S
C693 C689 1.376 . S
C693 C692 1.392 . S
C693 H705 0.929 . S
C694 C690 1.531 . S
C694 H706 0.960 . S
C694 H707 0.962 . S
C694 H708 0.960 . S
C695 C692 1.511 . S
C695 H709 0.961 . S
C695 H710 0.961 . S
C695 H711 0.961 . S
C696 C697 1.370 . S
C696 C698 1.363 . S
C696 H712 0.931 . S
C697 C696 1.370 . S
C697 C701 1.408 . S
C698 C696 1.363 . S
C698 C699 1.370 . S
C698 C702 1.524 . S
C699 C691 1.503 . S
C699 C698 1.370 . S
C699 C700 1.403 . S
C700 C699 1.403 . S
C700 C701 1.404 . S
C700 C703 1.539 . S
C701 C697 1.408 . S
C701 C700 1.404 . S
C701 H713 0.930 . S
C702 C698 1.524 . S
C702 H714 0.956 . S
C702 H715 0.961 . S
C702 H716 0.961 . S
C703 C700 1.539 . S
C703 H717 0.958 . S
C703 H718 0.961 . S
C703 H719 0.960 . S
H704 C688 0.931 . S
H705 C693 0.929 . S
H706 C694 0.960 . S
H707 C694 0.962 . S
H708 C694 0.960 . S
H709 C695 0.961 . S
H710 C695 0.961 . S
H711 C695 0.961 . S
H712 C696 0.931 . S
H713 C701 0.930 . S
H714 C702 0.956 . S
H715 C702 0.961 . S
H716 C702 0.961 . S
H717 C703 0.958 . S
H718 C703 0.961 . S
H719 C703 0.960 . S
C720 C721 1.391 . S
C720 C722 1.394 . S
C720 H736 0.931 . S
C721 C720 1.391 . S
C721 C725 1.376 . S
C722 C720 1.394 . S
C722 C723 1.369 . S
C722 C726 1.531 . S
C723 C722 1.369 . S
C723 C724 1.410 . S
C723 C731 1.503 . S
C724 C723 1.410 . S
C724 C725 1.392 . S
C724 C727 1.511 . S
C725 C721 1.376 . S
C725 C724 1.392 . S
C725 H737 0.929 . S
C726 C722 1.531 . S
C726 H738 0.960 . S
C726 H739 0.962 . S
C726 H740 0.960 . S
C727 C724 1.511 . S
C727 H741 0.961 . S
C727 H742 0.961 . S
C727 H743 0.961 . S
C728 C729 1.370 . S
C728 C730 1.363 . S
C728 H744 0.931 . S
C729 C728 1.370 . S
C729 C733 1.408 . S
C730 C728 1.363 . S
C730 C731 1.370 . S
C730 C734 1.524 . S
C731 C723 1.503 . S
C731 C730 1.370 . S
C731 C732 1.403 . S
C732 C731 1.403 . S
C732 C733 1.404 . S
C732 C735 1.539 . S
C733 C729 1.408 . S
C733 C732 1.404 . S
C733 H745 0.930 . S
C734 C730 1.524 . S
C734 H746 0.956 . S
C734 H747 0.961 . S
C734 H748 0.961 . S
C735 C732 1.539 . S
C735 H749 0.958 . S
C735 H750 0.961 . S
C735 H751 0.960 . S
H736 C720 0.931 . S
H737 C725 0.929 . S
H738 C726 0.960 . S
H739 C726 0.962 . S
H740 C726 0.960 . S
H741 C727 0.961 . S
H742 C727 0.961 . S
H743 C727 0.961 . S
H744 C728 0.931 . S
H745 C733 0.930 . S
H746 C734 0.956 . S
H747 C734 0.961 . S
H748 C734 0.961 . S
H749 C735 0.958 . S
H750 C735 0.961 . S
H751 C735 0.960 . S
C752 C753 1.391 . S
C752 C754 1.394 . S
C752 H768 0.931 . S
C753 C752 1.391 . S
C753 C757 1.376 1_455 S
C754 C752 1.394 . S
C754 C755 1.369 . S
C754 C758 1.531 . S
C755 C754 1.369 . S
C755 C756 1.410 1_455 S
C755 C763 1.503 1_455 S
C756 C755 1.410 1_655 S
C756 C757 1.392 . S
C756 C759 1.511 . S
C757 C753 1.376 1_655 S
C757 C756 1.392 . S
C757 H769 0.929 . S
C758 C754 1.531 . S
C758 H770 0.960 . S
C758 H771 0.962 . S
C758 H772 0.960 . S
C759 C756 1.511 . S
C759 H773 0.961 . S
C759 H774 0.961 . S
C759 H775 0.961 . S
C760 C761 1.370 . S
C760 C762 1.363 . S
C760 H776 0.931 . S
C761 C760 1.370 . S
C761 C765 1.408 . S
C762 C760 1.363 . S
C762 C763 1.370 . S
C762 C766 1.524 1_655 S
C763 C755 1.503 1_655 S
C763 C762 1.370 . S
C763 C764 1.403 . S
C764 C763 1.403 . S
C764 C765 1.404 . S
C764 C767 1.539 . S
C765 C761 1.408 . S
C765 C764 1.404 . S
C765 H777 0.930 . S
C766 C762 1.524 1_455 S
C766 H778 0.956 . S
C766 H779 0.961 1_455 S
C766 H780 0.961 . S
C767 C764 1.539 . S
C767 H781 0.958 . S
C767 H782 0.961 . S
C767 H783 0.960 . S
H768 C752 0.931 . S
H769 C757 0.929 . S
H770 C758 0.960 . S
H771 C758 0.962 . S
H772 C758 0.960 . S
H773 C759 0.961 . S
H774 C759 0.961 . S
H775 C759 0.961 . S
H776 C760 0.931 . S
H777 C765 0.930 . S
H778 C766 0.956 . S
H779 C766 0.961 1_655 S
H780 C766 0.961 . S
H781 C767 0.958 . S
H782 C767 0.961 . S
H783 C767 0.960 . S
C784 C785 1.391 . S
C784 C786 1.394 . S
C784 H800 0.931 . S
C785 C784 1.391 . S
C785 C789 1.376 1_655 S
C786 C784 1.394 . S
C786 C787 1.368 1_655 S
C786 C790 1.531 . S
C787 C786 1.368 1_455 S
C787 C788 1.410 . S
C787 C795 1.503 . S
C788 C787 1.410 . S
C788 C789 1.392 . S
C788 C791 1.511 . S
C789 C785 1.376 1_455 S
C789 C788 1.392 . S
C789 H801 0.929 . S
C790 C786 1.531 . S
C790 H802 0.960 . S
C790 H803 0.962 . S
C790 H804 0.960 . S
C791 C788 1.511 . S
C791 H805 0.961 . S
C791 H806 0.961 . S
C791 H807 0.961 . S
C792 C793 1.357 1_655 S
C792 C794 1.366 . S
C792 H808 0.941 . S
C793 C792 1.357 1_455 S
C793 C797 1.408 . S
C794 C792 1.366 . S
C794 C795 1.370 1_655 S
C794 C798 1.524 . S
C795 C787 1.503 . S
C795 C794 1.370 1_455 S
C795 C796 1.403 . S
C796 C795 1.403 . S
C796 C797 1.404 . S
C796 C799 1.539 . S
C797 C793 1.408 . S
C797 C796 1.404 . S
C797 H809 0.930 . S
C798 C794 1.524 . S
C798 H810 0.956 . S
C798 H811 0.961 . S
C798 H812 0.961 . S
C799 C796 1.539 . S
C799 H813 0.958 . S
C799 H814 0.961 . S
C799 H815 0.960 . S
H800 C784 0.931 . S
H801 C789 0.929 . S
H802 C790 0.960 . S
H803 C790 0.962 . S
H804 C790 0.960 . S
H805 C791 0.961 . S
H806 C791 0.961 . S
H807 C791 0.961 . S
H808 C792 0.941 . S
H809 C797 0.930 . S
H810 C798 0.956 . S
H811 C798 0.961 . S
H812 C798 0.961 . S
H813 C799 0.958 . S
H814 C799 0.961 . S
H815 C799 0.960 . S
C816 C817 1.391 . S
C816 C818 1.394 . S
C816 H832 0.931 . S
C817 C816 1.391 . S
C817 C821 1.376 . S
C818 C816 1.394 . S
C818 C819 1.369 1_655 S
C818 C822 1.531 . S
C819 C818 1.369 1_455 S
C819 C820 1.410 . S
C819 C827 1.503 . S
C820 C819 1.410 . S
C820 C821 1.392 1_455 S
C820 C823 1.511 . S
C821 C817 1.376 . S
C821 C820 1.392 1_655 S
C821 H833 0.929 1_655 S
C822 C818 1.531 . S
C822 H834 0.960 . S
C822 H835 0.962 . S
C822 H836 0.960 . S
C823 C820 1.511 . S
C823 H837 0.961 . S
C823 H838 0.961 . S
C823 H839 0.961 . S
C824 C825 1.370 1_655 S
C824 C826 1.363 . S
C824 H840 0.931 . S
C825 C824 1.370 1_455 S
C825 C829 1.408 . S
C826 C824 1.363 . S
C826 C827 1.370 1_655 S
C826 C830 1.524 . S
C827 C819 1.503 . S
C827 C826 1.370 1_455 S
C827 C828 1.403 . S
C828 C827 1.403 . S
C828 C829 1.404 . S
C828 C831 1.539 . S
C829 C825 1.408 . S
C829 C828 1.404 . S
C829 H841 0.930 . S
C830 C826 1.524 . S
C830 H842 0.956 . S
C830 H843 0.961 . S
C830 H844 0.961 . S
C831 C828 1.539 . S
C831 H845 0.958 . S
C831 H846 0.961 . S
C831 H847 0.960 . S
H832 C816 0.931 . S
H833 C821 0.929 1_455 S
H834 C822 0.960 . S
H835 C822 0.962 . S
H836 C822 0.960 . S
H837 C823 0.961 . S
H838 C823 0.961 . S
H839 C823 0.961 . S
H840 C824 0.931 . S
H841 C829 0.930 . S
H842 C830 0.956 . S
H843 C830 0.961 . S
H844 C830 0.961 . S
H845 C831 0.958 . S
H846 C831 0.961 . S
H847 C831 0.960 . S
C848 C849 1.391 1_455 S
C848 C850 1.394 . S
C848 H864 0.931 . S
C849 C848 1.391 1_655 S
C849 C853 1.376 . S
C850 C848 1.394 . S
C850 C851 1.369 1_455 S
C850 C854 1.531 . S
C851 C850 1.369 1_655 S
C851 C852 1.410 . S
C851 C859 1.503 1_655 S
C852 C851 1.410 . S
C852 C853 1.392 . S
C852 C855 1.511 . S
C853 C849 1.376 . S
C853 C852 1.392 . S
C853 H865 0.929 . S
C854 C850 1.531 . S
C854 H866 0.960 . S
C854 H867 0.962 . S
C854 H868 0.960 . S
C855 C852 1.511 . S
C855 H869 0.961 . S
C855 H870 0.961 . S
C855 H871 0.961 . S
C856 C857 1.370 . S
C856 C858 1.363 . S
C856 H872 0.931 . S
C857 C856 1.370 . S
C857 C861 1.408 . S
C858 C856 1.363 . S
C858 C859 1.370 . S
C858 C862 1.524 . S
C859 C851 1.503 1_455 S
C859 C858 1.370 . S
C859 C860 1.403 1_455 S
C860 C859 1.403 1_655 S
C860 C861 1.404 1_655 S
C860 C863 1.539 . S
C861 C857 1.408 . S
C861 C860 1.404 1_455 S
C861 H873 0.930 . S
C862 C858 1.524 . S
C862 H874 0.956 . S
C862 H875 0.961 . S
C862 H876 0.961 . S
C863 C860 1.539 . S
C863 H877 0.958 . S
C863 H878 0.961 . S
C863 H879 0.960 . S
H864 C848 0.931 . S
H865 C853 0.929 . S
H866 C854 0.960 . S
H867 C854 0.962 . S
H868 C854 0.960 . S
H869 C855 0.961 . S
H870 C855 0.961 . S
H871 C855 0.961 . S
H872 C856 0.931 . S
H873 C861 0.930 . S
H874 C862 0.956 . S
H875 C862 0.961 . S
H876 C862 0.961 . S
H877 C863 0.958 . S
H878 C863 0.961 . S
H879 C863 0.960 . S
C880 C881 1.391 . S
C880 C882 1.394 . S
C880 H896 0.931 . S
C881 C880 1.391 . S
C881 C885 1.376 . S
C882 C880 1.394 . S
C882 C883 1.369 . S
C882 C886 1.531 . S
C883 C882 1.369 . S
C883 C884 1.410 . S
C883 C891 1.503 . S
C884 C883 1.410 . S
C884 C885 1.392 . S
C884 C887 1.511 . S
C885 C881 1.376 . S
C885 C884 1.392 . S
C885 H897 0.929 . S
C886 C882 1.531 . S
C886 H898 0.960 . S
C886 H899 0.962 . S
C886 H900 0.960 . S
C887 C884 1.511 . S
C887 H901 0.961 . S
C887 H902 0.961 . S
C887 H903 0.961 . S
C888 C889 1.370 . S
C888 C890 1.363 . S
C888 H904 0.931 . S
C889 C888 1.370 . S
C889 C893 1.408 . S
C890 C888 1.363 . S
C890 C891 1.370 . S
C890 C894 1.524 . S
C891 C883 1.503 . S
C891 C890 1.370 . S
C891 C892 1.403 . S
C892 C891 1.403 . S
C892 C893 1.404 . S
C892 C895 1.539 . S
C893 C889 1.408 . S
C893 C892 1.404 . S
C893 H905 0.930 . S
C894 C890 1.524 . S
C894 H906 0.956 . S
C894 H907 0.961 . S
C894 H908 0.961 . S
C895 C892 1.539 . S
C895 H909 0.958 . S
C895 H910 0.961 . S
C895 H911 0.960 . S
H896 C880 0.931 . S
H897 C885 0.929 . S
H898 C886 0.960 . S
H899 C886 0.962 . S
H900 C886 0.960 . S
H901 C887 0.961 . S
H902 C887 0.961 . S
H903 C887 0.961 . S
H904 C888 0.931 . S
H905 C893 0.930 . S
H906 C894 0.956 . S
H907 C894 0.961 . S
H908 C894 0.961 . S
H909 C895 0.958 . S
H910 C895 0.961 . S
H911 C895 0.960 . S
C912 C913 1.391 . S
C912 C914 1.394 . S
C912 H928 0.931 . S
C913 C912 1.391 . S
C913 C917 1.376 . S
C914 C912 1.394 . S
C914 C915 1.369 . S
C914 C918 1.531 . S
C915 C914 1.369 . S
C915 C916 1.410 . S
C915 C923 1.503 . S
C916 C915 1.410 . S
C916 C917 1.392 . S
C916 C919 1.511 . S
C917 C913 1.376 . S
C917 C916 1.392 . S
C917 H929 0.929 . S
C918 C914 1.531 . S
C918 H930 0.960 . S
C918 H931 0.962 . S
C918 H932 0.960 . S
C919 C916 1.511 . S
C919 H933 0.961 . S
C919 H934 0.961 . S
C919 H935 0.961 . S
C920 C921 1.370 . S
C920 C922 1.363 . S
C920 H936 0.931 . S
C921 C920 1.370 . S
C921 C925 1.408 . S
C922 C920 1.363 . S
C922 C923 1.370 . S
C922 C926 1.524 . S
C923 C915 1.503 . S
C923 C922 1.370 . S
C923 C924 1.403 . S
C924 C923 1.403 . S
C924 C925 1.404 . S
C924 C927 1.539 . S
C925 C921 1.408 . S
C925 C924 1.404 . S
C925 H937 0.930 . S
C926 C922 1.524 . S
C926 H938 0.956 . S
C926 H939 0.961 . S
C926 H940 0.961 . S
C927 C924 1.539 . S
C927 H941 0.958 . S
C927 H942 0.961 . S
C927 H943 0.960 . S
H928 C912 0.931 . S
H929 C917 0.929 . S
H930 C918 0.960 . S
H931 C918 0.962 . S
H932 C918 0.960 . S
H933 C919 0.961 . S
H934 C919 0.961 . S
H935 C919 0.961 . S
H936 C920 0.931 . S
H937 C925 0.930 . S
H938 C926 0.956 . S
H939 C926 0.961 . S
H940 C926 0.961 . S
H941 C927 0.958 . S
H942 C927 0.961 . S
H943 C927 0.960 . S
C944 C945 1.391 . S
C944 C946 1.394 . S
C944 H960 0.931 . S
C945 C944 1.391 . S
C945 C949 1.376 . S
C946 C944 1.394 . S
C946 C947 1.369 . S
C946 C950 1.531 . S
C947 C946 1.369 . S
C947 C948 1.410 . S
C947 C955 1.503 . S
C948 C947 1.410 . S
C948 C949 1.392 . S
C948 C951 1.511 . S
C949 C945 1.376 . S
C949 C948 1.392 . S
C949 H961 0.929 . S
C950 C946 1.531 . S
C950 H962 0.960 . S
C950 H963 0.962 . S
C950 H964 0.960 . S
C951 C948 1.511 . S
C951 H965 0.961 . S
C951 H966 0.961 . S
C951 H967 0.961 . S
C952 C953 1.370 . S
C952 C954 1.363 . S
C952 H968 0.931 . S
C953 C952 1.370 . S
C953 C957 1.408 . S
C954 C952 1.363 . S
C954 C955 1.370 . S
C954 C958 1.524 . S
C955 C947 1.503 . S
C955 C954 1.370 . S
C955 C956 1.403 . S
C956 C955 1.403 . S
C956 C957 1.404 . S
C956 C959 1.539 . S
C957 C953 1.408 . S
C957 C956 1.404 . S
C957 H969 0.930 . S
C958 C954 1.524 . S
C958 H970 0.956 . S
C958 H971 0.961 . S
C958 H972 0.961 . S
C959 C956 1.539 . S
C959 H973 0.958 . S
C959 H974 0.961 . S
C959 H975 0.960 . S
H960 C944 0.931 . S
H961 C949 0.929 . S
H962 C950 0.960 . S
H963 C950 0.962 . S
H964 C950 0.960 . S
H965 C951 0.961 . S
H966 C951 0.961 . S
H967 C951 0.961 . S
H968 C952 0.931 . S
H969 C957 0.930 . S
H970 C958 0.956 . S
H971 C958 0.961 . S
H972 C958 0.961 . S
H973 C959 0.958 . S
H974 C959 0.961 . S
H975 C959 0.960 . S
C976 C977 1.391 . S
C976 C978 1.394 . S
C976 H992 0.931 . S
C977 C976 1.391 . S
C977 C981 1.376 . S
C978 C976 1.394 . S
C978 C979 1.369 . S
C978 C982 1.531 . S
C979 C978 1.369 . S
C979 C980 1.410 . S
C979 C987 1.503 . S
C980 C979 1.410 . S
C980 C981 1.392 . S
C980 C983 1.511 . S
C981 C977 1.376 . S
C981 C980 1.392 . S
C981 H993 0.929 . S
C982 C978 1.531 . S
C982 H994 0.960 . S
C982 H995 0.962 . S
C982 H996 0.960 . S
C983 C980 1.511 . S
C983 H997 0.961 . S
C983 H998 0.961 . S
C983 H999 0.961 . S
C984 C985 1.370 . S
C984 C986 1.363 . S
C984 H1000 0.931 . S
C985 C984 1.370 . S
C985 C989 1.408 . S
C986 C984 1.363 . S
C986 C987 1.370 . S
C986 C990 1.524 . S
C987 C979 1.503 . S
C987 C986 1.370 . S
C987 C988 1.403 . S
C988 C987 1.403 . S
C988 C989 1.404 . S
C988 C991 1.539 . S
C989 C985 1.408 . S
C989 C988 1.404 . S
C989 H1001 0.930 . S
C990 C986 1.524 . S
C990 H1002 0.956 . S
C990 H1003 0.961 . S
C990 H1004 0.961 . S
C991 C988 1.539 . S
C991 H1005 0.958 . S
C991 H1006 0.961 . S
C991 H1007 0.960 . S
H992 C976 0.931 . S
H993 C981 0.929 . S
H994 C982 0.960 . S
H995 C982 0.962 . S
H996 C982 0.960 . S
H997 C983 0.961 . S
H998 C983 0.961 . S
H999 C983 0.961 . S
H1000 C984 0.931 . S
H1001 C989 0.930 . S
H1002 C990 0.956 . S
H1003 C990 0.961 . S
H1004 C990 0.961 . S
H1005 C991 0.958 . S
H1006 C991 0.961 . S
H1007 C991 0.960 . S
C241 N14 1.144 . S
C249 N6 1.111 1_554 S
C273 N44 1.143 . S
C281 N36 1.110 1_554 S
C305 N74 1.103 . S
C313 N66 1.126 . S
C337 N104 1.144 . S
C345 N96 1.111 . S
C369 N134 1.139 . S
C377 N126 1.114 1_554 S
C401 N156 1.115 1_554 S
C409 N164 1.121 . S
C433 N194 1.131 . S
C441 N186 1.118 . S
C465 N216 1.146 . S
C473 N224 1.110 . S
C497 C57 1.589 . S
C505 C16 1.586 . S
C529 C106 1.588 . S
C537 C87 1.586 . S
C561 C136 1.588 . S
C569 C177 1.587 . S
C593 C207 1.592 . S
C601 C226 1.585 . S
C625 C27 1.735 . S
C633 C166 1.772 . S
C657 C147 1.750 . S
C665 C46 1.767 . S
C689 C76 1.736 . S
C697 C237 1.771 . S
C721 C117 1.750 . S
C729 C196 1.767 . S
C753 C10 1.646 . S
C761 C100 1.656 . S
C785 C40 1.576 . S
C793 C70 1.592 . S
C817 C31 1.625 . S
C825 C61 1.657 . S
C849 C91 1.585 . S
C857 C1 1.586 . S
C881 C130 1.653 . S
C889 C220 1.642 . S
C913 C160 1.576 . S
C921 C190 1.592 . S
C945 C151 1.664 . S
C953 C181 1.645 . S
C977 C211 1.586 . S
C985 C121 1.595 . S
