# Generated by pormake.
# Topology umb, (4)-cn, num edge types: 1
# Building blocks:
#     Node 0, Type 0, BuildingBlock: QUQFOY_clean_sbu_3, # of connection points: 4
#     Node 1, Type 0, BuildingBlock: QUQFOY_clean_sbu_3, # of connection points: 4
#     Node 2, Type 0, BuildingBlock: QUQFOY_clean_sbu_3, # of connection points: 4
#     Node 3, Type 0, BuildingBlock: QUQFOY_clean_sbu_3, # of connection points: 4
#     Node 4, Type 0, BuildingBlock: QUQFOY_clean_sbu_3, # of connection points: 4
#     Node 5, Type 0, BuildingBlock: QUQFOY_clean_sbu_3, # of connection points: 4
#     Node 6, Type 0, BuildingBlock: QUQFOY_clean_sbu_3, # of connection points: 4
#     Node 7, Type 0, BuildingBlock: QUQFOY_clean_sbu_3, # of connection points: 4
#     Node 8, Type 0, BuildingBlock: QUQFOY_clean_sbu_3, # of connection points: 4
#     Node 9, Type 0, BuildingBlock: QUQFOY_clean_sbu_3, # of connection points: 4
#     Node 10, Type 0, BuildingBlock: QUQFOY_clean_sbu_3, # of connection points: 4
#     Node 11, Type 0, BuildingBlock: QUQFOY_clean_sbu_3, # of connection points: 4
#     Edge 12, Type (0, 0), BuildingBlock: CIFDUS_clean_linker_0, # of connection points: 2
#     Edge 13, Type (0, 0), BuildingBlock: CIFDUS_clean_linker_0, # of connection points: 2
#     Edge 14, Type (0, 0), BuildingBlock: CIFDUS_clean_linker_0, # of connection points: 2
#     Edge 15, Type (0, 0), BuildingBlock: CIFDUS_clean_linker_0, # of connection points: 2
#     Edge 16, Type (0, 0), BuildingBlock: CIFDUS_clean_linker_0, # of connection points: 2
#     Edge 17, Type (0, 0), BuildingBlock: CIFDUS_clean_linker_0, # of connection points: 2
#     Edge 18, Type (0, 0), BuildingBlock: CIFDUS_clean_linker_0, # of connection points: 2
#     Edge 19, Type (0, 0), BuildingBlock: CIFDUS_clean_linker_0, # of connection points: 2
#     Edge 20, Type (0, 0), BuildingBlock: CIFDUS_clean_linker_0, # of connection points: 2
#     Edge 21, Type (0, 0), BuildingBlock: CIFDUS_clean_linker_0, # of connection points: 2
#     Edge 22, Type (0, 0), BuildingBlock: CIFDUS_clean_linker_0, # of connection points: 2
#     Edge 23, Type (0, 0), BuildingBlock: CIFDUS_clean_linker_0, # of connection points: 2
#     Edge 24, Type (0, 0), BuildingBlock: CIFDUS_clean_linker_0, # of connection points: 2
#     Edge 25, Type (0, 0), BuildingBlock: CIFDUS_clean_linker_0, # of connection points: 2
#     Edge 26, Type (0, 0), BuildingBlock: CIFDUS_clean_linker_0, # of connection points: 2
#     Edge 27, Type (0, 0), BuildingBlock: CIFDUS_clean_linker_0, # of connection points: 2
#     Edge 28, Type (0, 0), BuildingBlock: CIFDUS_clean_linker_0, # of connection points: 2
#     Edge 29, Type (0, 0), BuildingBlock: CIFDUS_clean_linker_0, # of connection points: 2
#     Edge 30, Type (0, 0), BuildingBlock: CIFDUS_clean_linker_0, # of connection points: 2
#     Edge 31, Type (0, 0), BuildingBlock: CIFDUS_clean_linker_0, # of connection points: 2
#     Edge 32, Type (0, 0), BuildingBlock: CIFDUS_clean_linker_0, # of connection points: 2
#     Edge 33, Type (0, 0), BuildingBlock: CIFDUS_clean_linker_0, # of connection points: 2
#     Edge 34, Type (0, 0), BuildingBlock: CIFDUS_clean_linker_0, # of connection points: 2
#     Edge 35, Type (0, 0), BuildingBlock: CIFDUS_clean_linker_0, # of connection points: 2
# Relax obj value: 0.254
# Max RMSD: 0.248
# Mean RMSD: 0.248
data_MOF--net-umb--node1-QUQFOY_clean_sbu_3--edge1-CIFDUS_clean_linker_0
_symmetry_space_group_name_H-M    P1
_symmetry_Int_Tables_number       1
_symmetry_cell_setting            triclinic
loop_
_symmetry_equiv_pos_as_xyz
'x, y, z'
_cell_length_a     43.313433
_cell_length_b     43.465047
_cell_length_c     34.098821
_cell_angle_alpha  89.860825
_cell_angle_beta   89.986958
_cell_angle_gamma 119.95589
loop_
_atom_site_label
_atom_site_type_symbol
_atom_site_fract_x
_atom_site_fract_y
_atom_site_fract_z
_atom_type_partial_charge
C0 C 0.45166 0.16821 0.26124 0.0
O1 O 0.44247 0.1759 0.29341 0.0
Cd2 Cd 0.47369 0.17318 0.35232 0.0
O3 O 0.47226 0.15532 0.26176 0.0
Cd4 Cd 0.5009 0.13537 0.31019 0.0
C5 C 0.5591 0.22009 0.32059 0.0
O6 O 0.47703 0.1227 0.37922 0.0
O7 O 0.53173 0.13574 0.36776 0.0
O8 O 0.4641 0.07631 0.28568 0.0
C9 C 0.50632 0.1258 0.39206 0.0
O10 O 0.5343 0.21898 0.34162 0.0
C11 C 0.4896 0.07275 0.27266 0.0
O12 O 0.55452 0.19283 0.30182 0.0
O13 O 0.52101 0.09901 0.27657 0.0
C14 C 0.26076 0.45202 0.58966 0.0
O15 O 0.2429 0.44397 0.62122 0.0
Cd16 Cd 0.27784 0.47968 0.6773 0.0
O17 O 0.29435 0.47156 0.59138 0.0
Cd18 Cd 0.34051 0.49769 0.64251 0.0
C19 C 0.32248 0.56148 0.63703 0.0
O20 O 0.32786 0.4828 0.71444 0.0
O21 O 0.37082 0.53489 0.69655 0.0
O22 O 0.36053 0.45599 0.62905 0.0
C23 C 0.35488 0.51279 0.72398 0.0
O24 O 0.29649 0.53978 0.65828 0.0
C25 C 0.39003 0.47904 0.61413 0.0
O26 O 0.34454 0.55305 0.62332 0.0
O27 O 0.39612 0.51082 0.61207 0.0
C28 C 0.78263 0.28094 0.92034 0.0
O29 O 0.80836 0.28236 0.9397 0.0
Cd30 Cd 0.8135 0.3336 0.97829 0.0
O31 O 0.77525 0.30534 0.92598 0.0
Cd32 Cd 0.81658 0.35839 0.97044 0.0
C33 C 0.7417 0.33633 0.98339 0.0
O34 O 0.83327 0.3523 0.0425 0.0
O35 O 0.82103 0.39347 0.02727 0.0
O36 O 0.87424 0.3769 0.93995 0.0
C37 C 0.83028 0.37888 0.05344 0.0
O38 O 0.75087 0.31391 -0.00686 0.0
C39 C 0.8775 0.40549 0.92588 0.0
O40 O 0.76471 0.36512 0.96743 0.0
O41 O 0.85163 0.41105 0.93111 0.0
C42 C 0.49438 0.77506 0.27 0.0
O43 O 0.49458 0.76266 0.3037 0.0
Cd44 Cd 0.46651 0.77329 0.36067 0.0
O45 O 0.48202 0.79593 0.26616 0.0
Cd46 Cd 0.45579 0.82216 0.30992 0.0
C47 C 0.38478 0.74295 0.32119 0.0
O48 O 0.47538 0.83052 0.38016 0.0
O49 O 0.42447 0.82607 0.3659 0.0
O50 O 0.49858 0.88127 0.28796 0.0
C51 C 0.4479 0.83187 0.3916 0.0
O52 O 0.4035 0.73972 0.34788 0.0
C53 C 0.47565 0.88752 0.27233 0.0
O54 O 0.3981 0.76941 0.29783 0.0
O55 O 0.44333 0.86262 0.27312 0.0
C56 C 0.69876 0.51883 0.59764 0.0
O57 O 0.7166 0.5298 0.62905 0.0
Cd58 Cd 0.68478 0.49377 0.68681 0.0
O59 O 0.66611 0.49533 0.59967 0.0
Cd60 Cd 0.62113 0.46434 0.65108 0.0
C61 C 0.6551 0.41202 0.65215 0.0
O62 O 0.63038 0.48365 0.72177 0.0
O63 O 0.59206 0.42882 0.70644 0.0
O64 O 0.59501 0.49877 0.63005 0.0
C65 C 0.60508 0.45284 0.73239 0.0
O66 O 0.67896 0.4369 0.67263 0.0
C67 C 0.56665 0.47259 0.61686 0.0
O68 O 0.62943 0.41455 0.63763 0.0
O69 O 0.56358 0.44196 0.61947 0.0
C70 C 0.15804 0.68945 0.92981 0.0
O71 O 0.15168 0.70208 0.96026 0.0
Cd72 Cd 0.15091 0.6693 0.01937 0.0
O73 O 0.15408 0.6585 0.93154 0.0
Cd74 Cd 0.129 0.60864 0.97905 0.0
C75 C 0.21374 0.64822 -0.00163 0.0
O76 O 0.10666 0.61154 0.04643 0.0
O77 O 0.13165 0.57937 0.03612 0.0
O78 O 0.07246 0.57957 0.94621 0.0
C79 C 0.11485 0.58867 0.05921 0.0
O80 O 0.20666 0.66952 0.01641 0.0
C81 C 0.07453 0.5527 0.93536 0.0
O82 O 0.18987 0.62206 0.97922 0.0
O83 O 0.10296 0.55233 0.94383 0.0
C84 C 0.78756 0.51984 0.39508 0.0
O85 O 0.78019 0.53028 0.36354 0.0
Cd86 Cd 0.77852 0.4962 0.30525 0.0
O87 O 0.79795 0.4973 0.39335 0.0
Cd88 Cd 0.8136 0.46701 0.34292 0.0
C89 C 0.72732 0.41271 0.33729 0.0
O90 O 0.8257 0.48913 0.2731 0.0
O91 O 0.81083 0.43432 0.28649 0.0
O92 O 0.87358 0.50196 0.36576 0.0
C93 C 0.8216 0.45919 0.26144 0.0
O94 O 0.72849 0.43798 0.31732 0.0
C95 C 0.87579 0.47599 0.37965 0.0
O96 O 0.75523 0.41554 0.35307 0.0
O97 O 0.84851 0.44518 0.37647 0.0
C98 C 0.27459 0.78362 0.73978 0.0
O99 O 0.27557 0.80937 0.721 0.0
Cd100 Cd 0.32652 0.81507 0.68081 0.0
O101 O 0.29918 0.77657 0.73311 0.0
Cd102 Cd 0.35168 0.81804 0.68764 0.0
C103 C 0.32949 0.74362 0.67289 0.0
O104 O 0.3439 0.83636 0.6168 0.0
O105 O 0.38435 0.8222 0.62874 0.0
O106 O 0.3721 0.87523 0.71946 0.0
C107 C 0.36972 0.83275 0.60406 0.0
O108 O 0.30681 0.75288 0.66447 0.0
C109 C 0.40126 0.87809 0.73128 0.0
O110 O 0.35855 0.76632 0.68855 0.0
O111 O 0.40624 0.85216 0.72443 0.0
C112 C 0.44919 0.26767 0.06723 0.0
O113 O 0.44311 0.25127 0.03492 0.0
Cd114 Cd 0.47768 0.2872 0.97867 0.0
O115 O 0.46777 0.3013 0.06732 0.0
Cd116 Cd 0.49652 0.35018 0.01919 0.0
C117 C 0.55939 0.33002 0.02022 0.0
O118 O 0.48058 0.33944 0.94746 0.0
O119 O 0.53323 0.38154 0.96478 0.0
O120 O 0.45723 0.37212 0.03725 0.0
C121 C 0.51071 0.36623 0.93763 0.0
O122 O 0.53792 0.30568 -0.00271 0.0
C123 C 0.48168 0.40089 0.05185 0.0
O124 O 0.55093 0.35112 0.03636 0.0
O125 O 0.51315 0.40572 0.05173 0.0
C126 C 0.16267 0.45359 0.39422 0.0
O127 O 0.17689 0.45277 0.36198 0.0
Cd128 Cd 0.16921 0.48216 0.30369 0.0
O129 O 0.14307 0.46757 0.39519 0.0
Cd130 Cd 0.12189 0.49662 0.34961 0.0
C131 C 0.20333 0.5646 0.34013 0.0
O132 O 0.11379 0.47661 0.27942 0.0
O133 O 0.11975 0.52808 0.29348 0.0
O134 O 0.06171 0.45644 0.37074 0.0
C135 C 0.11328 0.50449 0.26793 0.0
O136 O 0.20605 0.54494 0.31442 0.0
C137 C 0.05693 0.48041 0.38588 0.0
O138 O 0.17624 0.5527 0.36258 0.0
O139 O 0.08304 0.51206 0.38499 0.0
C140 C 0.6868 0.17105 0.72868 0.0
O141 O 0.70048 0.17202 0.69548 0.0
Cd142 Cd 0.66457 0.16902 0.63869 0.0
O143 O 0.65377 0.16096 0.73063 0.0
Cd144 Cd 0.60165 0.13547 0.68544 0.0
C145 C 0.62953 0.21939 0.6698 0.0
O146 O 0.60886 0.11869 0.61677 0.0
O147 O 0.57085 0.13648 0.62806 0.0
O148 O 0.57516 0.07702 0.71449 0.0
C149 C 0.58383 0.12372 0.60407 0.0
O150 O 0.65223 0.21689 0.64836 0.0
C151 C 0.54735 0.07676 0.72688 0.0
O152 O 0.60703 0.19317 0.69019 0.0
O153 O 0.54541 0.10467 0.7212 0.0
C154 C 0.50143 0.70727 0.05551 0.0
O155 O 0.50936 0.72229 0.02218 0.0
Cd156 Cd 0.47454 0.68473 0.96742 0.0
O157 O 0.48211 0.67372 0.05725 0.0
Cd158 Cd 0.4562 0.6237 0.01021 0.0
C159 C 0.39274 0.64275 0.00916 0.0
O160 O 0.47278 0.63246 0.93855 0.0
O161 O 0.41996 0.59076 0.95615 0.0
O162 O 0.49669 0.60381 0.03068 0.0
C163 C 0.44285 0.60536 0.92907 0.0
O164 O 0.4143 0.66701 0.98604 0.0
C165 C 0.4726 0.57514 0.04604 0.0
O166 O 0.40105 0.62166 0.02566 0.0
O167 O 0.44084 0.5695 0.0452 0.0
H168 H 0.55949 0.11639 0.4208 0.0
H169 H 0.467 0.12202 0.45713 0.0
H170 H 0.48183 0.11938 0.526 0.0
H171 H 0.52356 0.12014 0.5756 0.0
H172 H 0.61595 0.11435 0.53921 0.0
H173 H 0.59844 0.11207 0.47044 0.0
C174 C 0.54232 0.11673 0.44374 0.0
C175 C 0.51226 0.11974 0.43372 0.0
C176 C 0.55112 0.11533 0.4832 0.0
C177 C 0.4902 0.11972 0.4639 0.0
C178 C 0.4988 0.11838 0.5033 0.0
C179 C 0.53977 0.11804 0.55268 0.0
C180 C 0.5713 0.11773 0.56263 0.0
C181 C 0.52957 0.11689 0.51326 0.0
C182 C 0.59165 0.11462 0.53249 0.0
C183 C 0.58169 0.11349 0.49315 0.0
H184 H 0.41658 0.57035 0.7478 0.0
H185 H 0.32244 0.47852 0.79282 0.0
H186 H 0.34239 0.49856 0.86002 0.0
H187 H 0.38507 0.54358 0.90568 0.0
H188 H 0.47928 0.63528 0.86053 0.0
H189 H 0.4608 0.61368 0.79349 0.0
C190 C 0.40039 0.55451 0.77225 0.0
C191 C 0.36779 0.52294 0.76509 0.0
C192 C 0.41203 0.56627 0.81075 0.0
C193 C 0.34751 0.5028 0.79731 0.0
C194 C 0.35891 0.51436 0.83576 0.0
C195 C 0.40176 0.55886 0.88124 0.0
C196 C 0.43355 0.59127 0.88829 0.0
C197 C 0.39089 0.54627 0.84279 0.0
C198 C 0.4548 0.61037 0.85613 0.0
C199 C 0.44414 0.59804 0.81775 0.0
H200 H 0.82898 0.40406 0.23586 0.0
H201 H 0.82966 0.49837 0.19472 0.0
H202 H 0.83484 0.48273 0.12691 0.0
H203 H 0.83493 0.44016 0.07935 0.0
H204 H 0.83435 0.34593 0.12064 0.0
H205 H 0.83371 0.36389 0.1886 0.0
C206 C 0.83051 0.42143 0.21213 0.0
C207 C 0.82858 0.45229 0.22047 0.0
C208 C 0.83341 0.41219 0.1733 0.0
C209 C 0.83105 0.47455 0.18927 0.0
C210 C 0.83387 0.46549 0.15048 0.0
C211 C 0.83501 0.42363 0.10318 0.0
C212 C 0.83443 0.39149 0.09477 0.0
C213 C 0.83445 0.43407 0.14213 0.0
C214 C 0.83483 0.3707 0.12613 0.0
C215 C 0.83429 0.38092 0.165 0.0
H216 H 0.39404 0.84042 0.42043 0.0
H217 H 0.48573 0.83335 0.45692 0.0
H218 H 0.47051 0.8353 0.5257 0.0
H219 H 0.42925 0.83521 0.57517 0.0
H220 H 0.33724 0.84182 0.53908 0.0
H221 H 0.35473 0.84416 0.47021 0.0
C222 C 0.41092 0.83957 0.44338 0.0
C223 C 0.44096 0.83648 0.43338 0.0
C224 C 0.40186 0.8405 0.48286 0.0
C225 C 0.46254 0.83568 0.46363 0.0
C226 C 0.45375 0.83669 0.50298 0.0
C227 C 0.41306 0.83744 0.55232 0.0
C228 C 0.38173 0.83809 0.56239 0.0
C229 C 0.42317 0.83852 0.5129 0.0
C230 C 0.3614 0.84128 0.53228 0.0
C231 C 0.37135 0.84247 0.49288 0.0
H232 H 0.56736 0.42864 0.91348 0.0
H233 H 0.4773 0.33304 0.86902 0.0
H234 H 0.49803 0.35249 0.80175 0.0
H235 H 0.54345 0.39491 0.75603 0.0
H236 H 0.63327 0.49078 0.80037 0.0
H237 H 0.61071 0.47297 0.86744 0.0
C238 C 0.55203 0.41206 0.88911 0.0
C239 C 0.52081 0.37915 0.89646 0.0
C240 C 0.56419 0.42343 0.85056 0.0
C241 C 0.50128 0.35837 0.86437 0.0
C242 C 0.51326 0.36947 0.82589 0.0
C243 C 0.55812 0.41212 0.78029 0.0
C244 C 0.59033 0.44413 0.77305 0.0
C245 C 0.54495 0.40167 0.8187 0.0
C246 C 0.60856 0.4661 0.80495 0.0
C247 C 0.59567 0.45582 0.84333 0.0
H248 H 0.09858 0.55455 0.2407 0.0
H249 H 0.11688 0.47063 0.20156 0.0
H250 H 0.11609 0.4879 0.13325 0.0
H251 H 0.11528 0.52989 0.08533 0.0
H252 H 0.09711 0.61393 0.12431 0.0
H253 H 0.09238 0.59326 0.19222 0.0
C254 C 0.10207 0.53975 0.21724 0.0
C255 C 0.10816 0.51147 0.22634 0.0
C256 C 0.10176 0.54999 0.17811 0.0
C257 C 0.11218 0.49242 0.19549 0.0
C258 C 0.11189 0.50244 0.15643 0.0
C259 C 0.10994 0.54357 0.1086 0.0
C260 C 0.10693 0.57375 0.0997 0.0
C261 C 0.10748 0.53164 0.14748 0.0
C262 C 0.09955 0.59074 0.13023 0.0
C263 C 0.09704 0.579 0.16909 0.0
H264 H 0.71728 0.34732 0.32389 0.0
H265 H 0.66243 0.4041 0.35298 0.0
H266 H 0.60507 0.34899 0.34969 0.0
H267 H 0.57092 0.2855 0.33698 0.0
H268 H 0.62468 0.22854 0.30351 0.0
H269 H 0.68241 0.28325 0.30908 0.0
C270 C 0.69269 0.34729 0.33008 0.0
C271 C 0.69367 0.37919 0.33931 0.0
C272 C 0.65988 0.31584 0.32658 0.0
C273 C 0.66194 0.37951 0.34622 0.0
C274 C 0.62929 0.34818 0.34411 0.0
C275 C 0.59526 0.28503 0.33083 0.0
C276 C 0.5937 0.25315 0.32003 0.0
C277 C 0.628 0.31634 0.33394 0.0
C278 C 0.62533 0.25294 0.31164 0.0
C279 C 0.65826 0.28407 0.31515 0.0
H280 H 0.37751 0.72389 0.65344 0.0
H281 H 0.26505 0.68378 0.67041 0.0
H282 H 0.25245 0.62369 0.65545 0.0
H283 H 0.27386 0.58243 0.64234 0.0
H284 H 0.38612 0.62197 0.62441 0.0
H285 H 0.39837 0.68287 0.63358 0.0
C286 C 0.35032 0.70188 0.65391 0.0
C287 C 0.32226 0.70779 0.66367 0.0
C288 C 0.34326 0.66762 0.6446 0.0
C289 C 0.28701 0.67952 0.66327 0.0
C290 C 0.2798 0.6453 0.65463 0.0
C291 C 0.30094 0.60445 0.63982 0.0
C292 C 0.3291 0.5979 0.63324 0.0
C293 C 0.30777 0.63904 0.64579 0.0
C294 C 0.36401 0.62652 0.6294 0.0
C295 C 0.37107 0.66123 0.63509 0.0
H296 H 0.5797 0.28138 0.0113 0.0
H297 H 0.62023 0.39243 0.03545 0.0
H298 H 0.68126 0.4044 0.02604 0.0
H299 H 0.72226 0.38387 0.00471 0.0
H300 H 0.68127 0.27252 0.98212 0.0
H301 H 0.6208 0.26 -0.00351 0.0
C302 C 0.60197 0.3081 0.01509 0.0
C303 C 0.59571 0.33606 0.02355 0.0
C304 C 0.63662 0.31478 0.00906 0.0
C305 C 0.62459 0.37049 0.02902 0.0
C306 C 0.65937 0.3774 0.02319 0.0
C307 C 0.69995 0.35696 0.00284 0.0
C308 C 0.70568 0.32919 -0.00829 0.0
C309 C 0.66554 0.34991 0.01199 0.0
C310 C 0.67708 0.29424 -0.00968 0.0
C311 C 0.64267 0.28708 -0.00136 0.0
H312 H 0.33946 0.70863 0.3802 0.0
H313 H 0.34728 0.7146 0.25405 0.0
H314 H 0.28896 0.66054 0.24884 0.0
H315 H 0.2399 0.60812 0.28066 0.0
H316 H 0.23124 0.60301 0.40677 0.0
H317 H 0.28591 0.66082 0.41179 0.0
C318 C 0.32803 0.69829 0.35161 0.0
C319 C 0.34753 0.71485 0.31752 0.0
C320 C 0.29474 0.66748 0.34898 0.0
C321 C 0.33254 0.70198 0.28057 0.0
C322 C 0.29942 0.67107 0.27764 0.0
C323 C 0.24984 0.62 0.30918 0.0
C324 C 0.23233 0.60141 0.34338 0.0
C325 C 0.28094 0.65304 0.31169 0.0
C326 C 0.24464 0.61702 0.38019 0.0
C327 C 0.27586 0.64986 0.38301 0.0
H328 H 0.59977 0.34686 0.66485 0.0
H329 H 0.71152 0.40357 0.63549 0.0
H330 H 0.71334 0.34817 0.63816 0.0
H331 H 0.68351 0.28438 0.65119 0.0
H332 H 0.57291 0.22836 0.68611 0.0
H333 H 0.57027 0.28306 0.67974 0.0
C334 C 0.62427 0.34678 0.65841 0.0
C335 C 0.65532 0.37867 0.64931 0.0
C336 C 0.62541 0.31529 0.66175 0.0
C337 C 0.68731 0.37894 0.64212 0.0
C338 C 0.68837 0.34746 0.64388 0.0
C339 C 0.65885 0.28419 0.65743 0.0
C340 C 0.62844 0.25257 0.669 0.0
C341 C 0.65768 0.31562 0.65415 0.0
C342 C 0.59673 0.25258 0.67744 0.0
C343 C 0.59512 0.2837 0.67351 0.0
H344 H 0.2309 0.59707 0.00689 0.0
H345 H 0.27601 0.71054 -0.00184 0.0
H346 H 0.33609 0.71905 0.00366 0.0
H347 H 0.37536 0.69389 0.00802 0.0
H348 H 0.3306 0.58071 0.02035 0.0
H349 H 0.27034 0.57222 0.01734 0.0
C350 C 0.25401 0.62357 0.00602 0.0
C351 C 0.24953 0.65315 0.00138 0.0
C352 C 0.28818 0.62823 0.01031 0.0
C353 C 0.27923 0.68749 0.00135 0.0
C354 C 0.31341 0.69233 0.00458 0.0
C355 C 0.35234 0.66743 0.01048 0.0
C356 C 0.35705 0.63792 0.01403 0.0
C357 C 0.31813 0.66287 0.00876 0.0
C358 C 0.32733 0.60377 0.01778 0.0
C359 C 0.29301 0.59891 0.01568 0.0
H360 H 0.53789 0.05103 0.26255 0.0
H361 H 0.42602 0.01649 0.25096 0.0
H362 H 0.41251 0.95537 0.24201 0.0
H363 H 0.43114 0.91108 0.24963 0.0
H364 H 0.54245 0.94511 0.26608 0.0
H365 H 0.5576 0.00706 0.26012 0.0
C366 C 0.51069 0.03025 0.25707 0.0
C367 C 0.48292 0.03805 0.2582 0.0
C368 C 0.50295 -0.00501 0.25329 0.0
C369 C 0.44781 0.01097 0.25084 0.0
C370 C 0.44003 0.97601 0.24582 0.0
C371 C 0.4588 0.932 0.25095 0.0
C372 C 0.48552 0.92361 0.25912 0.0
C373 C 0.46718 0.96753 0.24889 0.0
C374 C 0.5213 0.95096 0.26037 0.0
C375 C 0.52999 -0.0136 0.25713 0.0
H376 H 0.45766 0.52434 0.59113 0.0
H377 H 0.38411 0.4135 0.61429 0.0
H378 H 0.43271 0.40052 0.61009 0.0
H379 H 0.49702 0.42242 0.61074 0.0
H380 H 0.57064 0.53408 0.59277 0.0
H381 H 0.52104 0.54491 0.58335 0.0
C382 C 0.45214 0.49722 0.59449 0.0
C383 C 0.41757 0.47006 0.60377 0.0
C384 C 0.48029 0.49017 0.59333 0.0
C385 C 0.41068 0.43498 0.60765 0.0
C386 C 0.43845 0.42754 0.60536 0.0
C387 C 0.50215 0.44895 0.60383 0.0
C388 C 0.53726 0.47751 0.60309 0.0
C389 C 0.47354 0.45519 0.59988 0.0
C390 C 0.54369 0.51177 0.59405 0.0
C391 C 0.51539 0.51799 0.58874 0.0
H392 H 0.93948 0.40434 0.92008 0.0
H393 H 0.89291 0.47027 0.89732 0.0
H394 H 0.95212 0.5221 0.89019 0.0
H395 H 0.01586 0.55006 0.90434 0.0
H396 H 0.06244 0.48483 0.93061 0.0
H397 H 0.0046 0.4313 0.92157 0.0
C398 C 0.94227 0.42986 0.91249 0.0
C399 C 0.91192 0.43368 0.91032 0.0
C400 C -0.02358 0.45978 0.90963 0.0
C401 C 0.9159 0.46676 0.89983 0.0
C402 C 0.94976 0.49647 0.89593 0.0
C403 C 0.01352 0.5241 0.90712 0.0
C404 C 0.04305 0.52132 0.91912 0.0
C405 C -0.01992 0.49357 0.90298 0.0
C406 C 0.03994 0.48762 0.92182 0.0
C407 C 0.00681 0.45701 0.91692 0.0
H408 H 0.03634 0.52764 0.406 0.0
H409 H -0.00273 0.41534 0.39357 0.0
H410 H 0.93599 0.40329 0.39805 0.0
H411 H 0.89426 0.42576 0.39282 0.0
H412 H 0.93396 0.53852 0.40004 0.0
H413 H -0.00583 0.54925 0.41089 0.0
C414 C 0.01445 0.50045 0.40525 0.0
C415 C 0.02121 0.47251 0.39856 0.0
C416 C -0.02064 0.49386 0.40633 0.0
C417 C -0.00735 0.43738 0.39808 0.0
C418 C 0.95761 0.43047 0.40047 0.0
C419 C 0.91596 0.45257 0.39772 0.0
C420 C 0.90993 0.48136 0.39478 0.0
C421 C 0.95069 0.45866 0.4026 0.0
C422 C 0.93815 0.51597 0.40148 0.0
C423 C 0.97258 0.52215 0.40762 0.0
H424 H 0.54686 0.01672 0.74927 0.0
H425 H 0.479 0.06258 0.73753 0.0
H426 H 0.42631 0.004 0.74565 0.0
H427 H 0.40002 0.93925 0.74321 0.0
H428 H 0.46825 0.89351 0.75213 0.0
H429 H 0.52021 0.95256 0.75888 0.0
C430 C 0.52056 0.014 0.7494 0.0
C431 C 0.51675 0.04372 0.74187 0.0
C432 C 0.49042 0.9802 0.75315 0.0
C433 C 0.48261 0.03999 0.74285 0.0
C434 C 0.45244 0.00647 0.74726 0.0
C435 C 0.42614 0.94214 0.74765 0.0
C436 C 0.4304 0.91214 0.74617 0.0
C437 C 0.45605 0.97624 0.75046 0.0
C438 C 0.46431 0.91624 0.75257 0.0
C439 C 0.4941 0.95003 0.75623 0.0
H440 H 0.42519 0.50701 0.06467 0.0
H441 H 0.53798 0.58185 0.05758 0.0
H442 H 0.55098 0.53371 0.06633 0.0
H443 H 0.52994 0.46998 0.06445 0.0
H444 H 0.417 0.39502 0.06556 0.0
H445 H 0.40438 0.44362 0.07142 0.0
C446 C 0.45263 0.51288 0.06592 0.0
C447 C 0.48056 0.54773 0.05976 0.0
C448 C 0.45984 0.485 0.06946 0.0
C449 C 0.51601 0.55507 0.06171 0.0
C450 C 0.52346 0.52757 0.06661 0.0
C451 C 0.5026 0.46425 0.0669 0.0
C452 C 0.47442 0.42913 0.06389 0.0
C453 C 0.49553 0.49232 0.06872 0.0
C454 C 0.43912 0.42198 0.06726 0.0
C455 C 0.43188 0.44973 0.07051 0.0
H456 H 0.43742 0.22143 0.2444 0.0
H457 H 0.44538 0.13576 0.19121 0.0
H458 H 0.43981 0.15597 0.1261 0.0
H459 H 0.44032 0.20227 0.08383 0.0
H460 H 0.43757 0.2908 0.1369 0.0
H461 H 0.43293 0.26513 0.20197 0.0
C462 C 0.43707 0.20673 0.2186 0.0
C463 C 0.44184 0.17712 0.22276 0.0
C464 C 0.43513 0.21929 0.18097 0.0
C465 C 0.44187 0.15869 0.1889 0.0
C466 C 0.43878 0.1703 0.15157 0.0
C467 C 0.43778 0.21546 0.10956 0.0
C468 C 0.43926 0.24841 0.10541 0.0
C469 C 0.43649 0.20119 0.14714 0.0
C470 C 0.43654 0.26544 0.13921 0.0
C471 C 0.43403 0.25083 0.17651 0.0
H472 H 0.22134 0.44778 0.41123 0.0
H473 H 0.12499 0.43604 0.46253 0.0
H474 H 0.1446 0.42944 0.52749 0.0
H475 H 0.19255 0.43486 0.57092 0.0
H476 H 0.29037 0.45012 0.5199 0.0
H477 H 0.26669 0.44696 0.45419 0.0
C478 C 0.20426 0.44291 0.43648 0.0
C479 C 0.17181 0.44263 0.43189 0.0
C480 C 0.2162 0.44015 0.47414 0.0
C481 C 0.1502 0.43662 0.46513 0.0
C482 C 0.16145 0.43293 0.50242 0.0
C483 C 0.20834 0.43662 0.54543 0.0
C484 C 0.24329 0.44292 0.55048 0.0
C485 C 0.19492 0.43582 0.5075 0.0
C486 C 0.26346 0.44547 0.51698 0.0
C487 C 0.24998 0.44379 0.47928 0.0
H488 H 0.80456 0.25732 0.85733 0.0
H489 H 0.71122 0.242 0.91942 0.0
H490 H 0.67295 0.20295 0.86761 0.0
H491 H 0.66616 0.17883 0.8016 0.0
H492 H 0.75905 0.19708 0.73605 0.0
H493 H 0.79709 0.22879 0.79199 0.0
C494 C 0.77581 0.24459 0.85984 0.0
C495 C 0.76066 0.2522 0.89234 0.0
C496 C 0.75385 0.22308 0.82896 0.0
C497 C 0.72342 0.23629 0.89484 0.0
C498 C 0.70153 0.21413 0.86509 0.0
C499 C 0.69467 0.1892 0.7996 0.0
C500 C 0.70958 0.18562 0.76436 0.0
C501 C 0.71646 0.20818 0.8315 0.0
C502 C 0.74669 0.19941 0.76264 0.0
C503 C 0.76854 0.21771 0.79466 0.0
H504 H 0.50375 0.68552 0.13001 0.0
H505 H 0.51702 0.77615 0.06401 0.0
H506 H 0.51913 0.80665 0.12497 0.0
H507 H 0.51033 0.80474 0.1967 0.0
H508 H 0.49879 0.71474 0.26269 0.0
H509 H 0.50335 0.68718 0.20227 0.0
C510 C 0.50777 0.71222 0.12896 0.0
C511 C 0.50988 0.72833 0.09234 0.0
C512 C 0.50897 0.72966 0.16422 0.0
C513 C 0.5154 0.76308 0.09165 0.0
C514 C 0.51634 0.78047 0.12657 0.0
C515 C 0.50941 0.77936 0.19797 0.0
C516 C 0.50381 0.76171 0.23431 0.0
C517 C 0.51212 0.76361 0.16298 0.0
C518 C 0.50307 0.729 0.2353 0.0
C519 C 0.50546 0.71307 0.20065 0.0
H520 H 0.76499 0.53267 0.57533 0.0
H521 H 0.66924 0.5274 0.53125 0.0
H522 H 0.69108 0.53318 0.464 0.0
H523 H 0.73361 0.53133 0.41721 0.0
H524 H 0.82623 0.53018 0.46136 0.0
H525 H 0.80993 0.53581 0.5285 0.0
C526 C 0.74943 0.53382 0.55103 0.0
C527 C 0.71562 0.52979 0.55831 0.0
C528 C 0.7615 0.53556 0.51218 0.0
C529 C 0.69539 0.53052 0.52643 0.0
C530 C 0.7078 0.53366 0.48791 0.0
C531 C 0.75069 0.53332 0.44148 0.0
C532 C 0.78117 0.53049 0.43427 0.0
C533 C 0.74028 0.53499 0.4803 0.0
C534 C 0.80265 0.53233 0.46613 0.0
C535 C 0.79325 0.5354 0.50459 0.0
H536 H 0.17413 0.66864 0.86162 0.0
H537 H 0.17784 0.7597 0.91659 0.0
H538 H 0.21084 0.79669 0.86016 0.0
H539 H 0.24414 0.80426 0.79764 0.0
H540 H 0.2425 0.71274 0.74668 0.0
H541 H 0.20308 0.67499 0.79863 0.0
C542 C 0.18168 0.69649 0.86123 0.0
C543 C 0.17358 0.71128 0.89362 0.0
C544 C 0.20131 0.71768 0.82921 0.0
C545 C 0.18365 0.74748 0.8922 0.0
C546 C 0.2027 0.76872 0.85993 0.0
C547 C 0.23444 0.77594 0.79759 0.0
C548 C 0.24616 0.76128 0.76826 0.0
C549 C 0.21245 0.75431 0.82858 0.0
C550 C 0.23389 0.72464 0.7689 0.0
C551 C 0.21141 0.70302 0.79869 0.0
loop_
_geom_bond_atom_site_label_1
_geom_bond_atom_site_label_2
_geom_bond_distance
_geom_bond_site_symmetry_2
_ccdc_geom_bond_type
C0 O1 1.306 . S
C0 O3 1.160 . S
O1 C0 1.306 . S
O1 Cd2 2.228 . S
Cd2 O1 2.228 . S
Cd2 O6 2.273 . S
Cd2 O10 2.277 . S
O3 C0 1.160 . S
O3 Cd4 2.203 . S
Cd4 O3 2.203 . S
Cd4 O6 2.411 . S
Cd4 O7 2.333 . S
Cd4 O8 2.352 . S
Cd4 O12 2.277 . S
Cd4 O13 2.356 . S
C5 O10 1.209 . S
C5 O12 1.226 . S
O6 Cd2 2.273 . S
O6 Cd4 2.411 . S
O6 C9 1.320 . S
O7 Cd4 2.333 . S
O7 C9 1.214 . S
O8 Cd4 2.352 . S
O8 C11 1.258 . S
C9 O6 1.320 . S
C9 O7 1.214 . S
O10 Cd2 2.277 . S
O10 C5 1.209 . S
C11 O8 1.258 . S
C11 O13 1.282 . S
O12 Cd4 2.277 . S
O12 C5 1.226 . S
O13 Cd4 2.356 . S
O13 C11 1.282 . S
C14 O15 1.306 . S
C14 O17 1.160 . S
O15 C14 1.306 . S
O15 Cd16 2.228 . S
Cd16 O15 2.228 . S
Cd16 O20 2.273 . S
Cd16 O24 2.277 . S
O17 C14 1.160 . S
O17 Cd18 2.203 . S
Cd18 O17 2.203 . S
Cd18 O20 2.411 . S
Cd18 O21 2.333 . S
Cd18 O22 2.352 . S
Cd18 O26 2.277 . S
Cd18 O27 2.356 . S
C19 O24 1.209 . S
C19 O26 1.226 . S
O20 Cd16 2.273 . S
O20 Cd18 2.411 . S
O20 C23 1.320 . S
O21 Cd18 2.333 . S
O21 C23 1.214 . S
O22 Cd18 2.352 . S
O22 C25 1.258 . S
C23 O20 1.320 . S
C23 O21 1.214 . S
O24 Cd16 2.277 . S
O24 C19 1.209 . S
C25 O22 1.258 . S
C25 O27 1.282 . S
O26 Cd18 2.277 . S
O26 C19 1.226 . S
O27 Cd18 2.356 . S
O27 C25 1.282 . S
C28 O29 1.306 . S
C28 O31 1.160 . S
O29 C28 1.306 . S
O29 Cd30 2.228 1_556 S
Cd30 O29 2.228 1_554 S
Cd30 O34 2.273 . S
Cd30 O38 2.277 . S
O31 C28 1.160 . S
O31 Cd32 2.203 . S
Cd32 O31 2.203 . S
Cd32 O34 2.411 1_556 S
Cd32 O35 2.333 1_556 S
Cd32 O36 2.352 . S
Cd32 O40 2.277 . S
Cd32 O41 2.356 . S
C33 O38 1.209 1_556 S
C33 O40 1.226 . S
O34 Cd30 2.273 . S
O34 Cd32 2.411 1_554 S
O34 C37 1.320 . S
O35 Cd32 2.333 1_554 S
O35 C37 1.214 . S
O36 Cd32 2.352 . S
O36 C39 1.258 . S
C37 O34 1.320 . S
C37 O35 1.214 . S
O38 Cd30 2.277 . S
O38 C33 1.209 1_554 S
C39 O36 1.258 . S
C39 O41 1.282 . S
O40 Cd32 2.277 . S
O40 C33 1.226 . S
O41 Cd32 2.356 . S
O41 C39 1.282 . S
C42 O43 1.306 . S
C42 O45 1.160 . S
O43 C42 1.306 . S
O43 Cd44 2.228 . S
Cd44 O43 2.228 . S
Cd44 O48 2.273 . S
Cd44 O52 2.277 . S
O45 C42 1.160 . S
O45 Cd46 2.203 . S
Cd46 O45 2.203 . S
Cd46 O48 2.411 . S
Cd46 O49 2.333 . S
Cd46 O50 2.352 . S
Cd46 O54 2.277 . S
Cd46 O55 2.356 . S
C47 O52 1.209 . S
C47 O54 1.226 . S
O48 Cd44 2.273 . S
O48 Cd46 2.411 . S
O48 C51 1.320 . S
O49 Cd46 2.333 . S
O49 C51 1.214 . S
O50 Cd46 2.352 . S
O50 C53 1.258 . S
C51 O48 1.320 . S
C51 O49 1.214 . S
O52 Cd44 2.277 . S
O52 C47 1.209 . S
C53 O50 1.258 . S
C53 O55 1.282 . S
O54 Cd46 2.277 . S
O54 C47 1.226 . S
O55 Cd46 2.356 . S
O55 C53 1.282 . S
C56 O57 1.306 . S
C56 O59 1.160 . S
O57 C56 1.306 . S
O57 Cd58 2.228 . S
Cd58 O57 2.228 . S
Cd58 O62 2.273 . S
Cd58 O66 2.277 . S
O59 C56 1.160 . S
O59 Cd60 2.203 . S
Cd60 O59 2.203 . S
Cd60 O62 2.411 . S
Cd60 O63 2.333 . S
Cd60 O64 2.352 . S
Cd60 O68 2.277 . S
Cd60 O69 2.356 . S
C61 O66 1.209 . S
C61 O68 1.226 . S
O62 Cd58 2.273 . S
O62 Cd60 2.411 . S
O62 C65 1.320 . S
O63 Cd60 2.333 . S
O63 C65 1.214 . S
O64 Cd60 2.352 . S
O64 C67 1.258 . S
C65 O62 1.320 . S
C65 O63 1.214 . S
O66 Cd58 2.277 . S
O66 C61 1.209 . S
C67 O64 1.258 . S
C67 O69 1.282 . S
O68 Cd60 2.277 . S
O68 C61 1.226 . S
O69 Cd60 2.356 . S
O69 C67 1.282 . S
C70 O71 1.306 . S
C70 O73 1.160 . S
O71 C70 1.306 . S
O71 Cd72 2.228 1_556 S
Cd72 O71 2.228 1_554 S
Cd72 O76 2.273 . S
Cd72 O80 2.277 . S
O73 C70 1.160 . S
O73 Cd74 2.203 . S
Cd74 O73 2.203 . S
Cd74 O76 2.411 1_556 S
Cd74 O77 2.333 1_556 S
Cd74 O78 2.352 . S
Cd74 O82 2.277 . S
Cd74 O83 2.356 . S
C75 O80 1.209 1_556 S
C75 O82 1.226 . S
O76 Cd72 2.273 . S
O76 Cd74 2.411 1_554 S
O76 C79 1.320 . S
O77 Cd74 2.333 1_554 S
O77 C79 1.214 . S
O78 Cd74 2.352 . S
O78 C81 1.258 . S
C79 O76 1.320 . S
C79 O77 1.214 . S
O80 Cd72 2.277 . S
O80 C75 1.209 1_554 S
C81 O78 1.258 . S
C81 O83 1.282 . S
O82 Cd74 2.277 . S
O82 C75 1.226 . S
O83 Cd74 2.356 . S
O83 C81 1.282 . S
C84 O85 1.306 . S
C84 O87 1.160 . S
O85 C84 1.306 . S
O85 Cd86 2.228 . S
Cd86 O85 2.228 . S
Cd86 O90 2.273 . S
Cd86 O94 2.277 . S
O87 C84 1.160 . S
O87 Cd88 2.203 . S
Cd88 O87 2.203 . S
Cd88 O90 2.411 . S
Cd88 O91 2.333 . S
Cd88 O92 2.352 . S
Cd88 O96 2.277 . S
Cd88 O97 2.356 . S
C89 O94 1.209 . S
C89 O96 1.226 . S
O90 Cd86 2.273 . S
O90 Cd88 2.411 . S
O90 C93 1.320 . S
O91 Cd88 2.333 . S
O91 C93 1.214 . S
O92 Cd88 2.352 . S
O92 C95 1.258 . S
C93 O90 1.320 . S
C93 O91 1.214 . S
O94 Cd86 2.277 . S
O94 C89 1.209 . S
C95 O92 1.258 . S
C95 O97 1.282 . S
O96 Cd88 2.277 . S
O96 C89 1.226 . S
O97 Cd88 2.356 . S
O97 C95 1.282 . S
C98 O99 1.306 . S
C98 O101 1.160 . S
O99 C98 1.306 . S
O99 Cd100 2.228 . S
Cd100 O99 2.228 . S
Cd100 O104 2.273 . S
Cd100 O108 2.277 . S
O101 C98 1.160 . S
O101 Cd102 2.203 . S
Cd102 O101 2.203 . S
Cd102 O104 2.411 . S
Cd102 O105 2.333 . S
Cd102 O106 2.352 . S
Cd102 O110 2.277 . S
Cd102 O111 2.356 . S
C103 O108 1.209 . S
C103 O110 1.226 . S
O104 Cd100 2.273 . S
O104 Cd102 2.411 . S
O104 C107 1.320 . S
O105 Cd102 2.333 . S
O105 C107 1.214 . S
O106 Cd102 2.352 . S
O106 C109 1.258 . S
C107 O104 1.320 . S
C107 O105 1.214 . S
O108 Cd100 2.277 . S
O108 C103 1.209 . S
C109 O106 1.258 . S
C109 O111 1.282 . S
O110 Cd102 2.277 . S
O110 C103 1.226 . S
O111 Cd102 2.356 . S
O111 C109 1.282 . S
C112 O113 1.306 . S
C112 O115 1.160 . S
O113 C112 1.306 . S
O113 Cd114 2.228 1_554 S
Cd114 O113 2.228 1_556 S
Cd114 O118 2.273 . S
Cd114 O122 2.277 1_556 S
O115 C112 1.160 . S
O115 Cd116 2.203 . S
Cd116 O115 2.203 . S
Cd116 O118 2.411 1_554 S
Cd116 O119 2.333 1_554 S
Cd116 O120 2.352 . S
Cd116 O124 2.277 . S
Cd116 O125 2.356 . S
C117 O122 1.209 . S
C117 O124 1.226 . S
O118 Cd114 2.273 . S
O118 Cd116 2.411 1_556 S
O118 C121 1.320 . S
O119 Cd116 2.333 1_556 S
O119 C121 1.214 . S
O120 Cd116 2.352 . S
O120 C123 1.258 . S
C121 O118 1.320 . S
C121 O119 1.214 . S
O122 Cd114 2.277 1_554 S
O122 C117 1.209 . S
C123 O120 1.258 . S
C123 O125 1.282 . S
O124 Cd116 2.277 . S
O124 C117 1.226 . S
O125 Cd116 2.356 . S
O125 C123 1.282 . S
C126 O127 1.306 . S
C126 O129 1.160 . S
O127 C126 1.306 . S
O127 Cd128 2.228 . S
Cd128 O127 2.228 . S
Cd128 O132 2.273 . S
Cd128 O136 2.277 . S
O129 C126 1.160 . S
O129 Cd130 2.203 . S
Cd130 O129 2.203 . S
Cd130 O132 2.411 . S
Cd130 O133 2.333 . S
Cd130 O134 2.352 . S
Cd130 O138 2.277 . S
Cd130 O139 2.356 . S
C131 O136 1.209 . S
C131 O138 1.226 . S
O132 Cd128 2.273 . S
O132 Cd130 2.411 . S
O132 C135 1.320 . S
O133 Cd130 2.333 . S
O133 C135 1.214 . S
O134 Cd130 2.352 . S
O134 C137 1.258 . S
C135 O132 1.320 . S
C135 O133 1.214 . S
O136 Cd128 2.277 . S
O136 C131 1.209 . S
C137 O134 1.258 . S
C137 O139 1.282 . S
O138 Cd130 2.277 . S
O138 C131 1.226 . S
O139 Cd130 2.356 . S
O139 C137 1.282 . S
C140 O141 1.306 . S
C140 O143 1.160 . S
O141 C140 1.306 . S
O141 Cd142 2.228 . S
Cd142 O141 2.228 . S
Cd142 O146 2.273 . S
Cd142 O150 2.277 . S
O143 C140 1.160 . S
O143 Cd144 2.203 . S
Cd144 O143 2.203 . S
Cd144 O146 2.411 . S
Cd144 O147 2.333 . S
Cd144 O148 2.352 . S
Cd144 O152 2.277 . S
Cd144 O153 2.356 . S
C145 O150 1.209 . S
C145 O152 1.226 . S
O146 Cd142 2.273 . S
O146 Cd144 2.411 . S
O146 C149 1.320 . S
O147 Cd144 2.333 . S
O147 C149 1.214 . S
O148 Cd144 2.352 . S
O148 C151 1.258 . S
C149 O146 1.320 . S
C149 O147 1.214 . S
O150 Cd142 2.277 . S
O150 C145 1.209 . S
C151 O148 1.258 . S
C151 O153 1.282 . S
O152 Cd144 2.277 . S
O152 C145 1.226 . S
O153 Cd144 2.356 . S
O153 C151 1.282 . S
C154 O155 1.306 . S
C154 O157 1.160 . S
O155 C154 1.306 . S
O155 Cd156 2.228 1_554 S
Cd156 O155 2.228 1_556 S
Cd156 O160 2.273 . S
Cd156 O164 2.277 1_556 S
O157 C154 1.160 . S
O157 Cd158 2.203 . S
Cd158 O157 2.203 . S
Cd158 O160 2.411 1_554 S
Cd158 O161 2.333 1_554 S
Cd158 O162 2.352 . S
Cd158 O166 2.277 . S
Cd158 O167 2.356 . S
C159 O164 1.209 . S
C159 O166 1.226 . S
O160 Cd156 2.273 . S
O160 Cd158 2.411 1_556 S
O160 C163 1.320 . S
O161 Cd158 2.333 1_556 S
O161 C163 1.214 . S
O162 Cd158 2.352 . S
O162 C165 1.258 . S
C163 O160 1.320 . S
C163 O161 1.214 . S
O164 Cd156 2.277 1_554 S
O164 C159 1.209 . S
C165 O162 1.258 . S
C165 O167 1.282 . S
O166 Cd158 2.277 . S
O166 C159 1.226 . S
O167 Cd158 2.356 . S
O167 C165 1.282 . S
H168 C174 0.930 . S
H169 C177 0.930 . S
H170 C178 0.930 . S
H171 C179 0.930 . S
H172 C182 0.930 . S
H173 C183 0.930 . S
C174 H168 0.930 . S
C174 C175 1.355 . S
C174 C176 1.415 . S
C175 C174 1.355 . S
C175 C177 1.419 . S
C176 C174 1.415 . S
C176 C181 1.425 . S
C176 C183 1.409 . S
C177 H169 0.930 . S
C177 C175 1.419 . S
C177 C178 1.362 . S
C178 H170 0.930 . S
C178 C177 1.362 . S
C178 C181 1.409 . S
C179 H171 0.930 . S
C179 C180 1.355 . S
C179 C181 1.415 . S
C180 C179 1.355 . S
C180 C182 1.419 . S
C181 C176 1.425 . S
C181 C178 1.409 . S
C181 C179 1.415 . S
C182 H172 0.930 . S
C182 C180 1.419 . S
C182 C183 1.362 . S
C183 H173 0.930 . S
C183 C176 1.409 . S
C183 C182 1.362 . S
H184 C190 0.930 . S
H185 C193 0.930 . S
H186 C194 0.930 . S
H187 C195 0.930 . S
H188 C198 0.930 . S
H189 C199 0.930 . S
C190 H184 0.930 . S
C190 C191 1.355 . S
C190 C192 1.415 . S
C191 C190 1.355 . S
C191 C193 1.419 . S
C192 C190 1.415 . S
C192 C197 1.425 . S
C192 C199 1.409 . S
C193 H185 0.930 . S
C193 C191 1.419 . S
C193 C194 1.362 . S
C194 H186 0.930 . S
C194 C193 1.362 . S
C194 C197 1.409 . S
C195 H187 0.930 . S
C195 C196 1.355 . S
C195 C197 1.415 . S
C196 C195 1.355 . S
C196 C198 1.419 . S
C197 C192 1.425 . S
C197 C194 1.409 . S
C197 C195 1.415 . S
C198 H188 0.930 . S
C198 C196 1.419 . S
C198 C199 1.362 . S
C199 H189 0.930 . S
C199 C192 1.409 . S
C199 C198 1.362 . S
H200 C206 0.930 . S
H201 C209 0.930 . S
H202 C210 0.930 . S
H203 C211 0.930 . S
H204 C214 0.930 . S
H205 C215 0.930 . S
C206 H200 0.930 . S
C206 C207 1.355 . S
C206 C208 1.415 . S
C207 C206 1.355 . S
C207 C209 1.419 . S
C208 C206 1.415 . S
C208 C213 1.425 . S
C208 C215 1.409 . S
C209 H201 0.930 . S
C209 C207 1.419 . S
C209 C210 1.362 . S
C210 H202 0.930 . S
C210 C209 1.362 . S
C210 C213 1.409 . S
C211 H203 0.930 . S
C211 C212 1.355 . S
C211 C213 1.415 . S
C212 C211 1.355 . S
C212 C214 1.419 . S
C213 C208 1.425 . S
C213 C210 1.409 . S
C213 C211 1.415 . S
C214 H204 0.930 . S
C214 C212 1.419 . S
C214 C215 1.362 . S
C215 H205 0.930 . S
C215 C208 1.409 . S
C215 C214 1.362 . S
H216 C222 0.930 . S
H217 C225 0.930 . S
H218 C226 0.930 . S
H219 C227 0.930 . S
H220 C230 0.930 . S
H221 C231 0.930 . S
C222 H216 0.930 . S
C222 C223 1.355 . S
C222 C224 1.415 . S
C223 C222 1.355 . S
C223 C225 1.419 . S
C224 C222 1.415 . S
C224 C229 1.425 . S
C224 C231 1.409 . S
C225 H217 0.930 . S
C225 C223 1.419 . S
C225 C226 1.362 . S
C226 H218 0.930 . S
C226 C225 1.362 . S
C226 C229 1.409 . S
C227 H219 0.930 . S
C227 C228 1.355 . S
C227 C229 1.415 . S
C228 C227 1.355 . S
C228 C230 1.419 . S
C229 C224 1.425 . S
C229 C226 1.409 . S
C229 C227 1.415 . S
C230 H220 0.930 . S
C230 C228 1.419 . S
C230 C231 1.362 . S
C231 H221 0.930 . S
C231 C224 1.409 . S
C231 C230 1.362 . S
H232 C238 0.930 . S
H233 C241 0.930 . S
H234 C242 0.930 . S
H235 C243 0.930 . S
H236 C246 0.930 . S
H237 C247 0.930 . S
C238 H232 0.930 . S
C238 C239 1.355 . S
C238 C240 1.415 . S
C239 C238 1.355 . S
C239 C241 1.419 . S
C240 C238 1.415 . S
C240 C245 1.425 . S
C240 C247 1.409 . S
C241 H233 0.930 . S
C241 C239 1.419 . S
C241 C242 1.362 . S
C242 H234 0.930 . S
C242 C241 1.362 . S
C242 C245 1.409 . S
C243 H235 0.930 . S
C243 C244 1.355 . S
C243 C245 1.415 . S
C244 C243 1.355 . S
C244 C246 1.419 . S
C245 C240 1.425 . S
C245 C242 1.409 . S
C245 C243 1.415 . S
C246 H236 0.930 . S
C246 C244 1.419 . S
C246 C247 1.362 . S
C247 H237 0.930 . S
C247 C240 1.409 . S
C247 C246 1.362 . S
H248 C254 0.930 . S
H249 C257 0.930 . S
H250 C258 0.930 . S
H251 C259 0.930 . S
H252 C262 0.930 . S
H253 C263 0.930 . S
C254 H248 0.930 . S
C254 C255 1.355 . S
C254 C256 1.415 . S
C255 C254 1.355 . S
C255 C257 1.419 . S
C256 C254 1.415 . S
C256 C261 1.425 . S
C256 C263 1.409 . S
C257 H249 0.930 . S
C257 C255 1.419 . S
C257 C258 1.362 . S
C258 H250 0.930 . S
C258 C257 1.362 . S
C258 C261 1.409 . S
C259 H251 0.930 . S
C259 C260 1.355 . S
C259 C261 1.415 . S
C260 C259 1.355 . S
C260 C262 1.419 . S
C261 C256 1.425 . S
C261 C258 1.409 . S
C261 C259 1.415 . S
C262 H252 0.930 . S
C262 C260 1.419 . S
C262 C263 1.362 . S
C263 H253 0.930 . S
C263 C256 1.409 . S
C263 C262 1.362 . S
H264 C270 0.930 . S
H265 C273 0.930 . S
H266 C274 0.930 . S
H267 C275 0.930 . S
H268 C278 0.930 . S
H269 C279 0.930 . S
C270 H264 0.930 . S
C270 C271 1.355 . S
C270 C272 1.415 . S
C271 C270 1.355 . S
C271 C273 1.419 . S
C272 C270 1.415 . S
C272 C277 1.425 . S
C272 C279 1.409 . S
C273 H265 0.930 . S
C273 C271 1.419 . S
C273 C274 1.362 . S
C274 H266 0.930 . S
C274 C273 1.362 . S
C274 C277 1.409 . S
C275 H267 0.930 . S
C275 C276 1.355 . S
C275 C277 1.415 . S
C276 C275 1.355 . S
C276 C278 1.419 . S
C277 C272 1.425 . S
C277 C274 1.409 . S
C277 C275 1.415 . S
C278 H268 0.930 . S
C278 C276 1.419 . S
C278 C279 1.362 . S
C279 H269 0.930 . S
C279 C272 1.409 . S
C279 C278 1.362 . S
H280 C286 0.930 . S
H281 C289 0.930 . S
H282 C290 0.930 . S
H283 C291 0.930 . S
H284 C294 0.930 . S
H285 C295 0.930 . S
C286 H280 0.930 . S
C286 C287 1.355 . S
C286 C288 1.415 . S
C287 C286 1.355 . S
C287 C289 1.419 . S
C288 C286 1.415 . S
C288 C293 1.425 . S
C288 C295 1.409 . S
C289 H281 0.930 . S
C289 C287 1.419 . S
C289 C290 1.362 . S
C290 H282 0.930 . S
C290 C289 1.362 . S
C290 C293 1.409 . S
C291 H283 0.930 . S
C291 C292 1.355 . S
C291 C293 1.415 . S
C292 C291 1.355 . S
C292 C294 1.419 . S
C293 C288 1.425 . S
C293 C290 1.409 . S
C293 C291 1.415 . S
C294 H284 0.930 . S
C294 C292 1.419 . S
C294 C295 1.362 . S
C295 H285 0.930 . S
C295 C288 1.409 . S
C295 C294 1.362 . S
H296 C302 0.930 . S
H297 C305 0.930 . S
H298 C306 0.930 . S
H299 C307 0.930 . S
H300 C310 0.930 . S
H301 C311 0.930 . S
C302 H296 0.930 . S
C302 C303 1.355 . S
C302 C304 1.415 . S
C303 C302 1.355 . S
C303 C305 1.419 . S
C304 C302 1.415 . S
C304 C309 1.425 . S
C304 C311 1.409 . S
C305 H297 0.930 . S
C305 C303 1.419 . S
C305 C306 1.362 . S
C306 H298 0.930 . S
C306 C305 1.362 . S
C306 C309 1.409 . S
C307 H299 0.930 . S
C307 C308 1.355 . S
C307 C309 1.415 1_556 S
C308 C307 1.355 . S
C308 C310 1.419 . S
C309 C304 1.425 . S
C309 C306 1.409 . S
C309 C307 1.415 1_554 S
C310 H300 0.930 . S
C310 C308 1.419 . S
C310 C311 1.362 1_556 S
C311 H301 0.930 . S
C311 C304 1.409 . S
C311 C310 1.362 1_554 S
H312 C318 0.930 . S
H313 C321 0.930 . S
H314 C322 0.930 . S
H315 C323 0.930 . S
H316 C326 0.930 . S
H317 C327 0.930 . S
C318 H312 0.930 . S
C318 C319 1.355 . S
C318 C320 1.415 . S
C319 C318 1.355 . S
C319 C321 1.419 . S
C320 C318 1.415 . S
C320 C325 1.425 . S
C320 C327 1.409 . S
C321 H313 0.930 . S
C321 C319 1.419 . S
C321 C322 1.362 . S
C322 H314 0.930 . S
C322 C321 1.362 . S
C322 C325 1.409 . S
C323 H315 0.930 . S
C323 C324 1.355 . S
C323 C325 1.415 . S
C324 C323 1.355 . S
C324 C326 1.419 . S
C325 C320 1.425 . S
C325 C322 1.409 . S
C325 C323 1.415 . S
C326 H316 0.930 . S
C326 C324 1.419 . S
C326 C327 1.362 . S
C327 H317 0.930 . S
C327 C320 1.409 . S
C327 C326 1.362 . S
H328 C334 0.930 . S
H329 C337 0.930 . S
H330 C338 0.930 . S
H331 C339 0.930 . S
H332 C342 0.930 . S
H333 C343 0.930 . S
C334 H328 0.930 . S
C334 C335 1.355 . S
C334 C336 1.415 . S
C335 C334 1.355 . S
C335 C337 1.419 . S
C336 C334 1.415 . S
C336 C341 1.425 . S
C336 C343 1.409 . S
C337 H329 0.930 . S
C337 C335 1.419 . S
C337 C338 1.362 . S
C338 H330 0.930 . S
C338 C337 1.362 . S
C338 C341 1.409 . S
C339 H331 0.930 . S
C339 C340 1.355 . S
C339 C341 1.415 . S
C340 C339 1.355 . S
C340 C342 1.419 . S
C341 C336 1.425 . S
C341 C338 1.409 . S
C341 C339 1.415 . S
C342 H332 0.930 . S
C342 C340 1.419 . S
C342 C343 1.362 . S
C343 H333 0.930 . S
C343 C336 1.409 . S
C343 C342 1.362 . S
H344 C350 0.930 . S
H345 C353 0.930 . S
H346 C354 0.930 . S
H347 C355 0.930 . S
H348 C358 0.930 . S
H349 C359 0.930 . S
C350 H344 0.930 . S
C350 C351 1.355 . S
C350 C352 1.415 . S
C351 C350 1.355 . S
C351 C353 1.419 1_556 S
C352 C350 1.415 . S
C352 C357 1.425 1_556 S
C352 C359 1.409 . S
C353 H345 0.930 . S
C353 C351 1.419 1_554 S
C353 C354 1.362 . S
C354 H346 0.930 . S
C354 C353 1.362 . S
C354 C357 1.409 . S
C355 H347 0.930 . S
C355 C356 1.355 . S
C355 C357 1.415 . S
C356 C355 1.355 . S
C356 C358 1.419 1_554 S
C357 C352 1.425 1_554 S
C357 C354 1.409 . S
C357 C355 1.415 . S
C358 H348 0.930 . S
C358 C356 1.419 1_556 S
C358 C359 1.362 . S
C359 H349 0.930 . S
C359 C352 1.409 . S
C359 C358 1.362 . S
H360 C366 0.930 . S
H361 C369 0.930 . S
H362 C370 0.930 . S
H363 C371 0.930 . S
H364 C374 0.930 . S
H365 C375 0.930 . S
C366 H360 0.930 . S
C366 C367 1.355 . S
C366 C368 1.415 . S
C367 C366 1.355 . S
C367 C369 1.419 . S
C368 C366 1.415 . S
C368 C373 1.425 1_545 S
C368 C375 1.409 1_545 S
C369 H361 0.930 . S
C369 C367 1.419 . S
C369 C370 1.362 . S
C370 H362 0.930 . S
C370 C369 1.362 . S
C370 C373 1.409 1_545 S
C371 H363 0.930 . S
C371 C372 1.355 . S
C371 C373 1.415 . S
C372 C371 1.355 . S
C372 C374 1.419 . S
C373 C368 1.425 1_565 S
C373 C370 1.409 1_565 S
C373 C371 1.415 . S
C374 H364 0.930 . S
C374 C372 1.419 . S
C374 C375 1.362 . S
C375 H365 0.930 . S
C375 C368 1.409 1_565 S
C375 C374 1.362 . S
H376 C382 0.930 . S
H377 C385 0.930 . S
H378 C386 0.930 . S
H379 C387 0.930 . S
H380 C390 0.930 . S
H381 C391 0.930 . S
C382 H376 0.930 . S
C382 C383 1.355 . S
C382 C384 1.415 . S
C383 C382 1.355 . S
C383 C385 1.419 . S
C384 C382 1.415 . S
C384 C389 1.425 . S
C384 C391 1.409 . S
C385 H377 0.930 . S
C385 C383 1.419 . S
C385 C386 1.362 . S
C386 H378 0.930 . S
C386 C385 1.362 . S
C386 C389 1.409 . S
C387 H379 0.930 . S
C387 C388 1.355 . S
C387 C389 1.415 . S
C388 C387 1.355 . S
C388 C390 1.419 . S
C389 C384 1.425 . S
C389 C386 1.409 . S
C389 C387 1.415 . S
C390 H380 0.930 . S
C390 C388 1.419 . S
C390 C391 1.362 . S
C391 H381 0.930 . S
C391 C384 1.409 . S
C391 C390 1.362 . S
H392 C398 0.930 . S
H393 C401 0.930 . S
H394 C402 0.930 . S
H395 C403 0.930 . S
H396 C406 0.930 1_554 S
H397 C407 0.930 1_554 S
C398 H392 0.930 . S
C398 C399 1.355 . S
C398 C400 1.422 . S
C399 C398 1.355 . S
C399 C401 1.419 . S
C400 C398 1.422 . S
C400 C405 1.437 1_655 S
C400 C407 1.397 1_655 S
C401 H393 0.930 . S
C401 C399 1.419 . S
C401 C402 1.362 . S
C402 H394 0.930 . S
C402 C401 1.362 . S
C402 C405 1.397 1_655 S
C403 H395 0.930 . S
C403 C404 1.355 . S
C403 C405 1.422 . S
C404 C403 1.355 . S
C404 C406 1.419 . S
C405 C400 1.437 1_455 S
C405 C402 1.397 1_455 S
C405 C403 1.422 . S
C406 H396 0.930 1_556 S
C406 C404 1.419 . S
C406 C407 1.362 . S
C407 H397 0.930 1_556 S
C407 C400 1.397 1_455 S
C407 C406 1.362 . S
H408 C414 0.930 . S
H409 C417 0.930 . S
H410 C418 0.930 1_655 S
H411 C419 0.930 . S
H412 C422 0.930 . S
H413 C423 0.930 1_455 S
C414 H408 0.930 . S
C414 C415 1.355 . S
C414 C416 1.415 . S
C415 C414 1.355 . S
C415 C417 1.419 . S
C416 C414 1.415 . S
C416 C421 1.425 1_455 S
C416 C423 1.409 1_455 S
C417 H409 0.930 . S
C417 C415 1.419 . S
C417 C418 1.362 . S
C418 H410 0.930 1_455 S
C418 C417 1.362 . S
C418 C421 1.409 1_455 S
C419 H411 0.930 . S
C419 C420 1.355 . S
C419 C421 1.415 . S
C420 C419 1.355 . S
C420 C422 1.419 . S
C421 C416 1.425 1_655 S
C421 C418 1.409 1_655 S
C421 C419 1.415 . S
C422 H412 0.930 . S
C422 C420 1.419 . S
C422 C423 1.362 . S
C423 H413 0.930 1_655 S
C423 C416 1.409 1_655 S
C423 C422 1.362 . S
H424 C430 0.930 . S
H425 C433 0.930 . S
H426 C434 0.930 . S
H427 C435 0.930 . S
H428 C438 0.930 . S
H429 C439 0.930 . S
C430 H424 0.930 . S
C430 C431 1.355 . S
C430 C432 1.415 . S
C431 C430 1.355 . S
C431 C433 1.419 . S
C432 C430 1.415 . S
C432 C437 1.425 1_545 S
C432 C439 1.409 1_545 S
C433 H425 0.930 . S
C433 C431 1.419 . S
C433 C434 1.362 . S
C434 H426 0.930 . S
C434 C433 1.362 . S
C434 C437 1.409 1_545 S
C435 H427 0.930 . S
C435 C436 1.355 . S
C435 C437 1.415 . S
C436 C435 1.355 . S
C436 C438 1.419 . S
C437 C432 1.425 1_565 S
C437 C434 1.409 1_565 S
C437 C435 1.415 . S
C438 H428 0.930 . S
C438 C436 1.419 . S
C438 C439 1.362 . S
C439 H429 0.930 . S
C439 C432 1.409 1_565 S
C439 C438 1.362 . S
H440 C446 0.930 . S
H441 C449 0.930 . S
H442 C450 0.930 . S
H443 C451 0.930 . S
H444 C454 0.930 . S
H445 C455 0.930 . S
C446 H440 0.930 . S
C446 C447 1.355 . S
C446 C448 1.415 . S
C447 C446 1.355 . S
C447 C449 1.419 . S
C448 C446 1.415 . S
C448 C453 1.425 . S
C448 C455 1.409 . S
C449 H441 0.930 . S
C449 C447 1.419 . S
C449 C450 1.362 . S
C450 H442 0.930 . S
C450 C449 1.362 . S
C450 C453 1.409 . S
C451 H443 0.930 . S
C451 C452 1.355 . S
C451 C453 1.415 . S
C452 C451 1.355 . S
C452 C454 1.419 . S
C453 C448 1.425 . S
C453 C450 1.409 . S
C453 C451 1.415 . S
C454 H444 0.930 . S
C454 C452 1.419 . S
C454 C455 1.362 . S
C455 H445 0.930 . S
C455 C448 1.409 . S
C455 C454 1.362 . S
H456 C462 0.930 . S
H457 C465 0.930 . S
H458 C466 0.930 . S
H459 C467 0.930 . S
H460 C470 0.930 . S
H461 C471 0.930 . S
C462 H456 0.930 . S
C462 C463 1.355 . S
C462 C464 1.415 . S
C463 C462 1.355 . S
C463 C465 1.419 . S
C464 C462 1.415 . S
C464 C469 1.425 . S
C464 C471 1.409 . S
C465 H457 0.930 . S
C465 C463 1.419 . S
C465 C466 1.362 . S
C466 H458 0.930 . S
C466 C465 1.362 . S
C466 C469 1.409 . S
C467 H459 0.930 . S
C467 C468 1.355 . S
C467 C469 1.415 . S
C468 C467 1.355 . S
C468 C470 1.419 . S
C469 C464 1.425 . S
C469 C466 1.409 . S
C469 C467 1.415 . S
C470 H460 0.930 . S
C470 C468 1.419 . S
C470 C471 1.362 . S
C471 H461 0.930 . S
C471 C464 1.409 . S
C471 C470 1.362 . S
H472 C478 0.930 . S
H473 C481 0.930 . S
H474 C482 0.930 . S
H475 C483 0.930 . S
H476 C486 0.930 . S
H477 C487 0.930 . S
C478 H472 0.930 . S
C478 C479 1.355 . S
C478 C480 1.415 . S
C479 C478 1.355 . S
C479 C481 1.419 . S
C480 C478 1.415 . S
C480 C485 1.425 . S
C480 C487 1.409 . S
C481 H473 0.930 . S
C481 C479 1.419 . S
C481 C482 1.362 . S
C482 H474 0.930 . S
C482 C481 1.362 . S
C482 C485 1.409 . S
C483 H475 0.930 . S
C483 C484 1.355 . S
C483 C485 1.415 . S
C484 C483 1.355 . S
C484 C486 1.419 . S
C485 C480 1.425 . S
C485 C482 1.409 . S
C485 C483 1.415 . S
C486 H476 0.930 . S
C486 C484 1.419 . S
C486 C487 1.362 . S
C487 H477 0.930 . S
C487 C480 1.409 . S
C487 C486 1.362 . S
H488 C494 0.930 . S
H489 C497 0.930 . S
H490 C498 0.930 . S
H491 C499 0.930 . S
H492 C502 0.930 . S
H493 C503 0.930 . S
C494 H488 0.930 . S
C494 C495 1.355 . S
C494 C496 1.415 . S
C495 C494 1.355 . S
C495 C497 1.419 . S
C496 C494 1.415 . S
C496 C501 1.425 . S
C496 C503 1.409 . S
C497 H489 0.930 . S
C497 C495 1.419 . S
C497 C498 1.362 . S
C498 H490 0.930 . S
C498 C497 1.362 . S
C498 C501 1.409 . S
C499 H491 0.930 . S
C499 C500 1.355 . S
C499 C501 1.415 . S
C500 C499 1.355 . S
C500 C502 1.419 . S
C501 C496 1.425 . S
C501 C498 1.409 . S
C501 C499 1.415 . S
C502 H492 0.930 . S
C502 C500 1.419 . S
C502 C503 1.362 . S
C503 H493 0.930 . S
C503 C496 1.409 . S
C503 C502 1.362 . S
H504 C510 0.930 . S
H505 C513 0.930 . S
H506 C514 0.930 . S
H507 C515 0.930 . S
H508 C518 0.930 . S
H509 C519 0.930 . S
C510 H504 0.930 . S
C510 C511 1.355 . S
C510 C512 1.415 . S
C511 C510 1.355 . S
C511 C513 1.419 . S
C512 C510 1.415 . S
C512 C517 1.425 . S
C512 C519 1.409 . S
C513 H505 0.930 . S
C513 C511 1.419 . S
C513 C514 1.362 . S
C514 H506 0.930 . S
C514 C513 1.362 . S
C514 C517 1.409 . S
C515 H507 0.930 . S
C515 C516 1.355 . S
C515 C517 1.415 . S
C516 C515 1.355 . S
C516 C518 1.419 . S
C517 C512 1.425 . S
C517 C514 1.409 . S
C517 C515 1.415 . S
C518 H508 0.930 . S
C518 C516 1.419 . S
C518 C519 1.362 . S
C519 H509 0.930 . S
C519 C512 1.409 . S
C519 C518 1.362 . S
H520 C526 0.930 . S
H521 C529 0.930 . S
H522 C530 0.930 . S
H523 C531 0.930 . S
H524 C534 0.930 . S
H525 C535 0.930 . S
C526 H520 0.930 . S
C526 C527 1.355 . S
C526 C528 1.415 . S
C527 C526 1.355 . S
C527 C529 1.419 . S
C528 C526 1.415 . S
C528 C533 1.425 . S
C528 C535 1.409 . S
C529 H521 0.930 . S
C529 C527 1.419 . S
C529 C530 1.362 . S
C530 H522 0.930 . S
C530 C529 1.362 . S
C530 C533 1.409 . S
C531 H523 0.930 . S
C531 C532 1.355 . S
C531 C533 1.415 . S
C532 C531 1.355 . S
C532 C534 1.419 . S
C533 C528 1.425 . S
C533 C530 1.409 . S
C533 C531 1.415 . S
C534 H524 0.930 . S
C534 C532 1.419 . S
C534 C535 1.362 . S
C535 H525 0.930 . S
C535 C528 1.409 . S
C535 C534 1.362 . S
H536 C542 0.930 . S
H537 C545 0.930 . S
H538 C546 0.930 . S
H539 C547 0.930 . S
H540 C550 0.930 . S
H541 C551 0.930 . S
C542 H536 0.930 . S
C542 C543 1.355 . S
C542 C544 1.415 . S
C543 C542 1.355 . S
C543 C545 1.419 . S
C544 C542 1.415 . S
C544 C549 1.425 . S
C544 C551 1.409 . S
C545 H537 0.930 . S
C545 C543 1.419 . S
C545 C546 1.362 . S
C546 H538 0.930 . S
C546 C545 1.362 . S
C546 C549 1.409 . S
C547 H539 0.930 . S
C547 C548 1.355 . S
C547 C549 1.415 . S
C548 C547 1.355 . S
C548 C550 1.419 . S
C549 C544 1.425 . S
C549 C546 1.409 . S
C549 C547 1.415 . S
C550 H540 0.930 . S
C550 C548 1.419 . S
C550 C551 1.362 . S
C551 H541 0.930 . S
C551 C544 1.409 . S
C551 C550 1.362 . S
C175 C9 1.643 . S
C180 C149 1.649 . S
C191 C23 1.568 . S
C196 C163 1.573 . S
C207 C93 1.584 . S
C212 C37 1.578 . S
C223 C51 1.663 . S
C228 C107 1.664 . S
C239 C121 1.580 . S
C244 C65 1.575 . S
C255 C135 1.597 . S
C260 C79 1.590 . S
C271 C89 0.538 . S
C276 C5 0.570 . S
C287 C103 0.532 . S
C292 C19 0.546 . S
C303 C117 0.622 . S
C308 C33 0.582 . S
C319 C47 0.566 . S
C324 C131 0.608 . S
C335 C61 0.538 . S
C340 C145 0.571 . S
C351 C75 0.550 . S
C356 C159 0.532 . S
C367 C11 1.436 . S
C372 C53 1.403 . S
C383 C25 1.444 . S
C388 C67 1.446 . S
C399 C39 1.411 . S
C404 C81 1.404 . S
C415 C137 1.452 . S
C420 C95 1.432 . S
C431 C151 1.402 . S
C436 C109 1.434 . S
C447 C165 1.443 . S
C452 C123 1.445 . S
C463 C0 1.562 . S
C468 C112 1.521 . S
C479 C126 1.558 . S
C484 C14 1.527 . S
C495 C28 1.503 . S
C500 C140 1.568 . S
C511 C154 1.502 . S
C516 C42 1.567 . S
C527 C56 1.541 . S
C532 C84 1.547 . S
C543 C70 1.567 . S
C548 C98 1.502 . S
