# Generated by pormake.
# Topology ukh, (4)-cn, num edge types: 1
# Building blocks:
#     Node 0, Type 0, BuildingBlock: NAHDIM_clean_sbu_0, # of connection points: 4
#     Node 1, Type 0, BuildingBlock: NAHDIM_clean_sbu_0, # of connection points: 4
#     Node 2, Type 0, BuildingBlock: NAHDIM_clean_sbu_0, # of connection points: 4
#     Node 3, Type 0, BuildingBlock: NAHDIM_clean_sbu_0, # of connection points: 4
#     Node 4, Type 0, BuildingBlock: NAHDIM_clean_sbu_0, # of connection points: 4
#     Node 5, Type 0, BuildingBlock: NAHDIM_clean_sbu_0, # of connection points: 4
#     Node 6, Type 0, BuildingBlock: NAHDIM_clean_sbu_0, # of connection points: 4
#     Node 7, Type 0, BuildingBlock: NAHDIM_clean_sbu_0, # of connection points: 4
#     Node 8, Type 0, BuildingBlock: NAHDIM_clean_sbu_0, # of connection points: 4
#     Node 9, Type 0, BuildingBlock: NAHDIM_clean_sbu_0, # of connection points: 4
#     Node 10, Type 0, BuildingBlock: NAHDIM_clean_sbu_0, # of connection points: 4
#     Node 11, Type 0, BuildingBlock: NAHDIM_clean_sbu_0, # of connection points: 4
#     Edge 12, Type (0, 0), BuildingBlock: CIFDUS_clean_linker_0, # of connection points: 2
#     Edge 13, Type (0, 0), BuildingBlock: CIFDUS_clean_linker_0, # of connection points: 2
#     Edge 14, Type (0, 0), BuildingBlock: CIFDUS_clean_linker_0, # of connection points: 2
#     Edge 15, Type (0, 0), BuildingBlock: CIFDUS_clean_linker_0, # of connection points: 2
#     Edge 16, Type (0, 0), BuildingBlock: CIFDUS_clean_linker_0, # of connection points: 2
#     Edge 17, Type (0, 0), BuildingBlock: CIFDUS_clean_linker_0, # of connection points: 2
#     Edge 18, Type (0, 0), BuildingBlock: CIFDUS_clean_linker_0, # of connection points: 2
#     Edge 19, Type (0, 0), BuildingBlock: CIFDUS_clean_linker_0, # of connection points: 2
#     Edge 20, Type (0, 0), BuildingBlock: CIFDUS_clean_linker_0, # of connection points: 2
#     Edge 21, Type (0, 0), BuildingBlock: CIFDUS_clean_linker_0, # of connection points: 2
#     Edge 22, Type (0, 0), BuildingBlock: CIFDUS_clean_linker_0, # of connection points: 2
#     Edge 23, Type (0, 0), BuildingBlock: CIFDUS_clean_linker_0, # of connection points: 2
#     Edge 24, Type (0, 0), BuildingBlock: CIFDUS_clean_linker_0, # of connection points: 2
#     Edge 25, Type (0, 0), BuildingBlock: CIFDUS_clean_linker_0, # of connection points: 2
#     Edge 26, Type (0, 0), BuildingBlock: CIFDUS_clean_linker_0, # of connection points: 2
#     Edge 27, Type (0, 0), BuildingBlock: CIFDUS_clean_linker_0, # of connection points: 2
#     Edge 28, Type (0, 0), BuildingBlock: CIFDUS_clean_linker_0, # of connection points: 2
#     Edge 29, Type (0, 0), BuildingBlock: CIFDUS_clean_linker_0, # of connection points: 2
#     Edge 30, Type (0, 0), BuildingBlock: CIFDUS_clean_linker_0, # of connection points: 2
#     Edge 31, Type (0, 0), BuildingBlock: CIFDUS_clean_linker_0, # of connection points: 2
#     Edge 32, Type (0, 0), BuildingBlock: CIFDUS_clean_linker_0, # of connection points: 2
#     Edge 33, Type (0, 0), BuildingBlock: CIFDUS_clean_linker_0, # of connection points: 2
#     Edge 34, Type (0, 0), BuildingBlock: CIFDUS_clean_linker_0, # of connection points: 2
#     Edge 35, Type (0, 0), BuildingBlock: CIFDUS_clean_linker_0, # of connection points: 2
# Relax obj value: 0.182
# Max RMSD: 0.212
# Mean RMSD: 0.212
data_MOF--net-ukh--node1-NAHDIM_clean_sbu_0--edge1-CIFDUS_clean_linker_0
_symmetry_space_group_name_H-M    P1
_symmetry_Int_Tables_number       1
_symmetry_cell_setting            triclinic
loop_
_symmetry_equiv_pos_as_xyz
'x, y, z'
_cell_length_a     28.409527
_cell_length_b     28.384026
_cell_length_c     52.345956
_cell_angle_alpha  90.033631
_cell_angle_beta   90.123098
_cell_angle_gamma 119.62634
loop_
_atom_site_label
_atom_site_type_symbol
_atom_site_fract_x
_atom_site_fract_y
_atom_site_fract_z
_atom_type_partial_charge
C0 C 0.45381 0.35136 0.03005 0.0
O1 O 0.4657 0.31702 0.04115 0.0
O2 O 0.27866 0.24562 0.01331 0.0
Zn3 Zn 0.35021 0.25646 0.02571 0.0
O4 O 0.34574 0.23865 0.06298 0.0
C5 C 0.35231 0.19281 0.98396 0.0
O6 O 0.33966 0.22462 0.97097 0.0
O7 O 0.40681 0.33387 0.02071 0.0
C8 C 0.32187 0.18929 0.06985 0.0
O9 O 0.29856 0.15123 0.05242 0.0
C10 C 0.25373 0.26605 0.02487 0.0
O11 O 0.27517 0.29485 0.04566 0.0
O12 O 0.3651 0.20344 0.00733 0.0
C13 C 0.0772 0.3993 0.36421 0.0
O14 O 0.039 0.35655 0.3759 0.0
O15 O 0.04684 0.27072 0.35718 0.0
Zn16 Zn 0.11816 0.3308 0.37017 0.0
O17 O 0.12224 0.33287 0.40868 0.0
C18 C 0.17814 0.27802 0.36861 0.0
O19 O 0.14306 0.25354 0.38702 0.0
O20 O 0.12138 0.40029 0.35883 0.0
C21 C 0.1694 0.35698 0.41848 0.0
O22 O 0.21179 0.37965 0.4034 0.0
C23 C 0.01482 0.22651 0.36823 0.0
O24 O 0.02777 0.21549 0.39067 0.0
O25 O 0.17697 0.31659 0.35673 0.0
C26 C 0.60398 0.00438 0.71093 0.0
O27 O 0.60635 0.95994 0.71501 0.0
O28 O 0.70407 0.97683 0.69391 0.0
Zn29 Zn 0.71704 0.04651 0.71014 0.0
O30 O 0.73842 0.0499 0.74708 0.0
C31 C 0.82214 0.14096 0.69922 0.0
O32 O 0.832 0.13772 0.72346 0.0
O33 O 0.64776 0.04898 0.70818 0.0
C34 C 0.74293 0.08925 0.76051 0.0
O35 O 0.73276 0.12527 0.74993 0.0
C36 C 0.7426 0.97061 0.68557 0.0
O37 O 0.79274 0.00989 0.68864 0.0
O38 O 0.77601 0.1077 0.68995 0.0
C39 C 0.6117 0.67287 0.04365 0.0
O40 O 0.65752 0.68882 0.05591 0.0
O41 O 0.72556 0.79551 0.02934 0.0
Zn42 Zn 0.6571 0.78368 0.04634 0.0
O43 O 0.66461 0.78968 0.08445 0.0
C44 C 0.64318 0.852 0.01047 0.0
O45 O 0.6428 0.81692 0.99396 0.0
O46 O 0.59904 0.70829 0.03703 0.0
C47 C 0.69742 0.83427 0.09513 0.0
O48 O 0.7285 0.87636 0.08084 0.0
C49 C 0.76516 0.79495 0.04035 0.0
O50 O 0.76386 0.78776 0.06518 0.0
O51 O 0.64381 0.84284 0.03415 0.0
C52 C 0.98149 0.6189 0.35867 0.0
O53 O 0.0236 0.66768 0.36104 0.0
O54 O 0.99219 0.74461 0.35508 0.0
Zn55 Zn 0.92826 0.67874 0.36993 0.0
O56 O 0.92782 0.68409 0.40806 0.0
C57 C 0.83551 0.66131 0.33686 0.0
O58 O 0.85696 0.64652 0.3185 0.0
O59 O 0.93418 0.61276 0.361 0.0
C60 C 0.94418 0.72847 0.42001 0.0
O61 O 0.96646 0.77423 0.40723 0.0
C62 C 0.99024 0.78177 0.34242 0.0
O63 O 0.94345 0.77971 0.33895 0.0
O64 O 0.85863 0.67437 0.35853 0.0
C65 C 0.29787 0.94159 0.71063 0.0
O66 O 0.29499 0.98519 0.71625 0.0
O67 O 0.18424 0.95796 0.696 0.0
Zn68 Zn 0.18398 0.89509 0.71411 0.0
O69 O 0.17548 0.89944 0.75198 0.0
C70 C 0.07546 0.80941 0.71134 0.0
O71 O 0.07089 0.83869 0.72959 0.0
O72 O 0.25435 0.89663 0.70811 0.0
C73 C 0.1668 0.85888 0.76557 0.0
O74 O 0.1649 0.81641 0.75448 0.0
C75 C 0.19201 0.0 0.70814 0.0
O76 O 0.19955 0.00218 0.73298 0.0
O77 O 0.12146 0.82559 0.70112 0.0
C78 C 0.64335 0.56699 0.62379 0.0
O79 O 0.66133 0.60263 0.64247 0.0
O80 O 0.76203 0.70084 0.61447 0.0
Zn81 Zn 0.75343 0.62849 0.60453 0.0
O82 O 0.78112 0.63245 0.56894 0.0
C83 C 0.83902 0.60903 0.62279 0.0
O84 O 0.84316 0.59813 0.59878 0.0
O85 O 0.67571 0.56977 0.60638 0.0
C86 C 0.82185 0.67521 0.56064 0.0
O87 O 0.84565 0.71807 0.5755 0.0
C88 C 0.72726 0.71642 0.61263 0.0
O89 O 0.67972 0.68411 0.60236 0.0
O90 O 0.80045 0.61697 0.62934 0.0
C91 C 0.05642 0.66043 0.97336 0.0
O92 O 0.01701 0.66948 0.96663 0.0
O93 O 0.04868 0.77561 0.98538 0.0
Zn94 Zn 0.10884 0.77166 0.96671 0.0
O95 O 0.10108 0.77093 0.92827 0.0
C96 C 0.17866 0.88049 0.97898 0.0
O97 O 0.13164 0.87865 0.97791 0.0
O98 O 0.10401 0.7006 0.97572 0.0
C99 C 0.11056 0.81224 0.91505 0.0
O100 O 0.12226 0.85772 0.92665 0.0
C101 C 0.01108 0.78059 0.97482 0.0
O102 O 0.0094 0.78294 0.9498 0.0
O103 O 0.1808 0.83716 0.97596 0.0
C104 C 0.40235 0.04195 0.28627 0.0
O105 O 0.36062 0.02416 0.30169 0.0
O106 O 0.27628 0.0291 0.27221 0.0
Zn107 Zn 0.34731 0.09141 0.26098 0.0
O108 O 0.34367 0.10443 0.22362 0.0
C109 C 0.34222 0.15329 0.30271 0.0
O110 O 0.3312 0.10875 0.31509 0.0
O111 O 0.40655 0.0734 0.26801 0.0
C112 C 0.31771 0.06674 0.20754 0.0
O113 O 0.29329 0.01609 0.21524 0.0
C114 C 0.23288 0.03151 0.27063 0.0
O115 O 0.23436 0.07439 0.26029 0.0
O116 O 0.3558 0.15735 0.27938 0.0
C117 C 0.3214 0.39223 0.61619 0.0
O118 O 0.30669 0.3506 0.60082 0.0
O119 O 0.20832 0.26938 0.62931 0.0
Zn120 Zn 0.21049 0.33803 0.61803 0.0
O121 O 0.19864 0.33859 0.58 0.0
C122 C 0.1038 0.30205 0.63048 0.0
O123 O 0.10033 0.27113 0.61105 0.0
O124 O 0.28475 0.39849 0.62693 0.0
C125 C 0.1718 0.35942 0.57061 0.0
O126 O 0.15134 0.38141 0.58586 0.0
C127 C 0.19509 0.22652 0.61656 0.0
O128 O 0.18178 0.22422 0.59235 0.0
O129 O 0.15032 0.33921 0.63757 0.0
C130 C 0.95226 0.34472 0.9625 0.0
O131 O 0.9934 0.33667 0.9586 0.0
O132 O 0.96026 0.22846 0.96188 0.0
Zn133 Zn 0.89529 0.23283 0.94944 0.0
O134 O 0.88645 0.22576 0.91124 0.0
C135 C 0.81251 0.165 0.98721 0.0
O136 O 0.83993 0.20395 0.00378 0.0
O137 O 0.90436 0.30513 0.96 0.0
C138 C 0.86282 0.17882 0.90116 0.0
O139 O 0.84847 0.13623 0.91576 0.0
C140 C 0.98507 0.20821 0.95003 0.0
O141 O 0.96767 0.18618 0.92744 0.0
O142 O 0.82855 0.17072 0.96423 0.0
C143 C 0.57756 0.89766 0.31422 0.0
O144 O 0.58856 0.88262 0.33612 0.0
O145 O 0.7269 0.93491 0.31085 0.0
Zn146 Zn 0.66222 0.87881 0.29159 0.0
O147 O 0.67931 0.8789 0.25436 0.0
C148 C 0.65688 0.80101 0.32806 0.0
O149 O 0.66593 0.83993 0.3443 0.0
O150 O 0.60177 0.89625 0.2941 0.0
C151 C 0.7222 0.91245 0.24278 0.0
O152 O 0.76111 0.95303 0.25542 0.0
C153 C 0.74268 0.98522 0.30973 0.0
O154 O 0.71659 0.0022 0.29501 0.0
O155 O 0.64699 0.80624 0.30488 0.0
H156 H 0.63385 0.59187 0.05205 0.0
H157 H 0.5107 0.62341 0.02171 0.0
H158 H 0.45226 0.52662 0.01319 0.0
H159 H 0.43494 0.43295 0.01616 0.0
H160 H 0.55815 0.40221 0.04725 0.0
H161 H 0.61816 0.49924 0.05341 0.0
C162 C 0.59425 0.57772 0.04353 0.0
C163 C 0.57647 0.61476 0.03771 0.0
C164 C 0.56101 0.52225 0.03877 0.0
C165 C 0.52524 0.5957 0.02648 0.0
C166 C 0.49186 0.54039 0.02159 0.0
C167 C 0.47513 0.44746 0.02405 0.0
C168 C 0.49194 0.41031 0.03134 0.0
C169 C 0.50917 0.50328 0.02788 0.0
C170 C 0.54411 0.42986 0.04155 0.0
C171 C 0.57841 0.48534 0.04515 0.0
H172 H 0.98153 0.39764 0.36296 0.0
H173 H 0.15313 0.50438 0.35312 0.0
H174 H 0.13792 0.58177 0.34864 0.0
H175 H 0.0764 0.61947 0.35091 0.0
H176 H 0.90484 0.51174 0.36092 0.0
H177 H 0.91958 0.43406 0.36173 0.0
C178 C 0.01566 0.4378 0.35969 0.0
C179 C 0.06848 0.44547 0.35872 0.0
C180 C 0.00661 0.48182 0.35725 0.0
C181 C 0.11213 0.49752 0.35403 0.0
C182 C 0.10344 0.54174 0.35156 0.0
C183 C 0.04214 0.57896 0.35304 0.0
C184 C 0.98964 0.57151 0.35616 0.0
C185 C 0.05094 0.53445 0.35366 0.0
C186 C 0.94567 0.51869 0.35861 0.0
C187 C 0.95407 0.47424 0.35916 0.0
H188 H 0.39701 0.03194 0.7107 0.0
H189 H 0.3181 0.85734 0.70646 0.0
H190 H 0.40605 0.86167 0.70583 0.0
H191 H 0.505 0.91471 0.70779 0.0
H192 H 0.58421 0.08934 0.71144 0.0
H193 H 0.49625 0.08525 0.71096 0.0
C194 C 0.39901 0.99482 0.70955 0.0
C195 C 0.35107 0.9444 0.70877 0.0
C196 C 0.44968 -0.00242 0.70918 0.0
C197 C 0.35439 0.8967 0.7071 0.0
C198 C 0.40465 0.89911 0.7068 0.0
C199 C 0.50307 0.95192 0.70847 0.0
C200 C 0.55102 0.00222 0.70982 0.0
C201 C 0.4525 0.94929 0.70806 0.0
C202 C 0.54785 0.05008 0.71042 0.0
C203 C 0.49759 0.04778 0.71018 0.0
H204 H 0.55922 0.56883 0.64772 0.0
H205 H 0.59674 0.47663 0.59402 0.0
H206 H 0.50048 0.41442 0.58729 0.0
H207 H 0.4062 0.38784 0.59549 0.0
H208 H 0.36718 0.48032 0.64828 0.0
H209 H 0.4637 0.54104 0.65643 0.0
C210 C 0.54628 0.53479 0.63475 0.0
C211 C 0.58506 0.52733 0.6214 0.0
C212 C 0.49074 0.49958 0.63063 0.0
C213 C 0.5677 0.48336 0.60448 0.0
C214 C 0.51268 0.4478 0.60058 0.0
C215 C 0.41864 0.42123 0.60881 0.0
C216 C 0.37952 0.4296 0.6212 0.0
C217 C 0.47392 0.45588 0.61333 0.0
C218 C 0.3965 0.47308 0.63841 0.0
C219 C 0.45165 0.50773 0.64313 0.0
H220 H 0.04885 0.43505 0.97162 0.0
H221 H 0.87755 0.37866 0.96512 0.0
H222 H 0.89479 0.47144 0.96985 0.0
H223 H 0.95878 0.56875 0.97273 0.0
H224 H 0.13019 0.62556 0.97873 0.0
H225 H 0.11245 0.53207 0.97755 0.0
C226 C 0.0152 0.44295 0.9714 0.0
C227 C 0.96203 0.40003 0.96773 0.0
C228 C 0.02541 0.49639 0.97397 0.0
C229 C 0.91888 0.41095 0.96779 0.0
C230 C 0.9287 0.46401 0.97044 0.0
C231 C 0.99231 0.56075 0.97398 0.0
C232 C 0.04579 0.60409 0.97554 0.0
C233 C 0.98186 0.50707 0.97306 0.0
C234 C 0.08866 0.59295 0.97743 0.0
C235 C 0.07856 0.53952 0.97667 0.0
H236 H 0.40939 0.98114 0.32476 0.0
H237 H 0.482 0.05619 0.25287 0.0
H238 H 0.54149 0.01716 0.25507 0.0
H239 H 0.5717 0.96044 0.2768 0.0
H240 H 0.50179 0.88745 0.34932 0.0
H241 H 0.44219 0.92681 0.34739 0.0
C242 C 0.43839 0.98917 0.30962 0.0
C243 C 0.44103 0.02143 0.28864 0.0
C244 C 0.47267 0.96668 0.31102 0.0
C245 C 0.47909 0.03164 0.26927 0.0
C246 C 0.51303 0.00914 0.27045 0.0
C247 C 0.54322 0.95284 0.29215 0.0
C248 C 0.54078 0.92058 0.31306 0.0
C249 C 0.50983 0.97626 0.2911 0.0
C250 C 0.50431 0.91196 0.33297 0.0
C251 C 0.47028 0.9345 0.33188 0.0
H252 H 0.35571 0.16695 0.18726 0.0
H253 H 0.26992 -0.00299 0.16744 0.0
H254 H 0.26242 0.01993 0.12318 0.0
H255 H 0.28102 0.08833 0.0901 0.0
H256 H 0.36677 0.25814 0.11029 0.0
H257 H 0.37314 0.23495 0.15452 0.0
C258 C 0.33543 0.13483 0.17329 0.0
C259 C 0.31358 0.08034 0.18066 0.0
C260 C 0.33108 0.14824 0.14796 0.0
C261 C 0.2872 0.0393 0.16229 0.0
C262 C 0.28284 0.05236 0.13698 0.0
C263 C 0.30089 0.12028 0.10419 0.0
C264 C 0.3234 0.17489 0.09686 0.0
C265 C 0.30467 0.10671 0.1296 0.0
C266 C 0.34908 0.21577 0.11538 0.0
C267 C 0.35285 0.20258 0.14068 0.0
H268 H 0.10156 0.35385 0.45571 0.0
H269 H 0.25475 0.36038 0.44341 0.0
H270 H 0.26817 0.35967 0.48949 0.0
H271 H 0.23672 0.3579 0.53328 0.0
H272 H 0.08714 0.35869 0.54583 0.0
H273 H 0.07184 0.35589 0.4997 0.0
C274 C 0.13774 0.35497 0.4632 0.0
C275 C 0.17701 0.35695 0.44631 0.0
C276 C 0.14584 0.35596 0.48971 0.0
C277 C 0.22409 0.35909 0.45612 0.0
C278 C 0.23173 0.35854 0.48243 0.0
C279 C 0.20073 0.35729 0.52587 0.0
C280 C 0.16296 0.35819 0.54281 0.0
C281 C 0.19293 0.35707 0.49939 0.0
C282 C 0.11684 0.35817 0.53306 0.0
C283 C 0.10802 0.35644 0.50673 0.0
H284 H 0.7899 0.18269 0.78773 0.0
H285 H 0.74391 0.01353 0.79229 0.0
H286 H 0.77871 0.02673 0.83603 0.0
H287 H 0.8204 0.08601 0.87319 0.0
H288 H 0.86891 0.25584 0.86798 0.0
H289 H 0.83545 0.24276 0.82411 0.0
C290 C 0.7873 0.14866 0.79833 0.0
C291 C 0.76387 0.0971 0.78692 0.0
C292 C 0.80812 0.15673 0.82326 0.0
C293 C 0.76163 0.05359 0.80071 0.0
C294 C 0.78153 0.06112 0.8257 0.0
C295 C 0.82393 0.12024 0.86242 0.0
C296 C 0.84685 0.17175 0.87392 0.0
C297 C 0.80468 0.11248 0.83719 0.0
C298 C 0.85148 0.21575 0.85962 0.0
C299 C 0.83214 0.20828 0.83455 0.0
H300 H 0.76698 0.92041 0.12432 0.0
H301 H 0.6284 0.75945 0.12912 0.0
H302 H 0.62478 0.76935 0.17518 0.0
H303 H 0.65859 0.82446 0.21379 0.0
H304 H 0.79786 0.98491 0.2097 0.0
H305 H 0.80367 0.97428 0.16362 0.0
C306 C 0.73615 0.88742 0.13546 0.0
C307 C 0.69783 0.83942 0.12324 0.0
C308 C 0.73428 0.8933 0.16203 0.0
C309 C 0.65838 0.79689 0.13799 0.0
C310 C 0.65616 0.80252 0.16435 0.0
C311 C 0.69029 0.85717 0.20286 0.0
C312 C 0.72744 0.90559 0.21512 0.0
C313 C 0.69351 0.85071 0.17651 0.0
C314 C 0.76865 0.94726 0.2007 0.0
C315 C 0.77195 0.94124 0.17436 0.0
H316 H 0.89689 0.76285 0.53423 0.0
H317 H 0.7929 0.58947 0.52863 0.0
H318 H 0.82478 0.59052 0.48535 0.0
H319 H 0.87901 0.64064 0.44859 0.0
H320 H 0.98038 0.81445 0.45298 0.0
H321 H 0.95307 0.81312 0.49739 0.0
C322 C 0.8814 0.72529 0.52357 0.0
C323 C 0.84239 0.67622 0.53462 0.0
C324 C 0.89944 0.72621 0.49852 0.0
C325 C 0.82265 0.62788 0.52054 0.0
C326 C 0.84094 0.62838 0.49579 0.0
C327 C 0.89564 0.67826 0.45929 0.0
C328 C 0.93167 0.72758 0.44747 0.0
C329 C 0.87892 0.67733 0.48453 0.0
C330 C 0.95249 0.77593 0.46162 0.0
C331 C 0.9368 0.77521 0.48698 0.0
H332 H 0.13746 0.89522 0.88192 0.0
H333 H 0.09165 0.72582 0.88497 0.0
H334 H 0.10469 0.72538 0.83892 0.0
H335 H 0.13232 0.77384 0.79813 0.0
H336 H 0.17816 0.94321 0.79511 0.0
H337 H 0.16202 0.94285 0.84091 0.0
C338 C 0.12991 0.85805 0.87252 0.0
C339 C 0.11382 0.8107 0.88691 0.0
C340 C 0.13791 0.85816 0.84609 0.0
C341 C 0.10416 0.7629 0.87437 0.0
C342 C 0.11176 0.76262 0.84804 0.0
C343 C 0.13884 0.81071 0.80748 0.0
C344 C 0.15677 0.85855 0.79326 0.0
C345 C 0.12928 0.81018 0.83378 0.0
C346 C 0.16452 0.90585 0.80563 0.0
C347 C 0.15526 0.90569 0.83182 0.0
H348 H 0.20683 0.95855 0.9443 0.0
H349 H 0.25842 0.92115 0.01511 0.0
H350 H 0.32694 0.01704 0.02058 0.0
H351 H 0.35942 0.11209 0.00874 0.0
H352 H 0.3048 0.1484 0.9382 0.0
H353 H 0.25157 0.052 0.92853 0.0
C354 C 0.23422 0.97139 0.96054 0.0
C355 C 0.22778 0.93368 0.97944 0.0
C356 C 0.2726 0.02622 0.9636 0.0
C357 C 0.26315 0.94997 0.00039 0.0
C358 C 0.30192 0.00467 0.00354 0.0
C359 C 0.33706 0.09905 0.99091 0.0
C360 C 0.33487 0.13739 0.97456 0.0
C361 C 0.30528 0.04341 0.9858 0.0
C362 C 0.30652 0.11981 0.95133 0.0
C363 C 0.27572 0.06461 0.94585 0.0
H364 H 0.24239 0.30305 0.32618 0.0
H365 H 0.19916 0.20915 0.3957 0.0
H366 H 0.2526 0.16773 0.38287 0.0
H367 H 0.30315 0.15059 0.35015 0.0
H368 H 0.34451 0.24123 0.27974 0.0
H369 H 0.30147 0.29217 0.29493 0.0
C370 C 0.24532 0.27409 0.33864 0.0
C371 C 0.21609 0.25862 0.36165 0.0
C372 C 0.27572 0.24963 0.33099 0.0
C373 C 0.22053 0.22123 0.37768 0.0
C374 C 0.2512 0.1975 0.37041 0.0
C375 C 0.30363 0.18211 0.33826 0.0
C376 C 0.32639 0.19149 0.31372 0.0
C377 C 0.2777 0.21026 0.34681 0.0
C378 C 0.32699 0.23288 0.29868 0.0
C379 C 0.30208 0.26186 0.30729 0.0
H380 H 0.92114 0.2233 0.71288 0.0
H381 H 0.82355 0.13907 0.64711 0.0
H382 H 0.90193 0.18744 0.61939 0.0
H383 H 4e-05 0.24438 0.61469 0.0
H384 H 0.09831 0.32818 0.68024 0.0
H385 H 0.01754 0.2899 0.70717 0.0
C386 C 0.91686 0.21612 0.69244 0.0
C387 C 0.86687 0.17694 0.68214 0.0
C388 C 0.96222 0.24371 0.67661 0.0
C389 C 0.86167 0.16872 0.65557 0.0
C390 C 0.90653 0.1962 0.6397 0.0
C391 C 0.00364 0.25493 0.6348 0.0
C392 C 0.05498 0.28822 0.64559 0.0
C393 C 0.95729 0.23234 0.65014 0.0
C394 C 0.05915 0.30241 0.67154 0.0
C395 C 0.01305 0.28027 0.68696 0.0
H396 H 0.67146 0.94065 0.04026 0.0
H397 H 0.64809 0.88774 0.96158 0.0
H398 H 0.69205 0.98185 0.94738 0.0
H399 H 0.74939 0.07802 0.95738 0.0
H400 H 0.77809 0.13092 0.03606 0.0
H401 H 0.71903 0.03779 0.05016 0.0
C402 C 0.67484 0.94955 0.01998 0.0
C403 C 0.65738 0.90719 0.002 0.0
C404 C 0.70181 0.00377 0.01196 0.0
C405 C 0.66173 0.91955 0.97582 0.0
C406 C 0.68711 0.97339 0.96768 0.0
C407 C 0.74212 0.06943 0.97763 0.0
C408 C 0.76904 0.11124 -0.00434 0.0
C409 C 0.70935 0.01572 0.9856 0.0
C410 C 0.75839 0.09945 0.02178 0.0
C411 C 0.72476 0.04615 0.02986 0.0
H412 H 0.67744 0.73846 0.29551 0.0
H413 H 0.67667 0.77505 0.37554 0.0
H414 H 0.72621 0.72753 0.38568 0.0
H415 H 0.78145 0.68861 0.37112 0.0
H416 H 0.78727 0.65701 0.29083 0.0
H417 H 0.72351 0.68909 0.28155 0.0
C418 C 0.68688 0.73493 0.31526 0.0
C419 C 0.67404 0.76103 0.33472 0.0
C420 C 0.71708 0.70922 0.32086 0.0
C421 C 0.68651 0.75582 0.36018 0.0
C422 C 0.71513 0.72891 0.36598 0.0
C423 C 0.76823 0.68795 0.3516 0.0
C424 C 0.78995 0.67138 0.33163 0.0
C425 C 0.73261 0.70758 0.34635 0.0
C426 C 0.77165 0.67002 0.30654 0.0
C427 C 0.73528 0.68853 0.30121 0.0
H428 H 0.06849 0.74635 0.67062 0.0
H429 H 0.9727 0.76429 0.72977 0.0
H430 H 0.89007 0.69425 0.70979 0.0
H431 H 0.84496 0.63883 0.67239 0.0
H432 H 0.93992 0.62438 0.61178 0.0
H433 H 0.0228 0.68057 0.63596 0.0
C434 C 0.02959 0.73435 0.67935 0.0
C435 C 0.02669 0.7614 0.70131 0.0
C436 C 0.98203 0.69465 0.66751 0.0
C437 C 0.97605 0.74483 0.7126 0.0
C438 C 0.92871 0.70469 0.70122 0.0
C439 C 0.88366 0.64693 0.66467 0.0
C440 C 0.88631 0.62854 0.64005 0.0
C441 C 0.93117 0.68091 0.67817 0.0
C442 C 0.9367 0.63853 0.63057 0.0
C443 C 0.98421 0.67111 0.64429 0.0
H444 H 0.03588 0.25944 0.9939 0.0
H445 H 0.04587 0.16548 0.93138 0.0
H446 H 0.12926 0.17419 0.94935 0.0
H447 H 0.20022 0.2101 0.98227 0.0
H448 H 0.19051 0.30493 0.04447 0.0
H449 H 0.10593 0.29412 0.0271 0.0
C450 C 0.0561 0.24062 0.98422 0.0
C451 C 0.03462 0.21189 0.96129 0.0
C452 C 0.10414 0.24606 0.99455 0.0
C453 C 0.06152 0.18792 0.94901 0.0
C454 C 0.10924 0.19289 0.95927 0.0
C455 C 0.17959 0.22833 0.99208 0.0
C456 C 0.2018 0.25839 0.01463 0.0
C457 C 0.13106 0.22215 0.98194 0.0
C458 C 0.17442 0.28165 0.02709 0.0
C459 C 0.12602 0.2755 0.01716 0.0
H460 H 0.80392 0.0935 0.30188 0.0
H461 H 0.79075 0.9638 0.34974 0.0
H462 H 0.87268 0.02734 0.37282 0.0
H463 H 0.94949 0.11948 0.37869 0.0
H464 H 0.96456 0.24803 0.32937 0.0
H465 H 0.88055 0.18528 0.30765 0.0
C466 C 0.8188 0.07922 0.31746 0.0
C467 C 0.79131 0.02411 0.3241 0.0
C468 C 0.86642 0.11575 0.33035 0.0
C469 C 0.81135 0.00607 0.34419 0.0
C470 C 0.85815 0.04236 0.35742 0.0
C471 C 0.9342 0.13375 0.36328 0.0
C472 C 0.96322 0.18826 0.35566 0.0
C473 C 0.88623 0.09724 0.35056 0.0
C474 C 0.94314 0.20614 0.33552 0.0
C475 C 0.89503 0.17033 0.32311 0.0
H476 H 0.65515 0.74808 0.62699 0.0
H477 H 0.82609 0.80122 0.62506 0.0
H478 H 0.84598 0.88475 0.64722 0.0
H479 H 0.8148 0.94159 0.66819 0.0
H480 H 0.64362 0.8872 0.67147 0.0
H481 H 0.62395 0.80528 0.64787 0.0
C482 C 0.69677 0.77821 0.63118 0.0
C483 C 0.73905 0.76853 0.62433 0.0
C484 C 0.7079 0.82574 0.64438 0.0
C485 C 0.79276 0.80767 0.63017 0.0
C486 C 0.8042 0.85542 0.64287 0.0
C487 C 0.77318 0.91186 0.66374 0.0
C488 C 0.73082 0.92056 0.67163 0.0
C489 C 0.76207 0.86465 0.65029 0.0
C490 C 0.67708 0.88149 0.66572 0.0
C491 C 0.66574 0.83465 0.65216 0.0
H492 H 0.85014 0.78391 0.05673 0.0
H493 H 0.78032 0.81161 0.98897 0.0
H494 H 0.85053 0.81028 0.9628 0.0
H495 H 0.93008 0.79848 0.95891 0.0
H496 H -0.00029 0.77039 0.02662 0.0
H497 H 0.93119 0.7746 0.05297 0.0
C498 C 0.85045 0.79 0.03626 0.0
C499 C 0.80989 0.79764 0.02486 0.0
C500 C 0.89074 0.78881 0.02126 0.0
C501 C 0.81094 0.80547 -0.00172 0.0
C502 C 0.85105 0.80464 0.98326 0.0
C503 C 0.93032 0.79331 0.97943 0.0
C504 C 0.96983 0.78389 0.99072 0.0
C505 C 0.89082 0.7958 0.99451 0.0
C506 C 0.96969 0.77758 0.01738 0.0
C507 C 0.93053 0.77999 0.0325 0.0
H508 H 0.00122 0.86664 0.31359 0.0
H509 H 0.09187 0.795 0.34518 0.0
H510 H 0.17423 0.86512 0.32531 0.0
H511 H 0.22069 0.94639 0.29902 0.0
H512 H 0.13135 0.01951 0.26767 0.0
H513 H 0.0483 0.94899 0.28733 0.0
C514 C 0.039 0.86643 0.31618 0.0
C515 C 0.04024 0.82555 0.33086 0.0
C516 C 0.08644 0.90697 0.30467 0.0
C517 C 0.08962 0.82594 0.334 0.0
C518 C 0.13683 0.866 0.32261 0.0
C519 C 0.18304 0.94685 0.29636 0.0
C520 C 0.18221 0.98805 0.28181 0.0
C521 C 0.13567 0.90657 0.30786 0.0
C522 C 0.13311 0.9882 0.27875 0.0
C523 C 0.0856 0.94793 0.29001 0.0
H524 H 0.17585 0.00799 0.65727 0.0
H525 H 0.21334 0.09709 0.72829 0.0
H526 H 0.21822 0.17475 0.70607 0.0
H527 H 0.21185 0.21738 0.66681 0.0
H528 H 0.17345 0.12919 0.59555 0.0
H529 H 0.16906 0.0511 0.61761 0.0
C530 C 0.18506 0.04439 0.66789 0.0
C531 C 0.19421 0.04663 0.69444 0.0
C532 C 0.18774 0.08905 0.65498 0.0
C533 C 0.20604 0.09412 0.70788 0.0
C534 C 0.20892 0.13864 0.69519 0.0
C535 C 0.20263 0.18119 0.656 0.0
C536 C 0.19309 0.17923 0.62953 0.0
C537 C 0.19988 0.13654 0.66878 0.0
C538 C 0.18099 0.13183 0.61594 0.0
C539 C 0.17845 0.08715 0.62854 0.0
loop_
_geom_bond_atom_site_label_1
_geom_bond_atom_site_label_2
_geom_bond_distance
_geom_bond_site_symmetry_2
_ccdc_geom_bond_type
C0 O1 1.160 . S
C0 O7 1.185 . S
O1 C0 1.160 . S
O2 Zn3 1.899 . S
O2 C10 1.284 . S
Zn3 O2 1.899 . S
Zn3 O4 2.032 . S
Zn3 O7 2.086 . S
Zn3 O12 1.977 . S
O4 Zn3 2.032 . S
O4 C8 1.278 . S
C5 O6 1.203 . S
C5 O12 1.267 . S
O6 C5 1.203 . S
O7 C0 1.185 . S
O7 Zn3 2.086 . S
C8 O4 1.278 . S
C8 O9 1.211 . S
O9 C8 1.211 . S
C10 O2 1.284 . S
C10 O11 1.273 . S
O11 C10 1.273 . S
O12 Zn3 1.977 . S
O12 C5 1.267 . S
C13 O14 1.160 . S
C13 O20 1.185 . S
O14 C13 1.160 . S
O15 Zn16 1.899 . S
O15 C23 1.284 . S
Zn16 O15 1.899 . S
Zn16 O17 2.032 . S
Zn16 O20 2.086 . S
Zn16 O25 1.977 . S
O17 Zn16 2.032 . S
O17 C21 1.278 . S
C18 O19 1.203 . S
C18 O25 1.267 . S
O19 C18 1.203 . S
O20 C13 1.185 . S
O20 Zn16 2.086 . S
C21 O17 1.278 . S
C21 O22 1.211 . S
O22 C21 1.211 . S
C23 O15 1.284 . S
C23 O24 1.273 . S
O24 C23 1.273 . S
O25 Zn16 1.977 . S
O25 C18 1.267 . S
C26 O27 1.160 . S
C26 O33 1.185 . S
O27 C26 1.160 . S
O28 Zn29 1.899 . S
O28 C36 1.284 . S
Zn29 O28 1.899 . S
Zn29 O30 2.032 . S
Zn29 O33 2.086 . S
Zn29 O38 1.977 . S
O30 Zn29 2.032 . S
O30 C34 1.278 . S
C31 O32 1.203 . S
C31 O38 1.267 . S
O32 C31 1.203 . S
O33 C26 1.185 . S
O33 Zn29 2.086 . S
C34 O30 1.278 . S
C34 O35 1.211 . S
O35 C34 1.211 . S
C36 O28 1.284 . S
C36 O37 1.273 . S
O37 C36 1.273 . S
O38 Zn29 1.977 . S
O38 C31 1.267 . S
C39 O40 1.160 . S
C39 O46 1.185 . S
O40 C39 1.160 . S
O41 Zn42 1.899 . S
O41 C49 1.284 . S
Zn42 O41 1.899 . S
Zn42 O43 2.032 . S
Zn42 O46 2.086 . S
Zn42 O51 1.977 . S
O43 Zn42 2.032 . S
O43 C47 1.278 . S
C44 O45 1.203 . S
C44 O51 1.267 . S
O45 C44 1.203 . S
O46 C39 1.185 . S
O46 Zn42 2.086 . S
C47 O43 1.278 . S
C47 O48 1.211 . S
O48 C47 1.211 . S
C49 O41 1.284 . S
C49 O50 1.273 . S
O50 C49 1.273 . S
O51 Zn42 1.977 . S
O51 C44 1.267 . S
C52 O53 1.160 . S
C52 O59 1.185 . S
O53 C52 1.160 . S
O54 Zn55 1.899 . S
O54 C62 1.284 . S
Zn55 O54 1.899 . S
Zn55 O56 2.032 . S
Zn55 O59 2.086 . S
Zn55 O64 1.977 . S
O56 Zn55 2.032 . S
O56 C60 1.278 . S
C57 O58 1.203 . S
C57 O64 1.267 . S
O58 C57 1.203 . S
O59 C52 1.185 . S
O59 Zn55 2.086 . S
C60 O56 1.278 . S
C60 O61 1.211 . S
O61 C60 1.211 . S
C62 O54 1.284 . S
C62 O63 1.273 . S
O63 C62 1.273 . S
O64 Zn55 1.977 . S
O64 C57 1.267 . S
C65 O66 1.160 . S
C65 O72 1.185 . S
O66 C65 1.160 . S
O67 Zn68 1.899 . S
O67 C75 1.284 . S
Zn68 O67 1.899 . S
Zn68 O69 2.032 . S
Zn68 O72 2.086 . S
Zn68 O77 1.977 . S
O69 Zn68 2.032 . S
O69 C73 1.278 . S
C70 O71 1.203 . S
C70 O77 1.267 . S
O71 C70 1.203 . S
O72 C65 1.185 . S
O72 Zn68 2.086 . S
C73 O69 1.278 . S
C73 O74 1.211 . S
O74 C73 1.211 . S
C75 O67 1.284 . S
C75 O76 1.273 . S
O76 C75 1.273 . S
O77 Zn68 1.977 . S
O77 C70 1.267 . S
C78 O79 1.160 . S
C78 O85 1.185 . S
O79 C78 1.160 . S
O80 Zn81 1.899 . S
O80 C88 1.284 . S
Zn81 O80 1.899 . S
Zn81 O82 2.032 . S
Zn81 O85 2.086 . S
Zn81 O90 1.977 . S
O82 Zn81 2.032 . S
O82 C86 1.278 . S
C83 O84 1.203 . S
C83 O90 1.267 . S
O84 C83 1.203 . S
O85 C78 1.185 . S
O85 Zn81 2.086 . S
C86 O82 1.278 . S
C86 O87 1.211 . S
O87 C86 1.211 . S
C88 O80 1.284 . S
C88 O89 1.273 . S
O89 C88 1.273 . S
O90 Zn81 1.977 . S
O90 C83 1.267 . S
C91 O92 1.160 . S
C91 O98 1.185 . S
O92 C91 1.160 . S
O93 Zn94 1.899 . S
O93 C101 1.284 . S
Zn94 O93 1.899 . S
Zn94 O95 2.032 . S
Zn94 O98 2.086 . S
Zn94 O103 1.977 . S
O95 Zn94 2.032 . S
O95 C99 1.278 . S
C96 O97 1.203 . S
C96 O103 1.267 . S
O97 C96 1.203 . S
O98 C91 1.185 . S
O98 Zn94 2.086 . S
C99 O95 1.278 . S
C99 O100 1.211 . S
O100 C99 1.211 . S
C101 O93 1.284 . S
C101 O102 1.273 . S
O102 C101 1.273 . S
O103 Zn94 1.977 . S
O103 C96 1.267 . S
C104 O105 1.160 . S
C104 O111 1.185 . S
O105 C104 1.160 . S
O106 Zn107 1.899 . S
O106 C114 1.284 . S
Zn107 O106 1.899 . S
Zn107 O108 2.032 . S
Zn107 O111 2.086 . S
Zn107 O116 1.977 . S
O108 Zn107 2.032 . S
O108 C112 1.278 . S
C109 O110 1.203 . S
C109 O116 1.267 . S
O110 C109 1.203 . S
O111 C104 1.185 . S
O111 Zn107 2.086 . S
C112 O108 1.278 . S
C112 O113 1.211 . S
O113 C112 1.211 . S
C114 O106 1.284 . S
C114 O115 1.273 . S
O115 C114 1.273 . S
O116 Zn107 1.977 . S
O116 C109 1.267 . S
C117 O118 1.160 . S
C117 O124 1.185 . S
O118 C117 1.160 . S
O119 Zn120 1.899 . S
O119 C127 1.284 . S
Zn120 O119 1.899 . S
Zn120 O121 2.032 . S
Zn120 O124 2.086 . S
Zn120 O129 1.977 . S
O121 Zn120 2.032 . S
O121 C125 1.278 . S
C122 O123 1.203 . S
C122 O129 1.267 . S
O123 C122 1.203 . S
O124 C117 1.185 . S
O124 Zn120 2.086 . S
C125 O121 1.278 . S
C125 O126 1.211 . S
O126 C125 1.211 . S
C127 O119 1.284 . S
C127 O128 1.273 . S
O128 C127 1.273 . S
O129 Zn120 1.977 . S
O129 C122 1.267 . S
C130 O131 1.160 . S
C130 O137 1.185 . S
O131 C130 1.160 . S
O132 Zn133 1.899 . S
O132 C140 1.284 . S
Zn133 O132 1.899 . S
Zn133 O134 2.032 . S
Zn133 O137 2.086 . S
Zn133 O142 1.977 . S
O134 Zn133 2.032 . S
O134 C138 1.278 . S
C135 O136 1.203 . S
C135 O142 1.267 . S
O136 C135 1.203 . S
O137 C130 1.185 . S
O137 Zn133 2.086 . S
C138 O134 1.278 . S
C138 O139 1.211 . S
O139 C138 1.211 . S
C140 O132 1.284 . S
C140 O141 1.273 . S
O141 C140 1.273 . S
O142 Zn133 1.977 . S
O142 C135 1.267 . S
C143 O144 1.160 . S
C143 O150 1.185 . S
O144 C143 1.160 . S
O145 Zn146 1.899 . S
O145 C153 1.284 . S
Zn146 O145 1.899 . S
Zn146 O147 2.032 . S
Zn146 O150 2.086 . S
Zn146 O155 1.977 . S
O147 Zn146 2.032 . S
O147 C151 1.278 . S
C148 O149 1.203 . S
C148 O155 1.267 . S
O149 C148 1.203 . S
O150 C143 1.185 . S
O150 Zn146 2.086 . S
C151 O147 1.278 . S
C151 O152 1.211 . S
O152 C151 1.211 . S
C153 O145 1.284 . S
C153 O154 1.273 . S
O154 C153 1.273 . S
O155 Zn146 1.977 . S
O155 C148 1.267 . S
H156 C162 0.930 . S
H157 C165 0.930 1_556 S
H158 C166 0.930 1_556 S
H159 C167 0.930 . S
H160 C170 0.930 . S
H161 C171 0.930 . S
C162 H156 0.930 . S
C162 C163 1.355 . S
C162 C164 1.415 . S
C163 C162 1.355 . S
C163 C165 1.419 . S
C164 C162 1.415 . S
C164 C169 1.425 . S
C164 C171 1.409 . S
C165 H157 0.930 1_554 S
C165 C163 1.419 . S
C165 C166 1.362 . S
C166 H158 0.930 1_554 S
C166 C165 1.362 . S
C166 C169 1.409 . S
C167 H159 0.930 . S
C167 C168 1.355 . S
C167 C169 1.415 . S
C168 C167 1.355 . S
C168 C170 1.419 . S
C169 C164 1.425 . S
C169 C166 1.409 . S
C169 C167 1.415 . S
C170 H160 0.930 . S
C170 C168 1.419 . S
C170 C171 1.362 . S
C171 H161 0.930 . S
C171 C164 1.409 . S
C171 C170 1.362 . S
H172 C178 0.930 . S
H173 C181 0.930 . S
H174 C182 0.930 . S
H175 C183 0.930 . S
H176 C186 0.930 . S
H177 C187 0.930 . S
C178 H172 0.930 . S
C178 C179 1.355 . S
C178 C180 1.415 1_455 S
C179 C178 1.355 . S
C179 C181 1.419 . S
C180 C178 1.415 1_655 S
C180 C185 1.425 1_655 S
C180 C187 1.409 . S
C181 H173 0.930 . S
C181 C179 1.419 . S
C181 C182 1.362 . S
C182 H174 0.930 . S
C182 C181 1.362 . S
C182 C185 1.409 . S
C183 H175 0.930 . S
C183 C184 1.355 . S
C183 C185 1.415 1_655 S
C184 C183 1.355 . S
C184 C186 1.419 . S
C185 C180 1.425 1_455 S
C185 C182 1.409 . S
C185 C183 1.415 1_455 S
C186 H176 0.930 . S
C186 C184 1.419 . S
C186 C187 1.362 . S
C187 H177 0.930 . S
C187 C180 1.409 . S
C187 C186 1.362 . S
H188 C194 0.930 1_545 S
H189 C197 0.930 . S
H190 C198 0.930 . S
H191 C199 0.930 1_565 S
H192 C202 0.930 . S
H193 C203 0.930 . S
C194 H188 0.930 1_565 S
C194 C195 1.355 . S
C194 C196 1.415 1_565 S
C195 C194 1.355 . S
C195 C197 1.419 . S
C196 C194 1.415 1_545 S
C196 C201 1.425 1_545 S
C196 C203 1.409 . S
C197 H189 0.930 . S
C197 C195 1.419 . S
C197 C198 1.362 . S
C198 H190 0.930 . S
C198 C197 1.362 . S
C198 C201 1.409 . S
C199 H191 0.930 1_545 S
C199 C200 1.355 . S
C199 C201 1.415 1_545 S
C200 C199 1.355 . S
C200 C202 1.419 . S
C201 C196 1.425 1_565 S
C201 C198 1.409 . S
C201 C199 1.415 1_565 S
C202 H192 0.930 . S
C202 C200 1.419 . S
C202 C203 1.362 . S
C203 H193 0.930 . S
C203 C196 1.409 . S
C203 C202 1.362 . S
H204 C210 0.930 . S
H205 C213 0.930 . S
H206 C214 0.930 . S
H207 C215 0.930 . S
H208 C218 0.930 . S
H209 C219 0.930 . S
C210 H204 0.930 . S
C210 C211 1.355 . S
C210 C212 1.415 . S
C211 C210 1.355 . S
C211 C213 1.419 . S
C212 C210 1.415 . S
C212 C217 1.425 . S
C212 C219 1.409 . S
C213 H205 0.930 . S
C213 C211 1.419 . S
C213 C214 1.362 . S
C214 H206 0.930 . S
C214 C213 1.362 . S
C214 C217 1.409 . S
C215 H207 0.930 . S
C215 C216 1.355 . S
C215 C217 1.415 . S
C216 C215 1.355 . S
C216 C218 1.419 . S
C217 C212 1.425 . S
C217 C214 1.409 . S
C217 C215 1.415 . S
C218 H208 0.930 . S
C218 C216 1.419 . S
C218 C219 1.362 . S
C219 H209 0.930 . S
C219 C212 1.409 . S
C219 C218 1.362 . S
H220 C226 0.930 . S
H221 C229 0.930 . S
H222 C230 0.930 1_554 S
H223 C231 0.930 . S
H224 C234 0.930 . S
H225 C235 0.930 . S
C226 H220 0.930 . S
C226 C227 1.355 . S
C226 C228 1.415 1_655 S
C227 C226 1.355 . S
C227 C229 1.419 . S
C228 C226 1.415 1_455 S
C228 C233 1.425 1_455 S
C228 C235 1.409 . S
C229 H221 0.930 . S
C229 C227 1.419 . S
C229 C230 1.362 . S
C230 H222 0.930 1_556 S
C230 C229 1.362 . S
C230 C233 1.409 . S
C231 H223 0.930 . S
C231 C232 1.355 . S
C231 C233 1.415 1_455 S
C232 C231 1.355 . S
C232 C234 1.419 . S
C233 C228 1.425 1_655 S
C233 C230 1.409 . S
C233 C231 1.415 1_655 S
C234 H224 0.930 . S
C234 C232 1.419 . S
C234 C235 1.362 . S
C235 H225 0.930 . S
C235 C228 1.409 . S
C235 C234 1.362 . S
H236 C242 0.930 . S
H237 C245 0.930 . S
H238 C246 0.930 . S
H239 C247 0.930 . S
H240 C250 0.930 . S
H241 C251 0.930 . S
C242 H236 0.930 . S
C242 C243 1.355 . S
C242 C244 1.415 . S
C243 C242 1.355 . S
C243 C245 1.419 . S
C244 C242 1.415 . S
C244 C249 1.425 1_545 S
C244 C251 1.409 . S
C245 H237 0.930 . S
C245 C243 1.419 . S
C245 C246 1.362 1_545 S
C246 H238 0.930 . S
C246 C245 1.362 1_565 S
C246 C249 1.409 . S
C247 H239 0.930 . S
C247 C248 1.355 . S
C247 C249 1.415 . S
C248 C247 1.355 . S
C248 C250 1.419 . S
C249 C244 1.425 1_565 S
C249 C246 1.409 . S
C249 C247 1.415 . S
C250 H240 0.930 . S
C250 C248 1.419 . S
C250 C251 1.362 1_565 S
C251 H241 0.930 . S
C251 C244 1.409 . S
C251 C250 1.362 1_545 S
H252 C258 0.930 . S
H253 C261 0.930 . S
H254 C262 0.930 . S
H255 C263 0.930 . S
H256 C266 0.930 . S
H257 C267 0.930 . S
C258 H252 0.930 . S
C258 C259 1.355 . S
C258 C260 1.415 . S
C259 C258 1.355 . S
C259 C261 1.419 . S
C260 C258 1.415 . S
C260 C265 1.425 . S
C260 C267 1.409 . S
C261 H253 0.930 . S
C261 C259 1.419 . S
C261 C262 1.362 . S
C262 H254 0.930 . S
C262 C261 1.362 . S
C262 C265 1.409 . S
C263 H255 0.930 . S
C263 C264 1.355 . S
C263 C265 1.415 . S
C264 C263 1.355 . S
C264 C266 1.419 . S
C265 C260 1.425 . S
C265 C262 1.409 . S
C265 C263 1.415 . S
C266 H256 0.930 . S
C266 C264 1.419 . S
C266 C267 1.362 . S
C267 H257 0.930 . S
C267 C260 1.409 . S
C267 C266 1.362 . S
H268 C274 0.930 . S
H269 C277 0.930 . S
H270 C278 0.930 . S
H271 C279 0.930 . S
H272 C282 0.930 . S
H273 C283 0.930 . S
C274 H268 0.930 . S
C274 C275 1.355 . S
C274 C276 1.415 . S
C275 C274 1.355 . S
C275 C277 1.419 . S
C276 C274 1.415 . S
C276 C281 1.425 . S
C276 C283 1.409 . S
C277 H269 0.930 . S
C277 C275 1.419 . S
C277 C278 1.362 . S
C278 H270 0.930 . S
C278 C277 1.362 . S
C278 C281 1.409 . S
C279 H271 0.930 . S
C279 C280 1.355 . S
C279 C281 1.415 . S
C280 C279 1.355 . S
C280 C282 1.419 . S
C281 C276 1.425 . S
C281 C278 1.409 . S
C281 C279 1.415 . S
C282 H272 0.930 . S
C282 C280 1.419 . S
C282 C283 1.362 . S
C283 H273 0.930 . S
C283 C276 1.409 . S
C283 C282 1.362 . S
H284 C290 0.930 . S
H285 C293 0.930 . S
H286 C294 0.930 . S
H287 C295 0.930 . S
H288 C298 0.930 . S
H289 C299 0.930 . S
C290 H284 0.930 . S
C290 C291 1.355 . S
C290 C292 1.415 . S
C291 C290 1.355 . S
C291 C293 1.419 . S
C292 C290 1.415 . S
C292 C297 1.425 . S
C292 C299 1.409 . S
C293 H285 0.930 . S
C293 C291 1.419 . S
C293 C294 1.362 . S
C294 H286 0.930 . S
C294 C293 1.362 . S
C294 C297 1.409 . S
C295 H287 0.930 . S
C295 C296 1.355 . S
C295 C297 1.415 . S
C296 C295 1.355 . S
C296 C298 1.419 . S
C297 C292 1.425 . S
C297 C294 1.409 . S
C297 C295 1.415 . S
C298 H288 0.930 . S
C298 C296 1.419 . S
C298 C299 1.362 . S
C299 H289 0.930 . S
C299 C292 1.409 . S
C299 C298 1.362 . S
H300 C306 0.930 . S
H301 C309 0.930 . S
H302 C310 0.930 . S
H303 C311 0.930 . S
H304 C314 0.930 . S
H305 C315 0.930 . S
C306 H300 0.930 . S
C306 C307 1.355 . S
C306 C308 1.415 . S
C307 C306 1.355 . S
C307 C309 1.419 . S
C308 C306 1.415 . S
C308 C313 1.425 . S
C308 C315 1.409 . S
C309 H301 0.930 . S
C309 C307 1.419 . S
C309 C310 1.362 . S
C310 H302 0.930 . S
C310 C309 1.362 . S
C310 C313 1.409 . S
C311 H303 0.930 . S
C311 C312 1.355 . S
C311 C313 1.415 . S
C312 C311 1.355 . S
C312 C314 1.419 . S
C313 C308 1.425 . S
C313 C310 1.409 . S
C313 C311 1.415 . S
C314 H304 0.930 . S
C314 C312 1.419 . S
C314 C315 1.362 . S
C315 H305 0.930 . S
C315 C308 1.409 . S
C315 C314 1.362 . S
H316 C322 0.930 . S
H317 C325 0.930 . S
H318 C326 0.930 . S
H319 C327 0.930 . S
H320 C330 0.930 . S
H321 C331 0.930 . S
C322 H316 0.930 . S
C322 C323 1.355 . S
C322 C324 1.415 . S
C323 C322 1.355 . S
C323 C325 1.419 . S
C324 C322 1.415 . S
C324 C329 1.425 . S
C324 C331 1.409 . S
C325 H317 0.930 . S
C325 C323 1.419 . S
C325 C326 1.362 . S
C326 H318 0.930 . S
C326 C325 1.362 . S
C326 C329 1.409 . S
C327 H319 0.930 . S
C327 C328 1.355 . S
C327 C329 1.415 . S
C328 C327 1.355 . S
C328 C330 1.419 . S
C329 C324 1.425 . S
C329 C326 1.409 . S
C329 C327 1.415 . S
C330 H320 0.930 . S
C330 C328 1.419 . S
C330 C331 1.362 . S
C331 H321 0.930 . S
C331 C324 1.409 . S
C331 C330 1.362 . S
H332 C338 0.930 . S
H333 C341 0.930 . S
H334 C342 0.930 . S
H335 C343 0.930 . S
H336 C346 0.930 . S
H337 C347 0.930 . S
C338 H332 0.930 . S
C338 C339 1.355 . S
C338 C340 1.415 . S
C339 C338 1.355 . S
C339 C341 1.419 . S
C340 C338 1.415 . S
C340 C345 1.425 . S
C340 C347 1.409 . S
C341 H333 0.930 . S
C341 C339 1.419 . S
C341 C342 1.362 . S
C342 H334 0.930 . S
C342 C341 1.362 . S
C342 C345 1.409 . S
C343 H335 0.930 . S
C343 C344 1.355 . S
C343 C345 1.415 . S
C344 C343 1.355 . S
C344 C346 1.419 . S
C345 C340 1.425 . S
C345 C342 1.409 . S
C345 C343 1.415 . S
C346 H336 0.930 . S
C346 C344 1.419 . S
C346 C347 1.362 . S
C347 H337 0.930 . S
C347 C340 1.409 . S
C347 C346 1.362 . S
H348 C354 0.930 . S
H349 C357 0.930 . S
H350 C358 0.930 . S
H351 C359 0.930 . S
H352 C362 0.930 . S
H353 C363 0.930 . S
C354 H348 0.930 . S
C354 C355 1.355 1_554 S
C354 C356 1.415 . S
C355 C354 1.355 1_556 S
C355 C357 1.419 . S
C356 C354 1.415 . S
C356 C361 1.425 1_564 S
C356 C363 1.409 1_565 S
C357 H349 0.930 . S
C357 C355 1.419 . S
C357 C358 1.362 . S
C358 H350 0.930 . S
C358 C357 1.362 . S
C358 C361 1.409 1_565 S
C359 H351 0.930 . S
C359 C360 1.355 1_556 S
C359 C361 1.415 . S
C360 C359 1.355 1_554 S
C360 C362 1.419 . S
C361 C356 1.425 1_546 S
C361 C358 1.409 1_545 S
C361 C359 1.415 . S
C362 H352 0.930 . S
C362 C360 1.419 . S
C362 C363 1.362 . S
C363 H353 0.930 . S
C363 C356 1.409 1_545 S
C363 C362 1.362 . S
H364 C370 0.930 . S
H365 C373 0.930 . S
H366 C374 0.930 . S
H367 C375 0.930 . S
H368 C378 0.930 . S
H369 C379 0.930 . S
C370 H364 0.930 . S
C370 C371 1.355 . S
C370 C372 1.415 . S
C371 C370 1.355 . S
C371 C373 1.419 . S
C372 C370 1.415 . S
C372 C377 1.425 . S
C372 C379 1.409 . S
C373 H365 0.930 . S
C373 C371 1.419 . S
C373 C374 1.362 . S
C374 H366 0.930 . S
C374 C373 1.362 . S
C374 C377 1.409 . S
C375 H367 0.930 . S
C375 C376 1.355 . S
C375 C377 1.415 . S
C376 C375 1.355 . S
C376 C378 1.419 . S
C377 C372 1.425 . S
C377 C374 1.409 . S
C377 C375 1.415 . S
C378 H368 0.930 . S
C378 C376 1.419 . S
C378 C379 1.362 . S
C379 H369 0.930 . S
C379 C372 1.409 . S
C379 C378 1.362 . S
H380 C386 0.930 . S
H381 C389 0.930 . S
H382 C390 0.930 . S
H383 C391 0.930 . S
H384 C394 0.930 . S
H385 C395 0.930 . S
C386 H380 0.930 . S
C386 C387 1.355 . S
C386 C388 1.415 . S
C387 C386 1.355 . S
C387 C389 1.419 . S
C388 C386 1.415 . S
C388 C393 1.425 1_655 S
C388 C395 1.409 1_655 S
C389 H381 0.930 . S
C389 C387 1.419 . S
C389 C390 1.362 . S
C390 H382 0.930 . S
C390 C389 1.362 . S
C390 C393 1.409 1_655 S
C391 H383 0.930 . S
C391 C392 1.355 . S
C391 C393 1.415 . S
C392 C391 1.355 . S
C392 C394 1.419 . S
C393 C388 1.425 1_455 S
C393 C390 1.409 1_455 S
C393 C391 1.415 . S
C394 H384 0.930 . S
C394 C392 1.419 . S
C394 C395 1.362 . S
C395 H385 0.930 . S
C395 C388 1.409 1_455 S
C395 C394 1.362 . S
H396 C402 0.930 . S
H397 C405 0.930 . S
H398 C406 0.930 . S
H399 C407 0.930 . S
H400 C410 0.930 . S
H401 C411 0.930 . S
C402 H396 0.930 . S
C402 C403 1.355 1_556 S
C402 C404 1.415 . S
C403 C402 1.355 1_554 S
C403 C405 1.419 . S
C404 C402 1.415 . S
C404 C409 1.425 1_566 S
C404 C411 1.409 1_565 S
C405 H397 0.930 . S
C405 C403 1.419 . S
C405 C406 1.362 . S
C406 H398 0.930 . S
C406 C405 1.362 . S
C406 C409 1.409 1_565 S
C407 H399 0.930 . S
C407 C408 1.355 1_554 S
C407 C409 1.415 . S
C408 C407 1.355 1_556 S
C408 C410 1.419 . S
C409 C404 1.425 1_544 S
C409 C406 1.409 1_545 S
C409 C407 1.415 . S
C410 H400 0.930 . S
C410 C408 1.419 . S
C410 C411 1.362 . S
C411 H401 0.930 . S
C411 C404 1.409 1_545 S
C411 C410 1.362 . S
H412 C418 0.930 . S
H413 C421 0.930 . S
H414 C422 0.930 . S
H415 C423 0.930 . S
H416 C426 0.930 . S
H417 C427 0.930 . S
C418 H412 0.930 . S
C418 C419 1.355 . S
C418 C420 1.415 . S
C419 C418 1.355 . S
C419 C421 1.419 . S
C420 C418 1.415 . S
C420 C425 1.425 . S
C420 C427 1.409 . S
C421 H413 0.930 . S
C421 C419 1.419 . S
C421 C422 1.362 . S
C422 H414 0.930 . S
C422 C421 1.362 . S
C422 C425 1.409 . S
C423 H415 0.930 . S
C423 C424 1.355 . S
C423 C425 1.415 . S
C424 C423 1.355 . S
C424 C426 1.419 . S
C425 C420 1.425 . S
C425 C422 1.409 . S
C425 C423 1.415 . S
C426 H416 0.930 . S
C426 C424 1.419 . S
C426 C427 1.362 . S
C427 H417 0.930 . S
C427 C420 1.409 . S
C427 C426 1.362 . S
H428 C434 0.930 . S
H429 C437 0.930 . S
H430 C438 0.930 . S
H431 C439 0.930 . S
H432 C442 0.930 . S
H433 C443 0.930 . S
C434 H428 0.930 . S
C434 C435 1.355 . S
C434 C436 1.415 . S
C435 C434 1.355 . S
C435 C437 1.419 . S
C436 C434 1.415 . S
C436 C441 1.425 1_455 S
C436 C443 1.409 1_455 S
C437 H429 0.930 . S
C437 C435 1.419 . S
C437 C438 1.362 . S
C438 H430 0.930 . S
C438 C437 1.362 . S
C438 C441 1.409 1_455 S
C439 H431 0.930 . S
C439 C440 1.355 . S
C439 C441 1.415 . S
C440 C439 1.355 . S
C440 C442 1.419 . S
C441 C436 1.425 1_655 S
C441 C438 1.409 1_655 S
C441 C439 1.415 . S
C442 H432 0.930 . S
C442 C440 1.419 . S
C442 C443 1.362 . S
C443 H433 0.930 . S
C443 C436 1.409 1_655 S
C443 C442 1.362 . S
H444 C450 0.905 1_554 S
H445 C453 0.930 . S
H446 C454 0.930 . S
H447 C455 0.905 1_556 S
H448 C458 0.930 . S
H449 C459 0.930 . S
C450 H444 0.905 1_556 S
C450 C451 1.393 . S
C450 C452 1.401 1_556 S
C451 C450 1.393 . S
C451 C453 1.419 . S
C452 C450 1.401 1_554 S
C452 C457 1.425 1_554 S
C452 C459 1.409 . S
C453 H445 0.930 . S
C453 C451 1.419 . S
C453 C454 1.362 . S
C454 H446 0.930 . S
C454 C453 1.362 . S
C454 C457 1.409 . S
C455 H447 0.905 1_554 S
C455 C456 1.393 . S
C455 C457 1.401 1_554 S
C456 C455 1.393 . S
C456 C458 1.419 . S
C457 C452 1.425 1_556 S
C457 C454 1.409 . S
C457 C455 1.401 1_556 S
C458 H448 0.930 . S
C458 C456 1.419 . S
C458 C459 1.362 . S
C459 H449 0.930 . S
C459 C452 1.409 . S
C459 C458 1.362 . S
H460 C466 0.930 . S
H461 C469 0.930 1_565 S
H462 C470 0.930 . S
H463 C471 0.930 . S
H464 C474 0.930 . S
H465 C475 0.930 . S
C466 H460 0.930 . S
C466 C467 1.355 . S
C466 C468 1.415 . S
C467 C466 1.355 . S
C467 C469 1.419 . S
C468 C466 1.415 . S
C468 C473 1.425 . S
C468 C475 1.409 . S
C469 H461 0.930 1_545 S
C469 C467 1.419 . S
C469 C470 1.362 . S
C470 H462 0.930 . S
C470 C469 1.362 . S
C470 C473 1.409 . S
C471 H463 0.930 . S
C471 C472 1.355 . S
C471 C473 1.415 . S
C472 C471 1.355 . S
C472 C474 1.419 . S
C473 C468 1.425 . S
C473 C470 1.409 . S
C473 C471 1.415 . S
C474 H464 0.930 . S
C474 C472 1.419 . S
C474 C475 1.362 . S
C475 H465 0.930 . S
C475 C468 1.409 . S
C475 C474 1.362 . S
H476 C482 0.930 . S
H477 C485 0.930 . S
H478 C486 0.930 . S
H479 C487 0.930 . S
H480 C490 0.930 . S
H481 C491 0.930 . S
C482 H476 0.930 . S
C482 C483 1.355 . S
C482 C484 1.415 . S
C483 C482 1.355 . S
C483 C485 1.419 . S
C484 C482 1.415 . S
C484 C489 1.425 . S
C484 C491 1.409 . S
C485 H477 0.930 . S
C485 C483 1.419 . S
C485 C486 1.362 . S
C486 H478 0.930 . S
C486 C485 1.362 . S
C486 C489 1.409 . S
C487 H479 0.930 . S
C487 C488 1.355 . S
C487 C489 1.415 . S
C488 C487 1.355 . S
C488 C490 1.419 . S
C489 C484 1.425 . S
C489 C486 1.409 . S
C489 C487 1.415 . S
C490 H480 0.930 . S
C490 C488 1.419 . S
C490 C491 1.362 . S
C491 H481 0.930 . S
C491 C484 1.409 . S
C491 C490 1.362 . S
H492 C498 0.930 . S
H493 C501 0.930 . S
H494 C502 0.930 . S
H495 C503 0.930 . S
H496 C506 0.930 . S
H497 C507 0.930 . S
C498 H492 0.930 . S
C498 C499 1.355 . S
C498 C500 1.415 . S
C499 C498 1.355 . S
C499 C501 1.419 1_554 S
C500 C498 1.415 . S
C500 C505 1.425 1_554 S
C500 C507 1.409 . S
C501 H493 0.930 . S
C501 C499 1.419 1_556 S
C501 C502 1.362 . S
C502 H494 0.930 . S
C502 C501 1.362 . S
C502 C505 1.409 . S
C503 H495 0.930 . S
C503 C504 1.355 . S
C503 C505 1.415 . S
C504 C503 1.355 . S
C504 C506 1.419 1_556 S
C505 C500 1.425 1_556 S
C505 C502 1.409 . S
C505 C503 1.415 . S
C506 H496 0.930 . S
C506 C504 1.419 1_554 S
C506 C507 1.362 . S
C507 H497 0.930 . S
C507 C500 1.409 . S
C507 C506 1.362 . S
H508 C514 0.930 . S
H509 C517 0.930 . S
H510 C518 0.930 . S
H511 C519 0.930 . S
H512 C522 0.930 1_545 S
H513 C523 0.930 . S
C514 H508 0.930 . S
C514 C515 1.355 . S
C514 C516 1.415 . S
C515 C514 1.355 . S
C515 C517 1.419 . S
C516 C514 1.415 . S
C516 C521 1.425 . S
C516 C523 1.409 . S
C517 H509 0.930 . S
C517 C515 1.419 . S
C517 C518 1.362 . S
C518 H510 0.930 . S
C518 C517 1.362 . S
C518 C521 1.409 . S
C519 H511 0.930 . S
C519 C520 1.355 . S
C519 C521 1.415 . S
C520 C519 1.355 . S
C520 C522 1.419 . S
C521 C516 1.425 . S
C521 C518 1.409 . S
C521 C519 1.415 . S
C522 H512 0.930 1_565 S
C522 C520 1.419 . S
C522 C523 1.362 . S
C523 H513 0.930 . S
C523 C516 1.409 . S
C523 C522 1.362 . S
H524 C530 0.930 . S
H525 C533 0.930 . S
H526 C534 0.930 . S
H527 C535 0.930 . S
H528 C538 0.930 . S
H529 C539 0.930 . S
C530 H524 0.930 . S
C530 C531 1.355 . S
C530 C532 1.415 . S
C531 C530 1.355 . S
C531 C533 1.419 . S
C532 C530 1.415 . S
C532 C537 1.425 . S
C532 C539 1.409 . S
C533 H525 0.930 . S
C533 C531 1.419 . S
C533 C534 1.362 . S
C534 H526 0.930 . S
C534 C533 1.362 . S
C534 C537 1.409 . S
C535 H527 0.930 . S
C535 C536 1.355 . S
C535 C537 1.415 . S
C536 C535 1.355 . S
C536 C538 1.419 . S
C537 C532 1.425 . S
C537 C534 1.409 . S
C537 C535 1.415 . S
C538 H528 0.930 . S
C538 C536 1.419 . S
C538 C539 1.362 . S
C539 H529 0.930 . S
C539 C532 1.409 . S
C539 C538 1.362 . S
C163 C39 1.417 . S
C168 C0 1.418 . S
C179 C13 1.480 . S
C184 C52 1.479 . S
C195 C65 1.483 . S
C200 C26 1.484 . S
C211 C78 1.481 . S
C216 C117 1.482 . S
C227 C130 1.452 . S
C232 C91 1.454 . S
C243 C104 1.394 . S
C248 C143 1.393 . S
C259 C112 1.487 . S
C264 C8 1.499 . S
C275 C21 1.464 . S
C280 C125 1.461 . S
C291 C34 1.526 . S
C296 C138 1.522 . S
C307 C47 1.488 . S
C312 C151 1.477 . S
C323 C86 1.515 . S
C328 C60 1.504 . S
C339 C99 1.520 . S
C344 C73 1.525 . S
C355 C96 1.005 . S
C360 C5 0.925 . S
C371 C18 0.937 . S
C376 C109 1.067 . S
C387 C31 1.036 . S
C392 C122 0.917 . S
C403 C44 1.012 . S
C408 C135 0.922 . S
C419 C148 1.059 . S
C424 C57 0.926 . S
C435 C70 0.945 . S
C440 C83 1.070 . S
C451 C140 1.330 1_455 S
C456 C10 1.327 . S
C467 C153 1.320 1_545 S
C472 C23 1.335 1_655 S
C483 C88 1.323 . S
C488 C36 1.331 1_565 S
C499 C49 1.323 . S
C504 C101 1.331 1_655 S
C515 C62 1.335 1_455 S
C520 C114 1.320 1_565 S
C531 C75 1.335 1_545 S
C536 C127 1.320 . S
