# Generated by pormake.
# Topology mdf, (4)-cn, num edge types: 1
# Building blocks:
#     Node 0, Type 0, BuildingBlock: KUFVIS_clean_sbu_0, # of connection points: 4
#     Node 1, Type 0, BuildingBlock: KUFVIS_clean_sbu_0, # of connection points: 4
#     Node 2, Type 0, BuildingBlock: KUFVIS_clean_sbu_0, # of connection points: 4
#     Node 3, Type 0, BuildingBlock: KUFVIS_clean_sbu_0, # of connection points: 4
#     Node 4, Type 0, BuildingBlock: KUFVIS_clean_sbu_0, # of connection points: 4
#     Node 5, Type 0, BuildingBlock: KUFVIS_clean_sbu_0, # of connection points: 4
#     Node 6, Type 0, BuildingBlock: KUFVIS_clean_sbu_0, # of connection points: 4
#     Node 7, Type 0, BuildingBlock: KUFVIS_clean_sbu_0, # of connection points: 4
#     Edge 8, Type (0, 0), BuildingBlock: OJICUG_clean_linker_0, # of connection points: 2
#     Edge 9, Type (0, 0), BuildingBlock: OJICUG_clean_linker_0, # of connection points: 2
#     Edge 10, Type (0, 0), BuildingBlock: OJICUG_clean_linker_0, # of connection points: 2
#     Edge 11, Type (0, 0), BuildingBlock: OJICUG_clean_linker_0, # of connection points: 2
#     Edge 12, Type (0, 0), BuildingBlock: OJICUG_clean_linker_0, # of connection points: 2
#     Edge 13, Type (0, 0), BuildingBlock: OJICUG_clean_linker_0, # of connection points: 2
#     Edge 14, Type (0, 0), BuildingBlock: OJICUG_clean_linker_0, # of connection points: 2
#     Edge 15, Type (0, 0), BuildingBlock: OJICUG_clean_linker_0, # of connection points: 2
#     Edge 16, Type (0, 0), BuildingBlock: OJICUG_clean_linker_0, # of connection points: 2
#     Edge 17, Type (0, 0), BuildingBlock: OJICUG_clean_linker_0, # of connection points: 2
#     Edge 18, Type (0, 0), BuildingBlock: OJICUG_clean_linker_0, # of connection points: 2
#     Edge 19, Type (0, 0), BuildingBlock: OJICUG_clean_linker_0, # of connection points: 2
#     Edge 20, Type (0, 0), BuildingBlock: OJICUG_clean_linker_0, # of connection points: 2
#     Edge 21, Type (0, 0), BuildingBlock: OJICUG_clean_linker_0, # of connection points: 2
#     Edge 22, Type (0, 0), BuildingBlock: OJICUG_clean_linker_0, # of connection points: 2
#     Edge 23, Type (0, 0), BuildingBlock: OJICUG_clean_linker_0, # of connection points: 2
# Relax obj value: 0.028
# Max RMSD: 0.051
# Mean RMSD: 0.051
data_MOF--net-mdf--node1-KUFVIS_clean_sbu_0--edge1-OJICUG_clean_linker_0
_symmetry_space_group_name_H-M    P1
_symmetry_Int_Tables_number       1
_symmetry_cell_setting            triclinic
loop_
_symmetry_equiv_pos_as_xyz
'x, y, z'
_cell_length_a     27.028434
_cell_length_b     27.302941
_cell_length_c     9.2370033
_cell_angle_alpha  90.06026
_cell_angle_beta   89.858995
_cell_angle_gamma 93.308063
loop_
_atom_site_label
_atom_site_type_symbol
_atom_site_fract_x
_atom_site_fract_y
_atom_site_fract_z
_atom_type_partial_charge
Mn0 Mn 0.25487 0.52506 0.38968 0.0
Mn1 Mn 0.26442 0.46159 0.08113 0.0
C2 C 0.19954 0.45564 0.33767 0.0
C3 C 0.22474 0.58851 0.53464 0.0
C4 C 0.33779 0.45405 0.3283 0.0
O5 O 0.29471 0.57486 0.25454 0.0
O6 O 0.29403 0.52757 0.05595 0.0
C7 C 0.19123 0.51837 0.92372 0.0
N8 N 0.21189 0.47551 0.95518 0.0
C9 C 0.16242 0.43156 0.77926 0.0
C10 C 0.14148 0.47535 0.73899 0.0
C11 C 0.15477 0.51879 0.81515 0.0
C12 C 0.19553 0.43317 0.89423 0.0
H13 H 0.20209 0.55122 0.98347 0.0
C14 C 0.30462 0.56794 0.11981 0.0
O15 O 0.26535 0.56785 0.56487 0.0
O16 O 0.20175 0.57307 0.41822 0.0
N17 N 0.23668 0.39655 0.08127 0.0
C18 C 0.24599 0.35781 0.16689 0.0
C19 C 0.22975 0.31049 0.12135 0.0
C20 C 0.20694 0.30425 0.98529 0.0
C21 C 0.19666 0.34536 0.9018 0.0
C22 C 0.20999 0.39109 0.95894 0.0
H23 H 0.26576 0.36345 0.26764 0.0
O24 O 0.20777 0.46975 0.47013 0.0
O25 O 0.2242 0.48179 0.24269 0.0
O26 O 0.31587 0.483 0.41246 0.0
O27 O 0.32137 0.44335 0.20195 0.0
C28 C 0.17307 0.34374 0.76578 0.0
C29 C 0.15222 0.38624 0.71115 0.0
H30 H 0.11462 0.47583 0.65223 0.0
H31 H 0.13732 0.55232 0.78908 0.0
H32 H 0.23637 0.27893 0.1877 0.0
H33 H 0.1958 0.26794 0.94983 0.0
H34 H 0.16906 0.31008 0.70488 0.0
H35 H 0.12774 0.38366 0.61924 0.0
Mn36 Mn 0.47458 0.76746 0.55046 0.0
Mn37 Mn 0.52128 0.7322 0.86131 0.0
C38 C 0.54259 0.81852 0.64737 0.0
C39 C 0.41104 0.80434 0.42082 0.0
C40 C 0.53888 0.68152 0.57382 0.0
O41 O 0.42465 0.71327 0.63412 0.0
O42 O 0.44931 0.72315 0.8619 0.0
C43 C 0.48415 0.815 0.02579 0.0
N44 N 0.51617 0.7788 0.00978 0.0
C45 C 0.56449 0.8064 0.2125 0.0
C46 C 0.53334 0.84559 0.22971 0.0
C47 C 0.49301 0.84999 0.13563 0.0
C48 C 0.55676 0.77693 0.09139 0.0
H49 H 0.4542 0.81844 0.94972 0.0
C50 C 0.4177 0.70745 0.7703 0.0
O51 O 0.43594 0.76956 0.36713 0.0
O52 O 0.42199 0.81735 0.55309 0.0
N53 N 0.59069 0.73768 0.89405 0.0
C54 C 0.62709 0.71278 0.82964 0.0
C55 C 0.66851 0.7008 0.91109 0.0
C56 C 0.67157 0.71454 0.05745 0.0
C57 C 0.63544 0.7425 0.11799 0.0
C58 C 0.59505 0.75247 0.03327 0.0
H59 H 0.62377 0.70056 0.71928 0.0
O60 O 0.52658 0.82236 0.51708 0.0
O61 O 0.51654 0.78536 0.72038 0.0
O62 O 0.52365 0.7159 0.49533 0.0
O63 O 0.53024 0.67986 0.71059 0.0
C64 C 0.63667 0.75977 0.26114 0.0
C65 C 0.60442 0.79586 0.30314 0.0
H66 H 0.54086 0.87379 0.30996 0.0
H67 H 0.46939 0.88046 0.1467 0.0
H68 H 0.69693 0.67961 0.86297 0.0
H69 H 0.70128 0.70382 0.12428 0.0
H70 H 0.66317 0.74696 0.33711 0.0
H71 H 0.6106 0.81346 0.40554 0.0
Mn72 Mn 0.26433 0.99053 0.91447 0.0
Mn73 Mn 0.24282 0.05611 0.62099 0.0
C74 C 0.31854 0.05867 0.85 0.0
C75 C 0.29767 0.92578 0.04558 0.0
C76 C 0.17495 0.05171 0.88192 0.0
O77 O 0.22056 0.94397 0.78059 0.0
O78 O 0.22644 0.98741 0.57155 0.0
C79 C 0.31771 0.02787 0.40608 0.0
N80 N 0.29353 0.06228 0.47956 0.0
C81 C 0.32423 0.12647 0.3214 0.0
C82 C 0.35073 0.09219 0.24447 0.0
C83 C 0.34831 0.04269 0.28901 0.0
C84 C 0.2986 0.11009 0.4442 0.0
H85 H 0.31452 0.99022 0.44056 0.0
C86 C 0.21502 0.94802 0.64193 0.0
O87 O 0.25842 0.94668 0.08727 0.0
O88 O 0.31714 0.94102 0.92342 0.0
N89 N 0.25864 0.12336 0.66055 0.0
C90 C 0.25079 0.15158 0.77907 0.0
C91 C 0.25987 0.20266 0.76809 0.0
C92 C 0.27368 0.22367 0.63374 0.0
C93 C 0.28448 0.19281 0.51771 0.0
C94 C 0.27963 0.14258 0.54031 0.0
H95 H 0.23713 0.13534 0.87905 0.0
O96 O 0.31515 0.04384 0.98321 0.0
O97 O 0.28964 0.03412 0.76238 0.0
O98 O 0.20565 0.03298 0.96653 0.0
O99 O 0.18407 0.05625 0.74787 0.0
C100 C 0.30073 0.20926 0.38117 0.0
C101 C 0.32179 0.17618 0.28323 0.0
H102 H 0.37372 0.10351 0.15314 0.0
H103 H 0.36893 0.016 0.23122 0.0
H104 H 0.25566 0.22554 0.86166 0.0
H105 H 0.27821 0.26315 0.62296 0.0
H106 H 0.29848 0.24744 0.35391 0.0
H107 H 0.33655 0.1893 0.18071 0.0
Mn108 Mn 0.05664 0.74466 0.07432 0.0
Mn109 Mn 0.01704 0.77365 0.39523 0.0
C110 C 0.98765 0.69229 0.16783 0.0
C111 C 0.11932 0.70884 0.93563 0.0
C112 C 1.00239 0.83412 0.12478 0.0
O113 O 0.10677 0.79737 0.16359 0.0
O114 O 0.08803 0.76554 0.37387 0.0
C115 C 0.03422 0.67762 0.53371 0.0
N116 N 1.01219 0.72102 0.52828 0.0
C117 C 0.96707 0.7049 0.74671 0.0
C118 C 0.9888 0.65932 0.75673 0.0
C119 C 0.02217 0.64537 0.64875 0.0
C120 C 0.9764 0.7316 0.62155 0.0
H121 H 0.06041 0.6681 0.45102 0.0
C122 C 0.11515 0.79481 0.29914 0.0
O123 O 0.09507 0.74505 0.88988 0.0
O124 O 0.1088 0.69381 0.06645 0.0
N125 N 0.94986 0.78227 0.4413 0.0
C126 C 0.91772 0.81358 0.38512 0.0
C127 C 0.88396 0.8352 0.47739 0.0
C128 C 0.88327 0.82302 0.62513 0.0
C129 C 0.9126 0.78634 0.67579 0.0
C130 C 0.94562 0.76695 0.5793 0.0
H131 H 0.91808 0.82178 0.27171 0.0
O132 O 1.00543 0.6885 0.03936 0.0
O133 O 1.01051 0.72756 0.23792 0.0
O134 O 1.0096 0.79902 0.03675 0.0
O135 O 0.0161 0.83208 0.25835 0.0
C136 C 0.91114 0.76829 0.81805 0.0
C137 C 0.9349 0.72479 0.84979 0.0
H138 H 0.97902 0.63397 0.84336 0.0
H139 H 0.0388 0.61032 0.65511 0.0
H140 H 0.85978 0.86205 0.43567 0.0
H141 H 0.86004 0.84141 0.69885 0.0
H142 H 0.88884 0.78512 0.89966 0.0
H143 H 0.92544 0.70606 0.94944 0.0
Mn144 Mn 0.76321 0.0196 0.90619 0.0
Mn145 Mn 0.79347 0.94953 0.63404 0.0
C146 C 0.70832 0.95254 0.84022 0.0
C147 C 0.72655 0.08427 0.03079 0.0
C148 C 0.85386 0.96015 0.90266 0.0
O149 O 0.80938 0.06383 0.77063 0.0
O150 O 0.80732 0.01692 0.56669 0.0
C151 C 0.72949 0.96249 0.38045 0.0
N152 N 0.75046 0.9336 0.47944 0.0
C153 C 0.73346 0.8612 0.33775 0.0
C154 C 0.71042 0.88955 0.23513 0.0
C155 C 0.70448 0.93972 0.26383 0.0
C156 C 0.74989 0.88446 0.46346 0.0
H157 H 0.72897 1.00163 0.39713 0.0
C158 C 0.81621 0.05789 0.63249 0.0
O159 O 0.76588 0.06474 0.07667 0.0
O160 O 0.71026 0.06931 0.90476 0.0
N161 N 0.77878 0.88384 0.69734 0.0
C162 C 0.77943 0.86269 0.83082 0.0
C163 C 0.76881 0.81187 0.84282 0.0
C164 C 0.76023 0.78342 0.71681 0.0
C165 C 0.75773 0.8069 0.58245 0.0
C166 C 0.76358 0.85789 0.58088 0.0
H167 H 0.78754 0.88425 0.9266 0.0
O168 O 0.71067 0.96914 0.97101 0.0
O169 O 0.74001 0.97433 0.75283 0.0
O170 O 0.81963 0.97662 0.97951 0.0
O171 O 0.84932 0.95867 0.76739 0.0
C172 C 0.74861 0.7826 0.44991 0.0
C173 C 0.73836 0.81036 0.32524 0.0
H174 H 0.69498 0.87189 0.13998 0.0
H175 H 0.6801 0.96076 0.20008 0.0
H176 H 0.76827 0.79477 0.94831 0.0
H177 H 0.75381 0.74402 0.7247 0.0
H178 H 0.74765 0.74294 0.44362 0.0
H179 H 0.73101 0.79208 0.22308 0.0
Mn180 Mn 0.96921 0.26277 0.0564 0.0
Mn181 Mn 1.00827 0.23081 0.37301 0.0
C182 C 0.03837 0.31462 0.15433 0.0
C183 C 0.90632 0.29908 0.92107 0.0
C184 C 0.02206 0.17263 0.09788 0.0
O185 O 0.91863 0.20953 0.14341 0.0
O186 O 0.9375 0.2402 0.35478 0.0
C187 C 0.99291 0.32515 0.5223 0.0
N188 N 0.01388 0.28131 0.51201 0.0
C189 C 0.05934 0.29368 0.73067 0.0
C190 C 0.03949 0.34016 0.74401 0.0
C191 C 1.00628 0.35607 0.63903 0.0
C192 C 0.0494 0.26868 0.60311 0.0
H193 H 0.96702 0.33621 0.44116 0.0
C194 C 0.91 0.21168 0.27915 0.0
O195 O 0.93091 0.26344 0.87263 0.0
O196 O 0.91696 0.3136 0.0523 0.0
N197 N 0.07548 0.22128 0.41405 0.0
C198 C 0.10897 0.19347 0.348 0.0
C199 C 0.14526 0.17247 0.43218 0.0
C200 C 0.14655 0.18144 0.58189 0.0
C201 C 0.11548 0.21511 0.64305 0.0
C202 C 0.0803 0.23424 0.5539 0.0
H203 H 0.10779 0.18746 0.23323 0.0
O204 O 0.02107 0.31912 0.02594 0.0
O205 O 0.01521 0.2787 0.22095 0.0
O206 O 0.01587 0.20866 0.01312 0.0
O207 O 1.00808 0.17377 0.23131 0.0
C208 C 0.11734 0.23059 0.78824 0.0
C209 C 0.09107 0.27181 0.83065 0.0
H210 H 0.05153 0.36536 0.82882 0.0
H211 H 0.99119 0.39181 0.64823 0.0
H212 H 0.17099 0.1484 0.38307 0.0
H213 H 0.17147 0.16262 0.64833 0.0
H214 H 0.14139 0.21343 0.86384 0.0
H215 H 0.09879 0.28796 0.9353 0.0
Mn216 Mn 0.76888 0.48372 0.38689 0.0
Mn217 Mn 0.75975 0.54544 0.0747 0.0
C218 C 0.82392 0.55282 0.33304 0.0
C219 C 0.79874 0.41994 0.53022 0.0
C220 C 0.68915 0.55843 0.32815 0.0
O221 O 0.72756 0.4337 0.25705 0.0
O222 O 0.72791 0.47996 0.05761 0.0
C223 C 0.83251 0.48393 0.93032 0.0
N224 N 0.81174 0.52758 0.94986 0.0
C225 C 0.86405 0.5666 0.76998 0.0
C226 C 0.8847 0.52169 0.74108 0.0
C227 C 0.87036 0.48058 0.82614 0.0
C228 C 0.8298 0.56817 0.88248 0.0
H229 H 0.82074 0.45267 -0.00402 0.0
C230 C 0.71702 0.43999 0.12298 0.0
O231 O 0.75872 0.44137 0.56341 0.0
O232 O 0.82128 0.43502 0.41257 0.0
N233 N 0.78913 0.60979 0.06175 0.0
C234 C 0.77846 0.65103 0.13462 0.0
C235 C 0.79423 0.69673 0.07632 0.0
C236 C 0.81649 0.69883 0.93896 0.0
C237 C 0.82943 0.65579 0.87011 0.0
C238 C 0.81604 0.61183 0.93842 0.0
H239 H 0.75726 0.64883 0.23405 0.0
O240 O 0.8164 0.53842 0.46551 0.0
O241 O 0.79965 0.52639 0.23795 0.0
O242 O 0.7095 0.52776 0.41021 0.0
O243 O 0.70462 0.5676 0.1992 0.0
C244 C 0.85581 0.65428 0.73826 0.0
C245 C 0.87633 0.61019 0.69431 0.0
H246 H 0.91255 0.51875 0.65749 0.0
H247 H 0.88823 0.44655 0.8103 0.0
H248 H 0.7866 0.7302 0.13267 0.0
H249 H 0.82414 0.73363 0.88872 0.0
H250 H 0.86321 0.68715 0.67491 0.0
H251 H 0.90192 0.61019 0.60429 0.0
Mn252 Mn 0.54727 0.2446 0.53823 0.0
Mn253 Mn 0.49912 0.28875 0.83313 0.0
C254 C 0.47492 0.19885 0.63241 0.0
C255 C 0.60853 0.20286 0.41039 0.0
C256 C 0.4955 0.33739 0.54485 0.0
O257 O 0.59908 0.29573 0.63311 0.0
O258 O 0.57019 0.2826 0.8559 0.0
C259 C 0.50908 0.20821 0.04488 0.0
N260 N 0.48657 0.24782 -0.00624 0.0
C261 C 0.42976 0.24768 0.19067 0.0
C262 C 0.44944 0.20491 0.24244 0.0
C263 C 0.48959 0.1849 0.16982 0.0
C264 C 0.44641 0.26492 0.05794 0.0
H265 H 0.53967 0.19368 0.98645 0.0
C266 C 0.60403 0.29918 0.77153 0.0
O267 O 0.58709 0.23981 0.35763 0.0
O268 O 0.59654 0.19095 0.5431 0.0
N269 N 0.43002 0.29667 0.83294 0.0
C270 C 0.39775 0.31105 0.73098 0.0
C271 C 0.3527 0.32904 0.77591 0.0
C272 C 0.34099 0.32976 0.92407 0.0
C273 C 0.37227 0.3086 0.02453 0.0
C274 C 0.41693 0.29271 0.97318 0.0
H275 H 0.4061 0.30876 0.61747 0.0
O276 O 0.49293 0.19172 0.50504 0.0
O277 O 0.50166 0.23159 0.70428 0.0
O278 O 0.50264 0.29889 0.47228 0.0
O279 O 0.50829 0.33983 0.67761 0.0
C280 C 0.36138 0.30132 0.1725 0.0
C281 C 0.39092 0.2712 0.25667 0.0
H282 H 0.43122 0.18537 0.33111 0.0
H283 H 0.50487 0.15162 0.20893 0.0
H284 H 0.32734 0.3427 0.6971 0.0
H285 H 0.30709 0.34482 0.95671 0.0
H286 H 0.32997 0.31686 0.22198 0.0
H287 H 0.38255 0.26461 0.36967 0.0
C288 C 0.35615 0.69078 0.96794 0.0
C289 C 0.37646 0.67648 0.83416 0.0
H290 H 0.31874 0.66843 0.16547 0.0
C291 C 0.3695 0.62751 0.79176 0.0
H292 H 0.36124 0.72842 0.00343 0.0
C293 C 0.34623 0.59308 0.88541 0.0
C294 C 0.32875 0.6066 0.02416 0.0
H295 H 0.3857 0.61498 0.69188 0.0
H296 H 0.34345 0.55522 0.84975 0.0
C297 C 0.33269 0.65633 0.06222 0.0
C298 C 0.3453 0.86582 0.38567 0.0
C299 C 0.37574 0.83057 0.32855 0.0
H300 H 0.29313 0.91992 0.33975 0.0
C301 C 0.37462 0.82241 0.17801 0.0
H302 H 0.34365 0.87206 0.50136 0.0
C303 C 0.34959 0.85307 0.0848 0.0
C304 C 0.32134 0.89006 0.1414 0.0
H305 H 0.3951 0.79351 0.13177 0.0
H306 H 0.3523 0.84778 0.96887 0.0
C307 C 0.31706 0.89391 0.29298 0.0
C308 C 0.16507 0.87528 0.31607 0.0
C309 C 0.14775 0.83107 0.37948 0.0
H310 H 0.19915 0.94669 0.34874 0.0
C311 C 0.15606 0.8241 0.52898 0.0
H312 H 0.15917 0.88204 0.20204 0.0
C313 C 0.1788 0.86122 0.61453 0.0
C314 C 0.19385 0.90642 0.55274 0.0
H315 H 0.14324 0.79045 0.58185 0.0
H316 H 0.18329 0.8549 0.72937 0.0
C317 C 0.18765 0.91251 0.40159 0.0
C318 C 0.14427 0.6864 0.68432 0.0
C319 C 0.15231 0.68308 0.83432 0.0
H320 H 0.15844 0.65775 0.47253 0.0
C321 C 0.19001 0.6538 0.88233 0.0
H322 H 0.11765 0.71075 0.6433 0.0
C323 C 0.21681 0.62664 0.78223 0.0
C324 C 0.2038 0.62506 0.63451 0.0
H325 H 0.19843 0.65148 -0.0034 0.0
H326 H 0.24549 0.60423 0.82172 0.0
C327 C 0.16821 0.65654 0.58609 0.0
C328 C 0.84691 0.14608 0.59627 0.0
C329 C 0.83535 0.09934 0.53906 0.0
H330 H 0.87784 0.21842 0.55718 0.0
C331 C 0.8425 0.09193 0.38866 0.0
H332 H 0.84126 0.15354 0.71013 0.0
C333 C 0.86341 0.12933 0.30008 0.0
C334 C 0.87766 0.17512 0.35956 0.0
H335 H 0.83327 0.05662 0.3391 0.0
H336 H 0.8707 0.12156 0.18724 0.0
C337 C 0.86763 0.18342 0.50762 0.0
C338 C 0.88027 0.32205 0.67189 0.0
C339 C 0.87251 0.32456 0.8223 0.0
H340 H 0.86538 0.3516 0.46229 0.0
C341 C 0.83411 0.35259 0.87295 0.0
H342 H 0.90705 0.29822 0.6286 0.0
C343 C 0.80667 0.37985 0.77515 0.0
C344 C 0.81967 0.3827 0.62735 0.0
H345 H 0.82583 0.35414 0.98759 0.0
H346 H 0.77793 0.40178 0.817 0.0
C347 C 0.85567 0.35201 0.57612 0.0
C348 C 0.68196 0.35268 0.0787 0.0
C349 C 0.69257 0.40069 0.02976 0.0
H350 H 0.64731 0.28197 0.03119 0.0
C351 C 0.68068 0.41173 0.88407 0.0
H352 H 0.69101 0.34242 0.18829 0.0
C353 C 0.65712 0.37677 0.79268 0.0
C354 C 0.64376 0.32985 0.84455 0.0
H355 H 0.68865 0.44807 0.83999 0.0
H356 H 0.64603 0.38769 0.68535 0.0
C357 C 0.65771 0.31782 0.98731 0.0
C358 C 0.70357 0.11395 0.27935 0.0
C359 C 0.69885 0.11711 0.12732 0.0
H360 H 0.67822 0.13723 0.4885 0.0
C361 C 0.66577 0.14984 0.07097 0.0
H362 H 0.72873 0.08905 0.32673 0.0
C363 C 0.63814 0.1785 0.16395 0.0
C364 C 0.64128 0.17407 0.31583 0.0
H365 H 0.66127 0.15338 0.95501 0.0
H366 H 0.61335 0.20356 0.11637 0.0
C367 C 0.67456 0.14146 0.37251 0.0
C368 C 0.41202 0.40306 0.28454 0.0
C369 C 0.38371 0.43063 0.37985 0.0
H370 H 0.46985 0.35282 0.26005 0.0
C371 C 0.39929 0.43429 0.52514 0.0
H372 H 0.40287 0.40105 0.1706 0.0
C373 C 0.43914 0.40796 0.57546 0.0
C374 C 0.46366 0.37586 0.48326 0.0
H375 H 0.37949 0.45599 0.60181 0.0
H376 H 0.44808 0.40988 0.68962 0.0
C377 C 0.45102 0.37575 0.33557 0.0
C378 C 0.64993 0.91712 0.64745 0.0
C379 C 0.66578 0.91856 0.79167 0.0
H380 H 0.59971 0.88678 0.49002 0.0
C381 C 0.63535 0.89255 0.8919 0.0
H382 H 0.66489 0.94376 0.5721 0.0
C383 C 0.59579 0.86074 0.84617 0.0
C384 C 0.58482 0.85297 0.69988 0.0
H385 H 0.63946 0.89929 0.00601 0.0
H386 H 0.57143 0.84626 0.92587 0.0
C387 C 0.61083 0.8847 0.60174 0.0
C388 C 0.06081 0.12706 0.89398 0.0
C389 C 0.05159 0.13134 0.04307 0.0
H390 H 0.10495 0.09752 0.72704 0.0
C391 C 0.07711 0.10094 0.13759 0.0
H392 H 0.04066 0.14806 0.81668 0.0
C393 C 0.11632 0.07354 0.08653 0.0
C394 C 0.12895 0.07368 0.93847 0.0
H395 H 0.06969 0.10147 0.25278 0.0
H396 H 0.13786 0.05391 0.16368 0.0
C397 C 0.09836 0.0983 0.84256 0.0
C398 C 0.9077 0.67106 0.31204 0.0
C399 C 0.94594 0.65746 0.21914 0.0
H400 H 0.83889 0.64945 0.41941 0.0
C401 C 0.94216 0.60952 0.16142 0.0
H402 H 0.90692 0.70787 0.35151 0.0
C403 C 0.90245 0.57623 0.19736 0.0
C404 C 0.86499 0.58955 0.29274 0.0
H405 H 0.97028 0.59747 0.08794 0.0
H406 H 0.90137 0.53965 0.15151 0.0
C407 C 0.86797 0.63752 0.34909 0.0
C408 C 0.36711 0.14066 0.86315 0.0
C409 C 0.35848 0.09474 0.79749 0.0
H410 H 0.40747 0.20908 0.86007 0.0
C411 C 0.38854 0.08335 0.67898 0.0
H412 H 0.34418 0.15114 0.95271 0.0
C413 C 0.42531 0.11741 0.62592 0.0
C414 C 0.4342 0.16382 0.69148 0.0
H415 H 0.38408 0.04767 0.6282 0.0
H416 H 0.44737 0.10686 0.5342 0.0
C417 C 0.40404 0.17444 0.81008 0.0
C418 C 0.90886 0.93498 0.11367 0.0
C419 C 0.89803 0.93628 0.96469 0.0
H420 H 0.95367 0.90539 0.28132 0.0
C421 C 0.92886 0.91099 0.87013 0.0
H422 H 0.88705 0.95484 0.19001 0.0
C423 C 0.96486 0.8808 0.92239 0.0
C424 C 0.97296 0.87581 0.07155 0.0
H425 H 0.92362 0.91229 0.7541 0.0
H426 H 0.98497 0.85962 0.84506 0.0
C427 C 0.94708 0.90636 0.16588 0.0
C428 C 0.11529 0.33726 0.31098 0.0
C429 C 0.0792 0.34993 0.21022 0.0
H430 H 0.18186 0.35948 0.4278 0.0
C431 C 0.08385 0.39782 0.15224 0.0
H432 H 0.1154 0.30075 0.35254 0.0
C433 C 0.12233 0.43173 0.19485 0.0
C434 C 0.15803 0.41908 0.29655 0.0
H435 H 0.05741 0.40939 0.07319 0.0
H436 H 0.12409 0.46812 0.14794 0.0
C437 C 0.15396 0.37126 0.35366 0.0
C438 C 0.59565 0.6106 0.59252 0.0
C439 C 0.57205 0.64502 0.50677 0.0
H440 H 0.65063 0.5571 0.60551 0.0
C441 C 0.58467 0.64752 0.35857 0.0
H442 H 0.58713 0.60718 0.70682 0.0
C443 C 0.62149 0.61876 0.30012 0.0
C444 C 0.64687 0.58618 0.38753 0.0
H445 H 0.56702 0.67283 0.28787 0.0
H446 H 0.63066 0.62278 0.18644 0.0
C447 C 0.63247 0.58184 0.53412 0.0
loop_
_geom_bond_atom_site_label_1
_geom_bond_atom_site_label_2
_geom_bond_distance
_geom_bond_site_symmetry_2
_ccdc_geom_bond_type
Mn0 O5 2.095 . S
Mn0 O15 2.162 . S
Mn0 O16 2.297 . S
Mn0 O24 2.385 . S
Mn0 O25 2.209 . S
Mn0 O26 2.094 . S
Mn1 O6 2.121 . S
Mn1 N8 2.257 1_554 S
Mn1 N17 2.282 . S
Mn1 O25 2.215 . S
Mn1 O27 2.117 . S
C2 O24 1.234 . S
C2 O25 1.283 . S
C3 O15 1.281 . S
C3 O16 1.236 . S
C4 O26 1.240 . S
C4 O27 1.264 . S
O5 Mn0 2.095 . S
O5 C14 1.250 . S
O6 Mn1 2.121 . S
O6 C14 1.258 . S
C7 N8 1.326 . S
C7 C11 1.460 . S
C7 H13 0.929 . S
N8 Mn1 2.257 1_556 S
N8 C7 1.326 . S
N8 C12 1.362 . S
C9 C10 1.258 . S
C9 C12 1.431 . S
C9 C29 1.449 . S
C10 C9 1.258 . S
C10 C11 1.477 . S
C10 H30 0.931 . S
C11 C7 1.460 . S
C11 C10 1.477 . S
C11 H31 0.930 . S
C12 N8 1.362 . S
C12 C9 1.431 . S
C12 C22 1.476 . S
H13 C7 0.929 . S
C14 O5 1.250 . S
C14 O6 1.258 . S
O15 Mn0 2.162 . S
O15 C3 1.281 . S
O16 Mn0 2.297 . S
O16 C3 1.236 . S
N17 Mn1 2.282 . S
N17 C18 1.328 . S
N17 C22 1.318 1_554 S
C18 N17 1.328 . S
C18 C19 1.457 . S
C18 H23 0.929 . S
C19 C18 1.457 . S
C19 C20 1.291 . S
C19 H32 0.931 . S
C20 C19 1.291 . S
C20 C21 1.373 1_554 S
C20 H33 0.929 . S
C21 C20 1.373 1_556 S
C21 C22 1.396 . S
C21 C28 1.403 . S
C22 C12 1.476 . S
C22 N17 1.318 1_556 S
C22 C21 1.396 . S
H23 C18 0.929 . S
O24 Mn0 2.385 . S
O24 C2 1.234 . S
O25 Mn0 2.209 . S
O25 Mn1 2.215 . S
O25 C2 1.283 . S
O26 Mn0 2.094 . S
O26 C4 1.240 . S
O27 Mn1 2.117 . S
O27 C4 1.264 . S
C28 C21 1.403 . S
C28 C29 1.399 . S
C28 H34 0.929 . S
C29 C9 1.449 . S
C29 C28 1.399 . S
C29 H35 0.930 . S
H30 C10 0.931 . S
H31 C11 0.930 . S
H32 C19 0.931 . S
H33 C20 0.929 . S
H34 C28 0.929 . S
H35 C29 0.930 . S
Mn36 O41 2.095 . S
Mn36 O51 2.162 . S
Mn36 O52 2.297 . S
Mn36 O60 2.385 . S
Mn36 O61 2.209 . S
Mn36 O62 2.094 . S
Mn37 O42 2.121 . S
Mn37 N44 2.257 1_556 S
Mn37 N53 2.282 . S
Mn37 O61 2.215 . S
Mn37 O63 2.117 . S
C38 O60 1.234 . S
C38 O61 1.283 . S
C39 O51 1.281 . S
C39 O52 1.236 . S
C40 O62 1.240 . S
C40 O63 1.264 . S
O41 Mn36 2.095 . S
O41 C50 1.250 . S
O42 Mn37 2.121 . S
O42 C50 1.258 . S
C43 N44 1.326 . S
C43 C47 1.460 . S
C43 H49 0.929 . S
N44 Mn37 2.257 1_554 S
N44 C43 1.326 . S
N44 C48 1.362 . S
C45 C46 1.258 . S
C45 C48 1.431 . S
C45 C65 1.449 . S
C46 C45 1.258 . S
C46 C47 1.477 . S
C46 H66 0.931 . S
C47 C43 1.460 . S
C47 C46 1.477 . S
C47 H67 0.930 . S
C48 N44 1.362 . S
C48 C45 1.431 . S
C48 C58 1.476 . S
H49 C43 0.929 . S
C50 O41 1.250 . S
C50 O42 1.258 . S
O51 Mn36 2.162 . S
O51 C39 1.281 . S
O52 Mn36 2.297 . S
O52 C39 1.236 . S
N53 Mn37 2.282 . S
N53 C54 1.328 . S
N53 C58 1.318 1_556 S
C54 N53 1.328 . S
C54 C55 1.457 . S
C54 H59 0.929 . S
C55 C54 1.457 . S
C55 C56 1.291 . S
C55 H68 0.931 . S
C56 C55 1.291 . S
C56 C57 1.373 1_556 S
C56 H69 0.929 . S
C57 C56 1.373 1_554 S
C57 C58 1.396 . S
C57 C64 1.403 . S
C58 C48 1.476 . S
C58 N53 1.318 1_554 S
C58 C57 1.396 . S
H59 C54 0.929 . S
O60 Mn36 2.385 . S
O60 C38 1.234 . S
O61 Mn36 2.209 . S
O61 Mn37 2.215 . S
O61 C38 1.283 . S
O62 Mn36 2.094 . S
O62 C40 1.240 . S
O63 Mn37 2.117 . S
O63 C40 1.264 . S
C64 C57 1.403 . S
C64 C65 1.399 . S
C64 H70 0.929 . S
C65 C45 1.449 . S
C65 C64 1.399 . S
C65 H71 0.930 . S
H66 C46 0.931 . S
H67 C47 0.930 . S
H68 C55 0.931 . S
H69 C56 0.929 . S
H70 C64 0.929 . S
H71 C65 0.930 . S
Mn72 O77 2.095 . S
Mn72 O87 2.162 1_556 S
Mn72 O88 2.297 . S
Mn72 O96 2.385 1_565 S
Mn72 O97 2.209 1_565 S
Mn72 O98 2.094 1_566 S
Mn73 O78 2.121 1_545 S
Mn73 N80 2.257 . S
Mn73 N89 2.282 . S
Mn73 O97 2.215 . S
Mn73 O99 2.117 . S
C74 O96 1.234 . S
C74 O97 1.283 . S
C75 O87 1.281 . S
C75 O88 1.236 1_554 S
C76 O98 1.240 1_556 S
C76 O99 1.264 . S
O77 Mn72 2.095 . S
O77 C86 1.250 . S
O78 Mn73 2.121 1_565 S
O78 C86 1.258 . S
C79 N80 1.326 . S
C79 C83 1.460 . S
C79 H85 0.929 1_545 S
N80 Mn73 2.257 . S
N80 C79 1.326 . S
N80 C84 1.362 . S
C81 C82 1.258 . S
C81 C84 1.431 . S
C81 C101 1.449 . S
C82 C81 1.258 . S
C82 C83 1.477 . S
C82 H102 0.931 . S
C83 C79 1.460 . S
C83 C82 1.477 . S
C83 H103 0.930 1_545 S
C84 N80 1.362 . S
C84 C81 1.431 . S
C84 C94 1.476 . S
H85 C79 0.929 1_565 S
C86 O77 1.250 . S
C86 O78 1.258 . S
O87 Mn72 2.162 1_554 S
O87 C75 1.281 . S
O88 Mn72 2.297 . S
O88 C75 1.236 1_556 S
N89 Mn73 2.282 . S
N89 C90 1.328 . S
N89 C94 1.318 . S
C90 N89 1.328 . S
C90 C91 1.457 . S
C90 H95 0.929 . S
C91 C90 1.457 . S
C91 C92 1.291 . S
C91 H104 0.931 . S
C92 C91 1.291 . S
C92 C93 1.373 . S
C92 H105 0.929 . S
C93 C92 1.373 . S
C93 C94 1.396 . S
C93 C100 1.403 . S
C94 C84 1.476 . S
C94 N89 1.318 . S
C94 C93 1.396 . S
H95 C90 0.929 . S
O96 Mn72 2.385 1_545 S
O96 C74 1.234 . S
O97 Mn72 2.209 1_545 S
O97 Mn73 2.215 . S
O97 C74 1.283 . S
O98 Mn72 2.094 1_544 S
O98 C76 1.240 1_554 S
O99 Mn73 2.117 . S
O99 C76 1.264 . S
C100 C93 1.403 . S
C100 C101 1.399 . S
C100 H106 0.929 . S
C101 C81 1.449 . S
C101 C100 1.399 . S
C101 H107 0.930 . S
H102 C82 0.931 . S
H103 C83 0.930 1_565 S
H104 C91 0.931 . S
H105 C92 0.929 . S
H106 C100 0.929 . S
H107 C101 0.930 . S
Mn108 O113 2.095 . S
Mn108 O123 2.162 1_554 S
Mn108 O124 2.297 . S
Mn108 O132 2.385 1_455 S
Mn108 O133 2.209 1_455 S
Mn108 O134 2.094 1_454 S
Mn109 O114 2.121 1_655 S
Mn109 N116 2.257 . S
Mn109 N125 2.282 . S
Mn109 O133 2.215 . S
Mn109 O135 2.117 . S
C110 O132 1.234 . S
C110 O133 1.283 . S
C111 O123 1.281 . S
C111 O124 1.236 1_556 S
C112 O134 1.240 1_554 S
C112 O135 1.264 . S
O113 Mn108 2.095 . S
O113 C122 1.250 . S
O114 Mn109 2.121 1_455 S
O114 C122 1.258 . S
C115 N116 1.326 . S
C115 C119 1.460 . S
C115 H121 0.929 1_655 S
N116 Mn109 2.257 . S
N116 C115 1.326 . S
N116 C120 1.362 . S
C117 C118 1.258 . S
C117 C120 1.431 . S
C117 C137 1.449 . S
C118 C117 1.258 . S
C118 C119 1.477 . S
C118 H138 0.931 . S
C119 C115 1.460 . S
C119 C118 1.477 . S
C119 H139 0.930 1_655 S
C120 N116 1.362 . S
C120 C117 1.431 . S
C120 C130 1.476 . S
H121 C115 0.929 1_455 S
C122 O113 1.250 . S
C122 O114 1.258 . S
O123 Mn108 2.162 1_556 S
O123 C111 1.281 . S
O124 Mn108 2.297 . S
O124 C111 1.236 1_554 S
N125 Mn109 2.282 . S
N125 C126 1.328 . S
N125 C130 1.318 . S
C126 N125 1.328 . S
C126 C127 1.457 . S
C126 H131 0.929 . S
C127 C126 1.457 . S
C127 C128 1.291 . S
C127 H140 0.931 . S
C128 C127 1.291 . S
C128 C129 1.373 . S
C128 H141 0.929 . S
C129 C128 1.373 . S
C129 C130 1.396 . S
C129 C136 1.403 . S
C130 C120 1.476 . S
C130 N125 1.318 . S
C130 C129 1.396 . S
H131 C126 0.929 . S
O132 Mn108 2.385 1_655 S
O132 C110 1.234 . S
O133 Mn108 2.209 1_655 S
O133 Mn109 2.215 . S
O133 C110 1.283 . S
O134 Mn108 2.094 1_656 S
O134 C112 1.240 1_556 S
O135 Mn109 2.117 . S
O135 C112 1.264 . S
C136 C129 1.403 . S
C136 C137 1.399 . S
C136 H142 0.929 . S
C137 C117 1.449 . S
C137 C136 1.399 . S
C137 H143 0.930 . S
H138 C118 0.931 . S
H139 C119 0.930 1_455 S
H140 C127 0.931 . S
H141 C128 0.929 . S
H142 C136 0.929 . S
H143 C137 0.930 . S
Mn144 O149 2.095 . S
Mn144 O159 2.162 1_556 S
Mn144 O160 2.297 . S
Mn144 O168 2.385 1_545 S
Mn144 O169 2.209 1_545 S
Mn144 O170 2.094 1_546 S
Mn145 O150 2.121 1_565 S
Mn145 N152 2.257 . S
Mn145 N161 2.282 . S
Mn145 O169 2.215 . S
Mn145 O171 2.117 . S
C146 O168 1.234 . S
C146 O169 1.283 . S
C147 O159 1.281 . S
C147 O160 1.236 1_554 S
C148 O170 1.240 1_556 S
C148 O171 1.264 . S
O149 Mn144 2.095 . S
O149 C158 1.250 . S
O150 Mn145 2.121 1_545 S
O150 C158 1.258 . S
C151 N152 1.326 . S
C151 C155 1.460 . S
C151 H157 0.929 1_565 S
N152 Mn145 2.257 . S
N152 C151 1.326 . S
N152 C156 1.362 . S
C153 C154 1.258 . S
C153 C156 1.431 . S
C153 C173 1.449 . S
C154 C153 1.258 . S
C154 C155 1.477 . S
C154 H174 0.931 . S
C155 C151 1.460 . S
C155 C154 1.477 . S
C155 H175 0.930 1_565 S
C156 N152 1.362 . S
C156 C153 1.431 . S
C156 C166 1.476 . S
H157 C151 0.929 1_545 S
C158 O149 1.250 . S
C158 O150 1.258 . S
O159 Mn144 2.162 1_554 S
O159 C147 1.281 . S
O160 Mn144 2.297 . S
O160 C147 1.236 1_556 S
N161 Mn145 2.282 . S
N161 C162 1.328 . S
N161 C166 1.318 . S
C162 N161 1.328 . S
C162 C163 1.457 . S
C162 H167 0.929 . S
C163 C162 1.457 . S
C163 C164 1.291 . S
C163 H176 0.931 . S
C164 C163 1.291 . S
C164 C165 1.373 . S
C164 H177 0.929 . S
C165 C164 1.373 . S
C165 C166 1.396 . S
C165 C172 1.403 . S
C166 C156 1.476 . S
C166 N161 1.318 . S
C166 C165 1.396 . S
H167 C162 0.929 . S
O168 Mn144 2.385 1_565 S
O168 C146 1.234 . S
O169 Mn144 2.209 1_565 S
O169 Mn145 2.215 . S
O169 C146 1.283 . S
O170 Mn144 2.094 1_564 S
O170 C148 1.240 1_554 S
O171 Mn145 2.117 . S
O171 C148 1.264 . S
C172 C165 1.403 . S
C172 C173 1.399 . S
C172 H178 0.929 . S
C173 C153 1.449 . S
C173 C172 1.399 . S
C173 H179 0.930 . S
H174 C154 0.931 . S
H175 C155 0.930 1_545 S
H176 C163 0.931 . S
H177 C164 0.929 . S
H178 C172 0.929 . S
H179 C173 0.930 . S
Mn180 O185 2.095 . S
Mn180 O195 2.162 1_554 S
Mn180 O196 2.297 . S
Mn180 O204 2.385 1_655 S
Mn180 O205 2.209 1_655 S
Mn180 O206 2.094 1_654 S
Mn181 O186 2.121 1_455 S
Mn181 N188 2.257 . S
Mn181 N197 2.282 . S
Mn181 O205 2.215 . S
Mn181 O207 2.117 . S
C182 O204 1.234 . S
C182 O205 1.283 . S
C183 O195 1.281 . S
C183 O196 1.236 1_556 S
C184 O206 1.240 1_554 S
C184 O207 1.264 . S
O185 Mn180 2.095 . S
O185 C194 1.250 . S
O186 Mn181 2.121 1_655 S
O186 C194 1.258 . S
C187 N188 1.326 . S
C187 C191 1.460 . S
C187 H193 0.929 1_455 S
N188 Mn181 2.257 . S
N188 C187 1.326 . S
N188 C192 1.362 . S
C189 C190 1.258 . S
C189 C192 1.431 . S
C189 C209 1.449 . S
C190 C189 1.258 . S
C190 C191 1.477 . S
C190 H210 0.931 . S
C191 C187 1.460 . S
C191 C190 1.477 . S
C191 H211 0.930 1_455 S
C192 N188 1.362 . S
C192 C189 1.431 . S
C192 C202 1.476 . S
H193 C187 0.929 1_655 S
C194 O185 1.250 . S
C194 O186 1.258 . S
O195 Mn180 2.162 1_556 S
O195 C183 1.281 . S
O196 Mn180 2.297 . S
O196 C183 1.236 1_554 S
N197 Mn181 2.282 . S
N197 C198 1.328 . S
N197 C202 1.318 . S
C198 N197 1.328 . S
C198 C199 1.457 . S
C198 H203 0.929 . S
C199 C198 1.457 . S
C199 C200 1.291 . S
C199 H212 0.931 . S
C200 C199 1.291 . S
C200 C201 1.373 . S
C200 H213 0.929 . S
C201 C200 1.373 . S
C201 C202 1.396 . S
C201 C208 1.403 . S
C202 C192 1.476 . S
C202 N197 1.318 . S
C202 C201 1.396 . S
H203 C198 0.929 . S
O204 Mn180 2.385 1_455 S
O204 C182 1.234 . S
O205 Mn180 2.209 1_455 S
O205 Mn181 2.215 . S
O205 C182 1.283 . S
O206 Mn180 2.094 1_456 S
O206 C184 1.240 1_556 S
O207 Mn181 2.117 . S
O207 C184 1.264 . S
C208 C201 1.403 . S
C208 C209 1.399 . S
C208 H214 0.929 . S
C209 C189 1.449 . S
C209 C208 1.399 . S
C209 H215 0.930 . S
H210 C190 0.931 . S
H211 C191 0.930 1_655 S
H212 C199 0.931 . S
H213 C200 0.929 . S
H214 C208 0.929 . S
H215 C209 0.930 . S
Mn216 O221 2.095 . S
Mn216 O231 2.162 . S
Mn216 O232 2.297 . S
Mn216 O240 2.385 . S
Mn216 O241 2.209 . S
Mn216 O242 2.094 . S
Mn217 O222 2.121 . S
Mn217 N224 2.257 1_554 S
Mn217 N233 2.282 . S
Mn217 O241 2.215 . S
Mn217 O243 2.117 . S
C218 O240 1.234 . S
C218 O241 1.283 . S
C219 O231 1.281 . S
C219 O232 1.236 . S
C220 O242 1.240 . S
C220 O243 1.264 . S
O221 Mn216 2.095 . S
O221 C230 1.250 . S
O222 Mn217 2.121 . S
O222 C230 1.258 . S
C223 N224 1.326 . S
C223 C227 1.460 . S
C223 H229 0.929 . S
N224 Mn217 2.257 1_556 S
N224 C223 1.326 . S
N224 C228 1.362 . S
C225 C226 1.258 . S
C225 C228 1.431 . S
C225 C245 1.449 . S
C226 C225 1.258 . S
C226 C227 1.477 . S
C226 H246 0.931 . S
C227 C223 1.460 . S
C227 C226 1.477 . S
C227 H247 0.930 . S
C228 N224 1.362 . S
C228 C225 1.431 . S
C228 C238 1.476 . S
H229 C223 0.929 . S
C230 O221 1.250 . S
C230 O222 1.258 . S
O231 Mn216 2.162 . S
O231 C219 1.281 . S
O232 Mn216 2.297 . S
O232 C219 1.236 . S
N233 Mn217 2.282 . S
N233 C234 1.328 . S
N233 C238 1.318 1_554 S
C234 N233 1.328 . S
C234 C235 1.457 . S
C234 H239 0.929 . S
C235 C234 1.457 . S
C235 C236 1.291 . S
C235 H248 0.931 . S
C236 C235 1.291 . S
C236 C237 1.373 1_554 S
C236 H249 0.929 . S
C237 C236 1.373 1_556 S
C237 C238 1.396 . S
C237 C244 1.403 . S
C238 C228 1.476 . S
C238 N233 1.318 1_556 S
C238 C237 1.396 . S
H239 C234 0.929 . S
O240 Mn216 2.385 . S
O240 C218 1.234 . S
O241 Mn216 2.209 . S
O241 Mn217 2.215 . S
O241 C218 1.283 . S
O242 Mn216 2.094 . S
O242 C220 1.240 . S
O243 Mn217 2.117 . S
O243 C220 1.264 . S
C244 C237 1.403 . S
C244 C245 1.399 . S
C244 H250 0.929 . S
C245 C225 1.449 . S
C245 C244 1.399 . S
C245 H251 0.930 . S
H246 C226 0.931 . S
H247 C227 0.930 . S
H248 C235 0.931 . S
H249 C236 0.929 . S
H250 C244 0.929 . S
H251 C245 0.930 . S
Mn252 O257 2.095 . S
Mn252 O267 2.162 . S
Mn252 O268 2.297 . S
Mn252 O276 2.385 . S
Mn252 O277 2.209 . S
Mn252 O278 2.094 . S
Mn253 O258 2.121 . S
Mn253 N260 2.257 1_556 S
Mn253 N269 2.282 . S
Mn253 O277 2.215 . S
Mn253 O279 2.117 . S
C254 O276 1.234 . S
C254 O277 1.283 . S
C255 O267 1.281 . S
C255 O268 1.236 . S
C256 O278 1.240 . S
C256 O279 1.264 . S
O257 Mn252 2.095 . S
O257 C266 1.250 . S
O258 Mn253 2.121 . S
O258 C266 1.258 . S
C259 N260 1.326 . S
C259 C263 1.460 . S
C259 H265 0.929 . S
N260 Mn253 2.257 1_554 S
N260 C259 1.326 . S
N260 C264 1.362 . S
C261 C262 1.258 . S
C261 C264 1.431 . S
C261 C281 1.449 . S
C262 C261 1.258 . S
C262 C263 1.477 . S
C262 H282 0.931 . S
C263 C259 1.460 . S
C263 C262 1.477 . S
C263 H283 0.930 . S
C264 N260 1.362 . S
C264 C261 1.431 . S
C264 C274 1.476 . S
H265 C259 0.929 . S
C266 O257 1.250 . S
C266 O258 1.258 . S
O267 Mn252 2.162 . S
O267 C255 1.281 . S
O268 Mn252 2.297 . S
O268 C255 1.236 . S
N269 Mn253 2.282 . S
N269 C270 1.328 . S
N269 C274 1.318 1_556 S
C270 N269 1.328 . S
C270 C271 1.457 . S
C270 H275 0.929 . S
C271 C270 1.457 . S
C271 C272 1.291 . S
C271 H284 0.931 . S
C272 C271 1.291 . S
C272 C273 1.373 1_556 S
C272 H285 0.929 . S
C273 C272 1.373 1_554 S
C273 C274 1.396 . S
C273 C280 1.403 . S
C274 C264 1.476 . S
C274 N269 1.318 1_554 S
C274 C273 1.396 . S
H275 C270 0.929 . S
O276 Mn252 2.385 . S
O276 C254 1.234 . S
O277 Mn252 2.209 . S
O277 Mn253 2.215 . S
O277 C254 1.283 . S
O278 Mn252 2.094 . S
O278 C256 1.240 . S
O279 Mn253 2.117 . S
O279 C256 1.264 . S
C280 C273 1.403 . S
C280 C281 1.399 . S
C280 H286 0.929 . S
C281 C261 1.449 . S
C281 C280 1.399 . S
C281 H287 0.930 . S
H282 C262 0.931 . S
H283 C263 0.930 . S
H284 C271 0.931 . S
H285 C272 0.929 . S
H286 C280 0.929 . S
H287 C281 0.930 . S
C288 C289 1.387 . S
C288 H292 0.950 . S
C288 C297 1.390 1_556 S
C289 C288 1.387 . S
C289 C291 1.387 . S
H290 C297 0.950 . S
C291 C289 1.387 . S
C291 C293 1.390 1_556 S
C291 H295 0.950 . S
H292 C288 0.950 . S
C293 C291 1.390 1_554 S
C293 C294 1.387 . S
C293 H296 0.950 . S
C294 C293 1.387 . S
C294 C297 1.387 . S
H295 C291 0.950 . S
H296 C293 0.950 . S
C297 C288 1.390 1_554 S
C297 H290 0.950 . S
C297 C294 1.387 . S
C298 C299 1.387 . S
C298 H302 0.950 . S
C298 C307 1.390 . S
C299 C298 1.387 . S
C299 C301 1.387 . S
H300 C307 0.950 . S
C301 C299 1.387 . S
C301 C303 1.390 . S
C301 H305 0.950 . S
H302 C298 0.950 . S
C303 C301 1.390 . S
C303 C304 1.387 . S
C303 H306 0.950 . S
C304 C303 1.387 . S
C304 C307 1.387 . S
H305 C301 0.950 . S
H306 C303 0.950 . S
C307 C298 1.390 . S
C307 H300 0.950 . S
C307 C304 1.387 . S
C308 C309 1.387 . S
C308 H312 0.950 . S
C308 C317 1.390 . S
C309 C308 1.387 . S
C309 C311 1.387 . S
H310 C317 0.950 . S
C311 C309 1.387 . S
C311 C313 1.390 . S
C311 H315 0.950 . S
H312 C308 0.950 . S
C313 C311 1.390 . S
C313 C314 1.387 . S
C313 H316 0.950 . S
C314 C313 1.387 . S
C314 C317 1.387 . S
H315 C311 0.950 . S
H316 C313 0.950 . S
C317 C308 1.390 . S
C317 H310 0.950 . S
C317 C314 1.387 . S
C318 C319 1.387 . S
C318 H322 0.950 . S
C318 C327 1.390 . S
C319 C318 1.387 . S
C319 C321 1.387 . S
H320 C327 0.950 . S
C321 C319 1.387 . S
C321 C323 1.390 . S
C321 H325 0.950 . S
H322 C318 0.950 . S
C323 C321 1.390 . S
C323 C324 1.387 . S
C323 H326 0.950 . S
C324 C323 1.387 . S
C324 C327 1.387 . S
H325 C321 0.950 . S
H326 C323 0.950 . S
C327 C318 1.390 . S
C327 H320 0.950 . S
C327 C324 1.387 . S
C328 C329 1.387 . S
C328 H332 0.950 . S
C328 C337 1.390 . S
C329 C328 1.387 . S
C329 C331 1.387 . S
H330 C337 0.950 . S
C331 C329 1.387 . S
C331 C333 1.390 . S
C331 H335 0.950 . S
H332 C328 0.950 . S
C333 C331 1.390 . S
C333 C334 1.387 . S
C333 H336 0.950 . S
C334 C333 1.387 . S
C334 C337 1.387 . S
H335 C331 0.950 . S
H336 C333 0.950 . S
C337 C328 1.390 . S
C337 H330 0.950 . S
C337 C334 1.387 . S
C338 C339 1.387 . S
C338 H342 0.950 . S
C338 C347 1.390 . S
C339 C338 1.387 . S
C339 C341 1.387 . S
H340 C347 0.950 . S
C341 C339 1.387 . S
C341 C343 1.390 . S
C341 H345 0.950 . S
H342 C338 0.950 . S
C343 C341 1.390 . S
C343 C344 1.387 . S
C343 H346 0.950 . S
C344 C343 1.387 . S
C344 C347 1.387 . S
H345 C341 0.950 . S
H346 C343 0.950 . S
C347 C338 1.390 . S
C347 H340 0.950 . S
C347 C344 1.387 . S
C348 C349 1.387 . S
C348 H352 0.950 . S
C348 C357 1.390 . S
C349 C348 1.387 . S
C349 C351 1.387 1_554 S
H350 C357 0.950 . S
C351 C349 1.387 1_556 S
C351 C353 1.390 . S
C351 H355 0.950 . S
H352 C348 0.950 . S
C353 C351 1.390 . S
C353 C354 1.387 . S
C353 H356 0.950 . S
C354 C353 1.387 . S
C354 C357 1.387 1_556 S
H355 C351 0.950 . S
H356 C353 0.950 . S
C357 C348 1.390 . S
C357 H350 0.950 . S
C357 C354 1.387 1_554 S
C358 C359 1.387 . S
C358 H362 0.950 . S
C358 C367 1.390 . S
C359 C358 1.387 . S
C359 C361 1.387 . S
H360 C367 0.950 . S
C361 C359 1.387 . S
C361 C363 1.390 . S
C361 H365 0.950 . S
H362 C358 0.950 . S
C363 C361 1.390 . S
C363 C364 1.387 . S
C363 H366 0.950 . S
C364 C363 1.387 . S
C364 C367 1.387 . S
H365 C361 0.950 . S
H366 C363 0.950 . S
C367 C358 1.390 . S
C367 H360 0.950 . S
C367 C364 1.387 . S
C368 C369 1.387 . S
C368 H372 0.950 . S
C368 C377 1.390 . S
C369 C368 1.387 . S
C369 C371 1.387 . S
H370 C377 0.950 . S
C371 C369 1.387 . S
C371 C373 1.390 . S
C371 H375 0.950 . S
H372 C368 0.950 . S
C373 C371 1.390 . S
C373 C374 1.387 . S
C373 H376 0.950 . S
C374 C373 1.387 . S
C374 C377 1.387 . S
H375 C371 0.950 . S
H376 C373 0.950 . S
C377 C368 1.390 . S
C377 H370 0.950 . S
C377 C374 1.387 . S
C378 C379 1.387 . S
C378 H382 0.950 . S
C378 C387 1.390 . S
C379 C378 1.387 . S
C379 C381 1.387 . S
H380 C387 0.950 . S
C381 C379 1.387 . S
C381 C383 1.390 . S
C381 H385 0.950 . S
H382 C378 0.950 . S
C383 C381 1.390 . S
C383 C384 1.387 . S
C383 H386 0.950 . S
C384 C383 1.387 . S
C384 C387 1.387 . S
H385 C381 0.950 . S
H386 C383 0.950 . S
C387 C378 1.390 . S
C387 H380 0.950 . S
C387 C384 1.387 . S
C388 C389 1.387 1_556 S
C388 H392 0.950 . S
C388 C397 1.390 . S
C389 C388 1.387 1_554 S
C389 C391 1.387 . S
H390 C397 0.950 . S
C391 C389 1.387 . S
C391 C393 1.390 . S
C391 H395 0.950 . S
H392 C388 0.950 . S
C393 C391 1.390 . S
C393 C394 1.387 1_554 S
C393 H396 0.950 . S
C394 C393 1.387 1_556 S
C394 C397 1.387 . S
H395 C391 0.950 . S
H396 C393 0.950 . S
C397 C388 1.390 . S
C397 H390 0.950 . S
C397 C394 1.387 . S
C398 C399 1.387 . S
C398 H402 0.950 . S
C398 C407 1.390 . S
C399 C398 1.387 . S
C399 C401 1.387 . S
H400 C407 0.950 . S
C401 C399 1.387 . S
C401 C403 1.390 . S
C401 H405 0.950 . S
H402 C398 0.950 . S
C403 C401 1.390 . S
C403 C404 1.387 . S
C403 H406 0.950 . S
C404 C403 1.387 . S
C404 C407 1.387 . S
H405 C401 0.950 . S
H406 C403 0.950 . S
C407 C398 1.390 . S
C407 H400 0.950 . S
C407 C404 1.387 . S
C408 C409 1.387 . S
C408 H412 0.950 . S
C408 C417 1.390 . S
C409 C408 1.387 . S
C409 C411 1.387 . S
H410 C417 0.950 . S
C411 C409 1.387 . S
C411 C413 1.390 . S
C411 H415 0.950 . S
H412 C408 0.950 . S
C413 C411 1.390 . S
C413 C414 1.387 . S
C413 H416 0.950 . S
C414 C413 1.387 . S
C414 C417 1.387 . S
H415 C411 0.950 . S
H416 C413 0.950 . S
C417 C408 1.390 . S
C417 H410 0.950 . S
C417 C414 1.387 . S
C418 C419 1.387 1_554 S
C418 H422 0.950 . S
C418 C427 1.390 . S
C419 C418 1.387 1_556 S
C419 C421 1.387 . S
H420 C427 0.950 . S
C421 C419 1.387 . S
C421 C423 1.390 . S
C421 H425 0.950 . S
H422 C418 0.950 . S
C423 C421 1.390 . S
C423 C424 1.387 1_556 S
C423 H426 0.950 . S
C424 C423 1.387 1_554 S
C424 C427 1.387 . S
H425 C421 0.950 . S
H426 C423 0.950 . S
C427 C418 1.390 . S
C427 H420 0.950 . S
C427 C424 1.387 . S
C428 C429 1.387 . S
C428 H432 0.950 . S
C428 C437 1.390 . S
C429 C428 1.387 . S
C429 C431 1.387 . S
H430 C437 0.950 . S
C431 C429 1.387 . S
C431 C433 1.390 . S
C431 H435 0.950 . S
H432 C428 0.950 . S
C433 C431 1.390 . S
C433 C434 1.387 . S
C433 H436 0.950 . S
C434 C433 1.387 . S
C434 C437 1.387 . S
H435 C431 0.950 . S
H436 C433 0.950 . S
C437 C428 1.390 . S
C437 H430 0.950 . S
C437 C434 1.387 . S
C438 C439 1.387 . S
C438 H442 0.950 . S
C438 C447 1.390 . S
C439 C438 1.387 . S
C439 C441 1.387 . S
H440 C447 0.950 . S
C441 C439 1.387 . S
C441 C443 1.390 . S
C441 H445 0.950 . S
H442 C438 0.950 . S
C443 C441 1.390 . S
C443 C444 1.387 . S
C443 H446 0.950 . S
C444 C443 1.387 . S
C444 C447 1.387 . S
H445 C441 0.950 . S
H446 C443 0.950 . S
C447 C438 1.390 . S
C447 H440 0.950 . S
C447 C444 1.387 . S
C289 C50 1.376 . S
C294 C14 1.376 . S
C299 C39 1.455 . S
C304 C75 1.455 . S
C309 C122 1.378 . S
C314 C86 1.375 . S
C319 C111 1.455 . S
C324 C3 1.455 . S
C329 C158 1.377 . S
C334 C194 1.375 . S
C339 C183 1.455 . S
C344 C219 1.455 . S
C349 C230 1.377 . S
C354 C266 1.375 . S
C359 C147 1.455 . S
C364 C255 1.455 . S
C369 C4 1.462 . S
C374 C256 1.463 . S
C379 C146 1.446 . S
C384 C38 1.445 . S
C389 C184 1.463 . S
C394 C76 1.462 . S
C399 C110 1.446 . S
C404 C218 1.445 . S
C409 C74 1.445 . S
C414 C254 1.446 . S
C419 C148 1.462 . S
C424 C112 1.461 . S
C429 C182 1.446 . S
C434 C2 1.445 . S
C439 C40 1.461 . S
C444 C220 1.462 . S
