# Generated by pormake.
# Topology lhb, (8)-cn, num edge types: 1
# Building blocks:
#     Node 0, Type 0, BuildingBlock: AJUNOK_clean_sbu_0, # of connection points: 8
#     Node 1, Type 0, BuildingBlock: AJUNOK_clean_sbu_0, # of connection points: 8
#     Node 2, Type 0, BuildingBlock: AJUNOK_clean_sbu_0, # of connection points: 8
#     Node 3, Type 0, BuildingBlock: AJUNOK_clean_sbu_0, # of connection points: 8
#     Node 4, Type 0, BuildingBlock: AJUNOK_clean_sbu_0, # of connection points: 8
#     Node 5, Type 0, BuildingBlock: AJUNOK_clean_sbu_0, # of connection points: 8
#     Node 6, Type 0, BuildingBlock: AJUNOK_clean_sbu_0, # of connection points: 8
#     Node 7, Type 0, BuildingBlock: AJUNOK_clean_sbu_0, # of connection points: 8
#     Edge 8, Type (0, 0), BuildingBlock: KIFKEQ_clean_linker_1, # of connection points: 2
#     Edge 9, Type (0, 0), BuildingBlock: KIFKEQ_clean_linker_1, # of connection points: 2
#     Edge 10, Type (0, 0), BuildingBlock: KIFKEQ_clean_linker_1, # of connection points: 2
#     Edge 11, Type (0, 0), BuildingBlock: KIFKEQ_clean_linker_1, # of connection points: 2
#     Edge 12, Type (0, 0), BuildingBlock: KIFKEQ_clean_linker_1, # of connection points: 2
#     Edge 13, Type (0, 0), BuildingBlock: KIFKEQ_clean_linker_1, # of connection points: 2
#     Edge 14, Type (0, 0), BuildingBlock: KIFKEQ_clean_linker_1, # of connection points: 2
#     Edge 15, Type (0, 0), BuildingBlock: KIFKEQ_clean_linker_1, # of connection points: 2
#     Edge 16, Type (0, 0), BuildingBlock: KIFKEQ_clean_linker_1, # of connection points: 2
#     Edge 17, Type (0, 0), BuildingBlock: KIFKEQ_clean_linker_1, # of connection points: 2
#     Edge 18, Type (0, 0), BuildingBlock: KIFKEQ_clean_linker_1, # of connection points: 2
#     Edge 19, Type (0, 0), BuildingBlock: KIFKEQ_clean_linker_1, # of connection points: 2
#     Edge 20, Type (0, 0), BuildingBlock: KIFKEQ_clean_linker_1, # of connection points: 2
#     Edge 21, Type (0, 0), BuildingBlock: KIFKEQ_clean_linker_1, # of connection points: 2
#     Edge 22, Type (0, 0), BuildingBlock: KIFKEQ_clean_linker_1, # of connection points: 2
#     Edge 23, Type (0, 0), BuildingBlock: KIFKEQ_clean_linker_1, # of connection points: 2
#     Edge 24, Type (0, 0), BuildingBlock: KIFKEQ_clean_linker_1, # of connection points: 2
#     Edge 25, Type (0, 0), BuildingBlock: KIFKEQ_clean_linker_1, # of connection points: 2
#     Edge 26, Type (0, 0), BuildingBlock: KIFKEQ_clean_linker_1, # of connection points: 2
#     Edge 27, Type (0, 0), BuildingBlock: KIFKEQ_clean_linker_1, # of connection points: 2
#     Edge 28, Type (0, 0), BuildingBlock: KIFKEQ_clean_linker_1, # of connection points: 2
#     Edge 29, Type (0, 0), BuildingBlock: KIFKEQ_clean_linker_1, # of connection points: 2
#     Edge 30, Type (0, 0), BuildingBlock: KIFKEQ_clean_linker_1, # of connection points: 2
#     Edge 31, Type (0, 0), BuildingBlock: KIFKEQ_clean_linker_1, # of connection points: 2
#     Edge 32, Type (0, 0), BuildingBlock: KIFKEQ_clean_linker_1, # of connection points: 2
#     Edge 33, Type (0, 0), BuildingBlock: KIFKEQ_clean_linker_1, # of connection points: 2
#     Edge 34, Type (0, 0), BuildingBlock: KIFKEQ_clean_linker_1, # of connection points: 2
#     Edge 35, Type (0, 0), BuildingBlock: KIFKEQ_clean_linker_1, # of connection points: 2
#     Edge 36, Type (0, 0), BuildingBlock: KIFKEQ_clean_linker_1, # of connection points: 2
#     Edge 37, Type (0, 0), BuildingBlock: KIFKEQ_clean_linker_1, # of connection points: 2
#     Edge 38, Type (0, 0), BuildingBlock: KIFKEQ_clean_linker_1, # of connection points: 2
#     Edge 39, Type (0, 0), BuildingBlock: KIFKEQ_clean_linker_1, # of connection points: 2
# Relax obj value: 0.074
# Max RMSD: 0.163
# Mean RMSD: 0.163
data_MOF--net-lhb--node1-AJUNOK_clean_sbu_0--edge1-KIFKEQ_clean_linker_1
_symmetry_space_group_name_H-M    P1
_symmetry_Int_Tables_number       1
_symmetry_cell_setting            triclinic
loop_
_symmetry_equiv_pos_as_xyz
'x, y, z'
_cell_length_a     34.629144
_cell_length_b     13.290698
_cell_length_c     77.160699
_cell_angle_alpha  89.983402
_cell_angle_beta   89.952327
_cell_angle_gamma 90.122089
loop_
_atom_site_label
_atom_site_type_symbol
_atom_site_fract_x
_atom_site_fract_y
_atom_site_fract_z
_atom_type_partial_charge
Cd0 Cd 0.03967 0.08775 1.01126 0.0
Cd1 Cd 0.92188 0.9548 0.01976 0.0
C2 C 0.07375 0.94162 0.98075 0.0
N3 N 0.04833 0.01845 0.98325 0.0
C4 C 0.03867 0.03254 0.95261 0.0
C5 C 0.06469 0.95349 0.94976 0.0
C6 C 0.08187 0.90683 0.96409 0.0
C7 C 0.03095 0.06402 0.96953 0.0
H8 H 0.08925 0.90962 0.99153 0.0
H9 H 0.01154 0.12614 0.97163 0.0
C10 C 0.94038 0.16877 1.01158 0.0
C11 C 0.90446 0.05407 0.05786 0.0
C12 C 0.8967 0.04762 0.07563 0.0
C13 C 0.90512 0.95804 0.08451 0.0
C14 C 0.92393 0.88006 0.07569 0.0
C15 C 0.93159 0.89018 0.05807 0.0
N16 N 0.92069 0.97465 0.04949 0.0
H17 H 0.89545 0.11956 0.0506 0.0
H18 H 0.94395 0.82799 0.05094 0.0
C19 C 0.8692 0.96569 0.98542 0.0
N20 N 0.90674 0.97412 0.9904 0.0
C21 C 0.92638 0.00332 0.96112 0.0
C22 C 0.88784 -0.00455 0.9556 0.0
C23 C 0.85908 0.97563 0.96799 0.0
C24 C 0.93521 -0.00854 0.97867 0.0
H25 H 0.84707 0.95149 0.99501 0.0
H26 H 0.9647 -0.00449 0.98304 0.0
C27 C 0.0194 0.87601 0.01838 0.0
C28 C 0.08287 0.25969 1.00176 0.0
N29 N 0.06087 0.08997 0.03996 0.0
C30 C 0.09509 0.04883 0.04486 0.0
C31 C 0.10799 0.05894 0.06195 0.0
C32 C 0.08581 0.11359 0.07394 0.0
C33 C 0.05053 0.15475 0.0685 0.0
C34 C 0.03849 0.14161 0.05138 0.0
C35 C 0.87326 0.78686 0.02119 0.0
O36 O 0.96855 0.10838 0.01252 0.0
O37 O 0.90716 0.13465 0.01532 0.0
O38 O -0.00762 0.939 0.02 0.0
O39 O 0.05357 0.90954 0.01825 0.0
O40 O 0.0557 0.26803 0.0127 0.0
O41 O 0.08983 0.17247 0.99597 0.0
O42 O 0.90756 0.77841 0.01562 0.0
O43 O 0.86281 0.87242 0.02683 0.0
H44 H 0.11266 0.00976 0.03543 0.0
H45 H 0.0116 0.17435 0.04704 0.0
H46 H 0.02486 0.07064 0.94187 0.0
H47 H 0.1029 0.84742 0.9624 0.0
H48 H 0.8819 0.10886 0.08207 0.0
H49 H 0.93094 0.81017 0.08219 0.0
H50 H 0.94944 0.0173 0.95194 0.0
H51 H 0.829 0.96979 0.96427 0.0
H52 H 0.13554 0.02692 0.06561 0.0
H53 H 0.03247 0.19669 0.07739 0.0
Cd54 Cd 0.29207 0.12691 0.26514 0.0
Cd55 Cd 0.17063 0.25468 0.26326 0.0
C56 C 0.31503 0.30365 0.23705 0.0
N57 N 0.29312 0.21924 0.23917 0.0
C58 C 0.28306 0.20787 0.20859 0.0
C59 C 0.30675 0.29248 0.206 0.0
C60 C 0.32173 0.34248 0.22053 0.0
C61 C 0.27691 0.17199 0.22536 0.0
H62 H 0.32958 0.33764 0.24794 0.0
H63 H 0.26138 0.10231 0.22731 0.0
C64 C 0.19293 0.0408 0.26679 0.0
C65 C 0.13932 0.22461 0.3018 0.0
C66 C 0.12554 0.24611 0.31838 0.0
C67 C 0.12866 0.34424 0.32499 0.0
C68 C 0.14681 0.41806 0.31475 0.0
C69 C 0.16007 0.39325 0.29813 0.0
N70 N 0.15588 0.29787 0.29199 0.0
H71 H 0.1359 0.1497 0.29659 0.0
H72 H 0.17263 0.4508 0.28999 0.0
C73 C 0.18232 0.14591 0.22633 0.0
N74 N 0.18469 0.23991 0.23323 0.0
C75 C 0.17989 0.31199 0.20479 0.0
C76 C 0.17534 0.21556 0.19751 0.0
C77 C 0.17866 0.13199 0.20853 0.0
C78 C 0.18456 0.32247 0.22275 0.0
H79 H 0.18096 0.08091 0.23457 0.0
H80 H 0.18484 0.39697 0.22833 0.0
C81 C 0.26702 0.33187 0.27369 0.0
C82 C 0.34008 -0.00079 0.24603 0.0
N83 N 0.31663 0.09489 0.29276 0.0
C84 C 0.34687 0.151 0.29854 0.0
C85 C 0.36108 0.13733 0.31529 0.0
C86 C 0.34459 0.06363 0.32602 0.0
C87 C 0.31431 0.00421 0.31952 0.0
C88 C 0.30049 0.02172 0.30275 0.0
C89 C 0.10354 0.34143 0.25095 0.0
O90 O 0.221 0.10097 0.26604 0.0
O91 O 0.15911 0.07606 0.26726 0.0
O92 O 0.24066 0.26904 0.27062 0.0
O93 O 0.30087 0.29907 0.27601 0.0
O94 O 0.31044 0.96153 0.25333 0.0
O95 O 0.34805 0.0905 0.24915 0.0
O96 O 0.13208 0.3985 0.25469 0.0
O97 O 0.10655 0.24788 0.25407 0.0
H98 H 0.35973 0.20726 0.2902 0.0
H99 H 0.27664 0.97774 0.29775 0.0
H100 H 0.27155 0.16572 0.19775 0.0
H101 H 0.34006 0.4081 0.2191 0.0
H102 H 0.11228 0.18649 0.3259 0.0
H103 H 0.14952 0.49488 0.31926 0.0
H104 H 0.1772 0.3791 0.19694 0.0
H105 H 0.17655 0.05592 0.20361 0.0
H106 H 0.38477 0.18376 0.31981 0.0
H107 H 0.30082 0.94688 0.32747 0.0
Cd108 Cd 0.66114 0.81622 0.26751 0.0
Cd109 Cd 0.78827 0.71511 0.26819 0.0
C110 C 0.65804 0.69208 0.23264 0.0
N111 N 0.67376 0.78049 0.2381 0.0
C112 C 0.68305 0.83248 0.20865 0.0
C113 C 0.66531 0.74363 0.20277 0.0
C114 C 0.65398 0.67153 0.21505 0.0
C115 C 0.68685 0.84971 0.22647 0.0
H116 H 0.6461 0.63981 0.24191 0.0
H117 H 0.69837 0.9205 0.23084 0.0
C118 C 0.75571 0.92053 0.26856 0.0
C119 C 0.8255 0.77949 0.30484 0.0
C120 C 0.83618 0.77064 0.32221 0.0
C121 C 0.82314 0.68792 0.33197 0.0
C122 C 0.79862 0.61732 0.32399 0.0
C123 C 0.78847 0.62955 0.30663 0.0
N124 N 0.80223 0.70913 0.29746 0.0
H125 H 0.83635 0.84144 0.29715 0.0
H126 H 0.77037 0.57425 0.30029 0.0
C127 C 0.81828 0.84311 0.23585 0.0
N128 N 0.7901 0.77464 0.23949 0.0
C129 C 0.77663 0.7551 0.20927 0.0
C130 C 0.80556 0.82552 0.20527 0.0
C131 C 0.82601 0.87108 0.21881 0.0
C132 C 0.76914 0.73109 0.2266 0.0
H133 H 0.83615 0.87286 0.24612 0.0
H134 H 0.74746 0.67555 0.22965 0.0
C135 C 0.69194 0.60868 0.27167 0.0
C136 C 0.5891 0.85963 0.25422 0.0
N137 N 0.65543 0.8714 0.29602 0.0
C138 C 0.66603 0.80455 0.30845 0.0
C139 C 0.65946 0.82561 0.32591 0.0
C140 C 0.64194 0.91681 0.33068 0.0
C141 C 0.63253 -0.01394 0.31754 0.0
C142 C 0.63942 0.96151 0.30017 0.0
C143 C 0.84899 0.59558 0.25703 0.0
O144 O 0.73064 0.85203 0.26999 0.0
O145 O 0.79068 0.89689 0.27082 0.0
O146 O 0.7195 0.67111 0.27183 0.0
O147 O 0.65811 0.64068 0.27426 0.0
O148 O 0.61418 0.93028 0.25467 0.0
O149 O 0.59669 0.77786 0.26203 0.0
O150 O 0.81568 0.5555 0.25829 0.0
O151 O 0.85356 0.68428 0.26272 0.0
H152 H 0.67855 0.73325 0.30476 0.0
H153 H 0.6312 0.01318 0.29 0.0
H154 H 0.69198 0.89055 0.19964 0.0
H155 H 0.64051 0.60153 0.21113 0.0
H156 H 0.85467 0.82758 0.32788 0.0
H157 H 0.78835 0.55155 0.33089 0.0
H158 H 0.76043 0.71803 0.19909 0.0
H159 H 0.84921 0.92377 0.21619 0.0
H160 H 0.6668 0.76924 0.33549 0.0
H161 H 0.61961 0.058 0.3206 0.0
Cd162 Cd 0.04749 0.53764 0.51143 0.0
Cd163 Cd 0.93169 0.39953 0.51532 0.0
C164 C 0.04354 0.40723 0.47625 0.0
N165 N 0.03099 0.49685 0.48261 0.0
C166 C 0.01944 0.55697 0.45381 0.0
C167 C 0.03388 0.46673 0.44691 0.0
C168 C 0.04478 0.3901 0.45843 0.0
C169 C 0.01832 0.57059 0.47178 0.0
H170 H 0.05545 0.35138 0.48483 0.0
H171 H 0.00969 0.64253 0.47692 0.0
C172 C 0.95073 0.61232 0.52253 0.0
C173 C 0.8712 0.4233 0.54707 0.0
C174 C 0.8563 0.4124 0.5638 0.0
C175 C 0.87836 0.3637 0.57655 0.0
C176 C 0.91527 0.32813 0.57215 0.0
C177 C 0.92918 0.34167 0.55534 0.0
N178 N 0.90712 0.38855 0.54325 0.0
H179 H 0.85407 0.45879 0.53708 0.0
H180 H 0.95748 0.31405 0.55182 0.0
C181 C 0.9052 0.55821 0.4851 0.0
N182 N 0.92519 0.47148 0.4877 0.0
C183 C 0.93175 0.44788 0.4571 0.0
C184 C 0.91065 0.53643 0.45406 0.0
C185 C 0.89824 0.59302 0.46837 0.0
C186 C 0.93885 0.41694 0.47411 0.0
H187 H 0.89328 0.59927 0.49588 0.0
H188 H 0.95408 0.34733 0.47652 0.0
C189 C 0.02978 0.32653 0.51857 0.0
C190 C 0.10439 0.6558 0.4959 0.0
N191 N 0.06316 0.57402 0.54046 0.0
C192 C 0.08303 0.50419 0.54974 0.0
C193 C 0.09331 0.52282 0.5669 0.0
C194 C 0.08343 0.61471 0.57468 0.0
C195 C 0.06328 0.68616 0.56478 0.0
C196 C 0.05335 0.66406 0.5476 0.0
C197 C 0.89373 0.22324 0.50454 0.0
O198 O 0.97746 0.5535 0.51808 0.0
O199 O 0.91761 0.57459 0.52506 0.0
O200 O 0.00229 0.38675 0.51638 0.0
O201 O 0.06382 0.36037 0.51736 0.0
O202 O 0.0746 0.69869 0.50212 0.0
O203 O 0.10796 0.56173 0.4982 0.0
O204 O 0.92415 0.21665 0.51364 0.0
O205 O 0.88159 0.3108 0.50092 0.0
H206 H 0.09144 0.43409 0.54382 0.0
H207 H 0.03805 0.71909 0.53996 0.0
H208 H 0.01046 0.61785 0.44541 0.0
H209 H 0.05693 0.32018 0.45375 0.0
H210 H 0.82754 0.43978 0.56664 0.0
H211 H 0.93328 0.29084 0.58165 0.0
H212 H 0.94153 0.40105 0.44649 0.0
H213 H 0.88233 0.6624 0.4667 0.0
H214 H 0.10952 0.46635 0.57392 0.0
H215 H 0.05496 0.75788 0.57028 0.0
Cd216 Cd 0.18018 0.76724 0.76483 0.0
Cd217 Cd 0.29388 0.61178 0.76503 0.0
C218 C 0.1614 0.65084 0.72792 0.0
N219 N 0.17626 0.73761 0.73457 0.0
C220 C 0.18165 0.80727 0.706 0.0
C221 C 0.1661 0.71879 0.6989 0.0
C222 C 0.15645 0.63956 0.71011 0.0
C223 C 0.18657 0.81495 0.72394 0.0
H224 H 0.15203 0.59071 0.73625 0.0
H225 H 0.19763 0.88392 0.72942 0.0
C226 C 0.27919 0.83205 0.76932 0.0
C227 C 0.34624 0.65254 0.80015 0.0
C228 C 0.35855 0.6359 0.8172 0.0
C229 C 0.33955 0.56398 0.8276 0.0
C230 C 0.30813 0.51137 0.82036 0.0
C231 C 0.29637 0.53182 0.80345 0.0
N232 N 0.31544 0.60109 0.79371 0.0
H233 H 0.36153 0.70575 0.79205 0.0
H234 H 0.27239 0.49071 0.79789 0.0
C235 C 0.33736 0.72878 0.73446 0.0
N236 N 0.30337 0.68045 0.73743 0.0
C237 C 0.28491 0.70117 0.70777 0.0
C238 C 0.32037 0.74902 0.70422 0.0
C239 C 0.34631 0.76454 0.71795 0.0
C240 C 0.277 0.66714 0.72459 0.0
H241 H 0.358 0.73751 0.74486 0.0
H242 H 0.25036 0.62751 0.72729 0.0
C243 C 0.19408 0.547 0.76592 0.0
C244 C 0.13539 0.94386 0.76415 0.0
N245 N 0.17853 0.76657 0.79508 0.0
C246 C 0.16937 0.68421 0.80474 0.0
C247 C 0.16191 0.69399 0.82244 0.0
C248 C 0.16357 0.78947 0.83023 0.0
C249 C 0.17508 0.87209 0.82008 0.0
C250 C 0.18257 0.85874 0.80248 0.0
C251 C 0.32786 0.42602 0.75575 0.0
O252 O 0.25045 0.77449 0.76767 0.0
O253 O 0.31208 0.79147 0.77075 0.0
O254 O 0.22291 0.60534 0.76554 0.0
O255 O 0.16086 0.58668 0.76688 0.0
O256 O 0.17067 0.94736 0.75972 0.0
O257 O 0.12135 0.859 0.76843 0.0
O258 O 0.29778 0.42737 0.76511 0.0
O259 O 0.34159 0.51023 0.75103 0.0
H260 H 0.1663 0.61142 0.79873 0.0
H261 H 0.18977 0.92303 0.7945 0.0
H262 H 0.18955 0.87015 0.69779 0.0
H263 H 0.14363 0.57077 0.70523 0.0
H264 H 0.38259 0.67938 0.82215 0.0
H265 H 0.29303 0.45334 0.82753 0.0
H266 H 0.26413 0.68673 0.69759 0.0
H267 H 0.37362 0.80266 0.71595 0.0
H268 H 0.15388 0.6279 0.82983 0.0
H269 H 0.17638 0.94734 0.82542 0.0
Cd270 Cd 0.66503 0.26028 0.77352 0.0
Cd271 Cd 0.80291 0.2192 0.76666 0.0
C272 C 0.63025 0.17504 0.73901 0.0
N273 N 0.66003 0.23585 0.74374 0.0
C274 C 0.67653 0.26429 0.71407 0.0
C275 C 0.64539 0.20329 0.70887 0.0
C276 C 0.62241 0.15756 0.72161 0.0
C277 C 0.68344 0.27933 0.73175 0.0
H278 H 0.61222 0.14079 0.74881 0.0
H279 H 0.70699 0.32636 0.73592 0.0
C280 C 0.75302 0.42561 0.77081 0.0
C281 C 0.82541 0.23185 0.80565 0.0
C282 C 0.83158 0.2113 0.82312 0.0
C283 C 0.81852 0.12008 0.83025 0.0
C284 C 0.79937 0.05137 0.81931 0.0
C285 C 0.79393 0.07502 0.80177 0.0
N286 N 0.80709 0.16412 0.79535 0.0
H287 H 0.8356 0.30197 0.80018 0.0
H288 H 0.77931 0.02232 0.79335 0.0
C289 C 0.78507 0.31583 0.72967 0.0
N290 N 0.79472 0.22462 0.73636 0.0
C291 C 0.80728 0.1614 0.70786 0.0
C292 C 0.79815 0.25566 0.70069 0.0
C293 C 0.78618 0.33281 0.71185 0.0
C294 C 0.80583 0.14784 0.72582 0.0
H295 H 0.77798 0.37719 0.73818 0.0
H296 H 0.81584 0.07796 0.73132 0.0
C297 C 0.71671 0.09138 0.76486 0.0
C298 C 0.58481 0.28392 0.77526 0.0
N299 N 0.67313 0.26336 0.80313 0.0
C300 C 0.66196 0.18164 0.81246 0.0
C301 C 0.6532 0.19165 0.83004 0.0
C302 C 0.6558 0.28683 0.83789 0.0
C303 C 0.67083 0.3676 0.82822 0.0
C304 C 0.67898 0.35436 0.81068 0.0
C305 C 0.8827 0.209 0.7621 0.0
O306 O 0.72323 0.36948 0.77173 0.0
O307 O 0.78688 0.38943 0.77142 0.0
O308 O 0.73695 0.16575 0.76951 0.0
O309 O 0.6814 0.09056 0.76892 0.0
O310 O 0.60584 0.35677 0.76997 0.0
O311 O 0.60184 0.20652 0.78102 0.0
O312 O 0.86165 0.13102 0.75981 0.0
O313 O 0.86626 0.28997 0.7669 0.0
H314 H 0.65648 0.11104 0.80593 0.0
H315 H 0.68687 0.41849 0.8028 0.0
H316 H 0.6951 0.30021 0.7046 0.0
H317 H 0.59785 0.11111 0.71817 0.0
H318 H 0.84713 0.26589 0.83086 0.0
H319 H 0.78845 0.98057 0.82426 0.0
H320 H 0.81764 0.1005 0.69979 0.0
H321 H 0.77877 0.4066 0.70692 0.0
H322 H 0.64142 0.12764 0.83695 0.0
H323 H 0.67385 0.44181 0.83387 0.0
Cd324 Cd 0.55606 0.05009 0.52218 0.0
Cd325 Cd 0.42692 0.96072 0.51647 0.0
C326 C 0.59068 -0.00394 0.4867 0.0
N327 N 0.55904 0.04776 0.49204 0.0
C328 C 0.54052 0.07771 0.46264 0.0
C329 C 0.57379 0.02696 0.45684 0.0
C330 C 0.59869 0.98491 0.46917 0.0
C331 C 0.53369 0.08759 0.48048 0.0
H332 H 0.60981 0.96289 0.49616 0.0
H333 H 0.50837 0.12687 0.48502 0.0
C334 C 0.46206 0.16859 0.51777 0.0
C335 C 0.4287 -0.00325 0.55778 0.0
C336 C 0.41969 0.98272 0.57529 0.0
C337 C 0.39969 0.8956 0.58052 0.0
C338 C 0.39056 0.82293 0.56792 0.0
C339 C 0.40006 0.84014 0.55058 0.0
N340 N 0.4183 0.9265 0.54585 0.0
H341 H 0.44301 0.06506 0.55364 0.0
H342 H 0.39206 0.78559 0.54082 0.0
C343 C 0.42343 0.06698 0.4799 0.0
N344 N 0.43842 0.98101 0.48661 0.0
C345 C 0.4453 0.91242 0.45806 0.0
C346 C 0.4281 -0.001 0.45092 0.0
C347 C 0.41896 0.07864 0.46213 0.0
C348 C 0.45016 0.90492 0.47606 0.0
H349 H 0.41215 0.12413 0.48835 0.0
H350 H 0.46053 0.83553 0.4816 0.0
C351 C 0.51907 0.85025 0.51668 0.0
C352 C 0.63464 0.08452 0.52492 0.0
N353 N 0.54387 0.08441 0.55096 0.0
C354 C 0.54208 0.00572 0.56217 0.0
C355 C 0.54543 0.02234 0.57996 0.0
C356 C 0.55098 0.12082 0.58612 0.0
C357 C 0.54958 0.20108 0.57427 0.0
C358 C 0.54624 0.18098 0.5566 0.0
C359 C 0.35681 0.8902 0.50451 0.0
O360 O 0.48827 0.10523 0.5211 0.0
O361 O 0.42725 0.1406 0.51925 0.0
O362 O 0.49442 0.91786 0.51958 0.0
O363 O 0.55399 0.8701 0.51981 0.0
O364 O 0.61286 0.15523 0.5194 0.0
O365 O 0.61859 0.00512 0.53063 0.0
O366 O 0.38477 0.82846 0.50614 0.0
O367 O 0.36125 0.9792 0.51019 0.0
H368 H 0.54091 0.92967 0.5572 0.0
H369 H 0.54818 0.24176 0.54732 0.0
H370 H 0.52043 0.11074 0.45353 0.0
H371 H 0.62404 0.94282 0.46532 0.0
H372 H 0.42713 0.04108 0.5845 0.0
H373 H 0.37591 0.75373 0.57138 0.0
H374 H 0.4526 0.84845 0.45003 0.0
H375 H 0.40657 0.14803 0.45736 0.0
H376 H 0.54665 0.95828 0.58862 0.0
H377 H 0.55317 0.27816 0.57854 0.0
Cd378 Cd 0.55295 0.51936 0.01659 0.0
Cd379 Cd 0.42213 0.44357 0.01948 0.0
C380 C 0.54423 0.36387 0.98547 0.0
N381 N 0.5326 0.45799 0.98994 0.0
C382 C 0.521 0.49958 0.96033 0.0
C383 C 0.53643 0.40648 0.9552 0.0
C384 C 0.54618 0.33611 0.96806 0.0
C385 C 0.51969 0.52432 0.97788 0.0
H386 H 0.55559 0.31378 0.99525 0.0
H387 H 0.51144 0.59932 0.9817 0.0
C388 C 0.46043 0.64879 0.01376 0.0
C389 C 0.41773 0.49165 0.05908 0.0
C390 C 0.40945 0.48176 0.07666 0.0
C391 C 0.40314 0.38568 0.08372 0.0
C392 C 0.40711 0.30117 0.07286 0.0
C393 C 0.41517 0.31471 0.05526 0.0
N394 N 0.41965 0.40904 0.04878 0.0
H395 H 0.42081 0.5657 0.05342 0.0
H396 H 0.41634 0.25049 0.04667 0.0
C397 C 0.40794 0.51764 0.98247 0.0
N398 N 0.42705 0.43652 0.98886 0.0
C399 C 0.43624 0.37386 0.95997 0.0
C400 C 0.41583 0.45662 0.95322 0.0
C401 C 0.40278 0.53034 0.96479 0.0
C402 C 0.44168 0.36533 0.97797 0.0
H403 H 0.39526 0.57176 0.99117 0.0
H404 H 0.45672 0.30092 0.98304 0.0
C405 C 0.5126 0.3377 0.02888 0.0
C406 C 0.62404 0.54899 1.00057 0.0
N407 N 0.56809 0.57943 0.04408 0.0
C408 C 0.59541 0.52418 0.05234 0.0
C409 C 0.60702 0.54914 0.06907 0.0
C410 C 0.59071 0.6328 0.07743 0.0
C411 C 0.56267 0.68934 0.06849 0.0
C412 C 0.55167 0.66106 0.0517 0.0
C413 C 0.34323 0.42343 0.01719 0.0
O414 O 0.4881 0.58855 0.01602 0.0
O415 O 0.42685 0.62091 0.01797 0.0
O416 O 0.48994 0.41077 0.02646 0.0
O417 O 0.54833 0.35648 0.02965 0.0
O418 O 0.60098 0.62323 1.00226 0.0
O419 O 0.6137 0.465 1.00688 0.0
O420 O 0.36463 0.34647 0.01451 0.0
O421 O 0.35926 0.50461 0.02219 0.0
H422 H 0.60796 0.45973 0.04592 0.0
H423 H 0.53008 0.70394 0.04478 0.0
H424 H 0.51244 0.55529 0.95085 0.0
H425 H 0.55864 0.264 0.96474 0.0
H426 H 0.40613 0.54912 0.08441 0.0
H427 H 0.40304 0.22564 0.07781 0.0
H428 H 0.44686 0.31499 0.95153 0.0
H429 H 0.3877 0.5967 0.9603 0.0
H430 H 0.62808 0.50195 0.07548 0.0
H431 H 0.54959 0.75502 0.07433 0.0
H432 H 0.11532 0.97345 0.09613 0.0
H433 H 0.08784 0.28938 0.09227 0.0
H434 H 0.13844 -0.00054 0.12574 0.0
H435 H 0.1109 0.31539 0.12192 0.0
H436 H 0.19517 0.3302 0.16891 0.0
H437 H 0.17409 0.30708 0.13896 0.0
H438 H 0.10766 0.04672 0.15424 0.0
H439 H 0.1273 0.07089 0.18407 0.0
C440 C 0.11441 0.04847 0.1016 0.0
C441 C 0.09976 0.12933 0.09192 0.0
C442 C 0.12743 0.06329 0.11855 0.0
C443 C 0.12657 0.15955 0.1261 0.0
C444 C 0.11226 0.24063 0.11637 0.0
C445 C 0.09874 0.22554 0.09949 0.0
C446 C 0.176 0.26817 0.16595 0.0
C447 C 0.16369 0.20147 0.17902 0.0
C448 C 0.16394 0.255 0.14876 0.0
C449 C 0.13955 0.17447 0.14425 0.0
C450 C 0.12711 0.10821 0.15726 0.0
C451 C 0.13873 0.12192 0.1744 0.0
H452 H 0.85984 0.80425 0.09517 0.0
H453 H 0.91658 0.07312 0.11345 0.0
H454 H 0.83339 0.77463 0.12388 0.0
H455 H 0.89203 0.04106 0.14267 0.0
H456 H 0.81438 0.00808 0.18965 0.0
H457 H 0.8375 0.04198 0.16035 0.0
H458 H 0.84857 0.72176 0.15147 0.0
H459 H 0.82346 0.689 0.18038 0.0
C460 C 0.86709 0.85618 0.1055 0.0
C461 C 0.89037 0.94057 0.10221 0.0
C462 C 0.85212 0.83902 0.12201 0.0
C463 C 0.86068 0.90488 0.13575 0.0
C464 C 0.88421 -0.01054 0.1324 0.0
C465 C 0.89858 0.00767 0.11573 0.0
C466 C 0.82137 0.9453 0.18127 0.0
C467 C 0.81683 0.84603 0.18714 0.0
C468 C 0.83503 0.96452 0.16455 0.0
C469 C 0.84516 0.88478 0.15345 0.0
C470 C 0.84037 0.7853 0.15942 0.0
C471 C 0.82603 0.76622 0.17601 0.0
H472 H 0.02311 0.30023 0.42652 0.0
H473 H 0.06338 0.6079 0.4247 0.0
H474 H 0.04455 0.27553 0.39676 0.0
H475 H 0.08325 0.58462 0.39468 0.0
H476 H 0.16007 0.46258 0.35051 0.0
H477 H 0.13369 0.49764 0.37921 0.0
H478 H 0.03295 0.31872 0.36708 0.0
H479 H 0.05951 0.28298 0.33852 0.0
C480 C 0.03606 0.36301 0.41969 0.0
C481 C 0.04166 0.45584 0.42804 0.0
C482 C 0.04807 0.34917 0.40255 0.0
C483 C 0.0659 0.42792 0.39332 0.0
C484 C 0.07017 0.5219 0.40147 0.0
C485 C 0.0582 0.53569 0.41862 0.0
C486 C 0.13214 0.43157 0.35392 0.0
C487 C 0.11209 0.36923 0.34227 0.0
C488 C 0.11692 0.45186 0.37037 0.0
C489 C 0.0812 0.4107 0.37551 0.0
C490 C 0.06084 0.35013 0.3637 0.0
C491 C 0.07609 0.32959 0.34731 0.0
H492 H 0.78104 0.61623 0.3594 0.0
H493 H 0.89474 0.72532 0.3457 0.0
H494 H 0.80338 0.58168 0.38863 0.0
H495 H 0.91643 0.69667 0.37529 0.0
H496 H 0.95303 0.52211 0.424 0.0
H497 H 0.93205 0.56174 0.39463 0.0
H498 H 0.82208 0.66268 0.4146 0.0
H499 H 0.84195 0.61716 0.44365 0.0
C500 C 0.81077 0.6333 0.36263 0.0
C501 C 0.8361 0.67314 0.35015 0.0
C502 C 0.82348 0.61474 0.37948 0.0
C503 C 0.86175 0.63647 0.38434 0.0
C504 C 0.88693 0.67784 0.37194 0.0
C505 C 0.87429 0.6957 0.35503 0.0
C506 C 0.92428 0.552 0.42209 0.0
C507 C 0.89922 0.56621 0.43622 0.0
C508 C 0.9124 0.57596 0.40527 0.0
C509 C 0.87526 0.61502 0.40223 0.0
C510 C 0.85061 0.6312 0.41641 0.0
C511 C 0.86232 0.60654 0.43315 0.0
H512 H 0.07958 0.48638 0.60226 0.0
H513 H 0.11263 0.7895 0.58841 0.0
H514 H 0.10115 0.51566 0.63182 0.0
H515 H 0.13461 0.81878 0.61806 0.0
H516 H 0.13288 0.85911 0.67771 0.0
H517 H 0.11273 0.83773 0.64762 0.0
H518 H 0.16013 0.53715 0.64764 0.0
H519 H 0.17975 0.55831 0.67773 0.0
C520 C 0.09169 0.55917 0.60551 0.0
C521 C 0.09466 0.63532 0.59293 0.0
C522 C 0.10418 0.57591 0.62246 0.0
C523 C 0.12008 0.66923 0.62729 0.0
C524 C 0.12226 0.74628 0.61482 0.0
C525 C 0.10963 0.72955 0.59783 0.0
C526 C 0.13953 0.78914 0.67118 0.0
C527 C 0.1577 0.71015 0.68011 0.0
C528 C 0.12793 0.77678 0.65394 0.0
C529 C 0.13438 0.68525 0.64526 0.0
C530 C 0.15385 0.60774 0.65405 0.0
C531 C 0.16528 0.61997 0.67126 0.0
H532 H 0.78135 0.13297 0.67316 0.0
H533 H 0.82974 0.42369 0.68585 0.0
H534 H 0.79714 0.16069 0.64267 0.0
H535 H 0.84522 0.45145 0.65545 0.0
H536 H 0.84114 0.501 0.59697 0.0
H537 H 0.81701 0.4772 0.62649 0.0
H538 H 0.85726 0.16976 0.62571 0.0
H539 H 0.88063 0.19306 0.59616 0.0
C540 C 0.79522 0.20283 0.66944 0.0
C541 C 0.8044 0.27583 0.68195 0.0
C542 C 0.80425 0.21873 0.65199 0.0
C543 C 0.8226 0.30804 0.64667 0.0
C544 C 0.83064 0.38241 0.65909 0.0
C545 C 0.8217 0.36645 0.67653 0.0
C546 C 0.84442 0.42811 0.60307 0.0
C547 C 0.86289 0.34898 0.5943 0.0
C548 C 0.83087 0.41468 0.61999 0.0
C549 C 0.83519 0.32155 0.62842 0.0
C550 C 0.85309 0.24204 0.61951 0.0
C551 C 0.86688 0.2557 0.60267 0.0
H552 H 0.10314 0.69791 0.84697 0.0
H553 H 0.19425 0.9164 0.85463 0.0
H554 H 0.07851 0.73339 0.87593 0.0
H555 H 0.1689 0.95329 0.8834 0.0
H556 H 0.08431 0.07935 0.92336 0.0
H557 H 0.10853 0.03437 0.89471 0.0
H558 H 0.09739 0.71921 0.90746 0.0
H559 H 0.07266 0.76435 0.93617 0.0
C560 C 0.11833 0.75226 0.8549 0.0
C561 C 0.15066 0.80457 0.84842 0.0
C562 C 0.10404 0.77288 0.87146 0.0
C563 C 0.12155 0.84682 0.88181 0.0
C564 C 0.15441 0.89722 0.87555 0.0
C565 C 0.1689 0.87606 0.85907 0.0
C566 C 0.08648 0.00049 0.91996 0.0
C567 C 0.07653 0.92533 0.93196 0.0
C568 C 0.10078 0.97477 0.90365 0.0
C569 C 0.10516 0.87333 0.89894 0.0
C570 C 0.09423 0.79799 0.91076 0.0
C571 C 0.08027 0.82377 0.92717 0.0
H572 H 0.81579 0.25028 0.85775 0.0
H573 H 0.83737 0.93845 0.84513 0.0
H574 H 0.83281 0.21737 0.88781 0.0
H575 H 0.85323 0.9053 0.87547 0.0
H576 H 0.83988 0.87947 0.9357 0.0
H577 H 0.82157 0.90638 0.9054 0.0
H578 H 0.89431 0.17045 0.90355 0.0
H579 H 0.91251 0.14377 0.93379 0.0
C580 C 0.82424 0.17471 0.86134 0.0
C581 C 0.82564 0.09733 0.8489 0.0
C582 C 0.83389 0.15593 0.8786 0.0
C583 C 0.84467 0.05902 0.88394 0.0
C584 C 0.84482 0.98066 0.87171 0.0
C585 C 0.83557 -0.00033 0.85435 0.0
C586 C 0.85188 0.94327 0.9288 0.0
C587 C 0.87757 0.00966 0.9371 0.0
C588 C 0.84162 0.95823 0.91145 0.0
C589 C 0.85638 0.04074 0.90216 0.0
C590 C 0.88219 0.10677 0.91045 0.0
C591 C 0.89286 0.09105 0.9277 0.0
H592 H 0.62552 0.03004 0.69209 0.0
H593 H 0.64129 0.34904 0.68406 0.0
H594 H 0.60209 0.01232 0.66247 0.0
H595 H 0.61718 0.33206 0.65453 0.0
H596 H 0.60801 0.24557 0.59746 0.0
H597 H 0.63235 0.26499 0.62676 0.0
H598 H 0.54662 0.05369 0.64525 0.0
H599 H 0.5225 0.0333 0.61572 0.0
C600 C 0.62399 0.09634 0.68395 0.0
C601 C 0.63516 0.19096 0.69037 0.0
C602 C 0.61031 0.08637 0.66704 0.0
C603 C 0.60729 0.17093 0.65618 0.0
C604 C 0.61945 0.26517 0.66248 0.0
C605 C 0.63338 0.27499 0.67938 0.0
C606 C 0.59383 0.20464 0.60782 0.0
C607 C 0.56311 0.13842 0.60429 0.0
C608 C 0.6079 0.2156 0.62463 0.0
C609 C 0.59153 0.16084 0.63837 0.0
C610 C 0.56034 0.09576 0.63491 0.0
C611 C 0.54635 0.08443 0.61803 0.0
H612 H 0.4398 0.94287 0.61013 0.0
H613 H 0.33152 0.81727 0.59249 0.0
H614 H 0.41963 0.9174 0.64011 0.0
H615 H 0.31217 0.78785 0.62238 0.0
H616 H 0.27449 0.82929 0.67861 0.0
H617 H 0.29311 0.87244 0.64896 0.0
H618 H 0.40982 0.77618 0.65952 0.0
H619 H 0.39134 0.73257 0.68893 0.0
C620 C 0.41167 0.91017 0.61262 0.0
C621 C 0.38744 0.88145 0.59886 0.0
C622 C 0.40025 0.89468 0.62982 0.0
C623 C 0.36432 0.85019 0.63366 0.0
C624 C 0.33985 0.82317 0.61991 0.0
C625 C 0.35123 0.83868 0.60274 0.0
C626 C 0.30408 0.81704 0.67457 0.0
C627 C 0.33141 0.77786 0.68622 0.0
C628 C 0.31477 0.8419 0.65759 0.0
C629 C 0.35303 0.82818 0.65188 0.0
C630 C 0.38032 0.78966 0.66357 0.0
C631 C 0.36965 0.76464 0.68048 0.0
H632 H 0.56893 0.54233 0.93317 0.0
H633 H 0.53261 0.23142 0.9362 0.0
H634 H 0.59654 0.51193 0.90482 0.0
H635 H 0.5608 0.20072 0.90759 0.0
H636 H 0.65884 0.16659 0.86685 0.0
H637 H 0.62619 0.19354 0.89458 0.0
H638 H 0.57913 0.47261 0.87524 0.0
H639 H 0.61145 0.44591 0.84771 0.0
C640 C 0.56589 0.46795 0.92761 0.0
C641 C 0.54828 0.38942 0.93695 0.0
C642 C 0.58201 0.45039 0.91135 0.0
C643 C 0.58104 0.35381 0.904 0.0
C644 C 0.56252 0.27562 0.91307 0.0
C645 C 0.54624 0.29329 0.92939 0.0
C646 C 0.64152 0.23362 0.86856 0.0
C647 C 0.63821 0.30472 0.85516 0.0
C648 C 0.62265 0.24876 0.88438 0.0
C649 C 0.60011 0.33527 0.88709 0.0
C650 C 0.59677 0.40603 0.87366 0.0
C651 C 0.61556 0.39096 0.85791 0.0
H652 H 0.34854 0.52557 0.93935 0.0
H653 H 0.45989 0.40659 0.92459 0.0
H654 H 0.33267 0.5528 0.90937 0.0
H655 H 0.44242 0.42579 0.89404 0.0
H656 H 0.41314 0.57144 0.84147 0.0
H657 H 0.43239 0.54294 0.8714 0.0
H658 H 0.31403 0.47223 0.88459 0.0
H659 H 0.29434 0.51029 0.85536 0.0
C660 C 0.36976 0.50483 0.92967 0.0
C661 C 0.40582 0.4652 0.93449 0.0
C662 C 0.36025 0.51868 0.91233 0.0
C663 C 0.38598 0.4907 0.8991 0.0
C664 C 0.42194 0.44926 0.90383 0.0
C665 C 0.43179 0.43685 0.92135 0.0
C666 C 0.39107 0.55167 0.85081 0.0
C667 C 0.35203 0.54379 0.84582 0.0
C668 C 0.40229 0.53342 0.86798 0.0
C669 C 0.37486 0.50559 0.88057 0.0
C670 C 0.33604 0.49557 0.87545 0.0
C671 C 0.32475 0.51569 0.85846 0.0
H672 H 0.66297 0.6206 0.09184 0.0
H673 H 0.54535 0.70316 0.10398 0.0
H674 H 0.68124 0.64797 0.12187 0.0
H675 H 0.56421 0.73669 0.1338 0.0
H676 H 0.59862 0.66722 0.18923 0.0
H677 H 0.58171 0.64464 0.15897 0.0
H678 H 0.6916 0.77197 0.14374 0.0
H679 H 0.70939 0.78976 0.17422 0.0
C680 C 0.64099 0.64515 0.10088 0.0
C681 C 0.60253 0.65862 0.09546 0.0
C682 C 0.65165 0.66225 0.11809 0.0
C683 C 0.62421 0.69415 0.13032 0.0
C684 C 0.586 0.71055 0.1248 0.0
C685 C 0.57527 0.69273 0.10761 0.0
C686 C 0.6195 0.68899 0.17945 0.0
C687 C 0.65555 0.72955 0.18417 0.0
C688 C 0.60949 0.6776 0.16205 0.0
C689 C 0.63511 0.70717 0.14886 0.0
C690 C 0.67124 0.74766 0.15355 0.0
C691 C 0.68134 0.75877 0.17102 0.0
H692 H 0.26346 0.29968 0.17635 0.0
H693 H 0.37925 0.34599 0.19557 0.0
H694 H 0.28629 0.3287 0.14682 0.0
H695 H 0.40212 0.37389 0.1662 0.0
H696 H 0.42622 0.49383 0.1122 0.0
H697 H 0.40072 0.4838 0.14157 0.0
H698 H 0.3254 0.24048 0.12599 0.0
H699 H 0.3492 0.25432 0.09646 0.0
C700 C 0.29369 0.31667 0.17426 0.0
C701 C 0.31946 0.32068 0.18828 0.0
C702 C 0.30684 0.33287 0.15736 0.0
C703 C 0.34612 0.35288 0.15413 0.0
C704 C 0.37162 0.36004 0.16823 0.0
C705 C 0.35845 0.34418 0.1851 0.0
C706 C 0.40398 0.43876 0.115 0.0
C707 C 0.38982 0.37481 0.10194 0.0
C708 C 0.38959 0.43245 0.13189 0.0
C709 C 0.36086 0.36167 0.13612 0.0
C710 C 0.34703 0.29704 0.12311 0.0
C711 C 0.36124 0.30371 0.10622 0.0
H712 H 0.64417 0.04816 0.44127 0.0
H713 H 0.52462 0.98306 0.43019 0.0
H714 H 0.66045 0.02348 0.41092 0.0
H715 H 0.54081 0.95649 0.3997 0.0
H716 H 0.57762 0.01055 0.34369 0.0
H717 H 0.56119 0.04133 0.37389 0.0
H718 H 0.66645 0.89391 0.38985 0.0
H719 H 0.68401 0.86853 0.35966 0.0
C720 C 0.62134 0.02789 0.43233 0.0
C721 C 0.58304 0.01702 0.43812 0.0
C722 C 0.63071 0.01334 0.41492 0.0
C723 C 0.60205 -0.01276 0.40283 0.0
C724 C 0.56359 0.97773 0.40859 0.0
C725 C 0.55422 -0.00715 0.42604 0.0
C726 C 0.59763 -0.01376 0.35361 0.0
C727 C 0.63226 0.9374 0.34917 0.0
C728 C 0.58787 0.00249 0.37097 0.0
C729 C 0.61239 0.96993 0.38434 0.0
C730 C 0.64705 0.92117 0.37991 0.0
C731 C 0.65692 0.90547 0.36255 0.0
H732 H 0.36425 0.09034 0.43704 0.0
H733 H 0.46425 0.91505 0.42238 0.0
H734 H 0.34614 0.10521 0.40684 0.0
H735 H 0.44512 0.92838 0.392 0.0
H736 H 0.36615 0.89024 0.34245 0.0
H737 H 0.38792 0.87159 0.37255 0.0
H738 H 0.37486 0.19149 0.38025 0.0
H739 H 0.35344 0.21006 0.35026 0.0
C740 C 0.38292 0.0564 0.42743 0.0
C741 C 0.41664 0.00427 0.43228 0.0
C742 C 0.37222 0.06442 0.41008 0.0
C743 C 0.39448 0.01912 0.39708 0.0
C744 C 0.42745 0.96413 0.40181 0.0
C745 C 0.43845 0.95684 0.41923 0.0
C746 C 0.36802 0.95631 0.35062 0.0
C747 C 0.35816 0.05154 0.34409 0.0
C748 C 0.38072 0.9458 0.36774 0.0
C749 C 0.38304 0.03009 0.37868 0.0
C750 C 0.37316 0.12521 0.37211 0.0
C751 C 0.36111 0.13592 0.35496 0.0
H752 H 0.96933 0.81698 0.99408 0.0
H753 H 0.05166 0.70321 0.03109 0.0
H754 H 0.94739 0.64556 0.98792 0.0
H755 H 0.03023 0.53034 0.0246 0.0
H756 H -0.00296 0.24318 0.99154 0.0
H757 H 0.01775 0.41834 0.98923 0.0
H758 H 0.91879 0.50975 0.01927 0.0
H759 H 0.89837 0.33299 0.0219 0.0
C760 C 0.98276 0.75482 1.00081 0.0
C761 C 0.01078 0.77227 0.01356 0.0
C762 C 0.97041 0.65741 0.99721 0.0
C763 C -0.01332 0.57651 1.0061 0.0
C764 C 0.01712 0.59294 0.01781 0.0
C765 C 0.02927 0.69091 0.02152 0.0
C766 C 0.97944 0.30078 0.9974 0.0
C767 C 0.94705 0.27492 1.00736 0.0
C768 C -0.00881 0.40053 0.99602 0.0
C769 C 0.97012 0.47573 1.00435 0.0
C770 C 0.93546 0.45167 0.01287 0.0
C771 C 0.92385 0.35121 0.01436 0.0
H772 H 0.20751 0.408 0.25655 0.0
H773 H 0.30949 0.4929 0.28533 0.0
H774 H 0.18993 0.58276 0.25321 0.0
H775 H 0.29157 0.6714 0.28179 0.0
H776 H 0.23797 0.95204 0.24353 0.0
H777 H 0.26121 0.77824 0.24463 0.0
H778 H 0.1857 0.71947 0.28806 0.0
H779 H 0.16321 0.89495 0.28729 0.0
C780 C 0.22602 0.46433 0.26221 0.0
C781 C 0.25894 0.43786 0.27168 0.0
C782 C 0.21613 0.56366 0.26015 0.0
C783 C 0.23934 0.63756 0.26749 0.0
C784 C 0.27349 0.61311 0.27624 0.0
C785 C 0.28348 0.51239 0.27831 0.0
C786 C 0.22666 0.90146 0.25332 0.0
C787 C 0.20004 0.93495 0.26567 0.0
C788 C 0.23992 0.80359 0.25396 0.0
C789 C 0.22596 0.73958 0.26682 0.0
C790 C 0.19721 0.77069 0.27841 0.0
C791 C 0.18411 0.86914 0.27783 0.0
H792 H 0.68444 0.98175 0.25969 0.0
H793 H 0.80304 0.081 0.26263 0.0
H794 H 0.66521 0.14456 0.2489 0.0
H795 H 0.78324 0.24864 0.25404 0.0
H796 H 0.74536 0.5487 0.24876 0.0
H797 H 0.75531 0.3798 0.23755 0.0
H798 H 0.65942 0.27527 0.26896 0.0
H799 H 0.64859 0.44502 0.2791 0.0
C800 C 0.70637 0.03861 0.25804 0.0
C801 C 0.7449 0.01993 0.2624 0.0
C802 C 0.69544 0.13156 0.25173 0.0
C803 C 0.72237 0.21009 0.2512 0.0
C804 C 0.76164 0.18963 0.2543 0.0
C805 C 0.77288 0.09453 0.25975 0.0
C806 C 0.72652 0.48912 0.25308 0.0
C807 C 0.69756 0.50745 0.26532 0.0
C808 C 0.73173 0.39319 0.24649 0.0
C809 C 0.70874 0.31399 0.25262 0.0
C810 C 0.67759 0.33457 0.26382 0.0
C811 C 0.6719 0.43111 0.27004 0.0
H812 H 0.91586 0.7592 0.54261 0.0
H813 H 0.00256 0.70642 0.50356 0.0
H814 H 0.93419 0.93948 0.54303 0.0
H815 H 0.02141 0.88072 0.50425 0.0
H816 H 0.02782 0.21539 0.54797 0.0
H817 H 0.00205 0.04275 0.55046 0.0
H818 H 0.98341 0.03707 0.49507 0.0
H819 H 0.00949 0.20681 0.49268 0.0
C820 C 0.9387 0.78615 0.53419 0.0
C821 C 0.95843 0.71988 0.52316 0.0
C822 C 0.94932 0.88798 0.53454 0.0
C823 C 0.97914 0.92258 0.52366 0.0
C824 C -0.00184 0.85575 0.51264 0.0
C825 C -0.0124 0.756 0.51231 0.0
C826 C 0.01891 0.17528 0.53641 0.0
C827 C 0.02149 0.22077 0.52008 0.0
C828 C 0.00346 0.07858 0.53786 0.0
C829 C -0.00927 0.02814 0.52296 0.0
C830 C -0.00664 0.07485 0.50669 0.0
C831 C 0.00876 0.17059 0.50527 0.0
H832 H 0.28593 0.97352 0.79482 0.0
H833 H 0.25887 0.93154 0.74083 0.0
H834 H 0.26251 0.14761 0.79318 0.0
H835 H 0.23351 0.10207 0.7392 0.0
H836 H 0.22529 0.44647 0.73935 0.0
H837 H 0.24922 0.2743 0.73962 0.0
H838 H 0.2007 0.23182 0.7908 0.0
H839 H 0.17758 0.40627 0.79049 0.0
C840 C 0.27555 0.00262 0.78256 0.0
C841 C 0.27382 0.94057 0.76793 0.0
C842 C 0.26146 0.10116 0.78166 0.0
C843 C 0.24527 0.13809 0.76615 0.0
C844 C 0.2458 0.07664 0.75133 0.0
C845 C 0.26012 0.97899 0.75223 0.0
C846 C 0.21904 0.39909 0.75044 0.0
C847 C 0.1999 0.4384 0.76491 0.0
C848 C 0.2327 0.30054 0.75064 0.0
C849 C 0.2276 0.23976 0.76539 0.0
C850 C 0.20611 0.27773 0.77946 0.0
C851 C 0.19229 0.37659 0.7792 0.0
H852 H 0.71238 0.49275 0.74347 0.0
H853 H 0.79057 0.5852 0.78389 0.0
H854 H 0.72064 0.65385 0.72907 0.0
H855 H 0.79589 0.74978 0.77092 0.0
H856 H 0.79197 0.03214 0.7618 0.0
H857 H 0.81308 0.86964 0.75077 0.0
H858 H 0.69653 0.80852 0.73347 0.0
H859 H 0.67696 0.97275 0.7429 0.0
C860 C 0.73034 0.54925 0.74953 0.0
C861 C 0.74994 0.52886 0.76499 0.0
C862 C 0.73563 0.64098 0.74117 0.0
C863 C 0.75889 0.71603 0.7487 0.0
C864 C 0.77848 0.69418 0.76428 0.0
C865 C 0.77439 0.60113 0.77219 0.0
C866 C 0.77143 0.98487 0.75508 0.0
C867 C 0.73232 0.01001 0.75442 0.0
C868 C 0.78342 0.89223 0.74866 0.0
C869 C 0.7555 0.82214 0.74312 0.0
C870 C 0.71856 0.85753 0.73873 0.0
C871 C 0.7069 0.95119 0.74457 0.0
H872 H 0.45073 0.75478 0.51937 0.0
H873 H 0.56278 0.73743 0.49502 0.0
H874 H 0.43506 0.58847 0.50873 0.0
H875 H 0.54723 0.56936 0.48413 0.0
H876 H 0.53213 0.26029 0.51552 0.0
H877 H 0.54524 0.42777 0.50436 0.0
H878 H 0.42628 0.45433 0.48798 0.0
H879 H 0.41258 0.28998 0.50026 0.0
C880 C 0.47152 0.71581 0.51134 0.0
C881 C 0.50827 0.75589 0.50853 0.0
C882 C 0.46247 0.6212 0.50495 0.0
C883 C 0.49035 0.5651 0.49586 0.0
C884 C 0.5256 0.61043 0.49139 0.0
C885 C 0.53467 0.70531 0.49784 0.0
C886 C 0.50889 0.30204 0.50951 0.0
C887 C 0.47103 0.26503 0.5096 0.0
C888 C 0.51655 0.39676 0.50265 0.0
C889 C 0.4864 0.45498 0.49571 0.0
C890 C 0.44974 0.41181 0.49367 0.0
C891 C 0.44186 0.31844 0.50094 0.0
H892 H 0.52812 0.73072 1.00242 0.0
H893 H 0.4058 0.78904 1.00745 0.0
H894 H 0.53945 0.90852 0.99703 0.0
H895 H 0.4173 0.96584 1.00384 0.0
H896 H 0.44654 0.28016 0.01316 0.0
H897 H 0.43708 0.12376 0.99783 0.0
H898 H 0.53978 0.00422 0.02241 0.0
H899 H 0.55157 0.16575 0.03579 0.0
C900 C 0.50367 0.78136 1.00213 0.0
C901 C 0.46654 0.74857 1.0066 0.0
C902 C 0.51007 0.88281 0.999 0.0
C903 C 0.47978 0.95153 1.00149 0.0
C904 C 0.44169 0.91569 1.00252 0.0
C905 C 0.43511 0.8141 1.00503 0.0
C906 C 0.4671 0.22047 0.01517 0.0
C907 C 0.50024 0.23549 0.0252 0.0
C908 C 0.46185 0.13089 1.0063 0.0
C909 C 0.48834 0.05219 1.00835 0.0
C910 C 0.51986 0.06484 0.01968 0.0
C911 C 0.52596 0.15611 0.02789 0.0
H912 H 0.29245 0.5776 0.02128 0.0
H913 H 0.30134 0.27124 1.00284 0.0
H914 H 0.22511 0.58318 0.01204 0.0
H915 H 0.23412 0.27663 0.99384 0.0
H916 H 0.1256 0.28479 0.97272 0.0
H917 H 0.18943 0.36184 0.97272 0.0
H918 H 0.16587 0.49273 0.02286 0.0
H919 H 0.10168 0.41749 0.02264 0.0
C920 C 0.27998 0.51134 0.01531 0.0
C921 C 0.30196 0.42344 0.0129 0.0
C922 C 0.24163 0.51517 1.0099 0.0
C923 C 0.22473 0.43137 1.00191 0.0
C924 C 0.24678 0.34359 0.9995 0.0
C925 C 0.28503 0.33963 1.00495 0.0
C926 C 0.13338 0.33441 0.98331 0.0
C927 C 0.10989 0.34169 0.99807 0.0
C928 C 0.16988 0.37815 0.98333 0.0
C929 C 0.18302 0.42849 0.99818 0.0
C930 C 0.15661 0.45239 1.01139 0.0
C931 C 0.11983 0.40928 1.01128 0.0
H932 H 0.80557 0.76149 0.03796 0.0
H933 H 0.87495 0.64194 0.99618 0.0
H934 H 0.74855 0.68255 0.02552 0.0
H935 H 0.81713 0.56331 0.9836 0.0
H936 H 0.67893 0.40398 0.9973 0.0
H937 H 0.74823 0.4354 0.99836 0.0
H938 H 0.72794 0.75145 0.98971 0.0
H939 H 0.6585 0.72145 0.98913 0.0
C940 C 0.80881 0.71539 0.02646 0.0
C941 C 0.8442 0.70958 0.01776 0.0
C942 C 0.77627 0.67129 0.01928 0.0
C943 C 0.77879 0.62101 1.00335 0.0
C944 C 0.81485 0.60386 0.99573 0.0
C945 C 0.84774 0.6478 1.00303 0.0
C946 C 0.68929 0.47971 0.99492 0.0
C947 C 0.66354 0.56146 0.99407 0.0
C948 C 0.72895 0.49704 0.99532 0.0
C949 C 0.74272 0.59576 0.99457 0.0
C950 C 0.71741 0.67472 0.99049 0.0
C951 C 0.67777 0.6577 0.99029 0.0
H952 H 0.04813 0.23489 0.23433 0.0
H953 H 0.07818 0.5354 0.25101 0.0
H954 H 0.98305 0.291 0.22739 0.0
H955 H 0.01302 0.59124 0.24437 0.0
H956 H 0.89774 0.68424 0.23484 0.0
H957 H 0.95924 0.61852 0.22459 0.0
H958 H 0.93367 0.33326 0.24909 0.0
H959 H 0.87138 0.39877 0.25882 0.0
C960 C 0.04092 0.3134 0.23625 0.0
C961 C 0.06753 0.38049 0.24373 0.0
C962 C 0.0038 0.34536 0.23219 0.0
C963 C -0.0072 0.44472 0.23563 0.0
C964 C 0.0207 0.51411 0.24148 0.0
C965 C 0.05793 0.48217 0.24546 0.0
C966 C 0.90503 0.60661 0.23763 0.0
C967 C 0.88094 0.54697 0.24806 0.0
C968 C 0.94001 0.56907 0.2317 0.0
C969 C 0.95161 0.47197 0.23643 0.0
C970 C 0.92543 0.40858 0.24524 0.0
C971 C 0.89001 0.44594 0.25096 0.0
H972 H 0.30617 0.01764 0.48947 0.0
H973 H 0.32807 0.70219 0.49866 0.0
H974 H 0.24324 0.97655 0.47729 0.0
H975 H 0.26479 0.66098 0.48697 0.0
H976 H 0.15331 0.58542 0.47151 0.0
H977 H 0.2161 0.65709 0.4643 0.0
H978 H 0.18795 0.92227 0.4942 0.0
H979 H 0.1249 0.85151 0.50093 0.0
C980 C 0.29751 0.93935 0.48878 0.0
C981 C 0.32109 0.86299 0.49556 0.0
C982 C 0.26174 0.91598 0.48165 0.0
C983 C 0.24884 0.81599 0.48139 0.0
C984 C 0.27399 0.73891 0.48682 0.0
C985 C 0.30999 0.7623 0.49379 0.0
C986 C 0.16021 0.66058 0.476 0.0
C987 C 0.13537 0.71172 0.48735 0.0
C988 C 0.19598 0.7016 0.47183 0.0
C989 C 0.20742 0.79327 0.47923 0.0
C990 C 0.1801 0.85093 0.48839 0.0
C991 C 0.14405 0.81027 0.4924 0.0
H992 H 0.8793 0.06755 0.52634 0.0
H993 H 0.8496 0.18841 0.47622 0.0
H994 H 0.81422 0.00097 0.52941 0.0
H995 H 0.78488 0.1183 0.47889 0.0
H996 H 0.67763 0.22926 0.50887 0.0
H997 H 0.7443 0.21475 0.49932 0.0
H998 H 0.75205 0.9206 0.52297 0.0
H999 H 0.6856 0.93624 0.53297 0.0
C1000 C 0.85963 0.07387 0.51547 0.0
C1001 C 0.86833 0.13715 0.50146 0.0
C1002 C 0.82219 0.03614 0.51726 0.0
C1003 C 0.79404 0.06022 0.50481 0.0
C1004 C 0.80573 0.10298 0.48901 0.0
C1005 C 0.84287 0.14196 0.48737 0.0
C1006 C 0.6937 0.16219 0.51223 0.0
C1007 C 0.67647 0.08432 0.52172 0.0
C1008 C 0.7316 0.15262 0.50642 0.0
C1009 C 0.75298 0.06488 0.50994 0.0
C1010 C 0.73611 -0.01168 0.51989 0.0
C1011 C 0.69822 -0.00198 0.52575 0.0
H1012 H 0.93668 0.33349 0.77629 0.0
H1013 H 0.92335 0.07693 0.74242 0.0
H1014 H 0.00704 0.31345 0.77522 0.0
H1015 H -0.00657 0.05939 0.74095 0.0
H1016 H 0.09398 0.01947 0.79062 0.0
H1017 H 0.03778 0.129 0.78788 0.0
H1018 H 0.06238 0.1689 0.73347 0.0
H1019 H 0.11994 0.06244 0.73645 0.0
C1020 C 0.94884 0.27459 0.76828 0.0
C1021 C 0.92477 0.2054 0.75969 0.0
C1022 C -0.01105 0.2639 0.76757 0.0
C1023 C 0.00536 0.18579 0.75785 0.0
C1024 C 0.98132 0.12133 0.74827 0.0
C1025 C 0.94131 0.13039 0.74932 0.0
C1026 C 0.08839 0.05592 0.77831 0.0
C1027 C 0.11058 0.03248 0.76369 0.0
C1028 C 0.05648 0.11887 0.77676 0.0
C1029 C 0.04584 0.15627 0.76045 0.0
C1030 C 0.07032 0.14101 0.74617 0.0
C1031 C 0.10303 0.08029 0.74786 0.0
H1032 H 0.53432 0.1371 0.78516 0.0
H1033 H 0.54117 0.42032 0.75774 0.0
H1034 H 0.46702 0.1182 0.77624 0.0
H1035 H 0.47408 0.4021 0.7491 0.0
H1036 H 0.36882 0.37071 0.72742 0.0
H1037 H 0.43233 0.2943 0.7302 0.0
H1038 H 0.40522 0.20816 0.7828 0.0
H1039 H 0.34111 0.2806 0.77968 0.0
C1040 C 0.52134 0.19579 0.77737 0.0
C1041 C 0.54292 0.28057 0.77218 0.0
C1042 C 0.483 0.18419 0.77214 0.0
C1043 C 0.4657 0.25691 0.76156 0.0
C1044 C 0.48707 0.34281 0.75675 0.0
C1045 C 0.52526 0.35455 0.76201 0.0
C1046 C 0.37558 0.32947 0.73915 0.0
C1047 C 0.35129 0.33544 0.75364 0.0
C1048 C 0.41203 0.28669 0.74081 0.0
C1049 C 0.42429 0.25145 0.75706 0.0
C1050 C 0.3968 0.23742 0.77026 0.0
C1051 C 0.35995 0.27864 0.76846 0.0
H1052 H 0.54948 0.70481 0.2402 0.0
H1053 H 0.5506 0.02898 0.24408 0.0
H1054 H 0.48655 0.71046 0.22619 0.0
H1055 H 0.48726 0.035 0.23048 0.0
H1056 H 0.37568 0.06187 0.21694 0.0
H1057 H 0.43912 0.0034 0.20784 0.0
H1058 H 0.42813 0.7492 0.24249 0.0
H1059 H 0.36451 0.807 0.25122 0.0
C1060 C 0.53626 0.77745 0.23792 0.0
C1061 C 0.55379 0.86649 0.24388 0.0
C1062 C 0.50057 0.78053 0.22969 0.0
C1063 C 0.48162 0.87264 0.2275 0.0
C1064 C 0.50113 0.96249 0.23186 0.0
C1065 C 0.53711 0.95939 0.23994 0.0
C1066 C 0.38616 -0.00942 0.22187 0.0
C1067 C 0.36656 0.9408 0.23531 0.0
C1068 C 0.42237 0.95714 0.21665 0.0
C1069 C 0.4393 0.87506 0.22514 0.0
C1070 C 0.41616 0.81411 0.23594 0.0
C1071 C 0.37968 0.84718 0.24105 0.0
loop_
_geom_bond_atom_site_label_1
_geom_bond_atom_site_label_2
_geom_bond_distance
_geom_bond_site_symmetry_2
_ccdc_geom_bond_type
Cd0 N3 2.334 1_554 S
Cd0 N29 2.304 . S
Cd0 O36 2.269 . S
Cd0 O39 2.273 1_545 S
Cd0 O40 2.414 1_554 S
Cd0 O41 2.330 1_545 S
Cd1 N16 2.304 . S
Cd1 N20 2.334 1_554 S
Cd1 O37 2.273 1_565 S
Cd1 O38 2.269 . S
Cd1 O42 2.414 1_554 S
Cd1 O43 2.330 1_565 S
C2 N3 1.332 1_565 S
C2 C6 1.381 . S
C2 H8 0.931 . S
N3 Cd0 2.334 1_556 S
N3 C2 1.332 1_545 S
N3 C7 1.328 . S
C4 C5 1.396 . S
C4 C7 1.378 . S
C4 H46 0.931 . S
C5 C4 1.396 . S
C5 C6 1.382 1_545 S
C6 C2 1.381 . S
C6 C5 1.382 1_565 S
C6 H47 0.930 . S
C7 N3 1.328 . S
C7 C4 1.378 . S
C7 H9 0.930 . S
H8 C2 0.931 . S
H9 C7 0.930 . S
C10 O36 1.238 1_655 S
C10 O37 1.256 . S
C11 C12 1.379 . S
C11 N16 1.337 1_545 S
C11 H17 0.929 . S
C12 C11 1.379 . S
C12 C13 1.380 1_545 S
C12 H48 0.929 . S
C13 C12 1.380 1_565 S
C13 C14 1.399 . S
C14 C13 1.399 . S
C14 C15 1.376 . S
C14 H49 0.931 . S
C15 C14 1.376 . S
C15 N16 1.338 . S
C15 H18 0.930 . S
N16 Cd1 2.304 . S
N16 C11 1.337 1_565 S
N16 C15 1.338 . S
H17 C11 0.929 . S
H18 C15 0.930 . S
C19 N20 1.332 1_545 S
C19 C23 1.381 . S
C19 H25 0.931 . S
N20 Cd1 2.334 1_556 S
N20 C19 1.332 1_565 S
N20 C24 1.328 . S
C21 C22 1.396 . S
C21 C24 1.378 . S
C21 H50 0.931 . S
C22 C21 1.396 . S
C22 C23 1.382 1_565 S
C23 C19 1.381 . S
C23 C22 1.382 1_545 S
C23 H51 0.930 . S
C24 N20 1.328 . S
C24 C21 1.378 . S
C24 H26 0.930 . S
H25 C19 0.931 . S
H26 C24 0.930 . S
C27 O38 1.238 1_455 S
C27 O39 1.256 . S
C28 O40 1.235 1_554 S
C28 O41 1.232 1_545 S
N29 Cd0 2.304 . S
N29 C30 1.337 1_545 S
N29 C34 1.338 . S
C30 N29 1.337 1_565 S
C30 C31 1.379 . S
C30 H44 0.929 . S
C31 C30 1.379 . S
C31 C32 1.380 1_565 S
C31 H52 0.929 . S
C32 C31 1.380 1_545 S
C32 C33 1.399 . S
C33 C32 1.399 . S
C33 C34 1.376 . S
C33 H53 0.931 . S
C34 N29 1.338 . S
C34 C33 1.376 . S
C34 H45 0.930 . S
C35 O42 1.235 1_554 S
C35 O43 1.232 1_565 S
O36 Cd0 2.269 . S
O36 C10 1.238 1_455 S
O37 Cd1 2.273 1_545 S
O37 C10 1.256 . S
O38 Cd1 2.269 . S
O38 C27 1.238 1_655 S
O39 Cd0 2.273 1_565 S
O39 C27 1.256 . S
O40 Cd0 2.414 1_556 S
O40 C28 1.235 1_556 S
O41 Cd0 2.330 1_565 S
O41 C28 1.232 1_565 S
O42 Cd1 2.414 1_556 S
O42 C35 1.235 1_556 S
O43 Cd1 2.330 1_545 S
O43 C35 1.232 1_545 S
H44 C30 0.929 . S
H45 C34 0.930 . S
H46 C4 0.931 . S
H47 C6 0.930 . S
H48 C12 0.929 . S
H49 C14 0.931 . S
H50 C21 0.931 . S
H51 C23 0.930 . S
H52 C31 0.929 . S
H53 C33 0.931 . S
Cd54 N57 2.334 . S
Cd54 N83 2.304 . S
Cd54 O90 2.268 . S
Cd54 O93 2.273 . S
Cd54 O94 2.417 . S
Cd54 O95 2.330 . S
Cd55 N70 2.304 . S
Cd55 N74 2.334 . S
Cd55 O91 2.273 . S
Cd55 O92 2.268 . S
Cd55 O96 2.417 . S
Cd55 O97 2.330 . S
C56 N57 1.332 . S
C56 C60 1.381 . S
C56 H62 0.931 . S
N57 Cd54 2.334 . S
N57 C56 1.332 . S
N57 C61 1.328 . S
C58 C59 1.396 . S
C58 C61 1.378 . S
C58 H100 0.931 . S
C59 C58 1.396 . S
C59 C60 1.382 . S
C60 C56 1.381 . S
C60 C59 1.382 . S
C60 H101 0.930 . S
C61 N57 1.328 . S
C61 C58 1.378 . S
C61 H63 0.930 . S
H62 C56 0.931 . S
H63 C61 0.930 . S
C64 O90 1.238 . S
C64 O91 1.253 . S
C65 C66 1.379 . S
C65 N70 1.337 . S
C65 H71 0.929 . S
C66 C65 1.379 . S
C66 C67 1.380 . S
C66 H102 0.929 . S
C67 C66 1.380 . S
C67 C68 1.399 . S
C68 C67 1.399 . S
C68 C69 1.376 . S
C68 H103 0.931 . S
C69 C68 1.376 . S
C69 N70 1.338 . S
C69 H72 0.930 . S
N70 Cd55 2.304 . S
N70 C65 1.337 . S
N70 C69 1.338 . S
H71 C65 0.929 . S
H72 C69 0.930 . S
C73 N74 1.332 . S
C73 C77 1.381 . S
C73 H79 0.931 . S
N74 Cd55 2.334 . S
N74 C73 1.332 . S
N74 C78 1.328 . S
C75 C76 1.396 . S
C75 C78 1.378 . S
C75 H104 0.931 . S
C76 C75 1.396 . S
C76 C77 1.382 . S
C77 C73 1.381 . S
C77 C76 1.382 . S
C77 H105 0.930 . S
C78 N74 1.328 . S
C78 C75 1.378 . S
C78 H80 0.930 . S
H79 C73 0.931 . S
H80 C78 0.930 . S
C81 O92 1.238 . S
C81 O93 1.253 . S
C82 O94 1.239 . S
C82 O95 1.230 . S
N83 Cd54 2.304 . S
N83 C84 1.337 . S
N83 C88 1.338 . S
C84 N83 1.337 . S
C84 C85 1.379 . S
C84 H98 0.929 . S
C85 C84 1.379 . S
C85 C86 1.380 . S
C85 H106 0.929 . S
C86 C85 1.380 . S
C86 C87 1.399 . S
C87 C86 1.399 . S
C87 C88 1.376 . S
C87 H107 0.931 . S
C88 N83 1.338 . S
C88 C87 1.376 . S
C88 H99 0.930 . S
C89 O96 1.239 . S
C89 O97 1.230 . S
O90 Cd54 2.268 . S
O90 C64 1.238 . S
O91 Cd55 2.273 . S
O91 C64 1.253 . S
O92 Cd55 2.268 . S
O92 C81 1.238 . S
O93 Cd54 2.273 . S
O93 C81 1.253 . S
O94 Cd54 2.417 . S
O94 C82 1.239 . S
O95 Cd54 2.330 . S
O95 C82 1.230 . S
O96 Cd55 2.417 . S
O96 C89 1.239 . S
O97 Cd55 2.330 . S
O97 C89 1.230 . S
H98 C84 0.929 . S
H99 C88 0.930 . S
H100 C58 0.931 . S
H101 C60 0.930 . S
H102 C66 0.929 . S
H103 C68 0.931 . S
H104 C75 0.931 . S
H105 C77 0.930 . S
H106 C85 0.929 . S
H107 C87 0.931 . S
Cd108 N111 2.334 . S
Cd108 N137 2.304 . S
Cd108 O144 2.268 . S
Cd108 O147 2.273 . S
Cd108 O148 2.417 . S
Cd108 O149 2.330 . S
Cd109 N124 2.304 . S
Cd109 N128 2.334 . S
Cd109 O145 2.273 . S
Cd109 O146 2.268 . S
Cd109 O150 2.417 . S
Cd109 O151 2.330 . S
C110 N111 1.332 . S
C110 C114 1.381 . S
C110 H116 0.931 . S
N111 Cd108 2.334 . S
N111 C110 1.332 . S
N111 C115 1.328 . S
C112 C113 1.396 . S
C112 C115 1.378 . S
C112 H154 0.931 . S
C113 C112 1.396 . S
C113 C114 1.382 . S
C114 C110 1.381 . S
C114 C113 1.382 . S
C114 H155 0.930 . S
C115 N111 1.328 . S
C115 C112 1.378 . S
C115 H117 0.930 . S
H116 C110 0.931 . S
H117 C115 0.930 . S
C118 O144 1.238 . S
C118 O145 1.253 . S
C119 C120 1.379 . S
C119 N124 1.337 . S
C119 H125 0.929 . S
C120 C119 1.379 . S
C120 C121 1.380 . S
C120 H156 0.929 . S
C121 C120 1.380 . S
C121 C122 1.399 . S
C122 C121 1.399 . S
C122 C123 1.376 . S
C122 H157 0.931 . S
C123 C122 1.376 . S
C123 N124 1.338 . S
C123 H126 0.930 . S
N124 Cd109 2.304 . S
N124 C119 1.337 . S
N124 C123 1.338 . S
H125 C119 0.929 . S
H126 C123 0.930 . S
C127 N128 1.332 . S
C127 C131 1.381 . S
C127 H133 0.931 . S
N128 Cd109 2.334 . S
N128 C127 1.332 . S
N128 C132 1.328 . S
C129 C130 1.396 . S
C129 C132 1.378 . S
C129 H158 0.931 . S
C130 C129 1.396 . S
C130 C131 1.382 . S
C131 C127 1.381 . S
C131 C130 1.382 . S
C131 H159 0.930 . S
C132 N128 1.328 . S
C132 C129 1.378 . S
C132 H134 0.930 . S
H133 C127 0.931 . S
H134 C132 0.930 . S
C135 O146 1.238 . S
C135 O147 1.253 . S
C136 O148 1.239 . S
C136 O149 1.230 . S
N137 Cd108 2.304 . S
N137 C138 1.337 . S
N137 C142 1.338 . S
C138 N137 1.337 . S
C138 C139 1.379 . S
C138 H152 0.929 . S
C139 C138 1.379 . S
C139 C140 1.380 . S
C139 H160 0.929 . S
C140 C139 1.380 . S
C140 C141 1.399 . S
C141 C140 1.399 . S
C141 C142 1.376 . S
C141 H161 0.931 . S
C142 N137 1.338 . S
C142 C141 1.376 . S
C142 H153 0.930 . S
C143 O150 1.239 . S
C143 O151 1.230 . S
O144 Cd108 2.268 . S
O144 C118 1.238 . S
O145 Cd109 2.273 . S
O145 C118 1.253 . S
O146 Cd109 2.268 . S
O146 C135 1.238 . S
O147 Cd108 2.273 . S
O147 C135 1.253 . S
O148 Cd108 2.417 . S
O148 C136 1.239 . S
O149 Cd108 2.330 . S
O149 C136 1.230 . S
O150 Cd109 2.417 . S
O150 C143 1.239 . S
O151 Cd109 2.330 . S
O151 C143 1.230 . S
H152 C138 0.929 . S
H153 C142 0.930 . S
H154 C112 0.931 . S
H155 C114 0.930 . S
H156 C120 0.929 . S
H157 C122 0.931 . S
H158 C129 0.931 . S
H159 C131 0.930 . S
H160 C139 0.929 . S
H161 C141 0.931 . S
Cd162 N165 2.334 . S
Cd162 N191 2.304 . S
Cd162 O198 2.268 . S
Cd162 O201 2.273 . S
Cd162 O202 2.417 . S
Cd162 O203 2.330 . S
Cd163 N178 2.304 . S
Cd163 N182 2.334 . S
Cd163 O199 2.273 . S
Cd163 O200 2.268 . S
Cd163 O204 2.417 . S
Cd163 O205 2.330 . S
C164 N165 1.332 . S
C164 C168 1.381 . S
C164 H170 0.931 . S
N165 Cd162 2.334 . S
N165 C164 1.332 . S
N165 C169 1.328 . S
C166 C167 1.396 . S
C166 C169 1.378 . S
C166 H208 0.931 . S
C167 C166 1.396 . S
C167 C168 1.382 . S
C168 C164 1.381 . S
C168 C167 1.382 . S
C168 H209 0.930 . S
C169 N165 1.328 . S
C169 C166 1.378 . S
C169 H171 0.930 . S
H170 C164 0.931 . S
H171 C169 0.930 . S
C172 O198 1.238 1_655 S
C172 O199 1.253 . S
C173 C174 1.379 . S
C173 N178 1.337 . S
C173 H179 0.929 . S
C174 C173 1.379 . S
C174 C175 1.380 . S
C174 H210 0.929 . S
C175 C174 1.380 . S
C175 C176 1.399 . S
C176 C175 1.399 . S
C176 C177 1.376 . S
C176 H211 0.931 . S
C177 C176 1.376 . S
C177 N178 1.338 . S
C177 H180 0.930 . S
N178 Cd163 2.304 . S
N178 C173 1.337 . S
N178 C177 1.338 . S
H179 C173 0.929 . S
H180 C177 0.930 . S
C181 N182 1.332 . S
C181 C185 1.381 . S
C181 H187 0.931 . S
N182 Cd163 2.334 . S
N182 C181 1.332 . S
N182 C186 1.328 . S
C183 C184 1.396 . S
C183 C186 1.378 . S
C183 H212 0.931 . S
C184 C183 1.396 . S
C184 C185 1.382 . S
C185 C181 1.381 . S
C185 C184 1.382 . S
C185 H213 0.930 . S
C186 N182 1.328 . S
C186 C183 1.378 . S
C186 H188 0.930 . S
H187 C181 0.931 . S
H188 C186 0.930 . S
C189 O200 1.238 1_455 S
C189 O201 1.253 . S
C190 O202 1.239 . S
C190 O203 1.230 . S
N191 Cd162 2.304 . S
N191 C192 1.337 . S
N191 C196 1.338 . S
C192 N191 1.337 . S
C192 C193 1.379 . S
C192 H206 0.929 . S
C193 C192 1.379 . S
C193 C194 1.380 . S
C193 H214 0.929 . S
C194 C193 1.380 . S
C194 C195 1.399 . S
C195 C194 1.399 . S
C195 C196 1.376 . S
C195 H215 0.931 . S
C196 N191 1.338 . S
C196 C195 1.376 . S
C196 H207 0.930 . S
C197 O204 1.239 . S
C197 O205 1.230 . S
O198 Cd162 2.268 . S
O198 C172 1.238 1_455 S
O199 Cd163 2.273 . S
O199 C172 1.253 . S
O200 Cd163 2.268 . S
O200 C189 1.238 1_655 S
O201 Cd162 2.273 . S
O201 C189 1.253 . S
O202 Cd162 2.417 . S
O202 C190 1.239 . S
O203 Cd162 2.330 . S
O203 C190 1.230 . S
O204 Cd163 2.417 . S
O204 C197 1.239 . S
O205 Cd163 2.330 . S
O205 C197 1.230 . S
H206 C192 0.929 . S
H207 C196 0.930 . S
H208 C166 0.931 . S
H209 C168 0.930 . S
H210 C174 0.929 . S
H211 C176 0.931 . S
H212 C183 0.931 . S
H213 C185 0.930 . S
H214 C193 0.929 . S
H215 C195 0.931 . S
Cd216 N219 2.334 . S
Cd216 N245 2.304 . S
Cd216 O252 2.268 . S
Cd216 O255 2.273 . S
Cd216 O256 2.417 . S
Cd216 O257 2.330 . S
Cd217 N232 2.304 . S
Cd217 N236 2.334 . S
Cd217 O253 2.273 . S
Cd217 O254 2.268 . S
Cd217 O258 2.417 . S
Cd217 O259 2.330 . S
C218 N219 1.332 . S
C218 C222 1.381 . S
C218 H224 0.931 . S
N219 Cd216 2.334 . S
N219 C218 1.332 . S
N219 C223 1.328 . S
C220 C221 1.396 . S
C220 C223 1.378 . S
C220 H262 0.931 . S
C221 C220 1.396 . S
C221 C222 1.382 . S
C222 C218 1.381 . S
C222 C221 1.382 . S
C222 H263 0.930 . S
C223 N219 1.328 . S
C223 C220 1.378 . S
C223 H225 0.930 . S
H224 C218 0.931 . S
H225 C223 0.930 . S
C226 O252 1.238 . S
C226 O253 1.253 . S
C227 C228 1.379 . S
C227 N232 1.337 . S
C227 H233 0.929 . S
C228 C227 1.379 . S
C228 C229 1.380 . S
C228 H264 0.929 . S
C229 C228 1.380 . S
C229 C230 1.399 . S
C230 C229 1.399 . S
C230 C231 1.376 . S
C230 H265 0.931 . S
C231 C230 1.376 . S
C231 N232 1.338 . S
C231 H234 0.930 . S
N232 Cd217 2.304 . S
N232 C227 1.337 . S
N232 C231 1.338 . S
H233 C227 0.929 . S
H234 C231 0.930 . S
C235 N236 1.332 . S
C235 C239 1.381 . S
C235 H241 0.931 . S
N236 Cd217 2.334 . S
N236 C235 1.332 . S
N236 C240 1.328 . S
C237 C238 1.396 . S
C237 C240 1.378 . S
C237 H266 0.931 . S
C238 C237 1.396 . S
C238 C239 1.382 . S
C239 C235 1.381 . S
C239 C238 1.382 . S
C239 H267 0.930 . S
C240 N236 1.328 . S
C240 C237 1.378 . S
C240 H242 0.930 . S
H241 C235 0.931 . S
H242 C240 0.930 . S
C243 O254 1.238 . S
C243 O255 1.253 . S
C244 O256 1.239 . S
C244 O257 1.230 . S
N245 Cd216 2.304 . S
N245 C246 1.337 . S
N245 C250 1.338 . S
C246 N245 1.337 . S
C246 C247 1.379 . S
C246 H260 0.929 . S
C247 C246 1.379 . S
C247 C248 1.380 . S
C247 H268 0.929 . S
C248 C247 1.380 . S
C248 C249 1.399 . S
C249 C248 1.399 . S
C249 C250 1.376 . S
C249 H269 0.931 . S
C250 N245 1.338 . S
C250 C249 1.376 . S
C250 H261 0.930 . S
C251 O258 1.239 . S
C251 O259 1.230 . S
O252 Cd216 2.268 . S
O252 C226 1.238 . S
O253 Cd217 2.273 . S
O253 C226 1.253 . S
O254 Cd217 2.268 . S
O254 C243 1.238 . S
O255 Cd216 2.273 . S
O255 C243 1.253 . S
O256 Cd216 2.417 . S
O256 C244 1.239 . S
O257 Cd216 2.330 . S
O257 C244 1.230 . S
O258 Cd217 2.417 . S
O258 C251 1.239 . S
O259 Cd217 2.330 . S
O259 C251 1.230 . S
H260 C246 0.929 . S
H261 C250 0.930 . S
H262 C220 0.931 . S
H263 C222 0.930 . S
H264 C228 0.929 . S
H265 C230 0.931 . S
H266 C237 0.931 . S
H267 C239 0.930 . S
H268 C247 0.929 . S
H269 C249 0.931 . S
Cd270 N273 2.334 . S
Cd270 N299 2.304 . S
Cd270 O306 2.268 . S
Cd270 O309 2.273 . S
Cd270 O310 2.417 . S
Cd270 O311 2.330 . S
Cd271 N286 2.304 . S
Cd271 N290 2.334 . S
Cd271 O307 2.273 . S
Cd271 O308 2.268 . S
Cd271 O312 2.417 . S
Cd271 O313 2.330 . S
C272 N273 1.332 . S
C272 C276 1.381 . S
C272 H278 0.931 . S
N273 Cd270 2.334 . S
N273 C272 1.332 . S
N273 C277 1.328 . S
C274 C275 1.396 . S
C274 C277 1.378 . S
C274 H316 0.931 . S
C275 C274 1.396 . S
C275 C276 1.382 . S
C276 C272 1.381 . S
C276 C275 1.382 . S
C276 H317 0.930 . S
C277 N273 1.328 . S
C277 C274 1.378 . S
C277 H279 0.930 . S
H278 C272 0.931 . S
H279 C277 0.930 . S
C280 O306 1.238 . S
C280 O307 1.253 . S
C281 C282 1.379 . S
C281 N286 1.337 . S
C281 H287 0.929 . S
C282 C281 1.379 . S
C282 C283 1.380 . S
C282 H318 0.929 . S
C283 C282 1.380 . S
C283 C284 1.399 . S
C284 C283 1.399 . S
C284 C285 1.376 . S
C284 H319 0.931 . S
C285 C284 1.376 . S
C285 N286 1.338 . S
C285 H288 0.930 . S
N286 Cd271 2.304 . S
N286 C281 1.337 . S
N286 C285 1.338 . S
H287 C281 0.929 . S
H288 C285 0.930 . S
C289 N290 1.332 . S
C289 C293 1.381 . S
C289 H295 0.931 . S
N290 Cd271 2.334 . S
N290 C289 1.332 . S
N290 C294 1.328 . S
C291 C292 1.396 . S
C291 C294 1.378 . S
C291 H320 0.931 . S
C292 C291 1.396 . S
C292 C293 1.382 . S
C293 C289 1.381 . S
C293 C292 1.382 . S
C293 H321 0.930 . S
C294 N290 1.328 . S
C294 C291 1.378 . S
C294 H296 0.930 . S
H295 C289 0.931 . S
H296 C294 0.930 . S
C297 O308 1.238 . S
C297 O309 1.253 . S
C298 O310 1.239 . S
C298 O311 1.230 . S
N299 Cd270 2.304 . S
N299 C300 1.337 . S
N299 C304 1.338 . S
C300 N299 1.337 . S
C300 C301 1.379 . S
C300 H314 0.929 . S
C301 C300 1.379 . S
C301 C302 1.380 . S
C301 H322 0.929 . S
C302 C301 1.380 . S
C302 C303 1.399 . S
C303 C302 1.399 . S
C303 C304 1.376 . S
C303 H323 0.931 . S
C304 N299 1.338 . S
C304 C303 1.376 . S
C304 H315 0.930 . S
C305 O312 1.239 . S
C305 O313 1.230 . S
O306 Cd270 2.268 . S
O306 C280 1.238 . S
O307 Cd271 2.273 . S
O307 C280 1.253 . S
O308 Cd271 2.268 . S
O308 C297 1.238 . S
O309 Cd270 2.273 . S
O309 C297 1.253 . S
O310 Cd270 2.417 . S
O310 C298 1.239 . S
O311 Cd270 2.330 . S
O311 C298 1.230 . S
O312 Cd271 2.417 . S
O312 C305 1.239 . S
O313 Cd271 2.330 . S
O313 C305 1.230 . S
H314 C300 0.929 . S
H315 C304 0.930 . S
H316 C274 0.931 . S
H317 C276 0.930 . S
H318 C282 0.929 . S
H319 C284 0.931 . S
H320 C291 0.931 . S
H321 C293 0.930 . S
H322 C301 0.929 . S
H323 C303 0.931 . S
Cd324 N327 2.334 . S
Cd324 N353 2.304 . S
Cd324 O360 2.268 . S
Cd324 O363 2.273 1_545 S
Cd324 O364 2.417 . S
Cd324 O365 2.330 1_545 S
Cd325 N340 2.304 . S
Cd325 N344 2.334 . S
Cd325 O361 2.273 1_565 S
Cd325 O362 2.268 . S
Cd325 O366 2.417 . S
Cd325 O367 2.330 1_565 S
C326 N327 1.332 1_565 S
C326 C330 1.381 . S
C326 H332 0.931 . S
N327 Cd324 2.334 . S
N327 C326 1.332 1_545 S
N327 C331 1.328 . S
C328 C329 1.396 . S
C328 C331 1.378 . S
C328 H370 0.931 . S
C329 C328 1.396 . S
C329 C330 1.382 1_545 S
C330 C326 1.381 . S
C330 C329 1.382 1_565 S
C330 H371 0.930 . S
C331 N327 1.328 . S
C331 C328 1.378 . S
C331 H333 0.930 . S
H332 C326 0.931 . S
H333 C331 0.930 . S
C334 O360 1.238 . S
C334 O361 1.253 . S
C335 C336 1.379 . S
C335 N340 1.337 1_545 S
C335 H341 0.929 . S
C336 C335 1.379 . S
C336 C337 1.380 1_545 S
C336 H372 0.929 . S
C337 C336 1.380 1_565 S
C337 C338 1.399 . S
C338 C337 1.399 . S
C338 C339 1.376 . S
C338 H373 0.931 . S
C339 C338 1.376 . S
C339 N340 1.338 . S
C339 H342 0.930 . S
N340 Cd325 2.304 . S
N340 C335 1.337 1_565 S
N340 C339 1.338 . S
H341 C335 0.929 . S
H342 C339 0.930 . S
C343 N344 1.332 1_545 S
C343 C347 1.381 . S
C343 H349 0.931 . S
N344 Cd325 2.334 . S
N344 C343 1.332 1_565 S
N344 C348 1.328 . S
C345 C346 1.396 . S
C345 C348 1.378 . S
C345 H374 0.931 . S
C346 C345 1.396 . S
C346 C347 1.382 1_565 S
C347 C343 1.381 . S
C347 C346 1.382 1_545 S
C347 H375 0.930 . S
C348 N344 1.328 . S
C348 C345 1.378 . S
C348 H350 0.930 . S
H349 C343 0.931 . S
H350 C348 0.930 . S
C351 O362 1.238 . S
C351 O363 1.253 . S
C352 O364 1.239 . S
C352 O365 1.230 1_545 S
N353 Cd324 2.304 . S
N353 C354 1.337 1_545 S
N353 C358 1.338 . S
C354 N353 1.337 1_565 S
C354 C355 1.379 . S
C354 H368 0.929 . S
C355 C354 1.379 . S
C355 C356 1.380 1_565 S
C355 H376 0.929 . S
C356 C355 1.380 1_545 S
C356 C357 1.399 . S
C357 C356 1.399 . S
C357 C358 1.376 . S
C357 H377 0.931 . S
C358 N353 1.338 . S
C358 C357 1.376 . S
C358 H369 0.930 . S
C359 O366 1.239 . S
C359 O367 1.230 1_565 S
O360 Cd324 2.268 . S
O360 C334 1.238 . S
O361 Cd325 2.273 1_545 S
O361 C334 1.253 . S
O362 Cd325 2.268 . S
O362 C351 1.238 . S
O363 Cd324 2.273 1_565 S
O363 C351 1.253 . S
O364 Cd324 2.417 . S
O364 C352 1.239 . S
O365 Cd324 2.330 1_565 S
O365 C352 1.230 1_565 S
O366 Cd325 2.417 . S
O366 C359 1.239 . S
O367 Cd325 2.330 1_545 S
O367 C359 1.230 1_545 S
H368 C354 0.929 . S
H369 C358 0.930 . S
H370 C328 0.931 . S
H371 C330 0.930 . S
H372 C336 0.929 . S
H373 C338 0.931 . S
H374 C345 0.931 . S
H375 C347 0.930 . S
H376 C355 0.929 . S
H377 C357 0.931 . S
Cd378 N381 2.334 1_554 S
Cd378 N407 2.304 . S
Cd378 O414 2.269 . S
Cd378 O417 2.273 . S
Cd378 O418 2.414 1_554 S
Cd378 O419 2.330 . S
Cd379 N394 2.304 . S
Cd379 N398 2.334 1_554 S
Cd379 O415 2.273 . S
Cd379 O416 2.269 . S
Cd379 O420 2.414 1_554 S
Cd379 O421 2.330 . S
C380 N381 1.332 . S
C380 C384 1.381 . S
C380 H386 0.931 . S
N381 Cd378 2.334 1_556 S
N381 C380 1.332 . S
N381 C385 1.328 . S
C382 C383 1.396 . S
C382 C385 1.378 . S
C382 H424 0.931 . S
C383 C382 1.396 . S
C383 C384 1.382 . S
C384 C380 1.381 . S
C384 C383 1.382 . S
C384 H425 0.930 . S
C385 N381 1.328 . S
C385 C382 1.378 . S
C385 H387 0.930 . S
H386 C380 0.931 . S
H387 C385 0.930 . S
C388 O414 1.238 . S
C388 O415 1.256 . S
C389 C390 1.379 . S
C389 N394 1.337 . S
C389 H395 0.929 . S
C390 C389 1.379 . S
C390 C391 1.380 . S
C390 H426 0.929 . S
C391 C390 1.380 . S
C391 C392 1.399 . S
C392 C391 1.399 . S
C392 C393 1.376 . S
C392 H427 0.931 . S
C393 C392 1.376 . S
C393 N394 1.338 . S
C393 H396 0.930 . S
N394 Cd379 2.304 . S
N394 C389 1.337 . S
N394 C393 1.338 . S
H395 C389 0.929 . S
H396 C393 0.930 . S
C397 N398 1.332 . S
C397 C401 1.381 . S
C397 H403 0.931 . S
N398 Cd379 2.334 1_556 S
N398 C397 1.332 . S
N398 C402 1.328 . S
C399 C400 1.396 . S
C399 C402 1.378 . S
C399 H428 0.931 . S
C400 C399 1.396 . S
C400 C401 1.382 . S
C401 C397 1.381 . S
C401 C400 1.382 . S
C401 H429 0.930 . S
C402 N398 1.328 . S
C402 C399 1.378 . S
C402 H404 0.930 . S
H403 C397 0.931 . S
H404 C402 0.930 . S
C405 O416 1.238 . S
C405 O417 1.256 . S
C406 O418 1.235 1_554 S
C406 O419 1.232 . S
N407 Cd378 2.304 . S
N407 C408 1.337 . S
N407 C412 1.338 . S
C408 N407 1.337 . S
C408 C409 1.379 . S
C408 H422 0.929 . S
C409 C408 1.379 . S
C409 C410 1.380 . S
C409 H430 0.929 . S
C410 C409 1.380 . S
C410 C411 1.399 . S
C411 C410 1.399 . S
C411 C412 1.376 . S
C411 H431 0.931 . S
C412 N407 1.338 . S
C412 C411 1.376 . S
C412 H423 0.930 . S
C413 O420 1.235 1_554 S
C413 O421 1.232 . S
O414 Cd378 2.269 . S
O414 C388 1.238 . S
O415 Cd379 2.273 . S
O415 C388 1.256 . S
O416 Cd379 2.269 . S
O416 C405 1.238 . S
O417 Cd378 2.273 . S
O417 C405 1.256 . S
O418 Cd378 2.414 1_556 S
O418 C406 1.235 1_556 S
O419 Cd378 2.330 . S
O419 C406 1.232 . S
O420 Cd379 2.414 1_556 S
O420 C413 1.235 1_556 S
O421 Cd379 2.330 . S
O421 C413 1.232 . S
H422 C408 0.929 . S
H423 C412 0.930 . S
H424 C382 0.931 . S
H425 C384 0.930 . S
H426 C390 0.929 . S
H427 C392 0.931 . S
H428 C399 0.931 . S
H429 C401 0.930 . S
H430 C409 0.929 . S
H431 C411 0.931 . S
H432 C440 0.950 . S
H433 C445 0.950 . S
H434 C442 0.950 1_565 S
H435 C444 0.950 . S
H436 C446 0.950 . S
H437 C448 0.950 . S
H438 C450 0.950 . S
H439 C451 0.950 . S
C440 H432 0.950 . S
C440 C441 1.386 1_565 S
C440 C442 1.391 1_565 S
C441 C440 1.386 1_545 S
C441 C445 1.393 . S
C442 H434 0.950 1_545 S
C442 C440 1.391 1_545 S
C442 C443 1.400 . S
C443 C442 1.400 . S
C443 C444 1.398 . S
C443 C449 1.491 . S
C444 H435 0.950 . S
C444 C443 1.398 . S
C444 C445 1.391 . S
C445 H433 0.950 . S
C445 C441 1.393 . S
C445 C444 1.391 . S
C446 H436 0.950 . S
C446 C447 1.386 . S
C446 C448 1.391 . S
C447 C446 1.386 . S
C447 C451 1.393 . S
C448 H437 0.950 . S
C448 C446 1.391 . S
C448 C449 1.400 . S
C449 C443 1.491 . S
C449 C448 1.400 . S
C449 C450 1.398 . S
C450 H438 0.950 . S
C450 C449 1.398 . S
C450 C451 1.391 . S
C451 H439 0.950 . S
C451 C447 1.393 . S
C451 C450 1.391 . S
H452 C460 0.950 . S
H453 C465 0.950 . S
H454 C462 0.950 . S
H455 C464 0.950 1_545 S
H456 C466 0.950 . S
H457 C468 0.950 . S
H458 C470 0.950 . S
H459 C471 0.950 . S
C460 H452 0.950 . S
C460 C461 1.386 . S
C460 C462 1.391 . S
C461 C460 1.386 . S
C461 C465 1.393 1_565 S
C462 H454 0.950 . S
C462 C460 1.391 . S
C462 C463 1.400 . S
C463 C462 1.400 . S
C463 C464 1.398 . S
C463 C469 1.491 . S
C464 H455 0.950 1_565 S
C464 C463 1.398 . S
C464 C465 1.391 1_565 S
C465 H453 0.950 . S
C465 C461 1.393 1_545 S
C465 C464 1.391 1_545 S
C466 H456 0.950 . S
C466 C467 1.386 . S
C466 C468 1.391 . S
C467 C466 1.386 . S
C467 C471 1.393 . S
C468 H457 0.950 . S
C468 C466 1.391 . S
C468 C469 1.400 . S
C469 C463 1.491 . S
C469 C468 1.400 . S
C469 C470 1.398 . S
C470 H458 0.950 . S
C470 C469 1.398 . S
C470 C471 1.391 . S
C471 H459 0.950 . S
C471 C467 1.393 . S
C471 C470 1.391 . S
H472 C480 0.950 . S
H473 C485 0.950 . S
H474 C482 0.950 . S
H475 C484 0.950 . S
H476 C486 0.950 . S
H477 C488 0.950 . S
H478 C490 0.950 . S
H479 C491 0.950 . S
C480 H472 0.950 . S
C480 C481 1.386 . S
C480 C482 1.391 . S
C481 C480 1.386 . S
C481 C485 1.393 . S
C482 H474 0.950 . S
C482 C480 1.391 . S
C482 C483 1.400 . S
C483 C482 1.400 . S
C483 C484 1.398 . S
C483 C489 1.491 . S
C484 H475 0.950 . S
C484 C483 1.398 . S
C484 C485 1.391 . S
C485 H473 0.950 . S
C485 C481 1.393 . S
C485 C484 1.391 . S
C486 H476 0.950 . S
C486 C487 1.386 . S
C486 C488 1.391 . S
C487 C486 1.386 . S
C487 C491 1.393 . S
C488 H477 0.950 . S
C488 C486 1.391 . S
C488 C489 1.400 . S
C489 C483 1.491 . S
C489 C488 1.400 . S
C489 C490 1.398 . S
C490 H478 0.950 . S
C490 C489 1.398 . S
C490 C491 1.391 . S
C491 H479 0.950 . S
C491 C487 1.393 . S
C491 C490 1.391 . S
H492 C500 0.950 . S
H493 C505 0.950 . S
H494 C502 0.950 . S
H495 C504 0.950 . S
H496 C506 0.950 . S
H497 C508 0.950 . S
H498 C510 0.950 . S
H499 C511 0.950 . S
C500 H492 0.950 . S
C500 C501 1.386 . S
C500 C502 1.391 . S
C501 C500 1.386 . S
C501 C505 1.393 . S
C502 H494 0.950 . S
C502 C500 1.391 . S
C502 C503 1.400 . S
C503 C502 1.400 . S
C503 C504 1.398 . S
C503 C509 1.491 . S
C504 H495 0.950 . S
C504 C503 1.398 . S
C504 C505 1.391 . S
C505 H493 0.950 . S
C505 C501 1.393 . S
C505 C504 1.391 . S
C506 H496 0.950 . S
C506 C507 1.386 . S
C506 C508 1.391 . S
C507 C506 1.386 . S
C507 C511 1.393 . S
C508 H497 0.950 . S
C508 C506 1.391 . S
C508 C509 1.400 . S
C509 C503 1.491 . S
C509 C508 1.400 . S
C509 C510 1.398 . S
C510 H498 0.950 . S
C510 C509 1.398 . S
C510 C511 1.391 . S
C511 H499 0.950 . S
C511 C507 1.393 . S
C511 C510 1.391 . S
H512 C520 0.950 . S
H513 C525 0.950 . S
H514 C522 0.950 . S
H515 C524 0.950 . S
H516 C526 0.950 . S
H517 C528 0.950 . S
H518 C530 0.950 . S
H519 C531 0.950 . S
C520 H512 0.950 . S
C520 C521 1.386 . S
C520 C522 1.391 . S
C521 C520 1.386 . S
C521 C525 1.393 . S
C522 H514 0.950 . S
C522 C520 1.391 . S
C522 C523 1.400 . S
C523 C522 1.400 . S
C523 C524 1.398 . S
C523 C529 1.491 . S
C524 H515 0.950 . S
C524 C523 1.398 . S
C524 C525 1.391 . S
C525 H513 0.950 . S
C525 C521 1.393 . S
C525 C524 1.391 . S
C526 H516 0.950 . S
C526 C527 1.386 . S
C526 C528 1.391 . S
C527 C526 1.386 . S
C527 C531 1.393 . S
C528 H517 0.950 . S
C528 C526 1.391 . S
C528 C529 1.400 . S
C529 C523 1.491 . S
C529 C528 1.400 . S
C529 C530 1.398 . S
C530 H518 0.950 . S
C530 C529 1.398 . S
C530 C531 1.391 . S
C531 H519 0.950 . S
C531 C527 1.393 . S
C531 C530 1.391 . S
H532 C540 0.950 . S
H533 C545 0.950 . S
H534 C542 0.950 . S
H535 C544 0.950 . S
H536 C546 0.950 . S
H537 C548 0.950 . S
H538 C550 0.950 . S
H539 C551 0.950 . S
C540 H532 0.950 . S
C540 C541 1.386 . S
C540 C542 1.391 . S
C541 C540 1.386 . S
C541 C545 1.393 . S
C542 H534 0.950 . S
C542 C540 1.391 . S
C542 C543 1.400 . S
C543 C542 1.400 . S
C543 C544 1.398 . S
C543 C549 1.491 . S
C544 H535 0.950 . S
C544 C543 1.398 . S
C544 C545 1.391 . S
C545 H533 0.950 . S
C545 C541 1.393 . S
C545 C544 1.391 . S
C546 H536 0.950 . S
C546 C547 1.386 . S
C546 C548 1.391 . S
C547 C546 1.386 . S
C547 C551 1.393 . S
C548 H537 0.950 . S
C548 C546 1.391 . S
C548 C549 1.400 . S
C549 C543 1.491 . S
C549 C548 1.400 . S
C549 C550 1.398 . S
C550 H538 0.950 . S
C550 C549 1.398 . S
C550 C551 1.391 . S
C551 H539 0.950 . S
C551 C547 1.393 . S
C551 C550 1.391 . S
H552 C560 0.950 . S
H553 C565 0.950 . S
H554 C562 0.950 . S
H555 C564 0.950 . S
H556 C566 0.950 . S
H557 C568 0.950 1_545 S
H558 C570 0.950 . S
H559 C571 0.950 . S
C560 H552 0.950 . S
C560 C561 1.386 . S
C560 C562 1.391 . S
C561 C560 1.386 . S
C561 C565 1.393 . S
C562 H554 0.950 . S
C562 C560 1.391 . S
C562 C563 1.400 . S
C563 C562 1.400 . S
C563 C564 1.398 . S
C563 C569 1.491 . S
C564 H555 0.950 . S
C564 C563 1.398 . S
C564 C565 1.391 . S
C565 H553 0.950 . S
C565 C561 1.393 . S
C565 C564 1.391 . S
C566 H556 0.950 . S
C566 C567 1.386 1_545 S
C566 C568 1.391 1_545 S
C567 C566 1.386 1_565 S
C567 C571 1.393 . S
C568 H557 0.950 1_565 S
C568 C566 1.391 1_565 S
C568 C569 1.400 . S
C569 C563 1.491 . S
C569 C568 1.400 . S
C569 C570 1.398 . S
C570 H558 0.950 . S
C570 C569 1.398 . S
C570 C571 1.391 . S
C571 H559 0.950 . S
C571 C567 1.393 . S
C571 C570 1.391 . S
H572 C580 0.950 . S
H573 C585 0.950 . S
H574 C582 0.950 . S
H575 C584 0.950 1_565 S
H576 C586 0.950 . S
H577 C588 0.950 . S
H578 C590 0.950 . S
H579 C591 0.950 . S
C580 H572 0.950 . S
C580 C581 1.386 . S
C580 C582 1.391 . S
C581 C580 1.386 . S
C581 C585 1.393 . S
C582 H574 0.950 . S
C582 C580 1.391 . S
C582 C583 1.400 . S
C583 C582 1.400 . S
C583 C584 1.398 . S
C583 C589 1.491 . S
C584 H575 0.950 1_545 S
C584 C583 1.398 . S
C584 C585 1.391 . S
C585 H573 0.950 . S
C585 C581 1.393 . S
C585 C584 1.391 . S
C586 H576 0.950 . S
C586 C587 1.386 1_565 S
C586 C588 1.391 . S
C587 C586 1.386 1_545 S
C587 C591 1.393 . S
C588 H577 0.950 . S
C588 C586 1.391 . S
C588 C589 1.400 1_565 S
C589 C583 1.491 . S
C589 C588 1.400 1_545 S
C589 C590 1.398 . S
C590 H578 0.950 . S
C590 C589 1.398 . S
C590 C591 1.391 . S
C591 H579 0.950 . S
C591 C587 1.393 . S
C591 C590 1.391 . S
H592 C600 0.950 . S
H593 C605 0.950 . S
H594 C602 0.950 . S
H595 C604 0.950 . S
H596 C606 0.950 . S
H597 C608 0.950 . S
H598 C610 0.950 1_565 S
H599 C611 0.950 . S
C600 H592 0.950 . S
C600 C601 1.386 . S
C600 C602 1.391 . S
C601 C600 1.386 . S
C601 C605 1.393 . S
C602 H594 0.950 . S
C602 C600 1.391 . S
C602 C603 1.400 . S
C603 C602 1.400 . S
C603 C604 1.398 . S
C603 C609 1.491 . S
C604 H595 0.950 . S
C604 C603 1.398 . S
C604 C605 1.391 . S
C605 H593 0.950 . S
C605 C601 1.393 . S
C605 C604 1.391 . S
C606 H596 0.950 . S
C606 C607 1.386 . S
C606 C608 1.391 . S
C607 C606 1.386 . S
C607 C611 1.393 1_545 S
C608 H597 0.950 . S
C608 C606 1.391 . S
C608 C609 1.400 . S
C609 C603 1.491 . S
C609 C608 1.400 . S
C609 C610 1.398 . S
C610 H598 0.950 1_545 S
C610 C609 1.398 . S
C610 C611 1.391 1_545 S
C611 H599 0.950 . S
C611 C607 1.393 1_565 S
C611 C610 1.391 1_565 S
H612 C620 0.950 1_545 S
H613 C625 0.950 . S
H614 C622 0.950 . S
H615 C624 0.950 . S
H616 C626 0.950 . S
H617 C628 0.950 . S
H618 C630 0.950 . S
H619 C631 0.950 . S
C620 H612 0.950 1_565 S
C620 C621 1.386 . S
C620 C622 1.391 . S
C621 C620 1.386 . S
C621 C625 1.393 . S
C622 H614 0.950 . S
C622 C620 1.391 . S
C622 C623 1.400 . S
C623 C622 1.400 . S
C623 C624 1.398 . S
C623 C629 1.491 . S
C624 H615 0.950 . S
C624 C623 1.398 . S
C624 C625 1.391 . S
C625 H613 0.950 . S
C625 C621 1.393 . S
C625 C624 1.391 . S
C626 H616 0.950 . S
C626 C627 1.386 . S
C626 C628 1.391 . S
C627 C626 1.386 . S
C627 C631 1.393 . S
C628 H617 0.950 . S
C628 C626 1.391 . S
C628 C629 1.400 . S
C629 C623 1.491 . S
C629 C628 1.400 . S
C629 C630 1.398 . S
C630 H618 0.950 . S
C630 C629 1.398 . S
C630 C631 1.391 . S
C631 H619 0.950 . S
C631 C627 1.393 . S
C631 C630 1.391 . S
H632 C640 0.950 . S
H633 C645 0.950 . S
H634 C642 0.950 . S
H635 C644 0.950 . S
H636 C646 0.950 . S
H637 C648 0.950 . S
H638 C650 0.950 . S
H639 C651 0.950 . S
C640 H632 0.950 . S
C640 C641 1.386 . S
C640 C642 1.391 . S
C641 C640 1.386 . S
C641 C645 1.393 . S
C642 H634 0.950 . S
C642 C640 1.391 . S
C642 C643 1.400 . S
C643 C642 1.400 . S
C643 C644 1.398 . S
C643 C649 1.491 . S
C644 H635 0.950 . S
C644 C643 1.398 . S
C644 C645 1.391 . S
C645 H633 0.950 . S
C645 C641 1.393 . S
C645 C644 1.391 . S
C646 H636 0.950 . S
C646 C647 1.386 . S
C646 C648 1.391 . S
C647 C646 1.386 . S
C647 C651 1.393 . S
C648 H637 0.950 . S
C648 C646 1.391 . S
C648 C649 1.400 . S
C649 C643 1.491 . S
C649 C648 1.400 . S
C649 C650 1.398 . S
C650 H638 0.950 . S
C650 C649 1.398 . S
C650 C651 1.391 . S
C651 H639 0.950 . S
C651 C647 1.393 . S
C651 C650 1.391 . S
H652 C660 0.950 . S
H653 C665 0.950 . S
H654 C662 0.950 . S
H655 C664 0.950 . S
H656 C666 0.950 . S
H657 C668 0.950 . S
H658 C670 0.950 . S
H659 C671 0.950 . S
C660 H652 0.950 . S
C660 C661 1.386 . S
C660 C662 1.391 . S
C661 C660 1.386 . S
C661 C665 1.393 . S
C662 H654 0.950 . S
C662 C660 1.391 . S
C662 C663 1.400 . S
C663 C662 1.400 . S
C663 C664 1.398 . S
C663 C669 1.491 . S
C664 H655 0.950 . S
C664 C663 1.398 . S
C664 C665 1.391 . S
C665 H653 0.950 . S
C665 C661 1.393 . S
C665 C664 1.391 . S
C666 H656 0.950 . S
C666 C667 1.386 . S
C666 C668 1.391 . S
C667 C666 1.386 . S
C667 C671 1.393 . S
C668 H657 0.950 . S
C668 C666 1.391 . S
C668 C669 1.400 . S
C669 C663 1.491 . S
C669 C668 1.400 . S
C669 C670 1.398 . S
C670 H658 0.950 . S
C670 C669 1.398 . S
C670 C671 1.391 . S
C671 H659 0.950 . S
C671 C667 1.393 . S
C671 C670 1.391 . S
H672 C680 0.950 . S
H673 C685 0.950 . S
H674 C682 0.950 . S
H675 C684 0.950 . S
H676 C686 0.950 . S
H677 C688 0.950 . S
H678 C690 0.950 . S
H679 C691 0.950 . S
C680 H672 0.950 . S
C680 C681 1.386 . S
C680 C682 1.391 . S
C681 C680 1.386 . S
C681 C685 1.393 . S
C682 H674 0.950 . S
C682 C680 1.391 . S
C682 C683 1.400 . S
C683 C682 1.400 . S
C683 C684 1.398 . S
C683 C689 1.491 . S
C684 H675 0.950 . S
C684 C683 1.398 . S
C684 C685 1.391 . S
C685 H673 0.950 . S
C685 C681 1.393 . S
C685 C684 1.391 . S
C686 H676 0.950 . S
C686 C687 1.386 . S
C686 C688 1.391 . S
C687 C686 1.386 . S
C687 C691 1.393 . S
C688 H677 0.950 . S
C688 C686 1.391 . S
C688 C689 1.400 . S
C689 C683 1.491 . S
C689 C688 1.400 . S
C689 C690 1.398 . S
C690 H678 0.950 . S
C690 C689 1.398 . S
C690 C691 1.391 . S
C691 H679 0.950 . S
C691 C687 1.393 . S
C691 C690 1.391 . S
H692 C700 0.950 . S
H693 C705 0.950 . S
H694 C702 0.950 . S
H695 C704 0.950 . S
H696 C706 0.950 . S
H697 C708 0.950 . S
H698 C710 0.950 . S
H699 C711 0.950 . S
C700 H692 0.950 . S
C700 C701 1.386 . S
C700 C702 1.391 . S
C701 C700 1.386 . S
C701 C705 1.393 . S
C702 H694 0.950 . S
C702 C700 1.391 . S
C702 C703 1.400 . S
C703 C702 1.400 . S
C703 C704 1.398 . S
C703 C709 1.491 . S
C704 H695 0.950 . S
C704 C703 1.398 . S
C704 C705 1.391 . S
C705 H693 0.950 . S
C705 C701 1.393 . S
C705 C704 1.391 . S
C706 H696 0.950 . S
C706 C707 1.386 . S
C706 C708 1.391 . S
C707 C706 1.386 . S
C707 C711 1.393 . S
C708 H697 0.950 . S
C708 C706 1.391 . S
C708 C709 1.400 . S
C709 C703 1.491 . S
C709 C708 1.400 . S
C709 C710 1.398 . S
C710 H698 0.950 . S
C710 C709 1.398 . S
C710 C711 1.391 . S
C711 H699 0.950 . S
C711 C707 1.393 . S
C711 C710 1.391 . S
H712 C720 0.950 . S
H713 C725 0.950 . S
H714 C722 0.950 . S
H715 C724 0.950 1_545 S
H716 C726 0.950 . S
H717 C728 0.950 . S
H718 C730 0.950 . S
H719 C731 0.950 . S
C720 H712 0.950 . S
C720 C721 1.386 . S
C720 C722 1.391 . S
C721 C720 1.386 . S
C721 C725 1.393 1_565 S
C722 H714 0.950 . S
C722 C720 1.391 . S
C722 C723 1.400 . S
C723 C722 1.400 . S
C723 C724 1.398 . S
C723 C729 1.491 . S
C724 H715 0.950 1_565 S
C724 C723 1.398 . S
C724 C725 1.391 1_565 S
C725 H713 0.950 . S
C725 C721 1.393 1_545 S
C725 C724 1.391 1_545 S
C726 H716 0.950 . S
C726 C727 1.386 . S
C726 C728 1.391 . S
C727 C726 1.386 . S
C727 C731 1.393 . S
C728 H717 0.950 . S
C728 C726 1.391 . S
C728 C729 1.400 . S
C729 C723 1.491 . S
C729 C728 1.400 . S
C729 C730 1.398 . S
C730 H718 0.950 . S
C730 C729 1.398 . S
C730 C731 1.391 . S
C731 H719 0.950 . S
C731 C727 1.393 . S
C731 C730 1.391 . S
H732 C740 0.950 . S
H733 C745 0.950 1_565 S
H734 C742 0.950 . S
H735 C744 0.950 . S
H736 C746 0.950 . S
H737 C748 0.950 . S
H738 C750 0.950 . S
H739 C751 0.950 . S
C740 H732 0.950 . S
C740 C741 1.386 . S
C740 C742 1.391 . S
C741 C740 1.386 . S
C741 C745 1.393 . S
C742 H734 0.950 . S
C742 C740 1.391 . S
C742 C743 1.400 . S
C743 C742 1.400 . S
C743 C744 1.398 . S
C743 C749 1.491 . S
C744 H735 0.950 . S
C744 C743 1.398 . S
C744 C745 1.391 . S
C745 H733 0.950 1_545 S
C745 C741 1.393 . S
C745 C744 1.391 . S
C746 H736 0.950 . S
C746 C747 1.386 . S
C746 C748 1.391 . S
C747 C746 1.386 . S
C747 C751 1.393 . S
C748 H737 0.950 . S
C748 C746 1.391 . S
C748 C749 1.400 . S
C749 C743 1.491 . S
C749 C748 1.400 . S
C749 C750 1.398 . S
C750 H738 0.950 . S
C750 C749 1.398 . S
C750 C751 1.391 . S
C751 H739 0.950 . S
C751 C747 1.393 . S
C751 C750 1.391 . S
H752 C760 0.950 . S
H753 C765 0.950 . S
H754 C762 0.950 . S
H755 C764 0.950 . S
H756 C766 0.950 . S
H757 C768 0.950 . S
H758 C770 0.950 . S
H759 C771 0.950 . S
C760 H752 0.950 . S
C760 C761 1.379 1_656 S
C760 C762 1.391 . S
C761 C760 1.379 1_454 S
C761 C765 1.400 . S
C762 H754 0.950 . S
C762 C760 1.391 . S
C762 C763 1.388 1_656 S
C763 C762 1.388 1_454 S
C763 C764 1.410 . S
C763 C769 1.493 1_455 S
C764 H755 0.950 . S
C764 C763 1.410 . S
C764 C765 1.391 . S
C765 H753 0.950 . S
C765 C761 1.400 . S
C765 C764 1.391 . S
C766 H756 0.950 . S
C766 C767 1.386 1_455 S
C766 C768 1.391 . S
C767 C766 1.386 1_655 S
C767 C771 1.393 1_554 S
C768 H757 0.950 . S
C768 C766 1.391 . S
C768 C769 1.400 1_455 S
C769 C763 1.493 1_655 S
C769 C768 1.400 1_655 S
C769 C770 1.398 1_554 S
C770 H758 0.950 . S
C770 C769 1.398 1_556 S
C770 C771 1.391 . S
C771 H759 0.950 . S
C771 C767 1.393 1_556 S
C771 C770 1.391 . S
H772 C780 0.950 . S
H773 C785 0.950 . S
H774 C782 0.950 . S
H775 C784 0.950 . S
H776 C786 0.950 1_545 S
H777 C788 0.950 . S
H778 C790 0.950 . S
H779 C791 0.950 . S
C780 H772 0.950 . S
C780 C781 1.386 . S
C780 C782 1.391 . S
C781 C780 1.386 . S
C781 C785 1.393 . S
C782 H774 0.950 . S
C782 C780 1.391 . S
C782 C783 1.400 . S
C783 C782 1.400 . S
C783 C784 1.398 . S
C783 C789 1.491 . S
C784 H775 0.950 . S
C784 C783 1.398 . S
C784 C785 1.391 . S
C785 H773 0.950 . S
C785 C781 1.393 . S
C785 C784 1.391 . S
C786 H776 0.950 1_565 S
C786 C787 1.386 1_565 S
C786 C788 1.391 . S
C787 C786 1.386 1_545 S
C787 C791 1.393 1_545 S
C788 H777 0.950 . S
C788 C786 1.391 . S
C788 C789 1.400 . S
C789 C783 1.491 . S
C789 C788 1.400 . S
C789 C790 1.398 . S
C790 H778 0.950 . S
C790 C789 1.398 . S
C790 C791 1.391 . S
C791 H779 0.950 . S
C791 C787 1.393 1_565 S
C791 C790 1.391 . S
H792 C800 0.950 1_565 S
H793 C805 0.950 . S
H794 C802 0.950 . S
H795 C804 0.950 . S
H796 C806 0.950 . S
H797 C808 0.950 . S
H798 C810 0.950 . S
H799 C811 0.950 . S
C800 H792 0.950 1_545 S
C800 C801 1.386 1_545 S
C800 C802 1.391 . S
C801 C800 1.386 1_565 S
C801 C805 1.393 1_565 S
C802 H794 0.950 . S
C802 C800 1.391 . S
C802 C803 1.400 . S
C803 C802 1.400 . S
C803 C804 1.398 . S
C803 C809 1.491 . S
C804 H795 0.950 . S
C804 C803 1.398 . S
C804 C805 1.391 . S
C805 H793 0.950 . S
C805 C801 1.393 1_545 S
C805 C804 1.391 . S
C806 H796 0.950 . S
C806 C807 1.386 . S
C806 C808 1.391 . S
C807 C806 1.386 . S
C807 C811 1.393 . S
C808 H797 0.950 . S
C808 C806 1.391 . S
C808 C809 1.400 . S
C809 C803 1.491 . S
C809 C808 1.400 . S
C809 C810 1.398 . S
C810 H798 0.950 . S
C810 C809 1.398 . S
C810 C811 1.391 . S
C811 H799 0.950 . S
C811 C807 1.393 . S
C811 C810 1.391 . S
H812 C820 0.950 . S
H813 C825 0.950 . S
H814 C822 0.950 . S
H815 C824 0.950 . S
H816 C826 0.950 . S
H817 C828 0.950 . S
H818 C830 0.950 . S
H819 C831 0.950 . S
C820 H812 0.950 . S
C820 C821 1.386 . S
C820 C822 1.391 . S
C821 C820 1.386 . S
C821 C825 1.393 1_655 S
C822 H814 0.950 . S
C822 C820 1.391 . S
C822 C823 1.400 . S
C823 C822 1.400 . S
C823 C824 1.398 1_655 S
C823 C829 1.491 1_665 S
C824 H815 0.950 . S
C824 C823 1.398 1_455 S
C824 C825 1.391 . S
C825 H813 0.950 . S
C825 C821 1.393 1_455 S
C825 C824 1.391 . S
C826 H816 0.950 . S
C826 C827 1.386 . S
C826 C828 1.391 . S
C827 C826 1.386 . S
C827 C831 1.393 1_455 S
C828 H817 0.950 . S
C828 C826 1.391 . S
C828 C829 1.400 . S
C829 C823 1.491 1_445 S
C829 C828 1.400 . S
C829 C830 1.398 1_455 S
C830 H818 0.950 . S
C830 C829 1.398 1_655 S
C830 C831 1.391 . S
C831 H819 0.950 . S
C831 C827 1.393 1_655 S
C831 C830 1.391 . S
H832 C840 0.950 1_565 S
H833 C845 0.950 . S
H834 C842 0.950 . S
H835 C844 0.950 . S
H836 C846 0.950 . S
H837 C848 0.950 . S
H838 C850 0.950 . S
H839 C851 0.950 . S
C840 H832 0.950 1_545 S
C840 C841 1.386 1_545 S
C840 C842 1.391 . S
C841 C840 1.386 1_565 S
C841 C845 1.393 1_565 S
C842 H834 0.950 . S
C842 C840 1.391 . S
C842 C843 1.400 . S
C843 C842 1.400 . S
C843 C844 1.398 . S
C843 C849 1.491 . S
C844 H835 0.950 . S
C844 C843 1.398 . S
C844 C845 1.391 . S
C845 H833 0.950 . S
C845 C841 1.393 1_545 S
C845 C844 1.391 . S
C846 H836 0.950 . S
C846 C847 1.386 . S
C846 C848 1.391 . S
C847 C846 1.386 . S
C847 C851 1.393 . S
C848 H837 0.950 . S
C848 C846 1.391 . S
C848 C849 1.400 . S
C849 C843 1.491 . S
C849 C848 1.400 . S
C849 C850 1.398 . S
C850 H838 0.950 . S
C850 C849 1.398 . S
C850 C851 1.391 . S
C851 H839 0.950 . S
C851 C847 1.393 . S
C851 C850 1.391 . S
H852 C860 0.950 . S
H853 C865 0.950 . S
H854 C862 0.950 . S
H855 C864 0.950 . S
H856 C866 0.950 1_545 S
H857 C868 0.950 . S
H858 C870 0.950 . S
H859 C871 0.950 . S
C860 H852 0.950 . S
C860 C861 1.386 . S
C860 C862 1.391 . S
C861 C860 1.386 . S
C861 C865 1.393 . S
C862 H854 0.950 . S
C862 C860 1.391 . S
C862 C863 1.400 . S
C863 C862 1.400 . S
C863 C864 1.398 . S
C863 C869 1.491 . S
C864 H855 0.950 . S
C864 C863 1.398 . S
C864 C865 1.391 . S
C865 H853 0.950 . S
C865 C861 1.393 . S
C865 C864 1.391 . S
C866 H856 0.950 1_565 S
C866 C867 1.386 1_565 S
C866 C868 1.391 . S
C867 C866 1.386 1_545 S
C867 C871 1.393 1_545 S
C868 H857 0.950 . S
C868 C866 1.391 . S
C868 C869 1.400 . S
C869 C863 1.491 . S
C869 C868 1.400 . S
C869 C870 1.398 . S
C870 H858 0.950 . S
C870 C869 1.398 . S
C870 C871 1.391 . S
C871 H859 0.950 . S
C871 C867 1.393 1_565 S
C871 C870 1.391 . S
H872 C880 0.950 . S
H873 C885 0.950 . S
H874 C882 0.950 . S
H875 C884 0.950 . S
H876 C886 0.950 . S
H877 C888 0.950 . S
H878 C890 0.950 . S
H879 C891 0.950 . S
C880 H872 0.950 . S
C880 C881 1.386 . S
C880 C882 1.391 . S
C881 C880 1.386 . S
C881 C885 1.393 . S
C882 H874 0.950 . S
C882 C880 1.391 . S
C882 C883 1.400 . S
C883 C882 1.400 . S
C883 C884 1.398 . S
C883 C889 1.491 . S
C884 H875 0.950 . S
C884 C883 1.398 . S
C884 C885 1.391 . S
C885 H873 0.950 . S
C885 C881 1.393 . S
C885 C884 1.391 . S
C886 H876 0.950 . S
C886 C887 1.386 . S
C886 C888 1.391 . S
C887 C886 1.386 . S
C887 C891 1.393 . S
C888 H877 0.950 . S
C888 C886 1.391 . S
C888 C889 1.400 . S
C889 C883 1.491 . S
C889 C888 1.400 . S
C889 C890 1.398 . S
C890 H878 0.950 . S
C890 C889 1.398 . S
C890 C891 1.391 . S
C891 H879 0.950 . S
C891 C887 1.393 . S
C891 C890 1.391 . S
H892 C900 0.950 . S
H893 C905 0.950 . S
H894 C902 0.950 . S
H895 C904 0.950 . S
H896 C906 0.948 1_556 S
H897 C908 0.947 1_556 S
H898 C910 0.950 . S
H899 C911 0.950 . S
C900 H892 0.950 . S
C900 C901 1.387 . S
C900 C902 1.391 . S
C901 C900 1.387 . S
C901 C905 1.391 1_554 S
C902 H894 0.950 . S
C902 C900 1.391 . S
C902 C903 1.404 . S
C903 C902 1.404 . S
C903 C904 1.394 1_554 S
C903 C909 1.493 1_565 S
C904 H895 0.950 . S
C904 C903 1.394 1_556 S
C904 C905 1.391 . S
C905 H893 0.950 . S
C905 C901 1.391 1_556 S
C905 C904 1.391 . S
C906 H896 0.948 1_554 S
C906 C907 1.387 . S
C906 C908 1.391 . S
C907 C906 1.387 . S
C907 C911 1.393 . S
C908 H897 0.947 1_554 S
C908 C906 1.391 . S
C908 C909 1.400 . S
C909 C903 1.493 1_545 S
C909 C908 1.400 . S
C909 C910 1.398 . S
C910 H898 0.950 . S
C910 C909 1.398 . S
C910 C911 1.391 . S
C911 H899 0.950 . S
C911 C907 1.393 . S
C911 C910 1.391 . S
H912 C920 0.950 . S
H913 C925 0.950 . S
H914 C922 0.950 . S
H915 C924 0.950 . S
H916 C926 0.950 1_565 S
H917 C928 0.950 . S
H918 C930 0.950 . S
H919 C931 0.950 . S
C920 H912 0.950 . S
C920 C921 1.387 1_556 S
C920 C922 1.391 . S
C921 C920 1.387 1_554 S
C921 C925 1.392 . S
C922 H914 0.950 . S
C922 C920 1.391 . S
C922 C923 1.398 1_556 S
C923 C922 1.398 1_554 S
C923 C924 1.400 . S
C923 C929 1.490 . S
C924 H915 0.950 . S
C924 C923 1.400 . S
C924 C925 1.391 . S
C925 H913 0.950 . S
C925 C921 1.392 . S
C925 C924 1.391 . S
C926 H916 0.950 1_545 S
C926 C927 1.386 . S
C926 C928 1.391 . S
C927 C926 1.386 . S
C927 C931 1.393 1_554 S
C928 H917 0.950 . S
C928 C926 1.391 . S
C928 C929 1.412 . S
C929 C923 1.490 . S
C929 C928 1.412 . S
C929 C930 1.392 1_554 S
C930 H918 0.950 . S
C930 C929 1.392 1_556 S
C930 C931 1.391 . S
C931 H919 0.950 . S
C931 C927 1.393 1_556 S
C931 C930 1.391 . S
H932 C940 0.950 . S
H933 C945 0.950 . S
H934 C942 0.950 . S
H935 C944 0.950 . S
H936 C946 0.950 . S
H937 C948 0.950 . S
H938 C950 0.950 . S
H939 C951 0.950 . S
C940 H932 0.950 . S
C940 C941 1.376 1_556 S
C940 C942 1.391 . S
C941 C940 1.376 1_554 S
C941 C945 1.402 . S
C942 H934 0.950 . S
C942 C940 1.391 . S
C942 C943 1.383 1_556 S
C943 C942 1.383 1_554 S
C943 C944 1.415 . S
C943 C949 1.490 . S
C944 H935 0.950 . S
C944 C943 1.415 . S
C944 C945 1.391 . S
C945 H933 0.950 . S
C945 C941 1.402 . S
C945 C944 1.391 . S
C946 H936 0.950 . S
C946 C947 1.431 . S
C946 C948 1.391 . S
C947 C946 1.431 . S
C947 C951 1.350 1_554 S
C948 H937 0.950 . S
C948 C946 1.391 . S
C948 C949 1.437 . S
C949 C943 1.490 . S
C949 C948 1.437 . S
C949 C950 1.364 1_554 S
C950 H938 0.950 . S
C950 C949 1.364 1_556 S
C950 C951 1.391 . S
C951 H939 0.950 . S
C951 C947 1.350 1_556 S
C951 C950 1.391 . S
H952 C960 0.950 . S
H953 C965 0.950 . S
H954 C962 0.950 . S
H955 C964 0.950 . S
H956 C966 0.950 . S
H957 C968 0.950 . S
H958 C970 0.950 . S
H959 C971 0.950 . S
C960 H952 0.950 . S
C960 C961 1.386 . S
C960 C962 1.391 . S
C961 C960 1.386 . S
C961 C965 1.393 . S
C962 H954 0.950 . S
C962 C960 1.391 . S
C962 C963 1.400 . S
C963 C962 1.400 . S
C963 C964 1.398 . S
C963 C969 1.491 1_455 S
C964 H955 0.950 . S
C964 C963 1.398 . S
C964 C965 1.391 . S
C965 H953 0.950 . S
C965 C961 1.393 . S
C965 C964 1.391 . S
C966 H956 0.950 . S
C966 C967 1.386 . S
C966 C968 1.391 . S
C967 C966 1.386 . S
C967 C971 1.393 . S
C968 H957 0.950 . S
C968 C966 1.391 . S
C968 C969 1.400 . S
C969 C963 1.491 1_655 S
C969 C968 1.400 . S
C969 C970 1.398 . S
C970 H958 0.950 . S
C970 C969 1.398 . S
C970 C971 1.391 . S
C971 H959 0.950 . S
C971 C967 1.393 . S
C971 C970 1.391 . S
H972 C980 0.950 . S
H973 C985 0.950 . S
H974 C982 0.950 . S
H975 C984 0.950 . S
H976 C986 0.950 . S
H977 C988 0.950 . S
H978 C990 0.950 . S
H979 C991 0.950 . S
C980 H972 0.950 . S
C980 C981 1.386 . S
C980 C982 1.391 . S
C981 C980 1.386 . S
C981 C985 1.393 . S
C982 H974 0.950 . S
C982 C980 1.391 . S
C982 C983 1.400 . S
C983 C982 1.400 . S
C983 C984 1.398 . S
C983 C989 1.491 . S
C984 H975 0.950 . S
C984 C983 1.398 . S
C984 C985 1.391 . S
C985 H973 0.950 . S
C985 C981 1.393 . S
C985 C984 1.391 . S
C986 H976 0.950 . S
C986 C987 1.386 . S
C986 C988 1.391 . S
C987 C986 1.386 . S
C987 C991 1.393 . S
C988 H977 0.950 . S
C988 C986 1.391 . S
C988 C989 1.400 . S
C989 C983 1.491 . S
C989 C988 1.400 . S
C989 C990 1.398 . S
C990 H978 0.950 . S
C990 C989 1.398 . S
C990 C991 1.391 . S
C991 H979 0.950 . S
C991 C987 1.393 . S
C991 C990 1.391 . S
H992 C1000 0.950 . S
H993 C1005 0.950 . S
H994 C1002 0.950 . S
H995 C1004 0.950 . S
H996 C1006 0.950 . S
H997 C1008 0.950 . S
H998 C1010 0.950 . S
H999 C1011 0.950 1_565 S
C1000 H992 0.950 . S
C1000 C1001 1.386 . S
C1000 C1002 1.391 . S
C1001 C1000 1.386 . S
C1001 C1005 1.393 . S
C1002 H994 0.950 . S
C1002 C1000 1.391 . S
C1002 C1003 1.400 . S
C1003 C1002 1.400 . S
C1003 C1004 1.398 . S
C1003 C1009 1.491 . S
C1004 H995 0.950 . S
C1004 C1003 1.398 . S
C1004 C1005 1.391 . S
C1005 H993 0.950 . S
C1005 C1001 1.393 . S
C1005 C1004 1.391 . S
C1006 H996 0.950 . S
C1006 C1007 1.386 . S
C1006 C1008 1.391 . S
C1007 C1006 1.386 . S
C1007 C1011 1.393 . S
C1008 H997 0.950 . S
C1008 C1006 1.391 . S
C1008 C1009 1.400 . S
C1009 C1003 1.491 . S
C1009 C1008 1.400 . S
C1009 C1010 1.398 . S
C1010 H998 0.950 . S
C1010 C1009 1.398 . S
C1010 C1011 1.391 . S
C1011 H999 0.950 1_545 S
C1011 C1007 1.393 . S
C1011 C1010 1.391 . S
H1012 C1020 0.950 . S
H1013 C1025 0.950 . S
H1014 C1022 0.931 1_455 S
H1015 C1024 0.946 1_565 S
H1016 C1026 0.950 . S
H1017 C1028 0.931 1_655 S
H1018 C1030 0.946 1_545 S
H1019 C1031 0.950 . S
C1020 H1012 0.950 . S
C1020 C1021 1.386 . S
C1020 C1022 1.391 . S
C1021 C1020 1.386 . S
C1021 C1025 1.393 . S
C1022 H1014 0.931 1_655 S
C1022 C1020 1.391 . S
C1022 C1023 1.400 . S
C1023 C1022 1.400 . S
C1023 C1024 1.400 . S
C1023 C1029 1.491 1_645 S
C1024 H1015 0.946 1_545 S
C1024 C1023 1.400 . S
C1024 C1025 1.393 . S
C1025 H1013 0.950 . S
C1025 C1021 1.393 . S
C1025 C1024 1.393 . S
C1026 H1016 0.950 . S
C1026 C1027 1.386 . S
C1026 C1028 1.391 . S
C1027 C1026 1.386 . S
C1027 C1031 1.393 . S
C1028 H1017 0.931 1_455 S
C1028 C1026 1.391 . S
C1028 C1029 1.400 . S
C1029 C1023 1.491 1_465 S
C1029 C1028 1.400 . S
C1029 C1030 1.400 . S
C1030 H1018 0.946 1_565 S
C1030 C1029 1.400 . S
C1030 C1031 1.393 . S
C1031 H1019 0.950 . S
C1031 C1027 1.393 . S
C1031 C1030 1.393 . S
H1032 C1040 0.950 . S
H1033 C1045 0.950 . S
H1034 C1042 0.950 . S
H1035 C1044 0.950 . S
H1036 C1046 0.950 . S
H1037 C1048 0.950 . S
H1038 C1050 0.950 . S
H1039 C1051 0.950 . S
C1040 H1032 0.950 . S
C1040 C1041 1.386 . S
C1040 C1042 1.391 . S
C1041 C1040 1.386 . S
C1041 C1045 1.393 . S
C1042 H1034 0.950 . S
C1042 C1040 1.391 . S
C1042 C1043 1.400 . S
C1043 C1042 1.400 . S
C1043 C1044 1.398 . S
C1043 C1049 1.491 . S
C1044 H1035 0.950 . S
C1044 C1043 1.398 . S
C1044 C1045 1.391 . S
C1045 H1033 0.950 . S
C1045 C1041 1.393 . S
C1045 C1044 1.391 . S
C1046 H1036 0.950 . S
C1046 C1047 1.386 . S
C1046 C1048 1.391 . S
C1047 C1046 1.386 . S
C1047 C1051 1.393 . S
C1048 H1037 0.950 . S
C1048 C1046 1.391 . S
C1048 C1049 1.400 . S
C1049 C1043 1.491 . S
C1049 C1048 1.400 . S
C1049 C1050 1.398 . S
C1050 H1038 0.950 . S
C1050 C1049 1.398 . S
C1050 C1051 1.391 . S
C1051 H1039 0.950 . S
C1051 C1047 1.393 . S
C1051 C1050 1.391 . S
H1052 C1060 0.950 . S
H1053 C1065 0.950 . S
H1054 C1062 0.950 . S
H1055 C1064 0.950 . S
H1056 C1066 0.950 . S
H1057 C1068 0.950 . S
H1058 C1070 0.950 . S
H1059 C1071 0.950 . S
C1060 H1052 0.950 . S
C1060 C1061 1.386 . S
C1060 C1062 1.391 . S
C1061 C1060 1.386 . S
C1061 C1065 1.393 . S
C1062 H1054 0.950 . S
C1062 C1060 1.391 . S
C1062 C1063 1.400 . S
C1063 C1062 1.400 . S
C1063 C1064 1.398 1_565 S
C1063 C1069 1.491 1_565 S
C1064 H1055 0.950 . S
C1064 C1063 1.398 1_545 S
C1064 C1065 1.391 1_545 S
C1065 H1053 0.950 . S
C1065 C1061 1.393 . S
C1065 C1064 1.391 1_565 S
C1066 H1056 0.950 . S
C1066 C1067 1.386 . S
C1066 C1068 1.391 . S
C1067 C1066 1.386 . S
C1067 C1071 1.393 . S
C1068 H1057 0.950 . S
C1068 C1066 1.391 . S
C1068 C1069 1.400 . S
C1069 C1063 1.491 1_545 S
C1069 C1068 1.400 . S
C1069 C1070 1.398 1_545 S
C1070 H1058 0.950 . S
C1070 C1069 1.398 1_565 S
C1070 C1071 1.391 1_565 S
C1071 H1059 0.950 . S
C1071 C1067 1.393 . S
C1071 C1070 1.391 1_545 S
C441 C32 2.011 . S
C447 C76 2.015 . S
C461 C13 2.026 . S
C467 C130 2.032 . S
C481 C167 2.032 . S
C487 C67 2.026 . S
C501 C121 2.007 . S
C507 C184 2.014 . S
C521 C194 2.008 . S
C527 C221 2.012 . S
C541 C292 2.025 . S
C547 C175 2.020 . S
C561 C248 2.027 . S
C567 C5 2.031 1_565 S
C581 C283 2.026 . S
C587 C22 2.031 1_545 S
C601 C275 2.015 . S
C607 C356 2.010 . S
C621 C337 2.016 . S
C627 C238 2.021 . S
C641 C383 2.011 . S
C647 C302 2.005 . S
C661 C400 2.015 . S
C667 C229 2.009 . S
C681 C410 2.015 . S
C687 C113 2.020 . S
C701 C59 2.025 . S
C707 C391 2.019 . S
C721 C329 2.028 1_565 S
C727 C140 2.022 . S
C741 C346 2.023 1_545 S
C747 C86 2.017 . S
C761 C27 0.429 . S
C767 C10 0.444 . S
C781 C81 0.431 . S
C787 C64 0.431 . S
C801 C118 0.431 . S
C807 C135 0.431 . S
C821 C172 0.432 . S
C827 C189 0.432 . S
C841 C226 0.430 . S
C847 C243 0.430 . S
C861 C280 0.433 . S
C867 C297 0.432 . S
C881 C351 0.431 . S
C887 C334 0.432 . S
C901 C388 0.429 . S
C907 C405 0.445 . S
C921 C413 0.880 . S
C927 C28 0.881 . S
C941 C35 0.874 . S
C947 C406 0.877 . S
C961 C89 0.874 . S
C967 C143 0.874 . S
C981 C359 0.875 . S
C987 C190 0.873 . S
C1001 C197 0.884 . S
C1007 C352 0.886 . S
C1021 C305 0.876 . S
C1027 C244 0.875 . S
C1041 C298 0.884 . S
C1047 C251 0.883 . S
C1061 C136 0.889 . S
C1067 C82 0.888 . S
