# Generated by pormake.
# Topology noz, (5)-cn, num edge types: 1
# Building blocks:
#     Node 0, Type 0, BuildingBlock: XOMCOT_clean_sbu_1, # of connection points: 5
#     Node 1, Type 0, BuildingBlock: XOMCOT_clean_sbu_1, # of connection points: 5
#     Node 2, Type 0, BuildingBlock: XOMCOT_clean_sbu_1, # of connection points: 5
#     Node 3, Type 0, BuildingBlock: XOMCOT_clean_sbu_1, # of connection points: 5
#     Node 4, Type 0, BuildingBlock: XOMCOT_clean_sbu_1, # of connection points: 5
#     Node 5, Type 0, BuildingBlock: XOMCOT_clean_sbu_1, # of connection points: 5
#     Node 6, Type 0, BuildingBlock: XOMCOT_clean_sbu_1, # of connection points: 5
#     Node 7, Type 0, BuildingBlock: XOMCOT_clean_sbu_1, # of connection points: 5
#     Edge 8, Type (0, 0), BuildingBlock: ZUJKAS_clean_linker_0, # of connection points: 2
#     Edge 9, Type (0, 0), BuildingBlock: ZUJKAS_clean_linker_0, # of connection points: 2
#     Edge 10, Type (0, 0), BuildingBlock: ZUJKAS_clean_linker_0, # of connection points: 2
#     Edge 11, Type (0, 0), BuildingBlock: ZUJKAS_clean_linker_0, # of connection points: 2
#     Edge 12, Type (0, 0), BuildingBlock: ZUJKAS_clean_linker_0, # of connection points: 2
#     Edge 13, Type (0, 0), BuildingBlock: ZUJKAS_clean_linker_0, # of connection points: 2
#     Edge 14, Type (0, 0), BuildingBlock: ZUJKAS_clean_linker_0, # of connection points: 2
#     Edge 15, Type (0, 0), BuildingBlock: ZUJKAS_clean_linker_0, # of connection points: 2
#     Edge 16, Type (0, 0), BuildingBlock: ZUJKAS_clean_linker_0, # of connection points: 2
#     Edge 17, Type (0, 0), BuildingBlock: ZUJKAS_clean_linker_0, # of connection points: 2
#     Edge 18, Type (0, 0), BuildingBlock: ZUJKAS_clean_linker_0, # of connection points: 2
#     Edge 19, Type (0, 0), BuildingBlock: ZUJKAS_clean_linker_0, # of connection points: 2
#     Edge 20, Type (0, 0), BuildingBlock: ZUJKAS_clean_linker_0, # of connection points: 2
#     Edge 21, Type (0, 0), BuildingBlock: ZUJKAS_clean_linker_0, # of connection points: 2
#     Edge 22, Type (0, 0), BuildingBlock: ZUJKAS_clean_linker_0, # of connection points: 2
#     Edge 23, Type (0, 0), BuildingBlock: ZUJKAS_clean_linker_0, # of connection points: 2
#     Edge 24, Type (0, 0), BuildingBlock: ZUJKAS_clean_linker_0, # of connection points: 2
#     Edge 25, Type (0, 0), BuildingBlock: ZUJKAS_clean_linker_0, # of connection points: 2
#     Edge 26, Type (0, 0), BuildingBlock: ZUJKAS_clean_linker_0, # of connection points: 2
#     Edge 27, Type (0, 0), BuildingBlock: ZUJKAS_clean_linker_0, # of connection points: 2
# Relax obj value: 0.078
# Max RMSD: 0.164
# Mean RMSD: 0.164
data_MOF--net-noz--node1-XOMCOT_clean_sbu_1--edge1-ZUJKAS_clean_linker_0
_symmetry_space_group_name_H-M    P1
_symmetry_Int_Tables_number       1
_symmetry_cell_setting            triclinic
loop_
_symmetry_equiv_pos_as_xyz
'x, y, z'
_cell_length_a     30.211785
_cell_length_b     63.310336
_cell_length_c     45.980026
_cell_angle_alpha  90.088593
_cell_angle_beta   90.074116
_cell_angle_gamma 90.015935
loop_
_atom_site_label
_atom_site_type_symbol
_atom_site_fract_x
_atom_site_fract_y
_atom_site_fract_z
_atom_type_partial_charge
C0 C 0.1217 0.35251 0.35431 0.0
C1 C 0.08827 0.35323 0.3341 0.0
N2 N 0.05151 0.34478 0.34595 0.0
N3 N 0.10646 0.34358 0.37886 0.0
C4 C 0.06351 0.339 0.37321 0.0
H5 H 0.15514 0.35821 0.35136 0.0
Co6 Co 0.14211 0.34036 0.41148 0.0
C7 C 0.091 0.31546 0.45479 0.0
O8 O 0.11172 0.32553 0.47574 0.0
N9 N 0.18045 0.33733 0.44434 0.0
C10 C 0.22247 0.34336 0.48342 0.0
C11 C 0.19234 0.35194 0.46443 0.0
C12 C 0.20432 0.31999 0.4518 0.0
N13 N 0.23021 0.32328 0.47539 0.0
O14 O 0.17334 0.31811 0.39154 0.0
H15 H 0.18053 0.36797 0.46554 0.0
H16 H 0.20283 0.30516 0.44014 0.0
O17 O 0.09966 0.31992 0.4282 0.0
C18 C 0.21082 0.32461 0.38242 0.0
O19 O 0.22341 0.34386 0.38932 0.0
N20 N 0.11372 0.3638 0.42827 0.0
C21 C 0.08391 0.40293 0.44851 0.0
C22 C 0.05928 0.38447 0.45359 0.0
C23 C 0.07431 0.36505 0.44274 0.0
C24 C 0.13634 0.38174 0.4215 0.0
C25 C 0.1225 0.40138 0.43173 0.0
H26 H 0.05374 0.35134 0.44572 0.0
H27 H 0.16643 0.38061 0.40886 0.0
H28 H 0.04131 0.33199 0.38891 0.0
H29 H 0.0911 0.35932 0.3122 0.0
H30 H 0.23862 0.35156 0.50119 0.0
H31 H 0.02843 0.38507 0.46553 0.0
H32 H 0.1427 0.41511 0.42718 0.0
C33 C 0.58757 0.64941 0.86372 0.0
C34 C 0.62177 0.64856 0.84417 0.0
N35 N 0.65009 0.66443 0.85015 0.0
N36 N 0.59402 0.66572 0.88209 0.0
C37 C 0.63235 0.67472 0.87319 0.0
H38 H 0.56007 0.63851 0.86491 0.0
Co39 Co 0.55599 0.67099 0.9132 0.0
C40 C 0.61028 0.69368 0.95693 0.0
O41 O 0.59224 0.6819 0.97712 0.0
N42 N 0.51539 0.67608 0.94484 0.0
C43 C 0.47538 0.67287 0.98545 0.0
C44 C 0.50878 0.66438 0.96915 0.0
C45 C 0.48504 0.69185 0.94741 0.0
N46 N 0.46012 0.69011 0.97175 0.0
O47 O 0.52851 0.69312 0.89086 0.0
H48 H 0.52785 0.65085 0.97583 0.0
H49 H 0.48052 0.70424 0.93154 0.0
O50 O 0.5991 0.69101 0.93029 0.0
C51 C 0.49883 0.68419 0.87535 0.0
O52 O 0.49173 0.6639 0.87915 0.0
N53 N 0.58071 0.64748 0.93203 0.0
C54 C 0.60867 0.60825 0.95324 0.0
C55 C 0.63808 0.62549 0.95184 0.0
C56 C 0.62359 0.64493 0.94079 0.0
C57 C 0.5529 0.63057 0.93113 0.0
C58 C 0.56551 0.61114 0.94253 0.0
H59 H 0.6472 0.65763 0.93851 0.0
H60 H 0.51993 0.63245 0.92229 0.0
H61 H 0.64773 0.68806 0.8839 0.0
H62 H 0.62559 0.63704 0.82693 0.0
H63 H 0.46381 0.66698 1.00618 0.0
H64 H 0.67228 0.62391 0.95851 0.0
H65 H 0.54111 0.59864 0.94315 0.0
C66 C 0.10889 0.64749 0.67184 0.0
C67 C 0.07524 0.64653 0.69176 0.0
N68 N 0.04624 0.66213 0.68597 0.0
N69 N 0.1015 0.66362 0.65341 0.0
C70 C 0.06309 0.67239 0.66264 0.0
H71 H 0.13692 0.63691 0.67067 0.0
Co72 Co 0.13958 0.66927 0.62248 0.0
C73 C 0.08725 0.69435 0.57979 0.0
O74 O 0.10827 0.68494 0.55847 0.0
N75 N 0.18027 0.67457 0.59115 0.0
C76 C 0.22074 0.67117 0.55081 0.0
C77 C 0.18748 0.6626 0.56714 0.0
C78 C 0.21021 0.6905 0.58849 0.0
N79 N 0.23543 0.68867 0.56426 0.0
O80 O 0.16714 0.69111 0.64544 0.0
H81 H 0.16912 0.64875 0.56079 0.0
H82 H 0.2142 0.70304 0.60425 0.0
O83 O 0.09649 0.68955 0.60617 0.0
C84 C 0.19737 0.68222 0.66047 0.0
O85 O 0.20504 0.66204 0.656 0.0
N86 N 0.11487 0.64608 0.6028 0.0
C87 C 0.09085 0.60767 0.57748 0.0
C88 C 0.06196 0.62505 0.57654 0.0
C89 C 0.07439 0.64416 0.58976 0.0
C90 C 0.14144 0.62884 0.60596 0.0
C91 C 0.13049 0.60964 0.59309 0.0
H92 H 0.0513 0.65715 0.58966 0.0
H93 H 0.17225 0.63031 0.61779 0.0
H94 H 0.04729 0.68569 0.65216 0.0
H95 H 0.07255 0.63524 0.70933 0.0
H96 H 0.23265 0.66507 0.53026 0.0
H97 H 0.03043 0.62398 0.5654 0.0
H98 H 0.15301 0.59643 0.59533 0.0
C99 C 0.57872 0.36173 0.17585 0.0
C100 C 0.61105 0.36271 0.19678 0.0
N101 N 0.6431 0.34874 0.18996 0.0
N102 N 0.58988 0.34716 0.15581 0.0
C103 C 0.62925 0.33939 0.16501 0.0
H104 H 0.54905 0.37125 0.17504 0.0
Co105 Co 0.55458 0.34198 0.12326 0.0
C106 C 0.61524 0.32293 0.07997 0.0
O107 O 0.5999 0.33628 0.06067 0.0
N108 N 0.5165 0.3368 0.09012 0.0
C109 C 0.47991 0.33961 0.04799 0.0
C110 C 0.51223 0.34814 0.06527 0.0
C111 C 0.48573 0.32126 0.0869 0.0
N112 N 0.46286 0.32273 0.06162 0.0
O113 O 0.52904 0.31836 0.14334 0.0
H114 H 0.532 0.36159 0.0591 0.0
H115 H 0.47937 0.30922 0.10296 0.0
O116 O 0.60074 0.3236 0.10614 0.0
C117 C 0.49646 0.3249 0.1585 0.0
O118 O 0.48487 0.34484 0.15663 0.0
N119 N 0.57767 0.36674 0.1066 0.0
C120 C 0.60415 0.40694 0.08807 0.0
C121 C 0.63526 0.39062 0.09192 0.0
C122 C 0.62141 0.37069 0.10148 0.0
C123 C 0.54772 0.38278 0.1054 0.0
C124 C 0.55976 0.40266 0.09515 0.0
H125 H 0.64602 0.35866 0.10549 0.0
H126 H 0.51373 0.37986 0.11161 0.0
H127 H 0.64793 0.32756 0.15328 0.0
H128 H 0.61076 0.37294 0.21565 0.0
H129 H 0.47025 0.34532 0.02674 0.0
H130 H 0.6702 0.39323 0.08827 0.0
H131 H 0.53404 0.41439 0.0926 0.0
C132 C 0.62117 0.8566 0.36011 0.0
C133 C 0.58829 0.85721 0.33951 0.0
N134 N 0.55248 0.8471 0.35008 0.0
N135 N 0.6065 0.84615 0.38366 0.0
C136 C 0.56447 0.84046 0.37697 0.0
H137 H 0.65388 0.86339 0.35814 0.0
Co138 Co 0.64243 0.84272 0.41608 0.0
C139 C 0.59117 0.81923 0.46029 0.0
O140 O 0.6109 0.83061 0.48038 0.0
N141 N 0.68128 0.83942 0.4487 0.0
C142 C 0.72462 0.84493 0.48732 0.0
C143 C 0.69488 0.85394 0.46846 0.0
C144 C 0.70376 0.82168 0.45627 0.0
N145 N 0.73041 0.82465 0.47957 0.0
O146 O 0.67254 0.82024 0.39602 0.0
H147 H 0.68453 0.87019 0.46949 0.0
H148 H 0.70071 0.80679 0.44487 0.0
O149 O 0.59991 0.82255 0.43339 0.0
C150 C 0.71043 0.82611 0.38684 0.0
O151 O 0.72469 0.84507 0.39383 0.0
N152 N 0.61481 0.86639 0.43293 0.0
C153 C 0.58451 0.90555 0.45279 0.0
C154 C 0.55877 0.88725 0.45638 0.0
C155 C 0.57406 0.86785 0.44566 0.0
C156 C 0.63848 0.88424 0.4273 0.0
C157 C 0.62448 0.90387 0.43748 0.0
H158 H 0.55258 0.85432 0.44719 0.0
H159 H 0.66945 0.88302 0.41562 0.0
H160 H 0.54289 0.83199 0.39166 0.0
H161 H 0.59086 0.86434 0.31821 0.0
H162 H 0.74179 0.85293 0.50484 0.0
H163 H 0.52681 0.88798 0.46697 0.0
H164 H 0.64548 0.91749 0.43399 0.0
C165 C 0.09072 0.14775 0.86461 0.0
C166 C 0.12385 0.14823 0.84433 0.0
N167 N 0.14948 0.16528 0.84946 0.0
N168 N 0.09513 0.16428 0.88283 0.0
C169 C 0.1313 0.17476 0.87308 0.0
H170 H 0.06496 0.13595 0.86604 0.0
Co171 Co 0.05529 0.16879 0.91327 0.0
C172 C 0.10224 0.19439 0.95804 0.0
O173 O 0.07917 0.18491 0.97835 0.0
N174 N 1.01281 0.1729 0.94377 0.0
C175 C 0.96915 0.16807 0.98231 0.0
C176 C 1.00221 0.15956 0.96572 0.0
C177 C 0.98513 0.18957 0.94791 0.0
N178 N 0.95807 0.18692 0.9711 0.0
O179 O 0.02735 0.19066 0.8908 0.0
H180 H 0.01791 0.14472 0.97053 0.0
H181 H 0.98439 0.20334 0.93402 0.0
O182 O 0.09624 0.18936 0.93131 0.0
C183 C 0.99895 0.18187 0.87418 0.0
O184 O 0.99325 0.16135 0.87628 0.0
N185 N 0.08066 0.14567 0.9327 0.0
C186 C 0.10513 0.10753 0.95836 0.0
C187 C 0.13202 0.12551 0.96136 0.0
C188 C 0.11946 0.14448 0.94794 0.0
C189 C 0.05656 0.12786 0.92746 0.0
C190 C 0.06774 0.10876 0.9404 0.0
H191 H 0.14104 0.15797 0.94984 0.0
H192 H 0.0271 0.12882 0.91413 0.0
H193 H 0.1437 0.18914 0.88286 0.0
H194 H 0.12901 0.13658 0.82745 0.0
H195 H 0.955 0.161 1.00159 0.0
H196 H 0.16189 0.12504 0.97439 0.0
H197 H 0.04693 0.09509 0.93661 0.0
C198 C 0.61753 0.15471 0.67755 0.0
C199 C 0.58415 0.15398 0.69776 0.0
N200 N 0.55139 0.16691 0.68895 0.0
N201 N 0.60595 0.16793 0.65593 0.0
C202 C 0.56547 0.17528 0.66352 0.0
H203 H 0.64823 0.14595 0.67832 0.0
Co204 Co 0.642 0.17199 0.6237 0.0
C205 C 0.58977 0.19631 0.58035 0.0
O206 O 0.61028 0.18611 0.55947 0.0
N207 N 0.68069 0.17584 0.59112 0.0
C208 C 0.72153 0.17081 0.55129 0.0
C209 C 0.69189 0.16179 0.57011 0.0
C210 C 0.70464 0.19332 0.58435 0.0
N211 N 0.72971 0.19062 0.56028 0.0
O212 O 0.67182 0.19434 0.64432 0.0
H213 H 0.67953 0.14591 0.56795 0.0
H214 H 0.7036 0.20786 0.59672 0.0
O215 O 0.59888 0.19209 0.60696 0.0
C216 C 0.70834 0.18725 0.6543 0.0
O217 O 0.71958 0.16773 0.64789 0.0
N218 N 0.61528 0.14834 0.60624 0.0
C219 C 0.59042 0.10919 0.58349 0.0
C220 C 0.56319 0.12698 0.57976 0.0
C221 C 0.57592 0.14646 0.59177 0.0
C222 C 0.63975 0.13082 0.61229 0.0
C223 C 0.62837 0.11121 0.60082 0.0
H224 H 0.55397 0.15976 0.58941 0.0
H225 H 0.66958 0.13235 0.62516 0.0
H226 H 0.54615 0.18606 0.65041 0.0
H227 H 0.58402 0.14469 0.71751 0.0
H228 H 0.73678 0.16314 0.53278 0.0
H229 H 0.53288 0.12597 0.56724 0.0
H230 H 0.64945 0.09776 0.60529 0.0
C231 C 0.07591 0.8537 0.18313 0.0
C232 C 0.1091 0.85436 0.20348 0.0
N233 N 0.1452 0.84487 0.19228 0.0
N234 N 0.09063 0.8438 0.1591 0.0
C235 C 0.13306 0.83849 0.16526 0.0
H236 H 0.04303 0.8602 0.18555 0.0
Co237 Co 0.05432 0.84111 0.12669 0.0
C238 C 0.10525 0.81887 0.08097 0.0
O239 O 0.0849 0.83052 0.06152 0.0
N240 N 1.01484 0.83871 0.09406 0.0
C241 C 0.97242 0.84571 0.0555 0.0
C242 C 1.00395 0.85352 0.07409 0.0
C243 C 0.98912 0.8219 0.08668 0.0
N244 N 0.9626 0.82583 0.06353 0.0
O245 O 0.02507 0.81796 0.14556 0.0
H246 H 0.01796 0.8691 0.07236 0.0
H247 H 0.98901 0.80717 0.09853 0.0
O248 O 0.09685 0.82157 0.10805 0.0
C249 C 0.98817 0.82353 0.15658 0.0
O250 O 0.97379 0.84283 0.15217 0.0
N251 N 0.08145 0.86528 0.1111 0.0
C252 C 0.1109 0.90481 0.09234 0.0
C253 C 0.13703 0.88669 0.08825 0.0
C254 C 0.12213 0.86709 0.09838 0.0
C255 C 0.05754 0.88294 0.11744 0.0
C256 C 0.07109 0.90276 0.10777 0.0
H257 H 0.14376 0.85365 0.0963 0.0
H258 H 0.02659 0.88141 0.12907 0.0
H259 H 0.15489 0.83064 0.15006 0.0
H260 H 0.10667 0.86121 0.225 0.0
H261 H 0.95804 0.85416 0.03738 0.0
H262 H 0.16891 0.88768 0.0776 0.0
H263 H 0.04977 0.91621 0.11163 0.0
H264 H 0.18543 0.29595 0.34059 0.0
H265 H 0.23238 0.28177 0.30139 0.0
H266 H 0.34619 0.31209 0.33988 0.0
H267 H 0.29988 0.32606 0.37866 0.0
H268 H 0.27613 0.30798 0.26358 0.0
H269 H 0.39853 0.2559 0.31595 0.0
H270 H 0.34695 0.26299 0.33327 0.0
H271 H 0.39406 0.28041 0.33528 0.0
C272 C 0.22074 0.29891 0.34114 0.0
C273 C 0.23907 0.3121 0.36262 0.0
C274 C 0.24749 0.2909 0.3187 0.0
C275 C 0.293 0.29562 0.31784 0.0
C276 C 0.3115 0.30777 0.34033 0.0
H277 H 0.50467 0.32848 0.21634 0.0
H278 H 0.4539 0.31463 0.25304 0.0
C279 C 0.28487 0.31591 0.36242 0.0
C280 C 0.3203 0.29087 0.29171 0.0
H281 H 0.4237 0.27424 0.27219 0.0
C282 C 0.30781 0.3 0.26513 0.0
C283 C 0.36165 0.28046 0.29373 0.0
C284 C 0.37584 0.2692 0.32106 0.0
C285 C 0.33712 0.30073 0.24143 0.0
C286 C 0.37985 0.29173 0.24422 0.0
C287 C 0.39104 0.28119 0.27006 0.0
C288 C 0.41524 0.29614 0.2226 0.0
C289 C 0.32345 0.31265 0.21446 0.0
C290 C 0.41176 0.28954 0.19344 0.0
C291 C 0.44117 0.29737 0.17242 0.0
C292 C 0.47443 0.31173 0.18044 0.0
C293 C 0.47967 0.31713 0.20982 0.0
C294 C 0.45058 0.30928 0.23074 0.0
H295 H 0.29156 0.32113 0.21737 0.0
H296 H 0.34925 0.32433 0.20836 0.0
H297 H 0.3196 0.3014 0.1961 0.0
H298 H 0.38499 0.27925 0.18671 0.0
H299 H 0.43605 0.29335 0.14975 0.0
H300 H 0.46748 0.72531 0.87401 0.0
H301 H 0.41641 0.74033 0.83737 0.0
H302 H 0.42318 0.68225 0.78842 0.0
H303 H 0.47323 0.66742 0.82442 0.0
H304 H 0.42581 0.72068 0.75367 0.0
H305 H 0.28579 0.71729 0.83249 0.0
H306 H 0.33568 0.73132 0.84197 0.0
H307 H 0.33652 0.70307 0.83927 0.0
C308 C 0.45863 0.71603 0.85507 0.0
C309 C 0.47394 0.69516 0.85213 0.0
C310 C 0.42935 0.72453 0.83429 0.0
C311 C 0.41574 0.71232 0.81026 0.0
C312 C 0.43319 0.69198 0.8067 0.0
H313 H 0.22887 0.66456 0.70937 0.0
H314 H 0.27778 0.67996 0.74564 0.0
C315 C 0.46167 0.68348 0.82741 0.0
C316 C 0.38061 0.71927 0.78972 0.0
H317 H 0.26809 0.71753 0.7829 0.0
C318 C 0.39127 0.72086 0.76006 0.0
C319 C 0.33558 0.71938 0.79813 0.0
C320 C 0.3223 0.71765 0.82965 0.0
C321 C 0.35818 0.72053 0.73851 0.0
C322 C 0.31333 0.71862 0.74687 0.0
C323 C 0.30251 0.71909 0.77656 0.0
C324 C 0.27932 0.71096 0.72597 0.0
C325 C 0.37156 0.72007 0.70692 0.0
C326 C 0.26294 0.72343 0.70303 0.0
C327 C 0.2343 0.71459 0.68208 0.0
C328 C 0.22244 0.69313 0.68373 0.0
C329 C 0.23775 0.68108 0.70732 0.0
C330 C 0.26558 0.68989 0.7282 0.0
H331 H 0.40797 0.7214 0.70405 0.0
H332 H 0.36017 0.70512 0.69669 0.0
H333 H 0.35548 0.73333 0.6952 0.0
H334 H 0.27305 0.73977 0.70098 0.0
H335 H 0.22306 0.7242 0.66406 0.0
H336 H 1.00458 0.69996 0.69322 0.0
H337 H 0.9384 0.70679 0.72298 0.0
H338 H 0.92992 0.64047 0.74334 0.0
H339 H 0.99521 0.63359 0.71386 0.0
H340 H 0.85105 0.68995 0.72016 0.0
H341 H 0.93249 0.66839 0.82375 0.0
H342 H 0.96332 0.67392 0.791 0.0
H343 H 0.93886 0.6483 0.79651 0.0
C344 C 0.98834 0.68686 0.70389 0.0
C345 C 1.00568 0.66628 0.70158 0.0
C346 C 0.9507 0.69078 0.72097 0.0
C347 C 0.92995 0.67421 0.73602 0.0
C348 C 0.94616 0.6536 0.73268 0.0
H349 H 0.70412 0.63546 0.82573 0.0
H350 H 0.77263 0.64193 0.79915 0.0
C351 C 0.98358 0.64969 0.71579 0.0
C352 C 0.89117 0.67801 0.7552 0.0
H353 H 0.85272 0.66744 0.82351 0.0
C354 C 0.85159 0.68551 0.74293 0.0
C355 C 0.892 0.67237 0.78499 0.0
C356 C 0.93409 0.6655 0.79992 0.0
C357 C 0.81216 0.6861 0.7592 0.0
C358 C 0.81252 0.67909 0.78838 0.0
C359 C 0.85254 0.67272 0.80107 0.0
C360 C 0.77102 0.6758 0.80492 0.0
C361 C 0.76977 0.69304 0.74477 0.0
C362 C 0.74769 0.69274 0.81734 0.0
C363 C 0.70832 0.68907 0.83274 0.0
C364 C 0.6916 0.66843 0.83564 0.0
C365 C 0.7156 0.65157 0.82346 0.0
C366 C 0.7549 0.65521 0.80838 0.0
H367 H 0.7748 0.69756 0.72168 0.0
H368 H 0.74501 0.68009 0.74575 0.0
H369 H 0.7558 0.70677 0.75667 0.0
H370 H 0.75985 0.70875 0.81504 0.0
H371 H 0.69048 0.70236 0.8418 0.0
H372 H 0.69466 0.31337 0.19036 0.0
H373 H 0.76278 0.3078 0.21853 0.0
H374 H 0.75228 0.37083 0.25343 0.0
H375 H 0.68508 0.37659 0.22539 0.0
H376 H 0.84244 0.33002 0.21742 0.0
H377 H 0.76701 0.33519 0.32677 0.0
H378 H 0.73452 0.33143 0.29417 0.0
H379 H 0.7532 0.35741 0.30435 0.0
C380 C 0.70694 0.32606 0.20396 0.0
C381 C 0.68386 0.34534 0.20584 0.0
C382 C 0.74575 0.32281 0.22017 0.0
C383 C 0.76204 0.33871 0.23867 0.0
C384 C 0.73964 0.35808 0.24004 0.0
H385 H 0.01854 0.36901 0.30251 0.0
H386 H 0.9485 0.36458 0.277 0.0
C387 C 0.70107 0.36134 0.22391 0.0
C388 C 0.80337 0.33564 0.25578 0.0
H389 H 0.84589 0.34003 0.32448 0.0
C390 C 0.8431 0.3319 0.24087 0.0
C391 C 0.80424 0.33774 0.28645 0.0
C392 C 0.76238 0.34044 0.30392 0.0
C393 C 0.88389 0.33137 0.25561 0.0
C394 C 0.88505 0.33499 0.28601 0.0
C395 C 0.84509 0.33754 0.30114 0.0
C396 C 0.9275 0.33751 0.30208 0.0
C397 C 0.92546 0.32716 0.2384 0.0
C398 C 0.93845 0.32425 0.32549 0.0
C399 C 0.97881 0.32676 0.34028 0.0
C400 C 1.00882 0.34265 0.33196 0.0
C401 C 0.99694 0.35626 0.30905 0.0
C402 C 0.9568 0.35374 0.29437 0.0
H403 H 0.91814 0.3184 0.218 0.0
H404 H 0.94088 0.34244 0.23234 0.0
H405 H 0.94979 0.31797 0.25134 0.0
H406 H 0.9161 0.31175 0.33202 0.0
H407 H 0.98688 0.31598 0.35774 0.0
H408 H 0.681 0.79994 0.34333 0.0
H409 H 0.72554 0.78623 0.30269 0.0
H410 H 0.8437 0.81085 0.34311 0.0
H411 H 0.7996 0.8246 0.38329 0.0
H412 H 0.77386 0.81541 0.26887 0.0
H413 H 0.88573 0.75355 0.31121 0.0
H414 H 0.83476 0.76082 0.3292 0.0
H415 H 0.88383 0.77656 0.33403 0.0
C416 C 0.71666 0.80169 0.34399 0.0
C417 C 0.73693 0.81333 0.36637 0.0
C418 C 0.74204 0.79394 0.32075 0.0
C419 C 0.78805 0.79732 0.31999 0.0
C420 C 0.80848 0.80765 0.34345 0.0
H421 H 1.0078 0.81836 0.21332 0.0
H422 H 0.95649 0.80656 0.25115 0.0
C423 C 0.78318 0.81563 0.36633 0.0
C424 C 0.8139 0.79351 0.29301 0.0
H425 H 0.91065 0.77211 0.26834 0.0
C426 C 0.80316 0.80551 0.26839 0.0
C427 C 0.85234 0.78079 0.29262 0.0
C428 C 0.86468 0.76704 0.31811 0.0
C429 C 0.83144 0.80639 0.2442 0.0
C430 C 0.87098 0.79429 0.24419 0.0
C431 C 0.88042 0.78135 0.26823 0.0
C432 C 0.90507 0.79689 0.22107 0.0
C433 C 0.82018 0.82155 0.21995 0.0
C434 C 0.89442 0.79426 0.19149 0.0
C435 C 0.92355 0.8013 0.1699 0.0
C436 C 0.96436 0.8103 0.17758 0.0
C437 C 0.9768 0.81106 0.20695 0.0
C438 C 0.94737 0.80441 0.22854 0.0
H439 H 0.7942 0.83304 0.22645 0.0
H440 H 0.84988 0.83054 0.21299 0.0
H441 H 0.8075 0.81254 0.20098 0.0
H442 H 0.86251 0.78798 0.18513 0.0
H443 H 0.91316 0.80086 0.14734 0.0
H444 H 0.68586 0.21822 0.69386 0.0
H445 H 0.73409 0.23276 0.73228 0.0
H446 H 0.84412 0.19744 0.69751 0.0
H447 H 0.79679 0.18328 0.65949 0.0
H448 H 0.77325 0.20854 0.77322 0.0
H449 H 0.90513 0.25188 0.71669 0.0
H450 H 0.85306 0.24567 0.69926 0.0
H451 H 0.89768 0.22672 0.69952 0.0
C452 C 0.7207 0.21421 0.69395 0.0
C453 C 0.7376 0.19961 0.67375 0.0
C454 C 0.74818 0.22243 0.71594 0.0
C455 C 0.79303 0.21648 0.71761 0.0
C456 C 0.81011 0.20279 0.69638 0.0
H457 H 0.97688 0.16739 0.82119 0.0
H458 H 0.92665 0.18321 0.7859 0.0
C459 C 0.78281 0.1945 0.67474 0.0
C460 C 0.82087 0.22164 0.74342 0.0
H461 H 0.92837 0.23262 0.76108 0.0
C462 C 0.8066 0.21464 0.77084 0.0
C463 C 0.86439 0.22972 0.74054 0.0
C464 C 0.88068 0.23913 0.71242 0.0
C465 C 0.83609 0.21333 0.79444 0.0
C466 C 0.88084 0.21913 0.7905 0.0
C467 C 0.89405 0.22807 0.76401 0.0
C468 C 0.91534 0.21161 0.81094 0.0
C469 C 0.82043 0.2039 0.82271 0.0
C470 C 0.92655 0.22266 0.83647 0.0
C471 C 0.95599 0.21368 0.85674 0.0
C472 C 0.97372 0.19345 0.85175 0.0
C473 C 0.96349 0.18294 0.82568 0.0
C474 C 0.93489 0.19196 0.80545 0.0
H475 H 0.78384 0.20221 0.82341 0.0
H476 H 0.83556 0.18806 0.82558 0.0
H477 H 0.83124 0.21391 0.84125 0.0
H478 H 0.91156 0.23783 0.84109 0.0
H479 H 0.96309 0.222 0.87681 0.0
H480 H 0.16933 0.15443 0.79387 0.0
H481 H 0.23825 0.16051 0.76825 0.0
H482 H 0.28703 0.19717 0.84064 0.0
H483 H 0.21857 0.18998 0.86744 0.0
H484 H 0.28074 0.1939 0.74889 0.0
H485 H 0.38443 0.15468 0.83286 0.0
H486 H 0.32484 0.15393 0.83385 0.0
H487 H 0.35404 0.17719 0.84564 0.0
C488 C 0.19473 0.16358 0.80467 0.0
C489 C 0.18856 0.1712 0.83317 0.0
C490 C 0.23413 0.16728 0.78973 0.0
C491 C 0.26846 0.1789 0.80267 0.0
C492 C 0.26159 0.18765 0.83046 0.0
H493 H 0.50476 0.20345 0.69289 0.0
H494 H 0.43672 0.20933 0.72102 0.0
C495 C 0.22213 0.18373 0.84565 0.0
C496 C 0.31157 0.18089 0.78712 0.0
H497 H 0.42091 0.16746 0.79147 0.0
C498 C 0.3115 0.18827 0.75827 0.0
C499 C 0.3517 0.17335 0.79923 0.0
C500 C 0.35392 0.16416 0.82948 0.0
C501 C 0.34981 0.18759 0.74092 0.0
C502 C 0.38984 0.17993 0.753 0.0
C503 C 0.39029 0.17335 0.78219 0.0
C504 C 0.43073 0.17685 0.73533 0.0
C505 C 0.34634 0.19405 0.70941 0.0
C506 C 0.45061 0.15682 0.73434 0.0
C507 C 0.4897 0.15358 0.7188 0.0
C508 C 0.50981 0.17026 0.70362 0.0
C509 C 0.48964 0.19027 0.70411 0.0
C510 C 0.4507 0.1936 0.72011 0.0
H511 H 0.31142 0.19434 0.70179 0.0
H512 H 0.36012 0.21017 0.70679 0.0
H513 H 0.36535 0.18314 0.69522 0.0
H514 H 0.43587 0.14359 0.7457 0.0
H515 H 0.50419 0.13795 0.71855 0.0
H516 H 0.20615 0.81363 0.18478 0.0
H517 H 0.27574 0.80912 0.21192 0.0
H518 H 0.24978 0.86677 0.25893 0.0
H519 H 0.18084 0.87129 0.23218 0.0
H520 H 0.34963 0.83428 0.21672 0.0
H521 H 0.27198 0.82557 0.32481 0.0
H522 H 0.24069 0.82382 0.29141 0.0
H523 H 0.25408 0.8492 0.30684 0.0
C524 C 0.21547 0.82536 0.2008 0.0
C525 C 0.18754 0.84264 0.20663 0.0
C526 C 0.25509 0.82272 0.2164 0.0
C527 C 0.26739 0.83729 0.23809 0.0
C528 C 0.24033 0.85492 0.24308 0.0
H529 H 0.51676 0.8728 0.30934 0.0
H530 H 0.44845 0.86748 0.28217 0.0
C531 C 0.20087 0.85751 0.22767 0.0
C532 C 0.30897 0.83464 0.25513 0.0
H533 H 0.34932 0.83477 0.32466 0.0
C534 C 0.34953 0.83408 0.24031 0.0
C535 C 0.30897 0.83394 0.28594 0.0
C536 C 0.26655 0.83293 0.30317 0.0
C537 C 0.39001 0.83406 0.25545 0.0
C538 C 0.38998 0.83504 0.28625 0.0
C539 C 0.34944 0.83436 0.30107 0.0
C540 C 0.43146 0.83807 0.30329 0.0
C541 C 0.43246 0.83317 0.23825 0.0
C542 C 0.44394 0.82377 0.32519 0.0
C543 C 0.48323 0.82685 0.341 0.0
C544 C 0.51065 0.84432 0.33522 0.0
C545 C 0.49718 0.85889 0.31387 0.0
C546 C 0.45806 0.85584 0.29822 0.0
H547 H 0.42724 0.82562 0.21668 0.0
H548 H 0.44455 0.84948 0.23443 0.0
H549 H 0.45852 0.8243 0.25011 0.0
H550 H 0.42365 0.81006 0.32974 0.0
H551 H 0.49262 0.81532 0.35723 0.0
H552 H 0.14652 0.58414 0.54422 0.0
H553 H 0.13307 0.54944 0.52282 0.0
H554 H 0.99915 0.5505 0.55514 0.0
H555 H 1.01246 0.5855 0.57669 0.0
H556 H 0.11025 0.51356 0.55412 0.0
H557 H 0.98416 0.53196 0.46961 0.0
H558 H 0.01793 0.55211 0.48644 0.0
H559 H 0.97214 0.54091 0.50589 0.0
C560 C 0.1141 0.57705 0.54669 0.0
C561 C 0.08064 0.58748 0.56235 0.0
C562 C 0.10643 0.55725 0.53437 0.0
C563 C 0.0651 0.54739 0.5373 0.0
C564 C 0.0311 0.55795 0.55225 0.0
H565 H 0.05115 0.41085 0.50307 0.0
H566 H 0.03872 0.44533 0.52586 0.0
C567 C 0.03874 0.57792 0.56456 0.0
C568 C 0.05916 0.52559 0.52603 0.0
H569 H 1.00536 0.49625 0.47451 0.0
C570 C 0.08704 0.50971 0.53689 0.0
C571 C 0.02903 0.52068 0.50344 0.0
C572 C 0.99925 0.53729 0.49041 0.0
C573 C 0.08651 0.4892 0.52531 0.0
C574 C 0.05655 0.48427 0.5026 0.0
C575 C 0.02796 0.50002 0.49211 0.0
C576 C 0.0574 0.46338 0.48787 0.0
C577 C 0.11947 0.47327 0.53662 0.0
C578 C 0.06981 0.46208 0.45854 0.0
C579 C 0.07641 0.44243 0.44537 0.0
C580 C 0.07075 0.42364 0.46126 0.0
C581 C 0.05576 0.42498 0.49018 0.0
C582 C 0.04904 0.44468 0.50333 0.0
H583 H 0.14617 0.48084 0.54961 0.0
H584 H 0.10216 0.46178 0.55083 0.0
H585 H 0.13489 0.46438 0.51842 0.0
H586 H 0.07613 0.47629 0.44613 0.0
H587 H 0.08703 0.44197 0.42289 0.0
H588 H 0.66923 0.60018 0.99696 0.0
H589 H 0.68767 0.56622 1.01879 0.0
H590 H 0.59377 0.53543 0.96205 0.0
H591 H 0.57927 0.56856 0.93788 0.0
H592 H 0.64376 0.54217 0.04972 0.0
H593 H 0.68701 0.49363 0.95515 0.0
H594 H 0.68068 0.52185 0.95217 0.0
H595 H 0.63341 0.50452 0.94839 0.0
C596 C 0.65361 0.58611 0.98836 0.0
C597 C 0.62238 0.5874 0.96563 0.0
C598 C 0.66387 0.56664 1.00116 0.0
C599 C 0.64273 0.54802 0.99187 0.0
C600 C 0.61182 0.54928 0.96912 0.0
H601 H 0.56587 0.4457 0.0995 0.0
H602 H 0.58191 0.47927 0.07701 0.0
C603 C 0.60259 0.56855 0.95575 0.0
C604 C 0.6497 0.52762 1.00743 0.0
H605 H 0.6546 0.4744 0.99613 0.0
C606 C 0.64715 0.5274 0.03795 0.0
C607 C 0.6557 0.50822 0.99251 0.0
C608 C 0.66492 0.50716 0.96029 0.0
C609 C 0.64742 0.50839 0.05365 0.0
C610 C 0.64756 0.48892 0.03838 0.0
C611 C 0.65321 0.48918 1.00804 0.0
C612 C 0.63912 0.46827 0.053 0.0
C613 C 0.64775 0.50957 0.08644 0.0
C614 C 0.66448 0.45032 0.04618 0.0
C615 C 0.65361 0.43054 0.05774 0.0
C616 C 0.61752 0.42823 0.07688 0.0
C617 C 0.59318 0.44643 0.08435 0.0
C618 C 0.60316 0.466 0.07204 0.0
H619 H 0.66649 0.52366 0.09401 0.0
H620 H 0.6133 0.5113 0.09444 0.0
H621 H 0.6628 0.4953 0.09636 0.0
H622 H 0.69227 0.4515 0.03141 0.0
H623 H 0.6729 0.41702 0.05091 0.0
H624 H 0.51005 0.08888 0.57828 0.0
H625 H 0.49611 0.05376 0.55722 0.0
H626 H 0.63432 0.04825 0.53524 0.0
H627 H 0.64839 0.0831 0.55592 0.0
H628 H 0.51295 0.03701 0.50021 0.0
H629 H 0.60972 0.99544 0.58498 0.0
H630 H 0.59135 0.02242 0.58912 0.0
H631 H 0.64 0.0165 0.5681 0.0
C632 C 0.53732 0.08023 0.56871 0.0
C633 C 0.58046 0.08862 0.5692 0.0
C634 C 0.52935 0.06017 0.55679 0.0
C635 C 0.56439 0.04823 0.54527 0.0
C636 C 0.60702 0.05696 0.5447 0.0
H637 H 0.59177 0.94491 0.42841 0.0
H638 H 0.57873 0.97896 0.45173 0.0
C639 C 0.615 0.07688 0.55657 0.0
C640 C 0.55717 0.02653 0.53399 0.0
H641 H 0.59452 0.97596 0.54145 0.0
C642 C 0.53023 0.02357 0.50943 0.0
C643 C 0.57906 0.00895 0.54637 0.0
C644 C 0.6063 0.0109 0.57378 0.0
C645 C 0.52659 1.00367 0.49598 0.0
C646 C 0.55108 0.98642 0.50717 0.0
C647 C 0.57605 0.98919 0.53266 0.0
C648 C 0.55389 0.96574 0.49192 0.0
C649 C 0.49686 1.00138 0.46979 0.0
C650 C 0.54462 0.94687 0.50675 0.0
C651 C 0.55278 0.9273 0.49361 0.0
C652 C 0.57072 0.92621 0.46542 0.0
C653 C 0.57847 0.94515 0.45027 0.0
C654 C 0.57039 0.96468 0.46343 0.0
H655 H 0.46986 0.0133 0.47009 0.0
H656 H 0.51658 1.00398 0.44977 0.0
H657 H 0.48192 0.98537 0.46868 0.0
H658 H 0.53221 0.9473 0.52884 0.0
H659 H 0.54686 0.91306 0.50602 0.0
H660 H 0.10174 0.94414 0.11679 0.0
H661 H 0.11277 0.97831 0.09331 0.0
H662 H 0.16216 0.94698 1.01661 0.0
H663 H 0.14936 0.91265 0.03943 0.0
H664 H 0.18452 0.99926 0.06859 0.0
H665 H 0.05618 0.98001 0.98587 0.0
H666 H 0.06476 0.96409 1.01786 0.0
H667 H 0.1018 0.96187 0.98744 0.0
C668 C 0.11492 0.94447 0.09491 0.0
C669 C 0.12385 0.92559 0.07981 0.0
C670 C 0.12162 0.96405 0.08162 0.0
C671 C 0.13747 0.96518 0.05301 0.0
C672 C 0.1491 0.94645 0.03852 0.0
H673 H 0.18486 0.08693 0.96428 0.0
H674 H 0.19795 0.05245 0.98727 0.0
C675 C 0.14219 0.92683 0.05174 0.0
C676 C 0.13862 0.98584 0.03784 0.0
H677 H 0.09037 0.01322 0.9823 0.0
C678 C 0.16427 1.00231 0.04957 0.0
C679 C 0.1117 0.98982 1.01322 0.0
C680 C 0.08173 0.97311 1.00044 0.0
C681 C 0.16317 0.02274 0.0376 0.0
C682 C 0.13612 0.02668 1.01308 0.0
C683 C 0.11126 0.0101 1.00101 0.0
C684 C 0.12997 0.04816 1.00088 0.0
C685 C 0.18947 0.04013 0.05195 0.0
C686 C 0.08755 0.05715 1.00092 0.0
C687 C 0.08003 0.07663 0.98776 0.0
C688 C 0.11474 0.08759 0.97413 0.0
C689 C 0.15757 0.0789 0.97478 0.0
C690 C 0.16508 0.05924 0.98793 0.0
H691 H 0.20182 0.03543 0.07377 0.0
H692 H 0.21844 0.04406 0.03817 0.0
H693 H 0.16907 0.05462 0.05427 0.0
H694 H 0.06003 0.04892 1.0109 0.0
H695 H 0.04681 0.08308 0.98803 0.0
H696 H 0.25573 0.32159 0.53181 0.0
H697 H 0.31543 0.30011 0.55247 0.0
H698 H 0.33768 0.27159 0.46857 0.0
H699 H 0.27827 0.29318 0.44768 0.0
H700 H 0.32819 0.2534 0.55141 0.0
H701 H 0.45913 0.29886 0.49414 0.0
H702 H 0.40376 0.30896 0.49927 0.0
H703 H 0.41433 0.28939 0.47185 0.0
C704 C 0.27327 0.3107 0.51778 0.0
C705 C 0.26245 0.30919 0.48806 0.0
C706 C 0.30719 0.29837 0.52965 0.0
C707 C 0.33126 0.28446 0.51198 0.0
C708 C 0.31971 0.28239 0.48252 0.0
H709 H 0.55952 0.20527 0.526 0.0
H710 H 0.49654 0.22691 0.51218 0.0
C711 C 0.28553 0.2946 0.47066 0.0
C712 C 0.36948 0.27265 0.52411 0.0
H713 H 0.48191 0.26843 0.51977 0.0
C714 C 0.36188 0.2567 0.54467 0.0
C715 C 0.41332 0.27714 0.51537 0.0
C716 C 0.42344 0.29462 0.49412 0.0
C717 C 0.39692 0.24453 0.55591 0.0
C718 C 0.44082 0.24882 0.54684 0.0
C719 C 0.44833 0.26513 0.52675 0.0
C720 C 0.47918 0.23572 0.55619 0.0
C721 C 0.38643 0.22668 0.57649 0.0
C722 C 0.49099 0.23359 0.58565 0.0
C723 C 0.52721 0.22099 0.59377 0.0
C724 C 0.55246 0.21049 0.5725 0.0
C725 C 0.54093 0.21306 0.54305 0.0
C726 C 0.5048 0.22548 0.53504 0.0
H727 H 0.35081 0.22233 0.57582 0.0
H728 H 0.40639 0.21245 0.57124 0.0
H729 H 0.39455 0.23162 0.59903 0.0
H730 H 0.47235 0.24172 0.60236 0.0
H731 H 0.5353 0.21945 0.61661 0.0
H732 H 0.38982 0.67808 1.00407 0.0
H733 H 0.33061 0.70038 0.02278 0.0
H734 H 0.38787 0.75439 0.97998 0.0
H735 H 0.44835 0.73209 0.96158 0.0
H736 H 0.36247 0.76145 0.0396 0.0
H737 H 0.22736 0.72485 0.9751 0.0
H738 H 0.26043 0.70623 0.99497 0.0
H739 H 0.28509 0.72138 0.9662 0.0
C740 C 0.39011 0.69472 0.9987 0.0
C741 C 0.42402 0.70331 0.9814 0.0
C742 C 0.35593 0.70741 1.00922 0.0
C743 C 0.35459 0.72899 1.00258 0.0
C744 C 0.38824 0.73772 0.98528 0.0
H745 H 0.13003 0.81102 0.02518 0.0
H746 H 0.1913 0.7896 1.00789 0.0
C747 C 0.42255 0.72496 0.9746 0.0
C748 C 0.31813 0.7423 1.01409 0.0
H749 H 0.2057 0.7477 1.01353 0.0
C750 C 0.32818 0.75856 0.03383 0.0
C751 C 0.27348 0.73853 1.0064 0.0
C752 C 0.26082 0.72193 0.98431 0.0
C753 C 0.29464 0.771 0.04636 0.0
C754 C 0.24985 0.76683 0.03927 0.0
C755 C 0.23997 0.75071 1.01927 0.0
C756 C 0.21278 0.77986 0.0507 0.0
C757 C 0.30749 0.78877 0.06658 0.0
C758 C 0.20393 0.78137 0.08067 0.0
C759 C 0.16865 0.79379 0.0908 0.0
C760 C 0.14152 0.80478 0.07106 0.0
C761 C 0.15018 0.80286 0.0411 0.0
C762 C 0.1853 0.79058 0.03109 0.0
H763 H 0.34303 0.79299 0.06441 0.0
H764 H 0.28722 0.80307 0.0623 0.0
H765 H 0.30161 0.78381 0.08938 0.0
H766 H 0.22415 0.77288 0.0962 0.0
H767 H 0.16284 0.7949 0.11399 0.0
H768 H 0.30472 0.6771 0.53046 0.0
H769 H 0.36388 0.69948 0.5122 0.0
H770 H 0.3091 0.75277 0.5582 0.0
H771 H 0.24834 0.73045 0.57596 0.0
H772 H 0.33384 0.7619 0.50019 0.0
H773 H 0.46919 0.72114 0.55917 0.0
H774 H 0.43549 0.70364 0.53782 0.0
H775 H 0.41159 0.71744 0.5682 0.0
C776 C 0.30482 0.6936 0.5366 0.0
C777 C 0.27147 0.70196 0.55464 0.0
C778 C 0.33908 0.70634 0.52635 0.0
C779 C 0.34127 0.72773 0.5341 0.0
C780 C 0.30814 0.73625 0.55206 0.0
H781 H 0.56842 0.80863 0.51553 0.0
H782 H 0.50717 0.78672 0.53166 0.0
C783 C 0.27364 0.72345 0.56238 0.0
C784 C 0.37806 0.74108 0.52308 0.0
H785 H 0.49075 0.74521 0.52217 0.0
C786 C 0.36816 0.75835 0.50507 0.0
C787 C 0.4228 0.73647 0.52962 0.0
C788 C 0.43551 0.71879 0.54998 0.0
C789 C 0.40188 0.77099 0.49316 0.0
C790 C 0.44669 0.766 0.49906 0.0
C791 C 0.45645 0.74885 0.51731 0.0
C792 C 0.48397 0.7792 0.48835 0.0
C793 C 0.38924 0.78985 0.47494 0.0
C794 C 0.49191 0.78208 0.45846 0.0
C795 C 0.5272 0.79477 0.44902 0.0
C796 C 0.55519 0.80469 0.46936 0.0
C797 C 0.54752 0.80135 0.49919 0.0
C798 C 0.51244 0.78877 0.50852 0.0
H799 H 0.35397 0.79429 0.478 0.0
H800 H 0.41028 0.8037 0.48035 0.0
H801 H 0.39424 0.78599 0.45162 0.0
H802 H 0.47091 0.77449 0.44246 0.0
H803 H 0.53224 0.79698 0.42591 0.0
H804 H 0.16579 0.21342 0.92381 0.0
H805 H 0.22794 0.23545 0.94021 0.0
H806 H 0.18374 0.22929 0.02893 0.0
H807 H 0.12161 0.20778 1.01286 0.0
H808 H 0.20562 0.26978 1.01571 0.0
H809 H 0.33965 0.21502 0.98182 0.0
H810 H 0.30237 0.22259 0.9532 0.0
H811 H 0.28227 0.20714 0.98316 0.0
C812 C 0.16924 0.21684 0.94677 0.0
C813 C 0.13876 0.20871 0.96699 0.0
C814 C 0.205 0.22928 0.95615 0.0
C815 C 0.21097 0.23372 0.98589 0.0
C816 C 0.18002 0.226 1.00592 0.0
H817 H 0.4448 0.2819 0.07624 0.0
H818 H 0.3833 0.26013 0.05833 0.0
C819 C 0.14443 0.21365 0.99663 0.0
C820 C 0.24886 0.24663 0.99648 0.0
H821 H 0.36182 0.24823 1.0008 0.0
C822 C 0.23977 0.26507 1.0124 0.0
C823 C 0.29341 0.24029 0.99262 0.0
C824 C 0.3052 0.22009 0.97701 0.0
C825 C 0.27389 0.27743 0.02433 0.0
C826 C 0.31847 0.27143 0.01977 0.0
C827 C 0.32764 0.25287 1.00412 0.0
C828 C 0.35593 0.28447 0.03065 0.0
C829 C 0.26181 0.29659 0.04219 0.0
C830 C 0.36117 0.30528 0.0209 0.0
C831 C 0.39592 0.31776 0.03123 0.0
C832 C 0.42669 0.30969 0.0514 0.0
C833 C 0.42155 0.28873 0.06101 0.0
C834 C 0.3866 0.27621 0.05062 0.0
H835 H 0.22728 0.29566 0.05038 0.0
H836 H 0.28449 0.29847 0.06105 0.0
H837 H 0.26452 0.31092 0.02843 0.0
H838 H 0.33834 0.3119 1.00518 0.0
H839 H 0.39827 0.33386 0.02355 0.0
H840 H 0.03376 0.71713 0.61708 0.0
H841 H 0.96909 0.73878 0.60403 0.0
H842 H 0.99021 0.72453 0.51343 0.0
H843 H 0.05437 0.70316 0.526 0.0
H844 H 0.96689 0.7749 0.56133 0.0
H845 H 0.85793 0.70772 0.53092 0.0
H846 H 0.90556 0.7047 0.55437 0.0
H847 H 0.91273 0.70702 0.51574 0.0
C848 C 0.02466 0.71865 0.59439 0.0
C849 C 0.04924 0.7083 0.57263 0.0
C850 C 0.98772 0.731 0.58699 0.0
C851 C 0.97454 0.73296 0.5578 0.0
C852 C 0.99941 0.72295 0.53611 0.0
H853 H 0.77581 0.79351 0.45208 0.0
H854 H 0.83361 0.771 0.47303 0.0
C855 C 0.0363 0.7108 0.5434 0.0
C856 C 0.93529 0.7457 0.5495 0.0
H857 H 0.83386 0.74197 0.51694 0.0
C858 C 0.9375 0.76775 0.55199 0.0
C859 C 0.89726 0.73628 0.53705 0.0
C860 C 0.89284 0.71262 0.5345 0.0
C861 C 0.90331 0.78071 0.54137 0.0
C862 C 0.86536 0.7713 0.52859 0.0
C863 C 0.86287 0.74919 0.52668 0.0
C864 C 0.82848 0.78414 0.51639 0.0
C865 C 0.90912 0.80437 0.54281 0.0
C866 C 0.8054 0.79857 0.53393 0.0
C867 C 0.77254 0.81148 0.52197 0.0
C868 C 0.76153 0.81003 0.49229 0.0
C869 C 0.78328 0.79491 0.47503 0.0
C870 C 0.81647 0.78211 0.48697 0.0
H871 H 0.94438 0.80888 0.5458 0.0
H872 H 0.89648 0.81206 0.52276 0.0
H873 H 0.89025 0.81065 0.56162 0.0
H874 H 0.81307 0.8 0.55686 0.0
H875 H 0.75581 0.82269 0.53593 0.0
H876 H 0.64724 0.31701 0.02539 0.0
H877 H 0.706 0.29349 1.00954 0.0
H878 H 0.72374 0.27172 0.09757 0.0
H879 H 0.66445 0.29562 0.11397 0.0
H880 H 0.805 0.28204 0.06609 0.0
H881 H 0.69485 0.22854 1.00352 0.0
H882 H 0.68766 0.25601 0.99503 0.0
H883 H 0.67431 0.24657 0.03082 0.0
C884 C 0.6634 0.30725 0.04155 0.0
C885 C 0.65085 0.30815 0.07101 0.0
C886 C 0.69698 0.29372 0.03234 0.0
C887 C 0.71884 0.28066 0.05227 0.0
C888 C 0.70704 0.28162 0.08181 0.0
H889 H 0.88476 0.17563 1.00108 0.0
H890 H 0.82891 0.19879 0.02193 0.0
C891 C 0.6731 0.2952 0.09112 0.0
C892 C 0.75396 0.26615 0.04178 0.0
H893 H 0.77212 0.22539 0.99458 0.0
C894 C 0.79787 0.26952 0.05065 0.0
C895 C 0.7445 0.24977 0.02174 0.0
C896 C 0.69773 0.24483 1.01238 0.0
C897 C 0.83276 0.25723 0.03947 0.0
C898 C 0.82344 0.24136 1.01859 0.0
C899 C 0.77935 0.23772 1.01027 0.0
C900 C 0.85849 0.22764 1.00601 0.0
C901 C 0.87915 0.26114 0.05037 0.0
C902 C 0.89357 0.2361 0.98965 0.0
C903 C 0.92604 0.2228 0.97777 0.0
C904 C 0.92391 0.20081 0.982 0.0
C905 C 0.88812 0.19248 0.99788 0.0
C906 C 0.85589 0.20571 1.0097 0.0
H907 H 0.87926 0.27008 0.07118 0.0
H908 H 0.8971 0.24602 0.05363 0.0
H909 H 0.89754 0.27055 0.03402 0.0
H910 H 0.89574 0.25295 0.98597 0.0
H911 H 0.95311 0.22974 0.96572 0.0
H912 H 0.0321 0.295 0.41837 0.0
H913 H 0.96677 0.27428 0.43276 0.0
H914 H 0.99908 0.2842 0.52307 0.0
H915 H 0.06397 0.30459 0.50917 0.0
H916 H 0.9642 0.23657 0.47328 0.0
H917 H 0.86781 0.30573 0.51225 0.0
H918 H 0.91324 0.30814 0.48693 0.0
H919 H 0.92404 0.30428 0.52496 0.0
C920 C 0.02543 0.29263 0.44127 0.0
C921 C 0.05321 0.30158 0.46259 0.0
C922 C 0.98808 0.28085 0.44944 0.0
C923 C 0.97779 0.27804 0.47898 0.0
C924 C 1.00604 0.28649 0.50017 0.0
H925 H 0.78082 0.21945 0.58828 0.0
H926 H 0.83963 0.24115 0.56685 0.0
C927 C 0.04329 0.29809 0.49211 0.0
C928 C 0.9378 0.2662 0.48812 0.0
H929 H 0.84031 0.27183 0.52491 0.0
C930 C 0.93678 0.24425 0.48423 0.0
C931 C 0.90241 0.2763 0.50266 0.0
C932 C 0.90152 0.29994 0.50682 0.0
C933 C 0.90193 0.23198 0.4954 0.0
C934 C 0.86659 0.24206 0.51022 0.0
C935 C 0.86734 0.2641 0.51361 0.0
C936 C 0.82906 0.22994 0.52286 0.0
C937 C 0.9043 0.20827 0.49228 0.0
C938 C 0.80261 0.21697 0.50519 0.0
C939 C 0.76925 0.20454 0.51741 0.0
C940 C 0.76113 0.20504 0.54752 0.0
C941 C 0.78615 0.21882 0.56502 0.0
C942 C 0.81987 0.23114 0.55279 0.0
H943 H 0.93856 0.20283 0.48773 0.0
H944 H 0.89232 0.20027 0.51225 0.0
H945 H 0.88305 0.20325 0.47382 0.0
H946 H 0.8081 0.21627 0.48194 0.0
H947 H 0.74994 0.19439 0.50331 0.0
H948 H 0.66341 0.71835 0.92173 0.0
H949 H 0.72478 0.74132 0.93713 0.0
H950 H 0.70071 0.72456 0.02659 0.0
H951 H 0.63951 0.70212 1.01166 0.0
H952 H 0.71163 0.76681 0.01983 0.0
H953 H 0.84763 0.72304 0.96523 0.0
H954 H 0.8034 0.73136 0.94171 0.0
H955 H 0.79283 0.71212 0.96954 0.0
C956 C 0.67119 0.71962 0.94466 0.0
C957 C 0.64654 0.70831 0.96541 0.0
C958 C 0.7065 0.73261 0.95342 0.0
C959 C 0.71781 0.73442 0.98302 0.0
C960 C 0.69279 0.72337 1.00365 0.0
H961 H 0.95552 0.78292 0.06739 0.0
H962 H 0.8963 0.76075 0.04742 0.0
C963 C 0.6577 0.7105 0.995 0.0
C964 C 0.75492 0.74807 0.99305 0.0
H965 H 0.86718 0.75462 0.98978 0.0
C966 C 0.74562 0.76418 1.01316 0.0
C967 C 0.79938 0.74441 0.98475 0.0
C968 C 0.81168 0.72669 0.96432 0.0
C969 C 0.77937 0.77671 0.02517 0.0
C970 C 0.82372 0.77339 1.01638 0.0
C971 C 0.83316 0.75723 0.99636 0.0
C972 C 0.86054 0.78666 0.02772 0.0
C973 C 0.76728 0.79305 0.04775 0.0
C974 C 0.86049 0.80852 0.02296 0.0
C975 C 0.8939 0.82124 0.03459 0.0
C976 C 0.92867 0.81241 0.05104 0.0
C977 C 0.92914 0.79037 0.05524 0.0
C978 C 0.89546 0.77763 0.04362 0.0
H979 H 0.73464 0.78966 0.05783 0.0
H980 H 0.79265 0.79386 0.06521 0.0
H981 H 0.76521 0.80879 0.03724 0.0
H982 H 0.83432 0.81581 1.01038 0.0
H983 H 0.89181 0.83808 0.03104 0.0
loop_
_geom_bond_atom_site_label_1
_geom_bond_atom_site_label_2
_geom_bond_distance
_geom_bond_site_symmetry_2
_ccdc_geom_bond_type
C0 C1 1.351 . S
C0 N3 1.368 . S
C0 H5 0.931 . S
C1 C0 1.351 . S
C1 N2 1.373 . S
C1 H29 0.930 . S
N2 C1 1.373 . S
N2 C4 1.340 . S
N3 C0 1.368 . S
N3 C4 1.321 . S
N3 Co6 2.135 . S
C4 N2 1.340 . S
C4 N3 1.321 . S
C4 H28 0.930 . S
H5 C0 0.931 . S
Co6 N3 2.135 . S
Co6 N9 2.121 . S
Co6 O14 2.055 . S
Co6 O17 2.039 . S
Co6 N20 2.140 . S
C7 O8 1.227 . S
C7 O17 1.265 . S
O8 C7 1.227 . S
N9 Co6 2.121 . S
N9 C11 1.375 . S
N9 C12 1.313 . S
C10 C11 1.338 . S
C10 N13 1.377 . S
C10 H30 0.930 . S
C11 N9 1.375 . S
C11 C10 1.338 . S
C11 H15 0.931 . S
C12 N9 1.313 . S
C12 N13 1.344 . S
C12 H16 0.930 . S
N13 C10 1.377 . S
N13 C12 1.344 . S
O14 Co6 2.055 . S
O14 C18 1.253 . S
H15 C11 0.931 . S
H16 C12 0.930 . S
O17 Co6 2.039 . S
O17 C7 1.265 . S
C18 O14 1.253 . S
C18 O19 1.227 . S
O19 C18 1.227 . S
N20 Co6 2.140 . S
N20 C23 1.346 . S
N20 C24 1.345 . S
C21 C22 1.387 . S
C21 C25 1.391 . S
C22 C21 1.387 . S
C22 C23 1.369 . S
C22 H31 0.929 . S
C23 N20 1.346 . S
C23 C22 1.369 . S
C23 H26 0.928 . S
C24 N20 1.345 . S
C24 C25 1.371 . S
C24 H27 0.931 . S
C25 C21 1.391 . S
C25 C24 1.371 . S
C25 H32 0.930 . S
H26 C23 0.928 . S
H27 C24 0.931 . S
H28 C4 0.930 . S
H29 C1 0.930 . S
H30 C10 0.930 . S
H31 C22 0.929 . S
H32 C25 0.930 . S
C33 C34 1.351 . S
C33 N36 1.368 . S
C33 H38 0.931 . S
C34 C33 1.351 . S
C34 N35 1.373 . S
C34 H62 0.930 . S
N35 C34 1.373 . S
N35 C37 1.340 . S
N36 C33 1.368 . S
N36 C37 1.321 . S
N36 Co39 2.135 . S
C37 N35 1.340 . S
C37 N36 1.321 . S
C37 H61 0.930 . S
H38 C33 0.931 . S
Co39 N36 2.135 . S
Co39 N42 2.121 . S
Co39 O47 2.055 . S
Co39 O50 2.039 . S
Co39 N53 2.140 . S
C40 O41 1.227 . S
C40 O50 1.265 . S
O41 C40 1.227 . S
N42 Co39 2.121 . S
N42 C44 1.375 . S
N42 C45 1.313 . S
C43 C44 1.338 . S
C43 N46 1.377 . S
C43 H63 0.930 . S
C44 N42 1.375 . S
C44 C43 1.338 . S
C44 H48 0.931 . S
C45 N42 1.313 . S
C45 N46 1.344 . S
C45 H49 0.930 . S
N46 C43 1.377 . S
N46 C45 1.344 . S
O47 Co39 2.055 . S
O47 C51 1.253 . S
H48 C44 0.931 . S
H49 C45 0.930 . S
O50 Co39 2.039 . S
O50 C40 1.265 . S
C51 O47 1.253 . S
C51 O52 1.227 . S
O52 C51 1.227 . S
N53 Co39 2.140 . S
N53 C56 1.346 . S
N53 C57 1.345 . S
C54 C55 1.387 . S
C54 C58 1.391 . S
C55 C54 1.387 . S
C55 C56 1.369 . S
C55 H64 0.929 . S
C56 N53 1.346 . S
C56 C55 1.369 . S
C56 H59 0.928 . S
C57 N53 1.345 . S
C57 C58 1.371 . S
C57 H60 0.931 . S
C58 C54 1.391 . S
C58 C57 1.371 . S
C58 H65 0.930 . S
H59 C56 0.928 . S
H60 C57 0.931 . S
H61 C37 0.930 . S
H62 C34 0.930 . S
H63 C43 0.930 . S
H64 C55 0.929 . S
H65 C58 0.930 . S
C66 C67 1.351 . S
C66 N69 1.368 . S
C66 H71 0.931 . S
C67 C66 1.351 . S
C67 N68 1.373 . S
C67 H95 0.930 . S
N68 C67 1.373 . S
N68 C70 1.340 . S
N69 C66 1.368 . S
N69 C70 1.321 . S
N69 Co72 2.135 . S
C70 N68 1.340 . S
C70 N69 1.321 . S
C70 H94 0.930 . S
H71 C66 0.931 . S
Co72 N69 2.135 . S
Co72 N75 2.121 . S
Co72 O80 2.055 . S
Co72 O83 2.039 . S
Co72 N86 2.140 . S
C73 O74 1.227 . S
C73 O83 1.265 . S
O74 C73 1.227 . S
N75 Co72 2.121 . S
N75 C77 1.375 . S
N75 C78 1.313 . S
C76 C77 1.338 . S
C76 N79 1.377 . S
C76 H96 0.930 . S
C77 N75 1.375 . S
C77 C76 1.338 . S
C77 H81 0.931 . S
C78 N75 1.313 . S
C78 N79 1.344 . S
C78 H82 0.930 . S
N79 C76 1.377 . S
N79 C78 1.344 . S
O80 Co72 2.055 . S
O80 C84 1.253 . S
H81 C77 0.931 . S
H82 C78 0.930 . S
O83 Co72 2.039 . S
O83 C73 1.265 . S
C84 O80 1.253 . S
C84 O85 1.227 . S
O85 C84 1.227 . S
N86 Co72 2.140 . S
N86 C89 1.346 . S
N86 C90 1.345 . S
C87 C88 1.387 . S
C87 C91 1.391 . S
C88 C87 1.387 . S
C88 C89 1.369 . S
C88 H97 0.929 . S
C89 N86 1.346 . S
C89 C88 1.369 . S
C89 H92 0.928 . S
C90 N86 1.345 . S
C90 C91 1.371 . S
C90 H93 0.931 . S
C91 C87 1.391 . S
C91 C90 1.371 . S
C91 H98 0.930 . S
H92 C89 0.928 . S
H93 C90 0.931 . S
H94 C70 0.930 . S
H95 C67 0.930 . S
H96 C76 0.930 . S
H97 C88 0.929 . S
H98 C91 0.930 . S
C99 C100 1.351 . S
C99 N102 1.368 . S
C99 H104 0.931 . S
C100 C99 1.351 . S
C100 N101 1.373 . S
C100 H128 0.930 . S
N101 C100 1.373 . S
N101 C103 1.340 . S
N102 C99 1.368 . S
N102 C103 1.321 . S
N102 Co105 2.135 . S
C103 N101 1.340 . S
C103 N102 1.321 . S
C103 H127 0.930 . S
H104 C99 0.931 . S
Co105 N102 2.135 . S
Co105 N108 2.121 . S
Co105 O113 2.055 . S
Co105 O116 2.039 . S
Co105 N119 2.140 . S
C106 O107 1.227 . S
C106 O116 1.265 . S
O107 C106 1.227 . S
N108 Co105 2.121 . S
N108 C110 1.375 . S
N108 C111 1.313 . S
C109 C110 1.338 . S
C109 N112 1.377 . S
C109 H129 0.930 . S
C110 N108 1.375 . S
C110 C109 1.338 . S
C110 H114 0.931 . S
C111 N108 1.313 . S
C111 N112 1.344 . S
C111 H115 0.930 . S
N112 C109 1.377 . S
N112 C111 1.344 . S
O113 Co105 2.055 . S
O113 C117 1.253 . S
H114 C110 0.931 . S
H115 C111 0.930 . S
O116 Co105 2.039 . S
O116 C106 1.265 . S
C117 O113 1.253 . S
C117 O118 1.227 . S
O118 C117 1.227 . S
N119 Co105 2.140 . S
N119 C122 1.346 . S
N119 C123 1.345 . S
C120 C121 1.387 . S
C120 C124 1.391 . S
C121 C120 1.387 . S
C121 C122 1.369 . S
C121 H130 0.929 . S
C122 N119 1.346 . S
C122 C121 1.369 . S
C122 H125 0.928 . S
C123 N119 1.345 . S
C123 C124 1.371 . S
C123 H126 0.931 . S
C124 C120 1.391 . S
C124 C123 1.371 . S
C124 H131 0.930 . S
H125 C122 0.928 . S
H126 C123 0.931 . S
H127 C103 0.930 . S
H128 C100 0.930 . S
H129 C109 0.930 . S
H130 C121 0.929 . S
H131 C124 0.930 . S
C132 C133 1.351 . S
C132 N135 1.368 . S
C132 H137 0.931 . S
C133 C132 1.351 . S
C133 N134 1.373 . S
C133 H161 0.930 . S
N134 C133 1.373 . S
N134 C136 1.340 . S
N135 C132 1.368 . S
N135 C136 1.321 . S
N135 Co138 2.135 . S
C136 N134 1.340 . S
C136 N135 1.321 . S
C136 H160 0.930 . S
H137 C132 0.931 . S
Co138 N135 2.135 . S
Co138 N141 2.121 . S
Co138 O146 2.055 . S
Co138 O149 2.039 . S
Co138 N152 2.140 . S
C139 O140 1.227 . S
C139 O149 1.265 . S
O140 C139 1.227 . S
N141 Co138 2.121 . S
N141 C143 1.375 . S
N141 C144 1.313 . S
C142 C143 1.338 . S
C142 N145 1.377 . S
C142 H162 0.930 . S
C143 N141 1.375 . S
C143 C142 1.338 . S
C143 H147 0.931 . S
C144 N141 1.313 . S
C144 N145 1.344 . S
C144 H148 0.930 . S
N145 C142 1.377 . S
N145 C144 1.344 . S
O146 Co138 2.055 . S
O146 C150 1.253 . S
H147 C143 0.931 . S
H148 C144 0.930 . S
O149 Co138 2.039 . S
O149 C139 1.265 . S
C150 O146 1.253 . S
C150 O151 1.227 . S
O151 C150 1.227 . S
N152 Co138 2.140 . S
N152 C155 1.346 . S
N152 C156 1.345 . S
C153 C154 1.387 . S
C153 C157 1.391 . S
C154 C153 1.387 . S
C154 C155 1.369 . S
C154 H163 0.929 . S
C155 N152 1.346 . S
C155 C154 1.369 . S
C155 H158 0.928 . S
C156 N152 1.345 . S
C156 C157 1.371 . S
C156 H159 0.931 . S
C157 C153 1.391 . S
C157 C156 1.371 . S
C157 H164 0.930 . S
H158 C155 0.928 . S
H159 C156 0.931 . S
H160 C136 0.930 . S
H161 C133 0.930 . S
H162 C142 0.930 . S
H163 C154 0.929 . S
H164 C157 0.930 . S
C165 C166 1.351 . S
C165 N168 1.368 . S
C165 H170 0.931 . S
C166 C165 1.351 . S
C166 N167 1.373 . S
C166 H194 0.930 . S
N167 C166 1.373 . S
N167 C169 1.340 . S
N168 C165 1.368 . S
N168 C169 1.321 . S
N168 Co171 2.135 . S
C169 N167 1.340 . S
C169 N168 1.321 . S
C169 H193 0.930 . S
H170 C165 0.931 . S
Co171 N168 2.135 . S
Co171 N174 2.121 . S
Co171 O179 2.055 . S
Co171 O182 2.039 . S
Co171 N185 2.140 . S
C172 O173 1.227 . S
C172 O182 1.265 . S
O173 C172 1.227 . S
N174 Co171 2.121 . S
N174 C176 1.375 . S
N174 C177 1.313 1_455 S
C175 C176 1.338 1_655 S
C175 N178 1.377 . S
C175 H195 0.930 . S
C176 N174 1.375 . S
C176 C175 1.338 1_455 S
C176 H180 0.931 . S
C177 N174 1.313 1_655 S
C177 N178 1.344 . S
C177 H181 0.930 . S
N178 C175 1.377 . S
N178 C177 1.344 . S
O179 Co171 2.055 . S
O179 C183 1.253 1_455 S
H180 C176 0.931 . S
H181 C177 0.930 . S
O182 Co171 2.039 . S
O182 C172 1.265 . S
C183 O179 1.253 1_655 S
C183 O184 1.227 . S
O184 C183 1.227 . S
N185 Co171 2.140 . S
N185 C188 1.346 . S
N185 C189 1.345 . S
C186 C187 1.387 . S
C186 C190 1.391 . S
C187 C186 1.387 . S
C187 C188 1.369 . S
C187 H196 0.929 . S
C188 N185 1.346 . S
C188 C187 1.369 . S
C188 H191 0.928 . S
C189 N185 1.345 . S
C189 C190 1.371 . S
C189 H192 0.931 1_455 S
C190 C186 1.391 . S
C190 C189 1.371 . S
C190 H197 0.930 1_455 S
H191 C188 0.928 . S
H192 C189 0.931 1_655 S
H193 C169 0.930 . S
H194 C166 0.930 . S
H195 C175 0.930 . S
H196 C187 0.929 . S
H197 C190 0.930 1_655 S
C198 C199 1.351 . S
C198 N201 1.368 . S
C198 H203 0.931 . S
C199 C198 1.351 . S
C199 N200 1.373 . S
C199 H227 0.930 . S
N200 C199 1.373 . S
N200 C202 1.340 . S
N201 C198 1.368 . S
N201 C202 1.321 . S
N201 Co204 2.135 . S
C202 N200 1.340 . S
C202 N201 1.321 . S
C202 H226 0.930 . S
H203 C198 0.931 . S
Co204 N201 2.135 . S
Co204 N207 2.121 . S
Co204 O212 2.055 . S
Co204 O215 2.039 . S
Co204 N218 2.140 . S
C205 O206 1.227 . S
C205 O215 1.265 . S
O206 C205 1.227 . S
N207 Co204 2.121 . S
N207 C209 1.375 . S
N207 C210 1.313 . S
C208 C209 1.338 . S
C208 N211 1.377 . S
C208 H228 0.930 . S
C209 N207 1.375 . S
C209 C208 1.338 . S
C209 H213 0.931 . S
C210 N207 1.313 . S
C210 N211 1.344 . S
C210 H214 0.930 . S
N211 C208 1.377 . S
N211 C210 1.344 . S
O212 Co204 2.055 . S
O212 C216 1.253 . S
H213 C209 0.931 . S
H214 C210 0.930 . S
O215 Co204 2.039 . S
O215 C205 1.265 . S
C216 O212 1.253 . S
C216 O217 1.227 . S
O217 C216 1.227 . S
N218 Co204 2.140 . S
N218 C221 1.346 . S
N218 C222 1.345 . S
C219 C220 1.387 . S
C219 C223 1.391 . S
C220 C219 1.387 . S
C220 C221 1.369 . S
C220 H229 0.929 . S
C221 N218 1.346 . S
C221 C220 1.369 . S
C221 H224 0.928 . S
C222 N218 1.345 . S
C222 C223 1.371 . S
C222 H225 0.931 . S
C223 C219 1.391 . S
C223 C222 1.371 . S
C223 H230 0.930 . S
H224 C221 0.928 . S
H225 C222 0.931 . S
H226 C202 0.930 . S
H227 C199 0.930 . S
H228 C208 0.930 . S
H229 C220 0.929 . S
H230 C223 0.930 . S
C231 C232 1.351 . S
C231 N234 1.368 . S
C231 H236 0.931 . S
C232 C231 1.351 . S
C232 N233 1.373 . S
C232 H260 0.930 . S
N233 C232 1.373 . S
N233 C235 1.340 . S
N234 C231 1.368 . S
N234 C235 1.321 . S
N234 Co237 2.135 . S
C235 N233 1.340 . S
C235 N234 1.321 . S
C235 H259 0.930 . S
H236 C231 0.931 . S
Co237 N234 2.135 . S
Co237 N240 2.121 . S
Co237 O245 2.055 . S
Co237 O248 2.039 . S
Co237 N251 2.140 . S
C238 O239 1.227 . S
C238 O248 1.265 . S
O239 C238 1.227 . S
N240 Co237 2.121 . S
N240 C242 1.375 . S
N240 C243 1.313 1_455 S
C241 C242 1.338 1_655 S
C241 N244 1.377 . S
C241 H261 0.930 . S
C242 N240 1.375 . S
C242 C241 1.338 1_455 S
C242 H246 0.931 . S
C243 N240 1.313 1_655 S
C243 N244 1.344 . S
C243 H247 0.930 . S
N244 C241 1.377 . S
N244 C243 1.344 . S
O245 Co237 2.055 . S
O245 C249 1.253 1_455 S
H246 C242 0.931 . S
H247 C243 0.930 . S
O248 Co237 2.039 . S
O248 C238 1.265 . S
C249 O245 1.253 1_655 S
C249 O250 1.227 . S
O250 C249 1.227 . S
N251 Co237 2.140 . S
N251 C254 1.346 . S
N251 C255 1.345 . S
C252 C253 1.387 . S
C252 C256 1.391 . S
C253 C252 1.387 . S
C253 C254 1.369 . S
C253 H262 0.929 . S
C254 N251 1.346 . S
C254 C253 1.369 . S
C254 H257 0.928 . S
C255 N251 1.345 . S
C255 C256 1.371 . S
C255 H258 0.931 1_455 S
C256 C252 1.391 . S
C256 C255 1.371 . S
C256 H263 0.930 1_455 S
H257 C254 0.928 . S
H258 C255 0.931 1_655 S
H259 C235 0.930 . S
H260 C232 0.930 . S
H261 C241 0.930 . S
H262 C253 0.929 . S
H263 C256 0.930 1_655 S
H264 C272 0.929 . S
H265 C274 0.930 . S
H266 C276 0.930 . S
H267 C279 0.929 . S
H268 C282 0.930 . S
H269 C284 0.960 . S
H270 C284 0.960 . S
H271 C284 0.960 . S
C272 H264 0.929 . S
C272 C273 1.377 . S
C272 C274 1.384 . S
C273 C272 1.377 . S
C273 C279 1.390 . S
C274 H265 0.930 . S
C274 C272 1.384 . S
C274 C275 1.372 . S
C275 C274 1.372 . S
C275 C276 1.400 . S
C275 C280 1.490 . S
C276 H266 0.930 . S
C276 C275 1.400 . S
C276 C279 1.386 . S
H277 C293 0.930 . S
H278 C294 0.931 . S
C279 H267 0.929 . S
C279 C273 1.390 . S
C279 C276 1.386 . S
C280 C275 1.490 . S
C280 C282 1.395 . S
C280 C283 1.403 . S
H281 C287 0.930 . S
C282 H268 0.930 . S
C282 C280 1.395 . S
C282 C285 1.403 . S
C283 C280 1.403 . S
C283 C284 1.524 . S
C283 C287 1.400 . S
C284 H269 0.960 . S
C284 H270 0.960 . S
C284 H271 0.960 . S
C284 C283 1.524 . S
C285 C282 1.403 . S
C285 C286 1.392 . S
C285 C289 1.495 . S
C286 C285 1.392 . S
C286 C287 1.385 . S
C286 C288 1.478 . S
C287 H281 0.930 . S
C287 C283 1.400 . S
C287 C286 1.385 . S
C288 C286 1.478 . S
C288 C290 1.381 . S
C288 C294 1.383 . S
C289 C285 1.495 . S
C289 H295 0.959 . S
C289 H296 0.961 . S
C289 H297 0.960 . S
C290 C288 1.381 . S
C290 C291 1.394 . S
C290 H298 0.930 . S
C291 C290 1.394 . S
C291 C292 1.383 . S
C291 H299 0.929 . S
C292 C291 1.383 . S
C292 C293 1.377 . S
C293 H277 0.930 . S
C293 C292 1.377 . S
C293 C294 1.379 . S
C294 H278 0.931 . S
C294 C288 1.383 . S
C294 C293 1.379 . S
H295 C289 0.959 . S
H296 C289 0.961 . S
H297 C289 0.960 . S
H298 C290 0.930 . S
H299 C291 0.929 . S
H300 C308 0.929 . S
H301 C310 0.930 . S
H302 C312 0.930 . S
H303 C315 0.929 . S
H304 C318 0.930 . S
H305 C320 0.960 . S
H306 C320 0.960 . S
H307 C320 0.960 . S
C308 H300 0.929 . S
C308 C309 1.377 . S
C308 C310 1.384 . S
C309 C308 1.377 . S
C309 C315 1.390 . S
C310 H301 0.930 . S
C310 C308 1.384 . S
C310 C311 1.372 . S
C311 C310 1.372 . S
C311 C312 1.400 . S
C311 C316 1.490 . S
C312 H302 0.930 . S
C312 C311 1.400 . S
C312 C315 1.386 . S
H313 C329 0.930 . S
H314 C330 0.931 . S
C315 H303 0.929 . S
C315 C309 1.390 . S
C315 C312 1.386 . S
C316 C311 1.490 . S
C316 C318 1.395 . S
C316 C319 1.403 . S
H317 C323 0.930 . S
C318 H304 0.930 . S
C318 C316 1.395 . S
C318 C321 1.403 . S
C319 C316 1.403 . S
C319 C320 1.524 . S
C319 C323 1.400 . S
C320 H305 0.960 . S
C320 H306 0.960 . S
C320 H307 0.960 . S
C320 C319 1.524 . S
C321 C318 1.403 . S
C321 C322 1.392 . S
C321 C325 1.495 . S
C322 C321 1.392 . S
C322 C323 1.385 . S
C322 C324 1.478 . S
C323 H317 0.930 . S
C323 C319 1.400 . S
C323 C322 1.385 . S
C324 C322 1.478 . S
C324 C326 1.381 . S
C324 C330 1.383 . S
C325 C321 1.495 . S
C325 H331 0.959 . S
C325 H332 0.961 . S
C325 H333 0.960 . S
C326 C324 1.381 . S
C326 C327 1.394 . S
C326 H334 0.930 . S
C327 C326 1.394 . S
C327 C328 1.383 . S
C327 H335 0.929 . S
C328 C327 1.383 . S
C328 C329 1.377 . S
C329 H313 0.930 . S
C329 C328 1.377 . S
C329 C330 1.379 . S
C330 H314 0.931 . S
C330 C324 1.383 . S
C330 C329 1.379 . S
H331 C325 0.959 . S
H332 C325 0.961 . S
H333 C325 0.960 . S
H334 C326 0.930 . S
H335 C327 0.929 . S
H336 C344 0.929 . S
H337 C346 0.930 . S
H338 C348 0.930 . S
H339 C351 0.929 . S
H340 C354 0.930 . S
H341 C356 0.960 . S
H342 C356 0.960 . S
H343 C356 0.960 . S
C344 H336 0.929 . S
C344 C345 1.377 . S
C344 C346 1.384 . S
C345 C344 1.377 . S
C345 C351 1.390 . S
C346 H337 0.930 . S
C346 C344 1.384 . S
C346 C347 1.372 . S
C347 C346 1.372 . S
C347 C348 1.400 . S
C347 C352 1.490 . S
C348 H338 0.930 . S
C348 C347 1.400 . S
C348 C351 1.386 . S
H349 C365 0.930 . S
H350 C366 0.931 . S
C351 H339 0.929 . S
C351 C345 1.390 . S
C351 C348 1.386 . S
C352 C347 1.490 . S
C352 C354 1.395 . S
C352 C355 1.403 . S
H353 C359 0.930 . S
C354 H340 0.930 . S
C354 C352 1.395 . S
C354 C357 1.403 . S
C355 C352 1.403 . S
C355 C356 1.524 . S
C355 C359 1.400 . S
C356 H341 0.960 . S
C356 H342 0.960 . S
C356 H343 0.960 . S
C356 C355 1.524 . S
C357 C354 1.403 . S
C357 C358 1.392 . S
C357 C361 1.495 . S
C358 C357 1.392 . S
C358 C359 1.385 . S
C358 C360 1.478 . S
C359 H353 0.930 . S
C359 C355 1.400 . S
C359 C358 1.385 . S
C360 C358 1.478 . S
C360 C362 1.381 . S
C360 C366 1.383 . S
C361 C357 1.495 . S
C361 H367 0.959 . S
C361 H368 0.961 . S
C361 H369 0.960 . S
C362 C360 1.381 . S
C362 C363 1.394 . S
C362 H370 0.930 . S
C363 C362 1.394 . S
C363 C364 1.383 . S
C363 H371 0.929 . S
C364 C363 1.383 . S
C364 C365 1.377 . S
C365 H349 0.930 . S
C365 C364 1.377 . S
C365 C366 1.379 . S
C366 H350 0.931 . S
C366 C360 1.383 . S
C366 C365 1.379 . S
H367 C361 0.959 . S
H368 C361 0.961 . S
H369 C361 0.960 . S
H370 C362 0.930 . S
H371 C363 0.929 . S
H372 C380 0.929 . S
H373 C382 0.930 . S
H374 C384 0.930 . S
H375 C387 0.929 . S
H376 C390 0.930 . S
H377 C392 0.960 . S
H378 C392 0.960 . S
H379 C392 0.960 . S
C380 H372 0.929 . S
C380 C381 1.377 . S
C380 C382 1.384 . S
C381 C380 1.377 . S
C381 C387 1.390 . S
C382 H373 0.930 . S
C382 C380 1.384 . S
C382 C383 1.372 . S
C383 C382 1.372 . S
C383 C384 1.400 . S
C383 C388 1.490 . S
C384 H374 0.930 . S
C384 C383 1.400 . S
C384 C387 1.386 . S
H385 C401 0.930 . S
H386 C402 0.931 . S
C387 H375 0.929 . S
C387 C381 1.390 . S
C387 C384 1.386 . S
C388 C383 1.490 . S
C388 C390 1.395 . S
C388 C391 1.403 . S
H389 C395 0.930 . S
C390 H376 0.930 . S
C390 C388 1.395 . S
C390 C393 1.403 . S
C391 C388 1.403 . S
C391 C392 1.524 . S
C391 C395 1.400 . S
C392 H377 0.960 . S
C392 H378 0.960 . S
C392 H379 0.960 . S
C392 C391 1.524 . S
C393 C390 1.403 . S
C393 C394 1.392 . S
C393 C397 1.495 . S
C394 C393 1.392 . S
C394 C395 1.385 . S
C394 C396 1.478 . S
C395 H389 0.930 . S
C395 C391 1.400 . S
C395 C394 1.385 . S
C396 C394 1.478 . S
C396 C398 1.381 . S
C396 C402 1.383 . S
C397 C393 1.495 . S
C397 H403 0.959 . S
C397 H404 0.961 . S
C397 H405 0.960 . S
C398 C396 1.381 . S
C398 C399 1.394 . S
C398 H406 0.930 . S
C399 C398 1.394 . S
C399 C400 1.383 . S
C399 H407 0.929 . S
C400 C399 1.383 . S
C400 C401 1.377 . S
C401 H385 0.930 . S
C401 C400 1.377 . S
C401 C402 1.379 . S
C402 H386 0.931 . S
C402 C396 1.383 . S
C402 C401 1.379 . S
H403 C397 0.959 . S
H404 C397 0.961 . S
H405 C397 0.960 . S
H406 C398 0.930 . S
H407 C399 0.929 . S
H408 C416 0.929 . S
H409 C418 0.930 . S
H410 C420 0.930 . S
H411 C423 0.929 . S
H412 C426 0.930 . S
H413 C428 0.960 . S
H414 C428 0.960 . S
H415 C428 0.960 . S
C416 H408 0.929 . S
C416 C417 1.377 . S
C416 C418 1.384 . S
C417 C416 1.377 . S
C417 C423 1.390 . S
C418 H409 0.930 . S
C418 C416 1.384 . S
C418 C419 1.372 . S
C419 C418 1.372 . S
C419 C420 1.400 . S
C419 C424 1.490 . S
C420 H410 0.930 . S
C420 C419 1.400 . S
C420 C423 1.386 . S
H421 C437 0.930 . S
H422 C438 0.931 . S
C423 H411 0.929 . S
C423 C417 1.390 . S
C423 C420 1.386 . S
C424 C419 1.490 . S
C424 C426 1.395 . S
C424 C427 1.403 . S
H425 C431 0.930 . S
C426 H412 0.930 . S
C426 C424 1.395 . S
C426 C429 1.403 . S
C427 C424 1.403 . S
C427 C428 1.524 . S
C427 C431 1.400 . S
C428 H413 0.960 . S
C428 H414 0.960 . S
C428 H415 0.960 . S
C428 C427 1.524 . S
C429 C426 1.403 . S
C429 C430 1.392 . S
C429 C433 1.495 . S
C430 C429 1.392 . S
C430 C431 1.385 . S
C430 C432 1.478 . S
C431 H425 0.930 . S
C431 C427 1.400 . S
C431 C430 1.385 . S
C432 C430 1.478 . S
C432 C434 1.381 . S
C432 C438 1.383 . S
C433 C429 1.495 . S
C433 H439 0.959 . S
C433 H440 0.961 . S
C433 H441 0.960 . S
C434 C432 1.381 . S
C434 C435 1.394 . S
C434 H442 0.930 . S
C435 C434 1.394 . S
C435 C436 1.383 . S
C435 H443 0.929 . S
C436 C435 1.383 . S
C436 C437 1.377 . S
C437 H421 0.930 . S
C437 C436 1.377 . S
C437 C438 1.379 . S
C438 H422 0.931 . S
C438 C432 1.383 . S
C438 C437 1.379 . S
H439 C433 0.959 . S
H440 C433 0.961 . S
H441 C433 0.960 . S
H442 C434 0.930 . S
H443 C435 0.929 . S
H444 C452 0.929 . S
H445 C454 0.930 . S
H446 C456 0.930 . S
H447 C459 0.929 . S
H448 C462 0.930 . S
H449 C464 0.960 . S
H450 C464 0.960 . S
H451 C464 0.960 . S
C452 H444 0.929 . S
C452 C453 1.377 . S
C452 C454 1.384 . S
C453 C452 1.377 . S
C453 C459 1.390 . S
C454 H445 0.930 . S
C454 C452 1.384 . S
C454 C455 1.372 . S
C455 C454 1.372 . S
C455 C456 1.400 . S
C455 C460 1.490 . S
C456 H446 0.930 . S
C456 C455 1.400 . S
C456 C459 1.386 . S
H457 C473 0.930 . S
H458 C474 0.931 . S
C459 H447 0.929 . S
C459 C453 1.390 . S
C459 C456 1.386 . S
C460 C455 1.490 . S
C460 C462 1.395 . S
C460 C463 1.403 . S
H461 C467 0.930 . S
C462 H448 0.930 . S
C462 C460 1.395 . S
C462 C465 1.403 . S
C463 C460 1.403 . S
C463 C464 1.524 . S
C463 C467 1.400 . S
C464 H449 0.960 . S
C464 H450 0.960 . S
C464 H451 0.960 . S
C464 C463 1.524 . S
C465 C462 1.403 . S
C465 C466 1.392 . S
C465 C469 1.495 . S
C466 C465 1.392 . S
C466 C467 1.385 . S
C466 C468 1.478 . S
C467 H461 0.930 . S
C467 C463 1.400 . S
C467 C466 1.385 . S
C468 C466 1.478 . S
C468 C470 1.381 . S
C468 C474 1.383 . S
C469 C465 1.495 . S
C469 H475 0.959 . S
C469 H476 0.961 . S
C469 H477 0.960 . S
C470 C468 1.381 . S
C470 C471 1.394 . S
C470 H478 0.930 . S
C471 C470 1.394 . S
C471 C472 1.383 . S
C471 H479 0.929 . S
C472 C471 1.383 . S
C472 C473 1.377 . S
C473 H457 0.930 . S
C473 C472 1.377 . S
C473 C474 1.379 . S
C474 H458 0.931 . S
C474 C468 1.383 . S
C474 C473 1.379 . S
H475 C469 0.959 . S
H476 C469 0.961 . S
H477 C469 0.960 . S
H478 C470 0.930 . S
H479 C471 0.929 . S
H480 C488 0.929 . S
H481 C490 0.930 . S
H482 C492 0.930 . S
H483 C495 0.929 . S
H484 C498 0.930 . S
H485 C500 0.960 . S
H486 C500 0.960 . S
H487 C500 0.960 . S
C488 H480 0.929 . S
C488 C489 1.377 . S
C488 C490 1.384 . S
C489 C488 1.377 . S
C489 C495 1.390 . S
C490 H481 0.930 . S
C490 C488 1.384 . S
C490 C491 1.372 . S
C491 C490 1.372 . S
C491 C492 1.400 . S
C491 C496 1.490 . S
C492 H482 0.930 . S
C492 C491 1.400 . S
C492 C495 1.386 . S
H493 C509 0.930 . S
H494 C510 0.931 . S
C495 H483 0.929 . S
C495 C489 1.390 . S
C495 C492 1.386 . S
C496 C491 1.490 . S
C496 C498 1.395 . S
C496 C499 1.403 . S
H497 C503 0.930 . S
C498 H484 0.930 . S
C498 C496 1.395 . S
C498 C501 1.403 . S
C499 C496 1.403 . S
C499 C500 1.524 . S
C499 C503 1.400 . S
C500 H485 0.960 . S
C500 H486 0.960 . S
C500 H487 0.960 . S
C500 C499 1.524 . S
C501 C498 1.403 . S
C501 C502 1.392 . S
C501 C505 1.495 . S
C502 C501 1.392 . S
C502 C503 1.385 . S
C502 C504 1.478 . S
C503 H497 0.930 . S
C503 C499 1.400 . S
C503 C502 1.385 . S
C504 C502 1.478 . S
C504 C506 1.381 . S
C504 C510 1.383 . S
C505 C501 1.495 . S
C505 H511 0.959 . S
C505 H512 0.961 . S
C505 H513 0.960 . S
C506 C504 1.381 . S
C506 C507 1.394 . S
C506 H514 0.930 . S
C507 C506 1.394 . S
C507 C508 1.383 . S
C507 H515 0.929 . S
C508 C507 1.383 . S
C508 C509 1.377 . S
C509 H493 0.930 . S
C509 C508 1.377 . S
C509 C510 1.379 . S
C510 H494 0.931 . S
C510 C504 1.383 . S
C510 C509 1.379 . S
H511 C505 0.959 . S
H512 C505 0.961 . S
H513 C505 0.960 . S
H514 C506 0.930 . S
H515 C507 0.929 . S
H516 C524 0.929 . S
H517 C526 0.930 . S
H518 C528 0.930 . S
H519 C531 0.929 . S
H520 C534 0.930 . S
H521 C536 0.960 . S
H522 C536 0.960 . S
H523 C536 0.960 . S
C524 H516 0.929 . S
C524 C525 1.377 . S
C524 C526 1.384 . S
C525 C524 1.377 . S
C525 C531 1.390 . S
C526 H517 0.930 . S
C526 C524 1.384 . S
C526 C527 1.372 . S
C527 C526 1.372 . S
C527 C528 1.400 . S
C527 C532 1.490 . S
C528 H518 0.930 . S
C528 C527 1.400 . S
C528 C531 1.386 . S
H529 C545 0.930 . S
H530 C546 0.931 . S
C531 H519 0.929 . S
C531 C525 1.390 . S
C531 C528 1.386 . S
C532 C527 1.490 . S
C532 C534 1.395 . S
C532 C535 1.403 . S
H533 C539 0.930 . S
C534 H520 0.930 . S
C534 C532 1.395 . S
C534 C537 1.403 . S
C535 C532 1.403 . S
C535 C536 1.524 . S
C535 C539 1.400 . S
C536 H521 0.960 . S
C536 H522 0.960 . S
C536 H523 0.960 . S
C536 C535 1.524 . S
C537 C534 1.403 . S
C537 C538 1.392 . S
C537 C541 1.495 . S
C538 C537 1.392 . S
C538 C539 1.385 . S
C538 C540 1.478 . S
C539 H533 0.930 . S
C539 C535 1.400 . S
C539 C538 1.385 . S
C540 C538 1.478 . S
C540 C542 1.381 . S
C540 C546 1.383 . S
C541 C537 1.495 . S
C541 H547 0.959 . S
C541 H548 0.961 . S
C541 H549 0.960 . S
C542 C540 1.381 . S
C542 C543 1.394 . S
C542 H550 0.930 . S
C543 C542 1.394 . S
C543 C544 1.383 . S
C543 H551 0.929 . S
C544 C543 1.383 . S
C544 C545 1.377 . S
C545 H529 0.930 . S
C545 C544 1.377 . S
C545 C546 1.379 . S
C546 H530 0.931 . S
C546 C540 1.383 . S
C546 C545 1.379 . S
H547 C541 0.959 . S
H548 C541 0.961 . S
H549 C541 0.960 . S
H550 C542 0.930 . S
H551 C543 0.929 . S
H552 C560 0.929 . S
H553 C562 0.930 . S
H554 C564 0.930 . S
H555 C567 0.929 . S
H556 C570 0.930 . S
H557 C572 0.960 . S
H558 C572 0.960 . S
H559 C572 0.960 . S
C560 H552 0.929 . S
C560 C561 1.377 . S
C560 C562 1.384 . S
C561 C560 1.377 . S
C561 C567 1.390 . S
C562 H553 0.930 . S
C562 C560 1.384 . S
C562 C563 1.372 . S
C563 C562 1.372 . S
C563 C564 1.400 . S
C563 C568 1.490 . S
C564 H554 0.930 . S
C564 C563 1.400 . S
C564 C567 1.386 . S
H565 C581 0.930 . S
H566 C582 0.931 . S
C567 H555 0.929 . S
C567 C561 1.390 . S
C567 C564 1.386 . S
C568 C563 1.490 . S
C568 C570 1.395 . S
C568 C571 1.403 . S
H569 C575 0.930 . S
C570 H556 0.930 . S
C570 C568 1.395 . S
C570 C573 1.403 . S
C571 C568 1.403 . S
C571 C572 1.524 . S
C571 C575 1.400 . S
C572 H557 0.960 . S
C572 H558 0.960 . S
C572 H559 0.960 . S
C572 C571 1.524 . S
C573 C570 1.403 . S
C573 C574 1.392 . S
C573 C577 1.495 . S
C574 C573 1.392 . S
C574 C575 1.385 . S
C574 C576 1.478 . S
C575 H569 0.930 . S
C575 C571 1.400 . S
C575 C574 1.385 . S
C576 C574 1.478 . S
C576 C578 1.381 . S
C576 C582 1.383 . S
C577 C573 1.495 . S
C577 H583 0.959 . S
C577 H584 0.961 . S
C577 H585 0.960 . S
C578 C576 1.381 . S
C578 C579 1.394 . S
C578 H586 0.930 . S
C579 C578 1.394 . S
C579 C580 1.383 . S
C579 H587 0.929 . S
C580 C579 1.383 . S
C580 C581 1.377 . S
C581 H565 0.930 . S
C581 C580 1.377 . S
C581 C582 1.379 . S
C582 H566 0.931 . S
C582 C576 1.383 . S
C582 C581 1.379 . S
H583 C577 0.959 . S
H584 C577 0.961 . S
H585 C577 0.960 . S
H586 C578 0.930 . S
H587 C579 0.929 . S
H588 C596 0.929 . S
H589 C598 0.930 . S
H590 C600 0.930 . S
H591 C603 0.929 . S
H592 C606 0.930 . S
H593 C608 0.960 . S
H594 C608 0.960 . S
H595 C608 0.960 . S
C596 H588 0.929 . S
C596 C597 1.377 . S
C596 C598 1.384 . S
C597 C596 1.377 . S
C597 C603 1.390 . S
C598 H589 0.930 . S
C598 C596 1.384 . S
C598 C599 1.372 . S
C599 C598 1.372 . S
C599 C600 1.400 . S
C599 C604 1.490 . S
C600 H590 0.930 . S
C600 C599 1.400 . S
C600 C603 1.386 . S
H601 C617 0.930 . S
H602 C618 0.931 . S
C603 H591 0.929 . S
C603 C597 1.390 . S
C603 C600 1.386 . S
C604 C599 1.490 . S
C604 C606 1.395 1_556 S
C604 C607 1.403 . S
H605 C611 0.930 . S
C606 H592 0.930 . S
C606 C604 1.395 1_554 S
C606 C609 1.403 . S
C607 C604 1.403 . S
C607 C608 1.524 . S
C607 C611 1.400 . S
C608 H593 0.960 . S
C608 H594 0.960 . S
C608 H595 0.960 . S
C608 C607 1.524 . S
C609 C606 1.403 . S
C609 C610 1.392 . S
C609 C613 1.495 . S
C610 C609 1.392 . S
C610 C611 1.385 1_554 S
C610 C612 1.478 . S
C611 H605 0.930 . S
C611 C607 1.400 . S
C611 C610 1.385 1_556 S
C612 C610 1.478 . S
C612 C614 1.381 . S
C612 C618 1.383 . S
C613 C609 1.495 . S
C613 H619 0.959 . S
C613 H620 0.961 . S
C613 H621 0.960 . S
C614 C612 1.381 . S
C614 C615 1.394 . S
C614 H622 0.930 . S
C615 C614 1.394 . S
C615 C616 1.383 . S
C615 H623 0.929 . S
C616 C615 1.383 . S
C616 C617 1.377 . S
C617 H601 0.930 . S
C617 C616 1.377 . S
C617 C618 1.379 . S
C618 H602 0.931 . S
C618 C612 1.383 . S
C618 C617 1.379 . S
H619 C613 0.959 . S
H620 C613 0.961 . S
H621 C613 0.960 . S
H622 C614 0.930 . S
H623 C615 0.929 . S
H624 C632 0.929 . S
H625 C634 0.930 . S
H626 C636 0.930 . S
H627 C639 0.929 . S
H628 C642 0.930 . S
H629 C644 0.960 1_565 S
H630 C644 0.960 . S
H631 C644 0.960 . S
C632 H624 0.929 . S
C632 C633 1.377 . S
C632 C634 1.384 . S
C633 C632 1.377 . S
C633 C639 1.390 . S
C634 H625 0.930 . S
C634 C632 1.384 . S
C634 C635 1.372 . S
C635 C634 1.372 . S
C635 C636 1.400 . S
C635 C640 1.490 . S
C636 H626 0.930 . S
C636 C635 1.400 . S
C636 C639 1.386 . S
H637 C653 0.930 . S
H638 C654 0.931 . S
C639 H627 0.929 . S
C639 C633 1.390 . S
C639 C636 1.386 . S
C640 C635 1.490 . S
C640 C642 1.395 . S
C640 C643 1.403 . S
H641 C647 0.930 . S
C642 H628 0.930 . S
C642 C640 1.395 . S
C642 C645 1.403 1_545 S
C643 C640 1.403 . S
C643 C644 1.524 . S
C643 C647 1.400 1_545 S
C644 H629 0.960 1_545 S
C644 H630 0.960 . S
C644 H631 0.960 . S
C644 C643 1.524 . S
C645 C642 1.403 1_565 S
C645 C646 1.392 . S
C645 C649 1.495 . S
C646 C645 1.392 . S
C646 C647 1.385 . S
C646 C648 1.478 . S
C647 H641 0.930 . S
C647 C643 1.400 1_565 S
C647 C646 1.385 . S
C648 C646 1.478 . S
C648 C650 1.381 . S
C648 C654 1.383 . S
C649 C645 1.495 . S
C649 H655 0.959 1_565 S
C649 H656 0.961 . S
C649 H657 0.960 . S
C650 C648 1.381 . S
C650 C651 1.394 . S
C650 H658 0.930 . S
C651 C650 1.394 . S
C651 C652 1.383 . S
C651 H659 0.929 . S
C652 C651 1.383 . S
C652 C653 1.377 . S
C653 H637 0.930 . S
C653 C652 1.377 . S
C653 C654 1.379 . S
C654 H638 0.931 . S
C654 C648 1.383 . S
C654 C653 1.379 . S
H655 C649 0.959 1_545 S
H656 C649 0.961 . S
H657 C649 0.960 . S
H658 C650 0.930 . S
H659 C651 0.929 . S
H660 C668 0.929 1_655 S
H661 C670 0.930 1_655 S
H662 C672 0.930 . S
H663 C675 0.929 . S
H664 C678 0.930 . S
H665 C680 0.960 . S
H666 C680 0.960 . S
H667 C680 0.960 . S
C668 H660 0.929 1_455 S
C668 C669 1.377 . S
C668 C670 1.384 . S
C669 C668 1.377 . S
C669 C675 1.390 . S
C670 H661 0.930 1_455 S
C670 C668 1.384 . S
C670 C671 1.372 . S
C671 C670 1.372 . S
C671 C672 1.400 . S
C671 C676 1.490 . S
C672 H662 0.930 . S
C672 C671 1.400 . S
C672 C675 1.386 . S
H673 C689 0.930 . S
H674 C690 0.931 . S
C675 H663 0.929 . S
C675 C669 1.390 . S
C675 C672 1.386 . S
C676 C671 1.490 . S
C676 C678 1.395 . S
C676 C679 1.403 1_554 S
H677 C683 0.930 . S
C678 H664 0.930 . S
C678 C676 1.395 . S
C678 C681 1.403 1_565 S
C679 C676 1.403 1_556 S
C679 C680 1.524 . S
C679 C683 1.400 1_565 S
C680 H665 0.960 . S
C680 H666 0.960 . S
C680 H667 0.960 . S
C680 C679 1.524 . S
C681 C678 1.403 1_545 S
C681 C682 1.392 1_554 S
C681 C685 1.495 . S
C682 C681 1.392 1_556 S
C682 C683 1.385 . S
C682 C684 1.478 . S
C683 H677 0.930 . S
C683 C679 1.400 1_545 S
C683 C682 1.385 . S
C684 C682 1.478 . S
C684 C686 1.381 . S
C684 C690 1.383 . S
C685 C681 1.495 . S
C685 H691 0.959 . S
C685 H692 0.961 . S
C685 H693 0.960 . S
C686 C684 1.381 . S
C686 C687 1.394 . S
C686 H694 0.934 1_455 S
C687 C686 1.394 . S
C687 C688 1.383 . S
C687 H695 0.929 1_455 S
C688 C687 1.383 . S
C688 C689 1.377 . S
C689 H673 0.930 . S
C689 C688 1.377 . S
C689 C690 1.379 . S
C690 H674 0.931 . S
C690 C684 1.383 . S
C690 C689 1.379 . S
H691 C685 0.959 . S
H692 C685 0.961 . S
H693 C685 0.960 . S
H694 C686 0.934 1_655 S
H695 C687 0.929 1_655 S
H696 C704 0.929 . S
H697 C706 0.930 . S
H698 C708 0.930 . S
H699 C711 0.929 . S
H700 C714 0.930 . S
H701 C716 0.960 . S
H702 C716 0.960 . S
H703 C716 0.960 . S
C704 H696 0.929 . S
C704 C705 1.377 . S
C704 C706 1.384 . S
C705 C704 1.377 . S
C705 C711 1.390 . S
C706 H697 0.930 . S
C706 C704 1.384 . S
C706 C707 1.372 . S
C707 C706 1.372 . S
C707 C708 1.400 . S
C707 C712 1.490 . S
C708 H698 0.930 . S
C708 C707 1.400 . S
C708 C711 1.386 . S
H709 C725 0.930 . S
H710 C726 0.931 . S
C711 H699 0.929 . S
C711 C705 1.390 . S
C711 C708 1.386 . S
C712 C707 1.490 . S
C712 C714 1.395 . S
C712 C715 1.403 . S
H713 C719 0.930 . S
C714 H700 0.930 . S
C714 C712 1.395 . S
C714 C717 1.403 . S
C715 C712 1.403 . S
C715 C716 1.524 . S
C715 C719 1.400 . S
C716 H701 0.960 . S
C716 H702 0.960 . S
C716 H703 0.960 . S
C716 C715 1.524 . S
C717 C714 1.403 . S
C717 C718 1.392 . S
C717 C721 1.495 . S
C718 C717 1.392 . S
C718 C719 1.385 . S
C718 C720 1.478 . S
C719 H713 0.930 . S
C719 C715 1.400 . S
C719 C718 1.385 . S
C720 C718 1.478 . S
C720 C722 1.381 . S
C720 C726 1.383 . S
C721 C717 1.495 . S
C721 H727 0.959 . S
C721 H728 0.961 . S
C721 H729 0.960 . S
C722 C720 1.381 . S
C722 C723 1.394 . S
C722 H730 0.930 . S
C723 C722 1.394 . S
C723 C724 1.383 . S
C723 H731 0.929 . S
C724 C723 1.383 . S
C724 C725 1.377 . S
C725 H709 0.930 . S
C725 C724 1.377 . S
C725 C726 1.379 . S
C726 H710 0.931 . S
C726 C720 1.383 . S
C726 C725 1.379 . S
H727 C721 0.959 . S
H728 C721 0.961 . S
H729 C721 0.960 . S
H730 C722 0.930 . S
H731 C723 0.929 . S
H732 C740 0.929 . S
H733 C742 0.930 1_554 S
H734 C744 0.930 . S
H735 C747 0.929 . S
H736 C750 0.930 . S
H737 C752 0.960 . S
H738 C752 0.960 . S
H739 C752 0.960 . S
C740 H732 0.929 . S
C740 C741 1.377 . S
C740 C742 1.384 . S
C741 C740 1.377 . S
C741 C747 1.390 . S
C742 H733 0.930 1_556 S
C742 C740 1.384 . S
C742 C743 1.372 . S
C743 C742 1.372 . S
C743 C744 1.400 . S
C743 C748 1.489 . S
C744 H734 0.930 . S
C744 C743 1.400 . S
C744 C747 1.386 . S
H745 C761 0.930 . S
H746 C762 0.931 . S
C747 H735 0.929 . S
C747 C741 1.390 . S
C747 C744 1.386 . S
C748 C743 1.489 . S
C748 C750 1.397 1_556 S
C748 C751 1.401 . S
H749 C755 0.924 1_556 S
C750 H736 0.930 . S
C750 C748 1.397 1_554 S
C750 C753 1.403 . S
C751 C748 1.401 . S
C751 C752 1.524 . S
C751 C755 1.393 1_556 S
C752 H737 0.960 . S
C752 H738 0.960 . S
C752 H739 0.960 . S
C752 C751 1.524 . S
C753 C750 1.403 . S
C753 C754 1.392 . S
C753 C757 1.495 . S
C754 C753 1.392 . S
C754 C755 1.398 . S
C754 C756 1.478 . S
C755 H749 0.924 1_554 S
C755 C751 1.393 1_554 S
C755 C754 1.398 . S
C756 C754 1.478 . S
C756 C758 1.381 . S
C756 C762 1.383 . S
C757 C753 1.495 . S
C757 H763 0.959 . S
C757 H764 0.961 . S
C757 H765 0.960 . S
C758 C756 1.381 . S
C758 C759 1.394 . S
C758 H766 0.930 . S
C759 C758 1.394 . S
C759 C760 1.383 . S
C759 H767 0.929 . S
C760 C759 1.383 . S
C760 C761 1.377 . S
C761 H745 0.930 . S
C761 C760 1.377 . S
C761 C762 1.379 . S
C762 H746 0.931 . S
C762 C756 1.383 . S
C762 C761 1.379 . S
H763 C757 0.959 . S
H764 C757 0.961 . S
H765 C757 0.960 . S
H766 C758 0.930 . S
H767 C759 0.929 . S
H768 C776 0.929 . S
H769 C778 0.930 . S
H770 C780 0.930 . S
H771 C783 0.929 . S
H772 C786 0.930 . S
H773 C788 0.960 . S
H774 C788 0.960 . S
H775 C788 0.960 . S
C776 H768 0.929 . S
C776 C777 1.377 . S
C776 C778 1.384 . S
C777 C776 1.377 . S
C777 C783 1.390 . S
C778 H769 0.930 . S
C778 C776 1.384 . S
C778 C779 1.372 . S
C779 C778 1.372 . S
C779 C780 1.400 . S
C779 C784 1.490 . S
C780 H770 0.930 . S
C780 C779 1.400 . S
C780 C783 1.386 . S
H781 C797 0.930 . S
H782 C798 0.931 . S
C783 H771 0.929 . S
C783 C777 1.390 . S
C783 C780 1.386 . S
C784 C779 1.490 . S
C784 C786 1.395 . S
C784 C787 1.403 . S
H785 C791 0.930 . S
C786 H772 0.930 . S
C786 C784 1.395 . S
C786 C789 1.403 . S
C787 C784 1.403 . S
C787 C788 1.524 . S
C787 C791 1.400 . S
C788 H773 0.960 . S
C788 H774 0.960 . S
C788 H775 0.960 . S
C788 C787 1.524 . S
C789 C786 1.403 . S
C789 C790 1.392 . S
C789 C793 1.495 . S
C790 C789 1.392 . S
C790 C791 1.385 . S
C790 C792 1.478 . S
C791 H785 0.930 . S
C791 C787 1.400 . S
C791 C790 1.385 . S
C792 C790 1.478 . S
C792 C794 1.381 . S
C792 C798 1.383 . S
C793 C789 1.495 . S
C793 H799 0.959 . S
C793 H800 0.961 . S
C793 H801 0.960 . S
C794 C792 1.381 . S
C794 C795 1.394 . S
C794 H802 0.930 . S
C795 C794 1.394 . S
C795 C796 1.383 . S
C795 H803 0.929 . S
C796 C795 1.383 . S
C796 C797 1.377 . S
C797 H781 0.930 . S
C797 C796 1.377 . S
C797 C798 1.379 . S
C798 H782 0.931 . S
C798 C792 1.383 . S
C798 C797 1.379 . S
H799 C793 0.959 . S
H800 C793 0.961 . S
H801 C793 0.960 . S
H802 C794 0.930 . S
H803 C795 0.929 . S
H804 C812 0.929 . S
H805 C814 0.930 . S
H806 C816 0.930 . S
H807 C819 0.929 . S
H808 C822 0.930 . S
H809 C824 0.960 . S
H810 C824 0.960 . S
H811 C824 0.960 . S
C812 H804 0.929 . S
C812 C813 1.377 . S
C812 C814 1.384 . S
C813 C812 1.377 . S
C813 C819 1.390 . S
C814 H805 0.930 . S
C814 C812 1.384 . S
C814 C815 1.372 . S
C815 C814 1.372 . S
C815 C816 1.400 . S
C815 C820 1.490 . S
C816 H806 0.930 . S
C816 C815 1.400 . S
C816 C819 1.386 . S
H817 C833 0.930 . S
H818 C834 0.931 . S
C819 H807 0.929 . S
C819 C813 1.390 . S
C819 C816 1.386 . S
C820 C815 1.490 . S
C820 C822 1.395 . S
C820 C823 1.403 . S
H821 C827 0.930 . S
C822 H808 0.930 . S
C822 C820 1.395 . S
C822 C825 1.415 . S
C823 C820 1.403 . S
C823 C824 1.524 . S
C823 C827 1.400 . S
C824 H809 0.960 . S
C824 H810 0.960 . S
C824 H811 0.960 . S
C824 C823 1.524 . S
C825 C822 1.415 . S
C825 C826 1.390 1_556 S
C825 C829 1.487 1_556 S
C826 C825 1.390 1_554 S
C826 C827 1.385 1_554 S
C826 C828 1.478 . S
C827 H821 0.930 . S
C827 C823 1.400 . S
C827 C826 1.385 1_556 S
C828 C826 1.478 . S
C828 C830 1.381 . S
C828 C834 1.383 . S
C829 C825 1.487 1_554 S
C829 H835 0.959 . S
C829 H836 0.961 . S
C829 H837 0.960 . S
C830 C828 1.381 . S
C830 C831 1.394 . S
C830 H838 0.930 1_554 S
C831 C830 1.394 . S
C831 C832 1.383 . S
C831 H839 0.929 . S
C832 C831 1.383 . S
C832 C833 1.377 . S
C833 H817 0.930 . S
C833 C832 1.377 . S
C833 C834 1.379 . S
C834 H818 0.931 . S
C834 C828 1.383 . S
C834 C833 1.379 . S
H835 C829 0.959 . S
H836 C829 0.961 . S
H837 C829 0.960 . S
H838 C830 0.930 1_556 S
H839 C831 0.929 . S
H840 C848 0.929 . S
H841 C850 0.930 . S
H842 C852 0.930 . S
H843 C855 0.929 . S
H844 C858 0.930 . S
H845 C860 0.960 . S
H846 C860 0.960 . S
H847 C860 0.960 . S
C848 H840 0.929 . S
C848 C849 1.377 1_655 S
C848 C850 1.384 . S
C849 C848 1.377 1_455 S
C849 C855 1.390 . S
C850 H841 0.930 . S
C850 C848 1.384 . S
C850 C851 1.372 . S
C851 C850 1.372 . S
C851 C852 1.400 . S
C851 C856 1.490 . S
C852 H842 0.930 . S
C852 C851 1.400 . S
C852 C855 1.386 1_655 S
H853 C869 0.930 . S
H854 C870 0.931 . S
C855 H843 0.929 . S
C855 C849 1.390 . S
C855 C852 1.386 1_455 S
C856 C851 1.490 . S
C856 C858 1.395 . S
C856 C859 1.403 . S
H857 C863 0.930 . S
C858 H844 0.930 . S
C858 C856 1.395 . S
C858 C861 1.403 . S
C859 C856 1.403 . S
C859 C860 1.524 . S
C859 C863 1.400 . S
C860 H845 0.960 . S
C860 H846 0.960 . S
C860 H847 0.960 . S
C860 C859 1.524 . S
C861 C858 1.403 . S
C861 C862 1.392 . S
C861 C865 1.495 . S
C862 C861 1.392 . S
C862 C863 1.385 . S
C862 C864 1.478 . S
C863 H857 0.930 . S
C863 C859 1.400 . S
C863 C862 1.385 . S
C864 C862 1.478 . S
C864 C866 1.381 . S
C864 C870 1.383 . S
C865 C861 1.495 . S
C865 H871 0.959 . S
C865 H872 0.961 . S
C865 H873 0.960 . S
C866 C864 1.381 . S
C866 C867 1.394 . S
C866 H874 0.930 . S
C867 C866 1.394 . S
C867 C868 1.383 . S
C867 H875 0.929 . S
C868 C867 1.383 . S
C868 C869 1.377 . S
C869 H853 0.930 . S
C869 C868 1.377 . S
C869 C870 1.379 . S
C870 H854 0.931 . S
C870 C864 1.383 . S
C870 C869 1.379 . S
H871 C865 0.959 . S
H872 C865 0.961 . S
H873 C865 0.960 . S
H874 C866 0.930 . S
H875 C867 0.929 . S
H876 C884 0.929 . S
H877 C886 0.930 . S
H878 C888 0.930 . S
H879 C891 0.929 . S
H880 C894 0.930 . S
H881 C896 0.960 . S
H882 C896 0.960 . S
H883 C896 0.960 1_554 S
C884 H876 0.929 . S
C884 C885 1.377 . S
C884 C886 1.384 . S
C885 C884 1.377 . S
C885 C891 1.390 . S
C886 H877 0.930 . S
C886 C884 1.384 . S
C886 C887 1.372 . S
C887 C886 1.372 . S
C887 C888 1.400 . S
C887 C892 1.490 . S
C888 H878 0.930 . S
C888 C887 1.400 . S
C888 C891 1.386 . S
H889 C905 0.930 . S
H890 C906 0.931 1_554 S
C891 H879 0.929 . S
C891 C885 1.390 . S
C891 C888 1.386 . S
C892 C887 1.490 . S
C892 C894 1.395 . S
C892 C895 1.403 . S
H893 C899 0.930 . S
C894 H880 0.930 . S
C894 C892 1.395 . S
C894 C897 1.403 . S
C895 C892 1.403 . S
C895 C896 1.524 1_554 S
C895 C899 1.400 1_554 S
C896 H881 0.960 . S
C896 H882 0.960 . S
C896 H883 0.960 1_556 S
C896 C895 1.524 1_556 S
C897 C894 1.403 . S
C897 C898 1.392 1_554 S
C897 C901 1.495 . S
C898 C897 1.392 1_556 S
C898 C899 1.385 . S
C898 C900 1.478 . S
C899 H893 0.930 . S
C899 C895 1.400 1_556 S
C899 C898 1.385 . S
C900 C898 1.478 . S
C900 C902 1.381 . S
C900 C906 1.383 . S
C901 C897 1.495 . S
C901 H907 0.959 . S
C901 H908 0.961 . S
C901 H909 0.960 . S
C902 C900 1.381 . S
C902 C903 1.394 . S
C902 H910 0.930 . S
C903 C902 1.394 . S
C903 C904 1.383 . S
C903 H911 0.929 . S
C904 C903 1.383 . S
C904 C905 1.377 . S
C905 H889 0.930 . S
C905 C904 1.377 . S
C905 C906 1.379 . S
C906 H890 0.931 1_556 S
C906 C900 1.383 . S
C906 C905 1.379 . S
H907 C901 0.959 . S
H908 C901 0.961 . S
H909 C901 0.960 . S
H910 C902 0.930 . S
H911 C903 0.929 . S
H912 C920 0.929 . S
H913 C922 0.930 . S
H914 C924 0.930 . S
H915 C927 0.929 . S
H916 C930 0.930 . S
H917 C932 0.960 . S
H918 C932 0.960 . S
H919 C932 0.960 . S
C920 H912 0.929 . S
C920 C921 1.377 1_655 S
C920 C922 1.384 . S
C921 C920 1.377 1_455 S
C921 C927 1.390 . S
C922 H913 0.930 . S
C922 C920 1.384 . S
C922 C923 1.372 . S
C923 C922 1.372 . S
C923 C924 1.400 . S
C923 C928 1.490 . S
C924 H914 0.930 . S
C924 C923 1.400 . S
C924 C927 1.386 1_655 S
H925 C941 0.930 . S
H926 C942 0.931 . S
C927 H915 0.929 . S
C927 C921 1.390 . S
C927 C924 1.386 1_455 S
C928 C923 1.490 . S
C928 C930 1.395 . S
C928 C931 1.403 . S
H929 C935 0.930 . S
C930 H916 0.930 . S
C930 C928 1.395 . S
C930 C933 1.403 . S
C931 C928 1.403 . S
C931 C932 1.524 . S
C931 C935 1.400 . S
C932 H917 0.960 . S
C932 H918 0.960 . S
C932 H919 0.960 . S
C932 C931 1.524 . S
C933 C930 1.403 . S
C933 C934 1.392 . S
C933 C937 1.495 . S
C934 C933 1.392 . S
C934 C935 1.385 . S
C934 C936 1.478 . S
C935 H929 0.930 . S
C935 C931 1.400 . S
C935 C934 1.385 . S
C936 C934 1.478 . S
C936 C938 1.381 . S
C936 C942 1.383 . S
C937 C933 1.495 . S
C937 H943 0.959 . S
C937 H944 0.961 . S
C937 H945 0.960 . S
C938 C936 1.381 . S
C938 C939 1.394 . S
C938 H946 0.930 . S
C939 C938 1.394 . S
C939 C940 1.383 . S
C939 H947 0.929 . S
C940 C939 1.383 . S
C940 C941 1.377 . S
C941 H925 0.930 . S
C941 C940 1.377 . S
C941 C942 1.379 . S
C942 H926 0.931 . S
C942 C936 1.383 . S
C942 C941 1.379 . S
H943 C937 0.959 . S
H944 C937 0.961 . S
H945 C937 0.960 . S
H946 C938 0.930 . S
H947 C939 0.929 . S
H948 C956 0.929 . S
H949 C958 0.930 . S
H950 C960 0.930 . S
H951 C963 0.929 . S
H952 C966 0.930 . S
H953 C968 0.960 . S
H954 C968 0.960 . S
H955 C968 0.960 . S
C956 H948 0.929 . S
C956 C957 1.377 . S
C956 C958 1.384 . S
C957 C956 1.377 . S
C957 C963 1.390 . S
C958 H949 0.930 . S
C958 C956 1.384 . S
C958 C959 1.372 . S
C959 C958 1.372 . S
C959 C960 1.400 . S
C959 C964 1.490 . S
C960 H950 0.930 . S
C960 C959 1.400 . S
C960 C963 1.386 . S
H961 C977 0.930 . S
H962 C978 0.931 . S
C963 H951 0.929 . S
C963 C957 1.390 . S
C963 C960 1.386 . S
C964 C959 1.490 . S
C964 C966 1.395 . S
C964 C967 1.403 . S
H965 C971 0.930 1_554 S
C966 H952 0.930 . S
C966 C964 1.395 . S
C966 C969 1.403 . S
C967 C964 1.403 . S
C967 C968 1.524 . S
C967 C971 1.400 . S
C968 H953 0.960 . S
C968 H954 0.960 . S
C968 H955 0.960 . S
C968 C967 1.524 . S
C969 C966 1.403 . S
C969 C970 1.392 1_556 S
C969 C973 1.495 . S
C970 C969 1.392 1_554 S
C970 C971 1.385 1_554 S
C970 C972 1.478 . S
C971 H965 0.930 1_556 S
C971 C967 1.400 . S
C971 C970 1.385 1_556 S
C972 C970 1.478 . S
C972 C974 1.371 1_554 S
C972 C978 1.383 . S
C973 C969 1.495 . S
C973 H979 0.959 . S
C973 H980 0.961 1_556 S
C973 H981 0.960 . S
C974 C972 1.371 1_556 S
C974 C975 1.385 1_556 S
C974 H982 0.950 . S
C975 C974 1.385 1_554 S
C975 C976 1.383 . S
C975 H983 0.929 . S
C976 C975 1.383 . S
C976 C977 1.377 . S
C977 H961 0.930 . S
C977 C976 1.377 . S
C977 C978 1.379 . S
C978 H962 0.931 . S
C978 C972 1.383 . S
C978 C977 1.379 . S
H979 C973 0.959 . S
H980 C973 0.961 1_554 S
H981 C973 0.960 . S
H982 C974 0.950 . S
H983 C975 0.929 . S
C273 C18 1.237 . S
C292 C117 1.219 . S
C309 C51 1.236 . S
C328 C84 1.228 . S
C345 N68 1.612 1_655 S
C364 N35 1.590 . S
C381 N101 1.611 . S
C400 N2 1.589 1_655 S
C417 C150 1.236 . S
C436 C249 1.227 . S
C453 C216 1.236 . S
C472 C183 1.224 . S
C489 N167 1.619 . S
C508 N200 1.632 . S
C525 N233 1.613 . S
C544 N134 1.591 . S
C561 C87 1.498 . S
C580 C21 1.495 . S
C597 C54 1.497 . S
C616 C120 1.492 . S
C633 C219 1.497 . S
C652 C153 1.493 . S
C669 C252 1.497 . S
C688 C186 1.496 . S
C705 N13 1.431 . S
C724 C205 1.442 . S
C741 N46 1.434 . S
C760 C238 1.454 . S
C777 N79 1.431 . S
C796 C139 1.442 . S
C813 C172 1.459 . S
C832 N112 1.451 . S
C849 C73 1.456 . S
C868 N145 1.442 . S
C885 C106 1.459 . S
C904 N178 1.401 . S
C921 C7 1.456 . S
C940 N211 1.438 . S
C957 C40 1.458 . S
C976 N244 1.448 . S
