# Generated by pormake.
# Topology uow, (4)-cn, num edge types: 1
# Building blocks:
#     Node 0, Type 0, BuildingBlock: CEKHIL_clean_sbu_0, # of connection points: 4
#     Node 1, Type 0, BuildingBlock: CEKHIL_clean_sbu_0, # of connection points: 4
#     Node 2, Type 0, BuildingBlock: CEKHIL_clean_sbu_0, # of connection points: 4
#     Node 3, Type 0, BuildingBlock: CEKHIL_clean_sbu_0, # of connection points: 4
#     Node 4, Type 0, BuildingBlock: CEKHIL_clean_sbu_0, # of connection points: 4
#     Node 5, Type 0, BuildingBlock: CEKHIL_clean_sbu_0, # of connection points: 4
#     Node 6, Type 0, BuildingBlock: CEKHIL_clean_sbu_0, # of connection points: 4
#     Node 7, Type 0, BuildingBlock: CEKHIL_clean_sbu_0, # of connection points: 4
#     Node 8, Type 0, BuildingBlock: CEKHIL_clean_sbu_0, # of connection points: 4
#     Node 9, Type 0, BuildingBlock: CEKHIL_clean_sbu_0, # of connection points: 4
#     Node 10, Type 0, BuildingBlock: CEKHIL_clean_sbu_0, # of connection points: 4
#     Node 11, Type 0, BuildingBlock: CEKHIL_clean_sbu_0, # of connection points: 4
#     Node 12, Type 0, BuildingBlock: CEKHIL_clean_sbu_0, # of connection points: 4
#     Node 13, Type 0, BuildingBlock: CEKHIL_clean_sbu_0, # of connection points: 4
#     Node 14, Type 0, BuildingBlock: CEKHIL_clean_sbu_0, # of connection points: 4
#     Node 15, Type 0, BuildingBlock: CEKHIL_clean_sbu_0, # of connection points: 4
#     Node 16, Type 0, BuildingBlock: CEKHIL_clean_sbu_0, # of connection points: 4
#     Node 17, Type 0, BuildingBlock: CEKHIL_clean_sbu_0, # of connection points: 4
#     Node 18, Type 0, BuildingBlock: CEKHIL_clean_sbu_0, # of connection points: 4
#     Node 19, Type 0, BuildingBlock: CEKHIL_clean_sbu_0, # of connection points: 4
#     Node 20, Type 0, BuildingBlock: CEKHIL_clean_sbu_0, # of connection points: 4
#     Node 21, Type 0, BuildingBlock: CEKHIL_clean_sbu_0, # of connection points: 4
#     Node 22, Type 0, BuildingBlock: CEKHIL_clean_sbu_0, # of connection points: 4
#     Node 23, Type 0, BuildingBlock: CEKHIL_clean_sbu_0, # of connection points: 4
#     Node 24, Type 0, BuildingBlock: CEKHIL_clean_sbu_0, # of connection points: 4
#     Node 25, Type 0, BuildingBlock: CEKHIL_clean_sbu_0, # of connection points: 4
#     Node 26, Type 0, BuildingBlock: CEKHIL_clean_sbu_0, # of connection points: 4
#     Node 27, Type 0, BuildingBlock: CEKHIL_clean_sbu_0, # of connection points: 4
#     Node 28, Type 0, BuildingBlock: CEKHIL_clean_sbu_0, # of connection points: 4
#     Node 29, Type 0, BuildingBlock: CEKHIL_clean_sbu_0, # of connection points: 4
#     Node 30, Type 0, BuildingBlock: CEKHIL_clean_sbu_0, # of connection points: 4
#     Node 31, Type 0, BuildingBlock: CEKHIL_clean_sbu_0, # of connection points: 4
#     Edge 32, Type (0, 0), BuildingBlock: UVAHIK_clean_linker_0, # of connection points: 2
#     Edge 33, Type (0, 0), BuildingBlock: UVAHIK_clean_linker_0, # of connection points: 2
#     Edge 34, Type (0, 0), BuildingBlock: UVAHIK_clean_linker_0, # of connection points: 2
#     Edge 35, Type (0, 0), BuildingBlock: UVAHIK_clean_linker_0, # of connection points: 2
#     Edge 36, Type (0, 0), BuildingBlock: UVAHIK_clean_linker_0, # of connection points: 2
#     Edge 37, Type (0, 0), BuildingBlock: UVAHIK_clean_linker_0, # of connection points: 2
#     Edge 38, Type (0, 0), BuildingBlock: UVAHIK_clean_linker_0, # of connection points: 2
#     Edge 39, Type (0, 0), BuildingBlock: UVAHIK_clean_linker_0, # of connection points: 2
#     Edge 40, Type (0, 0), BuildingBlock: UVAHIK_clean_linker_0, # of connection points: 2
#     Edge 41, Type (0, 0), BuildingBlock: UVAHIK_clean_linker_0, # of connection points: 2
#     Edge 42, Type (0, 0), BuildingBlock: UVAHIK_clean_linker_0, # of connection points: 2
#     Edge 43, Type (0, 0), BuildingBlock: UVAHIK_clean_linker_0, # of connection points: 2
#     Edge 44, Type (0, 0), BuildingBlock: UVAHIK_clean_linker_0, # of connection points: 2
#     Edge 45, Type (0, 0), BuildingBlock: UVAHIK_clean_linker_0, # of connection points: 2
#     Edge 46, Type (0, 0), BuildingBlock: UVAHIK_clean_linker_0, # of connection points: 2
#     Edge 47, Type (0, 0), BuildingBlock: UVAHIK_clean_linker_0, # of connection points: 2
#     Edge 48, Type (0, 0), BuildingBlock: UVAHIK_clean_linker_0, # of connection points: 2
#     Edge 49, Type (0, 0), BuildingBlock: UVAHIK_clean_linker_0, # of connection points: 2
#     Edge 50, Type (0, 0), BuildingBlock: UVAHIK_clean_linker_0, # of connection points: 2
#     Edge 51, Type (0, 0), BuildingBlock: UVAHIK_clean_linker_0, # of connection points: 2
#     Edge 52, Type (0, 0), BuildingBlock: UVAHIK_clean_linker_0, # of connection points: 2
#     Edge 53, Type (0, 0), BuildingBlock: UVAHIK_clean_linker_0, # of connection points: 2
#     Edge 54, Type (0, 0), BuildingBlock: UVAHIK_clean_linker_0, # of connection points: 2
#     Edge 55, Type (0, 0), BuildingBlock: UVAHIK_clean_linker_0, # of connection points: 2
#     Edge 56, Type (0, 0), BuildingBlock: UVAHIK_clean_linker_0, # of connection points: 2
#     Edge 57, Type (0, 0), BuildingBlock: UVAHIK_clean_linker_0, # of connection points: 2
#     Edge 58, Type (0, 0), BuildingBlock: UVAHIK_clean_linker_0, # of connection points: 2
#     Edge 59, Type (0, 0), BuildingBlock: UVAHIK_clean_linker_0, # of connection points: 2
#     Edge 60, Type (0, 0), BuildingBlock: UVAHIK_clean_linker_0, # of connection points: 2
#     Edge 61, Type (0, 0), BuildingBlock: UVAHIK_clean_linker_0, # of connection points: 2
#     Edge 62, Type (0, 0), BuildingBlock: UVAHIK_clean_linker_0, # of connection points: 2
#     Edge 63, Type (0, 0), BuildingBlock: UVAHIK_clean_linker_0, # of connection points: 2
#     Edge 64, Type (0, 0), BuildingBlock: UVAHIK_clean_linker_0, # of connection points: 2
#     Edge 65, Type (0, 0), BuildingBlock: UVAHIK_clean_linker_0, # of connection points: 2
#     Edge 66, Type (0, 0), BuildingBlock: UVAHIK_clean_linker_0, # of connection points: 2
#     Edge 67, Type (0, 0), BuildingBlock: UVAHIK_clean_linker_0, # of connection points: 2
#     Edge 68, Type (0, 0), BuildingBlock: UVAHIK_clean_linker_0, # of connection points: 2
#     Edge 69, Type (0, 0), BuildingBlock: UVAHIK_clean_linker_0, # of connection points: 2
#     Edge 70, Type (0, 0), BuildingBlock: UVAHIK_clean_linker_0, # of connection points: 2
#     Edge 71, Type (0, 0), BuildingBlock: UVAHIK_clean_linker_0, # of connection points: 2
#     Edge 72, Type (0, 0), BuildingBlock: UVAHIK_clean_linker_0, # of connection points: 2
#     Edge 73, Type (0, 0), BuildingBlock: UVAHIK_clean_linker_0, # of connection points: 2
#     Edge 74, Type (0, 0), BuildingBlock: UVAHIK_clean_linker_0, # of connection points: 2
#     Edge 75, Type (0, 0), BuildingBlock: UVAHIK_clean_linker_0, # of connection points: 2
#     Edge 76, Type (0, 0), BuildingBlock: UVAHIK_clean_linker_0, # of connection points: 2
#     Edge 77, Type (0, 0), BuildingBlock: UVAHIK_clean_linker_0, # of connection points: 2
#     Edge 78, Type (0, 0), BuildingBlock: UVAHIK_clean_linker_0, # of connection points: 2
#     Edge 79, Type (0, 0), BuildingBlock: UVAHIK_clean_linker_0, # of connection points: 2
#     Edge 80, Type (0, 0), BuildingBlock: UVAHIK_clean_linker_0, # of connection points: 2
#     Edge 81, Type (0, 0), BuildingBlock: UVAHIK_clean_linker_0, # of connection points: 2
#     Edge 82, Type (0, 0), BuildingBlock: UVAHIK_clean_linker_0, # of connection points: 2
#     Edge 83, Type (0, 0), BuildingBlock: UVAHIK_clean_linker_0, # of connection points: 2
#     Edge 84, Type (0, 0), BuildingBlock: UVAHIK_clean_linker_0, # of connection points: 2
#     Edge 85, Type (0, 0), BuildingBlock: UVAHIK_clean_linker_0, # of connection points: 2
#     Edge 86, Type (0, 0), BuildingBlock: UVAHIK_clean_linker_0, # of connection points: 2
#     Edge 87, Type (0, 0), BuildingBlock: UVAHIK_clean_linker_0, # of connection points: 2
#     Edge 88, Type (0, 0), BuildingBlock: UVAHIK_clean_linker_0, # of connection points: 2
#     Edge 89, Type (0, 0), BuildingBlock: UVAHIK_clean_linker_0, # of connection points: 2
#     Edge 90, Type (0, 0), BuildingBlock: UVAHIK_clean_linker_0, # of connection points: 2
#     Edge 91, Type (0, 0), BuildingBlock: UVAHIK_clean_linker_0, # of connection points: 2
#     Edge 92, Type (0, 0), BuildingBlock: UVAHIK_clean_linker_0, # of connection points: 2
#     Edge 93, Type (0, 0), BuildingBlock: UVAHIK_clean_linker_0, # of connection points: 2
#     Edge 94, Type (0, 0), BuildingBlock: UVAHIK_clean_linker_0, # of connection points: 2
#     Edge 95, Type (0, 0), BuildingBlock: UVAHIK_clean_linker_0, # of connection points: 2
# Relax obj value: 0.099
# Max RMSD: 0.128
# Mean RMSD: 0.128
data_MOF--net-uow--node1-CEKHIL_clean_sbu_0--edge1-UVAHIK_clean_linker_0
_symmetry_space_group_name_H-M    P1
_symmetry_Int_Tables_number       1
_symmetry_cell_setting            triclinic
loop_
_symmetry_equiv_pos_as_xyz
'x, y, z'
_cell_length_a     79.598973
_cell_length_b     79.607791
_cell_length_c     51.611009
_cell_angle_alpha  90.001612
_cell_angle_beta   90.008499
_cell_angle_gamma 90.010726
loop_
_atom_site_label
_atom_site_type_symbol
_atom_site_fract_x
_atom_site_fract_y
_atom_site_fract_z
_atom_type_partial_charge
Co0 Co 0.05764 0.38927 0.29489 0.0
O1 O 0.05166 0.4114 0.28376 0.0
O2 O 0.0769 0.40413 0.298 0.0
C3 C 0.03436 0.38485 0.31891 0.0
O4 O 0.06794 0.36763 0.30902 0.0
Co5 Co 0.03497 0.35908 0.27887 0.0
O6 O 0.04873 0.34705 0.30496 0.0
C7 C 0.05754 0.3746 0.24046 0.0
C8 C 0.06697 0.41576 0.28904 0.0
C9 C 0.06275 0.35255 0.3134 0.0
O10 O 0.06461 0.38327 0.25846 0.0
O11 O 0.04459 0.36539 0.24432 0.0
O12 O 0.04692 0.39319 0.32862 0.0
O13 O 0.03576 0.38098 0.29478 0.0
Co14 Co 0.85519 0.80415 0.54165 0.0
O15 O 0.83177 0.80067 0.53515 0.0
O16 O 0.84289 0.82461 0.54903 0.0
C17 C 0.85938 0.77991 0.56328 0.0
O18 O 0.87866 0.81202 0.55162 0.0
Co19 Co 0.88161 0.77958 0.51845 0.0
O20 O 0.89742 0.79197 0.54131 0.0
C21 C 0.86543 0.80477 0.4849 0.0
C22 C 0.82961 0.81612 0.54234 0.0
C23 C 0.89367 0.80597 0.55185 0.0
O24 O 0.8588 0.81182 0.50485 0.0
O25 O 0.87352 0.79089 0.486 0.0
O26 O 0.85318 0.79288 0.57522 0.0
O27 O 0.86127 0.78158 0.53861 0.0
Co28 Co 0.44381 0.60455 0.79096 0.0
O29 O 0.44713 0.58129 0.78279 0.0
O30 O 0.42317 0.59227 0.79686 0.0
C31 C 0.46783 0.60826 0.81338 0.0
O32 O 0.43603 0.62774 0.80235 0.0
Co33 Co 0.46854 0.63143 0.7695 0.0
O34 O 0.45629 0.6466 0.79353 0.0
C35 C 0.44297 0.61693 0.73497 0.0
C36 C 0.43149 0.57915 0.78906 0.0
C37 C 0.44221 0.64267 0.80366 0.0
O38 O 0.43635 0.60929 0.75439 0.0
O39 O 0.45673 0.6252 0.73647 0.0
O40 O 0.45481 0.60155 0.82458 0.0
O41 O 0.46641 0.61069 0.78876 0.0
Co42 Co 0.63922 0.19228 0.03379 0.0
O43 O 0.66107 0.19706 0.02033 0.0
O44 O 0.65431 0.17371 0.0412 0.0
C45 C 0.63448 0.21761 0.05196 0.0
O46 O 0.61777 0.18351 0.05062 0.0
Co47 Co 0.60914 0.2127 0.01105 0.0
O48 O 0.59612 0.19946 0.03669 0.0
C49 C 0.62473 0.18619 0.97994 0.0
C50 C 0.66558 0.18239 0.02871 0.0
C51 C 0.60207 0.18748 0.05031 0.0
O52 O 0.63289 0.18125 2e-05 0.0
O53 O 0.61598 0.19968 0.97949 0.0
O54 O 0.6434 0.20646 0.06421 0.0
O55 O 0.63059 0.21376 0.02844 0.0
Co56 Co 0.05013 0.60726 0.20535 0.0
O57 O 0.04531 0.58459 0.21501 0.0
O58 O 0.06964 0.59317 0.19891 0.0
C59 C 0.02581 0.61203 0.18425 0.0
O60 O 0.05913 0.62977 0.19254 0.0
Co61 Co 0.02742 0.63577 0.22739 0.0
O62 O 0.04023 0.64982 0.20247 0.0
C63 C 0.05259 0.61982 0.26101 0.0
C64 C 0.06053 0.58094 0.20808 0.0
C65 C 0.05378 0.64505 0.19149 0.0
O66 O 0.05872 0.61209 0.24129 0.0
O67 O 0.03911 0.62859 0.26002 0.0
O68 O 0.03809 0.60439 0.17252 0.0
O69 O 0.02809 0.61483 0.20859 0.0
Co70 Co 0.63764 0.80934 0.46118 0.0
O71 O 0.65587 0.80468 0.48446 0.0
O72 O 0.65469 0.8265 0.45787 0.0
C73 C 0.6349 0.78286 0.446 0.0
O74 O 0.62119 0.81818 0.43413 0.0
Co75 Co 0.60269 0.79212 0.4669 0.0
O76 O 0.59903 0.80078 0.43136 0.0
C77 C 0.61182 0.82091 0.50062 0.0
C78 C 0.66283 0.81829 0.47567 0.0
C79 C 0.60756 0.8132 0.42311 0.0
O80 O 0.62597 0.82278 0.48894 0.0
O81 O 0.60138 0.80913 0.49546 0.0
O82 O 0.64628 0.79277 0.43632 0.0
O83 O 0.62668 0.78879 0.46545 0.0
Co84 Co 0.44347 0.39191 0.70977 0.0
O85 O 0.44649 0.41518 0.71813 0.0
O86 O 0.42329 0.40429 0.70115 0.0
C87 C 0.46867 0.38808 0.69061 0.0
O88 O 0.43618 0.36867 0.69766 0.0
Co89 Co 0.46703 0.36514 0.73474 0.0
O90 O 0.45462 0.34931 0.71201 0.0
C91 C 0.44041 0.3807 0.76597 0.0
C92 C 0.43127 0.4174 0.70983 0.0
C93 C 0.44158 0.35344 0.69916 0.0
O94 O 0.43411 0.38735 0.74544 0.0
O95 O 0.45451 0.37298 0.76617 0.0
O96 O 0.45637 0.39481 0.67765 0.0
O97 O 0.46581 0.38567 0.7149 0.0
Co98 Co 0.85506 0.18911 0.95487 0.0
O99 O 0.8318 0.1923 0.96288 0.0
O100 O 0.8428 0.16846 0.94839 0.0
C101 C 0.85839 0.21345 0.93311 0.0
O102 O 0.87839 0.18161 0.94346 0.0
Co103 Co 0.88162 0.21418 0.97662 0.0
O104 O 0.8971 0.20187 0.95312 0.0
C105 C 0.86619 0.18911 0.01109 0.0
C106 C 0.82963 0.17678 0.95607 0.0
C107 C 0.89332 0.18787 0.9426 0.0
O108 O 0.8597 0.18158 0.99145 0.0
O109 O 0.87381 0.20324 0.0095 0.0
O110 O 0.85205 0.20043 0.92141 0.0
O111 O 0.86089 0.2117 0.95761 0.0
Co112 Co 0.94952 0.61097 0.71614 0.0
O113 O 0.95476 0.5898 0.73157 0.0
O114 O 0.93099 0.59541 0.71099 0.0
C115 C 0.97452 0.61475 0.69638 0.0
O116 O 0.94024 0.63156 0.69736 0.0
Co117 Co 0.97029 0.64241 0.7329 0.0
O118 O 0.95865 0.65276 0.70292 0.0
C119 C 0.94473 0.62839 0.76803 0.0
C120 C 0.94014 0.58468 0.72381 0.0
C121 C 0.94553 0.64654 0.69244 0.0
O122 O 0.93933 0.61878 0.74981 0.0
O123 O 0.95788 0.63755 0.76586 0.0
O124 O 0.96308 0.60543 0.68556 0.0
O125 O 0.97107 0.61983 0.71948 0.0
Co126 Co 0.14755 0.19077 0.45684 0.0
O127 O 0.17067 0.19303 0.46668 0.0
O128 O 0.1594 0.17004 0.4496 0.0
C129 C 0.14548 0.21586 0.43679 0.0
O130 O 0.12445 0.18414 0.44327 0.0
Co131 Co 0.12075 0.21545 0.47855 0.0
O132 O 0.10573 0.20433 0.45303 0.0
C133 C 0.13417 0.18866 0.51196 0.0
C134 C 0.17256 0.17766 0.45885 0.0
C135 C 0.10964 0.19059 0.44182 0.0
O136 O 0.14166 0.1821 0.49235 0.0
O137 O 0.12653 0.2028 0.51104 0.0
O138 O 0.15187 0.20304 0.42465 0.0
O139 O 0.1421 0.21345 0.46094 0.0
Co140 Co 0.55414 0.39093 0.2062 0.0
O141 O 0.55067 0.41263 0.22151 0.0
O142 O 0.5748 0.40376 0.20494 0.0
C143 C 0.53074 0.39076 0.18165 0.0
O144 O 0.56231 0.36962 0.18833 0.0
Co145 Co 0.52873 0.36187 0.21556 0.0
O146 O 0.54094 0.35115 0.18635 0.0
C147 C 0.55267 0.37152 0.25685 0.0
C148 C 0.56634 0.41562 0.21635 0.0
C149 C 0.55568 0.35588 0.18004 0.0
O150 O 0.56029 0.38152 0.24117 0.0
O151 O 0.53919 0.36361 0.25086 0.0
O152 O 0.54419 0.39837 0.17348 0.0
O153 O 0.53143 0.38498 0.20497 0.0
Co154 Co 0.35543 0.80412 0.95245 0.0
O155 O 0.33206 0.8008 0.95959 0.0
O156 O 0.34321 0.82477 0.9459 0.0
C157 C 0.35934 0.78003 0.93037 0.0
O158 O 0.37895 0.81175 0.94214 0.0
Co159 Co 0.38166 0.77921 0.97533 0.0
O160 O 0.39719 0.79097 0.95128 0.0
C161 C 0.36646 0.80484 0.00903 0.0
C162 C 0.32996 0.81639 0.9531 0.0
C163 C 0.39373 0.80517 0.94113 0.0
O164 O 0.35941 0.81156 0.98917 0.0
O165 O 0.37469 0.79104 0.00798 0.0
O166 O 0.35299 0.79308 0.91878 0.0
O167 O 0.36137 0.78151 0.95506 0.0
Co168 Co 0.94312 0.38548 0.78211 0.0
O169 O 0.94693 0.40713 0.76722 0.0
O170 O 0.9246 0.40035 0.79078 0.0
C171 C 0.96943 0.38243 0.79778 0.0
O172 O 0.93547 0.36442 0.80138 0.0
Co173 Co 0.96352 0.35454 0.76258 0.0
O174 O 0.9543 0.34386 0.79416 0.0
C175 C 0.93394 0.36639 0.73294 0.0
C176 C 0.9329 0.41166 0.77784 0.0
C177 C 0.9414 0.34962 0.80579 0.0
O178 O 0.93091 0.37777 0.75001 0.0
O179 O 0.94675 0.35665 0.7338 0.0
O180 O 0.95836 0.39104 0.81065 0.0
O181 O 0.9647 0.37729 0.77523 0.0
Co182 Co 0.35533 0.1942 0.54555 0.0
O183 O 0.33171 0.19595 0.5387 0.0
O184 O 0.34478 0.17252 0.55043 0.0
C185 C 0.35776 0.21768 0.56953 0.0
O186 O 0.37923 0.18788 0.55547 0.0
Co187 Co 0.37984 0.22146 0.52474 0.0
O188 O 0.39693 0.20891 0.54506 0.0
C189 C 0.36597 0.19639 0.4889 0.0
C190 C 0.3309 0.18002 0.54384 0.0
C191 C 0.39393 0.19463 0.55528 0.0
O192 O 0.3598 0.18827 0.50821 0.0
O193 O 0.37295 0.21081 0.49116 0.0
O194 O 0.35233 0.20387 0.58008 0.0
O195 O 0.35969 0.21726 0.54473 0.0
Co196 Co 0.55933 0.61016 0.2855 0.0
O197 O 0.55643 0.59005 0.26542 0.0
O198 O 0.57897 0.59603 0.28904 0.0
C199 C 0.53371 0.60996 0.30434 0.0
O200 O 0.5667 0.62947 0.30886 0.0
Co201 Co 0.53629 0.64135 0.27691 0.0
O202 O 0.54612 0.64881 0.31027 0.0
C203 C 0.56453 0.6345 0.24085 0.0
C204 C 0.5712 0.58569 0.27363 0.0
C205 C 0.56005 0.64289 0.31828 0.0
O206 O 0.56937 0.62185 0.25447 0.0
O207 O 0.55131 0.64309 0.24586 0.0
O208 O 0.5458 0.60088 0.31382 0.0
O209 O 0.53705 0.61747 0.28281 0.0
Co210 Co 0.14015 0.80563 0.03994 0.0
O211 O 0.16171 0.80009 0.02607 0.0
O212 O 0.15543 0.82446 0.04435 0.0
C213 C 0.13585 0.78127 0.06131 0.0
O214 O 0.11911 0.81537 0.05672 0.0
Co215 Co 0.10945 0.78428 0.02186 0.0
O216 O 0.09703 0.79887 0.04647 0.0
C217 C 0.12432 0.80893 0.98644 0.0
C218 C 0.16643 0.81512 0.03246 0.0
C219 C 0.10341 0.81152 0.05803 0.0
O220 O 0.13312 0.81485 0.00523 0.0
O221 O 0.11544 0.79558 0.98836 0.0
O222 O 0.14487 0.79308 0.07181 0.0
O223 O 0.13146 0.78392 0.03762 0.0
Co224 Co 0.55607 0.8927 0.79268 0.0
O225 O 0.55129 0.91613 0.78795 0.0
O226 O 0.57639 0.90574 0.79752 0.0
C227 C 0.53335 0.88672 0.81714 0.0
O228 O 0.56544 0.86935 0.80004 0.0
Co229 Co 0.53125 0.866 0.77065 0.0
O230 O 0.54662 0.84975 0.78766 0.0
C231 C 0.55281 0.88519 0.73531 0.0
C232 C 0.56713 0.91877 0.79225 0.0
C233 C 0.56059 0.85396 0.79789 0.0
O234 O 0.56153 0.89043 0.75467 0.0
O235 O 0.5391 0.87696 0.73787 0.0
O236 O 0.54662 0.8933 0.82786 0.0
O237 O 0.53379 0.88565 0.79227 0.0
Co238 Co 0.35878 0.30497 0.03971 0.0
O239 O 0.33545 0.30023 0.03431 0.0
O240 O 0.3456 0.32498 0.04644 0.0
C241 C 0.36464 0.28154 0.06248 0.0
O242 O 0.38198 0.31415 0.04835 0.0
Co243 Co 0.38578 0.28126 0.01616 0.0
O244 O 0.40179 0.29576 0.03544 0.0
C245 C 0.36805 0.30513 0.9824 0.0
C246 C 0.33265 0.31575 0.04058 0.0
C247 C 0.39739 0.30938 0.04655 0.0
O248 O 0.36139 0.31207 0.00242 0.0
O249 O 0.37676 0.29164 0.98358 0.0
O250 O 0.35797 0.29447 0.07394 0.0
O251 O 0.3659 0.2826 0.03761 0.0
Co252 Co 0.94773 0.10975 0.28631 0.0
O253 O 0.94984 0.08681 0.27532 0.0
O254 O 0.92682 0.09803 0.29246 0.0
C255 C 0.97242 0.11179 0.3075 0.0
O256 O 0.94115 0.13273 0.30042 0.0
Co257 Co 0.97297 0.13638 0.26537 0.0
O258 O 0.96069 0.15181 0.28891 0.0
C259 C 0.94623 0.12373 0.23135 0.0
C260 C 0.9343 0.08507 0.28238 0.0
C261 C 0.9472 0.14773 0.30068 0.0
O262 O 0.93951 0.1162 0.25078 0.0
O263 O 0.9605 0.13112 0.23258 0.0
O264 O 0.95949 0.10498 0.31881 0.0
O265 O 0.97048 0.11517 0.28324 0.0
Co266 Co 0.14439 0.69431 0.53169 0.0
O267 O 0.16529 0.69871 0.51477 0.0
O268 O 0.15919 0.67506 0.53535 0.0
C269 C 0.1422 0.71923 0.55213 0.0
O270 O 0.12404 0.68577 0.55169 0.0
Co271 Co 0.11334 0.71636 0.51754 0.0
O272 O 0.10388 0.70557 0.54905 0.0
C273 C 0.12477 0.69008 0.48147 0.0
C274 C 0.16987 0.68374 0.52171 0.0
C275 C 0.10976 0.69197 0.55845 0.0
O276 O 0.1351 0.68463 0.49866 0.0
O277 O 0.11602 0.70345 0.48432 0.0
O278 O 0.15134 0.70732 0.56206 0.0
O279 O 0.13636 0.71625 0.52928 0.0
Co280 Co 0.55693 0.10732 0.70298 0.0
O281 O 0.5522 0.08394 0.70832 0.0
O282 O 0.57695 0.09417 0.6964 0.0
C283 C 0.53349 0.11347 0.6805 0.0
O284 O 0.56614 0.13056 0.69463 0.0
Co285 Co 0.53346 0.13413 0.72752 0.0
O286 O 0.548 0.1503 0.70863 0.0
C287 C 0.55753 0.11626 0.76054 0.0
C288 C 0.56784 0.08121 0.70267 0.0
C289 C 0.5615 0.14597 0.6971 0.0
O290 O 0.56412 0.10969 0.7402 0.0
O291 O 0.54413 0.12514 0.75992 0.0
O292 O 0.54631 0.10675 0.6688 0.0
O293 O 0.53463 0.11451 0.70538 0.0
Co294 Co 0.13963 0.30611 0.95889 0.0
O295 O 0.1587 0.30097 0.98017 0.0
O296 O 0.15622 0.32381 0.95596 0.0
C297 C 0.13697 0.28027 0.94132 0.0
O298 O 0.12202 0.31549 0.93408 0.0
Co299 Co 0.10545 0.28775 0.96671 0.0
O300 O 0.10024 0.29751 0.9323 0.0
C301 C 0.11563 0.31491 0.00269 0.0
C302 C 0.1651 0.31507 0.97228 0.0
C303 C 0.10813 0.31035 0.92402 0.0
O304 O 0.1287 0.31808 0.98888 0.0
O305 O 0.1055 0.30278 -0.00209 0.0
O306 O 0.14778 0.29084 0.93177 0.0
O307 O 0.12936 0.28515 0.96203 0.0
Co308 Co 0.94428 0.89319 0.21376 0.0
O309 O 0.94744 0.91552 0.22659 0.0
O310 O 0.92423 0.90644 0.20729 0.0
C311 C 0.96929 0.89088 0.19358 0.0
O312 O 0.93684 0.87094 0.19793 0.0
Co313 Co 0.96815 0.86501 0.23371 0.0
O314 O 0.95518 0.85069 0.20943 0.0
C315 C 0.94156 0.8781 0.26774 0.0
C316 C 0.93225 0.91858 0.21885 0.0
C317 C 0.94208 0.85563 0.1974 0.0
O318 O 0.93515 0.88615 0.24853 0.0
O319 O 0.95566 0.8704 0.26643 0.0
O320 O 0.9568 0.8983 0.18208 0.0
O321 O 0.96675 0.88679 0.21743 0.0
Co322 Co 0.36306 0.69331 0.45806 0.0
O323 O 0.34018 0.69756 0.4676 0.0
O324 O 0.34947 0.67373 0.45051 0.0
C325 C 0.36753 0.71808 0.43795 0.0
O326 O 0.38554 0.68471 0.44476 0.0
Co327 Co 0.39175 0.71553 0.48032 0.0
O328 O 0.40584 0.70326 0.45481 0.0
C329 C 0.37619 0.68966 0.51325 0.0
C330 C 0.33696 0.68246 0.45955 0.0
C331 C 0.40084 0.68992 0.44348 0.0
O332 O 0.368 0.68408 0.49358 0.0
O333 O 0.38514 0.70303 0.51256 0.0
O334 O 0.36004 0.70587 0.42582 0.0
O335 O 0.37048 0.71546 0.46221 0.0
Co336 Co 0.44502 0.10851 0.21585 0.0
O337 O 0.4469 0.08616 0.22922 0.0
O338 O 0.42419 0.09644 0.20995 0.0
C339 C 0.46985 0.10932 0.19494 0.0
O340 O 0.43887 0.131 0.19944 0.0
Co341 Co 0.47069 0.13538 0.2349 0.0
O342 O 0.45878 0.15002 0.20979 0.0
C343 C 0.44337 0.12453 0.26939 0.0
C344 C 0.43155 0.08394 0.22157 0.0
C345 C 0.44528 0.14585 0.19812 0.0
O346 O 0.43656 0.11648 0.25053 0.0
O347 O 0.45785 0.13147 0.2678 0.0
O348 O 0.45687 0.10232 0.18411 0.0
O349 O 0.46788 0.11366 0.21883 0.0
Co350 Co 0.64328 0.69347 0.95067 0.0
O351 O 0.6668 0.69635 0.95723 0.0
O352 O 0.65462 0.67201 0.94781 0.0
C353 C 0.64051 0.71598 0.92446 0.0
O354 O 0.61961 0.68587 0.94147 0.0
Co355 Co 0.6176 0.72072 0.96766 0.0
O356 O 0.60156 0.70733 0.94661 0.0
C357 C 0.63236 0.69802 0.00667 0.0
C358 C 0.66823 0.68031 0.95338 0.0
C359 C 0.6049 0.69242 0.93917 0.0
O360 O 0.63902 0.68912 0.98859 0.0
O361 O 0.62469 0.71189 0.00239 0.0
O362 O 0.64609 0.70184 0.91521 0.0
O363 O 0.63826 0.71638 0.94918 0.0
Co364 Co 0.05599 0.88918 0.70433 0.0
O365 O 0.05165 0.91207 0.71363 0.0
O366 O 0.076 0.90255 0.69868 0.0
C367 C 0.03199 0.88505 0.68201 0.0
O368 O 0.06471 0.8666 0.69169 0.0
Co369 Co 0.03251 0.86085 0.72461 0.0
O370 O 0.04538 0.84668 0.69992 0.0
C371 C 0.05731 0.87604 0.75978 0.0
C372 C 0.06707 0.91512 0.70701 0.0
C373 C 0.0592 0.85143 0.68978 0.0
O374 O 0.06377 0.88407 0.74061 0.0
O375 O 0.04385 0.86731 0.75792 0.0
O376 O 0.04471 0.89243 0.67102 0.0
O377 O 0.03366 0.88207 0.70645 0.0
Co378 Co 0.85601 0.30582 0.45427 0.0
O379 O 0.8324 0.3018 0.45785 0.0
O380 O 0.84373 0.32644 0.44782 0.0
C381 C 0.8617 0.28269 0.43072 0.0
O382 O 0.87976 0.31435 0.44769 0.0
Co383 Co 0.88165 0.28075 0.47806 0.0
O384 O 0.8982 0.29396 0.45771 0.0
C385 C 0.86377 0.30447 0.51207 0.0
C386 C 0.83031 0.31756 0.45238 0.0
C387 C 0.89478 0.30834 0.44818 0.0
O388 O 0.85769 0.31193 0.49207 0.0
O389 O 0.87242 0.29093 0.51066 0.0
O390 O 0.85584 0.29609 0.41948 0.0
O391 O 0.86231 0.28322 0.45569 0.0
Co392 Co 0.44599 0.89027 0.27911 0.0
O393 O 0.44768 0.91179 0.26261 0.0
O394 O 0.42674 0.90389 0.28832 0.0
C395 C 0.47272 0.88879 0.29346 0.0
O396 O 0.44024 0.86906 0.2995 0.0
Co397 Co 0.4676 0.86059 0.25809 0.0
O398 O 0.45872 0.84875 0.28902 0.0
C399 C 0.43867 0.87286 0.22817 0.0
C400 C 0.4334 0.91527 0.27344 0.0
C401 C 0.44641 0.85421 0.30244 0.0
O402 O 0.43373 0.88142 0.24786 0.0
O403 O 0.45275 0.8651 0.22743 0.0
O404 O 0.46157 0.89719 0.30656 0.0
O405 O 0.46776 0.88328 0.27125 0.0
Co406 Co 0.85351 0.70037 0.03968 0.0
O407 O 0.83143 0.70358 0.02593 0.0
O408 O 0.84063 0.6798 0.04319 0.0
C409 C 0.85504 0.7245 0.0623 0.0
O410 O 0.87547 0.69268 0.0561 0.0
Co411 Co 0.88196 0.72521 0.02408 0.0
O412 O 0.89481 0.71305 0.05119 0.0
C413 C 0.87116 0.6991 0.9872 0.0
C414 C 0.82861 0.68796 0.03161 0.0
C415 C 0.89014 0.69894 0.06039 0.0
O416 O 0.86155 0.69274 0.00463 0.0
O417 O 0.87939 0.71276 0.99049 0.0
O418 O 0.84747 0.71151 0.07216 0.0
O419 O 0.85966 0.72301 0.03846 0.0
Co420 Co 0.05646 0.10727 0.78828 0.0
O421 O 0.05072 0.08615 0.77296 0.0
O422 O 0.07498 0.09164 0.79224 0.0
C423 C 0.03195 0.11132 0.80933 0.0
O424 O 0.0665 0.12759 0.80656 0.0
Co425 Co 0.03613 0.13919 0.77307 0.0
O426 O 0.04829 0.14913 0.80301 0.0
C427 C 0.06089 0.12516 0.7366 0.0
C428 C 0.06559 0.08105 0.77957 0.0
C429 C 0.06159 0.14254 0.8123 0.0
O430 O 0.06607 0.11505 0.7543 0.0
O431 O 0.04812 0.13478 0.73944 0.0
O432 O 0.04355 0.10187 0.8195 0.0
O433 O 0.03492 0.11645 0.78607 0.0
Co434 Co 0.64109 0.3043 0.53946 0.0
O435 O 0.66156 0.29948 0.5214 0.0
O436 O 0.65515 0.32419 0.53851 0.0
C437 C 0.64092 0.28086 0.56396 0.0
O438 O 0.62132 0.31378 0.55981 0.0
Co439 Co 0.61014 0.28069 0.53413 0.0
O440 O 0.60176 0.29359 0.56441 0.0
C441 C 0.61814 0.30481 0.49225 0.0
C442 C 0.66572 0.31501 0.52548 0.0
C443 C 0.60763 0.30808 0.56975 0.0
O444 O 0.63011 0.31109 0.50591 0.0
O445 O 0.60949 0.29205 0.49941 0.0
O446 O 0.64968 0.29383 0.57117 0.0
O447 O 0.63388 0.28199 0.54154 0.0
C448 C 0.05581 0.36812 0.19323 0.0
C449 C 0.06501 0.3746 0.2142 0.0
C450 C 0.06311 0.36677 0.1688 0.0
C451 C 0.10355 0.36061 0.13781 0.0
H452 H 0.07697 0.36673 0.07553 0.0
C453 C 0.12416 0.33611 0.03637 0.0
C454 C 0.11174 0.32592 0.02496 0.0
C455 C 0.12031 0.34609 0.05793 0.0
C456 C 0.0846 0.36509 0.09272 0.0
H457 H 0.08899 0.38523 0.22574 0.0
H458 H 0.10183 0.38269 0.18278 0.0
H459 H 0.06671 0.37772 0.11671 0.0
H460 H 0.08549 0.3186 0.02674 0.0
H461 H 0.07884 0.33597 0.06398 0.0
H462 H 0.12109 0.34731 0.11386 0.0
C463 C 0.08894 0.37868 0.18544 0.0
C464 C 0.07874 0.37135 0.11627 0.0
C465 C 0.08156 0.38018 0.20997 0.0
C466 C 0.09538 0.32621 0.03514 0.0
C467 C 0.09151 0.3363 0.05633 0.0
C468 C 0.10946 0.35437 0.11416 0.0
C469 C 0.07981 0.3718 0.16469 0.0
C470 C 0.08779 0.36853 0.13923 0.0
C471 C 0.10392 0.34627 0.06805 0.0
C472 C 0.09967 0.35594 0.09164 0.0
H473 H 0.04302 0.36376 0.19574 0.0
H474 H 0.05582 0.36116 0.15332 0.0
H475 H 0.11077 0.35819 0.1552 0.0
H476 H 0.13689 0.33614 0.02897 0.0
H477 H 0.1301 0.35365 0.06668 0.0
C478 C 0.91395 0.87799 0.29121 0.0
C479 C 0.93152 0.876 0.29162 0.0
C480 C 0.9042 0.8728 0.31233 0.0
C481 C 0.88721 0.86446 0.36483 0.0
H482 H 0.90214 0.82079 0.38885 0.0
C483 C 0.86561 0.83165 0.45975 0.0
C484 C 0.86571 0.81399 0.46007 0.0
C485 C 0.87007 0.84037 0.43724 0.0
C486 C 0.89761 0.83286 0.38216 0.0
H487 H 0.95274 0.86869 0.31547 0.0
H488 H 0.93582 0.85996 0.35229 0.0
H489 H 0.91772 0.83503 0.35512 0.0
H490 H 0.86846 0.79167 0.4364 0.0
H491 H 0.87572 0.80685 0.39702 0.0
H492 H 0.86697 0.86209 0.39213 0.0
C493 C 0.92953 0.86503 0.3354 0.0
C494 C 0.90674 0.84117 0.36311 0.0
C495 C 0.93922 0.87009 0.31433 0.0
C496 C 0.86859 0.80527 0.43685 0.0
C497 C 0.87282 0.81397 0.41434 0.0
C498 C 0.87804 0.85612 0.38413 0.0
C499 C 0.9119 0.86563 0.33418 0.0
C500 C 0.90179 0.85712 0.35441 0.0
C501 C 0.87452 0.83155 0.41467 0.0
C502 C 0.88319 0.84022 0.393 0.0
H503 H 0.90763 0.88257 0.27401 0.0
H504 H 0.89064 0.87344 0.31088 0.0
H505 H 0.8831 0.87675 0.3584 0.0
H506 H 0.8634 0.83872 0.47737 0.0
H507 H 0.87125 0.85392 0.43811 0.0
C508 C 0.41585 0.61535 0.71051 0.0
C509 C 0.43336 0.61777 0.71046 0.0
C510 C 0.40634 0.61903 0.68846 0.0
C511 C 0.40834 0.62726 0.61831 0.0
H512 H 0.37471 0.66145 0.63182 0.0
C513 C 0.38153 0.68654 0.56075 0.0
C514 C 0.37671 0.67934 0.53704 0.0
C515 C 0.38445 0.67641 0.58237 0.0
C516 C 0.38389 0.65174 0.6278 0.0
H517 H 0.45474 0.62468 0.68669 0.0
H518 H 0.43815 0.63082 0.64812 0.0
H519 H 0.38811 0.64688 0.66808 0.0
H520 H 0.37039 0.65596 0.51771 0.0
H521 H 0.37589 0.63824 0.55548 0.0
H522 H 0.40459 0.63259 0.57805 0.0
C523 C 0.43179 0.62621 0.66526 0.0
C524 C 0.39147 0.64334 0.64849 0.0
C525 C 0.44127 0.62279 0.68739 0.0
C526 C 0.37407 0.66188 0.53573 0.0
C527 C 0.37728 0.65172 0.55726 0.0
C528 C 0.40058 0.63548 0.5976 0.0
C529 C 0.41419 0.62489 0.66586 0.0
C530 C 0.40414 0.63141 0.64394 0.0
C531 C 0.38284 0.65888 0.58059 0.0
C532 C 0.38868 0.64817 0.60221 0.0
H533 H 0.40936 0.6115 0.72797 0.0
H534 H 0.39279 0.61783 0.68933 0.0
H535 H 0.41804 0.61806 0.61432 0.0
H536 H 0.38359 0.69995 0.56239 0.0
H537 H 0.38885 0.68224 0.60009 0.0
C538 C 0.58419 0.11139 0.78517 0.0
C539 C 0.56694 0.11528 0.78522 0.0
C540 C 0.59385 0.11375 0.80747 0.0
C541 C 0.59225 0.12199 0.8779 0.0
H542 H 0.62766 0.15426 0.86398 0.0
C543 C 0.61993 0.18165 0.93264 0.0
C544 C 0.62413 0.17509 0.95704 0.0
C545 C 0.61719 0.17094 0.91167 0.0
C546 C 0.61801 0.14505 0.86813 0.0
H547 H 0.54604 0.12312 0.80933 0.0
H548 H 0.56288 0.12703 0.84826 0.0
H549 H 0.61398 0.13979 0.82797 0.0
H550 H 0.62949 0.15222 0.97839 0.0
H551 H 0.62423 0.13344 0.94171 0.0
H552 H 0.59574 0.12792 0.91802 0.0
C553 C 0.56894 0.12229 0.83095 0.0
C554 C 0.61025 0.13669 0.84758 0.0
C555 C 0.55931 0.12017 0.80858 0.0
C556 C 0.62629 0.15764 0.95979 0.0
C557 C 0.62323 0.14689 0.93889 0.0
C558 C 0.60016 0.1302 0.89849 0.0
C559 C 0.5864 0.11974 0.83032 0.0
C560 C 0.59687 0.12557 0.85223 0.0
C561 C 0.61835 0.15345 0.9148 0.0
C562 C 0.61266 0.14227 0.89368 0.0
H563 H 0.59046 0.10753 0.76752 0.0
H564 H 0.60728 0.11158 0.80657 0.0
H565 H 0.58201 0.11343 0.88197 0.0
H566 H 0.61828 0.19504 0.92992 0.0
H567 H 0.61328 0.17631 0.89334 0.0
C568 C 0.05472 0.62465 0.30875 0.0
C569 C 0.06242 0.62012 0.28528 0.0
C570 C 0.06442 0.62763 0.33081 0.0
C571 C 0.08851 0.62814 0.37709 0.0
H572 H 0.12106 0.66336 0.36347 0.0
C573 C 0.12503 0.66243 0.4584 0.0
C574 C 0.12205 0.67985 0.45797 0.0
C575 C 0.12082 0.65248 0.43706 0.0
C576 C 0.11218 0.65337 0.36749 0.0
H577 H 0.08622 0.61418 0.26689 0.0
H578 H 0.10318 0.61979 0.30542 0.0
H579 H 0.10751 0.64892 0.32724 0.0
H580 H 0.11315 0.7006 0.43449 0.0
H581 H 0.10615 0.68324 0.39701 0.0
H582 H 0.09279 0.63304 0.41739 0.0
C583 C 0.08964 0.62092 0.30667 0.0
C584 C 0.10453 0.64504 0.34683 0.0
C585 C 0.07992 0.61766 0.2847 0.0
C586 C 0.11551 0.68722 0.43541 0.0
C587 C 0.11161 0.67731 0.41393 0.0
C588 C 0.09638 0.63629 0.39777 0.0
C589 C 0.082 0.62635 0.3297 0.0
C590 C 0.09225 0.63273 0.35146 0.0
C591 C 0.11391 0.65983 0.41477 0.0
C592 C 0.10787 0.64933 0.39311 0.0
H593 H 0.04126 0.62653 0.30984 0.0
H594 H 0.05823 0.63192 0.3483 0.0
H595 H 0.07909 0.61867 0.38111 0.0
H596 H 0.13002 0.65639 0.47557 0.0
H597 H 0.12271 0.63902 0.43809 0.0
C598 C 0.61895 0.83998 0.53776 0.0
C599 C 0.60699 0.833 0.52089 0.0
C600 C 0.61376 0.84983 0.55881 0.0
C601 C 0.57624 0.85468 0.59957 0.0
H602 H 0.59985 0.89251 0.62985 0.0
C603 C 0.54873 0.88613 0.68755 0.0
C604 C 0.55963 0.88694 0.70887 0.0
C605 C 0.55507 0.88394 0.66264 0.0
C606 C 0.59316 0.88197 0.62151 0.0
H607 H 0.58052 0.83204 0.51116 0.0
H608 H 0.57156 0.84961 0.54702 0.0
H609 H 0.61011 0.88004 0.58926 0.0
H610 H 0.58578 0.88775 0.72067 0.0
H611 H 0.5969 0.8835 0.67696 0.0
H612 H 0.55948 0.85627 0.63163 0.0
C613 C 0.58484 0.84698 0.54485 0.0
C614 C 0.59904 0.87481 0.59839 0.0
C615 C 0.58996 0.83695 0.52426 0.0
C616 C 0.57708 0.88709 0.70456 0.0
C617 C 0.58345 0.88471 0.67954 0.0
C618 C 0.57035 0.86184 0.62237 0.0
C619 C 0.59657 0.85299 0.56297 0.0
C620 C 0.59056 0.86111 0.58715 0.0
C621 C 0.57245 0.88228 0.65857 0.0
C622 C 0.57867 0.87558 0.63358 0.0
H623 H 0.63218 0.83715 0.53545 0.0
H624 H 0.62311 0.85425 0.57244 0.0
H625 H 0.5697 0.8438 0.592 0.0
H626 H 0.53523 0.8863 0.69025 0.0
H627 H 0.54632 0.88253 0.64671 0.0
C628 C 0.37204 0.30585 0.93445 0.0
C629 C 0.36775 0.31425 0.95744 0.0
C630 C 0.37585 0.31491 0.91209 0.0
C631 C 0.39945 0.33649 0.88175 0.0
H632 H 0.38014 0.37763 0.85462 0.0
C633 C 0.43784 0.37638 0.81361 0.0
C634 C 0.4301 0.37981 0.78975 0.0
C635 C 0.42826 0.37147 0.83489 0.0
C636 C 0.38562 0.36614 0.86206 0.0
H637 H 0.36237 0.33865 0.97427 0.0
H638 H 0.36937 0.3545 0.93525 0.0
H639 H 0.36501 0.36162 0.88808 0.0
H640 H 0.40613 0.38243 0.77015 0.0
H641 H 0.38935 0.37355 0.80743 0.0
H642 H 0.41996 0.34079 0.85607 0.0
C643 C 0.36969 0.34091 0.93451 0.0
C644 C 0.377 0.35702 0.88116 0.0
C645 C 0.36573 0.33181 0.95689 0.0
C646 C 0.41245 0.3798 0.78829 0.0
C647 C 0.40283 0.37474 0.80963 0.0
C648 C 0.40804 0.34559 0.86298 0.0
C649 C 0.37561 0.33257 0.91232 0.0
C650 C 0.38386 0.34206 0.89111 0.0
C651 C 0.41075 0.36973 0.8327 0.0
C652 C 0.40133 0.36057 0.85304 0.0
H653 H 0.37341 0.29231 0.93411 0.0
H654 H 0.37996 0.30813 0.89504 0.0
H655 H 0.40525 0.32521 0.88934 0.0
H656 H 0.4514 0.37657 0.81547 0.0
H657 H 0.43466 0.36809 0.85267 0.0
C658 C 0.86873 0.18949 0.05916 0.0
C659 C 0.86692 0.18026 0.03617 0.0
C660 C 0.87344 0.18148 0.08204 0.0
C661 C 0.88231 0.14024 0.1133 0.0
H662 H 0.91925 0.16541 0.14323 0.0
C663 C 0.94368 0.1325 0.18501 0.0
C664 C 0.93631 0.12548 0.20724 0.0
C665 C 0.93381 0.13685 0.16375 0.0
C666 C 0.90906 0.15814 0.13498 0.0
H667 H 0.86704 0.15525 0.01952 0.0
H668 H 0.87578 0.14129 0.0594 0.0
H669 H 0.90275 0.17783 0.10885 0.0
H670 H 0.91294 0.11629 0.22373 0.0
H671 H 0.89566 0.12416 0.18659 0.0
H672 H 0.88915 0.12032 0.13933 0.0
C673 C 0.87336 0.15467 0.05986 0.0
C674 C 0.89937 0.16539 0.11557 0.0
C675 C 0.86839 0.16268 0.03699 0.0
C676 C 0.91901 0.12179 0.20697 0.0
C677 C 0.9091 0.12623 0.18567 0.0
C678 C 0.89205 0.13295 0.13293 0.0
C679 C 0.87674 0.16413 0.08227 0.0
C680 C 0.88593 0.15654 0.10438 0.0
C681 C 0.91633 0.13438 0.16427 0.0
C682 C 0.90567 0.14178 0.14368 0.0
H683 H 0.86738 0.20303 0.05916 0.0
H684 H 0.87545 0.18904 0.09922 0.0
H685 H 0.87201 0.13312 0.10507 0.0
H686 H 0.957 0.13525 0.18437 0.0
H687 H 0.93979 0.14272 0.14722 0.0
C688 C 0.91791 0.6248 0.79311 0.0
C689 C 0.93487 0.62977 0.79221 0.0
C690 C 0.90821 0.62796 0.81519 0.0
C691 C 0.91127 0.63994 0.88448 0.0
H692 H 0.87047 0.66533 0.87179 0.0
C693 C 0.88678 0.6943 0.94582 0.0
C694 C 0.87402 0.68942 0.9631 0.0
C695 C 0.89107 0.68409 0.92492 0.0
C696 C 0.88163 0.65794 0.87556 0.0
H697 H 0.95515 0.64105 0.81429 0.0
H698 H 0.93833 0.64653 0.85252 0.0
H699 H 0.88458 0.65114 0.83567 0.0
H700 H 0.85514 0.67036 0.97102 0.0
H701 H 0.86273 0.65255 0.93403 0.0
H702 H 0.90886 0.64775 0.92405 0.0
C703 C 0.93249 0.64016 0.8363 0.0
C704 C 0.88968 0.64979 0.85501 0.0
C705 C 0.94211 0.63716 0.81425 0.0
C706 C 0.86508 0.67446 0.95817 0.0
C707 C 0.86936 0.66428 0.93708 0.0
C708 C 0.90325 0.6481 0.90493 0.0
C709 C 0.91536 0.63592 0.83684 0.0
C710 C 0.90494 0.64127 0.85914 0.0
C711 C 0.8826 0.66892 0.92072 0.0
C712 C 0.88871 0.65756 0.9004 0.0
H713 H 0.91197 0.61906 0.77643 0.0
H714 H 0.89505 0.62449 0.81515 0.0
H715 H 0.92287 0.63328 0.88828 0.0
H716 H 0.89394 0.70569 0.94896 0.0
H717 H 0.90135 0.6878 0.91241 0.0
C718 C 0.12958 0.1868 0.55976 0.0
C719 C 0.13289 0.17876 0.53609 0.0
C720 C 0.12588 0.1774 0.58185 0.0
C721 C 0.12389 0.15334 0.62802 0.0
H722 H 0.08478 0.12516 0.61669 0.0
C723 C 0.08776 0.12165 0.71196 0.0
C724 C 0.07076 0.12646 0.71242 0.0
C725 C 0.09755 0.12448 0.68991 0.0
C726 C 0.09583 0.1328 0.62007 0.0
H727 H 0.13574 0.15455 0.51725 0.0
H728 H 0.12878 0.13813 0.55587 0.0
H729 H 0.09975 0.13701 0.57954 0.0
H730 H 0.05047 0.13714 0.68971 0.0
H731 H 0.06751 0.14177 0.65107 0.0
H732 H 0.1196 0.14961 0.66859 0.0
C733 C 0.12923 0.1517 0.55726 0.0
C734 C 0.10446 0.13947 0.59887 0.0
C735 C 0.13326 0.1611 0.53524 0.0
C736 C 0.06355 0.1334 0.69 0.0
C737 C 0.07326 0.13593 0.66783 0.0
C738 C 0.11543 0.14644 0.64921 0.0
C739 C 0.12514 0.1598 0.58059 0.0
C740 C 0.11822 0.15024 0.6027 0.0
C741 C 0.09042 0.13183 0.66778 0.0
C742 C 0.101 0.13658 0.64541 0.0
H743 H 0.12931 0.20038 0.56102 0.0
H744 H 0.12264 0.18395 0.59957 0.0
H745 H 0.1345 0.16158 0.63142 0.0
H746 H 0.09369 0.11629 0.72895 0.0
H747 H 0.11076 0.12118 0.69027 0.0
C748 C 0.62339 0.32614 0.45717 0.0
C749 C 0.61333 0.31334 0.46785 0.0
C750 C 0.61808 0.33489 0.43511 0.0
C751 C 0.57966 0.34653 0.40065 0.0
H752 H 0.60753 0.35112 0.33945 0.0
C753 C 0.5516 0.35812 0.30063 0.0
C754 C 0.56008 0.36839 0.28275 0.0
C755 C 0.55887 0.35419 0.32441 0.0
C756 C 0.59971 0.35025 0.35656 0.0
H757 H 0.58995 0.29954 0.46335 0.0
H758 H 0.58077 0.31483 0.42518 0.0
H759 H 0.61932 0.33869 0.37885 0.0
H760 H 0.58277 0.38294 0.27626 0.0
H761 H 0.59546 0.37608 0.3181 0.0
H762 H 0.55999 0.35782 0.37854 0.0
C763 C 0.59268 0.31815 0.43395 0.0
C764 C 0.60645 0.3431 0.37905 0.0
C765 C 0.59804 0.3093 0.45572 0.0
C766 C 0.5759 0.37496 0.28955 0.0
C767 C 0.58321 0.37098 0.31344 0.0
C768 C 0.57297 0.35376 0.37833 0.0
C769 C 0.60253 0.33115 0.42362 0.0
C770 C 0.5963 0.34071 0.401 0.0
C771 C 0.57481 0.36045 0.33104 0.0
C772 C 0.58275 0.35521 0.35577 0.0
H773 H 0.63526 0.32953 0.466 0.0
H774 H 0.6259 0.34486 0.42744 0.0
H775 H 0.57168 0.34513 0.41753 0.0
H776 H 0.53941 0.35282 0.29613 0.0
H777 H 0.55217 0.34581 0.33731 0.0
C778 C 0.40983 0.87293 0.20872 0.0
C779 C 0.42731 0.87119 0.20573 0.0
C780 C 0.39904 0.86961 0.18796 0.0
C781 C 0.39723 0.86484 0.11713 0.0
H782 H 0.3656 0.82875 0.13031 0.0
C783 C 0.37161 0.80655 0.05679 0.0
C784 C 0.36651 0.81433 0.03366 0.0
C785 C 0.37419 0.81606 0.07915 0.0
C786 C 0.37419 0.839 0.12643 0.0
H787 H 0.44723 0.86565 0.17837 0.0
H788 H 0.42843 0.86013 0.14213 0.0
H789 H 0.38007 0.84221 0.16662 0.0
H790 H 0.35908 0.83807 0.01631 0.0
H791 H 0.3639 0.85468 0.05537 0.0
H792 H 0.39201 0.8611 0.07689 0.0
C793 C 0.42307 0.86394 0.16051 0.0
C794 C 0.38237 0.84677 0.14716 0.0
C795 C 0.43382 0.86695 0.18131 0.0
C796 C 0.36307 0.83167 0.03379 0.0
C797 C 0.36586 0.84122 0.0561 0.0
C798 C 0.3889 0.85723 0.09643 0.0
C799 C 0.40558 0.86488 0.16379 0.0
C800 C 0.39443 0.85931 0.14258 0.0
C801 C 0.37188 0.83355 0.07876 0.0
C802 C 0.37779 0.84381 0.10085 0.0
H803 H 0.40446 0.87619 0.22734 0.0
H804 H 0.38559 0.87043 0.1909 0.0
H805 H 0.40642 0.87455 0.11316 0.0
H806 H 0.37426 0.79321 0.05738 0.0
H807 H 0.37898 0.80985 0.09631 0.0
C808 C 0.91022 0.37594 0.70418 0.0
C809 C 0.92142 0.36332 0.71235 0.0
C810 C 0.89821 0.3725 0.68502 0.0
C811 C 0.87467 0.33801 0.65571 0.0
H812 H 0.87979 0.36034 0.58946 0.0
C813 C 0.86703 0.30406 0.56022 0.0
C814 C 0.86211 0.31266 0.53771 0.0
C815 C 0.86817 0.31246 0.58384 0.0
C816 C 0.87775 0.35426 0.60796 0.0
H817 H 0.92851 0.33718 0.7074 0.0
H818 H 0.90749 0.33122 0.67457 0.0
H819 H 0.89361 0.37187 0.62777 0.0
H820 H 0.8533 0.33659 0.52277 0.0
H821 H 0.85532 0.35129 0.56422 0.0
H822 H 0.85949 0.31996 0.63588 0.0
C823 C 0.90805 0.34374 0.68278 0.0
C824 C 0.88571 0.36088 0.62987 0.0
C825 C 0.92021 0.34723 0.70136 0.0
C826 C 0.85724 0.32961 0.53973 0.0
C827 C 0.85846 0.33806 0.56343 0.0
C828 C 0.8666 0.3315 0.63393 0.0
C829 C 0.89696 0.3563 0.67441 0.0
C830 C 0.88492 0.35229 0.65356 0.0
C831 C 0.86441 0.32969 0.58557 0.0
C832 C 0.86883 0.33902 0.60954 0.0
H833 H 0.91087 0.38845 0.71238 0.0
H834 H 0.88983 0.38239 0.67864 0.0
H835 H 0.87376 0.3313 0.67393 0.0
H836 H 0.87074 0.29098 0.55944 0.0
H837 H 0.873 0.30563 0.60039 0.0
C838 C 0.41585 0.12555 0.29304 0.0
C839 C 0.43343 0.12745 0.29319 0.0
C840 C 0.40623 0.13109 0.31406 0.0
C841 C 0.38934 0.13945 0.36621 0.0
H842 H 0.40455 0.18259 0.39205 0.0
C843 C 0.36691 0.17024 0.46198 0.0
C844 C 0.36711 0.18788 0.46349 0.0
C845 C 0.37179 0.16211 0.43917 0.0
C846 C 0.39992 0.17068 0.38484 0.0
H847 H 0.45478 0.13518 0.31644 0.0
H848 H 0.43808 0.14447 0.35317 0.0
H849 H 0.42003 0.16886 0.35772 0.0
H850 H 0.37064 0.21081 0.44147 0.0
H851 H 0.37865 0.19666 0.40154 0.0
H852 H 0.36906 0.14149 0.39343 0.0
C853 C 0.43167 0.13922 0.33651 0.0
C854 C 0.40901 0.16265 0.36544 0.0
C855 C 0.44125 0.13381 0.31551 0.0
C856 C 0.37068 0.1972 0.44106 0.0
C857 C 0.37535 0.18909 0.41822 0.0
C858 C 0.38019 0.14753 0.38577 0.0
C859 C 0.41404 0.13853 0.33562 0.0
C860 C 0.40398 0.14686 0.3561 0.0
C861 C 0.37679 0.17149 0.41742 0.0
C862 C 0.38545 0.16323 0.39535 0.0
H863 H 0.40942 0.12065 0.27615 0.0
H864 H 0.39266 0.13038 0.31281 0.0
H865 H 0.38515 0.12729 0.35936 0.0
H866 H 0.36417 0.16269 0.47892 0.0
H867 H 0.37276 0.14854 0.43922 0.0
C868 C 0.57429 0.65688 0.21092 0.0
C869 C 0.5749 0.64 0.21871 0.0
C870 C 0.58332 0.66233 0.18946 0.0
C871 C 0.61731 0.65167 0.14336 0.0
H872 H 0.59283 0.68319 0.10025 0.0
C873 C 0.63453 0.67401 0.03815 0.0
C874 C 0.63183 0.69122 0.03336 0.0
C875 C 0.63062 0.66709 0.06237 0.0
C876 C 0.5999 0.67452 0.11222 0.0
H877 H 0.58598 0.61567 0.21072 0.0
H878 H 0.60146 0.62515 0.17227 0.0
H879 H 0.57958 0.67185 0.13871 0.0
H880 H 0.6247 0.71492 0.05103 0.0
H881 H 0.61794 0.70285 0.09302 0.0
H882 H 0.63751 0.65421 0.11592 0.0
C883 C 0.59414 0.63419 0.18314 0.0
C884 C 0.59233 0.66803 0.13431 0.0
C885 C 0.58522 0.62875 0.20503 0.0
C886 C 0.62661 0.70157 0.05388 0.0
C887 C 0.62273 0.69468 0.07795 0.0
C888 C 0.62488 0.65809 0.1209 0.0
C889 C 0.59298 0.651 0.17485 0.0
C890 C 0.60103 0.65681 0.15049 0.0
C891 C 0.62399 0.6773 0.08205 0.0
C892 C 0.61631 0.66984 0.10546 0.0
H893 H 0.56679 0.66596 0.22144 0.0
H894 H 0.58257 0.67547 0.18414 0.0
H895 H 0.62433 0.64303 0.15543 0.0
H896 H 0.63864 0.6657 0.02278 0.0
H897 H 0.63171 0.65365 0.06511 0.0
C898 C 0.08414 0.87828 0.78485 0.0
C899 C 0.06669 0.87547 0.78449 0.0
C900 C 0.09345 0.8751 0.80728 0.0
C901 C 0.0908 0.86817 0.87761 0.0
H902 H 0.12521 0.83437 0.86675 0.0
C903 C 0.11827 0.81088 0.93903 0.0
C904 C 0.12317 0.81872 0.96221 0.0
C905 C 0.11513 0.82041 0.91687 0.0
C906 C 0.1158 0.84397 0.87001 0.0
H907 H 0.04518 0.86833 0.80781 0.0
H908 H 0.06142 0.86308 0.84706 0.0
H909 H 0.11192 0.84785 0.8294 0.0
H910 H 0.12926 0.84264 0.9801 0.0
H911 H 0.1233 0.85935 0.94136 0.0
H912 H 0.09426 0.86384 0.91822 0.0
C913 C 0.06789 0.86761 0.82996 0.0
C914 C 0.10829 0.85175 0.84871 0.0
C915 C 0.05861 0.87051 0.80745 0.0
C916 C 0.12554 0.83623 0.96249 0.0
C917 C 0.12207 0.84581 0.94042 0.0
C918 C 0.09851 0.86059 0.89892 0.0
C919 C 0.08544 0.86938 0.82984 0.0
C920 C 0.09535 0.86353 0.85233 0.0
C921 C 0.11656 0.83799 0.91757 0.0
C922 C 0.1107 0.84805 0.89527 0.0
H923 H 0.09074 0.88209 0.76746 0.0
H924 H 0.10697 0.87662 0.80678 0.0
H925 H 0.08088 0.87725 0.88086 0.0
H926 H 0.11643 0.7974 0.93821 0.0
H927 H 0.11076 0.8141 0.89953 0.0
C928 C 0.06769 0.32432 0.33311 0.0
C929 C 0.07368 0.34057 0.32761 0.0
C930 C 0.07811 0.31238 0.34447 0.0
C931 C 0.10589 0.28699 0.34995 0.0
H932 H 0.13103 0.29466 0.41319 0.0
C933 C 0.14398 0.23381 0.39696 0.0
C934 C 0.14115 0.23176 0.42362 0.0
C935 C 0.13888 0.24853 0.38441 0.0
C936 C 0.12412 0.29237 0.39545 0.0
H937 H 0.09523 0.35715 0.33094 0.0
H938 H 0.11351 0.33606 0.35118 0.0
H939 H 0.11559 0.31792 0.39313 0.0
H940 H 0.13139 0.24373 0.45825 0.0
H941 H 0.12227 0.26921 0.43633 0.0
H942 H 0.11376 0.26141 0.35258 0.0
C943 C 0.10069 0.3327 0.34638 0.0
C944 C 0.11541 0.3057 0.3839 0.0
C945 C 0.09023 0.34474 0.33479 0.0
C946 C 0.13368 0.24492 0.43765 0.0
C947 C 0.1286 0.25961 0.42512 0.0
C948 C 0.11463 0.27374 0.36136 0.0
C949 C 0.0948 0.3163 0.35078 0.0
C950 C 0.10584 0.30299 0.36143 0.0
C951 C 0.13086 0.26147 0.39827 0.0
C952 C 0.12352 0.27616 0.38457 0.0
H953 H 0.05498 0.32066 0.32824 0.0
H954 H 0.07311 0.29995 0.34821 0.0
H955 H 0.09879 0.28461 0.33242 0.0
H956 H 0.14983 0.22394 0.3857 0.0
H957 H 0.14098 0.24967 0.36375 0.0
C958 C 0.90421 0.83182 0.57473 0.0
C959 C 0.90732 0.8158 0.56426 0.0
C960 C 0.91723 0.84111 0.58601 0.0
C961 C 0.96371 0.84416 0.5886 0.0
H962 H 0.95571 0.86726 0.65356 0.0
C963 C 0.00401 0.87098 0.68028 0.0
C964 C 0.01709 0.87936 0.66739 0.0
C965 C 0.9901 0.86508 0.66657 0.0
C966 C 0.95815 0.86084 0.63544 0.0
H967 H 0.92662 0.79701 0.55763 0.0
H968 H 0.94913 0.81305 0.57754 0.0
H969 H 0.93252 0.8531 0.63175 0.0
H970 H 0.02576 0.8884 0.6301 0.0
H971 H 0.00133 0.87817 0.60608 0.0
H972 H 0.98947 0.85135 0.59278 0.0
C973 C 0.93671 0.81858 0.57664 0.0
C974 C 0.94482 0.85289 0.62279 0.0
C975 C 0.92374 0.80931 0.56539 0.0
C976 C 0.01588 0.88193 0.64053 0.0
C977 C 0.00193 0.87601 0.62678 0.0
C978 C 0.97704 0.85211 0.60125 0.0
C979 C 0.93364 0.8346 0.58705 0.0
C980 C 0.9475 0.8442 0.59944 0.0
C981 C 0.98892 0.86742 0.63964 0.0
C982 C 0.97448 0.8603 0.62505 0.0
H983 H 0.89175 0.83726 0.57412 0.0
H984 H 0.91448 0.85348 0.59366 0.0
H985 H 0.96615 0.83781 0.57043 0.0
H986 H 0.00458 0.86879 0.70097 0.0
H987 H 0.98045 0.85829 0.67703 0.0
C988 C 0.37285 0.75178 0.92976 0.0
C989 C 0.36531 0.76508 0.91618 0.0
C990 C 0.37925 0.73791 0.91651 0.0
C991 C 0.39533 0.72544 0.85264 0.0
H992 H 0.39276 0.68063 0.88189 0.0
C993 C 0.41596 0.65294 0.82566 0.0
C994 C 0.43233 0.65606 0.81656 0.0
C995 C 0.40648 0.66583 0.83686 0.0
C996 C 0.39344 0.69302 0.87329 0.0
H997 H 0.35817 0.77414 0.87814 0.0
H998 H 0.36922 0.74976 0.85491 0.0
H999 H 0.37766 0.70366 0.90259 0.0
H1000 H 0.45163 0.67518 0.81261 0.0
H1001 H 0.43524 0.69747 0.83244 0.0
H1002 H 0.41099 0.71481 0.82325 0.0
C1003 C 0.37038 0.75018 0.8758 0.0
C1004 C 0.38493 0.70625 0.88531 0.0
C1005 C 0.36398 0.76409 0.8891 0.0
C1006 C 0.43905 0.67231 0.81924 0.0
C1007 C 0.42959 0.68516 0.83044 0.0
C1008 C 0.40381 0.71221 0.84062 0.0
C1009 C 0.37822 0.73699 0.88937 0.0
C1010 C 0.386 0.72267 0.87535 0.0
C1011 C 0.41316 0.68211 0.83923 0.0
C1012 C 0.40319 0.6959 0.85104 0.0
H1013 H 0.37407 0.75218 0.95065 0.0
H1014 H 0.38542 0.72813 0.92754 0.0
H1015 H 0.39653 0.73794 0.84456 0.0
H1016 H 0.41036 0.6406 0.82385 0.0
H1017 H 0.39382 0.66311 0.84327 0.0
C1018 C 0.57372 0.17489 0.05514 0.0
C1019 C 0.58993 0.1773 0.06516 0.0
C1020 C 0.56174 0.16591 0.06905 0.0
C1021 C 0.5557 0.1373 0.12552 0.0
H1022 H 0.50979 0.15317 0.11926 0.0
C1023 C 0.49962 0.11919 0.19287 0.0
C1024 C 0.48485 0.11426 0.18002 0.0
C1025 C 0.51338 0.1252 0.17884 0.0
C1026 C 0.52254 0.14853 0.12102 0.0
H1027 H 0.6065 0.17191 0.09736 0.0
H1028 H 0.58522 0.15678 0.12253 0.0
H1029 H 0.53204 0.1674 0.09571 0.0
H1030 H 0.47298 0.11139 0.14247 0.0
H1031 H 0.49691 0.12235 0.11799 0.0
H1032 H 0.54595 0.11885 0.15195 0.0
C1033 C 0.58189 0.16149 0.10354 0.0
C1034 C 0.53533 0.1566 0.10741 0.0
C1035 C 0.59406 0.17022 0.08924 0.0
C1036 C 0.48422 0.11507 0.15286 0.0
C1037 C 0.49786 0.12137 0.13888 0.0
C1038 C 0.54288 0.1294 0.13956 0.0
C1039 C 0.56548 0.15942 0.09373 0.0
C1040 C 0.55207 0.15099 0.10916 0.0
C1041 C 0.51246 0.12668 0.15178 0.0
C1042 C 0.52618 0.13486 0.13717 0.0
H1043 H 0.57029 0.1799 0.03635 0.0
H1044 H 0.54949 0.16411 0.06037 0.0
H1045 H 0.56838 0.13249 0.12718 0.0
H1046 H 0.50043 0.11866 0.21381 0.0
H1047 H 0.52449 0.12932 0.18918 0.0
C1048 C 0.05819 0.67465 0.17659 0.0
C1049 C 0.06399 0.65798 0.178 0.0
C1050 C 0.06795 0.68715 0.16512 0.0
C1051 C 0.10225 0.69415 0.11886 0.0
H1052 H 0.10311 0.73835 0.15052 0.0
C1053 C 0.13361 0.76437 0.10219 0.0
C1054 C 0.13016 0.76626 0.07566 0.0
C1055 C 0.12762 0.75035 0.11572 0.0
C1056 C 0.10321 0.72604 0.14159 0.0
H1057 H 0.08465 0.64141 0.16801 0.0
H1058 H 0.10174 0.66336 0.14785 0.0
H1059 H 0.08888 0.71529 0.17249 0.0
H1060 H 0.11803 0.75486 0.04239 0.0
H1061 H 0.10751 0.73057 0.06593 0.0
H1062 H 0.11652 0.70495 0.08788 0.0
C1063 C 0.08955 0.66666 0.15565 0.0
C1064 C 0.09488 0.71287 0.15403 0.0
C1065 C 0.07976 0.6541 0.16723 0.0
C1066 C 0.12089 0.75376 0.06284 0.0
C1067 C 0.11498 0.73975 0.07629 0.0
C1068 C 0.11055 0.70734 0.10637 0.0
C1069 C 0.08379 0.68335 0.15469 0.0
C1070 C 0.09401 0.69686 0.14257 0.0
C1071 C 0.11815 0.73793 0.10293 0.0
C1072 C 0.11085 0.72351 0.11737 0.0
H1073 H 0.04608 0.67816 0.1845 0.0
H1074 H 0.06298 0.6998 0.16422 0.0
H1075 H 0.10177 0.68198 0.10949 0.0
H1076 H 0.14075 0.77379 0.11257 0.0
H1077 H 0.13038 0.74923 0.1362 0.0
C1078 C 0.49878 0.87146 0.29269 0.0
C1079 C 0.48937 0.88441 0.30408 0.0
C1080 C 0.5142 0.86665 0.30314 0.0
C1081 C 0.53912 0.86933 0.3639 0.0
H1082 H 0.57289 0.84815 0.32063 0.0
C1083 C 0.60032 0.8414 0.40536 0.0
C1084 C 0.59979 0.82382 0.40301 0.0
C1085 C 0.58969 0.85145 0.39034 0.0
C1086 C 0.56363 0.85422 0.33284 0.0
H1087 H 0.48898 0.90294 0.33479 0.0
H1088 H 0.51634 0.89511 0.35246 0.0
H1089 H 0.54867 0.86171 0.3005 0.0
H1090 H 0.58885 0.80302 0.38184 0.0
H1091 H 0.5708 0.82068 0.35477 0.0
H1092 H 0.55437 0.86192 0.39616 0.0
C1093 C 0.51157 0.88822 0.33594 0.0
C1094 C 0.54964 0.86182 0.32142 0.0
C1095 C 0.49592 0.8928 0.32576 0.0
C1096 C 0.58951 0.81655 0.38395 0.0
C1097 C 0.57923 0.82662 0.36849 0.0
C1098 C 0.55331 0.86208 0.37523 0.0
C1099 C 0.52084 0.87492 0.32496 0.0
C1100 C 0.53689 0.86899 0.33683 0.0
C1101 C 0.57877 0.84407 0.37228 0.0
C1102 C 0.56542 0.85408 0.35983 0.0
H1103 H 0.49406 0.8647 0.27602 0.0
H1104 H 0.52063 0.8561 0.29442 0.0
H1105 H 0.52956 0.87446 0.37654 0.0
H1106 H 0.60799 0.84731 0.42012 0.0
H1107 H 0.58949 0.86489 0.39357 0.0
C1108 C 0.36814 0.23025 0.61098 0.0
C1109 C 0.36354 0.23218 0.58489 0.0
C1110 C 0.37527 0.24368 0.62458 0.0
C1111 C 0.37943 0.28935 0.62675 0.0
H1112 H 0.42322 0.28086 0.65685 0.0
C1113 C 0.42151 0.34325 0.66502 0.0
C1114 C 0.4319 0.33991 0.6864 0.0
C1115 C 0.41248 0.33027 0.65314 0.0
C1116 C 0.41087 0.28345 0.64906 0.0
H1117 H 0.3621 0.24972 0.55283 0.0
H1118 H 0.37413 0.2733 0.57686 0.0
H1119 H 0.40779 0.25795 0.6367 0.0
H1120 H 0.44052 0.32047 0.71266 0.0
H1121 H 0.42434 0.2981 0.69284 0.0
H1122 H 0.38221 0.31474 0.63956 0.0
C1123 C 0.37237 0.2614 0.58668 0.0
C1124 C 0.40207 0.27029 0.63742 0.0
C1125 C 0.36556 0.24791 0.57294 0.0
C1126 C 0.43284 0.32341 0.69594 0.0
C1127 C 0.4236 0.31053 0.68443 0.0
C1128 C 0.38808 0.30249 0.63883 0.0
C1129 C 0.37759 0.25931 0.61244 0.0
C1130 C 0.38634 0.27314 0.62603 0.0
C1131 C 0.41341 0.31371 0.6627 0.0
C1132 C 0.40398 0.29974 0.65004 0.0
H1133 H 0.36679 0.21823 0.62059 0.0
H1134 H 0.37916 0.24181 0.64449 0.0
H1135 H 0.36726 0.29182 0.61814 0.0
H1136 H 0.42059 0.35585 0.6572 0.0
H1137 H 0.405 0.3332 0.63622 0.0
C1138 C 0.00475 0.12683 0.81151 0.0
C1139 C 0.01692 0.11684 0.82381 0.0
C1140 C 0.99071 0.13253 0.82513 0.0
C1141 C 0.97617 0.14186 0.89105 0.0
H1142 H 0.93248 0.14449 0.85795 0.0
C1143 C 0.90354 0.16297 0.91692 0.0
C1144 C 0.90688 0.17831 0.92944 0.0
C1145 C 0.91649 0.15397 0.90489 0.0
C1146 C 0.94454 0.14368 0.86759 0.0
H1147 H 0.02384 0.1048 0.85993 0.0
H1148 H 0.99922 0.11478 0.88381 0.0
H1149 H 0.95577 0.13089 0.83546 0.0
H1150 H 0.92656 0.19619 0.93898 0.0
H1151 H 0.94895 0.18063 0.91793 0.0
H1152 H 0.96496 0.15467 0.92315 0.0
C1153 C 0.00063 0.11828 0.86365 0.0
C1154 C 0.95793 0.13604 0.8546 0.0
C1155 C 0.01468 0.11251 0.84996 0.0
C1156 C 0.92347 0.18442 0.92961 0.0
C1157 C 0.93638 0.17542 0.91769 0.0
C1158 C 0.9628 0.14953 0.904 0.0
C1159 C 0.98852 0.12842 0.85139 0.0
C1160 C 0.97396 0.13527 0.86603 0.0
C1161 C 0.93307 0.16008 0.90523 0.0
C1162 C 0.9469 0.15077 0.89226 0.0
H1163 H 0.00612 0.1304 0.79137 0.0
H1164 H 0.98177 0.14052 0.8152 0.0
H1165 H 0.98837 0.14157 0.90034 0.0
H1166 H 0.89093 0.15786 0.91643 0.0
H1167 H 0.91356 0.14214 0.89558 0.0
C1168 C 0.91849 0.65445 0.67015 0.0
C1169 C 0.93549 0.65779 0.67562 0.0
C1170 C 0.9086 0.66645 0.65741 0.0
C1171 C 0.9069 0.71212 0.64788 0.0
H1172 H 0.87563 0.70262 0.59219 0.0
C1173 C 0.87136 0.75095 0.56289 0.0
C1174 C 0.86524 0.76473 0.57702 0.0
C1175 C 0.87778 0.73689 0.57565 0.0
C1176 C 0.88431 0.70544 0.60777 0.0
H1177 H 0.95568 0.67582 0.67025 0.0
H1178 H 0.93853 0.6965 0.64805 0.0
H1179 H 0.8916 0.67961 0.61189 0.0
H1180 H 0.86055 0.77443 0.61559 0.0
H1181 H 0.87182 0.74981 0.63798 0.0
H1182 H 0.90004 0.73791 0.64347 0.0
C1183 C 0.93273 0.68485 0.65416 0.0
C1184 C 0.89334 0.69226 0.61913 0.0
C1185 C 0.94257 0.67293 0.66679 0.0
C1186 C 0.86526 0.76401 0.6042 0.0
C1187 C 0.87175 0.74995 0.61699 0.0
C1188 C 0.89784 0.72523 0.63667 0.0
C1189 C 0.91554 0.68197 0.65 0.0
C1190 C 0.90497 0.69555 0.63896 0.0
C1191 C 0.87828 0.73632 0.60284 0.0
C1192 C 0.88663 0.72209 0.61622 0.0
H1193 H 0.91266 0.64291 0.67668 0.0
H1194 H 0.89538 0.6639 0.65437 0.0
H1195 H 0.91558 0.715 0.66343 0.0
H1196 H 0.87147 0.75112 0.5419 0.0
H1197 H 0.88289 0.7267 0.56419 0.0
C1198 C 0.0007 0.12532 0.30877 0.0
C1199 C 0.98753 0.11722 0.32188 0.0
C1200 C 0.01456 0.13148 0.32235 0.0
C1201 C 0.04629 0.13675 0.35381 0.0
H1202 H 0.03759 0.16045 0.41803 0.0
C1203 C 0.09946 0.16546 0.41671 0.0
C1204 C 0.09632 0.18138 0.42752 0.0
C1205 C 0.08661 0.15653 0.40433 0.0
C1206 C 0.04023 0.15394 0.40005 0.0
H1207 H 0.97875 0.10881 0.35946 0.0
H1208 H 0.0031 0.11944 0.38324 0.0
H1209 H 0.01456 0.14655 0.39554 0.0
H1210 H 0.07718 0.20048 0.43327 0.0
H1211 H 0.05498 0.18504 0.41144 0.0
H1212 H 0.07187 0.14464 0.3579 0.0
C1213 C 0.00259 0.12122 0.36246 0.0
C1214 C 0.02705 0.14578 0.38734 0.0
C1215 C 0.98869 0.11505 0.34883 0.0
C1216 C 0.08009 0.18822 0.42532 0.0
C1217 C 0.06728 0.17931 0.41295 0.0
C1218 C 0.05948 0.14492 0.36653 0.0
C1219 C 0.01561 0.12967 0.34939 0.0
C1220 C 0.02988 0.13725 0.36389 0.0
C1221 C 0.07034 0.1633 0.40248 0.0
C1222 C 0.05655 0.15381 0.38963 0.0
H1223 H 0.00018 0.1272 0.288 0.0
H1224 H 0.02423 0.13812 0.3117 0.0
H1225 H 0.04894 0.13012 0.33594 0.0
H1226 H 0.11178 0.15977 0.4181 0.0
H1227 H 0.08936 0.14417 0.39663 0.0
C1228 C 0.61481 0.24195 0.05347 0.0
C1229 C 0.62831 0.23312 0.06439 0.0
C1230 C 0.60868 0.25648 0.06525 0.0
C1231 C 0.6092 0.27984 0.12782 0.0
H1232 H 0.58866 0.31451 0.08554 0.0
C1233 C 0.58327 0.34291 0.16825 0.0
C1234 C 0.56588 0.34439 0.16405 0.0
C1235 C 0.59256 0.33064 0.15515 0.0
C1236 C 0.59445 0.30494 0.09751 0.0
H1237 H 0.64624 0.23269 0.09594 0.0
H1238 H 0.63608 0.25853 0.11599 0.0
H1239 H 0.60237 0.29068 0.06469 0.0
H1240 H 0.54473 0.33485 0.14207 0.0
H1241 H 0.56114 0.31384 0.11845 0.0
H1242 H 0.6015 0.29452 0.16059 0.0
C1243 C 0.62982 0.25398 0.09875 0.0
C1244 C 0.60216 0.29118 0.08565 0.0
C1245 C 0.63573 0.23921 0.0872 0.0
C1246 C 0.5581 0.33393 0.14571 0.0
C1247 C 0.56746 0.32197 0.13217 0.0
C1248 C 0.6018 0.2938 0.13963 0.0
C1249 C 0.61613 0.26279 0.088 0.0
C1250 C 0.6093 0.27821 0.10063 0.0
C1251 C 0.58468 0.32002 0.13716 0.0
C1252 C 0.59408 0.30627 0.12457 0.0
H1253 H 0.60873 0.23749 0.03601 0.0
H1254 H 0.59786 0.26256 0.05667 0.0
H1255 H 0.6143 0.27007 0.1401 0.0
H1256 H 0.58954 0.35075 0.18242 0.0
H1257 H 0.60584 0.32932 0.15924 0.0
C1258 C 0.40581 0.83179 0.92265 0.0
C1259 C 0.40758 0.81465 0.92869 0.0
C1260 C 0.41928 0.84083 0.91219 0.0
C1261 C 0.46568 0.83942 0.90494 0.0
H1262 H 0.4578 0.87128 0.84948 0.0
C1263 C 0.50478 0.87409 0.81859 0.0
C1264 C 0.51895 0.88005 0.83197 0.0
C1265 C 0.49111 0.86746 0.83199 0.0
C1266 C 0.46021 0.86241 0.86495 0.0
H1267 H 0.4248 0.79351 0.92774 0.0
H1268 H 0.44805 0.80914 0.90906 0.0
H1269 H 0.43408 0.85676 0.86918 0.0
H1270 H 0.52992 0.88376 0.86997 0.0
H1271 H 0.50586 0.8721 0.89361 0.0
H1272 H 0.49188 0.84465 0.90001 0.0
C1273 C 0.43643 0.81573 0.91303 0.0
C1274 C 0.44659 0.85421 0.87643 0.0
C1275 C 0.42302 0.80673 0.92358 0.0
C1276 C 0.51915 0.87928 0.85916 0.0
C1277 C 0.50542 0.87254 0.87265 0.0
C1278 C 0.47931 0.84763 0.89345 0.0
C1279 C 0.43479 0.83292 0.90741 0.0
C1280 C 0.44918 0.84243 0.8963 0.0
C1281 C 0.49124 0.86658 0.85916 0.0
C1282 C 0.47674 0.85901 0.87303 0.0
H1283 H 0.39414 0.83831 0.92646 0.0
H1284 H 0.41763 0.85409 0.90827 0.0
H1285 H 0.4681 0.83062 0.9205 0.0
H1286 H 0.50423 0.87447 0.79762 0.0
H1287 H 0.48055 0.86271 0.82098 0.0
C1288 C 0.86999 0.2425 0.93356 0.0
C1289 C 0.86389 0.22874 0.91934 0.0
C1290 C 0.8762 0.25668 0.92094 0.0
C1291 C 0.89559 0.2692 0.85978 0.0
H1292 H 0.88936 0.31431 0.88662 0.0
C1293 C 0.91516 0.34096 0.82947 0.0
C1294 C 0.93202 0.3379 0.82277 0.0
C1295 C 0.90566 0.32852 0.84189 0.0
C1296 C 0.8911 0.30181 0.87878 0.0
H1297 H 0.85901 0.21923 0.88073 0.0
H1298 H 0.8699 0.24413 0.85851 0.0
H1299 H 0.87367 0.29093 0.90559 0.0
H1300 H 0.95242 0.31987 0.8256 0.0
H1301 H 0.93595 0.29845 0.84741 0.0
H1302 H 0.91302 0.28 0.83304 0.0
C1303 C 0.86998 0.24384 0.87949 0.0
C1304 C 0.88222 0.28841 0.88973 0.0
C1305 C 0.8637 0.22963 0.89217 0.0
C1306 C 0.9394 0.32258 0.83011 0.0
C1307 C 0.92994 0.31023 0.84246 0.0
C1308 C 0.90449 0.28255 0.84892 0.0
C1309 C 0.87648 0.25744 0.89376 0.0
C1310 C 0.88456 0.27192 0.88058 0.0
C1311 C 0.91285 0.31285 0.8478 0.0
C1312 C 0.90257 0.29895 0.85858 0.0
H1313 H 0.87027 0.24221 0.95454 0.0
H1314 H 0.88131 0.26682 0.93251 0.0
H1315 H 0.89779 0.25664 0.85243 0.0
H1316 H 0.90909 0.35261 0.82407 0.0
H1317 H 0.89251 0.33091 0.84582 0.0
C1318 C 0.50359 0.12259 0.67937 0.0
C1319 C 0.51894 0.12044 0.66646 0.0
C1320 C 0.48986 0.1297 0.66664 0.0
C1321 C 0.47403 0.14174 0.60093 0.0
H1322 H 0.44347 0.16914 0.64145 0.0
C1323 C 0.42456 0.18788 0.55843 0.0
C1324 C 0.40804 0.1854 0.56727 0.0
C1325 C 0.43794 0.17921 0.56977 0.0
C1326 C 0.45187 0.16143 0.62998 0.0
H1327 H 0.5321 0.12406 0.63019 0.0
H1328 H 0.50841 0.13728 0.60818 0.0
H1329 H 0.46738 0.15587 0.66255 0.0
H1330 H 0.39256 0.172 0.59499 0.0
H1331 H 0.41611 0.15726 0.61543 0.0
H1332 H 0.45872 0.14816 0.56814 0.0
C1333 C 0.50668 0.13295 0.62788 0.0
C1334 C 0.46553 0.1537 0.64204 0.0
C1335 C 0.52033 0.12547 0.6405 0.0
C1336 C 0.40516 0.17411 0.58773 0.0
C1337 C 0.41859 0.16573 0.59946 0.0
C1338 C 0.46054 0.14979 0.58879 0.0
C1339 C 0.49126 0.13525 0.64082 0.0
C1340 C 0.47677 0.14363 0.62775 0.0
C1341 C 0.43507 0.16819 0.59053 0.0
C1342 C 0.44931 0.15961 0.60326 0.0
H1343 H 0.50215 0.11866 0.69935 0.0
H1344 H 0.47814 0.13079 0.67712 0.0
H1345 H 0.48216 0.13389 0.58929 0.0
H1346 H 0.42714 0.19643 0.54259 0.0
H1347 H 0.45057 0.18134 0.56268 0.0
C1348 C 0.63859 0.76004 0.41258 0.0
C1349 C 0.62991 0.76677 0.43393 0.0
C1350 C 0.63296 0.74517 0.40081 0.0
C1351 C 0.59455 0.72298 0.38809 0.0
H1352 H 0.61999 0.68167 0.38142 0.0
C1353 C 0.56142 0.66356 0.3544 0.0
C1354 C 0.56981 0.65333 0.33647 0.0
C1355 C 0.57013 0.67594 0.36803 0.0
C1356 C 0.61278 0.69316 0.38284 0.0
H1357 H 0.60891 0.7629 0.46015 0.0
H1358 H 0.59897 0.73745 0.43924 0.0
H1359 H 0.63335 0.70669 0.40012 0.0
H1360 H 0.59403 0.64736 0.31968 0.0
H1361 H 0.60921 0.66938 0.34283 0.0
H1362 H 0.57416 0.71001 0.37039 0.0
C1363 C 0.6101 0.74359 0.43168 0.0
C1364 C 0.62045 0.70744 0.39352 0.0
C1365 C 0.61581 0.75819 0.4436 0.0
C1366 C 0.58728 0.65502 0.33355 0.0
C1367 C 0.59597 0.66766 0.34683 0.0
C1368 C 0.587 0.70889 0.37714 0.0
C1369 C 0.61847 0.73706 0.41004 0.0
C1370 C 0.61126 0.72235 0.39659 0.0
C1371 C 0.58737 0.67867 0.36356 0.0
C1372 C 0.59586 0.69367 0.37481 0.0
H1373 H 0.64953 0.76636 0.4048 0.0
H1374 H 0.63956 0.74032 0.38405 0.0
H1375 H 0.58729 0.73443 0.39001 0.0
H1376 H 0.54798 0.66239 0.35722 0.0
H1377 H 0.56318 0.68375 0.38145 0.0
C1378 C 0.09701 0.83131 0.09471 0.0
C1379 C 0.09182 0.82261 0.07241 0.0
C1380 C 0.08553 0.84121 0.10854 0.0
C1381 C 0.04668 0.86504 0.10251 0.0
H1382 H 0.03665 0.85162 0.173 0.0
C1383 C 0.98514 0.88457 0.1529 0.0
C1384 C 0.98487 0.88616 0.17996 0.0
C1385 C 0.99963 0.87893 0.1403 0.0
C1386 C 0.03949 0.85589 0.15357 0.0
H1387 H 0.07087 0.81798 0.04647 0.0
H1388 H 0.05109 0.8356 0.07017 0.0
H1389 H 0.06007 0.83865 0.15019 0.0
H1390 H 0.99964 0.88388 0.21502 0.0
H1391 H 0.02516 0.87488 0.19308 0.0
H1392 H 0.02632 0.8824 0.1057 0.0
C1393 C 0.06389 0.83459 0.07715 0.0
C1394 C 0.0529 0.84837 0.14052 0.0
C1395 C 0.07518 0.82441 0.06374 0.0
C1396 C 0.99948 0.88259 0.19412 0.0
C1397 C 0.01408 0.8773 0.18152 0.0
C1398 C 0.03347 0.87281 0.1157 0.0
C1399 C 0.06889 0.84292 0.09979 0.0
C1400 C 0.05635 0.8526 0.11471 0.0
C1401 C 0.01429 0.87508 0.15446 0.0
C1402 C 0.02941 0.86806 0.14122 0.0
H1403 H 0.10976 0.83012 0.10178 0.0
H1404 H 0.08962 0.84754 0.12603 0.0
H1405 H 0.0492 0.86855 0.0826 0.0
H1406 H 0.97398 0.88713 0.14155 0.0
H1407 H 0.99912 0.8771 0.11954 0.0
C1408 C 0.63374 0.74631 0.91918 0.0
C1409 C 0.6357 0.73034 0.90799 0.0
C1410 C 0.62816 0.75984 0.90433 0.0
C1411 C 0.60144 0.76924 0.84987 0.0
H1412 H 0.62175 0.8135 0.85237 0.0
C1413 C 0.57134 0.82456 0.79553 0.0
C1414 C 0.57164 0.8404 0.80749 0.0
C1415 C 0.5811 0.81139 0.80513 0.0
C1416 C 0.61578 0.80129 0.85168 0.0
H1417 H 0.63364 0.71602 0.87244 0.0
H1418 H 0.62338 0.73973 0.84647 0.0
H1419 H 0.63549 0.78993 0.874 0.0
H1420 H 0.58258 0.85499 0.83863 0.0
H1421 H 0.599 0.83179 0.8563 0.0
H1422 H 0.58128 0.78051 0.82896 0.0
C1423 C 0.62636 0.74173 0.86672 0.0
C1424 C 0.62375 0.78778 0.86391 0.0
C1425 C 0.63227 0.72821 0.88151 0.0
C1426 C 0.58216 0.84291 0.82898 0.0
C1427 C 0.59166 0.8296 0.83897 0.0
C1428 C 0.59333 0.78277 0.83804 0.0
C1429 C 0.62414 0.75763 0.87808 0.0
C1430 C 0.61658 0.77166 0.86326 0.0
C1431 C 0.59111 0.81358 0.82735 0.0
C1432 C 0.6003 0.79904 0.83892 0.0
H1433 H 0.63634 0.74831 0.93955 0.0
H1434 H 0.6264 0.77192 0.91362 0.0
H1435 H 0.59552 0.75699 0.84944 0.0
H1436 H 0.56356 0.82235 0.77864 0.0
H1437 H 0.58067 0.79944 0.79513 0.0
C1438 C 0.50071 0.38321 0.17525 0.0
C1439 C 0.51656 0.38657 0.16449 0.0
C1440 C 0.48756 0.37758 0.15962 0.0
C1441 C 0.48006 0.35191 0.10405 0.0
H1442 H 0.43506 0.37056 0.10438 0.0
C1443 C 0.42685 0.32015 0.04664 0.0
C1444 C 0.41069 0.3202 0.05752 0.0
C1445 C 0.4396 0.33008 0.05718 0.0
C1446 C 0.44748 0.36503 0.10431 0.0
H1447 H 0.53111 0.38695 0.12903 0.0
H1448 H 0.50813 0.37649 0.10169 0.0
H1449 H 0.45761 0.38503 0.12744 0.0
H1450 H 0.39513 0.33069 0.0879 0.0
H1451 H 0.41755 0.34735 0.10723 0.0
H1452 H 0.47001 0.3314 0.08248 0.0
C1453 C 0.50588 0.37853 0.12215 0.0
C1454 C 0.4604 0.37344 0.11731 0.0
C1455 C 0.51896 0.38456 0.13772 0.0
C1456 C 0.40747 0.33048 0.07904 0.0
C1457 C 0.42033 0.34014 0.08998 0.0
C1458 C 0.4671 0.34332 0.0915 0.0
C1459 C 0.49013 0.37483 0.13306 0.0
C1460 C 0.47676 0.36688 0.11741 0.0
C1461 C 0.43662 0.34001 0.07927 0.0
C1462 C 0.45058 0.34968 0.0916 0.0
H1463 H 0.49857 0.38466 0.19586 0.0
H1464 H 0.47557 0.37467 0.1685 0.0
H1465 H 0.49254 0.34648 0.1042 0.0
H1466 H 0.42963 0.31253 0.02978 0.0
H1467 H 0.4518 0.32993 0.04791 0.0
C1468 C 0.87102 0.25283 0.4285 0.0
C1469 C 0.86867 0.26838 0.41613 0.0
C1470 C 0.87836 0.23941 0.41525 0.0
C1471 C 0.9085 0.23042 0.36517 0.0
H1472 H 0.88839 0.18609 0.36193 0.0
C1473 C 0.93902 0.17781 0.30534 0.0
C1474 C 0.93776 0.16116 0.31407 0.0
C1475 C 0.92994 0.19061 0.31735 0.0
C1476 C 0.89435 0.1983 0.36299 0.0
H1477 H 0.87201 0.2821 0.38024 0.0
H1478 H 0.88534 0.25868 0.35724 0.0
H1479 H 0.87348 0.20892 0.3836 0.0
H1480 H 0.92608 0.14483 0.34239 0.0
H1481 H 0.91082 0.16731 0.36434 0.0
H1482 H 0.92969 0.2199 0.3458 0.0
C1483 C 0.88129 0.25689 0.37709 0.0
C1484 C 0.88571 0.21139 0.37523 0.0
C1485 C 0.87363 0.27023 0.39019 0.0
C1486 C 0.92725 0.15756 0.3352 0.0
C1487 C 0.9184 0.17046 0.34763 0.0
C1488 C 0.91729 0.2173 0.35341 0.0
C1489 C 0.88378 0.2414 0.38957 0.0
C1490 C 0.89269 0.22757 0.37627 0.0
C1491 C 0.91962 0.18718 0.33885 0.0
C1492 C 0.9103 0.20106 0.35196 0.0
H1493 H 0.86728 0.25106 0.4485 0.0
H1494 H 0.88025 0.22762 0.42532 0.0
H1495 H 0.91425 0.24274 0.36612 0.0
H1496 H 0.9468 0.18094 0.2888 0.0
H1497 H 0.9309 0.20317 0.30947 0.0
C1498 C 0.08826 0.69107 0.59335 0.0
C1499 C 0.09882 0.68244 0.57617 0.0
C1500 C 0.07603 0.68246 0.6074 0.0
C1501 C 0.06054 0.63966 0.6254 0.0
H1502 H 0.01876 0.66406 0.63457 0.0
C1503 C 0.9945 0.61341 0.65879 0.0
C1504 C 0.98962 0.62063 0.68249 0.0
C1505 C 0.0086 0.61952 0.64555 0.0
C1506 C 0.03036 0.65712 0.63203 0.0
H1507 H 0.10537 0.65801 0.56077 0.0
H1508 H 0.08352 0.64294 0.58452 0.0
H1509 H 0.04215 0.67751 0.61245 0.0
H1510 H 0.99577 0.63971 0.71102 0.0
H1511 H 0.0199 0.65068 0.6874 0.0
H1512 H 0.04816 0.61906 0.64445 0.0
C1513 C 0.08491 0.6563 0.58773 0.0
C1514 C 0.04387 0.66486 0.61966 0.0
C1515 C 0.09743 0.66492 0.57408 0.0
C1516 C 0.99915 0.63391 0.69278 0.0
C1517 C 0.01297 0.6402 0.67934 0.0
C1518 C 0.04685 0.63181 0.63739 0.0
C1519 C 0.07375 0.66505 0.60407 0.0
C1520 C 0.05927 0.65638 0.61659 0.0
C1521 C 0.01775 0.6331 0.65563 0.0
C1522 C 0.03178 0.64061 0.64107 0.0
H1523 H 0.08922 0.70458 0.5955 0.0
H1524 H 0.06812 0.68956 0.62047 0.0
H1525 H 0.07219 0.63276 0.62358 0.0
H1526 H 0.98741 0.60313 0.65048 0.0
H1527 H 0.01211 0.61396 0.62717 0.0
C1528 C 0.63623 0.26866 0.60812 0.0
C1529 C 0.6373 0.26655 0.58116 0.0
C1530 C 0.63063 0.25543 0.6238 0.0
C1531 C 0.62529 0.20991 0.62765 0.0
H1532 H 0.58402 0.21919 0.66479 0.0
C1533 C 0.58236 0.15657 0.6646 0.0
C1534 C 0.57235 0.1594 0.68655 0.0
C1535 C 0.59205 0.16958 0.65413 0.0
C1536 C 0.59574 0.21635 0.65512 0.0
H1537 H 0.63423 0.24893 0.54952 0.0
H1538 H 0.62504 0.22569 0.577 0.0
H1539 H 0.59891 0.242 0.64346 0.0
H1540 H 0.56522 0.17776 0.71552 0.0
H1541 H 0.58267 0.20015 0.69819 0.0
H1542 H 0.62239 0.18434 0.63946 0.0
C1543 C 0.62832 0.23755 0.58597 0.0
C1544 C 0.60423 0.22948 0.64282 0.0
C1545 C 0.6335 0.25085 0.57028 0.0
C1546 C 0.57262 0.1753 0.69831 0.0
C1547 C 0.58258 0.18818 0.68823 0.0
C1548 C 0.617 0.1968 0.6404 0.0
C1549 C 0.62647 0.23983 0.61277 0.0
C1550 C 0.61888 0.22631 0.62857 0.0
C1551 C 0.59223 0.18562 0.66572 0.0
C1552 C 0.6019 0.19977 0.65388 0.0
H1553 H 0.63897 0.28072 0.6169 0.0
H1554 H 0.62926 0.25746 0.64445 0.0
H1555 H 0.63663 0.2072 0.61681 0.0
H1556 H 0.58233 0.14445 0.65507 0.0
H1557 H 0.59903 0.16712 0.63654 0.0
C1558 C 0.99545 0.36502 0.79738 0.0
C1559 C 0.98601 0.37801 0.80858 0.0
C1560 C 0.01103 0.36054 0.80765 0.0
C1561 C 0.03667 0.36439 0.86754 0.0
H1562 H 0.07058 0.34412 0.82351 0.0
C1563 C 0.09914 0.33845 0.90775 0.0
C1564 C 0.09952 0.32091 0.9047 0.0
C1565 C 0.08791 0.34817 0.89325 0.0
C1566 C 0.06128 0.34993 0.83593 0.0
H1567 H 0.98563 0.39685 0.83884 0.0
H1568 H 0.0132 0.38954 0.85622 0.0
H1569 H 0.04562 0.35664 0.80397 0.0
H1570 H 0.08953 0.29991 0.88291 0.0
H1571 H 0.07042 0.31701 0.85677 0.0
H1572 H 0.05258 0.35773 0.89943 0.0
C1573 C 0.00837 0.3824 0.83999 0.0
C1574 C 0.04687 0.35694 0.82485 0.0
C1575 C 0.99259 0.38667 0.82998 0.0
C1576 C 0.08948 0.31342 0.88555 0.0
C1577 C 0.0786 0.32318 0.87061 0.0
C1578 C 0.05126 0.35772 0.87853 0.0
C1579 C 0.01776 0.36916 0.82908 0.0
C1580 C 0.0341 0.36377 0.84056 0.0
C1581 C 0.07729 0.34052 0.87502 0.0
C1582 C 0.06344 0.35004 0.86288 0.0
H1583 H 0.99068 0.35806 0.78093 0.0
H1584 H 0.01758 0.35001 0.79904 0.0
H1585 H 0.02711 0.36929 0.88039 0.0
H1586 H 0.10663 0.3445 0.9226 0.0
H1587 H 0.08706 0.36154 0.89695 0.0
C1588 C 0.86352 0.73712 0.1047 0.0
C1589 C 0.8605 0.73894 0.07805 0.0
C1590 C 0.87078 0.75026 0.11879 0.0
C1591 C 0.87781 0.79536 0.12137 0.0
H1592 H 0.92076 0.7845 0.15251 0.0
C1593 C 0.92183 0.84694 0.16246 0.0
C1594 C 0.93199 0.84278 0.18375 0.0
C1595 C 0.91233 0.83454 0.14993 0.0
C1596 C 0.90864 0.78778 0.14447 0.0
H1597 H 0.86187 0.75604 0.04545 0.0
H1598 H 0.87401 0.77923 0.07035 0.0
H1599 H 0.90441 0.76252 0.13171 0.0
H1600 H 0.93966 0.82255 0.20927 0.0
H1601 H 0.92263 0.80126 0.18848 0.0
H1602 H 0.88168 0.82051 0.13467 0.0
C1603 C 0.87096 0.7676 0.0802 0.0
C1604 C 0.89933 0.77513 0.13244 0.0
C1605 C 0.86409 0.75434 0.06599 0.0
C1606 C 0.9322 0.8261 0.19258 0.0
C1607 C 0.92246 0.81383 0.1805 0.0
C1608 C 0.88696 0.80799 0.13392 0.0
C1609 C 0.87472 0.76553 0.10656 0.0
C1610 C 0.8839 0.77883 0.12067 0.0
C1611 C 0.91252 0.81778 0.1588 0.0
C1612 C 0.90257 0.80439 0.14554 0.0
H1613 H 0.86098 0.72532 0.11438 0.0
H1614 H 0.87358 0.74842 0.13914 0.0
H1615 H 0.86591 0.79847 0.11238 0.0
H1616 H 0.92144 0.85971 0.15523 0.0
H1617 H 0.90505 0.83808 0.13308 0.0
C1618 C 0.40882 0.66444 0.41736 0.0
C1619 C 0.41338 0.6797 0.42919 0.0
C1620 C 0.42088 0.65458 0.40478 0.0
C1621 C 0.4668 0.64754 0.40135 0.0
H1622 H 0.45699 0.62798 0.33425 0.0
C1623 C 0.50556 0.6235 0.30723 0.0
C1624 C 0.51828 0.61394 0.31901 0.0
C1625 C 0.49166 0.62884 0.32145 0.0
C1626 C 0.45991 0.63333 0.35301 0.0
H1627 H 0.43424 0.69662 0.43666 0.0
H1628 H 0.45509 0.67957 0.41457 0.0
H1629 H 0.43502 0.64312 0.35755 0.0
H1630 H 0.52612 0.60194 0.3547 0.0
H1631 H 0.50168 0.61126 0.37968 0.0
H1632 H 0.49185 0.63836 0.39639 0.0
C1633 C 0.44226 0.67507 0.4154 0.0
C1634 C 0.44728 0.64188 0.36646 0.0
C1635 C 0.43024 0.68492 0.4279 0.0
C1636 C 0.51652 0.60931 0.34512 0.0
C1637 C 0.50259 0.61473 0.35944 0.0
C1638 C 0.47941 0.63898 0.38794 0.0
C1639 C 0.43776 0.65974 0.40384 0.0
C1640 C 0.45069 0.64938 0.39054 0.0
C1641 C 0.49014 0.62479 0.34783 0.0
C1642 C 0.4762 0.63206 0.36338 0.0
H1643 H 0.39596 0.66 0.418 0.0
H1644 H 0.41703 0.64279 0.39617 0.0
H1645 H 0.46976 0.65295 0.42007 0.0
H1646 H 0.50654 0.62725 0.2871 0.0
H1647 H 0.48243 0.63674 0.31197 0.0
C1648 C 0.42595 0.15533 0.16243 0.0
C1649 C 0.43625 0.15912 0.18373 0.0
C1650 C 0.41769 0.1682 0.14895 0.0
C1651 C 0.41823 0.21495 0.14082 0.0
H1652 H 0.37455 0.20758 0.10954 0.0
C1653 C 0.37579 0.26859 0.10314 0.0
C1654 C 0.37143 0.26707 0.07688 0.0
C1655 C 0.3831 0.25508 0.11627 0.0
C1656 C 0.38677 0.20974 0.1182 0.0
H1657 H 0.44542 0.17923 0.2083 0.0
H1658 H 0.43052 0.20138 0.18588 0.0
H1659 H 0.38848 0.18455 0.13237 0.0
H1660 H 0.37077 0.25017 0.04395 0.0
H1661 H 0.38309 0.22636 0.06723 0.0
H1662 H 0.41612 0.24033 0.12737 0.0
C1663 C 0.42932 0.18868 0.17861 0.0
C1664 C 0.39483 0.19654 0.1311 0.0
C1665 C 0.43782 0.17593 0.19164 0.0
C1666 C 0.37406 0.25168 0.06419 0.0
C1667 C 0.38102 0.23806 0.07747 0.0
C1668 C 0.41001 0.22818 0.12843 0.0
C1669 C 0.4193 0.18508 0.15686 0.0
C1670 C 0.41069 0.19897 0.14264 0.0
C1671 C 0.3858 0.23973 0.10351 0.0
C1672 C 0.39423 0.22569 0.11701 0.0
H1673 H 0.42454 0.14248 0.15589 0.0
H1674 H 0.41027 0.1649 0.13213 0.0
H1675 H 0.4306 0.21727 0.14875 0.0
H1676 H 0.37394 0.28034 0.11334 0.0
H1677 H 0.38668 0.25661 0.13639 0.0
C1678 C 0.49604 0.62188 0.81474 0.0
C1679 C 0.48257 0.61438 0.82799 0.0
C1680 C 0.50969 0.62844 0.82834 0.0
C1681 C 0.54095 0.63414 0.86052 0.0
H1682 H 0.53183 0.66114 0.92143 0.0
C1683 C 0.59402 0.66548 0.92001 0.0
C1684 C 0.59115 0.68216 0.92788 0.0
C1685 C 0.581 0.65586 0.90944 0.0
C1686 C 0.53458 0.65367 0.90441 0.0
H1687 H 0.47296 0.60761 0.86587 0.0
H1688 H 0.49696 0.61902 0.88973 0.0
H1689 H 0.50881 0.64661 0.89975 0.0
H1690 H 0.57225 0.70174 0.93076 0.0
H1691 H 0.54972 0.68507 0.91207 0.0
H1692 H 0.56661 0.64169 0.86461 0.0
C1693 C 0.49685 0.61995 0.86879 0.0
C1694 C 0.52142 0.64517 0.89217 0.0
C1695 C 0.48316 0.61334 0.85514 0.0
C1696 C 0.57494 0.68894 0.92499 0.0
C1697 C 0.56196 0.67933 0.91444 0.0
C1698 C 0.55411 0.64263 0.87276 0.0
C1699 C 0.51022 0.62768 0.85553 0.0
C1700 C 0.52441 0.63552 0.86984 0.0
C1701 C 0.56482 0.66269 0.90651 0.0
C1702 C 0.55104 0.65271 0.89462 0.0
H1703 H 0.49595 0.6229 0.79381 0.0
H1704 H 0.51964 0.63453 0.81753 0.0
H1705 H 0.54372 0.62663 0.84355 0.0
H1706 H 0.60631 0.6598 0.92203 0.0
H1707 H 0.58359 0.64302 0.90375 0.0
C1708 C 0.064 0.82201 0.67418 0.0
C1709 C 0.06953 0.83875 0.676 0.0
C1710 C 0.07384 0.80989 0.66192 0.0
C1711 C 0.10765 0.80463 0.61419 0.0
H1712 H 0.11011 0.75982 0.64348 0.0
C1713 C 0.14083 0.73578 0.59342 0.0
C1714 C 0.13697 0.73419 0.56698 0.0
C1715 C 0.13473 0.74943 0.60768 0.0
C1716 C 0.10976 0.77232 0.63521 0.0
H1717 H 0.08981 0.85584 0.66611 0.0
H1718 H 0.10701 0.83458 0.64468 0.0
H1719 H 0.09541 0.78194 0.66697 0.0
H1720 H 0.12414 0.74584 0.53455 0.0
H1721 H 0.11346 0.76952 0.55936 0.0
H1722 H 0.12195 0.79497 0.58237 0.0
C1723 C 0.09497 0.83092 0.65269 0.0
C1724 C 0.10115 0.78494 0.64851 0.0
C1725 C 0.08512 0.84308 0.66503 0.0
C1726 C 0.12732 0.74672 0.55492 0.0
C1727 C 0.1213 0.76036 0.5691 0.0
C1728 C 0.11623 0.79199 0.60085 0.0
C1729 C 0.08946 0.81417 0.65113 0.0
C1730 C 0.09975 0.80116 0.63795 0.0
C1731 C 0.12475 0.76178 0.59571 0.0
C1732 C 0.11714 0.77562 0.61101 0.0
H1733 H 0.05204 0.8182 0.68228 0.0
H1734 H 0.06909 0.79716 0.66062 0.0
H1735 H 0.10674 0.81697 0.60548 0.0
H1736 H 0.14826 0.72631 0.60322 0.0
H1737 H 0.13773 0.75026 0.62811 0.0
C1738 C 0.90584 0.3344 0.42646 0.0
C1739 C 0.90878 0.3185 0.43744 0.0
C1740 C 0.91909 0.34374 0.41598 0.0
C1741 C 0.94727 0.35475 0.37991 0.0
H1742 H 0.99152 0.3541 0.41142 0.0
C1743 C 0.00682 0.37018 0.32234 0.0
C1744 C 0.01975 0.37933 0.33436 0.0
C1745 C 0.99296 0.36473 0.33652 0.0
C1746 C 0.9792 0.35461 0.40254 0.0
H1747 H 0.92811 0.30008 0.44622 0.0
H1748 H 0.95103 0.31622 0.42771 0.0
H1749 H 0.96783 0.34131 0.43405 0.0
H1750 H 0.02826 0.39003 0.37067 0.0
H1751 H 0.00384 0.38051 0.39561 0.0
H1752 H 0.95861 0.36802 0.34842 0.0
C1753 C 0.93854 0.32161 0.42753 0.0
C1754 C 0.96566 0.34711 0.41536 0.0
C1755 C 0.92532 0.31228 0.43796 0.0
C1756 C 0.01849 0.38298 0.36092 0.0
C1757 C 0.00456 0.37748 0.37518 0.0
C1758 C 0.96079 0.36224 0.36712 0.0
C1759 C 0.93559 0.33741 0.41629 0.0
C1760 C 0.94961 0.34681 0.40395 0.0
C1761 C 0.99163 0.3683 0.36309 0.0
C1762 C 0.97698 0.36195 0.37802 0.0
H1763 H 0.89328 0.33962 0.4258 0.0
H1764 H 0.91642 0.35594 0.40767 0.0
H1765 H 0.93511 0.35467 0.37049 0.0
H1766 H 0.00743 0.36712 0.30191 0.0
H1767 H 0.98341 0.35741 0.3267 0.0
C1768 C 0.4221 0.84554 0.33073 0.0
C1769 C 0.43813 0.84223 0.32041 0.0
C1770 C 0.41347 0.83315 0.3447 0.0
C1771 C 0.41164 0.78713 0.35049 0.0
H1772 H 0.38631 0.79532 0.41338 0.0
C1773 C 0.38147 0.74621 0.43872 0.0
C1774 C 0.37346 0.7334 0.42463 0.0
C1775 C 0.38778 0.7604 0.42611 0.0
C1776 C 0.39335 0.79286 0.39583 0.0
H1777 H 0.45805 0.82364 0.3182 0.0
H1778 H 0.44312 0.80226 0.34259 0.0
H1779 H 0.40107 0.81858 0.39227 0.0
H1780 H 0.36536 0.72561 0.38637 0.0
H1781 H 0.37637 0.75043 0.3643 0.0
H1782 H 0.40429 0.76142 0.35421 0.0
C1783 C 0.43705 0.81426 0.33939 0.0
C1784 C 0.40169 0.80619 0.38366 0.0
C1785 C 0.44564 0.82659 0.32552 0.0
C1786 C 0.37155 0.73524 0.39773 0.0
C1787 C 0.37791 0.74942 0.38509 0.0
C1788 C 0.40327 0.77386 0.36255 0.0
C1789 C 0.4207 0.81722 0.34855 0.0
C1790 C 0.41113 0.8034 0.36106 0.0
C1791 C 0.38626 0.76208 0.3991 0.0
C1792 C 0.39418 0.77651 0.38551 0.0
H1793 H 0.41594 0.85745 0.32717 0.0
H1794 H 0.40089 0.83579 0.35154 0.0
H1795 H 0.41858 0.78462 0.33286 0.0
H1796 H 0.3831 0.74517 0.45949 0.0
H1797 H 0.3943 0.76982 0.43743 0.0
C1798 C 0.0095 0.61736 0.14348 0.0
C1799 C 0.01078 0.61831 0.17058 0.0
C1800 C 0.99554 0.62413 0.13075 0.0
C1801 C 0.97114 0.65032 0.10975 0.0
H1802 H 0.92623 0.64685 0.1385 0.0
C1803 C 0.91868 0.69563 0.08009 0.0
C1804 C 0.90269 0.68889 0.07491 0.0
C1805 C 0.93117 0.68579 0.09142 0.0
C1806 C 0.93866 0.6478 0.1301 0.0
H1807 H 0.99832 0.62672 0.20564 0.0
H1808 H 0.97411 0.63858 0.18349 0.0
H1809 H 0.94923 0.63091 0.158 0.0
H1810 H 0.88718 0.66658 0.07849 0.0
H1811 H 0.90908 0.64938 0.09843 0.0
H1812 H 0.96064 0.66724 0.08194 0.0
C1813 C 0.98375 0.63248 0.17205 0.0
C1814 C 0.95185 0.63879 0.14138 0.0
C1815 C 0.9977 0.6258 0.18472 0.0
C1816 C 0.89933 0.67219 0.08221 0.0
C1817 C 0.91187 0.66233 0.09364 0.0
C1818 C 0.95798 0.65936 0.09856 0.0
C1819 C 0.98257 0.63189 0.14491 0.0
C1820 C 0.96828 0.64015 0.13155 0.0
C1821 C 0.92801 0.66896 0.09793 0.0
C1822 C 0.94166 0.65843 0.10887 0.0
H1823 H 0.01939 0.61162 0.1321 0.0
H1824 H 0.99491 0.62337 0.10982 0.0
H1825 H 0.98366 0.65174 0.10184 0.0
H1826 H 0.92172 0.70847 0.07497 0.0
H1827 H 0.94336 0.69137 0.09502 0.0
C1828 C 0.11868 0.25505 0.93785 0.0
C1829 C 0.13244 0.26428 0.92856 0.0
C1830 C 0.11398 0.24002 0.92612 0.0
C1831 C 0.11806 0.21582 0.86526 0.0
H1832 H 0.09665 0.18151 0.90727 0.0
C1833 C 0.08992 0.15264 0.82643 0.0
C1834 C 0.07233 0.15318 0.8288 0.0
C1835 C 0.09993 0.16434 0.83955 0.0
C1836 C 0.10278 0.19092 0.8954 0.0
H1837 H 0.15226 0.26489 0.89982 0.0
H1838 H 0.14432 0.2382 0.87956 0.0
H1839 H 0.1101 0.20545 0.92826 0.0
H1840 H 0.05146 0.16575 0.84752 0.0
H1841 H 0.06904 0.1857 0.87132 0.0
H1842 H 0.11067 0.20098 0.83242 0.0
C1843 C 0.13695 0.2428 0.89569 0.0
C1844 C 0.11033 0.20473 0.90731 0.0
C1845 C 0.14155 0.25805 0.90733 0.0
C1846 C 0.06498 0.16508 0.84538 0.0
C1847 C 0.075 0.17644 0.85898 0.0
C1848 C 0.11077 0.2018 0.85337 0.0
C1849 C 0.12308 0.23359 0.90498 0.0
C1850 C 0.11751 0.21769 0.89238 0.0
C1851 C 0.0925 0.17638 0.85576 0.0
C1852 C 0.10266 0.18953 0.86835 0.0
H1853 H 0.11132 0.2595 0.9541 0.0
H1854 H 0.10296 0.23362 0.93343 0.0
H1855 H 0.12333 0.22557 0.8531 0.0
H1856 H 0.09586 0.14369 0.81355 0.0
H1857 H 0.11343 0.16414 0.83683 0.0
C1858 C 0.58708 0.31271 0.60553 0.0
C1859 C 0.59713 0.31933 0.58565 0.0
C1860 C 0.57536 0.32286 0.61819 0.0
C1861 C 0.54604 0.35485 0.60594 0.0
H1862 H 0.54435 0.36252 0.68004 0.0
C1863 C 0.48933 0.38831 0.65387 0.0
C1864 C 0.48445 0.38243 0.67838 0.0
C1865 C 0.50446 0.38291 0.64275 0.0
C1866 C 0.54447 0.36032 0.65935 0.0
H1867 H 0.60313 0.34178 0.56372 0.0
H1868 H 0.58209 0.35942 0.58538 0.0
H1869 H 0.56873 0.34861 0.66107 0.0
H1870 H 0.49139 0.36612 0.71027 0.0
H1871 H 0.51702 0.35607 0.69054 0.0
H1872 H 0.52139 0.36538 0.60413 0.0
C1873 C 0.58359 0.34646 0.59139 0.0
C1874 C 0.55854 0.35253 0.64853 0.0
C1875 C 0.59564 0.33642 0.57918 0.0
C1876 C 0.49485 0.37099 0.69143 0.0
C1877 C 0.50972 0.36536 0.68017 0.0
C1878 C 0.53177 0.3623 0.6168 0.0
C1879 C 0.57323 0.33967 0.61073 0.0
C1880 C 0.55932 0.34957 0.62182 0.0
C1881 C 0.51484 0.37129 0.65573 0.0
C1882 C 0.53065 0.36487 0.64374 0.0
H1883 H 0.58799 0.29957 0.61083 0.0
H1884 H 0.56742 0.31738 0.633 0.0
H1885 H 0.54636 0.35251 0.58527 0.0
H1886 H 0.48158 0.39722 0.64346 0.0
H1887 H 0.50803 0.38796 0.62407 0.0
C1888 C 0.06029 0.44601 0.28471 0.0
C1889 C 0.07242 0.43323 0.28459 0.0
C1890 C 0.06466 0.46245 0.27858 0.0
C1891 C 0.09172 0.48715 0.23876 0.0
H1892 H 0.07277 0.52352 0.27933 0.0
C1893 C 0.08445 0.56051 0.21417 0.0
C1894 C 0.06711 0.56383 0.21261 0.0
C1895 C 0.09016 0.54476 0.22277 0.0
C1896 C 0.07847 0.51355 0.26806 0.0
H1897 H 0.09873 0.4276 0.27816 0.0
H1898 H 0.10638 0.45669 0.26662 0.0
H1899 H 0.07398 0.49527 0.29761 0.0
H1900 H 0.04225 0.55297 0.21695 0.0
H1901 H 0.05221 0.52579 0.2319 0.0
H1902 H 0.09505 0.50544 0.20848 0.0
C1903 C 0.09352 0.45383 0.27187 0.0
C1904 C 0.07912 0.49742 0.27846 0.0
C1905 C 0.08917 0.43728 0.27857 0.0
C1906 C 0.05568 0.55089 0.21823 0.0
C1907 C 0.06134 0.53533 0.22678 0.0
C1908 C 0.09106 0.5034 0.22829 0.0
C1909 C 0.08125 0.46653 0.27181 0.0
C1910 C 0.085 0.48393 0.26348 0.0
C1911 C 0.07856 0.53229 0.22984 0.0
C1912 C 0.08374 0.51652 0.24254 0.0
H1913 H 0.04729 0.44326 0.28926 0.0
H1914 H 0.05489 0.47193 0.27833 0.0
H1915 H 0.09621 0.47692 0.22679 0.0
H1916 H 0.09352 0.57028 0.21 0.0
H1917 H 0.10352 0.54259 0.22502 0.0
C1918 C 0.80954 0.83966 0.53329 0.0
C1919 C 0.81263 0.82337 0.54259 0.0
C1920 C 0.79297 0.84524 0.5299 0.0
C1921 C 0.74908 0.83691 0.54824 0.0
H1922 H 0.73788 0.84384 0.4759 0.0
C1923 C 0.68699 0.81515 0.50597 0.0
C1924 C 0.67919 0.82409 0.48586 0.0
C1925 C 0.70257 0.82019 0.5155 0.0
C1926 C 0.74074 0.84239 0.49629 0.0
H1927 H 0.80121 0.80057 0.55716 0.0
H1928 H 0.77245 0.81047 0.55219 0.0
H1929 H 0.76725 0.84442 0.48958 0.0
H1930 H 0.68146 0.84557 0.46025 0.0
H1931 H 0.70889 0.85441 0.47697 0.0
H1932 H 0.72272 0.83417 0.55491 0.0
C1933 C 0.78266 0.81888 0.54722 0.0
C1934 C 0.75757 0.84275 0.50411 0.0
C1935 C 0.7991 0.81317 0.54993 0.0
C1936 C 0.68721 0.83839 0.47571 0.0
C1937 C 0.7029 0.84344 0.48525 0.0
C1938 C 0.73229 0.83671 0.54051 0.0
C1939 C 0.77942 0.83477 0.53655 0.0
C1940 C 0.7619 0.8392 0.52991 0.0
C1941 C 0.71078 0.83434 0.50521 0.0
C1942 C 0.728 0.83857 0.51423 0.0
H1943 H 0.81985 0.84766 0.52734 0.0
H1944 H 0.79073 0.85751 0.52152 0.0
H1945 H 0.75213 0.8343 0.56831 0.0
H1946 H 0.68116 0.80408 0.51422 0.0
H1947 H 0.70841 0.81265 0.53046 0.0
C1948 C 0.40728 0.43576 0.72284 0.0
C1949 C 0.42335 0.43401 0.71196 0.0
C1950 C 0.4013 0.45169 0.72979 0.0
C1951 C 0.40651 0.49696 0.72077 0.0
H1952 H 0.40614 0.50116 0.79567 0.0
C1953 C 0.40773 0.5612 0.77371 0.0
C1954 C 0.42354 0.56263 0.78561 0.0
C1955 C 0.40175 0.54542 0.76595 0.0
C1956 C 0.40574 0.50013 0.77475 0.0
H1957 H 0.4453 0.4473 0.6981 0.0
H1958 H 0.43457 0.47516 0.70909 0.0
H1959 H 0.40582 0.47322 0.77576 0.0
H1960 H 0.44499 0.54891 0.8003 0.0
H1961 H 0.43421 0.52132 0.78786 0.0
H1962 H 0.40733 0.52388 0.71981 0.0
C1963 C 0.42668 0.4643 0.71257 0.0
C1964 C 0.40551 0.4842 0.76337 0.0
C1965 C 0.43284 0.4484 0.70639 0.0
C1966 C 0.43274 0.54806 0.79122 0.0
C1967 C 0.42656 0.53232 0.78421 0.0
C1968 C 0.40636 0.5129 0.73214 0.0
C1969 C 0.41113 0.46604 0.72512 0.0
C1970 C 0.40664 0.48251 0.73634 0.0
C1971 C 0.41128 0.53091 0.77081 0.0
C1972 C 0.40673 0.51457 0.75922 0.0
H1973 H 0.39986 0.42476 0.72758 0.0
H1974 H 0.38934 0.45278 0.73964 0.0
H1975 H 0.40749 0.49592 0.6999 0.0
H1976 H 0.40054 0.57233 0.76893 0.0
H1977 H 0.39 0.54459 0.75545 0.0
C1978 C 0.79892 0.17902 0.95041 0.0
C1979 C 0.8128 0.16926 0.95757 0.0
C1980 C 0.78267 0.17335 0.95519 0.0
C1981 C 0.75922 0.15121 0.00272 0.0
H1982 H 0.72284 0.15948 0.95439 0.0
C1983 C 0.68789 0.15982 0.03066 0.0
C1984 C 0.68231 0.17561 0.02189 0.0
C1985 C 0.70338 0.15336 0.02222 0.0
C1986 C 0.73284 0.1568 0.96803 0.0
H1987 H 0.8208 0.14578 0.97478 0.0
H1988 H 0.79203 0.136 0.98415 0.0
H1989 H 0.75162 0.15744 0.9384 0.0
H1990 H 0.68872 0.19705 -0.0022 0.0
H1991 H 0.7153 0.18578 0.98312 0.0
H1992 H 0.74044 0.1519 0.0326 0.0
C1993 C 0.79384 0.14788 0.9743 0.0
C1994 C 0.74927 0.15561 0.95888 0.0
C1995 C 0.81021 0.15341 0.96885 0.0
C1996 C 0.69255 0.18484 0.00492 0.0
C1997 C 0.70775 0.17833 0.99629 0.0
C1998 C 0.74269 0.15241 0.01192 0.0
C1999 C 0.77995 0.15795 0.96778 0.0
C2000 C 0.76269 0.15374 0.97629 0.0
C2001 C 0.71325 0.16248 0.00455 0.0
C2002 C 0.72953 0.15615 0.99474 0.0
H2003 H 0.80064 0.19131 0.94177 0.0
H2004 H 0.77223 0.18148 0.95029 0.0
H2005 H 0.76937 0.14983 0.01654 0.0
H2006 H 0.68024 0.15243 0.04375 0.0
H2007 H 0.70748 0.14116 0.02902 0.0
C2008 C 0.91291 0.43446 0.76459 0.0
C2009 C 0.92785 0.42936 0.77676 0.0
C2010 C 0.91036 0.4515 0.75868 0.0
C2011 C 0.93651 0.48743 0.74285 0.0
H2012 H 0.89836 0.51651 0.75595 0.0
C2013 C 0.94455 0.55742 0.74603 0.0
C2014 C 0.9346 0.56736 0.72961 0.0
C2015 C 0.94053 0.54069 0.75049 0.0
C2016 C 0.90894 0.5084 0.75181 0.0
H2017 H 0.95109 0.43774 0.79418 0.0
H2018 H 0.94648 0.46733 0.78469 0.0
H2019 H 0.8968 0.48647 0.76758 0.0
H2020 H 0.91208 0.56775 0.70597 0.0
H2021 H 0.905 0.53801 0.71387 0.0
H2022 H 0.94891 0.50915 0.72796 0.0
C2023 C 0.93693 0.45833 0.77907 0.0
C2024 C 0.90807 0.4913 0.75848 0.0
C2025 C 0.93954 0.44145 0.78464 0.0
C2026 C 0.92002 0.56034 0.7186 0.0
C2027 C 0.91594 0.54341 0.72317 0.0
C2028 C 0.93737 0.50433 0.73628 0.0
C2029 C 0.92273 0.46345 0.76499 0.0
C2030 C 0.92213 0.48086 0.7549 0.0
C2031 C 0.92645 0.5334 0.73866 0.0
C2032 C 0.92386 0.5151 0.7415 0.0
H2033 H 0.90383 0.42522 0.75817 0.0
H2034 H 0.8993 0.45517 0.74784 0.0
H2035 H 0.94738 0.47956 0.73925 0.0
H2036 H 0.95572 0.56246 0.75518 0.0
H2037 H 0.94867 0.53329 0.76286 0.0
C2038 C 0.29984 0.1788 0.54672 0.0
C2039 C 0.31501 0.1709 0.54026 0.0
C2040 C 0.28455 0.17174 0.53929 0.0
C2041 C 0.25349 0.15037 0.52702 0.0
H2042 H 0.25077 0.15274 0.45206 0.0
C2043 C 0.19007 0.15323 0.4728 0.0
C2044 C 0.1889 0.1693 0.46172 0.0
C2045 C 0.20576 0.14686 0.48027 0.0
C2046 C 0.2514 0.15156 0.47295 0.0
H2047 H 0.32626 0.14922 0.52179 0.0
H2048 H 0.29931 0.13716 0.50763 0.0
H2049 H 0.27829 0.15283 0.47327 0.0
H2050 H 0.20295 0.19082 0.44805 0.0
H2051 H 0.23034 0.17943 0.46002 0.0
H2052 H 0.22657 0.15014 0.52675 0.0
C2053 C 0.29933 0.14857 0.51909 0.0
C2054 C 0.2671 0.15156 0.48508 0.0
C2055 C 0.31467 0.15542 0.52722 0.0
C2056 C 0.20361 0.17837 0.45651 0.0
C2057 C 0.21925 0.17182 0.46323 0.0
C2058 C 0.2378 0.15004 0.51488 0.0
C2059 C 0.28418 0.15688 0.52464 0.0
C2060 C 0.26823 0.15181 0.51223 0.0
C2061 C 0.22042 0.15628 0.47596 0.0
C2062 C 0.23663 0.15148 0.48782 0.0
H2063 H 0.29984 0.19078 0.55669 0.0
H2064 H 0.27307 0.17851 0.54351 0.0
H2065 H 0.25408 0.15061 0.54799 0.0
H2066 H 0.17882 0.14613 0.47723 0.0
H2067 H 0.20639 0.13491 0.49025 0.0
C2068 C 0.58341 0.55788 0.28507 0.0
C2069 C 0.5784 0.56943 0.26613 0.0
C2070 C 0.58739 0.54136 0.27809 0.0
C2071 C 0.57914 0.51152 0.22386 0.0
H2072 H 0.60443 0.48112 0.26775 0.0
C2073 C 0.58611 0.43934 0.20695 0.0
C2074 C 0.57383 0.432 0.22288 0.0
C2075 C 0.59134 0.4559 0.21139 0.0
C2076 C 0.59759 0.48958 0.25512 0.0
H2077 H 0.57489 0.57354 0.2251 0.0
H2078 H 0.58314 0.54524 0.21253 0.0
H2079 H 0.60579 0.5114 0.27571 0.0
H2080 H 0.55823 0.43561 0.25684 0.0
H2081 H 0.56779 0.46433 0.26503 0.0
H2082 H 0.57108 0.48955 0.20335 0.0
C2083 C 0.58311 0.54839 0.23292 0.0
C2084 C 0.59814 0.5069 0.25983 0.0
C2085 C 0.57858 0.5647 0.24001 0.0
C2086 C 0.56765 0.44104 0.2442 0.0
C2087 C 0.57317 0.45737 0.249 0.0
C2088 C 0.57894 0.4943 0.21885 0.0
C2089 C 0.58686 0.53623 0.25192 0.0
C2090 C 0.58849 0.5181 0.24475 0.0
C2091 C 0.58471 0.46505 0.23227 0.0
C2092 C 0.58779 0.48321 0.23482 0.0
H2093 H 0.5832 0.5613 0.30538 0.0
H2094 H 0.58997 0.53247 0.29344 0.0
H2095 H 0.5712 0.51947 0.21208 0.0
H2096 H 0.59097 0.43263 0.1903 0.0
H2097 H 0.60011 0.46175 0.19812 0.0
C2098 C 0.18926 0.83722 0.03193 0.0
C2099 C 0.1831 0.8214 0.02427 0.0
C2100 C 0.20478 0.84305 0.02253 0.0
C2101 C 0.23341 0.83742 0.96759 0.0
H2102 H 0.27065 0.84503 0.01458 0.0
C2103 C 0.29912 0.81422 0.94869 0.0
C2104 C 0.31317 0.82401 0.95494 0.0
C2105 C 0.28298 0.82004 0.95388 0.0
C2106 C 0.26031 0.84345 0.00115 0.0
H2107 H 0.18845 0.79931 0.00098 0.0
H2108 H 0.21506 0.80948 0.98464 0.0
H2109 H 0.24188 0.84391 0.03156 0.0
H2110 H 0.32155 0.84771 0.97099 0.0
H2111 H 0.29299 0.8578 0.98102 0.0
H2112 H 0.25181 0.83569 0.93749 0.0
C2113 C 0.20797 0.81743 0.99771 0.0
C2114 C 0.24387 0.84279 0.01087 0.0
C2115 C 0.19276 0.81155 0.0073 0.0
C2116 C 0.31083 0.84004 0.96574 0.0
C2117 C 0.29458 0.84575 0.97159 0.0
C2118 C 0.24975 0.83806 0.95792 0.0
C2119 C 0.21409 0.83327 0.00497 0.0
C2120 C 0.23043 0.83887 0.99432 0.0
C2121 C 0.28054 0.83566 0.96597 0.0
C2122 C 0.26342 0.84018 0.9748 0.0
H2123 H 0.18208 0.84508 0.04499 0.0
H2124 H 0.20935 0.85525 0.02856 0.0
H2125 H 0.2232 0.8346 0.9544 0.0
H2126 H 0.30064 0.80179 0.94045 0.0
H2127 H 0.27242 0.81189 0.94968 0.0
C2128 C 0.56432 0.94984 0.79386 0.0
C2129 C 0.57423 0.93569 0.78849 0.0
C2130 C 0.56955 0.9658 0.78611 0.0
C2131 C 0.58946 0.98543 0.73296 0.0
H2132 H 0.5877 0.02597 0.7746 0.0
C2133 C 0.59034 0.06229 0.71946 0.0
C2134 C 0.57502 0.06434 0.70633 0.0
C2135 C 0.59526 0.04635 0.72815 0.0
C2136 C 0.58856 0.01475 0.7628 0.0
H2137 H 0.59759 0.92706 0.77156 0.0
H2138 H 0.60648 0.9551 0.75702 0.0
H2139 H 0.58722 0.99841 0.79582 0.0
H2140 H 0.55337 0.05148 0.69049 0.0
H2141 H 0.56236 0.02355 0.70455 0.0
H2142 H 0.5893 0.00177 0.69985 0.0
C2143 C 0.59486 0.9538 0.76776 0.0
C2144 C 0.58823 0.99904 0.77491 0.0
C2145 C 0.58983 0.93783 0.77618 0.0
C2146 C 0.56529 0.05015 0.70042 0.0
C2147 C 0.57044 0.03421 0.70842 0.0
C2148 C 0.5894 0.00114 0.72082 0.0
C2149 C 0.58459 0.96785 0.77225 0.0
C2150 C 0.58827 0.98426 0.76006 0.0
C2151 C 0.58515 0.03225 0.72311 0.0
C2152 C 0.58857 0.01591 0.73564 0.0
H2153 H 0.55222 0.94849 0.80323 0.0
H2154 H 0.56134 0.97642 0.78956 0.0
H2155 H 0.5893 0.97421 0.72109 0.0
H2156 H 0.5979 0.07311 0.72457 0.0
H2157 H 0.6066 0.04511 0.73958 0.0
C2158 C 0.31183 0.33852 0.03081 0.0
C2159 C 0.31539 0.32235 0.04025 0.0
C2160 C 0.29512 0.34351 0.02689 0.0
C2161 C 0.25141 0.33373 0.04444 0.0
H2162 H 0.24025 0.34139 0.97224 0.0
C2163 C 0.18978 0.31149 0.00135 0.0
C2164 C 0.18158 0.32083 0.98206 0.0
C2165 C 0.20539 0.31653 0.01075 0.0
C2166 C 0.24311 0.33971 0.99259 0.0
H2167 H 0.30458 0.29914 0.05439 0.0
H2168 H 0.27556 0.30802 0.04847 0.0
H2169 H 0.2696 0.34234 0.98616 0.0
H2170 H 0.18323 0.34293 0.95765 0.0
H2171 H 0.21079 0.35175 0.9741 0.0
H2172 H 0.22508 0.3304 0.05081 0.0
C2173 C 0.28553 0.31678 0.04382 0.0
C2174 C 0.25992 0.34027 0.00055 0.0
C2175 C 0.30212 0.31166 0.04708 0.0
C2176 C 0.18928 0.33546 0.9725 0.0
C2177 C 0.20504 0.3405 0.98188 0.0
C2178 C 0.23465 0.3333 0.03657 0.0
C2179 C 0.28185 0.33257 0.03311 0.0
C2180 C 0.26423 0.33651 0.02629 0.0
C2181 C 0.21325 0.33105 0.00114 0.0
C2182 C 0.23039 0.33544 0.01033 0.0
H2183 H 0.32191 0.3469 0.02521 0.0
H2184 H 0.29255 0.35572 0.01851 0.0
H2185 H 0.25443 0.33096 0.06446 0.0
H2186 H 0.18422 0.30014 0.00914 0.0
H2187 H 0.2115 0.30873 0.02514 0.0
C2188 C 0.92667 0.05585 0.29425 0.0
C2189 C 0.92539 0.06935 0.27703 0.0
C2190 C 0.92074 0.03999 0.2871 0.0
C2191 C 0.91466 0.0148 0.22846 0.0
H2192 H 0.89902 0.98182 0.27819 0.0
C2193 C 0.9142 0.94325 0.20666 0.0
C2194 C 0.92447 0.93491 0.22465 0.0
C2195 C 0.90868 0.95968 0.2117 0.0
C2196 C 0.90316 0.99094 0.26398 0.0
H2197 H 0.91667 0.07736 0.23932 0.0
H2198 H 0.90609 0.04962 0.22673 0.0
H2199 H 0.89927 0.01154 0.28994 0.0
H2200 H 0.93618 0.93654 0.26245 0.0
H2201 H 0.92622 0.96482 0.27153 0.0
H2202 H 0.91919 0.99405 0.20293 0.0
C2203 C 0.91165 0.05118 0.24573 0.0
C2204 C 0.90341 0.00793 0.27074 0.0
C2205 C 0.91756 0.06705 0.25296 0.0
C2206 C 0.92836 0.94278 0.24821 0.0
C2207 C 0.92253 0.9589 0.2535 0.0
C2208 C 0.91429 0.9978 0.22164 0.0
C2209 C 0.91356 0.03735 0.26247 0.0
C2210 C 0.90987 0.01998 0.25348 0.0
C2211 C 0.91297 0.96768 0.23511 0.0
C2212 C 0.90922 0.98566 0.23975 0.0
H2213 H 0.93292 0.0574 0.31275 0.0
H2214 H 0.92268 0.02961 0.30032 0.0
H2215 H 0.91984 0.02369 0.21473 0.0
H2216 H 0.91111 0.9374 0.18832 0.0
H2217 H 0.90137 0.96625 0.19718 0.0
C2218 C 0.30619 0.68684 0.45755 0.0
C2219 C 0.31974 0.6758 0.46091 0.0
C2220 C 0.28976 0.68121 0.46073 0.0
C2221 C 0.26429 0.656 0.49931 0.0
H2222 H 0.23045 0.66454 0.44689 0.0
C2223 C 0.19291 0.66196 0.5231 0.0
C2224 C 0.18625 0.677 0.51315 0.0
C2225 C 0.20866 0.65616 0.51472 0.0
C2226 C 0.23974 0.66189 0.46169 0.0
H2227 H 0.32689 0.65022 0.47007 0.0
H2228 H 0.29779 0.64045 0.47682 0.0
H2229 H 0.26012 0.66452 0.43491 0.0
H2230 H 0.19069 0.69752 0.4863 0.0
H2231 H 0.21779 0.68756 0.47194 0.0
H2232 H 0.24399 0.65492 0.52658 0.0
C2233 C 0.30005 0.65335 0.47111 0.0
C2234 C 0.25667 0.66178 0.45477 0.0
C2235 C 0.31659 0.6589 0.46718 0.0
C2236 C 0.19544 0.68591 0.49444 0.0
C2237 C 0.21094 0.68008 0.48594 0.0
C2238 C 0.2473 0.65629 0.50633 0.0
C2239 C 0.28656 0.66452 0.46794 0.0
C2240 C 0.26909 0.6596 0.47373 0.0
C2241 C 0.21779 0.66519 0.49596 0.0
C2242 C 0.23494 0.66014 0.48778 0.0
H2243 H 0.30831 0.69991 0.45269 0.0
H2244 H 0.27954 0.69007 0.45845 0.0
H2245 H 0.27372 0.65441 0.51426 0.0
H2246 H 0.18608 0.65484 0.53754 0.0
H2247 H 0.2137 0.64468 0.52285 0.0
C2248 C 0.41374 0.05972 0.20725 0.0
C2249 C 0.42309 0.06785 0.2266 0.0
C2250 C 0.40832 0.04313 0.21099 0.0
C2251 C 0.40119 0.00981 0.25917 0.0
H2252 H 0.4246 0.98055 0.21133 0.0
C2253 C 0.42142 0.94282 0.28715 0.0
C2254 C 0.42492 0.93118 0.26757 0.0
C2255 C 0.41597 0.95902 0.28073 0.0
C2256 C 0.41748 0.98832 0.22456 0.0
H2257 H 0.43303 0.0658 0.26552 0.0
H2258 H 0.42306 0.03716 0.2724 0.0
H2259 H 0.42304 0.01037 0.20243 0.0
H2260 H 0.42432 0.92651 0.22632 0.0
H2261 H 0.41368 0.95424 0.21506 0.0
H2262 H 0.39568 0.98786 0.2815 0.0
C2263 C 0.42008 0.0434 0.25431 0.0
C2264 C 0.41666 0.00551 0.21939 0.0
C2265 C 0.42588 0.05971 0.25031 0.0
C2266 C 0.42183 0.93545 0.24168 0.0
C2267 C 0.4159 0.95142 0.23529 0.0
C2268 C 0.40168 0.99253 0.26411 0.0
C2269 C 0.41175 0.03476 0.2344 0.0
C2270 C 0.40903 0.01647 0.23708 0.0
C2271 C 0.41356 0.9637 0.2546 0.0
C2272 C 0.4104 0.98161 0.24736 0.0
H2273 H 0.41155 0.06577 0.18876 0.0
H2274 H 0.402 0.03665 0.19532 0.0
H2275 H 0.3952 0.01807 0.27307 0.0
H2276 H 0.42386 0.93974 0.30725 0.0
H2277 H 0.41455 0.96807 0.29622 0.0
C2278 C 0.80754 0.66427 0.03306 0.0
C2279 C 0.81295 0.67976 0.02292 0.0
C2280 C 0.79264 0.65683 0.02401 0.0
C2281 C 0.76403 0.65702 0.96808 0.0
H2282 H 0.72706 0.65337 0.01664 0.0
C2283 C 0.69905 0.68089 0.94761 0.0
C2284 C 0.68473 0.67218 0.95588 0.0
C2285 C 0.71501 0.67464 0.95288 0.0
C2286 C 0.73732 0.65377 0.00286 0.0
H2287 H 0.80726 0.69938 0.99506 0.0
H2288 H 0.78171 0.68641 0.97923 0.0
H2289 H 0.75589 0.65556 0.03289 0.0
H2290 H 0.67567 0.64991 0.97553 0.0
H2291 H 0.70395 0.63918 0.98581 0.0
H2292 H 0.74543 0.65668 0.93814 0.0
C2293 C 0.78885 0.67998 0.99411 0.0
C2294 C 0.7538 0.65504 0.01217 0.0
C2295 C 0.80341 0.6875 0.00342 0.0
C2296 C 0.68659 0.65675 0.96878 0.0
C2297 C 0.70269 0.65066 0.97471 0.0
C2298 C 0.74762 0.65577 0.95881 0.0
C2299 C 0.78329 0.6646 0.00426 0.0
C2300 C 0.76715 0.65769 0.99485 0.0
C2301 C 0.71702 0.65972 0.96706 0.0
C2302 C 0.73406 0.65516 0.97617 0.0
H2303 H 0.8147 0.65803 0.04809 0.0
H2304 H 0.78849 0.64503 0.03227 0.0
H2305 H 0.77416 0.65884 0.95434 0.0
H2306 H 0.69789 0.69282 0.93765 0.0
H2307 H 0.72582 0.68203 0.9471 0.0
C2308 C 0.08706 0.05772 0.77985 0.0
C2309 C 0.07165 0.06436 0.77124 0.0
C2310 C 0.09261 0.04202 0.77087 0.0
C2311 C 0.0863 0.01236 0.71676 0.0
H2312 H 0.09481 0.97666 0.76614 0.0
C2313 C 0.06313 0.94589 0.70452 0.0
C2314 C 0.07383 0.93225 0.70924 0.0
C2315 C 0.0686 0.96224 0.70895 0.0
C2316 C 0.09295 0.98658 0.75205 0.0
H2317 H 0.05005 0.05977 0.74654 0.0
H2318 H 0.05968 0.03276 0.73101 0.0
H2319 H 0.09384 0.00591 0.78104 0.0
H2320 H 0.09868 0.92484 0.72197 0.0
H2321 H 0.10814 0.95379 0.73082 0.0
H2322 H 0.08406 0.993 0.68819 0.0
C2323 C 0.06758 0.03962 0.74445 0.0
C2324 C 0.09238 0.00328 0.76057 0.0
C2325 C 0.06198 0.05507 0.75359 0.0
C2326 C 0.09029 0.93523 0.71799 0.0
C2327 C 0.09565 0.95169 0.72313 0.0
C2328 C 0.08679 0.99574 0.70832 0.0
C2329 C 0.08297 0.03295 0.75282 0.0
C2330 C 0.08816 0.0162 0.74318 0.0
C2331 C 0.08477 0.9653 0.71874 0.0
C2332 C 0.08929 0.98266 0.72611 0.0
H2333 H 0.09477 0.06463 0.79347 0.0
H2334 H 0.10448 0.03707 0.77774 0.0
H2335 H 0.08334 0.02213 0.70287 0.0
H2336 H 0.0504 0.94389 0.69778 0.0
H2337 H 0.05991 0.97251 0.70573 0.0
C2338 C 0.68826 0.33722 0.52315 0.0
C2339 C 0.68156 0.32179 0.5148 0.0
C2340 C 0.70359 0.34304 0.51312 0.0
C2341 C 0.73285 0.33689 0.45805 0.0
H2342 H 0.76846 0.34575 0.50744 0.0
C2343 C 0.79974 0.3148 0.44483 0.0
C2344 C 0.81332 0.32483 0.45252 0.0
C2345 C 0.78331 0.32035 0.4483 0.0
C2346 C 0.75859 0.34378 0.49331 0.0
H2347 H 0.68537 0.30063 0.48897 0.0
H2348 H 0.71179 0.31072 0.47158 0.0
H2349 H 0.73929 0.34461 0.52228 0.0
H2350 H 0.82055 0.34873 0.46919 0.0
H2351 H 0.79148 0.35833 0.47615 0.0
H2352 H 0.75221 0.33486 0.42945 0.0
C2353 C 0.70529 0.31841 0.4857 0.0
C2354 C 0.74189 0.34311 0.50181 0.0
C2355 C 0.69021 0.31253 0.4959 0.0
C2356 C 0.81023 0.34085 0.4629 0.0
C2357 C 0.79367 0.34629 0.46698 0.0
C2358 C 0.74948 0.33751 0.44961 0.0
C2359 C 0.71222 0.33366 0.49424 0.0
C2360 C 0.72898 0.33879 0.48446 0.0
C2361 C 0.78007 0.33594 0.46004 0.0
C2362 C 0.76258 0.34012 0.46738 0.0
H2363 H 0.68183 0.34461 0.53771 0.0
H2364 H 0.70869 0.35481 0.52011 0.0
H2365 H 0.72309 0.33388 0.44416 0.0
H2366 H 0.80182 0.30239 0.43681 0.0
H2367 H 0.7731 0.312 0.4431 0.0
loop_
_geom_bond_atom_site_label_1
_geom_bond_atom_site_label_2
_geom_bond_distance
_geom_bond_site_symmetry_2
_ccdc_geom_bond_type
Co0 O1 2.216 . S
Co0 O2 2.091 . S
Co0 O4 2.004 . S
Co0 O10 2.021 . S
Co0 O12 2.137 . S
Co0 O13 2.244 . S
O1 Co0 2.216 . S
O1 C8 1.247 . S
O2 Co0 2.091 . S
O2 C8 1.261 . S
C3 O12 1.247 . S
C3 O13 1.272 . S
O4 Co0 2.004 . S
O4 C9 1.259 . S
Co5 O6 2.061 . S
Co5 O11 2.052 . S
Co5 O13 2.135 . S
O6 Co5 2.061 . S
O6 C9 1.235 . S
C7 O10 1.238 . S
C7 O11 1.241 . S
C8 O1 1.247 . S
C8 O2 1.261 . S
C9 O4 1.259 . S
C9 O6 1.235 . S
O10 Co0 2.021 . S
O10 C7 1.238 . S
O11 Co5 2.052 . S
O11 C7 1.241 . S
O12 Co0 2.137 . S
O12 C3 1.247 . S
O13 Co0 2.244 . S
O13 C3 1.272 . S
O13 Co5 2.135 . S
Co14 O15 2.216 . S
Co14 O16 2.091 . S
Co14 O18 2.004 . S
Co14 O24 2.021 . S
Co14 O26 2.137 . S
Co14 O27 2.244 . S
O15 Co14 2.216 . S
O15 C22 1.247 . S
O16 Co14 2.091 . S
O16 C22 1.261 . S
C17 O26 1.247 . S
C17 O27 1.272 . S
O18 Co14 2.004 . S
O18 C23 1.259 . S
Co19 O20 2.061 . S
Co19 O25 2.052 . S
Co19 O27 2.135 . S
O20 Co19 2.061 . S
O20 C23 1.235 . S
C21 O24 1.238 . S
C21 O25 1.241 . S
C22 O15 1.247 . S
C22 O16 1.261 . S
C23 O18 1.259 . S
C23 O20 1.235 . S
O24 Co14 2.021 . S
O24 C21 1.238 . S
O25 Co19 2.052 . S
O25 C21 1.241 . S
O26 Co14 2.137 . S
O26 C17 1.247 . S
O27 Co14 2.244 . S
O27 C17 1.272 . S
O27 Co19 2.135 . S
Co28 O29 2.216 . S
Co28 O30 2.091 . S
Co28 O32 2.004 . S
Co28 O38 2.021 . S
Co28 O40 2.137 . S
Co28 O41 2.244 . S
O29 Co28 2.216 . S
O29 C36 1.247 . S
O30 Co28 2.091 . S
O30 C36 1.261 . S
C31 O40 1.247 . S
C31 O41 1.272 . S
O32 Co28 2.004 . S
O32 C37 1.259 . S
Co33 O34 2.061 . S
Co33 O39 2.052 . S
Co33 O41 2.135 . S
O34 Co33 2.061 . S
O34 C37 1.235 . S
C35 O38 1.238 . S
C35 O39 1.241 . S
C36 O29 1.247 . S
C36 O30 1.261 . S
C37 O32 1.259 . S
C37 O34 1.235 . S
O38 Co28 2.021 . S
O38 C35 1.238 . S
O39 Co33 2.052 . S
O39 C35 1.241 . S
O40 Co28 2.137 . S
O40 C31 1.247 . S
O41 Co28 2.244 . S
O41 C31 1.272 . S
O41 Co33 2.135 . S
Co42 O43 2.216 . S
Co42 O44 2.091 . S
Co42 O46 2.004 . S
Co42 O52 2.021 . S
Co42 O54 2.137 . S
Co42 O55 2.244 . S
O43 Co42 2.216 . S
O43 C50 1.247 . S
O44 Co42 2.091 . S
O44 C50 1.261 . S
C45 O54 1.247 . S
C45 O55 1.272 . S
O46 Co42 2.004 . S
O46 C51 1.259 . S
Co47 O48 2.061 . S
Co47 O53 2.052 . S
Co47 O55 2.135 . S
O48 Co47 2.061 . S
O48 C51 1.235 . S
C49 O52 1.217 1_556 S
C49 O53 1.240 1_556 S
C50 O43 1.247 . S
C50 O44 1.261 . S
C51 O46 1.259 . S
C51 O48 1.235 . S
O52 Co42 2.021 . S
O52 C49 1.217 1_554 S
O53 Co47 2.052 . S
O53 C49 1.240 1_554 S
O54 Co42 2.137 . S
O54 C45 1.247 . S
O55 Co42 2.244 . S
O55 C45 1.272 . S
O55 Co47 2.135 . S
Co56 O57 2.216 . S
Co56 O58 2.091 . S
Co56 O60 2.004 . S
Co56 O66 2.021 . S
Co56 O68 2.137 . S
Co56 O69 2.244 . S
O57 Co56 2.216 . S
O57 C64 1.247 . S
O58 Co56 2.091 . S
O58 C64 1.261 . S
C59 O68 1.247 . S
C59 O69 1.272 . S
O60 Co56 2.004 . S
O60 C65 1.259 . S
Co61 O62 2.061 . S
Co61 O67 2.052 . S
Co61 O69 2.135 . S
O62 Co61 2.061 . S
O62 C65 1.235 . S
C63 O66 1.238 . S
C63 O67 1.241 . S
C64 O57 1.247 . S
C64 O58 1.261 . S
C65 O60 1.259 . S
C65 O62 1.235 . S
O66 Co56 2.021 . S
O66 C63 1.238 . S
O67 Co61 2.052 . S
O67 C63 1.241 . S
O68 Co56 2.137 . S
O68 C59 1.247 . S
O69 Co56 2.244 . S
O69 C59 1.272 . S
O69 Co61 2.135 . S
Co70 O71 2.216 . S
Co70 O72 2.091 . S
Co70 O74 2.004 . S
Co70 O80 2.021 . S
Co70 O82 2.137 . S
Co70 O83 2.244 . S
O71 Co70 2.216 . S
O71 C78 1.247 . S
O72 Co70 2.091 . S
O72 C78 1.261 . S
C73 O82 1.247 . S
C73 O83 1.272 . S
O74 Co70 2.004 . S
O74 C79 1.259 . S
Co75 O76 2.061 . S
Co75 O81 2.052 . S
Co75 O83 2.135 . S
O76 Co75 2.061 . S
O76 C79 1.235 . S
C77 O80 1.238 . S
C77 O81 1.241 . S
C78 O71 1.247 . S
C78 O72 1.261 . S
C79 O74 1.259 . S
C79 O76 1.235 . S
O80 Co70 2.021 . S
O80 C77 1.238 . S
O81 Co75 2.052 . S
O81 C77 1.241 . S
O82 Co70 2.137 . S
O82 C73 1.247 . S
O83 Co70 2.244 . S
O83 C73 1.272 . S
O83 Co75 2.135 . S
Co84 O85 2.216 . S
Co84 O86 2.091 . S
Co84 O88 2.004 . S
Co84 O94 2.021 . S
Co84 O96 2.137 . S
Co84 O97 2.244 . S
O85 Co84 2.216 . S
O85 C92 1.247 . S
O86 Co84 2.091 . S
O86 C92 1.261 . S
C87 O96 1.247 . S
C87 O97 1.272 . S
O88 Co84 2.004 . S
O88 C93 1.259 . S
Co89 O90 2.061 . S
Co89 O95 2.052 . S
Co89 O97 2.135 . S
O90 Co89 2.061 . S
O90 C93 1.235 . S
C91 O94 1.238 . S
C91 O95 1.241 . S
C92 O85 1.247 . S
C92 O86 1.261 . S
C93 O88 1.259 . S
C93 O90 1.235 . S
O94 Co84 2.021 . S
O94 C91 1.238 . S
O95 Co89 2.052 . S
O95 C91 1.241 . S
O96 Co84 2.137 . S
O96 C87 1.247 . S
O97 Co84 2.244 . S
O97 C87 1.272 . S
O97 Co89 2.135 . S
Co98 O99 2.216 . S
Co98 O100 2.091 . S
Co98 O102 2.004 . S
Co98 O108 2.021 . S
Co98 O110 2.137 . S
Co98 O111 2.244 . S
O99 Co98 2.216 . S
O99 C106 1.247 . S
O100 Co98 2.091 . S
O100 C106 1.261 . S
C101 O110 1.247 . S
C101 O111 1.272 . S
O102 Co98 2.004 . S
O102 C107 1.259 . S
Co103 O104 2.061 . S
Co103 O109 2.052 . S
Co103 O111 2.135 . S
O104 Co103 2.061 . S
O104 C107 1.235 . S
C105 O108 1.217 1_554 S
C105 O109 1.240 1_554 S
C106 O99 1.247 . S
C106 O100 1.261 . S
C107 O102 1.259 . S
C107 O104 1.235 . S
O108 Co98 2.021 . S
O108 C105 1.217 1_556 S
O109 Co103 2.052 . S
O109 C105 1.240 1_556 S
O110 Co98 2.137 . S
O110 C101 1.247 . S
O111 Co98 2.244 . S
O111 C101 1.272 . S
O111 Co103 2.135 . S
Co112 O113 2.216 . S
Co112 O114 2.091 . S
Co112 O116 2.004 . S
Co112 O122 2.021 . S
Co112 O124 2.137 . S
Co112 O125 2.244 . S
O113 Co112 2.216 . S
O113 C120 1.247 . S
O114 Co112 2.091 . S
O114 C120 1.261 . S
C115 O124 1.247 . S
C115 O125 1.272 . S
O116 Co112 2.004 . S
O116 C121 1.259 . S
Co117 O118 2.061 . S
Co117 O123 2.052 . S
Co117 O125 2.135 . S
O118 Co117 2.061 . S
O118 C121 1.235 . S
C119 O122 1.238 . S
C119 O123 1.241 . S
C120 O113 1.247 . S
C120 O114 1.261 . S
C121 O116 1.259 . S
C121 O118 1.235 . S
O122 Co112 2.021 . S
O122 C119 1.238 . S
O123 Co117 2.052 . S
O123 C119 1.241 . S
O124 Co112 2.137 . S
O124 C115 1.247 . S
O125 Co112 2.244 . S
O125 C115 1.272 . S
O125 Co117 2.135 . S
Co126 O127 2.216 . S
Co126 O128 2.091 . S
Co126 O130 2.004 . S
Co126 O136 2.021 . S
Co126 O138 2.137 . S
Co126 O139 2.244 . S
O127 Co126 2.216 . S
O127 C134 1.247 . S
O128 Co126 2.091 . S
O128 C134 1.261 . S
C129 O138 1.247 . S
C129 O139 1.272 . S
O130 Co126 2.004 . S
O130 C135 1.259 . S
Co131 O132 2.061 . S
Co131 O137 2.052 . S
Co131 O139 2.135 . S
O132 Co131 2.061 . S
O132 C135 1.235 . S
C133 O136 1.238 . S
C133 O137 1.241 . S
C134 O127 1.247 . S
C134 O128 1.261 . S
C135 O130 1.259 . S
C135 O132 1.235 . S
O136 Co126 2.021 . S
O136 C133 1.238 . S
O137 Co131 2.052 . S
O137 C133 1.241 . S
O138 Co126 2.137 . S
O138 C129 1.247 . S
O139 Co126 2.244 . S
O139 C129 1.272 . S
O139 Co131 2.135 . S
Co140 O141 2.216 . S
Co140 O142 2.091 . S
Co140 O144 2.004 . S
Co140 O150 2.021 . S
Co140 O152 2.137 . S
Co140 O153 2.244 . S
O141 Co140 2.216 . S
O141 C148 1.247 . S
O142 Co140 2.091 . S
O142 C148 1.261 . S
C143 O152 1.247 . S
C143 O153 1.272 . S
O144 Co140 2.004 . S
O144 C149 1.259 . S
Co145 O146 2.061 . S
Co145 O151 2.052 . S
Co145 O153 2.135 . S
O146 Co145 2.061 . S
O146 C149 1.235 . S
C147 O150 1.238 . S
C147 O151 1.241 . S
C148 O141 1.247 . S
C148 O142 1.261 . S
C149 O144 1.259 . S
C149 O146 1.235 . S
O150 Co140 2.021 . S
O150 C147 1.238 . S
O151 Co145 2.052 . S
O151 C147 1.241 . S
O152 Co140 2.137 . S
O152 C143 1.247 . S
O153 Co140 2.244 . S
O153 C143 1.272 . S
O153 Co145 2.135 . S
Co154 O155 2.216 . S
Co154 O156 2.091 . S
Co154 O158 2.004 . S
Co154 O164 2.021 . S
Co154 O166 2.137 . S
Co154 O167 2.244 . S
O155 Co154 2.216 . S
O155 C162 1.247 . S
O156 Co154 2.091 . S
O156 C162 1.261 . S
C157 O166 1.247 . S
C157 O167 1.272 . S
O158 Co154 2.004 . S
O158 C163 1.259 . S
Co159 O160 2.061 . S
Co159 O165 2.052 . S
Co159 O167 2.135 . S
O160 Co159 2.061 . S
O160 C163 1.235 . S
C161 O164 1.217 1_554 S
C161 O165 1.240 1_554 S
C162 O155 1.247 . S
C162 O156 1.261 . S
C163 O158 1.259 . S
C163 O160 1.235 . S
O164 Co154 2.021 . S
O164 C161 1.217 1_556 S
O165 Co159 2.052 . S
O165 C161 1.240 1_556 S
O166 Co154 2.137 . S
O166 C157 1.247 . S
O167 Co154 2.244 . S
O167 C157 1.272 . S
O167 Co159 2.135 . S
Co168 O169 2.216 . S
Co168 O170 2.091 . S
Co168 O172 2.004 . S
Co168 O178 2.021 . S
Co168 O180 2.137 . S
Co168 O181 2.244 . S
O169 Co168 2.216 . S
O169 C176 1.247 . S
O170 Co168 2.091 . S
O170 C176 1.261 . S
C171 O180 1.247 . S
C171 O181 1.272 . S
O172 Co168 2.004 . S
O172 C177 1.259 . S
Co173 O174 2.061 . S
Co173 O179 2.052 . S
Co173 O181 2.135 . S
O174 Co173 2.061 . S
O174 C177 1.235 . S
C175 O178 1.238 . S
C175 O179 1.241 . S
C176 O169 1.247 . S
C176 O170 1.261 . S
C177 O172 1.259 . S
C177 O174 1.235 . S
O178 Co168 2.021 . S
O178 C175 1.238 . S
O179 Co173 2.052 . S
O179 C175 1.241 . S
O180 Co168 2.137 . S
O180 C171 1.247 . S
O181 Co168 2.244 . S
O181 C171 1.272 . S
O181 Co173 2.135 . S
Co182 O183 2.216 . S
Co182 O184 2.091 . S
Co182 O186 2.004 . S
Co182 O192 2.021 . S
Co182 O194 2.137 . S
Co182 O195 2.244 . S
O183 Co182 2.216 . S
O183 C190 1.247 . S
O184 Co182 2.091 . S
O184 C190 1.261 . S
C185 O194 1.247 . S
C185 O195 1.272 . S
O186 Co182 2.004 . S
O186 C191 1.259 . S
Co187 O188 2.061 . S
Co187 O193 2.052 . S
Co187 O195 2.135 . S
O188 Co187 2.061 . S
O188 C191 1.235 . S
C189 O192 1.238 . S
C189 O193 1.241 . S
C190 O183 1.247 . S
C190 O184 1.261 . S
C191 O186 1.259 . S
C191 O188 1.235 . S
O192 Co182 2.021 . S
O192 C189 1.238 . S
O193 Co187 2.052 . S
O193 C189 1.241 . S
O194 Co182 2.137 . S
O194 C185 1.247 . S
O195 Co182 2.244 . S
O195 C185 1.272 . S
O195 Co187 2.135 . S
Co196 O197 2.216 . S
Co196 O198 2.091 . S
Co196 O200 2.004 . S
Co196 O206 2.021 . S
Co196 O208 2.137 . S
Co196 O209 2.244 . S
O197 Co196 2.216 . S
O197 C204 1.247 . S
O198 Co196 2.091 . S
O198 C204 1.261 . S
C199 O208 1.247 . S
C199 O209 1.272 . S
O200 Co196 2.004 . S
O200 C205 1.259 . S
Co201 O202 2.061 . S
Co201 O207 2.052 . S
Co201 O209 2.135 . S
O202 Co201 2.061 . S
O202 C205 1.235 . S
C203 O206 1.238 . S
C203 O207 1.241 . S
C204 O197 1.247 . S
C204 O198 1.261 . S
C205 O200 1.259 . S
C205 O202 1.235 . S
O206 Co196 2.021 . S
O206 C203 1.238 . S
O207 Co201 2.052 . S
O207 C203 1.241 . S
O208 Co196 2.137 . S
O208 C199 1.247 . S
O209 Co196 2.244 . S
O209 C199 1.272 . S
O209 Co201 2.135 . S
Co210 O211 2.216 . S
Co210 O212 2.091 . S
Co210 O214 2.004 . S
Co210 O220 2.021 . S
Co210 O222 2.137 . S
Co210 O223 2.244 . S
O211 Co210 2.216 . S
O211 C218 1.247 . S
O212 Co210 2.091 . S
O212 C218 1.261 . S
C213 O222 1.247 . S
C213 O223 1.272 . S
O214 Co210 2.004 . S
O214 C219 1.259 . S
Co215 O216 2.061 . S
Co215 O221 2.052 . S
Co215 O223 2.135 . S
O216 Co215 2.061 . S
O216 C219 1.235 . S
C217 O220 1.217 1_556 S
C217 O221 1.240 1_556 S
C218 O211 1.247 . S
C218 O212 1.261 . S
C219 O214 1.259 . S
C219 O216 1.235 . S
O220 Co210 2.021 . S
O220 C217 1.217 1_554 S
O221 Co215 2.052 . S
O221 C217 1.240 1_554 S
O222 Co210 2.137 . S
O222 C213 1.247 . S
O223 Co210 2.244 . S
O223 C213 1.272 . S
O223 Co215 2.135 . S
Co224 O225 2.216 . S
Co224 O226 2.091 . S
Co224 O228 2.004 . S
Co224 O234 2.021 . S
Co224 O236 2.137 . S
Co224 O237 2.244 . S
O225 Co224 2.216 . S
O225 C232 1.247 . S
O226 Co224 2.091 . S
O226 C232 1.261 . S
C227 O236 1.247 . S
C227 O237 1.272 . S
O228 Co224 2.004 . S
O228 C233 1.259 . S
Co229 O230 2.061 . S
Co229 O235 2.052 . S
Co229 O237 2.135 . S
O230 Co229 2.061 . S
O230 C233 1.235 . S
C231 O234 1.238 . S
C231 O235 1.241 . S
C232 O225 1.247 . S
C232 O226 1.261 . S
C233 O228 1.259 . S
C233 O230 1.235 . S
O234 Co224 2.021 . S
O234 C231 1.238 . S
O235 Co229 2.052 . S
O235 C231 1.241 . S
O236 Co224 2.137 . S
O236 C227 1.247 . S
O237 Co224 2.244 . S
O237 C227 1.272 . S
O237 Co229 2.135 . S
Co238 O239 2.216 . S
Co238 O240 2.091 . S
Co238 O242 2.004 . S
Co238 O248 2.021 . S
Co238 O250 2.137 . S
Co238 O251 2.244 . S
O239 Co238 2.216 . S
O239 C246 1.247 . S
O240 Co238 2.091 . S
O240 C246 1.261 . S
C241 O250 1.247 . S
C241 O251 1.272 . S
O242 Co238 2.004 . S
O242 C247 1.259 . S
Co243 O244 2.061 . S
Co243 O249 2.052 . S
Co243 O251 2.135 . S
O244 Co243 2.061 . S
O244 C247 1.235 . S
C245 O248 1.217 1_556 S
C245 O249 1.240 1_556 S
C246 O239 1.247 . S
C246 O240 1.261 . S
C247 O242 1.259 . S
C247 O244 1.235 . S
O248 Co238 2.021 . S
O248 C245 1.217 1_554 S
O249 Co243 2.052 . S
O249 C245 1.240 1_554 S
O250 Co238 2.137 . S
O250 C241 1.247 . S
O251 Co238 2.244 . S
O251 C241 1.272 . S
O251 Co243 2.135 . S
Co252 O253 2.216 . S
Co252 O254 2.091 . S
Co252 O256 2.004 . S
Co252 O262 2.021 . S
Co252 O264 2.137 . S
Co252 O265 2.244 . S
O253 Co252 2.216 . S
O253 C260 1.247 . S
O254 Co252 2.091 . S
O254 C260 1.261 . S
C255 O264 1.247 . S
C255 O265 1.272 . S
O256 Co252 2.004 . S
O256 C261 1.259 . S
Co257 O258 2.061 . S
Co257 O263 2.052 . S
Co257 O265 2.135 . S
O258 Co257 2.061 . S
O258 C261 1.235 . S
C259 O262 1.238 . S
C259 O263 1.241 . S
C260 O253 1.247 . S
C260 O254 1.261 . S
C261 O256 1.259 . S
C261 O258 1.235 . S
O262 Co252 2.021 . S
O262 C259 1.238 . S
O263 Co257 2.052 . S
O263 C259 1.241 . S
O264 Co252 2.137 . S
O264 C255 1.247 . S
O265 Co252 2.244 . S
O265 C255 1.272 . S
O265 Co257 2.135 . S
Co266 O267 2.216 . S
Co266 O268 2.091 . S
Co266 O270 2.004 . S
Co266 O276 2.021 . S
Co266 O278 2.137 . S
Co266 O279 2.244 . S
O267 Co266 2.216 . S
O267 C274 1.247 . S
O268 Co266 2.091 . S
O268 C274 1.261 . S
C269 O278 1.247 . S
C269 O279 1.272 . S
O270 Co266 2.004 . S
O270 C275 1.259 . S
Co271 O272 2.061 . S
Co271 O277 2.052 . S
Co271 O279 2.135 . S
O272 Co271 2.061 . S
O272 C275 1.235 . S
C273 O276 1.238 . S
C273 O277 1.241 . S
C274 O267 1.247 . S
C274 O268 1.261 . S
C275 O270 1.259 . S
C275 O272 1.235 . S
O276 Co266 2.021 . S
O276 C273 1.238 . S
O277 Co271 2.052 . S
O277 C273 1.241 . S
O278 Co266 2.137 . S
O278 C269 1.247 . S
O279 Co266 2.244 . S
O279 C269 1.272 . S
O279 Co271 2.135 . S
Co280 O281 2.216 . S
Co280 O282 2.091 . S
Co280 O284 2.004 . S
Co280 O290 2.021 . S
Co280 O292 2.137 . S
Co280 O293 2.244 . S
O281 Co280 2.216 . S
O281 C288 1.247 . S
O282 Co280 2.091 . S
O282 C288 1.261 . S
C283 O292 1.247 . S
C283 O293 1.272 . S
O284 Co280 2.004 . S
O284 C289 1.259 . S
Co285 O286 2.061 . S
Co285 O291 2.052 . S
Co285 O293 2.135 . S
O286 Co285 2.061 . S
O286 C289 1.235 . S
C287 O290 1.238 . S
C287 O291 1.241 . S
C288 O281 1.247 . S
C288 O282 1.261 . S
C289 O284 1.259 . S
C289 O286 1.235 . S
O290 Co280 2.021 . S
O290 C287 1.238 . S
O291 Co285 2.052 . S
O291 C287 1.241 . S
O292 Co280 2.137 . S
O292 C283 1.247 . S
O293 Co280 2.244 . S
O293 C283 1.272 . S
O293 Co285 2.135 . S
Co294 O295 2.216 . S
Co294 O296 2.091 . S
Co294 O298 2.004 . S
Co294 O304 2.021 . S
Co294 O306 2.137 . S
Co294 O307 2.244 . S
O295 Co294 2.216 . S
O295 C302 1.247 . S
O296 Co294 2.091 . S
O296 C302 1.261 . S
C297 O306 1.247 . S
C297 O307 1.272 . S
O298 Co294 2.004 . S
O298 C303 1.259 . S
Co299 O300 2.061 . S
Co299 O305 2.052 . S
Co299 O307 2.135 . S
O300 Co299 2.061 . S
O300 C303 1.235 . S
C301 O304 1.217 1_554 S
C301 O305 1.240 1_554 S
C302 O295 1.247 . S
C302 O296 1.261 . S
C303 O298 1.259 . S
C303 O300 1.235 . S
O304 Co294 2.021 . S
O304 C301 1.217 1_556 S
O305 Co299 2.052 . S
O305 C301 1.240 1_556 S
O306 Co294 2.137 . S
O306 C297 1.247 . S
O307 Co294 2.244 . S
O307 C297 1.272 . S
O307 Co299 2.135 . S
Co308 O309 2.216 . S
Co308 O310 2.091 . S
Co308 O312 2.004 . S
Co308 O318 2.021 . S
Co308 O320 2.137 . S
Co308 O321 2.244 . S
O309 Co308 2.216 . S
O309 C316 1.247 . S
O310 Co308 2.091 . S
O310 C316 1.261 . S
C311 O320 1.247 . S
C311 O321 1.272 . S
O312 Co308 2.004 . S
O312 C317 1.259 . S
Co313 O314 2.061 . S
Co313 O319 2.052 . S
Co313 O321 2.135 . S
O314 Co313 2.061 . S
O314 C317 1.235 . S
C315 O318 1.238 . S
C315 O319 1.241 . S
C316 O309 1.247 . S
C316 O310 1.261 . S
C317 O312 1.259 . S
C317 O314 1.235 . S
O318 Co308 2.021 . S
O318 C315 1.238 . S
O319 Co313 2.052 . S
O319 C315 1.241 . S
O320 Co308 2.137 . S
O320 C311 1.247 . S
O321 Co308 2.244 . S
O321 C311 1.272 . S
O321 Co313 2.135 . S
Co322 O323 2.216 . S
Co322 O324 2.091 . S
Co322 O326 2.004 . S
Co322 O332 2.021 . S
Co322 O334 2.137 . S
Co322 O335 2.244 . S
O323 Co322 2.216 . S
O323 C330 1.247 . S
O324 Co322 2.091 . S
O324 C330 1.261 . S
C325 O334 1.247 . S
C325 O335 1.272 . S
O326 Co322 2.004 . S
O326 C331 1.259 . S
Co327 O328 2.061 . S
Co327 O333 2.052 . S
Co327 O335 2.135 . S
O328 Co327 2.061 . S
O328 C331 1.235 . S
C329 O332 1.238 . S
C329 O333 1.241 . S
C330 O323 1.247 . S
C330 O324 1.261 . S
C331 O326 1.259 . S
C331 O328 1.235 . S
O332 Co322 2.021 . S
O332 C329 1.238 . S
O333 Co327 2.052 . S
O333 C329 1.241 . S
O334 Co322 2.137 . S
O334 C325 1.247 . S
O335 Co322 2.244 . S
O335 C325 1.272 . S
O335 Co327 2.135 . S
Co336 O337 2.216 . S
Co336 O338 2.091 . S
Co336 O340 2.004 . S
Co336 O346 2.021 . S
Co336 O348 2.137 . S
Co336 O349 2.244 . S
O337 Co336 2.216 . S
O337 C344 1.247 . S
O338 Co336 2.091 . S
O338 C344 1.261 . S
C339 O348 1.247 . S
C339 O349 1.272 . S
O340 Co336 2.004 . S
O340 C345 1.259 . S
Co341 O342 2.061 . S
Co341 O347 2.052 . S
Co341 O349 2.135 . S
O342 Co341 2.061 . S
O342 C345 1.235 . S
C343 O346 1.238 . S
C343 O347 1.241 . S
C344 O337 1.247 . S
C344 O338 1.261 . S
C345 O340 1.259 . S
C345 O342 1.235 . S
O346 Co336 2.021 . S
O346 C343 1.238 . S
O347 Co341 2.052 . S
O347 C343 1.241 . S
O348 Co336 2.137 . S
O348 C339 1.247 . S
O349 Co336 2.244 . S
O349 C339 1.272 . S
O349 Co341 2.135 . S
Co350 O351 2.216 . S
Co350 O352 2.091 . S
Co350 O354 2.004 . S
Co350 O360 2.021 . S
Co350 O362 2.137 . S
Co350 O363 2.244 . S
O351 Co350 2.216 . S
O351 C358 1.247 . S
O352 Co350 2.091 . S
O352 C358 1.261 . S
C353 O362 1.247 . S
C353 O363 1.272 . S
O354 Co350 2.004 . S
O354 C359 1.259 . S
Co355 O356 2.061 . S
Co355 O361 2.052 . S
Co355 O363 2.135 . S
O356 Co355 2.061 . S
O356 C359 1.235 . S
C357 O360 1.217 1_554 S
C357 O361 1.240 1_554 S
C358 O351 1.247 . S
C358 O352 1.261 . S
C359 O354 1.259 . S
C359 O356 1.235 . S
O360 Co350 2.021 . S
O360 C357 1.217 1_556 S
O361 Co355 2.052 . S
O361 C357 1.240 1_556 S
O362 Co350 2.137 . S
O362 C353 1.247 . S
O363 Co350 2.244 . S
O363 C353 1.272 . S
O363 Co355 2.135 . S
Co364 O365 2.216 . S
Co364 O366 2.091 . S
Co364 O368 2.004 . S
Co364 O374 2.021 . S
Co364 O376 2.137 . S
Co364 O377 2.244 . S
O365 Co364 2.216 . S
O365 C372 1.247 . S
O366 Co364 2.091 . S
O366 C372 1.261 . S
C367 O376 1.247 . S
C367 O377 1.272 . S
O368 Co364 2.004 . S
O368 C373 1.259 . S
Co369 O370 2.061 . S
Co369 O375 2.052 . S
Co369 O377 2.135 . S
O370 Co369 2.061 . S
O370 C373 1.235 . S
C371 O374 1.238 . S
C371 O375 1.241 . S
C372 O365 1.247 . S
C372 O366 1.261 . S
C373 O368 1.259 . S
C373 O370 1.235 . S
O374 Co364 2.021 . S
O374 C371 1.238 . S
O375 Co369 2.052 . S
O375 C371 1.241 . S
O376 Co364 2.137 . S
O376 C367 1.247 . S
O377 Co364 2.244 . S
O377 C367 1.272 . S
O377 Co369 2.135 . S
Co378 O379 2.216 . S
Co378 O380 2.091 . S
Co378 O382 2.004 . S
Co378 O388 2.021 . S
Co378 O390 2.137 . S
Co378 O391 2.244 . S
O379 Co378 2.216 . S
O379 C386 1.247 . S
O380 Co378 2.091 . S
O380 C386 1.261 . S
C381 O390 1.247 . S
C381 O391 1.272 . S
O382 Co378 2.004 . S
O382 C387 1.259 . S
Co383 O384 2.061 . S
Co383 O389 2.052 . S
Co383 O391 2.135 . S
O384 Co383 2.061 . S
O384 C387 1.235 . S
C385 O388 1.238 . S
C385 O389 1.241 . S
C386 O379 1.247 . S
C386 O380 1.261 . S
C387 O382 1.259 . S
C387 O384 1.235 . S
O388 Co378 2.021 . S
O388 C385 1.238 . S
O389 Co383 2.052 . S
O389 C385 1.241 . S
O390 Co378 2.137 . S
O390 C381 1.247 . S
O391 Co378 2.244 . S
O391 C381 1.272 . S
O391 Co383 2.135 . S
Co392 O393 2.216 . S
Co392 O394 2.091 . S
Co392 O396 2.004 . S
Co392 O402 2.021 . S
Co392 O404 2.137 . S
Co392 O405 2.244 . S
O393 Co392 2.216 . S
O393 C400 1.247 . S
O394 Co392 2.091 . S
O394 C400 1.261 . S
C395 O404 1.247 . S
C395 O405 1.272 . S
O396 Co392 2.004 . S
O396 C401 1.259 . S
Co397 O398 2.061 . S
Co397 O403 2.052 . S
Co397 O405 2.135 . S
O398 Co397 2.061 . S
O398 C401 1.235 . S
C399 O402 1.238 . S
C399 O403 1.241 . S
C400 O393 1.247 . S
C400 O394 1.261 . S
C401 O396 1.259 . S
C401 O398 1.235 . S
O402 Co392 2.021 . S
O402 C399 1.238 . S
O403 Co397 2.052 . S
O403 C399 1.241 . S
O404 Co392 2.137 . S
O404 C395 1.247 . S
O405 Co392 2.244 . S
O405 C395 1.272 . S
O405 Co397 2.135 . S
Co406 O407 2.216 . S
Co406 O408 2.091 . S
Co406 O410 2.004 . S
Co406 O416 2.021 . S
Co406 O418 2.137 . S
Co406 O419 2.244 . S
O407 Co406 2.216 . S
O407 C414 1.247 . S
O408 Co406 2.091 . S
O408 C414 1.261 . S
C409 O418 1.247 . S
C409 O419 1.272 . S
O410 Co406 2.004 . S
O410 C415 1.259 . S
Co411 O412 2.061 . S
Co411 O417 2.052 . S
Co411 O419 2.135 . S
O412 Co411 2.061 . S
O412 C415 1.235 . S
C413 O416 1.217 1_556 S
C413 O417 1.240 1_556 S
C414 O407 1.247 . S
C414 O408 1.261 . S
C415 O410 1.259 . S
C415 O412 1.235 . S
O416 Co406 2.021 . S
O416 C413 1.217 1_554 S
O417 Co411 2.052 . S
O417 C413 1.240 1_554 S
O418 Co406 2.137 . S
O418 C409 1.247 . S
O419 Co406 2.244 . S
O419 C409 1.272 . S
O419 Co411 2.135 . S
Co420 O421 2.216 . S
Co420 O422 2.091 . S
Co420 O424 2.004 . S
Co420 O430 2.021 . S
Co420 O432 2.137 . S
Co420 O433 2.244 . S
O421 Co420 2.216 . S
O421 C428 1.247 . S
O422 Co420 2.091 . S
O422 C428 1.261 . S
C423 O432 1.247 . S
C423 O433 1.272 . S
O424 Co420 2.004 . S
O424 C429 1.259 . S
Co425 O426 2.061 . S
Co425 O431 2.052 . S
Co425 O433 2.135 . S
O426 Co425 2.061 . S
O426 C429 1.235 . S
C427 O430 1.238 . S
C427 O431 1.241 . S
C428 O421 1.247 . S
C428 O422 1.261 . S
C429 O424 1.259 . S
C429 O426 1.235 . S
O430 Co420 2.021 . S
O430 C427 1.238 . S
O431 Co425 2.052 . S
O431 C427 1.241 . S
O432 Co420 2.137 . S
O432 C423 1.247 . S
O433 Co420 2.244 . S
O433 C423 1.272 . S
O433 Co425 2.135 . S
Co434 O435 2.216 . S
Co434 O436 2.091 . S
Co434 O438 2.004 . S
Co434 O444 2.021 . S
Co434 O446 2.137 . S
Co434 O447 2.244 . S
O435 Co434 2.216 . S
O435 C442 1.247 . S
O436 Co434 2.091 . S
O436 C442 1.261 . S
C437 O446 1.247 . S
C437 O447 1.272 . S
O438 Co434 2.004 . S
O438 C443 1.259 . S
Co439 O440 2.061 . S
Co439 O445 2.052 . S
Co439 O447 2.135 . S
O440 Co439 2.061 . S
O440 C443 1.235 . S
C441 O444 1.238 . S
C441 O445 1.241 . S
C442 O435 1.247 . S
C442 O436 1.261 . S
C443 O438 1.259 . S
C443 O440 1.235 . S
O444 Co434 2.021 . S
O444 C441 1.238 . S
O445 Co439 2.052 . S
O445 C441 1.241 . S
O446 Co434 2.137 . S
O446 C437 1.247 . S
O447 Co434 2.244 . S
O447 C437 1.272 . S
O447 Co439 2.135 . S
C448 C449 1.349 . S
C448 C450 1.327 . S
C448 H473 0.950 . S
C449 C448 1.349 . S
C449 C465 1.349 . S
C450 C448 1.327 . S
C450 C469 1.429 . S
C450 H474 0.950 . S
C451 C468 1.574 . S
C451 C470 1.368 . S
C451 H475 0.949 . S
H452 C456 0.949 . S
C453 C454 1.349 . S
C453 C455 1.327 . S
C453 H476 0.950 . S
C454 C453 1.349 . S
C454 C466 1.349 . S
C455 C453 1.327 . S
C455 C471 1.429 . S
C455 H477 0.950 . S
C456 H452 0.949 . S
C456 C464 1.574 . S
C456 C472 1.368 . S
H457 C465 0.950 . S
H458 C463 0.950 . S
H459 C464 0.949 . S
H460 C466 0.950 . S
H461 C467 0.950 . S
H462 C468 0.949 . S
C463 H458 0.950 . S
C463 C465 1.327 . S
C463 C469 1.429 . S
C464 C456 1.574 . S
C464 H459 0.949 . S
C464 C470 1.368 . S
C465 C449 1.349 . S
C465 H457 0.950 . S
C465 C463 1.327 . S
C466 C454 1.349 . S
C466 H460 0.950 . S
C466 C467 1.327 . S
C467 H461 0.950 . S
C467 C466 1.327 . S
C467 C471 1.429 . S
C468 C451 1.574 . S
C468 H462 0.949 . S
C468 C472 1.368 . S
C469 C450 1.429 . S
C469 C463 1.429 . S
C469 C470 1.523 . S
C470 C451 1.368 . S
C470 C464 1.368 . S
C470 C469 1.523 . S
C471 C455 1.429 . S
C471 C467 1.429 . S
C471 C472 1.523 . S
C472 C456 1.368 . S
C472 C468 1.368 . S
C472 C471 1.523 . S
H473 C448 0.950 . S
H474 C450 0.950 . S
H475 C451 0.949 . S
H476 C453 0.950 . S
H477 C455 0.950 . S
C478 C479 1.349 . S
C478 C480 1.327 . S
C478 H503 0.950 . S
C479 C478 1.349 . S
C479 C495 1.349 . S
C480 C478 1.327 . S
C480 C499 1.429 . S
C480 H504 0.950 . S
C481 C498 1.574 . S
C481 C500 1.368 . S
C481 H505 0.949 . S
H482 C486 0.949 . S
C483 C484 1.349 . S
C483 C485 1.327 . S
C483 H506 0.950 . S
C484 C483 1.349 . S
C484 C496 1.349 . S
C485 C483 1.327 . S
C485 C501 1.429 . S
C485 H507 0.950 . S
C486 H482 0.949 . S
C486 C494 1.574 . S
C486 C502 1.368 . S
H487 C495 0.950 . S
H488 C493 0.950 . S
H489 C494 0.949 . S
H490 C496 0.950 . S
H491 C497 0.950 . S
H492 C498 0.949 . S
C493 H488 0.950 . S
C493 C495 1.327 . S
C493 C499 1.429 . S
C494 C486 1.574 . S
C494 H489 0.949 . S
C494 C500 1.368 . S
C495 C479 1.349 . S
C495 H487 0.950 . S
C495 C493 1.327 . S
C496 C484 1.349 . S
C496 H490 0.950 . S
C496 C497 1.327 . S
C497 H491 0.950 . S
C497 C496 1.327 . S
C497 C501 1.429 . S
C498 C481 1.574 . S
C498 H492 0.949 . S
C498 C502 1.368 . S
C499 C480 1.429 . S
C499 C493 1.429 . S
C499 C500 1.523 . S
C500 C481 1.368 . S
C500 C494 1.368 . S
C500 C499 1.523 . S
C501 C485 1.429 . S
C501 C497 1.429 . S
C501 C502 1.523 . S
C502 C486 1.368 . S
C502 C498 1.368 . S
C502 C501 1.523 . S
H503 C478 0.950 . S
H504 C480 0.950 . S
H505 C481 0.949 . S
H506 C483 0.950 . S
H507 C485 0.950 . S
C508 C509 1.349 . S
C508 C510 1.327 . S
C508 H533 0.950 . S
C509 C508 1.349 . S
C509 C525 1.349 . S
C510 C508 1.327 . S
C510 C529 1.429 . S
C510 H534 0.950 . S
C511 C528 1.574 . S
C511 C530 1.368 . S
C511 H535 0.949 . S
H512 C516 0.949 . S
C513 C514 1.349 . S
C513 C515 1.327 . S
C513 H536 0.950 . S
C514 C513 1.349 . S
C514 C526 1.349 . S
C515 C513 1.327 . S
C515 C531 1.429 . S
C515 H537 0.950 . S
C516 H512 0.949 . S
C516 C524 1.574 . S
C516 C532 1.368 . S
H517 C525 0.950 . S
H518 C523 0.950 . S
H519 C524 0.949 . S
H520 C526 0.950 . S
H521 C527 0.950 . S
H522 C528 0.949 . S
C523 H518 0.950 . S
C523 C525 1.327 . S
C523 C529 1.429 . S
C524 C516 1.574 . S
C524 H519 0.949 . S
C524 C530 1.368 . S
C525 C509 1.349 . S
C525 H517 0.950 . S
C525 C523 1.327 . S
C526 C514 1.349 . S
C526 H520 0.950 . S
C526 C527 1.327 . S
C527 H521 0.950 . S
C527 C526 1.327 . S
C527 C531 1.429 . S
C528 C511 1.574 . S
C528 H522 0.949 . S
C528 C532 1.368 . S
C529 C510 1.429 . S
C529 C523 1.429 . S
C529 C530 1.523 . S
C530 C511 1.368 . S
C530 C524 1.368 . S
C530 C529 1.523 . S
C531 C515 1.429 . S
C531 C527 1.429 . S
C531 C532 1.523 . S
C532 C516 1.368 . S
C532 C528 1.368 . S
C532 C531 1.523 . S
H533 C508 0.950 . S
H534 C510 0.950 . S
H535 C511 0.949 . S
H536 C513 0.950 . S
H537 C515 0.950 . S
C538 C539 1.349 . S
C538 C540 1.327 . S
C538 H563 0.950 . S
C539 C538 1.349 . S
C539 C555 1.349 . S
C540 C538 1.327 . S
C540 C559 1.429 . S
C540 H564 0.950 . S
C541 C558 1.574 . S
C541 C560 1.368 . S
C541 H565 0.949 . S
H542 C546 0.949 . S
C543 C544 1.349 . S
C543 C545 1.327 . S
C543 H566 0.950 . S
C544 C543 1.349 . S
C544 C556 1.349 . S
C545 C543 1.327 . S
C545 C561 1.429 . S
C545 H567 0.950 . S
C546 H542 0.949 . S
C546 C554 1.574 . S
C546 C562 1.368 . S
H547 C555 0.950 . S
H548 C553 0.950 . S
H549 C554 0.949 . S
H550 C556 0.950 . S
H551 C557 0.950 . S
H552 C558 0.949 . S
C553 H548 0.950 . S
C553 C555 1.327 . S
C553 C559 1.429 . S
C554 C546 1.574 . S
C554 H549 0.949 . S
C554 C560 1.368 . S
C555 C539 1.349 . S
C555 H547 0.950 . S
C555 C553 1.327 . S
C556 C544 1.349 . S
C556 H550 0.950 . S
C556 C557 1.327 . S
C557 H551 0.950 . S
C557 C556 1.327 . S
C557 C561 1.429 . S
C558 C541 1.574 . S
C558 H552 0.949 . S
C558 C562 1.368 . S
C559 C540 1.429 . S
C559 C553 1.429 . S
C559 C560 1.523 . S
C560 C541 1.368 . S
C560 C554 1.368 . S
C560 C559 1.523 . S
C561 C545 1.429 . S
C561 C557 1.429 . S
C561 C562 1.523 . S
C562 C546 1.368 . S
C562 C558 1.368 . S
C562 C561 1.523 . S
H563 C538 0.950 . S
H564 C540 0.950 . S
H565 C541 0.949 . S
H566 C543 0.950 . S
H567 C545 0.950 . S
C568 C569 1.349 . S
C568 C570 1.327 . S
C568 H593 0.950 . S
C569 C568 1.349 . S
C569 C585 1.349 . S
C570 C568 1.327 . S
C570 C589 1.429 . S
C570 H594 0.950 . S
C571 C588 1.574 . S
C571 C590 1.368 . S
C571 H595 0.949 . S
H572 C576 0.949 . S
C573 C574 1.349 . S
C573 C575 1.327 . S
C573 H596 0.950 . S
C574 C573 1.349 . S
C574 C586 1.349 . S
C575 C573 1.327 . S
C575 C591 1.429 . S
C575 H597 0.950 . S
C576 H572 0.949 . S
C576 C584 1.574 . S
C576 C592 1.368 . S
H577 C585 0.950 . S
H578 C583 0.950 . S
H579 C584 0.949 . S
H580 C586 0.950 . S
H581 C587 0.950 . S
H582 C588 0.949 . S
C583 H578 0.950 . S
C583 C585 1.327 . S
C583 C589 1.429 . S
C584 C576 1.574 . S
C584 H579 0.949 . S
C584 C590 1.368 . S
C585 C569 1.349 . S
C585 H577 0.950 . S
C585 C583 1.327 . S
C586 C574 1.349 . S
C586 H580 0.950 . S
C586 C587 1.327 . S
C587 H581 0.950 . S
C587 C586 1.327 . S
C587 C591 1.429 . S
C588 C571 1.574 . S
C588 H582 0.949 . S
C588 C592 1.368 . S
C589 C570 1.429 . S
C589 C583 1.429 . S
C589 C590 1.523 . S
C590 C571 1.368 . S
C590 C584 1.368 . S
C590 C589 1.523 . S
C591 C575 1.429 . S
C591 C587 1.429 . S
C591 C592 1.523 . S
C592 C576 1.368 . S
C592 C588 1.368 . S
C592 C591 1.523 . S
H593 C568 0.950 . S
H594 C570 0.950 . S
H595 C571 0.949 . S
H596 C573 0.950 . S
H597 C575 0.950 . S
C598 C599 1.349 . S
C598 C600 1.327 . S
C598 H623 0.950 . S
C599 C598 1.349 . S
C599 C615 1.349 . S
C600 C598 1.327 . S
C600 C619 1.429 . S
C600 H624 0.950 . S
C601 C618 1.574 . S
C601 C620 1.368 . S
C601 H625 0.949 . S
H602 C606 0.949 . S
C603 C604 1.349 . S
C603 C605 1.327 . S
C603 H626 0.950 . S
C604 C603 1.349 . S
C604 C616 1.349 . S
C605 C603 1.327 . S
C605 C621 1.429 . S
C605 H627 0.950 . S
C606 H602 0.949 . S
C606 C614 1.574 . S
C606 C622 1.368 . S
H607 C615 0.950 . S
H608 C613 0.950 . S
H609 C614 0.949 . S
H610 C616 0.950 . S
H611 C617 0.950 . S
H612 C618 0.949 . S
C613 H608 0.950 . S
C613 C615 1.327 . S
C613 C619 1.429 . S
C614 C606 1.574 . S
C614 H609 0.949 . S
C614 C620 1.368 . S
C615 C599 1.349 . S
C615 H607 0.950 . S
C615 C613 1.327 . S
C616 C604 1.349 . S
C616 H610 0.950 . S
C616 C617 1.327 . S
C617 H611 0.950 . S
C617 C616 1.327 . S
C617 C621 1.429 . S
C618 C601 1.574 . S
C618 H612 0.949 . S
C618 C622 1.368 . S
C619 C600 1.429 . S
C619 C613 1.429 . S
C619 C620 1.523 . S
C620 C601 1.368 . S
C620 C614 1.368 . S
C620 C619 1.523 . S
C621 C605 1.429 . S
C621 C617 1.429 . S
C621 C622 1.523 . S
C622 C606 1.368 . S
C622 C618 1.368 . S
C622 C621 1.523 . S
H623 C598 0.950 . S
H624 C600 0.950 . S
H625 C601 0.949 . S
H626 C603 0.950 . S
H627 C605 0.950 . S
C628 C629 1.349 . S
C628 C630 1.327 . S
C628 H653 0.950 . S
C629 C628 1.349 . S
C629 C645 1.349 . S
C630 C628 1.327 . S
C630 C649 1.429 . S
C630 H654 0.950 . S
C631 C648 1.574 . S
C631 C650 1.368 . S
C631 H655 0.949 . S
H632 C636 0.949 . S
C633 C634 1.349 . S
C633 C635 1.327 . S
C633 H656 0.950 . S
C634 C633 1.349 . S
C634 C646 1.349 . S
C635 C633 1.327 . S
C635 C651 1.429 . S
C635 H657 0.950 . S
C636 H632 0.949 . S
C636 C644 1.574 . S
C636 C652 1.368 . S
H637 C645 0.950 . S
H638 C643 0.950 . S
H639 C644 0.949 . S
H640 C646 0.950 . S
H641 C647 0.950 . S
H642 C648 0.949 . S
C643 H638 0.950 . S
C643 C645 1.327 . S
C643 C649 1.429 . S
C644 C636 1.574 . S
C644 H639 0.949 . S
C644 C650 1.368 . S
C645 C629 1.349 . S
C645 H637 0.950 . S
C645 C643 1.327 . S
C646 C634 1.349 . S
C646 H640 0.950 . S
C646 C647 1.327 . S
C647 H641 0.950 . S
C647 C646 1.327 . S
C647 C651 1.429 . S
C648 C631 1.574 . S
C648 H642 0.949 . S
C648 C652 1.368 . S
C649 C630 1.429 . S
C649 C643 1.429 . S
C649 C650 1.523 . S
C650 C631 1.368 . S
C650 C644 1.368 . S
C650 C649 1.523 . S
C651 C635 1.429 . S
C651 C647 1.429 . S
C651 C652 1.523 . S
C652 C636 1.368 . S
C652 C648 1.368 . S
C652 C651 1.523 . S
H653 C628 0.950 . S
H654 C630 0.950 . S
H655 C631 0.949 . S
H656 C633 0.950 . S
H657 C635 0.950 . S
C658 C659 1.349 . S
C658 C660 1.327 . S
C658 H683 0.950 . S
C659 C658 1.349 . S
C659 C675 1.349 . S
C660 C658 1.327 . S
C660 C679 1.429 . S
C660 H684 0.950 . S
C661 C678 1.574 . S
C661 C680 1.368 . S
C661 H685 0.949 . S
H662 C666 0.949 . S
C663 C664 1.349 . S
C663 C665 1.327 . S
C663 H686 0.950 . S
C664 C663 1.349 . S
C664 C676 1.349 . S
C665 C663 1.327 . S
C665 C681 1.429 . S
C665 H687 0.950 . S
C666 H662 0.949 . S
C666 C674 1.574 . S
C666 C682 1.368 . S
H667 C675 0.950 . S
H668 C673 0.950 . S
H669 C674 0.949 . S
H670 C676 0.950 . S
H671 C677 0.950 . S
H672 C678 0.949 . S
C673 H668 0.950 . S
C673 C675 1.327 . S
C673 C679 1.429 . S
C674 C666 1.574 . S
C674 H669 0.949 . S
C674 C680 1.368 . S
C675 C659 1.349 . S
C675 H667 0.950 . S
C675 C673 1.327 . S
C676 C664 1.349 . S
C676 H670 0.950 . S
C676 C677 1.327 . S
C677 H671 0.950 . S
C677 C676 1.327 . S
C677 C681 1.429 . S
C678 C661 1.574 . S
C678 H672 0.949 . S
C678 C682 1.368 . S
C679 C660 1.429 . S
C679 C673 1.429 . S
C679 C680 1.523 . S
C680 C661 1.368 . S
C680 C674 1.368 . S
C680 C679 1.523 . S
C681 C665 1.429 . S
C681 C677 1.429 . S
C681 C682 1.523 . S
C682 C666 1.368 . S
C682 C678 1.368 . S
C682 C681 1.523 . S
H683 C658 0.950 . S
H684 C660 0.950 . S
H685 C661 0.949 . S
H686 C663 0.950 . S
H687 C665 0.950 . S
C688 C689 1.349 . S
C688 C690 1.327 . S
C688 H713 0.950 . S
C689 C688 1.349 . S
C689 C705 1.349 . S
C690 C688 1.327 . S
C690 C709 1.429 . S
C690 H714 0.950 . S
C691 C708 1.574 . S
C691 C710 1.368 . S
C691 H715 0.949 . S
H692 C696 0.949 . S
C693 C694 1.349 . S
C693 C695 1.327 . S
C693 H716 0.950 . S
C694 C693 1.349 . S
C694 C706 1.349 . S
C695 C693 1.327 . S
C695 C711 1.429 . S
C695 H717 0.950 . S
C696 H692 0.949 . S
C696 C704 1.574 . S
C696 C712 1.368 . S
H697 C705 0.950 . S
H698 C703 0.950 . S
H699 C704 0.949 . S
H700 C706 0.950 . S
H701 C707 0.950 . S
H702 C708 0.949 . S
C703 H698 0.950 . S
C703 C705 1.327 . S
C703 C709 1.429 . S
C704 C696 1.574 . S
C704 H699 0.949 . S
C704 C710 1.368 . S
C705 C689 1.349 . S
C705 H697 0.950 . S
C705 C703 1.327 . S
C706 C694 1.349 . S
C706 H700 0.950 . S
C706 C707 1.327 . S
C707 H701 0.950 . S
C707 C706 1.327 . S
C707 C711 1.429 . S
C708 C691 1.574 . S
C708 H702 0.949 . S
C708 C712 1.368 . S
C709 C690 1.429 . S
C709 C703 1.429 . S
C709 C710 1.523 . S
C710 C691 1.368 . S
C710 C704 1.368 . S
C710 C709 1.523 . S
C711 C695 1.429 . S
C711 C707 1.429 . S
C711 C712 1.523 . S
C712 C696 1.368 . S
C712 C708 1.368 . S
C712 C711 1.523 . S
H713 C688 0.950 . S
H714 C690 0.950 . S
H715 C691 0.949 . S
H716 C693 0.950 . S
H717 C695 0.950 . S
C718 C719 1.349 . S
C718 C720 1.327 . S
C718 H743 0.950 . S
C719 C718 1.349 . S
C719 C735 1.349 . S
C720 C718 1.327 . S
C720 C739 1.429 . S
C720 H744 0.950 . S
C721 C738 1.574 . S
C721 C740 1.368 . S
C721 H745 0.949 . S
H722 C726 0.949 . S
C723 C724 1.349 . S
C723 C725 1.327 . S
C723 H746 0.950 . S
C724 C723 1.349 . S
C724 C736 1.349 . S
C725 C723 1.327 . S
C725 C741 1.429 . S
C725 H747 0.950 . S
C726 H722 0.949 . S
C726 C734 1.574 . S
C726 C742 1.368 . S
H727 C735 0.950 . S
H728 C733 0.950 . S
H729 C734 0.949 . S
H730 C736 0.950 . S
H731 C737 0.950 . S
H732 C738 0.949 . S
C733 H728 0.950 . S
C733 C735 1.327 . S
C733 C739 1.429 . S
C734 C726 1.574 . S
C734 H729 0.949 . S
C734 C740 1.368 . S
C735 C719 1.349 . S
C735 H727 0.950 . S
C735 C733 1.327 . S
C736 C724 1.349 . S
C736 H730 0.950 . S
C736 C737 1.327 . S
C737 H731 0.950 . S
C737 C736 1.327 . S
C737 C741 1.429 . S
C738 C721 1.574 . S
C738 H732 0.949 . S
C738 C742 1.368 . S
C739 C720 1.429 . S
C739 C733 1.429 . S
C739 C740 1.523 . S
C740 C721 1.368 . S
C740 C734 1.368 . S
C740 C739 1.523 . S
C741 C725 1.429 . S
C741 C737 1.429 . S
C741 C742 1.523 . S
C742 C726 1.368 . S
C742 C738 1.368 . S
C742 C741 1.523 . S
H743 C718 0.950 . S
H744 C720 0.950 . S
H745 C721 0.949 . S
H746 C723 0.950 . S
H747 C725 0.950 . S
C748 C749 1.349 . S
C748 C750 1.327 . S
C748 H773 0.950 . S
C749 C748 1.349 . S
C749 C765 1.349 . S
C750 C748 1.327 . S
C750 C769 1.429 . S
C750 H774 0.950 . S
C751 C768 1.574 . S
C751 C770 1.368 . S
C751 H775 0.949 . S
H752 C756 0.949 . S
C753 C754 1.349 . S
C753 C755 1.327 . S
C753 H776 0.950 . S
C754 C753 1.349 . S
C754 C766 1.349 . S
C755 C753 1.327 . S
C755 C771 1.429 . S
C755 H777 0.950 . S
C756 H752 0.949 . S
C756 C764 1.574 . S
C756 C772 1.368 . S
H757 C765 0.950 . S
H758 C763 0.950 . S
H759 C764 0.949 . S
H760 C766 0.950 . S
H761 C767 0.950 . S
H762 C768 0.949 . S
C763 H758 0.950 . S
C763 C765 1.327 . S
C763 C769 1.429 . S
C764 C756 1.574 . S
C764 H759 0.949 . S
C764 C770 1.368 . S
C765 C749 1.349 . S
C765 H757 0.950 . S
C765 C763 1.327 . S
C766 C754 1.349 . S
C766 H760 0.950 . S
C766 C767 1.327 . S
C767 H761 0.950 . S
C767 C766 1.327 . S
C767 C771 1.429 . S
C768 C751 1.574 . S
C768 H762 0.949 . S
C768 C772 1.368 . S
C769 C750 1.429 . S
C769 C763 1.429 . S
C769 C770 1.523 . S
C770 C751 1.368 . S
C770 C764 1.368 . S
C770 C769 1.523 . S
C771 C755 1.429 . S
C771 C767 1.429 . S
C771 C772 1.523 . S
C772 C756 1.368 . S
C772 C768 1.368 . S
C772 C771 1.523 . S
H773 C748 0.950 . S
H774 C750 0.950 . S
H775 C751 0.949 . S
H776 C753 0.950 . S
H777 C755 0.950 . S
C778 C779 1.349 . S
C778 C780 1.327 . S
C778 H803 0.950 . S
C779 C778 1.349 . S
C779 C795 1.349 . S
C780 C778 1.327 . S
C780 C799 1.429 . S
C780 H804 0.950 . S
C781 C798 1.574 . S
C781 C800 1.368 . S
C781 H805 0.949 . S
H782 C786 0.949 . S
C783 C784 1.349 . S
C783 C785 1.327 . S
C783 H806 0.950 . S
C784 C783 1.349 . S
C784 C796 1.349 . S
C785 C783 1.327 . S
C785 C801 1.429 . S
C785 H807 0.950 . S
C786 H782 0.949 . S
C786 C794 1.574 . S
C786 C802 1.368 . S
H787 C795 0.950 . S
H788 C793 0.950 . S
H789 C794 0.949 . S
H790 C796 0.950 . S
H791 C797 0.950 . S
H792 C798 0.949 . S
C793 H788 0.950 . S
C793 C795 1.327 . S
C793 C799 1.429 . S
C794 C786 1.574 . S
C794 H789 0.949 . S
C794 C800 1.368 . S
C795 C779 1.349 . S
C795 H787 0.950 . S
C795 C793 1.327 . S
C796 C784 1.349 . S
C796 H790 0.950 . S
C796 C797 1.327 . S
C797 H791 0.950 . S
C797 C796 1.327 . S
C797 C801 1.429 . S
C798 C781 1.574 . S
C798 H792 0.949 . S
C798 C802 1.368 . S
C799 C780 1.429 . S
C799 C793 1.429 . S
C799 C800 1.523 . S
C800 C781 1.368 . S
C800 C794 1.368 . S
C800 C799 1.523 . S
C801 C785 1.429 . S
C801 C797 1.429 . S
C801 C802 1.523 . S
C802 C786 1.368 . S
C802 C798 1.368 . S
C802 C801 1.523 . S
H803 C778 0.950 . S
H804 C780 0.950 . S
H805 C781 0.949 . S
H806 C783 0.950 . S
H807 C785 0.950 . S
C808 C809 1.349 . S
C808 C810 1.327 . S
C808 H833 0.950 . S
C809 C808 1.349 . S
C809 C825 1.349 . S
C810 C808 1.327 . S
C810 C829 1.429 . S
C810 H834 0.950 . S
C811 C828 1.574 . S
C811 C830 1.368 . S
C811 H835 0.949 . S
H812 C816 0.949 . S
C813 C814 1.349 . S
C813 C815 1.327 . S
C813 H836 0.950 . S
C814 C813 1.349 . S
C814 C826 1.349 . S
C815 C813 1.327 . S
C815 C831 1.429 . S
C815 H837 0.950 . S
C816 H812 0.949 . S
C816 C824 1.574 . S
C816 C832 1.368 . S
H817 C825 0.950 . S
H818 C823 0.950 . S
H819 C824 0.949 . S
H820 C826 0.950 . S
H821 C827 0.950 . S
H822 C828 0.949 . S
C823 H818 0.950 . S
C823 C825 1.327 . S
C823 C829 1.429 . S
C824 C816 1.574 . S
C824 H819 0.949 . S
C824 C830 1.368 . S
C825 C809 1.349 . S
C825 H817 0.950 . S
C825 C823 1.327 . S
C826 C814 1.349 . S
C826 H820 0.950 . S
C826 C827 1.327 . S
C827 H821 0.950 . S
C827 C826 1.327 . S
C827 C831 1.429 . S
C828 C811 1.574 . S
C828 H822 0.949 . S
C828 C832 1.368 . S
C829 C810 1.429 . S
C829 C823 1.429 . S
C829 C830 1.523 . S
C830 C811 1.368 . S
C830 C824 1.368 . S
C830 C829 1.523 . S
C831 C815 1.429 . S
C831 C827 1.429 . S
C831 C832 1.523 . S
C832 C816 1.368 . S
C832 C828 1.368 . S
C832 C831 1.523 . S
H833 C808 0.950 . S
H834 C810 0.950 . S
H835 C811 0.949 . S
H836 C813 0.950 . S
H837 C815 0.950 . S
C838 C839 1.349 . S
C838 C840 1.327 . S
C838 H863 0.950 . S
C839 C838 1.349 . S
C839 C855 1.349 . S
C840 C838 1.327 . S
C840 C859 1.429 . S
C840 H864 0.950 . S
C841 C858 1.574 . S
C841 C860 1.368 . S
C841 H865 0.949 . S
H842 C846 0.949 . S
C843 C844 1.349 . S
C843 C845 1.327 . S
C843 H866 0.950 . S
C844 C843 1.349 . S
C844 C856 1.349 . S
C845 C843 1.327 . S
C845 C861 1.429 . S
C845 H867 0.950 . S
C846 H842 0.949 . S
C846 C854 1.574 . S
C846 C862 1.368 . S
H847 C855 0.950 . S
H848 C853 0.950 . S
H849 C854 0.949 . S
H850 C856 0.950 . S
H851 C857 0.950 . S
H852 C858 0.949 . S
C853 H848 0.950 . S
C853 C855 1.327 . S
C853 C859 1.429 . S
C854 C846 1.574 . S
C854 H849 0.949 . S
C854 C860 1.368 . S
C855 C839 1.349 . S
C855 H847 0.950 . S
C855 C853 1.327 . S
C856 C844 1.349 . S
C856 H850 0.950 . S
C856 C857 1.327 . S
C857 H851 0.950 . S
C857 C856 1.327 . S
C857 C861 1.429 . S
C858 C841 1.574 . S
C858 H852 0.949 . S
C858 C862 1.368 . S
C859 C840 1.429 . S
C859 C853 1.429 . S
C859 C860 1.523 . S
C860 C841 1.368 . S
C860 C854 1.368 . S
C860 C859 1.523 . S
C861 C845 1.429 . S
C861 C857 1.429 . S
C861 C862 1.523 . S
C862 C846 1.368 . S
C862 C858 1.368 . S
C862 C861 1.523 . S
H863 C838 0.950 . S
H864 C840 0.950 . S
H865 C841 0.949 . S
H866 C843 0.950 . S
H867 C845 0.950 . S
C868 C869 1.349 . S
C868 C870 1.327 . S
C868 H893 0.950 . S
C869 C868 1.349 . S
C869 C885 1.349 . S
C870 C868 1.327 . S
C870 C889 1.429 . S
C870 H894 0.950 . S
C871 C888 1.574 . S
C871 C890 1.368 . S
C871 H895 0.949 . S
H872 C876 0.949 . S
C873 C874 1.349 . S
C873 C875 1.327 . S
C873 H896 0.950 . S
C874 C873 1.349 . S
C874 C886 1.349 . S
C875 C873 1.327 . S
C875 C891 1.429 . S
C875 H897 0.950 . S
C876 H872 0.949 . S
C876 C884 1.574 . S
C876 C892 1.368 . S
H877 C885 0.950 . S
H878 C883 0.950 . S
H879 C884 0.949 . S
H880 C886 0.950 . S
H881 C887 0.950 . S
H882 C888 0.949 . S
C883 H878 0.950 . S
C883 C885 1.327 . S
C883 C889 1.429 . S
C884 C876 1.574 . S
C884 H879 0.949 . S
C884 C890 1.368 . S
C885 C869 1.349 . S
C885 H877 0.950 . S
C885 C883 1.327 . S
C886 C874 1.349 . S
C886 H880 0.950 . S
C886 C887 1.327 . S
C887 H881 0.950 . S
C887 C886 1.327 . S
C887 C891 1.429 . S
C888 C871 1.574 . S
C888 H882 0.949 . S
C888 C892 1.368 . S
C889 C870 1.429 . S
C889 C883 1.429 . S
C889 C890 1.523 . S
C890 C871 1.368 . S
C890 C884 1.368 . S
C890 C889 1.523 . S
C891 C875 1.429 . S
C891 C887 1.429 . S
C891 C892 1.523 . S
C892 C876 1.368 . S
C892 C888 1.368 . S
C892 C891 1.523 . S
H893 C868 0.950 . S
H894 C870 0.950 . S
H895 C871 0.949 . S
H896 C873 0.950 . S
H897 C875 0.950 . S
C898 C899 1.349 . S
C898 C900 1.327 . S
C898 H923 0.950 . S
C899 C898 1.349 . S
C899 C915 1.349 . S
C900 C898 1.327 . S
C900 C919 1.429 . S
C900 H924 0.950 . S
C901 C918 1.574 . S
C901 C920 1.368 . S
C901 H925 0.949 . S
H902 C906 0.949 . S
C903 C904 1.349 . S
C903 C905 1.327 . S
C903 H926 0.950 . S
C904 C903 1.349 . S
C904 C916 1.349 . S
C905 C903 1.327 . S
C905 C921 1.429 . S
C905 H927 0.950 . S
C906 H902 0.949 . S
C906 C914 1.574 . S
C906 C922 1.368 . S
H907 C915 0.950 . S
H908 C913 0.950 . S
H909 C914 0.949 . S
H910 C916 0.950 . S
H911 C917 0.950 . S
H912 C918 0.949 . S
C913 H908 0.950 . S
C913 C915 1.327 . S
C913 C919 1.429 . S
C914 C906 1.574 . S
C914 H909 0.949 . S
C914 C920 1.368 . S
C915 C899 1.349 . S
C915 H907 0.950 . S
C915 C913 1.327 . S
C916 C904 1.349 . S
C916 H910 0.950 . S
C916 C917 1.327 . S
C917 H911 0.950 . S
C917 C916 1.327 . S
C917 C921 1.429 . S
C918 C901 1.574 . S
C918 H912 0.949 . S
C918 C922 1.368 . S
C919 C900 1.429 . S
C919 C913 1.429 . S
C919 C920 1.523 . S
C920 C901 1.368 . S
C920 C914 1.368 . S
C920 C919 1.523 . S
C921 C905 1.429 . S
C921 C917 1.429 . S
C921 C922 1.523 . S
C922 C906 1.368 . S
C922 C918 1.368 . S
C922 C921 1.523 . S
H923 C898 0.950 . S
H924 C900 0.950 . S
H925 C901 0.949 . S
H926 C903 0.950 . S
H927 C905 0.950 . S
C928 C929 1.349 . S
C928 C930 1.327 . S
C928 H953 0.950 . S
C929 C928 1.349 . S
C929 C945 1.349 . S
C930 C928 1.327 . S
C930 C949 1.429 . S
C930 H954 0.950 . S
C931 C948 1.574 . S
C931 C950 1.368 . S
C931 H955 0.949 . S
H932 C936 0.949 . S
C933 C934 1.349 . S
C933 C935 1.327 . S
C933 H956 0.950 . S
C934 C933 1.349 . S
C934 C946 1.349 . S
C935 C933 1.327 . S
C935 C951 1.429 . S
C935 H957 0.950 . S
C936 H932 0.949 . S
C936 C944 1.574 . S
C936 C952 1.368 . S
H937 C945 0.950 . S
H938 C943 0.950 . S
H939 C944 0.949 . S
H940 C946 0.950 . S
H941 C947 0.950 . S
H942 C948 0.949 . S
C943 H938 0.950 . S
C943 C945 1.327 . S
C943 C949 1.429 . S
C944 C936 1.574 . S
C944 H939 0.949 . S
C944 C950 1.368 . S
C945 C929 1.349 . S
C945 H937 0.950 . S
C945 C943 1.327 . S
C946 C934 1.349 . S
C946 H940 0.950 . S
C946 C947 1.327 . S
C947 H941 0.950 . S
C947 C946 1.327 . S
C947 C951 1.429 . S
C948 C931 1.574 . S
C948 H942 0.949 . S
C948 C952 1.368 . S
C949 C930 1.429 . S
C949 C943 1.429 . S
C949 C950 1.523 . S
C950 C931 1.368 . S
C950 C944 1.368 . S
C950 C949 1.523 . S
C951 C935 1.429 . S
C951 C947 1.429 . S
C951 C952 1.523 . S
C952 C936 1.368 . S
C952 C948 1.368 . S
C952 C951 1.523 . S
H953 C928 0.950 . S
H954 C930 0.950 . S
H955 C931 0.949 . S
H956 C933 0.950 . S
H957 C935 0.950 . S
C958 C959 1.349 . S
C958 C960 1.327 . S
C958 H983 0.950 . S
C959 C958 1.349 . S
C959 C975 1.349 . S
C960 C958 1.327 . S
C960 C979 1.429 . S
C960 H984 0.950 . S
C961 C978 1.574 . S
C961 C980 1.368 . S
C961 H985 0.949 . S
H962 C966 0.949 . S
C963 C964 1.349 . S
C963 C965 1.327 . S
C963 H986 0.950 . S
C964 C963 1.349 . S
C964 C976 1.349 . S
C965 C963 1.327 . S
C965 C981 1.429 1_455 S
C965 H987 0.950 . S
C966 H962 0.949 . S
C966 C974 1.574 . S
C966 C982 1.368 . S
H967 C975 0.950 . S
H968 C973 0.950 . S
H969 C974 0.949 . S
H970 C976 0.950 . S
H971 C977 0.944 1_655 S
H972 C978 0.949 . S
C973 H968 0.950 . S
C973 C975 1.327 . S
C973 C979 1.429 . S
C974 C966 1.574 . S
C974 H969 0.949 . S
C974 C980 1.368 . S
C975 C959 1.349 . S
C975 H967 0.950 . S
C975 C973 1.327 . S
C976 C964 1.349 . S
C976 H970 0.950 . S
C976 C977 1.334 . S
C977 H971 0.944 1_455 S
C977 C976 1.334 . S
C977 C981 1.427 1_455 S
C978 C961 1.574 . S
C978 H972 0.949 . S
C978 C982 1.368 . S
C979 C960 1.429 . S
C979 C973 1.429 . S
C979 C980 1.523 . S
C980 C961 1.368 . S
C980 C974 1.368 . S
C980 C979 1.523 . S
C981 C965 1.429 1_655 S
C981 C977 1.427 1_655 S
C981 C982 1.523 . S
C982 C966 1.368 . S
C982 C978 1.368 . S
C982 C981 1.523 . S
H983 C958 0.950 . S
H984 C960 0.950 . S
H985 C961 0.949 . S
H986 C963 0.950 . S
H987 C965 0.950 . S
C988 C989 1.349 . S
C988 C990 1.327 . S
C988 H1013 0.950 . S
C989 C988 1.349 . S
C989 C1005 1.349 . S
C990 C988 1.327 . S
C990 C1009 1.429 . S
C990 H1014 0.950 . S
C991 C1008 1.574 . S
C991 C1010 1.368 . S
C991 H1015 0.949 . S
H992 C996 0.949 . S
C993 C994 1.349 . S
C993 C995 1.327 . S
C993 H1016 0.950 . S
C994 C993 1.349 . S
C994 C1006 1.349 . S
C995 C993 1.327 . S
C995 C1011 1.429 . S
C995 H1017 0.950 . S
C996 H992 0.949 . S
C996 C1004 1.574 . S
C996 C1012 1.368 . S
H997 C1005 0.950 . S
H998 C1003 0.950 . S
H999 C1004 0.949 . S
H1000 C1006 0.950 . S
H1001 C1007 0.950 . S
H1002 C1008 0.949 . S
C1003 H998 0.950 . S
C1003 C1005 1.327 . S
C1003 C1009 1.429 . S
C1004 C996 1.574 . S
C1004 H999 0.949 . S
C1004 C1010 1.368 . S
C1005 C989 1.349 . S
C1005 H997 0.950 . S
C1005 C1003 1.327 . S
C1006 C994 1.349 . S
C1006 H1000 0.950 . S
C1006 C1007 1.327 . S
C1007 H1001 0.950 . S
C1007 C1006 1.327 . S
C1007 C1011 1.429 . S
C1008 C991 1.574 . S
C1008 H1002 0.949 . S
C1008 C1012 1.368 . S
C1009 C990 1.429 . S
C1009 C1003 1.429 . S
C1009 C1010 1.523 . S
C1010 C991 1.368 . S
C1010 C1004 1.368 . S
C1010 C1009 1.523 . S
C1011 C995 1.429 . S
C1011 C1007 1.429 . S
C1011 C1012 1.523 . S
C1012 C996 1.368 . S
C1012 C1008 1.368 . S
C1012 C1011 1.523 . S
H1013 C988 0.950 . S
H1014 C990 0.950 . S
H1015 C991 0.949 . S
H1016 C993 0.950 . S
H1017 C995 0.950 . S
C1018 C1019 1.349 . S
C1018 C1020 1.327 . S
C1018 H1043 0.950 . S
C1019 C1018 1.349 . S
C1019 C1035 1.349 . S
C1020 C1018 1.327 . S
C1020 C1039 1.429 . S
C1020 H1044 0.950 . S
C1021 C1038 1.574 . S
C1021 C1040 1.368 . S
C1021 H1045 0.949 . S
H1022 C1026 0.949 . S
C1023 C1024 1.349 . S
C1023 C1025 1.327 . S
C1023 H1046 0.950 . S
C1024 C1023 1.349 . S
C1024 C1036 1.349 . S
C1025 C1023 1.327 . S
C1025 C1041 1.429 . S
C1025 H1047 0.950 . S
C1026 H1022 0.949 . S
C1026 C1034 1.574 . S
C1026 C1042 1.368 . S
H1027 C1035 0.950 . S
H1028 C1033 0.950 . S
H1029 C1034 0.949 . S
H1030 C1036 0.950 . S
H1031 C1037 0.950 . S
H1032 C1038 0.949 . S
C1033 H1028 0.950 . S
C1033 C1035 1.327 . S
C1033 C1039 1.429 . S
C1034 C1026 1.574 . S
C1034 H1029 0.949 . S
C1034 C1040 1.368 . S
C1035 C1019 1.349 . S
C1035 H1027 0.950 . S
C1035 C1033 1.327 . S
C1036 C1024 1.349 . S
C1036 H1030 0.950 . S
C1036 C1037 1.327 . S
C1037 H1031 0.950 . S
C1037 C1036 1.327 . S
C1037 C1041 1.429 . S
C1038 C1021 1.574 . S
C1038 H1032 0.949 . S
C1038 C1042 1.368 . S
C1039 C1020 1.429 . S
C1039 C1033 1.429 . S
C1039 C1040 1.523 . S
C1040 C1021 1.368 . S
C1040 C1034 1.368 . S
C1040 C1039 1.523 . S
C1041 C1025 1.429 . S
C1041 C1037 1.429 . S
C1041 C1042 1.523 . S
C1042 C1026 1.368 . S
C1042 C1038 1.368 . S
C1042 C1041 1.523 . S
H1043 C1018 0.950 . S
H1044 C1020 0.950 . S
H1045 C1021 0.949 . S
H1046 C1023 0.950 . S
H1047 C1025 0.950 . S
C1048 C1049 1.349 . S
C1048 C1050 1.327 . S
C1048 H1073 0.950 . S
C1049 C1048 1.349 . S
C1049 C1065 1.349 . S
C1050 C1048 1.327 . S
C1050 C1069 1.429 . S
C1050 H1074 0.950 . S
C1051 C1068 1.574 . S
C1051 C1070 1.368 . S
C1051 H1075 0.949 . S
H1052 C1056 0.949 . S
C1053 C1054 1.349 . S
C1053 C1055 1.327 . S
C1053 H1076 0.950 . S
C1054 C1053 1.349 . S
C1054 C1066 1.349 . S
C1055 C1053 1.327 . S
C1055 C1071 1.429 . S
C1055 H1077 0.950 . S
C1056 H1052 0.949 . S
C1056 C1064 1.574 . S
C1056 C1072 1.368 . S
H1057 C1065 0.950 . S
H1058 C1063 0.950 . S
H1059 C1064 0.949 . S
H1060 C1066 0.950 . S
H1061 C1067 0.950 . S
H1062 C1068 0.949 . S
C1063 H1058 0.950 . S
C1063 C1065 1.327 . S
C1063 C1069 1.429 . S
C1064 C1056 1.574 . S
C1064 H1059 0.949 . S
C1064 C1070 1.368 . S
C1065 C1049 1.349 . S
C1065 H1057 0.950 . S
C1065 C1063 1.327 . S
C1066 C1054 1.349 . S
C1066 H1060 0.950 . S
C1066 C1067 1.327 . S
C1067 H1061 0.950 . S
C1067 C1066 1.327 . S
C1067 C1071 1.429 . S
C1068 C1051 1.574 . S
C1068 H1062 0.949 . S
C1068 C1072 1.368 . S
C1069 C1050 1.429 . S
C1069 C1063 1.429 . S
C1069 C1070 1.523 . S
C1070 C1051 1.368 . S
C1070 C1064 1.368 . S
C1070 C1069 1.523 . S
C1071 C1055 1.429 . S
C1071 C1067 1.429 . S
C1071 C1072 1.523 . S
C1072 C1056 1.368 . S
C1072 C1068 1.368 . S
C1072 C1071 1.523 . S
H1073 C1048 0.950 . S
H1074 C1050 0.950 . S
H1075 C1051 0.949 . S
H1076 C1053 0.950 . S
H1077 C1055 0.950 . S
C1078 C1079 1.349 . S
C1078 C1080 1.327 . S
C1078 H1103 0.950 . S
C1079 C1078 1.349 . S
C1079 C1095 1.349 . S
C1080 C1078 1.327 . S
C1080 C1099 1.429 . S
C1080 H1104 0.950 . S
C1081 C1098 1.574 . S
C1081 C1100 1.368 . S
C1081 H1105 0.949 . S
H1082 C1086 0.949 . S
C1083 C1084 1.349 . S
C1083 C1085 1.327 . S
C1083 H1106 0.950 . S
C1084 C1083 1.349 . S
C1084 C1096 1.349 . S
C1085 C1083 1.327 . S
C1085 C1101 1.429 . S
C1085 H1107 0.950 . S
C1086 H1082 0.949 . S
C1086 C1094 1.574 . S
C1086 C1102 1.368 . S
H1087 C1095 0.950 . S
H1088 C1093 0.950 . S
H1089 C1094 0.949 . S
H1090 C1096 0.950 . S
H1091 C1097 0.950 . S
H1092 C1098 0.949 . S
C1093 H1088 0.950 . S
C1093 C1095 1.327 . S
C1093 C1099 1.429 . S
C1094 C1086 1.574 . S
C1094 H1089 0.949 . S
C1094 C1100 1.368 . S
C1095 C1079 1.349 . S
C1095 H1087 0.950 . S
C1095 C1093 1.327 . S
C1096 C1084 1.349 . S
C1096 H1090 0.950 . S
C1096 C1097 1.327 . S
C1097 H1091 0.950 . S
C1097 C1096 1.327 . S
C1097 C1101 1.429 . S
C1098 C1081 1.574 . S
C1098 H1092 0.949 . S
C1098 C1102 1.368 . S
C1099 C1080 1.429 . S
C1099 C1093 1.429 . S
C1099 C1100 1.523 . S
C1100 C1081 1.368 . S
C1100 C1094 1.368 . S
C1100 C1099 1.523 . S
C1101 C1085 1.429 . S
C1101 C1097 1.429 . S
C1101 C1102 1.523 . S
C1102 C1086 1.368 . S
C1102 C1098 1.368 . S
C1102 C1101 1.523 . S
H1103 C1078 0.950 . S
H1104 C1080 0.950 . S
H1105 C1081 0.949 . S
H1106 C1083 0.950 . S
H1107 C1085 0.950 . S
C1108 C1109 1.349 . S
C1108 C1110 1.327 . S
C1108 H1133 0.950 . S
C1109 C1108 1.349 . S
C1109 C1125 1.349 . S
C1110 C1108 1.327 . S
C1110 C1129 1.429 . S
C1110 H1134 0.950 . S
C1111 C1128 1.574 . S
C1111 C1130 1.368 . S
C1111 H1135 0.949 . S
H1112 C1116 0.949 . S
C1113 C1114 1.349 . S
C1113 C1115 1.327 . S
C1113 H1136 0.950 . S
C1114 C1113 1.349 . S
C1114 C1126 1.349 . S
C1115 C1113 1.327 . S
C1115 C1131 1.429 . S
C1115 H1137 0.950 . S
C1116 H1112 0.949 . S
C1116 C1124 1.574 . S
C1116 C1132 1.368 . S
H1117 C1125 0.950 . S
H1118 C1123 0.950 . S
H1119 C1124 0.949 . S
H1120 C1126 0.950 . S
H1121 C1127 0.950 . S
H1122 C1128 0.949 . S
C1123 H1118 0.950 . S
C1123 C1125 1.327 . S
C1123 C1129 1.429 . S
C1124 C1116 1.574 . S
C1124 H1119 0.949 . S
C1124 C1130 1.368 . S
C1125 C1109 1.349 . S
C1125 H1117 0.950 . S
C1125 C1123 1.327 . S
C1126 C1114 1.349 . S
C1126 H1120 0.950 . S
C1126 C1127 1.327 . S
C1127 H1121 0.950 . S
C1127 C1126 1.327 . S
C1127 C1131 1.429 . S
C1128 C1111 1.574 . S
C1128 H1122 0.949 . S
C1128 C1132 1.368 . S
C1129 C1110 1.429 . S
C1129 C1123 1.429 . S
C1129 C1130 1.523 . S
C1130 C1111 1.368 . S
C1130 C1124 1.368 . S
C1130 C1129 1.523 . S
C1131 C1115 1.429 . S
C1131 C1127 1.429 . S
C1131 C1132 1.523 . S
C1132 C1116 1.368 . S
C1132 C1128 1.368 . S
C1132 C1131 1.523 . S
H1133 C1108 0.950 . S
H1134 C1110 0.950 . S
H1135 C1111 0.949 . S
H1136 C1113 0.950 . S
H1137 C1115 0.950 . S
C1138 C1139 1.349 . S
C1138 C1140 1.305 1_455 S
C1138 H1163 0.950 . S
C1139 C1138 1.349 . S
C1139 C1155 1.349 . S
C1140 C1138 1.305 1_655 S
C1140 C1159 1.433 . S
C1140 H1164 0.968 . S
C1141 C1158 1.574 . S
C1141 C1160 1.368 . S
C1141 H1165 0.949 . S
H1142 C1146 0.949 . S
C1143 C1144 1.349 . S
C1143 C1145 1.327 . S
C1143 H1166 0.950 . S
C1144 C1143 1.349 . S
C1144 C1156 1.349 . S
C1145 C1143 1.327 . S
C1145 C1161 1.429 . S
C1145 H1167 0.950 . S
C1146 H1142 0.949 . S
C1146 C1154 1.574 . S
C1146 C1162 1.368 . S
H1147 C1155 0.950 . S
H1148 C1153 0.950 . S
H1149 C1154 0.949 . S
H1150 C1156 0.950 . S
H1151 C1157 0.950 . S
H1152 C1158 0.949 . S
C1153 H1148 0.950 . S
C1153 C1155 1.327 . S
C1153 C1159 1.429 1_455 S
C1154 C1146 1.574 . S
C1154 H1149 0.949 . S
C1154 C1160 1.368 . S
C1155 C1139 1.349 . S
C1155 H1147 0.950 . S
C1155 C1153 1.327 . S
C1156 C1144 1.349 . S
C1156 H1150 0.950 . S
C1156 C1157 1.327 . S
C1157 H1151 0.950 . S
C1157 C1156 1.327 . S
C1157 C1161 1.429 . S
C1158 C1141 1.574 . S
C1158 H1152 0.949 . S
C1158 C1162 1.368 . S
C1159 C1140 1.433 . S
C1159 C1153 1.429 1_655 S
C1159 C1160 1.523 . S
C1160 C1141 1.368 . S
C1160 C1154 1.368 . S
C1160 C1159 1.523 . S
C1161 C1145 1.429 . S
C1161 C1157 1.429 . S
C1161 C1162 1.523 . S
C1162 C1146 1.368 . S
C1162 C1158 1.368 . S
C1162 C1161 1.523 . S
H1163 C1138 0.950 . S
H1164 C1140 0.968 . S
H1165 C1141 0.949 . S
H1166 C1143 0.950 . S
H1167 C1145 0.950 . S
C1168 C1169 1.349 . S
C1168 C1170 1.327 . S
C1168 H1193 0.950 . S
C1169 C1168 1.349 . S
C1169 C1185 1.349 . S
C1170 C1168 1.327 . S
C1170 C1189 1.429 . S
C1170 H1194 0.950 . S
C1171 C1188 1.574 . S
C1171 C1190 1.368 . S
C1171 H1195 0.949 . S
H1172 C1176 0.949 . S
C1173 C1174 1.349 . S
C1173 C1175 1.327 . S
C1173 H1196 0.950 . S
C1174 C1173 1.349 . S
C1174 C1186 1.349 . S
C1175 C1173 1.327 . S
C1175 C1191 1.429 . S
C1175 H1197 0.950 . S
C1176 H1172 0.949 . S
C1176 C1184 1.574 . S
C1176 C1192 1.368 . S
H1177 C1185 0.950 . S
H1178 C1183 0.950 . S
H1179 C1184 0.949 . S
H1180 C1186 0.950 . S
H1181 C1187 0.950 . S
H1182 C1188 0.949 . S
C1183 H1178 0.950 . S
C1183 C1185 1.327 . S
C1183 C1189 1.429 . S
C1184 C1176 1.574 . S
C1184 H1179 0.949 . S
C1184 C1190 1.368 . S
C1185 C1169 1.349 . S
C1185 H1177 0.950 . S
C1185 C1183 1.327 . S
C1186 C1174 1.349 . S
C1186 H1180 0.950 . S
C1186 C1187 1.327 . S
C1187 H1181 0.950 . S
C1187 C1186 1.327 . S
C1187 C1191 1.429 . S
C1188 C1171 1.574 . S
C1188 H1182 0.949 . S
C1188 C1192 1.368 . S
C1189 C1170 1.429 . S
C1189 C1183 1.429 . S
C1189 C1190 1.523 . S
C1190 C1171 1.368 . S
C1190 C1184 1.368 . S
C1190 C1189 1.523 . S
C1191 C1175 1.429 . S
C1191 C1187 1.429 . S
C1191 C1192 1.523 . S
C1192 C1176 1.368 . S
C1192 C1188 1.368 . S
C1192 C1191 1.523 . S
H1193 C1168 0.950 . S
H1194 C1170 0.950 . S
H1195 C1171 0.949 . S
H1196 C1173 0.950 . S
H1197 C1175 0.950 . S
C1198 C1199 1.349 . S
C1198 C1200 1.327 . S
C1198 H1223 0.950 . S
C1199 C1198 1.349 . S
C1199 C1215 1.349 . S
C1200 C1198 1.327 . S
C1200 C1219 1.429 1_655 S
C1200 H1224 0.950 . S
C1201 C1218 1.574 . S
C1201 C1220 1.368 . S
C1201 H1225 0.949 . S
H1202 C1206 0.949 . S
C1203 C1204 1.349 . S
C1203 C1205 1.327 . S
C1203 H1226 0.950 . S
C1204 C1203 1.349 . S
C1204 C1216 1.349 . S
C1205 C1203 1.327 . S
C1205 C1221 1.429 . S
C1205 H1227 0.950 . S
C1206 H1202 0.949 . S
C1206 C1214 1.574 . S
C1206 C1222 1.368 . S
H1207 C1215 0.950 . S
H1208 C1213 0.976 . S
H1209 C1214 0.949 . S
H1210 C1216 0.950 . S
H1211 C1217 0.950 . S
H1212 C1218 0.949 . S
C1213 H1208 0.976 . S
C1213 C1215 1.295 1_455 S
C1213 C1219 1.435 . S
C1214 C1206 1.574 . S
C1214 H1209 0.949 . S
C1214 C1220 1.368 . S
C1215 C1199 1.349 . S
C1215 H1207 0.950 . S
C1215 C1213 1.295 1_655 S
C1216 C1204 1.349 . S
C1216 H1210 0.950 . S
C1216 C1217 1.327 . S
C1217 H1211 0.950 . S
C1217 C1216 1.327 . S
C1217 C1221 1.429 . S
C1218 C1201 1.574 . S
C1218 H1212 0.949 . S
C1218 C1222 1.368 . S
C1219 C1200 1.429 1_455 S
C1219 C1213 1.435 . S
C1219 C1220 1.523 . S
C1220 C1201 1.368 . S
C1220 C1214 1.368 . S
C1220 C1219 1.523 . S
C1221 C1205 1.429 . S
C1221 C1217 1.429 . S
C1221 C1222 1.523 . S
C1222 C1206 1.368 . S
C1222 C1218 1.368 . S
C1222 C1221 1.523 . S
H1223 C1198 0.950 . S
H1224 C1200 0.950 . S
H1225 C1201 0.949 . S
H1226 C1203 0.950 . S
H1227 C1205 0.950 . S
C1228 C1229 1.349 . S
C1228 C1230 1.327 . S
C1228 H1253 0.950 . S
C1229 C1228 1.349 . S
C1229 C1245 1.349 . S
C1230 C1228 1.327 . S
C1230 C1249 1.429 . S
C1230 H1254 0.950 . S
C1231 C1248 1.574 . S
C1231 C1250 1.368 . S
C1231 H1255 0.949 . S
H1232 C1236 0.949 . S
C1233 C1234 1.349 . S
C1233 C1235 1.327 . S
C1233 H1256 0.950 . S
C1234 C1233 1.349 . S
C1234 C1246 1.349 . S
C1235 C1233 1.327 . S
C1235 C1251 1.429 . S
C1235 H1257 0.950 . S
C1236 H1232 0.949 . S
C1236 C1244 1.574 . S
C1236 C1252 1.368 . S
H1237 C1245 0.950 . S
H1238 C1243 0.950 . S
H1239 C1244 0.949 . S
H1240 C1246 0.950 . S
H1241 C1247 0.950 . S
H1242 C1248 0.949 . S
C1243 H1238 0.950 . S
C1243 C1245 1.327 . S
C1243 C1249 1.429 . S
C1244 C1236 1.574 . S
C1244 H1239 0.949 . S
C1244 C1250 1.368 . S
C1245 C1229 1.349 . S
C1245 H1237 0.950 . S
C1245 C1243 1.327 . S
C1246 C1234 1.349 . S
C1246 H1240 0.950 . S
C1246 C1247 1.327 . S
C1247 H1241 0.950 . S
C1247 C1246 1.327 . S
C1247 C1251 1.429 . S
C1248 C1231 1.574 . S
C1248 H1242 0.949 . S
C1248 C1252 1.368 . S
C1249 C1230 1.429 . S
C1249 C1243 1.429 . S
C1249 C1250 1.523 . S
C1250 C1231 1.368 . S
C1250 C1244 1.368 . S
C1250 C1249 1.523 . S
C1251 C1235 1.429 . S
C1251 C1247 1.429 . S
C1251 C1252 1.523 . S
C1252 C1236 1.368 . S
C1252 C1248 1.368 . S
C1252 C1251 1.523 . S
H1253 C1228 0.950 . S
H1254 C1230 0.950 . S
H1255 C1231 0.949 . S
H1256 C1233 0.950 . S
H1257 C1235 0.950 . S
C1258 C1259 1.349 . S
C1258 C1260 1.327 . S
C1258 H1283 0.950 . S
C1259 C1258 1.349 . S
C1259 C1275 1.349 . S
C1260 C1258 1.327 . S
C1260 C1279 1.429 . S
C1260 H1284 0.950 . S
C1261 C1278 1.574 . S
C1261 C1280 1.368 . S
C1261 H1285 0.949 . S
H1262 C1266 0.949 . S
C1263 C1264 1.349 . S
C1263 C1265 1.327 . S
C1263 H1286 0.950 . S
C1264 C1263 1.349 . S
C1264 C1276 1.349 . S
C1265 C1263 1.327 . S
C1265 C1281 1.429 . S
C1265 H1287 0.950 . S
C1266 H1262 0.949 . S
C1266 C1274 1.574 . S
C1266 C1282 1.368 . S
H1267 C1275 0.950 . S
H1268 C1273 0.950 . S
H1269 C1274 0.949 . S
H1270 C1276 0.950 . S
H1271 C1277 0.950 . S
H1272 C1278 0.949 . S
C1273 H1268 0.950 . S
C1273 C1275 1.327 . S
C1273 C1279 1.429 . S
C1274 C1266 1.574 . S
C1274 H1269 0.949 . S
C1274 C1280 1.368 . S
C1275 C1259 1.349 . S
C1275 H1267 0.950 . S
C1275 C1273 1.327 . S
C1276 C1264 1.349 . S
C1276 H1270 0.950 . S
C1276 C1277 1.327 . S
C1277 H1271 0.950 . S
C1277 C1276 1.327 . S
C1277 C1281 1.429 . S
C1278 C1261 1.574 . S
C1278 H1272 0.949 . S
C1278 C1282 1.368 . S
C1279 C1260 1.429 . S
C1279 C1273 1.429 . S
C1279 C1280 1.523 . S
C1280 C1261 1.368 . S
C1280 C1274 1.368 . S
C1280 C1279 1.523 . S
C1281 C1265 1.429 . S
C1281 C1277 1.429 . S
C1281 C1282 1.523 . S
C1282 C1266 1.368 . S
C1282 C1278 1.368 . S
C1282 C1281 1.523 . S
H1283 C1258 0.950 . S
H1284 C1260 0.950 . S
H1285 C1261 0.949 . S
H1286 C1263 0.950 . S
H1287 C1265 0.950 . S
C1288 C1289 1.349 . S
C1288 C1290 1.327 . S
C1288 H1313 0.950 . S
C1289 C1288 1.349 . S
C1289 C1305 1.349 . S
C1290 C1288 1.327 . S
C1290 C1309 1.429 . S
C1290 H1314 0.950 . S
C1291 C1308 1.574 . S
C1291 C1310 1.368 . S
C1291 H1315 0.949 . S
H1292 C1296 0.949 . S
C1293 C1294 1.349 . S
C1293 C1295 1.327 . S
C1293 H1316 0.950 . S
C1294 C1293 1.349 . S
C1294 C1306 1.349 . S
C1295 C1293 1.327 . S
C1295 C1311 1.429 . S
C1295 H1317 0.950 . S
C1296 H1292 0.949 . S
C1296 C1304 1.574 . S
C1296 C1312 1.368 . S
H1297 C1305 0.950 . S
H1298 C1303 0.950 . S
H1299 C1304 0.949 . S
H1300 C1306 0.950 . S
H1301 C1307 0.950 . S
H1302 C1308 0.949 . S
C1303 H1298 0.950 . S
C1303 C1305 1.327 . S
C1303 C1309 1.429 . S
C1304 C1296 1.574 . S
C1304 H1299 0.949 . S
C1304 C1310 1.368 . S
C1305 C1289 1.349 . S
C1305 H1297 0.950 . S
C1305 C1303 1.327 . S
C1306 C1294 1.349 . S
C1306 H1300 0.950 . S
C1306 C1307 1.327 . S
C1307 H1301 0.950 . S
C1307 C1306 1.327 . S
C1307 C1311 1.429 . S
C1308 C1291 1.574 . S
C1308 H1302 0.949 . S
C1308 C1312 1.368 . S
C1309 C1290 1.429 . S
C1309 C1303 1.429 . S
C1309 C1310 1.523 . S
C1310 C1291 1.368 . S
C1310 C1304 1.368 . S
C1310 C1309 1.523 . S
C1311 C1295 1.429 . S
C1311 C1307 1.429 . S
C1311 C1312 1.523 . S
C1312 C1296 1.368 . S
C1312 C1308 1.368 . S
C1312 C1311 1.523 . S
H1313 C1288 0.950 . S
H1314 C1290 0.950 . S
H1315 C1291 0.949 . S
H1316 C1293 0.950 . S
H1317 C1295 0.950 . S
C1318 C1319 1.349 . S
C1318 C1320 1.327 . S
C1318 H1343 0.950 . S
C1319 C1318 1.349 . S
C1319 C1335 1.349 . S
C1320 C1318 1.327 . S
C1320 C1339 1.429 . S
C1320 H1344 0.950 . S
C1321 C1338 1.574 . S
C1321 C1340 1.368 . S
C1321 H1345 0.949 . S
H1322 C1326 0.949 . S
C1323 C1324 1.349 . S
C1323 C1325 1.327 . S
C1323 H1346 0.950 . S
C1324 C1323 1.349 . S
C1324 C1336 1.349 . S
C1325 C1323 1.327 . S
C1325 C1341 1.429 . S
C1325 H1347 0.950 . S
C1326 H1322 0.949 . S
C1326 C1334 1.574 . S
C1326 C1342 1.368 . S
H1327 C1335 0.950 . S
H1328 C1333 0.950 . S
H1329 C1334 0.949 . S
H1330 C1336 0.950 . S
H1331 C1337 0.950 . S
H1332 C1338 0.949 . S
C1333 H1328 0.950 . S
C1333 C1335 1.327 . S
C1333 C1339 1.429 . S
C1334 C1326 1.574 . S
C1334 H1329 0.949 . S
C1334 C1340 1.368 . S
C1335 C1319 1.349 . S
C1335 H1327 0.950 . S
C1335 C1333 1.327 . S
C1336 C1324 1.349 . S
C1336 H1330 0.950 . S
C1336 C1337 1.327 . S
C1337 H1331 0.950 . S
C1337 C1336 1.327 . S
C1337 C1341 1.429 . S
C1338 C1321 1.574 . S
C1338 H1332 0.949 . S
C1338 C1342 1.368 . S
C1339 C1320 1.429 . S
C1339 C1333 1.429 . S
C1339 C1340 1.523 . S
C1340 C1321 1.368 . S
C1340 C1334 1.368 . S
C1340 C1339 1.523 . S
C1341 C1325 1.429 . S
C1341 C1337 1.429 . S
C1341 C1342 1.523 . S
C1342 C1326 1.368 . S
C1342 C1338 1.368 . S
C1342 C1341 1.523 . S
H1343 C1318 0.950 . S
H1344 C1320 0.950 . S
H1345 C1321 0.949 . S
H1346 C1323 0.950 . S
H1347 C1325 0.950 . S
C1348 C1349 1.349 . S
C1348 C1350 1.327 . S
C1348 H1373 0.950 . S
C1349 C1348 1.349 . S
C1349 C1365 1.349 . S
C1350 C1348 1.327 . S
C1350 C1369 1.429 . S
C1350 H1374 0.950 . S
C1351 C1368 1.574 . S
C1351 C1370 1.368 . S
C1351 H1375 0.949 . S
H1352 C1356 0.949 . S
C1353 C1354 1.349 . S
C1353 C1355 1.327 . S
C1353 H1376 0.950 . S
C1354 C1353 1.349 . S
C1354 C1366 1.349 . S
C1355 C1353 1.327 . S
C1355 C1371 1.429 . S
C1355 H1377 0.950 . S
C1356 H1352 0.949 . S
C1356 C1364 1.574 . S
C1356 C1372 1.368 . S
H1357 C1365 0.950 . S
H1358 C1363 0.950 . S
H1359 C1364 0.949 . S
H1360 C1366 0.950 . S
H1361 C1367 0.950 . S
H1362 C1368 0.949 . S
C1363 H1358 0.950 . S
C1363 C1365 1.327 . S
C1363 C1369 1.429 . S
C1364 C1356 1.574 . S
C1364 H1359 0.949 . S
C1364 C1370 1.368 . S
C1365 C1349 1.349 . S
C1365 H1357 0.950 . S
C1365 C1363 1.327 . S
C1366 C1354 1.349 . S
C1366 H1360 0.950 . S
C1366 C1367 1.327 . S
C1367 H1361 0.950 . S
C1367 C1366 1.327 . S
C1367 C1371 1.429 . S
C1368 C1351 1.574 . S
C1368 H1362 0.949 . S
C1368 C1372 1.368 . S
C1369 C1350 1.429 . S
C1369 C1363 1.429 . S
C1369 C1370 1.523 . S
C1370 C1351 1.368 . S
C1370 C1364 1.368 . S
C1370 C1369 1.523 . S
C1371 C1355 1.429 . S
C1371 C1367 1.429 . S
C1371 C1372 1.523 . S
C1372 C1356 1.368 . S
C1372 C1368 1.368 . S
C1372 C1371 1.523 . S
H1373 C1348 0.950 . S
H1374 C1350 0.950 . S
H1375 C1351 0.949 . S
H1376 C1353 0.950 . S
H1377 C1355 0.950 . S
C1378 C1379 1.349 . S
C1378 C1380 1.327 . S
C1378 H1403 0.950 . S
C1379 C1378 1.349 . S
C1379 C1395 1.349 . S
C1380 C1378 1.327 . S
C1380 C1399 1.429 . S
C1380 H1404 0.950 . S
C1381 C1398 1.574 . S
C1381 C1400 1.368 . S
C1381 H1405 0.949 . S
H1382 C1386 0.949 . S
C1383 C1384 1.349 . S
C1383 C1385 1.327 . S
C1383 H1406 0.950 . S
C1384 C1383 1.349 . S
C1384 C1396 1.349 . S
C1385 C1383 1.327 . S
C1385 C1401 1.429 1_655 S
C1385 H1407 0.950 . S
C1386 H1382 0.949 . S
C1386 C1394 1.574 . S
C1386 C1402 1.368 . S
H1387 C1395 0.950 . S
H1388 C1393 0.950 . S
H1389 C1394 0.949 . S
H1390 C1396 0.950 . S
H1391 C1397 0.950 1_455 S
H1392 C1398 0.949 . S
C1393 H1388 0.950 . S
C1393 C1395 1.327 . S
C1393 C1399 1.429 . S
C1394 C1386 1.574 . S
C1394 H1389 0.949 . S
C1394 C1400 1.368 . S
C1395 C1379 1.349 . S
C1395 H1387 0.950 . S
C1395 C1393 1.327 . S
C1396 C1384 1.349 . S
C1396 H1390 0.950 . S
C1396 C1397 1.327 . S
C1397 H1391 0.950 1_655 S
C1397 C1396 1.327 . S
C1397 C1401 1.429 1_655 S
C1398 C1381 1.574 . S
C1398 H1392 0.949 . S
C1398 C1402 1.368 . S
C1399 C1380 1.429 . S
C1399 C1393 1.429 . S
C1399 C1400 1.523 . S
C1400 C1381 1.368 . S
C1400 C1394 1.368 . S
C1400 C1399 1.523 . S
C1401 C1385 1.429 1_455 S
C1401 C1397 1.429 1_455 S
C1401 C1402 1.523 . S
C1402 C1386 1.368 . S
C1402 C1398 1.368 . S
C1402 C1401 1.523 . S
H1403 C1378 0.950 . S
H1404 C1380 0.950 . S
H1405 C1381 0.949 . S
H1406 C1383 0.950 . S
H1407 C1385 0.950 . S
C1408 C1409 1.349 . S
C1408 C1410 1.327 . S
C1408 H1433 0.950 . S
C1409 C1408 1.349 . S
C1409 C1425 1.349 . S
C1410 C1408 1.327 . S
C1410 C1429 1.429 . S
C1410 H1434 0.950 . S
C1411 C1428 1.574 . S
C1411 C1430 1.368 . S
C1411 H1435 0.949 . S
H1412 C1416 0.949 . S
C1413 C1414 1.349 . S
C1413 C1415 1.327 . S
C1413 H1436 0.950 . S
C1414 C1413 1.349 . S
C1414 C1426 1.349 . S
C1415 C1413 1.327 . S
C1415 C1431 1.429 . S
C1415 H1437 0.950 . S
C1416 H1412 0.949 . S
C1416 C1424 1.574 . S
C1416 C1432 1.368 . S
H1417 C1425 0.950 . S
H1418 C1423 0.950 . S
H1419 C1424 0.949 . S
H1420 C1426 0.950 . S
H1421 C1427 0.950 . S
H1422 C1428 0.949 . S
C1423 H1418 0.950 . S
C1423 C1425 1.327 . S
C1423 C1429 1.429 . S
C1424 C1416 1.574 . S
C1424 H1419 0.949 . S
C1424 C1430 1.368 . S
C1425 C1409 1.349 . S
C1425 H1417 0.950 . S
C1425 C1423 1.327 . S
C1426 C1414 1.349 . S
C1426 H1420 0.950 . S
C1426 C1427 1.327 . S
C1427 H1421 0.950 . S
C1427 C1426 1.327 . S
C1427 C1431 1.429 . S
C1428 C1411 1.574 . S
C1428 H1422 0.949 . S
C1428 C1432 1.368 . S
C1429 C1410 1.429 . S
C1429 C1423 1.429 . S
C1429 C1430 1.523 . S
C1430 C1411 1.368 . S
C1430 C1424 1.368 . S
C1430 C1429 1.523 . S
C1431 C1415 1.429 . S
C1431 C1427 1.429 . S
C1431 C1432 1.523 . S
C1432 C1416 1.368 . S
C1432 C1428 1.368 . S
C1432 C1431 1.523 . S
H1433 C1408 0.950 . S
H1434 C1410 0.950 . S
H1435 C1411 0.949 . S
H1436 C1413 0.950 . S
H1437 C1415 0.950 . S
C1438 C1439 1.349 . S
C1438 C1440 1.327 . S
C1438 H1463 0.950 . S
C1439 C1438 1.349 . S
C1439 C1455 1.349 . S
C1440 C1438 1.327 . S
C1440 C1459 1.429 . S
C1440 H1464 0.950 . S
C1441 C1458 1.574 . S
C1441 C1460 1.368 . S
C1441 H1465 0.949 . S
H1442 C1446 0.949 . S
C1443 C1444 1.349 . S
C1443 C1445 1.327 . S
C1443 H1466 0.950 . S
C1444 C1443 1.349 . S
C1444 C1456 1.349 . S
C1445 C1443 1.327 . S
C1445 C1461 1.429 . S
C1445 H1467 0.950 . S
C1446 H1442 0.949 . S
C1446 C1454 1.574 . S
C1446 C1462 1.368 . S
H1447 C1455 0.950 . S
H1448 C1453 0.950 . S
H1449 C1454 0.949 . S
H1450 C1456 0.950 . S
H1451 C1457 0.950 . S
H1452 C1458 0.949 . S
C1453 H1448 0.950 . S
C1453 C1455 1.327 . S
C1453 C1459 1.429 . S
C1454 C1446 1.574 . S
C1454 H1449 0.949 . S
C1454 C1460 1.368 . S
C1455 C1439 1.349 . S
C1455 H1447 0.950 . S
C1455 C1453 1.327 . S
C1456 C1444 1.349 . S
C1456 H1450 0.950 . S
C1456 C1457 1.327 . S
C1457 H1451 0.950 . S
C1457 C1456 1.327 . S
C1457 C1461 1.429 . S
C1458 C1441 1.574 . S
C1458 H1452 0.949 . S
C1458 C1462 1.368 . S
C1459 C1440 1.429 . S
C1459 C1453 1.429 . S
C1459 C1460 1.523 . S
C1460 C1441 1.368 . S
C1460 C1454 1.368 . S
C1460 C1459 1.523 . S
C1461 C1445 1.429 . S
C1461 C1457 1.429 . S
C1461 C1462 1.523 . S
C1462 C1446 1.368 . S
C1462 C1458 1.368 . S
C1462 C1461 1.523 . S
H1463 C1438 0.950 . S
H1464 C1440 0.950 . S
H1465 C1441 0.949 . S
H1466 C1443 0.950 . S
H1467 C1445 0.950 . S
C1468 C1469 1.349 . S
C1468 C1470 1.327 . S
C1468 H1493 0.950 . S
C1469 C1468 1.349 . S
C1469 C1485 1.349 . S
C1470 C1468 1.327 . S
C1470 C1489 1.429 . S
C1470 H1494 0.950 . S
C1471 C1488 1.574 . S
C1471 C1490 1.368 . S
C1471 H1495 0.949 . S
H1472 C1476 0.949 . S
C1473 C1474 1.349 . S
C1473 C1475 1.327 . S
C1473 H1496 0.950 . S
C1474 C1473 1.349 . S
C1474 C1486 1.349 . S
C1475 C1473 1.327 . S
C1475 C1491 1.429 . S
C1475 H1497 0.950 . S
C1476 H1472 0.949 . S
C1476 C1484 1.574 . S
C1476 C1492 1.368 . S
H1477 C1485 0.950 . S
H1478 C1483 0.950 . S
H1479 C1484 0.949 . S
H1480 C1486 0.950 . S
H1481 C1487 0.950 . S
H1482 C1488 0.949 . S
C1483 H1478 0.950 . S
C1483 C1485 1.327 . S
C1483 C1489 1.429 . S
C1484 C1476 1.574 . S
C1484 H1479 0.949 . S
C1484 C1490 1.368 . S
C1485 C1469 1.349 . S
C1485 H1477 0.950 . S
C1485 C1483 1.327 . S
C1486 C1474 1.349 . S
C1486 H1480 0.950 . S
C1486 C1487 1.327 . S
C1487 H1481 0.950 . S
C1487 C1486 1.327 . S
C1487 C1491 1.429 . S
C1488 C1471 1.574 . S
C1488 H1482 0.949 . S
C1488 C1492 1.368 . S
C1489 C1470 1.429 . S
C1489 C1483 1.429 . S
C1489 C1490 1.523 . S
C1490 C1471 1.368 . S
C1490 C1484 1.368 . S
C1490 C1489 1.523 . S
C1491 C1475 1.429 . S
C1491 C1487 1.429 . S
C1491 C1492 1.523 . S
C1492 C1476 1.368 . S
C1492 C1488 1.368 . S
C1492 C1491 1.523 . S
H1493 C1468 0.950 . S
H1494 C1470 0.950 . S
H1495 C1471 0.949 . S
H1496 C1473 0.950 . S
H1497 C1475 0.950 . S
C1498 C1499 1.349 . S
C1498 C1500 1.327 . S
C1498 H1523 0.950 . S
C1499 C1498 1.349 . S
C1499 C1515 1.349 . S
C1500 C1498 1.327 . S
C1500 C1519 1.429 . S
C1500 H1524 0.950 . S
C1501 C1518 1.574 . S
C1501 C1520 1.368 . S
C1501 H1525 0.949 . S
H1502 C1506 0.949 . S
C1503 C1504 1.349 . S
C1503 C1505 1.327 . S
C1503 H1526 0.950 . S
C1504 C1503 1.349 . S
C1504 C1516 1.349 . S
C1505 C1503 1.327 . S
C1505 C1521 1.429 1_655 S
C1505 H1527 0.952 . S
C1506 H1502 0.949 . S
C1506 C1514 1.574 . S
C1506 C1522 1.368 . S
H1507 C1515 0.950 . S
H1508 C1513 0.950 . S
H1509 C1514 0.949 . S
H1510 C1516 0.950 . S
H1511 C1517 0.944 1_455 S
H1512 C1518 0.949 . S
C1513 H1508 0.950 . S
C1513 C1515 1.327 . S
C1513 C1519 1.429 . S
C1514 C1506 1.574 . S
C1514 H1509 0.949 . S
C1514 C1520 1.368 . S
C1515 C1499 1.349 . S
C1515 H1507 0.950 . S
C1515 C1513 1.327 . S
C1516 C1504 1.349 . S
C1516 H1510 0.950 . S
C1516 C1517 1.327 . S
C1517 H1511 0.944 1_655 S
C1517 C1516 1.327 . S
C1517 C1521 1.429 1_655 S
C1518 C1501 1.574 . S
C1518 H1512 0.949 . S
C1518 C1522 1.368 . S
C1519 C1500 1.429 . S
C1519 C1513 1.429 . S
C1519 C1520 1.523 . S
C1520 C1501 1.368 . S
C1520 C1514 1.368 . S
C1520 C1519 1.523 . S
C1521 C1505 1.429 1_455 S
C1521 C1517 1.429 1_455 S
C1521 C1522 1.523 . S
C1522 C1506 1.368 . S
C1522 C1518 1.368 . S
C1522 C1521 1.523 . S
H1523 C1498 0.950 . S
H1524 C1500 0.950 . S
H1525 C1501 0.949 . S
H1526 C1503 0.950 . S
H1527 C1505 0.952 . S
C1528 C1529 1.349 . S
C1528 C1530 1.327 . S
C1528 H1553 0.950 . S
C1529 C1528 1.349 . S
C1529 C1545 1.349 . S
C1530 C1528 1.327 . S
C1530 C1549 1.429 . S
C1530 H1554 0.950 . S
C1531 C1548 1.574 . S
C1531 C1550 1.368 . S
C1531 H1555 0.949 . S
H1532 C1536 0.949 . S
C1533 C1534 1.349 . S
C1533 C1535 1.327 . S
C1533 H1556 0.950 . S
C1534 C1533 1.349 . S
C1534 C1546 1.349 . S
C1535 C1533 1.327 . S
C1535 C1551 1.429 . S
C1535 H1557 0.950 . S
C1536 H1532 0.949 . S
C1536 C1544 1.574 . S
C1536 C1552 1.368 . S
H1537 C1545 0.950 . S
H1538 C1543 0.950 . S
H1539 C1544 0.949 . S
H1540 C1546 0.950 . S
H1541 C1547 0.950 . S
H1542 C1548 0.949 . S
C1543 H1538 0.950 . S
C1543 C1545 1.327 . S
C1543 C1549 1.429 . S
C1544 C1536 1.574 . S
C1544 H1539 0.949 . S
C1544 C1550 1.368 . S
C1545 C1529 1.349 . S
C1545 H1537 0.950 . S
C1545 C1543 1.327 . S
C1546 C1534 1.349 . S
C1546 H1540 0.950 . S
C1546 C1547 1.327 . S
C1547 H1541 0.950 . S
C1547 C1546 1.327 . S
C1547 C1551 1.429 . S
C1548 C1531 1.574 . S
C1548 H1542 0.949 . S
C1548 C1552 1.368 . S
C1549 C1530 1.429 . S
C1549 C1543 1.429 . S
C1549 C1550 1.523 . S
C1550 C1531 1.368 . S
C1550 C1544 1.368 . S
C1550 C1549 1.523 . S
C1551 C1535 1.429 . S
C1551 C1547 1.429 . S
C1551 C1552 1.523 . S
C1552 C1536 1.368 . S
C1552 C1548 1.368 . S
C1552 C1551 1.523 . S
H1553 C1528 0.950 . S
H1554 C1530 0.950 . S
H1555 C1531 0.949 . S
H1556 C1533 0.950 . S
H1557 C1535 0.950 . S
C1558 C1559 1.349 . S
C1558 C1560 1.283 1_655 S
C1558 H1583 0.950 . S
C1559 C1558 1.349 . S
C1559 C1575 1.349 . S
C1560 C1558 1.283 1_455 S
C1560 C1579 1.438 . S
C1560 H1584 0.987 . S
C1561 C1578 1.574 . S
C1561 C1580 1.368 . S
C1561 H1585 0.949 . S
H1562 C1566 0.949 . S
C1563 C1564 1.349 . S
C1563 C1565 1.327 . S
C1563 H1586 0.950 . S
C1564 C1563 1.349 . S
C1564 C1576 1.349 . S
C1565 C1563 1.327 . S
C1565 C1581 1.429 . S
C1565 H1587 0.950 . S
C1566 H1562 0.949 . S
C1566 C1574 1.574 . S
C1566 C1582 1.368 . S
H1567 C1575 0.950 . S
H1568 C1573 0.950 . S
H1569 C1574 0.949 . S
H1570 C1576 0.950 . S
H1571 C1577 0.950 . S
H1572 C1578 0.949 . S
C1573 H1568 0.950 . S
C1573 C1575 1.327 . S
C1573 C1579 1.429 1_655 S
C1574 C1566 1.574 . S
C1574 H1569 0.949 . S
C1574 C1580 1.368 . S
C1575 C1559 1.349 . S
C1575 H1567 0.950 . S
C1575 C1573 1.327 . S
C1576 C1564 1.349 . S
C1576 H1570 0.950 . S
C1576 C1577 1.327 . S
C1577 H1571 0.950 . S
C1577 C1576 1.327 . S
C1577 C1581 1.429 . S
C1578 C1561 1.574 . S
C1578 H1572 0.949 . S
C1578 C1582 1.368 . S
C1579 C1560 1.438 . S
C1579 C1573 1.429 1_455 S
C1579 C1580 1.523 . S
C1580 C1561 1.368 . S
C1580 C1574 1.368 . S
C1580 C1579 1.523 . S
C1581 C1565 1.429 . S
C1581 C1577 1.429 . S
C1581 C1582 1.523 . S
C1582 C1566 1.368 . S
C1582 C1578 1.368 . S
C1582 C1581 1.523 . S
H1583 C1558 0.950 . S
H1584 C1560 0.987 . S
H1585 C1561 0.949 . S
H1586 C1563 0.950 . S
H1587 C1565 0.950 . S
C1588 C1589 1.349 . S
C1588 C1590 1.327 . S
C1588 H1613 0.950 . S
C1589 C1588 1.349 . S
C1589 C1605 1.349 . S
C1590 C1588 1.327 . S
C1590 C1609 1.429 . S
C1590 H1614 0.950 . S
C1591 C1608 1.574 . S
C1591 C1610 1.368 . S
C1591 H1615 0.949 . S
H1592 C1596 0.949 . S
C1593 C1594 1.349 . S
C1593 C1595 1.327 . S
C1593 H1616 0.950 . S
C1594 C1593 1.349 . S
C1594 C1606 1.349 . S
C1595 C1593 1.327 . S
C1595 C1611 1.429 . S
C1595 H1617 0.950 . S
C1596 H1592 0.949 . S
C1596 C1604 1.574 . S
C1596 C1612 1.368 . S
H1597 C1605 0.950 . S
H1598 C1603 0.950 . S
H1599 C1604 0.949 . S
H1600 C1606 0.950 . S
H1601 C1607 0.950 . S
H1602 C1608 0.949 . S
C1603 H1598 0.950 . S
C1603 C1605 1.327 . S
C1603 C1609 1.429 . S
C1604 C1596 1.574 . S
C1604 H1599 0.949 . S
C1604 C1610 1.368 . S
C1605 C1589 1.349 . S
C1605 H1597 0.950 . S
C1605 C1603 1.327 . S
C1606 C1594 1.349 . S
C1606 H1600 0.950 . S
C1606 C1607 1.327 . S
C1607 H1601 0.950 . S
C1607 C1606 1.327 . S
C1607 C1611 1.429 . S
C1608 C1591 1.574 . S
C1608 H1602 0.949 . S
C1608 C1612 1.368 . S
C1609 C1590 1.429 . S
C1609 C1603 1.429 . S
C1609 C1610 1.523 . S
C1610 C1591 1.368 . S
C1610 C1604 1.368 . S
C1610 C1609 1.523 . S
C1611 C1595 1.429 . S
C1611 C1607 1.429 . S
C1611 C1612 1.523 . S
C1612 C1596 1.368 . S
C1612 C1608 1.368 . S
C1612 C1611 1.523 . S
H1613 C1588 0.950 . S
H1614 C1590 0.950 . S
H1615 C1591 0.949 . S
H1616 C1593 0.950 . S
H1617 C1595 0.950 . S
C1618 C1619 1.349 . S
C1618 C1620 1.327 . S
C1618 H1643 0.950 . S
C1619 C1618 1.349 . S
C1619 C1635 1.349 . S
C1620 C1618 1.327 . S
C1620 C1639 1.429 . S
C1620 H1644 0.950 . S
C1621 C1638 1.574 . S
C1621 C1640 1.368 . S
C1621 H1645 0.949 . S
H1622 C1626 0.949 . S
C1623 C1624 1.349 . S
C1623 C1625 1.327 . S
C1623 H1646 0.950 . S
C1624 C1623 1.349 . S
C1624 C1636 1.349 . S
C1625 C1623 1.327 . S
C1625 C1641 1.429 . S
C1625 H1647 0.950 . S
C1626 H1622 0.949 . S
C1626 C1634 1.574 . S
C1626 C1642 1.368 . S
H1627 C1635 0.950 . S
H1628 C1633 0.950 . S
H1629 C1634 0.949 . S
H1630 C1636 0.950 . S
H1631 C1637 0.950 . S
H1632 C1638 0.949 . S
C1633 H1628 0.950 . S
C1633 C1635 1.327 . S
C1633 C1639 1.429 . S
C1634 C1626 1.574 . S
C1634 H1629 0.949 . S
C1634 C1640 1.368 . S
C1635 C1619 1.349 . S
C1635 H1627 0.950 . S
C1635 C1633 1.327 . S
C1636 C1624 1.349 . S
C1636 H1630 0.950 . S
C1636 C1637 1.327 . S
C1637 H1631 0.950 . S
C1637 C1636 1.327 . S
C1637 C1641 1.429 . S
C1638 C1621 1.574 . S
C1638 H1632 0.949 . S
C1638 C1642 1.368 . S
C1639 C1620 1.429 . S
C1639 C1633 1.429 . S
C1639 C1640 1.523 . S
C1640 C1621 1.368 . S
C1640 C1634 1.368 . S
C1640 C1639 1.523 . S
C1641 C1625 1.429 . S
C1641 C1637 1.429 . S
C1641 C1642 1.523 . S
C1642 C1626 1.368 . S
C1642 C1638 1.368 . S
C1642 C1641 1.523 . S
H1643 C1618 0.950 . S
H1644 C1620 0.950 . S
H1645 C1621 0.949 . S
H1646 C1623 0.950 . S
H1647 C1625 0.950 . S
C1648 C1649 1.349 . S
C1648 C1650 1.327 . S
C1648 H1673 0.950 . S
C1649 C1648 1.349 . S
C1649 C1665 1.349 . S
C1650 C1648 1.327 . S
C1650 C1669 1.429 . S
C1650 H1674 0.950 . S
C1651 C1668 1.574 . S
C1651 C1670 1.368 . S
C1651 H1675 0.949 . S
H1652 C1656 0.949 . S
C1653 C1654 1.349 . S
C1653 C1655 1.327 . S
C1653 H1676 0.950 . S
C1654 C1653 1.349 . S
C1654 C1666 1.349 . S
C1655 C1653 1.327 . S
C1655 C1671 1.429 . S
C1655 H1677 0.950 . S
C1656 H1652 0.949 . S
C1656 C1664 1.574 . S
C1656 C1672 1.368 . S
H1657 C1665 0.950 . S
H1658 C1663 0.950 . S
H1659 C1664 0.949 . S
H1660 C1666 0.950 . S
H1661 C1667 0.950 . S
H1662 C1668 0.949 . S
C1663 H1658 0.950 . S
C1663 C1665 1.327 . S
C1663 C1669 1.429 . S
C1664 C1656 1.574 . S
C1664 H1659 0.949 . S
C1664 C1670 1.368 . S
C1665 C1649 1.349 . S
C1665 H1657 0.950 . S
C1665 C1663 1.327 . S
C1666 C1654 1.349 . S
C1666 H1660 0.950 . S
C1666 C1667 1.327 . S
C1667 H1661 0.950 . S
C1667 C1666 1.327 . S
C1667 C1671 1.429 . S
C1668 C1651 1.574 . S
C1668 H1662 0.949 . S
C1668 C1672 1.368 . S
C1669 C1650 1.429 . S
C1669 C1663 1.429 . S
C1669 C1670 1.523 . S
C1670 C1651 1.368 . S
C1670 C1664 1.368 . S
C1670 C1669 1.523 . S
C1671 C1655 1.429 . S
C1671 C1667 1.429 . S
C1671 C1672 1.523 . S
C1672 C1656 1.368 . S
C1672 C1668 1.368 . S
C1672 C1671 1.523 . S
H1673 C1648 0.950 . S
H1674 C1650 0.950 . S
H1675 C1651 0.949 . S
H1676 C1653 0.950 . S
H1677 C1655 0.950 . S
C1678 C1679 1.349 . S
C1678 C1680 1.327 . S
C1678 H1703 0.950 . S
C1679 C1678 1.349 . S
C1679 C1695 1.349 . S
C1680 C1678 1.327 . S
C1680 C1699 1.429 . S
C1680 H1704 0.950 . S
C1681 C1698 1.574 . S
C1681 C1700 1.368 . S
C1681 H1705 0.949 . S
H1682 C1686 0.949 . S
C1683 C1684 1.349 . S
C1683 C1685 1.327 . S
C1683 H1706 0.950 . S
C1684 C1683 1.349 . S
C1684 C1696 1.349 . S
C1685 C1683 1.327 . S
C1685 C1701 1.429 . S
C1685 H1707 0.950 . S
C1686 H1682 0.949 . S
C1686 C1694 1.574 . S
C1686 C1702 1.368 . S
H1687 C1695 0.950 . S
H1688 C1693 0.950 . S
H1689 C1694 0.949 . S
H1690 C1696 0.950 . S
H1691 C1697 0.950 . S
H1692 C1698 0.949 . S
C1693 H1688 0.950 . S
C1693 C1695 1.327 . S
C1693 C1699 1.429 . S
C1694 C1686 1.574 . S
C1694 H1689 0.949 . S
C1694 C1700 1.368 . S
C1695 C1679 1.349 . S
C1695 H1687 0.950 . S
C1695 C1693 1.327 . S
C1696 C1684 1.349 . S
C1696 H1690 0.950 . S
C1696 C1697 1.327 . S
C1697 H1691 0.950 . S
C1697 C1696 1.327 . S
C1697 C1701 1.429 . S
C1698 C1681 1.574 . S
C1698 H1692 0.949 . S
C1698 C1702 1.368 . S
C1699 C1680 1.429 . S
C1699 C1693 1.429 . S
C1699 C1700 1.523 . S
C1700 C1681 1.368 . S
C1700 C1694 1.368 . S
C1700 C1699 1.523 . S
C1701 C1685 1.429 . S
C1701 C1697 1.429 . S
C1701 C1702 1.523 . S
C1702 C1686 1.368 . S
C1702 C1698 1.368 . S
C1702 C1701 1.523 . S
H1703 C1678 0.950 . S
H1704 C1680 0.950 . S
H1705 C1681 0.949 . S
H1706 C1683 0.950 . S
H1707 C1685 0.950 . S
C1708 C1709 1.349 . S
C1708 C1710 1.327 . S
C1708 H1733 0.950 . S
C1709 C1708 1.349 . S
C1709 C1725 1.349 . S
C1710 C1708 1.327 . S
C1710 C1729 1.429 . S
C1710 H1734 0.950 . S
C1711 C1728 1.574 . S
C1711 C1730 1.368 . S
C1711 H1735 0.949 . S
H1712 C1716 0.949 . S
C1713 C1714 1.349 . S
C1713 C1715 1.327 . S
C1713 H1736 0.950 . S
C1714 C1713 1.349 . S
C1714 C1726 1.349 . S
C1715 C1713 1.327 . S
C1715 C1731 1.429 . S
C1715 H1737 0.950 . S
C1716 H1712 0.949 . S
C1716 C1724 1.574 . S
C1716 C1732 1.368 . S
H1717 C1725 0.950 . S
H1718 C1723 0.950 . S
H1719 C1724 0.949 . S
H1720 C1726 0.950 . S
H1721 C1727 0.950 . S
H1722 C1728 0.949 . S
C1723 H1718 0.950 . S
C1723 C1725 1.327 . S
C1723 C1729 1.429 . S
C1724 C1716 1.574 . S
C1724 H1719 0.949 . S
C1724 C1730 1.368 . S
C1725 C1709 1.349 . S
C1725 H1717 0.950 . S
C1725 C1723 1.327 . S
C1726 C1714 1.349 . S
C1726 H1720 0.950 . S
C1726 C1727 1.327 . S
C1727 H1721 0.950 . S
C1727 C1726 1.327 . S
C1727 C1731 1.429 . S
C1728 C1711 1.574 . S
C1728 H1722 0.949 . S
C1728 C1732 1.368 . S
C1729 C1710 1.429 . S
C1729 C1723 1.429 . S
C1729 C1730 1.523 . S
C1730 C1711 1.368 . S
C1730 C1724 1.368 . S
C1730 C1729 1.523 . S
C1731 C1715 1.429 . S
C1731 C1727 1.429 . S
C1731 C1732 1.523 . S
C1732 C1716 1.368 . S
C1732 C1728 1.368 . S
C1732 C1731 1.523 . S
H1733 C1708 0.950 . S
H1734 C1710 0.950 . S
H1735 C1711 0.949 . S
H1736 C1713 0.950 . S
H1737 C1715 0.950 . S
C1738 C1739 1.349 . S
C1738 C1740 1.327 . S
C1738 H1763 0.950 . S
C1739 C1738 1.349 . S
C1739 C1755 1.349 . S
C1740 C1738 1.327 . S
C1740 C1759 1.429 . S
C1740 H1764 0.950 . S
C1741 C1758 1.574 . S
C1741 C1760 1.368 . S
C1741 H1765 0.949 . S
H1742 C1746 0.949 . S
C1743 C1744 1.349 . S
C1743 C1745 1.327 1_455 S
C1743 H1766 0.950 . S
C1744 C1743 1.349 . S
C1744 C1756 1.349 . S
C1745 C1743 1.327 1_655 S
C1745 C1761 1.429 . S
C1745 H1767 0.950 . S
C1746 H1742 0.949 . S
C1746 C1754 1.574 . S
C1746 C1762 1.368 . S
H1747 C1755 0.950 . S
H1748 C1753 0.950 . S
H1749 C1754 0.949 . S
H1750 C1756 0.950 . S
H1751 C1757 0.950 . S
H1752 C1758 0.949 . S
C1753 H1748 0.950 . S
C1753 C1755 1.327 . S
C1753 C1759 1.429 . S
C1754 C1746 1.574 . S
C1754 H1749 0.949 . S
C1754 C1760 1.368 . S
C1755 C1739 1.349 . S
C1755 H1747 0.950 . S
C1755 C1753 1.327 . S
C1756 C1744 1.349 . S
C1756 H1750 0.950 . S
C1756 C1757 1.327 . S
C1757 H1751 0.950 . S
C1757 C1756 1.327 . S
C1757 C1761 1.429 1_455 S
C1758 C1741 1.574 . S
C1758 H1752 0.949 . S
C1758 C1762 1.368 . S
C1759 C1740 1.429 . S
C1759 C1753 1.429 . S
C1759 C1760 1.523 . S
C1760 C1741 1.368 . S
C1760 C1754 1.368 . S
C1760 C1759 1.523 . S
C1761 C1745 1.429 . S
C1761 C1757 1.429 1_655 S
C1761 C1762 1.523 . S
C1762 C1746 1.368 . S
C1762 C1758 1.368 . S
C1762 C1761 1.523 . S
H1763 C1738 0.950 . S
H1764 C1740 0.950 . S
H1765 C1741 0.949 . S
H1766 C1743 0.950 . S
H1767 C1745 0.950 . S
C1768 C1769 1.349 . S
C1768 C1770 1.327 . S
C1768 H1793 0.950 . S
C1769 C1768 1.349 . S
C1769 C1785 1.349 . S
C1770 C1768 1.327 . S
C1770 C1789 1.429 . S
C1770 H1794 0.950 . S
C1771 C1788 1.574 . S
C1771 C1790 1.368 . S
C1771 H1795 0.949 . S
H1772 C1776 0.949 . S
C1773 C1774 1.349 . S
C1773 C1775 1.327 . S
C1773 H1796 0.950 . S
C1774 C1773 1.349 . S
C1774 C1786 1.349 . S
C1775 C1773 1.327 . S
C1775 C1791 1.429 . S
C1775 H1797 0.950 . S
C1776 H1772 0.949 . S
C1776 C1784 1.574 . S
C1776 C1792 1.368 . S
H1777 C1785 0.950 . S
H1778 C1783 0.950 . S
H1779 C1784 0.949 . S
H1780 C1786 0.950 . S
H1781 C1787 0.950 . S
H1782 C1788 0.949 . S
C1783 H1778 0.950 . S
C1783 C1785 1.327 . S
C1783 C1789 1.429 . S
C1784 C1776 1.574 . S
C1784 H1779 0.949 . S
C1784 C1790 1.368 . S
C1785 C1769 1.349 . S
C1785 H1777 0.950 . S
C1785 C1783 1.327 . S
C1786 C1774 1.349 . S
C1786 H1780 0.950 . S
C1786 C1787 1.327 . S
C1787 H1781 0.950 . S
C1787 C1786 1.327 . S
C1787 C1791 1.429 . S
C1788 C1771 1.574 . S
C1788 H1782 0.949 . S
C1788 C1792 1.368 . S
C1789 C1770 1.429 . S
C1789 C1783 1.429 . S
C1789 C1790 1.523 . S
C1790 C1771 1.368 . S
C1790 C1784 1.368 . S
C1790 C1789 1.523 . S
C1791 C1775 1.429 . S
C1791 C1787 1.429 . S
C1791 C1792 1.523 . S
C1792 C1776 1.368 . S
C1792 C1788 1.368 . S
C1792 C1791 1.523 . S
H1793 C1768 0.950 . S
H1794 C1770 0.950 . S
H1795 C1771 0.949 . S
H1796 C1773 0.950 . S
H1797 C1775 0.950 . S
C1798 C1799 1.349 . S
C1798 C1800 1.327 . S
C1798 H1823 0.950 . S
C1799 C1798 1.349 . S
C1799 C1815 1.349 . S
C1800 C1798 1.327 . S
C1800 C1819 1.429 1_455 S
C1800 H1824 0.950 1_455 S
C1801 C1818 1.574 . S
C1801 C1820 1.368 . S
C1801 H1825 0.949 . S
H1802 C1806 0.949 . S
C1803 C1804 1.349 . S
C1803 C1805 1.327 . S
C1803 H1826 0.950 . S
C1804 C1803 1.349 . S
C1804 C1816 1.349 . S
C1805 C1803 1.327 . S
C1805 C1821 1.429 . S
C1805 H1827 0.950 . S
C1806 H1802 0.949 . S
C1806 C1814 1.574 . S
C1806 C1822 1.368 . S
H1807 C1815 0.950 . S
H1808 C1813 0.950 . S
H1809 C1814 0.949 . S
H1810 C1816 0.950 . S
H1811 C1817 0.950 . S
H1812 C1818 0.949 . S
C1813 H1808 0.950 . S
C1813 C1815 1.327 . S
C1813 C1819 1.429 1_455 S
C1814 C1806 1.574 . S
C1814 H1809 0.949 . S
C1814 C1820 1.368 . S
C1815 C1799 1.349 . S
C1815 H1807 0.950 . S
C1815 C1813 1.327 . S
C1816 C1804 1.349 . S
C1816 H1810 0.950 . S
C1816 C1817 1.327 . S
C1817 H1811 0.950 . S
C1817 C1816 1.327 . S
C1817 C1821 1.429 . S
C1818 C1801 1.574 . S
C1818 H1812 0.949 . S
C1818 C1822 1.368 . S
C1819 C1800 1.429 1_655 S
C1819 C1813 1.429 1_655 S
C1819 C1820 1.523 . S
C1820 C1801 1.368 . S
C1820 C1814 1.368 . S
C1820 C1819 1.523 . S
C1821 C1805 1.429 . S
C1821 C1817 1.429 . S
C1821 C1822 1.523 . S
C1822 C1806 1.368 . S
C1822 C1818 1.368 . S
C1822 C1821 1.523 . S
H1823 C1798 0.950 . S
H1824 C1800 0.950 1_655 S
H1825 C1801 0.949 . S
H1826 C1803 0.950 . S
H1827 C1805 0.950 . S
C1828 C1829 1.349 . S
C1828 C1830 1.327 . S
C1828 H1853 0.950 . S
C1829 C1828 1.349 . S
C1829 C1845 1.349 . S
C1830 C1828 1.327 . S
C1830 C1849 1.429 . S
C1830 H1854 0.950 . S
C1831 C1848 1.574 . S
C1831 C1850 1.368 . S
C1831 H1855 0.949 . S
H1832 C1836 0.949 . S
C1833 C1834 1.349 . S
C1833 C1835 1.327 . S
C1833 H1856 0.950 . S
C1834 C1833 1.349 . S
C1834 C1846 1.349 . S
C1835 C1833 1.327 . S
C1835 C1851 1.429 . S
C1835 H1857 0.950 . S
C1836 H1832 0.949 . S
C1836 C1844 1.574 . S
C1836 C1852 1.368 . S
H1837 C1845 0.950 . S
H1838 C1843 0.950 . S
H1839 C1844 0.949 . S
H1840 C1846 0.950 . S
H1841 C1847 0.950 . S
H1842 C1848 0.949 . S
C1843 H1838 0.950 . S
C1843 C1845 1.327 . S
C1843 C1849 1.429 . S
C1844 C1836 1.574 . S
C1844 H1839 0.949 . S
C1844 C1850 1.368 . S
C1845 C1829 1.349 . S
C1845 H1837 0.950 . S
C1845 C1843 1.327 . S
C1846 C1834 1.349 . S
C1846 H1840 0.950 . S
C1846 C1847 1.327 . S
C1847 H1841 0.950 . S
C1847 C1846 1.327 . S
C1847 C1851 1.429 . S
C1848 C1831 1.574 . S
C1848 H1842 0.949 . S
C1848 C1852 1.368 . S
C1849 C1830 1.429 . S
C1849 C1843 1.429 . S
C1849 C1850 1.523 . S
C1850 C1831 1.368 . S
C1850 C1844 1.368 . S
C1850 C1849 1.523 . S
C1851 C1835 1.429 . S
C1851 C1847 1.429 . S
C1851 C1852 1.523 . S
C1852 C1836 1.368 . S
C1852 C1848 1.368 . S
C1852 C1851 1.523 . S
H1853 C1828 0.950 . S
H1854 C1830 0.950 . S
H1855 C1831 0.949 . S
H1856 C1833 0.950 . S
H1857 C1835 0.950 . S
C1858 C1859 1.349 . S
C1858 C1860 1.327 . S
C1858 H1883 0.950 . S
C1859 C1858 1.349 . S
C1859 C1875 1.349 . S
C1860 C1858 1.327 . S
C1860 C1879 1.429 . S
C1860 H1884 0.950 . S
C1861 C1878 1.574 . S
C1861 C1880 1.368 . S
C1861 H1885 0.949 . S
H1862 C1866 0.949 . S
C1863 C1864 1.349 . S
C1863 C1865 1.327 . S
C1863 H1886 0.950 . S
C1864 C1863 1.349 . S
C1864 C1876 1.349 . S
C1865 C1863 1.327 . S
C1865 C1881 1.429 . S
C1865 H1887 0.950 . S
C1866 H1862 0.949 . S
C1866 C1874 1.574 . S
C1866 C1882 1.368 . S
H1867 C1875 0.950 . S
H1868 C1873 0.950 . S
H1869 C1874 0.949 . S
H1870 C1876 0.950 . S
H1871 C1877 0.950 . S
H1872 C1878 0.949 . S
C1873 H1868 0.950 . S
C1873 C1875 1.327 . S
C1873 C1879 1.429 . S
C1874 C1866 1.574 . S
C1874 H1869 0.949 . S
C1874 C1880 1.368 . S
C1875 C1859 1.349 . S
C1875 H1867 0.950 . S
C1875 C1873 1.327 . S
C1876 C1864 1.349 . S
C1876 H1870 0.950 . S
C1876 C1877 1.327 . S
C1877 H1871 0.950 . S
C1877 C1876 1.327 . S
C1877 C1881 1.429 . S
C1878 C1861 1.574 . S
C1878 H1872 0.949 . S
C1878 C1882 1.368 . S
C1879 C1860 1.429 . S
C1879 C1873 1.429 . S
C1879 C1880 1.523 . S
C1880 C1861 1.368 . S
C1880 C1874 1.368 . S
C1880 C1879 1.523 . S
C1881 C1865 1.429 . S
C1881 C1877 1.429 . S
C1881 C1882 1.523 . S
C1882 C1866 1.368 . S
C1882 C1878 1.368 . S
C1882 C1881 1.523 . S
H1883 C1858 0.950 . S
H1884 C1860 0.950 . S
H1885 C1861 0.949 . S
H1886 C1863 0.950 . S
H1887 C1865 0.950 . S
C1888 C1889 1.349 . S
C1888 C1890 1.327 . S
C1888 H1913 0.950 . S
C1889 C1888 1.349 . S
C1889 C1905 1.349 . S
C1890 C1888 1.327 . S
C1890 C1909 1.429 . S
C1890 H1914 0.950 . S
C1891 C1908 1.574 . S
C1891 C1910 1.368 . S
C1891 H1915 0.949 . S
H1892 C1896 0.949 . S
C1893 C1894 1.349 . S
C1893 C1895 1.327 . S
C1893 H1916 0.950 . S
C1894 C1893 1.349 . S
C1894 C1906 1.349 . S
C1895 C1893 1.327 . S
C1895 C1911 1.429 . S
C1895 H1917 0.950 . S
C1896 H1892 0.949 . S
C1896 C1904 1.574 . S
C1896 C1912 1.368 . S
H1897 C1905 0.950 . S
H1898 C1903 0.950 . S
H1899 C1904 0.949 . S
H1900 C1906 0.950 . S
H1901 C1907 0.950 . S
H1902 C1908 0.949 . S
C1903 H1898 0.950 . S
C1903 C1905 1.327 . S
C1903 C1909 1.429 . S
C1904 C1896 1.574 . S
C1904 H1899 0.949 . S
C1904 C1910 1.368 . S
C1905 C1889 1.349 . S
C1905 H1897 0.950 . S
C1905 C1903 1.327 . S
C1906 C1894 1.349 . S
C1906 H1900 0.950 . S
C1906 C1907 1.327 . S
C1907 H1901 0.950 . S
C1907 C1906 1.327 . S
C1907 C1911 1.429 . S
C1908 C1891 1.574 . S
C1908 H1902 0.949 . S
C1908 C1912 1.368 . S
C1909 C1890 1.429 . S
C1909 C1903 1.429 . S
C1909 C1910 1.523 . S
C1910 C1891 1.368 . S
C1910 C1904 1.368 . S
C1910 C1909 1.523 . S
C1911 C1895 1.429 . S
C1911 C1907 1.429 . S
C1911 C1912 1.523 . S
C1912 C1896 1.368 . S
C1912 C1908 1.368 . S
C1912 C1911 1.523 . S
H1913 C1888 0.950 . S
H1914 C1890 0.950 . S
H1915 C1891 0.949 . S
H1916 C1893 0.950 . S
H1917 C1895 0.950 . S
C1918 C1919 1.349 . S
C1918 C1920 1.327 . S
C1918 H1943 0.950 . S
C1919 C1918 1.349 . S
C1919 C1935 1.349 . S
C1920 C1918 1.327 . S
C1920 C1939 1.429 . S
C1920 H1944 0.950 . S
C1921 C1938 1.574 . S
C1921 C1940 1.368 . S
C1921 H1945 0.949 . S
H1922 C1926 0.949 . S
C1923 C1924 1.349 . S
C1923 C1925 1.327 . S
C1923 H1946 0.950 . S
C1924 C1923 1.349 . S
C1924 C1936 1.349 . S
C1925 C1923 1.327 . S
C1925 C1941 1.429 . S
C1925 H1947 0.950 . S
C1926 H1922 0.949 . S
C1926 C1934 1.574 . S
C1926 C1942 1.368 . S
H1927 C1935 0.950 . S
H1928 C1933 0.950 . S
H1929 C1934 0.949 . S
H1930 C1936 0.950 . S
H1931 C1937 0.950 . S
H1932 C1938 0.949 . S
C1933 H1928 0.950 . S
C1933 C1935 1.327 . S
C1933 C1939 1.429 . S
C1934 C1926 1.574 . S
C1934 H1929 0.949 . S
C1934 C1940 1.368 . S
C1935 C1919 1.349 . S
C1935 H1927 0.950 . S
C1935 C1933 1.327 . S
C1936 C1924 1.349 . S
C1936 H1930 0.950 . S
C1936 C1937 1.327 . S
C1937 H1931 0.950 . S
C1937 C1936 1.327 . S
C1937 C1941 1.429 . S
C1938 C1921 1.574 . S
C1938 H1932 0.949 . S
C1938 C1942 1.368 . S
C1939 C1920 1.429 . S
C1939 C1933 1.429 . S
C1939 C1940 1.523 . S
C1940 C1921 1.368 . S
C1940 C1934 1.368 . S
C1940 C1939 1.523 . S
C1941 C1925 1.429 . S
C1941 C1937 1.429 . S
C1941 C1942 1.523 . S
C1942 C1926 1.368 . S
C1942 C1938 1.368 . S
C1942 C1941 1.523 . S
H1943 C1918 0.950 . S
H1944 C1920 0.950 . S
H1945 C1921 0.949 . S
H1946 C1923 0.950 . S
H1947 C1925 0.950 . S
C1948 C1949 1.349 . S
C1948 C1950 1.327 . S
C1948 H1973 0.950 . S
C1949 C1948 1.349 . S
C1949 C1965 1.349 . S
C1950 C1948 1.327 . S
C1950 C1969 1.429 . S
C1950 H1974 0.950 . S
C1951 C1968 1.574 . S
C1951 C1970 1.368 . S
C1951 H1975 0.949 . S
H1952 C1956 0.949 . S
C1953 C1954 1.349 . S
C1953 C1955 1.327 . S
C1953 H1976 0.950 . S
C1954 C1953 1.349 . S
C1954 C1966 1.349 . S
C1955 C1953 1.327 . S
C1955 C1971 1.429 . S
C1955 H1977 0.950 . S
C1956 H1952 0.949 . S
C1956 C1964 1.574 . S
C1956 C1972 1.368 . S
H1957 C1965 0.950 . S
H1958 C1963 0.950 . S
H1959 C1964 0.949 . S
H1960 C1966 0.950 . S
H1961 C1967 0.950 . S
H1962 C1968 0.949 . S
C1963 H1958 0.950 . S
C1963 C1965 1.327 . S
C1963 C1969 1.429 . S
C1964 C1956 1.574 . S
C1964 H1959 0.949 . S
C1964 C1970 1.368 . S
C1965 C1949 1.349 . S
C1965 H1957 0.950 . S
C1965 C1963 1.327 . S
C1966 C1954 1.349 . S
C1966 H1960 0.950 . S
C1966 C1967 1.327 . S
C1967 H1961 0.950 . S
C1967 C1966 1.327 . S
C1967 C1971 1.429 . S
C1968 C1951 1.574 . S
C1968 H1962 0.949 . S
C1968 C1972 1.368 . S
C1969 C1950 1.429 . S
C1969 C1963 1.429 . S
C1969 C1970 1.523 . S
C1970 C1951 1.368 . S
C1970 C1964 1.368 . S
C1970 C1969 1.523 . S
C1971 C1955 1.429 . S
C1971 C1967 1.429 . S
C1971 C1972 1.523 . S
C1972 C1956 1.368 . S
C1972 C1968 1.368 . S
C1972 C1971 1.523 . S
H1973 C1948 0.950 . S
H1974 C1950 0.950 . S
H1975 C1951 0.949 . S
H1976 C1953 0.950 . S
H1977 C1955 0.950 . S
C1978 C1979 1.349 . S
C1978 C1980 1.327 . S
C1978 H2003 0.950 . S
C1979 C1978 1.349 . S
C1979 C1995 1.349 . S
C1980 C1978 1.327 . S
C1980 C1999 1.429 . S
C1980 H2004 0.950 . S
C1981 C1998 1.574 . S
C1981 C2000 1.368 1_554 S
C1981 H2005 0.949 . S
H1982 C1986 0.949 . S
C1983 C1984 1.349 . S
C1983 C1985 1.327 . S
C1983 H2006 0.950 . S
C1984 C1983 1.349 . S
C1984 C1996 1.349 . S
C1985 C1983 1.327 . S
C1985 C2001 1.429 . S
C1985 H2007 0.950 . S
C1986 H1982 0.949 . S
C1986 C1994 1.574 . S
C1986 C2002 1.368 1_556 S
H1987 C1995 0.950 . S
H1988 C1993 0.946 1_554 S
H1989 C1994 0.949 . S
H1990 C1996 0.950 . S
H1991 C1997 0.946 1_556 S
H1992 C1998 0.949 . S
C1993 H1988 0.946 1_556 S
C1993 C1995 1.327 . S
C1993 C1999 1.429 . S
C1994 C1986 1.574 . S
C1994 H1989 0.949 . S
C1994 C2000 1.368 . S
C1995 C1979 1.349 . S
C1995 H1987 0.950 . S
C1995 C1993 1.327 . S
C1996 C1984 1.349 . S
C1996 H1990 0.950 . S
C1996 C1997 1.327 . S
C1997 H1991 0.946 1_554 S
C1997 C1996 1.327 . S
C1997 C2001 1.429 . S
C1998 C1981 1.574 . S
C1998 H1992 0.949 . S
C1998 C2002 1.368 . S
C1999 C1980 1.429 . S
C1999 C1993 1.429 . S
C1999 C2000 1.523 . S
C2000 C1981 1.368 1_556 S
C2000 C1994 1.368 . S
C2000 C1999 1.523 . S
C2001 C1985 1.429 . S
C2001 C1997 1.429 . S
C2001 C2002 1.523 . S
C2002 C1986 1.368 1_554 S
C2002 C1998 1.368 . S
C2002 C2001 1.523 . S
H2003 C1978 0.950 . S
H2004 C1980 0.950 . S
H2005 C1981 0.949 . S
H2006 C1983 0.950 . S
H2007 C1985 0.950 . S
C2008 C2009 1.349 . S
C2008 C2010 1.327 . S
C2008 H2033 0.950 . S
C2009 C2008 1.349 . S
C2009 C2025 1.349 . S
C2010 C2008 1.327 . S
C2010 C2029 1.429 . S
C2010 H2034 0.950 . S
C2011 C2028 1.574 . S
C2011 C2030 1.368 . S
C2011 H2035 0.949 . S
H2012 C2016 0.949 . S
C2013 C2014 1.349 . S
C2013 C2015 1.327 . S
C2013 H2036 0.950 . S
C2014 C2013 1.349 . S
C2014 C2026 1.349 . S
C2015 C2013 1.327 . S
C2015 C2031 1.429 . S
C2015 H2037 0.950 . S
C2016 H2012 0.949 . S
C2016 C2024 1.574 . S
C2016 C2032 1.368 . S
H2017 C2025 0.950 . S
H2018 C2023 0.950 . S
H2019 C2024 0.949 . S
H2020 C2026 0.950 . S
H2021 C2027 0.950 . S
H2022 C2028 0.949 . S
C2023 H2018 0.950 . S
C2023 C2025 1.327 . S
C2023 C2029 1.429 . S
C2024 C2016 1.574 . S
C2024 H2019 0.949 . S
C2024 C2030 1.368 . S
C2025 C2009 1.349 . S
C2025 H2017 0.950 . S
C2025 C2023 1.327 . S
C2026 C2014 1.349 . S
C2026 H2020 0.950 . S
C2026 C2027 1.327 . S
C2027 H2021 0.950 . S
C2027 C2026 1.327 . S
C2027 C2031 1.429 . S
C2028 C2011 1.574 . S
C2028 H2022 0.949 . S
C2028 C2032 1.368 . S
C2029 C2010 1.429 . S
C2029 C2023 1.429 . S
C2029 C2030 1.523 . S
C2030 C2011 1.368 . S
C2030 C2024 1.368 . S
C2030 C2029 1.523 . S
C2031 C2015 1.429 . S
C2031 C2027 1.429 . S
C2031 C2032 1.523 . S
C2032 C2016 1.368 . S
C2032 C2028 1.368 . S
C2032 C2031 1.523 . S
H2033 C2008 0.950 . S
H2034 C2010 0.950 . S
H2035 C2011 0.949 . S
H2036 C2013 0.950 . S
H2037 C2015 0.950 . S
C2038 C2039 1.349 . S
C2038 C2040 1.327 . S
C2038 H2063 0.950 . S
C2039 C2038 1.349 . S
C2039 C2055 1.349 . S
C2040 C2038 1.327 . S
C2040 C2059 1.429 . S
C2040 H2064 0.950 . S
C2041 C2058 1.574 . S
C2041 C2060 1.368 . S
C2041 H2065 0.949 . S
H2042 C2046 0.949 . S
C2043 C2044 1.349 . S
C2043 C2045 1.327 . S
C2043 H2066 0.950 . S
C2044 C2043 1.349 . S
C2044 C2056 1.349 . S
C2045 C2043 1.327 . S
C2045 C2061 1.429 . S
C2045 H2067 0.950 . S
C2046 H2042 0.949 . S
C2046 C2054 1.574 . S
C2046 C2062 1.368 . S
H2047 C2055 0.950 . S
H2048 C2053 0.950 . S
H2049 C2054 0.949 . S
H2050 C2056 0.950 . S
H2051 C2057 0.950 . S
H2052 C2058 0.949 . S
C2053 H2048 0.950 . S
C2053 C2055 1.327 . S
C2053 C2059 1.429 . S
C2054 C2046 1.574 . S
C2054 H2049 0.949 . S
C2054 C2060 1.368 . S
C2055 C2039 1.349 . S
C2055 H2047 0.950 . S
C2055 C2053 1.327 . S
C2056 C2044 1.349 . S
C2056 H2050 0.950 . S
C2056 C2057 1.327 . S
C2057 H2051 0.950 . S
C2057 C2056 1.327 . S
C2057 C2061 1.429 . S
C2058 C2041 1.574 . S
C2058 H2052 0.949 . S
C2058 C2062 1.368 . S
C2059 C2040 1.429 . S
C2059 C2053 1.429 . S
C2059 C2060 1.523 . S
C2060 C2041 1.368 . S
C2060 C2054 1.368 . S
C2060 C2059 1.523 . S
C2061 C2045 1.429 . S
C2061 C2057 1.429 . S
C2061 C2062 1.523 . S
C2062 C2046 1.368 . S
C2062 C2058 1.368 . S
C2062 C2061 1.523 . S
H2063 C2038 0.950 . S
H2064 C2040 0.950 . S
H2065 C2041 0.949 . S
H2066 C2043 0.950 . S
H2067 C2045 0.950 . S
C2068 C2069 1.349 . S
C2068 C2070 1.327 . S
C2068 H2093 0.950 . S
C2069 C2068 1.349 . S
C2069 C2085 1.349 . S
C2070 C2068 1.327 . S
C2070 C2089 1.429 . S
C2070 H2094 0.950 . S
C2071 C2088 1.574 . S
C2071 C2090 1.368 . S
C2071 H2095 0.949 . S
H2072 C2076 0.949 . S
C2073 C2074 1.349 . S
C2073 C2075 1.327 . S
C2073 H2096 0.950 . S
C2074 C2073 1.349 . S
C2074 C2086 1.349 . S
C2075 C2073 1.327 . S
C2075 C2091 1.429 . S
C2075 H2097 0.950 . S
C2076 H2072 0.949 . S
C2076 C2084 1.574 . S
C2076 C2092 1.368 . S
H2077 C2085 0.950 . S
H2078 C2083 0.950 . S
H2079 C2084 0.949 . S
H2080 C2086 0.950 . S
H2081 C2087 0.950 . S
H2082 C2088 0.949 . S
C2083 H2078 0.950 . S
C2083 C2085 1.327 . S
C2083 C2089 1.429 . S
C2084 C2076 1.574 . S
C2084 H2079 0.949 . S
C2084 C2090 1.368 . S
C2085 C2069 1.349 . S
C2085 H2077 0.950 . S
C2085 C2083 1.327 . S
C2086 C2074 1.349 . S
C2086 H2080 0.950 . S
C2086 C2087 1.327 . S
C2087 H2081 0.950 . S
C2087 C2086 1.327 . S
C2087 C2091 1.429 . S
C2088 C2071 1.574 . S
C2088 H2082 0.949 . S
C2088 C2092 1.368 . S
C2089 C2070 1.429 . S
C2089 C2083 1.429 . S
C2089 C2090 1.523 . S
C2090 C2071 1.368 . S
C2090 C2084 1.368 . S
C2090 C2089 1.523 . S
C2091 C2075 1.429 . S
C2091 C2087 1.429 . S
C2091 C2092 1.523 . S
C2092 C2076 1.368 . S
C2092 C2088 1.368 . S
C2092 C2091 1.523 . S
H2093 C2068 0.950 . S
H2094 C2070 0.950 . S
H2095 C2071 0.949 . S
H2096 C2073 0.950 . S
H2097 C2075 0.950 . S
C2098 C2099 1.349 . S
C2098 C2100 1.327 . S
C2098 H2123 0.950 . S
C2099 C2098 1.349 . S
C2099 C2115 1.349 . S
C2100 C2098 1.327 . S
C2100 C2119 1.429 . S
C2100 H2124 0.950 . S
C2101 C2118 1.574 . S
C2101 C2120 1.368 1_556 S
C2101 H2125 0.949 . S
H2102 C2106 0.949 . S
C2103 C2104 1.349 . S
C2103 C2105 1.327 . S
C2103 H2126 0.950 . S
C2104 C2103 1.349 . S
C2104 C2116 1.349 . S
C2105 C2103 1.327 . S
C2105 C2121 1.429 . S
C2105 H2127 0.950 . S
C2106 H2102 0.949 . S
C2106 C2114 1.574 . S
C2106 C2122 1.368 1_554 S
H2107 C2115 0.950 . S
H2108 C2113 0.946 1_556 S
H2109 C2114 0.949 . S
H2110 C2116 0.950 . S
H2111 C2117 0.946 1_554 S
H2112 C2118 0.949 . S
C2113 H2108 0.946 1_554 S
C2113 C2115 1.327 . S
C2113 C2119 1.429 . S
C2114 C2106 1.574 . S
C2114 H2109 0.949 . S
C2114 C2120 1.368 . S
C2115 C2099 1.349 . S
C2115 H2107 0.950 . S
C2115 C2113 1.327 . S
C2116 C2104 1.349 . S
C2116 H2110 0.950 . S
C2116 C2117 1.327 . S
C2117 H2111 0.946 1_556 S
C2117 C2116 1.327 . S
C2117 C2121 1.429 . S
C2118 C2101 1.574 . S
C2118 H2112 0.949 . S
C2118 C2122 1.368 . S
C2119 C2100 1.429 . S
C2119 C2113 1.429 . S
C2119 C2120 1.523 . S
C2120 C2101 1.368 1_554 S
C2120 C2114 1.368 . S
C2120 C2119 1.523 . S
C2121 C2105 1.429 . S
C2121 C2117 1.429 . S
C2121 C2122 1.523 . S
C2122 C2106 1.368 1_556 S
C2122 C2118 1.368 . S
C2122 C2121 1.523 . S
H2123 C2098 0.950 . S
H2124 C2100 0.950 . S
H2125 C2101 0.949 . S
H2126 C2103 0.950 . S
H2127 C2105 0.950 . S
C2128 C2129 1.349 . S
C2128 C2130 1.327 . S
C2128 H2153 0.950 . S
C2129 C2128 1.349 . S
C2129 C2145 1.349 . S
C2130 C2128 1.327 . S
C2130 C2149 1.429 . S
C2130 H2154 0.950 . S
C2131 C2148 1.574 1_565 S
C2131 C2150 1.368 . S
C2131 H2155 0.949 . S
H2132 C2136 0.949 . S
C2133 C2134 1.349 . S
C2133 C2135 1.327 . S
C2133 H2156 0.950 . S
C2134 C2133 1.349 . S
C2134 C2146 1.349 . S
C2135 C2133 1.327 . S
C2135 C2151 1.429 . S
C2135 H2157 0.950 . S
C2136 H2132 0.949 . S
C2136 C2144 1.574 1_545 S
C2136 C2152 1.368 . S
H2137 C2145 0.950 . S
H2138 C2143 0.950 . S
H2139 C2144 0.949 . S
H2140 C2146 0.950 . S
H2141 C2147 0.950 . S
H2142 C2148 0.949 . S
C2143 H2138 0.950 . S
C2143 C2145 1.327 . S
C2143 C2149 1.429 . S
C2144 C2136 1.574 1_565 S
C2144 H2139 0.949 . S
C2144 C2150 1.368 . S
C2145 C2129 1.349 . S
C2145 H2137 0.950 . S
C2145 C2143 1.327 . S
C2146 C2134 1.349 . S
C2146 H2140 0.950 . S
C2146 C2147 1.327 . S
C2147 H2141 0.950 . S
C2147 C2146 1.327 . S
C2147 C2151 1.429 . S
C2148 C2131 1.574 1_545 S
C2148 H2142 0.949 . S
C2148 C2152 1.368 . S
C2149 C2130 1.429 . S
C2149 C2143 1.429 . S
C2149 C2150 1.523 . S
C2150 C2131 1.368 . S
C2150 C2144 1.368 . S
C2150 C2149 1.523 . S
C2151 C2135 1.429 . S
C2151 C2147 1.429 . S
C2151 C2152 1.523 . S
C2152 C2136 1.368 . S
C2152 C2148 1.368 . S
C2152 C2151 1.523 . S
H2153 C2128 0.950 . S
H2154 C2130 0.950 . S
H2155 C2131 0.949 . S
H2156 C2133 0.950 . S
H2157 C2135 0.950 . S
C2158 C2159 1.349 . S
C2158 C2160 1.327 . S
C2158 H2183 0.950 . S
C2159 C2158 1.349 . S
C2159 C2175 1.349 . S
C2160 C2158 1.327 . S
C2160 C2179 1.429 . S
C2160 H2184 0.946 1_554 S
C2161 C2178 1.574 . S
C2161 C2180 1.368 . S
C2161 H2185 0.949 . S
H2162 C2166 0.949 . S
C2163 C2164 1.349 . S
C2163 C2165 1.327 . S
C2163 H2186 0.950 . S
C2164 C2163 1.349 . S
C2164 C2176 1.349 . S
C2165 C2163 1.327 . S
C2165 C2181 1.429 . S
C2165 H2187 0.946 1_556 S
C2166 H2162 0.949 . S
C2166 C2174 1.574 . S
C2166 C2182 1.368 . S
H2167 C2175 0.950 . S
H2168 C2173 0.950 . S
H2169 C2174 0.949 . S
H2170 C2176 0.950 . S
H2171 C2177 0.950 . S
H2172 C2178 0.949 . S
C2173 H2168 0.950 . S
C2173 C2175 1.327 . S
C2173 C2179 1.429 . S
C2174 C2166 1.574 . S
C2174 H2169 0.949 . S
C2174 C2180 1.368 1_556 S
C2175 C2159 1.349 . S
C2175 H2167 0.950 . S
C2175 C2173 1.327 . S
C2176 C2164 1.349 . S
C2176 H2170 0.950 . S
C2176 C2177 1.327 . S
C2177 H2171 0.950 . S
C2177 C2176 1.327 . S
C2177 C2181 1.429 . S
C2178 C2161 1.574 . S
C2178 H2172 0.949 . S
C2178 C2182 1.368 1_554 S
C2179 C2160 1.429 . S
C2179 C2173 1.429 . S
C2179 C2180 1.523 . S
C2180 C2161 1.368 . S
C2180 C2174 1.368 1_554 S
C2180 C2179 1.523 . S
C2181 C2165 1.429 . S
C2181 C2177 1.429 . S
C2181 C2182 1.523 . S
C2182 C2166 1.368 . S
C2182 C2178 1.368 1_556 S
C2182 C2181 1.523 . S
H2183 C2158 0.950 . S
H2184 C2160 0.946 1_556 S
H2185 C2161 0.949 . S
H2186 C2163 0.950 . S
H2187 C2165 0.946 1_554 S
C2188 C2189 1.349 . S
C2188 C2190 1.327 . S
C2188 H2213 0.950 . S
C2189 C2188 1.349 . S
C2189 C2205 1.349 . S
C2190 C2188 1.327 . S
C2190 C2209 1.429 . S
C2190 H2214 0.950 . S
C2191 C2208 1.574 1_545 S
C2191 C2210 1.368 . S
C2191 H2215 0.949 . S
H2192 C2196 0.949 . S
C2193 C2194 1.349 . S
C2193 C2195 1.327 . S
C2193 H2216 0.950 . S
C2194 C2193 1.349 . S
C2194 C2206 1.349 . S
C2195 C2193 1.327 . S
C2195 C2211 1.429 . S
C2195 H2217 0.950 . S
C2196 H2192 0.949 . S
C2196 C2204 1.574 1_565 S
C2196 C2212 1.368 . S
H2197 C2205 0.950 . S
H2198 C2203 0.950 . S
H2199 C2204 0.949 . S
H2200 C2206 0.950 . S
H2201 C2207 0.950 . S
H2202 C2208 0.949 . S
C2203 H2198 0.950 . S
C2203 C2205 1.327 . S
C2203 C2209 1.429 . S
C2204 C2196 1.574 1_545 S
C2204 H2199 0.949 . S
C2204 C2210 1.368 . S
C2205 C2189 1.349 . S
C2205 H2197 0.950 . S
C2205 C2203 1.327 . S
C2206 C2194 1.349 . S
C2206 H2200 0.950 . S
C2206 C2207 1.327 . S
C2207 H2201 0.950 . S
C2207 C2206 1.327 . S
C2207 C2211 1.429 . S
C2208 C2191 1.574 1_565 S
C2208 H2202 0.949 . S
C2208 C2212 1.368 . S
C2209 C2190 1.429 . S
C2209 C2203 1.429 . S
C2209 C2210 1.523 . S
C2210 C2191 1.368 . S
C2210 C2204 1.368 . S
C2210 C2209 1.523 . S
C2211 C2195 1.429 . S
C2211 C2207 1.429 . S
C2211 C2212 1.523 . S
C2212 C2196 1.368 . S
C2212 C2208 1.368 . S
C2212 C2211 1.523 . S
H2213 C2188 0.950 . S
H2214 C2190 0.950 . S
H2215 C2191 0.949 . S
H2216 C2193 0.950 . S
H2217 C2195 0.950 . S
C2218 C2219 1.349 . S
C2218 C2220 1.327 . S
C2218 H2243 0.950 . S
C2219 C2218 1.349 . S
C2219 C2235 1.349 . S
C2220 C2218 1.327 . S
C2220 C2239 1.429 . S
C2220 H2244 0.950 . S
C2221 C2238 1.574 . S
C2221 C2240 1.368 . S
C2221 H2245 0.949 . S
H2222 C2226 0.949 . S
C2223 C2224 1.349 . S
C2223 C2225 1.327 . S
C2223 H2246 0.950 . S
C2224 C2223 1.349 . S
C2224 C2236 1.349 . S
C2225 C2223 1.327 . S
C2225 C2241 1.429 . S
C2225 H2247 0.950 . S
C2226 H2222 0.949 . S
C2226 C2234 1.574 . S
C2226 C2242 1.368 . S
H2227 C2235 0.950 . S
H2228 C2233 0.950 . S
H2229 C2234 0.949 . S
H2230 C2236 0.950 . S
H2231 C2237 0.950 . S
H2232 C2238 0.949 . S
C2233 H2228 0.950 . S
C2233 C2235 1.327 . S
C2233 C2239 1.429 . S
C2234 C2226 1.574 . S
C2234 H2229 0.949 . S
C2234 C2240 1.368 . S
C2235 C2219 1.349 . S
C2235 H2227 0.950 . S
C2235 C2233 1.327 . S
C2236 C2224 1.349 . S
C2236 H2230 0.950 . S
C2236 C2237 1.327 . S
C2237 H2231 0.950 . S
C2237 C2236 1.327 . S
C2237 C2241 1.429 . S
C2238 C2221 1.574 . S
C2238 H2232 0.949 . S
C2238 C2242 1.368 . S
C2239 C2220 1.429 . S
C2239 C2233 1.429 . S
C2239 C2240 1.523 . S
C2240 C2221 1.368 . S
C2240 C2234 1.368 . S
C2240 C2239 1.523 . S
C2241 C2225 1.429 . S
C2241 C2237 1.429 . S
C2241 C2242 1.523 . S
C2242 C2226 1.368 . S
C2242 C2238 1.368 . S
C2242 C2241 1.523 . S
H2243 C2218 0.950 . S
H2244 C2220 0.950 . S
H2245 C2221 0.949 . S
H2246 C2223 0.950 . S
H2247 C2225 0.950 . S
C2248 C2249 1.349 . S
C2248 C2250 1.327 . S
C2248 H2273 0.950 . S
C2249 C2248 1.349 . S
C2249 C2265 1.349 . S
C2250 C2248 1.327 . S
C2250 C2269 1.429 . S
C2250 H2274 0.950 . S
C2251 C2268 1.574 1_545 S
C2251 C2270 1.368 . S
C2251 H2275 0.949 . S
H2252 C2256 0.949 . S
C2253 C2254 1.349 . S
C2253 C2255 1.327 . S
C2253 H2276 0.950 . S
C2254 C2253 1.349 . S
C2254 C2266 1.349 . S
C2255 C2253 1.327 . S
C2255 C2271 1.429 . S
C2255 H2277 0.950 . S
C2256 H2252 0.949 . S
C2256 C2264 1.574 1_565 S
C2256 C2272 1.368 . S
H2257 C2265 0.950 . S
H2258 C2263 0.950 . S
H2259 C2264 0.949 . S
H2260 C2266 0.950 . S
H2261 C2267 0.950 . S
H2262 C2268 0.949 . S
C2263 H2258 0.950 . S
C2263 C2265 1.327 . S
C2263 C2269 1.429 . S
C2264 C2256 1.574 1_545 S
C2264 H2259 0.949 . S
C2264 C2270 1.368 . S
C2265 C2249 1.349 . S
C2265 H2257 0.950 . S
C2265 C2263 1.327 . S
C2266 C2254 1.349 . S
C2266 H2260 0.950 . S
C2266 C2267 1.327 . S
C2267 H2261 0.950 . S
C2267 C2266 1.327 . S
C2267 C2271 1.429 . S
C2268 C2251 1.574 1_565 S
C2268 H2262 0.949 . S
C2268 C2272 1.368 . S
C2269 C2250 1.429 . S
C2269 C2263 1.429 . S
C2269 C2270 1.523 . S
C2270 C2251 1.368 . S
C2270 C2264 1.368 . S
C2270 C2269 1.523 . S
C2271 C2255 1.429 . S
C2271 C2267 1.429 . S
C2271 C2272 1.523 . S
C2272 C2256 1.368 . S
C2272 C2268 1.368 . S
C2272 C2271 1.523 . S
H2273 C2248 0.950 . S
H2274 C2250 0.950 . S
H2275 C2251 0.949 . S
H2276 C2253 0.950 . S
H2277 C2255 0.950 . S
C2278 C2279 1.349 . S
C2278 C2280 1.327 . S
C2278 H2303 0.950 . S
C2279 C2278 1.349 . S
C2279 C2295 1.349 . S
C2280 C2278 1.327 . S
C2280 C2299 1.429 . S
C2280 H2304 0.950 . S
C2281 C2298 1.574 . S
C2281 C2300 1.368 1_556 S
C2281 H2305 0.949 . S
H2282 C2286 0.949 . S
C2283 C2284 1.349 . S
C2283 C2285 1.327 . S
C2283 H2306 0.950 . S
C2284 C2283 1.349 . S
C2284 C2296 1.349 . S
C2285 C2283 1.327 . S
C2285 C2301 1.429 . S
C2285 H2307 0.950 . S
C2286 H2282 0.949 . S
C2286 C2294 1.574 . S
C2286 C2302 1.368 1_554 S
H2287 C2295 0.950 . S
H2288 C2293 0.946 1_556 S
H2289 C2294 0.949 . S
H2290 C2296 0.950 . S
H2291 C2297 0.946 1_554 S
H2292 C2298 0.949 . S
C2293 H2288 0.946 1_554 S
C2293 C2295 1.327 . S
C2293 C2299 1.429 . S
C2294 C2286 1.574 . S
C2294 H2289 0.949 . S
C2294 C2300 1.368 . S
C2295 C2279 1.349 . S
C2295 H2287 0.950 . S
C2295 C2293 1.327 . S
C2296 C2284 1.349 . S
C2296 H2290 0.950 . S
C2296 C2297 1.327 . S
C2297 H2291 0.946 1_556 S
C2297 C2296 1.327 . S
C2297 C2301 1.429 . S
C2298 C2281 1.574 . S
C2298 H2292 0.949 . S
C2298 C2302 1.368 . S
C2299 C2280 1.429 . S
C2299 C2293 1.429 . S
C2299 C2300 1.523 . S
C2300 C2281 1.368 1_554 S
C2300 C2294 1.368 . S
C2300 C2299 1.523 . S
C2301 C2285 1.429 . S
C2301 C2297 1.429 . S
C2301 C2302 1.523 . S
C2302 C2286 1.368 1_556 S
C2302 C2298 1.368 . S
C2302 C2301 1.523 . S
H2303 C2278 0.950 . S
H2304 C2280 0.950 . S
H2305 C2281 0.949 . S
H2306 C2283 0.950 . S
H2307 C2285 0.950 . S
C2308 C2309 1.349 . S
C2308 C2310 1.327 . S
C2308 H2333 0.950 . S
C2309 C2308 1.349 . S
C2309 C2325 1.349 . S
C2310 C2308 1.327 . S
C2310 C2329 1.429 . S
C2310 H2334 0.950 . S
C2311 C2328 1.574 1_545 S
C2311 C2330 1.368 . S
C2311 H2335 0.949 . S
H2312 C2316 0.949 . S
C2313 C2314 1.349 . S
C2313 C2315 1.327 . S
C2313 H2336 0.950 . S
C2314 C2313 1.349 . S
C2314 C2326 1.349 . S
C2315 C2313 1.327 . S
C2315 C2331 1.429 . S
C2315 H2337 0.950 . S
C2316 H2312 0.949 . S
C2316 C2324 1.574 1_565 S
C2316 C2332 1.368 . S
H2317 C2325 0.950 . S
H2318 C2323 0.950 . S
H2319 C2324 0.949 . S
H2320 C2326 0.950 . S
H2321 C2327 0.950 . S
H2322 C2328 0.949 . S
C2323 H2318 0.950 . S
C2323 C2325 1.327 . S
C2323 C2329 1.429 . S
C2324 C2316 1.574 1_545 S
C2324 H2319 0.949 . S
C2324 C2330 1.368 . S
C2325 C2309 1.349 . S
C2325 H2317 0.950 . S
C2325 C2323 1.327 . S
C2326 C2314 1.349 . S
C2326 H2320 0.950 . S
C2326 C2327 1.327 . S
C2327 H2321 0.950 . S
C2327 C2326 1.327 . S
C2327 C2331 1.429 . S
C2328 C2311 1.574 1_565 S
C2328 H2322 0.949 . S
C2328 C2332 1.368 . S
C2329 C2310 1.429 . S
C2329 C2323 1.429 . S
C2329 C2330 1.523 . S
C2330 C2311 1.368 . S
C2330 C2324 1.368 . S
C2330 C2329 1.523 . S
C2331 C2315 1.429 . S
C2331 C2327 1.429 . S
C2331 C2332 1.523 . S
C2332 C2316 1.368 . S
C2332 C2328 1.368 . S
C2332 C2331 1.523 . S
H2333 C2308 0.950 . S
H2334 C2310 0.950 . S
H2335 C2311 0.949 . S
H2336 C2313 0.950 . S
H2337 C2315 0.950 . S
C2338 C2339 1.349 . S
C2338 C2340 1.327 . S
C2338 H2363 0.950 . S
C2339 C2338 1.349 . S
C2339 C2355 1.349 . S
C2340 C2338 1.327 . S
C2340 C2359 1.429 . S
C2340 H2364 0.950 . S
C2341 C2358 1.574 . S
C2341 C2360 1.368 . S
C2341 H2365 0.949 . S
H2342 C2346 0.949 . S
C2343 C2344 1.349 . S
C2343 C2345 1.327 . S
C2343 H2366 0.950 . S
C2344 C2343 1.349 . S
C2344 C2356 1.349 . S
C2345 C2343 1.327 . S
C2345 C2361 1.429 . S
C2345 H2367 0.950 . S
C2346 H2342 0.949 . S
C2346 C2354 1.574 . S
C2346 C2362 1.368 . S
H2347 C2355 0.950 . S
H2348 C2353 0.950 . S
H2349 C2354 0.949 . S
H2350 C2356 0.950 . S
H2351 C2357 0.950 . S
H2352 C2358 0.949 . S
C2353 H2348 0.950 . S
C2353 C2355 1.327 . S
C2353 C2359 1.429 . S
C2354 C2346 1.574 . S
C2354 H2349 0.949 . S
C2354 C2360 1.368 . S
C2355 C2339 1.349 . S
C2355 H2347 0.950 . S
C2355 C2353 1.327 . S
C2356 C2344 1.349 . S
C2356 H2350 0.950 . S
C2356 C2357 1.327 . S
C2357 H2351 0.950 . S
C2357 C2356 1.327 . S
C2357 C2361 1.429 . S
C2358 C2341 1.574 . S
C2358 H2352 0.949 . S
C2358 C2362 1.368 . S
C2359 C2340 1.429 . S
C2359 C2353 1.429 . S
C2359 C2360 1.523 . S
C2360 C2341 1.368 . S
C2360 C2354 1.368 . S
C2360 C2359 1.523 . S
C2361 C2345 1.429 . S
C2361 C2357 1.429 . S
C2361 C2362 1.523 . S
C2362 C2346 1.368 . S
C2362 C2358 1.368 . S
C2362 C2361 1.523 . S
H2363 C2338 0.950 . S
H2364 C2340 0.950 . S
H2365 C2341 0.949 . S
H2366 C2343 0.950 . S
H2367 C2345 0.950 . S
C449 C7 1.303 . S
C454 C301 1.329 . S
C479 C315 1.303 . S
C484 C21 1.303 . S
C509 C35 1.303 . S
C514 C329 1.303 . S
C539 C287 1.303 . S
C544 C49 1.329 . S
C569 C63 1.303 . S
C574 C273 1.303 . S
C599 C77 1.303 . S
C604 C231 1.303 . S
C629 C245 1.329 . S
C634 C91 1.303 . S
C659 C105 1.329 . S
C664 C259 1.303 . S
C689 C119 1.303 . S
C694 C413 1.329 . S
C719 C133 1.303 . S
C724 C427 1.303 . S
C749 C441 1.303 . S
C754 C147 1.303 . S
C779 C399 1.303 . S
C784 C161 1.329 . S
C809 C175 1.303 . S
C814 C385 1.303 . S
C839 C343 1.303 . S
C844 C189 1.303 . S
C869 C203 1.303 . S
C874 C357 1.329 . S
C899 C371 1.303 . S
C904 C217 1.329 . S
C929 C9 1.267 . S
C934 C129 1.323 . S
C959 C23 1.267 . S
C964 C367 1.323 . S
C989 C157 1.323 . S
C994 C37 1.267 . S
C1019 C51 1.267 . S
C1024 C339 1.323 . S
C1049 C65 1.267 . S
C1054 C213 1.323 . S
C1079 C395 1.323 . S
C1084 C79 1.267 . S
C1109 C185 1.323 . S
C1114 C93 1.267 . S
C1139 C423 1.323 . S
C1144 C107 1.267 . S
C1169 C121 1.267 . S
C1174 C17 1.323 . S
C1199 C255 1.323 . S
C1204 C135 1.267 . S
C1229 C45 1.323 . S
C1234 C149 1.267 . S
C1259 C163 1.267 . S
C1264 C227 1.323 . S
C1289 C101 1.323 . S
C1294 C177 1.267 . S
C1319 C283 1.323 . S
C1324 C191 1.267 . S
C1349 C73 1.323 . S
C1354 C205 1.267 . S
C1379 C219 1.267 . S
C1384 C311 1.323 . S
C1409 C353 1.323 . S
C1414 C233 1.267 . S
C1439 C143 1.323 . S
C1444 C247 1.267 . S
C1469 C381 1.323 . S
C1474 C261 1.267 . S
C1499 C275 1.267 . S
C1504 C115 1.323 . S
C1529 C437 1.323 . S
C1534 C289 1.267 . S
C1559 C171 1.323 . S
C1564 C303 1.267 . S
C1589 C409 1.323 . S
C1594 C317 1.267 . S
C1619 C331 1.267 . S
C1624 C199 1.323 . S
C1649 C345 1.267 . S
C1654 C241 1.323 . S
C1679 C31 1.323 . S
C1684 C359 1.267 . S
C1709 C373 1.267 . S
C1714 C269 1.323 . S
C1739 C387 1.267 . S
C1744 C3 1.323 . S
C1769 C401 1.267 . S
C1774 C325 1.323 . S
C1799 C59 1.323 . S
C1804 C415 1.267 . S
C1829 C297 1.323 . S
C1834 C429 1.267 . S
C1859 C443 1.267 . S
C1864 C87 1.323 . S
C1889 C8 1.190 . S
C1894 C64 1.190 . S
C1919 C22 1.190 . S
C1924 C78 1.190 . S
C1949 C92 1.190 . S
C1954 C36 1.190 . S
C1979 C106 1.190 . S
C1984 C50 1.190 . S
C2009 C176 1.190 . S
C2014 C120 1.190 . S
C2039 C190 1.190 . S
C2044 C134 1.190 . S
C2069 C204 1.190 . S
C2074 C148 1.190 . S
C2099 C218 1.190 . S
C2104 C162 1.190 . S
C2129 C232 1.190 . S
C2134 C288 1.190 . S
C2159 C246 1.190 . S
C2164 C302 1.190 . S
C2189 C260 1.190 . S
C2194 C316 1.190 . S
C2219 C330 1.190 . S
C2224 C274 1.190 . S
C2249 C344 1.190 . S
C2254 C400 1.190 . S
C2279 C414 1.190 . S
C2284 C358 1.190 . S
C2309 C428 1.190 . S
C2314 C372 1.190 . S
C2339 C442 1.190 . S
C2344 C386 1.190 . S
