# Generated by pormake.
# Topology crb, (4)-cn, num edge types: 1
# Building blocks:
#     Node 0, Type 0, BuildingBlock: NAHDIM_clean_sbu_0, # of connection points: 4
#     Node 1, Type 0, BuildingBlock: NAHDIM_clean_sbu_0, # of connection points: 4
#     Node 2, Type 0, BuildingBlock: NAHDIM_clean_sbu_0, # of connection points: 4
#     Node 3, Type 0, BuildingBlock: NAHDIM_clean_sbu_0, # of connection points: 4
#     Node 4, Type 0, BuildingBlock: NAHDIM_clean_sbu_0, # of connection points: 4
#     Node 5, Type 0, BuildingBlock: NAHDIM_clean_sbu_0, # of connection points: 4
#     Node 6, Type 0, BuildingBlock: NAHDIM_clean_sbu_0, # of connection points: 4
#     Node 7, Type 0, BuildingBlock: NAHDIM_clean_sbu_0, # of connection points: 4
#     Edge 8, Type (0, 0), BuildingBlock: UVAHIK_clean_linker_0, # of connection points: 2
#     Edge 9, Type (0, 0), BuildingBlock: UVAHIK_clean_linker_0, # of connection points: 2
#     Edge 10, Type (0, 0), BuildingBlock: UVAHIK_clean_linker_0, # of connection points: 2
#     Edge 11, Type (0, 0), BuildingBlock: UVAHIK_clean_linker_0, # of connection points: 2
#     Edge 12, Type (0, 0), BuildingBlock: UVAHIK_clean_linker_0, # of connection points: 2
#     Edge 13, Type (0, 0), BuildingBlock: UVAHIK_clean_linker_0, # of connection points: 2
#     Edge 14, Type (0, 0), BuildingBlock: UVAHIK_clean_linker_0, # of connection points: 2
#     Edge 15, Type (0, 0), BuildingBlock: UVAHIK_clean_linker_0, # of connection points: 2
#     Edge 16, Type (0, 0), BuildingBlock: UVAHIK_clean_linker_0, # of connection points: 2
#     Edge 17, Type (0, 0), BuildingBlock: UVAHIK_clean_linker_0, # of connection points: 2
#     Edge 18, Type (0, 0), BuildingBlock: UVAHIK_clean_linker_0, # of connection points: 2
#     Edge 19, Type (0, 0), BuildingBlock: UVAHIK_clean_linker_0, # of connection points: 2
#     Edge 20, Type (0, 0), BuildingBlock: UVAHIK_clean_linker_0, # of connection points: 2
#     Edge 21, Type (0, 0), BuildingBlock: UVAHIK_clean_linker_0, # of connection points: 2
#     Edge 22, Type (0, 0), BuildingBlock: UVAHIK_clean_linker_0, # of connection points: 2
#     Edge 23, Type (0, 0), BuildingBlock: UVAHIK_clean_linker_0, # of connection points: 2
# Relax obj value: 0.033
# Max RMSD: 0.065
# Mean RMSD: 0.065
data_MOF--net-crb--node1-NAHDIM_clean_sbu_0--edge1-UVAHIK_clean_linker_0
_symmetry_space_group_name_H-M    P1
_symmetry_Int_Tables_number       1
_symmetry_cell_setting            triclinic
loop_
_symmetry_equiv_pos_as_xyz
'x, y, z'
_cell_length_a     54.450841
_cell_length_b     56.57223
_cell_length_c     31.789825
_cell_angle_alpha  89.975456
_cell_angle_beta   90.015399
_cell_angle_gamma 90.004627
loop_
_atom_site_label
_atom_site_type_symbol
_atom_site_fract_x
_atom_site_fract_y
_atom_site_fract_z
_atom_type_partial_charge
C0 C 0.30983 0.29086 0.14704 0.0
O1 O 0.32736 0.28068 0.12519 0.0
O2 O 0.35047 0.31979 0.07855 0.0
Zn3 Zn 0.31391 0.32454 0.0807 0.0
O4 O 0.29801 0.30846 0.03138 0.0
C5 C 0.30823 0.37097 0.04526 0.0
O6 O 0.31329 0.35958 0.01031 0.0
O7 O 0.30087 0.31028 0.13405 0.0
C8 C 0.27627 0.31356 0.02008 0.0
O9 O 0.26396 0.32962 0.0412 0.0
C10 C 0.36195 0.31755 0.04398 0.0
O11 O 0.34962 0.31821 0.00847 0.0
O12 O 0.30711 0.35951 0.07962 0.0
C13 C 0.68192 0.28785 0.94118 0.0
O14 O 0.66766 0.27605 0.96709 0.0
O15 O 0.63706 0.31842 0.00397 0.0
Zn16 Zn 0.67357 0.32366 0.00216 0.0
O17 O 0.6894 0.30805 0.05205 0.0
C18 C 0.67835 0.37042 0.03652 0.0
O19 O 0.6731 0.35928 0.07166 0.0
O20 O 0.68719 0.30921 0.94954 0.0
C21 C 0.71082 0.31365 0.06434 0.0
O22 O 0.72304 0.33004 0.04385 0.0
C23 C 0.62589 0.31589 0.03877 0.0
O24 O 0.63853 0.31639 0.07396 0.0
O25 O 0.67992 0.3587 0.00253 0.0
C26 C 0.67894 0.70487 0.14112 0.0
O27 O 0.66319 0.71605 0.11693 0.0
O28 O 0.63703 0.6757 0.07354 0.0
Zn29 Zn 0.67352 0.67057 0.07655 0.0
O30 O 0.68992 0.68684 0.02788 0.0
C31 C 0.67882 0.62443 0.04023 0.0
O32 O 0.674 0.63619 0.00555 0.0
O33 O 0.68632 0.68445 0.1303 0.0
C34 C 0.71153 0.68145 0.01629 0.0
O35 O 0.72355 0.66491 0.03675 0.0
C36 C 0.62615 0.67873 0.0386 0.0
O37 O 0.63906 0.67875 0.0037 0.0
O38 O 0.67996 0.63555 0.07491 0.0
C39 C 0.30982 0.70347 0.92935 0.0
O40 O 0.3278 0.71361 0.9502 0.0
O41 O 0.35071 0.67542 -0.00172 0.0
Zn42 Zn 0.31413 0.67065 -0.00307 0.0
O43 O 0.29862 0.6873 0.046 0.0
C44 C 0.30825 0.62485 0.03459 0.0
O45 O 0.31304 0.63687 0.06898 0.0
O46 O 0.30068 0.68436 0.94339 0.0
C47 C 0.27685 0.68255 0.0576 0.0
O48 O 0.26424 0.66653 0.03689 0.0
C49 C 0.36232 0.67777 0.03269 0.0
O50 O 0.35014 0.6772 0.06834 0.0
O51 O 0.30736 0.63568 -0.00043 0.0
C52 C 0.8095 0.79063 0.64337 0.0
O53 O 0.82657 0.77987 0.62133 0.0
O54 O 0.85073 0.81731 0.57352 0.0
Zn55 Zn 0.8143 0.82342 0.57613 0.0
O56 O 0.79742 0.80756 0.52754 0.0
C57 C 0.81843 0.86957 0.54219 0.0
O58 O 0.83041 0.85749 0.51349 0.0
O59 O 0.80101 0.81021 0.63019 0.0
C60 C 0.77796 0.81596 0.51132 0.0
O61 O 0.7684 0.83537 0.52699 0.0
C62 C 0.86136 0.80998 0.54041 0.0
O63 O 0.84826 0.80588 0.50649 0.0
O64 O 0.80909 0.85861 0.57322 0.0
C65 C 0.17782 0.79168 0.42974 0.0
O66 O 0.16003 0.78116 0.45045 0.0
O67 O 0.13638 0.81857 0.49911 0.0
Zn68 Zn 0.1728 0.82432 0.49748 0.0
O69 O 0.1888 0.80798 0.54645 0.0
C70 C 0.17857 0.87026 0.53509 0.0
O71 O 0.17493 0.85817 0.56983 0.0
O72 O 0.18654 0.81094 0.4439 0.0
C73 C 0.2107 0.81277 0.55727 0.0
O74 O 0.22311 0.82864 0.53585 0.0
C75 C 0.12483 0.81728 0.53375 0.0
O76 O 0.13698 0.81972 0.5692 0.0
O77 O 0.17877 0.85944 0.50005 0.0
C78 C 0.17777 0.20389 0.64802 0.0
O79 O 0.15992 0.21401 0.6268 0.0
O80 O 0.13785 0.17639 0.57655 0.0
Zn81 Zn 0.17427 0.17085 0.58036 0.0
O82 O 0.19102 0.18674 0.53166 0.0
C83 C 0.1791 0.12432 0.54499 0.0
O84 O 0.17435 0.1358 0.50999 0.0
O85 O 0.18704 0.1848 0.6342 0.0
C86 C 0.21246 0.18097 0.51976 0.0
O87 O 0.22426 0.16418 0.53998 0.0
C88 C 0.12719 0.17876 0.54123 0.0
O89 O 0.14026 0.17764 0.50656 0.0
O90 O 0.18037 0.13574 0.57934 0.0
C91 C 0.8093 0.20463 0.43731 0.0
O92 O 0.82661 0.21528 0.459 0.0
O93 O 0.8522 0.17726 0.50285 0.0
Zn94 Zn 0.8158 0.17081 0.5025 0.0
O95 O 0.79989 0.18582 0.55296 0.0
C96 C 0.82281 0.12356 0.53055 0.0
O97 O 0.8375 0.13465 0.55672 0.0
O98 O 0.80127 0.18477 0.44998 0.0
C99 C 0.78241 0.17593 0.57274 0.0
O100 O 0.77422 0.15534 0.55978 0.0
C101 C 0.86366 0.18395 0.53559 0.0
O102 O 0.85147 0.18708 0.5708 0.0
O103 O 0.81084 0.13551 0.5036 0.0
C104 C 0.30504 0.40945 0.00669 0.0
C105 C 0.30495 0.39692 0.04488 0.0
C106 C 0.30304 0.43408 0.0064 0.0
C107 C 0.31459 0.4859 0.07273 0.0
H108 H 0.27427 0.51879 0.99093 0.0
C109 C 0.30429 0.5872 0.07541 0.0
C110 C 0.30498 0.59891 0.03645 0.0
C111 C 0.30232 0.5626 0.07723 0.0
C112 C 0.2858 0.50987 0.01372 0.0
H113 H 0.30219 0.4004 0.1127 0.0
H114 H 0.29873 0.44339 0.11213 0.0
H115 H 0.27438 0.47564 0.99254 0.0
H116 H 0.30378 0.594 0.9688 0.0
H117 H 0.30082 0.55108 0.97194 0.0
H118 H 0.32644 0.51998 0.09341 0.0
C119 C 0.30054 0.43415 0.08245 0.0
C120 C 0.28582 0.48517 0.01467 0.0
C121 C 0.3024 0.40952 0.08274 0.0
C122 C 0.30324 0.58553 -0.00066 0.0
C123 C 0.30139 0.56091 0.00115 0.0
C124 C 0.31467 0.51057 0.07165 0.0
C125 C 0.30104 0.44671 0.0443 0.0
C126 C 0.30029 0.47292 0.04409 0.0
C127 C 0.30112 0.54913 0.04012 0.0
C128 C 0.30035 0.52287 0.04203 0.0
H129 H 0.30695 0.40028 0.97697 0.0
H130 H 0.30372 0.44328 0.97653 0.0
H131 H 0.32623 0.47696 0.09533 0.0
H132 H 0.30542 0.59701 0.1046 0.0
H133 H 0.30174 0.55414 0.10778 0.0
C134 C 0.40203 0.31354 0.08189 0.0
C135 C 0.38896 0.31489 0.04383 0.0
C136 C 0.42761 0.3118 0.08186 0.0
C137 C 0.48075 0.29656 0.01462 0.0
H138 H 0.51687 0.33502 0.09444 0.0
C139 C 0.58523 0.3131 0.00217 0.0
C140 C 0.59886 0.31333 0.03973 0.0
C141 C 0.55962 0.31165 0.00318 0.0
C142 C 0.50706 0.32393 0.07233 0.0
H143 H 0.39249 0.31512 0.97585 0.0
H144 H 0.43718 0.31238 0.97583 0.0
H145 H 0.47216 0.3355 0.0952 0.0
H146 H 0.59631 0.31168 0.10778 0.0
H147 H 0.55165 0.30899 0.1095 0.0
H148 H 0.51575 0.28522 0.99147 0.0
C149 C 0.42761 0.31238 0.0057 0.0
C150 C 0.48143 0.32419 0.07276 0.0
C151 C 0.40201 0.31409 0.00572 0.0
C152 C 0.58636 0.31166 0.07828 0.0
C153 C 0.56076 0.31024 0.07929 0.0
C154 C 0.50642 0.29632 0.01415 0.0
C155 C 0.44071 0.3114 0.04378 0.0
C156 C 0.46797 0.31058 0.04383 0.0
C157 C 0.54709 0.31043 0.04177 0.0
C158 C 0.51985 0.31007 0.04292 0.0
H159 H 0.39253 0.31395 0.11181 0.0
H160 H 0.43713 0.31071 0.11172 0.0
H161 H 0.47092 0.28562 0.99231 0.0
H162 H 0.59429 0.31436 0.97193 0.0
H163 H 0.54961 0.31207 0.97375 0.0
C164 C 0.68401 0.40872 -0.0019 0.0
C165 C 0.68145 0.3964 0.03626 0.0
C166 C 0.68578 0.43335 -0.00223 0.0
C167 C 0.70046 0.48485 0.06417 0.0
H168 H 0.65986 0.51909 0.98456 0.0
C169 C 0.6836 0.58539 0.07659 0.0
C170 C 0.68186 0.59846 0.0391 0.0
C171 C 0.68527 0.56075 0.0755 0.0
C172 C 0.67163 0.50984 0.00656 0.0
H173 H 0.67928 0.40026 0.10407 0.0
H174 H 0.68237 0.44327 0.10342 0.0
H175 H 0.65996 0.47605 0.98386 0.0
H176 H 0.68123 0.59595 0.97102 0.0
H177 H 0.68462 0.55304 0.96909 0.0
H178 H 0.71216 0.51863 0.08689 0.0
C179 C 0.68312 0.43385 0.0738 0.0
C180 C 0.67164 0.48516 0.00618 0.0
C181 C 0.6812 0.40921 0.07413 0.0
C182 C 0.68236 0.5864 0.00049 0.0
C183 C 0.68416 0.56177 -0.00061 0.0
C184 C 0.70057 0.50956 0.06441 0.0
C185 C 0.68518 0.44619 0.03559 0.0
C186 C 0.68593 0.4724 0.03514 0.0
C187 C 0.68537 0.54862 0.03689 0.0
C188 C 0.68602 0.52235 0.03577 0.0
H189 H 0.68432 0.39937 0.96838 0.0
H190 H 0.68762 0.44237 0.96787 0.0
H191 H 0.7119 0.47548 0.08652 0.0
H192 H 0.68319 0.59414 0.10688 0.0
H193 H 0.68585 0.55118 0.105 0.0
C194 C 0.40251 0.68129 0.07053 0.0
C195 C 0.38933 0.68049 0.03255 0.0
C196 C 0.4281 0.68307 0.07032 0.0
C197 C 0.48175 0.67146 0.00278 0.0
H198 H 0.51617 0.71008 0.08453 0.0
C199 C 0.58686 0.68338 -0.00154 0.0
C200 C 0.59914 0.68142 0.03718 0.0
C201 C 0.56127 0.68499 -0.00292 0.0
C202 C 0.50681 0.69909 0.0617 0.0
H203 H 0.39265 0.6815 0.96454 0.0
H204 H 0.43724 0.68486 0.96421 0.0
H205 H 0.47134 0.70984 0.08357 0.0
H206 H 0.59422 0.68007 0.1049 0.0
H207 H 0.54959 0.68271 0.10241 0.0
H208 H 0.51716 0.66058 0.9811 0.0
C209 C 0.42783 0.68372 0.99416 0.0
C210 C 0.48114 0.69894 0.06117 0.0
C211 C 0.40226 0.6819 0.99436 0.0
C212 C 0.58533 0.68154 0.07453 0.0
C213 C 0.55975 0.68321 0.07314 0.0
C214 C 0.50738 0.67165 0.00327 0.0
C215 C 0.44107 0.68413 0.03212 0.0
C216 C 0.46833 0.685 0.03186 0.0
C217 C 0.54743 0.68474 0.03439 0.0
C218 C 0.5202 0.68535 0.03289 0.0
H219 H 0.39311 0.68021 0.10049 0.0
H220 H 0.43777 0.68305 0.1001 0.0
H221 H 0.47245 0.66024 0.98025 0.0
H222 H 0.59697 0.68344 0.96912 0.0
H223 H 0.55232 0.68646 0.96676 0.0
C224 C 0.80244 0.90861 0.5677 0.0
C225 C 0.8168 0.89561 0.53916 0.0
C226 C 0.80176 0.93329 0.5656 0.0
C227 C 0.79415 0.98473 0.53785 0.0
H228 H 0.85655 0.01721 0.52651 0.0
C229 C 0.80307 0.08558 0.50778 0.0
C230 C 0.82079 0.0975 0.53195 0.0
C231 C 0.80163 0.06089 0.50868 0.0
C232 C 0.839 0.00839 0.52984 0.0
H233 H 0.84135 0.8983 0.48559 0.0
H234 H 0.84023 0.94131 0.48216 0.0
H235 H 0.85554 0.9741 0.52769 0.0
H236 H 0.85075 0.09291 0.57625 0.0
H237 H 0.8483 0.04991 0.57754 0.0
H238 H 0.77767 0.01912 0.54021 0.0
C239 C 0.82962 0.93242 0.50627 0.0
C240 C 0.8384 0.98373 0.53012 0.0
C241 C 0.83016 0.90777 0.50813 0.0
C242 C 0.83691 0.08427 0.55721 0.0
C243 C 0.83561 0.05963 0.5578 0.0
C244 C 0.79474 0.00944 0.53716 0.0
C245 C 0.81558 0.94544 0.53517 0.0
C246 C 0.81599 0.97164 0.53426 0.0
C247 C 0.81804 0.04769 0.53343 0.0
C248 C 0.8172 0.0215 0.53339 0.0
H249 H 0.7919 0.89974 0.59192 0.0
H250 H 0.79091 0.9429 0.58847 0.0
H251 H 0.77661 0.97585 0.54081 0.0
H252 H 0.79035 0.09528 0.48806 0.0
H253 H 0.78801 0.05212 0.48937 0.0
C254 C 0.08469 0.81482 0.5719 0.0
C255 C 0.09795 0.81363 0.53405 0.0
C256 C 0.05919 0.81213 0.57199 0.0
C257 C 0.00532 0.81701 0.50208 0.0
H258 H 0.97209 0.78397 0.59258 0.0
C259 C 0.90057 0.80206 0.50172 0.0
C260 C 0.88837 0.80729 0.53954 0.0
C261 C 0.92618 0.80074 0.5005 0.0
C262 C 0.98113 0.79335 0.56723 0.0
H263 H 0.09491 0.80808 0.46671 0.0
H264 H 0.05048 0.80303 0.46697 0.0
H265 H 0.01689 0.78539 0.59132 0.0
H266 H 0.89345 0.81464 0.60598 0.0
H267 H 0.93813 0.81239 0.60377 0.0
H268 H 0.96956 0.82504 0.47811 0.0
C269 C 0.05973 0.8065 0.4965 0.0
C270 C 0.00677 0.79421 0.56653 0.0
C271 C 0.08521 0.80928 0.49639 0.0
C272 C 0.90229 0.81062 0.57631 0.0
C273 C 0.92788 0.80919 0.57512 0.0
C274 C 0.9797 0.81606 0.50269 0.0
C275 C 0.04638 0.80809 0.53425 0.0
C276 C 0.01916 0.80623 0.53413 0.0
C277 C 0.94011 0.80449 0.53712 0.0
C278 C 0.96733 0.8044 0.53545 0.0
H279 H 0.09395 0.8182 0.60146 0.0
H280 H 0.04945 0.81378 0.60155 0.0
H281 H 0.01424 0.82674 0.47704 0.0
H282 H 0.89038 0.79933 0.47287 0.0
H283 H 0.9351 0.79683 0.47086 0.0
C284 C 0.1846 0.08567 0.58242 0.0
C285 C 0.182 0.09831 0.5446 0.0
C286 C 0.18621 0.06102 0.5821 0.0
C287 C 0.20012 0.00998 0.51389 0.0
H288 H 0.16026 0.97525 0.59389 0.0
C289 C 0.18257 0.90961 0.49947 0.0
C290 C 0.18149 0.89624 0.5367 0.0
C291 C 0.18427 0.93424 0.50109 0.0
C292 C 0.1718 0.98464 0.57175 0.0
H293 H 0.17955 0.095 0.47672 0.0
H294 H 0.18231 0.05199 0.47624 0.0
H295 H 0.16055 0.01828 0.5957 0.0
H296 H 0.182 0.89823 0.60485 0.0
H297 H 0.18536 0.94113 0.60767 0.0
H298 H 0.21134 0.97633 0.48987 0.0
C299 C 0.18325 0.06116 0.5061 0.0
C300 C 0.17194 0.00932 0.57277 0.0
C301 C 0.18153 0.0858 0.50642 0.0
C302 C 0.18262 0.90801 0.57557 0.0
C303 C 0.18441 0.93262 0.5772 0.0
C304 C 0.20006 0.98528 0.51297 0.0
C305 C 0.18537 0.04849 0.54396 0.0
C306 C 0.18599 0.02226 0.54372 0.0
C307 C 0.18502 0.94606 0.53999 0.0
C308 C 0.18579 0.97231 0.54174 0.0
H309 H 0.1851 0.09478 0.61237 0.0
H310 H 0.18812 0.05176 0.61175 0.0
H311 H 0.21137 0.01947 0.49144 0.0
H312 H 0.18168 0.90109 0.469 0.0
H313 H 0.18438 0.94405 0.47183 0.0
C314 C 0.90347 0.18506 0.4963 0.0
C315 C 0.89064 0.18681 0.53452 0.0
C316 C 0.92907 0.18656 0.49551 0.0
C317 C 0.98305 0.20522 0.55856 0.0
H318 H 0.01765 0.16058 0.48749 0.0
C319 C 0.08647 0.18477 0.57625 0.0
C320 C 0.10029 0.18215 0.5392 0.0
C321 C 0.06097 0.18726 0.57438 0.0
C322 C 0.00827 0.17337 0.50708 0.0
H323 H 0.89458 0.19196 0.6018 0.0
H324 H 0.93925 0.19412 0.60054 0.0
H325 H 0.97296 0.16156 0.4866 0.0
H326 H 0.09822 0.1805 0.47109 0.0
H327 H 0.05369 0.18483 0.46791 0.0
H328 H 0.01849 0.21664 0.57964 0.0
C329 C 0.92953 0.19196 0.57106 0.0
C330 C 0.98264 0.17397 0.50654 0.0
C331 C 0.90391 0.19058 0.57182 0.0
C332 C 0.0881 0.1824 0.50023 0.0
C333 C 0.06259 0.18477 0.49839 0.0
C334 C 0.00871 0.20454 0.55923 0.0
C335 C 0.94243 0.18971 0.53294 0.0
C336 C 0.96971 0.18981 0.53243 0.0
C337 C 0.04874 0.18707 0.53546 0.0
C338 C 0.02157 0.18852 0.53366 0.0
H339 H 0.89377 0.18235 0.46694 0.0
H340 H 0.93839 0.18517 0.46553 0.0
H341 H 0.97368 0.21789 0.57841 0.0
H342 H 0.0953 0.18469 0.60678 0.0
H343 H 0.05077 0.18876 0.60351 0.0
C344 C 0.24584 0.18434 0.46582 0.0
C345 C 0.22366 0.19267 0.48286 0.0
C346 C 0.25604 0.19512 0.43031 0.0
C347 C 0.25582 0.25054 0.36975 0.0
H348 H 0.27892 0.21128 0.27798 0.0
C349 C 0.28029 0.28933 0.20737 0.0
C350 C 0.30066 0.27983 0.18618 0.0
C351 C 0.27155 0.27879 0.24419 0.0
C352 C 0.27288 0.22251 0.30354 0.0
H353 H 0.19491 0.219 0.47627 0.0
H354 H 0.21278 0.2378 0.41446 0.0
H355 H 0.26289 0.19279 0.34161 0.0
H356 H 0.32799 0.25193 0.18723 0.0
H357 H 0.31304 0.2338 0.25183 0.0
H358 H 0.2659 0.28027 0.33194 0.0
C359 C 0.22232 0.22302 0.42866 0.0
C360 C 0.26367 0.2119 0.33996 0.0
C361 C 0.21204 0.21215 0.46394 0.0
C362 C 0.31218 0.25962 0.20269 0.0
C363 C 0.30352 0.24915 0.23962 0.0
C364 C 0.26515 0.26116 0.33345 0.0
C365 C 0.24437 0.21455 0.41137 0.0
C366 C 0.2549 0.22581 0.37332 0.0
C367 C 0.28307 0.25857 0.26077 0.0
C368 C 0.27366 0.24727 0.29979 0.0
H369 H 0.25525 0.16937 0.47967 0.0
H370 H 0.27317 0.18835 0.41785 0.0
H371 H 0.2495 0.26171 0.39522 0.0
H372 H 0.27093 0.30482 0.19537 0.0
H373 H 0.25553 0.28629 0.2593 0.0
C374 C 0.74367 0.31042 0.11923 0.0
C375 C 0.72158 0.30212 0.1018 0.0
C376 C 0.75353 0.29977 0.15513 0.0
C377 C 0.75288 0.24456 0.21606 0.0
H378 H 0.77583 0.28403 0.3077 0.0
C379 C 0.77907 0.2058 0.37788 0.0
C380 C 0.79944 0.21562 0.39862 0.0
C381 C 0.76977 0.2163 0.34141 0.0
C382 C 0.76982 0.27274 0.28219 0.0
H383 H 0.69261 0.276 0.10813 0.0
H384 H 0.70992 0.25737 0.17064 0.0
H385 H 0.75967 0.30238 0.24404 0.0
H386 H 0.82619 0.24404 0.39712 0.0
H387 H 0.81031 0.26204 0.33312 0.0
H388 H 0.76323 0.21492 0.25386 0.0
C389 C 0.71964 0.27206 0.15644 0.0
C390 C 0.76053 0.28327 0.24577 0.0
C391 C 0.70967 0.28282 0.12078 0.0
C392 C 0.81037 0.2361 0.38204 0.0
C393 C 0.80117 0.24651 0.34544 0.0
C394 C 0.76233 0.23402 0.25236 0.0
C395 C 0.74161 0.28048 0.17408 0.0
C396 C 0.7519 0.26929 0.2124 0.0
C397 C 0.78072 0.23678 0.32472 0.0
C398 C 0.77084 0.24798 0.28594 0.0
H399 H 0.75328 0.32527 0.10536 0.0
H400 H 0.77062 0.30649 0.16786 0.0
H401 H 0.74664 0.23335 0.19059 0.0
H402 H 0.77015 0.19008 0.38998 0.0
H403 H 0.75377 0.20853 0.32663 0.0
C404 C 0.77588 0.78264 0.45965 0.0
C405 C 0.76656 0.80423 0.47463 0.0
C406 C 0.76542 0.77173 0.42457 0.0
C407 C 0.7291 0.78441 0.32998 0.0
H408 H 0.71781 0.71672 0.32931 0.0
C409 C 0.67871 0.73788 0.19352 0.0
C410 C 0.6881 0.716 0.18017 0.0
C411 C 0.6875 0.74853 0.23019 0.0
C412 C 0.7211 0.7356 0.32882 0.0
H413 H 0.73886 0.83123 0.46464 0.0
H414 H 0.72061 0.81213 0.4033 0.0
H415 H 0.73456 0.73553 0.3921 0.0
H416 H 0.71412 0.68814 0.19481 0.0
H417 H 0.72975 0.7069 0.25837 0.0
H418 H 0.71599 0.7845 0.26656 0.0
C419 C 0.73611 0.80376 0.41862 0.0
C420 C 0.73064 0.74637 0.36481 0.0
C421 C 0.74648 0.81462 0.45387 0.0
C422 C 0.70643 0.70496 0.20433 0.0
C423 C 0.71528 0.71566 0.24091 0.0
C424 C 0.71965 0.77364 0.29392 0.0
C425 C 0.7455 0.78222 0.40357 0.0
C426 C 0.73481 0.77087 0.36572 0.0
C427 C 0.70595 0.73758 0.25425 0.0
C428 C 0.7156 0.74909 0.29286 0.0
H429 H 0.79135 0.77418 0.4749 0.0
H430 H 0.77322 0.75528 0.41341 0.0
H431 H 0.73244 0.80328 0.32956 0.0
H432 H 0.6645 0.7468 0.17573 0.0
H433 H 0.67966 0.76526 0.23989 0.0
C434 C 0.17628 0.76124 0.3727 0.0
C435 C 0.18765 0.78112 0.39068 0.0
C436 C 0.18562 0.75112 0.33597 0.0
C437 C 0.24216 0.74569 0.27411 0.0
H438 H 0.19824 0.7274 0.18375 0.0
C439 C 0.27862 0.7133 0.11409 0.0
C440 C 0.26617 0.69447 0.0947 0.0
C441 C 0.26878 0.72433 0.14957 0.0
C442 C 0.21073 0.73213 0.20888 0.0
H443 H 0.21774 0.80601 0.38418 0.0
H444 H 0.2341 0.78824 0.32008 0.0
H445 H 0.18156 0.7457 0.24705 0.0
H446 H 0.23361 0.67243 0.09736 0.0
H447 H 0.21667 0.69134 0.15978 0.0
H448 H 0.2713 0.73183 0.23644 0.0
C449 C 0.21801 0.78045 0.33456 0.0
C450 C 0.20117 0.74266 0.24509 0.0
C451 C 0.20856 0.79069 0.37113 0.0
C452 C 0.2436 0.68697 0.11145 0.0
C453 C 0.23382 0.69791 0.14711 0.0
C454 C 0.25171 0.73502 0.23805 0.0
C455 C 0.20664 0.76057 0.31662 0.0
C456 C 0.21679 0.74956 0.27805 0.0
C457 C 0.24632 0.71669 0.16667 0.0
C458 C 0.23612 0.72812 0.20497 0.0
H459 H 0.16014 0.75344 0.38698 0.0
H460 H 0.17662 0.73566 0.32308 0.0
H461 H 0.2546 0.75052 0.29928 0.0
H462 H 0.29599 0.71959 0.10182 0.0
H463 H 0.2787 0.73899 0.16338 0.0
C464 C 0.24456 0.80854 0.6101 0.0
C465 C 0.22177 0.80102 0.59424 0.0
C466 C 0.25471 0.79776 0.64564 0.0
C467 C 0.25285 0.74315 0.70828 0.0
H468 H 0.27916 0.78249 0.79742 0.0
C469 C 0.27924 0.70515 0.87053 0.0
C470 C 0.3003 0.71427 0.89025 0.0
C471 C 0.27012 0.71557 0.83386 0.0
C472 C 0.27221 0.77122 0.77259 0.0
H473 H 0.19187 0.77612 0.60297 0.0
H474 H 0.20966 0.75727 0.66486 0.0
H475 H 0.26277 0.80088 0.73398 0.0
H476 H 0.32849 0.7413 0.88668 0.0
H477 H 0.31288 0.75917 0.82232 0.0
H478 H 0.26244 0.71347 0.74659 0.0
C479 C 0.2197 0.77144 0.6497 0.0
C480 C 0.26279 0.78178 0.73629 0.0
C481 C 0.20947 0.78233 0.61439 0.0
C482 C 0.31214 0.73393 0.87239 0.0
C483 C 0.3031 0.74426 0.8356 0.0
C484 C 0.26242 0.73257 0.74446 0.0
C485 C 0.24237 0.77911 0.66581 0.0
C486 C 0.25291 0.76786 0.70386 0.0
C487 C 0.28193 0.73526 0.81596 0.0
C488 C 0.27212 0.74648 0.77714 0.0
H489 H 0.25449 0.82289 0.5953 0.0
H490 H 0.27231 0.80389 0.65717 0.0
H491 H 0.24564 0.73197 0.68353 0.0
H492 H 0.26963 0.69008 0.88361 0.0
H493 H 0.25357 0.7084 0.81993 0.0
C494 C 0.24255 0.30956 0.96692 0.0
C495 C 0.26521 0.30186 0.98306 0.0
C496 C 0.23237 0.29875 0.93144 0.0
C497 C 0.23382 0.24387 0.86958 0.0
H498 H 0.20807 0.28307 0.77971 0.0
C499 C 0.20795 0.20555 0.70743 0.0
C500 C 0.18706 0.21471 0.68725 0.0
C501 C 0.21691 0.21601 0.74416 0.0
C502 C 0.21485 0.27184 0.80475 0.0
H503 H 0.29486 0.27663 0.97487 0.0
H504 H 0.27702 0.25775 0.91308 0.0
H505 H 0.22443 0.30158 0.84303 0.0
H506 H 0.15898 0.24187 0.6901 0.0
H507 H 0.1743 0.25982 0.75458 0.0
H508 H 0.22411 0.21412 0.83158 0.0
C509 C 0.2671 0.27208 0.92798 0.0
C510 C 0.22426 0.28247 0.84099 0.0
C511 C 0.27736 0.28299 0.96323 0.0
C512 C 0.1752 0.23445 0.70475 0.0
C513 C 0.18407 0.24484 0.74161 0.0
C514 C 0.22427 0.23323 0.83347 0.0
C515 C 0.24455 0.27991 0.91161 0.0
C516 C 0.23396 0.2686 0.87366 0.0
C517 C 0.20509 0.2358 0.76168 0.0
C518 C 0.21478 0.24709 0.80051 0.0
H519 H 0.23273 0.32406 0.98148 0.0
H520 H 0.21486 0.30501 0.91971 0.0
H521 H 0.24087 0.23273 0.89453 0.0
H522 H 0.21758 0.19042 0.69464 0.0
H523 H 0.23335 0.20881 0.75842 0.0
C524 C 0.68496 0.25315 0.8926 0.0
C525 C 0.69183 0.27636 0.903 0.0
C526 C 0.69438 0.24225 0.85663 0.0
C527 C 0.72399 0.25547 0.75457 0.0
H528 H 0.74318 0.1895 0.75924 0.0
C529 C 0.77912 0.21019 0.62224 0.0
C530 C 0.77161 0.18741 0.61019 0.0
C531 C 0.76901 0.22102 0.65771 0.0
C532 C 0.73766 0.20786 0.75734 0.0
H533 H 0.71407 0.30633 0.88389 0.0
H534 H 0.73077 0.2872 0.82152 0.0
H535 H 0.72635 0.20848 0.82177 0.0
H536 H 0.7476 0.1581 0.62599 0.0
H537 H 0.72996 0.17705 0.68794 0.0
H538 H 0.73555 0.25486 0.69023 0.0
C539 C 0.71779 0.27753 0.84076 0.0
C540 C 0.72799 0.21874 0.79313 0.0
C541 C 0.70832 0.28845 0.87667 0.0
C542 C 0.75379 0.17567 0.63442 0.0
C543 C 0.74378 0.18645 0.67004 0.0
C544 C 0.73374 0.24461 0.71885 0.0
C545 C 0.71093 0.2543 0.83031 0.0
C546 C 0.72106 0.24268 0.79218 0.0
C547 C 0.75127 0.20925 0.68202 0.0
C548 C 0.7407 0.2207 0.71986 0.0
H549 H 0.67221 0.24337 0.91214 0.0
H550 H 0.68845 0.22446 0.84918 0.0
H551 H 0.71845 0.27382 0.75256 0.0
H552 H 0.79285 0.21971 0.6043 0.0
H553 H 0.77535 0.23849 0.66644 0.0
C554 C 0.7449 0.68507 0.96245 0.0
C555 C 0.72266 0.69327 0.97946 0.0
C556 C 0.75504 0.6959 0.92695 0.0
C557 C 0.75467 0.75123 0.86625 0.0
H558 H 0.77773 0.71184 0.77462 0.0
C559 C 0.78 0.78979 0.70386 0.0
C560 C 0.80024 0.77996 0.68276 0.0
C561 C 0.77108 0.77943 0.74072 0.0
C562 C 0.77171 0.72311 0.80013 0.0
H563 H 0.69376 0.71944 0.97288 0.0
H564 H 0.71154 0.73836 0.91106 0.0
H565 H 0.76159 0.69344 0.8382 0.0
H566 H 0.82723 0.75176 0.68415 0.0
H567 H 0.81201 0.734 0.74883 0.0
H568 H 0.76493 0.78092 0.82845 0.0
C569 C 0.72116 0.72363 0.92528 0.0
C570 C 0.76243 0.71255 0.83652 0.0
C571 C 0.71093 0.71269 0.96054 0.0
C572 C 0.8115 0.75969 0.6995 0.0
C573 C 0.80268 0.74942 0.73648 0.0
C574 C 0.7641 0.76181 0.82997 0.0
C575 C 0.74325 0.71526 0.90798 0.0
C576 C 0.75371 0.7265 0.86986 0.0
C577 C 0.7823 0.75909 0.75745 0.0
C578 C 0.77264 0.74788 0.79638 0.0
H579 H 0.75439 0.67015 0.97629 0.0
H580 H 0.7722 0.68922 0.91448 0.0
H581 H 0.74835 0.76242 0.89169 0.0
H582 H 0.77085 0.80535 0.69166 0.0
H583 H 0.75513 0.78715 0.75571 0.0
loop_
_geom_bond_atom_site_label_1
_geom_bond_atom_site_label_2
_geom_bond_distance
_geom_bond_site_symmetry_2
_ccdc_geom_bond_type
C0 O1 1.160 . S
C0 O7 1.185 . S
O1 C0 1.160 . S
O2 Zn3 1.899 . S
O2 C10 1.284 . S
Zn3 O2 1.899 . S
Zn3 O4 2.032 . S
Zn3 O7 2.086 . S
Zn3 O12 1.977 . S
O4 Zn3 2.032 . S
O4 C8 1.278 1_554 S
C5 O6 1.203 . S
C5 O12 1.267 . S
O6 C5 1.203 . S
O7 C0 1.185 . S
O7 Zn3 2.086 . S
C8 O4 1.278 1_556 S
C8 O9 1.211 . S
O9 C8 1.211 . S
C10 O2 1.284 . S
C10 O11 1.273 . S
O11 C10 1.273 . S
O12 Zn3 1.977 . S
O12 C5 1.267 . S
C13 O14 1.160 . S
C13 O20 1.185 . S
O14 C13 1.160 . S
O15 Zn16 1.899 . S
O15 C23 1.284 . S
Zn16 O15 1.899 . S
Zn16 O17 2.032 . S
Zn16 O20 2.086 1_554 S
Zn16 O25 1.977 . S
O17 Zn16 2.032 . S
O17 C21 1.278 . S
C18 O19 1.203 . S
C18 O25 1.267 . S
O19 C18 1.203 . S
O20 C13 1.185 . S
O20 Zn16 2.086 1_556 S
C21 O17 1.278 . S
C21 O22 1.211 . S
O22 C21 1.211 . S
C23 O15 1.284 . S
C23 O24 1.273 . S
O24 C23 1.273 . S
O25 Zn16 1.977 . S
O25 C18 1.267 . S
C26 O27 1.160 . S
C26 O33 1.185 . S
O27 C26 1.160 . S
O28 Zn29 1.899 . S
O28 C36 1.284 . S
Zn29 O28 1.899 . S
Zn29 O30 2.032 . S
Zn29 O33 2.086 . S
Zn29 O38 1.977 . S
O30 Zn29 2.032 . S
O30 C34 1.278 1_554 S
C31 O32 1.203 . S
C31 O38 1.267 . S
O32 C31 1.203 . S
O33 C26 1.185 . S
O33 Zn29 2.086 . S
C34 O30 1.278 1_556 S
C34 O35 1.211 . S
O35 C34 1.211 . S
C36 O28 1.284 . S
C36 O37 1.273 . S
O37 C36 1.273 . S
O38 Zn29 1.977 . S
O38 C31 1.267 . S
C39 O40 1.160 . S
C39 O46 1.185 . S
O40 C39 1.160 . S
O41 Zn42 1.899 . S
O41 C49 1.284 . S
Zn42 O41 1.899 . S
Zn42 O43 2.032 . S
Zn42 O46 2.086 1_554 S
Zn42 O51 1.977 . S
O43 Zn42 2.032 . S
O43 C47 1.278 . S
C44 O45 1.203 . S
C44 O51 1.267 . S
O45 C44 1.203 . S
O46 C39 1.185 . S
O46 Zn42 2.086 1_556 S
C47 O43 1.278 . S
C47 O48 1.211 . S
O48 C47 1.211 . S
C49 O41 1.284 . S
C49 O50 1.273 . S
O50 C49 1.273 . S
O51 Zn42 1.977 . S
O51 C44 1.267 . S
C52 O53 1.160 . S
C52 O59 1.185 . S
O53 C52 1.160 . S
O54 Zn55 1.899 . S
O54 C62 1.284 . S
Zn55 O54 1.899 . S
Zn55 O56 2.032 . S
Zn55 O59 2.086 . S
Zn55 O64 1.977 . S
O56 Zn55 2.032 . S
O56 C60 1.278 . S
C57 O58 1.203 . S
C57 O64 1.267 . S
O58 C57 1.203 . S
O59 C52 1.185 . S
O59 Zn55 2.086 . S
C60 O56 1.278 . S
C60 O61 1.211 . S
O61 C60 1.211 . S
C62 O54 1.284 . S
C62 O63 1.273 . S
O63 C62 1.273 . S
O64 Zn55 1.977 . S
O64 C57 1.267 . S
C65 O66 1.160 . S
C65 O72 1.185 . S
O66 C65 1.160 . S
O67 Zn68 1.899 . S
O67 C75 1.284 . S
Zn68 O67 1.899 . S
Zn68 O69 2.032 . S
Zn68 O72 2.086 . S
Zn68 O77 1.977 . S
O69 Zn68 2.032 . S
O69 C73 1.278 . S
C70 O71 1.203 . S
C70 O77 1.267 . S
O71 C70 1.203 . S
O72 C65 1.185 . S
O72 Zn68 2.086 . S
C73 O69 1.278 . S
C73 O74 1.211 . S
O74 C73 1.211 . S
C75 O67 1.284 . S
C75 O76 1.273 . S
O76 C75 1.273 . S
O77 Zn68 1.977 . S
O77 C70 1.267 . S
C78 O79 1.160 . S
C78 O85 1.185 . S
O79 C78 1.160 . S
O80 Zn81 1.899 . S
O80 C88 1.284 . S
Zn81 O80 1.899 . S
Zn81 O82 2.032 . S
Zn81 O85 2.086 . S
Zn81 O90 1.977 . S
O82 Zn81 2.032 . S
O82 C86 1.278 . S
C83 O84 1.203 . S
C83 O90 1.267 . S
O84 C83 1.203 . S
O85 C78 1.185 . S
O85 Zn81 2.086 . S
C86 O82 1.278 . S
C86 O87 1.211 . S
O87 C86 1.211 . S
C88 O80 1.284 . S
C88 O89 1.273 . S
O89 C88 1.273 . S
O90 Zn81 1.977 . S
O90 C83 1.267 . S
C91 O92 1.160 . S
C91 O98 1.185 . S
O92 C91 1.160 . S
O93 Zn94 1.899 . S
O93 C101 1.284 . S
Zn94 O93 1.899 . S
Zn94 O95 2.032 . S
Zn94 O98 2.086 . S
Zn94 O103 1.977 . S
O95 Zn94 2.032 . S
O95 C99 1.278 . S
C96 O97 1.203 . S
C96 O103 1.267 . S
O97 C96 1.203 . S
O98 C91 1.185 . S
O98 Zn94 2.086 . S
C99 O95 1.278 . S
C99 O100 1.211 . S
O100 C99 1.211 . S
C101 O93 1.284 . S
C101 O102 1.273 . S
O102 C101 1.273 . S
O103 Zn94 1.977 . S
O103 C96 1.267 . S
C104 C105 1.349 . S
C104 C106 1.327 . S
C104 H129 0.950 1_554 S
C105 C104 1.349 . S
C105 C121 1.349 . S
C106 C104 1.327 . S
C106 C125 1.429 . S
C106 H130 0.950 1_554 S
C107 C124 1.574 . S
C107 C126 1.368 . S
C107 H131 0.949 . S
H108 C112 0.949 1_556 S
C109 C110 1.349 . S
C109 C111 1.327 . S
C109 H132 0.950 . S
C110 C109 1.349 . S
C110 C122 1.349 . S
C111 C109 1.327 . S
C111 C127 1.429 . S
C111 H133 0.950 . S
C112 H108 0.949 1_554 S
C112 C120 1.574 . S
C112 C128 1.368 . S
H113 C121 0.950 . S
H114 C119 0.950 . S
H115 C120 0.949 1_556 S
H116 C122 0.950 1_556 S
H117 C123 0.950 1_556 S
H118 C124 0.949 . S
C119 H114 0.950 . S
C119 C121 1.327 . S
C119 C125 1.429 . S
C120 C112 1.574 . S
C120 H115 0.949 1_554 S
C120 C126 1.368 . S
C121 C105 1.349 . S
C121 H113 0.950 . S
C121 C119 1.327 . S
C122 C110 1.349 . S
C122 H116 0.950 1_554 S
C122 C123 1.327 . S
C123 H117 0.950 1_554 S
C123 C122 1.327 . S
C123 C127 1.429 . S
C124 C107 1.574 . S
C124 H118 0.949 . S
C124 C128 1.368 . S
C125 C106 1.429 . S
C125 C119 1.429 . S
C125 C126 1.523 . S
C126 C107 1.368 . S
C126 C120 1.368 . S
C126 C125 1.523 . S
C127 C111 1.429 . S
C127 C123 1.429 . S
C127 C128 1.523 . S
C128 C112 1.368 . S
C128 C124 1.368 . S
C128 C127 1.523 . S
H129 C104 0.950 1_556 S
H130 C106 0.950 1_556 S
H131 C107 0.949 . S
H132 C109 0.950 . S
H133 C111 0.950 . S
C134 C135 1.349 . S
C134 C136 1.327 . S
C134 H159 0.950 . S
C135 C134 1.349 . S
C135 C151 1.349 . S
C136 C134 1.327 . S
C136 C155 1.429 . S
C136 H160 0.950 . S
C137 C154 1.574 . S
C137 C156 1.368 . S
C137 H161 0.949 . S
H138 C142 0.949 . S
C139 C140 1.349 . S
C139 C141 1.327 . S
C139 H162 0.950 1_554 S
C140 C139 1.349 . S
C140 C152 1.349 . S
C141 C139 1.327 . S
C141 C157 1.429 . S
C141 H163 0.945 1_554 S
C142 H138 0.949 . S
C142 C150 1.574 . S
C142 C158 1.368 . S
H143 C151 0.950 . S
H144 C149 0.950 . S
H145 C150 0.949 . S
H146 C152 0.950 . S
H147 C153 0.950 . S
H148 C154 0.949 . S
C149 H144 0.950 . S
C149 C151 1.327 . S
C149 C155 1.429 . S
C150 C142 1.574 . S
C150 H145 0.949 . S
C150 C156 1.368 . S
C151 C135 1.349 . S
C151 H143 0.950 . S
C151 C149 1.327 . S
C152 C140 1.349 . S
C152 H146 0.950 . S
C152 C153 1.327 . S
C153 H147 0.950 . S
C153 C152 1.327 . S
C153 C157 1.429 . S
C154 C137 1.574 . S
C154 H148 0.949 . S
C154 C158 1.368 . S
C155 C136 1.429 . S
C155 C149 1.429 . S
C155 C156 1.523 . S
C156 C137 1.368 . S
C156 C150 1.368 . S
C156 C155 1.523 . S
C157 C141 1.429 . S
C157 C153 1.429 . S
C157 C158 1.523 . S
C158 C142 1.368 . S
C158 C154 1.368 . S
C158 C157 1.523 . S
H159 C134 0.950 . S
H160 C136 0.950 . S
H161 C137 0.949 . S
H162 C139 0.950 1_556 S
H163 C141 0.945 1_556 S
C164 C165 1.349 . S
C164 C166 1.327 . S
C164 H189 0.950 1_554 S
C165 C164 1.349 . S
C165 C181 1.349 . S
C166 C164 1.327 . S
C166 C185 1.429 . S
C166 H190 0.950 1_554 S
C167 C184 1.574 . S
C167 C186 1.368 . S
C167 H191 0.949 . S
H168 C172 0.949 1_556 S
C169 C170 1.349 . S
C169 C171 1.327 . S
C169 H192 0.950 . S
C170 C169 1.349 . S
C170 C182 1.349 . S
C171 C169 1.327 . S
C171 C187 1.429 . S
C171 H193 0.950 . S
C172 H168 0.949 1_554 S
C172 C180 1.574 . S
C172 C188 1.368 . S
H173 C181 0.950 . S
H174 C179 0.950 . S
H175 C180 0.949 1_556 S
H176 C182 0.950 1_556 S
H177 C183 0.950 1_556 S
H178 C184 0.949 . S
C179 H174 0.950 . S
C179 C181 1.327 . S
C179 C185 1.429 . S
C180 C172 1.574 . S
C180 H175 0.949 1_554 S
C180 C186 1.368 . S
C181 C165 1.349 . S
C181 H173 0.950 . S
C181 C179 1.327 . S
C182 C170 1.349 . S
C182 H176 0.950 1_554 S
C182 C183 1.327 . S
C183 H177 0.950 1_554 S
C183 C182 1.327 . S
C183 C187 1.429 . S
C184 C167 1.574 . S
C184 H178 0.949 . S
C184 C188 1.368 . S
C185 C166 1.429 . S
C185 C179 1.429 . S
C185 C186 1.523 . S
C186 C167 1.368 . S
C186 C180 1.368 . S
C186 C185 1.523 . S
C187 C171 1.429 . S
C187 C183 1.429 . S
C187 C188 1.523 . S
C188 C172 1.368 . S
C188 C184 1.368 . S
C188 C187 1.523 . S
H189 C164 0.950 1_556 S
H190 C166 0.950 1_556 S
H191 C167 0.949 . S
H192 C169 0.950 . S
H193 C171 0.950 . S
C194 C195 1.349 . S
C194 C196 1.327 . S
C194 H219 0.950 . S
C195 C194 1.349 . S
C195 C211 1.349 . S
C196 C194 1.327 . S
C196 C215 1.429 . S
C196 H220 0.950 . S
C197 C214 1.574 . S
C197 C216 1.368 . S
C197 H221 0.949 . S
H198 C202 0.949 . S
C199 C200 1.349 . S
C199 C201 1.327 . S
C199 H222 0.950 . S
C200 C199 1.349 . S
C200 C212 1.349 . S
C201 C199 1.327 . S
C201 C217 1.429 . S
C201 H223 0.950 . S
C202 H198 0.949 . S
C202 C210 1.574 . S
C202 C218 1.368 . S
H203 C211 0.950 1_556 S
H204 C209 0.945 1_556 S
H205 C210 0.949 . S
H206 C212 0.950 . S
H207 C213 0.950 . S
H208 C214 0.949 . S
C209 H204 0.945 1_554 S
C209 C211 1.327 . S
C209 C215 1.429 . S
C210 C202 1.574 . S
C210 H205 0.949 . S
C210 C216 1.368 . S
C211 C195 1.349 . S
C211 H203 0.950 1_554 S
C211 C209 1.327 . S
C212 C200 1.349 . S
C212 H206 0.950 . S
C212 C213 1.327 . S
C213 H207 0.950 . S
C213 C212 1.327 . S
C213 C217 1.429 . S
C214 C197 1.574 . S
C214 H208 0.949 . S
C214 C218 1.368 . S
C215 C196 1.429 . S
C215 C209 1.429 . S
C215 C216 1.523 . S
C216 C197 1.368 . S
C216 C210 1.368 . S
C216 C215 1.523 . S
C217 C201 1.429 . S
C217 C213 1.429 . S
C217 C218 1.523 . S
C218 C202 1.368 . S
C218 C214 1.368 . S
C218 C217 1.523 . S
H219 C194 0.950 . S
H220 C196 0.950 . S
H221 C197 0.949 . S
H222 C199 0.950 . S
H223 C201 0.950 . S
C224 C225 1.349 . S
C224 C226 1.327 . S
C224 H249 0.950 . S
C225 C224 1.349 . S
C225 C241 1.349 . S
C226 C224 1.327 . S
C226 C245 1.429 . S
C226 H250 0.950 . S
C227 C244 1.574 1_565 S
C227 C246 1.368 . S
C227 H251 0.949 . S
H228 C232 0.949 . S
C229 C230 1.349 . S
C229 C231 1.327 . S
C229 H252 0.950 . S
C230 C229 1.349 . S
C230 C242 1.349 . S
C231 C229 1.327 . S
C231 C247 1.429 . S
C231 H253 0.950 . S
C232 H228 0.949 . S
C232 C240 1.574 1_545 S
C232 C248 1.368 . S
H233 C241 0.950 . S
H234 C239 0.950 . S
H235 C240 0.949 . S
H236 C242 0.950 . S
H237 C243 0.950 . S
H238 C244 0.949 . S
C239 H234 0.950 . S
C239 C241 1.327 . S
C239 C245 1.429 . S
C240 C232 1.574 1_565 S
C240 H235 0.949 . S
C240 C246 1.368 . S
C241 C225 1.349 . S
C241 H233 0.950 . S
C241 C239 1.327 . S
C242 C230 1.349 . S
C242 H236 0.950 . S
C242 C243 1.327 . S
C243 H237 0.950 . S
C243 C242 1.327 . S
C243 C247 1.429 . S
C244 C227 1.574 1_545 S
C244 H238 0.949 . S
C244 C248 1.368 . S
C245 C226 1.429 . S
C245 C239 1.429 . S
C245 C246 1.523 . S
C246 C227 1.368 . S
C246 C240 1.368 . S
C246 C245 1.523 . S
C247 C231 1.429 . S
C247 C243 1.429 . S
C247 C248 1.523 . S
C248 C232 1.368 . S
C248 C244 1.368 . S
C248 C247 1.523 . S
H249 C224 0.950 . S
H250 C226 0.950 . S
H251 C227 0.949 . S
H252 C229 0.950 . S
H253 C231 0.950 . S
C254 C255 1.349 . S
C254 C256 1.327 . S
C254 H279 0.950 . S
C255 C254 1.349 . S
C255 C271 1.349 . S
C256 C254 1.327 . S
C256 C275 1.429 . S
C256 H280 0.950 . S
C257 C274 1.574 1_455 S
C257 C276 1.368 . S
C257 H281 0.949 . S
H258 C262 0.949 . S
C259 C260 1.349 . S
C259 C261 1.327 . S
C259 H282 0.950 . S
C260 C259 1.349 . S
C260 C272 1.349 . S
C261 C259 1.327 . S
C261 C277 1.429 . S
C261 H283 0.950 . S
C262 H258 0.949 . S
C262 C270 1.574 1_655 S
C262 C278 1.368 . S
H263 C271 0.950 . S
H264 C269 0.950 . S
H265 C270 0.949 . S
H266 C272 0.950 . S
H267 C273 0.950 . S
H268 C274 0.949 . S
C269 H264 0.950 . S
C269 C271 1.327 . S
C269 C275 1.429 . S
C270 C262 1.574 1_455 S
C270 H265 0.949 . S
C270 C276 1.368 . S
C271 C255 1.349 . S
C271 H263 0.950 . S
C271 C269 1.327 . S
C272 C260 1.349 . S
C272 H266 0.950 . S
C272 C273 1.327 . S
C273 H267 0.950 . S
C273 C272 1.327 . S
C273 C277 1.429 . S
C274 C257 1.574 1_655 S
C274 H268 0.949 . S
C274 C278 1.368 . S
C275 C256 1.429 . S
C275 C269 1.429 . S
C275 C276 1.523 . S
C276 C257 1.368 . S
C276 C270 1.368 . S
C276 C275 1.523 . S
C277 C261 1.429 . S
C277 C273 1.429 . S
C277 C278 1.523 . S
C278 C262 1.368 . S
C278 C274 1.368 . S
C278 C277 1.523 . S
H279 C254 0.950 . S
H280 C256 0.950 . S
H281 C257 0.949 . S
H282 C259 0.950 . S
H283 C261 0.950 . S
C284 C285 1.349 . S
C284 C286 1.327 . S
C284 H309 0.950 . S
C285 C284 1.349 . S
C285 C301 1.349 . S
C286 C284 1.327 . S
C286 C305 1.429 . S
C286 H310 0.950 . S
C287 C304 1.574 1_545 S
C287 C306 1.368 . S
C287 H311 0.949 . S
H288 C292 0.949 . S
C289 C290 1.349 . S
C289 C291 1.327 . S
C289 H312 0.950 . S
C290 C289 1.349 . S
C290 C302 1.349 . S
C291 C289 1.327 . S
C291 C307 1.429 . S
C291 H313 0.950 . S
C292 H288 0.949 . S
C292 C300 1.574 1_565 S
C292 C308 1.368 . S
H293 C301 0.950 . S
H294 C299 0.950 . S
H295 C300 0.949 . S
H296 C302 0.950 . S
H297 C303 0.950 . S
H298 C304 0.949 . S
C299 H294 0.950 . S
C299 C301 1.327 . S
C299 C305 1.429 . S
C300 C292 1.574 1_545 S
C300 H295 0.949 . S
C300 C306 1.368 . S
C301 C285 1.349 . S
C301 H293 0.950 . S
C301 C299 1.327 . S
C302 C290 1.349 . S
C302 H296 0.950 . S
C302 C303 1.327 . S
C303 H297 0.950 . S
C303 C302 1.327 . S
C303 C307 1.429 . S
C304 C287 1.574 1_565 S
C304 H298 0.949 . S
C304 C308 1.368 . S
C305 C286 1.429 . S
C305 C299 1.429 . S
C305 C306 1.523 . S
C306 C287 1.368 . S
C306 C300 1.368 . S
C306 C305 1.523 . S
C307 C291 1.429 . S
C307 C303 1.429 . S
C307 C308 1.523 . S
C308 C292 1.368 . S
C308 C304 1.368 . S
C308 C307 1.523 . S
H309 C284 0.950 . S
H310 C286 0.950 . S
H311 C287 0.949 . S
H312 C289 0.950 . S
H313 C291 0.950 . S
C314 C315 1.349 . S
C314 C316 1.327 . S
C314 H339 0.950 . S
C315 C314 1.349 . S
C315 C331 1.349 . S
C316 C314 1.327 . S
C316 C335 1.429 . S
C316 H340 0.950 . S
C317 C334 1.574 1_655 S
C317 C336 1.368 . S
C317 H341 0.949 . S
H318 C322 0.949 . S
C319 C320 1.349 . S
C319 C321 1.327 . S
C319 H342 0.950 . S
C320 C319 1.349 . S
C320 C332 1.349 . S
C321 C319 1.327 . S
C321 C337 1.429 . S
C321 H343 0.950 . S
C322 H318 0.949 . S
C322 C330 1.574 1_455 S
C322 C338 1.368 . S
H323 C331 0.950 . S
H324 C329 0.950 . S
H325 C330 0.949 . S
H326 C332 0.950 . S
H327 C333 0.950 . S
H328 C334 0.949 . S
C329 H324 0.950 . S
C329 C331 1.327 . S
C329 C335 1.429 . S
C330 C322 1.574 1_655 S
C330 H325 0.949 . S
C330 C336 1.368 . S
C331 C315 1.349 . S
C331 H323 0.950 . S
C331 C329 1.327 . S
C332 C320 1.349 . S
C332 H326 0.950 . S
C332 C333 1.327 . S
C333 H327 0.950 . S
C333 C332 1.327 . S
C333 C337 1.429 . S
C334 C317 1.574 1_455 S
C334 H328 0.949 . S
C334 C338 1.368 . S
C335 C316 1.429 . S
C335 C329 1.429 . S
C335 C336 1.523 . S
C336 C317 1.368 . S
C336 C330 1.368 . S
C336 C335 1.523 . S
C337 C321 1.429 . S
C337 C333 1.429 . S
C337 C338 1.523 . S
C338 C322 1.368 . S
C338 C334 1.368 . S
C338 C337 1.523 . S
H339 C314 0.950 . S
H340 C316 0.950 . S
H341 C317 0.949 . S
H342 C319 0.950 . S
H343 C321 0.950 . S
C344 C345 1.349 . S
C344 C346 1.327 . S
C344 H369 0.950 . S
C345 C344 1.349 . S
C345 C361 1.349 . S
C346 C344 1.327 . S
C346 C365 1.429 . S
C346 H370 0.950 . S
C347 C364 1.574 . S
C347 C366 1.368 . S
C347 H371 0.949 . S
H348 C352 0.949 . S
C349 C350 1.349 . S
C349 C351 1.327 . S
C349 H372 0.950 . S
C350 C349 1.349 . S
C350 C362 1.349 . S
C351 C349 1.327 . S
C351 C367 1.429 . S
C351 H373 0.950 . S
C352 H348 0.949 . S
C352 C360 1.574 . S
C352 C368 1.368 . S
H353 C361 0.950 . S
H354 C359 0.950 . S
H355 C360 0.949 . S
H356 C362 0.950 . S
H357 C363 0.950 . S
H358 C364 0.949 . S
C359 H354 0.950 . S
C359 C361 1.327 . S
C359 C365 1.429 . S
C360 C352 1.574 . S
C360 H355 0.949 . S
C360 C366 1.368 . S
C361 C345 1.349 . S
C361 H353 0.950 . S
C361 C359 1.327 . S
C362 C350 1.349 . S
C362 H356 0.950 . S
C362 C363 1.327 . S
C363 H357 0.950 . S
C363 C362 1.327 . S
C363 C367 1.429 . S
C364 C347 1.574 . S
C364 H358 0.949 . S
C364 C368 1.368 . S
C365 C346 1.429 . S
C365 C359 1.429 . S
C365 C366 1.523 . S
C366 C347 1.368 . S
C366 C360 1.368 . S
C366 C365 1.523 . S
C367 C351 1.429 . S
C367 C363 1.429 . S
C367 C368 1.523 . S
C368 C352 1.368 . S
C368 C364 1.368 . S
C368 C367 1.523 . S
H369 C344 0.950 . S
H370 C346 0.950 . S
H371 C347 0.949 . S
H372 C349 0.950 . S
H373 C351 0.950 . S
C374 C375 1.349 . S
C374 C376 1.327 . S
C374 H399 0.950 . S
C375 C374 1.349 . S
C375 C391 1.349 . S
C376 C374 1.327 . S
C376 C395 1.429 . S
C376 H400 0.950 . S
C377 C394 1.574 . S
C377 C396 1.368 . S
C377 H401 0.949 . S
H378 C382 0.949 . S
C379 C380 1.349 . S
C379 C381 1.327 . S
C379 H402 0.950 . S
C380 C379 1.349 . S
C380 C392 1.349 . S
C381 C379 1.327 . S
C381 C397 1.429 . S
C381 H403 0.950 . S
C382 H378 0.949 . S
C382 C390 1.574 . S
C382 C398 1.368 . S
H383 C391 0.950 . S
H384 C389 0.950 . S
H385 C390 0.949 . S
H386 C392 0.950 . S
H387 C393 0.950 . S
H388 C394 0.949 . S
C389 H384 0.950 . S
C389 C391 1.327 . S
C389 C395 1.429 . S
C390 C382 1.574 . S
C390 H385 0.949 . S
C390 C396 1.368 . S
C391 C375 1.349 . S
C391 H383 0.950 . S
C391 C389 1.327 . S
C392 C380 1.349 . S
C392 H386 0.950 . S
C392 C393 1.327 . S
C393 H387 0.950 . S
C393 C392 1.327 . S
C393 C397 1.429 . S
C394 C377 1.574 . S
C394 H388 0.949 . S
C394 C398 1.368 . S
C395 C376 1.429 . S
C395 C389 1.429 . S
C395 C396 1.523 . S
C396 C377 1.368 . S
C396 C390 1.368 . S
C396 C395 1.523 . S
C397 C381 1.429 . S
C397 C393 1.429 . S
C397 C398 1.523 . S
C398 C382 1.368 . S
C398 C394 1.368 . S
C398 C397 1.523 . S
H399 C374 0.950 . S
H400 C376 0.950 . S
H401 C377 0.949 . S
H402 C379 0.950 . S
H403 C381 0.950 . S
C404 C405 1.349 . S
C404 C406 1.327 . S
C404 H429 0.950 . S
C405 C404 1.349 . S
C405 C421 1.349 . S
C406 C404 1.327 . S
C406 C425 1.429 . S
C406 H430 0.950 . S
C407 C424 1.574 . S
C407 C426 1.368 . S
C407 H431 0.949 . S
H408 C412 0.949 . S
C409 C410 1.349 . S
C409 C411 1.327 . S
C409 H432 0.950 . S
C410 C409 1.349 . S
C410 C422 1.349 . S
C411 C409 1.327 . S
C411 C427 1.429 . S
C411 H433 0.950 . S
C412 H408 0.949 . S
C412 C420 1.574 . S
C412 C428 1.368 . S
H413 C421 0.950 . S
H414 C419 0.950 . S
H415 C420 0.949 . S
H416 C422 0.950 . S
H417 C423 0.950 . S
H418 C424 0.949 . S
C419 H414 0.950 . S
C419 C421 1.327 . S
C419 C425 1.429 . S
C420 C412 1.574 . S
C420 H415 0.949 . S
C420 C426 1.368 . S
C421 C405 1.349 . S
C421 H413 0.950 . S
C421 C419 1.327 . S
C422 C410 1.349 . S
C422 H416 0.950 . S
C422 C423 1.327 . S
C423 H417 0.950 . S
C423 C422 1.327 . S
C423 C427 1.429 . S
C424 C407 1.574 . S
C424 H418 0.949 . S
C424 C428 1.368 . S
C425 C406 1.429 . S
C425 C419 1.429 . S
C425 C426 1.523 . S
C426 C407 1.368 . S
C426 C420 1.368 . S
C426 C425 1.523 . S
C427 C411 1.429 . S
C427 C423 1.429 . S
C427 C428 1.523 . S
C428 C412 1.368 . S
C428 C424 1.368 . S
C428 C427 1.523 . S
H429 C404 0.950 . S
H430 C406 0.950 . S
H431 C407 0.949 . S
H432 C409 0.950 . S
H433 C411 0.950 . S
C434 C435 1.349 . S
C434 C436 1.327 . S
C434 H459 0.950 . S
C435 C434 1.349 . S
C435 C451 1.349 . S
C436 C434 1.327 . S
C436 C455 1.429 . S
C436 H460 0.950 . S
C437 C454 1.574 . S
C437 C456 1.368 . S
C437 H461 0.949 . S
H438 C442 0.949 . S
C439 C440 1.349 . S
C439 C441 1.327 . S
C439 H462 0.950 . S
C440 C439 1.349 . S
C440 C452 1.349 . S
C441 C439 1.327 . S
C441 C457 1.429 . S
C441 H463 0.950 . S
C442 H438 0.949 . S
C442 C450 1.574 . S
C442 C458 1.368 . S
H443 C451 0.950 . S
H444 C449 0.950 . S
H445 C450 0.949 . S
H446 C452 0.950 . S
H447 C453 0.950 . S
H448 C454 0.949 . S
C449 H444 0.950 . S
C449 C451 1.327 . S
C449 C455 1.429 . S
C450 C442 1.574 . S
C450 H445 0.949 . S
C450 C456 1.368 . S
C451 C435 1.349 . S
C451 H443 0.950 . S
C451 C449 1.327 . S
C452 C440 1.349 . S
C452 H446 0.950 . S
C452 C453 1.327 . S
C453 H447 0.950 . S
C453 C452 1.327 . S
C453 C457 1.429 . S
C454 C437 1.574 . S
C454 H448 0.949 . S
C454 C458 1.368 . S
C455 C436 1.429 . S
C455 C449 1.429 . S
C455 C456 1.523 . S
C456 C437 1.368 . S
C456 C450 1.368 . S
C456 C455 1.523 . S
C457 C441 1.429 . S
C457 C453 1.429 . S
C457 C458 1.523 . S
C458 C442 1.368 . S
C458 C454 1.368 . S
C458 C457 1.523 . S
H459 C434 0.950 . S
H460 C436 0.950 . S
H461 C437 0.949 . S
H462 C439 0.950 . S
H463 C441 0.950 . S
C464 C465 1.349 . S
C464 C466 1.327 . S
C464 H489 0.950 . S
C465 C464 1.349 . S
C465 C481 1.349 . S
C466 C464 1.327 . S
C466 C485 1.429 . S
C466 H490 0.950 . S
C467 C484 1.574 . S
C467 C486 1.368 . S
C467 H491 0.949 . S
H468 C472 0.949 . S
C469 C470 1.349 . S
C469 C471 1.327 . S
C469 H492 0.950 . S
C470 C469 1.349 . S
C470 C482 1.349 . S
C471 C469 1.327 . S
C471 C487 1.429 . S
C471 H493 0.950 . S
C472 H468 0.949 . S
C472 C480 1.574 . S
C472 C488 1.368 . S
H473 C481 0.950 . S
H474 C479 0.950 . S
H475 C480 0.949 . S
H476 C482 0.950 . S
H477 C483 0.950 . S
H478 C484 0.949 . S
C479 H474 0.950 . S
C479 C481 1.327 . S
C479 C485 1.429 . S
C480 C472 1.574 . S
C480 H475 0.949 . S
C480 C486 1.368 . S
C481 C465 1.349 . S
C481 H473 0.950 . S
C481 C479 1.327 . S
C482 C470 1.349 . S
C482 H476 0.950 . S
C482 C483 1.327 . S
C483 H477 0.950 . S
C483 C482 1.327 . S
C483 C487 1.429 . S
C484 C467 1.574 . S
C484 H478 0.949 . S
C484 C488 1.368 . S
C485 C466 1.429 . S
C485 C479 1.429 . S
C485 C486 1.523 . S
C486 C467 1.368 . S
C486 C480 1.368 . S
C486 C485 1.523 . S
C487 C471 1.429 . S
C487 C483 1.429 . S
C487 C488 1.523 . S
C488 C472 1.368 . S
C488 C484 1.368 . S
C488 C487 1.523 . S
H489 C464 0.950 . S
H490 C466 0.950 . S
H491 C467 0.949 . S
H492 C469 0.950 . S
H493 C471 0.950 . S
C494 C495 1.349 . S
C494 C496 1.327 . S
C494 H519 0.950 . S
C495 C494 1.349 . S
C495 C511 1.349 . S
C496 C494 1.327 . S
C496 C515 1.429 . S
C496 H520 0.950 . S
C497 C514 1.574 . S
C497 C516 1.368 . S
C497 H521 0.949 . S
H498 C502 0.949 . S
C499 C500 1.349 . S
C499 C501 1.327 . S
C499 H522 0.950 . S
C500 C499 1.349 . S
C500 C512 1.349 . S
C501 C499 1.327 . S
C501 C517 1.429 . S
C501 H523 0.950 . S
C502 H498 0.949 . S
C502 C510 1.574 . S
C502 C518 1.368 . S
H503 C511 0.950 . S
H504 C509 0.950 . S
H505 C510 0.949 . S
H506 C512 0.950 . S
H507 C513 0.950 . S
H508 C514 0.949 . S
C509 H504 0.950 . S
C509 C511 1.327 . S
C509 C515 1.429 . S
C510 C502 1.574 . S
C510 H505 0.949 . S
C510 C516 1.368 . S
C511 C495 1.349 . S
C511 H503 0.950 . S
C511 C509 1.327 . S
C512 C500 1.349 . S
C512 H506 0.950 . S
C512 C513 1.327 . S
C513 H507 0.950 . S
C513 C512 1.327 . S
C513 C517 1.429 . S
C514 C497 1.574 . S
C514 H508 0.949 . S
C514 C518 1.368 . S
C515 C496 1.429 . S
C515 C509 1.429 . S
C515 C516 1.523 . S
C516 C497 1.368 . S
C516 C510 1.368 . S
C516 C515 1.523 . S
C517 C501 1.429 . S
C517 C513 1.429 . S
C517 C518 1.523 . S
C518 C502 1.368 . S
C518 C514 1.368 . S
C518 C517 1.523 . S
H519 C494 0.950 . S
H520 C496 0.950 . S
H521 C497 0.949 . S
H522 C499 0.950 . S
H523 C501 0.950 . S
C524 C525 1.349 . S
C524 C526 1.327 . S
C524 H549 0.950 . S
C525 C524 1.349 . S
C525 C541 1.349 . S
C526 C524 1.327 . S
C526 C545 1.429 . S
C526 H550 0.950 . S
C527 C544 1.574 . S
C527 C546 1.368 . S
C527 H551 0.949 . S
H528 C532 0.949 . S
C529 C530 1.349 . S
C529 C531 1.327 . S
C529 H552 0.950 . S
C530 C529 1.349 . S
C530 C542 1.349 . S
C531 C529 1.327 . S
C531 C547 1.429 . S
C531 H553 0.950 . S
C532 H528 0.949 . S
C532 C540 1.574 . S
C532 C548 1.368 . S
H533 C541 0.950 . S
H534 C539 0.950 . S
H535 C540 0.949 . S
H536 C542 0.950 . S
H537 C543 0.950 . S
H538 C544 0.949 . S
C539 H534 0.950 . S
C539 C541 1.327 . S
C539 C545 1.429 . S
C540 C532 1.574 . S
C540 H535 0.949 . S
C540 C546 1.368 . S
C541 C525 1.349 . S
C541 H533 0.950 . S
C541 C539 1.327 . S
C542 C530 1.349 . S
C542 H536 0.950 . S
C542 C543 1.327 . S
C543 H537 0.950 . S
C543 C542 1.327 . S
C543 C547 1.429 . S
C544 C527 1.574 . S
C544 H538 0.949 . S
C544 C548 1.368 . S
C545 C526 1.429 . S
C545 C539 1.429 . S
C545 C546 1.523 . S
C546 C527 1.368 . S
C546 C540 1.368 . S
C546 C545 1.523 . S
C547 C531 1.429 . S
C547 C543 1.429 . S
C547 C548 1.523 . S
C548 C532 1.368 . S
C548 C544 1.368 . S
C548 C547 1.523 . S
H549 C524 0.950 . S
H550 C526 0.950 . S
H551 C527 0.949 . S
H552 C529 0.950 . S
H553 C531 0.950 . S
C554 C555 1.349 . S
C554 C556 1.327 . S
C554 H579 0.950 . S
C555 C554 1.349 . S
C555 C571 1.349 . S
C556 C554 1.327 . S
C556 C575 1.429 . S
C556 H580 0.950 . S
C557 C574 1.574 . S
C557 C576 1.368 . S
C557 H581 0.949 . S
H558 C562 0.949 . S
C559 C560 1.349 . S
C559 C561 1.327 . S
C559 H582 0.950 . S
C560 C559 1.349 . S
C560 C572 1.349 . S
C561 C559 1.327 . S
C561 C577 1.429 . S
C561 H583 0.950 . S
C562 H558 0.949 . S
C562 C570 1.574 . S
C562 C578 1.368 . S
H563 C571 0.950 . S
H564 C569 0.950 . S
H565 C570 0.949 . S
H566 C572 0.950 . S
H567 C573 0.950 . S
H568 C574 0.949 . S
C569 H564 0.950 . S
C569 C571 1.327 . S
C569 C575 1.429 . S
C570 C562 1.574 . S
C570 H565 0.949 . S
C570 C576 1.368 . S
C571 C555 1.349 . S
C571 H563 0.950 . S
C571 C569 1.327 . S
C572 C560 1.349 . S
C572 H566 0.950 . S
C572 C573 1.327 . S
C573 H567 0.950 . S
C573 C572 1.327 . S
C573 C577 1.429 . S
C574 C557 1.574 . S
C574 H568 0.949 . S
C574 C578 1.368 . S
C575 C556 1.429 . S
C575 C569 1.429 . S
C575 C576 1.523 . S
C576 C557 1.368 . S
C576 C570 1.368 . S
C576 C575 1.523 . S
C577 C561 1.429 . S
C577 C573 1.429 . S
C577 C578 1.523 . S
C578 C562 1.368 . S
C578 C574 1.368 . S
C578 C577 1.523 . S
H579 C554 0.950 . S
H580 C556 0.950 . S
H581 C557 0.949 . S
H582 C559 0.950 . S
H583 C561 0.950 . S
C105 C5 1.418 . S
C110 C44 1.418 . S
C135 C10 1.445 . S
C140 C23 1.445 . S
C165 C18 1.418 . S
C170 C31 1.418 . S
C195 C49 1.445 . S
C200 C36 1.445 . S
C225 C57 1.418 . S
C230 C96 1.418 . S
C255 C75 1.445 . S
C260 C62 1.445 . S
C285 C83 1.418 . S
C290 C70 1.418 . S
C315 C101 1.445 . S
C320 C88 1.445 . S
C345 C86 1.382 . S
C350 C0 1.382 . S
C375 C21 1.382 . S
C380 C91 1.382 . S
C405 C60 1.382 . S
C410 C26 1.382 . S
C435 C65 1.382 . S
C440 C47 1.382 . S
C465 C73 1.382 . S
C470 C39 1.382 . S
C495 C8 1.382 . S
C500 C78 1.382 . S
C525 C13 1.382 . S
C530 C99 1.382 . S
C555 C34 1.382 . S
C560 C52 1.382 . S
