# Generated by pormake.
# Topology uon, (4)-cn, num edge types: 1
# Building blocks:
#     Node 0, Type 0, BuildingBlock: NAWXER_clean_sbu_0, # of connection points: 4
#     Node 1, Type 0, BuildingBlock: NAWXER_clean_sbu_0, # of connection points: 4
#     Node 2, Type 0, BuildingBlock: NAWXER_clean_sbu_0, # of connection points: 4
#     Node 3, Type 0, BuildingBlock: NAWXER_clean_sbu_0, # of connection points: 4
#     Node 4, Type 0, BuildingBlock: NAWXER_clean_sbu_0, # of connection points: 4
#     Node 5, Type 0, BuildingBlock: NAWXER_clean_sbu_0, # of connection points: 4
#     Edge 6, Type (0, 0), BuildingBlock: XIVTED_clean_linker_0, # of connection points: 2
#     Edge 7, Type (0, 0), BuildingBlock: XIVTED_clean_linker_0, # of connection points: 2
#     Edge 8, Type (0, 0), BuildingBlock: XIVTED_clean_linker_0, # of connection points: 2
#     Edge 9, Type (0, 0), BuildingBlock: XIVTED_clean_linker_0, # of connection points: 2
#     Edge 10, Type (0, 0), BuildingBlock: XIVTED_clean_linker_0, # of connection points: 2
#     Edge 11, Type (0, 0), BuildingBlock: XIVTED_clean_linker_0, # of connection points: 2
#     Edge 12, Type (0, 0), BuildingBlock: XIVTED_clean_linker_0, # of connection points: 2
#     Edge 13, Type (0, 0), BuildingBlock: XIVTED_clean_linker_0, # of connection points: 2
#     Edge 14, Type (0, 0), BuildingBlock: XIVTED_clean_linker_0, # of connection points: 2
#     Edge 15, Type (0, 0), BuildingBlock: XIVTED_clean_linker_0, # of connection points: 2
#     Edge 16, Type (0, 0), BuildingBlock: XIVTED_clean_linker_0, # of connection points: 2
#     Edge 17, Type (0, 0), BuildingBlock: XIVTED_clean_linker_0, # of connection points: 2
# Relax obj value: 0.135
# Max RMSD: 0.134
# Mean RMSD: 0.134
data_MOF--net-uon--node1-NAWXER_clean_sbu_0--edge1-XIVTED_clean_linker_0
_symmetry_space_group_name_H-M    P1
_symmetry_Int_Tables_number       1
_symmetry_cell_setting            triclinic
loop_
_symmetry_equiv_pos_as_xyz
'x, y, z'
_cell_length_a     33.76661
_cell_length_b     33.761598
_cell_length_c     21.401336
_cell_angle_alpha  90.170784
_cell_angle_beta   89.52145
_cell_angle_gamma 119.92773
loop_
_atom_site_label
_atom_site_type_symbol
_atom_site_fract_x
_atom_site_fract_y
_atom_site_fract_z
_atom_type_partial_charge
C0 C 0.13877 0.36928 0.02991 0.0
C1 C 0.28483 0.48479 0.94305 0.0
O2 O 0.171 0.37969 0.06949 0.0
Zn3 Zn 0.24493 0.42786 0.0719 0.0
O4 O 0.14829 0.38946 0.97748 0.0
Zn5 Zn 0.2125 0.42791 0.99054 0.0
O6 O 0.23753 0.37912 0.99349 0.0
O7 O 0.27018 0.38884 0.08531 0.0
O8 O 0.24495 0.46593 0.92054 0.0
O9 O 0.29021 0.47463 0.99909 0.0
O10 O 0.25097 0.46638 0.1415 0.0
O11 O 0.21459 0.47519 0.06275 0.0
C12 C 0.25919 0.36848 0.0331 0.0
C13 C 0.23022 0.4855 0.11867 0.0
C14 C 0.81372 0.15435 0.38584 0.0
C15 C 0.84802 0.30638 0.31003 0.0
O16 O 0.84353 0.19205 0.41014 0.0
Zn17 Zn 0.83127 0.23244 0.3577 0.0
O18 O 0.78821 0.15462 0.34212 0.0
Zn19 Zn 0.77672 0.20048 0.28812 0.0
O20 O 0.79246 0.18838 0.20375 0.0
O21 O 0.85063 0.21879 0.26934 0.0
O22 O 0.81486 0.2721 0.28351 0.0
O23 O 0.86695 0.30027 0.35748 0.0
O24 O 0.76637 0.21718 0.39174 0.0
O25 O 0.71546 0.18743 0.31681 0.0
C26 C 0.83457 0.20293 0.21532 0.0
C27 C 0.7251 0.20027 0.37344 0.0
C28 C 0.67234 0.85017 0.57024 0.0
C29 C 0.54697 0.72298 0.68882 0.0
O30 O 0.64851 0.8097 0.54869 0.0
Zn31 Zn 0.60855 0.78405 0.62282 0.0
O32 O 0.66344 0.85979 0.62453 0.0
Zn33 Zn 0.6182 0.83002 0.70136 0.0
O34 O 0.66224 0.83745 0.76608 0.0
O35 O 0.65704 0.79042 0.69037 0.0
O36 O 0.56692 0.76164 0.71654 0.0
O37 O 0.55874 0.71989 0.63307 0.0
O38 O 0.57314 0.82018 0.61512 0.0
O39 O 0.58357 0.86318 0.69805 0.0
C40 C 0.67508 0.81115 0.74151 0.0
C41 C 0.56604 0.84912 0.64431 0.0
C42 C 0.83473 0.67238 0.9483 0.0
C43 C 0.85211 0.55479 0.06223 0.0
O44 O 0.85756 0.65429 0.92732 0.0
Zn45 Zn 0.84392 0.61169 0.99747 0.0
O46 O 0.81282 0.65848 1.00004 0.0
Zn47 Zn 0.79875 0.61068 0.07276 0.0
O48 O 0.82663 0.65257 0.14378 0.0
O49 O 0.87635 0.65881 0.07095 0.0
O50 O 0.82594 0.56742 0.08796 0.0
O51 O 0.86887 0.57006 1.00817 0.0
O52 O 0.77388 0.56769 0.98133 0.0
O53 O 0.73247 0.56823 0.0611 0.0
C54 C 0.86762 0.67171 0.12297 0.0
C55 C 0.73476 0.55399 1.00667 0.0
C56 C 0.31504 0.84981 0.41879 0.0
C57 C 0.16538 0.80924 0.32873 0.0
O58 O 0.31012 0.8633 0.36532 0.0
Zn59 Zn 0.24233 0.82933 0.36517 0.0
O60 O 0.27993 0.82078 0.4495 0.0
Zn61 Zn 0.20832 0.78375 0.44502 0.0
O62 O 0.19484 0.71985 0.43503 0.0
O63 O 0.22625 0.76117 0.35042 0.0
O64 O 0.16423 0.78902 0.37979 0.0
O65 O 0.20376 0.83565 0.30239 0.0
O66 O 0.22821 0.85928 0.44311 0.0
O67 O 0.19532 0.8095 0.52007 0.0
C68 C 0.20872 0.72273 0.37876 0.0
C69 C 0.21103 0.84983 0.49823 0.0
C70 C 0.48972 0.3056 0.76123 0.0
C71 C 0.3732 0.15345 0.68541 0.0
O72 O 0.46475 0.29938 0.71371 0.0
Zn73 Zn 0.43311 0.23161 0.7137 0.0
O74 O 0.48882 0.27144 0.78801 0.0
Zn75 Zn 0.45576 0.19981 0.78369 0.0
O76 O 0.50431 0.18706 0.75545 0.0
O77 O 0.4831 0.21667 0.6802 0.0
O78 O 0.39884 0.15379 0.72939 0.0
O79 O 0.38088 0.19114 0.66107 0.0
O80 O 0.39987 0.21785 0.80183 0.0
O81 O 0.42763 0.18767 0.86797 0.0
C82 C 0.50759 0.19992 0.69876 0.0
C83 C 0.39997 0.20207 0.85602 0.0
H84 H 0.22892 0.30672 0.93687 0.0
H85 H 0.42451 0.24414 0.97014 0.0
H86 H 0.32077 0.35186 0.09362 0.0
H87 H 0.3105 0.17472 0.84562 0.0
H88 H 0.38365 0.27746 0.02462 0.0
H89 H 0.25558 0.2538 0.90819 0.0
C90 C 0.25452 0.30533 0.96548 0.0
C91 C 0.27285 0.33407 0.0174 0.0
C92 C 0.36694 0.25377 0.98664 0.0
C93 C 0.30391 0.2736 0.98465 0.0
C94 C 0.38999 0.23417 0.95627 0.0
C95 C 0.37066 0.2065 0.90364 0.0
C96 C 0.3247 0.24592 0.96345 0.0
C97 C 0.32644 0.1958 0.88624 0.0
C98 C 0.26961 0.27489 0.94931 0.0
C99 C 0.30576 0.33045 0.05303 0.0
N100 N 0.30535 0.21614 0.91523 0.0
N101 N 0.32067 0.30127 0.03554 0.0
H102 H 0.8957 0.1742 0.22497 0.0
H103 H 0.06111 0.35285 0.9683 0.0
H104 H 0.85255 0.24568 0.10146 0.0
H105 H 0.10645 0.30832 0.1275 0.0
H106 H 0.9817 0.3003 0.99907 0.0
H107 H 0.96862 0.20688 0.16901 0.0
C108 C 0.90095 0.19533 0.18425 0.0
C109 C 0.86804 0.20706 0.16747 0.0
C110 C 1.00905 0.30174 0.02683 0.0
C111 C 0.95222 0.24625 0.10485 0.0
C112 C 0.05443 0.33171 1.00939 0.0
C113 C 0.09062 0.33536 0.04576 0.0
C114 C 0.99968 0.27476 0.08064 0.0
C115 C 0.07976 0.30704 0.0984 0.0
C116 C 0.94285 0.21456 0.15295 0.0
C117 C 0.8768 0.23527 0.11518 0.0
N118 N 0.03535 0.27809 0.11431 0.0
N119 N 0.91849 0.25465 0.0863 0.0
H120 H 0.84198 0.13261 0.49504 0.0
H121 H 0.67425 0.86538 0.44362 0.0
H122 H 0.76844 0.07326 0.32461 0.0
H123 H 0.74887 0.92376 0.61338 0.0
H124 H 0.72029 0.93959 0.39176 0.0
H125 H 0.81933 0.05546 0.53272 0.0
C126 C 0.8217 0.10352 0.46524 0.0
C127 C 0.80639 0.1094 0.40717 0.0
C128 C 0.72729 0.9359 0.44002 0.0
C129 C 0.78021 0.02114 0.44976 0.0
C130 C 0.70132 0.89335 0.46931 0.0
C131 C 0.70744 0.88866 0.53294 0.0
C132 C 0.7593 0.97379 0.47487 0.0
C133 C 0.74268 0.92619 0.56434 0.0
C134 C 0.80868 0.05945 0.4867 0.0
C135 C 0.7803 0.07039 0.37031 0.0
N136 N 0.76672 0.9673 0.53537 0.0
N137 N 0.76765 0.02806 0.39245 0.0
H138 H 0.83416 0.68331 0.8208 0.0
H139 H 0.70995 0.83121 0.86118 0.0
H140 H 0.82058 0.73858 0.9964 0.0
H141 H 0.72044 0.77239 0.68678 0.0
H142 H 0.76196 0.80886 0.90838 0.0
H143 H 0.80542 0.72802 0.76708 0.0
C144 C 0.82638 0.70581 0.84777 0.0
C145 C 0.82914 0.70683 0.91307 0.0
C146 C 0.75322 0.80132 0.85956 0.0
C147 C 0.79545 0.7572 0.85257 0.0
C148 C 0.72355 0.81413 0.83269 0.0
C149 C 0.71016 0.80298 0.77032 0.0
C150 C 0.76955 0.7773 0.8237 0.0
C151 C 0.72909 0.78099 0.73542 0.0
C152 C 0.80954 0.731 0.8173 0.0
C153 C 0.81827 0.7363 0.94594 0.0
N154 N 0.75737 0.76853 0.76267 0.0
N155 N 0.80133 0.75978 0.91552 0.0
H156 H 0.94497 0.7426 0.07559 0.0
H157 H 0.08269 0.77026 0.38751 0.0
H158 H 0.88108 0.67811 0.25019 0.0
H159 H 0.14715 0.82814 0.2101 0.0
H160 H 1.00862 0.7481 0.34261 0.0
H161 H 1.01776 0.78657 0.12894 0.0
C162 C 0.94611 0.73855 0.12565 0.0
C163 C 0.90707 0.70636 0.15853 0.0
C164 C 0.03888 0.766 0.31351 0.0
C165 C 0.99069 0.7559 0.21969 0.0
C166 C 0.08137 0.77861 0.33902 0.0
C167 C 0.12132 0.80048 0.30217 0.0
C168 C 0.03593 0.77498 0.25038 0.0
C169 C 0.1173 0.81103 0.24007 0.0
C170 C 0.98778 0.7635 0.15598 0.0
C171 C 0.91034 0.70262 0.2232 0.0
N172 N 0.07526 0.79766 0.21589 0.0
N173 N 0.95171 0.72652 0.25155 0.0
H174 H 0.32321 0.13213 0.57639 0.0
H175 H 0.2255 0.8646 0.62471 0.0
H176 H 0.33848 0.07187 0.74554 0.0
H177 H 0.2082 0.92395 0.45632 0.0
H178 H 0.25385 0.93853 0.67722 0.0
H179 H 0.26936 0.05514 0.53806 0.0
C180 C 0.31479 0.10286 0.60577 0.0
C181 C 0.33605 0.10847 0.66369 0.0
C182 C 0.24292 0.93512 0.62912 0.0
C183 C 0.2747 0.02037 0.62033 0.0
C184 C 0.22626 0.89273 0.59946 0.0
C185 C 0.21504 0.88837 0.536 0.0
C186 C 0.24847 0.97319 0.59483 0.0
C187 C 0.21713 0.9261 0.50519 0.0
C188 C 0.28409 0.05888 0.58393 0.0
C189 C 0.32365 0.06923 0.69999 0.0
N190 N 0.23426 0.96704 0.53451 0.0
N191 N 0.2943 0.02699 0.67748 0.0
H192 H 0.20687 0.64504 0.42426 0.0
H193 H 0.19945 0.54333 0.08159 0.0
H194 H 0.20316 0.71034 0.25321 0.0
H195 H 0.2447 0.50219 0.24429 0.0
H196 H 0.18916 0.59744 0.14661 0.0
H197 H 0.20879 0.58451 0.36176 0.0
C198 C 0.20588 0.64634 0.37377 0.0
C199 C 0.20519 0.68296 0.34395 0.0
C200 C 0.20129 0.5765 0.16809 0.0
C201 C 0.20721 0.61407 0.27237 0.0
C202 C 0.20715 0.54557 0.13094 0.0
C203 C 0.22332 0.51836 0.15726 0.0
C204 C 0.21114 0.57998 0.2323 0.0
C205 C 0.23254 0.52273 0.22174 0.0
C206 C 0.20727 0.61202 0.33812 0.0
C207 C 0.20417 0.68304 0.27827 0.0
N208 N 0.22629 0.55284 0.25699 0.0
N209 N 0.20521 0.6493 0.24487 0.0
H210 H 0.58026 0.18534 0.71921 0.0
H211 H 0.63768 0.18512 0.3533 0.0
H212 H 0.50424 0.20352 0.57189 0.0
H213 H 0.7323 0.20418 0.50031 0.0
H214 H 0.58281 0.18097 0.43301 0.0
H215 H 0.63117 0.18137 0.63959 0.0
C216 C 0.5741 0.18824 0.67031 0.0
C217 C 0.53813 0.19519 0.65244 0.0
C218 C 0.61559 0.18593 0.44768 0.0
C219 C 0.59591 0.19032 0.56106 0.0
C220 C 0.64683 0.18818 0.40217 0.0
C221 C 0.68986 0.19542 0.41991 0.0
C222 C 0.62722 0.19036 0.51142 0.0
C223 C 0.69977 0.19907 0.48418 0.0
C224 C 0.60321 0.1861 0.62485 0.0
C225 C 0.53179 0.19864 0.58813 0.0
N226 N 0.66882 0.19649 0.52739 0.0
N227 N 0.56026 0.19617 0.545 0.0
H228 H 0.5417 0.71007 0.81412 0.0
H229 H 0.28645 0.50134 0.81746 0.0
H230 H 0.47025 0.64588 0.64437 0.0
H231 H 0.37383 0.54196 0.97886 0.0
H232 H 0.35158 0.5551 0.75352 0.0
H233 H 0.47965 0.64983 0.87485 0.0
C234 C 0.51297 0.68302 0.78951 0.0
C235 C 0.5111 0.68316 0.72395 0.0
C236 C 0.35656 0.55209 0.80283 0.0
C237 C 0.43921 0.614 0.79378 0.0
C238 C 0.31932 0.52157 0.83959 0.0
C239 C 0.32449 0.51722 0.90395 0.0
C240 C 0.39937 0.57904 0.83056 0.0
C241 C 0.36809 0.54417 0.92962 0.0
C242 C 0.47754 0.64853 0.82435 0.0
C243 C 0.47315 0.64701 0.69476 0.0
N244 N 0.40367 0.57411 0.89301 0.0
N245 N 0.43837 0.61415 0.72993 0.0
H246 H 0.88401 0.498 0.01994 0.0
H247 H 0.86329 0.38817 0.36039 0.0
H248 H 0.84604 0.54236 0.18795 0.0
H249 H 0.86985 0.32494 0.1884 0.0
H250 H 0.87474 0.45526 0.30019 0.0
H251 H 0.89551 0.44379 0.08319 0.0
C252 C 0.87854 0.49667 0.07 0.0
C253 C 0.86328 0.52418 0.09842 0.0
C254 C 0.87454 0.42702 0.27581 0.0
C255 C 0.87677 0.46283 0.1711 0.0
C256 C 0.8685 0.38906 0.31029 0.0
C257 C 0.86556 0.35117 0.27917 0.0
C258 C 0.87784 0.42689 0.21004 0.0
C259 C 0.87176 0.35358 0.21399 0.0
C260 C 0.88504 0.46576 0.10612 0.0
C261 C 0.85697 0.52121 0.16371 0.0
N262 N 0.87723 0.39052 0.18156 0.0
N263 N 0.8635 0.49104 0.19763 0.0
H264 H 0.33331 0.86911 0.54109 0.0
H265 H 0.56394 0.86193 0.52016 0.0
H266 H 0.39804 0.86916 0.36662 0.0
H267 H 0.50547 0.87375 0.69424 0.0
H268 H 0.51019 0.87628 0.46324 0.0
H269 H 0.40163 0.88282 0.59687 0.0
C270 C 0.36239 0.8728 0.5144 0.0
C271 C 0.3599 0.86748 0.44916 0.0
C272 C 0.50936 0.87643 0.51383 0.0
C273 C 0.4382 0.88241 0.5131 0.0
C274 C 0.54002 0.86815 0.54649 0.0
C275 C 0.53868 0.86598 0.6121 0.0
C276 C 0.4764 0.88193 0.5468 0.0
C277 C 0.50753 0.87497 0.64372 0.0
C278 C 0.40141 0.88062 0.54637 0.0
C279 C 0.39859 0.87302 0.41689 0.0
N280 N 0.47703 0.88178 0.61069 0.0
N281 N 0.43593 0.87938 0.44935 0.0
H282 H 0.48232 0.32501 0.8812 0.0
H283 H 0.73005 0.544 0.88067 0.0
H284 H 0.55962 0.38615 0.71294 0.0
H285 H 0.64578 0.49525 0.04667 0.0
H286 H 0.66539 0.49093 0.81803 0.0
H287 H 0.53746 0.39129 0.94087 0.0
C288 C 0.51043 0.35316 0.85661 0.0
C289 C 0.51645 0.35036 0.79207 0.0
C290 C 0.66072 0.49192 0.86801 0.0
C291 C 0.58063 0.42577 0.86046 0.0
C292 C 0.69779 0.52211 0.90411 0.0
C293 C 0.69362 0.52365 0.96941 0.0
C294 C 0.61887 0.4623 0.89711 0.0
C295 C 0.65067 0.49503 0.99664 0.0
C296 C 0.54203 0.39086 0.89078 0.0
C297 C 0.55355 0.38731 0.76249 0.0
N298 N 0.6151 0.46507 0.96044 0.0
N299 N 0.58469 0.42323 0.79713 0.0
loop_
_geom_bond_atom_site_label_1
_geom_bond_atom_site_label_2
_geom_bond_distance
_geom_bond_site_symmetry_2
_ccdc_geom_bond_type
C0 O2 1.247 . S
C0 O4 1.258 . S
C1 O8 1.247 . S
C1 O9 1.258 1_556 S
O2 C0 1.247 . S
O2 Zn3 2.028 . S
Zn3 O2 2.028 . S
Zn3 O7 2.035 . S
Zn3 O9 2.035 . S
Zn3 O10 2.028 . S
O4 C0 1.258 . S
O4 Zn5 2.035 1_554 S
Zn5 O4 2.035 1_556 S
Zn5 O6 2.028 . S
Zn5 O8 2.028 . S
Zn5 O11 2.035 1_556 S
O6 Zn5 2.028 . S
O6 C12 1.247 . S
O7 Zn3 2.035 . S
O7 C12 1.258 1_554 S
O8 C1 1.247 . S
O8 Zn5 2.028 . S
O9 C1 1.258 1_554 S
O9 Zn3 2.035 . S
O10 Zn3 2.028 . S
O10 C13 1.247 . S
O11 Zn5 2.035 1_554 S
O11 C13 1.258 . S
C12 O6 1.247 . S
C12 O7 1.258 1_556 S
C13 O10 1.247 . S
C13 O11 1.258 . S
C14 O16 1.247 . S
C14 O18 1.258 . S
C15 O22 1.247 . S
C15 O23 1.258 . S
O16 C14 1.247 . S
O16 Zn17 2.028 . S
Zn17 O16 2.028 . S
Zn17 O21 2.035 . S
Zn17 O23 2.035 . S
Zn17 O24 2.028 . S
O18 C14 1.258 . S
O18 Zn19 2.035 . S
Zn19 O18 2.035 . S
Zn19 O20 2.028 . S
Zn19 O22 2.028 . S
Zn19 O25 2.035 . S
O20 Zn19 2.028 . S
O20 C26 1.247 . S
O21 Zn17 2.035 . S
O21 C26 1.258 . S
O22 C15 1.247 . S
O22 Zn19 2.028 . S
O23 C15 1.258 . S
O23 Zn17 2.035 . S
O24 Zn17 2.028 . S
O24 C27 1.247 . S
O25 Zn19 2.035 . S
O25 C27 1.258 . S
C26 O20 1.247 . S
C26 O21 1.258 . S
C27 O24 1.247 . S
C27 O25 1.258 . S
C28 O30 1.247 . S
C28 O32 1.258 . S
C29 O36 1.247 . S
C29 O37 1.258 . S
O30 C28 1.247 . S
O30 Zn31 2.028 . S
Zn31 O30 2.028 . S
Zn31 O35 2.035 . S
Zn31 O37 2.035 . S
Zn31 O38 2.028 . S
O32 C28 1.258 . S
O32 Zn33 2.035 . S
Zn33 O32 2.035 . S
Zn33 O34 2.028 . S
Zn33 O36 2.028 . S
Zn33 O39 2.035 . S
O34 Zn33 2.028 . S
O34 C40 1.247 . S
O35 Zn31 2.035 . S
O35 C40 1.258 . S
O36 C29 1.247 . S
O36 Zn33 2.028 . S
O37 C29 1.258 . S
O37 Zn31 2.035 . S
O38 Zn31 2.028 . S
O38 C41 1.247 . S
O39 Zn33 2.035 . S
O39 C41 1.258 . S
C40 O34 1.247 . S
C40 O35 1.258 . S
C41 O38 1.247 . S
C41 O39 1.258 . S
C42 O44 1.247 . S
C42 O46 1.258 1_556 S
C43 O50 1.247 . S
C43 O51 1.258 . S
O44 C42 1.247 . S
O44 Zn45 2.028 . S
Zn45 O44 2.028 . S
Zn45 O49 2.035 1_556 S
Zn45 O51 2.035 1_556 S
Zn45 O52 2.028 . S
O46 C42 1.258 1_554 S
O46 Zn47 2.035 . S
Zn47 O46 2.035 . S
Zn47 O48 2.028 . S
Zn47 O50 2.028 . S
Zn47 O53 2.035 . S
O48 Zn47 2.028 . S
O48 C54 1.247 . S
O49 Zn45 2.035 1_554 S
O49 C54 1.258 . S
O50 C43 1.247 . S
O50 Zn47 2.028 . S
O51 C43 1.258 . S
O51 Zn45 2.035 1_554 S
O52 Zn45 2.028 . S
O52 C55 1.247 . S
O53 Zn47 2.035 . S
O53 C55 1.258 1_554 S
C54 O48 1.247 . S
C54 O49 1.258 . S
C55 O52 1.247 . S
C55 O53 1.258 1_556 S
C56 O58 1.247 . S
C56 O60 1.258 . S
C57 O64 1.247 . S
C57 O65 1.258 . S
O58 C56 1.247 . S
O58 Zn59 2.028 . S
Zn59 O58 2.028 . S
Zn59 O63 2.035 . S
Zn59 O65 2.035 . S
Zn59 O66 2.028 . S
O60 C56 1.258 . S
O60 Zn61 2.035 . S
Zn61 O60 2.035 . S
Zn61 O62 2.028 . S
Zn61 O64 2.028 . S
Zn61 O67 2.035 . S
O62 Zn61 2.028 . S
O62 C68 1.247 . S
O63 Zn59 2.035 . S
O63 C68 1.258 . S
O64 C57 1.247 . S
O64 Zn61 2.028 . S
O65 C57 1.258 . S
O65 Zn59 2.035 . S
O66 Zn59 2.028 . S
O66 C69 1.247 . S
O67 Zn61 2.035 . S
O67 C69 1.258 . S
C68 O62 1.247 . S
C68 O63 1.258 . S
C69 O66 1.247 . S
C69 O67 1.258 . S
C70 O72 1.247 . S
C70 O74 1.258 . S
C71 O78 1.247 . S
C71 O79 1.258 . S
O72 C70 1.247 . S
O72 Zn73 2.028 . S
Zn73 O72 2.028 . S
Zn73 O77 2.035 . S
Zn73 O79 2.035 . S
Zn73 O80 2.028 . S
O74 C70 1.258 . S
O74 Zn75 2.035 . S
Zn75 O74 2.035 . S
Zn75 O76 2.028 . S
Zn75 O78 2.028 . S
Zn75 O81 2.035 . S
O76 Zn75 2.028 . S
O76 C82 1.247 . S
O77 Zn73 2.035 . S
O77 C82 1.258 . S
O78 C71 1.247 . S
O78 Zn75 2.028 . S
O79 C71 1.258 . S
O79 Zn73 2.035 . S
O80 Zn73 2.028 . S
O80 C83 1.247 . S
O81 Zn75 2.035 . S
O81 C83 1.258 . S
C82 O76 1.247 . S
C82 O77 1.258 . S
C83 O80 1.247 . S
C83 O81 1.258 . S
H84 C90 0.930 . S
H85 C94 0.930 . S
H86 C99 0.929 . S
H87 C97 0.929 . S
H88 C92 0.929 . S
H89 C98 0.929 . S
C90 H84 0.930 . S
C90 C91 1.367 . S
C90 C98 1.378 . S
C91 C90 1.367 . S
C91 C99 1.433 . S
C92 H88 0.929 . S
C92 C94 1.378 . S
C92 C96 1.350 . S
C93 C96 1.463 . S
C93 C98 1.350 . S
C93 N101 1.427 . S
C94 H85 0.930 . S
C94 C92 1.378 . S
C94 C95 1.367 . S
C95 C94 1.367 . S
C95 C97 1.433 . S
C96 C92 1.350 . S
C96 C93 1.463 . S
C96 N100 1.427 . S
C97 H87 0.929 . S
C97 C95 1.433 . S
C97 N100 1.384 . S
C98 H89 0.929 . S
C98 C90 1.378 . S
C98 C93 1.350 . S
C99 H86 0.929 . S
C99 C91 1.433 . S
C99 N101 1.384 . S
N100 C96 1.427 . S
N100 C97 1.384 . S
N101 C93 1.427 . S
N101 C99 1.384 . S
H102 C108 0.930 . S
H103 C112 0.930 . S
H104 C117 0.929 . S
H105 C115 0.929 . S
H106 C110 0.929 . S
H107 C116 0.929 . S
C108 H102 0.930 . S
C108 C109 1.367 . S
C108 C116 1.378 . S
C109 C108 1.367 . S
C109 C117 1.433 . S
C110 H106 0.929 . S
C110 C112 1.378 . S
C110 C114 1.350 . S
C111 C114 1.463 1_655 S
C111 C116 1.350 . S
C111 N119 1.427 . S
C112 H103 0.930 . S
C112 C110 1.378 . S
C112 C113 1.367 . S
C113 C112 1.367 . S
C113 C115 1.433 . S
C114 C110 1.350 . S
C114 C111 1.463 1_455 S
C114 N118 1.427 . S
C115 H105 0.929 . S
C115 C113 1.433 . S
C115 N118 1.384 . S
C116 H107 0.929 . S
C116 C108 1.378 . S
C116 C111 1.350 . S
C117 H104 0.929 . S
C117 C109 1.433 . S
C117 N119 1.384 . S
N118 C114 1.427 . S
N118 C115 1.384 . S
N119 C111 1.427 . S
N119 C117 1.384 . S
H120 C126 0.930 . S
H121 C130 0.930 . S
H122 C135 0.929 . S
H123 C133 0.929 . S
H124 C128 0.929 . S
H125 C134 0.929 . S
C126 H120 0.930 . S
C126 C127 1.367 . S
C126 C134 1.378 . S
C127 C126 1.367 . S
C127 C135 1.433 . S
C128 H124 0.929 . S
C128 C130 1.378 . S
C128 C132 1.350 . S
C129 C132 1.463 1_545 S
C129 C134 1.350 . S
C129 N137 1.427 . S
C130 H121 0.930 . S
C130 C128 1.378 . S
C130 C131 1.367 . S
C131 C130 1.367 . S
C131 C133 1.433 . S
C132 C128 1.350 . S
C132 C129 1.463 1_565 S
C132 N136 1.427 . S
C133 H123 0.929 . S
C133 C131 1.433 . S
C133 N136 1.384 . S
C134 H125 0.929 . S
C134 C126 1.378 . S
C134 C129 1.350 . S
C135 H122 0.929 . S
C135 C127 1.433 . S
C135 N137 1.384 . S
N136 C132 1.427 . S
N136 C133 1.384 . S
N137 C129 1.427 . S
N137 C135 1.384 . S
H138 C144 0.930 . S
H139 C148 0.930 . S
H140 C153 0.929 . S
H141 C151 0.929 . S
H142 C146 0.929 . S
H143 C152 0.929 . S
C144 H138 0.930 . S
C144 C145 1.367 . S
C144 C152 1.378 . S
C145 C144 1.367 . S
C145 C153 1.433 . S
C146 H142 0.929 . S
C146 C148 1.378 . S
C146 C150 1.350 . S
C147 C150 1.463 . S
C147 C152 1.350 . S
C147 N155 1.427 . S
C148 H139 0.930 . S
C148 C146 1.378 . S
C148 C149 1.367 . S
C149 C148 1.367 . S
C149 C151 1.433 . S
C150 C146 1.350 . S
C150 C147 1.463 . S
C150 N154 1.427 . S
C151 H141 0.929 . S
C151 C149 1.433 . S
C151 N154 1.384 . S
C152 H143 0.929 . S
C152 C144 1.378 . S
C152 C147 1.350 . S
C153 H140 0.929 . S
C153 C145 1.433 . S
C153 N155 1.384 . S
N154 C150 1.427 . S
N154 C151 1.384 . S
N155 C147 1.427 . S
N155 C153 1.384 . S
H156 C162 0.930 . S
H157 C166 0.930 . S
H158 C171 0.929 . S
H159 C169 0.929 . S
H160 C164 0.929 . S
H161 C170 0.929 . S
C162 H156 0.930 . S
C162 C163 1.367 . S
C162 C170 1.378 . S
C163 C162 1.367 . S
C163 C171 1.433 . S
C164 H160 0.929 . S
C164 C166 1.378 . S
C164 C168 1.350 . S
C165 C168 1.463 1_655 S
C165 C170 1.350 . S
C165 N173 1.427 . S
C166 H157 0.930 . S
C166 C164 1.378 . S
C166 C167 1.367 . S
C167 C166 1.367 . S
C167 C169 1.433 . S
C168 C164 1.350 . S
C168 C165 1.463 1_455 S
C168 N172 1.427 . S
C169 H159 0.929 . S
C169 C167 1.433 . S
C169 N172 1.384 . S
C170 H161 0.929 . S
C170 C162 1.378 . S
C170 C165 1.350 . S
C171 H158 0.929 . S
C171 C163 1.433 . S
C171 N173 1.384 . S
N172 C168 1.427 . S
N172 C169 1.384 . S
N173 C165 1.427 . S
N173 C171 1.384 . S
H174 C180 0.930 . S
H175 C184 0.930 . S
H176 C189 0.929 . S
H177 C187 0.929 . S
H178 C182 0.929 . S
H179 C188 0.929 . S
C180 H174 0.930 . S
C180 C181 1.367 . S
C180 C188 1.378 . S
C181 C180 1.367 . S
C181 C189 1.433 . S
C182 H178 0.929 . S
C182 C184 1.378 . S
C182 C186 1.350 . S
C183 C186 1.463 1_545 S
C183 C188 1.350 . S
C183 N191 1.427 . S
C184 H175 0.930 . S
C184 C182 1.378 . S
C184 C185 1.367 . S
C185 C184 1.367 . S
C185 C187 1.433 . S
C186 C182 1.350 . S
C186 C183 1.463 1_565 S
C186 N190 1.427 . S
C187 H177 0.929 . S
C187 C185 1.433 . S
C187 N190 1.384 . S
C188 H179 0.929 . S
C188 C180 1.378 . S
C188 C183 1.350 . S
C189 H176 0.929 . S
C189 C181 1.433 . S
C189 N191 1.384 . S
N190 C186 1.427 . S
N190 C187 1.384 . S
N191 C183 1.427 . S
N191 C189 1.384 . S
H192 C198 0.930 . S
H193 C202 0.930 . S
H194 C207 0.929 . S
H195 C205 0.929 . S
H196 C200 0.929 . S
H197 C206 0.929 . S
C198 H192 0.930 . S
C198 C199 1.367 . S
C198 C206 1.378 . S
C199 C198 1.367 . S
C199 C207 1.433 . S
C200 H196 0.929 . S
C200 C202 1.378 . S
C200 C204 1.350 . S
C201 C204 1.463 . S
C201 C206 1.350 . S
C201 N209 1.427 . S
C202 H193 0.930 . S
C202 C200 1.378 . S
C202 C203 1.367 . S
C203 C202 1.367 . S
C203 C205 1.433 . S
C204 C200 1.350 . S
C204 C201 1.463 . S
C204 N208 1.427 . S
C205 H195 0.929 . S
C205 C203 1.433 . S
C205 N208 1.384 . S
C206 H197 0.929 . S
C206 C198 1.378 . S
C206 C201 1.350 . S
C207 H194 0.929 . S
C207 C199 1.433 . S
C207 N209 1.384 . S
N208 C204 1.427 . S
N208 C205 1.384 . S
N209 C201 1.427 . S
N209 C207 1.384 . S
H210 C216 0.930 . S
H211 C220 0.930 . S
H212 C225 0.929 . S
H213 C223 0.929 . S
H214 C218 0.929 . S
H215 C224 0.929 . S
C216 H210 0.930 . S
C216 C217 1.367 . S
C216 C224 1.378 . S
C217 C216 1.367 . S
C217 C225 1.433 . S
C218 H214 0.929 . S
C218 C220 1.378 . S
C218 C222 1.350 . S
C219 C222 1.463 . S
C219 C224 1.350 . S
C219 N227 1.427 . S
C220 H211 0.930 . S
C220 C218 1.378 . S
C220 C221 1.367 . S
C221 C220 1.367 . S
C221 C223 1.433 . S
C222 C218 1.350 . S
C222 C219 1.463 . S
C222 N226 1.427 . S
C223 H213 0.929 . S
C223 C221 1.433 . S
C223 N226 1.384 . S
C224 H215 0.929 . S
C224 C216 1.378 . S
C224 C219 1.350 . S
C225 H212 0.929 . S
C225 C217 1.433 . S
C225 N227 1.384 . S
N226 C222 1.427 . S
N226 C223 1.384 . S
N227 C219 1.427 . S
N227 C225 1.384 . S
H228 C234 0.930 . S
H229 C238 0.930 . S
H230 C243 0.929 . S
H231 C241 0.929 . S
H232 C236 0.929 . S
H233 C242 0.929 . S
C234 H228 0.930 . S
C234 C235 1.367 . S
C234 C242 1.378 . S
C235 C234 1.367 . S
C235 C243 1.433 . S
C236 H232 0.929 . S
C236 C238 1.378 . S
C236 C240 1.350 . S
C237 C240 1.463 . S
C237 C242 1.350 . S
C237 N245 1.427 . S
C238 H229 0.930 . S
C238 C236 1.378 . S
C238 C239 1.367 . S
C239 C238 1.367 . S
C239 C241 1.433 . S
C240 C236 1.350 . S
C240 C237 1.463 . S
C240 N244 1.427 . S
C241 H231 0.929 . S
C241 C239 1.433 . S
C241 N244 1.384 . S
C242 H233 0.929 . S
C242 C234 1.378 . S
C242 C237 1.350 . S
C243 H230 0.929 . S
C243 C235 1.433 . S
C243 N245 1.384 . S
N244 C240 1.427 . S
N244 C241 1.384 . S
N245 C237 1.427 . S
N245 C243 1.384 . S
H246 C252 0.930 . S
H247 C256 0.930 . S
H248 C261 0.929 . S
H249 C259 0.929 . S
H250 C254 0.929 . S
H251 C260 0.929 . S
C252 H246 0.930 . S
C252 C253 1.367 . S
C252 C260 1.378 . S
C253 C252 1.367 . S
C253 C261 1.433 . S
C254 H250 0.929 . S
C254 C256 1.378 . S
C254 C258 1.350 . S
C255 C258 1.463 . S
C255 C260 1.350 . S
C255 N263 1.427 . S
C256 H247 0.930 . S
C256 C254 1.378 . S
C256 C257 1.367 . S
C257 C256 1.367 . S
C257 C259 1.433 . S
C258 C254 1.350 . S
C258 C255 1.463 . S
C258 N262 1.427 . S
C259 H249 0.929 . S
C259 C257 1.433 . S
C259 N262 1.384 . S
C260 H251 0.929 . S
C260 C252 1.378 . S
C260 C255 1.350 . S
C261 H248 0.929 . S
C261 C253 1.433 . S
C261 N263 1.384 . S
N262 C258 1.427 . S
N262 C259 1.384 . S
N263 C255 1.427 . S
N263 C261 1.384 . S
H264 C270 0.930 . S
H265 C274 0.930 . S
H266 C279 0.929 . S
H267 C277 0.929 . S
H268 C272 0.929 . S
H269 C278 0.929 . S
C270 H264 0.930 . S
C270 C271 1.367 . S
C270 C278 1.378 . S
C271 C270 1.367 . S
C271 C279 1.433 . S
C272 H268 0.929 . S
C272 C274 1.378 . S
C272 C276 1.350 . S
C273 C276 1.463 . S
C273 C278 1.350 . S
C273 N281 1.427 . S
C274 H265 0.930 . S
C274 C272 1.378 . S
C274 C275 1.367 . S
C275 C274 1.367 . S
C275 C277 1.433 . S
C276 C272 1.350 . S
C276 C273 1.463 . S
C276 N280 1.427 . S
C277 H267 0.929 . S
C277 C275 1.433 . S
C277 N280 1.384 . S
C278 H269 0.929 . S
C278 C270 1.378 . S
C278 C273 1.350 . S
C279 H266 0.929 . S
C279 C271 1.433 . S
C279 N281 1.384 . S
N280 C276 1.427 . S
N280 C277 1.384 . S
N281 C273 1.427 . S
N281 C279 1.384 . S
H282 C288 0.930 . S
H283 C292 0.930 . S
H284 C297 0.929 . S
H285 C295 0.929 . S
H286 C290 0.929 . S
H287 C296 0.929 . S
C288 H282 0.930 . S
C288 C289 1.367 . S
C288 C296 1.378 . S
C289 C288 1.367 . S
C289 C297 1.433 . S
C290 H286 0.929 . S
C290 C292 1.378 . S
C290 C294 1.350 . S
C291 C294 1.463 . S
C291 C296 1.350 . S
C291 N299 1.427 . S
C292 H283 0.930 . S
C292 C290 1.378 . S
C292 C293 1.367 . S
C293 C292 1.367 . S
C293 C295 1.433 . S
C294 C290 1.350 . S
C294 C291 1.463 . S
C294 N298 1.427 . S
C295 H285 0.929 . S
C295 C293 1.433 . S
C295 N298 1.384 . S
C296 H287 0.929 . S
C296 C288 1.378 . S
C296 C291 1.350 . S
C297 H284 0.929 . S
C297 C289 1.433 . S
C297 N299 1.384 . S
N298 C294 1.427 . S
N298 C295 1.384 . S
N299 C291 1.427 . S
N299 C297 1.384 . S
C91 C12 1.416 . S
C95 C83 1.420 . S
C109 C26 1.415 . S
C113 C0 1.419 . S
C127 C14 1.421 . S
C131 C28 1.415 . S
C145 C42 1.415 . S
C149 C40 1.421 . S
C163 C54 1.419 . S
C167 C57 1.414 . S
C181 C71 1.417 . S
C185 C69 1.419 . S
C199 C68 1.487 . S
C203 C13 1.487 . S
C217 C82 1.485 . S
C221 C27 1.491 . S
C235 C29 1.487 . S
C239 C1 1.490 . S
C253 C43 1.491 . S
C257 C15 1.485 . S
C271 C56 1.492 . S
C275 C41 1.486 . S
C289 C70 1.486 . S
C293 C55 1.491 . S
