# Generated by pormake.
# Topology uoj, (4)-cn, num edge types: 1
# Building blocks:
#     Node 0, Type 0, BuildingBlock: CEKHIL_clean_sbu_0, # of connection points: 4
#     Node 1, Type 0, BuildingBlock: CEKHIL_clean_sbu_0, # of connection points: 4
#     Node 2, Type 0, BuildingBlock: CEKHIL_clean_sbu_0, # of connection points: 4
#     Node 3, Type 0, BuildingBlock: CEKHIL_clean_sbu_0, # of connection points: 4
#     Node 4, Type 0, BuildingBlock: CEKHIL_clean_sbu_0, # of connection points: 4
#     Node 5, Type 0, BuildingBlock: CEKHIL_clean_sbu_0, # of connection points: 4
#     Node 6, Type 0, BuildingBlock: CEKHIL_clean_sbu_0, # of connection points: 4
#     Node 7, Type 0, BuildingBlock: CEKHIL_clean_sbu_0, # of connection points: 4
#     Edge 8, Type (0, 0), BuildingBlock: FUNLAD_clean_linker_0, # of connection points: 2
#     Edge 9, Type (0, 0), BuildingBlock: FUNLAD_clean_linker_0, # of connection points: 2
#     Edge 10, Type (0, 0), BuildingBlock: FUNLAD_clean_linker_0, # of connection points: 2
#     Edge 11, Type (0, 0), BuildingBlock: FUNLAD_clean_linker_0, # of connection points: 2
#     Edge 12, Type (0, 0), BuildingBlock: FUNLAD_clean_linker_0, # of connection points: 2
#     Edge 13, Type (0, 0), BuildingBlock: FUNLAD_clean_linker_0, # of connection points: 2
#     Edge 14, Type (0, 0), BuildingBlock: FUNLAD_clean_linker_0, # of connection points: 2
#     Edge 15, Type (0, 0), BuildingBlock: FUNLAD_clean_linker_0, # of connection points: 2
#     Edge 16, Type (0, 0), BuildingBlock: FUNLAD_clean_linker_0, # of connection points: 2
#     Edge 17, Type (0, 0), BuildingBlock: FUNLAD_clean_linker_0, # of connection points: 2
#     Edge 18, Type (0, 0), BuildingBlock: FUNLAD_clean_linker_0, # of connection points: 2
#     Edge 19, Type (0, 0), BuildingBlock: FUNLAD_clean_linker_0, # of connection points: 2
#     Edge 20, Type (0, 0), BuildingBlock: FUNLAD_clean_linker_0, # of connection points: 2
#     Edge 21, Type (0, 0), BuildingBlock: FUNLAD_clean_linker_0, # of connection points: 2
#     Edge 22, Type (0, 0), BuildingBlock: FUNLAD_clean_linker_0, # of connection points: 2
#     Edge 23, Type (0, 0), BuildingBlock: FUNLAD_clean_linker_0, # of connection points: 2
# Relax obj value: 0.110
# Max RMSD: 0.137
# Mean RMSD: 0.135
data_MOF--net-uoj--node1-CEKHIL_clean_sbu_0--edge1-FUNLAD_clean_linker_0
_symmetry_space_group_name_H-M    P1
_symmetry_Int_Tables_number       1
_symmetry_cell_setting            triclinic
loop_
_symmetry_equiv_pos_as_xyz
'x, y, z'
_cell_length_a     38.347211
_cell_length_b     38.107529
_cell_length_c     40.769381
_cell_angle_alpha  89.889599
_cell_angle_beta   90.046494
_cell_angle_gamma 88.856065
loop_
_atom_site_label
_atom_site_type_symbol
_atom_site_fract_x
_atom_site_fract_y
_atom_site_fract_z
_atom_type_partial_charge
Co0 Co 0.07882 0.27956 0.44578 0.0
O1 O 0.11011 0.30535 0.4184 0.0
O2 O 0.05687 0.28937 0.40423 0.0
C3 C 0.11746 0.23854 0.46305 0.0
O4 O 0.0396 0.25211 0.46619 0.0
Co5 Co 0.0894 0.27481 0.52097 0.0
O6 O 0.052 0.23955 0.51879 0.0
C7 C 0.05965 0.33963 0.4923 0.0
C8 C 0.0856 0.30486 0.39638 0.0
C9 C 0.03282 0.23666 0.49342 0.0
O10 O 0.05898 0.32448 0.46418 0.0
O11 O 0.07321 0.3253 0.51786 0.0
O12 O 0.10256 0.23572 0.43456 0.0
O13 O 0.11137 0.26762 0.47854 0.0
Co14 Co 0.30208 0.90094 0.56536 0.0
O15 O 0.25762 0.88441 0.57899 0.0
O16 O 0.27873 0.87895 0.52868 0.0
C17 C 0.33162 0.88012 0.60929 0.0
O18 O 0.34754 0.91435 0.54308 0.0
Co19 Co 0.34018 0.95579 0.60859 0.0
O20 O 0.38044 0.9414 0.58087 0.0
C21 C 0.28022 0.97805 0.56756 0.0
C22 C 0.25335 0.87353 0.54918 0.0
C23 C 0.37657 0.92709 0.55292 0.0
O24 O 0.28021 0.94779 0.55359 0.0
O25 O 0.30016 0.98539 0.59172 0.0
O26 O 0.32522 0.85941 0.58479 0.0
O27 O 0.31763 0.91106 0.60742 0.0
Co28 Co 0.91971 0.70359 0.43085 0.0
O29 O 0.88225 0.68652 0.40446 0.0
O30 O 0.93701 0.69133 0.38782 0.0
C31 C 0.89058 0.75052 0.45086 0.0
O32 O 0.96478 0.7216 0.45043 0.0
Co33 Co 0.91267 0.70619 0.5065 0.0
O34 O 0.95659 0.73262 0.50405 0.0
C35 C 0.92834 0.63867 0.47462 0.0
C36 C 0.90504 0.68302 0.38112 0.0
C37 C 0.97523 0.73348 0.4782 0.0
O38 O 0.93071 0.65474 0.44698 0.0
O39 O 0.91915 0.65406 0.50121 0.0
O40 O 0.90483 0.75174 0.42199 0.0
O41 O 0.89145 0.72018 0.46517 0.0
Co42 Co 0.70035 0.08276 0.5594 0.0
O43 O 0.74424 0.10344 0.56881 0.0
O44 O 0.71652 0.10813 0.52121 0.0
C45 C 0.67519 0.09862 0.60719 0.0
O46 O 0.65396 0.06581 0.54155 0.0
Co47 Co 0.67245 0.02296 0.60417 0.0
O48 O 0.62796 0.03491 0.58153 0.0
C49 C 0.73055 0.00889 0.5581 0.0
C50 C 0.74355 0.11553 0.53907 0.0
C51 C 0.62735 0.05051 0.55387 0.0
O52 O 0.72513 0.03871 0.54392 0.0
O53 O 0.71439 -0.00066 0.58401 0.0
O54 O 0.67594 0.12098 0.58303 0.0
O55 O 0.69148 0.06931 0.60222 0.0
Co56 Co 0.41125 0.79156 0.94419 0.0
O57 O 0.38149 0.8177 0.91463 0.0
O58 O 0.43435 0.79687 0.90259 0.0
C59 C 0.37087 0.75451 0.96212 0.0
O60 O 0.44897 0.76247 0.96712 0.0
Co61 Co 0.3992 0.79327 0.01887 0.0
O62 O 0.43518 0.7552 0.02015 0.0
C63 C 0.4323 0.85336 0.98731 0.0
C64 C 0.4062 0.81356 0.89312 0.0
C65 C 0.45463 0.74869 0.9955 0.0
O66 O 0.43217 0.83615 0.96027 0.0
O67 O 0.41838 0.8419 0.01369 0.0
O68 O 0.38664 0.74924 0.93437 0.0
O69 O 0.37719 0.78389 0.9768 0.0
Co70 Co 0.79092 0.57853 0.05693 0.0
O71 O 0.81175 0.61424 0.08334 0.0
O72 O 0.80697 0.55836 0.09772 0.0
C73 C 0.74282 0.60874 0.04192 0.0
O74 O 0.76987 0.53479 0.03753 0.0
Co75 Co 0.78186 0.58844 0.98229 0.0
O76 O 0.75203 0.54664 0.98618 0.0
C77 C 0.85078 0.56805 0.00774 0.0
C78 C 0.81722 0.58971 0.10504 0.0
C79 C 0.75353 0.52656 0.0112 0.0
O80 O 0.8372 0.56676 0.03648 0.0
O81 O 0.83362 0.57817 0.98236 0.0
O82 O 0.74474 0.59366 0.07049 0.0
O83 O 0.77144 0.60891 0.02501 0.0
Co84 Co 0.57589 0.20434 0.93546 0.0
O85 O 0.60704 0.18094 0.90534 0.0
O86 O 0.55074 0.19162 0.89655 0.0
C87 C 0.61093 0.24918 0.94668 0.0
O88 O 0.53585 0.22913 0.9588 0.0
Co89 Co 0.59327 0.21351 0.00854 0.0
O90 O 0.55187 0.24555 0.00929 0.0
C91 C 0.56913 0.14503 0.98553 0.0
C92 C 0.58048 0.17969 0.88558 0.0
C93 C 0.53002 0.24559 0.98575 0.0
O94 O 0.56447 0.15847 0.95688 0.0
O95 O 0.58236 0.16202 0.00942 0.0
O96 O 0.59189 0.24916 0.92037 0.0
O97 O 0.61071 0.22074 0.96422 0.0
Co98 Co 0.2071 0.42343 0.07914 0.0
O99 O 0.18315 0.38941 0.10521 0.0
O100 O 0.19287 0.44434 0.12001 0.0
C101 C 0.25226 0.38852 0.06484 0.0
O102 O 0.23171 0.4656 0.06034 0.0
Co103 Co 0.21645 0.41429 0.00474 0.0
O104 O 0.24622 0.45612 0.00776 0.0
C105 C 0.14842 0.43821 0.02974 0.0
C106 C 0.18016 0.41392 0.12722 0.0
C107 C 0.24668 0.47484 0.0336 0.0
O108 O 0.16197 0.43901 0.05851 0.0
O109 O 0.16515 0.42712 0.00453 0.0
O110 O 0.25151 0.4041 0.09313 0.0
O111 O 0.22421 0.39166 0.04714 0.0
C112 C 0.1515 0.37364 0.1668 0.0
C113 C 0.16466 0.40689 0.1596 0.0
C114 C 0.13932 0.366 0.1982 0.0
C115 C 0.13989 0.3916 0.22304 0.0
C116 C 0.15255 0.42499 0.21564 0.0
C117 C 0.16464 0.43267 0.18418 0.0
C118 C 0.13024 0.38343 0.25739 0.0
C119 C 0.10842 0.3576 0.26553 0.0
C120 C 0.10199 0.34672 0.2999 0.0
C121 C 0.07109 0.32933 0.30741 0.0
C122 C 0.06532 0.31644 0.339 0.0
C123 C 0.09062 0.32032 0.36358 0.0
H124 H 0.15177 0.36325 0.31964 0.0
C125 C 0.12144 0.33797 0.35619 0.0
C126 C 0.12713 0.35099 0.32467 0.0
H127 H 0.14151 0.34119 0.37459 0.0
H128 H 0.15142 0.35316 0.14841 0.0
H129 H 0.13081 0.33962 0.20312 0.0
H130 H 0.15356 0.44506 0.23439 0.0
H131 H 0.17474 0.45851 0.17937 0.0
H132 H 0.14149 0.39946 0.27652 0.0
H133 H 0.09441 0.34392 0.24642 0.0
H134 H 0.05148 0.32539 0.28869 0.0
H135 H 0.04135 0.30283 0.34395 0.0
C136 C 0.36228 0.89474 0.66098 0.0
C137 C 0.35191 0.86921 0.63841 0.0
C138 C 0.37715 0.88493 0.69086 0.0
C139 C 0.38152 0.84928 0.69904 0.0
C140 C 0.37352 0.82374 0.67555 0.0
C141 C 0.35872 0.83362 0.64539 0.0
C142 C 0.39259 0.8384 0.73247 0.0
C143 C 0.38278 0.85701 0.75911 0.0
C144 C 0.39016 0.84593 0.79329 0.0
C145 C 0.36728 0.85735 0.81808 0.0
C146 C 0.37278 0.84719 0.85058 0.0
C147 C 0.40165 0.82582 0.85903 0.0
H148 H 0.43815 0.8166 0.78338 0.0
C149 C 0.42519 0.81518 0.83441 0.0
C150 C 0.41947 0.82506 0.80177 0.0
H151 H 0.44774 0.79878 0.84027 0.0
H152 H 0.35804 0.92242 0.65602 0.0
H153 H 0.38443 0.90535 0.70782 0.0
H154 H 0.37715 0.7961 0.68113 0.0
H155 H 0.35118 0.81342 0.62828 0.0
H156 H 0.40603 0.81322 0.73535 0.0
H157 H 0.36614 0.8802 0.75598 0.0
H158 H 0.34468 0.87371 0.81222 0.0
H159 H 0.35426 0.85592 0.86903 0.0
C160 C 0.9192 0.65971 0.32516 0.0
C161 C 0.89441 0.67162 0.34813 0.0
C162 C 0.90877 0.65012 0.29358 0.0
C163 C 0.87343 0.65283 0.28443 0.0
C164 C 0.8488 0.66481 0.3074 0.0
C165 C 0.85909 0.6737 0.33907 0.0
C166 C 0.8616 0.64525 0.2507 0.0
C167 C 0.87598 0.61988 0.23194 0.0
C168 C 0.86241 0.61245 0.19873 0.0
C169 C 0.86013 0.5776 0.18806 0.0
C170 C 0.84553 0.57008 0.15749 0.0
C171 C 0.83373 0.5974 0.13683 0.0
H172 H 0.85361 0.66696 0.18502 0.0
C173 C 0.83728 0.63232 0.14703 0.0
C174 C 0.85135 0.63978 0.17774 0.0
H175 H 0.82863 0.65392 0.13154 0.0
H176 H 0.9466 0.65794 0.33155 0.0
H177 H 0.92844 0.64161 0.27614 0.0
H178 H 0.82147 0.66731 0.30082 0.0
H179 H 0.83943 0.68302 0.3562 0.0
H180 H 0.83881 0.65979 0.24175 0.0
H181 H 0.89629 0.60265 0.24192 0.0
H182 H 0.86877 0.55616 0.20376 0.0
H183 H 0.84337 0.54293 0.1501 0.0
C184 C 0.61728 0.15587 0.84015 0.0
C185 C 0.58488 0.16897 0.85109 0.0
C186 C 0.62289 0.1494 0.80692 0.0
C187 C 0.59612 0.15574 0.78389 0.0
C188 C 0.56367 0.16862 0.79482 0.0
C189 C 0.55797 0.17491 0.82818 0.0
C190 C 0.60211 0.15021 0.74834 0.0
C191 C 0.62343 0.12438 0.73749 0.0
C192 C 0.63229 0.11834 0.7026 0.0
C193 C 0.64496 0.08496 0.69387 0.0
C194 C 0.65748 0.07856 0.66244 0.0
C195 C 0.65796 0.10552 0.63891 0.0
H196 H 0.62249 0.17151 0.68488 0.0
C197 C 0.64422 0.1388 0.64708 0.0
C198 C 0.63147 0.14523 0.67879 0.0
H199 H 0.64445 0.16007 0.62943 0.0
H200 H 0.63866 0.15145 0.85715 0.0
H201 H 0.64859 0.14045 0.79926 0.0
H202 H 0.54276 0.17393 0.77751 0.0
H203 H 0.53282 0.18538 0.83587 0.0
H204 H 0.58789 0.16683 0.73105 0.0
H205 H 0.63465 0.10592 0.75514 0.0
H206 H 0.64596 0.06383 0.71171 0.0
H207 H 0.66778 0.05256 0.65698 0.0
C208 C 0.25281 0.03802 0.57173 0.0
C209 C 0.25684 0.0062 0.55463 0.0
C210 C 0.23206 0.06528 0.55901 0.0
C211 C 0.21513 0.06151 0.52862 0.0
C212 C 0.21825 0.02934 0.51204 0.0
C213 C 0.23893 0.00197 0.52484 0.0
C214 C 0.19379 0.09028 0.51362 0.0
C215 C 0.19808 0.12448 0.52065 0.0
C216 C 0.17715 0.15326 0.50529 0.0
C217 C 0.17293 0.18508 0.52227 0.0
C218 C 0.15353 0.21287 0.5086 0.0
C219 C 0.13831 0.20947 0.47747 0.0
H220 H 0.16604 0.1265 0.45947 0.0
C221 C 0.14304 0.1779 0.46018 0.0
C222 C 0.16233 0.15008 0.47388 0.0
H223 H 0.13191 0.17465 0.43598 0.0
H224 H 0.26571 0.04199 0.59503 0.0
H225 H 0.22921 0.08901 0.57333 0.0
H226 H 0.20516 0.02557 0.48879 0.0
H227 H 0.24129 0.97774 0.5111 0.0
H228 H 0.17442 0.0828 0.49564 0.0
H229 H 0.21737 0.1321 0.53862 0.0
H230 H 0.1844 0.18833 0.54635 0.0
H231 H 0.15046 0.23698 0.52243 0.0
C232 C 0.21413 0.84568 0.50731 0.0
C233 C 0.22046 0.85672 0.53963 0.0
C234 C 0.18211 0.8308 0.49899 0.0
C235 C 0.15599 0.82682 0.52296 0.0
C236 C 0.16266 0.83779 0.55512 0.0
C237 C 0.19441 0.85238 0.56339 0.0
C238 C 0.12111 0.81219 0.51617 0.0
C239 C 0.11276 0.79254 0.48999 0.0
C240 C 0.07781 0.77658 0.48695 0.0
C241 C 0.06332 0.77087 0.45582 0.0
C242 C 0.03002 0.75672 0.45273 0.0
C243 C 0.0107 0.74792 0.4808 0.0
H244 H 0.0698 0.7688 0.53928 0.0
C245 C 0.02574 0.75269 0.51185 0.0
C246 C 0.05893 0.76649 0.51489 0.0
H247 H 0.01201 0.74543 0.53399 0.0
H248 H 0.2337 0.84886 0.48846 0.0
H249 H 0.17783 0.82317 0.47379 0.0
H250 H 0.14314 0.83504 0.57412 0.0
H251 H 0.19834 0.86053 0.58854 0.0
H252 H 0.1013 0.81733 0.53467 0.0
H253 H 0.13144 0.78801 0.47041 0.0
H254 H 0.07753 0.77792 0.43389 0.0
H255 H 0.01926 0.75311 0.42842 0.0
C256 C 0.76836 0.95513 0.56252 0.0
C257 C 0.75602 0.98372 0.54372 0.0
C258 C 0.79048 0.92979 0.54877 0.0
C259 C 0.80038 0.93209 0.51566 0.0
C260 C 0.78955 0.96155 0.49727 0.0
C261 C 0.76751 0.98719 0.51116 0.0
C262 C 0.82157 0.90393 0.49973 0.0
C263 C 0.81987 0.8701 0.50926 0.0
C264 C 0.83963 0.84055 0.49393 0.0
C265 C 0.84191 0.80854 0.51102 0.0
C266 C 0.85891 0.77941 0.49727 0.0
C267 C 0.87388 0.78164 0.46598 0.0
H268 H 0.85304 0.86656 0.44813 0.0
C269 C 0.87188 0.81363 0.44885 0.0
C270 C 0.85484 0.84281 0.4626 0.0
H271 H 0.883 0.81601 0.42455 0.0
H272 H 0.76077 0.95214 0.58795 0.0
H273 H 0.79966 0.90843 0.56424 0.0
H274 H 0.79731 0.96421 0.47185 0.0
H275 H 0.75871 0.00911 0.49613 0.0
H276 H 0.83772 0.91136 0.47914 0.0
H277 H 0.80278 0.86327 0.52942 0.0
H278 H 0.8303 0.80597 0.53512 0.0
H279 H 0.85999 0.75507 0.51103 0.0
C280 C 0.79702 0.14948 0.54875 0.0
C281 C 0.77345 0.13512 0.52638 0.0
C282 C 0.8279 0.16403 0.53786 0.0
C283 C 0.83625 0.16411 0.50431 0.0
C284 C 0.8117 0.1519 0.48165 0.0
C285 C 0.78045 0.13736 0.49261 0.0
C286 C 0.87061 0.17663 0.493 0.0
C287 C 0.89967 0.17069 0.51101 0.0
C288 C 0.93452 0.18537 0.5041 0.0
C289 C 0.95977 0.18335 0.52904 0.0
C290 C 0.99207 0.19901 0.5252 0.0
C291 C 4e-05 0.21696 0.49614 0.0
H292 H 0.92474 0.20359 0.45421 0.0
C293 C 0.97543 0.21765 0.4705 0.0
C294 C 0.94297 0.20206 0.47441 0.0
H295 H 0.98081 0.23103 0.44765 0.0
H296 H 0.79194 0.14885 0.57488 0.0
H297 H 0.84546 0.1748 0.55588 0.0
H298 H 0.81729 0.15233 0.45561 0.0
H299 H 0.76259 0.12661 0.47485 0.0
H300 H 0.87155 0.19055 0.46983 0.0
H301 H 0.89757 0.15519 0.53332 0.0
H302 H 0.95417 0.17043 0.55209 0.0
H303 H 0.01045 0.19768 0.54538 0.0
C304 C 0.26975 0.5253 0.00159 0.0
C305 C 0.26282 0.50975 0.03209 0.0
C306 C 0.28215 0.55939 -0.00013 0.0
C307 C 0.28803 0.57872 0.02864 0.0
C308 C 0.28265 0.56274 0.05917 0.0
C309 C 0.26976 0.52868 0.06092 0.0
C310 C 0.30092 0.6151 0.0269 0.0
C311 C 0.29017 0.63724 0.00304 0.0
C312 C 0.30756 0.67054 0.995 0.0
C313 C 0.30681 0.68157 0.9622 0.0
C314 C 0.32643 0.70989 0.95204 0.0
C315 C 0.34649 0.72845 0.97464 0.0
H316 H 0.32665 0.68293 0.04379 0.0
C317 C 0.34541 0.71929 0.00797 0.0
C318 C 0.32626 0.69022 0.01812 0.0
H319 H 0.3607 0.73338 0.02578 0.0
H320 H 0.26488 0.51145 0.97891 0.0
H321 H 0.2873 0.57049 0.97593 0.0
H322 H 0.28765 0.5769 0.08165 0.0
H323 H 0.26499 0.5173 0.08482 0.0
H324 H 0.32045 0.6229 0.04459 0.0
H325 H 0.27007 0.62875 0.98615 0.0
H326 H 0.29237 0.66714 0.94396 0.0
H327 H 0.32663 0.71673 0.92622 0.0
C328 C 0.67809 0.61066 0.04309 0.0
C329 C 0.70922 0.62239 0.0292 0.0
C330 C 0.64599 0.6243 0.03261 0.0
C331 C 0.64429 0.65079 0.00852 0.0
C332 C 0.67544 0.66149 0.99368 0.0
C333 C 0.70768 0.64733 0.00384 0.0
C334 C 0.61066 0.66801 0.99871 0.0
C335 C 0.58237 0.6688 0.0184 0.0
C336 C 0.5491 0.68788 0.01089 0.0
C337 C 0.52552 0.69391 0.0367 0.0
C338 C 0.4945 0.71284 0.03153 0.0
C339 C 0.48618 0.7262 0.00029 0.0
H340 H 0.55699 0.69517 0.95844 0.0
C341 C 0.50916 0.71917 0.97412 0.0
C342 C 0.54023 0.70011 0.97929 0.0
H343 H 0.5034 0.72876 0.94964 0.0
H344 H 0.67847 0.59076 0.06211 0.0
H345 H 0.62272 0.61385 0.04358 0.0
H346 H 0.67492 0.68146 0.97472 0.0
H347 H 0.73135 0.65657 0.99254 0.0
H348 H 0.61028 0.68238 0.97573 0.0
H349 H 0.58409 0.65678 0.0425 0.0
H350 H 0.53139 0.6845 0.06123 0.0
H351 H 0.47739 0.71752 0.05226 0.0
C352 C 0.71925 0.48199 0.98075 0.0
C353 C 0.7368 0.49195 0.00941 0.0
C354 C 0.70461 0.44893 0.97835 0.0
C355 C 0.70739 0.42485 0.00447 0.0
C356 C 0.72378 0.43513 0.03356 0.0
C357 C 0.73857 0.4683 0.03597 0.0
C358 C 0.69242 0.38935 0.002 0.0
C359 C 0.6912 0.37225 0.9732 0.0
C360 C 0.67193 0.3395 0.96778 0.0
C361 C 0.65912 0.33341 0.93616 0.0
C362 C 0.63944 0.304 0.92962 0.0
C363 C 0.63264 0.27951 0.95444 0.0
H364 H 0.67593 0.31823 0.0172 0.0
C365 C 0.64633 0.28476 0.98597 0.0
C366 C 0.66572 0.31473 0.99271 0.0
H367 H 0.6416 0.26609 0.00545 0.0
H368 H 0.71687 0.49966 0.95999 0.0
H369 H 0.69079 0.44253 0.95606 0.0
H370 H 0.72572 0.41726 0.05421 0.0
H371 H 0.75162 0.47524 0.05855 0.0
H372 H 0.68176 0.37771 0.02405 0.0
H373 H 0.7028 0.38413 0.95165 0.0
H374 H 0.66371 0.35193 0.91649 0.0
H375 H 0.62957 0.30047 0.90497 0.0
C376 C 0.48567 0.27649 0.02091 0.0
C377 C 0.49598 0.26397 0.98996 0.0
C378 C 0.45283 0.29217 0.02525 0.0
C379 C 0.42948 0.29561 0.99872 0.0
C380 C 0.44021 0.28432 0.96756 0.0
C381 C 0.47303 0.26838 0.96323 0.0
C382 C 0.39426 0.31177 0.0029 0.0
C383 C 0.37637 0.3087 0.03109 0.0
C384 C 0.34332 0.32795 0.03825 0.0
C385 C 0.33582 0.33555 0.07113 0.0
C386 C 0.30613 0.35508 0.07946 0.0
C387 C 0.28277 0.36689 0.05513 0.0
H388 H 0.32413 0.33288 0.9882 0.0
C389 C 0.28936 0.35827 0.02221 0.0
C390 C 0.3196 0.33908 0.01375 0.0
H391 H 0.27157 0.36691 0.00305 0.0
H392 H 0.50279 0.27382 0.04196 0.0
H393 H 0.44601 0.30187 0.04939 0.0
H394 H 0.42293 0.28723 0.94665 0.0
H395 H 0.4803 0.25938 0.93895 0.0
H396 H 0.3833 0.32665 0.9825 0.0
H397 H 0.38755 0.29309 0.05095 0.0
H398 H 0.35346 0.32703 0.09048 0.0
H399 H 0.30149 0.36093 0.1051 0.0
C400 C 0.94414 0.58375 0.50598 0.0
C401 C 0.93895 0.60111 0.47584 0.0
C402 C 0.95744 0.54929 0.50691 0.0
C403 C 0.96585 0.53148 0.4776 0.0
C404 C 0.95939 0.54854 0.44758 0.0
C405 C 0.94616 0.58284 0.44666 0.0
C406 C 0.98185 0.4956 0.47655 0.0
C407 C 0.99161 0.47634 0.50293 0.0
C408 C 0.00856 0.441 0.49997 0.0
C409 C 0.02924 0.42799 0.52592 0.0
C410 C 0.04606 0.39514 0.52358 0.0
C411 C 0.04251 0.37466 0.49517 0.0
H412 H 0.98735 0.428 0.452 0.0
C413 C 0.0213 0.38745 0.46951 0.0
C414 C 0.00426 0.41995 0.47198 0.0
H415 H 0.01733 0.37211 0.44752 0.0
H416 H 0.93878 0.59704 0.52894 0.0
H417 H 0.96138 0.53727 0.53066 0.0
H418 H 0.96518 0.53549 0.42456 0.0
H419 H 0.94221 0.59522 0.42297 0.0
H420 H 0.98711 0.48523 0.45225 0.0
H421 H 0.9887 0.48693 0.52743 0.0
H422 H 0.03266 0.44341 0.54795 0.0
H423 H 0.06196 0.38594 0.54394 0.0
C424 C 0.59604 0.02853 0.50485 0.0
C425 C 0.59542 0.04747 0.53434 0.0
C426 C 0.56482 0.01752 0.49073 0.0
C427 C 0.53273 0.02606 0.50567 0.0
C428 C 0.53221 0.04783 0.53339 0.0
C429 C 0.56335 0.05791 0.54799 0.0
C430 C 0.49997 0.00894 0.49611 0.0
C431 C 0.49885 0.97385 0.49247 0.0
C432 C 0.46654 0.9549 0.5002 0.0
C433 C 0.43361 0.96732 0.48969 0.0
C434 C 0.40331 0.9548 0.50437 0.0
C435 C 0.40574 0.93022 0.52999 0.0
H436 H 0.49365 0.91744 0.53157 0.0
C437 C 0.43836 0.91559 0.53838 0.0
C438 C 0.46854 0.9274 0.52312 0.0
H439 H 0.44073 0.89691 0.55837 0.0
H440 H 0.62063 0.01998 0.49416 0.0
H441 H 0.5658 0.00099 0.46916 0.0
H442 H 0.50777 0.05469 0.54532 0.0
H443 H 0.56243 0.07235 0.57087 0.0
H444 H 0.47582 0.02371 0.50024 0.0
H445 H 0.52314 0.95862 0.49217 0.0
H446 H 0.43143 0.9883 0.47179 0.0
H447 H 0.37835 0.96673 0.49791 0.0
C448 C 0.54463 0.08902 0.96469 0.0
C449 C 0.55679 0.10887 0.99121 0.0
C450 C 0.5302 0.05619 0.96981 0.0
C451 C 0.52786 0.04201 0.00162 0.0
C452 C 0.54029 0.06162 0.02816 0.0
C453 C 0.55484 0.09463 0.02302 0.0
C454 C 0.51056 0.00799 0.00773 0.0
C455 C 0.50965 0.98255 0.98484 0.0
C456 C 0.48912 0.94993 0.9872 0.0
C457 C 0.48402 0.93092 0.95824 0.0
C458 C 0.46505 0.90016 0.95837 0.0
C459 C 0.45074 0.88723 0.98763 0.0
H460 H 0.47829 0.95081 0.03963 0.0
C461 C 0.45561 0.90624 0.01679 0.0
C462 C 0.47464 0.93731 0.01662 0.0
H463 H 0.44515 0.89691 0.03981 0.0
H464 H 0.54547 0.09914 0.93986 0.0
H465 H 0.5198 0.04269 0.94875 0.0
H466 H 0.53848 0.05151 0.05294 0.0
H467 H 0.56372 0.1093 0.04405 0.0
H468 H 0.49783 0.00455 0.03122 0.0
H469 H 0.52388 0.98624 0.96212 0.0
H470 H 0.4947 0.93995 0.93518 0.0
H471 H 0.4619 0.88641 0.93536 0.0
C472 C 0.09768 0.45973 0.99505 0.0
C473 C 0.11248 0.45278 0.02606 0.0
C474 C 0.06498 0.47675 0.99244 0.0
C475 C 0.04664 0.48703 0.02088 0.0
C476 C 0.06114 0.47916 0.05166 0.0
C477 C 0.09344 0.46216 0.05426 0.0
C478 C 0.01295 0.50687 0.02038 0.0
C479 C 0.9903 0.50809 0.9951 0.0
C480 C 0.9551 0.52492 0.99845 0.0
C481 C 0.93766 0.53846 0.97071 0.0
C482 C 0.90406 0.55343 0.97354 0.0
C483 C 0.88725 0.55488 0.0042 0.0
H484 H 0.94962 0.51468 0.05075 0.0
C485 C 0.90484 0.54126 0.03182 0.0
C486 C 0.93802 0.5262 0.02896 0.0
H487 H 0.8927 0.54134 0.05581 0.0
H488 H 0.11173 0.45298 0.97284 0.0
H489 H 0.05484 0.48269 0.96826 0.0
H490 H 0.04753 0.48649 0.07399 0.0
H491 H 0.10373 0.45704 0.07859 0.0
H492 H 0.00604 0.52031 0.04299 0.0
H493 H 0.99704 0.49604 0.97181 0.0
H494 H 0.95001 0.53739 0.94684 0.0
H495 H 0.89114 0.56336 0.95169 0.0
loop_
_geom_bond_atom_site_label_1
_geom_bond_atom_site_label_2
_geom_bond_distance
_geom_bond_site_symmetry_2
_ccdc_geom_bond_type
Co0 O1 2.216 . S
Co0 O2 2.091 . S
Co0 O4 2.004 . S
Co0 O10 2.021 . S
Co0 O12 2.137 . S
Co0 O13 2.244 . S
O1 Co0 2.216 . S
O1 C8 1.247 . S
O2 Co0 2.091 . S
O2 C8 1.261 . S
C3 O12 1.247 . S
C3 O13 1.272 . S
O4 Co0 2.004 . S
O4 C9 1.259 . S
Co5 O6 2.061 . S
Co5 O11 2.052 . S
Co5 O13 2.135 . S
O6 Co5 2.061 . S
O6 C9 1.235 . S
C7 O10 1.238 . S
C7 O11 1.241 . S
C8 O1 1.247 . S
C8 O2 1.261 . S
C9 O4 1.259 . S
C9 O6 1.235 . S
O10 Co0 2.021 . S
O10 C7 1.238 . S
O11 Co5 2.052 . S
O11 C7 1.241 . S
O12 Co0 2.137 . S
O12 C3 1.247 . S
O13 Co0 2.244 . S
O13 C3 1.272 . S
O13 Co5 2.135 . S
Co14 O15 2.216 . S
Co14 O16 2.091 . S
Co14 O18 2.004 . S
Co14 O24 2.021 . S
Co14 O26 2.137 . S
Co14 O27 2.244 . S
O15 Co14 2.216 . S
O15 C22 1.247 . S
O16 Co14 2.091 . S
O16 C22 1.261 . S
C17 O26 1.247 . S
C17 O27 1.272 . S
O18 Co14 2.004 . S
O18 C23 1.259 . S
Co19 O20 2.061 . S
Co19 O25 2.052 . S
Co19 O27 2.135 . S
O20 Co19 2.061 . S
O20 C23 1.235 . S
C21 O24 1.238 . S
C21 O25 1.241 . S
C22 O15 1.247 . S
C22 O16 1.261 . S
C23 O18 1.259 . S
C23 O20 1.235 . S
O24 Co14 2.021 . S
O24 C21 1.238 . S
O25 Co19 2.052 . S
O25 C21 1.241 . S
O26 Co14 2.137 . S
O26 C17 1.247 . S
O27 Co14 2.244 . S
O27 C17 1.272 . S
O27 Co19 2.135 . S
Co28 O29 2.216 . S
Co28 O30 2.091 . S
Co28 O32 2.004 . S
Co28 O38 2.021 . S
Co28 O40 2.137 . S
Co28 O41 2.244 . S
O29 Co28 2.216 . S
O29 C36 1.247 . S
O30 Co28 2.091 . S
O30 C36 1.261 . S
C31 O40 1.247 . S
C31 O41 1.272 . S
O32 Co28 2.004 . S
O32 C37 1.259 . S
Co33 O34 2.061 . S
Co33 O39 2.052 . S
Co33 O41 2.135 . S
O34 Co33 2.061 . S
O34 C37 1.235 . S
C35 O38 1.238 . S
C35 O39 1.241 . S
C36 O29 1.247 . S
C36 O30 1.261 . S
C37 O32 1.259 . S
C37 O34 1.235 . S
O38 Co28 2.021 . S
O38 C35 1.238 . S
O39 Co33 2.052 . S
O39 C35 1.241 . S
O40 Co28 2.137 . S
O40 C31 1.247 . S
O41 Co28 2.244 . S
O41 C31 1.272 . S
O41 Co33 2.135 . S
Co42 O43 2.216 . S
Co42 O44 2.091 . S
Co42 O46 2.004 . S
Co42 O52 2.021 . S
Co42 O54 2.137 . S
Co42 O55 2.244 . S
O43 Co42 2.216 . S
O43 C50 1.247 . S
O44 Co42 2.091 . S
O44 C50 1.261 . S
C45 O54 1.247 . S
C45 O55 1.272 . S
O46 Co42 2.004 . S
O46 C51 1.259 . S
Co47 O48 2.061 . S
Co47 O53 2.052 . S
Co47 O55 2.135 . S
O48 Co47 2.061 . S
O48 C51 1.235 . S
C49 O52 1.238 . S
C49 O53 1.241 . S
C50 O43 1.247 . S
C50 O44 1.261 . S
C51 O46 1.259 . S
C51 O48 1.235 . S
O52 Co42 2.021 . S
O52 C49 1.238 . S
O53 Co47 2.052 . S
O53 C49 1.241 . S
O54 Co42 2.137 . S
O54 C45 1.247 . S
O55 Co42 2.244 . S
O55 C45 1.272 . S
O55 Co47 2.135 . S
Co56 O57 2.216 . S
Co56 O58 2.091 . S
Co56 O60 2.004 . S
Co56 O66 2.021 . S
Co56 O68 2.137 . S
Co56 O69 2.244 . S
O57 Co56 2.216 . S
O57 C64 1.247 . S
O58 Co56 2.091 . S
O58 C64 1.261 . S
C59 O68 1.247 . S
C59 O69 1.272 . S
O60 Co56 2.004 . S
O60 C65 1.259 . S
Co61 O62 2.061 . S
Co61 O67 2.052 . S
Co61 O69 2.135 1_554 S
O62 Co61 2.061 . S
O62 C65 1.235 1_554 S
C63 O66 1.238 . S
C63 O67 1.241 1_556 S
C64 O57 1.247 . S
C64 O58 1.261 . S
C65 O60 1.259 . S
C65 O62 1.235 1_556 S
O66 Co56 2.021 . S
O66 C63 1.238 . S
O67 Co61 2.052 . S
O67 C63 1.241 1_554 S
O68 Co56 2.137 . S
O68 C59 1.247 . S
O69 Co56 2.244 . S
O69 C59 1.272 . S
O69 Co61 2.135 1_556 S
Co70 O71 2.216 . S
Co70 O72 2.091 . S
Co70 O74 2.004 . S
Co70 O80 2.021 . S
Co70 O82 2.137 . S
Co70 O83 2.244 . S
O71 Co70 2.216 . S
O71 C78 1.247 . S
O72 Co70 2.091 . S
O72 C78 1.261 . S
C73 O82 1.247 . S
C73 O83 1.272 . S
O74 Co70 2.004 . S
O74 C79 1.259 . S
Co75 O76 2.061 . S
Co75 O81 2.052 . S
Co75 O83 2.135 1_556 S
O76 Co75 2.061 . S
O76 C79 1.235 1_556 S
C77 O80 1.238 . S
C77 O81 1.241 1_554 S
C78 O71 1.247 . S
C78 O72 1.261 . S
C79 O74 1.259 . S
C79 O76 1.235 1_554 S
O80 Co70 2.021 . S
O80 C77 1.238 . S
O81 Co75 2.052 . S
O81 C77 1.241 1_556 S
O82 Co70 2.137 . S
O82 C73 1.247 . S
O83 Co70 2.244 . S
O83 C73 1.272 . S
O83 Co75 2.135 1_554 S
Co84 O85 2.216 . S
Co84 O86 2.091 . S
Co84 O88 2.004 . S
Co84 O94 2.021 . S
Co84 O96 2.137 . S
Co84 O97 2.244 . S
O85 Co84 2.216 . S
O85 C92 1.247 . S
O86 Co84 2.091 . S
O86 C92 1.261 . S
C87 O96 1.247 . S
C87 O97 1.272 . S
O88 Co84 2.004 . S
O88 C93 1.259 . S
Co89 O90 2.061 . S
Co89 O95 2.052 . S
Co89 O97 2.135 1_554 S
O90 Co89 2.061 . S
O90 C93 1.235 1_554 S
C91 O94 1.238 . S
C91 O95 1.241 1_556 S
C92 O85 1.247 . S
C92 O86 1.261 . S
C93 O88 1.259 . S
C93 O90 1.235 1_556 S
O94 Co84 2.021 . S
O94 C91 1.238 . S
O95 Co89 2.052 . S
O95 C91 1.241 1_554 S
O96 Co84 2.137 . S
O96 C87 1.247 . S
O97 Co84 2.244 . S
O97 C87 1.272 . S
O97 Co89 2.135 1_556 S
Co98 O99 2.216 . S
Co98 O100 2.091 . S
Co98 O102 2.004 . S
Co98 O108 2.021 . S
Co98 O110 2.137 . S
Co98 O111 2.244 . S
O99 Co98 2.216 . S
O99 C106 1.247 . S
O100 Co98 2.091 . S
O100 C106 1.261 . S
C101 O110 1.247 . S
C101 O111 1.272 . S
O102 Co98 2.004 . S
O102 C107 1.259 . S
Co103 O104 2.061 . S
Co103 O109 2.052 . S
Co103 O111 2.135 1_556 S
O104 Co103 2.061 . S
O104 C107 1.235 1_556 S
C105 O108 1.238 . S
C105 O109 1.241 1_554 S
C106 O99 1.247 . S
C106 O100 1.261 . S
C107 O102 1.259 . S
C107 O104 1.235 1_554 S
O108 Co98 2.021 . S
O108 C105 1.238 . S
O109 Co103 2.052 . S
O109 C105 1.241 1_556 S
O110 Co98 2.137 . S
O110 C101 1.247 . S
O111 Co98 2.244 . S
O111 C101 1.272 . S
O111 Co103 2.135 1_554 S
C112 C113 1.386 . S
C112 C114 1.383 . S
C112 H128 0.951 . S
C113 C112 1.386 . S
C113 C117 1.383 . S
C114 C112 1.383 . S
C114 C115 1.402 . S
C114 H129 0.951 . S
C115 C114 1.402 . S
C115 C116 1.375 . S
C115 C118 1.481 . S
C116 C115 1.375 . S
C116 C117 1.367 . S
C116 H130 0.951 . S
C117 C113 1.383 . S
C117 C116 1.367 . S
C117 H131 0.950 . S
C118 C115 1.481 . S
C118 C119 1.297 . S
C118 H132 0.950 . S
C119 C118 1.297 . S
C119 C120 1.479 . S
C119 H133 0.950 . S
C120 C119 1.479 . S
C120 C121 1.375 . S
C120 C126 1.404 . S
C121 C120 1.375 . S
C121 C122 1.369 . S
C121 H134 0.950 . S
C122 C121 1.369 . S
C122 C123 1.392 . S
C122 H135 0.951 . S
C123 C122 1.392 . S
C123 C125 1.384 . S
H124 C126 0.949 . S
C125 C123 1.384 . S
C125 C126 1.385 . S
C125 H127 0.950 . S
C126 C120 1.404 . S
C126 H124 0.949 . S
C126 C125 1.385 . S
H127 C125 0.950 . S
H128 C112 0.951 . S
H129 C114 0.951 . S
H130 C116 0.951 . S
H131 C117 0.950 . S
H132 C118 0.950 . S
H133 C119 0.950 . S
H134 C121 0.950 . S
H135 C122 0.951 . S
C136 C137 1.386 . S
C136 C138 1.383 . S
C136 H152 0.951 . S
C137 C136 1.386 . S
C137 C141 1.383 . S
C138 C136 1.383 . S
C138 C139 1.402 . S
C138 H153 0.951 . S
C139 C138 1.402 . S
C139 C140 1.375 . S
C139 C142 1.481 . S
C140 C139 1.375 . S
C140 C141 1.367 . S
C140 H154 0.951 . S
C141 C137 1.383 . S
C141 C140 1.367 . S
C141 H155 0.950 . S
C142 C139 1.481 . S
C142 C143 1.297 . S
C142 H156 0.950 . S
C143 C142 1.297 . S
C143 C144 1.479 . S
C143 H157 0.950 . S
C144 C143 1.479 . S
C144 C145 1.375 . S
C144 C150 1.404 . S
C145 C144 1.375 . S
C145 C146 1.369 . S
C145 H158 0.950 . S
C146 C145 1.369 . S
C146 C147 1.392 . S
C146 H159 0.951 . S
C147 C146 1.392 . S
C147 C149 1.384 . S
H148 C150 0.949 . S
C149 C147 1.384 . S
C149 C150 1.385 . S
C149 H151 0.950 . S
C150 C144 1.404 . S
C150 H148 0.949 . S
C150 C149 1.385 . S
H151 C149 0.950 . S
H152 C136 0.951 . S
H153 C138 0.951 . S
H154 C140 0.951 . S
H155 C141 0.950 . S
H156 C142 0.950 . S
H157 C143 0.950 . S
H158 C145 0.950 . S
H159 C146 0.951 . S
C160 C161 1.386 . S
C160 C162 1.383 . S
C160 H176 0.951 . S
C161 C160 1.386 . S
C161 C165 1.383 . S
C162 C160 1.383 . S
C162 C163 1.402 . S
C162 H177 0.951 . S
C163 C162 1.402 . S
C163 C164 1.375 . S
C163 C166 1.481 . S
C164 C163 1.375 . S
C164 C165 1.367 . S
C164 H178 0.951 . S
C165 C161 1.383 . S
C165 C164 1.367 . S
C165 H179 0.950 . S
C166 C163 1.481 . S
C166 C167 1.297 . S
C166 H180 0.950 . S
C167 C166 1.297 . S
C167 C168 1.479 . S
C167 H181 0.950 . S
C168 C167 1.479 . S
C168 C169 1.375 . S
C168 C174 1.404 . S
C169 C168 1.375 . S
C169 C170 1.369 . S
C169 H182 0.950 . S
C170 C169 1.369 . S
C170 C171 1.392 . S
C170 H183 0.951 . S
C171 C170 1.392 . S
C171 C173 1.384 . S
H172 C174 0.949 . S
C173 C171 1.384 . S
C173 C174 1.385 . S
C173 H175 0.950 . S
C174 C168 1.404 . S
C174 H172 0.949 . S
C174 C173 1.385 . S
H175 C173 0.950 . S
H176 C160 0.951 . S
H177 C162 0.951 . S
H178 C164 0.951 . S
H179 C165 0.950 . S
H180 C166 0.950 . S
H181 C167 0.950 . S
H182 C169 0.950 . S
H183 C170 0.951 . S
C184 C185 1.386 . S
C184 C186 1.383 . S
C184 H200 0.951 . S
C185 C184 1.386 . S
C185 C189 1.383 . S
C186 C184 1.383 . S
C186 C187 1.402 . S
C186 H201 0.951 . S
C187 C186 1.402 . S
C187 C188 1.375 . S
C187 C190 1.481 . S
C188 C187 1.375 . S
C188 C189 1.367 . S
C188 H202 0.951 . S
C189 C185 1.383 . S
C189 C188 1.367 . S
C189 H203 0.950 . S
C190 C187 1.481 . S
C190 C191 1.297 . S
C190 H204 0.950 . S
C191 C190 1.297 . S
C191 C192 1.479 . S
C191 H205 0.950 . S
C192 C191 1.479 . S
C192 C193 1.375 . S
C192 C198 1.404 . S
C193 C192 1.375 . S
C193 C194 1.369 . S
C193 H206 0.950 . S
C194 C193 1.369 . S
C194 C195 1.392 . S
C194 H207 0.951 . S
C195 C194 1.392 . S
C195 C197 1.384 . S
H196 C198 0.949 . S
C197 C195 1.384 . S
C197 C198 1.385 . S
C197 H199 0.950 . S
C198 C192 1.404 . S
C198 H196 0.949 . S
C198 C197 1.385 . S
H199 C197 0.950 . S
H200 C184 0.951 . S
H201 C186 0.951 . S
H202 C188 0.951 . S
H203 C189 0.950 . S
H204 C190 0.950 . S
H205 C191 0.950 . S
H206 C193 0.950 . S
H207 C194 0.951 . S
C208 C209 1.386 . S
C208 C210 1.383 . S
C208 H224 0.951 . S
C209 C208 1.386 . S
C209 C213 1.383 . S
C210 C208 1.383 . S
C210 C211 1.402 . S
C210 H225 0.951 . S
C211 C210 1.402 . S
C211 C212 1.375 . S
C211 C214 1.481 . S
C212 C211 1.375 . S
C212 C213 1.367 . S
C212 H226 0.951 . S
C213 C209 1.383 . S
C213 C212 1.367 . S
C213 H227 0.950 . S
C214 C211 1.481 . S
C214 C215 1.297 . S
C214 H228 0.950 . S
C215 C214 1.297 . S
C215 C216 1.479 . S
C215 H229 0.950 . S
C216 C215 1.479 . S
C216 C217 1.375 . S
C216 C222 1.404 . S
C217 C216 1.375 . S
C217 C218 1.369 . S
C217 H230 0.950 . S
C218 C217 1.369 . S
C218 C219 1.392 . S
C218 H231 0.951 . S
C219 C218 1.392 . S
C219 C221 1.384 . S
H220 C222 0.949 . S
C221 C219 1.384 . S
C221 C222 1.385 . S
C221 H223 0.950 . S
C222 C216 1.404 . S
C222 H220 0.949 . S
C222 C221 1.385 . S
H223 C221 0.950 . S
H224 C208 0.951 . S
H225 C210 0.951 . S
H226 C212 0.951 . S
H227 C213 0.950 . S
H228 C214 0.950 . S
H229 C215 0.950 . S
H230 C217 0.950 . S
H231 C218 0.951 . S
C232 C233 1.386 . S
C232 C234 1.383 . S
C232 H248 0.951 . S
C233 C232 1.386 . S
C233 C237 1.383 . S
C234 C232 1.383 . S
C234 C235 1.402 . S
C234 H249 0.951 . S
C235 C234 1.402 . S
C235 C236 1.375 . S
C235 C238 1.481 . S
C236 C235 1.375 . S
C236 C237 1.367 . S
C236 H250 0.951 . S
C237 C233 1.383 . S
C237 C236 1.367 . S
C237 H251 0.950 . S
C238 C235 1.481 . S
C238 C239 1.297 . S
C238 H252 0.950 . S
C239 C238 1.297 . S
C239 C240 1.479 . S
C239 H253 0.950 . S
C240 C239 1.479 . S
C240 C241 1.375 . S
C240 C246 1.404 . S
C241 C240 1.375 . S
C241 C242 1.369 . S
C241 H254 0.950 . S
C242 C241 1.369 . S
C242 C243 1.392 . S
C242 H255 0.951 . S
C243 C242 1.392 . S
C243 C245 1.384 . S
H244 C246 0.949 . S
C245 C243 1.384 . S
C245 C246 1.385 . S
C245 H247 0.950 . S
C246 C240 1.404 . S
C246 H244 0.949 . S
C246 C245 1.385 . S
H247 C245 0.950 . S
H248 C232 0.951 . S
H249 C234 0.951 . S
H250 C236 0.951 . S
H251 C237 0.950 . S
H252 C238 0.950 . S
H253 C239 0.950 . S
H254 C241 0.950 . S
H255 C242 0.951 . S
C256 C257 1.386 . S
C256 C258 1.383 . S
C256 H272 0.951 . S
C257 C256 1.386 . S
C257 C261 1.383 . S
C258 C256 1.383 . S
C258 C259 1.402 . S
C258 H273 0.951 . S
C259 C258 1.402 . S
C259 C260 1.375 . S
C259 C262 1.481 . S
C260 C259 1.375 . S
C260 C261 1.367 . S
C260 H274 0.951 . S
C261 C257 1.383 . S
C261 C260 1.367 . S
C261 H275 0.950 1_565 S
C262 C259 1.481 . S
C262 C263 1.297 . S
C262 H276 0.950 . S
C263 C262 1.297 . S
C263 C264 1.479 . S
C263 H277 0.950 . S
C264 C263 1.479 . S
C264 C265 1.375 . S
C264 C270 1.404 . S
C265 C264 1.375 . S
C265 C266 1.369 . S
C265 H278 0.950 . S
C266 C265 1.369 . S
C266 C267 1.392 . S
C266 H279 0.951 . S
C267 C266 1.392 . S
C267 C269 1.384 . S
H268 C270 0.949 . S
C269 C267 1.384 . S
C269 C270 1.385 . S
C269 H271 0.950 . S
C270 C264 1.404 . S
C270 H268 0.949 . S
C270 C269 1.385 . S
H271 C269 0.950 . S
H272 C256 0.951 . S
H273 C258 0.951 . S
H274 C260 0.951 . S
H275 C261 0.950 1_545 S
H276 C262 0.950 . S
H277 C263 0.950 . S
H278 C265 0.950 . S
H279 C266 0.951 . S
C280 C281 1.386 . S
C280 C282 1.383 . S
C280 H296 0.951 . S
C281 C280 1.386 . S
C281 C285 1.383 . S
C282 C280 1.383 . S
C282 C283 1.402 . S
C282 H297 0.951 . S
C283 C282 1.402 . S
C283 C284 1.375 . S
C283 C286 1.481 . S
C284 C283 1.375 . S
C284 C285 1.367 . S
C284 H298 0.951 . S
C285 C281 1.383 . S
C285 C284 1.367 . S
C285 H299 0.950 . S
C286 C283 1.481 . S
C286 C287 1.297 . S
C286 H300 0.950 . S
C287 C286 1.297 . S
C287 C288 1.479 . S
C287 H301 0.950 . S
C288 C287 1.479 . S
C288 C289 1.375 . S
C288 C294 1.404 . S
C289 C288 1.375 . S
C289 C290 1.369 . S
C289 H302 0.950 . S
C290 C289 1.369 . S
C290 C291 1.392 . S
C290 H303 0.951 . S
C291 C290 1.392 . S
C291 C293 1.384 . S
H292 C294 0.949 . S
C293 C291 1.384 . S
C293 C294 1.385 . S
C293 H295 0.950 . S
C294 C288 1.404 . S
C294 H292 0.949 . S
C294 C293 1.385 . S
H295 C293 0.950 . S
H296 C280 0.951 . S
H297 C282 0.951 . S
H298 C284 0.951 . S
H299 C285 0.950 . S
H300 C286 0.950 . S
H301 C287 0.950 . S
H302 C289 0.950 . S
H303 C290 0.951 . S
C304 C305 1.386 . S
C304 C306 1.383 . S
C304 H320 0.951 1_554 S
C305 C304 1.386 . S
C305 C309 1.383 . S
C306 C304 1.383 . S
C306 C307 1.402 . S
C306 H321 0.951 1_554 S
C307 C306 1.402 . S
C307 C308 1.375 . S
C307 C310 1.481 . S
C308 C307 1.375 . S
C308 C309 1.367 . S
C308 H322 0.951 . S
C309 C305 1.383 . S
C309 C308 1.367 . S
C309 H323 0.950 . S
C310 C307 1.481 . S
C310 C311 1.297 . S
C310 H324 0.950 . S
C311 C310 1.297 . S
C311 C312 1.479 . S
C311 H325 0.950 1_554 S
C312 C311 1.479 . S
C312 C313 1.375 1_554 S
C312 C318 1.404 . S
C313 C312 1.375 1_556 S
C313 C314 1.369 . S
C313 H326 0.950 . S
C314 C313 1.369 . S
C314 C315 1.392 . S
C314 H327 0.951 . S
C315 C314 1.392 . S
C315 C317 1.384 1_556 S
H316 C318 0.949 . S
C317 C315 1.384 1_554 S
C317 C318 1.385 . S
C317 H319 0.950 . S
C318 C312 1.404 . S
C318 H316 0.949 . S
C318 C317 1.385 . S
H319 C317 0.950 . S
H320 C304 0.951 1_556 S
H321 C306 0.951 1_556 S
H322 C308 0.951 . S
H323 C309 0.950 . S
H324 C310 0.950 . S
H325 C311 0.950 1_556 S
H326 C313 0.950 . S
H327 C314 0.951 . S
C328 C329 1.386 . S
C328 C330 1.383 . S
C328 H344 0.951 . S
C329 C328 1.386 . S
C329 C333 1.394 . S
C330 C328 1.383 . S
C330 C331 1.402 . S
C330 H345 0.951 . S
C331 C330 1.402 . S
C331 C332 1.375 1_554 S
C331 C334 1.481 . S
C332 C331 1.375 1_556 S
C332 C333 1.364 1_556 S
C332 H346 0.951 . S
C333 C329 1.394 . S
C333 C332 1.364 1_554 S
C333 H347 0.942 1_554 S
C334 C331 1.481 . S
C334 C335 1.297 . S
C334 H348 0.950 1_554 S
C335 C334 1.297 . S
C335 C336 1.479 . S
C335 H349 0.950 . S
C336 C335 1.479 . S
C336 C337 1.375 . S
C336 C342 1.404 1_554 S
C337 C336 1.375 . S
C337 C338 1.369 . S
C337 H350 0.950 . S
C338 C337 1.369 . S
C338 C339 1.392 1_554 S
C338 H351 0.951 . S
C339 C338 1.392 1_556 S
C339 C341 1.384 . S
H340 C342 0.949 . S
C341 C339 1.384 . S
C341 C342 1.385 . S
C341 H343 0.950 . S
C342 C336 1.404 1_556 S
C342 H340 0.949 . S
C342 C341 1.385 . S
H343 C341 0.950 . S
H344 C328 0.951 . S
H345 C330 0.951 . S
H346 C332 0.951 . S
H347 C333 0.942 1_556 S
H348 C334 0.950 1_556 S
H349 C335 0.950 . S
H350 C337 0.950 . S
H351 C338 0.951 . S
C352 C353 1.399 . S
C352 C354 1.380 1_554 S
C352 H368 0.941 1_554 S
C353 C352 1.399 . S
C353 C357 1.383 . S
C354 C352 1.380 1_556 S
C354 C355 1.402 1_556 S
C354 H369 0.951 . S
C355 C354 1.402 1_554 S
C355 C356 1.375 . S
C355 C358 1.481 . S
C356 C355 1.375 . S
C356 C357 1.367 . S
C356 H370 0.951 . S
C357 C353 1.383 . S
C357 C356 1.367 . S
C357 H371 0.950 . S
C358 C355 1.481 . S
C358 C359 1.297 1_554 S
C358 H372 0.950 . S
C359 C358 1.297 1_556 S
C359 C360 1.479 . S
C359 H373 0.950 . S
C360 C359 1.479 . S
C360 C361 1.375 . S
C360 C366 1.417 . S
C361 C360 1.375 . S
C361 C362 1.369 . S
C361 H374 0.950 . S
C362 C361 1.369 . S
C362 C363 1.392 . S
C362 H375 0.951 . S
C363 C362 1.392 . S
C363 C365 1.384 . S
H364 C366 0.936 1_554 S
C365 C363 1.384 . S
C365 C366 1.386 . S
C365 H367 0.950 1_556 S
C366 C360 1.417 . S
C366 H364 0.936 1_556 S
C366 C365 1.386 . S
H367 C365 0.950 1_554 S
H368 C352 0.941 1_556 S
H369 C354 0.951 . S
H370 C356 0.951 . S
H371 C357 0.950 . S
H372 C358 0.950 . S
H373 C359 0.950 . S
H374 C361 0.950 . S
H375 C362 0.951 . S
C376 C377 1.386 1_554 S
C376 C378 1.383 . S
C376 H392 0.951 . S
C377 C376 1.386 1_556 S
C377 C381 1.383 . S
C378 C376 1.383 . S
C378 C379 1.402 1_554 S
C378 H393 0.951 . S
C379 C378 1.402 1_556 S
C379 C380 1.375 . S
C379 C382 1.481 . S
C380 C379 1.375 . S
C380 C381 1.367 . S
C380 H394 0.951 . S
C381 C377 1.383 . S
C381 C380 1.367 . S
C381 H395 0.950 . S
C382 C379 1.481 . S
C382 C383 1.297 1_556 S
C382 H396 0.950 . S
C383 C382 1.297 1_554 S
C383 C384 1.479 . S
C383 H397 0.950 . S
C384 C383 1.479 . S
C384 C385 1.375 . S
C384 C390 1.404 1_554 S
C385 C384 1.375 . S
C385 C386 1.369 . S
C385 H398 0.950 . S
C386 C385 1.369 . S
C386 C387 1.392 . S
C386 H399 0.951 . S
C387 C386 1.392 . S
C387 C389 1.384 1_554 S
H388 C390 0.949 . S
C389 C387 1.384 1_556 S
C389 C390 1.385 . S
C389 H391 0.950 . S
C390 C384 1.404 1_556 S
C390 H388 0.949 . S
C390 C389 1.385 . S
H391 C389 0.950 . S
H392 C376 0.951 . S
H393 C378 0.951 . S
H394 C380 0.951 . S
H395 C381 0.950 . S
H396 C382 0.950 . S
H397 C383 0.950 . S
H398 C385 0.950 . S
H399 C386 0.951 . S
C400 C401 1.386 . S
C400 C402 1.383 . S
C400 H416 0.951 . S
C401 C400 1.386 . S
C401 C405 1.383 . S
C402 C400 1.383 . S
C402 C403 1.402 . S
C402 H417 0.951 . S
C403 C402 1.402 . S
C403 C404 1.375 . S
C403 C406 1.481 . S
C404 C403 1.375 . S
C404 C405 1.367 . S
C404 H418 0.951 . S
C405 C401 1.383 . S
C405 C404 1.367 . S
C405 H419 0.950 . S
C406 C403 1.481 . S
C406 C407 1.297 . S
C406 H420 0.950 1_655 S
C407 C406 1.297 . S
C407 C408 1.479 1_655 S
C407 H421 0.950 . S
C408 C407 1.479 1_455 S
C408 C409 1.375 . S
C408 C414 1.404 . S
C409 C408 1.375 . S
C409 C410 1.369 . S
C409 H422 0.950 1_455 S
C410 C409 1.369 . S
C410 C411 1.392 . S
C410 H423 0.951 . S
C411 C410 1.392 . S
C411 C413 1.384 . S
H412 C414 0.949 . S
C413 C411 1.384 . S
C413 C414 1.385 . S
C413 H415 0.950 . S
C414 C408 1.404 . S
C414 H412 0.949 . S
C414 C413 1.385 . S
H415 C413 0.950 . S
H416 C400 0.951 . S
H417 C402 0.951 . S
H418 C404 0.951 . S
H419 C405 0.950 . S
H420 C406 0.950 1_455 S
H421 C407 0.950 . S
H422 C409 0.950 1_655 S
H423 C410 0.951 . S
C424 C425 1.386 . S
C424 C426 1.383 . S
C424 H440 0.951 . S
C425 C424 1.386 . S
C425 C429 1.383 . S
C426 C424 1.383 . S
C426 C427 1.402 . S
C426 H441 0.951 . S
C427 C426 1.402 . S
C427 C428 1.375 . S
C427 C430 1.481 1_545 S
C428 C427 1.375 . S
C428 C429 1.367 . S
C428 H442 0.951 . S
C429 C425 1.383 . S
C429 C428 1.367 . S
C429 H443 0.950 . S
C430 C427 1.481 1_565 S
C430 C431 1.297 . S
C430 H444 0.950 . S
C431 C430 1.297 . S
C431 C432 1.479 . S
C431 H445 0.950 . S
C432 C431 1.479 . S
C432 C433 1.375 . S
C432 C438 1.404 . S
C433 C432 1.375 . S
C433 C434 1.369 . S
C433 H446 0.950 . S
C434 C433 1.369 . S
C434 C435 1.392 . S
C434 H447 0.951 . S
C435 C434 1.392 . S
C435 C437 1.384 . S
H436 C438 0.949 . S
C437 C435 1.384 . S
C437 C438 1.385 . S
C437 H439 0.950 . S
C438 C432 1.404 . S
C438 H436 0.949 . S
C438 C437 1.385 . S
H439 C437 0.950 . S
H440 C424 0.951 . S
H441 C426 0.951 . S
H442 C428 0.951 . S
H443 C429 0.950 . S
H444 C430 0.950 . S
H445 C431 0.950 . S
H446 C433 0.950 . S
H447 C434 0.951 . S
C448 C449 1.386 . S
C448 C450 1.383 . S
C448 H464 0.951 . S
C449 C448 1.386 . S
C449 C453 1.383 1_556 S
C450 C448 1.383 . S
C450 C451 1.402 . S
C450 H465 0.951 . S
C451 C450 1.402 . S
C451 C452 1.375 1_556 S
C451 C454 1.481 . S
C452 C451 1.375 1_554 S
C452 C453 1.367 . S
C452 H466 0.951 . S
C453 C449 1.383 1_554 S
C453 C452 1.367 . S
C453 H467 0.950 . S
C454 C451 1.481 . S
C454 C455 1.297 1_545 S
C454 H468 0.950 1_556 S
C455 C454 1.297 1_565 S
C455 C456 1.479 . S
C455 H469 0.950 . S
C456 C455 1.479 . S
C456 C457 1.375 . S
C456 C462 1.404 1_556 S
C457 C456 1.375 . S
C457 C458 1.369 . S
C457 H470 0.950 . S
C458 C457 1.369 . S
C458 C459 1.392 . S
C458 H471 0.951 . S
C459 C458 1.392 . S
C459 C461 1.384 1_556 S
H460 C462 0.949 . S
C461 C459 1.384 1_554 S
C461 C462 1.385 . S
C461 H463 0.950 . S
C462 C456 1.404 1_554 S
C462 H460 0.949 . S
C462 C461 1.385 . S
H463 C461 0.950 . S
H464 C448 0.951 . S
H465 C450 0.951 . S
H466 C452 0.951 . S
H467 C453 0.950 . S
H468 C454 0.950 1_554 S
H469 C455 0.950 . S
H470 C457 0.950 . S
H471 C458 0.951 . S
C472 C473 1.386 . S
C472 C474 1.383 . S
C472 H488 0.951 1_554 S
C473 C472 1.386 . S
C473 C477 1.383 . S
C474 C472 1.383 . S
C474 C475 1.402 . S
C474 H489 0.951 1_554 S
C475 C474 1.402 . S
C475 C476 1.375 . S
C475 C478 1.481 . S
C476 C475 1.375 . S
C476 C477 1.367 . S
C476 H490 0.951 . S
C477 C473 1.383 . S
C477 C476 1.367 . S
C477 H491 0.950 . S
C478 C475 1.481 . S
C478 C479 1.297 1_455 S
C478 H492 0.950 . S
C479 C478 1.297 1_655 S
C479 C480 1.479 . S
C479 H493 0.950 . S
C480 C479 1.479 . S
C480 C481 1.375 1_554 S
C480 C486 1.404 . S
C481 C480 1.375 1_556 S
C481 C482 1.369 . S
C481 H494 0.950 . S
C482 C481 1.369 . S
C482 C483 1.392 1_556 S
C482 H495 0.951 . S
C483 C482 1.392 1_554 S
C483 C485 1.384 . S
H484 C486 0.949 . S
C485 C483 1.384 . S
C485 C486 1.385 . S
C485 H487 0.950 . S
C486 C480 1.404 . S
C486 H484 0.949 . S
C486 C485 1.385 . S
H487 C485 0.950 . S
H488 C472 0.951 1_556 S
H489 C474 0.951 1_556 S
H490 C476 0.951 . S
H491 C477 0.950 . S
H492 C478 0.950 . S
H493 C479 0.950 . S
H494 C481 0.950 . S
H495 C482 0.951 . S
C113 C106 1.552 . S
C123 C8 1.565 . S
C137 C17 1.543 . S
C147 C64 1.543 . S
C161 C36 1.564 . S
C171 C78 1.542 . S
C185 C92 1.531 . S
C195 C45 1.529 . S
C209 C21 1.359 1_545 S
C219 C3 1.391 . S
C233 C22 1.411 . S
C243 C37 1.420 1_455 S
C257 C49 1.374 1_565 S
C267 C31 1.370 . S
C281 C50 1.403 . S
C291 C9 1.405 1_655 S
C305 C107 1.475 . S
C315 C59 1.466 . S
C329 C73 1.430 . S
C339 C65 1.432 . S
C353 C79 1.470 . S
C363 C87 1.409 . S
C377 C93 1.451 . S
C387 C101 1.362 . S
C401 C35 0.976 . S
C411 C7 0.917 . S
C425 C51 0.883 . S
C435 C23 1.003 . S
C449 C91 0.982 . S
C459 C63 0.930 . S
C473 C105 1.032 . S
C483 C77 0.980 . S
